# Generated by pormake.
# Topology ukn, (4)-cn, num edge types: 1
# Building blocks:
#     Node 0, Type 0, BuildingBlock: AZAVOO_clean_sbu_0, # of connection points: 4
#     Node 1, Type 0, BuildingBlock: AZAVOO_clean_sbu_0, # of connection points: 4
#     Node 2, Type 0, BuildingBlock: AZAVOO_clean_sbu_0, # of connection points: 4
#     Node 3, Type 0, BuildingBlock: AZAVOO_clean_sbu_0, # of connection points: 4
#     Node 4, Type 0, BuildingBlock: AZAVOO_clean_sbu_0, # of connection points: 4
#     Node 5, Type 0, BuildingBlock: AZAVOO_clean_sbu_0, # of connection points: 4
#     Node 6, Type 0, BuildingBlock: AZAVOO_clean_sbu_0, # of connection points: 4
#     Node 7, Type 0, BuildingBlock: AZAVOO_clean_sbu_0, # of connection points: 4
#     Node 8, Type 0, BuildingBlock: AZAVOO_clean_sbu_0, # of connection points: 4
#     Node 9, Type 0, BuildingBlock: AZAVOO_clean_sbu_0, # of connection points: 4
#     Node 10, Type 0, BuildingBlock: AZAVOO_clean_sbu_0, # of connection points: 4
#     Node 11, Type 0, BuildingBlock: AZAVOO_clean_sbu_0, # of connection points: 4
#     Node 12, Type 0, BuildingBlock: AZAVOO_clean_sbu_0, # of connection points: 4
#     Node 13, Type 0, BuildingBlock: AZAVOO_clean_sbu_0, # of connection points: 4
#     Node 14, Type 0, BuildingBlock: AZAVOO_clean_sbu_0, # of connection points: 4
#     Node 15, Type 0, BuildingBlock: AZAVOO_clean_sbu_0, # of connection points: 4
#     Node 16, Type 0, BuildingBlock: AZAVOO_clean_sbu_0, # of connection points: 4
#     Node 17, Type 0, BuildingBlock: AZAVOO_clean_sbu_0, # of connection points: 4
#     Node 18, Type 0, BuildingBlock: AZAVOO_clean_sbu_0, # of connection points: 4
#     Node 19, Type 0, BuildingBlock: AZAVOO_clean_sbu_0, # of connection points: 4
#     Node 20, Type 0, BuildingBlock: AZAVOO_clean_sbu_0, # of connection points: 4
#     Node 21, Type 0, BuildingBlock: AZAVOO_clean_sbu_0, # of connection points: 4
#     Node 22, Type 0, BuildingBlock: AZAVOO_clean_sbu_0, # of connection points: 4
#     Node 23, Type 0, BuildingBlock: AZAVOO_clean_sbu_0, # of connection points: 4
#     Node 24, Type 0, BuildingBlock: AZAVOO_clean_sbu_0, # of connection points: 4
#     Node 25, Type 0, BuildingBlock: AZAVOO_clean_sbu_0, # of connection points: 4
#     Node 26, Type 0, BuildingBlock: AZAVOO_clean_sbu_0, # of connection points: 4
#     Node 27, Type 0, BuildingBlock: AZAVOO_clean_sbu_0, # of connection points: 4
#     Node 28, Type 0, BuildingBlock: AZAVOO_clean_sbu_0, # of connection points: 4
#     Node 29, Type 0, BuildingBlock: AZAVOO_clean_sbu_0, # of connection points: 4
#     Node 30, Type 0, BuildingBlock: AZAVOO_clean_sbu_0, # of connection points: 4
#     Node 31, Type 0, BuildingBlock: AZAVOO_clean_sbu_0, # of connection points: 4
#     Node 32, Type 0, BuildingBlock: AZAVOO_clean_sbu_0, # of connection points: 4
#     Node 33, Type 0, BuildingBlock: AZAVOO_clean_sbu_0, # of connection points: 4
#     Node 34, Type 0, BuildingBlock: AZAVOO_clean_sbu_0, # of connection points: 4
#     Node 35, Type 0, BuildingBlock: AZAVOO_clean_sbu_0, # of connection points: 4
#     Edge 36, Type (0, 0), None
#     Edge 37, Type (0, 0), None
#     Edge 38, Type (0, 0), None
#     Edge 39, Type (0, 0), None
#     Edge 40, Type (0, 0), None
#     Edge 41, Type (0, 0), None
#     Edge 42, Type (0, 0), None
#     Edge 43, Type (0, 0), None
#     Edge 44, Type (0, 0), None
#     Edge 45, Type (0, 0), None
#     Edge 46, Type (0, 0), None
#     Edge 47, Type (0, 0), None
#     Edge 48, Type (0, 0), None
#     Edge 49, Type (0, 0), None
#     Edge 50, Type (0, 0), None
#     Edge 51, Type (0, 0), None
#     Edge 52, Type (0, 0), None
#     Edge 53, Type (0, 0), None
#     Edge 54, Type (0, 0), None
#     Edge 55, Type (0, 0), None
#     Edge 56, Type (0, 0), None
#     Edge 57, Type (0, 0), None
#     Edge 58, Type (0, 0), None
#     Edge 59, Type (0, 0), None
#     Edge 60, Type (0, 0), None
#     Edge 61, Type (0, 0), None
#     Edge 62, Type (0, 0), None
#     Edge 63, Type (0, 0), None
#     Edge 64, Type (0, 0), None
#     Edge 65, Type (0, 0), None
#     Edge 66, Type (0, 0), None
#     Edge 67, Type (0, 0), None
#     Edge 68, Type (0, 0), None
#     Edge 69, Type (0, 0), None
#     Edge 70, Type (0, 0), None
#     Edge 71, Type (0, 0), None
#     Edge 72, Type (0, 0), None
#     Edge 73, Type (0, 0), None
#     Edge 74, Type (0, 0), None
#     Edge 75, Type (0, 0), None
#     Edge 76, Type (0, 0), None
#     Edge 77, Type (0, 0), None
#     Edge 78, Type (0, 0), None
#     Edge 79, Type (0, 0), None
#     Edge 80, Type (0, 0), None
#     Edge 81, Type (0, 0), None
#     Edge 82, Type (0, 0), None
#     Edge 83, Type (0, 0), None
#     Edge 84, Type (0, 0), None
#     Edge 85, Type (0, 0), None
#     Edge 86, Type (0, 0), None
#     Edge 87, Type (0, 0), None
#     Edge 88, Type (0, 0), None
#     Edge 89, Type (0, 0), None
#     Edge 90, Type (0, 0), None
#     Edge 91, Type (0, 0), None
#     Edge 92, Type (0, 0), None
#     Edge 93, Type (0, 0), None
#     Edge 94, Type (0, 0), None
#     Edge 95, Type (0, 0), None
#     Edge 96, Type (0, 0), None
#     Edge 97, Type (0, 0), None
#     Edge 98, Type (0, 0), None
#     Edge 99, Type (0, 0), None
#     Edge 100, Type (0, 0), None
#     Edge 101, Type (0, 0), None
#     Edge 102, Type (0, 0), None
#     Edge 103, Type (0, 0), None
#     Edge 104, Type (0, 0), None
#     Edge 105, Type (0, 0), None
#     Edge 106, Type (0, 0), None
#     Edge 107, Type (0, 0), None
# Relax obj value: 0.164
# Max RMSD: 0.154
# Mean RMSD: 0.154
data_MOF--net-ukn--node1-AZAVOO_clean_sbu_0--edge1-none
_symmetry_space_group_name_H-M    P1
_symmetry_Int_Tables_number       1
_symmetry_cell_setting            triclinic
loop_
_symmetry_equiv_pos_as_xyz
'x, y, z'
_cell_length_a     48.714366
_cell_length_b     49.027278
_cell_length_c     10.949905
_cell_angle_alpha  91.693728
_cell_angle_beta   88.335593
_cell_angle_gamma 119.40906
loop_
_atom_site_label
_atom_site_type_symbol
_atom_site_fract_x
_atom_site_fract_y
_atom_site_fract_z
_atom_type_partial_charge
Mg0 Mg 0.08263 0.26984 0.91341 0.0
O1 O 0.07075 0.30302 0.80696 0.0
O2 O 0.11225 0.34142 0.88152 0.0
Mg3 Mg 0.15902 0.34217 0.88249 0.0
C4 C 0.09471 0.32974 0.79014 0.0
C5 C 1.00663 0.22978 0.94128 0.0
O6 O 0.98014 0.21383 0.0029 0.0
O7 O 0.09644 0.29782 0.09949 0.0
O8 O 0.14683 0.33615 0.08387 0.0
O9 O 0.10841 0.24579 0.97202 0.0
O10 O 0.13204 0.28973 0.86813 0.0
C11 C 0.12171 0.31978 0.14627 0.0
C12 C 0.13412 0.26845 0.92723 0.0
O13 O 0.03267 0.24074 -0.00398 0.0
Mg14 Mg 0.74965 0.81877 0.079 0.0
O15 O 0.72219 0.78521 0.91943 0.0
O16 O 0.67762 0.78711 0.89921 0.0
Mg17 Mg 0.6801 0.82691 0.02305 0.0
C18 C 0.69569 0.77598 0.86869 0.0
C19 C 0.7934 0.7839 0.04968 0.0
O20 O 0.80933 0.77233 0.10123 0.0
O21 O 0.71338 0.78886 0.22339 0.0
O22 O 0.67653 0.8029 0.20479 0.0
O23 O 0.77857 0.85905 0.95431 0.0
O24 O 0.73198 0.84819 0.02923 0.0
C25 C 0.68882 0.7895 0.26294 0.0
C26 C 0.75615 0.86596 0.96308 0.0
O27 O 0.77909 0.79464 0.11757 0.0
Mg28 Mg 0.22738 0.91877 0.14282 0.0
O29 O 0.25516 0.93624 0.9593 0.0
O30 O 0.28201 0.91469 0.01267 0.0
Mg31 Mg 0.24987 0.86285 0.03478 0.0
C32 C 0.27382 0.92598 0.92853 0.0
C33 C 0.2384 0.99128 0.16176 0.0
O34 O 0.24402 0.01582 0.2305 0.0
O35 O 0.26935 0.92507 0.25274 0.0
O36 O 0.26348 0.87703 0.2318 0.0
O37 O 0.18212 0.89468 0.04058 0.0
O38 O 0.20852 0.87065 0.08439 0.0
C39 C 0.27225 0.90248 0.29325 0.0
C40 C 0.18367 0.86904 0.03815 0.0
O41 O 0.2367 0.96739 0.21126 0.0
Mg42 Mg 0.27446 0.06712 0.0599 0.0
O43 O 0.30683 0.05381 0.16555 0.0
O44 O 0.34635 0.09445 0.09196 0.0
Mg45 Mg 0.34873 0.1417 0.09077 0.0
C46 C 0.33404 0.07706 0.18306 0.0
C47 C 0.23355 0.99172 0.03127 0.0
O48 O 0.21754 0.96538 0.96961 0.0
O49 O 0.30248 0.08007 0.87407 0.0
O50 O 0.34206 0.12971 0.88929 0.0
O51 O 0.25176 0.0942 0.00089 0.0
O52 O 0.29597 0.11641 0.10501 0.0
C53 C 0.32492 0.10489 0.82705 0.0
C54 C 0.27516 0.11935 0.04528 0.0
O55 O 0.24418 0.01762 0.97702 0.0
Mg56 Mg 0.93245 0.221 0.82663 0.0
O57 O 0.94942 0.2487 0.01019 0.0
O58 O 0.92679 0.27449 0.95698 0.0
Mg59 Mg 0.87482 0.24164 0.93402 0.0
C60 C 0.93847 0.26671 0.04107 0.0
C61 C 1.00617 0.23402 0.81029 0.0
O62 O 0.03119 0.24023 0.74262 0.0
O63 O 0.93784 0.26229 0.71653 0.0
O64 O 0.88907 0.25539 0.73727 0.0
O65 O 0.90893 0.17598 0.92869 0.0
O66 O 0.88389 0.20132 0.88433 0.0
C67 C 0.91477 0.26459 0.67597 0.0
C68 C 0.88279 0.1769 0.93065 0.0
O69 O 0.98186 0.23139 0.75949 0.0
Mg70 Mg 0.82579 0.73939 0.88507 0.0
O71 O 0.79082 0.71159 0.04144 0.0
O72 O 0.79147 0.66655 0.05794 0.0
Mg73 Mg 0.83141 0.66853 0.93536 0.0
C74 C 0.78071 0.68481 0.0896 0.0
C75 C 0.79307 0.78501 0.91633 0.0
O76 O 0.78285 0.8021 0.86509 0.0
O77 O 0.79596 0.70491 0.73595 0.0
O78 O 0.80816 0.66687 0.75392 0.0
O79 O 0.86603 0.76627 0.0133 0.0
O80 O 0.85398 0.72013 0.93341 0.0
C81 C 0.79575 0.68014 0.69578 0.0
C82 C 0.87211 0.74342 0.00212 0.0
O83 O 0.80334 0.77036 0.84818 0.0
Mg84 Mg 0.95386 0.74591 0.05474 0.0
O85 O 0.96572 0.71271 0.16113 0.0
O86 O 0.9242 0.67432 0.08657 0.0
Mg87 Mg 0.87745 0.6736 0.08559 0.0
C88 C 0.94175 0.686 0.17795 0.0
C89 C 0.02986 0.78595 0.02693 0.0
O90 O 0.05636 0.80191 0.96534 0.0
O91 O 0.94005 0.71795 0.86862 0.0
O92 O 0.88965 0.67962 0.88422 0.0
O93 O 0.92809 0.76999 -0.00382 0.0
O94 O 0.90445 0.72604 0.10002 0.0
C95 C 0.91477 0.69599 0.82183 0.0
C96 C 0.90239 0.74733 0.04094 0.0
O97 O 1.00382 0.77501 0.97219 0.0
Mg98 Mg 0.28686 0.19707 0.88978 0.0
O99 O 0.31431 0.23063 0.04939 0.0
O100 O 0.35888 0.22873 0.06966 0.0
Mg101 Mg 0.35641 0.18893 0.94585 0.0
C102 C 0.3408 0.23985 0.10016 0.0
C103 C 0.24311 0.23192 0.91885 0.0
O104 O 0.22718 0.24349 0.86723 0.0
O105 O 0.32315 0.22699 0.74549 0.0
O106 O 0.35999 0.21294 0.76407 0.0
O107 O 0.25792 0.15679 0.01445 0.0
O108 O 0.30453 0.16765 0.93966 0.0
C109 C 0.34771 0.22635 0.70593 0.0
C110 C 0.28035 0.14988 0.00573 0.0
O111 O 0.25743 0.22118 0.85104 0.0
Mg112 Mg 0.80906 0.09706 0.82616 0.0
O113 O 0.78133 0.07961 0.00979 0.0
O114 O 0.75445 0.10112 0.95649 0.0
Mg115 Mg 0.78659 0.15296 0.93438 0.0
C116 C 0.76265 0.08984 0.0406 0.0
C117 C 0.79806 0.02455 0.80723 0.0
O118 O 0.79244 1.00002 0.73847 0.0
O119 O 0.76706 0.09075 0.71639 0.0
O120 O 0.77294 0.1388 0.73738 0.0
O121 O 0.85433 0.12112 0.92826 0.0
O122 O 0.82796 0.14519 0.88448 0.0
C123 C 0.76417 0.11334 0.67591 0.0
C124 C 0.85279 0.14677 0.93062 0.0
O125 O 0.79973 0.04843 0.75775 0.0
Mg126 Mg 0.76203 0.94872 0.90908 0.0
O127 O 0.72966 0.96203 0.80349 0.0
O128 O 0.69013 0.92139 0.87706 0.0
Mg129 Mg 0.68775 0.87415 0.87824 0.0
C130 C 0.70244 0.93879 0.78597 0.0
C131 C 0.80294 0.02412 0.93769 0.0
O132 O 0.81896 0.05046 -0.00068 0.0
O133 O 0.73402 0.93578 0.09492 0.0
O134 O 0.69443 0.88614 0.07972 0.0
O135 O 0.78474 0.92164 0.96803 0.0
O136 O 0.74051 0.89944 0.86394 0.0
C137 C 0.71157 0.91096 0.14195 0.0
C138 C 0.76132 0.89649 0.92364 0.0
O139 O 0.79232 0.99823 -0.00805 0.0
Mg140 Mg 0.10405 0.79475 0.14166 0.0
O141 O 0.08712 0.7671 0.95796 0.0
O142 O 0.10974 0.74128 0.01111 0.0
Mg143 Mg 0.16169 0.77416 0.03411 0.0
C144 C 0.09805 0.74908 0.92704 0.0
C145 C 0.03032 0.78169 0.1579 0.0
O146 O 1.0053 0.77546 0.22558 0.0
O147 O 0.09868 0.75343 0.25157 0.0
O148 O 0.14746 0.76035 0.23081 0.0
O149 O 0.12755 0.83979 0.03979 0.0
O150 O 0.15264 0.81447 0.08412 0.0
C151 C 0.12175 0.75113 0.29212 0.0
C152 C 0.1537 0.83889 0.03791 0.0
O153 O 0.05463 0.78432 0.2087 0.0
Mg154 Mg 0.21073 0.27646 0.0832 0.0
O155 O 0.24569 0.30425 0.92678 0.0
O156 O 0.24502 0.34927 0.91022 0.0
Mg157 Mg 0.20508 0.34729 0.03278 0.0
C158 C 0.25579 0.33102 0.87858 0.0
C159 C 0.24344 0.23084 0.05221 0.0
O160 O 0.25366 0.21375 0.10352 0.0
O161 O 0.24056 0.31096 0.23222 0.0
O162 O 0.22833 0.34898 0.21425 0.0
O163 O 0.17049 0.24954 0.95501 0.0
O164 O 0.18253 0.2957 0.03474 0.0
C165 C 0.24076 0.33572 0.27239 0.0
C166 C 0.1644 0.27238 0.96614 0.0
O167 O 0.23317 0.2455 0.12029 0.0
Mg168 Mg 0.75202 0.62072 0.3418 0.0
O169 O 0.7399 0.65172 0.22246 0.0
O170 O 0.78085 0.69058 0.29853 0.0
Mg171 Mg 0.82796 0.69203 0.29734 0.0
C172 C 0.76344 0.6788 0.20695 0.0
C173 C 0.67866 0.57004 0.39797 0.0
O174 O 0.65401 0.55689 0.47134 0.0
O175 O 0.76709 0.65157 0.52075 0.0
O176 O 0.8176 0.6891 0.49987 0.0
O177 O 0.77789 0.59763 0.40962 0.0
O178 O 0.80117 0.63934 0.29282 0.0
C179 C 0.7926 0.6739 0.56427 0.0
C180 C 0.80339 0.61915 0.3588 0.0
O181 O 0.70295 0.59482 0.43323 0.0
Mg182 Mg 0.39147 0.13632 0.51643 0.0
O183 O 0.36573 0.10311 0.35336 0.0
O184 O 0.32103 0.10476 0.33078 0.0
Mg185 Mg 0.32226 0.14423 0.4535 0.0
C186 C 0.33942 0.09394 0.30089 0.0
C187 C 0.43767 0.1047 0.49785 0.0
O188 O 0.45339 0.09325 0.55203 0.0
O189 O 0.35436 0.10537 0.65486 0.0
O190 O 0.3187 0.12098 0.63713 0.0
O191 O 0.42127 0.17669 0.39475 0.0
O192 O 0.37383 0.16516 0.46185 0.0
C193 C 0.33043 0.10702 0.69508 0.0
C194 C 0.39849 0.18312 0.39858 0.0
O195 O 0.42098 0.11312 0.56284 0.0
Mg196 Mg 0.87462 0.27782 0.3383 0.0
O197 O 0.90998 0.27832 0.19174 0.0
O198 O 0.91257 0.2341 0.20589 0.0
Mg199 Mg 0.8752 0.20268 0.34158 0.0
C200 C 0.9214 0.2606 0.15825 0.0
C201 C 0.90813 0.35466 0.28442 0.0
O202 O 0.91697 0.38253 0.33191 0.0
O203 O 0.90637 0.28294 0.49447 0.0
O204 O 0.9003 0.23479 0.50092 0.0
O205 O 0.83148 0.25373 0.21439 0.0
O206 O 0.85115 0.22997 0.3176 0.0
C207 C 0.91068 0.26235 0.54512 0.0
C208 C 0.82928 0.22776 0.24965 0.0
O209 O 0.89363 0.33101 0.35242 0.0
Mg210 Mg 0.96383 0.4276 0.15124 0.0
O211 O 0.9871 0.41834 0.31485 0.0
O212 O 0.03339 0.46216 0.34043 0.0
Mg213 Mg 0.03442 0.50159 0.22785 0.0
C214 C 1.01375 0.43384 0.36708 0.0
C215 C 0.91521 0.35149 0.15606 0.0
O216 O 0.90064 0.32405 0.10066 0.0
O217 O 1.00194 0.43097 0.017 0.0
O218 O 0.03774 0.48134 0.03948 0.0
O219 O 0.93391 0.44156 0.27106 0.0
O220 O 0.98268 0.47414 0.21594 0.0
C221 C 0.02596 0.45562 0.97845 0.0
C222 C 0.95767 0.46958 0.27487 0.0
O223 O 0.93433 0.37531 0.09508 0.0
Mg224 Mg 0.60238 0.52682 0.23864 0.0
O225 O 0.60949 0.5645 0.3839 0.0
O226 O 0.56946 0.57466 0.38014 0.0
Mg227 Mg 0.53349 0.53967 0.24639 0.0
C228 C 0.59583 0.57981 0.42158 0.0
C229 C 0.6793 0.55425 0.2839 0.0
O230 O 0.70625 0.55767 0.24103 0.0
O231 O 0.61185 0.56038 0.08484 0.0
O232 O 0.56691 0.56219 0.08415 0.0
O233 O 0.57489 0.48574 0.36532 0.0
O234 O 0.55427 0.50902 0.2643 0.0
C235 C 0.5938 0.56899 0.03775 0.0
C236 C 0.54998 0.48673 0.33414 0.0
O237 O 0.65434 0.53759 0.22366 0.0
Mg238 Mg 0.47601 0.06733 0.3634 0.0
O239 O 0.43157 0.03228 0.47326 0.0
O240 O 0.43698 0.99511 0.39097 0.0
Mg241 Mg 0.48408 0.99664 0.37478 0.0
C242 C 0.43035 1.00606 0.48609 0.0
C243 C 0.44016 0.10815 0.36514 0.0
O244 O 0.429 0.12423 0.31224 0.0
O245 O 0.46296 0.04059 0.17427 0.0
O246 O 0.47779 1.00379 0.17712 0.0
O247 O 0.52527 0.09346 0.29335 0.0
O248 O 0.50722 0.04885 0.39124 0.0
C249 C 0.46798 0.01976 0.1212 0.0
C250 C 0.52952 0.07086 0.32836 0.0
O251 O 0.45339 0.09592 0.29973 0.0
Mg252 Mg 0.59876 0.06285 0.1519 0.0
O253 O 0.60874 0.04054 0.3161 0.0
O254 O 0.56512 0.99424 0.34338 0.0
Mg255 Mg 0.52503 0.99204 0.22996 0.0
C256 C 0.59352 0.01423 0.36964 0.0
C257 C 0.67531 0.11158 0.15621 0.0
O258 O 0.70291 0.12613 0.10081 0.0
O259 O 0.59593 0.02507 0.01866 0.0
O260 O 0.54543 0.98902 0.04144 0.0
O261 O 0.58411 0.09207 0.27195 0.0
O262 O 0.55192 0.04342 0.21686 0.0
C263 C 0.57126 1.00103 0.98015 0.0
C264 C 0.55614 0.06809 0.27619 0.0
O265 O 0.6513 0.09268 0.0951 0.0
Mg266 Mg 0.95644 0.54839 0.36187 0.0
O267 O 0.99073 0.5922 0.47614 0.0
O268 O 0.02866 0.58796 0.39234 0.0
Mg269 Mg 0.0284 0.54178 0.37622 0.0
C270 C 1.01747 0.5941 0.48802 0.0
C271 C 0.91333 0.58248 0.35923 0.0
O272 O 0.8969 0.59281 0.30311 0.0
O273 O 0.98407 0.56211 0.17404 0.0
O274 O 0.02146 0.54786 0.17827 0.0
O275 O 0.9313 0.49953 0.28946 0.0
O276 O 0.97579 0.51796 0.39063 0.0
C277 C 1.00531 0.5574 0.12171 0.0
C278 C 0.95419 0.49573 0.32607 0.0
O279 O 0.92718 0.57042 0.29638 0.0
Mg280 Mg 0.47223 0.41303 0.22883 0.0
O281 O 0.44107 0.39981 0.40538 0.0
O282 O 0.42418 0.43041 0.34863 0.0
Mg283 Mg 0.46304 0.4799 0.32415 0.0
C284 C 0.42916 0.41704 0.43492 0.0
C285 C 0.44915 0.33798 0.22556 0.0
O286 O 0.43954 0.31122 0.16646 0.0
O287 O 0.43752 0.41629 0.10033 0.0
O288 O 0.45095 0.4669 0.12594 0.0
O289 O 0.51636 0.4315 0.34086 0.0
O290 O 0.49584 0.46036 0.28849 0.0
C291 C 0.43971 0.44167 0.06143 0.0
C292 C 0.51857 0.45889 0.3385 0.0
O293 O 0.45554 0.36226 0.16589 0.0
Mg294 Mg 0.4053 0.26556 0.34148 0.0
O295 O 0.37415 0.28 0.23409 0.0
O296 O 0.33399 0.24003 0.3087 0.0
Mg297 Mg 0.33015 0.19216 0.31001 0.0
C298 C 0.34667 0.25714 0.21719 0.0
C299 C 0.45217 0.33938 0.35811 0.0
O300 O 0.47097 0.36596 0.41367 0.0
O301 O 0.37688 0.25319 0.52788 0.0
O302 O 0.33615 0.20417 0.51116 0.0
O303 O 0.42746 0.23849 0.40131 0.0
O304 O 0.38296 0.21644 0.29804 0.0
C305 C 0.35358 0.22878 0.57396 0.0
C306 C 0.40375 0.21344 0.35795 0.0
O307 O 0.43742 0.31469 0.42018 0.0
Mg308 Mg 0.74974 0.15234 0.33797 0.0
O309 O 0.74999 0.11751 0.19113 0.0
O310 O 0.79507 0.11602 0.206 0.0
Mg311 Mg 0.82623 0.15349 0.34171 0.0
C312 C 0.76833 0.10672 0.15796 0.0
C313 C 0.67219 0.11828 0.28501 0.0
O314 O 0.64416 0.10932 0.333 0.0
O315 O 0.74528 0.12108 0.49421 0.0
O316 O 0.79416 0.12822 0.50103 0.0
O317 O 0.77328 0.19528 0.21433 0.0
O318 O 0.79788 0.17641 0.31714 0.0
C319 C 0.76636 0.1174 0.54509 0.0
C320 C 0.79963 0.19799 0.24955 0.0
O321 O 0.69607 0.13268 0.35276 0.0
Mg322 Mg 0.88144 0.6293 0.51107 0.0
O323 O 0.91479 0.65456 0.34743 0.0
O324 O 0.91455 0.69969 0.32607 0.0
Mg325 Mg 0.87526 0.6992 0.44917 0.0
C326 C 0.92473 0.68089 0.29563 0.0
C327 C 0.91488 0.5841 0.49259 0.0
O328 O 0.92675 0.56908 0.54895 0.0
O329 O 0.91313 0.66601 0.64995 0.0
O330 O 0.89883 0.7025 0.632 0.0
O331 O 0.83972 0.60034 0.39099 0.0
O332 O 0.85284 0.64774 0.45892 0.0
C333 C 0.91237 0.69031 0.68987 0.0
C334 C 0.83386 0.62338 0.39697 0.0
O335 O 0.90469 0.59955 0.55595 0.0
Mg336 Mg 0.43768 0.95295 0.81724 0.0
O337 O 0.4277 0.97529 0.65312 0.0
O338 O 0.47133 0.02159 0.62582 0.0
Mg339 Mg 0.51142 0.02378 0.73926 0.0
C340 C 0.44293 1.00161 0.59963 0.0
C341 C 0.36113 0.90421 0.81282 0.0
O342 O 0.33353 0.88965 0.8682 0.0
O343 O 0.44051 0.9907 0.95063 0.0
O344 O 0.491 0.02681 0.92772 0.0
O345 O 0.45233 0.92375 0.69707 0.0
O346 O 0.48453 0.97239 0.75235 0.0
C347 C 0.46516 0.01479 -0.01103 0.0
C348 C 0.48031 0.94774 0.69288 0.0
O349 O 0.38514 0.9231 0.87397 0.0
Mg350 Mg 0.08 0.46735 0.60618 0.0
O351 O 0.04572 0.42355 0.4918 0.0
O352 O 1.00774 0.42776 0.57564 0.0
Mg353 Mg 1.00804 0.47397 0.59169 0.0
C354 C 0.01896 0.42163 0.48004 0.0
C355 C 0.1231 0.43326 0.60887 0.0
O356 O 0.13953 0.42292 0.66501 0.0
O357 O 0.05234 0.45361 0.79395 0.0
O358 O 1.01496 0.46787 0.78965 0.0
O359 O 0.10513 0.5162 0.67865 0.0
O360 O 0.06066 0.49779 0.5774 0.0
C361 C 0.03109 0.45831 0.84623 0.0
C362 C 0.08225 0.52001 0.64199 0.0
O363 O 0.10924 0.44531 0.67171 0.0
Mg364 Mg 0.56418 0.6028 0.73992 0.0
O365 O 0.59532 0.61601 0.56334 0.0
O366 O 0.61224 0.58539 0.62005 0.0
Mg367 Mg 0.57333 0.53591 0.64453 0.0
C368 C 0.60725 0.59879 0.53387 0.0
C369 C 0.5873 0.67787 0.74321 0.0
O370 O 0.59693 0.70463 0.80231 0.0
O371 O 0.59887 0.59952 0.86844 0.0
O372 O 0.58545 0.54891 0.84271 0.0
O373 O 0.52003 0.58433 0.62794 0.0
O374 O 0.54056 0.55548 0.68022 0.0
C375 C 0.59672 0.57414 0.90718 0.0
C376 C 0.5178 0.55694 0.63026 0.0
O377 O 0.58089 0.65358 0.80289 0.0
Mg378 Mg 0.63119 0.75029 0.62735 0.0
O379 O 0.66233 0.73583 0.73477 0.0
O380 O 0.70249 0.77581 0.66016 0.0
Mg381 Mg 0.70634 0.82368 0.65887 0.0
C382 C 0.68982 0.7587 0.75167 0.0
C383 C 0.58429 0.67647 0.61065 0.0
O384 O 0.56549 0.6499 0.55508 0.0
O385 O 0.65963 0.76266 0.44098 0.0
O386 O 0.70036 0.81168 0.45771 0.0
O387 O 0.60905 0.77736 0.56753 0.0
O388 O 0.65354 0.7994 0.67081 0.0
C389 C 0.68294 0.78707 0.39491 0.0
C390 C 0.63275 0.80241 0.61094 0.0
O391 O 0.59907 0.70116 0.54859 0.0
Mg392 Mg 0.28671 0.86348 0.63105 0.0
O393 O 0.28646 0.89829 0.77801 0.0
O394 O 0.24138 0.89979 0.76317 0.0
Mg395 Mg 0.21021 0.86232 0.6275 0.0
C396 C 0.26813 0.90909 0.81119 0.0
C397 C 0.36425 0.89754 0.68399 0.0
O398 O 0.39229 0.90652 0.63601 0.0
O399 O 0.29115 0.89477 0.47494 0.0
O400 O 0.24226 0.88759 0.46815 0.0
O401 O 0.26317 0.8205 0.75444 0.0
O402 O 0.23857 0.8394 0.6519 0.0
C403 C 0.27006 0.89843 0.42408 0.0
C404 C 0.23681 0.81779 0.71929 0.0
O405 O 0.34039 0.88315 0.61621 0.0
Mg406 Mg 0.15502 0.38647 0.45707 0.0
O407 O 0.12165 0.36118 0.62066 0.0
O408 O 0.12193 0.31606 0.64202 0.0
Mg409 Mg 0.16122 0.31657 0.51894 0.0
C410 C 0.11172 0.33486 0.67245 0.0
C411 C 0.12156 0.43165 0.47551 0.0
O412 O 0.10969 0.44666 0.41915 0.0
O413 O 0.12335 0.34976 0.31815 0.0
O414 O 0.13766 0.31328 0.33611 0.0
O415 O 0.19672 0.41543 0.57723 0.0
O416 O 0.18362 0.36804 0.50926 0.0
C417 C 0.12412 0.32546 0.27823 0.0
C418 C 0.20259 0.3924 0.5713 0.0
O419 O 0.13176 0.4162 0.41215 0.0
Mg420 Mg 0.28445 0.39512 0.62648 0.0
O421 O 0.2966 0.36412 0.74572 0.0
O422 O 0.25566 0.32524 0.66966 0.0
Mg423 Mg 0.20853 0.32377 0.67083 0.0
C424 C 0.27306 0.33704 0.76124 0.0
C425 C 0.35779 0.44585 0.57055 0.0
O426 O 0.38247 0.45904 0.49728 0.0
O427 O 0.26941 0.36429 0.44745 0.0
O428 O 0.21891 0.32673 0.4683 0.0
O429 O 0.25856 0.41819 0.55871 0.0
O430 O 0.2353 0.37645 0.67543 0.0
C431 C 0.24391 0.34195 0.40391 0.0
C432 C 0.23307 0.39664 0.60946 0.0
O433 O 0.33352 0.42107 0.53512 0.0
Mg434 Mg 0.64502 0.87954 0.45258 0.0
O435 O 0.67076 0.91274 0.61567 0.0
O436 O 0.71546 0.91109 0.63824 0.0
Mg437 Mg 0.71424 0.87162 0.51551 0.0
C438 C 0.69706 0.92191 0.66814 0.0
C439 C 0.59881 0.91115 0.47122 0.0
O440 O 0.58308 0.9226 0.41705 0.0
O441 O 0.68213 0.91049 0.31414 0.0
O442 O 0.71779 0.89488 0.33188 0.0
O443 O 0.61522 0.83916 0.57423 0.0
O444 O 0.66266 0.8507 0.5071 0.0
C445 C 0.70606 0.90883 0.27392 0.0
C446 C 0.638 0.83273 0.57033 0.0
O447 O 0.61551 0.90275 0.40624 0.0
Mg448 Mg 0.1619 0.73794 0.62991 0.0
O449 O 0.12651 0.73744 0.77635 0.0
O450 O 0.12395 0.78167 0.76218 0.0
Mg451 Mg 0.16131 0.81307 0.62644 0.0
C452 C 0.11511 0.75517 0.80983 0.0
C453 C 0.12837 0.66109 0.68381 0.0
O454 O 0.11953 0.63322 0.63631 0.0
O455 O 0.13017 0.7328 0.47362 0.0
O456 O 0.13621 0.78093 0.46715 0.0
O457 O 0.20499 0.76203 0.75405 0.0
O458 O 0.18536 0.78579 0.65057 0.0
C459 C 0.12584 0.75338 0.42296 0.0
C460 C 0.20719 0.78798 0.71872 0.0
O461 O 0.14289 0.68474 0.61586 0.0
Mg462 Mg 0.0726 0.58813 0.81683 0.0
O463 O 0.04933 0.59739 0.65321 0.0
O464 O 1.00304 0.55356 0.62758 0.0
Mg465 Mg 1.00201 0.51414 0.74017 0.0
C466 C 0.02268 0.5819 0.601 0.0
C467 C 0.12123 0.66425 0.81212 0.0
O468 O 0.13578 0.69168 0.86756 0.0
O469 O 0.03449 0.58475 0.95107 0.0
O470 O 0.99866 0.53438 0.92851 0.0
O471 O 0.10252 0.57418 0.69702 0.0
O472 O 0.05375 0.54159 0.75213 0.0
C473 C 1.01043 0.56011 -0.01052 0.0
C474 C 0.07877 0.54616 0.69323 0.0
O475 O 0.10209 0.64043 0.87302 0.0
Mg476 Mg 0.43402 0.489 0.73013 0.0
O477 O 0.42691 0.45132 0.58486 0.0
O478 O 0.46695 0.44118 0.58858 0.0
Mg479 Mg 0.50292 0.47618 0.72233 0.0
C480 C 0.44058 0.43601 0.54722 0.0
C481 C 0.35711 0.46157 0.68473 0.0
O482 O 0.33015 0.45811 0.72754 0.0
O483 O 0.42456 0.45544 0.88391 0.0
O484 O 0.4695 0.45361 0.88449 0.0
O485 O 0.46149 0.53008 0.60346 0.0
O486 O 0.48213 0.50681 0.7045 0.0
C487 C 0.44259 0.44679 0.93084 0.0
C488 C 0.4864 0.5291 0.63467 0.0
O489 O 0.38205 0.47822 0.7451 0.0
Mg490 Mg 0.56043 0.94849 0.60572 0.0
O491 O 0.60486 0.98355 0.49585 0.0
O492 O 0.59948 0.02077 0.57819 0.0
Mg493 Mg 0.55236 0.01918 0.59433 0.0
C494 C 0.60611 0.00978 0.48315 0.0
C495 C 0.59631 0.90769 0.60394 0.0
O496 O 0.60748 0.89162 0.65683 0.0
O497 O 0.57348 0.97523 0.79486 0.0
O498 O 0.55864 0.01203 0.79199 0.0
O499 O 0.51117 0.92237 0.67578 0.0
O500 O 0.52923 0.96697 0.57787 0.0
C501 C 0.56845 0.99607 0.84791 0.0
C502 C 0.50693 0.94497 0.64078 0.0
O503 O 0.58306 0.91991 0.66934 0.0
loop_
_geom_bond_atom_site_label_1
_geom_bond_atom_site_label_2
_geom_bond_distance
_geom_bond_site_symmetry_2
_ccdc_geom_bond_type
Mg0 O1 2.028 1_554 S
Mg0 O7 1.986 . S
Mg0 O9 2.114 1_554 S
Mg0 O10 2.251 . S
Mg0 O13 2.010 . S
O1 Mg0 2.028 1_556 S
O1 C4 1.250 . S
O2 Mg3 2.028 1_556 S
O2 C4 1.248 . S
Mg3 O2 2.028 1_554 S
Mg3 O8 2.032 . S
Mg3 O10 2.079 . S
C4 O1 1.250 . S
C4 O2 1.248 . S
C5 O6 1.264 1_455 S
C5 O13 1.249 . S
O6 C5 1.264 1_655 S
O7 Mg0 1.986 . S
O7 C11 1.246 . S
O8 Mg3 2.032 . S
O8 C11 1.259 . S
O9 Mg0 2.114 1_556 S
O9 C12 1.252 1_556 S
O10 Mg0 2.251 . S
O10 Mg3 2.079 . S
O10 C12 1.273 . S
C11 O7 1.246 . S
C11 O8 1.259 . S
C12 O9 1.252 1_554 S
C12 O10 1.273 . S
O13 Mg0 2.010 . S
O13 C5 1.249 . S
Mg14 O15 2.028 1_554 S
Mg14 O21 1.986 . S
Mg14 O23 2.114 1_554 S
Mg14 O24 2.251 . S
Mg14 O27 2.010 . S
O15 Mg14 2.028 1_556 S
O15 C18 1.250 . S
O16 Mg17 2.028 1_556 S
O16 C18 1.248 . S
Mg17 O16 2.028 1_554 S
Mg17 O22 2.032 . S
Mg17 O24 2.079 . S
C18 O15 1.250 . S
C18 O16 1.248 . S
C19 O20 1.264 . S
C19 O27 1.249 . S
O20 C19 1.264 . S
O21 Mg14 1.986 . S
O21 C25 1.246 . S
O22 Mg17 2.032 . S
O22 C25 1.259 . S
O23 Mg14 2.114 1_556 S
O23 C26 1.252 1_556 S
O24 Mg14 2.251 . S
O24 Mg17 2.079 . S
O24 C26 1.273 . S
C25 O21 1.246 . S
C25 O22 1.259 . S
C26 O23 1.252 1_554 S
C26 O24 1.273 . S
O27 Mg14 2.010 . S
O27 C19 1.249 . S
Mg28 O29 2.028 1_554 S
Mg28 O35 1.986 . S
Mg28 O37 2.114 1_554 S
Mg28 O38 2.251 . S
Mg28 O41 2.010 . S
O29 Mg28 2.028 1_556 S
O29 C32 1.250 . S
O30 Mg31 2.028 1_556 S
O30 C32 1.248 . S
Mg31 O30 2.028 1_554 S
Mg31 O36 2.032 . S
Mg31 O38 2.079 . S
C32 O29 1.250 . S
C32 O30 1.248 . S
C33 O34 1.264 1_565 S
C33 O41 1.249 . S
O34 C33 1.264 1_545 S
O35 Mg28 1.986 . S
O35 C39 1.246 . S
O36 Mg31 2.032 . S
O36 C39 1.259 . S
O37 Mg28 2.114 1_556 S
O37 C40 1.252 1_556 S
O38 Mg28 2.251 . S
O38 Mg31 2.079 . S
O38 C40 1.273 . S
C39 O35 1.246 . S
C39 O36 1.259 . S
C40 O37 1.252 1_554 S
C40 O38 1.273 . S
O41 Mg28 2.010 . S
O41 C33 1.249 . S
Mg42 O43 2.028 1_556 S
Mg42 O49 1.986 . S
Mg42 O51 2.114 1_556 S
Mg42 O52 2.251 . S
Mg42 O55 2.010 . S
O43 Mg42 2.028 1_554 S
O43 C46 1.250 . S
O44 Mg45 2.028 1_554 S
O44 C46 1.248 . S
Mg45 O44 2.028 1_556 S
Mg45 O50 2.032 . S
Mg45 O52 2.079 . S
C46 O43 1.250 . S
C46 O44 1.248 . S
C47 O48 1.264 1_545 S
C47 O55 1.249 . S
O48 C47 1.264 1_565 S
O49 Mg42 1.986 . S
O49 C53 1.246 . S
O50 Mg45 2.032 . S
O50 C53 1.259 . S
O51 Mg42 2.114 1_554 S
O51 C54 1.252 1_554 S
O52 Mg42 2.251 . S
O52 Mg45 2.079 . S
O52 C54 1.273 . S
C53 O49 1.246 . S
C53 O50 1.259 . S
C54 O51 1.252 1_556 S
C54 O52 1.273 . S
O55 Mg42 2.010 . S
O55 C47 1.249 . S
Mg56 O57 2.028 1_556 S
Mg56 O63 1.986 . S
Mg56 O65 2.114 1_556 S
Mg56 O66 2.251 . S
Mg56 O69 2.010 . S
O57 Mg56 2.028 1_554 S
O57 C60 1.250 . S
O58 Mg59 2.028 1_554 S
O58 C60 1.248 . S
Mg59 O58 2.028 1_556 S
Mg59 O64 2.032 . S
Mg59 O66 2.079 . S
C60 O57 1.250 . S
C60 O58 1.248 . S
C61 O62 1.264 1_655 S
C61 O69 1.249 . S
O62 C61 1.264 1_455 S
O63 Mg56 1.986 . S
O63 C67 1.246 . S
O64 Mg59 2.032 . S
O64 C67 1.259 . S
O65 Mg56 2.114 1_554 S
O65 C68 1.252 1_554 S
O66 Mg56 2.251 . S
O66 Mg59 2.079 . S
O66 C68 1.273 . S
C67 O63 1.246 . S
C67 O64 1.259 . S
C68 O65 1.252 1_556 S
C68 O66 1.273 . S
O69 Mg56 2.010 . S
O69 C61 1.249 . S
Mg70 O71 2.028 1_556 S
Mg70 O77 1.986 . S
Mg70 O79 2.114 1_556 S
Mg70 O80 2.251 . S
Mg70 O83 2.010 . S
O71 Mg70 2.028 1_554 S
O71 C74 1.250 . S
O72 Mg73 2.028 1_554 S
O72 C74 1.248 . S
Mg73 O72 2.028 1_556 S
Mg73 O78 2.032 . S
Mg73 O80 2.079 . S
C74 O71 1.250 . S
C74 O72 1.248 . S
C75 O76 1.264 . S
C75 O83 1.249 . S
O76 C75 1.264 . S
O77 Mg70 1.986 . S
O77 C81 1.246 . S
O78 Mg73 2.032 . S
O78 C81 1.259 . S
O79 Mg70 2.114 1_554 S
O79 C82 1.252 1_554 S
O80 Mg70 2.251 . S
O80 Mg73 2.079 . S
O80 C82 1.273 . S
C81 O77 1.246 . S
C81 O78 1.259 . S
C82 O79 1.252 1_556 S
C82 O80 1.273 . S
O83 Mg70 2.010 . S
O83 C75 1.249 . S
Mg84 O85 2.028 1_556 S
Mg84 O91 1.986 . S
Mg84 O93 2.114 1_556 S
Mg84 O94 2.251 . S
Mg84 O97 2.010 . S
O85 Mg84 2.028 1_554 S
O85 C88 1.250 . S
O86 Mg87 2.028 1_554 S
O86 C88 1.248 . S
Mg87 O86 2.028 1_556 S
Mg87 O92 2.032 . S
Mg87 O94 2.079 . S
C88 O85 1.250 . S
C88 O86 1.248 . S
C89 O90 1.264 1_655 S
C89 O97 1.249 . S
O90 C89 1.264 1_455 S
O91 Mg84 1.986 . S
O91 C95 1.246 . S
O92 Mg87 2.032 . S
O92 C95 1.259 . S
O93 Mg84 2.114 1_554 S
O93 C96 1.252 1_554 S
O94 Mg84 2.251 . S
O94 Mg87 2.079 . S
O94 C96 1.273 . S
C95 O91 1.246 . S
C95 O92 1.259 . S
C96 O93 1.252 1_556 S
C96 O94 1.273 . S
O97 Mg84 2.010 . S
O97 C89 1.249 . S
Mg98 O99 2.028 1_556 S
Mg98 O105 1.986 . S
Mg98 O107 2.114 1_556 S
Mg98 O108 2.251 . S
Mg98 O111 2.010 . S
O99 Mg98 2.028 1_554 S
O99 C102 1.250 . S
O100 Mg101 2.028 1_554 S
O100 C102 1.248 . S
Mg101 O100 2.028 1_556 S
Mg101 O106 2.032 . S
Mg101 O108 2.079 . S
C102 O99 1.250 . S
C102 O100 1.248 . S
C103 O104 1.264 . S
C103 O111 1.249 . S
O104 C103 1.264 . S
O105 Mg98 1.986 . S
O105 C109 1.246 . S
O106 Mg101 2.032 . S
O106 C109 1.259 . S
O107 Mg98 2.114 1_554 S
O107 C110 1.252 1_554 S
O108 Mg98 2.251 . S
O108 Mg101 2.079 . S
O108 C110 1.273 . S
C109 O105 1.246 . S
C109 O106 1.259 . S
C110 O107 1.252 1_556 S
C110 O108 1.273 . S
O111 Mg98 2.010 . S
O111 C103 1.249 . S
Mg112 O113 2.028 1_556 S
Mg112 O119 1.986 . S
Mg112 O121 2.114 1_556 S
Mg112 O122 2.251 . S
Mg112 O125 2.010 . S
O113 Mg112 2.028 1_554 S
O113 C116 1.250 . S
O114 Mg115 2.028 1_554 S
O114 C116 1.248 . S
Mg115 O114 2.028 1_556 S
Mg115 O120 2.032 . S
Mg115 O122 2.079 . S
C116 O113 1.250 . S
C116 O114 1.248 . S
C117 O118 1.264 1_545 S
C117 O125 1.249 . S
O118 C117 1.264 1_565 S
O119 Mg112 1.986 . S
O119 C123 1.246 . S
O120 Mg115 2.032 . S
O120 C123 1.259 . S
O121 Mg112 2.114 1_554 S
O121 C124 1.252 1_554 S
O122 Mg112 2.251 . S
O122 Mg115 2.079 . S
O122 C124 1.273 . S
C123 O119 1.246 . S
C123 O120 1.259 . S
C124 O121 1.252 1_556 S
C124 O122 1.273 . S
O125 Mg112 2.010 . S
O125 C117 1.249 . S
Mg126 O127 2.028 1_554 S
Mg126 O133 1.986 . S
Mg126 O135 2.114 1_554 S
Mg126 O136 2.251 . S
Mg126 O139 2.010 . S
O127 Mg126 2.028 1_556 S
O127 C130 1.250 . S
O128 Mg129 2.028 1_556 S
O128 C130 1.248 . S
Mg129 O128 2.028 1_554 S
Mg129 O134 2.032 . S
Mg129 O136 2.079 . S
C130 O127 1.250 . S
C130 O128 1.248 . S
C131 O132 1.264 1_565 S
C131 O139 1.249 . S
O132 C131 1.264 1_545 S
O133 Mg126 1.986 . S
O133 C137 1.246 . S
O134 Mg129 2.032 . S
O134 C137 1.259 . S
O135 Mg126 2.114 1_556 S
O135 C138 1.252 1_556 S
O136 Mg126 2.251 . S
O136 Mg129 2.079 . S
O136 C138 1.273 . S
C137 O133 1.246 . S
C137 O134 1.259 . S
C138 O135 1.252 1_554 S
C138 O136 1.273 . S
O139 Mg126 2.010 . S
O139 C131 1.249 . S
Mg140 O141 2.028 1_554 S
Mg140 O147 1.986 . S
Mg140 O149 2.114 1_554 S
Mg140 O150 2.251 . S
Mg140 O153 2.010 . S
O141 Mg140 2.028 1_556 S
O141 C144 1.250 . S
O142 Mg143 2.028 1_556 S
O142 C144 1.248 . S
Mg143 O142 2.028 1_554 S
Mg143 O148 2.032 . S
Mg143 O150 2.079 . S
C144 O141 1.250 . S
C144 O142 1.248 . S
C145 O146 1.264 1_455 S
C145 O153 1.249 . S
O146 C145 1.264 1_655 S
O147 Mg140 1.986 . S
O147 C151 1.246 . S
O148 Mg143 2.032 . S
O148 C151 1.259 . S
O149 Mg140 2.114 1_556 S
O149 C152 1.252 1_556 S
O150 Mg140 2.251 . S
O150 Mg143 2.079 . S
O150 C152 1.273 . S
C151 O147 1.246 . S
C151 O148 1.259 . S
C152 O149 1.252 1_554 S
C152 O150 1.273 . S
O153 Mg140 2.010 . S
O153 C145 1.249 . S
Mg154 O155 2.028 1_554 S
Mg154 O161 1.986 . S
Mg154 O163 2.114 1_554 S
Mg154 O164 2.251 . S
Mg154 O167 2.010 . S
O155 Mg154 2.028 1_556 S
O155 C158 1.250 . S
O156 Mg157 2.028 1_556 S
O156 C158 1.248 . S
Mg157 O156 2.028 1_554 S
Mg157 O162 2.032 . S
Mg157 O164 2.079 . S
C158 O155 1.250 . S
C158 O156 1.248 . S
C159 O160 1.264 . S
C159 O167 1.249 . S
O160 C159 1.264 . S
O161 Mg154 1.986 . S
O161 C165 1.246 . S
O162 Mg157 2.032 . S
O162 C165 1.259 . S
O163 Mg154 2.114 1_556 S
O163 C166 1.252 1_556 S
O164 Mg154 2.251 . S
O164 Mg157 2.079 . S
O164 C166 1.273 . S
C165 O161 1.246 . S
C165 O162 1.259 . S
C166 O163 1.252 1_554 S
C166 O164 1.273 . S
O167 Mg154 2.010 . S
O167 C159 1.249 . S
Mg168 O169 2.028 . S
Mg168 O175 1.986 . S
Mg168 O177 2.114 . S
Mg168 O178 2.251 . S
Mg168 O181 2.010 . S
O169 Mg168 2.028 . S
O169 C172 1.250 . S
O170 Mg171 2.028 . S
O170 C172 1.248 . S
Mg171 O170 2.028 . S
Mg171 O176 2.032 . S
Mg171 O178 2.079 . S
C172 O169 1.250 . S
C172 O170 1.248 . S
C173 O174 1.264 . S
C173 O181 1.249 . S
O174 C173 1.264 . S
O175 Mg168 1.986 . S
O175 C179 1.246 . S
O176 Mg171 2.032 . S
O176 C179 1.259 . S
O177 Mg168 2.114 . S
O177 C180 1.252 . S
O178 Mg168 2.251 . S
O178 Mg171 2.079 . S
O178 C180 1.273 . S
C179 O175 1.246 . S
C179 O176 1.259 . S
C180 O177 1.252 . S
C180 O178 1.273 . S
O181 Mg168 2.010 . S
O181 C173 1.249 . S
Mg182 O183 2.028 . S
Mg182 O189 1.986 . S
Mg182 O191 2.114 . S
Mg182 O192 2.251 . S
Mg182 O195 2.010 . S
O183 Mg182 2.028 . S
O183 C186 1.250 . S
O184 Mg185 2.028 . S
O184 C186 1.248 . S
Mg185 O184 2.028 . S
Mg185 O190 2.032 . S
Mg185 O192 2.079 . S
C186 O183 1.250 . S
C186 O184 1.248 . S
C187 O188 1.264 . S
C187 O195 1.249 . S
O188 C187 1.264 . S
O189 Mg182 1.986 . S
O189 C193 1.246 . S
O190 Mg185 2.032 . S
O190 C193 1.259 . S
O191 Mg182 2.114 . S
O191 C194 1.252 . S
O192 Mg182 2.251 . S
O192 Mg185 2.079 . S
O192 C194 1.273 . S
C193 O189 1.246 . S
C193 O190 1.259 . S
C194 O191 1.252 . S
C194 O192 1.273 . S
O195 Mg182 2.010 . S
O195 C187 1.249 . S
Mg196 O197 2.028 . S
Mg196 O203 1.986 . S
Mg196 O205 2.114 . S
Mg196 O206 2.251 . S
Mg196 O209 2.010 . S
O197 Mg196 2.028 . S
O197 C200 1.250 . S
O198 Mg199 2.028 . S
O198 C200 1.248 . S
Mg199 O198 2.028 . S
Mg199 O204 2.032 . S
Mg199 O206 2.079 . S
C200 O197 1.250 . S
C200 O198 1.248 . S
C201 O202 1.264 . S
C201 O209 1.249 . S
O202 C201 1.264 . S
O203 Mg196 1.986 . S
O203 C207 1.246 . S
O204 Mg199 2.032 . S
O204 C207 1.259 . S
O205 Mg196 2.114 . S
O205 C208 1.252 . S
O206 Mg196 2.251 . S
O206 Mg199 2.079 . S
O206 C208 1.273 . S
C207 O203 1.246 . S
C207 O204 1.259 . S
C208 O205 1.252 . S
C208 O206 1.273 . S
O209 Mg196 2.010 . S
O209 C201 1.249 . S
Mg210 O211 2.028 . S
Mg210 O217 1.986 . S
Mg210 O219 2.114 . S
Mg210 O220 2.251 . S
Mg210 O223 2.010 . S
O211 Mg210 2.028 . S
O211 C214 1.250 . S
O212 Mg213 2.028 . S
O212 C214 1.248 1_455 S
Mg213 O212 2.028 . S
Mg213 O218 2.032 . S
Mg213 O220 2.079 1_455 S
C214 O211 1.250 . S
C214 O212 1.248 1_655 S
C215 O216 1.264 . S
C215 O223 1.249 . S
O216 C215 1.264 . S
O217 Mg210 1.986 . S
O217 C221 1.246 . S
O218 Mg213 2.032 . S
O218 C221 1.259 1_455 S
O219 Mg210 2.114 . S
O219 C222 1.252 . S
O220 Mg210 2.251 . S
O220 Mg213 2.079 1_655 S
O220 C222 1.273 . S
C221 O217 1.246 . S
C221 O218 1.259 1_655 S
C222 O219 1.252 . S
C222 O220 1.273 . S
O223 Mg210 2.010 . S
O223 C215 1.249 . S
Mg224 O225 2.028 . S
Mg224 O231 1.986 . S
Mg224 O233 2.114 . S
Mg224 O234 2.251 . S
Mg224 O237 2.010 . S
O225 Mg224 2.028 . S
O225 C228 1.250 . S
O226 Mg227 2.028 . S
O226 C228 1.248 . S
Mg227 O226 2.028 . S
Mg227 O232 2.032 . S
Mg227 O234 2.079 . S
C228 O225 1.250 . S
C228 O226 1.248 . S
C229 O230 1.264 . S
C229 O237 1.249 . S
O230 C229 1.264 . S
O231 Mg224 1.986 . S
O231 C235 1.246 . S
O232 Mg227 2.032 . S
O232 C235 1.259 . S
O233 Mg224 2.114 . S
O233 C236 1.252 . S
O234 Mg224 2.251 . S
O234 Mg227 2.079 . S
O234 C236 1.273 . S
C235 O231 1.246 . S
C235 O232 1.259 . S
C236 O233 1.252 . S
C236 O234 1.273 . S
O237 Mg224 2.010 . S
O237 C229 1.249 . S
Mg238 O239 2.028 . S
Mg238 O245 1.986 . S
Mg238 O247 2.114 . S
Mg238 O248 2.251 . S
Mg238 O251 2.010 . S
O239 Mg238 2.028 . S
O239 C242 1.250 . S
O240 Mg241 2.028 . S
O240 C242 1.248 1_565 S
Mg241 O240 2.028 . S
Mg241 O246 2.032 . S
Mg241 O248 2.079 1_565 S
C242 O239 1.250 . S
C242 O240 1.248 1_545 S
C243 O244 1.264 . S
C243 O251 1.249 . S
O244 C243 1.264 . S
O245 Mg238 1.986 . S
O245 C249 1.246 . S
O246 Mg241 2.032 . S
O246 C249 1.259 1_565 S
O247 Mg238 2.114 . S
O247 C250 1.252 . S
O248 Mg238 2.251 . S
O248 Mg241 2.079 1_545 S
O248 C250 1.273 . S
C249 O245 1.246 . S
C249 O246 1.259 1_545 S
C250 O247 1.252 . S
C250 O248 1.273 . S
O251 Mg238 2.010 . S
O251 C243 1.249 . S
Mg252 O253 2.028 . S
Mg252 O259 1.986 . S
Mg252 O261 2.114 . S
Mg252 O262 2.251 . S
Mg252 O265 2.010 . S
O253 Mg252 2.028 . S
O253 C256 1.250 . S
O254 Mg255 2.028 . S
O254 C256 1.248 1_565 S
Mg255 O254 2.028 . S
Mg255 O260 2.032 . S
Mg255 O262 2.079 1_565 S
C256 O253 1.250 . S
C256 O254 1.248 1_545 S
C257 O258 1.264 . S
C257 O265 1.249 . S
O258 C257 1.264 . S
O259 Mg252 1.986 . S
O259 C263 1.246 . S
O260 Mg255 2.032 . S
O260 C263 1.259 1_565 S
O261 Mg252 2.114 . S
O261 C264 1.252 . S
O262 Mg252 2.251 . S
O262 Mg255 2.079 1_545 S
O262 C264 1.273 . S
C263 O259 1.246 . S
C263 O260 1.259 1_545 S
C264 O261 1.252 . S
C264 O262 1.273 . S
O265 Mg252 2.010 . S
O265 C257 1.249 . S
Mg266 O267 2.028 . S
Mg266 O273 1.986 . S
Mg266 O275 2.114 . S
Mg266 O276 2.251 . S
Mg266 O279 2.010 . S
O267 Mg266 2.028 . S
O267 C270 1.250 . S
O268 Mg269 2.028 . S
O268 C270 1.248 1_455 S
Mg269 O268 2.028 . S
Mg269 O274 2.032 . S
Mg269 O276 2.079 1_455 S
C270 O267 1.250 . S
C270 O268 1.248 1_655 S
C271 O272 1.264 . S
C271 O279 1.249 . S
O272 C271 1.264 . S
O273 Mg266 1.986 . S
O273 C277 1.246 . S
O274 Mg269 2.032 . S
O274 C277 1.259 1_455 S
O275 Mg266 2.114 . S
O275 C278 1.252 . S
O276 Mg266 2.251 . S
O276 Mg269 2.079 1_655 S
O276 C278 1.273 . S
C277 O273 1.246 . S
C277 O274 1.259 1_655 S
C278 O275 1.252 . S
C278 O276 1.273 . S
O279 Mg266 2.010 . S
O279 C271 1.249 . S
Mg280 O281 2.028 . S
Mg280 O287 1.986 . S
Mg280 O289 2.114 . S
Mg280 O290 2.251 . S
Mg280 O293 2.010 . S
O281 Mg280 2.028 . S
O281 C284 1.250 . S
O282 Mg283 2.028 . S
O282 C284 1.248 . S
Mg283 O282 2.028 . S
Mg283 O288 2.032 . S
Mg283 O290 2.079 . S
C284 O281 1.250 . S
C284 O282 1.248 . S
C285 O286 1.264 . S
C285 O293 1.249 . S
O286 C285 1.264 . S
O287 Mg280 1.986 . S
O287 C291 1.246 . S
O288 Mg283 2.032 . S
O288 C291 1.259 . S
O289 Mg280 2.114 . S
O289 C292 1.252 . S
O290 Mg280 2.251 . S
O290 Mg283 2.079 . S
O290 C292 1.273 . S
C291 O287 1.246 . S
C291 O288 1.259 . S
C292 O289 1.252 . S
C292 O290 1.273 . S
O293 Mg280 2.010 . S
O293 C285 1.249 . S
Mg294 O295 2.028 . S
Mg294 O301 1.986 . S
Mg294 O303 2.114 . S
Mg294 O304 2.251 . S
Mg294 O307 2.010 . S
O295 Mg294 2.028 . S
O295 C298 1.250 . S
O296 Mg297 2.028 . S
O296 C298 1.248 . S
Mg297 O296 2.028 . S
Mg297 O302 2.032 . S
Mg297 O304 2.079 . S
C298 O295 1.250 . S
C298 O296 1.248 . S
C299 O300 1.264 . S
C299 O307 1.249 . S
O300 C299 1.264 . S
O301 Mg294 1.986 . S
O301 C305 1.246 . S
O302 Mg297 2.032 . S
O302 C305 1.259 . S
O303 Mg294 2.114 . S
O303 C306 1.252 . S
O304 Mg294 2.251 . S
O304 Mg297 2.079 . S
O304 C306 1.273 . S
C305 O301 1.246 . S
C305 O302 1.259 . S
C306 O303 1.252 . S
C306 O304 1.273 . S
O307 Mg294 2.010 . S
O307 C299 1.249 . S
Mg308 O309 2.028 . S
Mg308 O315 1.986 . S
Mg308 O317 2.114 . S
Mg308 O318 2.251 . S
Mg308 O321 2.010 . S
O309 Mg308 2.028 . S
O309 C312 1.250 . S
O310 Mg311 2.028 . S
O310 C312 1.248 . S
Mg311 O310 2.028 . S
Mg311 O316 2.032 . S
Mg311 O318 2.079 . S
C312 O309 1.250 . S
C312 O310 1.248 . S
C313 O314 1.264 . S
C313 O321 1.249 . S
O314 C313 1.264 . S
O315 Mg308 1.986 . S
O315 C319 1.246 . S
O316 Mg311 2.032 . S
O316 C319 1.259 . S
O317 Mg308 2.114 . S
O317 C320 1.252 . S
O318 Mg308 2.251 . S
O318 Mg311 2.079 . S
O318 C320 1.273 . S
C319 O315 1.246 . S
C319 O316 1.259 . S
C320 O317 1.252 . S
C320 O318 1.273 . S
O321 Mg308 2.010 . S
O321 C313 1.249 . S
Mg322 O323 2.028 . S
Mg322 O329 1.986 . S
Mg322 O331 2.114 . S
Mg322 O332 2.251 . S
Mg322 O335 2.010 . S
O323 Mg322 2.028 . S
O323 C326 1.250 . S
O324 Mg325 2.028 . S
O324 C326 1.248 . S
Mg325 O324 2.028 . S
Mg325 O330 2.032 . S
Mg325 O332 2.079 . S
C326 O323 1.250 . S
C326 O324 1.248 . S
C327 O328 1.264 . S
C327 O335 1.249 . S
O328 C327 1.264 . S
O329 Mg322 1.986 . S
O329 C333 1.246 . S
O330 Mg325 2.032 . S
O330 C333 1.259 . S
O331 Mg322 2.114 . S
O331 C334 1.252 . S
O332 Mg322 2.251 . S
O332 Mg325 2.079 . S
O332 C334 1.273 . S
C333 O329 1.246 . S
C333 O330 1.259 . S
C334 O331 1.252 . S
C334 O332 1.273 . S
O335 Mg322 2.010 . S
O335 C327 1.249 . S
Mg336 O337 2.028 . S
Mg336 O343 1.986 . S
Mg336 O345 2.114 . S
Mg336 O346 2.251 . S
Mg336 O349 2.010 . S
O337 Mg336 2.028 . S
O337 C340 1.250 . S
O338 Mg339 2.028 . S
O338 C340 1.248 1_545 S
Mg339 O338 2.028 . S
Mg339 O344 2.032 . S
Mg339 O346 2.079 1_545 S
C340 O337 1.250 . S
C340 O338 1.248 1_565 S
C341 O342 1.264 . S
C341 O349 1.249 . S
O342 C341 1.264 . S
O343 Mg336 1.986 . S
O343 C347 1.246 . S
O344 Mg339 2.032 . S
O344 C347 1.259 1_545 S
O345 Mg336 2.114 . S
O345 C348 1.252 . S
O346 Mg336 2.251 . S
O346 Mg339 2.079 1_565 S
O346 C348 1.273 . S
C347 O343 1.246 . S
C347 O344 1.259 1_565 S
C348 O345 1.252 . S
C348 O346 1.273 . S
O349 Mg336 2.010 . S
O349 C341 1.249 . S
Mg350 O351 2.028 . S
Mg350 O357 1.986 . S
Mg350 O359 2.114 . S
Mg350 O360 2.251 . S
Mg350 O363 2.010 . S
O351 Mg350 2.028 . S
O351 C354 1.250 . S
O352 Mg353 2.028 . S
O352 C354 1.248 1_655 S
Mg353 O352 2.028 . S
Mg353 O358 2.032 . S
Mg353 O360 2.079 1_655 S
C354 O351 1.250 . S
C354 O352 1.248 1_455 S
C355 O356 1.264 . S
C355 O363 1.249 . S
O356 C355 1.264 . S
O357 Mg350 1.986 . S
O357 C361 1.246 . S
O358 Mg353 2.032 . S
O358 C361 1.259 1_655 S
O359 Mg350 2.114 . S
O359 C362 1.252 . S
O360 Mg350 2.251 . S
O360 Mg353 2.079 1_455 S
O360 C362 1.273 . S
C361 O357 1.246 . S
C361 O358 1.259 1_455 S
C362 O359 1.252 . S
C362 O360 1.273 . S
O363 Mg350 2.010 . S
O363 C355 1.249 . S
Mg364 O365 2.028 . S
Mg364 O371 1.986 . S
Mg364 O373 2.114 . S
Mg364 O374 2.251 . S
Mg364 O377 2.010 . S
O365 Mg364 2.028 . S
O365 C368 1.250 . S
O366 Mg367 2.028 . S
O366 C368 1.248 . S
Mg367 O366 2.028 . S
Mg367 O372 2.032 . S
Mg367 O374 2.079 . S
C368 O365 1.250 . S
C368 O366 1.248 . S
C369 O370 1.264 . S
C369 O377 1.249 . S
O370 C369 1.264 . S
O371 Mg364 1.986 . S
O371 C375 1.246 . S
O372 Mg367 2.032 . S
O372 C375 1.259 . S
O373 Mg364 2.114 . S
O373 C376 1.252 . S
O374 Mg364 2.251 . S
O374 Mg367 2.079 . S
O374 C376 1.273 . S
C375 O371 1.246 . S
C375 O372 1.259 . S
C376 O373 1.252 . S
C376 O374 1.273 . S
O377 Mg364 2.010 . S
O377 C369 1.249 . S
Mg378 O379 2.028 . S
Mg378 O385 1.986 . S
Mg378 O387 2.114 . S
Mg378 O388 2.251 . S
Mg378 O391 2.010 . S
O379 Mg378 2.028 . S
O379 C382 1.250 . S
O380 Mg381 2.028 . S
O380 C382 1.248 . S
Mg381 O380 2.028 . S
Mg381 O386 2.032 . S
Mg381 O388 2.079 . S
C382 O379 1.250 . S
C382 O380 1.248 . S
C383 O384 1.264 . S
C383 O391 1.249 . S
O384 C383 1.264 . S
O385 Mg378 1.986 . S
O385 C389 1.246 . S
O386 Mg381 2.032 . S
O386 C389 1.259 . S
O387 Mg378 2.114 . S
O387 C390 1.252 . S
O388 Mg378 2.251 . S
O388 Mg381 2.079 . S
O388 C390 1.273 . S
C389 O385 1.246 . S
C389 O386 1.259 . S
C390 O387 1.252 . S
C390 O388 1.273 . S
O391 Mg378 2.010 . S
O391 C383 1.249 . S
Mg392 O393 2.028 . S
Mg392 O399 1.986 . S
Mg392 O401 2.114 . S
Mg392 O402 2.251 . S
Mg392 O405 2.010 . S
O393 Mg392 2.028 . S
O393 C396 1.250 . S
O394 Mg395 2.028 . S
O394 C396 1.248 . S
Mg395 O394 2.028 . S
Mg395 O400 2.032 . S
Mg395 O402 2.079 . S
C396 O393 1.250 . S
C396 O394 1.248 . S
C397 O398 1.264 . S
C397 O405 1.249 . S
O398 C397 1.264 . S
O399 Mg392 1.986 . S
O399 C403 1.246 . S
O400 Mg395 2.032 . S
O400 C403 1.259 . S
O401 Mg392 2.114 . S
O401 C404 1.252 . S
O402 Mg392 2.251 . S
O402 Mg395 2.079 . S
O402 C404 1.273 . S
C403 O399 1.246 . S
C403 O400 1.259 . S
C404 O401 1.252 . S
C404 O402 1.273 . S
O405 Mg392 2.010 . S
O405 C397 1.249 . S
Mg406 O407 2.028 . S
Mg406 O413 1.986 . S
Mg406 O415 2.114 . S
Mg406 O416 2.251 . S
Mg406 O419 2.010 . S
O407 Mg406 2.028 . S
O407 C410 1.250 . S
O408 Mg409 2.028 . S
O408 C410 1.248 . S
Mg409 O408 2.028 . S
Mg409 O414 2.032 . S
Mg409 O416 2.079 . S
C410 O407 1.250 . S
C410 O408 1.248 . S
C411 O412 1.264 . S
C411 O419 1.249 . S
O412 C411 1.264 . S
O413 Mg406 1.986 . S
O413 C417 1.246 . S
O414 Mg409 2.032 . S
O414 C417 1.259 . S
O415 Mg406 2.114 . S
O415 C418 1.252 . S
O416 Mg406 2.251 . S
O416 Mg409 2.079 . S
O416 C418 1.273 . S
C417 O413 1.246 . S
C417 O414 1.259 . S
C418 O415 1.252 . S
C418 O416 1.273 . S
O419 Mg406 2.010 . S
O419 C411 1.249 . S
Mg420 O421 2.028 . S
Mg420 O427 1.986 . S
Mg420 O429 2.114 . S
Mg420 O430 2.251 . S
Mg420 O433 2.010 . S
O421 Mg420 2.028 . S
O421 C424 1.250 . S
O422 Mg423 2.028 . S
O422 C424 1.248 . S
Mg423 O422 2.028 . S
Mg423 O428 2.032 . S
Mg423 O430 2.079 . S
C424 O421 1.250 . S
C424 O422 1.248 . S
C425 O426 1.264 . S
C425 O433 1.249 . S
O426 C425 1.264 . S
O427 Mg420 1.986 . S
O427 C431 1.246 . S
O428 Mg423 2.032 . S
O428 C431 1.259 . S
O429 Mg420 2.114 . S
O429 C432 1.252 . S
O430 Mg420 2.251 . S
O430 Mg423 2.079 . S
O430 C432 1.273 . S
C431 O427 1.246 . S
C431 O428 1.259 . S
C432 O429 1.252 . S
C432 O430 1.273 . S
O433 Mg420 2.010 . S
O433 C425 1.249 . S
Mg434 O435 2.028 . S
Mg434 O441 1.986 . S
Mg434 O443 2.114 . S
Mg434 O444 2.251 . S
Mg434 O447 2.010 . S
O435 Mg434 2.028 . S
O435 C438 1.250 . S
O436 Mg437 2.028 . S
O436 C438 1.248 . S
Mg437 O436 2.028 . S
Mg437 O442 2.032 . S
Mg437 O444 2.079 . S
C438 O435 1.250 . S
C438 O436 1.248 . S
C439 O440 1.264 . S
C439 O447 1.249 . S
O440 C439 1.264 . S
O441 Mg434 1.986 . S
O441 C445 1.246 . S
O442 Mg437 2.032 . S
O442 C445 1.259 . S
O443 Mg434 2.114 . S
O443 C446 1.252 . S
O444 Mg434 2.251 . S
O444 Mg437 2.079 . S
O444 C446 1.273 . S
C445 O441 1.246 . S
C445 O442 1.259 . S
C446 O443 1.252 . S
C446 O444 1.273 . S
O447 Mg434 2.010 . S
O447 C439 1.249 . S
Mg448 O449 2.028 . S
Mg448 O455 1.986 . S
Mg448 O457 2.114 . S
Mg448 O458 2.251 . S
Mg448 O461 2.010 . S
O449 Mg448 2.028 . S
O449 C452 1.250 . S
O450 Mg451 2.028 . S
O450 C452 1.248 . S
Mg451 O450 2.028 . S
Mg451 O456 2.032 . S
Mg451 O458 2.079 . S
C452 O449 1.250 . S
C452 O450 1.248 . S
C453 O454 1.264 . S
C453 O461 1.249 . S
O454 C453 1.264 . S
O455 Mg448 1.986 . S
O455 C459 1.246 . S
O456 Mg451 2.032 . S
O456 C459 1.259 . S
O457 Mg448 2.114 . S
O457 C460 1.252 . S
O458 Mg448 2.251 . S
O458 Mg451 2.079 . S
O458 C460 1.273 . S
C459 O455 1.246 . S
C459 O456 1.259 . S
C460 O457 1.252 . S
C460 O458 1.273 . S
O461 Mg448 2.010 . S
O461 C453 1.249 . S
Mg462 O463 2.028 . S
Mg462 O469 1.986 . S
Mg462 O471 2.114 . S
Mg462 O472 2.251 . S
Mg462 O475 2.010 . S
O463 Mg462 2.028 . S
O463 C466 1.250 . S
O464 Mg465 2.028 . S
O464 C466 1.248 1_655 S
Mg465 O464 2.028 . S
Mg465 O470 2.032 . S
Mg465 O472 2.079 1_655 S
C466 O463 1.250 . S
C466 O464 1.248 1_455 S
C467 O468 1.264 . S
C467 O475 1.249 . S
O468 C467 1.264 . S
O469 Mg462 1.986 . S
O469 C473 1.246 . S
O470 Mg465 2.032 . S
O470 C473 1.259 1_655 S
O471 Mg462 2.114 . S
O471 C474 1.252 . S
O472 Mg462 2.251 . S
O472 Mg465 2.079 1_455 S
O472 C474 1.273 . S
C473 O469 1.246 . S
C473 O470 1.259 1_455 S
C474 O471 1.252 . S
C474 O472 1.273 . S
O475 Mg462 2.010 . S
O475 C467 1.249 . S
Mg476 O477 2.028 . S
Mg476 O483 1.986 . S
Mg476 O485 2.114 . S
Mg476 O486 2.251 . S
Mg476 O489 2.010 . S
O477 Mg476 2.028 . S
O477 C480 1.250 . S
O478 Mg479 2.028 . S
O478 C480 1.248 . S
Mg479 O478 2.028 . S
Mg479 O484 2.032 . S
Mg479 O486 2.079 . S
C480 O477 1.250 . S
C480 O478 1.248 . S
C481 O482 1.264 . S
C481 O489 1.249 . S
O482 C481 1.264 . S
O483 Mg476 1.986 . S
O483 C487 1.246 . S
O484 Mg479 2.032 . S
O484 C487 1.259 . S
O485 Mg476 2.114 . S
O485 C488 1.252 . S
O486 Mg476 2.251 . S
O486 Mg479 2.079 . S
O486 C488 1.273 . S
C487 O483 1.246 . S
C487 O484 1.259 . S
C488 O485 1.252 . S
C488 O486 1.273 . S
O489 Mg476 2.010 . S
O489 C481 1.249 . S
Mg490 O491 2.028 . S
Mg490 O497 1.986 . S
Mg490 O499 2.114 . S
Mg490 O500 2.251 . S
Mg490 O503 2.010 . S
O491 Mg490 2.028 . S
O491 C494 1.250 . S
O492 Mg493 2.028 . S
O492 C494 1.248 1_545 S
Mg493 O492 2.028 . S
Mg493 O498 2.032 . S
Mg493 O500 2.079 1_545 S
C494 O491 1.250 . S
C494 O492 1.248 1_565 S
C495 O496 1.264 . S
C495 O503 1.249 . S
O496 C495 1.264 . S
O497 Mg490 1.986 . S
O497 C501 1.246 . S
O498 Mg493 2.032 . S
O498 C501 1.259 1_545 S
O499 Mg490 2.114 . S
O499 C502 1.252 . S
O500 Mg490 2.251 . S
O500 Mg493 2.079 1_565 S
O500 C502 1.273 . S
C501 O497 1.246 . S
C501 O498 1.259 1_565 S
C502 O499 1.252 . S
C502 O500 1.273 . S
O503 Mg490 2.010 . S
O503 C495 1.249 . S
C12 C166 1.248 . S
C26 C138 1.248 . S
C152 C40 1.248 . S
C54 C110 1.248 . S
C124 C68 1.248 . S
C82 C96 1.248 . S
C334 C180 1.248 . S
C194 C306 1.248 . S
C208 C320 1.248 . S
C278 C222 1.248 . S
C236 C292 1.248 . S
C264 C250 1.248 . S
C348 C502 1.248 . S
C474 C362 1.248 . S
C488 C376 1.248 . S
C446 C390 1.248 . S
C460 C404 1.248 . S
C432 C418 1.248 . S
C5 C61 1.221 1_454 S
C75 C19 1.222 1_556 S
C33 C47 1.221 1_564 S
C89 C145 1.221 1_656 S
C103 C159 1.221 1_556 S
C117 C131 1.221 1_546 S
C229 C173 1.221 . S
C243 C187 1.221 . S
C201 C215 1.222 . S
C313 C257 1.222 . S
C327 C271 1.221 . S
C285 C299 1.221 . S
C397 C341 1.222 . S
C355 C411 1.221 . S
C369 C383 1.221 . S
C481 C425 1.221 . S
C439 C495 1.221 . S
C467 C453 1.222 . S
C410 C4 1.458 . S
C18 C382 1.458 . S
C32 C396 1.458 . S
C46 C186 1.458 . S
C200 C60 1.458 . S
C172 C74 1.458 . S
C88 C326 1.458 . S
C102 C298 1.458 . S
C116 C312 1.458 . S
C438 C130 1.458 . S
C452 C144 1.458 . S
C158 C424 1.458 . S
C354 C214 1.458 1_455 S
C228 C368 1.458 . S
C340 C242 1.458 1_565 S
C494 C256 1.458 1_565 S
C270 C466 1.458 1_655 S
C284 C480 1.458 . S
C11 C417 1.420 . S
C389 C25 1.420 . S
C39 C403 1.420 . S
C193 C53 1.420 . S
C67 C207 1.420 . S
C81 C179 1.420 . S
C333 C95 1.420 . S
C109 C305 1.420 . S
C123 C319 1.420 . S
C137 C445 1.420 . S
C459 C151 1.420 . S
C165 C431 1.420 . S
C361 C221 1.420 1_456 S
C235 C375 1.420 1_554 S
C249 C347 1.420 1_544 S
C501 C263 1.420 1_566 S
C473 C277 1.420 1_456 S
C291 C487 1.420 1_554 S
