# Generated by pormake.
# Topology pcb, (4)-cn, num edge types: 1
# Building blocks:
#     Node 0, Type 0, BuildingBlock: UXUYUI_clean_sbu_0, # of connection points: 4
#     Node 1, Type 0, BuildingBlock: UXUYUI_clean_sbu_0, # of connection points: 4
#     Node 2, Type 0, BuildingBlock: UXUYUI_clean_sbu_0, # of connection points: 4
#     Node 3, Type 0, BuildingBlock: UXUYUI_clean_sbu_0, # of connection points: 4
#     Node 4, Type 0, BuildingBlock: UXUYUI_clean_sbu_0, # of connection points: 4
#     Node 5, Type 0, BuildingBlock: UXUYUI_clean_sbu_0, # of connection points: 4
#     Node 6, Type 0, BuildingBlock: UXUYUI_clean_sbu_0, # of connection points: 4
#     Node 7, Type 0, BuildingBlock: UXUYUI_clean_sbu_0, # of connection points: 4
#     Node 8, Type 0, BuildingBlock: UXUYUI_clean_sbu_0, # of connection points: 4
#     Node 9, Type 0, BuildingBlock: UXUYUI_clean_sbu_0, # of connection points: 4
#     Node 10, Type 0, BuildingBlock: UXUYUI_clean_sbu_0, # of connection points: 4
#     Node 11, Type 0, BuildingBlock: UXUYUI_clean_sbu_0, # of connection points: 4
#     Node 12, Type 0, BuildingBlock: UXUYUI_clean_sbu_0, # of connection points: 4
#     Node 13, Type 0, BuildingBlock: UXUYUI_clean_sbu_0, # of connection points: 4
#     Node 14, Type 0, BuildingBlock: UXUYUI_clean_sbu_0, # of connection points: 4
#     Node 15, Type 0, BuildingBlock: UXUYUI_clean_sbu_0, # of connection points: 4
#     Edge 16, Type (0, 0), BuildingBlock: XIVTED_clean_linker_0, # of connection points: 2
#     Edge 17, Type (0, 0), BuildingBlock: XIVTED_clean_linker_0, # of connection points: 2
#     Edge 18, Type (0, 0), BuildingBlock: XIVTED_clean_linker_0, # of connection points: 2
#     Edge 19, Type (0, 0), BuildingBlock: XIVTED_clean_linker_0, # of connection points: 2
#     Edge 20, Type (0, 0), BuildingBlock: XIVTED_clean_linker_0, # of connection points: 2
#     Edge 21, Type (0, 0), BuildingBlock: XIVTED_clean_linker_0, # of connection points: 2
#     Edge 22, Type (0, 0), BuildingBlock: XIVTED_clean_linker_0, # of connection points: 2
#     Edge 23, Type (0, 0), BuildingBlock: XIVTED_clean_linker_0, # of connection points: 2
#     Edge 24, Type (0, 0), BuildingBlock: XIVTED_clean_linker_0, # of connection points: 2
#     Edge 25, Type (0, 0), BuildingBlock: XIVTED_clean_linker_0, # of connection points: 2
#     Edge 26, Type (0, 0), BuildingBlock: XIVTED_clean_linker_0, # of connection points: 2
#     Edge 27, Type (0, 0), BuildingBlock: XIVTED_clean_linker_0, # of connection points: 2
#     Edge 28, Type (0, 0), BuildingBlock: XIVTED_clean_linker_0, # of connection points: 2
#     Edge 29, Type (0, 0), BuildingBlock: XIVTED_clean_linker_0, # of connection points: 2
#     Edge 30, Type (0, 0), BuildingBlock: XIVTED_clean_linker_0, # of connection points: 2
#     Edge 31, Type (0, 0), BuildingBlock: XIVTED_clean_linker_0, # of connection points: 2
#     Edge 32, Type (0, 0), BuildingBlock: XIVTED_clean_linker_0, # of connection points: 2
#     Edge 33, Type (0, 0), BuildingBlock: XIVTED_clean_linker_0, # of connection points: 2
#     Edge 34, Type (0, 0), BuildingBlock: XIVTED_clean_linker_0, # of connection points: 2
#     Edge 35, Type (0, 0), BuildingBlock: XIVTED_clean_linker_0, # of connection points: 2
#     Edge 36, Type (0, 0), BuildingBlock: XIVTED_clean_linker_0, # of connection points: 2
#     Edge 37, Type (0, 0), BuildingBlock: XIVTED_clean_linker_0, # of connection points: 2
#     Edge 38, Type (0, 0), BuildingBlock: XIVTED_clean_linker_0, # of connection points: 2
#     Edge 39, Type (0, 0), BuildingBlock: XIVTED_clean_linker_0, # of connection points: 2
#     Edge 40, Type (0, 0), BuildingBlock: XIVTED_clean_linker_0, # of connection points: 2
#     Edge 41, Type (0, 0), BuildingBlock: XIVTED_clean_linker_0, # of connection points: 2
#     Edge 42, Type (0, 0), BuildingBlock: XIVTED_clean_linker_0, # of connection points: 2
#     Edge 43, Type (0, 0), BuildingBlock: XIVTED_clean_linker_0, # of connection points: 2
#     Edge 44, Type (0, 0), BuildingBlock: XIVTED_clean_linker_0, # of connection points: 2
#     Edge 45, Type (0, 0), BuildingBlock: XIVTED_clean_linker_0, # of connection points: 2
#     Edge 46, Type (0, 0), BuildingBlock: XIVTED_clean_linker_0, # of connection points: 2
#     Edge 47, Type (0, 0), BuildingBlock: XIVTED_clean_linker_0, # of connection points: 2
# Relax obj value: 0.233
# Max RMSD: 0.082
# Mean RMSD: 0.081
data_MOF--net-pcb--node1-UXUYUI_clean_sbu_0--edge1-XIVTED_clean_linker_0
_symmetry_space_group_name_H-M    P1
_symmetry_Int_Tables_number       1
_symmetry_cell_setting            triclinic
loop_
_symmetry_equiv_pos_as_xyz
'x, y, z'
_cell_length_a     69.048832
_cell_length_b     68.785477
_cell_length_c     68.943111
_cell_angle_alpha  90.092327
_cell_angle_beta   89.981704
_cell_angle_gamma 90.131723
loop_
_atom_site_label
_atom_site_type_symbol
_atom_site_fract_x
_atom_site_fract_y
_atom_site_fract_z
_atom_type_partial_charge
Li0 Li 0.15614 0.169 0.13415 0.0
Li1 Li 0.16546 0.17226 0.16794 0.0
Li2 Li 0.15371 0.14136 0.15796 0.0
Li3 Li 0.13289 0.17059 0.1606 0.0
C4 C 0.1962 0.15961 0.14816 0.0
N5 N 0.23477 0.17039 0.14976 0.0
C6 C 0.20167 0.17887 0.14454 0.0
C7 C 0.21041 0.1458 0.15234 0.0
C8 C 0.22121 0.18404 0.1455 0.0
C9 C 0.22982 0.15155 0.15312 0.0
C10 C 0.13908 0.20679 0.15187 0.0
C11 C 0.12056 0.2309 0.16927 0.0
N12 N 0.11345 0.23763 0.15217 0.0
C13 C 0.13179 0.21415 0.13446 0.0
C14 C 0.13361 0.21541 0.16941 0.0
C15 C 0.11879 0.22967 0.13491 0.0
C16 C 0.14422 0.17748 0.09627 0.0
N17 N 0.16015 0.17426 0.10738 0.0
C18 C 0.18063 0.17575 0.0795 0.0
C19 C 0.17812 0.17327 0.09941 0.0
C20 C 0.16443 0.17893 0.06762 0.0
C21 C 0.14603 0.17991 0.07628 0.0
H22 H 0.13003 0.1777 0.10292 0.0
H23 H 0.19051 0.17009 0.10834 0.0
C24 C 0.19685 0.17232 0.19437 0.0
N25 N 0.18435 0.18377 0.18433 0.0
C26 C 0.21138 0.18071 0.20566 0.0
C27 C 0.20003 0.21246 0.1958 0.0
C28 C 0.18565 0.20346 0.18483 0.0
C29 C 0.21312 0.20103 0.20635 0.0
H30 H 0.19571 0.15668 0.19334 0.0
H31 H 0.17572 0.21217 0.17644 0.0
C32 C 0.13103 0.13937 0.12362 0.0
N33 N 0.12533 0.11522 0.09207 0.0
C34 C 0.1125 0.137 0.11582 0.0
C35 C 0.14668 0.12951 0.11535 0.0
C36 C 0.10991 0.12471 0.09987 0.0
C37 C 0.14349 0.11735 0.09941 0.0
C38 C 0.15207 0.15625 0.20017 0.0
C39 C 0.1604 0.13972 0.20843 0.0
C40 C 0.15007 0.17311 0.21135 0.0
C41 C 0.16703 0.14047 0.22756 0.0
C42 C 0.15691 0.17331 0.23041 0.0
N43 N 0.1652 0.15713 0.23805 0.0
C44 C 0.17093 0.1054 0.16726 0.0
C45 C 0.13873 0.10323 0.1556 0.0
C46 C 0.17202 0.08522 0.16883 0.0
N47 N 0.15454 0.11393 0.16054 0.0
C48 C 0.13931 0.083 0.15655 0.0
C49 C 0.15616 0.07367 0.16317 0.0
H50 H 0.18303 0.11431 0.17171 0.0
H51 H 0.12571 0.11038 0.15071 0.0
C52 C 0.09534 0.18211 0.151 0.0
N53 N 0.10724 0.17829 0.16619 0.0
C54 C 0.07587 0.18634 0.15422 0.0
C55 C 0.08142 0.18304 0.1887 0.0
C56 C 0.10079 0.17885 0.1848 0.0
C57 C 0.0686 0.18652 0.17327 0.0
H58 H 0.10091 0.18137 0.13635 0.0
H59 H 0.11056 0.17559 0.19657 0.0
O60 O 0.17704 0.15439 0.14769 0.0
O61 O 0.15153 0.19132 0.15175 0.0
O62 O 0.13379 0.15157 0.13907 0.0
O63 O 0.14566 0.15581 0.18136 0.0
H64 H 0.19087 0.18975 0.14121 0.0
H65 H 0.20657 0.13079 0.15484 0.0
H66 H 0.2256 0.19892 0.1429 0.0
H67 H 0.24095 0.14101 0.15639 0.0
H68 H 0.11609 0.23756 0.18276 0.0
H69 H 0.13614 0.20799 0.12074 0.0
H70 H 0.13929 0.21014 0.183 0.0
H71 H 0.11295 0.2354 0.12154 0.0
H72 H 0.19509 0.17497 0.07347 0.0
H73 H 0.13308 0.18188 0.06766 0.0
H74 H 0.22135 0.17144 0.21345 0.0
H75 H 0.20082 0.22818 0.19613 0.0
H76 H 0.10025 0.1446 0.12202 0.0
H77 H 0.16114 0.13123 0.12113 0.0
H78 H 0.09565 0.12272 0.09368 0.0
H79 H 0.15547 0.10963 0.09287 0.0
H80 H 0.16175 0.12644 0.20018 0.0
H81 H 0.14353 0.18598 0.20532 0.0
H82 H 0.17362 0.12781 0.23406 0.0
H83 H 0.15565 0.18633 0.23913 0.0
H84 H 0.18513 0.0788 0.17455 0.0
H85 H 0.12676 0.07482 0.1518 0.0
H86 H 0.06646 0.18861 0.14187 0.0
H87 H 0.07646 0.1832 0.20361 0.0
Li88 Li 0.82803 0.16597 0.16962 0.0
Li89 Li 0.83795 0.13287 0.15915 0.0
Li90 Li 0.86055 0.16158 0.15995 0.0
Li91 Li 0.83571 0.1598 0.13631 0.0
C92 C 0.84043 0.14868 0.2005 0.0
N93 N 0.82503 0.15013 0.23748 0.0
C94 C 0.82848 0.13367 0.20715 0.0
C95 C 0.84461 0.16439 0.21271 0.0
C96 C 0.82084 0.13467 0.22589 0.0
C97 C 0.83666 0.16487 0.23134 0.0
C98 C 0.79854 0.15098 0.14128 0.0
C99 C 0.77419 0.14029 0.11854 0.0
N100 N 0.76658 0.15851 0.1184 0.0
C101 C 0.79051 0.16961 0.14088 0.0
C102 C 0.79035 0.13619 0.13 0.0
C103 C 0.77433 0.17312 0.12924 0.0
C104 C 0.81345 0.1971 0.19231 0.0
N105 N 0.81035 0.17848 0.18648 0.0
C106 C 0.7806 0.17706 0.20408 0.0
C107 C 0.79437 0.16836 0.1921 0.0
C108 C 0.78359 0.19618 0.21048 0.0
C109 C 0.80028 0.20621 0.20459 0.0
H110 H 0.826 0.20494 0.18729 0.0
H111 H 0.79228 0.15359 0.18712 0.0
C112 C 0.85187 0.09556 0.16662 0.0
N113 N 0.83553 0.10587 0.16299 0.0
C114 C 0.85099 0.07538 0.1684 0.0
C115 C 0.81638 0.07696 0.16316 0.0
C116 C 0.81792 0.09713 0.16161 0.0
C117 C 0.8331 0.06583 0.16637 0.0
H118 H 0.86565 0.10301 0.16766 0.0
H119 H 0.80513 0.10579 0.15915 0.0
C120 C 0.85661 0.19725 0.15113 0.0
N121 N 0.88533 0.22535 0.14988 0.0
C122 C 0.86446 0.20308 0.13335 0.0
C123 C 0.86351 0.20568 0.16828 0.0
C124 C 0.87891 0.21734 0.13302 0.0
C125 C 0.878 0.21985 0.16734 0.0
C126 C 0.86197 0.1351 0.12139 0.0
C127 C 0.86966 0.14816 0.10789 0.0
C128 C 0.85887 0.11574 0.116 0.0
C129 C 0.87401 0.14165 0.08919 0.0
C130 C 0.86345 0.10978 0.09717 0.0
N131 N 0.87085 0.12276 0.08426 0.0
C132 C 0.89356 0.16843 0.18357 0.0
C133 C 0.89871 0.17246 0.14983 0.0
C134 C 0.91276 0.17354 0.18744 0.0
N135 N 0.88693 0.16811 0.165 0.0
C136 C 0.91793 0.17772 0.15302 0.0
C137 C 0.92519 0.17832 0.17203 0.0
H138 H 0.88397 0.1647 0.19536 0.0
H139 H 0.89317 0.17195 0.13523 0.0
C140 C 0.82405 0.18382 0.10497 0.0
N141 N 0.82723 0.16512 0.11046 0.0
C142 C 0.81804 0.18798 0.0861 0.0
C143 C 0.81734 0.15349 0.07935 0.0
C144 C 0.82344 0.15003 0.09828 0.0
C145 C 0.81484 0.17269 0.07296 0.0
H146 H 0.8261 0.1955 0.11526 0.0
H147 H 0.82519 0.13525 0.10325 0.0
O148 O 0.84757 0.14822 0.18198 0.0
O149 O 0.81473 0.14742 0.15215 0.0
O150 O 0.84261 0.18309 0.1518 0.0
O151 O 0.85759 0.14115 0.13981 0.0
H152 H 0.82498 0.12146 0.19789 0.0
H153 H 0.85362 0.17626 0.20775 0.0
H154 H 0.81151 0.12319 0.23118 0.0
H155 H 0.83965 0.17702 0.24087 0.0
H156 H 0.76776 0.12901 0.10967 0.0
H157 H 0.79687 0.18133 0.1492 0.0
H158 H 0.79661 0.12179 0.1298 0.0
H159 H 0.76802 0.18748 0.12873 0.0
H160 H 0.76784 0.16896 0.20837 0.0
H161 H 0.80283 0.22111 0.20906 0.0
H162 H 0.86423 0.0673 0.1707 0.0
H163 H 0.80229 0.07014 0.1618 0.0
H164 H 0.85978 0.19646 0.11994 0.0
H165 H 0.85818 0.20096 0.18223 0.0
H166 H 0.88512 0.22191 0.11937 0.0
H167 H 0.88355 0.22636 0.18052 0.0
H168 H 0.87177 0.16327 0.1116 0.0
H169 H 0.85289 0.10541 0.12619 0.0
H170 H 0.8798 0.15165 0.07856 0.0
H171 H 0.86107 0.09486 0.0928 0.0
H172 H 0.91779 0.17385 0.20232 0.0
H173 H 0.92711 0.18091 0.14068 0.0
H174 H 0.81584 0.20297 0.08186 0.0
H175 H 0.81505 0.14126 0.0697 0.0
Li176 Li 0.84287 0.85339 0.15046 0.0
Li177 Li 0.86583 0.82666 0.15361 0.0
Li178 Li 0.84167 0.82683 0.12775 0.0
Li179 Li 0.83265 0.82145 0.16142 0.0
C180 C 0.8713 0.8624 0.12681 0.0
N181 N 0.88698 0.8983 0.11797 0.0
C182 C 0.88862 0.86839 0.13546 0.0
C183 C 0.86201 0.87461 0.11357 0.0
C184 C 0.89631 0.8866 0.1308 0.0
C185 C 0.87014 0.89272 0.10934 0.0
C186 C 0.84477 0.83922 0.19288 0.0
C187 C 0.84133 0.82265 0.2235 0.0
N188 N 0.83048 0.83768 0.23028 0.0
C189 C 0.83365 0.85453 0.20017 0.0
C190 C 0.84874 0.82318 0.20465 0.0
C191 C 0.82655 0.85347 0.21912 0.0
C192 C 0.82323 0.88927 0.14747 0.0
N193 N 0.8396 0.88048 0.1539 0.0
C194 C 0.85224 0.91074 0.16526 0.0
C195 C 0.85386 0.89067 0.16293 0.0
C196 C 0.83563 0.92035 0.15848 0.0
C197 C 0.82092 0.9093 0.14963 0.0
H198 H 0.81195 0.88073 0.14071 0.0
H199 H 0.86659 0.88319 0.16815 0.0
C200 C 0.90392 0.81681 0.14416 0.0
N201 N 0.89191 0.82064 0.15929 0.0
C202 C 0.92352 0.8133 0.14741 0.0
C203 C 0.91799 0.81767 0.18179 0.0
C204 C 0.89846 0.82106 0.17786 0.0
C205 C 0.93082 0.81392 0.16642 0.0
H206 H 0.8983 0.8169 0.12951 0.0
H207 H 0.88862 0.82439 0.18957 0.0
C208 C 0.80471 0.83701 0.12991 0.0
N209 N 0.77466 0.83282 0.10377 0.0
C210 C 0.79047 0.82285 0.13291 0.0
C211 C 0.80359 0.84913 0.11369 0.0
C212 C 0.7754 0.82096 0.11952 0.0
C213 C 0.78831 0.84674 0.10061 0.0
C214 C 0.86214 0.79037 0.14323 0.0
C215 C 0.86925 0.78502 0.12501 0.0
C216 C 0.86925 0.78122 0.15986 0.0
C217 C 0.88348 0.77067 0.12374 0.0
C218 C 0.88351 0.76697 0.15797 0.0
N219 N 0.89027 0.76204 0.14011 0.0
C220 C 0.84852 0.82744 0.08773 0.0
C221 C 0.8231 0.80623 0.09722 0.0
C222 C 0.84594 0.82234 0.06834 0.0
N223 N 0.83705 0.81951 0.10165 0.0
C224 C 0.81976 0.80098 0.07793 0.0
C225 C 0.83133 0.80906 0.06327 0.0
H226 H 0.85976 0.83764 0.09171 0.0
H227 H 0.8146 0.79972 0.10866 0.0
C228 C 0.80105 0.8186 0.18687 0.0
N229 N 0.81526 0.80833 0.1779 0.0
C230 C 0.78839 0.80933 0.19963 0.0
C231 C 0.8049 0.77902 0.19312 0.0
C232 C 0.81729 0.7889 0.18058 0.0
C233 C 0.7903 0.78928 0.20295 0.0
H234 H 0.79971 0.83403 0.18423 0.0
H235 H 0.82852 0.78108 0.17297 0.0
O236 O 0.86332 0.8448 0.13146 0.0
O237 O 0.85158 0.83983 0.17425 0.0
O238 O 0.81967 0.83899 0.14277 0.0
O239 O 0.84848 0.80466 0.14482 0.0
H240 H 0.89594 0.8592 0.14583 0.0
H241 H 0.84857 0.87021 0.1068 0.0
H242 H 0.90966 0.89147 0.13746 0.0
H243 H 0.86305 0.90237 0.09922 0.0
H244 H 0.84414 0.81026 0.23271 0.0
H245 H 0.83036 0.86701 0.19125 0.0
H246 H 0.85716 0.81112 0.19918 0.0
H247 H 0.81784 0.86517 0.22492 0.0
H248 H 0.86404 0.91865 0.17198 0.0
H249 H 0.8077 0.91601 0.14455 0.0
H250 H 0.93295 0.81082 0.13511 0.0
H251 H 0.92301 0.81817 0.19666 0.0
H252 H 0.79113 0.81331 0.14534 0.0
H253 H 0.81453 0.86011 0.1111 0.0
H254 H 0.76433 0.81001 0.12161 0.0
H255 H 0.78734 0.85593 0.08793 0.0
H256 H 0.86397 0.79197 0.11199 0.0
H257 H 0.86403 0.78529 0.17409 0.0
H258 H 0.88918 0.76645 0.10974 0.0
H259 H 0.88924 0.75988 0.17073 0.0
H260 H 0.85508 0.82891 0.05738 0.0
H261 H 0.80849 0.79054 0.07453 0.0
H262 H 0.77744 0.81782 0.20701 0.0
H263 H 0.80662 0.76348 0.19492 0.0
Li264 Li 0.14046 0.83172 0.16024 0.0
Li265 Li 0.1748 0.8305 0.16818 0.0
Li266 Li 0.16253 0.86057 0.15678 0.0
Li267 Li 0.16582 0.83144 0.13583 0.0
C268 C 0.15611 0.84106 0.19955 0.0
N269 N 0.16127 0.82835 0.23723 0.0
C270 C 0.15178 0.82183 0.20455 0.0
C271 C 0.1629 0.85386 0.2138 0.0
C272 C 0.15453 0.81568 0.22365 0.0
C273 C 0.16544 0.84715 0.23274 0.0
C274 C 0.16089 0.79472 0.14293 0.0
C275 C 0.18089 0.77146 0.12605 0.0
N276 N 0.16476 0.76343 0.118 0.0
C277 C 0.14451 0.78605 0.13471 0.0
C278 C 0.17922 0.7872 0.13876 0.0
C279 C 0.14677 0.77031 0.12207 0.0
C280 C 0.10352 0.81946 0.14939 0.0
N281 N 0.11426 0.82479 0.16504 0.0
C282 C 0.08651 0.82264 0.18564 0.0
C283 C 0.10616 0.82662 0.18293 0.0
C284 C 0.07508 0.817 0.16974 0.0
C285 C 0.08386 0.81536 0.15143 0.0
H286 H 0.11017 0.8189 0.1352 0.0
H287 H 0.11475 0.83162 0.19501 0.0
C288 C 0.20448 0.83148 0.19696 0.0
N289 N 0.19251 0.81985 0.18636 0.0
C290 C 0.21683 0.82339 0.21075 0.0
C291 C 0.20354 0.7917 0.2031 0.0
C292 C 0.19179 0.80033 0.1892 0.0
C293 C 0.21625 0.80329 0.21397 0.0
H294 H 0.20425 0.84704 0.19487 0.0
H295 H 0.18175 0.79151 0.18099 0.0
C296 C 0.12718 0.86039 0.13564 0.0
N297 N 0.09402 0.8824 0.13153 0.0
C298 C 0.11835 0.86214 0.11749 0.0
C299 C 0.11911 0.86979 0.15172 0.0
C300 C 0.1016 0.87335 0.11571 0.0
C301 C 0.10235 0.88086 0.14933 0.0
C302 C 0.20541 0.84905 0.15268 0.0
C303 C 0.21281 0.86677 0.15938 0.0
C304 C 0.21781 0.83313 0.15071 0.0
C305 C 0.23236 0.86812 0.16445 0.0
C306 C 0.23726 0.83505 0.15596 0.0
N307 N 0.24407 0.85235 0.16269 0.0
C308 C 0.17035 0.89706 0.17379 0.0
C309 C 0.15708 0.89853 0.14212 0.0
C310 C 0.17061 0.9173 0.17505 0.0
N311 N 0.16346 0.88814 0.1576 0.0
C312 C 0.15666 0.91878 0.14291 0.0
C313 C 0.16342 0.92833 0.15957 0.0
H314 H 0.17582 0.88845 0.18564 0.0
H315 H 0.15215 0.89111 0.1292 0.0
C316 C 0.15507 0.81955 0.0987 0.0
N317 N 0.17065 0.82326 0.11012 0.0
C318 C 0.15765 0.81407 0.0794 0.0
C319 C 0.19231 0.81589 0.08417 0.0
C320 C 0.18904 0.82147 0.10336 0.0
C321 C 0.17649 0.81233 0.07184 0.0
H322 H 0.14062 0.82108 0.10456 0.0
H323 H 0.20114 0.82453 0.11279 0.0
O324 O 0.15405 0.84712 0.18074 0.0
O325 O 0.15903 0.8105 0.15495 0.0
O326 O 0.1434 0.84918 0.13765 0.0
O327 O 0.18627 0.84752 0.14764 0.0
H328 H 0.14663 0.81167 0.19371 0.0
H329 H 0.1662 0.8688 0.21033 0.0
H330 H 0.1514 0.8008 0.22765 0.0
H331 H 0.17075 0.85689 0.24388 0.0
H332 H 0.19501 0.76562 0.12258 0.0
H333 H 0.13021 0.79136 0.13802 0.0
H334 H 0.19203 0.79346 0.14521 0.0
H335 H 0.1342 0.76357 0.11551 0.0
H336 H 0.08032 0.82413 0.2 0.0
H337 H 0.0755 0.81159 0.13867 0.0
H338 H 0.22638 0.8327 0.21909 0.0
H339 H 0.20279 0.77612 0.20528 0.0
H340 H 0.12437 0.8549 0.10492 0.0
H341 H 0.12568 0.86852 0.1659 0.0
H342 H 0.09462 0.87485 0.10175 0.0
H343 H 0.09596 0.88821 0.16164 0.0
H344 H 0.20361 0.87938 0.16059 0.0
H345 H 0.21248 0.81937 0.1454 0.0
H346 H 0.23822 0.88173 0.16975 0.0
H347 H 0.24694 0.82277 0.1547 0.0
H348 H 0.17601 0.92425 0.18809 0.0
H349 H 0.15127 0.92691 0.1306 0.0
H350 H 0.145 0.8118 0.07039 0.0
H351 H 0.20707 0.81451 0.07905 0.0
Li352 Li 0.16325 0.85646 0.84172 0.0
Li353 Li 0.16274 0.82973 0.86499 0.0
Li354 Li 0.16582 0.82387 0.83053 0.0
Li355 Li 0.1353 0.83487 0.8442 0.0
C356 C 0.20127 0.83008 0.84257 0.0
N357 N 0.23513 0.81218 0.83094 0.0
C358 C 0.20946 0.81545 0.85395 0.0
C359 C 0.21037 0.83571 0.82535 0.0
C360 C 0.22659 0.80657 0.84781 0.0
C361 C 0.22744 0.82643 0.81968 0.0
C362 C 0.14503 0.85874 0.88268 0.0
C363 C 0.13434 0.85446 0.91571 0.0
N364 N 0.14541 0.86991 0.92119 0.0
C365 C 0.15625 0.87461 0.88862 0.0
C366 C 0.13391 0.84863 0.8963 0.0
C367 C 0.15624 0.88002 0.90816 0.0
C368 C 0.15497 0.89549 0.83848 0.0
N369 N 0.16993 0.88275 0.83756 0.0
C370 C 0.19181 0.90809 0.82849 0.0
C371 C 0.18818 0.88861 0.83299 0.0
C372 C 0.17644 0.92142 0.82864 0.0
C373 C 0.15788 0.91496 0.83396 0.0
H374 H 0.14066 0.89036 0.84234 0.0
H375 H 0.1998 0.87813 0.83249 0.0
C376 C 0.16407 0.8044 0.89702 0.0
N377 N 0.17058 0.82164 0.88998 0.0
C378 C 0.16811 0.79906 0.91609 0.0
C379 C 0.18616 0.82899 0.91999 0.0
C380 C 0.18197 0.83361 0.90076 0.0
C381 C 0.17885 0.81168 0.92803 0.0
H382 H 0.15543 0.79495 0.88795 0.0
H383 H 0.1872 0.84709 0.89462 0.0
C384 C 0.1455 0.85909 0.8081 0.0
N385 N 0.14007 0.89122 0.7847 0.0
C386 C 0.12743 0.8682 0.80735 0.0
C387 C 0.16077 0.86626 0.79683 0.0
C388 C 0.12499 0.88442 0.79544 0.0
C389 C 0.15775 0.88255 0.78515 0.0
C390 C 0.13451 0.79691 0.84813 0.0
C391 C 0.1324 0.78551 0.83145 0.0
C392 C 0.12112 0.79511 0.86324 0.0
C393 C 0.11685 0.77254 0.83015 0.0
C394 C 0.10574 0.78202 0.86136 0.0
N395 N 0.10394 0.7711 0.84499 0.0
C396 C 0.18495 0.79027 0.81872 0.0
C397 C 0.17879 0.81266 0.79333 0.0
C398 C 0.19506 0.77816 0.8061 0.0
N399 N 0.17739 0.80726 0.81221 0.0
C400 C 0.18883 0.80102 0.78019 0.0
C401 C 0.19732 0.78366 0.78662 0.0
H402 H 0.1835 0.7864 0.83386 0.0
H403 H 0.17239 0.82613 0.78855 0.0
C404 C 0.09743 0.84432 0.85527 0.0
N405 N 0.10797 0.83398 0.84224 0.0
C406 C 0.0773 0.84453 0.85411 0.0
C407 C 0.07922 0.82352 0.82601 0.0
C408 C 0.09937 0.82389 0.82762 0.0
C409 C 0.06789 0.83395 0.83939 0.0
H410 H 0.10467 0.85266 0.8664 0.0
H411 H 0.10817 0.81618 0.81717 0.0
O412 O 0.18427 0.83861 0.8481 0.0
O413 O 0.14509 0.853 0.86367 0.0
O414 O 0.14831 0.84346 0.82002 0.0
O415 O 0.14951 0.80985 0.8496 0.0
H416 H 0.20258 0.81086 0.86728 0.0
H417 H 0.20412 0.84686 0.81626 0.0
H418 H 0.23304 0.79517 0.85643 0.0
H419 H 0.23453 0.83051 0.80629 0.0
H420 H 0.12593 0.84668 0.92643 0.0
H421 H 0.16503 0.88254 0.87831 0.0
H422 H 0.12523 0.83626 0.89197 0.0
H423 H 0.16493 0.89222 0.91299 0.0
H424 H 0.20631 0.91257 0.82449 0.0
H425 H 0.14574 0.92488 0.83462 0.0
H426 H 0.16258 0.78537 0.92151 0.0
H427 H 0.19434 0.83928 0.92863 0.0
H428 H 0.11547 0.86294 0.81601 0.0
H429 H 0.17493 0.8596 0.79743 0.0
H430 H 0.11111 0.89166 0.7948 0.0
H431 H 0.16949 0.88836 0.77652 0.0
H432 H 0.14254 0.78678 0.81956 0.0
H433 H 0.12247 0.80391 0.87619 0.0
H434 H 0.11499 0.76369 0.8173 0.0
H435 H 0.09521 0.78057 0.87289 0.0
H436 H 0.20155 0.76498 0.81165 0.0
H437 H 0.19004 0.8056 0.76521 0.0
H438 H 0.06923 0.85319 0.86443 0.0
H439 H 0.07263 0.81507 0.81451 0.0
Li440 Li 0.15497 0.15322 0.85835 0.0
Li441 Li 0.15757 0.12834 0.83318 0.0
Li442 Li 0.15937 0.16255 0.82545 0.0
Li443 Li 0.12888 0.14792 0.8352 0.0
C444 C 0.19483 0.15277 0.83474 0.0
N445 N 0.22929 0.1651 0.81845 0.0
C446 C 0.2044 0.14107 0.82122 0.0
C447 C 0.20285 0.17067 0.84011 0.0
C448 C 0.22181 0.14758 0.81314 0.0
C449 C 0.22025 0.17667 0.83166 0.0
C450 C 0.13886 0.1114 0.86191 0.0
C451 C 0.1307 0.07741 0.85883 0.0
N452 N 0.14066 0.07364 0.87541 0.0
C453 C 0.14897 0.1072 0.87895 0.0
C454 C 0.12956 0.09641 0.8518 0.0
C455 C 0.14972 0.08801 0.88553 0.0
C456 C 0.14418 0.15871 0.89671 0.0
N457 N 0.15975 0.15908 0.88468 0.0
C458 C 0.18061 0.16816 0.91078 0.0
C459 C 0.17777 0.16354 0.89125 0.0
C460 C 0.1647 0.1682 0.92349 0.0
C461 C 0.1463 0.16338 0.91624 0.0
H462 H 0.13008 0.15482 0.89105 0.0
H463 H 0.18991 0.16351 0.88136 0.0
C464 C 0.16258 0.09525 0.80979 0.0
N465 N 0.16731 0.10339 0.8271 0.0
C466 C 0.16773 0.07608 0.80577 0.0
C467 C 0.18338 0.07442 0.8371 0.0
C468 C 0.17813 0.09372 0.84039 0.0
C469 C 0.17772 0.06519 0.81979 0.0
H470 H 0.1544 0.10347 0.79929 0.0
H471 H 0.18199 0.10075 0.85389 0.0
C472 C 0.13578 0.18611 0.85774 0.0
N473 N 0.12733 0.21135 0.88779 0.0
C474 C 0.1171 0.18671 0.86556 0.0
C475 C 0.15012 0.19844 0.86514 0.0
C476 C 0.11313 0.19957 0.88075 0.0
C477 C 0.14557 0.21106 0.88037 0.0
C478 C 0.13073 0.14186 0.79788 0.0
C479 C 0.12825 0.15804 0.78591 0.0
C480 C 0.1184 0.12583 0.79588 0.0
C481 C 0.11338 0.15794 0.77217 0.0
C482 C 0.10368 0.12631 0.782 0.0
N483 N 0.1015 0.14223 0.77053 0.0
C484 C 0.17997 0.17253 0.79245 0.0
C485 C 0.1728 0.19938 0.81284 0.0
C486 C 0.19115 0.18426 0.7804 0.0
N487 N 0.17147 0.18017 0.80849 0.0
C488 C 0.18386 0.21168 0.80119 0.0
C489 C 0.19352 0.20403 0.78495 0.0
H490 H 0.17852 0.15717 0.78938 0.0
H491 H 0.16578 0.20502 0.82566 0.0
C492 C 0.09101 0.13479 0.84187 0.0
N493 N 0.10164 0.14841 0.83238 0.0
C494 C 0.07086 0.13523 0.84105 0.0
C495 C 0.07295 0.16376 0.82069 0.0
C496 C 0.0931 0.16279 0.82197 0.0
C497 C 0.06156 0.1499 0.83042 0.0
H498 H 0.09816 0.12383 0.85045 0.0
H499 H 0.10195 0.17367 0.8149 0.0
O500 O 0.1775 0.14691 0.84241 0.0
O501 O 0.13822 0.13004 0.85505 0.0
O502 O 0.14006 0.17336 0.84311 0.0
O503 O 0.14502 0.14177 0.81162 0.0
H504 H 0.19836 0.12723 0.81683 0.0
H505 H 0.19554 0.17999 0.8504 0.0
H506 H 0.22932 0.13873 0.80257 0.0
H507 H 0.22653 0.19057 0.83552 0.0
H508 H 0.12371 0.06566 0.85106 0.0
H509 H 0.15635 0.11856 0.88691 0.0
H510 H 0.1218 0.09938 0.83851 0.0
H511 H 0.15756 0.08453 0.89865 0.0
H512 H 0.19501 0.17181 0.91585 0.0
H513 H 0.13374 0.16287 0.92565 0.0
H514 H 0.16349 0.06973 0.79203 0.0
H515 H 0.19095 0.06661 0.8484 0.0
H516 H 0.10584 0.17722 0.86013 0.0
H517 H 0.16472 0.19799 0.85948 0.0
H518 H 0.09876 0.20012 0.88699 0.0
H519 H 0.15658 0.22054 0.88635 0.0
H520 H 0.13755 0.17063 0.78734 0.0
H521 H 0.12003 0.11324 0.80512 0.0
H522 H 0.11124 0.1704 0.76286 0.0
H523 H 0.09397 0.11406 0.78038 0.0
H524 H 0.19809 0.17788 0.76783 0.0
H525 H 0.18544 0.22681 0.80527 0.0
H526 H 0.06268 0.12452 0.84914 0.0
H527 H 0.06639 0.17524 0.81224 0.0
Li528 Li 0.82192 0.13243 0.84223 0.0
Li529 Li 0.82143 0.15946 0.86607 0.0
Li530 Li 0.81933 0.16559 0.83212 0.0
Li531 Li 0.84948 0.15513 0.84546 0.0
C532 C 0.78308 0.15819 0.84385 0.0
N533 N 0.74789 0.17449 0.83403 0.0
C534 C 0.77444 0.17189 0.85608 0.0
C535 C 0.77367 0.15255 0.82679 0.0
C536 C 0.75667 0.18001 0.85083 0.0
C537 C 0.75594 0.16104 0.82203 0.0
C538 C 0.8513 0.13588 0.88068 0.0
C539 C 0.87053 0.15186 0.90518 0.0
N540 N 0.87563 0.13422 0.91242 0.0
C541 C 0.85673 0.11791 0.88833 0.0
C542 C 0.85824 0.15301 0.88914 0.0
C543 C 0.86905 0.11738 0.9044 0.0
C544 C 0.83019 0.09443 0.83218 0.0
N545 N 0.81559 0.10629 0.83791 0.0
C546 C 0.79314 0.07988 0.83797 0.0
C547 C 0.79729 0.09957 0.84074 0.0
C548 C 0.80799 0.06719 0.83219 0.0
C549 C 0.82669 0.07472 0.82917 0.0
H550 H 0.84459 0.10031 0.83016 0.0
H551 H 0.78601 0.10946 0.84529 0.0
C552 C 0.81427 0.18458 0.89777 0.0
N553 N 0.81343 0.16593 0.89133 0.0
C554 C 0.81001 0.18885 0.9171 0.0
C555 C 0.80362 0.15468 0.92251 0.0
C556 C 0.80797 0.1511 0.9031 0.0
C557 C 0.8049 0.17373 0.92982 0.0
H558 H 0.81865 0.19604 0.88798 0.0
H559 H 0.8076 0.1364 0.8975 0.0
C560 C 0.83636 0.13881 0.80321 0.0
N561 N 0.83549 0.12541 0.76541 0.0
C562 C 0.85224 0.14179 0.79098 0.0
C563 C 0.82006 0.12896 0.79622 0.0
C564 C 0.85151 0.13493 0.77191 0.0
C565 C 0.81989 0.12231 0.77707 0.0
C566 C 0.84507 0.19487 0.84262 0.0
C567 C 0.85253 0.19269 0.82389 0.0
C568 C 0.84746 0.21255 0.85236 0.0
C569 C 0.86225 0.20823 0.81521 0.0
C570 C 0.85728 0.22776 0.84319 0.0
N571 N 0.86441 0.2253 0.82497 0.0
C572 C 0.79774 0.19794 0.82155 0.0
C573 C 0.8091 0.18016 0.79441 0.0
C574 C 0.78758 0.21056 0.8095 0.0
N575 N 0.80772 0.18275 0.81391 0.0
C576 C 0.79945 0.19261 0.7818 0.0
C577 C 0.78815 0.20782 0.78931 0.0
H578 H 0.79736 0.20001 0.83709 0.0
H579 H 0.81762 0.16851 0.78851 0.0
C580 C 0.88499 0.141 0.8337 0.0
N581 N 0.87673 0.15577 0.84379 0.0
C582 C 0.90502 0.14018 0.83154 0.0
C583 C 0.90771 0.16966 0.85053 0.0
C584 C 0.88757 0.16996 0.85224 0.0
C585 C 0.91669 0.15462 0.84004 0.0
H586 H 0.87594 0.12986 0.82729 0.0
H587 H 0.8806 0.18142 0.86039 0.0
O588 O 0.80061 0.15031 0.84863 0.0
O589 O 0.83924 0.13659 0.86496 0.0
O590 O 0.83695 0.14537 0.82195 0.0
O591 O 0.83552 0.17988 0.85155 0.0
H592 H 0.78146 0.17638 0.86937 0.0
H593 H 0.78003 0.14185 0.81726 0.0
H594 H 0.74989 0.19074 0.86007 0.0
H595 H 0.74859 0.15694 0.80879 0.0
H596 H 0.87601 0.165 0.91188 0.0
H597 H 0.85148 0.10452 0.88192 0.0
H598 H 0.85421 0.16705 0.88339 0.0
H599 H 0.87338 0.10357 0.91049 0.0
H600 H 0.77852 0.07465 0.84032 0.0
H601 H 0.83861 0.06538 0.82503 0.0
H602 H 0.81099 0.20375 0.9221 0.0
H603 H 0.80009 0.14253 0.93184 0.0
H604 H 0.86496 0.14943 0.79613 0.0
H605 H 0.80765 0.12652 0.80543 0.0
H606 H 0.86368 0.13718 0.76228 0.0
H607 H 0.80736 0.11468 0.77147 0.0
H608 H 0.85089 0.17918 0.81608 0.0
H609 H 0.84182 0.21449 0.86688 0.0
H610 H 0.86809 0.20672 0.80073 0.0
H611 H 0.85924 0.24151 0.85058 0.0
H612 H 0.77902 0.22201 0.816 0.0
H613 H 0.80084 0.19028 0.76633 0.0
H614 H 0.91126 0.12846 0.82312 0.0
H615 H 0.91616 0.18091 0.85759 0.0
Li616 Li 0.82684 0.85742 0.83724 0.0
Li617 Li 0.82945 0.82781 0.85687 0.0
Li618 Li 0.85504 0.83618 0.83471 0.0
Li619 Li 0.82319 0.8257 0.82367 0.0
C620 C 0.85837 0.86671 0.86047 0.0
N621 N 0.88275 0.89802 0.86666 0.0
C622 C 0.86457 0.87126 0.87923 0.0
C623 C 0.86461 0.87805 0.84484 0.0
C624 C 0.87689 0.88716 0.88206 0.0
C625 C 0.87692 0.89382 0.84828 0.0
C626 C 0.78828 0.83533 0.83625 0.0
C627 C 0.7608 0.81446 0.83011 0.0
N628 N 0.7521 0.82909 0.82017 0.0
C629 C 0.77892 0.85024 0.82619 0.0
C630 C 0.77902 0.81737 0.83845 0.0
C631 C 0.76069 0.84677 0.8181 0.0
C632 C 0.81541 0.89096 0.81798 0.0
N633 N 0.81895 0.88356 0.83588 0.0
C634 C 0.81302 0.91435 0.85064 0.0
C635 C 0.81761 0.89466 0.85212 0.0
C636 C 0.8097 0.92255 0.83227 0.0
C637 C 0.81064 0.91049 0.81583 0.0
H638 H 0.81637 0.88164 0.80538 0.0
H639 H 0.82057 0.88832 0.86616 0.0
C640 C 0.84228 0.81663 0.89294 0.0
N641 N 0.82593 0.81783 0.88211 0.0
C642 C 0.84133 0.81048 0.91213 0.0
C643 C 0.80668 0.80653 0.90858 0.0
C644 C 0.80832 0.81284 0.88939 0.0
C645 C 0.82333 0.80549 0.92029 0.0
H646 H 0.85604 0.82086 0.88672 0.0
H647 H 0.79555 0.81404 0.8804 0.0
C648 C 0.84686 0.84325 0.79565 0.0
N649 N 0.86243 0.83452 0.75975 0.0
C650 C 0.85317 0.82437 0.79155 0.0
C651 C 0.84847 0.85766 0.78147 0.0
C652 C 0.86099 0.82026 0.77331 0.0
C653 C 0.85639 0.85296 0.76342 0.0
C654 C 0.84412 0.79357 0.84842 0.0
C655 C 0.86225 0.78666 0.85416 0.0
C656 C 0.82747 0.78315 0.85347 0.0
C657 C 0.86337 0.76979 0.86537 0.0
C658 C 0.82917 0.76637 0.86472 0.0
N659 N 0.84694 0.76011 0.87042 0.0
C660 C 0.89179 0.83051 0.84879 0.0
C661 C 0.89243 0.84297 0.81678 0.0
C662 C 0.91193 0.83043 0.84956 0.0
N663 N 0.88248 0.83636 0.83248 0.0
C664 C 0.91266 0.84327 0.81695 0.0
C665 C 0.92268 0.83689 0.8335 0.0
H666 H 0.88348 0.82599 0.8613 0.0
H667 H 0.88481 0.84837 0.80426 0.0
C668 C 0.80034 0.82443 0.79074 0.0
N669 N 0.80971 0.81288 0.80364 0.0
C670 C 0.78914 0.8162 0.77609 0.0
C671 C 0.7984 0.78432 0.78762 0.0
C672 C 0.80924 0.7932 0.80223 0.0
C673 C 0.78797 0.79591 0.77454 0.0
H674 H 0.80134 0.84007 0.79207 0.0
H675 H 0.81709 0.78442 0.81255 0.0
O676 O 0.84642 0.85109 0.85753 0.0
O677 O 0.80635 0.83834 0.84391 0.0
O678 O 0.83896 0.8477 0.81333 0.0
O679 O 0.84268 0.81026 0.83769 0.0
H680 H 0.85992 0.86257 0.89146 0.0
H681 H 0.86005 0.87472 0.8302 0.0
H682 H 0.8818 0.89085 0.8965 0.0
H683 H 0.88185 0.90272 0.83632 0.0
H684 H 0.75358 0.80057 0.83156 0.0
H685 H 0.78569 0.86428 0.82449 0.0
H686 H 0.78581 0.80575 0.84642 0.0
H687 H 0.75338 0.85814 0.81014 0.0
H688 H 0.81271 0.92316 0.86367 0.0
H689 H 0.80787 0.91611 0.80144 0.0
H690 H 0.85449 0.81033 0.92066 0.0
H691 H 0.79255 0.8027 0.91423 0.0
H692 H 0.85211 0.81299 0.80226 0.0
H693 H 0.84372 0.87236 0.78439 0.0
H694 H 0.86593 0.80572 0.76995 0.0
H695 H 0.85774 0.86399 0.75232 0.0
H696 H 0.87535 0.79407 0.84986 0.0
H697 H 0.81337 0.78808 0.84893 0.0
H698 H 0.87732 0.76437 0.86999 0.0
H699 H 0.81636 0.75833 0.86891 0.0
H700 H 0.91897 0.82524 0.86258 0.0
H701 H 0.92032 0.84883 0.80443 0.0
H702 H 0.78146 0.82556 0.76611 0.0
H703 H 0.79775 0.7686 0.78686 0.0
Li704 Li 0.6645 0.66847 0.66242 0.0
Li705 Li 0.65473 0.65516 0.63162 0.0
Li706 Li 0.63257 0.65428 0.65932 0.0
Li707 Li 0.66088 0.63373 0.65749 0.0
C708 C 0.63569 0.69425 0.65293 0.0
N709 N 0.62037 0.72835 0.66751 0.0
C710 C 0.6324 0.71003 0.64064 0.0
C711 C 0.63121 0.69582 0.67265 0.0
C712 C 0.62463 0.72714 0.64828 0.0
C713 C 0.62347 0.71318 0.67974 0.0
C714 C 0.69286 0.64983 0.63025 0.0
C715 C 0.70375 0.63416 0.60087 0.0
N716 N 0.71877 0.64693 0.59978 0.0
C717 C 0.7086 0.66258 0.62901 0.0
C718 C 0.69062 0.63531 0.61624 0.0
C719 C 0.72147 0.66096 0.61344 0.0
C720 C 0.67648 0.69266 0.69359 0.0
N721 N 0.67815 0.68913 0.67426 0.0
C722 C 0.7007 0.71521 0.67072 0.0
C723 C 0.68935 0.70047 0.66268 0.0
C724 C 0.69995 0.71856 0.69077 0.0
C725 C 0.68735 0.70739 0.70221 0.0
H726 H 0.66685 0.68397 0.70239 0.0
H727 H 0.68953 0.69797 0.6472 0.0
C728 C 0.64662 0.64578 0.59308 0.0
N729 N 0.65531 0.65921 0.60461 0.0
C730 C 0.64592 0.64851 0.57309 0.0
C731 C 0.66316 0.6789 0.57722 0.0
C732 C 0.66358 0.67552 0.59719 0.0
C733 C 0.65407 0.66535 0.56493 0.0
H734 H 0.64007 0.63301 0.59943 0.0
H735 H 0.67027 0.68599 0.60683 0.0
C736 C 0.66274 0.6452 0.69596 0.0
N737 N 0.68536 0.63678 0.72792 0.0
C738 C 0.68289 0.64414 0.69417 0.0
C739 C 0.65411 0.64192 0.714 0.0
C740 C 0.69406 0.63988 0.7105 0.0
C741 C 0.66579 0.63771 0.72999 0.0
C742 C 0.63208 0.61451 0.64025 0.0
C743 C 0.61696 0.60854 0.65237 0.0
C744 C 0.64132 0.6008 0.62846 0.0
C745 C 0.61158 0.58895 0.65275 0.0
C746 C 0.63556 0.58134 0.62929 0.0
N747 N 0.62094 0.57586 0.64133 0.0
C748 C 0.59452 0.66528 0.6531 0.0
C749 C 0.59971 0.65123 0.68407 0.0
C750 C 0.57489 0.66764 0.65709 0.0
N751 N 0.60639 0.65713 0.66649 0.0
C752 C 0.58008 0.65308 0.68859 0.0
C753 C 0.56744 0.66135 0.67496 0.0
H754 H 0.60033 0.66979 0.63924 0.0
H755 H 0.60956 0.64479 0.69439 0.0
C756 C 0.68822 0.60301 0.65805 0.0
N757 N 0.67065 0.609 0.66454 0.0
C758 C 0.69458 0.58416 0.66187 0.0
C759 C 0.66496 0.57836 0.67968 0.0
C760 C 0.65936 0.5974 0.67578 0.0
C761 C 0.68264 0.57135 0.67235 0.0
H762 H 0.6972 0.61272 0.64966 0.0
H763 H 0.64567 0.60276 0.68117 0.0
O764 O 0.64338 0.67746 0.64561 0.0
O765 O 0.67998 0.65128 0.64532 0.0
O766 O 0.65138 0.64916 0.68018 0.0
O767 O 0.63774 0.63363 0.6399 0.0
H768 H 0.63584 0.70904 0.62534 0.0
H769 H 0.6337 0.68379 0.68241 0.0
H770 H 0.62201 0.73947 0.63893 0.0
H771 H 0.61995 0.71459 0.69496 0.0
H772 H 0.70201 0.62311 0.58982 0.0
H773 H 0.71109 0.67343 0.64006 0.0
H774 H 0.67876 0.62513 0.61715 0.0
H775 H 0.73366 0.67079 0.61228 0.0
H776 H 0.70999 0.72383 0.66142 0.0
H777 H 0.68637 0.70962 0.71774 0.0
H778 H 0.63908 0.63751 0.56414 0.0
H779 H 0.66947 0.69215 0.57154 0.0
H780 H 0.6899 0.6466 0.68039 0.0
H781 H 0.63855 0.64263 0.71565 0.0
H782 H 0.70966 0.63904 0.70932 0.0
H783 H 0.6593 0.63516 0.74404 0.0
H784 H 0.60956 0.61882 0.66156 0.0
H785 H 0.65288 0.60504 0.6188 0.0
H786 H 0.6 0.58415 0.66218 0.0
H787 H 0.64271 0.57059 0.62036 0.0
H788 H 0.56556 0.67382 0.6461 0.0
H789 H 0.57484 0.64811 0.70255 0.0
H790 H 0.70854 0.57962 0.65637 0.0
H791 H 0.65513 0.56908 0.68767 0.0
Li792 Li 0.33145 0.63173 0.65283 0.0
Li793 Li 0.32429 0.66396 0.66523 0.0
Li794 Li 0.33346 0.65836 0.6305 0.0
Li795 Li 0.35782 0.65618 0.65617 0.0
C796 C 0.29488 0.63672 0.64469 0.0
N797 N 0.26462 0.61037 0.64501 0.0
C798 C 0.2822 0.63602 0.66047 0.0
C799 C 0.29206 0.62415 0.62898 0.0
C800 C 0.267 0.62257 0.66038 0.0
C801 C 0.27672 0.61089 0.62945 0.0
C802 C 0.34526 0.6471 0.69611 0.0
C803 C 0.35879 0.66671 0.72182 0.0
N804 N 0.3529 0.65325 0.73501 0.0
C805 C 0.33953 0.63336 0.7099 0.0
C806 C 0.35512 0.66382 0.70211 0.0
C807 C 0.34344 0.63677 0.7295 0.0
C808 C 0.33153 0.59228 0.64216 0.0
N809 N 0.32501 0.60512 0.65563 0.0
C810 C 0.3091 0.57971 0.67308 0.0
C811 C 0.31397 0.59929 0.6709 0.0
C812 C 0.31556 0.56616 0.6593 0.0
C813 C 0.32684 0.57264 0.64365 0.0
H814 H 0.3405 0.59725 0.63036 0.0
H815 H 0.30891 0.60988 0.68132 0.0
C816 C 0.30168 0.69591 0.6743 0.0
N817 N 0.30815 0.67874 0.68149 0.0
C818 C 0.28924 0.70747 0.68523 0.0
C819 C 0.29012 0.68326 0.71064 0.0
C820 C 0.30253 0.67217 0.69919 0.0
C821 C 0.28331 0.70117 0.70367 0.0
H822 H 0.30613 0.70053 0.65998 0.0
H823 H 0.30742 0.6582 0.70431 0.0
C824 C 0.36046 0.63408 0.61668 0.0
N825 N 0.37543 0.62777 0.58002 0.0
C826 C 0.37955 0.63938 0.61244 0.0
C827 C 0.34906 0.62537 0.60231 0.0
C828 C 0.38684 0.63611 0.59381 0.0
C829 C 0.35687 0.62238 0.58386 0.0
C830 C 0.35062 0.69703 0.65027 0.0
C831 C 0.35904 0.70601 0.63416 0.0
C832 C 0.35026 0.70683 0.66805 0.0
C833 C 0.36748 0.72438 0.63623 0.0
C834 C 0.35883 0.72519 0.66954 0.0
N835 N 0.36722 0.7335 0.65374 0.0
C836 C 0.30985 0.66532 0.59826 0.0
C837 C 0.34316 0.67149 0.59258 0.0
C838 C 0.30557 0.66869 0.5788 0.0
N839 N 0.32845 0.66626 0.60461 0.0
C840 C 0.33955 0.67489 0.57298 0.0
C841 C 0.3206 0.67306 0.56577 0.0
H842 H 0.29839 0.66145 0.60821 0.0
H843 H 0.35782 0.67219 0.59801 0.0
C844 C 0.39201 0.64739 0.67612 0.0
N845 N 0.38434 0.65956 0.66267 0.0
C846 C 0.41153 0.64874 0.68112 0.0
C847 C 0.41507 0.67483 0.65793 0.0
C848 C 0.39542 0.67308 0.65353 0.0
C849 C 0.4234 0.66251 0.67186 0.0
H850 H 0.38298 0.63646 0.68287 0.0
H851 H 0.3892 0.68209 0.64238 0.0
O852 O 0.3101 0.6495 0.64471 0.0
O853 O 0.34143 0.64399 0.67687 0.0
O854 O 0.35305 0.63729 0.63483 0.0
O855 O 0.3421 0.67911 0.6484 0.0
H856 H 0.28415 0.64563 0.67274 0.0
H857 H 0.30171 0.62453 0.61663 0.0
H858 H 0.25714 0.62179 0.67255 0.0
H859 H 0.27446 0.60099 0.61746 0.0
H860 H 0.36641 0.6796 0.72663 0.0
H861 H 0.33208 0.62022 0.70554 0.0
H862 H 0.36017 0.6743 0.69163 0.0
H863 H 0.33899 0.62631 0.74032 0.0
H864 H 0.30032 0.57523 0.68531 0.0
H865 H 0.33239 0.56257 0.63293 0.0
H866 H 0.28405 0.721 0.67917 0.0
H867 H 0.28597 0.67792 0.72482 0.0
H868 H 0.38865 0.64594 0.62339 0.0
H869 H 0.33424 0.62125 0.60528 0.0
H870 H 0.40157 0.64021 0.59032 0.0
H871 H 0.34814 0.61582 0.57256 0.0
H872 H 0.35923 0.69882 0.62023 0.0
H873 H 0.34325 0.7005 0.68055 0.0
H874 H 0.37421 0.73139 0.62391 0.0
H875 H 0.3587 0.73288 0.68324 0.0
H876 H 0.2907 0.6675 0.57394 0.0
H877 H 0.35163 0.67801 0.56345 0.0
H878 H 0.41724 0.63904 0.69204 0.0
H879 H 0.42373 0.6853 0.65003 0.0
Li880 Li 0.33618 0.35667 0.6624 0.0
Li881 Li 0.36197 0.33404 0.66627 0.0
Li882 Li 0.33774 0.32992 0.63958 0.0
Li883 Li 0.32915 0.32513 0.67374 0.0
C884 C 0.37087 0.36518 0.64248 0.0
N885 N 0.3994 0.39335 0.64063 0.0
C886 C 0.37539 0.37628 0.65888 0.0
C887 C 0.38082 0.36844 0.62514 0.0
C888 C 0.38987 0.39043 0.65765 0.0
C889 C 0.39521 0.38274 0.62449 0.0
C890 C 0.35019 0.3392 0.70529 0.0
C891 C 0.36646 0.31677 0.72663 0.0
N892 N 0.36082 0.32758 0.74215 0.0
C893 C 0.3446 0.35011 0.72146 0.0
C894 C 0.36123 0.32241 0.7079 0.0
C895 C 0.35009 0.34398 0.73997 0.0
C896 C 0.32287 0.39077 0.68105 0.0
N897 N 0.32946 0.38334 0.66403 0.0
C898 C 0.32598 0.41403 0.64842 0.0
C899 C 0.33103 0.39445 0.64785 0.0
C900 C 0.31917 0.42222 0.66582 0.0
C901 C 0.31758 0.4103 0.68228 0.0
H902 H 0.3215 0.38145 0.69358 0.0
H903 H 0.33619 0.38807 0.63447 0.0
C904 C 0.39906 0.31899 0.65997 0.0
N905 N 0.38883 0.33142 0.67133 0.0
C906 C 0.41914 0.31778 0.66184 0.0
C907 C 0.41765 0.34187 0.68738 0.0
C908 C 0.39763 0.34265 0.68498 0.0
C909 C 0.42872 0.32953 0.67551 0.0
H910 H 0.39163 0.31042 0.64909 0.0
H911 H 0.38914 0.35253 0.69372 0.0
C912 C 0.30145 0.35328 0.64904 0.0
N913 N 0.27553 0.38261 0.64044 0.0
C914 C 0.28933 0.36077 0.66349 0.0
C915 C 0.30041 0.36079 0.63023 0.0
C916 C 0.27633 0.37558 0.65885 0.0
C917 C 0.28719 0.37558 0.62617 0.0
C918 C 0.3434 0.29128 0.65995 0.0
C919 C 0.32587 0.28443 0.65243 0.0
C920 C 0.35555 0.27863 0.67007 0.0
C921 C 0.32065 0.26502 0.65538 0.0
C922 C 0.34982 0.25932 0.67269 0.0
N923 N 0.33263 0.25298 0.66538 0.0
C924 C 0.34917 0.32177 0.60149 0.0
C925 C 0.3158 0.31659 0.60788 0.0
C926 C 0.34645 0.31734 0.58193 0.0
N927 N 0.33388 0.32163 0.61386 0.0
C928 C 0.31239 0.31215 0.58843 0.0
C929 C 0.32778 0.31281 0.57513 0.0
H930 H 0.36338 0.32582 0.60675 0.0
H931 H 0.30393 0.31658 0.61812 0.0
C932 C 0.31969 0.2965 0.70244 0.0
N933 N 0.31264 0.3095 0.68941 0.0
C934 C 0.30708 0.28487 0.71315 0.0
C935 C 0.28018 0.29981 0.6965 0.0
C936 C 0.29331 0.31114 0.68612 0.0
C937 C 0.28703 0.2865 0.71025 0.0
H938 H 0.33508 0.29476 0.70427 0.0
H939 H 0.28805 0.32094 0.67514 0.0
O940 O 0.35683 0.35113 0.64332 0.0
O941 O 0.34515 0.34527 0.68707 0.0
O942 O 0.31465 0.33912 0.65342 0.0
O943 O 0.34853 0.31034 0.65763 0.0
H944 H 0.36785 0.37398 0.67243 0.0
H945 H 0.37747 0.36 0.6123 0.0
H946 H 0.39354 0.3991 0.67024 0.0
H947 H 0.40304 0.38541 0.61117 0.0
H948 H 0.37494 0.30375 0.72882 0.0
H949 H 0.33613 0.3632 0.71975 0.0
H950 H 0.36551 0.31363 0.69563 0.0
H951 H 0.34584 0.35229 0.7526 0.0
H952 H 0.32775 0.42272 0.63546 0.0
H953 H 0.31217 0.41595 0.69591 0.0
H954 H 0.42711 0.30828 0.65219 0.0
H955 H 0.42441 0.35102 0.69826 0.0
H956 H 0.29023 0.35548 0.67824 0.0
H957 H 0.30995 0.35554 0.61896 0.0
H958 H 0.26696 0.38157 0.66991 0.0
H959 H 0.2863 0.38157 0.6117 0.0
H960 H 0.31625 0.29408 0.6447 0.0
H961 H 0.36921 0.2837 0.6759 0.0
H962 H 0.30705 0.25956 0.64979 0.0
H963 H 0.35903 0.24938 0.68057 0.0
H964 H 0.35867 0.31823 0.57211 0.0
H965 H 0.29783 0.30855 0.58379 0.0
H966 H 0.31298 0.27474 0.7236 0.0
H967 H 0.26485 0.30116 0.69345 0.0
Li968 Li 0.63924 0.3424 0.65279 0.0
Li969 Li 0.67119 0.32984 0.66059 0.0
Li970 Li 0.66672 0.36395 0.653 0.0
Li971 Li 0.66414 0.33877 0.62807 0.0
C972 C 0.6433 0.34869 0.68996 0.0
N973 N 0.61608 0.34643 0.71924 0.0
C974 C 0.64217 0.33209 0.70157 0.0
C975 C 0.63067 0.3642 0.69332 0.0
C976 C 0.6283 0.33123 0.7163 0.0
C977 C 0.61697 0.36275 0.70816 0.0
C978 C 0.64722 0.30481 0.62974 0.0
C979 C 0.65712 0.27974 0.60737 0.0
N980 N 0.63887 0.27922 0.59995 0.0
C981 C 0.62855 0.304 0.62195 0.0
C982 C 0.66161 0.29253 0.62247 0.0
C983 C 0.62462 0.29096 0.60688 0.0
C984 C 0.60022 0.35407 0.65148 0.0
N985 N 0.61241 0.3401 0.65806 0.0
C986 C 0.58607 0.32271 0.67239 0.0
C987 C 0.60577 0.32451 0.66819 0.0
C988 C 0.57315 0.33709 0.666 0.0
C989 C 0.58045 0.35289 0.65536 0.0
H990 H 0.60581 0.36606 0.64311 0.0
H991 H 0.61582 0.3135 0.67304 0.0
C992 C 0.69599 0.32161 0.69106 0.0
N993 N 0.68498 0.31315 0.67708 0.0
C994 C 0.70724 0.31022 0.70331 0.0
C995 C 0.69477 0.28154 0.68716 0.0
C996 C 0.68396 0.29355 0.67502 0.0
C997 C 0.70676 0.28988 0.70144 0.0
H998 H 0.69625 0.33727 0.69245 0.0
H999 H 0.67477 0.28727 0.66397 0.0
C1000 C 0.64485 0.3795 0.62556 0.0
N1001 N 0.6425 0.4172 0.61198 0.0
C1002 C 0.65266 0.38432 0.60749 0.0
C1003 C 0.63578 0.39385 0.6367 0.0
C1004 C 0.65132 0.40346 0.60087 0.0
C1005 C 0.63478 0.41283 0.62959 0.0
C1006 C 0.70545 0.3421 0.64867 0.0
C1007 C 0.7161 0.35539 0.65975 0.0
C1008 C 0.71354 0.3241 0.64393 0.0
C1009 C 0.73464 0.35033 0.66608 0.0
C1010 C 0.7321 0.31958 0.65058 0.0
N1011 N 0.74217 0.33268 0.66143 0.0
C1012 C 0.67327 0.3959 0.67746 0.0
C1013 C 0.68339 0.40067 0.64497 0.0
C1014 C 0.67836 0.41493 0.68223 0.0
N1015 N 0.67542 0.38936 0.65899 0.0
C1016 C 0.68831 0.41994 0.64897 0.0
C1017 C 0.6855 0.42744 0.66777 0.0
H1018 H 0.66741 0.38638 0.68846 0.0
H1019 H 0.6854 0.3949 0.63052 0.0
C1020 C 0.65254 0.33335 0.58964 0.0
N1021 N 0.6682 0.33302 0.60154 0.0
C1022 C 0.65465 0.32944 0.56992 0.0
C1023 C 0.68899 0.32491 0.57509 0.0
C1024 C 0.6862 0.32893 0.59474 0.0
C1025 C 0.67309 0.3252 0.56239 0.0
H1026 H 0.63844 0.33688 0.59548 0.0
H1027 H 0.69841 0.32892 0.60453 0.0
O1028 O 0.65649 0.34966 0.67519 0.0
O1029 O 0.65147 0.31776 0.6442 0.0
O1030 O 0.64613 0.36086 0.63236 0.0
O1031 O 0.68715 0.34666 0.6426 0.0
H1032 H 0.65175 0.31991 0.69911 0.0
H1033 H 0.63131 0.37712 0.68441 0.0
H1034 H 0.62719 0.31843 0.72534 0.0
H1035 H 0.60702 0.37457 0.71083 0.0
H1036 H 0.66815 0.27025 0.60151 0.0
H1037 H 0.61727 0.31347 0.62731 0.0
H1038 H 0.67617 0.29308 0.62825 0.0
H1039 H 0.61027 0.29024 0.60064 0.0
H1040 H 0.58104 0.31034 0.6807 0.0
H1041 H 0.57094 0.36407 0.64978 0.0
H1042 H 0.71643 0.31733 0.71388 0.0
H1043 H 0.69361 0.26594 0.68546 0.0
H1044 H 0.65986 0.37347 0.59872 0.0
H1045 H 0.62986 0.39045 0.65082 0.0
H1046 H 0.65736 0.40741 0.58694 0.0
H1047 H 0.62793 0.4241 0.63812 0.0
H1048 H 0.71008 0.36938 0.66356 0.0
H1049 H 0.70544 0.31357 0.63552 0.0
H1050 H 0.74301 0.36043 0.67474 0.0
H1051 H 0.73847 0.30563 0.64719 0.0
H1052 H 0.67645 0.41983 0.69703 0.0
H1053 H 0.69358 0.42897 0.63726 0.0
H1054 H 0.64204 0.33021 0.56062 0.0
H1055 H 0.70342 0.32159 0.56992 0.0
Li1056 Li 0.66484 0.36498 0.32754 0.0
Li1057 Li 0.66158 0.33943 0.35345 0.0
Li1058 Li 0.66366 0.33069 0.31994 0.0
Li1059 Li 0.63466 0.34452 0.33196 0.0
C1060 C 0.70015 0.33673 0.32972 0.0
N1061 N 0.73318 0.31855 0.31635 0.0
C1062 C 0.70698 0.32001 0.33894 0.0
C1063 C 0.7102 0.34434 0.31385 0.0
C1064 C 0.72368 0.31099 0.3319 0.0
C1065 C 0.72686 0.33491 0.30729 0.0
C1066 C 0.6463 0.37185 0.36805 0.0
C1067 C 0.63559 0.37179 0.40137 0.0
N1068 N 0.64698 0.38754 0.40498 0.0
C1069 C 0.65781 0.38811 0.37207 0.0
C1070 C 0.63499 0.36369 0.38278 0.0
C1071 C 0.65798 0.39581 0.39084 0.0
C1072 C 0.66055 0.4022 0.31337 0.0
N1073 N 0.67371 0.39007 0.3215 0.0
C1074 C 0.69726 0.4155 0.32296 0.0
C1075 C 0.69186 0.39618 0.32617 0.0
C1076 C 0.68383 0.42848 0.31484 0.0
C1077 C 0.66535 0.42154 0.30981 0.0
H1078 H 0.64616 0.39689 0.31007 0.0
H1079 H 0.70192 0.38618 0.33283 0.0
C1080 C 0.66237 0.31565 0.38642 0.0
N1081 N 0.6689 0.33274 0.37904 0.0
C1082 C 0.6656 0.31108 0.40583 0.0
C1083 C 0.68309 0.34137 0.40942 0.0
C1084 C 0.67972 0.34522 0.38985 0.0
C1085 C 0.67557 0.3243 0.41778 0.0
H1086 H 0.65431 0.30572 0.37733 0.0
H1087 H 0.68508 0.35853 0.38345 0.0
C1088 C 0.64904 0.34902 0.28823 0.0
N1089 N 0.6502 0.34322 0.24858 0.0
C1090 C 0.63933 0.33322 0.27992 0.0
C1091 C 0.65929 0.36191 0.27637 0.0
C1092 C 0.64012 0.33052 0.25985 0.0
C1093 C 0.6597 0.35873 0.25636 0.0
C1094 C 0.63031 0.30806 0.34042 0.0
C1095 C 0.62582 0.29562 0.325 0.0
C1096 C 0.61795 0.30897 0.35647 0.0
C1097 C 0.60896 0.28438 0.32584 0.0
C1098 C 0.60121 0.29753 0.35674 0.0
N1099 N 0.5971 0.28558 0.34155 0.0
C1100 C 0.67626 0.29326 0.31202 0.0
C1101 C 0.68333 0.31515 0.28643 0.0
C1102 C 0.68609 0.27836 0.30252 0.0
N1103 N 0.67505 0.31121 0.3039 0.0
C1104 C 0.69298 0.30058 0.27625 0.0
C1105 C 0.6946 0.28202 0.28445 0.0
H1106 H 0.67013 0.29069 0.32622 0.0
H1107 H 0.68316 0.32973 0.28072 0.0
C1108 C 0.59832 0.35854 0.34317 0.0
N1109 N 0.60717 0.34616 0.33063 0.0
C1110 C 0.57821 0.3601 0.34343 0.0
C1111 C 0.57662 0.3365 0.31746 0.0
C1112 C 0.5968 0.33545 0.31769 0.0
C1113 C 0.56708 0.34885 0.33058 0.0
H1114 H 0.60687 0.36727 0.35299 0.0
H1115 H 0.60411 0.32587 0.30772 0.0
O1116 O 0.68351 0.3454 0.33601 0.0
O1117 O 0.64614 0.36395 0.34982 0.0
O1118 O 0.64834 0.35204 0.30782 0.0
O1119 O 0.64665 0.31935 0.33979 0.0
H1120 H 0.69929 0.31394 0.35121 0.0
H1121 H 0.705 0.35721 0.30651 0.0
H1122 H 0.72904 0.29794 0.33876 0.0
H1123 H 0.73472 0.34053 0.29492 0.0
H1124 H 0.62703 0.36552 0.41293 0.0
H1125 H 0.66661 0.39466 0.36087 0.0
H1126 H 0.626 0.35112 0.37995 0.0
H1127 H 0.66689 0.40833 0.39417 0.0
H1128 H 0.71166 0.42028 0.32699 0.0
H1129 H 0.65443 0.43112 0.30389 0.0
H1130 H 0.66 0.29751 0.41149 0.0
H1131 H 0.69077 0.35206 0.41805 0.0
H1132 H 0.63159 0.32295 0.28888 0.0
H1133 H 0.66694 0.37417 0.28255 0.0
H1134 H 0.63279 0.31828 0.25324 0.0
H1135 H 0.66761 0.36856 0.24701 0.0
H1136 H 0.6351 0.2948 0.31239 0.0
H1137 H 0.62116 0.31852 0.36851 0.0
H1138 H 0.60526 0.27477 0.31397 0.0
H1139 H 0.59147 0.29819 0.36901 0.0
H1140 H 0.68723 0.26422 0.30931 0.0
H1141 H 0.69983 0.30399 0.26253 0.0
H1142 H 0.57148 0.37011 0.35351 0.0
H1143 H 0.56858 0.32747 0.3074 0.0
Li1144 Li 0.65173 0.66073 0.3534 0.0
Li1145 Li 0.6592 0.63536 0.3295 0.0
Li1146 Li 0.66187 0.66924 0.3222 0.0
Li1147 Li 0.62985 0.65499 0.32681 0.0
C1148 C 0.6954 0.65979 0.33759 0.0
N1149 N 0.73249 0.67154 0.32804 0.0
C1150 C 0.70715 0.64791 0.32611 0.0
C1151 C 0.70262 0.67752 0.34445 0.0
C1152 C 0.72584 0.65413 0.3214 0.0
C1153 C 0.72137 0.68325 0.33938 0.0
C1154 C 0.62633 0.61996 0.34635 0.0
C1155 C 0.61164 0.59452 0.32721 0.0
N1156 N 0.60482 0.58614 0.34373 0.0
C1157 C 0.61918 0.61111 0.36312 0.0
C1158 C 0.62253 0.61163 0.32823 0.0
C1159 C 0.60833 0.59401 0.3615 0.0
C1160 C 0.6348 0.66782 0.38948 0.0
N1161 N 0.65208 0.66621 0.38021 0.0
C1162 C 0.66925 0.67048 0.40994 0.0
C1163 C 0.66914 0.66758 0.38991 0.0
C1164 C 0.6516 0.67201 0.42002 0.0
C1165 C 0.63422 0.67096 0.40943 0.0
H1166 H 0.62147 0.66645 0.38135 0.0
H1167 H 0.68265 0.66594 0.38215 0.0
C1168 C 0.67404 0.60417 0.30763 0.0
N1169 N 0.66935 0.61024 0.32578 0.0
C1170 C 0.68033 0.58514 0.30457 0.0
C1171 C 0.6772 0.57924 0.33902 0.0
C1172 C 0.67105 0.59839 0.34141 0.0
C1173 C 0.68171 0.57231 0.32036 0.0
H1174 H 0.67265 0.61404 0.29553 0.0
H1175 H 0.66713 0.60369 0.35566 0.0
C1176 C 0.63425 0.69446 0.34904 0.0
N1177 N 0.62347 0.72238 0.3758 0.0
C1178 C 0.61466 0.698 0.35271 0.0
C1179 C 0.64835 0.70538 0.35875 0.0
C1180 C 0.60951 0.71212 0.36634 0.0
C1181 C 0.64261 0.71934 0.3723 0.0
C1182 C 0.64326 0.65549 0.28855 0.0
C1183 C 0.63773 0.67495 0.28661 0.0
C1184 C 0.64283 0.64324 0.27236 0.0
C1185 C 0.63187 0.6818 0.26848 0.0
C1186 C 0.63683 0.65064 0.25449 0.0
N1187 N 0.63153 0.6696 0.25293 0.0
C1188 C 0.68845 0.67878 0.29353 0.0
C1189 C 0.67641 0.7062 0.31058 0.0
C1190 C 0.70087 0.69053 0.28279 0.0
N1191 N 0.67685 0.68672 0.30732 0.0
C1192 C 0.68848 0.71856 0.30002 0.0
C1193 C 0.7011 0.71065 0.28614 0.0
H1194 H 0.68825 0.66324 0.29113 0.0
H1195 H 0.66685 0.7121 0.3215 0.0
C1196 C 0.59166 0.65178 0.3374 0.0
N1197 N 0.60281 0.65375 0.32126 0.0
C1198 C 0.57165 0.64976 0.33582 0.0
C1199 C 0.57474 0.65233 0.30099 0.0
C1200 C 0.59479 0.65392 0.30322 0.0
C1201 C 0.56301 0.65007 0.31744 0.0
H1202 H 0.59839 0.6517 0.35156 0.0
H1203 H 0.60379 0.65506 0.29051 0.0
O1204 O 0.6769 0.65415 0.34199 0.0
O1205 O 0.63691 0.63675 0.3478 0.0
O1206 O 0.63957 0.68054 0.33588 0.0
O1207 O 0.64947 0.64843 0.30602 0.0
H1208 H 0.70184 0.63413 0.32071 0.0
H1209 H 0.69378 0.68685 0.35343 0.0
H1210 H 0.73504 0.64515 0.3124 0.0
H1211 H 0.72707 0.69701 0.34443 0.0
H1212 H 0.60859 0.58791 0.31329 0.0
H1213 H 0.62197 0.61742 0.37725 0.0
H1214 H 0.62789 0.61827 0.31507 0.0
H1215 H 0.6027 0.58701 0.37436 0.0
H1216 H 0.68298 0.67083 0.4175 0.0
H1217 H 0.62028 0.67235 0.4165 0.0
H1218 H 0.68389 0.58049 0.28999 0.0
H1219 H 0.67773 0.5698 0.35156 0.0
H1220 H 0.60354 0.68997 0.34509 0.0
H1221 H 0.66356 0.70289 0.35606 0.0
H1222 H 0.5944 0.71492 0.36939 0.0
H1223 H 0.65338 0.72774 0.38006 0.0
H1224 H 0.63784 0.68468 0.29892 0.0
H1225 H 0.64707 0.62816 0.2736 0.0
H1226 H 0.62754 0.69681 0.26677 0.0
H1227 H 0.6364 0.64131 0.24186 0.0
H1228 H 0.71018 0.68396 0.27198 0.0
H1229 H 0.6883 0.73402 0.30297 0.0
H1230 H 0.563 0.64821 0.34884 0.0
H1231 H 0.5685 0.65248 0.28658 0.0
Li1232 Li 0.32683 0.65016 0.35647 0.0
Li1233 Li 0.32302 0.62567 0.32879 0.0
Li1234 Li 0.35213 0.6456 0.3325 0.0
Li1235 Li 0.32281 0.66012 0.32331 0.0
C1236 C 0.35854 0.61912 0.35863 0.0
N1237 N 0.39365 0.60622 0.37276 0.0
C1238 C 0.36707 0.60242 0.3509 0.0
C1239 C 0.36779 0.62922 0.37361 0.0
C1240 C 0.38485 0.59614 0.35822 0.0
C1241 C 0.38555 0.62247 0.38054 0.0
C1242 C 0.28706 0.6542 0.33601 0.0
C1243 C 0.25969 0.66097 0.31539 0.0
N1244 N 0.25316 0.67412 0.32859 0.0
C1245 C 0.27996 0.66762 0.34948 0.0
C1246 C 0.27675 0.65067 0.31893 0.0
C1247 C 0.26284 0.6776 0.34543 0.0
C1248 C 0.32051 0.67422 0.38861 0.0
N1249 N 0.32153 0.65542 0.38264 0.0
C1250 C 0.31657 0.64403 0.41491 0.0
C1251 C 0.31949 0.64039 0.39522 0.0
C1252 C 0.31576 0.66333 0.42163 0.0
C1253 C 0.31759 0.67854 0.40817 0.0
H1254 H 0.32209 0.68583 0.37817 0.0
H1255 H 0.32051 0.6256 0.38997 0.0
C1256 C 0.32554 0.58842 0.31287 0.0
N1257 N 0.31352 0.60083 0.32232 0.0
C1258 C 0.31972 0.56935 0.30921 0.0
C1259 C 0.28895 0.57646 0.32444 0.0
C1260 C 0.29542 0.59541 0.32786 0.0
C1261 C 0.30131 0.56303 0.31532 0.0
H1262 H 0.33985 0.59325 0.30863 0.0
H1263 H 0.28619 0.60568 0.33531 0.0
C1264 C 0.35154 0.68591 0.33565 0.0
N1265 N 0.37177 0.71759 0.32156 0.0
C1266 C 0.35737 0.68645 0.31625 0.0
C1267 C 0.35599 0.70151 0.34789 0.0
C1268 C 0.36758 0.70258 0.30939 0.0
C1269 C 0.36624 0.71739 0.34049 0.0
C1270 C 0.33462 0.63802 0.28944 0.0
C1271 C 0.34889 0.64425 0.27646 0.0
C1272 C 0.31766 0.62946 0.28232 0.0
C1273 C 0.34579 0.64215 0.25654 0.0
C1274 C 0.31511 0.6276 0.2623 0.0
N1275 N 0.3291 0.63396 0.24993 0.0
C1276 C 0.38682 0.63223 0.31605 0.0
C1277 C 0.39081 0.65735 0.33935 0.0
C1278 C 0.40678 0.63147 0.31297 0.0
N1279 N 0.37931 0.64508 0.329 0.0
C1280 C 0.41078 0.65735 0.33646 0.0
C1281 C 0.41893 0.6443 0.32312 0.0
H1282 H 0.37727 0.62256 0.30816 0.0
H1283 H 0.38448 0.66711 0.34987 0.0
C1284 C 0.30615 0.69629 0.32082 0.0
N1285 N 0.31158 0.68112 0.30938 0.0
C1286 C 0.29739 0.71258 0.31275 0.0
C1287 C 0.30074 0.69779 0.28108 0.0
C1288 C 0.3092 0.68163 0.28982 0.0
C1289 C 0.29456 0.71339 0.29265 0.0
H1290 H 0.30849 0.69561 0.33631 0.0
H1291 H 0.31368 0.66959 0.28093 0.0
O1292 O 0.34148 0.62589 0.35123 0.0
O1293 O 0.30406 0.64464 0.33954 0.0
O1294 O 0.34147 0.6703 0.34274 0.0
O1295 O 0.33757 0.6398 0.30898 0.0
H1296 H 0.36013 0.5945 0.33924 0.0
H1297 H 0.36146 0.64229 0.37962 0.0
H1298 H 0.39168 0.5833 0.35231 0.0
H1299 H 0.39294 0.6302 0.39205 0.0
H1300 H 0.25166 0.6585 0.30214 0.0
H1301 H 0.28769 0.67045 0.36283 0.0
H1302 H 0.2819 0.64021 0.30844 0.0
H1303 H 0.25727 0.68815 0.35565 0.0
H1304 H 0.31554 0.63187 0.42481 0.0
H1305 H 0.31682 0.6936 0.4127 0.0
H1306 H 0.32985 0.55947 0.30241 0.0
H1307 H 0.27458 0.57229 0.32917 0.0
H1308 H 0.35401 0.67457 0.30657 0.0
H1309 H 0.35162 0.70133 0.36296 0.0
H1310 H 0.37216 0.70317 0.2944 0.0
H1311 H 0.3698 0.72955 0.34981 0.0
H1312 H 0.36225 0.65062 0.28171 0.0
H1313 H 0.30658 0.62432 0.2921 0.0
H1314 H 0.35668 0.64699 0.24634 0.0
H1315 H 0.30202 0.62109 0.2566 0.0
H1316 H 0.41264 0.62121 0.30259 0.0
H1317 H 0.4198 0.66724 0.34474 0.0
H1318 H 0.29291 0.72442 0.32209 0.0
H1319 H 0.2986 0.69787 0.26552 0.0
Li1320 Li 0.32408 0.35939 0.33944 0.0
Li1321 Li 0.33063 0.33465 0.36624 0.0
Li1322 Li 0.35511 0.34318 0.34208 0.0
Li1323 Li 0.32756 0.3253 0.33277 0.0
C1324 C 0.35758 0.37323 0.36504 0.0
N1325 N 0.38879 0.39763 0.37122 0.0
C1326 C 0.36965 0.3704 0.38104 0.0
C1327 C 0.3613 0.38851 0.35223 0.0
C1328 C 0.38539 0.38288 0.3839 0.0
C1329 C 0.37717 0.40069 0.3556 0.0
C1330 C 0.29119 0.32872 0.34274 0.0
C1331 C 0.26975 0.30101 0.34258 0.0
N1332 N 0.25929 0.30935 0.32811 0.0
C1333 C 0.28015 0.33711 0.32799 0.0
C1334 C 0.28589 0.31061 0.35023 0.0
C1335 C 0.26409 0.32706 0.32075 0.0
C1336 C 0.30785 0.38773 0.31486 0.0
N1337 N 0.31188 0.38307 0.33356 0.0
C1338 C 0.30192 0.41441 0.34443 0.0
C1339 C 0.30877 0.39578 0.34831 0.0
C1340 C 0.29825 0.41999 0.32516 0.0
C1341 C 0.30092 0.40623 0.3103 0.0
H1342 H 0.31052 0.37725 0.30346 0.0
H1343 H 0.31234 0.39165 0.36301 0.0
C1344 C 0.34279 0.32382 0.40295 0.0
N1345 N 0.3268 0.32832 0.39245 0.0
C1346 C 0.34107 0.31892 0.42246 0.0
C1347 C 0.30638 0.3231 0.41987 0.0
C1348 C 0.30879 0.32798 0.40037 0.0
C1349 C 0.32268 0.31856 0.43121 0.0
H1350 H 0.35689 0.32408 0.39611 0.0
H1351 H 0.29635 0.3315 0.39153 0.0
C1352 C 0.34937 0.3416 0.3024 0.0
N1353 N 0.36969 0.32981 0.26993 0.0
C1354 C 0.35919 0.32386 0.30239 0.0
C1355 C 0.34987 0.35334 0.28589 0.0
C1356 C 0.36938 0.31815 0.28584 0.0
C1357 C 0.36024 0.34713 0.26962 0.0
C1358 C 0.35124 0.2985 0.35576 0.0
C1359 C 0.36781 0.28944 0.34843 0.0
C1360 C 0.33874 0.28809 0.3679 0.0
C1361 C 0.37145 0.27004 0.35314 0.0
C1362 C 0.34289 0.26873 0.37228 0.0
N1363 N 0.35902 0.26017 0.36486 0.0
C1364 C 0.39322 0.33652 0.35261 0.0
C1365 C 0.39018 0.35782 0.32576 0.0
C1366 C 0.41332 0.338 0.35192 0.0
N1367 N 0.38217 0.34627 0.33959 0.0
C1368 C 0.41028 0.35968 0.3245 0.0
C1369 C 0.42209 0.34966 0.3377 0.0
H1370 H 0.38636 0.32762 0.36356 0.0
H1371 H 0.38098 0.36568 0.31581 0.0
C1372 C 0.30973 0.31265 0.29889 0.0
N1373 N 0.31781 0.30588 0.31553 0.0
C1374 C 0.30116 0.29985 0.28576 0.0
C1375 C 0.30978 0.27323 0.30687 0.0
C1376 C 0.3181 0.28657 0.31963 0.0
C1377 C 0.30097 0.27985 0.28979 0.0
H1378 H 0.30951 0.32811 0.29607 0.0
H1379 H 0.32439 0.2814 0.33289 0.0
O1380 O 0.3425 0.36078 0.3616 0.0
O1381 O 0.30729 0.33807 0.34959 0.0
O1382 O 0.33934 0.3476 0.31845 0.0
O1383 O 0.34773 0.31763 0.35162 0.0
H1384 H 0.36701 0.35859 0.39104 0.0
H1385 H 0.35222 0.39076 0.33964 0.0
H1386 H 0.39492 0.38081 0.39616 0.0
H1387 H 0.3803 0.41251 0.34575 0.0
H1388 H 0.26556 0.2869 0.34811 0.0
H1389 H 0.28409 0.35111 0.32203 0.0
H1390 H 0.29425 0.30395 0.36168 0.0
H1391 H 0.2555 0.33329 0.30922 0.0
H1392 H 0.30043 0.42461 0.35631 0.0
H1393 H 0.29809 0.40984 0.29528 0.0
H1394 H 0.35406 0.31584 0.43069 0.0
H1395 H 0.29193 0.3228 0.42598 0.0
H1396 H 0.3589 0.31456 0.31497 0.0
H1397 H 0.34238 0.36715 0.28568 0.0
H1398 H 0.37703 0.30445 0.28564 0.0
H1399 H 0.36077 0.35609 0.25674 0.0
H1400 H 0.37782 0.29731 0.33924 0.0
H1401 H 0.32582 0.29477 0.37367 0.0
H1402 H 0.38419 0.26285 0.34752 0.0
H1403 H 0.33327 0.26049 0.38155 0.0
H1404 H 0.42189 0.32987 0.36225 0.0
H1405 H 0.41649 0.36903 0.31349 0.0
H1406 H 0.29423 0.30565 0.27294 0.0
H1407 H 0.31012 0.25791 0.31044 0.0
H1408 H 0.30023 0.27979 0.25001 0.0
H1409 H 0.22411 0.19223 0.24338 0.0
H1410 H 0.27828 0.24878 0.29983 0.0
H1411 H 0.2369 0.23099 0.19589 0.0
H1412 H 0.24806 0.20937 0.26323 0.0
H1413 H 0.28094 0.25871 0.22897 0.0
C1414 C 0.2914 0.26852 0.25652 0.0
C1415 C 0.29074 0.26615 0.27672 0.0
C1416 C 0.24569 0.21405 0.24843 0.0
C1417 C 0.26882 0.24189 0.25275 0.0
C1418 C 0.23213 0.20422 0.23709 0.0
C1419 C 0.22843 0.21036 0.21807 0.0
C1420 C 0.25567 0.23005 0.24063 0.0
C1421 C 0.2391 0.22604 0.21062 0.0
C1422 C 0.28047 0.25645 0.24451 0.0
C1423 C 0.27937 0.25104 0.28434 0.0
N1424 N 0.2522 0.23541 0.22196 0.0
N1425 N 0.26876 0.23956 0.27234 0.0
H1426 H 0.72409 0.26092 0.29983 0.0
H1427 H 0.74503 0.20034 0.20335 0.0
H1428 H 0.69158 0.26921 0.24709 0.0
H1429 H 0.78946 0.21449 0.24502 0.0
H1430 H 0.72174 0.21935 0.22245 0.0
H1431 H 0.7448 0.23749 0.28287 0.0
C1432 C 0.72119 0.25757 0.28474 0.0
C1433 C 0.70622 0.26694 0.27474 0.0
C1434 C 0.73656 0.21813 0.22745 0.0
C1435 C 0.72964 0.2403 0.25543 0.0
C1436 C 0.74975 0.20725 0.21667 0.0
C1437 C 0.7691 0.20602 0.22267 0.0
C1438 C 0.74276 0.2275 0.24445 0.0
C1439 C 0.77465 0.21528 0.23991 0.0
C1440 C 0.73303 0.24434 0.27509 0.0
C1441 C 0.70311 0.26233 0.25518 0.0
N1442 N 0.76151 0.22566 0.25025 0.0
N1443 N 0.71474 0.24926 0.24612 0.0
H1444 H 0.75123 0.79465 0.20789 0.0
H1445 H 0.73947 0.70447 0.27946 0.0
H1446 H 0.79931 0.76056 0.22884 0.0
H1447 H 0.69348 0.74528 0.26823 0.0
H1448 H 0.76147 0.72456 0.26029 0.0
H1449 H 0.72966 0.77669 0.22952 0.0
C1450 C 0.75729 0.78352 0.21716 0.0
C1451 C 0.7771 0.77903 0.21646 0.0
C1452 C 0.7466 0.7292 0.26208 0.0
C1453 C 0.75245 0.75825 0.24101 0.0
C1454 C 0.73403 0.71768 0.27291 0.0
C1455 C 0.71464 0.7232 0.27527 0.0
C1456 C 0.73968 0.74628 0.25341 0.0
C1457 C 0.70837 0.74059 0.26678 0.0
C1458 C 0.74495 0.77322 0.22944 0.0
C1459 C 0.78408 0.76427 0.22861 0.0
N1460 N 0.72084 0.75147 0.25608 0.0
N1461 N 0.77175 0.75435 0.24031 0.0
H1462 H 0.26062 0.72971 0.30432 0.0
H1463 H 0.25562 0.80479 0.21616 0.0
H1464 H 0.30546 0.73462 0.26101 0.0
H1465 H 0.20521 0.78096 0.24446 0.0
H1466 H 0.27632 0.78581 0.23807 0.0
H1467 H 0.24245 0.75536 0.28784 0.0
C1468 C 0.26675 0.73643 0.2915 0.0
C1469 C 0.28443 0.73001 0.28385 0.0
C1470 C 0.26073 0.78497 0.23961 0.0
C1471 C 0.26385 0.7592 0.26505 0.0
C1472 C 0.24899 0.79582 0.22724 0.0
C1473 C 0.22881 0.79418 0.22854 0.0
C1474 C 0.25212 0.77272 0.25343 0.0
C1475 C 0.22077 0.78237 0.24299 0.0
C1476 C 0.25637 0.75095 0.28209 0.0
C1477 C 0.29172 0.73904 0.26715 0.0
N1478 N 0.23247 0.772 0.25487 0.0
N1479 N 0.28135 0.75318 0.25823 0.0
H1480 H 0.25271 0.68889 0.72582 0.0
H1481 H 0.22421 0.79611 0.76036 0.0
H1482 H 0.2835 0.74069 0.70835 0.0
H1483 H 0.19739 0.74404 0.78278 0.0
H1484 H 0.24455 0.7761 0.73941 0.0
H1485 H 0.23108 0.70893 0.74543 0.0
C1486 C 0.25498 0.70447 0.72619 0.0
C1487 C 0.26997 0.71313 0.71548 0.0
C1488 C 0.23418 0.76904 0.74887 0.0
C1489 C 0.24513 0.73615 0.73767 0.0
C1490 C 0.22247 0.78046 0.76072 0.0
C1491 C 0.20911 0.7717 0.7733 0.0
C1492 C 0.23248 0.74871 0.74958 0.0
C1493 C 0.20767 0.75135 0.77343 0.0
C1494 C 0.24257 0.71591 0.73729 0.0
C1495 C 0.27201 0.73342 0.7162 0.0
N1496 N 0.21924 0.74053 0.76174 0.0
N1497 N 0.25974 0.74424 0.72713 0.0
H1498 H 0.1882 0.24172 0.77322 0.0
H1499 H 0.29056 0.24792 0.71916 0.0
H1500 H 0.22909 0.19439 0.7706 0.0
H1501 H 0.25226 0.29695 0.72619 0.0
H1502 H 0.26766 0.22778 0.73714 0.0
H1503 H 0.21092 0.26196 0.75498 0.0
C1504 C 0.20196 0.2356 0.76882 0.0
C1505 C 0.20675 0.21634 0.77337 0.0
C1506 C 0.26426 0.24295 0.73476 0.0
C1507 C 0.23272 0.23932 0.75245 0.0
C1508 C 0.27739 0.25448 0.72461 0.0
C1509 C 0.27333 0.27415 0.72122 0.0
C1510 C 0.24693 0.25114 0.74157 0.0
C1511 C 0.25586 0.2818 0.72829 0.0
C1512 C 0.21489 0.24713 0.75836 0.0
C1513 C 0.22467 0.20907 0.76713 0.0
N1514 N 0.2433 0.27027 0.73814 0.0
N1515 N 0.23701 0.22057 0.75701 0.0
H1516 H 0.78068 0.24693 0.79282 0.0
H1517 H 0.72563 0.25602 0.69213 0.0
H1518 H 0.76933 0.1974 0.75583 0.0
H1519 H 0.71558 0.29552 0.73989 0.0
H1520 H 0.74562 0.23606 0.7134 0.0
H1521 H 0.76076 0.26692 0.77148 0.0
C1522 C 0.77397 0.24021 0.78029 0.0
C1523 C 0.77669 0.2204 0.77618 0.0
C1524 C 0.73898 0.2491 0.71917 0.0
C1525 C 0.75426 0.24332 0.75154 0.0
C1526 C 0.72746 0.26045 0.70709 0.0
C1527 C 0.71883 0.2775 0.7142 0.0
C1528 C 0.74211 0.25496 0.7384 0.0
C1529 C 0.72217 0.2827 0.73364 0.0
C1530 C 0.76268 0.25166 0.76809 0.0
C1531 C 0.76796 0.21265 0.75945 0.0
N1532 N 0.73362 0.27151 0.74505 0.0
N1533 N 0.75718 0.22415 0.74771 0.0
H1534 H 0.7505 0.805 0.76633 0.0
H1535 H 0.73882 0.72262 0.68537 0.0
H1536 H 0.79671 0.76634 0.74955 0.0
H1537 H 0.69069 0.74658 0.7173 0.0
H1538 H 0.76085 0.7438 0.70359 0.0
H1539 H 0.72904 0.78862 0.74321 0.0
C1540 C 0.75616 0.7932 0.75759 0.0
C1541 C 0.77531 0.78688 0.75984 0.0
C1542 C 0.74545 0.74453 0.70645 0.0
C1543 C 0.75097 0.76819 0.73353 0.0
C1544 C 0.73289 0.73259 0.696 0.0
C1545 C 0.71298 0.73284 0.69999 0.0
C1546 C 0.73797 0.75688 0.72082 0.0
C1547 C 0.706 0.74585 0.71399 0.0
C1548 C 0.74391 0.78383 0.74451 0.0
C1549 C 0.78194 0.77145 0.74835 0.0
N1550 N 0.71851 0.75734 0.72398 0.0
N1551 N 0.76975 0.76258 0.73566 0.0
H1552 H 0.19295 0.15503 0.94794 0.0
H1553 H 0.145 0.20272 0.04231 0.0
H1554 H 0.14205 0.19128 0.94645 0.0
H1555 H 0.18859 0.15782 0.04414 0.0
H1556 H 0.14695 0.20253 0.00692 0.0
H1557 H 0.19504 0.16013 0.98299 0.0
C1558 C 0.18237 0.16427 0.95496 0.0
C1559 C 0.1672 0.1726 0.94435 0.0
C1560 C 0.15618 0.19283 0.0151 0.0
C1561 C 0.16938 0.17834 0.98438 0.0
C1562 C 0.15501 0.19285 0.03529 0.0
C1563 C 0.16654 0.18016 0.04624 0.0
C1564 C 0.16899 0.18004 0.00577 0.0
C1565 C 0.17955 0.168 0.03635 0.0
C1566 C 0.18349 0.16707 0.97497 0.0
C1567 C 0.15378 0.18433 0.95418 0.0
N1568 N 0.18034 0.16817 0.01668 0.0
N1569 N 0.15513 0.18677 0.97367 0.0
H1570 H 0.77817 0.15766 0.95459 0.0
H1571 H 0.83026 0.20034 0.04901 0.0
H1572 H 0.82619 0.19794 0.95313 0.0
H1573 H 0.78813 0.15391 0.05024 0.0
H1574 H 0.82452 0.20413 0.01426 0.0
H1575 H 0.77745 0.16047 0.98992 0.0
C1576 C 0.78846 0.16722 0.96168 0.0
C1577 C 0.80242 0.17739 0.95089 0.0
C1578 C 0.81638 0.19325 0.02217 0.0
C1579 C 0.80162 0.18074 0.99129 0.0
C1580 C 0.81956 0.19116 0.04203 0.0
C1581 C 0.80981 0.17663 0.05247 0.0
C1582 C 0.80336 0.18073 0.01269 0.0
C1583 C 0.79623 0.16503 0.04264 0.0
C1584 C 0.788 0.16886 0.98184 0.0
C1585 C 0.81512 0.18989 0.96082 0.0
N1586 N 0.79352 0.16723 0.02326 0.0
N1587 N 0.81454 0.19105 0.98047 0.0
H1588 H 0.84858 0.78394 0.94216 0.0
H1589 H 0.79732 0.80947 0.04301 0.0
H1590 H 0.79515 0.8162 0.9463 0.0
H1591 H 0.85824 0.79719 0.03692 0.0
H1592 H 0.79319 0.80419 0.00801 0.0
H1593 H 0.84893 0.78085 0.97744 0.0
C1594 C 0.83684 0.79024 0.95045 0.0
C1595 C 0.82201 0.80068 0.94124 0.0
C1596 C 0.8074 0.80244 0.01441 0.0
C1597 C 0.82222 0.79693 0.98159 0.0
C1598 C 0.80974 0.80536 0.03432 0.0
C1599 C 0.82818 0.80394 0.04271 0.0
C1600 C 0.82358 0.79783 0.00296 0.0
C1601 C 0.84384 0.79868 0.0309 0.0
C1602 C 0.83703 0.7884 0.97057 0.0
C1603 C 0.80687 0.80802 0.95272 0.0
N1604 N 0.8412 0.79588 0.01159 0.0
N1605 N 0.80747 0.80618 0.97234 0.0
H1606 H 0.15586 0.78728 0.04859 0.0
H1607 H 0.21034 0.81925 0.95139 0.0
H1608 H 0.20387 0.82764 0.04734 0.0
H1609 H 0.15259 0.79497 0.95278 0.0
H1610 H 0.21204 0.81604 0.98666 0.0
H1611 H 0.15855 0.78358 0.01344 0.0
C1612 C 0.16702 0.79529 0.04097 0.0
C1613 C 0.17946 0.80802 0.05094 0.0
C1614 C 0.1991 0.81123 0.97916 0.0
C1615 C 0.18278 0.8036 0.01078 0.0
C1616 C 0.19807 0.81315 0.95905 0.0
C1617 C 0.18121 0.80759 0.94905 0.0
C1618 C 0.18322 0.8036 0.98935 0.0
C1619 C 0.16596 0.79931 0.95975 0.0
C1620 C 0.1686 0.79309 0.02093 0.0
C1621 C 0.194 0.8176 0.04034 0.0
N1622 N 0.16729 0.7977 0.97932 0.0
N1623 N 0.19515 0.81531 0.02081 0.0
H1624 H 0.04595 0.16658 0.19909 0.0
H1625 H 0.94711 0.20669 0.15479 0.0
H1626 H 0.04316 0.21129 0.15531 0.0
H1627 H 0.95033 0.16061 0.19709 0.0
H1628 H 0.982 0.21171 0.158 0.0
H1629 H 0.0108 0.16765 0.20204 0.0
C1630 C 0.03799 0.17688 0.19033 0.0
C1631 C 0.04753 0.18875 0.1768 0.0
C1632 C 0.97505 0.20063 0.16673 0.0
C1633 C 0.00717 0.18975 0.17984 0.0
C1634 C 0.95516 0.1977 0.16484 0.0
C1635 C 0.94585 0.18304 0.1755 0.0
C1636 C 0.98575 0.18876 0.17932 0.0
C1637 C 0.95689 0.17211 0.18862 0.0
C1638 C 0.01787 0.17738 0.19193 0.0
C1639 C 0.03638 0.20162 0.16567 0.0
N1640 N 0.9763 0.17505 0.19 0.0
N1641 N 0.01678 0.20165 0.16731 0.0
H1642 H 0.82004 0.94595 0.13236 0.0
H1643 H 0.85096 0.04082 0.19153 0.0
H1644 H 0.84717 0.94372 0.18876 0.0
H1645 H 0.81309 0.04197 0.14177 0.0
H1646 H 0.85054 0.00525 0.19044 0.0
H1647 H 0.81791 0.9812 0.13529 0.0
C1648 C 0.82537 0.95282 0.14546 0.0
C1649 C 0.83381 0.94179 0.16033 0.0
C1650 C 0.84222 0.01329 0.17984 0.0
C1651 C 0.83174 0.98227 0.1636 0.0
C1652 C 0.84252 0.03356 0.18041 0.0
C1653 C 0.83207 0.04433 0.1667 0.0
C1654 C 0.83155 0.00373 0.16533 0.0
C1655 C 0.82121 0.03423 0.15273 0.0
C1656 C 0.82424 0.97299 0.14707 0.0
C1657 C 0.84083 0.95162 0.17678 0.0
N1658 N 0.82135 0.01449 0.15232 0.0
N1659 N 0.83972 0.9713 0.17793 0.0
H1660 H 0.95352 0.83508 0.19125 0.0
H1661 H 0.05249 0.78881 0.15287 0.0
H1662 H 0.95616 0.78832 0.1495 0.0
H1663 H 0.04946 0.83824 0.19141 0.0
H1664 H 0.01725 0.78587 0.15437 0.0
H1665 H 0.98864 0.83359 0.19471 0.0
C1666 C 0.96145 0.82429 0.18302 0.0
C1667 C 0.95189 0.81188 0.16996 0.0
C1668 C 0.02431 0.79726 0.16262 0.0
C1669 C 0.99217 0.81033 0.17362 0.0
C1670 C 0.04442 0.799 0.16171 0.0
C1671 C 0.05394 0.81389 0.17191 0.0
C1672 C 0.01362 0.81054 0.17378 0.0
C1673 C 0.04277 0.82645 0.18342 0.0
C1674 C 0.98153 0.82355 0.1849 0.0
C1675 C 0.96298 0.79838 0.15949 0.0
N1676 N 0.0232 0.82457 0.18393 0.0
N1677 N 0.98254 0.79804 0.16145 0.0
H1678 H 0.12699 0.0476 0.17148 0.0
H1679 H 0.19296 0.9532 0.16853 0.0
H1680 H 0.18777 0.05025 0.1566 0.0
H1681 H 0.13231 0.95181 0.15367 0.0
H1682 H 0.19141 0.98884 0.17034 0.0
H1683 H 0.12879 0.01218 0.17095 0.0
C1684 C 0.1407 0.04083 0.16802 0.0
C1685 C 0.15722 0.05208 0.16391 0.0
C1686 C 0.17848 0.98069 0.16669 0.0
C1687 C 0.15941 0.01149 0.16388 0.0
C1688 C 0.17933 0.96045 0.16574 0.0
C1689 C 0.16275 0.94972 0.16087 0.0
C1690 C 0.16083 0.99012 0.16314 0.0
C1691 C 0.14543 0.95967 0.1573 0.0
C1692 C 0.1417 0.0206 0.16784 0.0
C1693 C 0.17469 0.04231 0.16012 0.0
N1694 N 0.14487 0.97936 0.15863 0.0
N1695 N 0.17534 0.02258 0.16024 0.0
H1696 H 0.94609 0.84608 0.86432 0.0
H1697 H 0.04537 0.83455 0.80649 0.0
H1698 H 0.94836 0.82833 0.80423 0.0
H1699 H 0.0414 0.83364 0.86902 0.0
H1700 H 0.01002 0.83534 0.80469 0.0
H1701 H 0.98133 0.84506 0.86559 0.0
C1702 C 0.95396 0.84184 0.85141 0.0
C1703 C 0.94417 0.8371 0.83418 0.0
C1704 C 0.01694 0.83493 0.81878 0.0
C1705 C 0.98462 0.83628 0.83548 0.0
C1706 C 0.03711 0.83436 0.81984 0.0
C1707 C 0.04644 0.83406 0.83795 0.0
C1708 C 0.00601 0.83538 0.83594 0.0
C1709 C 0.03492 0.83422 0.85474 0.0
C1710 C 0.9741 0.84136 0.85213 0.0
C1711 C 0.95525 0.83227 0.81777 0.0
N1712 N 0.01533 0.83494 0.85333 0.0
N1713 N 0.9749 0.83198 0.81883 0.0
H1714 H 0.15413 0.94359 0.80483 0.0
H1715 H 0.20887 0.04274 0.83084 0.0
H1716 H 0.20557 0.94601 0.84027 0.0
H1717 H 0.15288 0.03907 0.8031 0.0
H1718 H 0.21106 0.00723 0.82979 0.0
H1719 H 0.15689 0.97845 0.79911 0.0
C1720 C 0.16606 0.9515 0.81135 0.0
C1721 C 0.17944 0.94202 0.82333 0.0
C1722 C 0.19843 0.01427 0.82373 0.0
C1723 C 0.18273 0.98193 0.81684 0.0
C1724 C 0.19711 0.03452 0.8244 0.0
C1725 C 0.1806 0.04396 0.81717 0.0
C1726 C 0.18312 0.00341 0.81577 0.0
C1727 C 0.166 0.03256 0.80866 0.0
C1728 C 0.16768 0.97138 0.80803 0.0
C1729 C 0.19491 0.95283 0.83101 0.0
N1730 N 0.16756 0.01292 0.80834 0.0
N1731 N 0.19601 0.9723 0.82783 0.0
H1732 H 0.03881 0.1825 0.83241 0.0
H1733 H 0.9401 0.12253 0.84114 0.0
H1734 H 0.0354 0.11995 0.82807 0.0
H1735 H 0.94206 0.18492 0.83447 0.0
H1736 H 0.97517 0.12145 0.8374 0.0
H1737 H 0.00349 0.18388 0.83385 0.0
C1738 C 0.03065 0.16907 0.83153 0.0
C1739 C 0.04011 0.15107 0.83018 0.0
C1740 C 0.96793 0.13538 0.83669 0.0
C1741 C -0.0003 0.15254 0.83218 0.0
C1742 C 0.94788 0.13601 0.83875 0.0
C1743 C 0.93807 0.15385 0.83806 0.0
C1744 C 0.97834 0.15272 0.83404 0.0
C1745 C 0.94901 0.17087 0.83534 0.0
C1746 C 0.01048 0.16986 0.83248 0.0
C1747 C 0.02876 0.13413 0.82944 0.0
N1748 N 0.96857 0.16989 0.83346 0.0
N1749 N 0.00917 0.13527 0.83054 0.0
H1750 H 0.82396 0.94678 0.80424 0.0
H1751 H 0.7867 0.04349 0.85598 0.0
H1752 H 0.78804 0.94666 0.85553 0.0
H1753 H 0.82125 0.04279 0.8038 0.0
H1754 H 0.78401 0.00809 0.85422 0.0
H1755 H 0.8202 0.98186 0.80206 0.0
C1756 C 0.81504 0.95408 0.8149 0.0
C1757 C 0.80636 0.94373 0.83015 0.0
C1758 C 0.79203 0.0157 0.84306 0.0
C1759 C 0.80233 0.98408 0.82795 0.0
C1760 C 0.79346 0.03591 0.84398 0.0
C1761 C 0.8044 0.04606 0.83013 0.0
C1762 C 0.80162 0.00559 0.82819 0.0
C1763 C 0.81301 0.03549 0.815 0.0
C1764 C 0.813 0.97417 0.81372 0.0
C1765 C 0.79526 0.95409 0.84373 0.0
N1766 N 0.81156 0.01583 0.81453 0.0
N1767 N 0.79367 0.97372 0.84238 0.0
H1768 H 0.67654 0.69217 0.44395 0.0
H1769 H 0.62329 0.65806 0.54106 0.0
H1770 H 0.62603 0.655 0.44522 0.0
H1771 H 0.68174 0.68051 0.54051 0.0
H1772 H 0.62196 0.66159 0.50594 0.0
H1773 H 0.67666 0.69248 0.47945 0.0
C1774 C 0.66547 0.68409 0.45164 0.0
C1775 C 0.65127 0.6735 0.44151 0.0
C1776 C 0.63507 0.66578 0.5135 0.0
C1777 C 0.65118 0.67408 0.48207 0.0
C1778 C 0.63588 0.66368 0.53355 0.0
C1779 C 0.65277 0.66871 0.54373 0.0
C1780 C 0.65121 0.67308 0.50349 0.0
C1781 C 0.66842 0.67649 0.53326 0.0
C1782 C 0.66551 0.68436 0.47189 0.0
C1783 C 0.63708 0.66363 0.4523 0.0
N1784 N 0.6673 0.67834 0.51366 0.0
N1785 N 0.63743 0.66414 0.47195 0.0
H1786 H 0.29624 0.65033 0.54411 0.0
H1787 H 0.33466 0.69116 0.44294 0.0
H1788 H 0.33655 0.69816 0.53915 0.0
H1789 H 0.29269 0.64485 0.44825 0.0
H1790 H 0.33326 0.69605 0.47798 0.0
H1791 H 0.2924 0.6503 0.50901 0.0
C1792 C 0.30405 0.66106 0.53568 0.0
C1793 C 0.31681 0.67422 0.54463 0.0
C1794 C 0.32424 0.68492 0.47147 0.0
C1795 C 0.31279 0.67396 0.50428 0.0
C1796 C 0.32494 0.68219 0.45143 0.0
C1797 C 0.31388 0.66746 0.44265 0.0
C1798 C 0.31244 0.6728 0.48283 0.0
C1799 C 0.30174 0.65613 0.45444 0.0
C1800 C 0.30196 0.66093 0.51559 0.0
C1801 C 0.3268 0.68754 0.53286 0.0
N1802 N 0.30144 0.65895 0.47393 0.0
N1803 N 0.32469 0.68697 0.51328 0.0
H1804 H 0.3424 0.29146 0.45263 0.0
H1805 H 0.29815 0.32765 0.55352 0.0
H1806 H 0.29864 0.33593 0.4577 0.0
H1807 H 0.3495 0.2923 0.54886 0.0
H1808 H 0.29432 0.32603 0.51835 0.0
H1809 H 0.3415 0.28716 0.48777 0.0
C1810 C 0.33255 0.30028 0.46111 0.0
C1811 C 0.32077 0.31427 0.4522 0.0
C1812 C 0.30633 0.31849 0.52504 0.0
C1813 C 0.31952 0.30924 0.4924 0.0
C1814 C 0.30844 0.31928 0.54512 0.0
C1815 C 0.32425 0.31019 0.55411 0.0
C1816 C 0.32009 0.30851 0.51384 0.0
C1817 C 0.33728 0.29975 0.54248 0.0
C1818 C 0.33199 0.29774 0.48116 0.0
C1819 C 0.30793 0.32492 0.46389 0.0
N1820 N 0.33497 0.29928 0.52292 0.0
N1821 N 0.30777 0.32229 0.4834 0.0
H1822 H 0.64811 0.3085 0.44173 0.0
H1823 H 0.70258 0.33811 0.539 0.0
H1824 H 0.70583 0.33286 0.44244 0.0
H1825 H 0.64947 0.30488 0.53763 0.0
H1826 H 0.70503 0.33489 0.50381 0.0
H1827 H 0.64927 0.30556 0.47683 0.0
C1828 C 0.66119 0.31294 0.4492 0.0
C1829 C 0.67689 0.321 0.43903 0.0
C1830 C 0.69293 0.32815 0.51123 0.0
C1831 C 0.67808 0.3181 0.47947 0.0
C1832 C 0.69157 0.3299 0.53135 0.0
C1833 C 0.67568 0.32192 0.54128 0.0
C1834 C 0.67824 0.31847 0.50095 0.0
C1835 C 0.66175 0.31163 0.53054 0.0
C1836 C 0.66177 0.31138 0.46932 0.0
C1837 C 0.69325 0.32688 0.44967 0.0
N1838 N 0.66327 0.31035 0.51095 0.0
N1839 N 0.69335 0.32546 0.46933 0.0
H1840 H 0.54374 0.63317 0.68976 0.0
H1841 H 0.44693 0.69475 0.67386 0.0
H1842 H 0.54332 0.69215 0.66855 0.0
H1843 H 0.44812 0.63219 0.67909 0.0
H1844 H 0.48209 0.69542 0.67791 0.0
H1845 H 0.50841 0.6342 0.69245 0.0
C1846 C 0.53622 0.64644 0.68597 0.0
C1847 C 0.5464 0.66255 0.67877 0.0
C1848 C 0.47459 0.68158 0.67831 0.0
C1849 C 0.5061 0.66377 0.68165 0.0
C1850 C 0.45454 0.68116 0.67589 0.0
C1851 C 0.44451 0.66337 0.67594 0.0
C1852 C 0.4847 0.6641 0.68091 0.0
C1853 C 0.45514 0.64627 0.67912 0.0
C1854 C 0.51608 0.64697 0.68737 0.0
C1855 C 0.53595 0.67932 0.6739 0.0
N1856 N 0.47465 0.64706 0.68137 0.0
N1857 N 0.51634 0.67947 0.67534 0.0
H1858 H 0.30297 0.5407 0.63159 0.0
H1859 H 0.32683 0.44779 0.69541 0.0
H1860 H 0.31897 0.54401 0.69199 0.0
H1861 H 0.30088 0.44456 0.63851 0.0
H1862 H 0.32183 0.48289 0.69539 0.0
H1863 H 0.30005 0.50543 0.63454 0.0
C1864 C 0.30571 0.53397 0.64552 0.0
C1865 C 0.31141 0.5452 0.66152 0.0
C1866 C 0.31704 0.47448 0.683 0.0
C1867 C 0.30821 0.5049 0.66501 0.0
C1868 C 0.3198 0.4544 0.68303 0.0
C1869 C 0.31448 0.44322 0.66683 0.0
C1870 C 0.30904 0.48346 0.66659 0.0
C1871 C 0.30564 0.45265 0.65112 0.0
C1872 C 0.30397 0.51386 0.64723 0.0
C1873 C 0.31451 0.53584 0.67931 0.0
N1874 N 0.30338 0.47225 0.65131 0.0
N1875 N 0.31312 0.51618 0.68052 0.0
H1876 H 0.54836 0.36609 0.67688 0.0
H1877 H 0.45381 0.29867 0.67288 0.0
H1878 H 0.55003 0.30463 0.66425 0.0
H1879 H 0.45257 0.36099 0.68036 0.0
H1880 H 0.48922 0.29992 0.67255 0.0
H1881 H 0.51337 0.36382 0.68123 0.0
C1882 C 0.54135 0.35211 0.67502 0.0
C1883 C 0.55211 0.33556 0.67001 0.0
C1884 C 0.48118 0.31329 0.67439 0.0
C1885 C 0.51203 0.33282 0.6751 0.0
C1886 C 0.46097 0.3126 0.67449 0.0
C1887 C 0.45018 0.32975 0.6766 0.0
C1888 C 0.49066 0.33127 0.67638 0.0
C1889 C 0.46025 0.34736 0.67894 0.0
C1890 C 0.52138 0.3508 0.67759 0.0
C1891 C 0.54232 0.31774 0.6682 0.0
N1892 N 0.47989 0.34766 0.67867 0.0
N1893 N 0.5228 0.31686 0.67062 0.0
H1894 H 0.70151 0.548 0.64612 0.0
H1895 H 0.66508 0.45114 0.69248 0.0
H1896 H 0.67532 0.5468 0.70306 0.0
H1897 H 0.71321 0.45193 0.65236 0.0
H1898 H 0.66847 0.48608 0.6966 0.0
H1899 H 0.70614 0.51299 0.64792 0.0
C1900 C 0.69707 0.54052 0.65919 0.0
C1901 C 0.68778 0.55047 0.67438 0.0
C1902 C 0.67846 0.47855 0.68711 0.0
C1903 C 0.69256 0.51018 0.67619 0.0
C1904 C 0.67662 0.45851 0.68479 0.0
C1905 C 0.68878 0.44843 0.6719 0.0
C1906 C 0.69228 0.48871 0.67618 0.0
C1907 C 0.70316 0.45906 0.66207 0.0
C1908 C 0.69964 0.52046 0.66013 0.0
C1909 C 0.68205 0.53975 0.69075 0.0
N1910 N 0.70432 0.47866 0.66419 0.0
N1911 N 0.68425 0.52014 0.69109 0.0
H1912 H 0.44772 0.35344 0.36771 0.0
H1913 H 0.54174 0.34921 0.29991 0.0
H1914 H 0.4451 0.34919 0.30529 0.0
H1915 H 0.54361 0.35066 0.36249 0.0
H1916 H 0.50638 0.35045 0.30135 0.0
H1917 H 0.48299 0.35398 0.36586 0.0
C1918 C 0.45458 0.35259 0.35361 0.0
C1919 C 0.44346 0.35113 0.33664 0.0
C1920 C 0.51454 0.35055 0.31475 0.0
C1921 C 0.48386 0.35187 0.33438 0.0
C1922 C 0.53471 0.34972 0.31395 0.0
C1923 C 0.54565 0.34983 0.33111 0.0
C1924 C 0.50524 0.35145 0.33285 0.0
C1925 C 0.53579 0.35081 0.34888 0.0
C1926 C 0.47472 0.35298 0.35254 0.0
C1927 C 0.45311 0.35047 0.31873 0.0
N1928 N 0.51616 0.35154 0.34929 0.0
N1929 N 0.47278 0.35075 0.31807 0.0
H1930 H 0.67498 0.45267 0.28461 0.0
H1931 H 0.70427 0.54869 0.34313 0.0
H1932 H 0.70272 0.45212 0.34069 0.0
H1933 H 0.66998 0.54844 0.29077 0.0
H1934 H 0.70877 0.51361 0.33975 0.0
H1935 H 0.67822 0.48802 0.28384 0.0
C1936 C 0.68191 0.45999 0.29669 0.0
C1937 C 0.68835 0.44946 0.31286 0.0
C1938 C 0.70044 0.52128 0.3289 0.0
C1939 C 0.69212 0.48991 0.31208 0.0
C1940 C 0.69779 0.54129 0.33086 0.0
C1941 C 0.68655 0.55151 0.31733 0.0
C1942 C 0.69177 0.51141 0.3133 0.0
C1943 C 0.67885 0.54122 0.3015 0.0
C1944 C 0.6838 0.48016 0.29622 0.0
C1945 C 0.69759 0.45964 0.32792 0.0
N1946 N 0.68146 0.52173 0.30003 0.0
N1947 N 0.69899 0.47933 0.32727 0.0
H1948 H 0.53823 0.6739 0.29795 0.0
H1949 H 0.44325 0.61314 0.32461 0.0
H1950 H 0.5398 0.62202 0.33295 0.0
H1951 H 0.44241 0.67499 0.31455 0.0
H1952 H 0.47864 0.61351 0.32104 0.0
H1953 H 0.50273 0.67175 0.29719 0.0
C1954 C 0.53106 0.66195 0.30526 0.0
C1955 C 0.5418 0.64818 0.31562 0.0
C1956 C 0.47066 0.62696 0.31952 0.0
C1957 C 0.50152 0.64557 0.31473 0.0
C1958 C 0.45055 0.62673 0.32146 0.0
C1959 C 0.44005 0.64408 0.31997 0.0
C1960 C 0.4802 0.64459 0.31574 0.0
C1961 C 0.45009 0.66136 0.31598 0.0
C1962 C 0.51089 0.66079 0.30492 0.0
C1963 C 0.53193 0.63302 0.32497 0.0
N1964 N 0.46965 0.66119 0.31396 0.0
N1965 N 0.5123 0.63209 0.32429 0.0
H1966 H 0.27425 0.44472 0.3452 0.0
H1967 H 0.30863 0.5379 0.28515 0.0
H1968 H 0.31143 0.44217 0.2949 0.0
H1969 H 0.28164 0.54058 0.3416 0.0
H1970 H 0.30363 0.50271 0.28487 0.0
H1971 H 0.2707 0.47971 0.34029 0.0
C1972 C 0.28153 0.45147 0.33302 0.0
C1973 C 0.2934 0.44051 0.32062 0.0
C1974 C 0.29859 0.51106 0.2972 0.0
C1975 C 0.28929 0.48052 0.31485 0.0
C1976 C 0.30151 0.53113 0.29742 0.0
C1977 C 0.29581 0.54222 0.31356 0.0
C1978 C 0.28991 0.50198 0.31323 0.0
C1979 C 0.28622 0.5327 0.32881 0.0
C1980 C 0.27943 0.47143 0.33019 0.0
C1981 C 0.30209 0.44997 0.3048 0.0
N1982 N 0.28377 0.51311 0.32837 0.0
N1983 N 0.30004 0.46946 0.30251 0.0
loop_
_geom_bond_atom_site_label_1
_geom_bond_atom_site_label_2
_geom_bond_distance
_geom_bond_site_symmetry_2
_ccdc_geom_bond_type
Li0 N17 1.990 . S
Li0 O60 1.956 . S
Li0 O61 1.970 . S
Li0 O62 1.961 . S
Li1 N25 1.990 . S
Li1 O60 1.970 . S
Li1 O61 1.956 . S
Li1 O63 1.961 . S
Li2 N47 1.990 . S
Li2 O60 1.961 . S
Li2 O62 1.956 . S
Li2 O63 1.970 . S
Li3 N53 1.990 . S
Li3 O61 1.961 . S
Li3 O62 1.970 . S
Li3 O63 1.956 . S
C4 C6 1.348 . S
C4 C7 1.356 . S
C4 O60 1.325 . S
N5 C8 1.314 . S
N5 C9 1.279 . S
C6 C4 1.348 . S
C6 C8 1.353 . S
C6 H64 0.929 . S
C7 C4 1.356 . S
C7 C9 1.358 . S
C7 H65 0.930 . S
C8 N5 1.314 . S
C8 C6 1.353 . S
C8 H66 0.930 . S
C9 N5 1.279 . S
C9 C7 1.358 . S
C9 H67 0.930 . S
C10 C13 1.348 . S
C10 C14 1.356 . S
C10 O61 1.325 . S
C11 N12 1.279 . S
C11 C14 1.358 . S
C11 H68 0.930 . S
N12 C11 1.279 . S
N12 C15 1.314 . S
C13 C10 1.348 . S
C13 C15 1.353 . S
C13 H69 0.929 . S
C14 C10 1.356 . S
C14 C11 1.358 . S
C14 H70 0.930 . S
C15 N12 1.314 . S
C15 C13 1.353 . S
C15 H71 0.930 . S
C16 N17 1.314 . S
C16 C21 1.353 . S
C16 H22 0.930 . S
N17 Li0 1.990 . S
N17 C16 1.314 . S
N17 C19 1.279 . S
C18 C19 1.358 . S
C18 C20 1.356 . S
C18 H72 0.930 . S
C19 N17 1.279 . S
C19 C18 1.358 . S
C19 H23 0.930 . S
C20 C18 1.356 . S
C20 C21 1.348 . S
C21 C16 1.353 . S
C21 C20 1.348 . S
C21 H73 0.929 . S
H22 C16 0.930 . S
H23 C19 0.930 . S
C24 N25 1.314 . S
C24 C26 1.353 . S
C24 H30 0.930 . S
N25 Li1 1.990 . S
N25 C24 1.314 . S
N25 C28 1.279 . S
C26 C24 1.353 . S
C26 C29 1.348 . S
C26 H74 0.929 . S
C27 C28 1.358 . S
C27 C29 1.356 . S
C27 H75 0.930 . S
C28 N25 1.279 . S
C28 C27 1.358 . S
C28 H31 0.930 . S
C29 C26 1.348 . S
C29 C27 1.356 . S
H30 C24 0.930 . S
H31 C28 0.930 . S
C32 C34 1.348 . S
C32 C35 1.356 . S
C32 O62 1.325 . S
N33 C36 1.314 . S
N33 C37 1.279 . S
C34 C32 1.348 . S
C34 C36 1.353 . S
C34 H76 0.929 . S
C35 C32 1.356 . S
C35 C37 1.358 . S
C35 H77 0.930 . S
C36 N33 1.314 . S
C36 C34 1.353 . S
C36 H78 0.930 . S
C37 N33 1.279 . S
C37 C35 1.358 . S
C37 H79 0.930 . S
C38 C39 1.348 . S
C38 C40 1.356 . S
C38 O63 1.325 . S
C39 C38 1.348 . S
C39 C41 1.353 . S
C39 H80 0.929 . S
C40 C38 1.356 . S
C40 C42 1.358 . S
C40 H81 0.930 . S
C41 C39 1.353 . S
C41 N43 1.314 . S
C41 H82 0.930 . S
C42 C40 1.358 . S
C42 N43 1.279 . S
C42 H83 0.930 . S
N43 C41 1.314 . S
N43 C42 1.279 . S
C44 C46 1.353 . S
C44 N47 1.314 . S
C44 H50 0.930 . S
C45 N47 1.279 . S
C45 C48 1.358 . S
C45 H51 0.930 . S
C46 C44 1.353 . S
C46 C49 1.348 . S
C46 H84 0.929 . S
N47 Li2 1.990 . S
N47 C44 1.314 . S
N47 C45 1.279 . S
C48 C45 1.358 . S
C48 C49 1.356 . S
C48 H85 0.930 . S
C49 C46 1.348 . S
C49 C48 1.356 . S
H50 C44 0.930 . S
H51 C45 0.930 . S
C52 N53 1.314 . S
C52 C54 1.353 . S
C52 H58 0.930 . S
N53 Li3 1.990 . S
N53 C52 1.314 . S
N53 C56 1.279 . S
C54 C52 1.353 . S
C54 C57 1.348 . S
C54 H86 0.929 . S
C55 C56 1.358 . S
C55 C57 1.356 . S
C55 H87 0.930 . S
C56 N53 1.279 . S
C56 C55 1.358 . S
C56 H59 0.930 . S
C57 C54 1.348 . S
C57 C55 1.356 . S
H58 C52 0.930 . S
H59 C56 0.930 . S
O60 Li0 1.956 . S
O60 Li1 1.970 . S
O60 Li2 1.961 . S
O60 C4 1.325 . S
O61 Li0 1.970 . S
O61 Li1 1.956 . S
O61 Li3 1.961 . S
O61 C10 1.325 . S
O62 Li0 1.961 . S
O62 Li2 1.956 . S
O62 Li3 1.970 . S
O62 C32 1.325 . S
O63 Li1 1.961 . S
O63 Li2 1.970 . S
O63 Li3 1.956 . S
O63 C38 1.325 . S
H64 C6 0.929 . S
H65 C7 0.930 . S
H66 C8 0.930 . S
H67 C9 0.930 . S
H68 C11 0.930 . S
H69 C13 0.929 . S
H70 C14 0.930 . S
H71 C15 0.930 . S
H72 C18 0.930 . S
H73 C21 0.929 . S
H74 C26 0.929 . S
H75 C27 0.930 . S
H76 C34 0.929 . S
H77 C35 0.930 . S
H78 C36 0.930 . S
H79 C37 0.930 . S
H80 C39 0.929 . S
H81 C40 0.930 . S
H82 C41 0.930 . S
H83 C42 0.930 . S
H84 C46 0.929 . S
H85 C48 0.930 . S
H86 C54 0.929 . S
H87 C55 0.930 . S
Li88 N105 1.990 . S
Li88 O148 1.956 . S
Li88 O149 1.970 . S
Li88 O150 1.961 . S
Li89 N113 1.990 . S
Li89 O148 1.970 . S
Li89 O149 1.956 . S
Li89 O151 1.961 . S
Li90 N135 1.990 . S
Li90 O148 1.961 . S
Li90 O150 1.956 . S
Li90 O151 1.970 . S
Li91 N141 1.990 . S
Li91 O149 1.961 . S
Li91 O150 1.970 . S
Li91 O151 1.956 . S
C92 C94 1.348 . S
C92 C95 1.356 . S
C92 O148 1.325 . S
N93 C96 1.314 . S
N93 C97 1.279 . S
C94 C92 1.348 . S
C94 C96 1.353 . S
C94 H152 0.929 . S
C95 C92 1.356 . S
C95 C97 1.358 . S
C95 H153 0.930 . S
C96 N93 1.314 . S
C96 C94 1.353 . S
C96 H154 0.930 . S
C97 N93 1.279 . S
C97 C95 1.358 . S
C97 H155 0.930 . S
C98 C101 1.348 . S
C98 C102 1.356 . S
C98 O149 1.325 . S
C99 N100 1.279 . S
C99 C102 1.358 . S
C99 H156 0.930 . S
N100 C99 1.279 . S
N100 C103 1.314 . S
C101 C98 1.348 . S
C101 C103 1.353 . S
C101 H157 0.929 . S
C102 C98 1.356 . S
C102 C99 1.358 . S
C102 H158 0.930 . S
C103 N100 1.314 . S
C103 C101 1.353 . S
C103 H159 0.930 . S
C104 N105 1.314 . S
C104 C109 1.353 . S
C104 H110 0.930 . S
N105 Li88 1.990 . S
N105 C104 1.314 . S
N105 C107 1.279 . S
C106 C107 1.358 . S
C106 C108 1.356 . S
C106 H160 0.930 . S
C107 N105 1.279 . S
C107 C106 1.358 . S
C107 H111 0.930 . S
C108 C106 1.356 . S
C108 C109 1.348 . S
C109 C104 1.353 . S
C109 C108 1.348 . S
C109 H161 0.929 . S
H110 C104 0.930 . S
H111 C107 0.930 . S
C112 N113 1.314 . S
C112 C114 1.353 . S
C112 H118 0.930 . S
N113 Li89 1.990 . S
N113 C112 1.314 . S
N113 C116 1.279 . S
C114 C112 1.353 . S
C114 C117 1.348 . S
C114 H162 0.929 . S
C115 C116 1.358 . S
C115 C117 1.356 . S
C115 H163 0.930 . S
C116 N113 1.279 . S
C116 C115 1.358 . S
C116 H119 0.930 . S
C117 C114 1.348 . S
C117 C115 1.356 . S
H118 C112 0.930 . S
H119 C116 0.930 . S
C120 C122 1.348 . S
C120 C123 1.356 . S
C120 O150 1.325 . S
N121 C124 1.314 . S
N121 C125 1.279 . S
C122 C120 1.348 . S
C122 C124 1.353 . S
C122 H164 0.929 . S
C123 C120 1.356 . S
C123 C125 1.358 . S
C123 H165 0.930 . S
C124 N121 1.314 . S
C124 C122 1.353 . S
C124 H166 0.930 . S
C125 N121 1.279 . S
C125 C123 1.358 . S
C125 H167 0.930 . S
C126 C127 1.348 . S
C126 C128 1.356 . S
C126 O151 1.325 . S
C127 C126 1.348 . S
C127 C129 1.353 . S
C127 H168 0.929 . S
C128 C126 1.356 . S
C128 C130 1.358 . S
C128 H169 0.930 . S
C129 C127 1.353 . S
C129 N131 1.314 . S
C129 H170 0.930 . S
C130 C128 1.358 . S
C130 N131 1.279 . S
C130 H171 0.930 . S
N131 C129 1.314 . S
N131 C130 1.279 . S
C132 C134 1.353 . S
C132 N135 1.314 . S
C132 H138 0.930 . S
C133 N135 1.279 . S
C133 C136 1.358 . S
C133 H139 0.930 . S
C134 C132 1.353 . S
C134 C137 1.348 . S
C134 H172 0.929 . S
N135 Li90 1.990 . S
N135 C132 1.314 . S
N135 C133 1.279 . S
C136 C133 1.358 . S
C136 C137 1.356 . S
C136 H173 0.930 . S
C137 C134 1.348 . S
C137 C136 1.356 . S
H138 C132 0.930 . S
H139 C133 0.930 . S
C140 N141 1.314 . S
C140 C142 1.353 . S
C140 H146 0.930 . S
N141 Li91 1.990 . S
N141 C140 1.314 . S
N141 C144 1.279 . S
C142 C140 1.353 . S
C142 C145 1.348 . S
C142 H174 0.929 . S
C143 C144 1.358 . S
C143 C145 1.356 . S
C143 H175 0.930 . S
C144 N141 1.279 . S
C144 C143 1.358 . S
C144 H147 0.930 . S
C145 C142 1.348 . S
C145 C143 1.356 . S
H146 C140 0.930 . S
H147 C144 0.930 . S
O148 Li88 1.956 . S
O148 Li89 1.970 . S
O148 Li90 1.961 . S
O148 C92 1.325 . S
O149 Li88 1.970 . S
O149 Li89 1.956 . S
O149 Li91 1.961 . S
O149 C98 1.325 . S
O150 Li88 1.961 . S
O150 Li90 1.956 . S
O150 Li91 1.970 . S
O150 C120 1.325 . S
O151 Li89 1.961 . S
O151 Li90 1.970 . S
O151 Li91 1.956 . S
O151 C126 1.325 . S
H152 C94 0.929 . S
H153 C95 0.930 . S
H154 C96 0.930 . S
H155 C97 0.930 . S
H156 C99 0.930 . S
H157 C101 0.929 . S
H158 C102 0.930 . S
H159 C103 0.930 . S
H160 C106 0.930 . S
H161 C109 0.929 . S
H162 C114 0.929 . S
H163 C115 0.930 . S
H164 C122 0.929 . S
H165 C123 0.930 . S
H166 C124 0.930 . S
H167 C125 0.930 . S
H168 C127 0.929 . S
H169 C128 0.930 . S
H170 C129 0.930 . S
H171 C130 0.930 . S
H172 C134 0.929 . S
H173 C136 0.930 . S
H174 C142 0.929 . S
H175 C143 0.930 . S
Li176 N193 1.990 . S
Li176 O236 1.956 . S
Li176 O237 1.970 . S
Li176 O238 1.961 . S
Li177 N201 1.990 . S
Li177 O236 1.970 . S
Li177 O237 1.956 . S
Li177 O239 1.961 . S
Li178 N223 1.990 . S
Li178 O236 1.961 . S
Li178 O238 1.956 . S
Li178 O239 1.970 . S
Li179 N229 1.990 . S
Li179 O237 1.961 . S
Li179 O238 1.970 . S
Li179 O239 1.956 . S
C180 C182 1.348 . S
C180 C183 1.356 . S
C180 O236 1.325 . S
N181 C184 1.314 . S
N181 C185 1.279 . S
C182 C180 1.348 . S
C182 C184 1.353 . S
C182 H240 0.929 . S
C183 C180 1.356 . S
C183 C185 1.358 . S
C183 H241 0.930 . S
C184 N181 1.314 . S
C184 C182 1.353 . S
C184 H242 0.930 . S
C185 N181 1.279 . S
C185 C183 1.358 . S
C185 H243 0.930 . S
C186 C189 1.348 . S
C186 C190 1.356 . S
C186 O237 1.325 . S
C187 N188 1.279 . S
C187 C190 1.358 . S
C187 H244 0.930 . S
N188 C187 1.279 . S
N188 C191 1.314 . S
C189 C186 1.348 . S
C189 C191 1.353 . S
C189 H245 0.929 . S
C190 C186 1.356 . S
C190 C187 1.358 . S
C190 H246 0.930 . S
C191 N188 1.314 . S
C191 C189 1.353 . S
C191 H247 0.930 . S
C192 N193 1.314 . S
C192 C197 1.353 . S
C192 H198 0.930 . S
N193 Li176 1.990 . S
N193 C192 1.314 . S
N193 C195 1.279 . S
C194 C195 1.358 . S
C194 C196 1.356 . S
C194 H248 0.930 . S
C195 N193 1.279 . S
C195 C194 1.358 . S
C195 H199 0.930 . S
C196 C194 1.356 . S
C196 C197 1.348 . S
C197 C192 1.353 . S
C197 C196 1.348 . S
C197 H249 0.929 . S
H198 C192 0.930 . S
H199 C195 0.930 . S
C200 N201 1.314 . S
C200 C202 1.353 . S
C200 H206 0.930 . S
N201 Li177 1.990 . S
N201 C200 1.314 . S
N201 C204 1.279 . S
C202 C200 1.353 . S
C202 C205 1.348 . S
C202 H250 0.929 . S
C203 C204 1.358 . S
C203 C205 1.356 . S
C203 H251 0.930 . S
C204 N201 1.279 . S
C204 C203 1.358 . S
C204 H207 0.930 . S
C205 C202 1.348 . S
C205 C203 1.356 . S
H206 C200 0.930 . S
H207 C204 0.930 . S
C208 C210 1.348 . S
C208 C211 1.356 . S
C208 O238 1.325 . S
N209 C212 1.314 . S
N209 C213 1.279 . S
C210 C208 1.348 . S
C210 C212 1.353 . S
C210 H252 0.929 . S
C211 C208 1.356 . S
C211 C213 1.358 . S
C211 H253 0.930 . S
C212 N209 1.314 . S
C212 C210 1.353 . S
C212 H254 0.930 . S
C213 N209 1.279 . S
C213 C211 1.358 . S
C213 H255 0.930 . S
C214 C215 1.348 . S
C214 C216 1.356 . S
C214 O239 1.325 . S
C215 C214 1.348 . S
C215 C217 1.353 . S
C215 H256 0.929 . S
C216 C214 1.356 . S
C216 C218 1.358 . S
C216 H257 0.930 . S
C217 C215 1.353 . S
C217 N219 1.314 . S
C217 H258 0.930 . S
C218 C216 1.358 . S
C218 N219 1.279 . S
C218 H259 0.930 . S
N219 C217 1.314 . S
N219 C218 1.279 . S
C220 C222 1.353 . S
C220 N223 1.314 . S
C220 H226 0.930 . S
C221 N223 1.279 . S
C221 C224 1.358 . S
C221 H227 0.930 . S
C222 C220 1.353 . S
C222 C225 1.348 . S
C222 H260 0.929 . S
N223 Li178 1.990 . S
N223 C220 1.314 . S
N223 C221 1.279 . S
C224 C221 1.358 . S
C224 C225 1.356 . S
C224 H261 0.930 . S
C225 C222 1.348 . S
C225 C224 1.356 . S
H226 C220 0.930 . S
H227 C221 0.930 . S
C228 N229 1.314 . S
C228 C230 1.353 . S
C228 H234 0.930 . S
N229 Li179 1.990 . S
N229 C228 1.314 . S
N229 C232 1.279 . S
C230 C228 1.353 . S
C230 C233 1.348 . S
C230 H262 0.929 . S
C231 C232 1.358 . S
C231 C233 1.356 . S
C231 H263 0.930 . S
C232 N229 1.279 . S
C232 C231 1.358 . S
C232 H235 0.930 . S
C233 C230 1.348 . S
C233 C231 1.356 . S
H234 C228 0.930 . S
H235 C232 0.930 . S
O236 Li176 1.956 . S
O236 Li177 1.970 . S
O236 Li178 1.961 . S
O236 C180 1.325 . S
O237 Li176 1.970 . S
O237 Li177 1.956 . S
O237 Li179 1.961 . S
O237 C186 1.325 . S
O238 Li176 1.961 . S
O238 Li178 1.956 . S
O238 Li179 1.970 . S
O238 C208 1.325 . S
O239 Li177 1.961 . S
O239 Li178 1.970 . S
O239 Li179 1.956 . S
O239 C214 1.325 . S
H240 C182 0.929 . S
H241 C183 0.930 . S
H242 C184 0.930 . S
H243 C185 0.930 . S
H244 C187 0.930 . S
H245 C189 0.929 . S
H246 C190 0.930 . S
H247 C191 0.930 . S
H248 C194 0.930 . S
H249 C197 0.929 . S
H250 C202 0.929 . S
H251 C203 0.930 . S
H252 C210 0.929 . S
H253 C211 0.930 . S
H254 C212 0.930 . S
H255 C213 0.930 . S
H256 C215 0.929 . S
H257 C216 0.930 . S
H258 C217 0.930 . S
H259 C218 0.930 . S
H260 C222 0.929 . S
H261 C224 0.930 . S
H262 C230 0.929 . S
H263 C231 0.930 . S
Li264 N281 1.990 . S
Li264 O324 1.956 . S
Li264 O325 1.970 . S
Li264 O326 1.961 . S
Li265 N289 1.990 . S
Li265 O324 1.970 . S
Li265 O325 1.956 . S
Li265 O327 1.961 . S
Li266 N311 1.990 . S
Li266 O324 1.961 . S
Li266 O326 1.956 . S
Li266 O327 1.970 . S
Li267 N317 1.990 . S
Li267 O325 1.961 . S
Li267 O326 1.970 . S
Li267 O327 1.956 . S
C268 C270 1.348 . S
C268 C271 1.356 . S
C268 O324 1.325 . S
N269 C272 1.314 . S
N269 C273 1.279 . S
C270 C268 1.348 . S
C270 C272 1.353 . S
C270 H328 0.929 . S
C271 C268 1.356 . S
C271 C273 1.358 . S
C271 H329 0.930 . S
C272 N269 1.314 . S
C272 C270 1.353 . S
C272 H330 0.930 . S
C273 N269 1.279 . S
C273 C271 1.358 . S
C273 H331 0.930 . S
C274 C277 1.348 . S
C274 C278 1.356 . S
C274 O325 1.325 . S
C275 N276 1.279 . S
C275 C278 1.358 . S
C275 H332 0.930 . S
N276 C275 1.279 . S
N276 C279 1.314 . S
C277 C274 1.348 . S
C277 C279 1.353 . S
C277 H333 0.929 . S
C278 C274 1.356 . S
C278 C275 1.358 . S
C278 H334 0.930 . S
C279 N276 1.314 . S
C279 C277 1.353 . S
C279 H335 0.930 . S
C280 N281 1.314 . S
C280 C285 1.353 . S
C280 H286 0.930 . S
N281 Li264 1.990 . S
N281 C280 1.314 . S
N281 C283 1.279 . S
C282 C283 1.358 . S
C282 C284 1.356 . S
C282 H336 0.930 . S
C283 N281 1.279 . S
C283 C282 1.358 . S
C283 H287 0.930 . S
C284 C282 1.356 . S
C284 C285 1.348 . S
C285 C280 1.353 . S
C285 C284 1.348 . S
C285 H337 0.929 . S
H286 C280 0.930 . S
H287 C283 0.930 . S
C288 N289 1.314 . S
C288 C290 1.353 . S
C288 H294 0.930 . S
N289 Li265 1.990 . S
N289 C288 1.314 . S
N289 C292 1.279 . S
C290 C288 1.353 . S
C290 C293 1.348 . S
C290 H338 0.929 . S
C291 C292 1.358 . S
C291 C293 1.356 . S
C291 H339 0.930 . S
C292 N289 1.279 . S
C292 C291 1.358 . S
C292 H295 0.930 . S
C293 C290 1.348 . S
C293 C291 1.356 . S
H294 C288 0.930 . S
H295 C292 0.930 . S
C296 C298 1.348 . S
C296 C299 1.356 . S
C296 O326 1.325 . S
N297 C300 1.314 . S
N297 C301 1.279 . S
C298 C296 1.348 . S
C298 C300 1.353 . S
C298 H340 0.929 . S
C299 C296 1.356 . S
C299 C301 1.358 . S
C299 H341 0.930 . S
C300 N297 1.314 . S
C300 C298 1.353 . S
C300 H342 0.930 . S
C301 N297 1.279 . S
C301 C299 1.358 . S
C301 H343 0.930 . S
C302 C303 1.348 . S
C302 C304 1.356 . S
C302 O327 1.325 . S
C303 C302 1.348 . S
C303 C305 1.353 . S
C303 H344 0.929 . S
C304 C302 1.356 . S
C304 C306 1.358 . S
C304 H345 0.930 . S
C305 C303 1.353 . S
C305 N307 1.314 . S
C305 H346 0.930 . S
C306 C304 1.358 . S
C306 N307 1.279 . S
C306 H347 0.930 . S
N307 C305 1.314 . S
N307 C306 1.279 . S
C308 C310 1.353 . S
C308 N311 1.314 . S
C308 H314 0.930 . S
C309 N311 1.279 . S
C309 C312 1.358 . S
C309 H315 0.930 . S
C310 C308 1.353 . S
C310 C313 1.348 . S
C310 H348 0.929 . S
N311 Li266 1.990 . S
N311 C308 1.314 . S
N311 C309 1.279 . S
C312 C309 1.358 . S
C312 C313 1.356 . S
C312 H349 0.930 . S
C313 C310 1.348 . S
C313 C312 1.356 . S
H314 C308 0.930 . S
H315 C309 0.930 . S
C316 N317 1.314 . S
C316 C318 1.353 . S
C316 H322 0.930 . S
N317 Li267 1.990 . S
N317 C316 1.314 . S
N317 C320 1.279 . S
C318 C316 1.353 . S
C318 C321 1.348 . S
C318 H350 0.929 . S
C319 C320 1.358 . S
C319 C321 1.356 . S
C319 H351 0.930 . S
C320 N317 1.279 . S
C320 C319 1.358 . S
C320 H323 0.930 . S
C321 C318 1.348 . S
C321 C319 1.356 . S
H322 C316 0.930 . S
H323 C320 0.930 . S
O324 Li264 1.956 . S
O324 Li265 1.970 . S
O324 Li266 1.961 . S
O324 C268 1.325 . S
O325 Li264 1.970 . S
O325 Li265 1.956 . S
O325 Li267 1.961 . S
O325 C274 1.325 . S
O326 Li264 1.961 . S
O326 Li266 1.956 . S
O326 Li267 1.970 . S
O326 C296 1.325 . S
O327 Li265 1.961 . S
O327 Li266 1.970 . S
O327 Li267 1.956 . S
O327 C302 1.325 . S
H328 C270 0.929 . S
H329 C271 0.930 . S
H330 C272 0.930 . S
H331 C273 0.930 . S
H332 C275 0.930 . S
H333 C277 0.929 . S
H334 C278 0.930 . S
H335 C279 0.930 . S
H336 C282 0.930 . S
H337 C285 0.929 . S
H338 C290 0.929 . S
H339 C291 0.930 . S
H340 C298 0.929 . S
H341 C299 0.930 . S
H342 C300 0.930 . S
H343 C301 0.930 . S
H344 C303 0.929 . S
H345 C304 0.930 . S
H346 C305 0.930 . S
H347 C306 0.930 . S
H348 C310 0.929 . S
H349 C312 0.930 . S
H350 C318 0.929 . S
H351 C319 0.930 . S
Li352 N369 1.990 . S
Li352 O412 1.956 . S
Li352 O413 1.970 . S
Li352 O414 1.961 . S
Li353 N377 1.990 . S
Li353 O412 1.970 . S
Li353 O413 1.956 . S
Li353 O415 1.961 . S
Li354 N399 1.990 . S
Li354 O412 1.961 . S
Li354 O414 1.956 . S
Li354 O415 1.970 . S
Li355 N405 1.990 . S
Li355 O413 1.961 . S
Li355 O414 1.970 . S
Li355 O415 1.956 . S
C356 C358 1.348 . S
C356 C359 1.356 . S
C356 O412 1.325 . S
N357 C360 1.314 . S
N357 C361 1.279 . S
C358 C356 1.348 . S
C358 C360 1.353 . S
C358 H416 0.929 . S
C359 C356 1.356 . S
C359 C361 1.358 . S
C359 H417 0.930 . S
C360 N357 1.314 . S
C360 C358 1.353 . S
C360 H418 0.930 . S
C361 N357 1.279 . S
C361 C359 1.358 . S
C361 H419 0.930 . S
C362 C365 1.348 . S
C362 C366 1.356 . S
C362 O413 1.325 . S
C363 N364 1.279 . S
C363 C366 1.358 . S
C363 H420 0.930 . S
N364 C363 1.279 . S
N364 C367 1.314 . S
C365 C362 1.348 . S
C365 C367 1.353 . S
C365 H421 0.929 . S
C366 C362 1.356 . S
C366 C363 1.358 . S
C366 H422 0.930 . S
C367 N364 1.314 . S
C367 C365 1.353 . S
C367 H423 0.930 . S
C368 N369 1.314 . S
C368 C373 1.353 . S
C368 H374 0.930 . S
N369 Li352 1.990 . S
N369 C368 1.314 . S
N369 C371 1.279 . S
C370 C371 1.358 . S
C370 C372 1.356 . S
C370 H424 0.930 . S
C371 N369 1.279 . S
C371 C370 1.358 . S
C371 H375 0.930 . S
C372 C370 1.356 . S
C372 C373 1.348 . S
C373 C368 1.353 . S
C373 C372 1.348 . S
C373 H425 0.929 . S
H374 C368 0.930 . S
H375 C371 0.930 . S
C376 N377 1.314 . S
C376 C378 1.353 . S
C376 H382 0.930 . S
N377 Li353 1.990 . S
N377 C376 1.314 . S
N377 C380 1.279 . S
C378 C376 1.353 . S
C378 C381 1.348 . S
C378 H426 0.929 . S
C379 C380 1.358 . S
C379 C381 1.356 . S
C379 H427 0.930 . S
C380 N377 1.279 . S
C380 C379 1.358 . S
C380 H383 0.930 . S
C381 C378 1.348 . S
C381 C379 1.356 . S
H382 C376 0.930 . S
H383 C380 0.930 . S
C384 C386 1.348 . S
C384 C387 1.356 . S
C384 O414 1.325 . S
N385 C388 1.314 . S
N385 C389 1.279 . S
C386 C384 1.348 . S
C386 C388 1.353 . S
C386 H428 0.929 . S
C387 C384 1.356 . S
C387 C389 1.358 . S
C387 H429 0.930 . S
C388 N385 1.314 . S
C388 C386 1.353 . S
C388 H430 0.930 . S
C389 N385 1.279 . S
C389 C387 1.358 . S
C389 H431 0.930 . S
C390 C391 1.348 . S
C390 C392 1.356 . S
C390 O415 1.325 . S
C391 C390 1.348 . S
C391 C393 1.353 . S
C391 H432 0.929 . S
C392 C390 1.356 . S
C392 C394 1.358 . S
C392 H433 0.930 . S
C393 C391 1.353 . S
C393 N395 1.314 . S
C393 H434 0.930 . S
C394 C392 1.358 . S
C394 N395 1.279 . S
C394 H435 0.930 . S
N395 C393 1.314 . S
N395 C394 1.279 . S
C396 C398 1.353 . S
C396 N399 1.314 . S
C396 H402 0.930 . S
C397 N399 1.279 . S
C397 C400 1.358 . S
C397 H403 0.930 . S
C398 C396 1.353 . S
C398 C401 1.348 . S
C398 H436 0.929 . S
N399 Li354 1.990 . S
N399 C396 1.314 . S
N399 C397 1.279 . S
C400 C397 1.358 . S
C400 C401 1.356 . S
C400 H437 0.930 . S
C401 C398 1.348 . S
C401 C400 1.356 . S
H402 C396 0.930 . S
H403 C397 0.930 . S
C404 N405 1.314 . S
C404 C406 1.353 . S
C404 H410 0.930 . S
N405 Li355 1.990 . S
N405 C404 1.314 . S
N405 C408 1.279 . S
C406 C404 1.353 . S
C406 C409 1.348 . S
C406 H438 0.929 . S
C407 C408 1.358 . S
C407 C409 1.356 . S
C407 H439 0.930 . S
C408 N405 1.279 . S
C408 C407 1.358 . S
C408 H411 0.930 . S
C409 C406 1.348 . S
C409 C407 1.356 . S
H410 C404 0.930 . S
H411 C408 0.930 . S
O412 Li352 1.956 . S
O412 Li353 1.970 . S
O412 Li354 1.961 . S
O412 C356 1.325 . S
O413 Li352 1.970 . S
O413 Li353 1.956 . S
O413 Li355 1.961 . S
O413 C362 1.325 . S
O414 Li352 1.961 . S
O414 Li354 1.956 . S
O414 Li355 1.970 . S
O414 C384 1.325 . S
O415 Li353 1.961 . S
O415 Li354 1.970 . S
O415 Li355 1.956 . S
O415 C390 1.325 . S
H416 C358 0.929 . S
H417 C359 0.930 . S
H418 C360 0.930 . S
H419 C361 0.930 . S
H420 C363 0.930 . S
H421 C365 0.929 . S
H422 C366 0.930 . S
H423 C367 0.930 . S
H424 C370 0.930 . S
H425 C373 0.929 . S
H426 C378 0.929 . S
H427 C379 0.930 . S
H428 C386 0.929 . S
H429 C387 0.930 . S
H430 C388 0.930 . S
H431 C389 0.930 . S
H432 C391 0.929 . S
H433 C392 0.930 . S
H434 C393 0.930 . S
H435 C394 0.930 . S
H436 C398 0.929 . S
H437 C400 0.930 . S
H438 C406 0.929 . S
H439 C407 0.930 . S
Li440 N457 1.990 . S
Li440 O500 1.956 . S
Li440 O501 1.970 . S
Li440 O502 1.961 . S
Li441 N465 1.990 . S
Li441 O500 1.970 . S
Li441 O501 1.956 . S
Li441 O503 1.961 . S
Li442 N487 1.990 . S
Li442 O500 1.961 . S
Li442 O502 1.956 . S
Li442 O503 1.970 . S
Li443 N493 1.990 . S
Li443 O501 1.961 . S
Li443 O502 1.970 . S
Li443 O503 1.956 . S
C444 C446 1.348 . S
C444 C447 1.356 . S
C444 O500 1.325 . S
N445 C448 1.314 . S
N445 C449 1.279 . S
C446 C444 1.348 . S
C446 C448 1.353 . S
C446 H504 0.929 . S
C447 C444 1.356 . S
C447 C449 1.358 . S
C447 H505 0.930 . S
C448 N445 1.314 . S
C448 C446 1.353 . S
C448 H506 0.930 . S
C449 N445 1.279 . S
C449 C447 1.358 . S
C449 H507 0.930 . S
C450 C453 1.348 . S
C450 C454 1.356 . S
C450 O501 1.325 . S
C451 N452 1.279 . S
C451 C454 1.358 . S
C451 H508 0.930 . S
N452 C451 1.279 . S
N452 C455 1.314 . S
C453 C450 1.348 . S
C453 C455 1.353 . S
C453 H509 0.929 . S
C454 C450 1.356 . S
C454 C451 1.358 . S
C454 H510 0.930 . S
C455 N452 1.314 . S
C455 C453 1.353 . S
C455 H511 0.930 . S
C456 N457 1.314 . S
C456 C461 1.353 . S
C456 H462 0.930 . S
N457 Li440 1.990 . S
N457 C456 1.314 . S
N457 C459 1.279 . S
C458 C459 1.358 . S
C458 C460 1.356 . S
C458 H512 0.930 . S
C459 N457 1.279 . S
C459 C458 1.358 . S
C459 H463 0.930 . S
C460 C458 1.356 . S
C460 C461 1.348 . S
C461 C456 1.353 . S
C461 C460 1.348 . S
C461 H513 0.929 . S
H462 C456 0.930 . S
H463 C459 0.930 . S
C464 N465 1.314 . S
C464 C466 1.353 . S
C464 H470 0.930 . S
N465 Li441 1.990 . S
N465 C464 1.314 . S
N465 C468 1.279 . S
C466 C464 1.353 . S
C466 C469 1.348 . S
C466 H514 0.929 . S
C467 C468 1.358 . S
C467 C469 1.356 . S
C467 H515 0.930 . S
C468 N465 1.279 . S
C468 C467 1.358 . S
C468 H471 0.930 . S
C469 C466 1.348 . S
C469 C467 1.356 . S
H470 C464 0.930 . S
H471 C468 0.930 . S
C472 C474 1.348 . S
C472 C475 1.356 . S
C472 O502 1.325 . S
N473 C476 1.314 . S
N473 C477 1.279 . S
C474 C472 1.348 . S
C474 C476 1.353 . S
C474 H516 0.929 . S
C475 C472 1.356 . S
C475 C477 1.358 . S
C475 H517 0.930 . S
C476 N473 1.314 . S
C476 C474 1.353 . S
C476 H518 0.930 . S
C477 N473 1.279 . S
C477 C475 1.358 . S
C477 H519 0.930 . S
C478 C479 1.348 . S
C478 C480 1.356 . S
C478 O503 1.325 . S
C479 C478 1.348 . S
C479 C481 1.353 . S
C479 H520 0.929 . S
C480 C478 1.356 . S
C480 C482 1.358 . S
C480 H521 0.930 . S
C481 C479 1.353 . S
C481 N483 1.314 . S
C481 H522 0.930 . S
C482 C480 1.358 . S
C482 N483 1.279 . S
C482 H523 0.930 . S
N483 C481 1.314 . S
N483 C482 1.279 . S
C484 C486 1.353 . S
C484 N487 1.314 . S
C484 H490 0.930 . S
C485 N487 1.279 . S
C485 C488 1.358 . S
C485 H491 0.930 . S
C486 C484 1.353 . S
C486 C489 1.348 . S
C486 H524 0.929 . S
N487 Li442 1.990 . S
N487 C484 1.314 . S
N487 C485 1.279 . S
C488 C485 1.358 . S
C488 C489 1.356 . S
C488 H525 0.930 . S
C489 C486 1.348 . S
C489 C488 1.356 . S
H490 C484 0.930 . S
H491 C485 0.930 . S
C492 N493 1.314 . S
C492 C494 1.353 . S
C492 H498 0.930 . S
N493 Li443 1.990 . S
N493 C492 1.314 . S
N493 C496 1.279 . S
C494 C492 1.353 . S
C494 C497 1.348 . S
C494 H526 0.929 . S
C495 C496 1.358 . S
C495 C497 1.356 . S
C495 H527 0.930 . S
C496 N493 1.279 . S
C496 C495 1.358 . S
C496 H499 0.930 . S
C497 C494 1.348 . S
C497 C495 1.356 . S
H498 C492 0.930 . S
H499 C496 0.930 . S
O500 Li440 1.956 . S
O500 Li441 1.970 . S
O500 Li442 1.961 . S
O500 C444 1.325 . S
O501 Li440 1.970 . S
O501 Li441 1.956 . S
O501 Li443 1.961 . S
O501 C450 1.325 . S
O502 Li440 1.961 . S
O502 Li442 1.956 . S
O502 Li443 1.970 . S
O502 C472 1.325 . S
O503 Li441 1.961 . S
O503 Li442 1.970 . S
O503 Li443 1.956 . S
O503 C478 1.325 . S
H504 C446 0.929 . S
H505 C447 0.930 . S
H506 C448 0.930 . S
H507 C449 0.930 . S
H508 C451 0.930 . S
H509 C453 0.929 . S
H510 C454 0.930 . S
H511 C455 0.930 . S
H512 C458 0.930 . S
H513 C461 0.929 . S
H514 C466 0.929 . S
H515 C467 0.930 . S
H516 C474 0.929 . S
H517 C475 0.930 . S
H518 C476 0.930 . S
H519 C477 0.930 . S
H520 C479 0.929 . S
H521 C480 0.930 . S
H522 C481 0.930 . S
H523 C482 0.930 . S
H524 C486 0.929 . S
H525 C488 0.930 . S
H526 C494 0.929 . S
H527 C495 0.930 . S
Li528 N545 1.990 . S
Li528 O588 1.956 . S
Li528 O589 1.970 . S
Li528 O590 1.961 . S
Li529 N553 1.990 . S
Li529 O588 1.970 . S
Li529 O589 1.956 . S
Li529 O591 1.961 . S
Li530 N575 1.990 . S
Li530 O588 1.961 . S
Li530 O590 1.956 . S
Li530 O591 1.970 . S
Li531 N581 1.990 . S
Li531 O589 1.961 . S
Li531 O590 1.970 . S
Li531 O591 1.956 . S
C532 C534 1.348 . S
C532 C535 1.356 . S
C532 O588 1.325 . S
N533 C536 1.314 . S
N533 C537 1.279 . S
C534 C532 1.348 . S
C534 C536 1.353 . S
C534 H592 0.929 . S
C535 C532 1.356 . S
C535 C537 1.358 . S
C535 H593 0.930 . S
C536 N533 1.314 . S
C536 C534 1.353 . S
C536 H594 0.930 . S
C537 N533 1.279 . S
C537 C535 1.358 . S
C537 H595 0.930 . S
C538 C541 1.348 . S
C538 C542 1.356 . S
C538 O589 1.325 . S
C539 N540 1.279 . S
C539 C542 1.358 . S
C539 H596 0.930 . S
N540 C539 1.279 . S
N540 C543 1.314 . S
C541 C538 1.348 . S
C541 C543 1.353 . S
C541 H597 0.929 . S
C542 C538 1.356 . S
C542 C539 1.358 . S
C542 H598 0.930 . S
C543 N540 1.314 . S
C543 C541 1.353 . S
C543 H599 0.930 . S
C544 N545 1.314 . S
C544 C549 1.353 . S
C544 H550 0.930 . S
N545 Li528 1.990 . S
N545 C544 1.314 . S
N545 C547 1.279 . S
C546 C547 1.358 . S
C546 C548 1.356 . S
C546 H600 0.930 . S
C547 N545 1.279 . S
C547 C546 1.358 . S
C547 H551 0.930 . S
C548 C546 1.356 . S
C548 C549 1.348 . S
C549 C544 1.353 . S
C549 C548 1.348 . S
C549 H601 0.929 . S
H550 C544 0.930 . S
H551 C547 0.930 . S
C552 N553 1.314 . S
C552 C554 1.353 . S
C552 H558 0.930 . S
N553 Li529 1.990 . S
N553 C552 1.314 . S
N553 C556 1.279 . S
C554 C552 1.353 . S
C554 C557 1.348 . S
C554 H602 0.929 . S
C555 C556 1.358 . S
C555 C557 1.356 . S
C555 H603 0.930 . S
C556 N553 1.279 . S
C556 C555 1.358 . S
C556 H559 0.930 . S
C557 C554 1.348 . S
C557 C555 1.356 . S
H558 C552 0.930 . S
H559 C556 0.930 . S
C560 C562 1.348 . S
C560 C563 1.356 . S
C560 O590 1.325 . S
N561 C564 1.314 . S
N561 C565 1.279 . S
C562 C560 1.348 . S
C562 C564 1.353 . S
C562 H604 0.929 . S
C563 C560 1.356 . S
C563 C565 1.358 . S
C563 H605 0.930 . S
C564 N561 1.314 . S
C564 C562 1.353 . S
C564 H606 0.930 . S
C565 N561 1.279 . S
C565 C563 1.358 . S
C565 H607 0.930 . S
C566 C567 1.348 . S
C566 C568 1.356 . S
C566 O591 1.325 . S
C567 C566 1.348 . S
C567 C569 1.353 . S
C567 H608 0.929 . S
C568 C566 1.356 . S
C568 C570 1.358 . S
C568 H609 0.930 . S
C569 C567 1.353 . S
C569 N571 1.314 . S
C569 H610 0.930 . S
C570 C568 1.358 . S
C570 N571 1.279 . S
C570 H611 0.930 . S
N571 C569 1.314 . S
N571 C570 1.279 . S
C572 C574 1.353 . S
C572 N575 1.314 . S
C572 H578 0.930 . S
C573 N575 1.279 . S
C573 C576 1.358 . S
C573 H579 0.930 . S
C574 C572 1.353 . S
C574 C577 1.348 . S
C574 H612 0.929 . S
N575 Li530 1.990 . S
N575 C572 1.314 . S
N575 C573 1.279 . S
C576 C573 1.358 . S
C576 C577 1.356 . S
C576 H613 0.930 . S
C577 C574 1.348 . S
C577 C576 1.356 . S
H578 C572 0.930 . S
H579 C573 0.930 . S
C580 N581 1.314 . S
C580 C582 1.353 . S
C580 H586 0.930 . S
N581 Li531 1.990 . S
N581 C580 1.314 . S
N581 C584 1.279 . S
C582 C580 1.353 . S
C582 C585 1.348 . S
C582 H614 0.929 . S
C583 C584 1.358 . S
C583 C585 1.356 . S
C583 H615 0.930 . S
C584 N581 1.279 . S
C584 C583 1.358 . S
C584 H587 0.930 . S
C585 C582 1.348 . S
C585 C583 1.356 . S
H586 C580 0.930 . S
H587 C584 0.930 . S
O588 Li528 1.956 . S
O588 Li529 1.970 . S
O588 Li530 1.961 . S
O588 C532 1.325 . S
O589 Li528 1.970 . S
O589 Li529 1.956 . S
O589 Li531 1.961 . S
O589 C538 1.325 . S
O590 Li528 1.961 . S
O590 Li530 1.956 . S
O590 Li531 1.970 . S
O590 C560 1.325 . S
O591 Li529 1.961 . S
O591 Li530 1.970 . S
O591 Li531 1.956 . S
O591 C566 1.325 . S
H592 C534 0.929 . S
H593 C535 0.930 . S
H594 C536 0.930 . S
H595 C537 0.930 . S
H596 C539 0.930 . S
H597 C541 0.929 . S
H598 C542 0.930 . S
H599 C543 0.930 . S
H600 C546 0.930 . S
H601 C549 0.929 . S
H602 C554 0.929 . S
H603 C555 0.930 . S
H604 C562 0.929 . S
H605 C563 0.930 . S
H606 C564 0.930 . S
H607 C565 0.930 . S
H608 C567 0.929 . S
H609 C568 0.930 . S
H610 C569 0.930 . S
H611 C570 0.930 . S
H612 C574 0.929 . S
H613 C576 0.930 . S
H614 C582 0.929 . S
H615 C583 0.930 . S
Li616 N633 1.990 . S
Li616 O676 1.956 . S
Li616 O677 1.970 . S
Li616 O678 1.961 . S
Li617 N641 1.990 . S
Li617 O676 1.970 . S
Li617 O677 1.956 . S
Li617 O679 1.961 . S
Li618 N663 1.990 . S
Li618 O676 1.961 . S
Li618 O678 1.956 . S
Li618 O679 1.970 . S
Li619 N669 1.990 . S
Li619 O677 1.961 . S
Li619 O678 1.970 . S
Li619 O679 1.956 . S
C620 C622 1.348 . S
C620 C623 1.356 . S
C620 O676 1.325 . S
N621 C624 1.314 . S
N621 C625 1.279 . S
C622 C620 1.348 . S
C622 C624 1.353 . S
C622 H680 0.929 . S
C623 C620 1.356 . S
C623 C625 1.358 . S
C623 H681 0.930 . S
C624 N621 1.314 . S
C624 C622 1.353 . S
C624 H682 0.930 . S
C625 N621 1.279 . S
C625 C623 1.358 . S
C625 H683 0.930 . S
C626 C629 1.348 . S
C626 C630 1.356 . S
C626 O677 1.325 . S
C627 N628 1.279 . S
C627 C630 1.358 . S
C627 H684 0.930 . S
N628 C627 1.279 . S
N628 C631 1.314 . S
C629 C626 1.348 . S
C629 C631 1.353 . S
C629 H685 0.929 . S
C630 C626 1.356 . S
C630 C627 1.358 . S
C630 H686 0.930 . S
C631 N628 1.314 . S
C631 C629 1.353 . S
C631 H687 0.930 . S
C632 N633 1.314 . S
C632 C637 1.353 . S
C632 H638 0.930 . S
N633 Li616 1.990 . S
N633 C632 1.314 . S
N633 C635 1.279 . S
C634 C635 1.358 . S
C634 C636 1.356 . S
C634 H688 0.930 . S
C635 N633 1.279 . S
C635 C634 1.358 . S
C635 H639 0.930 . S
C636 C634 1.356 . S
C636 C637 1.348 . S
C637 C632 1.353 . S
C637 C636 1.348 . S
C637 H689 0.929 . S
H638 C632 0.930 . S
H639 C635 0.930 . S
C640 N641 1.314 . S
C640 C642 1.353 . S
C640 H646 0.930 . S
N641 Li617 1.990 . S
N641 C640 1.314 . S
N641 C644 1.279 . S
C642 C640 1.353 . S
C642 C645 1.348 . S
C642 H690 0.929 . S
C643 C644 1.358 . S
C643 C645 1.356 . S
C643 H691 0.930 . S
C644 N641 1.279 . S
C644 C643 1.358 . S
C644 H647 0.930 . S
C645 C642 1.348 . S
C645 C643 1.356 . S
H646 C640 0.930 . S
H647 C644 0.930 . S
C648 C650 1.348 . S
C648 C651 1.356 . S
C648 O678 1.325 . S
N649 C652 1.314 . S
N649 C653 1.279 . S
C650 C648 1.348 . S
C650 C652 1.353 . S
C650 H692 0.929 . S
C651 C648 1.356 . S
C651 C653 1.358 . S
C651 H693 0.930 . S
C652 N649 1.314 . S
C652 C650 1.353 . S
C652 H694 0.930 . S
C653 N649 1.279 . S
C653 C651 1.358 . S
C653 H695 0.930 . S
C654 C655 1.348 . S
C654 C656 1.356 . S
C654 O679 1.325 . S
C655 C654 1.348 . S
C655 C657 1.353 . S
C655 H696 0.929 . S
C656 C654 1.356 . S
C656 C658 1.358 . S
C656 H697 0.930 . S
C657 C655 1.353 . S
C657 N659 1.314 . S
C657 H698 0.930 . S
C658 C656 1.358 . S
C658 N659 1.279 . S
C658 H699 0.930 . S
N659 C657 1.314 . S
N659 C658 1.279 . S
C660 C662 1.353 . S
C660 N663 1.314 . S
C660 H666 0.930 . S
C661 N663 1.279 . S
C661 C664 1.358 . S
C661 H667 0.930 . S
C662 C660 1.353 . S
C662 C665 1.348 . S
C662 H700 0.929 . S
N663 Li618 1.990 . S
N663 C660 1.314 . S
N663 C661 1.279 . S
C664 C661 1.358 . S
C664 C665 1.356 . S
C664 H701 0.930 . S
C665 C662 1.348 . S
C665 C664 1.356 . S
H666 C660 0.930 . S
H667 C661 0.930 . S
C668 N669 1.314 . S
C668 C670 1.353 . S
C668 H674 0.930 . S
N669 Li619 1.990 . S
N669 C668 1.314 . S
N669 C672 1.279 . S
C670 C668 1.353 . S
C670 C673 1.348 . S
C670 H702 0.929 . S
C671 C672 1.358 . S
C671 C673 1.356 . S
C671 H703 0.930 . S
C672 N669 1.279 . S
C672 C671 1.358 . S
C672 H675 0.930 . S
C673 C670 1.348 . S
C673 C671 1.356 . S
H674 C668 0.930 . S
H675 C672 0.930 . S
O676 Li616 1.956 . S
O676 Li617 1.970 . S
O676 Li618 1.961 . S
O676 C620 1.325 . S
O677 Li616 1.970 . S
O677 Li617 1.956 . S
O677 Li619 1.961 . S
O677 C626 1.325 . S
O678 Li616 1.961 . S
O678 Li618 1.956 . S
O678 Li619 1.970 . S
O678 C648 1.325 . S
O679 Li617 1.961 . S
O679 Li618 1.970 . S
O679 Li619 1.956 . S
O679 C654 1.325 . S
H680 C622 0.929 . S
H681 C623 0.930 . S
H682 C624 0.930 . S
H683 C625 0.930 . S
H684 C627 0.930 . S
H685 C629 0.929 . S
H686 C630 0.930 . S
H687 C631 0.930 . S
H688 C634 0.930 . S
H689 C637 0.929 . S
H690 C642 0.929 . S
H691 C643 0.930 . S
H692 C650 0.929 . S
H693 C651 0.930 . S
H694 C652 0.930 . S
H695 C653 0.930 . S
H696 C655 0.929 . S
H697 C656 0.930 . S
H698 C657 0.930 . S
H699 C658 0.930 . S
H700 C662 0.929 . S
H701 C664 0.930 . S
H702 C670 0.929 . S
H703 C671 0.930 . S
Li704 N721 1.990 . S
Li704 O764 1.956 . S
Li704 O765 1.970 . S
Li704 O766 1.961 . S
Li705 N729 1.990 . S
Li705 O764 1.970 . S
Li705 O765 1.956 . S
Li705 O767 1.961 . S
Li706 N751 1.990 . S
Li706 O764 1.961 . S
Li706 O766 1.956 . S
Li706 O767 1.970 . S
Li707 N757 1.990 . S
Li707 O765 1.961 . S
Li707 O766 1.970 . S
Li707 O767 1.956 . S
C708 C710 1.348 . S
C708 C711 1.356 . S
C708 O764 1.325 . S
N709 C712 1.314 . S
N709 C713 1.279 . S
C710 C708 1.348 . S
C710 C712 1.353 . S
C710 H768 0.929 . S
C711 C708 1.356 . S
C711 C713 1.358 . S
C711 H769 0.930 . S
C712 N709 1.314 . S
C712 C710 1.353 . S
C712 H770 0.930 . S
C713 N709 1.279 . S
C713 C711 1.358 . S
C713 H771 0.930 . S
C714 C717 1.348 . S
C714 C718 1.356 . S
C714 O765 1.325 . S
C715 N716 1.279 . S
C715 C718 1.358 . S
C715 H772 0.930 . S
N716 C715 1.279 . S
N716 C719 1.314 . S
C717 C714 1.348 . S
C717 C719 1.353 . S
C717 H773 0.929 . S
C718 C714 1.356 . S
C718 C715 1.358 . S
C718 H774 0.930 . S
C719 N716 1.314 . S
C719 C717 1.353 . S
C719 H775 0.930 . S
C720 N721 1.314 . S
C720 C725 1.353 . S
C720 H726 0.930 . S
N721 Li704 1.990 . S
N721 C720 1.314 . S
N721 C723 1.279 . S
C722 C723 1.358 . S
C722 C724 1.356 . S
C722 H776 0.930 . S
C723 N721 1.279 . S
C723 C722 1.358 . S
C723 H727 0.930 . S
C724 C722 1.356 . S
C724 C725 1.348 . S
C725 C720 1.353 . S
C725 C724 1.348 . S
C725 H777 0.929 . S
H726 C720 0.930 . S
H727 C723 0.930 . S
C728 N729 1.314 . S
C728 C730 1.353 . S
C728 H734 0.930 . S
N729 Li705 1.990 . S
N729 C728 1.314 . S
N729 C732 1.279 . S
C730 C728 1.353 . S
C730 C733 1.348 . S
C730 H778 0.929 . S
C731 C732 1.358 . S
C731 C733 1.356 . S
C731 H779 0.930 . S
C732 N729 1.279 . S
C732 C731 1.358 . S
C732 H735 0.930 . S
C733 C730 1.348 . S
C733 C731 1.356 . S
H734 C728 0.930 . S
H735 C732 0.930 . S
C736 C738 1.348 . S
C736 C739 1.356 . S
C736 O766 1.325 . S
N737 C740 1.314 . S
N737 C741 1.279 . S
C738 C736 1.348 . S
C738 C740 1.353 . S
C738 H780 0.929 . S
C739 C736 1.356 . S
C739 C741 1.358 . S
C739 H781 0.930 . S
C740 N737 1.314 . S
C740 C738 1.353 . S
C740 H782 0.930 . S
C741 N737 1.279 . S
C741 C739 1.358 . S
C741 H783 0.930 . S
C742 C743 1.348 . S
C742 C744 1.356 . S
C742 O767 1.325 . S
C743 C742 1.348 . S
C743 C745 1.353 . S
C743 H784 0.929 . S
C744 C742 1.356 . S
C744 C746 1.358 . S
C744 H785 0.930 . S
C745 C743 1.353 . S
C745 N747 1.314 . S
C745 H786 0.930 . S
C746 C744 1.358 . S
C746 N747 1.279 . S
C746 H787 0.930 . S
N747 C745 1.314 . S
N747 C746 1.279 . S
C748 C750 1.353 . S
C748 N751 1.314 . S
C748 H754 0.930 . S
C749 N751 1.279 . S
C749 C752 1.358 . S
C749 H755 0.930 . S
C750 C748 1.353 . S
C750 C753 1.348 . S
C750 H788 0.929 . S
N751 Li706 1.990 . S
N751 C748 1.314 . S
N751 C749 1.279 . S
C752 C749 1.358 . S
C752 C753 1.356 . S
C752 H789 0.930 . S
C753 C750 1.348 . S
C753 C752 1.356 . S
H754 C748 0.930 . S
H755 C749 0.930 . S
C756 N757 1.314 . S
C756 C758 1.353 . S
C756 H762 0.930 . S
N757 Li707 1.990 . S
N757 C756 1.314 . S
N757 C760 1.279 . S
C758 C756 1.353 . S
C758 C761 1.348 . S
C758 H790 0.929 . S
C759 C760 1.358 . S
C759 C761 1.356 . S
C759 H791 0.930 . S
C760 N757 1.279 . S
C760 C759 1.358 . S
C760 H763 0.930 . S
C761 C758 1.348 . S
C761 C759 1.356 . S
H762 C756 0.930 . S
H763 C760 0.930 . S
O764 Li704 1.956 . S
O764 Li705 1.970 . S
O764 Li706 1.961 . S
O764 C708 1.325 . S
O765 Li704 1.970 . S
O765 Li705 1.956 . S
O765 Li707 1.961 . S
O765 C714 1.325 . S
O766 Li704 1.961 . S
O766 Li706 1.956 . S
O766 Li707 1.970 . S
O766 C736 1.325 . S
O767 Li705 1.961 . S
O767 Li706 1.970 . S
O767 Li707 1.956 . S
O767 C742 1.325 . S
H768 C710 0.929 . S
H769 C711 0.930 . S
H770 C712 0.930 . S
H771 C713 0.930 . S
H772 C715 0.930 . S
H773 C717 0.929 . S
H774 C718 0.930 . S
H775 C719 0.930 . S
H776 C722 0.930 . S
H777 C725 0.929 . S
H778 C730 0.929 . S
H779 C731 0.930 . S
H780 C738 0.929 . S
H781 C739 0.930 . S
H782 C740 0.930 . S
H783 C741 0.930 . S
H784 C743 0.929 . S
H785 C744 0.930 . S
H786 C745 0.930 . S
H787 C746 0.930 . S
H788 C750 0.929 . S
H789 C752 0.930 . S
H790 C758 0.929 . S
H791 C759 0.930 . S
Li792 N809 1.990 . S
Li792 O852 1.956 . S
Li792 O853 1.970 . S
Li792 O854 1.961 . S
Li793 N817 1.990 . S
Li793 O852 1.970 . S
Li793 O853 1.956 . S
Li793 O855 1.961 . S
Li794 N839 1.990 . S
Li794 O852 1.961 . S
Li794 O854 1.956 . S
Li794 O855 1.970 . S
Li795 N845 1.990 . S
Li795 O853 1.961 . S
Li795 O854 1.970 . S
Li795 O855 1.956 . S
C796 C798 1.348 . S
C796 C799 1.356 . S
C796 O852 1.325 . S
N797 C800 1.314 . S
N797 C801 1.279 . S
C798 C796 1.348 . S
C798 C800 1.353 . S
C798 H856 0.929 . S
C799 C796 1.356 . S
C799 C801 1.358 . S
C799 H857 0.930 . S
C800 N797 1.314 . S
C800 C798 1.353 . S
C800 H858 0.930 . S
C801 N797 1.279 . S
C801 C799 1.358 . S
C801 H859 0.930 . S
C802 C805 1.348 . S
C802 C806 1.356 . S
C802 O853 1.325 . S
C803 N804 1.279 . S
C803 C806 1.358 . S
C803 H860 0.930 . S
N804 C803 1.279 . S
N804 C807 1.314 . S
C805 C802 1.348 . S
C805 C807 1.353 . S
C805 H861 0.929 . S
C806 C802 1.356 . S
C806 C803 1.358 . S
C806 H862 0.930 . S
C807 N804 1.314 . S
C807 C805 1.353 . S
C807 H863 0.930 . S
C808 N809 1.314 . S
C808 C813 1.353 . S
C808 H814 0.930 . S
N809 Li792 1.990 . S
N809 C808 1.314 . S
N809 C811 1.279 . S
C810 C811 1.358 . S
C810 C812 1.356 . S
C810 H864 0.930 . S
C811 N809 1.279 . S
C811 C810 1.358 . S
C811 H815 0.930 . S
C812 C810 1.356 . S
C812 C813 1.348 . S
C813 C808 1.353 . S
C813 C812 1.348 . S
C813 H865 0.929 . S
H814 C808 0.930 . S
H815 C811 0.930 . S
C816 N817 1.314 . S
C816 C818 1.353 . S
C816 H822 0.930 . S
N817 Li793 1.990 . S
N817 C816 1.314 . S
N817 C820 1.279 . S
C818 C816 1.353 . S
C818 C821 1.348 . S
C818 H866 0.929 . S
C819 C820 1.358 . S
C819 C821 1.356 . S
C819 H867 0.930 . S
C820 N817 1.279 . S
C820 C819 1.358 . S
C820 H823 0.930 . S
C821 C818 1.348 . S
C821 C819 1.356 . S
H822 C816 0.930 . S
H823 C820 0.930 . S
C824 C826 1.348 . S
C824 C827 1.356 . S
C824 O854 1.325 . S
N825 C828 1.314 . S
N825 C829 1.279 . S
C826 C824 1.348 . S
C826 C828 1.353 . S
C826 H868 0.929 . S
C827 C824 1.356 . S
C827 C829 1.358 . S
C827 H869 0.930 . S
C828 N825 1.314 . S
C828 C826 1.353 . S
C828 H870 0.930 . S
C829 N825 1.279 . S
C829 C827 1.358 . S
C829 H871 0.930 . S
C830 C831 1.348 . S
C830 C832 1.356 . S
C830 O855 1.325 . S
C831 C830 1.348 . S
C831 C833 1.353 . S
C831 H872 0.929 . S
C832 C830 1.356 . S
C832 C834 1.358 . S
C832 H873 0.930 . S
C833 C831 1.353 . S
C833 N835 1.314 . S
C833 H874 0.930 . S
C834 C832 1.358 . S
C834 N835 1.279 . S
C834 H875 0.930 . S
N835 C833 1.314 . S
N835 C834 1.279 . S
C836 C838 1.353 . S
C836 N839 1.314 . S
C836 H842 0.930 . S
C837 N839 1.279 . S
C837 C840 1.358 . S
C837 H843 0.930 . S
C838 C836 1.353 . S
C838 C841 1.348 . S
C838 H876 0.929 . S
N839 Li794 1.990 . S
N839 C836 1.314 . S
N839 C837 1.279 . S
C840 C837 1.358 . S
C840 C841 1.356 . S
C840 H877 0.930 . S
C841 C838 1.348 . S
C841 C840 1.356 . S
H842 C836 0.930 . S
H843 C837 0.930 . S
C844 N845 1.314 . S
C844 C846 1.353 . S
C844 H850 0.930 . S
N845 Li795 1.990 . S
N845 C844 1.314 . S
N845 C848 1.279 . S
C846 C844 1.353 . S
C846 C849 1.348 . S
C846 H878 0.929 . S
C847 C848 1.358 . S
C847 C849 1.356 . S
C847 H879 0.930 . S
C848 N845 1.279 . S
C848 C847 1.358 . S
C848 H851 0.930 . S
C849 C846 1.348 . S
C849 C847 1.356 . S
H850 C844 0.930 . S
H851 C848 0.930 . S
O852 Li792 1.956 . S
O852 Li793 1.970 . S
O852 Li794 1.961 . S
O852 C796 1.325 . S
O853 Li792 1.970 . S
O853 Li793 1.956 . S
O853 Li795 1.961 . S
O853 C802 1.325 . S
O854 Li792 1.961 . S
O854 Li794 1.956 . S
O854 Li795 1.970 . S
O854 C824 1.325 . S
O855 Li793 1.961 . S
O855 Li794 1.970 . S
O855 Li795 1.956 . S
O855 C830 1.325 . S
H856 C798 0.929 . S
H857 C799 0.930 . S
H858 C800 0.930 . S
H859 C801 0.930 . S
H860 C803 0.930 . S
H861 C805 0.929 . S
H862 C806 0.930 . S
H863 C807 0.930 . S
H864 C810 0.930 . S
H865 C813 0.929 . S
H866 C818 0.929 . S
H867 C819 0.930 . S
H868 C826 0.929 . S
H869 C827 0.930 . S
H870 C828 0.930 . S
H871 C829 0.930 . S
H872 C831 0.929 . S
H873 C832 0.930 . S
H874 C833 0.930 . S
H875 C834 0.930 . S
H876 C838 0.929 . S
H877 C840 0.930 . S
H878 C846 0.929 . S
H879 C847 0.930 . S
Li880 N897 1.990 . S
Li880 O940 1.956 . S
Li880 O941 1.970 . S
Li880 O942 1.961 . S
Li881 N905 1.990 . S
Li881 O940 1.970 . S
Li881 O941 1.956 . S
Li881 O943 1.961 . S
Li882 N927 1.990 . S
Li882 O940 1.961 . S
Li882 O942 1.956 . S
Li882 O943 1.970 . S
Li883 N933 1.990 . S
Li883 O941 1.961 . S
Li883 O942 1.970 . S
Li883 O943 1.956 . S
C884 C886 1.348 . S
C884 C887 1.356 . S
C884 O940 1.325 . S
N885 C888 1.314 . S
N885 C889 1.279 . S
C886 C884 1.348 . S
C886 C888 1.353 . S
C886 H944 0.929 . S
C887 C884 1.356 . S
C887 C889 1.358 . S
C887 H945 0.930 . S
C888 N885 1.314 . S
C888 C886 1.353 . S
C888 H946 0.930 . S
C889 N885 1.279 . S
C889 C887 1.358 . S
C889 H947 0.930 . S
C890 C893 1.348 . S
C890 C894 1.356 . S
C890 O941 1.325 . S
C891 N892 1.279 . S
C891 C894 1.358 . S
C891 H948 0.930 . S
N892 C891 1.279 . S
N892 C895 1.314 . S
C893 C890 1.348 . S
C893 C895 1.353 . S
C893 H949 0.929 . S
C894 C890 1.356 . S
C894 C891 1.358 . S
C894 H950 0.930 . S
C895 N892 1.314 . S
C895 C893 1.353 . S
C895 H951 0.930 . S
C896 N897 1.314 . S
C896 C901 1.353 . S
C896 H902 0.930 . S
N897 Li880 1.990 . S
N897 C896 1.314 . S
N897 C899 1.279 . S
C898 C899 1.358 . S
C898 C900 1.356 . S
C898 H952 0.930 . S
C899 N897 1.279 . S
C899 C898 1.358 . S
C899 H903 0.930 . S
C900 C898 1.356 . S
C900 C901 1.348 . S
C901 C896 1.353 . S
C901 C900 1.348 . S
C901 H953 0.929 . S
H902 C896 0.930 . S
H903 C899 0.930 . S
C904 N905 1.314 . S
C904 C906 1.353 . S
C904 H910 0.930 . S
N905 Li881 1.990 . S
N905 C904 1.314 . S
N905 C908 1.279 . S
C906 C904 1.353 . S
C906 C909 1.348 . S
C906 H954 0.929 . S
C907 C908 1.358 . S
C907 C909 1.356 . S
C907 H955 0.930 . S
C908 N905 1.279 . S
C908 C907 1.358 . S
C908 H911 0.930 . S
C909 C906 1.348 . S
C909 C907 1.356 . S
H910 C904 0.930 . S
H911 C908 0.930 . S
C912 C914 1.348 . S
C912 C915 1.356 . S
C912 O942 1.325 . S
N913 C916 1.314 . S
N913 C917 1.279 . S
C914 C912 1.348 . S
C914 C916 1.353 . S
C914 H956 0.929 . S
C915 C912 1.356 . S
C915 C917 1.358 . S
C915 H957 0.930 . S
C916 N913 1.314 . S
C916 C914 1.353 . S
C916 H958 0.930 . S
C917 N913 1.279 . S
C917 C915 1.358 . S
C917 H959 0.930 . S
C918 C919 1.348 . S
C918 C920 1.356 . S
C918 O943 1.325 . S
C919 C918 1.348 . S
C919 C921 1.353 . S
C919 H960 0.929 . S
C920 C918 1.356 . S
C920 C922 1.358 . S
C920 H961 0.930 . S
C921 C919 1.353 . S
C921 N923 1.314 . S
C921 H962 0.930 . S
C922 C920 1.358 . S
C922 N923 1.279 . S
C922 H963 0.930 . S
N923 C921 1.314 . S
N923 C922 1.279 . S
C924 C926 1.353 . S
C924 N927 1.314 . S
C924 H930 0.930 . S
C925 N927 1.279 . S
C925 C928 1.358 . S
C925 H931 0.930 . S
C926 C924 1.353 . S
C926 C929 1.348 . S
C926 H964 0.929 . S
N927 Li882 1.990 . S
N927 C924 1.314 . S
N927 C925 1.279 . S
C928 C925 1.358 . S
C928 C929 1.356 . S
C928 H965 0.930 . S
C929 C926 1.348 . S
C929 C928 1.356 . S
H930 C924 0.930 . S
H931 C925 0.930 . S
C932 N933 1.314 . S
C932 C934 1.353 . S
C932 H938 0.930 . S
N933 Li883 1.990 . S
N933 C932 1.314 . S
N933 C936 1.279 . S
C934 C932 1.353 . S
C934 C937 1.348 . S
C934 H966 0.929 . S
C935 C936 1.358 . S
C935 C937 1.356 . S
C935 H967 0.930 . S
C936 N933 1.279 . S
C936 C935 1.358 . S
C936 H939 0.930 . S
C937 C934 1.348 . S
C937 C935 1.356 . S
H938 C932 0.930 . S
H939 C936 0.930 . S
O940 Li880 1.956 . S
O940 Li881 1.970 . S
O940 Li882 1.961 . S
O940 C884 1.325 . S
O941 Li880 1.970 . S
O941 Li881 1.956 . S
O941 Li883 1.961 . S
O941 C890 1.325 . S
O942 Li880 1.961 . S
O942 Li882 1.956 . S
O942 Li883 1.970 . S
O942 C912 1.325 . S
O943 Li881 1.961 . S
O943 Li882 1.970 . S
O943 Li883 1.956 . S
O943 C918 1.325 . S
H944 C886 0.929 . S
H945 C887 0.930 . S
H946 C888 0.930 . S
H947 C889 0.930 . S
H948 C891 0.930 . S
H949 C893 0.929 . S
H950 C894 0.930 . S
H951 C895 0.930 . S
H952 C898 0.930 . S
H953 C901 0.929 . S
H954 C906 0.929 . S
H955 C907 0.930 . S
H956 C914 0.929 . S
H957 C915 0.930 . S
H958 C916 0.930 . S
H959 C917 0.930 . S
H960 C919 0.929 . S
H961 C920 0.930 . S
H962 C921 0.930 . S
H963 C922 0.930 . S
H964 C926 0.929 . S
H965 C928 0.930 . S
H966 C934 0.929 . S
H967 C935 0.930 . S
Li968 N985 1.990 . S
Li968 O1028 1.956 . S
Li968 O1029 1.970 . S
Li968 O1030 1.961 . S
Li969 N993 1.990 . S
Li969 O1028 1.970 . S
Li969 O1029 1.956 . S
Li969 O1031 1.961 . S
Li970 N1015 1.990 . S
Li970 O1028 1.961 . S
Li970 O1030 1.956 . S
Li970 O1031 1.970 . S
Li971 N1021 1.990 . S
Li971 O1029 1.961 . S
Li971 O1030 1.970 . S
Li971 O1031 1.956 . S
C972 C974 1.348 . S
C972 C975 1.356 . S
C972 O1028 1.325 . S
N973 C976 1.314 . S
N973 C977 1.279 . S
C974 C972 1.348 . S
C974 C976 1.353 . S
C974 H1032 0.929 . S
C975 C972 1.356 . S
C975 C977 1.358 . S
C975 H1033 0.930 . S
C976 N973 1.314 . S
C976 C974 1.353 . S
C976 H1034 0.930 . S
C977 N973 1.279 . S
C977 C975 1.358 . S
C977 H1035 0.930 . S
C978 C981 1.348 . S
C978 C982 1.356 . S
C978 O1029 1.325 . S
C979 N980 1.279 . S
C979 C982 1.358 . S
C979 H1036 0.930 . S
N980 C979 1.279 . S
N980 C983 1.314 . S
C981 C978 1.348 . S
C981 C983 1.353 . S
C981 H1037 0.929 . S
C982 C978 1.356 . S
C982 C979 1.358 . S
C982 H1038 0.930 . S
C983 N980 1.314 . S
C983 C981 1.353 . S
C983 H1039 0.930 . S
C984 N985 1.314 . S
C984 C989 1.353 . S
C984 H990 0.930 . S
N985 Li968 1.990 . S
N985 C984 1.314 . S
N985 C987 1.279 . S
C986 C987 1.358 . S
C986 C988 1.356 . S
C986 H1040 0.930 . S
C987 N985 1.279 . S
C987 C986 1.358 . S
C987 H991 0.930 . S
C988 C986 1.356 . S
C988 C989 1.348 . S
C989 C984 1.353 . S
C989 C988 1.348 . S
C989 H1041 0.929 . S
H990 C984 0.930 . S
H991 C987 0.930 . S
C992 N993 1.314 . S
C992 C994 1.353 . S
C992 H998 0.930 . S
N993 Li969 1.990 . S
N993 C992 1.314 . S
N993 C996 1.279 . S
C994 C992 1.353 . S
C994 C997 1.348 . S
C994 H1042 0.929 . S
C995 C996 1.358 . S
C995 C997 1.356 . S
C995 H1043 0.930 . S
C996 N993 1.279 . S
C996 C995 1.358 . S
C996 H999 0.930 . S
C997 C994 1.348 . S
C997 C995 1.356 . S
H998 C992 0.930 . S
H999 C996 0.930 . S
C1000 C1002 1.348 . S
C1000 C1003 1.356 . S
C1000 O1030 1.325 . S
N1001 C1004 1.314 . S
N1001 C1005 1.279 . S
C1002 C1000 1.348 . S
C1002 C1004 1.353 . S
C1002 H1044 0.929 . S
C1003 C1000 1.356 . S
C1003 C1005 1.358 . S
C1003 H1045 0.930 . S
C1004 N1001 1.314 . S
C1004 C1002 1.353 . S
C1004 H1046 0.930 . S
C1005 N1001 1.279 . S
C1005 C1003 1.358 . S
C1005 H1047 0.930 . S
C1006 C1007 1.348 . S
C1006 C1008 1.356 . S
C1006 O1031 1.325 . S
C1007 C1006 1.348 . S
C1007 C1009 1.353 . S
C1007 H1048 0.929 . S
C1008 C1006 1.356 . S
C1008 C1010 1.358 . S
C1008 H1049 0.930 . S
C1009 C1007 1.353 . S
C1009 N1011 1.314 . S
C1009 H1050 0.930 . S
C1010 C1008 1.358 . S
C1010 N1011 1.279 . S
C1010 H1051 0.930 . S
N1011 C1009 1.314 . S
N1011 C1010 1.279 . S
C1012 C1014 1.353 . S
C1012 N1015 1.314 . S
C1012 H1018 0.930 . S
C1013 N1015 1.279 . S
C1013 C1016 1.358 . S
C1013 H1019 0.930 . S
C1014 C1012 1.353 . S
C1014 C1017 1.348 . S
C1014 H1052 0.929 . S
N1015 Li970 1.990 . S
N1015 C1012 1.314 . S
N1015 C1013 1.279 . S
C1016 C1013 1.358 . S
C1016 C1017 1.356 . S
C1016 H1053 0.930 . S
C1017 C1014 1.348 . S
C1017 C1016 1.356 . S
H1018 C1012 0.930 . S
H1019 C1013 0.930 . S
C1020 N1021 1.314 . S
C1020 C1022 1.353 . S
C1020 H1026 0.930 . S
N1021 Li971 1.990 . S
N1021 C1020 1.314 . S
N1021 C1024 1.279 . S
C1022 C1020 1.353 . S
C1022 C1025 1.348 . S
C1022 H1054 0.929 . S
C1023 C1024 1.358 . S
C1023 C1025 1.356 . S
C1023 H1055 0.930 . S
C1024 N1021 1.279 . S
C1024 C1023 1.358 . S
C1024 H1027 0.930 . S
C1025 C1022 1.348 . S
C1025 C1023 1.356 . S
H1026 C1020 0.930 . S
H1027 C1024 0.930 . S
O1028 Li968 1.956 . S
O1028 Li969 1.970 . S
O1028 Li970 1.961 . S
O1028 C972 1.325 . S
O1029 Li968 1.970 . S
O1029 Li969 1.956 . S
O1029 Li971 1.961 . S
O1029 C978 1.325 . S
O1030 Li968 1.961 . S
O1030 Li970 1.956 . S
O1030 Li971 1.970 . S
O1030 C1000 1.325 . S
O1031 Li969 1.961 . S
O1031 Li970 1.970 . S
O1031 Li971 1.956 . S
O1031 C1006 1.325 . S
H1032 C974 0.929 . S
H1033 C975 0.930 . S
H1034 C976 0.930 . S
H1035 C977 0.930 . S
H1036 C979 0.930 . S
H1037 C981 0.929 . S
H1038 C982 0.930 . S
H1039 C983 0.930 . S
H1040 C986 0.930 . S
H1041 C989 0.929 . S
H1042 C994 0.929 . S
H1043 C995 0.930 . S
H1044 C1002 0.929 . S
H1045 C1003 0.930 . S
H1046 C1004 0.930 . S
H1047 C1005 0.930 . S
H1048 C1007 0.929 . S
H1049 C1008 0.930 . S
H1050 C1009 0.930 . S
H1051 C1010 0.930 . S
H1052 C1014 0.929 . S
H1053 C1016 0.930 . S
H1054 C1022 0.929 . S
H1055 C1023 0.930 . S
Li1056 N1073 1.990 . S
Li1056 O1116 1.956 . S
Li1056 O1117 1.970 . S
Li1056 O1118 1.961 . S
Li1057 N1081 1.990 . S
Li1057 O1116 1.970 . S
Li1057 O1117 1.956 . S
Li1057 O1119 1.961 . S
Li1058 N1103 1.990 . S
Li1058 O1116 1.961 . S
Li1058 O1118 1.956 . S
Li1058 O1119 1.970 . S
Li1059 N1109 1.990 . S
Li1059 O1117 1.961 . S
Li1059 O1118 1.970 . S
Li1059 O1119 1.956 . S
C1060 C1062 1.348 . S
C1060 C1063 1.356 . S
C1060 O1116 1.325 . S
N1061 C1064 1.314 . S
N1061 C1065 1.279 . S
C1062 C1060 1.348 . S
C1062 C1064 1.353 . S
C1062 H1120 0.929 . S
C1063 C1060 1.356 . S
C1063 C1065 1.358 . S
C1063 H1121 0.930 . S
C1064 N1061 1.314 . S
C1064 C1062 1.353 . S
C1064 H1122 0.930 . S
C1065 N1061 1.279 . S
C1065 C1063 1.358 . S
C1065 H1123 0.930 . S
C1066 C1069 1.348 . S
C1066 C1070 1.356 . S
C1066 O1117 1.325 . S
C1067 N1068 1.279 . S
C1067 C1070 1.358 . S
C1067 H1124 0.930 . S
N1068 C1067 1.279 . S
N1068 C1071 1.314 . S
C1069 C1066 1.348 . S
C1069 C1071 1.353 . S
C1069 H1125 0.929 . S
C1070 C1066 1.356 . S
C1070 C1067 1.358 . S
C1070 H1126 0.930 . S
C1071 N1068 1.314 . S
C1071 C1069 1.353 . S
C1071 H1127 0.930 . S
C1072 N1073 1.314 . S
C1072 C1077 1.353 . S
C1072 H1078 0.930 . S
N1073 Li1056 1.990 . S
N1073 C1072 1.314 . S
N1073 C1075 1.279 . S
C1074 C1075 1.358 . S
C1074 C1076 1.356 . S
C1074 H1128 0.930 . S
C1075 N1073 1.279 . S
C1075 C1074 1.358 . S
C1075 H1079 0.930 . S
C1076 C1074 1.356 . S
C1076 C1077 1.348 . S
C1077 C1072 1.353 . S
C1077 C1076 1.348 . S
C1077 H1129 0.929 . S
H1078 C1072 0.930 . S
H1079 C1075 0.930 . S
C1080 N1081 1.314 . S
C1080 C1082 1.353 . S
C1080 H1086 0.930 . S
N1081 Li1057 1.990 . S
N1081 C1080 1.314 . S
N1081 C1084 1.279 . S
C1082 C1080 1.353 . S
C1082 C1085 1.348 . S
C1082 H1130 0.929 . S
C1083 C1084 1.358 . S
C1083 C1085 1.356 . S
C1083 H1131 0.930 . S
C1084 N1081 1.279 . S
C1084 C1083 1.358 . S
C1084 H1087 0.930 . S
C1085 C1082 1.348 . S
C1085 C1083 1.356 . S
H1086 C1080 0.930 . S
H1087 C1084 0.930 . S
C1088 C1090 1.348 . S
C1088 C1091 1.356 . S
C1088 O1118 1.325 . S
N1089 C1092 1.314 . S
N1089 C1093 1.279 . S
C1090 C1088 1.348 . S
C1090 C1092 1.353 . S
C1090 H1132 0.929 . S
C1091 C1088 1.356 . S
C1091 C1093 1.358 . S
C1091 H1133 0.930 . S
C1092 N1089 1.314 . S
C1092 C1090 1.353 . S
C1092 H1134 0.930 . S
C1093 N1089 1.279 . S
C1093 C1091 1.358 . S
C1093 H1135 0.930 . S
C1094 C1095 1.348 . S
C1094 C1096 1.356 . S
C1094 O1119 1.325 . S
C1095 C1094 1.348 . S
C1095 C1097 1.353 . S
C1095 H1136 0.929 . S
C1096 C1094 1.356 . S
C1096 C1098 1.358 . S
C1096 H1137 0.930 . S
C1097 C1095 1.353 . S
C1097 N1099 1.314 . S
C1097 H1138 0.930 . S
C1098 C1096 1.358 . S
C1098 N1099 1.279 . S
C1098 H1139 0.930 . S
N1099 C1097 1.314 . S
N1099 C1098 1.279 . S
C1100 C1102 1.353 . S
C1100 N1103 1.314 . S
C1100 H1106 0.930 . S
C1101 N1103 1.279 . S
C1101 C1104 1.358 . S
C1101 H1107 0.930 . S
C1102 C1100 1.353 . S
C1102 C1105 1.348 . S
C1102 H1140 0.929 . S
N1103 Li1058 1.990 . S
N1103 C1100 1.314 . S
N1103 C1101 1.279 . S
C1104 C1101 1.358 . S
C1104 C1105 1.356 . S
C1104 H1141 0.930 . S
C1105 C1102 1.348 . S
C1105 C1104 1.356 . S
H1106 C1100 0.930 . S
H1107 C1101 0.930 . S
C1108 N1109 1.314 . S
C1108 C1110 1.353 . S
C1108 H1114 0.930 . S
N1109 Li1059 1.990 . S
N1109 C1108 1.314 . S
N1109 C1112 1.279 . S
C1110 C1108 1.353 . S
C1110 C1113 1.348 . S
C1110 H1142 0.929 . S
C1111 C1112 1.358 . S
C1111 C1113 1.356 . S
C1111 H1143 0.930 . S
C1112 N1109 1.279 . S
C1112 C1111 1.358 . S
C1112 H1115 0.930 . S
C1113 C1110 1.348 . S
C1113 C1111 1.356 . S
H1114 C1108 0.930 . S
H1115 C1112 0.930 . S
O1116 Li1056 1.956 . S
O1116 Li1057 1.970 . S
O1116 Li1058 1.961 . S
O1116 C1060 1.325 . S
O1117 Li1056 1.970 . S
O1117 Li1057 1.956 . S
O1117 Li1059 1.961 . S
O1117 C1066 1.325 . S
O1118 Li1056 1.961 . S
O1118 Li1058 1.956 . S
O1118 Li1059 1.970 . S
O1118 C1088 1.325 . S
O1119 Li1057 1.961 . S
O1119 Li1058 1.970 . S
O1119 Li1059 1.956 . S
O1119 C1094 1.325 . S
H1120 C1062 0.929 . S
H1121 C1063 0.930 . S
H1122 C1064 0.930 . S
H1123 C1065 0.930 . S
H1124 C1067 0.930 . S
H1125 C1069 0.929 . S
H1126 C1070 0.930 . S
H1127 C1071 0.930 . S
H1128 C1074 0.930 . S
H1129 C1077 0.929 . S
H1130 C1082 0.929 . S
H1131 C1083 0.930 . S
H1132 C1090 0.929 . S
H1133 C1091 0.930 . S
H1134 C1092 0.930 . S
H1135 C1093 0.930 . S
H1136 C1095 0.929 . S
H1137 C1096 0.930 . S
H1138 C1097 0.930 . S
H1139 C1098 0.930 . S
H1140 C1102 0.929 . S
H1141 C1104 0.930 . S
H1142 C1110 0.929 . S
H1143 C1111 0.930 . S
Li1144 N1161 1.990 . S
Li1144 O1204 1.956 . S
Li1144 O1205 1.970 . S
Li1144 O1206 1.961 . S
Li1145 N1169 1.990 . S
Li1145 O1204 1.970 . S
Li1145 O1205 1.956 . S
Li1145 O1207 1.961 . S
Li1146 N1191 1.990 . S
Li1146 O1204 1.961 . S
Li1146 O1206 1.956 . S
Li1146 O1207 1.970 . S
Li1147 N1197 1.990 . S
Li1147 O1205 1.961 . S
Li1147 O1206 1.970 . S
Li1147 O1207 1.956 . S
C1148 C1150 1.348 . S
C1148 C1151 1.356 . S
C1148 O1204 1.325 . S
N1149 C1152 1.314 . S
N1149 C1153 1.279 . S
C1150 C1148 1.348 . S
C1150 C1152 1.353 . S
C1150 H1208 0.929 . S
C1151 C1148 1.356 . S
C1151 C1153 1.358 . S
C1151 H1209 0.930 . S
C1152 N1149 1.314 . S
C1152 C1150 1.353 . S
C1152 H1210 0.930 . S
C1153 N1149 1.279 . S
C1153 C1151 1.358 . S
C1153 H1211 0.930 . S
C1154 C1157 1.348 . S
C1154 C1158 1.356 . S
C1154 O1205 1.325 . S
C1155 N1156 1.279 . S
C1155 C1158 1.358 . S
C1155 H1212 0.930 . S
N1156 C1155 1.279 . S
N1156 C1159 1.314 . S
C1157 C1154 1.348 . S
C1157 C1159 1.353 . S
C1157 H1213 0.929 . S
C1158 C1154 1.356 . S
C1158 C1155 1.358 . S
C1158 H1214 0.930 . S
C1159 N1156 1.314 . S
C1159 C1157 1.353 . S
C1159 H1215 0.930 . S
C1160 N1161 1.314 . S
C1160 C1165 1.353 . S
C1160 H1166 0.930 . S
N1161 Li1144 1.990 . S
N1161 C1160 1.314 . S
N1161 C1163 1.279 . S
C1162 C1163 1.358 . S
C1162 C1164 1.356 . S
C1162 H1216 0.930 . S
C1163 N1161 1.279 . S
C1163 C1162 1.358 . S
C1163 H1167 0.930 . S
C1164 C1162 1.356 . S
C1164 C1165 1.348 . S
C1165 C1160 1.353 . S
C1165 C1164 1.348 . S
C1165 H1217 0.929 . S
H1166 C1160 0.930 . S
H1167 C1163 0.930 . S
C1168 N1169 1.314 . S
C1168 C1170 1.353 . S
C1168 H1174 0.930 . S
N1169 Li1145 1.990 . S
N1169 C1168 1.314 . S
N1169 C1172 1.279 . S
C1170 C1168 1.353 . S
C1170 C1173 1.348 . S
C1170 H1218 0.929 . S
C1171 C1172 1.358 . S
C1171 C1173 1.356 . S
C1171 H1219 0.930 . S
C1172 N1169 1.279 . S
C1172 C1171 1.358 . S
C1172 H1175 0.930 . S
C1173 C1170 1.348 . S
C1173 C1171 1.356 . S
H1174 C1168 0.930 . S
H1175 C1172 0.930 . S
C1176 C1178 1.348 . S
C1176 C1179 1.356 . S
C1176 O1206 1.325 . S
N1177 C1180 1.314 . S
N1177 C1181 1.279 . S
C1178 C1176 1.348 . S
C1178 C1180 1.353 . S
C1178 H1220 0.929 . S
C1179 C1176 1.356 . S
C1179 C1181 1.358 . S
C1179 H1221 0.930 . S
C1180 N1177 1.314 . S
C1180 C1178 1.353 . S
C1180 H1222 0.930 . S
C1181 N1177 1.279 . S
C1181 C1179 1.358 . S
C1181 H1223 0.930 . S
C1182 C1183 1.348 . S
C1182 C1184 1.356 . S
C1182 O1207 1.325 . S
C1183 C1182 1.348 . S
C1183 C1185 1.353 . S
C1183 H1224 0.929 . S
C1184 C1182 1.356 . S
C1184 C1186 1.358 . S
C1184 H1225 0.930 . S
C1185 C1183 1.353 . S
C1185 N1187 1.314 . S
C1185 H1226 0.930 . S
C1186 C1184 1.358 . S
C1186 N1187 1.279 . S
C1186 H1227 0.930 . S
N1187 C1185 1.314 . S
N1187 C1186 1.279 . S
C1188 C1190 1.353 . S
C1188 N1191 1.314 . S
C1188 H1194 0.930 . S
C1189 N1191 1.279 . S
C1189 C1192 1.358 . S
C1189 H1195 0.930 . S
C1190 C1188 1.353 . S
C1190 C1193 1.348 . S
C1190 H1228 0.929 . S
N1191 Li1146 1.990 . S
N1191 C1188 1.314 . S
N1191 C1189 1.279 . S
C1192 C1189 1.358 . S
C1192 C1193 1.356 . S
C1192 H1229 0.930 . S
C1193 C1190 1.348 . S
C1193 C1192 1.356 . S
H1194 C1188 0.930 . S
H1195 C1189 0.930 . S
C1196 N1197 1.314 . S
C1196 C1198 1.353 . S
C1196 H1202 0.930 . S
N1197 Li1147 1.990 . S
N1197 C1196 1.314 . S
N1197 C1200 1.279 . S
C1198 C1196 1.353 . S
C1198 C1201 1.348 . S
C1198 H1230 0.929 . S
C1199 C1200 1.358 . S
C1199 C1201 1.356 . S
C1199 H1231 0.930 . S
C1200 N1197 1.279 . S
C1200 C1199 1.358 . S
C1200 H1203 0.930 . S
C1201 C1198 1.348 . S
C1201 C1199 1.356 . S
H1202 C1196 0.930 . S
H1203 C1200 0.930 . S
O1204 Li1144 1.956 . S
O1204 Li1145 1.970 . S
O1204 Li1146 1.961 . S
O1204 C1148 1.325 . S
O1205 Li1144 1.970 . S
O1205 Li1145 1.956 . S
O1205 Li1147 1.961 . S
O1205 C1154 1.325 . S
O1206 Li1144 1.961 . S
O1206 Li1146 1.956 . S
O1206 Li1147 1.970 . S
O1206 C1176 1.325 . S
O1207 Li1145 1.961 . S
O1207 Li1146 1.970 . S
O1207 Li1147 1.956 . S
O1207 C1182 1.325 . S
H1208 C1150 0.929 . S
H1209 C1151 0.930 . S
H1210 C1152 0.930 . S
H1211 C1153 0.930 . S
H1212 C1155 0.930 . S
H1213 C1157 0.929 . S
H1214 C1158 0.930 . S
H1215 C1159 0.930 . S
H1216 C1162 0.930 . S
H1217 C1165 0.929 . S
H1218 C1170 0.929 . S
H1219 C1171 0.930 . S
H1220 C1178 0.929 . S
H1221 C1179 0.930 . S
H1222 C1180 0.930 . S
H1223 C1181 0.930 . S
H1224 C1183 0.929 . S
H1225 C1184 0.930 . S
H1226 C1185 0.930 . S
H1227 C1186 0.930 . S
H1228 C1190 0.929 . S
H1229 C1192 0.930 . S
H1230 C1198 0.929 . S
H1231 C1199 0.930 . S
Li1232 N1249 1.990 . S
Li1232 O1292 1.956 . S
Li1232 O1293 1.970 . S
Li1232 O1294 1.961 . S
Li1233 N1257 1.990 . S
Li1233 O1292 1.970 . S
Li1233 O1293 1.956 . S
Li1233 O1295 1.961 . S
Li1234 N1279 1.990 . S
Li1234 O1292 1.961 . S
Li1234 O1294 1.956 . S
Li1234 O1295 1.970 . S
Li1235 N1285 1.990 . S
Li1235 O1293 1.961 . S
Li1235 O1294 1.970 . S
Li1235 O1295 1.956 . S
C1236 C1238 1.348 . S
C1236 C1239 1.356 . S
C1236 O1292 1.325 . S
N1237 C1240 1.314 . S
N1237 C1241 1.279 . S
C1238 C1236 1.348 . S
C1238 C1240 1.353 . S
C1238 H1296 0.929 . S
C1239 C1236 1.356 . S
C1239 C1241 1.358 . S
C1239 H1297 0.930 . S
C1240 N1237 1.314 . S
C1240 C1238 1.353 . S
C1240 H1298 0.930 . S
C1241 N1237 1.279 . S
C1241 C1239 1.358 . S
C1241 H1299 0.930 . S
C1242 C1245 1.348 . S
C1242 C1246 1.356 . S
C1242 O1293 1.325 . S
C1243 N1244 1.279 . S
C1243 C1246 1.358 . S
C1243 H1300 0.930 . S
N1244 C1243 1.279 . S
N1244 C1247 1.314 . S
C1245 C1242 1.348 . S
C1245 C1247 1.353 . S
C1245 H1301 0.929 . S
C1246 C1242 1.356 . S
C1246 C1243 1.358 . S
C1246 H1302 0.930 . S
C1247 N1244 1.314 . S
C1247 C1245 1.353 . S
C1247 H1303 0.930 . S
C1248 N1249 1.314 . S
C1248 C1253 1.353 . S
C1248 H1254 0.930 . S
N1249 Li1232 1.990 . S
N1249 C1248 1.314 . S
N1249 C1251 1.279 . S
C1250 C1251 1.358 . S
C1250 C1252 1.356 . S
C1250 H1304 0.930 . S
C1251 N1249 1.279 . S
C1251 C1250 1.358 . S
C1251 H1255 0.930 . S
C1252 C1250 1.356 . S
C1252 C1253 1.348 . S
C1253 C1248 1.353 . S
C1253 C1252 1.348 . S
C1253 H1305 0.929 . S
H1254 C1248 0.930 . S
H1255 C1251 0.930 . S
C1256 N1257 1.314 . S
C1256 C1258 1.353 . S
C1256 H1262 0.930 . S
N1257 Li1233 1.990 . S
N1257 C1256 1.314 . S
N1257 C1260 1.279 . S
C1258 C1256 1.353 . S
C1258 C1261 1.348 . S
C1258 H1306 0.929 . S
C1259 C1260 1.358 . S
C1259 C1261 1.356 . S
C1259 H1307 0.930 . S
C1260 N1257 1.279 . S
C1260 C1259 1.358 . S
C1260 H1263 0.930 . S
C1261 C1258 1.348 . S
C1261 C1259 1.356 . S
H1262 C1256 0.930 . S
H1263 C1260 0.930 . S
C1264 C1266 1.348 . S
C1264 C1267 1.356 . S
C1264 O1294 1.325 . S
N1265 C1268 1.314 . S
N1265 C1269 1.279 . S
C1266 C1264 1.348 . S
C1266 C1268 1.353 . S
C1266 H1308 0.929 . S
C1267 C1264 1.356 . S
C1267 C1269 1.358 . S
C1267 H1309 0.930 . S
C1268 N1265 1.314 . S
C1268 C1266 1.353 . S
C1268 H1310 0.930 . S
C1269 N1265 1.279 . S
C1269 C1267 1.358 . S
C1269 H1311 0.930 . S
C1270 C1271 1.348 . S
C1270 C1272 1.356 . S
C1270 O1295 1.325 . S
C1271 C1270 1.348 . S
C1271 C1273 1.353 . S
C1271 H1312 0.929 . S
C1272 C1270 1.356 . S
C1272 C1274 1.358 . S
C1272 H1313 0.930 . S
C1273 C1271 1.353 . S
C1273 N1275 1.314 . S
C1273 H1314 0.930 . S
C1274 C1272 1.358 . S
C1274 N1275 1.279 . S
C1274 H1315 0.930 . S
N1275 C1273 1.314 . S
N1275 C1274 1.279 . S
C1276 C1278 1.353 . S
C1276 N1279 1.314 . S
C1276 H1282 0.930 . S
C1277 N1279 1.279 . S
C1277 C1280 1.358 . S
C1277 H1283 0.930 . S
C1278 C1276 1.353 . S
C1278 C1281 1.348 . S
C1278 H1316 0.929 . S
N1279 Li1234 1.990 . S
N1279 C1276 1.314 . S
N1279 C1277 1.279 . S
C1280 C1277 1.358 . S
C1280 C1281 1.356 . S
C1280 H1317 0.930 . S
C1281 C1278 1.348 . S
C1281 C1280 1.356 . S
H1282 C1276 0.930 . S
H1283 C1277 0.930 . S
C1284 N1285 1.314 . S
C1284 C1286 1.353 . S
C1284 H1290 0.930 . S
N1285 Li1235 1.990 . S
N1285 C1284 1.314 . S
N1285 C1288 1.279 . S
C1286 C1284 1.353 . S
C1286 C1289 1.348 . S
C1286 H1318 0.929 . S
C1287 C1288 1.358 . S
C1287 C1289 1.356 . S
C1287 H1319 0.930 . S
C1288 N1285 1.279 . S
C1288 C1287 1.358 . S
C1288 H1291 0.930 . S
C1289 C1286 1.348 . S
C1289 C1287 1.356 . S
H1290 C1284 0.930 . S
H1291 C1288 0.930 . S
O1292 Li1232 1.956 . S
O1292 Li1233 1.970 . S
O1292 Li1234 1.961 . S
O1292 C1236 1.325 . S
O1293 Li1232 1.970 . S
O1293 Li1233 1.956 . S
O1293 Li1235 1.961 . S
O1293 C1242 1.325 . S
O1294 Li1232 1.961 . S
O1294 Li1234 1.956 . S
O1294 Li1235 1.970 . S
O1294 C1264 1.325 . S
O1295 Li1233 1.961 . S
O1295 Li1234 1.970 . S
O1295 Li1235 1.956 . S
O1295 C1270 1.325 . S
H1296 C1238 0.929 . S
H1297 C1239 0.930 . S
H1298 C1240 0.930 . S
H1299 C1241 0.930 . S
H1300 C1243 0.930 . S
H1301 C1245 0.929 . S
H1302 C1246 0.930 . S
H1303 C1247 0.930 . S
H1304 C1250 0.930 . S
H1305 C1253 0.929 . S
H1306 C1258 0.929 . S
H1307 C1259 0.930 . S
H1308 C1266 0.929 . S
H1309 C1267 0.930 . S
H1310 C1268 0.930 . S
H1311 C1269 0.930 . S
H1312 C1271 0.929 . S
H1313 C1272 0.930 . S
H1314 C1273 0.930 . S
H1315 C1274 0.930 . S
H1316 C1278 0.929 . S
H1317 C1280 0.930 . S
H1318 C1286 0.929 . S
H1319 C1287 0.930 . S
Li1320 N1337 1.990 . S
Li1320 O1380 1.956 . S
Li1320 O1381 1.970 . S
Li1320 O1382 1.961 . S
Li1321 N1345 1.990 . S
Li1321 O1380 1.970 . S
Li1321 O1381 1.956 . S
Li1321 O1383 1.961 . S
Li1322 N1367 1.990 . S
Li1322 O1380 1.961 . S
Li1322 O1382 1.956 . S
Li1322 O1383 1.970 . S
Li1323 N1373 1.990 . S
Li1323 O1381 1.961 . S
Li1323 O1382 1.970 . S
Li1323 O1383 1.956 . S
C1324 C1326 1.348 . S
C1324 C1327 1.356 . S
C1324 O1380 1.325 . S
N1325 C1328 1.314 . S
N1325 C1329 1.279 . S
C1326 C1324 1.348 . S
C1326 C1328 1.353 . S
C1326 H1384 0.929 . S
C1327 C1324 1.356 . S
C1327 C1329 1.358 . S
C1327 H1385 0.930 . S
C1328 N1325 1.314 . S
C1328 C1326 1.353 . S
C1328 H1386 0.930 . S
C1329 N1325 1.279 . S
C1329 C1327 1.358 . S
C1329 H1387 0.930 . S
C1330 C1333 1.348 . S
C1330 C1334 1.356 . S
C1330 O1381 1.325 . S
C1331 N1332 1.279 . S
C1331 C1334 1.358 . S
C1331 H1388 0.930 . S
N1332 C1331 1.279 . S
N1332 C1335 1.314 . S
C1333 C1330 1.348 . S
C1333 C1335 1.353 . S
C1333 H1389 0.929 . S
C1334 C1330 1.356 . S
C1334 C1331 1.358 . S
C1334 H1390 0.930 . S
C1335 N1332 1.314 . S
C1335 C1333 1.353 . S
C1335 H1391 0.930 . S
C1336 N1337 1.314 . S
C1336 C1341 1.353 . S
C1336 H1342 0.930 . S
N1337 Li1320 1.990 . S
N1337 C1336 1.314 . S
N1337 C1339 1.279 . S
C1338 C1339 1.358 . S
C1338 C1340 1.356 . S
C1338 H1392 0.930 . S
C1339 N1337 1.279 . S
C1339 C1338 1.358 . S
C1339 H1343 0.930 . S
C1340 C1338 1.356 . S
C1340 C1341 1.348 . S
C1341 C1336 1.353 . S
C1341 C1340 1.348 . S
C1341 H1393 0.929 . S
H1342 C1336 0.930 . S
H1343 C1339 0.930 . S
C1344 N1345 1.314 . S
C1344 C1346 1.353 . S
C1344 H1350 0.930 . S
N1345 Li1321 1.990 . S
N1345 C1344 1.314 . S
N1345 C1348 1.279 . S
C1346 C1344 1.353 . S
C1346 C1349 1.348 . S
C1346 H1394 0.929 . S
C1347 C1348 1.358 . S
C1347 C1349 1.356 . S
C1347 H1395 0.930 . S
C1348 N1345 1.279 . S
C1348 C1347 1.358 . S
C1348 H1351 0.930 . S
C1349 C1346 1.348 . S
C1349 C1347 1.356 . S
H1350 C1344 0.930 . S
H1351 C1348 0.930 . S
C1352 C1354 1.348 . S
C1352 C1355 1.356 . S
C1352 O1382 1.325 . S
N1353 C1356 1.314 . S
N1353 C1357 1.279 . S
C1354 C1352 1.348 . S
C1354 C1356 1.353 . S
C1354 H1396 0.929 . S
C1355 C1352 1.356 . S
C1355 C1357 1.358 . S
C1355 H1397 0.930 . S
C1356 N1353 1.314 . S
C1356 C1354 1.353 . S
C1356 H1398 0.930 . S
C1357 N1353 1.279 . S
C1357 C1355 1.358 . S
C1357 H1399 0.930 . S
C1358 C1359 1.348 . S
C1358 C1360 1.356 . S
C1358 O1383 1.325 . S
C1359 C1358 1.348 . S
C1359 C1361 1.353 . S
C1359 H1400 0.929 . S
C1360 C1358 1.356 . S
C1360 C1362 1.358 . S
C1360 H1401 0.930 . S
C1361 C1359 1.353 . S
C1361 N1363 1.314 . S
C1361 H1402 0.930 . S
C1362 C1360 1.358 . S
C1362 N1363 1.279 . S
C1362 H1403 0.930 . S
N1363 C1361 1.314 . S
N1363 C1362 1.279 . S
C1364 C1366 1.353 . S
C1364 N1367 1.314 . S
C1364 H1370 0.930 . S
C1365 N1367 1.279 . S
C1365 C1368 1.358 . S
C1365 H1371 0.930 . S
C1366 C1364 1.353 . S
C1366 C1369 1.348 . S
C1366 H1404 0.929 . S
N1367 Li1322 1.990 . S
N1367 C1364 1.314 . S
N1367 C1365 1.279 . S
C1368 C1365 1.358 . S
C1368 C1369 1.356 . S
C1368 H1405 0.930 . S
C1369 C1366 1.348 . S
C1369 C1368 1.356 . S
H1370 C1364 0.930 . S
H1371 C1365 0.930 . S
C1372 N1373 1.314 . S
C1372 C1374 1.353 . S
C1372 H1378 0.930 . S
N1373 Li1323 1.990 . S
N1373 C1372 1.314 . S
N1373 C1376 1.279 . S
C1374 C1372 1.353 . S
C1374 C1377 1.348 . S
C1374 H1406 0.929 . S
C1375 C1376 1.358 . S
C1375 C1377 1.356 . S
C1375 H1407 0.930 . S
C1376 N1373 1.279 . S
C1376 C1375 1.358 . S
C1376 H1379 0.930 . S
C1377 C1374 1.348 . S
C1377 C1375 1.356 . S
H1378 C1372 0.930 . S
H1379 C1376 0.930 . S
O1380 Li1320 1.956 . S
O1380 Li1321 1.970 . S
O1380 Li1322 1.961 . S
O1380 C1324 1.325 . S
O1381 Li1320 1.970 . S
O1381 Li1321 1.956 . S
O1381 Li1323 1.961 . S
O1381 C1330 1.325 . S
O1382 Li1320 1.961 . S
O1382 Li1322 1.956 . S
O1382 Li1323 1.970 . S
O1382 C1352 1.325 . S
O1383 Li1321 1.961 . S
O1383 Li1322 1.970 . S
O1383 Li1323 1.956 . S
O1383 C1358 1.325 . S
H1384 C1326 0.929 . S
H1385 C1327 0.930 . S
H1386 C1328 0.930 . S
H1387 C1329 0.930 . S
H1388 C1331 0.930 . S
H1389 C1333 0.929 . S
H1390 C1334 0.930 . S
H1391 C1335 0.930 . S
H1392 C1338 0.930 . S
H1393 C1341 0.929 . S
H1394 C1346 0.929 . S
H1395 C1347 0.930 . S
H1396 C1354 0.929 . S
H1397 C1355 0.930 . S
H1398 C1356 0.930 . S
H1399 C1357 0.930 . S
H1400 C1359 0.929 . S
H1401 C1360 0.930 . S
H1402 C1361 0.930 . S
H1403 C1362 0.930 . S
H1404 C1366 0.929 . S
H1405 C1368 0.930 . S
H1406 C1374 0.929 . S
H1407 C1375 0.930 . S
H1408 C1414 0.930 . S
H1409 C1418 0.930 . S
H1410 C1423 0.929 . S
H1411 C1421 0.929 . S
H1412 C1416 0.929 . S
H1413 C1422 0.929 . S
C1414 H1408 0.930 . S
C1414 C1415 1.367 . S
C1414 C1422 1.378 . S
C1415 C1414 1.367 . S
C1415 C1423 1.433 . S
C1416 H1412 0.929 . S
C1416 C1418 1.378 . S
C1416 C1420 1.350 . S
C1417 C1420 1.463 . S
C1417 C1422 1.350 . S
C1417 N1425 1.427 . S
C1418 H1409 0.930 . S
C1418 C1416 1.378 . S
C1418 C1419 1.367 . S
C1419 C1418 1.367 . S
C1419 C1421 1.433 . S
C1420 C1416 1.350 . S
C1420 C1417 1.463 . S
C1420 N1424 1.427 . S
C1421 H1411 0.929 . S
C1421 C1419 1.433 . S
C1421 N1424 1.384 . S
C1422 H1413 0.929 . S
C1422 C1414 1.378 . S
C1422 C1417 1.350 . S
C1423 H1410 0.929 . S
C1423 C1415 1.433 . S
C1423 N1425 1.384 . S
N1424 C1420 1.427 . S
N1424 C1421 1.384 . S
N1425 C1417 1.427 . S
N1425 C1423 1.384 . S
H1426 C1432 0.930 . S
H1427 C1436 0.930 . S
H1428 C1441 0.929 . S
H1429 C1439 0.929 . S
H1430 C1434 0.929 . S
H1431 C1440 0.929 . S
C1432 H1426 0.930 . S
C1432 C1433 1.367 . S
C1432 C1440 1.378 . S
C1433 C1432 1.367 . S
C1433 C1441 1.433 . S
C1434 H1430 0.929 . S
C1434 C1436 1.378 . S
C1434 C1438 1.350 . S
C1435 C1438 1.463 . S
C1435 C1440 1.350 . S
C1435 N1443 1.427 . S
C1436 H1427 0.930 . S
C1436 C1434 1.378 . S
C1436 C1437 1.367 . S
C1437 C1436 1.367 . S
C1437 C1439 1.433 . S
C1438 C1434 1.350 . S
C1438 C1435 1.463 . S
C1438 N1442 1.427 . S
C1439 H1429 0.929 . S
C1439 C1437 1.433 . S
C1439 N1442 1.384 . S
C1440 H1431 0.929 . S
C1440 C1432 1.378 . S
C1440 C1435 1.350 . S
C1441 H1428 0.929 . S
C1441 C1433 1.433 . S
C1441 N1443 1.384 . S
N1442 C1438 1.427 . S
N1442 C1439 1.384 . S
N1443 C1435 1.427 . S
N1443 C1441 1.384 . S
H1444 C1450 0.930 . S
H1445 C1454 0.930 . S
H1446 C1459 0.929 . S
H1447 C1457 0.929 . S
H1448 C1452 0.929 . S
H1449 C1458 0.929 . S
C1450 H1444 0.930 . S
C1450 C1451 1.367 . S
C1450 C1458 1.378 . S
C1451 C1450 1.367 . S
C1451 C1459 1.433 . S
C1452 H1448 0.929 . S
C1452 C1454 1.378 . S
C1452 C1456 1.350 . S
C1453 C1456 1.463 . S
C1453 C1458 1.350 . S
C1453 N1461 1.427 . S
C1454 H1445 0.930 . S
C1454 C1452 1.378 . S
C1454 C1455 1.367 . S
C1455 C1454 1.367 . S
C1455 C1457 1.433 . S
C1456 C1452 1.350 . S
C1456 C1453 1.463 . S
C1456 N1460 1.427 . S
C1457 H1447 0.929 . S
C1457 C1455 1.433 . S
C1457 N1460 1.384 . S
C1458 H1449 0.929 . S
C1458 C1450 1.378 . S
C1458 C1453 1.350 . S
C1459 H1446 0.929 . S
C1459 C1451 1.433 . S
C1459 N1461 1.384 . S
N1460 C1456 1.427 . S
N1460 C1457 1.384 . S
N1461 C1453 1.427 . S
N1461 C1459 1.384 . S
H1462 C1468 0.930 . S
H1463 C1472 0.930 . S
H1464 C1477 0.929 . S
H1465 C1475 0.929 . S
H1466 C1470 0.929 . S
H1467 C1476 0.929 . S
C1468 H1462 0.930 . S
C1468 C1469 1.367 . S
C1468 C1476 1.378 . S
C1469 C1468 1.367 . S
C1469 C1477 1.433 . S
C1470 H1466 0.929 . S
C1470 C1472 1.378 . S
C1470 C1474 1.350 . S
C1471 C1474 1.463 . S
C1471 C1476 1.350 . S
C1471 N1479 1.427 . S
C1472 H1463 0.930 . S
C1472 C1470 1.378 . S
C1472 C1473 1.367 . S
C1473 C1472 1.367 . S
C1473 C1475 1.433 . S
C1474 C1470 1.350 . S
C1474 C1471 1.463 . S
C1474 N1478 1.427 . S
C1475 H1465 0.929 . S
C1475 C1473 1.433 . S
C1475 N1478 1.384 . S
C1476 H1467 0.929 . S
C1476 C1468 1.378 . S
C1476 C1471 1.350 . S
C1477 H1464 0.929 . S
C1477 C1469 1.433 . S
C1477 N1479 1.384 . S
N1478 C1474 1.427 . S
N1478 C1475 1.384 . S
N1479 C1471 1.427 . S
N1479 C1477 1.384 . S
H1480 C1486 0.930 . S
H1481 C1490 0.930 . S
H1482 C1495 0.929 . S
H1483 C1493 0.929 . S
H1484 C1488 0.929 . S
H1485 C1494 0.929 . S
C1486 H1480 0.930 . S
C1486 C1487 1.367 . S
C1486 C1494 1.378 . S
C1487 C1486 1.367 . S
C1487 C1495 1.433 . S
C1488 H1484 0.929 . S
C1488 C1490 1.378 . S
C1488 C1492 1.350 . S
C1489 C1492 1.463 . S
C1489 C1494 1.350 . S
C1489 N1497 1.427 . S
C1490 H1481 0.930 . S
C1490 C1488 1.378 . S
C1490 C1491 1.367 . S
C1491 C1490 1.367 . S
C1491 C1493 1.433 . S
C1492 C1488 1.350 . S
C1492 C1489 1.463 . S
C1492 N1496 1.427 . S
C1493 H1483 0.929 . S
C1493 C1491 1.433 . S
C1493 N1496 1.384 . S
C1494 H1485 0.929 . S
C1494 C1486 1.378 . S
C1494 C1489 1.350 . S
C1495 H1482 0.929 . S
C1495 C1487 1.433 . S
C1495 N1497 1.384 . S
N1496 C1492 1.427 . S
N1496 C1493 1.384 . S
N1497 C1489 1.427 . S
N1497 C1495 1.384 . S
H1498 C1504 0.930 . S
H1499 C1508 0.930 . S
H1500 C1513 0.929 . S
H1501 C1511 0.929 . S
H1502 C1506 0.929 . S
H1503 C1512 0.929 . S
C1504 H1498 0.930 . S
C1504 C1505 1.367 . S
C1504 C1512 1.378 . S
C1505 C1504 1.367 . S
C1505 C1513 1.433 . S
C1506 H1502 0.929 . S
C1506 C1508 1.378 . S
C1506 C1510 1.350 . S
C1507 C1510 1.463 . S
C1507 C1512 1.350 . S
C1507 N1515 1.427 . S
C1508 H1499 0.930 . S
C1508 C1506 1.378 . S
C1508 C1509 1.367 . S
C1509 C1508 1.367 . S
C1509 C1511 1.433 . S
C1510 C1506 1.350 . S
C1510 C1507 1.463 . S
C1510 N1514 1.427 . S
C1511 H1501 0.929 . S
C1511 C1509 1.433 . S
C1511 N1514 1.384 . S
C1512 H1503 0.929 . S
C1512 C1504 1.378 . S
C1512 C1507 1.350 . S
C1513 H1500 0.929 . S
C1513 C1505 1.433 . S
C1513 N1515 1.384 . S
N1514 C1510 1.427 . S
N1514 C1511 1.384 . S
N1515 C1507 1.427 . S
N1515 C1513 1.384 . S
H1516 C1522 0.930 . S
H1517 C1526 0.930 . S
H1518 C1531 0.929 . S
H1519 C1529 0.929 . S
H1520 C1524 0.929 . S
H1521 C1530 0.929 . S
C1522 H1516 0.930 . S
C1522 C1523 1.367 . S
C1522 C1530 1.378 . S
C1523 C1522 1.367 . S
C1523 C1531 1.433 . S
C1524 H1520 0.929 . S
C1524 C1526 1.378 . S
C1524 C1528 1.350 . S
C1525 C1528 1.463 . S
C1525 C1530 1.350 . S
C1525 N1533 1.427 . S
C1526 H1517 0.930 . S
C1526 C1524 1.378 . S
C1526 C1527 1.367 . S
C1527 C1526 1.367 . S
C1527 C1529 1.433 . S
C1528 C1524 1.350 . S
C1528 C1525 1.463 . S
C1528 N1532 1.427 . S
C1529 H1519 0.929 . S
C1529 C1527 1.433 . S
C1529 N1532 1.384 . S
C1530 H1521 0.929 . S
C1530 C1522 1.378 . S
C1530 C1525 1.350 . S
C1531 H1518 0.929 . S
C1531 C1523 1.433 . S
C1531 N1533 1.384 . S
N1532 C1528 1.427 . S
N1532 C1529 1.384 . S
N1533 C1525 1.427 . S
N1533 C1531 1.384 . S
H1534 C1540 0.930 . S
H1535 C1544 0.930 . S
H1536 C1549 0.929 . S
H1537 C1547 0.929 . S
H1538 C1542 0.929 . S
H1539 C1548 0.929 . S
C1540 H1534 0.930 . S
C1540 C1541 1.367 . S
C1540 C1548 1.378 . S
C1541 C1540 1.367 . S
C1541 C1549 1.433 . S
C1542 H1538 0.929 . S
C1542 C1544 1.378 . S
C1542 C1546 1.350 . S
C1543 C1546 1.463 . S
C1543 C1548 1.350 . S
C1543 N1551 1.427 . S
C1544 H1535 0.930 . S
C1544 C1542 1.378 . S
C1544 C1545 1.367 . S
C1545 C1544 1.367 . S
C1545 C1547 1.433 . S
C1546 C1542 1.350 . S
C1546 C1543 1.463 . S
C1546 N1550 1.427 . S
C1547 H1537 0.929 . S
C1547 C1545 1.433 . S
C1547 N1550 1.384 . S
C1548 H1539 0.929 . S
C1548 C1540 1.378 . S
C1548 C1543 1.350 . S
C1549 H1536 0.929 . S
C1549 C1541 1.433 . S
C1549 N1551 1.384 . S
N1550 C1546 1.427 . S
N1550 C1547 1.384 . S
N1551 C1543 1.427 . S
N1551 C1549 1.384 . S
H1552 C1558 0.930 . S
H1553 C1562 0.930 . S
H1554 C1567 0.929 . S
H1555 C1565 0.929 . S
H1556 C1560 0.929 . S
H1557 C1566 0.929 . S
C1558 H1552 0.930 . S
C1558 C1559 1.367 . S
C1558 C1566 1.378 . S
C1559 C1558 1.367 . S
C1559 C1567 1.433 . S
C1560 H1556 0.929 . S
C1560 C1562 1.378 . S
C1560 C1564 1.350 . S
C1561 C1564 1.463 1_556 S
C1561 C1566 1.350 . S
C1561 N1569 1.427 . S
C1562 H1553 0.930 . S
C1562 C1560 1.378 . S
C1562 C1563 1.367 . S
C1563 C1562 1.367 . S
C1563 C1565 1.433 . S
C1564 C1560 1.350 . S
C1564 C1561 1.463 1_554 S
C1564 N1568 1.427 . S
C1565 H1555 0.929 . S
C1565 C1563 1.433 . S
C1565 N1568 1.384 . S
C1566 H1557 0.929 . S
C1566 C1558 1.378 . S
C1566 C1561 1.350 . S
C1567 H1554 0.929 . S
C1567 C1559 1.433 . S
C1567 N1569 1.384 . S
N1568 C1564 1.427 . S
N1568 C1565 1.384 . S
N1569 C1561 1.427 . S
N1569 C1567 1.384 . S
H1570 C1576 0.930 . S
H1571 C1580 0.930 . S
H1572 C1585 0.929 . S
H1573 C1583 0.929 . S
H1574 C1578 0.929 . S
H1575 C1584 0.929 . S
C1576 H1570 0.930 . S
C1576 C1577 1.367 . S
C1576 C1584 1.378 . S
C1577 C1576 1.367 . S
C1577 C1585 1.433 . S
C1578 H1574 0.929 . S
C1578 C1580 1.378 . S
C1578 C1582 1.350 . S
C1579 C1582 1.463 1_556 S
C1579 C1584 1.350 . S
C1579 N1587 1.427 . S
C1580 H1571 0.930 . S
C1580 C1578 1.378 . S
C1580 C1581 1.367 . S
C1581 C1580 1.367 . S
C1581 C1583 1.433 . S
C1582 C1578 1.350 . S
C1582 C1579 1.463 1_554 S
C1582 N1586 1.427 . S
C1583 H1573 0.929 . S
C1583 C1581 1.433 . S
C1583 N1586 1.384 . S
C1584 H1575 0.929 . S
C1584 C1576 1.378 . S
C1584 C1579 1.350 . S
C1585 H1572 0.929 . S
C1585 C1577 1.433 . S
C1585 N1587 1.384 . S
N1586 C1582 1.427 . S
N1586 C1583 1.384 . S
N1587 C1579 1.427 . S
N1587 C1585 1.384 . S
H1588 C1594 0.930 . S
H1589 C1598 0.930 . S
H1590 C1603 0.929 . S
H1591 C1601 0.929 . S
H1592 C1596 0.929 . S
H1593 C1602 0.929 . S
C1594 H1588 0.930 . S
C1594 C1595 1.367 . S
C1594 C1602 1.378 . S
C1595 C1594 1.367 . S
C1595 C1603 1.433 . S
C1596 H1592 0.929 . S
C1596 C1598 1.378 . S
C1596 C1600 1.350 . S
C1597 C1600 1.463 1_556 S
C1597 C1602 1.350 . S
C1597 N1605 1.427 . S
C1598 H1589 0.930 . S
C1598 C1596 1.378 . S
C1598 C1599 1.367 . S
C1599 C1598 1.367 . S
C1599 C1601 1.433 . S
C1600 C1596 1.350 . S
C1600 C1597 1.463 1_554 S
C1600 N1604 1.427 . S
C1601 H1591 0.929 . S
C1601 C1599 1.433 . S
C1601 N1604 1.384 . S
C1602 H1593 0.929 . S
C1602 C1594 1.378 . S
C1602 C1597 1.350 . S
C1603 H1590 0.929 . S
C1603 C1595 1.433 . S
C1603 N1605 1.384 . S
N1604 C1600 1.427 . S
N1604 C1601 1.384 . S
N1605 C1597 1.427 . S
N1605 C1603 1.384 . S
H1606 C1612 0.930 . S
H1607 C1616 0.930 . S
H1608 C1621 0.929 . S
H1609 C1619 0.929 . S
H1610 C1614 0.929 . S
H1611 C1620 0.929 . S
C1612 H1606 0.930 . S
C1612 C1613 1.367 . S
C1612 C1620 1.378 . S
C1613 C1612 1.367 . S
C1613 C1621 1.433 . S
C1614 H1610 0.929 . S
C1614 C1616 1.378 . S
C1614 C1618 1.350 . S
C1615 C1618 1.463 1_554 S
C1615 C1620 1.350 . S
C1615 N1623 1.427 . S
C1616 H1607 0.930 . S
C1616 C1614 1.378 . S
C1616 C1617 1.367 . S
C1617 C1616 1.367 . S
C1617 C1619 1.433 . S
C1618 C1614 1.350 . S
C1618 C1615 1.463 1_556 S
C1618 N1622 1.427 . S
C1619 H1609 0.929 . S
C1619 C1617 1.433 . S
C1619 N1622 1.384 . S
C1620 H1611 0.929 . S
C1620 C1612 1.378 . S
C1620 C1615 1.350 . S
C1621 H1608 0.929 . S
C1621 C1613 1.433 . S
C1621 N1623 1.384 . S
N1622 C1618 1.427 . S
N1622 C1619 1.384 . S
N1623 C1615 1.427 . S
N1623 C1621 1.384 . S
H1624 C1630 0.930 . S
H1625 C1634 0.930 . S
H1626 C1639 0.929 . S
H1627 C1637 0.929 . S
H1628 C1632 0.929 . S
H1629 C1638 0.929 . S
C1630 H1624 0.930 . S
C1630 C1631 1.367 . S
C1630 C1638 1.378 . S
C1631 C1630 1.367 . S
C1631 C1639 1.433 . S
C1632 H1628 0.929 . S
C1632 C1634 1.378 . S
C1632 C1636 1.350 . S
C1633 C1636 1.463 1_455 S
C1633 C1638 1.350 . S
C1633 N1641 1.427 . S
C1634 H1625 0.930 . S
C1634 C1632 1.378 . S
C1634 C1635 1.367 . S
C1635 C1634 1.367 . S
C1635 C1637 1.433 . S
C1636 C1632 1.350 . S
C1636 C1633 1.463 1_655 S
C1636 N1640 1.427 . S
C1637 H1627 0.929 . S
C1637 C1635 1.433 . S
C1637 N1640 1.384 . S
C1638 H1629 0.929 . S
C1638 C1630 1.378 . S
C1638 C1633 1.350 . S
C1639 H1626 0.929 . S
C1639 C1631 1.433 . S
C1639 N1641 1.384 . S
N1640 C1636 1.427 . S
N1640 C1637 1.384 . S
N1641 C1633 1.427 . S
N1641 C1639 1.384 . S
H1642 C1648 0.930 . S
H1643 C1652 0.930 . S
H1644 C1657 0.929 . S
H1645 C1655 0.929 . S
H1646 C1650 0.929 . S
H1647 C1656 0.929 . S
C1648 H1642 0.930 . S
C1648 C1649 1.367 . S
C1648 C1656 1.378 . S
C1649 C1648 1.367 . S
C1649 C1657 1.433 . S
C1650 H1646 0.929 . S
C1650 C1652 1.378 . S
C1650 C1654 1.350 . S
C1651 C1654 1.463 1_565 S
C1651 C1656 1.350 . S
C1651 N1659 1.427 . S
C1652 H1643 0.930 . S
C1652 C1650 1.378 . S
C1652 C1653 1.367 . S
C1653 C1652 1.367 . S
C1653 C1655 1.433 . S
C1654 C1650 1.350 . S
C1654 C1651 1.463 1_545 S
C1654 N1658 1.427 . S
C1655 H1645 0.929 . S
C1655 C1653 1.433 . S
C1655 N1658 1.384 . S
C1656 H1647 0.929 . S
C1656 C1648 1.378 . S
C1656 C1651 1.350 . S
C1657 H1644 0.929 . S
C1657 C1649 1.433 . S
C1657 N1659 1.384 . S
N1658 C1654 1.427 . S
N1658 C1655 1.384 . S
N1659 C1651 1.427 . S
N1659 C1657 1.384 . S
H1660 C1666 0.930 . S
H1661 C1670 0.930 . S
H1662 C1675 0.929 . S
H1663 C1673 0.929 . S
H1664 C1668 0.929 . S
H1665 C1674 0.929 . S
C1666 H1660 0.930 . S
C1666 C1667 1.367 . S
C1666 C1674 1.378 . S
C1667 C1666 1.367 . S
C1667 C1675 1.433 . S
C1668 H1664 0.929 . S
C1668 C1670 1.378 . S
C1668 C1672 1.350 . S
C1669 C1672 1.463 1_655 S
C1669 C1674 1.350 . S
C1669 N1677 1.427 . S
C1670 H1661 0.930 . S
C1670 C1668 1.378 . S
C1670 C1671 1.367 . S
C1671 C1670 1.367 . S
C1671 C1673 1.433 . S
C1672 C1668 1.350 . S
C1672 C1669 1.463 1_455 S
C1672 N1676 1.427 . S
C1673 H1663 0.929 . S
C1673 C1671 1.433 . S
C1673 N1676 1.384 . S
C1674 H1665 0.929 . S
C1674 C1666 1.378 . S
C1674 C1669 1.350 . S
C1675 H1662 0.929 . S
C1675 C1667 1.433 . S
C1675 N1677 1.384 . S
N1676 C1672 1.427 . S
N1676 C1673 1.384 . S
N1677 C1669 1.427 . S
N1677 C1675 1.384 . S
H1678 C1684 0.930 . S
H1679 C1688 0.930 . S
H1680 C1693 0.929 . S
H1681 C1691 0.929 . S
H1682 C1686 0.929 . S
H1683 C1692 0.929 . S
C1684 H1678 0.930 . S
C1684 C1685 1.367 . S
C1684 C1692 1.378 . S
C1685 C1684 1.367 . S
C1685 C1693 1.433 . S
C1686 H1682 0.929 . S
C1686 C1688 1.378 . S
C1686 C1690 1.350 . S
C1687 C1690 1.463 1_545 S
C1687 C1692 1.350 . S
C1687 N1695 1.427 . S
C1688 H1679 0.930 . S
C1688 C1686 1.378 . S
C1688 C1689 1.367 . S
C1689 C1688 1.367 . S
C1689 C1691 1.433 . S
C1690 C1686 1.350 . S
C1690 C1687 1.463 1_565 S
C1690 N1694 1.427 . S
C1691 H1681 0.929 . S
C1691 C1689 1.433 . S
C1691 N1694 1.384 . S
C1692 H1683 0.929 . S
C1692 C1684 1.378 . S
C1692 C1687 1.350 . S
C1693 H1680 0.929 . S
C1693 C1685 1.433 . S
C1693 N1695 1.384 . S
N1694 C1690 1.427 . S
N1694 C1691 1.384 . S
N1695 C1687 1.427 . S
N1695 C1693 1.384 . S
H1696 C1702 0.930 . S
H1697 C1706 0.930 . S
H1698 C1711 0.929 . S
H1699 C1709 0.929 . S
H1700 C1704 0.929 . S
H1701 C1710 0.929 . S
C1702 H1696 0.930 . S
C1702 C1703 1.367 . S
C1702 C1710 1.378 . S
C1703 C1702 1.367 . S
C1703 C1711 1.433 . S
C1704 H1700 0.929 . S
C1704 C1706 1.378 . S
C1704 C1708 1.350 . S
C1705 C1708 1.463 1_655 S
C1705 C1710 1.350 . S
C1705 N1713 1.427 . S
C1706 H1697 0.930 . S
C1706 C1704 1.378 . S
C1706 C1707 1.367 . S
C1707 C1706 1.367 . S
C1707 C1709 1.433 . S
C1708 C1704 1.350 . S
C1708 C1705 1.463 1_455 S
C1708 N1712 1.427 . S
C1709 H1699 0.929 . S
C1709 C1707 1.433 . S
C1709 N1712 1.384 . S
C1710 H1701 0.929 . S
C1710 C1702 1.378 . S
C1710 C1705 1.350 . S
C1711 H1698 0.929 . S
C1711 C1703 1.433 . S
C1711 N1713 1.384 . S
N1712 C1708 1.427 . S
N1712 C1709 1.384 . S
N1713 C1705 1.427 . S
N1713 C1711 1.384 . S
H1714 C1720 0.930 . S
H1715 C1724 0.930 . S
H1716 C1729 0.929 . S
H1717 C1727 0.929 . S
H1718 C1722 0.929 . S
H1719 C1728 0.929 . S
C1720 H1714 0.930 . S
C1720 C1721 1.367 . S
C1720 C1728 1.378 . S
C1721 C1720 1.367 . S
C1721 C1729 1.433 . S
C1722 H1718 0.929 . S
C1722 C1724 1.378 . S
C1722 C1726 1.350 . S
C1723 C1726 1.463 1_565 S
C1723 C1728 1.350 . S
C1723 N1731 1.427 . S
C1724 H1715 0.930 . S
C1724 C1722 1.378 . S
C1724 C1725 1.367 . S
C1725 C1724 1.367 . S
C1725 C1727 1.433 . S
C1726 C1722 1.350 . S
C1726 C1723 1.463 1_545 S
C1726 N1730 1.427 . S
C1727 H1717 0.929 . S
C1727 C1725 1.433 . S
C1727 N1730 1.384 . S
C1728 H1719 0.929 . S
C1728 C1720 1.378 . S
C1728 C1723 1.350 . S
C1729 H1716 0.929 . S
C1729 C1721 1.433 . S
C1729 N1731 1.384 . S
N1730 C1726 1.427 . S
N1730 C1727 1.384 . S
N1731 C1723 1.427 . S
N1731 C1729 1.384 . S
H1732 C1738 0.930 . S
H1733 C1742 0.930 . S
H1734 C1747 0.929 . S
H1735 C1745 0.929 . S
H1736 C1740 0.929 . S
H1737 C1746 0.929 . S
C1738 H1732 0.930 . S
C1738 C1739 1.367 . S
C1738 C1746 1.378 . S
C1739 C1738 1.367 . S
C1739 C1747 1.433 . S
C1740 H1736 0.929 . S
C1740 C1742 1.378 . S
C1740 C1744 1.350 . S
C1741 C1744 1.463 1_455 S
C1741 C1746 1.350 . S
C1741 N1749 1.427 . S
C1742 H1733 0.930 . S
C1742 C1740 1.378 . S
C1742 C1743 1.367 . S
C1743 C1742 1.367 . S
C1743 C1745 1.433 . S
C1744 C1740 1.350 . S
C1744 C1741 1.463 1_655 S
C1744 N1748 1.427 . S
C1745 H1735 0.929 . S
C1745 C1743 1.433 . S
C1745 N1748 1.384 . S
C1746 H1737 0.929 . S
C1746 C1738 1.378 . S
C1746 C1741 1.350 . S
C1747 H1734 0.929 . S
C1747 C1739 1.433 . S
C1747 N1749 1.384 . S
N1748 C1744 1.427 . S
N1748 C1745 1.384 . S
N1749 C1741 1.427 . S
N1749 C1747 1.384 . S
H1750 C1756 0.930 . S
H1751 C1760 0.930 . S
H1752 C1765 0.929 . S
H1753 C1763 0.929 . S
H1754 C1758 0.929 . S
H1755 C1764 0.929 . S
C1756 H1750 0.930 . S
C1756 C1757 1.367 . S
C1756 C1764 1.378 . S
C1757 C1756 1.367 . S
C1757 C1765 1.433 . S
C1758 H1754 0.929 . S
C1758 C1760 1.378 . S
C1758 C1762 1.350 . S
C1759 C1762 1.463 1_565 S
C1759 C1764 1.350 . S
C1759 N1767 1.427 . S
C1760 H1751 0.930 . S
C1760 C1758 1.378 . S
C1760 C1761 1.367 . S
C1761 C1760 1.367 . S
C1761 C1763 1.433 . S
C1762 C1758 1.350 . S
C1762 C1759 1.463 1_545 S
C1762 N1766 1.427 . S
C1763 H1753 0.929 . S
C1763 C1761 1.433 . S
C1763 N1766 1.384 . S
C1764 H1755 0.929 . S
C1764 C1756 1.378 . S
C1764 C1759 1.350 . S
C1765 H1752 0.929 . S
C1765 C1757 1.433 . S
C1765 N1767 1.384 . S
N1766 C1762 1.427 . S
N1766 C1763 1.384 . S
N1767 C1759 1.427 . S
N1767 C1765 1.384 . S
H1768 C1774 0.930 . S
H1769 C1778 0.930 . S
H1770 C1783 0.929 . S
H1771 C1781 0.929 . S
H1772 C1776 0.929 . S
H1773 C1782 0.929 . S
C1774 H1768 0.930 . S
C1774 C1775 1.367 . S
C1774 C1782 1.378 . S
C1775 C1774 1.367 . S
C1775 C1783 1.433 . S
C1776 H1772 0.929 . S
C1776 C1778 1.378 . S
C1776 C1780 1.350 . S
C1777 C1780 1.463 . S
C1777 C1782 1.350 . S
C1777 N1785 1.427 . S
C1778 H1769 0.930 . S
C1778 C1776 1.378 . S
C1778 C1779 1.367 . S
C1779 C1778 1.367 . S
C1779 C1781 1.433 . S
C1780 C1776 1.350 . S
C1780 C1777 1.463 . S
C1780 N1784 1.427 . S
C1781 H1771 0.929 . S
C1781 C1779 1.433 . S
C1781 N1784 1.384 . S
C1782 H1773 0.929 . S
C1782 C1774 1.378 . S
C1782 C1777 1.350 . S
C1783 H1770 0.929 . S
C1783 C1775 1.433 . S
C1783 N1785 1.384 . S
N1784 C1780 1.427 . S
N1784 C1781 1.384 . S
N1785 C1777 1.427 . S
N1785 C1783 1.384 . S
H1786 C1792 0.930 . S
H1787 C1796 0.930 . S
H1788 C1801 0.929 . S
H1789 C1799 0.929 . S
H1790 C1794 0.929 . S
H1791 C1800 0.929 . S
C1792 H1786 0.930 . S
C1792 C1793 1.367 . S
C1792 C1800 1.378 . S
C1793 C1792 1.367 . S
C1793 C1801 1.433 . S
C1794 H1790 0.929 . S
C1794 C1796 1.378 . S
C1794 C1798 1.350 . S
C1795 C1798 1.463 . S
C1795 C1800 1.350 . S
C1795 N1803 1.427 . S
C1796 H1787 0.930 . S
C1796 C1794 1.378 . S
C1796 C1797 1.367 . S
C1797 C1796 1.367 . S
C1797 C1799 1.433 . S
C1798 C1794 1.350 . S
C1798 C1795 1.463 . S
C1798 N1802 1.427 . S
C1799 H1789 0.929 . S
C1799 C1797 1.433 . S
C1799 N1802 1.384 . S
C1800 H1791 0.929 . S
C1800 C1792 1.378 . S
C1800 C1795 1.350 . S
C1801 H1788 0.929 . S
C1801 C1793 1.433 . S
C1801 N1803 1.384 . S
N1802 C1798 1.427 . S
N1802 C1799 1.384 . S
N1803 C1795 1.427 . S
N1803 C1801 1.384 . S
H1804 C1810 0.930 . S
H1805 C1814 0.930 . S
H1806 C1819 0.929 . S
H1807 C1817 0.929 . S
H1808 C1812 0.929 . S
H1809 C1818 0.929 . S
C1810 H1804 0.930 . S
C1810 C1811 1.367 . S
C1810 C1818 1.378 . S
C1811 C1810 1.367 . S
C1811 C1819 1.433 . S
C1812 H1808 0.929 . S
C1812 C1814 1.378 . S
C1812 C1816 1.350 . S
C1813 C1816 1.463 . S
C1813 C1818 1.350 . S
C1813 N1821 1.427 . S
C1814 H1805 0.930 . S
C1814 C1812 1.378 . S
C1814 C1815 1.367 . S
C1815 C1814 1.367 . S
C1815 C1817 1.433 . S
C1816 C1812 1.350 . S
C1816 C1813 1.463 . S
C1816 N1820 1.427 . S
C1817 H1807 0.929 . S
C1817 C1815 1.433 . S
C1817 N1820 1.384 . S
C1818 H1809 0.929 . S
C1818 C1810 1.378 . S
C1818 C1813 1.350 . S
C1819 H1806 0.929 . S
C1819 C1811 1.433 . S
C1819 N1821 1.384 . S
N1820 C1816 1.427 . S
N1820 C1817 1.384 . S
N1821 C1813 1.427 . S
N1821 C1819 1.384 . S
H1822 C1828 0.930 . S
H1823 C1832 0.930 . S
H1824 C1837 0.929 . S
H1825 C1835 0.929 . S
H1826 C1830 0.929 . S
H1827 C1836 0.929 . S
C1828 H1822 0.930 . S
C1828 C1829 1.367 . S
C1828 C1836 1.378 . S
C1829 C1828 1.367 . S
C1829 C1837 1.433 . S
C1830 H1826 0.929 . S
C1830 C1832 1.378 . S
C1830 C1834 1.350 . S
C1831 C1834 1.463 . S
C1831 C1836 1.350 . S
C1831 N1839 1.427 . S
C1832 H1823 0.930 . S
C1832 C1830 1.378 . S
C1832 C1833 1.367 . S
C1833 C1832 1.367 . S
C1833 C1835 1.433 . S
C1834 C1830 1.350 . S
C1834 C1831 1.463 . S
C1834 N1838 1.427 . S
C1835 H1825 0.929 . S
C1835 C1833 1.433 . S
C1835 N1838 1.384 . S
C1836 H1827 0.929 . S
C1836 C1828 1.378 . S
C1836 C1831 1.350 . S
C1837 H1824 0.929 . S
C1837 C1829 1.433 . S
C1837 N1839 1.384 . S
N1838 C1834 1.427 . S
N1838 C1835 1.384 . S
N1839 C1831 1.427 . S
N1839 C1837 1.384 . S
H1840 C1846 0.930 . S
H1841 C1850 0.930 . S
H1842 C1855 0.929 . S
H1843 C1853 0.929 . S
H1844 C1848 0.929 . S
H1845 C1854 0.929 . S
C1846 H1840 0.930 . S
C1846 C1847 1.367 . S
C1846 C1854 1.378 . S
C1847 C1846 1.367 . S
C1847 C1855 1.433 . S
C1848 H1844 0.929 . S
C1848 C1850 1.378 . S
C1848 C1852 1.350 . S
C1849 C1852 1.463 . S
C1849 C1854 1.350 . S
C1849 N1857 1.427 . S
C1850 H1841 0.930 . S
C1850 C1848 1.378 . S
C1850 C1851 1.367 . S
C1851 C1850 1.367 . S
C1851 C1853 1.433 . S
C1852 C1848 1.350 . S
C1852 C1849 1.463 . S
C1852 N1856 1.427 . S
C1853 H1843 0.929 . S
C1853 C1851 1.433 . S
C1853 N1856 1.384 . S
C1854 H1845 0.929 . S
C1854 C1846 1.378 . S
C1854 C1849 1.350 . S
C1855 H1842 0.929 . S
C1855 C1847 1.433 . S
C1855 N1857 1.384 . S
N1856 C1852 1.427 . S
N1856 C1853 1.384 . S
N1857 C1849 1.427 . S
N1857 C1855 1.384 . S
H1858 C1864 0.930 . S
H1859 C1868 0.930 . S
H1860 C1873 0.929 . S
H1861 C1871 0.929 . S
H1862 C1866 0.929 . S
H1863 C1872 0.929 . S
C1864 H1858 0.930 . S
C1864 C1865 1.367 . S
C1864 C1872 1.378 . S
C1865 C1864 1.367 . S
C1865 C1873 1.433 . S
C1866 H1862 0.929 . S
C1866 C1868 1.378 . S
C1866 C1870 1.350 . S
C1867 C1870 1.463 . S
C1867 C1872 1.350 . S
C1867 N1875 1.427 . S
C1868 H1859 0.930 . S
C1868 C1866 1.378 . S
C1868 C1869 1.367 . S
C1869 C1868 1.367 . S
C1869 C1871 1.433 . S
C1870 C1866 1.350 . S
C1870 C1867 1.463 . S
C1870 N1874 1.427 . S
C1871 H1861 0.929 . S
C1871 C1869 1.433 . S
C1871 N1874 1.384 . S
C1872 H1863 0.929 . S
C1872 C1864 1.378 . S
C1872 C1867 1.350 . S
C1873 H1860 0.929 . S
C1873 C1865 1.433 . S
C1873 N1875 1.384 . S
N1874 C1870 1.427 . S
N1874 C1871 1.384 . S
N1875 C1867 1.427 . S
N1875 C1873 1.384 . S
H1876 C1882 0.930 . S
H1877 C1886 0.930 . S
H1878 C1891 0.929 . S
H1879 C1889 0.929 . S
H1880 C1884 0.929 . S
H1881 C1890 0.929 . S
C1882 H1876 0.930 . S
C1882 C1883 1.367 . S
C1882 C1890 1.378 . S
C1883 C1882 1.367 . S
C1883 C1891 1.433 . S
C1884 H1880 0.929 . S
C1884 C1886 1.378 . S
C1884 C1888 1.350 . S
C1885 C1888 1.463 . S
C1885 C1890 1.350 . S
C1885 N1893 1.427 . S
C1886 H1877 0.930 . S
C1886 C1884 1.378 . S
C1886 C1887 1.367 . S
C1887 C1886 1.367 . S
C1887 C1889 1.433 . S
C1888 C1884 1.350 . S
C1888 C1885 1.463 . S
C1888 N1892 1.427 . S
C1889 H1879 0.929 . S
C1889 C1887 1.433 . S
C1889 N1892 1.384 . S
C1890 H1881 0.929 . S
C1890 C1882 1.378 . S
C1890 C1885 1.350 . S
C1891 H1878 0.929 . S
C1891 C1883 1.433 . S
C1891 N1893 1.384 . S
N1892 C1888 1.427 . S
N1892 C1889 1.384 . S
N1893 C1885 1.427 . S
N1893 C1891 1.384 . S
H1894 C1900 0.930 . S
H1895 C1904 0.930 . S
H1896 C1909 0.929 . S
H1897 C1907 0.929 . S
H1898 C1902 0.929 . S
H1899 C1908 0.929 . S
C1900 H1894 0.930 . S
C1900 C1901 1.367 . S
C1900 C1908 1.378 . S
C1901 C1900 1.367 . S
C1901 C1909 1.433 . S
C1902 H1898 0.929 . S
C1902 C1904 1.378 . S
C1902 C1906 1.350 . S
C1903 C1906 1.463 . S
C1903 C1908 1.350 . S
C1903 N1911 1.427 . S
C1904 H1895 0.930 . S
C1904 C1902 1.378 . S
C1904 C1905 1.367 . S
C1905 C1904 1.367 . S
C1905 C1907 1.433 . S
C1906 C1902 1.350 . S
C1906 C1903 1.463 . S
C1906 N1910 1.427 . S
C1907 H1897 0.929 . S
C1907 C1905 1.433 . S
C1907 N1910 1.384 . S
C1908 H1899 0.929 . S
C1908 C1900 1.378 . S
C1908 C1903 1.350 . S
C1909 H1896 0.929 . S
C1909 C1901 1.433 . S
C1909 N1911 1.384 . S
N1910 C1906 1.427 . S
N1910 C1907 1.384 . S
N1911 C1903 1.427 . S
N1911 C1909 1.384 . S
H1912 C1918 0.930 . S
H1913 C1922 0.930 . S
H1914 C1927 0.929 . S
H1915 C1925 0.929 . S
H1916 C1920 0.929 . S
H1917 C1926 0.929 . S
C1918 H1912 0.930 . S
C1918 C1919 1.367 . S
C1918 C1926 1.378 . S
C1919 C1918 1.367 . S
C1919 C1927 1.433 . S
C1920 H1916 0.929 . S
C1920 C1922 1.378 . S
C1920 C1924 1.350 . S
C1921 C1924 1.463 . S
C1921 C1926 1.350 . S
C1921 N1929 1.427 . S
C1922 H1913 0.930 . S
C1922 C1920 1.378 . S
C1922 C1923 1.367 . S
C1923 C1922 1.367 . S
C1923 C1925 1.433 . S
C1924 C1920 1.350 . S
C1924 C1921 1.463 . S
C1924 N1928 1.427 . S
C1925 H1915 0.929 . S
C1925 C1923 1.433 . S
C1925 N1928 1.384 . S
C1926 H1917 0.929 . S
C1926 C1918 1.378 . S
C1926 C1921 1.350 . S
C1927 H1914 0.929 . S
C1927 C1919 1.433 . S
C1927 N1929 1.384 . S
N1928 C1924 1.427 . S
N1928 C1925 1.384 . S
N1929 C1921 1.427 . S
N1929 C1927 1.384 . S
H1930 C1936 0.930 . S
H1931 C1940 0.930 . S
H1932 C1945 0.929 . S
H1933 C1943 0.929 . S
H1934 C1938 0.929 . S
H1935 C1944 0.929 . S
C1936 H1930 0.930 . S
C1936 C1937 1.367 . S
C1936 C1944 1.378 . S
C1937 C1936 1.367 . S
C1937 C1945 1.433 . S
C1938 H1934 0.929 . S
C1938 C1940 1.378 . S
C1938 C1942 1.350 . S
C1939 C1942 1.463 . S
C1939 C1944 1.350 . S
C1939 N1947 1.427 . S
C1940 H1931 0.930 . S
C1940 C1938 1.378 . S
C1940 C1941 1.367 . S
C1941 C1940 1.367 . S
C1941 C1943 1.433 . S
C1942 C1938 1.350 . S
C1942 C1939 1.463 . S
C1942 N1946 1.427 . S
C1943 H1933 0.929 . S
C1943 C1941 1.433 . S
C1943 N1946 1.384 . S
C1944 H1935 0.929 . S
C1944 C1936 1.378 . S
C1944 C1939 1.350 . S
C1945 H1932 0.929 . S
C1945 C1937 1.433 . S
C1945 N1947 1.384 . S
N1946 C1942 1.427 . S
N1946 C1943 1.384 . S
N1947 C1939 1.427 . S
N1947 C1945 1.384 . S
H1948 C1954 0.930 . S
H1949 C1958 0.930 . S
H1950 C1963 0.929 . S
H1951 C1961 0.929 . S
H1952 C1956 0.929 . S
H1953 C1962 0.929 . S
C1954 H1948 0.930 . S
C1954 C1955 1.367 . S
C1954 C1962 1.378 . S
C1955 C1954 1.367 . S
C1955 C1963 1.433 . S
C1956 H1952 0.929 . S
C1956 C1958 1.378 . S
C1956 C1960 1.350 . S
C1957 C1960 1.463 . S
C1957 C1962 1.350 . S
C1957 N1965 1.427 . S
C1958 H1949 0.930 . S
C1958 C1956 1.378 . S
C1958 C1959 1.367 . S
C1959 C1958 1.367 . S
C1959 C1961 1.433 . S
C1960 C1956 1.350 . S
C1960 C1957 1.463 . S
C1960 N1964 1.427 . S
C1961 H1951 0.929 . S
C1961 C1959 1.433 . S
C1961 N1964 1.384 . S
C1962 H1953 0.929 . S
C1962 C1954 1.378 . S
C1962 C1957 1.350 . S
C1963 H1950 0.929 . S
C1963 C1955 1.433 . S
C1963 N1965 1.384 . S
N1964 C1960 1.427 . S
N1964 C1961 1.384 . S
N1965 C1957 1.427 . S
N1965 C1963 1.384 . S
H1966 C1972 0.930 . S
H1967 C1976 0.930 . S
H1968 C1981 0.929 . S
H1969 C1979 0.929 . S
H1970 C1974 0.929 . S
H1971 C1980 0.929 . S
C1972 H1966 0.930 . S
C1972 C1973 1.367 . S
C1972 C1980 1.378 . S
C1973 C1972 1.367 . S
C1973 C1981 1.433 . S
C1974 H1970 0.929 . S
C1974 C1976 1.378 . S
C1974 C1978 1.350 . S
C1975 C1978 1.463 . S
C1975 C1980 1.350 . S
C1975 N1983 1.427 . S
C1976 H1967 0.930 . S
C1976 C1974 1.378 . S
C1976 C1977 1.367 . S
C1977 C1976 1.367 . S
C1977 C1979 1.433 . S
C1978 C1974 1.350 . S
C1978 C1975 1.463 . S
C1978 N1982 1.427 . S
C1979 H1969 0.929 . S
C1979 C1977 1.433 . S
C1979 N1982 1.384 . S
C1980 H1971 0.929 . S
C1980 C1972 1.378 . S
C1980 C1975 1.350 . S
C1981 H1968 0.929 . S
C1981 C1973 1.433 . S
C1981 N1983 1.384 . S
N1982 C1978 1.427 . S
N1982 C1979 1.384 . S
N1983 C1975 1.427 . S
N1983 C1981 1.384 . S
C1415 C1377 0.506 . S
C1419 C29 0.505 . S
C1433 C1105 0.505 . S
C1437 C108 0.507 . S
C1451 C233 0.506 . S
C1455 C1193 0.506 . S
C1469 C1289 0.507 . S
C1473 C293 0.509 . S
C1487 C821 0.507 . S
C1491 C401 0.505 . S
C1505 C489 0.508 . S
C1509 C937 0.505 . S
C1523 C577 0.510 . S
C1527 C997 0.507 . S
C1541 C673 0.503 . S
C1545 C724 0.505 . S
C1559 C460 1.473 . S
C1563 C20 1.471 . S
C1577 C557 1.467 . S
C1581 C145 1.477 . S
C1595 C645 1.481 . S
C1599 C225 1.473 . S
C1613 C321 1.483 . S
C1617 C381 1.475 . S
C1631 C57 1.482 . S
C1635 C137 1.487 . S
C1649 C196 1.470 . S
C1653 C117 1.474 . S
C1667 C205 1.478 . S
C1671 C284 1.477 . S
C1685 C49 1.459 . S
C1689 C313 1.465 . S
C1703 C665 1.458 . S
C1707 C409 1.466 . S
C1721 C372 1.487 . S
C1725 C469 1.478 . S
C1739 C497 1.475 . S
C1743 C585 1.470 . S
C1757 C636 1.488 . S
C1761 C548 1.496 . S
C1775 C1164 1.477 . S
C1779 C733 1.467 . S
C1793 C841 1.469 . S
C1797 C1252 1.475 . S
C1811 C1349 1.482 . S
C1815 C929 1.472 . S
C1829 C1085 1.479 . S
C1833 C1025 1.480 . S
C1847 C753 1.483 . S
C1851 C849 1.486 . S
C1865 C812 1.469 . S
C1869 C900 1.475 . S
C1883 C988 1.471 . S
C1887 C909 1.482 . S
C1901 C761 1.461 . S
C1905 C1017 1.462 . S
C1919 C1369 1.459 . S
C1923 C1113 1.466 . S
C1937 C1076 1.487 . S
C1941 C1173 1.478 . S
C1955 C1201 1.476 . S
C1959 C1281 1.469 . S
C1973 C1340 1.485 . S
C1977 C1261 1.499 . S
