# Generated by pormake.
# Topology mon, (4)-cn, num edge types: 1
# Building blocks:
#     Node 0, Type 0, BuildingBlock: UXUYUI_clean_sbu_0, # of connection points: 4
#     Node 1, Type 0, BuildingBlock: UXUYUI_clean_sbu_0, # of connection points: 4
#     Node 2, Type 0, BuildingBlock: UXUYUI_clean_sbu_0, # of connection points: 4
#     Node 3, Type 0, BuildingBlock: UXUYUI_clean_sbu_0, # of connection points: 4
#     Node 4, Type 0, BuildingBlock: UXUYUI_clean_sbu_0, # of connection points: 4
#     Node 5, Type 0, BuildingBlock: UXUYUI_clean_sbu_0, # of connection points: 4
#     Node 6, Type 0, BuildingBlock: UXUYUI_clean_sbu_0, # of connection points: 4
#     Node 7, Type 0, BuildingBlock: UXUYUI_clean_sbu_0, # of connection points: 4
#     Node 8, Type 0, BuildingBlock: UXUYUI_clean_sbu_0, # of connection points: 4
#     Node 9, Type 0, BuildingBlock: UXUYUI_clean_sbu_0, # of connection points: 4
#     Node 10, Type 0, BuildingBlock: UXUYUI_clean_sbu_0, # of connection points: 4
#     Node 11, Type 0, BuildingBlock: UXUYUI_clean_sbu_0, # of connection points: 4
#     Node 12, Type 0, BuildingBlock: UXUYUI_clean_sbu_0, # of connection points: 4
#     Node 13, Type 0, BuildingBlock: UXUYUI_clean_sbu_0, # of connection points: 4
#     Node 14, Type 0, BuildingBlock: UXUYUI_clean_sbu_0, # of connection points: 4
#     Node 15, Type 0, BuildingBlock: UXUYUI_clean_sbu_0, # of connection points: 4
#     Edge 16, Type (0, 0), BuildingBlock: UVAHIK_clean_linker_0, # of connection points: 2
#     Edge 17, Type (0, 0), BuildingBlock: UVAHIK_clean_linker_0, # of connection points: 2
#     Edge 18, Type (0, 0), BuildingBlock: UVAHIK_clean_linker_0, # of connection points: 2
#     Edge 19, Type (0, 0), BuildingBlock: UVAHIK_clean_linker_0, # of connection points: 2
#     Edge 20, Type (0, 0), BuildingBlock: UVAHIK_clean_linker_0, # of connection points: 2
#     Edge 21, Type (0, 0), BuildingBlock: UVAHIK_clean_linker_0, # of connection points: 2
#     Edge 22, Type (0, 0), BuildingBlock: UVAHIK_clean_linker_0, # of connection points: 2
#     Edge 23, Type (0, 0), BuildingBlock: UVAHIK_clean_linker_0, # of connection points: 2
#     Edge 24, Type (0, 0), BuildingBlock: UVAHIK_clean_linker_0, # of connection points: 2
#     Edge 25, Type (0, 0), BuildingBlock: UVAHIK_clean_linker_0, # of connection points: 2
#     Edge 26, Type (0, 0), BuildingBlock: UVAHIK_clean_linker_0, # of connection points: 2
#     Edge 27, Type (0, 0), BuildingBlock: UVAHIK_clean_linker_0, # of connection points: 2
#     Edge 28, Type (0, 0), BuildingBlock: UVAHIK_clean_linker_0, # of connection points: 2
#     Edge 29, Type (0, 0), BuildingBlock: UVAHIK_clean_linker_0, # of connection points: 2
#     Edge 30, Type (0, 0), BuildingBlock: UVAHIK_clean_linker_0, # of connection points: 2
#     Edge 31, Type (0, 0), BuildingBlock: UVAHIK_clean_linker_0, # of connection points: 2
#     Edge 32, Type (0, 0), BuildingBlock: UVAHIK_clean_linker_0, # of connection points: 2
#     Edge 33, Type (0, 0), BuildingBlock: UVAHIK_clean_linker_0, # of connection points: 2
#     Edge 34, Type (0, 0), BuildingBlock: UVAHIK_clean_linker_0, # of connection points: 2
#     Edge 35, Type (0, 0), BuildingBlock: UVAHIK_clean_linker_0, # of connection points: 2
#     Edge 36, Type (0, 0), BuildingBlock: UVAHIK_clean_linker_0, # of connection points: 2
#     Edge 37, Type (0, 0), BuildingBlock: UVAHIK_clean_linker_0, # of connection points: 2
#     Edge 38, Type (0, 0), BuildingBlock: UVAHIK_clean_linker_0, # of connection points: 2
#     Edge 39, Type (0, 0), BuildingBlock: UVAHIK_clean_linker_0, # of connection points: 2
#     Edge 40, Type (0, 0), BuildingBlock: UVAHIK_clean_linker_0, # of connection points: 2
#     Edge 41, Type (0, 0), BuildingBlock: UVAHIK_clean_linker_0, # of connection points: 2
#     Edge 42, Type (0, 0), BuildingBlock: UVAHIK_clean_linker_0, # of connection points: 2
#     Edge 43, Type (0, 0), BuildingBlock: UVAHIK_clean_linker_0, # of connection points: 2
#     Edge 44, Type (0, 0), BuildingBlock: UVAHIK_clean_linker_0, # of connection points: 2
#     Edge 45, Type (0, 0), BuildingBlock: UVAHIK_clean_linker_0, # of connection points: 2
#     Edge 46, Type (0, 0), BuildingBlock: UVAHIK_clean_linker_0, # of connection points: 2
#     Edge 47, Type (0, 0), BuildingBlock: UVAHIK_clean_linker_0, # of connection points: 2
# Relax obj value: 0.204
# Max RMSD: 0.157
# Mean RMSD: 0.156
data_MOF--net-mon--node1-UXUYUI_clean_sbu_0--edge1-UVAHIK_clean_linker_0
_symmetry_space_group_name_H-M    P1
_symmetry_Int_Tables_number       1
_symmetry_cell_setting            triclinic
loop_
_symmetry_equiv_pos_as_xyz
'x, y, z'
_cell_length_a     59.398784
_cell_length_b     59.326932
_cell_length_c     146.73217
_cell_angle_alpha  90.016858
_cell_angle_beta   90.008491
_cell_angle_gamma 89.989223
loop_
_atom_site_label
_atom_site_type_symbol
_atom_site_fract_x
_atom_site_fract_y
_atom_site_fract_z
_atom_type_partial_charge
Li0 Li -0.00145 0.03958 0.57887 0.0
Li1 Li -0.0026 0.06122 0.59291 0.0
Li2 Li 0.02076 0.02832 0.59208 0.0
Li3 Li 0.97916 0.026 0.59239 0.0
C4 C 0.02933 0.07522 0.58011 0.0
N5 N 0.03984 0.11403 0.5706 0.0
C6 C 0.01224 0.08816 0.57614 0.0
C7 C 0.05174 0.08205 0.57924 0.0
C8 C 0.01791 0.10771 0.57137 0.0
C9 C 0.05671 0.10171 0.5744 0.0
C10 C 0.94887 0.05411 0.58477 0.0
C11 C 0.91319 0.05487 0.59264 0.0
N12 N 0.90234 0.05586 0.58449 0.0
C13 C 0.93735 0.05548 0.57648 0.0
C14 C 0.93669 0.05415 0.59292 0.0
C15 C 0.91383 0.05623 0.57648 0.0
C16 C 0.9802 0.02856 0.56189 0.0
N17 N -0.00148 0.03792 0.56594 0.0
C18 C 0.01762 0.04015 0.55164 0.0
C19 C 0.01712 0.04358 0.56105 0.0
C20 C -0.00121 0.03084 0.54727 0.0
C21 C 0.97983 0.02515 0.55248 0.0
H22 H 0.96613 0.02313 0.56601 0.0
H23 H 0.03186 0.05009 0.56445 0.0
C24 C 0.01569 0.10137 0.60006 0.0
N25 N 0.99615 0.09066 0.59794 0.0
C26 C 0.01523 0.12299 0.60379 0.0
C27 C 0.97456 0.12191 0.60325 0.0
C28 C 0.97582 0.10041 0.59948 0.0
C29 C 0.99444 0.1336 0.60537 0.0
H30 H 0.03163 0.09313 0.59881 0.0
H31 H 0.96057 0.09154 0.59777 0.0
C32 C 0.01098 0.995 0.57866 0.0
N33 N 0.03209 0.96589 0.56671 0.0
C34 C 0.00046 0.97493 0.57608 0.0
C35 C 0.0322 0.00032 0.57515 0.0
C36 C 0.01143 0.96041 0.57004 0.0
C37 C 0.0426 0.98537 0.56912 0.0
C38 C 0.00299 0.04899 0.60975 0.0
C39 C 0.02476 0.05461 0.61255 0.0
C40 C 0.98451 0.05668 0.61476 0.0
C41 C 0.02768 0.06809 0.62028 0.0
C42 C 0.98812 0.07015 0.62244 0.0
N43 N 0.00945 0.07554 0.62501 0.0
C44 C 0.06723 0.0243 0.5965 0.0
C45 C 0.04508 0.99119 0.59789 0.0
C46 C 0.08642 0.01262 0.59934 0.0
N47 N 0.04715 0.01341 0.59587 0.0
C48 C 0.06382 0.97882 0.60062 0.0
C49 C 0.08479 0.98955 0.60137 0.0
H50 H 0.06827 0.04203 0.59484 0.0
H51 H 0.02882 0.98308 0.59736 0.0
C52 C 0.9403 -0.00137 0.59059 0.0
N53 N 0.95541 0.00755 0.59654 0.0
C54 C 0.92336 0.98429 0.59373 0.0
C55 C 0.93811 0.98856 0.60901 0.0
C56 C 0.95461 0.00289 0.60559 0.0
C57 C 0.92235 0.97891 0.60305 0.0
H58 H 0.94157 0.0025 0.5834 0.0
H59 H 0.96703 0.01004 0.61013 0.0
O60 O 0.02432 0.05606 0.58489 0.0
O61 O 0.97193 0.0533 0.58487 0.0
O62 O 0.00029 0.00953 0.58446 0.0
O63 O -0.00019 0.03635 0.60205 0.0
H64 H 0.9948 0.08323 0.57672 0.0
H65 H 0.06516 0.07225 0.58227 0.0
H66 H 0.00487 0.11787 0.56827 0.0
H67 H 0.07399 0.10719 0.57368 0.0
H68 H 0.9036 0.05464 0.5989 0.0
H69 H 0.94644 0.05631 0.57011 0.0
H70 H 0.94528 0.05334 0.5994 0.0
H71 H 0.90473 0.05721 0.5701 0.0
H72 H 0.0326 0.04459 0.54784 0.0
H73 H 0.9652 0.01745 0.54936 0.0
H74 H 0.03098 0.13149 0.6052 0.0
H75 H 0.95817 0.12931 0.60447 0.0
H76 H 0.98398 0.97066 0.57871 0.0
H77 H 0.04047 0.01592 0.57699 0.0
H78 H 0.00351 0.9448 0.56799 0.0
H79 H 0.059 0.98929 0.56633 0.0
H80 H 0.03925 0.04892 0.60874 0.0
H81 H 0.96754 0.05247 0.61272 0.0
H82 H 0.04444 0.0727 0.62248 0.0
H83 H 0.97397 0.07634 0.62634 0.0
H84 H 0.10236 0.0214 0.59984 0.0
H85 H 0.06189 0.96111 0.60224 0.0
H86 H 0.91164 0.97696 0.58892 0.0
H87 H 0.93776 0.98493 0.61625 0.0
Li88 Li 0.23305 0.73437 0.84153 0.0
Li89 Li 0.1983 0.75495 0.83913 0.0
Li90 Li 0.22435 0.74803 0.82662 0.0
Li91 Li 0.23319 0.77492 0.83868 0.0
C92 C 0.19884 0.71211 0.82725 0.0
N93 N 0.18204 0.68613 0.81319 0.0
C94 C 0.17646 0.71459 0.82449 0.0
C95 C 0.21264 0.69632 0.82291 0.0
C96 C 0.16829 0.7013 0.81735 0.0
C97 C 0.20384 0.68339 0.8158 0.0
C98 C 0.20729 0.75993 0.85668 0.0
C99 C 0.18104 0.7801 0.8662 0.0
N100 N 0.17915 0.76166 0.87165 0.0
C101 C 0.20518 0.7412 0.8624 0.0
C102 C 0.19523 0.77959 0.85862 0.0
C103 C 0.19085 0.74241 0.86993 0.0
C104 C 0.26171 0.71743 0.85495 0.0
N105 N 0.24663 0.71131 0.84846 0.0
C106 C 0.25125 0.67244 0.85217 0.0
C107 C 0.24106 0.68939 0.84703 0.0
C108 C 0.26736 0.67818 0.8588 0.0
C109 C 0.2725 0.70107 0.86017 0.0
H110 H 0.26549 0.73507 0.85602 0.0
H111 H 0.22867 0.6851 0.84192 0.0
C112 C 0.15485 0.77383 0.83968 0.0
N113 N 0.16782 0.75646 0.84261 0.0
C114 C 0.13241 0.77532 0.84237 0.0
C115 C 0.1372 0.741 0.85106 0.0
C116 C 0.15946 0.74003 0.84809 0.0
C117 C 0.12332 0.75882 0.84818 0.0
H118 H 0.16188 0.78642 0.83519 0.0
H119 H 0.17018 0.72625 0.85021 0.0
C120 C 0.27349 0.74305 0.8352 0.0
N121 N 0.31459 0.72462 0.83991 0.0
C122 C 0.28856 0.75528 0.84059 0.0
C123 C 0.27938 0.72151 0.83215 0.0
C124 C 0.30926 0.74566 0.84291 0.0
C125 C 0.30022 0.71247 0.83463 0.0
C126 C 0.20929 0.79804 0.82686 0.0
C127 C 0.21883 0.80325 0.81841 0.0
C128 C 0.20154 0.81539 0.83249 0.0
C129 C 0.22061 0.8258 0.81576 0.0
C130 C 0.20367 0.83773 0.82961 0.0
N131 N 0.21308 0.84243 0.82137 0.0
C132 C 0.20885 0.74467 0.80843 0.0
C133 C 0.24814 0.73966 0.81047 0.0
C134 C 0.21123 0.74299 0.79899 0.0
N135 N 0.2272 0.74305 0.81393 0.0
C136 C 0.25132 0.73805 0.80109 0.0
C137 C 0.23276 0.74002 0.79522 0.0
H138 H 0.19247 0.74791 0.81137 0.0
H139 H 0.26247 0.73885 0.81499 0.0
C140 C 0.24795 0.80995 0.85009 0.0
N141 N 0.24838 0.80207 0.84141 0.0
C142 C 0.26049 0.82891 0.85247 0.0
C143 C 0.27331 0.83154 0.83686 0.0
C144 C 0.26068 0.81238 0.83481 0.0
C145 C 0.27361 0.83984 0.84583 0.0
H146 H 0.23847 0.80108 0.85524 0.0
H147 H 0.26106 0.80541 0.828 0.0
O148 O 0.20726 0.72517 0.83413 0.0
O149 O 0.22099 0.75897 0.84919 0.0
O150 O 0.25298 0.75201 0.83299 0.0
O151 O 0.20763 0.77609 0.82962 0.0
H152 H 0.16557 0.72676 0.82775 0.0
H153 H 0.23002 0.69427 0.82495 0.0
H154 H 0.15103 0.70309 0.81511 0.0
H155 H 0.21436 0.67121 0.81234 0.0
H156 H 0.17148 0.79515 0.86775 0.0
H157 H 0.21431 0.72582 0.86099 0.0
H158 H 0.19661 0.7942 0.85425 0.0
H159 H 0.18896 0.72802 0.87439 0.0
H160 H 0.24645 0.65508 0.851 0.0
H161 H 0.28503 0.70632 0.86509 0.0
H162 H 0.12222 0.78903 0.83978 0.0
H163 H 0.13102 0.72801 0.85559 0.0
H164 H 0.28426 0.77193 0.84304 0.0
H165 H 0.26786 0.71177 0.82802 0.0
H166 H 0.32104 0.75489 0.84711 0.0
H167 H 0.30492 0.69576 0.83238 0.0
H168 H 0.22499 0.79007 0.81397 0.0
H169 H 0.1942 0.81167 0.83907 0.0
H170 H 0.22804 0.83009 0.80926 0.0
H171 H 0.19788 0.85133 0.83392 0.0
H172 H 0.19656 0.7449 0.79468 0.0
H173 H 0.26817 0.73562 0.79844 0.0
H174 H 0.26059 0.83436 0.85951 0.0
H175 H 0.28302 0.8395 0.83151 0.0
Li176 Li 0.53298 0.97004 0.09249 0.0
Li177 Li 0.49195 0.97314 0.09289 0.0
Li178 Li 0.51153 0.93601 0.09122 0.0
Li179 Li 0.5103 0.96231 0.07845 0.0
C180 C 0.52196 0.96089 0.10982 0.0
N181 N 0.54308 0.96909 0.12628 0.0
C182 C 0.51298 0.97662 0.11591 0.0
C183 C 0.5415 0.94909 0.11216 0.0
C184 C 0.52394 0.98058 0.12418 0.0
C185 C 0.55198 0.95355 0.12049 0.0
C186 C 0.50644 0.01186 0.08293 0.0
C187 C 0.48312 0.03598 0.07364 0.0
N188 N 0.49242 0.05438 0.07769 0.0
C189 C 0.516 0.03103 0.0869 0.0
C190 C 0.49005 0.01437 0.07617 0.0
C191 C 0.50859 0.05236 0.0842 0.0
C192 C 0.58019 0.97629 0.09456 0.0
N193 N 0.55942 0.98347 0.09715 0.0
C194 C 0.5754 0.01013 0.10745 0.0
C195 C 0.55672 0.00027 0.10335 0.0
C196 C 0.59704 0.00294 0.10498 0.0
C197 C 0.59944 0.98602 0.09837 0.0
H198 H 0.58179 0.96297 0.08957 0.0
H199 H 0.53999 0.00584 0.10517 0.0
C200 C 0.44813 0.97666 0.10002 0.0
N201 N 0.46758 0.98815 0.09851 0.0
C202 C 0.4304 0.98689 0.10469 0.0
C203 C 0.45322 0.02043 0.10627 0.0
C204 C 0.47044 0.00959 0.10155 0.0
C205 C 0.43293 0.009 0.10795 0.0
H206 H 0.44657 0.9594 0.09774 0.0
H207 H 0.48632 0.01805 0.10053 0.0
C208 C 0.54729 0.92602 0.08109 0.0
N209 N 0.56747 0.88546 0.07674 0.0
C210 C 0.54364 0.91619 0.07256 0.0
C211 C 0.56144 0.91538 0.08736 0.0
C212 C 0.55395 0.89564 0.0705 0.0
C213 C 0.57141 0.89482 0.08506 0.0
C214 C 0.46547 0.94457 0.07962 0.0
C215 C 0.45934 0.92307 0.07662 0.0
C216 C 0.45171 0.96299 0.07755 0.0
C217 C 0.4398 0.92043 0.07142 0.0
C218 C 0.4323 0.95966 0.07235 0.0
N219 N 0.42681 0.93864 0.0694 0.0
C220 C 0.50948 0.90004 0.10362 0.0
C221 C 0.50753 0.8892 0.08809 0.0
C222 C 0.5071 0.87769 0.10639 0.0
N223 N 0.50969 0.90531 0.09461 0.0
C224 C 0.50509 0.86665 0.09055 0.0
C225 C 0.50469 0.8607 0.09981 0.0
H226 H 0.5107 0.91321 0.10867 0.0
H227 H 0.50742 0.8939 0.08097 0.0
C228 C 0.52271 0.98278 0.06216 0.0
N229 N 0.5097 0.966 0.06561 0.0
C230 C 0.52282 0.98711 0.05282 0.0
C231 C 0.49658 0.9564 0.05072 0.0
C232 C 0.49702 0.95264 0.06011 0.0
C233 C 0.50949 0.97394 0.04697 0.0
H234 H 0.53291 0.9929 0.06669 0.0
H235 H 0.48728 0.93905 0.06297 0.0
O236 O 0.51166 0.95706 0.10162 0.0
O237 O 0.51361 0.99085 0.08548 0.0
O238 O 0.53718 0.94603 0.08326 0.0
O239 O 0.48456 0.94739 0.08473 0.0
H240 H 0.49778 0.98576 0.11426 0.0
H241 H 0.54858 0.93676 0.10756 0.0
H242 H 0.51725 0.99281 0.12894 0.0
H243 H 0.56722 0.94468 0.12235 0.0
H244 H 0.47042 0.03813 0.06843 0.0
H245 H 0.52893 0.02947 0.09204 0.0
H246 H 0.48297 -0.00016 0.07279 0.0
H247 H 0.51573 0.06732 0.08728 0.0
H248 H 0.57297 0.02341 0.11242 0.0
H249 H 0.61595 0.98019 0.0963 0.0
H250 H 0.41514 0.9774 0.10596 0.0
H251 H 0.4558 0.03753 0.10863 0.0
H252 H 0.53282 0.92424 0.06761 0.0
H253 H 0.56464 0.92286 0.09396 0.0
H254 H 0.55116 0.88777 0.06395 0.0
H255 H 0.58229 0.88633 0.08987 0.0
H256 H 0.4696 0.90857 0.07823 0.0
H257 H 0.45573 0.97962 0.08006 0.0
H258 H 0.43496 0.9039 0.069 0.0
H259 H 0.42153 0.97379 0.0707 0.0
H260 H 0.50653 0.87385 0.11361 0.0
H261 H 0.50351 0.85402 0.08526 0.0
H262 H 0.53338 0.00051 0.0502 0.0
H263 H 0.48599 0.94588 0.04648 0.0
Li264 Li 0.28256 0.26157 0.34386 0.0
Li265 Li 0.31546 0.23786 0.34178 0.0
Li266 Li 0.28934 0.24542 0.32925 0.0
Li267 Li 0.27878 0.22074 0.34192 0.0
C268 C 0.31854 0.27863 0.32898 0.0
N269 N 0.3381 0.30055 0.31438 0.0
C270 C 0.34094 0.27425 0.32666 0.0
C271 C 0.30613 0.29425 0.32392 0.0
C272 C 0.35052 0.2855 0.31925 0.0
C273 C 0.31631 0.30511 0.31654 0.0
C274 C 0.30606 0.23469 0.35952 0.0
C275 C 0.32915 0.21166 0.36932 0.0
N276 N 0.33334 0.22996 0.37465 0.0
C277 C 0.31049 0.25323 0.36511 0.0
C278 C 0.31534 0.21369 0.36166 0.0
C279 C 0.32435 0.2505 0.37273 0.0
C280 C 0.2586 0.28328 0.35782 0.0
N281 N 0.27124 0.28681 0.35024 0.0
C282 C 0.26638 0.3266 0.35149 0.0
C283 C 0.27554 0.3079 0.34709 0.0
C284 C 0.25291 0.32348 0.35925 0.0
C285 C 0.24923 0.30151 0.36248 0.0
H286 H 0.25555 0.26627 0.36016 0.0
H287 H 0.28585 0.31018 0.34111 0.0
C288 C 0.35733 0.21545 0.34229 0.0
N289 N 0.34577 0.23377 0.34526 0.0
C290 C 0.37946 0.21192 0.34511 0.0
C291 C 0.3773 0.24623 0.35397 0.0
C292 C 0.35536 0.24927 0.35085 0.0
C293 C 0.38971 0.22735 0.35109 0.0
H294 H 0.34941 0.20366 0.33769 0.0
H295 H 0.34583 0.2639 0.35296 0.0
C296 C 0.24142 0.25553 0.33841 0.0
N297 N 0.20318 0.27827 0.34392 0.0
C298 C 0.22686 0.24579 0.34477 0.0
C299 C 0.23647 0.27678 0.33481 0.0
C300 C 0.20761 0.25756 0.34747 0.0
C301 C 0.21708 0.28803 0.3377 0.0
C302 C 0.30176 0.1945 0.33022 0.0
C303 C 0.29287 0.18902 0.32168 0.0
C304 C 0.30863 0.17731 0.33611 0.0
C305 C 0.2908 0.16636 0.31921 0.0
C306 C 0.30624 0.15486 0.33339 0.0
N307 N 0.29745 0.1499 0.32507 0.0
C308 C 0.30432 0.24619 0.31091 0.0
C309 C 0.2656 0.25421 0.31312 0.0
C310 C 0.30188 0.24833 0.30149 0.0
N311 N 0.2863 0.24925 0.31648 0.0
C312 C 0.26236 0.25639 0.30375 0.0
C313 C 0.28062 0.25338 0.29779 0.0
H314 H 0.32052 0.2419 0.31379 0.0
H315 H 0.25148 0.25605 0.31769 0.0
C316 C 0.26032 0.19001 0.35437 0.0
N317 N 0.2621 0.19494 0.34537 0.0
C318 C 0.24806 0.17126 0.35721 0.0
C319 C 0.23977 0.16293 0.34144 0.0
C320 C 0.25179 0.18214 0.33893 0.0
C321 C 0.23768 0.15727 0.35071 0.0
H322 H 0.26812 0.20087 0.35937 0.0
H323 H 0.25292 0.18683 0.33183 0.0
O324 O 0.30879 0.26762 0.33616 0.0
O325 O 0.29278 0.23708 0.35196 0.0
O326 O 0.26067 0.24454 0.33587 0.0
O327 O 0.30383 0.21658 0.33277 0.0
H328 H 0.35079 0.26219 0.33048 0.0
H329 H 0.28869 0.29764 0.32555 0.0
H330 H 0.36781 0.28222 0.31735 0.0
H331 H 0.30685 0.31709 0.31252 0.0
H332 H 0.33656 0.19555 0.37103 0.0
H333 H 0.30355 0.26963 0.36353 0.0
H334 H 0.31205 0.19917 0.35742 0.0
H335 H 0.32803 0.26474 0.37709 0.0
H336 H 0.26977 0.34331 0.34886 0.0
H337 H 0.23873 0.29841 0.36838 0.0
H338 H 0.38852 0.19746 0.34249 0.0
H339 H 0.38435 0.25848 0.35863 0.0
H340 H 0.23047 0.2294 0.34765 0.0
H341 H 0.24769 0.28466 0.32995 0.0
H342 H 0.19624 0.25027 0.35241 0.0
H343 H 0.21315 0.30457 0.33504 0.0
H344 H 0.28743 0.20207 0.31703 0.0
H345 H 0.31555 0.18124 0.34273 0.0
H346 H 0.28385 0.16187 0.31264 0.0
H347 H 0.31136 0.14139 0.33791 0.0
H348 H 0.31645 0.24603 0.29716 0.0
H349 H 0.24559 0.2598 0.3012 0.0
H350 H 0.24639 0.1681 0.36445 0.0
H351 H 0.23227 0.15265 0.33615 0.0
Li352 Li 0.98066 0.9723 0.40588 0.0
Li353 Li 0.02167 0.97159 0.40597 0.0
Li354 Li -0.00029 0.93754 0.40844 0.0
Li355 Li 0.00163 0.96675 0.42003 0.0
C356 C 0.00417 0.94098 0.39077 0.0
N357 N 0.01146 0.90743 0.37803 0.0
C358 C 0.02593 0.93664 0.38759 0.0
C359 C 0.98611 0.92826 0.38745 0.0
C360 C 0.02926 0.91963 0.38114 0.0
C361 C 0.99016 0.91136 0.38103 0.0
C362 C 0.01116 0.01347 0.41007 0.0
C363 C 0.041 0.04051 0.41224 0.0
N364 N 0.03228 0.05333 0.40542 0.0
C365 C 0.00243 0.02695 0.40311 0.0
C366 C 0.03053 0.02034 0.41472 0.0
C367 C 0.01337 0.04703 0.40085 0.0
C368 C 0.94433 0.00283 0.40526 0.0
N369 N 0.95566 0.98683 0.40047 0.0
C370 C 0.93294 0.99343 0.38734 0.0
C371 C 0.9503 0.9819 0.3917 0.0
C372 C 0.92122 0.01044 0.39202 0.0
C373 C 0.9269 0.01489 0.40114 0.0
H374 H 0.94925 0.00661 0.41219 0.0
H375 H 0.95983 0.96939 0.38802 0.0
C376 C 0.06847 0.97991 0.40302 0.0
N377 N 0.04715 0.98382 0.40007 0.0
C378 C 0.08675 0.98918 0.39835 0.0
C379 C 0.06063 0.00611 0.38771 0.0
C380 C 0.04297 0.99632 0.39251 0.0
C381 C 0.08292 0.00259 0.39059 0.0
H382 H 0.07129 0.96949 0.40895 0.0
H383 H 0.02581 -0.00124 0.39025 0.0
C384 C 0.95231 0.95345 0.41702 0.0
N385 N 0.90696 0.96226 0.41926 0.0
C386 C 0.94482 0.96563 0.42459 0.0
C387 C 0.93671 0.94566 0.41061 0.0
C388 C 0.92182 0.96991 0.4256 0.0
C389 C 0.91387 0.95034 0.41185 0.0
C390 C 0.03824 0.94196 0.42274 0.0
C391 C 0.03569 0.92032 0.42635 0.0
C392 C 0.05217 0.95752 0.42714 0.0
C393 C 0.04703 0.91465 0.43437 0.0
C394 C 0.06317 0.95121 0.43516 0.0
N395 N 0.0604 0.93009 0.43858 0.0
C396 C 0.0189 0.89595 0.40396 0.0
C397 C 0.97921 0.89523 0.40569 0.0
C398 C 0.01898 0.8735 0.40117 0.0
N399 N -0.00082 0.90631 0.40605 0.0
C400 C 0.97846 0.87284 0.40285 0.0
C401 C -0.00148 0.86172 0.40047 0.0
H402 H 0.0345 0.90532 0.40428 0.0
H403 H 0.96381 0.90397 0.40735 0.0
C404 C 0.00262 0.99456 0.43558 0.0
N405 N 0.00182 0.97278 0.43272 0.0
C406 C 0.00236 -0.00042 0.44486 0.0
C407 C 0.0005 0.95964 0.4481 0.0
C408 C 0.0004 0.95542 0.43874 0.0
C409 C 0.00142 0.98197 0.45123 0.0
H410 H 0.00324 0.00804 0.43064 0.0
H411 H -0.00094 0.93831 0.43627 0.0
O412 O 0.00063 0.95717 0.39727 0.0
O413 O 0.00096 0.99352 0.41227 0.0
O414 O 0.9748 0.94939 0.41583 0.0
O415 O 0.02711 0.94791 0.41494 0.0
H416 H 0.04016 0.94608 0.39014 0.0
H417 H 0.96922 0.93103 0.38997 0.0
H418 H 0.04602 0.91604 0.37865 0.0
H419 H 0.97637 0.90126 0.37847 0.0
H420 H 0.05609 0.04596 0.41574 0.0
H421 H 0.98755 0.02185 0.3994 0.0
H422 H 0.03753 0.0101 0.42012 0.0
H423 H 0.00688 0.05757 0.39544 0.0
H424 H 0.92898 0.98929 0.38033 0.0
H425 H 0.91857 0.0281 0.40496 0.0
H426 H 0.10364 0.98571 0.40073 0.0
H427 H 0.05676 0.01661 0.38188 0.0
H428 H 0.9566 0.97185 0.42961 0.0
H429 H 0.94221 0.93656 0.40462 0.0
H430 H 0.9158 0.97937 0.43141 0.0
H431 H 0.90164 0.94459 0.40691 0.0
H432 H 0.02489 0.9081 0.42306 0.0
H433 H 0.05428 0.97434 0.42444 0.0
H434 H 0.04514 0.898 0.43727 0.0
H435 H 0.07389 0.96313 0.43867 0.0
H436 H 0.03488 0.8655 0.39958 0.0
H437 H 0.96228 0.86454 0.40231 0.0
H438 H 0.00307 0.017 0.44705 0.0
H439 H -0.00058 0.94567 0.45283 0.0
Li440 Li 0.28021 0.77604 0.65328 0.0
Li441 Li 0.28397 0.75366 0.66709 0.0
Li442 Li 0.31316 0.75358 0.65541 0.0
Li443 Li 0.27725 0.73496 0.6529 0.0
C444 C 0.30294 0.80163 0.66449 0.0
N445 N 0.30056 0.8477 0.66704 0.0
C446 C 0.2908 0.81048 0.67182 0.0
C447 C 0.314 0.81618 0.65849 0.0
C448 C 0.28979 0.83384 0.67299 0.0
C449 C 0.31254 0.83943 0.65988 0.0
C450 C 0.23668 0.74879 0.65683 0.0
C451 C 0.2075 0.72067 0.65796 0.0
N452 N 0.19566 0.73152 0.65135 0.0
C453 C 0.22421 0.75969 0.65006 0.0
C454 C 0.22824 0.72917 0.66084 0.0
C455 C 0.20351 0.75069 0.64738 0.0
C456 C 0.27264 0.80775 0.63938 0.0
N457 N 0.26824 0.80288 0.64824 0.0
C458 C 0.24339 0.83439 0.64941 0.0
C459 C 0.25411 0.81582 0.65331 0.0
C460 C 0.2471 0.83942 0.64017 0.0
C461 C 0.26227 0.82609 0.63519 0.0
H462 H 0.28359 0.79696 0.63546 0.0
H463 H 0.25056 0.81122 0.6603 0.0
C464 C 0.29593 0.75484 0.68567 0.0
N465 N 0.27836 0.75292 0.67979 0.0
C466 C 0.2923 0.75351 0.69505 0.0
C467 C 0.25248 0.74909 0.69213 0.0
C468 C 0.25691 0.75034 0.68281 0.0
C469 C 0.27032 0.75052 0.69839 0.0
H470 H 0.31279 0.75715 0.68306 0.0
H471 H 0.24322 0.7493 0.67799 0.0
C472 C 0.30825 0.75262 0.63744 0.0
N473 N 0.33937 0.74696 0.62363 0.0
C474 C 0.30924 0.73229 0.63263 0.0
C475 C 0.32299 0.77011 0.63518 0.0
C476 C 0.3251 0.72976 0.62568 0.0
C477 C 0.33865 0.7669 0.62819 0.0
C478 C 0.30632 0.71586 0.66954 0.0
C479 C 0.32826 0.71745 0.67293 0.0
C480 C 0.29035 0.70296 0.6742 0.0
C481 C 0.33381 0.70621 0.68099 0.0
C482 C 0.29656 0.69202 0.68225 0.0
N483 N 0.31797 0.69386 0.68545 0.0
C484 C 0.3589 0.76733 0.65518 0.0
C485 C 0.35092 0.73159 0.64872 0.0
C486 C 0.38158 0.76521 0.65286 0.0
N487 N 0.34416 0.75071 0.65299 0.0
C488 C 0.37327 0.72898 0.64608 0.0
C489 C 0.38902 0.74593 0.64813 0.0
H490 H 0.35303 0.78221 0.65871 0.0
H491 H 0.33877 0.71856 0.64717 0.0
C492 C 0.25084 0.71372 0.6395 0.0
N493 N 0.26381 0.71009 0.64698 0.0
C494 C 0.24155 0.69555 0.63479 0.0
C495 C 0.25953 0.67028 0.64549 0.0
C496 C 0.26837 0.68896 0.65002 0.0
C497 C 0.24595 0.67345 0.63776 0.0
H498 H 0.2479 0.73074 0.63715 0.0
H499 H 0.27918 0.68658 0.65586 0.0
O500 O 0.30384 0.77885 0.66315 0.0
O501 O 0.25715 0.75715 0.65945 0.0
O502 O 0.29307 0.7553 0.64438 0.0
O503 O 0.30045 0.72704 0.66174 0.0
H504 H 0.28208 0.79947 0.67652 0.0
H505 H 0.32341 0.8096 0.65276 0.0
H506 H 0.28037 0.84094 0.67861 0.0
H507 H 0.32089 0.8509 0.65525 0.0
H508 H 0.20084 0.70541 0.66096 0.0
H509 H 0.23052 0.77482 0.64684 0.0
H510 H 0.23777 0.7204 0.66603 0.0
H511 H 0.19372 0.7589 0.64213 0.0
H512 H 0.23154 0.84403 0.65344 0.0
H513 H 0.26566 0.82948 0.62807 0.0
H514 H 0.3066 0.75449 0.69961 0.0
H515 H 0.23523 0.74727 0.6944 0.0
H516 H 0.29807 0.71852 0.63431 0.0
H517 H 0.3226 0.78589 0.63887 0.0
H518 H 0.32612 0.71409 0.62193 0.0
H519 H 0.35027 0.78023 0.62643 0.0
H520 H 0.34081 0.72742 0.66943 0.0
H521 H 0.27327 0.70166 0.6717 0.0
H522 H 0.35069 0.70737 0.68372 0.0
H523 H 0.28433 0.68212 0.68597 0.0
H524 H 0.39312 0.77847 0.65481 0.0
H525 H 0.378 0.71398 0.64234 0.0
H526 H 0.23098 0.69879 0.62893 0.0
H527 H 0.26367 0.65355 0.64792 0.0
Li528 Li 0.51028 0.05809 0.90643 0.0
Li529 Li 0.50943 0.03122 0.91904 0.0
Li530 Li 0.53307 0.02469 0.90516 0.0
Li531 Li 0.49218 0.02019 0.90445 0.0
C532 C 0.54616 0.06837 0.91693 0.0
N533 N 0.56692 0.10826 0.92182 0.0
C534 C 0.54225 0.0778 0.92551 0.0
C535 C 0.56089 0.07904 0.91088 0.0
C536 C 0.55285 0.09802 0.92785 0.0
C537 C 0.57113 0.09926 0.91347 0.0
C538 C 0.46494 0.04894 0.91797 0.0
C539 C 0.43185 0.03507 0.92568 0.0
N540 N 0.42741 0.05628 0.92871 0.0
C541 C 0.45986 0.07065 0.92106 0.0
C542 C 0.45067 0.03104 0.92021 0.0
C543 C 0.44088 0.074 0.92652 0.0
C544 C 0.50483 0.09332 0.89399 0.0
N545 N 0.50743 0.08869 0.903 0.0
C546 C 0.50376 0.12764 0.90677 0.0
C547 C 0.50686 0.10527 0.90938 0.0
C548 C 0.50104 0.13291 0.8975 0.0
C549 C 0.50171 0.11544 0.89106 0.0
H550 H 0.5047 0.07979 0.88907 0.0
H551 H 0.50843 0.1011 0.91652 0.0
C552 C 0.52036 0.00947 0.93527 0.0
N553 N 0.50833 0.02704 0.93187 0.0
C554 C 0.52028 0.00499 0.9446 0.0
C555 C 0.49585 0.03713 0.9468 0.0
C556 C 0.49643 0.04098 0.93742 0.0
C557 C 0.50781 0.01886 0.9505 0.0
H558 H 0.53005 -0.00108 0.93072 0.0
H559 H 0.48754 0.05522 0.93461 0.0
C560 C 0.52249 0.03524 0.88777 0.0
N561 N 0.54449 0.03095 0.87127 0.0
C562 C 0.51478 0.01982 0.88128 0.0
C563 C 0.54117 0.04871 0.88582 0.0
C564 C 0.52619 0.01785 0.87299 0.0
C565 C 0.55213 0.04622 0.87746 0.0
C566 C 0.50686 0.98168 0.91395 0.0
C567 C 0.51705 0.96305 0.90982 0.0
C568 C 0.48959 0.97834 0.92027 0.0
C569 C 0.50941 0.9414 0.91193 0.0
C570 C 0.48244 0.95643 0.92221 0.0
N571 N 0.49239 0.93857 0.91802 0.0
C572 C 0.58056 0.0193 0.90358 0.0
C573 C 0.55794 0.9962 0.89407 0.0
C574 C 0.60016 0.01004 0.89986 0.0
N575 N 0.56004 0.01232 0.90058 0.0
C576 C 0.57698 0.98689 0.89005 0.0
C577 C 0.59837 0.99385 0.89293 0.0
H578 H 0.58167 0.032 0.90885 0.0
H579 H 0.5414 0.99066 0.89197 0.0
C580 C 0.4484 0.01459 0.89744 0.0
N581 N 0.46874 0.00446 0.89853 0.0
C582 C 0.43138 0.00384 0.89252 0.0
C583 C 0.45672 0.97259 0.8899 0.0
C584 C 0.4732 0.98393 0.89486 0.0
C585 C 0.43553 0.98262 0.88862 0.0
H586 H 0.44556 0.03123 0.90021 0.0
H587 H 0.48976 0.97663 0.89555 0.0
O588 O 0.53591 0.04861 0.91452 0.0
O589 O 0.48346 0.04541 0.91261 0.0
O590 O 0.51173 0.03718 0.89598 0.0
O591 O 0.51413 0.003 0.91193 0.0
H592 H 0.53105 0.0697 0.9303 0.0
H593 H 0.5644 0.0718 0.90428 0.0
H594 H 0.54986 0.10559 0.93444 0.0
H595 H 0.58247 0.10776 0.90884 0.0
H596 H 0.42072 0.02135 0.92748 0.0
H597 H 0.47054 0.08475 0.91932 0.0
H598 H 0.4539 0.01428 0.91766 0.0
H599 H 0.43687 0.09068 0.92901 0.0
H600 H 0.50349 0.14066 0.91194 0.0
H601 H 0.49929 0.11875 0.88387 0.0
H602 H 0.53011 0.991 0.94717 0.0
H603 H 0.48596 0.04821 0.95109 0.0
H604 H 0.50023 0.00941 0.88263 0.0
H605 H 0.54717 0.0609 0.89072 0.0
H606 H 0.52049 0.00589 0.86792 0.0
H607 H 0.5667 0.05644 0.87588 0.0
H608 H 0.53063 0.96527 0.905 0.0
H609 H 0.48196 0.99247 0.92373 0.0
H610 H 0.51703 0.92685 0.90873 0.0
H611 H 0.46905 0.95363 0.92707 0.0
H612 H 0.61647 0.01563 0.90227 0.0
H613 H 0.57502 0.97411 0.88483 0.0
H614 H 0.4154 0.01231 0.89158 0.0
H615 H 0.46058 0.95619 0.88706 0.0
Li616 Li 0.22538 0.24106 0.17009 0.0
Li617 Li 0.23039 0.21348 0.15796 0.0
Li618 Li 0.23533 0.25383 0.15513 0.0
Li619 Li 0.19837 0.2377 0.15765 0.0
C620 C 0.27454 0.24002 0.1613 0.0
N621 N 0.31768 0.25299 0.1566 0.0
C622 C 0.28796 0.22591 0.15595 0.0
C623 C 0.28311 0.26068 0.16431 0.0
C624 C 0.30972 0.23277 0.15364 0.0
C625 C 0.30494 0.26695 0.16184 0.0
C626 C 0.20404 0.19342 0.16985 0.0
C627 C 0.19333 0.15482 0.16707 0.0
N628 N 0.20234 0.14884 0.17524 0.0
C629 C 0.2131 0.18693 0.17824 0.0
C630 C 0.19396 0.17728 0.16423 0.0
C631 C 0.2121 0.1643 0.18083 0.0
C632 C 0.21151 0.24699 0.18847 0.0
N633 N 0.22949 0.24578 0.18276 0.0
C634 C 0.25502 0.2488 0.19525 0.0
C635 C 0.25093 0.24666 0.18595 0.0
C636 C 0.23683 0.24997 0.20134 0.0
C637 C 0.21481 0.24931 0.19785 0.0
H638 H 0.19463 0.24574 0.18576 0.0
H639 H 0.26491 0.24524 0.18129 0.0
C640 C 0.24147 0.17701 0.14653 0.0
N641 N 0.24238 0.18478 0.15522 0.0
C642 C 0.25307 0.15746 0.14411 0.0
C643 C 0.26552 0.15386 0.15973 0.0
C644 C 0.25385 0.17358 0.16183 0.0
C645 C 0.26575 0.14591 0.15071 0.0
H646 H 0.23265 0.18656 0.14137 0.0
H647 H 0.25469 0.18048 0.16864 0.0
C648 C 0.20454 0.27996 0.1696 0.0
N649 N 0.19141 0.30787 0.1837 0.0
C650 C 0.18213 0.28017 0.17249 0.0
C651 C 0.22025 0.29403 0.17383 0.0
C652 C 0.17583 0.2944 0.17964 0.0
C653 C 0.21329 0.30798 0.18097 0.0
C654 C 0.20634 0.23165 0.14005 0.0
C655 C 0.20651 0.25042 0.13429 0.0
C656 C 0.19188 0.21364 0.13819 0.0
C657 C 0.19197 0.25095 0.12681 0.0
C658 C 0.17757 0.21485 0.13065 0.0
N659 N 0.17791 0.23332 0.12516 0.0
C660 C 0.26639 0.26873 0.14194 0.0
C661 C 0.24658 0.29773 0.14964 0.0
C662 C 0.27836 0.28459 0.13688 0.0
N663 N 0.25118 0.27557 0.14827 0.0
C664 C 0.2579 0.31417 0.14464 0.0
C665 C 0.27422 0.3077 0.13821 0.0
H666 H 0.26932 0.25094 0.14088 0.0
H667 H 0.23399 0.30264 0.15458 0.0
C668 C 0.15247 0.22532 0.15704 0.0
N669 N 0.16797 0.2406 0.15422 0.0
C670 C 0.13006 0.22748 0.15436 0.0
C671 C 0.14013 0.26098 0.14589 0.0
C672 C 0.16225 0.25836 0.14886 0.0
C673 C 0.12364 0.24544 0.14866 0.0
H674 H 0.15749 0.21159 0.16143 0.0
H675 H 0.17497 0.2704 0.14684 0.0
O676 O 0.25308 0.23374 0.16355 0.0
O677 O 0.20507 0.21544 0.16713 0.0
O678 O 0.21113 0.26592 0.16271 0.0
O679 O 0.22019 0.23096 0.14749 0.0
H680 H 0.28161 0.20991 0.15353 0.0
H681 H 0.2729 0.27187 0.16842 0.0
H682 H 0.32027 0.22206 0.14947 0.0
H683 H 0.31172 0.28295 0.16407 0.0
H684 H 0.18571 0.14213 0.16276 0.0
H685 H 0.221 0.19918 0.18266 0.0
H686 H 0.1869 0.18202 0.15771 0.0
H687 H 0.21913 0.15901 0.18729 0.0
H688 H 0.27224 0.24941 0.19767 0.0
H689 H 0.20035 0.24985 0.20234 0.0
H690 H 0.25311 0.15224 0.13703 0.0
H691 H 0.27488 0.14539 0.16506 0.0
H692 H 0.16976 0.26934 0.16931 0.0
H693 H 0.23768 0.294 0.17169 0.0
H694 H 0.15856 0.29469 0.18198 0.0
H695 H 0.2253 0.31885 0.18435 0.0
H696 H 0.21756 0.26452 0.13563 0.0
H697 H 0.19153 0.19901 0.14258 0.0
H698 H 0.19182 0.26542 0.12232 0.0
H699 H 0.16617 0.20111 0.12917 0.0
H700 H 0.29093 0.27877 0.13208 0.0
H701 H 0.25374 0.33172 0.14575 0.0
H702 H 0.11787 0.21541 0.15686 0.0
H703 H 0.13608 0.27494 0.14143 0.0
Li704 Li 0.78288 0.2517 0.16837 0.0
Li705 Li 0.77506 0.27205 0.15428 0.0
Li706 Li 0.77633 0.23083 0.15474 0.0
Li707 Li 0.81046 0.25307 0.15602 0.0
C708 C 0.73509 0.24152 0.1589 0.0
N709 N 0.69569 0.22024 0.15378 0.0
C710 C 0.72171 0.25062 0.15198 0.0
C711 C 0.72836 0.22167 0.16325 0.0
C712 C 0.70185 0.2396 0.14949 0.0
C713 C 0.70842 0.21113 0.16054 0.0
C714 C 0.79858 0.30089 0.16455 0.0
C715 C 0.80577 0.33842 0.15894 0.0
N716 N 0.79621 0.34714 0.16658 0.0
C717 C 0.7889 0.31023 0.17237 0.0
C718 C 0.8072 0.31508 0.1578 0.0
C719 C 0.78784 0.33366 0.17327 0.0
C720 C 0.79619 0.2585 0.18666 0.0
N721 N 0.77878 0.2525 0.18117 0.0
C722 C 0.75455 0.2478 0.19399 0.0
C723 C 0.75822 0.24729 0.18461 0.0
C724 C 0.77219 0.25393 0.19987 0.0
C725 C 0.79327 0.25928 0.1961 0.0
H726 H 0.8123 0.26281 0.1837 0.0
H727 H 0.74463 0.24279 0.18007 0.0
C728 C 0.76166 0.30128 0.14013 0.0
N729 N 0.76067 0.29767 0.14926 0.0
C730 C 0.75191 0.32051 0.13636 0.0
C731 C 0.74018 0.33184 0.15146 0.0
C732 C 0.74976 0.31216 0.15491 0.0
C733 C 0.7412 0.3363 0.14206 0.0
H734 H 0.76994 0.28917 0.13577 0.0
H735 H 0.74879 0.30856 0.16212 0.0
C736 C 0.80969 0.21765 0.17119 0.0
N737 N 0.82609 0.20119 0.1875 0.0
C738 C 0.83174 0.2225 0.17388 0.0
C739 C 0.79601 0.20435 0.17677 0.0
C740 C 0.83971 0.21401 0.18216 0.0
C741 C 0.8046 0.19623 0.185 0.0
C742 C 0.80304 0.2498 0.13819 0.0
C743 C 0.80633 0.22897 0.13394 0.0
C744 C 0.81448 0.2688 0.13499 0.0
C745 C 0.82121 0.22747 0.12659 0.0
C746 C 0.82925 0.26659 0.12764 0.0
N747 N 0.83229 0.24615 0.12362 0.0
C748 C 0.75155 0.20534 0.14205 0.0
C749 C 0.76843 0.18407 0.15391 0.0
C750 C 0.74195 0.18591 0.13837 0.0
N751 N 0.76426 0.20406 0.14973 0.0
C752 C 0.7591 0.16423 0.15049 0.0
C753 C 0.74554 0.16504 0.14266 0.0
H754 H 0.74868 0.22152 0.13885 0.0
H755 H 0.7789 0.18354 0.15992 0.0
C756 C 0.85384 0.27226 0.15495 0.0
N757 N 0.84128 0.25379 0.15295 0.0
C758 C 0.87644 0.27312 0.15242 0.0
C759 C 0.87271 0.23588 0.14588 0.0
C760 C 0.85029 0.23562 0.14866 0.0
C761 C 0.88614 0.25483 0.14775 0.0
H762 H 0.84635 0.28625 0.15855 0.0
H763 H 0.83994 0.22099 0.14733 0.0
O764 O 0.75485 0.25178 0.16129 0.0
O765 O 0.79957 0.27799 0.16351 0.0
O766 O 0.80143 0.22616 0.16319 0.0
O767 O 0.78877 0.25155 0.14548 0.0
H768 H 0.72668 0.26591 0.14851 0.0
H769 H 0.73866 0.21422 0.16853 0.0
H770 H 0.69138 0.24641 0.14412 0.0
H771 H 0.70312 0.19565 0.16379 0.0
H772 H 0.81224 0.34959 0.15373 0.0
H773 H 0.78203 0.29954 0.17765 0.0
H774 H 0.81468 0.30816 0.15169 0.0
H775 H 0.7803 0.34111 0.17926 0.0
H776 H 0.73811 0.24328 0.1966 0.0
H777 H 0.80724 0.26439 0.20036 0.0
H778 H 0.75257 0.32279 0.12905 0.0
H779 H 0.73232 0.34351 0.15616 0.0
H780 H 0.84254 0.23284 0.16967 0.0
H781 H 0.7788 0.2007 0.17486 0.0
H782 H 0.85671 0.21769 0.18434 0.0
H783 H 0.79414 0.18608 0.18943 0.0
H784 H 0.79772 0.21406 0.13635 0.0
H785 H 0.81215 0.28503 0.1382 0.0
H786 H 0.82402 0.21144 0.12326 0.0
H787 H 0.83833 0.28112 0.12513 0.0
H788 H 0.7314 0.18727 0.13238 0.0
H789 H 0.76249 0.14843 0.15392 0.0
H790 H 0.88626 0.28783 0.15424 0.0
H791 H 0.87934 0.22146 0.14224 0.0
Li792 Li 0.72224 0.73544 0.66927 0.0
Li793 Li 0.73353 0.71292 0.65601 0.0
Li794 Li 0.73434 0.75444 0.65514 0.0
Li795 Li 0.69966 0.73366 0.65515 0.0
C796 C 0.77453 0.73719 0.66352 0.0
N797 N 0.82072 0.74303 0.66392 0.0
C798 C 0.78807 0.7276 0.65676 0.0
C799 C 0.78458 0.74951 0.67056 0.0
C800 C 0.81135 0.73082 0.65706 0.0
C801 C 0.80793 0.75234 0.67062 0.0
C802 C 0.70646 0.68647 0.66537 0.0
C803 C 0.70169 0.64838 0.65995 0.0
N804 N 0.70777 0.64048 0.66829 0.0
C805 C 0.71248 0.67798 0.67391 0.0
C806 C 0.70084 0.67158 0.65835 0.0
C807 C 0.7131 0.65467 0.67525 0.0
C808 C 0.70595 0.74561 0.68705 0.0
N809 N 0.72303 0.73654 0.6821 0.0
C810 C 0.74358 0.72781 0.6956 0.0
C811 C 0.74155 0.72764 0.68615 0.0
C812 C 0.72628 0.7371 0.70094 0.0
C813 C 0.70726 0.74612 0.69655 0.0
H814 H 0.69133 0.75239 0.68362 0.0
H815 H 0.75472 0.72031 0.68202 0.0
C816 C 0.75132 0.68133 0.64369 0.0
N817 N 0.74928 0.68652 0.65267 0.0
C818 C 0.76437 0.66298 0.641 0.0
C819 C 0.77246 0.65534 0.65686 0.0
C820 C 0.75949 0.67403 0.65923 0.0
C821 C 0.77534 0.6498 0.64761 0.0
H822 H 0.74342 0.69188 0.63862 0.0
H823 H 0.75786 0.67886 0.66631 0.0
C824 C 0.70781 0.77999 0.6677 0.0
N825 N 0.70917 0.81842 0.67832 0.0
C826 C 0.6884 0.79293 0.66892 0.0
C827 C 0.72788 0.78653 0.6719 0.0
C828 C 0.68943 0.81233 0.67431 0.0
C829 C 0.72825 0.80602 0.67723 0.0
C830 C 0.71237 0.73439 0.63798 0.0
C831 C 0.71157 0.75499 0.63337 0.0
C832 C 0.70079 0.7158 0.63447 0.0
C833 C 0.69893 0.75672 0.62537 0.0
C834 C 0.68831 0.71824 0.62646 0.0
N835 N 0.68763 0.73848 0.62212 0.0
C836 C 0.76877 0.77409 0.6451 0.0
C837 C 0.74258 0.80092 0.65063 0.0
C838 C 0.78157 0.79104 0.64108 0.0
N839 N 0.75007 0.77929 0.64999 0.0
C840 C 0.75479 0.81846 0.64665 0.0
C841 C 0.77473 0.81358 0.64192 0.0
H842 H 0.77355 0.75671 0.64418 0.0
H843 H 0.72706 0.80465 0.65414 0.0
C844 C 0.65649 0.71596 0.65214 0.0
N845 N 0.67 0.734 0.65058 0.0
C846 C 0.63446 0.71583 0.6489 0.0
C847 C 0.64076 0.75276 0.6424 0.0
C848 C 0.6626 0.75229 0.64589 0.0
C849 C 0.62629 0.73441 0.64394 0.0
H850 H 0.66271 0.70183 0.65604 0.0
H851 H 0.6737 0.76652 0.64486 0.0
O852 O 0.7517 0.73391 0.66344 0.0
O853 O 0.70603 0.70924 0.6639 0.0
O854 O 0.70692 0.76073 0.66259 0.0
O855 O 0.72441 0.73244 0.64589 0.0
H856 H 0.7807 0.71807 0.65124 0.0
H857 H 0.77453 0.75671 0.67597 0.0
H858 H 0.82197 0.72363 0.65182 0.0
H859 H 0.81589 0.76188 0.67602 0.0
H860 H 0.69757 0.63667 0.65455 0.0
H861 H 0.71671 0.68924 0.67945 0.0
H862 H 0.69612 0.67786 0.6517 0.0
H863 H 0.71783 0.64786 0.68181 0.0
H864 H 0.75867 0.72096 0.69868 0.0
H865 H 0.69343 0.75321 0.70042 0.0
H866 H 0.7665 0.65974 0.63379 0.0
H867 H 0.78037 0.64556 0.6622 0.0
H868 H 0.67269 0.788 0.66575 0.0
H869 H 0.74301 0.77672 0.67099 0.0
H870 H 0.67453 0.82253 0.67532 0.0
H871 H 0.74369 0.8113 0.68051 0.0
H872 H 0.72042 0.76955 0.63598 0.0
H873 H 0.70125 0.69974 0.63794 0.0
H874 H 0.69805 0.7726 0.62176 0.0
H875 H 0.67912 0.70404 0.62371 0.0
H876 H 0.79648 0.78653 0.63724 0.0
H877 H 0.74886 0.83564 0.64735 0.0
H878 H 0.6238 0.70156 0.65048 0.0
H879 H 0.63529 0.76736 0.63857 0.0
Li880 Li 0.69706 0.25079 0.34056 0.0
Li881 Li 0.73531 0.23776 0.34154 0.0
Li882 Li 0.72562 0.27772 0.34259 0.0
Li883 Li 0.72339 0.25848 0.32817 0.0
C884 C 0.70406 0.25074 0.35852 0.0
N885 N 0.67561 0.2451 0.37325 0.0
C886 C 0.70703 0.23255 0.36445 0.0
C887 C 0.6869 0.26631 0.3602 0.0
C888 C 0.69241 0.22993 0.37183 0.0
C889 C 0.6726 0.2631 0.36765 0.0
C890 C 0.72058 0.21193 0.32712 0.0
C891 C 0.75073 0.19567 0.31829 0.0
N892 N 0.73718 0.17798 0.31612 0.0
C893 C 0.70697 0.19359 0.32482 0.0
C894 C 0.74266 0.21299 0.32384 0.0
C895 C 0.71566 0.1766 0.31924 0.0
C896 C 0.65037 0.25731 0.34152 0.0
N897 N 0.66728 0.24271 0.34346 0.0
C898 C 0.64186 0.21768 0.35094 0.0
C899 C 0.66347 0.223 0.34792 0.0
C900 C 0.62405 0.2327 0.34924 0.0
C901 C 0.62848 0.25257 0.34433 0.0
H902 H 0.65396 0.27277 0.33791 0.0
H903 H 0.67738 0.21177 0.34936 0.0
C904 C 0.77556 0.21169 0.34399 0.0
N905 N 0.753 0.21296 0.34547 0.0
C906 C 0.78766 0.19292 0.34694 0.0
C907 C 0.75297 0.17667 0.35251 0.0
C908 C 0.74155 0.19576 0.34944 0.0
C909 C 0.77638 0.17519 0.35134 0.0
H910 H 0.78422 0.22508 0.34047 0.0
H911 H 0.72346 0.19685 0.35018 0.0
C912 C 0.69801 0.30167 0.33235 0.0
N913 N 0.69347 0.34773 0.33015 0.0
C914 C 0.70824 0.31252 0.32498 0.0
C915 C 0.68522 0.31423 0.33854 0.0
C916 C 0.7058 0.33582 0.324 0.0
C917 C 0.68321 0.3375 0.33733 0.0
C918 C 0.77088 0.26851 0.33976 0.0
C919 C 0.77262 0.2671 0.34926 0.0
C920 C 0.78967 0.27502 0.33466 0.0
C921 C 0.79309 0.2722 0.35347 0.0
C922 C 0.80985 0.27995 0.33913 0.0
N923 N 0.81112 0.27846 0.34836 0.0
C924 C 0.73142 0.30806 0.3573 0.0
C925 C 0.74485 0.321 0.34302 0.0
C926 C 0.73986 0.3272 0.36162 0.0
N927 N 0.73416 0.30528 0.34818 0.0
C928 C 0.75338 0.34051 0.34704 0.0
C929 C 0.75126 0.34355 0.35649 0.0
H930 H 0.72347 0.29505 0.3613 0.0
H931 H 0.74747 0.31799 0.33583 0.0
C932 C 0.71022 0.25259 0.30989 0.0
N933 N 0.72698 0.26012 0.31541 0.0
C934 C 0.71311 0.2525 0.30045 0.0
C935 C 0.75037 0.26811 0.3026 0.0
C936 C 0.74672 0.26795 0.31198 0.0
C937 C 0.7335 0.26015 0.29671 0.0
H938 H 0.69476 0.24632 0.31286 0.0
H939 H 0.75965 0.27391 0.31654 0.0
O940 O 0.71798 0.25337 0.35115 0.0
O941 O 0.71222 0.22863 0.33259 0.0
O942 O 0.70044 0.2789 0.33349 0.0
O943 O 0.7509 0.26403 0.33545 0.0
H944 H 0.72055 0.22064 0.36341 0.0
H945 H 0.68449 0.28059 0.35575 0.0
H946 H 0.69446 0.21586 0.37644 0.0
H947 H 0.65909 0.2749 0.36896 0.0
H948 H 0.76777 0.19628 0.3157 0.0
H949 H 0.68985 0.19252 0.32732 0.0
H950 H 0.75349 0.227 0.32557 0.0
H951 H 0.70531 0.16231 0.3174 0.0
H952 H 0.63925 0.20227 0.35475 0.0
H953 H 0.61519 0.26438 0.34268 0.0
H954 H 0.80571 0.19247 0.3459 0.0
H955 H 0.74356 0.16315 0.35568 0.0
H956 H 0.71817 0.30315 0.32011 0.0
H957 H 0.67696 0.30615 0.34422 0.0
H958 H 0.71376 0.34444 0.31836 0.0
H959 H 0.67347 0.34743 0.34209 0.0
H960 H 0.75843 0.2621 0.35338 0.0
H961 H 0.78873 0.27628 0.32732 0.0
H962 H 0.79463 0.27117 0.3608 0.0
H963 H 0.82449 0.285 0.33525 0.0
H964 H 0.73799 0.32893 0.36893 0.0
H965 H 0.76249 0.35253 0.34289 0.0
H966 H 0.69979 0.24603 0.29615 0.0
H967 H 0.7662 0.27444 0.29998 0.0
Li968 Li 0.77342 0.76334 0.84251 0.0
Li969 Li 0.80905 0.74388 0.84071 0.0
Li970 Li 0.78017 0.74247 0.82887 0.0
Li971 Li 0.77566 0.72214 0.84315 0.0
C972 C 0.80367 0.77848 0.82542 0.0
N973 N 0.81671 0.7956 0.80873 0.0
C974 C 0.82545 0.77466 0.82217 0.0
C975 C 0.78854 0.79109 0.82019 0.0
C976 C 0.83172 0.78347 0.81371 0.0
C977 C 0.79544 0.79956 0.81176 0.0
C978 C 0.80329 0.74722 0.85864 0.0
C979 C 0.83224 0.73321 0.86869 0.0
N980 N 0.83364 0.75388 0.87266 0.0
C981 C 0.80493 0.76829 0.86286 0.0
C982 C 0.81695 0.72949 0.86161 0.0
C983 C 0.82041 0.77132 0.86993 0.0
C984 C 0.74736 0.78793 0.85521 0.0
N985 N 0.76032 0.7895 0.8476 0.0
C986 C 0.75542 0.82938 0.84713 0.0
C987 C 0.76471 0.80966 0.84361 0.0
C988 C 0.74164 0.8283 0.85489 0.0
C989 C 0.73773 0.80725 0.85898 0.0
H990 H 0.74446 0.77164 0.85831 0.0
H991 H 0.77549 0.81045 0.8377 0.0
C992 C 0.85456 0.72958 0.84134 0.0
N993 N 0.84 0.74656 0.84326 0.0
C994 C 0.87731 0.73179 0.8435 0.0
C995 C 0.86948 0.76887 0.84959 0.0
C996 C 0.84702 0.7661 0.84715 0.0
C997 C 0.88504 0.7516 0.84776 0.0
H998 H 0.84853 0.71441 0.83807 0.0
H999 H 0.83503 0.77945 0.84844 0.0
C1000 C 0.73271 0.74909 0.83917 0.0
N1001 N 0.69205 0.76683 0.84486 0.0
C1002 C 0.72054 0.73857 0.84612 0.0
C1003 C 0.72415 0.76859 0.83509 0.0
C1004 C 0.70001 0.7478 0.8489 0.0
C1005 C 0.70359 0.77732 0.83807 0.0
C1006 C 0.80009 0.69485 0.83268 0.0
C1007 C 0.78975 0.6844 0.82524 0.0
C1008 C 0.81089 0.68171 0.83927 0.0
C1009 C 0.79021 0.66091 0.82456 0.0
C1010 C 0.81093 0.65828 0.83836 0.0
N1011 N 0.80068 0.64845 0.83108 0.0
C1012 C 0.7918 0.7357 0.81039 0.0
C1013 C 0.75398 0.74678 0.81302 0.0
C1014 C 0.78816 0.73551 0.80099 0.0
N1015 N 0.77481 0.7414 0.81616 0.0
C1016 C 0.74964 0.74697 0.80369 0.0
C1017 C 0.76687 0.74133 0.79755 0.0
H1018 H 0.80819 0.73146 0.81311 0.0
H1019 H 0.74075 0.75097 0.81776 0.0
C1020 C 0.76622 0.69268 0.85771 0.0
N1021 N 0.76382 0.69575 0.84859 0.0
C1022 C 0.75745 0.67346 0.86188 0.0
C1023 C 0.74404 0.6609 0.84716 0.0
C1024 C 0.75272 0.68055 0.84331 0.0
C1025 C 0.74629 0.65729 0.85656 0.0
H1026 H 0.77469 0.70526 0.86178 0.0
H1027 H 0.7505 0.68378 0.83611 0.0
O1028 O 0.79703 0.76955 0.83358 0.0
O1029 O 0.78848 0.74401 0.85162 0.0
O1030 O 0.75301 0.7405 0.83645 0.0
O1031 O 0.79962 0.71781 0.83351 0.0
H1032 H 0.83735 0.76482 0.82609 0.0
H1033 H 0.7715 0.79395 0.82255 0.0
H1034 H 0.84851 0.78057 0.8111 0.0
H1035 H 0.78385 0.80918 0.80761 0.0
H1036 H 0.84301 0.71968 0.87101 0.0
H1037 H 0.79458 0.78224 0.86064 0.0
H1038 H 0.81591 0.71309 0.85843 0.0
H1039 H 0.82195 0.78757 0.87322 0.0
H1040 H 0.75914 0.84532 0.84387 0.0
H1041 H 0.72705 0.80567 0.86493 0.0
H1042 H 0.88872 0.71826 0.84173 0.0
H1043 H 0.8745 0.78432 0.85296 0.0
H1044 H 0.7269 0.72352 0.84938 0.0
H1045 H 0.7335 0.77716 0.82979 0.0
H1046 H 0.69044 0.73987 0.85429 0.0
H1047 H 0.69687 0.7925 0.83503 0.0
H1048 H 0.78122 0.69428 0.82009 0.0
H1049 H 0.81896 0.68952 0.84507 0.0
H1050 H 0.78217 0.65259 0.81886 0.0
H1051 H 0.81909 0.6479 0.84344 0.0
H1052 H 0.8019 0.7312 0.79647 0.0
H1053 H 0.73291 0.75121 0.80131 0.0
H1054 H 0.75937 0.67124 0.86916 0.0
H1055 H 0.73514 0.64896 0.84289 0.0
Li1056 Li 0.50478 0.52851 0.07713 0.0
Li1057 Li 0.50002 0.55133 0.09095 0.0
Li1058 Li 0.52527 0.51958 0.0911 0.0
Li1059 Li 0.48418 0.51538 0.09032 0.0
C1060 C 0.5479 0.54696 0.07903 0.0
N1061 N 0.58852 0.54675 0.06986 0.0
C1062 C 0.5613 0.56631 0.07887 0.0
C1063 C 0.55519 0.52747 0.07456 0.0
C1064 C 0.58177 0.56587 0.07419 0.0
C1065 C 0.57576 0.52771 0.06995 0.0
C1066 C 0.45459 0.53781 0.07986 0.0
C1067 C 0.4151 0.53642 0.08376 0.0
N1068 N 0.41019 0.52998 0.07509 0.0
C1069 C 0.44904 0.53154 0.07095 0.0
C1070 C 0.43739 0.54062 0.08628 0.0
C1071 C 0.42655 0.52754 0.06869 0.0
C1072 C 0.49959 0.50773 0.06037 0.0
N1073 N 0.5072 0.52698 0.0643 0.0
C1074 C 0.52012 0.54076 0.04993 0.0
C1075 C 0.51705 0.54356 0.05931 0.0
C1076 C 0.51265 0.52085 0.04568 0.0
C1077 C 0.50194 0.50438 0.05103 0.0
H1078 H 0.49154 0.49502 0.06452 0.0
H1079 H 0.52297 0.55871 0.06263 0.0
C1080 C 0.51506 0.5916 0.09878 0.0
N1081 N 0.4967 0.58091 0.09537 0.0
C1082 C 0.51322 0.61362 0.10203 0.0
C1083 C 0.4735 0.61283 0.09839 0.0
C1084 C 0.47617 0.59094 0.09513 0.0
C1085 C 0.49224 0.62459 0.10179 0.0
H1086 H 0.53115 0.58306 0.09889 0.0
H1087 H 0.46187 0.58192 0.0924 0.0
C1088 C 0.5083 0.47694 0.0859 0.0
N1089 N 0.50987 0.43249 0.09152 0.0
C1090 C 0.50889 0.4717 0.0952 0.0
C1091 C 0.50854 0.45954 0.07948 0.0
C1092 C 0.50967 0.44913 0.09789 0.0
C1093 C 0.50934 0.43719 0.08245 0.0
C1094 C 0.49856 0.53897 0.1084 0.0
C1095 C 0.51547 0.54099 0.11498 0.0
C1096 C 0.47746 0.54854 0.11006 0.0
C1097 C 0.51124 0.55322 0.12293 0.0
C1098 C 0.47387 0.56069 0.11808 0.0
N1099 N 0.49072 0.5628 0.1243 0.0
C1100 C 0.56526 0.52179 0.10127 0.0
C1101 C 0.56244 0.4893 0.09194 0.0
C1102 C 0.58577 0.51434 0.10479 0.0
N1103 N 0.55365 0.50882 0.09525 0.0
C1104 C 0.5831 0.48143 0.09512 0.0
C1105 C 0.59472 0.49379 0.10177 0.0
H1106 H 0.55856 0.53794 0.10333 0.0
H1107 H 0.55352 0.4798 0.08681 0.0
C1108 C 0.44852 0.48525 0.08718 0.0
N1109 N 0.46003 0.49645 0.09378 0.0
C1110 C 0.43072 0.47104 0.08949 0.0
C1111 C 0.43768 0.47941 0.10538 0.0
C1112 C 0.45513 0.49367 0.10274 0.0
C1113 C 0.4251 0.46794 0.09871 0.0
H1114 H 0.45316 0.48742 0.08011 0.0
H1115 H 0.46501 0.50224 0.10786 0.0
O1116 O 0.52793 0.54714 0.08368 0.0
O1117 O 0.47662 0.54168 0.08221 0.0
O1118 O 0.50723 0.49891 0.08307 0.0
O1119 O 0.50246 0.52726 0.10049 0.0
H1120 H 0.55593 0.5815 0.08234 0.0
H1121 H 0.54509 0.51231 0.07463 0.0
H1122 H 0.59231 0.58073 0.07399 0.0
H1123 H 0.58159 0.51276 0.06645 0.0
H1124 H 0.4017 0.53829 0.08869 0.0
H1125 H 0.46188 0.52995 0.0658 0.0
H1126 H 0.44112 0.54577 0.09315 0.0
H1127 H 0.42211 0.52255 0.06183 0.0
H1128 H 0.52868 0.55382 0.04613 0.0
H1129 H 0.49532 0.48906 0.04805 0.0
H1130 H 0.52819 0.62213 0.10446 0.0
H1131 H 0.45695 0.62048 0.0982 0.0
H1132 H 0.50878 0.48484 0.10029 0.0
H1133 H 0.50818 0.46324 0.07226 0.0
H1134 H 0.51012 0.44486 0.10506 0.0
H1135 H 0.50954 0.42357 0.07755 0.0
H1136 H 0.53157 0.53292 0.11405 0.0
H1137 H 0.46405 0.54676 0.10517 0.0
H1138 H 0.52424 0.55498 0.12805 0.0
H1139 H 0.45768 0.5684 0.11938 0.0
H1140 H 0.59456 0.52446 0.1098 0.0
H1141 H 0.58961 0.46554 0.09261 0.0
H1142 H 0.42144 0.4627 0.08411 0.0
H1143 H 0.4344 0.47707 0.11257 0.0
Li1144 Li 0.00048 0.47392 0.59044 0.0
Li1145 Li 0.04257 0.47009 0.58941 0.0
Li1146 Li 0.01628 0.46199 0.57625 0.0
Li1147 Li 0.01799 0.43771 0.58906 0.0
C1148 C 0.01537 0.51285 0.584 0.0
N1149 N 0.00138 0.5566 0.58712 0.0
C1150 C 0.02829 0.52723 0.58944 0.0
C1151 C 0.99548 0.52081 0.58006 0.0
C1152 C 0.0209 0.54927 0.59096 0.0
C1153 C 0.98864 0.54295 0.58175 0.0
C1154 C 0.02059 0.44761 0.60671 0.0
C1155 C 0.03805 0.42514 0.61843 0.0
N1156 N 0.01738 0.42053 0.62195 0.0
C1157 C -0.00047 0.4428 0.61047 0.0
C1158 C 0.04004 0.43884 0.61072 0.0
C1159 C -0.00174 0.42902 0.61817 0.0
C1160 C 0.95557 0.48386 0.59496 0.0
N1161 N 0.97732 0.48986 0.59645 0.0
C1162 C 0.9661 0.5173 0.60744 0.0
C1163 C 0.98289 0.506 0.60262 0.0
C1164 C 0.9434 0.51153 0.60605 0.0
C1165 C 0.93825 0.49453 0.59971 0.0
H1166 H 0.95169 0.47045 0.59023 0.0
H1167 H 0.0004 0.50997 0.60383 0.0
C1168 C 0.08721 0.4847 0.58696 0.0
N1169 N 0.07024 0.48233 0.59308 0.0
C1170 C 0.10722 0.49529 0.58952 0.0
C1171 C 0.0918 0.50051 0.60464 0.0
C1172 C 0.0722 0.4897 0.6018 0.0
C1173 C 0.10957 0.50365 0.59844 0.0
H1174 H 0.08502 0.4787 0.58005 0.0
H1175 H 0.05822 0.48783 0.60646 0.0
C1176 C 0.97677 0.44274 0.57583 0.0
N1177 N 0.94943 0.43148 0.56128 0.0
C1178 C 0.97566 0.42043 0.57278 0.0
C1179 C 0.96382 0.45927 0.57152 0.0
C1180 C 0.96175 0.41509 0.56541 0.0
C1181 C 0.95016 0.45326 0.56416 0.0
C1182 C 0.05408 0.42496 0.57919 0.0
C1183 C 0.04346 0.40735 0.57455 0.0
C1184 C 0.07604 0.42208 0.58242 0.0
C1185 C 0.05493 0.38703 0.57329 0.0
C1186 C 0.08696 0.40152 0.581 0.0
N1187 N 0.07626 0.38456 0.57651 0.0
C1188 C 0.01631 0.48665 0.56006 0.0
C1189 C 0.01143 0.44744 0.55769 0.0
C1190 C 0.01543 0.49064 0.55071 0.0
N1191 N 0.01423 0.46536 0.56336 0.0
C1192 C 0.01022 0.45068 0.54828 0.0
C1193 C 0.01237 0.47252 0.5447 0.0
H1194 H 0.01888 0.50058 0.56468 0.0
H1195 H 0.01021 0.43063 0.56044 0.0
C1196 C 0.99392 0.40034 0.59503 0.0
N1197 N 0.01526 0.40794 0.59378 0.0
C1198 C 0.99011 0.37943 0.59906 0.0
C1199 C 0.03035 0.37469 0.60061 0.0
C1200 C 0.03335 0.39582 0.59664 0.0
C1201 C 0.00848 0.36619 0.60183 0.0
H1202 H 0.97979 0.41077 0.59309 0.0
H1203 H 0.05009 0.40268 0.59601 0.0
O1204 O 0.02218 0.4911 0.58253 0.0
O1205 O 0.02213 0.46055 0.59903 0.0
O1206 O 0.9904 0.44835 0.583 0.0
O1207 O 0.04319 0.445 0.58049 0.0
H1208 H 0.0438 0.52144 0.5925 0.0
H1209 H 0.98537 0.50998 0.57577 0.0
H1210 H 0.03068 0.56055 0.59519 0.0
H1211 H 0.97321 0.54928 0.57878 0.0
H1212 H 0.05294 0.41809 0.62157 0.0
H1213 H 0.98432 0.4494 0.60741 0.0
H1214 H 0.05645 0.44232 0.60785 0.0
H1215 H 0.98206 0.425 0.62113 0.0
H1216 H 0.97089 0.53044 0.61218 0.0
H1217 H 0.92106 0.48915 0.59856 0.0
H1218 H 0.12056 0.49716 0.58455 0.0
H1219 H 0.09264 0.50708 0.61152 0.0
H1220 H 0.98559 0.40739 0.576 0.0
H1221 H 0.96438 0.47657 0.57381 0.0
H1222 H 0.96083 0.39792 0.56295 0.0
H1223 H 0.94016 0.46592 0.56073 0.0
H1224 H 0.02643 0.40922 0.57209 0.0
H1225 H 0.0845 0.43552 0.58604 0.0
H1226 H 0.04685 0.37321 0.56976 0.0
H1227 H 0.10392 0.39902 0.58349 0.0
H1228 H 0.01702 0.50775 0.54822 0.0
H1229 H 0.00811 0.43624 0.54384 0.0
H1230 H 0.97294 0.37384 0.60008 0.0
H1231 H 0.04502 0.36507 0.60262 0.0
Li1232 Li 0.48555 0.478 0.90512 0.0
Li1233 Li 0.52652 0.47328 0.90404 0.0
Li1234 Li 0.50091 0.44175 0.90465 0.0
Li1235 Li 0.50665 0.46537 0.91826 0.0
C1236 C 0.49875 0.45395 0.887 0.0
N1237 N 0.48983 0.4309 0.871 0.0
C1238 C 0.5148 0.45318 0.88004 0.0
C1239 C 0.4779 0.44354 0.88567 0.0
C1240 C 0.51005 0.44132 0.87204 0.0
C1241 C 0.47378 0.4318 0.87759 0.0
C1242 C 0.5104 0.51636 0.90896 0.0
C1243 C 0.51227 0.55629 0.91199 0.0
N1244 N 0.51253 0.56041 0.90287 0.0
C1245 C 0.51071 0.52101 0.89961 0.0
C1246 C 0.5112 0.53415 0.9152 0.0
C1247 C 0.51178 0.54338 0.89668 0.0
C1248 C 0.45013 0.50814 0.90842 0.0
N1249 N 0.46123 0.49678 0.90176 0.0
C1250 C 0.43723 0.5124 0.89037 0.0
C1251 C 0.45537 0.49882 0.89286 0.0
C1252 C 0.42493 0.52386 0.89713 0.0
C1253 C 0.43165 0.52161 0.90627 0.0
H1254 H 0.45547 0.50647 0.91544 0.0
H1255 H 0.46486 0.49005 0.88768 0.0
C1256 C 0.5658 0.47112 0.89328 0.0
N1257 N 0.55482 0.48361 0.89966 0.0
C1258 C 0.58644 0.47841 0.88981 0.0
C1259 C 0.58507 0.51007 0.90018 0.0
C1260 C 0.56426 0.50247 0.90329 0.0
C1261 C 0.59614 0.49818 0.89326 0.0
H1262 H 0.55858 0.45545 0.89094 0.0
H1263 H 0.55576 0.51157 0.90865 0.0
C1264 C 0.45623 0.45616 0.91599 0.0
N1265 N 0.41203 0.4641 0.92105 0.0
C1266 C 0.45105 0.46246 0.92493 0.0
C1267 C 0.43876 0.45335 0.9097 0.0
C1268 C 0.42866 0.46653 0.92734 0.0
C1269 C 0.41659 0.45761 0.91236 0.0
C1270 C 0.54954 0.44587 0.91605 0.0
C1271 C 0.56283 0.42645 0.91587 0.0
C1272 C 0.55735 0.46512 0.92055 0.0
C1273 C 0.58372 0.42657 0.92025 0.0
C1274 C 0.57833 0.46457 0.92484 0.0
N1275 N 0.59097 0.44546 0.9246 0.0
C1276 C 0.51428 0.40106 0.89657 0.0
C1277 C 0.47623 0.40229 0.90145 0.0
C1278 C 0.51155 0.37901 0.89346 0.0
N1279 N 0.49676 0.41206 0.90052 0.0
C1280 C 0.47267 0.38039 0.89835 0.0
C1281 C 0.49055 0.36833 0.8944 0.0
H1282 H 0.5304 0.40941 0.89592 0.0
H1283 H 0.46261 0.41154 0.90457 0.0
C1284 C 0.50175 0.48739 0.93468 0.0
N1285 N 0.50948 0.46783 0.93105 0.0
C1286 C 0.50413 0.49165 0.94396 0.0
C1287 C 0.5226 0.45554 0.9456 0.0
C1288 C 0.51952 0.45183 0.93628 0.0
C1289 C 0.51499 0.47578 0.94955 0.0
H1290 H 0.49354 0.49962 0.93035 0.0
H1291 H 0.52556 0.43642 0.93318 0.0
O1292 O 0.50317 0.46537 0.89493 0.0
O1293 O 0.50914 0.4946 0.91202 0.0
O1294 O 0.47816 0.45222 0.91352 0.0
O1295 O 0.52918 0.44604 0.91169 0.0
H1296 H 0.53061 0.46196 0.88071 0.0
H1297 H 0.46511 0.44435 0.89086 0.0
H1298 H 0.5224 0.44053 0.86663 0.0
H1299 H 0.4578 0.42343 0.87656 0.0
H1300 H 0.51291 0.5702 0.91675 0.0
H1301 H 0.51017 0.50757 0.89465 0.0
H1302 H 0.51108 0.5309 0.92245 0.0
H1303 H 0.51201 0.5472 0.88947 0.0
H1304 H 0.43311 0.5141 0.88321 0.0
H1305 H 0.42263 0.52993 0.91172 0.0
H1306 H 0.5948 0.46869 0.88455 0.0
H1307 H 0.59219 0.52536 0.903 0.0
H1308 H 0.46409 0.46403 0.93 0.0
H1309 H 0.44221 0.44821 0.90279 0.0
H1310 H 0.4245 0.47154 0.93423 0.0
H1311 H 0.40299 0.45577 0.90751 0.0
H1312 H 0.55706 0.41146 0.91237 0.0
H1313 H 0.54734 0.48035 0.92073 0.0
H1314 H 0.59419 0.41164 0.92017 0.0
H1315 H 0.58457 0.47933 0.92835 0.0
H1316 H 0.52589 0.37026 0.89058 0.0
H1317 H 0.45612 0.37297 0.89909 0.0
H1318 H 0.4974 0.50719 0.9467 0.0
H1319 H 0.53124 0.4429 0.94962 0.0
Li1320 Li 0.0097 0.54972 0.40326 0.0
Li1321 Li 0.00749 0.52463 0.41677 0.0
Li1322 Li 0.02805 0.51484 0.40297 0.0
Li1323 Li 0.98837 0.51475 0.40213 0.0
C1324 C 0.04477 0.55926 0.41347 0.0
N1325 N 0.06497 0.60021 0.41714 0.0
C1326 C 0.0398 0.57075 0.42154 0.0
C1327 C 0.06017 0.56849 0.40731 0.0
C1328 C 0.05016 0.59146 0.42326 0.0
C1329 C 0.07014 0.58925 0.40927 0.0
C1330 C 0.96064 0.5454 0.40874 0.0
C1331 C 0.92127 0.53803 0.4115 0.0
N1332 N 0.91576 0.5521 0.40453 0.0
C1333 C 0.95457 0.5597 0.40158 0.0
C1334 C 0.94385 0.53442 0.41373 0.0
C1335 C 0.9318 0.56292 0.39958 0.0
C1336 C 0.01446 0.58676 0.3912 0.0
N1337 N 0.00987 0.5804 0.39989 0.0
C1338 C 0.00239 0.6184 0.4042 0.0
C1339 C 0.00386 0.59561 0.40636 0.0
C1340 C 0.00685 0.62552 0.39525 0.0
C1341 C 0.01313 0.60942 0.38871 0.0
H1342 H 0.01862 0.57423 0.38614 0.0
H1343 H -0.00011 0.58993 0.41318 0.0
C1344 C 0.02642 0.51654 0.43383 0.0
N1345 N 0.00696 0.5225 0.42959 0.0
C1346 C 0.02693 0.51375 0.44326 0.0
C1347 C 0.98743 0.52361 0.4438 0.0
C1348 C 0.98774 0.52637 0.43436 0.0
C1349 C 0.00718 0.51705 0.44835 0.0
H1350 H 0.04149 0.51381 0.42984 0.0
H1351 H 0.97265 0.5315 0.43083 0.0
C1352 C 0.02003 0.52177 0.38542 0.0
N1353 N 0.04266 0.50873 0.36983 0.0
C1354 C 0.01112 0.50493 0.37981 0.0
C1355 C 0.04037 0.53208 0.38306 0.0
C1356 C 0.02282 0.49857 0.37196 0.0
C1357 C 0.05159 0.52521 0.37517 0.0
C1358 C 0.01574 0.47466 0.40934 0.0
C1359 C 0.00776 0.45961 0.40276 0.0
C1360 C 0.03344 0.46827 0.41506 0.0
C1361 C 0.0178 0.4384 0.40196 0.0
C1362 C 0.04307 0.44694 0.41402 0.0
N1363 N 0.03512 0.43257 0.40755 0.0
C1364 C 0.07456 0.50594 0.40326 0.0
C1365 C 0.05423 0.48282 0.39297 0.0
C1366 C 0.0947 0.49538 0.40087 0.0
N1367 N 0.05489 0.49965 0.39925 0.0
C1368 C 0.07396 0.47201 0.39029 0.0
C1369 C 0.09451 0.47832 0.39425 0.0
H1370 H 0.07461 0.51911 0.40835 0.0
H1371 H 0.03838 0.47767 0.39005 0.0
C1372 C 0.95352 0.50962 0.38937 0.0
N1373 N 0.96176 0.50195 0.39743 0.0
C1374 C 0.93314 0.50141 0.38603 0.0
C1375 C 0.9299 0.47804 0.39949 0.0
C1376 C 0.95051 0.48647 0.4025 0.0
C1377 C 0.92106 0.48552 0.39115 0.0
H1378 H 0.96266 0.52235 0.38561 0.0
H1379 H 0.9574 0.48099 0.40896 0.0
O1380 O 0.0345 0.53917 0.41157 0.0
O1381 O 0.98289 0.54143 0.41061 0.0
O1382 O 0.00878 0.52826 0.39313 0.0
O1383 O 0.0063 0.49558 0.41015 0.0
H1384 H 0.02785 0.56393 0.42636 0.0
H1385 H 0.06428 0.55976 0.40105 0.0
H1386 H 0.04637 0.60061 0.42945 0.0
H1387 H 0.08199 0.59664 0.40454 0.0
H1388 H 0.90813 0.52951 0.41526 0.0
H1389 H 0.96725 0.56798 0.3975 0.0
H1390 H 0.94817 0.52277 0.41912 0.0
H1391 H 0.92689 0.57389 0.39403 0.0
H1392 H -0.00224 0.63029 0.40948 0.0
H1393 H 0.0164 0.61419 0.38171 0.0
H1394 H 0.04246 0.50855 0.44651 0.0
H1395 H 0.97196 0.52664 0.44751 0.0
H1396 H 0.99552 0.4966 0.38156 0.0
H1397 H 0.04756 0.54506 0.38734 0.0
H1398 H 0.01619 0.48547 0.36759 0.0
H1399 H 0.06742 0.53294 0.3733 0.0
H1400 H 0.99415 0.46434 0.39825 0.0
H1401 H 0.03983 0.47975 0.42016 0.0
H1402 H 0.0119 0.42662 0.39687 0.0
H1403 H 0.0569 0.44182 0.41835 0.0
H1404 H 0.11027 0.50064 0.40407 0.0
H1405 H 0.07311 0.45861 0.38529 0.0
H1406 H 0.92669 0.50767 0.37961 0.0
H1407 H 0.92107 0.46568 0.40358 0.0
C1408 C 0.00877 0.16508 0.61528 0.0
C1409 C 0.99349 0.15718 0.60869 0.0
C1410 C 0.00889 0.1878 0.61781 0.0
C1411 C 0.97588 0.24082 0.61614 0.0
H1412 H 0.03433 0.2694 0.61392 0.0
C1413 C 0.98796 0.32938 0.60215 0.0
C1414 C 0.00483 0.34341 0.60573 0.0
C1415 C 0.98529 0.30746 0.60537 0.0
C1416 C 0.01794 0.26169 0.61479 0.0
H1417 H 0.96613 0.16691 0.5997 0.0
H1418 H 0.96628 0.20627 0.60411 0.0
H1419 H 0.03185 0.22845 0.61459 0.0
H1420 H 0.03149 0.34571 0.61581 0.0
H1421 H 0.02713 0.30702 0.62128 0.0
H1422 H 0.96191 0.27407 0.61581 0.0
C1423 C 0.97791 0.19491 0.60746 0.0
C1424 C 0.01651 0.23822 0.61518 0.0
C1425 C 0.97786 0.1723 0.60492 0.0
C1426 C 0.0186 0.33518 0.61279 0.0
C1427 C 0.01603 0.31312 0.61596 0.0
C1428 C 0.9773 0.26426 0.61573 0.0
C1429 C 0.99366 0.203 0.61382 0.0
C1430 C 0.99541 0.22755 0.61548 0.0
C1431 C -0.00049 0.29899 0.6122 0.0
C1432 C -0.00172 0.27485 0.61467 0.0
H1433 H 0.0208 0.15375 0.61842 0.0
H1434 H 0.02111 0.19356 0.62277 0.0
H1435 H 0.95941 0.23303 0.61655 0.0
H1436 H 0.97732 0.33499 0.5966 0.0
H1437 H 0.97271 0.29681 0.6022 0.0
C1438 C 0.92226 0.7359 0.85286 0.0
C1439 C 0.90922 0.75444 0.85008 0.0
C1440 C 0.94527 0.73833 0.85451 0.0
C1441 C 0.99261 0.776 0.84863 0.0
H1442 H 0.02494 0.73832 0.86582 0.0
C1443 C 0.08866 0.78061 0.85249 0.0
C1444 C 0.09927 0.75976 0.8509 0.0
C1445 C 0.06557 0.78162 0.85416 0.0
C1446 C 0.01604 0.74901 0.86104 0.0
H1447 H 0.91023 0.79031 0.84712 0.0
H1448 H 0.94991 0.79478 0.85049 0.0
H1449 H 0.9838 0.73762 0.86559 0.0
H1450 H 0.09394 0.72357 0.85019 0.0
H1451 H 0.05376 0.72541 0.85336 0.0
H1452 H 0.0249 0.78736 0.84411 0.0
C1453 C 0.94252 0.77817 0.85113 0.0
C1454 C 0.99254 0.74852 0.86085 0.0
C1455 C 0.91961 0.77566 0.84933 0.0
C1456 C 0.08644 0.73989 0.8515 0.0
C1457 C 0.06341 0.7409 0.8533 0.0
C1458 C 0.01604 0.77674 0.84893 0.0
C1459 C 0.95575 0.75946 0.85356 0.0
C1460 C 0.98055 0.76165 0.85449 0.0
C1461 C 0.05271 0.7618 0.85443 0.0
C1462 C 0.02795 0.76293 0.855 0.0
H1463 H 0.91478 0.71939 0.8537 0.0
H1464 H 0.95492 0.72347 0.85626 0.0
H1465 H 0.98407 0.78602 0.84352 0.0
H1466 H 0.09813 0.7962 0.8523 0.0
H1467 H 0.05765 0.79791 0.8551 0.0
C1468 C 0.47654 0.66332 0.0995 0.0
C1469 C 0.49021 0.64857 0.10456 0.0
C1470 C 0.47587 0.68622 0.10158 0.0
C1471 C 0.51126 0.73028 0.11081 0.0
H1472 H 0.4569 0.7661 0.10862 0.0
C1473 C 0.51387 0.82746 0.10971 0.0
C1474 C 0.50123 0.83696 0.10258 0.0
C1475 C 0.51096 0.80485 0.1121 0.0
C1476 C 0.47222 0.75632 0.10926 0.0
H1477 H 0.51311 0.64621 0.11605 0.0
H1478 H 0.5123 0.6865 0.11954 0.0
H1479 H 0.45422 0.72507 0.10916 0.0
H1480 H 0.47502 0.83055 0.09262 0.0
H1481 H 0.47033 0.79107 0.09663 0.0
H1482 H 0.52936 0.76142 0.11047 0.0
C1483 C 0.50217 0.6802 0.11396 0.0
C1484 C 0.47067 0.73288 0.10959 0.0
C1485 C 0.5027 0.65719 0.11192 0.0
C1486 C 0.48525 0.8236 0.09805 0.0
C1487 C 0.48232 0.80107 0.10045 0.0
C1488 C 0.51282 0.75374 0.11044 0.0
C1489 C 0.48897 0.69495 0.10872 0.0
C1490 C 0.49023 0.71963 0.11007 0.0
C1491 C 0.49528 0.79138 0.10744 0.0
C1492 C 0.49336 0.76695 0.10936 0.0
H1493 H 0.46702 0.65739 0.09368 0.0
H1494 H 0.46587 0.69726 0.09731 0.0
H1495 H 0.52663 0.72048 0.1111 0.0
H1496 H 0.52638 0.83735 0.1133 0.0
H1497 H 0.5211 0.79787 0.11755 0.0
C1498 C 0.59216 0.20585 0.35219 0.0
C1499 C 0.60096 0.22783 0.35254 0.0
C1500 C 0.56983 0.20173 0.35468 0.0
C1501 C 0.51944 0.22854 0.36545 0.0
H1502 H 0.48673 0.19144 0.34818 0.0
C1503 C 0.42775 0.24293 0.35504 0.0
C1504 C 0.41346 0.2242 0.35401 0.0
C1505 C 0.45041 0.23998 0.3572 0.0
C1506 C 0.49568 0.20147 0.35318 0.0
H1507 H 0.59367 0.26242 0.35634 0.0
H1508 H 0.55463 0.2555 0.36021 0.0
H1509 H 0.52764 0.19218 0.34772 0.0
H1510 H 0.4117 0.18768 0.3549 0.0
H1511 H 0.45166 0.1826 0.35829 0.0
H1512 H 0.48717 0.23902 0.37043 0.0
C1513 C 0.56494 0.24131 0.35819 0.0
C1514 C 0.51915 0.20187 0.35294 0.0
C1515 C 0.58727 0.24538 0.35579 0.0
C1516 C 0.4223 0.20246 0.35544 0.0
C1517 C 0.4451 0.19951 0.35746 0.0
C1518 C 0.49595 0.22837 0.36559 0.0
C1519 C 0.5558 0.21951 0.3575 0.0
C1520 C 0.53129 0.21599 0.35888 0.0
C1521 C 0.45936 0.21825 0.35826 0.0
C1522 C 0.4839 0.21535 0.35928 0.0
H1523 H 0.60224 0.19195 0.3497 0.0
H1524 H 0.56342 0.18468 0.35419 0.0
H1525 H 0.52828 0.23917 0.37027 0.0
H1526 H 0.42171 0.25988 0.35384 0.0
H1527 H 0.46117 0.25468 0.35762 0.0
C1528 C 0.98314 0.82243 0.40125 0.0
C1529 C -0.0019 0.83797 0.39731 0.0
C1530 C 0.98309 0.79998 0.39846 0.0
C1531 C 0.02004 0.75701 0.38964 0.0
H1532 H 0.96464 0.72333 0.38642 0.0
C1533 C 0.02044 0.66019 0.38713 0.0
C1534 C 0.00451 0.6496 0.39277 0.0
C1535 C 0.01886 0.68326 0.38531 0.0
C1536 C 0.98026 0.7325 0.3873 0.0
H1537 H 0.02424 0.84218 0.38709 0.0
H1538 H 0.02461 0.80262 0.38245 0.0
H1539 H 0.96329 0.76433 0.38773 0.0
H1540 H 0.97375 0.65454 0.40048 0.0
H1541 H 0.97141 0.69473 0.39759 0.0
H1542 H 0.03695 0.72522 0.38976 0.0
C1543 C 0.01293 0.80799 0.38769 0.0
C1544 C 0.97947 0.75592 0.38802 0.0
C1545 C 0.01281 0.83056 0.39041 0.0
C1546 C 0.98653 0.66231 0.39626 0.0
C1547 C 0.98499 0.6853 0.39447 0.0
C1548 C 0.02083 0.73355 0.38901 0.0
C1549 C -0.00187 0.79252 0.39173 0.0
C1550 C -0.00072 0.7683 0.38947 0.0
C1551 C 0.00131 0.69613 0.38909 0.0
C1552 C 0.00086 0.721 0.38813 0.0
H1553 H 0.97186 0.82744 0.40668 0.0
H1554 H 0.97179 0.78827 0.4018 0.0
H1555 H 0.03554 0.76618 0.39081 0.0
H1556 H 0.03452 0.65082 0.38436 0.0
H1557 H 0.03158 0.69108 0.38108 0.0
C1558 C 0.42329 0.72205 0.64535 0.0
C1559 C 0.41302 0.74341 0.64543 0.0
C1560 C 0.44592 0.7197 0.643 0.0
C1561 C 0.49503 0.75089 0.63322 0.0
H1562 H 0.5289 0.70759 0.6475 0.0
C1563 C 0.59002 0.75525 0.64147 0.0
C1564 C 0.60242 0.73507 0.64095 0.0
C1565 C 0.5669 0.7553 0.63979 0.0
C1566 C 0.51959 0.71949 0.64336 0.0
H1567 H 0.41855 0.77899 0.64277 0.0
H1568 H 0.45829 0.77512 0.63935 0.0
H1569 H 0.48831 0.70947 0.64916 0.0
H1570 H 0.60045 0.6995 0.63754 0.0
H1571 H 0.55984 0.69953 0.63499 0.0
H1572 H 0.52691 0.7618 0.62794 0.0
C1573 C 0.44871 0.76003 0.64083 0.0
C1574 C 0.49627 0.72055 0.64426 0.0
C1575 C 0.42594 0.76232 0.64299 0.0
C1576 C 0.59134 0.71522 0.63823 0.0
C1577 C 0.56816 0.71522 0.63669 0.0
C1578 C 0.51847 0.75009 0.63245 0.0
C1579 C 0.45906 0.7387 0.64089 0.0
C1580 C 0.48368 0.73645 0.6393 0.0
C1581 C 0.55571 0.73516 0.63767 0.0
C1582 C 0.5309 0.73453 0.63759 0.0
H1583 H 0.41405 0.70708 0.64729 0.0
H1584 H 0.45314 0.70295 0.64296 0.0
H1585 H 0.48588 0.76303 0.62915 0.0
H1586 H 0.59788 0.77081 0.64365 0.0
H1587 H 0.55756 0.77084 0.64068 0.0
C1588 C 0.49837 0.33551 0.88401 0.0
C1589 C 0.48763 0.34437 0.89177 0.0
C1590 C 0.49702 0.31251 0.88203 0.0
C1591 C 0.46582 0.26034 0.88767 0.0
H1592 H 0.52373 0.23098 0.88485 0.0
C1593 C 0.48228 0.17027 0.89956 0.0
C1594 C 0.497 0.15644 0.89458 0.0
C1595 C 0.47891 0.19264 0.89701 0.0
C1596 C 0.50735 0.23888 0.88542 0.0
H1597 H 0.46672 0.33601 0.90343 0.0
H1598 H 0.46416 0.29616 0.89992 0.0
H1599 H 0.52136 0.27191 0.88405 0.0
H1600 H 0.51942 0.15503 0.88293 0.0
H1601 H 0.51338 0.19422 0.87842 0.0
H1602 H 0.45195 0.22735 0.8894 0.0
C1603 C 0.47338 0.307 0.89529 0.0
C1604 C 0.506 0.26233 0.88496 0.0
C1605 C 0.47486 0.32988 0.89731 0.0
C1606 C 0.5079 0.16529 0.88687 0.0
C1607 C 0.50456 0.18773 0.88433 0.0
C1608 C 0.46716 0.2369 0.88811 0.0
C1609 C 0.48474 0.29801 0.88773 0.0
C1610 C 0.48535 0.2733 0.88641 0.0
C1611 C 0.49018 0.20168 0.88942 0.0
C1612 C 0.48807 0.226 0.88733 0.0
H1613 H 0.50804 0.3463 0.87953 0.0
H1614 H 0.50582 0.30599 0.87613 0.0
H1615 H 0.44963 0.26839 0.88866 0.0
H1616 H 0.47339 0.16382 0.90545 0.0
H1617 H 0.46797 0.20304 0.90116 0.0
C1618 C 0.09019 0.26987 0.14515 0.0
C1619 C 0.09978 0.24826 0.14584 0.0
C1620 C 0.06742 0.27245 0.14306 0.0
C1621 C 0.01651 0.24099 0.13519 0.0
H1622 H 0.98516 0.28573 0.1497 0.0
C1623 C 0.9234 0.23556 0.14566 0.0
C1624 C 0.91028 0.25526 0.14513 0.0
C1625 C 0.94637 0.2362 0.14372 0.0
C1626 C 0.99373 0.27343 0.14548 0.0
H1627 H 0.09309 0.21247 0.14441 0.0
H1628 H 0.05323 0.21689 0.14132 0.0
H1629 H 0.02603 0.28421 0.15007 0.0
H1630 H 0.91094 0.29087 0.14169 0.0
H1631 H 0.95135 0.29206 0.13867 0.0
H1632 H 0.98385 0.22941 0.13109 0.0
C1633 C 0.06335 0.23192 0.14217 0.0
C1634 C 0.01718 0.27257 0.14566 0.0
C1635 C 0.08619 0.22935 0.14413 0.0
C1636 C 0.92061 0.27549 0.14237 0.0
C1637 C 0.94367 0.27618 0.14056 0.0
C1638 C 0.99302 0.24164 0.13513 0.0
C1639 C 0.05359 0.25349 0.14176 0.0
C1640 C 0.02886 0.25605 0.14066 0.0
C1641 C 0.95675 0.25658 0.14132 0.0
C1642 C 0.98146 0.25761 0.1404 0.0
H1643 H 0.10006 0.28485 0.14649 0.0
H1644 H 0.06058 0.28934 0.14264 0.0
H1645 H 0.02496 0.22836 0.1311 0.0
H1646 H 0.91615 0.21976 0.1479 0.0
H1647 H 0.9562 0.22093 0.14449 0.0
C1648 C 0.01592 0.97575 0.46703 0.0
C1649 C 0.00112 0.98692 0.4611 0.0
C1650 C 0.01582 0.98065 0.47635 0.0
C1651 C 0.99618 0.02381 0.49298 0.0
H1652 H 0.0075 0.97616 0.51048 0.0
C1653 C 0.98129 0.03309 0.53178 0.0
C1654 C -0.00077 0.02625 0.53737 0.0
C1655 C 0.98165 0.02855 0.52244 0.0
C1656 C 0.00444 0.98963 0.50565 0.0
H1657 H 0.97428 0.0115 0.46021 0.0
H1658 H 0.97345 0.01953 0.4765 0.0
H1659 H 0.00741 0.96746 0.49424 0.0
H1660 H 0.03141 0.00906 0.53766 0.0
H1661 H 0.03188 0.0008 0.52131 0.0
H1662 H 0.99257 0.04577 0.50449 0.0
C1663 C 0.98568 0.00753 0.47397 0.0
C1664 C 0.0045 0.98471 0.49634 0.0
C1665 C 0.98604 0.00288 0.46464 0.0
C1666 C 0.01747 0.01467 0.53347 0.0
C1667 C 0.01766 0.00981 0.52416 0.0
C1668 C 0.99579 0.02863 0.50229 0.0
C1669 C 0.00065 -0.00343 0.47995 0.0
C1670 C 0.00044 0.00176 0.48987 0.0
C1671 C -0.00022 0.01675 0.51856 0.0
C1672 C 0.0 0.0116 0.5087 0.0
H1673 H 0.02786 0.96353 0.46443 0.0
H1674 H 0.02787 0.97217 0.48069 0.0
H1675 H 0.99343 0.03747 0.48822 0.0
H1676 H 0.96707 0.04211 0.53463 0.0
H1677 H 0.96761 0.03395 0.51826 0.0
C1678 C 0.22174 0.72806 0.77942 0.0
C1679 C 0.23609 0.74028 0.78522 0.0
C1680 C 0.22483 0.72874 0.76998 0.0
C1681 C 0.24911 0.76382 0.7519 0.0
H1682 H 0.24918 0.70883 0.73762 0.0
C1683 C 0.27793 0.7627 0.71449 0.0
C1684 C 0.266 0.749 0.70834 0.0
C1685 C 0.27377 0.76137 0.72384 0.0
C1686 C 0.2489 0.72437 0.74148 0.0
H1687 H 0.26466 0.763 0.7857 0.0
H1688 H 0.27008 0.76411 0.76924 0.0
H1689 H 0.24239 0.70698 0.75401 0.0
H1690 H 0.24053 0.72291 0.70724 0.0
H1691 H 0.23277 0.72113 0.72352 0.0
H1692 H 0.25538 0.7813 0.73943 0.0
C1693 C 0.25646 0.75403 0.77198 0.0
C1694 C 0.24505 0.72329 0.75087 0.0
C1695 C 0.25351 0.75321 0.7814 0.0
C1696 C 0.24983 0.73392 0.71177 0.0
C1697 C 0.24558 0.73268 0.72112 0.0
C1698 C 0.2528 0.76493 0.74252 0.0
C1699 C 0.24214 0.74185 0.76617 0.0
C1700 C 0.24532 0.74299 0.75618 0.0
C1701 C 0.25748 0.74641 0.72727 0.0
C1702 C 0.25294 0.74521 0.73721 0.0
H1703 H 0.20824 0.71789 0.78219 0.0
H1704 H 0.21347 0.71929 0.76564 0.0
H1705 H 0.24906 0.77931 0.75581 0.0
H1706 H 0.29033 0.77468 0.71208 0.0
H1707 H 0.28348 0.77197 0.72838 0.0
C1708 C 0.50862 0.96074 0.0307 0.0
C1709 C 0.50901 0.97855 0.03703 0.0
C1710 C 0.50816 0.96514 0.02136 0.0
C1711 C 0.52181 0.00887 0.00449 0.0
H1712 H 0.48184 0.97487 0.98875 0.0
C1713 C 0.50852 0.03217 0.96673 0.0
C1714 C 0.50742 0.01434 0.96044 0.0
C1715 C 0.50839 0.02787 0.97609 0.0
C1716 C 0.49328 0.98434 0.99304 0.0
H1717 H 0.5088 0.01496 0.03847 0.0
H1718 H 0.5082 0.0226 0.02215 0.0
H1719 H 0.48238 0.96711 0.00507 0.0
H1720 H 0.50495 0.97801 0.95905 0.0
H1721 H 0.50526 0.97048 0.97537 0.0
H1722 H 0.53287 0.02597 0.99247 0.0
C1723 C 0.50853 0.00524 0.02444 0.0
C1724 C 0.49357 0.9799 0.00238 0.0
C1725 C 0.50891 0.00085 0.03378 0.0
C1726 C 0.50608 0.99212 0.96372 0.0
C1727 C 0.50598 0.98782 0.97307 0.0
C1728 C 0.52158 0.01326 0.99515 0.0
C1729 C 0.50815 0.98743 0.01813 0.0
C1730 C 0.50783 0.99212 0.00821 0.0
C1731 C 0.50717 0.00564 0.97937 0.0
C1732 C 0.50731 0.00105 0.98931 0.0
H1733 H 0.50903 0.94338 0.03297 0.0
H1734 H 0.50818 0.95107 0.01665 0.0
H1735 H 0.53322 0.01834 0.0088 0.0
H1736 H 0.5098 0.04947 0.96443 0.0
H1737 H 0.50907 0.042 0.98076 0.0
C1738 C 0.25721 0.23691 0.21527 0.0
C1739 C 0.24094 0.25099 0.21128 0.0
C1740 C 0.26124 0.23772 0.22463 0.0
C1741 C 0.25588 0.27415 0.24468 0.0
H1742 H 0.26212 0.21811 0.25805 0.0
C1743 C 0.26254 0.27065 0.28398 0.0
C1744 C 0.27721 0.25459 0.28778 0.0
C1745 C 0.25828 0.27088 0.27462 0.0
C1746 C 0.26074 0.23392 0.2544 0.0
H1747 H 0.21618 0.27701 0.21394 0.0
H1748 H 0.22321 0.27841 0.23037 0.0
H1749 H 0.25392 0.21713 0.24179 0.0
H1750 H 0.29915 0.22636 0.28467 0.0
H1751 H 0.29227 0.22721 0.26833 0.0
H1752 H 0.26295 0.29095 0.25727 0.0
C1753 C 0.23289 0.26682 0.22622 0.0
C1754 C 0.25596 0.23334 0.24509 0.0
C1755 C 0.22874 0.2659 0.21685 0.0
C1756 C 0.28793 0.23911 0.28197 0.0
C1757 C 0.28373 0.23939 0.27261 0.0
C1758 C 0.26079 0.27473 0.25399 0.0
C1759 C 0.24915 0.25269 0.2302 0.0
C1760 C 0.25357 0.25344 0.24013 0.0
C1761 C 0.26864 0.25509 0.26884 0.0
C1762 C 0.26336 0.25461 0.25895 0.0
H1763 H 0.2667 0.22507 0.21117 0.0
H1764 H 0.27401 0.22678 0.22749 0.0
H1765 H 0.25437 0.28989 0.24099 0.0
H1766 H 0.25424 0.28301 0.28825 0.0
H1767 H 0.24644 0.28309 0.27195 0.0
C1768 C 0.74826 0.26359 0.2134 0.0
C1769 C 0.76848 0.25491 0.20986 0.0
C1770 C 0.74459 0.26426 0.22278 0.0
C1771 C 0.76367 0.23875 0.24438 0.0
H1772 H 0.73435 0.29065 0.25523 0.0
C1773 C 0.75809 0.25201 0.28324 0.0
C1774 C 0.73737 0.25951 0.28674 0.0
C1775 C 0.76182 0.25139 0.27386 0.0
C1776 C 0.74235 0.27595 0.25228 0.0
H1777 H 0.80069 0.2401 0.21343 0.0
H1778 H 0.79449 0.24179 0.22984 0.0
H1779 H 0.74133 0.28993 0.23885 0.0
H1780 H 0.70436 0.27234 0.28315 0.0
H1781 H 0.71084 0.27109 0.26671 0.0
H1782 H 0.7648 0.22485 0.25783 0.0
C1783 C 0.78135 0.24779 0.22533 0.0
C1784 C 0.74634 0.27552 0.2429 0.0
C1785 C 0.78501 0.24707 0.21594 0.0
C1786 C 0.72044 0.26634 0.28065 0.0
C1787 C 0.72422 0.26583 0.27125 0.0
C1788 C 0.75975 0.23921 0.25376 0.0
C1789 C 0.76107 0.25635 0.22886 0.0
C1790 C 0.75703 0.2569 0.23884 0.0
C1791 C 0.74495 0.25833 0.26776 0.0
C1792 C 0.74903 0.25781 0.2578 0.0
H1793 H 0.73529 0.27002 0.20891 0.0
H1794 H 0.72868 0.27074 0.22527 0.0
H1795 H 0.7716 0.22399 0.24145 0.0
H1796 H 0.77136 0.2464 0.28777 0.0
H1797 H 0.77804 0.24572 0.27137 0.0
C1798 C 0.73756 0.71882 0.71565 0.0
C1799 C 0.72827 0.73737 0.71102 0.0
C1800 C 0.74054 0.71941 0.72507 0.0
C1801 C 0.74611 0.75926 0.74423 0.0
H1802 H 0.73681 0.70562 0.75886 0.0
C1803 C 0.75054 0.75922 0.78359 0.0
C1804 C 0.7625 0.74138 0.78762 0.0
C1805 C 0.74591 0.75903 0.77426 0.0
C1806 C 0.73964 0.72067 0.75484 0.0
H1807 H 0.71449 0.77097 0.71271 0.0
H1808 H 0.71912 0.77176 0.72923 0.0
H1809 H 0.72848 0.70467 0.74259 0.0
H1810 H 0.77898 0.70939 0.78509 0.0
H1811 H 0.77094 0.70908 0.76876 0.0
H1812 H 0.75714 0.77526 0.75653 0.0
C1813 C 0.72446 0.7569 0.72553 0.0
C1814 C 0.73489 0.72014 0.74553 0.0
C1815 C 0.72155 0.75634 0.71608 0.0
C1816 C 0.76987 0.72343 0.78214 0.0
C1817 C 0.76508 0.72315 0.77283 0.0
C1818 C 0.75072 0.75982 0.75356 0.0
C1819 C 0.73419 0.73851 0.73012 0.0
C1820 C 0.73824 0.73938 0.7401 0.0
C1821 C 0.75299 0.74091 0.7688 0.0
C1822 C 0.7477 0.74048 0.75894 0.0
H1823 H 0.74262 0.70381 0.71198 0.0
H1824 H 0.7483 0.70504 0.72837 0.0
H1825 H 0.74921 0.77427 0.74023 0.0
H1826 H 0.74484 0.77337 0.78764 0.0
H1827 H 0.73645 0.77288 0.77134 0.0
C1828 C 0.5164 0.46315 0.96592 0.0
C1829 C 0.51822 0.48048 0.95942 0.0
C1830 C 0.51837 0.46793 0.97522 0.0
C1831 C 0.50829 0.51255 0.99146 0.0
H1832 H 0.54734 0.47898 0.00771 0.0
C1833 C 0.51437 0.53507 0.02953 0.0
C1834 C 0.516 0.51711 0.03575 0.0
C1835 C 0.51679 0.53128 0.02018 0.0
C1836 C 0.53611 0.48834 0.00329 0.0
H1837 H 0.52465 0.51627 0.95763 0.0
H1838 H 0.52718 0.52461 0.97385 0.0
H1839 H 0.5473 0.47041 0.99143 0.0
H1840 H 0.52233 0.48117 0.03696 0.0
H1841 H 0.52519 0.47441 0.02072 0.0
H1842 H 0.49626 0.52983 0.00325 0.0
C1843 C 0.52416 0.50739 0.97171 0.0
C1844 C 0.53621 0.48347 0.99398 0.0
C1845 C 0.52255 0.50259 0.96243 0.0
C1846 C 0.52048 0.49536 0.03238 0.0
C1847 C 0.52254 0.49153 0.02304 0.0
C1848 C 0.50788 0.51716 0.00078 0.0
C1849 C 0.5219 0.49015 0.97818 0.0
C1850 C 0.52228 0.49553 0.988 0.0
C1851 C 0.52059 0.50941 0.01681 0.0
C1852 C 0.52174 0.50508 0.00683 0.0
H1853 H 0.51281 0.44599 0.96387 0.0
H1854 H 0.5164 0.45439 0.9801 0.0
H1855 H 0.4972 0.52189 0.98697 0.0
H1856 H 0.51077 0.55201 0.03185 0.0
H1857 H 0.51558 0.54555 0.01561 0.0
C1858 C 0.02772 0.4907 0.53064 0.0
C1859 C 0.01179 0.47644 0.53474 0.0
C1860 C 0.02709 0.49472 0.52128 0.0
C1861 C 0.98911 0.49453 0.50165 0.0
H1862 H 0.04429 0.49274 0.48754 0.0
C1863 C 0.98957 0.50085 0.46239 0.0
C1864 C 0.00709 0.51313 0.45831 0.0
C1865 C 0.9899 0.49638 0.47173 0.0
C1866 C 0.02877 0.49362 0.49139 0.0
H1867 H 0.98269 0.45525 0.53229 0.0
H1868 H 0.98157 0.46231 0.51587 0.0
H1869 H 0.04541 0.4846 0.50381 0.0
H1870 H 0.03835 0.53091 0.46082 0.0
H1871 H 0.03877 0.52346 0.47717 0.0
H1872 H 0.97249 0.50387 0.48928 0.0
C1873 C 0.99449 0.47039 0.51992 0.0
C1874 C 0.02942 0.48887 0.50071 0.0
C1875 C 0.99525 0.46621 0.52929 0.0
C1876 C 0.02478 0.52114 0.46377 0.0
C1877 C 0.02504 0.51681 0.47313 0.0
C1878 C 0.98848 0.49943 0.49234 0.0
C1879 C 0.01042 0.48469 0.51583 0.0
C1880 C 0.00961 0.48931 0.50592 0.0
C1881 C 0.00769 0.50422 0.47721 0.0
C1882 C 0.00831 0.49906 0.48711 0.0
H1883 H 0.04078 0.49864 0.53467 0.0
H1884 H 0.03946 0.50595 0.51831 0.0
H1885 H 0.97363 0.49526 0.50553 0.0
H1886 H 0.97588 0.49421 0.45832 0.0
H1887 H 0.97645 0.48636 0.47463 0.0
C1888 C 0.2239 0.85267 0.62704 0.0
C1889 C 0.23374 0.85713 0.63556 0.0
C1890 C 0.20978 0.86845 0.62294 0.0
C1891 C 0.19328 0.92799 0.62256 0.0
H1892 H 0.1363 0.90422 0.61394 0.0
C1893 C 0.11829 0.98445 0.61153 0.0
C1894 C 0.10467 0.97657 0.60439 0.0
C1895 C 0.13568 0.971 0.61496 0.0
C1896 C 0.15227 0.91113 0.61616 0.0
H1897 H 0.23716 0.88195 0.64632 0.0
H1898 H 0.21229 0.90967 0.63911 0.0
H1899 H 0.16387 0.87886 0.62059 0.0
H1900 H 0.09929 0.94927 0.59483 0.0
H1901 H 0.12996 0.92607 0.60061 0.0
H1902 H 0.18166 0.96031 0.61804 0.0
C1903 C 0.21562 0.89392 0.63563 0.0
C1904 C 0.16802 0.89658 0.62 0.0
C1905 C 0.22967 0.87802 0.63977 0.0
C1906 C 0.10935 0.95554 0.60045 0.0
C1907 C 0.12683 0.94224 0.60379 0.0
C1908 C 0.17753 0.9426 0.61863 0.0
C1909 C 0.20522 0.88907 0.62725 0.0
C1910 C 0.1887 0.90482 0.62321 0.0
C1911 C 0.13985 0.94955 0.61124 0.0
C1912 C 0.15686 0.93429 0.61535 0.0
H1913 H 0.22649 0.83663 0.62366 0.0
H1914 H 0.20214 0.86438 0.61644 0.0
H1915 H 0.20916 0.93474 0.62495 0.0
H1916 H 0.11489 0.00058 0.61471 0.0
H1917 H 0.14525 0.97707 0.62074 0.0
C1918 C 0.31063 0.85995 0.8448 0.0
C1919 C 0.28879 0.85863 0.84846 0.0
C1920 C 0.32584 0.87603 0.84799 0.0
C1921 C 0.33104 0.92817 0.86187 0.0
H1922 H 0.391 0.90492 0.86649 0.0
C1923 C 0.39546 0.971 0.88589 0.0
C1924 C 0.41809 0.97114 0.88309 0.0
C1925 C 0.37928 0.95931 0.88085 0.0
C1926 C 0.37444 0.91179 0.86512 0.0
H1927 H 0.26543 0.87411 0.85795 0.0
H1928 H 0.29224 0.90165 0.86374 0.0
H1929 H 0.36339 0.88116 0.85896 0.0
H1930 H 0.44128 0.9601 0.87257 0.0
H1931 H 0.41307 0.93956 0.86383 0.0
H1932 H 0.34213 0.95865 0.86831 0.0
C1933 C 0.29753 0.89041 0.85834 0.0
C1934 C 0.3586 0.89819 0.86078 0.0
C1935 C 0.28224 0.87442 0.8551 0.0
C1936 C 0.42408 0.95988 0.87502 0.0
C1937 C 0.40793 0.94818 0.87 0.0
C1938 C 0.3469 0.94177 0.86627 0.0
C1939 C 0.31966 0.89104 0.85496 0.0
C1940 C 0.33669 0.90616 0.85913 0.0
C1941 C 0.38543 0.94753 0.87292 0.0
C1942 C 0.36873 0.93365 0.86797 0.0
H1943 H 0.31635 0.84796 0.83974 0.0
H1944 H 0.34264 0.87634 0.84513 0.0
H1945 H 0.31438 0.93489 0.86061 0.0
H1946 H 0.39038 0.97937 0.89212 0.0
H1947 H 0.36209 0.95889 0.88332 0.0
C1948 C 0.39221 0.01832 0.11052 0.0
C1949 C 0.41481 0.01997 0.11327 0.0
C1950 C 0.37532 0.02952 0.11536 0.0
C1951 C 0.36781 0.07806 0.13056 0.0
H1952 H 0.30901 0.05215 0.13529 0.0
C1953 C 0.3029 0.12613 0.15161 0.0
C1954 C 0.28103 0.1273 0.14797 0.0
C1955 C 0.31843 0.11064 0.14823 0.0
C1956 C 0.32532 0.05961 0.13397 0.0
H1957 H 0.43731 0.03366 0.12351 0.0
H1958 H 0.4079 0.05317 0.13196 0.0
H1959 H 0.33784 0.02956 0.12763 0.0
H1960 H 0.25796 0.11211 0.13829 0.0
H1961 H 0.28535 0.08537 0.13221 0.0
H1962 H 0.35538 0.10815 0.13673 0.0
C1963 C 0.40326 0.04363 0.12595 0.0
C1964 C 0.34179 0.04671 0.12958 0.0
C1965 C 0.42011 0.03249 0.12111 0.0
C1966 C 0.27476 0.11184 0.14116 0.0
C1967 C 0.29037 0.09637 0.13774 0.0
C1968 C 0.35141 0.0909 0.13492 0.0
C1969 C 0.38074 0.04255 0.12306 0.0
C1970 C 0.36321 0.05583 0.12784 0.0
C1971 C 0.31255 0.09605 0.14108 0.0
C1972 C 0.32999 0.08185 0.13669 0.0
H1973 H 0.38766 0.00889 0.10447 0.0
H1974 H 0.35814 0.02856 0.11292 0.0
H1975 H 0.38398 0.08573 0.12914 0.0
H1976 H 0.30843 0.1379 0.15679 0.0
H1977 H 0.33528 0.11053 0.15105 0.0
C1978 C 0.1009 0.01604 0.37609 0.0
C1979 C 0.10186 0.01337 0.38562 0.0
C1980 C 0.11739 0.02836 0.37152 0.0
C1981 C 0.17461 0.05023 0.37253 0.0
H1982 H 0.15059 0.10146 0.35932 0.0
C1983 C 0.23012 0.12508 0.36145 0.0
C1984 C 0.22415 0.13742 0.35363 0.0
C1985 C 0.21646 0.10759 0.36459 0.0
C1986 C 0.15769 0.08699 0.36278 0.0
H1987 H 0.12164 0.02071 0.39771 0.0
H1988 H 0.15083 0.04164 0.38962 0.0
H1989 H 0.12499 0.07424 0.36605 0.0
H1990 H 0.19933 0.14028 0.34281 0.0
H1991 H 0.17646 0.10897 0.34792 0.0
H1992 H 0.20734 0.06267 0.36916 0.0
C1993 C 0.13714 0.03425 0.38576 0.0
C1994 C 0.14296 0.07147 0.36668 0.0
C1995 C 0.12044 0.02222 0.39037 0.0
C1996 C 0.20468 0.13111 0.34881 0.0
C1997 C 0.19127 0.11333 0.35184 0.0
C1998 C 0.18942 0.06554 0.36847 0.0
C1999 C 0.13541 0.03789 0.37634 0.0
C2000 C 0.15128 0.05315 0.37168 0.0
C2001 C 0.19668 0.10167 0.3599 0.0
C2002 C 0.18114 0.08432 0.36365 0.0
H2003 H 0.08718 0.00896 0.37217 0.0
H2004 H 0.11589 0.03077 0.36422 0.0
H2005 H 0.18136 0.0361 0.37633 0.0
H2006 H 0.24524 0.12906 0.36524 0.0
H2007 H 0.22113 0.0992 0.37086 0.0
C2008 C 0.90808 0.03148 0.37822 0.0
C2009 C 0.90421 0.02439 0.38723 0.0
C2010 C 0.89287 0.04572 0.37385 0.0
C2011 C 0.83479 0.06806 0.37483 0.0
H2012 H 0.86077 0.11778 0.36127 0.0
C2013 C 0.78419 0.14637 0.36342 0.0
C2014 C 0.78905 0.15545 0.35479 0.0
C2015 C 0.79703 0.12866 0.36691 0.0
C2016 C 0.85323 0.10381 0.36491 0.0
H2017 H 0.88094 0.02613 0.39859 0.0
H2018 H 0.85458 0.05154 0.39101 0.0
H2019 H 0.88536 0.08999 0.36828 0.0
H2020 H 0.81048 0.15238 0.34289 0.0
H2021 H 0.83295 0.12149 0.349 0.0
H2022 H 0.80261 0.08225 0.37156 0.0
C2023 C 0.86929 0.04583 0.38731 0.0
C2024 C 0.86733 0.08787 0.36893 0.0
C2025 C 0.88451 0.0315 0.39169 0.0
C2026 C 0.80661 0.14603 0.34963 0.0
C2027 C 0.81945 0.12833 0.35312 0.0
C2028 C 0.82066 0.08407 0.37082 0.0
C2029 C 0.87348 0.05334 0.37838 0.0
C2030 C 0.85828 0.06984 0.37395 0.0
C2031 C 0.815 0.11968 0.36185 0.0
C2032 C 0.82976 0.10214 0.36584 0.0
H2033 H 0.92321 0.02656 0.37462 0.0
H2034 H 0.89642 0.05096 0.36692 0.0
H2035 H 0.82732 0.05421 0.37856 0.0
H2036 H 0.77092 0.15344 0.3676 0.0
H2037 H 0.79338 0.12252 0.3737 0.0
C2038 C 0.6181 0.01546 0.11876 0.0
C2039 C 0.61685 0.0136 0.10924 0.0
C2040 C 0.63524 0.02799 0.12281 0.0
C2041 C 0.68939 0.05777 0.11832 0.0
H2042 H 0.6682 0.09647 0.13783 0.0
C2043 C 0.73373 0.1399 0.12978 0.0
C2044 C 0.73451 0.1444 0.13918 0.0
C2045 C 0.72204 0.12116 0.12649 0.0
C2046 C 0.6745 0.08554 0.13249 0.0
H2047 H 0.63288 0.0224 0.09649 0.0
H2048 H 0.66256 0.04496 0.10354 0.0
H2049 H 0.64312 0.06833 0.13144 0.0
H2050 H 0.72407 0.13259 0.15251 0.0
H2051 H 0.70371 0.09984 0.14676 0.0
H2052 H 0.72058 0.07587 0.1192 0.0
C2053 C 0.65063 0.03638 0.1079 0.0
C2054 C 0.66014 0.06932 0.12883 0.0
C2055 C 0.63361 0.02355 0.10385 0.0
C2056 C 0.72389 0.12947 0.14524 0.0
C2057 C 0.7121 0.11083 0.14195 0.0
C2058 C 0.70373 0.07419 0.12194 0.0
C2059 C 0.65128 0.03923 0.11742 0.0
C2060 C 0.66733 0.05532 0.12166 0.0
C2061 C 0.71077 0.10669 0.13254 0.0
C2062 C 0.69634 0.08831 0.12902 0.0
H2063 H 0.60548 0.00763 0.12305 0.0
H2064 H 0.63557 0.02933 0.13017 0.0
H2065 H 0.69555 0.04709 0.11288 0.0
H2066 H 0.74197 0.15101 0.12496 0.0
H2067 H 0.72114 0.11846 0.1192 0.0
C2068 C 0.72128 0.86476 0.85259 0.0
C2069 C 0.73098 0.84897 0.85855 0.0
C2070 C 0.71027 0.88373 0.856 0.0
C2071 C 0.70303 0.9194 0.87639 0.0
H2072 H 0.64369 0.92998 0.86626 0.0
C2073 C 0.63425 0.97222 0.8943 0.0
C2074 C 0.6185 0.98349 0.88883 0.0
C2075 C 0.65112 0.95912 0.89029 0.0
C2076 C 0.66041 0.92766 0.86905 0.0
H2077 H 0.73751 0.84108 0.87273 0.0
H2078 H 0.71792 0.87415 0.87872 0.0
H2079 H 0.66731 0.90068 0.85983 0.0
H2080 H 0.6089 0.99164 0.87498 0.0
H2081 H 0.63881 0.96947 0.86795 0.0
H2082 H 0.69592 0.9463 0.8857 0.0
C2083 C 0.71899 0.87189 0.8714 0.0
C2084 C 0.67392 0.91077 0.86537 0.0
C2085 C 0.72995 0.85284 0.86799 0.0
C2086 C 0.62076 0.98281 0.87932 0.0
C2087 C 0.63777 0.97002 0.87531 0.0
C2088 C 0.68953 0.93647 0.88005 0.0
C2089 C 0.70876 0.88733 0.86544 0.0
C2090 C 0.69526 0.9063 0.86905 0.0
C2091 C 0.6526 0.95732 0.88074 0.0
C2092 C 0.66795 0.94063 0.87647 0.0
H2093 H 0.72165 0.86215 0.84528 0.0
H2094 H 0.70269 0.89546 0.85125 0.0
H2095 H 0.71952 0.91642 0.8793 0.0
H2096 H 0.63269 0.97245 0.90165 0.0
H2097 H 0.66214 0.94944 0.89467 0.0
C2098 C 0.77834 0.84896 0.63267 0.0
C2099 C 0.78844 0.83174 0.63782 0.0
C2100 C 0.79159 0.86539 0.62844 0.0
C2101 C 0.84993 0.87507 0.62064 0.0
H2102 H 0.8328 0.93816 0.62044 0.0
C2103 C 0.91265 0.94533 0.61248 0.0
C2104 C 0.90572 0.96246 0.6065 0.0
C2105 C 0.89723 0.92961 0.61574 0.0
C2106 C 0.83762 0.92055 0.62035 0.0
H2107 H 0.8201 0.81872 0.64293 0.0
H2108 H 0.84318 0.8475 0.63571 0.0
H2109 H 0.80775 0.91035 0.62741 0.0
H2110 H 0.87723 0.97674 0.5993 0.0
H2111 H 0.85005 0.94909 0.60508 0.0
H2112 H 0.87998 0.88529 0.61378 0.0
C2113 C 0.82512 0.84801 0.6347 0.0
C2114 C 0.8233 0.90464 0.62433 0.0
C2115 C 0.81192 0.83157 0.63886 0.0
C2116 C 0.883 0.96361 0.60387 0.0
C2117 C 0.86747 0.94794 0.60721 0.0
C2118 C 0.86424 0.89094 0.61672 0.0
C2119 C 0.81516 0.86492 0.62934 0.0
C2120 C 0.8295 0.88177 0.62464 0.0
C2121 C 0.87451 0.93073 0.61314 0.0
C2122 C 0.8584 0.91386 0.61667 0.0
H2123 H 0.76026 0.84936 0.63171 0.0
H2124 H 0.78343 0.87811 0.62431 0.0
H2125 H 0.85494 0.85751 0.62056 0.0
H2126 H 0.9301 0.94391 0.61455 0.0
H2127 H 0.90306 0.91666 0.62038 0.0
C2128 C 0.7109 0.36592 0.14195 0.0
C2129 C 0.7308 0.35701 0.13818 0.0
C2130 C 0.70068 0.38485 0.13811 0.0
C2131 C 0.69136 0.41127 0.11662 0.0
H2132 H 0.67151 0.46299 0.13065 0.0
C2133 C 0.63309 0.47689 0.10038 0.0
C2134 C 0.61534 0.48445 0.10589 0.0
C2135 C 0.65133 0.4655 0.10424 0.0
C2136 C 0.67677 0.4486 0.12664 0.0
H2137 H 0.75591 0.36176 0.12757 0.0
H2138 H 0.73726 0.39415 0.12062 0.0
H2139 H 0.69544 0.43455 0.13779 0.0
H2140 H 0.6028 0.48674 0.1197 0.0
H2141 H 0.63396 0.46603 0.12643 0.0
H2142 H 0.67157 0.4241 0.10568 0.0
C2143 C 0.72985 0.38645 0.12661 0.0
C2144 C 0.69058 0.43245 0.13072 0.0
C2145 C 0.74035 0.36777 0.13055 0.0
C2146 C 0.61645 0.48122 0.11534 0.0
C2147 C 0.63443 0.46945 0.11918 0.0
C2148 C 0.67719 0.42715 0.11259 0.0
C2149 C 0.70989 0.39503 0.13034 0.0
C2150 C 0.69765 0.41349 0.12578 0.0
C2151 C 0.65188 0.46098 0.11366 0.0
C2152 C 0.66931 0.44581 0.1176 0.0
H2153 H 0.70276 0.35792 0.1477 0.0
H2154 H 0.68507 0.39101 0.14101 0.0
H2155 H 0.69645 0.39663 0.11271 0.0
H2156 H 0.63262 0.47942 0.09307 0.0
H2157 H 0.6647 0.45976 0.09979 0.0
C2158 C 0.77643 0.35837 0.36868 0.0
C2159 C 0.7628 0.36252 0.36105 0.0
C2160 C 0.78929 0.37561 0.37248 0.0
C2161 C 0.8152 0.42978 0.36622 0.0
H2162 H 0.832 0.42916 0.39174 0.0
C2163 C 0.89813 0.46786 0.37883 0.0
C2164 C 0.89955 0.47639 0.38772 0.0
C2165 C 0.8783 0.45782 0.37576 0.0
C2166 C 0.82724 0.42998 0.38463 0.0
H2167 H 0.75103 0.3881 0.35167 0.0
H2168 H 0.77311 0.41856 0.35847 0.0
H2169 H 0.80159 0.40517 0.38648 0.0
H2170 H 0.88121 0.48224 0.40026 0.0
H2171 H 0.84621 0.4653 0.39483 0.0
H2172 H 0.84058 0.4549 0.36439 0.0
C2173 C 0.77428 0.40183 0.36138 0.0
C2174 C 0.80998 0.41592 0.38158 0.0
C2175 C 0.76159 0.38446 0.3575 0.0
C2176 C 0.88056 0.47547 0.3934 0.0
C2177 C 0.86059 0.46572 0.39029 0.0
C2178 C 0.83225 0.44409 0.36929 0.0
C2179 C 0.78864 0.3975 0.36881 0.0
C2180 C 0.80428 0.41506 0.37229 0.0
C2181 C 0.85933 0.45639 0.38149 0.0
C2182 C 0.83901 0.4438 0.37847 0.0
H2183 H 0.77796 0.34152 0.37146 0.0
H2184 H 0.80048 0.37147 0.37806 0.0
H2185 H 0.81138 0.42955 0.359 0.0
H2186 H 0.91264 0.46821 0.37436 0.0
H2187 H 0.87817 0.45044 0.36902 0.0
C2188 C 0.90454 0.52804 0.60705 0.0
C2189 C 0.92525 0.52299 0.61124 0.0
C2190 C 0.88759 0.53909 0.6119 0.0
C2191 C 0.87952 0.57825 0.6306 0.0
H2192 H 0.8172 0.55885 0.62977 0.0
C2193 C 0.81113 0.62779 0.64953 0.0
C2194 C 0.79083 0.63138 0.64481 0.0
C2195 C 0.82672 0.612 0.6464 0.0
C2196 C 0.83449 0.5646 0.63001 0.0
H2197 H 0.94404 0.52505 0.62391 0.0
H2198 H 0.91465 0.54497 0.63226 0.0
H2199 H 0.84617 0.5363 0.62224 0.0
H2200 H 0.77053 0.6202 0.63337 0.0
H2201 H 0.79815 0.5935 0.62766 0.0
H2202 H 0.86801 0.60699 0.63799 0.0
C2203 C 0.91165 0.54037 0.62522 0.0
C2204 C 0.85104 0.55165 0.62572 0.0
C2205 C 0.92851 0.52909 0.62041 0.0
C2206 C 0.78617 0.61819 0.63708 0.0
C2207 C 0.8019 0.60259 0.63388 0.0
C2208 C 0.86298 0.59134 0.63478 0.0
C2209 C 0.89109 0.54553 0.621 0.0
C2210 C 0.87367 0.55846 0.62593 0.0
C2211 C 0.82256 0.59962 0.6384 0.0
C2212 C 0.84023 0.58478 0.63448 0.0
H2213 H 0.90156 0.52391 0.59997 0.0
H2214 H 0.87198 0.54316 0.60846 0.0
H2215 H 0.89683 0.58401 0.63076 0.0
H2216 H 0.81543 0.63776 0.65546 0.0
H2217 H 0.84226 0.60984 0.65016 0.0
C2218 C 0.72176 0.63994 0.8684 0.0
C2219 C 0.73604 0.6373 0.86087 0.0
C2220 C 0.71095 0.62132 0.87219 0.0
C2221 C 0.69356 0.563 0.8666 0.0
H2222 H 0.67689 0.56345 0.89212 0.0
C2223 C 0.61798 0.51321 0.88015 0.0
C2224 C 0.61714 0.50722 0.88938 0.0
C2225 C 0.63644 0.52504 0.87673 0.0
C2226 C 0.68174 0.56262 0.88502 0.0
H2227 H 0.75092 0.61323 0.85156 0.0
H2228 H 0.73268 0.58041 0.85839 0.0
H2229 H 0.70274 0.59159 0.88642 0.0
H2230 H 0.63527 0.50725 0.90216 0.0
H2231 H 0.66819 0.52685 0.89612 0.0
H2232 H 0.67309 0.53358 0.86527 0.0
C2233 C 0.72927 0.59691 0.86122 0.0
C2234 C 0.6963 0.57912 0.8817 0.0
C2235 C 0.7398 0.61565 0.85733 0.0
C2236 C 0.63558 0.51193 0.89502 0.0
C2237 C 0.65429 0.52332 0.89156 0.0
C2238 C 0.67933 0.5462 0.86996 0.0
C2239 C 0.71447 0.59955 0.86864 0.0
C2240 C 0.70175 0.58004 0.87239 0.0
C2241 C 0.65463 0.53076 0.88245 0.0
C2242 C 0.6726 0.54624 0.87915 0.0
H2243 H 0.71837 0.65653 0.87116 0.0
H2244 H 0.69928 0.62418 0.87774 0.0
H2245 H 0.69729 0.56314 0.85938 0.0
H2246 H 0.60379 0.50988 0.87571 0.0
H2247 H 0.6358 0.53072 0.86973 0.0
C2248 C 0.40126 0.55856 0.8993 0.0
C2249 C 0.40547 0.53832 0.89461 0.0
C2250 C 0.38352 0.57258 0.89669 0.0
C2251 C 0.33183 0.57459 0.88224 0.0
H2252 H 0.34409 0.6388 0.88226 0.0
C2253 C 0.28561 0.6401 0.85992 0.0
C2254 C 0.27925 0.66048 0.8641 0.0
C2255 C 0.29824 0.62416 0.8647 0.0
C2256 C 0.34032 0.62093 0.88233 0.0
H2257 H 0.39365 0.51657 0.88371 0.0
H2258 H 0.36364 0.54154 0.87884 0.0
H2259 H 0.37168 0.61295 0.88863 0.0
H2260 H 0.2802 0.67946 0.87675 0.0
H2261 H 0.30296 0.6519 0.88496 0.0
H2262 H 0.3009 0.58278 0.87546 0.0
C2263 C 0.37369 0.54641 0.88467 0.0
C2264 C 0.35607 0.60608 0.88602 0.0
C2265 C 0.39121 0.53224 0.88737 0.0
C2266 C 0.28524 0.66421 0.87326 0.0
C2267 C 0.29813 0.6484 0.87799 0.0
C2268 C 0.31622 0.58946 0.87842 0.0
C2269 C 0.36975 0.56687 0.88924 0.0
C2270 C 0.35216 0.58269 0.88593 0.0
C2271 C 0.30497 0.6284 0.87371 0.0
C2272 C 0.32046 0.61272 0.87837 0.0
H2273 H 0.41197 0.56393 0.90486 0.0
H2274 H 0.38077 0.58801 0.90046 0.0
H2275 H 0.32805 0.55674 0.88221 0.0
H2276 H 0.28158 0.63677 0.85285 0.0
H2277 H 0.30355 0.60895 0.86123 0.0
C2278 C 0.13843 0.51539 0.61 0.0
C2279 C 0.12964 0.51699 0.60113 0.0
C2280 C 0.15527 0.53011 0.61292 0.0
C2281 C 0.17629 0.58692 0.60789 0.0
H2282 H 0.22126 0.57175 0.62605 0.0
C2283 C 0.23535 0.65382 0.62323 0.0
C2284 C 0.23646 0.65384 0.6328 0.0
C2285 C 0.22568 0.63571 0.61859 0.0
C2286 C 0.20877 0.57619 0.62098 0.0
H2287 H 0.13261 0.53455 0.58821 0.0
H2288 H 0.16254 0.55965 0.5932 0.0
H2289 H 0.19901 0.5418 0.619 0.0
H2290 H 0.2285 0.63472 0.64499 0.0
H2291 H 0.21176 0.60306 0.63687 0.0
H2292 H 0.18578 0.62129 0.60997 0.0
C2293 C 0.15602 0.54735 0.59797 0.0
C2294 C 0.19602 0.55908 0.61695 0.0
C2295 C 0.13904 0.53275 0.59507 0.0
C2296 C 0.22817 0.63511 0.63761 0.0
C2297 C 0.21861 0.61696 0.63296 0.0
C2298 C 0.18913 0.60397 0.61187 0.0
C2299 C 0.16384 0.54665 0.60701 0.0
C2300 C 0.17932 0.5643 0.6105 0.0
C2301 C 0.21704 0.6172 0.62341 0.0
C2302 C 0.20517 0.59882 0.61857 0.0
H2303 H 0.13183 0.50316 0.61479 0.0
H2304 H 0.16079 0.52917 0.61994 0.0
H2305 H 0.16331 0.59162 0.60307 0.0
H2306 H 0.242 0.66778 0.61931 0.0
H2307 H 0.22489 0.63621 0.61121 0.0
C2308 C 0.13035 0.45834 0.39816 0.0
C2309 C 0.11553 0.46683 0.39153 0.0
C2310 C 0.14928 0.44592 0.39555 0.0
C2311 C 0.18646 0.433 0.37614 0.0
H2312 H 0.19131 0.3738 0.38716 0.0
C2313 C 0.23088 0.35928 0.35843 0.0
C2314 C 0.24191 0.34294 0.36371 0.0
C2315 C 0.21912 0.37681 0.3626 0.0
C2316 C 0.1906 0.39044 0.38414 0.0
H2317 H 0.1093 0.47002 0.37704 0.0
H2318 H 0.14239 0.44838 0.37248 0.0
H2319 H 0.16432 0.40083 0.39318 0.0
H2320 H 0.25014 0.33259 0.37748 0.0
H2321 H 0.22982 0.36348 0.38481 0.0
H2322 H 0.21247 0.42253 0.36699 0.0
C2323 C 0.13941 0.45129 0.37967 0.0
C2324 C 0.17508 0.40591 0.38759 0.0
C2325 C 0.12039 0.46346 0.38227 0.0
C2326 C 0.24152 0.34483 0.37325 0.0
C2327 C 0.22988 0.36249 0.37744 0.0
C2328 C 0.20213 0.41761 0.37273 0.0
C2329 C 0.15382 0.44207 0.38628 0.0
C2330 C 0.17246 0.4271 0.38347 0.0
C2331 C 0.21824 0.37848 0.37216 0.0
C2332 C 0.20393 0.39592 0.37653 0.0
H2333 H 0.12689 0.46065 0.40534 0.0
H2334 H 0.16018 0.43905 0.40077 0.0
H2335 H 0.18496 0.44936 0.37292 0.0
H2336 H 0.23065 0.35805 0.35106 0.0
H2337 H 0.20999 0.38854 0.35832 0.0
C2338 C 0.39282 0.45754 0.10891 0.0
C2339 C 0.40662 0.45246 0.10141 0.0
C2340 C 0.37636 0.44239 0.1118 0.0
C2341 C 0.36164 0.38196 0.11048 0.0
H2342 H 0.30621 0.40246 0.12173 0.0
C2343 C 0.2933 0.32109 0.12389 0.0
C2344 C 0.28703 0.32495 0.13301 0.0
C2345 C 0.30609 0.33698 0.11916 0.0
C2346 C 0.32163 0.39655 0.11859 0.0
H2347 H 0.41346 0.42756 0.09092 0.0
H2348 H 0.38407 0.40164 0.0957 0.0
H2349 H 0.33149 0.42983 0.11471 0.0
H2350 H 0.28933 0.34868 0.14426 0.0
H2351 H 0.31105 0.3766 0.13587 0.0
H2352 H 0.35157 0.34865 0.11434 0.0
C2353 C 0.38637 0.41711 0.0995 0.0
C2354 C 0.33617 0.41219 0.11462 0.0
C2355 C 0.40303 0.43216 0.09667 0.0
C2356 C 0.29346 0.34529 0.1372 0.0
C2357 C 0.30596 0.36128 0.13242 0.0
C2358 C 0.34694 0.36632 0.11435 0.0
C2359 C 0.37306 0.42188 0.10719 0.0
C2360 C 0.35657 0.40513 0.11067 0.0
C2361 C 0.31256 0.35716 0.12339 0.0
C2362 C 0.32702 0.37353 0.11858 0.0
H2363 H 0.39483 0.4732 0.11262 0.0
H2364 H 0.36665 0.44655 0.11782 0.0
H2365 H 0.37735 0.37592 0.10765 0.0
H2366 H 0.28828 0.30583 0.12039 0.0
H2367 H 0.31086 0.33353 0.11217 0.0
loop_
_geom_bond_atom_site_label_1
_geom_bond_atom_site_label_2
_geom_bond_distance
_geom_bond_site_symmetry_2
_ccdc_geom_bond_type
Li0 N17 1.990 . S
Li0 O60 1.956 . S
Li0 O61 1.970 1_455 S
Li0 O62 1.961 . S
Li1 N25 1.990 . S
Li1 O60 1.970 . S
Li1 O61 1.956 1_455 S
Li1 O63 1.961 . S
Li2 N47 1.990 . S
Li2 O60 1.961 . S
Li2 O62 1.956 . S
Li2 O63 1.970 . S
Li3 N53 1.990 . S
Li3 O61 1.961 . S
Li3 O62 1.970 1_655 S
Li3 O63 1.956 1_655 S
C4 C6 1.348 . S
C4 C7 1.356 . S
C4 O60 1.325 . S
N5 C8 1.314 . S
N5 C9 1.279 . S
C6 C4 1.348 . S
C6 C8 1.353 . S
C6 H64 0.929 . S
C7 C4 1.356 . S
C7 C9 1.358 . S
C7 H65 0.930 . S
C8 N5 1.314 . S
C8 C6 1.353 . S
C8 H66 0.930 . S
C9 N5 1.279 . S
C9 C7 1.358 . S
C9 H67 0.930 . S
C10 C13 1.348 . S
C10 C14 1.356 . S
C10 O61 1.325 . S
C11 N12 1.279 . S
C11 C14 1.358 . S
C11 H68 0.930 . S
N12 C11 1.279 . S
N12 C15 1.314 . S
C13 C10 1.348 . S
C13 C15 1.353 . S
C13 H69 0.929 . S
C14 C10 1.356 . S
C14 C11 1.358 . S
C14 H70 0.930 . S
C15 N12 1.314 . S
C15 C13 1.353 . S
C15 H71 0.930 . S
C16 N17 1.314 1_655 S
C16 C21 1.353 . S
C16 H22 0.930 . S
N17 Li0 1.990 . S
N17 C16 1.314 1_455 S
N17 C19 1.279 . S
C18 C19 1.358 . S
C18 C20 1.356 . S
C18 H72 0.930 . S
C19 N17 1.279 . S
C19 C18 1.358 . S
C19 H23 0.930 . S
C20 C18 1.356 . S
C20 C21 1.348 1_455 S
C21 C16 1.353 . S
C21 C20 1.348 1_655 S
C21 H73 0.928 . S
H22 C16 0.930 . S
H23 C19 0.930 . S
C24 N25 1.314 . S
C24 C26 1.353 . S
C24 H30 0.930 . S
N25 Li1 1.990 . S
N25 C24 1.314 . S
N25 C28 1.279 1_455 S
C26 C24 1.353 . S
C26 C29 1.348 . S
C26 H74 0.929 . S
C27 C28 1.358 . S
C27 C29 1.356 1_655 S
C27 H75 0.930 . S
C28 N25 1.279 1_655 S
C28 C27 1.358 . S
C28 H31 0.930 . S
C29 C26 1.348 . S
C29 C27 1.356 1_455 S
H30 C24 0.930 . S
H31 C28 0.930 . S
C32 C34 1.348 1_455 S
C32 C35 1.356 . S
C32 O62 1.325 1_565 S
N33 C36 1.314 1_455 S
N33 C37 1.279 . S
C34 C32 1.348 1_655 S
C34 C36 1.353 . S
C34 H76 0.929 . S
C35 C32 1.356 . S
C35 C37 1.358 . S
C35 H77 0.930 . S
C36 N33 1.314 1_655 S
C36 C34 1.353 . S
C36 H78 0.930 . S
C37 N33 1.279 . S
C37 C35 1.358 . S
C37 H79 0.930 . S
C38 C39 1.348 . S
C38 C40 1.356 1_455 S
C38 O63 1.325 . S
C39 C38 1.348 . S
C39 C41 1.353 . S
C39 H80 0.929 . S
C40 C38 1.356 1_655 S
C40 C42 1.358 . S
C40 H81 0.930 . S
C41 C39 1.353 . S
C41 N43 1.314 . S
C41 H82 0.930 . S
C42 C40 1.358 . S
C42 N43 1.279 1_655 S
C42 H83 0.930 . S
N43 C41 1.314 . S
N43 C42 1.279 1_455 S
C44 C46 1.353 . S
C44 N47 1.314 . S
C44 H50 0.930 . S
C45 N47 1.279 1_565 S
C45 C48 1.358 . S
C45 H51 0.930 . S
C46 C44 1.353 . S
C46 C49 1.348 1_545 S
C46 H84 0.929 . S
N47 Li2 1.990 . S
N47 C44 1.314 . S
N47 C45 1.279 1_545 S
C48 C45 1.358 . S
C48 C49 1.356 . S
C48 H85 0.930 . S
C49 C46 1.348 1_565 S
C49 C48 1.356 . S
H50 C44 0.930 . S
H51 C45 0.930 . S
C52 N53 1.314 . S
C52 C54 1.353 1_545 S
C52 H58 0.930 . S
N53 Li3 1.990 . S
N53 C52 1.314 . S
N53 C56 1.279 . S
C54 C52 1.353 1_565 S
C54 C57 1.348 . S
C54 H86 0.929 . S
C55 C56 1.357 . S
C55 C57 1.357 1_545 S
C55 H87 0.930 1_545 S
C56 N53 1.279 . S
C56 C55 1.357 . S
C56 H59 0.930 . S
C57 C54 1.348 . S
C57 C55 1.357 1_565 S
H58 C52 0.930 . S
H59 C56 0.930 . S
O60 Li0 1.956 . S
O60 Li1 1.970 . S
O60 Li2 1.961 . S
O60 C4 1.325 . S
O61 Li0 1.970 1_655 S
O61 Li1 1.956 1_655 S
O61 Li3 1.961 . S
O61 C10 1.325 . S
O62 Li0 1.961 . S
O62 Li2 1.956 . S
O62 Li3 1.970 1_455 S
O62 C32 1.325 1_545 S
O63 Li1 1.961 . S
O63 Li2 1.970 . S
O63 Li3 1.956 1_455 S
O63 C38 1.325 . S
H64 C6 0.929 . S
H65 C7 0.930 . S
H66 C8 0.930 . S
H67 C9 0.930 . S
H68 C11 0.930 . S
H69 C13 0.929 . S
H70 C14 0.930 . S
H71 C15 0.930 . S
H72 C18 0.930 . S
H73 C21 0.928 . S
H74 C26 0.929 . S
H75 C27 0.930 . S
H76 C34 0.929 . S
H77 C35 0.930 . S
H78 C36 0.930 . S
H79 C37 0.930 . S
H80 C39 0.929 . S
H81 C40 0.930 . S
H82 C41 0.930 . S
H83 C42 0.930 . S
H84 C46 0.929 . S
H85 C48 0.930 . S
H86 C54 0.929 . S
H87 C55 0.930 1_565 S
Li88 N105 1.990 . S
Li88 O148 1.956 . S
Li88 O149 1.970 . S
Li88 O150 1.961 . S
Li89 N113 1.990 . S
Li89 O148 1.970 . S
Li89 O149 1.956 . S
Li89 O151 1.961 . S
Li90 N135 1.990 . S
Li90 O148 1.961 . S
Li90 O150 1.956 . S
Li90 O151 1.970 . S
Li91 N141 1.990 . S
Li91 O149 1.961 . S
Li91 O150 1.970 . S
Li91 O151 1.956 . S
C92 C94 1.348 . S
C92 C95 1.356 . S
C92 O148 1.325 . S
N93 C96 1.314 . S
N93 C97 1.279 . S
C94 C92 1.348 . S
C94 C96 1.353 . S
C94 H152 0.929 . S
C95 C92 1.356 . S
C95 C97 1.358 . S
C95 H153 0.930 . S
C96 N93 1.314 . S
C96 C94 1.353 . S
C96 H154 0.930 . S
C97 N93 1.279 . S
C97 C95 1.358 . S
C97 H155 0.930 . S
C98 C101 1.348 . S
C98 C102 1.356 . S
C98 O149 1.325 . S
C99 N100 1.279 . S
C99 C102 1.358 . S
C99 H156 0.930 . S
N100 C99 1.279 . S
N100 C103 1.314 . S
C101 C98 1.348 . S
C101 C103 1.353 . S
C101 H157 0.929 . S
C102 C98 1.356 . S
C102 C99 1.358 . S
C102 H158 0.930 . S
C103 N100 1.314 . S
C103 C101 1.353 . S
C103 H159 0.930 . S
C104 N105 1.314 . S
C104 C109 1.353 . S
C104 H110 0.930 . S
N105 Li88 1.990 . S
N105 C104 1.314 . S
N105 C107 1.279 . S
C106 C107 1.358 . S
C106 C108 1.356 . S
C106 H160 0.930 . S
C107 N105 1.279 . S
C107 C106 1.358 . S
C107 H111 0.930 . S
C108 C106 1.356 . S
C108 C109 1.348 . S
C109 C104 1.353 . S
C109 C108 1.348 . S
C109 H161 0.929 . S
H110 C104 0.930 . S
H111 C107 0.930 . S
C112 N113 1.314 . S
C112 C114 1.353 . S
C112 H118 0.930 . S
N113 Li89 1.990 . S
N113 C112 1.314 . S
N113 C116 1.279 . S
C114 C112 1.353 . S
C114 C117 1.348 . S
C114 H162 0.929 . S
C115 C116 1.358 . S
C115 C117 1.356 . S
C115 H163 0.930 . S
C116 N113 1.279 . S
C116 C115 1.358 . S
C116 H119 0.930 . S
C117 C114 1.348 . S
C117 C115 1.356 . S
H118 C112 0.930 . S
H119 C116 0.930 . S
C120 C122 1.348 . S
C120 C123 1.356 . S
C120 O150 1.325 . S
N121 C124 1.314 . S
N121 C125 1.279 . S
C122 C120 1.348 . S
C122 C124 1.353 . S
C122 H164 0.929 . S
C123 C120 1.356 . S
C123 C125 1.358 . S
C123 H165 0.930 . S
C124 N121 1.314 . S
C124 C122 1.353 . S
C124 H166 0.930 . S
C125 N121 1.279 . S
C125 C123 1.358 . S
C125 H167 0.930 . S
C126 C127 1.348 . S
C126 C128 1.356 . S
C126 O151 1.325 . S
C127 C126 1.348 . S
C127 C129 1.353 . S
C127 H168 0.929 . S
C128 C126 1.356 . S
C128 C130 1.358 . S
C128 H169 0.930 . S
C129 C127 1.353 . S
C129 N131 1.314 . S
C129 H170 0.930 . S
C130 C128 1.358 . S
C130 N131 1.279 . S
C130 H171 0.930 . S
N131 C129 1.314 . S
N131 C130 1.279 . S
C132 C134 1.353 . S
C132 N135 1.314 . S
C132 H138 0.930 . S
C133 N135 1.279 . S
C133 C136 1.358 . S
C133 H139 0.930 . S
C134 C132 1.353 . S
C134 C137 1.348 . S
C134 H172 0.929 . S
N135 Li90 1.990 . S
N135 C132 1.314 . S
N135 C133 1.279 . S
C136 C133 1.358 . S
C136 C137 1.356 . S
C136 H173 0.930 . S
C137 C134 1.348 . S
C137 C136 1.356 . S
H138 C132 0.930 . S
H139 C133 0.930 . S
C140 N141 1.314 . S
C140 C142 1.353 . S
C140 H146 0.930 . S
N141 Li91 1.990 . S
N141 C140 1.314 . S
N141 C144 1.279 . S
C142 C140 1.353 . S
C142 C145 1.348 . S
C142 H174 0.929 . S
C143 C144 1.358 . S
C143 C145 1.356 . S
C143 H175 0.930 . S
C144 N141 1.279 . S
C144 C143 1.358 . S
C144 H147 0.930 . S
C145 C142 1.348 . S
C145 C143 1.356 . S
H146 C140 0.930 . S
H147 C144 0.930 . S
O148 Li88 1.956 . S
O148 Li89 1.970 . S
O148 Li90 1.961 . S
O148 C92 1.325 . S
O149 Li88 1.970 . S
O149 Li89 1.956 . S
O149 Li91 1.961 . S
O149 C98 1.325 . S
O150 Li88 1.961 . S
O150 Li90 1.956 . S
O150 Li91 1.970 . S
O150 C120 1.325 . S
O151 Li89 1.961 . S
O151 Li90 1.970 . S
O151 Li91 1.956 . S
O151 C126 1.325 . S
H152 C94 0.929 . S
H153 C95 0.930 . S
H154 C96 0.930 . S
H155 C97 0.930 . S
H156 C99 0.930 . S
H157 C101 0.929 . S
H158 C102 0.930 . S
H159 C103 0.930 . S
H160 C106 0.930 . S
H161 C109 0.929 . S
H162 C114 0.929 . S
H163 C115 0.930 . S
H164 C122 0.929 . S
H165 C123 0.930 . S
H166 C124 0.930 . S
H167 C125 0.930 . S
H168 C127 0.929 . S
H169 C128 0.930 . S
H170 C129 0.930 . S
H171 C130 0.930 . S
H172 C134 0.929 . S
H173 C136 0.930 . S
H174 C142 0.929 . S
H175 C143 0.930 . S
Li176 N193 1.990 . S
Li176 O236 1.956 . S
Li176 O237 1.970 . S
Li176 O238 1.961 . S
Li177 N201 1.990 . S
Li177 O236 1.970 . S
Li177 O237 1.956 . S
Li177 O239 1.961 . S
Li178 N223 1.990 . S
Li178 O236 1.961 . S
Li178 O238 1.956 . S
Li178 O239 1.970 . S
Li179 N229 1.990 . S
Li179 O237 1.961 . S
Li179 O238 1.970 . S
Li179 O239 1.956 . S
C180 C182 1.348 . S
C180 C183 1.356 . S
C180 O236 1.325 . S
N181 C184 1.314 . S
N181 C185 1.279 . S
C182 C180 1.348 . S
C182 C184 1.353 . S
C182 H240 0.929 . S
C183 C180 1.356 . S
C183 C185 1.358 . S
C183 H241 0.930 . S
C184 N181 1.314 . S
C184 C182 1.353 . S
C184 H242 0.930 . S
C185 N181 1.279 . S
C185 C183 1.358 . S
C185 H243 0.930 . S
C186 C189 1.348 . S
C186 C190 1.356 . S
C186 O237 1.325 1_545 S
C187 N188 1.279 . S
C187 C190 1.358 . S
C187 H244 0.930 . S
N188 C187 1.279 . S
N188 C191 1.314 . S
C189 C186 1.348 . S
C189 C191 1.353 . S
C189 H245 0.929 . S
C190 C186 1.356 . S
C190 C187 1.358 . S
C190 H246 0.930 . S
C191 N188 1.314 . S
C191 C189 1.353 . S
C191 H247 0.930 . S
C192 N193 1.314 . S
C192 C197 1.353 1_565 S
C192 H198 0.930 . S
N193 Li176 1.990 . S
N193 C192 1.314 . S
N193 C195 1.279 . S
C194 C195 1.358 . S
C194 C196 1.357 1_565 S
C194 H248 0.930 1_565 S
C195 N193 1.279 . S
C195 C194 1.358 . S
C195 H199 0.930 . S
C196 C194 1.357 1_545 S
C196 C197 1.348 . S
C197 C192 1.353 1_545 S
C197 C196 1.348 . S
C197 H249 0.929 . S
H198 C192 0.930 . S
H199 C195 0.930 . S
C200 N201 1.314 . S
C200 C202 1.353 . S
C200 H206 0.930 . S
N201 Li177 1.990 . S
N201 C200 1.314 . S
N201 C204 1.279 1_565 S
C202 C200 1.353 . S
C202 C205 1.348 1_565 S
C202 H250 0.929 . S
C203 C204 1.358 . S
C203 C205 1.356 . S
C203 H251 0.930 . S
C204 N201 1.279 1_545 S
C204 C203 1.358 . S
C204 H207 0.930 . S
C205 C202 1.348 1_545 S
C205 C203 1.356 . S
H206 C200 0.930 . S
H207 C204 0.930 . S
C208 C210 1.348 . S
C208 C211 1.356 . S
C208 O238 1.325 . S
N209 C212 1.314 . S
N209 C213 1.279 . S
C210 C208 1.348 . S
C210 C212 1.353 . S
C210 H252 0.929 . S
C211 C208 1.356 . S
C211 C213 1.358 . S
C211 H253 0.930 . S
C212 N209 1.314 . S
C212 C210 1.353 . S
C212 H254 0.930 . S
C213 N209 1.279 . S
C213 C211 1.358 . S
C213 H255 0.930 . S
C214 C215 1.348 . S
C214 C216 1.356 . S
C214 O239 1.325 . S
C215 C214 1.348 . S
C215 C217 1.353 . S
C215 H256 0.929 . S
C216 C214 1.356 . S
C216 C218 1.358 . S
C216 H257 0.930 . S
C217 C215 1.353 . S
C217 N219 1.314 . S
C217 H258 0.930 . S
C218 C216 1.358 . S
C218 N219 1.279 . S
C218 H259 0.930 . S
N219 C217 1.314 . S
N219 C218 1.279 . S
C220 C222 1.353 . S
C220 N223 1.314 . S
C220 H226 0.930 . S
C221 N223 1.279 . S
C221 C224 1.358 . S
C221 H227 0.930 . S
C222 C220 1.353 . S
C222 C225 1.348 . S
C222 H260 0.929 . S
N223 Li178 1.990 . S
N223 C220 1.314 . S
N223 C221 1.279 . S
C224 C221 1.358 . S
C224 C225 1.356 . S
C224 H261 0.930 . S
C225 C222 1.348 . S
C225 C224 1.356 . S
H226 C220 0.930 . S
H227 C221 0.930 . S
C228 N229 1.314 . S
C228 C230 1.353 . S
C228 H234 0.930 . S
N229 Li179 1.990 . S
N229 C228 1.314 . S
N229 C232 1.279 . S
C230 C228 1.353 . S
C230 C233 1.348 . S
C230 H262 0.929 . S
C231 C232 1.358 . S
C231 C233 1.356 . S
C231 H263 0.930 . S
C232 N229 1.279 . S
C232 C231 1.358 . S
C232 H235 0.930 . S
C233 C230 1.348 . S
C233 C231 1.356 . S
H234 C228 0.930 . S
H235 C232 0.930 . S
O236 Li176 1.956 . S
O236 Li177 1.970 . S
O236 Li178 1.961 . S
O236 C180 1.325 . S
O237 Li176 1.970 . S
O237 Li177 1.956 . S
O237 Li179 1.961 . S
O237 C186 1.325 1_565 S
O238 Li176 1.961 . S
O238 Li178 1.956 . S
O238 Li179 1.970 . S
O238 C208 1.325 . S
O239 Li177 1.961 . S
O239 Li178 1.970 . S
O239 Li179 1.956 . S
O239 C214 1.325 . S
H240 C182 0.929 . S
H241 C183 0.930 . S
H242 C184 0.930 . S
H243 C185 0.930 . S
H244 C187 0.930 . S
H245 C189 0.929 . S
H246 C190 0.930 . S
H247 C191 0.930 . S
H248 C194 0.930 1_545 S
H249 C197 0.929 . S
H250 C202 0.929 . S
H251 C203 0.930 . S
H252 C210 0.929 . S
H253 C211 0.930 . S
H254 C212 0.930 . S
H255 C213 0.930 . S
H256 C215 0.929 . S
H257 C216 0.930 . S
H258 C217 0.930 . S
H259 C218 0.930 . S
H260 C222 0.929 . S
H261 C224 0.930 . S
H262 C230 0.929 . S
H263 C231 0.930 . S
Li264 N281 1.990 . S
Li264 O324 1.956 . S
Li264 O325 1.970 . S
Li264 O326 1.961 . S
Li265 N289 1.990 . S
Li265 O324 1.970 . S
Li265 O325 1.956 . S
Li265 O327 1.961 . S
Li266 N311 1.990 . S
Li266 O324 1.961 . S
Li266 O326 1.956 . S
Li266 O327 1.970 . S
Li267 N317 1.990 . S
Li267 O325 1.961 . S
Li267 O326 1.970 . S
Li267 O327 1.956 . S
C268 C270 1.348 . S
C268 C271 1.356 . S
C268 O324 1.325 . S
N269 C272 1.314 . S
N269 C273 1.279 . S
C270 C268 1.348 . S
C270 C272 1.353 . S
C270 H328 0.929 . S
C271 C268 1.356 . S
C271 C273 1.358 . S
C271 H329 0.930 . S
C272 N269 1.314 . S
C272 C270 1.353 . S
C272 H330 0.930 . S
C273 N269 1.279 . S
C273 C271 1.358 . S
C273 H331 0.930 . S
C274 C277 1.348 . S
C274 C278 1.356 . S
C274 O325 1.325 . S
C275 N276 1.279 . S
C275 C278 1.358 . S
C275 H332 0.930 . S
N276 C275 1.279 . S
N276 C279 1.314 . S
C277 C274 1.348 . S
C277 C279 1.353 . S
C277 H333 0.929 . S
C278 C274 1.356 . S
C278 C275 1.358 . S
C278 H334 0.930 . S
C279 N276 1.314 . S
C279 C277 1.353 . S
C279 H335 0.930 . S
C280 N281 1.314 . S
C280 C285 1.353 . S
C280 H286 0.930 . S
N281 Li264 1.990 . S
N281 C280 1.314 . S
N281 C283 1.279 . S
C282 C283 1.358 . S
C282 C284 1.356 . S
C282 H336 0.930 . S
C283 N281 1.279 . S
C283 C282 1.358 . S
C283 H287 0.930 . S
C284 C282 1.356 . S
C284 C285 1.348 . S
C285 C280 1.353 . S
C285 C284 1.348 . S
C285 H337 0.929 . S
H286 C280 0.930 . S
H287 C283 0.930 . S
C288 N289 1.314 . S
C288 C290 1.353 . S
C288 H294 0.930 . S
N289 Li265 1.990 . S
N289 C288 1.314 . S
N289 C292 1.279 . S
C290 C288 1.353 . S
C290 C293 1.348 . S
C290 H338 0.929 . S
C291 C292 1.358 . S
C291 C293 1.356 . S
C291 H339 0.930 . S
C292 N289 1.279 . S
C292 C291 1.358 . S
C292 H295 0.930 . S
C293 C290 1.348 . S
C293 C291 1.356 . S
H294 C288 0.930 . S
H295 C292 0.930 . S
C296 C298 1.348 . S
C296 C299 1.356 . S
C296 O326 1.325 . S
N297 C300 1.314 . S
N297 C301 1.279 . S
C298 C296 1.348 . S
C298 C300 1.353 . S
C298 H340 0.929 . S
C299 C296 1.356 . S
C299 C301 1.358 . S
C299 H341 0.930 . S
C300 N297 1.314 . S
C300 C298 1.353 . S
C300 H342 0.930 . S
C301 N297 1.279 . S
C301 C299 1.358 . S
C301 H343 0.930 . S
C302 C303 1.348 . S
C302 C304 1.356 . S
C302 O327 1.325 . S
C303 C302 1.348 . S
C303 C305 1.353 . S
C303 H344 0.929 . S
C304 C302 1.356 . S
C304 C306 1.358 . S
C304 H345 0.930 . S
C305 C303 1.353 . S
C305 N307 1.314 . S
C305 H346 0.930 . S
C306 C304 1.358 . S
C306 N307 1.279 . S
C306 H347 0.930 . S
N307 C305 1.314 . S
N307 C306 1.279 . S
C308 C310 1.353 . S
C308 N311 1.314 . S
C308 H314 0.930 . S
C309 N311 1.279 . S
C309 C312 1.358 . S
C309 H315 0.930 . S
C310 C308 1.353 . S
C310 C313 1.348 . S
C310 H348 0.929 . S
N311 Li266 1.990 . S
N311 C308 1.314 . S
N311 C309 1.279 . S
C312 C309 1.358 . S
C312 C313 1.356 . S
C312 H349 0.930 . S
C313 C310 1.348 . S
C313 C312 1.356 . S
H314 C308 0.930 . S
H315 C309 0.930 . S
C316 N317 1.314 . S
C316 C318 1.353 . S
C316 H322 0.930 . S
N317 Li267 1.990 . S
N317 C316 1.314 . S
N317 C320 1.279 . S
C318 C316 1.353 . S
C318 C321 1.348 . S
C318 H350 0.929 . S
C319 C320 1.358 . S
C319 C321 1.356 . S
C319 H351 0.930 . S
C320 N317 1.279 . S
C320 C319 1.358 . S
C320 H323 0.930 . S
C321 C318 1.348 . S
C321 C319 1.356 . S
H322 C316 0.930 . S
H323 C320 0.930 . S
O324 Li264 1.956 . S
O324 Li265 1.970 . S
O324 Li266 1.961 . S
O324 C268 1.325 . S
O325 Li264 1.970 . S
O325 Li265 1.956 . S
O325 Li267 1.961 . S
O325 C274 1.325 . S
O326 Li264 1.961 . S
O326 Li266 1.956 . S
O326 Li267 1.970 . S
O326 C296 1.325 . S
O327 Li265 1.961 . S
O327 Li266 1.970 . S
O327 Li267 1.956 . S
O327 C302 1.325 . S
H328 C270 0.929 . S
H329 C271 0.930 . S
H330 C272 0.930 . S
H331 C273 0.930 . S
H332 C275 0.930 . S
H333 C277 0.929 . S
H334 C278 0.930 . S
H335 C279 0.930 . S
H336 C282 0.930 . S
H337 C285 0.929 . S
H338 C290 0.929 . S
H339 C291 0.930 . S
H340 C298 0.929 . S
H341 C299 0.930 . S
H342 C300 0.930 . S
H343 C301 0.930 . S
H344 C303 0.929 . S
H345 C304 0.930 . S
H346 C305 0.930 . S
H347 C306 0.930 . S
H348 C310 0.929 . S
H349 C312 0.930 . S
H350 C318 0.929 . S
H351 C319 0.930 . S
Li352 N369 1.990 . S
Li352 O412 1.956 1_655 S
Li352 O413 1.970 1_655 S
Li352 O414 1.961 . S
Li353 N377 1.990 . S
Li353 O412 1.970 . S
Li353 O413 1.956 . S
Li353 O415 1.961 . S
Li354 N399 1.990 . S
Li354 O412 1.961 . S
Li354 O414 1.956 1_455 S
Li354 O415 1.970 . S
Li355 N405 1.990 . S
Li355 O413 1.961 . S
Li355 O414 1.970 1_455 S
Li355 O415 1.956 . S
C356 C358 1.348 . S
C356 C359 1.356 1_455 S
C356 O412 1.325 . S
N357 C360 1.314 . S
N357 C361 1.279 1_455 S
C358 C356 1.348 . S
C358 C360 1.353 . S
C358 H416 0.929 . S
C359 C356 1.356 1_655 S
C359 C361 1.358 . S
C359 H417 0.930 . S
C360 N357 1.314 . S
C360 C358 1.353 . S
C360 H418 0.930 . S
C361 N357 1.279 1_655 S
C361 C359 1.358 . S
C361 H419 0.930 . S
C362 C365 1.348 1_455 S
C362 C366 1.356 . S
C362 O413 1.325 1_545 S
C363 N364 1.279 . S
C363 C366 1.358 . S
C363 H420 0.930 . S
N364 C363 1.279 . S
N364 C367 1.314 1_455 S
C365 C362 1.348 1_655 S
C365 C367 1.353 . S
C365 H421 0.929 . S
C366 C362 1.356 . S
C366 C363 1.358 . S
C366 H422 0.930 . S
C367 N364 1.314 1_655 S
C367 C365 1.353 . S
C367 H423 0.930 . S
C368 N369 1.314 . S
C368 C373 1.353 1_565 S
C368 H374 0.930 . S
N369 Li352 1.990 . S
N369 C368 1.314 . S
N369 C371 1.279 . S
C370 C371 1.357 . S
C370 C372 1.357 1_565 S
C370 H424 0.930 1_565 S
C371 N369 1.279 . S
C371 C370 1.357 . S
C371 H375 0.930 . S
C372 C370 1.357 1_545 S
C372 C373 1.348 . S
C373 C368 1.353 1_545 S
C373 C372 1.348 . S
C373 H425 0.929 . S
H374 C368 0.930 . S
H375 C371 0.930 . S
C376 N377 1.314 . S
C376 C378 1.353 . S
C376 H382 0.930 . S
N377 Li353 1.990 . S
N377 C376 1.314 . S
N377 C380 1.279 1_565 S
C378 C376 1.353 . S
C378 C381 1.348 1_565 S
C378 H426 0.929 . S
C379 C380 1.358 . S
C379 C381 1.356 . S
C379 H427 0.930 . S
C380 N377 1.279 1_545 S
C380 C379 1.358 . S
C380 H383 0.930 . S
C381 C378 1.348 1_545 S
C381 C379 1.356 . S
H382 C376 0.930 . S
H383 C380 0.930 . S
C384 C386 1.348 . S
C384 C387 1.356 . S
C384 O414 1.325 . S
N385 C388 1.314 . S
N385 C389 1.279 . S
C386 C384 1.348 . S
C386 C388 1.353 . S
C386 H428 0.929 . S
C387 C384 1.356 . S
C387 C389 1.358 . S
C387 H429 0.930 . S
C388 N385 1.314 . S
C388 C386 1.353 . S
C388 H430 0.930 . S
C389 N385 1.279 . S
C389 C387 1.358 . S
C389 H431 0.930 . S
C390 C391 1.348 . S
C390 C392 1.356 . S
C390 O415 1.325 . S
C391 C390 1.348 . S
C391 C393 1.353 . S
C391 H432 0.929 . S
C392 C390 1.356 . S
C392 C394 1.358 . S
C392 H433 0.930 . S
C393 C391 1.353 . S
C393 N395 1.314 . S
C393 H434 0.930 . S
C394 C392 1.358 . S
C394 N395 1.279 . S
C394 H435 0.930 . S
N395 C393 1.314 . S
N395 C394 1.279 . S
C396 C398 1.353 . S
C396 N399 1.314 . S
C396 H402 0.930 . S
C397 N399 1.279 1_655 S
C397 C400 1.358 . S
C397 H403 0.930 . S
C398 C396 1.353 . S
C398 C401 1.348 . S
C398 H436 0.929 . S
N399 Li354 1.990 . S
N399 C396 1.314 . S
N399 C397 1.279 1_455 S
C400 C397 1.358 . S
C400 C401 1.356 1_655 S
C400 H437 0.930 . S
C401 C398 1.348 . S
C401 C400 1.356 1_455 S
H402 C396 0.930 . S
H403 C397 0.930 . S
C404 N405 1.314 1_655 S
C404 C406 1.353 . S
C404 H410 0.930 . S
N405 Li355 1.990 . S
N405 C404 1.314 1_455 S
N405 C408 1.279 . S
C406 C404 1.353 . S
C406 C409 1.348 1_655 S
C406 H438 0.928 . S
C407 C408 1.358 . S
C407 C409 1.356 . S
C407 H439 0.930 . S
C408 N405 1.279 . S
C408 C407 1.358 . S
C408 H411 0.930 . S
C409 C406 1.348 1_455 S
C409 C407 1.356 . S
H410 C404 0.930 . S
H411 C408 0.930 . S
O412 Li352 1.956 1_455 S
O412 Li353 1.970 . S
O412 Li354 1.961 . S
O412 C356 1.325 . S
O413 Li352 1.970 1_455 S
O413 Li353 1.956 . S
O413 Li355 1.961 . S
O413 C362 1.325 1_565 S
O414 Li352 1.961 . S
O414 Li354 1.956 1_655 S
O414 Li355 1.970 1_655 S
O414 C384 1.325 . S
O415 Li353 1.961 . S
O415 Li354 1.970 . S
O415 Li355 1.956 . S
O415 C390 1.325 . S
H416 C358 0.929 . S
H417 C359 0.930 . S
H418 C360 0.930 . S
H419 C361 0.930 . S
H420 C363 0.930 . S
H421 C365 0.929 . S
H422 C366 0.930 . S
H423 C367 0.930 . S
H424 C370 0.930 1_545 S
H425 C373 0.929 . S
H426 C378 0.929 . S
H427 C379 0.930 . S
H428 C386 0.929 . S
H429 C387 0.930 . S
H430 C388 0.930 . S
H431 C389 0.930 . S
H432 C391 0.929 . S
H433 C392 0.930 . S
H434 C393 0.930 . S
H435 C394 0.930 . S
H436 C398 0.929 . S
H437 C400 0.930 . S
H438 C406 0.928 . S
H439 C407 0.930 . S
Li440 N457 1.990 . S
Li440 O500 1.956 . S
Li440 O501 1.970 . S
Li440 O502 1.961 . S
Li441 N465 1.990 . S
Li441 O500 1.970 . S
Li441 O501 1.956 . S
Li441 O503 1.961 . S
Li442 N487 1.990 . S
Li442 O500 1.961 . S
Li442 O502 1.956 . S
Li442 O503 1.970 . S
Li443 N493 1.990 . S
Li443 O501 1.961 . S
Li443 O502 1.970 . S
Li443 O503 1.956 . S
C444 C446 1.348 . S
C444 C447 1.356 . S
C444 O500 1.325 . S
N445 C448 1.314 . S
N445 C449 1.279 . S
C446 C444 1.348 . S
C446 C448 1.353 . S
C446 H504 0.929 . S
C447 C444 1.356 . S
C447 C449 1.358 . S
C447 H505 0.930 . S
C448 N445 1.314 . S
C448 C446 1.353 . S
C448 H506 0.930 . S
C449 N445 1.279 . S
C449 C447 1.358 . S
C449 H507 0.930 . S
C450 C453 1.348 . S
C450 C454 1.356 . S
C450 O501 1.325 . S
C451 N452 1.279 . S
C451 C454 1.358 . S
C451 H508 0.930 . S
N452 C451 1.279 . S
N452 C455 1.314 . S
C453 C450 1.348 . S
C453 C455 1.353 . S
C453 H509 0.929 . S
C454 C450 1.356 . S
C454 C451 1.358 . S
C454 H510 0.930 . S
C455 N452 1.314 . S
C455 C453 1.353 . S
C455 H511 0.930 . S
C456 N457 1.314 . S
C456 C461 1.353 . S
C456 H462 0.930 . S
N457 Li440 1.990 . S
N457 C456 1.314 . S
N457 C459 1.279 . S
C458 C459 1.358 . S
C458 C460 1.356 . S
C458 H512 0.930 . S
C459 N457 1.279 . S
C459 C458 1.358 . S
C459 H463 0.930 . S
C460 C458 1.356 . S
C460 C461 1.348 . S
C461 C456 1.353 . S
C461 C460 1.348 . S
C461 H513 0.929 . S
H462 C456 0.930 . S
H463 C459 0.930 . S
C464 N465 1.314 . S
C464 C466 1.353 . S
C464 H470 0.930 . S
N465 Li441 1.990 . S
N465 C464 1.314 . S
N465 C468 1.279 . S
C466 C464 1.353 . S
C466 C469 1.348 . S
C466 H514 0.929 . S
C467 C468 1.358 . S
C467 C469 1.356 . S
C467 H515 0.930 . S
C468 N465 1.279 . S
C468 C467 1.358 . S
C468 H471 0.930 . S
C469 C466 1.348 . S
C469 C467 1.356 . S
H470 C464 0.930 . S
H471 C468 0.930 . S
C472 C474 1.348 . S
C472 C475 1.356 . S
C472 O502 1.325 . S
N473 C476 1.314 . S
N473 C477 1.279 . S
C474 C472 1.348 . S
C474 C476 1.353 . S
C474 H516 0.929 . S
C475 C472 1.356 . S
C475 C477 1.358 . S
C475 H517 0.930 . S
C476 N473 1.314 . S
C476 C474 1.353 . S
C476 H518 0.930 . S
C477 N473 1.279 . S
C477 C475 1.358 . S
C477 H519 0.930 . S
C478 C479 1.348 . S
C478 C480 1.356 . S
C478 O503 1.325 . S
C479 C478 1.348 . S
C479 C481 1.353 . S
C479 H520 0.929 . S
C480 C478 1.356 . S
C480 C482 1.358 . S
C480 H521 0.930 . S
C481 C479 1.353 . S
C481 N483 1.314 . S
C481 H522 0.930 . S
C482 C480 1.358 . S
C482 N483 1.279 . S
C482 H523 0.930 . S
N483 C481 1.314 . S
N483 C482 1.279 . S
C484 C486 1.353 . S
C484 N487 1.314 . S
C484 H490 0.930 . S
C485 N487 1.279 . S
C485 C488 1.358 . S
C485 H491 0.930 . S
C486 C484 1.353 . S
C486 C489 1.348 . S
C486 H524 0.929 . S
N487 Li442 1.990 . S
N487 C484 1.314 . S
N487 C485 1.279 . S
C488 C485 1.358 . S
C488 C489 1.356 . S
C488 H525 0.930 . S
C489 C486 1.348 . S
C489 C488 1.356 . S
H490 C484 0.930 . S
H491 C485 0.930 . S
C492 N493 1.314 . S
C492 C494 1.353 . S
C492 H498 0.930 . S
N493 Li443 1.990 . S
N493 C492 1.314 . S
N493 C496 1.279 . S
C494 C492 1.353 . S
C494 C497 1.348 . S
C494 H526 0.929 . S
C495 C496 1.358 . S
C495 C497 1.356 . S
C495 H527 0.930 . S
C496 N493 1.279 . S
C496 C495 1.358 . S
C496 H499 0.930 . S
C497 C494 1.348 . S
C497 C495 1.356 . S
H498 C492 0.930 . S
H499 C496 0.930 . S
O500 Li440 1.956 . S
O500 Li441 1.970 . S
O500 Li442 1.961 . S
O500 C444 1.325 . S
O501 Li440 1.970 . S
O501 Li441 1.956 . S
O501 Li443 1.961 . S
O501 C450 1.325 . S
O502 Li440 1.961 . S
O502 Li442 1.956 . S
O502 Li443 1.970 . S
O502 C472 1.325 . S
O503 Li441 1.961 . S
O503 Li442 1.970 . S
O503 Li443 1.956 . S
O503 C478 1.325 . S
H504 C446 0.929 . S
H505 C447 0.930 . S
H506 C448 0.930 . S
H507 C449 0.930 . S
H508 C451 0.930 . S
H509 C453 0.929 . S
H510 C454 0.930 . S
H511 C455 0.930 . S
H512 C458 0.930 . S
H513 C461 0.929 . S
H514 C466 0.929 . S
H515 C467 0.930 . S
H516 C474 0.929 . S
H517 C475 0.930 . S
H518 C476 0.930 . S
H519 C477 0.930 . S
H520 C479 0.929 . S
H521 C480 0.930 . S
H522 C481 0.930 . S
H523 C482 0.930 . S
H524 C486 0.929 . S
H525 C488 0.930 . S
H526 C494 0.929 . S
H527 C495 0.930 . S
Li528 N545 1.990 . S
Li528 O588 1.956 . S
Li528 O589 1.970 . S
Li528 O590 1.961 . S
Li529 N553 1.990 . S
Li529 O588 1.970 . S
Li529 O589 1.956 . S
Li529 O591 1.961 . S
Li530 N575 1.990 . S
Li530 O588 1.961 . S
Li530 O590 1.956 . S
Li530 O591 1.970 . S
Li531 N581 1.990 . S
Li531 O589 1.961 . S
Li531 O590 1.970 . S
Li531 O591 1.956 . S
C532 C534 1.348 . S
C532 C535 1.356 . S
C532 O588 1.325 . S
N533 C536 1.314 . S
N533 C537 1.279 . S
C534 C532 1.348 . S
C534 C536 1.353 . S
C534 H592 0.929 . S
C535 C532 1.356 . S
C535 C537 1.358 . S
C535 H593 0.930 . S
C536 N533 1.314 . S
C536 C534 1.353 . S
C536 H594 0.930 . S
C537 N533 1.279 . S
C537 C535 1.358 . S
C537 H595 0.930 . S
C538 C541 1.348 . S
C538 C542 1.356 . S
C538 O589 1.325 . S
C539 N540 1.279 . S
C539 C542 1.358 . S
C539 H596 0.930 . S
N540 C539 1.279 . S
N540 C543 1.314 . S
C541 C538 1.348 . S
C541 C543 1.353 . S
C541 H597 0.929 . S
C542 C538 1.356 . S
C542 C539 1.358 . S
C542 H598 0.930 . S
C543 N540 1.314 . S
C543 C541 1.353 . S
C543 H599 0.930 . S
C544 N545 1.314 . S
C544 C549 1.353 . S
C544 H550 0.930 . S
N545 Li528 1.990 . S
N545 C544 1.314 . S
N545 C547 1.279 . S
C546 C547 1.358 . S
C546 C548 1.356 . S
C546 H600 0.930 . S
C547 N545 1.279 . S
C547 C546 1.358 . S
C547 H551 0.930 . S
C548 C546 1.356 . S
C548 C549 1.348 . S
C549 C544 1.353 . S
C549 C548 1.348 . S
C549 H601 0.929 . S
H550 C544 0.930 . S
H551 C547 0.930 . S
C552 N553 1.314 . S
C552 C554 1.353 . S
C552 H558 0.930 . S
N553 Li529 1.990 . S
N553 C552 1.314 . S
N553 C556 1.279 . S
C554 C552 1.353 . S
C554 C557 1.348 . S
C554 H602 0.929 . S
C555 C556 1.358 . S
C555 C557 1.356 . S
C555 H603 0.930 . S
C556 N553 1.279 . S
C556 C555 1.358 . S
C556 H559 0.930 . S
C557 C554 1.348 . S
C557 C555 1.356 . S
H558 C552 0.930 . S
H559 C556 0.930 . S
C560 C562 1.348 . S
C560 C563 1.356 . S
C560 O590 1.325 . S
N561 C564 1.314 . S
N561 C565 1.279 . S
C562 C560 1.348 . S
C562 C564 1.353 . S
C562 H604 0.929 . S
C563 C560 1.356 . S
C563 C565 1.358 . S
C563 H605 0.930 . S
C564 N561 1.314 . S
C564 C562 1.353 . S
C564 H606 0.930 . S
C565 N561 1.279 . S
C565 C563 1.358 . S
C565 H607 0.930 . S
C566 C567 1.348 . S
C566 C568 1.356 . S
C566 O591 1.325 1_565 S
C567 C566 1.348 . S
C567 C569 1.353 . S
C567 H608 0.929 . S
C568 C566 1.356 . S
C568 C570 1.358 . S
C568 H609 0.930 . S
C569 C567 1.353 . S
C569 N571 1.314 . S
C569 H610 0.930 . S
C570 C568 1.358 . S
C570 N571 1.279 . S
C570 H611 0.930 . S
N571 C569 1.314 . S
N571 C570 1.279 . S
C572 C574 1.353 1_545 S
C572 N575 1.314 . S
C572 H578 0.930 . S
C573 N575 1.279 . S
C573 C576 1.358 . S
C573 H579 0.930 . S
C574 C572 1.353 1_565 S
C574 C577 1.348 . S
C574 H612 0.929 . S
N575 Li530 1.990 . S
N575 C572 1.314 . S
N575 C573 1.279 . S
C576 C573 1.358 . S
C576 C577 1.357 1_545 S
C576 H613 0.930 1_545 S
C577 C574 1.348 . S
C577 C576 1.357 1_565 S
H578 C572 0.930 . S
H579 C573 0.930 . S
C580 N581 1.314 . S
C580 C582 1.353 . S
C580 H586 0.930 . S
N581 Li531 1.990 . S
N581 C580 1.314 . S
N581 C584 1.279 1_545 S
C582 C580 1.353 . S
C582 C585 1.348 1_545 S
C582 H614 0.929 . S
C583 C584 1.358 . S
C583 C585 1.356 . S
C583 H615 0.930 . S
C584 N581 1.279 1_565 S
C584 C583 1.358 . S
C584 H587 0.930 . S
C585 C582 1.348 1_565 S
C585 C583 1.356 . S
H586 C580 0.930 . S
H587 C584 0.930 . S
O588 Li528 1.956 . S
O588 Li529 1.970 . S
O588 Li530 1.961 . S
O588 C532 1.325 . S
O589 Li528 1.970 . S
O589 Li529 1.956 . S
O589 Li531 1.961 . S
O589 C538 1.325 . S
O590 Li528 1.961 . S
O590 Li530 1.956 . S
O590 Li531 1.970 . S
O590 C560 1.325 . S
O591 Li529 1.961 . S
O591 Li530 1.970 . S
O591 Li531 1.956 . S
O591 C566 1.325 1_545 S
H592 C534 0.929 . S
H593 C535 0.930 . S
H594 C536 0.930 . S
H595 C537 0.930 . S
H596 C539 0.930 . S
H597 C541 0.929 . S
H598 C542 0.930 . S
H599 C543 0.930 . S
H600 C546 0.930 . S
H601 C549 0.929 . S
H602 C554 0.929 . S
H603 C555 0.930 . S
H604 C562 0.929 . S
H605 C563 0.930 . S
H606 C564 0.930 . S
H607 C565 0.930 . S
H608 C567 0.929 . S
H609 C568 0.930 . S
H610 C569 0.930 . S
H611 C570 0.930 . S
H612 C574 0.929 . S
H613 C576 0.930 1_565 S
H614 C582 0.929 . S
H615 C583 0.930 . S
Li616 N633 1.990 . S
Li616 O676 1.956 . S
Li616 O677 1.970 . S
Li616 O678 1.961 . S
Li617 N641 1.990 . S
Li617 O676 1.970 . S
Li617 O677 1.956 . S
Li617 O679 1.961 . S
Li618 N663 1.990 . S
Li618 O676 1.961 . S
Li618 O678 1.956 . S
Li618 O679 1.970 . S
Li619 N669 1.990 . S
Li619 O677 1.961 . S
Li619 O678 1.970 . S
Li619 O679 1.956 . S
C620 C622 1.348 . S
C620 C623 1.356 . S
C620 O676 1.325 . S
N621 C624 1.314 . S
N621 C625 1.279 . S
C622 C620 1.348 . S
C622 C624 1.353 . S
C622 H680 0.929 . S
C623 C620 1.356 . S
C623 C625 1.358 . S
C623 H681 0.930 . S
C624 N621 1.314 . S
C624 C622 1.353 . S
C624 H682 0.930 . S
C625 N621 1.279 . S
C625 C623 1.358 . S
C625 H683 0.930 . S
C626 C629 1.348 . S
C626 C630 1.356 . S
C626 O677 1.325 . S
C627 N628 1.279 . S
C627 C630 1.358 . S
C627 H684 0.930 . S
N628 C627 1.279 . S
N628 C631 1.314 . S
C629 C626 1.348 . S
C629 C631 1.353 . S
C629 H685 0.929 . S
C630 C626 1.356 . S
C630 C627 1.358 . S
C630 H686 0.930 . S
C631 N628 1.314 . S
C631 C629 1.353 . S
C631 H687 0.930 . S
C632 N633 1.314 . S
C632 C637 1.353 . S
C632 H638 0.930 . S
N633 Li616 1.990 . S
N633 C632 1.314 . S
N633 C635 1.279 . S
C634 C635 1.358 . S
C634 C636 1.356 . S
C634 H688 0.930 . S
C635 N633 1.279 . S
C635 C634 1.358 . S
C635 H639 0.930 . S
C636 C634 1.356 . S
C636 C637 1.348 . S
C637 C632 1.353 . S
C637 C636 1.348 . S
C637 H689 0.929 . S
H638 C632 0.930 . S
H639 C635 0.930 . S
C640 N641 1.314 . S
C640 C642 1.353 . S
C640 H646 0.930 . S
N641 Li617 1.990 . S
N641 C640 1.314 . S
N641 C644 1.279 . S
C642 C640 1.353 . S
C642 C645 1.348 . S
C642 H690 0.929 . S
C643 C644 1.358 . S
C643 C645 1.356 . S
C643 H691 0.930 . S
C644 N641 1.279 . S
C644 C643 1.358 . S
C644 H647 0.930 . S
C645 C642 1.348 . S
C645 C643 1.356 . S
H646 C640 0.930 . S
H647 C644 0.930 . S
C648 C650 1.348 . S
C648 C651 1.356 . S
C648 O678 1.325 . S
N649 C652 1.314 . S
N649 C653 1.279 . S
C650 C648 1.348 . S
C650 C652 1.353 . S
C650 H692 0.929 . S
C651 C648 1.356 . S
C651 C653 1.358 . S
C651 H693 0.930 . S
C652 N649 1.314 . S
C652 C650 1.353 . S
C652 H694 0.930 . S
C653 N649 1.279 . S
C653 C651 1.358 . S
C653 H695 0.930 . S
C654 C655 1.348 . S
C654 C656 1.356 . S
C654 O679 1.325 . S
C655 C654 1.348 . S
C655 C657 1.353 . S
C655 H696 0.929 . S
C656 C654 1.356 . S
C656 C658 1.358 . S
C656 H697 0.930 . S
C657 C655 1.353 . S
C657 N659 1.314 . S
C657 H698 0.930 . S
C658 C656 1.358 . S
C658 N659 1.279 . S
C658 H699 0.930 . S
N659 C657 1.314 . S
N659 C658 1.279 . S
C660 C662 1.353 . S
C660 N663 1.314 . S
C660 H666 0.930 . S
C661 N663 1.279 . S
C661 C664 1.358 . S
C661 H667 0.930 . S
C662 C660 1.353 . S
C662 C665 1.348 . S
C662 H700 0.929 . S
N663 Li618 1.990 . S
N663 C660 1.314 . S
N663 C661 1.279 . S
C664 C661 1.358 . S
C664 C665 1.356 . S
C664 H701 0.930 . S
C665 C662 1.348 . S
C665 C664 1.356 . S
H666 C660 0.930 . S
H667 C661 0.930 . S
C668 N669 1.314 . S
C668 C670 1.353 . S
C668 H674 0.930 . S
N669 Li619 1.990 . S
N669 C668 1.314 . S
N669 C672 1.279 . S
C670 C668 1.353 . S
C670 C673 1.348 . S
C670 H702 0.929 . S
C671 C672 1.358 . S
C671 C673 1.356 . S
C671 H703 0.930 . S
C672 N669 1.279 . S
C672 C671 1.358 . S
C672 H675 0.930 . S
C673 C670 1.348 . S
C673 C671 1.356 . S
H674 C668 0.930 . S
H675 C672 0.930 . S
O676 Li616 1.956 . S
O676 Li617 1.970 . S
O676 Li618 1.961 . S
O676 C620 1.325 . S
O677 Li616 1.970 . S
O677 Li617 1.956 . S
O677 Li619 1.961 . S
O677 C626 1.325 . S
O678 Li616 1.961 . S
O678 Li618 1.956 . S
O678 Li619 1.970 . S
O678 C648 1.325 . S
O679 Li617 1.961 . S
O679 Li618 1.970 . S
O679 Li619 1.956 . S
O679 C654 1.325 . S
H680 C622 0.929 . S
H681 C623 0.930 . S
H682 C624 0.930 . S
H683 C625 0.930 . S
H684 C627 0.930 . S
H685 C629 0.929 . S
H686 C630 0.930 . S
H687 C631 0.930 . S
H688 C634 0.930 . S
H689 C637 0.929 . S
H690 C642 0.929 . S
H691 C643 0.930 . S
H692 C650 0.929 . S
H693 C651 0.930 . S
H694 C652 0.930 . S
H695 C653 0.930 . S
H696 C655 0.929 . S
H697 C656 0.930 . S
H698 C657 0.930 . S
H699 C658 0.930 . S
H700 C662 0.929 . S
H701 C664 0.930 . S
H702 C670 0.929 . S
H703 C671 0.930 . S
Li704 N721 1.990 . S
Li704 O764 1.956 . S
Li704 O765 1.970 . S
Li704 O766 1.961 . S
Li705 N729 1.990 . S
Li705 O764 1.970 . S
Li705 O765 1.956 . S
Li705 O767 1.961 . S
Li706 N751 1.990 . S
Li706 O764 1.961 . S
Li706 O766 1.956 . S
Li706 O767 1.970 . S
Li707 N757 1.990 . S
Li707 O765 1.961 . S
Li707 O766 1.970 . S
Li707 O767 1.956 . S
C708 C710 1.348 . S
C708 C711 1.356 . S
C708 O764 1.325 . S
N709 C712 1.314 . S
N709 C713 1.279 . S
C710 C708 1.348 . S
C710 C712 1.353 . S
C710 H768 0.929 . S
C711 C708 1.356 . S
C711 C713 1.358 . S
C711 H769 0.930 . S
C712 N709 1.314 . S
C712 C710 1.353 . S
C712 H770 0.930 . S
C713 N709 1.279 . S
C713 C711 1.358 . S
C713 H771 0.930 . S
C714 C717 1.348 . S
C714 C718 1.356 . S
C714 O765 1.325 . S
C715 N716 1.279 . S
C715 C718 1.358 . S
C715 H772 0.930 . S
N716 C715 1.279 . S
N716 C719 1.314 . S
C717 C714 1.348 . S
C717 C719 1.353 . S
C717 H773 0.929 . S
C718 C714 1.356 . S
C718 C715 1.358 . S
C718 H774 0.930 . S
C719 N716 1.314 . S
C719 C717 1.353 . S
C719 H775 0.930 . S
C720 N721 1.314 . S
C720 C725 1.353 . S
C720 H726 0.930 . S
N721 Li704 1.990 . S
N721 C720 1.314 . S
N721 C723 1.279 . S
C722 C723 1.358 . S
C722 C724 1.356 . S
C722 H776 0.930 . S
C723 N721 1.279 . S
C723 C722 1.358 . S
C723 H727 0.930 . S
C724 C722 1.356 . S
C724 C725 1.348 . S
C725 C720 1.353 . S
C725 C724 1.348 . S
C725 H777 0.929 . S
H726 C720 0.930 . S
H727 C723 0.930 . S
C728 N729 1.314 . S
C728 C730 1.353 . S
C728 H734 0.930 . S
N729 Li705 1.990 . S
N729 C728 1.314 . S
N729 C732 1.279 . S
C730 C728 1.353 . S
C730 C733 1.348 . S
C730 H778 0.929 . S
C731 C732 1.358 . S
C731 C733 1.356 . S
C731 H779 0.930 . S
C732 N729 1.279 . S
C732 C731 1.358 . S
C732 H735 0.930 . S
C733 C730 1.348 . S
C733 C731 1.356 . S
H734 C728 0.930 . S
H735 C732 0.930 . S
C736 C738 1.348 . S
C736 C739 1.356 . S
C736 O766 1.325 . S
N737 C740 1.314 . S
N737 C741 1.279 . S
C738 C736 1.348 . S
C738 C740 1.353 . S
C738 H780 0.929 . S
C739 C736 1.356 . S
C739 C741 1.358 . S
C739 H781 0.930 . S
C740 N737 1.314 . S
C740 C738 1.353 . S
C740 H782 0.930 . S
C741 N737 1.279 . S
C741 C739 1.358 . S
C741 H783 0.930 . S
C742 C743 1.348 . S
C742 C744 1.356 . S
C742 O767 1.325 . S
C743 C742 1.348 . S
C743 C745 1.353 . S
C743 H784 0.929 . S
C744 C742 1.356 . S
C744 C746 1.358 . S
C744 H785 0.930 . S
C745 C743 1.353 . S
C745 N747 1.314 . S
C745 H786 0.930 . S
C746 C744 1.358 . S
C746 N747 1.279 . S
C746 H787 0.930 . S
N747 C745 1.314 . S
N747 C746 1.279 . S
C748 C750 1.353 . S
C748 N751 1.314 . S
C748 H754 0.930 . S
C749 N751 1.279 . S
C749 C752 1.358 . S
C749 H755 0.930 . S
C750 C748 1.353 . S
C750 C753 1.348 . S
C750 H788 0.929 . S
N751 Li706 1.990 . S
N751 C748 1.314 . S
N751 C749 1.279 . S
C752 C749 1.358 . S
C752 C753 1.356 . S
C752 H789 0.930 . S
C753 C750 1.348 . S
C753 C752 1.356 . S
H754 C748 0.930 . S
H755 C749 0.930 . S
C756 N757 1.314 . S
C756 C758 1.353 . S
C756 H762 0.930 . S
N757 Li707 1.990 . S
N757 C756 1.314 . S
N757 C760 1.279 . S
C758 C756 1.353 . S
C758 C761 1.348 . S
C758 H790 0.929 . S
C759 C760 1.358 . S
C759 C761 1.356 . S
C759 H791 0.930 . S
C760 N757 1.279 . S
C760 C759 1.358 . S
C760 H763 0.930 . S
C761 C758 1.348 . S
C761 C759 1.356 . S
H762 C756 0.930 . S
H763 C760 0.930 . S
O764 Li704 1.956 . S
O764 Li705 1.970 . S
O764 Li706 1.961 . S
O764 C708 1.325 . S
O765 Li704 1.970 . S
O765 Li705 1.956 . S
O765 Li707 1.961 . S
O765 C714 1.325 . S
O766 Li704 1.961 . S
O766 Li706 1.956 . S
O766 Li707 1.970 . S
O766 C736 1.325 . S
O767 Li705 1.961 . S
O767 Li706 1.970 . S
O767 Li707 1.956 . S
O767 C742 1.325 . S
H768 C710 0.929 . S
H769 C711 0.930 . S
H770 C712 0.930 . S
H771 C713 0.930 . S
H772 C715 0.930 . S
H773 C717 0.929 . S
H774 C718 0.930 . S
H775 C719 0.930 . S
H776 C722 0.930 . S
H777 C725 0.929 . S
H778 C730 0.929 . S
H779 C731 0.930 . S
H780 C738 0.929 . S
H781 C739 0.930 . S
H782 C740 0.930 . S
H783 C741 0.930 . S
H784 C743 0.929 . S
H785 C744 0.930 . S
H786 C745 0.930 . S
H787 C746 0.930 . S
H788 C750 0.929 . S
H789 C752 0.930 . S
H790 C758 0.929 . S
H791 C759 0.930 . S
Li792 N809 1.990 . S
Li792 O852 1.956 . S
Li792 O853 1.970 . S
Li792 O854 1.961 . S
Li793 N817 1.990 . S
Li793 O852 1.970 . S
Li793 O853 1.956 . S
Li793 O855 1.961 . S
Li794 N839 1.990 . S
Li794 O852 1.961 . S
Li794 O854 1.956 . S
Li794 O855 1.970 . S
Li795 N845 1.990 . S
Li795 O853 1.961 . S
Li795 O854 1.970 . S
Li795 O855 1.956 . S
C796 C798 1.348 . S
C796 C799 1.356 . S
C796 O852 1.325 . S
N797 C800 1.314 . S
N797 C801 1.279 . S
C798 C796 1.348 . S
C798 C800 1.353 . S
C798 H856 0.929 . S
C799 C796 1.356 . S
C799 C801 1.358 . S
C799 H857 0.930 . S
C800 N797 1.314 . S
C800 C798 1.353 . S
C800 H858 0.930 . S
C801 N797 1.279 . S
C801 C799 1.358 . S
C801 H859 0.930 . S
C802 C805 1.348 . S
C802 C806 1.356 . S
C802 O853 1.325 . S
C803 N804 1.279 . S
C803 C806 1.358 . S
C803 H860 0.930 . S
N804 C803 1.279 . S
N804 C807 1.314 . S
C805 C802 1.348 . S
C805 C807 1.353 . S
C805 H861 0.929 . S
C806 C802 1.356 . S
C806 C803 1.358 . S
C806 H862 0.930 . S
C807 N804 1.314 . S
C807 C805 1.353 . S
C807 H863 0.930 . S
C808 N809 1.314 . S
C808 C813 1.353 . S
C808 H814 0.930 . S
N809 Li792 1.990 . S
N809 C808 1.314 . S
N809 C811 1.279 . S
C810 C811 1.358 . S
C810 C812 1.356 . S
C810 H864 0.930 . S
C811 N809 1.279 . S
C811 C810 1.358 . S
C811 H815 0.930 . S
C812 C810 1.356 . S
C812 C813 1.348 . S
C813 C808 1.353 . S
C813 C812 1.348 . S
C813 H865 0.929 . S
H814 C808 0.930 . S
H815 C811 0.930 . S
C816 N817 1.314 . S
C816 C818 1.353 . S
C816 H822 0.930 . S
N817 Li793 1.990 . S
N817 C816 1.314 . S
N817 C820 1.279 . S
C818 C816 1.353 . S
C818 C821 1.348 . S
C818 H866 0.929 . S
C819 C820 1.358 . S
C819 C821 1.356 . S
C819 H867 0.930 . S
C820 N817 1.279 . S
C820 C819 1.358 . S
C820 H823 0.930 . S
C821 C818 1.348 . S
C821 C819 1.356 . S
H822 C816 0.930 . S
H823 C820 0.930 . S
C824 C826 1.348 . S
C824 C827 1.356 . S
C824 O854 1.325 . S
N825 C828 1.314 . S
N825 C829 1.279 . S
C826 C824 1.348 . S
C826 C828 1.353 . S
C826 H868 0.929 . S
C827 C824 1.356 . S
C827 C829 1.358 . S
C827 H869 0.930 . S
C828 N825 1.314 . S
C828 C826 1.353 . S
C828 H870 0.930 . S
C829 N825 1.279 . S
C829 C827 1.358 . S
C829 H871 0.930 . S
C830 C831 1.348 . S
C830 C832 1.356 . S
C830 O855 1.325 . S
C831 C830 1.348 . S
C831 C833 1.353 . S
C831 H872 0.929 . S
C832 C830 1.356 . S
C832 C834 1.358 . S
C832 H873 0.930 . S
C833 C831 1.353 . S
C833 N835 1.314 . S
C833 H874 0.930 . S
C834 C832 1.358 . S
C834 N835 1.279 . S
C834 H875 0.930 . S
N835 C833 1.314 . S
N835 C834 1.279 . S
C836 C838 1.353 . S
C836 N839 1.314 . S
C836 H842 0.930 . S
C837 N839 1.279 . S
C837 C840 1.358 . S
C837 H843 0.930 . S
C838 C836 1.353 . S
C838 C841 1.348 . S
C838 H876 0.929 . S
N839 Li794 1.990 . S
N839 C836 1.314 . S
N839 C837 1.279 . S
C840 C837 1.358 . S
C840 C841 1.356 . S
C840 H877 0.930 . S
C841 C838 1.348 . S
C841 C840 1.356 . S
H842 C836 0.930 . S
H843 C837 0.930 . S
C844 N845 1.314 . S
C844 C846 1.353 . S
C844 H850 0.930 . S
N845 Li795 1.990 . S
N845 C844 1.314 . S
N845 C848 1.279 . S
C846 C844 1.353 . S
C846 C849 1.348 . S
C846 H878 0.929 . S
C847 C848 1.358 . S
C847 C849 1.356 . S
C847 H879 0.930 . S
C848 N845 1.279 . S
C848 C847 1.358 . S
C848 H851 0.930 . S
C849 C846 1.348 . S
C849 C847 1.356 . S
H850 C844 0.930 . S
H851 C848 0.930 . S
O852 Li792 1.956 . S
O852 Li793 1.970 . S
O852 Li794 1.961 . S
O852 C796 1.325 . S
O853 Li792 1.970 . S
O853 Li793 1.956 . S
O853 Li795 1.961 . S
O853 C802 1.325 . S
O854 Li792 1.961 . S
O854 Li794 1.956 . S
O854 Li795 1.970 . S
O854 C824 1.325 . S
O855 Li793 1.961 . S
O855 Li794 1.970 . S
O855 Li795 1.956 . S
O855 C830 1.325 . S
H856 C798 0.929 . S
H857 C799 0.930 . S
H858 C800 0.930 . S
H859 C801 0.930 . S
H860 C803 0.930 . S
H861 C805 0.929 . S
H862 C806 0.930 . S
H863 C807 0.930 . S
H864 C810 0.930 . S
H865 C813 0.929 . S
H866 C818 0.929 . S
H867 C819 0.930 . S
H868 C826 0.929 . S
H869 C827 0.930 . S
H870 C828 0.930 . S
H871 C829 0.930 . S
H872 C831 0.929 . S
H873 C832 0.930 . S
H874 C833 0.930 . S
H875 C834 0.930 . S
H876 C838 0.929 . S
H877 C840 0.930 . S
H878 C846 0.929 . S
H879 C847 0.930 . S
Li880 N897 1.990 . S
Li880 O940 1.956 . S
Li880 O941 1.970 . S
Li880 O942 1.961 . S
Li881 N905 1.990 . S
Li881 O940 1.970 . S
Li881 O941 1.956 . S
Li881 O943 1.961 . S
Li882 N927 1.990 . S
Li882 O940 1.961 . S
Li882 O942 1.956 . S
Li882 O943 1.970 . S
Li883 N933 1.990 . S
Li883 O941 1.961 . S
Li883 O942 1.970 . S
Li883 O943 1.956 . S
C884 C886 1.348 . S
C884 C887 1.356 . S
C884 O940 1.325 . S
N885 C888 1.314 . S
N885 C889 1.279 . S
C886 C884 1.348 . S
C886 C888 1.353 . S
C886 H944 0.929 . S
C887 C884 1.356 . S
C887 C889 1.358 . S
C887 H945 0.930 . S
C888 N885 1.314 . S
C888 C886 1.353 . S
C888 H946 0.930 . S
C889 N885 1.279 . S
C889 C887 1.358 . S
C889 H947 0.930 . S
C890 C893 1.348 . S
C890 C894 1.356 . S
C890 O941 1.325 . S
C891 N892 1.279 . S
C891 C894 1.358 . S
C891 H948 0.930 . S
N892 C891 1.279 . S
N892 C895 1.314 . S
C893 C890 1.348 . S
C893 C895 1.353 . S
C893 H949 0.929 . S
C894 C890 1.356 . S
C894 C891 1.358 . S
C894 H950 0.930 . S
C895 N892 1.314 . S
C895 C893 1.353 . S
C895 H951 0.930 . S
C896 N897 1.314 . S
C896 C901 1.353 . S
C896 H902 0.930 . S
N897 Li880 1.990 . S
N897 C896 1.314 . S
N897 C899 1.279 . S
C898 C899 1.358 . S
C898 C900 1.356 . S
C898 H952 0.930 . S
C899 N897 1.279 . S
C899 C898 1.358 . S
C899 H903 0.930 . S
C900 C898 1.356 . S
C900 C901 1.348 . S
C901 C896 1.353 . S
C901 C900 1.348 . S
C901 H953 0.929 . S
H902 C896 0.930 . S
H903 C899 0.930 . S
C904 N905 1.314 . S
C904 C906 1.353 . S
C904 H910 0.930 . S
N905 Li881 1.990 . S
N905 C904 1.314 . S
N905 C908 1.279 . S
C906 C904 1.353 . S
C906 C909 1.348 . S
C906 H954 0.929 . S
C907 C908 1.358 . S
C907 C909 1.356 . S
C907 H955 0.930 . S
C908 N905 1.279 . S
C908 C907 1.358 . S
C908 H911 0.930 . S
C909 C906 1.348 . S
C909 C907 1.356 . S
H910 C904 0.930 . S
H911 C908 0.930 . S
C912 C914 1.348 . S
C912 C915 1.356 . S
C912 O942 1.325 . S
N913 C916 1.314 . S
N913 C917 1.279 . S
C914 C912 1.348 . S
C914 C916 1.353 . S
C914 H956 0.929 . S
C915 C912 1.356 . S
C915 C917 1.358 . S
C915 H957 0.930 . S
C916 N913 1.314 . S
C916 C914 1.353 . S
C916 H958 0.930 . S
C917 N913 1.279 . S
C917 C915 1.358 . S
C917 H959 0.930 . S
C918 C919 1.348 . S
C918 C920 1.356 . S
C918 O943 1.325 . S
C919 C918 1.348 . S
C919 C921 1.353 . S
C919 H960 0.929 . S
C920 C918 1.356 . S
C920 C922 1.358 . S
C920 H961 0.930 . S
C921 C919 1.353 . S
C921 N923 1.314 . S
C921 H962 0.930 . S
C922 C920 1.358 . S
C922 N923 1.279 . S
C922 H963 0.930 . S
N923 C921 1.314 . S
N923 C922 1.279 . S
C924 C926 1.353 . S
C924 N927 1.314 . S
C924 H930 0.930 . S
C925 N927 1.279 . S
C925 C928 1.358 . S
C925 H931 0.930 . S
C926 C924 1.353 . S
C926 C929 1.348 . S
C926 H964 0.929 . S
N927 Li882 1.990 . S
N927 C924 1.314 . S
N927 C925 1.279 . S
C928 C925 1.358 . S
C928 C929 1.356 . S
C928 H965 0.930 . S
C929 C926 1.348 . S
C929 C928 1.356 . S
H930 C924 0.930 . S
H931 C925 0.930 . S
C932 N933 1.314 . S
C932 C934 1.353 . S
C932 H938 0.930 . S
N933 Li883 1.990 . S
N933 C932 1.314 . S
N933 C936 1.279 . S
C934 C932 1.353 . S
C934 C937 1.348 . S
C934 H966 0.929 . S
C935 C936 1.358 . S
C935 C937 1.356 . S
C935 H967 0.930 . S
C936 N933 1.279 . S
C936 C935 1.358 . S
C936 H939 0.930 . S
C937 C934 1.348 . S
C937 C935 1.356 . S
H938 C932 0.930 . S
H939 C936 0.930 . S
O940 Li880 1.956 . S
O940 Li881 1.970 . S
O940 Li882 1.961 . S
O940 C884 1.325 . S
O941 Li880 1.970 . S
O941 Li881 1.956 . S
O941 Li883 1.961 . S
O941 C890 1.325 . S
O942 Li880 1.961 . S
O942 Li882 1.956 . S
O942 Li883 1.970 . S
O942 C912 1.325 . S
O943 Li881 1.961 . S
O943 Li882 1.970 . S
O943 Li883 1.956 . S
O943 C918 1.325 . S
H944 C886 0.929 . S
H945 C887 0.930 . S
H946 C888 0.930 . S
H947 C889 0.930 . S
H948 C891 0.930 . S
H949 C893 0.929 . S
H950 C894 0.930 . S
H951 C895 0.930 . S
H952 C898 0.930 . S
H953 C901 0.929 . S
H954 C906 0.929 . S
H955 C907 0.930 . S
H956 C914 0.929 . S
H957 C915 0.930 . S
H958 C916 0.930 . S
H959 C917 0.930 . S
H960 C919 0.929 . S
H961 C920 0.930 . S
H962 C921 0.930 . S
H963 C922 0.930 . S
H964 C926 0.929 . S
H965 C928 0.930 . S
H966 C934 0.929 . S
H967 C935 0.930 . S
Li968 N985 1.990 . S
Li968 O1028 1.956 . S
Li968 O1029 1.970 . S
Li968 O1030 1.961 . S
Li969 N993 1.990 . S
Li969 O1028 1.970 . S
Li969 O1029 1.956 . S
Li969 O1031 1.961 . S
Li970 N1015 1.990 . S
Li970 O1028 1.961 . S
Li970 O1030 1.956 . S
Li970 O1031 1.970 . S
Li971 N1021 1.990 . S
Li971 O1029 1.961 . S
Li971 O1030 1.970 . S
Li971 O1031 1.956 . S
C972 C974 1.348 . S
C972 C975 1.356 . S
C972 O1028 1.325 . S
N973 C976 1.314 . S
N973 C977 1.279 . S
C974 C972 1.348 . S
C974 C976 1.353 . S
C974 H1032 0.929 . S
C975 C972 1.356 . S
C975 C977 1.358 . S
C975 H1033 0.930 . S
C976 N973 1.314 . S
C976 C974 1.353 . S
C976 H1034 0.930 . S
C977 N973 1.279 . S
C977 C975 1.358 . S
C977 H1035 0.930 . S
C978 C981 1.348 . S
C978 C982 1.356 . S
C978 O1029 1.325 . S
C979 N980 1.279 . S
C979 C982 1.358 . S
C979 H1036 0.930 . S
N980 C979 1.279 . S
N980 C983 1.314 . S
C981 C978 1.348 . S
C981 C983 1.353 . S
C981 H1037 0.929 . S
C982 C978 1.356 . S
C982 C979 1.358 . S
C982 H1038 0.930 . S
C983 N980 1.314 . S
C983 C981 1.353 . S
C983 H1039 0.930 . S
C984 N985 1.314 . S
C984 C989 1.353 . S
C984 H990 0.930 . S
N985 Li968 1.990 . S
N985 C984 1.314 . S
N985 C987 1.279 . S
C986 C987 1.358 . S
C986 C988 1.356 . S
C986 H1040 0.930 . S
C987 N985 1.279 . S
C987 C986 1.358 . S
C987 H991 0.930 . S
C988 C986 1.356 . S
C988 C989 1.348 . S
C989 C984 1.353 . S
C989 C988 1.348 . S
C989 H1041 0.929 . S
H990 C984 0.930 . S
H991 C987 0.930 . S
C992 N993 1.314 . S
C992 C994 1.353 . S
C992 H998 0.930 . S
N993 Li969 1.990 . S
N993 C992 1.314 . S
N993 C996 1.279 . S
C994 C992 1.353 . S
C994 C997 1.348 . S
C994 H1042 0.929 . S
C995 C996 1.358 . S
C995 C997 1.356 . S
C995 H1043 0.930 . S
C996 N993 1.279 . S
C996 C995 1.358 . S
C996 H999 0.930 . S
C997 C994 1.348 . S
C997 C995 1.356 . S
H998 C992 0.930 . S
H999 C996 0.930 . S
C1000 C1002 1.348 . S
C1000 C1003 1.356 . S
C1000 O1030 1.325 . S
N1001 C1004 1.314 . S
N1001 C1005 1.279 . S
C1002 C1000 1.348 . S
C1002 C1004 1.353 . S
C1002 H1044 0.929 . S
C1003 C1000 1.356 . S
C1003 C1005 1.358 . S
C1003 H1045 0.930 . S
C1004 N1001 1.314 . S
C1004 C1002 1.353 . S
C1004 H1046 0.930 . S
C1005 N1001 1.279 . S
C1005 C1003 1.358 . S
C1005 H1047 0.930 . S
C1006 C1007 1.348 . S
C1006 C1008 1.356 . S
C1006 O1031 1.325 . S
C1007 C1006 1.348 . S
C1007 C1009 1.353 . S
C1007 H1048 0.929 . S
C1008 C1006 1.356 . S
C1008 C1010 1.358 . S
C1008 H1049 0.930 . S
C1009 C1007 1.353 . S
C1009 N1011 1.314 . S
C1009 H1050 0.930 . S
C1010 C1008 1.358 . S
C1010 N1011 1.279 . S
C1010 H1051 0.930 . S
N1011 C1009 1.314 . S
N1011 C1010 1.279 . S
C1012 C1014 1.353 . S
C1012 N1015 1.314 . S
C1012 H1018 0.930 . S
C1013 N1015 1.279 . S
C1013 C1016 1.358 . S
C1013 H1019 0.930 . S
C1014 C1012 1.353 . S
C1014 C1017 1.348 . S
C1014 H1052 0.929 . S
N1015 Li970 1.990 . S
N1015 C1012 1.314 . S
N1015 C1013 1.279 . S
C1016 C1013 1.358 . S
C1016 C1017 1.356 . S
C1016 H1053 0.930 . S
C1017 C1014 1.348 . S
C1017 C1016 1.356 . S
H1018 C1012 0.930 . S
H1019 C1013 0.930 . S
C1020 N1021 1.314 . S
C1020 C1022 1.353 . S
C1020 H1026 0.930 . S
N1021 Li971 1.990 . S
N1021 C1020 1.314 . S
N1021 C1024 1.279 . S
C1022 C1020 1.353 . S
C1022 C1025 1.348 . S
C1022 H1054 0.929 . S
C1023 C1024 1.358 . S
C1023 C1025 1.356 . S
C1023 H1055 0.930 . S
C1024 N1021 1.279 . S
C1024 C1023 1.358 . S
C1024 H1027 0.930 . S
C1025 C1022 1.348 . S
C1025 C1023 1.356 . S
H1026 C1020 0.930 . S
H1027 C1024 0.930 . S
O1028 Li968 1.956 . S
O1028 Li969 1.970 . S
O1028 Li970 1.961 . S
O1028 C972 1.325 . S
O1029 Li968 1.970 . S
O1029 Li969 1.956 . S
O1029 Li971 1.961 . S
O1029 C978 1.325 . S
O1030 Li968 1.961 . S
O1030 Li970 1.956 . S
O1030 Li971 1.970 . S
O1030 C1000 1.325 . S
O1031 Li969 1.961 . S
O1031 Li970 1.970 . S
O1031 Li971 1.956 . S
O1031 C1006 1.325 . S
H1032 C974 0.929 . S
H1033 C975 0.930 . S
H1034 C976 0.930 . S
H1035 C977 0.930 . S
H1036 C979 0.930 . S
H1037 C981 0.929 . S
H1038 C982 0.930 . S
H1039 C983 0.930 . S
H1040 C986 0.930 . S
H1041 C989 0.929 . S
H1042 C994 0.929 . S
H1043 C995 0.930 . S
H1044 C1002 0.929 . S
H1045 C1003 0.930 . S
H1046 C1004 0.930 . S
H1047 C1005 0.930 . S
H1048 C1007 0.929 . S
H1049 C1008 0.930 . S
H1050 C1009 0.930 . S
H1051 C1010 0.930 . S
H1052 C1014 0.929 . S
H1053 C1016 0.930 . S
H1054 C1022 0.929 . S
H1055 C1023 0.930 . S
Li1056 N1073 1.990 . S
Li1056 O1116 1.956 . S
Li1056 O1117 1.970 . S
Li1056 O1118 1.961 . S
Li1057 N1081 1.990 . S
Li1057 O1116 1.970 . S
Li1057 O1117 1.956 . S
Li1057 O1119 1.961 . S
Li1058 N1103 1.990 . S
Li1058 O1116 1.961 . S
Li1058 O1118 1.956 . S
Li1058 O1119 1.970 . S
Li1059 N1109 1.990 . S
Li1059 O1117 1.961 . S
Li1059 O1118 1.970 . S
Li1059 O1119 1.956 . S
C1060 C1062 1.348 . S
C1060 C1063 1.356 . S
C1060 O1116 1.325 . S
N1061 C1064 1.314 . S
N1061 C1065 1.279 . S
C1062 C1060 1.348 . S
C1062 C1064 1.353 . S
C1062 H1120 0.929 . S
C1063 C1060 1.356 . S
C1063 C1065 1.358 . S
C1063 H1121 0.930 . S
C1064 N1061 1.314 . S
C1064 C1062 1.353 . S
C1064 H1122 0.930 . S
C1065 N1061 1.279 . S
C1065 C1063 1.358 . S
C1065 H1123 0.930 . S
C1066 C1069 1.348 . S
C1066 C1070 1.356 . S
C1066 O1117 1.325 . S
C1067 N1068 1.279 . S
C1067 C1070 1.358 . S
C1067 H1124 0.930 . S
N1068 C1067 1.279 . S
N1068 C1071 1.314 . S
C1069 C1066 1.348 . S
C1069 C1071 1.353 . S
C1069 H1125 0.929 . S
C1070 C1066 1.356 . S
C1070 C1067 1.358 . S
C1070 H1126 0.930 . S
C1071 N1068 1.314 . S
C1071 C1069 1.353 . S
C1071 H1127 0.930 . S
C1072 N1073 1.314 . S
C1072 C1077 1.353 . S
C1072 H1078 0.930 . S
N1073 Li1056 1.990 . S
N1073 C1072 1.314 . S
N1073 C1075 1.279 . S
C1074 C1075 1.358 . S
C1074 C1076 1.356 . S
C1074 H1128 0.930 . S
C1075 N1073 1.279 . S
C1075 C1074 1.358 . S
C1075 H1079 0.930 . S
C1076 C1074 1.356 . S
C1076 C1077 1.348 . S
C1077 C1072 1.353 . S
C1077 C1076 1.348 . S
C1077 H1129 0.929 . S
H1078 C1072 0.930 . S
H1079 C1075 0.930 . S
C1080 N1081 1.314 . S
C1080 C1082 1.353 . S
C1080 H1086 0.930 . S
N1081 Li1057 1.990 . S
N1081 C1080 1.314 . S
N1081 C1084 1.279 . S
C1082 C1080 1.353 . S
C1082 C1085 1.348 . S
C1082 H1130 0.929 . S
C1083 C1084 1.358 . S
C1083 C1085 1.356 . S
C1083 H1131 0.930 . S
C1084 N1081 1.279 . S
C1084 C1083 1.358 . S
C1084 H1087 0.930 . S
C1085 C1082 1.348 . S
C1085 C1083 1.356 . S
H1086 C1080 0.930 . S
H1087 C1084 0.930 . S
C1088 C1090 1.348 . S
C1088 C1091 1.356 . S
C1088 O1118 1.325 . S
N1089 C1092 1.314 . S
N1089 C1093 1.279 . S
C1090 C1088 1.348 . S
C1090 C1092 1.353 . S
C1090 H1132 0.929 . S
C1091 C1088 1.356 . S
C1091 C1093 1.358 . S
C1091 H1133 0.930 . S
C1092 N1089 1.314 . S
C1092 C1090 1.353 . S
C1092 H1134 0.930 . S
C1093 N1089 1.279 . S
C1093 C1091 1.358 . S
C1093 H1135 0.930 . S
C1094 C1095 1.348 . S
C1094 C1096 1.356 . S
C1094 O1119 1.325 . S
C1095 C1094 1.348 . S
C1095 C1097 1.353 . S
C1095 H1136 0.929 . S
C1096 C1094 1.356 . S
C1096 C1098 1.358 . S
C1096 H1137 0.930 . S
C1097 C1095 1.353 . S
C1097 N1099 1.314 . S
C1097 H1138 0.930 . S
C1098 C1096 1.358 . S
C1098 N1099 1.279 . S
C1098 H1139 0.930 . S
N1099 C1097 1.314 . S
N1099 C1098 1.279 . S
C1100 C1102 1.353 . S
C1100 N1103 1.314 . S
C1100 H1106 0.930 . S
C1101 N1103 1.279 . S
C1101 C1104 1.358 . S
C1101 H1107 0.930 . S
C1102 C1100 1.353 . S
C1102 C1105 1.348 . S
C1102 H1140 0.929 . S
N1103 Li1058 1.990 . S
N1103 C1100 1.314 . S
N1103 C1101 1.279 . S
C1104 C1101 1.358 . S
C1104 C1105 1.356 . S
C1104 H1141 0.930 . S
C1105 C1102 1.348 . S
C1105 C1104 1.356 . S
H1106 C1100 0.930 . S
H1107 C1101 0.930 . S
C1108 N1109 1.314 . S
C1108 C1110 1.353 . S
C1108 H1114 0.930 . S
N1109 Li1059 1.990 . S
N1109 C1108 1.314 . S
N1109 C1112 1.279 . S
C1110 C1108 1.353 . S
C1110 C1113 1.348 . S
C1110 H1142 0.929 . S
C1111 C1112 1.358 . S
C1111 C1113 1.356 . S
C1111 H1143 0.930 . S
C1112 N1109 1.279 . S
C1112 C1111 1.358 . S
C1112 H1115 0.930 . S
C1113 C1110 1.348 . S
C1113 C1111 1.356 . S
H1114 C1108 0.930 . S
H1115 C1112 0.930 . S
O1116 Li1056 1.956 . S
O1116 Li1057 1.970 . S
O1116 Li1058 1.961 . S
O1116 C1060 1.325 . S
O1117 Li1056 1.970 . S
O1117 Li1057 1.956 . S
O1117 Li1059 1.961 . S
O1117 C1066 1.325 . S
O1118 Li1056 1.961 . S
O1118 Li1058 1.956 . S
O1118 Li1059 1.970 . S
O1118 C1088 1.325 . S
O1119 Li1057 1.961 . S
O1119 Li1058 1.970 . S
O1119 Li1059 1.956 . S
O1119 C1094 1.325 . S
H1120 C1062 0.929 . S
H1121 C1063 0.930 . S
H1122 C1064 0.930 . S
H1123 C1065 0.930 . S
H1124 C1067 0.930 . S
H1125 C1069 0.929 . S
H1126 C1070 0.930 . S
H1127 C1071 0.930 . S
H1128 C1074 0.930 . S
H1129 C1077 0.929 . S
H1130 C1082 0.929 . S
H1131 C1083 0.930 . S
H1132 C1090 0.929 . S
H1133 C1091 0.930 . S
H1134 C1092 0.930 . S
H1135 C1093 0.930 . S
H1136 C1095 0.929 . S
H1137 C1096 0.930 . S
H1138 C1097 0.930 . S
H1139 C1098 0.930 . S
H1140 C1102 0.929 . S
H1141 C1104 0.930 . S
H1142 C1110 0.929 . S
H1143 C1111 0.930 . S
Li1144 N1161 1.990 . S
Li1144 O1204 1.956 1_655 S
Li1144 O1205 1.970 1_655 S
Li1144 O1206 1.961 . S
Li1145 N1169 1.990 . S
Li1145 O1204 1.970 . S
Li1145 O1205 1.956 . S
Li1145 O1207 1.961 . S
Li1146 N1191 1.990 . S
Li1146 O1204 1.961 . S
Li1146 O1206 1.956 1_455 S
Li1146 O1207 1.970 . S
Li1147 N1197 1.990 . S
Li1147 O1205 1.961 . S
Li1147 O1206 1.970 1_455 S
Li1147 O1207 1.956 . S
C1148 C1150 1.348 . S
C1148 C1151 1.356 1_455 S
C1148 O1204 1.325 . S
N1149 C1152 1.314 . S
N1149 C1153 1.279 1_455 S
C1150 C1148 1.348 . S
C1150 C1152 1.353 . S
C1150 H1208 0.929 . S
C1151 C1148 1.356 1_655 S
C1151 C1153 1.358 . S
C1151 H1209 0.930 . S
C1152 N1149 1.314 . S
C1152 C1150 1.353 . S
C1152 H1210 0.930 . S
C1153 N1149 1.279 1_655 S
C1153 C1151 1.358 . S
C1153 H1211 0.930 . S
C1154 C1157 1.357 . S
C1154 C1158 1.356 . S
C1154 O1205 1.325 . S
C1155 N1156 1.279 . S
C1155 C1158 1.358 . S
C1155 H1212 0.930 . S
N1156 C1155 1.279 . S
N1156 C1159 1.314 . S
C1157 C1154 1.357 . S
C1157 C1159 1.354 . S
C1157 H1213 0.919 1_455 S
C1158 C1154 1.356 . S
C1158 C1155 1.358 . S
C1158 H1214 0.930 . S
C1159 N1156 1.314 . S
C1159 C1157 1.354 . S
C1159 H1215 0.930 1_455 S
C1160 N1161 1.314 . S
C1160 C1165 1.353 . S
C1160 H1166 0.930 . S
N1161 Li1144 1.990 . S
N1161 C1160 1.314 . S
N1161 C1163 1.279 . S
C1162 C1163 1.358 . S
C1162 C1164 1.356 . S
C1162 H1216 0.930 . S
C1163 N1161 1.279 . S
C1163 C1162 1.358 . S
C1163 H1167 0.930 . S
C1164 C1162 1.356 . S
C1164 C1165 1.348 . S
C1165 C1160 1.353 . S
C1165 C1164 1.348 . S
C1165 H1217 0.929 . S
H1166 C1160 0.930 . S
H1167 C1163 0.930 . S
C1168 N1169 1.314 . S
C1168 C1170 1.353 . S
C1168 H1174 0.930 . S
N1169 Li1145 1.990 . S
N1169 C1168 1.314 . S
N1169 C1172 1.279 . S
C1170 C1168 1.353 . S
C1170 C1173 1.348 . S
C1170 H1218 0.929 . S
C1171 C1172 1.358 . S
C1171 C1173 1.356 . S
C1171 H1219 0.930 . S
C1172 N1169 1.279 . S
C1172 C1171 1.358 . S
C1172 H1175 0.930 . S
C1173 C1170 1.348 . S
C1173 C1171 1.356 . S
H1174 C1168 0.930 . S
H1175 C1172 0.930 . S
C1176 C1178 1.348 . S
C1176 C1179 1.356 . S
C1176 O1206 1.325 . S
N1177 C1180 1.314 . S
N1177 C1181 1.279 . S
C1178 C1176 1.348 . S
C1178 C1180 1.353 . S
C1178 H1220 0.929 . S
C1179 C1176 1.356 . S
C1179 C1181 1.358 . S
C1179 H1221 0.930 . S
C1180 N1177 1.314 . S
C1180 C1178 1.353 . S
C1180 H1222 0.930 . S
C1181 N1177 1.279 . S
C1181 C1179 1.358 . S
C1181 H1223 0.930 . S
C1182 C1183 1.348 . S
C1182 C1184 1.356 . S
C1182 O1207 1.325 . S
C1183 C1182 1.348 . S
C1183 C1185 1.353 . S
C1183 H1224 0.929 . S
C1184 C1182 1.356 . S
C1184 C1186 1.358 . S
C1184 H1225 0.930 . S
C1185 C1183 1.353 . S
C1185 N1187 1.314 . S
C1185 H1226 0.930 . S
C1186 C1184 1.358 . S
C1186 N1187 1.279 . S
C1186 H1227 0.930 . S
N1187 C1185 1.314 . S
N1187 C1186 1.279 . S
C1188 C1190 1.353 . S
C1188 N1191 1.314 . S
C1188 H1194 0.930 . S
C1189 N1191 1.279 1_655 S
C1189 C1192 1.358 . S
C1189 H1195 0.930 . S
C1190 C1188 1.353 . S
C1190 C1193 1.348 . S
C1190 H1228 0.929 . S
N1191 Li1146 1.990 . S
N1191 C1188 1.314 . S
N1191 C1189 1.279 1_455 S
C1192 C1189 1.358 . S
C1192 C1193 1.356 1_655 S
C1192 H1229 0.930 . S
C1193 C1190 1.348 . S
C1193 C1192 1.356 1_455 S
H1194 C1188 0.930 . S
H1195 C1189 0.930 . S
C1196 N1197 1.314 . S
C1196 C1198 1.355 . S
C1196 H1202 0.930 1_455 S
N1197 Li1147 1.990 . S
N1197 C1196 1.314 . S
N1197 C1200 1.279 . S
C1198 C1196 1.355 . S
C1198 C1201 1.363 . S
C1198 H1230 0.913 1_455 S
C1199 C1200 1.358 . S
C1199 C1201 1.356 . S
C1199 H1231 0.930 . S
C1200 N1197 1.279 . S
C1200 C1199 1.358 . S
C1200 H1203 0.930 . S
C1201 C1198 1.363 . S
C1201 C1199 1.356 . S
H1202 C1196 0.930 1_655 S
H1203 C1200 0.930 . S
O1204 Li1144 1.956 1_455 S
O1204 Li1145 1.970 . S
O1204 Li1146 1.961 . S
O1204 C1148 1.325 . S
O1205 Li1144 1.970 1_455 S
O1205 Li1145 1.956 . S
O1205 Li1147 1.961 . S
O1205 C1154 1.325 . S
O1206 Li1144 1.961 . S
O1206 Li1146 1.956 1_655 S
O1206 Li1147 1.970 1_655 S
O1206 C1176 1.325 . S
O1207 Li1145 1.961 . S
O1207 Li1146 1.970 . S
O1207 Li1147 1.956 . S
O1207 C1182 1.325 . S
H1208 C1150 0.929 . S
H1209 C1151 0.930 . S
H1210 C1152 0.930 . S
H1211 C1153 0.930 . S
H1212 C1155 0.930 . S
H1213 C1157 0.919 1_655 S
H1214 C1158 0.930 . S
H1215 C1159 0.930 1_655 S
H1216 C1162 0.930 . S
H1217 C1165 0.929 . S
H1218 C1170 0.929 . S
H1219 C1171 0.930 . S
H1220 C1178 0.929 . S
H1221 C1179 0.930 . S
H1222 C1180 0.930 . S
H1223 C1181 0.930 . S
H1224 C1183 0.929 . S
H1225 C1184 0.930 . S
H1226 C1185 0.930 . S
H1227 C1186 0.930 . S
H1228 C1190 0.929 . S
H1229 C1192 0.930 . S
H1230 C1198 0.913 1_655 S
H1231 C1199 0.930 . S
Li1232 N1249 1.990 . S
Li1232 O1292 1.956 . S
Li1232 O1293 1.970 . S
Li1232 O1294 1.961 . S
Li1233 N1257 1.990 . S
Li1233 O1292 1.970 . S
Li1233 O1293 1.956 . S
Li1233 O1295 1.961 . S
Li1234 N1279 1.990 . S
Li1234 O1292 1.961 . S
Li1234 O1294 1.956 . S
Li1234 O1295 1.970 . S
Li1235 N1285 1.990 . S
Li1235 O1293 1.961 . S
Li1235 O1294 1.970 . S
Li1235 O1295 1.956 . S
C1236 C1238 1.348 . S
C1236 C1239 1.356 . S
C1236 O1292 1.325 . S
N1237 C1240 1.314 . S
N1237 C1241 1.279 . S
C1238 C1236 1.348 . S
C1238 C1240 1.353 . S
C1238 H1296 0.929 . S
C1239 C1236 1.356 . S
C1239 C1241 1.358 . S
C1239 H1297 0.930 . S
C1240 N1237 1.314 . S
C1240 C1238 1.353 . S
C1240 H1298 0.930 . S
C1241 N1237 1.279 . S
C1241 C1239 1.358 . S
C1241 H1299 0.930 . S
C1242 C1245 1.348 . S
C1242 C1246 1.356 . S
C1242 O1293 1.325 . S
C1243 N1244 1.279 . S
C1243 C1246 1.358 . S
C1243 H1300 0.930 . S
N1244 C1243 1.279 . S
N1244 C1247 1.314 . S
C1245 C1242 1.348 . S
C1245 C1247 1.353 . S
C1245 H1301 0.929 . S
C1246 C1242 1.356 . S
C1246 C1243 1.358 . S
C1246 H1302 0.930 . S
C1247 N1244 1.314 . S
C1247 C1245 1.353 . S
C1247 H1303 0.930 . S
C1248 N1249 1.314 . S
C1248 C1253 1.353 . S
C1248 H1254 0.930 . S
N1249 Li1232 1.990 . S
N1249 C1248 1.314 . S
N1249 C1251 1.279 . S
C1250 C1251 1.358 . S
C1250 C1252 1.356 . S
C1250 H1304 0.930 . S
C1251 N1249 1.279 . S
C1251 C1250 1.358 . S
C1251 H1255 0.930 . S
C1252 C1250 1.356 . S
C1252 C1253 1.348 . S
C1253 C1248 1.353 . S
C1253 C1252 1.348 . S
C1253 H1305 0.929 . S
H1254 C1248 0.930 . S
H1255 C1251 0.930 . S
C1256 N1257 1.314 . S
C1256 C1258 1.353 . S
C1256 H1262 0.930 . S
N1257 Li1233 1.990 . S
N1257 C1256 1.314 . S
N1257 C1260 1.279 . S
C1258 C1256 1.353 . S
C1258 C1261 1.348 . S
C1258 H1306 0.929 . S
C1259 C1260 1.358 . S
C1259 C1261 1.356 . S
C1259 H1307 0.930 . S
C1260 N1257 1.279 . S
C1260 C1259 1.358 . S
C1260 H1263 0.930 . S
C1261 C1258 1.348 . S
C1261 C1259 1.356 . S
H1262 C1256 0.930 . S
H1263 C1260 0.930 . S
C1264 C1266 1.348 . S
C1264 C1267 1.356 . S
C1264 O1294 1.325 . S
N1265 C1268 1.314 . S
N1265 C1269 1.279 . S
C1266 C1264 1.348 . S
C1266 C1268 1.353 . S
C1266 H1308 0.929 . S
C1267 C1264 1.356 . S
C1267 C1269 1.358 . S
C1267 H1309 0.930 . S
C1268 N1265 1.314 . S
C1268 C1266 1.353 . S
C1268 H1310 0.930 . S
C1269 N1265 1.279 . S
C1269 C1267 1.358 . S
C1269 H1311 0.930 . S
C1270 C1271 1.348 . S
C1270 C1272 1.356 . S
C1270 O1295 1.325 . S
C1271 C1270 1.348 . S
C1271 C1273 1.353 . S
C1271 H1312 0.929 . S
C1272 C1270 1.356 . S
C1272 C1274 1.358 . S
C1272 H1313 0.930 . S
C1273 C1271 1.353 . S
C1273 N1275 1.314 . S
C1273 H1314 0.930 . S
C1274 C1272 1.358 . S
C1274 N1275 1.279 . S
C1274 H1315 0.930 . S
N1275 C1273 1.314 . S
N1275 C1274 1.279 . S
C1276 C1278 1.353 . S
C1276 N1279 1.314 . S
C1276 H1282 0.930 . S
C1277 N1279 1.279 . S
C1277 C1280 1.358 . S
C1277 H1283 0.930 . S
C1278 C1276 1.353 . S
C1278 C1281 1.348 . S
C1278 H1316 0.929 . S
N1279 Li1234 1.990 . S
N1279 C1276 1.314 . S
N1279 C1277 1.279 . S
C1280 C1277 1.358 . S
C1280 C1281 1.356 . S
C1280 H1317 0.930 . S
C1281 C1278 1.348 . S
C1281 C1280 1.356 . S
H1282 C1276 0.930 . S
H1283 C1277 0.930 . S
C1284 N1285 1.314 . S
C1284 C1286 1.353 . S
C1284 H1290 0.930 . S
N1285 Li1235 1.990 . S
N1285 C1284 1.314 . S
N1285 C1288 1.279 . S
C1286 C1284 1.353 . S
C1286 C1289 1.348 . S
C1286 H1318 0.929 . S
C1287 C1288 1.358 . S
C1287 C1289 1.356 . S
C1287 H1319 0.930 . S
C1288 N1285 1.279 . S
C1288 C1287 1.358 . S
C1288 H1291 0.930 . S
C1289 C1286 1.348 . S
C1289 C1287 1.356 . S
H1290 C1284 0.930 . S
H1291 C1288 0.930 . S
O1292 Li1232 1.956 . S
O1292 Li1233 1.970 . S
O1292 Li1234 1.961 . S
O1292 C1236 1.325 . S
O1293 Li1232 1.970 . S
O1293 Li1233 1.956 . S
O1293 Li1235 1.961 . S
O1293 C1242 1.325 . S
O1294 Li1232 1.961 . S
O1294 Li1234 1.956 . S
O1294 Li1235 1.970 . S
O1294 C1264 1.325 . S
O1295 Li1233 1.961 . S
O1295 Li1234 1.970 . S
O1295 Li1235 1.956 . S
O1295 C1270 1.325 . S
H1296 C1238 0.929 . S
H1297 C1239 0.930 . S
H1298 C1240 0.930 . S
H1299 C1241 0.930 . S
H1300 C1243 0.930 . S
H1301 C1245 0.929 . S
H1302 C1246 0.930 . S
H1303 C1247 0.930 . S
H1304 C1250 0.930 . S
H1305 C1253 0.929 . S
H1306 C1258 0.929 . S
H1307 C1259 0.930 . S
H1308 C1266 0.929 . S
H1309 C1267 0.930 . S
H1310 C1268 0.930 . S
H1311 C1269 0.930 . S
H1312 C1271 0.929 . S
H1313 C1272 0.930 . S
H1314 C1273 0.930 . S
H1315 C1274 0.930 . S
H1316 C1278 0.929 . S
H1317 C1280 0.930 . S
H1318 C1286 0.929 . S
H1319 C1287 0.930 . S
Li1320 N1337 1.990 . S
Li1320 O1380 1.956 . S
Li1320 O1381 1.970 1_455 S
Li1320 O1382 1.961 . S
Li1321 N1345 1.990 . S
Li1321 O1380 1.970 . S
Li1321 O1381 1.956 1_455 S
Li1321 O1383 1.961 . S
Li1322 N1367 1.990 . S
Li1322 O1380 1.961 . S
Li1322 O1382 1.956 . S
Li1322 O1383 1.970 . S
Li1323 N1373 1.990 . S
Li1323 O1381 1.961 . S
Li1323 O1382 1.970 1_655 S
Li1323 O1383 1.956 1_655 S
C1324 C1326 1.348 . S
C1324 C1327 1.356 . S
C1324 O1380 1.325 . S
N1325 C1328 1.314 . S
N1325 C1329 1.279 . S
C1326 C1324 1.348 . S
C1326 C1328 1.353 . S
C1326 H1384 0.929 . S
C1327 C1324 1.356 . S
C1327 C1329 1.358 . S
C1327 H1385 0.930 . S
C1328 N1325 1.314 . S
C1328 C1326 1.353 . S
C1328 H1386 0.930 . S
C1329 N1325 1.279 . S
C1329 C1327 1.358 . S
C1329 H1387 0.930 . S
C1330 C1333 1.348 . S
C1330 C1334 1.356 . S
C1330 O1381 1.325 . S
C1331 N1332 1.279 . S
C1331 C1334 1.358 . S
C1331 H1388 0.930 . S
N1332 C1331 1.279 . S
N1332 C1335 1.314 . S
C1333 C1330 1.348 . S
C1333 C1335 1.353 . S
C1333 H1389 0.929 . S
C1334 C1330 1.356 . S
C1334 C1331 1.358 . S
C1334 H1390 0.930 . S
C1335 N1332 1.314 . S
C1335 C1333 1.353 . S
C1335 H1391 0.930 . S
C1336 N1337 1.314 . S
C1336 C1341 1.355 . S
C1336 H1342 0.930 1_455 S
N1337 Li1320 1.990 . S
N1337 C1336 1.314 . S
N1337 C1339 1.279 . S
C1338 C1339 1.358 . S
C1338 C1340 1.356 . S
C1338 H1392 0.930 . S
C1339 N1337 1.279 . S
C1339 C1338 1.358 . S
C1339 H1343 0.930 . S
C1340 C1338 1.356 . S
C1340 C1341 1.363 . S
C1341 C1336 1.355 . S
C1341 C1340 1.363 . S
C1341 H1393 0.913 1_455 S
H1342 C1336 0.930 1_655 S
H1343 C1339 0.930 . S
C1344 N1345 1.314 . S
C1344 C1346 1.353 . S
C1344 H1350 0.930 . S
N1345 Li1321 1.990 . S
N1345 C1344 1.314 . S
N1345 C1348 1.279 1_455 S
C1346 C1344 1.353 . S
C1346 C1349 1.348 . S
C1346 H1394 0.929 . S
C1347 C1348 1.358 . S
C1347 C1349 1.356 1_655 S
C1347 H1395 0.930 . S
C1348 N1345 1.279 1_655 S
C1348 C1347 1.358 . S
C1348 H1351 0.930 . S
C1349 C1346 1.348 . S
C1349 C1347 1.356 1_455 S
H1350 C1344 0.930 . S
H1351 C1348 0.930 . S
C1352 C1354 1.357 . S
C1352 C1355 1.356 . S
C1352 O1382 1.325 . S
N1353 C1356 1.314 . S
N1353 C1357 1.279 . S
C1354 C1352 1.357 . S
C1354 C1356 1.354 . S
C1354 H1396 0.919 1_455 S
C1355 C1352 1.356 . S
C1355 C1357 1.358 . S
C1355 H1397 0.930 . S
C1356 N1353 1.314 . S
C1356 C1354 1.354 . S
C1356 H1398 0.930 1_455 S
C1357 N1353 1.279 . S
C1357 C1355 1.358 . S
C1357 H1399 0.930 . S
C1358 C1359 1.348 . S
C1358 C1360 1.356 1_455 S
C1358 O1383 1.325 . S
C1359 C1358 1.348 . S
C1359 C1361 1.353 . S
C1359 H1400 0.929 . S
C1360 C1358 1.356 1_655 S
C1360 C1362 1.358 . S
C1360 H1401 0.930 . S
C1361 C1359 1.353 . S
C1361 N1363 1.314 . S
C1361 H1402 0.930 . S
C1362 C1360 1.358 . S
C1362 N1363 1.279 1_655 S
C1362 H1403 0.930 . S
N1363 C1361 1.314 . S
N1363 C1362 1.279 1_455 S
C1364 C1366 1.353 . S
C1364 N1367 1.314 . S
C1364 H1370 0.930 . S
C1365 N1367 1.279 . S
C1365 C1368 1.358 . S
C1365 H1371 0.930 . S
C1366 C1364 1.353 . S
C1366 C1369 1.348 . S
C1366 H1404 0.929 . S
N1367 Li1322 1.990 . S
N1367 C1364 1.314 . S
N1367 C1365 1.279 . S
C1368 C1365 1.358 . S
C1368 C1369 1.356 . S
C1368 H1405 0.930 . S
C1369 C1366 1.348 . S
C1369 C1368 1.356 . S
H1370 C1364 0.930 . S
H1371 C1365 0.930 . S
C1372 N1373 1.314 . S
C1372 C1374 1.353 . S
C1372 H1378 0.930 . S
N1373 Li1323 1.990 . S
N1373 C1372 1.314 . S
N1373 C1376 1.279 . S
C1374 C1372 1.353 . S
C1374 C1377 1.348 . S
C1374 H1406 0.929 . S
C1375 C1376 1.358 . S
C1375 C1377 1.356 . S
C1375 H1407 0.930 . S
C1376 N1373 1.279 . S
C1376 C1375 1.358 . S
C1376 H1379 0.930 . S
C1377 C1374 1.348 . S
C1377 C1375 1.356 . S
H1378 C1372 0.930 . S
H1379 C1376 0.930 . S
O1380 Li1320 1.956 . S
O1380 Li1321 1.970 . S
O1380 Li1322 1.961 . S
O1380 C1324 1.325 . S
O1381 Li1320 1.970 1_655 S
O1381 Li1321 1.956 1_655 S
O1381 Li1323 1.961 . S
O1381 C1330 1.325 . S
O1382 Li1320 1.961 . S
O1382 Li1322 1.956 . S
O1382 Li1323 1.970 1_455 S
O1382 C1352 1.325 . S
O1383 Li1321 1.961 . S
O1383 Li1322 1.970 . S
O1383 Li1323 1.956 1_455 S
O1383 C1358 1.325 . S
H1384 C1326 0.929 . S
H1385 C1327 0.930 . S
H1386 C1328 0.930 . S
H1387 C1329 0.930 . S
H1388 C1331 0.930 . S
H1389 C1333 0.929 . S
H1390 C1334 0.930 . S
H1391 C1335 0.930 . S
H1392 C1338 0.930 . S
H1393 C1341 0.913 1_655 S
H1394 C1346 0.929 . S
H1395 C1347 0.930 . S
H1396 C1354 0.919 1_655 S
H1397 C1355 0.930 . S
H1398 C1356 0.930 1_655 S
H1399 C1357 0.930 . S
H1400 C1359 0.929 . S
H1401 C1360 0.930 . S
H1402 C1361 0.930 . S
H1403 C1362 0.930 . S
H1404 C1366 0.929 . S
H1405 C1368 0.930 . S
H1406 C1374 0.929 . S
H1407 C1375 0.930 . S
C1408 C1409 1.349 . S
C1408 C1410 1.327 . S
C1408 H1433 0.950 . S
C1409 C1408 1.349 . S
C1409 C1425 1.349 1_455 S
C1410 C1408 1.327 . S
C1410 C1429 1.429 . S
C1410 H1434 0.950 . S
C1411 C1428 1.574 . S
C1411 C1430 1.368 1_655 S
C1411 H1435 0.949 . S
H1412 C1416 0.949 . S
C1413 C1414 1.365 . S
C1413 C1415 1.326 1_455 S
C1413 H1436 0.935 1_455 S
C1414 C1413 1.365 . S
C1414 C1426 1.349 . S
C1415 C1413 1.326 1_655 S
C1415 C1431 1.428 1_655 S
C1415 H1437 0.950 . S
C1416 H1412 0.949 . S
C1416 C1424 1.574 . S
C1416 C1432 1.368 . S
H1417 C1425 0.950 . S
H1418 C1423 0.950 . S
H1419 C1424 0.949 . S
H1420 C1426 0.950 . S
H1421 C1427 0.950 . S
H1422 C1428 0.949 . S
C1423 H1418 0.950 . S
C1423 C1425 1.327 . S
C1423 C1429 1.429 1_655 S
C1424 C1416 1.574 . S
C1424 H1419 0.949 . S
C1424 C1430 1.368 . S
C1425 C1409 1.349 1_655 S
C1425 H1417 0.950 . S
C1425 C1423 1.327 . S
C1426 C1414 1.349 . S
C1426 H1420 0.950 . S
C1426 C1427 1.327 . S
C1427 H1421 0.950 . S
C1427 C1426 1.327 . S
C1427 C1431 1.429 . S
C1428 C1411 1.574 . S
C1428 H1422 0.949 . S
C1428 C1432 1.368 1_655 S
C1429 C1410 1.429 . S
C1429 C1423 1.429 1_455 S
C1429 C1430 1.523 . S
C1430 C1411 1.368 1_455 S
C1430 C1424 1.368 . S
C1430 C1429 1.523 . S
C1431 C1415 1.428 1_455 S
C1431 C1427 1.429 . S
C1431 C1432 1.523 . S
C1432 C1416 1.368 . S
C1432 C1428 1.368 1_455 S
C1432 C1431 1.523 . S
H1433 C1408 0.950 . S
H1434 C1410 0.950 . S
H1435 C1411 0.949 . S
H1436 C1413 0.935 1_655 S
H1437 C1415 0.950 . S
C1438 C1439 1.349 . S
C1438 C1440 1.327 . S
C1438 H1463 0.950 . S
C1439 C1438 1.349 . S
C1439 C1455 1.349 . S
C1440 C1438 1.327 . S
C1440 C1459 1.429 . S
C1440 H1464 0.950 . S
C1441 C1458 1.574 1_655 S
C1441 C1460 1.368 . S
C1441 H1465 0.949 . S
H1442 C1446 0.949 . S
C1443 C1444 1.349 . S
C1443 C1445 1.327 . S
C1443 H1466 0.950 . S
C1444 C1443 1.349 . S
C1444 C1456 1.349 . S
C1445 C1443 1.327 . S
C1445 C1461 1.429 . S
C1445 H1467 0.950 . S
C1446 H1442 0.949 . S
C1446 C1454 1.574 1_455 S
C1446 C1462 1.368 . S
H1447 C1455 0.950 . S
H1448 C1453 0.950 . S
H1449 C1454 0.949 . S
H1450 C1456 0.950 . S
H1451 C1457 0.950 . S
H1452 C1458 0.949 . S
C1453 H1448 0.950 . S
C1453 C1455 1.327 . S
C1453 C1459 1.429 . S
C1454 C1446 1.574 1_655 S
C1454 H1449 0.949 . S
C1454 C1460 1.368 . S
C1455 C1439 1.349 . S
C1455 H1447 0.950 . S
C1455 C1453 1.327 . S
C1456 C1444 1.349 . S
C1456 H1450 0.950 . S
C1456 C1457 1.327 . S
C1457 H1451 0.950 . S
C1457 C1456 1.327 . S
C1457 C1461 1.429 . S
C1458 C1441 1.574 1_455 S
C1458 H1452 0.949 . S
C1458 C1462 1.368 . S
C1459 C1440 1.429 . S
C1459 C1453 1.429 . S
C1459 C1460 1.523 . S
C1460 C1441 1.368 . S
C1460 C1454 1.368 . S
C1460 C1459 1.523 . S
C1461 C1445 1.429 . S
C1461 C1457 1.429 . S
C1461 C1462 1.523 . S
C1462 C1446 1.368 . S
C1462 C1458 1.368 . S
C1462 C1461 1.523 . S
H1463 C1438 0.950 . S
H1464 C1440 0.950 . S
H1465 C1441 0.949 . S
H1466 C1443 0.950 . S
H1467 C1445 0.950 . S
C1468 C1469 1.349 . S
C1468 C1470 1.327 . S
C1468 H1493 0.950 . S
C1469 C1468 1.349 . S
C1469 C1485 1.349 . S
C1470 C1468 1.327 . S
C1470 C1489 1.429 . S
C1470 H1494 0.950 . S
C1471 C1488 1.574 . S
C1471 C1490 1.368 . S
C1471 H1495 0.949 . S
H1472 C1476 0.949 . S
C1473 C1474 1.349 . S
C1473 C1475 1.327 . S
C1473 H1496 0.950 . S
C1474 C1473 1.349 . S
C1474 C1486 1.349 . S
C1475 C1473 1.327 . S
C1475 C1491 1.429 . S
C1475 H1497 0.950 . S
C1476 H1472 0.949 . S
C1476 C1484 1.574 . S
C1476 C1492 1.368 . S
H1477 C1485 0.950 . S
H1478 C1483 0.950 . S
H1479 C1484 0.949 . S
H1480 C1486 0.950 . S
H1481 C1487 0.950 . S
H1482 C1488 0.949 . S
C1483 H1478 0.950 . S
C1483 C1485 1.327 . S
C1483 C1489 1.429 . S
C1484 C1476 1.574 . S
C1484 H1479 0.949 . S
C1484 C1490 1.368 . S
C1485 C1469 1.349 . S
C1485 H1477 0.950 . S
C1485 C1483 1.327 . S
C1486 C1474 1.349 . S
C1486 H1480 0.950 . S
C1486 C1487 1.327 . S
C1487 H1481 0.950 . S
C1487 C1486 1.327 . S
C1487 C1491 1.429 . S
C1488 C1471 1.574 . S
C1488 H1482 0.949 . S
C1488 C1492 1.368 . S
C1489 C1470 1.429 . S
C1489 C1483 1.429 . S
C1489 C1490 1.523 . S
C1490 C1471 1.368 . S
C1490 C1484 1.368 . S
C1490 C1489 1.523 . S
C1491 C1475 1.429 . S
C1491 C1487 1.429 . S
C1491 C1492 1.523 . S
C1492 C1476 1.368 . S
C1492 C1488 1.368 . S
C1492 C1491 1.523 . S
H1493 C1468 0.950 . S
H1494 C1470 0.950 . S
H1495 C1471 0.949 . S
H1496 C1473 0.950 . S
H1497 C1475 0.950 . S
C1498 C1499 1.349 . S
C1498 C1500 1.327 . S
C1498 H1523 0.950 . S
C1499 C1498 1.349 . S
C1499 C1515 1.349 . S
C1500 C1498 1.327 . S
C1500 C1519 1.429 . S
C1500 H1524 0.950 . S
C1501 C1518 1.574 . S
C1501 C1520 1.368 . S
C1501 H1525 0.949 . S
H1502 C1506 0.949 . S
C1503 C1504 1.349 . S
C1503 C1505 1.327 . S
C1503 H1526 0.950 . S
C1504 C1503 1.349 . S
C1504 C1516 1.349 . S
C1505 C1503 1.327 . S
C1505 C1521 1.429 . S
C1505 H1527 0.950 . S
C1506 H1502 0.949 . S
C1506 C1514 1.574 . S
C1506 C1522 1.368 . S
H1507 C1515 0.950 . S
H1508 C1513 0.950 . S
H1509 C1514 0.949 . S
H1510 C1516 0.950 . S
H1511 C1517 0.950 . S
H1512 C1518 0.949 . S
C1513 H1508 0.950 . S
C1513 C1515 1.327 . S
C1513 C1519 1.429 . S
C1514 C1506 1.574 . S
C1514 H1509 0.949 . S
C1514 C1520 1.368 . S
C1515 C1499 1.349 . S
C1515 H1507 0.950 . S
C1515 C1513 1.327 . S
C1516 C1504 1.349 . S
C1516 H1510 0.950 . S
C1516 C1517 1.327 . S
C1517 H1511 0.950 . S
C1517 C1516 1.327 . S
C1517 C1521 1.429 . S
C1518 C1501 1.574 . S
C1518 H1512 0.949 . S
C1518 C1522 1.368 . S
C1519 C1500 1.429 . S
C1519 C1513 1.429 . S
C1519 C1520 1.523 . S
C1520 C1501 1.368 . S
C1520 C1514 1.368 . S
C1520 C1519 1.523 . S
C1521 C1505 1.429 . S
C1521 C1517 1.429 . S
C1521 C1522 1.523 . S
C1522 C1506 1.368 . S
C1522 C1518 1.368 . S
C1522 C1521 1.523 . S
H1523 C1498 0.950 . S
H1524 C1500 0.950 . S
H1525 C1501 0.949 . S
H1526 C1503 0.950 . S
H1527 C1505 0.950 . S
C1528 C1529 1.349 1_655 S
C1528 C1530 1.327 . S
C1528 H1553 0.950 . S
C1529 C1528 1.349 1_455 S
C1529 C1545 1.349 . S
C1530 C1528 1.327 . S
C1530 C1549 1.429 1_655 S
C1530 H1554 0.950 . S
C1531 C1548 1.574 . S
C1531 C1550 1.368 . S
C1531 H1555 0.949 . S
H1532 C1536 0.949 . S
C1533 C1534 1.349 . S
C1533 C1535 1.327 . S
C1533 H1556 0.950 . S
C1534 C1533 1.349 . S
C1534 C1546 1.365 . S
C1535 C1533 1.327 . S
C1535 C1551 1.429 . S
C1535 H1557 0.950 . S
C1536 H1532 0.949 . S
C1536 C1544 1.574 . S
C1536 C1552 1.368 1_655 S
H1537 C1545 0.950 . S
H1538 C1543 0.950 . S
H1539 C1544 0.949 . S
H1540 C1546 0.935 1_655 S
H1541 C1547 0.950 . S
H1542 C1548 0.949 . S
C1543 H1538 0.950 . S
C1543 C1545 1.327 . S
C1543 C1549 1.429 . S
C1544 C1536 1.574 . S
C1544 H1539 0.949 . S
C1544 C1550 1.368 1_655 S
C1545 C1529 1.349 . S
C1545 H1537 0.950 . S
C1545 C1543 1.327 . S
C1546 C1534 1.365 . S
C1546 H1540 0.935 1_455 S
C1546 C1547 1.326 1_455 S
C1547 H1541 0.950 . S
C1547 C1546 1.326 1_655 S
C1547 C1551 1.428 1_655 S
C1548 C1531 1.574 . S
C1548 H1542 0.949 . S
C1548 C1552 1.368 . S
C1549 C1530 1.429 1_455 S
C1549 C1543 1.429 . S
C1549 C1550 1.523 . S
C1550 C1531 1.368 . S
C1550 C1544 1.368 1_455 S
C1550 C1549 1.523 . S
C1551 C1535 1.429 . S
C1551 C1547 1.428 1_455 S
C1551 C1552 1.523 . S
C1552 C1536 1.368 1_455 S
C1552 C1548 1.368 . S
C1552 C1551 1.523 . S
H1553 C1528 0.950 . S
H1554 C1530 0.950 . S
H1555 C1531 0.949 . S
H1556 C1533 0.950 . S
H1557 C1535 0.950 . S
C1558 C1559 1.349 . S
C1558 C1560 1.327 . S
C1558 H1583 0.950 . S
C1559 C1558 1.349 . S
C1559 C1575 1.349 . S
C1560 C1558 1.327 . S
C1560 C1579 1.429 . S
C1560 H1584 0.950 . S
C1561 C1578 1.574 . S
C1561 C1580 1.368 . S
C1561 H1585 0.949 . S
H1562 C1566 0.949 . S
C1563 C1564 1.349 . S
C1563 C1565 1.327 . S
C1563 H1586 0.950 . S
C1564 C1563 1.349 . S
C1564 C1576 1.349 . S
C1565 C1563 1.327 . S
C1565 C1581 1.429 . S
C1565 H1587 0.950 . S
C1566 H1562 0.949 . S
C1566 C1574 1.574 . S
C1566 C1582 1.368 . S
H1567 C1575 0.950 . S
H1568 C1573 0.950 . S
H1569 C1574 0.949 . S
H1570 C1576 0.950 . S
H1571 C1577 0.950 . S
H1572 C1578 0.949 . S
C1573 H1568 0.950 . S
C1573 C1575 1.327 . S
C1573 C1579 1.429 . S
C1574 C1566 1.574 . S
C1574 H1569 0.949 . S
C1574 C1580 1.368 . S
C1575 C1559 1.349 . S
C1575 H1567 0.950 . S
C1575 C1573 1.327 . S
C1576 C1564 1.349 . S
C1576 H1570 0.950 . S
C1576 C1577 1.327 . S
C1577 H1571 0.950 . S
C1577 C1576 1.327 . S
C1577 C1581 1.429 . S
C1578 C1561 1.574 . S
C1578 H1572 0.949 . S
C1578 C1582 1.368 . S
C1579 C1560 1.429 . S
C1579 C1573 1.429 . S
C1579 C1580 1.523 . S
C1580 C1561 1.368 . S
C1580 C1574 1.368 . S
C1580 C1579 1.523 . S
C1581 C1565 1.429 . S
C1581 C1577 1.429 . S
C1581 C1582 1.523 . S
C1582 C1566 1.368 . S
C1582 C1578 1.368 . S
C1582 C1581 1.523 . S
H1583 C1558 0.950 . S
H1584 C1560 0.950 . S
H1585 C1561 0.949 . S
H1586 C1563 0.950 . S
H1587 C1565 0.950 . S
C1588 C1589 1.349 . S
C1588 C1590 1.327 . S
C1588 H1613 0.950 . S
C1589 C1588 1.349 . S
C1589 C1605 1.349 . S
C1590 C1588 1.327 . S
C1590 C1609 1.429 . S
C1590 H1614 0.950 . S
C1591 C1608 1.574 . S
C1591 C1610 1.368 . S
C1591 H1615 0.949 . S
H1592 C1596 0.949 . S
C1593 C1594 1.349 . S
C1593 C1595 1.327 . S
C1593 H1616 0.950 . S
C1594 C1593 1.349 . S
C1594 C1606 1.349 . S
C1595 C1593 1.327 . S
C1595 C1611 1.429 . S
C1595 H1617 0.950 . S
C1596 H1592 0.949 . S
C1596 C1604 1.574 . S
C1596 C1612 1.368 . S
H1597 C1605 0.950 . S
H1598 C1603 0.950 . S
H1599 C1604 0.949 . S
H1600 C1606 0.950 . S
H1601 C1607 0.950 . S
H1602 C1608 0.949 . S
C1603 H1598 0.950 . S
C1603 C1605 1.327 . S
C1603 C1609 1.429 . S
C1604 C1596 1.574 . S
C1604 H1599 0.949 . S
C1604 C1610 1.368 . S
C1605 C1589 1.349 . S
C1605 H1597 0.950 . S
C1605 C1603 1.327 . S
C1606 C1594 1.349 . S
C1606 H1600 0.950 . S
C1606 C1607 1.327 . S
C1607 H1601 0.950 . S
C1607 C1606 1.327 . S
C1607 C1611 1.429 . S
C1608 C1591 1.574 . S
C1608 H1602 0.949 . S
C1608 C1612 1.368 . S
C1609 C1590 1.429 . S
C1609 C1603 1.429 . S
C1609 C1610 1.523 . S
C1610 C1591 1.368 . S
C1610 C1604 1.368 . S
C1610 C1609 1.523 . S
C1611 C1595 1.429 . S
C1611 C1607 1.429 . S
C1611 C1612 1.523 . S
C1612 C1596 1.368 . S
C1612 C1608 1.368 . S
C1612 C1611 1.523 . S
H1613 C1588 0.950 . S
H1614 C1590 0.950 . S
H1615 C1591 0.949 . S
H1616 C1593 0.950 . S
H1617 C1595 0.950 . S
C1618 C1619 1.349 . S
C1618 C1620 1.327 . S
C1618 H1643 0.950 . S
C1619 C1618 1.349 . S
C1619 C1635 1.349 . S
C1620 C1618 1.327 . S
C1620 C1639 1.429 . S
C1620 H1644 0.950 . S
C1621 C1638 1.574 1_455 S
C1621 C1640 1.368 . S
C1621 H1645 0.949 . S
H1622 C1626 0.949 . S
C1623 C1624 1.349 . S
C1623 C1625 1.327 . S
C1623 H1646 0.950 . S
C1624 C1623 1.349 . S
C1624 C1636 1.349 . S
C1625 C1623 1.327 . S
C1625 C1641 1.429 . S
C1625 H1647 0.950 . S
C1626 H1622 0.949 . S
C1626 C1634 1.574 1_655 S
C1626 C1642 1.368 . S
H1627 C1635 0.950 . S
H1628 C1633 0.950 . S
H1629 C1634 0.949 . S
H1630 C1636 0.950 . S
H1631 C1637 0.950 . S
H1632 C1638 0.949 . S
C1633 H1628 0.950 . S
C1633 C1635 1.327 . S
C1633 C1639 1.429 . S
C1634 C1626 1.574 1_455 S
C1634 H1629 0.949 . S
C1634 C1640 1.368 . S
C1635 C1619 1.349 . S
C1635 H1627 0.950 . S
C1635 C1633 1.327 . S
C1636 C1624 1.349 . S
C1636 H1630 0.950 . S
C1636 C1637 1.327 . S
C1637 H1631 0.950 . S
C1637 C1636 1.327 . S
C1637 C1641 1.429 . S
C1638 C1621 1.574 1_655 S
C1638 H1632 0.949 . S
C1638 C1642 1.368 . S
C1639 C1620 1.429 . S
C1639 C1633 1.429 . S
C1639 C1640 1.523 . S
C1640 C1621 1.368 . S
C1640 C1634 1.368 . S
C1640 C1639 1.523 . S
C1641 C1625 1.429 . S
C1641 C1637 1.429 . S
C1641 C1642 1.523 . S
C1642 C1626 1.368 . S
C1642 C1638 1.368 . S
C1642 C1641 1.523 . S
H1643 C1618 0.950 . S
H1644 C1620 0.950 . S
H1645 C1621 0.949 . S
H1646 C1623 0.950 . S
H1647 C1625 0.950 . S
C1648 C1649 1.349 . S
C1648 C1650 1.327 . S
C1648 H1673 0.950 . S
C1649 C1648 1.349 . S
C1649 C1665 1.349 1_455 S
C1650 C1648 1.327 . S
C1650 C1669 1.429 . S
C1650 H1674 0.950 . S
C1651 C1668 1.574 . S
C1651 C1670 1.368 1_645 S
C1651 H1675 0.949 . S
H1652 C1656 0.949 . S
C1653 C1654 1.349 1_655 S
C1653 C1655 1.327 . S
C1653 H1676 0.950 . S
C1654 C1653 1.349 1_455 S
C1654 C1666 1.349 . S
C1655 C1653 1.327 . S
C1655 C1671 1.429 1_655 S
C1655 H1677 0.950 . S
C1656 H1652 0.949 . S
C1656 C1664 1.574 . S
C1656 C1672 1.368 1_565 S
H1657 C1665 0.950 . S
H1658 C1663 0.950 1_545 S
H1659 C1664 0.949 . S
H1660 C1666 0.950 . S
H1661 C1667 0.950 1_565 S
H1662 C1668 0.949 . S
C1663 H1658 0.950 1_565 S
C1663 C1665 1.327 . S
C1663 C1669 1.429 1_655 S
C1664 C1656 1.574 . S
C1664 H1659 0.949 . S
C1664 C1670 1.368 . S
C1665 C1649 1.349 1_655 S
C1665 H1657 0.950 . S
C1665 C1663 1.327 . S
C1666 C1654 1.349 . S
C1666 H1660 0.950 . S
C1666 C1667 1.327 . S
C1667 H1661 0.950 1_545 S
C1667 C1666 1.327 . S
C1667 C1671 1.429 . S
C1668 C1651 1.574 . S
C1668 H1662 0.949 . S
C1668 C1672 1.368 1_655 S
C1669 C1650 1.429 . S
C1669 C1663 1.429 1_455 S
C1669 C1670 1.523 . S
C1670 C1651 1.368 1_465 S
C1670 C1664 1.368 . S
C1670 C1669 1.523 . S
C1671 C1655 1.429 1_455 S
C1671 C1667 1.429 . S
C1671 C1672 1.523 . S
C1672 C1656 1.368 1_545 S
C1672 C1668 1.368 1_455 S
C1672 C1671 1.523 . S
H1673 C1648 0.950 . S
H1674 C1650 0.950 . S
H1675 C1651 0.949 . S
H1676 C1653 0.950 . S
H1677 C1655 0.950 . S
C1678 C1679 1.349 . S
C1678 C1680 1.327 . S
C1678 H1703 0.950 . S
C1679 C1678 1.349 . S
C1679 C1695 1.349 . S
C1680 C1678 1.327 . S
C1680 C1699 1.429 . S
C1680 H1704 0.950 . S
C1681 C1698 1.574 . S
C1681 C1700 1.368 . S
C1681 H1705 0.949 . S
H1682 C1686 0.949 . S
C1683 C1684 1.349 . S
C1683 C1685 1.327 . S
C1683 H1706 0.950 . S
C1684 C1683 1.349 . S
C1684 C1696 1.349 . S
C1685 C1683 1.327 . S
C1685 C1701 1.429 . S
C1685 H1707 0.950 . S
C1686 H1682 0.949 . S
C1686 C1694 1.574 . S
C1686 C1702 1.368 . S
H1687 C1695 0.950 . S
H1688 C1693 0.950 . S
H1689 C1694 0.949 . S
H1690 C1696 0.950 . S
H1691 C1697 0.950 . S
H1692 C1698 0.949 . S
C1693 H1688 0.950 . S
C1693 C1695 1.327 . S
C1693 C1699 1.429 . S
C1694 C1686 1.574 . S
C1694 H1689 0.949 . S
C1694 C1700 1.368 . S
C1695 C1679 1.349 . S
C1695 H1687 0.950 . S
C1695 C1693 1.327 . S
C1696 C1684 1.349 . S
C1696 H1690 0.950 . S
C1696 C1697 1.327 . S
C1697 H1691 0.950 . S
C1697 C1696 1.327 . S
C1697 C1701 1.429 . S
C1698 C1681 1.574 . S
C1698 H1692 0.949 . S
C1698 C1702 1.368 . S
C1699 C1680 1.429 . S
C1699 C1693 1.429 . S
C1699 C1700 1.523 . S
C1700 C1681 1.368 . S
C1700 C1694 1.368 . S
C1700 C1699 1.523 . S
C1701 C1685 1.429 . S
C1701 C1697 1.429 . S
C1701 C1702 1.523 . S
C1702 C1686 1.368 . S
C1702 C1698 1.368 . S
C1702 C1701 1.523 . S
H1703 C1678 0.950 . S
H1704 C1680 0.950 . S
H1705 C1681 0.949 . S
H1706 C1683 0.950 . S
H1707 C1685 0.950 . S
C1708 C1709 1.349 . S
C1708 C1710 1.327 . S
C1708 H1733 0.950 . S
C1709 C1708 1.349 . S
C1709 C1725 1.388 . S
C1710 C1708 1.327 . S
C1710 C1729 1.429 . S
C1710 H1734 0.950 . S
C1711 C1728 1.574 1_554 S
C1711 C1730 1.368 1_545 S
C1711 H1735 0.949 . S
H1712 C1716 0.949 . S
C1713 C1714 1.349 . S
C1713 C1715 1.327 . S
C1713 H1736 0.950 . S
C1714 C1713 1.349 . S
C1714 C1726 1.388 . S
C1715 C1713 1.327 . S
C1715 C1731 1.429 . S
C1715 H1737 0.950 . S
C1716 H1712 0.949 . S
C1716 C1724 1.574 1_556 S
C1716 C1732 1.368 1_565 S
H1717 C1725 0.922 1_545 S
H1718 C1723 0.950 . S
H1719 C1724 0.949 . S
H1720 C1726 0.922 1_565 S
H1721 C1727 0.950 . S
H1722 C1728 0.949 . S
C1723 H1718 0.950 . S
C1723 C1725 1.317 1_545 S
C1723 C1729 1.429 1_545 S
C1724 C1716 1.574 1_554 S
C1724 H1719 0.949 . S
C1724 C1730 1.368 . S
C1725 C1709 1.388 . S
C1725 H1717 0.922 1_565 S
C1725 C1723 1.317 1_565 S
C1726 C1714 1.388 . S
C1726 H1720 0.922 1_545 S
C1726 C1727 1.317 1_545 S
C1727 H1721 0.950 . S
C1727 C1726 1.317 1_565 S
C1727 C1731 1.429 1_565 S
C1728 C1711 1.574 1_556 S
C1728 H1722 0.949 . S
C1728 C1732 1.368 . S
C1729 C1710 1.429 . S
C1729 C1723 1.429 1_565 S
C1729 C1730 1.523 . S
C1730 C1711 1.368 1_565 S
C1730 C1724 1.368 . S
C1730 C1729 1.523 . S
C1731 C1715 1.429 . S
C1731 C1727 1.429 1_545 S
C1731 C1732 1.523 . S
C1732 C1716 1.368 1_545 S
C1732 C1728 1.368 . S
C1732 C1731 1.523 . S
H1733 C1708 0.950 . S
H1734 C1710 0.950 . S
H1735 C1711 0.949 . S
H1736 C1713 0.950 . S
H1737 C1715 0.950 . S
C1738 C1739 1.349 . S
C1738 C1740 1.327 . S
C1738 H1763 0.950 . S
C1739 C1738 1.349 . S
C1739 C1755 1.349 . S
C1740 C1738 1.327 . S
C1740 C1759 1.429 . S
C1740 H1764 0.950 . S
C1741 C1758 1.574 . S
C1741 C1760 1.368 . S
C1741 H1765 0.949 . S
H1742 C1746 0.949 . S
C1743 C1744 1.349 . S
C1743 C1745 1.327 . S
C1743 H1766 0.950 . S
C1744 C1743 1.349 . S
C1744 C1756 1.349 . S
C1745 C1743 1.327 . S
C1745 C1761 1.429 . S
C1745 H1767 0.950 . S
C1746 H1742 0.949 . S
C1746 C1754 1.574 . S
C1746 C1762 1.368 . S
H1747 C1755 0.950 . S
H1748 C1753 0.950 . S
H1749 C1754 0.949 . S
H1750 C1756 0.950 . S
H1751 C1757 0.950 . S
H1752 C1758 0.949 . S
C1753 H1748 0.950 . S
C1753 C1755 1.327 . S
C1753 C1759 1.429 . S
C1754 C1746 1.574 . S
C1754 H1749 0.949 . S
C1754 C1760 1.368 . S
C1755 C1739 1.349 . S
C1755 H1747 0.950 . S
C1755 C1753 1.327 . S
C1756 C1744 1.349 . S
C1756 H1750 0.950 . S
C1756 C1757 1.327 . S
C1757 H1751 0.950 . S
C1757 C1756 1.327 . S
C1757 C1761 1.429 . S
C1758 C1741 1.574 . S
C1758 H1752 0.949 . S
C1758 C1762 1.368 . S
C1759 C1740 1.429 . S
C1759 C1753 1.429 . S
C1759 C1760 1.523 . S
C1760 C1741 1.368 . S
C1760 C1754 1.368 . S
C1760 C1759 1.523 . S
C1761 C1745 1.429 . S
C1761 C1757 1.429 . S
C1761 C1762 1.523 . S
C1762 C1746 1.368 . S
C1762 C1758 1.368 . S
C1762 C1761 1.523 . S
H1763 C1738 0.950 . S
H1764 C1740 0.950 . S
H1765 C1741 0.949 . S
H1766 C1743 0.950 . S
H1767 C1745 0.950 . S
C1768 C1769 1.349 . S
C1768 C1770 1.327 . S
C1768 H1793 0.950 . S
C1769 C1768 1.349 . S
C1769 C1785 1.349 . S
C1770 C1768 1.327 . S
C1770 C1789 1.429 . S
C1770 H1794 0.950 . S
C1771 C1788 1.574 . S
C1771 C1790 1.368 . S
C1771 H1795 0.949 . S
H1772 C1776 0.949 . S
C1773 C1774 1.349 . S
C1773 C1775 1.327 . S
C1773 H1796 0.950 . S
C1774 C1773 1.349 . S
C1774 C1786 1.349 . S
C1775 C1773 1.327 . S
C1775 C1791 1.429 . S
C1775 H1797 0.950 . S
C1776 H1772 0.949 . S
C1776 C1784 1.574 . S
C1776 C1792 1.368 . S
H1777 C1785 0.950 . S
H1778 C1783 0.950 . S
H1779 C1784 0.949 . S
H1780 C1786 0.950 . S
H1781 C1787 0.950 . S
H1782 C1788 0.949 . S
C1783 H1778 0.950 . S
C1783 C1785 1.327 . S
C1783 C1789 1.429 . S
C1784 C1776 1.574 . S
C1784 H1779 0.949 . S
C1784 C1790 1.368 . S
C1785 C1769 1.349 . S
C1785 H1777 0.950 . S
C1785 C1783 1.327 . S
C1786 C1774 1.349 . S
C1786 H1780 0.950 . S
C1786 C1787 1.327 . S
C1787 H1781 0.950 . S
C1787 C1786 1.327 . S
C1787 C1791 1.429 . S
C1788 C1771 1.574 . S
C1788 H1782 0.949 . S
C1788 C1792 1.368 . S
C1789 C1770 1.429 . S
C1789 C1783 1.429 . S
C1789 C1790 1.523 . S
C1790 C1771 1.368 . S
C1790 C1784 1.368 . S
C1790 C1789 1.523 . S
C1791 C1775 1.429 . S
C1791 C1787 1.429 . S
C1791 C1792 1.523 . S
C1792 C1776 1.368 . S
C1792 C1788 1.368 . S
C1792 C1791 1.523 . S
H1793 C1768 0.950 . S
H1794 C1770 0.950 . S
H1795 C1771 0.949 . S
H1796 C1773 0.950 . S
H1797 C1775 0.950 . S
C1798 C1799 1.349 . S
C1798 C1800 1.327 . S
C1798 H1823 0.950 . S
C1799 C1798 1.349 . S
C1799 C1815 1.349 . S
C1800 C1798 1.327 . S
C1800 C1819 1.429 . S
C1800 H1824 0.950 . S
C1801 C1818 1.574 . S
C1801 C1820 1.368 . S
C1801 H1825 0.949 . S
H1802 C1806 0.949 . S
C1803 C1804 1.349 . S
C1803 C1805 1.327 . S
C1803 H1826 0.950 . S
C1804 C1803 1.349 . S
C1804 C1816 1.349 . S
C1805 C1803 1.327 . S
C1805 C1821 1.429 . S
C1805 H1827 0.950 . S
C1806 H1802 0.949 . S
C1806 C1814 1.574 . S
C1806 C1822 1.368 . S
H1807 C1815 0.950 . S
H1808 C1813 0.950 . S
H1809 C1814 0.949 . S
H1810 C1816 0.950 . S
H1811 C1817 0.950 . S
H1812 C1818 0.949 . S
C1813 H1808 0.950 . S
C1813 C1815 1.327 . S
C1813 C1819 1.429 . S
C1814 C1806 1.574 . S
C1814 H1809 0.949 . S
C1814 C1820 1.368 . S
C1815 C1799 1.349 . S
C1815 H1807 0.950 . S
C1815 C1813 1.327 . S
C1816 C1804 1.349 . S
C1816 H1810 0.950 . S
C1816 C1817 1.327 . S
C1817 H1811 0.950 . S
C1817 C1816 1.327 . S
C1817 C1821 1.429 . S
C1818 C1801 1.574 . S
C1818 H1812 0.949 . S
C1818 C1822 1.368 . S
C1819 C1800 1.429 . S
C1819 C1813 1.429 . S
C1819 C1820 1.523 . S
C1820 C1801 1.368 . S
C1820 C1814 1.368 . S
C1820 C1819 1.523 . S
C1821 C1805 1.429 . S
C1821 C1817 1.429 . S
C1821 C1822 1.523 . S
C1822 C1806 1.368 . S
C1822 C1818 1.368 . S
C1822 C1821 1.523 . S
H1823 C1798 0.950 . S
H1824 C1800 0.950 . S
H1825 C1801 0.949 . S
H1826 C1803 0.950 . S
H1827 C1805 0.950 . S
C1828 C1829 1.349 . S
C1828 C1830 1.327 . S
C1828 H1853 0.950 . S
C1829 C1828 1.349 . S
C1829 C1845 1.349 . S
C1830 C1828 1.327 . S
C1830 C1849 1.429 . S
C1830 H1854 0.950 . S
C1831 C1848 1.574 1_556 S
C1831 C1850 1.368 . S
C1831 H1855 0.949 . S
H1832 C1836 0.949 . S
C1833 C1834 1.349 . S
C1833 C1835 1.327 . S
C1833 H1856 0.950 . S
C1834 C1833 1.349 . S
C1834 C1846 1.349 . S
C1835 C1833 1.327 . S
C1835 C1851 1.429 . S
C1835 H1857 0.950 . S
C1836 H1832 0.949 . S
C1836 C1844 1.574 1_554 S
C1836 C1852 1.368 . S
H1837 C1845 0.950 . S
H1838 C1843 0.950 . S
H1839 C1844 0.949 . S
H1840 C1846 0.950 . S
H1841 C1847 0.950 . S
H1842 C1848 0.949 . S
C1843 H1838 0.950 . S
C1843 C1845 1.327 . S
C1843 C1849 1.429 . S
C1844 C1836 1.574 1_556 S
C1844 H1839 0.949 . S
C1844 C1850 1.368 . S
C1845 C1829 1.349 . S
C1845 H1837 0.950 . S
C1845 C1843 1.327 . S
C1846 C1834 1.349 . S
C1846 H1840 0.950 . S
C1846 C1847 1.327 . S
C1847 H1841 0.950 . S
C1847 C1846 1.327 . S
C1847 C1851 1.429 . S
C1848 C1831 1.574 1_554 S
C1848 H1842 0.949 . S
C1848 C1852 1.368 . S
C1849 C1830 1.429 . S
C1849 C1843 1.429 . S
C1849 C1850 1.523 . S
C1850 C1831 1.368 . S
C1850 C1844 1.368 . S
C1850 C1849 1.523 . S
C1851 C1835 1.429 . S
C1851 C1847 1.429 . S
C1851 C1852 1.523 . S
C1852 C1836 1.368 . S
C1852 C1848 1.368 . S
C1852 C1851 1.523 . S
H1853 C1828 0.950 . S
H1854 C1830 0.950 . S
H1855 C1831 0.949 . S
H1856 C1833 0.950 . S
H1857 C1835 0.950 . S
C1858 C1859 1.349 . S
C1858 C1860 1.327 . S
C1858 H1883 0.950 . S
C1859 C1858 1.349 . S
C1859 C1875 1.349 1_455 S
C1860 C1858 1.327 . S
C1860 C1879 1.429 . S
C1860 H1884 0.950 . S
C1861 C1878 1.574 . S
C1861 C1880 1.368 1_655 S
C1861 H1885 0.949 . S
H1862 C1866 0.949 . S
C1863 C1864 1.349 1_655 S
C1863 C1865 1.327 . S
C1863 H1886 0.950 . S
C1864 C1863 1.349 1_455 S
C1864 C1876 1.349 . S
C1865 C1863 1.327 . S
C1865 C1881 1.429 1_655 S
C1865 H1887 0.950 . S
C1866 H1862 0.949 . S
C1866 C1874 1.574 . S
C1866 C1882 1.368 . S
H1867 C1875 0.950 . S
H1868 C1873 0.950 . S
H1869 C1874 0.949 . S
H1870 C1876 0.950 . S
H1871 C1877 0.950 . S
H1872 C1878 0.949 . S
C1873 H1868 0.950 . S
C1873 C1875 1.327 . S
C1873 C1879 1.429 1_655 S
C1874 C1866 1.574 . S
C1874 H1869 0.949 . S
C1874 C1880 1.368 . S
C1875 C1859 1.349 1_655 S
C1875 H1867 0.950 . S
C1875 C1873 1.327 . S
C1876 C1864 1.349 . S
C1876 H1870 0.950 . S
C1876 C1877 1.327 . S
C1877 H1871 0.950 . S
C1877 C1876 1.327 . S
C1877 C1881 1.429 . S
C1878 C1861 1.574 . S
C1878 H1872 0.949 . S
C1878 C1882 1.368 1_655 S
C1879 C1860 1.429 . S
C1879 C1873 1.429 1_455 S
C1879 C1880 1.523 . S
C1880 C1861 1.368 1_455 S
C1880 C1874 1.368 . S
C1880 C1879 1.523 . S
C1881 C1865 1.429 1_455 S
C1881 C1877 1.429 . S
C1881 C1882 1.523 . S
C1882 C1866 1.368 . S
C1882 C1878 1.368 1_455 S
C1882 C1881 1.523 . S
H1883 C1858 0.950 . S
H1884 C1860 0.950 . S
H1885 C1861 0.949 . S
H1886 C1863 0.950 . S
H1887 C1865 0.950 . S
C1888 C1889 1.349 . S
C1888 C1890 1.327 . S
C1888 H1913 0.950 . S
C1889 C1888 1.349 . S
C1889 C1905 1.349 . S
C1890 C1888 1.327 . S
C1890 C1909 1.429 . S
C1890 H1914 0.950 . S
C1891 C1908 1.574 . S
C1891 C1910 1.368 . S
C1891 H1915 0.949 . S
H1892 C1896 0.949 . S
C1893 C1894 1.349 . S
C1893 C1895 1.327 . S
C1893 H1916 0.950 1_565 S
C1894 C1893 1.349 . S
C1894 C1906 1.349 . S
C1895 C1893 1.327 . S
C1895 C1911 1.429 . S
C1895 H1917 0.950 . S
C1896 H1892 0.949 . S
C1896 C1904 1.574 . S
C1896 C1912 1.368 . S
H1897 C1905 0.950 . S
H1898 C1903 0.950 . S
H1899 C1904 0.949 . S
H1900 C1906 0.950 . S
H1901 C1907 0.950 . S
H1902 C1908 0.949 . S
C1903 H1898 0.950 . S
C1903 C1905 1.327 . S
C1903 C1909 1.429 . S
C1904 C1896 1.574 . S
C1904 H1899 0.949 . S
C1904 C1910 1.368 . S
C1905 C1889 1.349 . S
C1905 H1897 0.950 . S
C1905 C1903 1.327 . S
C1906 C1894 1.349 . S
C1906 H1900 0.950 . S
C1906 C1907 1.327 . S
C1907 H1901 0.950 . S
C1907 C1906 1.327 . S
C1907 C1911 1.429 . S
C1908 C1891 1.574 . S
C1908 H1902 0.949 . S
C1908 C1912 1.368 . S
C1909 C1890 1.429 . S
C1909 C1903 1.429 . S
C1909 C1910 1.523 . S
C1910 C1891 1.368 . S
C1910 C1904 1.368 . S
C1910 C1909 1.523 . S
C1911 C1895 1.429 . S
C1911 C1907 1.429 . S
C1911 C1912 1.523 . S
C1912 C1896 1.368 . S
C1912 C1908 1.368 . S
C1912 C1911 1.523 . S
H1913 C1888 0.950 . S
H1914 C1890 0.950 . S
H1915 C1891 0.949 . S
H1916 C1893 0.950 1_545 S
H1917 C1895 0.950 . S
C1918 C1919 1.349 . S
C1918 C1920 1.327 . S
C1918 H1943 0.950 . S
C1919 C1918 1.349 . S
C1919 C1935 1.349 . S
C1920 C1918 1.327 . S
C1920 C1939 1.429 . S
C1920 H1944 0.950 . S
C1921 C1938 1.574 . S
C1921 C1940 1.368 . S
C1921 H1945 0.949 . S
H1922 C1926 0.949 . S
C1923 C1924 1.349 . S
C1923 C1925 1.327 . S
C1923 H1946 0.950 . S
C1924 C1923 1.349 . S
C1924 C1936 1.349 . S
C1925 C1923 1.327 . S
C1925 C1941 1.429 . S
C1925 H1947 0.950 . S
C1926 H1922 0.949 . S
C1926 C1934 1.574 . S
C1926 C1942 1.368 . S
H1927 C1935 0.950 . S
H1928 C1933 0.950 . S
H1929 C1934 0.949 . S
H1930 C1936 0.950 . S
H1931 C1937 0.950 . S
H1932 C1938 0.949 . S
C1933 H1928 0.950 . S
C1933 C1935 1.327 . S
C1933 C1939 1.429 . S
C1934 C1926 1.574 . S
C1934 H1929 0.949 . S
C1934 C1940 1.368 . S
C1935 C1919 1.349 . S
C1935 H1927 0.950 . S
C1935 C1933 1.327 . S
C1936 C1924 1.349 . S
C1936 H1930 0.950 . S
C1936 C1937 1.327 . S
C1937 H1931 0.950 . S
C1937 C1936 1.327 . S
C1937 C1941 1.429 . S
C1938 C1921 1.574 . S
C1938 H1932 0.949 . S
C1938 C1942 1.368 . S
C1939 C1920 1.429 . S
C1939 C1933 1.429 . S
C1939 C1940 1.523 . S
C1940 C1921 1.368 . S
C1940 C1934 1.368 . S
C1940 C1939 1.523 . S
C1941 C1925 1.429 . S
C1941 C1937 1.429 . S
C1941 C1942 1.523 . S
C1942 C1926 1.368 . S
C1942 C1938 1.368 . S
C1942 C1941 1.523 . S
H1943 C1918 0.950 . S
H1944 C1920 0.950 . S
H1945 C1921 0.949 . S
H1946 C1923 0.950 . S
H1947 C1925 0.950 . S
C1948 C1949 1.349 . S
C1948 C1950 1.327 . S
C1948 H1973 0.950 . S
C1949 C1948 1.349 . S
C1949 C1965 1.349 . S
C1950 C1948 1.327 . S
C1950 C1969 1.429 . S
C1950 H1974 0.950 . S
C1951 C1968 1.574 . S
C1951 C1970 1.368 . S
C1951 H1975 0.949 . S
H1952 C1956 0.949 . S
C1953 C1954 1.349 . S
C1953 C1955 1.327 . S
C1953 H1976 0.950 . S
C1954 C1953 1.349 . S
C1954 C1966 1.349 . S
C1955 C1953 1.327 . S
C1955 C1971 1.429 . S
C1955 H1977 0.950 . S
C1956 H1952 0.949 . S
C1956 C1964 1.574 . S
C1956 C1972 1.368 . S
H1957 C1965 0.950 . S
H1958 C1963 0.950 . S
H1959 C1964 0.949 . S
H1960 C1966 0.950 . S
H1961 C1967 0.950 . S
H1962 C1968 0.949 . S
C1963 H1958 0.950 . S
C1963 C1965 1.327 . S
C1963 C1969 1.429 . S
C1964 C1956 1.574 . S
C1964 H1959 0.949 . S
C1964 C1970 1.368 . S
C1965 C1949 1.349 . S
C1965 H1957 0.950 . S
C1965 C1963 1.327 . S
C1966 C1954 1.349 . S
C1966 H1960 0.950 . S
C1966 C1967 1.327 . S
C1967 H1961 0.950 . S
C1967 C1966 1.327 . S
C1967 C1971 1.429 . S
C1968 C1951 1.574 . S
C1968 H1962 0.949 . S
C1968 C1972 1.368 . S
C1969 C1950 1.429 . S
C1969 C1963 1.429 . S
C1969 C1970 1.523 . S
C1970 C1951 1.368 . S
C1970 C1964 1.368 . S
C1970 C1969 1.523 . S
C1971 C1955 1.429 . S
C1971 C1967 1.429 . S
C1971 C1972 1.523 . S
C1972 C1956 1.368 . S
C1972 C1968 1.368 . S
C1972 C1971 1.523 . S
H1973 C1948 0.950 . S
H1974 C1950 0.950 . S
H1975 C1951 0.949 . S
H1976 C1953 0.950 . S
H1977 C1955 0.950 . S
C1978 C1979 1.349 . S
C1978 C1980 1.327 . S
C1978 H2003 0.950 . S
C1979 C1978 1.349 . S
C1979 C1995 1.349 . S
C1980 C1978 1.327 . S
C1980 C1999 1.429 . S
C1980 H2004 0.950 . S
C1981 C1998 1.574 . S
C1981 C2000 1.368 . S
C1981 H2005 0.949 . S
H1982 C1986 0.949 . S
C1983 C1984 1.349 . S
C1983 C1985 1.327 . S
C1983 H2006 0.950 . S
C1984 C1983 1.349 . S
C1984 C1996 1.349 . S
C1985 C1983 1.327 . S
C1985 C2001 1.429 . S
C1985 H2007 0.950 . S
C1986 H1982 0.949 . S
C1986 C1994 1.574 . S
C1986 C2002 1.368 . S
H1987 C1995 0.950 . S
H1988 C1993 0.950 . S
H1989 C1994 0.949 . S
H1990 C1996 0.950 . S
H1991 C1997 0.950 . S
H1992 C1998 0.949 . S
C1993 H1988 0.950 . S
C1993 C1995 1.327 . S
C1993 C1999 1.429 . S
C1994 C1986 1.574 . S
C1994 H1989 0.949 . S
C1994 C2000 1.368 . S
C1995 C1979 1.349 . S
C1995 H1987 0.950 . S
C1995 C1993 1.327 . S
C1996 C1984 1.349 . S
C1996 H1990 0.950 . S
C1996 C1997 1.327 . S
C1997 H1991 0.950 . S
C1997 C1996 1.327 . S
C1997 C2001 1.429 . S
C1998 C1981 1.574 . S
C1998 H1992 0.949 . S
C1998 C2002 1.368 . S
C1999 C1980 1.429 . S
C1999 C1993 1.429 . S
C1999 C2000 1.523 . S
C2000 C1981 1.368 . S
C2000 C1994 1.368 . S
C2000 C1999 1.523 . S
C2001 C1985 1.429 . S
C2001 C1997 1.429 . S
C2001 C2002 1.523 . S
C2002 C1986 1.368 . S
C2002 C1998 1.368 . S
C2002 C2001 1.523 . S
H2003 C1978 0.950 . S
H2004 C1980 0.950 . S
H2005 C1981 0.949 . S
H2006 C1983 0.950 . S
H2007 C1985 0.950 . S
C2008 C2009 1.349 . S
C2008 C2010 1.327 . S
C2008 H2033 0.950 . S
C2009 C2008 1.349 . S
C2009 C2025 1.349 . S
C2010 C2008 1.327 . S
C2010 C2029 1.429 . S
C2010 H2034 0.950 . S
C2011 C2028 1.574 . S
C2011 C2030 1.368 . S
C2011 H2035 0.949 . S
H2012 C2016 0.949 . S
C2013 C2014 1.349 . S
C2013 C2015 1.327 . S
C2013 H2036 0.950 . S
C2014 C2013 1.349 . S
C2014 C2026 1.349 . S
C2015 C2013 1.327 . S
C2015 C2031 1.429 . S
C2015 H2037 0.950 . S
C2016 H2012 0.949 . S
C2016 C2024 1.574 . S
C2016 C2032 1.368 . S
H2017 C2025 0.950 . S
H2018 C2023 0.950 . S
H2019 C2024 0.949 . S
H2020 C2026 0.950 . S
H2021 C2027 0.950 . S
H2022 C2028 0.949 . S
C2023 H2018 0.950 . S
C2023 C2025 1.327 . S
C2023 C2029 1.429 . S
C2024 C2016 1.574 . S
C2024 H2019 0.949 . S
C2024 C2030 1.368 . S
C2025 C2009 1.349 . S
C2025 H2017 0.950 . S
C2025 C2023 1.327 . S
C2026 C2014 1.349 . S
C2026 H2020 0.950 . S
C2026 C2027 1.327 . S
C2027 H2021 0.950 . S
C2027 C2026 1.327 . S
C2027 C2031 1.429 . S
C2028 C2011 1.574 . S
C2028 H2022 0.949 . S
C2028 C2032 1.368 . S
C2029 C2010 1.429 . S
C2029 C2023 1.429 . S
C2029 C2030 1.523 . S
C2030 C2011 1.368 . S
C2030 C2024 1.368 . S
C2030 C2029 1.523 . S
C2031 C2015 1.429 . S
C2031 C2027 1.429 . S
C2031 C2032 1.523 . S
C2032 C2016 1.368 . S
C2032 C2028 1.368 . S
C2032 C2031 1.523 . S
H2033 C2008 0.950 . S
H2034 C2010 0.950 . S
H2035 C2011 0.949 . S
H2036 C2013 0.950 . S
H2037 C2015 0.950 . S
C2038 C2039 1.349 . S
C2038 C2040 1.327 . S
C2038 H2063 0.950 . S
C2039 C2038 1.349 . S
C2039 C2055 1.349 . S
C2040 C2038 1.327 . S
C2040 C2059 1.429 . S
C2040 H2064 0.950 . S
C2041 C2058 1.574 . S
C2041 C2060 1.368 . S
C2041 H2065 0.949 . S
H2042 C2046 0.949 . S
C2043 C2044 1.349 . S
C2043 C2045 1.327 . S
C2043 H2066 0.950 . S
C2044 C2043 1.349 . S
C2044 C2056 1.349 . S
C2045 C2043 1.327 . S
C2045 C2061 1.429 . S
C2045 H2067 0.950 . S
C2046 H2042 0.949 . S
C2046 C2054 1.574 . S
C2046 C2062 1.368 . S
H2047 C2055 0.950 . S
H2048 C2053 0.950 . S
H2049 C2054 0.949 . S
H2050 C2056 0.950 . S
H2051 C2057 0.950 . S
H2052 C2058 0.949 . S
C2053 H2048 0.950 . S
C2053 C2055 1.327 . S
C2053 C2059 1.429 . S
C2054 C2046 1.574 . S
C2054 H2049 0.949 . S
C2054 C2060 1.368 . S
C2055 C2039 1.349 . S
C2055 H2047 0.950 . S
C2055 C2053 1.327 . S
C2056 C2044 1.349 . S
C2056 H2050 0.950 . S
C2056 C2057 1.327 . S
C2057 H2051 0.950 . S
C2057 C2056 1.327 . S
C2057 C2061 1.429 . S
C2058 C2041 1.574 . S
C2058 H2052 0.949 . S
C2058 C2062 1.368 . S
C2059 C2040 1.429 . S
C2059 C2053 1.429 . S
C2059 C2060 1.523 . S
C2060 C2041 1.368 . S
C2060 C2054 1.368 . S
C2060 C2059 1.523 . S
C2061 C2045 1.429 . S
C2061 C2057 1.429 . S
C2061 C2062 1.523 . S
C2062 C2046 1.368 . S
C2062 C2058 1.368 . S
C2062 C2061 1.523 . S
H2063 C2038 0.950 . S
H2064 C2040 0.950 . S
H2065 C2041 0.949 . S
H2066 C2043 0.950 . S
H2067 C2045 0.950 . S
C2068 C2069 1.349 . S
C2068 C2070 1.327 . S
C2068 H2093 0.950 . S
C2069 C2068 1.349 . S
C2069 C2085 1.349 . S
C2070 C2068 1.327 . S
C2070 C2089 1.429 . S
C2070 H2094 0.950 . S
C2071 C2088 1.574 . S
C2071 C2090 1.368 . S
C2071 H2095 0.949 . S
H2072 C2076 0.949 . S
C2073 C2074 1.349 . S
C2073 C2075 1.327 . S
C2073 H2096 0.950 . S
C2074 C2073 1.349 . S
C2074 C2086 1.349 . S
C2075 C2073 1.327 . S
C2075 C2091 1.429 . S
C2075 H2097 0.950 . S
C2076 H2072 0.949 . S
C2076 C2084 1.574 . S
C2076 C2092 1.368 . S
H2077 C2085 0.950 . S
H2078 C2083 0.950 . S
H2079 C2084 0.949 . S
H2080 C2086 0.950 . S
H2081 C2087 0.950 . S
H2082 C2088 0.949 . S
C2083 H2078 0.950 . S
C2083 C2085 1.327 . S
C2083 C2089 1.429 . S
C2084 C2076 1.574 . S
C2084 H2079 0.949 . S
C2084 C2090 1.368 . S
C2085 C2069 1.349 . S
C2085 H2077 0.950 . S
C2085 C2083 1.327 . S
C2086 C2074 1.349 . S
C2086 H2080 0.950 . S
C2086 C2087 1.327 . S
C2087 H2081 0.950 . S
C2087 C2086 1.327 . S
C2087 C2091 1.429 . S
C2088 C2071 1.574 . S
C2088 H2082 0.949 . S
C2088 C2092 1.368 . S
C2089 C2070 1.429 . S
C2089 C2083 1.429 . S
C2089 C2090 1.523 . S
C2090 C2071 1.368 . S
C2090 C2084 1.368 . S
C2090 C2089 1.523 . S
C2091 C2075 1.429 . S
C2091 C2087 1.429 . S
C2091 C2092 1.523 . S
C2092 C2076 1.368 . S
C2092 C2088 1.368 . S
C2092 C2091 1.523 . S
H2093 C2068 0.950 . S
H2094 C2070 0.950 . S
H2095 C2071 0.949 . S
H2096 C2073 0.950 . S
H2097 C2075 0.950 . S
C2098 C2099 1.349 . S
C2098 C2100 1.327 . S
C2098 H2123 0.950 . S
C2099 C2098 1.349 . S
C2099 C2115 1.349 . S
C2100 C2098 1.327 . S
C2100 C2119 1.429 . S
C2100 H2124 0.950 . S
C2101 C2118 1.574 . S
C2101 C2120 1.368 . S
C2101 H2125 0.949 . S
H2102 C2106 0.949 . S
C2103 C2104 1.349 . S
C2103 C2105 1.327 . S
C2103 H2126 0.950 . S
C2104 C2103 1.349 . S
C2104 C2116 1.349 . S
C2105 C2103 1.327 . S
C2105 C2121 1.429 . S
C2105 H2127 0.950 . S
C2106 H2102 0.949 . S
C2106 C2114 1.574 . S
C2106 C2122 1.368 . S
H2107 C2115 0.950 . S
H2108 C2113 0.950 . S
H2109 C2114 0.949 . S
H2110 C2116 0.950 . S
H2111 C2117 0.950 . S
H2112 C2118 0.949 . S
C2113 H2108 0.950 . S
C2113 C2115 1.327 . S
C2113 C2119 1.429 . S
C2114 C2106 1.574 . S
C2114 H2109 0.949 . S
C2114 C2120 1.368 . S
C2115 C2099 1.349 . S
C2115 H2107 0.950 . S
C2115 C2113 1.327 . S
C2116 C2104 1.349 . S
C2116 H2110 0.950 . S
C2116 C2117 1.327 . S
C2117 H2111 0.950 . S
C2117 C2116 1.327 . S
C2117 C2121 1.429 . S
C2118 C2101 1.574 . S
C2118 H2112 0.949 . S
C2118 C2122 1.368 . S
C2119 C2100 1.429 . S
C2119 C2113 1.429 . S
C2119 C2120 1.523 . S
C2120 C2101 1.368 . S
C2120 C2114 1.368 . S
C2120 C2119 1.523 . S
C2121 C2105 1.429 . S
C2121 C2117 1.429 . S
C2121 C2122 1.523 . S
C2122 C2106 1.368 . S
C2122 C2118 1.368 . S
C2122 C2121 1.523 . S
H2123 C2098 0.950 . S
H2124 C2100 0.950 . S
H2125 C2101 0.949 . S
H2126 C2103 0.950 . S
H2127 C2105 0.950 . S
C2128 C2129 1.349 . S
C2128 C2130 1.327 . S
C2128 H2153 0.950 . S
C2129 C2128 1.349 . S
C2129 C2145 1.349 . S
C2130 C2128 1.327 . S
C2130 C2149 1.429 . S
C2130 H2154 0.950 . S
C2131 C2148 1.574 . S
C2131 C2150 1.368 . S
C2131 H2155 0.949 . S
H2132 C2136 0.949 . S
C2133 C2134 1.349 . S
C2133 C2135 1.327 . S
C2133 H2156 0.950 . S
C2134 C2133 1.349 . S
C2134 C2146 1.349 . S
C2135 C2133 1.327 . S
C2135 C2151 1.429 . S
C2135 H2157 0.950 . S
C2136 H2132 0.949 . S
C2136 C2144 1.574 . S
C2136 C2152 1.368 . S
H2137 C2145 0.950 . S
H2138 C2143 0.950 . S
H2139 C2144 0.949 . S
H2140 C2146 0.950 . S
H2141 C2147 0.950 . S
H2142 C2148 0.949 . S
C2143 H2138 0.950 . S
C2143 C2145 1.327 . S
C2143 C2149 1.429 . S
C2144 C2136 1.574 . S
C2144 H2139 0.949 . S
C2144 C2150 1.368 . S
C2145 C2129 1.349 . S
C2145 H2137 0.950 . S
C2145 C2143 1.327 . S
C2146 C2134 1.349 . S
C2146 H2140 0.950 . S
C2146 C2147 1.327 . S
C2147 H2141 0.950 . S
C2147 C2146 1.327 . S
C2147 C2151 1.429 . S
C2148 C2131 1.574 . S
C2148 H2142 0.949 . S
C2148 C2152 1.368 . S
C2149 C2130 1.429 . S
C2149 C2143 1.429 . S
C2149 C2150 1.523 . S
C2150 C2131 1.368 . S
C2150 C2144 1.368 . S
C2150 C2149 1.523 . S
C2151 C2135 1.429 . S
C2151 C2147 1.429 . S
C2151 C2152 1.523 . S
C2152 C2136 1.368 . S
C2152 C2148 1.368 . S
C2152 C2151 1.523 . S
H2153 C2128 0.950 . S
H2154 C2130 0.950 . S
H2155 C2131 0.949 . S
H2156 C2133 0.950 . S
H2157 C2135 0.950 . S
C2158 C2159 1.349 . S
C2158 C2160 1.327 . S
C2158 H2183 0.950 . S
C2159 C2158 1.349 . S
C2159 C2175 1.349 . S
C2160 C2158 1.327 . S
C2160 C2179 1.429 . S
C2160 H2184 0.950 . S
C2161 C2178 1.574 . S
C2161 C2180 1.368 . S
C2161 H2185 0.949 . S
H2162 C2166 0.949 . S
C2163 C2164 1.349 . S
C2163 C2165 1.327 . S
C2163 H2186 0.950 . S
C2164 C2163 1.349 . S
C2164 C2176 1.349 . S
C2165 C2163 1.327 . S
C2165 C2181 1.429 . S
C2165 H2187 0.950 . S
C2166 H2162 0.949 . S
C2166 C2174 1.574 . S
C2166 C2182 1.368 . S
H2167 C2175 0.950 . S
H2168 C2173 0.950 . S
H2169 C2174 0.949 . S
H2170 C2176 0.950 . S
H2171 C2177 0.950 . S
H2172 C2178 0.949 . S
C2173 H2168 0.950 . S
C2173 C2175 1.327 . S
C2173 C2179 1.429 . S
C2174 C2166 1.574 . S
C2174 H2169 0.949 . S
C2174 C2180 1.368 . S
C2175 C2159 1.349 . S
C2175 H2167 0.950 . S
C2175 C2173 1.327 . S
C2176 C2164 1.349 . S
C2176 H2170 0.950 . S
C2176 C2177 1.327 . S
C2177 H2171 0.950 . S
C2177 C2176 1.327 . S
C2177 C2181 1.429 . S
C2178 C2161 1.574 . S
C2178 H2172 0.949 . S
C2178 C2182 1.368 . S
C2179 C2160 1.429 . S
C2179 C2173 1.429 . S
C2179 C2180 1.523 . S
C2180 C2161 1.368 . S
C2180 C2174 1.368 . S
C2180 C2179 1.523 . S
C2181 C2165 1.429 . S
C2181 C2177 1.429 . S
C2181 C2182 1.523 . S
C2182 C2166 1.368 . S
C2182 C2178 1.368 . S
C2182 C2181 1.523 . S
H2183 C2158 0.950 . S
H2184 C2160 0.950 . S
H2185 C2161 0.949 . S
H2186 C2163 0.950 . S
H2187 C2165 0.950 . S
C2188 C2189 1.349 . S
C2188 C2190 1.327 . S
C2188 H2213 0.950 . S
C2189 C2188 1.349 . S
C2189 C2205 1.349 . S
C2190 C2188 1.327 . S
C2190 C2209 1.429 . S
C2190 H2214 0.950 . S
C2191 C2208 1.574 . S
C2191 C2210 1.368 . S
C2191 H2215 0.949 . S
H2192 C2196 0.949 . S
C2193 C2194 1.349 . S
C2193 C2195 1.327 . S
C2193 H2216 0.950 . S
C2194 C2193 1.349 . S
C2194 C2206 1.349 . S
C2195 C2193 1.327 . S
C2195 C2211 1.429 . S
C2195 H2217 0.950 . S
C2196 H2192 0.949 . S
C2196 C2204 1.574 . S
C2196 C2212 1.368 . S
H2197 C2205 0.950 . S
H2198 C2203 0.950 . S
H2199 C2204 0.949 . S
H2200 C2206 0.950 . S
H2201 C2207 0.950 . S
H2202 C2208 0.949 . S
C2203 H2198 0.950 . S
C2203 C2205 1.327 . S
C2203 C2209 1.429 . S
C2204 C2196 1.574 . S
C2204 H2199 0.949 . S
C2204 C2210 1.368 . S
C2205 C2189 1.349 . S
C2205 H2197 0.950 . S
C2205 C2203 1.327 . S
C2206 C2194 1.349 . S
C2206 H2200 0.950 . S
C2206 C2207 1.327 . S
C2207 H2201 0.950 . S
C2207 C2206 1.327 . S
C2207 C2211 1.429 . S
C2208 C2191 1.574 . S
C2208 H2202 0.949 . S
C2208 C2212 1.368 . S
C2209 C2190 1.429 . S
C2209 C2203 1.429 . S
C2209 C2210 1.523 . S
C2210 C2191 1.368 . S
C2210 C2204 1.368 . S
C2210 C2209 1.523 . S
C2211 C2195 1.429 . S
C2211 C2207 1.429 . S
C2211 C2212 1.523 . S
C2212 C2196 1.368 . S
C2212 C2208 1.368 . S
C2212 C2211 1.523 . S
H2213 C2188 0.950 . S
H2214 C2190 0.950 . S
H2215 C2191 0.949 . S
H2216 C2193 0.950 . S
H2217 C2195 0.950 . S
C2218 C2219 1.349 . S
C2218 C2220 1.327 . S
C2218 H2243 0.950 . S
C2219 C2218 1.349 . S
C2219 C2235 1.349 . S
C2220 C2218 1.327 . S
C2220 C2239 1.429 . S
C2220 H2244 0.950 . S
C2221 C2238 1.574 . S
C2221 C2240 1.368 . S
C2221 H2245 0.949 . S
H2222 C2226 0.949 . S
C2223 C2224 1.349 . S
C2223 C2225 1.327 . S
C2223 H2246 0.950 . S
C2224 C2223 1.349 . S
C2224 C2236 1.349 . S
C2225 C2223 1.327 . S
C2225 C2241 1.429 . S
C2225 H2247 0.950 . S
C2226 H2222 0.949 . S
C2226 C2234 1.574 . S
C2226 C2242 1.368 . S
H2227 C2235 0.950 . S
H2228 C2233 0.950 . S
H2229 C2234 0.949 . S
H2230 C2236 0.950 . S
H2231 C2237 0.950 . S
H2232 C2238 0.949 . S
C2233 H2228 0.950 . S
C2233 C2235 1.327 . S
C2233 C2239 1.429 . S
C2234 C2226 1.574 . S
C2234 H2229 0.949 . S
C2234 C2240 1.368 . S
C2235 C2219 1.349 . S
C2235 H2227 0.950 . S
C2235 C2233 1.327 . S
C2236 C2224 1.349 . S
C2236 H2230 0.950 . S
C2236 C2237 1.327 . S
C2237 H2231 0.950 . S
C2237 C2236 1.327 . S
C2237 C2241 1.429 . S
C2238 C2221 1.574 . S
C2238 H2232 0.949 . S
C2238 C2242 1.368 . S
C2239 C2220 1.429 . S
C2239 C2233 1.429 . S
C2239 C2240 1.523 . S
C2240 C2221 1.368 . S
C2240 C2234 1.368 . S
C2240 C2239 1.523 . S
C2241 C2225 1.429 . S
C2241 C2237 1.429 . S
C2241 C2242 1.523 . S
C2242 C2226 1.368 . S
C2242 C2238 1.368 . S
C2242 C2241 1.523 . S
H2243 C2218 0.950 . S
H2244 C2220 0.950 . S
H2245 C2221 0.949 . S
H2246 C2223 0.950 . S
H2247 C2225 0.950 . S
C2248 C2249 1.349 . S
C2248 C2250 1.327 . S
C2248 H2273 0.950 . S
C2249 C2248 1.349 . S
C2249 C2265 1.349 . S
C2250 C2248 1.327 . S
C2250 C2269 1.429 . S
C2250 H2274 0.950 . S
C2251 C2268 1.574 . S
C2251 C2270 1.368 . S
C2251 H2275 0.949 . S
H2252 C2256 0.949 . S
C2253 C2254 1.349 . S
C2253 C2255 1.327 . S
C2253 H2276 0.950 . S
C2254 C2253 1.349 . S
C2254 C2266 1.349 . S
C2255 C2253 1.327 . S
C2255 C2271 1.429 . S
C2255 H2277 0.950 . S
C2256 H2252 0.949 . S
C2256 C2264 1.574 . S
C2256 C2272 1.368 . S
H2257 C2265 0.950 . S
H2258 C2263 0.950 . S
H2259 C2264 0.949 . S
H2260 C2266 0.950 . S
H2261 C2267 0.950 . S
H2262 C2268 0.949 . S
C2263 H2258 0.950 . S
C2263 C2265 1.327 . S
C2263 C2269 1.429 . S
C2264 C2256 1.574 . S
C2264 H2259 0.949 . S
C2264 C2270 1.368 . S
C2265 C2249 1.349 . S
C2265 H2257 0.950 . S
C2265 C2263 1.327 . S
C2266 C2254 1.349 . S
C2266 H2260 0.950 . S
C2266 C2267 1.327 . S
C2267 H2261 0.950 . S
C2267 C2266 1.327 . S
C2267 C2271 1.429 . S
C2268 C2251 1.574 . S
C2268 H2262 0.949 . S
C2268 C2272 1.368 . S
C2269 C2250 1.429 . S
C2269 C2263 1.429 . S
C2269 C2270 1.523 . S
C2270 C2251 1.368 . S
C2270 C2264 1.368 . S
C2270 C2269 1.523 . S
C2271 C2255 1.429 . S
C2271 C2267 1.429 . S
C2271 C2272 1.523 . S
C2272 C2256 1.368 . S
C2272 C2268 1.368 . S
C2272 C2271 1.523 . S
H2273 C2248 0.950 . S
H2274 C2250 0.950 . S
H2275 C2251 0.949 . S
H2276 C2253 0.950 . S
H2277 C2255 0.950 . S
C2278 C2279 1.349 . S
C2278 C2280 1.327 . S
C2278 H2303 0.950 . S
C2279 C2278 1.349 . S
C2279 C2295 1.349 . S
C2280 C2278 1.327 . S
C2280 C2299 1.429 . S
C2280 H2304 0.950 . S
C2281 C2298 1.574 . S
C2281 C2300 1.368 . S
C2281 H2305 0.949 . S
H2282 C2286 0.949 . S
C2283 C2284 1.349 . S
C2283 C2285 1.327 . S
C2283 H2306 0.950 . S
C2284 C2283 1.349 . S
C2284 C2296 1.349 . S
C2285 C2283 1.327 . S
C2285 C2301 1.429 . S
C2285 H2307 0.950 . S
C2286 H2282 0.949 . S
C2286 C2294 1.574 . S
C2286 C2302 1.368 . S
H2287 C2295 0.950 . S
H2288 C2293 0.950 . S
H2289 C2294 0.949 . S
H2290 C2296 0.950 . S
H2291 C2297 0.950 . S
H2292 C2298 0.949 . S
C2293 H2288 0.950 . S
C2293 C2295 1.327 . S
C2293 C2299 1.429 . S
C2294 C2286 1.574 . S
C2294 H2289 0.949 . S
C2294 C2300 1.368 . S
C2295 C2279 1.349 . S
C2295 H2287 0.950 . S
C2295 C2293 1.327 . S
C2296 C2284 1.349 . S
C2296 H2290 0.950 . S
C2296 C2297 1.327 . S
C2297 H2291 0.950 . S
C2297 C2296 1.327 . S
C2297 C2301 1.429 . S
C2298 C2281 1.574 . S
C2298 H2292 0.949 . S
C2298 C2302 1.368 . S
C2299 C2280 1.429 . S
C2299 C2293 1.429 . S
C2299 C2300 1.523 . S
C2300 C2281 1.368 . S
C2300 C2294 1.368 . S
C2300 C2299 1.523 . S
C2301 C2285 1.429 . S
C2301 C2297 1.429 . S
C2301 C2302 1.523 . S
C2302 C2286 1.368 . S
C2302 C2298 1.368 . S
C2302 C2301 1.523 . S
H2303 C2278 0.950 . S
H2304 C2280 0.950 . S
H2305 C2281 0.949 . S
H2306 C2283 0.950 . S
H2307 C2285 0.950 . S
C2308 C2309 1.349 . S
C2308 C2310 1.327 . S
C2308 H2333 0.950 . S
C2309 C2308 1.349 . S
C2309 C2325 1.349 . S
C2310 C2308 1.327 . S
C2310 C2329 1.429 . S
C2310 H2334 0.950 . S
C2311 C2328 1.574 . S
C2311 C2330 1.368 . S
C2311 H2335 0.949 . S
H2312 C2316 0.949 . S
C2313 C2314 1.349 . S
C2313 C2315 1.327 . S
C2313 H2336 0.950 . S
C2314 C2313 1.349 . S
C2314 C2326 1.349 . S
C2315 C2313 1.327 . S
C2315 C2331 1.429 . S
C2315 H2337 0.950 . S
C2316 H2312 0.949 . S
C2316 C2324 1.574 . S
C2316 C2332 1.368 . S
H2317 C2325 0.950 . S
H2318 C2323 0.950 . S
H2319 C2324 0.949 . S
H2320 C2326 0.950 . S
H2321 C2327 0.950 . S
H2322 C2328 0.949 . S
C2323 H2318 0.950 . S
C2323 C2325 1.327 . S
C2323 C2329 1.429 . S
C2324 C2316 1.574 . S
C2324 H2319 0.949 . S
C2324 C2330 1.368 . S
C2325 C2309 1.349 . S
C2325 H2317 0.950 . S
C2325 C2323 1.327 . S
C2326 C2314 1.349 . S
C2326 H2320 0.950 . S
C2326 C2327 1.327 . S
C2327 H2321 0.950 . S
C2327 C2326 1.327 . S
C2327 C2331 1.429 . S
C2328 C2311 1.574 . S
C2328 H2322 0.949 . S
C2328 C2332 1.368 . S
C2329 C2310 1.429 . S
C2329 C2323 1.429 . S
C2329 C2330 1.523 . S
C2330 C2311 1.368 . S
C2330 C2324 1.368 . S
C2330 C2329 1.523 . S
C2331 C2315 1.429 . S
C2331 C2327 1.429 . S
C2331 C2332 1.523 . S
C2332 C2316 1.368 . S
C2332 C2328 1.368 . S
C2332 C2331 1.523 . S
H2333 C2308 0.950 . S
H2334 C2310 0.950 . S
H2335 C2311 0.949 . S
H2336 C2313 0.950 . S
H2337 C2315 0.950 . S
C2338 C2339 1.349 . S
C2338 C2340 1.327 . S
C2338 H2363 0.950 . S
C2339 C2338 1.349 . S
C2339 C2355 1.349 . S
C2340 C2338 1.327 . S
C2340 C2359 1.429 . S
C2340 H2364 0.950 . S
C2341 C2358 1.574 . S
C2341 C2360 1.368 . S
C2341 H2365 0.949 . S
H2342 C2346 0.949 . S
C2343 C2344 1.349 . S
C2343 C2345 1.327 . S
C2343 H2366 0.950 . S
C2344 C2343 1.349 . S
C2344 C2356 1.349 . S
C2345 C2343 1.327 . S
C2345 C2361 1.429 . S
C2345 H2367 0.950 . S
C2346 H2342 0.949 . S
C2346 C2354 1.574 . S
C2346 C2362 1.368 . S
H2347 C2355 0.950 . S
H2348 C2353 0.950 . S
H2349 C2354 0.949 . S
H2350 C2356 0.950 . S
H2351 C2357 0.950 . S
H2352 C2358 0.949 . S
C2353 H2348 0.950 . S
C2353 C2355 1.327 . S
C2353 C2359 1.429 . S
C2354 C2346 1.574 . S
C2354 H2349 0.949 . S
C2354 C2360 1.368 . S
C2355 C2339 1.349 . S
C2355 H2347 0.950 . S
C2355 C2353 1.327 . S
C2356 C2344 1.349 . S
C2356 H2350 0.950 . S
C2356 C2357 1.327 . S
C2357 H2351 0.950 . S
C2357 C2356 1.327 . S
C2357 C2361 1.429 . S
C2358 C2341 1.574 . S
C2358 H2352 0.949 . S
C2358 C2362 1.368 . S
C2359 C2340 1.429 . S
C2359 C2353 1.429 . S
C2359 C2360 1.523 . S
C2360 C2341 1.368 . S
C2360 C2354 1.368 . S
C2360 C2359 1.523 . S
C2361 C2345 1.429 . S
C2361 C2357 1.429 . S
C2361 C2362 1.523 . S
C2362 C2346 1.368 . S
C2362 C2358 1.368 . S
C2362 C2361 1.523 . S
H2363 C2338 0.950 . S
H2364 C2340 0.950 . S
H2365 C2341 0.949 . S
H2366 C2343 0.950 . S
H2367 C2345 0.950 . S
C1409 C29 0.536 . S
C1414 C1201 0.536 . S
C1439 C997 0.544 . S
C1444 C117 0.544 . S
C1469 C1085 0.535 . S
C1474 C225 0.535 . S
C1499 C900 0.543 . S
C1504 C293 0.543 . S
C1529 C401 0.536 . S
C1534 C1340 0.536 . S
C1559 C489 0.543 . S
C1564 C849 0.543 . S
C1589 C1281 0.535 . S
C1594 C548 0.535 . S
C1619 C673 0.544 . S
C1624 C761 0.544 . S
C1649 C409 1.724 . S
C1654 C20 1.724 . S
C1679 C137 1.729 . S
C1684 C469 1.729 . S
C1709 C233 1.725 . S
C1714 C557 1.725 . S
C1739 C636 1.729 . S
C1744 C313 1.729 . S
C1769 C724 1.729 . S
C1774 C937 1.729 . S
C1799 C812 1.729 . S
C1804 C1017 1.729 . S
C1829 C1289 1.725 . S
C1834 C1076 1.725 . S
C1859 C1193 1.725 . S
C1864 C1349 1.725 . S
C1889 C460 1.178 . S
C1894 C49 1.174 . S
C1919 C145 1.177 . S
C1924 C585 1.173 . S
C1949 C205 1.173 . S
C1954 C645 1.177 . S
C1979 C381 1.174 . S
C1984 C321 1.178 . S
C2009 C372 1.175 . S
C2014 C909 1.173 . S
C2039 C196 1.174 . S
C2044 C753 1.173 . S
C2069 C988 1.173 . S
C2074 C577 1.174 . S
C2099 C841 1.173 . S
C2104 C57 1.175 . S
C2129 C733 1.177 . S
C2134 C1105 1.174 . S
C2159 C929 1.177 . S
C2164 C1377 1.173 . S
C2189 C1164 1.173 . S
C2194 C821 1.177 . S
C2219 C1025 1.177 . S
C2224 C1261 1.174 . S
C2249 C1252 1.174 . S
C2254 C108 1.173 . S
C2279 C1173 1.174 . S
C2284 C497 1.173 . S
C2309 C1369 1.174 . S
C2314 C284 1.173 . S
C2339 C1113 1.174 . S
C2344 C665 1.173 . S
