# Generated by pormake.
# Topology smg, (6)-cn, num edge types: 1
# Building blocks:
#     Node 0, Type 0, BuildingBlock: OJICUG_clean_sbu_0, # of connection points: 6
#     Node 1, Type 0, BuildingBlock: OJICUG_clean_sbu_0, # of connection points: 6
#     Node 2, Type 0, BuildingBlock: OJICUG_clean_sbu_0, # of connection points: 6
#     Node 3, Type 0, BuildingBlock: OJICUG_clean_sbu_0, # of connection points: 6
#     Node 4, Type 0, BuildingBlock: OJICUG_clean_sbu_0, # of connection points: 6
#     Node 5, Type 0, BuildingBlock: OJICUG_clean_sbu_0, # of connection points: 6
#     Node 6, Type 0, BuildingBlock: OJICUG_clean_sbu_0, # of connection points: 6
#     Node 7, Type 0, BuildingBlock: OJICUG_clean_sbu_0, # of connection points: 6
#     Node 8, Type 0, BuildingBlock: OJICUG_clean_sbu_0, # of connection points: 6
#     Node 9, Type 0, BuildingBlock: OJICUG_clean_sbu_0, # of connection points: 6
#     Node 10, Type 0, BuildingBlock: OJICUG_clean_sbu_0, # of connection points: 6
#     Node 11, Type 0, BuildingBlock: OJICUG_clean_sbu_0, # of connection points: 6
#     Node 12, Type 0, BuildingBlock: OJICUG_clean_sbu_0, # of connection points: 6
#     Node 13, Type 0, BuildingBlock: OJICUG_clean_sbu_0, # of connection points: 6
#     Node 14, Type 0, BuildingBlock: OJICUG_clean_sbu_0, # of connection points: 6
#     Node 15, Type 0, BuildingBlock: OJICUG_clean_sbu_0, # of connection points: 6
#     Node 16, Type 0, BuildingBlock: OJICUG_clean_sbu_0, # of connection points: 6
#     Node 17, Type 0, BuildingBlock: OJICUG_clean_sbu_0, # of connection points: 6
#     Edge 18, Type (0, 0), BuildingBlock: XIVTED_clean_linker_0, # of connection points: 2
#     Edge 19, Type (0, 0), BuildingBlock: XIVTED_clean_linker_0, # of connection points: 2
#     Edge 20, Type (0, 0), BuildingBlock: XIVTED_clean_linker_0, # of connection points: 2
#     Edge 21, Type (0, 0), BuildingBlock: XIVTED_clean_linker_0, # of connection points: 2
#     Edge 22, Type (0, 0), BuildingBlock: XIVTED_clean_linker_0, # of connection points: 2
#     Edge 23, Type (0, 0), BuildingBlock: XIVTED_clean_linker_0, # of connection points: 2
#     Edge 24, Type (0, 0), BuildingBlock: XIVTED_clean_linker_0, # of connection points: 2
#     Edge 25, Type (0, 0), BuildingBlock: XIVTED_clean_linker_0, # of connection points: 2
#     Edge 26, Type (0, 0), BuildingBlock: XIVTED_clean_linker_0, # of connection points: 2
#     Edge 27, Type (0, 0), BuildingBlock: XIVTED_clean_linker_0, # of connection points: 2
#     Edge 28, Type (0, 0), BuildingBlock: XIVTED_clean_linker_0, # of connection points: 2
#     Edge 29, Type (0, 0), BuildingBlock: XIVTED_clean_linker_0, # of connection points: 2
#     Edge 30, Type (0, 0), BuildingBlock: XIVTED_clean_linker_0, # of connection points: 2
#     Edge 31, Type (0, 0), BuildingBlock: XIVTED_clean_linker_0, # of connection points: 2
#     Edge 32, Type (0, 0), BuildingBlock: XIVTED_clean_linker_0, # of connection points: 2
#     Edge 33, Type (0, 0), BuildingBlock: XIVTED_clean_linker_0, # of connection points: 2
#     Edge 34, Type (0, 0), BuildingBlock: XIVTED_clean_linker_0, # of connection points: 2
#     Edge 35, Type (0, 0), BuildingBlock: XIVTED_clean_linker_0, # of connection points: 2
#     Edge 36, Type (0, 0), BuildingBlock: XIVTED_clean_linker_0, # of connection points: 2
#     Edge 37, Type (0, 0), BuildingBlock: XIVTED_clean_linker_0, # of connection points: 2
#     Edge 38, Type (0, 0), BuildingBlock: XIVTED_clean_linker_0, # of connection points: 2
#     Edge 39, Type (0, 0), BuildingBlock: XIVTED_clean_linker_0, # of connection points: 2
#     Edge 40, Type (0, 0), BuildingBlock: XIVTED_clean_linker_0, # of connection points: 2
#     Edge 41, Type (0, 0), BuildingBlock: XIVTED_clean_linker_0, # of connection points: 2
#     Edge 42, Type (0, 0), BuildingBlock: XIVTED_clean_linker_0, # of connection points: 2
#     Edge 43, Type (0, 0), BuildingBlock: XIVTED_clean_linker_0, # of connection points: 2
#     Edge 44, Type (0, 0), BuildingBlock: XIVTED_clean_linker_0, # of connection points: 2
#     Edge 45, Type (0, 0), BuildingBlock: XIVTED_clean_linker_0, # of connection points: 2
#     Edge 46, Type (0, 0), BuildingBlock: XIVTED_clean_linker_0, # of connection points: 2
#     Edge 47, Type (0, 0), BuildingBlock: XIVTED_clean_linker_0, # of connection points: 2
#     Edge 48, Type (0, 0), BuildingBlock: XIVTED_clean_linker_0, # of connection points: 2
#     Edge 49, Type (0, 0), BuildingBlock: XIVTED_clean_linker_0, # of connection points: 2
#     Edge 50, Type (0, 0), BuildingBlock: XIVTED_clean_linker_0, # of connection points: 2
#     Edge 51, Type (0, 0), BuildingBlock: XIVTED_clean_linker_0, # of connection points: 2
#     Edge 52, Type (0, 0), BuildingBlock: XIVTED_clean_linker_0, # of connection points: 2
#     Edge 53, Type (0, 0), BuildingBlock: XIVTED_clean_linker_0, # of connection points: 2
#     Edge 54, Type (0, 0), BuildingBlock: XIVTED_clean_linker_0, # of connection points: 2
#     Edge 55, Type (0, 0), BuildingBlock: XIVTED_clean_linker_0, # of connection points: 2
#     Edge 56, Type (0, 0), BuildingBlock: XIVTED_clean_linker_0, # of connection points: 2
#     Edge 57, Type (0, 0), BuildingBlock: XIVTED_clean_linker_0, # of connection points: 2
#     Edge 58, Type (0, 0), BuildingBlock: XIVTED_clean_linker_0, # of connection points: 2
#     Edge 59, Type (0, 0), BuildingBlock: XIVTED_clean_linker_0, # of connection points: 2
#     Edge 60, Type (0, 0), BuildingBlock: XIVTED_clean_linker_0, # of connection points: 2
#     Edge 61, Type (0, 0), BuildingBlock: XIVTED_clean_linker_0, # of connection points: 2
#     Edge 62, Type (0, 0), BuildingBlock: XIVTED_clean_linker_0, # of connection points: 2
#     Edge 63, Type (0, 0), BuildingBlock: XIVTED_clean_linker_0, # of connection points: 2
#     Edge 64, Type (0, 0), BuildingBlock: XIVTED_clean_linker_0, # of connection points: 2
#     Edge 65, Type (0, 0), BuildingBlock: XIVTED_clean_linker_0, # of connection points: 2
#     Edge 66, Type (0, 0), BuildingBlock: XIVTED_clean_linker_0, # of connection points: 2
#     Edge 67, Type (0, 0), BuildingBlock: XIVTED_clean_linker_0, # of connection points: 2
#     Edge 68, Type (0, 0), BuildingBlock: XIVTED_clean_linker_0, # of connection points: 2
#     Edge 69, Type (0, 0), BuildingBlock: XIVTED_clean_linker_0, # of connection points: 2
#     Edge 70, Type (0, 0), BuildingBlock: XIVTED_clean_linker_0, # of connection points: 2
#     Edge 71, Type (0, 0), BuildingBlock: XIVTED_clean_linker_0, # of connection points: 2
# Relax obj value: 0.210
# Max RMSD: 0.238
# Mean RMSD: 0.238
data_MOF--net-smg--node1-OJICUG_clean_sbu_0--edge1-XIVTED_clean_linker_0
_symmetry_space_group_name_H-M    P1
_symmetry_Int_Tables_number       1
_symmetry_cell_setting            triclinic
loop_
_symmetry_equiv_pos_as_xyz
'x, y, z'
_cell_length_a     45.477168
_cell_length_b     45.45429
_cell_length_c     45.610436
_cell_angle_alpha  90.037225
_cell_angle_beta   89.933055
_cell_angle_gamma 119.92325
loop_
_atom_site_label
_atom_site_type_symbol
_atom_site_fract_x
_atom_site_fract_y
_atom_site_fract_z
_atom_type_partial_charge
Sc0 Sc 0.01995 0.64605 0.24715 0.0
Sc1 Sc 0.98333 0.56079 0.22815 0.0
Sc2 Sc 0.05537 0.59848 0.27279 0.0
O3 O 0.01966 0.60164 0.24916 0.0
C4 C 0.09905 0.67122 0.24834 0.0
C5 C 0.0064 0.62203 0.18234 0.0
C6 C 0.0485 0.5541 0.21666 0.0
C7 C 0.94059 0.59377 0.2466 0.0
C8 C 0.03142 0.63956 0.31343 0.0
C9 C 0.98827 0.53035 0.28936 0.0
O10 O 0.07426 0.67655 0.25021 0.0
O11 O 0.98847 0.59114 0.1903 0.0
O12 O 0.06278 0.56802 0.24068 0.0
O13 O 0.96589 0.62337 0.24377 0.0
O14 O 0.05154 0.62846 0.30754 0.0
O15 O 0.97447 0.52726 0.26448 0.0
O16 O 0.01521 0.64567 0.29392 0.0
O17 O 0.94317 0.56729 0.24583 0.0
O18 O 0.01731 0.55508 0.29587 0.0
O19 O 0.0235 0.64625 0.20018 0.0
O20 O 0.09585 0.64207 0.25157 0.0
O21 O 0.02031 0.55082 0.20853 0.0
Sc22 Sc 0.44961 0.39129 0.22173 0.0
Sc23 Sc 0.4002 0.41002 0.26868 0.0
Sc24 Sc 0.36848 0.32754 0.24172 0.0
O25 O 0.40606 0.37653 0.24396 0.0
C26 C 0.39126 0.34339 0.17663 0.0
C27 C 0.43572 0.45253 0.21091 0.0
C28 C 0.32521 0.36506 0.24682 0.0
C29 C 0.47727 0.4326 0.28106 0.0
C30 C 0.43398 0.31959 0.24188 0.0
C31 C 0.37339 0.34372 0.30883 0.0
O32 O 0.4223 0.36157 0.18397 0.0
O33 O 0.4198 0.44833 0.23493 0.0
O34 O 0.32798 0.33874 0.24483 0.0
O35 O 0.48186 0.42217 0.25663 0.0
O36 O 0.40244 0.30768 0.23801 0.0
O37 O 0.38103 0.37438 0.3042 0.0
O38 O 0.45536 0.351 0.2404 0.0
O39 O 0.44897 0.42937 0.28864 0.0
O40 O 0.36905 0.32263 0.28859 0.0
O41 O 0.44717 0.43335 0.20264 0.0
O42 O 0.36701 0.33126 0.19504 0.0
O43 O 0.35028 0.39419 0.25221 0.0
Sc44 Sc 0.58876 0.0623 0.23094 0.0
Sc45 Sc 0.56671 0.98436 0.26388 0.0
Sc46 Sc 0.64672 0.03382 0.23267 0.0
O47 O 0.60058 0.02677 0.24269 0.0
C48 C 0.62641 0.05524 0.17482 0.0
C49 C 0.52216 0.99366 0.21501 0.0
C50 C 0.6008 0.95351 0.225 0.0
C51 C 0.55493 0.04012 0.29422 0.0
C52 C 0.66372 0.10875 0.24881 0.0
C53 C 0.63739 0.00736 0.29668 0.0
O54 O 0.6136 0.0704 0.18884 0.0
O55 O 0.52516 0.97693 0.23603 0.0
O56 O 0.62929 0.98072 0.22598 0.0
O57 O 0.56283 0.0585 0.27137 0.0
O58 O 0.67189 0.08817 0.23774 0.0
O59 O 0.60565 0.9875 0.29291 0.0
O60 O 0.63319 0.10174 0.25162 0.0
O61 O 0.55645 0.01301 0.29555 0.0
O62 O 0.65653 0.02952 0.27804 0.0
O63 O 0.54369 0.02456 0.20982 0.0
O64 O 0.63734 0.03757 0.18731 0.0
O65 O 0.57371 0.95159 0.23449 0.0
Sc66 Sc 0.05025 0.38319 0.75098 0.0
Sc67 Sc 0.08522 0.46962 0.76983 0.0
Sc68 Sc 0.00137 0.42226 0.74329 0.0
O69 O 0.04572 0.42519 0.75478 0.0
C70 C 0.01143 0.37891 0.69312 0.0
C71 C 0.12471 0.44095 0.73322 0.0
C72 C 0.05689 0.49351 0.71661 0.0
C73 C 0.08311 0.41297 0.81283 0.0
C74 C 0.97353 0.35088 0.77298 0.0
C75 C 0.02196 0.47143 0.79863 0.0
O76 O 0.03434 0.37561 0.70601 0.0
O77 O 0.12254 0.46601 0.74279 0.0
O78 O 0.02763 0.46708 0.71686 0.0
O79 O 0.06649 0.38829 0.79541 0.0
O80 O 0.97112 0.37718 0.76864 0.0
O81 O 0.05324 0.48005 0.79831 0.0
O82 O -0.00043 0.34915 0.76578 0.0
O83 O 0.09318 0.44383 0.80622 0.0
O84 O 0.0009 0.45117 0.78004 0.0
O85 O 0.10128 0.41045 0.73592 0.0
O86 O -0.00382 0.39289 0.70491 0.0
O87 O 0.08011 0.49858 0.73486 0.0
Sc88 Sc 0.54994 0.59668 0.74376 0.0
Sc89 Sc 0.5998 0.55988 0.72523 0.0
Sc90 Sc 0.63752 0.64645 0.74016 0.0
O91 O 0.59552 0.60064 0.73636 0.0
C92 C 0.5856 0.66902 0.7174 0.0
C93 C 0.53327 0.54591 0.69023 0.0
C94 C 0.64836 0.61931 0.6807 0.0
C95 C 0.54204 0.52962 0.77405 0.0
C96 C 0.59713 0.64255 0.79633 0.0
C97 C 0.66783 0.59948 0.75949 0.0
O98 O 0.55996 0.63946 0.71649 0.0
O99 O 0.55894 0.54223 0.69404 0.0
O100 O 0.64922 0.6438 0.69508 0.0
O101 O 0.53463 0.55304 0.77132 0.0
O102 O 0.62524 0.6484 0.78515 0.0
O103 O 0.641 0.57136 0.75517 0.0
O104 O 0.56905 0.62815 0.78244 0.0
O105 O 0.56489 0.52836 0.75884 0.0
O106 O 0.67024 0.62758 0.75277 0.0
O107 O 0.52678 0.56472 0.70642 0.0
O108 O 0.61361 0.67499 0.7283 0.0
O109 O 0.63464 0.58887 0.69033 0.0
Sc110 Sc 0.41793 0.97558 0.74242 0.0
Sc111 Sc 0.43364 0.04634 0.70023 0.0
Sc112 Sc 0.35441 0.99546 0.73344 0.0
O113 O 0.4023 0.00616 0.72526 0.0
C114 C 0.34518 0.92201 0.72484 0.0
C115 C 0.45586 0.99357 0.68077 0.0
C116 C 0.3624 0.0101 0.6662 0.0
C117 C 0.47964 0.04941 0.75425 0.0
C118 C 0.37301 0.98067 0.79394 0.0
C119 C 0.39249 0.07618 0.73127 0.0
O120 O 0.3765 0.93176 0.72226 0.0
O121 O 0.45068 0.01786 0.67484 0.0
O122 O 0.34422 0.99294 0.68774 0.0
O123 O 0.46013 0.01883 0.76239 0.0
O124 O 0.36287 -0.00225 0.77948 0.0
O125 O 0.42076 0.08041 0.72237 0.0
O126 O 0.38944 0.96777 0.78233 0.0
O127 O 0.47508 0.06221 0.731 0.0
O128 O 0.36631 0.04726 0.73413 0.0
O129 O 0.44774 0.97812 0.70513 0.0
O130 O 0.33446 0.94139 0.73392 0.0
O131 O 0.39398 0.03194 0.66792 0.0
Sc132 Sc 0.69985 -0.00094 0.56764 0.0
Sc133 Sc 0.6528 0.91392 0.54732 0.0
Sc134 Sc 0.7267 0.94234 0.5894 0.0
O135 O 0.69312 0.95162 0.56819 0.0
C136 C 0.77654 0.01488 0.56584 0.0
C137 C 0.6812 0.97642 0.50246 0.0
C138 C 0.71183 0.8987 0.53105 0.0
C139 C 0.61914 0.95475 0.57051 0.0
C140 C 0.71421 0.99027 0.63326 0.0
C141 C 0.65635 0.87648 0.60496 0.0
O142 O 0.75406 0.02353 0.56719 0.0
O143 O 0.66053 0.94602 0.51021 0.0
O144 O 0.72894 0.91182 0.55422 0.0
O145 O 0.64669 0.98271 0.56825 0.0
O146 O 0.72772 0.9724 0.62653 0.0
O147 O 0.64136 0.87775 0.58194 0.0
O148 O 0.69994 -6e-05 0.61464 0.0
O149 O 0.61748 0.92625 0.56725 0.0
O150 O 0.68671 0.89871 0.61124 0.0
O151 O 0.70011 -0.00036 0.52044 0.0
O152 O 0.77017 0.98466 0.56954 0.0
O153 O 0.68428 0.89826 0.52538 0.0
Sc154 Sc 0.02528 0.71155 0.58388 0.0
Sc155 Sc 0.10549 0.74384 0.5535 0.0
Sc156 Sc 0.08205 0.79806 0.58747 0.0
O157 O 0.07111 0.75132 0.5749 0.0
C158 C 0.0068 0.76888 0.56993 0.0
C159 C 0.0356 0.69491 0.52067 0.0
C160 C 0.11399 0.80997 0.52335 0.0
C161 C 0.07311 0.6794 0.59197 0.0
C162 C 0.04324 0.75139 0.64243 0.0
C163 C 0.15026 0.79861 0.60148 0.0
O164 O -0.00076 0.73992 0.57997 0.0
O165 O 0.067 0.70607 0.52549 0.0
O166 O 0.10771 0.82075 0.54695 0.0
O167 O 0.0441 0.67682 0.58937 0.0
O168 O 0.05676 0.77987 0.62921 0.0
O169 O 0.14751 0.78004 0.57963 0.0
O170 O 0.03349 0.72327 0.62943 0.0
O171 O 0.10029 0.7056 0.58401 0.0
O172 O 0.12761 0.80596 0.60846 0.0
O173 O 0.01625 0.69902 0.53824 0.0
O174 O 0.03716 0.79279 0.56714 0.0
O175 O 0.11259 0.78139 0.52143 0.0
Sc176 Sc 0.28457 0.28907 0.57598 0.0
Sc177 Sc 0.26736 0.34955 0.54574 0.0
Sc178 Sc 0.20274 0.27568 0.57822 0.0
O179 O 0.25157 0.30496 0.56643 0.0
C180 C 0.21874 0.22042 0.55742 0.0
C181 C 0.30458 0.31496 0.51201 0.0
C182 C 0.19598 0.30458 0.51643 0.0
C183 C 0.33138 0.36925 0.58422 0.0
C184 C 0.24305 0.27206 0.63349 0.0
C185 C 0.2185 0.34948 0.59604 0.0
O186 O 0.24761 0.23601 0.56977 0.0
O187 O 0.29764 0.3387 0.51573 0.0
O188 O 0.18368 0.28618 0.53905 0.0
O189 O 0.32688 0.33935 0.58361 0.0
O190 O 0.21542 0.26097 0.61933 0.0
O191 O 0.23895 0.36403 0.5748 0.0
O192 O 0.27199 0.28671 0.62126 0.0
O193 O 0.30966 0.37645 0.57445 0.0
O194 O 0.20443 0.31775 0.60112 0.0
O195 O 0.29818 0.29185 0.53078 0.0
O196 O 0.19946 0.233 0.55519 0.0
O197 O 0.22679 0.32777 0.51446 0.0
Sc198 Sc 0.66905 0.75823 0.08485 0.0
Sc199 Sc 0.58513 0.72302 0.05902 0.0
Sc200 Sc 0.62044 0.67104 0.07282 0.0
O201 O 0.62479 0.71757 0.07223 0.0
C202 C 0.69824 0.7166 0.05411 0.0
C203 C 0.64808 0.78951 0.03184 0.0
C204 C 0.58973 0.67339 0.01166 0.0
C205 C 0.61372 0.77308 0.11367 0.0
C206 C 0.65657 0.70117 0.13244 0.0
C207 C 0.54493 0.65187 0.08986 0.0
O208 O 0.69999 0.74501 0.0584 0.0
O209 O 0.61692 0.76668 0.03229 0.0
O210 O 0.60731 0.66493 0.02752 0.0
O211 O 0.64298 0.77592 0.1126 0.0
O212 O 0.63369 0.67593 0.1184 0.0
O213 O 0.548 0.68063 0.08457 0.0
O214 O 0.67283 0.73104 0.12185 0.0
O215 O 0.59016 0.75525 0.09559 0.0
O216 O 0.56819 0.64497 0.08487 0.0
O217 O 0.66977 0.78976 0.04949 0.0
O218 O 0.6721 0.68865 0.06051 0.0
O219 O 0.57759 0.69169 0.02085 0.0
Sc220 Sc 0.24972 0.92926 0.09844 0.0
Sc221 Sc 0.2666 0.87699 0.05455 0.0
Sc222 Sc 0.32703 0.96093 0.06369 0.0
O223 O 0.28074 0.92226 0.0723 0.0
C224 C 0.28353 -0.00224 0.06565 0.0
C225 C 0.20128 0.8829 0.04715 0.0
C226 C 0.30485 0.92946 0.00301 0.0
C227 C 0.23598 0.85788 0.11893 0.0
C228 C 0.32271 0.97091 0.12918 0.0
C229 C 0.34049 0.90063 0.0711 0.0
O230 O 0.25599 0.97136 0.07263 0.0
O231 O 0.22274 0.8759 0.03593 0.0
O232 O 0.31423 0.95569 0.01869 0.0
O233 O 0.24201 0.88754 0.12559 0.0
O234 O 0.33973 0.96671 0.10919 0.0
O235 O 0.30978 0.87775 0.07443 0.0
O236 O 0.29156 0.96257 0.12655 0.0
O237 O 0.23879 0.84942 0.09293 0.0
O238 O 0.34849 0.92827 0.05805 0.0
O239 O 0.20548 0.89732 0.07201 0.0
O240 O 0.31207 -0.00096 0.06695 0.0
O241 O 0.29334 0.8998 0.0138 0.0
Sc242 Sc 0.05061 0.28405 0.11549 0.0
Sc243 Sc 0.11622 0.35576 0.08079 0.0
Sc244 Sc 0.03552 0.34429 0.08134 0.0
O245 O 0.06739 0.3277 0.09273 0.0
C246 C 0.98611 0.26404 0.07743 0.0
C247 C 0.09829 0.28051 0.06613 0.0
C248 C 0.07668 0.35891 0.02439 0.0
C249 C 0.12291 0.32929 0.14377 0.0
C250 C 0.01674 0.3234 0.14672 0.0
C251 C 0.10234 0.41338 0.09685 0.0
O252 O 0.0071 0.25611 0.08773 0.0
O253 O 0.1131 0.31204 0.06009 0.0
O254 O 0.04739 0.34383 0.03605 0.0
O255 O 0.09205 0.30632 0.14627 0.0
O256 O 0.02322 0.34504 0.12647 0.0
O257 O 0.12073 0.40019 0.10154 0.0
O258 O 0.02221 0.29847 0.14464 0.0
O259 O 0.135 0.34676 0.12068 0.0
O260 O 0.07351 0.39725 0.08456 0.0
O261 O 0.07753 0.26686 0.08732 0.0
O262 O 0.99221 0.29445 0.0763 0.0
O263 O 0.10388 0.36922 0.03902 0.0
Sc264 Sc 0.29431 0.28895 0.90763 0.0
Sc265 Sc 0.26359 0.20352 0.88994 0.0
Sc266 Sc 0.34813 0.25477 0.91299 0.0
O267 O 0.30204 0.24902 0.90348 0.0
C268 C 0.37083 0.32555 0.88398 0.0
C269 C 0.25766 0.25683 0.84817 0.0
C270 C 0.32682 0.20786 0.85602 0.0
C271 C 0.2229 0.22759 0.92882 0.0
C272 C 0.33593 0.29543 0.96442 0.0
C273 C 0.29814 0.18218 0.93997 0.0
O274 O 0.34415 0.32552 0.89226 0.0
O275 O 0.2486 0.2267 0.85631 0.0
O276 O 0.34837 0.22679 0.87506 0.0
O277 O 0.24328 0.25865 0.92335 0.0
O278 O 0.35278 0.28355 0.95184 0.0
O279 O 0.27428 0.17577 0.92212 0.0
O280 O 0.3115 0.29682 0.95225 0.0
O281 O 0.22805 0.20384 0.92087 0.0
O282 O 0.3261 0.21005 0.93998 0.0
O283 O 0.27674 0.28295 0.86339 0.0
O284 O 0.37501 0.30017 0.88733 0.0
O285 O 0.29539 0.19826 0.85784 0.0
Sc286 Sc 0.76 0.0767 0.90207 0.0
Sc287 Sc 0.72715 0.12897 0.92472 0.0
Sc288 Sc 0.67211 0.04565 0.90088 0.0
O289 O 0.71984 0.08383 0.90926 0.0
C290 C 0.71277 0.04231 0.84604 0.0
C291 C 0.7881 0.1526 0.87943 0.0
C292 C 0.66683 0.11026 0.88107 0.0
C293 C 0.78192 0.11965 0.96124 0.0
C294 C 0.70623 0.0039 0.92572 0.0
C295 C 0.66321 0.07432 0.96135 0.0
O296 O 0.74039 0.05333 0.8602 0.0
O297 O 0.76783 0.15779 0.89479 0.0
O298 O 0.6557 0.07866 0.8832 0.0
O299 O 0.78406 0.09971 0.94293 0.0
O300 O 0.68123 0.00671 0.91715 0.0
O301 O 0.68701 0.10439 0.95623 0.0
O302 O 0.73671 0.02797 0.92372 0.0
O303 O 0.76209 0.13154 0.95776 0.0
O304 O 0.65556 0.04947 0.94415 0.0
O305 O 0.7881 0.1246 0.87956 0.0
O306 O 0.68584 0.03952 0.8572 0.0
O307 O 0.69364 0.13253 0.8935 0.0
Sc308 Sc 0.9333 0.72693 0.89936 0.0
Sc309 Sc 0.90753 0.64604 0.92971 0.0
Sc310 Sc -0.00629 0.7035 0.9166 0.0
O311 O 0.94467 0.69205 0.91522 0.0
C312 C 0.99026 0.73228 0.85504 0.0
C313 C 0.87387 0.65761 0.87278 0.0
C314 C 0.95728 0.62458 0.90051 0.0
C315 C 0.88136 0.69528 0.95273 0.0
C316 C 0.0007 0.775 0.93284 0.0
C317 C 0.96638 0.66826 0.97757 0.0
O318 O 0.96807 0.73988 0.86308 0.0
O319 O 0.87499 0.63873 0.89281 0.0
O320 O 0.98292 0.65369 0.90451 0.0
O321 O 0.8974 0.71789 0.93349 0.0
O322 O 0.01219 0.75505 0.92882 0.0
O323 O 0.93634 0.64907 0.9682 0.0
O324 O 0.97086 0.76781 0.92589 0.0
O325 O 0.8832 0.66831 0.95478 0.0
O326 O 0.98994 0.69105 0.96209 0.0
O327 O 0.89411 0.68953 0.87169 0.0
O328 O 0.00058 0.71664 0.87131 0.0
O329 O 0.92725 0.61795 0.90644 0.0
Sc330 Sc 0.31832 0.00898 0.39688 0.0
Sc331 Sc 0.34673 0.08994 0.42601 0.0
Sc332 Sc 0.28629 0.05935 0.36969 0.0
O333 O 0.31711 0.0529 0.39759 0.0
C334 C 0.32144 0.02664 0.3307 0.0
C335 C 0.39545 0.06176 0.41231 0.0
C336 C 0.3545 0.13079 0.36717 0.0
C337 C 0.31421 0.02106 0.46361 0.0
C338 C 0.24031 0.9823 0.38381 0.0
C339 C 0.2781 0.09245 0.42829 0.0
O340 O 0.33231 0.01648 0.35178 0.0
O341 O 0.3913 0.08708 0.41584 0.0
O342 O 0.32708 0.10757 0.35604 0.0
O343 O 0.30493 0.00044 0.4422 0.0
O344 O 0.24315 0.01138 0.38132 0.0
O345 O 0.30537 0.09642 0.43943 0.0
O346 O 0.26573 0.97801 0.38561 0.0
O347 O 0.33176 0.05325 0.46092 0.0
O348 O 0.26855 0.08146 0.40241 0.0
O349 O 0.37101 0.03198 0.40802 0.0
O350 O 0.3013 0.03833 0.334 0.0
O351 O 0.364 0.12932 0.39309 0.0
Sc352 Sc 0.88527 0.27595 0.44087 0.0
Sc353 Sc 0.92831 0.25093 0.39216 0.0
Sc354 Sc 0.9672 0.33481 0.41728 0.0
O355 O 0.92691 0.28708 0.41679 0.0
C356 C 0.90521 0.34886 0.42104 0.0
C357 C 0.85249 0.23447 0.38247 0.0
C358 C 0.95753 0.31618 0.35047 0.0
C359 C 0.89483 0.21198 0.45152 0.0
C360 C 0.94752 0.32212 0.48339 0.0
C361 C 0.00469 0.29164 0.41115 0.0
O362 O 0.88207 0.31816 0.42354 0.0
O363 O 0.87925 0.2347 0.37435 0.0
O364 O 0.96486 0.3385 0.37031 0.0
O365 O 0.88541 0.23274 0.45981 0.0
O366 O 0.97072 0.33259 0.464 0.0
O367 O 0.97798 0.26353 0.40655 0.0
O368 O 0.916 0.30507 0.47737 0.0
O369 O 0.9087 0.21394 0.42683 0.0
O370 O 0.00466 0.31943 0.41318 0.0
O371 O 0.84994 0.24627 0.40696 0.0
O372 O 0.93657 0.3583 0.42181 0.0
O373 O 0.94752 0.28507 0.35571 0.0
Sc374 Sc 0.74909 0.6285 0.42032 0.0
Sc375 Sc 0.78238 0.70447 0.38067 0.0
Sc376 Sc 0.69829 0.66381 0.40461 0.0
O377 O 0.74337 0.66558 0.40178 0.0
C378 C 0.67528 0.58544 0.39748 0.0
C379 C 0.79023 0.64213 0.36057 0.0
C380 C 0.71827 0.68486 0.33937 0.0
C381 C 0.81789 0.69478 0.43686 0.0
C382 C 0.70664 0.6435 0.468 0.0
C383 C 0.74964 0.74338 0.40943 0.0
O384 O 0.70475 0.58909 0.39909 0.0
O385 O 0.79217 0.67049 0.35534 0.0
O386 O 0.69557 0.66597 0.35774 0.0
O387 O 0.79369 0.66528 0.44305 0.0
O388 O 0.6996 0.66175 0.45157 0.0
O389 O 0.77629 0.74203 0.40415 0.0
O390 O 0.72058 0.62701 0.45855 0.0
O391 O 0.81872 0.71054 0.4136 0.0
O392 O 0.72006 0.71785 0.40737 0.0
O393 O 0.77792 0.62569 0.38418 0.0
O394 O 0.66927 0.60944 0.40229 0.0
O395 O 0.74963 0.70251 0.34584 0.0
H396 H 0.13561 0.44064 0.14832 0.0
H397 H 0.04039 0.54517 0.15768 0.0
H398 H 0.0882 0.46037 0.07496 0.0
H399 H 0.09666 0.53667 0.23018 0.0
H400 H 0.06665 0.52261 0.12512 0.0
H401 H 0.13256 0.48517 0.1761 0.0
C402 C 0.12574 0.45524 0.13771 0.0
C403 C 0.11143 0.44648 0.10963 0.0
C404 C 0.07359 0.52591 0.14808 0.0
C405 C 0.10718 0.49658 0.14125 0.0
C406 C 0.05831 0.5385 0.16675 0.0
C407 C 0.06578 0.54203 0.19678 0.0
C408 C 0.09606 0.51611 0.15956 0.0
C409 C 0.08987 0.53388 0.2072 0.0
C410 C 0.12371 0.48042 0.15364 0.0
C411 C 0.09886 0.46598 0.09683 0.0
N412 N 0.10375 0.52069 0.18867 0.0
N413 N 0.09642 0.4897 0.11295 0.0
H414 H 0.42722 0.50692 0.22411 0.0
H415 H 0.51661 0.65449 0.14188 0.0
H416 H 0.45704 0.46339 0.15395 0.0
H417 H 0.50592 0.58795 0.07037 0.0
H418 H 0.47959 0.60498 0.1718 0.0
H419 H 0.44129 0.55599 0.19304 0.0
C420 C 0.43668 0.50765 0.20216 0.0
C421 C 0.44173 0.48133 0.19187 0.0
C422 C 0.484 0.60104 0.14921 0.0
C423 C 0.45828 0.5376 0.15632 0.0
C424 C 0.50505 0.62944 0.1321 0.0
C425 C 0.51424 0.62501 0.10383 0.0
C426 C 0.47236 0.56829 0.13769 0.0
C427 C 0.4994 0.5922 0.09221 0.0
C428 C 0.44492 0.53583 0.18448 0.0
C429 C 0.45346 0.48337 0.16311 0.0
N430 N 0.47969 0.56506 0.10936 0.0
N431 N 0.46151 0.51107 0.14648 0.0
H432 H 0.51966 0.01319 0.15926 0.0
H433 H 0.33436 0.87003 0.12407 0.0
H434 H 0.46341 0.93198 0.22098 0.0
H435 H 0.40756 0.9307 0.05793 0.0
H436 H 0.3806 0.8876 0.15946 0.0
H437 H 0.47757 0.98148 0.1221 0.0
C438 C 0.49822 0.98878 0.16513 0.0
C439 C 0.49485 0.9754 0.19342 0.0
C440 C 0.38659 0.89618 0.13696 0.0
C441 C 0.4466 0.93855 0.15057 0.0
C442 C 0.36028 0.88586 0.11667 0.0
C443 C 0.36724 0.89954 0.08825 0.0
C444 C 0.41972 0.92033 0.12857 0.0
C445 C 0.40115 0.92012 0.07982 0.0
C446 C 0.47441 0.97041 0.1437 0.0
C447 C 0.46681 0.94331 0.19948 0.0
N448 N 0.4261 0.9305 0.10009 0.0
N449 N 0.44346 0.92603 0.17825 0.0
H450 H 0.41749 0.01776 0.42584 0.0
H451 H 0.55514 0.09984 0.3029 0.0
H452 H 0.45115 0.11729 0.38982 0.0
H453 H 0.52689 0.00402 0.34462 0.0
H454 H 0.52775 0.11307 0.34258 0.0
H455 H 0.46806 0.01935 0.40612 0.0
C456 C 0.43606 0.04034 0.41438 0.0
C457 C 0.42984 0.06704 0.40869 0.0
C458 C 0.528 0.08938 0.34332 0.0
C459 C 0.48712 0.06867 0.38534 0.0
C460 C 0.54342 0.08167 0.32053 0.0
C461 C 0.54235 0.05026 0.31994 0.0
C462 C 0.511 0.06533 0.36548 0.0
C463 C 0.52765 0.02819 0.34379 0.0
C464 C 0.46491 0.04124 0.40307 0.0
C465 C 0.45486 0.09597 0.39428 0.0
N466 N 0.51199 0.03588 0.36531 0.0
N467 N 0.48205 0.09564 0.38234 0.0
H468 H 0.00462 0.53287 0.34724 0.0
H469 H 0.9229 0.40963 0.44598 0.0
H470 H 0.92635 0.47217 0.28458 0.0
H471 H 0.87154 0.34648 0.37154 0.0
H472 H 0.93395 0.45957 0.41764 0.0
H473 H 0.97222 0.49249 0.38514 0.0
C474 C 0.98044 0.51106 0.34147 0.0
C475 C 0.96857 0.50559 0.3125 0.0
C476 C 0.92005 0.43488 0.40742 0.0
C477 C 0.93011 0.45947 0.35643 0.0
C478 C 0.91292 0.40632 0.42392 0.0
C479 C 0.89699 0.37427 0.41071 0.0
C480 C 0.91246 0.43109 0.3773 0.0
C481 C 0.88425 0.37101 0.38227 0.0
C482 C 0.9614 0.48821 0.36341 0.0
C483 C 0.93677 0.47715 0.30652 0.0
N484 N 0.89329 0.39929 0.36606 0.0
N485 N 0.91887 0.45491 0.32823 0.0
H486 H 0.4759 0.45147 0.33772 0.0
H487 H 0.67646 0.54125 0.35735 0.0
H488 H 0.54344 0.44891 0.27231 0.0
H489 H 0.60939 0.55731 0.41358 0.0
H490 H 0.62681 0.4958 0.33229 0.0
H491 H 0.52353 0.47948 0.37132 0.0
C492 C 0.50075 0.45681 0.33037 0.0
C493 C 0.50581 0.44851 0.30189 0.0
C494 C 0.62303 0.50886 0.3505 0.0
C495 C 0.56045 0.4804 0.34042 0.0
C496 C 0.65128 0.53453 0.36491 0.0
C497 C 0.6468 0.55327 0.38711 0.0
C498 C 0.59039 0.50203 0.35862 0.0
C499 C 0.61379 0.54377 0.39614 0.0
C500 C 0.52791 0.47262 0.34967 0.0
C501 C 0.53846 0.45535 0.2939 0.0
N502 N 0.58682 0.51906 0.38162 0.0
N503 N 0.56467 0.47127 0.31299 0.0
H504 H 0.91117 0.55706 0.88983 0.0
H505 H 0.95626 0.45456 0.80982 0.0
H506 H 0.01806 0.63083 0.8848 0.0
H507 H 0.05935 0.52622 0.83465 0.0
H508 H 0.9367 0.48709 0.83742 0.0
H509 H 0.92328 0.51416 0.87038 0.0
C510 C 0.93711 0.56431 0.88442 0.0
C511 C 0.9635 0.59777 0.88865 0.0
C512 C 0.96349 0.49543 0.83762 0.0
C513 C 0.97769 0.54892 0.8658 0.0
C514 C 0.9748 0.47685 0.82158 0.0
C515 C 0.00964 0.48783 0.81957 0.0
C516 C 0.9872 0.52533 0.85188 0.0
C517 C 0.03231 0.5168 0.83543 0.0
C518 C 0.94407 0.53978 0.87312 0.0
C519 C -0.00327 0.60551 0.8817 0.0
N520 N 0.02072 0.53476 0.85056 0.0
N521 N 0.00278 0.58137 0.8706 0.0
H522 H 0.54376 0.47059 0.78262 0.0
H523 H 0.37465 0.38726 0.87892 0.0
H524 H 0.49241 0.52384 0.8115 0.0
H525 H 0.42936 0.33498 0.85765 0.0
H526 H 0.41915 0.43813 0.8556 0.0
H527 H 0.50426 0.4216 0.8119 0.0
C528 C 0.52447 0.47218 0.79533 0.0
C529 C 0.52121 0.50131 0.79429 0.0
C530 C 0.42156 0.41561 0.85611 0.0
C531 C 0.47582 0.44525 0.82761 0.0
C532 C 0.39603 0.38643 0.86935 0.0
C533 C 0.39811 0.35665 0.87013 0.0
C534 C 0.4494 0.41511 0.84332 0.0
C535 C 0.42663 0.35731 0.85751 0.0
C536 C 0.50188 0.44415 0.81199 0.0
C537 C 0.49576 0.50188 0.81132 0.0
N538 N 0.45109 0.38605 0.84446 0.0
N539 N 0.47392 0.47419 0.82705 0.0
H540 H 0.54324 0.09859 0.73731 0.0
H541 H 0.61274 0.11397 0.90014 0.0
H542 H 0.48238 0.04892 0.81357 0.0
H543 H 0.6731 0.12662 0.82333 0.0
H544 H 0.56801 0.11184 0.86883 0.0
H545 H 0.59328 0.12848 0.76917 0.0
C546 C 0.54036 0.09452 0.76079 0.0
C547 C 0.50898 0.07084 0.77291 0.0
C548 C 0.59147 0.11616 0.85887 0.0
C549 C 0.56539 0.10516 0.80915 0.0
C550 C 0.617 0.11767 0.87671 0.0
C551 C 0.64633 0.12054 0.86406 0.0
C552 C 0.59529 0.11697 0.82828 0.0
C553 C 0.65072 0.12461 0.83367 0.0
C554 C 0.56879 0.11152 0.77886 0.0
C555 C 0.50636 0.06647 0.80338 0.0
N556 N 0.62509 0.12211 0.81662 0.0
N557 N 0.53426 0.08331 0.82044 0.0
H558 H 0.60695 0.00709 0.56281 0.0
H559 H 0.45958 0.93542 0.68005 0.0
H560 H 0.56212 0.90564 0.59811 0.0
H561 H 0.49102 0.02813 0.63172 0.0
H562 H 0.49291 0.9215 0.64692 0.0
H563 H 0.56079 0.0127 0.58392 0.0
C564 C 0.58713 0.98582 0.57475 0.0
C565 C 0.58862 0.95606 0.57919 0.0
C566 C 0.4922 0.94468 0.64332 0.0
C567 C 0.5359 0.96245 0.60366 0.0
C568 C 0.47332 0.95277 0.66234 0.0
C569 C 0.47305 0.98333 0.65898 0.0
C570 C 0.51129 0.9675 0.621 0.0
C571 C 0.49081 0.00449 0.63531 0.0
C572 C 0.56071 0.98901 0.58672 0.0
C573 C 0.56202 0.92911 0.59438 0.0
N574 N 0.50965 -0.00359 0.61747 0.0
N575 N 0.537 0.93317 0.60655 0.0
H576 H 0.11288 0.55727 0.71147 0.0
H577 H 0.02365 0.61331 0.59178 0.0
H578 H 0.01637 0.48963 0.67095 0.0
H579 H 0.12567 0.68015 0.62223 0.0
H580 H 0.02318 0.56663 0.61804 0.0
H581 H 0.12072 0.60159 0.67669 0.0
C582 C 0.09348 0.55161 0.69516 0.0
C583 C 0.06365 0.51982 0.69446 0.0
C584 C 0.04585 0.59138 0.61885 0.0
C585 C 0.07253 0.57031 0.65472 0.0
C586 C 0.04607 0.61808 0.60391 0.0
C587 C 0.07457 0.65067 0.6052 0.0
C588 C 0.07415 0.59734 0.63563 0.0
C589 C 0.10314 0.65535 0.62083 0.0
C590 C 0.09802 0.57691 0.6753 0.0
C591 C 0.03953 0.51387 0.67269 0.0
N592 N 0.10205 0.62899 0.63586 0.0
N593 N 0.0444 0.53895 0.6539 0.0
H594 H 0.38816 0.3668 0.60031 0.0
H595 H 0.48013 0.55205 0.66945 0.0
H596 H 0.34778 0.43489 0.59552 0.0
H597 H 0.52776 0.49062 0.66117 0.0
H598 H 0.43297 0.51094 0.63968 0.0
H599 H 0.44049 0.41272 0.62089 0.0
C600 C 0.39027 0.39138 0.60356 0.0
C601 C 0.36338 0.39689 0.59639 0.0
C602 C 0.45393 0.50666 0.64406 0.0
C603 C 0.42332 0.4496 0.61984 0.0
C604 C 0.48091 0.53015 0.66105 0.0
C605 C 0.50774 0.52454 0.66817 0.0
C606 C 0.45359 0.47716 0.63439 0.0
C607 C 0.50753 0.49589 0.6564 0.0
C608 C 0.42026 0.41766 0.61515 0.0
C609 C 0.36774 0.4294 0.60083 0.0
N610 N 0.48061 0.473 0.64043 0.0
N611 N 0.39705 0.45445 0.61247 0.0
H612 H 0.70815 0.76823 0.39668 0.0
H613 H 0.76522 0.88673 0.53648 0.0
H614 H 0.79668 0.78952 0.44726 0.0
H615 H 0.68712 0.87582 0.47621 0.0
H616 H 0.78203 0.85699 0.50147 0.0
H617 H 0.70545 0.81396 0.42197 0.0
C618 C 0.72736 0.78303 0.41286 0.0
C619 C 0.75237 0.77499 0.42028 0.0
C620 C 0.7615 0.86152 0.49583 0.0
C621 C 0.74903 0.82673 0.44989 0.0
C622 C 0.75177 0.87833 0.51584 0.0
C623 C 0.7242 0.88308 0.50957 0.0
C624 C 0.74344 0.84936 0.46949 0.0
C625 C 0.70802 0.87209 0.48234 0.0
C626 C 0.72585 0.80912 0.42732 0.0
C627 C 0.77694 0.79502 0.44108 0.0
N628 N 0.71767 0.85546 0.46348 0.0
N629 N 0.77425 0.81964 0.4557 0.0
H630 H 0.21802 0.91593 0.37124 0.0
H631 H 0.11062 0.86798 0.5161 0.0
H632 H 0.18829 0.98161 0.41422 0.0
H633 H 0.13577 0.80041 0.46993 0.0
H634 H 0.12771 0.90477 0.47325 0.0
H635 H 0.17513 0.86806 0.39928 0.0
C636 C 0.20161 0.91999 0.38589 0.0
C637 C 0.20721 0.95281 0.39107 0.0
C638 C 0.12912 0.8817 0.47234 0.0
C639 C 0.15907 0.89859 0.42393 0.0
C640 C 0.11968 0.86081 0.49694 0.0
C641 C 0.12264 0.8315 0.49693 0.0
C642 C 0.14199 0.87348 0.44762 0.0
C643 C 0.1337 0.82309 0.47117 0.0
C644 C 0.17728 0.89272 0.40207 0.0
C645 C 0.18504 0.95673 0.4099 0.0
N646 N 0.14346 0.84427 0.44771 0.0
N647 N 0.16253 0.93006 0.42637 0.0
H648 H 0.06886 0.34652 0.4124 0.0
H649 H 0.13764 0.2468 0.50244 0.0
H650 H 0.01367 0.23747 0.4223 0.0
H651 H 0.20138 0.35089 0.47533 0.0
H652 H 0.09472 0.24118 0.46747 0.0
H653 H 0.12014 0.34746 0.42927 0.0
C654 C 0.06762 0.32271 0.41778 0.0
C655 C 0.03677 0.29194 0.41664 0.0
C656 C 0.1183 0.26511 0.46875 0.0
C657 C 0.09529 0.29289 0.43609 0.0
C658 C 0.14272 0.26837 0.48883 0.0
C659 C 0.17269 0.29959 0.49218 0.0
C660 C 0.12361 0.29347 0.45236 0.0
C661 C 0.17838 0.3265 0.47363 0.0
C662 C 0.09696 0.32326 0.42726 0.0
C663 C 0.03679 0.26183 0.42327 0.0
N664 N 0.15369 0.32304 0.45487 0.0
N665 N 0.06549 0.26313 0.43326 0.0
H666 H 0.14483 0.46854 0.67888 0.0
H667 H 0.20565 0.3376 0.6541 0.0
H668 H 0.16914 0.42124 0.74926 0.0
H669 H 0.21922 0.40967 0.58646 0.0
H670 H 0.19545 0.3715 0.68946 0.0
H671 H 0.17746 0.45369 0.64503 0.0
C672 C 0.15853 0.45659 0.68743 0.0
C673 C 0.15452 0.44606 0.71674 0.0
C674 C 0.20094 0.38021 0.66697 0.0
C675 C 0.19033 0.42782 0.67832 0.0
C676 C 0.20634 0.36059 0.64668 0.0
C677 C 0.21268 0.37056 0.61723 0.0
C678 C 0.2011 0.40976 0.65775 0.0
C679 C 0.21408 0.401 0.60896 0.0
C680 C 0.17676 0.44773 0.66809 0.0
C681 C 0.17185 0.42982 0.72675 0.0
N682 N 0.20771 0.41931 0.62906 0.0
N683 N 0.18845 0.42057 0.70745 0.0
H684 H 0.5523 0.67146 0.66792 0.0
H685 H 0.67034 0.87184 0.66235 0.0
H686 H 0.61676 0.73292 0.73851 0.0
H687 H 0.60096 0.81445 0.59273 0.0
H688 H 0.64397 0.82159 0.69329 0.0
H689 H 0.56197 0.72348 0.6429 0.0
C690 C 0.56773 0.69583 0.67844 0.0
C691 C 0.58432 0.69816 0.70494 0.0
C692 C 0.6342 0.81995 0.67135 0.0
C693 C 0.59571 0.75728 0.67665 0.0
C694 C 0.6494 0.84866 0.65363 0.0
C695 C 0.63822 0.84716 0.62477 0.0
C696 C 0.60798 0.78926 0.66002 0.0
C697 C 0.61056 0.81661 0.6148 0.0
C698 C 0.57341 0.72546 0.66415 0.0
C699 C 0.60409 0.73018 0.71775 0.0
N700 N 0.5967 0.78865 0.63226 0.0
N701 N 0.60957 0.75847 0.70332 0.0
H702 H 0.21174 0.80367 0.58899 0.0
H703 H 0.28326 0.87874 0.74734 0.0
H704 H 0.15568 0.81822 0.65851 0.0
H705 H 0.34825 0.89299 0.67345 0.0
H706 H 0.23438 0.83869 0.71857 0.0
H707 H 0.25998 0.82194 0.62248 0.0
C708 C 0.20956 0.81063 0.61127 0.0
C709 C 0.17992 0.81007 0.62085 0.0
C710 C 0.25941 0.84989 0.70882 0.0
C711 C 0.23437 0.82992 0.65923 0.0
C712 C 0.2873 0.87241 0.72535 0.0
C713 C 0.31954 0.88944 0.71248 0.0
C714 C 0.26385 0.84494 0.67914 0.0
C715 C 0.32364 0.88038 0.68402 0.0
C716 C 0.23696 0.82081 0.63035 0.0
C717 C 0.17827 0.81897 0.64999 0.0
N718 N 0.29585 0.8593 0.6679 0.0
N719 N 0.20514 0.82859 0.66809 0.0
H720 H 0.54548 0.89607 0.20369 0.0
H721 H 0.6566 0.81213 0.15731 0.0
H722 H 0.65332 0.94147 0.21817 0.0
H723 H 0.558 0.78116 0.12011 0.0
H724 H 0.65062 0.85209 0.18868 0.0
H725 H 0.5453 0.847 0.18105 0.0
C726 C 0.56903 0.8956 0.2023 0.0
C727 C 0.59955 0.92301 0.2125 0.0
C728 C 0.63018 0.83637 0.1738 0.0
C729 C 0.59939 0.86711 0.18708 0.0
C730 C 0.63352 0.81346 0.15589 0.0
C731 C 0.60803 0.79367 0.13559 0.0
C732 C 0.60118 0.83961 0.17147 0.0
C733 C 0.57848 0.7962 0.13517 0.0
C734 C 0.56889 0.86767 0.18938 0.0
C735 C 0.62931 0.92112 0.21023 0.0
N736 N 0.576 0.81909 0.15264 0.0
N737 N 0.62847 0.89368 0.19772 0.0
H738 H 0.12658 0.73731 0.26386 0.0
H739 H 0.22691 0.79373 0.11507 0.0
H740 H 0.14407 0.66987 0.20952 0.0
H741 H 0.22093 0.86324 0.17619 0.0
H742 H 0.20503 0.75007 0.1529 0.0
H743 H 0.17056 0.78565 0.23706 0.0
C744 C 0.1404 0.73284 0.24671 0.0
C745 C 0.13146 0.69973 0.23844 0.0
C746 C 0.20891 0.775 0.15816 0.0
C747 C 0.18088 0.75463 0.20706 0.0
C748 C 0.22114 0.7999 0.13648 0.0
C749 C 0.22496 0.83198 0.14223 0.0
C750 C 0.20012 0.78211 0.1857 0.0
C751 C 0.21779 0.83869 0.17057 0.0
C752 C 0.16542 0.76039 0.23134 0.0
C753 C 0.15021 0.69512 0.21636 0.0
N754 N 0.20526 0.8138 0.19111 0.0
N755 N 0.17355 0.72232 0.20086 0.0
H756 H 0.12145 0.28435 0.18467 0.0
H757 H 0.31008 0.41549 0.23656 0.0
H758 H 0.17841 0.38925 0.15783 0.0
H759 H 0.26384 0.30655 0.24381 0.0
H760 H 0.2557 0.40821 0.22019 0.0
H761 H 0.16727 0.29454 0.21885 0.0
C762 C 0.14325 0.30963 0.18645 0.0
C763 C 0.14664 0.33583 0.16805 0.0
C764 C 0.25741 0.38595 0.22576 0.0
C765 C 0.19871 0.34763 0.2068 0.0
C766 C 0.28842 0.39008 0.23512 0.0
C767 C 0.2917 0.36155 0.24089 0.0
C768 C 0.22955 0.3531 0.22223 0.0
C769 C 0.26265 0.32924 0.23895 0.0
C770 C 0.16938 0.31541 0.20581 0.0
C771 C 0.17525 0.36818 0.17121 0.0
N772 N 0.23287 0.32587 0.22944 0.0
N773 N 0.20036 0.37309 0.18997 0.0
H774 H 0.08716 0.27622 0.00819 0.0
H775 H 0.20033 0.19118 0.97966 0.0
H776 H 0.12142 0.23623 0.07749 0.0
H777 H 0.1776 0.2475 0.91653 0.0
H778 H 0.15776 0.19132 0.013 0.0
H779 H 0.10514 0.24884 0.97214 0.0
C780 C 0.0981 0.26115 0.01571 0.0
C781 C 0.10351 0.25882 0.04558 0.0
C782 C 0.16148 0.20281 -0.00847 0.0
C783 C 0.1251 0.22831 0.00463 0.0
C784 C 0.18553 0.20256 0.97253 0.0
C785 C 0.19246 0.21972 0.94567 0.0
C786 C 0.1444 0.22013 0.98323 0.0
C787 C 0.17308 0.23436 0.93729 0.0
C788 C 0.10836 0.24553 -0.00479 0.0
C789 C 0.11724 0.23872 0.05448 0.0
N790 N 0.15016 0.23452 0.95613 0.0
N791 N 0.12838 0.22476 0.03396 0.0
H792 H 0.71194 0.84461 0.02489 0.0
H793 H 0.64558 0.94462 0.92665 0.0
H794 H 0.60919 0.80133 -0.00707 0.0
H795 H 0.75016 0.98775 0.95348 0.0
H796 H 0.63305 0.89093 0.94855 0.0
H797 H 0.7277 0.89567 -0.00383 0.0
C798 C 0.69274 0.84562 0.01161 0.0
C799 C 0.65903 0.81867 0.01164 0.0
C800 C 0.6588 0.91203 0.94958 0.0
C801 C 0.67697 0.87726 0.97887 0.0
C802 C 0.66601 0.94286 0.93714 0.0
C803 C 0.69899 0.97096 0.9384 0.0
C804 C 0.68464 0.90911 0.96363 0.0
C805 C 0.72436 0.96685 0.95208 0.0
C806 C 0.70179 0.87486 -0.00475 0.0
C807 C 0.63539 0.82147 -0.00617 0.0
N808 N 0.71659 0.93653 0.96435 0.0
N809 N 0.64476 0.85035 0.97841 0.0
H810 H 0.19435 0.87799 0.98789 0.0
H811 H -0.0026 0.79136 0.98945 0.0
H812 H 0.13973 0.87222 0.06712 0.0
H813 H 0.0574 0.82775 0.9108 0.0
H814 H 0.04777 0.82845 0.01855 0.0
H815 H 0.1442 0.86517 0.95934 0.0
C816 C 0.17169 0.87391 -0.00072 0.0
C817 C 0.17094 0.87547 0.02993 0.0
C818 C 0.04967 0.8294 -0.00514 0.0
C819 C 0.1133 0.86092 -0.00265 0.0
C820 C 0.0208 0.80862 0.97827 0.0
C821 C 0.02355 0.80671 0.94784 0.0
C822 C 0.08124 0.84763 0.98071 0.0
C823 C 0.05447 0.82874 0.9343 0.0
C824 C 0.14316 0.86703 0.98295 0.0
C825 C 0.14118 0.87082 0.04351 0.0
N826 N 0.08238 0.84774 0.95087 0.0
N827 N 0.11327 0.86314 0.02714 0.0
H828 H 0.28928 0.16691 0.81067 0.0
H829 H 0.34491 0.09107 0.7133 0.0
H830 H 0.39143 0.22043 0.8448 0.0
H831 H 0.43189 0.12654 0.76984 0.0
H832 H 0.33107 0.13104 0.73612 0.0
H833 H 0.30771 0.14208 0.77321 0.0
C834 C 0.31579 0.17391 0.80998 0.0
C835 C 0.33868 0.19546 0.83123 0.0
C836 C 0.35305 0.13015 0.74388 0.0
C837 C 0.36061 0.16766 0.78746 0.0
C838 C 0.36126 0.10771 0.73042 0.0
C839 C 0.38924 0.10541 0.74009 0.0
C840 C 0.37227 0.14942 0.76798 0.0
C841 C 0.41 0.12763 0.76196 0.0
C842 C 0.32656 0.15996 0.78818 0.0
C843 C 0.37276 0.20366 0.82907 0.0
N844 N 0.40069 0.14832 0.77564 0.0
N845 N 0.38257 0.1894 0.80782 0.0
H846 H 0.79276 0.21416 0.86939 0.0
H847 H 0.96723 0.28848 0.78159 0.0
H848 H 0.84123 0.15572 0.84826 0.0
H849 H 0.91488 0.34463 0.79618 0.0
H850 H 0.92077 0.2394 0.80535 0.0
H851 H 0.83654 0.26179 0.84183 0.0
C852 C 0.81253 0.21125 0.85889 0.0
C853 C 0.81341 0.18089 0.86135 0.0
C854 C 0.91936 0.2624 0.80328 0.0
C855 C 0.8637 0.2355 0.82978 0.0
C856 C 0.94596 0.29054 0.78976 0.0
C857 C 0.94507 0.32086 0.78696 0.0
C858 C 0.89166 0.26453 0.81425 0.0
C859 C 0.9167 0.32184 0.79788 0.0
C860 C 0.83751 0.2385 0.84311 0.0
C861 C 0.83955 0.17862 0.84706 0.0
N862 N 0.89116 0.29408 0.81116 0.0
N863 N 0.86377 0.20565 0.83202 0.0
H864 H 0.87103 0.68315 0.81944 0.0
H865 H 0.67236 0.55573 0.79894 0.0
H866 H 0.81322 0.59784 0.87689 0.0
H867 H 0.7329 0.64608 0.74772 0.0
H868 H 0.72461 0.564 0.8227 0.0
H869 H 0.82192 0.66281 0.78748 0.0
C870 C 0.84806 0.65992 0.82518 0.0
C871 C 0.84606 0.6425 0.85112 0.0
C872 C 0.72635 0.5817 0.80599 0.0
C873 C 0.78933 0.61923 0.8148 0.0
C874 C 0.69662 0.57694 0.79244 0.0
C875 C 0.69835 0.60064 0.77183 0.0
C876 C 0.75774 0.61011 0.7985 0.0
C877 C 0.73034 0.62762 0.76401 0.0
C878 C 0.81995 0.64827 0.80692 0.0
C879 C 0.81578 0.6122 0.85719 0.0
N880 N 0.75863 0.63171 0.77747 0.0
N881 N 0.78835 0.60179 0.8394 0.0
H882 H 0.83313 0.64884 0.99005 0.0
H883 H 0.75697 0.76901 0.03088 0.0
H884 H 0.87603 0.75225 0.95971 0.0
H885 H 0.70677 0.66146 0.04916 0.0
H886 H 0.80462 0.76542 0.0098 0.0
H887 H 0.79076 0.65543 0.01769 0.0
C888 C 0.8339 0.67303 0.98943 0.0
C889 C 0.85796 0.69987 0.97223 0.0
C890 C 0.78316 0.74267 0.01852 0.0
C891 C 0.8094 0.70752 0.00366 0.0
C892 C 0.75597 0.7447 0.03054 0.0
C893 C 0.72767 0.71547 0.0416 0.0
C894 C 0.78209 0.71124 0.01773 0.0
C895 C 0.72785 0.68465 0.04067 0.0
C896 C 0.8096 0.67674 0.00511 0.0
C897 C 0.85772 0.73069 0.97236 0.0
N898 N 0.75457 0.68336 0.0289 0.0
N899 N 0.83369 0.73359 0.98766 0.0
H900 H 0.24123 0.12032 0.94849 0.0
H901 H 0.22764 0.0033 0.0523 0.0
H902 H 0.34281 0.18444 0.98148 0.0
H903 H 0.33724 0.05964 0.05109 0.0
H904 H 0.22708 0.04962 0.02588 0.0
H905 H 0.23361 0.07674 0.98331 0.0
C906 C 0.26185 0.12542 0.9633 0.0
C907 C 0.29283 0.15606 0.96186 0.0
C908 C 0.25125 0.05174 0.03111 0.0
C909 C 0.28387 0.10645 0.00263 0.0
C910 C 0.25158 0.02545 0.04658 0.0
C911 C 0.28253 0.02725 0.05336 0.0
C912 C 0.28211 0.07981 0.0222 0.0
C913 C 0.31276 0.05682 0.04584 0.0
C914 C 0.25727 0.10059 0.98356 0.0
C915 C 0.31856 0.16116 0.98166 0.0
N916 N 0.31177 0.08178 0.03043 0.0
N917 N 0.31359 0.13645 0.00103 0.0
H918 H 0.78574 0.16224 0.00543 0.0
H919 H 0.96869 0.1999 0.05848 0.0
H920 H 0.834 0.10728 0.97322 0.0
H921 H 0.9282 0.26704 0.07128 0.0
H922 H 0.91448 0.15797 0.0365 0.0
H923 H 0.83231 0.19204 0.03986 0.0
C924 C 0.80585 0.15604 0.00584 0.0
C925 C 0.8063 0.13276 0.98587 0.0
C926 C 0.91748 0.18178 0.04442 0.0
C927 C 0.85988 0.16709 0.02515 0.0
C928 C 0.94832 0.20566 0.05695 0.0
C929 C 0.9531 0.23719 0.06624 0.0
C930 C 0.89127 0.18946 0.04157 0.0
C931 C 0.92586 0.24331 0.06389 0.0
C932 C 0.8325 0.17317 0.02548 0.0
C933 C 0.83283 0.12542 0.98786 0.0
N934 N 0.89621 0.21975 0.05168 0.0
N935 N 0.85887 0.14293 0.00684 0.0
H936 H 0.26875 0.08151 0.48655 0.0
H937 H 0.18722 0.19931 0.50438 0.0
H938 H 0.23799 0.11972 0.41322 0.0
H939 H 0.23291 0.17142 0.57379 0.0
H940 H 0.18963 0.15711 0.47246 0.0
H941 H 0.23986 0.10072 0.51967 0.0
C942 C 0.25565 0.09383 0.47743 0.0
C943 C 0.25645 0.09992 0.44725 0.0
C944 C 0.19824 0.15959 0.49492 0.0
C945 C 0.22365 0.12242 0.4851 0.0
C946 C 0.1966 0.18342 0.51321 0.0
C947 C 0.21038 0.18906 0.54154 0.0
C948 C 0.21355 0.14135 0.50528 0.0
C949 C 0.22248 0.1681 0.55191 0.0
C950 C 0.23902 0.10466 0.49634 0.0
C951 C 0.2383 0.11505 0.43646 0.0
N952 N 0.22421 0.1455 0.53365 0.0
N953 N 0.22317 0.12652 0.4555 0.0
H954 H 0.88887 0.21122 0.51092 0.0
H955 H 0.81296 0.01376 0.51886 0.0
H956 H 0.89032 0.15097 0.43833 0.0
H957 H 0.81487 0.07635 0.59062 0.0
H958 H 0.85588 0.06475 0.49344 0.0
H959 H 0.87556 0.16414 0.54387 0.0
C960 C 0.88643 0.18803 0.50193 0.0
C961 C 0.88969 0.18458 0.47176 0.0
C962 C 0.84781 0.06724 0.5152 0.0
C963 C 0.87429 0.13041 0.50935 0.0
C964 C 0.82364 0.03812 0.5298 0.0
C965 C 0.81028 0.04126 0.55652 0.0
C966 C 0.85814 0.09932 0.52753 0.0
C967 C 0.82445 0.07319 0.56979 0.0
C968 C 0.87914 0.16122 0.5208 0.0
C969 C 0.88736 0.1544 0.46142 0.0
N970 N 0.84716 0.10114 0.55489 0.0
N971 N 0.87908 0.12814 0.48013 0.0
H972 H 0.94152 0.73917 0.58859 0.0
H973 H 0.87902 0.75319 0.42932 0.0
H974 H 0.0088 0.80422 0.52088 0.0
H975 H 0.81867 0.67729 0.49395 0.0
H976 H 0.92374 0.78191 0.46591 0.0
H977 H 0.89306 0.72864 0.5584 0.0
C978 C 0.946 0.75199 0.56766 0.0
C979 C 0.97903 0.77196 0.55683 0.0
C980 C 0.90056 0.75913 0.47206 0.0
C981 C 0.92395 0.7592 0.52186 0.0
C982 C 0.87513 0.74258 0.45118 0.0
C983 C 0.84533 0.7124 0.45844 0.0
C984 C 0.89601 0.74548 0.50038 0.0
C985 C 0.84148 0.70007 0.48718 0.0
C986 C 0.91839 0.74579 0.55034 0.0
C987 C 0.98362 0.7884 0.52983 0.0
N988 N 0.86661 0.71657 0.50703 0.0
N989 N 0.95627 0.78095 0.51283 0.0
H990 H 0.91703 0.63492 0.22829 0.0
H991 H 0.79246 0.583 0.36367 0.0
H992 H 0.89082 0.5475 0.28252 0.0
H993 H 0.81751 0.66837 0.30681 0.0
H994 H 0.81908 0.56277 0.32879 0.0
H995 H 0.87071 0.63966 0.25018 0.0
C996 C 0.90098 0.61629 0.24444 0.0
C997 C 0.90803 0.59122 0.25413 0.0
C998 C 0.81836 0.58569 0.32378 0.0
C999 C 0.85563 0.59696 0.27981 0.0
C1000 C 0.80332 0.59739 0.34376 0.0
C1001 C 0.80348 0.62792 0.33851 0.0
C1002 C 0.83381 0.60475 0.29847 0.0
C1003 C 0.81739 0.64509 0.3121 0.0
C1004 C 0.87458 0.61902 0.25697 0.0
C1005 C 0.88629 0.56737 0.27469 0.0
N1006 N 0.83237 0.63349 0.29327 0.0
N1007 N 0.86144 0.5713 0.28742 0.0
H1008 H 0.4208 0.25887 0.21992 0.0
H1009 H 0.40631 0.19421 0.38295 0.0
H1010 H 0.46612 0.32601 0.29349 0.0
H1011 H 0.35535 0.13187 0.30767 0.0
H1012 H 0.4415 0.24144 0.34976 0.0
H1013 H 0.41332 0.21138 0.25011 0.0
C1014 C 0.43052 0.26374 0.24214 0.0
C1015 C 0.44371 0.29608 0.25445 0.0
C1016 C 0.42289 0.21724 0.34059 0.0
C1017 C 0.43336 0.24185 0.28963 0.0
C1018 C 0.40267 0.19041 0.3595 0.0
C1019 C 0.37719 0.15943 0.34807 0.0
C1020 C 0.41768 0.21279 0.31015 0.0
C1021 C 0.37395 0.15562 0.31752 0.0
C1022 C 0.42583 0.23661 0.25955 0.0
C1023 C 0.45577 0.30126 0.28334 0.0
N1024 N 0.39371 0.18203 0.29971 0.0
N1025 N 0.4493 0.27414 0.30035 0.0
H1026 H 0.7874 0.22191 0.39187 0.0
H1027 H 0.72959 0.14555 0.2318 0.0
H1028 H 0.85357 0.2201 0.32468 0.0
H1029 H 0.65957 0.14032 0.29827 0.0
H1030 H 0.77672 0.18487 0.26247 0.0
H1031 H 0.74153 0.20159 0.35574 0.0
C1032 C 0.7923 0.21727 0.36959 0.0
C1033 C 0.82416 0.22203 0.36145 0.0
C1034 C 0.75107 0.17565 0.27022 0.0
C1035 C 0.7722 0.19951 0.32007 0.0
C1036 C 0.7242 0.15338 0.25261 0.0
C1037 C 0.69084 0.13931 0.26284 0.0
C1038 C 0.74446 0.18325 0.29848 0.0
C1039 C 0.68506 0.15051 0.28975 0.0
C1040 C 0.76621 0.20592 0.34896 0.0
C1041 C 0.82925 0.21612 0.33218 0.0
N1042 N 0.71174 0.17129 0.30706 0.0
N1043 N 0.80352 0.20501 0.31266 0.0
H1044 H -0.00388 0.70458 0.4811 0.0
H1045 H 0.04232 0.60858 0.35941 0.0
H1046 H 0.04611 0.64672 0.49707 0.0
H1047 H 0.00445 0.67626 0.33815 0.0
H1048 H 0.03227 0.61337 0.41082 0.0
H1049 H 0.98667 0.68486 0.4299 0.0
C1050 C 0.00413 0.68692 0.47396 0.0
C1051 C 0.02222 0.67743 0.49285 0.0
C1052 C 0.0261 0.62724 0.39502 0.0
C1053 C 0.01198 0.65531 0.43505 0.0
C1054 C 0.03215 0.62477 0.3656 0.0
C1055 C 0.02509 0.64284 0.34455 0.0
C1056 C 0.01329 0.64829 0.40367 0.0
C1057 C 0.0108 0.66242 0.35381 0.0
C1058 C -0.00098 0.67594 0.44483 0.0
C1059 C 0.03242 0.65483 0.48287 0.0
N1060 N 0.00577 0.66504 0.38287 0.0
N1061 N 0.02745 0.6448 0.45454 0.0
H1062 H 0.29336 0.26009 0.47891 0.0
H1063 H 0.41386 0.38161 0.35287 0.0
H1064 H 0.35318 0.36933 0.48311 0.0
H1065 H 0.32819 0.28279 0.33431 0.0
H1066 H 0.40441 0.36978 0.4051 0.0
H1067 H 0.31736 0.26184 0.43005 0.0
C1068 C 0.31198 0.2843 0.46971 0.0
C1069 C 0.32107 0.3147 0.48455 0.0
C1070 C 0.3879 0.35046 0.38965 0.0
C1071 C 0.34871 0.31676 0.42973 0.0
C1072 C 0.39322 0.35721 0.35992 0.0
C1073 C 0.37105 0.33347 0.33954 0.0
C1074 C 0.35988 0.32002 0.39906 0.0
C1075 C 0.34539 0.30187 0.34957 0.0
C1076 C 0.32553 0.28526 0.442 0.0
C1077 C 0.34516 0.34544 0.47201 0.0
N1078 N 0.33993 0.29625 0.37889 0.0
N1079 N 0.35807 0.34568 0.44524 0.0
H1080 H 0.70511 0.03847 0.47516 0.0
H1081 H 0.62166 0.94923 0.32483 0.0
H1082 H 0.66252 0.9314 0.45781 0.0
H1083 H 0.68572 0.05789 0.33097 0.0
H1084 H 0.63995 0.94333 0.37338 0.0
H1085 H 0.70215 0.0479 0.42239 0.0
C1086 C 0.6955 0.01708 0.46027 0.0
C1087 C 0.68318 0.98401 0.4709 0.0
C1088 C 0.65046 0.96854 0.36413 0.0
C1089 C 0.67997 0.99454 0.41106 0.0
C1090 C 0.6399 0.97185 0.33645 0.0
C1091 C 0.65203 0.00406 0.32422 0.0
C1092 C 0.67273 -0.00228 0.38005 0.0
C1093 C 0.67587 0.03261 0.33988 0.0
C1094 C 0.6939 0.02247 0.43024 0.0
C1095 C 0.67137 0.95721 0.45072 0.0
N1096 N 0.68507 0.02885 0.36739 0.0
N1097 N 0.66977 0.96305 0.42189 0.0
H1098 H 0.63219 0.01438 -0.00854 0.0
H1099 H 0.62044 0.10097 0.13993 0.0
H1100 H 0.6578 0.11936 -0.00269 0.0
H1101 H 0.63261 0.01264 0.13639 0.0
H1102 H 0.62037 0.10226 0.08631 0.0
H1103 H 0.61661 0.00721 0.04336 0.0
C1104 C 0.63376 0.03568 0.00347 0.0
C1105 C 0.64683 0.06766 0.99028 0.0
C1106 C 0.62292 0.08257 0.09737 0.0
C1107 C 0.6294 0.0597 0.04939 0.0
C1108 C 0.62309 0.08187 0.12789 0.0
C1109 C 0.62707 0.05697 0.14259 0.0
C1110 C 0.62629 0.05794 0.08154 0.0
C1111 C 0.63009 0.03265 0.12594 0.0
C1112 C 0.62515 0.03165 0.03309 0.0
C1113 C 0.64836 0.09442 0.00684 0.0
N1114 N 0.62967 0.03377 0.09625 0.0
N1115 N 0.64009 0.08994 0.03569 0.0
H1116 H 0.97508 0.57663 0.13823 0.0
H1117 H 0.01963 0.71266 0.01182 0.0
H1118 H 0.03524 0.68441 0.1551 0.0
H1119 H 0.93189 0.61187 0.0114 0.0
H1120 H 0.0332 0.70223 0.06138 0.0
H1121 H 0.96795 0.58877 0.08787 0.0
C1122 C 0.98697 0.60292 0.13136 0.0
C1123 C 0.00533 0.62961 0.15112 0.0
C1124 C 0.01101 0.68254 0.05032 0.0
C1125 C -0.00289 0.64351 0.0933 0.0
C1126 C 0.00328 0.68838 0.02213 0.0
C1127 C 0.97456 0.66305 0.00757 0.0
C1128 C 0.99016 0.65104 0.06364 0.0
C1129 C 0.95413 0.63215 0.02189 0.0
C1130 C 0.98277 0.60977 0.10257 0.0
C1131 C 0.02059 0.66309 0.14068 0.0
N1132 N 0.96245 0.62696 0.04911 0.0
N1133 N 0.01597 0.66916 0.11237 0.0
H1134 H 0.43541 0.35539 0.13161 0.0
H1135 H 0.29597 0.30207 0.00592 0.0
H1136 H 0.32927 0.31788 0.14991 0.0
H1137 H 0.39526 0.31361 -0.0074 0.0
H1138 H 0.3095 0.31546 0.05793 0.0
H1139 H 0.42246 0.34706 0.07953 0.0
C1140 C 0.40934 0.34533 0.1247 0.0
C1141 C 0.38334 0.33716 0.14517 0.0
C1142 C 0.3283 0.31517 0.04351 0.0
C1143 C 0.36844 0.32778 0.08551 0.0
C1144 C 0.32071 0.3078 0.01386 0.0
C1145 C 0.34447 0.30653 -0.00496 0.0
C1146 C 0.35993 0.32163 0.05414 0.0
C1147 C 0.37607 0.31398 0.00643 0.0
C1148 C 0.40199 0.34058 0.09494 0.0
C1149 C 0.35005 0.32425 0.13489 0.0
N1150 N 0.38285 0.32115 0.03526 0.0
N1151 N 0.34353 0.32 0.10568 0.0
H1152 H 0.04965 0.36915 0.65174 0.0
H1153 H 0.90593 0.31278 0.5297 0.0
H1154 H 0.95212 0.36153 0.6657 0.0
H1155 H 0.0107 0.34709 0.50801 0.0
H1156 H 0.9213 0.32319 0.58109 0.0
H1157 H 0.03433 0.35338 0.60018 0.0
C1158 C 0.02495 0.36382 0.64403 0.0
C1159 C 0.00217 0.36684 0.66284 0.0
C1160 C 0.94097 0.32851 0.56511 0.0
C1161 C 0.98469 0.34898 0.60445 0.0
C1162 C 0.93223 0.32256 0.53572 0.0
C1163 C 0.95712 0.32927 0.51448 0.0
C1164 C 0.97484 0.34116 0.57347 0.0
C1165 C 0.99077 0.34186 0.52367 0.0
C1166 C 0.01635 0.35508 0.61468 0.0
C1167 C 0.97058 0.35985 0.65184 0.0
N1168 N -0.0013 0.34741 0.55261 0.0
N1169 N 0.96281 0.35128 0.62336 0.0
H1170 H 0.66529 0.57986 0.64778 0.0
H1171 H 0.68687 0.68199 0.49991 0.0
H1172 H 0.66137 0.67285 0.64493 0.0
H1173 H 0.70988 0.60088 0.50822 0.0
H1174 H 0.67612 0.67868 0.55272 0.0
H1175 H 0.68139 0.58732 0.59628 0.0
C1176 C 0.66808 0.60201 0.63636 0.0
C1177 C 0.66179 0.62567 0.65059 0.0
C1178 C 0.68364 0.66173 0.54291 0.0
C1179 C 0.67989 0.63419 0.59154 0.0
C1180 C 0.68956 0.66345 0.51278 0.0
C1181 C 0.69916 0.64159 0.4996 0.0
C1182 C 0.68713 0.63785 0.55982 0.0
C1183 C 0.70252 0.61824 0.51737 0.0
C1184 C 0.67729 0.60627 0.60695 0.0
C1185 C 0.66603 0.65402 0.63478 0.0
N1186 N 0.6964 0.61694 0.54653 0.0
N1187 N 0.67451 0.65733 0.60594 0.0
H1188 H 0.30289 0.0068 0.65156 0.0
H1189 H 0.31783 0.96697 0.48426 0.0
H1190 H 0.38539 -0.00349 0.61639 0.0
H1191 H 0.29477 0.04459 0.51008 0.0
H1192 H 0.31924 0.95354 0.53618 0.0
H1193 H 0.27831 -0.00224 0.60199 0.0
C1194 C 0.31545 0.00219 0.6334 0.0
C1195 C 0.34641 0.0031 0.63747 0.0
C1196 C 0.31281 0.97273 0.53027 0.0
C1197 C 0.31806 0.99135 0.58203 0.0
C1198 C 0.31193 0.98033 0.50085 0.0
C1199 C 0.30689 0.00733 0.4933 0.0
C1200 C 0.30792 0.99188 0.5518 0.0
C1201 C 0.2994 0.02403 0.51535 0.0
C1202 C 0.30141 -0.00315 0.60544 0.0
C1203 C 0.36182 -0.0033 0.6137 0.0
N1204 N 0.30051 0.01627 0.54384 0.0
N1205 N 0.34746 0.99112 0.58681 0.0
H1206 H 0.37696 0.934 0.82882 0.0
H1207 H 0.30911 0.98171 0.97096 0.0
H1208 H 0.34554 0.00944 0.82914 0.0
H1209 H 0.3131 0.88904 0.96328 0.0
H1210 H 0.32434 0.99355 0.91941 0.0
H1211 H 0.35687 0.9192 0.87911 0.0
C1212 C 0.36603 0.94761 0.83952 0.0
C1213 C 0.36294 0.97304 0.82482 0.0
C1214 C 0.3216 0.97048 0.92892 0.0
C1215 C 0.33973 0.956 0.88213 0.0
C1216 C 0.313 0.96374 0.95831 0.0
C1217 C 0.31024 0.93454 0.97134 0.0
C1218 C 0.32786 0.94805 0.91259 0.0
C1219 C 0.31507 0.91187 0.95399 0.0
C1220 C 0.35431 0.93891 0.86811 0.0
C1221 C 0.34836 0.98965 0.83966 0.0
N1222 N 0.32408 0.91932 0.92544 0.0
N1223 N 0.33736 0.98087 0.86761 0.0
H1224 H 0.02942 0.3241 0.98224 0.0
H1225 H 0.12433 0.45625 0.85584 0.0
H1226 H 0.13052 0.40895 -0.00522 0.0
H1227 H 0.05189 0.35074 0.83884 0.0
H1228 H 0.12544 0.44204 0.9075 0.0
H1229 H 0.03463 0.33632 0.92971 0.0
C1230 C 0.05267 0.3453 0.97391 0.0
C1231 C 0.07954 0.36562 -0.00725 0.0
C1232 C 0.10969 0.42205 0.89225 0.0
C1233 C 0.08559 0.37976 0.93305 0.0
C1234 C 0.109 0.43012 0.86286 0.0
C1235 C 0.0878 0.40472 0.84306 0.0
C1236 C 0.08859 0.38858 0.9018 0.0
C1237 C 0.06856 0.37121 0.85329 0.0
C1238 C 0.05573 0.35209 0.94399 0.0
C1239 C 0.10926 0.39262 0.98088 0.0
N1240 N 0.06906 0.36421 0.88206 0.0
N1241 N 0.1114 0.39917 0.95172 0.0
H1242 H 0.54819 0.64944 0.82522 0.0
H1243 H 0.62095 0.64442 0.98196 0.0
H1244 H 0.64334 0.65168 0.83853 0.0
H1245 H 0.5522 0.68321 0.96964 0.0
H1246 H 0.62236 0.63778 0.92922 0.0
H1247 H 0.54389 0.65505 0.87818 0.0
C1248 C 0.5683 0.6514 0.83926 0.0
C1249 C 0.59615 0.65003 0.82754 0.0
C1250 C 0.60689 0.64764 0.9381 0.0
C1251 C 0.59099 0.65578 0.88781 0.0
C1252 C 0.60578 0.65117 0.96824 0.0
C1253 C 0.58663 0.6647 0.98027 0.0
C1254 C 0.5885 0.65738 0.91983 0.0
C1255 C 0.56749 0.67291 0.96129 0.0
C1256 C 0.56578 0.65456 0.86939 0.0
C1257 C 0.62152 0.65279 0.84663 0.0
N1258 N 0.56898 0.6692 0.93188 0.0
N1259 N 0.61816 0.6552 0.87592 0.0
H1260 H 0.67644 0.0146 0.65963 0.0
H1261 H 0.75922 0.03158 0.81715 0.0
H1262 H 0.7521 0.98604 0.67775 0.0
H1263 H 0.66608 0.03341 0.80396 0.0
H1264 H 0.75991 0.01958 0.76516 0.0
H1265 H 0.67559 0.02693 0.71169 0.0
C1266 C 0.69301 0.0111 0.6745 0.0
C1267 C 0.71436 -0.00077 0.66434 0.0
C1268 C 0.73925 0.02247 0.77367 0.0
C1269 C 0.71341 0.0132 0.72376 0.0
C1270 C 0.73885 0.02938 0.80334 0.0
C1271 C 0.71253 0.03348 0.81492 0.0
C1272 C 0.71333 0.01998 0.75538 0.0
C1273 C 0.68676 0.03025 0.79599 0.0
C1274 C 0.69234 0.01795 0.7042 0.0
C1275 C 0.73513 0.99499 0.68462 0.0
N1276 N 0.6879 0.02385 0.76706 0.0
N1277 N 0.73417 0.00204 0.71336 0.0
H1278 H 0.03708 0.70284 0.68078 0.0
H1279 H 0.98494 0.77516 0.81598 0.0
H1280 H 0.03949 0.79896 0.67644 0.0
H1281 H 0.02452 0.70672 0.82522 0.0
H1282 H 0.00173 0.78297 0.76434 0.0
H1283 H 0.02859 0.70175 0.73362 0.0
C1284 C 0.03578 0.72369 0.69098 0.0
C1285 C 0.03875 0.75092 0.67431 0.0
C1286 C 0.00704 0.76659 0.77786 0.0
C1287 C 0.02907 0.74982 0.73454 0.0
C1288 C -0.00262 0.76202 0.80723 0.0
C1289 C 0.00307 0.74003 0.82481 0.0
C1290 C 0.02194 0.74862 0.76605 0.0
C1291 C 0.01954 0.72384 0.81245 0.0
C1292 C 0.03122 0.72319 0.72112 0.0
C1293 C 0.0373 0.7775 0.6886 0.0
N1294 N 0.02802 0.72814 0.78369 0.0
N1295 N 0.03219 0.77614 0.71799 0.0
H1296 H 0.19011 0.2272 0.66784 0.0
H1297 H 0.28593 0.31543 0.81622 0.0
H1298 H 0.29217 0.31249 0.67204 0.0
H1299 H 0.20933 0.20929 0.81193 0.0
H1300 H 0.2782 0.32059 0.76396 0.0
H1301 H 0.18823 0.22568 0.72164 0.0
C1302 C 0.21206 0.24555 0.68008 0.0
C1303 C 0.24151 0.26972 0.6656 0.0
C1304 C 0.26283 0.2963 0.77462 0.0
C1305 C 0.23914 0.26864 0.72655 0.0
C1306 C 0.26702 0.29335 0.80445 0.0
C1307 C 0.24868 0.2617 0.8183 0.0
C1308 C 0.23996 0.26751 0.75868 0.0
C1309 C 0.22441 0.23402 0.80196 0.0
C1310 C 0.21091 0.24471 0.71063 0.0
C1311 C 0.26918 0.29308 0.68237 0.0
N1312 N 0.22095 0.23748 0.77283 0.0
N1313 N 0.26728 0.29201 0.71201 0.0
H1314 H 0.03327 0.38231 0.1756 0.0
H1315 H 0.91207 0.27994 0.30874 0.0
H1316 H 0.96805 0.27365 0.17992 0.0
H1317 H 0.0066 0.373 0.32214 0.0
H1318 H 0.92041 0.2874 0.25594 0.0
H1319 H 0.01272 0.38731 0.22433 0.0
C1320 C 0.01421 0.35965 0.18664 0.0
C1321 C 0.0025 0.32745 0.17419 0.0
C1322 C 0.93904 0.30652 0.27039 0.0
C1323 C 0.97868 0.33308 0.22883 0.0
C1324 C 0.93434 0.3023 0.30043 0.0
C1325 C 0.95923 0.32544 0.31954 0.0
C1326 C 0.96904 0.33382 0.25945 0.0
C1327 C 0.98717 0.35442 0.30789 0.0
C1328 C 0.00262 0.36254 0.21426 0.0
C1329 C 0.97797 0.29882 0.1891 0.0
N1330 N 0.99181 0.35749 0.27833 0.0
N1331 N 0.96689 0.30232 0.2157 0.0
H1332 H 0.75743 0.72926 0.29697 0.0
H1333 H 0.61971 0.64734 0.1696 0.0
H1334 H 0.657 0.64411 0.31226 0.0
H1335 H 0.71236 0.74411 0.16392 0.0
H1336 H 0.63396 0.64198 0.22047 0.0
H1337 H 0.74218 0.73134 0.24651 0.0
C1338 C 0.73208 0.71096 0.28974 0.0
C1339 C 0.70842 0.68649 0.30893 0.0
C1340 C 0.65106 0.66431 0.20796 0.0
C1341 C 0.69075 0.68879 0.25087 0.0
C1342 C 0.64307 0.66731 0.17896 0.0
C1343 C 0.66484 0.69626 0.16257 0.0
C1344 C 0.6811 0.6903 0.22032 0.0
C1345 C 0.69468 0.72145 0.17576 0.0
C1346 C 0.72336 0.71221 0.26085 0.0
C1347 C 0.67595 0.66351 0.29822 0.0
N1348 N 0.70189 0.71784 0.20381 0.0
N1349 N 0.66803 0.66517 0.26976 0.0
H1350 H 0.3266 0.06677 0.28468 0.0
H1351 H 0.35234 0.95078 0.17048 0.0
H1352 H 0.34476 0.98559 0.30964 0.0
H1353 H 0.3301 0.02983 0.14858 0.0
H1354 H 0.36555 0.97281 0.22087 0.0
H1355 H 0.34295 0.06298 0.23469 0.0
C1356 C 0.33399 0.04807 0.27956 0.0
C1357 C 0.33333 0.02573 0.30099 0.0
C1358 C 0.35872 0.98589 0.20481 0.0
C1359 C 0.35197 0.02111 0.24383 0.0
C1360 C 0.3514 0.97345 0.17617 0.0
C1361 C 0.33969 0.9884 0.156 0.0
C1362 C 0.35404 0.01319 0.21282 0.0
C1363 C 0.33864 0.01752 0.16396 0.0
C1364 C 0.34365 0.04611 0.25108 0.0
C1365 C 0.3443 0.00281 0.2935 0.0
N1366 N 0.34523 0.02873 0.19194 0.0
N1367 N 0.35255 0.00059 0.26529 0.0
loop_
_geom_bond_atom_site_label_1
_geom_bond_atom_site_label_2
_geom_bond_distance
_geom_bond_site_symmetry_2
_ccdc_geom_bond_type
Sc0 O3 2.025 . S
Sc0 O10 2.105 . S
Sc0 O13 2.105 1_455 S
Sc0 O16 2.105 . S
Sc0 O19 2.105 1_455 S
Sc1 O3 2.025 1_655 S
Sc1 O11 2.105 . S
Sc1 O15 2.105 . S
Sc1 O17 2.105 . S
Sc1 O21 2.105 . S
Sc2 O3 2.025 . S
Sc2 O12 2.105 . S
Sc2 O14 2.105 . S
Sc2 O18 2.105 . S
Sc2 O20 2.105 . S
O3 Sc0 2.025 . S
O3 Sc1 2.025 1_455 S
O3 Sc2 2.025 . S
C4 O10 1.268 . S
C4 O20 1.268 . S
C5 O11 1.268 . S
C5 O19 1.268 . S
C6 O12 1.268 . S
C6 O21 1.268 1_455 S
C7 O13 1.268 . S
C7 O17 1.268 . S
C8 O14 1.268 . S
C8 O16 1.268 . S
C9 O15 1.268 . S
C9 O18 1.268 1_655 S
O10 Sc0 2.105 . S
O10 C4 1.268 . S
O11 Sc1 2.105 . S
O11 C5 1.268 . S
O12 Sc2 2.105 . S
O12 C6 1.268 . S
O13 Sc0 2.105 1_655 S
O13 C7 1.268 . S
O14 Sc2 2.105 . S
O14 C8 1.268 . S
O15 Sc1 2.105 . S
O15 C9 1.268 . S
O16 Sc0 2.105 . S
O16 C8 1.268 . S
O17 Sc1 2.105 . S
O17 C7 1.268 . S
O18 Sc2 2.105 . S
O18 C9 1.268 1_455 S
O19 Sc0 2.105 1_655 S
O19 C5 1.268 . S
O20 Sc2 2.105 . S
O20 C4 1.268 . S
O21 Sc1 2.105 . S
O21 C6 1.268 1_655 S
Sc22 O25 2.025 . S
Sc22 O32 2.105 . S
Sc22 O35 2.105 . S
Sc22 O38 2.105 . S
Sc22 O41 2.105 . S
Sc23 O25 2.025 . S
Sc23 O33 2.105 . S
Sc23 O37 2.105 . S
Sc23 O39 2.105 . S
Sc23 O43 2.105 . S
Sc24 O25 2.025 . S
Sc24 O34 2.105 . S
Sc24 O36 2.105 . S
Sc24 O40 2.105 . S
Sc24 O42 2.105 . S
O25 Sc22 2.025 . S
O25 Sc23 2.025 . S
O25 Sc24 2.025 . S
C26 O32 1.268 . S
C26 O42 1.268 . S
C27 O33 1.268 . S
C27 O41 1.268 . S
C28 O34 1.268 . S
C28 O43 1.268 . S
C29 O35 1.268 . S
C29 O39 1.268 . S
C30 O36 1.268 . S
C30 O38 1.268 . S
C31 O37 1.268 . S
C31 O40 1.268 . S
O32 Sc22 2.105 . S
O32 C26 1.268 . S
O33 Sc23 2.105 . S
O33 C27 1.268 . S
O34 Sc24 2.105 . S
O34 C28 1.268 . S
O35 Sc22 2.105 . S
O35 C29 1.268 . S
O36 Sc24 2.105 . S
O36 C30 1.268 . S
O37 Sc23 2.105 . S
O37 C31 1.268 . S
O38 Sc22 2.105 . S
O38 C30 1.268 . S
O39 Sc23 2.105 . S
O39 C29 1.268 . S
O40 Sc24 2.105 . S
O40 C31 1.268 . S
O41 Sc22 2.105 . S
O41 C27 1.268 . S
O42 Sc24 2.105 . S
O42 C26 1.268 . S
O43 Sc23 2.105 . S
O43 C28 1.268 . S
Sc44 O47 2.025 . S
Sc44 O54 2.105 . S
Sc44 O57 2.105 . S
Sc44 O60 2.105 . S
Sc44 O63 2.105 . S
Sc45 O47 2.025 1_565 S
Sc45 O55 2.105 . S
Sc45 O59 2.105 . S
Sc45 O61 2.105 . S
Sc45 O65 2.105 . S
Sc46 O47 2.025 . S
Sc46 O56 2.105 1_545 S
Sc46 O58 2.105 . S
Sc46 O62 2.105 1_545 S
Sc46 O64 2.105 . S
O47 Sc44 2.025 . S
O47 Sc45 2.025 1_545 S
O47 Sc46 2.025 . S
C48 O54 1.268 . S
C48 O64 1.268 . S
C49 O55 1.268 . S
C49 O63 1.268 1_565 S
C50 O56 1.268 . S
C50 O65 1.268 . S
C51 O57 1.268 . S
C51 O61 1.268 1_545 S
C52 O58 1.268 . S
C52 O60 1.268 . S
C53 O59 1.268 . S
C53 O62 1.268 . S
O54 Sc44 2.105 . S
O54 C48 1.268 . S
O55 Sc45 2.105 . S
O55 C49 1.268 . S
O56 Sc46 2.105 1_565 S
O56 C50 1.268 . S
O57 Sc44 2.105 . S
O57 C51 1.268 . S
O58 Sc46 2.105 . S
O58 C52 1.268 . S
O59 Sc45 2.105 . S
O59 C53 1.268 . S
O60 Sc44 2.105 . S
O60 C52 1.268 . S
O61 Sc45 2.105 . S
O61 C51 1.268 1_565 S
O62 Sc46 2.105 1_565 S
O62 C53 1.268 . S
O63 Sc44 2.105 . S
O63 C49 1.268 1_545 S
O64 Sc46 2.105 . S
O64 C48 1.268 . S
O65 Sc45 2.105 . S
O65 C50 1.268 . S
Sc66 O69 2.025 . S
Sc66 O76 2.105 1_455 S
Sc66 O79 2.105 . S
Sc66 O82 2.105 1_455 S
Sc66 O85 2.105 . S
Sc67 O69 2.025 . S
Sc67 O77 2.105 . S
Sc67 O81 2.105 . S
Sc67 O83 2.105 . S
Sc67 O87 2.105 . S
Sc68 O69 2.025 1_655 S
Sc68 O78 2.105 . S
Sc68 O80 2.105 . S
Sc68 O84 2.105 . S
Sc68 O86 2.105 . S
O69 Sc66 2.025 . S
O69 Sc67 2.025 . S
O69 Sc68 2.025 1_455 S
C70 O76 1.268 . S
C70 O86 1.268 . S
C71 O77 1.268 . S
C71 O85 1.268 . S
C72 O78 1.268 1_455 S
C72 O87 1.268 . S
C73 O79 1.268 . S
C73 O83 1.268 . S
C74 O80 1.268 . S
C74 O82 1.268 . S
C75 O81 1.268 1_655 S
C75 O84 1.268 . S
O76 Sc66 2.105 1_655 S
O76 C70 1.268 . S
O77 Sc67 2.105 . S
O77 C71 1.268 . S
O78 Sc68 2.105 . S
O78 C72 1.268 1_655 S
O79 Sc66 2.105 . S
O79 C73 1.268 . S
O80 Sc68 2.105 . S
O80 C74 1.268 . S
O81 Sc67 2.105 . S
O81 C75 1.268 1_455 S
O82 Sc66 2.105 1_655 S
O82 C74 1.268 . S
O83 Sc67 2.105 . S
O83 C73 1.268 . S
O84 Sc68 2.105 . S
O84 C75 1.268 . S
O85 Sc66 2.105 . S
O85 C71 1.268 . S
O86 Sc68 2.105 . S
O86 C70 1.268 . S
O87 Sc67 2.105 . S
O87 C72 1.268 . S
Sc88 O91 2.025 . S
Sc88 O98 2.105 . S
Sc88 O101 2.105 . S
Sc88 O104 2.105 . S
Sc88 O107 2.105 . S
Sc89 O91 2.025 . S
Sc89 O99 2.105 . S
Sc89 O103 2.105 . S
Sc89 O105 2.105 . S
Sc89 O109 2.105 . S
Sc90 O91 2.025 . S
Sc90 O100 2.105 . S
Sc90 O102 2.105 . S
Sc90 O106 2.105 . S
Sc90 O108 2.105 . S
O91 Sc88 2.025 . S
O91 Sc89 2.025 . S
O91 Sc90 2.025 . S
C92 O98 1.268 . S
C92 O108 1.268 . S
C93 O99 1.268 . S
C93 O107 1.268 . S
C94 O100 1.268 . S
C94 O109 1.268 . S
C95 O101 1.268 . S
C95 O105 1.268 . S
C96 O102 1.268 . S
C96 O104 1.268 . S
C97 O103 1.268 . S
C97 O106 1.268 . S
O98 Sc88 2.105 . S
O98 C92 1.268 . S
O99 Sc89 2.105 . S
O99 C93 1.268 . S
O100 Sc90 2.105 . S
O100 C94 1.268 . S
O101 Sc88 2.105 . S
O101 C95 1.268 . S
O102 Sc90 2.105 . S
O102 C96 1.268 . S
O103 Sc89 2.105 . S
O103 C97 1.268 . S
O104 Sc88 2.105 . S
O104 C96 1.268 . S
O105 Sc89 2.105 . S
O105 C95 1.268 . S
O106 Sc90 2.105 . S
O106 C97 1.268 . S
O107 Sc88 2.105 . S
O107 C93 1.268 . S
O108 Sc90 2.105 . S
O108 C92 1.268 . S
O109 Sc89 2.105 . S
O109 C94 1.268 . S
Sc110 O113 2.025 1_565 S
Sc110 O120 2.105 . S
Sc110 O123 2.105 . S
Sc110 O126 2.105 . S
Sc110 O129 2.105 . S
Sc111 O113 2.025 . S
Sc111 O121 2.105 . S
Sc111 O125 2.105 . S
Sc111 O127 2.105 . S
Sc111 O131 2.105 . S
Sc112 O113 2.025 . S
Sc112 O122 2.105 . S
Sc112 O124 2.105 1_545 S
Sc112 O128 2.105 . S
Sc112 O130 2.105 1_545 S
O113 Sc110 2.025 1_545 S
O113 Sc111 2.025 . S
O113 Sc112 2.025 . S
C114 O120 1.268 . S
C114 O130 1.268 . S
C115 O121 1.268 1_565 S
C115 O129 1.268 . S
C116 O122 1.268 . S
C116 O131 1.268 . S
C117 O123 1.268 1_545 S
C117 O127 1.268 . S
C118 O124 1.268 . S
C118 O126 1.268 . S
C119 O125 1.268 . S
C119 O128 1.268 . S
O120 Sc110 2.105 . S
O120 C114 1.268 . S
O121 Sc111 2.105 . S
O121 C115 1.268 1_545 S
O122 Sc112 2.105 . S
O122 C116 1.268 . S
O123 Sc110 2.105 . S
O123 C117 1.268 1_565 S
O124 Sc112 2.105 1_565 S
O124 C118 1.268 . S
O125 Sc111 2.105 . S
O125 C119 1.268 . S
O126 Sc110 2.105 . S
O126 C118 1.268 . S
O127 Sc111 2.105 . S
O127 C117 1.268 . S
O128 Sc112 2.105 . S
O128 C119 1.268 . S
O129 Sc110 2.105 . S
O129 C115 1.268 . S
O130 Sc112 2.105 1_565 S
O130 C114 1.268 . S
O131 Sc111 2.105 . S
O131 C116 1.268 . S
Sc132 O135 2.025 . S
Sc132 O142 2.105 1_565 S
Sc132 O145 2.105 . S
Sc132 O148 2.105 . S
Sc132 O151 2.105 . S
Sc133 O135 2.025 . S
Sc133 O143 2.105 . S
Sc133 O147 2.105 . S
Sc133 O149 2.105 . S
Sc133 O153 2.105 . S
Sc134 O135 2.025 . S
Sc134 O144 2.105 . S
Sc134 O146 2.105 . S
Sc134 O150 2.105 . S
Sc134 O152 2.105 . S
O135 Sc132 2.025 . S
O135 Sc133 2.025 . S
O135 Sc134 2.025 . S
C136 O142 1.268 1_565 S
C136 O152 1.268 . S
C137 O143 1.268 . S
C137 O151 1.268 . S
C138 O144 1.268 . S
C138 O153 1.268 . S
C139 O145 1.268 . S
C139 O149 1.268 . S
C140 O146 1.268 . S
C140 O148 1.268 . S
C141 O147 1.268 . S
C141 O150 1.268 . S
O142 Sc132 2.105 1_545 S
O142 C136 1.268 1_545 S
O143 Sc133 2.105 . S
O143 C137 1.268 . S
O144 Sc134 2.105 . S
O144 C138 1.268 . S
O145 Sc132 2.105 . S
O145 C139 1.268 . S
O146 Sc134 2.105 . S
O146 C140 1.268 . S
O147 Sc133 2.105 . S
O147 C141 1.268 . S
O148 Sc132 2.105 . S
O148 C140 1.268 . S
O149 Sc133 2.105 . S
O149 C139 1.268 . S
O150 Sc134 2.105 . S
O150 C141 1.268 . S
O151 Sc132 2.105 . S
O151 C137 1.268 . S
O152 Sc134 2.105 . S
O152 C136 1.268 . S
O153 Sc133 2.105 . S
O153 C138 1.268 . S
Sc154 O157 2.025 . S
Sc154 O164 2.105 . S
Sc154 O167 2.105 . S
Sc154 O170 2.105 . S
Sc154 O173 2.105 . S
Sc155 O157 2.025 . S
Sc155 O165 2.105 . S
Sc155 O169 2.105 . S
Sc155 O171 2.105 . S
Sc155 O175 2.105 . S
Sc156 O157 2.025 . S
Sc156 O166 2.105 . S
Sc156 O168 2.105 . S
Sc156 O172 2.105 . S
Sc156 O174 2.105 . S
O157 Sc154 2.025 . S
O157 Sc155 2.025 . S
O157 Sc156 2.025 . S
C158 O164 1.268 . S
C158 O174 1.268 . S
C159 O165 1.268 . S
C159 O173 1.268 . S
C160 O166 1.268 . S
C160 O175 1.268 . S
C161 O167 1.268 . S
C161 O171 1.268 . S
C162 O168 1.268 . S
C162 O170 1.268 . S
C163 O169 1.268 . S
C163 O172 1.268 . S
O164 Sc154 2.105 . S
O164 C158 1.268 . S
O165 Sc155 2.105 . S
O165 C159 1.268 . S
O166 Sc156 2.105 . S
O166 C160 1.268 . S
O167 Sc154 2.105 . S
O167 C161 1.268 . S
O168 Sc156 2.105 . S
O168 C162 1.268 . S
O169 Sc155 2.105 . S
O169 C163 1.268 . S
O170 Sc154 2.105 . S
O170 C162 1.268 . S
O171 Sc155 2.105 . S
O171 C161 1.268 . S
O172 Sc156 2.105 . S
O172 C163 1.268 . S
O173 Sc154 2.105 . S
O173 C159 1.268 . S
O174 Sc156 2.105 . S
O174 C158 1.268 . S
O175 Sc155 2.105 . S
O175 C160 1.268 . S
Sc176 O179 2.025 . S
Sc176 O186 2.105 . S
Sc176 O189 2.105 . S
Sc176 O192 2.105 . S
Sc176 O195 2.105 . S
Sc177 O179 2.025 . S
Sc177 O187 2.105 . S
Sc177 O191 2.105 . S
Sc177 O193 2.105 . S
Sc177 O197 2.105 . S
Sc178 O179 2.025 . S
Sc178 O188 2.105 . S
Sc178 O190 2.105 . S
Sc178 O194 2.105 . S
Sc178 O196 2.105 . S
O179 Sc176 2.025 . S
O179 Sc177 2.025 . S
O179 Sc178 2.025 . S
C180 O186 1.268 . S
C180 O196 1.268 . S
C181 O187 1.268 . S
C181 O195 1.268 . S
C182 O188 1.268 . S
C182 O197 1.268 . S
C183 O189 1.268 . S
C183 O193 1.268 . S
C184 O190 1.268 . S
C184 O192 1.268 . S
C185 O191 1.268 . S
C185 O194 1.268 . S
O186 Sc176 2.105 . S
O186 C180 1.268 . S
O187 Sc177 2.105 . S
O187 C181 1.268 . S
O188 Sc178 2.105 . S
O188 C182 1.268 . S
O189 Sc176 2.105 . S
O189 C183 1.268 . S
O190 Sc178 2.105 . S
O190 C184 1.268 . S
O191 Sc177 2.105 . S
O191 C185 1.268 . S
O192 Sc176 2.105 . S
O192 C184 1.268 . S
O193 Sc177 2.105 . S
O193 C183 1.268 . S
O194 Sc178 2.105 . S
O194 C185 1.268 . S
O195 Sc176 2.105 . S
O195 C181 1.268 . S
O196 Sc178 2.105 . S
O196 C180 1.268 . S
O197 Sc177 2.105 . S
O197 C182 1.268 . S
Sc198 O201 2.025 . S
Sc198 O208 2.105 . S
Sc198 O211 2.105 . S
Sc198 O214 2.105 . S
Sc198 O217 2.105 . S
Sc199 O201 2.025 . S
Sc199 O209 2.105 . S
Sc199 O213 2.105 . S
Sc199 O215 2.105 . S
Sc199 O219 2.105 . S
Sc200 O201 2.025 . S
Sc200 O210 2.105 . S
Sc200 O212 2.105 . S
Sc200 O216 2.105 . S
Sc200 O218 2.105 . S
O201 Sc198 2.025 . S
O201 Sc199 2.025 . S
O201 Sc200 2.025 . S
C202 O208 1.268 . S
C202 O218 1.268 . S
C203 O209 1.268 . S
C203 O217 1.268 . S
C204 O210 1.268 . S
C204 O219 1.268 . S
C205 O211 1.268 . S
C205 O215 1.268 . S
C206 O212 1.268 . S
C206 O214 1.268 . S
C207 O213 1.268 . S
C207 O216 1.268 . S
O208 Sc198 2.105 . S
O208 C202 1.268 . S
O209 Sc199 2.105 . S
O209 C203 1.268 . S
O210 Sc200 2.105 . S
O210 C204 1.268 . S
O211 Sc198 2.105 . S
O211 C205 1.268 . S
O212 Sc200 2.105 . S
O212 C206 1.268 . S
O213 Sc199 2.105 . S
O213 C207 1.268 . S
O214 Sc198 2.105 . S
O214 C206 1.268 . S
O215 Sc199 2.105 . S
O215 C205 1.268 . S
O216 Sc200 2.105 . S
O216 C207 1.268 . S
O217 Sc198 2.105 . S
O217 C203 1.268 . S
O218 Sc200 2.105 . S
O218 C202 1.268 . S
O219 Sc199 2.105 . S
O219 C204 1.268 . S
Sc220 O223 2.025 . S
Sc220 O230 2.105 . S
Sc220 O233 2.105 . S
Sc220 O236 2.105 . S
Sc220 O239 2.105 . S
Sc221 O223 2.025 . S
Sc221 O231 2.105 . S
Sc221 O235 2.105 . S
Sc221 O237 2.105 . S
Sc221 O241 2.105 . S
Sc222 O223 2.025 . S
Sc222 O232 2.105 . S
Sc222 O234 2.105 . S
Sc222 O238 2.105 . S
Sc222 O240 2.105 1_565 S
O223 Sc220 2.025 . S
O223 Sc221 2.025 . S
O223 Sc222 2.025 . S
C224 O230 1.268 . S
C224 O240 1.268 1_565 S
C225 O231 1.268 . S
C225 O239 1.268 . S
C226 O232 1.268 . S
C226 O241 1.268 . S
C227 O233 1.268 . S
C227 O237 1.268 . S
C228 O234 1.268 . S
C228 O236 1.268 . S
C229 O235 1.268 . S
C229 O238 1.268 . S
O230 Sc220 2.105 . S
O230 C224 1.268 . S
O231 Sc221 2.105 . S
O231 C225 1.268 . S
O232 Sc222 2.105 . S
O232 C226 1.268 . S
O233 Sc220 2.105 . S
O233 C227 1.268 . S
O234 Sc222 2.105 . S
O234 C228 1.268 . S
O235 Sc221 2.105 . S
O235 C229 1.268 . S
O236 Sc220 2.105 . S
O236 C228 1.268 . S
O237 Sc221 2.105 . S
O237 C227 1.268 . S
O238 Sc222 2.105 . S
O238 C229 1.268 . S
O239 Sc220 2.105 . S
O239 C225 1.268 . S
O240 Sc222 2.105 1_545 S
O240 C224 1.268 1_545 S
O241 Sc221 2.105 . S
O241 C226 1.268 . S
Sc242 O245 2.025 . S
Sc242 O252 2.105 . S
Sc242 O255 2.105 . S
Sc242 O258 2.105 . S
Sc242 O261 2.105 . S
Sc243 O245 2.025 . S
Sc243 O253 2.105 . S
Sc243 O257 2.105 . S
Sc243 O259 2.105 . S
Sc243 O263 2.105 . S
Sc244 O245 2.025 . S
Sc244 O254 2.105 . S
Sc244 O256 2.105 . S
Sc244 O260 2.105 . S
Sc244 O262 2.105 . S
O245 Sc242 2.025 . S
O245 Sc243 2.025 . S
O245 Sc244 2.025 . S
C246 O252 1.268 . S
C246 O262 1.268 . S
C247 O253 1.268 . S
C247 O261 1.268 . S
C248 O254 1.268 . S
C248 O263 1.268 . S
C249 O255 1.268 . S
C249 O259 1.268 . S
C250 O256 1.268 . S
C250 O258 1.268 . S
C251 O257 1.268 . S
C251 O260 1.268 . S
O252 Sc242 2.105 . S
O252 C246 1.268 . S
O253 Sc243 2.105 . S
O253 C247 1.268 . S
O254 Sc244 2.105 . S
O254 C248 1.268 . S
O255 Sc242 2.105 . S
O255 C249 1.268 . S
O256 Sc244 2.105 . S
O256 C250 1.268 . S
O257 Sc243 2.105 . S
O257 C251 1.268 . S
O258 Sc242 2.105 . S
O258 C250 1.268 . S
O259 Sc243 2.105 . S
O259 C249 1.268 . S
O260 Sc244 2.105 . S
O260 C251 1.268 . S
O261 Sc242 2.105 . S
O261 C247 1.268 . S
O262 Sc244 2.105 . S
O262 C246 1.268 . S
O263 Sc243 2.105 . S
O263 C248 1.268 . S
Sc264 O267 2.025 . S
Sc264 O274 2.105 . S
Sc264 O277 2.105 . S
Sc264 O280 2.105 . S
Sc264 O283 2.105 . S
Sc265 O267 2.025 . S
Sc265 O275 2.105 . S
Sc265 O279 2.105 . S
Sc265 O281 2.105 . S
Sc265 O285 2.105 . S
Sc266 O267 2.025 . S
Sc266 O276 2.105 . S
Sc266 O278 2.105 . S
Sc266 O282 2.105 . S
Sc266 O284 2.105 . S
O267 Sc264 2.025 . S
O267 Sc265 2.025 . S
O267 Sc266 2.025 . S
C268 O274 1.268 . S
C268 O284 1.268 . S
C269 O275 1.268 . S
C269 O283 1.268 . S
C270 O276 1.268 . S
C270 O285 1.268 . S
C271 O277 1.268 . S
C271 O281 1.268 . S
C272 O278 1.268 . S
C272 O280 1.268 . S
C273 O279 1.268 . S
C273 O282 1.268 . S
O274 Sc264 2.105 . S
O274 C268 1.268 . S
O275 Sc265 2.105 . S
O275 C269 1.268 . S
O276 Sc266 2.105 . S
O276 C270 1.268 . S
O277 Sc264 2.105 . S
O277 C271 1.268 . S
O278 Sc266 2.105 . S
O278 C272 1.268 . S
O279 Sc265 2.105 . S
O279 C273 1.268 . S
O280 Sc264 2.105 . S
O280 C272 1.268 . S
O281 Sc265 2.105 . S
O281 C271 1.268 . S
O282 Sc266 2.105 . S
O282 C273 1.268 . S
O283 Sc264 2.105 . S
O283 C269 1.268 . S
O284 Sc266 2.105 . S
O284 C268 1.268 . S
O285 Sc265 2.105 . S
O285 C270 1.268 . S
Sc286 O289 2.025 . S
Sc286 O296 2.105 . S
Sc286 O299 2.105 . S
Sc286 O302 2.105 . S
Sc286 O305 2.105 . S
Sc287 O289 2.025 . S
Sc287 O297 2.105 . S
Sc287 O301 2.105 . S
Sc287 O303 2.105 . S
Sc287 O307 2.105 . S
Sc288 O289 2.025 . S
Sc288 O298 2.105 . S
Sc288 O300 2.105 . S
Sc288 O304 2.105 . S
Sc288 O306 2.105 . S
O289 Sc286 2.025 . S
O289 Sc287 2.025 . S
O289 Sc288 2.025 . S
C290 O296 1.268 . S
C290 O306 1.268 . S
C291 O297 1.268 . S
C291 O305 1.268 . S
C292 O298 1.268 . S
C292 O307 1.268 . S
C293 O299 1.268 . S
C293 O303 1.268 . S
C294 O300 1.268 . S
C294 O302 1.268 . S
C295 O301 1.268 . S
C295 O304 1.268 . S
O296 Sc286 2.105 . S
O296 C290 1.268 . S
O297 Sc287 2.105 . S
O297 C291 1.268 . S
O298 Sc288 2.105 . S
O298 C292 1.268 . S
O299 Sc286 2.105 . S
O299 C293 1.268 . S
O300 Sc288 2.105 . S
O300 C294 1.268 . S
O301 Sc287 2.105 . S
O301 C295 1.268 . S
O302 Sc286 2.105 . S
O302 C294 1.268 . S
O303 Sc287 2.105 . S
O303 C293 1.268 . S
O304 Sc288 2.105 . S
O304 C295 1.268 . S
O305 Sc286 2.105 . S
O305 C291 1.268 . S
O306 Sc288 2.105 . S
O306 C290 1.268 . S
O307 Sc287 2.105 . S
O307 C292 1.268 . S
Sc308 O311 2.025 . S
Sc308 O318 2.105 . S
Sc308 O321 2.105 . S
Sc308 O324 2.105 . S
Sc308 O327 2.105 . S
Sc309 O311 2.025 . S
Sc309 O319 2.105 . S
Sc309 O323 2.105 . S
Sc309 O325 2.105 . S
Sc309 O329 2.105 . S
Sc310 O311 2.025 . S
Sc310 O320 2.105 . S
Sc310 O322 2.105 1_655 S
Sc310 O326 2.105 . S
Sc310 O328 2.105 . S
O311 Sc308 2.025 . S
O311 Sc309 2.025 . S
O311 Sc310 2.025 . S
C312 O318 1.268 . S
C312 O328 1.268 . S
C313 O319 1.268 . S
C313 O327 1.268 . S
C314 O320 1.268 . S
C314 O329 1.268 . S
C315 O321 1.268 . S
C315 O325 1.268 . S
C316 O322 1.268 1_655 S
C316 O324 1.268 . S
C317 O323 1.268 . S
C317 O326 1.268 . S
O318 Sc308 2.105 . S
O318 C312 1.268 . S
O319 Sc309 2.105 . S
O319 C313 1.268 . S
O320 Sc310 2.105 . S
O320 C314 1.268 . S
O321 Sc308 2.105 . S
O321 C315 1.268 . S
O322 Sc310 2.105 1_455 S
O322 C316 1.268 1_455 S
O323 Sc309 2.105 . S
O323 C317 1.268 . S
O324 Sc308 2.105 . S
O324 C316 1.268 . S
O325 Sc309 2.105 . S
O325 C315 1.268 . S
O326 Sc310 2.105 . S
O326 C317 1.268 . S
O327 Sc308 2.105 . S
O327 C313 1.268 . S
O328 Sc310 2.105 . S
O328 C312 1.268 . S
O329 Sc309 2.105 . S
O329 C314 1.268 . S
Sc330 O333 2.025 . S
Sc330 O340 2.105 . S
Sc330 O343 2.105 . S
Sc330 O346 2.105 . S
Sc330 O349 2.105 . S
Sc331 O333 2.025 . S
Sc331 O341 2.105 . S
Sc331 O345 2.105 . S
Sc331 O347 2.105 . S
Sc331 O351 2.105 . S
Sc332 O333 2.025 . S
Sc332 O342 2.105 . S
Sc332 O344 2.105 . S
Sc332 O348 2.105 . S
Sc332 O350 2.105 . S
O333 Sc330 2.025 . S
O333 Sc331 2.025 . S
O333 Sc332 2.025 . S
C334 O340 1.268 . S
C334 O350 1.268 . S
C335 O341 1.268 . S
C335 O349 1.268 . S
C336 O342 1.268 . S
C336 O351 1.268 . S
C337 O343 1.268 . S
C337 O347 1.268 . S
C338 O344 1.268 . S
C338 O346 1.268 . S
C339 O345 1.268 . S
C339 O348 1.268 . S
O340 Sc330 2.105 . S
O340 C334 1.268 . S
O341 Sc331 2.105 . S
O341 C335 1.268 . S
O342 Sc332 2.105 . S
O342 C336 1.268 . S
O343 Sc330 2.105 . S
O343 C337 1.268 . S
O344 Sc332 2.105 . S
O344 C338 1.268 . S
O345 Sc331 2.105 . S
O345 C339 1.268 . S
O346 Sc330 2.105 . S
O346 C338 1.268 . S
O347 Sc331 2.105 . S
O347 C337 1.268 . S
O348 Sc332 2.105 . S
O348 C339 1.268 . S
O349 Sc330 2.105 . S
O349 C335 1.268 . S
O350 Sc332 2.105 . S
O350 C334 1.268 . S
O351 Sc331 2.105 . S
O351 C336 1.268 . S
Sc352 O355 2.025 . S
Sc352 O362 2.105 . S
Sc352 O365 2.105 . S
Sc352 O368 2.105 . S
Sc352 O371 2.105 . S
Sc353 O355 2.025 . S
Sc353 O363 2.105 . S
Sc353 O367 2.105 . S
Sc353 O369 2.105 . S
Sc353 O373 2.105 . S
Sc354 O355 2.025 . S
Sc354 O364 2.105 . S
Sc354 O366 2.105 . S
Sc354 O370 2.105 1_655 S
Sc354 O372 2.105 . S
O355 Sc352 2.025 . S
O355 Sc353 2.025 . S
O355 Sc354 2.025 . S
C356 O362 1.268 . S
C356 O372 1.268 . S
C357 O363 1.268 . S
C357 O371 1.268 . S
C358 O364 1.268 . S
C358 O373 1.268 . S
C359 O365 1.268 . S
C359 O369 1.268 . S
C360 O366 1.268 . S
C360 O368 1.268 . S
C361 O367 1.268 . S
C361 O370 1.268 1_655 S
O362 Sc352 2.105 . S
O362 C356 1.268 . S
O363 Sc353 2.105 . S
O363 C357 1.268 . S
O364 Sc354 2.105 . S
O364 C358 1.268 . S
O365 Sc352 2.105 . S
O365 C359 1.268 . S
O366 Sc354 2.105 . S
O366 C360 1.268 . S
O367 Sc353 2.105 . S
O367 C361 1.268 . S
O368 Sc352 2.105 . S
O368 C360 1.268 . S
O369 Sc353 2.105 . S
O369 C359 1.268 . S
O370 Sc354 2.105 1_455 S
O370 C361 1.268 1_455 S
O371 Sc352 2.105 . S
O371 C357 1.268 . S
O372 Sc354 2.105 . S
O372 C356 1.268 . S
O373 Sc353 2.105 . S
O373 C358 1.268 . S
Sc374 O377 2.025 . S
Sc374 O384 2.105 . S
Sc374 O387 2.105 . S
Sc374 O390 2.105 . S
Sc374 O393 2.105 . S
Sc375 O377 2.025 . S
Sc375 O385 2.105 . S
Sc375 O389 2.105 . S
Sc375 O391 2.105 . S
Sc375 O395 2.105 . S
Sc376 O377 2.025 . S
Sc376 O386 2.105 . S
Sc376 O388 2.105 . S
Sc376 O392 2.105 . S
Sc376 O394 2.105 . S
O377 Sc374 2.025 . S
O377 Sc375 2.025 . S
O377 Sc376 2.025 . S
C378 O384 1.268 . S
C378 O394 1.268 . S
C379 O385 1.268 . S
C379 O393 1.268 . S
C380 O386 1.268 . S
C380 O395 1.268 . S
C381 O387 1.268 . S
C381 O391 1.268 . S
C382 O388 1.268 . S
C382 O390 1.268 . S
C383 O389 1.268 . S
C383 O392 1.268 . S
O384 Sc374 2.105 . S
O384 C378 1.268 . S
O385 Sc375 2.105 . S
O385 C379 1.268 . S
O386 Sc376 2.105 . S
O386 C380 1.268 . S
O387 Sc374 2.105 . S
O387 C381 1.268 . S
O388 Sc376 2.105 . S
O388 C382 1.268 . S
O389 Sc375 2.105 . S
O389 C383 1.268 . S
O390 Sc374 2.105 . S
O390 C382 1.268 . S
O391 Sc375 2.105 . S
O391 C381 1.268 . S
O392 Sc376 2.105 . S
O392 C383 1.268 . S
O393 Sc374 2.105 . S
O393 C379 1.268 . S
O394 Sc376 2.105 . S
O394 C378 1.268 . S
O395 Sc375 2.105 . S
O395 C380 1.268 . S
H396 C402 0.930 . S
H397 C406 0.930 . S
H398 C411 0.929 . S
H399 C409 0.929 . S
H400 C404 0.929 . S
H401 C410 0.929 . S
C402 H396 0.930 . S
C402 C403 1.367 . S
C402 C410 1.378 . S
C403 C402 1.367 . S
C403 C411 1.433 . S
C404 H400 0.929 . S
C404 C406 1.378 . S
C404 C408 1.350 . S
C405 C408 1.463 . S
C405 C410 1.350 . S
C405 N413 1.427 . S
C406 H397 0.930 . S
C406 C404 1.378 . S
C406 C407 1.367 . S
C407 C406 1.367 . S
C407 C409 1.433 . S
C408 C404 1.350 . S
C408 C405 1.463 . S
C408 N412 1.427 . S
C409 H399 0.929 . S
C409 C407 1.433 . S
C409 N412 1.384 . S
C410 H401 0.929 . S
C410 C402 1.378 . S
C410 C405 1.350 . S
C411 H398 0.929 . S
C411 C403 1.433 . S
C411 N413 1.384 . S
N412 C408 1.427 . S
N412 C409 1.384 . S
N413 C405 1.427 . S
N413 C411 1.384 . S
H414 C420 0.930 . S
H415 C424 0.930 . S
H416 C429 0.929 . S
H417 C427 0.929 . S
H418 C422 0.929 . S
H419 C428 0.929 . S
C420 H414 0.930 . S
C420 C421 1.367 . S
C420 C428 1.378 . S
C421 C420 1.367 . S
C421 C429 1.433 . S
C422 H418 0.929 . S
C422 C424 1.378 . S
C422 C426 1.350 . S
C423 C426 1.463 . S
C423 C428 1.350 . S
C423 N431 1.427 . S
C424 H415 0.930 . S
C424 C422 1.378 . S
C424 C425 1.367 . S
C425 C424 1.367 . S
C425 C427 1.433 . S
C426 C422 1.350 . S
C426 C423 1.463 . S
C426 N430 1.427 . S
C427 H417 0.929 . S
C427 C425 1.433 . S
C427 N430 1.384 . S
C428 H419 0.929 . S
C428 C420 1.378 . S
C428 C423 1.350 . S
C429 H416 0.929 . S
C429 C421 1.433 . S
C429 N431 1.384 . S
N430 C426 1.427 . S
N430 C427 1.384 . S
N431 C423 1.427 . S
N431 C429 1.384 . S
H432 C438 0.930 1_545 S
H433 C442 0.930 . S
H434 C447 0.929 . S
H435 C445 0.929 . S
H436 C440 0.929 . S
H437 C446 0.933 . S
C438 H432 0.930 1_565 S
C438 C439 1.367 . S
C438 C446 1.378 . S
C439 C438 1.367 . S
C439 C447 1.433 . S
C440 H436 0.929 . S
C440 C442 1.378 . S
C440 C444 1.350 . S
C441 C444 1.463 . S
C441 C446 1.350 . S
C441 N449 1.427 . S
C442 H433 0.930 . S
C442 C440 1.378 . S
C442 C443 1.367 . S
C443 C442 1.367 . S
C443 C445 1.433 . S
C444 C440 1.350 . S
C444 C441 1.463 . S
C444 N448 1.427 . S
C445 H435 0.929 . S
C445 C443 1.433 . S
C445 N448 1.384 . S
C446 H437 0.933 . S
C446 C438 1.378 . S
C446 C441 1.350 . S
C447 H434 0.929 . S
C447 C439 1.433 . S
C447 N449 1.384 . S
N448 C444 1.427 . S
N448 C445 1.384 . S
N449 C441 1.427 . S
N449 C447 1.384 . S
H450 C456 0.930 . S
H451 C460 0.930 . S
H452 C465 0.929 . S
H453 C463 0.929 1_565 S
H454 C458 0.929 . S
H455 C464 0.929 . S
C456 H450 0.930 . S
C456 C457 1.367 . S
C456 C464 1.378 . S
C457 C456 1.367 . S
C457 C465 1.433 . S
C458 H454 0.929 . S
C458 C460 1.378 . S
C458 C462 1.350 . S
C459 C462 1.463 . S
C459 C464 1.350 . S
C459 N467 1.427 . S
C460 H451 0.930 . S
C460 C458 1.378 . S
C460 C461 1.367 . S
C461 C460 1.367 . S
C461 C463 1.433 . S
C462 C458 1.350 . S
C462 C459 1.463 . S
C462 N466 1.427 . S
C463 H453 0.929 1_545 S
C463 C461 1.433 . S
C463 N466 1.384 . S
C464 H455 0.929 . S
C464 C456 1.378 . S
C464 C459 1.350 . S
C465 H452 0.929 . S
C465 C457 1.433 . S
C465 N467 1.384 . S
N466 C462 1.427 . S
N466 C463 1.384 . S
N467 C459 1.427 . S
N467 C465 1.384 . S
H468 C474 0.953 . S
H469 C478 0.930 . S
H470 C483 0.929 . S
H471 C481 0.929 . S
H472 C476 0.929 . S
H473 C482 0.929 1_455 S
C474 H468 0.953 . S
C474 C475 1.340 1_455 S
C474 C482 1.383 1_455 S
C475 C474 1.340 1_655 S
C475 C483 1.433 . S
C476 H472 0.929 . S
C476 C478 1.378 . S
C476 C480 1.350 . S
C477 C480 1.463 . S
C477 C482 1.350 . S
C477 N485 1.427 . S
C478 H469 0.930 . S
C478 C476 1.378 . S
C478 C479 1.367 . S
C479 C478 1.367 . S
C479 C481 1.433 . S
C480 C476 1.350 . S
C480 C477 1.463 . S
C480 N484 1.427 . S
C481 H471 0.929 . S
C481 C479 1.433 . S
C481 N484 1.384 . S
C482 H473 0.929 1_655 S
C482 C474 1.383 1_655 S
C482 C477 1.350 . S
C483 H470 0.929 . S
C483 C475 1.433 . S
C483 N485 1.384 . S
N484 C480 1.427 . S
N484 C481 1.384 . S
N485 C477 1.427 . S
N485 C483 1.384 . S
H486 C492 0.930 . S
H487 C496 0.930 . S
H488 C501 0.929 . S
H489 C499 0.929 . S
H490 C494 0.929 . S
H491 C500 0.929 . S
C492 H486 0.930 . S
C492 C493 1.367 . S
C492 C500 1.378 . S
C493 C492 1.367 . S
C493 C501 1.433 . S
C494 H490 0.929 . S
C494 C496 1.378 . S
C494 C498 1.350 . S
C495 C498 1.463 . S
C495 C500 1.350 . S
C495 N503 1.427 . S
C496 H487 0.930 . S
C496 C494 1.378 . S
C496 C497 1.367 . S
C497 C496 1.367 . S
C497 C499 1.433 . S
C498 C494 1.350 . S
C498 C495 1.463 . S
C498 N502 1.427 . S
C499 H489 0.929 . S
C499 C497 1.433 . S
C499 N502 1.384 . S
C500 H491 0.929 . S
C500 C492 1.378 . S
C500 C495 1.350 . S
C501 H488 0.929 . S
C501 C493 1.433 . S
C501 N503 1.384 . S
N502 C498 1.427 . S
N502 C499 1.384 . S
N503 C495 1.427 . S
N503 C501 1.384 . S
H504 C510 0.930 . S
H505 C514 0.930 . S
H506 C519 0.929 . S
H507 C517 0.929 1_455 S
H508 C512 0.929 . S
H509 C518 0.929 . S
C510 H504 0.930 . S
C510 C511 1.367 . S
C510 C518 1.378 . S
C511 C510 1.367 . S
C511 C519 1.433 . S
C512 H508 0.929 . S
C512 C514 1.378 . S
C512 C516 1.350 . S
C513 C516 1.463 . S
C513 C518 1.350 . S
C513 N521 1.427 . S
C514 H505 0.930 . S
C514 C512 1.378 . S
C514 C515 1.367 . S
C515 C514 1.367 . S
C515 C517 1.433 . S
C516 C512 1.350 . S
C516 C513 1.463 . S
C516 N520 1.427 . S
C517 H507 0.929 1_655 S
C517 C515 1.433 . S
C517 N520 1.384 . S
C518 H509 0.929 . S
C518 C510 1.378 . S
C518 C513 1.350 . S
C519 H506 0.929 . S
C519 C511 1.433 . S
C519 N521 1.384 . S
N520 C516 1.427 . S
N520 C517 1.384 . S
N521 C513 1.427 . S
N521 C519 1.384 . S
H522 C528 0.930 . S
H523 C532 0.930 . S
H524 C537 0.929 . S
H525 C535 0.929 . S
H526 C530 0.929 . S
H527 C536 0.929 . S
C528 H522 0.930 . S
C528 C529 1.367 . S
C528 C536 1.378 . S
C529 C528 1.367 . S
C529 C537 1.433 . S
C530 H526 0.929 . S
C530 C532 1.378 . S
C530 C534 1.350 . S
C531 C534 1.463 . S
C531 C536 1.350 . S
C531 N539 1.427 . S
C532 H523 0.930 . S
C532 C530 1.378 . S
C532 C533 1.367 . S
C533 C532 1.367 . S
C533 C535 1.433 . S
C534 C530 1.350 . S
C534 C531 1.463 . S
C534 N538 1.427 . S
C535 H525 0.929 . S
C535 C533 1.433 . S
C535 N538 1.384 . S
C536 H527 0.929 . S
C536 C528 1.378 . S
C536 C531 1.350 . S
C537 H524 0.929 . S
C537 C529 1.433 . S
C537 N539 1.384 . S
N538 C534 1.427 . S
N538 C535 1.384 . S
N539 C531 1.427 . S
N539 C537 1.384 . S
H540 C546 0.930 . S
H541 C550 0.930 . S
H542 C555 0.929 . S
H543 C553 0.929 . S
H544 C548 0.929 . S
H545 C554 0.929 . S
C546 H540 0.930 . S
C546 C547 1.367 . S
C546 C554 1.378 . S
C547 C546 1.367 . S
C547 C555 1.433 . S
C548 H544 0.929 . S
C548 C550 1.378 . S
C548 C552 1.350 . S
C549 C552 1.463 . S
C549 C554 1.350 . S
C549 N557 1.427 . S
C550 H541 0.930 . S
C550 C548 1.378 . S
C550 C551 1.367 . S
C551 C550 1.367 . S
C551 C553 1.433 . S
C552 C548 1.350 . S
C552 C549 1.463 . S
C552 N556 1.427 . S
C553 H543 0.929 . S
C553 C551 1.433 . S
C553 N556 1.384 . S
C554 H545 0.929 . S
C554 C546 1.378 . S
C554 C549 1.350 . S
C555 H542 0.929 . S
C555 C547 1.433 . S
C555 N557 1.384 . S
N556 C552 1.427 . S
N556 C553 1.384 . S
N557 C549 1.427 . S
N557 C555 1.384 . S
H558 C564 0.930 . S
H559 C568 0.930 . S
H560 C573 0.929 . S
H561 C571 0.929 . S
H562 C566 0.929 . S
H563 C572 0.929 . S
C564 H558 0.930 . S
C564 C565 1.367 . S
C564 C572 1.378 . S
C565 C564 1.367 . S
C565 C573 1.433 . S
C566 H562 0.929 . S
C566 C568 1.378 . S
C566 C570 1.350 . S
C567 C570 1.463 . S
C567 C572 1.350 . S
C567 N575 1.427 . S
C568 H559 0.930 . S
C568 C566 1.378 . S
C568 C569 1.367 . S
C569 C568 1.367 . S
C569 C571 1.433 . S
C570 C566 1.350 . S
C570 C567 1.463 . S
C570 N574 1.427 . S
C571 H561 0.929 . S
C571 C569 1.433 . S
C571 N574 1.384 . S
C572 H563 0.929 . S
C572 C564 1.378 . S
C572 C567 1.350 . S
C573 H560 0.929 . S
C573 C565 1.433 . S
C573 N575 1.384 . S
N574 C570 1.427 . S
N574 C571 1.384 . S
N575 C567 1.427 . S
N575 C573 1.384 . S
H576 C582 0.930 . S
H577 C586 0.930 . S
H578 C591 0.928 1_655 S
H579 C589 0.929 . S
H580 C584 0.929 . S
H581 C590 0.929 . S
C582 H576 0.930 . S
C582 C583 1.367 . S
C582 C590 1.378 . S
C583 C582 1.367 . S
C583 C591 1.433 . S
C584 H580 0.929 . S
C584 C586 1.378 . S
C584 C588 1.350 . S
C585 C588 1.463 . S
C585 C590 1.350 . S
C585 N593 1.427 . S
C586 H577 0.930 . S
C586 C584 1.378 . S
C586 C587 1.367 . S
C587 C586 1.367 . S
C587 C589 1.433 . S
C588 C584 1.350 . S
C588 C585 1.463 . S
C588 N592 1.427 . S
C589 H579 0.929 . S
C589 C587 1.433 . S
C589 N592 1.384 . S
C590 H581 0.929 . S
C590 C582 1.378 . S
C590 C585 1.350 . S
C591 H578 0.928 1_455 S
C591 C583 1.433 . S
C591 N593 1.384 . S
N592 C588 1.427 . S
N592 C589 1.384 . S
N593 C585 1.427 . S
N593 C591 1.384 . S
H594 C600 0.930 . S
H595 C604 0.930 . S
H596 C609 0.929 . S
H597 C607 0.929 . S
H598 C602 0.929 . S
H599 C608 0.929 . S
C600 H594 0.930 . S
C600 C601 1.367 . S
C600 C608 1.378 . S
C601 C600 1.367 . S
C601 C609 1.433 . S
C602 H598 0.929 . S
C602 C604 1.378 . S
C602 C606 1.350 . S
C603 C606 1.463 . S
C603 C608 1.350 . S
C603 N611 1.427 . S
C604 H595 0.930 . S
C604 C602 1.378 . S
C604 C605 1.367 . S
C605 C604 1.367 . S
C605 C607 1.433 . S
C606 C602 1.350 . S
C606 C603 1.463 . S
C606 N610 1.427 . S
C607 H597 0.929 . S
C607 C605 1.433 . S
C607 N610 1.384 . S
C608 H599 0.929 . S
C608 C600 1.378 . S
C608 C603 1.350 . S
C609 H596 0.929 . S
C609 C601 1.433 . S
C609 N611 1.384 . S
N610 C606 1.427 . S
N610 C607 1.384 . S
N611 C603 1.427 . S
N611 C609 1.384 . S
H612 C618 0.930 . S
H613 C622 0.930 . S
H614 C627 0.929 . S
H615 C625 0.929 . S
H616 C620 0.929 . S
H617 C626 0.929 . S
C618 H612 0.930 . S
C618 C619 1.367 . S
C618 C626 1.378 . S
C619 C618 1.367 . S
C619 C627 1.433 . S
C620 H616 0.929 . S
C620 C622 1.378 . S
C620 C624 1.350 . S
C621 C624 1.463 . S
C621 C626 1.350 . S
C621 N629 1.427 . S
C622 H613 0.930 . S
C622 C620 1.378 . S
C622 C623 1.367 . S
C623 C622 1.367 . S
C623 C625 1.433 . S
C624 C620 1.350 . S
C624 C621 1.463 . S
C624 N628 1.427 . S
C625 H615 0.929 . S
C625 C623 1.433 . S
C625 N628 1.384 . S
C626 H617 0.929 . S
C626 C618 1.378 . S
C626 C621 1.350 . S
C627 H614 0.929 . S
C627 C619 1.433 . S
C627 N629 1.384 . S
N628 C624 1.427 . S
N628 C625 1.384 . S
N629 C621 1.427 . S
N629 C627 1.384 . S
H630 C636 0.930 . S
H631 C640 0.930 . S
H632 C645 0.929 1_545 S
H633 C643 0.929 . S
H634 C638 0.929 . S
H635 C644 0.929 . S
C636 H630 0.930 . S
C636 C637 1.367 . S
C636 C644 1.378 . S
C637 C636 1.367 . S
C637 C645 1.433 . S
C638 H634 0.929 . S
C638 C640 1.378 . S
C638 C642 1.350 . S
C639 C642 1.463 . S
C639 C644 1.350 . S
C639 N647 1.427 . S
C640 H631 0.930 . S
C640 C638 1.378 . S
C640 C641 1.367 . S
C641 C640 1.367 . S
C641 C643 1.433 . S
C642 C638 1.350 . S
C642 C639 1.463 . S
C642 N646 1.427 . S
C643 H633 0.929 . S
C643 C641 1.433 . S
C643 N646 1.384 . S
C644 H635 0.929 . S
C644 C636 1.378 . S
C644 C639 1.350 . S
C645 H632 0.929 1_565 S
C645 C637 1.433 . S
C645 N647 1.384 . S
N646 C642 1.427 . S
N646 C643 1.384 . S
N647 C639 1.427 . S
N647 C645 1.384 . S
H648 C654 0.930 . S
H649 C658 0.930 . S
H650 C663 0.929 . S
H651 C661 0.929 . S
H652 C656 0.929 . S
H653 C662 0.929 . S
C654 H648 0.930 . S
C654 C655 1.367 . S
C654 C662 1.378 . S
C655 C654 1.367 . S
C655 C663 1.433 . S
C656 H652 0.929 . S
C656 C658 1.378 . S
C656 C660 1.350 . S
C657 C660 1.463 . S
C657 C662 1.350 . S
C657 N665 1.427 . S
C658 H649 0.930 . S
C658 C656 1.378 . S
C658 C659 1.367 . S
C659 C658 1.367 . S
C659 C661 1.433 . S
C660 C656 1.350 . S
C660 C657 1.463 . S
C660 N664 1.427 . S
C661 H651 0.929 . S
C661 C659 1.433 . S
C661 N664 1.384 . S
C662 H653 0.929 . S
C662 C654 1.378 . S
C662 C657 1.350 . S
C663 H650 0.929 . S
C663 C655 1.433 . S
C663 N665 1.384 . S
N664 C660 1.427 . S
N664 C661 1.384 . S
N665 C657 1.427 . S
N665 C663 1.384 . S
H666 C672 0.930 . S
H667 C676 0.930 . S
H668 C681 0.929 . S
H669 C679 0.929 . S
H670 C674 0.929 . S
H671 C680 0.929 . S
C672 H666 0.930 . S
C672 C673 1.367 . S
C672 C680 1.378 . S
C673 C672 1.367 . S
C673 C681 1.433 . S
C674 H670 0.929 . S
C674 C676 1.378 . S
C674 C678 1.350 . S
C675 C678 1.463 . S
C675 C680 1.350 . S
C675 N683 1.427 . S
C676 H667 0.930 . S
C676 C674 1.378 . S
C676 C677 1.367 . S
C677 C676 1.367 . S
C677 C679 1.433 . S
C678 C674 1.350 . S
C678 C675 1.463 . S
C678 N682 1.427 . S
C679 H669 0.929 . S
C679 C677 1.433 . S
C679 N682 1.384 . S
C680 H671 0.929 . S
C680 C672 1.378 . S
C680 C675 1.350 . S
C681 H668 0.929 . S
C681 C673 1.433 . S
C681 N683 1.384 . S
N682 C678 1.427 . S
N682 C679 1.384 . S
N683 C675 1.427 . S
N683 C681 1.384 . S
H684 C690 0.930 . S
H685 C694 0.930 . S
H686 C699 0.929 . S
H687 C697 0.929 . S
H688 C692 0.929 . S
H689 C698 0.929 . S
C690 H684 0.930 . S
C690 C691 1.367 . S
C690 C698 1.378 . S
C691 C690 1.367 . S
C691 C699 1.433 . S
C692 H688 0.929 . S
C692 C694 1.378 . S
C692 C696 1.350 . S
C693 C696 1.463 . S
C693 C698 1.350 . S
C693 N701 1.427 . S
C694 H685 0.930 . S
C694 C692 1.378 . S
C694 C695 1.367 . S
C695 C694 1.367 . S
C695 C697 1.433 . S
C696 C692 1.350 . S
C696 C693 1.463 . S
C696 N700 1.427 . S
C697 H687 0.929 . S
C697 C695 1.433 . S
C697 N700 1.384 . S
C698 H689 0.929 . S
C698 C690 1.378 . S
C698 C693 1.350 . S
C699 H686 0.929 . S
C699 C691 1.433 . S
C699 N701 1.384 . S
N700 C696 1.427 . S
N700 C697 1.384 . S
N701 C693 1.427 . S
N701 C699 1.384 . S
H702 C708 0.930 . S
H703 C712 0.930 . S
H704 C717 0.929 . S
H705 C715 0.929 . S
H706 C710 0.929 . S
H707 C716 0.929 . S
C708 H702 0.930 . S
C708 C709 1.367 . S
C708 C716 1.378 . S
C709 C708 1.367 . S
C709 C717 1.433 . S
C710 H706 0.929 . S
C710 C712 1.378 . S
C710 C714 1.350 . S
C711 C714 1.463 . S
C711 C716 1.350 . S
C711 N719 1.427 . S
C712 H703 0.930 . S
C712 C710 1.378 . S
C712 C713 1.367 . S
C713 C712 1.367 . S
C713 C715 1.433 . S
C714 C710 1.350 . S
C714 C711 1.463 . S
C714 N718 1.427 . S
C715 H705 0.929 . S
C715 C713 1.433 . S
C715 N718 1.384 . S
C716 H707 0.929 . S
C716 C708 1.378 . S
C716 C711 1.350 . S
C717 H704 0.929 . S
C717 C709 1.433 . S
C717 N719 1.384 . S
N718 C714 1.427 . S
N718 C715 1.384 . S
N719 C711 1.427 . S
N719 C717 1.384 . S
H720 C726 0.930 . S
H721 C730 0.930 . S
H722 C735 0.929 . S
H723 C733 0.929 . S
H724 C728 0.929 . S
H725 C734 0.929 . S
C726 H720 0.930 . S
C726 C727 1.367 . S
C726 C734 1.378 . S
C727 C726 1.367 . S
C727 C735 1.433 . S
C728 H724 0.929 . S
C728 C730 1.378 . S
C728 C732 1.350 . S
C729 C732 1.463 . S
C729 C734 1.350 . S
C729 N737 1.427 . S
C730 H721 0.930 . S
C730 C728 1.378 . S
C730 C731 1.367 . S
C731 C730 1.367 . S
C731 C733 1.433 . S
C732 C728 1.350 . S
C732 C729 1.463 . S
C732 N736 1.427 . S
C733 H723 0.929 . S
C733 C731 1.433 . S
C733 N736 1.384 . S
C734 H725 0.929 . S
C734 C726 1.378 . S
C734 C729 1.350 . S
C735 H722 0.929 . S
C735 C727 1.433 . S
C735 N737 1.384 . S
N736 C732 1.427 . S
N736 C733 1.384 . S
N737 C729 1.427 . S
N737 C735 1.384 . S
H738 C744 0.930 . S
H739 C748 0.930 . S
H740 C753 0.929 . S
H741 C751 0.929 . S
H742 C746 0.929 . S
H743 C752 0.929 . S
C744 H738 0.930 . S
C744 C745 1.367 . S
C744 C752 1.378 . S
C745 C744 1.367 . S
C745 C753 1.433 . S
C746 H742 0.929 . S
C746 C748 1.378 . S
C746 C750 1.350 . S
C747 C750 1.463 . S
C747 C752 1.350 . S
C747 N755 1.427 . S
C748 H739 0.930 . S
C748 C746 1.378 . S
C748 C749 1.367 . S
C749 C748 1.367 . S
C749 C751 1.433 . S
C750 C746 1.350 . S
C750 C747 1.463 . S
C750 N754 1.427 . S
C751 H741 0.929 . S
C751 C749 1.433 . S
C751 N754 1.384 . S
C752 H743 0.929 . S
C752 C744 1.378 . S
C752 C747 1.350 . S
C753 H740 0.929 . S
C753 C745 1.433 . S
C753 N755 1.384 . S
N754 C750 1.427 . S
N754 C751 1.384 . S
N755 C747 1.427 . S
N755 C753 1.384 . S
H756 C762 0.930 . S
H757 C766 0.930 . S
H758 C771 0.929 . S
H759 C769 0.929 . S
H760 C764 0.929 . S
H761 C770 0.929 . S
C762 H756 0.930 . S
C762 C763 1.367 . S
C762 C770 1.378 . S
C763 C762 1.367 . S
C763 C771 1.433 . S
C764 H760 0.929 . S
C764 C766 1.378 . S
C764 C768 1.350 . S
C765 C768 1.463 . S
C765 C770 1.350 . S
C765 N773 1.427 . S
C766 H757 0.930 . S
C766 C764 1.378 . S
C766 C767 1.367 . S
C767 C766 1.367 . S
C767 C769 1.433 . S
C768 C764 1.350 . S
C768 C765 1.463 . S
C768 N772 1.427 . S
C769 H759 0.929 . S
C769 C767 1.433 . S
C769 N772 1.384 . S
C770 H761 0.929 . S
C770 C762 1.378 . S
C770 C765 1.350 . S
C771 H758 0.929 . S
C771 C763 1.433 . S
C771 N773 1.384 . S
N772 C768 1.427 . S
N772 C769 1.384 . S
N773 C765 1.427 . S
N773 C771 1.384 . S
H774 C780 0.930 . S
H775 C784 0.930 . S
H776 C789 0.929 . S
H777 C787 0.929 . S
H778 C782 0.929 1_554 S
H779 C788 0.929 . S
C780 H774 0.930 . S
C780 C781 1.367 1_556 S
C780 C788 1.378 . S
C781 C780 1.367 1_554 S
C781 C789 1.433 . S
C782 H778 0.929 1_556 S
C782 C784 1.378 . S
C782 C786 1.350 . S
C783 C786 1.463 . S
C783 C788 1.350 . S
C783 N791 1.427 1_556 S
C784 H775 0.930 . S
C784 C782 1.378 . S
C784 C785 1.367 . S
C785 C784 1.367 . S
C785 C787 1.433 . S
C786 C782 1.350 . S
C786 C783 1.463 . S
C786 N790 1.427 . S
C787 H777 0.929 . S
C787 C785 1.433 . S
C787 N790 1.384 . S
C788 H779 0.929 . S
C788 C780 1.378 . S
C788 C783 1.350 . S
C789 H776 0.929 . S
C789 C781 1.433 . S
C789 N791 1.384 . S
N790 C786 1.427 . S
N790 C787 1.384 . S
N791 C783 1.427 1_554 S
N791 C789 1.384 . S
H792 C798 0.930 . S
H793 C802 0.930 . S
H794 C807 0.929 . S
H795 C805 0.929 1_545 S
H796 C800 0.929 . S
H797 C806 0.929 . S
C798 H792 0.930 . S
C798 C799 1.367 . S
C798 C806 1.378 . S
C799 C798 1.367 . S
C799 C807 1.433 . S
C800 H796 0.929 . S
C800 C802 1.378 . S
C800 C804 1.350 . S
C801 C804 1.463 . S
C801 C806 1.350 1_556 S
C801 N809 1.427 . S
C802 H793 0.930 . S
C802 C800 1.378 . S
C802 C803 1.367 . S
C803 C802 1.367 . S
C803 C805 1.433 . S
C804 C800 1.350 . S
C804 C801 1.463 . S
C804 N808 1.427 . S
C805 H795 0.929 1_565 S
C805 C803 1.433 . S
C805 N808 1.384 . S
C806 H797 0.929 . S
C806 C798 1.378 . S
C806 C801 1.350 1_554 S
C807 H794 0.929 . S
C807 C799 1.433 . S
C807 N809 1.384 1_554 S
N808 C804 1.427 . S
N808 C805 1.384 . S
N809 C801 1.427 . S
N809 C807 1.384 1_556 S
H810 C816 0.930 . S
H811 C820 0.930 . S
H812 C825 0.929 . S
H813 C823 0.929 . S
H814 C818 0.902 1_554 S
H815 C824 0.929 . S
C816 H810 0.930 . S
C816 C817 1.367 1_556 S
C816 C824 1.378 . S
C817 C816 1.367 1_554 S
C817 C825 1.433 . S
C818 H814 0.902 1_556 S
C818 C820 1.390 . S
C818 C822 1.365 . S
C819 C822 1.463 . S
C819 C824 1.350 . S
C819 N827 1.427 1_556 S
C820 H811 0.930 . S
C820 C818 1.390 . S
C820 C821 1.367 . S
C821 C820 1.367 . S
C821 C823 1.433 . S
C822 C818 1.365 . S
C822 C819 1.463 . S
C822 N826 1.427 . S
C823 H813 0.929 . S
C823 C821 1.433 . S
C823 N826 1.384 . S
C824 H815 0.929 . S
C824 C816 1.378 . S
C824 C819 1.350 . S
C825 H812 0.929 . S
C825 C817 1.433 . S
C825 N827 1.384 . S
N826 C822 1.427 . S
N826 C823 1.384 . S
N827 C819 1.427 1_554 S
N827 C825 1.384 . S
H828 C834 0.930 . S
H829 C838 0.930 . S
H830 C843 0.929 . S
H831 C841 0.929 . S
H832 C836 0.929 . S
H833 C842 0.929 . S
C834 H828 0.930 . S
C834 C835 1.367 . S
C834 C842 1.378 . S
C835 C834 1.367 . S
C835 C843 1.433 . S
C836 H832 0.929 . S
C836 C838 1.378 . S
C836 C840 1.350 . S
C837 C840 1.463 . S
C837 C842 1.350 . S
C837 N845 1.427 . S
C838 H829 0.930 . S
C838 C836 1.378 . S
C838 C839 1.367 . S
C839 C838 1.367 . S
C839 C841 1.433 . S
C840 C836 1.350 . S
C840 C837 1.463 . S
C840 N844 1.427 . S
C841 H831 0.929 . S
C841 C839 1.433 . S
C841 N844 1.384 . S
C842 H833 0.929 . S
C842 C834 1.378 . S
C842 C837 1.350 . S
C843 H830 0.929 . S
C843 C835 1.433 . S
C843 N845 1.384 . S
N844 C840 1.427 . S
N844 C841 1.384 . S
N845 C837 1.427 . S
N845 C843 1.384 . S
H846 C852 0.930 . S
H847 C856 0.930 . S
H848 C861 0.929 . S
H849 C859 0.929 . S
H850 C854 0.929 . S
H851 C860 0.929 . S
C852 H846 0.930 . S
C852 C853 1.367 . S
C852 C860 1.378 . S
C853 C852 1.367 . S
C853 C861 1.433 . S
C854 H850 0.929 . S
C854 C856 1.378 . S
C854 C858 1.350 . S
C855 C858 1.463 . S
C855 C860 1.350 . S
C855 N863 1.427 . S
C856 H847 0.930 . S
C856 C854 1.378 . S
C856 C857 1.367 . S
C857 C856 1.367 . S
C857 C859 1.433 . S
C858 C854 1.350 . S
C858 C855 1.463 . S
C858 N862 1.427 . S
C859 H849 0.929 . S
C859 C857 1.433 . S
C859 N862 1.384 . S
C860 H851 0.929 . S
C860 C852 1.378 . S
C860 C855 1.350 . S
C861 H848 0.929 . S
C861 C853 1.433 . S
C861 N863 1.384 . S
N862 C858 1.427 . S
N862 C859 1.384 . S
N863 C855 1.427 . S
N863 C861 1.384 . S
H864 C870 0.930 . S
H865 C874 0.930 . S
H866 C879 0.929 . S
H867 C877 0.929 . S
H868 C872 0.929 . S
H869 C878 0.929 . S
C870 H864 0.930 . S
C870 C871 1.367 . S
C870 C878 1.378 . S
C871 C870 1.367 . S
C871 C879 1.433 . S
C872 H868 0.929 . S
C872 C874 1.378 . S
C872 C876 1.350 . S
C873 C876 1.463 . S
C873 C878 1.350 . S
C873 N881 1.427 . S
C874 H865 0.930 . S
C874 C872 1.378 . S
C874 C875 1.367 . S
C875 C874 1.367 . S
C875 C877 1.433 . S
C876 C872 1.350 . S
C876 C873 1.463 . S
C876 N880 1.427 . S
C877 H867 0.929 . S
C877 C875 1.433 . S
C877 N880 1.384 . S
C878 H869 0.929 . S
C878 C870 1.378 . S
C878 C873 1.350 . S
C879 H866 0.929 . S
C879 C871 1.433 . S
C879 N881 1.384 . S
N880 C876 1.427 . S
N880 C877 1.384 . S
N881 C873 1.427 . S
N881 C879 1.384 . S
H882 C888 0.930 . S
H883 C892 0.930 . S
H884 C897 0.929 . S
H885 C895 0.929 . S
H886 C890 0.929 1_556 S
H887 C896 0.929 . S
C888 H882 0.930 . S
C888 C889 1.367 1_554 S
C888 C896 1.378 . S
C889 C888 1.367 1_556 S
C889 C897 1.433 . S
C890 H886 0.929 1_554 S
C890 C892 1.378 . S
C890 C894 1.350 . S
C891 C894 1.463 . S
C891 C896 1.350 . S
C891 N899 1.427 1_554 S
C892 H883 0.930 . S
C892 C890 1.378 . S
C892 C893 1.367 . S
C893 C892 1.367 . S
C893 C895 1.433 . S
C894 C890 1.350 . S
C894 C891 1.463 . S
C894 N898 1.427 . S
C895 H885 0.929 . S
C895 C893 1.433 . S
C895 N898 1.384 . S
C896 H887 0.929 . S
C896 C888 1.378 . S
C896 C891 1.350 . S
C897 H884 0.929 . S
C897 C889 1.433 . S
C897 N899 1.384 . S
N898 C894 1.427 . S
N898 C895 1.384 . S
N899 C891 1.427 1_556 S
N899 C897 1.384 . S
H900 C906 0.930 . S
H901 C910 0.930 . S
H902 C915 0.929 . S
H903 C913 0.929 . S
H904 C908 0.929 . S
H905 C914 0.929 . S
C906 H900 0.930 . S
C906 C907 1.367 . S
C906 C914 1.378 1_556 S
C907 C906 1.367 . S
C907 C915 1.433 . S
C908 H904 0.929 . S
C908 C910 1.378 . S
C908 C912 1.350 . S
C909 C912 1.463 . S
C909 C914 1.350 . S
C909 N917 1.427 1_554 S
C910 H901 0.930 . S
C910 C908 1.378 . S
C910 C911 1.367 . S
C911 C910 1.367 . S
C911 C913 1.433 . S
C912 C908 1.350 . S
C912 C909 1.463 . S
C912 N916 1.427 . S
C913 H903 0.929 . S
C913 C911 1.433 . S
C913 N916 1.384 . S
C914 H905 0.929 . S
C914 C906 1.378 1_554 S
C914 C909 1.350 . S
C915 H902 0.929 . S
C915 C907 1.433 . S
C915 N917 1.384 . S
N916 C912 1.427 . S
N916 C913 1.384 . S
N917 C909 1.427 1_556 S
N917 C915 1.384 . S
H918 C924 0.930 . S
H919 C928 0.930 . S
H920 C933 0.929 . S
H921 C931 0.929 . S
H922 C926 0.929 . S
H923 C932 0.929 . S
C924 H918 0.930 . S
C924 C925 1.367 . S
C924 C932 1.378 . S
C925 C924 1.367 . S
C925 C933 1.433 . S
C926 H922 0.929 . S
C926 C928 1.378 . S
C926 C930 1.350 . S
C927 C930 1.463 . S
C927 C932 1.350 1_554 S
C927 N935 1.427 . S
C928 H919 0.930 . S
C928 C926 1.378 . S
C928 C929 1.367 . S
C929 C928 1.367 . S
C929 C931 1.433 . S
C930 C926 1.350 . S
C930 C927 1.463 . S
C930 N934 1.427 . S
C931 H921 0.929 . S
C931 C929 1.433 . S
C931 N934 1.384 . S
C932 H923 0.929 . S
C932 C924 1.378 . S
C932 C927 1.350 1_556 S
C933 H920 0.929 . S
C933 C925 1.433 . S
C933 N935 1.384 1_556 S
N934 C930 1.427 . S
N934 C931 1.384 . S
N935 C927 1.427 . S
N935 C933 1.384 1_554 S
H936 C942 0.930 . S
H937 C946 0.930 . S
H938 C951 0.929 . S
H939 C949 0.929 . S
H940 C944 0.929 . S
H941 C950 0.929 . S
C942 H936 0.930 . S
C942 C943 1.367 . S
C942 C950 1.378 . S
C943 C942 1.367 . S
C943 C951 1.433 . S
C944 H940 0.929 . S
C944 C946 1.378 . S
C944 C948 1.350 . S
C945 C948 1.463 . S
C945 C950 1.350 . S
C945 N953 1.427 . S
C946 H937 0.930 . S
C946 C944 1.378 . S
C946 C947 1.367 . S
C947 C946 1.367 . S
C947 C949 1.433 . S
C948 C944 1.350 . S
C948 C945 1.463 . S
C948 N952 1.427 . S
C949 H939 0.929 . S
C949 C947 1.433 . S
C949 N952 1.384 . S
C950 H941 0.929 . S
C950 C942 1.378 . S
C950 C945 1.350 . S
C951 H938 0.929 . S
C951 C943 1.433 . S
C951 N953 1.384 . S
N952 C948 1.427 . S
N952 C949 1.384 . S
N953 C945 1.427 . S
N953 C951 1.384 . S
H954 C960 0.930 . S
H955 C964 0.922 1_565 S
H956 C969 0.929 . S
H957 C967 0.929 . S
H958 C962 0.929 . S
H959 C968 0.929 . S
C960 H954 0.930 . S
C960 C961 1.367 . S
C960 C968 1.378 . S
C961 C960 1.367 . S
C961 C969 1.433 . S
C962 H958 0.929 . S
C962 C964 1.378 . S
C962 C966 1.350 . S
C963 C966 1.463 . S
C963 C968 1.350 . S
C963 N971 1.427 . S
C964 H955 0.922 1_545 S
C964 C962 1.378 . S
C964 C965 1.367 . S
C965 C964 1.367 . S
C965 C967 1.433 . S
C966 C962 1.350 . S
C966 C963 1.463 . S
C966 N970 1.427 . S
C967 H957 0.929 . S
C967 C965 1.433 . S
C967 N970 1.384 . S
C968 H959 0.929 . S
C968 C960 1.378 . S
C968 C963 1.350 . S
C969 H956 0.929 . S
C969 C961 1.433 . S
C969 N971 1.384 . S
N970 C966 1.427 . S
N970 C967 1.384 . S
N971 C963 1.427 . S
N971 C969 1.384 . S
H972 C978 0.930 . S
H973 C982 0.930 . S
H974 C987 0.929 1_455 S
H975 C985 0.929 . S
H976 C980 0.929 . S
H977 C986 0.929 . S
C978 H972 0.930 . S
C978 C979 1.367 . S
C978 C986 1.378 . S
C979 C978 1.367 . S
C979 C987 1.433 . S
C980 H976 0.929 . S
C980 C982 1.378 . S
C980 C984 1.350 . S
C981 C984 1.463 . S
C981 C986 1.350 . S
C981 N989 1.427 . S
C982 H973 0.930 . S
C982 C980 1.378 . S
C982 C983 1.367 . S
C983 C982 1.367 . S
C983 C985 1.433 . S
C984 C980 1.350 . S
C984 C981 1.463 . S
C984 N988 1.427 . S
C985 H975 0.929 . S
C985 C983 1.433 . S
C985 N988 1.384 . S
C986 H977 0.929 . S
C986 C978 1.378 . S
C986 C981 1.350 . S
C987 H974 0.929 1_655 S
C987 C979 1.433 . S
C987 N989 1.384 . S
N988 C984 1.427 . S
N988 C985 1.384 . S
N989 C981 1.427 . S
N989 C987 1.384 . S
H990 C996 0.930 . S
H991 C1000 0.930 . S
H992 C1005 0.929 . S
H993 C1003 0.929 . S
H994 C998 0.929 . S
H995 C1004 0.929 . S
C996 H990 0.930 . S
C996 C997 1.367 . S
C996 C1004 1.378 . S
C997 C996 1.367 . S
C997 C1005 1.433 . S
C998 H994 0.929 . S
C998 C1000 1.378 . S
C998 C1002 1.350 . S
C999 C1002 1.463 . S
C999 C1004 1.350 . S
C999 N1007 1.427 . S
C1000 H991 0.930 . S
C1000 C998 1.378 . S
C1000 C1001 1.367 . S
C1001 C1000 1.367 . S
C1001 C1003 1.433 . S
C1002 C998 1.350 . S
C1002 C999 1.463 . S
C1002 N1006 1.427 . S
C1003 H993 0.929 . S
C1003 C1001 1.433 . S
C1003 N1006 1.384 . S
C1004 H995 0.929 . S
C1004 C996 1.378 . S
C1004 C999 1.350 . S
C1005 H992 0.929 . S
C1005 C997 1.433 . S
C1005 N1007 1.384 . S
N1006 C1002 1.427 . S
N1006 C1003 1.384 . S
N1007 C999 1.427 . S
N1007 C1005 1.384 . S
H1008 C1014 0.930 . S
H1009 C1018 0.930 . S
H1010 C1023 0.929 . S
H1011 C1021 0.929 . S
H1012 C1016 0.929 . S
H1013 C1022 0.929 . S
C1014 H1008 0.930 . S
C1014 C1015 1.367 . S
C1014 C1022 1.378 . S
C1015 C1014 1.367 . S
C1015 C1023 1.433 . S
C1016 H1012 0.929 . S
C1016 C1018 1.378 . S
C1016 C1020 1.350 . S
C1017 C1020 1.463 . S
C1017 C1022 1.350 . S
C1017 N1025 1.427 . S
C1018 H1009 0.930 . S
C1018 C1016 1.378 . S
C1018 C1019 1.367 . S
C1019 C1018 1.367 . S
C1019 C1021 1.433 . S
C1020 C1016 1.350 . S
C1020 C1017 1.463 . S
C1020 N1024 1.427 . S
C1021 H1011 0.929 . S
C1021 C1019 1.433 . S
C1021 N1024 1.384 . S
C1022 H1013 0.929 . S
C1022 C1014 1.378 . S
C1022 C1017 1.350 . S
C1023 H1010 0.929 . S
C1023 C1015 1.433 . S
C1023 N1025 1.384 . S
N1024 C1020 1.427 . S
N1024 C1021 1.384 . S
N1025 C1017 1.427 . S
N1025 C1023 1.384 . S
H1026 C1032 0.930 . S
H1027 C1036 0.930 . S
H1028 C1041 0.929 . S
H1029 C1039 0.929 . S
H1030 C1034 0.929 . S
H1031 C1040 0.929 . S
C1032 H1026 0.930 . S
C1032 C1033 1.367 . S
C1032 C1040 1.378 . S
C1033 C1032 1.367 . S
C1033 C1041 1.433 . S
C1034 H1030 0.929 . S
C1034 C1036 1.378 . S
C1034 C1038 1.350 . S
C1035 C1038 1.463 . S
C1035 C1040 1.350 . S
C1035 N1043 1.427 . S
C1036 H1027 0.930 . S
C1036 C1034 1.378 . S
C1036 C1037 1.367 . S
C1037 C1036 1.367 . S
C1037 C1039 1.433 . S
C1038 C1034 1.350 . S
C1038 C1035 1.463 . S
C1038 N1042 1.427 . S
C1039 H1029 0.929 . S
C1039 C1037 1.433 . S
C1039 N1042 1.384 . S
C1040 H1031 0.929 . S
C1040 C1032 1.378 . S
C1040 C1035 1.350 . S
C1041 H1028 0.929 . S
C1041 C1033 1.433 . S
C1041 N1043 1.384 . S
N1042 C1038 1.427 . S
N1042 C1039 1.384 . S
N1043 C1035 1.427 . S
N1043 C1041 1.384 . S
H1044 C1050 0.930 . S
H1045 C1054 0.930 . S
H1046 C1059 0.929 . S
H1047 C1057 0.929 1_655 S
H1048 C1052 0.929 . S
H1049 C1058 0.929 . S
C1050 H1044 0.930 . S
C1050 C1051 1.367 . S
C1050 C1058 1.378 . S
C1051 C1050 1.367 . S
C1051 C1059 1.433 . S
C1052 H1048 0.929 . S
C1052 C1054 1.378 . S
C1052 C1056 1.350 . S
C1053 C1056 1.463 . S
C1053 C1058 1.350 . S
C1053 N1061 1.427 . S
C1054 H1045 0.930 . S
C1054 C1052 1.378 . S
C1054 C1055 1.367 . S
C1055 C1054 1.367 . S
C1055 C1057 1.433 . S
C1056 C1052 1.350 . S
C1056 C1053 1.463 . S
C1056 N1060 1.427 . S
C1057 H1047 0.929 1_455 S
C1057 C1055 1.433 . S
C1057 N1060 1.384 . S
C1058 H1049 0.929 . S
C1058 C1050 1.378 . S
C1058 C1053 1.350 . S
C1059 H1046 0.929 . S
C1059 C1051 1.433 . S
C1059 N1061 1.384 . S
N1060 C1056 1.427 . S
N1060 C1057 1.384 . S
N1061 C1053 1.427 . S
N1061 C1059 1.384 . S
H1062 C1068 0.930 . S
H1063 C1072 0.930 . S
H1064 C1077 0.929 . S
H1065 C1075 0.929 . S
H1066 C1070 0.929 . S
H1067 C1076 0.929 . S
C1068 H1062 0.930 . S
C1068 C1069 1.367 . S
C1068 C1076 1.378 . S
C1069 C1068 1.367 . S
C1069 C1077 1.433 . S
C1070 H1066 0.929 . S
C1070 C1072 1.378 . S
C1070 C1074 1.350 . S
C1071 C1074 1.463 . S
C1071 C1076 1.350 . S
C1071 N1079 1.427 . S
C1072 H1063 0.930 . S
C1072 C1070 1.378 . S
C1072 C1073 1.367 . S
C1073 C1072 1.367 . S
C1073 C1075 1.433 . S
C1074 C1070 1.350 . S
C1074 C1071 1.463 . S
C1074 N1078 1.427 . S
C1075 H1065 0.929 . S
C1075 C1073 1.433 . S
C1075 N1078 1.384 . S
C1076 H1067 0.929 . S
C1076 C1068 1.378 . S
C1076 C1071 1.350 . S
C1077 H1064 0.929 . S
C1077 C1069 1.433 . S
C1077 N1079 1.384 . S
N1078 C1074 1.427 . S
N1078 C1075 1.384 . S
N1079 C1071 1.427 . S
N1079 C1077 1.384 . S
H1080 C1086 0.907 1_545 S
H1081 C1090 0.930 . S
H1082 C1095 0.929 . S
H1083 C1093 0.929 1_545 S
H1084 C1088 0.929 . S
H1085 C1094 0.929 1_545 S
C1086 H1080 0.907 1_565 S
C1086 C1087 1.367 . S
C1086 C1094 1.378 . S
C1087 C1086 1.367 . S
C1087 C1095 1.433 . S
C1088 H1084 0.929 . S
C1088 C1090 1.378 . S
C1088 C1092 1.350 . S
C1089 C1092 1.463 . S
C1089 C1094 1.350 . S
C1089 N1097 1.427 . S
C1090 H1081 0.930 . S
C1090 C1088 1.378 . S
C1090 C1091 1.367 . S
C1091 C1090 1.367 . S
C1091 C1093 1.433 . S
C1092 C1088 1.350 . S
C1092 C1089 1.463 . S
C1092 N1096 1.427 . S
C1093 H1083 0.929 1_565 S
C1093 C1091 1.433 . S
C1093 N1096 1.384 . S
C1094 H1085 0.929 1_565 S
C1094 C1086 1.378 . S
C1094 C1089 1.350 . S
C1095 H1082 0.929 . S
C1095 C1087 1.433 . S
C1095 N1097 1.384 . S
N1096 C1092 1.427 . S
N1096 C1093 1.384 . S
N1097 C1089 1.427 . S
N1097 C1095 1.384 . S
H1098 C1104 0.930 . S
H1099 C1108 0.930 . S
H1100 C1113 0.929 . S
H1101 C1111 0.929 . S
H1102 C1106 0.929 . S
H1103 C1112 0.929 . S
C1104 H1098 0.930 . S
C1104 C1105 1.367 . S
C1104 C1112 1.378 . S
C1105 C1104 1.367 . S
C1105 C1113 1.433 . S
C1106 H1102 0.929 . S
C1106 C1108 1.378 . S
C1106 C1110 1.350 . S
C1107 C1110 1.463 . S
C1107 C1112 1.350 . S
C1107 N1115 1.427 . S
C1108 H1099 0.930 . S
C1108 C1106 1.378 . S
C1108 C1109 1.367 . S
C1109 C1108 1.367 . S
C1109 C1111 1.433 . S
C1110 C1106 1.350 . S
C1110 C1107 1.463 . S
C1110 N1114 1.427 . S
C1111 H1101 0.929 . S
C1111 C1109 1.433 . S
C1111 N1114 1.384 . S
C1112 H1103 0.929 . S
C1112 C1104 1.378 . S
C1112 C1107 1.350 . S
C1113 H1100 0.929 . S
C1113 C1105 1.433 . S
C1113 N1115 1.384 . S
N1114 C1110 1.427 . S
N1114 C1111 1.384 . S
N1115 C1107 1.427 . S
N1115 C1113 1.384 . S
H1116 C1122 0.930 . S
H1117 C1126 0.930 . S
H1118 C1131 0.929 1_455 S
H1119 C1129 0.929 . S
H1120 C1124 0.929 1_455 S
H1121 C1130 0.929 . S
C1122 H1116 0.930 . S
C1122 C1123 1.367 . S
C1122 C1130 1.378 . S
C1123 C1122 1.367 . S
C1123 C1131 1.433 . S
C1124 H1120 0.929 1_655 S
C1124 C1126 1.378 . S
C1124 C1128 1.350 . S
C1125 C1128 1.463 . S
C1125 C1130 1.350 . S
C1125 N1133 1.427 . S
C1126 H1117 0.930 . S
C1126 C1124 1.378 . S
C1126 C1127 1.367 . S
C1127 C1126 1.367 . S
C1127 C1129 1.433 . S
C1128 C1124 1.350 . S
C1128 C1125 1.463 . S
C1128 N1132 1.427 . S
C1129 H1119 0.929 . S
C1129 C1127 1.433 . S
C1129 N1132 1.384 . S
C1130 H1121 0.929 . S
C1130 C1122 1.378 . S
C1130 C1125 1.350 . S
C1131 H1118 0.929 1_655 S
C1131 C1123 1.433 . S
C1131 N1133 1.384 . S
N1132 C1128 1.427 . S
N1132 C1129 1.384 . S
N1133 C1125 1.427 . S
N1133 C1131 1.384 . S
H1134 C1140 0.930 . S
H1135 C1144 0.930 . S
H1136 C1149 0.929 . S
H1137 C1147 0.929 . S
H1138 C1142 0.929 . S
H1139 C1148 0.929 . S
C1140 H1134 0.930 . S
C1140 C1141 1.367 . S
C1140 C1148 1.378 . S
C1141 C1140 1.367 . S
C1141 C1149 1.433 . S
C1142 H1138 0.929 . S
C1142 C1144 1.378 . S
C1142 C1146 1.350 . S
C1143 C1146 1.463 . S
C1143 C1148 1.350 . S
C1143 N1151 1.427 . S
C1144 H1135 0.930 . S
C1144 C1142 1.378 . S
C1144 C1145 1.367 . S
C1145 C1144 1.367 . S
C1145 C1147 1.433 . S
C1146 C1142 1.350 . S
C1146 C1143 1.463 . S
C1146 N1150 1.427 . S
C1147 H1137 0.929 . S
C1147 C1145 1.433 . S
C1147 N1150 1.384 . S
C1148 H1139 0.929 . S
C1148 C1140 1.378 . S
C1148 C1143 1.350 . S
C1149 H1136 0.929 . S
C1149 C1141 1.433 . S
C1149 N1151 1.384 . S
N1150 C1146 1.427 . S
N1150 C1147 1.384 . S
N1151 C1143 1.427 . S
N1151 C1149 1.384 . S
H1152 C1158 0.930 1_455 S
H1153 C1162 0.930 . S
H1154 C1167 0.929 . S
H1155 C1165 0.929 . S
H1156 C1160 0.929 . S
H1157 C1166 0.929 1_455 S
C1158 H1152 0.930 1_655 S
C1158 C1159 1.367 . S
C1158 C1166 1.378 . S
C1159 C1158 1.367 . S
C1159 C1167 1.433 . S
C1160 H1156 0.929 . S
C1160 C1162 1.378 . S
C1160 C1164 1.350 . S
C1161 C1164 1.463 . S
C1161 C1166 1.350 . S
C1161 N1169 1.427 . S
C1162 H1153 0.930 . S
C1162 C1160 1.378 . S
C1162 C1163 1.367 . S
C1163 C1162 1.367 . S
C1163 C1165 1.433 . S
C1164 C1160 1.350 . S
C1164 C1161 1.463 . S
C1164 N1168 1.427 . S
C1165 H1155 0.929 . S
C1165 C1163 1.433 . S
C1165 N1168 1.384 . S
C1166 H1157 0.929 1_655 S
C1166 C1158 1.378 . S
C1166 C1161 1.350 . S
C1167 H1154 0.929 . S
C1167 C1159 1.433 . S
C1167 N1169 1.384 . S
N1168 C1164 1.427 . S
N1168 C1165 1.384 . S
N1169 C1161 1.427 . S
N1169 C1167 1.384 . S
H1170 C1176 0.930 . S
H1171 C1180 0.930 . S
H1172 C1185 0.929 . S
H1173 C1183 0.929 . S
H1174 C1178 0.929 . S
H1175 C1184 0.929 . S
C1176 H1170 0.930 . S
C1176 C1177 1.367 . S
C1176 C1184 1.378 . S
C1177 C1176 1.367 . S
C1177 C1185 1.433 . S
C1178 H1174 0.929 . S
C1178 C1180 1.378 . S
C1178 C1182 1.350 . S
C1179 C1182 1.463 . S
C1179 C1184 1.350 . S
C1179 N1187 1.427 . S
C1180 H1171 0.930 . S
C1180 C1178 1.378 . S
C1180 C1181 1.367 . S
C1181 C1180 1.367 . S
C1181 C1183 1.433 . S
C1182 C1178 1.350 . S
C1182 C1179 1.463 . S
C1182 N1186 1.427 . S
C1183 H1173 0.929 . S
C1183 C1181 1.433 . S
C1183 N1186 1.384 . S
C1184 H1175 0.929 . S
C1184 C1176 1.378 . S
C1184 C1179 1.350 . S
C1185 H1172 0.929 . S
C1185 C1177 1.433 . S
C1185 N1187 1.384 . S
N1186 C1182 1.427 . S
N1186 C1183 1.384 . S
N1187 C1179 1.427 . S
N1187 C1185 1.384 . S
H1188 C1194 0.930 . S
H1189 C1198 0.930 . S
H1190 C1203 0.929 . S
H1191 C1201 0.929 . S
H1192 C1196 0.929 . S
H1193 C1202 0.929 . S
C1194 H1188 0.930 . S
C1194 C1195 1.367 . S
C1194 C1202 1.378 . S
C1195 C1194 1.367 . S
C1195 C1203 1.433 . S
C1196 H1192 0.929 . S
C1196 C1198 1.378 . S
C1196 C1200 1.350 . S
C1197 C1200 1.463 . S
C1197 C1202 1.350 . S
C1197 N1205 1.427 . S
C1198 H1189 0.930 . S
C1198 C1196 1.378 . S
C1198 C1199 1.367 . S
C1199 C1198 1.367 . S
C1199 C1201 1.433 . S
C1200 C1196 1.350 . S
C1200 C1197 1.463 . S
C1200 N1204 1.427 . S
C1201 H1191 0.929 . S
C1201 C1199 1.433 . S
C1201 N1204 1.384 . S
C1202 H1193 0.929 . S
C1202 C1194 1.378 . S
C1202 C1197 1.350 . S
C1203 H1190 0.929 . S
C1203 C1195 1.433 . S
C1203 N1205 1.384 . S
N1204 C1200 1.427 . S
N1204 C1201 1.384 . S
N1205 C1197 1.427 . S
N1205 C1203 1.384 . S
H1206 C1212 0.930 . S
H1207 C1216 0.930 . S
H1208 C1221 0.929 1_545 S
H1209 C1219 0.929 . S
H1210 C1214 0.901 1_545 S
H1211 C1220 0.929 . S
C1212 H1206 0.930 . S
C1212 C1213 1.367 . S
C1212 C1220 1.378 . S
C1213 C1212 1.367 . S
C1213 C1221 1.433 . S
C1214 H1210 0.901 1_565 S
C1214 C1216 1.378 . S
C1214 C1218 1.350 . S
C1215 C1218 1.463 . S
C1215 C1220 1.350 . S
C1215 N1223 1.427 . S
C1216 H1207 0.930 . S
C1216 C1214 1.378 . S
C1216 C1217 1.367 . S
C1217 C1216 1.367 . S
C1217 C1219 1.433 . S
C1218 C1214 1.350 . S
C1218 C1215 1.463 . S
C1218 N1222 1.427 . S
C1219 H1209 0.929 . S
C1219 C1217 1.433 . S
C1219 N1222 1.384 . S
C1220 H1211 0.929 . S
C1220 C1212 1.378 . S
C1220 C1215 1.350 . S
C1221 H1208 0.929 1_565 S
C1221 C1213 1.433 . S
C1221 N1223 1.384 . S
N1222 C1218 1.427 . S
N1222 C1219 1.384 . S
N1223 C1215 1.427 . S
N1223 C1221 1.384 . S
H1224 C1230 0.930 . S
H1225 C1234 0.930 . S
H1226 C1239 0.929 . S
H1227 C1237 0.929 . S
H1228 C1232 0.929 . S
H1229 C1238 0.929 . S
C1230 H1224 0.930 . S
C1230 C1231 1.367 . S
C1230 C1238 1.378 . S
C1231 C1230 1.367 . S
C1231 C1239 1.433 . S
C1232 H1228 0.929 . S
C1232 C1234 1.378 . S
C1232 C1236 1.350 . S
C1233 C1236 1.463 . S
C1233 C1238 1.350 . S
C1233 N1241 1.427 . S
C1234 H1225 0.930 . S
C1234 C1232 1.378 . S
C1234 C1235 1.367 . S
C1235 C1234 1.367 . S
C1235 C1237 1.433 . S
C1236 C1232 1.350 . S
C1236 C1233 1.463 . S
C1236 N1240 1.427 . S
C1237 H1227 0.929 . S
C1237 C1235 1.433 . S
C1237 N1240 1.384 . S
C1238 H1229 0.929 . S
C1238 C1230 1.378 . S
C1238 C1233 1.350 . S
C1239 H1226 0.929 . S
C1239 C1231 1.433 . S
C1239 N1241 1.384 . S
N1240 C1236 1.427 . S
N1240 C1237 1.384 . S
N1241 C1233 1.427 . S
N1241 C1239 1.384 . S
H1242 C1248 0.930 . S
H1243 C1252 0.930 . S
H1244 C1257 0.929 . S
H1245 C1255 0.929 . S
H1246 C1250 0.929 . S
H1247 C1256 0.929 . S
C1248 H1242 0.930 . S
C1248 C1249 1.367 . S
C1248 C1256 1.378 . S
C1249 C1248 1.367 . S
C1249 C1257 1.433 . S
C1250 H1246 0.929 . S
C1250 C1252 1.378 . S
C1250 C1254 1.350 . S
C1251 C1254 1.463 . S
C1251 C1256 1.350 . S
C1251 N1259 1.427 . S
C1252 H1243 0.930 . S
C1252 C1250 1.378 . S
C1252 C1253 1.367 . S
C1253 C1252 1.367 . S
C1253 C1255 1.433 . S
C1254 C1250 1.350 . S
C1254 C1251 1.463 . S
C1254 N1258 1.427 . S
C1255 H1245 0.929 . S
C1255 C1253 1.433 . S
C1255 N1258 1.384 . S
C1256 H1247 0.929 . S
C1256 C1248 1.378 . S
C1256 C1251 1.350 . S
C1257 H1244 0.929 . S
C1257 C1249 1.433 . S
C1257 N1259 1.384 . S
N1258 C1254 1.427 . S
N1258 C1255 1.384 . S
N1259 C1251 1.427 . S
N1259 C1257 1.384 . S
H1260 C1266 0.930 . S
H1261 C1270 0.930 . S
H1262 C1275 0.929 . S
H1263 C1273 0.929 . S
H1264 C1268 0.929 . S
H1265 C1274 0.929 . S
C1266 H1260 0.930 . S
C1266 C1267 1.367 1_545 S
C1266 C1274 1.378 . S
C1267 C1266 1.367 1_565 S
C1267 C1275 1.433 . S
C1268 H1264 0.929 . S
C1268 C1270 1.378 . S
C1268 C1272 1.350 1_565 S
C1269 C1272 1.463 . S
C1269 C1274 1.350 . S
C1269 N1277 1.427 1_545 S
C1270 H1261 0.930 . S
C1270 C1268 1.378 . S
C1270 C1271 1.367 1_565 S
C1271 C1270 1.367 1_545 S
C1271 C1273 1.433 . S
C1272 C1268 1.350 1_545 S
C1272 C1269 1.463 . S
C1272 N1276 1.427 . S
C1273 H1263 0.929 . S
C1273 C1271 1.433 . S
C1273 N1276 1.384 . S
C1274 H1265 0.929 . S
C1274 C1266 1.378 . S
C1274 C1269 1.350 . S
C1275 H1262 0.929 . S
C1275 C1267 1.433 . S
C1275 N1277 1.384 . S
N1276 C1272 1.427 . S
N1276 C1273 1.384 . S
N1277 C1269 1.427 1_565 S
N1277 C1275 1.384 . S
H1278 C1284 0.930 . S
H1279 C1288 0.930 . S
H1280 C1293 0.929 . S
H1281 C1291 0.929 . S
H1282 C1286 0.926 . S
H1283 C1292 0.929 . S
C1284 H1278 0.930 . S
C1284 C1285 1.367 . S
C1284 C1292 1.378 . S
C1285 C1284 1.367 . S
C1285 C1293 1.433 . S
C1286 H1282 0.926 . S
C1286 C1288 1.378 . S
C1286 C1290 1.350 1_655 S
C1287 C1290 1.463 . S
C1287 C1292 1.350 . S
C1287 N1295 1.427 . S
C1288 H1279 0.930 . S
C1288 C1286 1.378 . S
C1288 C1289 1.367 . S
C1289 C1288 1.367 . S
C1289 C1291 1.433 . S
C1290 C1286 1.350 1_455 S
C1290 C1287 1.463 . S
C1290 N1294 1.429 1_455 S
C1291 H1281 0.929 . S
C1291 C1289 1.433 . S
C1291 N1294 1.384 . S
C1292 H1283 0.929 . S
C1292 C1284 1.378 . S
C1292 C1287 1.350 . S
C1293 H1280 0.929 . S
C1293 C1285 1.433 . S
C1293 N1295 1.384 . S
N1294 C1290 1.429 1_655 S
N1294 C1291 1.384 . S
N1295 C1287 1.427 . S
N1295 C1293 1.384 . S
H1296 C1302 0.930 . S
H1297 C1306 0.930 . S
H1298 C1311 0.929 . S
H1299 C1309 0.929 . S
H1300 C1304 0.929 . S
H1301 C1310 0.929 . S
C1302 H1296 0.930 . S
C1302 C1303 1.367 . S
C1302 C1310 1.378 . S
C1303 C1302 1.367 . S
C1303 C1311 1.433 . S
C1304 H1300 0.929 . S
C1304 C1306 1.378 . S
C1304 C1308 1.350 . S
C1305 C1308 1.463 . S
C1305 C1310 1.350 . S
C1305 N1313 1.427 . S
C1306 H1297 0.930 . S
C1306 C1304 1.378 . S
C1306 C1307 1.367 . S
C1307 C1306 1.367 . S
C1307 C1309 1.433 . S
C1308 C1304 1.350 . S
C1308 C1305 1.463 . S
C1308 N1312 1.427 . S
C1309 H1299 0.929 . S
C1309 C1307 1.433 . S
C1309 N1312 1.384 . S
C1310 H1301 0.929 . S
C1310 C1302 1.378 . S
C1310 C1305 1.350 . S
C1311 H1298 0.929 . S
C1311 C1303 1.433 . S
C1311 N1313 1.384 . S
N1312 C1308 1.427 . S
N1312 C1309 1.384 . S
N1313 C1305 1.427 . S
N1313 C1311 1.384 . S
H1314 C1320 0.930 . S
H1315 C1324 0.930 . S
H1316 C1329 0.929 . S
H1317 C1327 0.929 . S
H1318 C1322 0.929 . S
H1319 C1328 0.929 . S
C1320 H1314 0.930 . S
C1320 C1321 1.367 1_655 S
C1320 C1328 1.378 . S
C1321 C1320 1.367 1_455 S
C1321 C1329 1.433 . S
C1322 H1318 0.929 . S
C1322 C1324 1.378 . S
C1322 C1326 1.350 . S
C1323 C1326 1.463 . S
C1323 C1328 1.350 1_455 S
C1323 N1331 1.427 . S
C1324 H1315 0.930 . S
C1324 C1322 1.378 . S
C1324 C1325 1.367 1_455 S
C1325 C1324 1.367 1_655 S
C1325 C1327 1.433 . S
C1326 C1322 1.350 . S
C1326 C1323 1.463 . S
C1326 N1330 1.427 1_455 S
C1327 H1317 0.929 . S
C1327 C1325 1.433 . S
C1327 N1330 1.384 . S
C1328 H1319 0.929 . S
C1328 C1320 1.378 . S
C1328 C1323 1.350 1_655 S
C1329 H1316 0.929 . S
C1329 C1321 1.433 . S
C1329 N1331 1.384 . S
N1330 C1326 1.427 1_655 S
N1330 C1327 1.384 . S
N1331 C1323 1.427 . S
N1331 C1329 1.384 . S
H1332 C1338 0.930 . S
H1333 C1342 0.930 . S
H1334 C1347 0.929 . S
H1335 C1345 0.929 . S
H1336 C1340 0.929 . S
H1337 C1346 0.929 . S
C1338 H1332 0.930 . S
C1338 C1339 1.367 . S
C1338 C1346 1.378 . S
C1339 C1338 1.367 . S
C1339 C1347 1.433 . S
C1340 H1336 0.929 . S
C1340 C1342 1.378 . S
C1340 C1344 1.350 . S
C1341 C1344 1.463 . S
C1341 C1346 1.350 . S
C1341 N1349 1.427 . S
C1342 H1333 0.930 . S
C1342 C1340 1.378 . S
C1342 C1343 1.367 . S
C1343 C1342 1.367 . S
C1343 C1345 1.433 . S
C1344 C1340 1.350 . S
C1344 C1341 1.463 . S
C1344 N1348 1.427 . S
C1345 H1335 0.929 . S
C1345 C1343 1.433 . S
C1345 N1348 1.384 . S
C1346 H1337 0.929 . S
C1346 C1338 1.378 . S
C1346 C1341 1.350 . S
C1347 H1334 0.929 . S
C1347 C1339 1.433 . S
C1347 N1349 1.384 . S
N1348 C1344 1.427 . S
N1348 C1345 1.384 . S
N1349 C1341 1.427 . S
N1349 C1347 1.384 . S
H1350 C1356 0.930 . S
H1351 C1360 0.930 . S
H1352 C1365 0.929 . S
H1353 C1363 0.929 . S
H1354 C1358 0.929 . S
H1355 C1364 0.929 . S
C1356 H1350 0.930 . S
C1356 C1357 1.367 . S
C1356 C1364 1.378 . S
C1357 C1356 1.367 . S
C1357 C1365 1.433 1_545 S
C1358 H1354 0.929 . S
C1358 C1360 1.378 . S
C1358 C1362 1.350 1_565 S
C1359 C1362 1.463 . S
C1359 C1364 1.350 . S
C1359 N1367 1.427 1_545 S
C1360 H1351 0.930 . S
C1360 C1358 1.378 . S
C1360 C1361 1.367 . S
C1361 C1360 1.367 . S
C1361 C1363 1.433 1_565 S
C1362 C1358 1.350 1_545 S
C1362 C1359 1.463 . S
C1362 N1366 1.427 . S
C1363 H1353 0.929 . S
C1363 C1361 1.433 1_545 S
C1363 N1366 1.384 . S
C1364 H1355 0.929 . S
C1364 C1356 1.378 . S
C1364 C1359 1.350 . S
C1365 H1352 0.929 . S
C1365 C1357 1.433 1_565 S
C1365 N1367 1.384 . S
N1366 C1362 1.427 . S
N1366 C1363 1.384 . S
N1367 C1359 1.427 1_565 S
N1367 C1365 1.384 . S
C403 C251 1.198 . S
C407 C6 1.200 . S
C421 C27 1.200 . S
C425 C207 1.192 . S
C439 C49 1.196 . S
C443 C229 1.201 . S
C457 C335 1.184 . S
C461 C51 1.190 . S
C475 C9 1.188 . S
C479 C356 1.199 . S
C493 C29 1.201 . S
C497 C378 1.195 . S
C511 C314 1.189 . S
C515 C75 1.198 . S
C529 C95 1.186 . S
C533 C268 1.185 . S
C547 C117 1.183 . S
C551 C292 1.191 . S
C565 C139 1.186 . S
C569 C115 1.185 . S
C583 C72 1.187 . S
C587 C161 1.184 . S
C601 C183 1.188 . S
C605 C93 1.197 . S
C619 C383 1.186 . S
C623 C138 1.185 . S
C637 C338 1.192 1_565 S
C641 C160 1.184 . S
C655 C361 1.185 1_455 S
C659 C182 1.193 . S
C673 C71 1.201 . S
C677 C185 1.195 . S
C691 C92 1.199 . S
C695 C141 1.199 . S
C709 C163 1.197 . S
C713 C114 1.188 . S
C727 C50 1.197 . S
C731 C205 1.186 . S
C745 C4 1.187 . S
C749 C227 1.184 . S
C763 C249 1.194 . S
C767 C28 1.201 . S
C781 C247 1.196 . S
C785 C271 1.201 . S
C799 C203 1.190 . S
C803 C294 1.184 1_565 S
C817 C225 1.200 . S
C821 C316 1.197 1_455 S
C835 C270 1.187 . S
C839 C119 1.197 . S
C853 C291 1.184 . S
C857 C74 1.194 . S
C871 C313 1.199 . S
C875 C97 1.199 . S
C889 C315 1.199 . S
C893 C202 1.200 . S
C907 C273 1.197 . S
C911 C224 1.187 1_545 S
C925 C293 1.188 . S
C929 C246 1.199 1_655 S
C943 C339 1.198 . S
C947 C180 1.188 . S
C961 C359 1.198 . S
C965 C136 1.200 1_545 S
C979 C158 1.184 1_655 S
C983 C381 1.190 . S
C997 C7 1.184 . S
C1001 C379 1.191 . S
C1015 C30 1.190 . S
C1019 C336 1.183 . S
C1033 C357 1.184 . S
C1037 C52 1.188 . S
C1051 C159 1.431 . S
C1055 C8 1.430 . S
C1069 C181 1.430 . S
C1073 C31 1.430 . S
C1087 C137 1.431 . S
C1091 C53 1.430 . S
C1105 C295 1.431 1_554 S
C1109 C48 1.429 . S
C1123 C5 1.430 . S
C1127 C317 1.431 1_554 S
C1141 C26 1.429 . S
C1145 C272 1.430 1_554 S
C1159 C70 1.430 . S
C1163 C360 1.429 . S
C1177 C94 1.431 . S
C1181 C382 1.431 . S
C1195 C116 1.431 . S
C1199 C337 1.431 . S
C1213 C118 1.429 . S
C1217 C226 1.431 1_556 S
C1231 C248 1.431 1_556 S
C1235 C73 1.429 . S
C1249 C96 1.430 . S
C1253 C204 1.431 1_556 S
C1267 C140 1.431 . S
C1271 C290 1.430 . S
C1285 C162 1.431 . S
C1289 C312 1.429 . S
C1303 C184 1.429 . S
C1307 C269 1.431 . S
C1321 C250 1.431 . S
C1325 C358 1.430 . S
C1339 C380 1.429 . S
C1343 C206 1.431 . S
C1357 C334 1.430 . S
C1361 C228 1.430 . S
