# Generated by pormake.
# Topology bcs, (6)-cn, num edge types: 1
# Building blocks:
#     Node 0, Type 0, BuildingBlock: CUWYAW_clean_sbu_0, # of connection points: 6
#     Node 1, Type 0, BuildingBlock: CUWYAW_clean_sbu_0, # of connection points: 6
#     Node 2, Type 0, BuildingBlock: CUWYAW_clean_sbu_0, # of connection points: 6
#     Node 3, Type 0, BuildingBlock: CUWYAW_clean_sbu_0, # of connection points: 6
#     Node 4, Type 0, BuildingBlock: CUWYAW_clean_sbu_0, # of connection points: 6
#     Node 5, Type 0, BuildingBlock: CUWYAW_clean_sbu_0, # of connection points: 6
#     Node 6, Type 0, BuildingBlock: CUWYAW_clean_sbu_0, # of connection points: 6
#     Node 7, Type 0, BuildingBlock: CUWYAW_clean_sbu_0, # of connection points: 6
#     Node 8, Type 0, BuildingBlock: CUWYAW_clean_sbu_0, # of connection points: 6
#     Node 9, Type 0, BuildingBlock: CUWYAW_clean_sbu_0, # of connection points: 6
#     Node 10, Type 0, BuildingBlock: CUWYAW_clean_sbu_0, # of connection points: 6
#     Node 11, Type 0, BuildingBlock: CUWYAW_clean_sbu_0, # of connection points: 6
#     Node 12, Type 0, BuildingBlock: CUWYAW_clean_sbu_0, # of connection points: 6
#     Node 13, Type 0, BuildingBlock: CUWYAW_clean_sbu_0, # of connection points: 6
#     Node 14, Type 0, BuildingBlock: CUWYAW_clean_sbu_0, # of connection points: 6
#     Node 15, Type 0, BuildingBlock: CUWYAW_clean_sbu_0, # of connection points: 6
#     Edge 16, Type (0, 0), BuildingBlock: KIFKEQ_clean_linker_1, # of connection points: 2
#     Edge 17, Type (0, 0), BuildingBlock: KIFKEQ_clean_linker_1, # of connection points: 2
#     Edge 18, Type (0, 0), BuildingBlock: KIFKEQ_clean_linker_1, # of connection points: 2
#     Edge 19, Type (0, 0), BuildingBlock: KIFKEQ_clean_linker_1, # of connection points: 2
#     Edge 20, Type (0, 0), BuildingBlock: KIFKEQ_clean_linker_1, # of connection points: 2
#     Edge 21, Type (0, 0), BuildingBlock: KIFKEQ_clean_linker_1, # of connection points: 2
#     Edge 22, Type (0, 0), BuildingBlock: KIFKEQ_clean_linker_1, # of connection points: 2
#     Edge 23, Type (0, 0), BuildingBlock: KIFKEQ_clean_linker_1, # of connection points: 2
#     Edge 24, Type (0, 0), BuildingBlock: KIFKEQ_clean_linker_1, # of connection points: 2
#     Edge 25, Type (0, 0), BuildingBlock: KIFKEQ_clean_linker_1, # of connection points: 2
#     Edge 26, Type (0, 0), BuildingBlock: KIFKEQ_clean_linker_1, # of connection points: 2
#     Edge 27, Type (0, 0), BuildingBlock: KIFKEQ_clean_linker_1, # of connection points: 2
#     Edge 28, Type (0, 0), BuildingBlock: KIFKEQ_clean_linker_1, # of connection points: 2
#     Edge 29, Type (0, 0), BuildingBlock: KIFKEQ_clean_linker_1, # of connection points: 2
#     Edge 30, Type (0, 0), BuildingBlock: KIFKEQ_clean_linker_1, # of connection points: 2
#     Edge 31, Type (0, 0), BuildingBlock: KIFKEQ_clean_linker_1, # of connection points: 2
#     Edge 32, Type (0, 0), BuildingBlock: KIFKEQ_clean_linker_1, # of connection points: 2
#     Edge 33, Type (0, 0), BuildingBlock: KIFKEQ_clean_linker_1, # of connection points: 2
#     Edge 34, Type (0, 0), BuildingBlock: KIFKEQ_clean_linker_1, # of connection points: 2
#     Edge 35, Type (0, 0), BuildingBlock: KIFKEQ_clean_linker_1, # of connection points: 2
#     Edge 36, Type (0, 0), BuildingBlock: KIFKEQ_clean_linker_1, # of connection points: 2
#     Edge 37, Type (0, 0), BuildingBlock: KIFKEQ_clean_linker_1, # of connection points: 2
#     Edge 38, Type (0, 0), BuildingBlock: KIFKEQ_clean_linker_1, # of connection points: 2
#     Edge 39, Type (0, 0), BuildingBlock: KIFKEQ_clean_linker_1, # of connection points: 2
#     Edge 40, Type (0, 0), BuildingBlock: KIFKEQ_clean_linker_1, # of connection points: 2
#     Edge 41, Type (0, 0), BuildingBlock: KIFKEQ_clean_linker_1, # of connection points: 2
#     Edge 42, Type (0, 0), BuildingBlock: KIFKEQ_clean_linker_1, # of connection points: 2
#     Edge 43, Type (0, 0), BuildingBlock: KIFKEQ_clean_linker_1, # of connection points: 2
#     Edge 44, Type (0, 0), BuildingBlock: KIFKEQ_clean_linker_1, # of connection points: 2
#     Edge 45, Type (0, 0), BuildingBlock: KIFKEQ_clean_linker_1, # of connection points: 2
#     Edge 46, Type (0, 0), BuildingBlock: KIFKEQ_clean_linker_1, # of connection points: 2
#     Edge 47, Type (0, 0), BuildingBlock: KIFKEQ_clean_linker_1, # of connection points: 2
#     Edge 48, Type (0, 0), BuildingBlock: KIFKEQ_clean_linker_1, # of connection points: 2
#     Edge 49, Type (0, 0), BuildingBlock: KIFKEQ_clean_linker_1, # of connection points: 2
#     Edge 50, Type (0, 0), BuildingBlock: KIFKEQ_clean_linker_1, # of connection points: 2
#     Edge 51, Type (0, 0), BuildingBlock: KIFKEQ_clean_linker_1, # of connection points: 2
#     Edge 52, Type (0, 0), BuildingBlock: KIFKEQ_clean_linker_1, # of connection points: 2
#     Edge 53, Type (0, 0), BuildingBlock: KIFKEQ_clean_linker_1, # of connection points: 2
#     Edge 54, Type (0, 0), BuildingBlock: KIFKEQ_clean_linker_1, # of connection points: 2
#     Edge 55, Type (0, 0), BuildingBlock: KIFKEQ_clean_linker_1, # of connection points: 2
#     Edge 56, Type (0, 0), BuildingBlock: KIFKEQ_clean_linker_1, # of connection points: 2
#     Edge 57, Type (0, 0), BuildingBlock: KIFKEQ_clean_linker_1, # of connection points: 2
#     Edge 58, Type (0, 0), BuildingBlock: KIFKEQ_clean_linker_1, # of connection points: 2
#     Edge 59, Type (0, 0), BuildingBlock: KIFKEQ_clean_linker_1, # of connection points: 2
#     Edge 60, Type (0, 0), BuildingBlock: KIFKEQ_clean_linker_1, # of connection points: 2
#     Edge 61, Type (0, 0), BuildingBlock: KIFKEQ_clean_linker_1, # of connection points: 2
#     Edge 62, Type (0, 0), BuildingBlock: KIFKEQ_clean_linker_1, # of connection points: 2
#     Edge 63, Type (0, 0), BuildingBlock: KIFKEQ_clean_linker_1, # of connection points: 2
# Relax obj value: 0.256
# Max RMSD: 0.224
# Mean RMSD: 0.162
data_MOF--net-bcs--node1-CUWYAW_clean_sbu_0--edge1-KIFKEQ_clean_linker_1
_symmetry_space_group_name_H-M    P1
_symmetry_Int_Tables_number       1
_symmetry_cell_setting            triclinic
loop_
_symmetry_equiv_pos_as_xyz
'x, y, z'
_cell_length_a     41.916887
_cell_length_b     41.753835
_cell_length_c     39.652096
_cell_angle_alpha  79.201747
_cell_angle_beta   112.78161
_cell_angle_gamma 107.04366
loop_
_atom_site_label
_atom_site_type_symbol
_atom_site_fract_x
_atom_site_fract_y
_atom_site_fract_z
_atom_type_partial_charge
C0 C 1.06132 0.09336 0.08289 0.0
Eu1 Eu 0.0856 0.06227 0.04715 0.0
C2 C 1.04369 0.11052 0.10097 0.0
C3 C 1.06278 0.1295 0.13213 0.0
C4 C 1.04564 0.14493 0.14784 0.0
C5 C 1.00813 0.14275 0.13339 0.0
C6 C 0.98929 0.12366 0.10221 0.0
C7 C 1.00634 0.10818 0.08674 0.0
C8 C 0.12611 0.09046 0.9964 0.0
C9 C 1.02899 0.06522 0.96073 0.0
C10 C 0.09823 0.97285 0.96009 0.0
Eu11 Eu 1.07428 1.00505 0.99518 0.0
C12 C 0.11509 0.95637 0.9405 0.0
C13 C 0.09924 0.92419 0.92652 0.0
C14 C 0.11671 0.90826 0.91174 0.0
C15 C 0.15107 0.9236 0.90924 0.0
C16 C 0.16651 0.95605 0.92273 0.0
C17 C 0.14939 0.9716 0.93812 0.0
C18 C 1.03433 0.97675 0.04654 0.0
C19 C 0.13265 1.00383 0.08071 0.0
O20 O 1.0416 0.07338 0.05668 0.0
O21 O 0.09567 0.09627 0.09076 0.0
O22 O 0.12519 0.10477 1.02289 0.0
O23 O 0.10562 0.06042 1.00044 0.0
O24 O 1.04309 0.07567 0.99409 0.0
O25 O 1.03692 0.03882 0.95331 0.0
O26 O 0.11795 0.99581 0.98304 0.0
O27 O 1.06404 0.96804 0.95455 0.0
O28 O 1.03567 0.96229 1.02044 0.0
O29 O 1.05452 1.00685 0.04214 0.0
O30 O 0.11993 0.99472 0.04688 0.0
O31 O 0.12225 1.0281 0.08895 0.0
H32 H 0.09137 0.13257 0.14465 0.0
H33 H 1.06233 0.15913 0.17136 0.0
H34 H 0.96068 0.12003 0.08952 0.0
H35 H 0.98975 0.09411 0.06305 0.0
H36 H 1.0733 0.91068 0.9277 0.0
H37 H 0.10281 0.88365 0.90192 0.0
H38 H 0.1927 0.96951 0.92231 0.0
H39 H 0.1635 0.996 0.94852 0.0
C40 C 0.40737 0.85224 0.24341 0.0
Eu41 Eu 0.35874 0.80276 0.25767 0.0
C42 C 0.40754 0.88665 0.22577 0.0
C43 C 0.38797 0.89237 0.18837 0.0
C44 C 0.38928 0.9251 0.17196 0.0
C45 C 0.40999 0.95288 0.1926 0.0
C46 C 0.42802 0.94704 0.23047 0.0
C47 C 0.42698 0.91425 0.24682 0.0
C48 C 0.30961 0.75569 0.21317 0.0
C49 C 0.28664 0.83381 0.23474 0.0
C50 C 0.25261 0.71531 0.29833 0.0
Eu51 Eu 0.30119 0.76491 0.28424 0.0
C52 C 0.25484 0.68338 0.32078 0.0
C53 C 0.28654 0.68027 0.34984 0.0
C54 C 0.28859 0.64988 0.3713 0.0
C55 C 0.25887 0.62219 0.36417 0.0
C56 C 0.22768 0.62507 0.33397 0.0
C57 C 0.22574 0.65546 0.31239 0.0
C58 C 0.34964 0.8119 0.32928 0.0
C59 C 0.37362 0.73393 0.30705 0.0
O60 O 0.40259 0.84658 0.27486 0.0
O61 O 0.3897 0.82723 0.22258 0.0
O62 O 0.34372 0.76135 0.22043 0.0
O63 O 0.30319 0.7756 0.22865 0.0
O64 O 0.3204 0.839 0.23713 0.0
O65 O 0.27134 0.80481 0.24896 0.0
O66 O 0.26085 0.71827 0.26911 0.0
O67 O 0.26677 0.74245 0.31613 0.0
O68 O 0.31557 0.80482 0.32278 0.0
O69 O 0.35662 0.79262 0.31345 0.0
O70 O 0.34022 0.72919 0.30568 0.0
O71 O 0.38854 0.76247 0.2918 0.0
H72 H 0.37232 0.87164 0.17147 0.0
H73 H 0.37556 0.92845 0.14261 0.0
H74 H 0.44391 0.96781 0.24726 0.0
H75 H 0.44186 0.91046 0.27587 0.0
H76 H 0.3095 0.70151 0.3564 0.0
H77 H 0.313 0.64836 0.39422 0.0
H78 H 0.20409 0.60441 0.32813 0.0
H79 H 0.20128 0.65738 0.2897 0.0
C80 C 0.6119 1.02251 0.44673 0.0
Eu81 Eu 0.5922 0.03729 0.4951 0.0
C82 C 0.61326 0.98963 0.44023 0.0
C83 C 0.63768 0.98727 0.42537 0.0
C84 C 0.63934 0.95578 0.42005 0.0
C85 C 0.61633 0.92637 0.42921 0.0
C86 C 0.59196 0.92877 0.44419 0.0
C87 C 0.59082 0.9602 0.45019 0.0
C88 C 0.62724 0.08789 0.54044 0.0
C89 C 0.61635 0.98517 0.56923 0.0
C90 C 0.54733 0.04854 0.6029 0.0
Eu91 Eu 0.56321 1.03233 0.55242 0.0
C92 C 0.5544 0.08166 0.61565 0.0
C93 C 0.52648 0.09203 0.61786 0.0
C94 C 0.53258 0.12388 0.62859 0.0
C95 C 0.56679 0.14586 0.63746 0.0
C96 C 0.59475 0.13559 0.63503 0.0
C97 C 0.58854 0.10384 0.6239 0.0
C98 C 0.52739 0.98142 0.50753 0.0
C99 C 0.53869 0.08414 0.47786 0.0
O100 O 0.5799 1.02609 0.43946 0.0
O101 O 0.63462 0.03397 0.47791 0.0
O102 O 0.62062 0.09201 0.50535 0.0
O103 O 0.61661 0.05733 0.54997 0.0
O104 O 0.61184 0.99258 0.53387 0.0
O105 O 0.60211 0.99993 0.58453 0.0
O106 O 0.57532 0.03717 0.60993 0.0
O107 O 0.52442 0.04381 0.56962 0.0
O108 O 0.5321 0.97832 0.54219 0.0
O109 O 0.53886 1.01173 0.49772 0.0
O110 O 0.5434 0.07687 0.51332 0.0
O111 O 0.55317 0.06956 0.46258 0.0
H112 H 0.65541 1.00969 0.41795 0.0
H113 H 0.65815 0.95439 0.40812 0.0
H114 H 0.57414 0.90638 0.45155 0.0
H115 H 0.57246 0.96154 0.46267 0.0
H116 H 0.49996 0.07546 0.61134 0.0
H117 H 0.51069 0.13098 0.63094 0.0
H118 H 0.62132 0.15206 0.64177 0.0
H119 H 0.61049 0.09666 0.62186 0.0
C120 C 0.28023 0.34998 0.76668 0.0
Eu121 Eu 0.31312 0.30787 0.76297 0.0
C122 C 0.25085 0.34337 0.78078 0.0
C123 C 0.21551 0.32837 0.75952 0.0
C124 C 0.1889 0.31803 0.77499 0.0
C125 C 0.19729 0.32219 0.81201 0.0
C126 C 0.23238 0.33779 0.83294 0.0
C127 C 0.25878 0.34847 0.81745 0.0
C128 C 0.28102 0.26055 0.7142 0.0
C129 C 0.28683 0.23902 0.82048 0.0
C130 C 0.38382 0.21686 0.78051 0.0
Eu131 Eu 0.34946 0.25891 0.78144 0.0
C132 C 0.41681 0.2232 0.77244 0.0
C133 C 0.44927 0.2216 0.80109 0.0
C134 C 0.48104 0.2301 0.79404 0.0
C135 C 0.48093 0.24015 0.75811 0.0
C136 C 0.44842 0.24185 0.72954 0.0
C137 C 0.41677 0.23353 0.7366 0.0
C138 C 0.3811 0.30606 0.8304 0.0
C139 C 0.37514 0.32765 0.72327 0.0
O140 O 0.3109 0.34648 0.79132 0.0
O141 O 0.27283 0.33675 0.73633 0.0
O142 O 0.28725 0.2926 0.70483 0.0
O143 O 0.29267 0.25486 0.74865 0.0
O144 O 0.2864 0.27122 0.80636 0.0
O145 O 0.30879 0.22672 0.81184 0.0
O146 O 0.35551 0.22247 0.75306 0.0
O147 O 0.38762 0.22827 0.81069 0.0
O148 O 0.37506 0.27405 0.8396 0.0
O149 O 0.36981 0.3118 0.79596 0.0
O150 O 0.37631 0.29573 0.73818 0.0
O151 O 0.35262 0.33973 0.73122 0.0
H152 H 0.20849 0.32403 0.73116 0.0
H153 H 0.16188 0.30656 0.75817 0.0
H154 H 0.23934 0.34234 0.86124 0.0
H155 H 0.28566 0.36009 0.8345 0.0
H156 H 0.45012 0.21402 0.82904 0.0
H157 H 0.50565 0.22856 0.81665 0.0
H158 H 0.44711 0.24861 0.70138 0.0
H159 H 0.39232 0.23526 0.71384 0.0
C160 C 0.17596 0.04015 0.55772 0.0
Eu161 Eu 0.1077 1.03284 0.53726 0.0
C162 C 0.20033 0.06388 0.54066 0.0
C163 C 0.21911 0.05139 0.52559 0.0
C164 C 0.23294 0.07143 0.49958 0.0
C165 C 0.228 0.10414 0.48829 0.0
C166 C 0.21249 0.1177 0.50613 0.0
C167 C 0.19879 0.09778 0.53215 0.0
C168 C 1.05704 0.98555 0.49434 0.0
C169 C 0.08583 0.08498 0.46415 0.0
C170 C 0.96478 0.03607 0.4848 0.0
Eu171 Eu 1.03316 0.04547 0.50463 0.0
C172 C 0.94153 1.01086 0.50212 0.0
C173 C 0.92068 1.0214 0.51621 0.0
C174 C 0.90747 1.00048 0.54223 0.0
C175 C 0.91508 0.96874 0.55471 0.0
C176 C 0.93316 0.95709 0.53802 0.0
C177 C 0.94617 0.9779 0.51191 0.0
C178 C 0.08393 0.09237 0.54826 0.0
C179 C 1.05579 0.99579 0.57917 0.0
O180 O 0.16168 0.05332 0.57414 0.0
O181 O 0.15256 1.01675 0.53692 0.0
O182 O 0.08246 0.97862 0.52403 0.0
O183 O 1.06037 1.01688 0.4879 0.0
O184 O 0.11108 0.07706 0.49448 0.0
O185 O 1.05165 0.07145 0.45842 0.0
O186 O 0.97948 1.02446 0.46747 0.0
O187 O 0.98753 0.05957 0.50587 0.0
O188 O 1.05833 0.09972 0.51896 0.0
O189 O 0.08024 0.06104 0.55391 0.0
O190 O 1.03031 1.00152 0.54803 0.0
O191 O 0.08976 1.00969 0.58442 0.0
H192 H 0.22049 1.02532 0.53162 0.0
H193 H 0.24488 0.06044 0.4862 0.0
H194 H 0.20901 0.1431 0.49831 0.0
H195 H 0.18454 0.10826 0.54331 0.0
H196 H 0.91686 0.0467 0.50917 0.0
H197 H 0.89293 1.00987 0.55402 0.0
H198 H 0.93969 0.93291 0.54708 0.0
H199 H 0.9623 0.96902 0.50169 0.0
C200 C 0.39126 0.74829 0.86833 0.0
Eu201 Eu 0.34339 0.76531 0.80826 0.0
C202 C 0.42243 0.73609 0.87307 0.0
C203 C 0.41829 0.70815 0.85552 0.0
C204 C 0.44792 0.7009 0.85365 0.0
C205 C 0.48226 0.72168 0.86874 0.0
C206 C 0.48658 0.74891 0.88754 0.0
C207 C 0.45689 0.75599 0.88973 0.0
C208 C 0.28486 0.72785 0.76069 0.0
C209 C 0.37256 0.75826 0.74065 0.0
C210 C 0.26941 0.81965 0.67624 0.0
Eu211 Eu 0.31681 0.80163 0.73605 0.0
C212 C 0.24178 0.83647 0.67204 0.0
C213 C 0.24827 0.85895 0.69748 0.0
C214 C 0.22026 0.86925 0.69917 0.0
C215 C 0.18514 0.85764 0.67518 0.0
C216 C 0.17892 0.83601 0.64879 0.0
C217 C 0.20702 0.82534 0.64742 0.0
C218 C 0.37559 0.83915 0.78346 0.0
C219 C 0.28736 0.80838 0.80364 0.0
O220 O 0.39307 0.7792 0.85364 0.0
O221 O 0.35949 0.72835 0.85441 0.0
O222 O 0.29002 0.72657 0.79551 0.0
O223 O 0.3111 0.74773 0.75366 0.0
O224 O 0.37563 0.75287 0.7762 0.0
O225 O 0.34993 0.77643 0.71826 0.0
O226 O 0.2649 0.78946 0.69304 0.0
O227 O 0.30263 0.83729 0.68813 0.0
O228 O 0.3698 0.8409 0.74845 0.0
O229 O 0.34944 0.81921 0.7906 0.0
O230 O 0.28595 0.81532 0.76865 0.0
O231 O 0.30844 0.78864 0.82569 0.0
H232 H 0.39209 0.69251 0.84206 0.0
H233 H 0.44382 0.67901 0.8401 0.0
H234 H 0.51273 0.76517 0.89976 0.0
H235 H 0.46065 0.77795 0.90301 0.0
H236 H 0.27479 0.86746 0.71721 0.0
H237 H 0.22611 0.88574 0.71994 0.0
H238 H 0.15238 0.82722 0.62924 0.0
H239 H 0.20144 0.80753 0.628 0.0
C240 C 0.58508 0.13527 0.9794 0.0
Eu241 Eu 0.57934 0.07138 0.99878 0.0
C242 C 0.57878 0.16075 0.99552 0.0
C243 C 0.56624 0.18806 0.97344 0.0
C244 C 0.55576 0.2097 0.98794 0.0
C245 C 0.5577 0.20427 0.02475 0.0
C246 C 0.57142 0.17746 0.047 0.0
C247 C 0.58171 0.15588 0.0325 0.0
C248 C 0.54099 1.02057 0.95417 0.0
C249 C 0.51947 0.04566 0.03674 0.0
C250 C 0.5615 0.93769 0.05564 0.0
Eu251 Eu 0.56951 1.00207 0.03855 0.0
C252 C 0.56738 0.91215 0.0392 0.0
C253 C 0.57802 0.88383 0.06075 0.0
C254 C 0.58784 0.86175 0.04616 0.0
C255 C 0.58724 0.86777 1.00979 0.0
C256 C 0.57534 0.89563 0.98797 0.0
C257 C 0.56558 0.91761 1.00255 0.0
C258 C 0.60836 0.0525 0.08381 0.0
C259 C 0.63014 1.02826 1.00146 0.0
O260 O 0.61228 0.12266 0.99988 0.0
O261 O 0.5566 0.11215 0.96403 0.0
O262 O 0.56319 0.04689 0.94586 0.0
O263 O 0.53882 1.02318 0.9843 0.0
O264 O 0.54382 0.07149 0.02987 0.0
O265 O 0.52048 1.01449 0.03647 0.0
O266 O 0.53516 0.95137 0.03487 0.0
O267 O 0.59031 0.95992 0.07228 0.0
O268 O 0.58705 1.02547 0.09242 0.0
O269 O 0.61001 0.05039 0.05323 0.0
O270 O 0.60587 1.00234 1.00835 0.0
O271 O 0.62889 0.05942 1.0015 0.0
H272 H 0.56348 0.19201 0.94475 0.0
H273 H 0.54544 0.23023 0.97017 0.0
H274 H 0.57259 0.17209 0.0752 0.0
H275 H 0.59067 0.13459 0.04989 0.0
H276 H 0.57975 0.87935 0.08915 0.0
H277 H 0.59663 0.84039 0.06357 0.0
H278 H 0.57516 0.90144 0.96012 0.0
H279 H 0.55782 0.93955 0.98551 0.0
C280 C 0.30978 0.2845 0.36949 0.0
Eu281 Eu 0.32061 0.28924 0.30808 0.0
C282 C 0.27997 0.28211 0.38125 0.0
C283 C 0.28623 0.28215 0.41853 0.0
C284 C 0.2582 0.28026 0.43018 0.0
C285 C 0.22313 0.27766 0.40474 0.0
C286 C 0.217 0.27666 0.36735 0.0
C287 C 0.24527 0.27948 0.35569 0.0
C288 C 0.36835 0.33515 0.28256 0.0
C289 C 0.27181 0.32061 0.23074 0.0
C290 C 0.33405 0.27503 0.17592 0.0
Eu291 Eu 0.32551 0.27205 0.23827 0.0
C292 C 0.362 0.27534 0.16226 0.0
C293 C 0.35332 0.27442 0.12459 0.0
C294 C 0.37936 0.2743 0.11092 0.0
C295 C 0.41463 0.27515 0.13475 0.0
C296 C 0.42332 0.27663 0.17257 0.0
C297 C 0.39717 0.27671 0.18623 0.0
C298 C 0.27697 0.22715 0.26394 0.0
C299 C 0.37561 0.24198 0.31558 0.0
O300 O 0.30765 0.25859 0.35395 0.0
O301 O 0.32105 0.31319 0.35273 0.0
O302 O 0.35179 0.34248 0.30068 0.0
O303 O 0.36213 0.30369 0.28298 0.0
O304 O 0.276 0.31245 0.26604 0.0
O305 O 0.28921 0.30929 0.21548 0.0
O306 O 0.3388 0.3015 0.19205 0.0
O307 O 0.32201 0.2469 0.19299 0.0
O308 O 0.29484 0.2187 0.24809 0.0
O309 O 0.2837 0.25864 0.26265 0.0
O310 O 0.37088 0.24974 0.28013 0.0
O311 O 0.35808 0.25304 0.33093 0.0
H312 H 0.31295 0.28428 0.43862 0.0
H313 H 0.26445 0.28199 0.45903 0.0
H314 H 0.19047 0.2741 0.34688 0.0
H315 H 0.24008 0.27979 0.32671 0.0
H316 H 0.32625 0.27342 0.10576 0.0
H317 H 0.37159 0.27259 0.08177 0.0
H318 H 0.4503 0.27764 0.1916 0.0
H319 H 0.4043 0.27762 0.21544 0.0
C320 C 0.68441 0.5381 0.0637 0.0
Eu321 Eu 0.61564 0.52849 0.03833 0.0
C322 C 0.70956 0.56087 0.0468 0.0
C323 C 0.72638 0.54729 0.03039 0.0
C324 C 0.74052 0.56699 1.00448 0.0
C325 C 0.73793 0.60056 0.99445 0.0
C326 C 0.72464 0.61502 1.01389 0.0
C327 C 0.71084 0.59543 0.03998 0.0
C328 C 0.56652 0.4777 0.99942 0.0
C329 C 0.5812 0.56276 0.95934 0.0
C330 C 0.47012 0.52669 0.99233 0.0
Eu331 Eu 0.53823 0.53223 1.01559 0.0
C332 C 0.44731 0.51634 1.01476 0.0
C333 C 0.4601 0.52787 0.04981 0.0
C334 C 0.44463 0.51122 0.07567 0.0
C335 C 0.41609 0.48259 0.0671 0.0
C336 C 0.40146 0.47271 0.03107 0.0
C337 C 0.41701 0.48947 1.0051 0.0
C338 C 0.58839 0.58244 0.05487 0.0
C339 C 0.57329 0.50034 0.09582 0.0
O340 O 0.66768 0.5524 0.07617 0.0
O341 O 0.66299 0.51258 0.04496 0.0
O342 O 0.59791 0.48983 0.99726 0.0
O343 O 0.56352 0.49072 1.02389 0.0
O344 O 0.61115 0.5636 0.98765 0.0
O345 O 0.54981 0.54745 0.96246 0.0
O346 O 0.48388 0.50298 0.99057 0.0
O347 O 0.49354 0.5557 0.99818 0.0
O348 O 0.55827 0.56853 0.05967 0.0
O349 O 0.59008 0.57002 0.02926 0.0
O350 O 0.54269 0.50031 0.06871 0.0
O351 O 0.60436 0.51211 0.09115 0.0
H352 H 0.72609 0.52081 0.03544 0.0
H353 H 0.75159 0.55537 0.99076 0.0
H354 H 0.72226 0.64077 1.00702 0.0
H355 H 0.6987 0.60688 0.05259 0.0
H356 H 0.48381 0.54817 0.05833 0.0
H357 H 0.45689 0.51931 0.10321 0.0
H358 H 0.37914 0.45103 1.02351 0.0
H359 H 0.40697 0.47994 0.97835 0.0
C360 C 0.8869 0.24581 0.3702 0.0
Eu361 Eu 0.84139 0.26301 0.30819 0.0
C362 C 0.92295 0.24183 0.37807 0.0
C363 C 0.92843 0.22135 0.35754 0.0
C364 C 0.96288 0.22217 0.3605 0.0
C365 C 0.99265 0.24365 0.38382 0.0
C366 C 0.98724 0.26366 0.40498 0.0
C367 C 0.95266 0.26278 0.40206 0.0
C368 C 0.78209 0.22812 0.25884 0.0
C369 C 0.87283 0.25631 0.24246 0.0
C370 C 0.77676 0.32659 0.17855 0.0
Eu371 Eu 0.81896 0.30144 0.23727 0.0
C372 C 0.75489 0.3489 0.17737 0.0
C373 C 0.77046 0.37708 0.19801 0.0
C374 C 0.74919 0.39261 0.20583 0.0
C375 C 0.71199 0.38 0.1937 0.0
C376 C 0.69633 0.35317 0.17109 0.0
C377 C 0.71761 0.33782 0.16294 0.0
C378 C 0.878 0.33578 0.28753 0.0
C379 C 0.78617 0.3072 0.30258 0.0
O380 O 0.88388 0.27669 0.35981 0.0
O381 O 0.85964 0.22384 0.35045 0.0
O382 O 0.78674 0.22632 0.29362 0.0
O383 O 0.80927 0.24695 0.25266 0.0
O384 O 0.87644 0.25233 0.27814 0.0
O385 O 0.84949 0.27345 0.21946 0.0
O386 O 0.76734 0.2962 0.19332 0.0
O387 O 0.81146 0.33887 0.19026 0.0
O388 O 0.87435 0.33738 0.25317 0.0
O389 O 0.85027 0.31727 0.29253 0.0
O390 O 0.78731 0.31589 0.26856 0.0
O391 O 0.80498 0.28551 0.32416 0.0
H392 H 0.90613 0.20519 0.33851 0.0
H393 H 0.9662 0.20552 0.34484 0.0
H394 H 1.0097 0.28017 0.42349 0.0
H395 H 0.94903 0.27922 0.41773 0.0
H396 H 0.79916 0.38592 0.21011 0.0
H397 H 0.76212 0.4133 0.22318 0.0
H398 H 0.66764 0.34364 0.16017 0.0
H399 H 0.70504 0.31597 0.14724 0.0
C400 C 0.0929 0.62644 0.48939 0.0
Eu401 Eu 0.08689 0.56249 0.50775 0.0
C402 C 0.08628 0.65069 0.5069 0.0
C403 C 1.06957 0.67608 0.48564 0.0
C404 C 1.05686 0.69462 0.50153 0.0
C405 C 1.06055 0.68774 0.53879 0.0
C406 C 0.07919 0.66369 0.56034 0.0
C407 C 0.09164 0.6452 0.5445 0.0
C408 C 1.04748 0.51202 0.46309 0.0
C409 C 1.02726 0.53718 0.54588 0.0
C410 C 1.07074 0.42944 0.56777 0.0
Eu411 Eu 1.07752 0.49347 0.54842 0.0
C412 C 1.07291 0.4027 0.54976 0.0
C413 C 0.09203 0.37874 0.57038 0.0
C414 C 0.09919 0.35703 0.55266 0.0
C415 C 0.0873 0.3591 0.51408 0.0
C416 C 1.06628 0.38173 0.49369 0.0
C417 C 1.05954 0.4035 0.51133 0.0
C418 C 0.11711 0.54455 0.59269 0.0
C419 C 0.13584 0.51808 0.50884 0.0
O420 O 0.1202 0.61367 0.50914 0.0
O421 O 1.06449 0.60356 0.47337 0.0
O422 O 1.06889 0.53877 0.45426 0.0
O423 O 1.04619 0.51409 0.49388 0.0
O424 O 1.05164 0.56289 0.53892 0.0
O425 O 1.0283 0.50595 0.54593 0.0
O426 O 1.04355 0.44294 0.55042 0.0
O427 O 0.10066 0.45197 0.58054 0.0
O428 O 0.09585 0.51787 0.60187 0.0
O429 O 0.11819 0.54184 0.56205 0.0
O430 O 0.11157 0.49248 0.51615 0.0
O431 O 0.13526 0.54947 0.50871 0.0
H432 H 1.06472 0.68034 0.45645 0.0
H433 H 1.04237 0.71288 0.48424 0.0
H434 H 0.08282 0.65812 0.58922 0.0
H435 H 0.10373 0.62533 0.56135 0.0
H436 H 0.10289 0.37792 0.60007 0.0
H437 H 0.11571 0.34005 0.56913 0.0
H438 H 1.05628 0.38364 0.46396 0.0
H439 H 1.04527 0.42202 0.49479 0.0
C440 C 0.77394 0.84828 0.26025 0.0
Eu441 Eu 0.80945 0.80729 0.25947 0.0
C442 C 0.74535 0.84168 0.27549 0.0
C443 C 0.70987 0.82589 0.25545 0.0
C444 C 0.68411 0.81571 0.27205 0.0
C445 C 0.69353 0.82082 0.30901 0.0
C446 C 0.72873 0.83722 0.32869 0.0
C447 C 0.75426 0.84775 0.31208 0.0
C448 C 0.78079 0.75814 0.21303 0.0
C449 C 0.78521 0.7395 0.31938 0.0
C450 C 0.88573 0.71962 0.28293 0.0
Eu451 Eu 0.84886 0.76013 0.28172 0.0
C452 C 0.91671 0.7268 0.27116 0.0
C453 C 0.95152 0.73172 0.29725 0.0
C454 C 0.981 0.74164 0.28601 0.0
C455 C 0.9762 0.74673 0.24847 0.0
C456 C 0.94135 0.74171 0.22248 0.0
C457 C 0.912 0.73186 0.23365 0.0
C458 C 0.87655 0.8091 0.3282 0.0
C459 C 0.873 0.82786 0.22164 0.0
O460 O 0.8056 0.84741 0.28444 0.0
O461 O 0.76646 0.83291 0.23127 0.0
O462 O 0.78537 0.78993 0.20227 0.0
O463 O 0.79211 0.75374 0.2476 0.0
O464 O 0.78319 0.77099 0.30343 0.0
O465 O 0.80873 0.72785 0.31261 0.0
O466 O 0.85511 0.7212 0.25691 0.0
O467 O 0.89102 0.73395 0.31189 0.0
O468 O 0.87172 0.77734 0.33896 0.0
O469 O 0.86608 0.81351 0.29367 0.0
O470 O 0.87543 0.79658 0.23806 0.0
O471 O 0.84903 0.83929 0.22784 0.0
H472 H 0.70212 0.82084 0.22718 0.0
H473 H 0.65696 0.80365 0.25617 0.0
H474 H 0.73644 0.84254 0.35688 0.0
H475 H 0.78123 0.86005 0.32823 0.0
H476 H 0.95596 0.72824 0.32634 0.0
H477 H 1.00753 0.74516 0.30667 0.0
H478 H 0.9366 0.74442 0.19335 0.0
H479 H 0.88562 0.72841 0.21273 0.0
C480 C 0.90788 0.35547 0.75112 0.0
Eu481 Eu 0.85841 0.30429 0.76077 0.0
C482 C 0.908 0.38941 0.73226 0.0
C483 C 0.88915 0.39412 0.69452 0.0
C484 C 0.89051 0.42646 0.67702 0.0
C485 C 0.91047 0.45486 0.6969 0.0
C486 C 0.92755 0.45002 0.73511 0.0
C487 C 0.92649 0.4176 0.75255 0.0
C488 C 0.81082 0.25918 0.71302 0.0
C489 C 0.78506 0.33386 0.73637 0.0
C490 C 0.7482 0.21203 0.79128 0.0
Eu491 Eu 0.7984 0.26328 0.78348 0.0
C492 C 0.7475 0.17794 0.80975 0.0
C493 C 0.76738 0.17287 0.84715 0.0
C494 C 0.76521 0.14046 0.86454 0.0
C495 C 0.74342 0.11234 0.84485 0.0
C496 C 0.72537 0.11746 0.80685 0.0
C497 C 0.72722 0.15 0.78954 0.0
C498 C 0.84551 0.30826 0.83175 0.0
C499 C 0.87224 0.23413 0.80821 0.0
O500 O 0.89871 0.34981 0.78005 0.0
O501 O 0.89403 0.32995 0.73077 0.0
O502 O 0.8451 0.2655 0.72087 0.0
O503 O 0.80363 0.27767 0.72944 0.0
O504 O 0.81909 0.33955 0.73945 0.0
O505 O 0.76949 0.3044 0.74963 0.0
O506 O 0.75813 0.21806 0.76279 0.0
O507 O 0.7618 0.23718 0.81213 0.0
O508 O 0.81127 0.30058 0.82468 0.0
O509 O 0.85312 0.29037 0.81497 0.0
O510 O 0.83792 0.22787 0.8045 0.0
O511 O 0.88773 0.26395 0.79557 0.0
H512 H 0.87409 0.37286 0.67825 0.0
H513 H 0.8775 0.42899 0.64749 0.0
H514 H 0.94278 0.47127 0.75134 0.0
H515 H 0.94066 0.41452 0.78187 0.0
H516 H 0.78385 0.19394 0.8633 0.0
H517 H 0.77907 0.13777 0.89391 0.0
H518 H 0.70877 0.09642 0.79072 0.0
H519 H 0.71225 0.15337 0.76044 0.0
C520 C 0.81907 0.79556 0.87167 0.0
Eu521 Eu 0.82619 0.7949 0.80937 0.0
C522 C 0.7899 0.79508 0.88363 0.0
C523 C 0.79532 0.79119 0.92112 0.0
C524 C 0.76793 0.79124 0.93291 0.0
C525 C 0.73452 0.79497 0.9073 0.0
C526 C 0.72905 0.79801 0.8696 0.0
C527 C 0.75656 0.79823 0.85789 0.0
C528 C 0.87348 0.83673 0.78004 0.0
C529 C 0.77528 0.82431 0.73193 0.0
C530 C 0.83191 0.77196 0.6766 0.0
Eu531 Eu 0.82568 0.77277 0.73929 0.0
C532 C 0.86015 0.77086 0.66412 0.0
C533 C 0.8526 0.76948 0.62676 0.0
C534 C 0.87904 0.76735 0.61467 0.0
C535 C 0.91358 0.76682 0.63981 0.0
C536 C 0.92118 0.76926 0.67722 0.0
C537 C 0.89459 0.77097 0.68929 0.0
C538 C 0.77828 0.73114 0.76861 0.0
C539 C 0.87669 0.7433 0.81663 0.0
O540 O 0.81638 0.76811 0.85842 0.0
O541 O 0.82958 0.82281 0.85241 0.0
O542 O 0.85867 0.84671 0.79814 0.0
O543 O 0.86556 0.80509 0.78197 0.0
O544 O 0.78116 0.81788 0.76771 0.0
O545 O 0.79087 0.81116 0.71622 0.0
O546 O 0.83667 0.79954 0.69086 0.0
O547 O 0.82021 0.74485 0.69529 0.0
O548 O 0.79326 0.72099 0.75081 0.0
O549 O 0.78632 0.76276 0.76655 0.0
O550 O 0.87059 0.74955 0.78078 0.0
O551 O 0.86128 0.75661 0.83243 0.0
H552 H 0.82091 0.78861 0.94133 0.0
H553 H 0.77334 0.78935 0.96213 0.0
H554 H 0.70355 0.80042 0.84911 0.0
H555 H 0.75191 0.80109 0.82877 0.0
H556 H 0.82607 0.76939 0.60702 0.0
H557 H 0.872 0.76495 0.58579 0.0
H558 H 0.94757 0.76941 0.69728 0.0
H559 H 0.90077 0.77194 0.7183 0.0
C560 C 0.56024 0.59381 0.58179 0.0
Eu561 Eu 0.58425 0.56217 0.54626 0.0
C562 C 0.54262 0.6115 0.59935 0.0
C563 C 0.56107 0.62828 0.63214 0.0
C564 C 0.54382 0.64385 0.64756 0.0
C565 C 0.5069 0.64409 0.63116 0.0
C566 C 0.48871 0.62731 0.59829 0.0
C567 C 0.50583 0.6116 0.58313 0.0
C568 C 0.62465 0.59082 0.49526 0.0
C569 C 0.52643 0.56247 0.46071 0.0
C570 C 0.59858 0.47259 0.45991 0.0
Eu571 Eu 0.57475 0.50492 0.495 0.0
C572 C 0.61514 0.45598 0.44013 0.0
C573 C 0.59966 0.42331 0.42733 0.0
C574 C 0.6169 0.40732 0.41236 0.0
C575 C 0.65058 0.42306 0.40841 0.0
C576 C 0.66563 0.45599 0.42068 0.0
C577 C 0.6488 0.47163 0.43634 0.0
C578 C 0.53471 0.47632 0.54643 0.0
C579 C 0.63212 0.50429 0.58065 0.0
O580 O 0.54053 0.57461 0.55494 0.0
O581 O 0.59451 0.59578 0.59041 0.0
O582 O 0.62293 0.60521 0.5212 0.0
O583 O 0.60478 0.56062 0.49978 0.0
O584 O 0.53779 0.57082 0.4947 0.0
O585 O 0.53814 0.53904 0.45263 0.0
O586 O 0.61842 0.49549 0.48292 0.0
O587 O 0.56442 0.46789 0.45444 0.0
O588 O 0.53641 0.46189 0.52052 0.0
O589 O 0.55448 0.50652 0.5417 0.0
O590 O 0.62106 0.49607 0.54665 0.0
O591 O 0.62023 0.52761 0.58861 0.0
H592 H 0.58919 0.62937 0.64624 0.0
H593 H 0.55999 0.65623 0.67248 0.0
H594 H 0.46054 0.62567 0.58403 0.0
H595 H 0.48975 0.59929 0.55811 0.0
H596 H 0.57424 0.4095 0.42963 0.0
H597 H 0.60333 0.38231 0.40353 0.0
H598 H 0.69133 0.46978 0.4191 0.0
H599 H 0.6626 0.49642 0.44577 0.0
C600 C 0.10768 0.5194 0.94652 0.0
Eu601 Eu 0.08873 0.53447 0.99533 0.0
C602 C 0.10916 0.48662 0.93989 0.0
C603 C 0.13429 0.48446 0.92589 0.0
C604 C 0.13622 0.4531 0.92054 0.0
C605 C 0.11277 0.4236 0.92879 0.0
C606 C 0.08764 0.42576 0.94286 0.0
C607 C 0.08623 0.45707 0.94892 0.0
C608 C 0.12445 0.58497 0.04071 0.0
C609 C 0.1127 0.48202 0.06941 0.0
C610 C 1.04459 0.54704 0.10306 0.0
Eu611 Eu 1.06031 0.52998 0.053 0.0
C612 C 1.04901 0.58077 0.11271 0.0
C613 C 1.02099 0.58858 0.11771 0.0
C614 C 1.02441 0.62101 0.12518 0.0
C615 C 1.05601 0.6461 0.12791 0.0
C616 C 0.08404 0.63831 0.12275 0.0
C617 C 0.08044 0.60597 0.11486 0.0
C618 C 1.02391 0.47903 1.00834 0.0
C619 C 1.03591 0.58194 0.97836 0.0
O620 O 1.07569 0.52279 0.9397 0.0
O621 O 0.13071 0.53108 0.97748 0.0
O622 O 0.11762 0.58913 1.00557 0.0
O623 O 0.11364 0.55445 0.05019 0.0
O624 O 0.10852 0.48984 0.03414 0.0
O625 O 0.09825 0.49651 0.08479 0.0
O626 O 1.0741 0.53827 0.10992 0.0
O627 O 1.0208 0.53905 0.07093 0.0
O628 O 1.02921 0.47597 0.04315 0.0
O629 O 1.03542 0.50931 0.99832 0.0
O630 O 1.04053 0.57454 1.01379 0.0
O631 O 1.05021 0.56723 0.96301 0.0
H632 H 0.1524 0.50696 0.91919 0.0
H633 H 0.15562 0.45188 0.90933 0.0
H634 H 1.06947 0.40328 0.9495 0.0
H635 H 1.0673 0.45822 0.96074 0.0
H636 H 0.99647 0.56961 0.1158 0.0
H637 H 1.00262 0.62625 0.12971 0.0
H638 H 0.10862 0.65721 0.12473 0.0
H639 H 0.10226 0.60073 0.11043 0.0
H640 H 0.27091 0.16762 0.84613 0.0
H641 H 0.24437 0.25629 0.8555 0.0
H642 H 0.23508 0.13409 0.88323 0.0
H643 H 0.20925 0.22302 0.89332 0.0
H644 H 0.15661 0.1602 0.98243 0.0
H645 H 0.19084 0.1924 0.94381 0.0
H646 H 0.18588 0.10083 0.90591 0.0
H647 H 0.15049 0.06844 0.94428 0.0
C648 C 0.25783 0.18083 0.85579 0.0
C649 C 0.26264 0.2166 0.84569 0.0
C650 C 0.23627 0.16072 0.87799 0.0
C651 C 0.21717 0.17378 0.89367 0.0
C652 C 0.22221 0.20965 0.88369 0.0
C653 C 0.24324 0.22966 0.86094 0.0
C654 C 0.16214 0.14602 0.96599 0.0
C655 C 0.14857 0.10992 0.96863 0.0
C656 C 0.1827 0.1654 0.94275 0.0
C657 C 0.19331 0.1513 0.91938 0.0
C658 C 0.18002 0.11496 0.92211 0.0
C659 C 0.1587 0.09549 0.94499 0.0
H660 H 0.13918 0.97507 0.15299 0.0
H661 H 0.18567 0.9854 0.07078 0.0
H662 H 0.17594 0.93571 0.19098 0.0
H663 H 0.22211 0.94678 0.10816 0.0
H664 H 0.30512 0.89303 0.19307 0.0
H665 H 0.27122 0.93518 0.16029 0.0
H666 H 0.18518 0.87899 0.19759 0.0
H667 H 0.21922 0.83667 0.23036 0.0
C668 C 0.15782 0.96982 0.14327 0.0
C669 C 0.15945 0.98452 0.1086 0.0
C670 C 0.17876 0.94658 0.16497 0.0
C671 C 0.20272 0.93731 0.1533 0.0
C672 C 0.20485 0.95293 0.11911 0.0
C673 C 0.18365 0.97548 0.09736 0.0
C674 C 0.279 0.88943 0.1945 0.0
C675 C 0.26544 0.86069 0.2148 0.0
C676 C 0.25916 0.91387 0.17528 0.0
C677 C 0.22472 0.91127 0.17556 0.0
C678 C 0.21142 0.88277 0.19644 0.0
C679 C 0.23112 0.85806 0.2153 0.0
H680 H 0.48393 0.92191 0.52236 0.0
H681 H 0.51477 0.98295 0.43416 0.0
H682 H 0.44152 0.88056 0.47936 0.0
H683 H 0.47343 0.94074 0.39153 0.0
H684 H 0.42223 0.83096 0.34577 0.0
H685 H 0.46617 0.87229 0.38823 0.0
H686 H 0.38259 0.88675 0.41727 0.0
H687 H 0.33842 0.84683 0.37358 0.0
C688 C 0.48193 0.92635 0.4939 0.0
C689 C 0.50278 0.95571 0.48169 0.0
C690 C 0.45763 0.90269 0.46931 0.0
C691 C 0.45427 0.90744 0.43217 0.0
C692 C 0.47565 0.93639 0.42007 0.0
C693 C 0.49926 0.96052 0.44446 0.0
C694 C 0.41316 0.84332 0.36079 0.0
C695 C 0.37673 0.83596 0.35587 0.0
C696 C 0.43833 0.86685 0.38518 0.0
C697 C 0.42773 0.88271 0.40597 0.0
C698 C 0.39148 0.87482 0.40164 0.0
C699 C 0.36622 0.85201 0.37659 0.0
H700 H 0.5044 0.2871 0.70877 0.0
H701 H 0.53069 0.20313 0.78704 0.0
H702 H 0.54465 0.28164 0.68035 0.0
H703 H 0.57079 0.19805 0.75931 0.0
H704 H 0.61975 0.17071 0.69954 0.0
H705 H 0.61816 0.21268 0.73388 0.0
H706 H 0.52598 0.23422 0.64346 0.0
H707 H 0.52822 0.19305 0.60921 0.0
C708 C 0.51962 0.26821 0.72066 0.0
C709 C 0.51335 0.2447 0.74925 0.0
C710 C 0.54287 0.26529 0.70457 0.0
C711 C 0.56015 0.23885 0.7169 0.0
C712 C 0.55796 0.21874 0.749 0.0
C713 C 0.53467 0.22155 0.76494 0.0
C714 C 0.60024 0.1856 0.68644 0.0
C715 C 0.57331 0.17799 0.65233 0.0
C716 C 0.59929 0.20958 0.70611 0.0
C717 C 0.57133 0.22603 0.69188 0.0
C718 C 0.54783 0.22197 0.65543 0.0
C719 C 0.54875 0.19802 0.63587 0.0
H720 H 1.02191 0.93183 0.56373 0.0
H721 H 1.07341 0.99618 0.65266 0.0
H722 H 1.04097 0.88506 0.60533 0.0
H723 H 0.08997 0.94859 0.69534 0.0
H724 H 0.18813 0.91961 0.6905 0.0
H725 H 0.13988 0.94221 0.68442 0.0
H726 H 1.06545 0.84623 0.6556 0.0
H727 H 0.11511 0.82277 0.66315 0.0
C728 C 1.03498 0.93528 0.59279 0.0
C729 C 1.04778 0.96759 0.60501 0.0
C730 C 1.04584 0.90832 0.61688 0.0
C731 C 1.06925 0.91389 0.65314 0.0
C732 C 1.07352 0.94414 0.66702 0.0
C733 C 1.06398 0.97141 0.64269 0.0
C734 C 0.16188 0.90266 0.68441 0.0
C735 C 0.1556 0.86948 0.67663 0.0
C736 C 0.13383 0.91568 0.68113 0.0
C737 C 0.09843 0.89612 0.66926 0.0
C738 C 0.09234 0.86204 0.66447 0.0
C739 C 0.12073 0.8488 0.66824 0.0
H740 H 0.38879 0.83949 0.85629 0.0
H741 H 0.42293 0.89602 0.7683 0.0
H742 H 0.43121 0.8806 0.89826 0.0
H743 H 0.46353 0.93914 0.8095 0.0
H744 H 0.55215 1.00278 0.89742 0.0
H745 H 0.51518 0.95758 0.85759 0.0
H746 H 0.44136 0.93232 0.91585 0.0
H747 H 0.47969 0.97589 0.95679 0.0
C748 C 0.40554 0.86073 0.8459 0.0
C749 C 0.40271 0.86417 0.80898 0.0
C750 C 0.42959 0.88485 0.86994 0.0
C751 C 0.45092 0.91388 0.85761 0.0
C752 C 0.44821 0.91711 0.82055 0.0
C753 C 0.42466 0.89245 0.79667 0.0
C754 C 0.52805 0.98734 0.90167 0.0
C755 C 0.51873 0.99295 0.93011 0.0
C756 C 0.50659 0.96148 0.87864 0.0
C757 C 0.47482 0.9409 0.883 0.0
C758 C 0.46579 0.94677 0.91173 0.0
C759 C 0.48764 0.9721 0.93517 0.0
H760 H 0.58538 0.22892 0.09229 0.0
H761 H 0.49532 0.22408 0.9904 0.0
H762 H 0.55549 0.25304 0.11964 0.0
H763 H 0.46554 0.24815 1.01764 0.0
H764 H 0.42537 0.30597 0.07121 0.0
H765 H 0.4648 0.29627 0.04421 0.0
H766 H 0.50378 0.22849 0.13846 0.0
H767 H 0.46441 0.23799 0.16525 0.0
C768 C 0.5594 0.23338 0.07561 0.0
C769 C 0.54255 0.22423 0.03931 0.0
C770 C 0.54228 0.24716 0.09127 0.0
C771 C 0.50797 0.25213 0.07096 0.0
C772 C 0.4921 0.24495 0.03396 0.0
C773 C 0.5092 0.23115 1.0183 0.0
C774 C 0.44252 0.28914 0.08622 0.0
C775 C 0.44152 0.27253 0.12026 0.0
C776 C 0.46513 0.28365 0.07078 0.0
C777 C 0.48732 0.26152 0.0891 0.0
C778 C 0.48744 0.24609 0.12385 0.0
C779 C 0.46481 0.25152 0.13924 0.0
H780 H 0.1817 0.13202 0.42972 0.0
H781 H 0.28782 0.11588 0.47098 0.0
H782 H 0.18934 0.15816 0.37231 0.0
H783 H 0.2964 0.1435 0.41404 0.0
H784 H 0.29341 0.16814 0.29842 0.0
H785 H 0.27943 0.13677 0.3514 0.0
H786 H 0.21814 0.20623 0.34554 0.0
H787 H 0.23069 0.23622 0.29132 0.0
C788 C 0.20698 0.13472 0.42667 0.0
C789 C 0.23433 0.12222 0.4548 0.0
C790 C 0.21139 0.1497 0.39374 0.0
C791 C 0.24345 0.15292 0.38833 0.0
C792 C 0.27102 0.14079 0.41683 0.0
C793 C 0.26636 0.12529 0.44961 0.0
C794 C 0.27624 0.17611 0.30802 0.0
C795 C 0.26351 0.20486 0.29139 0.0
C796 C 0.2687 0.15851 0.33875 0.0
C797 C 0.2484 0.16943 0.35344 0.0
C798 C 0.23387 0.19703 0.33514 0.0
C799 C 0.24119 0.2144 0.30426 0.0
H800 H 0.92666 0.22038 0.27953 0.0
H801 H 0.86772 0.25441 0.16994 0.0
H802 H 0.95806 0.19452 0.25525 0.0
H803 H 0.89895 0.22901 0.14545 0.0
H804 H 0.94215 0.16194 0.10107 0.0
H805 H 0.91188 0.18721 0.12647 0.0
H806 H 0.99872 0.19016 0.23025 0.0
H807 H 1.02872 0.16392 0.20497 0.0
C808 C 0.9202 0.22267 0.25016 0.0
C809 C 0.89386 0.24022 0.22741 0.0
C810 C 0.93869 0.20761 0.2358 0.0
C811 C 0.93201 0.20866 0.19748 0.0
C812 C 0.90562 0.22634 0.17488 0.0
C813 C 0.88739 0.24153 0.18926 0.0
C814 C 0.95522 0.16746 0.12949 0.0
C815 C 0.9889 0.15984 0.1501 0.0
C816 C 0.93751 0.18279 0.14439 0.0
C817 C 0.95181 0.19174 0.18128 0.0
C818 C 0.98548 0.18408 0.202 0.0
C819 C 1.00335 0.16891 0.18699 0.0
H820 H 0.12131 0.49997 0.442 0.0
H821 H 0.2067 0.52412 0.54472 0.0
H822 H 0.16422 0.50976 0.41197 0.0
H823 H 0.25051 0.53153 0.51565 0.0
H824 H 0.28398 0.6227 0.43824 0.0
H825 H 0.26423 0.57989 0.48024 0.0
H826 H 0.2116 0.5111 0.39479 0.0
H827 H 0.23089 0.55525 0.3519 0.0
C828 C 0.14952 0.50568 0.45844 0.0
C829 C 0.16106 0.51213 0.49517 0.0
C830 C 0.17435 0.51104 0.44139 0.0
C831 C 0.21109 0.52276 0.46106 0.0
C832 C 0.22244 0.52384 0.49934 0.0
C833 C 0.19751 0.51943 0.51611 0.0
C834 C 0.26953 0.59806 0.42865 0.0
C835 C 0.25786 0.59272 0.39143 0.0
C836 C 0.25817 0.5731 0.45301 0.0
C837 C 0.23492 0.54221 0.44064 0.0
C838 C 0.22825 0.53506 0.40486 0.0
C839 C 0.23931 0.5603 0.38028 0.0
H840 H 0.66093 0.95802 0.55253 0.0
H841 H 0.62238 0.95578 0.6393 0.0
H842 H 0.69843 0.92053 0.59103 0.0
H843 H 0.65826 0.91693 0.67729 0.0
H844 H 0.74784 0.86695 0.75321 0.0
H845 H 0.71071 0.90489 0.71492 0.0
H846 H 0.70801 0.86972 0.61782 0.0
H847 H 0.74656 0.83334 0.6563 0.0
C848 C 0.66003 0.94922 0.57971 0.0
C849 C 0.63831 0.96035 0.59243 0.0
C850 C 0.68161 0.92724 0.60208 0.0
C851 C 0.68213 0.91492 0.6381 0.0
C852 C 0.65986 0.92584 0.65043 0.0
C853 C 0.63869 0.94817 0.62825 0.0
C854 C 0.73929 0.86724 0.72367 0.0
C855 C 0.75059 0.84672 0.70827 0.0
C856 C 0.71753 0.8891 0.70132 0.0
C857 C 0.70561 0.89115 0.66245 0.0
C858 C 0.71668 0.87011 0.64725 0.0
C859 C 0.73881 0.84866 0.66959 0.0
H860 H 0.50449 0.48625 0.94628 0.0
H861 H 0.56638 0.41282 0.9986 0.0
H862 H 0.45766 0.44454 0.90698 0.0
H863 H 0.52024 0.37102 0.95829 0.0
H864 H 0.41515 0.29598 0.90422 0.0
H865 H 0.45905 0.33733 0.94607 0.0
H866 H 0.44821 0.41464 0.85595 0.0
H867 H 0.40386 0.37336 0.81434 0.0
C868 C 0.50763 0.46091 0.94982 0.0
C869 C 0.53831 0.45231 0.97612 0.0
C870 C 0.48117 0.43716 0.92686 0.0
C871 C 0.48506 0.40433 0.92955 0.0
C872 C 0.51608 0.39588 0.95588 0.0
C873 C 0.54257 0.41976 0.9788 0.0
C874 C 0.42201 0.32187 0.89345 0.0
C875 C 0.40617 0.33147 0.85603 0.0
C876 C 0.44735 0.34552 0.91737 0.0
C877 C 0.45731 0.37931 0.90438 0.0
C878 C 0.4409 0.38894 0.86699 0.0
C879 C 0.4156 0.36527 0.84308 0.0
H880 H 0.90591 0.87395 0.30896 0.0
H881 H 0.89951 0.80451 0.40289 0.0
H882 H 0.94818 0.91669 0.34955 0.0
H883 H 0.94052 0.84769 0.44377 0.0
H884 H 1.04652 0.91751 0.50547 0.0
H885 H 1.00119 0.87553 0.4657 0.0
H886 H 0.95707 0.95444 0.39107 0.0
H887 H 1.00385 0.99636 0.42992 0.0
C888 C 0.91316 0.86804 0.33836 0.0
C889 C 0.89967 0.83586 0.35281 0.0
C890 C 0.93726 0.89262 0.36172 0.0
C891 C 0.94807 0.88575 0.40012 0.0
C892 C 0.93351 0.85376 0.41443 0.0
C893 C 0.90976 0.82905 0.39103 0.0
C894 C 1.02713 0.92582 0.4805 0.0
C895 C 1.02869 0.96018 0.47077 0.0
C896 C 1.00085 0.90173 0.45783 0.0
C897 C 0.97524 0.91143 0.42502 0.0
C898 C 0.97658 0.94593 0.41573 0.0
C899 C 1.00316 0.97001 0.43821 0.0
H900 H 0.44464 0.66936 0.59677 0.0
H901 H 0.52367 0.65939 0.70425 0.0
H902 H 0.41425 0.69499 0.62187 0.0
H903 H 0.49356 0.68571 0.72932 0.0
H904 H 0.41918 0.71496 0.77566 0.0
H905 H 0.44943 0.6884 0.75061 0.0
H906 H 0.40426 0.73762 0.64405 0.0
H907 H 0.37336 0.76325 0.66895 0.0
C908 C 0.45596 0.67228 0.62591 0.0
C909 C 0.4876 0.6613 0.64764 0.0
C910 C 0.43822 0.68776 0.64064 0.0
C911 C 0.4504 0.69334 0.67846 0.0
C912 C 0.48201 0.68229 0.70028 0.0
C913 C 0.49997 0.66708 0.68544 0.0
C914 C 0.41565 0.72049 0.74688 0.0
C915 C 0.39319 0.74213 0.7251 0.0
C916 C 0.43361 0.70514 0.73221 0.0
C917 C 0.43063 0.71027 0.69463 0.0
C918 C 0.40803 0.73192 0.67289 0.0
C919 C 0.39004 0.74721 0.68754 0.0
H920 H 0.62165 0.97819 0.9611 0.0
H921 H 0.69712 0.06634 1.01196 0.0
H922 H 0.65813 0.97915 0.92518 0.0
H923 H 0.73365 0.06705 0.97691 0.0
H924 H 0.78811 0.08295 0.906 0.0
H925 H 0.76831 0.04331 0.95175 0.0
H926 H 0.65978 1.02648 0.87521 0.0
H927 H 0.67894 0.06651 0.83043 0.0
C928 C 0.6468 0.99686 0.96573 0.0
C929 C 0.65631 1.02277 0.98843 0.0
C930 C 0.66769 0.9973 0.94532 0.0
C931 C 0.69851 1.02335 0.94792 0.0
C932 C 0.71021 0.04649 0.97438 0.0
C933 C 0.68906 0.04643 0.99415 0.0
C934 C 0.76017 0.06993 0.89854 0.0
C935 C 0.73489 0.0792 0.86524 0.0
C936 C 0.74896 0.04693 0.92461 0.0
C937 C 0.71241 1.03271 0.91744 0.0
C938 C 0.68814 0.03719 0.88171 0.0
C939 C 0.69924 0.06044 0.85587 0.0
H940 H 0.15848 0.45634 0.05301 0.0
H941 H 0.11748 0.45089 0.13868 0.0
H942 H 0.196 0.4188 0.09111 0.0
H943 H 0.15332 0.41186 0.17623 0.0
H944 H 0.24206 0.36098 0.25223 0.0
H945 H 0.20493 0.39901 0.21435 0.0
H946 H 0.20671 0.36841 0.11696 0.0
H947 H 0.24535 0.33202 0.15517 0.0
C948 C 0.15702 0.4468 0.07986 0.0
C949 C 0.13462 0.45708 0.09238 0.0
C950 C 0.17863 0.42476 0.102 0.0
C951 C 0.17848 0.41146 0.13761 0.0
C952 C 0.15549 0.42151 0.14973 0.0
C953 C 0.13434 0.44395 0.12779 0.0
C954 C 0.23449 0.36229 0.22271 0.0
C955 C 0.24707 0.34302 0.20718 0.0
C956 C 0.21271 0.38422 0.20057 0.0
C957 C 0.20201 0.38759 0.16174 0.0
C958 C 0.21438 0.3678 0.14639 0.0
C959 C 0.23657 0.34632 0.16856 0.0
H960 H 0.76865 0.66771 0.98334 0.0
H961 H 0.72089 0.57541 0.92929 0.0
H962 H 0.77393 0.69838 0.92611 0.0
H963 H 0.72695 0.60593 0.87267 0.0
H964 H 0.74378 0.74592 0.80727 0.0
H965 H 0.7334 0.71399 0.8622 0.0
H966 H 0.77616 0.63629 0.84977 0.0
H967 H 0.78676 0.66825 0.79548 0.0
C968 C 0.75941 0.65394 0.95937 0.0
C969 C 0.74465 0.61902 0.96105 0.0
C970 C 0.76229 0.67152 0.92661 0.0
C971 C 0.75071 0.6545 0.89498 0.0
C972 C 0.73642 0.61961 0.89675 0.0
C973 C 0.73329 0.6021 0.92935 0.0
C974 C 0.75054 0.72185 0.81622 0.0
C975 C 0.76649 0.70974 0.79762 0.0
C976 C 0.74483 0.70371 0.84764 0.0
C977 C 0.75439 0.67287 0.86043 0.0
C978 C 0.76845 0.65993 0.84048 0.0
C979 C 0.77443 0.6782 0.80936 0.0
H980 H 0.72061 0.44646 0.19832 0.0
H981 H 0.65271 0.34852 0.21207 0.0
H982 H 0.67774 0.47274 0.20033 0.0
H983 H 0.6086 0.37514 0.21354 0.0
H984 H 0.60773 0.52357 0.16334 0.0
H985 H 0.63604 0.4885 0.21659 0.0
H986 H 0.57156 0.40009 0.15897 0.0
H987 H 0.54186 0.43506 0.10734 0.0
C988 C 0.697 0.43046 0.20312 0.0
C989 C 0.68941 0.39544 0.20347 0.0
C990 C 0.67222 0.4456 0.20466 0.0
C991 C 0.63894 0.42607 0.20604 0.0
C992 C 0.63352 0.39092 0.21151 0.0
C993 C 0.65854 0.37571 0.21012 0.0
C994 C 0.59794 0.49649 0.16334 0.0
C995 C 0.57389 0.48178 0.13107 0.0
C996 C 0.6142 0.47634 0.19374 0.0
C997 C 0.60814 0.44185 0.19072 0.0
C998 C 0.578 0.42675 0.16185 0.0
C999 C 0.56087 0.44683 0.13193 0.0
H1000 H 1.043 0.50787 0.3934 0.0
H1001 H 0.99829 0.45643 0.4759 0.0
H1002 H 1.00308 0.46541 0.3514 0.0
H1003 H 0.96056 0.41226 0.43552 0.0
H1004 H 0.94497 0.37188 0.28949 0.0
H1005 H 0.98747 0.41258 0.33298 0.0
H1006 H 0.9109 0.39742 0.38633 0.0
H1007 H 0.87027 0.35533 0.34485 0.0
C1008 C 1.02487 0.48716 0.40271 0.0
C1009 C 1.02381 0.4855 0.43799 0.0
C1010 C 1.00215 0.46243 0.37872 0.0
C1011 C 0.97813 0.43493 0.38959 0.0
C1012 C 0.97772 0.43321 0.42534 0.0
C1013 C 0.99975 0.45843 0.44887 0.0
C1014 C 0.93758 0.37719 0.31081 0.0
C1015 C 0.90437 0.36036 0.31379 0.0
C1016 C 0.9618 0.4008 0.33568 0.0
C1017 C 0.95303 0.40876 0.36363 0.0
C1018 C 0.9195 0.39175 0.36616 0.0
C1019 C 0.89582 0.36766 0.34198 0.0
H1020 H 0.65091 0.56872 0.44487 0.0
H1021 H 0.65327 0.66073 0.47966 0.0
H1022 H 0.6863 0.60117 0.40652 0.0
H1023 H 0.68745 0.69296 0.44099 0.0
H1024 H 0.7403 0.75618 0.3518 0.0
H1025 H 0.70522 0.72289 0.38967 0.0
H1026 H 0.73603 0.63514 0.38474 0.0
H1027 H 0.77183 0.66872 0.34766 0.0
C1028 C 0.65826 0.59583 0.44481 0.0
C1029 C 0.6471 0.61032 0.46751 0.0
C1030 C 0.67959 0.61534 0.42195 0.0
C1031 C 0.69181 0.65174 0.41829 0.0
C1032 C 0.68016 0.6659 0.44071 0.0
C1033 C 0.65963 0.6465 0.46396 0.0
C1034 C 0.7403 0.72982 0.35842 0.0
C1035 C 0.76106 0.7171 0.34461 0.0
C1036 C 0.71929 0.7098 0.3812 0.0
C1037 C 0.71564 0.67425 0.39258 0.0
C1038 C 0.7361 0.6615 0.37834 0.0
C1039 C 0.75764 0.68165 0.35615 0.0
H1040 H 0.91807 0.32702 0.84932 0.0
H1041 H 0.83353 0.34369 0.87524 0.0
H1042 H 0.96161 0.36885 0.89122 0.0
H1043 H 0.87745 0.38419 0.9186 0.0
H1044 H 0.98012 0.42007 1.02389 0.0
H1045 H 0.93699 0.37858 0.98139 0.0
H1046 H 0.96818 0.43767 0.89268 0.0
H1047 H 1.01021 0.48006 0.93479 0.0
C1048 C 0.90874 0.33967 0.86383 0.0
C1049 C 0.87222 0.33244 0.85844 0.0
C1050 C 0.93371 0.3635 0.8879 0.0
C1051 C 0.92285 0.37981 0.90803 0.0
C1052 C 0.88651 0.37195 0.90343 0.0
C1053 C 0.86141 0.3488 0.87861 0.0
C1054 C 0.97778 0.42427 0.99532 0.0
C1055 C 0.99869 0.45334 0.98273 0.0
C1056 C 0.95304 0.40054 0.97103 0.0
C1057 C 0.94931 0.40491 0.9338 0.0
C1058 C 0.97066 0.43363 0.92129 0.0
C1059 C 0.99469 0.45785 0.94539 0.0
H1060 H 0.88603 0.89857 0.19299 0.0
H1061 H 0.91854 0.8114 0.18987 0.0
H1062 H 0.92206 0.93224 0.15615 0.0
H1063 H 0.95383 0.84475 0.15225 0.0
H1064 H 1.00573 0.90688 0.06213 0.0
H1065 H 0.97139 0.87462 0.10063 0.0
H1066 H 0.97241 0.96636 0.13508 0.0
H1067 H 1.008 0.99885 0.09691 0.0
C1068 C 0.90048 0.88571 0.18477 0.0
C1069 C 0.89726 0.85032 0.19652 0.0
C1070 C 0.92216 0.90592 0.16274 0.0
C1071 C 0.94296 0.89327 0.14885 0.0
C1072 C 0.9395 0.85776 0.16044 0.0
C1073 C 0.91837 0.83771 0.18307 0.0
C1074 C 0.99934 0.92109 0.07781 0.0
C1075 C 1.01192 0.95727 0.07433 0.0
C1076 C 0.9787 0.90167 0.10096 0.0
C1077 C 0.96695 0.9158 0.1233 0.0
C1078 C 0.97921 0.95221 0.1197 0.0
C1079 C 1.00066 0.97174 0.09696 0.0
H1080 H 0.85066 0.16718 0.83516 0.0
H1081 H 0.94473 0.24006 0.82663 0.0
H1082 H 0.88661 0.12606 0.8673 0.0
H1083 H 0.98042 0.19931 0.85831 0.0
H1084 H 1.0446 0.13357 0.95141 0.0
H1085 H 1.00743 0.1717 0.91491 0.0
H1086 H 0.92159 0.08734 0.8689 0.0
H1087 H 0.95958 0.04869 0.90625 0.0
C1088 C 0.87897 0.17466 0.8399 0.0
C1089 C 0.89422 0.20771 0.82786 0.0
C1090 C 0.89985 0.15069 0.8584 0.0
C1091 C 0.93721 0.15855 0.86626 0.0
C1092 C 0.9522 0.19158 0.85388 0.0
C1093 C 0.93137 0.21533 0.83519 0.0
C1094 C 1.01804 0.12284 0.933 0.0
C1095 C 1.00599 0.08748 0.93185 0.0
C1096 C 0.99633 0.1451 0.91169 0.0
C1097 C 0.96073 0.13351 0.88809 0.0
C1098 C 0.94852 0.09798 0.88652 0.0
C1099 C 0.97068 0.07551 0.90772 0.0
H1100 H 0.7397 0.25608 0.67897 0.0
H1101 H 0.82019 0.2058 0.69025 0.0
H1102 H 0.69438 0.21483 0.63734 0.0
H1103 H 0.77458 0.16395 0.64944 0.0
H1104 H 0.66964 0.07636 0.61161 0.0
H1105 H 0.71397 0.11789 0.65346 0.0
H1106 H 0.68591 0.1979 0.57023 0.0
H1107 H 0.64231 0.15627 0.52785 0.0
C1108 C 0.74768 0.23619 0.67258 0.0
C1109 C 0.78353 0.23426 0.68769 0.0
C1110 C 0.72176 0.21265 0.64873 0.0
C1111 C 0.73098 0.18622 0.64018 0.0
C1112 C 0.76674 0.18402 0.65567 0.0
C1113 C 0.79283 0.20803 0.67885 0.0
C1114 C 0.67292 0.10282 0.60226 0.0
C1115 C 0.65264 0.11311 0.5664 0.0
C1116 C 0.69835 0.12653 0.62617 0.0
C1117 C 0.70346 0.16108 0.61503 0.0
C1118 C 0.68248 0.17142 0.57952 0.0
C1119 C 0.65765 0.14765 0.55528 0.0
H1120 H 0.56129 0.88001 0.3877 0.0
H1121 H 0.67348 0.89952 0.45309 0.0
H1122 H 0.56659 0.83337 0.36239 0.0
H1123 H 0.67903 0.85344 0.42818 0.0
H1124 H 0.69727 0.78785 0.37621 0.0
H1125 H 0.66539 0.79518 0.41324 0.0
H1126 H 0.59791 0.84449 0.31829 0.0
H1127 H 0.62943 0.83686 0.28157 0.0
C1128 C 0.58674 0.87344 0.39762 0.0
C1129 C 0.61722 0.89355 0.42158 0.0
C1130 C 0.58976 0.84681 0.38322 0.0
C1131 C 0.62326 0.83996 0.39291 0.0
C1132 C 0.65274 0.85776 0.42026 0.0
C1133 C 0.64978 0.88449 0.43425 0.0
C1134 C 0.67455 0.7989 0.36303 0.0
C1135 C 0.66651 0.81292 0.3265 0.0
C1136 C 0.65626 0.80299 0.38414 0.0
C1137 C 0.63004 0.82144 0.36898 0.0
C1138 C 0.61812 0.83032 0.33091 0.0
C1139 C 0.63632 0.8261 0.30978 0.0
H1140 H 1.04829 0.24061 0.44812 0.0
H1141 H 1.01903 0.24185 0.33092 0.0
H1142 H 0.09579 0.21453 0.45803 0.0
H1143 H 1.06702 0.21532 0.34087 0.0
H1144 H 1.04956 0.09938 0.39191 0.0
H1145 H 1.05034 0.15566 0.36244 0.0
H1146 H 0.14407 0.1953 0.45365 0.0
H1147 H 0.14298 0.13864 0.48328 0.0
C1148 C 1.05319 0.23696 0.42438 0.0
C1149 C 1.02893 0.24168 0.38882 0.0
C1150 C 0.08078 0.22209 0.43002 0.0
C1151 C 0.08412 0.2114 0.40015 0.0
C1152 C 1.06438 0.22239 0.36442 0.0
C1153 C 1.03669 0.23725 0.35875 0.0
C1154 C 1.07135 0.11992 0.4048 0.0
C1155 C 0.09532 0.11491 0.44039 0.0
C1156 C 1.07217 0.15236 0.38772 0.0
C1157 C 0.09644 0.18018 0.40655 0.0
C1158 C 0.12457 0.17441 0.43892 0.0
C1159 C 0.1239 0.14185 0.45592 0.0
H1160 H 0.7849 0.21208 0.19687 0.0
H1161 H 0.71771 0.18878 0.26184 0.0
H1162 H 0.7428 0.1704 0.15551 0.0
H1163 H 0.67376 0.14824 0.21885 0.0
H1164 H 0.61798 0.05371 0.15595 0.0
H1165 H 0.65855 0.09619 0.19782 0.0
H1166 H 0.69024 0.1555 0.10901 0.0
H1167 H 0.65195 0.11162 0.0685 0.0
C1168 C 0.76069 0.19835 0.20196 0.0
C1169 C 0.75472 0.20374 0.23274 0.0
C1170 C 0.73615 0.17446 0.17789 0.0
C1171 C 0.70427 0.15562 0.18322 0.0
C1172 C 0.69808 0.16155 0.21385 0.0
C1173 C 0.72315 0.18507 0.23846 0.0
C1174 C 0.63377 0.07583 0.14552 0.0
C1175 C 0.63179 0.07922 0.10887 0.0
C1176 C 0.65691 0.10052 0.1695 0.0
C1177 C 0.67827 0.12967 0.15731 0.0
C1178 C 0.67528 0.13327 0.12015 0.0
C1179 C 0.65283 0.10821 0.09653 0.0
H1180 H 0.68919 0.83674 0.87754 0.0
H1181 H 0.71645 0.76012 0.96607 0.0
H1182 H 0.64767 0.84591 0.90155 0.0
H1183 H 0.6752 0.76998 0.99059 0.0
H1184 H 0.64705 0.84397 0.04595 0.0
H1185 H 0.67688 0.8188 1.01985 0.0
H1186 H 0.5916 0.82068 0.91478 0.0
H1187 H 0.5614 0.84563 0.94102 0.0
C1188 C 0.68578 0.82127 0.90165 0.0
C1189 C 0.70643 0.79784 0.91997 0.0
C1190 C 0.6619 0.82657 0.91544 0.0
C1191 C 0.65823 0.80873 0.94802 0.0
C1192 C 0.67777 0.78435 0.96563 0.0
C1193 C 0.70151 0.77885 0.95167 0.0
C1194 C 0.63406 0.83811 1.01758 0.0
C1195 C 0.60204 0.84721 0.99547 0.0
C1196 C 0.65121 0.82368 1.0026 0.0
C1197 C 0.63679 0.81814 0.96515 0.0
C1198 C 0.60365 0.82523 0.94358 0.0
C1199 C 0.58641 0.83955 0.9586 0.0
H1200 H 0.89125 0.90045 0.56737 0.0
H1201 H 0.92475 0.99386 0.61757 0.0
H1202 H 0.88469 0.86941 0.624 0.0
H1203 H 0.91801 0.96298 0.67376 0.0
H1204 H 0.91105 0.82405 0.74342 0.0
H1205 H 0.92158 0.85607 0.6886 0.0
H1206 H 0.87057 0.92948 0.69573 0.0
H1207 H 0.86021 0.89757 0.7501 0.0
C1208 C 0.89713 0.91435 0.59041 0.0
C1209 C 0.90815 0.94966 0.58778 0.0
C1210 C 0.89357 0.89658 0.62288 0.0
C1211 C 0.90091 0.91377 0.65335 0.0
C1212 C 0.91168 0.94904 0.65061 0.0
C1213 C 0.91529 0.96675 0.61826 0.0
C1214 C 0.90248 0.8472 0.73328 0.0
C1215 C 0.88458 0.8582 0.75062 0.0
C1216 C 0.90826 0.8654 0.70189 0.0
C1217 C 0.8966 0.89515 0.68767 0.0
C1218 C 0.8801 0.90682 0.70613 0.0
C1219 C 0.87423 0.88857 0.73733 0.0
H1220 H 0.26339 0.86791 0.77917 0.0
H1221 H 0.26397 0.78743 0.86426 0.0
H1222 H 0.23163 0.89408 0.8027 0.0
H1223 H 0.23215 0.8134 0.88806 0.0
H1224 H 0.14825 0.85463 0.90936 0.0
H1225 H 0.17914 0.82803 0.88526 0.0
H1226 H 0.2304 0.92539 0.84732 0.0
H1227 H 0.19977 0.95195 0.87163 0.0
C1228 C 0.2564 0.85524 0.80264 0.0
C1229 C 0.26651 0.82463 0.81874 0.0
C1230 C 0.23822 0.87077 0.81681 0.0
C1231 C 0.22827 0.85663 0.848 0.0
C1232 C 0.23826 0.82582 0.864 0.0
C1233 C 0.25704 0.81064 0.85017 0.0
C1234 C 0.16592 0.87078 0.89583 0.0
C1235 C 0.17058 0.90626 0.89323 0.0
C1236 C 0.1843 0.85517 0.88193 0.0
C1237 C 0.20824 0.87374 0.86359 0.0
C1238 C 0.21254 0.90919 0.8606 0.0
C1239 C 0.19474 0.92482 0.87515 0.0
H1240 H 1.03414 0.58844 0.58403 0.0
H1241 H 0.96027 0.49902 0.53458 0.0
H1242 H 0.99592 0.58869 0.6176 0.0
H1243 H 0.92209 0.49947 0.56722 0.0
H1244 H 0.86566 0.48309 0.63484 0.0
H1245 H 0.88588 0.52327 0.58969 0.0
H1246 H 0.99335 0.54285 0.66859 0.0
H1247 H 0.97377 0.50246 0.71286 0.0
C1248 C 1.00905 0.56966 0.57925 0.0
C1249 C 1.00049 0.54305 0.55776 0.0
C1250 C 0.98714 0.56994 0.59826 0.0
C1251 C 0.95627 0.54389 0.59544 0.0
C1252 C 0.94556 0.52003 0.56995 0.0
C1253 C 0.96769 0.5194 0.55162 0.0
C1254 C 0.89338 0.49689 0.64294 0.0
C1255 C 0.91842 0.48825 0.67675 0.0
C1256 C 0.90484 0.5202 0.61721 0.0
C1257 C 0.94137 0.53518 0.62519 0.0
C1258 C 0.96504 0.53147 0.6614 0.0
C1259 C 0.95371 0.50799 0.68695 0.0
H1260 H 0.49258 0.10935 0.4942 0.0
H1261 H 0.53305 0.11468 0.40815 0.0
H1262 H 0.45429 0.14615 0.45588 0.0
H1263 H 0.49637 0.15298 0.37032 0.0
H1264 H 0.40606 0.20212 0.29426 0.0
H1265 H 0.44423 0.16501 0.33234 0.0
H1266 H 0.44272 0.19615 0.42958 0.0
H1267 H 0.40309 0.2316 0.39122 0.0
C1268 C 0.49376 0.11873 0.46722 0.0
C1269 C 0.51627 0.10864 0.45467 0.0
C1270 C 0.4717 0.14033 0.44494 0.0
C1271 C 0.47143 0.15338 0.40915 0.0
C1272 C 0.49451 0.14351 0.39698 0.0
C1273 C 0.51615 0.1215 0.41907 0.0
C1274 C 0.41391 0.20112 0.32379 0.0
C1275 C 0.40107 0.22023 0.33924 0.0
C1276 C 0.43629 0.17973 0.34604 0.0
C1277 C 0.44736 0.17676 0.3849 0.0
C1278 C 0.43479 0.19644 0.40016 0.0
C1279 C 0.41201 0.21738 0.37789 0.0
H1280 H 0.64417 0.62494 0.03797 0.0
H1281 H 0.5975 0.59784 0.1222 0.0
H1282 H 0.6931 0.66664 0.07594 0.0
H1283 H 0.64596 0.63977 0.15999 0.0
H1284 H 0.75644 0.69226 0.23348 0.0
H1285 H 0.71097 0.64936 0.19472 0.0
H1286 H 0.70252 0.72107 0.09966 0.0
H1287 H 0.74821 0.76396 0.13848 0.0
C1288 C 0.64453 0.62789 0.06469 0.0
C1289 C 0.61735 0.6081 0.07736 0.0
C1290 C 0.67232 0.65189 0.08629 0.0
C1291 C 0.67352 0.65639 0.12107 0.0
C1292 C 0.6461 0.63658 0.13357 0.0
C1293 C 0.61821 0.6128 0.11184 0.0
C1294 C 0.74509 0.69876 0.20426 0.0
C1295 C 0.75571 0.7315 0.18901 0.0
C1296 C 0.71889 0.67427 0.18211 0.0
C1297 C 0.7029 0.6819 0.14417 0.0
C1298 C 0.71445 0.71435 0.12875 0.0
C1299 C 0.74051 0.73894 0.15097 0.0
H1300 H 0.25454 0.26716 0.63928 0.0
H1301 H 0.2474 0.19724 0.73267 0.0
H1302 H 0.20848 0.22638 0.59807 0.0
H1303 H 0.20024 0.15722 0.69204 0.0
H1304 H 0.13655 0.07939 0.6117 0.0
H1305 H 0.18653 0.1194 0.64972 0.0
H1306 H 0.14704 0.20142 0.57688 0.0
H1307 H 0.09835 0.16094 0.53745 0.0
C1308 C 0.24304 0.24304 0.65094 0.0
C1309 C 0.25455 0.23532 0.68912 0.0
C1310 C 0.2164 0.21975 0.62738 0.0
C1311 C 0.20034 0.18836 0.64154 0.0
C1312 C 0.21228 0.18073 0.67988 0.0
C1313 C 0.23925 0.20379 0.70332 0.0
C1314 C 0.13888 0.10597 0.60355 0.0
C1315 C 0.11371 0.11705 0.57153 0.0
C1316 C 0.16732 0.12903 0.62564 0.0
C1317 C 0.17092 0.16385 0.61673 0.0
C1318 C 0.14559 0.17488 0.58449 0.0
C1319 C 0.1174 0.15171 0.56204 0.0
H1320 H 0.7585 0.36469 0.27546 0.0
H1321 H 0.76536 0.28807 0.36492 0.0
H1322 H 0.72695 0.39112 0.29896 0.0
H1323 H 0.73367 0.31419 0.38865 0.0
H1324 H 0.64996 0.35429 0.41134 0.0
H1325 H 0.68047 0.32751 0.38697 0.0
H1326 H 0.72655 0.42419 0.34276 0.0
H1327 H 0.69637 0.45096 0.36745 0.0
C1328 C 0.75314 0.35302 0.3 0.0
C1329 C 0.76503 0.32344 0.31736 0.0
C1330 C 0.73498 0.36865 0.3141 0.0
C1331 C 0.72682 0.35562 0.34651 0.0
C1332 C 0.73841 0.32575 0.36367 0.0
C1333 C 0.7571 0.31047 0.34984 0.0
C1334 C 0.66642 0.37025 0.39638 0.0
C1335 C 0.66981 0.40562 0.39218 0.0
C1336 C 0.68457 0.35455 0.3823 0.0
C1337 C 0.70695 0.37286 0.36216 0.0
C1338 C 0.70993 0.40818 0.35751 0.0
C1339 C 0.6924 0.42394 0.37227 0.0
H1340 H 0.45183 1.00884 1.02394 0.0
H1341 H 0.52861 0.09411 0.07953 0.0
H1342 H 0.41556 1.00606 0.05986 0.0
H1343 H 0.49231 0.09116 0.11633 0.0
H1344 H 0.47342 1.00015 0.20765 0.0
H1345 H 0.49106 0.04289 0.16396 0.0
H1346 H 0.38192 1.02532 0.08877 0.0
H1347 H 0.36377 0.98256 0.13338 0.0
C1348 C 0.46019 1.02779 0.04299 0.0
C1349 C 0.4933 0.05103 0.04984 0.0
C1350 C 0.43919 1.02654 0.06332 0.0
C1351 C 0.45141 0.04805 0.09149 0.0
C1352 C 0.48241 0.07412 0.09502 0.0
C1353 C 0.5032 0.07574 0.07407 0.0
C1354 C 0.45266 1.00651 0.18279 0.0
C1355 C 0.41739 0.98681 0.17331 0.0
C1356 C 0.46286 1.03135 0.15758 0.0
C1357 C 0.43804 0.03657 0.12235 0.0
C1358 C 0.40173 1.02116 0.11544 0.0
C1359 C 0.39144 0.99643 0.14084 0.0
H1360 H 1.02965 0.61156 0.90823 0.0
H1361 H 0.99143 0.60902 0.99531 0.0
H1362 H 0.99373 0.6505 0.87052 0.0
H1363 H 0.95395 0.64661 0.95714 0.0
H1364 H 0.90542 0.73381 0.89232 0.0
H1365 H 0.94402 0.69735 0.93054 0.0
H1366 H 0.94141 0.66291 0.83309 0.0
H1367 H 0.90422 0.70088 0.79509 0.0
C1368 C 1.01341 0.61912 0.91942 0.0
C1369 C 1.01392 0.60681 0.95526 0.0
C1370 C 0.99222 0.64152 0.8974 0.0
C1371 C 0.97003 0.65241 0.90991 0.0
C1372 C 0.97068 0.63995 0.94594 0.0
C1373 C 0.99227 0.6179 0.96813 0.0
C1374 C 0.9132 0.71864 0.8789 0.0
C1375 C 0.90141 0.72081 0.8402 0.0
C1376 C 0.93537 0.69714 0.90109 0.0
C1377 C 0.9465 0.67626 0.88573 0.0
C1378 C 0.93457 0.67854 0.84684 0.0
C1379 C 0.91275 0.70043 0.82465 0.0
H1380 H 0.40786 0.50266 0.12453 0.0
H1381 H 0.40036 0.41398 0.0778 0.0
H1382 H 0.39899 0.46803 0.17827 0.0
H1383 H 0.38934 0.37908 0.13056 0.0
H1384 H 0.41101 0.33037 0.24736 0.0
H1385 H 0.42134 0.36637 0.1944 0.0
H1386 H 0.35591 0.42757 0.19872 0.0
H1387 H 0.34674 0.39237 0.25193 0.0
C1388 C 0.40381 0.47572 0.1255 0.0
C1389 C 0.40494 0.46114 0.09691 0.0
C1390 C 0.39845 0.4558 0.1562 0.0
C1391 C 0.39378 0.42078 0.15891 0.0
C1392 C 0.39356 0.40605 0.12969 0.0
C1393 C 0.39917 0.42601 0.09908 0.0
C1394 C 0.39943 0.35189 0.23718 0.0
C1395 C 0.37822 0.3587 0.25363 0.0
C1396 C 0.40494 0.37227 0.20668 0.0
C1397 C 0.38922 0.39976 0.19213 0.0
C1398 C 0.36881 0.40693 0.20942 0.0
C1399 C 0.36357 0.38676 0.23998 0.0
H1400 H 0.52811 0.5635 0.89243 0.0
H1401 H 0.63622 0.61506 0.95231 0.0
H1402 H 0.51989 0.61385 0.85199 0.0
H1403 H 0.62782 0.66584 0.91184 0.0
H1404 H 0.54711 0.72292 0.9231 0.0
H1405 H 0.58817 0.69098 0.92688 0.0
H1406 H 0.52884 0.66813 0.81413 0.0
H1407 H 0.48798 0.70113 0.81025 0.0
C1408 C 0.55067 0.58514 0.89587 0.0
C1409 C 0.58201 0.58604 0.92664 0.0
C1410 C 0.54617 0.61407 0.87236 0.0
C1411 C 0.57275 0.6443 0.87992 0.0
C1412 C 0.60658 0.6431 0.90608 0.0
C1413 C 0.61125 0.61398 0.9294 0.0
C1414 C 0.54377 0.71256 0.89853 0.0
C1415 C 0.51334 0.71301 0.86691 0.0
C1416 C 0.5676 0.69436 0.90053 0.0
C1417 C 0.56094 0.67597 0.87112 0.0
C1418 C 0.53411 0.68139 0.83747 0.0
C1419 C 0.51044 0.69983 0.83542 0.0
H1420 H 0.12417 0.54919 0.6633 0.0
H1421 H 0.16302 0.60167 0.57704 0.0
H1422 H 0.16366 0.59315 0.70363 0.0
H1423 H 0.20002 0.6472 0.61565 0.0
H1424 H 0.22029 0.68851 0.76302 0.0
H1425 H 0.17816 0.64591 0.72167 0.0
H1426 H 0.25062 0.66473 0.66263 0.0
H1427 H 0.2907 0.7086 0.70202 0.0
C1428 C 0.14085 0.57043 0.65278 0.0
C1429 C 0.14041 0.57192 0.61691 0.0
C1430 C 0.16334 0.59601 0.67583 0.0
C1431 C 0.18557 0.62423 0.66341 0.0
C1432 C 0.18435 0.62579 0.62705 0.0
C1433 C 0.16263 0.59977 0.60447 0.0
C1434 C 0.22684 0.68359 0.74091 0.0
C1435 C 0.25872 0.70202 0.73572 0.0
C1436 C 0.20284 0.65888 0.71726 0.0
C1437 C 0.21051 0.65138 0.6883 0.0
C1438 C 0.24277 0.66994 0.68361 0.0
C1439 C 0.26617 0.6951 0.70659 0.0
H1440 H 0.38971 0.39877 0.69636 0.0
H1441 H 0.41845 0.31067 0.68909 0.0
H1442 H 0.42527 0.43234 0.65904 0.0
H1443 H 0.45333 0.34398 0.65106 0.0
H1444 H 0.50544 0.40648 0.56146 0.0
H1445 H 0.47143 0.37426 0.60028 0.0
H1446 H 0.47427 0.46597 0.63627 0.0
H1447 H 0.50943 0.49841 0.59768 0.0
C1448 C 0.40324 0.38569 0.68713 0.0
C1449 C 0.39913 0.35007 0.69789 0.0
C1450 C 0.42463 0.40584 0.66479 0.0
C1451 C 0.44426 0.39294 0.64963 0.0
C1452 C 0.43993 0.35721 0.66025 0.0
C1453 C 0.41905 0.33718 0.68314 0.0
C1454 C 0.49948 0.42069 0.57752 0.0
C1455 C 0.51238 0.45684 0.57429 0.0
C1456 C 0.47906 0.4013 0.60087 0.0
C1457 C 0.46795 0.41544 0.62378 0.0
C1458 C 0.48056 0.45182 0.62046 0.0
C1459 C 0.50174 0.47132 0.59745 0.0
H1460 H 0.23855 0.75357 0.17912 0.0
H1461 H 0.31766 0.70122 0.19127 0.0
H1462 H 0.19265 0.71252 0.13751 0.0
H1463 H 0.27153 0.65964 0.15058 0.0
H1464 H 0.16623 0.57329 0.11207 0.0
H1465 H 0.21061 0.61463 0.1541 0.0
H1466 H 0.18387 0.69487 0.07068 0.0
H1467 H 0.14021 0.65341 0.02811 0.0
C1468 C 0.24609 0.73323 0.17299 0.0
C1469 C 0.28174 0.73068 0.1883 0.0
C1470 C 0.21985 0.70983 0.14914 0.0
C1471 C 0.22854 0.68291 0.14083 0.0
C1472 C 0.26407 0.68007 0.15661 0.0
C1473 C 0.29047 0.70392 0.17976 0.0
C1474 C 0.1698 0.59976 0.10271 0.0
C1475 C 0.14992 0.61015 0.06672 0.0
C1476 C 0.19526 0.62337 0.12673 0.0
C1477 C 0.20076 0.65794 0.11561 0.0
C1478 C 0.18013 0.66839 0.07998 0.0
C1479 C 0.15527 0.64471 0.05562 0.0
H1480 H 0.71645 0.33559 0.72952 0.0
H1481 H 0.80466 0.39419 0.69693 0.0
H1482 H 0.68248 0.37792 0.69645 0.0
H1483 H 0.77089 0.43635 0.66393 0.0
H1484 H 0.68729 0.48759 0.57309 0.0
H1485 H 0.7233 0.44878 0.61087 0.0
H1486 H 0.67207 0.43403 0.69006 0.0
H1487 H 0.63571 0.47355 0.65163 0.0
C1488 C 0.72888 0.35747 0.71546 0.0
C1489 C 0.76382 0.36072 0.71636 0.0
C1490 C 0.70922 0.38219 0.69641 0.0
C1491 C 0.72321 0.41133 0.67675 0.0
C1492 C 0.75827 0.41454 0.6779 0.0
C1493 C 0.77804 0.39009 0.69728 0.0
C1494 C 0.68405 0.47683 0.59898 0.0
C1495 C 0.65857 0.48491 0.60907 0.0
C1496 C 0.70501 0.45415 0.62098 0.0
C1497 C 0.70136 0.43744 0.65426 0.0
C1498 C 0.6761 0.44576 0.66479 0.0
C1499 C 0.65538 0.4691 0.64286 0.0
H1500 H 0.98836 0.78899 0.19036 0.0
H1501 H 1.03264 0.7179 0.2778 0.0
H1502 H 1.02492 0.78288 0.15783 0.0
H1503 H 1.06903 0.71209 0.24585 0.0
H1504 H 0.11171 0.68059 0.18206 0.0
H1505 H 0.10977 0.72562 0.21213 0.0
H1506 H 1.00707 0.73044 0.12909 0.0
H1507 H 1.00953 0.68624 0.09898 0.0
C1508 C 1.00681 0.773 0.20323 0.0
C1509 C 1.00663 0.75287 0.23589 0.0
C1510 C 1.0279 0.7697 0.18473 0.0
C1511 C 1.049 0.74622 0.19868 0.0
C1512 C 1.05302 0.73035 0.23416 0.0
C1513 C 1.03191 0.73356 0.25256 0.0
C1514 C 0.08953 0.69239 0.16944 0.0
C1515 C 1.06017 0.67936 0.13897 0.0
C1516 C 0.08841 0.71813 0.18666 0.0
C1517 C 1.05789 0.73098 0.1736 0.0
C1518 C 1.03101 0.72116 0.14004 0.0
C1519 C 1.0321 0.69544 0.12297 0.0
H1520 H 1.02082 0.65515 0.58061 0.0
H1521 H 1.0574 0.75369 0.53168 0.0
H1522 H 0.98946 0.67822 0.6065 0.0
H1523 H 1.02596 0.7772 0.5582 0.0
H1524 H 0.92663 0.79187 0.57583 0.0
H1525 H 0.96501 0.7756 0.55231 0.0
H1526 H 1.00117 0.7138 0.6531 0.0
H1527 H 0.96148 0.72831 0.67563 0.0
C1528 C 1.02266 0.68194 0.57593 0.0
C1529 C 1.042 0.70272 0.55456 0.0
C1530 C 1.00471 0.69521 0.59085 0.0
C1531 C 1.00565 0.72966 0.5849 0.0
C1532 C 1.02469 0.75053 0.56319 0.0
C1533 C 1.04267 0.73713 0.54806 0.0
C1534 C 0.94278 0.7748 0.59295 0.0
C1535 C 0.94054 0.76105 0.62743 0.0
C1536 C 0.96512 0.76583 0.57965 0.0
C1537 C 0.98574 0.74302 0.60063 0.0
C1538 C 0.98506 0.7309 0.63595 0.0
C1539 C 0.96262 0.73963 0.64909 0.0
H1540 H 0.5219 0.59304 0.38936 0.0
H1541 H 0.47189 0.57952 0.46917 0.0
H1542 H 0.48557 0.63276 0.35149 0.0
H1543 H 0.436 0.61859 0.43202 0.0
H1544 H 0.35472 0.67411 0.3477 0.0
H1545 H 0.38828 0.63176 0.38018 0.0
H1546 H 0.47525 0.68872 0.34465 0.0
H1547 H 0.44141 0.73124 0.3121 0.0
C1548 C 0.50256 0.59764 0.39854 0.0
C1549 C 0.49982 0.58188 0.43252 0.0
C1550 C 0.48187 0.62112 0.37693 0.0
C1551 C 0.45708 0.62969 0.38798 0.0
C1552 C 0.45387 0.61304 0.42146 0.0
C1553 C 0.47477 0.5902 0.44311 0.0
C1554 C 0.38098 0.67789 0.34665 0.0
C1555 C 0.39479 0.70693 0.32688 0.0
C1556 C 0.40066 0.65329 0.3657 0.0
C1557 C 0.43529 0.65599 0.36586 0.0
C1558 C 0.44887 0.6848 0.3455 0.0
C1559 C 0.42928 0.70965 0.32674 0.0
H1560 H 0.13343 0.33878 0.78295 0.0
H1561 H 0.19859 0.28793 0.87815 0.0
H1562 H 0.09971 0.34499 0.81802 0.0
H1563 H 0.16446 0.29384 0.91352 0.0
H1564 H 0.16978 0.39642 0.95498 0.0
H1565 H 0.17694 0.35121 0.93013 0.0
H1566 H 1.06583 0.33226 0.85976 0.0
H1567 H 1.05892 0.37804 0.88503 0.0
C1568 C 0.13931 0.32736 0.81087 0.0
C1569 C 0.16934 0.31401 0.82832 0.0
C1570 C 0.11983 0.33075 0.83105 0.0
C1571 C 0.13026 0.32088 0.86891 0.0
C1572 C 0.15644 0.3024 0.8846 0.0
C1573 C 0.17604 0.29914 0.86445 0.0
C1574 C 0.14666 0.38176 0.93515 0.0
C1575 C 0.1141 0.39095 0.92121 0.0
C1576 C 0.15053 0.35553 0.92116 0.0
C1577 C 0.12198 0.3384 0.89255 0.0
C1578 C 0.0883 0.34522 0.88157 0.0
C1579 C 0.08436 0.37135 0.89595 0.0
H1580 H 0.2135 0.25313 0.47078 0.0
H1581 H 0.166 0.30562 0.36617 0.0
H1582 H 0.17476 0.26757 0.49488 0.0
H1583 H 0.12509 0.31682 0.38914 0.0
H1584 H 0.11139 0.38424 0.45779 0.0
H1585 H 0.13639 0.35733 0.42864 0.0
H1586 H 0.11879 0.26602 0.49836 0.0
H1587 H 0.09358 0.29354 0.52804 0.0
C1588 C 0.19451 0.26727 0.45267 0.0
C1589 C 0.19408 0.27927 0.41686 0.0
C1590 C 0.17177 0.27503 0.46637 0.0
C1591 C 0.14759 0.2944 0.44432 0.0
C1592 C 0.14435 0.30297 0.40733 0.0
C1593 C 0.16758 0.29595 0.39391 0.0
C1594 C 0.11194 0.35814 0.46637 0.0
C1595 C 0.10014 0.34094 0.49502 0.0
C1596 C 0.12625 0.34256 0.44951 0.0
C1597 C 0.12919 0.30922 0.46066 0.0
C1598 C 0.11702 0.29174 0.4891 0.0
C1599 C 0.1026 0.30747 0.50612 0.0
loop_
_geom_bond_atom_site_label_1
_geom_bond_atom_site_label_2
_geom_bond_distance
_geom_bond_site_symmetry_2
_ccdc_geom_bond_type
C0 Eu1 2.835 1_655 S
C0 C2 1.500 . S
C0 O20 1.257 . S
C0 O21 1.260 1_655 S
Eu1 C0 2.835 1_455 S
Eu1 O20 2.473 1_455 S
Eu1 O21 2.480 . S
Eu1 O22 2.430 . S
Eu1 O23 2.670 1_554 S
Eu1 O24 2.394 1_454 S
Eu1 O29 2.355 1_445 S
Eu1 O31 2.374 1_545 S
C2 C0 1.500 . S
C2 C3 1.377 . S
C2 C7 1.377 . S
C3 C2 1.377 . S
C3 C4 1.395 . S
C3 H32 0.931 1_655 S
C4 C3 1.395 . S
C4 C5 1.383 . S
C4 H33 0.931 . S
C5 C4 1.383 . S
C5 C6 1.394 . S
C6 C5 1.394 . S
C6 C7 1.378 . S
C6 H34 0.931 . S
C7 C2 1.377 . S
C7 C6 1.378 . S
C7 H35 0.931 . S
C8 O22 1.259 1_556 S
C8 O23 1.270 . S
C9 O24 1.251 . S
C9 O25 1.251 . S
C10 Eu11 2.835 1_455 S
C10 C12 1.500 . S
C10 O26 1.257 . S
C10 O27 1.260 1_455 S
Eu11 C10 2.835 1_655 S
Eu11 O23 2.355 1_665 S
Eu11 O25 2.374 1_565 S
Eu11 O26 2.473 1_655 S
Eu11 O27 2.480 . S
Eu11 O28 2.430 . S
Eu11 O29 2.670 1_556 S
Eu11 O30 2.394 1_656 S
C12 C10 1.500 . S
C12 C13 1.377 . S
C12 C17 1.377 . S
C13 C12 1.377 . S
C13 C14 1.395 . S
C13 H36 0.931 1_455 S
C14 C13 1.395 . S
C14 C15 1.383 . S
C14 H37 0.931 . S
C15 C14 1.383 . S
C15 C16 1.394 . S
C16 C15 1.394 . S
C16 C17 1.378 . S
C16 H38 0.931 . S
C17 C12 1.377 . S
C17 C16 1.378 . S
C17 H39 0.931 . S
C18 O28 1.259 1_554 S
C18 O29 1.270 . S
C19 O30 1.251 . S
C19 O31 1.251 . S
O20 C0 1.257 . S
O20 Eu1 2.473 1_655 S
O21 C0 1.260 1_455 S
O21 Eu1 2.480 . S
O22 Eu1 2.430 . S
O22 C8 1.259 1_554 S
O23 Eu1 2.670 1_556 S
O23 C8 1.270 . S
O23 Eu11 2.355 1_445 S
O24 Eu1 2.394 1_656 S
O24 C9 1.251 . S
O25 C9 1.251 . S
O25 Eu11 2.374 1_545 S
O26 C10 1.257 . S
O26 Eu11 2.473 1_455 S
O27 C10 1.260 1_655 S
O27 Eu11 2.480 . S
O28 Eu11 2.430 . S
O28 C18 1.259 1_556 S
O29 Eu1 2.355 1_665 S
O29 Eu11 2.670 1_554 S
O29 C18 1.270 . S
O30 Eu11 2.394 1_454 S
O30 C19 1.251 . S
O31 Eu1 2.374 1_565 S
O31 C19 1.251 . S
H32 C3 0.931 1_455 S
H33 C4 0.931 . S
H34 C6 0.931 . S
H35 C7 0.931 . S
H36 C13 0.931 1_655 S
H37 C14 0.931 . S
H38 C16 0.931 . S
H39 C17 0.931 . S
C40 Eu41 2.835 . S
C40 C42 1.500 . S
C40 O60 1.257 . S
C40 O61 1.260 . S
Eu41 C40 2.835 . S
Eu41 O60 2.473 . S
Eu41 O61 2.480 . S
Eu41 O62 2.430 . S
Eu41 O63 2.670 . S
Eu41 O64 2.394 . S
Eu41 O69 2.355 . S
Eu41 O71 2.374 . S
C42 C40 1.500 . S
C42 C43 1.377 . S
C42 C47 1.377 . S
C43 C42 1.377 . S
C43 C44 1.395 . S
C43 H72 0.931 . S
C44 C43 1.395 . S
C44 C45 1.383 . S
C44 H73 0.931 . S
C45 C44 1.383 . S
C45 C46 1.394 . S
C46 C45 1.394 . S
C46 C47 1.378 . S
C46 H74 0.931 . S
C47 C42 1.377 . S
C47 C46 1.378 . S
C47 H75 0.931 . S
C48 O62 1.259 . S
C48 O63 1.270 . S
C49 O64 1.251 . S
C49 O65 1.251 . S
C50 Eu51 2.835 . S
C50 C52 1.500 . S
C50 O66 1.257 . S
C50 O67 1.260 . S
Eu51 C50 2.835 . S
Eu51 O63 2.355 . S
Eu51 O65 2.374 . S
Eu51 O66 2.473 . S
Eu51 O67 2.480 . S
Eu51 O68 2.430 . S
Eu51 O69 2.670 . S
Eu51 O70 2.394 . S
C52 C50 1.500 . S
C52 C53 1.377 . S
C52 C57 1.377 . S
C53 C52 1.377 . S
C53 C54 1.395 . S
C53 H76 0.931 . S
C54 C53 1.395 . S
C54 C55 1.383 . S
C54 H77 0.931 . S
C55 C54 1.383 . S
C55 C56 1.394 . S
C56 C55 1.394 . S
C56 C57 1.378 . S
C56 H78 0.931 . S
C57 C52 1.377 . S
C57 C56 1.378 . S
C57 H79 0.931 . S
C58 O68 1.259 . S
C58 O69 1.270 . S
C59 O70 1.251 . S
C59 O71 1.251 . S
O60 C40 1.257 . S
O60 Eu41 2.473 . S
O61 C40 1.260 . S
O61 Eu41 2.480 . S
O62 Eu41 2.430 . S
O62 C48 1.259 . S
O63 Eu41 2.670 . S
O63 C48 1.270 . S
O63 Eu51 2.355 . S
O64 Eu41 2.394 . S
O64 C49 1.251 . S
O65 C49 1.251 . S
O65 Eu51 2.374 . S
O66 C50 1.257 . S
O66 Eu51 2.473 . S
O67 C50 1.260 . S
O67 Eu51 2.480 . S
O68 Eu51 2.430 . S
O68 C58 1.259 . S
O69 Eu41 2.355 . S
O69 Eu51 2.670 . S
O69 C58 1.270 . S
O70 Eu51 2.394 . S
O70 C59 1.251 . S
O71 Eu41 2.374 . S
O71 C59 1.251 . S
H72 C43 0.931 . S
H73 C44 0.931 . S
H74 C46 0.931 . S
H75 C47 0.931 . S
H76 C53 0.931 . S
H77 C54 0.931 . S
H78 C56 0.931 . S
H79 C57 0.931 . S
C80 Eu81 2.835 1_565 S
C80 C82 1.500 . S
C80 O100 1.257 . S
C80 O101 1.260 1_565 S
Eu81 C80 2.835 1_545 S
Eu81 O100 2.473 1_545 S
Eu81 O101 2.480 . S
Eu81 O102 2.430 . S
Eu81 O103 2.670 . S
Eu81 O104 2.394 1_545 S
Eu81 O109 2.355 1_545 S
Eu81 O111 2.374 . S
C82 C80 1.500 . S
C82 C83 1.377 . S
C82 C87 1.377 . S
C83 C82 1.377 . S
C83 C84 1.395 . S
C83 H112 0.931 . S
C84 C83 1.395 . S
C84 C85 1.383 . S
C84 H113 0.931 . S
C85 C84 1.383 . S
C85 C86 1.394 . S
C86 C85 1.394 . S
C86 C87 1.378 . S
C86 H114 0.931 . S
C87 C82 1.377 . S
C87 C86 1.378 . S
C87 H115 0.931 . S
C88 O102 1.259 . S
C88 O103 1.270 . S
C89 O104 1.251 . S
C89 O105 1.251 . S
C90 Eu91 2.835 1_545 S
C90 C92 1.500 . S
C90 O106 1.257 . S
C90 O107 1.260 1_545 S
Eu91 C90 2.835 1_565 S
Eu91 O103 2.355 1_565 S
Eu91 O105 2.374 . S
Eu91 O106 2.473 1_565 S
Eu91 O107 2.480 . S
Eu91 O108 2.430 . S
Eu91 O109 2.670 . S
Eu91 O110 2.394 1_565 S
C92 C90 1.500 . S
C92 C93 1.377 . S
C92 C97 1.377 . S
C93 C92 1.377 . S
C93 C94 1.395 . S
C93 H116 0.931 . S
C94 C93 1.395 . S
C94 C95 1.383 . S
C94 H117 0.931 . S
C95 C94 1.383 . S
C95 C96 1.394 . S
C96 C95 1.394 . S
C96 C97 1.378 . S
C96 H118 0.931 . S
C97 C92 1.377 . S
C97 C96 1.378 . S
C97 H119 0.931 . S
C98 O108 1.259 . S
C98 O109 1.270 . S
C99 O110 1.251 . S
C99 O111 1.251 . S
O100 C80 1.257 . S
O100 Eu81 2.473 1_565 S
O101 C80 1.260 1_545 S
O101 Eu81 2.480 . S
O102 Eu81 2.430 . S
O102 C88 1.259 . S
O103 Eu81 2.670 . S
O103 C88 1.270 . S
O103 Eu91 2.355 1_545 S
O104 Eu81 2.394 1_565 S
O104 C89 1.251 . S
O105 C89 1.251 . S
O105 Eu91 2.374 . S
O106 C90 1.257 . S
O106 Eu91 2.473 1_545 S
O107 C90 1.260 1_565 S
O107 Eu91 2.480 . S
O108 Eu91 2.430 . S
O108 C98 1.259 . S
O109 Eu81 2.355 1_565 S
O109 Eu91 2.670 . S
O109 C98 1.270 . S
O110 Eu91 2.394 1_545 S
O110 C99 1.251 . S
O111 Eu81 2.374 . S
O111 C99 1.251 . S
H112 C83 0.931 . S
H113 C84 0.931 . S
H114 C86 0.931 . S
H115 C87 0.931 . S
H116 C93 0.931 . S
H117 C94 0.931 . S
H118 C96 0.931 . S
H119 C97 0.931 . S
C120 Eu121 2.835 . S
C120 C122 1.500 . S
C120 O140 1.257 . S
C120 O141 1.260 . S
Eu121 C120 2.835 . S
Eu121 O140 2.473 . S
Eu121 O141 2.480 . S
Eu121 O142 2.430 . S
Eu121 O143 2.670 . S
Eu121 O144 2.394 . S
Eu121 O149 2.355 . S
Eu121 O151 2.374 . S
C122 C120 1.500 . S
C122 C123 1.377 . S
C122 C127 1.377 . S
C123 C122 1.377 . S
C123 C124 1.395 . S
C123 H152 0.931 . S
C124 C123 1.395 . S
C124 C125 1.383 . S
C124 H153 0.931 . S
C125 C124 1.383 . S
C125 C126 1.394 . S
C126 C125 1.394 . S
C126 C127 1.378 . S
C126 H154 0.931 . S
C127 C122 1.377 . S
C127 C126 1.378 . S
C127 H155 0.931 . S
C128 O142 1.259 . S
C128 O143 1.270 . S
C129 O144 1.251 . S
C129 O145 1.251 . S
C130 Eu131 2.835 . S
C130 C132 1.500 . S
C130 O146 1.257 . S
C130 O147 1.260 . S
Eu131 C130 2.835 . S
Eu131 O143 2.355 . S
Eu131 O145 2.374 . S
Eu131 O146 2.473 . S
Eu131 O147 2.480 . S
Eu131 O148 2.430 . S
Eu131 O149 2.670 . S
Eu131 O150 2.394 . S
C132 C130 1.500 . S
C132 C133 1.377 . S
C132 C137 1.377 . S
C133 C132 1.377 . S
C133 C134 1.395 . S
C133 H156 0.931 . S
C134 C133 1.395 . S
C134 C135 1.383 . S
C134 H157 0.931 . S
C135 C134 1.383 . S
C135 C136 1.394 . S
C136 C135 1.394 . S
C136 C137 1.378 . S
C136 H158 0.931 . S
C137 C132 1.377 . S
C137 C136 1.378 . S
C137 H159 0.931 . S
C138 O148 1.259 . S
C138 O149 1.270 . S
C139 O150 1.251 . S
C139 O151 1.251 . S
O140 C120 1.257 . S
O140 Eu121 2.473 . S
O141 C120 1.260 . S
O141 Eu121 2.480 . S
O142 Eu121 2.430 . S
O142 C128 1.259 . S
O143 Eu121 2.670 . S
O143 C128 1.270 . S
O143 Eu131 2.355 . S
O144 Eu121 2.394 . S
O144 C129 1.251 . S
O145 C129 1.251 . S
O145 Eu131 2.374 . S
O146 C130 1.257 . S
O146 Eu131 2.473 . S
O147 C130 1.260 . S
O147 Eu131 2.480 . S
O148 Eu131 2.430 . S
O148 C138 1.259 . S
O149 Eu121 2.355 . S
O149 Eu131 2.670 . S
O149 C138 1.270 . S
O150 Eu131 2.394 . S
O150 C139 1.251 . S
O151 Eu121 2.374 . S
O151 C139 1.251 . S
H152 C123 0.931 . S
H153 C124 0.931 . S
H154 C126 0.931 . S
H155 C127 0.931 . S
H156 C133 0.931 . S
H157 C134 0.931 . S
H158 C136 0.931 . S
H159 C137 0.931 . S
C160 Eu161 2.835 . S
C160 C162 1.500 . S
C160 O180 1.257 . S
C160 O181 1.260 . S
Eu161 C160 2.835 . S
Eu161 O180 2.473 . S
Eu161 O181 2.480 . S
Eu161 O182 2.430 1_445 S
Eu161 O183 2.670 1_445 S
Eu161 O184 2.394 1_455 S
Eu161 O189 2.355 . S
Eu161 O191 2.374 1_545 S
C162 C160 1.500 . S
C162 C163 1.377 . S
C162 C167 1.377 . S
C163 C162 1.377 . S
C163 C164 1.395 . S
C163 H192 0.931 . S
C164 C163 1.395 . S
C164 C165 1.383 . S
C164 H193 0.931 . S
C165 C164 1.383 . S
C165 C166 1.394 . S
C166 C165 1.394 . S
C166 C167 1.378 . S
C166 H194 0.931 . S
C167 C162 1.377 . S
C167 C166 1.378 . S
C167 H195 0.931 . S
C168 O182 1.259 . S
C168 O183 1.270 . S
C169 O184 1.251 . S
C169 O185 1.251 . S
C170 Eu171 2.835 . S
C170 C172 1.500 . S
C170 O186 1.257 . S
C170 O187 1.260 . S
Eu171 C170 2.835 . S
Eu171 O183 2.355 . S
Eu171 O185 2.374 1_565 S
Eu171 O186 2.473 . S
Eu171 O187 2.480 . S
Eu171 O188 2.430 1_665 S
Eu171 O189 2.670 1_665 S
Eu171 O190 2.394 1_655 S
C172 C170 1.500 . S
C172 C173 1.377 . S
C172 C177 1.377 . S
C173 C172 1.377 . S
C173 C174 1.395 . S
C173 H196 0.931 . S
C174 C173 1.395 . S
C174 C175 1.383 . S
C174 H197 0.931 . S
C175 C174 1.383 . S
C175 C176 1.394 . S
C176 C175 1.394 . S
C176 C177 1.378 . S
C176 H198 0.931 . S
C177 C172 1.377 . S
C177 C176 1.378 . S
C177 H199 0.931 . S
C178 O188 1.259 . S
C178 O189 1.270 . S
C179 O190 1.251 . S
C179 O191 1.251 . S
O180 C160 1.257 . S
O180 Eu161 2.473 . S
O181 C160 1.260 . S
O181 Eu161 2.480 . S
O182 Eu161 2.430 1_665 S
O182 C168 1.259 . S
O183 Eu161 2.670 1_665 S
O183 C168 1.270 . S
O183 Eu171 2.355 . S
O184 Eu161 2.394 1_655 S
O184 C169 1.251 . S
O185 C169 1.251 . S
O185 Eu171 2.374 1_545 S
O186 C170 1.257 . S
O186 Eu171 2.473 . S
O187 C170 1.260 . S
O187 Eu171 2.480 . S
O188 Eu171 2.430 1_445 S
O188 C178 1.259 . S
O189 Eu161 2.355 . S
O189 Eu171 2.670 1_445 S
O189 C178 1.270 . S
O190 Eu171 2.394 1_455 S
O190 C179 1.251 . S
O191 Eu161 2.374 1_565 S
O191 C179 1.251 . S
H192 C163 0.931 . S
H193 C164 0.931 . S
H194 C166 0.931 . S
H195 C167 0.931 . S
H196 C173 0.931 . S
H197 C174 0.931 . S
H198 C176 0.931 . S
H199 C177 0.931 . S
C200 Eu201 2.835 . S
C200 C202 1.500 . S
C200 O220 1.257 . S
C200 O221 1.260 . S
Eu201 C200 2.835 . S
Eu201 O220 2.473 . S
Eu201 O221 2.480 . S
Eu201 O222 2.430 . S
Eu201 O223 2.670 . S
Eu201 O224 2.394 . S
Eu201 O229 2.355 . S
Eu201 O231 2.374 . S
C202 C200 1.500 . S
C202 C203 1.377 . S
C202 C207 1.377 . S
C203 C202 1.377 . S
C203 C204 1.395 . S
C203 H232 0.931 . S
C204 C203 1.395 . S
C204 C205 1.383 . S
C204 H233 0.931 . S
C205 C204 1.383 . S
C205 C206 1.394 . S
C206 C205 1.394 . S
C206 C207 1.378 . S
C206 H234 0.931 . S
C207 C202 1.377 . S
C207 C206 1.378 . S
C207 H235 0.931 . S
C208 O222 1.259 . S
C208 O223 1.270 . S
C209 O224 1.251 . S
C209 O225 1.251 . S
C210 Eu211 2.835 . S
C210 C212 1.500 . S
C210 O226 1.257 . S
C210 O227 1.260 . S
Eu211 C210 2.835 . S
Eu211 O223 2.355 . S
Eu211 O225 2.374 . S
Eu211 O226 2.473 . S
Eu211 O227 2.480 . S
Eu211 O228 2.430 . S
Eu211 O229 2.670 . S
Eu211 O230 2.394 . S
C212 C210 1.500 . S
C212 C213 1.377 . S
C212 C217 1.377 . S
C213 C212 1.377 . S
C213 C214 1.395 . S
C213 H236 0.931 . S
C214 C213 1.395 . S
C214 C215 1.383 . S
C214 H237 0.931 . S
C215 C214 1.383 . S
C215 C216 1.394 . S
C216 C215 1.394 . S
C216 C217 1.378 . S
C216 H238 0.931 . S
C217 C212 1.377 . S
C217 C216 1.378 . S
C217 H239 0.931 . S
C218 O228 1.259 . S
C218 O229 1.270 . S
C219 O230 1.251 . S
C219 O231 1.251 . S
O220 C200 1.257 . S
O220 Eu201 2.473 . S
O221 C200 1.260 . S
O221 Eu201 2.480 . S
O222 Eu201 2.430 . S
O222 C208 1.259 . S
O223 Eu201 2.670 . S
O223 C208 1.270 . S
O223 Eu211 2.355 . S
O224 Eu201 2.394 . S
O224 C209 1.251 . S
O225 C209 1.251 . S
O225 Eu211 2.374 . S
O226 C210 1.257 . S
O226 Eu211 2.473 . S
O227 C210 1.260 . S
O227 Eu211 2.480 . S
O228 Eu211 2.430 . S
O228 C218 1.259 . S
O229 Eu201 2.355 . S
O229 Eu211 2.670 . S
O229 C218 1.270 . S
O230 Eu211 2.394 . S
O230 C219 1.251 . S
O231 Eu201 2.374 . S
O231 C219 1.251 . S
H232 C203 0.931 . S
H233 C204 0.931 . S
H234 C206 0.931 . S
H235 C207 0.931 . S
H236 C213 0.931 . S
H237 C214 0.931 . S
H238 C216 0.931 . S
H239 C217 0.931 . S
C240 Eu241 2.835 1_554 S
C240 C242 1.500 . S
C240 O260 1.257 . S
C240 O261 1.260 1_554 S
Eu241 C240 2.835 1_556 S
Eu241 O260 2.473 1_556 S
Eu241 O261 2.480 . S
Eu241 O262 2.430 1_545 S
Eu241 O263 2.670 1_545 S
Eu241 O264 2.394 1_546 S
Eu241 O269 2.355 1_556 S
Eu241 O271 2.374 . S
C242 C240 1.500 . S
C242 C243 1.377 . S
C242 C247 1.377 . S
C243 C242 1.377 . S
C243 C244 1.395 . S
C243 H272 0.931 1_554 S
C244 C243 1.395 . S
C244 C245 1.383 . S
C244 H273 0.931 . S
C245 C244 1.383 . S
C245 C246 1.394 . S
C246 C245 1.394 . S
C246 C247 1.378 . S
C246 H274 0.931 . S
C247 C242 1.377 . S
C247 C246 1.378 . S
C247 H275 0.931 . S
C248 O262 1.259 . S
C248 O263 1.270 . S
C249 O264 1.251 . S
C249 O265 1.251 . S
C250 Eu251 2.835 1_556 S
C250 C252 1.500 . S
C250 O266 1.257 . S
C250 O267 1.260 1_556 S
Eu251 C250 2.835 1_554 S
Eu251 O263 2.355 1_554 S
Eu251 O265 2.374 . S
Eu251 O266 2.473 1_554 S
Eu251 O267 2.480 . S
Eu251 O268 2.430 1_565 S
Eu251 O269 2.670 1_565 S
Eu251 O270 2.394 1_564 S
C252 C250 1.500 . S
C252 C253 1.377 . S
C252 C257 1.377 . S
C253 C252 1.377 . S
C253 C254 1.395 . S
C253 H276 0.931 1_556 S
C254 C253 1.395 . S
C254 C255 1.383 . S
C254 H277 0.931 . S
C255 C254 1.383 . S
C255 C256 1.394 . S
C256 C255 1.394 . S
C256 C257 1.378 . S
C256 H278 0.931 . S
C257 C252 1.377 . S
C257 C256 1.378 . S
C257 H279 0.931 . S
C258 O268 1.259 . S
C258 O269 1.270 . S
C259 O270 1.251 . S
C259 O271 1.251 . S
O260 C240 1.257 . S
O260 Eu241 2.473 1_554 S
O261 C240 1.260 1_556 S
O261 Eu241 2.480 . S
O262 Eu241 2.430 1_565 S
O262 C248 1.259 . S
O263 Eu241 2.670 1_565 S
O263 C248 1.270 . S
O263 Eu251 2.355 1_556 S
O264 Eu241 2.394 1_564 S
O264 C249 1.251 . S
O265 C249 1.251 . S
O265 Eu251 2.374 . S
O266 C250 1.257 . S
O266 Eu251 2.473 1_556 S
O267 C250 1.260 1_554 S
O267 Eu251 2.480 . S
O268 Eu251 2.430 1_545 S
O268 C258 1.259 . S
O269 Eu241 2.355 1_554 S
O269 Eu251 2.670 1_545 S
O269 C258 1.270 . S
O270 Eu251 2.394 1_546 S
O270 C259 1.251 . S
O271 Eu241 2.374 . S
O271 C259 1.251 . S
H272 C243 0.931 1_556 S
H273 C244 0.931 . S
H274 C246 0.931 . S
H275 C247 0.931 . S
H276 C253 0.931 1_554 S
H277 C254 0.931 . S
H278 C256 0.931 . S
H279 C257 0.931 . S
C280 Eu281 2.835 . S
C280 C282 1.500 . S
C280 O300 1.257 . S
C280 O301 1.260 . S
Eu281 C280 2.835 . S
Eu281 O300 2.473 . S
Eu281 O301 2.480 . S
Eu281 O302 2.430 . S
Eu281 O303 2.670 . S
Eu281 O304 2.394 . S
Eu281 O309 2.355 . S
Eu281 O311 2.374 . S
C282 C280 1.500 . S
C282 C283 1.377 . S
C282 C287 1.377 . S
C283 C282 1.377 . S
C283 C284 1.395 . S
C283 H312 0.931 . S
C284 C283 1.395 . S
C284 C285 1.383 . S
C284 H313 0.931 . S
C285 C284 1.383 . S
C285 C286 1.394 . S
C286 C285 1.394 . S
C286 C287 1.378 . S
C286 H314 0.931 . S
C287 C282 1.377 . S
C287 C286 1.378 . S
C287 H315 0.931 . S
C288 O302 1.259 . S
C288 O303 1.270 . S
C289 O304 1.251 . S
C289 O305 1.251 . S
C290 Eu291 2.835 . S
C290 C292 1.500 . S
C290 O306 1.257 . S
C290 O307 1.260 . S
Eu291 C290 2.835 . S
Eu291 O303 2.355 . S
Eu291 O305 2.374 . S
Eu291 O306 2.473 . S
Eu291 O307 2.480 . S
Eu291 O308 2.430 . S
Eu291 O309 2.670 . S
Eu291 O310 2.394 . S
C292 C290 1.500 . S
C292 C293 1.377 . S
C292 C297 1.377 . S
C293 C292 1.377 . S
C293 C294 1.395 . S
C293 H316 0.931 . S
C294 C293 1.395 . S
C294 C295 1.383 . S
C294 H317 0.931 . S
C295 C294 1.383 . S
C295 C296 1.394 . S
C296 C295 1.394 . S
C296 C297 1.378 . S
C296 H318 0.931 . S
C297 C292 1.377 . S
C297 C296 1.378 . S
C297 H319 0.931 . S
C298 O308 1.259 . S
C298 O309 1.270 . S
C299 O310 1.251 . S
C299 O311 1.251 . S
O300 C280 1.257 . S
O300 Eu281 2.473 . S
O301 C280 1.260 . S
O301 Eu281 2.480 . S
O302 Eu281 2.430 . S
O302 C288 1.259 . S
O303 Eu281 2.670 . S
O303 C288 1.270 . S
O303 Eu291 2.355 . S
O304 Eu281 2.394 . S
O304 C289 1.251 . S
O305 C289 1.251 . S
O305 Eu291 2.374 . S
O306 C290 1.257 . S
O306 Eu291 2.473 . S
O307 C290 1.260 . S
O307 Eu291 2.480 . S
O308 Eu291 2.430 . S
O308 C298 1.259 . S
O309 Eu281 2.355 . S
O309 Eu291 2.670 . S
O309 C298 1.270 . S
O310 Eu291 2.394 . S
O310 C299 1.251 . S
O311 Eu281 2.374 . S
O311 C299 1.251 . S
H312 C283 0.931 . S
H313 C284 0.931 . S
H314 C286 0.931 . S
H315 C287 0.931 . S
H316 C293 0.931 . S
H317 C294 0.931 . S
H318 C296 0.931 . S
H319 C297 0.931 . S
C320 Eu321 2.835 . S
C320 C322 1.500 . S
C320 O340 1.257 . S
C320 O341 1.260 . S
Eu321 C320 2.835 . S
Eu321 O340 2.473 . S
Eu321 O341 2.480 . S
Eu321 O342 2.430 . S
Eu321 O343 2.670 . S
Eu321 O344 2.394 . S
Eu321 O349 2.355 1_556 S
Eu321 O351 2.374 1_556 S
C322 C320 1.500 . S
C322 C323 1.377 . S
C322 C327 1.377 . S
C323 C322 1.377 . S
C323 C324 1.395 . S
C323 H352 0.931 . S
C324 C323 1.395 . S
C324 C325 1.383 . S
C324 H353 0.931 . S
C325 C324 1.383 . S
C325 C326 1.394 . S
C326 C325 1.394 . S
C326 C327 1.378 . S
C326 H354 0.931 . S
C327 C322 1.377 . S
C327 C326 1.378 . S
C327 H355 0.931 . S
C328 O342 1.259 . S
C328 O343 1.270 . S
C329 O344 1.251 . S
C329 O345 1.251 . S
C330 Eu331 2.835 . S
C330 C332 1.500 . S
C330 O346 1.257 . S
C330 O347 1.260 . S
Eu331 C330 2.835 . S
Eu331 O343 2.355 1_554 S
Eu331 O345 2.374 1_554 S
Eu331 O346 2.473 . S
Eu331 O347 2.480 . S
Eu331 O348 2.430 . S
Eu331 O349 2.670 . S
Eu331 O350 2.394 . S
C332 C330 1.500 . S
C332 C333 1.377 . S
C332 C337 1.377 . S
C333 C332 1.377 . S
C333 C334 1.395 . S
C333 H356 0.931 . S
C334 C333 1.395 . S
C334 C335 1.383 . S
C334 H357 0.931 . S
C335 C334 1.383 . S
C335 C336 1.394 . S
C336 C335 1.394 . S
C336 C337 1.378 . S
C336 H358 0.931 . S
C337 C332 1.377 . S
C337 C336 1.378 . S
C337 H359 0.931 . S
C338 O348 1.259 . S
C338 O349 1.270 . S
C339 O350 1.251 . S
C339 O351 1.251 . S
O340 C320 1.257 . S
O340 Eu321 2.473 . S
O341 C320 1.260 . S
O341 Eu321 2.480 . S
O342 Eu321 2.430 . S
O342 C328 1.259 . S
O343 Eu321 2.670 . S
O343 C328 1.270 . S
O343 Eu331 2.355 1_556 S
O344 Eu321 2.394 . S
O344 C329 1.251 . S
O345 C329 1.251 . S
O345 Eu331 2.374 1_556 S
O346 C330 1.257 . S
O346 Eu331 2.473 . S
O347 C330 1.260 . S
O347 Eu331 2.480 . S
O348 Eu331 2.430 . S
O348 C338 1.259 . S
O349 Eu321 2.355 1_554 S
O349 Eu331 2.670 . S
O349 C338 1.270 . S
O350 Eu331 2.394 . S
O350 C339 1.251 . S
O351 Eu321 2.374 1_554 S
O351 C339 1.251 . S
H352 C323 0.931 . S
H353 C324 0.931 . S
H354 C326 0.931 . S
H355 C327 0.931 . S
H356 C333 0.931 . S
H357 C334 0.931 . S
H358 C336 0.931 . S
H359 C337 0.931 . S
C360 Eu361 2.835 . S
C360 C362 1.500 . S
C360 O380 1.257 . S
C360 O381 1.260 . S
Eu361 C360 2.835 . S
Eu361 O380 2.473 . S
Eu361 O381 2.480 . S
Eu361 O382 2.430 . S
Eu361 O383 2.670 . S
Eu361 O384 2.394 . S
Eu361 O389 2.355 . S
Eu361 O391 2.374 . S
C362 C360 1.500 . S
C362 C363 1.377 . S
C362 C367 1.377 . S
C363 C362 1.377 . S
C363 C364 1.395 . S
C363 H392 0.931 . S
C364 C363 1.395 . S
C364 C365 1.383 . S
C364 H393 0.931 . S
C365 C364 1.383 . S
C365 C366 1.394 . S
C366 C365 1.394 . S
C366 C367 1.378 . S
C366 H394 0.931 . S
C367 C362 1.377 . S
C367 C366 1.378 . S
C367 H395 0.931 . S
C368 O382 1.259 . S
C368 O383 1.270 . S
C369 O384 1.251 . S
C369 O385 1.251 . S
C370 Eu371 2.835 . S
C370 C372 1.500 . S
C370 O386 1.257 . S
C370 O387 1.260 . S
Eu371 C370 2.835 . S
Eu371 O383 2.355 . S
Eu371 O385 2.374 . S
Eu371 O386 2.473 . S
Eu371 O387 2.480 . S
Eu371 O388 2.430 . S
Eu371 O389 2.670 . S
Eu371 O390 2.394 . S
C372 C370 1.500 . S
C372 C373 1.377 . S
C372 C377 1.377 . S
C373 C372 1.377 . S
C373 C374 1.395 . S
C373 H396 0.931 . S
C374 C373 1.395 . S
C374 C375 1.383 . S
C374 H397 0.931 . S
C375 C374 1.383 . S
C375 C376 1.394 . S
C376 C375 1.394 . S
C376 C377 1.378 . S
C376 H398 0.931 . S
C377 C372 1.377 . S
C377 C376 1.378 . S
C377 H399 0.931 . S
C378 O388 1.259 . S
C378 O389 1.270 . S
C379 O390 1.251 . S
C379 O391 1.251 . S
O380 C360 1.257 . S
O380 Eu361 2.473 . S
O381 C360 1.260 . S
O381 Eu361 2.480 . S
O382 Eu361 2.430 . S
O382 C368 1.259 . S
O383 Eu361 2.670 . S
O383 C368 1.270 . S
O383 Eu371 2.355 . S
O384 Eu361 2.394 . S
O384 C369 1.251 . S
O385 C369 1.251 . S
O385 Eu371 2.374 . S
O386 C370 1.257 . S
O386 Eu371 2.473 . S
O387 C370 1.260 . S
O387 Eu371 2.480 . S
O388 Eu371 2.430 . S
O388 C378 1.259 . S
O389 Eu361 2.355 . S
O389 Eu371 2.670 . S
O389 C378 1.270 . S
O390 Eu371 2.394 . S
O390 C379 1.251 . S
O391 Eu361 2.374 . S
O391 C379 1.251 . S
H392 C363 0.931 . S
H393 C364 0.931 . S
H394 C366 0.931 . S
H395 C367 0.931 . S
H396 C373 0.931 . S
H397 C374 0.931 . S
H398 C376 0.931 . S
H399 C377 0.931 . S
C400 Eu401 2.835 . S
C400 C402 1.500 . S
C400 O420 1.257 . S
C400 O421 1.260 . S
Eu401 C400 2.835 . S
Eu401 O420 2.473 . S
Eu401 O421 2.480 . S
Eu401 O422 2.430 . S
Eu401 O423 2.670 . S
Eu401 O424 2.394 . S
Eu401 O429 2.355 1_655 S
Eu401 O431 2.374 1_655 S
C402 C400 1.500 . S
C402 C403 1.377 . S
C402 C407 1.377 . S
C403 C402 1.377 . S
C403 C404 1.395 . S
C403 H432 0.931 . S
C404 C403 1.395 . S
C404 C405 1.383 . S
C404 H433 0.931 . S
C405 C404 1.383 . S
C405 C406 1.394 . S
C406 C405 1.394 . S
C406 C407 1.378 . S
C406 H434 0.931 . S
C407 C402 1.377 . S
C407 C406 1.378 . S
C407 H435 0.931 . S
C408 O422 1.259 . S
C408 O423 1.270 . S
C409 O424 1.251 . S
C409 O425 1.251 . S
C410 Eu411 2.835 . S
C410 C412 1.500 . S
C410 O426 1.257 . S
C410 O427 1.260 . S
Eu411 C410 2.835 . S
Eu411 O423 2.355 1_455 S
Eu411 O425 2.374 1_455 S
Eu411 O426 2.473 . S
Eu411 O427 2.480 . S
Eu411 O428 2.430 . S
Eu411 O429 2.670 . S
Eu411 O430 2.394 . S
C412 C410 1.500 . S
C412 C413 1.377 . S
C412 C417 1.377 . S
C413 C412 1.377 . S
C413 C414 1.395 . S
C413 H436 0.931 . S
C414 C413 1.395 . S
C414 C415 1.383 . S
C414 H437 0.931 . S
C415 C414 1.383 . S
C415 C416 1.394 . S
C416 C415 1.394 . S
C416 C417 1.378 . S
C416 H438 0.931 . S
C417 C412 1.377 . S
C417 C416 1.378 . S
C417 H439 0.931 . S
C418 O428 1.259 . S
C418 O429 1.270 . S
C419 O430 1.251 . S
C419 O431 1.251 . S
O420 C400 1.257 . S
O420 Eu401 2.473 . S
O421 C400 1.260 . S
O421 Eu401 2.480 . S
O422 Eu401 2.430 . S
O422 C408 1.259 . S
O423 Eu401 2.670 . S
O423 C408 1.270 . S
O423 Eu411 2.355 1_655 S
O424 Eu401 2.394 . S
O424 C409 1.251 . S
O425 C409 1.251 . S
O425 Eu411 2.374 1_655 S
O426 C410 1.257 . S
O426 Eu411 2.473 . S
O427 C410 1.260 . S
O427 Eu411 2.480 . S
O428 Eu411 2.430 . S
O428 C418 1.259 . S
O429 Eu401 2.355 1_455 S
O429 Eu411 2.670 . S
O429 C418 1.270 . S
O430 Eu411 2.394 . S
O430 C419 1.251 . S
O431 Eu401 2.374 1_455 S
O431 C419 1.251 . S
H432 C403 0.931 . S
H433 C404 0.931 . S
H434 C406 0.931 . S
H435 C407 0.931 . S
H436 C413 0.931 . S
H437 C414 0.931 . S
H438 C416 0.931 . S
H439 C417 0.931 . S
C440 Eu441 2.835 . S
C440 C442 1.500 . S
C440 O460 1.257 . S
C440 O461 1.260 . S
Eu441 C440 2.835 . S
Eu441 O460 2.473 . S
Eu441 O461 2.480 . S
Eu441 O462 2.430 . S
Eu441 O463 2.670 . S
Eu441 O464 2.394 . S
Eu441 O469 2.355 . S
Eu441 O471 2.374 . S
C442 C440 1.500 . S
C442 C443 1.377 . S
C442 C447 1.377 . S
C443 C442 1.377 . S
C443 C444 1.395 . S
C443 H472 0.931 . S
C444 C443 1.395 . S
C444 C445 1.383 . S
C444 H473 0.931 . S
C445 C444 1.383 . S
C445 C446 1.394 . S
C446 C445 1.394 . S
C446 C447 1.378 . S
C446 H474 0.931 . S
C447 C442 1.377 . S
C447 C446 1.378 . S
C447 H475 0.931 . S
C448 O462 1.259 . S
C448 O463 1.270 . S
C449 O464 1.251 . S
C449 O465 1.251 . S
C450 Eu451 2.835 . S
C450 C452 1.500 . S
C450 O466 1.257 . S
C450 O467 1.260 . S
Eu451 C450 2.835 . S
Eu451 O463 2.355 . S
Eu451 O465 2.374 . S
Eu451 O466 2.473 . S
Eu451 O467 2.480 . S
Eu451 O468 2.430 . S
Eu451 O469 2.670 . S
Eu451 O470 2.394 . S
C452 C450 1.500 . S
C452 C453 1.377 . S
C452 C457 1.377 . S
C453 C452 1.377 . S
C453 C454 1.395 . S
C453 H476 0.931 . S
C454 C453 1.395 . S
C454 C455 1.383 . S
C454 H477 0.931 . S
C455 C454 1.383 . S
C455 C456 1.394 . S
C456 C455 1.394 . S
C456 C457 1.378 . S
C456 H478 0.931 . S
C457 C452 1.377 . S
C457 C456 1.378 . S
C457 H479 0.931 . S
C458 O468 1.259 . S
C458 O469 1.270 . S
C459 O470 1.251 . S
C459 O471 1.251 . S
O460 C440 1.257 . S
O460 Eu441 2.473 . S
O461 C440 1.260 . S
O461 Eu441 2.480 . S
O462 Eu441 2.430 . S
O462 C448 1.259 . S
O463 Eu441 2.670 . S
O463 C448 1.270 . S
O463 Eu451 2.355 . S
O464 Eu441 2.394 . S
O464 C449 1.251 . S
O465 C449 1.251 . S
O465 Eu451 2.374 . S
O466 C450 1.257 . S
O466 Eu451 2.473 . S
O467 C450 1.260 . S
O467 Eu451 2.480 . S
O468 Eu451 2.430 . S
O468 C458 1.259 . S
O469 Eu441 2.355 . S
O469 Eu451 2.670 . S
O469 C458 1.270 . S
O470 Eu451 2.394 . S
O470 C459 1.251 . S
O471 Eu441 2.374 . S
O471 C459 1.251 . S
H472 C443 0.931 . S
H473 C444 0.931 . S
H474 C446 0.931 . S
H475 C447 0.931 . S
H476 C453 0.931 . S
H477 C454 0.931 . S
H478 C456 0.931 . S
H479 C457 0.931 . S
C480 Eu481 2.835 . S
C480 C482 1.500 . S
C480 O500 1.257 . S
C480 O501 1.260 . S
Eu481 C480 2.835 . S
Eu481 O500 2.473 . S
Eu481 O501 2.480 . S
Eu481 O502 2.430 . S
Eu481 O503 2.670 . S
Eu481 O504 2.394 . S
Eu481 O509 2.355 . S
Eu481 O511 2.374 . S
C482 C480 1.500 . S
C482 C483 1.377 . S
C482 C487 1.377 . S
C483 C482 1.377 . S
C483 C484 1.395 . S
C483 H512 0.931 . S
C484 C483 1.395 . S
C484 C485 1.383 . S
C484 H513 0.931 . S
C485 C484 1.383 . S
C485 C486 1.394 . S
C486 C485 1.394 . S
C486 C487 1.378 . S
C486 H514 0.931 . S
C487 C482 1.377 . S
C487 C486 1.378 . S
C487 H515 0.931 . S
C488 O502 1.259 . S
C488 O503 1.270 . S
C489 O504 1.251 . S
C489 O505 1.251 . S
C490 Eu491 2.835 . S
C490 C492 1.500 . S
C490 O506 1.257 . S
C490 O507 1.260 . S
Eu491 C490 2.835 . S
Eu491 O503 2.355 . S
Eu491 O505 2.374 . S
Eu491 O506 2.473 . S
Eu491 O507 2.480 . S
Eu491 O508 2.430 . S
Eu491 O509 2.670 . S
Eu491 O510 2.394 . S
C492 C490 1.500 . S
C492 C493 1.377 . S
C492 C497 1.377 . S
C493 C492 1.377 . S
C493 C494 1.395 . S
C493 H516 0.931 . S
C494 C493 1.395 . S
C494 C495 1.383 . S
C494 H517 0.931 . S
C495 C494 1.383 . S
C495 C496 1.394 . S
C496 C495 1.394 . S
C496 C497 1.378 . S
C496 H518 0.931 . S
C497 C492 1.377 . S
C497 C496 1.378 . S
C497 H519 0.931 . S
C498 O508 1.259 . S
C498 O509 1.270 . S
C499 O510 1.251 . S
C499 O511 1.251 . S
O500 C480 1.257 . S
O500 Eu481 2.473 . S
O501 C480 1.260 . S
O501 Eu481 2.480 . S
O502 Eu481 2.430 . S
O502 C488 1.259 . S
O503 Eu481 2.670 . S
O503 C488 1.270 . S
O503 Eu491 2.355 . S
O504 Eu481 2.394 . S
O504 C489 1.251 . S
O505 C489 1.251 . S
O505 Eu491 2.374 . S
O506 C490 1.257 . S
O506 Eu491 2.473 . S
O507 C490 1.260 . S
O507 Eu491 2.480 . S
O508 Eu491 2.430 . S
O508 C498 1.259 . S
O509 Eu481 2.355 . S
O509 Eu491 2.670 . S
O509 C498 1.270 . S
O510 Eu491 2.394 . S
O510 C499 1.251 . S
O511 Eu481 2.374 . S
O511 C499 1.251 . S
H512 C483 0.931 . S
H513 C484 0.931 . S
H514 C486 0.931 . S
H515 C487 0.931 . S
H516 C493 0.931 . S
H517 C494 0.931 . S
H518 C496 0.931 . S
H519 C497 0.931 . S
C520 Eu521 2.835 . S
C520 C522 1.500 . S
C520 O540 1.257 . S
C520 O541 1.260 . S
Eu521 C520 2.835 . S
Eu521 O540 2.473 . S
Eu521 O541 2.480 . S
Eu521 O542 2.430 . S
Eu521 O543 2.670 . S
Eu521 O544 2.394 . S
Eu521 O549 2.355 . S
Eu521 O551 2.374 . S
C522 C520 1.500 . S
C522 C523 1.377 . S
C522 C527 1.377 . S
C523 C522 1.377 . S
C523 C524 1.395 . S
C523 H552 0.931 . S
C524 C523 1.395 . S
C524 C525 1.383 . S
C524 H553 0.931 . S
C525 C524 1.383 . S
C525 C526 1.394 . S
C526 C525 1.394 . S
C526 C527 1.378 . S
C526 H554 0.931 . S
C527 C522 1.377 . S
C527 C526 1.378 . S
C527 H555 0.931 . S
C528 O542 1.259 . S
C528 O543 1.270 . S
C529 O544 1.251 . S
C529 O545 1.251 . S
C530 Eu531 2.835 . S
C530 C532 1.500 . S
C530 O546 1.257 . S
C530 O547 1.260 . S
Eu531 C530 2.835 . S
Eu531 O543 2.355 . S
Eu531 O545 2.374 . S
Eu531 O546 2.473 . S
Eu531 O547 2.480 . S
Eu531 O548 2.430 . S
Eu531 O549 2.670 . S
Eu531 O550 2.394 . S
C532 C530 1.500 . S
C532 C533 1.377 . S
C532 C537 1.377 . S
C533 C532 1.377 . S
C533 C534 1.395 . S
C533 H556 0.931 . S
C534 C533 1.395 . S
C534 C535 1.383 . S
C534 H557 0.931 . S
C535 C534 1.383 . S
C535 C536 1.394 . S
C536 C535 1.394 . S
C536 C537 1.378 . S
C536 H558 0.931 . S
C537 C532 1.377 . S
C537 C536 1.378 . S
C537 H559 0.931 . S
C538 O548 1.259 . S
C538 O549 1.270 . S
C539 O550 1.251 . S
C539 O551 1.251 . S
O540 C520 1.257 . S
O540 Eu521 2.473 . S
O541 C520 1.260 . S
O541 Eu521 2.480 . S
O542 Eu521 2.430 . S
O542 C528 1.259 . S
O543 Eu521 2.670 . S
O543 C528 1.270 . S
O543 Eu531 2.355 . S
O544 Eu521 2.394 . S
O544 C529 1.251 . S
O545 C529 1.251 . S
O545 Eu531 2.374 . S
O546 C530 1.257 . S
O546 Eu531 2.473 . S
O547 C530 1.260 . S
O547 Eu531 2.480 . S
O548 Eu531 2.430 . S
O548 C538 1.259 . S
O549 Eu521 2.355 . S
O549 Eu531 2.670 . S
O549 C538 1.270 . S
O550 Eu531 2.394 . S
O550 C539 1.251 . S
O551 Eu521 2.374 . S
O551 C539 1.251 . S
H552 C523 0.931 . S
H553 C524 0.931 . S
H554 C526 0.931 . S
H555 C527 0.931 . S
H556 C533 0.931 . S
H557 C534 0.931 . S
H558 C536 0.931 . S
H559 C537 0.931 . S
C560 Eu561 2.835 . S
C560 C562 1.500 . S
C560 O580 1.257 . S
C560 O581 1.260 . S
Eu561 C560 2.835 . S
Eu561 O580 2.473 . S
Eu561 O581 2.480 . S
Eu561 O582 2.430 . S
Eu561 O583 2.670 . S
Eu561 O584 2.394 . S
Eu561 O589 2.355 . S
Eu561 O591 2.374 . S
C562 C560 1.500 . S
C562 C563 1.377 . S
C562 C567 1.377 . S
C563 C562 1.377 . S
C563 C564 1.395 . S
C563 H592 0.931 . S
C564 C563 1.395 . S
C564 C565 1.383 . S
C564 H593 0.931 . S
C565 C564 1.383 . S
C565 C566 1.394 . S
C566 C565 1.394 . S
C566 C567 1.378 . S
C566 H594 0.931 . S
C567 C562 1.377 . S
C567 C566 1.378 . S
C567 H595 0.931 . S
C568 O582 1.259 . S
C568 O583 1.270 . S
C569 O584 1.251 . S
C569 O585 1.251 . S
C570 Eu571 2.835 . S
C570 C572 1.500 . S
C570 O586 1.257 . S
C570 O587 1.260 . S
Eu571 C570 2.835 . S
Eu571 O583 2.355 . S
Eu571 O585 2.374 . S
Eu571 O586 2.473 . S
Eu571 O587 2.480 . S
Eu571 O588 2.430 . S
Eu571 O589 2.670 . S
Eu571 O590 2.394 . S
C572 C570 1.500 . S
C572 C573 1.377 . S
C572 C577 1.377 . S
C573 C572 1.377 . S
C573 C574 1.395 . S
C573 H596 0.931 . S
C574 C573 1.395 . S
C574 C575 1.383 . S
C574 H597 0.931 . S
C575 C574 1.383 . S
C575 C576 1.394 . S
C576 C575 1.394 . S
C576 C577 1.378 . S
C576 H598 0.931 . S
C577 C572 1.377 . S
C577 C576 1.378 . S
C577 H599 0.931 . S
C578 O588 1.259 . S
C578 O589 1.270 . S
C579 O590 1.251 . S
C579 O591 1.251 . S
O580 C560 1.257 . S
O580 Eu561 2.473 . S
O581 C560 1.260 . S
O581 Eu561 2.480 . S
O582 Eu561 2.430 . S
O582 C568 1.259 . S
O583 Eu561 2.670 . S
O583 C568 1.270 . S
O583 Eu571 2.355 . S
O584 Eu561 2.394 . S
O584 C569 1.251 . S
O585 C569 1.251 . S
O585 Eu571 2.374 . S
O586 C570 1.257 . S
O586 Eu571 2.473 . S
O587 C570 1.260 . S
O587 Eu571 2.480 . S
O588 Eu571 2.430 . S
O588 C578 1.259 . S
O589 Eu561 2.355 . S
O589 Eu571 2.670 . S
O589 C578 1.270 . S
O590 Eu571 2.394 . S
O590 C579 1.251 . S
O591 Eu561 2.374 . S
O591 C579 1.251 . S
H592 C563 0.931 . S
H593 C564 0.931 . S
H594 C566 0.931 . S
H595 C567 0.931 . S
H596 C573 0.931 . S
H597 C574 0.931 . S
H598 C576 0.931 . S
H599 C577 0.931 . S
C600 Eu601 2.835 . S
C600 C602 1.500 . S
C600 O620 1.257 . S
C600 O621 1.260 . S
Eu601 C600 2.835 . S
Eu601 O620 2.473 . S
Eu601 O621 2.480 . S
Eu601 O622 2.430 1_556 S
Eu601 O623 2.670 1_556 S
Eu601 O624 2.394 1_556 S
Eu601 O629 2.355 1_455 S
Eu601 O631 2.374 1_455 S
C602 C600 1.500 . S
C602 C603 1.377 . S
C602 C607 1.377 . S
C603 C602 1.377 . S
C603 C604 1.395 . S
C603 H632 0.931 . S
C604 C603 1.395 . S
C604 C605 1.383 . S
C604 H633 0.931 . S
C605 C604 1.383 . S
C605 C606 1.394 . S
C606 C605 1.394 . S
C606 C607 1.378 . S
C606 H634 0.931 . S
C607 C602 1.377 . S
C607 C606 1.378 . S
C607 H635 0.931 . S
C608 O622 1.259 . S
C608 O623 1.270 . S
C609 O624 1.251 . S
C609 O625 1.251 . S
C610 Eu611 2.835 . S
C610 C612 1.500 . S
C610 O626 1.257 . S
C610 O627 1.260 . S
Eu611 C610 2.835 . S
Eu611 O623 2.355 1_655 S
Eu611 O625 2.374 1_655 S
Eu611 O626 2.473 . S
Eu611 O627 2.480 . S
Eu611 O628 2.430 1_554 S
Eu611 O629 2.670 1_554 S
Eu611 O630 2.394 1_554 S
C612 C610 1.500 . S
C612 C613 1.377 . S
C612 C617 1.377 . S
C613 C612 1.377 . S
C613 C614 1.395 . S
C613 H636 0.931 . S
C614 C613 1.395 . S
C614 C615 1.383 . S
C614 H637 0.931 . S
C615 C614 1.383 . S
C615 C616 1.394 . S
C616 C615 1.394 . S
C616 C617 1.378 . S
C616 H638 0.931 . S
C617 C612 1.377 . S
C617 C616 1.378 . S
C617 H639 0.931 . S
C618 O628 1.259 . S
C618 O629 1.270 . S
C619 O630 1.251 . S
C619 O631 1.251 . S
O620 C600 1.257 . S
O620 Eu601 2.473 . S
O621 C600 1.260 . S
O621 Eu601 2.480 . S
O622 Eu601 2.430 1_554 S
O622 C608 1.259 . S
O623 Eu601 2.670 1_554 S
O623 C608 1.270 . S
O623 Eu611 2.355 1_455 S
O624 Eu601 2.394 1_554 S
O624 C609 1.251 . S
O625 C609 1.251 . S
O625 Eu611 2.374 1_455 S
O626 C610 1.257 . S
O626 Eu611 2.473 . S
O627 C610 1.260 . S
O627 Eu611 2.480 . S
O628 Eu611 2.430 1_556 S
O628 C618 1.259 . S
O629 Eu601 2.355 1_655 S
O629 Eu611 2.670 1_556 S
O629 C618 1.270 . S
O630 Eu611 2.394 1_556 S
O630 C619 1.251 . S
O631 Eu601 2.374 1_655 S
O631 C619 1.251 . S
H632 C603 0.931 . S
H633 C604 0.931 . S
H634 C606 0.931 . S
H635 C607 0.931 . S
H636 C613 0.931 . S
H637 C614 0.931 . S
H638 C616 0.931 . S
H639 C617 0.931 . S
H640 C648 0.950 . S
H641 C653 0.950 . S
H642 C650 0.950 . S
H643 C652 0.950 . S
H644 C654 0.950 . S
H645 C656 0.950 . S
H646 C658 0.950 . S
H647 C659 0.950 . S
C648 H640 0.950 . S
C648 C649 1.386 . S
C648 C650 1.391 . S
C649 C648 1.386 . S
C649 C653 1.393 . S
C650 H642 0.950 . S
C650 C648 1.391 . S
C650 C651 1.400 . S
C651 C650 1.400 . S
C651 C652 1.398 . S
C651 C657 1.491 . S
C652 H643 0.950 . S
C652 C651 1.398 . S
C652 C653 1.391 . S
C653 H641 0.950 . S
C653 C649 1.393 . S
C653 C652 1.391 . S
C654 H644 0.950 . S
C654 C655 1.386 . S
C654 C656 1.391 . S
C655 C654 1.386 . S
C655 C659 1.393 . S
C656 H645 0.950 . S
C656 C654 1.391 . S
C656 C657 1.400 . S
C657 C651 1.491 . S
C657 C656 1.400 . S
C657 C658 1.398 . S
C658 H646 0.950 . S
C658 C657 1.398 . S
C658 C659 1.391 . S
C659 H647 0.950 . S
C659 C655 1.393 . S
C659 C658 1.391 . S
H660 C668 0.950 . S
H661 C673 0.950 . S
H662 C670 0.950 . S
H663 C672 0.950 . S
H664 C674 0.950 . S
H665 C676 0.950 . S
H666 C678 0.950 . S
H667 C679 0.950 . S
C668 H660 0.950 . S
C668 C669 1.386 . S
C668 C670 1.391 . S
C669 C668 1.386 . S
C669 C673 1.393 . S
C670 H662 0.950 . S
C670 C668 1.391 . S
C670 C671 1.400 . S
C671 C670 1.400 . S
C671 C672 1.398 . S
C671 C677 1.491 . S
C672 H663 0.950 . S
C672 C671 1.398 . S
C672 C673 1.391 . S
C673 H661 0.950 . S
C673 C669 1.393 . S
C673 C672 1.391 . S
C674 H664 0.950 . S
C674 C675 1.386 . S
C674 C676 1.391 . S
C675 C674 1.386 . S
C675 C679 1.393 . S
C676 H665 0.950 . S
C676 C674 1.391 . S
C676 C677 1.400 . S
C677 C671 1.491 . S
C677 C676 1.400 . S
C677 C678 1.398 . S
C678 H666 0.950 . S
C678 C677 1.398 . S
C678 C679 1.391 . S
C679 H667 0.950 . S
C679 C675 1.393 . S
C679 C678 1.391 . S
H680 C688 0.950 . S
H681 C693 0.950 . S
H682 C690 0.950 . S
H683 C692 0.950 . S
H684 C694 0.950 . S
H685 C696 0.950 . S
H686 C698 0.950 . S
H687 C699 0.950 . S
C688 H680 0.950 . S
C688 C689 1.386 . S
C688 C690 1.391 . S
C689 C688 1.386 . S
C689 C693 1.393 . S
C690 H682 0.950 . S
C690 C688 1.391 . S
C690 C691 1.400 . S
C691 C690 1.400 . S
C691 C692 1.398 . S
C691 C697 1.491 . S
C692 H683 0.950 . S
C692 C691 1.398 . S
C692 C693 1.391 . S
C693 H681 0.950 . S
C693 C689 1.393 . S
C693 C692 1.391 . S
C694 H684 0.950 . S
C694 C695 1.386 . S
C694 C696 1.391 . S
C695 C694 1.386 . S
C695 C699 1.393 . S
C696 H685 0.950 . S
C696 C694 1.391 . S
C696 C697 1.400 . S
C697 C691 1.491 . S
C697 C696 1.400 . S
C697 C698 1.398 . S
C698 H686 0.950 . S
C698 C697 1.398 . S
C698 C699 1.391 . S
C699 H687 0.950 . S
C699 C695 1.393 . S
C699 C698 1.391 . S
H700 C708 0.950 . S
H701 C713 0.950 . S
H702 C710 0.950 . S
H703 C712 0.950 . S
H704 C714 0.950 . S
H705 C716 0.950 . S
H706 C718 0.950 . S
H707 C719 0.950 . S
C708 H700 0.950 . S
C708 C709 1.386 . S
C708 C710 1.391 . S
C709 C708 1.386 . S
C709 C713 1.393 . S
C710 H702 0.950 . S
C710 C708 1.391 . S
C710 C711 1.400 . S
C711 C710 1.400 . S
C711 C712 1.398 . S
C711 C717 1.491 . S
C712 H703 0.950 . S
C712 C711 1.398 . S
C712 C713 1.391 . S
C713 H701 0.950 . S
C713 C709 1.393 . S
C713 C712 1.391 . S
C714 H704 0.950 . S
C714 C715 1.386 . S
C714 C716 1.391 . S
C715 C714 1.386 . S
C715 C719 1.393 . S
C716 H705 0.950 . S
C716 C714 1.391 . S
C716 C717 1.400 . S
C717 C711 1.491 . S
C717 C716 1.400 . S
C717 C718 1.398 . S
C718 H706 0.950 . S
C718 C717 1.398 . S
C718 C719 1.391 . S
C719 H707 0.950 . S
C719 C715 1.393 . S
C719 C718 1.391 . S
H720 C728 0.950 1_655 S
H721 C733 0.950 . S
H722 C730 0.950 . S
H723 C732 0.950 . S
H724 C734 0.950 . S
H725 C736 0.950 . S
H726 C738 0.950 . S
H727 C739 0.950 . S
C728 H720 0.950 1_455 S
C728 C729 1.386 . S
C728 C730 1.391 . S
C729 C728 1.386 . S
C729 C733 1.393 . S
C730 H722 0.950 . S
C730 C728 1.391 . S
C730 C731 1.400 . S
C731 C730 1.400 . S
C731 C732 1.398 . S
C731 C737 1.491 . S
C732 H723 0.950 . S
C732 C731 1.398 . S
C732 C733 1.391 . S
C733 H721 0.950 . S
C733 C729 1.393 . S
C733 C732 1.391 . S
C734 H724 0.950 . S
C734 C735 1.386 . S
C734 C736 1.391 . S
C735 C734 1.386 . S
C735 C739 1.393 . S
C736 H725 0.950 . S
C736 C734 1.391 . S
C736 C737 1.400 . S
C737 C731 1.491 . S
C737 C736 1.400 . S
C737 C738 1.398 . S
C738 H726 0.950 . S
C738 C737 1.398 . S
C738 C739 1.391 . S
C739 H727 0.950 . S
C739 C735 1.393 . S
C739 C738 1.391 . S
H740 C748 0.950 . S
H741 C753 0.950 . S
H742 C750 0.950 . S
H743 C752 0.950 . S
H744 C754 0.950 . S
H745 C756 0.950 . S
H746 C758 0.950 . S
H747 C759 0.950 . S
C748 H740 0.950 . S
C748 C749 1.386 . S
C748 C750 1.391 . S
C749 C748 1.386 . S
C749 C753 1.393 . S
C750 H742 0.950 . S
C750 C748 1.391 . S
C750 C751 1.400 . S
C751 C750 1.400 . S
C751 C752 1.398 . S
C751 C757 1.491 . S
C752 H743 0.950 . S
C752 C751 1.398 . S
C752 C753 1.391 . S
C753 H741 0.950 . S
C753 C749 1.393 . S
C753 C752 1.391 . S
C754 H744 0.950 . S
C754 C755 1.386 . S
C754 C756 1.391 . S
C755 C754 1.386 . S
C755 C759 1.393 . S
C756 H745 0.950 . S
C756 C754 1.391 . S
C756 C757 1.400 . S
C757 C751 1.491 . S
C757 C756 1.400 . S
C757 C758 1.398 . S
C758 H746 0.950 . S
C758 C757 1.398 . S
C758 C759 1.391 . S
C759 H747 0.950 . S
C759 C755 1.393 . S
C759 C758 1.391 . S
H760 C768 0.950 . S
H761 C773 0.950 . S
H762 C770 0.950 . S
H763 C772 0.950 . S
H764 C774 0.950 . S
H765 C776 0.950 . S
H766 C778 0.950 . S
H767 C779 0.950 . S
C768 H760 0.950 . S
C768 C769 1.386 . S
C768 C770 1.391 . S
C769 C768 1.386 . S
C769 C773 1.393 . S
C770 H762 0.950 . S
C770 C768 1.391 . S
C770 C771 1.400 . S
C771 C770 1.400 . S
C771 C772 1.398 . S
C771 C777 1.491 . S
C772 H763 0.950 . S
C772 C771 1.398 . S
C772 C773 1.391 . S
C773 H761 0.950 . S
C773 C769 1.393 . S
C773 C772 1.391 . S
C774 H764 0.950 . S
C774 C775 1.386 . S
C774 C776 1.391 . S
C775 C774 1.386 . S
C775 C779 1.393 . S
C776 H765 0.950 . S
C776 C774 1.391 . S
C776 C777 1.400 . S
C777 C771 1.491 . S
C777 C776 1.400 . S
C777 C778 1.398 . S
C778 H766 0.950 . S
C778 C777 1.398 . S
C778 C779 1.391 . S
C779 H767 0.950 . S
C779 C775 1.393 . S
C779 C778 1.391 . S
H780 C788 0.950 . S
H781 C793 0.950 . S
H782 C790 0.950 . S
H783 C792 0.950 . S
H784 C794 0.950 . S
H785 C796 0.950 . S
H786 C798 0.950 . S
H787 C799 0.950 . S
C788 H780 0.950 . S
C788 C789 1.386 . S
C788 C790 1.391 . S
C789 C788 1.386 . S
C789 C793 1.393 . S
C790 H782 0.950 . S
C790 C788 1.391 . S
C790 C791 1.400 . S
C791 C790 1.400 . S
C791 C792 1.398 . S
C791 C797 1.491 . S
C792 H783 0.950 . S
C792 C791 1.398 . S
C792 C793 1.391 . S
C793 H781 0.950 . S
C793 C789 1.393 . S
C793 C792 1.391 . S
C794 H784 0.950 . S
C794 C795 1.386 . S
C794 C796 1.391 . S
C795 C794 1.386 . S
C795 C799 1.393 . S
C796 H785 0.950 . S
C796 C794 1.391 . S
C796 C797 1.400 . S
C797 C791 1.491 . S
C797 C796 1.400 . S
C797 C798 1.398 . S
C798 H786 0.950 . S
C798 C797 1.398 . S
C798 C799 1.391 . S
C799 H787 0.950 . S
C799 C795 1.393 . S
C799 C798 1.391 . S
H800 C808 0.950 . S
H801 C813 0.950 . S
H802 C810 0.950 . S
H803 C812 0.950 . S
H804 C814 0.950 . S
H805 C816 0.950 . S
H806 C818 0.950 . S
H807 C819 0.950 . S
C808 H800 0.950 . S
C808 C809 1.386 . S
C808 C810 1.391 . S
C809 C808 1.386 . S
C809 C813 1.393 . S
C810 H802 0.950 . S
C810 C808 1.391 . S
C810 C811 1.400 . S
C811 C810 1.400 . S
C811 C812 1.398 . S
C811 C817 1.491 . S
C812 H803 0.950 . S
C812 C811 1.398 . S
C812 C813 1.391 . S
C813 H801 0.950 . S
C813 C809 1.393 . S
C813 C812 1.391 . S
C814 H804 0.950 . S
C814 C815 1.386 . S
C814 C816 1.391 . S
C815 C814 1.386 . S
C815 C819 1.393 . S
C816 H805 0.950 . S
C816 C814 1.391 . S
C816 C817 1.400 . S
C817 C811 1.491 . S
C817 C816 1.400 . S
C817 C818 1.398 . S
C818 H806 0.950 . S
C818 C817 1.398 . S
C818 C819 1.391 . S
C819 H807 0.950 . S
C819 C815 1.393 . S
C819 C818 1.391 . S
H820 C828 0.950 . S
H821 C833 0.950 . S
H822 C830 0.950 . S
H823 C832 0.950 . S
H824 C834 0.950 . S
H825 C836 0.950 . S
H826 C838 0.950 . S
H827 C839 0.950 . S
C828 H820 0.950 . S
C828 C829 1.386 . S
C828 C830 1.391 . S
C829 C828 1.386 . S
C829 C833 1.393 . S
C830 H822 0.950 . S
C830 C828 1.391 . S
C830 C831 1.400 . S
C831 C830 1.400 . S
C831 C832 1.398 . S
C831 C837 1.491 . S
C832 H823 0.950 . S
C832 C831 1.398 . S
C832 C833 1.391 . S
C833 H821 0.950 . S
C833 C829 1.393 . S
C833 C832 1.391 . S
C834 H824 0.950 . S
C834 C835 1.386 . S
C834 C836 1.391 . S
C835 C834 1.386 . S
C835 C839 1.393 . S
C836 H825 0.950 . S
C836 C834 1.391 . S
C836 C837 1.400 . S
C837 C831 1.491 . S
C837 C836 1.400 . S
C837 C838 1.398 . S
C838 H826 0.950 . S
C838 C837 1.398 . S
C838 C839 1.391 . S
C839 H827 0.950 . S
C839 C835 1.393 . S
C839 C838 1.391 . S
H840 C848 0.950 . S
H841 C853 0.950 . S
H842 C850 0.950 . S
H843 C852 0.950 . S
H844 C854 0.950 . S
H845 C856 0.950 . S
H846 C858 0.950 . S
H847 C859 0.950 . S
C848 H840 0.950 . S
C848 C849 1.386 . S
C848 C850 1.391 . S
C849 C848 1.386 . S
C849 C853 1.393 . S
C850 H842 0.950 . S
C850 C848 1.391 . S
C850 C851 1.400 . S
C851 C850 1.400 . S
C851 C852 1.398 . S
C851 C857 1.491 . S
C852 H843 0.950 . S
C852 C851 1.398 . S
C852 C853 1.391 . S
C853 H841 0.950 . S
C853 C849 1.393 . S
C853 C852 1.391 . S
C854 H844 0.950 . S
C854 C855 1.386 . S
C854 C856 1.391 . S
C855 C854 1.386 . S
C855 C859 1.393 . S
C856 H845 0.950 . S
C856 C854 1.391 . S
C856 C857 1.400 . S
C857 C851 1.491 . S
C857 C856 1.400 . S
C857 C858 1.398 . S
C858 H846 0.950 . S
C858 C857 1.398 . S
C858 C859 1.391 . S
C859 H847 0.950 . S
C859 C855 1.393 . S
C859 C858 1.391 . S
H860 C868 0.950 . S
H861 C873 0.950 . S
H862 C870 0.950 . S
H863 C872 0.950 . S
H864 C874 0.950 . S
H865 C876 0.950 . S
H866 C878 0.950 . S
H867 C879 0.950 . S
C868 H860 0.950 . S
C868 C869 1.386 . S
C868 C870 1.391 . S
C869 C868 1.386 . S
C869 C873 1.393 . S
C870 H862 0.950 . S
C870 C868 1.391 . S
C870 C871 1.400 . S
C871 C870 1.400 . S
C871 C872 1.398 . S
C871 C877 1.491 . S
C872 H863 0.950 . S
C872 C871 1.398 . S
C872 C873 1.391 . S
C873 H861 0.950 . S
C873 C869 1.393 . S
C873 C872 1.391 . S
C874 H864 0.950 . S
C874 C875 1.386 . S
C874 C876 1.391 . S
C875 C874 1.386 . S
C875 C879 1.393 . S
C876 H865 0.950 . S
C876 C874 1.391 . S
C876 C877 1.400 . S
C877 C871 1.491 . S
C877 C876 1.400 . S
C877 C878 1.398 . S
C878 H866 0.950 . S
C878 C877 1.398 . S
C878 C879 1.391 . S
C879 H867 0.950 . S
C879 C875 1.393 . S
C879 C878 1.391 . S
H880 C888 0.950 . S
H881 C893 0.950 . S
H882 C890 0.950 . S
H883 C892 0.950 . S
H884 C894 0.950 . S
H885 C896 0.950 . S
H886 C898 0.950 . S
H887 C899 0.950 . S
C888 H880 0.950 . S
C888 C889 1.386 . S
C888 C890 1.391 . S
C889 C888 1.386 . S
C889 C893 1.393 . S
C890 H882 0.950 . S
C890 C888 1.391 . S
C890 C891 1.400 . S
C891 C890 1.400 . S
C891 C892 1.398 . S
C891 C897 1.491 . S
C892 H883 0.950 . S
C892 C891 1.398 . S
C892 C893 1.391 . S
C893 H881 0.950 . S
C893 C889 1.393 . S
C893 C892 1.391 . S
C894 H884 0.950 . S
C894 C895 1.386 . S
C894 C896 1.391 . S
C895 C894 1.386 . S
C895 C899 1.393 . S
C896 H885 0.950 . S
C896 C894 1.391 . S
C896 C897 1.400 . S
C897 C891 1.491 . S
C897 C896 1.400 . S
C897 C898 1.398 . S
C898 H886 0.950 . S
C898 C897 1.398 . S
C898 C899 1.391 . S
C899 H887 0.950 . S
C899 C895 1.393 . S
C899 C898 1.391 . S
H900 C908 0.950 . S
H901 C913 0.950 . S
H902 C910 0.950 . S
H903 C912 0.950 . S
H904 C914 0.950 . S
H905 C916 0.950 . S
H906 C918 0.950 . S
H907 C919 0.950 . S
C908 H900 0.950 . S
C908 C909 1.386 . S
C908 C910 1.391 . S
C909 C908 1.386 . S
C909 C913 1.393 . S
C910 H902 0.950 . S
C910 C908 1.391 . S
C910 C911 1.400 . S
C911 C910 1.400 . S
C911 C912 1.398 . S
C911 C917 1.491 . S
C912 H903 0.950 . S
C912 C911 1.398 . S
C912 C913 1.391 . S
C913 H901 0.950 . S
C913 C909 1.393 . S
C913 C912 1.391 . S
C914 H904 0.950 . S
C914 C915 1.386 . S
C914 C916 1.391 . S
C915 C914 1.386 . S
C915 C919 1.393 . S
C916 H905 0.950 . S
C916 C914 1.391 . S
C916 C917 1.400 . S
C917 C911 1.491 . S
C917 C916 1.400 . S
C917 C918 1.398 . S
C918 H906 0.950 . S
C918 C917 1.398 . S
C918 C919 1.391 . S
C919 H907 0.950 . S
C919 C915 1.393 . S
C919 C918 1.391 . S
H920 C928 0.950 . S
H921 C933 0.950 . S
H922 C930 0.950 . S
H923 C932 0.950 . S
H924 C934 0.950 . S
H925 C936 0.950 . S
H926 C938 0.950 . S
H927 C939 0.950 . S
C928 H920 0.950 . S
C928 C929 1.386 . S
C928 C930 1.391 . S
C929 C928 1.386 . S
C929 C933 1.393 . S
C930 H922 0.950 . S
C930 C928 1.391 . S
C930 C931 1.400 . S
C931 C930 1.400 . S
C931 C932 1.398 . S
C931 C937 1.491 . S
C932 H923 0.950 . S
C932 C931 1.398 . S
C932 C933 1.391 . S
C933 H921 0.950 . S
C933 C929 1.393 . S
C933 C932 1.391 . S
C934 H924 0.950 . S
C934 C935 1.386 . S
C934 C936 1.391 . S
C935 C934 1.386 . S
C935 C939 1.393 . S
C936 H925 0.950 . S
C936 C934 1.391 . S
C936 C937 1.400 . S
C937 C931 1.491 . S
C937 C936 1.400 . S
C937 C938 1.398 . S
C938 H926 0.950 . S
C938 C937 1.398 . S
C938 C939 1.391 . S
C939 H927 0.950 . S
C939 C935 1.393 . S
C939 C938 1.391 . S
H940 C948 0.950 . S
H941 C953 0.950 . S
H942 C950 0.950 . S
H943 C952 0.950 . S
H944 C954 0.950 . S
H945 C956 0.950 . S
H946 C958 0.950 . S
H947 C959 0.950 . S
C948 H940 0.950 . S
C948 C949 1.386 . S
C948 C950 1.391 . S
C949 C948 1.386 . S
C949 C953 1.393 . S
C950 H942 0.950 . S
C950 C948 1.391 . S
C950 C951 1.400 . S
C951 C950 1.400 . S
C951 C952 1.398 . S
C951 C957 1.491 . S
C952 H943 0.950 . S
C952 C951 1.398 . S
C952 C953 1.391 . S
C953 H941 0.950 . S
C953 C949 1.393 . S
C953 C952 1.391 . S
C954 H944 0.950 . S
C954 C955 1.386 . S
C954 C956 1.391 . S
C955 C954 1.386 . S
C955 C959 1.393 . S
C956 H945 0.950 . S
C956 C954 1.391 . S
C956 C957 1.400 . S
C957 C951 1.491 . S
C957 C956 1.400 . S
C957 C958 1.398 . S
C958 H946 0.950 . S
C958 C957 1.398 . S
C958 C959 1.391 . S
C959 H947 0.950 . S
C959 C955 1.393 . S
C959 C958 1.391 . S
H960 C968 0.950 . S
H961 C973 0.950 . S
H962 C970 0.950 . S
H963 C972 0.950 . S
H964 C974 0.950 . S
H965 C976 0.950 . S
H966 C978 0.950 . S
H967 C979 0.950 . S
C968 H960 0.950 . S
C968 C969 1.386 . S
C968 C970 1.391 . S
C969 C968 1.386 . S
C969 C973 1.393 . S
C970 H962 0.950 . S
C970 C968 1.391 . S
C970 C971 1.400 . S
C971 C970 1.400 . S
C971 C972 1.398 . S
C971 C977 1.491 . S
C972 H963 0.950 . S
C972 C971 1.398 . S
C972 C973 1.391 . S
C973 H961 0.950 . S
C973 C969 1.393 . S
C973 C972 1.391 . S
C974 H964 0.950 . S
C974 C975 1.386 . S
C974 C976 1.391 . S
C975 C974 1.386 . S
C975 C979 1.393 . S
C976 H965 0.950 . S
C976 C974 1.391 . S
C976 C977 1.400 . S
C977 C971 1.491 . S
C977 C976 1.400 . S
C977 C978 1.398 . S
C978 H966 0.950 . S
C978 C977 1.398 . S
C978 C979 1.391 . S
C979 H967 0.950 . S
C979 C975 1.393 . S
C979 C978 1.391 . S
H980 C988 0.950 . S
H981 C993 0.950 . S
H982 C990 0.950 . S
H983 C992 0.950 . S
H984 C994 0.950 . S
H985 C996 0.950 . S
H986 C998 0.950 . S
H987 C999 0.962 . S
C988 H980 0.950 . S
C988 C989 1.386 . S
C988 C990 1.391 . S
C989 C988 1.386 . S
C989 C993 1.393 . S
C990 H982 0.950 . S
C990 C988 1.391 . S
C990 C991 1.400 . S
C991 C990 1.400 . S
C991 C992 1.398 . S
C991 C997 1.491 . S
C992 H983 0.950 . S
C992 C991 1.398 . S
C992 C993 1.391 . S
C993 H981 0.950 . S
C993 C989 1.393 . S
C993 C992 1.391 . S
C994 H984 0.950 . S
C994 C995 1.386 . S
C994 C996 1.391 . S
C995 C994 1.386 . S
C995 C999 1.393 . S
C996 H985 0.950 . S
C996 C994 1.391 . S
C996 C997 1.400 . S
C997 C991 1.491 . S
C997 C996 1.400 . S
C997 C998 1.398 . S
C998 H986 0.950 . S
C998 C997 1.398 . S
C998 C999 1.391 . S
C999 H987 0.962 . S
C999 C995 1.393 . S
C999 C998 1.391 . S
H1000 C1008 0.950 . S
H1001 C1013 0.950 . S
H1002 C1010 0.950 . S
H1003 C1012 0.950 . S
H1004 C1014 0.950 . S
H1005 C1016 0.950 . S
H1006 C1018 0.950 . S
H1007 C1019 0.950 . S
C1008 H1000 0.950 . S
C1008 C1009 1.386 . S
C1008 C1010 1.391 . S
C1009 C1008 1.386 . S
C1009 C1013 1.393 . S
C1010 H1002 0.950 . S
C1010 C1008 1.391 . S
C1010 C1011 1.400 . S
C1011 C1010 1.400 . S
C1011 C1012 1.398 . S
C1011 C1017 1.491 . S
C1012 H1003 0.950 . S
C1012 C1011 1.398 . S
C1012 C1013 1.391 . S
C1013 H1001 0.950 . S
C1013 C1009 1.393 . S
C1013 C1012 1.391 . S
C1014 H1004 0.950 . S
C1014 C1015 1.386 . S
C1014 C1016 1.391 . S
C1015 C1014 1.386 . S
C1015 C1019 1.393 . S
C1016 H1005 0.950 . S
C1016 C1014 1.391 . S
C1016 C1017 1.400 . S
C1017 C1011 1.491 . S
C1017 C1016 1.400 . S
C1017 C1018 1.398 . S
C1018 H1006 0.950 . S
C1018 C1017 1.398 . S
C1018 C1019 1.391 . S
C1019 H1007 0.950 . S
C1019 C1015 1.393 . S
C1019 C1018 1.391 . S
H1020 C1028 0.950 . S
H1021 C1033 0.950 . S
H1022 C1030 0.950 . S
H1023 C1032 0.950 . S
H1024 C1034 0.950 . S
H1025 C1036 0.950 . S
H1026 C1038 0.950 . S
H1027 C1039 0.950 . S
C1028 H1020 0.950 . S
C1028 C1029 1.386 . S
C1028 C1030 1.391 . S
C1029 C1028 1.386 . S
C1029 C1033 1.393 . S
C1030 H1022 0.950 . S
C1030 C1028 1.391 . S
C1030 C1031 1.400 . S
C1031 C1030 1.400 . S
C1031 C1032 1.398 . S
C1031 C1037 1.491 . S
C1032 H1023 0.950 . S
C1032 C1031 1.398 . S
C1032 C1033 1.391 . S
C1033 H1021 0.950 . S
C1033 C1029 1.393 . S
C1033 C1032 1.391 . S
C1034 H1024 0.950 . S
C1034 C1035 1.386 . S
C1034 C1036 1.391 . S
C1035 C1034 1.386 . S
C1035 C1039 1.393 . S
C1036 H1025 0.950 . S
C1036 C1034 1.391 . S
C1036 C1037 1.400 . S
C1037 C1031 1.491 . S
C1037 C1036 1.400 . S
C1037 C1038 1.398 . S
C1038 H1026 0.950 . S
C1038 C1037 1.398 . S
C1038 C1039 1.391 . S
C1039 H1027 0.950 . S
C1039 C1035 1.393 . S
C1039 C1038 1.391 . S
H1040 C1048 0.950 . S
H1041 C1053 0.950 . S
H1042 C1050 0.950 . S
H1043 C1052 0.950 . S
H1044 C1054 0.950 . S
H1045 C1056 0.950 . S
H1046 C1058 0.950 . S
H1047 C1059 0.950 . S
C1048 H1040 0.950 . S
C1048 C1049 1.386 . S
C1048 C1050 1.391 . S
C1049 C1048 1.386 . S
C1049 C1053 1.393 . S
C1050 H1042 0.950 . S
C1050 C1048 1.391 . S
C1050 C1051 1.400 . S
C1051 C1050 1.400 . S
C1051 C1052 1.398 . S
C1051 C1057 1.491 . S
C1052 H1043 0.950 . S
C1052 C1051 1.398 . S
C1052 C1053 1.391 . S
C1053 H1041 0.950 . S
C1053 C1049 1.393 . S
C1053 C1052 1.391 . S
C1054 H1044 0.950 . S
C1054 C1055 1.386 . S
C1054 C1056 1.391 . S
C1055 C1054 1.386 . S
C1055 C1059 1.393 . S
C1056 H1045 0.950 . S
C1056 C1054 1.391 . S
C1056 C1057 1.400 . S
C1057 C1051 1.491 . S
C1057 C1056 1.400 . S
C1057 C1058 1.398 . S
C1058 H1046 0.950 . S
C1058 C1057 1.398 . S
C1058 C1059 1.391 . S
C1059 H1047 0.950 . S
C1059 C1055 1.393 . S
C1059 C1058 1.391 . S
H1060 C1068 0.950 . S
H1061 C1073 0.950 . S
H1062 C1070 0.950 . S
H1063 C1072 0.950 . S
H1064 C1074 0.950 . S
H1065 C1076 0.950 . S
H1066 C1078 0.950 . S
H1067 C1079 0.950 . S
C1068 H1060 0.950 . S
C1068 C1069 1.386 . S
C1068 C1070 1.391 . S
C1069 C1068 1.386 . S
C1069 C1073 1.393 . S
C1070 H1062 0.950 . S
C1070 C1068 1.391 . S
C1070 C1071 1.400 . S
C1071 C1070 1.400 . S
C1071 C1072 1.398 . S
C1071 C1077 1.491 . S
C1072 H1063 0.950 . S
C1072 C1071 1.398 . S
C1072 C1073 1.391 . S
C1073 H1061 0.950 . S
C1073 C1069 1.393 . S
C1073 C1072 1.391 . S
C1074 H1064 0.950 . S
C1074 C1075 1.386 . S
C1074 C1076 1.391 . S
C1075 C1074 1.386 . S
C1075 C1079 1.393 . S
C1076 H1065 0.950 . S
C1076 C1074 1.391 . S
C1076 C1077 1.400 . S
C1077 C1071 1.491 . S
C1077 C1076 1.400 . S
C1077 C1078 1.398 . S
C1078 H1066 0.950 . S
C1078 C1077 1.398 . S
C1078 C1079 1.391 . S
C1079 H1067 0.950 . S
C1079 C1075 1.393 . S
C1079 C1078 1.391 . S
H1080 C1088 0.950 . S
H1081 C1093 0.950 . S
H1082 C1090 0.950 . S
H1083 C1092 0.950 . S
H1084 C1094 0.950 . S
H1085 C1096 0.950 . S
H1086 C1098 0.950 . S
H1087 C1099 0.950 . S
C1088 H1080 0.950 . S
C1088 C1089 1.386 . S
C1088 C1090 1.391 . S
C1089 C1088 1.386 . S
C1089 C1093 1.393 . S
C1090 H1082 0.950 . S
C1090 C1088 1.391 . S
C1090 C1091 1.400 . S
C1091 C1090 1.400 . S
C1091 C1092 1.398 . S
C1091 C1097 1.491 . S
C1092 H1083 0.950 . S
C1092 C1091 1.398 . S
C1092 C1093 1.391 . S
C1093 H1081 0.950 . S
C1093 C1089 1.393 . S
C1093 C1092 1.391 . S
C1094 H1084 0.950 . S
C1094 C1095 1.386 . S
C1094 C1096 1.391 . S
C1095 C1094 1.386 . S
C1095 C1099 1.393 . S
C1096 H1085 0.950 . S
C1096 C1094 1.391 . S
C1096 C1097 1.400 . S
C1097 C1091 1.491 . S
C1097 C1096 1.400 . S
C1097 C1098 1.398 . S
C1098 H1086 0.950 . S
C1098 C1097 1.398 . S
C1098 C1099 1.391 . S
C1099 H1087 0.950 . S
C1099 C1095 1.393 . S
C1099 C1098 1.391 . S
H1100 C1108 0.950 . S
H1101 C1113 0.950 . S
H1102 C1110 0.950 . S
H1103 C1112 0.950 . S
H1104 C1114 0.950 . S
H1105 C1116 0.950 . S
H1106 C1118 0.950 . S
H1107 C1119 0.950 . S
C1108 H1100 0.950 . S
C1108 C1109 1.386 . S
C1108 C1110 1.391 . S
C1109 C1108 1.386 . S
C1109 C1113 1.393 . S
C1110 H1102 0.950 . S
C1110 C1108 1.391 . S
C1110 C1111 1.400 . S
C1111 C1110 1.400 . S
C1111 C1112 1.398 . S
C1111 C1117 1.491 . S
C1112 H1103 0.950 . S
C1112 C1111 1.398 . S
C1112 C1113 1.391 . S
C1113 H1101 0.950 . S
C1113 C1109 1.393 . S
C1113 C1112 1.391 . S
C1114 H1104 0.950 . S
C1114 C1115 1.386 . S
C1114 C1116 1.391 . S
C1115 C1114 1.386 . S
C1115 C1119 1.393 . S
C1116 H1105 0.950 . S
C1116 C1114 1.391 . S
C1116 C1117 1.400 . S
C1117 C1111 1.491 . S
C1117 C1116 1.400 . S
C1117 C1118 1.398 . S
C1118 H1106 0.950 . S
C1118 C1117 1.398 . S
C1118 C1119 1.391 . S
C1119 H1107 0.950 . S
C1119 C1115 1.393 . S
C1119 C1118 1.391 . S
H1120 C1128 0.950 . S
H1121 C1133 0.950 . S
H1122 C1130 0.950 . S
H1123 C1132 0.950 . S
H1124 C1134 0.950 . S
H1125 C1136 0.950 . S
H1126 C1138 0.950 . S
H1127 C1139 0.950 . S
C1128 H1120 0.950 . S
C1128 C1129 1.386 . S
C1128 C1130 1.391 . S
C1129 C1128 1.386 . S
C1129 C1133 1.393 . S
C1130 H1122 0.950 . S
C1130 C1128 1.391 . S
C1130 C1131 1.400 . S
C1131 C1130 1.400 . S
C1131 C1132 1.398 . S
C1131 C1137 1.491 . S
C1132 H1123 0.950 . S
C1132 C1131 1.398 . S
C1132 C1133 1.391 . S
C1133 H1121 0.950 . S
C1133 C1129 1.393 . S
C1133 C1132 1.391 . S
C1134 H1124 0.950 . S
C1134 C1135 1.386 . S
C1134 C1136 1.391 . S
C1135 C1134 1.386 . S
C1135 C1139 1.393 . S
C1136 H1125 0.950 . S
C1136 C1134 1.391 . S
C1136 C1137 1.400 . S
C1137 C1131 1.491 . S
C1137 C1136 1.400 . S
C1137 C1138 1.398 . S
C1138 H1126 0.950 . S
C1138 C1137 1.398 . S
C1138 C1139 1.391 . S
C1139 H1127 0.950 . S
C1139 C1135 1.393 . S
C1139 C1138 1.391 . S
H1140 C1148 0.950 . S
H1141 C1153 0.950 . S
H1142 C1150 0.950 . S
H1143 C1152 0.950 . S
H1144 C1154 0.950 . S
H1145 C1156 0.950 . S
H1146 C1158 0.950 . S
H1147 C1159 0.950 1_455 S
C1148 H1140 0.950 . S
C1148 C1149 1.386 . S
C1148 C1150 1.391 . S
C1149 C1148 1.386 . S
C1149 C1153 1.393 . S
C1150 H1142 0.950 . S
C1150 C1148 1.391 . S
C1150 C1151 1.400 . S
C1151 C1150 1.400 . S
C1151 C1152 1.398 . S
C1151 C1157 1.491 . S
C1152 H1143 0.950 . S
C1152 C1151 1.398 . S
C1152 C1153 1.391 . S
C1153 H1141 0.950 . S
C1153 C1149 1.393 . S
C1153 C1152 1.391 . S
C1154 H1144 0.950 . S
C1154 C1155 1.386 . S
C1154 C1156 1.391 . S
C1155 C1154 1.386 . S
C1155 C1159 1.393 . S
C1156 H1145 0.950 . S
C1156 C1154 1.391 . S
C1156 C1157 1.400 . S
C1157 C1151 1.491 . S
C1157 C1156 1.400 . S
C1157 C1158 1.398 . S
C1158 H1146 0.950 . S
C1158 C1157 1.398 . S
C1158 C1159 1.391 . S
C1159 H1147 0.950 1_655 S
C1159 C1155 1.393 . S
C1159 C1158 1.391 . S
H1160 C1168 0.950 . S
H1161 C1173 0.950 . S
H1162 C1170 0.950 . S
H1163 C1172 0.950 . S
H1164 C1174 0.950 . S
H1165 C1176 0.950 . S
H1166 C1178 0.950 . S
H1167 C1179 0.950 . S
C1168 H1160 0.950 . S
C1168 C1169 1.386 . S
C1168 C1170 1.391 . S
C1169 C1168 1.386 . S
C1169 C1173 1.393 . S
C1170 H1162 0.950 . S
C1170 C1168 1.391 . S
C1170 C1171 1.400 . S
C1171 C1170 1.400 . S
C1171 C1172 1.398 . S
C1171 C1177 1.491 . S
C1172 H1163 0.950 . S
C1172 C1171 1.398 . S
C1172 C1173 1.391 . S
C1173 H1161 0.950 . S
C1173 C1169 1.393 . S
C1173 C1172 1.391 . S
C1174 H1164 0.950 . S
C1174 C1175 1.386 . S
C1174 C1176 1.391 . S
C1175 C1174 1.386 . S
C1175 C1179 1.393 . S
C1176 H1165 0.950 . S
C1176 C1174 1.391 . S
C1176 C1177 1.400 . S
C1177 C1171 1.491 . S
C1177 C1176 1.400 . S
C1177 C1178 1.398 . S
C1178 H1166 0.950 . S
C1178 C1177 1.398 . S
C1178 C1179 1.391 . S
C1179 H1167 0.950 . S
C1179 C1175 1.393 . S
C1179 C1178 1.391 . S
H1180 C1188 0.950 . S
H1181 C1193 0.950 . S
H1182 C1190 0.950 . S
H1183 C1192 0.950 . S
H1184 C1194 0.950 . S
H1185 C1196 0.950 . S
H1186 C1198 0.950 . S
H1187 C1199 0.950 . S
C1188 H1180 0.950 . S
C1188 C1189 1.386 . S
C1188 C1190 1.391 . S
C1189 C1188 1.386 . S
C1189 C1193 1.393 . S
C1190 H1182 0.950 . S
C1190 C1188 1.391 . S
C1190 C1191 1.400 . S
C1191 C1190 1.400 . S
C1191 C1192 1.398 . S
C1191 C1197 1.491 . S
C1192 H1183 0.950 . S
C1192 C1191 1.398 . S
C1192 C1193 1.391 . S
C1193 H1181 0.950 . S
C1193 C1189 1.393 . S
C1193 C1192 1.391 . S
C1194 H1184 0.950 . S
C1194 C1195 1.386 . S
C1194 C1196 1.391 . S
C1195 C1194 1.386 . S
C1195 C1199 1.393 . S
C1196 H1185 0.950 . S
C1196 C1194 1.391 . S
C1196 C1197 1.400 . S
C1197 C1191 1.491 . S
C1197 C1196 1.400 . S
C1197 C1198 1.398 . S
C1198 H1186 0.950 . S
C1198 C1197 1.398 . S
C1198 C1199 1.391 . S
C1199 H1187 0.950 . S
C1199 C1195 1.393 . S
C1199 C1198 1.391 . S
H1200 C1208 0.950 . S
H1201 C1213 0.950 . S
H1202 C1210 0.950 . S
H1203 C1212 0.950 . S
H1204 C1214 0.950 . S
H1205 C1216 0.950 . S
H1206 C1218 0.950 . S
H1207 C1219 0.950 . S
C1208 H1200 0.950 . S
C1208 C1209 1.386 . S
C1208 C1210 1.391 . S
C1209 C1208 1.386 . S
C1209 C1213 1.393 . S
C1210 H1202 0.950 . S
C1210 C1208 1.391 . S
C1210 C1211 1.400 . S
C1211 C1210 1.400 . S
C1211 C1212 1.398 . S
C1211 C1217 1.491 . S
C1212 H1203 0.950 . S
C1212 C1211 1.398 . S
C1212 C1213 1.391 . S
C1213 H1201 0.950 . S
C1213 C1209 1.393 . S
C1213 C1212 1.391 . S
C1214 H1204 0.950 . S
C1214 C1215 1.386 . S
C1214 C1216 1.391 . S
C1215 C1214 1.386 . S
C1215 C1219 1.393 . S
C1216 H1205 0.950 . S
C1216 C1214 1.391 . S
C1216 C1217 1.400 . S
C1217 C1211 1.491 . S
C1217 C1216 1.400 . S
C1217 C1218 1.398 . S
C1218 H1206 0.950 . S
C1218 C1217 1.398 . S
C1218 C1219 1.391 . S
C1219 H1207 0.950 . S
C1219 C1215 1.393 . S
C1219 C1218 1.391 . S
H1220 C1228 0.950 . S
H1221 C1233 0.950 . S
H1222 C1230 0.950 . S
H1223 C1232 0.950 . S
H1224 C1234 0.950 . S
H1225 C1236 0.950 . S
H1226 C1238 0.950 . S
H1227 C1239 0.950 . S
C1228 H1220 0.950 . S
C1228 C1229 1.386 . S
C1228 C1230 1.391 . S
C1229 C1228 1.386 . S
C1229 C1233 1.393 . S
C1230 H1222 0.950 . S
C1230 C1228 1.391 . S
C1230 C1231 1.400 . S
C1231 C1230 1.400 . S
C1231 C1232 1.398 . S
C1231 C1237 1.491 . S
C1232 H1223 0.950 . S
C1232 C1231 1.398 . S
C1232 C1233 1.391 . S
C1233 H1221 0.950 . S
C1233 C1229 1.393 . S
C1233 C1232 1.391 . S
C1234 H1224 0.950 . S
C1234 C1235 1.386 . S
C1234 C1236 1.391 . S
C1235 C1234 1.386 . S
C1235 C1239 1.393 . S
C1236 H1225 0.950 . S
C1236 C1234 1.391 . S
C1236 C1237 1.400 . S
C1237 C1231 1.491 . S
C1237 C1236 1.400 . S
C1237 C1238 1.398 . S
C1238 H1226 0.950 . S
C1238 C1237 1.398 . S
C1238 C1239 1.391 . S
C1239 H1227 0.950 . S
C1239 C1235 1.393 . S
C1239 C1238 1.391 . S
H1240 C1248 0.950 . S
H1241 C1253 0.950 . S
H1242 C1250 0.950 . S
H1243 C1252 0.950 . S
H1244 C1254 0.950 . S
H1245 C1256 0.950 . S
H1246 C1258 0.950 . S
H1247 C1259 0.950 . S
C1248 H1240 0.950 . S
C1248 C1249 1.386 . S
C1248 C1250 1.391 . S
C1249 C1248 1.386 . S
C1249 C1253 1.393 . S
C1250 H1242 0.950 . S
C1250 C1248 1.391 . S
C1250 C1251 1.400 . S
C1251 C1250 1.400 . S
C1251 C1252 1.398 . S
C1251 C1257 1.491 . S
C1252 H1243 0.950 . S
C1252 C1251 1.398 . S
C1252 C1253 1.391 . S
C1253 H1241 0.950 . S
C1253 C1249 1.393 . S
C1253 C1252 1.391 . S
C1254 H1244 0.950 . S
C1254 C1255 1.386 . S
C1254 C1256 1.391 . S
C1255 C1254 1.386 . S
C1255 C1259 1.393 . S
C1256 H1245 0.950 . S
C1256 C1254 1.391 . S
C1256 C1257 1.400 . S
C1257 C1251 1.491 . S
C1257 C1256 1.400 . S
C1257 C1258 1.398 . S
C1258 H1246 0.950 . S
C1258 C1257 1.398 . S
C1258 C1259 1.391 . S
C1259 H1247 0.950 . S
C1259 C1255 1.393 . S
C1259 C1258 1.391 . S
H1260 C1268 0.950 . S
H1261 C1273 0.950 . S
H1262 C1270 0.950 . S
H1263 C1272 0.950 . S
H1264 C1274 0.950 . S
H1265 C1276 0.950 . S
H1266 C1278 0.950 . S
H1267 C1279 0.950 . S
C1268 H1260 0.950 . S
C1268 C1269 1.386 . S
C1268 C1270 1.391 . S
C1269 C1268 1.386 . S
C1269 C1273 1.393 . S
C1270 H1262 0.950 . S
C1270 C1268 1.391 . S
C1270 C1271 1.400 . S
C1271 C1270 1.400 . S
C1271 C1272 1.398 . S
C1271 C1277 1.491 . S
C1272 H1263 0.950 . S
C1272 C1271 1.398 . S
C1272 C1273 1.391 . S
C1273 H1261 0.950 . S
C1273 C1269 1.393 . S
C1273 C1272 1.391 . S
C1274 H1264 0.950 . S
C1274 C1275 1.386 . S
C1274 C1276 1.391 . S
C1275 C1274 1.386 . S
C1275 C1279 1.393 . S
C1276 H1265 0.950 . S
C1276 C1274 1.391 . S
C1276 C1277 1.400 . S
C1277 C1271 1.491 . S
C1277 C1276 1.400 . S
C1277 C1278 1.398 . S
C1278 H1266 0.950 . S
C1278 C1277 1.398 . S
C1278 C1279 1.391 . S
C1279 H1267 0.950 . S
C1279 C1275 1.393 . S
C1279 C1278 1.391 . S
H1280 C1288 0.950 . S
H1281 C1293 0.950 . S
H1282 C1290 0.950 . S
H1283 C1292 0.950 . S
H1284 C1294 0.950 . S
H1285 C1296 0.950 . S
H1286 C1298 0.950 . S
H1287 C1299 0.950 . S
C1288 H1280 0.950 . S
C1288 C1289 1.386 . S
C1288 C1290 1.391 . S
C1289 C1288 1.386 . S
C1289 C1293 1.393 . S
C1290 H1282 0.950 . S
C1290 C1288 1.391 . S
C1290 C1291 1.400 . S
C1291 C1290 1.400 . S
C1291 C1292 1.398 . S
C1291 C1297 1.491 . S
C1292 H1283 0.950 . S
C1292 C1291 1.398 . S
C1292 C1293 1.391 . S
C1293 H1281 0.950 . S
C1293 C1289 1.393 . S
C1293 C1292 1.391 . S
C1294 H1284 0.950 . S
C1294 C1295 1.386 . S
C1294 C1296 1.391 . S
C1295 C1294 1.386 . S
C1295 C1299 1.393 . S
C1296 H1285 0.950 . S
C1296 C1294 1.391 . S
C1296 C1297 1.400 . S
C1297 C1291 1.491 . S
C1297 C1296 1.400 . S
C1297 C1298 1.398 . S
C1298 H1286 0.950 . S
C1298 C1297 1.398 . S
C1298 C1299 1.391 . S
C1299 H1287 0.950 . S
C1299 C1295 1.393 . S
C1299 C1298 1.391 . S
H1300 C1308 0.950 . S
H1301 C1313 0.950 . S
H1302 C1310 0.950 . S
H1303 C1312 0.950 . S
H1304 C1314 0.950 . S
H1305 C1316 0.950 . S
H1306 C1318 0.950 . S
H1307 C1319 0.950 . S
C1308 H1300 0.950 . S
C1308 C1309 1.386 . S
C1308 C1310 1.391 . S
C1309 C1308 1.386 . S
C1309 C1313 1.393 . S
C1310 H1302 0.950 . S
C1310 C1308 1.391 . S
C1310 C1311 1.400 . S
C1311 C1310 1.400 . S
C1311 C1312 1.398 . S
C1311 C1317 1.491 . S
C1312 H1303 0.950 . S
C1312 C1311 1.398 . S
C1312 C1313 1.391 . S
C1313 H1301 0.950 . S
C1313 C1309 1.393 . S
C1313 C1312 1.391 . S
C1314 H1304 0.950 . S
C1314 C1315 1.386 . S
C1314 C1316 1.391 . S
C1315 C1314 1.386 . S
C1315 C1319 1.393 . S
C1316 H1305 0.950 . S
C1316 C1314 1.391 . S
C1316 C1317 1.400 . S
C1317 C1311 1.491 . S
C1317 C1316 1.400 . S
C1317 C1318 1.398 . S
C1318 H1306 0.950 . S
C1318 C1317 1.398 . S
C1318 C1319 1.391 . S
C1319 H1307 0.950 . S
C1319 C1315 1.393 . S
C1319 C1318 1.391 . S
H1320 C1328 0.950 . S
H1321 C1333 0.950 . S
H1322 C1330 0.950 . S
H1323 C1332 0.950 . S
H1324 C1334 0.950 . S
H1325 C1336 0.950 . S
H1326 C1338 0.950 . S
H1327 C1339 0.950 . S
C1328 H1320 0.950 . S
C1328 C1329 1.386 . S
C1328 C1330 1.391 . S
C1329 C1328 1.386 . S
C1329 C1333 1.393 . S
C1330 H1322 0.950 . S
C1330 C1328 1.391 . S
C1330 C1331 1.400 . S
C1331 C1330 1.400 . S
C1331 C1332 1.398 . S
C1331 C1337 1.491 . S
C1332 H1323 0.950 . S
C1332 C1331 1.398 . S
C1332 C1333 1.391 . S
C1333 H1321 0.950 . S
C1333 C1329 1.393 . S
C1333 C1332 1.391 . S
C1334 H1324 0.950 . S
C1334 C1335 1.386 . S
C1334 C1336 1.391 . S
C1335 C1334 1.386 . S
C1335 C1339 1.393 . S
C1336 H1325 0.950 . S
C1336 C1334 1.391 . S
C1336 C1337 1.400 . S
C1337 C1331 1.491 . S
C1337 C1336 1.400 . S
C1337 C1338 1.398 . S
C1338 H1326 0.950 . S
C1338 C1337 1.398 . S
C1338 C1339 1.391 . S
C1339 H1327 0.950 . S
C1339 C1335 1.393 . S
C1339 C1338 1.391 . S
H1340 C1348 0.950 . S
H1341 C1353 0.950 . S
H1342 C1350 0.950 . S
H1343 C1352 0.950 . S
H1344 C1354 0.950 . S
H1345 C1356 0.950 . S
H1346 C1358 0.950 . S
H1347 C1359 0.950 . S
C1348 H1340 0.950 . S
C1348 C1349 1.386 . S
C1348 C1350 1.391 . S
C1349 C1348 1.386 . S
C1349 C1353 1.393 . S
C1350 H1342 0.950 . S
C1350 C1348 1.391 . S
C1350 C1351 1.400 . S
C1351 C1350 1.400 . S
C1351 C1352 1.398 . S
C1351 C1357 1.491 . S
C1352 H1343 0.950 . S
C1352 C1351 1.398 . S
C1352 C1353 1.391 . S
C1353 H1341 0.950 . S
C1353 C1349 1.393 . S
C1353 C1352 1.391 . S
C1354 H1344 0.950 . S
C1354 C1355 1.386 . S
C1354 C1356 1.391 . S
C1355 C1354 1.386 . S
C1355 C1359 1.393 . S
C1356 H1345 0.950 . S
C1356 C1354 1.391 . S
C1356 C1357 1.400 . S
C1357 C1351 1.491 . S
C1357 C1356 1.400 . S
C1357 C1358 1.398 . S
C1358 H1346 0.950 . S
C1358 C1357 1.398 . S
C1358 C1359 1.391 . S
C1359 H1347 0.950 . S
C1359 C1355 1.393 . S
C1359 C1358 1.391 . S
H1360 C1368 0.950 . S
H1361 C1373 0.950 . S
H1362 C1370 0.950 . S
H1363 C1372 0.950 . S
H1364 C1374 0.950 . S
H1365 C1376 0.950 . S
H1366 C1378 0.950 . S
H1367 C1379 0.950 . S
C1368 H1360 0.950 . S
C1368 C1369 1.386 . S
C1368 C1370 1.391 . S
C1369 C1368 1.386 . S
C1369 C1373 1.393 . S
C1370 H1362 0.950 . S
C1370 C1368 1.391 . S
C1370 C1371 1.400 . S
C1371 C1370 1.400 . S
C1371 C1372 1.398 . S
C1371 C1377 1.491 . S
C1372 H1363 0.950 . S
C1372 C1371 1.398 . S
C1372 C1373 1.391 . S
C1373 H1361 0.950 . S
C1373 C1369 1.393 . S
C1373 C1372 1.391 . S
C1374 H1364 0.950 . S
C1374 C1375 1.386 . S
C1374 C1376 1.391 . S
C1375 C1374 1.386 . S
C1375 C1379 1.393 . S
C1376 H1365 0.950 . S
C1376 C1374 1.391 . S
C1376 C1377 1.400 . S
C1377 C1371 1.491 . S
C1377 C1376 1.400 . S
C1377 C1378 1.398 . S
C1378 H1366 0.950 . S
C1378 C1377 1.398 . S
C1378 C1379 1.391 . S
C1379 H1367 0.950 . S
C1379 C1375 1.393 . S
C1379 C1378 1.391 . S
H1380 C1388 0.950 . S
H1381 C1393 0.950 . S
H1382 C1390 0.950 . S
H1383 C1392 0.950 . S
H1384 C1394 0.950 . S
H1385 C1396 0.950 . S
H1386 C1398 0.950 . S
H1387 C1399 0.950 . S
C1388 H1380 0.950 . S
C1388 C1389 1.386 . S
C1388 C1390 1.391 . S
C1389 C1388 1.386 . S
C1389 C1393 1.393 . S
C1390 H1382 0.950 . S
C1390 C1388 1.391 . S
C1390 C1391 1.400 . S
C1391 C1390 1.400 . S
C1391 C1392 1.398 . S
C1391 C1397 1.491 . S
C1392 H1383 0.950 . S
C1392 C1391 1.398 . S
C1392 C1393 1.391 . S
C1393 H1381 0.950 . S
C1393 C1389 1.393 . S
C1393 C1392 1.391 . S
C1394 H1384 0.950 . S
C1394 C1395 1.386 . S
C1394 C1396 1.391 . S
C1395 C1394 1.386 . S
C1395 C1399 1.393 . S
C1396 H1385 0.950 . S
C1396 C1394 1.391 . S
C1396 C1397 1.400 . S
C1397 C1391 1.491 . S
C1397 C1396 1.400 . S
C1397 C1398 1.398 . S
C1398 H1386 0.950 . S
C1398 C1397 1.398 . S
C1398 C1399 1.391 . S
C1399 H1387 0.950 . S
C1399 C1395 1.393 . S
C1399 C1398 1.391 . S
H1400 C1408 0.950 . S
H1401 C1413 0.950 . S
H1402 C1410 0.950 . S
H1403 C1412 0.950 . S
H1404 C1414 0.950 . S
H1405 C1416 0.950 . S
H1406 C1418 0.950 . S
H1407 C1419 0.950 . S
C1408 H1400 0.950 . S
C1408 C1409 1.386 . S
C1408 C1410 1.391 . S
C1409 C1408 1.386 . S
C1409 C1413 1.393 . S
C1410 H1402 0.950 . S
C1410 C1408 1.391 . S
C1410 C1411 1.400 . S
C1411 C1410 1.400 . S
C1411 C1412 1.398 . S
C1411 C1417 1.491 . S
C1412 H1403 0.950 . S
C1412 C1411 1.398 . S
C1412 C1413 1.391 . S
C1413 H1401 0.950 . S
C1413 C1409 1.393 . S
C1413 C1412 1.391 . S
C1414 H1404 0.950 . S
C1414 C1415 1.386 . S
C1414 C1416 1.391 . S
C1415 C1414 1.386 . S
C1415 C1419 1.393 . S
C1416 H1405 0.950 . S
C1416 C1414 1.391 . S
C1416 C1417 1.400 . S
C1417 C1411 1.491 . S
C1417 C1416 1.400 . S
C1417 C1418 1.398 . S
C1418 H1406 0.950 . S
C1418 C1417 1.398 . S
C1418 C1419 1.391 . S
C1419 H1407 0.950 . S
C1419 C1415 1.393 . S
C1419 C1418 1.391 . S
H1420 C1428 0.950 . S
H1421 C1433 0.950 . S
H1422 C1430 0.950 . S
H1423 C1432 0.950 . S
H1424 C1434 0.950 . S
H1425 C1436 0.950 . S
H1426 C1438 0.950 . S
H1427 C1439 0.950 . S
C1428 H1420 0.950 . S
C1428 C1429 1.386 . S
C1428 C1430 1.391 . S
C1429 C1428 1.386 . S
C1429 C1433 1.393 . S
C1430 H1422 0.950 . S
C1430 C1428 1.391 . S
C1430 C1431 1.400 . S
C1431 C1430 1.400 . S
C1431 C1432 1.398 . S
C1431 C1437 1.491 . S
C1432 H1423 0.950 . S
C1432 C1431 1.398 . S
C1432 C1433 1.391 . S
C1433 H1421 0.950 . S
C1433 C1429 1.393 . S
C1433 C1432 1.391 . S
C1434 H1424 0.950 . S
C1434 C1435 1.386 . S
C1434 C1436 1.391 . S
C1435 C1434 1.386 . S
C1435 C1439 1.393 . S
C1436 H1425 0.950 . S
C1436 C1434 1.391 . S
C1436 C1437 1.400 . S
C1437 C1431 1.491 . S
C1437 C1436 1.400 . S
C1437 C1438 1.398 . S
C1438 H1426 0.950 . S
C1438 C1437 1.398 . S
C1438 C1439 1.391 . S
C1439 H1427 0.950 . S
C1439 C1435 1.393 . S
C1439 C1438 1.391 . S
H1440 C1448 0.950 . S
H1441 C1453 0.950 . S
H1442 C1450 0.950 . S
H1443 C1452 0.950 . S
H1444 C1454 0.950 . S
H1445 C1456 0.950 . S
H1446 C1458 0.950 . S
H1447 C1459 0.950 . S
C1448 H1440 0.950 . S
C1448 C1449 1.386 . S
C1448 C1450 1.391 . S
C1449 C1448 1.386 . S
C1449 C1453 1.393 . S
C1450 H1442 0.950 . S
C1450 C1448 1.391 . S
C1450 C1451 1.400 . S
C1451 C1450 1.400 . S
C1451 C1452 1.398 . S
C1451 C1457 1.491 . S
C1452 H1443 0.950 . S
C1452 C1451 1.398 . S
C1452 C1453 1.391 . S
C1453 H1441 0.950 . S
C1453 C1449 1.393 . S
C1453 C1452 1.391 . S
C1454 H1444 0.950 . S
C1454 C1455 1.386 . S
C1454 C1456 1.391 . S
C1455 C1454 1.386 . S
C1455 C1459 1.393 . S
C1456 H1445 0.950 . S
C1456 C1454 1.391 . S
C1456 C1457 1.400 . S
C1457 C1451 1.491 . S
C1457 C1456 1.400 . S
C1457 C1458 1.398 . S
C1458 H1446 0.950 . S
C1458 C1457 1.398 . S
C1458 C1459 1.391 . S
C1459 H1447 0.950 . S
C1459 C1455 1.393 . S
C1459 C1458 1.391 . S
H1460 C1468 0.950 . S
H1461 C1473 0.950 . S
H1462 C1470 0.950 . S
H1463 C1472 0.950 . S
H1464 C1474 0.950 . S
H1465 C1476 0.950 . S
H1466 C1478 0.950 . S
H1467 C1479 0.950 . S
C1468 H1460 0.950 . S
C1468 C1469 1.386 . S
C1468 C1470 1.391 . S
C1469 C1468 1.386 . S
C1469 C1473 1.393 . S
C1470 H1462 0.950 . S
C1470 C1468 1.391 . S
C1470 C1471 1.400 . S
C1471 C1470 1.400 . S
C1471 C1472 1.398 . S
C1471 C1477 1.491 . S
C1472 H1463 0.950 . S
C1472 C1471 1.398 . S
C1472 C1473 1.391 . S
C1473 H1461 0.950 . S
C1473 C1469 1.393 . S
C1473 C1472 1.391 . S
C1474 H1464 0.950 . S
C1474 C1475 1.386 . S
C1474 C1476 1.391 . S
C1475 C1474 1.386 . S
C1475 C1479 1.393 . S
C1476 H1465 0.950 . S
C1476 C1474 1.391 . S
C1476 C1477 1.400 . S
C1477 C1471 1.491 . S
C1477 C1476 1.400 . S
C1477 C1478 1.398 . S
C1478 H1466 0.950 . S
C1478 C1477 1.398 . S
C1478 C1479 1.391 . S
C1479 H1467 0.950 . S
C1479 C1475 1.393 . S
C1479 C1478 1.391 . S
H1480 C1488 0.950 . S
H1481 C1493 0.950 . S
H1482 C1490 0.950 . S
H1483 C1492 0.950 . S
H1484 C1494 0.950 . S
H1485 C1496 0.950 . S
H1486 C1498 0.950 . S
H1487 C1499 0.950 . S
C1488 H1480 0.950 . S
C1488 C1489 1.386 . S
C1488 C1490 1.391 . S
C1489 C1488 1.386 . S
C1489 C1493 1.393 . S
C1490 H1482 0.950 . S
C1490 C1488 1.391 . S
C1490 C1491 1.400 . S
C1491 C1490 1.400 . S
C1491 C1492 1.398 . S
C1491 C1497 1.491 . S
C1492 H1483 0.950 . S
C1492 C1491 1.398 . S
C1492 C1493 1.391 . S
C1493 H1481 0.950 . S
C1493 C1489 1.393 . S
C1493 C1492 1.391 . S
C1494 H1484 0.950 . S
C1494 C1495 1.386 . S
C1494 C1496 1.391 . S
C1495 C1494 1.386 . S
C1495 C1499 1.393 . S
C1496 H1485 0.950 . S
C1496 C1494 1.391 . S
C1496 C1497 1.400 . S
C1497 C1491 1.491 . S
C1497 C1496 1.400 . S
C1497 C1498 1.398 . S
C1498 H1486 0.950 . S
C1498 C1497 1.398 . S
C1498 C1499 1.391 . S
C1499 H1487 0.950 . S
C1499 C1495 1.393 . S
C1499 C1498 1.391 . S
H1500 C1508 0.950 . S
H1501 C1513 0.950 . S
H1502 C1510 0.950 . S
H1503 C1512 0.950 . S
H1504 C1514 0.950 . S
H1505 C1516 0.950 . S
H1506 C1518 0.950 . S
H1507 C1519 0.950 . S
C1508 H1500 0.950 . S
C1508 C1509 1.386 . S
C1508 C1510 1.391 . S
C1509 C1508 1.386 . S
C1509 C1513 1.393 . S
C1510 H1502 0.950 . S
C1510 C1508 1.391 . S
C1510 C1511 1.400 . S
C1511 C1510 1.400 . S
C1511 C1512 1.398 . S
C1511 C1517 1.491 . S
C1512 H1503 0.950 . S
C1512 C1511 1.398 . S
C1512 C1513 1.391 . S
C1513 H1501 0.950 . S
C1513 C1509 1.393 . S
C1513 C1512 1.391 . S
C1514 H1504 0.950 . S
C1514 C1515 1.386 . S
C1514 C1516 1.391 . S
C1515 C1514 1.386 . S
C1515 C1519 1.393 . S
C1516 H1505 0.950 . S
C1516 C1514 1.391 . S
C1516 C1517 1.400 . S
C1517 C1511 1.491 . S
C1517 C1516 1.400 . S
C1517 C1518 1.398 . S
C1518 H1506 0.950 . S
C1518 C1517 1.398 . S
C1518 C1519 1.391 . S
C1519 H1507 0.950 . S
C1519 C1515 1.393 . S
C1519 C1518 1.391 . S
H1520 C1528 0.950 . S
H1521 C1533 0.950 . S
H1522 C1530 0.950 . S
H1523 C1532 0.950 . S
H1524 C1534 0.950 . S
H1525 C1536 0.950 . S
H1526 C1538 0.950 . S
H1527 C1539 0.950 . S
C1528 H1520 0.950 . S
C1528 C1529 1.386 . S
C1528 C1530 1.391 . S
C1529 C1528 1.386 . S
C1529 C1533 1.393 . S
C1530 H1522 0.950 . S
C1530 C1528 1.391 . S
C1530 C1531 1.400 . S
C1531 C1530 1.400 . S
C1531 C1532 1.398 . S
C1531 C1537 1.491 . S
C1532 H1523 0.950 . S
C1532 C1531 1.398 . S
C1532 C1533 1.391 . S
C1533 H1521 0.950 . S
C1533 C1529 1.393 . S
C1533 C1532 1.391 . S
C1534 H1524 0.950 . S
C1534 C1535 1.386 . S
C1534 C1536 1.391 . S
C1535 C1534 1.386 . S
C1535 C1539 1.393 . S
C1536 H1525 0.950 . S
C1536 C1534 1.391 . S
C1536 C1537 1.400 . S
C1537 C1531 1.491 . S
C1537 C1536 1.400 . S
C1537 C1538 1.398 . S
C1538 H1526 0.950 . S
C1538 C1537 1.398 . S
C1538 C1539 1.391 . S
C1539 H1527 0.950 . S
C1539 C1535 1.393 . S
C1539 C1538 1.391 . S
H1540 C1548 0.950 . S
H1541 C1553 0.950 . S
H1542 C1550 0.950 . S
H1543 C1552 0.950 . S
H1544 C1554 0.950 . S
H1545 C1556 0.950 . S
H1546 C1558 0.950 . S
H1547 C1559 0.950 . S
C1548 H1540 0.950 . S
C1548 C1549 1.386 . S
C1548 C1550 1.391 . S
C1549 C1548 1.386 . S
C1549 C1553 1.393 . S
C1550 H1542 0.950 . S
C1550 C1548 1.391 . S
C1550 C1551 1.400 . S
C1551 C1550 1.400 . S
C1551 C1552 1.398 . S
C1551 C1557 1.491 . S
C1552 H1543 0.950 . S
C1552 C1551 1.398 . S
C1552 C1553 1.391 . S
C1553 H1541 0.950 . S
C1553 C1549 1.393 . S
C1553 C1552 1.391 . S
C1554 H1544 0.950 . S
C1554 C1555 1.386 . S
C1554 C1556 1.391 . S
C1555 C1554 1.386 . S
C1555 C1559 1.393 . S
C1556 H1545 0.950 . S
C1556 C1554 1.391 . S
C1556 C1557 1.400 . S
C1557 C1551 1.491 . S
C1557 C1556 1.400 . S
C1557 C1558 1.398 . S
C1558 H1546 0.950 . S
C1558 C1557 1.398 . S
C1558 C1559 1.391 . S
C1559 H1547 0.950 . S
C1559 C1555 1.393 . S
C1559 C1558 1.391 . S
H1560 C1568 0.950 . S
H1561 C1573 0.950 . S
H1562 C1570 0.950 . S
H1563 C1572 0.950 . S
H1564 C1574 0.950 . S
H1565 C1576 0.950 . S
H1566 C1578 0.950 . S
H1567 C1579 0.950 . S
C1568 H1560 0.950 . S
C1568 C1569 1.386 . S
C1568 C1570 1.391 . S
C1569 C1568 1.386 . S
C1569 C1573 1.393 . S
C1570 H1562 0.950 . S
C1570 C1568 1.391 . S
C1570 C1571 1.400 . S
C1571 C1570 1.400 . S
C1571 C1572 1.398 . S
C1571 C1577 1.491 . S
C1572 H1563 0.950 . S
C1572 C1571 1.398 . S
C1572 C1573 1.391 . S
C1573 H1561 0.950 . S
C1573 C1569 1.393 . S
C1573 C1572 1.391 . S
C1574 H1564 0.950 . S
C1574 C1575 1.386 . S
C1574 C1576 1.391 . S
C1575 C1574 1.386 . S
C1575 C1579 1.393 . S
C1576 H1565 0.950 . S
C1576 C1574 1.391 . S
C1576 C1577 1.400 . S
C1577 C1571 1.491 . S
C1577 C1576 1.400 . S
C1577 C1578 1.398 . S
C1578 H1566 0.950 . S
C1578 C1577 1.398 . S
C1578 C1579 1.391 . S
C1579 H1567 0.950 . S
C1579 C1575 1.393 . S
C1579 C1578 1.391 . S
H1580 C1588 0.950 . S
H1581 C1593 0.950 . S
H1582 C1590 0.950 . S
H1583 C1592 0.950 . S
H1584 C1594 0.950 . S
H1585 C1596 0.950 . S
H1586 C1598 0.950 . S
H1587 C1599 0.950 . S
C1588 H1580 0.950 . S
C1588 C1589 1.386 . S
C1588 C1590 1.391 . S
C1589 C1588 1.386 . S
C1589 C1593 1.393 . S
C1590 H1582 0.950 . S
C1590 C1588 1.391 . S
C1590 C1591 1.400 . S
C1591 C1590 1.400 . S
C1591 C1592 1.398 . S
C1591 C1597 1.491 . S
C1592 H1583 0.950 . S
C1592 C1591 1.398 . S
C1592 C1593 1.391 . S
C1593 H1581 0.950 . S
C1593 C1589 1.393 . S
C1593 C1592 1.391 . S
C1594 H1584 0.950 . S
C1594 C1595 1.386 . S
C1594 C1596 1.391 . S
C1595 C1594 1.386 . S
C1595 C1599 1.393 . S
C1596 H1585 0.950 . S
C1596 C1594 1.391 . S
C1596 C1597 1.400 . S
C1597 C1591 1.491 . S
C1597 C1596 1.400 . S
C1597 C1598 1.398 . S
C1598 H1586 0.950 . S
C1598 C1597 1.398 . S
C1598 C1599 1.391 . S
C1599 H1587 0.950 . S
C1599 C1595 1.393 . S
C1599 C1598 1.391 . S
C649 C129 3.575 . S
C655 C8 3.595 . S
C669 C19 3.026 . S
C675 C49 3.042 . S
C689 C98 1.056 . S
C695 C58 1.016 . S
C709 C135 0.590 . S
C715 C95 0.584 . S
C729 C179 0.325 . S
C735 C215 0.100 . S
C749 C218 1.090 . S
C755 C248 1.095 . S
C769 C245 0.454 . S
C775 C295 0.478 . S
C789 C165 0.783 . S
C795 C298 0.778 . S
C809 C369 3.295 . S
C815 C5 3.297 . S
C829 C419 0.722 . S
C835 C55 0.721 . S
C849 C89 3.031 . S
C855 C529 2.993 . S
C869 C328 1.032 . S
C875 C138 1.062 . S
C889 C458 1.070 . S
C895 C168 1.033 . S
C909 C565 3.289 . S
C915 C209 3.297 . S
C929 C259 0.686 . S
C935 C495 0.705 . S
C949 C609 3.035 . S
C955 C289 3.000 . S
C969 C325 0.794 . S
C975 C538 0.806 . S
C989 C375 0.116 . S
C995 C339 0.295 . S
C1009 C408 1.099 . S
C1015 C378 1.084 . S
C1029 C568 3.595 . S
C1035 C449 3.576 . S
C1049 C498 1.041 . S
C1055 C618 1.030 . S
C1069 C459 3.574 . S
C1075 C18 3.593 . S
C1089 C499 3.038 . S
C1095 C9 3.029 . S
C1109 C488 1.013 . S
C1115 C88 1.055 . S
C1129 C85 0.578 . S
C1135 C445 0.584 . S
C1149 C365 0.165 . S
C1155 C169 0.389 . S
C1169 C368 1.060 . S
C1175 C258 1.109 . S
C1189 C525 0.442 . S
C1195 C255 0.418 . S
C1209 C175 0.794 . S
C1215 C528 0.781 . S
C1229 C219 3.300 . S
C1235 C15 3.291 . S
C1249 C409 0.694 . S
C1255 C485 0.677 . S
C1269 C99 3.035 . S
C1275 C299 2.989 . S
C1289 C338 1.041 . S
C1295 C448 1.054 . S
C1309 C128 1.071 . S
C1315 C178 1.034 . S
C1329 C379 3.299 . S
C1335 C575 3.289 . S
C1349 C249 0.699 . S
C1355 C45 0.715 . S
C1369 C619 3.033 . S
C1375 C539 3.000 . S
C1389 C335 0.779 . S
C1395 C288 0.779 . S
C1409 C329 0.300 . S
C1415 C205 0.104 . S
C1429 C418 1.107 . S
C1435 C208 1.057 . S
C1449 C139 3.569 . S
C1455 C578 3.590 . S
C1469 C48 1.012 . S
C1475 C608 1.052 . S
C1489 C489 3.044 . S
C1495 C579 3.024 . S
C1509 C455 0.581 . S
C1515 C615 0.576 . S
C1529 C405 0.440 . S
C1535 C535 0.495 . S
C1549 C569 3.026 . S
C1555 C59 3.039 . S
C1569 C125 0.584 . S
C1575 C605 0.579 . S
C1589 C285 0.500 . S
C1595 C415 0.452 . S
