# Generated by pormake.
# Topology ukt, (4)-cn, num edge types: 1
# Building blocks:
#     Node 0, Type 0, BuildingBlock: NAHDIM_clean_sbu_0, # of connection points: 4
#     Node 1, Type 0, BuildingBlock: NAHDIM_clean_sbu_0, # of connection points: 4
#     Node 2, Type 0, BuildingBlock: NAHDIM_clean_sbu_0, # of connection points: 4
#     Node 3, Type 0, BuildingBlock: NAHDIM_clean_sbu_0, # of connection points: 4
#     Node 4, Type 0, BuildingBlock: NAHDIM_clean_sbu_0, # of connection points: 4
#     Node 5, Type 0, BuildingBlock: NAHDIM_clean_sbu_0, # of connection points: 4
#     Node 6, Type 0, BuildingBlock: NAHDIM_clean_sbu_0, # of connection points: 4
#     Node 7, Type 0, BuildingBlock: NAHDIM_clean_sbu_0, # of connection points: 4
#     Node 8, Type 0, BuildingBlock: NAHDIM_clean_sbu_0, # of connection points: 4
#     Node 9, Type 0, BuildingBlock: NAHDIM_clean_sbu_0, # of connection points: 4
#     Node 10, Type 0, BuildingBlock: NAHDIM_clean_sbu_0, # of connection points: 4
#     Node 11, Type 0, BuildingBlock: NAHDIM_clean_sbu_0, # of connection points: 4
#     Node 12, Type 0, BuildingBlock: NAHDIM_clean_sbu_0, # of connection points: 4
#     Node 13, Type 0, BuildingBlock: NAHDIM_clean_sbu_0, # of connection points: 4
#     Node 14, Type 0, BuildingBlock: NAHDIM_clean_sbu_0, # of connection points: 4
#     Node 15, Type 0, BuildingBlock: NAHDIM_clean_sbu_0, # of connection points: 4
#     Edge 16, Type (0, 0), BuildingBlock: MIFKUJ_clean_linker_0, # of connection points: 2
#     Edge 17, Type (0, 0), BuildingBlock: MIFKUJ_clean_linker_0, # of connection points: 2
#     Edge 18, Type (0, 0), BuildingBlock: MIFKUJ_clean_linker_0, # of connection points: 2
#     Edge 19, Type (0, 0), BuildingBlock: MIFKUJ_clean_linker_0, # of connection points: 2
#     Edge 20, Type (0, 0), BuildingBlock: MIFKUJ_clean_linker_0, # of connection points: 2
#     Edge 21, Type (0, 0), BuildingBlock: MIFKUJ_clean_linker_0, # of connection points: 2
#     Edge 22, Type (0, 0), BuildingBlock: MIFKUJ_clean_linker_0, # of connection points: 2
#     Edge 23, Type (0, 0), BuildingBlock: MIFKUJ_clean_linker_0, # of connection points: 2
#     Edge 24, Type (0, 0), BuildingBlock: MIFKUJ_clean_linker_0, # of connection points: 2
#     Edge 25, Type (0, 0), BuildingBlock: MIFKUJ_clean_linker_0, # of connection points: 2
#     Edge 26, Type (0, 0), BuildingBlock: MIFKUJ_clean_linker_0, # of connection points: 2
#     Edge 27, Type (0, 0), BuildingBlock: MIFKUJ_clean_linker_0, # of connection points: 2
#     Edge 28, Type (0, 0), BuildingBlock: MIFKUJ_clean_linker_0, # of connection points: 2
#     Edge 29, Type (0, 0), BuildingBlock: MIFKUJ_clean_linker_0, # of connection points: 2
#     Edge 30, Type (0, 0), BuildingBlock: MIFKUJ_clean_linker_0, # of connection points: 2
#     Edge 31, Type (0, 0), BuildingBlock: MIFKUJ_clean_linker_0, # of connection points: 2
#     Edge 32, Type (0, 0), BuildingBlock: MIFKUJ_clean_linker_0, # of connection points: 2
#     Edge 33, Type (0, 0), BuildingBlock: MIFKUJ_clean_linker_0, # of connection points: 2
#     Edge 34, Type (0, 0), BuildingBlock: MIFKUJ_clean_linker_0, # of connection points: 2
#     Edge 35, Type (0, 0), BuildingBlock: MIFKUJ_clean_linker_0, # of connection points: 2
#     Edge 36, Type (0, 0), BuildingBlock: MIFKUJ_clean_linker_0, # of connection points: 2
#     Edge 37, Type (0, 0), BuildingBlock: MIFKUJ_clean_linker_0, # of connection points: 2
#     Edge 38, Type (0, 0), BuildingBlock: MIFKUJ_clean_linker_0, # of connection points: 2
#     Edge 39, Type (0, 0), BuildingBlock: MIFKUJ_clean_linker_0, # of connection points: 2
#     Edge 40, Type (0, 0), BuildingBlock: MIFKUJ_clean_linker_0, # of connection points: 2
#     Edge 41, Type (0, 0), BuildingBlock: MIFKUJ_clean_linker_0, # of connection points: 2
#     Edge 42, Type (0, 0), BuildingBlock: MIFKUJ_clean_linker_0, # of connection points: 2
#     Edge 43, Type (0, 0), BuildingBlock: MIFKUJ_clean_linker_0, # of connection points: 2
#     Edge 44, Type (0, 0), BuildingBlock: MIFKUJ_clean_linker_0, # of connection points: 2
#     Edge 45, Type (0, 0), BuildingBlock: MIFKUJ_clean_linker_0, # of connection points: 2
#     Edge 46, Type (0, 0), BuildingBlock: MIFKUJ_clean_linker_0, # of connection points: 2
#     Edge 47, Type (0, 0), BuildingBlock: MIFKUJ_clean_linker_0, # of connection points: 2
# Relax obj value: 0.322
# Max RMSD: 0.219
# Mean RMSD: 0.219
data_MOF--net-ukt--node1-NAHDIM_clean_sbu_0--edge1-MIFKUJ_clean_linker_0
_symmetry_space_group_name_H-M    P1
_symmetry_Int_Tables_number       1
_symmetry_cell_setting            triclinic
loop_
_symmetry_equiv_pos_as_xyz
'x, y, z'
_cell_length_a     54.585975
_cell_length_b     54.602648
_cell_length_c     45.617106
_cell_angle_alpha  89.961603
_cell_angle_beta   90.022177
_cell_angle_gamma 90.005737
loop_
_atom_site_label
_atom_site_type_symbol
_atom_site_fract_x
_atom_site_fract_y
_atom_site_fract_z
_atom_type_partial_charge
C0 C 0.49951 0.11738 0.08447 0.0
O1 O 0.51284 0.12027 0.10821 0.0
O2 O 0.51771 0.17813 0.11228 0.0
Zn3 Zn 0.52049 0.16341 0.07202 0.0
O4 O 0.55457 0.14982 0.06595 0.0
C5 C 0.50769 0.21077 0.04645 0.0
O6 O 0.50007 0.21618 0.07297 0.0
O7 O 0.49801 0.13498 0.06633 0.0
C8 C 0.57032 0.16128 0.05066 0.0
O9 O 0.56473 0.18293 0.04003 0.0
C10 C 0.53507 0.19204 0.12048 0.0
O11 O 0.55376 0.19546 0.10284 0.0
O12 O 0.51511 0.18918 0.04107 0.0
C13 C 0.37405 0.50824 0.07229 0.0
O14 O 0.37048 0.52164 0.09582 0.0
O15 O 0.31174 0.52469 0.09662 0.0
Zn16 Zn 0.32972 0.53077 0.05895 0.0
O17 O 0.34592 0.56396 0.05972 0.0
C18 C 0.28845 0.51526 0.0224 0.0
O19 O 0.28605 0.49731 0.04138 0.0
O20 O 0.35718 0.50718 0.05313 0.0
C21 C 0.33658 0.58224 0.0466 0.0
O22 O 0.31508 0.57989 0.03398 0.0
C23 C 0.29421 0.53907 0.10288 0.0
O24 O 0.28887 0.55696 0.0847 0.0
O25 O 0.30605 0.53029 0.02526 0.0
C26 C 0.99407 0.38488 0.04942 0.0
O27 O 0.9868 0.38305 0.07677 0.0
O28 O 0.99121 0.32074 0.08443 0.0
Zn29 Zn 0.97562 0.33711 0.04964 0.0
O30 O 0.94287 0.3511 0.06031 0.0
C31 C 0.98494 0.29483 0.01303 0.0
O32 O 0.00616 0.29452 0.02662 0.0
O33 O 0.99398 0.3658 0.03348 0.0
C34 C 0.92296 0.33914 0.05909 0.0
O35 O 0.9236 0.31565 0.05288 0.0
C36 C 0.98567 0.32656 0.11055 0.0
O37 O 0.9707 0.34499 0.11512 0.0
O38 O 0.96981 0.31185 0.01862 0.0
C39 C 0.10576 0.97765 0.07699 0.0
O40 O 0.10569 0.96722 0.10296 0.0
O41 O 0.16002 0.96139 0.11763 0.0
Zn42 Zn 0.15006 0.95251 0.07654 0.0
O43 O 0.13365 0.9196 0.07562 0.0
C44 C 0.20035 0.96049 0.05938 0.0
O45 O 0.20099 0.97294 0.084 0.0
O46 O 0.12477 0.97567 0.06109 0.0
C47 C 0.1449 0.89939 0.07277 0.0
O48 O 0.16893 0.89932 0.07127 0.0
C49 C 0.15922 0.94616 0.13866 0.0
O50 O 0.15002 0.92427 0.13412 0.0
O51 O 0.18021 0.95108 0.05103 0.0
C52 C 0.50044 0.38441 0.445 0.0
O53 O 0.50765 0.38402 0.41752 0.0
O54 O 0.51719 0.33241 0.40143 0.0
Zn55 Zn 0.52554 0.33974 0.44342 0.0
O56 O 0.55969 0.35328 0.44711 0.0
C57 C 0.53808 0.2914 0.45352 0.0
O58 O 0.54943 0.29662 0.4289 0.0
O59 O 0.50396 0.36554 0.46076 0.0
C60 C 0.56892 0.35274 0.47267 0.0
O61 O 0.55622 0.34297 0.49416 0.0
C62 C 0.53167 0.33767 0.38057 0.0
O63 O 0.55167 0.3502 0.38622 0.0
O64 O 0.52488 0.3078 0.46543 0.0
C65 C 0.11517 0.50349 0.43486 0.0
O66 O 0.11719 0.51786 0.41188 0.0
O67 O 0.17277 0.51686 0.3975 0.0
Zn68 Zn 0.1625 0.52095 0.43974 0.0
O69 O 0.14971 0.55484 0.44694 0.0
C70 C 0.21193 0.50869 0.45712 0.0
O71 O 0.21331 0.50003 0.43031 0.0
O72 O 0.13415 0.49936 0.45024 0.0
C73 C 0.16214 0.57446 0.4457 0.0
O74 O 0.18533 0.57351 0.43809 0.0
C75 C 0.16746 0.53229 0.37761 0.0
O76 O 0.15379 0.5513 0.38416 0.0
O77 O 0.19156 0.51684 0.46638 0.0
C78 C 0.00561 0.12584 0.42264 0.0
O79 O 0.00244 0.12775 0.39421 0.0
O80 O 0.98356 0.1825 0.3857 0.0
Zn81 Zn 0.97277 0.16688 0.4235 0.0
O82 O 0.9416 0.14811 0.41779 0.0
C83 C 0.97638 0.21382 0.45287 0.0
O84 O 0.99319 0.21817 0.43293 0.0
O85 O 0.99658 0.14215 0.4393 0.0
C86 C 0.9208 0.158 0.41394 0.0
O87 O 0.9193 0.18194 0.41173 0.0
C88 C 0.97909 0.17348 0.3606 0.0
O89 O 0.96746 0.15248 0.3586 0.0
O90 O 0.96592 0.19304 0.45341 0.0
C91 C 0.38641 -0.00029 0.4243 0.0
O92 O 0.3818 0.98951 0.39882 0.0
O93 O 0.32177 0.98355 0.40148 0.0
Zn94 Zn 0.34141 0.97712 0.438 0.0
O95 O 0.35584 0.94336 0.43668 0.0
C96 C 0.30178 0.99223 0.47722 0.0
O97 O 0.29873 0.01073 0.45915 0.0
O98 O 0.36992 -0.0006 0.44392 0.0
C99 C 0.34275 0.92478 0.44251 0.0
O100 O 0.31927 0.9278 0.44773 0.0
C101 C 0.3256 0.97104 0.37845 0.0
O102 O 0.34369 0.95519 0.37812 0.0
O103 O 0.31914 0.97723 0.47276 0.0
C104 C 0.49583 0.88842 0.9409 0.0
O105 O 0.48635 0.89078 0.91456 0.0
O106 O 0.47805 0.83826 0.89256 0.0
Zn107 Zn 0.47005 0.84525 0.93476 0.0
O108 O 0.43752 0.86224 0.93881 0.0
C109 C 0.44911 0.80022 0.94593 0.0
O110 O 0.43608 0.80886 0.92402 0.0
O111 O 0.49377 0.86795 0.9539 0.0
C112 C 0.42905 0.86369 0.96469 0.0
O113 O 0.44164 0.85409 0.9864 0.0
C114 C 0.46182 0.84098 0.87285 0.0
O115 O 0.44073 0.85095 0.87987 0.0
O116 O 0.46688 0.81293 0.95557 0.0
C117 C 0.61133 0.48287 0.94863 0.0
O118 O 0.61073 0.47323 0.92226 0.0
O119 O 0.66663 0.47024 0.90555 0.0
Zn120 Zn 0.65545 0.45829 0.94514 0.0
O121 O 0.63742 0.4262 0.94332 0.0
C122 C 0.70351 0.44336 0.95712 0.0
O123 O 0.70122 0.43758 0.92931 0.0
O124 O 0.63097 0.48107 0.96345 0.0
C125 C 0.64168 0.40623 0.92999 0.0
O126 O 0.66105 0.40424 0.91308 0.0
C127 C 0.65973 0.46199 0.88086 0.0
O128 O 0.64214 0.4456 0.87973 0.0
O129 O 0.68554 0.45343 0.97014 0.0
C130 C -0.0009 0.61434 0.91106 0.0
O131 O 0.00868 0.61337 0.88466 0.0
O132 O 0.0269 0.67216 0.8801 0.0
Zn133 Zn 0.0341 0.65227 0.91626 0.0
O134 O 0.06277 0.62955 0.91086 0.0
C135 C 0.02766 0.68853 0.96225 0.0
O136 O 0.00434 0.68719 0.95525 0.0
O137 O 0.00585 0.63133 0.92826 0.0
C138 C 0.08462 0.63755 0.91105 0.0
O139 O 0.08836 0.66128 0.91279 0.0
C140 C 0.0379 0.6687 0.85592 0.0
O141 O 0.05368 0.65064 0.85371 0.0
O142 O 0.04301 0.67521 0.94876 0.0
C143 C 0.87836 0.00954 0.92839 0.0
O144 O 0.88013 0.01819 0.90159 0.0
O145 O 0.82236 0.02246 0.88386 0.0
Zn146 Zn 0.83498 0.03531 0.92219 0.0
O147 O 0.85411 0.06665 0.91747 0.0
C148 C 0.79353 0.06142 0.93752 0.0
O149 O 0.80136 0.07275 0.91389 0.0
O150 O 0.85833 0.01244 0.94215 0.0
C151 C 0.85836 0.0772 0.94177 0.0
O152 O 0.84975 0.06737 0.96597 0.0
C153 C 0.83026 0.02849 0.85869 0.0
O154 O 0.84933 0.04307 0.85657 0.0
O155 O 0.80541 0.04297 0.94684 0.0
C156 C 0.49296 0.62012 0.57497 0.0
O157 O 0.48504 0.61955 0.60217 0.0
O158 O 0.47067 0.67162 0.61721 0.0
Zn159 Zn 0.46271 0.66116 0.57611 0.0
O160 O 0.43141 0.64165 0.57418 0.0
C161 C 0.43829 0.7032 0.55773 0.0
O162 O 0.42367 0.69454 0.57812 0.0
O163 O 0.48791 0.63868 0.5593 0.0
C164 C 0.42266 0.63872 0.54861 0.0
O165 O 0.43399 0.64878 0.52621 0.0
C166 C 0.45437 0.67155 0.63708 0.0
O167 O 0.43262 0.66252 0.63115 0.0
O168 O 0.458 0.69175 0.55203 0.0
C169 C 0.88609 0.48977 0.58326 0.0
O170 O 0.88676 0.4782 0.60853 0.0
O171 O 0.83195 0.47844 0.62845 0.0
Zn172 Zn 0.84093 0.46843 0.5875 0.0
O173 O 0.85662 0.43508 0.58634 0.0
C174 C 0.79512 0.45012 0.57665 0.0
O175 O 0.80224 0.43919 0.60087 0.0
O176 O 0.86586 0.49072 0.56951 0.0
C177 C 0.86102 0.4275 0.56055 0.0
O178 O 0.85469 0.44133 0.53821 0.0
C179 C 0.83528 0.46448 0.65037 0.0
O180 O 0.84739 0.44391 0.6468 0.0
O181 O 0.80944 0.46559 0.56476 0.0
C182 C 0.01785 0.8889 0.55104 0.0
O183 O 0.02191 0.88983 0.57941 0.0
O184 O 0.03318 0.83622 0.59761 0.0
Zn185 Zn 0.04703 0.84745 0.55894 0.0
O186 O 0.07715 0.86776 0.56525 0.0
C187 C 0.04685 0.79703 0.5401 0.0
O188 O 0.02922 0.79524 0.55957 0.0
O189 O 0.02473 0.87004 0.53698 0.0
C190 C 0.09868 0.85969 0.56941 0.0
O191 O 0.10239 0.83594 0.57067 0.0
C192 C 0.04297 0.84234 0.6218 0.0
O193 O 0.06102 0.85824 0.6218 0.0
O194 O 0.05649 0.81784 0.53522 0.0
C195 C 0.62649 -0.00123 0.54098 0.0
O196 O 0.6256 0.00384 0.5691 0.0
O197 O 0.6849 0.01882 0.58055 0.0
Zn198 Zn 0.66709 0.03073 0.54468 0.0
O199 O 0.64556 0.05937 0.55418 0.0
C200 C 0.70991 0.02846 0.50838 0.0
O201 O 0.71166 0.00648 0.51994 0.0
O202 O 0.64478 0.00611 0.52622 0.0
C203 C 0.65383 0.08098 0.55679 0.0
O204 O 0.6776 0.08461 0.55537 0.0
C205 C 0.67641 0.02115 0.60632 0.0
O206 O 0.65446 0.03049 0.61003 0.0
O207 O 0.69191 0.04197 0.51533 0.0
H208 H 0.5035 0.26022 0.05455 0.0
H209 H 0.52055 0.29232 0.02349 0.0
H210 H 0.54118 0.23827 0.95913 0.0
H211 H 0.5245 0.20595 0.9903 0.0
H212 H 0.57938 0.26469 0.97509 0.0
H213 H 0.49802 0.28269 0.94415 0.0
H214 H 0.45401 0.29191 0.94905 0.0
H215 H 0.47105 0.35784 0.9961 0.0
H216 H 0.51513 0.3488 0.99203 0.0
H217 H 0.63955 0.36291 0.8994 0.0
H218 H 0.61182 0.32831 0.90835 0.0
H219 H 0.57919 0.36751 0.98054 0.0
H220 H 0.60587 0.40225 0.97109 0.0
H221 H 0.54467 0.34567 0.94894 0.0
H222 H 0.62368 0.32313 0.99041 0.0
H223 H 0.668 0.31446 0.98828 0.0
H224 H 0.65518 0.25801 0.9246 0.0
H225 H 0.61079 0.26657 0.92611 0.0
C226 C 0.51105 0.25519 0.03344 0.0
C227 C 0.51289 0.23048 0.02507 0.0
C228 C 0.52072 0.27361 0.01561 0.0
C229 C 0.53214 0.26771 0.98895 0.0
C230 C 0.5325 0.24322 0.97964 0.0
C231 C 0.52291 0.22478 0.99748 0.0
C232 C 0.5465 0.28652 0.97296 0.0
C233 C 0.57163 0.28221 0.96875 0.0
C234 C 0.53652 0.30955 0.96522 0.0
C235 C 0.50994 0.31494 0.96794 0.0
C236 C 0.4924 0.29903 0.9558 0.0
C237 C 0.46742 0.30425 0.9584 0.0
C238 C 0.45973 0.32541 0.97293 0.0
C239 C 0.47701 0.34143 0.98488 0.0
C240 C 0.50201 0.33627 0.98241 0.0
C241 C 0.62632 0.36417 0.91703 0.0
C242 C 0.62495 0.38529 0.93456 0.0
C243 C 0.61053 0.3444 0.92213 0.0
C244 C 0.59343 0.34534 0.94514 0.0
C245 C 0.59196 0.36651 0.96241 0.0
C246 C 0.6074 0.38631 0.95709 0.0
C247 C 0.57757 0.32415 0.95241 0.0
C248 C 0.55222 0.32798 0.95485 0.0
C249 C 0.58734 0.3008 0.95901 0.0
C250 C 0.614 0.29571 0.95807 0.0
C251 C 0.63035 0.30901 0.97577 0.0
C252 C 0.65547 0.3041 0.97471 0.0
C253 C 0.66441 0.28576 0.95623 0.0
C254 C 0.64824 0.27225 0.93884 0.0
C255 C 0.6231 0.27712 0.93979 0.0
H256 H 0.68386 0.28197 0.95545 0.0
H257 H 0.44038 0.32942 0.97489 0.0
H258 H 0.08291 0.58748 0.91321 0.0
H259 H 0.11688 0.55944 0.92313 0.0
H260 H 0.16733 0.62022 0.92241 0.0
H261 H 0.13346 0.64844 0.91308 0.0
H262 H 0.18554 0.57813 0.89391 0.0
H263 H 0.14642 0.60086 0.98593 0.0
H264 H 0.11294 0.604 0.02205 0.0
H265 H 0.10225 0.52616 0.01837 0.0
H266 H 0.13556 0.52259 0.98203 0.0
H267 H 0.28522 0.55452 0.98564 0.0
H268 H 0.25013 0.56706 0.95661 0.0
H269 H 0.21217 0.50066 0.98059 0.0
H270 H 0.24716 0.48831 0.01077 0.0
H271 H 0.18453 0.5375 0.99118 0.0
H272 H 0.22942 0.51369 0.90744 0.0
H273 H 0.26491 0.51006 0.87434 0.0
H274 H 0.26542 0.58801 0.86192 0.0
H275 H 0.23015 0.59218 0.89528 0.0
C276 C 0.10124 0.59488 0.91499 0.0
C277 C 0.10543 0.62025 0.9129 0.0
C278 C 0.12062 0.57881 0.92057 0.0
C279 C 0.14454 0.58782 0.92379 0.0
C280 C 0.14897 0.61293 0.92001 0.0
C281 C 0.12958 0.62904 0.91476 0.0
C282 C 0.16474 0.57151 0.93317 0.0
C283 C 0.18543 0.5692 0.91516 0.0
C284 C 0.16412 0.55918 0.96042 0.0
C285 C 0.14327 0.5615 0.98104 0.0
C286 C 0.13671 0.58446 0.99254 0.0
C287 C 0.11787 0.5863 0.01316 0.0
C288 C 0.10558 0.56527 0.02259 0.0
C289 C 0.11186 0.54241 0.01112 0.0
C290 C 0.13071 0.54047 0.99051 0.0
C291 C 0.26964 0.54228 0.98434 0.0
C292 C 0.2689 0.52051 0.0008 0.0
C293 C 0.24959 0.54941 0.96742 0.0
C294 C 0.2285 0.53473 0.96611 0.0
C295 C 0.22824 0.51229 0.98123 0.0
C296 C 0.24826 0.50524 0.99845 0.0
C297 C 0.20586 0.54448 0.95228 0.0
C298 C 0.18459 0.54569 0.9695 0.0
C299 C 0.20596 0.55562 0.92422 0.0
C300 C 0.22716 0.55325 0.90401 0.0
C301 C 0.23719 0.53009 0.89781 0.0
C302 C 0.25726 0.52793 0.87897 0.0
C303 C 0.26743 0.54879 0.86606 0.0
C304 C 0.25751 0.57186 0.87192 0.0
C305 C 0.23744 0.57413 0.89076 0.0
H306 H 0.28297 0.54708 0.85148 0.0
H307 H 0.09119 0.56669 0.03882 0.0
H308 H 0.85929 0.11006 0.98622 0.0
H309 H 0.88465 0.14653 0.99063 0.0
H310 H 0.91714 0.13138 0.90629 0.0
H311 H 0.89091 0.09512 0.90127 0.0
H312 H 0.93108 0.15155 0.99504 0.0
H313 H 0.93659 0.18562 0.87565 0.0
H314 H 0.9124 0.18439 0.82994 0.0
H315 H 0.84609 0.17745 0.87987 0.0
H316 H 0.86985 0.17893 0.92585 0.0
H317 H 0.01018 0.25249 0.00164 0.0
H318 H 0.99365 0.21486 0.98027 0.0
H319 H 0.92487 0.25135 0.96401 0.0
H320 H 0.94131 0.28903 0.98468 0.0
H321 H 0.93395 0.21861 0.92167 0.0
H322 H 0.93432 0.22126 0.02743 0.0
H323 H 0.95361 0.22553 0.07604 0.0
H324 H -0.00099 0.16297 0.05871 0.0
H325 H 0.9803 0.15864 0.00968 0.0
C326 C 0.87172 0.11455 0.9685 0.0
C327 C 0.87312 0.09978 0.94339 0.0
C328 C 0.8863 0.13537 0.9711 0.0
C329 C 0.90284 0.14175 0.94882 0.0
C330 C 0.90429 0.12703 0.9236 0.0
C331 C 0.88933 0.10632 0.92077 0.0
C332 C 0.91857 0.16371 0.9526 0.0
C333 C 0.93185 0.16608 0.97882 0.0
C334 C 0.91954 0.18279 0.93158 0.0
C335 C 0.90503 0.18207 0.90413 0.0
C336 C 0.91684 0.18388 0.87684 0.0
C337 C 0.90321 0.18313 0.8509 0.0
C338 C 0.87774 0.18074 0.852 0.0
C339 C 0.86583 0.17919 0.87905 0.0
C340 C 0.87937 0.17995 0.90505 0.0
C341 C 0.99174 0.25267 0.99287 0.0
C342 C 0.9769 0.27361 0.99535 0.0
C343 C 0.98232 0.23114 0.98069 0.0
C344 C 0.95789 0.23021 0.97106 0.0
C345 C 0.94375 0.25164 0.97136 0.0
C346 C 0.95315 0.27315 0.98338 0.0
C347 C 0.94597 0.20651 0.96426 0.0
C348 C 0.93354 0.20379 0.93752 0.0
C349 C 0.94504 0.18741 0.98521 0.0
C350 C 0.95616 0.18982 0.01476 0.0
C351 C 0.94855 0.20853 0.0339 0.0
C352 C 0.95936 0.21095 0.06154 0.0
C353 C 0.97756 0.19456 0.07044 0.0
C354 C 0.98495 0.17569 0.05175 0.0
C355 C 0.97427 0.17325 0.02402 0.0
H356 H 0.98591 0.19647 0.09184 0.0
H357 H 0.86722 0.18016 0.83189 0.0
H358 H 0.40149 0.86057 0.01423 0.0
H359 H 0.36191 0.87981 0.02382 0.0
H360 H 0.36335 0.91333 0.93821 0.0
H361 H 0.40302 0.89391 0.92826 0.0
H362 H 0.34878 0.94552 0.98438 0.0
H363 H 0.32848 0.86748 0.9445 0.0
H364 H 0.33097 0.8226 0.93955 0.0
H365 H 0.30551 0.8139 0.02799 0.0
H366 H 0.30328 0.85879 0.03366 0.0
H367 H 0.20571 0.93542 0.00785 0.0
H368 H 0.24396 0.92252 0.98469 0.0
H369 H 0.28515 0.95911 0.05251 0.0
H370 H 0.24707 0.97246 0.07546 0.0
H371 H 0.27705 0.89281 0.0066 0.0
H372 H 0.34073 0.97655 0.02689 0.0
H373 H 0.33795 0.02161 0.02852 0.0
H374 H 0.2749 0.01958 0.97226 0.0
H375 H 0.2775 0.97455 0.96995 0.0
C376 C 0.39343 0.87205 0.99743 0.0
C377 C 0.40528 0.87564 0.97043 0.0
C378 C 0.37082 0.883 0.00294 0.0
C379 C 0.35972 0.89784 0.98165 0.0
C380 C 0.37168 0.90191 0.95488 0.0
C381 C 0.39422 0.8907 0.94919 0.0
C382 C 0.33531 0.90856 0.98735 0.0
C383 C 0.33301 0.93409 0.98912 0.0
C384 C 0.31474 0.89354 0.99287 0.0
C385 C 0.31588 0.86652 0.98957 0.0
C386 C 0.3236 0.85601 0.96298 0.0
C387 C 0.32495 0.83057 0.96003 0.0
C388 C 0.31844 0.81541 0.98345 0.0
C389 C 0.31055 0.82567 0.00987 0.0
C390 C 0.30923 0.85112 0.01296 0.0
C391 C 0.22291 0.94106 0.01758 0.0
C392 C 0.22334 0.95493 0.04354 0.0
C393 C 0.24476 0.93362 0.00435 0.0
C394 C 0.26743 0.93994 0.01676 0.0
C395 C 0.2679 0.95435 0.04223 0.0
C396 C 0.24608 0.96189 0.05541 0.0
C397 C 0.2905 0.92991 0.00445 0.0
C398 C 0.29264 0.9044 0.00156 0.0
C399 C 0.31078 0.94501 0.99746 0.0
C400 C 0.3092 0.97213 0.99846 0.0
C401 C 0.32634 0.98572 0.01476 0.0
C402 C 0.32478 0.01126 0.01582 0.0
C403 C 0.30622 0.02344 0.00057 0.0
C404 C 0.28921 0.01012 0.98415 0.0
C405 C 0.2907 0.98457 0.983 0.0
H406 H 0.30504 0.04322 0.00143 0.0
H407 H 0.31944 0.79573 0.98105 0.0
H408 H 0.56443 0.25308 0.43228 0.0
H409 H 0.57516 0.21529 0.45737 0.0
H410 H 0.53228 0.23738 0.53228 0.0
H411 H 0.52187 0.27585 0.50741 0.0
H412 H 0.57559 0.22184 0.54929 0.0
H413 H 0.51351 0.19015 0.48772 0.0
H414 H 0.49071 0.18365 0.44172 0.0
H415 H 0.5533 0.14808 0.40391 0.0
H416 H 0.57666 0.15475 0.44945 0.0
H417 H 0.60377 0.07957 0.55818 0.0
H418 H 0.57555 0.11365 0.55005 0.0
H419 H 0.63671 0.1636 0.54596 0.0
H420 H 0.66498 0.12974 0.55438 0.0
H421 H 0.5733 0.14009 0.50197 0.0
H422 H 0.62026 0.22001 0.566 0.0
H423 H 0.64136 0.22631 0.6132 0.0
H424 H 0.60427 0.16394 0.64951 0.0
H425 H 0.58266 0.15746 0.60269 0.0
C426 C 0.55704 0.24988 0.45398 0.0
C427 C 0.54238 0.26753 0.46792 0.0
C428 C 0.56305 0.22812 0.46823 0.0
C429 C 0.55428 0.22334 0.49658 0.0
C430 C 0.53917 0.24067 0.51036 0.0
C431 C 0.53319 0.26258 0.4961 0.0
C432 C 0.56256 0.20104 0.51231 0.0
C433 C 0.57484 0.2039 0.53914 0.0
C434 C 0.56102 0.17751 0.49942 0.0
C435 C 0.5469 0.17307 0.47204 0.0
C436 C 0.52248 0.18106 0.46955 0.0
C437 C 0.50945 0.17734 0.44354 0.0
C438 C 0.52055 0.16548 0.4199 0.0
C439 C 0.54471 0.15726 0.42225 0.0
C440 C 0.55785 0.16098 0.44818 0.0
C441 C 0.6112 0.09788 0.55611 0.0
C442 C 0.63666 0.10193 0.55663 0.0
C443 C 0.59502 0.11733 0.55144 0.0
C444 C 0.60399 0.14117 0.54746 0.0
C445 C 0.62932 0.14541 0.54941 0.0
C446 C 0.6455 0.126 0.5541 0.0
C447 C 0.58736 0.16119 0.53816 0.0
C448 C 0.57355 0.1579 0.5125 0.0
C449 C 0.58718 0.18422 0.55235 0.0
C450 C 0.59992 0.18818 0.58073 0.0
C451 C 0.61647 0.20773 0.5841 0.0
C452 C 0.62856 0.21131 0.61078 0.0
C453 C 0.62419 0.19551 0.63432 0.0
C454 C 0.60769 0.17612 0.63123 0.0
C455 C 0.59554 0.17247 0.60461 0.0
H456 H 0.63358 0.19831 0.65495 0.0
H457 H 0.51045 0.16267 0.39977 0.0
H458 H 0.402 0.60491 0.58547 0.0
H459 H 0.36616 0.57899 0.57564 0.0
H460 H 0.35747 0.61333 0.4911 0.0
H461 H 0.39329 0.63895 0.50053 0.0
H462 H 0.31349 0.60885 0.52305 0.0
H463 H 0.383 0.56104 0.49236 0.0
H464 H 0.42325 0.5418 0.50019 0.0
H465 H 0.39297 0.49662 0.5682 0.0
H466 H 0.35256 0.51612 0.56127 0.0
H467 H 0.25933 0.50287 0.43905 0.0
H468 H 0.29577 0.52052 0.46176 0.0
H469 H 0.25244 0.54415 0.53555 0.0
H470 H 0.21577 0.52697 0.51276 0.0
H471 H 0.32224 0.51874 0.51275 0.0
H472 H 0.26756 0.60265 0.55016 0.0
H473 H 0.22851 0.62351 0.53948 0.0
H474 H 0.23112 0.59769 0.45063 0.0
H475 H 0.27028 0.57675 0.46081 0.0
C476 C 0.39233 0.60701 0.56489 0.0
C477 C 0.40045 0.62388 0.54372 0.0
C478 C 0.37196 0.59217 0.55929 0.0
C479 C 0.35929 0.59426 0.53263 0.0
C480 C 0.36702 0.61151 0.51182 0.0
C481 C 0.38753 0.62604 0.5172 0.0
C482 C 0.33821 0.57822 0.52589 0.0
C483 C 0.31533 0.58913 0.52111 0.0
C484 C 0.34079 0.55256 0.52297 0.0
C485 C 0.36485 0.5403 0.5266 0.0
C486 C 0.38496 0.54715 0.50917 0.0
C487 C 0.40781 0.53619 0.51343 0.0
C488 C 0.41072 0.51808 0.53479 0.0
C489 C 0.39071 0.51074 0.55175 0.0
C490 C 0.36782 0.52176 0.54769 0.0
C491 C 0.25761 0.51128 0.46044 0.0
C492 C 0.23456 0.51398 0.47381 0.0
C493 C 0.27851 0.5213 0.47345 0.0
C494 C 0.27668 0.53408 0.50002 0.0
C495 C 0.25414 0.5347 0.51477 0.0
C496 C 0.23321 0.52485 0.50171 0.0
C497 C 0.29744 0.54938 0.51012 0.0
C498 C 0.32028 0.53839 0.51535 0.0
C499 C 0.29498 0.5751 0.51295 0.0
C500 C 0.27169 0.58797 0.50635 0.0
C501 C 0.25982 0.6015 0.52833 0.0
C502 C 0.23764 0.61331 0.52236 0.0
C503 C 0.22725 0.61188 0.4944 0.0
C504 C 0.2391 0.59869 0.47232 0.0
C505 C 0.26127 0.58682 0.47818 0.0
H506 H 0.21007 0.62102 0.48984 0.0
H507 H 0.42847 0.5097 0.53817 0.0
H508 H 0.86676 0.40406 0.50845 0.0
H509 H 0.88713 0.36512 0.4993 0.0
H510 H 0.90354 0.35811 0.59142 0.0
H511 H 0.88312 0.3974 0.60086 0.0
H512 H 0.94327 0.34701 0.55574 0.0
H513 H 0.85975 0.3237 0.56507 0.0
H514 H 0.81527 0.3262 0.55616 0.0
H515 H 0.82683 0.31197 0.46464 0.0
H516 H 0.87143 0.30975 0.47292 0.0
H517 H 0.94237 0.21071 0.4967 0.0
H518 H 0.92471 0.24431 0.52499 0.0
H519 H 0.97237 0.29545 0.48085 0.0
H520 H 0.99045 0.26191 0.45287 0.0
H521 H 0.8992 0.28059 0.50355 0.0
H522 H 0.98199 0.34594 0.52379 0.0
H523 H 0.0261 0.34319 0.53492 0.0
H524 H 0.0156 0.27163 0.5719 0.0
H525 H 0.97136 0.27407 0.56144 0.0
C526 C 0.87461 0.39426 0.52684 0.0
C527 C 0.87321 0.40373 0.55542 0.0
C528 C 0.88619 0.37196 0.52157 0.0
C529 C 0.89654 0.35862 0.54474 0.0
C530 C 0.89552 0.36811 0.57329 0.0
C531 C 0.88379 0.39046 0.57864 0.0
C532 C 0.90857 0.33488 0.53867 0.0
C533 C 0.93368 0.3324 0.54443 0.0
C534 C 0.89583 0.31561 0.52469 0.0
C535 C 0.86897 0.31669 0.51961 0.0
C536 C 0.85283 0.32126 0.54301 0.0
C537 C 0.82759 0.32261 0.53807 0.0
C538 C 0.81823 0.31928 0.50984 0.0
C539 C 0.8341 0.31454 0.4865 0.0
C540 C 0.85936 0.3132 0.49131 0.0
C541 C 0.9494 0.22905 0.49335 0.0
C542 C 0.96772 0.23366 0.47238 0.0
C543 C 0.93926 0.24824 0.50953 0.0
C544 C 0.94726 0.27239 0.50515 0.0
C545 C 0.96617 0.27693 0.48498 0.0
C546 C 0.97639 0.25773 0.46886 0.0
C547 C 0.93426 0.29306 0.5194 0.0
C548 C 0.90886 0.295 0.51514 0.0
C549 C 0.94676 0.3117 0.53497 0.0
C550 C 0.97335 0.3101 0.54155 0.0
C551 C 0.98906 0.32964 0.5344 0.0
C552 C 0.0141 0.32814 0.54058 0.0
C553 C 0.02366 0.30721 0.55401 0.0
C554 C 0.00819 0.28778 0.56138 0.0
C555 C 0.98313 0.2892 0.55529 0.0
H556 H 0.04306 0.30608 0.55876 0.0
H557 H 0.79868 0.32034 0.50607 0.0
H558 H 0.14772 0.84931 0.57334 0.0
H559 H 0.1818 0.87826 0.56894 0.0
H560 H 0.13068 0.9382 0.56307 0.0
H561 H 0.09649 0.90953 0.56731 0.0
H562 H 0.16333 0.93617 0.51674 0.0
H563 H 0.16507 0.93483 0.62136 0.0
H564 H 0.16613 0.91577 0.67034 0.0
H565 H 0.23556 0.88279 0.65041 0.0
H566 H 0.23475 0.90136 0.60111 0.0
H567 H 0.25971 0.01749 0.49038 0.0
H568 H 0.2246 0.00198 0.51815 0.0
H569 H 0.26518 0.93651 0.53942 0.0
H570 H 0.30042 0.95215 0.51282 0.0
H571 H 0.23485 0.9469 0.58266 0.0
H572 H 0.23066 0.94221 0.47694 0.0
H573 H 0.23064 0.95982 0.42719 0.0
H574 H 0.16557 0.00065 0.44733 0.0
H575 H 0.1657 0.98393 0.49762 0.0
C576 C 0.14372 0.86868 0.57155 0.0
C577 C 0.11941 0.87709 0.5703 0.0
C578 C 0.1632 0.8852 0.56917 0.0
C579 C 0.15864 0.91033 0.5656 0.0
C580 C 0.13445 0.91885 0.56563 0.0
C581 C 0.115 0.90242 0.56806 0.0
C582 C 0.1789 0.92737 0.55882 0.0
C583 C 0.17873 0.93898 0.53141 0.0
C584 C 0.19915 0.93051 0.57776 0.0
C585 C 0.19976 0.91936 0.60743 0.0
C586 C 0.18048 0.92335 0.62731 0.0
C587 C 0.18105 0.91266 0.65516 0.0
C588 C 0.20088 0.89804 0.66346 0.0
C589 C 0.2202 0.89411 0.64394 0.0
C590 C 0.21971 0.90475 0.61606 0.0
C591 C 0.26137 0.00011 0.50166 0.0
C592 C 0.28264 0.9858 0.49882 0.0
C593 C 0.24128 0.99125 0.51748 0.0
C594 C 0.24207 0.96779 0.53017 0.0
C595 C 0.26408 0.95458 0.52965 0.0
C596 C 0.2842 0.96352 0.51421 0.0
C597 C 0.21943 0.95545 0.54037 0.0
C598 C 0.21919 0.94456 0.56828 0.0
C599 C 0.19888 0.9526 0.52168 0.0
C600 C 0.19845 0.96217 0.49122 0.0
C601 C 0.21647 0.95512 0.47086 0.0
C602 C 0.21646 0.96496 0.44257 0.0
C603 C 0.19817 0.98142 0.43413 0.0
C604 C 0.1798 0.988 0.45395 0.0
C605 C 0.17989 0.97842 0.48239 0.0
H606 H 0.19821 0.98905 0.41223 0.0
H607 H 0.20128 0.88978 0.68503 0.0
H608 H 0.40763 0.77406 0.93601 0.0
H609 H 0.39381 0.73726 0.96125 0.0
H610 H 0.4599 0.73665 0.01303 0.0
H611 H 0.47389 0.77406 0.98805 0.0
H612 H 0.44338 0.68903 0.98612 0.0
H613 H 0.41592 0.75462 0.04693 0.0
H614 H 0.3966 0.79447 0.05731 0.0
H615 H 0.32795 0.76766 0.02446 0.0
H616 H 0.34703 0.72792 0.01293 0.0
H617 H 0.38353 0.59193 0.06492 0.0
H618 H 0.40756 0.62901 0.05552 0.0
H619 H 0.34588 0.66089 0.01021 0.0
H620 H 0.32173 0.6243 0.01991 0.0
H621 H 0.36662 0.69379 0.04406 0.0
H622 H 0.39436 0.63292 0.97445 0.0
H623 H 0.41306 0.59425 0.9578 0.0
H624 H 0.47965 0.61234 0.00299 0.0
H625 H 0.46116 0.65093 0.0204 0.0
C626 C 0.41935 0.76614 0.95267 0.0
C627 C 0.44179 0.77707 0.9602 0.0
C628 C 0.41138 0.74512 0.96709 0.0
C629 C 0.42575 0.73449 0.98913 0.0
C630 C 0.44857 0.74476 0.99611 0.0
C631 C 0.45646 0.76609 0.9819 0.0
C632 C 0.41629 0.71288 0.00495 0.0
C633 C 0.42696 0.69001 -0.00052 0.0
C634 C 0.39463 0.71437 0.02181 0.0
C635 C 0.383 0.73829 0.02884 0.0
C636 C 0.39678 0.75729 0.04158 0.0
C637 C 0.38586 0.77989 0.04765 0.0
C638 C 0.36109 0.78365 0.04141 0.0
C639 C 0.34717 0.76479 0.02913 0.0
C640 C 0.35804 0.74221 0.0228 0.0
C641 C 0.37502 0.60697 0.05324 0.0
C642 C 0.35071 0.60516 0.04309 0.0
C643 C 0.38883 0.62808 0.04775 0.0
C644 C 0.37859 0.64763 0.03193 0.0
C645 C 0.35416 0.64605 0.02252 0.0
C646 C 0.34037 0.62507 0.02801 0.0
C647 C 0.39315 0.66967 0.02435 0.0
C648 C 0.38342 0.69272 0.03142 0.0
C649 C 0.41548 0.66828 0.00859 0.0
C650 C 0.42626 0.64466 -0.00094 0.0
C651 C 0.41287 0.62851 0.98116 0.0
C652 C 0.42347 0.60665 0.97149 0.0
C653 C 0.44755 0.60088 0.97926 0.0
C654 C 0.46103 0.61689 0.99689 0.0
C655 C 0.45048 0.63871 0.00675 0.0
H656 H 0.45573 0.58396 0.97175 0.0
H657 H 0.35267 0.80114 0.04619 0.0
H658 H 0.71503 0.45213 0.01484 0.0
H659 H 0.75284 0.44062 0.04051 0.0
H660 H 0.78105 0.40908 0.96068 0.0
H661 H 0.74371 0.42053 0.93507 0.0
H662 H 0.77175 0.39604 0.05019 0.0
H663 H 0.84269 0.4155 0.95735 0.0
H664 H 0.84954 0.44525 0.91755 0.0
H665 H 0.80507 0.4981 0.96245 0.0
H666 H 0.79839 0.46888 0.00289 0.0
H667 H 0.87696 0.3207 0.05016 0.0
H668 H 0.83929 0.34398 0.04271 0.0
H669 H 0.87795 0.41112 0.06134 0.0
H670 H 0.91579 0.38805 0.0684 0.0
H671 H 0.85456 0.41451 0.01124 0.0
H672 H 0.8333 0.39034 0.10778 0.0
H673 H 0.82758 0.36204 0.14935 0.0
H674 H 0.77369 0.32199 0.10035 0.0
H675 H 0.77932 0.34983 0.0583 0.0
C676 C 0.7294 0.44292 0.00275 0.0
C677 C 0.72643 0.43736 0.97286 0.0
C678 C 0.75094 0.43634 0.01744 0.0
C679 C 0.76988 0.4243 0.00241 0.0
C680 C 0.76692 0.41881 0.97259 0.0
C681 C 0.74547 0.42532 0.95797 0.0
C682 C 0.79233 0.41621 0.01791 0.0
C683 C 0.78988 0.40025 0.04187 0.0
C684 C 0.81601 0.4221 0.00737 0.0
C685 C 0.81991 0.43988 0.98312 0.0
C686 C 0.83447 0.43351 0.95885 0.0
C687 C 0.83833 0.45029 0.93616 0.0
C688 C 0.82773 0.47354 0.93746 0.0
C689 C 0.81324 0.48006 0.96146 0.0
C690 C 0.8094 0.46338 0.98427 0.0
C691 C 0.87735 0.34036 0.05329 0.0
C692 C 0.89941 0.35252 0.05962 0.0
C693 C 0.85576 0.35365 0.04915 0.0
C694 C 0.8558 0.3793 0.05155 0.0
C695 C 0.87753 0.39135 0.05935 0.0
C696 C 0.89913 0.3781 0.06344 0.0
C697 C 0.83391 0.39358 0.04274 0.0
C698 C 0.83646 0.41065 0.01994 0.0
C699 C 0.81041 0.38888 0.05452 0.0
C700 C 0.80683 0.37213 0.07981 0.0
C701 C 0.82034 0.3754 0.10579 0.0
C702 C 0.8171 0.35945 0.12945 0.0
C703 C 0.80031 0.34021 0.12748 0.0
C704 C 0.78668 0.33691 0.10185 0.0
C705 C 0.78987 0.3528 0.07811 0.0
H706 H 0.79783 0.32788 0.14582 0.0
H707 H 0.83076 0.48652 0.91989 0.0
H708 H 0.00133 0.72502 0.98884 0.0
H709 H 0.0176 0.75918 0.01761 0.0
H710 H 0.09022 0.72847 0.01146 0.0
H711 H 0.07416 0.69422 0.98305 0.0
H712 H 0.08215 0.75056 0.06507 0.0
H713 H 0.0712 0.76771 0.96223 0.0
H714 H 0.0467 0.77009 0.91701 0.0
H715 H 0.00047 0.82457 0.95631 0.0
H716 H 0.02411 0.82172 0.00233 0.0
H717 H 0.16261 0.85292 0.06511 0.0
H718 H 0.13901 0.81573 0.05541 0.0
H719 H 0.07177 0.85675 0.06289 0.0
H720 H 0.09516 0.89401 0.07238 0.0
H721 H 0.07298 0.83007 0.01343 0.0
H722 H 0.08719 0.81585 0.11519 0.0
H723 H 0.1116 0.81228 0.16047 0.0
H724 H 0.15279 0.75324 0.12266 0.0
H725 H 0.12886 0.75668 0.07697 0.0
C726 C 0.02067 0.72528 0.99411 0.0
C727 C 0.03653 0.70716 0.98322 0.0
C728 C 0.02993 0.74479 0.01057 0.0
C729 C 0.05516 0.74648 0.01628 0.0
C730 C 0.0707 0.7275 0.00726 0.0
C731 C 0.0615 0.70804 0.99081 0.0
C732 C 0.06589 0.76925 0.02833 0.0
C733 C 0.08022 0.76797 0.05382 0.0
C734 C 0.06302 0.79198 0.01378 0.0
C735 C 0.04921 0.79424 0.98587 0.0
C736 C 0.05567 0.78004 0.96135 0.0
C737 C 0.04192 0.78145 0.93557 0.0
C738 C 0.02204 0.7975 0.93375 0.0
C739 C 0.01584 0.81212 0.95777 0.0
C740 C 0.02935 0.81053 0.98376 0.0
C741 C 0.1428 0.85398 0.06503 0.0
C742 C 0.13078 0.87644 0.06936 0.0
C743 C 0.12933 0.83268 0.05963 0.0
C744 C 0.10363 0.83347 0.05861 0.0
C745 C 0.09158 0.85575 0.06361 0.0
C746 C 0.10501 0.87702 0.06906 0.0
C747 C 0.08943 0.81145 0.05017 0.0
C748 C 0.07457 0.81283 0.02512 0.0
C749 C 0.09193 0.78885 0.06507 0.0
C750 C 0.10634 0.78665 0.09255 0.0
C751 C 0.10158 0.80223 0.11644 0.0
C752 C 0.11531 0.80021 0.1422 0.0
C753 C 0.13377 0.78258 0.14442 0.0
C754 C 0.1385 0.7669 0.1209 0.0
C755 C 0.12483 0.76885 0.09508 0.0
H756 H 0.14438 0.78104 0.16439 0.0
H757 H 0.01147 0.79863 0.91371 0.0
H758 H 0.60671 0.18037 0.01677 0.0
H759 H 0.64438 0.16037 0.00101 0.0
H760 H 0.6252 0.09601 0.05084 0.0
H761 H 0.58741 0.1161 0.06716 0.0
H762 H 0.67488 0.10897 0.05588 0.0
H763 H 0.6165 0.09381 0.97903 0.0
H764 H 0.58451 0.10547 0.94337 0.0
H765 H 0.6348 0.1545 0.90103 0.0
H766 H 0.66693 0.14341 0.93672 0.0
H767 H 0.76698 0.03836 0.98059 0.0
H768 H 0.72886 0.05268 0.00327 0.0
H769 H 0.73224 0.11878 0.95149 0.0
H770 H 0.76971 0.10439 0.92833 0.0
H771 H 0.68831 0.10011 0.94883 0.0
H772 H 0.74621 0.11732 0.02605 0.0
H773 H 0.77831 0.10727 0.06216 0.0
H774 H 0.73003 0.05587 0.1039 0.0
H775 H 0.69773 0.06539 0.06777 0.0
C776 C 0.61052 0.16203 0.02461 0.0
C777 C 0.59395 0.14973 0.04302 0.0
C778 C 0.63203 0.1506 0.01548 0.0
C779 C 0.63736 0.1266 0.02442 0.0
C780 C 0.62134 0.11452 0.04364 0.0
C781 C 0.59976 0.12599 0.05284 0.0
C782 C 0.6594 0.11411 0.01289 0.0
C783 C 0.67772 0.1066 0.03251 0.0
C784 C 0.66316 0.11143 0.9824 0.0
C785 C 0.64399 0.11795 0.96071 0.0
C786 C 0.62062 0.10723 0.96226 0.0
C787 C 0.6025 0.1137 0.94203 0.0
C788 C 0.6076 0.13075 0.92001 0.0
C789 C 0.63086 0.14131 0.91812 0.0
C790 C 0.64904 0.13492 0.93832 0.0
C791 C 0.75962 0.05599 0.9742 0.0
C792 C 0.77125 0.07019 0.95257 0.0
C793 C 0.73791 0.06419 0.98725 0.0
C794 C 0.72775 0.08686 0.97916 0.0
C795 C 0.73965 0.10117 0.95796 0.0
C796 C 0.76111 0.09292 0.94476 0.0
C797 C 0.70426 0.09553 0.99173 0.0
C798 C 0.68552 0.10222 0.97224 0.0
C799 C 0.70027 0.09759 0.02231 0.0
C800 C 0.71967 0.09185 0.04401 0.0
C801 C 0.74251 0.10371 0.04278 0.0
C802 C 0.76073 0.09815 0.06327 0.0
C803 C 0.75624 0.08088 0.08525 0.0
C804 C 0.7335 0.0692 0.08682 0.0
C805 C 0.71523 0.07469 0.06636 0.0
H806 H 0.77037 0.0766 0.10111 0.0
H807 H 0.59354 0.13573 0.90437 0.0
H808 H 0.46694 0.73162 0.52178 0.0
H809 H 0.45449 0.76872 0.49513 0.0
H810 H 0.38134 0.76158 0.52981 0.0
H811 H 0.39356 0.72489 0.55654 0.0
H812 H 0.3828 0.77055 0.46915 0.0
H813 H 0.41791 0.80171 0.55978 0.0
H814 H 0.45073 0.80746 0.59628 0.0
H815 H 0.4972 0.83866 0.53015 0.0
H816 H 0.46463 0.83302 0.49319 0.0
H817 H 0.3215 0.88297 0.46312 0.0
H818 H 0.34158 0.84435 0.47479 0.0
H819 H 0.41025 0.87291 0.4427 0.0
H820 H 0.39036 0.912 0.43167 0.0
H821 H 0.4167 0.85225 0.49401 0.0
H822 H 0.37887 0.82748 0.40511 0.0
H823 H 0.34562 0.82275 0.36897 0.0
H824 H 0.30464 0.77942 0.43035 0.0
H825 H 0.33749 0.78417 0.46703 0.0
C826 C 0.44821 0.73798 0.52365 0.0
C827 C 0.43123 0.7254 0.54129 0.0
C828 C 0.44117 0.75915 0.50849 0.0
C829 C 0.41702 0.76781 0.51057 0.0
C830 C 0.40004 0.7551 0.52788 0.0
C831 C 0.4071 0.73421 0.54324 0.0
C832 C 0.40915 0.79027 0.49512 0.0
C833 C 0.39014 0.78846 0.47455 0.0
C834 C 0.41935 0.81345 0.50153 0.0
C835 C 0.439 0.8166 0.52365 0.0
C836 C 0.43523 0.80955 0.55296 0.0
C837 C 0.45376 0.81284 0.57374 0.0
C838 C 0.47611 0.82325 0.56551 0.0
C839 C 0.47992 0.83051 0.53648 0.0
C840 C 0.46142 0.82731 0.51562 0.0
C841 C 0.3408 0.88096 0.45814 0.0
C842 C 0.35434 0.90056 0.44651 0.0
C843 C 0.35225 0.85879 0.46469 0.0
C844 C 0.37738 0.85561 0.45929 0.0
C845 C 0.39084 0.87494 0.44698 0.0
C846 C 0.37942 0.89723 0.44063 0.0
C847 C 0.38975 0.83269 0.46854 0.0
C848 C 0.40965 0.83436 0.48797 0.0
C849 C 0.38042 0.80935 0.46095 0.0
C850 C 0.36063 0.8063 0.43889 0.0
C851 C 0.36271 0.81707 0.41098 0.0
C852 C 0.34393 0.81437 0.39038 0.0
C853 C 0.32302 0.80082 0.39737 0.0
C854 C 0.32086 0.7899 0.42496 0.0
C855 C 0.33957 0.79256 0.44565 0.0
H856 H 0.3085 0.79876 0.3814 0.0
H857 H 0.49043 0.82579 0.58164 0.0
H858 H 0.77416 0.46808 0.52613 0.0
H859 H 0.73596 0.45415 0.50298 0.0
H860 H 0.72495 0.40263 0.57346 0.0
H861 H 0.7627 0.41628 0.59658 0.0
H862 H 0.72079 0.3814 0.51918 0.0
H863 H 0.69149 0.4526 0.57079 0.0
H864 H 0.68981 0.49636 0.58395 0.0
H865 H 0.67344 0.51497 0.4946 0.0
H866 H 0.67534 0.47131 0.48081 0.0
H867 H 0.59746 0.34557 0.52073 0.0
H868 H 0.63698 0.36433 0.53176 0.0
H869 H 0.63471 0.4036 0.44975 0.0
H870 H 0.59504 0.38461 0.43829 0.0
H871 H 0.64733 0.43276 0.50111 0.0
H872 H 0.672 0.35959 0.45173 0.0
H873 H 0.6718 0.31533 0.44109 0.0
H874 H 0.69591 0.30004 0.52882 0.0
H875 H 0.69589 0.34421 0.54014 0.0
C876 C 0.76347 0.45391 0.53674 0.0
C877 C 0.77152 0.44319 0.56309 0.0
C878 C 0.74168 0.44602 0.52354 0.0
C879 C 0.72775 0.4273 0.53649 0.0
C880 C 0.73555 0.41698 0.56302 0.0
C881 C 0.75713 0.42488 0.57624 0.0
C882 C 0.7054 0.41764 0.52224 0.0
C883 C 0.70471 0.39262 0.51528 0.0
C884 C 0.6847 0.43245 0.51649 0.0
C885 C 0.68392 0.45872 0.52467 0.0
C886 C 0.68783 0.46604 0.55387 0.0
C887 C 0.68676 0.49082 0.56147 0.0
C888 C 0.68163 0.50844 0.5401 0.0
C889 C 0.67749 0.50131 0.51111 0.0
C890 C 0.67855 0.47655 0.50339 0.0
C891 C 0.60537 0.35812 0.50495 0.0
C892 C 0.59319 0.36358 0.47862 0.0
C893 C 0.62796 0.36878 0.51127 0.0
C894 C 0.63873 0.38524 0.4915 0.0
C895 C 0.62663 0.39091 0.46523 0.0
C896 C 0.60409 0.37996 0.45868 0.0
C897 C 0.66261 0.39645 0.49876 0.0
C898 C 0.66361 0.42169 0.50442 0.0
C899 C 0.68359 0.38183 0.50359 0.0
C900 C 0.68378 0.35523 0.49683 0.0
C901 C 0.67707 0.34679 0.46883 0.0
C902 C 0.67703 0.32171 0.46266 0.0
C903 C 0.6838 0.30488 0.48428 0.0
C904 C 0.69067 0.3131 0.5121 0.0
C905 C 0.69072 0.33816 0.51839 0.0
H906 H 0.68375 0.28547 0.47947 0.0
H907 H 0.68077 0.52761 0.54604 0.0
H908 H 0.17961 0.62085 0.43631 0.0
H909 H 0.15954 0.65955 0.44874 0.0
H910 H 0.09856 0.61972 0.48564 0.0
H911 H 0.11793 0.58118 0.47212 0.0
H912 H 0.08162 0.65587 0.45624 0.0
H913 H 0.14445 0.64771 0.52919 0.0
H914 H 0.18646 0.64177 0.5477 0.0
H915 H 0.21003 0.70651 0.50224 0.0
H916 H 0.1681 0.71277 0.48335 0.0
H917 H 0.03185 0.74963 0.54749 0.0
H918 H 0.05085 0.71267 0.52764 0.0
H919 H 0.104 0.75691 0.48188 0.0
H920 H 0.08521 0.79399 0.50172 0.0
H921 H 0.12517 0.7198 0.51323 0.0
H922 H 0.05861 0.72887 0.44486 0.0
H923 H 0.01547 0.73356 0.42986 0.0
H924 H 0.99762 0.66506 0.47093 0.0
H925 H 0.04059 0.66014 0.48659 0.0
C926 C 0.1619 0.62039 0.44701 0.0
C927 C 0.15037 0.59798 0.45325 0.0
C928 C 0.1505 0.64251 0.45426 0.0
C929 C 0.12765 0.64258 0.4685 0.0
C930 C 0.11612 0.62018 0.4746 0.0
C931 C 0.12729 0.59813 0.46694 0.0
C932 C 0.11561 0.6659 0.4771 0.0
C933 C 0.09109 0.66973 0.46897 0.0
C934 C 0.12803 0.68421 0.49328 0.0
C935 C 0.15322 0.68056 0.50463 0.0
C936 C 0.15863 0.66059 0.523 0.0
C937 C 0.18242 0.65719 0.5336 0.0
C938 C 0.20094 0.6737 0.52606 0.0
C939 C 0.19567 0.69372 0.50802 0.0
C940 C 0.17189 0.69723 0.49742 0.0
C941 C 0.0474 0.75154 0.53291 0.0
C942 C 0.057 0.77477 0.52616 0.0
C943 C 0.0582 0.73039 0.52154 0.0
C944 C 0.07874 0.73207 0.50314 0.0
C945 C 0.08814 0.75523 0.49601 0.0
C946 C 0.07732 0.7764 0.50731 0.0
C947 C 0.09118 0.70964 0.49256 0.0
C948 C 0.11578 0.70599 0.50034 0.0
C949 C 0.07866 0.69131 0.47656 0.0
C950 C 0.0528 0.69428 0.46717 0.0
C951 C 0.04545 0.71492 0.45094 0.0
C952 C 0.02103 0.7176 0.44227 0.0
C953 C 0.0038 0.69966 0.44951 0.0
C954 C 0.01097 0.67897 0.46538 0.0
C955 C 0.03536 0.67622 0.47414 0.0
H956 H 0.98491 0.70176 0.44276 0.0
H957 H 0.21936 0.67103 0.53425 0.0
H958 H 0.71112 0.07243 0.47976 0.0
H959 H 0.74625 0.09132 0.4555 0.0
H960 H 0.78924 0.02647 0.47197 0.0
H961 H 0.75421 0.00742 0.49638 0.0
H962 H 0.81038 0.06822 0.49292 0.0
H963 H 0.7739 0.04133 0.40297 0.0
H964 H 0.74067 0.03675 0.36678 0.0
H965 H 0.73658 0.11487 0.35717 0.0
H966 H 0.76957 0.11995 0.39364 0.0
H967 H 0.91797 0.10881 0.42381 0.0
H968 H 0.88123 0.08453 0.43299 0.0
H969 H 0.83623 0.14821 0.41784 0.0
H970 H 0.873 0.17275 0.40857 0.0
H971 H 0.81608 0.10591 0.39418 0.0
H972 H 0.85118 0.13342 0.4839 0.0
H973 H 0.88186 0.1394 0.52283 0.0
H974 H 0.88557 0.06169 0.53652 0.0
H975 H 0.85581 0.05513 0.49669 0.0
C976 C 0.72791 0.062 0.47779 0.0
C977 C 0.72997 0.03851 0.49026 0.0
C978 C 0.74792 0.07278 0.46375 0.0
C979 C 0.7703 0.06025 0.46189 0.0
C980 C 0.77208 0.0364 0.47317 0.0
C981 C 0.75205 0.02555 0.48709 0.0
C982 C 0.7925 0.07305 0.4513 0.0
C983 C 0.81192 0.07597 0.47108 0.0
C984 C 0.79387 0.08402 0.42326 0.0
C985 C 0.77408 0.08102 0.40124 0.0
C986 C 0.76578 0.05755 0.39333 0.0
C987 C 0.74701 0.05486 0.37273 0.0
C988 C 0.73648 0.07551 0.35973 0.0
C989 C 0.74474 0.09889 0.36727 0.0
C990 C 0.7635 0.10168 0.38788 0.0
C991 C 0.90026 0.11763 0.42204 0.0
C992 C 0.89841 0.14279 0.41579 0.0
C993 C 0.8793 0.10371 0.42735 0.0
C994 C 0.85608 0.11468 0.4265 0.0
C995 C 0.85402 0.13945 0.41867 0.0
C996 C 0.87504 0.15345 0.41348 0.0
C997 C 0.83417 0.10068 0.43569 0.0
C998 C 0.81473 0.09778 0.41583 0.0
C999 C 0.83261 0.08986 0.46386 0.0
C1000 C 0.85153 0.09375 0.48686 0.0
C1001 C 0.85893 0.11755 0.49471 0.0
C1002 C 0.87615 0.12106 0.51701 0.0
C1003 C 0.88577 0.10094 0.53204 0.0
C1004 C 0.87822 0.07727 0.52476 0.0
C1005 C 0.8613 0.07363 0.50218 0.0
H1006 H 0.899 0.10369 0.5494 0.0
H1007 H 0.72195 0.07338 0.34379 0.0
H1008 H 0.50423 0.89213 -9e-05 0.0
H1009 H 0.50555 0.92988 0.02864 0.0
H1010 H 0.50251 0.97247 0.94905 0.0
H1011 H 0.5014 0.9349 0.92013 0.0
H1012 H 0.53215 0.99361 0.98931 0.0
H1013 H 0.45074 0.96026 0.98504 0.0
H1014 H 0.41884 0.92865 0.99094 0.0
H1015 H 0.43373 0.92509 0.08328 0.0
H1016 H 0.4659 0.95655 0.07787 0.0
H1017 H 0.47992 0.1037 0.03189 0.0
H1018 H 0.47797 0.0622 0.01233 0.0
H1019 H 0.50047 0.03315 0.09597 0.0
H1020 H 0.5028 0.07474 0.11585 0.0
H1021 H 0.46204 0.0042 0.05761 0.0
H1022 H 0.54471 0.03892 0.05937 0.0
H1023 H 0.57259 0.07385 0.05147 0.0
H1024 H 0.55169 0.07667 0.96076 0.0
H1025 H 0.52356 0.04184 0.96823 0.0
C1026 C 0.50448 0.90952 0.98846 0.0
C1027 C 0.50238 0.91055 0.95775 0.0
C1028 C 0.50506 0.93105 0.00494 0.0
C1029 C 0.50356 0.9539 0.99095 0.0
C1030 C 0.50349 0.95499 0.96024 0.0
C1031 C 0.50286 0.93349 0.94376 0.0
C1032 C 0.50019 0.97658 0.00817 0.0
C1033 C 0.51684 0.99586 0.00423 0.0
C1034 C 0.48018 0.97953 0.02769 0.0
C1035 C 0.46092 0.96054 0.031 0.0
C1036 C 0.44736 0.95258 0.00656 0.0
C1037 C 0.4292 0.93472 0.00982 0.0
C1038 C 0.42433 0.9248 0.03745 0.0
C1039 C 0.43757 0.93276 0.06188 0.0
C1040 C 0.45574 0.95062 0.05874 0.0
C1041 C 0.48377 0.08851 0.04647 0.0
C1042 C 0.49199 0.09254 0.07528 0.0
C1043 C 0.4826 0.06481 0.03522 0.0
C1044 C 0.48936 0.0448 0.05268 0.0
C1045 C 0.4952 0.04847 0.08226 0.0
C1046 C 0.49659 0.07224 0.0935 0.0
C1047 C 0.49403 0.02092 0.03871 0.0
C1048 C 0.47759 0.00161 0.04313 0.0
C1049 C 0.51402 0.01796 0.01936 0.0
C1050 C 0.53194 0.03793 0.0144 0.0
C1051 C 0.54607 0.04703 0.03775 0.0
C1052 C 0.5619 0.06681 0.03336 0.0
C1053 C 0.56383 0.07758 0.00567 0.0
C1054 C 0.55018 0.06835 0.98221 0.0
C1055 C 0.53433 0.04855 0.98649 0.0
H1056 H 0.57585 0.09309 0.00242 0.0
H1057 H 0.41024 0.91102 0.03997 0.0
H1058 H 0.41556 0.51259 0.10539 0.0
H1059 H 0.45771 0.50681 0.08877 0.0
H1060 H 0.43123 0.47972 0.00579 0.0
H1061 H 0.38907 0.48511 0.02231 0.0
H1062 H 0.47202 0.45578 0.02308 0.0
H1063 H 0.44375 0.53864 0.01539 0.0
H1064 H 0.42624 0.57696 0.03469 0.0
H1065 H 0.48889 0.58643 0.09045 0.0
H1066 H 0.50631 0.54755 0.07244 0.0
H1067 H 0.56577 0.48329 0.92436 0.0
H1068 H 0.52678 0.48768 0.94983 0.0
H1069 H 0.56492 0.5036 0.03036 0.0
H1070 H 0.6043 0.49896 0.00508 0.0
H1071 H 0.52031 0.53278 0.01862 0.0
H1072 H 0.54878 0.44916 0.02278 0.0
H1073 H 0.56436 0.41047 0.00214 0.0
H1074 H 0.49971 0.40371 0.94912 0.0
H1075 H 0.48397 0.44266 0.96896 0.0
C1076 C 0.41868 0.50485 0.08386 0.0
C1077 C 0.39898 0.4997 0.06496 0.0
C1078 C 0.44278 0.50167 0.07438 0.0
C1079 C 0.44752 0.49341 0.04583 0.0
C1080 C 0.42792 0.4863 0.02784 0.0
C1081 C 0.40383 0.48942 0.03732 0.0
C1082 C 0.47262 0.49418 0.03365 0.0
C1083 C 0.48253 0.47262 0.02201 0.0
C1084 C 0.48637 0.5162 0.03254 0.0
C1085 C 0.47618 0.53993 0.04288 0.0
C1086 C 0.45367 0.5487 0.03205 0.0
C1087 C 0.44372 0.57049 0.04283 0.0
C1088 C 0.45641 0.58409 0.06383 0.0
C1089 C 0.47904 0.57584 0.07422 0.0
C1090 C 0.48892 0.55386 0.06384 0.0
C1091 C 0.56597 0.48818 0.94736 0.0
C1092 C 0.58817 0.49045 0.96279 0.0
C1093 C 0.54365 0.49063 0.96187 0.0
C1094 C 0.54307 0.49555 0.992 0.0
C1095 C 0.56508 0.49967 0.00709 0.0
C1096 C 0.58753 0.49702 0.99261 0.0
C1097 C 0.51954 0.4944 0.00792 0.0
C1098 C 0.5099 0.5159 0.02011 0.0
C1099 C 0.50583 0.47242 0.00915 0.0
C1100 C 0.51533 0.449 0.99713 0.0
C1101 C 0.53801 0.43959 0.00647 0.0
C1102 C 0.54686 0.41758 0.99494 0.0
C1103 C 0.53307 0.40471 0.97424 0.0
C1104 C 0.51039 0.41376 0.96509 0.0
C1105 C 0.50151 0.4358 0.97646 0.0
H1106 H 0.5399 0.38771 0.96532 0.0
H1107 H 0.44876 0.60106 0.07195 0.0
H1108 H 0.9791 0.60931 0.96567 0.0
H1109 H 0.96993 0.57066 0.99022 0.0
H1110 H 0.98182 0.5317 0.9093 0.0
H1111 H 0.9908 0.57026 0.8844 0.0
H1112 H 0.94571 0.50949 0.94952 0.0
H1113 H 0.03038 0.54118 0.94751 0.0
H1114 H 0.05849 0.57596 0.95538 0.0
H1115 H 0.03648 0.58003 0.04555 0.0
H1116 H 0.00802 0.54541 0.03813 0.0
H1117 H 0.99551 0.39589 0.99094 0.0
H1118 H 0.99045 0.43628 0.96868 0.0
H1119 H 0.99066 0.46952 0.05443 0.0
H1120 H 0.99573 0.42919 0.07695 0.0
H1121 H 0.01698 0.49599 0.01538 0.0
H1122 H 0.93801 0.4609 0.02178 0.0
H1123 H 0.90513 0.43033 0.01611 0.0
H1124 H 0.91156 0.43495 0.92248 0.0
H1125 H 0.94485 0.46523 0.92756 0.0
C1126 C 0.97892 0.59264 0.9528 0.0
C1127 C 0.98636 0.59275 0.92328 0.0
C1128 C 0.9736 0.57058 0.96687 0.0
C1129 C 0.97575 0.54838 0.95165 0.0
C1130 C 0.98018 0.54869 0.92139 0.0
C1131 C 0.98544 0.57077 0.90725 0.0
C1132 C 0.97837 0.52518 0.968 0.0
C1133 C 0.96132 0.50635 0.96377 0.0
C1134 C 0.99844 0.52152 0.98716 0.0
C1135 C 0.01698 0.54089 0.99222 0.0
C1136 C 0.0316 0.54947 0.96902 0.0
C1137 C 0.04752 0.56919 0.97337 0.0
C1138 C 0.04907 0.58035 0.00084 0.0
C1139 C 0.03511 0.57147 0.02422 0.0
C1140 C 0.01914 0.55176 0.01999 0.0
C1141 C 0.99495 0.41181 0.00507 0.0
C1142 C 0.99586 0.40933 0.03574 0.0
C1143 C 0.9918 0.43484 0.99232 0.0
C1144 C 0.98963 0.45575 0.00998 0.0
C1145 C 0.99206 0.45353 0.04047 0.0
C1146 C 0.99503 0.43049 0.05327 0.0
C1147 C 0.98451 0.47988 0.99659 0.0
C1148 C 0.00122 0.49897 0.00132 0.0
C1149 C 0.96385 0.4838 0.97832 0.0
C1150 C 0.94419 0.46515 0.97507 0.0
C1151 C 0.93267 0.45518 -3e-05 0.0
C1152 C 0.91389 0.43794 0.99686 0.0
C1153 C 0.90631 0.43065 0.96895 0.0
C1154 C 0.91749 0.44058 0.94409 0.0
C1155 C 0.93633 0.45778 0.94707 0.0
H1156 H 0.89174 0.41736 0.9666 0.0
H1157 H 0.06121 0.59579 0.00406 0.0
H1158 H 0.09733 0.99303 0.02077 0.0
H1159 H 0.0576 0.00061 0.99797 0.0
H1160 H 0.02195 0.99036 0.08149 0.0
H1161 H 0.06159 0.98239 0.10441 0.0
H1162 H 0.00168 0.96218 0.04071 0.0
H1163 H 0.02321 0.04655 0.04849 0.0
H1164 H 0.04902 0.08335 0.04323 0.0
H1165 H 0.04893 0.07463 0.9497 0.0
H1166 H 0.02339 0.03758 0.9544 0.0
H1167 H 0.88328 0.99821 0.98666 0.0
H1168 H 0.92162 0.9931 0.01376 0.0
H1169 H 0.96239 -0.00084 0.93309 0.0
H1170 H 0.92428 0.00435 0.90587 0.0
H1171 H 0.97883 0.03082 0.97494 0.0
H1172 H 0.95868 0.94519 0.968 0.0
H1173 H 0.93254 0.90867 0.97378 0.0
H1174 H 0.92964 0.92047 0.06677 0.0
H1175 H 0.95551 0.95727 0.06149 0.0
C1176 C 0.08111 0.99291 0.03444 0.0
C1177 C 0.08259 0.98688 0.06435 0.0
C1178 C 0.05839 0.99731 0.02137 0.0
C1179 C 0.0368 0.996 0.03804 0.0
C1180 C 0.03838 0.99132 0.06821 0.0
C1181 C 0.06107 0.98687 0.08129 0.0
C1182 C 0.01257 0.99732 0.02349 0.0
C1183 C 0.99649 0.97742 0.02676 0.0
C1184 C 0.00607 0.01691 0.00476 0.0
C1185 C 0.02155 0.03914 0.00183 0.0
C1186 C 0.02887 0.05235 0.02681 0.0
C1187 C 0.04342 0.07328 0.02393 0.0
C1188 C 0.05066 0.08129 0.99615 0.0
C1189 C 0.04333 0.0684 0.9712 0.0
C1190 C 0.02879 0.04744 0.97396 0.0
C1191 C 0.90037 0.99792 0.9746 0.0
C1192 C 0.90074 0.00185 0.94413 0.0
C1193 C 0.92226 0.99504 0.99013 0.0
C1194 C 0.94482 0.99591 0.97541 0.0
C1195 C 0.94516 0.99862 0.94486 0.0
C1196 C 0.92333 0.00145 0.92933 0.0
C1197 C 0.96814 0.99558 0.99195 0.0
C1198 C 0.98401 0.01568 0.98906 0.0
C1199 C 0.9744 0.97623 0.01111 0.0
C1200 C 0.95881 0.95414 0.01431 0.0
C1201 C 0.95228 0.94013 0.98965 0.0
C1202 C 0.93756 0.91935 0.99284 0.0
C1203 C 0.92937 0.91229 0.02061 0.0
C1204 C 0.93596 0.92598 0.04526 0.0
C1205 C 0.95066 0.94678 0.04219 0.0
H1206 H 0.91798 0.89619 0.02304 0.0
H1207 H 0.06191 0.09751 0.99397 0.0
H1208 H 0.50519 0.57708 0.60167 0.0
H1209 H 0.50896 0.53706 0.57828 0.0
H1210 H 0.50242 0.57097 0.49321 0.0
H1211 H 0.49858 0.61109 0.51639 0.0
H1212 H 0.46815 0.53563 0.50224 0.0
H1213 H 0.55477 0.54346 0.51193 0.0
H1214 H 0.59422 0.55085 0.53671 0.0
H1215 H 0.58067 0.49034 0.59464 0.0
H1216 H 0.54095 0.48278 0.57047 0.0
H1217 H 0.49041 0.42775 0.41774 0.0
H1218 H 0.48871 0.46822 0.44039 0.0
H1219 H 0.4953 0.43525 0.52598 0.0
H1220 H 0.49706 0.39466 0.50354 0.0
H1221 H 0.5301 0.47027 0.51613 0.0
H1222 H 0.44324 0.46286 0.50721 0.0
H1223 H 0.40323 0.45611 0.48351 0.0
H1224 H 0.4169 0.51602 0.42475 0.0
H1225 H 0.45717 0.52295 0.44786 0.0
C1226 C 0.50523 0.57613 0.57796 0.0
C1227 C 0.50129 0.59722 0.5609 0.0
C1228 C 0.50744 0.55323 0.56462 0.0
C1229 C 0.5058 0.55107 0.53404 0.0
C1230 C 0.50362 0.57228 0.51687 0.0
C1231 C 0.50155 0.59521 0.53017 0.0
C1232 C 0.50344 0.52662 0.52037 0.0
C1233 C 0.48187 0.52143 0.50481 0.0
C1234 C 0.52103 0.50798 0.52463 0.0
C1235 C 0.54474 0.51271 0.53956 0.0
C1236 C 0.56006 0.53189 0.53016 0.0
C1237 C 0.58251 0.53607 0.54405 0.0
C1238 C 0.58992 0.52112 0.56728 0.0
C1239 C 0.57489 0.50193 0.57666 0.0
C1240 C 0.55242 0.49768 0.56286 0.0
C1241 C 0.49091 0.42905 0.44143 0.0
C1242 C 0.49409 0.40802 0.45883 0.0
C1243 C 0.48991 0.4522 0.45433 0.0
C1244 C 0.49203 0.4547 0.48483 0.0
C1245 C 0.49376 0.43366 0.50238 0.0
C1246 C 0.4946 0.41048 0.48951 0.0
C1247 C 0.49473 0.47927 0.49807 0.0
C1248 C 0.51637 0.48448 0.51354 0.0
C1249 C 0.47718 0.49794 0.49376 0.0
C1250 C 0.45338 0.49323 0.47905 0.0
C1251 C 0.4379 0.47436 0.48893 0.0
C1252 C 0.41511 0.47057 0.4757 0.0
C1253 C 0.40756 0.48557 0.45258 0.0
C1254 C 0.42279 0.50438 0.44262 0.0
C1255 C 0.4456 0.50825 0.45579 0.0
H1256 H 0.38987 0.48267 0.44243 0.0
H1257 H 0.60733 0.52435 0.57797 0.0
H1258 H 0.07107 0.51505 0.41048 0.0
H1259 H 0.03092 0.51239 0.43372 0.0
H1260 H 0.06315 0.47592 0.50821 0.0
H1261 H 0.10357 0.47855 0.48517 0.0
H1262 H 0.01718 0.45694 0.49202 0.0
H1263 H 0.05512 0.53468 0.51217 0.0
H1264 H 0.07527 0.57373 0.49967 0.0
H1265 H 0.01202 0.59581 0.45031 0.0
H1266 H 0.99163 0.55668 0.46213 0.0
H1267 H 0.93241 0.48166 0.60305 0.0
H1268 H 0.97031 0.48462 0.57507 0.0
H1269 H 0.93062 0.51495 0.50183 0.0
H1270 H 0.89225 0.5117 0.52958 0.0
H1271 H 0.97887 0.53719 0.51494 0.0
H1272 H 0.94032 0.45999 0.49642 0.0
H1273 H 0.92 0.42131 0.50989 0.0
H1274 H 0.98438 0.39827 0.55642 0.0
H1275 H 0.00496 0.43713 0.54375 0.0
C1276 C 0.06962 0.50602 0.43156 0.0
C1277 C 0.09058 0.4973 0.44618 0.0
C1278 C 0.04665 0.50462 0.44483 0.0
C1279 C 0.04423 0.49441 0.47286 0.0
C1280 C 0.06475 0.48402 0.4866 0.0
C1281 C 0.08781 0.48553 0.47341 0.0
C1282 C 0.02066 0.49612 0.48866 0.0
C1283 C 0.0089 0.47446 0.49726 0.0
C1284 C 0.00971 0.51906 0.49492 0.0
C1285 C 0.02196 0.5426 0.48774 0.0
C1286 C 0.0456 0.54774 0.49839 0.0
C1287 C 0.05705 0.56991 0.49147 0.0
C1288 C 0.04497 0.58721 0.47411 0.0
C1289 C 0.02138 0.58237 0.46369 0.0
C1290 C 0.00986 0.5602 0.4705 0.0
C1291 C 0.9317 0.48941 0.58121 0.0
C1292 C 0.90926 0.49619 0.5684 0.0
C1293 C 0.95339 0.49101 0.56524 0.0
C1294 C 0.95309 0.49965 0.53633 0.0
C1295 C 0.93109 0.50813 0.52413 0.0
C1296 C 0.90924 0.50627 0.54 0.0
C1297 C 0.97552 0.49803 0.51837 0.0
C1298 C 0.98708 0.51969 0.50946 0.0
C1299 C 0.98631 0.47511 0.51183 0.0
C1300 C 0.97408 0.45164 0.51943 0.0
C1301 C 0.95006 0.44682 0.50982 0.0
C1302 C 0.9385 0.42484 0.51728 0.0
C1303 C 0.95085 0.4074 0.53411 0.0
C1304 C 0.97482 0.41186 0.54346 0.0
C1305 C 0.98644 0.43386 0.53614 0.0
H1306 H 0.94187 0.39041 0.53983 0.0
H1307 H 0.05385 0.60438 0.46881 0.0
H1308 H 0.02227 0.89799 0.49228 0.0
H1309 H 0.02041 0.93796 0.4682 0.0
H1310 H 0.99808 0.97131 0.54959 0.0
H1311 H -3e-05 0.93145 0.57391 0.0
H1312 H 0.97413 0.99113 0.50162 0.0
H1313 H 0.05567 0.97296 0.53272 0.0
H1314 H 0.09363 0.94903 0.53708 0.0
H1315 H 0.10389 0.95253 0.44386 0.0
H1316 H 0.06558 0.97623 0.43887 0.0
H1317 H 0.00726 0.11302 0.48054 0.0
H1318 H 0.0112 0.07169 0.50034 0.0
H1319 H 0.02558 0.04372 0.4137 0.0
H1320 H 0.02167 0.08508 0.39352 0.0
H1321 H 0.05354 0.02077 0.46192 0.0
H1322 H 0.96943 0.03801 0.43217 0.0
H1323 H 0.93357 0.06549 0.43056 0.0
H1324 H 0.93127 0.06667 0.52467 0.0
H1325 H 0.96685 0.03892 0.52674 0.0
C1326 C 0.01639 0.91371 0.50492 0.0
C1327 C 0.01152 0.91161 0.5351 0.0
C1328 C 0.0155 0.93655 0.49115 0.0
C1329 C 0.00956 0.9576 0.50728 0.0
C1330 C 0.00285 0.95528 0.53682 0.0
C1331 C 0.00394 0.93249 0.55067 0.0
C1332 C 0.01206 0.98221 0.494 0.0
C1333 C 0.99151 0.99758 0.49306 0.0
C1334 C 0.03474 0.99061 0.48265 0.0
C1335 C 0.05757 0.97605 0.48539 0.0
C1336 C 0.06584 0.96836 0.51309 0.0
C1337 C 0.08747 0.95488 0.51569 0.0
C1338 C 0.10118 0.94914 0.49077 0.0
C1339 C 0.09323 0.95692 0.46315 0.0
C1340 C 0.07154 0.97037 0.46042 0.0
C1341 C 0.01188 0.09823 0.46573 0.0
C1342 C 0.01375 0.10229 0.43536 0.0
C1343 C 0.01407 0.07462 0.4771 0.0
C1344 C 0.01824 0.05471 0.45836 0.0
C1345 C 0.02225 0.05891 0.42844 0.0
C1346 C 0.01997 0.08255 0.41698 0.0
C1347 C 0.01565 0.02946 0.46956 0.0
C1348 C 0.03614 0.01405 0.47013 0.0
C1349 C 0.99303 0.02104 0.48078 0.0
C1350 C 0.97075 0.03647 0.47961 0.0
C1351 C 0.96114 0.04406 0.45249 0.0
C1352 C 0.94086 0.05966 0.45149 0.0
C1353 C 0.93011 0.06786 0.47748 0.0
C1354 C 0.93946 0.06022 0.50453 0.0
C1355 C 0.95961 0.04445 0.50564 0.0
H1356 H 0.9146 0.08017 0.47664 0.0
H1357 H 0.11797 0.93875 0.49287 0.0
H1358 H 0.61855 0.99674 0.48178 0.0
H1359 H 0.57882 0.9945 0.45728 0.0
H1360 H 0.54345 0.98251 0.5406 0.0
H1361 H 0.58306 0.98459 0.56531 0.0
H1362 H 0.52154 0.95651 0.49702 0.0
H1363 H 0.54771 0.03901 0.51492 0.0
H1364 H 0.57493 0.07497 0.51279 0.0
H1365 H 0.57138 0.07438 0.41878 0.0
H1366 H 0.54433 0.03815 0.42033 0.0
H1367 H 0.40433 0.00682 0.47948 0.0
H1368 H 0.44718 0.00507 0.49447 0.0
H1369 H 0.46955 0.00165 0.40396 0.0
H1370 H 0.42653 0.00289 0.38856 0.0
H1371 H 0.4989 0.03372 0.44614 0.0
H1372 H 0.4682 0.95164 0.43108 0.0
H1373 H 0.43836 0.91811 0.43714 0.0
H1374 H 0.44851 0.92029 0.53044 0.0
H1375 H 0.47814 0.95413 0.52496 0.0
C1376 C 0.60242 0.99297 0.49484 0.0
C1377 C 0.60389 0.99126 0.52557 0.0
C1378 C 0.57972 0.99185 0.4808 0.0
C1379 C 0.55821 0.98893 0.49724 0.0
C1380 C 0.55985 0.98497 0.52756 0.0
C1381 C 0.58252 0.98617 0.54165 0.0
C1382 C 0.53393 0.99221 0.48343 0.0
C1383 C 0.51659 0.97338 0.48592 0.0
C1384 C 0.52757 0.01423 0.46879 0.0
C1385 C 0.54428 0.03565 0.46773 0.0
C1386 C 0.55297 0.04635 0.49378 0.0
C1387 C 0.56832 0.06683 0.49268 0.0
C1388 C 0.57497 0.07691 0.46568 0.0
C1389 C 0.56627 0.06651 0.43969 0.0
C1390 C 0.55093 0.046 0.44066 0.0
C1391 C 0.41831 0.00629 0.46265 0.0
C1392 C 0.41203 0.0047 0.4328 0.0
C1393 C 0.44277 0.00516 0.47131 0.0
C1394 C 0.46131 0.00281 0.45029 0.0
C1395 C 0.45534 0.00329 0.42042 0.0
C1396 C 0.43081 0.00405 0.4117 0.0
C1397 C 0.48666 0.99807 0.45982 0.0
C1398 C 0.50409 0.01667 0.45669 0.0
C1399 C 0.49298 0.97603 0.47427 0.0
C1400 C 0.47521 0.95561 0.47762 0.0
C1401 C 0.46388 0.94516 0.45291 0.0
C1402 C 0.44704 0.92606 0.45624 0.0
C1403 C 0.44148 0.91713 0.48417 0.0
C1404 C 0.45281 0.92725 0.50882 0.0
C1405 C 0.46964 0.94638 0.50561 0.0
H1406 H 0.42846 0.90233 0.48672 0.0
H1407 H 0.58678 0.09283 0.4649 0.0
H1408 H 0.49355 0.30888 0.36261 0.0
H1409 H 0.49087 0.28517 0.31734 0.0
H1410 H 0.55923 0.31631 0.28796 0.0
H1411 H 0.56193 0.34036 0.33297 0.0
H1412 H 0.52681 0.31189 0.24334 0.0
H1413 H 0.55826 0.26154 0.32122 0.0
H1414 H 0.55772 0.24241 0.3702 0.0
H1415 H 0.49124 0.20451 0.34849 0.0
H1416 H 0.49113 0.22379 0.29951 0.0
H1417 H 0.56833 0.22435 0.1425 0.0
H1418 H 0.5646 0.24935 0.18654 0.0
H1419 H 0.49461 0.21626 0.20542 0.0
H1420 H 0.49822 0.19093 0.16129 0.0
H1421 H 0.5245 0.22149 0.25498 0.0
H1422 H 0.49524 0.27075 0.17506 0.0
H1423 H 0.49767 0.28951 0.12596 0.0
H1424 H 0.56217 0.32908 0.15167 0.0
H1425 H 0.56036 0.31023 0.20079 0.0
C1426 C 0.50783 0.311 0.34632 0.0
C1427 C 0.52812 0.32628 0.35152 0.0
C1428 C 0.5063 0.29735 0.32053 0.0
C1429 C 0.52509 0.29864 0.29962 0.0
C1430 C 0.5446 0.31497 0.30393 0.0
C1431 C 0.54612 0.32868 0.32969 0.0
C1432 C 0.52521 0.28197 0.27407 0.0
C1433 C 0.52647 0.29213 0.24588 0.0
C1434 C 0.52436 0.25619 0.27747 0.0
C1435 C 0.52453 0.24434 0.3068 0.0
C1436 C 0.54341 0.24928 0.32696 0.0
C1437 C 0.54324 0.2384 0.35472 0.0
C1438 C 0.52442 0.22231 0.36248 0.0
C1439 C 0.50578 0.21702 0.34246 0.0
C1440 C 0.50582 0.22792 0.3147 0.0
C1441 C 0.55219 0.22223 0.15606 0.0
C1442 C 0.53347 0.2058 0.14827 0.0
C1443 C 0.55008 0.23659 0.18119 0.0
C1444 C 0.52917 0.23488 0.19892 0.0
C1445 C 0.51083 0.21788 0.19188 0.0
C1446 C 0.51291 0.20349 0.16666 0.0
C1447 C 0.52629 0.25144 0.22432 0.0
C1448 C 0.52455 0.24126 0.25246 0.0
C1449 C 0.5269 0.2772 0.22092 0.0
C1450 C 0.52776 0.28893 0.19155 0.0
C1451 C 0.51003 0.28334 0.1702 0.0
C1452 C 0.51129 0.29399 0.14236 0.0
C1453 C 0.53009 0.31044 0.13569 0.0
C1454 C 0.54762 0.31632 0.15687 0.0
C1455 C 0.54648 0.30568 0.18472 0.0
H1456 H 0.53105 0.31865 0.11412 0.0
H1457 H 0.52432 0.21392 0.38399 0.0
H1458 H 0.16284 0.56389 0.33151 0.0
H1459 H 0.1827 0.56126 0.28371 0.0
H1460 H 0.21568 0.49249 0.30851 0.0
H1461 H 0.19625 0.4952 0.35668 0.0
H1462 H 0.24873 0.52244 0.28503 0.0
H1463 H 0.16851 0.49481 0.25861 0.0
H1464 H 0.12343 0.49649 0.2559 0.0
H1465 H 0.12752 0.56406 0.20794 0.0
H1466 H 0.17264 0.56297 0.21072 0.0
H1467 H 0.29717 0.50152 0.14254 0.0
H1468 H 0.27399 0.49687 0.18808 0.0
H1469 H 0.23665 0.56504 0.17092 0.0
H1470 H 0.25927 0.56953 0.1251 0.0
H1471 H 0.20526 0.53165 0.19014 0.0
H1472 H 0.2848 0.5611 0.21997 0.0
H1473 H 0.3299 0.56026 0.22317 0.0
H1474 H 0.32692 0.48989 0.26511 0.0
H1475 H 0.28179 0.49019 0.26182 0.0
C1476 C 0.17412 0.54807 0.32673 0.0
C1477 C 0.17798 0.52976 0.34791 0.0
C1478 C 0.18537 0.54654 0.29932 0.0
C1479 C 0.20047 0.52655 0.29243 0.0
C1480 C 0.20407 0.50805 0.31337 0.0
C1481 C 0.19289 0.50961 0.34085 0.0
C1482 C 0.21353 0.52567 0.26397 0.0
C1483 C 0.23919 0.52398 0.26424 0.0
C1484 C 0.20111 0.52825 0.23691 0.0
C1485 C 0.17397 0.52889 0.23508 0.0
C1486 C 0.1598 0.51012 0.24767 0.0
C1487 C 0.13424 0.51095 0.24609 0.0
C1488 C 0.12262 0.53039 0.23181 0.0
C1489 C 0.13655 0.54901 0.21901 0.0
C1490 C 0.16212 0.54828 0.22055 0.0
C1491 C 0.284 0.5155 0.14845 0.0
C1492 C 0.28013 0.53596 0.13029 0.0
C1493 C 0.27082 0.51285 0.17452 0.0
C1494 C 0.2538 0.53076 0.18307 0.0
C1495 C 0.24968 0.551 0.16474 0.0
C1496 C 0.2627 0.55357 0.1386 0.0
C1497 C 0.24045 0.5287 0.21125 0.0
C1498 C 0.21476 0.52985 0.21092 0.0
C1499 C 0.25283 0.52571 0.23829 0.0
C1500 C 0.27995 0.52555 0.24035 0.0
C1501 C 0.29378 0.54537 0.22967 0.0
C1502 C 0.31934 0.545 0.23154 0.0
C1503 C 0.33127 0.525 0.24426 0.0
C1504 C 0.31765 0.50535 0.25522 0.0
C1505 C 0.29209 0.50562 0.25337 0.0
H1506 H 0.35106 0.52475 0.24568 0.0
H1507 H 0.10282 0.531 0.23061 0.0
H1508 H 0.00444 0.28021 0.10775 0.0
H1509 H 0.01093 0.25188 0.14861 0.0
H1510 H 0.99002 0.30837 0.2097 0.0
H1511 H 0.98323 0.33677 0.169 0.0
H1512 H 0.03114 0.27803 0.22795 0.0
H1513 H 0.94791 0.27132 0.18865 0.0
H1514 H 0.9185 0.26416 0.14849 0.0
H1515 H 0.94957 0.19302 0.1335 0.0
H1516 H 0.97945 0.19995 0.17327 0.0
H1517 H 0.98762 0.22241 0.35592 0.0
H1518 H 0.99572 0.2458 0.31151 0.0
H1519 H 0.99453 0.17911 0.26067 0.0
H1520 H 0.98504 0.15574 0.30507 0.0
H1521 H 0.97016 0.21076 0.23317 0.0
H1522 H 0.04929 0.21315 0.27548 0.0
H1523 H 0.08065 0.21879 0.31379 0.0
H1524 H 0.06147 0.29481 0.3209 0.0
H1525 H 0.02974 0.28957 0.28292 0.0
C1526 C 0.00167 0.28676 0.12991 0.0
C1527 C 0.99311 0.31066 0.13519 0.0
C1528 C 0.00536 0.27054 0.15318 0.0
C1529 C 0.00077 0.27805 0.18205 0.0
C1530 C 0.99367 0.3023 0.18752 0.0
C1531 C 0.9897 0.31844 0.16426 0.0
C1532 C 0.00104 0.26016 0.20636 0.0
C1533 C 0.01782 0.26333 0.22929 0.0
C1534 C 0.98422 0.2405 0.20736 0.0
C1535 C 0.96607 0.23626 0.1837 0.0
C1536 C 0.94859 0.25423 0.17663 0.0
C1537 C 0.93182 0.25021 0.15396 0.0
C1538 C 0.93221 0.22817 0.13841 0.0
C1539 C 0.94932 0.21009 0.14553 0.0
C1540 C 0.96618 0.21406 0.16813 0.0
C1541 C 0.98932 0.2127 0.33532 0.0
C1542 C 0.98572 0.18726 0.33392 0.0
C1543 C 0.99416 0.22607 0.30992 0.0
C1544 C 0.99626 0.21422 0.28269 0.0
C1545 C 0.99307 0.1887 0.28138 0.0
C1546 C 0.98768 0.17536 0.30674 0.0
C1547 C 4e-05 0.22875 0.25549 0.0
C1548 C 0.98393 0.22505 0.23188 0.0
C1549 C 0.01786 0.24759 0.25365 0.0
C1550 C 0.03701 0.25091 0.27645 0.0
C1551 C 0.05164 0.23104 0.28534 0.0
C1552 C 0.0695 0.23417 0.30698 0.0
C1553 C 0.07302 0.25714 0.3198 0.0
C1554 C 0.05872 0.27703 0.31095 0.0
C1555 C 0.04082 0.274 0.28933 0.0
H1556 H 0.08685 0.25952 0.33656 0.0
H1557 H 0.91922 0.22509 0.12086 0.0
H1558 H 0.28236 0.99634 0.3752 0.0
H1559 H 0.25226 0.99524 0.33547 0.0
H1560 H 0.29946 0.9472 0.28605 0.0
H1561 H 0.3297 0.94835 0.32545 0.0
H1562 H 0.27961 0.98085 0.25115 0.0
H1563 H 0.25252 0.92472 0.32445 0.0
H1564 H 0.23924 0.90984 0.37293 0.0
H1565 H 0.17851 0.95979 0.37158 0.0
H1566 H 0.19177 0.97541 0.32337 0.0
H1567 H 0.16861 0.91498 0.18408 0.0
H1568 H 0.19483 0.92262 0.22643 0.0
H1569 H 0.2043 0.99764 0.19891 0.0
H1570 H 0.17858 0.99 0.15602 0.0
H1571 H 0.19539 0.95163 0.27252 0.0
H1572 H 0.26379 0.01413 0.21075 0.0
H1573 H 0.27741 0.02189 0.16 0.0
H1574 H 0.25786 0.94844 0.1359 0.0
H1575 H 0.24454 0.94011 0.18661 0.0
C1576 C 0.28646 0.98577 0.35572 0.0
C1577 C 0.30837 0.97234 0.35351 0.0
C1578 C 0.26919 0.98507 0.33313 0.0
C1579 C 0.27353 0.97093 0.30798 0.0
C1580 C 0.29576 0.95823 0.30528 0.0
C1581 C 0.31299 0.95885 0.32787 0.0
C1582 C 0.25469 0.96869 0.28478 0.0
C1583 C 0.26114 0.97465 0.25587 0.0
C1584 C 0.23075 0.96009 0.29087 0.0
C1585 C 0.22334 0.95147 0.32044 0.0
C1586 C 0.23656 0.93282 0.33468 0.0
C1587 C 0.22899 0.92419 0.36208 0.0
C1588 C 0.20805 0.93387 0.37532 0.0
C1589 C 0.19474 0.95233 0.3613 0.0
C1590 C 0.20231 0.96112 0.33397 0.0
C1591 C 0.17598 0.93321 0.18723 0.0
C1592 C 0.17181 0.95179 0.16649 0.0
C1593 C 0.19092 0.93756 0.2115 0.0
C1594 C 0.20186 0.96056 0.2155 0.0
C1595 C 0.19641 0.97962 0.19589 0.0
C1596 C 0.18164 0.97523 0.17147 0.0
C1597 C 0.22023 0.96402 0.23902 0.0
C1598 C 0.21373 0.95825 0.26794 0.0
C1599 C 0.24436 0.97201 0.23281 0.0
C1600 C 0.2529 0.97662 0.20241 0.0
C1601 C 0.26251 -0.00039 0.19465 0.0
C1602 C 0.27018 0.0041 0.16589 0.0
C1603 C 0.26842 0.98569 0.14472 0.0
C1604 C 0.25914 0.9627 0.1523 0.0
C1605 C 0.25153 0.95809 0.18104 0.0
H1606 H 0.2743 0.98923 0.12246 0.0
H1607 H 0.20211 0.92703 0.39643 0.0
H1608 H 0.42568 0.8287 0.83445 0.0
H1609 H 0.4288 0.80019 0.79342 0.0
H1610 H 0.50688 0.79532 0.80624 0.0
H1611 H 0.50393 0.8235 0.84796 0.0
H1612 H 0.48317 0.79805 0.74155 0.0
H1613 H 0.4857 0.75409 0.83506 0.0
H1614 H 0.47001 0.74685 0.88503 0.0
H1615 H 0.3991 0.72944 0.85001 0.0
H1616 H 0.41425 0.73711 0.79984 0.0
H1617 H 0.49729 0.69136 0.65695 0.0
H1618 H 0.50248 0.71952 0.6981 0.0
H1619 H 0.42591 0.71177 0.71965 0.0
H1620 H 0.42069 0.68318 0.67905 0.0
H1621 H 0.4521 0.71546 0.7682 0.0
H1622 H 0.44611 0.75849 0.67726 0.0
H1623 H 0.45713 0.76852 0.62627 0.0
H1624 H 0.52892 0.79064 0.65421 0.0
H1625 H 0.51852 0.78011 0.70535 0.0
C1626 C 0.44362 0.82208 0.82816 0.0
C1627 C 0.46454 0.82812 0.84461 0.0
C1628 C 0.44534 0.80579 0.80474 0.0
C1629 C 0.46802 0.79563 0.79713 0.0
C1630 C 0.48924 0.80306 0.81194 0.0
C1631 C 0.4875 0.81907 0.83574 0.0
C1632 C 0.46893 0.77526 0.77602 0.0
C1633 C 0.47689 0.77983 0.74738 0.0
C1634 C 0.45995 0.75185 0.78369 0.0
C1635 C 0.45105 0.7464 0.81374 0.0
C1636 C 0.46671 0.7489 0.83804 0.0
C1637 C 0.45793 0.74471 0.86639 0.0
C1638 C 0.43356 0.73775 0.8707 0.0
C1639 C 0.41796 0.73487 0.84664 0.0
C1640 C 0.42664 0.73913 0.81824 0.0
C1641 C 0.48165 0.69531 0.67077 0.0
C1642 C 0.4585 0.68531 0.66451 0.0
C1643 C 0.48464 0.71147 0.6942 0.0
C1644 C 0.46446 0.71815 0.71151 0.0
C1645 C 0.4417 0.70696 0.70648 0.0
C1646 C 0.43874 0.69065 0.6832 0.0
C1647 C 0.46656 0.73803 0.73345 0.0
C1648 C 0.4589 0.73348 0.76231 0.0
C1649 C 0.47539 0.76162 0.72577 0.0
C1650 C 0.48164 0.76822 0.69509 0.0
C1651 C 0.46432 0.7653 0.67251 0.0
C1652 C 0.47045 0.77109 0.64358 0.0
C1653 C 0.49372 0.7802 0.63699 0.0
C1654 C 0.51091 0.78354 0.65934 0.0
C1655 C 0.50493 0.77763 0.68831 0.0
H1656 H 0.49842 0.78469 0.61457 0.0
H1657 H 0.42678 0.73454 0.89267 0.0
H1658 H 0.83181 0.43467 0.69838 0.0
H1659 H 0.80237 0.43811 0.73848 0.0
H1660 H 0.77735 0.50729 0.70396 0.0
H1661 H 0.80649 0.50391 0.66358 0.0
H1662 H 0.79165 0.46937 0.78206 0.0
H1663 H 0.71469 0.5074 0.70662 0.0
H1664 H 0.7035 0.50682 0.65416 0.0
H1665 H 0.74258 0.43925 0.64285 0.0
H1666 H 0.75363 0.43921 0.69525 0.0
H1667 H 0.69372 0.49819 0.87428 0.0
H1668 H 0.72324 0.5027 0.83446 0.0
H1669 H 0.68977 0.44208 0.78891 0.0
H1670 H 0.65976 0.43783 0.82835 0.0
H1671 H 0.70473 0.4753 0.75064 0.0
H1672 H 0.74005 0.43225 0.8314 0.0
H1673 H 0.7514 0.42514 0.88296 0.0
H1674 H 0.79511 0.49054 0.88259 0.0
H1675 H 0.78398 0.49802 0.83089 0.0
C1676 C 0.8204 0.45086 0.69961 0.0
C1677 C 0.82122 0.46883 0.67754 0.0
C1678 C 0.8036 0.45281 0.72258 0.0
C1679 C 0.78738 0.47271 0.72381 0.0
C1680 C 0.78943 0.49157 0.70307 0.0
C1681 C 0.80617 0.48963 0.68007 0.0
C1682 C 0.7671 0.47275 0.74532 0.0
C1683 C 0.77267 0.4709 0.77523 0.0
C1684 C 0.74229 0.47388 0.73626 0.0
C1685 C 0.73524 0.47349 0.70481 0.0
C1686 C 0.7208 0.49237 0.69295 0.0
C1687 C 0.71449 0.49215 0.66322 0.0
C1688 C 0.72241 0.47306 0.64516 0.0
C1689 C 0.73654 0.45408 0.65682 0.0
C1690 C 0.74284 0.45418 0.68653 0.0
C1691 C 0.69234 0.48611 0.85553 0.0
C1692 C 0.6746 0.46745 0.85462 0.0
C1693 C 0.70929 0.48865 0.83285 0.0
C1694 C 0.70905 0.47236 0.80908 0.0
C1695 C 0.69036 0.45478 0.80714 0.0
C1696 C 0.67322 0.45236 0.82971 0.0
C1697 C 0.72931 0.47248 0.78746 0.0
C1698 C 0.72373 0.47421 0.75751 0.0
C1699 C 0.75408 0.47026 0.79638 0.0
C1700 C 0.76098 0.46582 0.82739 0.0
C1701 C 0.75197 0.44519 0.84237 0.0
C1702 C 0.7584 0.44107 0.87162 0.0
C1703 C 0.7739 0.45743 0.88614 0.0
C1704 C 0.78311 0.47788 0.87134 0.0
C1705 C 0.77679 0.48204 0.84204 0.0
H1706 H 0.77882 0.45422 0.90882 0.0
H1707 H 0.71757 0.47293 0.62215 0.0
H1708 H 0.0696 0.84037 0.67222 0.0
H1709 H 0.06423 0.812 0.71291 0.0
H1710 H 0.99775 0.7847 0.6734 0.0
H1711 H 0.00363 0.81242 0.63183 0.0
H1712 H 0.03358 0.80289 0.75372 0.0
H1713 H 0.99325 0.72347 0.68495 0.0
H1714 H 0.99278 0.70946 0.63351 0.0
H1715 H 0.06157 0.74537 0.61807 0.0
H1716 H 0.06264 0.75923 0.66952 0.0
H1717 H 0.00564 0.70697 0.85251 0.0
H1718 H 0.00229 0.73744 0.81346 0.0
H1719 H 0.05979 0.70095 0.76549 0.0
H1720 H 0.06285 0.67012 0.80406 0.0
H1721 H 0.02629 0.71474 0.72894 0.0
H1722 H 0.07085 0.75301 0.80617 0.0
H1723 H 0.0808 0.76941 0.8551 0.0
H1724 H 0.01744 0.81591 0.85174 0.0
H1725 H 0.00691 0.79955 0.80291 0.0
C1726 C 0.05363 0.82861 0.67236 0.0
C1727 C 0.03721 0.82839 0.64864 0.0
C1728 C 0.05056 0.81239 0.6957 0.0
C1729 C 0.03087 0.79585 0.69593 0.0
C1730 C 0.01342 0.79688 0.67332 0.0
C1731 C 0.01671 0.81282 0.64968 0.0
C1732 C 0.02967 0.77662 0.71887 0.0
C1733 C 0.03173 0.78363 0.74834 0.0
C1734 C 0.02799 0.75142 0.71177 0.0
C1735 C 0.02785 0.74262 0.68099 0.0
C1736 C 0.00832 0.72827 0.67061 0.0
C1737 C 0.00795 0.72037 0.64145 0.0
C1738 C 0.02709 0.7266 0.62251 0.0
C1739 C 0.04672 0.74062 0.63274 0.0
C1740 C 0.04722 0.7485 0.66189 0.0
C1741 C 0.01744 0.70532 0.83353 0.0
C1742 C 0.0346 0.68618 0.83145 0.0
C1743 C 0.01558 0.72283 0.8113 0.0
C1744 C 0.03102 0.72169 0.78673 0.0
C1745 C 0.04767 0.70221 0.78423 0.0
C1746 C 0.04944 0.68461 0.80635 0.0
C1747 C 0.03025 0.74102 0.76387 0.0
C1748 C 0.02774 0.73402 0.7344 0.0
C1749 C 0.03261 0.76618 0.77087 0.0
C1750 C 0.03794 0.77485 0.80102 0.0
C1751 C 0.05882 0.76644 0.81606 0.0
C1752 C 0.06462 0.77581 0.84371 0.0
C1753 C 0.0498 0.79373 0.85645 0.0
C1754 C 0.02892 0.80205 0.84179 0.0
C1755 C 0.02302 0.79273 0.81414 0.0
H1756 H 0.05459 0.80133 0.87758 0.0
H1757 H 0.02673 0.72054 0.59993 0.0
H1758 H 0.66228 0.01377 0.66303 0.0
H1759 H 0.68876 0.00927 0.70595 0.0
H1760 H 0.75259 0.01395 0.65039 0.0
H1761 H 0.72621 0.01726 0.60734 0.0
H1762 H 0.76158 0.98299 0.69163 0.0
H1763 H 0.72919 0.0645 0.68912 0.0
H1764 H 0.69719 0.09634 0.68698 0.0
H1765 H 0.66653 0.06981 0.76766 0.0
H1766 H 0.69818 0.0376 0.77006 0.0
H1767 H 0.8437 0.03312 0.80106 0.0
H1768 H 0.81795 0.02596 0.75781 0.0
H1769 H 0.75877 0.00231 0.81363 0.0
H1770 H 0.78432 0.00898 0.85681 0.0
H1771 H 0.7475 0.04138 0.77319 0.0
H1772 H 0.784 0.96102 0.77555 0.0
H1773 H 0.81845 0.93183 0.77656 0.0
H1774 H 0.84456 0.96009 0.69445 0.0
H1775 H 0.81045 0.98971 0.69316 0.0
C1776 C 0.68196 0.01354 0.65997 0.0
C1777 C 0.69219 0.01609 0.6319 0.0
C1778 C 0.69708 0.01109 0.68451 0.0
C1779 C 0.7227 0.01188 0.68149 0.0
C1780 C 0.73291 0.01337 0.65331 0.0
C1781 C 0.71779 0.01532 0.62872 0.0
C1782 C 0.73884 0.01236 0.7077 0.0
C1783 C 0.75861 0.99592 0.70932 0.0
C1784 C 0.73493 0.02911 0.73096 0.0
C1785 C 0.71589 0.04848 0.72959 0.0
C1786 C 0.71552 0.06535 0.70628 0.0
C1787 C 0.69746 0.08348 0.70504 0.0
C1788 C 0.6798 0.08505 0.72712 0.0
C1789 C 0.6802 0.06854 0.75054 0.0
C1790 C 0.6982 0.05035 0.75186 0.0
C1791 C 0.82533 0.02604 0.80408 0.0
C1792 C 0.81602 0.02173 0.83234 0.0
C1793 C 0.8107 0.02191 0.77939 0.0
C1794 C 0.78652 0.01364 0.78266 0.0
C1795 C 0.77742 0.00868 0.81075 0.0
C1796 C 0.79209 0.01246 0.83536 0.0
C1797 C 0.77003 0.01201 0.75705 0.0
C1798 C 0.7503 0.02837 0.75553 0.0
C1799 C 0.77432 0.99559 0.7337 0.0
C1800 C 0.7948 0.97775 0.73441 0.0
C1801 C 0.79722 0.96117 0.75785 0.0
C1802 C 0.81665 0.94451 0.75844 0.0
C1803 C 0.83372 0.94415 0.73563 0.0
C1804 C 0.83135 0.96041 0.71213 0.0
C1805 C 0.81195 0.97712 0.71144 0.0
H1806 H 0.84876 0.93123 0.73612 0.0
H1807 H 0.66584 0.0991 0.72613 0.0
loop_
_geom_bond_atom_site_label_1
_geom_bond_atom_site_label_2
_geom_bond_distance
_geom_bond_site_symmetry_2
_ccdc_geom_bond_type
C0 O1 1.160 . S
C0 O7 1.185 . S
O1 C0 1.160 . S
O2 Zn3 1.899 . S
O2 C10 1.284 . S
Zn3 O2 1.899 . S
Zn3 O4 2.032 . S
Zn3 O7 2.086 . S
Zn3 O12 1.977 . S
O4 Zn3 2.032 . S
O4 C8 1.278 . S
C5 O6 1.203 . S
C5 O12 1.267 . S
O6 C5 1.203 . S
O7 C0 1.185 . S
O7 Zn3 2.086 . S
C8 O4 1.278 . S
C8 O9 1.211 . S
O9 C8 1.211 . S
C10 O2 1.284 . S
C10 O11 1.273 . S
O11 C10 1.273 . S
O12 Zn3 1.977 . S
O12 C5 1.267 . S
C13 O14 1.160 . S
C13 O20 1.185 . S
O14 C13 1.160 . S
O15 Zn16 1.899 . S
O15 C23 1.284 . S
Zn16 O15 1.899 . S
Zn16 O17 2.032 . S
Zn16 O20 2.086 . S
Zn16 O25 1.977 . S
O17 Zn16 2.032 . S
O17 C21 1.278 . S
C18 O19 1.203 . S
C18 O25 1.267 . S
O19 C18 1.203 . S
O20 C13 1.185 . S
O20 Zn16 2.086 . S
C21 O17 1.278 . S
C21 O22 1.211 . S
O22 C21 1.211 . S
C23 O15 1.284 . S
C23 O24 1.273 . S
O24 C23 1.273 . S
O25 Zn16 1.977 . S
O25 C18 1.267 . S
C26 O27 1.160 . S
C26 O33 1.185 . S
O27 C26 1.160 . S
O28 Zn29 1.899 . S
O28 C36 1.284 . S
Zn29 O28 1.899 . S
Zn29 O30 2.032 . S
Zn29 O33 2.086 . S
Zn29 O38 1.977 . S
O30 Zn29 2.032 . S
O30 C34 1.278 . S
C31 O32 1.203 . S
C31 O38 1.267 . S
O32 C31 1.203 . S
O33 C26 1.185 . S
O33 Zn29 2.086 . S
C34 O30 1.278 . S
C34 O35 1.211 . S
O35 C34 1.211 . S
C36 O28 1.284 . S
C36 O37 1.273 . S
O37 C36 1.273 . S
O38 Zn29 1.977 . S
O38 C31 1.267 . S
C39 O40 1.160 . S
C39 O46 1.185 . S
O40 C39 1.160 . S
O41 Zn42 1.899 . S
O41 C49 1.284 . S
Zn42 O41 1.899 . S
Zn42 O43 2.032 . S
Zn42 O46 2.086 . S
Zn42 O51 1.977 . S
O43 Zn42 2.032 . S
O43 C47 1.278 . S
C44 O45 1.203 . S
C44 O51 1.267 . S
O45 C44 1.203 . S
O46 C39 1.185 . S
O46 Zn42 2.086 . S
C47 O43 1.278 . S
C47 O48 1.211 . S
O48 C47 1.211 . S
C49 O41 1.284 . S
C49 O50 1.273 . S
O50 C49 1.273 . S
O51 Zn42 1.977 . S
O51 C44 1.267 . S
C52 O53 1.160 . S
C52 O59 1.185 . S
O53 C52 1.160 . S
O54 Zn55 1.899 . S
O54 C62 1.284 . S
Zn55 O54 1.899 . S
Zn55 O56 2.032 . S
Zn55 O59 2.086 . S
Zn55 O64 1.977 . S
O56 Zn55 2.032 . S
O56 C60 1.278 . S
C57 O58 1.203 . S
C57 O64 1.267 . S
O58 C57 1.203 . S
O59 C52 1.185 . S
O59 Zn55 2.086 . S
C60 O56 1.278 . S
C60 O61 1.211 . S
O61 C60 1.211 . S
C62 O54 1.284 . S
C62 O63 1.273 . S
O63 C62 1.273 . S
O64 Zn55 1.977 . S
O64 C57 1.267 . S
C65 O66 1.160 . S
C65 O72 1.185 . S
O66 C65 1.160 . S
O67 Zn68 1.899 . S
O67 C75 1.284 . S
Zn68 O67 1.899 . S
Zn68 O69 2.032 . S
Zn68 O72 2.086 . S
Zn68 O77 1.977 . S
O69 Zn68 2.032 . S
O69 C73 1.278 . S
C70 O71 1.203 . S
C70 O77 1.267 . S
O71 C70 1.203 . S
O72 C65 1.185 . S
O72 Zn68 2.086 . S
C73 O69 1.278 . S
C73 O74 1.211 . S
O74 C73 1.211 . S
C75 O67 1.284 . S
C75 O76 1.273 . S
O76 C75 1.273 . S
O77 Zn68 1.977 . S
O77 C70 1.267 . S
C78 O79 1.160 . S
C78 O85 1.185 . S
O79 C78 1.160 . S
O80 Zn81 1.899 . S
O80 C88 1.284 . S
Zn81 O80 1.899 . S
Zn81 O82 2.032 . S
Zn81 O85 2.086 . S
Zn81 O90 1.977 . S
O82 Zn81 2.032 . S
O82 C86 1.278 . S
C83 O84 1.203 . S
C83 O90 1.267 . S
O84 C83 1.203 . S
O85 C78 1.185 . S
O85 Zn81 2.086 . S
C86 O82 1.278 . S
C86 O87 1.211 . S
O87 C86 1.211 . S
C88 O80 1.284 . S
C88 O89 1.273 . S
O89 C88 1.273 . S
O90 Zn81 1.977 . S
O90 C83 1.267 . S
C91 O92 1.160 . S
C91 O98 1.185 . S
O92 C91 1.160 . S
O93 Zn94 1.899 . S
O93 C101 1.284 . S
Zn94 O93 1.899 . S
Zn94 O95 2.032 . S
Zn94 O98 2.086 . S
Zn94 O103 1.977 . S
O95 Zn94 2.032 . S
O95 C99 1.278 . S
C96 O97 1.203 . S
C96 O103 1.267 . S
O97 C96 1.203 . S
O98 C91 1.185 . S
O98 Zn94 2.086 . S
C99 O95 1.278 . S
C99 O100 1.211 . S
O100 C99 1.211 . S
C101 O93 1.284 . S
C101 O102 1.273 . S
O102 C101 1.273 . S
O103 Zn94 1.977 . S
O103 C96 1.267 . S
C104 O105 1.160 . S
C104 O111 1.185 . S
O105 C104 1.160 . S
O106 Zn107 1.899 . S
O106 C114 1.284 . S
Zn107 O106 1.899 . S
Zn107 O108 2.032 . S
Zn107 O111 2.086 . S
Zn107 O116 1.977 . S
O108 Zn107 2.032 . S
O108 C112 1.278 . S
C109 O110 1.203 . S
C109 O116 1.267 . S
O110 C109 1.203 . S
O111 C104 1.185 . S
O111 Zn107 2.086 . S
C112 O108 1.278 . S
C112 O113 1.211 . S
O113 C112 1.211 . S
C114 O106 1.284 . S
C114 O115 1.273 . S
O115 C114 1.273 . S
O116 Zn107 1.977 . S
O116 C109 1.267 . S
C117 O118 1.160 . S
C117 O124 1.185 . S
O118 C117 1.160 . S
O119 Zn120 1.899 . S
O119 C127 1.284 . S
Zn120 O119 1.899 . S
Zn120 O121 2.032 . S
Zn120 O124 2.086 . S
Zn120 O129 1.977 . S
O121 Zn120 2.032 . S
O121 C125 1.278 . S
C122 O123 1.203 . S
C122 O129 1.267 . S
O123 C122 1.203 . S
O124 C117 1.185 . S
O124 Zn120 2.086 . S
C125 O121 1.278 . S
C125 O126 1.211 . S
O126 C125 1.211 . S
C127 O119 1.284 . S
C127 O128 1.273 . S
O128 C127 1.273 . S
O129 Zn120 1.977 . S
O129 C122 1.267 . S
C130 O131 1.160 . S
C130 O137 1.185 . S
O131 C130 1.160 . S
O132 Zn133 1.899 . S
O132 C140 1.284 . S
Zn133 O132 1.899 . S
Zn133 O134 2.032 . S
Zn133 O137 2.086 . S
Zn133 O142 1.977 . S
O134 Zn133 2.032 . S
O134 C138 1.278 . S
C135 O136 1.203 . S
C135 O142 1.267 . S
O136 C135 1.203 . S
O137 C130 1.185 . S
O137 Zn133 2.086 . S
C138 O134 1.278 . S
C138 O139 1.211 . S
O139 C138 1.211 . S
C140 O132 1.284 . S
C140 O141 1.273 . S
O141 C140 1.273 . S
O142 Zn133 1.977 . S
O142 C135 1.267 . S
C143 O144 1.160 . S
C143 O150 1.185 . S
O144 C143 1.160 . S
O145 Zn146 1.899 . S
O145 C153 1.284 . S
Zn146 O145 1.899 . S
Zn146 O147 2.032 . S
Zn146 O150 2.086 . S
Zn146 O155 1.977 . S
O147 Zn146 2.032 . S
O147 C151 1.278 . S
C148 O149 1.203 . S
C148 O155 1.267 . S
O149 C148 1.203 . S
O150 C143 1.185 . S
O150 Zn146 2.086 . S
C151 O147 1.278 . S
C151 O152 1.211 . S
O152 C151 1.211 . S
C153 O145 1.284 . S
C153 O154 1.273 . S
O154 C153 1.273 . S
O155 Zn146 1.977 . S
O155 C148 1.267 . S
C156 O157 1.160 . S
C156 O163 1.185 . S
O157 C156 1.160 . S
O158 Zn159 1.899 . S
O158 C166 1.284 . S
Zn159 O158 1.899 . S
Zn159 O160 2.032 . S
Zn159 O163 2.086 . S
Zn159 O168 1.977 . S
O160 Zn159 2.032 . S
O160 C164 1.278 . S
C161 O162 1.203 . S
C161 O168 1.267 . S
O162 C161 1.203 . S
O163 C156 1.185 . S
O163 Zn159 2.086 . S
C164 O160 1.278 . S
C164 O165 1.211 . S
O165 C164 1.211 . S
C166 O158 1.284 . S
C166 O167 1.273 . S
O167 C166 1.273 . S
O168 Zn159 1.977 . S
O168 C161 1.267 . S
C169 O170 1.160 . S
C169 O176 1.185 . S
O170 C169 1.160 . S
O171 Zn172 1.899 . S
O171 C179 1.284 . S
Zn172 O171 1.899 . S
Zn172 O173 2.032 . S
Zn172 O176 2.086 . S
Zn172 O181 1.977 . S
O173 Zn172 2.032 . S
O173 C177 1.278 . S
C174 O175 1.203 . S
C174 O181 1.267 . S
O175 C174 1.203 . S
O176 C169 1.185 . S
O176 Zn172 2.086 . S
C177 O173 1.278 . S
C177 O178 1.211 . S
O178 C177 1.211 . S
C179 O171 1.284 . S
C179 O180 1.273 . S
O180 C179 1.273 . S
O181 Zn172 1.977 . S
O181 C174 1.267 . S
C182 O183 1.160 . S
C182 O189 1.185 . S
O183 C182 1.160 . S
O184 Zn185 1.899 . S
O184 C192 1.284 . S
Zn185 O184 1.899 . S
Zn185 O186 2.032 . S
Zn185 O189 2.086 . S
Zn185 O194 1.977 . S
O186 Zn185 2.032 . S
O186 C190 1.278 . S
C187 O188 1.203 . S
C187 O194 1.267 . S
O188 C187 1.203 . S
O189 C182 1.185 . S
O189 Zn185 2.086 . S
C190 O186 1.278 . S
C190 O191 1.211 . S
O191 C190 1.211 . S
C192 O184 1.284 . S
C192 O193 1.273 . S
O193 C192 1.273 . S
O194 Zn185 1.977 . S
O194 C187 1.267 . S
C195 O196 1.160 . S
C195 O202 1.185 . S
O196 C195 1.160 . S
O197 Zn198 1.899 . S
O197 C205 1.284 . S
Zn198 O197 1.899 . S
Zn198 O199 2.032 . S
Zn198 O202 2.086 . S
Zn198 O207 1.977 . S
O199 Zn198 2.032 . S
O199 C203 1.278 . S
C200 O201 1.203 . S
C200 O207 1.267 . S
O201 C200 1.203 . S
O202 C195 1.185 . S
O202 Zn198 2.086 . S
C203 O199 1.278 . S
C203 O204 1.211 . S
O204 C203 1.211 . S
C205 O197 1.284 . S
C205 O206 1.273 . S
O206 C205 1.273 . S
O207 Zn198 1.977 . S
O207 C200 1.267 . S
H208 C226 0.951 . S
H209 C228 0.951 . S
H210 C230 0.950 . S
H211 C231 0.950 1_556 S
H212 C233 0.950 . S
H213 C236 0.950 . S
H214 C237 0.950 . S
H215 C239 0.950 . S
H216 C240 0.950 . S
H217 C241 0.951 . S
H218 C243 0.951 . S
H219 C245 0.950 1_554 S
H220 C246 0.950 . S
H221 C248 0.937 1_554 S
H222 C251 0.950 . S
H223 C252 0.950 . S
H224 C254 0.950 . S
H225 C255 0.950 . S
C226 H208 0.951 . S
C226 C227 1.366 . S
C226 C228 1.388 . S
C227 C226 1.366 . S
C227 C231 1.385 . S
C228 H209 0.951 . S
C228 C226 1.388 . S
C228 C229 1.366 . S
C229 C228 1.366 . S
C229 C230 1.414 1_554 S
C229 C232 1.499 1_554 S
C230 H210 0.950 . S
C230 C229 1.414 1_556 S
C230 C231 1.374 1_556 S
C231 H211 0.950 1_554 S
C231 C227 1.385 . S
C231 C230 1.374 1_554 S
C232 C229 1.499 1_556 S
C232 C233 1.373 . S
C232 C234 1.389 1_556 S
C233 H212 0.950 . S
C233 C232 1.373 . S
C233 C249 1.377 . S
C234 C232 1.389 1_554 S
C234 C235 1.524 . S
C234 C248 1.365 1_554 S
C235 C234 1.524 . S
C235 C236 1.397 . S
C235 C240 1.363 . S
C236 H213 0.950 . S
C236 C235 1.397 . S
C236 C237 1.334 . S
C237 H214 0.950 . S
C237 C236 1.334 . S
C237 C238 1.287 . S
C238 C237 1.287 . S
C238 C239 1.524 . S
C238 H257 0.913 . S
C239 H215 0.950 . S
C239 C238 1.524 . S
C239 C240 1.415 . S
C240 H216 0.950 . S
C240 C235 1.363 . S
C240 C239 1.415 . S
C241 H217 0.951 . S
C241 C242 1.366 . S
C241 C243 1.388 . S
C242 C241 1.366 . S
C242 C246 1.385 . S
C243 H218 0.951 . S
C243 C241 1.388 . S
C243 C244 1.366 . S
C244 C243 1.366 . S
C244 C245 1.414 . S
C244 C247 1.499 . S
C245 H219 0.950 1_556 S
C245 C244 1.414 . S
C245 C246 1.374 . S
C246 H220 0.950 . S
C246 C242 1.385 . S
C246 C245 1.374 . S
C247 C244 1.499 . S
C247 C248 1.399 . S
C247 C249 1.389 . S
C248 H221 0.937 1_556 S
C248 C234 1.365 1_556 S
C248 C247 1.399 . S
C249 C233 1.377 . S
C249 C247 1.389 . S
C249 C250 1.524 . S
C250 C249 1.524 . S
C250 C251 1.397 . S
C250 C255 1.363 . S
C251 H222 0.950 . S
C251 C250 1.397 . S
C251 C252 1.334 . S
C252 H223 0.950 . S
C252 C251 1.334 . S
C252 C253 1.287 . S
C253 C252 1.287 . S
C253 C254 1.524 . S
C253 H256 0.999 . S
C254 H224 0.950 . S
C254 C253 1.524 . S
C254 C255 1.415 . S
C255 H225 0.950 . S
C255 C250 1.363 . S
C255 C254 1.415 . S
H256 C253 0.999 . S
H257 C238 0.913 . S
H258 C276 0.951 . S
H259 C278 0.951 . S
H260 C280 0.950 . S
H261 C281 0.950 . S
H262 C283 0.950 . S
H263 C286 0.950 . S
H264 C287 0.950 . S
H265 C289 0.950 . S
H266 C290 0.950 . S
H267 C291 0.951 . S
H268 C293 0.951 1_556 S
H269 C295 0.950 . S
H270 C296 0.950 . S
H271 C298 0.950 . S
H272 C301 0.950 . S
H273 C302 0.950 . S
H274 C304 0.950 . S
H275 C305 0.950 . S
C276 H258 0.951 . S
C276 C277 1.366 . S
C276 C278 1.388 . S
C277 C276 1.366 . S
C277 C281 1.385 . S
C278 H259 0.951 . S
C278 C276 1.388 . S
C278 C279 1.366 . S
C279 C278 1.366 . S
C279 C280 1.414 . S
C279 C282 1.499 . S
C280 H260 0.950 . S
C280 C279 1.414 . S
C280 C281 1.374 . S
C281 H261 0.950 . S
C281 C277 1.385 . S
C281 C280 1.374 . S
C282 C279 1.499 . S
C282 C283 1.373 . S
C282 C284 1.389 1_556 S
C283 H262 0.950 . S
C283 C282 1.373 . S
C283 C299 1.377 . S
C284 C282 1.389 1_554 S
C284 C285 1.524 . S
C284 C298 1.377 . S
C285 C284 1.524 . S
C285 C286 1.397 . S
C285 C290 1.363 . S
C286 H263 0.950 . S
C286 C285 1.397 . S
C286 C287 1.334 . S
C287 H264 0.950 . S
C287 C286 1.334 . S
C287 C288 1.287 . S
C288 C287 1.287 . S
C288 C289 1.524 . S
C288 H307 0.913 . S
C289 H265 0.950 . S
C289 C288 1.524 . S
C289 C290 1.415 . S
C290 H266 0.950 . S
C290 C285 1.363 . S
C290 C289 1.415 . S
C291 H267 0.951 . S
C291 C292 1.366 . S
C291 C293 1.388 . S
C292 C291 1.366 . S
C292 C296 1.385 . S
C293 H268 0.951 1_554 S
C293 C291 1.388 . S
C293 C294 1.366 . S
C294 C293 1.366 . S
C294 C295 1.414 . S
C294 C297 1.499 1_554 S
C295 H269 0.950 . S
C295 C294 1.414 . S
C295 C296 1.374 . S
C296 H270 0.950 . S
C296 C292 1.385 . S
C296 C295 1.374 . S
C297 C294 1.499 1_556 S
C297 C298 1.373 1_556 S
C297 C299 1.389 . S
C298 H271 0.950 . S
C298 C284 1.377 . S
C298 C297 1.373 1_554 S
C299 C283 1.377 . S
C299 C297 1.389 . S
C299 C300 1.524 . S
C300 C299 1.524 . S
C300 C301 1.397 . S
C300 C305 1.363 . S
C301 H272 0.950 . S
C301 C300 1.397 . S
C301 C302 1.334 . S
C302 H273 0.950 . S
C302 C301 1.334 . S
C302 C303 1.287 . S
C303 C302 1.287 . S
C303 C304 1.524 . S
C303 H306 0.999 . S
C304 H274 0.950 . S
C304 C303 1.524 . S
C304 C305 1.415 . S
C305 H275 0.950 . S
C305 C300 1.363 . S
C305 C304 1.415 . S
H306 C303 0.999 . S
H307 C288 0.913 . S
H308 C326 0.951 . S
H309 C328 0.951 . S
H310 C330 0.950 . S
H311 C331 0.950 . S
H312 C333 0.963 . S
H313 C336 0.950 . S
H314 C337 0.950 . S
H315 C339 0.950 . S
H316 C340 0.950 . S
H317 C341 0.951 . S
H318 C343 0.951 . S
H319 C345 0.950 . S
H320 C346 0.950 . S
H321 C348 0.950 . S
H322 C351 0.950 . S
H323 C352 0.950 . S
H324 C354 0.950 . S
H325 C355 0.950 . S
C326 H308 0.951 . S
C326 C327 1.366 . S
C326 C328 1.388 . S
C327 C326 1.366 . S
C327 C331 1.385 . S
C328 H309 0.951 . S
C328 C326 1.388 . S
C328 C329 1.366 . S
C329 C328 1.366 . S
C329 C330 1.414 . S
C329 C332 1.499 . S
C330 H310 0.950 . S
C330 C329 1.414 . S
C330 C331 1.374 . S
C331 H311 0.950 . S
C331 C327 1.385 . S
C331 C330 1.374 . S
C332 C329 1.499 . S
C332 C333 1.350 1_556 S
C332 C334 1.389 . S
C333 H312 0.963 . S
C333 C332 1.350 1_554 S
C333 C349 1.388 . S
C334 C332 1.389 . S
C334 C335 1.524 . S
C334 C348 1.377 . S
C335 C334 1.524 . S
C335 C336 1.397 . S
C335 C340 1.363 . S
C336 H313 0.950 . S
C336 C335 1.397 . S
C336 C337 1.334 . S
C337 H314 0.950 . S
C337 C336 1.334 . S
C337 C338 1.287 . S
C338 C337 1.287 . S
C338 C339 1.524 . S
C338 H357 0.913 . S
C339 H315 0.950 . S
C339 C338 1.524 . S
C339 C340 1.415 . S
C340 H316 0.950 . S
C340 C335 1.363 . S
C340 C339 1.415 . S
C341 H317 0.951 . S
C341 C342 1.366 . S
C341 C343 1.388 . S
C342 C341 1.366 . S
C342 C346 1.385 . S
C343 H318 0.951 . S
C343 C341 1.388 . S
C343 C344 1.366 . S
C344 C343 1.366 . S
C344 C345 1.414 . S
C344 C347 1.498 . S
C345 H319 0.950 . S
C345 C344 1.414 . S
C345 C346 1.374 . S
C346 H320 0.950 . S
C346 C342 1.385 . S
C346 C345 1.374 . S
C347 C344 1.498 . S
C347 C348 1.375 1_554 S
C347 C349 1.389 . S
C348 H321 0.950 . S
C348 C334 1.377 . S
C348 C347 1.375 1_556 S
C349 C333 1.388 . S
C349 C347 1.389 . S
C349 C350 1.524 . S
C350 C349 1.524 . S
C350 C351 1.397 . S
C350 C355 1.363 . S
C351 H322 0.950 . S
C351 C350 1.397 . S
C351 C352 1.334 . S
C352 H323 0.950 . S
C352 C351 1.334 . S
C352 C353 1.287 . S
C353 C352 1.287 . S
C353 C354 1.524 . S
C353 H356 0.999 . S
C354 H324 0.950 . S
C354 C353 1.524 . S
C354 C355 1.415 . S
C355 H325 0.950 . S
C355 C350 1.363 . S
C355 C354 1.415 . S
H356 C353 0.999 . S
H357 C338 0.913 . S
H358 C376 0.951 . S
H359 C378 0.950 . S
H360 C380 0.950 . S
H361 C381 0.950 . S
H362 C383 0.950 . S
H363 C386 0.950 . S
H364 C387 0.950 . S
H365 C389 0.950 . S
H366 C390 0.950 . S
H367 C391 0.951 1_556 S
H368 C393 0.951 . S
H369 C395 0.950 . S
H370 C396 0.950 . S
H371 C398 0.950 . S
H372 C401 0.950 . S
H373 C402 0.965 . S
H374 C404 0.934 1_545 S
H375 C405 0.950 . S
C376 H358 0.951 . S
C376 C377 1.366 . S
C376 C378 1.388 . S
C377 C376 1.366 . S
C377 C381 1.385 . S
C378 H359 0.950 . S
C378 C376 1.388 . S
C378 C379 1.366 . S
C379 C378 1.366 . S
C379 C380 1.414 . S
C379 C382 1.499 . S
C380 H360 0.950 . S
C380 C379 1.414 . S
C380 C381 1.374 . S
C381 H361 0.950 . S
C381 C377 1.385 . S
C381 C380 1.374 . S
C382 C379 1.499 . S
C382 C383 1.373 . S
C382 C384 1.389 . S
C383 H362 0.950 . S
C383 C382 1.373 . S
C383 C399 1.377 . S
C384 C382 1.389 . S
C384 C385 1.524 . S
C384 C398 1.377 1_556 S
C385 C384 1.524 . S
C385 C386 1.397 . S
C385 C390 1.363 1_556 S
C386 H363 0.950 . S
C386 C385 1.397 . S
C386 C387 1.334 . S
C387 H364 0.950 . S
C387 C386 1.334 . S
C387 C388 1.287 . S
C388 C387 1.287 . S
C388 C389 1.524 1_556 S
C388 H407 0.913 . S
C389 H365 0.950 . S
C389 C388 1.524 1_554 S
C389 C390 1.415 . S
C390 H366 0.950 . S
C390 C385 1.363 1_554 S
C390 C389 1.415 . S
C391 H367 0.951 1_554 S
C391 C392 1.366 . S
C391 C393 1.388 1_554 S
C392 C391 1.366 . S
C392 C396 1.385 . S
C393 H368 0.951 . S
C393 C391 1.388 1_556 S
C393 C394 1.366 1_556 S
C394 C393 1.366 1_554 S
C394 C395 1.414 . S
C394 C397 1.497 . S
C395 H369 0.950 . S
C395 C394 1.414 . S
C395 C396 1.374 . S
C396 H370 0.950 . S
C396 C392 1.385 . S
C396 C395 1.374 . S
C397 C394 1.497 . S
C397 C398 1.373 . S
C397 C399 1.391 1_554 S
C398 H371 0.950 . S
C398 C384 1.377 1_554 S
C398 C397 1.373 . S
C399 C383 1.377 . S
C399 C397 1.391 1_556 S
C399 C400 1.524 . S
C400 C399 1.524 . S
C400 C401 1.397 1_556 S
C400 C405 1.363 . S
C401 H372 0.950 . S
C401 C400 1.397 1_554 S
C401 C402 1.334 . S
C402 H373 0.965 . S
C402 C401 1.334 . S
C402 C403 1.287 1_564 S
C403 C402 1.287 1_546 S
C403 C404 1.524 1_545 S
C403 H406 0.999 . S
C404 H374 0.934 1_565 S
C404 C403 1.524 1_565 S
C404 C405 1.415 . S
C405 H375 0.950 . S
C405 C400 1.363 . S
C405 C404 1.415 . S
H406 C403 0.999 . S
H407 C388 0.913 . S
H408 C426 0.951 . S
H409 C428 0.951 . S
H410 C430 0.950 . S
H411 C431 0.950 . S
H412 C433 0.950 . S
H413 C436 0.950 . S
H414 C437 0.950 . S
H415 C439 0.950 . S
H416 C440 0.950 . S
H417 C441 0.951 . S
H418 C443 0.951 . S
H419 C445 0.950 . S
H420 C446 0.950 . S
H421 C448 0.950 . S
H422 C451 0.950 . S
H423 C452 0.950 . S
H424 C454 0.950 . S
H425 C455 0.950 . S
C426 H408 0.951 . S
C426 C427 1.366 . S
C426 C428 1.388 . S
C427 C426 1.366 . S
C427 C431 1.385 . S
C428 H409 0.951 . S
C428 C426 1.388 . S
C428 C429 1.366 . S
C429 C428 1.366 . S
C429 C430 1.414 . S
C429 C432 1.499 . S
C430 H410 0.950 . S
C430 C429 1.414 . S
C430 C431 1.374 . S
C431 H411 0.950 . S
C431 C427 1.385 . S
C431 C430 1.374 . S
C432 C429 1.499 . S
C432 C433 1.373 . S
C432 C434 1.389 . S
C433 H412 0.950 . S
C433 C432 1.373 . S
C433 C449 1.377 . S
C434 C432 1.389 . S
C434 C435 1.524 . S
C434 C448 1.377 . S
C435 C434 1.524 . S
C435 C436 1.397 . S
C435 C440 1.363 . S
C436 H413 0.950 . S
C436 C435 1.397 . S
C436 C437 1.334 . S
C437 H414 0.950 . S
C437 C436 1.334 . S
C437 C438 1.287 . S
C438 C437 1.287 . S
C438 C439 1.524 . S
C438 H457 0.913 . S
C439 H415 0.950 . S
C439 C438 1.524 . S
C439 C440 1.415 . S
C440 H416 0.950 . S
C440 C435 1.363 . S
C440 C439 1.415 . S
C441 H417 0.951 . S
C441 C442 1.366 . S
C441 C443 1.388 . S
C442 C441 1.366 . S
C442 C446 1.385 . S
C443 H418 0.951 . S
C443 C441 1.388 . S
C443 C444 1.366 . S
C444 C443 1.366 . S
C444 C445 1.414 . S
C444 C447 1.499 . S
C445 H419 0.950 . S
C445 C444 1.414 . S
C445 C446 1.374 . S
C446 H420 0.950 . S
C446 C442 1.385 . S
C446 C445 1.374 . S
C447 C444 1.499 . S
C447 C448 1.373 . S
C447 C449 1.389 . S
C448 H421 0.950 . S
C448 C434 1.377 . S
C448 C447 1.373 . S
C449 C433 1.377 . S
C449 C447 1.389 . S
C449 C450 1.524 . S
C450 C449 1.524 . S
C450 C451 1.397 . S
C450 C455 1.363 . S
C451 H422 0.950 . S
C451 C450 1.397 . S
C451 C452 1.334 . S
C452 H423 0.950 . S
C452 C451 1.334 . S
C452 C453 1.287 . S
C453 C452 1.287 . S
C453 C454 1.524 . S
C453 H456 0.999 . S
C454 H424 0.950 . S
C454 C453 1.524 . S
C454 C455 1.415 . S
C455 H425 0.950 . S
C455 C450 1.363 . S
C455 C454 1.415 . S
H456 C453 0.999 . S
H457 C438 0.913 . S
H458 C476 0.951 . S
H459 C478 0.951 . S
H460 C480 0.950 . S
H461 C481 0.950 . S
H462 C483 0.950 . S
H463 C486 0.950 . S
H464 C487 0.950 . S
H465 C489 0.950 . S
H466 C490 0.950 . S
H467 C491 0.951 . S
H468 C493 0.951 . S
H469 C495 0.950 . S
H470 C496 0.950 . S
H471 C498 0.950 . S
H472 C501 0.950 . S
H473 C502 0.950 . S
H474 C504 0.950 . S
H475 C505 0.950 . S
C476 H458 0.951 . S
C476 C477 1.366 . S
C476 C478 1.388 . S
C477 C476 1.366 . S
C477 C481 1.385 . S
C478 H459 0.951 . S
C478 C476 1.388 . S
C478 C479 1.366 . S
C479 C478 1.366 . S
C479 C480 1.414 . S
C479 C482 1.499 . S
C480 H460 0.950 . S
C480 C479 1.414 . S
C480 C481 1.374 . S
C481 H461 0.950 . S
C481 C477 1.385 . S
C481 C480 1.374 . S
C482 C479 1.499 . S
C482 C483 1.373 . S
C482 C484 1.389 . S
C483 H462 0.950 . S
C483 C482 1.373 . S
C483 C499 1.377 . S
C484 C482 1.389 . S
C484 C485 1.524 . S
C484 C498 1.377 . S
C485 C484 1.524 . S
C485 C486 1.397 . S
C485 C490 1.363 . S
C486 H463 0.950 . S
C486 C485 1.397 . S
C486 C487 1.334 . S
C487 H464 0.950 . S
C487 C486 1.334 . S
C487 C488 1.287 . S
C488 C487 1.287 . S
C488 C489 1.524 . S
C488 H507 0.913 . S
C489 H465 0.950 . S
C489 C488 1.524 . S
C489 C490 1.415 . S
C490 H466 0.950 . S
C490 C485 1.363 . S
C490 C489 1.415 . S
C491 H467 0.951 . S
C491 C492 1.366 . S
C491 C493 1.388 . S
C492 C491 1.366 . S
C492 C496 1.385 . S
C493 H468 0.951 . S
C493 C491 1.388 . S
C493 C494 1.366 . S
C494 C493 1.366 . S
C494 C495 1.414 . S
C494 C497 1.499 . S
C495 H469 0.950 . S
C495 C494 1.414 . S
C495 C496 1.374 . S
C496 H470 0.950 . S
C496 C492 1.385 . S
C496 C495 1.374 . S
C497 C494 1.499 . S
C497 C498 1.373 . S
C497 C499 1.389 . S
C498 H471 0.950 . S
C498 C484 1.377 . S
C498 C497 1.373 . S
C499 C483 1.377 . S
C499 C497 1.389 . S
C499 C500 1.524 . S
C500 C499 1.524 . S
C500 C501 1.397 . S
C500 C505 1.363 . S
C501 H472 0.950 . S
C501 C500 1.397 . S
C501 C502 1.334 . S
C502 H473 0.950 . S
C502 C501 1.334 . S
C502 C503 1.287 . S
C503 C502 1.287 . S
C503 C504 1.524 . S
C503 H506 0.999 . S
C504 H474 0.950 . S
C504 C503 1.524 . S
C504 C505 1.415 . S
C505 H475 0.950 . S
C505 C500 1.363 . S
C505 C504 1.415 . S
H506 C503 0.999 . S
H507 C488 0.913 . S
H508 C526 0.951 . S
H509 C528 0.951 . S
H510 C530 0.950 . S
H511 C531 0.950 . S
H512 C533 0.950 . S
H513 C536 0.950 . S
H514 C537 0.950 . S
H515 C539 0.950 . S
H516 C540 0.950 . S
H517 C541 0.951 . S
H518 C543 0.951 . S
H519 C545 0.950 . S
H520 C546 0.950 . S
H521 C548 0.950 . S
H522 C551 0.950 . S
H523 C552 0.950 . S
H524 C554 0.950 1_455 S
H525 C555 0.950 . S
C526 H508 0.951 . S
C526 C527 1.366 . S
C526 C528 1.388 . S
C527 C526 1.366 . S
C527 C531 1.385 . S
C528 H509 0.951 . S
C528 C526 1.388 . S
C528 C529 1.366 . S
C529 C528 1.366 . S
C529 C530 1.414 . S
C529 C532 1.499 . S
C530 H510 0.950 . S
C530 C529 1.414 . S
C530 C531 1.374 . S
C531 H511 0.950 . S
C531 C527 1.385 . S
C531 C530 1.374 . S
C532 C529 1.499 . S
C532 C533 1.373 . S
C532 C534 1.389 . S
C533 H512 0.950 . S
C533 C532 1.373 . S
C533 C549 1.377 . S
C534 C532 1.389 . S
C534 C535 1.524 . S
C534 C548 1.377 . S
C535 C534 1.524 . S
C535 C536 1.397 . S
C535 C540 1.363 . S
C536 H513 0.950 . S
C536 C535 1.397 . S
C536 C537 1.334 . S
C537 H514 0.950 . S
C537 C536 1.334 . S
C537 C538 1.287 . S
C538 C537 1.287 . S
C538 C539 1.524 . S
C538 H557 0.913 . S
C539 H515 0.950 . S
C539 C538 1.524 . S
C539 C540 1.415 . S
C540 H516 0.950 . S
C540 C535 1.363 . S
C540 C539 1.415 . S
C541 H517 0.951 . S
C541 C542 1.366 . S
C541 C543 1.388 . S
C542 C541 1.366 . S
C542 C546 1.385 . S
C543 H518 0.951 . S
C543 C541 1.388 . S
C543 C544 1.366 . S
C544 C543 1.366 . S
C544 C545 1.414 . S
C544 C547 1.499 . S
C545 H519 0.950 . S
C545 C544 1.414 . S
C545 C546 1.374 . S
C546 H520 0.950 . S
C546 C542 1.385 . S
C546 C545 1.374 . S
C547 C544 1.499 . S
C547 C548 1.373 . S
C547 C549 1.389 . S
C548 H521 0.950 . S
C548 C534 1.377 . S
C548 C547 1.373 . S
C549 C533 1.377 . S
C549 C547 1.389 . S
C549 C550 1.524 . S
C550 C549 1.524 . S
C550 C551 1.397 . S
C550 C555 1.363 . S
C551 H522 0.950 . S
C551 C550 1.397 . S
C551 C552 1.334 . S
C552 H523 0.950 . S
C552 C551 1.334 . S
C552 C553 1.269 1_655 S
C553 C552 1.269 1_455 S
C553 C554 1.519 1_455 S
C553 H556 1.026 . S
C554 H524 0.950 1_655 S
C554 C553 1.519 1_655 S
C554 C555 1.415 . S
C555 H525 0.950 . S
C555 C550 1.363 . S
C555 C554 1.415 . S
H556 C553 1.026 . S
H557 C538 0.913 . S
H558 C576 0.951 . S
H559 C578 0.951 . S
H560 C580 0.950 . S
H561 C581 0.950 . S
H562 C583 0.950 . S
H563 C586 0.950 . S
H564 C587 0.950 . S
H565 C589 0.950 . S
H566 C590 0.950 . S
H567 C591 0.951 . S
H568 C593 0.951 . S
H569 C595 0.950 . S
H570 C596 0.950 . S
H571 C598 0.950 . S
H572 C601 0.950 . S
H573 C602 0.950 . S
H574 C604 0.950 . S
H575 C605 0.950 . S
C576 H558 0.951 . S
C576 C577 1.366 . S
C576 C578 1.388 . S
C577 C576 1.366 . S
C577 C581 1.385 . S
C578 H559 0.951 . S
C578 C576 1.388 . S
C578 C579 1.366 . S
C579 C578 1.366 . S
C579 C580 1.414 . S
C579 C582 1.499 . S
C580 H560 0.950 . S
C580 C579 1.414 . S
C580 C581 1.374 . S
C581 H561 0.950 . S
C581 C577 1.385 . S
C581 C580 1.374 . S
C582 C579 1.499 . S
C582 C583 1.373 . S
C582 C584 1.389 . S
C583 H562 0.950 . S
C583 C582 1.373 . S
C583 C599 1.377 . S
C584 C582 1.389 . S
C584 C585 1.524 . S
C584 C598 1.377 . S
C585 C584 1.524 . S
C585 C586 1.397 . S
C585 C590 1.363 . S
C586 H563 0.950 . S
C586 C585 1.397 . S
C586 C587 1.334 . S
C587 H564 0.950 . S
C587 C586 1.334 . S
C587 C588 1.287 . S
C588 C587 1.287 . S
C588 C589 1.524 . S
C588 H607 0.913 . S
C589 H565 0.950 . S
C589 C588 1.524 . S
C589 C590 1.415 . S
C590 H566 0.950 . S
C590 C585 1.363 . S
C590 C589 1.415 . S
C591 H567 0.951 . S
C591 C592 1.366 . S
C591 C593 1.388 . S
C592 C591 1.366 . S
C592 C596 1.385 . S
C593 H568 0.951 . S
C593 C591 1.388 . S
C593 C594 1.366 . S
C594 C593 1.366 . S
C594 C595 1.414 . S
C594 C597 1.499 . S
C595 H569 0.950 . S
C595 C594 1.414 . S
C595 C596 1.374 . S
C596 H570 0.950 . S
C596 C592 1.385 . S
C596 C595 1.374 . S
C597 C594 1.499 . S
C597 C598 1.373 . S
C597 C599 1.389 . S
C598 H571 0.950 . S
C598 C584 1.377 . S
C598 C597 1.373 . S
C599 C583 1.377 . S
C599 C597 1.389 . S
C599 C600 1.524 . S
C600 C599 1.524 . S
C600 C601 1.397 . S
C600 C605 1.363 . S
C601 H572 0.950 . S
C601 C600 1.397 . S
C601 C602 1.334 . S
C602 H573 0.950 . S
C602 C601 1.334 . S
C602 C603 1.287 . S
C603 C602 1.287 . S
C603 C604 1.524 . S
C603 H606 0.999 . S
C604 H574 0.950 . S
C604 C603 1.524 . S
C604 C605 1.415 . S
C605 H575 0.950 . S
C605 C600 1.363 . S
C605 C604 1.415 . S
H606 C603 0.999 . S
H607 C588 0.913 . S
H608 C626 0.951 . S
H609 C628 0.951 . S
H610 C630 0.959 . S
H611 C631 0.950 . S
H612 C633 0.950 . S
H613 C636 0.950 . S
H614 C637 0.950 . S
H615 C639 0.950 . S
H616 C640 0.950 . S
H617 C641 0.951 . S
H618 C643 0.951 . S
H619 C645 0.950 . S
H620 C646 0.950 . S
H621 C648 0.950 . S
H622 C651 0.950 . S
H623 C652 0.950 . S
H624 C654 0.950 . S
H625 C655 0.950 1_554 S
C626 H608 0.951 . S
C626 C627 1.366 . S
C626 C628 1.388 . S
C627 C626 1.366 . S
C627 C631 1.385 . S
C628 H609 0.951 . S
C628 C626 1.388 . S
C628 C629 1.366 . S
C629 C628 1.366 . S
C629 C630 1.414 . S
C629 C632 1.499 1_556 S
C630 H610 0.959 . S
C630 C629 1.414 . S
C630 C631 1.374 . S
C631 H611 0.950 . S
C631 C627 1.385 . S
C631 C630 1.374 . S
C632 C629 1.499 1_554 S
C632 C633 1.373 1_554 S
C632 C634 1.389 . S
C633 H612 0.950 . S
C633 C632 1.373 1_556 S
C633 C649 1.377 1_556 S
C634 C632 1.389 . S
C634 C635 1.524 . S
C634 C648 1.377 . S
C635 C634 1.524 . S
C635 C636 1.397 . S
C635 C640 1.363 . S
C636 H613 0.950 . S
C636 C635 1.397 . S
C636 C637 1.334 . S
C637 H614 0.950 . S
C637 C636 1.334 . S
C637 C638 1.287 . S
C638 C637 1.287 . S
C638 C639 1.524 . S
C638 H657 0.913 . S
C639 H615 0.950 . S
C639 C638 1.524 . S
C639 C640 1.415 . S
C640 H616 0.950 . S
C640 C635 1.363 . S
C640 C639 1.415 . S
C641 H617 0.951 . S
C641 C642 1.366 . S
C641 C643 1.388 . S
C642 C641 1.366 . S
C642 C646 1.385 . S
C643 H618 0.951 . S
C643 C641 1.388 . S
C643 C644 1.366 . S
C644 C643 1.366 . S
C644 C645 1.414 . S
C644 C647 1.499 . S
C645 H619 0.950 . S
C645 C644 1.414 . S
C645 C646 1.374 . S
C646 H620 0.950 . S
C646 C642 1.385 . S
C646 C645 1.374 . S
C647 C644 1.499 . S
C647 C648 1.373 . S
C647 C649 1.389 . S
C648 H621 0.950 . S
C648 C634 1.377 . S
C648 C647 1.373 . S
C649 C633 1.377 1_554 S
C649 C647 1.389 . S
C649 C650 1.524 1_554 S
C650 C649 1.524 1_556 S
C650 C651 1.397 . S
C650 C655 1.363 . S
C651 H622 0.950 . S
C651 C650 1.397 . S
C651 C652 1.334 . S
C652 H623 0.950 . S
C652 C651 1.334 . S
C652 C653 1.287 . S
C653 C652 1.287 . S
C653 C654 1.524 . S
C653 H656 0.999 . S
C654 H624 0.950 . S
C654 C653 1.524 . S
C654 C655 1.415 . S
C655 H625 0.950 1_556 S
C655 C650 1.363 . S
C655 C654 1.415 . S
H656 C653 0.999 . S
H657 C638 0.913 . S
H658 C676 0.951 . S
H659 C678 0.951 1_554 S
H660 C680 0.950 . S
H661 C681 0.950 . S
H662 C683 0.950 . S
H663 C686 0.950 . S
H664 C687 0.950 . S
H665 C689 0.950 . S
H666 C690 0.950 1_554 S
H667 C691 0.951 . S
H668 C693 0.951 . S
H669 C695 0.950 . S
H670 C696 0.950 . S
H671 C698 0.950 . S
H672 C701 0.950 . S
H673 C702 0.950 . S
H674 C704 0.950 . S
H675 C705 0.950 . S
C676 H658 0.951 . S
C676 C677 1.366 . S
C676 C678 1.388 . S
C677 C676 1.366 . S
C677 C681 1.385 . S
C678 H659 0.951 1_556 S
C678 C676 1.388 . S
C678 C679 1.366 . S
C679 C678 1.366 . S
C679 C680 1.414 . S
C679 C682 1.504 . S
C680 H660 0.950 . S
C680 C679 1.414 . S
C680 C681 1.374 . S
C681 H661 0.950 . S
C681 C677 1.385 . S
C681 C680 1.374 . S
C682 C679 1.504 . S
C682 C683 1.365 1_556 S
C682 C684 1.391 . S
C683 H662 0.950 . S
C683 C682 1.365 1_554 S
C683 C699 1.377 . S
C684 C682 1.391 . S
C684 C685 1.524 . S
C684 C698 1.377 1_556 S
C685 C684 1.524 . S
C685 C686 1.397 . S
C685 C690 1.363 . S
C686 H663 0.950 . S
C686 C685 1.397 . S
C686 C687 1.334 . S
C687 H664 0.950 . S
C687 C686 1.334 . S
C687 C688 1.287 . S
C688 C687 1.287 . S
C688 C689 1.524 . S
C688 H707 0.913 . S
C689 H665 0.950 . S
C689 C688 1.524 . S
C689 C690 1.415 . S
C690 H666 0.950 1_556 S
C690 C685 1.363 . S
C690 C689 1.415 . S
C691 H667 0.951 . S
C691 C692 1.366 . S
C691 C693 1.388 . S
C692 C691 1.366 . S
C692 C696 1.385 . S
C693 H668 0.951 . S
C693 C691 1.388 . S
C693 C694 1.366 . S
C694 C693 1.366 . S
C694 C695 1.414 . S
C694 C697 1.499 . S
C695 H669 0.950 . S
C695 C694 1.414 . S
C695 C696 1.374 . S
C696 H670 0.950 . S
C696 C692 1.385 . S
C696 C695 1.374 . S
C697 C694 1.499 . S
C697 C698 1.373 . S
C697 C699 1.389 . S
C698 H671 0.950 . S
C698 C684 1.377 1_554 S
C698 C697 1.373 . S
C699 C683 1.377 . S
C699 C697 1.389 . S
C699 C700 1.524 . S
C700 C699 1.524 . S
C700 C701 1.397 . S
C700 C705 1.363 . S
C701 H672 0.950 . S
C701 C700 1.397 . S
C701 C702 1.334 . S
C702 H673 0.950 . S
C702 C701 1.334 . S
C702 C703 1.287 . S
C703 C702 1.287 . S
C703 C704 1.524 . S
C703 H706 0.999 . S
C704 H674 0.950 . S
C704 C703 1.524 . S
C704 C705 1.415 . S
C705 H675 0.950 . S
C705 C700 1.363 . S
C705 C704 1.415 . S
H706 C703 0.999 . S
H707 C688 0.913 . S
H708 C726 0.951 . S
H709 C728 0.951 . S
H710 C730 0.950 . S
H711 C731 0.950 . S
H712 C733 0.950 . S
H713 C736 0.950 . S
H714 C737 0.950 . S
H715 C739 0.950 . S
H716 C740 0.950 . S
H717 C741 0.951 . S
H718 C743 0.951 . S
H719 C745 0.950 . S
H720 C746 0.950 . S
H721 C748 0.967 . S
H722 C751 0.950 . S
H723 C752 0.950 . S
H724 C754 0.950 . S
H725 C755 0.950 . S
C726 H708 0.951 . S
C726 C727 1.366 . S
C726 C728 1.388 . S
C727 C726 1.366 . S
C727 C731 1.385 . S
C728 H709 0.951 . S
C728 C726 1.388 . S
C728 C729 1.366 . S
C729 C728 1.366 . S
C729 C730 1.414 . S
C729 C732 1.498 . S
C730 H710 0.950 . S
C730 C729 1.414 . S
C730 C731 1.374 . S
C731 H711 0.950 . S
C731 C727 1.385 . S
C731 C730 1.374 . S
C732 C729 1.498 . S
C732 C733 1.375 1_556 S
C732 C734 1.388 . S
C733 H712 0.950 . S
C733 C732 1.375 1_554 S
C733 C749 1.377 . S
C734 C732 1.388 . S
C734 C735 1.524 . S
C734 C748 1.392 . S
C735 C734 1.524 . S
C735 C736 1.397 . S
C735 C740 1.363 . S
C736 H713 0.950 . S
C736 C735 1.397 . S
C736 C737 1.334 . S
C737 H714 0.950 . S
C737 C736 1.334 . S
C737 C738 1.287 . S
C738 C737 1.287 . S
C738 C739 1.524 . S
C738 H757 0.913 . S
C739 H715 0.950 . S
C739 C738 1.524 . S
C739 C740 1.415 . S
C740 H716 0.950 . S
C740 C735 1.363 . S
C740 C739 1.415 . S
C741 H717 0.951 . S
C741 C742 1.366 . S
C741 C743 1.388 . S
C742 C741 1.366 . S
C742 C746 1.385 . S
C743 H718 0.951 . S
C743 C741 1.388 . S
C743 C744 1.366 . S
C744 C743 1.366 . S
C744 C745 1.414 . S
C744 C747 1.499 . S
C745 H719 0.950 . S
C745 C744 1.414 . S
C745 C746 1.374 . S
C746 H720 0.950 . S
C746 C742 1.385 . S
C746 C745 1.374 . S
C747 C744 1.499 . S
C747 C748 1.342 1_554 S
C747 C749 1.389 . S
C748 H721 0.967 . S
C748 C734 1.392 . S
C748 C747 1.342 1_556 S
C749 C733 1.377 . S
C749 C747 1.389 . S
C749 C750 1.524 . S
C750 C749 1.524 . S
C750 C751 1.397 . S
C750 C755 1.363 . S
C751 H722 0.950 . S
C751 C750 1.397 . S
C751 C752 1.334 . S
C752 H723 0.950 . S
C752 C751 1.334 . S
C752 C753 1.287 . S
C753 C752 1.287 . S
C753 C754 1.524 . S
C753 H756 0.999 . S
C754 H724 0.950 . S
C754 C753 1.524 . S
C754 C755 1.415 . S
C755 H725 0.950 . S
C755 C750 1.363 . S
C755 C754 1.415 . S
H756 C753 0.999 . S
H757 C738 0.913 . S
H758 C776 0.951 . S
H759 C778 0.951 . S
H760 C780 0.950 . S
H761 C781 0.950 . S
H762 C783 0.950 . S
H763 C786 0.950 . S
H764 C787 0.950 . S
H765 C789 0.950 . S
H766 C790 0.950 . S
H767 C791 0.951 . S
H768 C793 0.951 1_554 S
H769 C795 0.950 . S
H770 C796 0.950 . S
H771 C798 0.950 . S
H772 C801 0.950 . S
H773 C802 0.950 . S
H774 C804 0.950 . S
H775 C805 0.950 . S
C776 H758 0.951 . S
C776 C777 1.366 . S
C776 C778 1.388 . S
C777 C776 1.366 . S
C777 C781 1.385 . S
C778 H759 0.951 . S
C778 C776 1.388 . S
C778 C779 1.366 . S
C779 C778 1.366 . S
C779 C780 1.414 . S
C779 C782 1.499 . S
C780 H760 0.950 . S
C780 C779 1.414 . S
C780 C781 1.374 . S
C781 H761 0.950 . S
C781 C777 1.385 . S
C781 C780 1.374 . S
C782 C779 1.499 . S
C782 C783 1.373 . S
C782 C784 1.389 1_554 S
C783 H762 0.950 . S
C783 C782 1.373 . S
C783 C799 1.377 . S
C784 C782 1.389 1_556 S
C784 C785 1.524 . S
C784 C798 1.377 . S
C785 C784 1.524 . S
C785 C786 1.397 . S
C785 C790 1.363 . S
C786 H763 0.950 . S
C786 C785 1.397 . S
C786 C787 1.334 . S
C787 H764 0.950 . S
C787 C786 1.334 . S
C787 C788 1.287 . S
C788 C787 1.287 . S
C788 C789 1.524 . S
C788 H807 0.913 . S
C789 H765 0.950 . S
C789 C788 1.524 . S
C789 C790 1.415 . S
C790 H766 0.950 . S
C790 C785 1.363 . S
C790 C789 1.415 . S
C791 H767 0.951 . S
C791 C792 1.366 . S
C791 C793 1.388 . S
C792 C791 1.366 . S
C792 C796 1.385 . S
C793 H768 0.951 1_556 S
C793 C791 1.388 . S
C793 C794 1.366 . S
C794 C793 1.366 . S
C794 C795 1.414 . S
C794 C797 1.499 1_556 S
C795 H769 0.950 . S
C795 C794 1.414 . S
C795 C796 1.374 . S
C796 H770 0.950 . S
C796 C792 1.385 . S
C796 C795 1.374 . S
C797 C794 1.499 1_554 S
C797 C798 1.373 1_554 S
C797 C799 1.389 . S
C798 H771 0.950 . S
C798 C784 1.377 . S
C798 C797 1.373 1_556 S
C799 C783 1.377 . S
C799 C797 1.389 . S
C799 C800 1.524 . S
C800 C799 1.524 . S
C800 C801 1.397 . S
C800 C805 1.363 . S
C801 H772 0.950 . S
C801 C800 1.397 . S
C801 C802 1.334 . S
C802 H773 0.950 . S
C802 C801 1.334 . S
C802 C803 1.287 . S
C803 C802 1.287 . S
C803 C804 1.524 . S
C803 H806 0.999 . S
C804 H774 0.950 . S
C804 C803 1.524 . S
C804 C805 1.415 . S
C805 H775 0.950 . S
C805 C800 1.363 . S
C805 C804 1.415 . S
H806 C803 0.999 . S
H807 C788 0.913 . S
H808 C826 0.951 . S
H809 C828 0.951 . S
H810 C830 0.950 . S
H811 C831 0.950 . S
H812 C833 0.950 . S
H813 C836 0.950 . S
H814 C837 0.950 . S
H815 C839 0.950 . S
H816 C840 0.950 . S
H817 C841 0.951 . S
H818 C843 0.951 . S
H819 C845 0.950 . S
H820 C846 0.950 . S
H821 C848 0.950 . S
H822 C851 0.950 . S
H823 C852 0.950 . S
H824 C854 0.950 . S
H825 C855 0.950 . S
C826 H808 0.951 . S
C826 C827 1.366 . S
C826 C828 1.388 . S
C827 C826 1.366 . S
C827 C831 1.385 . S
C828 H809 0.951 . S
C828 C826 1.388 . S
C828 C829 1.366 . S
C829 C828 1.366 . S
C829 C830 1.414 . S
C829 C832 1.499 . S
C830 H810 0.950 . S
C830 C829 1.414 . S
C830 C831 1.374 . S
C831 H811 0.950 . S
C831 C827 1.385 . S
C831 C830 1.374 . S
C832 C829 1.499 . S
C832 C833 1.373 . S
C832 C834 1.389 . S
C833 H812 0.950 . S
C833 C832 1.373 . S
C833 C849 1.377 . S
C834 C832 1.389 . S
C834 C835 1.524 . S
C834 C848 1.377 . S
C835 C834 1.524 . S
C835 C836 1.397 . S
C835 C840 1.363 . S
C836 H813 0.950 . S
C836 C835 1.397 . S
C836 C837 1.334 . S
C837 H814 0.950 . S
C837 C836 1.334 . S
C837 C838 1.287 . S
C838 C837 1.287 . S
C838 C839 1.524 . S
C838 H857 0.913 . S
C839 H815 0.950 . S
C839 C838 1.524 . S
C839 C840 1.415 . S
C840 H816 0.950 . S
C840 C835 1.363 . S
C840 C839 1.415 . S
C841 H817 0.951 . S
C841 C842 1.366 . S
C841 C843 1.388 . S
C842 C841 1.366 . S
C842 C846 1.385 . S
C843 H818 0.951 . S
C843 C841 1.388 . S
C843 C844 1.366 . S
C844 C843 1.366 . S
C844 C845 1.414 . S
C844 C847 1.499 . S
C845 H819 0.950 . S
C845 C844 1.414 . S
C845 C846 1.374 . S
C846 H820 0.950 . S
C846 C842 1.385 . S
C846 C845 1.374 . S
C847 C844 1.499 . S
C847 C848 1.373 . S
C847 C849 1.389 . S
C848 H821 0.950 . S
C848 C834 1.377 . S
C848 C847 1.373 . S
C849 C833 1.377 . S
C849 C847 1.389 . S
C849 C850 1.524 . S
C850 C849 1.524 . S
C850 C851 1.397 . S
C850 C855 1.363 . S
C851 H822 0.950 . S
C851 C850 1.397 . S
C851 C852 1.334 . S
C852 H823 0.950 . S
C852 C851 1.334 . S
C852 C853 1.287 . S
C853 C852 1.287 . S
C853 C854 1.524 . S
C853 H856 0.999 . S
C854 H824 0.950 . S
C854 C853 1.524 . S
C854 C855 1.415 . S
C855 H825 0.950 . S
C855 C850 1.363 . S
C855 C854 1.415 . S
H856 C853 0.999 . S
H857 C838 0.913 . S
H858 C876 0.951 . S
H859 C878 0.951 . S
H860 C880 0.950 . S
H861 C881 0.950 . S
H862 C883 0.950 . S
H863 C886 0.950 . S
H864 C887 0.950 . S
H865 C889 0.950 . S
H866 C890 0.950 . S
H867 C891 0.951 . S
H868 C893 0.951 . S
H869 C895 0.950 . S
H870 C896 0.950 . S
H871 C898 0.950 . S
H872 C901 0.950 . S
H873 C902 0.950 . S
H874 C904 0.950 . S
H875 C905 0.950 . S
C876 H858 0.951 . S
C876 C877 1.366 . S
C876 C878 1.388 . S
C877 C876 1.366 . S
C877 C881 1.385 . S
C878 H859 0.951 . S
C878 C876 1.388 . S
C878 C879 1.366 . S
C879 C878 1.366 . S
C879 C880 1.414 . S
C879 C882 1.499 . S
C880 H860 0.950 . S
C880 C879 1.414 . S
C880 C881 1.374 . S
C881 H861 0.950 . S
C881 C877 1.385 . S
C881 C880 1.374 . S
C882 C879 1.499 . S
C882 C883 1.373 . S
C882 C884 1.389 . S
C883 H862 0.950 . S
C883 C882 1.373 . S
C883 C899 1.377 . S
C884 C882 1.389 . S
C884 C885 1.524 . S
C884 C898 1.377 . S
C885 C884 1.524 . S
C885 C886 1.397 . S
C885 C890 1.363 . S
C886 H863 0.950 . S
C886 C885 1.397 . S
C886 C887 1.334 . S
C887 H864 0.950 . S
C887 C886 1.334 . S
C887 C888 1.287 . S
C888 C887 1.287 . S
C888 C889 1.524 . S
C888 H907 0.913 . S
C889 H865 0.950 . S
C889 C888 1.524 . S
C889 C890 1.415 . S
C890 H866 0.950 . S
C890 C885 1.363 . S
C890 C889 1.415 . S
C891 H867 0.951 . S
C891 C892 1.366 . S
C891 C893 1.388 . S
C892 C891 1.366 . S
C892 C896 1.385 . S
C893 H868 0.951 . S
C893 C891 1.388 . S
C893 C894 1.366 . S
C894 C893 1.366 . S
C894 C895 1.414 . S
C894 C897 1.499 . S
C895 H869 0.950 . S
C895 C894 1.414 . S
C895 C896 1.374 . S
C896 H870 0.950 . S
C896 C892 1.385 . S
C896 C895 1.374 . S
C897 C894 1.499 . S
C897 C898 1.373 . S
C897 C899 1.389 . S
C898 H871 0.950 . S
C898 C884 1.377 . S
C898 C897 1.373 . S
C899 C883 1.377 . S
C899 C897 1.389 . S
C899 C900 1.524 . S
C900 C899 1.524 . S
C900 C901 1.397 . S
C900 C905 1.363 . S
C901 H872 0.950 . S
C901 C900 1.397 . S
C901 C902 1.334 . S
C902 H873 0.950 . S
C902 C901 1.334 . S
C902 C903 1.287 . S
C903 C902 1.287 . S
C903 C904 1.524 . S
C903 H906 0.999 . S
C904 H874 0.950 . S
C904 C903 1.524 . S
C904 C905 1.415 . S
C905 H875 0.950 . S
C905 C900 1.363 . S
C905 C904 1.415 . S
H906 C903 0.999 . S
H907 C888 0.913 . S
H908 C926 0.951 . S
H909 C928 0.951 . S
H910 C930 0.950 . S
H911 C931 0.950 . S
H912 C933 0.950 . S
H913 C936 0.950 . S
H914 C937 0.950 . S
H915 C939 0.950 . S
H916 C940 0.950 . S
H917 C941 0.951 . S
H918 C943 0.951 . S
H919 C945 0.950 . S
H920 C946 0.950 . S
H921 C948 0.950 . S
H922 C951 0.950 . S
H923 C952 0.950 1_655 S
H924 C954 0.950 . S
H925 C955 0.950 . S
C926 H908 0.951 . S
C926 C927 1.366 . S
C926 C928 1.388 . S
C927 C926 1.366 . S
C927 C931 1.385 . S
C928 H909 0.951 . S
C928 C926 1.388 . S
C928 C929 1.366 . S
C929 C928 1.366 . S
C929 C930 1.414 . S
C929 C932 1.499 . S
C930 H910 0.950 . S
C930 C929 1.414 . S
C930 C931 1.374 . S
C931 H911 0.950 . S
C931 C927 1.385 . S
C931 C930 1.374 . S
C932 C929 1.499 . S
C932 C933 1.373 . S
C932 C934 1.389 . S
C933 H912 0.950 . S
C933 C932 1.373 . S
C933 C949 1.377 . S
C934 C932 1.389 . S
C934 C935 1.524 . S
C934 C948 1.377 . S
C935 C934 1.524 . S
C935 C936 1.397 . S
C935 C940 1.363 . S
C936 H913 0.950 . S
C936 C935 1.397 . S
C936 C937 1.334 . S
C937 H914 0.950 . S
C937 C936 1.334 . S
C937 C938 1.287 . S
C938 C937 1.287 . S
C938 C939 1.524 . S
C938 H957 0.913 . S
C939 H915 0.950 . S
C939 C938 1.524 . S
C939 C940 1.415 . S
C940 H916 0.950 . S
C940 C935 1.363 . S
C940 C939 1.415 . S
C941 H917 0.951 . S
C941 C942 1.366 . S
C941 C943 1.388 . S
C942 C941 1.366 . S
C942 C946 1.385 . S
C943 H918 0.951 . S
C943 C941 1.388 . S
C943 C944 1.366 . S
C944 C943 1.366 . S
C944 C945 1.414 . S
C944 C947 1.499 . S
C945 H919 0.950 . S
C945 C944 1.414 . S
C945 C946 1.374 . S
C946 H920 0.950 . S
C946 C942 1.385 . S
C946 C945 1.374 . S
C947 C944 1.499 . S
C947 C948 1.373 . S
C947 C949 1.389 . S
C948 H921 0.950 . S
C948 C934 1.377 . S
C948 C947 1.373 . S
C949 C933 1.377 . S
C949 C947 1.389 . S
C949 C950 1.524 . S
C950 C949 1.524 . S
C950 C951 1.397 . S
C950 C955 1.363 . S
C951 H922 0.950 . S
C951 C950 1.397 . S
C951 C952 1.334 . S
C952 H923 0.950 1_455 S
C952 C951 1.334 . S
C952 C953 1.287 . S
C953 C952 1.287 . S
C953 C954 1.524 . S
C953 H956 0.999 1_455 S
C954 H924 0.950 . S
C954 C953 1.524 . S
C954 C955 1.415 . S
C955 H925 0.950 . S
C955 C950 1.363 . S
C955 C954 1.415 . S
H956 C953 0.999 1_655 S
H957 C938 0.913 . S
H958 C976 0.951 . S
H959 C978 0.951 . S
H960 C980 0.950 . S
H961 C981 0.950 . S
H962 C983 0.950 . S
H963 C986 0.950 . S
H964 C987 0.950 . S
H965 C989 0.950 . S
H966 C990 0.950 . S
H967 C991 0.951 . S
H968 C993 0.951 . S
H969 C995 0.950 . S
H970 C996 0.950 . S
H971 C998 0.950 . S
H972 C1001 0.950 . S
H973 C1002 0.950 . S
H974 C1004 0.950 . S
H975 C1005 0.950 . S
C976 H958 0.951 . S
C976 C977 1.366 . S
C976 C978 1.388 . S
C977 C976 1.366 . S
C977 C981 1.385 . S
C978 H959 0.951 . S
C978 C976 1.388 . S
C978 C979 1.366 . S
C979 C978 1.366 . S
C979 C980 1.414 . S
C979 C982 1.499 . S
C980 H960 0.950 . S
C980 C979 1.414 . S
C980 C981 1.374 . S
C981 H961 0.950 . S
C981 C977 1.385 . S
C981 C980 1.374 . S
C982 C979 1.499 . S
C982 C983 1.373 . S
C982 C984 1.389 . S
C983 H962 0.950 . S
C983 C982 1.373 . S
C983 C999 1.377 . S
C984 C982 1.389 . S
C984 C985 1.524 . S
C984 C998 1.377 . S
C985 C984 1.524 . S
C985 C986 1.397 . S
C985 C990 1.363 . S
C986 H963 0.950 . S
C986 C985 1.397 . S
C986 C987 1.334 . S
C987 H964 0.950 . S
C987 C986 1.334 . S
C987 C988 1.287 . S
C988 C987 1.287 . S
C988 C989 1.524 . S
C988 H1007 0.913 . S
C989 H965 0.950 . S
C989 C988 1.524 . S
C989 C990 1.415 . S
C990 H966 0.950 . S
C990 C985 1.363 . S
C990 C989 1.415 . S
C991 H967 0.951 . S
C991 C992 1.366 . S
C991 C993 1.388 . S
C992 C991 1.366 . S
C992 C996 1.385 . S
C993 H968 0.951 . S
C993 C991 1.388 . S
C993 C994 1.366 . S
C994 C993 1.366 . S
C994 C995 1.414 . S
C994 C997 1.499 . S
C995 H969 0.950 . S
C995 C994 1.414 . S
C995 C996 1.374 . S
C996 H970 0.950 . S
C996 C992 1.385 . S
C996 C995 1.374 . S
C997 C994 1.499 . S
C997 C998 1.373 . S
C997 C999 1.389 . S
C998 H971 0.950 . S
C998 C984 1.377 . S
C998 C997 1.373 . S
C999 C983 1.377 . S
C999 C997 1.389 . S
C999 C1000 1.524 . S
C1000 C999 1.524 . S
C1000 C1001 1.397 . S
C1000 C1005 1.363 . S
C1001 H972 0.950 . S
C1001 C1000 1.397 . S
C1001 C1002 1.334 . S
C1002 H973 0.950 . S
C1002 C1001 1.334 . S
C1002 C1003 1.287 . S
C1003 C1002 1.287 . S
C1003 C1004 1.524 . S
C1003 H1006 0.999 . S
C1004 H974 0.950 . S
C1004 C1003 1.524 . S
C1004 C1005 1.415 . S
C1005 H975 0.950 . S
C1005 C1000 1.363 . S
C1005 C1004 1.415 . S
H1006 C1003 0.999 . S
H1007 C988 0.913 . S
H1008 C1026 0.951 . S
H1009 C1028 0.951 . S
H1010 C1030 0.950 . S
H1011 C1031 0.950 . S
H1012 C1033 0.950 . S
H1013 C1036 0.950 . S
H1014 C1037 0.950 . S
H1015 C1039 0.950 . S
H1016 C1040 0.950 . S
H1017 C1041 0.951 . S
H1018 C1043 0.951 . S
H1019 C1045 0.950 . S
H1020 C1046 0.950 . S
H1021 C1048 0.950 . S
H1022 C1051 0.950 . S
H1023 C1052 0.950 . S
H1024 C1054 0.950 . S
H1025 C1055 0.950 . S
C1026 H1008 0.951 . S
C1026 C1027 1.366 . S
C1026 C1028 1.388 . S
C1027 C1026 1.366 . S
C1027 C1031 1.385 . S
C1028 H1009 0.951 . S
C1028 C1026 1.388 . S
C1028 C1029 1.366 . S
C1029 C1028 1.366 . S
C1029 C1030 1.414 . S
C1029 C1032 1.499 . S
C1030 H1010 0.950 . S
C1030 C1029 1.414 . S
C1030 C1031 1.374 . S
C1031 H1011 0.950 . S
C1031 C1027 1.385 . S
C1031 C1030 1.374 . S
C1032 C1029 1.499 . S
C1032 C1033 1.373 . S
C1032 C1034 1.389 1_556 S
C1033 H1012 0.950 . S
C1033 C1032 1.373 . S
C1033 C1049 1.377 1_565 S
C1034 C1032 1.389 1_554 S
C1034 C1035 1.524 . S
C1034 C1048 1.377 1_565 S
C1035 C1034 1.524 . S
C1035 C1036 1.397 . S
C1035 C1040 1.363 . S
C1036 H1013 0.950 . S
C1036 C1035 1.397 . S
C1036 C1037 1.334 . S
C1037 H1014 0.950 . S
C1037 C1036 1.334 . S
C1037 C1038 1.287 . S
C1038 C1037 1.287 . S
C1038 C1039 1.524 . S
C1038 H1057 0.913 . S
C1039 H1015 0.950 . S
C1039 C1038 1.524 . S
C1039 C1040 1.415 . S
C1040 H1016 0.950 . S
C1040 C1035 1.363 . S
C1040 C1039 1.415 . S
C1041 H1017 0.951 . S
C1041 C1042 1.366 . S
C1041 C1043 1.388 . S
C1042 C1041 1.366 . S
C1042 C1046 1.385 . S
C1043 H1018 0.951 . S
C1043 C1041 1.388 . S
C1043 C1044 1.366 . S
C1044 C1043 1.366 . S
C1044 C1045 1.414 . S
C1044 C1047 1.499 . S
C1045 H1019 0.950 . S
C1045 C1044 1.414 . S
C1045 C1046 1.374 . S
C1046 H1020 0.950 . S
C1046 C1042 1.385 . S
C1046 C1045 1.374 . S
C1047 C1044 1.499 . S
C1047 C1048 1.373 . S
C1047 C1049 1.389 1_554 S
C1048 H1021 0.950 . S
C1048 C1034 1.377 1_545 S
C1048 C1047 1.373 . S
C1049 C1033 1.377 1_545 S
C1049 C1047 1.389 1_556 S
C1049 C1050 1.524 . S
C1050 C1049 1.524 . S
C1050 C1051 1.397 . S
C1050 C1055 1.363 . S
C1051 H1022 0.950 . S
C1051 C1050 1.397 . S
C1051 C1052 1.334 . S
C1052 H1023 0.950 . S
C1052 C1051 1.334 . S
C1052 C1053 1.287 . S
C1053 C1052 1.287 . S
C1053 C1054 1.524 . S
C1053 H1056 0.999 . S
C1054 H1024 0.950 . S
C1054 C1053 1.524 . S
C1054 C1055 1.415 . S
C1055 H1025 0.950 . S
C1055 C1050 1.363 . S
C1055 C1054 1.415 . S
H1056 C1053 0.999 . S
H1057 C1038 0.913 . S
H1058 C1076 0.951 . S
H1059 C1078 0.951 . S
H1060 C1080 0.950 1_556 S
H1061 C1081 0.950 . S
H1062 C1083 0.950 . S
H1063 C1086 0.950 . S
H1064 C1087 0.965 . S
H1065 C1089 0.950 . S
H1066 C1090 0.950 . S
H1067 C1091 0.951 . S
H1068 C1093 0.951 . S
H1069 C1095 0.950 1_554 S
H1070 C1096 0.950 . S
H1071 C1098 0.950 . S
H1072 C1101 0.950 . S
H1073 C1102 0.965 . S
H1074 C1104 0.950 . S
H1075 C1105 0.950 . S
C1076 H1058 0.951 . S
C1076 C1077 1.366 . S
C1076 C1078 1.388 . S
C1077 C1076 1.366 . S
C1077 C1081 1.385 . S
C1078 H1059 0.951 . S
C1078 C1076 1.388 . S
C1078 C1079 1.366 . S
C1079 C1078 1.366 . S
C1079 C1080 1.414 . S
C1079 C1082 1.499 . S
C1080 H1060 0.950 1_554 S
C1080 C1079 1.414 . S
C1080 C1081 1.374 . S
C1081 H1061 0.950 . S
C1081 C1077 1.385 . S
C1081 C1080 1.374 . S
C1082 C1079 1.499 . S
C1082 C1083 1.373 . S
C1082 C1084 1.389 . S
C1083 H1062 0.950 . S
C1083 C1082 1.373 . S
C1083 C1099 1.377 1_554 S
C1084 C1082 1.389 . S
C1084 C1085 1.524 . S
C1084 C1098 1.377 1_554 S
C1085 C1084 1.524 . S
C1085 C1086 1.397 1_554 S
C1085 C1090 1.363 . S
C1086 H1063 0.950 . S
C1086 C1085 1.397 1_556 S
C1086 C1087 1.337 . S
C1087 H1064 0.965 . S
C1087 C1086 1.337 . S
C1087 C1088 1.269 1_556 S
C1088 C1087 1.269 1_554 S
C1088 C1089 1.524 . S
C1088 H1107 0.913 . S
C1089 H1065 0.950 . S
C1089 C1088 1.524 . S
C1089 C1090 1.415 . S
C1090 H1066 0.950 . S
C1090 C1085 1.363 . S
C1090 C1089 1.415 . S
C1091 H1067 0.951 . S
C1091 C1092 1.366 . S
C1091 C1093 1.388 . S
C1092 C1091 1.366 . S
C1092 C1096 1.385 . S
C1093 H1068 0.951 . S
C1093 C1091 1.388 . S
C1093 C1094 1.366 . S
C1094 C1093 1.366 . S
C1094 C1095 1.414 . S
C1094 C1097 1.499 . S
C1095 H1069 0.950 1_556 S
C1095 C1094 1.414 . S
C1095 C1096 1.374 . S
C1096 H1070 0.950 . S
C1096 C1092 1.385 . S
C1096 C1095 1.374 . S
C1097 C1094 1.499 . S
C1097 C1098 1.373 . S
C1097 C1099 1.389 . S
C1098 H1071 0.950 . S
C1098 C1084 1.377 1_556 S
C1098 C1097 1.373 . S
C1099 C1083 1.377 1_556 S
C1099 C1097 1.389 . S
C1099 C1100 1.524 . S
C1100 C1099 1.524 . S
C1100 C1101 1.397 1_556 S
C1100 C1105 1.363 . S
C1101 H1072 0.950 . S
C1101 C1100 1.397 1_554 S
C1101 C1102 1.337 . S
C1102 H1073 0.965 . S
C1102 C1101 1.337 . S
C1102 C1103 1.269 1_554 S
C1103 C1102 1.269 1_556 S
C1103 C1104 1.524 . S
C1103 H1106 0.999 . S
C1104 H1074 0.950 . S
C1104 C1103 1.524 . S
C1104 C1105 1.415 . S
C1105 H1075 0.950 . S
C1105 C1100 1.363 . S
C1105 C1104 1.415 . S
H1106 C1103 0.999 . S
H1107 C1088 0.913 . S
H1108 C1126 0.951 . S
H1109 C1128 0.951 . S
H1110 C1130 0.950 . S
H1111 C1131 0.950 . S
H1112 C1133 0.950 . S
H1113 C1136 0.988 . S
H1114 C1137 0.950 . S
H1115 C1139 0.950 . S
H1116 C1140 0.950 . S
H1117 C1141 0.951 . S
H1118 C1143 0.951 . S
H1119 C1145 0.950 . S
H1120 C1146 0.950 . S
H1121 C1148 0.950 . S
H1122 C1151 0.988 . S
H1123 C1152 0.950 . S
H1124 C1154 0.950 . S
H1125 C1155 0.950 . S
C1126 H1108 0.951 . S
C1126 C1127 1.366 1_655 S
C1126 C1128 1.388 . S
C1127 C1126 1.366 1_455 S
C1127 C1131 1.385 . S
C1128 H1109 0.951 . S
C1128 C1126 1.388 . S
C1128 C1129 1.366 1_655 S
C1129 C1128 1.366 1_455 S
C1129 C1130 1.414 . S
C1129 C1132 1.499 . S
C1130 H1110 0.950 . S
C1130 C1129 1.414 . S
C1130 C1131 1.374 . S
C1131 H1111 0.950 . S
C1131 C1127 1.385 . S
C1131 C1130 1.374 . S
C1132 C1129 1.499 . S
C1132 C1133 1.373 . S
C1132 C1134 1.389 1_456 S
C1133 H1112 0.950 . S
C1133 C1132 1.373 . S
C1133 C1149 1.377 . S
C1134 C1132 1.389 1_654 S
C1134 C1135 1.524 . S
C1134 C1148 1.377 . S
C1135 C1134 1.524 . S
C1135 C1136 1.397 . S
C1135 C1140 1.363 . S
C1136 H1113 0.988 . S
C1136 C1135 1.397 . S
C1136 C1137 1.334 . S
C1137 H1114 0.950 . S
C1137 C1136 1.334 . S
C1137 C1138 1.287 . S
C1138 C1137 1.287 . S
C1138 C1139 1.524 . S
C1138 H1157 0.913 . S
C1139 H1115 0.950 . S
C1139 C1138 1.524 . S
C1139 C1140 1.415 . S
C1140 H1116 0.950 . S
C1140 C1135 1.363 . S
C1140 C1139 1.415 . S
C1141 H1117 0.951 . S
C1141 C1142 1.366 1_455 S
C1141 C1143 1.388 . S
C1142 C1141 1.366 1_655 S
C1142 C1146 1.385 . S
C1143 H1118 0.951 . S
C1143 C1141 1.388 . S
C1143 C1144 1.366 1_455 S
C1144 C1143 1.366 1_655 S
C1144 C1145 1.414 . S
C1144 C1147 1.499 . S
C1145 H1119 0.950 . S
C1145 C1144 1.414 . S
C1145 C1146 1.374 . S
C1146 H1120 0.950 . S
C1146 C1142 1.385 . S
C1146 C1145 1.374 . S
C1147 C1144 1.499 . S
C1147 C1148 1.373 . S
C1147 C1149 1.389 1_654 S
C1148 H1121 0.950 . S
C1148 C1134 1.377 . S
C1148 C1147 1.373 . S
C1149 C1133 1.377 . S
C1149 C1147 1.389 1_456 S
C1149 C1150 1.524 . S
C1150 C1149 1.524 . S
C1150 C1151 1.397 . S
C1150 C1155 1.363 . S
C1151 H1122 0.988 . S
C1151 C1150 1.397 . S
C1151 C1152 1.334 . S
C1152 H1123 0.950 . S
C1152 C1151 1.334 . S
C1152 C1153 1.287 . S
C1153 C1152 1.287 . S
C1153 C1154 1.524 . S
C1153 H1156 0.999 . S
C1154 H1124 0.950 . S
C1154 C1153 1.524 . S
C1154 C1155 1.415 . S
C1155 H1125 0.950 . S
C1155 C1150 1.363 . S
C1155 C1154 1.415 . S
H1156 C1153 0.999 . S
H1157 C1138 0.913 . S
H1158 C1176 0.951 1_545 S
H1159 C1178 0.947 1_546 S
H1160 C1180 0.950 . S
H1161 C1181 0.950 . S
H1162 C1183 0.950 . S
H1163 C1186 0.950 . S
H1164 C1187 0.950 . S
H1165 C1189 0.967 . S
H1166 C1190 0.950 . S
H1167 C1191 0.951 1_565 S
H1168 C1193 0.947 1_564 S
H1169 C1195 0.950 . S
H1170 C1196 0.950 . S
H1171 C1198 0.950 . S
H1172 C1201 0.950 . S
H1173 C1202 0.950 . S
H1174 C1204 0.967 . S
H1175 C1205 0.950 . S
C1176 H1158 0.951 1_565 S
C1176 C1177 1.366 . S
C1176 C1178 1.389 . S
C1177 C1176 1.366 . S
C1177 C1181 1.385 . S
C1178 H1159 0.947 1_564 S
C1178 C1176 1.389 . S
C1178 C1179 1.368 . S
C1179 C1178 1.368 . S
C1179 C1180 1.414 . S
C1179 C1182 1.499 . S
C1180 H1160 0.950 . S
C1180 C1179 1.414 . S
C1180 C1181 1.374 . S
C1181 H1161 0.950 . S
C1181 C1177 1.385 . S
C1181 C1180 1.374 . S
C1182 C1179 1.499 . S
C1182 C1183 1.373 . S
C1182 C1184 1.389 1_565 S
C1183 H1162 0.950 . S
C1183 C1182 1.373 . S
C1183 C1199 1.377 1_454 S
C1184 C1182 1.389 1_545 S
C1184 C1185 1.524 . S
C1184 C1198 1.377 1_454 S
C1185 C1184 1.524 . S
C1185 C1186 1.397 . S
C1185 C1190 1.363 1_554 S
C1186 H1163 0.950 . S
C1186 C1185 1.397 . S
C1186 C1187 1.334 . S
C1187 H1164 0.950 . S
C1187 C1186 1.334 . S
C1187 C1188 1.287 . S
C1188 C1187 1.287 . S
C1188 C1189 1.499 1_554 S
C1188 H1207 0.913 . S
C1189 H1165 0.967 . S
C1189 C1188 1.499 1_556 S
C1189 C1190 1.421 . S
C1190 H1166 0.950 . S
C1190 C1185 1.363 1_556 S
C1190 C1189 1.421 . S
C1191 H1167 0.951 1_545 S
C1191 C1192 1.366 . S
C1191 C1193 1.389 . S
C1192 C1191 1.366 . S
C1192 C1196 1.385 . S
C1193 H1168 0.947 1_546 S
C1193 C1191 1.389 . S
C1193 C1194 1.368 . S
C1194 C1193 1.368 . S
C1194 C1195 1.414 . S
C1194 C1197 1.499 . S
C1195 H1169 0.950 . S
C1195 C1194 1.414 . S
C1195 C1196 1.374 . S
C1196 H1170 0.950 . S
C1196 C1192 1.385 . S
C1196 C1195 1.374 . S
C1197 C1194 1.499 . S
C1197 C1198 1.373 . S
C1197 C1199 1.389 1_545 S
C1198 H1171 0.950 . S
C1198 C1184 1.377 1_656 S
C1198 C1197 1.373 . S
C1199 C1183 1.377 1_656 S
C1199 C1197 1.389 1_565 S
C1199 C1200 1.524 . S
C1200 C1199 1.524 . S
C1200 C1201 1.397 . S
C1200 C1205 1.363 1_556 S
C1201 H1172 0.950 . S
C1201 C1200 1.397 . S
C1201 C1202 1.334 . S
C1202 H1173 0.950 . S
C1202 C1201 1.334 . S
C1202 C1203 1.287 . S
C1203 C1202 1.287 . S
C1203 C1204 1.499 1_556 S
C1203 H1206 0.999 . S
C1204 H1174 0.967 . S
C1204 C1203 1.499 1_554 S
C1204 C1205 1.421 . S
C1205 H1175 0.950 . S
C1205 C1200 1.363 1_554 S
C1205 C1204 1.421 . S
H1206 C1203 0.999 . S
H1207 C1188 0.913 . S
H1208 C1226 0.951 . S
H1209 C1228 0.951 . S
H1210 C1230 0.950 . S
H1211 C1231 0.950 . S
H1212 C1233 0.950 . S
H1213 C1236 0.950 . S
H1214 C1237 0.950 . S
H1215 C1239 0.950 . S
H1216 C1240 0.950 . S
H1217 C1241 0.951 . S
H1218 C1243 0.951 . S
H1219 C1245 0.950 . S
H1220 C1246 0.950 . S
H1221 C1248 0.950 . S
H1222 C1251 0.950 . S
H1223 C1252 0.950 . S
H1224 C1254 0.950 . S
H1225 C1255 0.950 . S
C1226 H1208 0.951 . S
C1226 C1227 1.366 . S
C1226 C1228 1.388 . S
C1227 C1226 1.366 . S
C1227 C1231 1.385 . S
C1228 H1209 0.951 . S
C1228 C1226 1.388 . S
C1228 C1229 1.366 . S
C1229 C1228 1.366 . S
C1229 C1230 1.414 . S
C1229 C1232 1.499 . S
C1230 H1210 0.950 . S
C1230 C1229 1.414 . S
C1230 C1231 1.374 . S
C1231 H1211 0.950 . S
C1231 C1227 1.385 . S
C1231 C1230 1.374 . S
C1232 C1229 1.499 . S
C1232 C1233 1.373 . S
C1232 C1234 1.389 . S
C1233 H1212 0.950 . S
C1233 C1232 1.373 . S
C1233 C1249 1.377 . S
C1234 C1232 1.389 . S
C1234 C1235 1.524 . S
C1234 C1248 1.377 . S
C1235 C1234 1.524 . S
C1235 C1236 1.397 . S
C1235 C1240 1.363 . S
C1236 H1213 0.950 . S
C1236 C1235 1.397 . S
C1236 C1237 1.334 . S
C1237 H1214 0.950 . S
C1237 C1236 1.334 . S
C1237 C1238 1.287 . S
C1238 C1237 1.287 . S
C1238 C1239 1.524 . S
C1238 H1257 0.913 . S
C1239 H1215 0.950 . S
C1239 C1238 1.524 . S
C1239 C1240 1.415 . S
C1240 H1216 0.950 . S
C1240 C1235 1.363 . S
C1240 C1239 1.415 . S
C1241 H1217 0.951 . S
C1241 C1242 1.366 . S
C1241 C1243 1.388 . S
C1242 C1241 1.366 . S
C1242 C1246 1.385 . S
C1243 H1218 0.951 . S
C1243 C1241 1.388 . S
C1243 C1244 1.366 . S
C1244 C1243 1.366 . S
C1244 C1245 1.414 . S
C1244 C1247 1.499 . S
C1245 H1219 0.950 . S
C1245 C1244 1.414 . S
C1245 C1246 1.374 . S
C1246 H1220 0.950 . S
C1246 C1242 1.385 . S
C1246 C1245 1.374 . S
C1247 C1244 1.499 . S
C1247 C1248 1.373 . S
C1247 C1249 1.389 . S
C1248 H1221 0.950 . S
C1248 C1234 1.377 . S
C1248 C1247 1.373 . S
C1249 C1233 1.377 . S
C1249 C1247 1.389 . S
C1249 C1250 1.524 . S
C1250 C1249 1.524 . S
C1250 C1251 1.397 . S
C1250 C1255 1.363 . S
C1251 H1222 0.950 . S
C1251 C1250 1.397 . S
C1251 C1252 1.334 . S
C1252 H1223 0.950 . S
C1252 C1251 1.334 . S
C1252 C1253 1.287 . S
C1253 C1252 1.287 . S
C1253 C1254 1.524 . S
C1253 H1256 0.999 . S
C1254 H1224 0.950 . S
C1254 C1253 1.524 . S
C1254 C1255 1.415 . S
C1255 H1225 0.950 . S
C1255 C1250 1.363 . S
C1255 C1254 1.415 . S
H1256 C1253 0.999 . S
H1257 C1238 0.913 . S
H1258 C1276 0.951 . S
H1259 C1278 0.951 . S
H1260 C1280 0.950 . S
H1261 C1281 0.950 . S
H1262 C1283 0.950 . S
H1263 C1286 0.950 . S
H1264 C1287 0.950 . S
H1265 C1289 0.950 . S
H1266 C1290 0.950 . S
H1267 C1291 0.951 . S
H1268 C1293 0.951 . S
H1269 C1295 0.950 . S
H1270 C1296 0.950 . S
H1271 C1298 0.950 . S
H1272 C1301 0.950 . S
H1273 C1302 0.950 . S
H1274 C1304 0.950 . S
H1275 C1305 0.950 . S
C1276 H1258 0.951 . S
C1276 C1277 1.366 . S
C1276 C1278 1.388 . S
C1277 C1276 1.366 . S
C1277 C1281 1.385 . S
C1278 H1259 0.951 . S
C1278 C1276 1.388 . S
C1278 C1279 1.366 . S
C1279 C1278 1.366 . S
C1279 C1280 1.414 . S
C1279 C1282 1.499 . S
C1280 H1260 0.950 . S
C1280 C1279 1.414 . S
C1280 C1281 1.374 . S
C1281 H1261 0.950 . S
C1281 C1277 1.385 . S
C1281 C1280 1.374 . S
C1282 C1279 1.499 . S
C1282 C1283 1.373 . S
C1282 C1284 1.389 . S
C1283 H1262 0.950 . S
C1283 C1282 1.373 . S
C1283 C1299 1.377 1_455 S
C1284 C1282 1.389 . S
C1284 C1285 1.524 . S
C1284 C1298 1.377 1_455 S
C1285 C1284 1.524 . S
C1285 C1286 1.397 . S
C1285 C1290 1.363 1_455 S
C1286 H1263 0.950 . S
C1286 C1285 1.397 . S
C1286 C1287 1.334 . S
C1287 H1264 0.950 . S
C1287 C1286 1.334 . S
C1287 C1288 1.287 . S
C1288 C1287 1.287 . S
C1288 C1289 1.524 1_455 S
C1288 H1307 0.913 . S
C1289 H1265 0.950 . S
C1289 C1288 1.524 1_655 S
C1289 C1290 1.415 . S
C1290 H1266 0.950 . S
C1290 C1285 1.363 1_655 S
C1290 C1289 1.415 . S
C1291 H1267 0.951 . S
C1291 C1292 1.366 . S
C1291 C1293 1.388 . S
C1292 C1291 1.366 . S
C1292 C1296 1.385 . S
C1293 H1268 0.951 . S
C1293 C1291 1.388 . S
C1293 C1294 1.366 . S
C1294 C1293 1.366 . S
C1294 C1295 1.414 . S
C1294 C1297 1.499 . S
C1295 H1269 0.950 . S
C1295 C1294 1.414 . S
C1295 C1296 1.374 . S
C1296 H1270 0.950 . S
C1296 C1292 1.385 . S
C1296 C1295 1.374 . S
C1297 C1294 1.499 . S
C1297 C1298 1.373 . S
C1297 C1299 1.389 . S
C1298 H1271 0.950 . S
C1298 C1284 1.377 1_655 S
C1298 C1297 1.373 . S
C1299 C1283 1.377 1_655 S
C1299 C1297 1.389 . S
C1299 C1300 1.524 . S
C1300 C1299 1.524 . S
C1300 C1301 1.397 . S
C1300 C1305 1.363 1_655 S
C1301 H1272 0.950 . S
C1301 C1300 1.397 . S
C1301 C1302 1.334 . S
C1302 H1273 0.950 . S
C1302 C1301 1.334 . S
C1302 C1303 1.287 . S
C1303 C1302 1.287 . S
C1303 C1304 1.524 1_655 S
C1303 H1306 0.999 . S
C1304 H1274 0.950 . S
C1304 C1303 1.524 1_455 S
C1304 C1305 1.415 . S
C1305 H1275 0.950 . S
C1305 C1300 1.363 1_455 S
C1305 C1304 1.415 . S
H1306 C1303 0.999 . S
H1307 C1288 0.913 . S
H1308 C1326 0.951 . S
H1309 C1328 0.951 . S
H1310 C1330 0.950 . S
H1311 C1331 0.950 . S
H1312 C1333 0.950 . S
H1313 C1336 0.950 . S
H1314 C1337 0.950 . S
H1315 C1339 0.950 . S
H1316 C1340 0.950 . S
H1317 C1341 0.951 . S
H1318 C1343 0.951 . S
H1319 C1345 0.950 . S
H1320 C1346 0.950 . S
H1321 C1348 0.950 . S
H1322 C1351 0.950 . S
H1323 C1352 0.950 . S
H1324 C1354 0.950 . S
H1325 C1355 0.950 . S
C1326 H1308 0.951 . S
C1326 C1327 1.366 . S
C1326 C1328 1.388 . S
C1327 C1326 1.366 . S
C1327 C1331 1.385 . S
C1328 H1309 0.951 . S
C1328 C1326 1.388 . S
C1328 C1329 1.366 . S
C1329 C1328 1.366 . S
C1329 C1330 1.414 . S
C1329 C1332 1.499 . S
C1330 H1310 0.950 . S
C1330 C1329 1.414 . S
C1330 C1331 1.374 . S
C1331 H1311 0.950 . S
C1331 C1327 1.385 . S
C1331 C1330 1.374 . S
C1332 C1329 1.499 . S
C1332 C1333 1.373 1_455 S
C1332 C1334 1.389 . S
C1333 H1312 0.950 . S
C1333 C1332 1.373 1_655 S
C1333 C1349 1.377 1_565 S
C1334 C1332 1.389 . S
C1334 C1335 1.524 . S
C1334 C1348 1.377 1_565 S
C1335 C1334 1.524 . S
C1335 C1336 1.397 . S
C1335 C1340 1.363 . S
C1336 H1313 0.950 . S
C1336 C1335 1.397 . S
C1336 C1337 1.334 . S
C1337 H1314 0.950 . S
C1337 C1336 1.334 . S
C1337 C1338 1.287 . S
C1338 C1337 1.287 . S
C1338 C1339 1.524 . S
C1338 H1357 0.913 . S
C1339 H1315 0.950 . S
C1339 C1338 1.524 . S
C1339 C1340 1.415 . S
C1340 H1316 0.950 . S
C1340 C1335 1.363 . S
C1340 C1339 1.415 . S
C1341 H1317 0.951 . S
C1341 C1342 1.366 . S
C1341 C1343 1.388 . S
C1342 C1341 1.366 . S
C1342 C1346 1.385 . S
C1343 H1318 0.951 . S
C1343 C1341 1.388 . S
C1343 C1344 1.366 . S
C1344 C1343 1.366 . S
C1344 C1345 1.414 . S
C1344 C1347 1.499 . S
C1345 H1319 0.950 . S
C1345 C1344 1.414 . S
C1345 C1346 1.374 . S
C1346 H1320 0.950 . S
C1346 C1342 1.385 . S
C1346 C1345 1.374 . S
C1347 C1344 1.499 . S
C1347 C1348 1.373 1_655 S
C1347 C1349 1.389 . S
C1348 H1321 0.950 . S
C1348 C1334 1.377 1_545 S
C1348 C1347 1.373 1_455 S
C1349 C1333 1.377 1_545 S
C1349 C1347 1.389 . S
C1349 C1350 1.524 . S
C1350 C1349 1.524 . S
C1350 C1351 1.397 . S
C1350 C1355 1.363 . S
C1351 H1322 0.950 . S
C1351 C1350 1.397 . S
C1351 C1352 1.334 . S
C1352 H1323 0.950 . S
C1352 C1351 1.334 . S
C1352 C1353 1.287 . S
C1353 C1352 1.287 . S
C1353 C1354 1.524 . S
C1353 H1356 0.999 . S
C1354 H1324 0.950 . S
C1354 C1353 1.524 . S
C1354 C1355 1.415 . S
C1355 H1325 0.950 . S
C1355 C1350 1.363 . S
C1355 C1354 1.415 . S
H1356 C1353 0.999 . S
H1357 C1338 0.913 . S
H1358 C1376 0.951 . S
H1359 C1378 0.951 1_565 S
H1360 C1380 0.950 . S
H1361 C1381 0.950 . S
H1362 C1383 0.950 . S
H1363 C1386 0.950 . S
H1364 C1387 0.950 . S
H1365 C1389 0.950 . S
H1366 C1390 0.950 . S
H1367 C1391 0.951 . S
H1368 C1393 0.951 1_545 S
H1369 C1395 0.950 . S
H1370 C1396 0.950 . S
H1371 C1398 0.950 . S
H1372 C1401 0.950 . S
H1373 C1402 0.950 . S
H1374 C1404 0.950 . S
H1375 C1405 0.950 . S
C1376 H1358 0.951 . S
C1376 C1377 1.366 . S
C1376 C1378 1.388 . S
C1377 C1376 1.366 . S
C1377 C1381 1.385 . S
C1378 H1359 0.951 1_545 S
C1378 C1376 1.388 . S
C1378 C1379 1.366 . S
C1379 C1378 1.366 . S
C1379 C1380 1.414 . S
C1379 C1382 1.499 . S
C1380 H1360 0.950 . S
C1380 C1379 1.414 . S
C1380 C1381 1.374 . S
C1381 H1361 0.950 . S
C1381 C1377 1.385 . S
C1381 C1380 1.374 . S
C1382 C1379 1.499 . S
C1382 C1383 1.373 1_545 S
C1382 C1384 1.389 . S
C1383 H1362 0.950 . S
C1383 C1382 1.373 1_565 S
C1383 C1399 1.377 . S
C1384 C1382 1.389 . S
C1384 C1385 1.524 . S
C1384 C1398 1.377 . S
C1385 C1384 1.524 . S
C1385 C1386 1.397 . S
C1385 C1390 1.363 . S
C1386 H1363 0.950 . S
C1386 C1385 1.397 . S
C1386 C1387 1.334 . S
C1387 H1364 0.950 . S
C1387 C1386 1.334 . S
C1387 C1388 1.287 . S
C1388 C1387 1.287 . S
C1388 C1389 1.524 . S
C1388 H1407 0.913 . S
C1389 H1365 0.950 . S
C1389 C1388 1.524 . S
C1389 C1390 1.415 . S
C1390 H1366 0.950 . S
C1390 C1385 1.363 . S
C1390 C1389 1.415 . S
C1391 H1367 0.951 . S
C1391 C1392 1.366 . S
C1391 C1393 1.388 . S
C1392 C1391 1.366 . S
C1392 C1396 1.385 . S
C1393 H1368 0.951 1_565 S
C1393 C1391 1.388 . S
C1393 C1394 1.366 . S
C1394 C1393 1.366 . S
C1394 C1395 1.414 . S
C1394 C1397 1.499 . S
C1395 H1369 0.950 . S
C1395 C1394 1.414 . S
C1395 C1396 1.374 . S
C1396 H1370 0.950 . S
C1396 C1392 1.385 . S
C1396 C1395 1.374 . S
C1397 C1394 1.499 . S
C1397 C1398 1.373 1_565 S
C1397 C1399 1.389 . S
C1398 H1371 0.950 . S
C1398 C1384 1.377 . S
C1398 C1397 1.373 1_545 S
C1399 C1383 1.377 . S
C1399 C1397 1.389 . S
C1399 C1400 1.524 . S
C1400 C1399 1.524 . S
C1400 C1401 1.397 . S
C1400 C1405 1.363 . S
C1401 H1372 0.950 . S
C1401 C1400 1.397 . S
C1401 C1402 1.334 . S
C1402 H1373 0.950 . S
C1402 C1401 1.334 . S
C1402 C1403 1.287 . S
C1403 C1402 1.287 . S
C1403 C1404 1.524 . S
C1403 H1406 0.999 . S
C1404 H1374 0.950 . S
C1404 C1403 1.524 . S
C1404 C1405 1.415 . S
C1405 H1375 0.950 . S
C1405 C1400 1.363 . S
C1405 C1404 1.415 . S
H1406 C1403 0.999 . S
H1407 C1388 0.913 . S
H1408 C1426 0.951 . S
H1409 C1428 0.951 . S
H1410 C1430 0.950 . S
H1411 C1431 0.950 . S
H1412 C1433 0.950 . S
H1413 C1436 0.950 . S
H1414 C1437 0.950 . S
H1415 C1439 0.950 . S
H1416 C1440 0.950 . S
H1417 C1441 0.951 . S
H1418 C1443 0.951 . S
H1419 C1445 0.950 . S
H1420 C1446 0.950 . S
H1421 C1448 0.950 . S
H1422 C1451 0.950 . S
H1423 C1452 0.950 . S
H1424 C1454 0.950 . S
H1425 C1455 0.950 . S
C1426 H1408 0.951 . S
C1426 C1427 1.366 . S
C1426 C1428 1.388 . S
C1427 C1426 1.366 . S
C1427 C1431 1.385 . S
C1428 H1409 0.951 . S
C1428 C1426 1.388 . S
C1428 C1429 1.366 . S
C1429 C1428 1.366 . S
C1429 C1430 1.414 . S
C1429 C1432 1.499 . S
C1430 H1410 0.950 . S
C1430 C1429 1.414 . S
C1430 C1431 1.374 . S
C1431 H1411 0.950 . S
C1431 C1427 1.385 . S
C1431 C1430 1.374 . S
C1432 C1429 1.499 . S
C1432 C1433 1.373 . S
C1432 C1434 1.389 . S
C1433 H1412 0.950 . S
C1433 C1432 1.373 . S
C1433 C1449 1.377 . S
C1434 C1432 1.389 . S
C1434 C1435 1.524 . S
C1434 C1448 1.377 . S
C1435 C1434 1.524 . S
C1435 C1436 1.397 . S
C1435 C1440 1.363 . S
C1436 H1413 0.950 . S
C1436 C1435 1.397 . S
C1436 C1437 1.334 . S
C1437 H1414 0.950 . S
C1437 C1436 1.334 . S
C1437 C1438 1.287 . S
C1438 C1437 1.287 . S
C1438 C1439 1.524 . S
C1438 H1457 0.913 . S
C1439 H1415 0.950 . S
C1439 C1438 1.524 . S
C1439 C1440 1.415 . S
C1440 H1416 0.950 . S
C1440 C1435 1.363 . S
C1440 C1439 1.415 . S
C1441 H1417 0.951 . S
C1441 C1442 1.366 . S
C1441 C1443 1.388 . S
C1442 C1441 1.366 . S
C1442 C1446 1.385 . S
C1443 H1418 0.951 . S
C1443 C1441 1.388 . S
C1443 C1444 1.366 . S
C1444 C1443 1.366 . S
C1444 C1445 1.414 . S
C1444 C1447 1.499 . S
C1445 H1419 0.950 . S
C1445 C1444 1.414 . S
C1445 C1446 1.374 . S
C1446 H1420 0.950 . S
C1446 C1442 1.385 . S
C1446 C1445 1.374 . S
C1447 C1444 1.499 . S
C1447 C1448 1.373 . S
C1447 C1449 1.389 . S
C1448 H1421 0.950 . S
C1448 C1434 1.377 . S
C1448 C1447 1.373 . S
C1449 C1433 1.377 . S
C1449 C1447 1.389 . S
C1449 C1450 1.524 . S
C1450 C1449 1.524 . S
C1450 C1451 1.397 . S
C1450 C1455 1.363 . S
C1451 H1422 0.950 . S
C1451 C1450 1.397 . S
C1451 C1452 1.334 . S
C1452 H1423 0.950 . S
C1452 C1451 1.334 . S
C1452 C1453 1.287 . S
C1453 C1452 1.287 . S
C1453 C1454 1.524 . S
C1453 H1456 0.999 . S
C1454 H1424 0.950 . S
C1454 C1453 1.524 . S
C1454 C1455 1.415 . S
C1455 H1425 0.950 . S
C1455 C1450 1.363 . S
C1455 C1454 1.415 . S
H1456 C1453 0.999 . S
H1457 C1438 0.913 . S
H1458 C1476 0.951 . S
H1459 C1478 0.951 . S
H1460 C1480 0.950 . S
H1461 C1481 0.950 . S
H1462 C1483 0.950 . S
H1463 C1486 0.950 . S
H1464 C1487 0.950 . S
H1465 C1489 0.950 . S
H1466 C1490 0.950 . S
H1467 C1491 0.951 . S
H1468 C1493 0.951 . S
H1469 C1495 0.950 . S
H1470 C1496 0.950 . S
H1471 C1498 0.950 . S
H1472 C1501 0.950 . S
H1473 C1502 0.950 . S
H1474 C1504 0.950 . S
H1475 C1505 0.950 . S
C1476 H1458 0.951 . S
C1476 C1477 1.366 . S
C1476 C1478 1.388 . S
C1477 C1476 1.366 . S
C1477 C1481 1.385 . S
C1478 H1459 0.951 . S
C1478 C1476 1.388 . S
C1478 C1479 1.366 . S
C1479 C1478 1.366 . S
C1479 C1480 1.414 . S
C1479 C1482 1.499 . S
C1480 H1460 0.950 . S
C1480 C1479 1.414 . S
C1480 C1481 1.374 . S
C1481 H1461 0.950 . S
C1481 C1477 1.385 . S
C1481 C1480 1.374 . S
C1482 C1479 1.499 . S
C1482 C1483 1.373 . S
C1482 C1484 1.389 . S
C1483 H1462 0.950 . S
C1483 C1482 1.373 . S
C1483 C1499 1.377 . S
C1484 C1482 1.389 . S
C1484 C1485 1.524 . S
C1484 C1498 1.377 . S
C1485 C1484 1.524 . S
C1485 C1486 1.397 . S
C1485 C1490 1.363 . S
C1486 H1463 0.950 . S
C1486 C1485 1.397 . S
C1486 C1487 1.334 . S
C1487 H1464 0.950 . S
C1487 C1486 1.334 . S
C1487 C1488 1.287 . S
C1488 C1487 1.287 . S
C1488 C1489 1.524 . S
C1488 H1507 0.913 . S
C1489 H1465 0.950 . S
C1489 C1488 1.524 . S
C1489 C1490 1.415 . S
C1490 H1466 0.950 . S
C1490 C1485 1.363 . S
C1490 C1489 1.415 . S
C1491 H1467 0.951 . S
C1491 C1492 1.366 . S
C1491 C1493 1.388 . S
C1492 C1491 1.366 . S
C1492 C1496 1.385 . S
C1493 H1468 0.951 . S
C1493 C1491 1.388 . S
C1493 C1494 1.366 . S
C1494 C1493 1.366 . S
C1494 C1495 1.414 . S
C1494 C1497 1.499 . S
C1495 H1469 0.950 . S
C1495 C1494 1.414 . S
C1495 C1496 1.374 . S
C1496 H1470 0.950 . S
C1496 C1492 1.385 . S
C1496 C1495 1.374 . S
C1497 C1494 1.499 . S
C1497 C1498 1.373 . S
C1497 C1499 1.389 . S
C1498 H1471 0.950 . S
C1498 C1484 1.377 . S
C1498 C1497 1.373 . S
C1499 C1483 1.377 . S
C1499 C1497 1.389 . S
C1499 C1500 1.524 . S
C1500 C1499 1.524 . S
C1500 C1501 1.397 . S
C1500 C1505 1.363 . S
C1501 H1472 0.950 . S
C1501 C1500 1.397 . S
C1501 C1502 1.334 . S
C1502 H1473 0.950 . S
C1502 C1501 1.334 . S
C1502 C1503 1.287 . S
C1503 C1502 1.287 . S
C1503 C1504 1.524 . S
C1503 H1506 0.999 . S
C1504 H1474 0.950 . S
C1504 C1503 1.524 . S
C1504 C1505 1.415 . S
C1505 H1475 0.950 . S
C1505 C1500 1.363 . S
C1505 C1504 1.415 . S
H1506 C1503 0.999 . S
H1507 C1488 0.913 . S
H1508 C1526 0.951 . S
H1509 C1528 0.951 . S
H1510 C1530 0.950 . S
H1511 C1531 0.950 . S
H1512 C1533 0.950 . S
H1513 C1536 0.950 . S
H1514 C1537 0.950 . S
H1515 C1539 0.950 . S
H1516 C1540 0.950 . S
H1517 C1541 0.951 . S
H1518 C1543 0.951 . S
H1519 C1545 0.950 . S
H1520 C1546 0.950 . S
H1521 C1548 0.950 . S
H1522 C1551 0.950 . S
H1523 C1552 0.950 . S
H1524 C1554 0.950 . S
H1525 C1555 0.950 . S
C1526 H1508 0.951 . S
C1526 C1527 1.366 . S
C1526 C1528 1.388 . S
C1527 C1526 1.366 . S
C1527 C1531 1.385 . S
C1528 H1509 0.951 . S
C1528 C1526 1.388 . S
C1528 C1529 1.366 . S
C1529 C1528 1.366 . S
C1529 C1530 1.414 . S
C1529 C1532 1.499 . S
C1530 H1510 0.950 . S
C1530 C1529 1.414 . S
C1530 C1531 1.374 . S
C1531 H1511 0.950 . S
C1531 C1527 1.385 . S
C1531 C1530 1.374 . S
C1532 C1529 1.499 . S
C1532 C1533 1.373 . S
C1532 C1534 1.389 . S
C1533 H1512 0.950 . S
C1533 C1532 1.373 . S
C1533 C1549 1.377 . S
C1534 C1532 1.389 . S
C1534 C1535 1.524 . S
C1534 C1548 1.377 . S
C1535 C1534 1.524 . S
C1535 C1536 1.397 . S
C1535 C1540 1.363 . S
C1536 H1513 0.950 . S
C1536 C1535 1.397 . S
C1536 C1537 1.334 . S
C1537 H1514 0.950 . S
C1537 C1536 1.334 . S
C1537 C1538 1.287 . S
C1538 C1537 1.287 . S
C1538 C1539 1.524 . S
C1538 H1557 0.913 . S
C1539 H1515 0.950 . S
C1539 C1538 1.524 . S
C1539 C1540 1.415 . S
C1540 H1516 0.950 . S
C1540 C1535 1.363 . S
C1540 C1539 1.415 . S
C1541 H1517 0.951 . S
C1541 C1542 1.366 . S
C1541 C1543 1.388 . S
C1542 C1541 1.366 . S
C1542 C1546 1.385 . S
C1543 H1518 0.951 . S
C1543 C1541 1.388 . S
C1543 C1544 1.366 . S
C1544 C1543 1.366 . S
C1544 C1545 1.414 . S
C1544 C1547 1.499 . S
C1545 H1519 0.950 . S
C1545 C1544 1.414 . S
C1545 C1546 1.374 . S
C1546 H1520 0.950 . S
C1546 C1542 1.385 . S
C1546 C1545 1.374 . S
C1547 C1544 1.499 . S
C1547 C1548 1.373 . S
C1547 C1549 1.389 . S
C1548 H1521 0.950 . S
C1548 C1534 1.377 . S
C1548 C1547 1.373 . S
C1549 C1533 1.377 . S
C1549 C1547 1.389 . S
C1549 C1550 1.524 . S
C1550 C1549 1.524 . S
C1550 C1551 1.397 . S
C1550 C1555 1.363 . S
C1551 H1522 0.950 . S
C1551 C1550 1.397 . S
C1551 C1552 1.334 1_655 S
C1552 H1523 0.950 . S
C1552 C1551 1.334 1_455 S
C1552 C1553 1.287 . S
C1553 C1552 1.287 . S
C1553 C1554 1.524 . S
C1553 H1556 0.999 . S
C1554 H1524 0.950 . S
C1554 C1553 1.524 . S
C1554 C1555 1.415 1_455 S
C1555 H1525 0.950 . S
C1555 C1550 1.363 . S
C1555 C1554 1.415 1_655 S
H1556 C1553 0.999 . S
H1557 C1538 0.913 . S
H1558 C1576 0.951 . S
H1559 C1578 0.951 . S
H1560 C1580 0.950 . S
H1561 C1581 0.950 . S
H1562 C1583 0.950 . S
H1563 C1586 0.950 . S
H1564 C1587 0.950 . S
H1565 C1589 0.950 . S
H1566 C1590 0.950 . S
H1567 C1591 0.951 . S
H1568 C1593 0.951 . S
H1569 C1595 0.950 . S
H1570 C1596 0.950 . S
H1571 C1598 0.950 . S
H1572 C1601 0.950 . S
H1573 C1602 0.924 1_545 S
H1574 C1604 0.950 . S
H1575 C1605 0.950 . S
C1576 H1558 0.951 . S
C1576 C1577 1.366 . S
C1576 C1578 1.388 . S
C1577 C1576 1.366 . S
C1577 C1581 1.385 . S
C1578 H1559 0.951 . S
C1578 C1576 1.388 . S
C1578 C1579 1.366 . S
C1579 C1578 1.366 . S
C1579 C1580 1.414 . S
C1579 C1582 1.499 . S
C1580 H1560 0.950 . S
C1580 C1579 1.414 . S
C1580 C1581 1.374 . S
C1581 H1561 0.950 . S
C1581 C1577 1.385 . S
C1581 C1580 1.374 . S
C1582 C1579 1.499 . S
C1582 C1583 1.373 . S
C1582 C1584 1.389 . S
C1583 H1562 0.950 . S
C1583 C1582 1.373 . S
C1583 C1599 1.377 . S
C1584 C1582 1.389 . S
C1584 C1585 1.524 . S
C1584 C1598 1.377 . S
C1585 C1584 1.524 . S
C1585 C1586 1.397 . S
C1585 C1590 1.363 . S
C1586 H1563 0.950 . S
C1586 C1585 1.397 . S
C1586 C1587 1.334 . S
C1587 H1564 0.950 . S
C1587 C1586 1.334 . S
C1587 C1588 1.287 . S
C1588 C1587 1.287 . S
C1588 C1589 1.524 . S
C1588 H1607 0.913 . S
C1589 H1565 0.950 . S
C1589 C1588 1.524 . S
C1589 C1590 1.415 . S
C1590 H1566 0.950 . S
C1590 C1585 1.363 . S
C1590 C1589 1.415 . S
C1591 H1567 0.951 . S
C1591 C1592 1.366 . S
C1591 C1593 1.388 . S
C1592 C1591 1.366 . S
C1592 C1596 1.385 . S
C1593 H1568 0.951 . S
C1593 C1591 1.388 . S
C1593 C1594 1.366 . S
C1594 C1593 1.366 . S
C1594 C1595 1.414 . S
C1594 C1597 1.499 . S
C1595 H1569 0.950 . S
C1595 C1594 1.414 . S
C1595 C1596 1.374 . S
C1596 H1570 0.950 . S
C1596 C1592 1.385 . S
C1596 C1595 1.374 . S
C1597 C1594 1.499 . S
C1597 C1598 1.373 . S
C1597 C1599 1.389 . S
C1598 H1571 0.950 . S
C1598 C1584 1.377 . S
C1598 C1597 1.373 . S
C1599 C1583 1.377 . S
C1599 C1597 1.389 . S
C1599 C1600 1.524 . S
C1600 C1599 1.524 . S
C1600 C1601 1.397 . S
C1600 C1605 1.363 . S
C1601 H1572 0.950 . S
C1601 C1600 1.397 . S
C1601 C1602 1.334 . S
C1602 H1573 0.924 1_565 S
C1602 C1601 1.334 . S
C1602 C1603 1.287 . S
C1603 C1602 1.287 . S
C1603 C1604 1.524 . S
C1603 H1606 0.999 . S
C1604 H1574 0.950 . S
C1604 C1603 1.524 . S
C1604 C1605 1.415 . S
C1605 H1575 0.950 . S
C1605 C1600 1.363 . S
C1605 C1604 1.415 . S
H1606 C1603 0.999 . S
H1607 C1588 0.913 . S
H1608 C1626 0.951 . S
H1609 C1628 0.951 . S
H1610 C1630 0.950 . S
H1611 C1631 0.950 . S
H1612 C1633 0.950 . S
H1613 C1636 0.950 . S
H1614 C1637 0.950 . S
H1615 C1639 0.950 . S
H1616 C1640 0.950 . S
H1617 C1641 0.951 . S
H1618 C1643 0.951 . S
H1619 C1645 0.950 . S
H1620 C1646 0.950 . S
H1621 C1648 0.950 . S
H1622 C1651 0.950 . S
H1623 C1652 0.950 . S
H1624 C1654 0.950 . S
H1625 C1655 0.950 . S
C1626 H1608 0.951 . S
C1626 C1627 1.366 . S
C1626 C1628 1.388 . S
C1627 C1626 1.366 . S
C1627 C1631 1.385 . S
C1628 H1609 0.951 . S
C1628 C1626 1.388 . S
C1628 C1629 1.366 . S
C1629 C1628 1.366 . S
C1629 C1630 1.414 . S
C1629 C1632 1.499 . S
C1630 H1610 0.950 . S
C1630 C1629 1.414 . S
C1630 C1631 1.374 . S
C1631 H1611 0.950 . S
C1631 C1627 1.385 . S
C1631 C1630 1.374 . S
C1632 C1629 1.499 . S
C1632 C1633 1.373 . S
C1632 C1634 1.389 . S
C1633 H1612 0.950 . S
C1633 C1632 1.373 . S
C1633 C1649 1.377 . S
C1634 C1632 1.389 . S
C1634 C1635 1.524 . S
C1634 C1648 1.377 . S
C1635 C1634 1.524 . S
C1635 C1636 1.397 . S
C1635 C1640 1.363 . S
C1636 H1613 0.950 . S
C1636 C1635 1.397 . S
C1636 C1637 1.334 . S
C1637 H1614 0.950 . S
C1637 C1636 1.334 . S
C1637 C1638 1.287 . S
C1638 C1637 1.287 . S
C1638 C1639 1.524 . S
C1638 H1657 0.913 . S
C1639 H1615 0.950 . S
C1639 C1638 1.524 . S
C1639 C1640 1.415 . S
C1640 H1616 0.950 . S
C1640 C1635 1.363 . S
C1640 C1639 1.415 . S
C1641 H1617 0.951 . S
C1641 C1642 1.366 . S
C1641 C1643 1.388 . S
C1642 C1641 1.366 . S
C1642 C1646 1.385 . S
C1643 H1618 0.951 . S
C1643 C1641 1.388 . S
C1643 C1644 1.366 . S
C1644 C1643 1.366 . S
C1644 C1645 1.414 . S
C1644 C1647 1.499 . S
C1645 H1619 0.950 . S
C1645 C1644 1.414 . S
C1645 C1646 1.374 . S
C1646 H1620 0.950 . S
C1646 C1642 1.385 . S
C1646 C1645 1.374 . S
C1647 C1644 1.499 . S
C1647 C1648 1.373 . S
C1647 C1649 1.389 . S
C1648 H1621 0.950 . S
C1648 C1634 1.377 . S
C1648 C1647 1.373 . S
C1649 C1633 1.377 . S
C1649 C1647 1.389 . S
C1649 C1650 1.524 . S
C1650 C1649 1.524 . S
C1650 C1651 1.397 . S
C1650 C1655 1.363 . S
C1651 H1622 0.950 . S
C1651 C1650 1.397 . S
C1651 C1652 1.334 . S
C1652 H1623 0.950 . S
C1652 C1651 1.334 . S
C1652 C1653 1.287 . S
C1653 C1652 1.287 . S
C1653 C1654 1.524 . S
C1653 H1656 0.999 . S
C1654 H1624 0.950 . S
C1654 C1653 1.524 . S
C1654 C1655 1.415 . S
C1655 H1625 0.950 . S
C1655 C1650 1.363 . S
C1655 C1654 1.415 . S
H1656 C1653 0.999 . S
H1657 C1638 0.913 . S
H1658 C1676 0.951 . S
H1659 C1678 0.951 . S
H1660 C1680 0.950 . S
H1661 C1681 0.950 . S
H1662 C1683 0.950 . S
H1663 C1686 0.950 . S
H1664 C1687 0.950 . S
H1665 C1689 0.950 . S
H1666 C1690 0.950 . S
H1667 C1691 0.951 . S
H1668 C1693 0.951 . S
H1669 C1695 0.950 . S
H1670 C1696 0.950 . S
H1671 C1698 0.950 . S
H1672 C1701 0.950 . S
H1673 C1702 0.950 . S
H1674 C1704 0.950 . S
H1675 C1705 0.950 . S
C1676 H1658 0.951 . S
C1676 C1677 1.366 . S
C1676 C1678 1.388 . S
C1677 C1676 1.366 . S
C1677 C1681 1.385 . S
C1678 H1659 0.951 . S
C1678 C1676 1.388 . S
C1678 C1679 1.366 . S
C1679 C1678 1.366 . S
C1679 C1680 1.414 . S
C1679 C1682 1.499 . S
C1680 H1660 0.950 . S
C1680 C1679 1.414 . S
C1680 C1681 1.374 . S
C1681 H1661 0.950 . S
C1681 C1677 1.385 . S
C1681 C1680 1.374 . S
C1682 C1679 1.499 . S
C1682 C1683 1.373 . S
C1682 C1684 1.389 . S
C1683 H1662 0.950 . S
C1683 C1682 1.373 . S
C1683 C1699 1.377 . S
C1684 C1682 1.389 . S
C1684 C1685 1.524 . S
C1684 C1698 1.377 . S
C1685 C1684 1.524 . S
C1685 C1686 1.397 . S
C1685 C1690 1.363 . S
C1686 H1663 0.950 . S
C1686 C1685 1.397 . S
C1686 C1687 1.334 . S
C1687 H1664 0.950 . S
C1687 C1686 1.334 . S
C1687 C1688 1.287 . S
C1688 C1687 1.287 . S
C1688 C1689 1.524 . S
C1688 H1707 0.913 . S
C1689 H1665 0.950 . S
C1689 C1688 1.524 . S
C1689 C1690 1.415 . S
C1690 H1666 0.950 . S
C1690 C1685 1.363 . S
C1690 C1689 1.415 . S
C1691 H1667 0.951 . S
C1691 C1692 1.366 . S
C1691 C1693 1.388 . S
C1692 C1691 1.366 . S
C1692 C1696 1.385 . S
C1693 H1668 0.951 . S
C1693 C1691 1.388 . S
C1693 C1694 1.366 . S
C1694 C1693 1.366 . S
C1694 C1695 1.414 . S
C1694 C1697 1.499 . S
C1695 H1669 0.950 . S
C1695 C1694 1.414 . S
C1695 C1696 1.374 . S
C1696 H1670 0.950 . S
C1696 C1692 1.385 . S
C1696 C1695 1.374 . S
C1697 C1694 1.499 . S
C1697 C1698 1.373 . S
C1697 C1699 1.389 . S
C1698 H1671 0.950 . S
C1698 C1684 1.377 . S
C1698 C1697 1.373 . S
C1699 C1683 1.377 . S
C1699 C1697 1.389 . S
C1699 C1700 1.524 . S
C1700 C1699 1.524 . S
C1700 C1701 1.397 . S
C1700 C1705 1.363 . S
C1701 H1672 0.950 . S
C1701 C1700 1.397 . S
C1701 C1702 1.334 . S
C1702 H1673 0.950 . S
C1702 C1701 1.334 . S
C1702 C1703 1.287 . S
C1703 C1702 1.287 . S
C1703 C1704 1.524 . S
C1703 H1706 0.999 . S
C1704 H1674 0.950 . S
C1704 C1703 1.524 . S
C1704 C1705 1.415 . S
C1705 H1675 0.950 . S
C1705 C1700 1.363 . S
C1705 C1704 1.415 . S
H1706 C1703 0.999 . S
H1707 C1688 0.913 . S
H1708 C1726 0.951 . S
H1709 C1728 0.951 . S
H1710 C1730 0.950 . S
H1711 C1731 0.950 . S
H1712 C1733 0.950 . S
H1713 C1736 0.950 . S
H1714 C1737 0.950 1_655 S
H1715 C1739 0.950 . S
H1716 C1740 0.950 . S
H1717 C1741 0.951 . S
H1718 C1743 0.951 . S
H1719 C1745 0.950 . S
H1720 C1746 0.950 . S
H1721 C1748 0.950 . S
H1722 C1751 0.950 . S
H1723 C1752 0.950 . S
H1724 C1754 0.950 . S
H1725 C1755 0.950 . S
C1726 H1708 0.951 . S
C1726 C1727 1.366 . S
C1726 C1728 1.388 . S
C1727 C1726 1.366 . S
C1727 C1731 1.385 . S
C1728 H1709 0.951 . S
C1728 C1726 1.388 . S
C1728 C1729 1.366 . S
C1729 C1728 1.366 . S
C1729 C1730 1.414 . S
C1729 C1732 1.499 . S
C1730 H1710 0.950 . S
C1730 C1729 1.414 . S
C1730 C1731 1.374 . S
C1731 H1711 0.950 . S
C1731 C1727 1.385 . S
C1731 C1730 1.374 . S
C1732 C1729 1.499 . S
C1732 C1733 1.373 . S
C1732 C1734 1.389 . S
C1733 H1712 0.950 . S
C1733 C1732 1.373 . S
C1733 C1749 1.377 . S
C1734 C1732 1.389 . S
C1734 C1735 1.524 . S
C1734 C1748 1.377 . S
C1735 C1734 1.524 . S
C1735 C1736 1.397 . S
C1735 C1740 1.363 . S
C1736 H1713 0.950 . S
C1736 C1735 1.397 . S
C1736 C1737 1.334 . S
C1737 H1714 0.950 1_455 S
C1737 C1736 1.334 . S
C1737 C1738 1.287 . S
C1738 C1737 1.287 . S
C1738 C1739 1.524 . S
C1738 H1757 0.913 . S
C1739 H1715 0.950 . S
C1739 C1738 1.524 . S
C1739 C1740 1.415 . S
C1740 H1716 0.950 . S
C1740 C1735 1.363 . S
C1740 C1739 1.415 . S
C1741 H1717 0.951 . S
C1741 C1742 1.366 . S
C1741 C1743 1.388 . S
C1742 C1741 1.366 . S
C1742 C1746 1.385 . S
C1743 H1718 0.951 . S
C1743 C1741 1.388 . S
C1743 C1744 1.366 . S
C1744 C1743 1.366 . S
C1744 C1745 1.414 . S
C1744 C1747 1.499 . S
C1745 H1719 0.950 . S
C1745 C1744 1.414 . S
C1745 C1746 1.374 . S
C1746 H1720 0.950 . S
C1746 C1742 1.385 . S
C1746 C1745 1.374 . S
C1747 C1744 1.499 . S
C1747 C1748 1.373 . S
C1747 C1749 1.389 . S
C1748 H1721 0.950 . S
C1748 C1734 1.377 . S
C1748 C1747 1.373 . S
C1749 C1733 1.377 . S
C1749 C1747 1.389 . S
C1749 C1750 1.524 . S
C1750 C1749 1.524 . S
C1750 C1751 1.397 . S
C1750 C1755 1.363 . S
C1751 H1722 0.950 . S
C1751 C1750 1.397 . S
C1751 C1752 1.334 . S
C1752 H1723 0.950 . S
C1752 C1751 1.334 . S
C1752 C1753 1.287 . S
C1753 C1752 1.287 . S
C1753 C1754 1.524 . S
C1753 H1756 0.999 . S
C1754 H1724 0.950 . S
C1754 C1753 1.524 . S
C1754 C1755 1.415 . S
C1755 H1725 0.950 . S
C1755 C1750 1.363 . S
C1755 C1754 1.415 . S
H1756 C1753 0.999 . S
H1757 C1738 0.913 . S
H1758 C1776 0.951 . S
H1759 C1778 0.951 . S
H1760 C1780 0.950 . S
H1761 C1781 0.950 . S
H1762 C1783 0.950 . S
H1763 C1786 0.950 . S
H1764 C1787 0.950 . S
H1765 C1789 0.950 . S
H1766 C1790 0.950 . S
H1767 C1791 0.951 . S
H1768 C1793 0.951 . S
H1769 C1795 0.950 . S
H1770 C1796 0.950 . S
H1771 C1798 0.950 . S
H1772 C1801 0.950 . S
H1773 C1802 0.950 . S
H1774 C1804 0.950 . S
H1775 C1805 0.950 . S
C1776 H1758 0.951 . S
C1776 C1777 1.366 . S
C1776 C1778 1.388 . S
C1777 C1776 1.366 . S
C1777 C1781 1.385 . S
C1778 H1759 0.951 . S
C1778 C1776 1.388 . S
C1778 C1779 1.366 . S
C1779 C1778 1.366 . S
C1779 C1780 1.414 . S
C1779 C1782 1.499 . S
C1780 H1760 0.950 . S
C1780 C1779 1.414 . S
C1780 C1781 1.374 . S
C1781 H1761 0.950 . S
C1781 C1777 1.385 . S
C1781 C1780 1.374 . S
C1782 C1779 1.499 . S
C1782 C1783 1.373 . S
C1782 C1784 1.389 . S
C1783 H1762 0.950 . S
C1783 C1782 1.373 . S
C1783 C1799 1.377 . S
C1784 C1782 1.389 . S
C1784 C1785 1.524 . S
C1784 C1798 1.377 . S
C1785 C1784 1.524 . S
C1785 C1786 1.397 . S
C1785 C1790 1.363 . S
C1786 H1763 0.950 . S
C1786 C1785 1.397 . S
C1786 C1787 1.334 . S
C1787 H1764 0.950 . S
C1787 C1786 1.334 . S
C1787 C1788 1.287 . S
C1788 C1787 1.287 . S
C1788 C1789 1.524 . S
C1788 H1807 0.913 . S
C1789 H1765 0.950 . S
C1789 C1788 1.524 . S
C1789 C1790 1.415 . S
C1790 H1766 0.950 . S
C1790 C1785 1.363 . S
C1790 C1789 1.415 . S
C1791 H1767 0.951 . S
C1791 C1792 1.366 . S
C1791 C1793 1.388 . S
C1792 C1791 1.366 . S
C1792 C1796 1.385 . S
C1793 H1768 0.951 . S
C1793 C1791 1.388 . S
C1793 C1794 1.366 . S
C1794 C1793 1.366 . S
C1794 C1795 1.414 . S
C1794 C1797 1.499 . S
C1795 H1769 0.950 . S
C1795 C1794 1.414 . S
C1795 C1796 1.374 . S
C1796 H1770 0.950 . S
C1796 C1792 1.385 . S
C1796 C1795 1.374 . S
C1797 C1794 1.499 . S
C1797 C1798 1.373 . S
C1797 C1799 1.389 . S
C1798 H1771 0.950 . S
C1798 C1784 1.377 . S
C1798 C1797 1.373 . S
C1799 C1783 1.377 . S
C1799 C1797 1.389 . S
C1799 C1800 1.524 . S
C1800 C1799 1.524 . S
C1800 C1801 1.397 . S
C1800 C1805 1.363 . S
C1801 H1772 0.950 . S
C1801 C1800 1.397 . S
C1801 C1802 1.334 1_545 S
C1802 H1773 0.950 . S
C1802 C1801 1.334 1_565 S
C1802 C1803 1.287 . S
C1803 C1802 1.287 . S
C1803 C1804 1.524 1_565 S
C1803 H1806 0.999 . S
C1804 H1774 0.950 . S
C1804 C1803 1.524 1_545 S
C1804 C1805 1.415 . S
C1805 H1775 0.950 . S
C1805 C1800 1.363 . S
C1805 C1804 1.415 . S
H1806 C1803 0.999 . S
H1807 C1788 0.913 . S
C227 C5 0.515 . S
C242 C125 0.433 . S
C277 C138 0.434 . S
C292 C18 0.514 . S
C327 C151 0.431 . S
C342 C31 0.517 . S
C377 C112 0.434 . S
C392 C44 0.515 . S
C427 C57 0.516 . S
C442 C203 0.433 . S
C477 C164 0.433 . S
C492 C70 0.515 . S
C527 C177 0.433 . S
C542 C83 0.515 . S
C577 C190 0.431 . S
C592 C96 0.518 . S
C627 C109 0.515 . S
C642 C21 0.433 . S
C677 C122 0.516 . S
C692 C34 0.432 . S
C727 C135 0.517 . S
C742 C47 0.431 . S
C777 C8 0.433 . S
C792 C148 0.515 . S
C827 C161 0.515 . S
C842 C99 0.434 . S
C877 C174 0.516 . S
C892 C60 0.432 . S
C927 C73 0.434 . S
C942 C187 0.514 . S
C977 C200 0.514 . S
C992 C86 0.434 . S
C1027 C104 1.411 . S
C1042 C0 1.411 . S
C1077 C13 1.412 . S
C1092 C117 1.412 . S
C1127 C130 1.411 . S
C1142 C26 1.411 . S
C1177 C39 1.412 . S
C1192 C143 1.412 . S
C1227 C156 1.412 . S
C1242 C52 1.412 . S
C1277 C65 1.412 . S
C1292 C169 1.412 . S
C1327 C182 1.412 . S
C1342 C78 1.412 . S
C1377 C195 1.412 . S
C1392 C91 1.412 . S
C1427 C62 1.618 . S
C1442 C10 1.619 . S
C1477 C75 1.618 . S
C1492 C23 1.618 . S
C1527 C36 1.619 . S
C1542 C88 1.618 . S
C1577 C101 1.619 . S
C1592 C49 1.619 . S
C1627 C114 1.619 . S
C1642 C166 1.619 . S
C1677 C179 1.618 . S
C1692 C127 1.619 . S
C1727 C192 1.619 . S
C1742 C140 1.619 . S
C1777 C205 1.619 . S
C1792 C153 1.618 . S
