# Generated by pormake.
# Topology wjo, (5)-cn, num edge types: 1
# Building blocks:
#     Node 0, Type 0, BuildingBlock: BEQFEK_clean_sbu_0, # of connection points: 5
#     Node 1, Type 0, BuildingBlock: BEQFEK_clean_sbu_0, # of connection points: 5
#     Node 2, Type 0, BuildingBlock: BEQFEK_clean_sbu_0, # of connection points: 5
#     Node 3, Type 0, BuildingBlock: BEQFEK_clean_sbu_0, # of connection points: 5
#     Node 4, Type 0, BuildingBlock: BEQFEK_clean_sbu_0, # of connection points: 5
#     Node 5, Type 0, BuildingBlock: BEQFEK_clean_sbu_0, # of connection points: 5
#     Node 6, Type 0, BuildingBlock: BEQFEK_clean_sbu_0, # of connection points: 5
#     Node 7, Type 0, BuildingBlock: BEQFEK_clean_sbu_0, # of connection points: 5
#     Node 8, Type 0, BuildingBlock: BEQFEK_clean_sbu_0, # of connection points: 5
#     Node 9, Type 0, BuildingBlock: BEQFEK_clean_sbu_0, # of connection points: 5
#     Node 10, Type 0, BuildingBlock: BEQFEK_clean_sbu_0, # of connection points: 5
#     Node 11, Type 0, BuildingBlock: BEQFEK_clean_sbu_0, # of connection points: 5
#     Edge 12, Type (0, 0), BuildingBlock: CIFDUS_clean_linker_0, # of connection points: 2
#     Edge 13, Type (0, 0), BuildingBlock: CIFDUS_clean_linker_0, # of connection points: 2
#     Edge 14, Type (0, 0), BuildingBlock: CIFDUS_clean_linker_0, # of connection points: 2
#     Edge 15, Type (0, 0), BuildingBlock: CIFDUS_clean_linker_0, # of connection points: 2
#     Edge 16, Type (0, 0), BuildingBlock: CIFDUS_clean_linker_0, # of connection points: 2
#     Edge 17, Type (0, 0), BuildingBlock: CIFDUS_clean_linker_0, # of connection points: 2
#     Edge 18, Type (0, 0), BuildingBlock: CIFDUS_clean_linker_0, # of connection points: 2
#     Edge 19, Type (0, 0), BuildingBlock: CIFDUS_clean_linker_0, # of connection points: 2
#     Edge 20, Type (0, 0), BuildingBlock: CIFDUS_clean_linker_0, # of connection points: 2
#     Edge 21, Type (0, 0), BuildingBlock: CIFDUS_clean_linker_0, # of connection points: 2
#     Edge 22, Type (0, 0), BuildingBlock: CIFDUS_clean_linker_0, # of connection points: 2
#     Edge 23, Type (0, 0), BuildingBlock: CIFDUS_clean_linker_0, # of connection points: 2
#     Edge 24, Type (0, 0), BuildingBlock: CIFDUS_clean_linker_0, # of connection points: 2
#     Edge 25, Type (0, 0), BuildingBlock: CIFDUS_clean_linker_0, # of connection points: 2
#     Edge 26, Type (0, 0), BuildingBlock: CIFDUS_clean_linker_0, # of connection points: 2
#     Edge 27, Type (0, 0), BuildingBlock: CIFDUS_clean_linker_0, # of connection points: 2
#     Edge 28, Type (0, 0), BuildingBlock: CIFDUS_clean_linker_0, # of connection points: 2
#     Edge 29, Type (0, 0), BuildingBlock: CIFDUS_clean_linker_0, # of connection points: 2
#     Edge 30, Type (0, 0), BuildingBlock: CIFDUS_clean_linker_0, # of connection points: 2
#     Edge 31, Type (0, 0), BuildingBlock: CIFDUS_clean_linker_0, # of connection points: 2
#     Edge 32, Type (0, 0), BuildingBlock: CIFDUS_clean_linker_0, # of connection points: 2
#     Edge 33, Type (0, 0), BuildingBlock: CIFDUS_clean_linker_0, # of connection points: 2
#     Edge 34, Type (0, 0), BuildingBlock: CIFDUS_clean_linker_0, # of connection points: 2
#     Edge 35, Type (0, 0), BuildingBlock: CIFDUS_clean_linker_0, # of connection points: 2
#     Edge 36, Type (0, 0), BuildingBlock: CIFDUS_clean_linker_0, # of connection points: 2
#     Edge 37, Type (0, 0), BuildingBlock: CIFDUS_clean_linker_0, # of connection points: 2
#     Edge 38, Type (0, 0), BuildingBlock: CIFDUS_clean_linker_0, # of connection points: 2
#     Edge 39, Type (0, 0), BuildingBlock: CIFDUS_clean_linker_0, # of connection points: 2
#     Edge 40, Type (0, 0), BuildingBlock: CIFDUS_clean_linker_0, # of connection points: 2
#     Edge 41, Type (0, 0), BuildingBlock: CIFDUS_clean_linker_0, # of connection points: 2
# Relax obj value: 0.806
# Max RMSD: 0.256
# Mean RMSD: 0.246
data_MOF--net-wjo--node1-BEQFEK_clean_sbu_0--edge1-CIFDUS_clean_linker_0
_symmetry_space_group_name_H-M    P1
_symmetry_Int_Tables_number       1
_symmetry_cell_setting            triclinic
loop_
_symmetry_equiv_pos_as_xyz
'x, y, z'
_cell_length_a     40.760786
_cell_length_b     40.525321
_cell_length_c     24.796892
_cell_angle_alpha  90.062481
_cell_angle_beta   90.070563
_cell_angle_gamma 120.05123
loop_
_atom_site_label
_atom_site_type_symbol
_atom_site_fract_x
_atom_site_fract_y
_atom_site_fract_z
_atom_type_partial_charge
Co0 Co 0.3135 0.37409 0.92223 0.0
Co1 Co 0.30727 0.43681 0.98921 0.0
C2 C 0.31355 0.37452 0.04357 0.0
O3 O 0.31678 0.36076 -0.00109 0.0
O4 O 0.30904 0.40337 0.04509 0.0
C5 C 0.29805 0.2986 0.89291 0.0
O6 O 0.28211 0.29016 0.94074 0.0
C7 C 0.28337 0.47276 0.07036 0.0
C8 C 0.31911 0.5338 0.05023 0.0
C9 C 0.29365 0.50912 0.08782 0.0
N10 N 0.30174 0.47561 0.02419 0.0
N11 N 0.32256 0.51217 0.01184 0.0
C12 C 0.26055 0.43644 0.101 0.0
H13 H 0.25468 0.41136 0.07606 0.0
H14 H 0.23324 0.43372 0.11379 0.0
H15 H 0.27622 0.43709 0.13797 0.0
C16 C 0.23336 0.3534 0.89772 0.0
N17 N 0.2688 0.37877 0.9145 0.0
N18 N 0.26774 0.407 0.93932 0.0
C19 C 0.23213 0.40113 0.93714 0.0
C20 C 0.20865 0.36631 0.91224 0.0
C21 C 0.22218 0.31486 0.87552 0.0
H22 H 0.24298 0.31737 0.84468 0.0
H23 H 0.22216 0.29645 0.90858 0.0
H24 H 0.19343 0.30134 0.8573 0.0
O25 O 0.36225 0.42233 0.90384 0.0
O26 O 0.35733 0.46373 0.9567 0.0
H27 H 0.24209 0.45488 0.96843 0.0
H28 H 0.19418 0.4233 0.94742 0.0
C29 C 0.21924 0.42469 0.96713 0.0
H30 H 0.2111 0.41358 0.0087 0.0
H31 H 0.34091 0.52247 0.97894 0.0
O32 O 0.31198 0.3326 0.87563 0.0
C33 C 0.37608 0.45565 0.92395 0.0
Co34 Co 0.94553 0.31181 0.06988 0.0
Co35 Co 0.88617 0.30593 0.1563 0.0
C36 C 0.95954 0.31304 0.18931 0.0
O37 O 0.9712 0.31622 0.14084 0.0
O38 O 0.92711 0.30858 0.19996 0.0
C39 C 1.00261 0.29831 0.02229 0.0
O40 O 0.99943 0.28077 0.06817 0.0
C41 C 0.8553 0.31432 0.25574 0.0
C42 C 0.79332 0.28021 0.24574 0.0
C43 C 0.82146 0.30068 0.28368 0.0
N44 N 0.8476 0.30062 0.20523 0.0
N45 N 0.81044 0.28169 0.19861 0.0
C46 C 0.89415 0.34412 0.2737 0.0
H47 H 0.9109 0.36135 0.2387 0.0
H48 H 0.90915 0.3303 0.2914 0.0
H49 H 0.8925 0.36321 0.30437 0.0
C50 C 0.88443 0.23073 0.0526 0.0
N51 N 0.89609 0.2662 0.0717 0.0
N52 N 0.87156 0.26407 0.10828 0.0
C53 C 0.84452 0.22724 0.11462 0.0
C54 C 0.85112 0.20494 0.07871 0.0
C55 C 0.90766 0.22085 0.01665 0.0
H56 H 0.92183 0.24312 0.98539 0.0
H57 H 0.92976 0.21949 0.04109 0.0
H58 H 0.88972 0.19268 -0.00284 0.0
O59 O 0.9431 0.35971 0.05694 0.0
O60 O 0.9037 0.35505 0.12173 0.0
H61 H 0.79195 0.20997 0.15478 0.0
H62 H 0.81409 0.18345 0.17491 0.0
C63 C 0.81968 0.21227 0.16355 0.0
H64 H 0.83328 0.2313 0.19853 0.0
H65 H 0.79678 0.2691 0.16247 0.0
O66 O 0.98046 0.31134 0.01299 0.0
C67 C 0.92587 0.3734 0.08342 0.0
Co68 Co 0.64524 0.93727 0.23851 0.0
Co69 Co 0.58819 0.86635 0.30735 0.0
C70 C 0.64871 0.93969 0.35823 0.0
O71 O 0.66132 0.95674 0.31336 0.0
O72 O 0.62134 0.90549 0.36019 0.0
C73 C 0.7154 1.00077 0.19404 0.0
O74 O 0.73181 0.99785 0.23796 0.0
C75 C 0.56622 0.80697 0.38879 0.0
C76 C 0.50427 0.77198 0.37667 0.0
C77 C 0.53379 0.77569 0.4087 0.0
N78 N 0.55643 0.82086 0.34648 0.0
N79 N 0.51942 0.79961 0.33906 0.0
C80 C 0.60522 0.82586 0.41288 0.0
H81 H 0.60455 0.83691 0.45358 0.0
H82 H 0.62577 0.84933 0.38694 0.0
H83 H 0.61524 0.80519 0.41749 0.0
C84 C 0.6721 0.88201 0.21379 0.0
N85 N 0.64523 0.88984 0.23088 0.0
N86 N 0.61827 0.85927 0.25487 0.0
C87 C 0.62609 0.83073 0.25074 0.0
C88 C 0.6613 0.84442 0.22671 0.0
C89 C 0.70995 0.91138 0.19279 0.0
H90 H 0.70625 0.92882 0.16158 0.0
H91 H 0.72696 0.93042 0.22634 0.0
H92 H 0.72543 0.89786 0.17528 0.0
O93 O 0.59375 0.93205 0.22534 0.0
O94 O 0.55509 0.88325 0.27696 0.0
H95 H 0.57314 0.78462 0.27968 0.0
H96 H 0.60473 0.77021 0.25277 0.0
C97 C 0.60328 0.79251 0.27677 0.0
H98 H 0.61495 0.79301 0.31732 0.0
H99 H 0.50432 0.80475 0.30946 0.0
O100 O 0.68028 0.97744 0.18636 0.0
C101 C 0.56097 0.91007 0.24506 0.0
Co102 Co 0.71767 0.64086 0.3995 0.0
Co103 Co 0.72295 0.58631 0.48513 0.0
C104 C 0.71604 0.65334 0.51882 0.0
O105 O 0.7134 0.66207 0.47023 0.0
O106 O 0.72062 0.62524 0.52984 0.0
C107 C 0.73183 0.71147 0.34904 0.0
O108 O 0.7489 0.72676 0.39491 0.0
C109 C 0.74011 0.55644 0.58192 0.0
C110 C 0.72271 0.49741 0.55768 0.0
C111 C 0.73587 0.52238 0.60095 0.0
N112 N 0.72927 0.55173 0.53006 0.0
N113 N 0.71905 0.51642 0.51568 0.0
C114 C 0.75541 0.59329 0.61194 0.0
H115 H 0.77001 0.61772 0.58392 0.0
H116 H 0.77554 0.59556 0.64388 0.0
H117 H 0.73149 0.59449 0.63118 0.0
C118 C 0.79767 0.65761 0.38132 0.0
N119 N 0.76219 0.6357 0.40078 0.0
N120 N 0.76235 0.61037 0.43391 0.0
C121 C 0.79721 0.61448 0.43507 0.0
C122 C 0.82103 0.64477 0.40227 0.0
C123 C 0.81024 0.69347 0.35008 0.0
H124 H 0.78951 0.68835 0.31755 0.0
H125 H 0.81127 0.71567 0.37741 0.0
H126 H 0.83879 0.7039 0.33245 0.0
O127 O 0.66935 0.59068 0.38733 0.0
O128 O 0.67333 0.55554 0.45261 0.0
H129 H 0.78956 0.5635 0.47237 0.0
H130 H 0.83842 0.60045 0.46678 0.0
C131 C 0.80924 0.59467 0.47466 0.0
H132 H 0.80815 0.6045 0.516 0.0
H133 H 0.70878 0.50504 0.47749 0.0
O134 O 0.71869 0.67594 0.34146 0.0
C135 C 0.65518 0.55984 0.41442 0.0
Co136 Co 0.07763 0.7151 0.58076 0.0
Co137 Co 0.146 0.72525 0.65263 0.0
C138 C 0.07563 0.7161 0.7026 0.0
O139 O 0.0594 0.71133 0.65689 0.0
O140 O 0.10945 0.72251 0.70645 0.0
C141 C 0.01816 0.72949 0.54833 0.0
O142 O 0.02576 0.74647 0.59558 0.0
C143 C 0.20063 0.74212 0.73985 0.0
C144 C 0.24732 0.7393 0.69895 0.0
C145 C 0.23544 0.74498 0.74853 0.0
N146 N 0.19177 0.73464 0.68745 0.0
N147 N 0.2197 0.73275 0.6632 0.0
C148 C 0.17704 0.74835 0.78027 0.0
H149 H 0.15142 0.72062 0.78946 0.0
H150 H 0.16791 0.7677 0.76301 0.0
H151 H 0.1928 0.761 0.81825 0.0
C152 C 0.13565 0.79622 0.55527 0.0
N153 N 0.12606 0.76122 0.57407 0.0
N154 N 0.15467 0.76411 0.60265 0.0
C155 C 0.18309 0.80062 0.60272 0.0
C156 C 0.17204 0.82249 0.57301 0.0
C157 C 0.10869 0.80558 0.52775 0.0
H158 H 0.0913 0.78303 0.49802 0.0
H159 H 0.08956 0.80703 0.5582 0.0
H160 H 0.12421 0.83356 0.50704 0.0
O161 O 0.07993 0.66753 0.56382 0.0
O162 O 0.12531 0.67478 0.62028 0.0
H163 H 0.23322 0.8018 0.63103 0.0
H164 H 0.23487 0.8467 0.63833 0.0
C165 C 0.21617 0.8154 0.64065 0.0
H166 H 0.20568 0.80782 0.68258 0.0
H167 H 0.21991 0.72701 0.6222 0.0
O168 O 0.03788 0.71497 0.5324 0.0
C169 C 0.09985 0.65505 0.58596 0.0
Co170 Co 0.37984 0.07905 0.737 0.0
Co171 Co 0.43372 0.13373 0.82744 0.0
C172 C 0.36542 0.05896 0.85422 0.0
O173 O 0.35713 0.04978 0.80483 0.0
O174 O 0.39377 0.09075 0.86781 0.0
C175 C 0.30944 0.02755 0.68332 0.0
O176 O 0.29442 0.03037 0.72872 0.0
C177 C 0.46059 0.1733 0.92987 0.0
C178 C 0.52149 0.21229 0.91451 0.0
C179 C 0.49437 0.19868 0.95476 0.0
N180 N 0.46737 0.17101 0.87753 0.0
N181 N 0.50379 0.19468 0.86837 0.0
C182 C 0.4223 0.15183 0.95534 0.0
H183 H 0.39982 0.14601 0.92534 0.0
H184 H 0.41994 0.16811 0.98967 0.0
H185 H 0.41819 0.12436 0.9708 0.0
C186 C 0.36597 0.1454 0.72589 0.0
N187 N 0.38622 0.12946 0.74385 0.0
N188 N 0.4113 0.15286 0.77922 0.0
C189 C 0.40856 0.18448 0.78359 0.0
C190 C 0.37958 0.18088 0.75038 0.0
C191 C 0.33113 0.12509 0.69187 0.0
H192 H 0.33584 0.10935 0.659 0.0
H193 H 0.30739 0.10416 0.71719 0.0
H194 H 0.32326 0.14543 0.67452 0.0
O195 O 0.42934 0.08018 0.7233 0.0
O196 O 0.4642 0.11575 0.79168 0.0
H197 H 0.4251 0.23962 0.81901 0.0
H198 H 0.41749 0.20254 0.86597 0.0
C199 C 0.42879 0.2146 0.82562 0.0
H200 H 0.45945 0.22411 0.8249 0.0
H201 H 0.51684 0.1977 0.83108 0.0
O202 O 0.34512 0.04804 0.67688 0.0
C203 C 0.45983 0.095 0.75101 0.0
Co204 Co 0.65067 0.7137 0.9156 0.0
Co205 Co 0.59347 0.71456 0.83084 0.0
C206 C 0.65931 0.70878 0.79467 0.0
O207 O 0.66879 0.70714 0.84322 0.0
O208 O 0.63102 0.7128 0.78396 0.0
C209 C 0.72525 0.73627 0.95393 0.0
O210 O 0.73416 0.7536 0.90701 0.0
C211 C 0.54947 0.70647 0.73517 0.0
C212 C 0.51588 0.73341 0.75727 0.0
C213 C 0.52481 0.71754 0.71404 0.0
N214 N 0.55639 0.71738 0.78698 0.0
N215 N 0.53497 0.73195 0.80072 0.0
C216 C 0.56261 0.68163 0.70957 0.0
H217 H 0.56574 0.66369 0.74063 0.0
H218 H 0.59065 0.69972 0.69062 0.0
H219 H 0.54216 0.66279 0.67847 0.0
C220 C 0.66568 0.79385 0.93168 0.0
N221 N 0.64427 0.75785 0.91266 0.0
N222 N 0.62018 0.75761 0.87679 0.0
C223 C 0.6263 0.79333 0.87097 0.0
C224 C 0.65464 0.81732 0.90627 0.0
C225 C 0.69935 0.80669 0.96765 0.0
H226 H 0.694 0.78421 -0.00245 0.0
H227 H 0.72421 0.81219 0.94286 0.0
H228 H 0.70599 0.83351 0.98878 0.0
O229 O 0.60231 0.66517 0.9337 0.0
O230 O 0.56573 0.66593 0.86813 0.0
H231 H 0.58461 0.80412 0.83598 0.0
H232 H 0.63162 0.83636 0.81375 0.0
C233 C 0.61184 0.8062 0.82452 0.0
H234 H 0.60776 0.78842 0.78843 0.0
H235 H 0.53402 0.74167 0.83934 0.0
O236 O 0.69062 0.71898 0.96836 0.0
C237 C 0.57115 0.64938 0.90757 0.0
Co238 Co 0.9394 0.64789 0.07602 0.0
Co239 Co 0.86938 0.58529 0.011 0.0
C240 C 0.93808 0.64729 0.95547 0.0
O241 O 0.95558 0.66165 -0.00042 0.0
O242 O 0.9048 0.61852 0.95517 0.0
C243 C 0.99958 0.72281 0.10669 0.0
O244 O 0.99127 0.73205 0.05993 0.0
C245 C 0.80862 0.55733 0.93207 0.0
C246 C 0.78165 0.49484 0.94061 0.0
C247 C 0.78111 0.52317 0.91014 0.0
N248 N 0.82453 0.54972 0.97406 0.0
N249 N 0.80791 0.51231 0.97957 0.0
C250 C 0.82293 0.59634 0.9091 0.0
H251 H 0.84315 0.61861 0.93714 0.0
H252 H 0.79894 0.60128 0.9013 0.0
H253 H 0.83704 0.59853 0.86997 0.0
C254 C 0.87976 0.66816 0.10478 0.0
N255 N 0.89045 0.64375 0.0855 0.0
N256 N 0.86074 0.61469 0.0629 0.0
C257 C 0.8301 0.6186 0.07011 0.0
C258 C 0.84112 0.65316 0.0954 0.0
C259 C 0.90678 0.70727 0.12532 0.0
H260 H 0.9266 0.70589 0.15467 0.0
H261 H 0.9236 0.72548 0.0911 0.0
H262 H 0.89144 0.72028 0.14481 0.0
O263 O 0.93905 0.59862 0.09232 0.0
O264 O 0.89117 0.55654 0.04196 0.0
H265 H 0.78686 0.56309 0.04326 0.0
H266 H 0.76919 0.59175 0.07214 0.0
C267 C 0.79179 0.59247 0.0465 0.0
H268 H 0.78964 0.60302 0.00619 0.0
H269 H 0.81593 0.49869 0.008 0.0
O270 O 0.97988 0.68853 0.12299 0.0
C271 C 0.91879 0.56496 0.07346 0.0
Co272 Co 0.30572 0.93127 0.24732 0.0
Co273 Co 0.29917 0.86939 0.1639 0.0
C274 C 0.30788 0.94342 0.12707 0.0
O275 O 0.31033 0.95541 0.17537 0.0
O276 O 0.30304 0.91044 0.11709 0.0
C277 C 0.29436 0.9905 0.29557 0.0
O278 O 0.2781 0.98928 0.24925 0.0
C279 C 0.28386 0.82035 0.069 0.0
C280 C 0.29033 0.77323 0.10186 0.0
C281 C 0.28322 0.787 0.05494 0.0
N282 N 0.29155 0.82657 0.12188 0.0
N283 N 0.29557 0.79838 0.14127 0.0
C284 C 0.27558 0.84497 0.03321 0.0
H285 H 0.25922 0.85561 0.05565 0.0
H286 H 0.25921 0.82916 -0.00301 0.0
H287 H 0.30281 0.86966 0.01999 0.0
C288 C 0.22495 0.86968 0.26563 0.0
N289 N 0.26035 0.882 0.24678 0.0
N290 N 0.25921 0.85586 0.2139 0.0
C291 C 0.22361 0.82604 0.21187 0.0
C292 C 0.20053 0.83364 0.24439 0.0
C293 C 0.21369 0.89412 0.29649 0.0
H294 H 0.23453 0.90936 0.32914 0.0
H295 H 0.21381 0.91574 0.26894 0.0
H296 H 0.18489 0.87681 0.31389 0.0
O297 O 0.35312 0.92835 0.26115 0.0
O298 O 0.34844 0.88771 0.19763 0.0
H299 H 0.22622 0.77894 0.17775 0.0
H300 H 0.17972 0.77363 0.17493 0.0
C301 C 0.21047 0.79434 0.1715 0.0
H302 H 0.21643 0.80642 0.13023 0.0
H303 H 0.30197 0.79636 0.18147 0.0
O304 O 0.30583 0.96692 0.30402 0.0
C305 C 0.3667 0.9106 0.23555 0.0
Co306 Co 0.38039 0.30234 0.41738 0.0
Co307 Co 0.43979 0.29275 0.34875 0.0
C308 C 0.37787 0.30122 0.29682 0.0
O309 O 0.36518 0.30539 0.34184 0.0
O310 O 0.40586 0.29554 0.29448 0.0
C311 C 0.30931 0.29486 0.45776 0.0
O312 O 0.29486 0.27866 0.4111 0.0
C313 C 0.47318 0.26717 0.266 0.0
C314 C 0.53385 0.29907 0.28846 0.0
C315 C 0.50889 0.27539 0.24943 0.0
N316 N 0.47668 0.28502 0.31304 0.0
N317 N 0.51295 0.30351 0.32675 0.0
C318 C 0.4372 0.24698 0.23404 0.0
H319 H 0.41239 0.24095 0.25923 0.0
H320 H 0.43329 0.21971 0.2179 0.0
H321 H 0.43897 0.26498 0.19923 0.0
C322 C 0.35582 0.22057 0.43837 0.0
N323 N 0.38279 0.25614 0.42416 0.0
N324 N 0.41029 0.25398 0.39955 0.0
C325 C 0.40252 0.21749 0.39985 0.0
C326 C 0.36705 0.1946 0.42272 0.0
C327 C 0.31728 0.21083 0.45768 0.0
H328 H 0.31996 0.23038 0.4909 0.0
H329 H 0.30152 0.21472 0.42413 0.0
H330 H 0.30115 0.18089 0.47196 0.0
O331 O 0.42978 0.35059 0.43299 0.0
O332 O 0.46912 0.34331 0.37961 0.0
H333 H 0.4553 0.22527 0.36948 0.0
H334 H 0.42146 0.177 0.38686 0.0
C335 C 0.4248 0.20355 0.369 0.0
H336 H 0.41439 0.1973 0.32684 0.0
H337 H 0.5237 0.32095 0.36073 0.0
O338 O 0.34356 0.3047 0.46859 0.0
C339 C 0.46244 0.36326 0.41213 0.0
Co340 Co 0.08213 0.37871 0.58608 0.0
Co341 Co 0.14172 0.43331 0.5007 0.0
C342 C 0.06722 0.36652 0.46749 0.0
O343 O 0.05588 0.35767 0.51596 0.0
O344 O 0.09975 0.3947 0.4567 0.0
C345 C 0.02549 0.30818 0.63441 0.0
O346 O 0.02746 0.29383 0.5878 0.0
C347 C 0.18522 0.46129 0.40133 0.0
C348 C 0.22575 0.52153 0.42063 0.0
C349 C 0.21249 0.49529 0.37889 0.0
N350 N 0.18152 0.46711 0.45366 0.0
N351 N 0.20616 0.50313 0.46519 0.0
C352 C 0.16311 0.42378 0.37324 0.0
H353 H 0.15464 0.39996 0.40202 0.0
H354 H 0.17998 0.42113 0.34017 0.0
H355 H 0.13736 0.42211 0.35548 0.0
C356 C 0.14307 0.35837 0.59913 0.0
N357 N 0.13127 0.38262 0.5832 0.0
N358 N 0.15696 0.40798 0.55043 0.0
C359 C 0.18614 0.40142 0.54605 0.0
C360 C 0.17814 0.36925 0.57583 0.0
C361 C 0.11861 0.32193 0.62844 0.0
H362 H 0.10358 0.32697 0.66184 0.0
H363 H 0.09717 0.30101 0.60013 0.0
H364 H 0.13575 0.30986 0.64474 0.0
O365 O 0.08486 0.42925 0.59941 0.0
O366 O 0.12408 0.46491 0.5348 0.0
H367 H 0.24071 0.41504 0.51292 0.0
H368 H 0.20542 0.40948 0.46441 0.0
C369 C 0.21704 0.42046 0.50512 0.0
H370 H 0.22827 0.45165 0.50588 0.0
H371 H 0.20852 0.51556 0.50293 0.0
O372 O 0.04807 0.34343 0.64366 0.0
C373 C 0.10186 0.46048 0.57331 0.0
Co374 Co 0.71514 0.0749 0.73571 0.0
Co375 Co 0.72336 0.14563 0.67082 0.0
C376 C 0.71446 0.07627 0.61442 0.0
O377 O 0.7114 0.0588 0.65857 0.0
O378 O 0.71963 0.10993 0.61403 0.0
C379 C 0.73059 0.01486 0.76412 0.0
O380 O 0.7463 0.0225 0.71612 0.0
C381 C 0.75049 0.2074 0.59178 0.0
C382 C 0.71934 0.23677 0.61556 0.0
C383 C 0.74368 0.23645 0.577 0.0
N384 N 0.73126 0.19141 0.63728 0.0
N385 N 0.71312 0.20944 0.65172 0.0
C386 C 0.77103 0.192 0.5597 0.0
H387 H 0.75557 0.17965 0.52139 0.0
H388 H 0.77373 0.1701 0.58273 0.0
H389 H 0.79993 0.21506 0.54942 0.0
C390 C 0.79556 0.13334 0.76188 0.0
N391 N 0.76049 0.12389 0.74444 0.0
N392 N 0.76248 0.1538 0.7203 0.0
C393 C 0.79833 0.18326 0.72347 0.0
C394 C 0.821 0.17111 0.74831 0.0
C395 C 0.80583 0.10542 0.78411 0.0
H396 H 0.78459 0.08708 0.81453 0.0
H397 H 0.80589 0.08708 0.75095 0.0
H398 H 0.8344 0.12032 0.80295 0.0
O399 O 0.66707 0.0754 0.75443 0.0
O400 O 0.67358 0.12343 0.70385 0.0
H401 H 0.79025 0.22875 0.69504 0.0
H402 H 0.83812 0.24338 0.71368 0.0
C403 C 0.81219 0.22029 0.69449 0.0
H404 H 0.81912 0.21721 0.65227 0.0
H405 H 0.69505 0.20191 0.68489 0.0
O406 O 0.71621 0.03442 0.78152 0.0
C407 C 0.65423 0.09603 0.73569 0.0
H408 H 0.28269 0.53397 0.3347 0.0
H409 H 0.16377 0.47485 0.29439 0.0
H410 H 0.17875 0.47766 0.19884 0.0
H411 H 0.22535 0.49023 0.12794 0.0
H412 H 0.34436 0.5496 0.16655 0.0
H413 H 0.33001 0.55454 0.26128 0.0
C414 C 0.26024 0.52232 0.30475 0.0
C415 C 0.22225 0.50285 0.32133 0.0
C416 C 0.26911 0.52413 0.2497 0.0
C417 C 0.19323 0.48844 0.28247 0.0
C418 C 0.20175 0.49033 0.22785 0.0
C419 C 0.24803 0.5048 0.15713 0.0
C420 C 0.28566 0.51915 0.14114 0.0
C421 C 0.23951 0.50693 0.21121 0.0
C422 C 0.31512 0.53845 0.17852 0.0
C423 C 0.30691 0.54097 0.23258 0.0
H424 H 0.75747 0.28744 0.33615 0.0
H425 H 0.87111 0.30893 0.36531 0.0
H426 H 0.85877 0.29943 0.46033 0.0
H427 H 0.81361 0.27612 0.53433 0.0
H428 H 0.69725 0.24425 0.50549 0.0
H429 H 0.7127 0.26742 0.41245 0.0
C430 C 0.77974 0.29072 0.36343 0.0
C431 C 0.81558 0.30014 0.34287 0.0
C432 C 0.77174 0.28279 0.41856 0.0
C433 C 0.84388 0.30373 0.37902 0.0
C434 C 0.83663 0.29748 0.43395 0.0
C435 C 0.79168 0.27417 0.5075 0.0
C436 C 0.75425 0.25745 0.52569 0.0
C437 C 0.80039 0.28576 0.45381 0.0
C438 C 0.72629 0.25677 0.49183 0.0
C439 C 0.73506 0.26969 0.43862 0.0
H440 H 0.4833 0.75946 0.48947 0.0
H441 H 0.57568 0.74362 0.43911 0.0
H442 H 0.5798 0.72204 0.52931 0.0
H443 H 0.56332 0.71719 0.62349 0.0
H444 H 0.46714 0.72658 0.6749 0.0
H445 H 0.45859 0.74196 0.5825 0.0
C446 C 0.50372 0.75045 0.49812 0.0
C447 C 0.53044 0.75484 0.45884 0.0
C448 C 0.5055 0.73748 0.54995 0.0
C449 C 0.55632 0.7425 0.46983 0.0
C450 C 0.55838 0.72977 0.52113 0.0
C451 C 0.53911 0.72034 0.61498 0.0
C452 C 0.51552 0.71987 0.65668 0.0
C453 C 0.53402 0.72852 0.56192 0.0
C454 C 0.48578 0.72665 0.64375 0.0
C455 C 0.48084 0.73546 0.5909 0.0
H456 H 0.71357 0.54103 0.69303 0.0
H457 H 0.76945 0.48208 0.63289 0.0
H458 H 0.7842 0.4724 0.72544 0.0
H459 H 0.78715 0.48724 0.82255 0.0
H460 H 0.73426 0.54946 0.88114 0.0
H461 H 0.71248 0.55178 0.78991 0.0
C462 C 0.72932 0.52642 0.70021 0.0
C463 C 0.74164 0.51342 0.6565 0.0
C464 C 0.73819 0.52169 0.7531 0.0
C465 C 0.76026 0.4928 0.66618 0.0
C466 C 0.76874 0.48737 0.71894 0.0
C467 C 0.77013 0.5005 0.81524 0.0
C468 C 0.76237 0.51839 0.85782 0.0
C469 C 0.75865 0.50254 0.76259 0.0
C470 C 0.74068 0.53586 0.84844 0.0
C471 C 0.72835 0.53723 0.79646 0.0
H472 H 0.21212 0.70231 0.83823 0.0
H473 H 0.303 0.80687 0.77373 0.0
H474 H 0.32908 0.82776 0.86463 0.0
H475 H 0.32026 0.81972 0.96296 0.0
H476 H 0.22911 0.71529 0.02747 0.0
H477 H 0.20891 0.69024 0.93595 0.0
C478 C 0.23819 0.72919 0.84427 0.0
C479 C 0.25569 0.75331 0.80015 0.0
C480 C 0.25252 0.74102 0.89644 0.0
C481 C 0.28937 0.78801 0.80756 0.0
C482 C 0.304 0.8 0.8594 0.0
C483 C 0.29641 0.79123 0.95669 0.0
C484 C 0.27565 0.76944 0.00118 0.0
C485 C 0.28497 0.77733 0.90422 0.0
C486 C 0.24522 0.73241 0.99337 0.0
C487 C 0.23362 0.71826 0.94122 0.0
H488 H 0.5361 0.26757 0.00288 0.0
H489 H 0.46849 0.14737 0.03655 0.0
H490 H 0.47075 0.16053 0.13279 0.0
H491 H 0.48579 0.20653 0.20603 0.0
H492 H 0.55317 0.32676 0.17386 0.0
H493 H 0.55836 0.31353 0.07866 0.0
C494 C 0.52242 0.24438 0.03154 0.0
C495 C 0.50085 0.20675 0.01288 0.0
C496 C 0.52389 0.25219 0.08694 0.0
C497 C 0.48379 0.17671 0.05007 0.0
C498 C 0.48537 0.18416 0.10508 0.0
C499 C 0.50208 0.22966 0.17812 0.0
C500 C 0.51866 0.2674 0.19601 0.0
C501 C 0.50425 0.22182 0.12374 0.0
C502 C 0.54024 0.29743 0.16037 0.0
C503 C 0.54291 0.28988 0.10605 0.0
H504 H 0.34189 0.30929 0.80367 0.0
H505 H 0.26542 0.2227 0.91426 0.0
H506 H 0.27943 0.17649 0.87317 0.0
H507 H 0.31935 0.16271 0.81364 0.0
H508 H 0.3986 0.24969 0.70688 0.0
H509 H 0.37717 0.2934 0.73751 0.0
C510 C 0.32781 0.28015 0.81817 0.0
C511 C 0.30295 0.2697 0.8625 0.0
C512 C 0.33653 0.25371 0.7949 0.0
C513 C 0.28497 0.23174 0.88066 0.0
C514 C 0.29295 0.2052 0.85714 0.0
C515 C 0.33088 0.19081 0.79588 0.0
C516 C 0.35996 0.20295 0.75753 0.0
C517 C 0.31944 0.21611 0.81528 0.0
C518 C 0.37564 0.23969 0.73573 0.0
C519 C 0.3637 0.26475 0.75374 0.0
H520 H 0.15068 0.37725 0.8801 0.0
H521 H 0.17523 0.30284 0.97414 0.0
H522 H 0.1114 0.27174 0.01187 0.0
H523 H 0.05201 0.27173 0.0277 0.0
H524 H 0.02763 0.34756 0.93644 0.0
H525 H 0.08756 0.37182 0.88809 0.0
C526 C 0.14162 0.35365 0.90795 0.0
C527 C 0.16757 0.34232 0.92427 0.0
C528 C 0.10507 0.33656 0.93073 0.0
C529 C 0.15562 0.31173 0.96036 0.0
C530 C 0.11924 0.29423 0.98248 0.0
C531 C 0.05947 0.29314 -0.00335 0.0
C532 C 0.0355 0.30815 0.98642 0.0
C533 C 0.09421 0.30731 0.96942 0.0
C534 C 0.04554 0.33559 0.94551 0.0
C535 C 0.07995 0.34963 0.91792 0.0
H536 H 0.77862 0.15142 0.05839 0.0
H537 H 0.88474 0.16596 0.11595 0.0
H538 H 0.85202 0.10142 0.15347 0.0
H539 H 0.79201 0.04511 0.18202 0.0
H540 H 0.68585 0.03073 0.12361 0.0
H541 H 0.71962 0.09059 0.07403 0.0
C542 C 0.79462 0.13974 0.07725 0.0
C543 C 0.83397 0.16309 0.08406 0.0
C544 C 0.77546 0.10298 0.09974 0.0
C545 C 0.85452 0.14816 0.1094 0.0
C546 C 0.8357 0.11149 0.1316 0.0
C547 C 0.77633 0.0548 0.15774 0.0
C548 C 0.73641 0.03377 0.15735 0.0
C549 C 0.796 0.08929 0.12901 0.0
C550 C 0.71654 0.04641 0.12497 0.0
C551 C 0.73584 0.08074 0.09665 0.0
H552 H 0.75633 0.78753 0.35258 0.0
H553 H 0.68621 0.68598 0.25942 0.0
H554 H 0.66259 0.72047 0.20625 0.0
H555 H 0.65533 0.77713 0.19464 0.0
H556 H 0.72333 0.87719 0.29119 0.0
H557 H 0.75505 0.84623 0.33316 0.0
C558 C 0.73634 0.77304 0.32009 0.0
C559 C 0.72265 0.73398 0.31076 0.0
C560 C 0.72245 0.79292 0.29009 0.0
C561 C 0.69706 0.7159 0.26796 0.0
C562 C 0.68341 0.73561 0.23753 0.0
C563 C 0.67774 0.79235 0.22395 0.0
C564 C 0.68696 0.82936 0.2398 0.0
C565 C 0.69495 0.77377 0.24943 0.0
C566 C 0.7161 0.84891 0.2777 0.0
C567 C 0.73388 0.83098 0.30232 0.0
H568 H 0.98695 0.68663 0.45713 0.0
H569 H 0.97402 0.76087 0.56931 0.0
H570 H 0.91439 0.74629 0.52659 0.0
H571 H 0.86169 0.70582 0.4657 0.0
H572 H 0.87226 0.62886 0.35703 0.0
H573 H 0.93718 0.65166 0.38877 0.0
C574 C 0.97142 0.70011 0.47165 0.0
C575 C 0.98481 0.72441 0.51696 0.0
C576 C 0.93662 0.69112 0.44732 0.0
C577 C 0.96428 0.74171 0.535 0.0
C578 C 0.9301 0.73342 0.51054 0.0
C579 C 0.87887 0.69521 0.44765 0.0
C580 C 0.86271 0.66623 0.40862 0.0
C581 C 0.91544 0.70733 0.46775 0.0
C582 C 0.88459 0.65174 0.38641 0.0
C583 C 0.92145 0.66441 0.40512 0.0
H584 H 0.23283 0.9807 0.68301 0.0
H585 H 0.33421 1.00271 0.59819 0.0
H586 H 0.29832 0.94309 0.54825 0.0
H587 H 0.24048 0.87985 0.54001 0.0
H588 H 0.14012 0.85729 0.62737 0.0
H589 H 0.1728 0.92205 0.66387 0.0
C590 C 0.24698 0.97286 0.65286 0.0
C591 C 0.28635 0.99587 0.64525 0.0
C592 C 0.22626 0.93821 0.62476 0.0
C593 C 0.30403 0.98545 0.60538 0.0
C594 C 0.28353 0.95121 0.57686 0.0
C595 C 0.22553 0.88974 0.56551 0.0
C596 C 0.18804 0.86403 0.58101 0.0
C597 C 0.24497 0.92667 0.58776 0.0
C598 C 0.16887 0.87677 0.61448 0.0
C599 C 0.18773 0.91364 0.63592 0.0
H600 H 0.85945 0.7131 0.03024 0.0
H601 H 0.77523 0.63869 0.14409 0.0
H602 H 0.73246 0.66124 0.11428 0.0
H603 H 0.71585 0.69509 0.04626 0.0
H604 H 0.80042 0.76826 0.93101 0.0
H605 H 0.8462 0.7537 0.97124 0.0
C606 C 0.83227 0.70291 0.04981 0.0
C607 C 0.8204 0.67436 0.08928 0.0
C608 C 0.80756 0.71526 0.03138 0.0
C609 C 0.78489 0.66079 0.11372 0.0
C610 C 0.76035 0.67343 0.09631 0.0
C611 C 0.74449 0.70841 0.03058 0.0
C612 C 0.75434 0.73226 0.98498 0.0
C613 C 0.7708 0.69954 0.05361 0.0
C614 C 0.79175 0.74944 0.96557 0.0
C615 C 0.81807 0.74112 0.98855 0.0
H616 H 0.03212 0.71115 0.19612 0.0
H617 H 0.04499 0.79827 0.08402 0.0
H618 H 0.10616 0.84289 0.12385 0.0
H619 H 0.15985 0.85463 0.18227 0.0
H620 H 0.14898 0.76697 0.29081 0.0
H621 H 0.08314 0.72551 0.26185 0.0
C622 C 0.04799 0.74008 0.181 0.0
C623 C 0.03404 0.75105 0.13656 0.0
C624 C 0.08365 0.76561 0.20364 0.0
C625 C 0.05507 0.78878 0.11772 0.0
C626 C 0.09016 0.81443 0.14051 0.0
C627 C 0.14247 0.82698 0.20089 0.0
C628 C 0.15877 0.81394 0.23916 0.0
C629 C 0.10523 0.80286 0.18241 0.0
C630 C 0.13658 0.77772 0.26204 0.0
C631 C 0.09916 0.75389 0.24493 0.0
H632 H 0.27202 0.0436 0.29163 0.0
H633 H 0.33975 0.01004 0.38532 0.0
H634 H 0.36429 0.06827 0.43903 0.0
H635 H 0.37266 0.13267 0.45172 0.0
H636 H 0.30639 0.16654 0.35568 0.0
H637 H 0.27456 0.10419 0.31173 0.0
C638 C 0.29171 0.04868 0.32431 0.0
C639 C 0.30439 0.02261 0.33373 0.0
C640 C 0.30605 0.08248 0.35477 0.0
C641 C 0.32963 0.02962 0.37675 0.0
C642 C 0.34381 0.06305 0.40748 0.0
C643 C 0.35055 0.1259 0.42213 0.0
C644 C 0.34178 0.15407 0.40709 0.0
C645 C 0.33311 0.09024 0.3958 0.0
C646 C 0.31322 0.14515 0.36855 0.0
C647 C 0.29536 0.10963 0.34287 0.0
H648 H 0.23354 0.26999 0.45624 0.0
H649 H 0.33699 0.34644 0.54048 0.0
H650 H 0.30404 0.37305 0.59053 0.0
H651 H 0.24763 0.38016 0.60201 0.0
H652 H 0.14448 0.30385 0.51785 0.0
H653 H 0.17509 0.27118 0.47705 0.0
C654 C 0.24875 0.29208 0.48612 0.0
C655 C 0.28783 0.30654 0.4939 0.0
C656 C 0.22961 0.30733 0.51485 0.0
C657 C 0.30696 0.33485 0.53335 0.0
C658 C 0.28815 0.35022 0.56195 0.0
C659 C 0.23169 0.35562 0.57601 0.0
C660 C 0.19392 0.34421 0.56305 0.0
C661 C 0.24975 0.33744 0.55195 0.0
C662 C 0.17348 0.31273 0.52887 0.0
C663 C 0.19111 0.29437 0.50507 0.0
H664 H 0.97568 0.23199 0.62937 0.0
H665 H 1.00277 0.33248 0.72263 0.0
H666 H 0.94368 0.29678 0.77298 0.0
H667 H 0.88019 0.23928 0.78162 0.0
H668 H 0.85278 0.14024 0.68513 0.0
H669 H 0.91621 0.17258 0.64616 0.0
C670 C 0.96901 0.24599 0.66129 0.0
C671 C 0.99341 0.28506 0.67148 0.0
C672 C 0.93473 0.22543 0.68959 0.0
C673 C 0.98445 0.30252 0.71355 0.0
C674 C 0.95053 0.28214 0.74229 0.0
C675 C 0.88858 0.22461 0.75304 0.0
C676 C 0.86192 0.18749 0.73624 0.0
C677 C 0.92485 0.24392 0.72941 0.0
C678 C 0.87296 0.16864 0.69921 0.0
C679 C 0.9091 0.18732 0.67637 0.0
H680 H 0.68806 0.98142 0.85429 0.0
H681 H 0.76598 0.97424 0.74375 0.0
H682 H 0.75511 0.91552 0.78668 0.0
H683 H 0.71668 0.86145 0.84684 0.0
H684 H 0.63502 0.86567 0.95201 0.0
H685 H 0.65477 0.93049 0.92152 0.0
C686 C 0.70316 0.96737 0.8402 0.0
C687 C 0.72743 0.98206 0.79531 0.0
C688 C 0.69617 0.933 0.86445 0.0
C689 C 0.74677 0.96342 0.77771 0.0
C690 C 0.74064 0.92979 0.80233 0.0
C691 C 0.70448 0.87735 0.8646 0.0
C692 C 0.67506 0.85938 0.90232 0.0
C693 C 0.71458 0.91371 0.84465 0.0
C694 C 0.65832 0.87945 0.92382 0.0
C695 C 0.66921 0.91624 0.90572 0.0
H696 H 0.34035 0.32575 0.05925 0.0
H697 H 0.29492 0.38705 0.14409 0.0
H698 H 0.30713 0.36634 0.23021 0.0
H699 H 0.33606 0.33577 0.28167 0.0
H700 H 0.38411 0.27693 0.19685 0.0
H701 H 0.3652 0.29136 0.11079 0.0
C702 C 0.33267 0.33417 0.09653 0.0
C703 C 0.31715 0.35828 0.09515 0.0
C704 C 0.34046 0.32278 0.14609 0.0
C705 C 0.30734 0.3689 0.14393 0.0
C706 C 0.31428 0.35704 0.19329 0.0
C707 C 0.34186 0.3256 0.24441 0.0
C708 C 0.36183 0.30569 0.24568 0.0
C709 C 0.33165 0.33473 0.1949 0.0
C710 C 0.36921 0.29277 0.19699 0.0
C711 C 0.35839 0.30099 0.1477 0.0
H712 H 0.93877 0.29344 0.29326 0.0
H713 H 0.03616 0.34028 0.18816 0.0
H714 H 0.07792 0.35566 0.2665 0.0
H715 H 0.08672 0.36244 0.36442 0.0
H716 H 0.98985 0.32244 0.46912 0.0
H717 H 0.94753 0.29701 0.39115 0.0
C718 C 0.96915 0.30721 0.28737 0.0
C719 C 0.98445 0.31685 0.23506 0.0
C720 C 0.99292 0.31722 0.33248 0.0
C721 C 0.02372 0.33302 0.22802 0.0
C722 C 0.04757 0.34196 0.27278 0.0
C723 C 0.05644 0.34857 0.37016 0.0
C724 C 0.04154 0.34561 0.4222 0.0
C725 C 0.03251 0.33541 0.32513 0.0
C726 C 1.00207 0.32553 0.42938 0.0
C727 C 0.9779 0.31118 0.38482 0.0
H728 H 0.6897 0.01644 0.37471 0.0
H729 H 0.64234 0.90865 0.45769 0.0
H730 H 0.66155 0.94151 0.54419 0.0
H731 H 0.68701 1.00053 0.59688 0.0
H732 H 0.73166 0.10822 0.5142 0.0
H733 H 0.71859 0.07582 0.42737 0.0
C734 C 0.68407 1.00018 0.41167 0.0
C735 C 0.66436 0.96015 0.4097 0.0
C736 C 0.69445 0.01925 0.46153 0.0
C737 C 0.65714 0.93949 0.45803 0.0
C738 C 0.66812 0.95826 0.50761 0.0
C739 C 0.69431 0.01697 0.5599 0.0
C740 C 0.70998 0.05671 0.56217 0.0
C741 C 0.68603 0.99809 0.50994 0.0
C742 C 0.71922 0.07754 0.51374 0.0
C743 C 0.71177 0.05904 0.46395 0.0
H744 H 0.73567 0.65454 0.62362 0.0
H745 H 0.68403 0.69869 0.51529 0.0
H746 H 0.66557 0.7237 0.59198 0.0
H747 H 0.65811 0.72664 0.68962 0.0
H748 H 0.70683 0.67938 0.79797 0.0
H749 H 0.73284 0.6622 0.7212 0.0
C750 C 0.72045 0.66967 0.61672 0.0
C751 C 0.71044 0.6739 0.56392 0.0
C752 C 0.70927 0.6832 0.66096 0.0
C753 C 0.69185 0.69477 0.55554 0.0
C754 C 0.68111 0.7089 0.59939 0.0
C755 C 0.67444 0.71261 0.69651 0.0
C756 C 0.67972 0.70344 0.74935 0.0
C757 C 0.68864 0.7022 0.65226 0.0
C758 C 0.70206 0.68645 0.75769 0.0
C759 C 0.71681 0.67649 0.71381 0.0
H760 H 0.99919 0.67786 0.71698 0.0
H761 H 0.1049 0.74609 0.80123 0.0
H762 H 0.07133 0.73364 0.88663 0.0
H763 H 1.01259 0.69885 0.93845 0.0
H764 H 0.90697 0.62868 0.85465 0.0
H765 H 0.93971 0.64685 0.76833 0.0
C766 C 0.01479 0.69043 0.75393 0.0
C767 C 0.05454 0.71231 0.75284 0.0
C768 C 0.99531 0.68267 0.80318 0.0
C769 C 0.07436 0.72844 0.80108 0.0
C770 C 0.05517 0.72146 0.84999 0.0
C771 C 0.99663 0.68792 0.90131 0.0
C772 C 0.95743 0.66216 0.90321 0.0
C773 C 0.01574 0.69785 0.85171 0.0
C774 C 0.93722 0.64833 0.85455 0.0
C775 C 0.95593 0.65865 0.80503 0.0
H776 H 0.29599 0.92498 0.02056 0.0
H777 H 0.33074 0.01947 0.13053 0.0
H778 H 0.34662 0.06295 0.05434 0.0
H779 H 0.35654 0.07477 0.95726 0.0
H780 H 0.3259 0.9811 0.84763 0.0
H781 H 0.30128 0.93622 0.92303 0.0
C782 C 0.30692 0.95501 0.02802 0.0
C783 C 0.31295 0.96898 0.08128 0.0
C784 C 0.3166 0.9799 0.9841 0.0
C785 C 0.32617 1.00793 0.09003 0.0
C786 C 0.33532 0.03284 0.04648 0.0
C787 C 0.34463 0.04458 0.94992 0.0
C788 C 0.34408 0.03137 0.8973 0.0
C789 C 0.33168 0.01925 0.99348 0.0
C790 C 0.32689 0.99198 0.88788 0.0
C791 C 0.3131 0.96638 0.931 0.0
H792 H 0.52783 0.59343 0.83764 0.0
H793 H 0.54479 0.61927 0.00756 0.0
H794 H 0.48644 0.5593 0.02769 0.0
H795 H 0.42756 0.50326 -0.00429 0.0
H796 H 0.41199 0.47586 0.8262 0.0
H797 H 0.47335 0.53276 0.80677 0.0
C798 C 0.51898 0.58557 0.87915 0.0
C799 C 0.54015 0.61078 0.92117 0.0
C800 C 0.48572 0.55108 0.8902 0.0
C801 C 0.52889 0.60024 0.97474 0.0
C802 C 0.49547 0.56614 0.98611 0.0
C803 C 0.43794 0.50954 0.95458 0.0
C804 C 0.41526 0.48587 0.91221 0.0
C805 C 0.4732 0.54192 0.94403 0.0
C806 C 0.42904 0.49375 0.85927 0.0
C807 C 0.46394 0.52633 0.84825 0.0
H808 H 0.93389 0.42655 0.15584 0.0
H809 H 0.93066 0.40572 0.98484 0.0
H810 H 0.93075 0.46531 0.9668 0.0
H811 H 0.92554 0.51979 0.00044 0.0
H812 H 0.93232 0.5426 0.17109 0.0
H813 H 0.9375 0.48574 0.18892 0.0
C814 C 0.93369 0.43538 0.11459 0.0
C815 C 0.93173 0.41169 0.0716 0.0
C816 C 0.93423 0.46976 0.10473 0.0
C817 C 0.93212 0.42355 0.0184 0.0
C818 C 0.93197 0.45745 0.0082 0.0
C819 C 0.92873 0.51253 0.04147 0.0
C820 C 0.92815 0.53488 0.08458 0.0
C821 C 0.93209 0.48023 0.05111 0.0
C822 C 0.93275 0.52573 0.13747 0.0
C823 C 0.93547 0.49317 0.14756 0.0
H824 H 0.51305 0.91139 0.31837 0.0
H825 H 0.53785 0.92372 0.14825 0.0
H826 H 0.48028 0.92709 0.13076 0.0
H827 H 0.42053 0.92132 0.16368 0.0
H828 H 0.39791 0.91337 0.33434 0.0
H829 H 0.45748 0.91399 0.35231 0.0
C830 C 0.50594 0.91518 0.27753 0.0
C831 C 0.52914 0.91674 0.23442 0.0
C832 C 0.47335 0.91781 0.26813 0.0
C833 C 0.52025 0.92235 0.18185 0.0
C834 C 0.48734 0.92412 0.17195 0.0
C835 C 0.42898 0.92022 0.20485 0.0
C836 C 0.40486 0.91687 0.24773 0.0
C837 C 0.46334 0.92112 0.21469 0.0
C838 C 0.41613 0.916 0.30088 0.0
C839 C 0.45 0.91612 0.31102 0.0
H840 H 0.50717 0.41317 0.33711 0.0
H841 H 0.48636 0.4013 0.50832 0.0
H842 H 0.54363 0.4634 0.52359 0.0
H843 H 0.60255 0.51758 0.48831 0.0
H844 H 0.62167 0.53092 0.31677 0.0
H845 H 0.56153 0.47165 0.30106 0.0
C846 C 0.515 0.42451 0.37771 0.0
C847 C 0.49312 0.40271 0.42174 0.0
C848 C 0.54752 0.46018 0.38587 0.0
C849 C 0.50293 0.41769 0.47402 0.0
C850 C 0.53569 0.453 0.48265 0.0
C851 C 0.5932 0.50771 0.44745 0.0
C852 C 0.61654 0.52811 0.40365 0.0
C853 C 0.55863 0.47397 0.43895 0.0
C854 C 0.60409 0.51558 0.35092 0.0
C855 C 0.5699 0.48165 0.34207 0.0
H856 H 0.09626 0.60398 0.65833 0.0
H857 H 0.08859 0.61988 0.4879 0.0
H858 H 0.08668 0.5594 0.46925 0.0
H859 H 0.09271 0.5051 0.50156 0.0
H860 H 0.09643 0.48723 0.67229 0.0
H861 H 0.094 0.54545 0.69113 0.0
C862 C 0.09371 0.59389 0.61714 0.0
C863 C 0.09304 0.61638 0.57436 0.0
C864 C 0.09213 0.55903 0.60702 0.0
C865 C 0.08914 0.60295 0.52129 0.0
C866 C 0.08827 0.56855 0.51073 0.0
C867 C 0.09259 0.51382 0.54291 0.0
C868 C 0.09529 0.49238 0.5856 0.0
C869 C 0.0906 0.54685 0.55324 0.0
C870 C 0.09444 0.5034 0.63895 0.0
C871 C 0.09323 0.53671 0.64961 0.0
H872 H 0.60367 0.09336 0.66381 0.0
H873 H 0.61786 0.0799 0.83315 0.0
H874 H 0.55676 0.07573 0.85225 0.0
H875 H 0.50277 0.08228 0.82116 0.0
H876 H 0.48719 0.09264 0.65127 0.0
H877 H 0.54545 0.09121 0.63151 0.0
C878 C 0.59306 0.089 0.70483 0.0
C879 C 0.61524 0.08742 0.74726 0.0
C880 C 0.55796 0.08628 0.71516 0.0
C881 C 0.60117 0.08119 0.80005 0.0
C882 C 0.56643 0.07904 0.81087 0.0
C883 C 0.51194 0.08372 0.77973 0.0
C884 C 0.49117 0.08808 0.73764 0.0
C885 C 0.54511 0.08251 0.76887 0.0
C886 C 0.5028 0.0893 0.68415 0.0
C887 C 0.53616 0.0887 0.67299 0.0
loop_
_geom_bond_atom_site_label_1
_geom_bond_atom_site_label_2
_geom_bond_distance
_geom_bond_site_symmetry_2
_ccdc_geom_bond_type
Co0 O3 1.970 1_556 S
Co0 N17 1.989 . S
Co0 O25 1.967 . S
Co0 O32 1.920 . S
Co1 O4 1.966 . S
Co1 N10 2.022 . S
Co1 N18 1.993 1_554 S
Co1 O26 1.941 1_554 S
C2 O3 1.258 . S
C2 O4 1.263 . S
O3 Co0 1.970 1_554 S
O3 C2 1.258 . S
O4 Co1 1.966 . S
O4 C2 1.263 . S
C5 O6 1.235 . S
C5 O32 1.289 . S
O6 C5 1.235 . S
C7 C9 1.400 . S
C7 N10 1.351 . S
C7 C12 1.501 . S
C8 C9 1.387 . S
C8 N11 1.341 . S
C9 C7 1.400 . S
C9 C8 1.387 . S
N10 Co1 2.022 . S
N10 C7 1.351 . S
N10 N11 1.365 . S
N11 C8 1.341 . S
N11 N10 1.365 . S
N11 H31 0.862 . S
C12 C7 1.501 . S
C12 H13 0.961 . S
C12 H14 0.961 . S
C12 H15 0.960 . S
H13 C12 0.961 . S
H14 C12 0.961 . S
H15 C12 0.960 . S
C16 N17 1.342 . S
C16 C20 1.401 . S
C16 C21 1.499 . S
N17 Co0 1.989 . S
N17 C16 1.342 . S
N17 N18 1.388 . S
N18 Co1 1.993 1_556 S
N18 N17 1.388 . S
N18 C19 1.346 . S
C19 N18 1.346 . S
C19 C20 1.396 . S
C19 C29 1.510 1_556 S
C20 C16 1.401 . S
C20 C19 1.396 . S
C21 C16 1.499 . S
C21 H22 0.959 . S
C21 H23 0.960 . S
C21 H24 0.961 . S
H22 C21 0.959 . S
H23 C21 0.960 . S
H24 C21 0.961 . S
O25 Co0 1.967 . S
O25 C33 1.258 . S
O26 Co1 1.941 1_556 S
O26 C33 1.266 . S
H27 C29 0.959 . S
H28 C29 0.961 . S
C29 C19 1.510 1_554 S
C29 H27 0.959 . S
C29 H28 0.961 . S
C29 H30 0.960 . S
H30 C29 0.960 . S
H31 N11 0.862 . S
O32 Co0 1.920 . S
O32 C5 1.289 . S
C33 O25 1.258 . S
C33 O26 1.266 . S
Co34 O37 1.970 . S
Co34 N51 1.989 . S
Co34 O59 1.967 . S
Co34 O66 1.920 . S
Co35 O38 1.966 . S
Co35 N44 2.022 . S
Co35 N52 1.993 . S
Co35 O60 1.941 . S
C36 O37 1.258 . S
C36 O38 1.263 . S
O37 Co34 1.970 . S
O37 C36 1.258 . S
O38 Co35 1.966 . S
O38 C36 1.263 . S
C39 O40 1.235 . S
C39 O66 1.289 . S
O40 C39 1.235 . S
C41 C43 1.400 . S
C41 N44 1.351 . S
C41 C46 1.501 . S
C42 C43 1.387 . S
C42 N45 1.341 . S
C43 C41 1.400 . S
C43 C42 1.387 . S
N44 Co35 2.022 . S
N44 C41 1.351 . S
N44 N45 1.365 . S
N45 C42 1.341 . S
N45 N44 1.365 . S
N45 H65 0.862 . S
C46 C41 1.501 . S
C46 H47 0.961 . S
C46 H48 0.961 . S
C46 H49 0.960 . S
H47 C46 0.961 . S
H48 C46 0.961 . S
H49 C46 0.960 . S
C50 N51 1.342 . S
C50 C54 1.401 . S
C50 C55 1.499 . S
N51 Co34 1.989 . S
N51 C50 1.342 . S
N51 N52 1.388 . S
N52 Co35 1.993 . S
N52 N51 1.388 . S
N52 C53 1.346 . S
C53 N52 1.346 . S
C53 C54 1.396 . S
C53 C63 1.510 . S
C54 C50 1.401 . S
C54 C53 1.396 . S
C55 C50 1.499 . S
C55 H56 0.959 1_554 S
C55 H57 0.960 . S
C55 H58 0.961 1_554 S
H56 C55 0.959 1_556 S
H57 C55 0.960 . S
H58 C55 0.961 1_556 S
O59 Co34 1.967 . S
O59 C67 1.258 . S
O60 Co35 1.941 . S
O60 C67 1.266 . S
H61 C63 0.959 . S
H62 C63 0.961 . S
C63 C53 1.510 . S
C63 H61 0.959 . S
C63 H62 0.961 . S
C63 H64 0.960 . S
H64 C63 0.960 . S
H65 N45 0.862 . S
O66 Co34 1.920 . S
O66 C39 1.289 . S
C67 O59 1.258 . S
C67 O60 1.266 . S
Co68 O71 1.970 . S
Co68 N85 1.989 . S
Co68 O93 1.967 . S
Co68 O100 1.920 . S
Co69 O72 1.966 . S
Co69 N78 2.022 . S
Co69 N86 1.993 . S
Co69 O94 1.941 . S
C70 O71 1.258 . S
C70 O72 1.263 . S
O71 Co68 1.970 . S
O71 C70 1.258 . S
O72 Co69 1.966 . S
O72 C70 1.263 . S
C73 O74 1.235 . S
C73 O100 1.289 . S
O74 C73 1.235 . S
C75 C77 1.400 . S
C75 N78 1.351 . S
C75 C80 1.501 . S
C76 C77 1.387 . S
C76 N79 1.341 . S
C77 C75 1.400 . S
C77 C76 1.387 . S
N78 Co69 2.022 . S
N78 C75 1.351 . S
N78 N79 1.365 . S
N79 C76 1.341 . S
N79 N78 1.365 . S
N79 H99 0.862 . S
C80 C75 1.501 . S
C80 H81 0.961 . S
C80 H82 0.961 . S
C80 H83 0.960 . S
H81 C80 0.961 . S
H82 C80 0.961 . S
H83 C80 0.960 . S
C84 N85 1.342 . S
C84 C88 1.401 . S
C84 C89 1.499 . S
N85 Co68 1.989 . S
N85 C84 1.342 . S
N85 N86 1.388 . S
N86 Co69 1.993 . S
N86 N85 1.388 . S
N86 C87 1.346 . S
C87 N86 1.346 . S
C87 C88 1.396 . S
C87 C97 1.510 . S
C88 C84 1.401 . S
C88 C87 1.396 . S
C89 C84 1.499 . S
C89 H90 0.959 . S
C89 H91 0.960 . S
C89 H92 0.961 . S
H90 C89 0.959 . S
H91 C89 0.960 . S
H92 C89 0.961 . S
O93 Co68 1.967 . S
O93 C101 1.258 . S
O94 Co69 1.941 . S
O94 C101 1.266 . S
H95 C97 0.959 . S
H96 C97 0.961 . S
C97 C87 1.510 . S
C97 H95 0.959 . S
C97 H96 0.961 . S
C97 H98 0.960 . S
H98 C97 0.960 . S
H99 N79 0.862 . S
O100 Co68 1.920 . S
O100 C73 1.289 . S
C101 O93 1.258 . S
C101 O94 1.266 . S
Co102 O105 1.970 . S
Co102 N119 1.989 . S
Co102 O127 1.967 . S
Co102 O134 1.920 . S
Co103 O106 1.966 . S
Co103 N112 2.022 . S
Co103 N120 1.993 . S
Co103 O128 1.941 . S
C104 O105 1.258 . S
C104 O106 1.263 . S
O105 Co102 1.970 . S
O105 C104 1.258 . S
O106 Co103 1.966 . S
O106 C104 1.263 . S
C107 O108 1.235 . S
C107 O134 1.289 . S
O108 C107 1.235 . S
C109 C111 1.400 . S
C109 N112 1.351 . S
C109 C114 1.501 . S
C110 C111 1.387 . S
C110 N113 1.341 . S
C111 C109 1.400 . S
C111 C110 1.387 . S
N112 Co103 2.022 . S
N112 C109 1.351 . S
N112 N113 1.365 . S
N113 C110 1.341 . S
N113 N112 1.365 . S
N113 H133 0.862 . S
C114 C109 1.501 . S
C114 H115 0.961 . S
C114 H116 0.961 . S
C114 H117 0.960 . S
H115 C114 0.961 . S
H116 C114 0.961 . S
H117 C114 0.960 . S
C118 N119 1.342 . S
C118 C122 1.401 . S
C118 C123 1.499 . S
N119 Co102 1.989 . S
N119 C118 1.342 . S
N119 N120 1.388 . S
N120 Co103 1.993 . S
N120 N119 1.388 . S
N120 C121 1.346 . S
C121 N120 1.346 . S
C121 C122 1.396 . S
C121 C131 1.510 . S
C122 C118 1.401 . S
C122 C121 1.396 . S
C123 C118 1.499 . S
C123 H124 0.959 . S
C123 H125 0.960 . S
C123 H126 0.961 . S
H124 C123 0.959 . S
H125 C123 0.960 . S
H126 C123 0.961 . S
O127 Co102 1.967 . S
O127 C135 1.258 . S
O128 Co103 1.941 . S
O128 C135 1.266 . S
H129 C131 0.959 . S
H130 C131 0.961 . S
C131 C121 1.510 . S
C131 H129 0.959 . S
C131 H130 0.961 . S
C131 H132 0.960 . S
H132 C131 0.960 . S
H133 N113 0.862 . S
O134 Co102 1.920 . S
O134 C107 1.289 . S
C135 O127 1.258 . S
C135 O128 1.266 . S
Co136 O139 1.970 . S
Co136 N153 1.989 . S
Co136 O161 1.967 . S
Co136 O168 1.920 . S
Co137 O140 1.966 . S
Co137 N146 2.022 . S
Co137 N154 1.993 . S
Co137 O162 1.941 . S
C138 O139 1.258 . S
C138 O140 1.263 . S
O139 Co136 1.970 . S
O139 C138 1.258 . S
O140 Co137 1.966 . S
O140 C138 1.263 . S
C141 O142 1.235 . S
C141 O168 1.289 . S
O142 C141 1.235 . S
C143 C145 1.400 . S
C143 N146 1.351 . S
C143 C148 1.501 . S
C144 C145 1.387 . S
C144 N147 1.341 . S
C145 C143 1.400 . S
C145 C144 1.387 . S
N146 Co137 2.022 . S
N146 C143 1.351 . S
N146 N147 1.365 . S
N147 C144 1.341 . S
N147 N146 1.365 . S
N147 H167 0.862 . S
C148 C143 1.501 . S
C148 H149 0.961 . S
C148 H150 0.961 . S
C148 H151 0.960 . S
H149 C148 0.961 . S
H150 C148 0.961 . S
H151 C148 0.960 . S
C152 N153 1.342 . S
C152 C156 1.401 . S
C152 C157 1.499 . S
N153 Co136 1.989 . S
N153 C152 1.342 . S
N153 N154 1.388 . S
N154 Co137 1.993 . S
N154 N153 1.388 . S
N154 C155 1.346 . S
C155 N154 1.346 . S
C155 C156 1.396 . S
C155 C165 1.510 . S
C156 C152 1.401 . S
C156 C155 1.396 . S
C157 C152 1.499 . S
C157 H158 0.959 . S
C157 H159 0.960 . S
C157 H160 0.961 . S
H158 C157 0.959 . S
H159 C157 0.960 . S
H160 C157 0.961 . S
O161 Co136 1.967 . S
O161 C169 1.258 . S
O162 Co137 1.941 . S
O162 C169 1.266 . S
H163 C165 0.959 . S
H164 C165 0.961 . S
C165 C155 1.510 . S
C165 H163 0.959 . S
C165 H164 0.961 . S
C165 H166 0.960 . S
H166 C165 0.960 . S
H167 N147 0.862 . S
O168 Co136 1.920 . S
O168 C141 1.289 . S
C169 O161 1.258 . S
C169 O162 1.266 . S
Co170 O173 1.970 . S
Co170 N187 1.989 . S
Co170 O195 1.967 . S
Co170 O202 1.920 . S
Co171 O174 1.966 . S
Co171 N180 2.022 . S
Co171 N188 1.993 . S
Co171 O196 1.941 . S
C172 O173 1.258 . S
C172 O174 1.263 . S
O173 Co170 1.970 . S
O173 C172 1.258 . S
O174 Co171 1.966 . S
O174 C172 1.263 . S
C175 O176 1.235 . S
C175 O202 1.289 . S
O176 C175 1.235 . S
C177 C179 1.400 . S
C177 N180 1.351 . S
C177 C182 1.501 . S
C178 C179 1.387 . S
C178 N181 1.341 . S
C179 C177 1.400 . S
C179 C178 1.387 . S
N180 Co171 2.022 . S
N180 C177 1.351 . S
N180 N181 1.365 . S
N181 C178 1.341 . S
N181 N180 1.365 . S
N181 H201 0.862 . S
C182 C177 1.501 . S
C182 H183 0.961 . S
C182 H184 0.961 . S
C182 H185 0.960 1_556 S
H183 C182 0.961 . S
H184 C182 0.961 . S
H185 C182 0.960 1_554 S
C186 N187 1.342 . S
C186 C190 1.401 . S
C186 C191 1.499 . S
N187 Co170 1.989 . S
N187 C186 1.342 . S
N187 N188 1.388 . S
N188 Co171 1.993 . S
N188 N187 1.388 . S
N188 C189 1.346 . S
C189 N188 1.346 . S
C189 C190 1.396 . S
C189 C199 1.510 . S
C190 C186 1.401 . S
C190 C189 1.396 . S
C191 C186 1.499 . S
C191 H192 0.959 . S
C191 H193 0.960 . S
C191 H194 0.961 . S
H192 C191 0.959 . S
H193 C191 0.960 . S
H194 C191 0.961 . S
O195 Co170 1.967 . S
O195 C203 1.258 . S
O196 Co171 1.941 . S
O196 C203 1.266 . S
H197 C199 0.959 . S
H198 C199 0.961 . S
C199 C189 1.510 . S
C199 H197 0.959 . S
C199 H198 0.961 . S
C199 H200 0.960 . S
H200 C199 0.960 . S
H201 N181 0.862 . S
O202 Co170 1.920 . S
O202 C175 1.289 . S
C203 O195 1.258 . S
C203 O196 1.266 . S
Co204 O207 1.970 . S
Co204 N221 1.989 . S
Co204 O229 1.967 . S
Co204 O236 1.920 . S
Co205 O208 1.966 . S
Co205 N214 2.022 . S
Co205 N222 1.993 . S
Co205 O230 1.941 . S
C206 O207 1.258 . S
C206 O208 1.263 . S
O207 Co204 1.970 . S
O207 C206 1.258 . S
O208 Co205 1.966 . S
O208 C206 1.263 . S
C209 O210 1.235 . S
C209 O236 1.289 . S
O210 C209 1.235 . S
C211 C213 1.400 . S
C211 N214 1.351 . S
C211 C216 1.501 . S
C212 C213 1.387 . S
C212 N215 1.341 . S
C213 C211 1.400 . S
C213 C212 1.387 . S
N214 Co205 2.022 . S
N214 C211 1.351 . S
N214 N215 1.365 . S
N215 C212 1.341 . S
N215 N214 1.365 . S
N215 H235 0.862 . S
C216 C211 1.501 . S
C216 H217 0.961 . S
C216 H218 0.961 . S
C216 H219 0.960 . S
H217 C216 0.961 . S
H218 C216 0.961 . S
H219 C216 0.960 . S
C220 N221 1.342 . S
C220 C224 1.401 . S
C220 C225 1.499 . S
N221 Co204 1.989 . S
N221 C220 1.342 . S
N221 N222 1.388 . S
N222 Co205 1.993 . S
N222 N221 1.388 . S
N222 C223 1.346 . S
C223 N222 1.346 . S
C223 C224 1.396 . S
C223 C233 1.510 . S
C224 C220 1.401 . S
C224 C223 1.396 . S
C225 C220 1.499 . S
C225 H226 0.959 1_556 S
C225 H227 0.960 . S
C225 H228 0.961 1_556 S
H226 C225 0.959 1_554 S
H227 C225 0.960 . S
H228 C225 0.961 1_554 S
O229 Co204 1.967 . S
O229 C237 1.258 . S
O230 Co205 1.941 . S
O230 C237 1.266 . S
H231 C233 0.959 . S
H232 C233 0.961 . S
C233 C223 1.510 . S
C233 H231 0.959 . S
C233 H232 0.961 . S
C233 H234 0.960 . S
H234 C233 0.960 . S
H235 N215 0.862 . S
O236 Co204 1.920 . S
O236 C209 1.289 . S
C237 O229 1.258 . S
C237 O230 1.266 . S
Co238 O241 1.970 1_554 S
Co238 N255 1.989 . S
Co238 O263 1.967 . S
Co238 O270 1.920 . S
Co239 O242 1.966 . S
Co239 N248 2.022 . S
Co239 N256 1.993 1_556 S
Co239 O264 1.941 1_556 S
C240 O241 1.258 . S
C240 O242 1.263 . S
O241 Co238 1.970 1_556 S
O241 C240 1.258 . S
O242 Co239 1.966 . S
O242 C240 1.263 . S
C243 O244 1.235 . S
C243 O270 1.289 . S
O244 C243 1.235 . S
C245 C247 1.400 . S
C245 N248 1.351 . S
C245 C250 1.501 . S
C246 C247 1.387 . S
C246 N249 1.341 . S
C247 C245 1.400 . S
C247 C246 1.387 . S
N248 Co239 2.022 . S
N248 C245 1.351 . S
N248 N249 1.365 . S
N249 C246 1.341 . S
N249 N248 1.365 . S
N249 H269 0.862 . S
C250 C245 1.501 . S
C250 H251 0.961 . S
C250 H252 0.961 . S
C250 H253 0.960 . S
H251 C250 0.961 . S
H252 C250 0.961 . S
H253 C250 0.960 . S
C254 N255 1.342 . S
C254 C258 1.401 . S
C254 C259 1.499 . S
N255 Co238 1.989 . S
N255 C254 1.342 . S
N255 N256 1.388 . S
N256 Co239 1.993 1_554 S
N256 N255 1.388 . S
N256 C257 1.346 . S
C257 N256 1.346 . S
C257 C258 1.396 . S
C257 C267 1.510 1_554 S
C258 C254 1.401 . S
C258 C257 1.396 . S
C259 C254 1.499 . S
C259 H260 0.959 . S
C259 H261 0.960 . S
C259 H262 0.961 . S
H260 C259 0.959 . S
H261 C259 0.960 . S
H262 C259 0.961 . S
O263 Co238 1.967 . S
O263 C271 1.258 . S
O264 Co239 1.941 1_554 S
O264 C271 1.266 . S
H265 C267 0.959 . S
H266 C267 0.961 . S
C267 C257 1.510 1_556 S
C267 H265 0.959 . S
C267 H266 0.961 . S
C267 H268 0.960 . S
H268 C267 0.960 . S
H269 N249 0.862 . S
O270 Co238 1.920 . S
O270 C243 1.289 . S
C271 O263 1.258 . S
C271 O264 1.266 . S
Co272 O275 1.970 . S
Co272 N289 1.989 . S
Co272 O297 1.967 . S
Co272 O304 1.920 . S
Co273 O276 1.966 . S
Co273 N282 2.022 . S
Co273 N290 1.993 . S
Co273 O298 1.941 . S
C274 O275 1.258 . S
C274 O276 1.263 . S
O275 Co272 1.970 . S
O275 C274 1.258 . S
O276 Co273 1.966 . S
O276 C274 1.263 . S
C277 O278 1.235 . S
C277 O304 1.289 . S
O278 C277 1.235 . S
C279 C281 1.400 . S
C279 N282 1.351 . S
C279 C284 1.501 . S
C280 C281 1.387 . S
C280 N283 1.341 . S
C281 C279 1.400 . S
C281 C280 1.387 . S
N282 Co273 2.022 . S
N282 C279 1.351 . S
N282 N283 1.365 . S
N283 C280 1.341 . S
N283 N282 1.365 . S
N283 H303 0.862 . S
C284 C279 1.501 . S
C284 H285 0.961 . S
C284 H286 0.961 . S
C284 H287 0.960 1_554 S
H285 C284 0.961 . S
H286 C284 0.961 . S
H287 C284 0.960 1_556 S
C288 N289 1.342 . S
C288 C292 1.401 . S
C288 C293 1.499 . S
N289 Co272 1.989 . S
N289 C288 1.342 . S
N289 N290 1.388 . S
N290 Co273 1.993 . S
N290 N289 1.388 . S
N290 C291 1.346 . S
C291 N290 1.346 . S
C291 C292 1.396 . S
C291 C301 1.510 . S
C292 C288 1.401 . S
C292 C291 1.396 . S
C293 C288 1.499 . S
C293 H294 0.959 . S
C293 H295 0.960 . S
C293 H296 0.961 . S
H294 C293 0.959 . S
H295 C293 0.960 . S
H296 C293 0.961 . S
O297 Co272 1.967 . S
O297 C305 1.258 . S
O298 Co273 1.941 . S
O298 C305 1.266 . S
H299 C301 0.959 . S
H300 C301 0.961 . S
C301 C291 1.510 . S
C301 H299 0.959 . S
C301 H300 0.961 . S
C301 H302 0.960 . S
H302 C301 0.960 . S
H303 N283 0.862 . S
O304 Co272 1.920 . S
O304 C277 1.289 . S
C305 O297 1.258 . S
C305 O298 1.266 . S
Co306 O309 1.970 . S
Co306 N323 1.989 . S
Co306 O331 1.967 . S
Co306 O338 1.920 . S
Co307 O310 1.966 . S
Co307 N316 2.022 . S
Co307 N324 1.993 . S
Co307 O332 1.941 . S
C308 O309 1.258 . S
C308 O310 1.263 . S
O309 Co306 1.970 . S
O309 C308 1.258 . S
O310 Co307 1.966 . S
O310 C308 1.263 . S
C311 O312 1.235 . S
C311 O338 1.289 . S
O312 C311 1.235 . S
C313 C315 1.400 . S
C313 N316 1.351 . S
C313 C318 1.501 . S
C314 C315 1.387 . S
C314 N317 1.341 . S
C315 C313 1.400 . S
C315 C314 1.387 . S
N316 Co307 2.022 . S
N316 C313 1.351 . S
N316 N317 1.365 . S
N317 C314 1.341 . S
N317 N316 1.365 . S
N317 H337 0.862 . S
C318 C313 1.501 . S
C318 H319 0.961 . S
C318 H320 0.961 . S
C318 H321 0.960 . S
H319 C318 0.961 . S
H320 C318 0.961 . S
H321 C318 0.960 . S
C322 N323 1.342 . S
C322 C326 1.401 . S
C322 C327 1.499 . S
N323 Co306 1.989 . S
N323 C322 1.342 . S
N323 N324 1.388 . S
N324 Co307 1.993 . S
N324 N323 1.388 . S
N324 C325 1.346 . S
C325 N324 1.346 . S
C325 C326 1.396 . S
C325 C335 1.510 . S
C326 C322 1.401 . S
C326 C325 1.396 . S
C327 C322 1.499 . S
C327 H328 0.959 . S
C327 H329 0.960 . S
C327 H330 0.961 . S
H328 C327 0.959 . S
H329 C327 0.960 . S
H330 C327 0.961 . S
O331 Co306 1.967 . S
O331 C339 1.258 . S
O332 Co307 1.941 . S
O332 C339 1.266 . S
H333 C335 0.959 . S
H334 C335 0.961 . S
C335 C325 1.510 . S
C335 H333 0.959 . S
C335 H334 0.961 . S
C335 H336 0.960 . S
H336 C335 0.960 . S
H337 N317 0.862 . S
O338 Co306 1.920 . S
O338 C311 1.289 . S
C339 O331 1.258 . S
C339 O332 1.266 . S
Co340 O343 1.970 . S
Co340 N357 1.989 . S
Co340 O365 1.967 . S
Co340 O372 1.920 . S
Co341 O344 1.966 . S
Co341 N350 2.022 . S
Co341 N358 1.993 . S
Co341 O366 1.941 . S
C342 O343 1.258 . S
C342 O344 1.263 . S
O343 Co340 1.970 . S
O343 C342 1.258 . S
O344 Co341 1.966 . S
O344 C342 1.263 . S
C345 O346 1.235 . S
C345 O372 1.289 . S
O346 C345 1.235 . S
C347 C349 1.400 . S
C347 N350 1.351 . S
C347 C352 1.501 . S
C348 C349 1.387 . S
C348 N351 1.341 . S
C349 C347 1.400 . S
C349 C348 1.387 . S
N350 Co341 2.022 . S
N350 C347 1.351 . S
N350 N351 1.365 . S
N351 C348 1.341 . S
N351 N350 1.365 . S
N351 H371 0.862 . S
C352 C347 1.501 . S
C352 H353 0.961 . S
C352 H354 0.961 . S
C352 H355 0.960 . S
H353 C352 0.961 . S
H354 C352 0.961 . S
H355 C352 0.960 . S
C356 N357 1.342 . S
C356 C360 1.401 . S
C356 C361 1.499 . S
N357 Co340 1.989 . S
N357 C356 1.342 . S
N357 N358 1.388 . S
N358 Co341 1.993 . S
N358 N357 1.388 . S
N358 C359 1.346 . S
C359 N358 1.346 . S
C359 C360 1.396 . S
C359 C369 1.510 . S
C360 C356 1.401 . S
C360 C359 1.396 . S
C361 C356 1.499 . S
C361 H362 0.959 . S
C361 H363 0.960 . S
C361 H364 0.961 . S
H362 C361 0.959 . S
H363 C361 0.960 . S
H364 C361 0.961 . S
O365 Co340 1.967 . S
O365 C373 1.258 . S
O366 Co341 1.941 . S
O366 C373 1.266 . S
H367 C369 0.959 . S
H368 C369 0.961 . S
C369 C359 1.510 . S
C369 H367 0.959 . S
C369 H368 0.961 . S
C369 H370 0.960 . S
H370 C369 0.960 . S
H371 N351 0.862 . S
O372 Co340 1.920 . S
O372 C345 1.289 . S
C373 O365 1.258 . S
C373 O366 1.266 . S
Co374 O377 1.970 . S
Co374 N391 1.989 . S
Co374 O399 1.967 . S
Co374 O406 1.920 . S
Co375 O378 1.966 . S
Co375 N384 2.022 . S
Co375 N392 1.993 . S
Co375 O400 1.941 . S
C376 O377 1.258 . S
C376 O378 1.263 . S
O377 Co374 1.970 . S
O377 C376 1.258 . S
O378 Co375 1.966 . S
O378 C376 1.263 . S
C379 O380 1.235 . S
C379 O406 1.289 . S
O380 C379 1.235 . S
C381 C383 1.400 . S
C381 N384 1.351 . S
C381 C386 1.501 . S
C382 C383 1.387 . S
C382 N385 1.341 . S
C383 C381 1.400 . S
C383 C382 1.387 . S
N384 Co375 2.022 . S
N384 C381 1.351 . S
N384 N385 1.365 . S
N385 C382 1.341 . S
N385 N384 1.365 . S
N385 H405 0.862 . S
C386 C381 1.501 . S
C386 H387 0.961 . S
C386 H388 0.961 . S
C386 H389 0.960 . S
H387 C386 0.961 . S
H388 C386 0.961 . S
H389 C386 0.960 . S
C390 N391 1.342 . S
C390 C394 1.401 . S
C390 C395 1.499 . S
N391 Co374 1.989 . S
N391 C390 1.342 . S
N391 N392 1.388 . S
N392 Co375 1.993 . S
N392 N391 1.388 . S
N392 C393 1.346 . S
C393 N392 1.346 . S
C393 C394 1.396 . S
C393 C403 1.510 . S
C394 C390 1.401 . S
C394 C393 1.396 . S
C395 C390 1.499 . S
C395 H396 0.959 . S
C395 H397 0.960 . S
C395 H398 0.961 . S
H396 C395 0.959 . S
H397 C395 0.960 . S
H398 C395 0.961 . S
O399 Co374 1.967 . S
O399 C407 1.258 . S
O400 Co375 1.941 . S
O400 C407 1.266 . S
H401 C403 0.959 . S
H402 C403 0.961 . S
C403 C393 1.510 . S
C403 H401 0.959 . S
C403 H402 0.961 . S
C403 H404 0.960 . S
H404 C403 0.960 . S
H405 N385 0.862 . S
O406 Co374 1.920 . S
O406 C379 1.289 . S
C407 O399 1.258 . S
C407 O400 1.266 . S
H408 C414 0.930 . S
H409 C417 0.930 . S
H410 C418 0.930 . S
H411 C419 0.930 . S
H412 C422 0.930 . S
H413 C423 0.930 . S
C414 H408 0.930 . S
C414 C415 1.355 . S
C414 C416 1.415 . S
C415 C414 1.355 . S
C415 C417 1.419 . S
C416 C414 1.415 . S
C416 C421 1.425 . S
C416 C423 1.409 . S
C417 H409 0.930 . S
C417 C415 1.419 . S
C417 C418 1.362 . S
C418 H410 0.930 . S
C418 C417 1.362 . S
C418 C421 1.409 . S
C419 H411 0.930 . S
C419 C420 1.355 . S
C419 C421 1.415 . S
C420 C419 1.355 . S
C420 C422 1.419 . S
C421 C416 1.425 . S
C421 C418 1.409 . S
C421 C419 1.415 . S
C422 H412 0.930 . S
C422 C420 1.419 . S
C422 C423 1.362 . S
C423 H413 0.930 . S
C423 C416 1.409 . S
C423 C422 1.362 . S
H424 C430 0.930 . S
H425 C433 0.930 . S
H426 C434 0.930 . S
H427 C435 0.930 . S
H428 C438 0.930 . S
H429 C439 0.930 . S
C430 H424 0.930 . S
C430 C431 1.355 . S
C430 C432 1.415 . S
C431 C430 1.355 . S
C431 C433 1.419 . S
C432 C430 1.415 . S
C432 C437 1.425 . S
C432 C439 1.409 . S
C433 H425 0.930 . S
C433 C431 1.419 . S
C433 C434 1.362 . S
C434 H426 0.930 . S
C434 C433 1.362 . S
C434 C437 1.409 . S
C435 H427 0.930 . S
C435 C436 1.355 . S
C435 C437 1.415 . S
C436 C435 1.355 . S
C436 C438 1.419 . S
C437 C432 1.425 . S
C437 C434 1.409 . S
C437 C435 1.415 . S
C438 H428 0.930 . S
C438 C436 1.419 . S
C438 C439 1.362 . S
C439 H429 0.930 . S
C439 C432 1.409 . S
C439 C438 1.362 . S
H440 C446 0.930 . S
H441 C449 0.930 . S
H442 C450 0.930 . S
H443 C451 0.930 . S
H444 C454 0.930 . S
H445 C455 0.930 . S
C446 H440 0.930 . S
C446 C447 1.355 . S
C446 C448 1.415 . S
C447 C446 1.355 . S
C447 C449 1.419 . S
C448 C446 1.415 . S
C448 C453 1.425 . S
C448 C455 1.409 . S
C449 H441 0.930 . S
C449 C447 1.419 . S
C449 C450 1.362 . S
C450 H442 0.930 . S
C450 C449 1.362 . S
C450 C453 1.409 . S
C451 H443 0.930 . S
C451 C452 1.355 . S
C451 C453 1.415 . S
C452 C451 1.355 . S
C452 C454 1.419 . S
C453 C448 1.425 . S
C453 C450 1.409 . S
C453 C451 1.415 . S
C454 H444 0.930 . S
C454 C452 1.419 . S
C454 C455 1.362 . S
C455 H445 0.930 . S
C455 C448 1.409 . S
C455 C454 1.362 . S
H456 C462 0.930 . S
H457 C465 0.930 . S
H458 C466 0.930 . S
H459 C467 0.930 . S
H460 C470 0.930 . S
H461 C471 0.930 . S
C462 H456 0.930 . S
C462 C463 1.355 . S
C462 C464 1.415 . S
C463 C462 1.355 . S
C463 C465 1.419 . S
C464 C462 1.415 . S
C464 C469 1.425 . S
C464 C471 1.409 . S
C465 H457 0.930 . S
C465 C463 1.419 . S
C465 C466 1.362 . S
C466 H458 0.930 . S
C466 C465 1.362 . S
C466 C469 1.409 . S
C467 H459 0.930 . S
C467 C468 1.355 . S
C467 C469 1.415 . S
C468 C467 1.355 . S
C468 C470 1.419 . S
C469 C464 1.425 . S
C469 C466 1.409 . S
C469 C467 1.415 . S
C470 H460 0.930 . S
C470 C468 1.419 . S
C470 C471 1.362 . S
C471 H461 0.930 . S
C471 C464 1.409 . S
C471 C470 1.362 . S
H472 C478 0.930 . S
H473 C481 0.930 . S
H474 C482 0.930 . S
H475 C483 0.930 . S
H476 C486 0.930 1_554 S
H477 C487 0.930 . S
C478 H472 0.930 . S
C478 C479 1.355 . S
C478 C480 1.415 . S
C479 C478 1.355 . S
C479 C481 1.419 . S
C480 C478 1.415 . S
C480 C485 1.425 . S
C480 C487 1.409 . S
C481 H473 0.930 . S
C481 C479 1.419 . S
C481 C482 1.362 . S
C482 H474 0.930 . S
C482 C481 1.362 . S
C482 C485 1.409 . S
C483 H475 0.930 . S
C483 C484 1.355 1_556 S
C483 C485 1.415 . S
C484 C483 1.355 1_554 S
C484 C486 1.419 1_554 S
C485 C480 1.425 . S
C485 C482 1.409 . S
C485 C483 1.415 . S
C486 H476 0.930 1_556 S
C486 C484 1.419 1_556 S
C486 C487 1.362 . S
C487 H477 0.930 . S
C487 C480 1.409 . S
C487 C486 1.362 . S
H488 C494 0.930 . S
H489 C497 0.930 . S
H490 C498 0.930 . S
H491 C499 0.930 . S
H492 C502 0.930 . S
H493 C503 0.930 . S
C494 H488 0.930 . S
C494 C495 1.350 1_554 S
C494 C496 1.415 . S
C495 C494 1.350 1_556 S
C495 C497 1.414 1_556 S
C496 C494 1.415 . S
C496 C501 1.425 . S
C496 C503 1.409 . S
C497 H489 0.930 . S
C497 C495 1.414 1_554 S
C497 C498 1.362 . S
C498 H490 0.930 . S
C498 C497 1.362 . S
C498 C501 1.409 . S
C499 H491 0.930 . S
C499 C500 1.355 . S
C499 C501 1.415 . S
C500 C499 1.355 . S
C500 C502 1.419 . S
C501 C496 1.425 . S
C501 C498 1.409 . S
C501 C499 1.415 . S
C502 H492 0.930 . S
C502 C500 1.419 . S
C502 C503 1.362 . S
C503 H493 0.930 . S
C503 C496 1.409 . S
C503 C502 1.362 . S
H504 C510 0.930 . S
H505 C513 0.930 . S
H506 C514 0.930 . S
H507 C515 0.930 . S
H508 C518 0.930 . S
H509 C519 0.930 . S
C510 H504 0.930 . S
C510 C511 1.355 . S
C510 C512 1.415 . S
C511 C510 1.355 . S
C511 C513 1.419 . S
C512 C510 1.415 . S
C512 C517 1.425 . S
C512 C519 1.409 . S
C513 H505 0.930 . S
C513 C511 1.419 . S
C513 C514 1.362 . S
C514 H506 0.930 . S
C514 C513 1.362 . S
C514 C517 1.409 . S
C515 H507 0.930 . S
C515 C516 1.355 . S
C515 C517 1.415 . S
C516 C515 1.355 . S
C516 C518 1.419 . S
C517 C512 1.425 . S
C517 C514 1.409 . S
C517 C515 1.415 . S
C518 H508 0.930 . S
C518 C516 1.419 . S
C518 C519 1.362 . S
C519 H509 0.930 . S
C519 C512 1.409 . S
C519 C518 1.362 . S
H520 C526 0.930 . S
H521 C529 0.930 . S
H522 C530 0.930 . S
H523 C531 0.930 . S
H524 C534 0.930 . S
H525 C535 0.930 . S
C526 H520 0.930 . S
C526 C527 1.355 . S
C526 C528 1.415 . S
C527 C526 1.355 . S
C527 C529 1.419 . S
C528 C526 1.415 . S
C528 C533 1.425 . S
C528 C535 1.409 . S
C529 H521 0.930 . S
C529 C527 1.419 . S
C529 C530 1.362 . S
C530 H522 0.930 . S
C530 C529 1.362 . S
C530 C533 1.409 . S
C531 H523 0.930 . S
C531 C532 1.355 . S
C531 C533 1.415 . S
C532 C531 1.355 . S
C532 C534 1.419 . S
C533 C528 1.425 . S
C533 C530 1.409 . S
C533 C531 1.415 . S
C534 H524 0.930 . S
C534 C532 1.419 . S
C534 C535 1.362 . S
C535 H525 0.930 . S
C535 C528 1.409 . S
C535 C534 1.362 . S
H536 C542 0.930 . S
H537 C545 0.930 . S
H538 C546 0.930 . S
H539 C547 0.930 . S
H540 C550 0.930 . S
H541 C551 0.930 . S
C542 H536 0.930 . S
C542 C543 1.355 . S
C542 C544 1.415 . S
C543 C542 1.355 . S
C543 C545 1.419 . S
C544 C542 1.415 . S
C544 C549 1.425 . S
C544 C551 1.409 . S
C545 H537 0.930 . S
C545 C543 1.419 . S
C545 C546 1.362 . S
C546 H538 0.930 . S
C546 C545 1.362 . S
C546 C549 1.409 . S
C547 H539 0.930 . S
C547 C548 1.355 . S
C547 C549 1.415 . S
C548 C547 1.355 . S
C548 C550 1.419 . S
C549 C544 1.425 . S
C549 C546 1.409 . S
C549 C547 1.415 . S
C550 H540 0.930 . S
C550 C548 1.419 . S
C550 C551 1.362 . S
C551 H541 0.930 . S
C551 C544 1.409 . S
C551 C550 1.362 . S
H552 C558 0.930 . S
H553 C561 0.930 . S
H554 C562 0.930 . S
H555 C563 0.930 . S
H556 C566 0.930 . S
H557 C567 0.930 . S
C558 H552 0.930 . S
C558 C559 1.355 . S
C558 C560 1.415 . S
C559 C558 1.355 . S
C559 C561 1.419 . S
C560 C558 1.415 . S
C560 C565 1.425 . S
C560 C567 1.409 . S
C561 H553 0.930 . S
C561 C559 1.419 . S
C561 C562 1.362 . S
C562 H554 0.930 . S
C562 C561 1.362 . S
C562 C565 1.409 . S
C563 H555 0.930 . S
C563 C564 1.355 . S
C563 C565 1.415 . S
C564 C563 1.355 . S
C564 C566 1.419 . S
C565 C560 1.425 . S
C565 C562 1.409 . S
C565 C563 1.415 . S
C566 H556 0.930 . S
C566 C564 1.419 . S
C566 C567 1.362 . S
C567 H557 0.930 . S
C567 C560 1.409 . S
C567 C566 1.362 . S
H568 C574 0.930 . S
H569 C577 0.930 1_455 S
H570 C578 0.930 . S
H571 C579 0.930 . S
H572 C582 0.930 . S
H573 C583 0.930 . S
C574 H568 0.930 . S
C574 C575 1.355 . S
C574 C576 1.415 . S
C575 C574 1.355 . S
C575 C577 1.419 . S
C576 C574 1.415 . S
C576 C581 1.425 . S
C576 C583 1.409 . S
C577 H569 0.930 1_655 S
C577 C575 1.419 . S
C577 C578 1.362 . S
C578 H570 0.930 . S
C578 C577 1.362 . S
C578 C581 1.409 . S
C579 H571 0.930 . S
C579 C580 1.355 . S
C579 C581 1.415 . S
C580 C579 1.355 . S
C580 C582 1.419 . S
C581 C576 1.425 . S
C581 C578 1.409 . S
C581 C579 1.415 . S
C582 H572 0.930 . S
C582 C580 1.419 . S
C582 C583 1.362 . S
C583 H573 0.930 . S
C583 C576 1.409 . S
C583 C582 1.362 . S
H584 C590 0.930 . S
H585 C593 0.930 . S
H586 C594 0.930 . S
H587 C595 0.930 . S
H588 C598 0.930 . S
H589 C599 0.930 . S
C590 H584 0.930 . S
C590 C591 1.355 . S
C590 C592 1.415 . S
C591 C590 1.355 . S
C591 C593 1.419 . S
C592 C590 1.415 . S
C592 C597 1.425 . S
C592 C599 1.409 . S
C593 H585 0.930 . S
C593 C591 1.419 . S
C593 C594 1.362 . S
C594 H586 0.930 . S
C594 C593 1.362 . S
C594 C597 1.409 . S
C595 H587 0.930 . S
C595 C596 1.355 . S
C595 C597 1.415 . S
C596 C595 1.355 . S
C596 C598 1.419 . S
C597 C592 1.425 . S
C597 C594 1.409 . S
C597 C595 1.415 . S
C598 H588 0.930 . S
C598 C596 1.419 . S
C598 C599 1.362 . S
C599 H589 0.930 . S
C599 C592 1.409 . S
C599 C598 1.362 . S
H600 C606 0.930 . S
H601 C609 0.930 . S
H602 C610 0.930 . S
H603 C611 0.930 1_556 S
H604 C614 0.930 . S
H605 C615 0.930 . S
C606 H600 0.930 . S
C606 C607 1.355 . S
C606 C608 1.415 . S
C607 C606 1.355 . S
C607 C609 1.419 . S
C608 C606 1.415 . S
C608 C613 1.425 . S
C608 C615 1.409 . S
C609 H601 0.930 . S
C609 C607 1.419 . S
C609 C610 1.362 . S
C610 H602 0.930 . S
C610 C609 1.362 . S
C610 C613 1.409 . S
C611 H603 0.930 1_554 S
C611 C612 1.355 . S
C611 C613 1.415 . S
C612 C611 1.355 . S
C612 C614 1.419 . S
C613 C608 1.425 . S
C613 C610 1.409 . S
C613 C611 1.415 . S
C614 H604 0.930 . S
C614 C612 1.419 . S
C614 C615 1.362 . S
C615 H605 0.930 . S
C615 C608 1.409 . S
C615 C614 1.362 . S
H616 C622 0.930 . S
H617 C625 0.930 . S
H618 C626 0.930 . S
H619 C627 0.930 . S
H620 C630 0.930 . S
H621 C631 0.930 . S
C622 H616 0.930 . S
C622 C623 1.355 . S
C622 C624 1.415 . S
C623 C622 1.355 . S
C623 C625 1.419 . S
C624 C622 1.415 . S
C624 C629 1.425 . S
C624 C631 1.409 . S
C625 H617 0.930 . S
C625 C623 1.419 . S
C625 C626 1.362 . S
C626 H618 0.930 . S
C626 C625 1.362 . S
C626 C629 1.409 . S
C627 H619 0.930 . S
C627 C628 1.355 . S
C627 C629 1.415 . S
C628 C627 1.355 . S
C628 C630 1.419 . S
C629 C624 1.425 . S
C629 C626 1.409 . S
C629 C627 1.415 . S
C630 H620 0.930 . S
C630 C628 1.419 . S
C630 C631 1.362 . S
C631 H621 0.930 . S
C631 C624 1.409 . S
C631 C630 1.362 . S
H632 C638 0.930 . S
H633 C641 0.930 1_565 S
H634 C642 0.930 . S
H635 C643 0.930 . S
H636 C646 0.930 . S
H637 C647 0.930 . S
C638 H632 0.930 . S
C638 C639 1.355 . S
C638 C640 1.415 . S
C639 C638 1.355 . S
C639 C641 1.419 . S
C640 C638 1.415 . S
C640 C645 1.425 . S
C640 C647 1.409 . S
C641 H633 0.930 1_545 S
C641 C639 1.419 . S
C641 C642 1.362 . S
C642 H634 0.930 . S
C642 C641 1.362 . S
C642 C645 1.409 . S
C643 H635 0.930 . S
C643 C644 1.355 . S
C643 C645 1.415 . S
C644 C643 1.355 . S
C644 C646 1.419 . S
C645 C640 1.425 . S
C645 C642 1.409 . S
C645 C643 1.415 . S
C646 H636 0.930 . S
C646 C644 1.419 . S
C646 C647 1.362 . S
C647 H637 0.930 . S
C647 C640 1.409 . S
C647 C646 1.362 . S
H648 C654 0.930 . S
H649 C657 0.930 . S
H650 C658 0.930 . S
H651 C659 0.930 . S
H652 C662 0.930 . S
H653 C663 0.930 . S
C654 H648 0.930 . S
C654 C655 1.355 . S
C654 C656 1.415 . S
C655 C654 1.355 . S
C655 C657 1.419 . S
C656 C654 1.415 . S
C656 C661 1.425 . S
C656 C663 1.409 . S
C657 H649 0.930 . S
C657 C655 1.419 . S
C657 C658 1.362 . S
C658 H650 0.930 . S
C658 C657 1.362 . S
C658 C661 1.409 . S
C659 H651 0.930 . S
C659 C660 1.355 . S
C659 C661 1.415 . S
C660 C659 1.355 . S
C660 C662 1.419 . S
C661 C656 1.425 . S
C661 C658 1.409 . S
C661 C659 1.415 . S
C662 H652 0.930 . S
C662 C660 1.419 . S
C662 C663 1.362 . S
C663 H653 0.930 . S
C663 C656 1.409 . S
C663 C662 1.362 . S
H664 C670 0.930 . S
H665 C673 0.930 . S
H666 C674 0.930 . S
H667 C675 0.930 . S
H668 C678 0.930 . S
H669 C679 0.930 . S
C670 H664 0.930 . S
C670 C671 1.355 . S
C670 C672 1.415 . S
C671 C670 1.355 . S
C671 C673 1.419 . S
C672 C670 1.415 . S
C672 C677 1.425 . S
C672 C679 1.409 . S
C673 H665 0.930 . S
C673 C671 1.419 . S
C673 C674 1.362 . S
C674 H666 0.930 . S
C674 C673 1.362 . S
C674 C677 1.409 . S
C675 H667 0.930 . S
C675 C676 1.355 . S
C675 C677 1.415 . S
C676 C675 1.355 . S
C676 C678 1.419 . S
C677 C672 1.425 . S
C677 C674 1.409 . S
C677 C675 1.415 . S
C678 H668 0.930 . S
C678 C676 1.419 . S
C678 C679 1.362 . S
C679 H669 0.930 . S
C679 C672 1.409 . S
C679 C678 1.362 . S
H680 C686 0.930 . S
H681 C689 0.929 . S
H682 C690 0.930 . S
H683 C691 0.930 . S
H684 C694 0.930 . S
H685 C695 0.930 . S
C686 H680 0.930 . S
C686 C687 1.355 . S
C686 C688 1.415 . S
C687 C686 1.355 . S
C687 C689 1.419 . S
C688 C686 1.415 . S
C688 C693 1.425 . S
C688 C695 1.409 . S
C689 H681 0.929 . S
C689 C687 1.419 . S
C689 C690 1.362 . S
C690 H682 0.930 . S
C690 C689 1.362 . S
C690 C693 1.409 . S
C691 H683 0.930 . S
C691 C692 1.355 . S
C691 C693 1.415 . S
C692 C691 1.355 . S
C692 C694 1.419 . S
C693 C688 1.425 . S
C693 C690 1.409 . S
C693 C691 1.415 . S
C694 H684 0.930 . S
C694 C692 1.419 . S
C694 C695 1.362 . S
C695 H685 0.930 . S
C695 C688 1.409 . S
C695 C694 1.362 . S
H696 C702 0.930 . S
H697 C705 0.930 . S
H698 C706 0.930 . S
H699 C707 0.930 . S
H700 C710 0.930 . S
H701 C711 0.930 . S
C702 H696 0.930 . S
C702 C703 1.355 . S
C702 C704 1.415 . S
C703 C702 1.355 . S
C703 C705 1.419 . S
C704 C702 1.415 . S
C704 C709 1.425 . S
C704 C711 1.409 . S
C705 H697 0.930 . S
C705 C703 1.419 . S
C705 C706 1.362 . S
C706 H698 0.930 . S
C706 C705 1.362 . S
C706 C709 1.409 . S
C707 H699 0.930 . S
C707 C708 1.355 . S
C707 C709 1.415 . S
C708 C707 1.355 . S
C708 C710 1.419 . S
C709 C704 1.425 . S
C709 C706 1.409 . S
C709 C707 1.415 . S
C710 H700 0.930 . S
C710 C708 1.419 . S
C710 C711 1.362 . S
C711 H701 0.930 . S
C711 C704 1.409 . S
C711 C710 1.362 . S
H712 C718 0.930 . S
H713 C721 0.930 . S
H714 C722 0.930 . S
H715 C723 0.930 . S
H716 C726 0.930 1_655 S
H717 C727 0.930 . S
C718 H712 0.930 . S
C718 C719 1.355 . S
C718 C720 1.415 . S
C719 C718 1.355 . S
C719 C721 1.419 1_655 S
C720 C718 1.415 . S
C720 C725 1.425 1_655 S
C720 C727 1.409 . S
C721 H713 0.930 . S
C721 C719 1.419 1_455 S
C721 C722 1.362 . S
C722 H714 0.930 . S
C722 C721 1.362 . S
C722 C725 1.409 . S
C723 H715 0.930 . S
C723 C724 1.355 . S
C723 C725 1.415 . S
C724 C723 1.355 . S
C724 C726 1.419 . S
C725 C720 1.425 1_455 S
C725 C722 1.409 . S
C725 C723 1.415 . S
C726 H716 0.930 1_455 S
C726 C724 1.419 . S
C726 C727 1.363 1_455 S
C727 H717 0.930 . S
C727 C720 1.409 . S
C727 C726 1.363 1_655 S
H728 C734 0.930 . S
H729 C737 0.930 . S
H730 C738 0.930 . S
H731 C739 0.930 . S
H732 C742 0.930 . S
H733 C743 0.930 . S
C734 H728 0.930 . S
C734 C735 1.355 1_545 S
C734 C736 1.415 . S
C735 C734 1.355 1_565 S
C735 C737 1.419 . S
C736 C734 1.415 . S
C736 C741 1.425 1_545 S
C736 C743 1.409 . S
C737 H729 0.930 . S
C737 C735 1.419 . S
C737 C738 1.362 . S
C738 H730 0.930 . S
C738 C737 1.362 . S
C738 C741 1.409 . S
C739 H731 0.930 . S
C739 C740 1.355 1_565 S
C739 C741 1.415 . S
C740 C739 1.355 1_545 S
C740 C742 1.419 . S
C741 C736 1.425 1_565 S
C741 C738 1.409 . S
C741 C739 1.415 . S
C742 H732 0.930 . S
C742 C740 1.419 . S
C742 C743 1.362 . S
C743 H733 0.930 . S
C743 C736 1.409 . S
C743 C742 1.362 . S
H744 C750 0.930 . S
H745 C753 0.930 . S
H746 C754 0.930 . S
H747 C755 0.930 . S
H748 C758 0.930 . S
H749 C759 0.930 . S
C750 H744 0.930 . S
C750 C751 1.355 . S
C750 C752 1.415 . S
C751 C750 1.355 . S
C751 C753 1.419 . S
C752 C750 1.415 . S
C752 C757 1.425 . S
C752 C759 1.409 . S
C753 H745 0.930 . S
C753 C751 1.419 . S
C753 C754 1.362 . S
C754 H746 0.930 . S
C754 C753 1.362 . S
C754 C757 1.409 . S
C755 H747 0.930 . S
C755 C756 1.355 . S
C755 C757 1.415 . S
C756 C755 1.355 . S
C756 C758 1.419 . S
C757 C752 1.425 . S
C757 C754 1.409 . S
C757 C755 1.415 . S
C758 H748 0.930 . S
C758 C756 1.419 . S
C758 C759 1.362 . S
C759 H749 0.930 . S
C759 C752 1.409 . S
C759 C758 1.362 . S
H760 C766 0.917 1_655 S
H761 C769 0.930 . S
H762 C770 0.930 . S
H763 C771 0.930 . S
H764 C774 0.930 . S
H765 C775 0.930 . S
C766 H760 0.917 1_455 S
C766 C767 1.372 . S
C766 C768 1.410 1_455 S
C767 C766 1.372 . S
C767 C769 1.419 . S
C768 C766 1.410 1_655 S
C768 C773 1.425 1_655 S
C768 C775 1.409 . S
C769 H761 0.930 . S
C769 C767 1.419 . S
C769 C770 1.362 . S
C770 H762 0.930 . S
C770 C769 1.362 . S
C770 C773 1.409 . S
C771 H763 0.930 . S
C771 C772 1.355 1_455 S
C771 C773 1.415 . S
C772 C771 1.355 1_655 S
C772 C774 1.419 . S
C773 C768 1.425 1_455 S
C773 C770 1.409 . S
C773 C771 1.415 . S
C774 H764 0.930 . S
C774 C772 1.419 . S
C774 C775 1.362 . S
C775 H765 0.930 . S
C775 C768 1.409 . S
C775 C774 1.362 . S
H776 C782 0.930 . S
H777 C785 0.930 . S
H778 C786 0.930 . S
H779 C787 0.930 . S
H780 C790 0.930 . S
H781 C791 0.930 . S
C782 H776 0.930 . S
C782 C783 1.355 . S
C782 C784 1.406 1_554 S
C783 C782 1.355 . S
C783 C785 1.419 1_565 S
C784 C782 1.406 1_556 S
C784 C789 1.425 1_566 S
C784 C791 1.418 . S
C785 H777 0.930 . S
C785 C783 1.419 1_545 S
C785 C786 1.362 . S
C786 H778 0.930 . S
C786 C785 1.362 . S
C786 C789 1.418 . S
C787 H779 0.930 . S
C787 C788 1.355 . S
C787 C789 1.406 1_556 S
C788 C787 1.355 . S
C788 C790 1.419 1_545 S
C789 C784 1.425 1_544 S
C789 C786 1.418 . S
C789 C787 1.406 1_554 S
C790 H780 0.930 . S
C790 C788 1.419 1_565 S
C790 C791 1.362 . S
C791 H781 0.930 . S
C791 C784 1.418 . S
C791 C790 1.362 . S
H792 C798 0.930 . S
H793 C801 0.930 . S
H794 C802 0.930 . S
H795 C803 0.930 . S
H796 C806 0.930 . S
H797 C807 0.930 . S
C798 H792 0.930 . S
C798 C799 1.355 . S
C798 C800 1.415 . S
C799 C798 1.355 . S
C799 C801 1.419 . S
C800 C798 1.415 . S
C800 C805 1.425 . S
C800 C807 1.409 . S
C801 H793 0.930 . S
C801 C799 1.419 . S
C801 C802 1.362 . S
C802 H794 0.930 . S
C802 C801 1.362 . S
C802 C805 1.409 . S
C803 H795 0.930 . S
C803 C804 1.355 . S
C803 C805 1.415 . S
C804 C803 1.355 . S
C804 C806 1.419 . S
C805 C800 1.425 . S
C805 C802 1.409 . S
C805 C803 1.415 . S
C806 H796 0.930 . S
C806 C804 1.419 . S
C806 C807 1.362 . S
C807 H797 0.930 . S
C807 C800 1.409 . S
C807 C806 1.362 . S
H808 C814 0.930 . S
H809 C817 0.930 1_556 S
H810 C818 0.930 1_556 S
H811 C819 0.930 1_556 S
H812 C822 0.930 . S
H813 C823 0.930 . S
C814 H808 0.930 . S
C814 C815 1.355 . S
C814 C816 1.415 . S
C815 C814 1.355 . S
C815 C817 1.419 . S
C816 C814 1.415 . S
C816 C821 1.425 . S
C816 C823 1.409 . S
C817 H809 0.930 1_554 S
C817 C815 1.419 . S
C817 C818 1.362 . S
C818 H810 0.930 1_554 S
C818 C817 1.362 . S
C818 C821 1.409 . S
C819 H811 0.930 1_554 S
C819 C820 1.355 . S
C819 C821 1.415 . S
C820 C819 1.355 . S
C820 C822 1.419 . S
C821 C816 1.425 . S
C821 C818 1.409 . S
C821 C819 1.415 . S
C822 H812 0.930 . S
C822 C820 1.419 . S
C822 C823 1.362 . S
C823 H813 0.930 . S
C823 C816 1.409 . S
C823 C822 1.362 . S
H824 C830 0.930 . S
H825 C833 0.930 . S
H826 C834 0.930 . S
H827 C835 0.930 . S
H828 C838 0.930 . S
H829 C839 0.930 . S
C830 H824 0.930 . S
C830 C831 1.355 . S
C830 C832 1.415 . S
C831 C830 1.355 . S
C831 C833 1.419 . S
C832 C830 1.415 . S
C832 C837 1.425 . S
C832 C839 1.409 . S
C833 H825 0.930 . S
C833 C831 1.419 . S
C833 C834 1.362 . S
C834 H826 0.930 . S
C834 C833 1.362 . S
C834 C837 1.409 . S
C835 H827 0.930 . S
C835 C836 1.355 . S
C835 C837 1.415 . S
C836 C835 1.355 . S
C836 C838 1.419 . S
C837 C832 1.425 . S
C837 C834 1.409 . S
C837 C835 1.415 . S
C838 H828 0.930 . S
C838 C836 1.419 . S
C838 C839 1.362 . S
C839 H829 0.930 . S
C839 C832 1.409 . S
C839 C838 1.362 . S
H840 C846 0.930 . S
H841 C849 0.930 . S
H842 C850 0.930 . S
H843 C851 0.930 . S
H844 C854 0.930 . S
H845 C855 0.930 . S
C846 H840 0.930 . S
C846 C847 1.355 . S
C846 C848 1.415 . S
C847 C846 1.355 . S
C847 C849 1.419 . S
C848 C846 1.415 . S
C848 C853 1.425 . S
C848 C855 1.409 . S
C849 H841 0.930 . S
C849 C847 1.419 . S
C849 C850 1.362 . S
C850 H842 0.930 . S
C850 C849 1.362 . S
C850 C853 1.409 . S
C851 H843 0.930 . S
C851 C852 1.355 . S
C851 C853 1.415 . S
C852 C851 1.355 . S
C852 C854 1.419 . S
C853 C848 1.425 . S
C853 C850 1.409 . S
C853 C851 1.415 . S
C854 H844 0.930 . S
C854 C852 1.419 . S
C854 C855 1.362 . S
C855 H845 0.930 . S
C855 C848 1.409 . S
C855 C854 1.362 . S
H856 C862 0.930 . S
H857 C865 0.930 . S
H858 C866 0.930 . S
H859 C867 0.930 . S
H860 C870 0.930 . S
H861 C871 0.930 . S
C862 H856 0.930 . S
C862 C863 1.355 . S
C862 C864 1.415 . S
C863 C862 1.355 . S
C863 C865 1.419 . S
C864 C862 1.415 . S
C864 C869 1.425 . S
C864 C871 1.409 . S
C865 H857 0.930 . S
C865 C863 1.419 . S
C865 C866 1.362 . S
C866 H858 0.930 . S
C866 C865 1.362 . S
C866 C869 1.409 . S
C867 H859 0.930 . S
C867 C868 1.355 . S
C867 C869 1.415 . S
C868 C867 1.355 . S
C868 C870 1.419 . S
C869 C864 1.425 . S
C869 C866 1.409 . S
C869 C867 1.415 . S
C870 H860 0.930 . S
C870 C868 1.419 . S
C870 C871 1.362 . S
C871 H861 0.930 . S
C871 C864 1.409 . S
C871 C870 1.362 . S
H872 C878 0.930 . S
H873 C881 0.930 . S
H874 C882 0.930 . S
H875 C883 0.930 . S
H876 C886 0.930 . S
H877 C887 0.930 . S
C878 H872 0.930 . S
C878 C879 1.355 . S
C878 C880 1.415 . S
C879 C878 1.355 . S
C879 C881 1.419 . S
C880 C878 1.415 . S
C880 C885 1.425 . S
C880 C887 1.409 . S
C881 H873 0.930 . S
C881 C879 1.419 . S
C881 C882 1.362 . S
C882 H874 0.930 . S
C882 C881 1.362 . S
C882 C885 1.409 . S
C883 H875 0.930 . S
C883 C884 1.355 . S
C883 C885 1.415 . S
C884 C883 1.355 . S
C884 C886 1.419 . S
C885 C880 1.425 . S
C885 C882 1.409 . S
C885 C883 1.415 . S
C886 H876 0.930 . S
C886 C884 1.419 . S
C886 C887 1.362 . S
C887 H877 0.930 . S
C887 C880 1.409 . S
C887 C886 1.362 . S
C415 C349 0.349 . S
C420 C9 0.398 . S
C431 C43 0.647 . S
C436 C383 0.598 . S
C447 C77 0.671 . S
C452 C213 0.623 . S
C463 C111 0.467 . S
C468 C247 0.372 . S
C479 C145 0.641 . S
C484 C281 0.587 . S
C495 C179 0.579 . S
C500 C315 0.585 . S
C511 C5 1.796 . S
C516 C190 1.831 . S
C527 C20 1.840 . S
C532 C39 1.816 1_456 S
C543 C54 1.892 . S
C548 C73 1.876 1_545 S
C559 C107 1.826 . S
C564 C88 1.880 . S
C575 C141 1.995 1_655 S
C580 C122 2.008 . S
C591 C175 1.910 1_565 S
C596 C156 1.898 . S
C607 C258 1.856 . S
C612 C209 1.793 1_554 S
C623 C243 1.829 1_455 S
C628 C292 1.791 . S
C639 C277 1.932 1_545 S
C644 C326 1.875 . S
C655 C311 2.020 . S
C660 C360 1.989 . S
C671 C345 1.844 1_655 S
C676 C394 1.865 . S
C687 C379 1.864 1_565 S
C692 C224 1.886 . S
C703 C2 1.494 . S
C708 C308 1.480 . S
C719 C36 1.810 . S
C724 C342 1.793 . S
C735 C70 1.687 . S
C740 C376 1.705 . S
C751 C104 1.785 . S
C756 C206 1.804 . S
C767 C138 1.483 . S
C772 C240 1.493 . S
C783 C274 1.658 . S
C788 C172 1.665 . S
C799 C237 1.150 . S
C804 C33 1.145 . S
C815 C67 1.180 . S
C820 C271 1.175 . S
C831 C101 1.253 . S
C836 C305 1.242 . S
C847 C339 1.340 . S
C852 C135 1.333 . S
C863 C169 1.313 . S
C868 C373 1.332 . S
C879 C407 1.178 . S
C884 C203 1.181 . S
