# Generated by pormake.
# Topology wjd, (6)-cn, num edge types: 1
# Building blocks:
#     Node 0, Type 0, BuildingBlock: NUHQIS_clean_sbu_0, # of connection points: 6
#     Node 1, Type 0, BuildingBlock: NUHQIS_clean_sbu_0, # of connection points: 6
#     Node 2, Type 0, BuildingBlock: NUHQIS_clean_sbu_0, # of connection points: 6
#     Node 3, Type 0, BuildingBlock: NUHQIS_clean_sbu_0, # of connection points: 6
#     Node 4, Type 0, BuildingBlock: NUHQIS_clean_sbu_0, # of connection points: 6
#     Node 5, Type 0, BuildingBlock: NUHQIS_clean_sbu_0, # of connection points: 6
#     Node 6, Type 0, BuildingBlock: NUHQIS_clean_sbu_0, # of connection points: 6
#     Node 7, Type 0, BuildingBlock: NUHQIS_clean_sbu_0, # of connection points: 6
#     Node 8, Type 0, BuildingBlock: NUHQIS_clean_sbu_0, # of connection points: 6
#     Node 9, Type 0, BuildingBlock: NUHQIS_clean_sbu_0, # of connection points: 6
#     Node 10, Type 0, BuildingBlock: NUHQIS_clean_sbu_0, # of connection points: 6
#     Node 11, Type 0, BuildingBlock: NUHQIS_clean_sbu_0, # of connection points: 6
#     Edge 12, Type (0, 0), BuildingBlock: KIFKEQ_clean_linker_1, # of connection points: 2
#     Edge 13, Type (0, 0), BuildingBlock: KIFKEQ_clean_linker_1, # of connection points: 2
#     Edge 14, Type (0, 0), BuildingBlock: KIFKEQ_clean_linker_1, # of connection points: 2
#     Edge 15, Type (0, 0), BuildingBlock: KIFKEQ_clean_linker_1, # of connection points: 2
#     Edge 16, Type (0, 0), BuildingBlock: KIFKEQ_clean_linker_1, # of connection points: 2
#     Edge 17, Type (0, 0), BuildingBlock: KIFKEQ_clean_linker_1, # of connection points: 2
#     Edge 18, Type (0, 0), BuildingBlock: KIFKEQ_clean_linker_1, # of connection points: 2
#     Edge 19, Type (0, 0), BuildingBlock: KIFKEQ_clean_linker_1, # of connection points: 2
#     Edge 20, Type (0, 0), BuildingBlock: KIFKEQ_clean_linker_1, # of connection points: 2
#     Edge 21, Type (0, 0), BuildingBlock: KIFKEQ_clean_linker_1, # of connection points: 2
#     Edge 22, Type (0, 0), BuildingBlock: KIFKEQ_clean_linker_1, # of connection points: 2
#     Edge 23, Type (0, 0), BuildingBlock: KIFKEQ_clean_linker_1, # of connection points: 2
#     Edge 24, Type (0, 0), BuildingBlock: KIFKEQ_clean_linker_1, # of connection points: 2
#     Edge 25, Type (0, 0), BuildingBlock: KIFKEQ_clean_linker_1, # of connection points: 2
#     Edge 26, Type (0, 0), BuildingBlock: KIFKEQ_clean_linker_1, # of connection points: 2
#     Edge 27, Type (0, 0), BuildingBlock: KIFKEQ_clean_linker_1, # of connection points: 2
#     Edge 28, Type (0, 0), BuildingBlock: KIFKEQ_clean_linker_1, # of connection points: 2
#     Edge 29, Type (0, 0), BuildingBlock: KIFKEQ_clean_linker_1, # of connection points: 2
#     Edge 30, Type (0, 0), BuildingBlock: KIFKEQ_clean_linker_1, # of connection points: 2
#     Edge 31, Type (0, 0), BuildingBlock: KIFKEQ_clean_linker_1, # of connection points: 2
#     Edge 32, Type (0, 0), BuildingBlock: KIFKEQ_clean_linker_1, # of connection points: 2
#     Edge 33, Type (0, 0), BuildingBlock: KIFKEQ_clean_linker_1, # of connection points: 2
#     Edge 34, Type (0, 0), BuildingBlock: KIFKEQ_clean_linker_1, # of connection points: 2
#     Edge 35, Type (0, 0), BuildingBlock: KIFKEQ_clean_linker_1, # of connection points: 2
#     Edge 36, Type (0, 0), BuildingBlock: KIFKEQ_clean_linker_1, # of connection points: 2
#     Edge 37, Type (0, 0), BuildingBlock: KIFKEQ_clean_linker_1, # of connection points: 2
#     Edge 38, Type (0, 0), BuildingBlock: KIFKEQ_clean_linker_1, # of connection points: 2
#     Edge 39, Type (0, 0), BuildingBlock: KIFKEQ_clean_linker_1, # of connection points: 2
#     Edge 40, Type (0, 0), BuildingBlock: KIFKEQ_clean_linker_1, # of connection points: 2
#     Edge 41, Type (0, 0), BuildingBlock: KIFKEQ_clean_linker_1, # of connection points: 2
#     Edge 42, Type (0, 0), BuildingBlock: KIFKEQ_clean_linker_1, # of connection points: 2
#     Edge 43, Type (0, 0), BuildingBlock: KIFKEQ_clean_linker_1, # of connection points: 2
#     Edge 44, Type (0, 0), BuildingBlock: KIFKEQ_clean_linker_1, # of connection points: 2
#     Edge 45, Type (0, 0), BuildingBlock: KIFKEQ_clean_linker_1, # of connection points: 2
#     Edge 46, Type (0, 0), BuildingBlock: KIFKEQ_clean_linker_1, # of connection points: 2
#     Edge 47, Type (0, 0), BuildingBlock: KIFKEQ_clean_linker_1, # of connection points: 2
# Relax obj value: 0.092
# Max RMSD: 0.205
# Mean RMSD: 0.205
data_MOF--net-wjd--node1-NUHQIS_clean_sbu_0--edge1-KIFKEQ_clean_linker_1
_symmetry_space_group_name_H-M    P1
_symmetry_Int_Tables_number       1
_symmetry_cell_setting            triclinic
loop_
_symmetry_equiv_pos_as_xyz
'x, y, z'
_cell_length_a     40.291532
_cell_length_b     40.416982
_cell_length_c     54.344467
_cell_angle_alpha  90.336014
_cell_angle_beta   89.89754
_cell_angle_gamma 119.94664
loop_
_atom_site_label
_atom_site_type_symbol
_atom_site_fract_x
_atom_site_fract_y
_atom_site_fract_z
_atom_type_partial_charge
Tb0 Tb 0.38795 0.18933 0.12051 0.0
Eu1 Eu 0.32965 0.11045 0.15066 0.0
C2 C 0.33261 0.11214 0.09132 0.0
C3 C 0.30493 0.16984 0.13423 0.0
C4 C 0.46137 0.29168 0.1086 0.0
C5 C 0.50254 0.35855 0.09795 0.0
C6 C 0.47523 0.32113 0.09124 0.0
C7 C 0.47438 0.30045 0.13303 0.0
C8 C 0.50186 0.33783 0.13974 0.0
C9 C 0.51678 0.36729 0.12219 0.0
C10 C 0.43583 0.25176 0.10054 0.0
O11 O 0.40726 0.19936 0.15902 0.0
O12 O 0.3506 0.15819 0.17794 0.0
O13 O 0.39053 0.12065 0.1542 0.0
O14 O 0.40806 0.14882 0.11662 0.0
C15 C 0.38518 0.18778 0.17863 0.0
O16 O 0.28446 0.08188 0.17799 0.0
O17 O 0.30497 0.04943 0.15777 0.0
O18 O 0.3268 0.0927 0.11161 0.0
O19 O 0.35163 0.14999 0.09103 0.0
O20 O 0.34131 0.19609 0.13531 0.0
O21 O 0.29474 0.13356 0.13316 0.0
C22 C 0.41437 0.13248 0.13539 0.0
O23 O 0.44414 0.22671 0.10904 0.0
O24 O 0.39903 0.23894 0.10105 0.0
C25 C 0.23847 1.01984 0.1657 0.0
C26 C 0.1608 0.96863 0.15386 0.0
C27 C 0.17538 0.96842 0.17737 0.0
C28 C 0.21385 0.99378 0.18322 0.0
C29 C 0.22413 1.02023 0.14224 0.0
C30 C 0.18576 0.99482 0.13634 0.0
C31 C 0.27839 0.04794 0.17227 0.0
H32 H 0.51362 0.38033 0.08388 0.0
H33 H 0.46573 0.31498 0.07227 0.0
H34 H 0.46402 0.27822 0.1468 0.0
H35 H 0.51178 0.34359 0.15862 0.0
H36 H 0.15715 0.94837 0.19121 0.0
H37 H 0.22431 0.99322 0.20147 0.0
H38 H 0.24255 0.04053 0.12855 0.0
H39 H 0.17547 0.99615 0.11818 0.0
Tb40 Tb 0.82984 0.71562 0.38821 0.0
Eu41 Eu 0.86851 0.66671 0.41039 0.0
C42 C 0.86174 0.67665 0.35266 0.0
C43 C 0.77975 0.62498 0.39267 0.0
C44 C 0.81608 0.7983 0.37355 0.0
C45 C 0.8012 0.84955 0.37296 0.0
C46 C 0.78942 0.81072 0.37128 0.0
C47 C 0.85502 0.82535 0.37665 0.0
C48 C 0.86691 0.86434 0.37826 0.0
C49 C 0.83996 0.87678 0.37701 0.0
C50 C 0.8021 0.75717 0.37573 0.0
O51 O 0.80781 0.69363 0.42433 0.0
O52 O 0.86229 0.70177 0.44128 0.0
O53 O 0.91579 0.72164 0.39599 0.0
O54 O 0.88778 0.7584 0.4007 0.0
C55 C 0.83055 0.70321 0.44329 0.0
O56 O 0.86709 0.62246 0.43414 0.0
O57 O 0.91846 0.65936 0.41357 0.0
O58 O 0.85805 0.65208 0.36974 0.0
O59 O 0.86017 0.70764 0.35779 0.0
O60 O 0.78505 0.65606 0.38118 0.0
O61 O 0.80585 0.62478 0.40705 0.0
C62 C 0.9186 0.75517 0.39809 0.0
O63 O 0.81502 0.74172 0.36009 0.0
O64 O 0.80194 0.74568 0.39804 0.0
C65 C 0.90721 0.5972 0.42185 0.0
C66 C 0.92077 0.53594 0.41235 0.0
C67 C 0.95084 0.57206 0.41954 0.0
C68 C 0.94408 0.60221 0.42428 0.0
C69 C 0.87712 0.5615 0.41413 0.0
C70 C 0.88385 0.53115 0.40944 0.0
C71 C 0.90133 0.62968 0.42779 0.0
H72 H 0.77982 0.85823 0.37153 0.0
H73 H 0.75922 0.79023 0.36904 0.0
H74 H 0.87596 0.81621 0.37869 0.0
H75 H 0.89692 0.88455 0.38151 0.0
H76 H 0.97974 0.5771 0.42154 0.0
H77 H 0.96778 0.62956 0.43004 0.0
H78 H 0.8484 0.55692 0.41198 0.0
H79 H 0.85993 0.5037 0.40415 0.0
Tb80 Tb 0.86101 0.21533 0.12415 0.0
Eu81 Eu 0.94733 0.25397 0.14919 0.0
C82 C 0.93603 0.24039 0.09268 0.0
C83 C 0.89432 0.16375 0.13998 0.0
C84 C 0.75493 0.17754 0.1131 0.0
C85 C 0.68613 0.13308 0.11441 0.0
C86 C 0.72345 0.14079 0.10953 0.0
C87 C 0.74835 0.20645 0.12216 0.0
C88 C 0.71086 0.19876 0.12702 0.0
C89 C 0.67912 0.16202 0.12291 0.0
C90 C 0.79375 0.18468 0.10647 0.0
O91 O 0.85319 0.20721 0.16427 0.0
O92 O 0.91004 0.25753 0.17823 0.0
O93 O 0.93871 0.30243 0.13554 0.0
O94 O 0.8731 0.27076 0.13749 0.0
C95 C 0.87434 0.23106 0.18192 0.0
O96 O 0.98705 0.25881 0.17812 0.0
O97 O 1.00882 0.29295 0.14514 0.0
O98 O 0.94914 0.23175 0.11203 0.0
O99 O 0.90376 0.24136 0.09415 0.0
O100 O 0.87772 0.17199 0.12217 0.0
O101 O 0.91773 0.19014 0.15555 0.0
C102 C 0.90603 0.3026 0.13579 0.0
O103 O 0.82049 0.21968 0.10199 0.0
O104 O 0.80686 0.16643 0.11916 0.0
C105 C 0.0463 0.26913 0.16241 0.0
C106 C 0.10231 0.24705 0.15568 0.0
C107 C 0.11299 0.28489 0.16221 0.0
C108 C 0.08526 0.29576 0.16555 0.0
C109 C 1.0354 0.2314 0.15581 0.0
C110 C 0.06307 0.22044 0.15257 0.0
C111 C 1.01741 0.28118 0.16518 0.0
H112 H 0.66269 0.1043 0.11145 0.0
H113 H 0.7277 0.11795 0.10267 0.0
H114 H 0.77206 0.23509 0.12517 0.0
H115 H 0.7067 0.22188 0.13335 0.0
H116 H 0.14286 0.30636 0.16435 0.0
H117 H 0.09428 0.32511 0.17037 0.0
H118 H 1.00544 0.21041 0.15312 0.0
H119 H 0.05362 0.19098 0.14787 0.0
Tb120 Tb 0.35909 0.10786 0.38781 0.0
Eu121 Eu 0.40658 0.1922 0.41489 0.0
C122 C 0.4078 0.17973 0.35603 0.0
C123 C 0.4478 0.14505 0.40025 0.0
C124 C 0.27345 1.01582 0.37335 0.0
C125 C 0.22006 0.95134 0.37873 0.0
C126 C 0.25913 0.97637 0.37469 0.0
C127 C 0.24793 0.02987 0.37596 0.0
C128 C 0.20875 1.0048 0.37979 0.0
C129 C 0.19439 0.96523 0.38146 0.0
C130 C 0.31512 0.04204 0.37053 0.0
O131 O 0.33698 0.10273 0.42466 0.0
O132 O 0.39075 0.14697 0.44448 0.0
O133 O 0.34418 0.17367 0.41775 0.0
O134 O 0.32653 0.13742 0.38271 0.0
C135 C 0.35851 0.11401 0.44435 0.0
O136 O 0.45303 0.23406 0.43821 0.0
O137 O 0.41363 0.24871 0.42117 0.0
O138 O 0.40566 0.20108 0.37369 0.0
O139 O 0.3987 0.14413 0.35985 0.0
O140 O 0.41413 0.11331 0.39937 0.0
O141 O 0.45051 0.17877 0.40047 0.0
C142 C 0.32039 0.15754 0.39934 0.0
O143 O 0.32538 0.07351 0.35847 0.0
O144 O 0.33559 0.04833 0.39038 0.0
C145 C 0.47749 0.29838 0.42616 0.0
C146 C 0.53849 0.37062 0.41183 0.0
C147 C 0.52244 0.36507 0.43555 0.0
C148 C 0.49228 0.32934 0.4426 0.0
C149 C 0.49322 0.30361 0.40247 0.0
C150 C 0.52341 0.33936 0.39537 0.0
C151 C 0.44521 0.26114 0.43376 0.0
H152 H 0.20989 0.921 0.37963 0.0
H153 H 0.27826 0.96492 0.37286 0.0
H154 H 0.25831 0.06028 0.37534 0.0
H155 H 0.18987 1.01646 0.38205 0.0
H156 H 0.53363 0.38818 0.44887 0.0
H157 H 0.48051 0.32587 0.46097 0.0
H158 H 0.48203 0.28007 0.38945 0.0
H159 H 0.53469 0.34258 0.37689 0.0
Tb160 Tb 0.8375 0.67165 0.11512 0.0
Eu161 Eu 0.79914 0.72027 0.13955 0.0
C162 C 0.79392 0.70254 0.08395 0.0
C163 C 0.88781 0.7608 0.12369 0.0
C164 C 0.86969 0.60042 0.10174 0.0
C165 C 0.88285 0.55088 0.08757 0.0
C166 C 0.87733 0.58176 0.08262 0.0
C167 C 0.86705 0.58733 0.12595 0.0
C168 C 0.87272 0.55652 0.13095 0.0
C169 C 0.88102 0.53802 0.11184 0.0
C170 C 0.86707 0.63481 0.09626 0.0
O171 O 0.83441 0.66092 0.15488 0.0
O172 O 0.83611 0.71573 0.16838 0.0
O173 O 0.75557 0.65863 0.14797 0.0
O174 O 0.77806 0.62877 0.12176 0.0
C175 C 0.84039 0.6861 0.17237 0.0
O176 O 0.78424 0.74735 0.16929 0.0
O177 O 0.77012 0.75213 0.1315 0.0
O178 O 0.77256 0.69451 0.10345 0.0
O179 O 0.82641 0.70229 0.08553 0.0
O180 O 0.88564 0.72734 0.12391 0.0
O181 O 0.85703 0.76424 0.12454 0.0
C182 C 0.75189 0.62787 0.13677 0.0
O183 O 0.83365 0.62979 0.08997 0.0
O184 O 0.88458 0.66328 0.11156 0.0
C185 C 0.78658 0.80517 0.15687 0.0
C186 C 0.81616 0.88491 0.15595 0.0
C187 C 0.83805 0.86982 0.16578 0.0
C188 C 0.82351 0.83021 0.16602 0.0
C189 C 0.76432 0.82027 0.14791 0.0
C190 C 0.77898 0.85969 0.14734 0.0
C191 C 0.77187 0.76379 0.15411 0.0
H192 H 0.88839 0.53698 0.07231 0.0
H193 H 0.87951 0.59141 0.06381 0.0
H194 H 0.86131 0.60139 0.14104 0.0
H195 H 0.87143 0.54777 0.14988 0.0
H196 H 0.86688 0.88867 0.17239 0.0
H197 H 0.84147 0.81927 0.17272 0.0
H198 H 0.73589 0.80152 0.14062 0.0
H199 H 0.76136 0.87053 0.13989 0.0
Tb200 Tb 0.96285 0.23631 0.38539 0.0
Eu201 Eu 0.88522 0.21328 0.41827 0.0
C202 C 0.88453 0.21285 0.35929 0.0
C203 C 0.94184 0.29742 0.40218 0.0
C204 C 0.05416 0.24344 0.36522 0.0
C205 C 0.09325 0.21726 0.35015 0.0
C206 C 0.06477 0.22685 0.34628 0.0
C207 C 0.07288 0.25072 0.38808 0.0
C208 C 0.10162 0.24146 0.39189 0.0
C209 C 0.11191 0.22432 0.37303 0.0
C210 C 1.02216 0.25081 0.36117 0.0
O211 O 0.98428 0.25137 0.42267 0.0
O212 O 0.92971 0.2183 0.44619 0.0
O213 O 0.88 0.15973 0.40184 0.0
O214 O 0.94399 0.18039 0.4015 0.0
C215 C 0.96741 0.23815 0.44395 0.0
O216 O 0.84527 0.22988 0.43288 0.0
O217 O 0.83556 0.1731 0.44008 0.0
O218 O 0.87169 0.22162 0.37909 0.0
O219 O 0.91541 0.2098 0.35972 0.0
O220 O 0.95094 0.28369 0.38289 0.0
O221 O 0.92624 0.27599 0.42149 0.0
C222 C 0.90825 0.15245 0.40092 0.0
O223 O 0.98881 0.22058 0.35766 0.0
O224 O 1.01988 0.2753 0.37582 0.0
C225 C 0.78099 0.1812 0.43741 0.0
C226 C 0.70377 0.16093 0.42891 0.0
C227 C 0.71844 0.16624 0.45301 0.0
C228 C 0.7566 0.17628 0.45718 0.0
C229 C 0.76627 0.17455 0.41334 0.0
C230 C 0.72793 0.16435 0.40913 0.0
C231 C 0.82217 0.19648 0.44223 0.0
H232 H 0.1008 0.20446 0.33517 0.0
H233 H 0.05061 0.22082 0.32854 0.0
H234 H 0.06497 0.26307 0.40313 0.0
H235 H 0.11517 0.24688 0.4098 0.0
H236 H 0.70055 0.16333 0.46868 0.0
H237 H 0.7674 0.18131 0.47588 0.0
H238 H 0.78473 0.17843 0.3978 0.0
H239 H 0.7177 0.16077 0.39035 0.0
Tb240 Tb 0.13738 0.32932 0.65072 0.0
Eu241 Eu 0.22125 0.38031 0.62342 0.0
C242 C 0.21249 0.37897 0.68197 0.0
C243 C 0.17095 0.41743 0.6409 0.0
C244 C 0.04231 0.24553 0.66379 0.0
C245 C 0.99093 0.18405 0.67764 0.0
C246 C 1.0185 0.22204 0.68259 0.0
C247 C 1.03806 0.23057 0.63986 0.0
C248 C 1.01029 0.19262 0.63485 0.0
C249 C 0.98659 0.16882 0.65373 0.0
C250 C 0.07286 0.28467 0.6697 0.0
O251 O 0.12534 0.33572 0.61291 0.0
O252 O 0.17899 0.3425 0.59371 0.0
O253 O 0.21812 0.3283 0.63994 0.0
O254 O 0.15394 0.28928 0.63538 0.0
C255 C 0.1426 0.33324 0.59315 0.0
O256 O 0.2615 0.42791 0.6006 0.0
O257 O 0.27816 0.3887 0.61514 0.0
O258 O 0.23058 0.40077 0.66307 0.0
O259 O 0.17993 0.34686 0.67966 0.0
O260 O 0.15129 0.38895 0.65627 0.0
O261 O 0.19237 0.41525 0.62349 0.0
C262 C 0.18848 0.29396 0.63801 0.0
O263 O 0.10496 0.28775 0.67712 0.0
O264 O 0.07868 0.31111 0.65387 0.0
C265 C 0.32725 0.4531 0.61085 0.0
C266 C 0.40048 0.51527 0.62283 0.0
C267 C 0.39683 0.48348 0.60974 0.0
C268 C 0.36061 0.45281 0.60377 0.0
C269 C 0.33069 0.48435 0.62446 0.0
C270 C 0.36693 0.51518 0.63029 0.0
C271 C 0.2894 0.42077 0.6037 0.0
H272 H 0.97286 0.16661 0.69252 0.0
H273 H 1.02151 0.233 0.70119 0.0
H274 H 0.05654 0.24808 0.62513 0.0
H275 H 1.00795 0.18167 0.61631 0.0
H276 H 0.42199 0.48277 0.60345 0.0
H277 H 0.35865 0.42898 0.59332 0.0
H278 H 0.3054 0.48512 0.6304 0.0
H279 H 0.36869 0.539 0.64063 0.0
Tb280 Tb 0.22088 0.86202 0.91209 0.0
Eu281 Eu 0.25086 0.94439 0.88402 0.0
C282 C 0.25533 0.93925 0.94158 0.0
C283 C 0.16485 0.89142 0.89925 0.0
C284 C 0.19113 0.76027 0.92603 0.0
C285 C 0.16574 0.69315 0.93549 0.0
C286 C 0.17131 0.72919 0.94184 0.0
C287 C 0.20539 0.75488 0.90369 0.0
C288 C 0.19987 0.7188 0.8973 0.0
C289 C 0.17986 0.68739 0.91311 0.0
C290 C 0.19549 0.79765 0.93277 0.0
O291 O 0.22926 0.85068 0.87382 0.0
O292 O 0.22236 0.89815 0.8556 0.0
O293 O 0.29801 0.93013 0.87712 0.0
O294 O 0.28256 0.88755 0.90913 0.0
C295 C 0.22272 0.86591 0.85439 0.0
O296 O 0.24298 0.97718 0.8551 0.0
O297 O 0.28723 1.00644 0.88236 0.0
O298 O 0.27513 0.9561 0.92194 0.0
O299 O 0.22649 0.90383 0.94045 0.0
O300 O 0.17163 0.86308 0.89708 0.0
O301 O 0.19336 0.92654 0.90133 0.0
C302 C 0.30598 0.90888 0.89162 0.0
O303 O 0.23029 0.826 0.9354 0.0
O304 O 0.17449 0.80782 0.92041 0.0
C305 C 0.25356 0.03692 0.869 0.0
C306 C 0.22627 0.08836 0.8774 0.0
C307 C 0.25079 0.09348 0.85746 0.0
C308 C 0.26429 0.06801 0.85333 0.0
C309 C 0.22875 0.03131 0.88873 0.0
C310 C 0.21524 0.05676 0.8929 0.0
C311 C 0.26772 1.01009 0.86453 0.0
H312 H 0.1508 0.6699 0.94831 0.0
H313 H 0.16004 0.73278 0.95915 0.0
H314 H 0.22057 0.7785 0.89114 0.0
H315 H 0.21084 0.7154 0.87984 0.0
H316 H 0.25943 0.11711 0.84491 0.0
H317 H 0.28312 0.07261 0.83788 0.0
H318 H 0.22003 1.00735 0.90102 0.0
H319 H 0.19682 0.05211 0.90857 0.0
Tb320 Tb 0.74686 0.80993 0.6456 0.0
Eu321 Eu 0.69324 0.83395 0.6125 0.0
C322 C 0.69443 0.83648 0.67153 0.0
C323 C 0.66385 0.75013 0.6293 0.0
C324 C 0.83049 0.80306 0.66541 0.0
C325 C 0.88387 0.79327 0.67492 0.0
C326 C 0.84575 0.78397 0.67853 0.0
C327 C 0.8537 0.83136 0.64846 0.0
C328 C 0.89185 0.84087 0.64499 0.0
C329 C 0.90744 0.82202 0.65822 0.0
C330 C 0.79068 0.79394 0.66959 0.0
O331 O 0.75393 0.79569 0.60826 0.0
O332 O 0.73201 0.82796 0.58439 0.0
O333 O 0.7431 0.88792 0.6272 0.0
O334 O 0.78532 0.86579 0.62974 0.0
C335 C 0.75029 0.80862 0.5869 0.0
O336 O 0.6367 0.81658 0.59759 0.0
O337 O 0.68321 0.87397 0.59109 0.0
O338 O 0.67231 0.8272 0.65198 0.0
O339 O 0.72807 0.8389 0.67082 0.0
O340 O 0.68701 0.76333 0.64843 0.0
O341 O 0.67134 0.77126 0.60969 0.0
C342 C 0.77829 0.89424 0.62879 0.0
O343 O 0.78624 0.8231 0.67436 0.0
O344 O 0.76547 0.77086 0.65368 0.0
C345 C 0.61987 0.86429 0.59332 0.0
C346 C 0.56178 0.88276 0.60238 0.0
C347 C 0.56811 0.8734 0.5785 0.0
C348 C 0.59681 0.86427 0.57405 0.0
C349 C 0.61468 0.87485 0.61708 0.0
C350 C 0.58598 0.8842 0.62155 0.0
C351 C 0.6466 0.85003 0.58854 0.0
H352 H 0.89511 0.77841 0.68551 0.0
H353 H 0.82826 0.76207 0.69168 0.0
H354 H 0.84236 0.84623 0.63799 0.0
H355 H 0.90904 0.86273 0.63174 0.0
H356 H 0.55037 0.8725 0.56326 0.0
H357 H 0.60029 0.85612 0.55561 0.0
H358 H 0.63204 0.87475 0.63225 0.0
H359 H 0.5817 0.89099 0.64017 0.0
Tb360 Tb 0.19664 0.38243 0.91832 0.0
Eu361 Eu 0.10988 0.33498 0.89403 0.0
C362 C 0.1227 0.35061 0.95001 0.0
C363 C 0.15779 0.29384 0.9084 0.0
C364 C 0.30003 0.45304 0.93147 0.0
C365 C 0.3626 0.50317 0.94538 0.0
C366 C 0.32633 0.47207 0.95049 0.0
C367 C 0.31032 0.46595 0.9072 0.0
C368 C 0.34667 0.49693 0.90204 0.0
C369 C 0.37347 0.51584 0.92104 0.0
C370 C 0.26312 0.41854 0.93706 0.0
O371 O 0.20447 0.39557 0.87891 0.0
O372 O 0.1516 0.34124 0.86462 0.0
O373 O 0.12872 0.39698 0.88626 0.0
O374 O 0.17938 0.42505 0.91369 0.0
C375 C 0.1855 0.37124 0.86102 0.0
O376 O 0.06829 0.30756 0.86417 0.0
O377 O 0.04869 0.3046 0.90165 0.0
O378 O 0.10831 0.3585 0.93102 0.0
O379 O 0.1549 0.35002 0.94748 0.0
O380 O 0.18902 0.32733 0.90797 0.0
O381 O 0.12352 0.29032 0.90803 0.0
C382 C 0.15518 0.42704 0.89835 0.0
O383 O 0.2348 0.42346 0.9438 0.0
O384 O 0.25194 0.39032 0.92153 0.0
C385 C 1.01201 0.25065 0.87696 0.0
C386 C 0.9611 0.17101 0.87843 0.0
C387 C 0.99779 0.18567 0.86808 0.0
C388 C 1.02321 0.2252 0.86755 0.0
C389 C 0.97497 0.23599 0.88653 0.0
C390 C 0.94985 0.19663 0.88736 0.0
C391 C 1.03911 0.29206 0.87918 0.0
H392 H 0.38204 0.51738 0.96057 0.0
H393 H 0.31896 0.46258 0.96934 0.0
H394 H 0.29052 0.45162 0.89218 0.0
H395 H 0.35401 0.5055 0.88306 0.0
H396 H 1.00725 0.16654 0.8612 0.0
H397 H 0.05183 0.23576 0.86037 0.0
H398 H 0.9658 0.25504 0.894 0.0
H399 H 0.92163 0.18615 0.89521 0.0
Tb400 Tb 0.27096 0.93681 0.64359 0.0
Eu401 Eu 0.23393 0.85147 0.61759 0.0
C402 C 0.24682 0.86563 0.67627 0.0
C403 C 0.32209 0.89896 0.63213 0.0
C404 C 0.28044 0.03063 0.65743 0.0
C405 C 0.29342 0.09614 0.65597 0.0
C406 C 0.30611 0.06993 0.65937 0.0
C407 C 0.24175 1.01784 0.65206 0.0
C408 C 0.22896 0.04405 0.64883 0.0
C409 C 0.25471 0.08356 0.65059 0.0
C410 C 0.29452 1.00338 0.66018 0.0
O411 O 0.25335 0.94057 0.60673 0.0
O412 O 0.26323 0.89609 0.58755 0.0
O413 O 0.18964 0.86933 0.61458 0.0
O414 O 0.20873 0.90832 0.6485 0.0
C415 C 0.26374 0.92894 0.58724 0.0
O416 O 0.23885 0.80902 0.5951 0.0
O417 O 0.18447 0.79477 0.6116 0.0
O418 O 0.22341 0.84381 0.65877 0.0
O419 O 0.27364 0.90101 0.67209 0.0
O420 O 0.32013 0.93066 0.63196 0.0
O421 O 0.29105 0.86526 0.63259 0.0
C422 C 0.1822 0.8866 0.63243 0.0
O423 O 0.27255 0.97234 0.67246 0.0
O424 O 0.30778 0.99608 0.64023 0.0
C425 C 0.19846 0.74487 0.60748 0.0
C426 C 0.18654 0.67276 0.62264 0.0
C427 C 0.17297 0.67707 0.59968 0.0
C428 C 0.17889 0.71274 0.59222 0.0
C429 C 0.21191 0.74086 0.63045 0.0
C430 C 0.20606 0.70518 0.63794 0.0
C431 C 0.2038 0.78206 0.59947 0.0
H432 H 0.31393 0.12632 0.65774 0.0
H433 H 0.33606 0.08039 0.66341 0.0
H434 H 0.22147 0.9876 0.65017 0.0
H435 H 0.19909 0.03341 0.64447 0.0
H436 H 0.1584 0.65301 0.58722 0.0
H437 H 0.16823 0.71524 0.57444 0.0
H438 H 0.22685 0.76531 0.6426 0.0
H439 H 0.21657 0.70294 0.65583 0.0
Tb440 Tb 0.67435 0.83986 0.90726 0.0
Eu441 Eu 0.723 0.80225 0.88328 0.0
C442 C 0.72205 0.81384 0.93996 0.0
C443 C 0.75987 0.89191 0.89338 0.0
C444 C 0.60481 0.87514 0.91735 0.0
C445 C 0.56356 0.90174 0.92602 0.0
C446 C 0.59362 0.89571 0.93278 0.0
C447 C 0.58555 0.86065 0.89493 0.0
C448 C 0.55536 0.86662 0.88813 0.0
C449 C 0.54397 0.88731 0.90359 0.0
C450 C 0.63726 0.87013 0.92471 0.0
O451 O 0.67551 0.84818 0.86716 0.0
O452 O 0.68235 0.79786 0.85387 0.0
O453 O 0.66572 0.7531 0.89619 0.0
O454 O 0.63134 0.78425 0.8939 0.0
C455 C 0.67307 0.82414 0.84974 0.0
O456 O 0.75749 0.79787 0.85387 0.0
O457 O 0.74736 0.76489 0.88717 0.0
O458 O 0.74516 0.82217 0.92126 0.0
O459 O 0.68883 0.81249 0.9373 0.0
O460 O 0.73433 0.88294 0.91087 0.0
O461 O 0.75717 0.86612 0.87744 0.0
C462 C 0.6327 0.75258 0.89571 0.0
O463 O 0.6296 0.8355 0.92964 0.0
O464 O 0.66818 0.88819 0.91151 0.0
C465 C 0.80855 0.79141 0.86932 0.0
C466 C 0.88777 0.81866 0.87511 0.0
C467 C 0.86254 0.78046 0.86816 0.0
C468 C 0.82333 0.76701 0.86527 0.0
C469 C 0.83343 0.82946 0.87641 0.0
C470 C 0.87267 0.84299 0.8792 0.0
C471 C 0.76716 0.77692 0.86688 0.0
H472 H 0.55524 0.91718 0.9386 0.0
H473 H 0.60816 0.90715 0.95015 0.0
H474 H 0.59398 0.84489 0.88268 0.0
H475 H 0.54121 0.85536 0.87065 0.0
H476 H 0.87296 0.76068 0.86531 0.0
H477 H 0.80451 0.73747 0.86006 0.0
H478 H 0.82248 0.84871 0.8798 0.0
H479 H 0.89118 0.87262 0.88431 0.0
H480 H 0.16854 0.27017 0.18204 0.0
H481 H 0.10349 0.19758 0.12113 0.0
H482 H 0.21712 0.25182 0.17595 0.0
H483 H 0.1519 0.17881 0.11534 0.0
H484 H 0.22687 0.12392 0.1311 0.0
H485 H 0.17803 0.14241 0.13591 0.0
H486 H 0.26652 0.25991 0.14614 0.0
H487 H 0.31533 0.24149 0.14156 0.0
C488 C 0.16467 0.25055 0.16721 0.0
C489 C 0.13195 0.23548 0.15207 0.0
C490 C 0.19258 0.23997 0.16374 0.0
C491 C 0.1885 0.21387 0.14512 0.0
C492 C 0.15573 0.1986 0.13006 0.0
C493 C 0.1279 0.20934 0.13343 0.0
C494 C 0.23595 0.15374 0.13427 0.0
C495 C 0.27511 0.18118 0.13598 0.0
C496 C 0.20791 0.16436 0.13692 0.0
C497 C 0.2183 0.20264 0.14152 0.0
C498 C 0.25746 0.23011 0.14296 0.0
C499 C 0.28549 0.21955 0.14016 0.0
H500 H 0.13149 0.9643 0.36088 0.0
H501 H 0.16354 0.90566 0.41357 0.0
H502 H 0.0638 0.91667 0.36685 0.0
H503 H 0.09636 0.85869 0.41979 0.0
H504 H 0.98564 0.75468 0.39685 0.0
H505 H 0.05006 0.80765 0.39445 0.0
H506 H 1.00728 0.88661 0.39541 0.0
H507 H 0.94127 0.83247 0.39746 0.0
C508 C 0.12407 0.94159 0.37399 0.0
C509 C 0.15298 0.93836 0.3864 0.0
C510 C 0.08527 0.91439 0.37748 0.0
C511 C 0.07459 0.88348 0.39353 0.0
C512 C 0.10352 0.88154 0.40683 0.0
C513 C 0.14211 0.90846 0.40324 0.0
C514 C 0.98951 0.78319 0.39664 0.0
C515 C 0.9579 0.78909 0.39738 0.0
C516 C 1.02681 0.81378 0.39546 0.0
C517 C 1.0341 0.85154 0.39504 0.0
C518 C 1.00266 0.85782 0.39566 0.0
C519 C 0.96487 0.82686 0.39695 0.0
H520 H 0.93249 0.13603 0.16743 0.0
H521 H 0.83638 0.1006 0.11821 0.0
H522 H 0.91726 0.06954 0.17102 0.0
H523 H 0.82036 0.0347 0.12247 0.0
H524 H 0.81748 0.9236 0.11497 0.0
H525 H 0.84 0.99144 0.11086 0.0
H526 H 0.87251 1.00864 0.18767 0.0
H527 H 0.85122 0.94053 0.19134 0.0
C528 C 0.90807 0.11408 0.15746 0.0
C529 C 0.88585 0.12371 0.14238 0.0
C530 C 0.89919 0.07592 0.15961 0.0
C531 C 0.86771 0.04654 0.14689 0.0
C532 C 0.84541 0.05641 0.13206 0.0
C533 C 0.85449 0.09438 0.12972 0.0
C534 C 0.82957 0.94195 0.13094 0.0
C535 C 0.83219 0.92676 0.15354 0.0
C536 C 0.84233 0.98087 0.12866 0.0
C537 C 0.85752 1.00567 0.14904 0.0
C538 C 0.86125 0.9906 0.17152 0.0
C539 C 0.84892 0.95156 0.17369 0.0
H540 H 0.29622 0.19355 0.43143 0.0
H541 H 0.27074 0.13749 0.36042 0.0
H542 H 0.24491 0.20798 0.42568 0.0
H543 H 0.2202 0.15304 0.35429 0.0
H544 H 0.10964 0.15771 0.36001 0.0
H545 H 0.15823 0.13966 0.36714 0.0
H546 H 0.23045 0.24874 0.40239 0.0
H547 H 0.18142 0.26628 0.3957 0.0
C548 C 0.2797 0.18431 0.41456 0.0
C549 C 0.28775 0.16447 0.39635 0.0
C550 C 0.2504 0.19286 0.41117 0.0
C551 C 0.2285 0.18202 0.38942 0.0
C552 C 0.23612 0.16152 0.3714 0.0
C553 C 0.26529 0.15275 0.37486 0.0
C554 C 0.136 0.17788 0.36918 0.0
C555 C 0.14169 0.21344 0.37728 0.0
C556 C 0.16393 0.16756 0.37324 0.0
C557 C 0.19839 0.19268 0.38537 0.0
C558 C 0.20403 0.22832 0.39341 0.0
C559 C 0.17597 0.23848 0.38951 0.0
H560 H 0.09699 0.94731 0.18243 0.0
H561 H 0.13179 0.92839 0.11096 0.0
H562 H 1.03046 0.90049 0.17274 0.0
H563 H 0.06526 0.88244 0.10106 0.0
H564 H 0.95457 0.76545 0.10921 0.0
H565 H 1.01937 0.81818 0.11496 0.0
H566 H 0.97478 0.88677 0.14592 0.0
H567 H 0.90926 0.83336 0.14028 0.0
C568 C 0.09046 0.93328 0.16462 0.0
C569 C 0.11988 0.94146 0.14756 0.0
C570 C 0.05223 0.9068 0.15895 0.0
C571 C 0.04246 0.88763 0.13613 0.0
C572 C 0.07178 0.89642 0.11889 0.0
C573 C 0.10993 0.92302 0.1245 0.0
C574 C 0.95843 0.7919 0.11698 0.0
C575 C 0.92667 0.79511 0.12435 0.0
C576 C 0.9957 0.82228 0.12015 0.0
C577 C 1.00239 0.85674 0.13096 0.0
C578 C 0.97062 0.86047 0.13772 0.0
C579 C 0.93309 0.83003 0.13429 0.0
H580 H 0.90257 0.94065 0.3585 0.0
H581 H 0.80396 0.90524 0.40533 0.0
H582 H 0.92023 1.00744 0.36485 0.0
H583 H 0.82174 0.97161 0.41198 0.0
H584 H 0.83794 0.08871 0.39584 0.0
H585 H 0.82299 1.02309 0.39013 0.0
H586 H 0.94336 0.05889 0.39475 0.0
H587 H 0.95852 0.12512 0.39981 0.0
C588 C 0.88486 0.94715 0.3703 0.0
C589 C 0.8516 0.91761 0.38115 0.0
C590 C 0.89502 0.98543 0.37402 0.0
C591 C 0.87225 0.995 0.38878 0.0
C592 C 0.83948 0.96537 0.40003 0.0
C593 C 0.82926 0.92724 0.39622 0.0
C594 C 0.86131 0.08271 0.39574 0.0
C595 C 0.89945 0.11228 0.39838 0.0
C596 C 0.85268 0.04491 0.39258 0.0
C597 C 0.88191 0.03552 0.3921 0.0
C598 C 0.92013 0.06509 0.39477 0.0
C599 C 0.92881 0.10305 0.39785 0.0
H600 H 0.29016 0.14948 0.62405 0.0
H601 H 0.18937 0.08127 0.66791 0.0
H602 H 0.27128 0.19765 0.61938 0.0
H603 H 0.17058 0.12995 0.66351 0.0
H604 H 0.13591 0.21666 0.63427 0.0
H605 H 0.1492 0.1636 0.63557 0.0
H606 H 0.26957 0.24431 0.64571 0.0
H607 H 0.25668 0.29654 0.64392 0.0
C608 C 0.26402 0.14485 0.63281 0.0
C609 C 0.2416 0.11174 0.64665 0.0
C610 C 0.25314 0.1725 0.63014 0.0
C611 C 0.21964 0.16804 0.64137 0.0
C612 C 0.19641 0.13426 0.65448 0.0
C613 C 0.20725 0.1064 0.65706 0.0
C614 C 0.16518 0.22293 0.63668 0.0
C615 C 0.19518 0.26095 0.63883 0.0
C616 C 0.17279 0.19255 0.63754 0.0
C617 C 0.21056 0.19964 0.64047 0.0
C618 C 0.24027 0.23766 0.64284 0.0
C619 C 0.23274 0.26776 0.64199 0.0
H620 H 0.10139 0.82226 0.89139 0.0
H621 H 0.13719 0.94161 0.90185 0.0
H622 H 1.03587 0.80773 0.88544 0.0
H623 H 0.0707 0.92668 0.8958 0.0
H624 H 0.93694 0.86823 0.91023 0.0
H625 H 1.0047 0.88881 0.91612 0.0
H626 H 1.0008 0.82151 0.85307 0.0
H627 H 0.93356 0.80154 0.84682 0.0
C628 C 0.09534 0.8455 0.89249 0.0
C629 C 0.12473 0.8832 0.89699 0.0
C630 C 0.05768 0.83711 0.88891 0.0
C631 C 0.04817 0.86609 0.88985 0.0
C632 C 0.07722 0.90375 0.895 0.0
C633 C 0.11525 0.91228 0.8984 0.0
C634 C 0.95066 0.85828 0.89737 0.0
C635 C 0.92955 0.83283 0.87818 0.0
C636 C 0.98949 0.87009 0.90079 0.0
C637 C 1.00796 0.85648 0.88521 0.0
C638 C 0.98717 0.83193 0.86566 0.0
C639 C 0.94854 0.82035 0.86215 0.0
H640 H 0.85357 0.91958 0.64025 0.0
H641 H 0.77567 0.95961 0.62089 0.0
H642 H 0.9053 0.98566 0.64486 0.0
H643 H 0.82722 0.0254 0.62564 0.0
H644 H 0.93715 0.13961 0.61465 0.0
H645 H 0.88866 0.07305 0.60686 0.0
H646 H 0.92166 0.0397 0.6737 0.0
H647 H 0.97058 0.10608 0.68125 0.0
C648 C 0.8475 0.94241 0.63681 0.0
C649 C 0.8104 0.93424 0.63025 0.0
C650 C 0.87711 0.98027 0.63961 0.0
C651 C 0.87037 1.01081 0.63567 0.0
C652 C 0.83349 1.00259 0.62857 0.0
C653 C 0.80385 0.96481 0.62599 0.0
C654 C 0.9343 0.11801 0.62754 0.0
C655 C 0.95762 0.12818 0.64863 0.0
C656 C 0.90632 0.07992 0.62318 0.0
C657 C 0.90124 0.05107 0.63968 0.0
C658 C 0.92504 0.06116 0.66052 0.0
C659 C 0.95279 0.09926 0.66499 0.0
H660 H 0.21933 0.28962 0.92403 0.0
H661 H 0.10796 0.22145 0.89062 0.0
H662 H 0.2331 0.23825 0.91766 0.0
H663 H 0.12221 0.16968 0.88369 0.0
H664 H 0.15529 0.07471 0.89285 0.0
H665 H 0.13556 0.12165 0.90246 0.0
H666 H 0.24797 0.21251 0.88207 0.0
H667 H 0.26803 0.1661 0.87348 0.0
C668 C 0.19761 0.26347 0.91542 0.0
C669 C 0.1627 0.25981 0.90758 0.0
C670 C 0.20566 0.23405 0.9116 0.0
C671 C 0.17918 0.20012 0.89963 0.0
C672 C 0.14328 0.19547 0.89295 0.0
C673 C 0.13507 0.22507 0.89694 0.0
C674 C 0.17586 0.10475 0.89061 0.0
C675 C 0.21334 0.11655 0.88243 0.0
C676 C 0.1644 0.13161 0.89588 0.0
C677 C 0.19023 0.17091 0.89326 0.0
C678 C 0.22746 0.18255 0.88474 0.0
C679 C 0.23885 0.15582 0.87946 0.0
H680 H 0.15616 0.92203 0.66389 0.0
H681 H 0.11803 0.83434 0.60775 0.0
H682 H 0.09 0.90711 0.67013 0.0
H683 H 0.05221 0.8197 0.61395 0.0
H684 H 0.9364 0.77387 0.65307 0.0
H685 H 1.00305 0.79075 0.64674 0.0
H686 H 1.03706 0.91039 0.64834 0.0
H687 H 0.97042 0.8935 0.65507 0.0
C688 C 0.13377 0.89976 0.65279 0.0
C689 C 0.14247 0.87934 0.63536 0.0
C690 C 0.09588 0.89132 0.6563 0.0
C691 C 0.06582 0.86205 0.64265 0.0
C692 C 0.07463 0.84205 0.62501 0.0
C693 C 0.11246 0.85068 0.62134 0.0
C694 C 0.95814 0.80377 0.65226 0.0
C695 C 0.9481 0.83233 0.65455 0.0
C696 C 0.99627 0.81345 0.6484 0.0
C697 C 1.02534 0.85192 0.64695 0.0
C698 C 1.01538 0.88051 0.64952 0.0
C699 C 0.97718 0.87082 0.65315 0.0
H700 H 0.92318 0.13238 0.91944 0.0
H701 H 0.9401 0.11541 0.84303 0.0
H702 H 0.87765 0.06454 0.92355 0.0
H703 H 0.89315 0.04738 0.8467 0.0
H704 H 0.82621 0.9203 0.8663 0.0
H705 H 0.87741 0.98684 0.86315 0.0
H706 H 0.81485 1.02058 0.91223 0.0
H707 H 0.76495 0.95448 0.91609 0.0
C708 C 0.91688 0.11404 0.90345 0.0
C709 C 0.93486 0.12922 0.88086 0.0
C710 C 0.89061 0.07511 0.90574 0.0
C711 C 0.88108 0.0503 0.88537 0.0
C712 C 0.89992 0.0654 0.86287 0.0
C713 C 0.92671 0.10441 0.86069 0.0
C714 C 0.82362 0.942 0.87651 0.0
C715 C 0.79158 0.932 0.89155 0.0
C716 C 0.85286 0.98021 0.8746 0.0
C717 C 0.85055 1.00933 0.88752 0.0
C718 C 0.8183 0.99909 0.90245 0.0
C719 C 0.78942 0.96102 0.90456 0.0
H720 H 0.40228 0.23855 0.33546 0.0
H721 H 0.43499 0.15402 0.31911 0.0
H722 H 0.40752 0.25477 0.29172 0.0
H723 H 0.44033 0.17027 0.27568 0.0
H724 H 0.45552 0.20922 0.19833 0.0
H725 H 0.47217 0.21981 0.24224 0.0
H726 H 0.36378 0.21302 0.25777 0.0
H727 H 0.34722 0.20209 0.21427 0.0
C728 C 0.41153 0.22414 0.32265 0.0
C729 C 0.41766 0.19461 0.33065 0.0
C730 C 0.41446 0.23338 0.29763 0.0
C731 C 0.42419 0.21369 0.28025 0.0
C732 C 0.43315 0.18624 0.28859 0.0
C733 C 0.4297 0.17665 0.31348 0.0
C734 C 0.43602 0.21146 0.21108 0.0
C735 C 0.40005 0.20467 0.20306 0.0
C736 C 0.44537 0.21721 0.23618 0.0
C737 C 0.41915 0.21696 0.25346 0.0
C738 C 0.38474 0.21371 0.24496 0.0
C739 C 0.37516 0.20729 0.22005 0.0
H740 H 0.91923 0.72527 0.32332 0.0
H741 H 0.81652 0.61502 0.32352 0.0
H742 H 0.92138 0.72334 0.27855 0.0
H743 H 0.81722 0.61369 0.27837 0.0
H744 H 0.83316 0.6212 0.19437 0.0
H745 H 0.84514 0.61387 0.23783 0.0
H746 H 0.88201 0.73294 0.25066 0.0
H747 H 0.8711 0.74029 0.20797 0.0
C748 C 0.89759 0.70018 0.31368 0.0
C749 C 0.8677 0.67035 0.32671 0.0
C750 C 0.89854 0.69918 0.28803 0.0
C751 C 0.86888 0.66883 0.27476 0.0
C752 C 0.84057 0.63745 0.28795 0.0
C753 C 0.8401 0.63815 0.31379 0.0
C754 C 0.84447 0.64584 0.20649 0.0
C755 C 0.85094 0.68126 0.19771 0.0
C756 C 0.8511 0.6416 0.23139 0.0
C757 C 0.86477 0.67284 0.2478 0.0
C758 C 0.87227 0.70836 0.23862 0.0
C759 C 0.86556 0.7125 0.21403 0.0
H760 H 0.82204 0.16486 0.20455 0.0
H761 H 0.89489 0.28588 0.21705 0.0
H762 H 0.80999 0.1554 0.24891 0.0
H763 H 0.8828 0.27655 0.26106 0.0
H764 H 0.87523 0.16193 0.32373 0.0
H765 H 0.85852 0.16275 0.28082 0.0
H766 H 0.83664 0.25493 0.29686 0.0
H767 H 0.85316 0.25373 0.34023 0.0
C768 C 0.83445 0.18954 0.21666 0.0
C769 C 0.85979 0.22602 0.20743 0.0
C770 C 0.8277 0.18412 0.24204 0.0
C771 C 0.84566 0.2152 0.2585 0.0
C772 C 0.86826 0.25206 0.24892 0.0
C773 C 0.87546 0.25737 0.22369 0.0
C774 C 0.86573 0.1816 0.31824 0.0
C775 C 0.86574 0.20796 0.33519 0.0
C776 C 0.85588 0.1819 0.29367 0.0
C777 C 0.84646 0.20905 0.2854 0.0
C778 C 0.84393 0.23377 0.30272 0.0
C779 C 0.85315 0.23298 0.32752 0.0
H780 H 0.23546 0.34027 0.71072 0.0
H781 H 0.22097 0.43892 0.70999 0.0
H782 H 0.24087 0.34414 0.75547 0.0
H783 H 0.22507 0.44227 0.75508 0.0
H784 H 0.23863 0.43869 0.83918 0.0
H785 H 0.25839 0.44802 0.79571 0.0
H786 H 0.18694 0.32681 0.78285 0.0
H787 H 0.16767 0.31765 0.82559 0.0
C788 C 0.23488 0.36365 0.72018 0.0
C789 C 0.22806 0.38942 0.70706 0.0
C790 C 0.23755 0.36567 0.7458 0.0
C791 C 0.23254 0.39299 0.7589 0.0
C792 C 0.22921 0.42099 0.74557 0.0
C793 C 0.22698 0.41919 0.71977 0.0
C794 C 0.22778 0.41409 0.82705 0.0
C795 C 0.20142 0.37747 0.83577 0.0
C796 C 0.23892 0.41944 0.80219 0.0
C797 C 0.22445 0.38815 0.78581 0.0
C798 C 0.19925 0.35151 0.79494 0.0
C799 C 0.18785 0.34627 0.81949 0.0
H800 H 0.2646 0.83639 0.83416 0.0
H801 H 0.17278 0.85905 0.81895 0.0
H802 H 0.26793 0.82373 0.79019 0.0
H803 H 0.17549 0.84579 0.77542 0.0
H804 H 0.18074 0.81147 0.6981 0.0
H805 H 0.17011 0.79772 0.7422 0.0
H806 H 0.29024 0.8748 0.7561 0.0
H807 H 0.30076 0.88887 0.71229 0.0
C808 C 0.24421 0.8372 0.82156 0.0
C809 C 0.21856 0.84883 0.82978 0.0
C810 C 0.24624 0.8302 0.79645 0.0
C811 C 0.22204 0.83391 0.7794 0.0
C812 C 0.19423 0.84232 0.7881 0.0
C813 C 0.19278 0.85009 0.813 0.0
C814 C 0.205 0.82467 0.71052 0.0
C815 C 0.24148 0.8516 0.70184 0.0
C816 C 0.1989 0.81685 0.73573 0.0
C817 C 0.22933 0.83525 0.75256 0.0
C818 C 0.26631 0.85989 0.74356 0.0
C819 C 0.27227 0.86822 0.7185 0.0
H820 H 0.73718 0.88933 0.70582 0.0
H821 H 0.62314 0.79568 0.69215 0.0
H822 H 0.7217 0.88979 0.7491 0.0
H823 H 0.60752 0.79575 0.73587 0.0
H824 H 0.68567 0.88935 0.82634 0.0
H825 H 0.68149 0.89729 0.78193 0.0
H826 H 0.6347 0.77609 0.77118 0.0
H827 H 0.63912 0.76828 0.81522 0.0
C828 C 0.70837 0.86957 0.71201 0.0
C829 C 0.6814 0.84233 0.69573 0.0
C830 C 0.69941 0.86996 0.73679 0.0
C831 C 0.66346 0.84265 0.74596 0.0
C832 C 0.63552 0.81705 0.72932 0.0
C833 C 0.64432 0.81714 0.70431 0.0
C834 C 0.67349 0.86433 0.81453 0.0
C835 C 0.66318 0.82829 0.82416 0.0
C836 C 0.67122 0.86888 0.78913 0.0
C837 C 0.65794 0.83734 0.77303 0.0
C838 C 0.64472 0.8009 0.78304 0.0
C839 C 0.64757 0.79648 0.80828 0.0
H840 H 0.32338 1.00177 0.95297 0.0
H841 H 0.20907 0.93087 0.98124 0.0
H842 H 0.33906 0.04474 0.98787 0.0
H843 H 0.22433 0.97484 1.01608 0.0
H844 H 0.27994 0.03666 0.0882 0.0
H845 H 0.26019 0.99542 0.05254 0.0
H846 H 0.32916 0.09259 1.00621 0.0
H847 H 0.35052 0.13429 0.04263 0.0
C848 C 0.30149 0.99535 0.9667 0.0
C849 C 0.26496 0.96271 0.96437 0.0
C850 C 0.31039 1.02039 0.98662 0.0
C851 C 0.28294 1.01379 1.00478 0.0
C852 C 0.24642 0.98079 1.00261 0.0
C853 C 0.23761 0.95542 0.9827 0.0
C854 C 0.29099 0.04957 0.07044 0.0
C855 C 0.31742 0.08896 0.06842 0.0
C856 C 0.27919 0.0257 0.04983 0.0
C857 C 0.29314 0.04034 0.02636 0.0
C858 C 0.31832 0.08008 0.02407 0.0
C859 C 0.33033 0.10416 0.04489 0.0
H860 H 0.76259 0.69931 0.45326 0.0
H861 H 0.87628 0.74277 0.48305 0.0
H862 H 0.74663 0.72855 0.48683 0.0
H863 H 0.86037 0.77295 0.51683 0.0
H864 H 0.8006 0.78211 0.58727 0.0
H865 H 0.82167 0.7584 0.55313 0.0
H866 H 0.75876 0.78912 0.50278 0.0
H867 H 0.73654 0.81209 0.53738 0.0
C868 C 0.78431 0.71513 0.46704 0.0
C869 C 0.8208 0.71856 0.46542 0.0
C870 C 0.7752 0.73235 0.48622 0.0
C871 C 0.80227 0.75368 0.50447 0.0
C872 C 0.83866 0.7566 0.50318 0.0
C873 C 0.84782 0.73922 0.48386 0.0
C874 C 0.79126 0.78407 0.56893 0.0
C875 C 0.76633 0.79865 0.56519 0.0
C876 C 0.80375 0.77069 0.54924 0.0
C877 C 0.79177 0.77143 0.52511 0.0
C878 C 0.76806 0.78743 0.52118 0.0
C879 C 0.75554 0.80095 0.54098 0.0
H880 H 0.07104 0.37027 0.96616 0.0
H881 H 0.11837 0.2983 0.98379 0.0
H882 H 1.02523 0.3424 0.9996 0.0
H883 H 0.07123 0.2687 0.01659 0.0
H884 H 1.00692 0.24836 0.08834 0.0
H885 H 0.05219 0.27565 0.05521 0.0
H886 H 0.96897 0.28898 1.01278 0.0
H887 H 0.92369 0.26317 0.0471 0.0
C888 C 0.07173 0.3485 0.97734 0.0
C889 C 0.09862 0.33676 0.97247 0.0
C890 C 0.04498 0.33203 0.99634 0.0
C891 C 0.04383 0.30278 1.01087 0.0
C892 C 0.0713 0.29148 1.00619 0.0
C893 C 0.09854 0.3085 0.98737 0.0
C894 C 0.99783 0.25679 0.07194 0.0
C895 C 0.96133 0.25347 0.07055 0.0
C896 C 1.02405 0.27236 0.05268 0.0
C897 C 1.0147 0.28475 0.03104 0.0
C898 C 0.97772 0.28049 0.02928 0.0
C899 C 0.95144 0.26526 0.04885 0.0
H900 H 0.38682 0.12803 0.49192 0.0
H901 H 0.30218 0.03946 0.44501 0.0
H902 H 0.36565 0.08266 0.5262 0.0
H903 H 0.2815 0.99469 0.47892 0.0
H904 H 0.27977 0.91471 0.54007 0.0
H905 H 0.30498 0.95989 0.50569 0.0
H906 H 0.30615 0.04767 0.55191 0.0
H907 H 0.28106 1.00314 0.58587 0.0
C908 C 0.36378 0.09906 0.48891 0.0
C909 C 0.34607 0.08765 0.46574 0.0
C910 C 0.35163 0.07305 0.50851 0.0
C911 C 0.32196 0.03496 0.50524 0.0
C912 C 0.30469 1.02358 0.48201 0.0
C913 C 0.3164 0.04955 0.46261 0.0
C914 C 0.28531 0.94359 0.54282 0.0
C915 C 0.27802 0.95503 0.56571 0.0
C916 C 0.29975 0.96949 0.52317 0.0
C917 C 0.30779 1.0075 0.52613 0.0
C918 C 0.3008 1.01886 0.54907 0.0
C919 C 0.28596 0.99301 0.5685 0.0
H920 H 0.73396 0.71532 0.08023 0.0
H921 H 0.82889 0.72356 0.03821 0.0
H922 H 0.71743 0.74353 0.04693 0.0
H923 H 0.81093 0.75041 1.00381 0.0
H924 H 0.79332 0.83238 0.95592 0.0
H925 H 0.81048 0.80498 0.98994 0.0
H926 H 0.69058 0.7352 1.00833 0.0
H927 H 0.67381 0.76416 0.97486 0.0
C928 C 0.7511 0.72259 0.06365 0.0
C929 C 0.78292 0.71703 0.06203 0.0
C930 C 0.7413 0.73868 0.04432 0.0
C931 C 0.76258 0.74939 0.0224 0.0
C932 C 0.79409 0.7432 0.0205 0.0
C933 C 0.80426 0.7274 0.04013 0.0
C934 C 0.77065 0.81161 0.9675 0.0
C935 C 0.73217 0.80071 0.96279 0.0
C936 C 0.78048 0.79541 0.98687 0.0
C937 C 0.75207 0.76737 1.00196 0.0
C938 C 0.71352 0.75705 0.99747 0.0
C939 C 0.70375 0.77372 0.97827 0.0
H940 H 0.07304 0.32681 0.58527 0.0
H941 H 0.15771 0.30743 0.54945 0.0
H942 H 1.03135 0.30097 0.54996 0.0
H943 H 0.11497 0.28042 0.51376 0.0
H944 H 0.04567 0.27644 0.44483 0.0
H945 H 0.08814 0.29744 0.48009 0.0
H946 H 0.99043 0.24311 0.52855 0.0
H947 H 0.94745 0.22276 0.49298 0.0
C948 C 0.08285 0.31687 0.56985 0.0
C949 C 0.11896 0.31927 0.57032 0.0
C950 C 0.05853 0.3016 0.54958 0.0
C951 C 0.0693 0.28798 0.52901 0.0
C952 C 0.1057 0.29079 0.52922 0.0
C953 C 0.13029 0.30631 0.54965 0.0
C954 C 1.03298 0.26866 0.46295 0.0
C955 C 0.99284 0.24807 0.46594 0.0
C956 C 0.05759 0.28056 0.48327 0.0
C957 C 0.04296 0.27228 0.5073 0.0
C958 C 1.00283 0.25065 0.51034 0.0
C959 C 0.97808 0.23871 0.48993 0.0
H960 H 0.65048 0.18883 0.15938 0.0
H961 H 0.61601 0.11705 0.09448 0.0
H962 H 0.58512 0.17744 0.16377 0.0
H963 H 0.55084 0.1046 0.09943 0.0
H964 H 0.45607 0.13542 0.09536 0.0
H965 H 0.5184 0.14013 0.09391 0.0
H966 H 0.51738 0.12961 0.17298 0.0
H967 H 0.45436 0.12542 0.17446 0.0
C968 C 0.62904 0.17052 0.1461 0.0
C969 C 0.63883 0.15402 0.12651 0.0
C970 C 0.59137 0.16357 0.14882 0.0
C971 C 0.56254 0.14015 0.13193 0.0
C972 C 0.57224 0.12313 0.11266 0.0
C973 C 0.60972 0.12999 0.10997 0.0
C974 C 0.46877 0.13363 0.1125 0.0
C975 C 0.45003 0.12994 0.13504 0.0
C976 C 0.50462 0.13616 0.11164 0.0
C977 C 0.52316 0.13525 0.1333 0.0
C978 C 0.50412 0.13073 0.15593 0.0
C979 C 0.46782 0.12787 0.15677 0.0
H980 H 0.70745 0.61264 0.38151 0.0
H981 H 0.76929 0.55391 0.39868 0.0
H982 H 0.64698 0.55134 0.38245 0.0
H983 H 0.70973 0.49362 0.3999 0.0
H984 H 0.60168 0.38504 0.38458 0.0
H985 H 0.6575 0.44657 0.37521 0.0
H986 H 0.60699 0.50396 0.41416 0.0
H987 H 0.55034 0.44234 0.42277 0.0
C988 C 0.70821 0.5867 0.38511 0.0
C989 C 0.74317 0.58824 0.39015 0.0
C990 C 0.6736 0.55164 0.38586 0.0
C991 C 0.67342 0.51746 0.39129 0.0
C992 C 0.70864 0.51912 0.39536 0.0
C993 C 0.7429 0.55391 0.39486 0.0
C994 C 0.60202 0.41073 0.39076 0.0
C995 C 0.57149 0.40853 0.40465 0.0
C996 C 0.63427 0.44609 0.38556 0.0
C997 C 0.63699 0.48031 0.39411 0.0
C998 C 0.60584 0.47827 0.40715 0.0
C999 C 0.57355 0.44284 0.41239 0.0
H1000 H 0.84325 0.3113 0.13765 0.0
H1001 H 0.96636 0.37625 0.12984 0.0
H1002 H 0.83975 0.36892 0.13306 0.0
H1003 H 0.96283 0.43483 0.12577 0.0
H1004 H 0.93293 0.52144 0.09024 0.0
H1005 H 0.94105 0.46636 0.09732 0.0
H1006 H 0.85368 0.4267 0.15346 0.0
H1007 H 0.84418 0.48056 0.14554 0.0
C1008 C 0.86977 0.33798 0.1352 0.0
C1009 C 0.90517 0.33895 0.13413 0.0
C1010 C 0.86772 0.37125 0.13274 0.0
C1011 C 0.90098 0.40674 0.12919 0.0
C1012 C 0.93656 0.40795 0.12828 0.0
C1013 C 0.93864 0.37441 0.13077 0.0
C1014 C 0.91519 0.50081 0.10396 0.0
C1015 C 0.88757 0.50542 0.11711 0.0
C1016 C 0.92028 0.46946 0.10827 0.0
C1017 C 0.89791 0.44183 0.12588 0.0
C1018 C 0.87105 0.44701 0.13948 0.0
C1019 C 0.86589 0.47826 0.13513 0.0
H1020 H 0.52033 0.2058 0.40118 0.0
H1021 H 0.45839 0.08241 0.40337 0.0
H1022 H 0.58002 0.20634 0.40745 0.0
H1023 H 0.51929 0.08322 0.40968 0.0
H1024 H 0.64854 0.11115 0.39635 0.0
H1025 H 0.58529 0.1041 0.3883 0.0
H1026 H 0.60733 0.1898 0.44357 0.0
H1027 H 0.6701 0.19717 0.45135 0.0
C1028 C 0.5193 0.17862 0.40288 0.0
C1029 C 0.4842 0.14399 0.40199 0.0
C1030 C 0.55374 0.17904 0.40659 0.0
C1031 C 0.55441 0.14489 0.40942 0.0
C1032 C 0.51966 0.11003 0.40757 0.0
C1033 C 0.48481 0.10957 0.40401 0.0
C1034 C 0.63977 0.1284 0.40678 0.0
C1035 C 0.66445 0.15473 0.42452 0.0
C1036 C 0.60345 0.12412 0.40231 0.0
C1037 C 0.59139 0.14653 0.4152 0.0
C1038 C 0.61587 0.17234 0.43315 0.0
C1039 C 0.65179 0.17632 0.43777 0.0
H1040 H 0.52623 0.43685 0.10823 0.0
H1041 H 0.57997 0.38629 0.15057 0.0
H1042 H 0.58162 0.50022 0.11563 0.0
H1043 H 0.6348 0.44953 0.15834 0.0
H1044 H 0.74466 0.55771 0.13183 0.0
H1045 H 0.6864 0.49584 0.13165 0.0
H1046 H 0.6199 0.55027 0.14781 0.0
H1047 H 0.67885 0.61287 0.14797 0.0
C1048 C 0.54967 0.43925 0.1193 0.0
C1049 C 0.54866 0.40634 0.12866 0.0
C1050 C 0.58125 0.47564 0.12376 0.0
C1051 C 0.61277 0.47999 0.13749 0.0
C1052 C 0.61118 0.4472 0.14751 0.0
C1053 C 0.57954 0.41092 0.14322 0.0
C1054 C 0.71771 0.55659 0.13564 0.0
C1055 C 0.71643 0.59031 0.13983 0.0
C1056 C 0.68425 0.52099 0.13568 0.0
C1057 C 0.64839 0.518 0.13967 0.0
C1058 C 0.64706 0.55162 0.1445 0.0
C1059 C 0.68082 0.58743 0.14481 0.0
H1060 H 0.96674 0.51854 0.43989 0.0
H1061 H 0.89078 0.47902 0.37707 0.0
H1062 H 0.97743 0.46476 0.43528 0.0
H1063 H 0.90034 0.42401 0.3731 0.0
H1064 H 0.94885 0.34276 0.36248 0.0
H1065 H 0.94713 0.40269 0.36324 0.0
H1066 H 0.93948 0.39721 0.44255 0.0
H1067 H 0.94181 0.33846 0.44181 0.0
C1068 C 0.95254 0.49859 0.42492 0.0
C1069 C 0.92782 0.50325 0.40888 0.0
C1070 C 0.95839 0.46744 0.42244 0.0
C1071 C 0.93958 0.43984 0.40391 0.0
C1072 C 0.91553 0.44486 0.38746 0.0
C1073 C 0.90965 0.47614 0.38995 0.0
C1074 C 0.9475 0.35484 0.38004 0.0
C1075 C 0.94548 0.33583 0.40206 0.0
C1076 C 0.94611 0.38892 0.38048 0.0
C1077 C 0.94313 0.40481 0.40297 0.0
C1078 C 0.94229 0.38622 0.42492 0.0
C1079 C 0.94341 0.35228 0.42447 0.0
H1080 H 0.23807 0.65834 0.64622 0.0
H1081 H 0.12366 0.60121 0.61587 0.0
H1082 H 0.2321 0.59669 0.65543 0.0
H1083 H 0.11821 0.53935 0.62443 0.0
H1084 H 0.11418 0.43176 0.65755 0.0
H1085 H 0.11579 0.49356 0.65697 0.0
H1086 H 0.23119 0.54763 0.62854 0.0
H1087 H 0.22962 0.48697 0.62918 0.0
C1088 C 0.21141 0.63269 0.6418 0.0
C1089 C 0.18151 0.63492 0.63007 0.0
C1090 C 0.2081 0.59725 0.64691 0.0
C1091 C 0.17479 0.56299 0.64048 0.0
C1092 C 0.14418 0.56512 0.62976 0.0
C1093 C 0.14754 0.60064 0.62455 0.0
C1094 C 0.13995 0.45705 0.65153 0.0
C1095 C 0.17162 0.4544 0.64325 0.0
C1096 C 0.14083 0.49233 0.65102 0.0
C1097 C 0.17368 0.52562 0.64273 0.0
C1098 C 0.20561 0.52286 0.63532 0.0
C1099 C 0.20454 0.48785 0.6355 0.0
H1100 H 0.37646 0.9636 0.87334 0.0
H1101 H 0.31619 0.84966 0.90321 0.0
H1102 H 0.43579 0.96013 0.87221 0.0
H1103 H 0.37452 0.84632 0.90223 0.0
H1104 H 0.47583 0.8358 0.882 0.0
H1105 H 0.42009 0.84283 0.87435 0.0
H1106 H 0.48101 0.95791 0.90313 0.0
H1107 H 0.53736 0.95136 0.91008 0.0
C1108 C 0.37577 0.93778 0.87938 0.0
C1109 C 0.34171 0.90709 0.88856 0.0
C1110 C 0.40971 0.93584 0.87889 0.0
C1111 C 0.40993 0.90289 0.8871 0.0
C1112 C 0.37545 0.87193 0.89547 0.0
C1113 C 0.34198 0.87404 0.89625 0.0
C1114 C 0.47772 0.86291 0.88624 0.0
C1115 C 0.51108 0.89285 0.89691 0.0
C1116 C 0.44559 0.86684 0.88204 0.0
C1117 C 0.44589 0.90083 0.88834 0.0
C1118 C 0.47981 0.93142 0.89794 0.0
C1119 C 0.51196 0.92745 0.90222 0.0
H1120 H 0.63487 0.69498 0.66575 0.0
H1121 H 0.60802 0.72248 0.59443 0.0
H1122 H 0.57104 0.63725 0.66683 0.0
H1123 H 0.54525 0.66598 0.59577 0.0
H1124 H 0.42205 0.59057 0.61774 0.0
H1125 H 0.486 0.64604 0.62183 0.0
H1126 H 0.53085 0.57277 0.64192 0.0
H1127 H 0.46645 0.5169 0.63807 0.0
C1128 C 0.61564 0.68871 0.65031 0.0
C1129 C 0.62672 0.71354 0.63006 0.0
C1130 C 0.57915 0.6557 0.65093 0.0
C1131 C 0.55297 0.6474 0.63151 0.0
C1132 C 0.56446 0.67188 0.6112 0.0
C1133 C 0.60074 0.70427 0.61041 0.0
C1134 C 0.44533 0.58622 0.62345 0.0
C1135 C 0.43908 0.5492 0.62745 0.0
C1136 C 0.48205 0.61801 0.62562 0.0
C1137 C 0.51351 0.61374 0.63202 0.0
C1138 C 0.50715 0.57695 0.63705 0.0
C1139 C 0.47035 0.54498 0.63461 0.0
H1140 H 0.23124 0.67056 0.89136 0.0
H1141 H 0.11611 0.61697 0.92026 0.0
H1142 H 0.2239 0.60787 0.88332 0.0
H1143 H 0.1093 0.5542 0.91302 0.0
H1144 H 0.10045 0.44411 0.88216 0.0
H1145 H 0.10512 0.50709 0.88207 0.0
H1146 H 0.22115 0.55821 0.90927 0.0
H1147 H 0.21674 0.49621 0.90904 0.0
C1148 C 0.20419 0.64545 0.89577 0.0
C1149 C 0.17441 0.64897 0.90667 0.0
C1150 C 0.2001 0.60943 0.89136 0.0
C1151 C 0.1661 0.57589 0.89771 0.0
C1152 C 0.13578 0.57934 0.90775 0.0
C1153 C 0.1399 0.6154 0.91221 0.0
C1154 C 0.12707 0.46894 0.88776 0.0
C1155 C 0.15809 0.46501 0.89576 0.0
C1156 C 0.12968 0.50497 0.88789 0.0
C1157 C 0.16353 0.53779 0.8957 0.0
C1158 C 0.19482 0.53379 0.90285 0.0
C1159 C 0.19212 0.49801 0.90292 0.0
H1160 H 0.39459 0.96095 0.6245 0.0
H1161 H 0.33462 0.83903 0.63648 0.0
H1162 H 0.4544 0.95963 0.61824 0.0
H1163 H 0.3936 0.83795 0.63032 0.0
H1164 H 0.48894 0.83997 0.58498 0.0
H1165 H 0.43354 0.84712 0.59335 0.0
H1166 H 0.50262 0.94456 0.63993 0.0
H1167 H 0.55878 0.93768 0.63122 0.0
C1168 C 0.39416 0.93404 0.62608 0.0
C1169 C 0.35958 0.90007 0.63071 0.0
C1170 C 0.42841 0.9333 0.62254 0.0
C1171 C 0.42861 0.89856 0.6234 0.0
C1172 C 0.39433 0.86504 0.62901 0.0
C1173 C 0.36043 0.86578 0.63264 0.0
C1174 C 0.49258 0.86324 0.59678 0.0
C1175 C 0.5284 0.8883 0.60736 0.0
C1176 C 0.46067 0.86712 0.60178 0.0
C1177 C 0.46357 0.89627 0.61744 0.0
C1178 C 0.4995 0.92191 0.62772 0.0
C1179 C 0.53154 0.91776 0.62289 0.0
H1180 H 0.62014 0.6794 0.90221 0.0
H1181 H 0.5609 0.74299 0.89333 0.0
H1182 H 0.55832 0.6205 0.90658 0.0
H1183 H 0.50004 0.68506 0.89827 0.0
H1184 H 0.39339 0.57261 0.88695 0.0
H1185 H 0.45647 0.62671 0.87858 0.0
H1186 H 0.50518 0.58908 0.9351 0.0
H1187 H 0.44228 0.53366 0.94259 0.0
C1188 C 0.59407 0.68086 0.9011 0.0
C1189 C 0.59567 0.71604 0.89737 0.0
C1190 C 0.55862 0.64714 0.90377 0.0
C1191 C 0.52402 0.64788 0.9027 0.0
C1192 C 0.52585 0.68307 0.89874 0.0
C1193 C 0.56103 0.71654 0.89608 0.0
C1194 C 0.41756 0.57539 0.89735 0.0
C1195 C 0.41245 0.54868 0.91557 0.0
C1196 C 0.45381 0.60679 0.89274 0.0
C1197 C 0.48605 0.61262 0.90631 0.0
C1198 C 0.48116 0.58547 0.92415 0.0
C1199 C 0.44487 0.55393 0.92871 0.0
loop_
_geom_bond_atom_site_label_1
_geom_bond_atom_site_label_2
_geom_bond_distance
_geom_bond_site_symmetry_2
_ccdc_geom_bond_type
Tb0 C10 2.825 . S
Tb0 O11 2.347 . S
Tb0 O14 2.366 . S
Tb0 O19 2.418 . S
Tb0 O20 2.384 . S
Tb0 O23 2.479 . S
Tb0 O24 2.471 . S
Eu1 O12 2.418 . S
Eu1 O13 2.384 . S
Eu1 O16 2.479 . S
Eu1 O17 2.471 . S
Eu1 O18 2.347 . S
Eu1 O21 2.366 . S
Eu1 C31 2.825 . S
C2 O18 1.259 . S
C2 O19 1.265 . S
C3 O20 1.255 . S
C3 O21 1.265 . S
C4 C6 1.380 . S
C4 C7 1.374 . S
C4 C10 1.507 . S
C5 C6 1.384 . S
C5 C9 1.387 . S
C5 H32 0.930 . S
C6 C4 1.380 . S
C6 C5 1.384 . S
C6 H33 0.931 . S
C7 C4 1.374 . S
C7 C8 1.390 . S
C7 H34 0.930 . S
C8 C7 1.390 . S
C8 C9 1.391 . S
C8 H35 0.930 . S
C9 C5 1.387 . S
C9 C8 1.391 . S
C10 Tb0 2.825 . S
C10 C4 1.507 . S
C10 O23 1.238 . S
C10 O24 1.247 . S
O11 Tb0 2.347 . S
O11 C15 1.259 . S
O12 Eu1 2.418 . S
O12 C15 1.265 . S
O13 Eu1 2.384 . S
O13 C22 1.255 . S
O14 Tb0 2.366 . S
O14 C22 1.265 . S
C15 O11 1.259 . S
C15 O12 1.265 . S
O16 Eu1 2.479 . S
O16 C31 1.238 . S
O17 Eu1 2.471 . S
O17 C31 1.247 . S
O18 Eu1 2.347 . S
O18 C2 1.259 . S
O19 Tb0 2.418 . S
O19 C2 1.265 . S
O20 Tb0 2.384 . S
O20 C3 1.255 . S
O21 Eu1 2.366 . S
O21 C3 1.265 . S
C22 O13 1.255 . S
C22 O14 1.265 . S
O23 Tb0 2.479 . S
O23 C10 1.238 . S
O24 Tb0 2.471 . S
O24 C10 1.247 . S
C25 C28 1.380 . S
C25 C29 1.374 . S
C25 C31 1.507 1_565 S
C26 C27 1.387 . S
C26 C30 1.391 . S
C27 C26 1.387 . S
C27 C28 1.384 . S
C27 H36 0.930 . S
C28 C25 1.380 . S
C28 C27 1.384 . S
C28 H37 0.931 . S
C29 C25 1.374 . S
C29 C30 1.390 . S
C29 H38 0.930 1_565 S
C30 C26 1.391 . S
C30 C29 1.390 . S
C30 H39 0.930 . S
C31 Eu1 2.825 . S
C31 O16 1.238 . S
C31 O17 1.247 . S
C31 C25 1.507 1_545 S
H32 C5 0.930 . S
H33 C6 0.931 . S
H34 C7 0.930 . S
H35 C8 0.930 . S
H36 C27 0.930 . S
H37 C28 0.931 . S
H38 C29 0.930 1_545 S
H39 C30 0.930 . S
Tb40 C50 2.825 . S
Tb40 O51 2.347 . S
Tb40 O54 2.366 . S
Tb40 O59 2.418 . S
Tb40 O60 2.384 . S
Tb40 O63 2.479 . S
Tb40 O64 2.471 . S
Eu41 O52 2.418 . S
Eu41 O53 2.384 . S
Eu41 O56 2.479 . S
Eu41 O57 2.471 . S
Eu41 O58 2.347 . S
Eu41 O61 2.366 . S
Eu41 C71 2.825 . S
C42 O58 1.259 . S
C42 O59 1.265 . S
C43 O60 1.255 . S
C43 O61 1.265 . S
C44 C46 1.380 . S
C44 C47 1.374 . S
C44 C50 1.507 . S
C45 C46 1.384 . S
C45 C49 1.387 . S
C45 H72 0.930 . S
C46 C44 1.380 . S
C46 C45 1.384 . S
C46 H73 0.931 . S
C47 C44 1.374 . S
C47 C48 1.390 . S
C47 H74 0.930 . S
C48 C47 1.390 . S
C48 C49 1.391 . S
C48 H75 0.930 . S
C49 C45 1.387 . S
C49 C48 1.391 . S
C50 Tb40 2.825 . S
C50 C44 1.507 . S
C50 O63 1.238 . S
C50 O64 1.247 . S
O51 Tb40 2.347 . S
O51 C55 1.259 . S
O52 Eu41 2.418 . S
O52 C55 1.265 . S
O53 Eu41 2.384 . S
O53 C62 1.255 . S
O54 Tb40 2.366 . S
O54 C62 1.265 . S
C55 O51 1.259 . S
C55 O52 1.265 . S
O56 Eu41 2.479 . S
O56 C71 1.238 . S
O57 Eu41 2.471 . S
O57 C71 1.247 . S
O58 Eu41 2.347 . S
O58 C42 1.259 . S
O59 Tb40 2.418 . S
O59 C42 1.265 . S
O60 Tb40 2.384 . S
O60 C43 1.255 . S
O61 Eu41 2.366 . S
O61 C43 1.265 . S
C62 O53 1.255 . S
C62 O54 1.265 . S
O63 Tb40 2.479 . S
O63 C50 1.238 . S
O64 Tb40 2.471 . S
O64 C50 1.247 . S
C65 C68 1.380 . S
C65 C69 1.374 . S
C65 C71 1.507 . S
C66 C67 1.387 . S
C66 C70 1.391 . S
C67 C66 1.387 . S
C67 C68 1.384 . S
C67 H76 0.930 . S
C68 C65 1.380 . S
C68 C67 1.384 . S
C68 H77 0.931 . S
C69 C65 1.374 . S
C69 C70 1.390 . S
C69 H78 0.930 . S
C70 C66 1.391 . S
C70 C69 1.390 . S
C70 H79 0.930 . S
C71 Eu41 2.825 . S
C71 O56 1.238 . S
C71 O57 1.247 . S
C71 C65 1.507 . S
H72 C45 0.930 . S
H73 C46 0.931 . S
H74 C47 0.930 . S
H75 C48 0.930 . S
H76 C67 0.930 . S
H77 C68 0.931 . S
H78 C69 0.930 . S
H79 C70 0.930 . S
Tb80 C90 2.825 . S
Tb80 O91 2.347 . S
Tb80 O94 2.366 . S
Tb80 O99 2.418 . S
Tb80 O100 2.384 . S
Tb80 O103 2.479 . S
Tb80 O104 2.471 . S
Eu81 O92 2.418 . S
Eu81 O93 2.384 . S
Eu81 O96 2.479 . S
Eu81 O97 2.471 . S
Eu81 O98 2.347 . S
Eu81 O101 2.366 . S
Eu81 C111 2.825 . S
C82 O98 1.259 . S
C82 O99 1.265 . S
C83 O100 1.255 . S
C83 O101 1.265 . S
C84 C86 1.380 . S
C84 C87 1.374 . S
C84 C90 1.507 . S
C85 C86 1.384 . S
C85 C89 1.387 . S
C85 H112 0.930 . S
C86 C84 1.380 . S
C86 C85 1.384 . S
C86 H113 0.931 . S
C87 C84 1.374 . S
C87 C88 1.390 . S
C87 H114 0.930 . S
C88 C87 1.390 . S
C88 C89 1.391 . S
C88 H115 0.930 . S
C89 C85 1.387 . S
C89 C88 1.391 . S
C90 Tb80 2.825 . S
C90 C84 1.507 . S
C90 O103 1.238 . S
C90 O104 1.247 . S
O91 Tb80 2.347 . S
O91 C95 1.259 . S
O92 Eu81 2.418 . S
O92 C95 1.265 . S
O93 Eu81 2.384 . S
O93 C102 1.255 . S
O94 Tb80 2.366 . S
O94 C102 1.265 . S
C95 O91 1.259 . S
C95 O92 1.265 . S
O96 Eu81 2.479 . S
O96 C111 1.238 . S
O97 Eu81 2.471 . S
O97 C111 1.247 . S
O98 Eu81 2.347 . S
O98 C82 1.259 . S
O99 Tb80 2.418 . S
O99 C82 1.265 . S
O100 Tb80 2.384 . S
O100 C83 1.255 . S
O101 Eu81 2.366 . S
O101 C83 1.265 . S
C102 O93 1.255 . S
C102 O94 1.265 . S
O103 Tb80 2.479 . S
O103 C90 1.238 . S
O104 Tb80 2.471 . S
O104 C90 1.247 . S
C105 C108 1.380 . S
C105 C109 1.374 . S
C105 C111 1.507 1_455 S
C106 C107 1.387 . S
C106 C110 1.391 . S
C107 C106 1.387 . S
C107 C108 1.384 . S
C107 H116 0.930 . S
C108 C105 1.380 . S
C108 C107 1.384 . S
C108 H117 0.931 . S
C109 C105 1.374 . S
C109 C110 1.390 . S
C109 H118 0.930 1_455 S
C110 C106 1.391 . S
C110 C109 1.390 . S
C110 H119 0.930 . S
C111 Eu81 2.825 . S
C111 O96 1.238 . S
C111 O97 1.247 . S
C111 C105 1.507 1_655 S
H112 C85 0.930 . S
H113 C86 0.931 . S
H114 C87 0.930 . S
H115 C88 0.930 . S
H116 C107 0.930 . S
H117 C108 0.931 . S
H118 C109 0.930 1_655 S
H119 C110 0.930 . S
Tb120 C130 2.825 . S
Tb120 O131 2.347 . S
Tb120 O134 2.366 . S
Tb120 O139 2.418 . S
Tb120 O140 2.384 . S
Tb120 O143 2.479 . S
Tb120 O144 2.471 . S
Eu121 O132 2.418 . S
Eu121 O133 2.384 . S
Eu121 O136 2.479 . S
Eu121 O137 2.471 . S
Eu121 O138 2.347 . S
Eu121 O141 2.366 . S
Eu121 C151 2.825 . S
C122 O138 1.259 . S
C122 O139 1.265 . S
C123 O140 1.255 . S
C123 O141 1.265 . S
C124 C126 1.380 . S
C124 C127 1.374 . S
C124 C130 1.507 1_565 S
C125 C126 1.384 . S
C125 C129 1.387 . S
C125 H152 0.930 . S
C126 C124 1.380 . S
C126 C125 1.384 . S
C126 H153 0.931 . S
C127 C124 1.374 . S
C127 C128 1.390 . S
C127 H154 0.930 1_565 S
C128 C127 1.390 . S
C128 C129 1.391 . S
C128 H155 0.930 . S
C129 C125 1.387 . S
C129 C128 1.391 . S
C130 Tb120 2.825 . S
C130 C124 1.507 1_545 S
C130 O143 1.238 . S
C130 O144 1.247 . S
O131 Tb120 2.347 . S
O131 C135 1.259 . S
O132 Eu121 2.418 . S
O132 C135 1.265 . S
O133 Eu121 2.384 . S
O133 C142 1.255 . S
O134 Tb120 2.366 . S
O134 C142 1.265 . S
C135 O131 1.259 . S
C135 O132 1.265 . S
O136 Eu121 2.479 . S
O136 C151 1.238 . S
O137 Eu121 2.471 . S
O137 C151 1.247 . S
O138 Eu121 2.347 . S
O138 C122 1.259 . S
O139 Tb120 2.418 . S
O139 C122 1.265 . S
O140 Tb120 2.384 . S
O140 C123 1.255 . S
O141 Eu121 2.366 . S
O141 C123 1.265 . S
C142 O133 1.255 . S
C142 O134 1.265 . S
O143 Tb120 2.479 . S
O143 C130 1.238 . S
O144 Tb120 2.471 . S
O144 C130 1.247 . S
C145 C148 1.380 . S
C145 C149 1.374 . S
C145 C151 1.507 . S
C146 C147 1.387 . S
C146 C150 1.391 . S
C147 C146 1.387 . S
C147 C148 1.384 . S
C147 H156 0.930 . S
C148 C145 1.380 . S
C148 C147 1.384 . S
C148 H157 0.931 . S
C149 C145 1.374 . S
C149 C150 1.390 . S
C149 H158 0.930 . S
C150 C146 1.391 . S
C150 C149 1.390 . S
C150 H159 0.930 . S
C151 Eu121 2.825 . S
C151 O136 1.238 . S
C151 O137 1.247 . S
C151 C145 1.507 . S
H152 C125 0.930 . S
H153 C126 0.931 . S
H154 C127 0.930 1_545 S
H155 C128 0.930 . S
H156 C147 0.930 . S
H157 C148 0.931 . S
H158 C149 0.930 . S
H159 C150 0.930 . S
Tb160 C170 2.825 . S
Tb160 O171 2.347 . S
Tb160 O174 2.366 . S
Tb160 O179 2.418 . S
Tb160 O180 2.384 . S
Tb160 O183 2.479 . S
Tb160 O184 2.471 . S
Eu161 O172 2.418 . S
Eu161 O173 2.384 . S
Eu161 O176 2.479 . S
Eu161 O177 2.471 . S
Eu161 O178 2.347 . S
Eu161 O181 2.366 . S
Eu161 C191 2.825 . S
C162 O178 1.259 . S
C162 O179 1.265 . S
C163 O180 1.255 . S
C163 O181 1.265 . S
C164 C166 1.380 . S
C164 C167 1.374 . S
C164 C170 1.507 . S
C165 C166 1.384 . S
C165 C169 1.387 . S
C165 H192 0.930 . S
C166 C164 1.380 . S
C166 C165 1.384 . S
C166 H193 0.931 . S
C167 C164 1.374 . S
C167 C168 1.390 . S
C167 H194 0.930 . S
C168 C167 1.390 . S
C168 C169 1.391 . S
C168 H195 0.930 . S
C169 C165 1.387 . S
C169 C168 1.391 . S
C170 Tb160 2.825 . S
C170 C164 1.507 . S
C170 O183 1.238 . S
C170 O184 1.247 . S
O171 Tb160 2.347 . S
O171 C175 1.259 . S
O172 Eu161 2.418 . S
O172 C175 1.265 . S
O173 Eu161 2.384 . S
O173 C182 1.255 . S
O174 Tb160 2.366 . S
O174 C182 1.265 . S
C175 O171 1.259 . S
C175 O172 1.265 . S
O176 Eu161 2.479 . S
O176 C191 1.238 . S
O177 Eu161 2.471 . S
O177 C191 1.247 . S
O178 Eu161 2.347 . S
O178 C162 1.259 . S
O179 Tb160 2.418 . S
O179 C162 1.265 . S
O180 Tb160 2.384 . S
O180 C163 1.255 . S
O181 Eu161 2.366 . S
O181 C163 1.265 . S
C182 O173 1.255 . S
C182 O174 1.265 . S
O183 Tb160 2.479 . S
O183 C170 1.238 . S
O184 Tb160 2.471 . S
O184 C170 1.247 . S
C185 C188 1.380 . S
C185 C189 1.374 . S
C185 C191 1.507 . S
C186 C187 1.387 . S
C186 C190 1.391 . S
C187 C186 1.387 . S
C187 C188 1.384 . S
C187 H196 0.930 . S
C188 C185 1.380 . S
C188 C187 1.384 . S
C188 H197 0.931 . S
C189 C185 1.374 . S
C189 C190 1.390 . S
C189 H198 0.930 . S
C190 C186 1.391 . S
C190 C189 1.390 . S
C190 H199 0.930 . S
C191 Eu161 2.825 . S
C191 O176 1.238 . S
C191 O177 1.247 . S
C191 C185 1.507 . S
H192 C165 0.930 . S
H193 C166 0.931 . S
H194 C167 0.930 . S
H195 C168 0.930 . S
H196 C187 0.930 . S
H197 C188 0.931 . S
H198 C189 0.930 . S
H199 C190 0.930 . S
Tb200 C210 2.825 . S
Tb200 O211 2.347 . S
Tb200 O214 2.366 . S
Tb200 O219 2.418 . S
Tb200 O220 2.384 . S
Tb200 O223 2.479 . S
Tb200 O224 2.471 . S
Eu201 O212 2.418 . S
Eu201 O213 2.384 . S
Eu201 O216 2.479 . S
Eu201 O217 2.471 . S
Eu201 O218 2.347 . S
Eu201 O221 2.366 . S
Eu201 C231 2.825 . S
C202 O218 1.259 . S
C202 O219 1.265 . S
C203 O220 1.255 . S
C203 O221 1.265 . S
C204 C206 1.380 . S
C204 C207 1.374 . S
C204 C210 1.507 1_455 S
C205 C206 1.384 . S
C205 C209 1.387 . S
C205 H232 0.930 . S
C206 C204 1.380 . S
C206 C205 1.384 . S
C206 H233 0.931 . S
C207 C204 1.374 . S
C207 C208 1.390 . S
C207 H234 0.930 1_455 S
C208 C207 1.390 . S
C208 C209 1.391 . S
C208 H235 0.930 . S
C209 C205 1.387 . S
C209 C208 1.391 . S
C210 Tb200 2.825 . S
C210 C204 1.507 1_655 S
C210 O223 1.238 . S
C210 O224 1.247 . S
O211 Tb200 2.347 . S
O211 C215 1.259 . S
O212 Eu201 2.418 . S
O212 C215 1.265 . S
O213 Eu201 2.384 . S
O213 C222 1.255 . S
O214 Tb200 2.366 . S
O214 C222 1.265 . S
C215 O211 1.259 . S
C215 O212 1.265 . S
O216 Eu201 2.479 . S
O216 C231 1.238 . S
O217 Eu201 2.471 . S
O217 C231 1.247 . S
O218 Eu201 2.347 . S
O218 C202 1.259 . S
O219 Tb200 2.418 . S
O219 C202 1.265 . S
O220 Tb200 2.384 . S
O220 C203 1.255 . S
O221 Eu201 2.366 . S
O221 C203 1.265 . S
C222 O213 1.255 . S
C222 O214 1.265 . S
O223 Tb200 2.479 . S
O223 C210 1.238 . S
O224 Tb200 2.471 . S
O224 C210 1.247 . S
C225 C228 1.380 . S
C225 C229 1.374 . S
C225 C231 1.507 . S
C226 C227 1.387 . S
C226 C230 1.391 . S
C227 C226 1.387 . S
C227 C228 1.384 . S
C227 H236 0.930 . S
C228 C225 1.380 . S
C228 C227 1.384 . S
C228 H237 0.931 . S
C229 C225 1.374 . S
C229 C230 1.390 . S
C229 H238 0.930 . S
C230 C226 1.391 . S
C230 C229 1.390 . S
C230 H239 0.930 . S
C231 Eu201 2.825 . S
C231 O216 1.238 . S
C231 O217 1.247 . S
C231 C225 1.507 . S
H232 C205 0.930 . S
H233 C206 0.931 . S
H234 C207 0.930 1_655 S
H235 C208 0.930 . S
H236 C227 0.930 . S
H237 C228 0.931 . S
H238 C229 0.930 . S
H239 C230 0.930 . S
Tb240 C250 2.825 . S
Tb240 O251 2.347 . S
Tb240 O254 2.366 . S
Tb240 O259 2.418 . S
Tb240 O260 2.384 . S
Tb240 O263 2.479 . S
Tb240 O264 2.471 . S
Eu241 O252 2.418 . S
Eu241 O253 2.384 . S
Eu241 O256 2.479 . S
Eu241 O257 2.471 . S
Eu241 O258 2.347 . S
Eu241 O261 2.366 . S
Eu241 C271 2.825 . S
C242 O258 1.259 . S
C242 O259 1.265 . S
C243 O260 1.255 . S
C243 O261 1.265 . S
C244 C246 1.380 . S
C244 C247 1.374 . S
C244 C250 1.507 1_655 S
C245 C246 1.384 . S
C245 C249 1.387 . S
C245 H272 0.930 . S
C246 C244 1.380 . S
C246 C245 1.384 . S
C246 H273 0.931 . S
C247 C244 1.374 . S
C247 C248 1.390 . S
C247 H274 0.930 1_655 S
C248 C247 1.390 . S
C248 C249 1.391 . S
C248 H275 0.930 . S
C249 C245 1.387 . S
C249 C248 1.391 . S
C250 Tb240 2.825 . S
C250 C244 1.507 1_455 S
C250 O263 1.238 . S
C250 O264 1.247 . S
O251 Tb240 2.347 . S
O251 C255 1.259 . S
O252 Eu241 2.418 . S
O252 C255 1.265 . S
O253 Eu241 2.384 . S
O253 C262 1.255 . S
O254 Tb240 2.366 . S
O254 C262 1.265 . S
C255 O251 1.259 . S
C255 O252 1.265 . S
O256 Eu241 2.479 . S
O256 C271 1.238 . S
O257 Eu241 2.471 . S
O257 C271 1.247 . S
O258 Eu241 2.347 . S
O258 C242 1.259 . S
O259 Tb240 2.418 . S
O259 C242 1.265 . S
O260 Tb240 2.384 . S
O260 C243 1.255 . S
O261 Eu241 2.366 . S
O261 C243 1.265 . S
C262 O253 1.255 . S
C262 O254 1.265 . S
O263 Tb240 2.479 . S
O263 C250 1.238 . S
O264 Tb240 2.471 . S
O264 C250 1.247 . S
C265 C268 1.380 . S
C265 C269 1.374 . S
C265 C271 1.507 . S
C266 C267 1.387 . S
C266 C270 1.391 . S
C267 C266 1.387 . S
C267 C268 1.384 . S
C267 H276 0.930 . S
C268 C265 1.380 . S
C268 C267 1.384 . S
C268 H277 0.931 . S
C269 C265 1.374 . S
C269 C270 1.390 . S
C269 H278 0.930 . S
C270 C266 1.391 . S
C270 C269 1.390 . S
C270 H279 0.930 . S
C271 Eu241 2.825 . S
C271 O256 1.238 . S
C271 O257 1.247 . S
C271 C265 1.507 . S
H272 C245 0.930 . S
H273 C246 0.931 . S
H274 C247 0.930 1_455 S
H275 C248 0.930 . S
H276 C267 0.930 . S
H277 C268 0.931 . S
H278 C269 0.930 . S
H279 C270 0.930 . S
Tb280 C290 2.825 . S
Tb280 O291 2.347 . S
Tb280 O294 2.366 . S
Tb280 O299 2.418 . S
Tb280 O300 2.384 . S
Tb280 O303 2.479 . S
Tb280 O304 2.471 . S
Eu281 O292 2.418 . S
Eu281 O293 2.384 . S
Eu281 O296 2.479 . S
Eu281 O297 2.471 . S
Eu281 O298 2.347 . S
Eu281 O301 2.366 . S
Eu281 C311 2.825 . S
C282 O298 1.259 . S
C282 O299 1.265 . S
C283 O300 1.255 . S
C283 O301 1.265 . S
C284 C286 1.380 . S
C284 C287 1.374 . S
C284 C290 1.507 . S
C285 C286 1.384 . S
C285 C289 1.387 . S
C285 H312 0.930 . S
C286 C284 1.380 . S
C286 C285 1.384 . S
C286 H313 0.931 . S
C287 C284 1.374 . S
C287 C288 1.390 . S
C287 H314 0.930 . S
C288 C287 1.390 . S
C288 C289 1.391 . S
C288 H315 0.930 . S
C289 C285 1.387 . S
C289 C288 1.391 . S
C290 Tb280 2.825 . S
C290 C284 1.507 . S
C290 O303 1.238 . S
C290 O304 1.247 . S
O291 Tb280 2.347 . S
O291 C295 1.259 . S
O292 Eu281 2.418 . S
O292 C295 1.265 . S
O293 Eu281 2.384 . S
O293 C302 1.255 . S
O294 Tb280 2.366 . S
O294 C302 1.265 . S
C295 O291 1.259 . S
C295 O292 1.265 . S
O296 Eu281 2.479 . S
O296 C311 1.238 . S
O297 Eu281 2.471 . S
O297 C311 1.247 . S
O298 Eu281 2.347 . S
O298 C282 1.259 . S
O299 Tb280 2.418 . S
O299 C282 1.265 . S
O300 Tb280 2.384 . S
O300 C283 1.255 . S
O301 Eu281 2.366 . S
O301 C283 1.265 . S
C302 O293 1.255 . S
C302 O294 1.265 . S
O303 Tb280 2.479 . S
O303 C290 1.238 . S
O304 Tb280 2.471 . S
O304 C290 1.247 . S
C305 C308 1.380 . S
C305 C309 1.374 . S
C305 C311 1.507 1_545 S
C306 C307 1.387 . S
C306 C310 1.391 . S
C307 C306 1.387 . S
C307 C308 1.384 . S
C307 H316 0.930 . S
C308 C305 1.380 . S
C308 C307 1.384 . S
C308 H317 0.931 . S
C309 C305 1.374 . S
C309 C310 1.390 . S
C309 H318 0.930 1_545 S
C310 C306 1.391 . S
C310 C309 1.390 . S
C310 H319 0.930 . S
C311 Eu281 2.825 . S
C311 O296 1.238 . S
C311 O297 1.247 . S
C311 C305 1.507 1_565 S
H312 C285 0.930 . S
H313 C286 0.931 . S
H314 C287 0.930 . S
H315 C288 0.930 . S
H316 C307 0.930 . S
H317 C308 0.931 . S
H318 C309 0.930 1_565 S
H319 C310 0.930 . S
Tb320 C330 2.825 . S
Tb320 O331 2.347 . S
Tb320 O334 2.366 . S
Tb320 O339 2.418 . S
Tb320 O340 2.384 . S
Tb320 O343 2.479 . S
Tb320 O344 2.471 . S
Eu321 O332 2.418 . S
Eu321 O333 2.384 . S
Eu321 O336 2.479 . S
Eu321 O337 2.471 . S
Eu321 O338 2.347 . S
Eu321 O341 2.366 . S
Eu321 C351 2.825 . S
C322 O338 1.259 . S
C322 O339 1.265 . S
C323 O340 1.255 . S
C323 O341 1.265 . S
C324 C326 1.380 . S
C324 C327 1.374 . S
C324 C330 1.507 . S
C325 C326 1.384 . S
C325 C329 1.387 . S
C325 H352 0.930 . S
C326 C324 1.380 . S
C326 C325 1.384 . S
C326 H353 0.931 . S
C327 C324 1.374 . S
C327 C328 1.390 . S
C327 H354 0.930 . S
C328 C327 1.390 . S
C328 C329 1.391 . S
C328 H355 0.930 . S
C329 C325 1.387 . S
C329 C328 1.391 . S
C330 Tb320 2.825 . S
C330 C324 1.507 . S
C330 O343 1.238 . S
C330 O344 1.247 . S
O331 Tb320 2.347 . S
O331 C335 1.259 . S
O332 Eu321 2.418 . S
O332 C335 1.265 . S
O333 Eu321 2.384 . S
O333 C342 1.255 . S
O334 Tb320 2.366 . S
O334 C342 1.265 . S
C335 O331 1.259 . S
C335 O332 1.265 . S
O336 Eu321 2.479 . S
O336 C351 1.238 . S
O337 Eu321 2.471 . S
O337 C351 1.247 . S
O338 Eu321 2.347 . S
O338 C322 1.259 . S
O339 Tb320 2.418 . S
O339 C322 1.265 . S
O340 Tb320 2.384 . S
O340 C323 1.255 . S
O341 Eu321 2.366 . S
O341 C323 1.265 . S
C342 O333 1.255 . S
C342 O334 1.265 . S
O343 Tb320 2.479 . S
O343 C330 1.238 . S
O344 Tb320 2.471 . S
O344 C330 1.247 . S
C345 C348 1.380 . S
C345 C349 1.374 . S
C345 C351 1.507 . S
C346 C347 1.387 . S
C346 C350 1.391 . S
C347 C346 1.387 . S
C347 C348 1.384 . S
C347 H356 0.930 . S
C348 C345 1.380 . S
C348 C347 1.384 . S
C348 H357 0.931 . S
C349 C345 1.374 . S
C349 C350 1.390 . S
C349 H358 0.930 . S
C350 C346 1.391 . S
C350 C349 1.390 . S
C350 H359 0.930 . S
C351 Eu321 2.825 . S
C351 O336 1.238 . S
C351 O337 1.247 . S
C351 C345 1.507 . S
H352 C325 0.930 . S
H353 C326 0.931 . S
H354 C327 0.930 . S
H355 C328 0.930 . S
H356 C347 0.930 . S
H357 C348 0.931 . S
H358 C349 0.930 . S
H359 C350 0.930 . S
Tb360 C370 2.825 . S
Tb360 O371 2.347 . S
Tb360 O374 2.366 . S
Tb360 O379 2.418 . S
Tb360 O380 2.384 . S
Tb360 O383 2.479 . S
Tb360 O384 2.471 . S
Eu361 O372 2.418 . S
Eu361 O373 2.384 . S
Eu361 O376 2.479 . S
Eu361 O377 2.471 . S
Eu361 O378 2.347 . S
Eu361 O381 2.366 . S
Eu361 C391 2.825 . S
C362 O378 1.259 . S
C362 O379 1.265 . S
C363 O380 1.255 . S
C363 O381 1.265 . S
C364 C366 1.380 . S
C364 C367 1.374 . S
C364 C370 1.507 . S
C365 C366 1.384 . S
C365 C369 1.387 . S
C365 H392 0.930 . S
C366 C364 1.380 . S
C366 C365 1.384 . S
C366 H393 0.931 . S
C367 C364 1.374 . S
C367 C368 1.390 . S
C367 H394 0.930 . S
C368 C367 1.390 . S
C368 C369 1.391 . S
C368 H395 0.930 . S
C369 C365 1.387 . S
C369 C368 1.391 . S
C370 Tb360 2.825 . S
C370 C364 1.507 . S
C370 O383 1.238 . S
C370 O384 1.247 . S
O371 Tb360 2.347 . S
O371 C375 1.259 . S
O372 Eu361 2.418 . S
O372 C375 1.265 . S
O373 Eu361 2.384 . S
O373 C382 1.255 . S
O374 Tb360 2.366 . S
O374 C382 1.265 . S
C375 O371 1.259 . S
C375 O372 1.265 . S
O376 Eu361 2.479 . S
O376 C391 1.238 . S
O377 Eu361 2.471 . S
O377 C391 1.247 . S
O378 Eu361 2.347 . S
O378 C362 1.259 . S
O379 Tb360 2.418 . S
O379 C362 1.265 . S
O380 Tb360 2.384 . S
O380 C363 1.255 . S
O381 Eu361 2.366 . S
O381 C363 1.265 . S
C382 O373 1.255 . S
C382 O374 1.265 . S
O383 Tb360 2.479 . S
O383 C370 1.238 . S
O384 Tb360 2.471 . S
O384 C370 1.247 . S
C385 C388 1.380 . S
C385 C389 1.374 . S
C385 C391 1.507 1_655 S
C386 C387 1.387 . S
C386 C390 1.391 . S
C387 C386 1.387 . S
C387 C388 1.384 . S
C387 H396 0.930 . S
C388 C385 1.380 . S
C388 C387 1.384 . S
C388 H397 0.931 . S
C389 C385 1.374 . S
C389 C390 1.390 . S
C389 H398 0.930 1_655 S
C390 C386 1.391 . S
C390 C389 1.390 . S
C390 H399 0.930 . S
C391 Eu361 2.825 . S
C391 O376 1.238 . S
C391 O377 1.247 . S
C391 C385 1.507 1_455 S
H392 C365 0.930 . S
H393 C366 0.931 . S
H394 C367 0.930 . S
H395 C368 0.930 . S
H396 C387 0.930 . S
H397 C388 0.931 . S
H398 C389 0.930 1_455 S
H399 C390 0.930 . S
Tb400 C410 2.825 . S
Tb400 O411 2.347 . S
Tb400 O414 2.366 . S
Tb400 O419 2.418 . S
Tb400 O420 2.384 . S
Tb400 O423 2.479 . S
Tb400 O424 2.471 . S
Eu401 O412 2.418 . S
Eu401 O413 2.384 . S
Eu401 O416 2.479 . S
Eu401 O417 2.471 . S
Eu401 O418 2.347 . S
Eu401 O421 2.366 . S
Eu401 C431 2.825 . S
C402 O418 1.259 . S
C402 O419 1.265 . S
C403 O420 1.255 . S
C403 O421 1.265 . S
C404 C406 1.380 . S
C404 C407 1.374 . S
C404 C410 1.507 1_545 S
C405 C406 1.384 . S
C405 C409 1.387 . S
C405 H432 0.930 . S
C406 C404 1.380 . S
C406 C405 1.384 . S
C406 H433 0.931 . S
C407 C404 1.374 . S
C407 C408 1.390 . S
C407 H434 0.930 1_545 S
C408 C407 1.390 . S
C408 C409 1.391 . S
C408 H435 0.930 . S
C409 C405 1.387 . S
C409 C408 1.391 . S
C410 Tb400 2.825 . S
C410 C404 1.507 1_565 S
C410 O423 1.238 . S
C410 O424 1.247 . S
O411 Tb400 2.347 . S
O411 C415 1.259 . S
O412 Eu401 2.418 . S
O412 C415 1.265 . S
O413 Eu401 2.384 . S
O413 C422 1.255 . S
O414 Tb400 2.366 . S
O414 C422 1.265 . S
C415 O411 1.259 . S
C415 O412 1.265 . S
O416 Eu401 2.479 . S
O416 C431 1.238 . S
O417 Eu401 2.471 . S
O417 C431 1.247 . S
O418 Eu401 2.347 . S
O418 C402 1.259 . S
O419 Tb400 2.418 . S
O419 C402 1.265 . S
O420 Tb400 2.384 . S
O420 C403 1.255 . S
O421 Eu401 2.366 . S
O421 C403 1.265 . S
C422 O413 1.255 . S
C422 O414 1.265 . S
O423 Tb400 2.479 . S
O423 C410 1.238 . S
O424 Tb400 2.471 . S
O424 C410 1.247 . S
C425 C428 1.380 . S
C425 C429 1.374 . S
C425 C431 1.507 . S
C426 C427 1.387 . S
C426 C430 1.391 . S
C427 C426 1.387 . S
C427 C428 1.384 . S
C427 H436 0.930 . S
C428 C425 1.380 . S
C428 C427 1.384 . S
C428 H437 0.931 . S
C429 C425 1.374 . S
C429 C430 1.390 . S
C429 H438 0.930 . S
C430 C426 1.391 . S
C430 C429 1.390 . S
C430 H439 0.930 . S
C431 Eu401 2.825 . S
C431 O416 1.238 . S
C431 O417 1.247 . S
C431 C425 1.507 . S
H432 C405 0.930 . S
H433 C406 0.931 . S
H434 C407 0.930 1_565 S
H435 C408 0.930 . S
H436 C427 0.930 . S
H437 C428 0.931 . S
H438 C429 0.930 . S
H439 C430 0.930 . S
Tb440 C450 2.825 . S
Tb440 O451 2.347 . S
Tb440 O454 2.366 . S
Tb440 O459 2.418 . S
Tb440 O460 2.384 . S
Tb440 O463 2.479 . S
Tb440 O464 2.471 . S
Eu441 O452 2.418 . S
Eu441 O453 2.384 . S
Eu441 O456 2.479 . S
Eu441 O457 2.471 . S
Eu441 O458 2.347 . S
Eu441 O461 2.366 . S
Eu441 C471 2.825 . S
C442 O458 1.259 . S
C442 O459 1.265 . S
C443 O460 1.255 . S
C443 O461 1.265 . S
C444 C446 1.380 . S
C444 C447 1.374 . S
C444 C450 1.507 . S
C445 C446 1.384 . S
C445 C449 1.387 . S
C445 H472 0.930 . S
C446 C444 1.380 . S
C446 C445 1.384 . S
C446 H473 0.931 . S
C447 C444 1.374 . S
C447 C448 1.390 . S
C447 H474 0.930 . S
C448 C447 1.390 . S
C448 C449 1.391 . S
C448 H475 0.930 . S
C449 C445 1.387 . S
C449 C448 1.391 . S
C450 Tb440 2.825 . S
C450 C444 1.507 . S
C450 O463 1.238 . S
C450 O464 1.247 . S
O451 Tb440 2.347 . S
O451 C455 1.259 . S
O452 Eu441 2.418 . S
O452 C455 1.265 . S
O453 Eu441 2.384 . S
O453 C462 1.255 . S
O454 Tb440 2.366 . S
O454 C462 1.265 . S
C455 O451 1.259 . S
C455 O452 1.265 . S
O456 Eu441 2.479 . S
O456 C471 1.238 . S
O457 Eu441 2.471 . S
O457 C471 1.247 . S
O458 Eu441 2.347 . S
O458 C442 1.259 . S
O459 Tb440 2.418 . S
O459 C442 1.265 . S
O460 Tb440 2.384 . S
O460 C443 1.255 . S
O461 Eu441 2.366 . S
O461 C443 1.265 . S
C462 O453 1.255 . S
C462 O454 1.265 . S
O463 Tb440 2.479 . S
O463 C450 1.238 . S
O464 Tb440 2.471 . S
O464 C450 1.247 . S
C465 C468 1.380 . S
C465 C469 1.374 . S
C465 C471 1.507 . S
C466 C467 1.387 . S
C466 C470 1.391 . S
C467 C466 1.387 . S
C467 C468 1.384 . S
C467 H476 0.930 . S
C468 C465 1.380 . S
C468 C467 1.384 . S
C468 H477 0.931 . S
C469 C465 1.374 . S
C469 C470 1.390 . S
C469 H478 0.930 . S
C470 C466 1.391 . S
C470 C469 1.390 . S
C470 H479 0.930 . S
C471 Eu441 2.825 . S
C471 O456 1.238 . S
C471 O457 1.247 . S
C471 C465 1.507 . S
H472 C445 0.930 . S
H473 C446 0.931 . S
H474 C447 0.930 . S
H475 C448 0.930 . S
H476 C467 0.930 . S
H477 C468 0.931 . S
H478 C469 0.930 . S
H479 C470 0.930 . S
H480 C488 0.950 . S
H481 C493 0.950 . S
H482 C490 0.950 . S
H483 C492 0.950 . S
H484 C494 0.950 . S
H485 C496 0.950 . S
H486 C498 0.950 . S
H487 C499 0.950 . S
C488 H480 0.950 . S
C488 C489 1.386 . S
C488 C490 1.391 . S
C489 C488 1.386 . S
C489 C493 1.393 . S
C490 H482 0.950 . S
C490 C488 1.391 . S
C490 C491 1.400 . S
C491 C490 1.400 . S
C491 C492 1.398 . S
C491 C497 1.491 . S
C492 H483 0.950 . S
C492 C491 1.398 . S
C492 C493 1.391 . S
C493 H481 0.950 . S
C493 C489 1.393 . S
C493 C492 1.391 . S
C494 H484 0.950 . S
C494 C495 1.386 . S
C494 C496 1.391 . S
C495 C494 1.386 . S
C495 C499 1.393 . S
C496 H485 0.950 . S
C496 C494 1.391 . S
C496 C497 1.400 . S
C497 C491 1.491 . S
C497 C496 1.400 . S
C497 C498 1.398 . S
C498 H486 0.950 . S
C498 C497 1.398 . S
C498 C499 1.391 . S
C499 H487 0.950 . S
C499 C495 1.393 . S
C499 C498 1.391 . S
H500 C508 0.950 . S
H501 C513 0.950 . S
H502 C510 0.950 . S
H503 C512 0.950 . S
H504 C514 0.950 . S
H505 C516 0.950 . S
H506 C518 0.950 . S
H507 C519 0.950 . S
C508 H500 0.950 . S
C508 C509 1.386 . S
C508 C510 1.391 . S
C509 C508 1.386 . S
C509 C513 1.393 . S
C510 H502 0.950 . S
C510 C508 1.391 . S
C510 C511 1.400 . S
C511 C510 1.400 . S
C511 C512 1.398 . S
C511 C517 1.491 1_455 S
C512 H503 0.950 . S
C512 C511 1.398 . S
C512 C513 1.391 . S
C513 H501 0.950 . S
C513 C509 1.393 . S
C513 C512 1.391 . S
C514 H504 0.950 . S
C514 C515 1.386 . S
C514 C516 1.391 . S
C515 C514 1.386 . S
C515 C519 1.393 . S
C516 H505 0.950 . S
C516 C514 1.391 . S
C516 C517 1.400 . S
C517 C511 1.491 1_655 S
C517 C516 1.400 . S
C517 C518 1.398 . S
C518 H506 0.950 . S
C518 C517 1.398 . S
C518 C519 1.391 . S
C519 H507 0.950 . S
C519 C515 1.393 . S
C519 C518 1.391 . S
H520 C528 0.950 . S
H521 C533 0.950 . S
H522 C530 0.950 . S
H523 C532 0.950 . S
H524 C534 0.950 . S
H525 C536 0.950 . S
H526 C538 0.950 . S
H527 C539 0.950 . S
C528 H520 0.950 . S
C528 C529 1.386 . S
C528 C530 1.391 . S
C529 C528 1.386 . S
C529 C533 1.393 . S
C530 H522 0.950 . S
C530 C528 1.391 . S
C530 C531 1.400 . S
C531 C530 1.400 . S
C531 C532 1.398 . S
C531 C537 1.491 1_545 S
C532 H523 0.950 . S
C532 C531 1.398 . S
C532 C533 1.391 . S
C533 H521 0.950 . S
C533 C529 1.393 . S
C533 C532 1.391 . S
C534 H524 0.950 . S
C534 C535 1.386 . S
C534 C536 1.391 . S
C535 C534 1.386 . S
C535 C539 1.393 . S
C536 H525 0.950 . S
C536 C534 1.391 . S
C536 C537 1.400 . S
C537 C531 1.491 1_565 S
C537 C536 1.400 . S
C537 C538 1.398 . S
C538 H526 0.950 . S
C538 C537 1.398 . S
C538 C539 1.391 . S
C539 H527 0.950 . S
C539 C535 1.393 . S
C539 C538 1.391 . S
H540 C548 0.950 . S
H541 C553 0.950 . S
H542 C550 0.950 . S
H543 C552 0.950 . S
H544 C554 0.950 . S
H545 C556 0.950 . S
H546 C558 0.950 . S
H547 C559 0.950 . S
C548 H540 0.950 . S
C548 C549 1.386 . S
C548 C550 1.391 . S
C549 C548 1.386 . S
C549 C553 1.393 . S
C550 H542 0.950 . S
C550 C548 1.391 . S
C550 C551 1.400 . S
C551 C550 1.400 . S
C551 C552 1.398 . S
C551 C557 1.491 . S
C552 H543 0.950 . S
C552 C551 1.398 . S
C552 C553 1.391 . S
C553 H541 0.950 . S
C553 C549 1.393 . S
C553 C552 1.391 . S
C554 H544 0.950 . S
C554 C555 1.386 . S
C554 C556 1.391 . S
C555 C554 1.386 . S
C555 C559 1.393 . S
C556 H545 0.950 . S
C556 C554 1.391 . S
C556 C557 1.400 . S
C557 C551 1.491 . S
C557 C556 1.400 . S
C557 C558 1.398 . S
C558 H546 0.950 . S
C558 C557 1.398 . S
C558 C559 1.391 . S
C559 H547 0.950 . S
C559 C555 1.393 . S
C559 C558 1.391 . S
H560 C568 0.950 . S
H561 C573 0.950 . S
H562 C570 0.950 . S
H563 C572 0.950 . S
H564 C574 0.950 . S
H565 C576 0.950 . S
H566 C578 0.950 . S
H567 C579 0.950 . S
C568 H560 0.950 . S
C568 C569 1.386 . S
C568 C570 1.391 . S
C569 C568 1.386 . S
C569 C573 1.393 . S
C570 H562 0.950 . S
C570 C568 1.391 . S
C570 C571 1.400 . S
C571 C570 1.400 . S
C571 C572 1.398 . S
C571 C577 1.491 1_455 S
C572 H563 0.950 . S
C572 C571 1.398 . S
C572 C573 1.391 . S
C573 H561 0.950 . S
C573 C569 1.393 . S
C573 C572 1.391 . S
C574 H564 0.950 . S
C574 C575 1.386 . S
C574 C576 1.391 . S
C575 C574 1.386 . S
C575 C579 1.393 . S
C576 H565 0.950 . S
C576 C574 1.391 . S
C576 C577 1.400 . S
C577 C571 1.491 1_655 S
C577 C576 1.400 . S
C577 C578 1.398 . S
C578 H566 0.950 . S
C578 C577 1.398 . S
C578 C579 1.391 . S
C579 H567 0.950 . S
C579 C575 1.393 . S
C579 C578 1.391 . S
H580 C588 0.950 . S
H581 C593 0.950 . S
H582 C590 0.950 . S
H583 C592 0.950 . S
H584 C594 0.950 . S
H585 C596 0.950 . S
H586 C598 0.950 . S
H587 C599 0.950 . S
C588 H580 0.950 . S
C588 C589 1.386 . S
C588 C590 1.391 . S
C589 C588 1.386 . S
C589 C593 1.393 . S
C590 H582 0.950 . S
C590 C588 1.391 . S
C590 C591 1.400 . S
C591 C590 1.400 . S
C591 C592 1.398 . S
C591 C597 1.491 1_565 S
C592 H583 0.950 . S
C592 C591 1.398 . S
C592 C593 1.391 . S
C593 H581 0.950 . S
C593 C589 1.393 . S
C593 C592 1.391 . S
C594 H584 0.950 . S
C594 C595 1.386 . S
C594 C596 1.391 . S
C595 C594 1.386 . S
C595 C599 1.393 . S
C596 H585 0.950 . S
C596 C594 1.391 . S
C596 C597 1.400 . S
C597 C591 1.491 1_545 S
C597 C596 1.400 . S
C597 C598 1.398 . S
C598 H586 0.950 . S
C598 C597 1.398 . S
C598 C599 1.391 . S
C599 H587 0.950 . S
C599 C595 1.393 . S
C599 C598 1.391 . S
H600 C608 0.950 . S
H601 C613 0.950 . S
H602 C610 0.950 . S
H603 C612 0.950 . S
H604 C614 0.950 . S
H605 C616 0.950 . S
H606 C618 0.950 . S
H607 C619 0.950 . S
C608 H600 0.950 . S
C608 C609 1.386 . S
C608 C610 1.391 . S
C609 C608 1.386 . S
C609 C613 1.393 . S
C610 H602 0.950 . S
C610 C608 1.391 . S
C610 C611 1.400 . S
C611 C610 1.400 . S
C611 C612 1.398 . S
C611 C617 1.491 . S
C612 H603 0.950 . S
C612 C611 1.398 . S
C612 C613 1.391 . S
C613 H601 0.950 . S
C613 C609 1.393 . S
C613 C612 1.391 . S
C614 H604 0.950 . S
C614 C615 1.386 . S
C614 C616 1.391 . S
C615 C614 1.386 . S
C615 C619 1.393 . S
C616 H605 0.950 . S
C616 C614 1.391 . S
C616 C617 1.400 . S
C617 C611 1.491 . S
C617 C616 1.400 . S
C617 C618 1.398 . S
C618 H606 0.950 . S
C618 C617 1.398 . S
C618 C619 1.391 . S
C619 H607 0.950 . S
C619 C615 1.393 . S
C619 C618 1.391 . S
H620 C628 0.950 . S
H621 C633 0.950 . S
H622 C630 0.950 . S
H623 C632 0.950 . S
H624 C634 0.950 . S
H625 C636 0.950 . S
H626 C638 0.950 . S
H627 C639 0.950 . S
C628 H620 0.950 . S
C628 C629 1.386 . S
C628 C630 1.391 . S
C629 C628 1.386 . S
C629 C633 1.393 . S
C630 H622 0.950 . S
C630 C628 1.391 . S
C630 C631 1.400 . S
C631 C630 1.400 . S
C631 C632 1.398 . S
C631 C637 1.491 1_455 S
C632 H623 0.950 . S
C632 C631 1.398 . S
C632 C633 1.391 . S
C633 H621 0.950 . S
C633 C629 1.393 . S
C633 C632 1.391 . S
C634 H624 0.950 . S
C634 C635 1.386 . S
C634 C636 1.391 . S
C635 C634 1.386 . S
C635 C639 1.393 . S
C636 H625 0.950 . S
C636 C634 1.391 . S
C636 C637 1.400 . S
C637 C631 1.491 1_655 S
C637 C636 1.400 . S
C637 C638 1.398 . S
C638 H626 0.950 . S
C638 C637 1.398 . S
C638 C639 1.391 . S
C639 H627 0.950 . S
C639 C635 1.393 . S
C639 C638 1.391 . S
H640 C648 0.950 . S
H641 C653 0.950 . S
H642 C650 0.950 . S
H643 C652 0.950 . S
H644 C654 0.950 . S
H645 C656 0.950 . S
H646 C658 0.950 . S
H647 C659 0.950 . S
C648 H640 0.950 . S
C648 C649 1.386 . S
C648 C650 1.391 . S
C649 C648 1.386 . S
C649 C653 1.393 . S
C650 H642 0.950 . S
C650 C648 1.391 . S
C650 C651 1.400 . S
C651 C650 1.400 . S
C651 C652 1.398 . S
C651 C657 1.491 1_565 S
C652 H643 0.950 . S
C652 C651 1.398 . S
C652 C653 1.391 . S
C653 H641 0.950 . S
C653 C649 1.393 . S
C653 C652 1.391 . S
C654 H644 0.950 . S
C654 C655 1.386 . S
C654 C656 1.391 . S
C655 C654 1.386 . S
C655 C659 1.393 . S
C656 H645 0.950 . S
C656 C654 1.391 . S
C656 C657 1.400 . S
C657 C651 1.491 1_545 S
C657 C656 1.400 . S
C657 C658 1.398 . S
C658 H646 0.950 . S
C658 C657 1.398 . S
C658 C659 1.391 . S
C659 H647 0.950 . S
C659 C655 1.393 . S
C659 C658 1.391 . S
H660 C668 0.950 . S
H661 C673 0.950 . S
H662 C670 0.950 . S
H663 C672 0.950 . S
H664 C674 0.950 . S
H665 C676 0.950 . S
H666 C678 0.950 . S
H667 C679 0.950 . S
C668 H660 0.950 . S
C668 C669 1.386 . S
C668 C670 1.391 . S
C669 C668 1.386 . S
C669 C673 1.393 . S
C670 H662 0.950 . S
C670 C668 1.391 . S
C670 C671 1.400 . S
C671 C670 1.400 . S
C671 C672 1.398 . S
C671 C677 1.491 . S
C672 H663 0.950 . S
C672 C671 1.398 . S
C672 C673 1.391 . S
C673 H661 0.950 . S
C673 C669 1.393 . S
C673 C672 1.391 . S
C674 H664 0.950 . S
C674 C675 1.386 . S
C674 C676 1.391 . S
C675 C674 1.386 . S
C675 C679 1.393 . S
C676 H665 0.950 . S
C676 C674 1.391 . S
C676 C677 1.400 . S
C677 C671 1.491 . S
C677 C676 1.400 . S
C677 C678 1.398 . S
C678 H666 0.950 . S
C678 C677 1.398 . S
C678 C679 1.391 . S
C679 H667 0.950 . S
C679 C675 1.393 . S
C679 C678 1.391 . S
H680 C688 0.950 . S
H681 C693 0.950 . S
H682 C690 0.950 . S
H683 C692 0.950 . S
H684 C694 0.950 . S
H685 C696 0.950 . S
H686 C698 0.950 . S
H687 C699 0.950 . S
C688 H680 0.950 . S
C688 C689 1.386 . S
C688 C690 1.391 . S
C689 C688 1.386 . S
C689 C693 1.393 . S
C690 H682 0.950 . S
C690 C688 1.391 . S
C690 C691 1.400 . S
C691 C690 1.400 . S
C691 C692 1.398 . S
C691 C697 1.491 1_455 S
C692 H683 0.950 . S
C692 C691 1.398 . S
C692 C693 1.391 . S
C693 H681 0.950 . S
C693 C689 1.393 . S
C693 C692 1.391 . S
C694 H684 0.950 . S
C694 C695 1.386 . S
C694 C696 1.391 . S
C695 C694 1.386 . S
C695 C699 1.393 . S
C696 H685 0.950 . S
C696 C694 1.391 . S
C696 C697 1.400 . S
C697 C691 1.491 1_655 S
C697 C696 1.400 . S
C697 C698 1.398 . S
C698 H686 0.950 . S
C698 C697 1.398 . S
C698 C699 1.391 . S
C699 H687 0.950 . S
C699 C695 1.393 . S
C699 C698 1.391 . S
H700 C708 0.950 . S
H701 C713 0.950 . S
H702 C710 0.950 . S
H703 C712 0.950 . S
H704 C714 0.950 . S
H705 C716 0.950 . S
H706 C718 0.950 . S
H707 C719 0.950 . S
C708 H700 0.950 . S
C708 C709 1.386 . S
C708 C710 1.391 . S
C709 C708 1.386 . S
C709 C713 1.393 . S
C710 H702 0.950 . S
C710 C708 1.391 . S
C710 C711 1.400 . S
C711 C710 1.400 . S
C711 C712 1.398 . S
C711 C717 1.491 1_545 S
C712 H703 0.950 . S
C712 C711 1.398 . S
C712 C713 1.391 . S
C713 H701 0.950 . S
C713 C709 1.393 . S
C713 C712 1.391 . S
C714 H704 0.950 . S
C714 C715 1.386 . S
C714 C716 1.391 . S
C715 C714 1.386 . S
C715 C719 1.393 . S
C716 H705 0.950 . S
C716 C714 1.391 . S
C716 C717 1.400 . S
C717 C711 1.491 1_565 S
C717 C716 1.400 . S
C717 C718 1.398 . S
C718 H706 0.950 . S
C718 C717 1.398 . S
C718 C719 1.391 . S
C719 H707 0.950 . S
C719 C715 1.393 . S
C719 C718 1.391 . S
H720 C728 0.950 . S
H721 C733 0.950 . S
H722 C730 0.950 . S
H723 C732 0.950 . S
H724 C734 0.950 . S
H725 C736 0.950 . S
H726 C738 0.950 . S
H727 C739 0.950 . S
C728 H720 0.950 . S
C728 C729 1.386 . S
C728 C730 1.391 . S
C729 C728 1.386 . S
C729 C733 1.393 . S
C730 H722 0.950 . S
C730 C728 1.391 . S
C730 C731 1.400 . S
C731 C730 1.400 . S
C731 C732 1.398 . S
C731 C737 1.491 . S
C732 H723 0.950 . S
C732 C731 1.398 . S
C732 C733 1.391 . S
C733 H721 0.950 . S
C733 C729 1.393 . S
C733 C732 1.391 . S
C734 H724 0.950 . S
C734 C735 1.386 . S
C734 C736 1.391 . S
C735 C734 1.386 . S
C735 C739 1.393 . S
C736 H725 0.950 . S
C736 C734 1.391 . S
C736 C737 1.400 . S
C737 C731 1.491 . S
C737 C736 1.400 . S
C737 C738 1.398 . S
C738 H726 0.950 . S
C738 C737 1.398 . S
C738 C739 1.391 . S
C739 H727 0.950 . S
C739 C735 1.393 . S
C739 C738 1.391 . S
H740 C748 0.950 . S
H741 C753 0.950 . S
H742 C750 0.950 . S
H743 C752 0.950 . S
H744 C754 0.950 . S
H745 C756 0.950 . S
H746 C758 0.950 . S
H747 C759 0.950 . S
C748 H740 0.950 . S
C748 C749 1.386 . S
C748 C750 1.391 . S
C749 C748 1.386 . S
C749 C753 1.393 . S
C750 H742 0.950 . S
C750 C748 1.391 . S
C750 C751 1.400 . S
C751 C750 1.400 . S
C751 C752 1.398 . S
C751 C757 1.491 . S
C752 H743 0.950 . S
C752 C751 1.398 . S
C752 C753 1.391 . S
C753 H741 0.950 . S
C753 C749 1.393 . S
C753 C752 1.391 . S
C754 H744 0.950 . S
C754 C755 1.386 . S
C754 C756 1.391 . S
C755 C754 1.386 . S
C755 C759 1.393 . S
C756 H745 0.950 . S
C756 C754 1.391 . S
C756 C757 1.400 . S
C757 C751 1.491 . S
C757 C756 1.400 . S
C757 C758 1.398 . S
C758 H746 0.950 . S
C758 C757 1.398 . S
C758 C759 1.391 . S
C759 H747 0.950 . S
C759 C755 1.393 . S
C759 C758 1.391 . S
H760 C768 0.950 . S
H761 C773 0.950 . S
H762 C770 0.950 . S
H763 C772 0.950 . S
H764 C774 0.950 . S
H765 C776 0.950 . S
H766 C778 0.950 . S
H767 C779 0.950 . S
C768 H760 0.950 . S
C768 C769 1.386 . S
C768 C770 1.391 . S
C769 C768 1.386 . S
C769 C773 1.393 . S
C770 H762 0.950 . S
C770 C768 1.391 . S
C770 C771 1.400 . S
C771 C770 1.400 . S
C771 C772 1.398 . S
C771 C777 1.491 . S
C772 H763 0.950 . S
C772 C771 1.398 . S
C772 C773 1.391 . S
C773 H761 0.950 . S
C773 C769 1.393 . S
C773 C772 1.391 . S
C774 H764 0.950 . S
C774 C775 1.386 . S
C774 C776 1.391 . S
C775 C774 1.386 . S
C775 C779 1.393 . S
C776 H765 0.950 . S
C776 C774 1.391 . S
C776 C777 1.400 . S
C777 C771 1.491 . S
C777 C776 1.400 . S
C777 C778 1.398 . S
C778 H766 0.950 . S
C778 C777 1.398 . S
C778 C779 1.391 . S
C779 H767 0.950 . S
C779 C775 1.393 . S
C779 C778 1.391 . S
H780 C788 0.950 . S
H781 C793 0.950 . S
H782 C790 0.950 . S
H783 C792 0.950 . S
H784 C794 0.950 . S
H785 C796 0.950 . S
H786 C798 0.950 . S
H787 C799 0.950 . S
C788 H780 0.950 . S
C788 C789 1.386 . S
C788 C790 1.391 . S
C789 C788 1.386 . S
C789 C793 1.393 . S
C790 H782 0.950 . S
C790 C788 1.391 . S
C790 C791 1.400 . S
C791 C790 1.400 . S
C791 C792 1.398 . S
C791 C797 1.491 . S
C792 H783 0.950 . S
C792 C791 1.398 . S
C792 C793 1.391 . S
C793 H781 0.950 . S
C793 C789 1.393 . S
C793 C792 1.391 . S
C794 H784 0.950 . S
C794 C795 1.386 . S
C794 C796 1.391 . S
C795 C794 1.386 . S
C795 C799 1.393 . S
C796 H785 0.950 . S
C796 C794 1.391 . S
C796 C797 1.400 . S
C797 C791 1.491 . S
C797 C796 1.400 . S
C797 C798 1.398 . S
C798 H786 0.950 . S
C798 C797 1.398 . S
C798 C799 1.391 . S
C799 H787 0.950 . S
C799 C795 1.393 . S
C799 C798 1.391 . S
H800 C808 0.950 . S
H801 C813 0.950 . S
H802 C810 0.950 . S
H803 C812 0.950 . S
H804 C814 0.950 . S
H805 C816 0.950 . S
H806 C818 0.950 . S
H807 C819 0.950 . S
C808 H800 0.950 . S
C808 C809 1.386 . S
C808 C810 1.391 . S
C809 C808 1.386 . S
C809 C813 1.393 . S
C810 H802 0.950 . S
C810 C808 1.391 . S
C810 C811 1.400 . S
C811 C810 1.400 . S
C811 C812 1.398 . S
C811 C817 1.491 . S
C812 H803 0.950 . S
C812 C811 1.398 . S
C812 C813 1.391 . S
C813 H801 0.950 . S
C813 C809 1.393 . S
C813 C812 1.391 . S
C814 H804 0.950 . S
C814 C815 1.386 . S
C814 C816 1.391 . S
C815 C814 1.386 . S
C815 C819 1.393 . S
C816 H805 0.950 . S
C816 C814 1.391 . S
C816 C817 1.400 . S
C817 C811 1.491 . S
C817 C816 1.400 . S
C817 C818 1.398 . S
C818 H806 0.950 . S
C818 C817 1.398 . S
C818 C819 1.391 . S
C819 H807 0.950 . S
C819 C815 1.393 . S
C819 C818 1.391 . S
H820 C828 0.950 . S
H821 C833 0.950 . S
H822 C830 0.950 . S
H823 C832 0.950 . S
H824 C834 0.950 . S
H825 C836 0.950 . S
H826 C838 0.950 . S
H827 C839 0.950 . S
C828 H820 0.950 . S
C828 C829 1.386 . S
C828 C830 1.391 . S
C829 C828 1.386 . S
C829 C833 1.393 . S
C830 H822 0.950 . S
C830 C828 1.391 . S
C830 C831 1.400 . S
C831 C830 1.400 . S
C831 C832 1.398 . S
C831 C837 1.491 . S
C832 H823 0.950 . S
C832 C831 1.398 . S
C832 C833 1.391 . S
C833 H821 0.950 . S
C833 C829 1.393 . S
C833 C832 1.391 . S
C834 H824 0.950 . S
C834 C835 1.386 . S
C834 C836 1.391 . S
C835 C834 1.386 . S
C835 C839 1.393 . S
C836 H825 0.950 . S
C836 C834 1.391 . S
C836 C837 1.400 . S
C837 C831 1.491 . S
C837 C836 1.400 . S
C837 C838 1.398 . S
C838 H826 0.950 . S
C838 C837 1.398 . S
C838 C839 1.391 . S
C839 H827 0.950 . S
C839 C835 1.393 . S
C839 C838 1.391 . S
H840 C848 0.950 . S
H841 C853 0.950 . S
H842 C850 0.950 . S
H843 C852 0.950 . S
H844 C854 0.950 . S
H845 C856 0.950 . S
H846 C858 0.950 . S
H847 C859 0.950 . S
C848 H840 0.950 . S
C848 C849 1.386 . S
C848 C850 1.391 . S
C849 C848 1.386 . S
C849 C853 1.393 . S
C850 H842 0.950 . S
C850 C848 1.391 . S
C850 C851 1.400 . S
C851 C850 1.400 . S
C851 C852 1.398 . S
C851 C857 1.491 1_566 S
C852 H843 0.950 . S
C852 C851 1.398 . S
C852 C853 1.391 . S
C853 H841 0.950 . S
C853 C849 1.393 . S
C853 C852 1.391 . S
C854 H844 0.950 . S
C854 C855 1.386 . S
C854 C856 1.391 . S
C855 C854 1.386 . S
C855 C859 1.393 . S
C856 H845 0.950 . S
C856 C854 1.391 . S
C856 C857 1.400 . S
C857 C851 1.491 1_544 S
C857 C856 1.400 . S
C857 C858 1.398 . S
C858 H846 0.950 . S
C858 C857 1.398 . S
C858 C859 1.391 . S
C859 H847 0.950 . S
C859 C855 1.393 . S
C859 C858 1.391 . S
H860 C868 0.950 . S
H861 C873 0.950 . S
H862 C870 0.950 . S
H863 C872 0.950 . S
H864 C874 0.950 . S
H865 C876 0.950 . S
H866 C878 0.950 . S
H867 C879 0.950 . S
C868 H860 0.950 . S
C868 C869 1.386 . S
C868 C870 1.391 . S
C869 C868 1.386 . S
C869 C873 1.393 . S
C870 H862 0.950 . S
C870 C868 1.391 . S
C870 C871 1.400 . S
C871 C870 1.400 . S
C871 C872 1.398 . S
C871 C877 1.491 . S
C872 H863 0.950 . S
C872 C871 1.398 . S
C872 C873 1.391 . S
C873 H861 0.950 . S
C873 C869 1.393 . S
C873 C872 1.391 . S
C874 H864 0.950 . S
C874 C875 1.386 . S
C874 C876 1.391 . S
C875 C874 1.386 . S
C875 C879 1.393 . S
C876 H865 0.950 . S
C876 C874 1.391 . S
C876 C877 1.400 . S
C877 C871 1.491 . S
C877 C876 1.400 . S
C877 C878 1.398 . S
C878 H866 0.950 . S
C878 C877 1.398 . S
C878 C879 1.391 . S
C879 H867 0.950 . S
C879 C875 1.393 . S
C879 C878 1.391 . S
H880 C888 0.950 . S
H881 C893 0.950 . S
H882 C890 0.950 1_554 S
H883 C892 0.950 1_655 S
H884 C894 0.950 . S
H885 C896 0.950 1_556 S
H886 C898 0.950 1_455 S
H887 C899 0.950 . S
C888 H880 0.950 . S
C888 C889 1.386 . S
C888 C890 1.391 . S
C889 C888 1.386 . S
C889 C893 1.393 . S
C890 H882 0.950 1_556 S
C890 C888 1.391 . S
C890 C891 1.400 . S
C891 C890 1.400 . S
C891 C892 1.398 . S
C891 C897 1.491 1_456 S
C892 H883 0.950 1_455 S
C892 C891 1.398 . S
C892 C893 1.391 . S
C893 H881 0.950 . S
C893 C889 1.393 . S
C893 C892 1.391 . S
C894 H884 0.950 . S
C894 C895 1.386 . S
C894 C896 1.391 . S
C895 C894 1.386 . S
C895 C899 1.393 . S
C896 H885 0.950 1_554 S
C896 C894 1.391 . S
C896 C897 1.400 . S
C897 C891 1.491 1_654 S
C897 C896 1.400 . S
C897 C898 1.398 . S
C898 H886 0.950 1_655 S
C898 C897 1.398 . S
C898 C899 1.391 . S
C899 H887 0.950 . S
C899 C895 1.393 . S
C899 C898 1.391 . S
H900 C908 0.950 . S
H901 C913 0.950 . S
H902 C910 0.950 . S
H903 C912 0.950 1_565 S
H904 C914 0.950 . S
H905 C916 0.950 . S
H906 C918 0.950 1_545 S
H907 C919 0.950 . S
C908 H900 0.950 . S
C908 C909 1.386 . S
C908 C910 1.391 . S
C909 C908 1.386 . S
C909 C913 1.393 . S
C910 H902 0.950 . S
C910 C908 1.391 . S
C910 C911 1.400 . S
C911 C910 1.400 . S
C911 C912 1.398 . S
C911 C917 1.491 1_545 S
C912 H903 0.950 1_545 S
C912 C911 1.398 . S
C912 C913 1.391 . S
C913 H901 0.950 . S
C913 C909 1.393 . S
C913 C912 1.391 . S
C914 H904 0.950 . S
C914 C915 1.386 . S
C914 C916 1.391 . S
C915 C914 1.386 . S
C915 C919 1.393 . S
C916 H905 0.950 . S
C916 C914 1.391 . S
C916 C917 1.400 . S
C917 C911 1.491 1_565 S
C917 C916 1.400 . S
C917 C918 1.398 . S
C918 H906 0.950 1_565 S
C918 C917 1.398 . S
C918 C919 1.391 . S
C919 H907 0.950 . S
C919 C915 1.393 . S
C919 C918 1.391 . S
H920 C928 0.950 . S
H921 C933 0.950 . S
H922 C930 0.916 1_556 S
H923 C932 0.950 . S
H924 C934 0.950 . S
H925 C936 0.916 1_554 S
H926 C938 0.950 . S
H927 C939 0.950 . S
C928 H920 0.950 . S
C928 C929 1.386 . S
C928 C930 1.414 . S
C929 C928 1.386 . S
C929 C933 1.393 . S
C930 H922 0.916 1_554 S
C930 C928 1.414 . S
C930 C931 1.412 . S
C931 C930 1.412 . S
C931 C932 1.398 . S
C931 C937 1.491 1_554 S
C932 H923 0.950 . S
C932 C931 1.398 . S
C932 C933 1.391 . S
C933 H921 0.950 . S
C933 C929 1.393 . S
C933 C932 1.391 . S
C934 H924 0.950 . S
C934 C935 1.386 . S
C934 C936 1.414 . S
C935 C934 1.386 . S
C935 C939 1.393 . S
C936 H925 0.916 1_556 S
C936 C934 1.414 . S
C936 C937 1.412 . S
C937 C931 1.491 1_556 S
C937 C936 1.412 . S
C937 C938 1.398 . S
C938 H926 0.950 . S
C938 C937 1.398 . S
C938 C939 1.391 . S
C939 H927 0.950 . S
C939 C935 1.393 . S
C939 C938 1.391 . S
H940 C948 0.950 . S
H941 C953 0.950 . S
H942 C950 0.950 . S
H943 C952 0.950 . S
H944 C954 0.950 . S
H945 C956 0.950 . S
H946 C958 0.950 . S
H947 C959 0.950 . S
C948 H940 0.950 . S
C948 C949 1.386 . S
C948 C950 1.391 . S
C949 C948 1.386 . S
C949 C953 1.393 . S
C950 H942 0.950 . S
C950 C948 1.391 . S
C950 C951 1.400 . S
C951 C950 1.400 . S
C951 C952 1.398 . S
C951 C957 1.491 1_455 S
C952 H943 0.950 . S
C952 C951 1.398 . S
C952 C953 1.391 . S
C953 H941 0.950 . S
C953 C949 1.393 . S
C953 C952 1.391 . S
C954 H944 0.950 . S
C954 C955 1.386 . S
C954 C956 1.391 . S
C955 C954 1.386 . S
C955 C959 1.393 . S
C956 H945 0.950 . S
C956 C954 1.391 . S
C956 C957 1.400 . S
C957 C951 1.491 1_655 S
C957 C956 1.400 . S
C957 C958 1.398 . S
C958 H946 0.950 . S
C958 C957 1.398 . S
C958 C959 1.391 . S
C959 H947 0.950 . S
C959 C955 1.393 . S
C959 C958 1.391 . S
H960 C968 0.950 . S
H961 C973 0.950 . S
H962 C970 0.950 . S
H963 C972 0.950 . S
H964 C974 0.950 . S
H965 C976 0.950 . S
H966 C978 0.950 . S
H967 C979 0.950 . S
C968 H960 0.950 . S
C968 C969 1.386 . S
C968 C970 1.391 . S
C969 C968 1.386 . S
C969 C973 1.393 . S
C970 H962 0.950 . S
C970 C968 1.391 . S
C970 C971 1.400 . S
C971 C970 1.400 . S
C971 C972 1.398 . S
C971 C977 1.491 . S
C972 H963 0.950 . S
C972 C971 1.398 . S
C972 C973 1.391 . S
C973 H961 0.950 . S
C973 C969 1.393 . S
C973 C972 1.391 . S
C974 H964 0.950 . S
C974 C975 1.386 . S
C974 C976 1.391 . S
C975 C974 1.386 . S
C975 C979 1.393 . S
C976 H965 0.950 . S
C976 C974 1.391 . S
C976 C977 1.400 . S
C977 C971 1.491 . S
C977 C976 1.400 . S
C977 C978 1.398 . S
C978 H966 0.950 . S
C978 C977 1.398 . S
C978 C979 1.391 . S
C979 H967 0.950 . S
C979 C975 1.393 . S
C979 C978 1.391 . S
H980 C988 0.950 . S
H981 C993 0.950 . S
H982 C990 0.950 . S
H983 C992 0.950 . S
H984 C994 0.950 . S
H985 C996 0.950 . S
H986 C998 0.950 . S
H987 C999 0.950 . S
C988 H980 0.950 . S
C988 C989 1.386 . S
C988 C990 1.391 . S
C989 C988 1.386 . S
C989 C993 1.393 . S
C990 H982 0.950 . S
C990 C988 1.391 . S
C990 C991 1.400 . S
C991 C990 1.400 . S
C991 C992 1.398 . S
C991 C997 1.491 . S
C992 H983 0.950 . S
C992 C991 1.398 . S
C992 C993 1.391 . S
C993 H981 0.950 . S
C993 C989 1.393 . S
C993 C992 1.391 . S
C994 H984 0.950 . S
C994 C995 1.386 . S
C994 C996 1.391 . S
C995 C994 1.386 . S
C995 C999 1.393 . S
C996 H985 0.950 . S
C996 C994 1.391 . S
C996 C997 1.400 . S
C997 C991 1.491 . S
C997 C996 1.400 . S
C997 C998 1.398 . S
C998 H986 0.950 . S
C998 C997 1.398 . S
C998 C999 1.391 . S
C999 H987 0.950 . S
C999 C995 1.393 . S
C999 C998 1.391 . S
H1000 C1008 0.950 . S
H1001 C1013 0.950 . S
H1002 C1010 0.950 . S
H1003 C1012 0.950 . S
H1004 C1014 0.950 . S
H1005 C1016 0.950 . S
H1006 C1018 0.950 . S
H1007 C1019 0.950 . S
C1008 H1000 0.950 . S
C1008 C1009 1.386 . S
C1008 C1010 1.391 . S
C1009 C1008 1.386 . S
C1009 C1013 1.393 . S
C1010 H1002 0.950 . S
C1010 C1008 1.391 . S
C1010 C1011 1.400 . S
C1011 C1010 1.400 . S
C1011 C1012 1.398 . S
C1011 C1017 1.491 . S
C1012 H1003 0.950 . S
C1012 C1011 1.398 . S
C1012 C1013 1.391 . S
C1013 H1001 0.950 . S
C1013 C1009 1.393 . S
C1013 C1012 1.391 . S
C1014 H1004 0.950 . S
C1014 C1015 1.386 . S
C1014 C1016 1.391 . S
C1015 C1014 1.386 . S
C1015 C1019 1.393 . S
C1016 H1005 0.950 . S
C1016 C1014 1.391 . S
C1016 C1017 1.400 . S
C1017 C1011 1.491 . S
C1017 C1016 1.400 . S
C1017 C1018 1.398 . S
C1018 H1006 0.950 . S
C1018 C1017 1.398 . S
C1018 C1019 1.391 . S
C1019 H1007 0.950 . S
C1019 C1015 1.393 . S
C1019 C1018 1.391 . S
H1020 C1028 0.950 . S
H1021 C1033 0.950 . S
H1022 C1030 0.950 . S
H1023 C1032 0.950 . S
H1024 C1034 0.950 . S
H1025 C1036 0.950 . S
H1026 C1038 0.950 . S
H1027 C1039 0.950 . S
C1028 H1020 0.950 . S
C1028 C1029 1.386 . S
C1028 C1030 1.391 . S
C1029 C1028 1.386 . S
C1029 C1033 1.393 . S
C1030 H1022 0.950 . S
C1030 C1028 1.391 . S
C1030 C1031 1.400 . S
C1031 C1030 1.400 . S
C1031 C1032 1.398 . S
C1031 C1037 1.491 . S
C1032 H1023 0.950 . S
C1032 C1031 1.398 . S
C1032 C1033 1.391 . S
C1033 H1021 0.950 . S
C1033 C1029 1.393 . S
C1033 C1032 1.391 . S
C1034 H1024 0.950 . S
C1034 C1035 1.386 . S
C1034 C1036 1.391 . S
C1035 C1034 1.386 . S
C1035 C1039 1.393 . S
C1036 H1025 0.950 . S
C1036 C1034 1.391 . S
C1036 C1037 1.400 . S
C1037 C1031 1.491 . S
C1037 C1036 1.400 . S
C1037 C1038 1.398 . S
C1038 H1026 0.950 . S
C1038 C1037 1.398 . S
C1038 C1039 1.391 . S
C1039 H1027 0.950 . S
C1039 C1035 1.393 . S
C1039 C1038 1.391 . S
H1040 C1048 0.950 . S
H1041 C1053 0.950 . S
H1042 C1050 0.950 . S
H1043 C1052 0.950 . S
H1044 C1054 0.950 . S
H1045 C1056 0.950 . S
H1046 C1058 0.950 . S
H1047 C1059 0.950 . S
C1048 H1040 0.950 . S
C1048 C1049 1.386 . S
C1048 C1050 1.391 . S
C1049 C1048 1.386 . S
C1049 C1053 1.393 . S
C1050 H1042 0.950 . S
C1050 C1048 1.391 . S
C1050 C1051 1.400 . S
C1051 C1050 1.400 . S
C1051 C1052 1.398 . S
C1051 C1057 1.491 . S
C1052 H1043 0.950 . S
C1052 C1051 1.398 . S
C1052 C1053 1.391 . S
C1053 H1041 0.950 . S
C1053 C1049 1.393 . S
C1053 C1052 1.391 . S
C1054 H1044 0.950 . S
C1054 C1055 1.386 . S
C1054 C1056 1.391 . S
C1055 C1054 1.386 . S
C1055 C1059 1.393 . S
C1056 H1045 0.950 . S
C1056 C1054 1.391 . S
C1056 C1057 1.400 . S
C1057 C1051 1.491 . S
C1057 C1056 1.400 . S
C1057 C1058 1.398 . S
C1058 H1046 0.950 . S
C1058 C1057 1.398 . S
C1058 C1059 1.391 . S
C1059 H1047 0.950 . S
C1059 C1055 1.393 . S
C1059 C1058 1.391 . S
H1060 C1068 0.950 . S
H1061 C1073 0.950 . S
H1062 C1070 0.950 . S
H1063 C1072 0.950 . S
H1064 C1074 0.950 . S
H1065 C1076 0.950 . S
H1066 C1078 0.950 . S
H1067 C1079 0.950 . S
C1068 H1060 0.950 . S
C1068 C1069 1.386 . S
C1068 C1070 1.391 . S
C1069 C1068 1.386 . S
C1069 C1073 1.393 . S
C1070 H1062 0.950 . S
C1070 C1068 1.391 . S
C1070 C1071 1.400 . S
C1071 C1070 1.400 . S
C1071 C1072 1.398 . S
C1071 C1077 1.491 . S
C1072 H1063 0.950 . S
C1072 C1071 1.398 . S
C1072 C1073 1.391 . S
C1073 H1061 0.950 . S
C1073 C1069 1.393 . S
C1073 C1072 1.391 . S
C1074 H1064 0.950 . S
C1074 C1075 1.386 . S
C1074 C1076 1.391 . S
C1075 C1074 1.386 . S
C1075 C1079 1.393 . S
C1076 H1065 0.950 . S
C1076 C1074 1.391 . S
C1076 C1077 1.400 . S
C1077 C1071 1.491 . S
C1077 C1076 1.400 . S
C1077 C1078 1.398 . S
C1078 H1066 0.950 . S
C1078 C1077 1.398 . S
C1078 C1079 1.391 . S
C1079 H1067 0.950 . S
C1079 C1075 1.393 . S
C1079 C1078 1.391 . S
H1080 C1088 0.950 . S
H1081 C1093 0.950 . S
H1082 C1090 0.950 . S
H1083 C1092 0.950 . S
H1084 C1094 0.950 . S
H1085 C1096 0.950 . S
H1086 C1098 0.950 . S
H1087 C1099 0.950 . S
C1088 H1080 0.950 . S
C1088 C1089 1.386 . S
C1088 C1090 1.391 . S
C1089 C1088 1.386 . S
C1089 C1093 1.393 . S
C1090 H1082 0.950 . S
C1090 C1088 1.391 . S
C1090 C1091 1.400 . S
C1091 C1090 1.400 . S
C1091 C1092 1.398 . S
C1091 C1097 1.491 . S
C1092 H1083 0.950 . S
C1092 C1091 1.398 . S
C1092 C1093 1.391 . S
C1093 H1081 0.950 . S
C1093 C1089 1.393 . S
C1093 C1092 1.391 . S
C1094 H1084 0.950 . S
C1094 C1095 1.386 . S
C1094 C1096 1.391 . S
C1095 C1094 1.386 . S
C1095 C1099 1.393 . S
C1096 H1085 0.950 . S
C1096 C1094 1.391 . S
C1096 C1097 1.400 . S
C1097 C1091 1.491 . S
C1097 C1096 1.400 . S
C1097 C1098 1.398 . S
C1098 H1086 0.950 . S
C1098 C1097 1.398 . S
C1098 C1099 1.391 . S
C1099 H1087 0.950 . S
C1099 C1095 1.393 . S
C1099 C1098 1.391 . S
H1100 C1108 0.950 . S
H1101 C1113 0.950 . S
H1102 C1110 0.950 . S
H1103 C1112 0.950 . S
H1104 C1114 0.950 . S
H1105 C1116 0.950 . S
H1106 C1118 0.950 . S
H1107 C1119 0.950 . S
C1108 H1100 0.950 . S
C1108 C1109 1.386 . S
C1108 C1110 1.391 . S
C1109 C1108 1.386 . S
C1109 C1113 1.393 . S
C1110 H1102 0.950 . S
C1110 C1108 1.391 . S
C1110 C1111 1.400 . S
C1111 C1110 1.400 . S
C1111 C1112 1.398 . S
C1111 C1117 1.491 . S
C1112 H1103 0.950 . S
C1112 C1111 1.398 . S
C1112 C1113 1.391 . S
C1113 H1101 0.950 . S
C1113 C1109 1.393 . S
C1113 C1112 1.391 . S
C1114 H1104 0.950 . S
C1114 C1115 1.386 . S
C1114 C1116 1.391 . S
C1115 C1114 1.386 . S
C1115 C1119 1.393 . S
C1116 H1105 0.950 . S
C1116 C1114 1.391 . S
C1116 C1117 1.400 . S
C1117 C1111 1.491 . S
C1117 C1116 1.400 . S
C1117 C1118 1.398 . S
C1118 H1106 0.950 . S
C1118 C1117 1.398 . S
C1118 C1119 1.391 . S
C1119 H1107 0.950 . S
C1119 C1115 1.393 . S
C1119 C1118 1.391 . S
H1120 C1128 0.950 . S
H1121 C1133 0.950 . S
H1122 C1130 0.950 . S
H1123 C1132 0.950 . S
H1124 C1134 0.950 . S
H1125 C1136 0.950 . S
H1126 C1138 0.950 . S
H1127 C1139 0.950 . S
C1128 H1120 0.950 . S
C1128 C1129 1.386 . S
C1128 C1130 1.391 . S
C1129 C1128 1.386 . S
C1129 C1133 1.393 . S
C1130 H1122 0.950 . S
C1130 C1128 1.391 . S
C1130 C1131 1.400 . S
C1131 C1130 1.400 . S
C1131 C1132 1.398 . S
C1131 C1137 1.491 . S
C1132 H1123 0.950 . S
C1132 C1131 1.398 . S
C1132 C1133 1.391 . S
C1133 H1121 0.950 . S
C1133 C1129 1.393 . S
C1133 C1132 1.391 . S
C1134 H1124 0.950 . S
C1134 C1135 1.386 . S
C1134 C1136 1.391 . S
C1135 C1134 1.386 . S
C1135 C1139 1.393 . S
C1136 H1125 0.950 . S
C1136 C1134 1.391 . S
C1136 C1137 1.400 . S
C1137 C1131 1.491 . S
C1137 C1136 1.400 . S
C1137 C1138 1.398 . S
C1138 H1126 0.950 . S
C1138 C1137 1.398 . S
C1138 C1139 1.391 . S
C1139 H1127 0.950 . S
C1139 C1135 1.393 . S
C1139 C1138 1.391 . S
H1140 C1148 0.950 . S
H1141 C1153 0.950 . S
H1142 C1150 0.950 . S
H1143 C1152 0.950 . S
H1144 C1154 0.950 . S
H1145 C1156 0.950 . S
H1146 C1158 0.950 . S
H1147 C1159 0.950 . S
C1148 H1140 0.950 . S
C1148 C1149 1.386 . S
C1148 C1150 1.391 . S
C1149 C1148 1.386 . S
C1149 C1153 1.393 . S
C1150 H1142 0.950 . S
C1150 C1148 1.391 . S
C1150 C1151 1.400 . S
C1151 C1150 1.400 . S
C1151 C1152 1.398 . S
C1151 C1157 1.491 . S
C1152 H1143 0.950 . S
C1152 C1151 1.398 . S
C1152 C1153 1.391 . S
C1153 H1141 0.950 . S
C1153 C1149 1.393 . S
C1153 C1152 1.391 . S
C1154 H1144 0.950 . S
C1154 C1155 1.386 . S
C1154 C1156 1.391 . S
C1155 C1154 1.386 . S
C1155 C1159 1.393 . S
C1156 H1145 0.950 . S
C1156 C1154 1.391 . S
C1156 C1157 1.400 . S
C1157 C1151 1.491 . S
C1157 C1156 1.400 . S
C1157 C1158 1.398 . S
C1158 H1146 0.950 . S
C1158 C1157 1.398 . S
C1158 C1159 1.391 . S
C1159 H1147 0.950 . S
C1159 C1155 1.393 . S
C1159 C1158 1.391 . S
H1160 C1168 0.950 . S
H1161 C1173 0.950 . S
H1162 C1170 0.950 . S
H1163 C1172 0.950 . S
H1164 C1174 0.950 . S
H1165 C1176 0.950 . S
H1166 C1178 0.950 . S
H1167 C1179 0.950 . S
C1168 H1160 0.950 . S
C1168 C1169 1.386 . S
C1168 C1170 1.391 . S
C1169 C1168 1.386 . S
C1169 C1173 1.393 . S
C1170 H1162 0.950 . S
C1170 C1168 1.391 . S
C1170 C1171 1.400 . S
C1171 C1170 1.400 . S
C1171 C1172 1.398 . S
C1171 C1177 1.491 . S
C1172 H1163 0.950 . S
C1172 C1171 1.398 . S
C1172 C1173 1.391 . S
C1173 H1161 0.950 . S
C1173 C1169 1.393 . S
C1173 C1172 1.391 . S
C1174 H1164 0.950 . S
C1174 C1175 1.386 . S
C1174 C1176 1.391 . S
C1175 C1174 1.386 . S
C1175 C1179 1.393 . S
C1176 H1165 0.950 . S
C1176 C1174 1.391 . S
C1176 C1177 1.400 . S
C1177 C1171 1.491 . S
C1177 C1176 1.400 . S
C1177 C1178 1.398 . S
C1178 H1166 0.950 . S
C1178 C1177 1.398 . S
C1178 C1179 1.391 . S
C1179 H1167 0.950 . S
C1179 C1175 1.393 . S
C1179 C1178 1.391 . S
H1180 C1188 0.950 . S
H1181 C1193 0.950 . S
H1182 C1190 0.950 . S
H1183 C1192 0.950 . S
H1184 C1194 0.950 . S
H1185 C1196 0.950 . S
H1186 C1198 0.950 . S
H1187 C1199 0.950 . S
C1188 H1180 0.950 . S
C1188 C1189 1.386 . S
C1188 C1190 1.391 . S
C1189 C1188 1.386 . S
C1189 C1193 1.393 . S
C1190 H1182 0.950 . S
C1190 C1188 1.391 . S
C1190 C1191 1.400 . S
C1191 C1190 1.400 . S
C1191 C1192 1.398 . S
C1191 C1197 1.491 . S
C1192 H1183 0.950 . S
C1192 C1191 1.398 . S
C1192 C1193 1.391 . S
C1193 H1181 0.950 . S
C1193 C1189 1.393 . S
C1193 C1192 1.391 . S
C1194 H1184 0.950 . S
C1194 C1195 1.386 . S
C1194 C1196 1.391 . S
C1195 C1194 1.386 . S
C1195 C1199 1.393 . S
C1196 H1185 0.950 . S
C1196 C1194 1.391 . S
C1196 C1197 1.400 . S
C1197 C1191 1.491 . S
C1197 C1196 1.400 . S
C1197 C1198 1.398 . S
C1198 H1186 0.950 . S
C1198 C1197 1.398 . S
C1198 C1199 1.391 . S
C1199 H1187 0.950 . S
C1199 C1195 1.393 . S
C1199 C1198 1.391 . S
C489 C106 1.274 . S
C495 C3 1.254 . S
C509 C129 1.276 . S
C515 C62 1.260 . S
C529 C83 1.259 . S
C535 C186 1.276 . S
C549 C142 1.254 . S
C555 C209 1.274 . S
C569 C26 1.273 . S
C575 C163 1.255 . S
C589 C49 1.275 . S
C595 C222 1.259 . S
C609 C409 1.271 . S
C615 C262 1.266 . S
C629 C283 1.256 . S
C635 C466 1.275 . S
C649 C342 1.270 . S
C655 C249 1.274 . S
C669 C363 1.266 . S
C675 C306 1.275 . S
C689 C422 1.266 . S
C695 C329 1.275 . S
C709 C386 1.272 . S
C715 C443 1.268 . S
C729 C122 1.771 . S
C735 C15 1.750 . S
C749 C42 1.772 . S
C755 C175 1.748 . S
C769 C95 1.773 . S
C775 C202 1.748 . S
C789 C242 1.771 . S
C795 C375 1.750 . S
C809 C295 1.770 . S
C815 C402 1.751 . S
C829 C322 1.758 . S
C835 C455 1.763 . S
C849 C282 2.307 . S
C855 C2 2.307 . S
C869 C55 2.312 . S
C875 C335 2.312 . S
C889 C362 2.308 . S
C895 C82 2.308 . S
C909 C135 2.313 . S
C915 C415 2.313 . S
C929 C162 2.309 . S
C935 C442 2.308 . S
C949 C255 2.315 . S
C955 C215 2.315 . S
C969 C89 1.691 . S
C975 C22 1.727 . S
C989 C43 1.727 . S
C995 C146 1.685 . S
C1009 C102 1.729 . S
C1015 C169 1.694 . S
C1029 C123 1.727 . S
C1035 C226 1.690 . S
C1049 C9 1.677 . S
C1055 C182 1.722 . S
C1069 C66 1.691 . S
C1075 C203 1.727 . S
C1089 C426 1.676 . S
C1095 C243 1.721 . S
C1109 C302 1.723 . S
C1115 C449 1.681 . S
C1129 C323 1.726 . S
C1135 C266 1.683 . S
C1149 C289 1.685 . S
C1155 C382 1.727 . S
C1169 C403 1.725 . S
C1175 C346 1.680 . S
C1189 C462 1.721 . S
C1195 C369 1.675 . S
