# Generated by pormake.
# Topology sml, (6)-cn, num edge types: 1
# Building blocks:
#     Node 0, Type 0, BuildingBlock: BETGAK_clean_sbu_0, # of connection points: 6
#     Node 1, Type 0, BuildingBlock: BETGAK_clean_sbu_0, # of connection points: 6
#     Node 2, Type 0, BuildingBlock: BETGAK_clean_sbu_0, # of connection points: 6
#     Node 3, Type 0, BuildingBlock: BETGAK_clean_sbu_0, # of connection points: 6
#     Node 4, Type 0, BuildingBlock: BETGAK_clean_sbu_0, # of connection points: 6
#     Node 5, Type 0, BuildingBlock: BETGAK_clean_sbu_0, # of connection points: 6
#     Edge 6, Type (0, 0), BuildingBlock: ZUJKAS_clean_linker_0, # of connection points: 2
#     Edge 7, Type (0, 0), BuildingBlock: ZUJKAS_clean_linker_0, # of connection points: 2
#     Edge 8, Type (0, 0), BuildingBlock: ZUJKAS_clean_linker_0, # of connection points: 2
#     Edge 9, Type (0, 0), BuildingBlock: ZUJKAS_clean_linker_0, # of connection points: 2
#     Edge 10, Type (0, 0), BuildingBlock: ZUJKAS_clean_linker_0, # of connection points: 2
#     Edge 11, Type (0, 0), BuildingBlock: ZUJKAS_clean_linker_0, # of connection points: 2
#     Edge 12, Type (0, 0), BuildingBlock: ZUJKAS_clean_linker_0, # of connection points: 2
#     Edge 13, Type (0, 0), BuildingBlock: ZUJKAS_clean_linker_0, # of connection points: 2
#     Edge 14, Type (0, 0), BuildingBlock: ZUJKAS_clean_linker_0, # of connection points: 2
#     Edge 15, Type (0, 0), BuildingBlock: ZUJKAS_clean_linker_0, # of connection points: 2
#     Edge 16, Type (0, 0), BuildingBlock: ZUJKAS_clean_linker_0, # of connection points: 2
#     Edge 17, Type (0, 0), BuildingBlock: ZUJKAS_clean_linker_0, # of connection points: 2
#     Edge 18, Type (0, 0), BuildingBlock: ZUJKAS_clean_linker_0, # of connection points: 2
#     Edge 19, Type (0, 0), BuildingBlock: ZUJKAS_clean_linker_0, # of connection points: 2
#     Edge 20, Type (0, 0), BuildingBlock: ZUJKAS_clean_linker_0, # of connection points: 2
#     Edge 21, Type (0, 0), BuildingBlock: ZUJKAS_clean_linker_0, # of connection points: 2
#     Edge 22, Type (0, 0), BuildingBlock: ZUJKAS_clean_linker_0, # of connection points: 2
#     Edge 23, Type (0, 0), BuildingBlock: ZUJKAS_clean_linker_0, # of connection points: 2
# Relax obj value: 0.156
# Max RMSD: 0.198
# Mean RMSD: 0.198
data_MOF--net-sml--node1-BETGAK_clean_sbu_0--edge1-ZUJKAS_clean_linker_0
_symmetry_space_group_name_H-M    P1
_symmetry_Int_Tables_number       1
_symmetry_cell_setting            triclinic
loop_
_symmetry_equiv_pos_as_xyz
'x, y, z'
_cell_length_a     43.7093
_cell_length_b     43.71355
_cell_length_c     29.795016
_cell_angle_alpha  89.963489
_cell_angle_beta   89.969641
_cell_angle_gamma 119.97148
loop_
_atom_site_label
_atom_site_type_symbol
_atom_site_fract_x
_atom_site_fract_y
_atom_site_fract_z
_atom_type_partial_charge
La0 La 0.18349 0.43059 0.07582 0.0
La1 La 0.20609 0.40751 0.15962 0.0
C2 C 0.1792 0.45216 0.99874 0.0
C3 C 0.18261 0.44503 0.95098 0.0
C4 C 0.15237 0.42945 0.92379 0.0
C5 C 0.15503 0.4248 0.87789 0.0
C6 C 0.1881 0.43594 0.85787 0.0
C7 C 0.21839 0.45098 0.88524 0.0
C8 C 0.2157 0.45553 0.93132 0.0
C9 C 0.13177 0.3835 0.12526 0.0
C10 C 0.20655 0.37145 0.07072 0.0
C11 C 0.21219 0.38707 0.23667 0.0
C12 C 0.20974 0.39454 0.28458 0.0
C13 C 0.24052 0.41007 0.3108 0.0
C14 C 0.23883 0.41507 0.35682 0.0
C15 C 0.20623 0.40435 0.37793 0.0
C16 C 0.17541 0.38936 0.35153 0.0
C17 C 0.17712 0.38445 0.30533 0.0
C18 C 0.25714 0.45581 0.10968 0.0
C19 C 0.18337 0.46649 0.16565 0.0
O20 O 0.15216 0.42747 0.02067 0.0
O21 O 0.2079 0.46673 0.02319 0.0
O22 O 0.1303 0.4081 0.10274 0.0
O23 O 0.16063 0.38451 0.11761 0.0
O24 O 0.20269 0.39608 0.04965 0.0
O25 O 0.20375 0.36764 0.11479 0.0
O26 O 0.23859 0.41178 0.21391 0.0
O27 O 0.18301 0.37191 0.21315 0.0
O28 O 0.25951 0.43121 0.13092 0.0
O29 O 0.22804 0.45356 0.11858 0.0
O30 O 0.18631 0.44119 0.18625 0.0
O31 O 0.18643 0.47071 0.12154 0.0
H32 H 0.12657 0.42129 0.93796 0.0
H33 H 0.1311 0.41257 0.85802 0.0
H34 H 0.24432 0.46018 0.87089 0.0
H35 H 0.23961 0.4679 0.95125 0.0
H36 H 0.26598 0.41791 0.29578 0.0
H37 H 0.26316 0.42725 0.37591 0.0
H38 H 0.14982 0.38047 0.36674 0.0
H39 H 0.15283 0.37214 0.28614 0.0
La40 La 0.81006 0.24257 0.49198 0.0
La41 La 0.79046 0.19542 0.4091 0.0
C42 C 0.81104 0.26795 0.56849 0.0
C43 C 0.80871 0.25852 0.61657 0.0
C44 C 0.8322 0.28399 0.6468 0.0
C45 C 0.82991 0.27683 0.6928 0.0
C46 C 0.80388 0.24397 0.70987 0.0
C47 C 0.7807 0.21814 0.67932 0.0
C48 C 0.78308 0.22533 0.63312 0.0
C49 C 0.8634 0.24953 0.44394 0.0
C50 C 0.79307 0.16224 0.49996 0.0
C51 C 0.78803 0.16937 0.33252 0.0
C52 C 0.78853 0.17782 0.28428 0.0
C53 C 0.76384 0.15183 0.25553 0.0
C54 C 0.76469 0.15794 0.20933 0.0
C55 C 0.79042 0.19023 0.1906 0.0
C56 C 0.81478 0.2166 0.21967 0.0
C57 C 0.81385 0.21048 0.26604 0.0
C58 C 0.73764 0.18964 0.45768 0.0
C59 C 0.80713 0.27572 0.4009 0.0
O60 O 0.83942 0.27321 0.54709 0.0
O61 O 0.78249 0.25067 0.54407 0.0
O62 O 0.86329 0.27515 0.4657 0.0
O63 O 0.83533 0.22097 0.45184 0.0
O64 O 0.79518 0.19042 0.51968 0.0
O65 O 0.79535 0.16011 0.45589 0.0
O66 O 0.76003 0.16342 0.3554 0.0
O67 O 0.81715 0.18784 0.35546 0.0
O68 O 0.73714 0.16333 0.43695 0.0
O69 O 0.76581 0.21757 0.44868 0.0
O70 O 0.80461 0.24737 0.38106 0.0
O71 O 0.80564 0.27814 0.44506 0.0
H72 H 0.85227 0.3097 0.6348 0.0
H73 H 0.84872 0.29711 0.71499 0.0
H74 H 0.76017 0.19263 0.69117 0.0
H75 H 0.76465 0.20513 0.6105 0.0
H76 H 0.74402 0.12648 0.2688 0.0
H77 H 0.74505 0.13726 0.1883 0.0
H78 H 0.83515 0.24168 0.20651 0.0
H79 H 0.83324 0.23106 0.28743 0.0
La80 La 0.57438 0.7676 0.75324 0.0
La81 La 0.59039 0.80682 0.84227 0.0
C82 C 0.54812 0.73638 0.68004 0.0
C83 C 0.55362 0.74496 0.63137 0.0
C84 C 0.57491 0.73585 0.60576 0.0
C85 C 0.57912 0.74251 0.55958 0.0
C86 C 0.56192 0.75822 0.53763 0.0
C87 C 0.54071 0.76747 0.56329 0.0
C88 C 0.53652 0.76083 0.60955 0.0
C89 C 0.62436 0.76727 0.80215 0.0
C90 C 0.63498 0.8461 0.75397 0.0
C91 C 0.61652 0.83788 0.91555 0.0
C92 C 0.61079 0.82953 0.96427 0.0
C93 C 0.58987 0.83933 0.98952 0.0
C94 C 0.58549 0.83299 0.03575 0.0
C95 C 0.60217 0.81694 0.05815 0.0
C96 C 0.62301 0.807 0.03285 0.0
C97 C 0.62734 0.81328 0.98652 0.0
C98 C 0.5402 0.80669 0.79348 0.0
C99 C 0.52953 0.72881 0.8416 0.0
O100 O 0.57337 0.73458 0.70136 0.0
O101 O 0.53488 0.75205 0.70412 0.0
O102 O 0.62426 0.76726 0.75865 0.0
O103 O 0.59614 0.76486 0.81613 0.0
O104 O 0.61148 0.81997 0.72884 0.0
O105 O 0.63324 0.84497 0.79852 0.0
O106 O 0.59153 0.83997 0.89398 0.0
O107 O 0.62959 0.82187 0.89175 0.0
O108 O 0.53996 0.8062 0.837 0.0
O109 O 0.56855 0.80944 0.7795 0.0
O110 O 0.55375 0.75441 0.86661 0.0
O111 O 0.53078 0.7301 0.79702 0.0
H112 H 0.58822 0.72332 0.62137 0.0
H113 H 0.59603 0.73545 0.5411 0.0
H114 H 0.52665 0.77914 0.54748 0.0
H115 H 0.51953 0.76779 0.62805 0.0
H116 H 0.57698 0.85217 0.97358 0.0
H117 H 0.56884 0.84057 0.05392 0.0
H118 H 0.63668 0.79505 0.04898 0.0
H119 H 0.64402 0.80576 0.96828 0.0
La120 La 0.75828 0.56141 0.1468 0.0
La121 La 0.80409 0.58697 0.06269 0.0
C122 C 0.73389 0.53828 0.22395 0.0
C123 C 0.74507 0.54598 0.27147 0.0
C124 C 0.7484 0.57608 0.29311 0.0
C125 C 0.7559 0.5813 0.339 0.0
C126 C 0.76027 0.55658 0.36431 0.0
C127 C 0.75791 0.52699 0.34238 0.0
C128 C 0.75025 0.52169 0.2965 0.0
C129 C 0.75194 0.60781 0.09801 0.0
C130 C 0.83955 0.62317 0.15226 0.0
C131 C 0.82854 0.60994 0.98549 0.0
C132 C 0.81757 0.60187 0.93792 0.0
C133 C 0.81655 0.57286 0.91608 0.0
C134 C 0.80929 0.56746 0.87015 0.0
C135 C 0.80298 0.59097 0.84492 0.0
C136 C 0.80303 0.6194 0.86707 0.0
C137 C 0.81036 0.62485 0.913 0.0
C138 C 0.80945 0.53981 0.11146 0.0
C139 C 0.72302 0.52473 0.05701 0.0
O140 O 0.72878 0.56142 0.20225 0.0
O141 O 0.74973 0.52565 0.19907 0.0
O142 O 0.72614 0.58261 0.12024 0.0
O143 O 0.78014 0.60762 0.1058 0.0
O144 O 0.81128 0.59801 0.1731 0.0
O145 O 0.84088 0.62699 0.10815 0.0
O146 O 0.83416 0.58731 1.00762 0.0
O147 O 0.81216 0.62219 1.00998 0.0
O148 O 0.83574 0.56497 0.08981 0.0
O149 O 0.78175 0.5407 0.10318 0.0
O150 O 0.75135 0.54977 0.03612 0.0
O151 O 0.72141 0.52137 0.10123 0.0
H152 H 0.7446 0.59537 0.27488 0.0
H153 H 0.75804 0.60461 0.35477 0.0
H154 H 0.7608 0.50729 0.36096 0.0
H155 H 0.74758 0.49813 0.28078 0.0
H156 H 0.82197 0.55461 0.9342 0.0
H157 H 0.8089 0.54498 0.8543 0.0
H158 H 0.79859 0.6382 0.84863 0.0
H159 H 0.81122 0.64757 0.92884 0.0
La160 La 0.23505 0.80076 0.42215 0.0
La161 La 0.18821 0.78061 0.50526 0.0
C162 C 0.26057 0.80336 0.34522 0.0
C163 C 0.25064 0.80128 0.29729 0.0
C164 C 0.26953 0.83104 0.2698 0.0
C165 C 0.26253 0.82939 0.22384 0.0
C166 C 0.23662 0.79777 0.20399 0.0
C167 C 0.21721 0.76807 0.2317 0.0
C168 C 0.22416 0.76977 0.27785 0.0
C169 C 0.2421 0.85372 0.4709 0.0
C170 C 0.1541 0.78203 0.41496 0.0
C171 C 0.1625 0.77816 0.58204 0.0
C172 C 0.17195 0.78006 0.63016 0.0
C173 C 0.1536 0.74985 0.65711 0.0
C174 C 0.15996 0.75133 0.70324 0.0
C175 C 0.18468 0.78317 0.72379 0.0
C176 C 0.20353 0.81336 0.69667 0.0
C177 C 0.1972 0.81185 0.65036 0.0
C178 C 0.18262 0.72796 0.45643 0.0
C179 C 0.26847 0.79747 0.5128 0.0
O180 O 0.26527 0.83121 0.36739 0.0
O181 O 0.24426 0.77454 0.36938 0.0
O182 O 0.2677 0.85359 0.44913 0.0
O183 O 0.21345 0.82578 0.46282 0.0
O184 O 0.18251 0.78488 0.39488 0.0
O185 O 0.15213 0.78438 0.45899 0.0
O186 O 0.1577 0.75026 0.55988 0.0
O187 O 0.17918 0.80702 0.55799 0.0
O188 O 0.15633 0.72717 0.47764 0.0
O189 O 0.21041 0.7563 0.46516 0.0
O190 O 0.24043 0.79552 0.53283 0.0
O191 O 0.27048 0.79557 0.46861 0.0
H192 H 0.29015 0.85561 0.28381 0.0
H193 H 0.27755 0.85297 0.20381 0.0
H194 H 0.1973 0.74319 0.21758 0.0
H195 H 0.20921 0.74625 0.29805 0.0
H196 H 0.13386 0.72506 0.64255 0.0
H197 H 0.14538 0.72743 0.72285 0.0
H198 H 0.22248 0.83843 0.71137 0.0
H199 H 0.21162 0.83573 0.63065 0.0
La200 La 0.4295 0.18957 0.81843 0.0
La201 La 0.4027 0.20779 0.73414 0.0
C202 C 0.45376 0.18902 0.89507 0.0
C203 C 0.44677 0.19183 0.94304 0.0
C204 C 0.43783 0.16293 0.97138 0.0
C205 C 0.4332 0.16524 0.01736 0.0
C206 C 0.43775 0.19671 0.0363 0.0
C207 C 0.44616 0.22557 1.00777 0.0
C208 C 0.45066 0.22317 0.96157 0.0
C209 C 0.38258 0.13547 0.77214 0.0
C210 C 0.36775 0.20892 0.82393 0.0
C211 C 0.37853 0.20827 0.65735 0.0
C212 C 0.38728 0.20815 0.60932 0.0
C213 C 0.39838 0.23883 0.58355 0.0
C214 C 0.40422 0.23873 0.53746 0.0
C215 C 0.39881 0.20783 0.51584 0.0
C216 C 0.3882 0.1772 0.54176 0.0
C217 C 0.38241 0.17732 0.58799 0.0
C218 C 0.45062 0.26149 0.78063 0.0
C219 C 0.46584 0.19036 0.72818 0.0
O220 O 0.43041 0.16058 0.87409 0.0
O221 O 0.46547 0.21735 0.87007 0.0
O222 O 0.40829 0.13582 0.79415 0.0
O223 O 0.38244 0.16389 0.77869 0.0
O224 O 0.39354 0.20686 0.84463 0.0
O225 O 0.36291 0.20462 0.78009 0.0
O226 O 0.39913 0.23683 0.68023 0.0
O227 O 0.36918 0.17952 0.68069 0.0
O228 O 0.42507 0.26205 0.75929 0.0
O229 O 0.4496 0.23274 0.77329 0.0
O230 O 0.44048 0.1931 0.70732 0.0
O231 O 0.46935 0.19252 0.77238 0.0
H232 H 0.43479 0.13851 0.958 0.0
H233 H 0.42608 0.14229 0.03811 0.0
H234 H 0.45017 0.2503 0.02125 0.0
H235 H 0.45768 0.246 0.9406 0.0
H236 H 0.40207 0.26289 0.59896 0.0
H237 H 0.41289 0.26293 0.51871 0.0
H238 H 0.38337 0.15282 0.52615 0.0
H239 H 0.3735 0.15308 0.60675 0.0
H240 H 0.32208 0.22932 0.79205 0.0
H241 H 0.29029 0.25213 0.83515 0.0
H242 H 0.32968 0.23269 0.95826 0.0
H243 H 0.36254 0.21085 0.91535 0.0
H244 H 0.23964 0.22524 0.89934 0.0
H245 H 0.36286 0.3366 0.96869 0.0
H246 H 0.36313 0.30874 0.92427 0.0
H247 H 0.35749 0.29412 0.98172 0.0
C248 C 0.32378 0.22958 0.82832 0.0
C249 C 0.34516 0.21861 0.85025 0.0
C250 C 0.30557 0.24265 0.8529 0.0
C251 C 0.30826 0.24486 0.89983 0.0
C252 C 0.32803 0.23214 0.92198 0.0
H253 H 0.22432 0.32392 0.10314 0.0
H254 H 0.24607 0.29086 0.06077 0.0
C255 C 0.3466 0.21943 0.8974 0.0
C256 C 0.29133 0.26158 0.9253 0.0
H257 H 0.30895 0.3292 0.9973 0.0
C258 C 0.25479 0.248 0.92069 0.0
C259 C 0.31124 0.29154 0.9528 0.0
C260 C 0.35088 0.30886 0.95689 0.0
C261 C 0.23758 0.26329 0.94341 0.0
C262 C 0.25744 0.29278 0.97132 0.0
C263 C 0.29387 0.30637 0.97599 0.0
C264 C 0.24107 0.31022 0.99601 0.0
C265 C 0.19828 0.24775 0.93794 0.0
C266 C 0.23088 0.33184 0.97338 0.0
C267 C 0.21862 0.35105 0.99749 0.0
C268 C 0.21632 0.3488 0.04461 0.0
C269 C 0.22564 0.32624 0.06691 0.0
C270 C 0.23811 0.30731 0.04281 0.0
H271 H 0.18595 0.22213 0.91982 0.0
H272 H 0.18545 0.24378 0.97128 0.0
H273 H 0.19309 0.26646 0.91874 0.0
H274 H 0.23337 0.33464 0.93723 0.0
H275 H 0.21172 0.3682 0.97927 0.0
H276 H 0.12667 0.32605 0.16975 0.0
H277 H 0.08128 0.2886 0.22492 0.0
H278 H 0.02846 0.34846 0.20405 0.0
H279 H 0.07391 0.38632 0.15044 0.0
H280 H 0.06321 0.31587 0.30582 0.0
H281 H 0.94964 0.24226 0.19139 0.0
H282 H 0.99504 0.26267 0.17272 0.0
H283 H 0.97416 0.28885 0.18011 0.0
C284 C 0.10547 0.33126 0.1773 0.0
C285 C 0.10402 0.35935 0.15646 0.0
C286 C 0.07948 0.30972 0.20839 0.0
C287 C 0.05138 0.31558 0.21799 0.0
C288 C 0.04964 0.34318 0.19648 0.0
H289 H 0.91999 0.31106 0.41793 0.0
H290 H 0.96702 0.31954 0.3664 0.0
C291 C 0.0757 0.36486 0.16602 0.0
C292 C 0.02481 0.29483 0.25261 0.0
H293 H 0.93561 0.24787 0.26826 0.0
C294 C 0.03536 0.30015 0.2977 0.0
C295 C 0.9886 0.27409 0.24184 0.0
C296 C 0.97614 0.26629 0.19384 0.0
C297 C 0.01028 0.28775 0.33239 0.0
C298 C 0.97395 0.26985 0.32146 0.0
C299 C 0.96352 0.26187 0.2765 0.0
C300 C 0.94674 0.26376 0.35528 0.0
C301 C 0.02278 0.29536 0.38038 0.0
C302 C 0.91957 0.22953 0.36572 0.0
C303 C 0.89266 0.22461 0.3955 0.0
C304 C 0.89224 0.25389 0.41423 0.0
C305 C 0.91966 0.28802 0.40396 0.0
C306 C 0.94664 0.2929 0.37473 0.0
H307 H 0.04985 0.29934 0.38388 0.0
H308 H 0.02349 0.31994 0.39145 0.0
H309 H 0.00463 0.27356 0.40297 0.0
H310 H 0.91914 0.20675 0.35075 0.0
H311 H 0.87214 0.198 0.40359 0.0
H312 H 0.79604 0.16017 0.59141 0.0
H313 H 0.77996 0.10874 0.63874 0.0
H314 H 0.75797 0.04388 0.52077 0.0
H315 H 0.77482 0.09537 0.47307 0.0
H316 H 0.71563 0.05144 0.64193 0.0
H317 H 0.81258 0.01049 0.59556 0.0
H318 H 0.81853 0.05322 0.58091 0.0
H319 H 0.79029 0.01498 0.54766 0.0
C320 C 0.78837 0.1351 0.57544 0.0
C321 C 0.78669 0.13186 0.5284 0.0
C322 C 0.77923 0.10573 0.6026 0.0
C323 C 0.76821 0.07255 0.58334 0.0
C324 C 0.76727 0.06938 0.5364 0.0
H325 H 0.64842 0.85726 0.66413 0.0
H326 H 0.68533 0.9135 0.62619 0.0
C327 C 0.77668 0.09883 0.50915 0.0
C328 C 0.75426 0.04074 0.61225 0.0
H329 H 0.76039 0.96726 0.63416 0.0
C330 C 0.72581 0.03334 0.64078 0.0
C331 C 0.76751 0.0171 0.61057 0.0
C332 C 0.79914 0.0245 0.58235 0.0
C333 C 0.70935 0.0023 0.6664 0.0
C334 C 0.72198 0.97823 0.66381 0.0
C335 C 0.75088 0.98589 0.63605 0.0
C336 C 0.70374 0.9439 0.6874 0.0
C337 C 0.67766 0.99479 0.69467 0.0
C338 C 0.70283 0.94229 0.73444 0.0
C339 C 0.6817 0.91014 0.75635 0.0
C340 C 0.66112 0.87914 0.73147 0.0
C341 C 0.66367 0.88065 0.68435 0.0
C342 C 0.68485 0.91275 0.66255 0.0
H343 H 0.66756 0.01301 0.68683 0.0
H344 H 0.65598 0.96722 0.68957 0.0
H345 H 0.68514 0.99796 0.73066 0.0
H346 H 0.7176 0.96609 0.75414 0.0
H347 H 0.6805 0.90989 0.79267 0.0
H348 H 0.61877 0.75364 0.89164 0.0
H349 H 0.65475 0.73729 0.93706 0.0
H350 H 0.71998 0.74989 0.82191 0.0
H351 H 0.68355 0.76598 0.77591 0.0
H352 H 0.69681 0.68702 0.86232 0.0
H353 H 0.75196 0.79141 0.99141 0.0
H354 H 0.70506 0.77267 0.98712 0.0
H355 H 0.73279 0.79606 0.93997 0.0
C356 C 0.64122 0.75366 0.87618 0.0
C357 C 0.64846 0.76111 0.83029 0.0
C358 C 0.66193 0.74453 0.90227 0.0
C359 C 0.69046 0.74297 0.88309 0.0
C360 C 0.69828 0.75126 0.83745 0.0
H361 H 0.80286 0.67037 0.06233 0.0
H362 H 0.79469 0.70647 1.00532 0.0
C363 C 0.67749 0.7604 0.81125 0.0
C364 C 0.70933 0.7289 0.90975 0.0
H365 H 0.74635 0.73501 0.01259 0.0
C366 C 0.70839 0.69799 0.89472 0.0
C367 C 0.72496 0.74348 0.95171 0.0
C368 C 0.72911 0.77796 0.96824 0.0
C369 C 0.72017 0.67985 0.92206 0.0
C370 C 0.73269 0.6927 0.96562 0.0
C371 C 0.73621 0.72498 0.97935 0.0
C372 C 0.73841 0.67105 0.99896 0.0
C373 C 0.71801 0.64637 0.90482 0.0
C374 C 0.70939 0.63963 0.01447 0.0
C375 C 0.71393 0.61929 0.04696 0.0
C376 C 0.74761 0.62994 0.0643 0.0
C377 C 0.77669 0.66152 0.04903 0.0
C378 C 0.77208 0.68209 0.01666 0.0
H379 H 0.7173 0.64533 0.86755 0.0
H380 H 0.74081 0.64397 0.91671 0.0
H381 H 0.69346 0.62329 0.91759 0.0
H382 H 0.68312 0.63102 1.00168 0.0
H383 H 0.69109 0.59506 0.05823 0.0
H384 H 0.0865 0.75878 0.44345 0.0
H385 H 0.03372 0.73791 0.39699 0.0
H386 H 0.09803 0.76602 0.27756 0.0
H387 H 0.15084 0.78596 0.32366 0.0
H388 H 0.01185 0.76794 0.33357 0.0
H389 H 0.03006 0.66221 0.25749 0.0
H390 H 0.05556 0.68778 0.30495 0.0
H391 H 0.06702 0.7057 0.24911 0.0
C392 C 0.08949 0.76086 0.40731 0.0
C393 C 0.12282 0.77364 0.38724 0.0
C394 C 0.05928 0.74891 0.38081 0.0
C395 C 0.06187 0.74967 0.33383 0.0
C396 C 0.09533 0.7643 0.31375 0.0
H397 H 0.90537 0.6709 0.12133 0.0
H398 H 0.95911 0.70491 0.16545 0.0
C399 C 0.12551 0.77589 0.34017 0.0
C400 C 0.02946 0.7338 0.30601 0.0
H401 H 0.98385 0.66957 0.22813 0.0
C402 C 0.0057 0.74644 0.31052 0.0
C403 C 0.02136 0.70552 0.27622 0.0
C404 C 0.04464 0.68923 0.27189 0.0
C405 C 0.97424 0.73177 0.28562 0.0
C406 C 0.96644 0.70379 0.25566 0.0
C407 C 0.99019 0.69127 0.25095 0.0
C408 C 0.93327 0.68623 0.22963 0.0
C409 C 0.94965 0.74636 0.29114 0.0
C410 C 0.90097 0.66469 0.25129 0.0
C411 C 0.87019 0.645 0.22622 0.0
C412 C 0.87126 0.64659 0.17903 0.0
C413 C 0.90355 0.66911 0.15758 0.0
C414 C 0.93431 0.68857 0.18269 0.0
H415 H 0.96251 0.77211 0.30898 0.0
H416 H 0.94024 0.74979 0.25792 0.0
H417 H 0.92622 0.72741 0.31085 0.0
H418 H 0.8998 0.66221 0.28752 0.0
H419 H 0.84579 0.62791 0.24381 0.0
H420 H 0.38797 0.07888 0.74792 0.0
H421 H 0.34949 0.03087 0.69774 0.0
H422 H 0.28351 0.07744 0.68024 0.0
H423 H 0.32197 0.12573 0.73141 0.0
H424 H 0.2723 0.9826 0.70442 0.0
H425 H 0.31693 0.06677 0.55059 0.0
H426 H 0.34268 0.08004 0.60154 0.0
H427 H 0.30236 0.08125 0.59849 0.0
C428 C 0.36517 0.07884 0.73365 0.0
C429 C 0.35818 0.10623 0.74296 0.0
C430 C 0.34318 0.05137 0.70509 0.0
C431 C 0.31386 0.05078 0.68519 0.0
C432 C 0.30625 0.07768 0.69507 0.0
H433 H 0.19101 0.86373 0.51061 0.0
H434 H 0.20049 0.91143 0.56268 0.0
C435 C 0.32825 0.10523 0.72402 0.0
C436 C 0.29257 0.02242 0.65284 0.0
H437 H 0.28447 0.00537 0.54046 0.0
C438 C 0.27401 0.98748 0.66856 0.0
C439 C 0.29523 0.02911 0.60619 0.0
C440 C 0.31541 0.06624 0.58783 0.0
C441 C 0.25984 0.95886 0.63866 0.0
C442 C 0.26434 0.96556 0.59205 0.0
C443 C 0.28096 0.00049 0.57631 0.0
C444 C 0.25751 0.9372 0.55981 0.0
C445 C 0.24256 0.92171 0.65698 0.0
C446 C 0.28639 0.93625 0.54096 0.0
C447 C 0.28108 0.90908 0.51193 0.0
C448 C 0.24676 0.88239 0.50107 0.0
C449 C 0.21772 0.88366 0.5192 0.0
C450 C 0.22308 0.91089 0.54864 0.0
H451 H 0.24266 0.92111 0.69426 0.0
H452 H 0.21478 0.90664 0.64526 0.0
H453 H 0.25643 0.90802 0.6442 0.0
H454 H 0.31315 0.95631 0.54932 0.0
H455 H 0.30394 0.90881 0.49834 0.0
H456 H 0.15229 0.44839 0.79168 0.0
H457 H 0.15585 0.44226 0.7107 0.0
H458 H 0.23497 0.41215 0.73058 0.0
H459 H 0.23063 0.41693 0.81196 0.0
H460 H 0.21354 0.4776 0.65423 0.0
H461 H 0.16306 0.33311 0.65046 0.0
H462 H 0.15875 0.3552 0.69918 0.0
H463 H 0.20014 0.35751 0.68699 0.0
C464 C 0.17008 0.43992 0.77897 0.0
C465 C 0.19089 0.43276 0.80845 0.0
C466 C 0.17228 0.43672 0.7326 0.0
C467 C 0.19526 0.42623 0.71462 0.0
C468 C 0.21654 0.41961 0.74378 0.0
H469 H 0.24308 0.39204 0.44286 0.0
H470 H 0.24108 0.39877 0.524 0.0
C471 C 0.21432 0.42275 0.79027 0.0
C472 C 0.19727 0.42287 0.66528 0.0
H473 H 0.18451 0.36407 0.58191 0.0
C474 C 0.2071 0.45276 0.63837 0.0
C475 C 0.18888 0.39045 0.64469 0.0
C476 C 0.17681 0.35713 0.6717 0.0
C477 C 0.20925 0.45124 0.59146 0.0
C478 C 0.2007 0.41877 0.57085 0.0
C479 C 0.19101 0.38892 0.59778 0.0
C480 C 0.20197 0.41525 0.52143 0.0
C481 C 0.22138 0.48458 0.56448 0.0
C482 C 0.18034 0.42192 0.49299 0.0
C483 C 0.18165 0.41843 0.44644 0.0
C484 C 0.20449 0.40798 0.42744 0.0
C485 C 0.2257 0.40082 0.4562 0.0
C486 C 0.22441 0.40437 0.50266 0.0
H487 H 0.23561 0.50858 0.58564 0.0
H488 H 0.239 0.48625 0.53657 0.0
H489 H 0.19802 0.48451 0.54979 0.0
H490 H 0.1623 0.42967 0.50682 0.0
H491 H 0.16507 0.42429 0.42532 0.0
H492 H 0.77966 0.14269 0.12371 0.0
H493 H 0.78154 0.1516 0.04257 0.0
H494 H 0.80705 0.25939 0.06318 0.0
H495 H 0.8048 0.25063 0.14454 0.0
H496 H 0.74155 0.17111 0.98914 0.0
H497 H 0.88437 0.26967 0.97644 0.0
H498 H 0.86509 0.24292 0.02587 0.0
H499 H 0.8606 0.28105 0.0159 0.0
C500 C 0.78542 0.16827 0.11113 0.0
C501 C 0.79207 0.19594 0.14093 0.0
C502 C 0.78666 0.17335 0.06462 0.0
C503 C 0.79488 0.20627 0.04667 0.0
C504 C 0.80138 0.23394 0.07618 0.0
H505 H 0.81205 0.28979 0.77783 0.0
H506 H 0.8091 0.27952 0.85869 0.0
C507 C 0.8001 0.22888 0.12277 0.0
C508 C 0.796 0.21137 0.99712 0.0
H509 H 0.8501 0.25979 0.91068 0.0
C510 C 0.76533 0.19038 0.97194 0.0
C511 C 0.82704 0.23648 0.97464 0.0
C512 C 0.86127 0.25863 0.99945 0.0
C513 C 0.76464 0.19435 0.92513 0.0
C514 C 0.79563 0.2196 0.90271 0.0
C515 C 0.82633 0.24048 0.92786 0.0
C516 C 0.79671 0.22519 0.85328 0.0
C517 C 0.7305 0.17211 0.90019 0.0
C518 C 0.79092 0.19811 0.82313 0.0
C519 C 0.79287 0.20397 0.77666 0.0
C520 C 0.80085 0.23714 0.75933 0.0
C521 C 0.80645 0.2641 0.78978 0.0
C522 C 0.80457 0.25823 0.83613 0.0
H523 H 0.70739 0.16037 0.9232 0.0
H524 H 0.72636 0.188 0.87435 0.0
H525 H 0.73164 0.15021 0.88294 0.0
H526 H 0.78546 0.17258 0.83555 0.0
H527 H 0.7889 0.18274 0.75438 0.0
H528 H 0.56887 0.81549 0.49058 0.0
H529 H 0.57452 0.82501 0.40928 0.0
H530 H 0.57056 0.72524 0.39136 0.0
H531 H 0.56367 0.71492 0.47225 0.0
H532 H 0.62674 0.82921 0.35188 0.0
H533 H 0.49577 0.71767 0.30332 0.0
H534 H 0.50642 0.7333 0.36038 0.0
H535 H 0.52132 0.70491 0.33757 0.0
C536 C 0.56871 0.79533 0.46933 0.0
C537 C 0.56567 0.76435 0.48811 0.0
C538 C 0.57219 0.80093 0.42285 0.0
C539 C 0.57244 0.77561 0.3941 0.0
C540 C 0.56975 0.74486 0.41273 0.0
H541 H 0.59445 0.75973 0.10609 0.0
H542 H 0.58851 0.75074 0.18743 0.0
C543 C 0.56627 0.73921 0.45914 0.0
C544 C 0.5764 0.78174 0.34477 0.0
H545 H 0.53655 0.74715 0.24415 0.0
C546 C 0.60694 0.81139 0.32832 0.0
C547 C 0.55058 0.75842 0.31402 0.0
C548 C 0.51652 0.72696 0.32963 0.0
C549 C 0.61271 0.81797 0.282 0.0
C550 C 0.58693 0.7946 0.25123 0.0
C551 C 0.55635 0.765 0.2677 0.0
C552 C 0.59106 0.80046 0.20185 0.0
C553 C 0.64679 0.84944 0.26642 0.0
C554 C 0.59413 0.83124 0.18276 0.0
C555 C 0.59783 0.8366 0.1363 0.0
C556 C 0.59823 0.81114 0.10774 0.0
C557 C 0.59479 0.78015 0.127 0.0
C558 C 0.59113 0.77484 0.17351 0.0
H559 H 0.66748 0.85879 0.29279 0.0
H560 H 0.65695 0.84307 0.23576 0.0
H561 H 0.64197 0.87146 0.25834 0.0
H562 H 0.59345 0.85109 0.20379 0.0
H563 H 0.60074 0.86093 0.12284 0.0
H564 H 0.83861 0.5729 0.78474 0.0
H565 H 0.83135 0.5673 0.70328 0.0
H566 H 0.74896 0.59399 0.71132 0.0
H567 H 0.75585 0.59943 0.79299 0.0
H568 H 0.77133 0.52287 0.65241 0.0
H569 H 0.81712 0.66418 0.61817 0.0
H570 H 0.82437 0.64898 0.67132 0.0
H571 H 0.78189 0.64381 0.65838 0.0
C572 C 0.81868 0.57725 0.76929 0.0
C573 C 0.79784 0.58667 0.79545 0.0
C574 C 0.81472 0.57423 0.72268 0.0
C575 C 0.79001 0.58076 0.70117 0.0
C576 C 0.76874 0.58961 0.72714 0.0
H577 H 0.72671 0.57686 0.4247 0.0
H578 H 0.73443 0.58236 0.50612 0.0
C579 C 0.7727 0.59267 0.77381 0.0
C580 C 0.78626 0.57784 0.65162 0.0
H581 H 0.79338 0.62482 0.55669 0.0
C582 C 0.77627 0.54517 0.63142 0.0
C583 C 0.79274 0.60699 0.62435 0.0
C584 C 0.80493 0.64308 0.644 0.0
C585 C 0.77188 0.54065 0.58472 0.0
C586 C 0.77835 0.56981 0.55743 0.0
C587 C 0.78843 0.6025 0.57765 0.0
C588 C 0.77431 0.56686 0.50787 0.0
C589 C 0.75948 0.50448 0.5652 0.0
C590 C 0.7946 0.55688 0.48166 0.0
C591 C 0.79025 0.55372 0.43504 0.0
C592 C 0.76581 0.56089 0.41369 0.0
C593 C 0.74604 0.57154 0.44 0.0
C594 C 0.75029 0.57453 0.48658 0.0
H595 H 0.74687 0.48343 0.59103 0.0
H596 H 0.74033 0.49873 0.53756 0.0
H597 H 0.78251 0.50342 0.55138 0.0
H598 H 0.81393 0.55169 0.49723 0.0
H599 H 0.80625 0.54599 0.41566 0.0
H600 H 0.2469 0.81899 0.77091 0.0
H601 H 0.25512 0.82096 0.85242 0.0
H602 H 0.14294 0.75342 0.87048 0.0
H603 H 0.1344 0.75155 0.78933 0.0
H604 H 0.22642 0.84415 0.91962 0.0
H605 H 0.18387 0.70238 0.94235 0.0
H606 H 0.1947 0.72359 0.88806 0.0
H607 H 0.15246 0.7102 0.91325 0.0
C608 C 0.22394 0.80469 0.79221 0.0
C609 C 0.19001 0.78484 0.7734 0.0
C610 C 0.22871 0.80572 0.8388 0.0
C611 C 0.19973 0.7868 0.86753 0.0
C612 C 0.1658 0.76748 0.84895 0.0
H613 H 0.17362 0.76295 0.15814 0.0
H614 H 0.16445 0.76047 0.07677 0.0
C615 C 0.16099 0.76644 0.80246 0.0
C616 C 0.2048 0.78785 0.91697 0.0
H617 H 0.19259 0.73584 1.00866 0.0
C618 C 0.2192 0.82051 0.93907 0.0
C619 C 0.19522 0.75694 0.94236 0.0
C620 C 0.18099 0.72131 0.92034 0.0
C621 C 0.22378 0.82303 0.98588 0.0
C622 C 0.21425 0.79214 0.01124 0.0
C623 C 0.19977 0.75947 0.98919 0.0
C624 C 0.21982 0.79333 0.06056 0.0
C625 C 0.23815 0.85866 1.00794 0.0
C626 C 0.25403 0.81206 0.07842 0.0
C627 C 0.25939 0.81332 0.12479 0.0
C628 C 0.23065 0.79581 0.15448 0.0
C629 C 0.19639 0.77655 0.13637 0.0
C630 C 0.19107 0.77524 0.08987 0.0
H631 H 0.23551 0.87773 0.98591 0.0
H632 H 0.22435 0.85641 0.04014 0.0
H633 H 0.26662 0.86956 0.01525 0.0
H634 H 0.27668 0.82551 0.05641 0.0
H635 H 0.2862 0.8277 0.13734 0.0
H636 H 0.42866 0.17559 0.46811 0.0
H637 H 0.43566 0.17505 0.38658 0.0
H638 H 0.38608 0.23835 0.37001 0.0
H639 H 0.37869 0.23879 0.45123 0.0
H640 H 0.38341 0.15002 0.32003 0.0
H641 H 0.47757 0.29325 0.29787 0.0
H642 H 0.46821 0.27185 0.35201 0.0
H643 H 0.4378 0.28337 0.32731 0.0
C644 C 0.41912 0.18929 0.44712 0.0
C645 C 0.40335 0.20746 0.46631 0.0
C646 C 0.42329 0.18909 0.40056 0.0
C647 C 0.41196 0.20718 0.37229 0.0
C648 C 0.39583 0.22497 0.39124 0.0
H649 H 0.40699 0.22923 0.08173 0.0
H650 H 0.40047 0.23196 0.16314 0.0
C651 C 0.39165 0.22519 0.43773 0.0
C652 C 0.41603 0.20659 0.32287 0.0
H653 H 0.45407 0.25953 0.23144 0.0
C654 C 0.399 0.17393 0.30067 0.0
C655 C 0.43625 0.23787 0.29767 0.0
C656 C 0.45628 0.27357 0.31988 0.0
C657 C 0.40126 0.17172 0.25388 0.0
C658 C 0.42155 0.20296 0.22871 0.0
C659 C 0.43846 0.23565 0.25084 0.0
C660 C 0.42622 0.20209 0.1795 0.0
C661 C 0.3814 0.13602 0.23164 0.0
C662 C 0.44352 0.18506 0.16184 0.0
C663 C 0.44752 0.18366 0.1155 0.0
C664 C 0.43432 0.19933 0.08573 0.0
C665 C 0.41765 0.21707 0.10363 0.0
C666 C 0.41374 0.21851 0.15012 0.0
H667 H 0.36027 0.11619 0.25368 0.0
H668 H 0.36933 0.13768 0.1996 0.0
H669 H 0.40006 0.12647 0.22397 0.0
H670 H 0.45407 0.17291 0.18397 0.0
H671 H 0.46124 0.17052 0.10302 0.0
H672 H 0.19944 0.53369 0.14381 0.0
H673 H 0.19668 0.57714 0.19293 0.0
H674 H 0.15251 0.49936 0.29858 0.0
H675 H 0.15653 0.45633 0.25037 0.0
H676 H 0.14515 0.58125 0.23505 0.0
H677 H 0.23566 0.57709 0.36186 0.0
H678 H 0.22845 0.55581 0.30801 0.0
H679 H 0.19734 0.53465 0.35304 0.0
C680 C 0.189 0.52584 0.17745 0.0
C681 C 0.17865 0.49179 0.19347 0.0
C682 C 0.18744 0.55068 0.20549 0.0
C683 C 0.17522 0.54179 0.24984 0.0
C684 C 0.16312 0.50719 0.26502 0.0
H685 H 0.12336 0.67077 0.42375 0.0
H686 H 0.12039 0.62505 0.37325 0.0
C687 C 0.16523 0.48256 0.23732 0.0
C688 C 0.1758 0.56887 0.28043 0.0
H689 H 0.2065 0.6086 0.38198 0.0
C690 C 0.15864 0.58732 0.26714 0.0
C691 C 0.19395 0.57723 0.32196 0.0
C692 C 0.2152 0.56043 0.33688 0.0
C693 C 0.15886 0.61364 0.2944 0.0
C694 C 0.1758 0.62094 0.33669 0.0
C695 C 0.19314 0.60267 0.3498 0.0
C696 C 0.17712 0.64833 0.36731 0.0
C697 C 0.14184 0.63405 0.27706 0.0
C698 C 0.20989 0.67583 0.38204 0.0
C699 C 0.21156 0.70141 0.41151 0.0
C700 C 0.18052 0.70021 0.42643 0.0
C701 C 0.14768 0.67243 0.41234 0.0
C702 C 0.14599 0.64656 0.38315 0.0
H703 H 0.13901 0.63224 0.23995 0.0
H704 H 0.11505 0.6229 0.29179 0.0
H705 H 0.15744 0.66235 0.28657 0.0
H706 H 0.23424 0.67755 0.37063 0.0
H707 H 0.2372 0.72215 0.42264 0.0
H708 H 0.68312 0.13098 0.49561 0.0
H709 H 0.63595 0.12805 0.54328 0.0
H710 H 0.68049 0.24074 0.52997 0.0
H711 H 0.72813 0.24384 0.48354 0.0
H712 H 0.6628 0.22034 0.61481 0.0
H713 H 0.55084 0.13362 0.50375 0.0
H714 H 0.57726 0.11459 0.52 0.0
H715 H 0.59624 0.15376 0.48575 0.0
C716 C 0.68266 0.15504 0.50282 0.0
C717 C 0.70909 0.18762 0.48597 0.0
C718 C 0.65564 0.15333 0.5298 0.0
C719 C 0.65431 0.18409 0.53953 0.0
C720 C 0.68091 0.21666 0.5228 0.0
H721 H 0.47717 0.20053 0.63779 0.0
H722 H 0.52291 0.19804 0.59352 0.0
C723 C 0.70809 0.21841 0.49631 0.0
C724 C 0.62569 0.18271 0.5678 0.0
H725 H 0.53618 0.1459 0.57562 0.0
C726 C 0.6351 0.20408 0.60623 0.0
C727 C 0.58959 0.16183 0.55624 0.0
C728 C 0.57782 0.13991 0.51396 0.0
C729 C 0.60947 0.20528 0.63335 0.0
C730 C 0.57331 0.18363 0.62252 0.0
C731 C 0.56388 0.1622 0.58413 0.0
C732 C 0.54491 0.18389 0.64954 0.0
C733 C 0.62154 0.23061 0.67244 0.0
C734 C 0.5416 0.17608 0.6956 0.0
C735 C 0.51576 0.17795 0.72116 0.0
C736 C 0.4923 0.18701 0.70092 0.0
C737 C 0.49486 0.19355 0.65447 0.0
C738 C 0.52098 0.19211 0.62908 0.0
H739 H 0.64944 0.25196 0.66847 0.0
H740 H 0.60476 0.24288 0.67633 0.0
H741 H 0.61973 0.21603 0.70375 0.0
H742 H 0.5591 0.16867 0.71187 0.0
H743 H 0.51417 0.17227 0.75674 0.0
H744 H 0.25911 0.51435 0.07546 0.0
H745 H 0.30259 0.55756 0.02364 0.0
H746 H 0.36065 0.50163 0.0264 0.0
H747 H 0.31609 0.45727 0.07667 0.0
H748 H 0.37023 0.60148 0.03705 0.0
H749 H 0.35617 0.51523 0.89324 0.0
H750 H 0.32465 0.50087 0.93867 0.0
H751 H 0.36527 0.50018 0.94488 0.0
C752 C 0.28079 0.51091 0.0643 0.0
C753 C 0.28397 0.48219 0.07934 0.0
C754 C 0.30571 0.5357 0.0349 0.0
C755 C 0.33452 0.53247 0.02035 0.0
C756 C 0.33811 0.50411 0.03608 0.0
H757 H 0.53094 0.70637 0.9262 0.0
H758 H 0.48309 0.65764 0.96705 0.0
C759 C 0.31291 0.47904 0.06519 0.0
C760 C 0.36179 0.56003 0.99096 0.0
H761 H 0.40704 0.57318 0.89267 0.0
C762 C 0.37807 0.59527 1.00533 0.0
C763 C 0.37157 0.55204 0.94916 0.0
C764 C 0.35324 0.51508 0.9303 0.0
C765 C 0.40441 0.62265 0.97966 0.0
C766 C 0.41569 0.61445 0.93915 0.0
C767 C 0.39876 0.57934 0.92407 0.0
C768 C 0.44544 0.64203 0.91262 0.0
C769 C 0.41948 0.66014 0.99604 0.0
C770 C 0.44082 0.64826 0.86753 0.0
C771 C 0.46849 0.67584 0.84366 0.0
C772 C 0.50106 0.69766 0.86471 0.0
C773 C 0.50595 0.69043 0.90928 0.0
C774 C 0.47856 0.66267 0.93278 0.0
H775 H 0.40072 0.66283 0.0186 0.0
H776 H 0.44393 0.66781 0.01544 0.0
H777 H 0.42613 0.67886 0.96761 0.0
H778 H 0.41554 0.63241 0.85121 0.0
H779 H 0.46403 0.68078 0.80933 0.0
H780 H 0.82485 0.34274 0.4265 0.0
H781 H 0.82869 0.3902 0.37901 0.0
H782 H 0.79902 0.32159 0.2637 0.0
H783 H 0.79633 0.2745 0.31049 0.0
H784 H 0.85172 0.38568 0.24355 0.0
H785 H 0.74689 0.39824 0.33218 0.0
H786 H 0.78266 0.40494 0.36806 0.0
H787 H 0.75512 0.36237 0.34287 0.0
C788 C 0.8191 0.33775 0.39104 0.0
C789 C 0.81002 0.30476 0.37236 0.0
C790 C 0.8211 0.36485 0.36398 0.0
C791 C 0.81339 0.35923 0.31796 0.0
C792 C 0.80491 0.32649 0.29916 0.0
H793 H 0.75518 0.47713 0.14001 0.0
H794 H 0.75805 0.43443 0.19038 0.0
C795 C 0.80335 0.29957 0.32602 0.0
C796 C 0.81431 0.38736 0.28909 0.0
H797 H 0.77871 0.44078 0.27592 0.0
C798 C 0.83575 0.39773 0.2506 0.0
C799 C 0.79312 0.40276 0.29805 0.0
C800 C 0.76788 0.3913 0.33727 0.0
C801 C 0.83646 0.42289 0.22068 0.0
C802 C 0.81593 0.4389 0.23024 0.0
C803 C 0.79466 0.4287 0.26887 0.0
C804 C 0.81471 0.46502 0.19958 0.0
C805 C 0.85826 0.43115 0.17842 0.0
C806 C 0.84558 0.49654 0.18823 0.0
C807 C 0.844 0.52079 0.15903 0.0
C808 C 0.81145 0.51415 0.1415 0.0
C809 C 0.78058 0.48288 0.15327 0.0
C810 C 0.7822 0.45852 0.18204 0.0
H811 H 0.86439 0.40999 0.17025 0.0
H812 H 0.84441 0.43464 0.14935 0.0
H813 H 0.88367 0.45604 0.18323 0.0
H814 H 0.87083 0.50253 0.20222 0.0
H815 H 0.86811 0.54493 0.15073 0.0
H816 H 0.33145 0.80387 0.48581 0.0
H817 H 0.3782 0.80618 0.53351 0.0
H818 H 0.31802 0.79944 0.65152 0.0
H819 H 0.27121 0.79707 0.60446 0.0
H820 H 0.41685 0.85642 0.60564 0.0
H821 H 0.34007 0.71727 0.66439 0.0
H822 H 0.32805 0.73288 0.61502 0.0
H823 H 0.31833 0.74278 0.66989 0.0
C824 C 0.32814 0.8029 0.5219 0.0
C825 C 0.29745 0.80006 0.54125 0.0
C826 C 0.35489 0.80426 0.54906 0.0
C827 C 0.35126 0.80248 0.59592 0.0
C828 C 0.32102 0.80028 0.61537 0.0
H829 H 0.47566 0.79601 0.81873 0.0
H830 H 0.43038 0.79638 0.77049 0.0
C831 C 0.29436 0.79908 0.58834 0.0
C832 C 0.37915 0.8031 0.62465 0.0
H833 H 0.3954 0.75349 0.69897 0.0
C834 C 0.41231 0.83392 0.62593 0.0
C835 C 0.37293 0.77371 0.65115 0.0
C836 C 0.33803 0.73963 0.64996 0.0
C837 C 0.43935 0.83637 0.65378 0.0
C838 C 0.43321 0.80689 0.68018 0.0
C839 C 0.40002 0.77605 0.67876 0.0
C840 C 0.46091 0.80736 0.70934 0.0
C841 C 0.4739 0.87081 0.65551 0.0
C842 C 0.49291 0.8131 0.69088 0.0
C843 C 0.51881 0.81318 0.71838 0.0
C844 C 0.51292 0.80692 0.76469 0.0
C845 C 0.48083 0.80093 0.78313 0.0
C846 C 0.45498 0.80106 0.75563 0.0
H847 H 0.47089 0.89327 0.64369 0.0
H848 H 0.48479 0.87657 0.6901 0.0
H849 H 0.49333 0.86903 0.63329 0.0
H850 H 0.49775 0.81724 0.65514 0.0
H851 H 0.54343 0.81809 0.70334 0.0
H852 H 0.72137 0.51287 0.96674 0.0
H853 H 0.67162 0.46954 0.92235 0.0
H854 H 0.60601 0.43607 0.04082 0.0
H855 H 0.65602 0.47857 0.08582 0.0
H856 H 0.59772 0.38088 0.99522 0.0
H857 H 0.58706 0.47262 0.87695 0.0
H858 H 0.63055 0.47813 0.87648 0.0
H859 H 0.61405 0.48778 0.92677 0.0
C860 C 0.6963 0.49645 0.98335 0.0
C861 C 0.69264 0.49917 0.02983 0.0
C862 C 0.66777 0.47186 0.95781 0.0
C863 C 0.63483 0.45003 0.97804 0.0
C864 C 0.63111 0.45277 0.02443 0.0
H865 H 0.44629 0.31638 0.81716 0.0
H866 H 0.4888 0.36199 0.86807 0.0
C867 C 0.65975 0.47706 0.05011 0.0
C868 C 0.60483 0.42311 0.95123 0.0
H869 H 0.55747 0.41151 0.85535 0.0
C870 C 0.58868 0.38765 0.9649 0.0
C871 C 0.59249 0.43196 0.91214 0.0
C872 C 0.60669 0.46974 0.8975 0.0
C873 C 0.56151 0.3607 0.93967 0.0
C874 C 0.55092 0.36933 0.89897 0.0
C875 C 0.56603 0.40488 0.8862 0.0
C876 C 0.52503 0.34176 0.86851 0.0
C877 C 0.54426 0.32327 0.95706 0.0
C878 C 0.53164 0.31574 0.85128 0.0
C879 C 0.50742 0.28974 0.82252 0.0
C880 C 0.47636 0.28953 0.81009 0.0
C881 C 0.47007 0.31601 0.82638 0.0
C882 C 0.49425 0.34196 0.85545 0.0
H883 H 0.54712 0.32261 0.99404 0.0
H884 H 0.51572 0.30839 0.94859 0.0
H885 H 0.5572 0.30956 0.94156 0.0
H886 H 0.55568 0.31567 0.85983 0.0
H887 H 0.5131 0.26988 0.80981 0.0
loop_
_geom_bond_atom_site_label_1
_geom_bond_atom_site_label_2
_geom_bond_distance
_geom_bond_site_symmetry_2
_ccdc_geom_bond_type
La0 C2 2.928 . S
La0 O20 2.521 . S
La0 O21 2.628 . S
La0 O22 2.554 . S
La0 O23 2.757 . S
La0 O24 2.470 . S
La0 O29 2.482 . S
La0 O31 2.503 . S
La1 C11 2.928 . S
La1 O23 2.482 . S
La1 O25 2.503 . S
La1 O26 2.521 . S
La1 O27 2.628 . S
La1 O28 2.554 . S
La1 O29 2.757 . S
La1 O30 2.470 . S
C2 La0 2.928 . S
C2 C3 1.503 1_554 S
C2 O20 1.261 . S
C2 O21 1.243 . S
C3 C2 1.503 1_556 S
C3 C4 1.394 . S
C3 C8 1.373 . S
C4 C3 1.394 . S
C4 C5 1.380 . S
C4 H32 0.930 . S
C5 C4 1.380 . S
C5 C6 1.376 . S
C5 H33 0.930 . S
C6 C5 1.376 . S
C6 C7 1.370 . S
C7 C6 1.370 . S
C7 C8 1.396 . S
C7 H34 0.929 . S
C8 C3 1.373 . S
C8 C7 1.396 . S
C8 H35 0.929 . S
C9 O22 1.240 . S
C9 O23 1.289 . S
C10 O24 1.258 . S
C10 O25 1.256 . S
C11 La1 2.928 . S
C11 C12 1.503 . S
C11 O26 1.261 . S
C11 O27 1.243 . S
C12 C11 1.503 . S
C12 C13 1.394 . S
C12 C17 1.373 . S
C13 C12 1.394 . S
C13 C14 1.380 . S
C13 H36 0.930 . S
C14 C13 1.380 . S
C14 C15 1.376 . S
C14 H37 0.930 . S
C15 C14 1.376 . S
C15 C16 1.370 . S
C16 C15 1.370 . S
C16 C17 1.396 . S
C16 H38 0.929 . S
C17 C12 1.373 . S
C17 C16 1.396 . S
C17 H39 0.929 . S
C18 O28 1.240 . S
C18 O29 1.289 . S
C19 O30 1.258 . S
C19 O31 1.256 . S
O20 La0 2.521 . S
O20 C2 1.261 . S
O21 La0 2.628 . S
O21 C2 1.243 . S
O22 La0 2.554 . S
O22 C9 1.240 . S
O23 La0 2.757 . S
O23 La1 2.482 . S
O23 C9 1.289 . S
O24 La0 2.470 . S
O24 C10 1.258 . S
O25 La1 2.503 . S
O25 C10 1.256 . S
O26 La1 2.521 . S
O26 C11 1.261 . S
O27 La1 2.628 . S
O27 C11 1.243 . S
O28 La1 2.554 . S
O28 C18 1.240 . S
O29 La0 2.482 . S
O29 La1 2.757 . S
O29 C18 1.289 . S
O30 La1 2.470 . S
O30 C19 1.258 . S
O31 La0 2.503 . S
O31 C19 1.256 . S
H32 C4 0.930 . S
H33 C5 0.930 . S
H34 C7 0.929 . S
H35 C8 0.929 . S
H36 C13 0.930 . S
H37 C14 0.930 . S
H38 C16 0.929 . S
H39 C17 0.929 . S
La40 C42 2.928 . S
La40 O60 2.521 . S
La40 O61 2.628 . S
La40 O62 2.554 . S
La40 O63 2.757 . S
La40 O64 2.470 . S
La40 O69 2.482 . S
La40 O71 2.503 . S
La41 C51 2.928 . S
La41 O63 2.482 . S
La41 O65 2.503 . S
La41 O66 2.521 . S
La41 O67 2.628 . S
La41 O68 2.554 . S
La41 O69 2.757 . S
La41 O70 2.470 . S
C42 La40 2.928 . S
C42 C43 1.503 . S
C42 O60 1.261 . S
C42 O61 1.243 . S
C43 C42 1.503 . S
C43 C44 1.394 . S
C43 C48 1.373 . S
C44 C43 1.394 . S
C44 C45 1.380 . S
C44 H72 0.930 . S
C45 C44 1.380 . S
C45 C46 1.376 . S
C45 H73 0.930 . S
C46 C45 1.376 . S
C46 C47 1.370 . S
C47 C46 1.370 . S
C47 C48 1.396 . S
C47 H74 0.929 . S
C48 C43 1.373 . S
C48 C47 1.396 . S
C48 H75 0.929 . S
C49 O62 1.240 . S
C49 O63 1.289 . S
C50 O64 1.258 . S
C50 O65 1.256 . S
C51 La41 2.928 . S
C51 C52 1.503 . S
C51 O66 1.261 . S
C51 O67 1.243 . S
C52 C51 1.503 . S
C52 C53 1.394 . S
C52 C57 1.373 . S
C53 C52 1.394 . S
C53 C54 1.380 . S
C53 H76 0.930 . S
C54 C53 1.380 . S
C54 C55 1.376 . S
C54 H77 0.930 . S
C55 C54 1.376 . S
C55 C56 1.370 . S
C56 C55 1.370 . S
C56 C57 1.396 . S
C56 H78 0.929 . S
C57 C52 1.373 . S
C57 C56 1.396 . S
C57 H79 0.929 . S
C58 O68 1.240 . S
C58 O69 1.289 . S
C59 O70 1.258 . S
C59 O71 1.256 . S
O60 La40 2.521 . S
O60 C42 1.261 . S
O61 La40 2.628 . S
O61 C42 1.243 . S
O62 La40 2.554 . S
O62 C49 1.240 . S
O63 La40 2.757 . S
O63 La41 2.482 . S
O63 C49 1.289 . S
O64 La40 2.470 . S
O64 C50 1.258 . S
O65 La41 2.503 . S
O65 C50 1.256 . S
O66 La41 2.521 . S
O66 C51 1.261 . S
O67 La41 2.628 . S
O67 C51 1.243 . S
O68 La41 2.554 . S
O68 C58 1.240 . S
O69 La40 2.482 . S
O69 La41 2.757 . S
O69 C58 1.289 . S
O70 La41 2.470 . S
O70 C59 1.258 . S
O71 La40 2.503 . S
O71 C59 1.256 . S
H72 C44 0.930 . S
H73 C45 0.930 . S
H74 C47 0.929 . S
H75 C48 0.929 . S
H76 C53 0.930 . S
H77 C54 0.930 . S
H78 C56 0.929 . S
H79 C57 0.929 . S
La80 C82 2.928 . S
La80 O100 2.521 . S
La80 O101 2.628 . S
La80 O102 2.554 . S
La80 O103 2.757 . S
La80 O104 2.470 . S
La80 O109 2.482 . S
La80 O111 2.503 . S
La81 C91 2.928 1_556 S
La81 O103 2.482 . S
La81 O105 2.503 . S
La81 O106 2.521 . S
La81 O107 2.628 . S
La81 O108 2.554 . S
La81 O109 2.757 . S
La81 O110 2.470 . S
C82 La80 2.928 . S
C82 C83 1.503 . S
C82 O100 1.261 . S
C82 O101 1.243 . S
C83 C82 1.503 . S
C83 C84 1.394 . S
C83 C88 1.373 . S
C84 C83 1.394 . S
C84 C85 1.380 . S
C84 H112 0.930 . S
C85 C84 1.380 . S
C85 C86 1.376 . S
C85 H113 0.930 . S
C86 C85 1.376 . S
C86 C87 1.370 . S
C87 C86 1.370 . S
C87 C88 1.396 . S
C87 H114 0.929 . S
C88 C83 1.373 . S
C88 C87 1.396 . S
C88 H115 0.929 . S
C89 O102 1.240 . S
C89 O103 1.289 . S
C90 O104 1.258 . S
C90 O105 1.256 . S
C91 La81 2.928 1_554 S
C91 C92 1.503 . S
C91 O106 1.261 1_554 S
C91 O107 1.243 1_554 S
C92 C91 1.503 . S
C92 C93 1.394 . S
C92 C97 1.373 . S
C93 C92 1.394 . S
C93 C94 1.380 . S
C93 H116 0.930 . S
C94 C93 1.380 . S
C94 C95 1.376 . S
C94 H117 0.930 . S
C95 C94 1.376 . S
C95 C96 1.370 . S
C96 C95 1.370 . S
C96 C97 1.396 . S
C96 H118 0.929 . S
C97 C92 1.373 . S
C97 C96 1.396 . S
C97 H119 0.929 . S
C98 O108 1.240 . S
C98 O109 1.289 . S
C99 O110 1.258 . S
C99 O111 1.256 . S
O100 La80 2.521 . S
O100 C82 1.261 . S
O101 La80 2.628 . S
O101 C82 1.243 . S
O102 La80 2.554 . S
O102 C89 1.240 . S
O103 La80 2.757 . S
O103 La81 2.482 . S
O103 C89 1.289 . S
O104 La80 2.470 . S
O104 C90 1.258 . S
O105 La81 2.503 . S
O105 C90 1.256 . S
O106 La81 2.521 . S
O106 C91 1.261 1_556 S
O107 La81 2.628 . S
O107 C91 1.243 1_556 S
O108 La81 2.554 . S
O108 C98 1.240 . S
O109 La80 2.482 . S
O109 La81 2.757 . S
O109 C98 1.289 . S
O110 La81 2.470 . S
O110 C99 1.258 . S
O111 La80 2.503 . S
O111 C99 1.256 . S
H112 C84 0.930 . S
H113 C85 0.930 . S
H114 C87 0.929 . S
H115 C88 0.929 . S
H116 C93 0.930 . S
H117 C94 0.930 . S
H118 C96 0.929 . S
H119 C97 0.929 . S
La120 C122 2.928 . S
La120 O140 2.521 . S
La120 O141 2.628 . S
La120 O142 2.554 . S
La120 O143 2.757 1_554 S
La120 O144 2.470 . S
La120 O149 2.482 . S
La120 O151 2.503 . S
La121 C131 2.928 . S
La121 O143 2.482 . S
La121 O145 2.503 1_556 S
La121 O146 2.521 . S
La121 O147 2.628 . S
La121 O148 2.554 . S
La121 O149 2.757 1_556 S
La121 O150 2.470 . S
C122 La120 2.928 . S
C122 C123 1.503 . S
C122 O140 1.261 . S
C122 O141 1.243 . S
C123 C122 1.503 . S
C123 C124 1.394 . S
C123 C128 1.373 . S
C124 C123 1.394 . S
C124 C125 1.380 . S
C124 H152 0.930 . S
C125 C124 1.380 . S
C125 C126 1.376 . S
C125 H153 0.930 . S
C126 C125 1.376 . S
C126 C127 1.370 . S
C127 C126 1.370 . S
C127 C128 1.396 . S
C127 H154 0.929 . S
C128 C123 1.373 . S
C128 C127 1.396 . S
C128 H155 0.929 . S
C129 O142 1.240 . S
C129 O143 1.289 1_554 S
C130 O144 1.258 . S
C130 O145 1.256 . S
C131 La121 2.928 . S
C131 C132 1.503 . S
C131 O146 1.261 . S
C131 O147 1.243 . S
C132 C131 1.503 . S
C132 C133 1.394 . S
C132 C137 1.373 . S
C133 C132 1.394 . S
C133 C134 1.380 . S
C133 H156 0.930 . S
C134 C133 1.380 . S
C134 C135 1.376 . S
C134 H157 0.930 . S
C135 C134 1.376 . S
C135 C136 1.370 . S
C136 C135 1.370 . S
C136 C137 1.396 . S
C136 H158 0.929 . S
C137 C132 1.373 . S
C137 C136 1.396 . S
C137 H159 0.929 . S
C138 O148 1.240 1_554 S
C138 O149 1.289 . S
C139 O150 1.258 . S
C139 O151 1.256 1_556 S
O140 La120 2.521 . S
O140 C122 1.261 . S
O141 La120 2.628 . S
O141 C122 1.243 . S
O142 La120 2.554 . S
O142 C129 1.240 . S
O143 La120 2.757 1_556 S
O143 La121 2.482 . S
O143 C129 1.289 1_556 S
O144 La120 2.470 . S
O144 C130 1.258 . S
O145 La121 2.503 1_554 S
O145 C130 1.256 . S
O146 La121 2.521 . S
O146 C131 1.261 . S
O147 La121 2.628 . S
O147 C131 1.243 . S
O148 La121 2.554 . S
O148 C138 1.240 1_556 S
O149 La120 2.482 . S
O149 La121 2.757 1_554 S
O149 C138 1.289 . S
O150 La121 2.470 . S
O150 C139 1.258 . S
O151 La120 2.503 . S
O151 C139 1.256 1_554 S
H152 C124 0.930 . S
H153 C125 0.930 . S
H154 C127 0.929 . S
H155 C128 0.929 . S
H156 C133 0.930 . S
H157 C134 0.930 . S
H158 C136 0.929 . S
H159 C137 0.929 . S
La160 C162 2.928 . S
La160 O180 2.521 . S
La160 O181 2.628 . S
La160 O182 2.554 . S
La160 O183 2.757 . S
La160 O184 2.470 . S
La160 O189 2.482 . S
La160 O191 2.503 . S
La161 C171 2.928 . S
La161 O183 2.482 . S
La161 O185 2.503 . S
La161 O186 2.521 . S
La161 O187 2.628 . S
La161 O188 2.554 . S
La161 O189 2.757 . S
La161 O190 2.470 . S
C162 La160 2.928 . S
C162 C163 1.503 . S
C162 O180 1.261 . S
C162 O181 1.243 . S
C163 C162 1.503 . S
C163 C164 1.394 . S
C163 C168 1.373 . S
C164 C163 1.394 . S
C164 C165 1.380 . S
C164 H192 0.930 . S
C165 C164 1.380 . S
C165 C166 1.376 . S
C165 H193 0.930 . S
C166 C165 1.376 . S
C166 C167 1.370 . S
C167 C166 1.370 . S
C167 C168 1.396 . S
C167 H194 0.929 . S
C168 C163 1.373 . S
C168 C167 1.396 . S
C168 H195 0.929 . S
C169 O182 1.240 . S
C169 O183 1.289 . S
C170 O184 1.258 . S
C170 O185 1.256 . S
C171 La161 2.928 . S
C171 C172 1.503 . S
C171 O186 1.261 . S
C171 O187 1.243 . S
C172 C171 1.503 . S
C172 C173 1.394 . S
C172 C177 1.373 . S
C173 C172 1.394 . S
C173 C174 1.380 . S
C173 H196 0.930 . S
C174 C173 1.380 . S
C174 C175 1.376 . S
C174 H197 0.930 . S
C175 C174 1.376 . S
C175 C176 1.370 . S
C176 C175 1.370 . S
C176 C177 1.396 . S
C176 H198 0.929 . S
C177 C172 1.373 . S
C177 C176 1.396 . S
C177 H199 0.929 . S
C178 O188 1.240 . S
C178 O189 1.289 . S
C179 O190 1.258 . S
C179 O191 1.256 . S
O180 La160 2.521 . S
O180 C162 1.261 . S
O181 La160 2.628 . S
O181 C162 1.243 . S
O182 La160 2.554 . S
O182 C169 1.240 . S
O183 La160 2.757 . S
O183 La161 2.482 . S
O183 C169 1.289 . S
O184 La160 2.470 . S
O184 C170 1.258 . S
O185 La161 2.503 . S
O185 C170 1.256 . S
O186 La161 2.521 . S
O186 C171 1.261 . S
O187 La161 2.628 . S
O187 C171 1.243 . S
O188 La161 2.554 . S
O188 C178 1.240 . S
O189 La160 2.482 . S
O189 La161 2.757 . S
O189 C178 1.289 . S
O190 La161 2.470 . S
O190 C179 1.258 . S
O191 La160 2.503 . S
O191 C179 1.256 . S
H192 C164 0.930 . S
H193 C165 0.930 . S
H194 C167 0.929 . S
H195 C168 0.929 . S
H196 C173 0.930 . S
H197 C174 0.930 . S
H198 C176 0.929 . S
H199 C177 0.929 . S
La200 C202 2.928 . S
La200 O220 2.521 . S
La200 O221 2.628 . S
La200 O222 2.554 . S
La200 O223 2.757 . S
La200 O224 2.470 . S
La200 O229 2.482 . S
La200 O231 2.503 . S
La201 C211 2.928 . S
La201 O223 2.482 . S
La201 O225 2.503 . S
La201 O226 2.521 . S
La201 O227 2.628 . S
La201 O228 2.554 . S
La201 O229 2.757 . S
La201 O230 2.470 . S
C202 La200 2.928 . S
C202 C203 1.503 . S
C202 O220 1.261 . S
C202 O221 1.243 . S
C203 C202 1.503 . S
C203 C204 1.394 . S
C203 C208 1.373 . S
C204 C203 1.394 . S
C204 C205 1.380 . S
C204 H232 0.930 . S
C205 C204 1.380 . S
C205 C206 1.376 . S
C205 H233 0.930 . S
C206 C205 1.376 . S
C206 C207 1.370 . S
C207 C206 1.370 . S
C207 C208 1.396 . S
C207 H234 0.929 . S
C208 C203 1.373 . S
C208 C207 1.396 . S
C208 H235 0.929 . S
C209 O222 1.240 . S
C209 O223 1.289 . S
C210 O224 1.258 . S
C210 O225 1.256 . S
C211 La201 2.928 . S
C211 C212 1.503 . S
C211 O226 1.261 . S
C211 O227 1.243 . S
C212 C211 1.503 . S
C212 C213 1.394 . S
C212 C217 1.373 . S
C213 C212 1.394 . S
C213 C214 1.380 . S
C213 H236 0.930 . S
C214 C213 1.380 . S
C214 C215 1.376 . S
C214 H237 0.930 . S
C215 C214 1.376 . S
C215 C216 1.370 . S
C216 C215 1.370 . S
C216 C217 1.396 . S
C216 H238 0.929 . S
C217 C212 1.373 . S
C217 C216 1.396 . S
C217 H239 0.929 . S
C218 O228 1.240 . S
C218 O229 1.289 . S
C219 O230 1.258 . S
C219 O231 1.256 . S
O220 La200 2.521 . S
O220 C202 1.261 . S
O221 La200 2.628 . S
O221 C202 1.243 . S
O222 La200 2.554 . S
O222 C209 1.240 . S
O223 La200 2.757 . S
O223 La201 2.482 . S
O223 C209 1.289 . S
O224 La200 2.470 . S
O224 C210 1.258 . S
O225 La201 2.503 . S
O225 C210 1.256 . S
O226 La201 2.521 . S
O226 C211 1.261 . S
O227 La201 2.628 . S
O227 C211 1.243 . S
O228 La201 2.554 . S
O228 C218 1.240 . S
O229 La200 2.482 . S
O229 La201 2.757 . S
O229 C218 1.289 . S
O230 La201 2.470 . S
O230 C219 1.258 . S
O231 La200 2.503 . S
O231 C219 1.256 . S
H232 C204 0.930 . S
H233 C205 0.930 . S
H234 C207 0.929 . S
H235 C208 0.929 . S
H236 C213 0.930 . S
H237 C214 0.930 . S
H238 C216 0.929 . S
H239 C217 0.929 . S
H240 C248 0.929 . S
H241 C250 0.930 . S
H242 C252 0.930 . S
H243 C255 0.929 . S
H244 C258 0.930 . S
H245 C260 0.960 . S
H246 C260 0.960 . S
H247 C260 0.960 . S
C248 H240 0.929 . S
C248 C249 1.377 . S
C248 C250 1.384 . S
C249 C248 1.377 . S
C249 C255 1.390 . S
C250 H241 0.930 . S
C250 C248 1.384 . S
C250 C251 1.372 . S
C251 C250 1.372 . S
C251 C252 1.400 . S
C251 C256 1.490 . S
C252 H242 0.930 . S
C252 C251 1.400 . S
C252 C255 1.386 . S
H253 C269 0.930 . S
H254 C270 0.931 . S
C255 H243 0.929 . S
C255 C249 1.390 . S
C255 C252 1.386 . S
C256 C251 1.490 . S
C256 C258 1.395 . S
C256 C259 1.403 . S
H257 C263 0.930 . S
C258 H244 0.930 . S
C258 C256 1.395 . S
C258 C261 1.403 . S
C259 C256 1.403 . S
C259 C260 1.524 . S
C259 C263 1.400 . S
C260 H245 0.960 . S
C260 H246 0.960 . S
C260 H247 0.960 . S
C260 C259 1.524 . S
C261 C258 1.403 . S
C261 C262 1.392 . S
C261 C265 1.495 . S
C262 C261 1.392 . S
C262 C263 1.385 . S
C262 C264 1.478 1_556 S
C263 H257 0.930 . S
C263 C259 1.400 . S
C263 C262 1.385 . S
C264 C262 1.478 1_554 S
C264 C266 1.381 . S
C264 C270 1.383 . S
C265 C261 1.495 . S
C265 H271 0.959 . S
C265 H272 0.959 . S
C265 H273 0.960 . S
C266 C264 1.381 . S
C266 C267 1.394 . S
C266 H274 0.930 1_554 S
C267 C266 1.394 . S
C267 C268 1.383 . S
C267 H275 0.929 . S
C268 C267 1.383 . S
C268 C269 1.377 . S
C269 H253 0.930 . S
C269 C268 1.377 . S
C269 C270 1.379 . S
C270 H254 0.931 . S
C270 C264 1.383 . S
C270 C269 1.379 . S
H271 C265 0.959 . S
H272 C265 0.959 . S
H273 C265 0.960 . S
H274 C266 0.930 1_556 S
H275 C267 0.929 . S
H276 C284 0.929 . S
H277 C286 0.930 . S
H278 C288 0.930 . S
H279 C291 0.929 . S
H280 C294 0.930 . S
H281 C296 0.960 1_655 S
H282 C296 0.960 . S
H283 C296 0.960 . S
C284 H276 0.929 . S
C284 C285 1.377 . S
C284 C286 1.384 . S
C285 C284 1.377 . S
C285 C291 1.390 . S
C286 H277 0.930 . S
C286 C284 1.384 . S
C286 C287 1.372 . S
C287 C286 1.372 . S
C287 C288 1.400 . S
C287 C292 1.490 . S
C288 H278 0.930 . S
C288 C287 1.400 . S
C288 C291 1.386 . S
H289 C305 0.930 . S
H290 C306 0.931 . S
C291 H279 0.929 . S
C291 C285 1.390 . S
C291 C288 1.386 . S
C292 C287 1.490 . S
C292 C294 1.395 . S
C292 C295 1.403 . S
H293 C299 0.930 . S
C294 H280 0.930 . S
C294 C292 1.395 . S
C294 C297 1.403 1_455 S
C295 C292 1.403 . S
C295 C296 1.524 . S
C295 C299 1.400 1_455 S
C296 H281 0.960 1_455 S
C296 H282 0.960 . S
C296 H283 0.960 . S
C296 C295 1.524 . S
C297 C294 1.403 1_655 S
C297 C298 1.392 . S
C297 C301 1.495 . S
C298 C297 1.392 . S
C298 C299 1.385 . S
C298 C300 1.478 . S
C299 H293 0.930 . S
C299 C295 1.400 1_655 S
C299 C298 1.385 . S
C300 C298 1.478 . S
C300 C302 1.381 . S
C300 C306 1.383 . S
C301 C297 1.495 . S
C301 H307 0.959 1_655 S
C301 H308 0.961 . S
C301 H309 0.960 . S
C302 C300 1.381 . S
C302 C303 1.394 . S
C302 H310 0.930 . S
C303 C302 1.394 . S
C303 C304 1.383 . S
C303 H311 0.929 . S
C304 C303 1.383 . S
C304 C305 1.377 . S
C305 H289 0.930 . S
C305 C304 1.377 . S
C305 C306 1.379 . S
C306 H290 0.931 . S
C306 C300 1.383 . S
C306 C305 1.379 . S
H307 C301 0.959 1_455 S
H308 C301 0.961 . S
H309 C301 0.960 . S
H310 C302 0.930 . S
H311 C303 0.929 . S
H312 C320 0.929 . S
H313 C322 0.930 . S
H314 C324 0.930 . S
H315 C327 0.929 . S
H316 C330 0.930 . S
H317 C332 0.960 . S
H318 C332 0.960 . S
H319 C332 0.960 . S
C320 H312 0.929 . S
C320 C321 1.377 . S
C320 C322 1.384 . S
C321 C320 1.377 . S
C321 C327 1.390 . S
C322 H313 0.930 . S
C322 C320 1.384 . S
C322 C323 1.372 . S
C323 C322 1.372 . S
C323 C324 1.400 . S
C323 C328 1.490 . S
C324 H314 0.930 . S
C324 C323 1.400 . S
C324 C327 1.386 . S
H325 C341 0.930 . S
H326 C342 0.931 . S
C327 H315 0.929 . S
C327 C321 1.390 . S
C327 C324 1.386 . S
C328 C323 1.490 . S
C328 C330 1.395 . S
C328 C331 1.403 1_545 S
H329 C335 0.930 . S
C330 H316 0.930 . S
C330 C328 1.395 . S
C330 C333 1.403 . S
C331 C328 1.403 1_565 S
C331 C332 1.524 . S
C331 C335 1.400 . S
C332 H317 0.960 . S
C332 H318 0.960 . S
C332 H319 0.960 . S
C332 C331 1.524 . S
C333 C330 1.403 . S
C333 C334 1.392 1_545 S
C333 C337 1.495 . S
C334 C333 1.392 1_565 S
C334 C335 1.385 . S
C334 C336 1.478 . S
C335 H329 0.930 . S
C335 C331 1.400 . S
C335 C334 1.385 . S
C336 C334 1.478 . S
C336 C338 1.381 . S
C336 C342 1.383 . S
C337 C333 1.495 . S
C337 H343 0.959 . S
C337 H344 0.961 . S
C337 H345 0.960 . S
C338 C336 1.381 . S
C338 C339 1.394 . S
C338 H346 0.930 . S
C339 C338 1.394 . S
C339 C340 1.383 . S
C339 H347 0.929 . S
C340 C339 1.383 . S
C340 C341 1.377 . S
C341 H325 0.930 . S
C341 C340 1.377 . S
C341 C342 1.379 . S
C342 H326 0.931 . S
C342 C336 1.383 . S
C342 C341 1.379 . S
H343 C337 0.959 . S
H344 C337 0.961 . S
H345 C337 0.960 . S
H346 C338 0.930 . S
H347 C339 0.929 . S
H348 C356 0.929 . S
H349 C358 0.930 . S
H350 C360 0.930 . S
H351 C363 0.929 . S
H352 C366 0.930 . S
H353 C368 0.960 . S
H354 C368 0.960 . S
H355 C368 0.960 . S
C356 H348 0.929 . S
C356 C357 1.377 . S
C356 C358 1.384 . S
C357 C356 1.377 . S
C357 C363 1.390 . S
C358 H349 0.930 . S
C358 C356 1.384 . S
C358 C359 1.372 . S
C359 C358 1.372 . S
C359 C360 1.400 . S
C359 C364 1.490 . S
C360 H350 0.930 . S
C360 C359 1.400 . S
C360 C363 1.386 . S
H361 C377 0.930 1_554 S
H362 C378 0.931 . S
C363 H351 0.929 . S
C363 C357 1.390 . S
C363 C360 1.386 . S
C364 C359 1.490 . S
C364 C366 1.395 . S
C364 C367 1.403 . S
H365 C371 0.930 1_554 S
C366 H352 0.930 . S
C366 C364 1.395 . S
C366 C369 1.403 . S
C367 C364 1.403 . S
C367 C368 1.524 1_556 S
C367 C371 1.400 . S
C368 H353 0.960 . S
C368 H354 0.960 . S
C368 H355 0.960 . S
C368 C367 1.524 1_554 S
C369 C366 1.403 . S
C369 C370 1.392 . S
C369 C373 1.495 . S
C370 C369 1.392 . S
C370 C371 1.385 . S
C370 C372 1.478 . S
C371 H365 0.930 1_556 S
C371 C367 1.400 . S
C371 C370 1.385 . S
C372 C370 1.478 . S
C372 C374 1.381 . S
C372 C378 1.383 . S
C373 C369 1.495 . S
C373 H379 0.959 . S
C373 H380 0.961 . S
C373 H381 0.960 . S
C374 C372 1.381 . S
C374 C375 1.394 . S
C374 H382 0.930 . S
C375 C374 1.394 . S
C375 C376 1.383 . S
C375 H383 0.929 . S
C376 C375 1.383 . S
C376 C377 1.377 . S
C377 H361 0.930 1_556 S
C377 C376 1.377 . S
C377 C378 1.379 . S
C378 H362 0.931 . S
C378 C372 1.383 . S
C378 C377 1.379 . S
H379 C373 0.959 . S
H380 C373 0.961 . S
H381 C373 0.960 . S
H382 C374 0.930 . S
H383 C375 0.929 . S
H384 C392 0.929 . S
H385 C394 0.930 . S
H386 C396 0.930 . S
H387 C399 0.929 . S
H388 C402 0.930 . S
H389 C404 0.960 . S
H390 C404 0.960 . S
H391 C404 0.960 . S
C392 H384 0.929 . S
C392 C393 1.377 . S
C392 C394 1.384 . S
C393 C392 1.377 . S
C393 C399 1.390 . S
C394 H385 0.930 . S
C394 C392 1.384 . S
C394 C395 1.372 . S
C395 C394 1.372 . S
C395 C396 1.400 . S
C395 C400 1.490 . S
C396 H386 0.930 . S
C396 C395 1.400 . S
C396 C399 1.386 . S
H397 C413 0.930 . S
H398 C414 0.931 . S
C399 H387 0.929 . S
C399 C393 1.390 . S
C399 C396 1.386 . S
C400 C395 1.490 . S
C400 C402 1.395 1_455 S
C400 C403 1.403 . S
H401 C407 0.930 . S
C402 H388 0.930 . S
C402 C400 1.395 1_655 S
C402 C405 1.403 . S
C403 C400 1.403 . S
C403 C404 1.524 . S
C403 C407 1.400 . S
C404 H389 0.960 . S
C404 H390 0.960 . S
C404 H391 0.960 . S
C404 C403 1.524 . S
C405 C402 1.403 . S
C405 C406 1.392 . S
C405 C409 1.495 . S
C406 C405 1.392 . S
C406 C407 1.385 1_655 S
C406 C408 1.478 . S
C407 H401 0.930 . S
C407 C403 1.400 . S
C407 C406 1.385 1_455 S
C408 C406 1.478 . S
C408 C410 1.381 . S
C408 C414 1.383 . S
C409 C405 1.495 . S
C409 H415 0.959 . S
C409 H416 0.961 . S
C409 H417 0.960 . S
C410 C408 1.381 . S
C410 C411 1.394 . S
C410 H418 0.930 . S
C411 C410 1.394 . S
C411 C412 1.383 . S
C411 H419 0.929 . S
C412 C411 1.383 . S
C412 C413 1.377 . S
C413 H397 0.930 . S
C413 C412 1.377 . S
C413 C414 1.379 . S
C414 H398 0.931 . S
C414 C408 1.383 . S
C414 C413 1.379 . S
H415 C409 0.959 . S
H416 C409 0.961 . S
H417 C409 0.960 . S
H418 C410 0.930 . S
H419 C411 0.929 . S
H420 C428 0.929 . S
H421 C430 0.930 . S
H422 C432 0.930 . S
H423 C435 0.929 . S
H424 C438 0.930 . S
H425 C440 0.960 . S
H426 C440 0.960 . S
H427 C440 0.960 . S
C428 H420 0.929 . S
C428 C429 1.377 . S
C428 C430 1.384 . S
C429 C428 1.377 . S
C429 C435 1.390 . S
C430 H421 0.930 . S
C430 C428 1.384 . S
C430 C431 1.372 . S
C431 C430 1.372 . S
C431 C432 1.400 . S
C431 C436 1.490 . S
C432 H422 0.930 . S
C432 C431 1.400 . S
C432 C435 1.386 . S
H433 C449 0.930 . S
H434 C450 0.931 . S
C435 H423 0.929 . S
C435 C429 1.390 . S
C435 C432 1.386 . S
C436 C431 1.490 . S
C436 C438 1.395 . S
C436 C439 1.403 . S
H437 C443 0.930 . S
C438 H424 0.930 . S
C438 C436 1.395 . S
C438 C441 1.403 1_545 S
C439 C436 1.403 . S
C439 C440 1.524 . S
C439 C443 1.400 1_545 S
C440 H425 0.960 . S
C440 H426 0.960 . S
C440 H427 0.960 . S
C440 C439 1.524 . S
C441 C438 1.403 1_565 S
C441 C442 1.392 . S
C441 C445 1.495 . S
C442 C441 1.392 . S
C442 C443 1.385 . S
C442 C444 1.478 . S
C443 H437 0.930 . S
C443 C439 1.400 1_565 S
C443 C442 1.385 . S
C444 C442 1.478 . S
C444 C446 1.381 . S
C444 C450 1.383 . S
C445 C441 1.495 . S
C445 H451 0.959 . S
C445 H452 0.961 . S
C445 H453 0.960 . S
C446 C444 1.381 . S
C446 C447 1.394 . S
C446 H454 0.930 . S
C447 C446 1.394 . S
C447 C448 1.383 . S
C447 H455 0.929 . S
C448 C447 1.383 . S
C448 C449 1.377 . S
C449 H433 0.930 . S
C449 C448 1.377 . S
C449 C450 1.379 . S
C450 H434 0.931 . S
C450 C444 1.383 . S
C450 C449 1.379 . S
H451 C445 0.959 . S
H452 C445 0.961 . S
H453 C445 0.960 . S
H454 C446 0.930 . S
H455 C447 0.929 . S
H456 C464 0.929 . S
H457 C466 0.930 . S
H458 C468 0.930 . S
H459 C471 0.929 . S
H460 C474 0.930 . S
H461 C476 0.960 . S
H462 C476 0.960 . S
H463 C476 0.960 . S
C464 H456 0.929 . S
C464 C465 1.377 . S
C464 C466 1.384 . S
C465 C464 1.377 . S
C465 C471 1.390 . S
C466 H457 0.930 . S
C466 C464 1.384 . S
C466 C467 1.372 . S
C467 C466 1.372 . S
C467 C468 1.400 . S
C467 C472 1.490 . S
C468 H458 0.930 . S
C468 C467 1.400 . S
C468 C471 1.386 . S
H469 C485 0.930 . S
H470 C486 0.931 . S
C471 H459 0.929 . S
C471 C465 1.390 . S
C471 C468 1.386 . S
C472 C467 1.490 . S
C472 C474 1.395 . S
C472 C475 1.403 . S
H473 C479 0.930 . S
C474 H460 0.930 . S
C474 C472 1.395 . S
C474 C477 1.403 . S
C475 C472 1.403 . S
C475 C476 1.524 . S
C475 C479 1.400 . S
C476 H461 0.960 . S
C476 H462 0.960 . S
C476 H463 0.960 . S
C476 C475 1.524 . S
C477 C474 1.403 . S
C477 C478 1.392 . S
C477 C481 1.495 . S
C478 C477 1.392 . S
C478 C479 1.385 . S
C478 C480 1.478 . S
C479 H473 0.930 . S
C479 C475 1.400 . S
C479 C478 1.385 . S
C480 C478 1.478 . S
C480 C482 1.381 . S
C480 C486 1.383 . S
C481 C477 1.495 . S
C481 H487 0.959 . S
C481 H488 0.961 . S
C481 H489 0.960 . S
C482 C480 1.381 . S
C482 C483 1.394 . S
C482 H490 0.930 . S
C483 C482 1.394 . S
C483 C484 1.383 . S
C483 H491 0.929 . S
C484 C483 1.383 . S
C484 C485 1.377 . S
C485 H469 0.930 . S
C485 C484 1.377 . S
C485 C486 1.379 . S
C486 H470 0.931 . S
C486 C480 1.383 . S
C486 C485 1.379 . S
H487 C481 0.959 . S
H488 C481 0.961 . S
H489 C481 0.960 . S
H490 C482 0.930 . S
H491 C483 0.929 . S
H492 C500 0.929 . S
H493 C502 0.930 . S
H494 C504 0.930 . S
H495 C507 0.929 . S
H496 C510 0.930 . S
H497 C512 0.960 . S
H498 C512 0.960 . S
H499 C512 0.960 . S
C500 H492 0.929 . S
C500 C501 1.377 . S
C500 C502 1.384 1_554 S
C501 C500 1.377 . S
C501 C507 1.390 . S
C502 H493 0.930 . S
C502 C500 1.384 1_556 S
C502 C503 1.372 . S
C503 C502 1.372 . S
C503 C504 1.400 . S
C503 C508 1.490 . S
C504 H494 0.930 . S
C504 C503 1.400 . S
C504 C507 1.386 1_556 S
H505 C521 0.930 . S
H506 C522 0.931 . S
C507 H495 0.929 . S
C507 C501 1.390 . S
C507 C504 1.386 1_554 S
C508 C503 1.490 . S
C508 C510 1.395 . S
C508 C511 1.403 . S
H509 C515 0.930 . S
C510 H496 0.930 . S
C510 C508 1.395 . S
C510 C513 1.403 . S
C511 C508 1.403 . S
C511 C512 1.524 . S
C511 C515 1.400 . S
C512 H497 0.960 . S
C512 H498 0.960 . S
C512 H499 0.960 . S
C512 C511 1.524 . S
C513 C510 1.403 . S
C513 C514 1.392 . S
C513 C517 1.495 . S
C514 C513 1.392 . S
C514 C515 1.385 . S
C514 C516 1.478 . S
C515 H509 0.930 . S
C515 C511 1.400 . S
C515 C514 1.385 . S
C516 C514 1.478 . S
C516 C518 1.381 . S
C516 C522 1.383 . S
C517 C513 1.495 . S
C517 H523 0.959 . S
C517 H524 0.961 . S
C517 H525 0.960 . S
C518 C516 1.381 . S
C518 C519 1.394 . S
C518 H526 0.930 . S
C519 C518 1.394 . S
C519 C520 1.383 . S
C519 H527 0.929 . S
C520 C519 1.383 . S
C520 C521 1.377 . S
C521 H505 0.930 . S
C521 C520 1.377 . S
C521 C522 1.379 . S
C522 H506 0.931 . S
C522 C516 1.383 . S
C522 C521 1.379 . S
H523 C517 0.959 . S
H524 C517 0.961 . S
H525 C517 0.960 . S
H526 C518 0.930 . S
H527 C519 0.929 . S
H528 C536 0.929 . S
H529 C538 0.930 . S
H530 C540 0.930 . S
H531 C543 0.929 . S
H532 C546 0.930 . S
H533 C548 0.960 . S
H534 C548 0.960 . S
H535 C548 0.960 . S
C536 H528 0.929 . S
C536 C537 1.377 . S
C536 C538 1.384 . S
C537 C536 1.377 . S
C537 C543 1.390 . S
C538 H529 0.930 . S
C538 C536 1.384 . S
C538 C539 1.372 . S
C539 C538 1.372 . S
C539 C540 1.400 . S
C539 C544 1.490 . S
C540 H530 0.930 . S
C540 C539 1.400 . S
C540 C543 1.386 . S
H541 C557 0.930 . S
H542 C558 0.931 . S
C543 H531 0.929 . S
C543 C537 1.390 . S
C543 C540 1.386 . S
C544 C539 1.490 . S
C544 C546 1.395 . S
C544 C547 1.403 . S
H545 C551 0.930 . S
C546 H532 0.930 . S
C546 C544 1.395 . S
C546 C549 1.403 . S
C547 C544 1.403 . S
C547 C548 1.524 . S
C547 C551 1.400 . S
C548 H533 0.960 . S
C548 H534 0.960 . S
C548 H535 0.960 . S
C548 C547 1.524 . S
C549 C546 1.403 . S
C549 C550 1.392 . S
C549 C553 1.495 . S
C550 C549 1.392 . S
C550 C551 1.385 . S
C550 C552 1.478 . S
C551 H545 0.930 . S
C551 C547 1.400 . S
C551 C550 1.385 . S
C552 C550 1.478 . S
C552 C554 1.381 . S
C552 C558 1.383 . S
C553 C549 1.495 . S
C553 H559 0.959 . S
C553 H560 0.961 . S
C553 H561 0.960 . S
C554 C552 1.381 . S
C554 C555 1.394 . S
C554 H562 0.930 . S
C555 C554 1.394 . S
C555 C556 1.383 . S
C555 H563 0.929 . S
C556 C555 1.383 . S
C556 C557 1.377 . S
C557 H541 0.930 . S
C557 C556 1.377 . S
C557 C558 1.379 . S
C558 H542 0.931 . S
C558 C552 1.383 . S
C558 C557 1.379 . S
H559 C553 0.959 . S
H560 C553 0.961 . S
H561 C553 0.960 . S
H562 C554 0.930 . S
H563 C555 0.929 . S
H564 C572 0.929 . S
H565 C574 0.930 . S
H566 C576 0.930 . S
H567 C579 0.929 . S
H568 C582 0.930 . S
H569 C584 0.960 . S
H570 C584 0.960 . S
H571 C584 0.960 . S
C572 H564 0.929 . S
C572 C573 1.377 . S
C572 C574 1.384 . S
C573 C572 1.377 . S
C573 C579 1.390 . S
C574 H565 0.930 . S
C574 C572 1.384 . S
C574 C575 1.372 . S
C575 C574 1.372 . S
C575 C576 1.400 . S
C575 C580 1.490 . S
C576 H566 0.930 . S
C576 C575 1.400 . S
C576 C579 1.386 . S
H577 C593 0.930 . S
H578 C594 0.931 . S
C579 H567 0.929 . S
C579 C573 1.390 . S
C579 C576 1.386 . S
C580 C575 1.490 . S
C580 C582 1.395 . S
C580 C583 1.403 . S
H581 C587 0.930 . S
C582 H568 0.930 . S
C582 C580 1.395 . S
C582 C585 1.403 . S
C583 C580 1.403 . S
C583 C584 1.524 . S
C583 C587 1.400 . S
C584 H569 0.960 . S
C584 H570 0.960 . S
C584 H571 0.960 . S
C584 C583 1.524 . S
C585 C582 1.403 . S
C585 C586 1.392 . S
C585 C589 1.495 . S
C586 C585 1.392 . S
C586 C587 1.385 . S
C586 C588 1.478 . S
C587 H581 0.930 . S
C587 C583 1.400 . S
C587 C586 1.385 . S
C588 C586 1.478 . S
C588 C590 1.381 . S
C588 C594 1.383 . S
C589 C585 1.495 . S
C589 H595 0.959 . S
C589 H596 0.961 . S
C589 H597 0.960 . S
C590 C588 1.381 . S
C590 C591 1.394 . S
C590 H598 0.930 . S
C591 C590 1.394 . S
C591 C592 1.383 . S
C591 H599 0.929 . S
C592 C591 1.383 . S
C592 C593 1.377 . S
C593 H577 0.930 . S
C593 C592 1.377 . S
C593 C594 1.379 . S
C594 H578 0.931 . S
C594 C588 1.383 . S
C594 C593 1.379 . S
H595 C589 0.959 . S
H596 C589 0.961 . S
H597 C589 0.960 . S
H598 C590 0.930 . S
H599 C591 0.929 . S
H600 C608 0.929 . S
H601 C610 0.930 . S
H602 C612 0.930 . S
H603 C615 0.929 . S
H604 C618 0.930 . S
H605 C620 0.960 . S
H606 C620 0.960 1_556 S
H607 C620 0.960 1_556 S
C608 H600 0.929 . S
C608 C609 1.377 . S
C608 C610 1.384 . S
C609 C608 1.377 . S
C609 C615 1.390 . S
C610 H601 0.930 . S
C610 C608 1.384 . S
C610 C611 1.372 . S
C611 C610 1.372 . S
C611 C612 1.400 . S
C611 C616 1.490 . S
C612 H602 0.930 . S
C612 C611 1.400 . S
C612 C615 1.386 . S
H613 C629 0.930 . S
H614 C630 0.931 . S
C615 H603 0.929 . S
C615 C609 1.390 . S
C615 C612 1.386 . S
C616 C611 1.490 . S
C616 C618 1.395 . S
C616 C619 1.403 1_556 S
H617 C623 0.930 . S
C618 H604 0.930 . S
C618 C616 1.395 . S
C618 C621 1.403 1_556 S
C619 C616 1.403 1_554 S
C619 C620 1.524 . S
C619 C623 1.400 . S
C620 H605 0.960 . S
C620 H606 0.960 1_554 S
C620 H607 0.960 1_554 S
C620 C619 1.524 . S
C621 C618 1.403 1_554 S
C621 C622 1.392 . S
C621 C625 1.495 . S
C622 C621 1.392 . S
C622 C623 1.385 . S
C622 C624 1.478 . S
C623 H617 0.930 . S
C623 C619 1.400 . S
C623 C622 1.385 . S
C624 C622 1.478 . S
C624 C626 1.381 . S
C624 C630 1.383 . S
C625 C621 1.495 . S
C625 H631 0.959 . S
C625 H632 0.961 . S
C625 H633 0.960 . S
C626 C624 1.381 . S
C626 C627 1.394 . S
C626 H634 0.930 . S
C627 C626 1.394 . S
C627 C628 1.383 . S
C627 H635 0.929 . S
C628 C627 1.383 . S
C628 C629 1.377 . S
C629 H613 0.930 . S
C629 C628 1.377 . S
C629 C630 1.379 . S
C630 H614 0.931 . S
C630 C624 1.383 . S
C630 C629 1.379 . S
H631 C625 0.959 . S
H632 C625 0.961 . S
H633 C625 0.960 . S
H634 C626 0.930 . S
H635 C627 0.929 . S
H636 C644 0.929 . S
H637 C646 0.930 . S
H638 C648 0.930 . S
H639 C651 0.929 . S
H640 C654 0.930 . S
H641 C656 0.960 . S
H642 C656 0.960 . S
H643 C656 0.960 . S
C644 H636 0.929 . S
C644 C645 1.377 . S
C644 C646 1.384 . S
C645 C644 1.377 . S
C645 C651 1.390 . S
C646 H637 0.930 . S
C646 C644 1.384 . S
C646 C647 1.372 . S
C647 C646 1.372 . S
C647 C648 1.400 . S
C647 C652 1.490 . S
C648 H638 0.930 . S
C648 C647 1.400 . S
C648 C651 1.386 . S
H649 C665 0.930 . S
H650 C666 0.931 . S
C651 H639 0.929 . S
C651 C645 1.390 . S
C651 C648 1.386 . S
C652 C647 1.490 . S
C652 C654 1.395 . S
C652 C655 1.403 . S
H653 C659 0.930 . S
C654 H640 0.930 . S
C654 C652 1.395 . S
C654 C657 1.403 . S
C655 C652 1.403 . S
C655 C656 1.524 . S
C655 C659 1.400 . S
C656 H641 0.960 . S
C656 H642 0.960 . S
C656 H643 0.960 . S
C656 C655 1.524 . S
C657 C654 1.403 . S
C657 C658 1.392 . S
C657 C661 1.495 . S
C658 C657 1.392 . S
C658 C659 1.385 . S
C658 C660 1.478 . S
C659 H653 0.930 . S
C659 C655 1.400 . S
C659 C658 1.385 . S
C660 C658 1.478 . S
C660 C662 1.381 . S
C660 C666 1.383 . S
C661 C657 1.495 . S
C661 H667 0.959 . S
C661 H668 0.961 . S
C661 H669 0.960 . S
C662 C660 1.381 . S
C662 C663 1.394 . S
C662 H670 0.930 . S
C663 C662 1.394 . S
C663 C664 1.383 . S
C663 H671 0.929 . S
C664 C663 1.383 . S
C664 C665 1.377 . S
C665 H649 0.930 . S
C665 C664 1.377 . S
C665 C666 1.379 . S
C666 H650 0.931 . S
C666 C660 1.383 . S
C666 C665 1.379 . S
H667 C661 0.959 . S
H668 C661 0.961 . S
H669 C661 0.960 . S
H670 C662 0.930 . S
H671 C663 0.929 . S
H672 C680 0.929 . S
H673 C682 0.930 . S
H674 C684 0.930 . S
H675 C687 0.929 . S
H676 C690 0.930 . S
H677 C692 0.960 . S
H678 C692 0.960 . S
H679 C692 0.960 . S
C680 H672 0.929 . S
C680 C681 1.377 . S
C680 C682 1.384 . S
C681 C680 1.377 . S
C681 C687 1.390 . S
C682 H673 0.930 . S
C682 C680 1.384 . S
C682 C683 1.372 . S
C683 C682 1.372 . S
C683 C684 1.400 . S
C683 C688 1.490 . S
C684 H674 0.930 . S
C684 C683 1.400 . S
C684 C687 1.386 . S
H685 C701 0.930 . S
H686 C702 0.931 . S
C687 H675 0.929 . S
C687 C681 1.390 . S
C687 C684 1.386 . S
C688 C683 1.490 . S
C688 C690 1.395 . S
C688 C691 1.403 . S
H689 C695 0.930 . S
C690 H676 0.930 . S
C690 C688 1.395 . S
C690 C693 1.403 . S
C691 C688 1.403 . S
C691 C692 1.524 . S
C691 C695 1.400 . S
C692 H677 0.960 . S
C692 H678 0.960 . S
C692 H679 0.960 . S
C692 C691 1.524 . S
C693 C690 1.403 . S
C693 C694 1.392 . S
C693 C697 1.495 . S
C694 C693 1.392 . S
C694 C695 1.385 . S
C694 C696 1.478 . S
C695 H689 0.930 . S
C695 C691 1.400 . S
C695 C694 1.385 . S
C696 C694 1.478 . S
C696 C698 1.381 . S
C696 C702 1.383 . S
C697 C693 1.495 . S
C697 H703 0.959 . S
C697 H704 0.961 . S
C697 H705 0.960 . S
C698 C696 1.381 . S
C698 C699 1.394 . S
C698 H706 0.930 . S
C699 C698 1.394 . S
C699 C700 1.383 . S
C699 H707 0.929 . S
C700 C699 1.383 . S
C700 C701 1.377 . S
C701 H685 0.930 . S
C701 C700 1.377 . S
C701 C702 1.379 . S
C702 H686 0.931 . S
C702 C696 1.383 . S
C702 C701 1.379 . S
H703 C697 0.959 . S
H704 C697 0.961 . S
H705 C697 0.960 . S
H706 C698 0.930 . S
H707 C699 0.929 . S
H708 C716 0.929 . S
H709 C718 0.930 . S
H710 C720 0.930 . S
H711 C723 0.929 . S
H712 C726 0.930 . S
H713 C728 0.960 . S
H714 C728 0.960 . S
H715 C728 0.960 . S
C716 H708 0.929 . S
C716 C717 1.377 . S
C716 C718 1.384 . S
C717 C716 1.377 . S
C717 C723 1.390 . S
C718 H709 0.930 . S
C718 C716 1.384 . S
C718 C719 1.372 . S
C719 C718 1.372 . S
C719 C720 1.400 . S
C719 C724 1.490 . S
C720 H710 0.930 . S
C720 C719 1.400 . S
C720 C723 1.386 . S
H721 C737 0.930 . S
H722 C738 0.931 . S
C723 H711 0.929 . S
C723 C717 1.390 . S
C723 C720 1.386 . S
C724 C719 1.490 . S
C724 C726 1.395 . S
C724 C727 1.403 . S
H725 C731 0.930 . S
C726 H712 0.930 . S
C726 C724 1.395 . S
C726 C729 1.403 . S
C727 C724 1.403 . S
C727 C728 1.524 . S
C727 C731 1.400 . S
C728 H713 0.960 . S
C728 H714 0.960 . S
C728 H715 0.960 . S
C728 C727 1.524 . S
C729 C726 1.403 . S
C729 C730 1.392 . S
C729 C733 1.495 . S
C730 C729 1.392 . S
C730 C731 1.385 . S
C730 C732 1.478 . S
C731 H725 0.930 . S
C731 C727 1.400 . S
C731 C730 1.385 . S
C732 C730 1.478 . S
C732 C734 1.381 . S
C732 C738 1.383 . S
C733 C729 1.495 . S
C733 H739 0.959 . S
C733 H740 0.961 . S
C733 H741 0.960 . S
C734 C732 1.381 . S
C734 C735 1.394 . S
C734 H742 0.930 . S
C735 C734 1.394 . S
C735 C736 1.383 . S
C735 H743 0.929 . S
C736 C735 1.383 . S
C736 C737 1.377 . S
C737 H721 0.930 . S
C737 C736 1.377 . S
C737 C738 1.379 . S
C738 H722 0.931 . S
C738 C732 1.383 . S
C738 C737 1.379 . S
H739 C733 0.959 . S
H740 C733 0.961 . S
H741 C733 0.960 . S
H742 C734 0.930 . S
H743 C735 0.929 . S
H744 C752 0.929 . S
H745 C754 0.930 . S
H746 C756 0.930 . S
H747 C759 0.929 . S
H748 C762 0.930 . S
H749 C764 0.960 1_556 S
H750 C764 0.960 . S
H751 C764 0.960 . S
C752 H744 0.929 . S
C752 C753 1.377 . S
C752 C754 1.384 . S
C753 C752 1.377 . S
C753 C759 1.390 . S
C754 H745 0.930 . S
C754 C752 1.384 . S
C754 C755 1.372 . S
C755 C754 1.372 . S
C755 C756 1.400 . S
C755 C760 1.490 . S
C756 H746 0.930 . S
C756 C755 1.400 . S
C756 C759 1.386 . S
H757 C773 0.930 . S
H758 C774 0.931 . S
C759 H747 0.929 . S
C759 C753 1.390 . S
C759 C756 1.386 . S
C760 C755 1.490 . S
C760 C762 1.395 . S
C760 C763 1.403 . S
H761 C767 0.930 1_556 S
C762 H748 0.930 . S
C762 C760 1.395 . S
C762 C765 1.403 . S
C763 C760 1.403 . S
C763 C764 1.524 . S
C763 C767 1.400 . S
C764 H749 0.960 1_554 S
C764 H750 0.960 . S
C764 H751 0.960 . S
C764 C763 1.524 . S
C765 C762 1.403 . S
C765 C766 1.392 . S
C765 C769 1.495 . S
C766 C765 1.392 . S
C766 C767 1.385 . S
C766 C768 1.478 . S
C767 H761 0.930 1_554 S
C767 C763 1.400 . S
C767 C766 1.385 . S
C768 C766 1.478 . S
C768 C770 1.381 1_554 S
C768 C774 1.383 . S
C769 C765 1.495 . S
C769 H775 0.959 . S
C769 H776 0.961 . S
C769 H777 0.960 . S
C770 C768 1.381 1_556 S
C770 C771 1.394 . S
C770 H778 0.930 . S
C771 C770 1.394 . S
C771 C772 1.383 . S
C771 H779 0.929 . S
C772 C771 1.383 . S
C772 C773 1.377 . S
C773 H757 0.930 . S
C773 C772 1.377 . S
C773 C774 1.379 1_556 S
C774 H758 0.931 . S
C774 C768 1.383 . S
C774 C773 1.379 1_554 S
H775 C769 0.959 . S
H776 C769 0.961 . S
H777 C769 0.960 . S
H778 C770 0.930 . S
H779 C771 0.929 . S
H780 C788 0.929 . S
H781 C790 0.930 . S
H782 C792 0.930 . S
H783 C795 0.929 . S
H784 C798 0.930 . S
H785 C800 0.960 . S
H786 C800 0.960 . S
H787 C800 0.960 . S
C788 H780 0.929 . S
C788 C789 1.377 . S
C788 C790 1.384 . S
C789 C788 1.377 . S
C789 C795 1.390 . S
C790 H781 0.930 . S
C790 C788 1.384 . S
C790 C791 1.372 . S
C791 C790 1.372 . S
C791 C792 1.400 . S
C791 C796 1.490 . S
C792 H782 0.930 . S
C792 C791 1.400 . S
C792 C795 1.386 . S
H793 C809 0.930 . S
H794 C810 0.931 . S
C795 H783 0.929 . S
C795 C789 1.390 . S
C795 C792 1.386 . S
C796 C791 1.490 . S
C796 C798 1.395 . S
C796 C799 1.403 . S
H797 C803 0.930 . S
C798 H784 0.930 . S
C798 C796 1.395 . S
C798 C801 1.403 . S
C799 C796 1.403 . S
C799 C800 1.524 . S
C799 C803 1.400 . S
C800 H785 0.960 . S
C800 H786 0.960 . S
C800 H787 0.960 . S
C800 C799 1.524 . S
C801 C798 1.403 . S
C801 C802 1.392 . S
C801 C805 1.495 . S
C802 C801 1.392 . S
C802 C803 1.385 . S
C802 C804 1.478 . S
C803 H797 0.930 . S
C803 C799 1.400 . S
C803 C802 1.385 . S
C804 C802 1.478 . S
C804 C806 1.381 . S
C804 C810 1.383 . S
C805 C801 1.495 . S
C805 H811 0.959 . S
C805 H812 0.961 . S
C805 H813 0.960 . S
C806 C804 1.381 . S
C806 C807 1.394 . S
C806 H814 0.930 . S
C807 C806 1.394 . S
C807 C808 1.383 . S
C807 H815 0.929 . S
C808 C807 1.383 . S
C808 C809 1.377 . S
C809 H793 0.930 . S
C809 C808 1.377 . S
C809 C810 1.379 . S
C810 H794 0.931 . S
C810 C804 1.383 . S
C810 C809 1.379 . S
H811 C805 0.959 . S
H812 C805 0.961 . S
H813 C805 0.960 . S
H814 C806 0.930 . S
H815 C807 0.929 . S
H816 C824 0.929 . S
H817 C826 0.930 . S
H818 C828 0.930 . S
H819 C831 0.929 . S
H820 C834 0.930 . S
H821 C836 0.960 . S
H822 C836 0.960 . S
H823 C836 0.960 . S
C824 H816 0.929 . S
C824 C825 1.377 . S
C824 C826 1.384 . S
C825 C824 1.377 . S
C825 C831 1.390 . S
C826 H817 0.930 . S
C826 C824 1.384 . S
C826 C827 1.372 . S
C827 C826 1.372 . S
C827 C828 1.400 . S
C827 C832 1.490 . S
C828 H818 0.930 . S
C828 C827 1.400 . S
C828 C831 1.386 . S
H829 C845 0.930 . S
H830 C846 0.931 . S
C831 H819 0.929 . S
C831 C825 1.390 . S
C831 C828 1.386 . S
C832 C827 1.490 . S
C832 C834 1.395 . S
C832 C835 1.403 . S
H833 C839 0.930 . S
C834 H820 0.930 . S
C834 C832 1.395 . S
C834 C837 1.403 . S
C835 C832 1.403 . S
C835 C836 1.524 . S
C835 C839 1.400 . S
C836 H821 0.960 . S
C836 H822 0.960 . S
C836 H823 0.960 . S
C836 C835 1.524 . S
C837 C834 1.403 . S
C837 C838 1.392 . S
C837 C841 1.495 . S
C838 C837 1.392 . S
C838 C839 1.385 . S
C838 C840 1.478 . S
C839 H833 0.930 . S
C839 C835 1.400 . S
C839 C838 1.385 . S
C840 C838 1.478 . S
C840 C842 1.381 . S
C840 C846 1.383 . S
C841 C837 1.495 . S
C841 H847 0.959 . S
C841 H848 0.961 . S
C841 H849 0.960 . S
C842 C840 1.381 . S
C842 C843 1.394 . S
C842 H850 0.930 . S
C843 C842 1.394 . S
C843 C844 1.383 . S
C843 H851 0.929 . S
C844 C843 1.383 . S
C844 C845 1.377 . S
C845 H829 0.930 . S
C845 C844 1.377 . S
C845 C846 1.379 . S
C846 H830 0.931 . S
C846 C840 1.383 . S
C846 C845 1.379 . S
H847 C841 0.959 . S
H848 C841 0.961 . S
H849 C841 0.960 . S
H850 C842 0.930 . S
H851 C843 0.929 . S
H852 C860 0.929 . S
H853 C862 0.930 . S
H854 C864 0.930 . S
H855 C867 0.929 . S
H856 C870 0.930 . S
H857 C872 0.960 . S
H858 C872 0.960 . S
H859 C872 0.960 . S
C860 H852 0.929 . S
C860 C861 1.377 . S
C860 C862 1.384 . S
C861 C860 1.377 . S
C861 C867 1.390 . S
C862 H853 0.930 . S
C862 C860 1.384 . S
C862 C863 1.372 . S
C863 C862 1.372 . S
C863 C864 1.400 . S
C863 C868 1.490 . S
C864 H854 0.930 . S
C864 C863 1.400 . S
C864 C867 1.386 . S
H865 C881 0.930 . S
H866 C882 0.931 . S
C867 H855 0.929 . S
C867 C861 1.390 . S
C867 C864 1.386 . S
C868 C863 1.490 . S
C868 C870 1.395 . S
C868 C871 1.403 . S
H869 C875 0.930 . S
C870 H856 0.930 . S
C870 C868 1.395 . S
C870 C873 1.403 . S
C871 C868 1.403 . S
C871 C872 1.524 . S
C871 C875 1.400 . S
C872 H857 0.960 . S
C872 H858 0.960 . S
C872 H859 0.960 . S
C872 C871 1.524 . S
C873 C870 1.403 . S
C873 C874 1.392 . S
C873 C877 1.495 . S
C874 C873 1.392 . S
C874 C875 1.385 . S
C874 C876 1.478 . S
C875 H869 0.930 . S
C875 C871 1.400 . S
C875 C874 1.385 . S
C876 C874 1.478 . S
C876 C878 1.381 . S
C876 C882 1.383 . S
C877 C873 1.495 . S
C877 H883 0.959 . S
C877 H884 0.961 . S
C877 H885 0.960 . S
C878 C876 1.381 . S
C878 C879 1.394 . S
C878 H886 0.930 . S
C879 C878 1.394 . S
C879 C880 1.383 . S
C879 H887 0.929 . S
C880 C879 1.383 . S
C880 C881 1.377 . S
C881 H865 0.930 . S
C881 C880 1.377 . S
C881 C882 1.379 . S
C882 H866 0.931 . S
C882 C876 1.383 . S
C882 C881 1.379 . S
H883 C877 0.959 . S
H884 C877 0.961 . S
H885 C877 0.960 . S
H886 C878 0.930 . S
H887 C879 0.929 . S
C249 C210 1.664 . S
C268 C10 1.656 . S
C285 C9 1.376 . S
C304 C49 1.360 . S
C321 C50 1.662 . S
C340 C90 1.667 . S
C357 C89 1.371 . S
C376 C129 1.398 1_556 S
C393 C170 1.661 . S
C412 C130 1.649 . S
C429 C209 1.374 . S
C448 C169 1.384 . S
C465 C6 1.052 . S
C484 C15 1.056 . S
C501 C55 1.043 . S
C520 C46 1.019 . S
C537 C86 1.042 . S
C556 C95 1.046 . S
C573 C135 1.048 . S
C592 C126 1.024 . S
C609 C175 1.049 . S
C628 C166 1.072 . S
C645 C215 1.049 . S
C664 C206 1.071 1_554 S
C681 C19 1.766 . S
C700 C178 1.796 . S
C717 C58 1.798 . S
C736 C219 1.749 . S
C753 C18 1.797 . S
C772 C99 1.767 . S
C789 C59 1.766 . S
C808 C138 1.792 . S
C825 C179 1.766 . S
C844 C98 1.796 . S
C861 C139 1.771 . S
C880 C218 1.794 . S
