# Generated by pormake.
# Topology ung, (4)-cn, num edge types: 1
# Building blocks:
#     Node 0, Type 0, BuildingBlock: ESEHIV_clean_sbu_0, # of connection points: 4
#     Node 1, Type 0, BuildingBlock: ESEHIV_clean_sbu_0, # of connection points: 4
#     Node 2, Type 0, BuildingBlock: ESEHIV_clean_sbu_0, # of connection points: 4
#     Node 3, Type 0, BuildingBlock: ESEHIV_clean_sbu_0, # of connection points: 4
#     Node 4, Type 0, BuildingBlock: ESEHIV_clean_sbu_0, # of connection points: 4
#     Node 5, Type 0, BuildingBlock: ESEHIV_clean_sbu_0, # of connection points: 4
#     Node 6, Type 0, BuildingBlock: ESEHIV_clean_sbu_0, # of connection points: 4
#     Node 7, Type 0, BuildingBlock: ESEHIV_clean_sbu_0, # of connection points: 4
#     Node 8, Type 0, BuildingBlock: ESEHIV_clean_sbu_0, # of connection points: 4
#     Node 9, Type 0, BuildingBlock: ESEHIV_clean_sbu_0, # of connection points: 4
#     Node 10, Type 0, BuildingBlock: ESEHIV_clean_sbu_0, # of connection points: 4
#     Node 11, Type 0, BuildingBlock: ESEHIV_clean_sbu_0, # of connection points: 4
#     Node 12, Type 0, BuildingBlock: ESEHIV_clean_sbu_0, # of connection points: 4
#     Node 13, Type 0, BuildingBlock: ESEHIV_clean_sbu_0, # of connection points: 4
#     Node 14, Type 0, BuildingBlock: ESEHIV_clean_sbu_0, # of connection points: 4
#     Node 15, Type 0, BuildingBlock: ESEHIV_clean_sbu_0, # of connection points: 4
#     Node 16, Type 0, BuildingBlock: ESEHIV_clean_sbu_0, # of connection points: 4
#     Node 17, Type 0, BuildingBlock: ESEHIV_clean_sbu_0, # of connection points: 4
#     Edge 18, Type (0, 0), BuildingBlock: TEMPAE_clean_linker_10, # of connection points: 2
#     Edge 19, Type (0, 0), BuildingBlock: TEMPAE_clean_linker_10, # of connection points: 2
#     Edge 20, Type (0, 0), BuildingBlock: TEMPAE_clean_linker_10, # of connection points: 2
#     Edge 21, Type (0, 0), BuildingBlock: TEMPAE_clean_linker_10, # of connection points: 2
#     Edge 22, Type (0, 0), BuildingBlock: TEMPAE_clean_linker_10, # of connection points: 2
#     Edge 23, Type (0, 0), BuildingBlock: TEMPAE_clean_linker_10, # of connection points: 2
#     Edge 24, Type (0, 0), BuildingBlock: TEMPAE_clean_linker_10, # of connection points: 2
#     Edge 25, Type (0, 0), BuildingBlock: TEMPAE_clean_linker_10, # of connection points: 2
#     Edge 26, Type (0, 0), BuildingBlock: TEMPAE_clean_linker_10, # of connection points: 2
#     Edge 27, Type (0, 0), BuildingBlock: TEMPAE_clean_linker_10, # of connection points: 2
#     Edge 28, Type (0, 0), BuildingBlock: TEMPAE_clean_linker_10, # of connection points: 2
#     Edge 29, Type (0, 0), BuildingBlock: TEMPAE_clean_linker_10, # of connection points: 2
#     Edge 30, Type (0, 0), BuildingBlock: TEMPAE_clean_linker_10, # of connection points: 2
#     Edge 31, Type (0, 0), BuildingBlock: TEMPAE_clean_linker_10, # of connection points: 2
#     Edge 32, Type (0, 0), BuildingBlock: TEMPAE_clean_linker_10, # of connection points: 2
#     Edge 33, Type (0, 0), BuildingBlock: TEMPAE_clean_linker_10, # of connection points: 2
#     Edge 34, Type (0, 0), BuildingBlock: TEMPAE_clean_linker_10, # of connection points: 2
#     Edge 35, Type (0, 0), BuildingBlock: TEMPAE_clean_linker_10, # of connection points: 2
#     Edge 36, Type (0, 0), BuildingBlock: TEMPAE_clean_linker_10, # of connection points: 2
#     Edge 37, Type (0, 0), BuildingBlock: TEMPAE_clean_linker_10, # of connection points: 2
#     Edge 38, Type (0, 0), BuildingBlock: TEMPAE_clean_linker_10, # of connection points: 2
#     Edge 39, Type (0, 0), BuildingBlock: TEMPAE_clean_linker_10, # of connection points: 2
#     Edge 40, Type (0, 0), BuildingBlock: TEMPAE_clean_linker_10, # of connection points: 2
#     Edge 41, Type (0, 0), BuildingBlock: TEMPAE_clean_linker_10, # of connection points: 2
#     Edge 42, Type (0, 0), BuildingBlock: TEMPAE_clean_linker_10, # of connection points: 2
#     Edge 43, Type (0, 0), BuildingBlock: TEMPAE_clean_linker_10, # of connection points: 2
#     Edge 44, Type (0, 0), BuildingBlock: TEMPAE_clean_linker_10, # of connection points: 2
#     Edge 45, Type (0, 0), BuildingBlock: TEMPAE_clean_linker_10, # of connection points: 2
#     Edge 46, Type (0, 0), BuildingBlock: TEMPAE_clean_linker_10, # of connection points: 2
#     Edge 47, Type (0, 0), BuildingBlock: TEMPAE_clean_linker_10, # of connection points: 2
#     Edge 48, Type (0, 0), BuildingBlock: TEMPAE_clean_linker_10, # of connection points: 2
#     Edge 49, Type (0, 0), BuildingBlock: TEMPAE_clean_linker_10, # of connection points: 2
#     Edge 50, Type (0, 0), BuildingBlock: TEMPAE_clean_linker_10, # of connection points: 2
#     Edge 51, Type (0, 0), BuildingBlock: TEMPAE_clean_linker_10, # of connection points: 2
#     Edge 52, Type (0, 0), BuildingBlock: TEMPAE_clean_linker_10, # of connection points: 2
#     Edge 53, Type (0, 0), BuildingBlock: TEMPAE_clean_linker_10, # of connection points: 2
# Relax obj value: 0.012
# Max RMSD: 0.189
# Mean RMSD: 0.159
data_MOF--net-ung--node1-ESEHIV_clean_sbu_0--edge1-TEMPAE_clean_linker_10
_symmetry_space_group_name_H-M    P1
_symmetry_Int_Tables_number       1
_symmetry_cell_setting            triclinic
loop_
_symmetry_equiv_pos_as_xyz
'x, y, z'
_cell_length_a     91.620046
_cell_length_b     89.625114
_cell_length_c     21.744575
_cell_angle_alpha  96.460583
_cell_angle_beta   86.819113
_cell_angle_gamma 122.39313
loop_
_atom_site_label
_atom_site_type_symbol
_atom_site_fract_x
_atom_site_fract_y
_atom_site_fract_z
_atom_type_partial_charge
Cu0 Cu 0.04097 0.59655 0.23005 0.0
N1 N 0.03356 0.58421 0.30133 0.0
N2 N 0.03209 0.56785 0.3753 0.0
C3 C 0.03783 0.57292 0.318 0.0
C4 C 0.02379 0.5762 0.3951 0.0
C5 C 0.02468 0.58622 0.34946 0.0
O6 O 0.04742 0.58266 0.17091 0.0
C7 C 0.06763 0.62678 0.30499 0.0
O8 O 0.06608 0.6148 0.33901 0.0
H9 H 0.0457 0.56917 0.28983 0.0
H10 H 0.01971 0.59482 0.35197 0.0
N11 N 0.0227 0.59681 0.19541 0.0
N12 N 1.00798 0.60574 0.14734 0.0
C13 C 0.02298 0.61076 0.17558 0.0
C14 C 1.00698 0.58258 0.17961 0.0
C15 C 0.99791 0.588 0.15005 0.0
C16 C 0.0453 0.58065 0.11233 0.0
O17 O 0.04085 0.59033 0.08731 0.0
H18 H 0.03418 0.62418 0.17971 0.0
H19 H 1.0026 0.56911 0.1877 0.0
O20 O 0.05914 0.6216 0.25418 0.0
H21 H 0.01767 0.57532 0.43973 0.0
H22 H 0.9849 0.5795 0.13172 0.0
Cu23 Cu 0.48919 0.46981 0.2035 0.0
N24 N 0.49565 0.48204 0.13204 0.0
N25 N 0.51188 0.49926 0.05769 0.0
C26 C 0.51165 0.49141 0.10776 0.0
C27 C 0.49537 0.4946 0.05032 0.0
C28 C 0.48542 0.48397 0.09597 0.0
O29 O 0.50953 0.48364 0.25934 0.0
C30 C 0.48327 0.43845 0.12652 0.0
O31 O 0.49383 0.44979 0.08783 0.0
H32 H 0.52297 0.49275 0.12723 0.0
H33 H 0.4717 0.47819 0.10279 0.0
N34 N 0.47043 0.47038 0.24101 0.0
N35 N 0.44524 0.46246 0.28867 0.0
C36 C 0.45625 0.45732 0.26765 0.0
C37 C 0.46836 0.48422 0.24579 0.0
C38 C 0.4529 0.4794 0.27489 0.0
C39 C 0.50887 0.48638 0.31812 0.0
O40 O 0.4939 0.47758 0.34592 0.0
H41 H 0.45397 0.44427 0.27076 0.0
H42 H 0.47748 0.49696 0.22912 0.0
O43 O 0.48078 0.44444 0.17966 0.0
H44 H 0.49077 0.49849 0.01422 0.0
H45 H 0.44782 0.48786 0.28589 0.0
Cu46 Cu 0.60913 0.02994 0.31108 0.0
N47 N 0.59589 0.02225 0.23806 0.0
N48 N 0.57946 0.0213 0.16301 0.0
C49 C 0.58896 0.03048 0.21472 0.0
C50 C 0.58054 1.00677 0.15341 0.0
C51 C 0.59071 1.00743 0.19949 0.0
O52 O 0.59653 0.03718 0.37138 0.0
C53 C 0.64153 0.04324 0.25553 0.0
O54 O 0.63424 0.02619 0.23843 0.0
H55 H 0.59052 0.04275 0.23619 0.0
H56 H 0.59401 0.99771 0.2047 0.0
N57 N 0.60966 0.01109 0.33988 0.0
N58 N 0.61864 0.99528 0.38016 0.0
C59 C 0.62294 0.01155 0.36646 0.0
C60 C 0.5965 0.99404 0.33765 0.0
C61 C 0.60197 0.98429 0.36209 0.0
C62 C 0.59423 0.03425 0.42836 0.0
O63 O 0.60279 0.02835 0.4526 0.0
H64 H 0.63558 0.02352 0.37457 0.0
H65 H 0.58376 0.98904 0.31948 0.0
O66 O 0.6329 0.04846 0.28937 0.0
H67 H 0.57449 0.99644 0.11553 0.0
H68 H 0.59415 0.97021 0.36696 0.0
Cu69 Cu 0.0502 0.46129 0.74486 0.0
N70 N 0.05652 0.47559 0.67862 0.0
N71 N 0.05723 0.49334 0.61165 0.0
C72 C 0.04941 0.48444 0.66183 0.0
C73 C 0.06963 0.48983 0.59612 0.0
C74 C 0.06907 0.47882 0.63697 0.0
O75 O 0.04616 0.47421 0.81638 0.0
C76 C 0.02357 0.42312 0.7392 0.0
O77 O 0.02693 0.42387 0.79778 0.0
H78 H 0.03881 0.4845 0.6861 0.0
H79 H 0.07719 0.47342 0.63596 0.0
N80 N 0.06929 0.46017 0.76756 0.0
N81 N 0.08616 0.45276 0.81031 0.0
C82 C 0.06976 0.44785 0.79696 0.0
C83 C 0.08594 0.47333 0.76308 0.0
C84 C 0.09629 0.46881 0.78877 0.0
C85 C 0.03399 0.47715 0.82487 0.0
O86 O 0.02076 0.46902 0.78651 0.0
H87 H 0.05839 0.43568 0.80924 0.0
H88 H 0.09028 0.48573 0.74438 0.0
O89 O 0.03106 0.43743 0.71262 0.0
H90 H 0.07828 0.49458 0.55716 0.0
H91 H 0.11021 0.47711 0.79351 0.0
Cu92 Cu 0.63767 0.60842 0.65531 0.0
N93 N 0.63081 0.59562 0.72554 0.0
N94 N 0.61442 0.57869 0.80034 0.0
C95 C 0.61463 0.58346 0.74316 0.0
C96 C 0.63111 0.5881 0.8189 0.0
C97 C 0.64113 0.59846 0.77288 0.0
O98 O 0.61995 0.59357 0.59051 0.0
C99 C 0.63667 0.63616 0.73249 0.0
O100 O 0.62459 0.62291 0.76174 0.0
H101 H 0.60318 0.57888 0.71602 0.0
H102 H 0.65495 0.6079 0.7746 0.0
N103 N 0.65857 0.61105 0.62463 0.0
N104 N 0.68373 0.62051 0.57401 0.0
C105 C 0.67085 0.62346 0.5896 0.0
C106 C 0.66391 0.59998 0.63154 0.0
C107 C 0.67931 0.60574 0.60072 0.0
C108 C 0.60458 0.59022 0.58789 0.0
O109 O 0.59971 0.59868 0.62864 0.0
H110 H 0.67014 0.63418 0.57475 0.0
H111 H 0.65697 0.5884 0.65694 0.0
O112 O 0.64269 0.63265 0.68224 0.0
H113 H 0.63574 0.58772 0.86306 0.0
H114 H 0.68674 0.59954 0.59865 0.0
Cu115 Cu 0.48027 0.044 0.77073 0.0
N116 N 0.49374 0.05098 0.84306 0.0
N117 N 0.51019 0.0516 0.91735 0.0
C118 C 0.50388 0.04527 0.859 0.0
C119 C 0.50391 0.06183 0.93851 0.0
C120 C 0.49384 0.06145 0.89271 0.0
O121 O 0.49282 0.0389 0.70338 0.0
C122 C 0.45183 0.01735 0.8378 0.0
O123 O 0.4642 0.01904 0.87133 0.0
H124 H 0.50593 0.036 0.82956 0.0
H125 H 0.48665 0.06792 0.89598 0.0
N126 N 0.48015 0.06355 0.74737 0.0
N127 N 0.473 0.07998 0.70121 0.0
C128 C 0.46733 0.06389 0.72063 0.0
C129 C 0.49425 0.07997 0.74503 0.0
C130 C 0.48991 0.09008 0.71661 0.0
C131 C 0.49565 0.02634 0.69454 0.0
O132 O 0.48775 0.01309 0.72927 0.0
H133 H 0.45439 0.05237 0.71258 0.0
H134 H 0.507 0.08406 0.7606 0.0
O135 O 0.45596 0.02557 0.78907 0.0
H136 H 0.50626 0.06894 0.98414 0.0
H137 H 0.49861 0.10373 0.70681 0.0
Cu138 Cu 0.72007 0.94479 0.63967 0.0
N139 N 0.7165 0.93158 0.70705 0.0
N140 N 0.71606 0.91305 0.76987 0.0
C141 C 0.72054 0.91934 0.71352 0.0
C142 C 0.70897 0.92169 0.79974 0.0
C143 C 0.70932 0.93307 0.7612 0.0
O144 O 0.72407 0.9331 0.56378 0.0
C145 C 0.74839 0.97568 0.70788 0.0
O146 O 0.75046 0.96417 0.73227 0.0
H147 H 0.72644 0.91495 0.6776 0.0
H148 H 0.70475 0.94196 0.77199 0.0
N149 N 0.69957 0.94402 0.62497 0.0
N150 N 0.68097 0.95063 0.59258 0.0
C151 C 0.69761 0.95501 0.59322 0.0
C152 C 0.68363 0.93226 0.64456 0.0
C153 C 0.6722 0.93629 0.6249 0.0
C154 C 0.73574 0.92944 0.55442 0.0
O155 O 0.74808 0.9356 0.59584 0.0
H156 H 0.70823 0.96611 0.57171 0.0
H157 H 0.68051 0.92143 0.67116 0.0
O158 O 0.73739 0.97013 0.66403 0.0
H159 H 0.70415 0.92015 0.84667 0.0
H160 H 0.6584 0.92899 0.63294 0.0
Cu161 Cu 0.14375 0.80154 0.59014 0.0
N162 N 0.15901 0.81108 0.65889 0.0
N163 N 0.17706 0.82933 0.73692 0.0
C164 C 0.16775 0.82782 0.68754 0.0
C165 C 0.17401 0.81288 0.739 0.0
C166 C 0.16292 0.80176 0.69141 0.0
O167 O 0.15509 0.81782 0.52456 0.0
C168 C 0.10645 0.78785 0.5954 0.0
O169 O 0.10586 0.78299 0.53586 0.0
H170 H 0.16701 0.83857 0.67345 0.0
H171 H 0.15795 0.78774 0.68143 0.0
N172 N 0.14211 0.7802 0.55656 0.0
N173 N 0.13385 0.75348 0.50576 0.0
C174 C 0.12869 0.76444 0.53151 0.0
C175 C 0.15607 0.77899 0.54648 0.0
C176 C 0.15108 0.76267 0.51577 0.0
C177 C 0.16028 0.83422 0.52586 0.0
O178 O 0.15588 0.84162 0.57258 0.0
H179 H 0.11554 0.76125 0.53019 0.0
H180 H 0.16914 0.78952 0.55936 0.0
O181 O 0.12109 0.7966 0.6231 0.0
H182 H 0.1795 0.80908 0.77223 0.0
H183 H 0.1596 0.75801 0.50162 0.0
Cu184 Cu 0.28736 0.3709 0.59822 0.0
N185 N 0.27924 0.37759 0.67113 0.0
N186 N 0.26183 0.37739 0.74874 0.0
C187 C 0.26273 0.37045 0.69087 0.0
C188 C 0.27847 0.38937 0.76542 0.0
C189 C 0.28906 0.38932 0.71812 0.0
O190 O 0.27008 0.36397 0.53252 0.0
C191 C 0.29785 0.3448 0.59227 0.0
O192 O 0.30092 0.34667 0.53304 0.0
H193 H 0.2517 0.3599 0.66417 0.0
H194 H 0.30304 0.39698 0.71875 0.0
N195 N 0.30893 0.39055 0.57559 0.0
N196 N 0.33522 0.40759 0.53423 0.0
C197 C 0.3214 0.39086 0.53813 0.0
C198 C 0.31506 0.40771 0.59499 0.0
C199 C 0.33116 0.41816 0.56998 0.0
C200 C 0.26842 0.37648 0.51839 0.0
O201 O 0.27827 0.39237 0.54742 0.0
H202 H 0.3205 0.37912 0.5146 0.0
H203 H 0.30821 0.4124 0.62486 0.0
O204 O 0.29121 0.35272 0.62295 0.0
H205 H 0.28283 0.39758 0.80901 0.0
H206 H 0.33913 0.4325 0.57672 0.0
Cu207 Cu 0.72243 0.80409 0.07272 0.0
N208 N 0.71581 0.81187 0.14769 0.0
N209 N 0.71516 0.82926 0.22991 0.0
C210 C 0.72362 0.82847 0.17748 0.0
C211 C 0.70149 0.81247 0.23255 0.0
C212 C 0.70192 0.80189 0.18219 0.0
O213 O 0.72974 0.82314 0.0183 0.0
C214 C 0.73845 0.79094 0.13702 0.0
O215 O 0.72442 0.78564 0.1704 0.0
H216 H 0.73534 0.83969 0.16119 0.0
H217 H 0.69267 0.78785 0.17138 0.0
N218 N 0.70329 0.78273 0.03584 0.0
N219 N 0.68698 0.75687 0.97694 0.0
C220 C 0.70289 0.76888 1.00163 0.0
C221 C 0.68711 0.77923 0.03296 0.0
C222 C 0.67709 0.76341 0.99705 0.0
C223 C 0.72451 0.82039 0.96248 0.0
O224 O 0.71575 0.80403 0.93615 0.0
H225 H 0.71416 0.768 0.99296 0.0
H226 H 0.68299 0.78789 0.05417 0.0
O227 O 0.74056 0.79954 0.09079 0.0
H228 H 0.69162 0.80811 0.26782 0.0
H229 H 0.66352 0.75724 0.98632 0.0
Cu230 Cu 0.28855 0.94661 0.12068 0.0
N231 N 0.27898 0.93145 0.18546 0.0
N232 N 0.26088 0.9133 0.2556 0.0
C233 C 0.2625 0.92226 0.20658 0.0
C234 C 0.27701 0.91703 0.26509 0.0
C235 C 0.28801 0.92816 0.22245 0.0
O236 O 0.27242 0.93516 0.05002 0.0
C237 C 0.30127 0.9845 0.12878 0.0
O238 O 0.3043 0.98352 0.06918 0.0
H239 H 0.25198 0.92244 0.18731 0.0
H240 H 0.30176 0.9336 0.21893 0.0
N241 N 0.30907 0.94779 0.09126 0.0
N242 N 0.33391 0.95512 0.04081 0.0
C243 C 0.32329 0.96065 0.06362 0.0
C244 C 0.31093 0.93379 0.08573 0.0
C245 C 0.32611 0.93823 0.05523 0.0
C246 C 0.25687 0.93121 0.04681 0.0
O247 O 0.25058 0.93693 0.09264 0.0
H248 H 0.3255 0.97352 0.05788 0.0
H249 H 0.30153 0.92094 0.10099 0.0
O250 O 0.29395 0.97035 0.15626 0.0
H251 H 0.28072 0.912 0.30013 0.0
H252 H 0.33092 0.92955 0.04393 0.0
Cu253 Cu 0.1479 0.36951 0.12355 0.0
N254 N 0.16164 0.3753 0.19499 0.0
N255 N 0.17896 0.37585 0.26611 0.0
C256 C 0.17249 0.37007 0.20758 0.0
C257 C 0.17199 0.38518 0.29063 0.0
C258 C 0.16139 0.38478 0.24711 0.0
O259 O 0.15983 0.36592 0.05118 0.0
C260 C 0.11924 0.34155 0.18557 0.0
O261 O 0.13116 0.34407 0.22367 0.0
H262 H 0.17518 0.36176 0.17523 0.0
H263 H 0.15373 0.39073 0.25341 0.0
N264 N 0.14615 0.38883 0.10825 0.0
N265 N 0.13745 0.40493 0.06809 0.0
C266 C 0.1346 0.38852 0.07106 0.0
C267 C 0.15674 0.406 0.12912 0.0
C268 C 0.15141 0.4159 0.10477 0.0
C269 C 0.16308 0.35376 0.03857 0.0
O270 O 0.15669 0.34067 0.07388 0.0
H271 H 0.12435 0.37648 0.04658 0.0
H272 H 0.1678 0.41104 0.15899 0.0
O273 O 0.12392 0.34995 0.1373 0.0
H274 H 0.17439 0.39192 0.3369 0.0
H275 H 0.15773 0.43019 0.11218 0.0
Cu276 Cu 0.37876 0.27775 0.89577 0.0
N277 N 0.37288 0.26596 0.96829 0.0
N278 N 0.37118 0.24875 0.0395 0.0
C279 C 0.3785 0.25585 0.98591 0.0
C280 C 0.36058 0.25466 0.05613 0.0
C281 C 0.36171 0.26528 0.01245 0.0
O282 O 0.38426 0.26351 0.8344 0.0
C283 C 0.40877 0.30807 0.95811 0.0
O284 O 0.40943 0.29607 0.98524 0.0
H285 H 0.38755 0.25349 0.95932 0.0
H286 H 0.35476 0.27195 0.01257 0.0
N287 N 0.35933 0.27723 0.86726 0.0
N288 N 0.34217 0.2837 0.82116 0.0
C289 C 0.35867 0.28886 0.83441 0.0
C290 C 0.34275 0.26437 0.87512 0.0
C291 C 0.33222 0.26829 0.84726 0.0
C292 C 0.38152 0.26141 0.7762 0.0
O293 O 0.3768 0.27109 0.75271 0.0
H294 H 0.37009 0.30066 0.81963 0.0
H295 H 0.33858 0.25285 0.89944 0.0
O296 O 0.39737 0.30289 0.91603 0.0
H297 H 0.35266 0.25164 0.09727 0.0
H298 H 0.31825 0.26038 0.84707 0.0
Cu299 Cu 0.80583 0.13193 0.98709 0.0
N300 N 0.81287 0.14707 0.9237 0.0
N301 N 0.82938 0.16555 0.85265 0.0
C302 C 0.82814 0.15459 0.89358 0.0
C303 C 0.81421 0.16476 0.85719 0.0
C304 C 0.80411 0.15339 0.90083 0.0
O305 O 0.82398 0.14519 0.0513 0.0
C306 C 0.79278 0.09383 0.96886 0.0
O307 O 0.7869 0.09298 0.02566 0.0
H308 H 0.83831 0.1524 0.90263 0.0
H309 H 0.79132 0.1501 0.91538 0.0
N310 N 0.78576 0.12978 0.02538 0.0
N311 N 0.76037 0.12028 0.07411 0.0
C312 C 0.7696 0.11568 0.03435 0.0
C313 C 0.78645 0.14361 0.05977 0.0
C314 C 0.77098 0.13785 0.08979 0.0
C315 C 0.83966 0.14932 0.05028 0.0
O316 O 0.84486 0.14232 1.00486 0.0
H317 H 0.76496 0.10224 0.01478 0.0
H318 H 0.79781 0.15691 0.06474 0.0
O319 O 0.80171 0.10895 0.94758 0.0
H320 H 0.8106 0.17183 0.83072 0.0
H321 H 0.76789 0.14588 0.12203 0.0
Cu322 Cu 0.96081 0.70871 0.87571 0.0
N323 N 0.94821 0.70145 0.80134 0.0
N324 N 0.9318 0.70004 0.7252 0.0
C325 C 0.94056 0.70904 0.77845 0.0
C326 C 0.93406 0.68628 0.71438 0.0
C327 C 0.94418 0.6872 0.76122 0.0
O328 O 0.94905 0.71761 0.93354 0.0
C329 C 0.99098 0.73726 0.81994 0.0
O330 O 0.97994 0.74058 0.79893 0.0
H331 H 0.94108 0.72069 0.80123 0.0
H332 H 0.94818 0.67802 0.7661 0.0
N333 N 0.95836 0.6887 0.90718 0.0
N334 N 0.96322 0.67064 0.95411 0.0
C335 C 0.97044 0.68645 0.93009 0.0
C336 C 0.94312 0.6738 0.91661 0.0
C337 C 0.94604 0.6627 0.94542 0.0
C338 C 0.94683 0.71536 0.99114 0.0
O339 O 0.95524 0.70954 0.01696 0.0
H340 H 0.98415 0.69642 0.93117 0.0
H341 H 0.93067 0.67138 0.90461 0.0
O342 O 0.98555 0.72518 0.85678 0.0
H343 H 0.92886 0.67628 0.67521 0.0
H344 H 0.93623 0.64977 0.95915 0.0
Cu345 Cu 0.38439 0.13996 0.41177 0.0
N346 N 0.38875 0.15113 0.33853 0.0
N347 N 0.38884 0.16721 0.26607 0.0
C348 C 0.38538 0.16345 0.32579 0.0
C349 C 0.39471 0.15694 0.24069 0.0
C350 C 0.39466 0.14712 0.28529 0.0
O351 O 0.38112 0.15442 0.47955 0.0
C352 C 0.35443 0.1085 0.35341 0.0
O353 O 0.35249 0.11966 0.32594 0.0
H354 H 0.37993 0.16907 0.35895 0.0
H355 H 0.3983 0.13739 0.27904 0.0
N356 N 0.40407 0.14031 0.43515 0.0
N357 N 0.42075 0.13332 0.48072 0.0
C358 C 0.40472 0.12744 0.45963 0.0
C359 C 0.42023 0.15471 0.44063 0.0
C360 C 0.43051 0.15047 0.4687 0.0
C361 C 0.36908 0.15756 0.48734 0.0
O362 O 0.35562 0.14904 0.45 0.0
H363 H 0.3935 0.11435 0.46501 0.0
H364 H 0.42408 0.16763 0.42758 0.0
O365 O 0.36613 0.11462 0.39497 0.0
H366 H 0.39872 0.15649 0.1931 0.0
H367 H 0.44405 0.15941 0.48061 0.0
Cu368 Cu 0.95388 0.26951 0.43747 0.0
N369 N 0.94751 0.25824 0.5108 0.0
N370 N 0.93136 0.24213 0.58764 0.0
C371 C 0.93134 0.24723 0.53132 0.0
C372 C 0.94825 0.25022 0.60269 0.0
C373 C 0.95812 0.2601 0.55537 0.0
O374 O 0.9335 0.25539 0.38233 0.0
C375 C 0.95552 0.30031 0.5027 0.0
O376 O 0.94089 0.28864 0.52746 0.0
H377 H 0.9198 0.24346 0.50613 0.0
H378 H 0.97208 0.26823 0.55376 0.0
N379 N 0.97238 0.26832 0.40056 0.0
N380 N 0.99721 0.2752 0.35172 0.0
C381 C 0.98721 0.28128 0.37659 0.0
C382 C 0.97307 0.25364 0.39081 0.0
C383 C 0.98827 0.2578 0.36093 0.0
C384 C 0.93409 0.25316 0.32339 0.0
O385 O 0.9489 0.26271 0.29541 0.0
H386 H 0.99041 0.29478 0.37642 0.0
H387 H 0.96312 0.24075 0.40437 0.0
O388 O 0.96227 0.29483 0.4603 0.0
H389 H 0.95317 0.24906 0.64482 0.0
H390 H 0.99249 0.24869 0.34777 0.0
Cu391 Cu 0.83045 0.72091 0.33424 0.0
N392 N 0.84379 0.72737 0.40659 0.0
N393 N 0.85985 0.72726 0.48079 0.0
C394 C 0.85467 0.72236 0.42077 0.0
C395 C 0.85199 0.73571 0.50492 0.0
C396 C 0.84209 0.73567 0.45941 0.0
O397 O 0.844 0.71816 0.26484 0.0
C398 C 0.79335 0.69228 0.32848 0.0
O399 O 0.79259 0.69581 0.27219 0.0
H400 H 0.85797 0.71448 0.38876 0.0
H401 H 0.83365 0.74073 0.4651 0.0
N402 N 0.82749 0.73967 0.32027 0.0
N403 N 0.81759 0.75576 0.28775 0.0
C404 C 0.81564 0.73955 0.28516 0.0
C405 C 0.83736 0.75657 0.34521 0.0
C406 C 0.83131 0.7664 0.32581 0.0
C407 C 0.84707 0.7058 0.25339 0.0
O408 O 0.83905 0.69199 0.2856 0.0
H409 H 0.80592 0.72789 0.2577 0.0
H410 H 0.84823 0.76144 0.37585 0.0
O411 O 0.80794 0.70027 0.3562 0.0
H412 H 0.85302 0.74125 0.55253 0.0
H413 H 0.83655 0.78032 0.34002 0.0
C414 C 0.05216 0.50433 0.89889 0.0
C415 C 0.03587 0.4914 0.87309 0.0
C416 C 0.0545 0.51884 0.93978 0.0
C417 C 0.04017 0.52042 0.95657 0.0
C418 C 0.0236 0.50709 0.93234 0.0
C419 C 0.02169 0.4929 0.89055 0.0
C420 C 0.07244 0.53283 0.96337 0.0
C421 C 1.00788 0.50797 0.94972 0.0
C422 C 0.04334 0.55126 0.09978 0.0
C423 C 0.04561 0.56597 0.07329 0.0
C424 C 0.04166 0.53644 0.06262 0.0
C425 C 0.0426 0.53636 0.99723 0.0
C426 C 0.04549 0.55144 0.97045 0.0
C427 C 0.04677 0.56591 1.00859 0.0
C428 C 0.03833 0.52061 0.09332 0.0
C429 C 0.04697 0.55219 0.90122 0.0
H430 H 0.06327 0.50345 0.88548 0.0
H431 H 1.00905 0.48302 0.87116 0.0
H432 H 0.07642 0.54575 0.94678 0.0
H433 H 0.07256 0.53465 0.01468 0.0
H434 H 0.08215 0.52941 0.9478 0.0
H435 H 0.99575 0.49599 0.93052 0.0
H436 H 1.00675 0.5094 1.00083 0.0
H437 H 1.00924 0.51982 0.93226 0.0
H438 H 0.04223 0.55104 0.14961 0.0
H439 H 0.04856 0.57717 0.98753 0.0
H440 H 0.04824 0.51742 0.07917 0.0
H441 H 0.02559 0.50882 0.07803 0.0
H442 H 0.03839 0.52287 0.14463 0.0
H443 H 0.05706 0.54964 0.88294 0.0
H444 H 0.05022 0.56524 0.88779 0.0
H445 H 0.03457 0.54167 0.87862 0.0
C446 C 0.59962 0.5705 0.90101 0.0
C447 C 0.59952 0.5671 0.83633 0.0
C448 C 0.58532 0.55941 0.93693 0.0
C449 C 0.57053 0.5443 0.90782 0.0
C450 C 0.57035 0.54073 0.84251 0.0
C451 C 0.58476 0.55224 0.80757 0.0
C452 C 0.58601 0.56396 1.00614 0.0
C453 C 0.55497 0.52467 0.80957 0.0
C454 C 0.5401 0.5075 0.00953 0.0
C455 C 0.52658 0.5105 0.02032 0.0
C456 C 0.55429 0.51816 0.9722 0.0
C457 C 0.55521 0.53241 0.94579 0.0
C458 C 0.54166 0.53557 0.95699 0.0
C459 C 0.52749 0.52452 0.99358 0.0
C460 C 0.56828 0.51412 0.96083 0.0
C461 C 0.54221 0.55079 0.93096 0.0
H462 H 0.61083 0.58209 0.92358 0.0
H463 H 0.58462 0.54944 0.75776 0.0
H464 H 0.5752 0.56576 0.02075 0.0
H465 H 0.58439 0.5529 0.03023 0.0
H466 H 0.59837 0.57627 0.02167 0.0
H467 H 0.55694 0.52356 0.75878 0.0
H468 H 0.5524 0.51243 0.82801 0.0
H469 H 0.54327 0.52533 0.81824 0.0
H470 H 0.5394 0.49658 0.0294 0.0
H471 H 0.51723 0.52707 1.00228 0.0
H472 H 0.58081 0.52564 0.97915 0.0
H473 H 0.56989 0.51186 0.91035 0.0
H474 H 0.56541 0.50224 0.98293 0.0
H475 H 0.55394 0.56353 0.94807 0.0
H476 H 0.53067 0.55148 0.94387 0.0
H477 H 0.54304 0.54943 0.87976 0.0
C478 C 0.55429 0.01238 0.09721 0.0
C479 C 0.56982 0.02578 0.12653 0.0
C480 C 0.54464 0.0165 0.06222 0.0
C481 C 0.55076 0.03448 0.05533 0.0
C482 C 0.56657 0.04806 0.08415 0.0
C483 C 0.5758 0.04356 0.11977 0.0
C484 C 0.52774 1.0016 0.03337 0.0
C485 C 0.57374 0.06737 0.07734 0.0
C486 C 0.53249 0.04405 0.92145 0.0
C487 C 0.52043 0.04738 0.95161 0.0
C488 C 0.54259 0.04005 0.95457 0.0
C489 C 0.5404 0.03906 0.0194 0.0
C490 C 0.52813 0.04227 0.04994 0.0
C491 C 0.51842 0.04649 0.01586 0.0
C492 C 0.55567 0.03698 0.92021 0.0
C493 C 0.52512 0.04107 0.11867 0.0
H494 H 0.54946 0.99863 0.10278 0.0
H495 H 0.58788 0.05397 0.14162 0.0
H496 H 0.51703 1.00316 0.05159 0.0
H497 H 0.52809 1.00211 0.98255 0.0
H498 H 0.52479 0.98832 0.04276 0.0
H499 H 0.58647 0.07631 0.10073 0.0
H500 H 0.57521 0.06959 0.02759 0.0
H501 H 0.56459 0.07112 0.09722 0.0
H502 H 0.53424 0.04486 0.872 0.0
H503 H 0.50896 0.04877 0.03945 0.0
H504 H 0.55257 0.02341 0.92535 0.0
H505 H 0.56873 0.04646 0.94036 0.0
H506 H 0.55606 0.03857 0.87009 0.0
H507 H 0.52113 0.02762 0.12994 0.0
H508 H 0.51502 0.0438 0.13545 0.0
H509 H 0.53729 0.05069 0.14439 0.0
C510 C 0.58058 0.03625 0.53024 0.0
C511 C 0.58041 0.03521 0.46531 0.0
C512 C 0.56688 0.0355 0.56582 0.0
C513 C 0.55232 0.03319 0.53602 0.0
C514 C 0.55217 0.03235 0.47046 0.0
C515 C 0.56625 0.03356 0.43605 0.0
C516 C 0.5679 0.03691 0.63548 0.0
C517 C 0.53686 0.02957 0.43645 0.0
C518 C 0.51029 0.01292 0.6294 0.0
C519 C 0.50938 0.02782 0.65019 0.0
C520 C 0.52383 0.01439 0.59082 0.0
C521 C 0.53715 0.03126 0.57352 0.0
C522 C 0.53623 0.04632 0.594 0.0
C523 C 0.52232 0.0444 0.63133 0.0
C524 C 0.524 0.99788 0.56918 0.0
C525 C 0.55024 0.06461 0.57808 0.0
H526 H 0.59143 0.03755 0.55344 0.0
H527 H 0.56585 0.03253 0.38594 0.0
H528 H 0.56589 0.04755 0.6564 0.0
H529 H 0.55748 0.02429 0.65276 0.0
H530 H 0.58053 0.03981 0.65179 0.0
H531 H 0.53883 0.02959 0.38558 0.0
H532 H 0.52514 0.01669 0.44623 0.0
H533 H 0.53429 0.04012 0.45299 0.0
H534 H 0.50039 1.00004 0.64345 0.0
H535 H 0.52191 0.05606 0.64748 0.0
H536 H 0.53541 0.99883 0.58888 0.0
H537 H 0.52515 0.99668 0.51804 0.0
H538 H 0.51217 0.98564 0.58302 0.0
H539 H 0.56277 0.06816 0.59761 0.0
H540 H 0.54748 0.07494 0.59625 0.0
H541 H 0.55179 0.06478 0.52717 0.0
C542 C 0.03732 0.56018 0.47445 0.0
C543 C 0.03518 0.55687 0.40986 0.0
C544 C 0.04065 0.54986 0.50864 0.0
C545 C 0.04161 0.5356 0.47787 0.0
C546 C 0.03922 0.53203 0.41273 0.0
C547 C 0.03621 0.54278 0.37955 0.0
C548 C 0.04346 0.55442 0.57768 0.0
C549 C 0.03985 0.51682 0.37802 0.0
C550 C 0.0665 0.51916 0.55316 0.0
C551 C 0.05326 0.50417 0.58009 0.0
C552 C 0.06292 0.52957 0.52062 0.0
C553 C 0.04558 0.52476 0.51356 0.0
C554 C 0.03214 0.50963 0.54071 0.0
C555 C 0.03615 0.49964 0.57412 0.0
C556 C 0.07772 0.54577 0.49381 0.0
C557 C 1.01347 0.50382 0.53361 0.0
H558 H 0.0368 0.57117 0.4982 0.0
H559 H 0.0344 0.54001 0.32983 0.0
H560 H 0.03398 0.5428 0.6023 0.0
H561 H 0.05654 0.55773 0.58994 0.0
H562 H 0.0422 0.56584 0.59479 0.0
H563 H 0.03709 0.51535 0.32785 0.0
H564 H 0.05281 0.51892 0.38341 0.0
H565 H 0.03031 0.50422 0.39766 0.0
H566 H 0.07977 0.52286 0.5582 0.0
H567 H 0.02584 0.48799 0.59421 0.0
H568 H 0.07751 0.55772 0.51204 0.0
H569 H 0.0763 0.54432 0.44279 0.0
H570 H 0.09049 0.54801 0.50479 0.0
H571 H 1.01154 0.51462 0.55317 0.0
H572 H 1.00451 0.49171 0.55698 0.0
H573 H 1.00998 0.50111 0.48377 0.0
C574 C 0.59433 0.56218 0.5161 0.0
C575 C 0.5917 0.57558 0.54299 0.0
C576 C 0.58166 0.54752 0.47778 0.0
C577 C 0.56602 0.54627 0.46459 0.0
C578 C 0.56354 0.56004 0.49012 0.0
C579 C 0.57626 0.57434 0.5294 0.0
C580 C 0.58479 0.53306 0.4529 0.0
C581 C 0.54731 0.55956 0.47656 0.0
C582 C 0.53805 0.51519 0.32574 0.0
C583 C 0.52436 0.5009 0.35448 0.0
C584 C 0.55172 0.52992 0.36071 0.0
C585 C 0.55201 0.53032 0.4261 0.0
C586 C 0.53854 0.51562 0.45503 0.0
C587 C 0.52485 0.50126 0.41913 0.0
C588 C 0.56556 0.54536 0.32777 0.0
C589 C 0.53841 0.51517 0.52426 0.0
H590 H 0.6061 0.56285 0.52661 0.0
H591 H 0.57407 0.58459 0.54964 0.0
H592 H 0.5748 0.52035 0.47089 0.0
H593 H 0.58364 0.53101 0.40171 0.0
H594 H 0.59774 0.53614 0.46601 0.0
H595 H 0.54778 0.57178 0.49648 0.0
H596 H 0.54526 0.55794 0.42581 0.0
H597 H 0.53595 0.54797 0.49589 0.0
H598 H 0.53775 0.51519 0.27598 0.0
H599 H 0.5144 0.49032 0.44193 0.0
H600 H 0.57851 0.54819 0.33919 0.0
H601 H 0.56536 0.55745 0.34379 0.0
H602 H 0.56382 0.54286 0.2767 0.0
H603 H 0.55085 0.51748 0.53984 0.0
H604 H 0.5277 0.50232 0.5393 0.0
H605 H 0.53703 0.52597 0.54789 0.0
C606 C 0.71357 0.84219 0.3355 0.0
C607 C 0.71944 0.84454 0.27407 0.0
C608 C 0.71693 0.85666 0.37856 0.0
C609 C 0.72648 0.87415 0.36045 0.0
C610 C 0.73268 0.87671 0.29883 0.0
C611 C 0.72912 0.86194 0.25654 0.0
C612 C 0.71012 0.85319 0.44362 0.0
C613 C 0.74293 0.89507 0.27733 0.0
C614 C 0.72005 0.9083 0.46005 0.0
C615 C 0.73427 0.91658 0.50082 0.0
C616 C 0.71767 0.89493 0.41309 0.0
C617 C 0.72977 0.8896 0.40618 0.0
C618 C 0.74444 0.89832 0.44584 0.0
C619 C 0.74649 0.91162 0.49248 0.0
C620 C 0.70184 0.88609 0.37212 0.0
C621 C 0.75773 0.8932 0.44032 0.0
H622 H 0.70639 0.82895 0.35033 0.0
H623 H 0.73363 0.86401 0.20935 0.0
H624 H 0.72096 0.86056 0.47737 0.0
H625 H 0.70131 0.85807 0.45415 0.0
H626 H 0.703 0.83886 0.45068 0.0
H627 H 0.74721 0.89495 0.22857 0.0
H628 H 0.73497 0.90107 0.28141 0.0
H629 H 0.75448 0.90376 0.3073 0.0
H630 H 0.71049 0.91193 0.46575 0.0
H631 H 0.75755 0.91786 0.52339 0.0
H632 H 0.69339 0.87191 0.38062 0.0
H633 H 0.70562 0.88648 0.32269 0.0
H634 H 0.69425 0.89247 0.38045 0.0
H635 H 0.75175 0.87936 0.45203 0.0
H636 H 0.76902 0.90204 0.47145 0.0
H637 H 0.7624 0.89364 0.39197 0.0
C638 C 0.17907 0.86358 0.48056 0.0
C639 C 0.17304 0.84543 0.47895 0.0
C640 C 0.19238 0.87471 0.441 0.0
C641 C 0.20007 0.86768 0.39868 0.0
C642 C 0.19365 0.84927 0.3954 0.0
C643 C 0.18026 0.83841 0.43523 0.0
C644 C 0.19862 0.89418 0.44606 0.0
C645 C 0.20141 0.84112 0.35141 0.0
C646 C 0.22877 0.89443 0.267 0.0
C647 C 0.24551 0.90227 0.29147 0.0
C648 C 0.2139 0.8833 0.30121 0.0
C649 C 0.21565 0.87978 0.36153 0.0
C650 C 0.23247 0.88779 0.38663 0.0
C651 C 0.24706 0.8989 0.35172 0.0
C652 C 0.19627 0.87517 0.27257 0.0
C653 C 0.23511 0.88455 0.4506 0.0
H654 H 0.17366 0.86924 0.51384 0.0
H655 H 0.17581 0.82447 0.43334 0.0
H656 H 0.21206 0.90218 0.46432 0.0
H657 H 0.19884 0.89835 0.3997 0.0
H658 H 0.19039 0.89733 0.47715 0.0
H659 H 0.19424 0.82644 0.3511 0.0
H660 H 0.20155 0.84445 0.30368 0.0
H661 H 0.21503 0.8467 0.36494 0.0
H662 H 0.22726 0.89672 0.22062 0.0
H663 H 0.25975 0.90506 0.37221 0.0
H664 H 0.18827 0.87878 0.30299 0.0
H665 H 0.18952 0.86048 0.26814 0.0
H666 H 0.19698 0.87954 0.22608 0.0
H667 H 0.22848 0.88891 0.48536 0.0
H668 H 0.249 0.89167 0.46354 0.0
H669 H 0.2293 0.87013 0.4531 0.0
C670 C 0.25715 0.38878 0.44989 0.0
C671 C 0.25544 0.37382 0.47242 0.0
C672 C 0.2445 0.38738 0.41169 0.0
C673 C 0.2295 0.37055 0.39515 0.0
C674 C 0.22793 0.35524 0.41567 0.0
C675 C 0.24092 0.35703 0.45391 0.0
C676 C 0.24693 0.40411 0.39098 0.0
C677 C 0.21221 0.33703 0.39913 0.0
C678 C 0.19047 0.37317 0.36225 0.0
C679 C 0.19058 0.3727 0.29736 0.0
C680 C 0.20248 0.37161 0.39414 0.0
C681 C 0.21507 0.36945 0.36077 0.0
C682 C 0.2148 0.36816 0.29509 0.0
C683 C 0.20259 0.36978 0.26424 0.0
C684 C 0.20211 0.373 0.46401 0.0
C685 C 0.22789 0.36582 0.25743 0.0
H686 H 0.26835 0.40183 0.46313 0.0
H687 H 0.23941 0.34538 0.471 0.0
H688 H 0.24545 0.40275 0.34001 0.0
H689 H 0.23683 0.4063 0.41203 0.0
H690 H 0.2598 0.41603 0.40427 0.0
H691 H 0.21369 0.32633 0.41287 0.0
H692 H 0.20072 0.33603 0.4228 0.0
H693 H 0.20965 0.33481 0.34861 0.0
H694 H 0.18104 0.37496 0.38851 0.0
H695 H 0.20287 0.36939 0.21426 0.0
H696 H 0.21399 0.38534 0.48269 0.0
H697 H 0.20193 0.36167 0.4809 0.0
H698 H 0.19071 0.37323 0.483 0.0
H699 H 0.24088 0.37812 0.26439 0.0
H700 H 0.22478 0.36294 0.20718 0.0
H701 H 0.22863 0.35487 0.27304 0.0
C702 C 0.17944 0.34233 0.97368 0.0
C703 C 0.1756 0.35553 0.98841 0.0
C704 C 0.19238 0.34464 0.93048 0.0
C705 C 0.2019 0.36061 0.90149 0.0
C706 C 0.19769 0.37372 0.91464 0.0
C707 C 0.1846 0.371 0.95757 0.0
C708 C 0.19628 0.33022 0.91743 0.0
C709 C 0.20753 0.391 0.8853 0.0
C710 C 0.24815 0.37647 0.85131 0.0
C711 C 0.24661 0.37262 0.78659 0.0
C712 C 0.23375 0.37253 0.88882 0.0
C713 C 0.21716 0.36428 0.86155 0.0
C714 C 0.21537 0.36 0.79648 0.0
C715 C 0.23008 0.36426 0.75984 0.0
C716 C 0.23635 0.37739 0.95788 0.0
C717 C 0.19793 0.35108 0.76549 0.0
H718 H 0.17256 0.33029 0.99687 0.0
H719 H 0.1818 0.38132 0.96836 0.0
H720 H 0.19641 0.32686 0.8668 0.0
H721 H 0.20931 0.33503 0.93562 0.0
H722 H 0.18671 0.31796 0.939 0.0
H723 H 0.20194 0.39932 0.89696 0.0
H724 H 0.22118 0.39866 0.90133 0.0
H725 H 0.20761 0.3884 0.83423 0.0
H726 H 0.26065 0.38252 0.87319 0.0
H727 H 0.22863 0.36128 0.71011 0.0
H728 H 0.22832 0.36536 0.98262 0.0
H729 H 0.23208 0.3867 0.97318 0.0
H730 H 0.25005 0.38371 0.97202 0.0
H731 H 0.18863 0.33863 0.78645 0.0
H732 H 0.19852 0.34788 0.71491 0.0
H733 H 0.19276 0.35986 0.77296 0.0
C734 C 0.71827 0.83124 0.87173 0.0
C735 C 0.72609 0.83505 0.93001 0.0
C736 C 0.71773 0.84428 0.84314 0.0
C737 C 0.72532 0.86172 0.87302 0.0
C738 C 0.73389 0.86588 0.93061 0.0
C739 C 0.73411 0.85251 0.9585 0.0
C740 C 0.70835 0.83914 0.78204 0.0
C741 C 0.74234 0.88433 0.96385 0.0
C742 C 0.73252 0.89849 0.77711 0.0
C743 C 0.71833 0.9 0.79426 0.0
C744 C 0.73513 0.88631 0.80284 0.0
C745 C 0.72314 0.87515 0.84615 0.0
C746 C 0.70869 0.8765 0.86294 0.0
C747 C 0.70653 0.88891 0.83715 0.0
C748 C 0.7508 0.88547 0.78408 0.0
C749 C 0.69539 0.86471 0.90797 0.0
H750 H 0.71202 0.81785 0.84901 0.0
H751 H 0.74021 0.85567 1.00341 0.0
H752 H 0.69681 0.84018 0.7882 0.0
H753 H 0.71679 0.84836 0.74768 0.0
H754 H 0.70407 0.82537 0.76287 0.0
H755 H 0.74979 0.88588 1.00525 0.0
H756 H 0.75116 0.89432 0.93217 0.0
H757 H 0.7323 0.88728 0.97884 0.0
H758 H 0.7418 0.90711 0.74457 0.0
H759 H 0.6954 0.88979 0.85007 0.0
H760 H 0.74672 0.87194 0.76286 0.0
H761 H 0.75869 0.88817 0.82559 0.0
H762 H 0.75904 0.89517 0.75058 0.0
H763 H 0.68957 0.85056 0.8901 0.0
H764 H 0.68487 0.86737 0.91619 0.0
H765 H 0.70165 0.86671 0.95295 0.0
C766 C 0.25151 0.91061 0.94988 0.0
C767 C 0.24533 0.91836 0.99515 0.0
C768 C 0.24039 0.89707 0.90487 0.0
C769 C 0.22258 0.89106 0.90457 0.0
C770 C 0.2164 0.89931 0.94853 0.0
C771 C 0.2278 0.91278 0.99322 0.0
C772 C 0.2476 0.8887 0.85912 0.0
C773 C 0.19758 0.89345 0.94985 0.0
C774 C 0.19552 0.86217 0.76126 0.0
C775 C 0.1879 0.84494 0.7793 0.0
C776 C 0.20663 0.8773 0.80158 0.0
C777 C 0.21027 0.87525 0.86154 0.0
C778 C 0.20239 0.85793 0.8803 0.0
C779 C 0.19134 0.84309 0.83929 0.0
C780 C 0.21467 0.89549 0.77966 0.0
C781 C 0.20579 0.85502 0.94371 0.0
H782 H 0.26499 0.91474 0.95062 0.0
H783 H 0.22283 0.91864 0.02769 0.0
H784 H 0.2419 0.87464 0.86766 0.0
H785 H 0.24405 0.88873 0.8112 0.0
H786 H 0.2619 0.89568 0.86242 0.0
H787 H 0.19507 0.90217 0.98314 0.0
H788 H 0.19322 0.89336 0.90314 0.0
H789 H 0.18961 0.87968 0.96316 0.0
H790 H 0.19313 0.86385 0.7151 0.0
H791 H 0.18531 0.82997 0.85458 0.0
H792 H 0.22894 0.90207 0.77828 0.0
H793 H 0.21174 0.90393 0.81259 0.0
H794 H 0.21001 0.89494 0.73288 0.0
H795 H 0.21979 0.86052 0.94948 0.0
H796 H 0.19852 0.84074 0.95163 0.0
H797 H 0.20213 0.86217 0.97996 0.0
C798 C 0.37963 0.23208 0.76183 0.0
C799 C 0.38156 0.24673 0.73611 0.0
C800 C 0.3778 0.21729 0.72398 0.0
C801 C 0.37825 0.21721 0.65861 0.0
C802 C 0.38077 0.23223 0.63251 0.0
C803 C 0.38219 0.24665 0.67139 0.0
C804 C 0.37487 0.20151 0.75396 0.0
C805 C 0.38172 0.23298 0.5633 0.0
C806 C 0.38761 0.18529 0.55848 0.0
C807 C 0.37118 0.17214 0.53431 0.0
C808 C 0.39007 0.19989 0.5991 0.0
C809 C 0.37574 0.20133 0.61736 0.0
C810 C 0.35906 0.18784 0.5945 0.0
C811 C 0.35702 0.17357 0.55287 0.0
C812 C 0.40813 0.21406 0.62112 0.0
C813 C 0.34334 0.18858 0.61351 0.0
H814 H 0.37894 0.23187 0.81169 0.0
H815 H 0.38371 0.25789 0.65093 0.0
H816 H 0.36214 0.18963 0.73924 0.0
H817 H 0.38485 0.1985 0.73865 0.0
H818 H 0.37519 0.20374 0.8053 0.0
H819 H 0.38471 0.24597 0.55034 0.0
H820 H 0.3918 0.23056 0.54362 0.0
H821 H 0.36923 0.22236 0.5416 0.0
H822 H 0.39869 0.18446 0.54416 0.0
H823 H 0.34427 0.16351 0.53474 0.0
H824 H 0.40865 0.21584 0.67242 0.0
H825 H 0.41174 0.22695 0.60516 0.0
H826 H 0.41787 0.21086 0.60382 0.0
H827 H 0.34248 0.18994 0.66473 0.0
H828 H 0.33117 0.17657 0.5948 0.0
H829 H 0.34449 0.20041 0.59679 0.0
C830 C 0.85549 0.17101 0.79329 0.0
C831 C 0.84393 0.17626 0.81365 0.0
C832 C 0.86964 0.18132 0.75528 0.0
C833 C 0.87247 0.19739 0.73735 0.0
C834 C 0.86087 0.20277 0.75778 0.0
C835 C 0.84678 0.19216 0.7954 0.0
C836 C 0.88159 0.175 0.7343 0.0
C837 C 0.86344 0.21987 0.74042 0.0
C838 C 0.9179 0.23287 0.68973 0.0
C839 C 0.91659 0.23087 0.62487 0.0
C840 C 0.90372 0.22207 0.72666 0.0
C841 C 0.88773 0.20879 0.69834 0.0
C842 C 0.88632 0.20664 0.63289 0.0
C843 C 0.9007 0.21772 0.59705 0.0
C844 C 0.90581 0.22498 0.79619 0.0
C845 C 0.86958 0.1926 0.60066 0.0
H846 H 0.85333 0.15868 0.80639 0.0
H847 H 0.83814 0.19653 0.81147 0.0
H848 H 0.88209 0.1736 0.683 0.0
H849 H 0.89491 0.18496 0.75126 0.0
H850 H 0.87747 0.16206 0.75121 0.0
H851 H 0.85318 0.2221 0.75939 0.0
H852 H 0.87615 0.23126 0.75794 0.0
H853 H 0.86355 0.21974 0.68932 0.0
H854 H 0.92998 0.24312 0.71189 0.0
H855 H 0.89957 0.21589 0.54708 0.0
H856 H 0.90278 0.21257 0.81459 0.0
H857 H 0.89656 0.22842 0.81738 0.0
H858 H 0.91911 0.23575 0.8111 0.0
H859 H 0.86564 0.17931 0.61355 0.0
H860 H 0.87062 0.19243 0.54947 0.0
H861 H 0.85915 0.19494 0.61589 0.0
C862 C 0.9265 0.72159 0.68515 0.0
C863 C 0.92181 0.704 0.6883 0.0
C864 C 0.91689 0.72558 0.64932 0.0
C865 C 0.90204 0.71165 0.61633 0.0
C866 C 0.89725 0.69386 0.61933 0.0
C867 C 0.90722 0.69028 0.65486 0.0
C868 C 0.92259 0.74474 0.64696 0.0
C869 C 0.88139 0.67856 0.58587 0.0
C870 C 0.86743 0.72052 0.57718 0.0
C871 C 0.87034 0.72313 0.51406 0.0
C872 C 0.87756 0.71671 0.61067 0.0
C873 C 0.89113 0.7156 0.58073 0.0
C874 C 0.89414 0.71818 0.51696 0.0
C875 C 0.88364 0.72179 0.48434 0.0
C876 C 0.87367 0.71378 0.67821 0.0
C877 C 0.90855 0.7173 0.48331 0.0
H878 H 0.93785 0.73229 0.71014 0.0
H879 H 0.90336 0.67664 0.65756 0.0
H880 H 0.9245 0.74794 0.5982 0.0
H881 H 0.91239 0.74695 0.66662 0.0
H882 H 0.9348 0.75407 0.67306 0.0
H883 H 0.87959 0.66552 0.59181 0.0
H884 H 0.86973 0.67845 0.60341 0.0
H885 H 0.88231 0.68018 0.53571 0.0
H886 H 0.85701 0.7212 0.60038 0.0
H887 H 0.88606 0.7239 0.4358 0.0
H888 H 0.88515 0.72365 0.70691 0.0
H889 H 0.87074 0.70042 0.68603 0.0
H890 H 0.86255 0.71489 0.69454 0.0
H891 H 0.92111 0.72731 0.50608 0.0
H892 H 0.90929 0.7197 0.43389 0.0
H893 H 0.90665 0.70407 0.48571 0.0
C894 C 0.86226 0.69324 0.18705 0.0
C895 C 0.861 0.70788 0.2089 0.0
C896 C 0.87603 0.69517 0.14886 0.0
C897 C 0.88922 0.71224 0.13278 0.0
C898 C 0.88791 0.72704 0.15402 0.0
C899 C 0.8738 0.72467 0.19116 0.0
C900 C 0.87661 0.67893 0.12658 0.0
C901 C 0.90173 0.74551 0.1392 0.0
C902 C 0.933 0.71779 0.09205 0.0
C903 C 0.93304 0.71666 0.02706 0.0
C904 C 0.91917 0.717 0.1268 0.0
C905 C 0.90469 0.71462 0.09615 0.0
C906 C 0.9048 0.71383 0.03055 0.0
C907 C 0.919 0.71503 0.99694 0.0
C908 C 0.91989 0.71829 0.19652 0.0
C909 C 0.88961 0.71103 0.99563 0.0
H910 H 0.85248 0.6802 0.20016 0.0
H911 H 0.87311 0.73612 0.20807 0.0
H912 H 0.87802 0.67801 0.07551 0.0
H913 H 0.88803 0.68001 0.1468 0.0
H914 H 0.86483 0.66648 0.1394 0.0
H915 H 0.89857 0.75555 0.15709 0.0
H916 H 0.91422 0.7493 0.15982 0.0
H917 H 0.9036 0.74588 0.08844 0.0
H918 H 0.94374 0.71907 0.11596 0.0
H919 H 0.91875 0.71393 0.94681 0.0
H920 H 0.90956 0.70553 0.21319 0.0
H921 H 0.91754 0.7287 0.21729 0.0
H922 H 0.93253 0.72142 0.21359 0.0
H923 H 0.87798 0.69793 1.00382 0.0
H924 H 0.89195 0.7115 0.945 0.0
H925 H 0.88669 0.72128 0.01276 0.0
C926 C 0.3881 0.19453 0.26613 0.0
C927 C 0.38616 0.179 0.23461 0.0
C928 C 0.38598 0.20629 0.23528 0.0
C929 C 0.38152 0.20235 0.17148 0.0
C930 C 0.37932 0.18657 0.13972 0.0
C931 C 0.38177 0.17521 0.17144 0.0
C932 C 0.38867 0.22305 0.27088 0.0
C933 C 0.37425 0.18159 0.07214 0.0
C934 C 0.36018 0.22383 0.10453 0.0
C935 C 0.37381 0.23712 0.07211 0.0
C936 C 0.36249 0.21247 0.13685 0.0
C937 C 0.37895 0.21456 0.13794 0.0
C938 C 0.39282 0.22806 0.10572 0.0
C939 C 0.39005 0.23904 0.07277 0.0
C940 C 0.34724 0.19807 0.16926 0.0
C941 C 0.41064 0.23098 0.10631 0.0
H942 H 0.39164 0.19766 0.3147 0.0
H943 H 0.37997 0.16313 0.14685 0.0
H944 H 0.39896 0.23481 0.24871 0.0
H945 H 0.37667 0.22322 0.26983 0.0
H946 H 0.39235 0.22435 0.31992 0.0
H947 H 0.37283 0.16877 0.05426 0.0
H948 H 0.36183 0.18057 0.06523 0.0
H949 H 0.38412 0.19209 0.04414 0.0
H950 H 0.34755 0.22211 0.10368 0.0
H951 H 0.40068 0.24938 0.04847 0.0
H952 H 0.35011 0.19973 0.21933 0.0
H953 H 0.34478 0.18488 0.15042 0.0
H954 H 0.33528 0.19813 0.16392 0.0
H955 H 0.41523 0.23345 0.15473 0.0
H956 H 0.42018 0.24238 0.08069 0.0
H957 H 0.41019 0.21888 0.08519 0.0
C958 C 0.91777 0.23863 0.22289 0.0
C959 C 0.91883 0.23839 0.28692 0.0
C960 C 0.90429 0.22415 0.18666 0.0
C961 C 0.8917 0.20872 0.21453 0.0
C962 C 0.89259 0.20847 0.27933 0.0
C963 C 0.90598 0.22334 0.31475 0.0
C964 C 0.90368 0.2253 0.11821 0.0
C965 C 0.87973 0.19225 0.31103 0.0
C966 C 0.8491 0.1761 0.12756 0.0
C967 C 0.85245 0.16366 0.09606 0.0
C968 C 0.86163 0.19068 0.16642 0.0
C969 C 0.87787 0.19278 0.17553 0.0
C970 C 0.8811 0.17993 0.14547 0.0
C971 C 0.86849 0.16572 0.10562 0.0
C972 C 0.85769 0.20418 0.19613 0.0
C973 C 0.89801 0.18133 0.15474 0.0
H974 H 0.92758 0.25018 0.20086 0.0
H975 H 0.90675 0.22289 0.36401 0.0
H976 H 0.90561 0.2152 0.09148 0.0
H977 H 0.8908 0.22238 0.10521 0.0
H978 H 0.91373 0.23859 0.10423 0.0
H979 H 0.88193 0.19423 0.36182 0.0
H980 H 0.86637 0.18873 0.30238 0.0
H981 H 0.88061 0.18077 0.29152 0.0
H982 H 0.83685 0.1748 0.12015 0.0
H983 H 0.87123 0.1562 0.08175 0.0
H984 H 0.86696 0.21733 0.17942 0.0
H985 H 0.85931 0.2057 0.24707 0.0
H986 H 0.84435 0.20048 0.18571 0.0
H987 H 0.90875 0.19346 0.13579 0.0
H988 H 0.89808 0.16965 0.13177 0.0
H989 H 0.90061 0.18255 0.20488 0.0
C990 C 0.08696 0.65119 0.38554 0.0
C991 C 0.07772 0.64597 0.32961 0.0
C992 C 0.09558 0.66889 0.41242 0.0
C993 C 0.09505 0.68192 0.38298 0.0
C994 C 0.08588 0.67682 0.3262 0.0
C995 C 0.07735 0.65896 0.30022 0.0
C996 C 0.10523 0.67364 0.47269 0.0
C997 C 0.08498 0.69023 0.29309 0.0
C998 C 0.10604 0.72451 0.48494 0.0
C999 C 0.12364 0.73598 0.47218 0.0
C1000 C 0.09643 0.70709 0.45508 0.0
C1001 C 0.10454 0.70091 0.41108 0.0
C1002 C 0.12214 0.71262 0.39664 0.0
C1003 C 0.13141 0.7299 0.42712 0.0
C1004 C 0.07771 0.6951 0.47197 0.0
C1005 C 0.13137 0.70676 0.34996 0.0
H1006 H 0.08736 0.64136 0.40895 0.0
H1007 H 0.07018 0.65513 0.25731 0.0
H1008 H 0.11909 0.68385 0.46652 0.0
H1009 H 0.10005 0.67943 0.50843 0.0
H1010 H 0.10428 0.66197 0.49014 0.0
H1011 H 0.07729 0.6842 0.24959 0.0
H1012 H 0.07911 0.69637 0.32373 0.0
H1013 H 0.09821 0.70106 0.28182 0.0
H1014 H 0.09989 0.72897 0.51965 0.0
H1015 H 0.14485 0.73869 0.41557 0.0
H1016 H 0.07607 0.68383 0.49483 0.0
H1017 H 0.06952 0.68941 0.42963 0.0
H1018 H 0.07294 0.70219 0.50367 0.0
H1019 H 0.13184 0.69579 0.36672 0.0
H1020 H 0.1448 0.71772 0.34139 0.0
H1021 H 0.12419 0.70159 0.30537 0.0
C1022 C 0.4158 0.4559 0.31421 0.0
C1023 C 0.42884 0.45237 0.31989 0.0
C1024 C 0.40022 0.44713 0.34716 0.0
C1025 C 0.3975 0.4345 0.38745 0.0
C1026 C 0.41039 0.43047 0.39216 0.0
C1027 C 0.42584 0.43938 0.35818 0.0
C1028 C 0.38683 0.45175 0.33999 0.0
C1029 C 0.40811 0.41719 0.43471 0.0
C1030 C 0.36654 0.42886 0.52048 0.0
C1031 C 0.35103 0.41337 0.49931 0.0
C1032 C 0.3818 0.43547 0.48556 0.0
C1033 C 0.38168 0.4265 0.42745 0.0
C1034 C 0.3662 0.41056 0.40649 0.0
C1035 C 0.3511 0.40415 0.44274 0.0
C1036 C 0.39798 0.45238 0.5103 0.0
C1037 C 0.36544 0.40059 0.3448 0.0
H1038 H 0.4178 0.46563 0.28393 0.0
H1039 H 0.43584 0.43662 0.36324 0.0
H1040 H 0.37411 0.43952 0.32759 0.0
H1041 H 0.38523 0.45804 0.38463 0.0
H1042 H 0.3904 0.46099 0.30398 0.0
H1043 H 0.41869 0.41457 0.42988 0.0
H1044 H 0.40781 0.42225 0.48344 0.0
H1045 H 0.3956 0.40447 0.42514 0.0
H1046 H 0.36673 0.4359 0.5646 0.0
H1047 H 0.3392 0.39224 0.42578 0.0
H1048 H 0.40174 0.46293 0.47947 0.0
H1049 H 0.40884 0.45026 0.51089 0.0
H1050 H 0.39624 0.45718 0.55783 0.0
H1051 H 0.36744 0.40886 0.30705 0.0
H1052 H 0.35286 0.38779 0.33701 0.0
H1053 H 0.37595 0.39789 0.34157 0.0
C1054 C 0.68107 0.96763 0.5094 0.0
C1055 C 0.67374 0.95906 0.56324 0.0
C1056 C 0.67339 0.97481 0.4785 0.0
C1057 C 0.65804 0.97354 0.50209 0.0
C1058 C 0.65092 0.9654 0.55745 0.0
C1059 C 0.65879 0.95827 0.58709 0.0
C1060 C 0.68141 0.98328 0.41955 0.0
C1061 C 0.6347 0.96386 0.58481 0.0
C1062 C 0.64268 1.00239 0.44979 0.0
C1063 C 0.62933 0.99035 0.40802 0.0
C1064 C 0.65239 0.99728 0.47974 0.0
C1065 C 0.64882 0.97974 0.4674 0.0
C1066 C 0.63571 0.96772 0.42389 0.0
C1067 C 0.62615 0.97314 0.39503 0.0
C1068 C 0.66617 0.01051 0.52591 0.0
C1069 C 0.63151 0.94897 0.40864 0.0
H1070 H 0.69252 0.96824 0.49027 0.0
H1071 H 0.65317 0.952 0.6292 0.0
H1072 H 0.67242 0.97536 0.38017 0.0
H1073 H 0.68363 0.99679 0.42269 0.0
H1074 H 0.69389 0.98426 0.40928 0.0
H1075 H 0.6313 0.95804 0.62982 0.0
H1076 H 0.63633 0.97712 0.59179 0.0
H1077 H 0.62371 0.95537 0.55224 0.0
H1078 H 0.64519 0.01566 0.46053 0.0
H1079 H 0.61613 0.96382 0.36202 0.0
H1080 H 0.67864 0.01163 0.51412 0.0
H1081 H 0.66252 1.00583 0.57271 0.0
H1082 H 0.66811 0.0239 0.52775 0.0
H1083 H 0.64335 0.9491 0.39365 0.0
H1084 H 0.62158 0.94153 0.37154 0.0
H1085 H 0.62668 0.94171 0.45059 0.0
C1086 C 0.67103 0.0499 0.22609 0.0
C1087 C 0.65945 0.05567 0.23424 0.0
C1088 C 0.68758 0.06049 0.20094 0.0
C1089 C 0.69262 0.07716 0.18142 0.0
C1090 C 0.681 0.08313 0.18979 0.0
C1091 C 0.66465 0.07243 0.21691 0.0
C1092 C 0.69964 0.05377 0.19505 0.0
C1093 C 0.68566 0.10062 0.16857 0.0
C1094 C 0.74081 0.11148 0.16408 0.0
C1095 C 0.74352 0.10896 0.10056 0.0
C1096 C 0.72443 0.10123 0.19085 0.0
C1097 C 0.71014 0.08834 0.15307 0.0
C1098 C 0.71279 0.08578 0.08869 0.0
C1099 C 0.72948 0.09594 0.0634 0.0
C1100 C 0.72246 0.10408 0.25982 0.0
C1101 C 0.69792 0.07246 0.04639 0.0
H1102 H 0.66713 0.03697 0.23954 0.0
H1103 H 0.65569 0.07687 0.22226 0.0
H1104 H 0.70257 0.05197 0.1456 0.0
H1105 H 0.71207 0.06365 0.21885 0.0
H1106 H 0.69409 0.04092 0.21504 0.0
H1107 H 0.67518 0.1033 0.17753 0.0
H1108 H 0.69758 0.11163 0.19251 0.0
H1109 H 0.68842 0.10064 0.11822 0.0
H1110 H 0.75166 0.12141 0.1931 0.0
H1111 H 0.73149 0.09408 0.01427 0.0
H1112 H 0.71739 0.09147 0.28082 0.0
H1113 H 0.71297 0.1081 0.26941 0.0
H1114 H 0.73488 0.1144 0.28292 0.0
H1115 H 0.69235 0.05891 0.06038 0.0
H1116 H 0.70191 0.07257 0.99717 0.0
H1117 H 0.68752 0.07534 0.05042 0.0
C1118 C 0.96337 0.65304 0.03369 0.0
C1119 C 0.97161 0.66359 0.98469 0.0
C1120 C 0.9706 0.64497 0.0614 0.0
C1121 C 0.98644 0.64724 0.03928 0.0
C1122 C 0.99508 0.65826 0.9908 0.0
C1123 C 0.98764 0.66641 0.96446 0.0
C1124 C 0.96102 0.63364 0.11354 0.0
C1125 C 1.01188 0.66091 0.96522 0.0
C1126 C 1.00981 0.63427 0.14206 0.0
C1127 C 1.0036 0.61665 0.11822 0.0
C1128 C 1.00468 0.64455 0.11617 0.0
C1129 C 0.99327 0.63716 0.06451 0.0
C1130 C 0.98747 0.61959 0.03904 0.0
C1131 C 0.99259 0.60957 0.06633 0.0
C1132 C 1.01103 0.66311 0.14541 0.0
C1133 C 0.97553 0.6112 0.98354 0.0
H1134 H 0.95113 0.65103 0.05035 0.0
H1135 H 0.99404 0.67445 0.92647 0.0
H1136 H 0.9567 0.61962 0.09867 0.0
H1137 H 0.96972 0.638 0.15406 0.0
H1138 H 0.94951 0.63421 0.12834 0.0
H1139 H 0.01754 0.67072 0.93036 0.0
H1140 H 0.0214 0.66548 1.00314 0.0
H1141 H 1.00965 0.64807 0.94317 0.0
H1142 H 0.01822 0.63982 0.18229 0.0
H1143 H 0.98797 0.5961 0.04685 0.0
H1144 H 0.99993 0.66376 0.16521 0.0
H1145 H 0.01697 0.67269 0.10995 0.0
H1146 H 0.02065 0.66734 0.1828 0.0
H1147 H 0.96294 0.60976 0.99569 0.0
H1148 H 0.97312 0.59789 0.96668 0.0
H1149 H 0.98108 0.61985 0.9452 0.0
C1150 C 0.41738 0.34018 0.96366 0.0
C1151 C 0.42033 0.32733 0.98056 0.0
C1152 C 0.42754 0.35813 0.98831 0.0
C1153 C 0.44117 0.36353 0.03056 0.0
C1154 C 0.44436 0.35067 0.04698 0.0
C1155 C 0.43392 0.33282 0.02216 0.0
C1156 C 0.42356 0.3713 0.96963 0.0
C1157 C 0.45883 0.35574 0.09106 0.0
C1158 C 0.47743 0.41267 0.04937 0.0
C1159 C 0.4731 0.41901 0.10504 0.0
C1160 C 0.4673 0.39474 0.02516 0.0
C1161 C 0.45226 0.38265 0.05679 0.0
C1162 C 0.44792 0.38888 0.11346 0.0
C1163 C 0.45839 0.40691 0.13699 0.0
C1164 C 0.47264 0.38876 0.96517 0.0
C1165 C 0.432 0.37656 0.14874 0.0
H1166 H 0.40688 0.33616 0.93202 0.0
H1167 H 0.4364 0.3231 0.03569 0.0
H1168 H 0.42054 0.37753 0.01128 0.0
H1169 H 0.43504 0.38209 0.94757 0.0
H1170 H 0.41247 0.36504 0.93686 0.0
H1171 H 0.4598 0.34425 0.09875 0.0
H1172 H 0.47134 0.36616 0.07274 0.0
H1173 H 0.45679 0.3614 0.13636 0.0
H1174 H 0.48874 0.42181 0.02413 0.0
H1175 H 0.4548 0.4116 0.17969 0.0
H1176 H 0.46235 0.38371 0.92976 0.0
H1177 H 0.4743 0.37767 0.97199 0.0
H1178 H 0.4849 0.39965 0.94693 0.0
H1179 H 0.42034 0.37103 0.11938 0.0
H1180 H 0.43041 0.38335 0.1922 0.0
H1181 H 0.43265 0.3652 0.16042 0.0
C1182 C 0.95636 0.32583 0.5681 0.0
C1183 C 0.96499 0.3193 0.52973 0.0
C1184 C 0.96532 0.34309 0.59919 0.0
C1185 C 0.9835 0.35417 0.593 0.0
C1186 C 0.99224 0.34782 0.55315 0.0
C1187 C 0.9829 0.33058 0.52169 0.0
C1188 C 0.95535 0.34931 0.64002 0.0
C1189 C 1.0116 0.35898 0.54557 0.0
C1190 C 1.00672 0.40422 0.64266 0.0
C1191 C 1.01256 0.40547 0.70259 0.0
C1192 C 0.9971 0.38768 0.60683 0.0
C1193 C 0.99343 0.37193 0.63076 0.0
C1194 C 0.99927 0.37313 0.69125 0.0
C1195 C 1.00857 0.38977 0.72642 0.0
C1196 C 0.9909 0.38706 0.54321 0.0
C1197 C 0.99592 0.35682 0.71863 0.0
H1198 H 0.94254 0.31731 0.5746 0.0
H1199 H 0.98976 0.3257 0.49263 0.0
H1200 H 0.95923 0.35111 0.68904 0.0
H1201 H 0.95841 0.36239 0.62783 0.0
H1202 H 0.94116 0.33977 0.63606 0.0
H1203 H 0.01641 0.35253 0.5109 0.0
H1204 H 1.01553 0.37211 0.53116 0.0
H1205 H 0.01801 0.3614 0.59064 0.0
H1206 H 1.00968 0.41621 0.62361 0.0
H1207 H 1.0131 0.3905 0.77231 0.0
H1208 H 0.97665 0.3779 0.53994 0.0
H1209 H 0.99665 0.38182 0.50781 0.0
H1210 H 0.99431 0.40035 0.5319 0.0
H1211 H 0.98181 0.34707 0.72102 0.0
H1212 H 1.0015 0.35996 0.76585 0.0
H1213 H 1.00153 0.35032 0.68846 0.0
C1214 C 0.70627 0.64881 0.53235 0.0
C1215 C 0.69893 0.63059 0.53636 0.0
C1216 C 0.72144 0.65877 0.49786 0.0
C1217 C 0.72953 0.65037 0.46608 0.0
C1218 C 0.72201 0.63195 0.46915 0.0
C1219 C 0.70691 0.62235 0.50405 0.0
C1220 C 0.72898 0.67837 0.49615 0.0
C1221 C 0.73 0.62234 0.43578 0.0
C1222 C 0.76081 0.67259 0.33385 0.0
C1223 C 0.77705 0.68066 0.36259 0.0
C1224 C 0.74532 0.66273 0.36675 0.0
C1225 C 0.74593 0.66083 0.43027 0.0
C1226 C 0.76228 0.66876 0.45937 0.0
C1227 C 0.77757 0.67851 0.42535 0.0
C1228 C 0.72825 0.65445 0.33356 0.0
C1229 C 0.76364 0.6671 0.52684 0.0
H1230 H 0.70037 0.65539 0.55734 0.0
H1231 H 0.70127 0.60826 0.5056 0.0
H1232 H 0.74221 0.68606 0.51618 0.0
H1233 H 0.73008 0.6815 0.44754 0.0
H1234 H 0.72103 0.68289 0.52222 0.0
H1235 H 0.72247 0.60793 0.44189 0.0
H1236 H 0.73092 0.62392 0.38558 0.0
H1237 H 0.74335 0.62822 0.45315 0.0
H1238 H 0.76015 0.67416 0.28558 0.0
H1239 H 0.78996 0.6847 0.44839 0.0
H1240 H 0.72064 0.65983 0.35627 0.0
H1241 H 0.72056 0.6399 0.3365 0.0
H1242 H 0.72991 0.65695 0.284 0.0
H1243 H 0.75703 0.67276 0.55566 0.0
H1244 H 0.77727 0.67402 0.5428 0.0
H1245 H 0.75703 0.6529 0.53488 0.0
C1246 C 0.42097 0.10633 0.49456 0.0
C1247 C 0.42621 0.12398 0.51389 0.0
C1248 C 0.4273 0.09763 0.52407 0.0
C1249 C 0.4388 0.10662 0.57525 0.0
C1250 C 0.44355 0.12421 0.59633 0.0
C1251 C 0.43739 0.13271 0.565 0.0
C1252 C 0.4222 0.07906 0.49902 0.0
C1253 C 0.45539 0.13422 0.65147 0.0
C1254 C 0.44708 0.08117 0.68471 0.0
C1255 C 0.46366 0.08522 0.66679 0.0
C1256 C 0.43864 0.08774 0.65477 0.0
C1257 C 0.44679 0.09821 0.60459 0.0
C1258 C 0.46321 0.10161 0.58473 0.0
C1259 C 0.4715 0.0953 0.6165 0.0
C1260 C 0.42135 0.0841 0.6785 0.0
C1261 C 0.47225 0.11228 0.53064 0.0
H1262 H 0.41242 0.09958 0.45489 0.0
H1263 H 0.44129 0.14626 0.58065 0.0
H1264 H 0.43383 0.07913 0.4812 0.0
H1265 H 0.4168 0.07009 0.53644 0.0
H1266 H 0.41252 0.07355 0.46102 0.0
H1267 H 0.45669 0.1472 0.66521 0.0
H1268 H 0.45048 0.12619 0.69156 0.0
H1269 H 0.46843 0.13667 0.64052 0.0
H1270 H 0.44104 0.07349 0.7238 0.0
H1271 H 0.48423 0.09827 0.60206 0.0
H1272 H 0.41177 0.07825 0.64019 0.0
H1273 H 0.42261 0.09678 0.69726 0.0
H1274 H 0.41629 0.07496 0.71552 0.0
H1275 H 0.46347 0.10678 0.48988 0.0
H1276 H 0.4842 0.11241 0.51751 0.0
H1277 H 0.47575 0.12618 0.54248 0.0
C1278 C 0.36099 0.98306 0.01582 0.0
C1279 C 0.34979 0.96454 1.00566 0.0
C1280 C 0.37704 0.99203 0.985 0.0
C1281 C 0.38203 0.98235 0.94236 0.0
C1282 C 0.37045 0.96377 0.93023 0.0
C1283 C 0.35461 0.95515 0.96193 0.0
C1284 C 0.38893 0.01182 0.9998 0.0
C1285 C 0.37501 0.95284 0.88491 0.0
C1286 C 0.42 1.00678 0.83126 0.0
C1287 C 0.43363 1.00767 0.86162 0.0
C1288 C 0.40318 0.99865 0.85674 0.0
C1289 C 0.39984 0.9913 0.91426 0.0
C1290 C 0.41354 0.99208 0.94474 0.0
C1291 C 0.43011 1.00013 0.91814 0.0
C1292 C 0.38898 0.998 0.82225 0.0
C1293 C 0.41074 0.98449 1.006 0.0
H1294 H 0.35748 0.99046 0.0495 0.0
H1295 H 0.34596 0.94093 0.9525 0.0
H1296 H 0.40074 0.01468 0.0233 0.0
H1297 H 0.3931 0.0185 0.95657 0.0
H1298 H 0.38272 0.01765 0.03026 0.0
H1299 H 0.36412 0.93879 0.87699 0.0
H1300 H 0.3788 0.9586 0.83985 0.0
H1301 H 0.38626 0.95308 0.90262 0.0
H1302 H 0.4225 0.01261 0.78786 0.0
H1303 H 0.44043 1.00071 0.94248 0.0
H1304 H 0.38371 1.00501 0.85144 0.0
H1305 H 0.37818 0.98401 0.81219 0.0
H1306 H 0.39354 1.00415 0.77797 0.0
H1307 H 0.40585 0.99086 0.04057 0.0
H1308 H 0.42276 0.98642 0.02446 0.0
H1309 H 0.4008 0.97007 1.00076 0.0
C1310 C 0.10872 0.44703 0.83531 0.0
C1311 C 0.09195 0.44371 0.84404 0.0
C1312 C 0.11515 0.43952 0.87068 0.0
C1313 C 0.1046 0.42827 0.91628 0.0
C1314 C 0.08746 0.42438 0.92412 0.0
C1315 C 0.08135 0.43211 0.88801 0.0
C1316 C 0.13345 0.444 0.86021 0.0
C1317 C 0.07573 0.41245 0.97198 0.0
C1318 C 0.11914 0.39972 0.97764 0.0
C1319 C 0.12822 0.41005 0.03186 0.0
C1320 C 0.11101 0.40519 0.94047 0.0
C1321 C 0.11192 0.42142 0.95763 0.0
C1322 C 0.12067 0.43166 0.01308 0.0
C1323 C 0.12864 0.42587 0.04932 0.0
C1324 C 0.10184 0.39382 0.88188 0.0
C1325 C 0.12195 0.44899 0.03358 0.0
H1326 H 0.11695 0.45564 0.80079 0.0
H1327 H 0.06843 0.42949 0.89567 0.0
H1328 H 0.14128 0.4513 0.90271 0.0
H1329 H 0.13359 0.43166 0.85049 0.0
H1330 H 0.13974 0.4523 0.82117 0.0
H1331 H 0.06241 0.40971 0.96956 0.0
H1332 H 0.07507 0.39965 0.96577 0.0
H1333 H 0.08105 0.41877 0.01895 0.0
H1334 H 0.11877 0.38756 0.96319 0.0
H1335 H 0.13526 0.43384 0.09154 0.0
H1336 H 0.10863 0.4011 0.84116 0.0
H1337 H 0.08847 0.39097 0.88105 0.0
H1338 H 0.10125 0.38104 0.87699 0.0
H1339 H 0.12923 0.45856 0.99875 0.0
H1340 H 0.12854 0.45503 0.07913 0.0
H1341 H 0.10886 0.44689 0.03684 0.0
C1342 C 0.65844 0.66943 0.73643 0.0
C1343 C 0.64447 0.65477 0.76269 0.0
C1344 C 0.66644 0.68674 0.76769 0.0
C1345 C 0.66047 0.68953 0.82694 0.0
C1346 C 0.64631 0.6748 0.8533 0.0
C1347 C 0.6385 0.65775 0.82099 0.0
C1348 C 0.68136 0.70203 0.73745 0.0
C1349 C 0.63944 0.67699 0.91621 0.0
C1350 C 0.68872 0.73049 0.9404 0.0
C1351 C 0.68148 0.74075 0.93598 0.0
C1352 C 0.68241 0.7141 0.90394 0.0
C1353 C 0.66864 0.7078 0.86133 0.0
C1354 C 0.66178 0.71846 0.85503 0.0
C1355 C 0.6682 0.73466 0.89236 0.0
C1356 C 0.69008 0.7032 0.9127 0.0
C1357 C 0.64727 0.71252 0.80996 0.0
H1358 H 0.66326 0.66737 0.6917 0.0
H1359 H 0.62779 0.64663 0.84222 0.0
H1360 H 0.67835 0.7123 0.73251 0.0
H1361 H 0.69306 0.70836 0.76713 0.0
H1362 H 0.68436 0.69778 0.69104 0.0
H1363 H 0.62853 0.6642 0.93083 0.0
H1364 H 0.6499 0.68285 0.95138 0.0
H1365 H 0.63497 0.68629 0.91568 0.0
H1366 H 0.69891 0.73499 0.97397 0.0
H1367 H 0.66273 0.74259 0.88748 0.0
H1368 H 0.69404 0.69943 0.86746 0.0
H1369 H 0.68018 0.69072 0.93224 0.0
H1370 H 0.70147 0.71041 0.94425 0.0
H1371 H 0.65068 0.70902 0.76311 0.0
H1372 H 0.64425 0.72288 0.80703 0.0
H1373 H 0.63544 0.70041 0.82443 0.0
C1374 C 0.75046 1.0051 0.7294 0.0
C1375 C 0.75696 0.99438 0.73777 0.0
C1376 C 0.75698 0.02179 0.76396 0.0
C1377 C 0.77054 0.02816 0.80755 0.0
C1378 C 0.77765 0.01772 0.8141 0.0
C1379 C 0.77072 1.001 0.77969 0.0
C1380 C 0.74884 0.03228 0.75567 0.0
C1381 C 0.79227 0.02399 0.859 0.0
C1382 C 0.79535 0.07748 0.86997 0.0
C1383 C 0.78769 0.07708 0.92812 0.0
C1384 C 0.79006 0.06175 0.83055 0.0
C1385 C 0.77655 0.04512 0.84895 0.0
C1386 C 0.76878 0.04466 0.90756 0.0
C1387 C 0.7745 0.06053 0.94637 0.0
C1388 C 0.79892 0.06292 0.7691 0.0
C1389 C 0.75424 0.02737 0.92916 0.0
H1390 H 0.73976 1.00015 0.69763 0.0
H1391 H 0.77591 0.99292 0.78657 0.0
H1392 H 0.7424 0.03333 0.79923 0.0
H1393 H 0.75891 0.04599 0.74572 0.0
H1394 H 0.73912 0.02607 0.71762 0.0
H1395 H 0.79736 0.01512 0.85495 0.0
H1396 H 0.803 0.03762 0.85107 0.0
H1397 H 0.78771 0.02452 0.90707 0.0
H1398 H 0.80554 0.09013 0.85518 0.0
H1399 H 0.76834 0.05996 0.99081 0.0
H1400 H 0.78938 0.05777 0.73087 0.0
H1401 H 0.80449 0.05449 0.76606 0.0
H1402 H 0.80942 0.07674 0.76193 0.0
H1403 H 0.74337 0.02093 0.89548 0.0
H1404 H 0.74934 0.02923 0.97542 0.0
H1405 H 0.7587 0.01812 0.9315 0.0
C1406 C 0.09013 0.78814 0.69323 0.0
C1407 C 0.08999 0.78169 0.6311 0.0
C1408 C 0.07468 0.78177 0.72764 0.0
C1409 C 0.05861 0.76837 0.69988 0.0
C1410 C 0.05841 0.76182 0.63723 0.0
C1411 C 0.07398 0.7686 0.60371 0.0
C1412 C 0.07557 0.78938 0.79382 0.0
C1413 C 0.04171 0.74745 0.60559 0.0
C1414 C 0.01942 0.73918 0.79953 0.0
C1415 C 1.00905 0.74621 0.79502 0.0
C1416 C 0.03567 0.74644 0.77003 0.0
C1417 C 0.04194 0.7613 0.73568 0.0
C1418 C 0.03181 0.76885 0.73303 0.0
C1419 C 1.01554 0.76118 0.76215 0.0
C1420 C 0.04586 0.73779 0.77381 0.0
C1421 C 0.03796 0.78481 0.69799 0.0
H1422 H 0.10235 0.79822 0.71511 0.0
H1423 H 0.07362 0.76334 0.55604 0.0
H1424 H 0.06732 0.79505 0.79963 0.0
H1425 H 0.07046 0.7787 0.82515 0.0
H1426 H 0.08896 0.79992 0.80852 0.0
H1427 H 0.04371 0.74351 0.55711 0.0
H1428 H 0.0354 0.73554 0.63158 0.0
H1429 H 0.03265 0.75207 0.6053 0.0
H1430 H 1.01458 0.72757 0.82434 0.0
H1431 H 1.00775 0.76682 0.75837 0.0
H1432 H 0.05912 0.74778 0.79115 0.0
H1433 H 0.04709 0.73228 0.72688 0.0
H1434 H 0.03967 0.72689 0.80457 0.0
H1435 H 0.05114 0.79563 0.71365 0.0
H1436 H 0.02924 0.78993 0.70402 0.0
H1437 H 0.03874 0.78124 0.64791 0.0
C1438 C 0.31193 0.32707 0.59221 0.0
C1439 C 0.30371 0.33501 0.62484 0.0
C1440 C 0.3185 0.31878 0.62284 0.0
C1441 C 0.31689 0.31835 0.68797 0.0
C1442 C 0.30848 0.3262 0.72112 0.0
C1443 C 0.30202 0.33438 0.68933 0.0
C1444 C 0.32728 0.31057 0.58543 0.0
C1445 C 0.30637 0.32602 0.79043 0.0
C1446 C 0.31929 0.28289 0.76149 0.0
C1447 C 0.33615 0.29241 0.78642 0.0
C1448 C 0.31294 0.29112 0.72957 0.0
C1449 C 0.32367 0.30941 0.72126 0.0
C1450 C 0.34079 0.31908 0.74524 0.0
C1451 C 0.34678 0.31053 0.77752 0.0
C1452 C 0.29463 0.28022 0.70497 0.0
C1453 C 0.35275 0.33857 0.73726 0.0
H1454 H 0.31341 0.32747 0.54252 0.0
H1455 H 0.29579 0.34049 0.71531 0.0
H1456 H 0.34076 0.31688 0.60205 0.0
H1457 H 0.32051 0.29624 0.59176 0.0
H1458 H 0.32755 0.31201 0.53524 0.0
H1459 H 0.29958 0.33271 0.80958 0.0
H1460 H 0.29897 0.31214 0.80271 0.0
H1461 H 0.31923 0.33277 0.81309 0.0
H1462 H 0.31094 0.26886 0.76647 0.0
H1463 H 0.35975 0.31816 0.79659 0.0
H1464 H 0.29462 0.28055 0.65413 0.0
H1465 H 0.28714 0.28597 0.7256 0.0
H1466 H 0.28788 0.26615 0.71521 0.0
H1467 H 0.35412 0.34063 0.68739 0.0
H1468 H 0.3658 0.34416 0.75714 0.0
H1469 H 0.34717 0.34612 0.76003 0.0
C1470 C 0.02524 0.30329 0.33708 0.0
C1471 C 1.01394 0.28495 0.32201 0.0
C1472 C 0.04193 0.31259 0.31125 0.0
C1473 C 0.04754 0.30342 0.26903 0.0
C1474 C 0.036 0.28504 0.25221 0.0
C1475 C 0.01943 0.27608 0.27876 0.0
C1476 C 0.05376 0.33217 0.33064 0.0
C1477 C 0.04131 0.27469 0.20722 0.0
C1478 C 0.0876 0.33007 0.16976 0.0
C1479 C 0.10062 0.33075 0.20347 0.0
C1480 C 0.07027 0.32117 0.19014 0.0
C1481 C 0.0658 0.31273 0.24563 0.0
C1482 C 0.07885 0.31311 0.27913 0.0
C1483 C 0.09599 0.32205 0.25772 0.0
C1484 C 0.0568 0.32103 0.1528 0.0
C1485 C 0.07475 0.30428 0.33832 0.0
H1486 H 0.02125 0.3103 0.37058 0.0
H1487 H 1.01077 0.26203 0.2656 0.0
H1488 H 0.06503 0.33445 0.3563 0.0
H1489 H 0.05883 0.33966 0.28928 0.0
H1490 H 0.04715 0.33763 0.36063 0.0
H1491 H 0.03053 0.26073 0.19606 0.0
H1492 H 0.04599 0.28115 0.1636 0.0
H1493 H 0.05216 0.27462 0.22711 0.0
H1494 H 0.09098 0.33679 0.12802 0.0
H1495 H 0.10586 0.32244 0.28435 0.0
H1496 H 0.05113 0.32777 0.18115 0.0
H1497 H 0.04611 0.30716 0.13988 0.0
H1498 H 0.06221 0.32777 0.10992 0.0
H1499 H 0.06942 0.3102 0.37285 0.0
H1500 H 0.0863 0.30564 0.35874 0.0
H1501 H 0.06473 0.28995 0.32945 0.0
C1502 C 0.81302 0.77878 0.25528 0.0
C1503 C 0.80709 0.76078 0.25844 0.0
C1504 C 0.80261 0.78399 0.23139 0.0
C1505 C 0.78581 0.77095 0.20868 0.0
C1506 C 0.77996 0.75276 0.20918 0.0
C1507 C 0.79056 0.74791 0.23428 0.0
C1508 C 0.8094 0.80354 0.2325 0.0
C1509 C 0.76224 0.73837 0.18479 0.0
C1510 C 0.7516 0.78305 0.21536 0.0
C1511 C 0.75127 0.78666 0.1544 0.0
C1512 C 0.76284 0.77814 0.23342 0.0
C1513 C 0.77393 0.77638 0.18929 0.0
C1514 C 0.77371 0.78002 0.12754 0.0
C1515 C 0.76253 0.78531 0.11098 0.0
C1516 C 0.76283 0.77483 0.30002 0.0
C1517 C 0.78507 0.77804 0.07873 0.0
H1518 H 0.82582 0.78899 0.2721 0.0
H1519 H 0.78563 0.73398 0.23625 0.0
H1520 H 0.80856 0.80681 0.18566 0.0
H1521 H 0.80132 0.80687 0.26364 0.0
H1522 H 0.82303 0.81206 0.24876 0.0
H1523 H 0.76023 0.72494 0.18262 0.0
H1524 H 0.75221 0.73859 0.21516 0.0
H1525 H 0.7603 0.74076 0.13783 0.0
H1526 H 0.74305 0.78415 0.24946 0.0
H1527 H 0.76227 0.78791 0.06369 0.0
H1528 H 0.77601 0.78363 0.32008 0.0
H1529 H 0.75915 0.76094 0.30251 0.0
H1530 H 0.75374 0.77717 0.32902 0.0
H1531 H 0.79885 0.78684 0.09276 0.0
H1532 H 0.78338 0.78128 0.03286 0.0
H1533 H 0.78204 0.7642 0.07408 0.0
C1534 C 0.302 1.00364 0.22503 0.0
C1535 C 0.30775 1.00221 0.16463 0.0
C1536 C 0.30854 0.02033 0.25959 0.0
C1537 C 0.32144 0.03605 0.23388 0.0
C1538 C 0.32731 0.03466 0.17302 0.0
C1539 C 0.32031 0.01787 0.13912 0.0
C1540 C 0.30163 0.02114 0.32366 0.0
C1541 C 0.34121 0.05093 0.14384 0.0
C1542 C 0.32997 0.08199 0.29231 0.0
C1543 C 0.3448 0.08927 0.32935 0.0
C1544 C 0.32184 0.06449 0.26327 0.0
C1545 C 0.32884 0.05398 0.27011 0.0
C1546 C 0.34356 0.0611 0.30877 0.0
C1547 C 0.35124 0.07853 0.33829 0.0
C1548 C 0.306 0.05744 0.22372 0.0
C1549 C 0.35168 0.05057 0.31685 0.0
H1550 H 0.2923 0.99168 0.24529 0.0
H1551 H 0.325 0.017 0.09282 0.0
H1552 H 0.31224 0.02706 0.3582 0.0
H1553 H 0.29637 0.02983 0.32651 0.0
H1554 H 0.29129 1.00782 0.3365 0.0
H1555 H 0.34465 0.04762 0.09669 0.0
H1556 H 0.33684 0.06022 0.14073 0.0
H1557 H 0.35303 0.05804 0.1732 0.0
H1558 H 0.32483 0.0901 0.28514 0.0
H1559 H 0.36276 0.08401 0.36628 0.0
H1560 H 0.29547 0.04431 0.23725 0.0
H1561 H 0.30905 0.05548 0.17451 0.0
H1562 H 0.30121 0.06657 0.22752 0.0
H1563 H 0.34187 0.03745 0.33251 0.0
H1564 H 0.36252 0.05756 0.35078 0.0
H1565 H 0.35665 0.04808 0.2717 0.0
loop_
_geom_bond_atom_site_label_1
_geom_bond_atom_site_label_2
_geom_bond_distance
_geom_bond_site_symmetry_2
_ccdc_geom_bond_type
Cu0 N1 1.999 . S
Cu0 O6 1.974 . S
Cu0 N11 1.985 . S
Cu0 O20 1.959 . S
N1 Cu0 1.999 . S
N1 C3 1.263 . S
N1 C5 1.389 . S
N2 C3 1.358 . S
N2 C4 1.400 . S
C3 N1 1.263 . S
C3 N2 1.358 . S
C3 H9 0.930 . S
C4 N2 1.400 . S
C4 C5 1.351 . S
C4 H21 0.930 . S
C5 N1 1.389 . S
C5 C4 1.351 . S
C5 H10 0.930 . S
O6 Cu0 1.974 . S
O6 C16 1.282 . S
C7 O8 1.261 . S
C7 O20 1.251 . S
O8 C7 1.261 . S
H9 C3 0.930 . S
H10 C5 0.930 . S
N11 Cu0 1.985 . S
N11 C13 1.335 . S
N11 C14 1.390 . S
N12 C13 1.345 . S
N12 C15 1.336 . S
C13 N11 1.335 . S
C13 N12 1.345 . S
C13 H18 0.930 . S
C14 N11 1.390 . S
C14 C15 1.346 . S
C14 H19 0.930 . S
C15 N12 1.336 . S
C15 C14 1.346 . S
C15 H22 0.929 . S
C16 O6 1.282 . S
C16 O17 1.216 . S
O17 C16 1.216 . S
H18 C13 0.930 . S
H19 C14 0.930 . S
O20 Cu0 1.959 . S
O20 C7 1.251 . S
H21 C4 0.930 . S
H22 C15 0.929 . S
Cu23 N24 1.999 . S
Cu23 O29 1.974 . S
Cu23 N34 1.985 . S
Cu23 O43 1.959 . S
N24 Cu23 1.999 . S
N24 C26 1.263 . S
N24 C28 1.389 . S
N25 C26 1.358 . S
N25 C27 1.400 . S
C26 N24 1.263 . S
C26 N25 1.358 . S
C26 H32 0.930 . S
C27 N25 1.400 . S
C27 C28 1.351 . S
C27 H44 0.930 1_554 S
C28 N24 1.389 . S
C28 C27 1.351 . S
C28 H33 0.930 . S
O29 Cu23 1.974 . S
O29 C39 1.282 . S
C30 O31 1.261 . S
C30 O43 1.251 . S
O31 C30 1.261 . S
H32 C26 0.930 . S
H33 C28 0.930 . S
N34 Cu23 1.985 . S
N34 C36 1.335 . S
N34 C37 1.390 . S
N35 C36 1.345 . S
N35 C38 1.336 . S
C36 N34 1.335 . S
C36 N35 1.345 . S
C36 H41 0.930 . S
C37 N34 1.390 . S
C37 C38 1.346 . S
C37 H42 0.930 . S
C38 N35 1.336 . S
C38 C37 1.346 . S
C38 H45 0.929 . S
C39 O29 1.282 . S
C39 O40 1.216 . S
O40 C39 1.216 . S
H41 C36 0.930 . S
H42 C37 0.930 . S
O43 Cu23 1.959 . S
O43 C30 1.251 . S
H44 C27 0.930 1_556 S
H45 C38 0.929 . S
Cu46 N47 1.999 . S
Cu46 O52 1.974 . S
Cu46 N57 1.985 . S
Cu46 O66 1.959 . S
N47 Cu46 1.999 . S
N47 C49 1.263 . S
N47 C51 1.389 . S
N48 C49 1.358 . S
N48 C50 1.400 . S
C49 N47 1.263 . S
C49 N48 1.358 . S
C49 H55 0.930 . S
C50 N48 1.400 . S
C50 C51 1.351 . S
C50 H67 0.930 . S
C51 N47 1.389 . S
C51 C50 1.351 . S
C51 H56 0.930 . S
O52 Cu46 1.974 . S
O52 C62 1.282 . S
C53 O54 1.261 . S
C53 O66 1.251 . S
O54 C53 1.261 . S
H55 C49 0.930 . S
H56 C51 0.930 . S
N57 Cu46 1.985 . S
N57 C59 1.335 . S
N57 C60 1.390 . S
N58 C59 1.345 . S
N58 C61 1.336 . S
C59 N57 1.335 . S
C59 N58 1.345 . S
C59 H64 0.930 . S
C60 N57 1.390 . S
C60 C61 1.346 . S
C60 H65 0.930 . S
C61 N58 1.336 . S
C61 C60 1.346 . S
C61 H68 0.929 . S
C62 O52 1.282 . S
C62 O63 1.216 . S
O63 C62 1.216 . S
H64 C59 0.930 . S
H65 C60 0.930 . S
O66 Cu46 1.959 . S
O66 C53 1.251 . S
H67 C50 0.930 . S
H68 C61 0.929 . S
Cu69 N70 1.999 . S
Cu69 O75 1.974 . S
Cu69 N80 1.985 . S
Cu69 O89 1.959 . S
N70 Cu69 1.999 . S
N70 C72 1.263 . S
N70 C74 1.389 . S
N71 C72 1.358 . S
N71 C73 1.400 . S
C72 N70 1.263 . S
C72 N71 1.358 . S
C72 H78 0.930 . S
C73 N71 1.400 . S
C73 C74 1.351 . S
C73 H90 0.930 . S
C74 N70 1.389 . S
C74 C73 1.351 . S
C74 H79 0.930 . S
O75 Cu69 1.974 . S
O75 C85 1.282 . S
C76 O77 1.261 . S
C76 O89 1.251 . S
O77 C76 1.261 . S
H78 C72 0.930 . S
H79 C74 0.930 . S
N80 Cu69 1.985 . S
N80 C82 1.335 . S
N80 C83 1.390 . S
N81 C82 1.345 . S
N81 C84 1.336 . S
C82 N80 1.335 . S
C82 N81 1.345 . S
C82 H87 0.930 . S
C83 N80 1.390 . S
C83 C84 1.346 . S
C83 H88 0.930 . S
C84 N81 1.336 . S
C84 C83 1.346 . S
C84 H91 0.929 . S
C85 O75 1.282 . S
C85 O86 1.216 . S
O86 C85 1.216 . S
H87 C82 0.930 . S
H88 C83 0.930 . S
O89 Cu69 1.959 . S
O89 C76 1.251 . S
H90 C73 0.930 . S
H91 C84 0.929 . S
Cu92 N93 1.999 . S
Cu92 O98 1.974 . S
Cu92 N103 1.985 . S
Cu92 O112 1.959 . S
N93 Cu92 1.999 . S
N93 C95 1.263 . S
N93 C97 1.389 . S
N94 C95 1.358 . S
N94 C96 1.400 . S
C95 N93 1.263 . S
C95 N94 1.358 . S
C95 H101 0.930 . S
C96 N94 1.400 . S
C96 C97 1.351 . S
C96 H113 0.930 . S
C97 N93 1.389 . S
C97 C96 1.351 . S
C97 H102 0.930 . S
O98 Cu92 1.974 . S
O98 C108 1.282 . S
C99 O100 1.261 . S
C99 O112 1.251 . S
O100 C99 1.261 . S
H101 C95 0.930 . S
H102 C97 0.930 . S
N103 Cu92 1.985 . S
N103 C105 1.335 . S
N103 C106 1.390 . S
N104 C105 1.345 . S
N104 C107 1.336 . S
C105 N103 1.335 . S
C105 N104 1.345 . S
C105 H110 0.930 . S
C106 N103 1.390 . S
C106 C107 1.346 . S
C106 H111 0.930 . S
C107 N104 1.336 . S
C107 C106 1.346 . S
C107 H114 0.929 . S
C108 O98 1.282 . S
C108 O109 1.216 . S
O109 C108 1.216 . S
H110 C105 0.930 . S
H111 C106 0.930 . S
O112 Cu92 1.959 . S
O112 C99 1.251 . S
H113 C96 0.930 . S
H114 C107 0.929 . S
Cu115 N116 1.999 . S
Cu115 O121 1.974 . S
Cu115 N126 1.985 . S
Cu115 O135 1.959 . S
N116 Cu115 1.999 . S
N116 C118 1.263 . S
N116 C120 1.389 . S
N117 C118 1.358 . S
N117 C119 1.400 . S
C118 N116 1.263 . S
C118 N117 1.358 . S
C118 H124 0.930 . S
C119 N117 1.400 . S
C119 C120 1.351 . S
C119 H136 0.930 . S
C120 N116 1.389 . S
C120 C119 1.351 . S
C120 H125 0.930 . S
O121 Cu115 1.974 . S
O121 C131 1.282 . S
C122 O123 1.261 . S
C122 O135 1.251 . S
O123 C122 1.261 . S
H124 C118 0.930 . S
H125 C120 0.930 . S
N126 Cu115 1.985 . S
N126 C128 1.335 . S
N126 C129 1.390 . S
N127 C128 1.345 . S
N127 C130 1.336 . S
C128 N126 1.335 . S
C128 N127 1.345 . S
C128 H133 0.930 . S
C129 N126 1.390 . S
C129 C130 1.346 . S
C129 H134 0.930 . S
C130 N127 1.336 . S
C130 C129 1.346 . S
C130 H137 0.929 . S
C131 O121 1.282 . S
C131 O132 1.216 . S
O132 C131 1.216 . S
H133 C128 0.930 . S
H134 C129 0.930 . S
O135 Cu115 1.959 . S
O135 C122 1.251 . S
H136 C119 0.930 . S
H137 C130 0.929 . S
Cu138 N139 1.999 . S
Cu138 O144 1.974 . S
Cu138 N149 1.985 . S
Cu138 O158 1.959 . S
N139 Cu138 1.999 . S
N139 C141 1.263 . S
N139 C143 1.389 . S
N140 C141 1.358 . S
N140 C142 1.400 . S
C141 N139 1.263 . S
C141 N140 1.358 . S
C141 H147 0.930 . S
C142 N140 1.400 . S
C142 C143 1.351 . S
C142 H159 0.930 . S
C143 N139 1.389 . S
C143 C142 1.351 . S
C143 H148 0.930 . S
O144 Cu138 1.974 . S
O144 C154 1.282 . S
C145 O146 1.261 . S
C145 O158 1.251 . S
O146 C145 1.261 . S
H147 C141 0.930 . S
H148 C143 0.930 . S
N149 Cu138 1.985 . S
N149 C151 1.335 . S
N149 C152 1.390 . S
N150 C151 1.345 . S
N150 C153 1.336 . S
C151 N149 1.335 . S
C151 N150 1.345 . S
C151 H156 0.930 . S
C152 N149 1.390 . S
C152 C153 1.346 . S
C152 H157 0.930 . S
C153 N150 1.336 . S
C153 C152 1.346 . S
C153 H160 0.929 . S
C154 O144 1.282 . S
C154 O155 1.216 . S
O155 C154 1.216 . S
H156 C151 0.930 . S
H157 C152 0.930 . S
O158 Cu138 1.959 . S
O158 C145 1.251 . S
H159 C142 0.930 . S
H160 C153 0.929 . S
Cu161 N162 1.999 . S
Cu161 O167 1.974 . S
Cu161 N172 1.985 . S
Cu161 O181 1.959 . S
N162 Cu161 1.999 . S
N162 C164 1.263 . S
N162 C166 1.389 . S
N163 C164 1.358 . S
N163 C165 1.400 . S
C164 N162 1.263 . S
C164 N163 1.358 . S
C164 H170 0.930 . S
C165 N163 1.400 . S
C165 C166 1.351 . S
C165 H182 0.930 . S
C166 N162 1.389 . S
C166 C165 1.351 . S
C166 H171 0.930 . S
O167 Cu161 1.974 . S
O167 C177 1.282 . S
C168 O169 1.261 . S
C168 O181 1.251 . S
O169 C168 1.261 . S
H170 C164 0.930 . S
H171 C166 0.930 . S
N172 Cu161 1.985 . S
N172 C174 1.335 . S
N172 C175 1.390 . S
N173 C174 1.345 . S
N173 C176 1.336 . S
C174 N172 1.335 . S
C174 N173 1.345 . S
C174 H179 0.930 . S
C175 N172 1.390 . S
C175 C176 1.346 . S
C175 H180 0.930 . S
C176 N173 1.336 . S
C176 C175 1.346 . S
C176 H183 0.929 . S
C177 O167 1.282 . S
C177 O178 1.216 . S
O178 C177 1.216 . S
H179 C174 0.930 . S
H180 C175 0.930 . S
O181 Cu161 1.959 . S
O181 C168 1.251 . S
H182 C165 0.930 . S
H183 C176 0.929 . S
Cu184 N185 1.999 . S
Cu184 O190 1.974 . S
Cu184 N195 1.985 . S
Cu184 O204 1.959 . S
N185 Cu184 1.999 . S
N185 C187 1.263 . S
N185 C189 1.389 . S
N186 C187 1.358 . S
N186 C188 1.400 . S
C187 N185 1.263 . S
C187 N186 1.358 . S
C187 H193 0.930 . S
C188 N186 1.400 . S
C188 C189 1.351 . S
C188 H205 0.930 . S
C189 N185 1.389 . S
C189 C188 1.351 . S
C189 H194 0.930 . S
O190 Cu184 1.974 . S
O190 C200 1.282 . S
C191 O192 1.261 . S
C191 O204 1.251 . S
O192 C191 1.261 . S
H193 C187 0.930 . S
H194 C189 0.930 . S
N195 Cu184 1.985 . S
N195 C197 1.335 . S
N195 C198 1.390 . S
N196 C197 1.345 . S
N196 C199 1.336 . S
C197 N195 1.335 . S
C197 N196 1.345 . S
C197 H202 0.930 . S
C198 N195 1.390 . S
C198 C199 1.346 . S
C198 H203 0.930 . S
C199 N196 1.336 . S
C199 C198 1.346 . S
C199 H206 0.929 . S
C200 O190 1.282 . S
C200 O201 1.216 . S
O201 C200 1.216 . S
H202 C197 0.930 . S
H203 C198 0.930 . S
O204 Cu184 1.959 . S
O204 C191 1.251 . S
H205 C188 0.930 . S
H206 C199 0.929 . S
Cu207 N208 1.999 . S
Cu207 O213 1.974 . S
Cu207 N218 1.985 1_554 S
Cu207 O227 1.959 . S
N208 Cu207 1.999 . S
N208 C210 1.263 . S
N208 C212 1.389 . S
N209 C210 1.358 . S
N209 C211 1.400 . S
C210 N208 1.263 . S
C210 N209 1.358 . S
C210 H216 0.930 . S
C211 N209 1.400 . S
C211 C212 1.351 . S
C211 H228 0.930 . S
C212 N208 1.389 . S
C212 C211 1.351 . S
C212 H217 0.930 . S
O213 Cu207 1.974 . S
O213 C223 1.282 1_554 S
C214 O215 1.261 . S
C214 O227 1.251 . S
O215 C214 1.261 . S
H216 C210 0.930 . S
H217 C212 0.930 . S
N218 Cu207 1.985 1_556 S
N218 C220 1.335 . S
N218 C221 1.390 . S
N219 C220 1.345 . S
N219 C222 1.336 . S
C220 N218 1.335 . S
C220 N219 1.345 . S
C220 H225 0.930 1_556 S
C221 N218 1.390 . S
C221 C222 1.346 . S
C221 H226 0.930 . S
C222 N219 1.336 . S
C222 C221 1.346 . S
C222 H229 0.929 . S
C223 O213 1.282 1_556 S
C223 O224 1.216 . S
O224 C223 1.216 . S
H225 C220 0.930 1_554 S
H226 C221 0.930 . S
O227 Cu207 1.959 . S
O227 C214 1.251 . S
H228 C211 0.930 . S
H229 C222 0.929 . S
Cu230 N231 1.999 . S
Cu230 O236 1.974 . S
Cu230 N241 1.985 . S
Cu230 O250 1.959 . S
N231 Cu230 1.999 . S
N231 C233 1.263 . S
N231 C235 1.389 . S
N232 C233 1.358 . S
N232 C234 1.400 . S
C233 N231 1.263 . S
C233 N232 1.358 . S
C233 H239 0.930 . S
C234 N232 1.400 . S
C234 C235 1.351 . S
C234 H251 0.930 . S
C235 N231 1.389 . S
C235 C234 1.351 . S
C235 H240 0.930 . S
O236 Cu230 1.974 . S
O236 C246 1.282 . S
C237 O238 1.261 . S
C237 O250 1.251 . S
O238 C237 1.261 . S
H239 C233 0.930 . S
H240 C235 0.930 . S
N241 Cu230 1.985 . S
N241 C243 1.335 . S
N241 C244 1.390 1_554 S
N242 C243 1.345 1_556 S
N242 C245 1.336 . S
C243 N241 1.335 . S
C243 N242 1.345 1_554 S
C243 H248 0.930 . S
C244 N241 1.390 1_556 S
C244 C245 1.346 . S
C244 H249 0.930 . S
C245 N242 1.336 . S
C245 C244 1.346 . S
C245 H252 0.929 . S
C246 O236 1.282 . S
C246 O247 1.216 . S
O247 C246 1.216 . S
H248 C243 0.930 . S
H249 C244 0.930 . S
O250 Cu230 1.959 . S
O250 C237 1.251 . S
H251 C234 0.930 . S
H252 C245 0.929 . S
Cu253 N254 1.999 . S
Cu253 O259 1.974 . S
Cu253 N264 1.985 . S
Cu253 O273 1.959 . S
N254 Cu253 1.999 . S
N254 C256 1.263 . S
N254 C258 1.389 . S
N255 C256 1.358 . S
N255 C257 1.400 . S
C256 N254 1.263 . S
C256 N255 1.358 . S
C256 H262 0.930 . S
C257 N255 1.400 . S
C257 C258 1.351 . S
C257 H274 0.930 . S
C258 N254 1.389 . S
C258 C257 1.351 . S
C258 H263 0.930 . S
O259 Cu253 1.974 . S
O259 C269 1.282 . S
C260 O261 1.261 . S
C260 O273 1.251 . S
O261 C260 1.261 . S
H262 C256 0.930 . S
H263 C258 0.930 . S
N264 Cu253 1.985 . S
N264 C266 1.335 . S
N264 C267 1.390 1_554 S
N265 C266 1.360 . S
N265 C268 1.325 1_554 S
C266 N264 1.335 . S
C266 N265 1.360 . S
C266 H271 0.930 . S
C267 N264 1.390 1_556 S
C267 C268 1.346 . S
C267 H272 0.930 . S
C268 N265 1.325 1_556 S
C268 C267 1.346 . S
C268 H275 0.929 . S
C269 O259 1.282 . S
C269 O270 1.216 . S
O270 C269 1.216 . S
H271 C266 0.930 . S
H272 C267 0.930 . S
O273 Cu253 1.959 . S
O273 C260 1.251 . S
H274 C257 0.930 . S
H275 C268 0.929 . S
Cu276 N277 1.999 . S
Cu276 O282 1.974 . S
Cu276 N287 1.985 . S
Cu276 O296 1.959 . S
N277 Cu276 1.999 . S
N277 C279 1.263 . S
N277 C281 1.389 1_556 S
N278 C279 1.358 1_554 S
N278 C280 1.400 . S
C279 N277 1.263 . S
C279 N278 1.358 1_556 S
C279 H285 0.930 . S
C280 N278 1.400 . S
C280 C281 1.351 . S
C280 H297 0.930 . S
C281 N277 1.389 1_554 S
C281 C280 1.351 . S
C281 H286 0.930 . S
O282 Cu276 1.974 . S
O282 C292 1.282 . S
C283 O284 1.261 . S
C283 O296 1.251 . S
O284 C283 1.261 . S
H285 C279 0.930 . S
H286 C281 0.930 . S
N287 Cu276 1.985 . S
N287 C289 1.335 . S
N287 C290 1.390 . S
N288 C289 1.345 . S
N288 C291 1.336 . S
C289 N287 1.335 . S
C289 N288 1.345 . S
C289 H294 0.930 . S
C290 N287 1.390 . S
C290 C291 1.346 . S
C290 H295 0.930 . S
C291 N288 1.336 . S
C291 C290 1.346 . S
C291 H298 0.929 . S
C292 O282 1.282 . S
C292 O293 1.216 . S
O293 C292 1.216 . S
H294 C289 0.930 . S
H295 C290 0.930 . S
O296 Cu276 1.959 . S
O296 C283 1.251 . S
H297 C280 0.930 . S
H298 C291 0.929 . S
Cu299 N300 1.999 . S
Cu299 O305 1.974 1_556 S
Cu299 N310 1.985 1_556 S
Cu299 O319 1.959 . S
N300 Cu299 1.999 . S
N300 C302 1.263 . S
N300 C304 1.389 . S
N301 C302 1.358 . S
N301 C303 1.400 . S
C302 N300 1.263 . S
C302 N301 1.358 . S
C302 H308 0.930 . S
C303 N301 1.400 . S
C303 C304 1.351 . S
C303 H320 0.930 . S
C304 N300 1.389 . S
C304 C303 1.351 . S
C304 H309 0.930 . S
O305 Cu299 1.974 1_554 S
O305 C315 1.282 . S
C306 O307 1.261 . S
C306 O319 1.251 . S
O307 C306 1.261 . S
H308 C302 0.930 . S
H309 C304 0.930 . S
N310 Cu299 1.985 1_554 S
N310 C312 1.335 . S
N310 C313 1.390 . S
N311 C312 1.345 . S
N311 C314 1.336 . S
C312 N310 1.335 . S
C312 N311 1.345 . S
C312 H317 0.930 . S
C313 N310 1.390 . S
C313 C314 1.346 . S
C313 H318 0.930 . S
C314 N311 1.336 . S
C314 C313 1.346 . S
C314 H321 0.929 . S
C315 O305 1.282 . S
C315 O316 1.216 . S
O316 C315 1.216 . S
H317 C312 0.930 . S
H318 C313 0.930 . S
O319 Cu299 1.959 . S
O319 C306 1.251 . S
H320 C303 0.930 . S
H321 C314 0.929 . S
Cu322 N323 1.999 . S
Cu322 O328 1.974 . S
Cu322 N333 1.985 . S
Cu322 O342 1.959 . S
N323 Cu322 1.999 . S
N323 C325 1.263 . S
N323 C327 1.389 . S
N324 C325 1.358 . S
N324 C326 1.400 . S
C325 N323 1.263 . S
C325 N324 1.358 . S
C325 H331 0.930 . S
C326 N324 1.400 . S
C326 C327 1.351 . S
C326 H343 0.930 . S
C327 N323 1.389 . S
C327 C326 1.351 . S
C327 H332 0.930 . S
O328 Cu322 1.974 . S
O328 C338 1.282 . S
C329 O330 1.261 . S
C329 O342 1.251 . S
O330 C329 1.261 . S
H331 C325 0.930 . S
H332 C327 0.930 . S
N333 Cu322 1.985 . S
N333 C335 1.335 . S
N333 C336 1.390 . S
N334 C335 1.345 . S
N334 C337 1.336 1_556 S
C335 N333 1.335 . S
C335 N334 1.345 . S
C335 H340 0.930 . S
C336 N333 1.390 . S
C336 C337 1.346 1_556 S
C336 H341 0.930 1_556 S
C337 N334 1.336 1_554 S
C337 C336 1.346 1_554 S
C337 H344 0.929 . S
C338 O328 1.282 . S
C338 O339 1.216 . S
O339 C338 1.216 . S
H340 C335 0.930 . S
H341 C336 0.930 1_554 S
O342 Cu322 1.959 . S
O342 C329 1.251 . S
H343 C326 0.930 . S
H344 C337 0.929 . S
Cu345 N346 1.999 . S
Cu345 O351 1.974 . S
Cu345 N356 1.985 . S
Cu345 O365 1.959 . S
N346 Cu345 1.999 . S
N346 C348 1.263 . S
N346 C350 1.389 . S
N347 C348 1.358 . S
N347 C349 1.400 . S
C348 N346 1.263 . S
C348 N347 1.358 . S
C348 H354 0.930 . S
C349 N347 1.400 . S
C349 C350 1.351 . S
C349 H366 0.930 . S
C350 N346 1.389 . S
C350 C349 1.351 . S
C350 H355 0.930 . S
O351 Cu345 1.974 . S
O351 C361 1.282 . S
C352 O353 1.261 . S
C352 O365 1.251 . S
O353 C352 1.261 . S
H354 C348 0.930 . S
H355 C350 0.930 . S
N356 Cu345 1.985 . S
N356 C358 1.335 . S
N356 C359 1.390 . S
N357 C358 1.345 . S
N357 C360 1.336 . S
C358 N356 1.335 . S
C358 N357 1.345 . S
C358 H363 0.930 . S
C359 N356 1.390 . S
C359 C360 1.346 . S
C359 H364 0.930 . S
C360 N357 1.336 . S
C360 C359 1.346 . S
C360 H367 0.929 . S
C361 O351 1.282 . S
C361 O362 1.216 . S
O362 C361 1.216 . S
H363 C358 0.930 . S
H364 C359 0.930 . S
O365 Cu345 1.959 . S
O365 C352 1.251 . S
H366 C349 0.930 . S
H367 C360 0.929 . S
Cu368 N369 1.999 . S
Cu368 O374 1.974 . S
Cu368 N379 1.985 . S
Cu368 O388 1.959 . S
N369 Cu368 1.999 . S
N369 C371 1.263 . S
N369 C373 1.389 . S
N370 C371 1.358 . S
N370 C372 1.400 . S
C371 N369 1.263 . S
C371 N370 1.358 . S
C371 H377 0.930 . S
C372 N370 1.400 . S
C372 C373 1.351 . S
C372 H389 0.930 . S
C373 N369 1.389 . S
C373 C372 1.351 . S
C373 H378 0.930 . S
O374 Cu368 1.974 . S
O374 C384 1.282 . S
C375 O376 1.261 . S
C375 O388 1.251 . S
O376 C375 1.261 . S
H377 C371 0.930 . S
H378 C373 0.930 . S
N379 Cu368 1.985 . S
N379 C381 1.335 . S
N379 C382 1.390 . S
N380 C381 1.345 . S
N380 C383 1.336 . S
C381 N379 1.335 . S
C381 N380 1.345 . S
C381 H386 0.930 . S
C382 N379 1.390 . S
C382 C383 1.346 . S
C382 H387 0.930 . S
C383 N380 1.336 . S
C383 C382 1.346 . S
C383 H390 0.929 . S
C384 O374 1.282 . S
C384 O385 1.216 . S
O385 C384 1.216 . S
H386 C381 0.930 . S
H387 C382 0.930 . S
O388 Cu368 1.959 . S
O388 C375 1.251 . S
H389 C372 0.930 . S
H390 C383 0.929 . S
Cu391 N392 1.999 . S
Cu391 O397 1.974 . S
Cu391 N402 1.985 . S
Cu391 O411 1.959 . S
N392 Cu391 1.999 . S
N392 C394 1.263 . S
N392 C396 1.389 . S
N393 C394 1.358 . S
N393 C395 1.400 . S
C394 N392 1.263 . S
C394 N393 1.358 . S
C394 H400 0.930 . S
C395 N393 1.400 . S
C395 C396 1.351 . S
C395 H412 0.930 . S
C396 N392 1.389 . S
C396 C395 1.351 . S
C396 H401 0.930 . S
O397 Cu391 1.974 . S
O397 C407 1.282 . S
C398 O399 1.261 . S
C398 O411 1.251 . S
O399 C398 1.261 . S
H400 C394 0.930 . S
H401 C396 0.930 . S
N402 Cu391 1.985 . S
N402 C404 1.335 . S
N402 C405 1.390 . S
N403 C404 1.345 . S
N403 C406 1.336 . S
C404 N402 1.335 . S
C404 N403 1.345 . S
C404 H409 0.930 . S
C405 N402 1.390 . S
C405 C406 1.346 . S
C405 H410 0.930 . S
C406 N403 1.336 . S
C406 C405 1.346 . S
C406 H413 0.929 . S
C407 O397 1.282 . S
C407 O408 1.216 . S
O408 C407 1.216 . S
H409 C404 0.930 . S
H410 C405 0.930 . S
O411 Cu391 1.959 . S
O411 C398 1.251 . S
H412 C395 0.930 . S
H413 C406 0.929 . S
C414 C415 1.391 . S
C414 C416 1.394 . S
C414 H430 0.931 . S
C415 C414 1.391 . S
C415 C419 1.376 . S
C416 C414 1.394 . S
C416 C417 1.369 . S
C416 C420 1.531 . S
C417 C416 1.369 . S
C417 C418 1.410 . S
C417 C425 1.510 . S
C418 C417 1.410 . S
C418 C419 1.392 . S
C418 C421 1.511 1_455 S
C419 C415 1.376 . S
C419 C418 1.392 . S
C419 H431 0.929 . S
C420 C416 1.531 . S
C420 H432 0.960 . S
C420 H433 0.960 1_556 S
C420 H434 0.960 . S
C421 C418 1.511 1_655 S
C421 H435 0.961 . S
C421 H436 0.961 . S
C421 H437 0.961 . S
C422 C423 1.370 . S
C422 C424 1.363 . S
C422 H438 0.931 . S
C423 C422 1.370 . S
C423 C427 1.408 . S
C424 C422 1.363 . S
C424 C425 1.361 1_554 S
C424 C428 1.524 . S
C425 C417 1.510 . S
C425 C424 1.361 1_556 S
C425 C426 1.406 . S
C426 C425 1.406 . S
C426 C427 1.404 1_556 S
C426 C429 1.539 . S
C427 C423 1.408 . S
C427 C426 1.404 1_554 S
C427 H439 0.930 . S
C428 C424 1.524 . S
C428 H440 0.956 . S
C428 H441 0.961 . S
C428 H442 0.961 . S
C429 C426 1.539 . S
C429 H443 0.958 . S
C429 H444 0.961 . S
C429 H445 0.960 . S
H430 C414 0.931 . S
H431 C419 0.929 . S
H432 C420 0.960 . S
H433 C420 0.960 1_554 S
H434 C420 0.960 . S
H435 C421 0.961 . S
H436 C421 0.961 . S
H437 C421 0.961 . S
H438 C422 0.931 . S
H439 C427 0.930 . S
H440 C428 0.956 . S
H441 C428 0.961 . S
H442 C428 0.961 . S
H443 C429 0.958 . S
H444 C429 0.961 . S
H445 C429 0.960 . S
C446 C447 1.391 . S
C446 C448 1.394 . S
C446 H462 0.931 . S
C447 C446 1.391 . S
C447 C451 1.376 . S
C448 C446 1.394 . S
C448 C449 1.369 . S
C448 C452 1.531 . S
C449 C448 1.369 . S
C449 C450 1.410 . S
C449 C457 1.503 . S
C450 C449 1.410 . S
C450 C451 1.392 . S
C450 C453 1.511 . S
C451 C447 1.376 . S
C451 C450 1.392 . S
C451 H463 0.929 . S
C452 C448 1.531 . S
C452 H464 0.960 1_556 S
C452 H465 0.962 . S
C452 H466 0.960 . S
C453 C450 1.511 . S
C453 H467 0.961 . S
C453 H468 0.961 . S
C453 H469 0.961 . S
C454 C455 1.370 1_556 S
C454 C456 1.363 . S
C454 H470 0.927 1_556 S
C455 C454 1.370 1_554 S
C455 C459 1.408 . S
C456 C454 1.363 . S
C456 C457 1.370 . S
C456 C460 1.524 . S
C457 C449 1.503 . S
C457 C456 1.370 . S
C457 C458 1.403 . S
C458 C457 1.403 . S
C458 C459 1.404 1_556 S
C458 C461 1.539 . S
C459 C455 1.408 . S
C459 C458 1.404 1_554 S
C459 H471 0.930 . S
C460 C456 1.524 . S
C460 H472 0.956 . S
C460 H473 0.961 . S
C460 H474 0.961 . S
C461 C458 1.539 . S
C461 H475 0.958 . S
C461 H476 0.961 . S
C461 H477 0.960 . S
H462 C446 0.931 . S
H463 C451 0.929 . S
H464 C452 0.960 1_554 S
H465 C452 0.962 . S
H466 C452 0.960 . S
H467 C453 0.961 . S
H468 C453 0.961 . S
H469 C453 0.961 . S
H470 C454 0.927 1_554 S
H471 C459 0.930 . S
H472 C460 0.956 . S
H473 C460 0.961 . S
H474 C460 0.961 . S
H475 C461 0.958 . S
H476 C461 0.961 . S
H477 C461 0.960 . S
C478 C479 1.391 . S
C478 C480 1.394 . S
C478 H494 0.931 . S
C479 C478 1.391 . S
C479 C483 1.376 . S
C480 C478 1.394 . S
C480 C481 1.369 . S
C480 C484 1.513 1_545 S
C481 C480 1.369 . S
C481 C482 1.410 . S
C481 C489 1.503 . S
C482 C481 1.410 . S
C482 C483 1.392 . S
C482 C485 1.511 . S
C483 C479 1.376 . S
C483 C482 1.392 . S
C483 H495 0.929 . S
C484 C480 1.513 1_565 S
C484 H496 0.951 . S
C484 H497 0.967 . S
C484 H498 0.983 . S
C485 C482 1.511 . S
C485 H499 0.961 . S
C485 H500 0.961 . S
C485 H501 0.961 . S
C486 C487 1.370 . S
C486 C488 1.363 . S
C486 H502 0.931 . S
C487 C486 1.370 . S
C487 C491 1.408 . S
C488 C486 1.363 . S
C488 C489 1.370 1_556 S
C488 C492 1.524 . S
C489 C481 1.503 . S
C489 C488 1.370 1_554 S
C489 C490 1.403 . S
C490 C489 1.403 . S
C490 C491 1.404 1_554 S
C490 C493 1.539 . S
C491 C487 1.408 . S
C491 C490 1.404 1_556 S
C491 H503 0.930 . S
C492 C488 1.524 . S
C492 H504 0.956 . S
C492 H505 0.961 . S
C492 H506 0.961 . S
C493 C490 1.539 . S
C493 H507 0.958 . S
C493 H508 0.961 . S
C493 H509 0.960 . S
H494 C478 0.931 . S
H495 C483 0.929 . S
H496 C484 0.951 . S
H497 C484 0.967 . S
H498 C484 0.983 . S
H499 C485 0.961 . S
H500 C485 0.961 . S
H501 C485 0.961 . S
H502 C486 0.931 . S
H503 C491 0.930 . S
H504 C492 0.956 . S
H505 C492 0.961 . S
H506 C492 0.961 . S
H507 C493 0.958 . S
H508 C493 0.961 . S
H509 C493 0.960 . S
C510 C511 1.391 . S
C510 C512 1.394 . S
C510 H526 0.931 . S
C511 C510 1.391 . S
C511 C515 1.376 . S
C512 C510 1.394 . S
C512 C513 1.369 . S
C512 C516 1.531 . S
C513 C512 1.369 . S
C513 C514 1.410 . S
C513 C521 1.503 . S
C514 C513 1.410 . S
C514 C515 1.392 . S
C514 C517 1.511 . S
C515 C511 1.376 . S
C515 C514 1.392 . S
C515 H527 0.929 . S
C516 C512 1.531 . S
C516 H528 0.960 . S
C516 H529 0.962 . S
C516 H530 0.960 . S
C517 C514 1.511 . S
C517 H531 0.961 1_545 S
C517 H532 0.961 . S
C517 H533 0.961 . S
C518 C519 1.370 . S
C518 C520 1.363 . S
C518 H534 0.931 . S
C519 C518 1.370 . S
C519 C523 1.408 . S
C520 C518 1.363 . S
C520 C521 1.370 . S
C520 C524 1.524 . S
C521 C513 1.503 . S
C521 C520 1.370 . S
C521 C522 1.403 . S
C522 C521 1.403 . S
C522 C523 1.404 . S
C522 C525 1.539 . S
C523 C519 1.408 . S
C523 C522 1.404 . S
C523 H535 0.930 . S
C524 C520 1.524 . S
C524 H536 0.956 . S
C524 H537 0.961 . S
C524 H538 0.961 . S
C525 C522 1.539 . S
C525 H539 0.958 . S
C525 H540 0.961 . S
C525 H541 0.960 . S
H526 C510 0.931 . S
H527 C515 0.929 . S
H528 C516 0.960 . S
H529 C516 0.962 . S
H530 C516 0.960 . S
H531 C517 0.961 1_565 S
H532 C517 0.961 . S
H533 C517 0.961 . S
H534 C518 0.931 . S
H535 C523 0.930 . S
H536 C524 0.956 . S
H537 C524 0.961 . S
H538 C524 0.961 . S
H539 C525 0.958 . S
H540 C525 0.961 . S
H541 C525 0.960 . S
C542 C543 1.391 . S
C542 C544 1.394 . S
C542 H558 0.931 . S
C543 C542 1.391 . S
C543 C547 1.376 . S
C544 C542 1.394 . S
C544 C545 1.369 . S
C544 C548 1.531 . S
C545 C544 1.369 . S
C545 C546 1.410 . S
C545 C553 1.503 . S
C546 C545 1.410 . S
C546 C547 1.392 . S
C546 C549 1.493 1_455 S
C547 C543 1.376 . S
C547 C546 1.392 . S
C547 H559 0.929 . S
C548 C544 1.531 . S
C548 H560 0.960 . S
C548 H561 0.962 . S
C548 H562 0.960 . S
C549 C546 1.493 1_655 S
C549 H563 0.971 . S
C549 H564 0.937 1_655 S
C549 H565 0.995 . S
C550 C551 1.370 . S
C550 C552 1.363 . S
C550 H566 0.931 . S
C551 C550 1.370 . S
C551 C555 1.408 . S
C552 C550 1.363 . S
C552 C553 1.370 . S
C552 C556 1.524 . S
C553 C545 1.503 . S
C553 C552 1.370 . S
C553 C554 1.403 . S
C554 C553 1.403 . S
C554 C555 1.404 . S
C554 C557 1.539 . S
C555 C551 1.408 . S
C555 C554 1.404 . S
C555 H567 0.930 . S
C556 C552 1.524 . S
C556 H568 0.956 . S
C556 H569 0.961 . S
C556 H570 0.961 . S
C557 C554 1.539 . S
C557 H571 0.958 . S
C557 H572 0.926 1_455 S
C557 H573 0.960 . S
H558 C542 0.931 . S
H559 C547 0.929 . S
H560 C548 0.960 . S
H561 C548 0.962 . S
H562 C548 0.960 . S
H563 C549 0.971 . S
H564 C549 0.937 1_455 S
H565 C549 0.995 . S
H566 C550 0.931 . S
H567 C555 0.930 . S
H568 C556 0.956 . S
H569 C556 0.961 . S
H570 C556 0.961 . S
H571 C557 0.958 . S
H572 C557 0.926 1_655 S
H573 C557 0.960 . S
C574 C575 1.391 . S
C574 C576 1.394 . S
C574 H590 0.931 . S
C575 C574 1.391 . S
C575 C579 1.376 . S
C576 C574 1.394 . S
C576 C577 1.369 . S
C576 C580 1.531 . S
C577 C576 1.369 . S
C577 C578 1.410 . S
C577 C585 1.503 . S
C578 C577 1.410 . S
C578 C579 1.392 . S
C578 C581 1.511 . S
C579 C575 1.376 . S
C579 C578 1.392 . S
C579 H591 0.929 . S
C580 C576 1.531 . S
C580 H592 0.960 . S
C580 H593 0.962 . S
C580 H594 0.960 . S
C581 C578 1.511 . S
C581 H595 0.961 . S
C581 H596 0.961 . S
C581 H597 0.961 . S
C582 C583 1.370 . S
C582 C584 1.363 . S
C582 H598 0.931 . S
C583 C582 1.370 . S
C583 C587 1.408 . S
C584 C582 1.363 . S
C584 C585 1.370 . S
C584 C588 1.524 . S
C585 C577 1.503 . S
C585 C584 1.370 . S
C585 C586 1.403 . S
C586 C585 1.403 . S
C586 C587 1.404 . S
C586 C589 1.539 . S
C587 C583 1.408 . S
C587 C586 1.404 . S
C587 H599 0.930 . S
C588 C584 1.524 . S
C588 H600 0.956 . S
C588 H601 0.961 . S
C588 H602 0.961 . S
C589 C586 1.539 . S
C589 H603 0.958 . S
C589 H604 0.961 . S
C589 H605 0.960 . S
H590 C574 0.931 . S
H591 C579 0.929 . S
H592 C580 0.960 . S
H593 C580 0.962 . S
H594 C580 0.960 . S
H595 C581 0.961 . S
H596 C581 0.961 . S
H597 C581 0.961 . S
H598 C582 0.931 . S
H599 C587 0.930 . S
H600 C588 0.956 . S
H601 C588 0.961 . S
H602 C588 0.961 . S
H603 C589 0.958 . S
H604 C589 0.961 . S
H605 C589 0.960 . S
C606 C607 1.391 . S
C606 C608 1.394 . S
C606 H622 0.931 . S
C607 C606 1.391 . S
C607 C611 1.376 . S
C608 C606 1.394 . S
C608 C609 1.369 . S
C608 C612 1.531 . S
C609 C608 1.369 . S
C609 C610 1.410 . S
C609 C617 1.503 . S
C610 C609 1.410 . S
C610 C611 1.392 . S
C610 C613 1.511 . S
C611 C607 1.376 . S
C611 C610 1.392 . S
C611 H623 0.929 . S
C612 C608 1.531 . S
C612 H624 0.960 . S
C612 H625 0.962 . S
C612 H626 0.960 . S
C613 C610 1.511 . S
C613 H627 0.961 . S
C613 H628 0.961 . S
C613 H629 0.961 . S
C614 C615 1.370 . S
C614 C616 1.363 . S
C614 H630 0.931 . S
C615 C614 1.370 . S
C615 C619 1.408 . S
C616 C614 1.363 . S
C616 C617 1.370 . S
C616 C620 1.524 . S
C617 C609 1.503 . S
C617 C616 1.370 . S
C617 C618 1.403 . S
C618 C617 1.403 . S
C618 C619 1.404 . S
C618 C621 1.539 . S
C619 C615 1.408 . S
C619 C618 1.404 . S
C619 H631 0.930 . S
C620 C616 1.524 . S
C620 H632 0.956 . S
C620 H633 0.961 . S
C620 H634 0.961 . S
C621 C618 1.539 . S
C621 H635 0.958 . S
C621 H636 0.961 . S
C621 H637 0.960 . S
H622 C606 0.931 . S
H623 C611 0.929 . S
H624 C612 0.960 . S
H625 C612 0.962 . S
H626 C612 0.960 . S
H627 C613 0.961 . S
H628 C613 0.961 . S
H629 C613 0.961 . S
H630 C614 0.931 . S
H631 C619 0.930 . S
H632 C620 0.956 . S
H633 C620 0.961 . S
H634 C620 0.961 . S
H635 C621 0.958 . S
H636 C621 0.961 . S
H637 C621 0.960 . S
C638 C639 1.391 . S
C638 C640 1.394 . S
C638 H654 0.931 . S
C639 C638 1.391 . S
C639 C643 1.376 . S
C640 C638 1.394 . S
C640 C641 1.369 . S
C640 C644 1.531 . S
C641 C640 1.369 . S
C641 C642 1.410 . S
C641 C649 1.503 . S
C642 C641 1.410 . S
C642 C643 1.392 . S
C642 C645 1.511 . S
C643 C639 1.376 . S
C643 C642 1.392 . S
C643 H655 0.929 . S
C644 C640 1.531 . S
C644 H656 0.960 . S
C644 H657 0.962 . S
C644 H658 0.960 . S
C645 C642 1.511 . S
C645 H659 0.961 . S
C645 H660 0.961 . S
C645 H661 0.961 . S
C646 C647 1.370 . S
C646 C648 1.363 . S
C646 H662 0.931 . S
C647 C646 1.370 . S
C647 C651 1.408 . S
C648 C646 1.363 . S
C648 C649 1.370 . S
C648 C652 1.524 . S
C649 C641 1.503 . S
C649 C648 1.370 . S
C649 C650 1.403 . S
C650 C649 1.403 . S
C650 C651 1.404 . S
C650 C653 1.539 . S
C651 C647 1.408 . S
C651 C650 1.404 . S
C651 H663 0.930 . S
C652 C648 1.524 . S
C652 H664 0.956 . S
C652 H665 0.961 . S
C652 H666 0.961 . S
C653 C650 1.539 . S
C653 H667 0.958 . S
C653 H668 0.961 . S
C653 H669 0.960 . S
H654 C638 0.931 . S
H655 C643 0.929 . S
H656 C644 0.960 . S
H657 C644 0.962 . S
H658 C644 0.960 . S
H659 C645 0.961 . S
H660 C645 0.961 . S
H661 C645 0.961 . S
H662 C646 0.931 . S
H663 C651 0.930 . S
H664 C652 0.956 . S
H665 C652 0.961 . S
H666 C652 0.961 . S
H667 C653 0.958 . S
H668 C653 0.961 . S
H669 C653 0.960 . S
C670 C671 1.391 . S
C670 C672 1.394 . S
C670 H686 0.931 . S
C671 C670 1.391 . S
C671 C675 1.376 . S
C672 C670 1.394 . S
C672 C673 1.369 . S
C672 C676 1.531 . S
C673 C672 1.369 . S
C673 C674 1.410 . S
C673 C681 1.503 . S
C674 C673 1.410 . S
C674 C675 1.392 . S
C674 C677 1.511 . S
C675 C671 1.376 . S
C675 C674 1.392 . S
C675 H687 0.929 . S
C676 C672 1.531 . S
C676 H688 0.960 . S
C676 H689 0.962 . S
C676 H690 0.960 . S
C677 C674 1.511 . S
C677 H691 0.961 . S
C677 H692 0.961 . S
C677 H693 0.961 . S
C678 C679 1.370 . S
C678 C680 1.363 . S
C678 H694 0.931 . S
C679 C678 1.370 . S
C679 C683 1.408 . S
C680 C678 1.363 . S
C680 C681 1.370 . S
C680 C684 1.524 . S
C681 C673 1.503 . S
C681 C680 1.370 . S
C681 C682 1.403 . S
C682 C681 1.403 . S
C682 C683 1.404 . S
C682 C685 1.539 . S
C683 C679 1.408 . S
C683 C682 1.404 . S
C683 H695 0.930 . S
C684 C680 1.524 . S
C684 H696 0.956 . S
C684 H697 0.961 . S
C684 H698 0.961 . S
C685 C682 1.539 . S
C685 H699 0.958 . S
C685 H700 0.961 . S
C685 H701 0.960 . S
H686 C670 0.931 . S
H687 C675 0.929 . S
H688 C676 0.960 . S
H689 C676 0.962 . S
H690 C676 0.960 . S
H691 C677 0.961 . S
H692 C677 0.961 . S
H693 C677 0.961 . S
H694 C678 0.931 . S
H695 C683 0.930 . S
H696 C684 0.956 . S
H697 C684 0.961 . S
H698 C684 0.961 . S
H699 C685 0.958 . S
H700 C685 0.961 . S
H701 C685 0.960 . S
C702 C703 1.391 . S
C702 C704 1.394 . S
C702 H718 0.931 1_556 S
C703 C702 1.391 . S
C703 C707 1.376 . S
C704 C702 1.394 . S
C704 C705 1.369 . S
C704 C708 1.531 . S
C705 C704 1.369 . S
C705 C706 1.410 . S
C705 C713 1.503 . S
C706 C705 1.410 . S
C706 C707 1.392 . S
C706 C709 1.511 . S
C707 C703 1.376 . S
C707 C706 1.392 . S
C707 H719 0.929 . S
C708 C704 1.531 . S
C708 H720 0.960 . S
C708 H721 0.962 . S
C708 H722 0.960 . S
C709 C706 1.511 . S
C709 H723 0.961 . S
C709 H724 0.961 . S
C709 H725 0.961 . S
C710 C711 1.370 . S
C710 C712 1.363 . S
C710 H726 0.931 . S
C711 C710 1.370 . S
C711 C715 1.408 . S
C712 C710 1.363 . S
C712 C713 1.370 . S
C712 C716 1.524 . S
C713 C705 1.503 . S
C713 C712 1.370 . S
C713 C714 1.403 . S
C714 C713 1.403 . S
C714 C715 1.404 . S
C714 C717 1.539 . S
C715 C711 1.408 . S
C715 C714 1.404 . S
C715 H727 0.930 . S
C716 C712 1.524 . S
C716 H728 0.956 . S
C716 H729 0.961 . S
C716 H730 0.961 . S
C717 C714 1.539 . S
C717 H731 0.958 . S
C717 H732 0.961 . S
C717 H733 0.960 . S
H718 C702 0.931 1_554 S
H719 C707 0.929 . S
H720 C708 0.960 . S
H721 C708 0.962 . S
H722 C708 0.960 . S
H723 C709 0.961 . S
H724 C709 0.961 . S
H725 C709 0.961 . S
H726 C710 0.931 . S
H727 C715 0.930 . S
H728 C716 0.956 . S
H729 C716 0.961 . S
H730 C716 0.961 . S
H731 C717 0.958 . S
H732 C717 0.961 . S
H733 C717 0.960 . S
C734 C735 1.391 . S
C734 C736 1.394 . S
C734 H750 0.931 . S
C735 C734 1.391 . S
C735 C739 1.376 . S
C736 C734 1.394 . S
C736 C737 1.369 . S
C736 C740 1.531 . S
C737 C736 1.369 . S
C737 C738 1.410 . S
C737 C745 1.503 . S
C738 C737 1.410 . S
C738 C739 1.392 . S
C738 C741 1.511 . S
C739 C735 1.376 . S
C739 C738 1.392 . S
C739 H751 0.929 . S
C740 C736 1.531 . S
C740 H752 0.960 . S
C740 H753 0.962 . S
C740 H754 0.960 . S
C741 C738 1.511 . S
C741 H755 0.961 . S
C741 H756 0.961 . S
C741 H757 0.961 . S
C742 C743 1.370 . S
C742 C744 1.363 . S
C742 H758 0.931 . S
C743 C742 1.370 . S
C743 C747 1.408 . S
C744 C742 1.363 . S
C744 C745 1.370 . S
C744 C748 1.524 . S
C745 C737 1.503 . S
C745 C744 1.370 . S
C745 C746 1.403 . S
C746 C745 1.403 . S
C746 C747 1.404 . S
C746 C749 1.539 . S
C747 C743 1.408 . S
C747 C746 1.404 . S
C747 H759 0.930 . S
C748 C744 1.524 . S
C748 H760 0.956 . S
C748 H761 0.961 . S
C748 H762 0.961 . S
C749 C746 1.539 . S
C749 H763 0.958 . S
C749 H764 0.961 . S
C749 H765 0.960 . S
H750 C734 0.931 . S
H751 C739 0.929 . S
H752 C740 0.960 . S
H753 C740 0.962 . S
H754 C740 0.960 . S
H755 C741 0.961 . S
H756 C741 0.961 . S
H757 C741 0.961 . S
H758 C742 0.931 . S
H759 C747 0.930 . S
H760 C748 0.956 . S
H761 C748 0.961 . S
H762 C748 0.961 . S
H763 C749 0.958 . S
H764 C749 0.961 . S
H765 C749 0.960 . S
C766 C767 1.391 . S
C766 C768 1.394 . S
C766 H782 0.931 . S
C767 C766 1.391 . S
C767 C771 1.376 . S
C768 C766 1.394 . S
C768 C769 1.369 . S
C768 C772 1.531 . S
C769 C768 1.369 . S
C769 C770 1.410 . S
C769 C777 1.503 . S
C770 C769 1.410 . S
C770 C771 1.392 . S
C770 C773 1.511 . S
C771 C767 1.376 . S
C771 C770 1.392 . S
C771 H783 0.929 1_556 S
C772 C768 1.531 . S
C772 H784 0.960 . S
C772 H785 0.962 . S
C772 H786 0.960 . S
C773 C770 1.511 . S
C773 H787 0.961 . S
C773 H788 0.961 . S
C773 H789 0.961 . S
C774 C775 1.370 . S
C774 C776 1.363 . S
C774 H790 0.931 . S
C775 C774 1.370 . S
C775 C779 1.408 . S
C776 C774 1.363 . S
C776 C777 1.370 . S
C776 C780 1.524 . S
C777 C769 1.503 . S
C777 C776 1.370 . S
C777 C778 1.403 . S
C778 C777 1.403 . S
C778 C779 1.404 . S
C778 C781 1.539 . S
C779 C775 1.408 . S
C779 C778 1.404 . S
C779 H791 0.930 . S
C780 C776 1.524 . S
C780 H792 0.956 . S
C780 H793 0.961 . S
C780 H794 0.961 . S
C781 C778 1.539 . S
C781 H795 0.958 . S
C781 H796 0.961 . S
C781 H797 0.960 . S
H782 C766 0.931 . S
H783 C771 0.929 1_554 S
H784 C772 0.960 . S
H785 C772 0.962 . S
H786 C772 0.960 . S
H787 C773 0.961 . S
H788 C773 0.961 . S
H789 C773 0.961 . S
H790 C774 0.931 . S
H791 C779 0.930 . S
H792 C780 0.956 . S
H793 C780 0.961 . S
H794 C780 0.961 . S
H795 C781 0.958 . S
H796 C781 0.961 . S
H797 C781 0.960 . S
C798 C799 1.391 . S
C798 C800 1.394 . S
C798 H814 0.931 . S
C799 C798 1.391 . S
C799 C803 1.376 . S
C800 C798 1.394 . S
C800 C801 1.369 . S
C800 C804 1.531 . S
C801 C800 1.369 . S
C801 C802 1.410 . S
C801 C809 1.503 . S
C802 C801 1.410 . S
C802 C803 1.392 . S
C802 C805 1.511 . S
C803 C799 1.376 . S
C803 C802 1.392 . S
C803 H815 0.929 . S
C804 C800 1.531 . S
C804 H816 0.960 . S
C804 H817 0.962 . S
C804 H818 0.960 . S
C805 C802 1.511 . S
C805 H819 0.961 . S
C805 H820 0.961 . S
C805 H821 0.961 . S
C806 C807 1.370 . S
C806 C808 1.363 . S
C806 H822 0.931 . S
C807 C806 1.370 . S
C807 C811 1.408 . S
C808 C806 1.363 . S
C808 C809 1.370 . S
C808 C812 1.524 . S
C809 C801 1.503 . S
C809 C808 1.370 . S
C809 C810 1.403 . S
C810 C809 1.403 . S
C810 C811 1.404 . S
C810 C813 1.539 . S
C811 C807 1.408 . S
C811 C810 1.404 . S
C811 H823 0.930 . S
C812 C808 1.524 . S
C812 H824 0.956 . S
C812 H825 0.961 . S
C812 H826 0.961 . S
C813 C810 1.539 . S
C813 H827 0.958 . S
C813 H828 0.961 . S
C813 H829 0.960 . S
H814 C798 0.931 . S
H815 C803 0.929 . S
H816 C804 0.960 . S
H817 C804 0.962 . S
H818 C804 0.960 . S
H819 C805 0.961 . S
H820 C805 0.961 . S
H821 C805 0.961 . S
H822 C806 0.931 . S
H823 C811 0.930 . S
H824 C812 0.956 . S
H825 C812 0.961 . S
H826 C812 0.961 . S
H827 C813 0.958 . S
H828 C813 0.961 . S
H829 C813 0.960 . S
C830 C831 1.391 . S
C830 C832 1.394 . S
C830 H846 0.931 . S
C831 C830 1.391 . S
C831 C835 1.376 . S
C832 C830 1.394 . S
C832 C833 1.369 . S
C832 C836 1.531 . S
C833 C832 1.369 . S
C833 C834 1.410 . S
C833 C841 1.503 . S
C834 C833 1.410 . S
C834 C835 1.392 . S
C834 C837 1.511 . S
C835 C831 1.376 . S
C835 C834 1.392 . S
C835 H847 0.929 . S
C836 C832 1.531 . S
C836 H848 0.960 . S
C836 H849 0.962 . S
C836 H850 0.960 . S
C837 C834 1.511 . S
C837 H851 0.961 . S
C837 H852 0.961 . S
C837 H853 0.961 . S
C838 C839 1.370 . S
C838 C840 1.363 . S
C838 H854 0.931 . S
C839 C838 1.370 . S
C839 C843 1.408 . S
C840 C838 1.363 . S
C840 C841 1.370 . S
C840 C844 1.524 . S
C841 C833 1.503 . S
C841 C840 1.370 . S
C841 C842 1.403 . S
C842 C841 1.403 . S
C842 C843 1.404 . S
C842 C845 1.539 . S
C843 C839 1.408 . S
C843 C842 1.404 . S
C843 H855 0.930 . S
C844 C840 1.524 . S
C844 H856 0.956 . S
C844 H857 0.961 . S
C844 H858 0.961 . S
C845 C842 1.539 . S
C845 H859 0.958 . S
C845 H860 0.961 . S
C845 H861 0.960 . S
H846 C830 0.931 . S
H847 C835 0.929 . S
H848 C836 0.960 . S
H849 C836 0.962 . S
H850 C836 0.960 . S
H851 C837 0.961 . S
H852 C837 0.961 . S
H853 C837 0.961 . S
H854 C838 0.931 . S
H855 C843 0.930 . S
H856 C844 0.956 . S
H857 C844 0.961 . S
H858 C844 0.961 . S
H859 C845 0.958 . S
H860 C845 0.961 . S
H861 C845 0.960 . S
C862 C863 1.391 . S
C862 C864 1.394 . S
C862 H878 0.931 . S
C863 C862 1.391 . S
C863 C867 1.376 . S
C864 C862 1.394 . S
C864 C865 1.369 . S
C864 C868 1.531 . S
C865 C864 1.369 . S
C865 C866 1.410 . S
C865 C873 1.503 . S
C866 C865 1.410 . S
C866 C867 1.392 . S
C866 C869 1.511 . S
C867 C863 1.376 . S
C867 C866 1.392 . S
C867 H879 0.929 . S
C868 C864 1.531 . S
C868 H880 0.960 . S
C868 H881 0.962 . S
C868 H882 0.960 . S
C869 C866 1.511 . S
C869 H883 0.961 . S
C869 H884 0.961 . S
C869 H885 0.961 . S
C870 C871 1.370 . S
C870 C872 1.363 . S
C870 H886 0.931 . S
C871 C870 1.370 . S
C871 C875 1.408 . S
C872 C870 1.363 . S
C872 C873 1.370 . S
C872 C876 1.524 . S
C873 C865 1.503 . S
C873 C872 1.370 . S
C873 C874 1.403 . S
C874 C873 1.403 . S
C874 C875 1.404 . S
C874 C877 1.539 . S
C875 C871 1.408 . S
C875 C874 1.404 . S
C875 H887 0.930 . S
C876 C872 1.524 . S
C876 H888 0.956 . S
C876 H889 0.961 . S
C876 H890 0.961 . S
C877 C874 1.539 . S
C877 H891 0.958 . S
C877 H892 0.961 . S
C877 H893 0.960 . S
H878 C862 0.931 . S
H879 C867 0.929 . S
H880 C868 0.960 . S
H881 C868 0.962 . S
H882 C868 0.960 . S
H883 C869 0.961 . S
H884 C869 0.961 . S
H885 C869 0.961 . S
H886 C870 0.931 . S
H887 C875 0.930 . S
H888 C876 0.956 . S
H889 C876 0.961 . S
H890 C876 0.961 . S
H891 C877 0.958 . S
H892 C877 0.961 . S
H893 C877 0.960 . S
C894 C895 1.391 . S
C894 C896 1.394 . S
C894 H910 0.931 . S
C895 C894 1.391 . S
C895 C899 1.376 . S
C896 C894 1.394 . S
C896 C897 1.369 . S
C896 C900 1.531 . S
C897 C896 1.369 . S
C897 C898 1.410 . S
C897 C905 1.503 . S
C898 C897 1.410 . S
C898 C899 1.392 . S
C898 C901 1.511 . S
C899 C895 1.376 . S
C899 C898 1.392 . S
C899 H911 0.929 . S
C900 C896 1.531 . S
C900 H912 0.960 . S
C900 H913 0.962 . S
C900 H914 0.960 . S
C901 C898 1.511 . S
C901 H915 0.961 . S
C901 H916 0.961 . S
C901 H917 0.961 . S
C902 C903 1.370 1_554 S
C902 C904 1.363 . S
C902 H918 0.931 . S
C903 C902 1.370 1_556 S
C903 C907 1.408 . S
C904 C902 1.363 . S
C904 C905 1.370 . S
C904 C908 1.524 . S
C905 C897 1.503 . S
C905 C904 1.370 . S
C905 C906 1.403 . S
C906 C905 1.403 . S
C906 C907 1.404 1_554 S
C906 C909 1.539 1_554 S
C907 C903 1.408 . S
C907 C906 1.404 1_556 S
C907 H919 0.930 . S
C908 C904 1.524 . S
C908 H920 0.956 . S
C908 H921 0.961 . S
C908 H922 0.961 . S
C909 C906 1.539 1_556 S
C909 H923 0.958 . S
C909 H924 0.961 . S
C909 H925 0.963 . S
H910 C894 0.931 . S
H911 C899 0.929 . S
H912 C900 0.960 . S
H913 C900 0.962 . S
H914 C900 0.960 . S
H915 C901 0.961 . S
H916 C901 0.961 . S
H917 C901 0.961 . S
H918 C902 0.931 . S
H919 C907 0.930 . S
H920 C908 0.956 . S
H921 C908 0.961 . S
H922 C908 0.961 . S
H923 C909 0.958 . S
H924 C909 0.961 . S
H925 C909 0.963 . S
C926 C927 1.391 . S
C926 C928 1.394 . S
C926 H942 0.931 . S
C927 C926 1.391 . S
C927 C931 1.376 . S
C928 C926 1.394 . S
C928 C929 1.369 . S
C928 C932 1.531 . S
C929 C928 1.369 . S
C929 C930 1.410 . S
C929 C937 1.503 . S
C930 C929 1.410 . S
C930 C931 1.392 . S
C930 C933 1.511 . S
C931 C927 1.376 . S
C931 C930 1.392 . S
C931 H943 0.929 . S
C932 C928 1.531 . S
C932 H944 0.960 . S
C932 H945 0.962 . S
C932 H946 0.960 . S
C933 C930 1.511 . S
C933 H947 0.961 . S
C933 H948 0.961 . S
C933 H949 0.961 . S
C934 C935 1.370 . S
C934 C936 1.363 . S
C934 H950 0.931 . S
C935 C934 1.370 . S
C935 C939 1.408 . S
C936 C934 1.363 . S
C936 C937 1.370 . S
C936 C940 1.524 . S
C937 C929 1.503 . S
C937 C936 1.370 . S
C937 C938 1.403 . S
C938 C937 1.403 . S
C938 C939 1.404 . S
C938 C941 1.539 . S
C939 C935 1.408 . S
C939 C938 1.404 . S
C939 H951 0.930 . S
C940 C936 1.524 . S
C940 H952 0.956 . S
C940 H953 0.961 . S
C940 H954 0.961 . S
C941 C938 1.539 . S
C941 H955 0.958 . S
C941 H956 0.961 . S
C941 H957 0.960 . S
H942 C926 0.931 . S
H943 C931 0.929 . S
H944 C932 0.960 . S
H945 C932 0.962 . S
H946 C932 0.960 . S
H947 C933 0.961 . S
H948 C933 0.961 . S
H949 C933 0.961 . S
H950 C934 0.931 . S
H951 C939 0.930 . S
H952 C940 0.956 . S
H953 C940 0.961 . S
H954 C940 0.961 . S
H955 C941 0.958 . S
H956 C941 0.961 . S
H957 C941 0.960 . S
C958 C959 1.391 . S
C958 C960 1.394 . S
C958 H974 0.931 . S
C959 C958 1.391 . S
C959 C963 1.376 . S
C960 C958 1.394 . S
C960 C961 1.369 . S
C960 C964 1.531 . S
C961 C960 1.369 . S
C961 C962 1.410 . S
C961 C969 1.503 . S
C962 C961 1.410 . S
C962 C963 1.392 . S
C962 C965 1.511 . S
C963 C959 1.376 . S
C963 C962 1.392 . S
C963 H975 0.929 . S
C964 C960 1.531 . S
C964 H976 0.960 . S
C964 H977 0.962 . S
C964 H978 0.960 . S
C965 C962 1.511 . S
C965 H979 0.961 . S
C965 H980 0.961 . S
C965 H981 0.961 . S
C966 C967 1.370 . S
C966 C968 1.363 . S
C966 H982 0.931 . S
C967 C966 1.370 . S
C967 C971 1.408 . S
C968 C966 1.363 . S
C968 C969 1.370 . S
C968 C972 1.524 . S
C969 C961 1.503 . S
C969 C968 1.370 . S
C969 C970 1.403 . S
C970 C969 1.403 . S
C970 C971 1.404 . S
C970 C973 1.539 . S
C971 C967 1.408 . S
C971 C970 1.404 . S
C971 H983 0.930 . S
C972 C968 1.524 . S
C972 H984 0.956 . S
C972 H985 0.961 . S
C972 H986 0.961 . S
C973 C970 1.539 . S
C973 H987 0.958 . S
C973 H988 0.961 . S
C973 H989 0.960 . S
H974 C958 0.931 . S
H975 C963 0.929 . S
H976 C964 0.960 . S
H977 C964 0.962 . S
H978 C964 0.960 . S
H979 C965 0.961 . S
H980 C965 0.961 . S
H981 C965 0.961 . S
H982 C966 0.931 . S
H983 C971 0.930 . S
H984 C972 0.956 . S
H985 C972 0.961 . S
H986 C972 0.961 . S
H987 C973 0.958 . S
H988 C973 0.961 . S
H989 C973 0.960 . S
C990 C991 1.391 . S
C990 C992 1.394 . S
C990 H1006 0.931 . S
C991 C990 1.391 . S
C991 C995 1.376 . S
C992 C990 1.394 . S
C992 C993 1.369 . S
C992 C996 1.531 . S
C993 C992 1.369 . S
C993 C994 1.410 . S
C993 C1001 1.503 . S
C994 C993 1.410 . S
C994 C995 1.392 . S
C994 C997 1.511 . S
C995 C991 1.376 . S
C995 C994 1.392 . S
C995 H1007 0.929 . S
C996 C992 1.531 . S
C996 H1008 0.960 . S
C996 H1009 0.962 . S
C996 H1010 0.960 . S
C997 C994 1.511 . S
C997 H1011 0.961 . S
C997 H1012 0.961 . S
C997 H1013 0.961 . S
C998 C999 1.370 . S
C998 C1000 1.363 . S
C998 H1014 0.931 . S
C999 C998 1.370 . S
C999 C1003 1.408 . S
C1000 C998 1.363 . S
C1000 C1001 1.370 . S
C1000 C1004 1.524 . S
C1001 C993 1.503 . S
C1001 C1000 1.370 . S
C1001 C1002 1.403 . S
C1002 C1001 1.403 . S
C1002 C1003 1.404 . S
C1002 C1005 1.539 . S
C1003 C999 1.408 . S
C1003 C1002 1.404 . S
C1003 H1015 0.930 . S
C1004 C1000 1.524 . S
C1004 H1016 0.956 . S
C1004 H1017 0.961 . S
C1004 H1018 0.961 . S
C1005 C1002 1.539 . S
C1005 H1019 0.958 . S
C1005 H1020 0.961 . S
C1005 H1021 0.960 . S
H1006 C990 0.931 . S
H1007 C995 0.929 . S
H1008 C996 0.960 . S
H1009 C996 0.962 . S
H1010 C996 0.960 . S
H1011 C997 0.961 . S
H1012 C997 0.961 . S
H1013 C997 0.961 . S
H1014 C998 0.931 . S
H1015 C1003 0.930 . S
H1016 C1004 0.956 . S
H1017 C1004 0.961 . S
H1018 C1004 0.961 . S
H1019 C1005 0.958 . S
H1020 C1005 0.961 . S
H1021 C1005 0.960 . S
C1022 C1023 1.391 . S
C1022 C1024 1.394 . S
C1022 H1038 0.931 . S
C1023 C1022 1.391 . S
C1023 C1027 1.376 . S
C1024 C1022 1.394 . S
C1024 C1025 1.369 . S
C1024 C1028 1.531 . S
C1025 C1024 1.369 . S
C1025 C1026 1.410 . S
C1025 C1033 1.503 . S
C1026 C1025 1.410 . S
C1026 C1027 1.392 . S
C1026 C1029 1.511 . S
C1027 C1023 1.376 . S
C1027 C1026 1.392 . S
C1027 H1039 0.929 . S
C1028 C1024 1.531 . S
C1028 H1040 0.960 . S
C1028 H1041 0.962 . S
C1028 H1042 0.960 . S
C1029 C1026 1.511 . S
C1029 H1043 0.961 . S
C1029 H1044 0.961 . S
C1029 H1045 0.961 . S
C1030 C1031 1.370 . S
C1030 C1032 1.363 . S
C1030 H1046 0.931 . S
C1031 C1030 1.370 . S
C1031 C1035 1.408 . S
C1032 C1030 1.363 . S
C1032 C1033 1.370 . S
C1032 C1036 1.524 . S
C1033 C1025 1.503 . S
C1033 C1032 1.370 . S
C1033 C1034 1.403 . S
C1034 C1033 1.403 . S
C1034 C1035 1.404 . S
C1034 C1037 1.539 . S
C1035 C1031 1.408 . S
C1035 C1034 1.404 . S
C1035 H1047 0.930 . S
C1036 C1032 1.524 . S
C1036 H1048 0.956 . S
C1036 H1049 0.961 . S
C1036 H1050 0.961 . S
C1037 C1034 1.539 . S
C1037 H1051 0.958 . S
C1037 H1052 0.961 . S
C1037 H1053 0.960 . S
H1038 C1022 0.931 . S
H1039 C1027 0.929 . S
H1040 C1028 0.960 . S
H1041 C1028 0.962 . S
H1042 C1028 0.960 . S
H1043 C1029 0.961 . S
H1044 C1029 0.961 . S
H1045 C1029 0.961 . S
H1046 C1030 0.931 . S
H1047 C1035 0.930 . S
H1048 C1036 0.956 . S
H1049 C1036 0.961 . S
H1050 C1036 0.961 . S
H1051 C1037 0.958 . S
H1052 C1037 0.961 . S
H1053 C1037 0.960 . S
C1054 C1055 1.391 . S
C1054 C1056 1.394 . S
C1054 H1070 0.931 . S
C1055 C1054 1.391 . S
C1055 C1059 1.376 . S
C1056 C1054 1.394 . S
C1056 C1057 1.369 . S
C1056 C1060 1.531 1_565 S
C1057 C1056 1.369 . S
C1057 C1058 1.410 . S
C1057 C1065 1.503 . S
C1058 C1057 1.410 . S
C1058 C1059 1.392 . S
C1058 C1061 1.511 . S
C1059 C1055 1.376 . S
C1059 C1058 1.392 . S
C1059 H1071 0.929 . S
C1060 C1056 1.531 1_545 S
C1060 H1072 0.960 . S
C1060 H1073 0.962 . S
C1060 H1074 0.960 . S
C1061 C1058 1.511 . S
C1061 H1075 0.961 . S
C1061 H1076 0.961 . S
C1061 H1077 0.961 . S
C1062 C1063 1.370 . S
C1062 C1064 1.363 . S
C1062 H1078 0.931 . S
C1063 C1062 1.370 . S
C1063 C1067 1.408 1_545 S
C1064 C1062 1.363 . S
C1064 C1065 1.370 1_545 S
C1064 C1068 1.524 . S
C1065 C1057 1.503 . S
C1065 C1064 1.370 1_565 S
C1065 C1066 1.403 . S
C1066 C1065 1.403 . S
C1066 C1067 1.404 . S
C1066 C1069 1.539 . S
C1067 C1063 1.408 1_565 S
C1067 C1066 1.404 . S
C1067 H1079 0.930 . S
C1068 C1064 1.524 . S
C1068 H1080 0.956 . S
C1068 H1081 0.961 1_545 S
C1068 H1082 0.961 . S
C1069 C1066 1.539 . S
C1069 H1083 0.958 . S
C1069 H1084 0.961 . S
C1069 H1085 0.960 . S
H1070 C1054 0.931 . S
H1071 C1059 0.929 . S
H1072 C1060 0.960 . S
H1073 C1060 0.962 . S
H1074 C1060 0.960 . S
H1075 C1061 0.961 . S
H1076 C1061 0.961 . S
H1077 C1061 0.961 . S
H1078 C1062 0.931 . S
H1079 C1067 0.930 . S
H1080 C1068 0.956 . S
H1081 C1068 0.961 1_565 S
H1082 C1068 0.961 . S
H1083 C1069 0.958 . S
H1084 C1069 0.961 . S
H1085 C1069 0.960 . S
C1086 C1087 1.391 . S
C1086 C1088 1.394 . S
C1086 H1102 0.931 . S
C1087 C1086 1.391 . S
C1087 C1091 1.376 . S
C1088 C1086 1.394 . S
C1088 C1089 1.369 . S
C1088 C1092 1.531 . S
C1089 C1088 1.369 . S
C1089 C1090 1.410 . S
C1089 C1097 1.503 . S
C1090 C1089 1.410 . S
C1090 C1091 1.392 . S
C1090 C1093 1.511 . S
C1091 C1087 1.376 . S
C1091 C1090 1.392 . S
C1091 H1103 0.929 . S
C1092 C1088 1.531 . S
C1092 H1104 0.960 . S
C1092 H1105 0.962 . S
C1092 H1106 0.960 . S
C1093 C1090 1.511 . S
C1093 H1107 0.961 . S
C1093 H1108 0.961 . S
C1093 H1109 0.961 . S
C1094 C1095 1.370 . S
C1094 C1096 1.363 . S
C1094 H1110 0.931 . S
C1095 C1094 1.370 . S
C1095 C1099 1.408 . S
C1096 C1094 1.363 . S
C1096 C1097 1.370 . S
C1096 C1100 1.524 . S
C1097 C1089 1.503 . S
C1097 C1096 1.370 . S
C1097 C1098 1.403 . S
C1098 C1097 1.403 . S
C1098 C1099 1.404 . S
C1098 C1101 1.539 . S
C1099 C1095 1.408 . S
C1099 C1098 1.404 . S
C1099 H1111 0.930 . S
C1100 C1096 1.524 . S
C1100 H1112 0.956 . S
C1100 H1113 0.961 . S
C1100 H1114 0.961 . S
C1101 C1098 1.539 . S
C1101 H1115 0.958 . S
C1101 H1116 0.961 . S
C1101 H1117 0.960 . S
H1102 C1086 0.931 . S
H1103 C1091 0.929 . S
H1104 C1092 0.960 . S
H1105 C1092 0.962 . S
H1106 C1092 0.960 . S
H1107 C1093 0.961 . S
H1108 C1093 0.961 . S
H1109 C1093 0.961 . S
H1110 C1094 0.931 . S
H1111 C1099 0.930 . S
H1112 C1100 0.956 . S
H1113 C1100 0.961 . S
H1114 C1100 0.961 . S
H1115 C1101 0.958 . S
H1116 C1101 0.961 . S
H1117 C1101 0.960 . S
C1118 C1119 1.391 1_554 S
C1118 C1120 1.394 . S
C1118 H1134 0.931 . S
C1119 C1118 1.391 1_556 S
C1119 C1123 1.376 . S
C1120 C1118 1.394 . S
C1120 C1121 1.369 . S
C1120 C1124 1.531 . S
C1121 C1120 1.369 . S
C1121 C1122 1.415 1_554 S
C1121 C1129 1.503 . S
C1122 C1121 1.415 1_556 S
C1122 C1123 1.415 . S
C1122 C1125 1.484 1_655 S
C1123 C1119 1.376 . S
C1123 C1122 1.415 . S
C1123 H1135 0.928 1_655 S
C1124 C1120 1.531 . S
C1124 H1136 0.960 . S
C1124 H1137 0.962 . S
C1124 H1138 0.960 . S
C1125 C1122 1.484 1_455 S
C1125 H1139 0.961 . S
C1125 H1140 0.961 . S
C1125 H1141 0.961 . S
C1126 C1127 1.370 . S
C1126 C1128 1.363 . S
C1126 H1142 0.931 . S
C1127 C1126 1.370 . S
C1127 C1131 1.440 . S
C1128 C1126 1.363 . S
C1128 C1129 1.370 1_455 S
C1128 C1132 1.524 . S
C1129 C1121 1.503 . S
C1129 C1128 1.370 1_655 S
C1129 C1130 1.403 . S
C1130 C1129 1.403 . S
C1130 C1131 1.349 1_655 S
C1130 C1133 1.539 1_554 S
C1131 C1127 1.440 . S
C1131 C1130 1.349 1_455 S
C1131 H1143 0.985 1_455 S
C1132 C1128 1.524 . S
C1132 H1144 0.956 1_455 S
C1132 H1145 0.961 . S
C1132 H1146 0.961 . S
C1133 C1130 1.539 1_556 S
C1133 H1147 0.958 . S
C1133 H1148 0.961 . S
C1133 H1149 0.960 . S
H1134 C1118 0.931 . S
H1135 C1123 0.928 1_455 S
H1136 C1124 0.960 . S
H1137 C1124 0.962 . S
H1138 C1124 0.960 . S
H1139 C1125 0.961 . S
H1140 C1125 0.961 . S
H1141 C1125 0.961 . S
H1142 C1126 0.931 . S
H1143 C1131 0.985 1_655 S
H1144 C1132 0.956 1_655 S
H1145 C1132 0.961 . S
H1146 C1132 0.961 . S
H1147 C1133 0.958 . S
H1148 C1133 0.961 . S
H1149 C1133 0.960 . S
C1150 C1151 1.391 . S
C1150 C1152 1.394 1_556 S
C1150 H1166 0.931 . S
C1151 C1150 1.391 . S
C1151 C1155 1.376 1_556 S
C1152 C1150 1.394 1_554 S
C1152 C1153 1.369 . S
C1152 C1156 1.531 . S
C1153 C1152 1.369 . S
C1153 C1154 1.410 . S
C1153 C1161 1.503 . S
C1154 C1153 1.410 . S
C1154 C1155 1.392 . S
C1154 C1157 1.511 . S
C1155 C1151 1.376 1_554 S
C1155 C1154 1.392 . S
C1155 H1167 0.929 . S
C1156 C1152 1.531 . S
C1156 H1168 0.960 . S
C1156 H1169 0.962 1_554 S
C1156 H1170 0.960 . S
C1157 C1154 1.511 . S
C1157 H1171 0.961 . S
C1157 H1172 0.961 . S
C1157 H1173 0.961 . S
C1158 C1159 1.370 . S
C1158 C1160 1.363 . S
C1158 H1174 0.931 . S
C1159 C1158 1.370 . S
C1159 C1163 1.408 . S
C1160 C1158 1.363 . S
C1160 C1161 1.370 . S
C1160 C1164 1.524 1_554 S
C1161 C1153 1.503 . S
C1161 C1160 1.370 . S
C1161 C1162 1.403 . S
C1162 C1161 1.403 . S
C1162 C1163 1.404 . S
C1162 C1165 1.539 . S
C1163 C1159 1.408 . S
C1163 C1162 1.404 . S
C1163 H1175 0.930 . S
C1164 C1160 1.524 1_556 S
C1164 H1176 0.956 . S
C1164 H1177 0.961 . S
C1164 H1178 0.961 . S
C1165 C1162 1.539 . S
C1165 H1179 0.958 . S
C1165 H1180 0.961 . S
C1165 H1181 0.960 . S
H1166 C1150 0.931 . S
H1167 C1155 0.929 . S
H1168 C1156 0.960 . S
H1169 C1156 0.962 1_556 S
H1170 C1156 0.960 . S
H1171 C1157 0.961 . S
H1172 C1157 0.961 . S
H1173 C1157 0.961 . S
H1174 C1158 0.931 . S
H1175 C1163 0.930 . S
H1176 C1164 0.956 . S
H1177 C1164 0.961 . S
H1178 C1164 0.961 . S
H1179 C1165 0.958 . S
H1180 C1165 0.961 . S
H1181 C1165 0.960 . S
C1182 C1183 1.391 . S
C1182 C1184 1.394 . S
C1182 H1198 0.931 . S
C1183 C1182 1.391 . S
C1183 C1187 1.376 . S
C1184 C1182 1.394 . S
C1184 C1185 1.369 . S
C1184 C1188 1.531 . S
C1185 C1184 1.369 . S
C1185 C1186 1.410 . S
C1185 C1193 1.503 . S
C1186 C1185 1.410 . S
C1186 C1187 1.392 . S
C1186 C1189 1.511 1_655 S
C1187 C1183 1.376 . S
C1187 C1186 1.392 . S
C1187 H1199 0.929 . S
C1188 C1184 1.531 . S
C1188 H1200 0.960 . S
C1188 H1201 0.962 . S
C1188 H1202 0.960 . S
C1189 C1186 1.511 1_455 S
C1189 H1203 0.961 . S
C1189 H1204 0.961 . S
C1189 H1205 0.961 . S
C1190 C1191 1.370 . S
C1190 C1192 1.362 . S
C1190 H1206 0.931 . S
C1191 C1190 1.370 . S
C1191 C1195 1.408 1_455 S
C1192 C1190 1.362 . S
C1192 C1193 1.365 1_455 S
C1192 C1196 1.532 . S
C1193 C1185 1.503 . S
C1193 C1192 1.365 1_655 S
C1193 C1194 1.403 . S
C1194 C1193 1.403 . S
C1194 C1195 1.404 . S
C1194 C1197 1.539 . S
C1195 C1191 1.408 1_655 S
C1195 C1194 1.404 . S
C1195 H1207 0.930 . S
C1196 C1192 1.532 . S
C1196 H1208 0.956 1_455 S
C1196 H1209 0.961 . S
C1196 H1210 0.961 . S
C1197 C1194 1.539 . S
C1197 H1211 0.958 . S
C1197 H1212 0.961 . S
C1197 H1213 0.960 . S
H1198 C1182 0.931 . S
H1199 C1187 0.929 . S
H1200 C1188 0.960 . S
H1201 C1188 0.962 . S
H1202 C1188 0.960 . S
H1203 C1189 0.961 . S
H1204 C1189 0.961 . S
H1205 C1189 0.961 . S
H1206 C1190 0.931 . S
H1207 C1195 0.930 . S
H1208 C1196 0.956 1_655 S
H1209 C1196 0.961 . S
H1210 C1196 0.961 . S
H1211 C1197 0.958 . S
H1212 C1197 0.961 . S
H1213 C1197 0.960 . S
C1214 C1215 1.391 . S
C1214 C1216 1.394 . S
C1214 H1230 0.931 . S
C1215 C1214 1.391 . S
C1215 C1219 1.376 . S
C1216 C1214 1.394 . S
C1216 C1217 1.369 . S
C1216 C1220 1.531 . S
C1217 C1216 1.369 . S
C1217 C1218 1.410 . S
C1217 C1225 1.503 . S
C1218 C1217 1.410 . S
C1218 C1219 1.392 . S
C1218 C1221 1.511 . S
C1219 C1215 1.376 . S
C1219 C1218 1.392 . S
C1219 H1231 0.929 . S
C1220 C1216 1.531 . S
C1220 H1232 0.960 . S
C1220 H1233 0.962 . S
C1220 H1234 0.960 . S
C1221 C1218 1.511 . S
C1221 H1235 0.961 . S
C1221 H1236 0.961 . S
C1221 H1237 0.961 . S
C1222 C1223 1.370 . S
C1222 C1224 1.363 . S
C1222 H1238 0.931 . S
C1223 C1222 1.370 . S
C1223 C1227 1.408 . S
C1224 C1222 1.363 . S
C1224 C1225 1.370 . S
C1224 C1228 1.524 . S
C1225 C1217 1.503 . S
C1225 C1224 1.370 . S
C1225 C1226 1.403 . S
C1226 C1225 1.403 . S
C1226 C1227 1.404 . S
C1226 C1229 1.539 . S
C1227 C1223 1.408 . S
C1227 C1226 1.404 . S
C1227 H1239 0.930 . S
C1228 C1224 1.524 . S
C1228 H1240 0.956 . S
C1228 H1241 0.961 . S
C1228 H1242 0.961 . S
C1229 C1226 1.539 . S
C1229 H1243 0.958 . S
C1229 H1244 0.961 . S
C1229 H1245 0.960 . S
H1230 C1214 0.931 . S
H1231 C1219 0.929 . S
H1232 C1220 0.960 . S
H1233 C1220 0.962 . S
H1234 C1220 0.960 . S
H1235 C1221 0.961 . S
H1236 C1221 0.961 . S
H1237 C1221 0.961 . S
H1238 C1222 0.931 . S
H1239 C1227 0.930 . S
H1240 C1228 0.956 . S
H1241 C1228 0.961 . S
H1242 C1228 0.961 . S
H1243 C1229 0.958 . S
H1244 C1229 0.961 . S
H1245 C1229 0.960 . S
C1246 C1247 1.391 . S
C1246 C1248 1.394 . S
C1246 H1262 0.931 . S
C1247 C1246 1.391 . S
C1247 C1251 1.376 . S
C1248 C1246 1.394 . S
C1248 C1249 1.369 . S
C1248 C1252 1.531 . S
C1249 C1248 1.369 . S
C1249 C1250 1.410 . S
C1249 C1257 1.503 . S
C1250 C1249 1.410 . S
C1250 C1251 1.392 . S
C1250 C1253 1.511 . S
C1251 C1247 1.376 . S
C1251 C1250 1.392 . S
C1251 H1263 0.929 . S
C1252 C1248 1.531 . S
C1252 H1264 0.960 . S
C1252 H1265 0.962 . S
C1252 H1266 0.960 . S
C1253 C1250 1.511 . S
C1253 H1267 0.961 . S
C1253 H1268 0.961 . S
C1253 H1269 0.961 . S
C1254 C1255 1.370 . S
C1254 C1256 1.363 . S
C1254 H1270 0.931 . S
C1255 C1254 1.370 . S
C1255 C1259 1.408 . S
C1256 C1254 1.363 . S
C1256 C1257 1.370 . S
C1256 C1260 1.524 . S
C1257 C1249 1.503 . S
C1257 C1256 1.370 . S
C1257 C1258 1.403 . S
C1258 C1257 1.403 . S
C1258 C1259 1.404 . S
C1258 C1261 1.539 . S
C1259 C1255 1.408 . S
C1259 C1258 1.404 . S
C1259 H1271 0.930 . S
C1260 C1256 1.524 . S
C1260 H1272 0.956 . S
C1260 H1273 0.961 . S
C1260 H1274 0.961 . S
C1261 C1258 1.539 . S
C1261 H1275 0.958 . S
C1261 H1276 0.961 . S
C1261 H1277 0.960 . S
H1262 C1246 0.931 . S
H1263 C1251 0.929 . S
H1264 C1252 0.960 . S
H1265 C1252 0.962 . S
H1266 C1252 0.960 . S
H1267 C1253 0.961 . S
H1268 C1253 0.961 . S
H1269 C1253 0.961 . S
H1270 C1254 0.931 . S
H1271 C1259 0.930 . S
H1272 C1260 0.956 . S
H1273 C1260 0.961 . S
H1274 C1260 0.961 . S
H1275 C1261 0.958 . S
H1276 C1261 0.961 . S
H1277 C1261 0.960 . S
C1278 C1279 1.391 1_554 S
C1278 C1280 1.394 1_554 S
C1278 H1294 0.931 . S
C1279 C1278 1.391 1_556 S
C1279 C1283 1.376 . S
C1280 C1278 1.394 1_556 S
C1280 C1281 1.369 . S
C1280 C1284 1.531 1_566 S
C1281 C1280 1.369 . S
C1281 C1282 1.410 . S
C1281 C1289 1.503 . S
C1282 C1281 1.410 . S
C1282 C1283 1.392 . S
C1282 C1285 1.511 . S
C1283 C1279 1.376 . S
C1283 C1282 1.392 . S
C1283 H1295 0.929 . S
C1284 C1280 1.531 1_544 S
C1284 H1296 0.960 . S
C1284 H1297 0.962 1_554 S
C1284 H1298 0.960 . S
C1285 C1282 1.511 . S
C1285 H1299 0.961 . S
C1285 H1300 0.961 . S
C1285 H1301 0.961 . S
C1286 C1287 1.370 . S
C1286 C1288 1.363 . S
C1286 H1302 0.931 . S
C1287 C1286 1.370 . S
C1287 C1291 1.408 . S
C1288 C1286 1.363 . S
C1288 C1289 1.370 1_545 S
C1288 C1292 1.524 . S
C1289 C1281 1.503 . S
C1289 C1288 1.370 1_565 S
C1289 C1290 1.403 . S
C1290 C1289 1.403 . S
C1290 C1291 1.404 1_565 S
C1290 C1293 1.539 . S
C1291 C1287 1.408 . S
C1291 C1290 1.404 1_545 S
C1291 H1303 0.966 . S
C1292 C1288 1.524 . S
C1292 H1304 0.956 . S
C1292 H1305 0.961 1_545 S
C1292 H1306 0.961 . S
C1293 C1290 1.539 . S
C1293 H1307 0.958 1_556 S
C1293 H1308 0.961 . S
C1293 H1309 0.960 . S
H1294 C1278 0.931 . S
H1295 C1283 0.929 . S
H1296 C1284 0.960 . S
H1297 C1284 0.962 1_556 S
H1298 C1284 0.960 . S
H1299 C1285 0.961 . S
H1300 C1285 0.961 . S
H1301 C1285 0.961 . S
H1302 C1286 0.931 . S
H1303 C1291 0.966 . S
H1304 C1292 0.956 . S
H1305 C1292 0.961 1_565 S
H1306 C1292 0.961 . S
H1307 C1293 0.958 1_554 S
H1308 C1293 0.961 . S
H1309 C1293 0.960 . S
C1310 C1311 1.391 . S
C1310 C1312 1.394 . S
C1310 H1326 0.931 . S
C1311 C1310 1.391 . S
C1311 C1315 1.376 . S
C1312 C1310 1.394 . S
C1312 C1313 1.369 . S
C1312 C1316 1.531 . S
C1313 C1312 1.369 . S
C1313 C1314 1.410 . S
C1313 C1321 1.503 . S
C1314 C1313 1.410 . S
C1314 C1315 1.392 . S
C1314 C1317 1.511 . S
C1315 C1311 1.376 . S
C1315 C1314 1.392 . S
C1315 H1327 0.929 . S
C1316 C1312 1.531 . S
C1316 H1328 0.960 . S
C1316 H1329 0.962 . S
C1316 H1330 0.960 . S
C1317 C1314 1.511 . S
C1317 H1331 0.961 . S
C1317 H1332 0.961 . S
C1317 H1333 0.961 1_556 S
C1318 C1319 1.370 . S
C1318 C1320 1.363 . S
C1318 H1334 0.931 . S
C1319 C1318 1.370 . S
C1319 C1323 1.408 1_556 S
C1320 C1318 1.363 . S
C1320 C1321 1.370 . S
C1320 C1324 1.524 . S
C1321 C1313 1.503 . S
C1321 C1320 1.370 . S
C1321 C1322 1.403 1_556 S
C1322 C1321 1.403 1_554 S
C1322 C1323 1.404 . S
C1322 C1325 1.539 . S
C1323 C1319 1.408 1_554 S
C1323 C1322 1.404 . S
C1323 H1335 0.930 . S
C1324 C1320 1.524 . S
C1324 H1336 0.956 . S
C1324 H1337 0.961 . S
C1324 H1338 0.961 . S
C1325 C1322 1.539 . S
C1325 H1339 0.958 . S
C1325 H1340 0.961 . S
C1325 H1341 0.960 . S
H1326 C1310 0.931 . S
H1327 C1315 0.929 . S
H1328 C1316 0.960 . S
H1329 C1316 0.962 . S
H1330 C1316 0.960 . S
H1331 C1317 0.961 . S
H1332 C1317 0.961 . S
H1333 C1317 0.961 1_554 S
H1334 C1318 0.931 . S
H1335 C1323 0.930 . S
H1336 C1324 0.956 . S
H1337 C1324 0.961 . S
H1338 C1324 0.961 . S
H1339 C1325 0.958 . S
H1340 C1325 0.961 . S
H1341 C1325 0.960 . S
C1342 C1343 1.391 . S
C1342 C1344 1.394 . S
C1342 H1358 0.931 . S
C1343 C1342 1.391 . S
C1343 C1347 1.376 . S
C1344 C1342 1.394 . S
C1344 C1345 1.369 . S
C1344 C1348 1.531 . S
C1345 C1344 1.369 . S
C1345 C1346 1.410 . S
C1345 C1353 1.503 . S
C1346 C1345 1.410 . S
C1346 C1347 1.392 . S
C1346 C1349 1.511 . S
C1347 C1343 1.376 . S
C1347 C1346 1.392 . S
C1347 H1359 0.929 . S
C1348 C1344 1.531 . S
C1348 H1360 0.960 . S
C1348 H1361 0.962 . S
C1348 H1362 0.960 . S
C1349 C1346 1.511 . S
C1349 H1363 0.961 . S
C1349 H1364 0.961 . S
C1349 H1365 0.961 . S
C1350 C1351 1.370 . S
C1350 C1352 1.363 . S
C1350 H1366 0.931 . S
C1351 C1350 1.370 . S
C1351 C1355 1.408 . S
C1352 C1350 1.363 . S
C1352 C1353 1.370 . S
C1352 C1356 1.524 . S
C1353 C1345 1.503 . S
C1353 C1352 1.370 . S
C1353 C1354 1.403 . S
C1354 C1353 1.403 . S
C1354 C1355 1.404 . S
C1354 C1357 1.539 . S
C1355 C1351 1.408 . S
C1355 C1354 1.404 . S
C1355 H1367 0.930 . S
C1356 C1352 1.524 . S
C1356 H1368 0.956 . S
C1356 H1369 0.961 . S
C1356 H1370 0.961 . S
C1357 C1354 1.539 . S
C1357 H1371 0.958 . S
C1357 H1372 0.961 . S
C1357 H1373 0.960 . S
H1358 C1342 0.931 . S
H1359 C1347 0.929 . S
H1360 C1348 0.960 . S
H1361 C1348 0.962 . S
H1362 C1348 0.960 . S
H1363 C1349 0.961 . S
H1364 C1349 0.961 . S
H1365 C1349 0.961 . S
H1366 C1350 0.931 . S
H1367 C1355 0.930 . S
H1368 C1356 0.956 . S
H1369 C1356 0.961 . S
H1370 C1356 0.961 . S
H1371 C1357 0.958 . S
H1372 C1357 0.961 . S
H1373 C1357 0.960 . S
C1374 C1375 1.391 . S
C1374 C1376 1.394 1_565 S
C1374 H1390 0.931 . S
C1375 C1374 1.391 . S
C1375 C1379 1.376 . S
C1376 C1374 1.394 1_545 S
C1376 C1377 1.369 . S
C1376 C1380 1.531 . S
C1377 C1376 1.369 . S
C1377 C1378 1.410 . S
C1377 C1385 1.503 . S
C1378 C1377 1.410 . S
C1378 C1379 1.392 1_545 S
C1378 C1381 1.511 . S
C1379 C1375 1.376 . S
C1379 C1378 1.392 1_565 S
C1379 H1391 0.929 . S
C1380 C1376 1.531 . S
C1380 H1392 0.960 . S
C1380 H1393 0.962 . S
C1380 H1394 0.960 . S
C1381 C1378 1.511 . S
C1381 H1395 0.961 . S
C1381 H1396 0.961 . S
C1381 H1397 0.961 . S
C1382 C1383 1.370 . S
C1382 C1384 1.363 . S
C1382 H1398 0.931 . S
C1383 C1382 1.370 . S
C1383 C1387 1.408 . S
C1384 C1382 1.363 . S
C1384 C1385 1.370 . S
C1384 C1388 1.524 . S
C1385 C1377 1.503 . S
C1385 C1384 1.370 . S
C1385 C1386 1.403 . S
C1386 C1385 1.403 . S
C1386 C1387 1.404 . S
C1386 C1389 1.539 . S
C1387 C1383 1.408 . S
C1387 C1386 1.404 . S
C1387 H1399 0.930 . S
C1388 C1384 1.524 . S
C1388 H1400 0.956 . S
C1388 H1401 0.961 . S
C1388 H1402 0.961 . S
C1389 C1386 1.539 . S
C1389 H1403 0.958 . S
C1389 H1404 0.961 . S
C1389 H1405 0.960 . S
H1390 C1374 0.931 . S
H1391 C1379 0.929 . S
H1392 C1380 0.960 . S
H1393 C1380 0.962 . S
H1394 C1380 0.960 . S
H1395 C1381 0.961 . S
H1396 C1381 0.961 . S
H1397 C1381 0.961 . S
H1398 C1382 0.931 . S
H1399 C1387 0.930 . S
H1400 C1388 0.956 . S
H1401 C1388 0.961 . S
H1402 C1388 0.961 . S
H1403 C1389 0.958 . S
H1404 C1389 0.961 . S
H1405 C1389 0.960 . S
C1406 C1407 1.391 . S
C1406 C1408 1.394 . S
C1406 H1422 0.931 . S
C1407 C1406 1.391 . S
C1407 C1411 1.376 . S
C1408 C1406 1.394 . S
C1408 C1409 1.369 . S
C1408 C1412 1.531 . S
C1409 C1408 1.369 . S
C1409 C1410 1.410 . S
C1409 C1417 1.503 . S
C1410 C1409 1.410 . S
C1410 C1411 1.392 . S
C1410 C1413 1.511 . S
C1411 C1407 1.376 . S
C1411 C1410 1.392 . S
C1411 H1423 0.929 . S
C1412 C1408 1.531 . S
C1412 H1424 0.960 . S
C1412 H1425 0.962 . S
C1412 H1426 0.960 . S
C1413 C1410 1.511 . S
C1413 H1427 0.961 . S
C1413 H1428 0.961 . S
C1413 H1429 0.961 . S
C1414 C1415 1.326 1_455 S
C1414 C1416 1.418 . S
C1414 H1430 0.924 1_455 S
C1415 C1414 1.326 1_655 S
C1415 C1419 1.408 1_655 S
C1416 C1414 1.418 . S
C1416 C1417 1.370 . S
C1416 C1420 1.524 . S
C1417 C1409 1.503 . S
C1417 C1416 1.370 . S
C1417 C1418 1.403 . S
C1418 C1417 1.403 . S
C1418 C1419 1.404 . S
C1418 C1421 1.539 . S
C1419 C1415 1.408 1_455 S
C1419 C1418 1.404 . S
C1419 H1431 0.930 . S
C1420 C1416 1.524 . S
C1420 H1432 0.956 . S
C1420 H1433 0.961 . S
C1420 H1434 0.961 . S
C1421 C1418 1.539 . S
C1421 H1435 0.958 . S
C1421 H1436 0.961 . S
C1421 H1437 0.960 . S
H1422 C1406 0.931 . S
H1423 C1411 0.929 . S
H1424 C1412 0.960 . S
H1425 C1412 0.962 . S
H1426 C1412 0.960 . S
H1427 C1413 0.961 . S
H1428 C1413 0.961 . S
H1429 C1413 0.961 . S
H1430 C1414 0.924 1_655 S
H1431 C1419 0.930 . S
H1432 C1420 0.956 . S
H1433 C1420 0.961 . S
H1434 C1420 0.961 . S
H1435 C1421 0.958 . S
H1436 C1421 0.961 . S
H1437 C1421 0.960 . S
C1438 C1439 1.391 . S
C1438 C1440 1.394 . S
C1438 H1454 0.931 . S
C1439 C1438 1.391 . S
C1439 C1443 1.376 . S
C1440 C1438 1.394 . S
C1440 C1441 1.369 . S
C1440 C1444 1.531 . S
C1441 C1440 1.369 . S
C1441 C1442 1.410 . S
C1441 C1449 1.503 . S
C1442 C1441 1.410 . S
C1442 C1443 1.392 . S
C1442 C1445 1.511 . S
C1443 C1439 1.376 . S
C1443 C1442 1.392 . S
C1443 H1455 0.929 . S
C1444 C1440 1.531 . S
C1444 H1456 0.960 . S
C1444 H1457 0.962 . S
C1444 H1458 0.960 . S
C1445 C1442 1.511 . S
C1445 H1459 0.961 . S
C1445 H1460 0.961 . S
C1445 H1461 0.961 . S
C1446 C1447 1.370 . S
C1446 C1448 1.363 . S
C1446 H1462 0.931 . S
C1447 C1446 1.370 . S
C1447 C1451 1.408 . S
C1448 C1446 1.363 . S
C1448 C1449 1.370 . S
C1448 C1452 1.524 . S
C1449 C1441 1.503 . S
C1449 C1448 1.370 . S
C1449 C1450 1.403 . S
C1450 C1449 1.403 . S
C1450 C1451 1.404 . S
C1450 C1453 1.539 . S
C1451 C1447 1.408 . S
C1451 C1450 1.404 . S
C1451 H1463 0.930 . S
C1452 C1448 1.524 . S
C1452 H1464 0.956 . S
C1452 H1465 0.961 . S
C1452 H1466 0.961 . S
C1453 C1450 1.539 . S
C1453 H1467 0.958 . S
C1453 H1468 0.961 . S
C1453 H1469 0.960 . S
H1454 C1438 0.931 . S
H1455 C1443 0.929 . S
H1456 C1444 0.960 . S
H1457 C1444 0.962 . S
H1458 C1444 0.960 . S
H1459 C1445 0.961 . S
H1460 C1445 0.961 . S
H1461 C1445 0.961 . S
H1462 C1446 0.931 . S
H1463 C1451 0.930 . S
H1464 C1452 0.956 . S
H1465 C1452 0.961 . S
H1466 C1452 0.961 . S
H1467 C1453 0.958 . S
H1468 C1453 0.961 . S
H1469 C1453 0.960 . S
C1470 C1471 1.370 1_455 S
C1470 C1472 1.394 . S
C1470 H1486 0.931 . S
C1471 C1470 1.370 1_655 S
C1471 C1475 1.346 1_655 S
C1472 C1470 1.394 . S
C1472 C1473 1.369 . S
C1472 C1476 1.531 . S
C1473 C1472 1.369 . S
C1473 C1474 1.410 . S
C1473 C1481 1.503 . S
C1474 C1473 1.410 . S
C1474 C1475 1.392 . S
C1474 C1477 1.511 . S
C1475 C1471 1.346 1_455 S
C1475 C1474 1.392 . S
C1475 H1487 0.929 1_455 S
C1476 C1472 1.531 . S
C1476 H1488 0.960 . S
C1476 H1489 0.962 . S
C1476 H1490 0.960 . S
C1477 C1474 1.511 . S
C1477 H1491 0.961 . S
C1477 H1492 0.961 . S
C1477 H1493 0.961 . S
C1478 C1479 1.370 . S
C1478 C1480 1.363 . S
C1478 H1494 0.931 . S
C1479 C1478 1.370 . S
C1479 C1483 1.408 . S
C1480 C1478 1.363 . S
C1480 C1481 1.370 . S
C1480 C1484 1.524 . S
C1481 C1473 1.503 . S
C1481 C1480 1.370 . S
C1481 C1482 1.403 . S
C1482 C1481 1.403 . S
C1482 C1483 1.404 . S
C1482 C1485 1.539 . S
C1483 C1479 1.408 . S
C1483 C1482 1.404 . S
C1483 H1495 0.930 . S
C1484 C1480 1.524 . S
C1484 H1496 0.956 . S
C1484 H1497 0.961 . S
C1484 H1498 0.961 . S
C1485 C1482 1.539 . S
C1485 H1499 0.958 . S
C1485 H1500 0.961 . S
C1485 H1501 0.960 . S
H1486 C1470 0.931 . S
H1487 C1475 0.929 1_655 S
H1488 C1476 0.960 . S
H1489 C1476 0.962 . S
H1490 C1476 0.960 . S
H1491 C1477 0.961 . S
H1492 C1477 0.961 . S
H1493 C1477 0.961 . S
H1494 C1478 0.931 . S
H1495 C1483 0.930 . S
H1496 C1484 0.956 . S
H1497 C1484 0.961 . S
H1498 C1484 0.961 . S
H1499 C1485 0.958 . S
H1500 C1485 0.961 . S
H1501 C1485 0.960 . S
C1502 C1503 1.391 . S
C1502 C1504 1.394 . S
C1502 H1518 0.931 . S
C1503 C1502 1.391 . S
C1503 C1507 1.376 . S
C1504 C1502 1.394 . S
C1504 C1505 1.369 . S
C1504 C1508 1.531 . S
C1505 C1504 1.369 . S
C1505 C1506 1.410 . S
C1505 C1513 1.503 . S
C1506 C1505 1.410 . S
C1506 C1507 1.392 . S
C1506 C1509 1.511 . S
C1507 C1503 1.376 . S
C1507 C1506 1.392 . S
C1507 H1519 0.929 . S
C1508 C1504 1.531 . S
C1508 H1520 0.960 . S
C1508 H1521 0.962 . S
C1508 H1522 0.960 . S
C1509 C1506 1.511 . S
C1509 H1523 0.961 . S
C1509 H1524 0.961 . S
C1509 H1525 0.961 . S
C1510 C1511 1.370 . S
C1510 C1512 1.363 . S
C1510 H1526 0.931 . S
C1511 C1510 1.370 . S
C1511 C1515 1.408 . S
C1512 C1510 1.363 . S
C1512 C1513 1.370 . S
C1512 C1516 1.524 . S
C1513 C1505 1.503 . S
C1513 C1512 1.370 . S
C1513 C1514 1.403 . S
C1514 C1513 1.403 . S
C1514 C1515 1.404 . S
C1514 C1517 1.539 . S
C1515 C1511 1.408 . S
C1515 C1514 1.404 . S
C1515 H1527 0.930 . S
C1516 C1512 1.524 . S
C1516 H1528 0.956 . S
C1516 H1529 0.961 . S
C1516 H1530 0.961 . S
C1517 C1514 1.539 . S
C1517 H1531 0.958 . S
C1517 H1532 0.961 . S
C1517 H1533 0.960 . S
H1518 C1502 0.931 . S
H1519 C1507 0.929 . S
H1520 C1508 0.960 . S
H1521 C1508 0.962 . S
H1522 C1508 0.960 . S
H1523 C1509 0.961 . S
H1524 C1509 0.961 . S
H1525 C1509 0.961 . S
H1526 C1510 0.931 . S
H1527 C1515 0.930 . S
H1528 C1516 0.956 . S
H1529 C1516 0.961 . S
H1530 C1516 0.961 . S
H1531 C1517 0.958 . S
H1532 C1517 0.961 . S
H1533 C1517 0.960 . S
C1534 C1535 1.391 . S
C1534 C1536 1.394 1_565 S
C1534 H1550 0.931 . S
C1535 C1534 1.391 . S
C1535 C1539 1.373 . S
C1536 C1534 1.394 1_545 S
C1536 C1537 1.369 . S
C1536 C1540 1.531 . S
C1537 C1536 1.369 . S
C1537 C1538 1.410 . S
C1537 C1545 1.503 . S
C1538 C1537 1.410 . S
C1538 C1539 1.395 1_545 S
C1538 C1541 1.511 . S
C1539 C1535 1.373 . S
C1539 C1538 1.395 1_565 S
C1539 H1551 0.929 . S
C1540 C1536 1.531 . S
C1540 H1552 0.960 . S
C1540 H1553 0.962 . S
C1540 H1554 0.960 . S
C1541 C1538 1.511 . S
C1541 H1555 0.961 . S
C1541 H1556 0.961 . S
C1541 H1557 0.961 . S
C1542 C1543 1.370 . S
C1542 C1544 1.363 . S
C1542 H1558 0.931 . S
C1543 C1542 1.370 . S
C1543 C1547 1.408 . S
C1544 C1542 1.363 . S
C1544 C1545 1.370 . S
C1544 C1548 1.524 . S
C1545 C1537 1.503 . S
C1545 C1544 1.370 . S
C1545 C1546 1.403 . S
C1546 C1545 1.403 . S
C1546 C1547 1.404 . S
C1546 C1549 1.539 . S
C1547 C1543 1.408 . S
C1547 C1546 1.404 . S
C1547 H1559 0.930 . S
C1548 C1544 1.524 . S
C1548 H1560 0.956 . S
C1548 H1561 0.961 . S
C1548 H1562 0.961 . S
C1549 C1546 1.539 . S
C1549 H1563 0.958 . S
C1549 H1564 0.961 . S
C1549 H1565 0.960 . S
H1550 C1534 0.931 . S
H1551 C1539 0.929 . S
H1552 C1540 0.960 . S
H1553 C1540 0.962 . S
H1554 C1540 0.960 . S
H1555 C1541 0.961 . S
H1556 C1541 0.961 . S
H1557 C1541 0.961 . S
H1558 C1542 0.931 . S
H1559 C1547 0.930 . S
H1560 C1548 0.956 . S
H1561 C1548 0.961 . S
H1562 C1548 0.961 . S
H1563 C1549 0.958 . S
H1564 C1549 0.961 . S
H1565 C1549 0.960 . S
C415 C85 1.630 . S
C423 C16 1.616 . S
C447 N94 1.639 . S
C455 N25 1.599 . S
C479 N48 1.606 . S
C487 N117 1.589 . S
C511 C62 1.737 . S
C519 C131 1.737 . S
C543 N2 1.664 . S
C551 N71 1.713 . S
C575 C108 1.754 . S
C583 C39 1.744 . S
C607 N209 1.830 . S
C615 C154 1.863 . S
C639 C177 1.864 . S
C647 N232 1.772 . S
C671 C200 1.799 . S
C679 N255 1.739 . S
C703 C269 1.569 1_556 S
C711 N186 1.566 . S
C735 C223 1.584 . S
C743 N140 1.530 . S
C767 C246 1.669 1_556 S
C775 N163 1.582 . S
C799 C292 1.670 . S
C807 C361 1.644 . S
C831 N301 1.612 . S
C839 N370 1.665 . S
C863 N324 1.630 . S
C871 N393 1.635 . S
C895 C407 1.748 . S
C903 C338 1.785 . S
C927 N347 1.709 . S
C935 N278 1.752 . S
C959 C384 1.781 . S
C967 C315 1.772 . S
C991 C7 1.548 . S
C999 N173 1.540 . S
C1023 N35 1.554 . S
C1031 N196 1.543 . S
C1055 N150 1.511 . S
C1063 N58 1.536 . S
C1087 C53 1.658 . S
C1095 N311 1.630 . S
C1119 N334 1.606 . S
C1127 N12 1.627 . S
C1151 C283 1.610 . S
C1159 C30 1.609 . S
C1183 C375 1.601 . S
C1191 C76 1.602 . S
C1215 N104 1.636 . S
C1223 C398 1.634 . S
C1247 N357 1.613 . S
C1255 N127 1.617 . S
C1279 N242 1.616 . S
C1287 C122 1.649 . S
C1311 N81 1.595 . S
C1319 N265 1.612 1_556 S
C1343 C99 1.646 . S
C1351 N219 1.631 . S
C1375 C145 1.711 . S
C1383 C306 1.702 . S
C1407 C168 1.682 . S
C1415 C329 1.691 . S
C1439 C191 1.703 . S
C1447 N288 1.689 . S
C1471 N380 1.642 . S
C1479 C260 1.621 . S
C1503 N403 1.619 . S
C1511 C214 1.621 . S
C1535 C237 1.597 . S
C1543 C352 1.606 . S
