# Generated by pormake.
# Topology vmg, (6)-cn, num edge types: 1
# Building blocks:
#     Node 0, Type 0, BuildingBlock: OJICUG_clean_sbu_0, # of connection points: 6
#     Node 1, Type 0, BuildingBlock: OJICUG_clean_sbu_0, # of connection points: 6
#     Node 2, Type 0, BuildingBlock: OJICUG_clean_sbu_0, # of connection points: 6
#     Node 3, Type 0, BuildingBlock: OJICUG_clean_sbu_0, # of connection points: 6
#     Node 4, Type 0, BuildingBlock: OJICUG_clean_sbu_0, # of connection points: 6
#     Node 5, Type 0, BuildingBlock: OJICUG_clean_sbu_0, # of connection points: 6
#     Node 6, Type 0, BuildingBlock: OJICUG_clean_sbu_0, # of connection points: 6
#     Node 7, Type 0, BuildingBlock: OJICUG_clean_sbu_0, # of connection points: 6
#     Edge 8, Type (0, 0), BuildingBlock: MIFKUJ_clean_linker_0, # of connection points: 2
#     Edge 9, Type (0, 0), BuildingBlock: MIFKUJ_clean_linker_0, # of connection points: 2
#     Edge 10, Type (0, 0), BuildingBlock: MIFKUJ_clean_linker_0, # of connection points: 2
#     Edge 11, Type (0, 0), BuildingBlock: MIFKUJ_clean_linker_0, # of connection points: 2
#     Edge 12, Type (0, 0), BuildingBlock: MIFKUJ_clean_linker_0, # of connection points: 2
#     Edge 13, Type (0, 0), BuildingBlock: MIFKUJ_clean_linker_0, # of connection points: 2
#     Edge 14, Type (0, 0), BuildingBlock: MIFKUJ_clean_linker_0, # of connection points: 2
#     Edge 15, Type (0, 0), BuildingBlock: MIFKUJ_clean_linker_0, # of connection points: 2
#     Edge 16, Type (0, 0), BuildingBlock: MIFKUJ_clean_linker_0, # of connection points: 2
#     Edge 17, Type (0, 0), BuildingBlock: MIFKUJ_clean_linker_0, # of connection points: 2
#     Edge 18, Type (0, 0), BuildingBlock: MIFKUJ_clean_linker_0, # of connection points: 2
#     Edge 19, Type (0, 0), BuildingBlock: MIFKUJ_clean_linker_0, # of connection points: 2
#     Edge 20, Type (0, 0), BuildingBlock: MIFKUJ_clean_linker_0, # of connection points: 2
#     Edge 21, Type (0, 0), BuildingBlock: MIFKUJ_clean_linker_0, # of connection points: 2
#     Edge 22, Type (0, 0), BuildingBlock: MIFKUJ_clean_linker_0, # of connection points: 2
#     Edge 23, Type (0, 0), BuildingBlock: MIFKUJ_clean_linker_0, # of connection points: 2
#     Edge 24, Type (0, 0), BuildingBlock: MIFKUJ_clean_linker_0, # of connection points: 2
#     Edge 25, Type (0, 0), BuildingBlock: MIFKUJ_clean_linker_0, # of connection points: 2
#     Edge 26, Type (0, 0), BuildingBlock: MIFKUJ_clean_linker_0, # of connection points: 2
#     Edge 27, Type (0, 0), BuildingBlock: MIFKUJ_clean_linker_0, # of connection points: 2
#     Edge 28, Type (0, 0), BuildingBlock: MIFKUJ_clean_linker_0, # of connection points: 2
#     Edge 29, Type (0, 0), BuildingBlock: MIFKUJ_clean_linker_0, # of connection points: 2
#     Edge 30, Type (0, 0), BuildingBlock: MIFKUJ_clean_linker_0, # of connection points: 2
#     Edge 31, Type (0, 0), BuildingBlock: MIFKUJ_clean_linker_0, # of connection points: 2
# Relax obj value: 0.217
# Max RMSD: 0.229
# Mean RMSD: 0.229
data_MOF--net-vmg--node1-OJICUG_clean_sbu_0--edge1-MIFKUJ_clean_linker_0
_symmetry_space_group_name_H-M    P1
_symmetry_Int_Tables_number       1
_symmetry_cell_setting            triclinic
loop_
_symmetry_equiv_pos_as_xyz
'x, y, z'
_cell_length_a     38.467884
_cell_length_b     56.286868
_cell_length_c     34.952723
_cell_angle_alpha  90.097646
_cell_angle_beta   108.90239
_cell_angle_gamma 90.040496
loop_
_atom_site_label
_atom_site_type_symbol
_atom_site_fract_x
_atom_site_fract_y
_atom_site_fract_z
_atom_type_partial_charge
Sc0 Sc 0.17048 0.39472 0.10871 0.0
Sc1 Sc 0.22862 0.44348 0.14532 0.0
Sc2 Sc 0.23999 0.39124 0.20378 0.0
O3 O 0.21309 0.40978 0.15264 0.0
C4 C 0.15656 0.37772 0.19034 0.0
C5 C 0.14177 0.44713 0.11549 0.0
C6 C 0.24178 0.44346 0.24024 0.0
C7 C 0.20715 0.42468 0.0544 0.0
C8 C 0.22557 0.35132 0.13421 0.0
C9 C 0.30452 0.41595 0.17962 0.0
O10 O 0.14647 0.38121 0.15234 0.0
O11 O 0.17307 0.45699 0.13072 0.0
O12 O 0.2419 0.42099 0.24445 0.0
O13 O 0.18789 0.40705 0.05848 0.0
O14 O 0.24243 0.35906 0.16972 0.0
O15 O 0.2848 0.43236 0.15833 0.0
O16 O 0.19955 0.36254 0.10901 0.0
O17 O 0.22224 0.43883 0.08313 0.0
O18 O 0.29248 0.40062 0.19892 0.0
O19 O 0.1377 0.42542 0.10526 0.0
O20 O 0.18953 0.38065 0.21317 0.0
O21 O 0.23774 0.45326 0.20653 0.0
Sc22 Sc 0.76378 0.37642 0.29561 0.0
Sc23 Sc 0.7515 0.42817 0.34653 0.0
Sc24 Sc 0.80989 0.38311 0.40051 0.0
O25 O 0.77484 0.39581 0.34762 0.0
C26 C 0.76597 0.33631 0.36046 0.0
C27 C 0.68544 0.39893 0.28596 0.0
C28 C 0.74867 0.40762 0.43057 0.0
C29 C 0.77201 0.42907 0.26534 0.0
C30 C 0.85018 0.36839 0.33726 0.0
C31 C 0.83089 0.43778 0.40807 0.0
O32 O 0.75298 0.34425 0.3245 0.0
O33 O 0.69802 0.41537 0.31171 0.0
O34 O 0.77321 0.3917 0.43462 0.0
O35 O 0.77385 0.40661 0.26153 0.0
O36 O 0.85122 0.37458 0.37268 0.0
O37 O 0.8023 0.44507 0.38083 0.0
O38 O 0.8204 0.3671 0.30778 0.0
O39 O 0.76306 0.43865 0.29359 0.0
O40 O 0.83663 0.41621 0.41823 0.0
O41 O 0.70586 0.38381 0.27666 0.0
O42 O 0.7872 0.34827 0.38945 0.0
O43 O 0.73841 0.42145 0.40034 0.0
Sc44 Sc 0.74434 0.61055 0.78926 0.0
Sc45 Sc 0.74926 0.55593 0.83969 0.0
Sc46 Sc 0.81712 0.59916 0.87912 0.0
O47 O 0.77023 0.58858 0.83604 0.0
C48 C 0.82796 0.62074 0.79906 0.0
C49 C 0.73137 0.56074 0.74415 0.0
C50 C 0.83428 0.54612 0.85831 0.0
C51 C 0.67861 0.58821 0.8147 0.0
C52 C 0.76761 0.6454 0.86687 0.0
C53 C 0.78231 0.56818 0.93363 0.0
O54 O 0.79421 0.62027 0.77797 0.0
O55 O 0.7328 0.54985 0.77627 0.0
O56 O 0.84347 0.56683 0.87265 0.0
O57 O 0.69166 0.60261 0.79485 0.0
O58 O 0.79343 0.63208 0.88767 0.0
O59 O 0.76236 0.55645 0.90366 0.0
O60 O 0.74792 0.64044 0.83059 0.0
O61 O 0.69664 0.57094 0.83511 0.0
O62 O 0.80278 0.58511 0.92982 0.0
O63 O 0.73765 0.58294 0.74355 0.0
O64 O 0.8396 0.61436 0.83583 0.0
O65 O 0.80107 0.53895 0.84494 0.0
Sc66 Sc 0.17539 0.61542 0.5931 0.0
Sc67 Sc 0.23985 0.57397 0.64844 0.0
Sc68 Sc 0.21932 0.62365 0.69768 0.0
O69 O 0.21151 0.60439 0.6463 0.0
C70 C 0.21515 0.66361 0.63242 0.0
C71 C 0.23767 0.5944 0.56225 0.0
C72 C 0.30048 0.60629 0.70737 0.0
C73 C 0.1622 0.5595 0.58929 0.0
C74 C 0.13279 0.62917 0.65362 0.0
C75 C 0.21871 0.57106 0.72968 0.0
O76 O 0.19339 0.65143 0.60406 0.0
O77 O 0.24884 0.58028 0.59199 0.0
O78 O 0.27761 0.61747 0.7199 0.0
O79 O 0.15429 0.58055 0.57658 0.0
O80 O 0.16218 0.63242 0.68299 0.0
O81 O 0.23336 0.56324 0.70442 0.0
O82 O 0.13264 0.6212 0.61954 0.0
O83 O 0.19092 0.554 0.61815 0.0
O84 O 0.20923 0.59275 0.73031 0.0
O85 O 0.21316 0.61006 0.55959 0.0
O86 O 0.22989 0.6557 0.66825 0.0
O87 O 0.29102 0.59139 0.6785 0.0
Sc88 Sc 0.65825 0.89299 0.08446 0.0
Sc89 Sc 0.73321 0.92882 0.13043 0.0
Sc90 Sc 0.72276 0.87468 0.17537 0.0
O91 O 0.70512 0.89857 0.13033 0.0
C92 C 0.63696 0.87026 0.15733 0.0
C93 C 0.64954 0.94602 0.09548 0.0
C94 C 0.73272 0.92545 0.2205 0.0
C95 C 0.70919 0.91931 0.04008 0.0
C96 C 0.69832 0.84351 0.09308 0.0
C97 C 0.7989 0.89261 0.17044 0.0
O98 O 0.62928 0.87577 0.12034 0.0
O99 O 0.68371 0.94962 0.10226 0.0
O100 O 0.73185 0.90271 0.22095 0.0
O101 O 0.6784 0.91113 0.04054 0.0
O102 O 0.71413 0.84561 0.13137 0.0
O103 O 0.78639 0.91271 0.1561 0.0
O104 O 0.67873 0.85982 0.07125 0.0
O105 O 0.73659 0.9211 0.07205 0.0
O106 O 0.77881 0.87621 0.1767 0.0
O107 O 0.63661 0.92556 0.09769 0.0
O108 O 0.66958 0.87036 0.18152 0.0
O109 O 0.73149 0.93757 0.18934 0.0
Sc110 Sc 0.2664 0.88363 0.32515 0.0
Sc111 Sc 0.25381 0.93468 0.37677 0.0
Sc112 Sc 0.33303 0.90165 0.41483 0.0
O113 O 0.28401 0.90628 0.37208 0.0
C114 C 0.29762 0.85053 0.40439 0.0
C115 C 0.19026 0.89721 0.33462 0.0
C116 C 0.28271 0.92208 0.46558 0.0
C117 C 0.25203 0.93598 0.28586 0.0
C118 C 0.35169 0.88291 0.33764 0.0
C119 C 0.33548 0.9553 0.40932 0.0
O120 O 0.27921 0.85334 0.36684 0.0
O121 O 0.20146 0.91734 0.35024 0.0
O122 O 0.31365 0.91632 0.46214 0.0
O123 O 0.25311 0.91332 0.28248 0.0
O124 O 0.36087 0.88769 0.37507 0.0
O125 O 0.3016 0.95673 0.40592 0.0
O126 O 0.31846 0.88218 0.31518 0.0
O127 O 0.25376 0.9465 0.31874 0.0
O128 O 0.34979 0.93611 0.40275 0.0
O129 O 0.21143 0.88207 0.32696 0.0
O130 O 0.31724 0.86681 0.42647 0.0
O131 O 0.25378 0.92345 0.43507 0.0
Sc132 Sc 0.27126 0.12824 0.82469 0.0
Sc133 Sc 0.25179 0.07247 0.85457 0.0
Sc134 Sc 0.32813 0.10339 0.91526 0.0
O135 O 0.28359 0.10168 0.86542 0.0
C136 C 0.35856 0.12637 0.84957 0.0
C137 C 0.25311 0.08404 0.76739 0.0
C138 C 0.33065 0.05113 0.88113 0.0
C139 C 0.19278 0.11165 0.82998 0.0
C140 C 0.29455 0.1559 0.90837 0.0
C141 C 0.27674 0.07476 0.95125 0.0
O142 O 0.32775 0.13528 0.82927 0.0
O143 O 0.23714 0.0747 0.79013 0.0
O144 O 0.34279 0.06735 0.90749 0.0
O145 O 0.21264 0.12387 0.81424 0.0
O146 O 0.31721 0.13982 0.92642 0.0
O147 O 0.26092 0.0652 0.91716 0.0
O148 O 0.27336 0.15394 0.87182 0.0
O149 O 0.20486 0.09362 0.85227 0.0
O150 O 0.2986 0.09226 0.95542 0.0
O151 O 0.2704 0.10362 0.77642 0.0
O152 O 0.36268 0.11337 0.88036 0.0
O153 O 0.29833 0.05083 0.85573 0.0
Sc154 Sc 0.66346 0.09608 0.592 0.0
Sc155 Sc 0.74119 0.06539 0.65193 0.0
Sc156 Sc 0.72339 0.12316 0.67883 0.0
O157 O 0.7096 0.09497 0.64056 0.0
C158 C 0.69765 0.14804 0.593 0.0
C159 C 0.71601 0.06794 0.55499 0.0
C160 C 0.80182 0.10506 0.67625 0.0
C161 C 0.66142 0.04368 0.62503 0.0
C162 C 0.63681 0.12155 0.65841 0.0
C163 C 0.74029 0.08007 0.73984 0.0
O164 O 0.6743 0.13181 0.57738 0.0
O165 O 0.7351 0.05966 0.58916 0.0
O166 O 0.78131 0.11911 0.68784 0.0
O167 O 0.64782 0.06089 0.60168 0.0
O168 O 0.66778 0.13099 0.67632 0.0
O169 O 0.7507 0.06707 0.71585 0.0
O170 O 0.63137 0.1074 0.62877 0.0
O171 O 0.69469 0.04275 0.64776 0.0
O172 O 0.72673 0.10071 0.73028 0.0
O173 O 0.69056 0.08312 0.55088 0.0
O174 O 0.71985 0.14705 0.62913 0.0
O175 O 0.79025 0.08554 0.65819 0.0
H176 H 0.64705 0.36772 0.22678 0.0
H177 H 0.58097 0.36782 0.18997 0.0
H178 H 0.56747 0.42801 0.26041 0.0
H179 H 0.63302 0.42829 0.29686 0.0
H180 H 0.52312 0.36174 0.21467 0.0
H181 H 0.50655 0.46585 0.20509 0.0
H182 H 0.53985 0.5003 0.19062 0.0
H183 H 0.59502 0.45488 0.13002 0.0
H184 H 0.56165 0.42019 0.14351 0.0
H185 H 0.36155 0.39737 0.23988 0.0
H186 H 0.42429 0.39128 0.24015 0.0
H187 H 0.39637 0.42193 0.12082 0.0
H188 H 0.33362 0.42902 0.12117 0.0
H189 H 0.45914 0.43748 0.16331 0.0
H190 H 0.40831 0.36169 0.1364 0.0
H191 H 0.37198 0.32683 0.14327 0.0
H192 H 0.44939 0.31229 0.26037 0.0
H193 H 0.48534 0.34765 0.25521 0.0
C194 C 0.63 0.38099 0.23442 0.0
C195 C 0.64539 0.39807 0.2647 0.0
C196 C 0.5923 0.38102 0.21328 0.0
C197 C 0.56954 0.39821 0.22192 0.0
C198 C 0.58473 0.41495 0.25258 0.0
C199 C 0.62223 0.41495 0.27365 0.0
C200 C 0.52951 0.39838 0.20064 0.0
C201 C 0.50897 0.37815 0.20292 0.0
C202 C 0.51124 0.41949 0.18337 0.0
C203 C 0.53159 0.44036 0.17544 0.0
C204 C 0.52561 0.4632 0.18848 0.0
C205 C 0.54456 0.48278 0.18049 0.0
C206 C 0.56952 0.47977 0.15942 0.0
C207 C 0.57572 0.45717 0.14641 0.0
C208 C 0.55683 0.43754 0.15428 0.0
C209 C 0.36882 0.40287 0.21376 0.0
C210 C 0.34283 0.41364 0.18052 0.0
C211 C 0.40455 0.39917 0.21374 0.0
C212 C 0.41473 0.40553 0.18001 0.0
C213 C 0.38899 0.4167 0.147 0.0
C214 C 0.35329 0.42083 0.14732 0.0
C215 C 0.45287 0.40142 0.18062 0.0
C216 C 0.47305 0.42084 0.17406 0.0
C217 C 0.47058 0.37928 0.19249 0.0
C218 C 0.44962 0.35746 0.19539 0.0
C219 C 0.41756 0.35117 0.16374 0.0
C220 C 0.39697 0.33131 0.16734 0.0
C221 C 0.4085 0.31729 0.20208 0.0
C222 C 0.44055 0.32314 0.2334 0.0
C223 C 0.46103 0.34314 0.2302 0.0
H224 H 0.39254 0.30191 0.20475 0.0
H225 H 0.58393 0.49497 0.15301 0.0
H226 H 0.6222 0.60347 0.75119 0.0
H227 H 0.55991 0.61244 0.74953 0.0
H228 H 0.58759 0.59225 0.87503 0.0
H229 H 0.65002 0.58202 0.87611 0.0
H230 H 0.52327 0.57625 0.836 0.0
H231 H 0.57794 0.65065 0.84473 0.0
H232 H 0.61499 0.68339 0.83145 0.0
H233 H 0.53886 0.69066 0.71127 0.0
H234 H 0.50181 0.65762 0.72346 0.0
H235 H 0.3344 0.6173 0.78673 0.0
H236 H 0.40081 0.62109 0.82158 0.0
H237 H 0.42095 0.60901 0.70869 0.0
H238 H 0.35498 0.60452 0.67397 0.0
H239 H 0.46315 0.64919 0.76536 0.0
H240 H 0.42633 0.56359 0.75777 0.0
H241 H 0.38963 0.53164 0.77432 0.0
H242 H 0.43386 0.54952 0.90037 0.0
H243 H 0.47044 0.5818 0.88439 0.0
C244 C 0.61496 0.6009 0.77839 0.0
C245 C 0.64073 0.5922 0.81381 0.0
C246 C 0.57951 0.60625 0.77758 0.0
C247 C 0.56947 0.60378 0.81256 0.0
C248 C 0.59495 0.59455 0.84786 0.0
C249 C 0.63041 0.58864 0.84841 0.0
C250 C 0.53168 0.60997 0.81092 0.0
C251 C 0.51046 0.59255 0.82168 0.0
C252 C 0.51497 0.63143 0.79287 0.0
C253 C 0.53692 0.65162 0.78522 0.0
C254 C 0.56908 0.65921 0.81548 0.0
C255 C 0.59014 0.6778 0.8081 0.0
C256 C 0.5792 0.68916 0.7706 0.0
C257 C 0.54723 0.68189 0.74038 0.0
C258 C 0.52615 0.66323 0.74755 0.0
C259 C 0.35307 0.61575 0.76937 0.0
C260 C 0.33982 0.61045 0.7278 0.0
C261 C 0.39078 0.61797 0.78924 0.0
C262 C 0.41538 0.61543 0.76749 0.0
C263 C 0.4021 0.61117 0.72574 0.0
C264 C 0.36459 0.60842 0.70608 0.0
C265 C 0.45522 0.6149 0.78814 0.0
C266 C 0.47663 0.63342 0.7811 0.0
C267 C 0.47227 0.5948 0.81039 0.0
C268 C 0.45071 0.57522 0.81988 0.0
C269 C 0.42798 0.5608 0.78896 0.0
C270 C 0.40725 0.54263 0.79823 0.0
C271 C 0.40932 0.5386 0.83836 0.0
C272 C 0.43222 0.55269 0.8693 0.0
C273 C 0.45295 0.57092 0.86016 0.0
H274 H 0.39325 0.52453 0.84549 0.0
H275 H 0.59554 0.70355 0.76493 0.0
H276 H 0.1527 0.86529 0.27735 0.0
H277 H 0.08625 0.86105 0.24797 0.0
H278 H 0.07127 0.91253 0.33295 0.0
H279 H 0.13783 0.91767 0.36132 0.0
H280 H 0.03064 0.8482 0.2679 0.0
H281 H 3e-05 0.94774 0.28952 0.0
H282 H 0.03075 0.98666 0.29435 0.0
H283 H 0.09822 0.9593 0.22773 0.0
H284 H 0.06756 0.92035 0.222 0.0
H285 H 0.84059 0.86454 0.23139 0.0
H286 H 0.90746 0.86177 0.25668 0.0
H287 H 0.91422 0.90855 0.1615 0.0
H288 H 0.84732 0.91239 0.13754 0.0
H289 H 0.95994 0.92275 0.22582 0.0
H290 H 0.9348 0.84679 0.16474 0.0
H291 H 0.90516 0.80753 0.14854 0.0
H292 H 0.95082 0.78683 0.27301 0.0
H293 H 0.98032 0.82611 0.29009 0.0
C294 C 0.13529 0.8755 0.29016 0.0
C295 C 0.15046 0.89209 0.32127 0.0
C296 C 0.09726 0.87301 0.27335 0.0
C297 C 0.07374 0.88685 0.28763 0.0
C298 C 0.08889 0.90214 0.3207 0.0
C299 C 0.12692 0.90499 0.33701 0.0
C300 C 0.03354 0.88641 0.26632 0.0
C301 C 0.01512 0.86448 0.25871 0.0
C302 C 0.01349 0.90758 0.25287 0.0
C303 C 0.03175 0.93107 0.25573 0.0
C304 C 0.02132 0.95007 0.27578 0.0
C305 C 0.03874 0.97213 0.27868 0.0
C306 C 0.0665 0.97543 0.26148 0.0
C307 C 0.0768 0.9567 0.24117 0.0
C308 C 0.05943 0.93463 0.23811 0.0
C309 C 0.85636 0.87396 0.21556 0.0
C310 C 0.83887 0.88874 0.18261 0.0
C311 C 0.8946 0.87228 0.2299 0.0
C312 C 0.916 0.88477 0.2108 0.0
C313 C 0.89837 0.89884 0.1769 0.0
C314 C 0.86017 0.90098 0.16316 0.0
C315 C 0.95671 0.88453 0.22789 0.0
C316 C 0.97531 0.90639 0.2348 0.0
C317 C 0.97705 0.86322 0.23888 0.0
C318 C 0.95954 0.83949 0.22875 0.0
C319 C 0.93833 0.83393 0.18872 0.0
C320 C 0.92157 0.81166 0.17937 0.0
C321 C 0.92605 0.79471 0.20974 0.0
C322 C 0.94736 0.79998 0.24952 0.0
C323 C 0.96414 0.82224 0.25905 0.0
H324 H 0.91305 0.77748 0.20244 0.0
H325 H 0.07998 0.99251 0.26381 0.0
H326 H 0.15038 0.13431 0.76205 0.0
H327 H 0.08369 0.13805 0.73811 0.0
H328 H 0.07883 0.10547 0.84802 0.0
H329 H 0.14557 0.10067 0.87128 0.0
H330 H 0.03242 0.08507 0.78912 0.0
H331 H 0.05843 0.1664 0.82378 0.0
H332 H 0.08781 0.2055 0.82542 0.0
H333 H 0.03936 0.2113 0.69655 0.0
H334 H 0.01008 0.17207 0.69405 0.0
H335 H 0.83928 0.14088 0.72559 0.0
H336 H 0.90565 0.14652 0.75214 0.0
H337 H 0.92077 0.08826 0.67877 0.0
H338 H 0.85438 0.08205 0.65272 0.0
H339 H 0.96085 0.15603 0.72484 0.0
H340 H 0.99203 0.05495 0.73298 0.0
H341 H 0.96155 0.01723 0.73916 0.0
H342 H 0.8947 0.05376 0.79775 0.0
H343 H 0.92516 0.0916 0.79247 0.0
C344 C 0.13517 0.12833 0.78146 0.0
C345 C 0.15317 0.11708 0.81847 0.0
C346 C 0.09698 0.13058 0.7678 0.0
C347 C 0.07612 0.12219 0.79134 0.0
C348 C 0.09428 0.11196 0.8292 0.0
C349 C 0.13242 0.10928 0.84252 0.0
C350 C 0.03535 0.12216 0.77498 0.0
C351 C 0.01688 0.10067 0.77529 0.0
C352 C 0.01481 0.14254 0.75734 0.0
C353 C 0.03229 0.16619 0.75871 0.0
C354 C 0.05425 0.17593 0.79575 0.0
C355 C 0.07085 0.19814 0.79684 0.0
C356 C 0.06552 0.21086 0.7611 0.0
C357 C 0.04349 0.20142 0.72421 0.0
C358 C 0.02684 0.17921 0.72294 0.0
C359 C 0.85661 0.12942 0.71462 0.0
C360 C 0.84148 0.11072 0.6875 0.0
C361 C 0.8946 0.13275 0.72978 0.0
C362 C 0.91815 0.11752 0.71805 0.0
C363 C 0.90306 0.0999 0.68887 0.0
C364 C 0.86509 0.09641 0.67393 0.0
C365 C 0.95839 0.1189 0.73851 0.0
C366 C 0.97661 0.14055 0.73887 0.0
C367 C 0.97868 0.09889 0.75802 0.0
C368 C 0.96063 0.07613 0.76193 0.0
C369 C 0.97094 0.0549 0.74733 0.0
C370 C 0.95366 0.03351 0.75066 0.0
C371 C 0.92613 0.03311 0.76872 0.0
C372 C 0.91594 0.0541 0.78365 0.0
C373 C 0.93319 0.07552 0.78046 0.0
H374 H 0.91275 0.01654 0.77121 0.0
H375 H 0.0784 0.22804 0.76201 0.0
H376 H 0.29321 0.32918 0.15946 0.0
H377 H 0.3115 0.29404 0.12855 0.0
H378 H 0.2009 0.2878 0.04568 0.0
H379 H 0.18257 0.32225 0.07637 0.0
H380 H 0.2276 0.24521 0.07193 0.0
H381 H 0.26951 0.31613 0.02111 0.0
H382 H 0.30562 0.35294 0.02664 0.0
H383 H 0.40566 0.31354 0.07624 0.0
H384 H 0.37008 0.27655 0.0719 0.0
H385 H 0.23564 0.18556 0.89743 0.0
H386 H 0.22975 0.21764 0.94251 0.0
H387 H 0.34155 0.20612 0.01863 0.0
H388 H 0.34758 0.17395 0.97412 0.0
H389 H 0.32203 0.25498 0.00442 0.0
H390 H 0.28046 0.18375 0.05029 0.0
H391 H 0.24447 0.14679 0.04348 0.0
H392 H 0.1442 0.18674 0.00204 0.0
H393 H 0.17961 0.22393 0.0081 0.0
C394 C 0.27275 0.31998 0.13518 0.0
C395 C 0.23652 0.32857 0.12016 0.0
C396 C 0.28326 0.30005 0.11735 0.0
C397 C 0.25762 0.28846 0.08447 0.0
C398 C 0.22116 0.29642 0.07093 0.0
C399 C 0.21077 0.31624 0.08844 0.0
C400 C 0.26827 0.26871 0.06235 0.0
C401 C 0.24821 0.2474 0.05712 0.0
C402 C 0.29576 0.27132 0.04375 0.0
C403 C 0.3171 0.29362 0.04674 0.0
C404 C 0.29919 0.31535 0.03365 0.0
C405 C 0.31956 0.33624 0.03651 0.0
C406 C 0.35791 0.33559 0.05187 0.0
C407 C 0.37596 0.31402 0.06433 0.0
C408 C 0.3557 0.2931 0.06182 0.0
C409 C 0.25911 0.1901 0.92341 0.0
C410 C 0.29198 0.17714 0.93234 0.0
C411 C 0.25567 0.20832 0.94923 0.0
C412 C 0.28514 0.21403 0.98407 0.0
C413 C 0.3185 0.20192 0.99197 0.0
C414 C 0.3218 0.1835 0.96655 0.0
C415 C 0.28056 0.23195 0.01316 0.0
C416 C 0.30181 0.25275 0.01973 0.0
C417 C 0.25415 0.22894 0.03298 0.0
C418 C 0.23271 0.20662 0.02931 0.0
C419 C 0.25073 0.18464 0.03939 0.0
C420 C 0.23044 0.16365 0.03574 0.0
C421 C 0.19207 0.16441 0.02226 0.0
C422 C 0.17392 0.18618 0.01246 0.0
C423 C 0.19409 0.20722 0.01604 0.0
H424 H 0.17641 0.14814 0.0195 0.0
H425 H 0.37364 0.35178 0.05407 0.0
H426 H 0.80927 0.30698 0.41664 0.0
H427 H 0.79144 0.27128 0.44423 0.0
H428 H 0.68285 0.27538 0.35631 0.0
H429 H 0.70069 0.31196 0.32869 0.0
H430 H 0.67949 0.27072 0.43106 0.0
H431 H 0.74008 0.22868 0.35436 0.0
H432 H 0.78864 0.21911 0.325 0.0
H433 H 0.86507 0.20725 0.44379 0.0
H434 H 0.81715 0.2171 0.47397 0.0
H435 H 0.64547 0.16255 0.52356 0.0
H436 H 0.65187 0.19213 0.47527 0.0
H437 H 0.76189 0.2078 0.5529 0.0
H438 H 0.75576 0.17817 0.60162 0.0
H439 H 0.75611 0.19835 0.47158 0.0
H440 H 0.69561 0.24622 0.54673 0.0
H441 H 0.64598 0.25561 0.57462 0.0
H442 H 0.56741 0.25524 0.45495 0.0
H443 H 0.61654 0.24552 0.42639 0.0
C444 C 0.78176 0.30008 0.40256 0.0
C445 C 0.75626 0.31232 0.37069 0.0
C446 C 0.77168 0.2795 0.41819 0.0
C447 C 0.73589 0.27048 0.40218 0.0
C448 C 0.71069 0.282 0.36899 0.0
C449 C 0.72092 0.30275 0.35307 0.0
C450 C 0.72455 0.25066 0.42348 0.0
C451 C 0.69563 0.25458 0.439 0.0
C452 C 0.74595 0.22976 0.4344 0.0
C453 C 0.77497 0.22374 0.41645 0.0
C454 C 0.7673 0.22419 0.37427 0.0
C455 C 0.79472 0.21869 0.35747 0.0
C456 C 0.82992 0.2126 0.38251 0.0
C457 C 0.83777 0.21196 0.42442 0.0
C458 C 0.81046 0.21746 0.44139 0.0
C459 C 0.67094 0.17246 0.53065 0.0
C460 C 0.70019 0.16797 0.56644 0.0
C461 C 0.67447 0.18938 0.503 0.0
C462 C 0.70735 0.20208 0.51051 0.0
C463 C 0.73631 0.19809 0.54658 0.0
C464 C 0.73268 0.1813 0.57451 0.0
C465 C 0.71205 0.21892 0.48007 0.0
C466 C 0.73962 0.2143 0.46289 0.0
C467 C 0.68918 0.239 0.46729 0.0
C468 C 0.65967 0.24485 0.48448 0.0
C469 C 0.6677 0.24791 0.5264 0.0
C470 C 0.63967 0.25335 0.54232 0.0
C471 C 0.60354 0.25594 0.51659 0.0
C472 C 0.59539 0.25318 0.47486 0.0
C473 C 0.62332 0.24772 0.45879 0.0
H474 H 0.58188 0.26016 0.52897 0.0
H475 H 0.85111 0.20835 0.36944 0.0
H476 H 0.74861 0.80752 0.12157 0.0
H477 H 0.75897 0.77307 0.08351 0.0
H478 H 0.67002 0.79563 0.97893 0.0
H479 H 0.65917 0.82964 0.01647 0.0
H480 H 0.669 0.74772 0.99039 0.0
H481 H 0.75865 0.80815 0.98708 0.0
H482 H 0.80928 0.83593 0.01967 0.0
H483 H 0.87629 0.77782 0.08149 0.0
H484 H 0.82589 0.74973 0.04958 0.0
H485 H 0.7098 0.67709 0.8401 0.0
H486 H 0.69626 0.71072 0.87784 0.0
H487 H 0.79337 0.69498 0.97852 0.0
H488 H 0.80757 0.66225 0.94116 0.0
H489 H 0.78977 0.73987 0.96899 0.0
H490 H 0.70549 0.6794 0.97691 0.0
H491 H 0.65547 0.64993 0.95492 0.0
H492 H 0.58014 0.70458 0.89402 0.0
H493 H 0.62989 0.73436 0.91509 0.0
C494 C 0.73101 0.80498 0.09064 0.0
C495 C 0.70329 0.82149 0.07204 0.0
C496 C 0.73707 0.78537 0.06887 0.0
C497 C 0.71554 0.78199 0.02821 0.0
C498 C 0.68701 0.79792 0.01019 0.0
C499 C 0.68101 0.81746 0.03176 0.0
C500 C 0.72327 0.76245 0.00363 0.0
C501 C 0.69524 0.74611 0.98523 0.0
C502 C 0.75782 0.76005 0.99788 0.0
C503 C 0.78842 0.77688 0.01618 0.0
C504 C 0.78414 0.80132 0.00774 0.0
C505 C 0.81279 0.81712 0.02608 0.0
C506 C 0.84595 0.80866 0.05271 0.0
C507 C 0.85059 0.78436 0.06088 0.0
C508 C 0.82201 0.76849 0.04263 0.0
C509 C 0.72844 0.68099 0.87008 0.0
C510 C 0.75975 0.66687 0.88747 0.0
C511 C 0.72051 0.70009 0.89178 0.0
C512 C 0.74361 0.70526 0.93128 0.0
C513 C 0.77514 0.69146 0.94815 0.0
C514 C 0.78314 0.6726 0.9266 0.0
C515 C 0.73544 0.72491 0.95555 0.0
C516 C 0.7634 0.7414 0.97385 0.0
C517 C 0.70103 0.72711 0.9619 0.0
C518 C 0.67153 0.70907 0.94722 0.0
C519 C 0.6784 0.68508 0.95832 0.0
C520 C 0.65007 0.66834 0.94616 0.0
C521 C 0.61465 0.6754 0.92323 0.0
C522 C 0.60758 0.69917 0.91192 0.0
C523 C 0.63585 0.71598 0.92389 0.0
H524 H 0.59265 0.66247 0.91443 0.0
H525 H 0.86807 0.82092 0.06696 0.0
H526 H 0.17196 0.6929 0.57571 0.0
H527 H 0.19208 0.72542 0.54205 0.0
H528 H 0.30169 0.71983 0.62698 0.0
H529 H 0.28169 0.68672 0.66094 0.0
H530 H 0.27076 0.76966 0.59818 0.0
H531 H 0.29447 0.69278 0.55107 0.0
H532 H 0.27813 0.65166 0.52758 0.0
H533 H 0.19048 0.67743 0.42551 0.0
H534 H 0.2058 0.7187 0.44886 0.0
H535 H 0.34751 0.83221 0.4718 0.0
H536 H 0.3383 0.79981 0.51368 0.0
H537 H 0.23141 0.78605 0.42699 0.0
H538 H 0.24066 0.81846 0.38436 0.0
H539 H 0.26657 0.74496 0.4602 0.0
H540 H 0.23923 0.82064 0.50743 0.0
H541 H 0.25235 0.86218 0.53005 0.0
H542 H 0.34366 0.83927 0.63097 0.0
H543 H 0.33146 0.79759 0.60853 0.0
C544 C 0.20016 0.69896 0.58798 0.0
C545 C 0.22542 0.68709 0.62063 0.0
C546 C 0.21157 0.71752 0.56866 0.0
C547 C 0.24843 0.72464 0.58162 0.0
C548 C 0.27311 0.71443 0.61655 0.0
C549 C 0.26165 0.69565 0.63601 0.0
C550 C 0.26126 0.74077 0.55566 0.0
C551 C 0.27067 0.76419 0.56837 0.0
C552 C 0.26007 0.73365 0.51638 0.0
C553 C 0.2511 0.70884 0.50193 0.0
C554 C 0.2715 0.68968 0.52382 0.0
C555 C 0.26245 0.66634 0.51051 0.0
C556 C 0.23326 0.66194 0.47511 0.0
C557 C 0.21308 0.68087 0.45294 0.0
C558 C 0.22194 0.70424 0.46619 0.0
C559 C 0.32225 0.82205 0.46122 0.0
C560 C 0.29456 0.82809 0.42501 0.0
C561 C 0.31703 0.80357 0.48529 0.0
C562 C 0.28383 0.79094 0.47394 0.0
C563 C 0.25715 0.79573 0.43641 0.0
C564 C 0.26249 0.81419 0.41203 0.0
C565 C 0.27606 0.77397 0.50258 0.0
C566 C 0.26731 0.75039 0.49025 0.0
C567 C 0.27765 0.78101 0.54212 0.0
C568 C 0.28467 0.80602 0.55606 0.0
C569 C 0.26226 0.82447 0.53429 0.0
C570 C 0.26951 0.84804 0.54709 0.0
C571 C 0.29888 0.85337 0.58186 0.0
C572 C 0.32096 0.83512 0.604 0.0
C573 C 0.31388 0.81152 0.59126 0.0
H574 H 0.30446 0.87163 0.59171 0.0
H575 H 0.22634 0.64388 0.46479 0.0
H576 H 0.83312 0.49745 0.86397 0.0
H577 H 0.88712 0.47339 0.89839 0.0
H578 H 0.95731 0.53345 0.8996 0.0
H579 H 0.90419 0.5568 0.86296 0.0
H580 H -0.00328 0.49499 0.91078 0.0
H581 H 0.90769 0.52869 0.97492 0.0
H582 H 0.84471 0.53091 0.97803 0.0
H583 H 0.84147 0.45493 0.98757 0.0
H584 H 0.90471 0.45235 0.98472 0.0
H585 H 0.13345 0.49392 0.09254 0.0
H586 H 0.07628 0.5105 0.04679 0.0
H587 H 0.01758 0.44787 0.06262 0.0
H588 H 0.07361 0.43219 0.11025 0.0
H589 H 0.97155 0.48142 0.03971 0.0
H590 H 0.06563 0.44904 0.99248 0.0
H591 H 0.13044 0.44749 0.99653 0.0
H592 H 0.12489 0.51963 0.95529 0.0
H593 H 0.05981 0.52173 0.95163 0.0
C594 C 0.8602 0.50507 0.86964 0.0
C595 C 0.86455 0.52928 0.86278 0.0
C596 C 0.89103 0.49138 0.88958 0.0
C597 C 0.92589 0.50215 0.90365 0.0
C598 C 0.93059 0.52493 0.89004 0.0
C599 C 0.90006 0.53838 0.8694 0.0
C600 C 0.95495 0.49291 0.93948 0.0
C601 C 0.99119 0.49196 0.93891 0.0
C602 C 0.94788 0.48876 0.97626 0.0
C603 C 0.91059 0.49034 0.9794 0.0
C604 C 0.89348 0.5125 0.97777 0.0
C605 C 0.85774 0.51381 0.97941 0.0
C606 C 0.83893 0.49305 0.9827 0.0
C607 C 0.856 0.47096 0.98479 0.0
C608 C 0.89181 0.46957 0.98331 0.0
C609 C 0.10796 0.48437 0.08799 0.0
C610 C 0.10801 0.4614 0.10348 0.0
C611 C 0.0754 0.49367 0.06144 0.0
C612 C 0.04329 0.47971 0.04959 0.0
C613 C 0.04223 0.45867 0.07046 0.0
C614 C 0.07438 0.44968 0.09761 0.0
C615 C 0.01334 0.4845 0.0114 0.0
C616 C 0.97705 0.48438 0.01158 0.0
C617 C 0.0204 0.48749 0.97432 0.0
C618 C 0.05797 0.48553 0.97181 0.0
C619 C 0.0781 0.46446 0.98367 0.0
C620 C 0.11494 0.46349 0.98589 0.0
C621 C 0.13179 0.48332 0.97546 0.0
C622 C 0.11168 0.50416 0.96267 0.0
C623 C 0.0748 0.50527 0.96057 0.0
H624 H 0.16048 0.48262 0.97765 0.0
H625 H 0.81121 0.494 0.98378 0.0
H626 H 0.13735 0.52326 0.62516 0.0
H627 H 0.08137 0.49997 0.59347 0.0
H628 H 0.07112 0.53191 0.47809 0.0
H629 H 0.12635 0.55537 0.50965 0.0
H630 H 0.01182 0.53999 0.50201 0.0
H631 H 0.0871 0.47361 0.49147 0.0
H632 H 0.13635 0.44398 0.51693 0.0
H633 H 0.08327 0.41695 0.59869 0.0
H634 H 0.03391 0.44663 0.57406 0.0
H635 H 0.85812 0.47439 0.37546 0.0
H636 H 0.91554 0.49587 0.40872 0.0
H637 H 0.92547 0.45994 0.52085 0.0
H638 H 0.86892 0.4381 0.48752 0.0
H639 H 0.98505 0.45376 0.50002 0.0
H640 H 0.90985 0.51951 0.51116 0.0
H641 H 0.86065 0.54931 0.48709 0.0
H642 H 0.91349 0.57784 0.4062 0.0
H643 H 0.96279 0.54801 0.42943 0.0
C644 C 0.12373 0.5246 0.59282 0.0
C645 C 0.13548 0.54118 0.56974 0.0
C646 C 0.09187 0.51139 0.5748 0.0
C647 C 0.07212 0.51454 0.53362 0.0
C648 C 0.08591 0.5295 0.50999 0.0
C649 C 0.11736 0.5428 0.52797 0.0
C650 C 0.03482 0.50489 0.51625 0.0
C651 C 0.00592 0.5211 0.50098 0.0
C652 C 0.02735 0.48038 0.51639 0.0
C653 C 0.05699 0.4625 0.5312 0.0
C654 C 0.08609 0.46149 0.51513 0.0
C655 C 0.11399 0.44465 0.52935 0.0
C656 C 0.11299 0.42864 0.55949 0.0
C657 C 0.08403 0.42939 0.57538 0.0
C658 C 0.05606 0.44619 0.56126 0.0
C659 C 0.87213 0.4717 0.40745 0.0
C660 C 0.85971 0.45456 0.42902 0.0
C661 C 0.90481 0.48388 0.42639 0.0
C662 C 0.92471 0.47928 0.46712 0.0
C663 C 0.91062 0.4635 0.48931 0.0
C664 C 0.8784 0.45114 0.47034 0.0
C665 C 0.962 0.48886 0.4855 0.0
C666 C 0.99089 0.47266 0.50104 0.0
C667 C 0.96947 0.51341 0.48582 0.0
C668 C 0.93984 0.53137 0.47177 0.0
C669 C 0.91082 0.53201 0.48799 0.0
C670 C 0.88295 0.54893 0.47455 0.0
C671 C 0.88389 0.56541 0.44506 0.0
C672 C 0.91277 0.56504 0.42901 0.0
C673 C 0.94071 0.54815 0.44234 0.0
H674 H 0.86229 0.57851 0.43469 0.0
H675 H 0.13462 0.41562 0.57046 0.0
H676 H 0.65598 0.97746 0.03906 0.0
H677 H 0.60437 0.99613 0.98721 0.0
H678 H 0.53064 0.97203 0.04943 0.0
H679 H 0.58193 0.95344 0.10118 0.0
H680 H 0.51406 0.95529 0.96811 0.0
H681 H 0.54788 0.02918 0.04695 0.0
H682 H 0.59122 0.0616 0.07751 0.0
H683 H 0.59954 0.07882 0.96114 0.0
H684 H 0.55655 0.0463 0.92999 0.0
H685 H 0.34439 0.00905 0.91981 0.0
H686 H 0.40359 0.98888 0.93879 0.0
H687 H 0.43852 0.03503 0.85951 0.0
H688 H 0.37937 0.05559 0.84152 0.0
H689 H 0.48312 0.03946 0.93115 0.0
H690 H 0.43928 0.97304 0.84906 0.0
H691 H 0.39716 0.94079 0.81517 0.0
H692 H 0.40977 0.90847 0.93005 0.0
H693 H 0.45157 0.9407 0.96477 0.0
C694 C 0.62906 0.97718 0.04269 0.0
C695 C 0.62278 0.96405 0.07404 0.0
C696 C 0.59957 0.98755 0.01277 0.0
C697 C 0.56376 0.98497 0.01426 0.0
C698 C 0.55811 0.97386 0.04762 0.0
C699 C 0.58741 0.96351 0.07735 0.0
C700 C 0.53152 0.99172 0.97972 0.0
C701 C 0.50706 0.97367 0.95988 0.0
C702 C 0.52385 0.01552 0.96747 0.0
C703 C 0.5494 0.03515 0.98625 0.0
C704 C 0.5592 0.03976 0.02795 0.0
C705 C 0.58364 0.05818 0.04536 0.0
C706 C 0.59823 0.07221 0.0213 0.0
C707 C 0.58829 0.06791 0.97975 0.0
C708 C 0.56387 0.0495 0.96221 0.0
C709 C 0.36399 0.0139 0.9048 0.0
C710 C 0.35748 0.03344 0.87883 0.0
C711 C 0.39791 0.00244 0.91565 0.0
C712 C 0.42561 0.01043 0.90053 0.0
C713 C 0.41762 0.02858 0.87153 0.0
C714 C 0.38377 0.04012 0.86094 0.0
C715 C 0.46412 0.00309 0.92104 0.0
C716 C 0.49017 0.02095 0.93818 0.0
C717 C 0.47355 0.97903 0.9302 0.0
C718 C 0.44861 0.95938 0.90956 0.0
C719 C 0.43298 0.95913 0.86716 0.0
C720 C 0.40915 0.94083 0.84778 0.0
C721 C 0.40079 0.9226 0.87044 0.0
C722 C 0.41632 0.92259 0.91253 0.0
C723 C 0.44017 0.94085 0.93208 0.0
H724 H 0.38229 0.90846 0.85538 0.0
H725 H 0.61715 0.08645 0.03484 0.0
H726 H 0.40024 0.96829 0.40065 0.0
H727 H 0.45194 0.98518 0.45435 0.0
H728 H 0.38144 0.99838 0.5261 0.0
H729 H 0.32939 0.98149 0.4723 0.0
H730 H 0.44747 0.03344 0.53019 0.0
H731 H 0.41535 0.9523 0.55023 0.0
H732 H 0.39458 0.91207 0.52465 0.0
H733 H 0.48937 0.90366 0.48665 0.0
H734 H 0.51048 0.94394 0.51146 0.0
H735 H 0.61942 0.0446 0.67292 0.0
H736 H 0.55789 0.02715 0.6542 0.0
H737 H 0.58046 0.98722 0.55938 0.0
H738 H 0.64206 0.00439 0.57871 0.0
H739 H 0.52983 0.96477 0.58396 0.0
H740 H 0.5527 0.04534 0.5453 0.0
H741 H 0.57184 0.08728 0.55738 0.0
H742 H 0.49509 0.09791 0.62177 0.0
H743 H 0.47584 0.0559 0.61048 0.0
C744 C 0.39539 0.97584 0.42702 0.0
C745 C 0.36105 0.97347 0.43256 0.0
C746 C 0.42489 0.98535 0.45769 0.0
C747 C 0.42039 0.99247 0.49424 0.0
C748 C 0.38523 0.99288 0.49799 0.0
C749 C 0.35552 0.98343 0.4671 0.0
C750 C 0.45336 0.9955 0.52984 0.0
C751 C 0.46506 0.01846 0.54314 0.0
C752 C 0.47622 0.97582 0.54594 0.0
C753 C 0.46444 0.95117 0.53262 0.0
C754 C 0.43171 0.9419 0.53631 0.0
C755 C 0.41985 0.9191 0.52192 0.0
C756 C 0.44059 0.90536 0.50398 0.0
C757 C 0.47334 0.91433 0.50059 0.0
C758 C 0.48532 0.93712 0.51489 0.0
C759 C 0.61189 0.03095 0.64979 0.0
C760 C 0.63523 0.02553 0.62741 0.0
C761 C 0.57666 0.0212 0.63882 0.0
C762 C 0.56436 0.00641 0.60476 0.0
C763 C 0.58942 0.99864 0.58575 0.0
C764 C 0.62471 0.00829 0.59693 0.0
C765 C 0.52464 0.00288 0.58378 0.0
C766 C 0.51164 0.97975 0.57285 0.0
C767 C 0.50074 0.02248 0.56947 0.0
C768 C 0.51317 0.04746 0.57748 0.0
C769 C 0.54018 0.05657 0.56237 0.0
C770 C 0.55096 0.08036 0.56897 0.0
C771 C 0.5346 0.09526 0.59021 0.0
C772 C 0.50766 0.08635 0.60523 0.0
C773 C 0.49686 0.06255 0.59882 0.0
H774 H 0.54285 0.1137 0.59511 0.0
H775 H 0.4313 0.88775 0.49275 0.0
H776 H 0.16363 0.37691 0.27105 0.0
H777 H 0.11478 0.37263 0.30104 0.0
H778 H 0.03582 0.36175 0.18247 0.0
H779 H 0.08428 0.36646 0.15213 0.0
H780 H 0.01171 0.39398 0.2227 0.0
H781 H 0.06506 0.316 0.25239 0.0
H782 H 0.11504 0.28715 0.28034 0.0
H783 H 0.13415 0.31566 0.39944 0.0
H784 H 0.08456 0.3449 0.3721 0.0
H785 H 0.85795 0.35323 0.26626 0.0
H786 H 0.91364 0.35253 0.24773 0.0
H787 H 0.97741 0.37422 0.36843 0.0
H788 H 0.92138 0.37517 0.38756 0.0
H789 H 0.01173 0.33838 0.33275 0.0
H790 H 0.95607 0.41503 0.30311 0.0
H791 H 0.90542 0.44339 0.275 0.0
H792 H 0.8907 0.41732 0.15528 0.0
H793 H 0.9408 0.38843 0.18275 0.0
C794 C 0.13599 0.37323 0.25133 0.0
C795 C 0.12796 0.37208 0.20909 0.0
C796 C 0.10805 0.37075 0.2686 0.0
C797 C 0.07159 0.36679 0.24405 0.0
C798 C 0.06372 0.36489 0.20203 0.0
C799 C 0.09154 0.3675 0.18473 0.0
C800 C 0.04123 0.36593 0.26168 0.0
C801 C 0.01158 0.3816 0.2464 0.0
C802 C 0.04159 0.35038 0.29365 0.0
C803 C 0.07136 0.3328 0.31013 0.0
C804 C 0.08012 0.31624 0.28449 0.0
C805 C 0.10834 0.29979 0.30023 0.0
C806 C 0.12783 0.29961 0.34162 0.0
C807 C 0.11907 0.31584 0.36737 0.0
C808 C 0.09089 0.33234 0.35178 0.0
C809 C 0.88377 0.3576 0.28922 0.0
C810 C 0.885 0.36455 0.32837 0.0
C811 C 0.91562 0.35719 0.27846 0.0
C812 C 0.94949 0.36367 0.30651 0.0
C813 C 0.95142 0.36925 0.34632 0.0
C814 C 0.91937 0.36978 0.35716 0.0
C815 C 0.98209 0.366 0.29302 0.0
C816 C 0.01211 0.35078 0.30916 0.0
C817 C 0.98214 0.38195 0.26178 0.0
C818 C 0.95202 0.39938 0.24507 0.0
C819 C 0.94182 0.41517 0.27083 0.0
C820 C 0.91322 0.43136 0.255 0.0
C821 C 0.89481 0.43212 0.21339 0.0
C822 C 0.90496 0.41668 0.18752 0.0
C823 C 0.93347 0.4004 0.2032 0.0
H824 H 0.87278 0.44472 0.2012 0.0
H825 H 0.14967 0.28686 0.35375 0.0
H826 H 0.12241 0.6518 0.71808 0.0
H827 H 0.06601 0.65418 0.73517 0.0
H828 H 0.00659 0.61899 0.62341 0.0
H829 H 0.06319 0.61652 0.6057 0.0
H830 H 0.96674 0.65722 0.64878 0.0
H831 H 0.03657 0.5863 0.69935 0.0
H832 H 0.0944 0.56549 0.73481 0.0
H833 H 0.10104 0.60199 0.84489 0.0
H834 H 0.04395 0.6237 0.80975 0.0
H835 H 0.82051 0.61788 0.7187 0.0
H836 H 0.86877 0.62262 0.68791 0.0
H837 H 0.94555 0.64246 0.80394 0.0
H838 H 0.8978 0.63688 0.83511 0.0
H839 H 0.97488 0.61042 0.77161 0.0
H840 H 0.90956 0.68298 0.72345 0.0
H841 H 0.85558 0.70767 0.68903 0.0
H842 H 0.8419 0.67059 0.57762 0.0
H843 H 0.89555 0.64546 0.61152 0.0
C844 C 0.09733 0.64483 0.69673 0.0
C845 C 0.09748 0.63357 0.66081 0.0
C846 C 0.06509 0.64631 0.70653 0.0
C847 C 0.0324 0.63646 0.6808 0.0
C848 C 0.03168 0.62666 0.64363 0.0
C849 C 0.06406 0.62518 0.63369 0.0
C850 C 0.00037 0.63418 0.69508 0.0
C851 C 0.96814 0.64675 0.67527 0.0
C852 C 0.00277 0.62081 0.73007 0.0
C853 C 0.03615 0.60686 0.75175 0.0
C854 C 0.05051 0.59007 0.73103 0.0
C855 C 0.08325 0.57818 0.75102 0.0
C856 C 0.10151 0.58257 0.79198 0.0
C857 C 0.08696 0.59873 0.81309 0.0
C858 C 0.05444 0.61086 0.79313 0.0
C859 C 0.84751 0.62368 0.7375 0.0
C860 C 0.8554 0.62697 0.77935 0.0
C861 C 0.87508 0.62642 0.71983 0.0
C862 C 0.91081 0.633 0.74355 0.0
C863 C 0.91826 0.63723 0.78505 0.0
C864 C 0.89092 0.63413 0.80282 0.0
C865 C 0.94112 0.63398 0.72597 0.0
C866 C 0.97314 0.62091 0.74504 0.0
C867 C 0.93857 0.64708 0.69057 0.0
C868 C 0.90634 0.66218 0.67013 0.0
C869 C 0.89486 0.67996 0.69169 0.0
C870 C 0.86436 0.69406 0.67226 0.0
C871 C 0.84526 0.69065 0.63119 0.0
C872 C 0.85669 0.67318 0.60944 0.0
C873 C 0.88716 0.65902 0.62874 0.0
H874 H 0.82165 0.70159 0.6162 0.0
H875 H 0.12672 0.57325 0.80748 0.0
H876 H 0.3442 0.882 0.25714 0.0
H877 H 0.39228 0.87699 0.22642 0.0
H878 H 0.47309 0.86969 0.34475 0.0
H879 H 0.42519 0.8753 0.37592 0.0
H880 H 0.49748 0.8985 0.29926 0.0
H881 H 0.4417 0.82105 0.28139 0.0
H882 H 0.39042 0.79243 0.25993 0.0
H883 H 0.36514 0.81554 0.13691 0.0
H884 H 0.416 0.84452 0.15772 0.0
H885 H 0.64245 0.85887 0.23513 0.0
H886 H 0.59315 0.85766 0.26471 0.0
H887 H 0.51348 0.87111 0.14767 0.0
H888 H 0.56264 0.87223 0.11751 0.0
H889 H 0.48878 0.83842 0.19241 0.0
H890 H 0.54293 0.91619 0.20992 0.0
H891 H 0.59388 0.94507 0.23045 0.0
H892 H 0.62178 0.92165 0.35356 0.0
H893 H 0.57125 0.89235 0.33364 0.0
C894 C 0.37213 0.87912 0.27671 0.0
C895 C 0.38078 0.87888 0.31905 0.0
C896 C 0.39961 0.8762 0.25904 0.0
C897 C 0.43623 0.87259 0.28323 0.0
C898 C 0.44499 0.87238 0.32548 0.0
C899 C 0.41756 0.87552 0.34325 0.0
C900 C 0.46552 0.86966 0.26448 0.0
C901 C 0.49585 0.88509 0.27641 0.0
C902 C 0.46292 0.85261 0.23381 0.0
C903 C 0.43248 0.83508 0.22118 0.0
C904 C 0.42506 0.82014 0.2498 0.0
C905 C 0.39609 0.80383 0.23775 0.0
C906 C 0.37449 0.8022 0.19709 0.0
C907 C 0.38188 0.81683 0.16839 0.0
C908 C 0.4108 0.83318 0.18029 0.0
C909 C 0.61443 0.86122 0.21543 0.0
C910 C 0.60661 0.86591 0.17394 0.0
C911 C 0.58629 0.86059 0.23248 0.0
C912 C 0.5498 0.86472 0.20849 0.0
C913 C 0.54154 0.86799 0.16671 0.0
C914 C 0.5697 0.86865 0.14956 0.0
C915 C 0.5207 0.8671 0.22749 0.0
C916 C 0.49042 0.85169 0.21549 0.0
C917 C 0.52327 0.88419 0.25804 0.0
C918 C 0.5535 0.90192 0.27022 0.0
C919 C 0.56009 0.91706 0.24132 0.0
C920 C 0.58887 0.93353 0.25285 0.0
C921 C 0.61107 0.93518 0.29327 0.0
C922 C 0.60455 0.92035 0.32225 0.0
C923 C 0.57582 0.90382 0.31087 0.0
H924 H 0.63321 0.94801 0.30214 0.0
H925 H 0.35207 0.78957 0.18782 0.0
H926 H 0.61282 0.16243 0.68416 0.0
H927 H 0.56583 0.16588 0.71752 0.0
H928 H 0.55139 0.08965 0.71059 0.0
H929 H 0.59616 0.08657 0.67499 0.0
H930 H 0.48985 0.10653 0.69499 0.0
H931 H 0.60129 0.12227 0.80094 0.0
H932 H 0.66046 0.14182 0.83596 0.0
H933 H 0.60512 0.20839 0.83271 0.0
H934 H 0.54561 0.18928 0.79714 0.0
H935 H 0.41818 0.09737 0.86333 0.0
H936 H 0.46598 0.09908 0.83121 0.0
H937 H 0.41806 0.16309 0.76882 0.0
H938 H 0.36939 0.16126 0.79998 0.0
H939 H 0.50973 0.15392 0.82005 0.0
H940 H 0.39557 0.13045 0.70847 0.0
H941 H 0.34246 0.10438 0.67625 0.0
H942 H 0.41318 0.04337 0.70156 0.0
H943 H 0.46656 0.06904 0.73445 0.0
C944 C 0.59914 0.14655 0.68946 0.0
C945 C 0.60755 0.1243 0.67663 0.0
C946 C 0.57265 0.14845 0.70892 0.0
C947 C 0.55531 0.12799 0.71726 0.0
C948 C 0.56407 0.10576 0.70445 0.0
C949 C 0.58965 0.10397 0.68406 0.0
C950 C 0.52755 0.1295 0.73858 0.0
C951 C 0.49457 0.11682 0.72249 0.0
C952 C 0.53335 0.14282 0.77463 0.0
C953 C 0.56905 0.1544 0.79596 0.0
C954 C 0.60177 0.14112 0.8074 0.0
C955 C 0.63536 0.15211 0.8274 0.0
C956 C 0.63656 0.17635 0.83644 0.0
C957 C 0.60415 0.18963 0.8256 0.0
C958 C 0.57047 0.17872 0.80555 0.0
C959 C 0.41806 0.11205 0.84328 0.0
C960 C 0.38998 0.12922 0.83422 0.0
C961 C 0.44531 0.11291 0.82486 0.0
C962 C 0.44529 0.13113 0.79761 0.0
C963 C 0.41833 0.14887 0.78976 0.0
C964 C 0.39062 0.14779 0.80757 0.0
C965 C 0.47261 0.13104 0.77613 0.0
C966 C 0.50536 0.14388 0.79236 0.0
C967 C 0.46749 0.11701 0.74125 0.0
C968 C 0.4349 0.10161 0.72431 0.0
C969 C 0.39964 0.11144 0.70789 0.0
C970 C 0.36955 0.09675 0.6893 0.0
C971 C 0.37455 0.07227 0.68676 0.0
C972 C 0.40942 0.06234 0.70349 0.0
C973 C 0.43955 0.07694 0.72213 0.0
H974 H 0.35156 0.06096 0.67145 0.0
H975 H 0.6626 0.18483 0.85194 0.0
H976 H 0.16295 0.41099 0.97793 0.0
H977 H 0.16091 0.42991 0.91377 0.0
H978 H 0.25563 0.47224 0.97723 0.0
H979 H 0.25806 0.45357 0.04034 0.0
H980 H 0.14906 0.47701 0.89569 0.0
H981 H 0.30591 0.48556 0.9199 0.0
H982 H 0.36212 0.46162 0.94748 0.0
H983 H 0.2977 0.39766 0.92418 0.0
H984 H 0.24114 0.42118 0.89588 0.0
H985 H 0.19519 0.57843 0.79595 0.0
H986 H 0.18759 0.54815 0.84338 0.0
H987 H 0.21822 0.49349 0.77385 0.0
H988 H 0.22625 0.5231 0.72729 0.0
H989 H 0.25694 0.48909 0.84968 0.0
H990 H 0.12966 0.49627 0.77447 0.0
H991 H 0.06924 0.51508 0.74286 0.0
H992 H 0.07046 0.54147 0.85863 0.0
H993 H 0.13129 0.52321 0.89065 0.0
C994 C 0.18393 0.42381 0.97788 0.0
C995 C 0.21021 0.43106 0.0144 0.0
C996 C 0.18252 0.43478 0.94131 0.0
C997 C 0.20803 0.45259 0.9407 0.0
C998 C 0.23579 0.45847 0.97672 0.0
C999 C 0.23702 0.44776 0.01297 0.0
C1000 C 0.20482 0.46652 0.90362 0.0
C1001 C 0.17253 0.47951 0.88536 0.0
C1002 C 0.23519 0.46951 0.88964 0.0
C1003 C 0.26922 0.45518 0.90596 0.0
C1004 C 0.30373 0.46639 0.92039 0.0
C1005 C 0.33567 0.45288 0.93622 0.0
C1006 C 0.33348 0.42814 0.93766 0.0
C1007 C 0.29935 0.41684 0.92315 0.0
C1008 C 0.26734 0.43025 0.90726 0.0
C1009 C 0.20012 0.55995 0.79075 0.0
C1010 C 0.21197 0.55337 0.75812 0.0
C1011 C 0.1955 0.54264 0.81766 0.0
C1012 C 0.20237 0.51851 0.81216 0.0
C1013 C 0.213 0.51195 0.77894 0.0
C1014 C 0.2177 0.52907 0.75234 0.0
C1015 C 0.20154 0.50016 0.84243 0.0
C1016 C 0.23327 0.48644 0.85962 0.0
C1017 C 0.17037 0.49613 0.85461 0.0
C1018 C 0.13493 0.50834 0.83502 0.0
C1019 C 0.1172 0.50628 0.79311 0.0
C1020 C 0.08282 0.51675 0.77512 0.0
C1021 C 0.06586 0.52927 0.79877 0.0
C1022 C 0.08346 0.53159 0.84038 0.0
C1023 C 0.11786 0.52119 0.85846 0.0
H1024 H 0.03925 0.53737 0.78479 0.0
H1025 H 0.35822 0.41773 0.94998 0.0
H1026 H 0.78442 0.40009 0.51124 0.0
H1027 H 0.77443 0.42257 0.56678 0.0
H1028 H 0.67737 0.45423 0.48308 0.0
H1029 H 0.68638 0.43128 0.42814 0.0
H1030 H 0.78026 0.4684 0.57209 0.0
H1031 H 0.62121 0.47683 0.52919 0.0
H1032 H 0.56609 0.45171 0.50207 0.0
H1033 H 0.63073 0.38928 0.54577 0.0
H1034 H 0.68614 0.41403 0.57363 0.0
H1035 H 0.74557 0.57059 0.67305 0.0
H1036 H 0.74114 0.54254 0.61762 0.0
H1037 H 0.69779 0.48907 0.67822 0.0
H1038 H 0.70064 0.51687 0.73202 0.0
H1039 H 0.66533 0.48453 0.60275 0.0
H1040 H 0.7914 0.49289 0.68739 0.0
H1041 H 0.84872 0.51484 0.72114 0.0
H1042 H 0.85413 0.53707 0.60573 0.0
H1043 H 0.79653 0.51551 0.57133 0.0
C1044 C 0.76001 0.41097 0.50505 0.0
C1045 C 0.73638 0.41406 0.46522 0.0
C1046 C 0.7546 0.42409 0.53674 0.0
C1047 C 0.72538 0.44034 0.52912 0.0
C1048 C 0.69993 0.44172 0.48999 0.0
C1049 C 0.70518 0.42856 0.45847 0.0
C1050 C 0.72384 0.45785 0.56045 0.0
C1051 C 0.75515 0.47177 0.57897 0.0
C1052 C 0.69118 0.46234 0.56956 0.0
C1053 C 0.65791 0.4473 0.55318 0.0
C1054 C 0.62364 0.45775 0.53316 0.0
C1055 C 0.59235 0.44357 0.51763 0.0
C1056 C 0.59493 0.41891 0.52209 0.0
C1057 C 0.62879 0.40838 0.5422 0.0
C1058 C 0.66017 0.42247 0.55781 0.0
C1059 C 0.73435 0.55303 0.67397 0.0
C1060 C 0.724 0.54589 0.70727 0.0
C1061 C 0.73213 0.53693 0.64251 0.0
C1062 C 0.71985 0.51348 0.64416 0.0
C1063 C 0.70749 0.50695 0.67619 0.0
C1064 C 0.70941 0.52293 0.70719 0.0
C1065 C 0.7217 0.49505 0.61431 0.0
C1066 C 0.69042 0.48108 0.59587 0.0
C1067 C 0.7547 0.49 0.60624 0.0
C1068 C 0.78947 0.50281 0.62683 0.0
C1069 C 0.8047 0.50259 0.66924 0.0
C1070 C 0.83724 0.51495 0.68848 0.0
C1071 C 0.855 0.5274 0.6656 0.0
C1072 C 0.84031 0.52746 0.62342 0.0
C1073 C 0.80772 0.51517 0.60403 0.0
H1074 H 0.88018 0.53697 0.68055 0.0
H1075 H 0.57067 0.40796 0.51003 0.0
H1076 H 0.781 0.47698 0.27276 0.0
H1077 H 0.79064 0.50488 0.22437 0.0
H1078 H 0.79313 0.44706 0.14424 0.0
H1079 H 0.78347 0.41851 0.19305 0.0
H1080 H 0.8475 0.48421 0.15145 0.0
H1081 H 0.71587 0.47573 0.12793 0.0
H1082 H 0.66149 0.47635 0.1507 0.0
H1083 H 0.68334 0.54921 0.18724 0.0
H1084 H 0.73814 0.54891 0.16522 0.0
H1085 H 0.75141 0.52807 0.95151 0.0
H1086 H 0.7599 0.5109 0.01738 0.0
H1087 H 0.82355 0.5718 0.07495 0.0
H1088 H 0.81716 0.58883 0.00823 0.0
H1089 H 0.74426 0.53946 0.08901 0.0
H1090 H 0.87372 0.55004 0.11292 0.0
H1091 H 0.93219 0.55024 0.09844 0.0
H1092 H 0.92089 0.47557 0.07226 0.0
H1093 H 0.86092 0.47533 0.08367 0.0
C1094 C 0.78365 0.46998 0.24495 0.0
C1095 C 0.78069 0.44542 0.23645 0.0
C1096 C 0.78932 0.48606 0.2174 0.0
C1097 C 0.79202 0.47805 0.1806 0.0
C1098 C 0.79089 0.45353 0.17255 0.0
C1099 C 0.78524 0.43728 0.20033 0.0
C1100 C 0.79364 0.49551 0.14967 0.0
C1101 C 0.82493 0.49625 0.13756 0.0
C1102 C 0.76483 0.51191 0.13317 0.0
C1103 C 0.73129 0.51222 0.14531 0.0
C1104 C 0.70917 0.49183 0.14102 0.0
C1105 C 0.67826 0.49214 0.15376 0.0
C1106 C 0.66906 0.51279 0.17054 0.0
C1107 C 0.69056 0.53322 0.17432 0.0
C1108 C 0.72151 0.533 0.16168 0.0
C1109 C 0.76732 0.538 0.97796 0.0
C1110 C 0.78402 0.55978 0.9744 0.0
C1111 C 0.77232 0.528 0.01568 0.0
C1112 C 0.7936 0.53959 0.05088 0.0
C1113 C 0.80851 0.56203 0.04798 0.0
C1114 C 0.8043 0.57191 0.00989 0.0
C1115 C 0.79789 0.52795 0.08998 0.0
C1116 C 0.76731 0.52789 0.10347 0.0
C1117 C 0.82768 0.5125 0.10822 0.0
C1118 C 0.86203 0.51292 0.09764 0.0
C1119 C 0.88281 0.53391 0.10228 0.0
C1120 C 0.91639 0.53399 0.09488 0.0
C1121 C 0.93005 0.513 0.08394 0.0
C1122 C 0.91006 0.4919 0.0802 0.0
C1123 C 0.87608 0.49184 0.08674 0.0
H1124 H 0.95631 0.51308 0.0788 0.0
H1125 H 0.64529 0.51298 0.18063 0.0
H1126 H 0.23866 0.43289 0.31639 0.0
H1127 H 0.24389 0.46109 0.37185 0.0
H1128 H 0.2608 0.51843 0.29803 0.0
H1129 H 0.25628 0.49079 0.24347 0.0
H1130 H 0.30614 0.52308 0.37289 0.0
H1131 H 0.17668 0.50766 0.30728 0.0
H1132 H 0.12142 0.48238 0.28327 0.0
H1133 H 0.13749 0.45949 0.40493 0.0
H1134 H 0.19319 0.48438 0.42957 0.0
H1135 H 0.19809 0.60246 0.48306 0.0
H1136 H 0.20449 0.5805 0.42532 0.0
H1137 H 0.3053 0.54938 0.50222 0.0
H1138 H 0.29929 0.5714 0.5599 0.0
H1139 H 0.2013 0.53237 0.42492 0.0
H1140 H 0.35677 0.53118 0.44373 0.0
H1141 H 0.41006 0.55829 0.46466 0.0
H1142 H 0.33803 0.61841 0.43053 0.0
H1143 H 0.28438 0.59168 0.40883 0.0
C1144 C 0.24381 0.45146 0.31222 0.0
C1145 C 0.24667 0.45954 0.2753 0.0
C1146 C 0.24668 0.46756 0.34382 0.0
C1147 C 0.25246 0.49191 0.33891 0.0
C1148 C 0.25641 0.49977 0.30259 0.0
C1149 C 0.25352 0.48385 0.27122 0.0
C1150 C 0.25297 0.50968 0.37051 0.0
C1151 C 0.28332 0.52503 0.38448 0.0
C1152 C 0.22287 0.51255 0.38497 0.0
C1153 C 0.18932 0.49766 0.37019 0.0
C1154 C 0.16859 0.49709 0.32885 0.0
C1155 C 0.13717 0.48285 0.31514 0.0
C1156 C 0.12602 0.46927 0.34253 0.0
C1157 C 0.14621 0.46997 0.38373 0.0
C1158 C 0.1777 0.48414 0.39758 0.0
C1159 C 0.22246 0.59176 0.48735 0.0
C1160 C 0.248 0.58846 0.52614 0.0
C1161 C 0.22584 0.57899 0.45439 0.0
C1162 C 0.25506 0.56304 0.45962 0.0
C1163 C 0.28255 0.5616 0.49744 0.0
C1164 C 0.2791 0.57425 0.5304 0.0
C1165 C 0.25448 0.54579 0.42731 0.0
C1166 C 0.22418 0.53042 0.41341 0.0
C1167 C 0.28438 0.54315 0.41252 0.0
C1168 C 0.31652 0.5594 0.42502 0.0
C1169 C 0.35231 0.55018 0.44053 0.0
C1170 C 0.38259 0.56548 0.45255 0.0
C1171 C 0.37743 0.59005 0.44904 0.0
C1172 C 0.34199 0.59937 0.43338 0.0
C1173 C 0.31163 0.58415 0.42128 0.0
H1174 H 0.4009 0.60187 0.45839 0.0
H1175 H 0.10169 0.45826 0.33186 0.0
H1176 H 0.77002 0.93789 0.02704 0.0
H1177 H 0.77107 0.96746 0.97655 0.0
H1178 H 0.65374 0.96077 0.92144 0.0
H1179 H 0.65221 0.9312 0.97209 0.0
H1180 H 0.69026 0.96536 0.86512 0.0
H1181 H 0.68206 0.00557 0.9813 0.0
H1182 H 0.69816 0.01496 0.05389 0.0
H1183 H 0.80628 0.03631 0.05721 0.0
H1184 H 0.79096 0.02682 0.98466 0.0
H1185 H 0.69623 0.09049 0.78592 0.0
H1186 H 0.6869 0.06536 0.83932 0.0
H1187 H 0.77308 0.01861 0.83162 0.0
H1188 H 0.7829 0.04348 0.7791 0.0
H1189 H 0.74139 0.04429 0.91887 0.0
H1190 H 0.73212 0.97044 0.80614 0.0
H1191 H 0.70627 0.9623 0.73277 0.0
H1192 H 0.61755 0.01057 0.724 0.0
H1193 H 0.64372 0.01961 0.79657 0.0
C1194 C 0.74447 0.94227 0.00372 0.0
C1195 C 0.71097 0.93227 0.0039 0.0
C1196 C 0.74513 0.95933 0.97508 0.0
C1197 C 0.71238 0.96666 0.94596 0.0
C1198 C 0.67926 0.95545 0.94397 0.0
C1199 C 0.67851 0.93842 0.97278 0.0
C1200 C 0.71283 0.98668 0.91873 0.0
C1201 C 0.7013 0.98259 0.87698 0.0
C1202 C 0.72611 0.00946 0.93402 0.0
C1203 C 0.73546 0.0153 0.97761 0.0
C1204 C 0.70937 0.0121 0.99756 0.0
C1205 C 0.71833 0.01747 0.03869 0.0
C1206 C 0.75326 0.02615 0.06017 0.0
C1207 C 0.77925 0.02956 0.04053 0.0
C1208 C 0.77043 0.02423 -0.00061 0.0
C1209 C 0.71398 0.0753 0.79659 0.0
C1210 C 0.74012 0.06887 0.77807 0.0
C1211 C 0.70847 0.06092 0.82688 0.0
C1212 C 0.72903 0.04004 0.83885 0.0
C1213 C 0.75678 0.03457 0.82246 0.0
C1214 C 0.76236 0.04885 0.79248 0.0
C1215 C 0.71997 0.02256 0.86569 0.0
C1216 C 0.73007 0.02708 0.90727 0.0
C1217 C 0.70437 0.00039 0.85036 0.0
C1218 C 0.68988 0.99574 0.80647 0.0
C1219 C 0.7073 0.97943 0.78829 0.0
C1220 C 0.69272 0.97479 0.7468 0.0
C1221 C 0.66046 0.98609 0.7235 0.0
C1222 C 0.64287 0.00214 0.74165 0.0
C1223 C 0.65768 0.00716 0.78289 0.0
H1224 H 0.64898 0.98229 0.69149 0.0
H1225 H 0.76015 0.03028 0.09202 0.0
H1226 H 0.22786 0.03901 0.74846 0.0
H1227 H 0.23776 0.01279 0.69815 0.0
H1228 H 0.28937 0.06971 0.65407 0.0
H1229 H 0.28123 0.09633 0.70644 0.0
H1230 H 0.24629 0.04189 0.59272 0.0
H1231 H 0.34677 0.02801 0.71233 0.0
H1232 H 0.3789 0.0214 0.78459 0.0
H1233 H 0.31586 0.95792 0.78083 0.0
H1234 H 0.28374 0.96404 0.7079 0.0
H1235 H 0.34147 0.93544 0.53065 0.0
H1236 H 0.34044 0.96351 0.58357 0.0
H1237 H 0.22198 0.96355 0.53899 0.0
H1238 H 0.22261 0.93549 0.48592 0.0
H1239 H 0.31026 0.96619 0.64517 0.0
H1240 H 0.19436 0.0213 0.53203 0.0
H1241 H 0.17097 0.02911 0.45866 0.0
H1242 H 0.27729 0.01369 0.44949 0.0
H1243 H 0.30146 0.00613 0.52286 0.0
C1244 C 0.24129 0.04623 0.72817 0.0
C1245 C 0.2543 0.06982 0.73206 0.0
C1246 C 0.24713 0.03103 0.69949 0.0
C1247 C 0.26578 0.03899 0.67359 0.0
C1248 C 0.27626 0.06299 0.67496 0.0
C1249 C 0.27119 0.07824 0.70454 0.0
C1250 C 0.27454 0.02172 0.64599 0.0
C1251 C 0.26045 0.02543 0.60415 0.0
C1252 C 0.29388 0.00046 0.66094 0.0
C1253 C 0.31264 0.99665 0.70478 0.0
C1254 C 0.33958 0.01276 0.72695 0.0
C1255 C 0.35784 0.00906 0.76805 0.0
C1256 C 0.34913 0.9894 0.78756 0.0
C1257 C 0.32245 0.97321 0.76574 0.0
C1258 C 0.30437 0.97671 0.72443 0.0
C1259 C 0.31514 0.94077 0.53281 0.0
C1260 C 0.2821 0.93339 0.50366 0.0
C1261 C 0.31465 0.95695 0.563 0.0
C1262 C 0.28117 0.966 0.5645 0.0
C1263 C 0.24813 0.9571 0.53776 0.0
C1264 C 0.24856 0.94093 0.50761 0.0
C1265 C 0.28058 0.98594 0.59196 0.0
C1266 C 0.29629 0.98272 0.63373 0.0
C1267 C 0.2637 0.00789 0.5769 0.0
C1268 C 0.24959 0.01295 0.53289 0.0
C1269 C 0.21279 0.0197 0.51439 0.0
C1270 C 0.19939 0.02406 0.4728 0.0
C1271 C 0.2226 0.02182 0.44942 0.0
C1272 C 0.25931 0.01532 0.46761 0.0
C1273 C 0.27286 0.01098 0.50919 0.0
H1274 H 0.21216 0.02517 0.41722 0.0
H1275 H 0.36314 0.98665 0.81949 0.0
H1276 H 0.23599 0.92313 0.20595 0.0
H1277 H 0.23811 0.94853 0.14992 0.0
H1278 H 0.26954 0.00829 0.23143 0.0
H1279 H 0.26617 0.98346 0.28688 0.0
H1280 H 0.22453 0.02314 0.16408 0.0
H1281 H 0.33298 0.97552 0.20138 0.0
H1282 H 0.36884 0.93839 0.2163 0.0
H1283 H 0.3166 0.91443 0.09442 0.0
H1284 H 0.27994 0.95125 0.07895 0.0
H1285 H 0.30009 0.0901 0.03076 0.0
H1286 H 0.29506 0.06835 0.08977 0.0
H1287 H 0.2379 0.01152 0.01174 0.0
H1288 H 0.24213 0.03287 0.9532 0.0
H1289 H 0.29922 0.99691 0.0797 0.0
H1290 H 0.18961 0.04631 0.04574 0.0
H1291 H 0.15808 0.08506 0.03333 0.0
H1292 H 0.21962 0.10771 0.15363 0.0
H1293 H 0.25194 0.06919 0.16653 0.0
C1294 C 0.24306 0.94172 0.21182 0.0
C1295 C 0.25104 0.95119 0.25095 0.0
C1296 C 0.24443 0.9562 0.17983 0.0
C1297 C 0.25463 0.98026 0.18661 0.0
C1298 C 0.26161 0.98983 0.2254 0.0
C1299 C 0.25972 0.97551 0.25715 0.0
C1300 C 0.25915 0.99537 0.15373 0.0
C1301 C 0.24123 0.01748 0.14599 0.0
C1302 C 0.28103 0.9881 0.13011 0.0
C1303 C 0.30345 0.96607 0.13911 0.0
C1304 C 0.32897 0.96227 0.17782 0.0
C1305 C 0.34944 0.94128 0.18638 0.0
C1306 C 0.34494 0.92404 0.15635 0.0
C1307 C 0.32002 0.92779 0.11767 0.0
C1308 C 0.29939 0.94873 0.10897 0.0
C1309 C 0.28615 0.07309 0.02621 0.0
C1310 C 0.27158 0.06328 0.98719 0.0
C1311 C 0.28336 0.0607 0.05988 0.0
C1312 C 0.26633 0.03829 0.05494 0.0
C1313 C 0.25135 0.02871 0.01613 0.0
C1314 C 0.25366 0.0411 0.98264 0.0
C1315 C 0.26425 0.02435 0.08994 0.0
C1316 C 0.28272 0.0025 0.09806 0.0
C1317 C 0.24354 0.03207 0.11438 0.0
C1318 C 0.22347 0.05498 0.10694 0.0
C1319 C 0.1966 0.05962 0.06945 0.0
C1320 C 0.17856 0.08153 0.06234 0.0
C1321 C 0.18693 0.09887 0.09262 0.0
C1322 C 0.21322 0.09428 0.13017 0.0
C1323 C 0.23138 0.07241 0.13741 0.0
H1324 H 0.173 0.11585 0.08703 0.0
H1325 H 0.3608 0.9078 0.16304 0.0
H1326 H 0.77677 0.04518 0.54932 0.0
H1327 H 0.7821 0.0224 0.49197 0.0
H1328 H 0.67148 0.04228 0.42177 0.0
H1329 H 0.66647 0.06576 0.47857 0.0
H1330 H 0.74682 0.98479 0.45896 0.0
H1331 H 0.65976 0.04039 0.32191 0.0
H1332 H 0.64496 0.08238 0.30362 0.0
H1333 H 0.74649 0.1041 0.39186 0.0
H1334 H 0.76211 0.06225 0.4103 0.0
H1335 H 0.70295 0.91393 0.27956 0.0
H1336 H 0.70171 0.93884 0.33676 0.0
H1337 H 0.76666 0.99199 0.30193 0.0
H1338 H 0.7667 0.96768 0.24423 0.0
H1339 H 0.71501 0.01318 0.31758 0.0
H1340 H 0.80183 0.95344 0.38713 0.0
H1341 H 0.82364 0.91262 0.40662 0.0
H1342 H 0.73609 0.90157 0.45583 0.0
H1343 H 0.71352 0.94226 0.4362 0.0
C1344 C 0.75384 0.04508 0.52138 0.0
C1345 C 0.72122 0.05732 0.51847 0.0
C1346 C 0.75683 0.03193 0.4887 0.0
C1347 C 0.72721 0.03056 0.4525 0.0
C1348 C 0.69496 0.04333 0.4491 0.0
C1349 C 0.69213 0.05679 0.48163 0.0
C1350 C 0.72952 0.01486 0.41917 0.0
C1351 C 0.73998 0.99105 0.42805 0.0
C1352 C 0.72087 0.02296 0.37886 0.0
C1353 C 0.71189 0.04819 0.36775 0.0
C1354 C 0.67897 0.05413 0.33731 0.0
C1355 C 0.67043 0.0779 0.32693 0.0
C1356 C 0.69471 0.0959 0.34666 0.0
C1357 C 0.72764 0.09015 0.37671 0.0
C1358 C 0.73633 0.06641 0.38718 0.0
C1359 C 0.71732 0.9308 0.28455 0.0
C1360 C 0.73491 0.93889 0.25752 0.0
C1361 C 0.7166 0.94504 0.31719 0.0
C1362 C 0.73418 0.96734 0.32381 0.0
C1363 C 0.75259 0.97502 0.29735 0.0
C1364 C 0.75274 0.96105 0.26446 0.0
C1365 C 0.73272 0.98316 0.35741 0.0
C1366 C 0.72202 0.00694 0.34851 0.0
C1367 C 0.74222 0.97521 0.39788 0.0
C1368 C 0.75583 0.9508 0.4099 0.0
C1369 C 0.78712 0.94225 0.4019 0.0
C1370 C 0.79963 0.91915 0.413 0.0
C1371 C 0.78122 0.90449 0.43237 0.0
C1372 C 0.75031 0.91293 0.44079 0.0
C1373 C 0.73767 0.93602 0.42973 0.0
H1374 H 0.79094 0.88661 0.44094 0.0
H1375 H 0.68804 0.11429 0.3386 0.0
loop_
_geom_bond_atom_site_label_1
_geom_bond_atom_site_label_2
_geom_bond_distance
_geom_bond_site_symmetry_2
_ccdc_geom_bond_type
Sc0 O3 2.025 . S
Sc0 O10 2.105 . S
Sc0 O13 2.105 . S
Sc0 O16 2.105 . S
Sc0 O19 2.105 . S
Sc1 O3 2.025 . S
Sc1 O11 2.105 . S
Sc1 O15 2.105 . S
Sc1 O17 2.105 . S
Sc1 O21 2.105 . S
Sc2 O3 2.025 . S
Sc2 O12 2.105 . S
Sc2 O14 2.105 . S
Sc2 O18 2.105 . S
Sc2 O20 2.105 . S
O3 Sc0 2.025 . S
O3 Sc1 2.025 . S
O3 Sc2 2.025 . S
C4 O10 1.268 . S
C4 O20 1.268 . S
C5 O11 1.268 . S
C5 O19 1.268 . S
C6 O12 1.268 . S
C6 O21 1.268 . S
C7 O13 1.268 . S
C7 O17 1.268 . S
C8 O14 1.268 . S
C8 O16 1.268 . S
C9 O15 1.268 . S
C9 O18 1.268 . S
O10 Sc0 2.105 . S
O10 C4 1.268 . S
O11 Sc1 2.105 . S
O11 C5 1.268 . S
O12 Sc2 2.105 . S
O12 C6 1.268 . S
O13 Sc0 2.105 . S
O13 C7 1.268 . S
O14 Sc2 2.105 . S
O14 C8 1.268 . S
O15 Sc1 2.105 . S
O15 C9 1.268 . S
O16 Sc0 2.105 . S
O16 C8 1.268 . S
O17 Sc1 2.105 . S
O17 C7 1.268 . S
O18 Sc2 2.105 . S
O18 C9 1.268 . S
O19 Sc0 2.105 . S
O19 C5 1.268 . S
O20 Sc2 2.105 . S
O20 C4 1.268 . S
O21 Sc1 2.105 . S
O21 C6 1.268 . S
Sc22 O25 2.025 . S
Sc22 O32 2.105 . S
Sc22 O35 2.105 . S
Sc22 O38 2.105 . S
Sc22 O41 2.105 . S
Sc23 O25 2.025 . S
Sc23 O33 2.105 . S
Sc23 O37 2.105 . S
Sc23 O39 2.105 . S
Sc23 O43 2.105 . S
Sc24 O25 2.025 . S
Sc24 O34 2.105 . S
Sc24 O36 2.105 . S
Sc24 O40 2.105 . S
Sc24 O42 2.105 . S
O25 Sc22 2.025 . S
O25 Sc23 2.025 . S
O25 Sc24 2.025 . S
C26 O32 1.268 . S
C26 O42 1.268 . S
C27 O33 1.268 . S
C27 O41 1.268 . S
C28 O34 1.268 . S
C28 O43 1.268 . S
C29 O35 1.268 . S
C29 O39 1.268 . S
C30 O36 1.268 . S
C30 O38 1.268 . S
C31 O37 1.268 . S
C31 O40 1.268 . S
O32 Sc22 2.105 . S
O32 C26 1.268 . S
O33 Sc23 2.105 . S
O33 C27 1.268 . S
O34 Sc24 2.105 . S
O34 C28 1.268 . S
O35 Sc22 2.105 . S
O35 C29 1.268 . S
O36 Sc24 2.105 . S
O36 C30 1.268 . S
O37 Sc23 2.105 . S
O37 C31 1.268 . S
O38 Sc22 2.105 . S
O38 C30 1.268 . S
O39 Sc23 2.105 . S
O39 C29 1.268 . S
O40 Sc24 2.105 . S
O40 C31 1.268 . S
O41 Sc22 2.105 . S
O41 C27 1.268 . S
O42 Sc24 2.105 . S
O42 C26 1.268 . S
O43 Sc23 2.105 . S
O43 C28 1.268 . S
Sc44 O47 2.025 . S
Sc44 O54 2.105 . S
Sc44 O57 2.105 . S
Sc44 O60 2.105 . S
Sc44 O63 2.105 . S
Sc45 O47 2.025 . S
Sc45 O55 2.105 . S
Sc45 O59 2.105 . S
Sc45 O61 2.105 . S
Sc45 O65 2.105 . S
Sc46 O47 2.025 . S
Sc46 O56 2.105 . S
Sc46 O58 2.105 . S
Sc46 O62 2.105 . S
Sc46 O64 2.105 . S
O47 Sc44 2.025 . S
O47 Sc45 2.025 . S
O47 Sc46 2.025 . S
C48 O54 1.268 . S
C48 O64 1.268 . S
C49 O55 1.268 . S
C49 O63 1.268 . S
C50 O56 1.268 . S
C50 O65 1.268 . S
C51 O57 1.268 . S
C51 O61 1.268 . S
C52 O58 1.268 . S
C52 O60 1.268 . S
C53 O59 1.268 . S
C53 O62 1.268 . S
O54 Sc44 2.105 . S
O54 C48 1.268 . S
O55 Sc45 2.105 . S
O55 C49 1.268 . S
O56 Sc46 2.105 . S
O56 C50 1.268 . S
O57 Sc44 2.105 . S
O57 C51 1.268 . S
O58 Sc46 2.105 . S
O58 C52 1.268 . S
O59 Sc45 2.105 . S
O59 C53 1.268 . S
O60 Sc44 2.105 . S
O60 C52 1.268 . S
O61 Sc45 2.105 . S
O61 C51 1.268 . S
O62 Sc46 2.105 . S
O62 C53 1.268 . S
O63 Sc44 2.105 . S
O63 C49 1.268 . S
O64 Sc46 2.105 . S
O64 C48 1.268 . S
O65 Sc45 2.105 . S
O65 C50 1.268 . S
Sc66 O69 2.025 . S
Sc66 O76 2.105 . S
Sc66 O79 2.105 . S
Sc66 O82 2.105 . S
Sc66 O85 2.105 . S
Sc67 O69 2.025 . S
Sc67 O77 2.105 . S
Sc67 O81 2.105 . S
Sc67 O83 2.105 . S
Sc67 O87 2.105 . S
Sc68 O69 2.025 . S
Sc68 O78 2.105 . S
Sc68 O80 2.105 . S
Sc68 O84 2.105 . S
Sc68 O86 2.105 . S
O69 Sc66 2.025 . S
O69 Sc67 2.025 . S
O69 Sc68 2.025 . S
C70 O76 1.268 . S
C70 O86 1.268 . S
C71 O77 1.268 . S
C71 O85 1.268 . S
C72 O78 1.268 . S
C72 O87 1.268 . S
C73 O79 1.268 . S
C73 O83 1.268 . S
C74 O80 1.268 . S
C74 O82 1.268 . S
C75 O81 1.268 . S
C75 O84 1.268 . S
O76 Sc66 2.105 . S
O76 C70 1.268 . S
O77 Sc67 2.105 . S
O77 C71 1.268 . S
O78 Sc68 2.105 . S
O78 C72 1.268 . S
O79 Sc66 2.105 . S
O79 C73 1.268 . S
O80 Sc68 2.105 . S
O80 C74 1.268 . S
O81 Sc67 2.105 . S
O81 C75 1.268 . S
O82 Sc66 2.105 . S
O82 C74 1.268 . S
O83 Sc67 2.105 . S
O83 C73 1.268 . S
O84 Sc68 2.105 . S
O84 C75 1.268 . S
O85 Sc66 2.105 . S
O85 C71 1.268 . S
O86 Sc68 2.105 . S
O86 C70 1.268 . S
O87 Sc67 2.105 . S
O87 C72 1.268 . S
Sc88 O91 2.025 . S
Sc88 O98 2.105 . S
Sc88 O101 2.105 . S
Sc88 O104 2.105 . S
Sc88 O107 2.105 . S
Sc89 O91 2.025 . S
Sc89 O99 2.105 . S
Sc89 O103 2.105 . S
Sc89 O105 2.105 . S
Sc89 O109 2.105 . S
Sc90 O91 2.025 . S
Sc90 O100 2.105 . S
Sc90 O102 2.105 . S
Sc90 O106 2.105 . S
Sc90 O108 2.105 . S
O91 Sc88 2.025 . S
O91 Sc89 2.025 . S
O91 Sc90 2.025 . S
C92 O98 1.268 . S
C92 O108 1.268 . S
C93 O99 1.268 . S
C93 O107 1.268 . S
C94 O100 1.268 . S
C94 O109 1.268 . S
C95 O101 1.268 . S
C95 O105 1.268 . S
C96 O102 1.268 . S
C96 O104 1.268 . S
C97 O103 1.268 . S
C97 O106 1.268 . S
O98 Sc88 2.105 . S
O98 C92 1.268 . S
O99 Sc89 2.105 . S
O99 C93 1.268 . S
O100 Sc90 2.105 . S
O100 C94 1.268 . S
O101 Sc88 2.105 . S
O101 C95 1.268 . S
O102 Sc90 2.105 . S
O102 C96 1.268 . S
O103 Sc89 2.105 . S
O103 C97 1.268 . S
O104 Sc88 2.105 . S
O104 C96 1.268 . S
O105 Sc89 2.105 . S
O105 C95 1.268 . S
O106 Sc90 2.105 . S
O106 C97 1.268 . S
O107 Sc88 2.105 . S
O107 C93 1.268 . S
O108 Sc90 2.105 . S
O108 C92 1.268 . S
O109 Sc89 2.105 . S
O109 C94 1.268 . S
Sc110 O113 2.025 . S
Sc110 O120 2.105 . S
Sc110 O123 2.105 . S
Sc110 O126 2.105 . S
Sc110 O129 2.105 . S
Sc111 O113 2.025 . S
Sc111 O121 2.105 . S
Sc111 O125 2.105 . S
Sc111 O127 2.105 . S
Sc111 O131 2.105 . S
Sc112 O113 2.025 . S
Sc112 O122 2.105 . S
Sc112 O124 2.105 . S
Sc112 O128 2.105 . S
Sc112 O130 2.105 . S
O113 Sc110 2.025 . S
O113 Sc111 2.025 . S
O113 Sc112 2.025 . S
C114 O120 1.268 . S
C114 O130 1.268 . S
C115 O121 1.268 . S
C115 O129 1.268 . S
C116 O122 1.268 . S
C116 O131 1.268 . S
C117 O123 1.268 . S
C117 O127 1.268 . S
C118 O124 1.268 . S
C118 O126 1.268 . S
C119 O125 1.268 . S
C119 O128 1.268 . S
O120 Sc110 2.105 . S
O120 C114 1.268 . S
O121 Sc111 2.105 . S
O121 C115 1.268 . S
O122 Sc112 2.105 . S
O122 C116 1.268 . S
O123 Sc110 2.105 . S
O123 C117 1.268 . S
O124 Sc112 2.105 . S
O124 C118 1.268 . S
O125 Sc111 2.105 . S
O125 C119 1.268 . S
O126 Sc110 2.105 . S
O126 C118 1.268 . S
O127 Sc111 2.105 . S
O127 C117 1.268 . S
O128 Sc112 2.105 . S
O128 C119 1.268 . S
O129 Sc110 2.105 . S
O129 C115 1.268 . S
O130 Sc112 2.105 . S
O130 C114 1.268 . S
O131 Sc111 2.105 . S
O131 C116 1.268 . S
Sc132 O135 2.025 . S
Sc132 O142 2.105 . S
Sc132 O145 2.105 . S
Sc132 O148 2.105 . S
Sc132 O151 2.105 . S
Sc133 O135 2.025 . S
Sc133 O143 2.105 . S
Sc133 O147 2.105 . S
Sc133 O149 2.105 . S
Sc133 O153 2.105 . S
Sc134 O135 2.025 . S
Sc134 O144 2.105 . S
Sc134 O146 2.105 . S
Sc134 O150 2.105 . S
Sc134 O152 2.105 . S
O135 Sc132 2.025 . S
O135 Sc133 2.025 . S
O135 Sc134 2.025 . S
C136 O142 1.268 . S
C136 O152 1.268 . S
C137 O143 1.268 . S
C137 O151 1.268 . S
C138 O144 1.268 . S
C138 O153 1.268 . S
C139 O145 1.268 . S
C139 O149 1.268 . S
C140 O146 1.268 . S
C140 O148 1.268 . S
C141 O147 1.268 . S
C141 O150 1.268 . S
O142 Sc132 2.105 . S
O142 C136 1.268 . S
O143 Sc133 2.105 . S
O143 C137 1.268 . S
O144 Sc134 2.105 . S
O144 C138 1.268 . S
O145 Sc132 2.105 . S
O145 C139 1.268 . S
O146 Sc134 2.105 . S
O146 C140 1.268 . S
O147 Sc133 2.105 . S
O147 C141 1.268 . S
O148 Sc132 2.105 . S
O148 C140 1.268 . S
O149 Sc133 2.105 . S
O149 C139 1.268 . S
O150 Sc134 2.105 . S
O150 C141 1.268 . S
O151 Sc132 2.105 . S
O151 C137 1.268 . S
O152 Sc134 2.105 . S
O152 C136 1.268 . S
O153 Sc133 2.105 . S
O153 C138 1.268 . S
Sc154 O157 2.025 . S
Sc154 O164 2.105 . S
Sc154 O167 2.105 . S
Sc154 O170 2.105 . S
Sc154 O173 2.105 . S
Sc155 O157 2.025 . S
Sc155 O165 2.105 . S
Sc155 O169 2.105 . S
Sc155 O171 2.105 . S
Sc155 O175 2.105 . S
Sc156 O157 2.025 . S
Sc156 O166 2.105 . S
Sc156 O168 2.105 . S
Sc156 O172 2.105 . S
Sc156 O174 2.105 . S
O157 Sc154 2.025 . S
O157 Sc155 2.025 . S
O157 Sc156 2.025 . S
C158 O164 1.268 . S
C158 O174 1.268 . S
C159 O165 1.268 . S
C159 O173 1.268 . S
C160 O166 1.268 . S
C160 O175 1.268 . S
C161 O167 1.268 . S
C161 O171 1.268 . S
C162 O168 1.268 . S
C162 O170 1.268 . S
C163 O169 1.268 . S
C163 O172 1.268 . S
O164 Sc154 2.105 . S
O164 C158 1.268 . S
O165 Sc155 2.105 . S
O165 C159 1.268 . S
O166 Sc156 2.105 . S
O166 C160 1.268 . S
O167 Sc154 2.105 . S
O167 C161 1.268 . S
O168 Sc156 2.105 . S
O168 C162 1.268 . S
O169 Sc155 2.105 . S
O169 C163 1.268 . S
O170 Sc154 2.105 . S
O170 C162 1.268 . S
O171 Sc155 2.105 . S
O171 C161 1.268 . S
O172 Sc156 2.105 . S
O172 C163 1.268 . S
O173 Sc154 2.105 . S
O173 C159 1.268 . S
O174 Sc156 2.105 . S
O174 C158 1.268 . S
O175 Sc155 2.105 . S
O175 C160 1.268 . S
H176 C194 0.951 . S
H177 C196 0.951 . S
H178 C198 0.950 . S
H179 C199 0.950 . S
H180 C201 0.950 . S
H181 C204 0.950 . S
H182 C205 0.950 . S
H183 C207 0.950 . S
H184 C208 0.950 . S
H185 C209 0.951 . S
H186 C211 0.951 . S
H187 C213 0.950 . S
H188 C214 0.950 . S
H189 C216 0.950 . S
H190 C219 0.950 . S
H191 C220 0.950 . S
H192 C222 0.950 . S
H193 C223 0.950 . S
C194 H176 0.951 . S
C194 C195 1.366 . S
C194 C196 1.388 . S
C195 C194 1.366 . S
C195 C199 1.385 . S
C196 H177 0.951 . S
C196 C194 1.388 . S
C196 C197 1.366 . S
C197 C196 1.366 . S
C197 C198 1.414 . S
C197 C200 1.499 . S
C198 H178 0.950 . S
C198 C197 1.414 . S
C198 C199 1.374 . S
C199 H179 0.950 . S
C199 C195 1.385 . S
C199 C198 1.374 . S
C200 C197 1.499 . S
C200 C201 1.373 . S
C200 C202 1.389 . S
C201 H180 0.950 . S
C201 C200 1.373 . S
C201 C217 1.377 . S
C202 C200 1.389 . S
C202 C203 1.524 . S
C202 C216 1.377 . S
C203 C202 1.524 . S
C203 C204 1.397 . S
C203 C208 1.363 . S
C204 H181 0.950 . S
C204 C203 1.397 . S
C204 C205 1.334 . S
C205 H182 0.950 . S
C205 C204 1.334 . S
C205 C206 1.287 . S
C206 C205 1.287 . S
C206 C207 1.524 . S
C206 H225 0.913 . S
C207 H183 0.950 . S
C207 C206 1.524 . S
C207 C208 1.415 . S
C208 H184 0.950 . S
C208 C203 1.363 . S
C208 C207 1.415 . S
C209 H185 0.951 . S
C209 C210 1.366 . S
C209 C211 1.388 . S
C210 C209 1.366 . S
C210 C214 1.385 . S
C211 H186 0.951 . S
C211 C209 1.388 . S
C211 C212 1.366 . S
C212 C211 1.366 . S
C212 C213 1.414 . S
C212 C215 1.499 . S
C213 H187 0.950 . S
C213 C212 1.414 . S
C213 C214 1.374 . S
C214 H188 0.950 . S
C214 C210 1.385 . S
C214 C213 1.374 . S
C215 C212 1.499 . S
C215 C216 1.373 . S
C215 C217 1.389 . S
C216 H189 0.950 . S
C216 C202 1.377 . S
C216 C215 1.373 . S
C217 C201 1.377 . S
C217 C215 1.389 . S
C217 C218 1.524 . S
C218 C217 1.524 . S
C218 C219 1.397 . S
C218 C223 1.363 . S
C219 H190 0.950 . S
C219 C218 1.397 . S
C219 C220 1.334 . S
C220 H191 0.950 . S
C220 C219 1.334 . S
C220 C221 1.287 . S
C221 C220 1.287 . S
C221 C222 1.524 . S
C221 H224 0.999 . S
C222 H192 0.950 . S
C222 C221 1.524 . S
C222 C223 1.415 . S
C223 H193 0.950 . S
C223 C218 1.363 . S
C223 C222 1.415 . S
H224 C221 0.999 . S
H225 C206 0.913 . S
H226 C244 0.951 . S
H227 C246 0.951 . S
H228 C248 0.950 . S
H229 C249 0.950 . S
H230 C251 0.950 . S
H231 C254 0.950 . S
H232 C255 0.950 . S
H233 C257 0.950 . S
H234 C258 0.950 . S
H235 C259 0.951 . S
H236 C261 0.951 . S
H237 C263 0.950 . S
H238 C264 0.950 . S
H239 C266 0.950 . S
H240 C269 0.950 . S
H241 C270 0.950 . S
H242 C272 0.950 . S
H243 C273 0.950 . S
C244 H226 0.951 . S
C244 C245 1.366 . S
C244 C246 1.388 . S
C245 C244 1.366 . S
C245 C249 1.385 . S
C246 H227 0.951 . S
C246 C244 1.388 . S
C246 C247 1.366 . S
C247 C246 1.366 . S
C247 C248 1.414 . S
C247 C250 1.499 . S
C248 H228 0.950 . S
C248 C247 1.414 . S
C248 C249 1.374 . S
C249 H229 0.950 . S
C249 C245 1.385 . S
C249 C248 1.374 . S
C250 C247 1.499 . S
C250 C251 1.373 . S
C250 C252 1.389 . S
C251 H230 0.950 . S
C251 C250 1.373 . S
C251 C267 1.377 . S
C252 C250 1.389 . S
C252 C253 1.524 . S
C252 C266 1.377 . S
C253 C252 1.524 . S
C253 C254 1.397 . S
C253 C258 1.363 . S
C254 H231 0.950 . S
C254 C253 1.397 . S
C254 C255 1.334 . S
C255 H232 0.950 . S
C255 C254 1.334 . S
C255 C256 1.287 . S
C256 C255 1.287 . S
C256 C257 1.524 . S
C256 H275 0.913 . S
C257 H233 0.950 . S
C257 C256 1.524 . S
C257 C258 1.415 . S
C258 H234 0.950 . S
C258 C253 1.363 . S
C258 C257 1.415 . S
C259 H235 0.951 . S
C259 C260 1.366 . S
C259 C261 1.388 . S
C260 C259 1.366 . S
C260 C264 1.385 . S
C261 H236 0.951 . S
C261 C259 1.388 . S
C261 C262 1.366 . S
C262 C261 1.366 . S
C262 C263 1.414 . S
C262 C265 1.499 . S
C263 H237 0.950 . S
C263 C262 1.414 . S
C263 C264 1.374 . S
C264 H238 0.950 . S
C264 C260 1.385 . S
C264 C263 1.374 . S
C265 C262 1.499 . S
C265 C266 1.373 . S
C265 C267 1.389 . S
C266 H239 0.950 . S
C266 C252 1.377 . S
C266 C265 1.373 . S
C267 C251 1.377 . S
C267 C265 1.389 . S
C267 C268 1.524 . S
C268 C267 1.524 . S
C268 C269 1.397 . S
C268 C273 1.363 . S
C269 H240 0.950 . S
C269 C268 1.397 . S
C269 C270 1.334 . S
C270 H241 0.950 . S
C270 C269 1.334 . S
C270 C271 1.287 . S
C271 C270 1.287 . S
C271 C272 1.524 . S
C271 H274 0.999 . S
C272 H242 0.950 . S
C272 C271 1.524 . S
C272 C273 1.415 . S
C273 H243 0.950 . S
C273 C268 1.363 . S
C273 C272 1.415 . S
H274 C271 0.999 . S
H275 C256 0.913 . S
H276 C294 0.951 . S
H277 C296 0.951 . S
H278 C298 0.950 . S
H279 C299 0.950 . S
H280 C301 0.950 . S
H281 C304 0.950 . S
H282 C305 0.950 . S
H283 C307 0.950 . S
H284 C308 0.950 . S
H285 C309 0.951 . S
H286 C311 0.951 . S
H287 C313 0.950 . S
H288 C314 0.950 . S
H289 C316 0.950 . S
H290 C319 0.950 . S
H291 C320 0.950 . S
H292 C322 0.950 . S
H293 C323 0.950 . S
C294 H276 0.951 . S
C294 C295 1.366 . S
C294 C296 1.388 . S
C295 C294 1.366 . S
C295 C299 1.385 . S
C296 H277 0.951 . S
C296 C294 1.388 . S
C296 C297 1.366 . S
C297 C296 1.366 . S
C297 C298 1.414 . S
C297 C300 1.499 . S
C298 H278 0.950 . S
C298 C297 1.414 . S
C298 C299 1.374 . S
C299 H279 0.950 . S
C299 C295 1.385 . S
C299 C298 1.374 . S
C300 C297 1.499 . S
C300 C301 1.373 . S
C300 C302 1.389 . S
C301 H280 0.950 . S
C301 C300 1.373 . S
C301 C317 1.377 1_455 S
C302 C300 1.389 . S
C302 C303 1.524 . S
C302 C316 1.377 1_455 S
C303 C302 1.524 . S
C303 C304 1.397 . S
C303 C308 1.363 . S
C304 H281 0.950 . S
C304 C303 1.397 . S
C304 C305 1.334 . S
C305 H282 0.950 . S
C305 C304 1.334 . S
C305 C306 1.287 . S
C306 C305 1.287 . S
C306 C307 1.524 . S
C306 H325 0.913 . S
C307 H283 0.950 . S
C307 C306 1.524 . S
C307 C308 1.415 . S
C308 H284 0.950 . S
C308 C303 1.363 . S
C308 C307 1.415 . S
C309 H285 0.951 . S
C309 C310 1.366 . S
C309 C311 1.388 . S
C310 C309 1.366 . S
C310 C314 1.385 . S
C311 H286 0.951 . S
C311 C309 1.388 . S
C311 C312 1.366 . S
C312 C311 1.366 . S
C312 C313 1.414 . S
C312 C315 1.499 . S
C313 H287 0.950 . S
C313 C312 1.414 . S
C313 C314 1.374 . S
C314 H288 0.950 . S
C314 C310 1.385 . S
C314 C313 1.374 . S
C315 C312 1.499 . S
C315 C316 1.373 . S
C315 C317 1.389 . S
C316 H289 0.950 . S
C316 C302 1.377 1_655 S
C316 C315 1.373 . S
C317 C301 1.377 1_655 S
C317 C315 1.389 . S
C317 C318 1.524 . S
C318 C317 1.524 . S
C318 C319 1.397 . S
C318 C323 1.363 . S
C319 H290 0.950 . S
C319 C318 1.397 . S
C319 C320 1.334 . S
C320 H291 0.950 . S
C320 C319 1.334 . S
C320 C321 1.287 . S
C321 C320 1.287 . S
C321 C322 1.524 . S
C321 H324 0.999 . S
C322 H292 0.950 . S
C322 C321 1.524 . S
C322 C323 1.415 . S
C323 H293 0.950 . S
C323 C318 1.363 . S
C323 C322 1.415 . S
H324 C321 0.999 . S
H325 C306 0.913 . S
H326 C344 0.951 . S
H327 C346 0.951 . S
H328 C348 0.950 . S
H329 C349 0.950 . S
H330 C351 0.950 . S
H331 C354 0.950 . S
H332 C355 0.950 . S
H333 C357 0.950 . S
H334 C358 0.950 . S
H335 C359 0.951 . S
H336 C361 0.951 . S
H337 C363 0.950 . S
H338 C364 0.950 . S
H339 C366 0.950 . S
H340 C369 0.950 . S
H341 C370 0.950 . S
H342 C372 0.950 . S
H343 C373 0.950 . S
C344 H326 0.951 . S
C344 C345 1.366 . S
C344 C346 1.388 . S
C345 C344 1.366 . S
C345 C349 1.385 . S
C346 H327 0.951 . S
C346 C344 1.388 . S
C346 C347 1.366 . S
C347 C346 1.366 . S
C347 C348 1.414 . S
C347 C350 1.499 . S
C348 H328 0.950 . S
C348 C347 1.414 . S
C348 C349 1.374 . S
C349 H329 0.950 . S
C349 C345 1.385 . S
C349 C348 1.374 . S
C350 C347 1.499 . S
C350 C351 1.373 . S
C350 C352 1.389 . S
C351 H330 0.950 . S
C351 C350 1.373 . S
C351 C367 1.377 1_455 S
C352 C350 1.389 . S
C352 C353 1.524 . S
C352 C366 1.377 1_455 S
C353 C352 1.524 . S
C353 C354 1.397 . S
C353 C358 1.363 . S
C354 H331 0.950 . S
C354 C353 1.397 . S
C354 C355 1.334 . S
C355 H332 0.950 . S
C355 C354 1.334 . S
C355 C356 1.287 . S
C356 C355 1.287 . S
C356 C357 1.524 . S
C356 H375 0.913 . S
C357 H333 0.950 . S
C357 C356 1.524 . S
C357 C358 1.415 . S
C358 H334 0.950 . S
C358 C353 1.363 . S
C358 C357 1.415 . S
C359 H335 0.951 . S
C359 C360 1.366 . S
C359 C361 1.388 . S
C360 C359 1.366 . S
C360 C364 1.385 . S
C361 H336 0.951 . S
C361 C359 1.388 . S
C361 C362 1.366 . S
C362 C361 1.366 . S
C362 C363 1.414 . S
C362 C365 1.499 . S
C363 H337 0.950 . S
C363 C362 1.414 . S
C363 C364 1.374 . S
C364 H338 0.950 . S
C364 C360 1.385 . S
C364 C363 1.374 . S
C365 C362 1.499 . S
C365 C366 1.373 . S
C365 C367 1.389 . S
C366 H339 0.950 . S
C366 C352 1.377 1_655 S
C366 C365 1.373 . S
C367 C351 1.377 1_655 S
C367 C365 1.389 . S
C367 C368 1.524 . S
C368 C367 1.524 . S
C368 C369 1.397 . S
C368 C373 1.363 . S
C369 H340 0.950 . S
C369 C368 1.397 . S
C369 C370 1.334 . S
C370 H341 0.950 . S
C370 C369 1.334 . S
C370 C371 1.287 . S
C371 C370 1.287 . S
C371 C372 1.524 . S
C371 H374 1.004 . S
C372 H342 0.950 . S
C372 C371 1.524 . S
C372 C373 1.415 . S
C373 H343 0.950 . S
C373 C368 1.363 . S
C373 C372 1.415 . S
H374 C371 1.004 . S
H375 C356 0.913 . S
H376 C394 0.951 . S
H377 C396 0.951 . S
H378 C398 0.950 1_556 S
H379 C399 0.950 . S
H380 C401 0.950 . S
H381 C404 0.950 . S
H382 C405 0.950 . S
H383 C407 0.950 . S
H384 C408 0.950 . S
H385 C409 0.951 . S
H386 C411 0.951 . S
H387 C413 0.950 1_554 S
H388 C414 0.950 . S
H389 C416 0.950 . S
H390 C419 0.950 . S
H391 C420 0.950 . S
H392 C422 0.950 . S
H393 C423 0.950 . S
C394 H376 0.951 . S
C394 C395 1.366 . S
C394 C396 1.388 . S
C395 C394 1.366 . S
C395 C399 1.385 . S
C396 H377 0.951 . S
C396 C394 1.388 . S
C396 C397 1.366 . S
C397 C396 1.366 . S
C397 C398 1.414 . S
C397 C400 1.499 . S
C398 H378 0.950 1_554 S
C398 C397 1.414 . S
C398 C399 1.374 . S
C399 H379 0.950 . S
C399 C395 1.385 . S
C399 C398 1.374 . S
C400 C397 1.499 . S
C400 C401 1.373 1_554 S
C400 C402 1.389 . S
C401 H380 0.950 . S
C401 C400 1.373 1_556 S
C401 C417 1.377 . S
C402 C400 1.389 . S
C402 C403 1.524 . S
C402 C416 1.377 . S
C403 C402 1.524 . S
C403 C404 1.397 . S
C403 C408 1.363 . S
C404 H381 0.950 . S
C404 C403 1.397 . S
C404 C405 1.334 . S
C405 H382 0.950 . S
C405 C404 1.334 . S
C405 C406 1.287 . S
C406 C405 1.287 . S
C406 C407 1.524 . S
C406 H425 0.913 . S
C407 H383 0.950 . S
C407 C406 1.524 . S
C407 C408 1.415 . S
C408 H384 0.950 . S
C408 C403 1.363 . S
C408 C407 1.415 . S
C409 H385 0.951 . S
C409 C410 1.366 . S
C409 C411 1.388 . S
C410 C409 1.366 . S
C410 C414 1.385 . S
C411 H386 0.951 . S
C411 C409 1.388 . S
C411 C412 1.366 . S
C412 C411 1.366 . S
C412 C413 1.414 . S
C412 C415 1.499 . S
C413 H387 0.950 1_556 S
C413 C412 1.414 . S
C413 C414 1.374 . S
C414 H388 0.950 . S
C414 C410 1.385 . S
C414 C413 1.374 . S
C415 C412 1.499 . S
C415 C416 1.373 1_556 S
C415 C417 1.389 . S
C416 H389 0.950 . S
C416 C402 1.377 . S
C416 C415 1.373 1_554 S
C417 C401 1.377 . S
C417 C415 1.389 . S
C417 C418 1.524 . S
C418 C417 1.524 . S
C418 C419 1.397 . S
C418 C423 1.363 . S
C419 H390 0.950 . S
C419 C418 1.397 . S
C419 C420 1.334 . S
C420 H391 0.950 . S
C420 C419 1.334 . S
C420 C421 1.287 . S
C421 C420 1.287 . S
C421 C422 1.524 . S
C421 H424 0.999 . S
C422 H392 0.950 . S
C422 C421 1.524 . S
C422 C423 1.415 . S
C423 H393 0.950 . S
C423 C418 1.363 . S
C423 C422 1.415 . S
H424 C421 0.999 . S
H425 C406 0.913 . S
H426 C444 0.951 . S
H427 C446 0.951 . S
H428 C448 0.950 . S
H429 C449 0.950 . S
H430 C451 0.950 . S
H431 C454 0.950 . S
H432 C455 0.950 . S
H433 C457 0.950 . S
H434 C458 0.950 . S
H435 C459 0.951 . S
H436 C461 0.951 . S
H437 C463 0.950 . S
H438 C464 0.950 . S
H439 C466 0.950 . S
H440 C469 0.950 . S
H441 C470 0.950 . S
H442 C472 0.950 . S
H443 C473 0.950 . S
C444 H426 0.951 . S
C444 C445 1.366 . S
C444 C446 1.388 . S
C445 C444 1.366 . S
C445 C449 1.385 . S
C446 H427 0.951 . S
C446 C444 1.388 . S
C446 C447 1.366 . S
C447 C446 1.366 . S
C447 C448 1.414 . S
C447 C450 1.499 . S
C448 H428 0.950 . S
C448 C447 1.414 . S
C448 C449 1.374 . S
C449 H429 0.950 . S
C449 C445 1.385 . S
C449 C448 1.374 . S
C450 C447 1.499 . S
C450 C451 1.373 . S
C450 C452 1.389 . S
C451 H430 0.950 . S
C451 C450 1.373 . S
C451 C467 1.377 . S
C452 C450 1.389 . S
C452 C453 1.524 . S
C452 C466 1.377 . S
C453 C452 1.524 . S
C453 C454 1.397 . S
C453 C458 1.363 . S
C454 H431 0.950 . S
C454 C453 1.397 . S
C454 C455 1.334 . S
C455 H432 0.950 . S
C455 C454 1.334 . S
C455 C456 1.287 . S
C456 C455 1.287 . S
C456 C457 1.524 . S
C456 H475 0.913 . S
C457 H433 0.950 . S
C457 C456 1.524 . S
C457 C458 1.415 . S
C458 H434 0.950 . S
C458 C453 1.363 . S
C458 C457 1.415 . S
C459 H435 0.951 . S
C459 C460 1.366 . S
C459 C461 1.388 . S
C460 C459 1.366 . S
C460 C464 1.385 . S
C461 H436 0.951 . S
C461 C459 1.388 . S
C461 C462 1.366 . S
C462 C461 1.366 . S
C462 C463 1.414 . S
C462 C465 1.499 . S
C463 H437 0.950 . S
C463 C462 1.414 . S
C463 C464 1.374 . S
C464 H438 0.950 . S
C464 C460 1.385 . S
C464 C463 1.374 . S
C465 C462 1.499 . S
C465 C466 1.373 . S
C465 C467 1.389 . S
C466 H439 0.950 . S
C466 C452 1.377 . S
C466 C465 1.373 . S
C467 C451 1.377 . S
C467 C465 1.389 . S
C467 C468 1.524 . S
C468 C467 1.524 . S
C468 C469 1.397 . S
C468 C473 1.363 . S
C469 H440 0.950 . S
C469 C468 1.397 . S
C469 C470 1.334 . S
C470 H441 0.950 . S
C470 C469 1.334 . S
C470 C471 1.287 . S
C471 C470 1.287 . S
C471 C472 1.524 . S
C471 H474 0.999 . S
C472 H442 0.950 . S
C472 C471 1.524 . S
C472 C473 1.415 . S
C473 H443 0.950 . S
C473 C468 1.363 . S
C473 C472 1.415 . S
H474 C471 0.999 . S
H475 C456 0.913 . S
H476 C494 0.951 . S
H477 C496 0.951 . S
H478 C498 0.950 . S
H479 C499 0.950 . S
H480 C501 0.950 . S
H481 C504 0.950 . S
H482 C505 0.950 . S
H483 C507 0.950 . S
H484 C508 0.950 . S
H485 C509 0.951 . S
H486 C511 0.951 . S
H487 C513 0.950 . S
H488 C514 0.950 . S
H489 C516 0.950 . S
H490 C519 0.950 . S
H491 C520 0.950 . S
H492 C522 0.950 . S
H493 C523 0.950 . S
C494 H476 0.951 . S
C494 C495 1.366 . S
C494 C496 1.388 . S
C495 C494 1.366 . S
C495 C499 1.385 . S
C496 H477 0.951 . S
C496 C494 1.388 . S
C496 C497 1.366 . S
C497 C496 1.366 . S
C497 C498 1.414 . S
C497 C500 1.499 . S
C498 H478 0.950 . S
C498 C497 1.414 . S
C498 C499 1.374 . S
C499 H479 0.950 . S
C499 C495 1.385 . S
C499 C498 1.374 . S
C500 C497 1.499 . S
C500 C501 1.373 1_554 S
C500 C502 1.389 . S
C501 H480 0.950 . S
C501 C500 1.373 1_556 S
C501 C517 1.377 . S
C502 C500 1.389 . S
C502 C503 1.524 . S
C502 C516 1.377 . S
C503 C502 1.524 . S
C503 C504 1.397 . S
C503 C508 1.363 . S
C504 H481 0.950 . S
C504 C503 1.397 . S
C504 C505 1.334 . S
C505 H482 0.950 . S
C505 C504 1.334 . S
C505 C506 1.287 . S
C506 C505 1.287 . S
C506 C507 1.524 . S
C506 H525 0.913 . S
C507 H483 0.950 . S
C507 C506 1.524 . S
C507 C508 1.415 . S
C508 H484 0.950 . S
C508 C503 1.363 . S
C508 C507 1.415 . S
C509 H485 0.951 . S
C509 C510 1.366 . S
C509 C511 1.388 . S
C510 C509 1.366 . S
C510 C514 1.385 . S
C511 H486 0.951 . S
C511 C509 1.388 . S
C511 C512 1.366 . S
C512 C511 1.366 . S
C512 C513 1.414 . S
C512 C515 1.499 . S
C513 H487 0.950 . S
C513 C512 1.414 . S
C513 C514 1.374 . S
C514 H488 0.950 . S
C514 C510 1.385 . S
C514 C513 1.374 . S
C515 C512 1.499 . S
C515 C516 1.373 1_556 S
C515 C517 1.389 . S
C516 H489 0.950 . S
C516 C502 1.377 . S
C516 C515 1.373 1_554 S
C517 C501 1.377 . S
C517 C515 1.389 . S
C517 C518 1.524 . S
C518 C517 1.524 . S
C518 C519 1.397 . S
C518 C523 1.363 . S
C519 H490 0.950 . S
C519 C518 1.397 . S
C519 C520 1.334 . S
C520 H491 0.950 . S
C520 C519 1.334 . S
C520 C521 1.287 . S
C521 C520 1.287 . S
C521 C522 1.524 . S
C521 H524 0.999 . S
C522 H492 0.950 . S
C522 C521 1.524 . S
C522 C523 1.415 . S
C523 H493 0.950 . S
C523 C518 1.363 . S
C523 C522 1.415 . S
H524 C521 0.999 . S
H525 C506 0.913 . S
H526 C544 0.951 . S
H527 C546 0.951 . S
H528 C548 0.950 . S
H529 C549 0.950 . S
H530 C551 0.950 . S
H531 C554 0.950 . S
H532 C555 0.950 . S
H533 C557 0.950 . S
H534 C558 0.950 . S
H535 C559 0.951 . S
H536 C561 0.951 . S
H537 C563 0.950 . S
H538 C564 0.950 . S
H539 C566 0.950 . S
H540 C569 0.950 . S
H541 C570 0.950 . S
H542 C572 0.950 . S
H543 C573 0.950 . S
C544 H526 0.951 . S
C544 C545 1.366 . S
C544 C546 1.388 . S
C545 C544 1.366 . S
C545 C549 1.385 . S
C546 H527 0.951 . S
C546 C544 1.388 . S
C546 C547 1.366 . S
C547 C546 1.366 . S
C547 C548 1.414 . S
C547 C550 1.499 . S
C548 H528 0.950 . S
C548 C547 1.414 . S
C548 C549 1.374 . S
C549 H529 0.950 . S
C549 C545 1.385 . S
C549 C548 1.374 . S
C550 C547 1.499 . S
C550 C551 1.373 . S
C550 C552 1.389 . S
C551 H530 0.950 . S
C551 C550 1.373 . S
C551 C567 1.377 . S
C552 C550 1.389 . S
C552 C553 1.524 . S
C552 C566 1.377 . S
C553 C552 1.524 . S
C553 C554 1.397 . S
C553 C558 1.363 . S
C554 H531 0.950 . S
C554 C553 1.397 . S
C554 C555 1.334 . S
C555 H532 0.950 . S
C555 C554 1.334 . S
C555 C556 1.287 . S
C556 C555 1.287 . S
C556 C557 1.524 . S
C556 H575 0.913 . S
C557 H533 0.950 . S
C557 C556 1.524 . S
C557 C558 1.415 . S
C558 H534 0.950 . S
C558 C553 1.363 . S
C558 C557 1.415 . S
C559 H535 0.951 . S
C559 C560 1.366 . S
C559 C561 1.388 . S
C560 C559 1.366 . S
C560 C564 1.385 . S
C561 H536 0.951 . S
C561 C559 1.388 . S
C561 C562 1.366 . S
C562 C561 1.366 . S
C562 C563 1.414 . S
C562 C565 1.499 . S
C563 H537 0.950 . S
C563 C562 1.414 . S
C563 C564 1.374 . S
C564 H538 0.950 . S
C564 C560 1.385 . S
C564 C563 1.374 . S
C565 C562 1.499 . S
C565 C566 1.373 . S
C565 C567 1.389 . S
C566 H539 0.950 . S
C566 C552 1.377 . S
C566 C565 1.373 . S
C567 C551 1.377 . S
C567 C565 1.389 . S
C567 C568 1.524 . S
C568 C567 1.524 . S
C568 C569 1.397 . S
C568 C573 1.363 . S
C569 H540 0.950 . S
C569 C568 1.397 . S
C569 C570 1.334 . S
C570 H541 0.950 . S
C570 C569 1.334 . S
C570 C571 1.287 . S
C571 C570 1.287 . S
C571 C572 1.524 . S
C571 H574 0.999 . S
C572 H542 0.950 . S
C572 C571 1.524 . S
C572 C573 1.415 . S
C573 H543 0.950 . S
C573 C568 1.363 . S
C573 C572 1.415 . S
H574 C571 0.999 . S
H575 C556 0.913 . S
H576 C594 0.951 . S
H577 C596 0.951 . S
H578 C598 0.950 . S
H579 C599 0.950 . S
H580 C601 0.950 . S
H581 C604 0.950 . S
H582 C605 0.950 . S
H583 C607 0.950 . S
H584 C608 0.950 . S
H585 C609 0.951 . S
H586 C611 0.951 . S
H587 C613 0.950 . S
H588 C614 0.950 . S
H589 C616 0.950 . S
H590 C619 0.950 . S
H591 C620 0.950 . S
H592 C622 0.950 . S
H593 C623 0.950 . S
C594 H576 0.951 . S
C594 C595 1.366 . S
C594 C596 1.388 . S
C595 C594 1.366 . S
C595 C599 1.385 . S
C596 H577 0.951 . S
C596 C594 1.388 . S
C596 C597 1.366 . S
C597 C596 1.366 . S
C597 C598 1.414 . S
C597 C600 1.499 . S
C598 H578 0.950 . S
C598 C597 1.414 . S
C598 C599 1.374 . S
C599 H579 0.950 . S
C599 C595 1.385 . S
C599 C598 1.374 . S
C600 C597 1.499 . S
C600 C601 1.373 . S
C600 C602 1.389 1_556 S
C601 H580 0.950 . S
C601 C600 1.373 . S
C601 C617 1.377 1_655 S
C602 C600 1.389 1_554 S
C602 C603 1.524 . S
C602 C616 1.377 1_655 S
C603 C602 1.524 . S
C603 C604 1.397 . S
C603 C608 1.363 . S
C604 H581 0.950 . S
C604 C603 1.397 . S
C604 C605 1.334 . S
C605 H582 0.950 . S
C605 C604 1.334 . S
C605 C606 1.287 . S
C606 C605 1.287 . S
C606 C607 1.524 . S
C606 H625 0.913 . S
C607 H583 0.950 . S
C607 C606 1.524 . S
C607 C608 1.415 . S
C608 H584 0.950 . S
C608 C603 1.363 . S
C608 C607 1.415 . S
C609 H585 0.951 . S
C609 C610 1.366 . S
C609 C611 1.388 . S
C610 C609 1.366 . S
C610 C614 1.385 . S
C611 H586 0.951 . S
C611 C609 1.388 . S
C611 C612 1.366 . S
C612 C611 1.366 . S
C612 C613 1.414 . S
C612 C615 1.499 . S
C613 H587 0.950 . S
C613 C612 1.414 . S
C613 C614 1.374 . S
C614 H588 0.950 . S
C614 C610 1.385 . S
C614 C613 1.374 . S
C615 C612 1.499 . S
C615 C616 1.373 . S
C615 C617 1.389 1_554 S
C616 H589 0.950 . S
C616 C602 1.377 1_455 S
C616 C615 1.373 . S
C617 C601 1.377 1_455 S
C617 C615 1.389 1_556 S
C617 C618 1.524 . S
C618 C617 1.524 . S
C618 C619 1.397 . S
C618 C623 1.363 . S
C619 H590 0.950 . S
C619 C618 1.397 . S
C619 C620 1.334 . S
C620 H591 0.950 . S
C620 C619 1.334 . S
C620 C621 1.287 . S
C621 C620 1.287 . S
C621 C622 1.524 . S
C621 H624 0.999 . S
C622 H592 0.950 . S
C622 C621 1.524 . S
C622 C623 1.415 . S
C623 H593 0.950 . S
C623 C618 1.363 . S
C623 C622 1.415 . S
H624 C621 0.999 . S
H625 C606 0.913 . S
H626 C644 0.951 . S
H627 C646 0.951 . S
H628 C648 0.950 . S
H629 C649 0.950 . S
H630 C651 0.950 . S
H631 C654 0.950 . S
H632 C655 0.950 . S
H633 C657 0.950 . S
H634 C658 0.950 . S
H635 C659 0.951 . S
H636 C661 0.951 . S
H637 C663 0.950 . S
H638 C664 0.950 . S
H639 C666 0.950 . S
H640 C669 0.950 . S
H641 C670 0.950 . S
H642 C672 0.950 . S
H643 C673 0.950 . S
C644 H626 0.951 . S
C644 C645 1.366 . S
C644 C646 1.388 . S
C645 C644 1.366 . S
C645 C649 1.385 . S
C646 H627 0.951 . S
C646 C644 1.388 . S
C646 C647 1.366 . S
C647 C646 1.366 . S
C647 C648 1.414 . S
C647 C650 1.499 . S
C648 H628 0.950 . S
C648 C647 1.414 . S
C648 C649 1.374 . S
C649 H629 0.950 . S
C649 C645 1.385 . S
C649 C648 1.374 . S
C650 C647 1.499 . S
C650 C651 1.373 . S
C650 C652 1.389 . S
C651 H630 0.950 . S
C651 C650 1.373 . S
C651 C667 1.377 1_455 S
C652 C650 1.389 . S
C652 C653 1.524 . S
C652 C666 1.377 1_455 S
C653 C652 1.524 . S
C653 C654 1.397 . S
C653 C658 1.363 . S
C654 H631 0.950 . S
C654 C653 1.397 . S
C654 C655 1.334 . S
C655 H632 0.950 . S
C655 C654 1.334 . S
C655 C656 1.287 . S
C656 C655 1.287 . S
C656 C657 1.524 . S
C656 H675 0.913 . S
C657 H633 0.950 . S
C657 C656 1.524 . S
C657 C658 1.415 . S
C658 H634 0.950 . S
C658 C653 1.363 . S
C658 C657 1.415 . S
C659 H635 0.951 . S
C659 C660 1.366 . S
C659 C661 1.388 . S
C660 C659 1.366 . S
C660 C664 1.385 . S
C661 H636 0.951 . S
C661 C659 1.388 . S
C661 C662 1.366 . S
C662 C661 1.366 . S
C662 C663 1.414 . S
C662 C665 1.499 . S
C663 H637 0.950 . S
C663 C662 1.414 . S
C663 C664 1.374 . S
C664 H638 0.950 . S
C664 C660 1.385 . S
C664 C663 1.374 . S
C665 C662 1.499 . S
C665 C666 1.373 . S
C665 C667 1.389 . S
C666 H639 0.950 . S
C666 C652 1.377 1_655 S
C666 C665 1.373 . S
C667 C651 1.377 1_655 S
C667 C665 1.389 . S
C667 C668 1.524 . S
C668 C667 1.524 . S
C668 C669 1.397 . S
C668 C673 1.363 . S
C669 H640 0.950 . S
C669 C668 1.397 . S
C669 C670 1.334 . S
C670 H641 0.950 . S
C670 C669 1.334 . S
C670 C671 1.287 . S
C671 C670 1.287 . S
C671 C672 1.524 . S
C671 H674 0.999 . S
C672 H642 0.950 . S
C672 C671 1.524 . S
C672 C673 1.415 . S
C673 H643 0.950 . S
C673 C668 1.363 . S
C673 C672 1.415 . S
H674 C671 0.999 . S
H675 C656 0.913 . S
H676 C694 0.951 . S
H677 C696 0.951 . S
H678 C698 0.950 . S
H679 C699 0.950 . S
H680 C701 0.950 . S
H681 C704 0.950 . S
H682 C705 0.950 . S
H683 C707 0.950 1_556 S
H684 C708 0.950 . S
H685 C709 0.951 . S
H686 C711 0.951 . S
H687 C713 0.950 . S
H688 C714 0.950 . S
H689 C716 0.950 . S
H690 C719 0.950 . S
H691 C720 0.950 . S
H692 C722 0.950 1_554 S
H693 C723 0.950 . S
C694 H676 0.951 . S
C694 C695 1.366 . S
C694 C696 1.388 . S
C695 C694 1.366 . S
C695 C699 1.385 . S
C696 H677 0.951 . S
C696 C694 1.388 . S
C696 C697 1.366 . S
C697 C696 1.366 . S
C697 C698 1.414 . S
C697 C700 1.499 . S
C698 H678 0.950 . S
C698 C697 1.414 . S
C698 C699 1.374 . S
C699 H679 0.950 . S
C699 C695 1.385 . S
C699 C698 1.374 . S
C700 C697 1.499 . S
C700 C701 1.373 . S
C700 C702 1.389 1_565 S
C701 H680 0.950 . S
C701 C700 1.373 . S
C701 C717 1.377 1_554 S
C702 C700 1.389 1_545 S
C702 C703 1.524 . S
C702 C716 1.377 1_554 S
C703 C702 1.524 . S
C703 C704 1.397 . S
C703 C708 1.363 1_554 S
C704 H681 0.950 . S
C704 C703 1.397 . S
C704 C705 1.334 . S
C705 H682 0.950 . S
C705 C704 1.334 . S
C705 C706 1.287 . S
C706 C705 1.287 . S
C706 C707 1.524 . S
C706 H725 0.913 . S
C707 H683 0.950 1_554 S
C707 C706 1.524 . S
C707 C708 1.415 1_554 S
C708 H684 0.950 . S
C708 C703 1.363 1_556 S
C708 C707 1.415 1_556 S
C709 H685 0.951 . S
C709 C710 1.366 . S
C709 C711 1.388 . S
C710 C709 1.366 . S
C710 C714 1.385 . S
C711 H686 0.951 . S
C711 C709 1.388 . S
C711 C712 1.366 . S
C712 C711 1.366 . S
C712 C713 1.414 . S
C712 C715 1.499 . S
C713 H687 0.950 . S
C713 C712 1.414 . S
C713 C714 1.374 . S
C714 H688 0.950 . S
C714 C710 1.385 . S
C714 C713 1.374 . S
C715 C712 1.499 . S
C715 C716 1.373 . S
C715 C717 1.389 1_545 S
C716 H689 0.950 . S
C716 C702 1.377 1_556 S
C716 C715 1.373 . S
C717 C701 1.377 1_556 S
C717 C715 1.389 1_565 S
C717 C718 1.524 . S
C718 C717 1.524 . S
C718 C719 1.397 . S
C718 C723 1.363 1_556 S
C719 H690 0.950 . S
C719 C718 1.397 . S
C719 C720 1.334 . S
C720 H691 0.950 . S
C720 C719 1.334 . S
C720 C721 1.287 . S
C721 C720 1.287 . S
C721 C722 1.524 . S
C721 H724 0.999 . S
C722 H692 0.950 1_556 S
C722 C721 1.524 . S
C722 C723 1.415 1_556 S
C723 H693 0.950 . S
C723 C718 1.363 1_554 S
C723 C722 1.415 1_554 S
H724 C721 0.999 . S
H725 C706 0.913 . S
H726 C744 0.951 . S
H727 C746 0.951 . S
H728 C748 0.950 . S
H729 C749 0.950 . S
H730 C751 0.950 . S
H731 C754 0.950 . S
H732 C755 0.950 . S
H733 C757 0.950 . S
H734 C758 0.950 . S
H735 C759 0.951 . S
H736 C761 0.951 . S
H737 C763 0.950 . S
H738 C764 0.950 . S
H739 C766 0.950 . S
H740 C769 0.950 . S
H741 C770 0.950 . S
H742 C772 0.950 . S
H743 C773 0.950 . S
C744 H726 0.951 . S
C744 C745 1.366 . S
C744 C746 1.388 . S
C745 C744 1.366 . S
C745 C749 1.385 . S
C746 H727 0.951 . S
C746 C744 1.388 . S
C746 C747 1.366 . S
C747 C746 1.366 . S
C747 C748 1.414 . S
C747 C750 1.499 . S
C748 H728 0.950 . S
C748 C747 1.414 . S
C748 C749 1.374 . S
C749 H729 0.950 . S
C749 C745 1.385 . S
C749 C748 1.374 . S
C750 C747 1.499 . S
C750 C751 1.373 1_565 S
C750 C752 1.389 . S
C751 H730 0.950 . S
C751 C750 1.373 1_545 S
C751 C767 1.377 . S
C752 C750 1.389 . S
C752 C753 1.524 . S
C752 C766 1.377 . S
C753 C752 1.524 . S
C753 C754 1.397 . S
C753 C758 1.363 . S
C754 H731 0.950 . S
C754 C753 1.397 . S
C754 C755 1.334 . S
C755 H732 0.950 . S
C755 C754 1.334 . S
C755 C756 1.287 . S
C756 C755 1.287 . S
C756 C757 1.524 . S
C756 H775 0.913 . S
C757 H733 0.950 . S
C757 C756 1.524 . S
C757 C758 1.415 . S
C758 H734 0.950 . S
C758 C753 1.363 . S
C758 C757 1.415 . S
C759 H735 0.951 . S
C759 C760 1.366 . S
C759 C761 1.388 . S
C760 C759 1.366 . S
C760 C764 1.385 . S
C761 H736 0.951 . S
C761 C759 1.388 . S
C761 C762 1.366 . S
C762 C761 1.366 . S
C762 C763 1.414 . S
C762 C765 1.499 . S
C763 H737 0.950 . S
C763 C762 1.414 . S
C763 C764 1.374 . S
C764 H738 0.950 . S
C764 C760 1.385 . S
C764 C763 1.374 . S
C765 C762 1.499 . S
C765 C766 1.373 1_545 S
C765 C767 1.389 . S
C766 H739 0.950 . S
C766 C752 1.377 . S
C766 C765 1.373 1_565 S
C767 C751 1.377 . S
C767 C765 1.389 . S
C767 C768 1.524 . S
C768 C767 1.524 . S
C768 C769 1.397 . S
C768 C773 1.363 . S
C769 H740 0.950 . S
C769 C768 1.397 . S
C769 C770 1.334 . S
C770 H741 0.950 . S
C770 C769 1.334 . S
C770 C771 1.287 . S
C771 C770 1.287 . S
C771 C772 1.524 . S
C771 H774 0.999 . S
C772 H742 0.950 . S
C772 C771 1.524 . S
C772 C773 1.415 . S
C773 H743 0.950 . S
C773 C768 1.363 . S
C773 C772 1.415 . S
H774 C771 0.999 . S
H775 C756 0.913 . S
H776 C794 0.951 . S
H777 C796 0.951 . S
H778 C798 0.950 . S
H779 C799 0.950 . S
H780 C801 0.950 . S
H781 C804 0.950 . S
H782 C805 0.950 . S
H783 C807 0.950 . S
H784 C808 0.950 . S
H785 C809 0.951 . S
H786 C811 0.951 . S
H787 C813 0.950 . S
H788 C814 0.950 . S
H789 C816 0.950 . S
H790 C819 0.950 . S
H791 C820 0.950 . S
H792 C822 0.950 . S
H793 C823 0.950 . S
C794 H776 0.951 . S
C794 C795 1.366 . S
C794 C796 1.388 . S
C795 C794 1.366 . S
C795 C799 1.385 . S
C796 H777 0.951 . S
C796 C794 1.388 . S
C796 C797 1.366 . S
C797 C796 1.366 . S
C797 C798 1.414 . S
C797 C800 1.499 . S
C798 H778 0.950 . S
C798 C797 1.414 . S
C798 C799 1.374 . S
C799 H779 0.950 . S
C799 C795 1.385 . S
C799 C798 1.374 . S
C800 C797 1.499 . S
C800 C801 1.373 1_455 S
C800 C802 1.389 . S
C801 H780 0.950 . S
C801 C800 1.373 1_655 S
C801 C817 1.377 . S
C802 C800 1.389 . S
C802 C803 1.524 . S
C802 C816 1.377 . S
C803 C802 1.524 . S
C803 C804 1.397 . S
C803 C808 1.363 . S
C804 H781 0.950 . S
C804 C803 1.397 . S
C804 C805 1.334 . S
C805 H782 0.950 . S
C805 C804 1.334 . S
C805 C806 1.287 . S
C806 C805 1.287 . S
C806 C807 1.524 . S
C806 H825 0.913 . S
C807 H783 0.950 . S
C807 C806 1.524 . S
C807 C808 1.415 . S
C808 H784 0.950 . S
C808 C803 1.363 . S
C808 C807 1.415 . S
C809 H785 0.951 . S
C809 C810 1.366 . S
C809 C811 1.388 . S
C810 C809 1.366 . S
C810 C814 1.385 . S
C811 H786 0.951 . S
C811 C809 1.388 . S
C811 C812 1.366 . S
C812 C811 1.366 . S
C812 C813 1.414 . S
C812 C815 1.499 . S
C813 H787 0.950 . S
C813 C812 1.414 . S
C813 C814 1.374 . S
C814 H788 0.950 . S
C814 C810 1.385 . S
C814 C813 1.374 . S
C815 C812 1.499 . S
C815 C816 1.373 1_655 S
C815 C817 1.389 . S
C816 H789 0.950 . S
C816 C802 1.377 . S
C816 C815 1.373 1_455 S
C817 C801 1.377 . S
C817 C815 1.389 . S
C817 C818 1.524 . S
C818 C817 1.524 . S
C818 C819 1.397 . S
C818 C823 1.363 . S
C819 H790 0.950 . S
C819 C818 1.397 . S
C819 C820 1.334 . S
C820 H791 0.950 . S
C820 C819 1.334 . S
C820 C821 1.287 . S
C821 C820 1.287 . S
C821 C822 1.524 . S
C821 H824 0.999 . S
C822 H792 0.950 . S
C822 C821 1.524 . S
C822 C823 1.415 . S
C823 H793 0.950 . S
C823 C818 1.363 . S
C823 C822 1.415 . S
H824 C821 0.999 . S
H825 C806 0.913 . S
H826 C844 0.951 . S
H827 C846 0.951 . S
H828 C848 0.950 . S
H829 C849 0.950 . S
H830 C851 0.950 . S
H831 C854 0.950 . S
H832 C855 0.950 . S
H833 C857 0.950 . S
H834 C858 0.950 . S
H835 C859 0.951 . S
H836 C861 0.951 . S
H837 C863 0.950 . S
H838 C864 0.950 . S
H839 C866 0.950 . S
H840 C869 0.950 . S
H841 C870 0.950 . S
H842 C872 0.950 . S
H843 C873 0.950 . S
C844 H826 0.951 . S
C844 C845 1.366 . S
C844 C846 1.388 . S
C845 C844 1.366 . S
C845 C849 1.385 . S
C846 H827 0.951 . S
C846 C844 1.388 . S
C846 C847 1.366 . S
C847 C846 1.366 . S
C847 C848 1.414 . S
C847 C850 1.499 . S
C848 H828 0.950 . S
C848 C847 1.414 . S
C848 C849 1.374 . S
C849 H829 0.950 . S
C849 C845 1.385 . S
C849 C848 1.374 . S
C850 C847 1.499 . S
C850 C851 1.373 1_455 S
C850 C852 1.389 . S
C851 H830 0.950 . S
C851 C850 1.373 1_655 S
C851 C867 1.377 . S
C852 C850 1.389 . S
C852 C853 1.524 . S
C852 C866 1.377 . S
C853 C852 1.524 . S
C853 C854 1.397 . S
C853 C858 1.363 . S
C854 H831 0.950 . S
C854 C853 1.397 . S
C854 C855 1.334 . S
C855 H832 0.950 . S
C855 C854 1.334 . S
C855 C856 1.287 . S
C856 C855 1.287 . S
C856 C857 1.524 . S
C856 H875 0.913 . S
C857 H833 0.950 . S
C857 C856 1.524 . S
C857 C858 1.415 . S
C858 H834 0.950 . S
C858 C853 1.363 . S
C858 C857 1.415 . S
C859 H835 0.951 . S
C859 C860 1.366 . S
C859 C861 1.388 . S
C860 C859 1.366 . S
C860 C864 1.385 . S
C861 H836 0.951 . S
C861 C859 1.388 . S
C861 C862 1.366 . S
C862 C861 1.366 . S
C862 C863 1.414 . S
C862 C865 1.499 . S
C863 H837 0.950 . S
C863 C862 1.414 . S
C863 C864 1.374 . S
C864 H838 0.950 . S
C864 C860 1.385 . S
C864 C863 1.374 . S
C865 C862 1.499 . S
C865 C866 1.373 1_655 S
C865 C867 1.389 . S
C866 H839 0.950 . S
C866 C852 1.377 . S
C866 C865 1.373 1_455 S
C867 C851 1.377 . S
C867 C865 1.389 . S
C867 C868 1.524 . S
C868 C867 1.524 . S
C868 C869 1.397 . S
C868 C873 1.363 . S
C869 H840 0.950 . S
C869 C868 1.397 . S
C869 C870 1.334 . S
C870 H841 0.950 . S
C870 C869 1.334 . S
C870 C871 1.287 . S
C871 C870 1.287 . S
C871 C872 1.524 . S
C871 H874 0.999 . S
C872 H842 0.950 . S
C872 C871 1.524 . S
C872 C873 1.415 . S
C873 H843 0.950 . S
C873 C868 1.363 . S
C873 C872 1.415 . S
H874 C871 0.999 . S
H875 C856 0.913 . S
H876 C894 0.951 . S
H877 C896 0.951 . S
H878 C898 0.950 . S
H879 C899 0.950 . S
H880 C901 0.950 . S
H881 C904 0.950 . S
H882 C905 0.950 . S
H883 C907 0.950 . S
H884 C908 0.950 . S
H885 C909 0.951 . S
H886 C911 0.951 . S
H887 C913 0.950 . S
H888 C914 0.950 . S
H889 C916 0.950 . S
H890 C919 0.950 . S
H891 C920 0.950 . S
H892 C922 0.950 . S
H893 C923 0.950 . S
C894 H876 0.951 . S
C894 C895 1.366 . S
C894 C896 1.388 . S
C895 C894 1.366 . S
C895 C899 1.385 . S
C896 H877 0.951 . S
C896 C894 1.388 . S
C896 C897 1.366 . S
C897 C896 1.366 . S
C897 C898 1.414 . S
C897 C900 1.499 . S
C898 H878 0.950 . S
C898 C897 1.414 . S
C898 C899 1.374 . S
C899 H879 0.950 . S
C899 C895 1.385 . S
C899 C898 1.374 . S
C900 C897 1.499 . S
C900 C901 1.373 . S
C900 C902 1.389 . S
C901 H880 0.950 . S
C901 C900 1.373 . S
C901 C917 1.377 . S
C902 C900 1.389 . S
C902 C903 1.524 . S
C902 C916 1.377 . S
C903 C902 1.524 . S
C903 C904 1.397 . S
C903 C908 1.363 . S
C904 H881 0.950 . S
C904 C903 1.397 . S
C904 C905 1.334 . S
C905 H882 0.950 . S
C905 C904 1.334 . S
C905 C906 1.287 . S
C906 C905 1.287 . S
C906 C907 1.524 . S
C906 H925 0.913 . S
C907 H883 0.950 . S
C907 C906 1.524 . S
C907 C908 1.415 . S
C908 H884 0.950 . S
C908 C903 1.363 . S
C908 C907 1.415 . S
C909 H885 0.951 . S
C909 C910 1.366 . S
C909 C911 1.388 . S
C910 C909 1.366 . S
C910 C914 1.385 . S
C911 H886 0.951 . S
C911 C909 1.388 . S
C911 C912 1.366 . S
C912 C911 1.366 . S
C912 C913 1.414 . S
C912 C915 1.499 . S
C913 H887 0.950 . S
C913 C912 1.414 . S
C913 C914 1.374 . S
C914 H888 0.950 . S
C914 C910 1.385 . S
C914 C913 1.374 . S
C915 C912 1.499 . S
C915 C916 1.373 . S
C915 C917 1.389 . S
C916 H889 0.950 . S
C916 C902 1.377 . S
C916 C915 1.373 . S
C917 C901 1.377 . S
C917 C915 1.389 . S
C917 C918 1.524 . S
C918 C917 1.524 . S
C918 C919 1.397 . S
C918 C923 1.363 . S
C919 H890 0.950 . S
C919 C918 1.397 . S
C919 C920 1.334 . S
C920 H891 0.950 . S
C920 C919 1.334 . S
C920 C921 1.287 . S
C921 C920 1.287 . S
C921 C922 1.524 . S
C921 H924 0.999 . S
C922 H892 0.950 . S
C922 C921 1.524 . S
C922 C923 1.415 . S
C923 H893 0.950 . S
C923 C918 1.363 . S
C923 C922 1.415 . S
H924 C921 0.999 . S
H925 C906 0.913 . S
H926 C944 0.951 . S
H927 C946 0.951 . S
H928 C948 0.950 . S
H929 C949 0.950 . S
H930 C951 0.950 . S
H931 C954 0.950 . S
H932 C955 0.950 . S
H933 C957 0.950 . S
H934 C958 0.950 . S
H935 C959 0.951 . S
H936 C961 0.951 . S
H937 C963 0.950 . S
H938 C964 0.950 . S
H939 C966 0.950 . S
H940 C969 0.950 . S
H941 C970 0.950 . S
H942 C972 0.950 . S
H943 C973 0.950 . S
C944 H926 0.951 . S
C944 C945 1.366 . S
C944 C946 1.388 . S
C945 C944 1.366 . S
C945 C949 1.385 . S
C946 H927 0.951 . S
C946 C944 1.388 . S
C946 C947 1.366 . S
C947 C946 1.366 . S
C947 C948 1.414 . S
C947 C950 1.499 . S
C948 H928 0.950 . S
C948 C947 1.414 . S
C948 C949 1.374 . S
C949 H929 0.950 . S
C949 C945 1.385 . S
C949 C948 1.374 . S
C950 C947 1.499 . S
C950 C951 1.373 . S
C950 C952 1.389 . S
C951 H930 0.950 . S
C951 C950 1.373 . S
C951 C967 1.377 . S
C952 C950 1.389 . S
C952 C953 1.524 . S
C952 C966 1.377 . S
C953 C952 1.524 . S
C953 C954 1.397 . S
C953 C958 1.363 . S
C954 H931 0.950 . S
C954 C953 1.397 . S
C954 C955 1.334 . S
C955 H932 0.950 . S
C955 C954 1.334 . S
C955 C956 1.287 . S
C956 C955 1.287 . S
C956 C957 1.524 . S
C956 H975 0.913 . S
C957 H933 0.950 . S
C957 C956 1.524 . S
C957 C958 1.415 . S
C958 H934 0.950 . S
C958 C953 1.363 . S
C958 C957 1.415 . S
C959 H935 0.951 . S
C959 C960 1.366 . S
C959 C961 1.388 . S
C960 C959 1.366 . S
C960 C964 1.385 . S
C961 H936 0.951 . S
C961 C959 1.388 . S
C961 C962 1.366 . S
C962 C961 1.366 . S
C962 C963 1.414 . S
C962 C965 1.499 . S
C963 H937 0.950 . S
C963 C962 1.414 . S
C963 C964 1.374 . S
C964 H938 0.950 . S
C964 C960 1.385 . S
C964 C963 1.374 . S
C965 C962 1.499 . S
C965 C966 1.373 . S
C965 C967 1.389 . S
C966 H939 0.950 . S
C966 C952 1.377 . S
C966 C965 1.373 . S
C967 C951 1.377 . S
C967 C965 1.389 . S
C967 C968 1.524 . S
C968 C967 1.524 . S
C968 C969 1.397 . S
C968 C973 1.363 . S
C969 H940 0.950 . S
C969 C968 1.397 . S
C969 C970 1.334 . S
C970 H941 0.950 . S
C970 C969 1.334 . S
C970 C971 1.287 . S
C971 C970 1.287 . S
C971 C972 1.524 . S
C971 H974 0.999 . S
C972 H942 0.950 . S
C972 C971 1.524 . S
C972 C973 1.415 . S
C973 H943 0.950 . S
C973 C968 1.363 . S
C973 C972 1.415 . S
H974 C971 0.999 . S
H975 C956 0.913 . S
H976 C994 0.951 . S
H977 C996 0.951 . S
H978 C998 0.950 . S
H979 C999 0.950 . S
H980 C1001 0.950 . S
H981 C1004 0.950 . S
H982 C1005 0.950 1_554 S
H983 C1007 0.950 . S
H984 C1008 0.950 . S
H985 C1009 0.951 . S
H986 C1011 0.951 . S
H987 C1013 0.950 . S
H988 C1014 0.950 . S
H989 C1016 0.950 . S
H990 C1019 0.950 . S
H991 C1020 0.950 . S
H992 C1022 0.950 . S
H993 C1023 0.950 . S
C994 H976 0.951 . S
C994 C995 1.366 1_556 S
C994 C996 1.388 . S
C995 C994 1.366 1_554 S
C995 C999 1.385 . S
C996 H977 0.951 . S
C996 C994 1.388 . S
C996 C997 1.366 . S
C997 C996 1.366 . S
C997 C998 1.414 . S
C997 C1000 1.499 . S
C998 H978 0.950 . S
C998 C997 1.414 . S
C998 C999 1.374 1_556 S
C999 H979 0.950 . S
C999 C995 1.385 . S
C999 C998 1.374 1_554 S
C1000 C997 1.499 . S
C1000 C1001 1.373 . S
C1000 C1002 1.389 . S
C1001 H980 0.950 . S
C1001 C1000 1.373 . S
C1001 C1017 1.377 . S
C1002 C1000 1.389 . S
C1002 C1003 1.524 . S
C1002 C1016 1.377 . S
C1003 C1002 1.524 . S
C1003 C1004 1.397 . S
C1003 C1008 1.363 . S
C1004 H981 0.950 . S
C1004 C1003 1.397 . S
C1004 C1005 1.334 . S
C1005 H982 0.950 1_556 S
C1005 C1004 1.334 . S
C1005 C1006 1.287 . S
C1006 C1005 1.287 . S
C1006 C1007 1.524 . S
C1006 H1025 0.913 . S
C1007 H983 0.950 . S
C1007 C1006 1.524 . S
C1007 C1008 1.415 . S
C1008 H984 0.950 . S
C1008 C1003 1.363 . S
C1008 C1007 1.415 . S
C1009 H985 0.951 . S
C1009 C1010 1.366 . S
C1009 C1011 1.388 . S
C1010 C1009 1.366 . S
C1010 C1014 1.385 . S
C1011 H986 0.951 . S
C1011 C1009 1.388 . S
C1011 C1012 1.366 . S
C1012 C1011 1.366 . S
C1012 C1013 1.414 . S
C1012 C1015 1.499 . S
C1013 H987 0.950 . S
C1013 C1012 1.414 . S
C1013 C1014 1.374 . S
C1014 H988 0.950 . S
C1014 C1010 1.385 . S
C1014 C1013 1.374 . S
C1015 C1012 1.499 . S
C1015 C1016 1.373 . S
C1015 C1017 1.389 . S
C1016 H989 0.950 . S
C1016 C1002 1.377 . S
C1016 C1015 1.373 . S
C1017 C1001 1.377 . S
C1017 C1015 1.389 . S
C1017 C1018 1.524 . S
C1018 C1017 1.524 . S
C1018 C1019 1.397 . S
C1018 C1023 1.363 . S
C1019 H990 0.950 . S
C1019 C1018 1.397 . S
C1019 C1020 1.334 . S
C1020 H991 0.950 . S
C1020 C1019 1.334 . S
C1020 C1021 1.287 . S
C1021 C1020 1.287 . S
C1021 C1022 1.524 . S
C1021 H1024 0.999 . S
C1022 H992 0.950 . S
C1022 C1021 1.524 . S
C1022 C1023 1.415 . S
C1023 H993 0.950 . S
C1023 C1018 1.363 . S
C1023 C1022 1.415 . S
H1024 C1021 0.999 . S
H1025 C1006 0.913 . S
H1026 C1044 0.951 . S
H1027 C1046 0.951 . S
H1028 C1048 0.950 . S
H1029 C1049 0.950 . S
H1030 C1051 0.950 . S
H1031 C1054 0.950 . S
H1032 C1055 0.950 . S
H1033 C1057 0.950 . S
H1034 C1058 0.950 . S
H1035 C1059 0.951 . S
H1036 C1061 0.951 . S
H1037 C1063 0.950 . S
H1038 C1064 0.950 . S
H1039 C1066 0.950 . S
H1040 C1069 0.950 . S
H1041 C1070 0.950 . S
H1042 C1072 0.950 . S
H1043 C1073 0.950 . S
C1044 H1026 0.951 . S
C1044 C1045 1.366 . S
C1044 C1046 1.388 . S
C1045 C1044 1.366 . S
C1045 C1049 1.385 . S
C1046 H1027 0.951 . S
C1046 C1044 1.388 . S
C1046 C1047 1.366 . S
C1047 C1046 1.366 . S
C1047 C1048 1.414 . S
C1047 C1050 1.499 . S
C1048 H1028 0.950 . S
C1048 C1047 1.414 . S
C1048 C1049 1.374 . S
C1049 H1029 0.950 . S
C1049 C1045 1.385 . S
C1049 C1048 1.374 . S
C1050 C1047 1.499 . S
C1050 C1051 1.373 . S
C1050 C1052 1.389 . S
C1051 H1030 0.950 . S
C1051 C1050 1.373 . S
C1051 C1067 1.377 . S
C1052 C1050 1.389 . S
C1052 C1053 1.524 . S
C1052 C1066 1.377 . S
C1053 C1052 1.524 . S
C1053 C1054 1.397 . S
C1053 C1058 1.363 . S
C1054 H1031 0.950 . S
C1054 C1053 1.397 . S
C1054 C1055 1.334 . S
C1055 H1032 0.950 . S
C1055 C1054 1.334 . S
C1055 C1056 1.287 . S
C1056 C1055 1.287 . S
C1056 C1057 1.524 . S
C1056 H1075 0.913 . S
C1057 H1033 0.950 . S
C1057 C1056 1.524 . S
C1057 C1058 1.415 . S
C1058 H1034 0.950 . S
C1058 C1053 1.363 . S
C1058 C1057 1.415 . S
C1059 H1035 0.951 . S
C1059 C1060 1.366 . S
C1059 C1061 1.388 . S
C1060 C1059 1.366 . S
C1060 C1064 1.385 . S
C1061 H1036 0.951 . S
C1061 C1059 1.388 . S
C1061 C1062 1.366 . S
C1062 C1061 1.366 . S
C1062 C1063 1.414 . S
C1062 C1065 1.499 . S
C1063 H1037 0.950 . S
C1063 C1062 1.414 . S
C1063 C1064 1.374 . S
C1064 H1038 0.950 . S
C1064 C1060 1.385 . S
C1064 C1063 1.374 . S
C1065 C1062 1.499 . S
C1065 C1066 1.373 . S
C1065 C1067 1.389 . S
C1066 H1039 0.950 . S
C1066 C1052 1.377 . S
C1066 C1065 1.373 . S
C1067 C1051 1.377 . S
C1067 C1065 1.389 . S
C1067 C1068 1.524 . S
C1068 C1067 1.524 . S
C1068 C1069 1.397 . S
C1068 C1073 1.363 . S
C1069 H1040 0.950 . S
C1069 C1068 1.397 . S
C1069 C1070 1.334 . S
C1070 H1041 0.950 . S
C1070 C1069 1.334 . S
C1070 C1071 1.287 . S
C1071 C1070 1.287 . S
C1071 C1072 1.524 . S
C1071 H1074 0.999 . S
C1072 H1042 0.950 . S
C1072 C1071 1.524 . S
C1072 C1073 1.415 . S
C1073 H1043 0.950 . S
C1073 C1068 1.363 . S
C1073 C1072 1.415 . S
H1074 C1071 0.999 . S
H1075 C1056 0.913 . S
H1076 C1094 0.951 . S
H1077 C1096 0.951 . S
H1078 C1098 0.950 . S
H1079 C1099 0.950 . S
H1080 C1101 0.950 . S
H1081 C1104 0.950 . S
H1082 C1105 0.950 . S
H1083 C1107 0.950 . S
H1084 C1108 0.950 . S
H1085 C1109 0.951 . S
H1086 C1111 0.951 . S
H1087 C1113 0.950 . S
H1088 C1114 0.950 . S
H1089 C1116 0.950 . S
H1090 C1119 0.950 . S
H1091 C1120 0.950 . S
H1092 C1122 0.950 . S
H1093 C1123 0.950 . S
C1094 H1076 0.951 . S
C1094 C1095 1.366 . S
C1094 C1096 1.388 . S
C1095 C1094 1.366 . S
C1095 C1099 1.385 . S
C1096 H1077 0.951 . S
C1096 C1094 1.388 . S
C1096 C1097 1.366 . S
C1097 C1096 1.366 . S
C1097 C1098 1.414 . S
C1097 C1100 1.499 . S
C1098 H1078 0.950 . S
C1098 C1097 1.414 . S
C1098 C1099 1.374 . S
C1099 H1079 0.950 . S
C1099 C1095 1.385 . S
C1099 C1098 1.374 . S
C1100 C1097 1.499 . S
C1100 C1101 1.373 . S
C1100 C1102 1.389 . S
C1101 H1080 0.950 . S
C1101 C1100 1.373 . S
C1101 C1117 1.377 . S
C1102 C1100 1.389 . S
C1102 C1103 1.524 . S
C1102 C1116 1.377 . S
C1103 C1102 1.524 . S
C1103 C1104 1.397 . S
C1103 C1108 1.363 . S
C1104 H1081 0.950 . S
C1104 C1103 1.397 . S
C1104 C1105 1.334 . S
C1105 H1082 0.950 . S
C1105 C1104 1.334 . S
C1105 C1106 1.287 . S
C1106 C1105 1.287 . S
C1106 C1107 1.524 . S
C1106 H1125 0.913 . S
C1107 H1083 0.950 . S
C1107 C1106 1.524 . S
C1107 C1108 1.415 . S
C1108 H1084 0.950 . S
C1108 C1103 1.363 . S
C1108 C1107 1.415 . S
C1109 H1085 0.951 . S
C1109 C1110 1.366 . S
C1109 C1111 1.388 1_556 S
C1110 C1109 1.366 . S
C1110 C1114 1.385 1_556 S
C1111 H1086 0.951 . S
C1111 C1109 1.388 1_554 S
C1111 C1112 1.366 . S
C1112 C1111 1.366 . S
C1112 C1113 1.414 . S
C1112 C1115 1.499 . S
C1113 H1087 0.950 . S
C1113 C1112 1.414 . S
C1113 C1114 1.374 . S
C1114 H1088 0.950 . S
C1114 C1110 1.385 1_554 S
C1114 C1113 1.374 . S
C1115 C1112 1.499 . S
C1115 C1116 1.373 . S
C1115 C1117 1.389 . S
C1116 H1089 0.950 . S
C1116 C1102 1.377 . S
C1116 C1115 1.373 . S
C1117 C1101 1.377 . S
C1117 C1115 1.389 . S
C1117 C1118 1.524 . S
C1118 C1117 1.524 . S
C1118 C1119 1.397 . S
C1118 C1123 1.363 . S
C1119 H1090 0.950 . S
C1119 C1118 1.397 . S
C1119 C1120 1.334 . S
C1120 H1091 0.950 . S
C1120 C1119 1.334 . S
C1120 C1121 1.287 . S
C1121 C1120 1.287 . S
C1121 C1122 1.524 . S
C1121 H1124 0.999 . S
C1122 H1092 0.950 . S
C1122 C1121 1.524 . S
C1122 C1123 1.415 . S
C1123 H1093 0.950 . S
C1123 C1118 1.363 . S
C1123 C1122 1.415 . S
H1124 C1121 0.999 . S
H1125 C1106 0.913 . S
H1126 C1144 0.951 . S
H1127 C1146 0.951 . S
H1128 C1148 0.950 . S
H1129 C1149 0.950 . S
H1130 C1151 0.950 . S
H1131 C1154 0.950 . S
H1132 C1155 0.950 . S
H1133 C1157 0.950 . S
H1134 C1158 0.950 . S
H1135 C1159 0.951 . S
H1136 C1161 0.951 . S
H1137 C1163 0.950 . S
H1138 C1164 0.950 . S
H1139 C1166 0.950 . S
H1140 C1169 0.950 . S
H1141 C1170 0.950 . S
H1142 C1172 0.950 . S
H1143 C1173 0.950 . S
C1144 H1126 0.951 . S
C1144 C1145 1.366 . S
C1144 C1146 1.388 . S
C1145 C1144 1.366 . S
C1145 C1149 1.385 . S
C1146 H1127 0.951 . S
C1146 C1144 1.388 . S
C1146 C1147 1.366 . S
C1147 C1146 1.366 . S
C1147 C1148 1.414 . S
C1147 C1150 1.499 . S
C1148 H1128 0.950 . S
C1148 C1147 1.414 . S
C1148 C1149 1.374 . S
C1149 H1129 0.950 . S
C1149 C1145 1.385 . S
C1149 C1148 1.374 . S
C1150 C1147 1.499 . S
C1150 C1151 1.373 . S
C1150 C1152 1.389 . S
C1151 H1130 0.950 . S
C1151 C1150 1.373 . S
C1151 C1167 1.377 . S
C1152 C1150 1.389 . S
C1152 C1153 1.524 . S
C1152 C1166 1.377 . S
C1153 C1152 1.524 . S
C1153 C1154 1.397 . S
C1153 C1158 1.363 . S
C1154 H1131 0.950 . S
C1154 C1153 1.397 . S
C1154 C1155 1.334 . S
C1155 H1132 0.950 . S
C1155 C1154 1.334 . S
C1155 C1156 1.287 . S
C1156 C1155 1.287 . S
C1156 C1157 1.524 . S
C1156 H1175 0.913 . S
C1157 H1133 0.950 . S
C1157 C1156 1.524 . S
C1157 C1158 1.415 . S
C1158 H1134 0.950 . S
C1158 C1153 1.363 . S
C1158 C1157 1.415 . S
C1159 H1135 0.951 . S
C1159 C1160 1.366 . S
C1159 C1161 1.388 . S
C1160 C1159 1.366 . S
C1160 C1164 1.385 . S
C1161 H1136 0.951 . S
C1161 C1159 1.388 . S
C1161 C1162 1.366 . S
C1162 C1161 1.366 . S
C1162 C1163 1.414 . S
C1162 C1165 1.499 . S
C1163 H1137 0.950 . S
C1163 C1162 1.414 . S
C1163 C1164 1.374 . S
C1164 H1138 0.950 . S
C1164 C1160 1.385 . S
C1164 C1163 1.374 . S
C1165 C1162 1.499 . S
C1165 C1166 1.373 . S
C1165 C1167 1.389 . S
C1166 H1139 0.950 . S
C1166 C1152 1.377 . S
C1166 C1165 1.373 . S
C1167 C1151 1.377 . S
C1167 C1165 1.389 . S
C1167 C1168 1.524 . S
C1168 C1167 1.524 . S
C1168 C1169 1.397 . S
C1168 C1173 1.363 . S
C1169 H1140 0.950 . S
C1169 C1168 1.397 . S
C1169 C1170 1.334 . S
C1170 H1141 0.950 . S
C1170 C1169 1.334 . S
C1170 C1171 1.287 . S
C1171 C1170 1.287 . S
C1171 C1172 1.524 . S
C1171 H1174 0.999 . S
C1172 H1142 0.950 . S
C1172 C1171 1.524 . S
C1172 C1173 1.415 . S
C1173 H1143 0.950 . S
C1173 C1168 1.363 . S
C1173 C1172 1.415 . S
H1174 C1171 0.999 . S
H1175 C1156 0.913 . S
H1176 C1194 0.951 . S
H1177 C1196 0.951 . S
H1178 C1198 0.950 . S
H1179 C1199 0.950 . S
H1180 C1201 0.950 . S
H1181 C1204 0.950 . S
H1182 C1205 0.950 . S
H1183 C1207 0.950 . S
H1184 C1208 0.950 . S
H1185 C1209 0.951 . S
H1186 C1211 0.951 . S
H1187 C1213 0.950 . S
H1188 C1214 0.950 . S
H1189 C1216 0.950 . S
H1190 C1219 0.950 . S
H1191 C1220 0.950 . S
H1192 C1222 0.950 . S
H1193 C1223 0.950 . S
C1194 H1176 0.951 . S
C1194 C1195 1.366 . S
C1194 C1196 1.388 1_554 S
C1195 C1194 1.366 . S
C1195 C1199 1.385 1_554 S
C1196 H1177 0.951 . S
C1196 C1194 1.388 1_556 S
C1196 C1197 1.366 . S
C1197 C1196 1.366 . S
C1197 C1198 1.414 . S
C1197 C1200 1.499 . S
C1198 H1178 0.950 . S
C1198 C1197 1.414 . S
C1198 C1199 1.374 . S
C1199 H1179 0.950 . S
C1199 C1195 1.385 1_556 S
C1199 C1198 1.374 . S
C1200 C1197 1.499 . S
C1200 C1201 1.373 . S
C1200 C1202 1.375 1_565 S
C1201 H1180 0.950 . S
C1201 C1200 1.373 . S
C1201 C1217 1.377 . S
C1202 C1200 1.375 1_545 S
C1202 C1203 1.532 . S
C1202 C1216 1.385 . S
C1203 C1202 1.532 . S
C1203 C1204 1.397 . S
C1203 C1208 1.363 . S
C1204 H1181 0.950 . S
C1204 C1203 1.397 . S
C1204 C1205 1.334 1_556 S
C1205 H1182 0.950 . S
C1205 C1204 1.334 1_554 S
C1205 C1206 1.287 . S
C1206 C1205 1.287 . S
C1206 C1207 1.524 . S
C1206 H1225 0.913 . S
C1207 H1183 0.950 . S
C1207 C1206 1.524 . S
C1207 C1208 1.415 1_554 S
C1208 H1184 0.950 . S
C1208 C1203 1.363 . S
C1208 C1207 1.415 1_556 S
C1209 H1185 0.951 . S
C1209 C1210 1.366 . S
C1209 C1211 1.388 . S
C1210 C1209 1.366 . S
C1210 C1214 1.385 . S
C1211 H1186 0.951 . S
C1211 C1209 1.388 . S
C1211 C1212 1.366 . S
C1212 C1211 1.366 . S
C1212 C1213 1.414 . S
C1212 C1215 1.499 . S
C1213 H1187 0.950 . S
C1213 C1212 1.414 . S
C1213 C1214 1.374 . S
C1214 H1188 0.950 . S
C1214 C1210 1.385 . S
C1214 C1213 1.374 . S
C1215 C1212 1.499 . S
C1215 C1216 1.373 . S
C1215 C1217 1.389 1_545 S
C1216 H1189 0.950 . S
C1216 C1202 1.385 . S
C1216 C1215 1.373 . S
C1217 C1201 1.377 . S
C1217 C1215 1.389 1_565 S
C1217 C1218 1.524 . S
C1218 C1217 1.524 . S
C1218 C1219 1.397 . S
C1218 C1223 1.363 . S
C1219 H1190 0.950 . S
C1219 C1218 1.397 . S
C1219 C1220 1.334 . S
C1220 H1191 0.950 . S
C1220 C1219 1.334 . S
C1220 C1221 1.287 . S
C1221 C1220 1.287 . S
C1221 C1222 1.524 . S
C1221 H1224 0.999 . S
C1222 H1192 0.950 . S
C1222 C1221 1.524 . S
C1222 C1223 1.415 . S
C1223 H1193 0.950 . S
C1223 C1218 1.363 . S
C1223 C1222 1.415 . S
H1224 C1221 0.999 . S
H1225 C1206 0.913 . S
H1226 C1244 0.951 . S
H1227 C1246 0.951 1_565 S
H1228 C1248 0.950 . S
H1229 C1249 0.950 . S
H1230 C1251 0.950 . S
H1231 C1254 0.945 . S
H1232 C1255 0.950 . S
H1233 C1257 0.950 . S
H1234 C1258 0.950 . S
H1235 C1259 0.951 . S
H1236 C1261 0.951 . S
H1237 C1263 0.950 . S
H1238 C1264 0.950 . S
H1239 C1266 0.950 . S
H1240 C1269 0.950 . S
H1241 C1270 0.950 1_565 S
H1242 C1272 0.950 . S
H1243 C1273 0.950 . S
C1244 H1226 0.951 . S
C1244 C1245 1.366 . S
C1244 C1246 1.388 . S
C1245 C1244 1.366 . S
C1245 C1249 1.385 . S
C1246 H1227 0.951 1_545 S
C1246 C1244 1.388 . S
C1246 C1247 1.366 . S
C1247 C1246 1.366 . S
C1247 C1248 1.414 . S
C1247 C1250 1.499 . S
C1248 H1228 0.950 . S
C1248 C1247 1.414 . S
C1248 C1249 1.374 . S
C1249 H1229 0.950 . S
C1249 C1245 1.385 . S
C1249 C1248 1.374 . S
C1250 C1247 1.499 . S
C1250 C1251 1.373 . S
C1250 C1252 1.389 1_545 S
C1251 H1230 0.950 . S
C1251 C1250 1.373 . S
C1251 C1267 1.350 1_545 S
C1252 C1250 1.389 1_565 S
C1252 C1253 1.524 . S
C1252 C1266 1.377 . S
C1253 C1252 1.524 . S
C1253 C1254 1.397 . S
C1253 C1258 1.363 . S
C1254 H1231 0.945 . S
C1254 C1253 1.397 . S
C1254 C1255 1.334 . S
C1255 H1232 0.950 . S
C1255 C1254 1.334 . S
C1255 C1256 1.287 . S
C1256 C1255 1.287 . S
C1256 C1257 1.524 . S
C1256 H1275 0.913 . S
C1257 H1233 0.950 . S
C1257 C1256 1.524 . S
C1257 C1258 1.415 . S
C1258 H1234 0.950 . S
C1258 C1253 1.363 . S
C1258 C1257 1.415 . S
C1259 H1235 0.951 . S
C1259 C1260 1.366 . S
C1259 C1261 1.388 . S
C1260 C1259 1.366 . S
C1260 C1264 1.385 . S
C1261 H1236 0.951 . S
C1261 C1259 1.388 . S
C1261 C1262 1.366 . S
C1262 C1261 1.366 . S
C1262 C1263 1.414 . S
C1262 C1265 1.499 . S
C1263 H1237 0.950 . S
C1263 C1262 1.414 . S
C1263 C1264 1.374 . S
C1264 H1238 0.950 . S
C1264 C1260 1.385 . S
C1264 C1263 1.374 . S
C1265 C1262 1.499 . S
C1265 C1266 1.373 . S
C1265 C1267 1.432 . S
C1266 H1239 0.950 . S
C1266 C1252 1.377 . S
C1266 C1265 1.373 . S
C1267 C1251 1.350 1_565 S
C1267 C1265 1.432 . S
C1267 C1268 1.507 1_565 S
C1268 C1267 1.507 1_545 S
C1268 C1269 1.397 1_545 S
C1268 C1273 1.363 . S
C1269 H1240 0.950 . S
C1269 C1268 1.397 1_565 S
C1269 C1270 1.334 1_565 S
C1270 H1241 0.950 1_545 S
C1270 C1269 1.334 1_545 S
C1270 C1271 1.287 . S
C1271 C1270 1.287 . S
C1271 C1272 1.524 . S
C1271 H1274 0.999 . S
C1272 H1242 0.950 . S
C1272 C1271 1.524 . S
C1272 C1273 1.415 . S
C1273 H1243 0.950 . S
C1273 C1268 1.363 . S
C1273 C1272 1.415 . S
H1274 C1271 0.999 . S
H1275 C1256 0.913 . S
H1276 C1294 0.951 . S
H1277 C1296 0.951 . S
H1278 C1298 0.950 1_545 S
H1279 C1299 0.950 . S
H1280 C1301 0.950 . S
H1281 C1304 0.950 . S
H1282 C1305 0.950 . S
H1283 C1307 0.950 . S
H1284 C1308 0.950 . S
H1285 C1309 0.951 . S
H1286 C1311 0.951 . S
H1287 C1313 0.950 . S
H1288 C1314 0.950 . S
H1289 C1316 0.950 . S
H1290 C1319 0.950 . S
H1291 C1320 0.950 . S
H1292 C1322 0.950 . S
H1293 C1323 0.950 . S
C1294 H1276 0.951 . S
C1294 C1295 1.366 . S
C1294 C1296 1.388 . S
C1295 C1294 1.366 . S
C1295 C1299 1.385 . S
C1296 H1277 0.951 . S
C1296 C1294 1.388 . S
C1296 C1297 1.366 . S
C1297 C1296 1.366 . S
C1297 C1298 1.414 . S
C1297 C1300 1.499 . S
C1298 H1278 0.950 1_565 S
C1298 C1297 1.414 . S
C1298 C1299 1.374 . S
C1299 H1279 0.950 . S
C1299 C1295 1.385 . S
C1299 C1298 1.374 . S
C1300 C1297 1.499 . S
C1300 C1301 1.373 1_565 S
C1300 C1302 1.389 . S
C1301 H1280 0.950 . S
C1301 C1300 1.373 1_545 S
C1301 C1317 1.377 . S
C1302 C1300 1.389 . S
C1302 C1303 1.524 . S
C1302 C1316 1.377 1_565 S
C1303 C1302 1.524 . S
C1303 C1304 1.397 . S
C1303 C1308 1.363 . S
C1304 H1281 0.950 . S
C1304 C1303 1.397 . S
C1304 C1305 1.334 . S
C1305 H1282 0.950 . S
C1305 C1304 1.334 . S
C1305 C1306 1.287 . S
C1306 C1305 1.287 . S
C1306 C1307 1.524 . S
C1306 H1325 0.913 . S
C1307 H1283 0.950 . S
C1307 C1306 1.524 . S
C1307 C1308 1.415 . S
C1308 H1284 0.950 . S
C1308 C1303 1.363 . S
C1308 C1307 1.415 . S
C1309 H1285 0.951 . S
C1309 C1310 1.366 1_554 S
C1309 C1311 1.388 . S
C1310 C1309 1.366 1_556 S
C1310 C1314 1.385 . S
C1311 H1286 0.951 . S
C1311 C1309 1.388 . S
C1311 C1312 1.366 . S
C1312 C1311 1.366 . S
C1312 C1313 1.414 . S
C1312 C1315 1.499 . S
C1313 H1287 0.950 . S
C1313 C1312 1.414 . S
C1313 C1314 1.374 1_554 S
C1314 H1288 0.950 . S
C1314 C1310 1.385 . S
C1314 C1313 1.374 1_556 S
C1315 C1312 1.499 . S
C1315 C1316 1.373 . S
C1315 C1317 1.389 . S
C1316 H1289 0.950 . S
C1316 C1302 1.377 1_545 S
C1316 C1315 1.373 . S
C1317 C1301 1.377 . S
C1317 C1315 1.389 . S
C1317 C1318 1.524 . S
C1318 C1317 1.524 . S
C1318 C1319 1.397 . S
C1318 C1323 1.363 . S
C1319 H1290 0.950 . S
C1319 C1318 1.397 . S
C1319 C1320 1.334 . S
C1320 H1291 0.950 . S
C1320 C1319 1.334 . S
C1320 C1321 1.287 . S
C1321 C1320 1.287 . S
C1321 C1322 1.524 . S
C1321 H1324 0.999 . S
C1322 H1292 0.950 . S
C1322 C1321 1.524 . S
C1322 C1323 1.415 . S
C1323 H1293 0.950 . S
C1323 C1318 1.363 . S
C1323 C1322 1.415 . S
H1324 C1321 0.999 . S
H1325 C1306 0.913 . S
H1326 C1344 0.951 . S
H1327 C1346 0.951 . S
H1328 C1348 0.950 . S
H1329 C1349 0.950 . S
H1330 C1351 0.945 1_565 S
H1331 C1354 0.950 . S
H1332 C1355 0.950 . S
H1333 C1357 0.950 . S
H1334 C1358 0.950 . S
H1335 C1359 0.951 . S
H1336 C1361 0.951 . S
H1337 C1363 0.950 1_545 S
H1338 C1364 0.950 . S
H1339 C1366 0.950 . S
H1340 C1369 0.950 . S
H1341 C1370 0.950 . S
H1342 C1372 0.950 . S
H1343 C1373 0.950 . S
C1344 H1326 0.951 . S
C1344 C1345 1.366 . S
C1344 C1346 1.388 . S
C1345 C1344 1.366 . S
C1345 C1349 1.385 . S
C1346 H1327 0.951 . S
C1346 C1344 1.388 . S
C1346 C1347 1.366 . S
C1347 C1346 1.366 . S
C1347 C1348 1.414 . S
C1347 C1350 1.499 . S
C1348 H1328 0.950 . S
C1348 C1347 1.414 . S
C1348 C1349 1.374 . S
C1349 H1329 0.950 . S
C1349 C1345 1.385 . S
C1349 C1348 1.374 . S
C1350 C1347 1.499 . S
C1350 C1351 1.385 . S
C1350 C1352 1.389 . S
C1351 H1330 0.945 1_545 S
C1351 C1350 1.385 . S
C1351 C1367 1.369 1_545 S
C1352 C1350 1.389 . S
C1352 C1353 1.524 . S
C1352 C1366 1.377 . S
C1353 C1352 1.524 . S
C1353 C1354 1.397 . S
C1353 C1358 1.363 . S
C1354 H1331 0.950 . S
C1354 C1353 1.397 . S
C1354 C1355 1.334 . S
C1355 H1332 0.950 . S
C1355 C1354 1.334 . S
C1355 C1356 1.287 . S
C1356 C1355 1.287 . S
C1356 C1357 1.524 . S
C1356 H1375 0.913 . S
C1357 H1333 0.950 . S
C1357 C1356 1.524 . S
C1357 C1358 1.415 . S
C1358 H1334 0.950 . S
C1358 C1353 1.363 . S
C1358 C1357 1.415 . S
C1359 H1335 0.951 . S
C1359 C1360 1.366 . S
C1359 C1361 1.388 . S
C1360 C1359 1.366 . S
C1360 C1364 1.385 . S
C1361 H1336 0.951 . S
C1361 C1359 1.388 . S
C1361 C1362 1.366 . S
C1362 C1361 1.366 . S
C1362 C1363 1.414 . S
C1362 C1365 1.499 . S
C1363 H1337 0.950 1_565 S
C1363 C1362 1.414 . S
C1363 C1364 1.374 . S
C1364 H1338 0.950 . S
C1364 C1360 1.385 . S
C1364 C1363 1.374 . S
C1365 C1362 1.499 . S
C1365 C1366 1.373 1_565 S
C1365 C1367 1.389 . S
C1366 H1339 0.950 . S
C1366 C1352 1.377 . S
C1366 C1365 1.373 1_545 S
C1367 C1351 1.369 1_565 S
C1367 C1365 1.389 . S
C1367 C1368 1.524 . S
C1368 C1367 1.524 . S
C1368 C1369 1.397 . S
C1368 C1373 1.363 . S
C1369 H1340 0.950 . S
C1369 C1368 1.397 . S
C1369 C1370 1.334 . S
C1370 H1341 0.950 . S
C1370 C1369 1.334 . S
C1370 C1371 1.287 . S
C1371 C1370 1.287 . S
C1371 C1372 1.524 . S
C1371 H1374 0.999 . S
C1372 H1342 0.950 . S
C1372 C1371 1.524 . S
C1372 C1373 1.415 . S
C1373 H1343 0.950 . S
C1373 C1368 1.363 . S
C1373 C1372 1.415 . S
H1374 C1371 0.999 . S
H1375 C1356 0.913 . S
C195 C27 1.389 . S
C210 C9 1.389 . S
C245 C51 1.389 . S
C260 C72 1.389 . S
C295 C115 1.389 . S
C310 C97 1.389 . S
C345 C139 1.389 . S
C360 C160 1.389 . S
C395 C8 1.601 . S
C410 C140 1.601 . S
C445 C26 1.601 . S
C460 C158 1.601 . S
C495 C96 1.601 . S
C510 C52 1.601 . S
C545 C70 1.601 . S
C560 C114 1.601 . S
C595 C50 0.578 . S
C610 C5 0.578 . S
C645 C73 0.577 . S
C660 C31 0.577 . S
C695 C93 0.576 . S
C710 C138 0.576 . S
C745 C119 0.578 . S
C760 C161 0.578 . S
C795 C4 1.782 . S
C810 C30 1.783 . S
C845 C74 1.783 . S
C860 C48 1.782 . S
C895 C118 1.782 . S
C910 C92 1.783 . S
C945 C162 1.782 . S
C960 C136 1.783 . S
C995 C7 1.139 . S
C1010 C75 1.207 . S
C1045 C28 1.138 . S
C1060 C49 1.207 . S
C1095 C29 1.208 . S
C1110 C53 1.140 . S
C1145 C6 1.207 . S
C1160 C71 1.138 . S
C1195 C95 1.140 . S
C1210 C163 1.207 . S
C1245 C137 1.207 . S
C1260 C116 1.139 . S
C1295 C117 1.207 . S
C1310 C141 1.138 . S
C1345 C159 1.139 . S
C1360 C94 1.207 . S
