# Generated by pormake.
# Topology uot, (4)-cn, num edge types: 1
# Building blocks:
#     Node 0, Type 0, BuildingBlock: AZAVOO_clean_sbu_0, # of connection points: 4
#     Node 1, Type 0, BuildingBlock: AZAVOO_clean_sbu_0, # of connection points: 4
#     Node 2, Type 0, BuildingBlock: AZAVOO_clean_sbu_0, # of connection points: 4
#     Node 3, Type 0, BuildingBlock: AZAVOO_clean_sbu_0, # of connection points: 4
#     Node 4, Type 0, BuildingBlock: AZAVOO_clean_sbu_0, # of connection points: 4
#     Node 5, Type 0, BuildingBlock: AZAVOO_clean_sbu_0, # of connection points: 4
#     Node 6, Type 0, BuildingBlock: AZAVOO_clean_sbu_0, # of connection points: 4
#     Node 7, Type 0, BuildingBlock: AZAVOO_clean_sbu_0, # of connection points: 4
#     Node 8, Type 0, BuildingBlock: AZAVOO_clean_sbu_0, # of connection points: 4
#     Node 9, Type 0, BuildingBlock: AZAVOO_clean_sbu_0, # of connection points: 4
#     Node 10, Type 0, BuildingBlock: AZAVOO_clean_sbu_0, # of connection points: 4
#     Node 11, Type 0, BuildingBlock: AZAVOO_clean_sbu_0, # of connection points: 4
#     Node 12, Type 0, BuildingBlock: AZAVOO_clean_sbu_0, # of connection points: 4
#     Node 13, Type 0, BuildingBlock: AZAVOO_clean_sbu_0, # of connection points: 4
#     Node 14, Type 0, BuildingBlock: AZAVOO_clean_sbu_0, # of connection points: 4
#     Node 15, Type 0, BuildingBlock: AZAVOO_clean_sbu_0, # of connection points: 4
#     Edge 16, Type (0, 0), BuildingBlock: TEMPAE_clean_linker_10, # of connection points: 2
#     Edge 17, Type (0, 0), BuildingBlock: TEMPAE_clean_linker_10, # of connection points: 2
#     Edge 18, Type (0, 0), BuildingBlock: TEMPAE_clean_linker_10, # of connection points: 2
#     Edge 19, Type (0, 0), BuildingBlock: TEMPAE_clean_linker_10, # of connection points: 2
#     Edge 20, Type (0, 0), BuildingBlock: TEMPAE_clean_linker_10, # of connection points: 2
#     Edge 21, Type (0, 0), BuildingBlock: TEMPAE_clean_linker_10, # of connection points: 2
#     Edge 22, Type (0, 0), BuildingBlock: TEMPAE_clean_linker_10, # of connection points: 2
#     Edge 23, Type (0, 0), BuildingBlock: TEMPAE_clean_linker_10, # of connection points: 2
#     Edge 24, Type (0, 0), BuildingBlock: TEMPAE_clean_linker_10, # of connection points: 2
#     Edge 25, Type (0, 0), BuildingBlock: TEMPAE_clean_linker_10, # of connection points: 2
#     Edge 26, Type (0, 0), BuildingBlock: TEMPAE_clean_linker_10, # of connection points: 2
#     Edge 27, Type (0, 0), BuildingBlock: TEMPAE_clean_linker_10, # of connection points: 2
#     Edge 28, Type (0, 0), BuildingBlock: TEMPAE_clean_linker_10, # of connection points: 2
#     Edge 29, Type (0, 0), BuildingBlock: TEMPAE_clean_linker_10, # of connection points: 2
#     Edge 30, Type (0, 0), BuildingBlock: TEMPAE_clean_linker_10, # of connection points: 2
#     Edge 31, Type (0, 0), BuildingBlock: TEMPAE_clean_linker_10, # of connection points: 2
#     Edge 32, Type (0, 0), BuildingBlock: TEMPAE_clean_linker_10, # of connection points: 2
#     Edge 33, Type (0, 0), BuildingBlock: TEMPAE_clean_linker_10, # of connection points: 2
#     Edge 34, Type (0, 0), BuildingBlock: TEMPAE_clean_linker_10, # of connection points: 2
#     Edge 35, Type (0, 0), BuildingBlock: TEMPAE_clean_linker_10, # of connection points: 2
#     Edge 36, Type (0, 0), BuildingBlock: TEMPAE_clean_linker_10, # of connection points: 2
#     Edge 37, Type (0, 0), BuildingBlock: TEMPAE_clean_linker_10, # of connection points: 2
#     Edge 38, Type (0, 0), BuildingBlock: TEMPAE_clean_linker_10, # of connection points: 2
#     Edge 39, Type (0, 0), BuildingBlock: TEMPAE_clean_linker_10, # of connection points: 2
#     Edge 40, Type (0, 0), BuildingBlock: TEMPAE_clean_linker_10, # of connection points: 2
#     Edge 41, Type (0, 0), BuildingBlock: TEMPAE_clean_linker_10, # of connection points: 2
#     Edge 42, Type (0, 0), BuildingBlock: TEMPAE_clean_linker_10, # of connection points: 2
#     Edge 43, Type (0, 0), BuildingBlock: TEMPAE_clean_linker_10, # of connection points: 2
#     Edge 44, Type (0, 0), BuildingBlock: TEMPAE_clean_linker_10, # of connection points: 2
#     Edge 45, Type (0, 0), BuildingBlock: TEMPAE_clean_linker_10, # of connection points: 2
#     Edge 46, Type (0, 0), BuildingBlock: TEMPAE_clean_linker_10, # of connection points: 2
#     Edge 47, Type (0, 0), BuildingBlock: TEMPAE_clean_linker_10, # of connection points: 2
# Relax obj value: 0.217
# Max RMSD: 0.317
# Mean RMSD: 0.231
data_MOF--net-uot--node1-AZAVOO_clean_sbu_0--edge1-TEMPAE_clean_linker_10
_symmetry_space_group_name_H-M    P1
_symmetry_Int_Tables_number       1
_symmetry_cell_setting            triclinic
loop_
_symmetry_equiv_pos_as_xyz
'x, y, z'
_cell_length_a     49.03471
_cell_length_b     35.533885
_cell_length_c     40.761163
_cell_angle_alpha  90.050987
_cell_angle_beta   89.914691
_cell_angle_gamma 89.978807
loop_
_atom_site_label
_atom_site_type_symbol
_atom_site_fract_x
_atom_site_fract_y
_atom_site_fract_z
_atom_type_partial_charge
Mg0 Mg 0.18432 0.4198 0.31881 0.0
O1 O 0.1695 0.46788 0.2849 0.0
O2 O 0.19381 0.51878 0.29877 0.0
Mg3 Mg 0.22049 0.50496 0.34323 0.0
C4 C 0.17593 0.50248 0.281 0.0
C5 C 0.13873 0.37793 0.28246 0.0
O6 O 0.12674 0.41024 0.2886 0.0
O7 O 0.2253 0.41505 0.29233 0.0
O8 O 0.24736 0.46499 0.31243 0.0
O9 O 0.15165 0.43261 0.35416 0.0
O10 O 0.19261 0.45854 0.35574 0.0
C11 C 0.24694 0.4348 0.29534 0.0
C12 C 0.16835 0.45597 0.36786 0.0
O13 O 0.164 0.37421 0.28859 0.0
Mg14 Mg 0.45776 0.70233 0.70938 0.0
O15 O 0.44885 0.76597 0.70936 0.0
O16 O 0.48876 0.79632 0.71172 0.0
Mg17 Mg 0.52315 0.75319 0.7062 0.0
C18 C 0.46272 0.79629 0.71186 0.0
C19 C 0.39662 0.68555 0.72566 0.0
O20 O 0.40706 0.68952 0.75511 0.0
O21 O 0.46814 0.70285 0.65411 0.0
O22 O 0.50798 0.73329 0.65627 0.0
O23 O 0.46206 0.70773 0.76412 0.0
O24 O 0.49643 0.71185 0.72928 0.0
C25 C 0.48943 0.71626 0.6401 0.0
C26 C 0.48742 0.71553 0.75863 0.0
O27 O 0.41211 0.68993 0.70081 0.0
Mg28 Mg 0.82614 0.53076 0.3154 0.0
O29 O 0.84165 0.4748 0.29396 0.0
O30 O 0.82622 0.42852 0.32596 0.0
Mg31 Mg 0.80077 0.45489 0.36731 0.0
C32 C 0.83992 0.43996 0.30124 0.0
C33 C 0.86559 0.55846 0.26424 0.0
O34 O 0.87836 0.52949 0.27702 0.0
O35 O 0.78348 0.52065 0.29579 0.0
O36 O 0.76811 0.47839 0.33194 0.0
O37 O 0.86216 0.53601 0.34759 0.0
O38 O 0.82388 0.50756 0.36202 0.0
C39 C 0.76421 0.50074 0.30779 0.0
C40 C 0.84833 0.51782 0.36944 0.0
O41 O 0.84065 0.56374 0.27141 0.0
Mg42 Mg 0.53826 0.33911 0.68398 0.0
O43 O 0.54957 0.27767 0.69637 0.0
O44 O 0.51091 0.24439 0.69862 0.0
Mg45 Mg 0.47576 0.28203 0.68157 0.0
C46 C 0.53671 0.24708 0.70211 0.0
C47 C 0.59633 0.36355 0.70552 0.0
O48 O 0.58326 0.36249 0.73364 0.0
O49 O 0.53364 0.32514 0.62901 0.0
O50 O 0.495 0.29185 0.6313 0.0
O51 O 0.52844 0.34649 0.73752 0.0
O52 O 0.49831 0.33066 0.69976 0.0
C53 C 0.51443 0.30678 0.61497 0.0
C54 C 0.5041 0.33545 0.73011 0.0
O55 O 0.58369 0.35412 0.6795 0.0
Mg56 Mg 0.14988 0.59129 0.64812 0.0
O57 O 0.13523 0.53802 0.67628 0.0
O58 O 0.16267 0.4915 0.65949 0.0
Mg59 Mg 0.19449 0.51346 0.62329 0.0
C60 C 0.14254 0.50341 0.67648 0.0
C61 C 0.11116 0.65369 0.657 0.0
O62 O 0.11945 0.65302 0.62634 0.0
O63 O 0.18755 0.5991 0.68107 0.0
O64 O 0.21394 0.55297 0.66127 0.0
O65 O 0.12324 0.57728 0.60557 0.0
O66 O 0.16588 0.55825 0.61044 0.0
C67 C 0.21031 0.58143 0.67997 0.0
C68 C 0.14363 0.55861 0.59378 0.0
O69 O 0.12176 0.63044 0.67707 0.0
Mg70 Mg 0.52809 0.65743 0.32467 0.0
O71 O 0.54786 0.71409 0.31063 0.0
O72 O 0.51603 0.75893 0.3132 0.0
Mg73 Mg 0.47684 0.73226 0.33303 0.0
C74 C 0.54033 0.74824 0.30686 0.0
C75 C 0.57537 0.60623 0.30164 0.0
O76 O 0.55612 0.59776 0.28052 0.0
O77 O 0.52971 0.67215 0.37985 0.0
O78 O 0.49751 0.71682 0.38111 0.0
O79 O 0.51259 0.65284 0.27255 0.0
O80 O 0.48965 0.67756 0.31389 0.0
C81 C 0.51517 0.69622 0.39548 0.0
C82 C 0.49113 0.6702 0.2832 0.0
O83 O 0.57028 0.63023 0.32403 0.0
Mg84 Mg 0.84511 0.46904 0.6584 0.0
O85 O 0.85764 0.51891 0.69159 0.0
O86 O 0.83419 0.56762 0.67135 0.0
Mg87 Mg 0.80744 0.54988 0.62817 0.0
C88 C 0.85133 0.55385 0.69163 0.0
C89 C 0.87067 0.39867 0.6678 0.0
O90 O 0.85973 0.40198 0.63852 0.0
O91 O 0.80378 0.46255 0.68309 0.0
O92 O 0.78103 0.50999 0.65981 0.0
O93 O 0.87851 0.48229 0.62409 0.0
O94 O 0.83665 0.50442 0.6192 0.0
C95 C 0.7817 0.48074 0.67807 0.0
C96 C 0.86124 0.50266 0.60808 0.0
O97 O 0.8662 0.42459 0.68875 0.0
Mg98 Mg 0.48866 0.28925 0.29308 0.0
O99 O 0.4703 0.23008 0.29183 0.0
O100 O 0.50201 0.18757 0.30511 0.0
Mg101 Mg 0.54149 0.22056 0.31466 0.0
C102 C 0.47775 0.19613 0.29662 0.0
C103 C 0.43381 0.32384 0.265 0.0
O104 O 0.44709 0.3206 0.23712 0.0
O105 O 0.48918 0.2901 0.34992 0.0
O106 O 0.52255 0.24859 0.35915 0.0
O107 O 0.50232 0.27913 0.24042 0.0
O108 O 0.52711 0.26754 0.28441 0.0
C109 C 0.5048 0.27198 0.36954 0.0
C110 C 0.52448 0.26586 0.25321 0.0
O111 O 0.44541 0.3136 0.29144 0.0
Mg112 Mg 0.6442 0.97328 0.87271 0.0
O113 O 0.63338 0.02344 0.83897 0.0
O114 O 0.65726 0.07227 0.85816 0.0
Mg115 Mg 0.68336 0.0537 0.90186 0.0
C116 C 0.64013 0.05819 0.83801 0.0
C117 C 0.6125 0.90539 0.85865 0.0
O118 O 0.61832 0.90641 0.89011 0.0
O119 O 0.68598 0.96484 0.84828 0.0
O120 O 0.70912 0.01273 0.87033 0.0
O121 O 0.61106 0.98934 0.90731 0.0
O122 O 0.65352 0.00911 0.91167 0.0
C123 C 0.70823 0.98297 0.85265 0.0
C124 C 0.62891 0.00928 0.92286 0.0
O125 O 0.62216 0.9311 0.84027 0.0
Mg126 Mg 0.97532 0.16464 0.16933 0.0
O127 O 0.95667 0.22203 0.18296 0.0
O128 O 0.98895 0.2662 0.1793 0.0
Mg129 Mg 0.02722 0.2383 0.15812 0.0
C130 C 0.96465 0.25604 0.18622 0.0
C131 C 0.92839 0.11055 0.19029 0.0
O132 O 0.94877 0.09723 0.20766 0.0
O133 O 0.97238 0.1785 0.11418 0.0
O134 O 0.0048 0.22274 0.11126 0.0
O135 O 0.99247 0.16101 0.22099 0.0
O136 O 0.01429 0.18423 0.17822 0.0
C137 C 0.98656 0.20228 0.09782 0.0
C138 C 0.01381 0.17754 0.20903 0.0
O139 O 0.93265 0.13852 0.17147 0.0
Mg140 Mg 0.34147 0.08922 0.8429 0.0
O141 O 0.3579 0.03646 0.81587 0.0
O142 O 0.33351 0.98827 0.83552 0.0
Mg143 Mg 0.3025 0.00889 0.87335 0.0
C144 C 0.35226 0.00132 0.81696 0.0
C145 C 0.37111 0.15795 0.82802 0.0
O146 O 0.36125 0.15998 0.85797 0.0
O147 O 0.30288 0.09053 0.81178 0.0
O148 O 0.2792 0.04389 0.83505 0.0
O149 O 0.37081 0.08133 0.88366 0.0
O150 O 0.3294 0.05683 0.88261 0.0
C151 C 0.28102 0.07125 0.8148 0.0
C152 C 0.35234 0.06083 0.89754 0.0
O153 O 0.36503 0.12945 0.81058 0.0
Mg154 Mg 0.0404 0.78585 0.17042 0.0
O155 O 0.06351 0.72976 0.1753 0.0
O156 O 0.0397 0.68409 0.15094 0.0
Mg157 Mg 1.0001 0.71056 0.13206 0.0
C158 C 0.0605 0.69539 0.16691 0.0
C159 C 0.08817 0.82358 0.21263 0.0
O160 O 0.07339 0.81317 0.23795 0.0
O161 O 0.04934 0.79189 0.11537 0.0
O162 O 0.02251 0.74673 0.09477 0.0
O163 O 0.01749 0.77172 0.21709 0.0
O164 O 0.00386 0.75752 0.16708 0.0
C165 C 0.03903 0.77414 0.09105 0.0
C166 C 0.99982 0.75568 0.19804 0.0
O167 O 0.07965 0.81672 0.18378 0.0
Mg168 Mg 0.67374 0.03764 0.20683 0.0
O169 O 0.66207 0.97674 0.21857 0.0
O170 O 0.6725 0.94022 0.17585 0.0
Mg171 Mg 0.69119 0.97867 0.13626 0.0
C172 C 0.66262 0.9446 0.20461 0.0
C173 C 0.65535 0.07155 0.27784 0.0
O174 O 0.65769 0.07173 0.30996 0.0
O175 O 0.71925 0.02625 0.21221 0.0
O176 O 0.72926 0.99403 0.16672 0.0
O177 O 0.63233 0.04697 0.18375 0.0
O178 O 0.66899 0.02715 0.1573 0.0
C179 C 0.73657 0.01073 0.19307 0.0
C180 C 0.64348 0.03525 0.15684 0.0
O181 O 0.67111 0.05031 0.26142 0.0
Mg182 Mg 0.03668 0.19959 0.78303 0.0
O183 O 0.04627 0.26311 0.78001 0.0
O184 O 0.00665 0.29418 0.77805 0.0
Mg185 Mg 0.97206 0.25177 0.7861 0.0
C186 C 0.03268 0.29363 0.77704 0.0
C187 C 0.09472 0.17204 0.76633 0.0
O188 O 0.08147 0.16591 0.73886 0.0
O189 O 0.02767 0.20356 0.83838 0.0
O190 O 0.98794 0.23439 0.83641 0.0
O191 O 0.03095 0.20116 0.72827 0.0
O192 O 0.99781 0.20808 0.76457 0.0
C193 C 0.00678 0.21794 0.85255 0.0
C194 C 0.00571 0.20889 0.73462 0.0
O195 O 0.08199 0.18671 0.7904 0.0
Mg196 Mg 0.33123 0.92447 0.17419 0.0
O197 O 0.3507 0.96948 0.20753 0.0
O198 O 0.32768 0.02288 0.19865 0.0
Mg199 Mg 0.2968 0.01323 0.15742 0.0
C200 C 0.34626 0.00429 0.21338 0.0
C201 C 0.37739 0.87844 0.20511 0.0
O202 O 0.39027 0.91 0.19873 0.0
O203 O 0.29256 0.92134 0.20508 0.0
O204 O 0.27076 0.97346 0.18937 0.0
O205 O 0.36156 0.93675 0.13607 0.0
O206 O 0.32163 0.96549 0.13987 0.0
C207 C 0.27146 0.94241 0.20519 0.0
C208 C 0.34486 0.96202 0.12522 0.0
O209 O 0.35179 0.87651 0.20077 0.0
Mg210 Mg 0.95344 0.85035 0.79955 0.0
O211 O 0.94616 0.78638 0.8013 0.0
O212 O 0.98634 0.75799 0.79312 0.0
Mg213 Mg 0.02001 0.80269 0.79225 0.0
C214 C 0.9605 0.75669 0.79708 0.0
C215 C 0.89424 0.87913 0.79353 0.0
O216 O 0.90536 0.88793 0.76522 0.0
O217 O 0.96942 0.85007 0.85297 0.0
O218 O 0.00975 0.82241 0.84375 0.0
O219 O 0.95224 0.8441 0.74439 0.0
O220 O 0.98986 0.84233 0.77393 0.0
C221 C 0.99267 0.83821 0.86294 0.0
C222 C 0.97817 0.83775 0.74616 0.0
O223 O 0.9088 0.86198 0.81466 0.0
C224 C 0.27566 0.38238 0.27247 0.0
C225 C 0.27324 0.4201 0.28239 0.0
C226 C 0.30134 0.36636 0.26599 0.0
C227 C 0.32514 0.38861 0.26931 0.0
C228 C 0.32267 0.42727 0.27714 0.0
C229 C 0.2968 0.44251 0.28362 0.0
C230 C 0.30309 0.32505 0.25755 0.0
C231 C 0.34749 0.45212 0.28055 0.0
C232 C 0.39117 0.34132 0.29536 0.0
C233 C 0.40575 0.3396 0.26575 0.0
C234 C 0.36482 0.35668 0.29665 0.0
C235 C 0.35267 0.37085 0.26767 0.0
C236 C 0.36713 0.36891 0.23763 0.0
C237 C 0.39348 0.35326 0.23701 0.0
C238 C 0.35006 0.35811 0.32919 0.0
C239 C 0.3549 0.3838 0.20624 0.0
H240 H 0.25764 0.36477 0.27139 0.0
H241 H 0.29519 0.47177 0.29094 0.0
H242 H 0.31646 0.32066 0.23591 0.0
H243 H 0.31229 0.30951 0.27838 0.0
H244 H 0.28274 0.31271 0.2523 0.0
H245 H 0.34199 0.48228 0.28339 0.0
H246 H 0.3594 0.44333 0.30238 0.0
H247 H 0.36098 0.44907 0.25884 0.0
H248 H 0.40039 0.33075 0.31767 0.0
H249 H 0.40455 0.35206 0.21401 0.0
H250 H 0.33019 0.34336 0.32728 0.0
H251 H 0.34571 0.38778 0.3359 0.0
H252 H 0.36204 0.34503 0.34929 0.0
H253 H 0.33501 0.36998 0.20148 0.0
H254 H 0.36843 0.37916 0.18473 0.0
H255 H 0.35093 0.41441 0.20867 0.0
C256 C 0.35604 0.66913 0.6908 0.0
C257 C 0.36766 0.67387 0.72195 0.0
C258 C 0.32915 0.65598 0.68724 0.0
C259 C 0.31349 0.64718 0.71549 0.0
C260 C 0.32486 0.6528 0.74699 0.0
C261 C 0.35174 0.66612 0.74983 0.0
C262 C 0.31773 0.65057 0.65318 0.0
C263 C 0.30893 0.64366 0.77769 0.0
C264 C 0.23699 0.63627 0.70183 0.0
C265 C 0.23485 0.59741 0.69615 0.0
C266 C 0.26228 0.65282 0.70951 0.0
C267 C 0.28588 0.62993 0.71185 0.0
C268 C 0.28339 0.59043 0.70852 0.0
C269 C 0.25798 0.5747 0.70064 0.0
C270 C 0.26404 0.69503 0.71306 0.0
C271 C 0.3079 0.56487 0.71136 0.0
H272 H 0.3681 0.67516 0.66912 0.0
H273 H 0.36044 0.66973 0.77405 0.0
H274 H 0.31357 0.62028 0.64887 0.0
H275 H 0.29808 0.66579 0.65074 0.0
H276 H 0.3319 0.66071 0.63382 0.0
H277 H 0.31998 0.65197 0.80034 0.0
H278 H 0.28889 0.65814 0.77735 0.0
H279 H 0.30485 0.61297 0.77871 0.0
H280 H 0.21931 0.65409 0.69819 0.0
H281 H 0.25649 0.54463 0.69651 0.0
H282 H 0.27523 0.70691 0.69177 0.0
H283 H 0.27559 0.70269 0.73546 0.0
H284 H 0.24357 0.70838 0.71425 0.0
H285 H 0.32204 0.57021 0.69061 0.0
H286 H 0.30214 0.53463 0.71107 0.0
H287 H 0.31919 0.57082 0.73435 0.0
C288 C 0.62323 0.59717 0.3215 0.0
C289 C 0.60259 0.5883 0.29903 0.0
C290 C 0.64908 0.5804 0.31924 0.0
C291 C 0.65446 0.55412 0.29387 0.0
C292 C 0.63378 0.54513 0.27102 0.0
C293 C 0.60808 0.56231 0.27388 0.0
C294 C 0.67063 0.59073 0.34411 0.0
C295 C 0.63878 0.51732 0.24363 0.0
C296 C 0.72991 0.53985 0.27755 0.0
C297 C 0.73569 0.5089 0.2978 0.0
C298 C 0.70319 0.5536 0.2744 0.0
C299 C 0.68174 0.53588 0.29178 0.0
C300 C 0.68705 0.50276 0.30994 0.0
C301 C 0.71394 0.48963 0.31268 0.0
C302 C 0.6983 0.58874 0.25445 0.0
C303 C 0.66468 0.48275 0.3285 0.0
H304 H 0.6192 0.61723 0.34096 0.0
H305 H 0.59228 0.55532 0.25635 0.0
H306 H 0.67725 0.56522 0.3576 0.0
H307 H 0.68883 0.6023 0.33145 0.0
H308 H 0.66325 0.61185 0.36217 0.0
H309 H 0.62066 0.51375 0.22761 0.0
H310 H 0.65621 0.52675 0.22832 0.0
H311 H 0.64433 0.48951 0.25401 0.0
H312 H 0.74646 0.55487 0.26574 0.0
H313 H 0.71806 0.46545 0.3281 0.0
H314 H 0.69396 0.61264 0.2712 0.0
H315 H 0.68028 0.58519 0.23833 0.0
H316 H 0.71621 0.59618 0.23904 0.0
H317 H 0.65809 0.50039 0.34955 0.0
H318 H 0.67145 0.45502 0.33805 0.0
H319 H 0.64663 0.47841 0.31257 0.0
C320 C 0.63927 0.3789 0.67467 0.0
C321 C 0.62465 0.37822 0.70425 0.0
C322 C 0.66549 0.39477 0.67306 0.0
C323 C 0.6773 0.41055 0.70166 0.0
C324 C 0.66287 0.40926 0.73171 0.0
C325 C 0.63679 0.39301 0.73267 0.0
C326 C 0.68035 0.39532 0.6406 0.0
C327 C 0.67469 0.4259 0.76269 0.0
C328 C 0.75394 0.42686 0.69967 0.0
C329 C 0.75542 0.46456 0.6895 0.0
C330 C 0.72865 0.40915 0.7047 0.0
C331 C 0.70427 0.42971 0.69973 0.0
C332 C 0.70565 0.46832 0.69135 0.0
C333 C 0.73117 0.48523 0.68626 0.0
C334 C 0.72803 0.36796 0.71372 0.0
C335 C 0.68012 0.4914 0.68634 0.0
H336 H 0.63011 0.36743 0.65264 0.0
H337 H 0.62569 0.39263 0.75567 0.0
H338 H 0.6837 0.42484 0.63272 0.0
H339 H 0.70071 0.38202 0.6432 0.0
H340 H 0.66892 0.38037 0.62101 0.0
H341 H 0.66139 0.42113 0.78438 0.0
H342 H 0.69504 0.41355 0.76769 0.0
H343 H 0.67758 0.45665 0.75953 0.0
H344 H 0.7725 0.41054 0.70216 0.0
H345 H 0.73205 0.51442 0.67861 0.0
H346 H 0.71932 0.3515 0.6931 0.0
H347 H 0.71471 0.36336 0.73536 0.0
H348 H 0.74868 0.35677 0.71926 0.0
H349 H 0.66879 0.48058 0.66476 0.0
H350 H 0.68468 0.52166 0.68226 0.0
H351 H 0.66647 0.48883 0.70794 0.0
C352 C 0.75872 0.98789 0.84338 0.0
C353 C 0.73441 0.96735 0.83986 0.0
C354 C 0.7841 0.97224 0.83498 0.0
C355 C 0.78541 0.935 0.82269 0.0
C356 C 0.76096 0.91438 0.81821 0.0
C357 C 0.73577 0.93079 0.82678 0.0
C358 C 0.80961 0.99538 0.83987 0.0
C359 C 0.76146 0.87468 0.80504 0.0
C360 C 0.85027 0.90916 0.77646 0.0
C361 C 0.86571 0.89092 0.80074 0.0
C362 C 0.82387 0.92263 0.783 0.0
C363 C 0.81247 0.91787 0.81463 0.0
C364 C 0.82762 0.8986 0.83903 0.0
C365 C 0.85403 0.88535 0.8318 0.0
C366 C 0.80848 0.94291 0.75625 0.0
C367 C 0.81618 0.89287 0.87306 0.0
H368 H 0.75803 0.01616 0.85335 0.0
H369 H 0.71722 0.91453 0.82406 0.0
H370 H 0.82325 0.98118 0.85769 0.0
H371 H 0.82097 0.99776 0.81641 0.0
H372 H 0.80509 0.02416 0.84905 0.0
H373 H 0.74065 0.86284 0.80195 0.0
H374 H 0.77207 0.8739 0.78099 0.0
H375 H 0.77307 0.85628 0.82199 0.0
H376 H 0.85896 0.91349 0.7523 0.0
H377 H 0.86573 0.87124 0.85069 0.0
H378 H 0.80518 0.97269 0.76345 0.0
H379 H 0.78809 0.93001 0.75278 0.0
H380 H 0.81952 0.94237 0.73243 0.0
H381 H 0.81312 0.92056 0.88513 0.0
H382 H 0.82982 0.87553 0.88869 0.0
H383 H 0.79596 0.87898 0.87167 0.0
C384 C 0.78561 0.00291 0.17672 0.0
C385 C 0.76615 0.01773 0.19852 0.0
C386 C 0.81283 0.01521 0.17731 0.0
C387 C 0.82086 0.04302 0.20023 0.0
C388 C 0.80181 0.05629 0.22367 0.0
C389 C 0.77472 0.04342 0.22261 0.0
C390 C 0.83259 1.0 0.15213 0.0
C391 C 0.80959 0.08577 0.24866 0.0
C392 C 0.89656 0.0618 0.21302 0.0
C393 C 0.90088 0.09328 0.19285 0.0
C394 C 0.87066 0.04515 0.21576 0.0
C395 C 0.84849 0.06036 0.19795 0.0
C396 C 0.8527 0.09218 0.17763 0.0
C397 C 0.87881 0.10822 0.17531 0.0
C398 C 0.86701 0.01125 0.23763 0.0
C399 C 0.82957 0.10932 0.15829 0.0
H400 H 0.77934 0.98289 0.15813 0.0
H401 H 0.75997 0.05506 0.23965 0.0
H402 H 0.83794 0.02257 0.13446 0.0
H403 H 0.85177 0.99084 0.1641 0.0
H404 H 0.82398 0.97587 0.13824 0.0
H405 H 0.7933 0.09033 0.26722 0.0
H406 H 0.82861 0.0776 0.2615 0.0
H407 H 0.81359 0.11286 0.23602 0.0
H408 H 0.91346 0.05003 0.22671 0.0
H409 H 0.8819 0.13255 0.15973 0.0
H410 H 0.85952 0.98704 0.223 0.0
H411 H 0.85141 0.01724 0.25667 0.0
H412 H 0.88627 0.00294 0.24998 0.0
H413 H 0.82096 0.08809 0.14122 0.0
H414 H 0.83615 0.1342 0.14382 0.0
H415 H 0.81294 0.11806 0.17514 0.0
C416 C 0.13715 0.14381 0.74255 0.0
C417 C 0.12353 0.1599 0.76947 0.0
C418 C 0.16385 0.12996 0.7455 0.0
C419 C 0.17725 0.13217 0.77614 0.0
C420 C 0.16392 0.14931 0.80317 0.0
C421 C 0.13724 0.16301 0.79951 0.0
C422 C 0.17741 0.11203 0.7161 0.0
C423 C 0.17757 0.15222 0.83627 0.0
C424 C 0.23196 0.06221 0.8003 0.0
C425 C 0.25566 0.08427 0.79854 0.0
C426 C 0.20646 0.07693 0.79154 0.0
C427 C 0.20456 0.11465 0.78066 0.0
C428 C 0.2286 0.13623 0.77658 0.0
C429 C 0.2539 0.12076 0.78551 0.0
C430 C 0.18136 0.0528 0.79585 0.0
C431 C 0.22742 0.17643 0.76471 0.0
H432 H 0.12679 0.14144 0.71917 0.0
H433 H 0.12692 0.17548 0.82039 0.0
H434 H 0.19773 0.12484 0.71181 0.0
H435 H 0.18071 0.08163 0.72083 0.0
H436 H 0.16504 0.11501 0.69344 0.0
H437 H 0.16497 0.16791 0.85436 0.0
H438 H 0.18153 0.12361 0.84605 0.0
H439 H 0.19757 0.16655 0.83383 0.0
H440 H 0.2331 0.03386 0.81 0.0
H441 H 0.27205 0.13807 0.78401 0.0
H442 H 0.16878 0.05322 0.77326 0.0
H443 H 0.16865 0.06431 0.81606 0.0
H444 H 0.18651 0.02312 0.80174 0.0
H445 H 0.21458 0.17861 0.74241 0.0
H446 H 0.248 0.18782 0.7591 0.0
H447 H 0.21791 0.19434 0.78388 0.0
C448 C 0.24302 0.88929 0.22677 0.0
C449 C 0.24553 0.92763 0.21902 0.0
C450 C 0.21729 0.87285 0.23163 0.0
C451 C 0.19355 0.89533 0.22894 0.0
C452 C 0.19614 0.93467 0.22448 0.0
C453 C 0.22209 0.95034 0.21951 0.0
C454 C 0.21546 0.83082 0.23657 0.0
C455 C 0.17139 0.95978 0.22203 0.0
C456 C 0.13162 0.84963 0.19007 0.0
C457 C 0.11494 0.84231 0.2173 0.0
C458 C 0.15718 0.86675 0.19371 0.0
C459 C 0.16635 0.87712 0.22538 0.0
C460 C 0.14961 0.87006 0.25303 0.0
C461 C 0.1241 0.8526 0.24868 0.0
C462 C 0.17442 0.87363 0.16353 0.0
C463 C 0.15865 0.88096 0.28712 0.0
H464 H 0.26096 0.87146 0.22672 0.0
H465 H 0.22379 0.9801 0.21404 0.0
H466 H 0.20036 0.82387 0.25592 0.0
H467 H 0.20848 0.81739 0.21348 0.0
H468 H 0.23546 0.8184 0.24339 0.0
H469 H 0.17682 0.99003 0.22416 0.0
H470 H 0.16137 0.95528 0.19795 0.0
H471 H 0.1563 0.95278 0.24138 0.0
H472 H 0.12481 0.84173 0.16573 0.0
H473 H 0.11133 0.84711 0.26986 0.0
H474 H 0.19432 0.85906 0.16602 0.0
H475 H 0.17867 0.90415 0.16096 0.0
H476 H 0.16439 0.86361 0.14072 0.0
H477 H 0.17802 0.86646 0.29325 0.0
H478 H 0.14318 0.87378 0.30604 0.0
H479 H 0.16268 0.91165 0.2882 0.0
C480 C 0.13186 0.52303 0.25626 0.0
C481 C 0.16032 0.52597 0.25769 0.0
C482 C 0.11627 0.54954 0.23885 0.0
C483 C 0.12957 0.57888 0.22152 0.0
C484 C 0.15844 0.58036 0.22112 0.0
C485 C 0.17344 0.55435 0.23978 0.0
C486 C 0.08555 0.54754 0.24077 0.0
C487 C 0.17346 0.61025 0.20201 0.0
C488 C 0.08581 0.63433 0.16121 0.0
C489 C 0.08011 0.66703 0.17926 0.0
C490 C 0.10273 0.60597 0.1741 0.0
C491 C 0.11327 0.60977 0.20628 0.0
C492 C 0.10764 0.64288 0.22449 0.0
C493 C 0.09154 0.67135 0.21054 0.0
C494 C 0.10909 0.57181 0.15343 0.0
C495 C 0.1178 0.64771 0.25921 0.0
H496 H 0.12167 0.50139 0.27046 0.0
H497 H 0.19548 0.55658 0.2408 0.0
H498 H 0.07767 0.57269 0.25388 0.0
H499 H 0.07657 0.54776 0.21582 0.0
H500 H 0.07837 0.52195 0.25383 0.0
H501 H 0.19569 0.6044 0.20047 0.0
H502 H 0.16516 0.61242 0.17676 0.0
H503 H 0.17057 0.638 0.21399 0.0
H504 H 0.07705 0.63097 0.13698 0.0
H505 H 0.08688 0.69635 0.22475 0.0
H506 H 0.09983 0.54642 0.16466 0.0
H507 H 0.13146 0.56713 0.15246 0.0
H508 H 0.10129 0.5746 0.12798 0.0
H509 H 0.11011 0.62438 0.27476 0.0
H510 H 0.11121 0.67484 0.27024 0.0
H511 H 0.14039 0.64643 0.25973 0.0
C512 C 0.49249 0.76858 0.79795 0.0
C513 C 0.50387 0.73748 0.78185 0.0
C514 C 0.50932 0.79584 0.81256 0.0
C515 C 0.53804 0.7913 0.81138 0.0
C516 C 0.54941 0.75865 0.79691 0.0
C517 C 0.53217 0.73229 0.78208 0.0
C518 C 0.49649 0.83046 0.82753 0.0
C519 C 0.57988 0.75261 0.79535 0.0
C520 C 0.58434 0.877 0.81359 0.0
C521 C 0.59368 0.87619 0.84606 0.0
C522 C 0.56574 0.84994 0.80216 0.0
C523 C 0.55639 0.8214 0.8237 0.0
C524 C 0.56568 0.82055 0.85648 0.0
C525 C 0.58419 0.84792 0.86726 0.0
C526 C 0.55619 0.85173 0.76698 0.0
C527 C 0.55628 0.79046 0.88009 0.0
H528 H 0.47063 0.77303 0.797 0.0
H529 H 0.54089 0.70841 0.7692 0.0
H530 H 0.50346 0.83395 0.85323 0.0
H531 H 0.50307 0.85583 0.81379 0.0
H532 H 0.47385 0.82922 0.82726 0.0
H533 H 0.58529 0.72438 0.78557 0.0
H534 H 0.58926 0.77427 0.77931 0.0
H535 H 0.58902 0.75575 0.82008 0.0
H536 H 0.59143 0.89888 0.79715 0.0
H537 H 0.59124 0.84707 0.89243 0.0
H538 H 0.53361 0.85352 0.76615 0.0
H539 H 0.56219 0.82563 0.75385 0.0
H540 H 0.56482 0.87625 0.75364 0.0
H541 H 0.5337 0.79038 0.88169 0.0
H542 H 0.56473 0.79449 0.90512 0.0
H543 H 0.56262 0.76236 0.87097 0.0
C544 C 0.95547 0.31498 0.21795 0.0
C545 C 0.9455 0.28418 0.20007 0.0
C546 C 0.93761 0.34054 0.23316 0.0
C547 C 0.90907 0.33574 0.22976 0.0
C548 C 0.89891 0.30536 0.21086 0.0
C549 C 0.91724 0.27965 0.19662 0.0
C550 C 0.9493 0.37202 0.2537 0.0
C551 C 0.86866 0.29978 0.206 0.0
C552 C 0.86344 0.37772 0.29585 0.0
C553 C 0.85593 0.41227 0.28186 0.0
C554 C 0.88056 0.35251 0.27906 0.0
C555 C 0.88993 0.3616 0.24715 0.0
C556 C 0.88169 0.39587 0.23245 0.0
C557 C 0.86507 0.421 0.25012 0.0
C558 C 0.8893 0.31664 0.29591 0.0
C559 C 0.89074 0.40621 0.1982 0.0
H560 H 0.9773 0.31842 0.22098 0.0
H561 H 0.90943 0.25602 0.18265 0.0
H562 H 0.94202 0.39961 0.24451 0.0
H563 H 0.94214 0.36925 0.27942 0.0
H564 H 0.97196 0.37209 0.2536 0.0
H565 H 0.86413 0.27635 0.18879 0.0
H566 H 0.85877 0.29362 0.22988 0.0
H567 H 0.8593 0.32596 0.19635 0.0
H568 H 0.85671 0.37089 0.32047 0.0
H569 H 0.85926 0.44757 0.23909 0.0
H570 H 0.91183 0.31619 0.29845 0.0
H571 H 0.88349 0.29189 0.28087 0.0
H572 H 0.88005 0.31358 0.32066 0.0
H573 H 0.91321 0.40979 0.1976 0.0
H574 H 0.88112 0.43267 0.18946 0.0
H575 H 0.88561 0.38322 0.18084 0.0
C576 C 0.49534 0.29116 0.77581 0.0
C577 C 0.48568 0.3189 0.75443 0.0
C578 C 0.47713 0.26631 0.79121 0.0
C579 C 0.44877 0.26995 0.78527 0.0
C580 C 0.43894 0.29996 0.7658 0.0
C581 C 0.45759 0.32391 0.75037 0.0
C582 C 0.48833 0.23447 0.81166 0.0
C583 C 0.40887 0.30498 0.75908 0.0
C584 C 0.404 0.18296 0.78632 0.0
C585 C 0.39063 0.18678 0.81654 0.0
C586 C 0.42342 0.20952 0.77616 0.0
C587 C 0.4295 0.2406 0.79671 0.0
C588 C 0.41615 0.24453 0.82724 0.0
C589 C 0.39686 0.2176 0.83678 0.0
C590 C 0.43734 0.20445 0.74335 0.0
C591 C 0.42209 0.27735 0.84969 0.0
H592 H 0.51714 0.2868 0.77822 0.0
H593 H 0.45028 0.34515 0.73342 0.0
H594 H 0.47762 0.23309 0.83562 0.0
H595 H 0.48473 0.20733 0.79891 0.0
H596 H 0.51058 0.23742 0.81612 0.0
H597 H 0.40445 0.33203 0.74653 0.0
H598 H 0.40157 0.28163 0.74327 0.0
H599 H 0.39703 0.30391 0.78226 0.0
H600 H 0.39942 0.1591 0.77068 0.0
H601 H 0.38669 0.22073 0.86025 0.0
H602 H 0.4598 0.20374 0.74663 0.0
H603 H 0.43262 0.22871 0.72719 0.0
H604 H 0.4309 0.1782 0.73075 0.0
H605 H 0.44421 0.27857 0.85524 0.0
H606 H 0.41063 0.2756 0.87317 0.0
H607 H 0.41663 0.30411 0.83732 0.0
C608 C 0.11135 0.48475 0.72302 0.0
C609 C 0.12609 0.47516 0.69469 0.0
C610 C 0.09579 0.45755 0.7399 0.0
C611 C 0.0943 0.42026 0.72757 0.0
C612 C 0.10887 0.41071 0.69873 0.0
C613 C 0.12481 0.43805 0.68298 0.0
C614 C 0.08108 0.46859 0.77099 0.0
C615 C 0.10733 0.37164 0.68415 0.0
C616 C 0.07459 0.33418 0.77778 0.0
C617 C 0.0474 0.32869 0.76829 0.0
C618 C 0.08956 0.36536 0.76646 0.0
C619 C 0.07735 0.391 0.74425 0.0
C620 C 0.04964 0.38614 0.73538 0.0
C621 C 0.03493 0.35537 0.74786 0.0
C622 C 0.11881 0.36999 0.77723 0.0
C623 C 0.03597 0.41198 0.71104 0.0
H624 H 0.11232 0.51334 0.73225 0.0
H625 H 0.13585 0.43049 0.66086 0.0
H626 H 0.05879 0.46471 0.76787 0.0
H627 H 0.08757 0.45005 0.79143 0.0
H628 H 0.08502 0.49832 0.77799 0.0
H629 H 0.11917 0.36911 0.661 0.0
H630 H 0.11527 0.35071 0.7019 0.0
H631 H 0.08577 0.36419 0.67904 0.0
H632 H 0.0843 0.31375 0.79369 0.0
H633 H 0.01401 0.35109 0.74014 0.0
H634 H 0.12266 0.39946 0.78499 0.0
H635 H 0.13264 0.36385 0.75634 0.0
H636 H 0.12411 0.35086 0.7978 0.0
H637 H 0.03934 0.44185 0.71779 0.0
H638 H 0.01368 0.40681 0.70933 0.0
H639 H 0.04511 0.40758 0.6864 0.0
C640 C 0.41683 0.84585 0.23077 0.0
C641 C 0.39309 0.84409 0.21188 0.0
C642 C 0.4322 0.81335 0.23688 0.0
C643 C 0.42406 0.77867 0.2227 0.0
C644 C 0.40079 0.77718 0.20231 0.0
C645 C 0.38523 0.80984 0.19766 0.0
C646 C 0.45658 0.81589 0.25941 0.0
C647 C 0.39219 0.74106 0.18575 0.0
C648 C 0.47934 0.70504 0.23191 0.0
C649 C 0.47125 0.68847 0.26149 0.0
C650 C 0.46283 0.73246 0.21696 0.0
C651 C 0.4382 0.74356 0.23245 0.0
C652 C 0.42885 0.72404 0.2605 0.0
C653 C 0.44537 0.69634 0.27437 0.0
C654 C 0.47291 0.75171 0.18628 0.0
C655 C 0.4029 0.73516 0.27809 0.0
H656 H 0.42296 0.8725 0.24143 0.0
H657 H 0.3672 0.80877 0.18231 0.0
H658 H 0.45343 0.79746 0.28107 0.0
H659 H 0.47517 0.80582 0.2466 0.0
H660 H 0.46028 0.84506 0.26817 0.0
H661 H 0.37566 0.74567 0.16759 0.0
H662 H 0.40987 0.72796 0.1731 0.0
H663 H 0.38485 0.7207 0.20437 0.0
H664 H 0.49937 0.69895 0.22194 0.0
H665 H 0.43904 0.68309 0.29711 0.0
H666 H 0.48259 0.77886 0.19295 0.0
H667 H 0.45578 0.75787 0.16934 0.0
H668 H 0.48829 0.73429 0.17319 0.0
H669 H 0.4056 0.76335 0.28939 0.0
H670 H 0.39734 0.7149 0.29774 0.0
H671 H 0.38565 0.73715 0.26064 0.0
C672 C 0.87921 0.56837 0.74204 0.0
C673 C 0.86637 0.58039 0.71314 0.0
C674 C 0.89466 0.5936 0.76118 0.0
C675 C 0.89796 0.63131 0.75058 0.0
C676 C 0.88497 0.64348 0.72147 0.0
C677 C 0.8691 0.61809 0.70344 0.0
C678 C 0.90771 0.57987 0.79246 0.0
C679 C 0.88843 0.68317 0.70877 0.0
C680 C 0.91916 0.71545 0.80165 0.0
C681 C 0.94624 0.72046 0.79141 0.0
C682 C 0.90383 0.68437 0.79096 0.0
C683 C 0.91564 0.65825 0.76884 0.0
C684 C 0.94352 0.66179 0.76024 0.0
C685 C 0.95854 0.69264 0.77191 0.0
C686 C 0.87441 0.68102 0.80149 0.0
C687 C 0.95692 0.63508 0.73631 0.0
H688 H 0.87715 0.5393 0.74971 0.0
H689 H 0.85956 0.62758 0.68094 0.0
H690 H 0.93023 0.58085 0.79007 0.0
H691 H 0.90204 0.5986 0.81318 0.0
H692 H 0.90157 0.55061 0.79857 0.0
H693 H 0.87722 0.688 0.68549 0.0
H694 H 0.881 0.70368 0.72726 0.0
H695 H 0.91037 0.68911 0.70449 0.0
H696 H 0.90958 0.73662 0.817 0.0
H697 H 0.97942 0.69627 0.76376 0.0
H698 H 0.86936 0.65142 0.80769 0.0
H699 H 0.86095 0.68966 0.78098 0.0
H700 H 0.86978 0.69913 0.82302 0.0
H701 H 0.95124 0.60551 0.74162 0.0
H702 H 0.9795 0.63749 0.73676 0.0
H703 H 0.94979 0.64165 0.71112 0.0
C704 C 0.63835 0.1106 0.23062 0.0
C705 C 0.63455 0.09561 0.26211 0.0
C706 C 0.61967 0.13666 0.21749 0.0
C707 C 0.59745 0.14904 0.23695 0.0
C708 C 0.59297 0.13251 0.26816 0.0
C709 C 0.61149 0.10598 0.28019 0.0
C710 C 0.62453 0.15226 0.18357 0.0
C711 C 0.57012 0.14521 0.29044 0.0
C712 C 0.57193 0.24805 0.24295 0.0
C713 C 0.54442 0.24299 0.23507 0.0
C714 C 0.59062 0.21853 0.23973 0.0
C715 C 0.58151 0.18321 0.22798 0.0
C716 C 0.5547 0.17985 0.21527 0.0
C717 C 0.53622 0.20989 0.21927 0.0
C718 C 0.61896 0.22374 0.25349 0.0
C719 C 0.54448 0.14311 0.20147 0.0
H720 H 0.65644 0.10324 0.21676 0.0
H721 H 0.60841 0.09436 0.30451 0.0
H722 H 0.60501 0.15508 0.17003 0.0
H723 H 0.63371 0.18068 0.18546 0.0
H724 H 0.6386 0.13413 0.16915 0.0
H725 H 0.56652 0.12514 0.31087 0.0
H726 H 0.57576 0.17278 0.30122 0.0
H727 H 0.55078 0.14878 0.27678 0.0
H728 H 0.57817 0.27377 0.25519 0.0
H729 H 0.51485 0.20584 0.21341 0.0
H730 H 0.63449 0.21119 0.23701 0.0
H731 H 0.6204 0.20921 0.27753 0.0
H732 H 0.624 0.25392 0.25724 0.0
H733 H 0.52667 0.14754 0.1851 0.0
H734 H 0.53799 0.12455 0.22192 0.0
H735 H 0.56079 0.12834 0.1876 0.0
C736 C 0.61417 0.07024 0.78575 0.0
C737 C 0.62624 0.08387 0.81461 0.0
C738 C 0.60012 0.09456 0.76434 0.0
C739 C 0.59744 0.13319 0.77245 0.0
C740 C 0.60961 0.14703 0.80154 0.0
C741 C 0.6241 0.12236 0.82197 0.0
C742 C 0.58797 0.07891 0.73319 0.0
C743 C 0.60675 0.18779 0.81157 0.0
C744 C 0.57963 0.2099 0.7109 0.0
C745 C 0.55171 0.21507 0.7169 0.0
C746 C 0.59446 0.18183 0.72744 0.0
C747 C 0.58126 0.15922 0.75128 0.0
C748 C 0.55292 0.16383 0.75687 0.0
C749 C 0.53845 0.19134 0.73932 0.0
C750 C 0.62447 0.17723 0.72016 0.0
C751 C 0.53814 0.14117 0.78267 0.0
H752 H 0.61582 0.04058 0.77982 0.0
H753 H 0.6331 0.13312 0.84437 0.0
H754 H 0.56545 0.08167 0.73391 0.0
H755 H 0.59531 0.09527 0.71175 0.0
H756 H 0.59322 0.0488 0.72943 0.0
H757 H 0.61722 0.19402 0.83511 0.0
H758 H 0.61536 0.20633 0.7923 0.0
H759 H 0.58484 0.19509 0.81421 0.0
H760 H 0.58994 0.22808 0.69352 0.0
H761 H 0.51695 0.19552 0.74441 0.0
H762 H 0.6294 0.14714 0.71585 0.0
H763 H 0.6366 0.18668 0.74158 0.0
H764 H 0.63093 0.19377 0.69838 0.0
H765 H 0.54199 0.11068 0.77917 0.0
H766 H 0.51576 0.1461 0.78229 0.0
H767 H 0.54596 0.14888 0.80732 0.0
C768 C 0.09825 0.34844 0.25612 0.0
C769 C 0.12199 0.34466 0.27482 0.0
C770 C 0.08132 0.31737 0.25019 0.0
C771 C 0.08787 0.28204 0.26429 0.0
C772 C 0.11138 0.27841 0.28409 0.0
C773 C 0.12845 0.30965 0.28865 0.0
C774 C 0.05677 0.32216 0.2282 0.0
C775 C 0.11845 0.24156 0.30043 0.0
C776 C 0.02866 0.21355 0.25872 0.0
C777 C 0.03505 0.19525 0.22928 0.0
C778 C 0.04683 0.24 0.27223 0.0
C779 C 0.07148 0.24838 0.25548 0.0
C780 C 0.07893 0.22734 0.22742 0.0
C781 C 0.06074 0.20072 0.21495 0.0
C782 C 0.03864 0.26103 0.30285 0.0
C783 C 0.10478 0.23555 0.2085 0.0
H784 H 0.09315 0.37562 0.24572 0.0
H785 H 0.14648 0.30696 0.30384 0.0
H786 H 0.05851 0.30311 0.2067 0.0
H787 H 0.03791 0.31431 0.24159 0.0
H788 H 0.05456 0.3515 0.21919 0.0
H789 H 0.13609 0.24428 0.31734 0.0
H790 H 0.10065 0.23094 0.31448 0.0
H791 H 0.12345 0.2201 0.28159 0.0
H792 H 0.00875 0.20945 0.26974 0.0
H793 H 0.06573 0.18627 0.19226 0.0
H794 H 0.03066 0.28917 0.29602 0.0
H795 H 0.05645 0.26537 0.3192 0.0
H796 H 0.02246 0.2459 0.31666 0.0
H797 H 0.10314 0.26369 0.19685 0.0
H798 H 0.1087 0.21439 0.18897 0.0
H799 H 0.12263 0.23627 0.22514 0.0
C800 C 0.37136 0.93689 0.80894 0.0
C801 C 0.36889 0.97411 0.79784 0.0
C802 C 0.38747 0.91058 0.79213 0.0
C803 C 0.40104 0.92136 0.76293 0.0
C804 C 0.39841 0.95876 0.75128 0.0
C805 C 0.38263 0.98488 0.76912 0.0
C806 C 0.39023 0.87128 0.8059 0.0
C807 C 0.4122 0.97107 0.71996 0.0
C808 C 0.46079 0.85843 0.74032 0.0
C809 C 0.4482 0.83165 0.72006 0.0
C810 C 0.44603 0.88892 0.75321 0.0
C811 C 0.41811 0.89319 0.74512 0.0
C812 C 0.40581 0.86764 0.72291 0.0
C813 C 0.42089 0.83685 0.71101 0.0
C814 C 0.45985 0.9148 0.77743 0.0
C815 C 0.37628 0.87165 0.71307 0.0
H816 H 0.36109 0.92843 0.83132 0.0
H817 H 0.38074 0.01356 0.76037 0.0
H818 H 0.3824 0.85042 0.78798 0.0
H819 H 0.41205 0.86466 0.81022 0.0
H820 H 0.37894 0.86771 0.82934 0.0
H821 H 0.40754 1.00081 0.7137 0.0
H822 H 0.43462 0.9679 0.7223 0.0
H823 H 0.4056 0.9528 0.69935 0.0
H824 H 0.48179 0.85431 0.74781 0.0
H825 H 0.4111 0.8163 0.69528 0.0
H826 H 0.45234 0.90843 0.80251 0.0
H827 H 0.4549 0.94464 0.77219 0.0
H828 H 0.48238 0.91137 0.77719 0.0
H829 H 0.36299 0.86446 0.7342 0.0
H830 H 0.37091 0.85291 0.69223 0.0
H831 H 0.37176 0.90117 0.7061 0.0
C832 C 0.9078 0.582 0.23755 0.0
C833 C 0.88194 0.58949 0.25062 0.0
C834 C 0.92576 0.61136 0.22994 0.0
C835 C 0.91778 0.649 0.23614 0.0
C836 C 0.89143 0.65681 0.24858 0.0
C837 C 0.87367 0.6269 0.25536 0.0
C838 C 0.95346 0.60206 0.21581 0.0
C839 C 0.88239 0.69661 0.25576 0.0
C840 C 0.97666 0.71804 0.24213 0.0
C841 C 0.97707 0.73244 0.2102 0.0
C842 C 0.95658 0.69195 0.25157 0.0
C843 C 0.9368 0.68012 0.22839 0.0
C844 C 0.93639 0.69613 0.19672 0.0
C845 C 0.95637 0.72231 0.18815 0.0
C846 C 0.95721 0.67584 0.2858 0.0
C847 C 0.91575 0.68417 0.17126 0.0
H848 H 0.91422 0.55308 0.23398 0.0
H849 H 0.85384 0.63277 0.26598 0.0
H850 H 0.95635 0.61686 0.1921 0.0
H851 H 0.96969 0.61201 0.23266 0.0
H852 H 0.95622 0.57138 0.21171 0.0
H853 H 0.86107 0.69791 0.26496 0.0
H854 H 0.89603 0.70932 0.27442 0.0
H855 H 0.88396 0.71412 0.23333 0.0
H856 H 0.99255 0.726 0.25926 0.0
H857 H 0.95622 0.73403 0.16361 0.0
H858 H 0.96307 0.64571 0.28469 0.0
H859 H 0.93665 0.67735 0.29714 0.0
H860 H 0.97194 0.69083 0.30185 0.0
H861 H 0.91899 0.65413 0.16489 0.0
H862 H 0.91722 0.7011 0.14842 0.0
H863 H 0.89475 0.68678 0.18114 0.0
C864 C 0.6423 0.91441 0.25462 0.0
C865 C 0.64885 0.91246 0.22111 0.0
C866 C 0.62644 0.88639 0.26974 0.0
C867 C 0.61651 0.85589 0.25085 0.0
C868 C 0.62378 0.85308 0.21728 0.0
C869 C 0.64002 0.88123 0.20289 0.0
C870 C 0.61955 0.89014 0.30571 0.0
C871 C 0.61339 0.82125 0.19617 0.0
C872 C 0.58817 0.76875 0.29354 0.0
C873 C 0.56002 0.77603 0.29335 0.0
C874 C 0.60684 0.7946 0.28013 0.0
C875 C 0.59713 0.82827 0.26567 0.0
C876 C 0.56874 0.83567 0.26529 0.0
C877 C 0.55059 0.80966 0.27932 0.0
C878 C 0.63696 0.78592 0.28146 0.0
C879 C 0.55745 0.87095 0.24972 0.0
H880 H 0.64913 0.93829 0.26898 0.0
H881 H 0.6448 0.87953 0.17696 0.0
H882 H 0.59735 0.89525 0.30862 0.0
H883 H 0.62439 0.86364 0.31884 0.0
H884 H 0.63077 0.91363 0.31759 0.0
H885 H 0.62215 0.82188 0.17103 0.0
H886 H 0.61832 0.79375 0.20756 0.0
H887 H 0.59085 0.82302 0.19426 0.0
H888 H 0.59567 0.74291 0.30439 0.0
H889 H 0.52888 0.81541 0.27873 0.0
H890 H 0.64788 0.80882 0.29449 0.0
H891 H 0.64543 0.7845 0.25625 0.0
H892 H 0.64126 0.75888 0.29409 0.0
H893 H 0.56586 0.89616 0.26218 0.0
H894 H 0.53483 0.87221 0.25094 0.0
H895 H 0.56379 0.8724 0.2236 0.0
C896 C 0.90342 0.36431 0.70424 0.0
C897 C 0.89034 0.36796 0.6739 0.0
C898 C 0.92324 0.33637 0.70914 0.0
C899 C 0.93016 0.31178 0.68298 0.0
C900 C 0.91709 0.31541 0.65233 0.0
C901 C 0.89723 0.3433 0.64821 0.0
C902 C 0.93672 0.33302 0.74232 0.0
C903 C 0.92402 0.28976 0.62393 0.0
C904 C 0.99717 0.26097 0.69584 0.0
C905 C 0.98799 0.22812 0.71118 0.0
C906 C 0.97843 0.28782 0.68447 0.0
C907 C 0.95013 0.28111 0.68844 0.0
C908 C 0.94094 0.24624 0.70097 0.0
C909 C 0.96007 0.22015 0.71228 0.0
C910 C 0.98888 0.32459 0.67085 0.0
C911 C 0.91096 0.23794 0.70551 0.0
H912 H 0.89828 0.38336 0.72409 0.0
H913 H 0.88734 0.34602 0.62458 0.0
H914 H 0.93269 0.30476 0.75282 0.0
H915 H 0.95914 0.33594 0.73974 0.0
H916 H 0.92932 0.35464 0.75991 0.0
H917 H 0.91263 0.29718 0.6013 0.0
H918 H 0.94619 0.29115 0.61859 0.0
H919 H 0.91926 0.26018 0.63045 0.0
H920 H 0.0188 0.26737 0.69569 0.0
H921 H 0.95313 0.19484 0.72458 0.0
H922 H 0.98322 0.34797 0.68758 0.0
H923 H 0.97926 0.33046 0.64678 0.0
H924 H 0.0114 0.32458 0.66776 0.0
H925 H 0.90277 0.25563 0.7257 0.0
H926 H 0.90722 0.20794 0.71169 0.0
H927 H 0.89936 0.24499 0.683 0.0
C928 C 0.45619 0.13373 0.30897 0.0
C929 C 0.45825 0.16572 0.28903 0.0
C930 C 0.43774 0.1047 0.30127 0.0
C931 C 0.42194 0.10713 0.27226 0.0
C932 C 0.42437 0.13923 0.25185 0.0
C933 C 0.4421 0.1684 0.26084 0.0
C934 C 0.43496 0.07165 0.32426 0.0
C935 C 0.40862 0.14251 0.22014 0.0
C936 C 0.39375 0.0206 0.22939 0.0
C937 C 0.36565 0.02551 0.234 0.0
C938 C 0.41254 0.04602 0.24299 0.0
C939 C 0.403 0.07623 0.26263 0.0
C940 C 0.37476 0.0793 0.2696 0.0
C941 C 0.35635 0.0544 0.25458 0.0
C942 C 0.44232 0.04235 0.23403 0.0
C943 C 0.36383 0.11018 0.29141 0.0
H944 H 0.46865 0.13178 0.33085 0.0
H945 H 0.44396 0.19295 0.2452 0.0
H946 H 0.41335 0.06847 0.33189 0.0
H947 H 0.44092 0.04531 0.31153 0.0
H948 H 0.44777 0.07483 0.34655 0.0
H949 H 0.41389 0.16843 0.20629 0.0
H950 H 0.41282 0.11775 0.2043 0.0
H951 H 0.38641 0.14281 0.2253 0.0
H952 H 0.40092 0.99857 0.21309 0.0
H953 H 0.33461 0.05814 0.2582 0.0
H954 H 0.45531 0.04422 0.2562 0.0
H955 H 0.44818 0.06593 0.21763 0.0
H956 H 0.44679 0.01542 0.22123 0.0
H957 H 0.37653 0.11305 0.31379 0.0
H958 H 0.34237 0.10488 0.29887 0.0
H959 H 0.36461 0.13741 0.27816 0.0
C960 C 0.0762 0.70198 0.64265 0.0
C961 C 0.08913 0.68005 0.66673 0.0
C962 C 0.05552 0.72757 0.65087 0.0
C963 C 0.04764 0.73162 0.68403 0.0
C964 C 0.06012 0.70898 0.70842 0.0
C965 C 0.08071 0.68337 0.69947 0.0
C966 C 0.04268 0.75107 0.62417 0.0
C967 C 0.05221 0.71256 0.74412 0.0
C968 C 0.0206 0.82427 0.71615 0.0
C969 C 0.99303 0.81593 0.72129 0.0
C970 C 0.03829 0.79769 0.70232 0.0
C971 C 0.02814 0.76175 0.6937 0.0
C972 C 0.99985 0.75411 0.69663 0.0
C973 C 0.98251 0.78152 0.7103 0.0
C974 C 0.06823 0.80711 0.69944 0.0
C975 C 0.98828 0.71622 0.68738 0.0
H976 H 0.08234 0.69941 0.6172 0.0
H977 H 0.09045 0.66637 0.71815 0.0
H978 H 0.02013 0.74913 0.62547 0.0
H979 H 0.04818 0.78108 0.62772 0.0
H980 H 0.04941 0.74227 0.59928 0.0
H981 H 0.06274 0.69154 0.7598 0.0
H982 H 0.05737 0.74115 0.75314 0.0
H983 H 0.02987 0.70894 0.747 0.0
H984 H 0.02872 0.85072 0.72516 0.0
H985 H 0.9613 0.77477 0.71504 0.0
H986 H 0.07592 0.80012 0.67457 0.0
H987 H 0.08 0.78999 0.71726 0.0
H988 H 0.07237 0.83733 0.70439 0.0
H989 H 0.96587 0.71471 0.69129 0.0
H990 H 0.99816 0.69383 0.70212 0.0
H991 H 0.99275 0.7101 0.66123 0.0
C992 C 0.15907 0.5111 0.55289 0.0
C993 C 0.14241 0.54172 0.5609 0.0
C994 C 0.16074 0.498 0.52054 0.0
C995 C 0.14587 0.51665 0.49563 0.0
C996 C 0.12839 0.54693 0.50376 0.0
C997 C 0.12661 0.55884 0.53648 0.0
C998 C 0.17899 0.46487 0.5129 0.0
C999 C 0.11258 0.56782 0.47773 0.0
C1000 C 0.17681 0.50441 0.41117 0.0
C1001 C 0.16048 0.47571 0.39825 0.0
C1002 C 0.17133 0.51956 0.44227 0.0
C1003 C 0.14939 0.50497 0.46099 0.0
C1004 C 0.13217 0.47713 0.44749 0.0
C1005 C 0.13776 0.46311 0.41609 0.0
C1006 C 0.18971 0.54998 0.45566 0.0
C1007 C 0.10885 0.46049 0.46692 0.0
H1008 H 0.17103 0.49761 0.57182 0.0
H1009 H 0.11392 0.58282 0.54266 0.0
H1010 H 0.16745 0.44306 0.49924 0.0
H1011 H 0.1961 0.47406 0.49697 0.0
H1012 H 0.18763 0.45192 0.53541 0.0
H1013 H 0.09872 0.58937 0.48838 0.0
H1014 H 0.12701 0.58202 0.46079 0.0
H1015 H 0.10032 0.54792 0.46286 0.0
H1016 H 0.19426 0.5144 0.39738 0.0
H1017 H 0.12508 0.44082 0.40626 0.0
H1018 H 0.20194 0.53858 0.47626 0.0
H1019 H 0.17737 0.57365 0.46547 0.0
H1020 H 0.20391 0.56107 0.43673 0.0
H1021 H 0.11709 0.44435 0.48799 0.0
H1022 H 0.09604 0.44134 0.45188 0.0
H1023 H 0.09571 0.48307 0.47709 0.0
C1024 C 0.50501 0.73035 0.44737 0.0
C1025 C 0.51611 0.69859 0.43176 0.0
C1026 C 0.50127 0.7314 0.4814 0.0
C1027 C 0.50894 0.69997 0.50052 0.0
C1028 C 0.52116 0.66833 0.48519 0.0
C1029 C 0.52466 0.66802 0.45089 0.0
C1030 C 0.4885 0.76591 0.49677 0.0
C1031 C 0.52983 0.63447 0.50491 0.0
C1032 C 0.51922 0.72169 0.59055 0.0
C1033 C 0.49415 0.71073 0.60438 0.0
C1034 C 0.52465 0.71693 0.55708 0.0
C1035 C 0.5045 0.70099 0.53663 0.0
C1036 C 0.47932 0.68915 0.55034 0.0
C1037 C 0.47445 0.69409 0.58412 0.0
C1038 C 0.55173 0.72995 0.54346 0.0
C1039 C 0.4573 0.67216 0.52917 0.0
H1040 H 0.49853 0.75425 0.43282 0.0
H1041 H 0.53304 0.64329 0.43899 0.0
H1042 H 0.46928 0.75807 0.50942 0.0
H1043 H 0.50237 0.77791 0.51553 0.0
H1044 H 0.48387 0.78809 0.47842 0.0
H1045 H 0.53999 0.61277 0.48953 0.0
H1046 H 0.54402 0.64311 0.52471 0.0
H1047 H 0.51175 0.62165 0.51687 0.0
H1048 H 0.5348 0.73426 0.60588 0.0
H1049 H 0.45512 0.68532 0.59454 0.0
H1050 H 0.54845 0.75381 0.52638 0.0
H1051 H 0.56155 0.707 0.52925 0.0
H1052 H 0.56598 0.73922 0.56303 0.0
H1053 H 0.44995 0.69342 0.51132 0.0
H1054 H 0.43964 0.66211 0.54384 0.0
H1055 H 0.46563 0.6482 0.51484 0.0
C1056 C 0.87706 0.54104 0.41526 0.0
C1057 C 0.85852 0.51437 0.40318 0.0
C1058 C 0.88271 0.54338 0.44888 0.0
C1059 C 0.86989 0.51791 0.47058 0.0
C1060 C 0.85284 0.48907 0.45812 0.0
C1061 C 0.84711 0.48793 0.42452 0.0
C1062 C 0.90075 0.57471 0.4613 0.0
C1063 C 0.83946 0.46064 0.48048 0.0
C1064 C 0.89029 0.50041 0.55824 0.0
C1065 C 0.86789 0.51604 0.57485 0.0
C1066 C 0.89253 0.50323 0.52409 0.0
C1067 C 0.87221 0.52286 0.50651 0.0
C1068 C 0.85148 0.54258 0.5236 0.0
C1069 C 0.8494 0.53862 0.55769 0.0
C1070 C 0.91493 0.48184 0.50675 0.0
C1071 C 0.83 0.56495 0.50565 0.0
H1072 H 0.88579 0.56173 0.39877 0.0
H1073 H 0.833 0.46709 0.41514 0.0
H1074 H 0.88789 0.59666 0.473 0.0
H1075 H 0.91513 0.56426 0.4802 0.0
H1076 H 0.91263 0.58801 0.44119 0.0
H1077 H 0.82908 0.43788 0.46658 0.0
H1078 H 0.85483 0.44772 0.49696 0.0
H1079 H 0.82411 0.47494 0.49617 0.0
H1080 H 0.90481 0.48312 0.57143 0.0
H1081 H 0.83231 0.55122 0.57053 0.0
H1082 H 0.92349 0.49846 0.48616 0.0
H1083 H 0.90636 0.45555 0.49627 0.0
H1084 H 0.93173 0.47414 0.52373 0.0
H1085 H 0.83945 0.58271 0.48637 0.0
H1086 H 0.81814 0.5833 0.52253 0.0
H1087 H 0.81563 0.54537 0.49338 0.0
C1088 C 0.4911 0.31065 0.41885 0.0
C1089 C 0.50403 0.27894 0.40545 0.0
C1090 C 0.49265 0.31831 0.45271 0.0
C1091 C 0.50738 0.29362 0.47349 0.0
C1092 C 0.52014 0.26142 0.4601 0.0
C1093 C 0.51826 0.25447 0.42641 0.0
C1094 C 0.47866 0.35282 0.46627 0.0
C1095 C 0.53579 0.23411 0.48139 0.0
C1096 C 0.53245 0.32166 0.55844 0.0
C1097 C 0.51305 0.30415 0.57862 0.0
C1098 C 0.53037 0.31971 0.52403 0.0
C1099 C 0.50838 0.29983 0.50957 0.0
C1100 C 0.48856 0.28267 0.52979 0.0
C1101 C 0.49116 0.28495 0.56392 0.0
C1102 C 0.55197 0.33822 0.50315 0.0
C1103 C 0.46489 0.26101 0.5154 0.0
H1104 H 0.48023 0.32981 0.40285 0.0
H1105 H 0.52821 0.22972 0.41646 0.0
H1106 H 0.46318 0.34443 0.48475 0.0
H1107 H 0.49372 0.37099 0.47896 0.0
H1108 H 0.46845 0.36957 0.44684 0.0
H1109 H 0.54518 0.21094 0.46695 0.0
H1110 H 0.55217 0.24912 0.49482 0.0
H1111 H 0.52197 0.22159 0.49998 0.0
H1112 H 0.5493 0.33679 0.56947 0.0
H1113 H 0.47588 0.27142 0.5791 0.0
H1114 H 0.54234 0.35709 0.48483 0.0
H1115 H 0.56344 0.31642 0.48935 0.0
H1116 H 0.56664 0.35483 0.51801 0.0
H1117 H 0.45383 0.27862 0.49733 0.0
H1118 H 0.45021 0.25152 0.53445 0.0
H1119 H 0.47261 0.23587 0.50214 0.0
C1120 C 0.61491 0.06402 0.11323 0.0
C1121 C 0.62851 0.03254 0.12581 0.0
C1122 C 0.60812 0.06586 0.07975 0.0
C1123 C 0.61507 0.03541 0.0589 0.0
C1124 C 0.62611 0.00204 0.07251 0.0
C1125 C 0.6328 1.00114 0.10582 0.0
C1126 C 0.59587 0.10163 0.06638 0.0
C1127 C 0.6333 0.9685 0.05138 0.0
C1128 C 0.59712 0.01891 0.9701 0.0
C1129 C 0.62239 0.02614 0.95512 0.0
C1130 C 0.59321 0.02558 0.00374 0.0
C1131 C 0.6151 0.03971 0.02263 0.0
C1132 C 0.63947 0.05116 0.00681 0.0
C1133 C 0.64283 0.04419 0.9732 0.0
C1134 C 0.56666 0.01395 0.01949 0.0
C1135 C 0.66316 0.06711 0.02595 0.0
H1136 H 0.61168 0.08837 0.12882 0.0
H1137 H 0.64292 0.9766 0.11586 0.0
H1138 H 0.61235 0.11943 0.05602 0.0
H1139 H 0.58116 0.0956 0.04641 0.0
H1140 H 0.58539 0.11799 0.08592 0.0
H1141 H 0.63899 0.94352 0.06625 0.0
H1142 H 0.61591 0.96081 0.03536 0.0
H1143 H 0.65079 0.97574 0.03526 0.0
H1144 H 0.58101 0.00546 0.95618 0.0
H1145 H 0.66225 0.05043 0.96172 0.0
H1146 H 0.56072 0.03381 0.03927 0.0
H1147 H 0.56911 0.98571 0.0307 0.0
H1148 H 0.5499 0.01239 0.00123 0.0
H1149 H 0.65606 0.08916 0.04323 0.0
H1150 H 0.67899 0.07938 0.00963 0.0
H1151 H 0.67271 0.04438 0.04066 0.0
C1152 C 0.97802 0.2254 0.90275 0.0
C1153 C 0.00278 0.21382 0.88848 0.0
C1154 C 0.97315 0.22139 0.9364 0.0
C1155 C 0.99358 0.20567 0.95656 0.0
C1156 C 0.01849 0.19339 0.94243 0.0
C1157 C 0.02279 0.19753 0.90849 0.0
C1158 C 0.94633 0.23483 0.9505 0.0
C1159 C 0.04082 0.17668 0.96331 0.0
C1160 C 0.99505 0.23611 0.04547 0.0
C1161 C 0.98445 0.20445 0.06165 0.0
C1162 C 0.99788 0.23685 0.01134 0.0
C1163 C 0.98974 0.20522 0.99273 0.0
C1164 C 0.97788 0.17376 0.00865 0.0
C1165 C 0.97532 0.17375 0.04305 0.0
C1166 C 0.01031 0.27115 0.99531 0.0
C1167 C 0.9687 0.13973 0.98945 0.0
H1168 H 0.96222 0.23772 0.88761 0.0
H1169 H 0.04188 0.18829 0.89773 0.0
H1170 H 0.93665 0.21215 0.96513 0.0
H1171 H 0.94995 0.25889 0.9673 0.0
H1172 H 0.93181 0.24394 0.93117 0.0
H1173 H 0.05829 0.16645 0.94838 0.0
H1174 H 0.04839 0.19816 0.98084 0.0
H1175 H 0.03271 0.15289 0.97797 0.0
H1176 H 1.00193 0.26012 0.05966 0.0
H1177 H 0.96729 0.14912 0.0554 0.0
H1178 H 0.99612 0.28283 0.97675 0.0
H1179 H 0.02934 0.26315 0.98229 0.0
H1180 H 0.0152 0.29364 0.01331 0.0
H1181 H 0.95429 0.14825 0.96985 0.0
H1182 H 0.95864 0.1184 0.00527 0.0
H1183 H 0.98654 0.12648 0.97727 0.0
C1184 C 0.34147 0.0144 0.94126 0.0
C1185 C 0.35648 0.04554 0.93063 0.0
C1186 C 0.34269 0.00257 0.97395 0.0
C1187 C 0.35889 0.02294 0.99654 0.0
C1188 C 0.37476 0.05373 0.98573 0.0
C1189 C 0.37359 0.06445 0.95269 0.0
C1190 C 0.32603 0.96891 0.98449 0.0
C1191 C 0.39196 0.07636 0.00927 0.0
C1192 C 0.33387 0.01124 0.08361 0.0
C1193 C 0.35126 0.98284 0.09495 0.0
C1194 C 0.33731 0.02652 0.05219 0.0
C1195 C 0.3583 0.01248 0.03165 0.0
C1196 C 0.37691 0.9855 0.04373 0.0
C1197 C 0.3733 0.97124 0.07542 0.0
C1198 C 0.31751 0.05604 0.0403 0.0
C1199 C 0.39937 0.96962 0.02242 0.0
H1200 H 0.3285 0.99953 0.92414 0.0
H1201 H 0.38504 0.0888 0.9445 0.0
H1202 H 0.33919 0.94816 -0.00278 0.0
H1203 H 0.31004 0.97791 0.00212 0.0
H1204 H 0.31597 0.95472 0.96343 0.0
H1205 H 0.40459 0.09778 0.9965 0.0
H1206 H 0.37852 0.09094 0.02714 0.0
H1207 H 0.40561 0.05759 0.02349 0.0
H1208 H 0.31697 0.02052 0.09872 0.0
H1209 H 0.38689 0.94935 0.08409 0.0
H1210 H 0.30387 0.04359 0.02149 0.0
H1211 H 0.3286 0.07969 0.02857 0.0
H1212 H 0.3047 0.06737 0.06053 0.0
H1213 H 0.39028 0.9518 0.00292 0.0
H1214 H 0.41397 0.95219 0.03666 0.0
H1215 H 0.41081 0.99253 0.0101 0.0
C1216 C 0.98192 0.83787 0.92317 0.0
C1217 C 1.00088 0.84153 0.89769 0.0
C1218 C 0.99078 0.83304 0.95572 0.0
C1219 C 0.01914 0.83215 0.96267 0.0
C1220 C 0.03814 0.83928 0.93738 0.0
C1221 C 0.02878 0.84378 0.90521 0.0
C1222 C 0.96989 0.82599 0.98222 0.0
C1223 C 0.06848 0.83908 0.94373 0.0
C1224 C 0.04022 0.82849 0.05241 0.0
C1225 C 0.04138 0.78949 0.05756 0.0
C1226 C 0.03392 0.84314 0.02129 0.0
C1227 C 0.02893 0.81812 0.99492 0.0
C1228 C 0.03231 0.7789 -0.00048 0.0
C1229 C 0.03842 0.7651 0.0308 0.0
C1230 C 0.03076 0.88513 0.01726 0.0
C1231 C 0.02782 0.75125 0.97186 0.0
H1232 H 0.96037 0.83626 0.91745 0.0
H1233 H 0.04352 0.84734 0.88559 0.0
H1234 H 0.97072 0.79598 0.9897 0.0
H1235 H 0.97444 0.84324 0.00424 0.0
H1236 H 0.94884 0.83242 0.97385 0.0
H1237 H 0.08019 0.85091 0.92279 0.0
H1238 H 0.07342 0.8554 0.96615 0.0
H1239 H 0.0754 0.80972 0.94783 0.0
H1240 H 0.04213 0.84743 0.07315 0.0
H1241 H 0.03934 0.73494 0.03477 0.0
H1242 H 0.00878 0.89215 0.01522 0.0
H1243 H 0.04085 0.8949 0.99443 0.0
H1244 H 0.03938 0.90087 0.0384 0.0
H1245 H 0.00617 0.75222 0.96399 0.0
H1246 H 0.03281 0.72191 0.97908 0.0
H1247 H 0.04052 0.75896 0.95035 0.0
loop_
_geom_bond_atom_site_label_1
_geom_bond_atom_site_label_2
_geom_bond_distance
_geom_bond_site_symmetry_2
_ccdc_geom_bond_type
Mg0 O1 2.028 . S
Mg0 O7 1.986 . S
Mg0 O9 2.114 . S
Mg0 O10 2.251 . S
Mg0 O13 2.010 . S
O1 Mg0 2.028 . S
O1 C4 1.250 . S
O2 Mg3 2.028 . S
O2 C4 1.248 . S
Mg3 O2 2.028 . S
Mg3 O8 2.032 . S
Mg3 O10 2.079 . S
C4 O1 1.250 . S
C4 O2 1.248 . S
C5 O6 1.264 . S
C5 O13 1.249 . S
O6 C5 1.264 . S
O7 Mg0 1.986 . S
O7 C11 1.246 . S
O8 Mg3 2.032 . S
O8 C11 1.259 . S
O9 Mg0 2.114 . S
O9 C12 1.252 . S
O10 Mg0 2.251 . S
O10 Mg3 2.079 . S
O10 C12 1.273 . S
C11 O7 1.246 . S
C11 O8 1.259 . S
C12 O9 1.252 . S
C12 O10 1.273 . S
O13 Mg0 2.010 . S
O13 C5 1.249 . S
Mg14 O15 2.028 . S
Mg14 O21 1.986 . S
Mg14 O23 2.114 . S
Mg14 O24 2.251 . S
Mg14 O27 2.010 . S
O15 Mg14 2.028 . S
O15 C18 1.250 . S
O16 Mg17 2.028 . S
O16 C18 1.248 . S
Mg17 O16 2.028 . S
Mg17 O22 2.032 . S
Mg17 O24 2.079 . S
C18 O15 1.250 . S
C18 O16 1.248 . S
C19 O20 1.264 . S
C19 O27 1.249 . S
O20 C19 1.264 . S
O21 Mg14 1.986 . S
O21 C25 1.246 . S
O22 Mg17 2.032 . S
O22 C25 1.259 . S
O23 Mg14 2.114 . S
O23 C26 1.252 . S
O24 Mg14 2.251 . S
O24 Mg17 2.079 . S
O24 C26 1.273 . S
C25 O21 1.246 . S
C25 O22 1.259 . S
C26 O23 1.252 . S
C26 O24 1.273 . S
O27 Mg14 2.010 . S
O27 C19 1.249 . S
Mg28 O29 2.028 . S
Mg28 O35 1.986 . S
Mg28 O37 2.114 . S
Mg28 O38 2.251 . S
Mg28 O41 2.010 . S
O29 Mg28 2.028 . S
O29 C32 1.250 . S
O30 Mg31 2.028 . S
O30 C32 1.248 . S
Mg31 O30 2.028 . S
Mg31 O36 2.032 . S
Mg31 O38 2.079 . S
C32 O29 1.250 . S
C32 O30 1.248 . S
C33 O34 1.264 . S
C33 O41 1.249 . S
O34 C33 1.264 . S
O35 Mg28 1.986 . S
O35 C39 1.246 . S
O36 Mg31 2.032 . S
O36 C39 1.259 . S
O37 Mg28 2.114 . S
O37 C40 1.252 . S
O38 Mg28 2.251 . S
O38 Mg31 2.079 . S
O38 C40 1.273 . S
C39 O35 1.246 . S
C39 O36 1.259 . S
C40 O37 1.252 . S
C40 O38 1.273 . S
O41 Mg28 2.010 . S
O41 C33 1.249 . S
Mg42 O43 2.028 . S
Mg42 O49 1.986 . S
Mg42 O51 2.114 . S
Mg42 O52 2.251 . S
Mg42 O55 2.010 . S
O43 Mg42 2.028 . S
O43 C46 1.250 . S
O44 Mg45 2.028 . S
O44 C46 1.248 . S
Mg45 O44 2.028 . S
Mg45 O50 2.032 . S
Mg45 O52 2.079 . S
C46 O43 1.250 . S
C46 O44 1.248 . S
C47 O48 1.264 . S
C47 O55 1.249 . S
O48 C47 1.264 . S
O49 Mg42 1.986 . S
O49 C53 1.246 . S
O50 Mg45 2.032 . S
O50 C53 1.259 . S
O51 Mg42 2.114 . S
O51 C54 1.252 . S
O52 Mg42 2.251 . S
O52 Mg45 2.079 . S
O52 C54 1.273 . S
C53 O49 1.246 . S
C53 O50 1.259 . S
C54 O51 1.252 . S
C54 O52 1.273 . S
O55 Mg42 2.010 . S
O55 C47 1.249 . S
Mg56 O57 2.028 . S
Mg56 O63 1.986 . S
Mg56 O65 2.114 . S
Mg56 O66 2.251 . S
Mg56 O69 2.010 . S
O57 Mg56 2.028 . S
O57 C60 1.250 . S
O58 Mg59 2.028 . S
O58 C60 1.248 . S
Mg59 O58 2.028 . S
Mg59 O64 2.032 . S
Mg59 O66 2.079 . S
C60 O57 1.250 . S
C60 O58 1.248 . S
C61 O62 1.264 . S
C61 O69 1.249 . S
O62 C61 1.264 . S
O63 Mg56 1.986 . S
O63 C67 1.246 . S
O64 Mg59 2.032 . S
O64 C67 1.259 . S
O65 Mg56 2.114 . S
O65 C68 1.252 . S
O66 Mg56 2.251 . S
O66 Mg59 2.079 . S
O66 C68 1.273 . S
C67 O63 1.246 . S
C67 O64 1.259 . S
C68 O65 1.252 . S
C68 O66 1.273 . S
O69 Mg56 2.010 . S
O69 C61 1.249 . S
Mg70 O71 2.028 . S
Mg70 O77 1.986 . S
Mg70 O79 2.114 . S
Mg70 O80 2.251 . S
Mg70 O83 2.010 . S
O71 Mg70 2.028 . S
O71 C74 1.250 . S
O72 Mg73 2.028 . S
O72 C74 1.248 . S
Mg73 O72 2.028 . S
Mg73 O78 2.032 . S
Mg73 O80 2.079 . S
C74 O71 1.250 . S
C74 O72 1.248 . S
C75 O76 1.264 . S
C75 O83 1.249 . S
O76 C75 1.264 . S
O77 Mg70 1.986 . S
O77 C81 1.246 . S
O78 Mg73 2.032 . S
O78 C81 1.259 . S
O79 Mg70 2.114 . S
O79 C82 1.252 . S
O80 Mg70 2.251 . S
O80 Mg73 2.079 . S
O80 C82 1.273 . S
C81 O77 1.246 . S
C81 O78 1.259 . S
C82 O79 1.252 . S
C82 O80 1.273 . S
O83 Mg70 2.010 . S
O83 C75 1.249 . S
Mg84 O85 2.028 . S
Mg84 O91 1.986 . S
Mg84 O93 2.114 . S
Mg84 O94 2.251 . S
Mg84 O97 2.010 . S
O85 Mg84 2.028 . S
O85 C88 1.250 . S
O86 Mg87 2.028 . S
O86 C88 1.248 . S
Mg87 O86 2.028 . S
Mg87 O92 2.032 . S
Mg87 O94 2.079 . S
C88 O85 1.250 . S
C88 O86 1.248 . S
C89 O90 1.264 . S
C89 O97 1.249 . S
O90 C89 1.264 . S
O91 Mg84 1.986 . S
O91 C95 1.246 . S
O92 Mg87 2.032 . S
O92 C95 1.259 . S
O93 Mg84 2.114 . S
O93 C96 1.252 . S
O94 Mg84 2.251 . S
O94 Mg87 2.079 . S
O94 C96 1.273 . S
C95 O91 1.246 . S
C95 O92 1.259 . S
C96 O93 1.252 . S
C96 O94 1.273 . S
O97 Mg84 2.010 . S
O97 C89 1.249 . S
Mg98 O99 2.028 . S
Mg98 O105 1.986 . S
Mg98 O107 2.114 . S
Mg98 O108 2.251 . S
Mg98 O111 2.010 . S
O99 Mg98 2.028 . S
O99 C102 1.250 . S
O100 Mg101 2.028 . S
O100 C102 1.248 . S
Mg101 O100 2.028 . S
Mg101 O106 2.032 . S
Mg101 O108 2.079 . S
C102 O99 1.250 . S
C102 O100 1.248 . S
C103 O104 1.264 . S
C103 O111 1.249 . S
O104 C103 1.264 . S
O105 Mg98 1.986 . S
O105 C109 1.246 . S
O106 Mg101 2.032 . S
O106 C109 1.259 . S
O107 Mg98 2.114 . S
O107 C110 1.252 . S
O108 Mg98 2.251 . S
O108 Mg101 2.079 . S
O108 C110 1.273 . S
C109 O105 1.246 . S
C109 O106 1.259 . S
C110 O107 1.252 . S
C110 O108 1.273 . S
O111 Mg98 2.010 . S
O111 C103 1.249 . S
Mg112 O113 2.028 . S
Mg112 O119 1.986 . S
Mg112 O121 2.114 . S
Mg112 O122 2.251 . S
Mg112 O125 2.010 . S
O113 Mg112 2.028 . S
O113 C116 1.250 . S
O114 Mg115 2.028 1_545 S
O114 C116 1.248 1_545 S
Mg115 O114 2.028 1_565 S
Mg115 O120 2.032 . S
Mg115 O122 2.079 . S
C116 O113 1.250 . S
C116 O114 1.248 1_565 S
C117 O118 1.264 . S
C117 O125 1.249 . S
O118 C117 1.264 . S
O119 Mg112 1.986 . S
O119 C123 1.246 . S
O120 Mg115 2.032 . S
O120 C123 1.259 . S
O121 Mg112 2.114 . S
O121 C124 1.252 . S
O122 Mg112 2.251 . S
O122 Mg115 2.079 . S
O122 C124 1.273 . S
C123 O119 1.246 . S
C123 O120 1.259 . S
C124 O121 1.252 . S
C124 O122 1.273 . S
O125 Mg112 2.010 . S
O125 C117 1.249 . S
Mg126 O127 2.028 . S
Mg126 O133 1.986 . S
Mg126 O135 2.114 . S
Mg126 O136 2.251 . S
Mg126 O139 2.010 . S
O127 Mg126 2.028 . S
O127 C130 1.250 . S
O128 Mg129 2.028 . S
O128 C130 1.248 . S
Mg129 O128 2.028 . S
Mg129 O134 2.032 . S
Mg129 O136 2.079 . S
C130 O127 1.250 . S
C130 O128 1.248 . S
C131 O132 1.264 . S
C131 O139 1.249 . S
O132 C131 1.264 . S
O133 Mg126 1.986 . S
O133 C137 1.246 . S
O134 Mg129 2.032 . S
O134 C137 1.259 . S
O135 Mg126 2.114 . S
O135 C138 1.252 . S
O136 Mg126 2.251 . S
O136 Mg129 2.079 . S
O136 C138 1.273 . S
C137 O133 1.246 . S
C137 O134 1.259 . S
C138 O135 1.252 . S
C138 O136 1.273 . S
O139 Mg126 2.010 . S
O139 C131 1.249 . S
Mg140 O141 2.028 . S
Mg140 O147 1.986 . S
Mg140 O149 2.114 . S
Mg140 O150 2.251 . S
Mg140 O153 2.010 . S
O141 Mg140 2.028 . S
O141 C144 1.250 . S
O142 Mg143 2.028 1_565 S
O142 C144 1.248 1_565 S
Mg143 O142 2.028 1_545 S
Mg143 O148 2.032 . S
Mg143 O150 2.079 . S
C144 O141 1.250 . S
C144 O142 1.248 1_545 S
C145 O146 1.264 . S
C145 O153 1.249 . S
O146 C145 1.264 . S
O147 Mg140 1.986 . S
O147 C151 1.246 . S
O148 Mg143 2.032 . S
O148 C151 1.259 . S
O149 Mg140 2.114 . S
O149 C152 1.252 . S
O150 Mg140 2.251 . S
O150 Mg143 2.079 . S
O150 C152 1.273 . S
C151 O147 1.246 . S
C151 O148 1.259 . S
C152 O149 1.252 . S
C152 O150 1.273 . S
O153 Mg140 2.010 . S
O153 C145 1.249 . S
Mg154 O155 2.028 . S
Mg154 O161 1.986 . S
Mg154 O163 2.114 . S
Mg154 O164 2.251 . S
Mg154 O167 2.010 . S
O155 Mg154 2.028 . S
O155 C158 1.250 . S
O156 Mg157 2.028 . S
O156 C158 1.248 . S
Mg157 O156 2.028 . S
Mg157 O162 2.032 . S
Mg157 O164 2.079 . S
C158 O155 1.250 . S
C158 O156 1.248 . S
C159 O160 1.264 . S
C159 O167 1.249 . S
O160 C159 1.264 . S
O161 Mg154 1.986 . S
O161 C165 1.246 . S
O162 Mg157 2.032 . S
O162 C165 1.259 . S
O163 Mg154 2.114 . S
O163 C166 1.252 . S
O164 Mg154 2.251 . S
O164 Mg157 2.079 . S
O164 C166 1.273 . S
C165 O161 1.246 . S
C165 O162 1.259 . S
C166 O163 1.252 . S
C166 O164 1.273 . S
O167 Mg154 2.010 . S
O167 C159 1.249 . S
Mg168 O169 2.028 . S
Mg168 O175 1.986 . S
Mg168 O177 2.114 . S
Mg168 O178 2.251 . S
Mg168 O181 2.010 . S
O169 Mg168 2.028 . S
O169 C172 1.250 . S
O170 Mg171 2.028 1_565 S
O170 C172 1.248 1_565 S
Mg171 O170 2.028 1_545 S
Mg171 O176 2.032 . S
Mg171 O178 2.079 . S
C172 O169 1.250 . S
C172 O170 1.248 1_545 S
C173 O174 1.264 . S
C173 O181 1.249 . S
O174 C173 1.264 . S
O175 Mg168 1.986 . S
O175 C179 1.246 . S
O176 Mg171 2.032 . S
O176 C179 1.259 . S
O177 Mg168 2.114 . S
O177 C180 1.252 . S
O178 Mg168 2.251 . S
O178 Mg171 2.079 . S
O178 C180 1.273 . S
C179 O175 1.246 . S
C179 O176 1.259 . S
C180 O177 1.252 . S
C180 O178 1.273 . S
O181 Mg168 2.010 . S
O181 C173 1.249 . S
Mg182 O183 2.028 . S
Mg182 O189 1.986 . S
Mg182 O191 2.114 . S
Mg182 O192 2.251 . S
Mg182 O195 2.010 . S
O183 Mg182 2.028 . S
O183 C186 1.250 . S
O184 Mg185 2.028 . S
O184 C186 1.248 . S
Mg185 O184 2.028 . S
Mg185 O190 2.032 . S
Mg185 O192 2.079 . S
C186 O183 1.250 . S
C186 O184 1.248 . S
C187 O188 1.264 . S
C187 O195 1.249 . S
O188 C187 1.264 . S
O189 Mg182 1.986 . S
O189 C193 1.246 . S
O190 Mg185 2.032 . S
O190 C193 1.259 . S
O191 Mg182 2.114 . S
O191 C194 1.252 . S
O192 Mg182 2.251 . S
O192 Mg185 2.079 . S
O192 C194 1.273 . S
C193 O189 1.246 . S
C193 O190 1.259 . S
C194 O191 1.252 . S
C194 O192 1.273 . S
O195 Mg182 2.010 . S
O195 C187 1.249 . S
Mg196 O197 2.028 . S
Mg196 O203 1.986 . S
Mg196 O205 2.114 . S
Mg196 O206 2.251 . S
Mg196 O209 2.010 . S
O197 Mg196 2.028 . S
O197 C200 1.250 . S
O198 Mg199 2.028 1_545 S
O198 C200 1.248 1_545 S
Mg199 O198 2.028 1_565 S
Mg199 O204 2.032 . S
Mg199 O206 2.079 . S
C200 O197 1.250 . S
C200 O198 1.248 1_565 S
C201 O202 1.264 . S
C201 O209 1.249 . S
O202 C201 1.264 . S
O203 Mg196 1.986 . S
O203 C207 1.246 . S
O204 Mg199 2.032 . S
O204 C207 1.259 . S
O205 Mg196 2.114 . S
O205 C208 1.252 . S
O206 Mg196 2.251 . S
O206 Mg199 2.079 . S
O206 C208 1.273 . S
C207 O203 1.246 . S
C207 O204 1.259 . S
C208 O205 1.252 . S
C208 O206 1.273 . S
O209 Mg196 2.010 . S
O209 C201 1.249 . S
Mg210 O211 2.028 . S
Mg210 O217 1.986 . S
Mg210 O219 2.114 . S
Mg210 O220 2.251 . S
Mg210 O223 2.010 . S
O211 Mg210 2.028 . S
O211 C214 1.250 . S
O212 Mg213 2.028 . S
O212 C214 1.248 . S
Mg213 O212 2.028 . S
Mg213 O218 2.032 . S
Mg213 O220 2.079 . S
C214 O211 1.250 . S
C214 O212 1.248 . S
C215 O216 1.264 . S
C215 O223 1.249 . S
O216 C215 1.264 . S
O217 Mg210 1.986 . S
O217 C221 1.246 . S
O218 Mg213 2.032 . S
O218 C221 1.259 . S
O219 Mg210 2.114 . S
O219 C222 1.252 . S
O220 Mg210 2.251 . S
O220 Mg213 2.079 . S
O220 C222 1.273 . S
C221 O217 1.246 . S
C221 O218 1.259 . S
C222 O219 1.252 . S
C222 O220 1.273 . S
O223 Mg210 2.010 . S
O223 C215 1.249 . S
C224 C225 1.391 . S
C224 C226 1.394 . S
C224 H240 0.931 . S
C225 C224 1.391 . S
C225 C229 1.376 . S
C226 C224 1.394 . S
C226 C227 1.369 . S
C226 C230 1.531 . S
C227 C226 1.369 . S
C227 C228 1.410 . S
C227 C235 1.503 . S
C228 C227 1.410 . S
C228 C229 1.392 . S
C228 C231 1.511 . S
C229 C225 1.376 . S
C229 C228 1.392 . S
C229 H241 0.929 . S
C230 C226 1.531 . S
C230 H242 0.960 . S
C230 H243 0.962 . S
C230 H244 0.960 . S
C231 C228 1.511 . S
C231 H245 0.961 . S
C231 H246 0.961 . S
C231 H247 0.961 . S
C232 C233 1.370 . S
C232 C234 1.363 . S
C232 H248 0.931 . S
C233 C232 1.370 . S
C233 C237 1.408 . S
C234 C232 1.363 . S
C234 C235 1.370 . S
C234 C238 1.524 . S
C235 C227 1.503 . S
C235 C234 1.370 . S
C235 C236 1.403 . S
C236 C235 1.403 . S
C236 C237 1.404 . S
C236 C239 1.539 . S
C237 C233 1.408 . S
C237 C236 1.404 . S
C237 H249 0.930 . S
C238 C234 1.524 . S
C238 H250 0.956 . S
C238 H251 0.961 . S
C238 H252 0.961 . S
C239 C236 1.539 . S
C239 H253 0.958 . S
C239 H254 0.961 . S
C239 H255 0.960 . S
H240 C224 0.931 . S
H241 C229 0.929 . S
H242 C230 0.960 . S
H243 C230 0.962 . S
H244 C230 0.960 . S
H245 C231 0.961 . S
H246 C231 0.961 . S
H247 C231 0.961 . S
H248 C232 0.931 . S
H249 C237 0.930 . S
H250 C238 0.956 . S
H251 C238 0.961 . S
H252 C238 0.961 . S
H253 C239 0.958 . S
H254 C239 0.961 . S
H255 C239 0.960 . S
C256 C257 1.391 . S
C256 C258 1.394 . S
C256 H272 0.931 . S
C257 C256 1.391 . S
C257 C261 1.376 . S
C258 C256 1.394 . S
C258 C259 1.369 . S
C258 C262 1.531 . S
C259 C258 1.369 . S
C259 C260 1.410 . S
C259 C267 1.503 . S
C260 C259 1.410 . S
C260 C261 1.392 . S
C260 C263 1.511 . S
C261 C257 1.376 . S
C261 C260 1.392 . S
C261 H273 0.929 . S
C262 C258 1.531 . S
C262 H274 0.960 . S
C262 H275 0.962 . S
C262 H276 0.960 . S
C263 C260 1.511 . S
C263 H277 0.961 . S
C263 H278 0.961 . S
C263 H279 0.961 . S
C264 C265 1.370 . S
C264 C266 1.363 . S
C264 H280 0.931 . S
C265 C264 1.370 . S
C265 C269 1.408 . S
C266 C264 1.363 . S
C266 C267 1.370 . S
C266 C270 1.524 . S
C267 C259 1.503 . S
C267 C266 1.370 . S
C267 C268 1.403 . S
C268 C267 1.403 . S
C268 C269 1.404 . S
C268 C271 1.539 . S
C269 C265 1.408 . S
C269 C268 1.404 . S
C269 H281 0.930 . S
C270 C266 1.524 . S
C270 H282 0.956 . S
C270 H283 0.961 . S
C270 H284 0.961 . S
C271 C268 1.539 . S
C271 H285 0.958 . S
C271 H286 0.961 . S
C271 H287 0.960 . S
H272 C256 0.931 . S
H273 C261 0.929 . S
H274 C262 0.960 . S
H275 C262 0.962 . S
H276 C262 0.960 . S
H277 C263 0.961 . S
H278 C263 0.961 . S
H279 C263 0.961 . S
H280 C264 0.931 . S
H281 C269 0.930 . S
H282 C270 0.956 . S
H283 C270 0.961 . S
H284 C270 0.961 . S
H285 C271 0.958 . S
H286 C271 0.961 . S
H287 C271 0.960 . S
C288 C289 1.391 . S
C288 C290 1.394 . S
C288 H304 0.931 . S
C289 C288 1.391 . S
C289 C293 1.376 . S
C290 C288 1.394 . S
C290 C291 1.369 . S
C290 C294 1.531 . S
C291 C290 1.369 . S
C291 C292 1.410 . S
C291 C299 1.503 . S
C292 C291 1.410 . S
C292 C293 1.392 . S
C292 C295 1.511 . S
C293 C289 1.376 . S
C293 C292 1.392 . S
C293 H305 0.929 . S
C294 C290 1.531 . S
C294 H306 0.960 . S
C294 H307 0.962 . S
C294 H308 0.960 . S
C295 C292 1.511 . S
C295 H309 0.961 . S
C295 H310 0.961 . S
C295 H311 0.961 . S
C296 C297 1.370 . S
C296 C298 1.363 . S
C296 H312 0.931 . S
C297 C296 1.370 . S
C297 C301 1.408 . S
C298 C296 1.363 . S
C298 C299 1.370 . S
C298 C302 1.524 . S
C299 C291 1.503 . S
C299 C298 1.370 . S
C299 C300 1.403 . S
C300 C299 1.403 . S
C300 C301 1.404 . S
C300 C303 1.539 . S
C301 C297 1.408 . S
C301 C300 1.404 . S
C301 H313 0.930 . S
C302 C298 1.524 . S
C302 H314 0.956 . S
C302 H315 0.961 . S
C302 H316 0.961 . S
C303 C300 1.539 . S
C303 H317 0.958 . S
C303 H318 0.961 . S
C303 H319 0.960 . S
H304 C288 0.931 . S
H305 C293 0.929 . S
H306 C294 0.960 . S
H307 C294 0.962 . S
H308 C294 0.960 . S
H309 C295 0.961 . S
H310 C295 0.961 . S
H311 C295 0.961 . S
H312 C296 0.931 . S
H313 C301 0.930 . S
H314 C302 0.956 . S
H315 C302 0.961 . S
H316 C302 0.961 . S
H317 C303 0.958 . S
H318 C303 0.961 . S
H319 C303 0.960 . S
C320 C321 1.391 . S
C320 C322 1.394 . S
C320 H336 0.931 . S
C321 C320 1.391 . S
C321 C325 1.376 . S
C322 C320 1.394 . S
C322 C323 1.369 . S
C322 C326 1.531 . S
C323 C322 1.369 . S
C323 C324 1.410 . S
C323 C331 1.503 . S
C324 C323 1.410 . S
C324 C325 1.392 . S
C324 C327 1.511 . S
C325 C321 1.376 . S
C325 C324 1.392 . S
C325 H337 0.929 . S
C326 C322 1.531 . S
C326 H338 0.960 . S
C326 H339 0.962 . S
C326 H340 0.960 . S
C327 C324 1.511 . S
C327 H341 0.961 . S
C327 H342 0.961 . S
C327 H343 0.961 . S
C328 C329 1.370 . S
C328 C330 1.363 . S
C328 H344 0.931 . S
C329 C328 1.370 . S
C329 C333 1.408 . S
C330 C328 1.363 . S
C330 C331 1.370 . S
C330 C334 1.524 . S
C331 C323 1.503 . S
C331 C330 1.370 . S
C331 C332 1.403 . S
C332 C331 1.403 . S
C332 C333 1.404 . S
C332 C335 1.539 . S
C333 C329 1.408 . S
C333 C332 1.404 . S
C333 H345 0.930 . S
C334 C330 1.524 . S
C334 H346 0.956 . S
C334 H347 0.961 . S
C334 H348 0.961 . S
C335 C332 1.539 . S
C335 H349 0.958 . S
C335 H350 0.961 . S
C335 H351 0.960 . S
H336 C320 0.931 . S
H337 C325 0.929 . S
H338 C326 0.960 . S
H339 C326 0.962 . S
H340 C326 0.960 . S
H341 C327 0.961 . S
H342 C327 0.961 . S
H343 C327 0.961 . S
H344 C328 0.931 . S
H345 C333 0.930 . S
H346 C334 0.956 . S
H347 C334 0.961 . S
H348 C334 0.961 . S
H349 C335 0.958 . S
H350 C335 0.961 . S
H351 C335 0.960 . S
C352 C353 1.391 . S
C352 C354 1.394 . S
C352 H368 0.931 . S
C353 C352 1.391 . S
C353 C357 1.376 . S
C354 C352 1.394 . S
C354 C355 1.369 . S
C354 C358 1.531 . S
C355 C354 1.369 . S
C355 C356 1.410 . S
C355 C363 1.503 . S
C356 C355 1.410 . S
C356 C357 1.392 . S
C356 C359 1.511 . S
C357 C353 1.376 . S
C357 C356 1.392 . S
C357 H369 0.929 . S
C358 C354 1.531 . S
C358 H370 0.960 . S
C358 H371 0.962 . S
C358 H372 0.960 . S
C359 C356 1.511 . S
C359 H373 0.961 . S
C359 H374 0.961 . S
C359 H375 0.961 . S
C360 C361 1.370 . S
C360 C362 1.363 . S
C360 H376 0.931 . S
C361 C360 1.370 . S
C361 C365 1.408 . S
C362 C360 1.363 . S
C362 C363 1.370 . S
C362 C366 1.524 . S
C363 C355 1.503 . S
C363 C362 1.370 . S
C363 C364 1.403 . S
C364 C363 1.403 . S
C364 C365 1.404 . S
C364 C367 1.539 . S
C365 C361 1.408 . S
C365 C364 1.404 . S
C365 H377 0.930 . S
C366 C362 1.524 . S
C366 H378 0.956 . S
C366 H379 0.961 . S
C366 H380 0.961 . S
C367 C364 1.539 . S
C367 H381 0.958 . S
C367 H382 0.961 . S
C367 H383 0.960 . S
H368 C352 0.931 . S
H369 C357 0.929 . S
H370 C358 0.960 . S
H371 C358 0.962 . S
H372 C358 0.960 . S
H373 C359 0.961 . S
H374 C359 0.961 . S
H375 C359 0.961 . S
H376 C360 0.931 . S
H377 C365 0.930 . S
H378 C366 0.956 . S
H379 C366 0.961 . S
H380 C366 0.961 . S
H381 C367 0.958 . S
H382 C367 0.961 . S
H383 C367 0.960 . S
C384 C385 1.391 . S
C384 C386 1.394 . S
C384 H400 0.931 . S
C385 C384 1.391 . S
C385 C389 1.376 . S
C386 C384 1.394 . S
C386 C387 1.369 . S
C386 C390 1.531 . S
C387 C386 1.369 . S
C387 C388 1.410 . S
C387 C395 1.503 . S
C388 C387 1.410 . S
C388 C389 1.392 . S
C388 C391 1.511 . S
C389 C385 1.376 . S
C389 C388 1.392 . S
C389 H401 0.929 . S
C390 C386 1.531 . S
C390 H402 0.960 . S
C390 H403 0.962 . S
C390 H404 0.960 . S
C391 C388 1.511 . S
C391 H405 0.961 . S
C391 H406 0.961 . S
C391 H407 0.961 . S
C392 C393 1.370 . S
C392 C394 1.363 . S
C392 H408 0.931 . S
C393 C392 1.370 . S
C393 C397 1.408 . S
C394 C392 1.363 . S
C394 C395 1.370 . S
C394 C398 1.524 . S
C395 C387 1.503 . S
C395 C394 1.370 . S
C395 C396 1.403 . S
C396 C395 1.403 . S
C396 C397 1.404 . S
C396 C399 1.539 . S
C397 C393 1.408 . S
C397 C396 1.404 . S
C397 H409 0.930 . S
C398 C394 1.524 . S
C398 H410 0.956 . S
C398 H411 0.961 . S
C398 H412 0.961 . S
C399 C396 1.539 . S
C399 H413 0.958 . S
C399 H414 0.961 . S
C399 H415 0.960 . S
H400 C384 0.931 . S
H401 C389 0.929 . S
H402 C390 0.960 . S
H403 C390 0.962 . S
H404 C390 0.960 . S
H405 C391 0.961 . S
H406 C391 0.961 . S
H407 C391 0.961 . S
H408 C392 0.931 . S
H409 C397 0.930 . S
H410 C398 0.956 . S
H411 C398 0.961 . S
H412 C398 0.961 . S
H413 C399 0.958 . S
H414 C399 0.961 . S
H415 C399 0.960 . S
C416 C417 1.391 . S
C416 C418 1.394 . S
C416 H432 0.931 . S
C417 C416 1.391 . S
C417 C421 1.376 . S
C418 C416 1.394 . S
C418 C419 1.369 . S
C418 C422 1.531 . S
C419 C418 1.369 . S
C419 C420 1.410 . S
C419 C427 1.503 . S
C420 C419 1.410 . S
C420 C421 1.392 . S
C420 C423 1.511 . S
C421 C417 1.376 . S
C421 C420 1.392 . S
C421 H433 0.929 . S
C422 C418 1.531 . S
C422 H434 0.960 . S
C422 H435 0.962 . S
C422 H436 0.960 . S
C423 C420 1.511 . S
C423 H437 0.961 . S
C423 H438 0.961 . S
C423 H439 0.961 . S
C424 C425 1.370 . S
C424 C426 1.363 . S
C424 H440 0.931 . S
C425 C424 1.370 . S
C425 C429 1.408 . S
C426 C424 1.363 . S
C426 C427 1.370 . S
C426 C430 1.524 . S
C427 C419 1.503 . S
C427 C426 1.370 . S
C427 C428 1.403 . S
C428 C427 1.403 . S
C428 C429 1.404 . S
C428 C431 1.539 . S
C429 C425 1.408 . S
C429 C428 1.404 . S
C429 H441 0.930 . S
C430 C426 1.524 . S
C430 H442 0.956 . S
C430 H443 0.961 . S
C430 H444 0.961 . S
C431 C428 1.539 . S
C431 H445 0.958 . S
C431 H446 0.961 . S
C431 H447 0.960 . S
H432 C416 0.931 . S
H433 C421 0.929 . S
H434 C422 0.960 . S
H435 C422 0.962 . S
H436 C422 0.960 . S
H437 C423 0.961 . S
H438 C423 0.961 . S
H439 C423 0.961 . S
H440 C424 0.931 . S
H441 C429 0.930 . S
H442 C430 0.956 . S
H443 C430 0.961 . S
H444 C430 0.961 . S
H445 C431 0.958 . S
H446 C431 0.961 . S
H447 C431 0.960 . S
C448 C449 1.391 . S
C448 C450 1.394 . S
C448 H464 0.931 . S
C449 C448 1.391 . S
C449 C453 1.376 . S
C450 C448 1.394 . S
C450 C451 1.369 . S
C450 C454 1.531 . S
C451 C450 1.369 . S
C451 C452 1.410 . S
C451 C459 1.503 . S
C452 C451 1.410 . S
C452 C453 1.392 . S
C452 C455 1.511 . S
C453 C449 1.376 . S
C453 C452 1.392 . S
C453 H465 0.929 . S
C454 C450 1.531 . S
C454 H466 0.960 . S
C454 H467 0.962 . S
C454 H468 0.960 . S
C455 C452 1.511 . S
C455 H469 0.961 . S
C455 H470 0.961 . S
C455 H471 0.961 . S
C456 C457 1.370 . S
C456 C458 1.363 . S
C456 H472 0.931 . S
C457 C456 1.370 . S
C457 C461 1.408 . S
C458 C456 1.363 . S
C458 C459 1.370 . S
C458 C462 1.524 . S
C459 C451 1.503 . S
C459 C458 1.370 . S
C459 C460 1.403 . S
C460 C459 1.403 . S
C460 C461 1.404 . S
C460 C463 1.539 . S
C461 C457 1.408 . S
C461 C460 1.404 . S
C461 H473 0.930 . S
C462 C458 1.524 . S
C462 H474 0.956 . S
C462 H475 0.961 . S
C462 H476 0.961 . S
C463 C460 1.539 . S
C463 H477 0.958 . S
C463 H478 0.961 . S
C463 H479 0.960 . S
H464 C448 0.931 . S
H465 C453 0.929 . S
H466 C454 0.960 . S
H467 C454 0.962 . S
H468 C454 0.960 . S
H469 C455 0.961 . S
H470 C455 0.961 . S
H471 C455 0.961 . S
H472 C456 0.931 . S
H473 C461 0.930 . S
H474 C462 0.956 . S
H475 C462 0.961 . S
H476 C462 0.961 . S
H477 C463 0.958 . S
H478 C463 0.961 . S
H479 C463 0.960 . S
C480 C481 1.391 . S
C480 C482 1.394 . S
C480 H496 0.931 . S
C481 C480 1.391 . S
C481 C485 1.376 . S
C482 C480 1.394 . S
C482 C483 1.369 . S
C482 C486 1.531 . S
C483 C482 1.369 . S
C483 C484 1.410 . S
C483 C491 1.503 . S
C484 C483 1.410 . S
C484 C485 1.392 . S
C484 C487 1.511 . S
C485 C481 1.376 . S
C485 C484 1.392 . S
C485 H497 0.929 . S
C486 C482 1.531 . S
C486 H498 0.960 . S
C486 H499 0.962 . S
C486 H500 0.960 . S
C487 C484 1.511 . S
C487 H501 0.961 . S
C487 H502 0.961 . S
C487 H503 0.961 . S
C488 C489 1.370 . S
C488 C490 1.363 . S
C488 H504 0.931 . S
C489 C488 1.370 . S
C489 C493 1.408 . S
C490 C488 1.363 . S
C490 C491 1.370 . S
C490 C494 1.524 . S
C491 C483 1.503 . S
C491 C490 1.370 . S
C491 C492 1.403 . S
C492 C491 1.403 . S
C492 C493 1.404 . S
C492 C495 1.539 . S
C493 C489 1.408 . S
C493 C492 1.404 . S
C493 H505 0.930 . S
C494 C490 1.524 . S
C494 H506 0.956 . S
C494 H507 0.961 . S
C494 H508 0.961 . S
C495 C492 1.539 . S
C495 H509 0.958 . S
C495 H510 0.961 . S
C495 H511 0.960 . S
H496 C480 0.931 . S
H497 C485 0.929 . S
H498 C486 0.960 . S
H499 C486 0.962 . S
H500 C486 0.960 . S
H501 C487 0.961 . S
H502 C487 0.961 . S
H503 C487 0.961 . S
H504 C488 0.931 . S
H505 C493 0.930 . S
H506 C494 0.956 . S
H507 C494 0.961 . S
H508 C494 0.961 . S
H509 C495 0.958 . S
H510 C495 0.961 . S
H511 C495 0.960 . S
C512 C513 1.391 . S
C512 C514 1.394 . S
C512 H528 0.931 . S
C513 C512 1.391 . S
C513 C517 1.376 . S
C514 C512 1.394 . S
C514 C515 1.369 . S
C514 C518 1.531 . S
C515 C514 1.369 . S
C515 C516 1.410 . S
C515 C523 1.503 . S
C516 C515 1.410 . S
C516 C517 1.392 . S
C516 C519 1.511 . S
C517 C513 1.376 . S
C517 C516 1.392 . S
C517 H529 0.929 . S
C518 C514 1.531 . S
C518 H530 0.960 . S
C518 H531 0.962 . S
C518 H532 0.960 . S
C519 C516 1.511 . S
C519 H533 0.961 . S
C519 H534 0.961 . S
C519 H535 0.961 . S
C520 C521 1.370 . S
C520 C522 1.363 . S
C520 H536 0.931 . S
C521 C520 1.370 . S
C521 C525 1.408 . S
C522 C520 1.363 . S
C522 C523 1.370 . S
C522 C526 1.524 . S
C523 C515 1.503 . S
C523 C522 1.370 . S
C523 C524 1.403 . S
C524 C523 1.403 . S
C524 C525 1.404 . S
C524 C527 1.539 . S
C525 C521 1.408 . S
C525 C524 1.404 . S
C525 H537 0.930 . S
C526 C522 1.524 . S
C526 H538 0.956 . S
C526 H539 0.961 . S
C526 H540 0.961 . S
C527 C524 1.539 . S
C527 H541 0.958 . S
C527 H542 0.961 . S
C527 H543 0.960 . S
H528 C512 0.931 . S
H529 C517 0.929 . S
H530 C518 0.960 . S
H531 C518 0.962 . S
H532 C518 0.960 . S
H533 C519 0.961 . S
H534 C519 0.961 . S
H535 C519 0.961 . S
H536 C520 0.931 . S
H537 C525 0.930 . S
H538 C526 0.956 . S
H539 C526 0.961 . S
H540 C526 0.961 . S
H541 C527 0.958 . S
H542 C527 0.961 . S
H543 C527 0.960 . S
C544 C545 1.391 . S
C544 C546 1.394 . S
C544 H560 0.931 . S
C545 C544 1.391 . S
C545 C549 1.376 . S
C546 C544 1.394 . S
C546 C547 1.369 . S
C546 C550 1.531 . S
C547 C546 1.369 . S
C547 C548 1.410 . S
C547 C555 1.503 . S
C548 C547 1.410 . S
C548 C549 1.392 . S
C548 C551 1.511 . S
C549 C545 1.376 . S
C549 C548 1.392 . S
C549 H561 0.929 . S
C550 C546 1.531 . S
C550 H562 0.960 . S
C550 H563 0.962 . S
C550 H564 0.960 . S
C551 C548 1.511 . S
C551 H565 0.961 . S
C551 H566 0.961 . S
C551 H567 0.961 . S
C552 C553 1.370 . S
C552 C554 1.363 . S
C552 H568 0.931 . S
C553 C552 1.370 . S
C553 C557 1.408 . S
C554 C552 1.363 . S
C554 C555 1.370 . S
C554 C558 1.524 . S
C555 C547 1.503 . S
C555 C554 1.370 . S
C555 C556 1.403 . S
C556 C555 1.403 . S
C556 C557 1.404 . S
C556 C559 1.539 . S
C557 C553 1.408 . S
C557 C556 1.404 . S
C557 H569 0.930 . S
C558 C554 1.524 . S
C558 H570 0.956 . S
C558 H571 0.961 . S
C558 H572 0.961 . S
C559 C556 1.539 . S
C559 H573 0.958 . S
C559 H574 0.961 . S
C559 H575 0.960 . S
H560 C544 0.931 . S
H561 C549 0.929 . S
H562 C550 0.960 . S
H563 C550 0.962 . S
H564 C550 0.960 . S
H565 C551 0.961 . S
H566 C551 0.961 . S
H567 C551 0.961 . S
H568 C552 0.931 . S
H569 C557 0.930 . S
H570 C558 0.956 . S
H571 C558 0.961 . S
H572 C558 0.961 . S
H573 C559 0.958 . S
H574 C559 0.961 . S
H575 C559 0.960 . S
C576 C577 1.391 . S
C576 C578 1.394 . S
C576 H592 0.931 . S
C577 C576 1.391 . S
C577 C581 1.376 . S
C578 C576 1.394 . S
C578 C579 1.369 . S
C578 C582 1.531 . S
C579 C578 1.369 . S
C579 C580 1.410 . S
C579 C587 1.503 . S
C580 C579 1.410 . S
C580 C581 1.392 . S
C580 C583 1.511 . S
C581 C577 1.376 . S
C581 C580 1.392 . S
C581 H593 0.929 . S
C582 C578 1.531 . S
C582 H594 0.960 . S
C582 H595 0.962 . S
C582 H596 0.960 . S
C583 C580 1.511 . S
C583 H597 0.961 . S
C583 H598 0.961 . S
C583 H599 0.961 . S
C584 C585 1.370 . S
C584 C586 1.363 . S
C584 H600 0.931 . S
C585 C584 1.370 . S
C585 C589 1.408 . S
C586 C584 1.363 . S
C586 C587 1.370 . S
C586 C590 1.524 . S
C587 C579 1.503 . S
C587 C586 1.370 . S
C587 C588 1.403 . S
C588 C587 1.403 . S
C588 C589 1.404 . S
C588 C591 1.539 . S
C589 C585 1.408 . S
C589 C588 1.404 . S
C589 H601 0.930 . S
C590 C586 1.524 . S
C590 H602 0.956 . S
C590 H603 0.961 . S
C590 H604 0.961 . S
C591 C588 1.539 . S
C591 H605 0.958 . S
C591 H606 0.961 . S
C591 H607 0.960 . S
H592 C576 0.931 . S
H593 C581 0.929 . S
H594 C582 0.960 . S
H595 C582 0.962 . S
H596 C582 0.960 . S
H597 C583 0.961 . S
H598 C583 0.961 . S
H599 C583 0.961 . S
H600 C584 0.931 . S
H601 C589 0.930 . S
H602 C590 0.956 . S
H603 C590 0.961 . S
H604 C590 0.961 . S
H605 C591 0.958 . S
H606 C591 0.961 . S
H607 C591 0.960 . S
C608 C609 1.391 . S
C608 C610 1.394 . S
C608 H624 0.931 . S
C609 C608 1.391 . S
C609 C613 1.376 . S
C610 C608 1.394 . S
C610 C611 1.369 . S
C610 C614 1.531 . S
C611 C610 1.369 . S
C611 C612 1.410 . S
C611 C619 1.503 . S
C612 C611 1.410 . S
C612 C613 1.392 . S
C612 C615 1.511 . S
C613 C609 1.376 . S
C613 C612 1.392 . S
C613 H625 0.929 . S
C614 C610 1.531 . S
C614 H626 0.960 . S
C614 H627 0.962 . S
C614 H628 0.960 . S
C615 C612 1.511 . S
C615 H629 0.961 . S
C615 H630 0.961 . S
C615 H631 0.961 . S
C616 C617 1.370 . S
C616 C618 1.363 . S
C616 H632 0.931 . S
C617 C616 1.370 . S
C617 C621 1.408 . S
C618 C616 1.363 . S
C618 C619 1.370 . S
C618 C622 1.524 . S
C619 C611 1.503 . S
C619 C618 1.370 . S
C619 C620 1.403 . S
C620 C619 1.403 . S
C620 C621 1.404 . S
C620 C623 1.539 . S
C621 C617 1.408 . S
C621 C620 1.404 . S
C621 H633 0.930 . S
C622 C618 1.524 . S
C622 H634 0.956 . S
C622 H635 0.961 . S
C622 H636 0.961 . S
C623 C620 1.539 . S
C623 H637 0.958 . S
C623 H638 0.961 . S
C623 H639 0.960 . S
H624 C608 0.931 . S
H625 C613 0.929 . S
H626 C614 0.960 . S
H627 C614 0.962 . S
H628 C614 0.960 . S
H629 C615 0.961 . S
H630 C615 0.961 . S
H631 C615 0.961 . S
H632 C616 0.931 . S
H633 C621 0.930 . S
H634 C622 0.956 . S
H635 C622 0.961 . S
H636 C622 0.961 . S
H637 C623 0.958 . S
H638 C623 0.961 . S
H639 C623 0.960 . S
C640 C641 1.391 . S
C640 C642 1.394 . S
C640 H656 0.931 . S
C641 C640 1.391 . S
C641 C645 1.376 . S
C642 C640 1.394 . S
C642 C643 1.369 . S
C642 C646 1.531 . S
C643 C642 1.369 . S
C643 C644 1.410 . S
C643 C651 1.503 . S
C644 C643 1.410 . S
C644 C645 1.392 . S
C644 C647 1.511 . S
C645 C641 1.376 . S
C645 C644 1.392 . S
C645 H657 0.929 . S
C646 C642 1.531 . S
C646 H658 0.960 . S
C646 H659 0.962 . S
C646 H660 0.960 . S
C647 C644 1.511 . S
C647 H661 0.961 . S
C647 H662 0.961 . S
C647 H663 0.961 . S
C648 C649 1.370 . S
C648 C650 1.363 . S
C648 H664 0.931 . S
C649 C648 1.370 . S
C649 C653 1.408 . S
C650 C648 1.363 . S
C650 C651 1.370 . S
C650 C654 1.524 . S
C651 C643 1.503 . S
C651 C650 1.370 . S
C651 C652 1.403 . S
C652 C651 1.403 . S
C652 C653 1.404 . S
C652 C655 1.539 . S
C653 C649 1.408 . S
C653 C652 1.404 . S
C653 H665 0.930 . S
C654 C650 1.524 . S
C654 H666 0.956 . S
C654 H667 0.961 . S
C654 H668 0.961 . S
C655 C652 1.539 . S
C655 H669 0.958 . S
C655 H670 0.961 . S
C655 H671 0.960 . S
H656 C640 0.931 . S
H657 C645 0.929 . S
H658 C646 0.960 . S
H659 C646 0.962 . S
H660 C646 0.960 . S
H661 C647 0.961 . S
H662 C647 0.961 . S
H663 C647 0.961 . S
H664 C648 0.931 . S
H665 C653 0.930 . S
H666 C654 0.956 . S
H667 C654 0.961 . S
H668 C654 0.961 . S
H669 C655 0.958 . S
H670 C655 0.961 . S
H671 C655 0.960 . S
C672 C673 1.391 . S
C672 C674 1.394 . S
C672 H688 0.931 . S
C673 C672 1.391 . S
C673 C677 1.376 . S
C674 C672 1.394 . S
C674 C675 1.369 . S
C674 C678 1.531 . S
C675 C674 1.369 . S
C675 C676 1.410 . S
C675 C683 1.503 . S
C676 C675 1.410 . S
C676 C677 1.392 . S
C676 C679 1.511 . S
C677 C673 1.376 . S
C677 C676 1.392 . S
C677 H689 0.929 . S
C678 C674 1.531 . S
C678 H690 0.960 . S
C678 H691 0.962 . S
C678 H692 0.960 . S
C679 C676 1.511 . S
C679 H693 0.961 . S
C679 H694 0.961 . S
C679 H695 0.961 . S
C680 C681 1.370 . S
C680 C682 1.363 . S
C680 H696 0.931 . S
C681 C680 1.370 . S
C681 C685 1.408 . S
C682 C680 1.363 . S
C682 C683 1.370 . S
C682 C686 1.524 . S
C683 C675 1.503 . S
C683 C682 1.370 . S
C683 C684 1.403 . S
C684 C683 1.403 . S
C684 C685 1.404 . S
C684 C687 1.539 . S
C685 C681 1.408 . S
C685 C684 1.404 . S
C685 H697 0.930 . S
C686 C682 1.524 . S
C686 H698 0.956 . S
C686 H699 0.961 . S
C686 H700 0.961 . S
C687 C684 1.539 . S
C687 H701 0.958 . S
C687 H702 0.961 . S
C687 H703 0.960 . S
H688 C672 0.931 . S
H689 C677 0.929 . S
H690 C678 0.960 . S
H691 C678 0.962 . S
H692 C678 0.960 . S
H693 C679 0.961 . S
H694 C679 0.961 . S
H695 C679 0.961 . S
H696 C680 0.931 . S
H697 C685 0.930 . S
H698 C686 0.956 . S
H699 C686 0.961 . S
H700 C686 0.961 . S
H701 C687 0.958 . S
H702 C687 0.961 . S
H703 C687 0.960 . S
C704 C705 1.391 . S
C704 C706 1.394 . S
C704 H720 0.931 . S
C705 C704 1.391 . S
C705 C709 1.376 . S
C706 C704 1.394 . S
C706 C707 1.369 . S
C706 C710 1.531 . S
C707 C706 1.369 . S
C707 C708 1.410 . S
C707 C715 1.503 . S
C708 C707 1.410 . S
C708 C709 1.392 . S
C708 C711 1.511 . S
C709 C705 1.376 . S
C709 C708 1.392 . S
C709 H721 0.929 . S
C710 C706 1.531 . S
C710 H722 0.960 . S
C710 H723 0.962 . S
C710 H724 0.960 . S
C711 C708 1.511 . S
C711 H725 0.961 . S
C711 H726 0.961 . S
C711 H727 0.961 . S
C712 C713 1.370 . S
C712 C714 1.363 . S
C712 H728 0.931 . S
C713 C712 1.370 . S
C713 C717 1.408 . S
C714 C712 1.363 . S
C714 C715 1.370 . S
C714 C718 1.524 . S
C715 C707 1.503 . S
C715 C714 1.370 . S
C715 C716 1.403 . S
C716 C715 1.403 . S
C716 C717 1.404 . S
C716 C719 1.539 . S
C717 C713 1.408 . S
C717 C716 1.404 . S
C717 H729 0.930 . S
C718 C714 1.524 . S
C718 H730 0.956 . S
C718 H731 0.961 . S
C718 H732 0.961 . S
C719 C716 1.539 . S
C719 H733 0.958 . S
C719 H734 0.961 . S
C719 H735 0.960 . S
H720 C704 0.931 . S
H721 C709 0.929 . S
H722 C710 0.960 . S
H723 C710 0.962 . S
H724 C710 0.960 . S
H725 C711 0.961 . S
H726 C711 0.961 . S
H727 C711 0.961 . S
H728 C712 0.931 . S
H729 C717 0.930 . S
H730 C718 0.956 . S
H731 C718 0.961 . S
H732 C718 0.961 . S
H733 C719 0.958 . S
H734 C719 0.961 . S
H735 C719 0.960 . S
C736 C737 1.391 . S
C736 C738 1.394 . S
C736 H752 0.931 . S
C737 C736 1.391 . S
C737 C741 1.376 . S
C738 C736 1.394 . S
C738 C739 1.369 . S
C738 C742 1.531 . S
C739 C738 1.369 . S
C739 C740 1.410 . S
C739 C747 1.503 . S
C740 C739 1.410 . S
C740 C741 1.392 . S
C740 C743 1.511 . S
C741 C737 1.376 . S
C741 C740 1.392 . S
C741 H753 0.929 . S
C742 C738 1.531 . S
C742 H754 0.960 . S
C742 H755 0.962 . S
C742 H756 0.960 . S
C743 C740 1.511 . S
C743 H757 0.961 . S
C743 H758 0.961 . S
C743 H759 0.961 . S
C744 C745 1.370 . S
C744 C746 1.363 . S
C744 H760 0.931 . S
C745 C744 1.370 . S
C745 C749 1.408 . S
C746 C744 1.363 . S
C746 C747 1.370 . S
C746 C750 1.524 . S
C747 C739 1.503 . S
C747 C746 1.370 . S
C747 C748 1.403 . S
C748 C747 1.403 . S
C748 C749 1.404 . S
C748 C751 1.539 . S
C749 C745 1.408 . S
C749 C748 1.404 . S
C749 H761 0.930 . S
C750 C746 1.524 . S
C750 H762 0.956 . S
C750 H763 0.961 . S
C750 H764 0.961 . S
C751 C748 1.539 . S
C751 H765 0.958 . S
C751 H766 0.961 . S
C751 H767 0.960 . S
H752 C736 0.931 . S
H753 C741 0.929 . S
H754 C742 0.960 . S
H755 C742 0.962 . S
H756 C742 0.960 . S
H757 C743 0.961 . S
H758 C743 0.961 . S
H759 C743 0.961 . S
H760 C744 0.931 . S
H761 C749 0.930 . S
H762 C750 0.956 . S
H763 C750 0.961 . S
H764 C750 0.961 . S
H765 C751 0.958 . S
H766 C751 0.961 . S
H767 C751 0.960 . S
C768 C769 1.391 . S
C768 C770 1.394 . S
C768 H784 0.931 . S
C769 C768 1.391 . S
C769 C773 1.376 . S
C770 C768 1.394 . S
C770 C771 1.369 . S
C770 C774 1.531 . S
C771 C770 1.369 . S
C771 C772 1.410 . S
C771 C779 1.503 . S
C772 C771 1.410 . S
C772 C773 1.392 . S
C772 C775 1.511 . S
C773 C769 1.376 . S
C773 C772 1.392 . S
C773 H785 0.929 . S
C774 C770 1.531 . S
C774 H786 0.960 . S
C774 H787 0.962 . S
C774 H788 0.960 . S
C775 C772 1.511 . S
C775 H789 0.961 . S
C775 H790 0.961 . S
C775 H791 0.961 . S
C776 C777 1.370 . S
C776 C778 1.363 1_655 S
C776 H792 0.931 . S
C777 C776 1.370 . S
C777 C781 1.408 1_655 S
C778 C776 1.363 1_455 S
C778 C779 1.370 . S
C778 C782 1.524 . S
C779 C771 1.503 . S
C779 C778 1.370 . S
C779 C780 1.403 . S
C780 C779 1.403 . S
C780 C781 1.404 . S
C780 C783 1.539 . S
C781 C777 1.408 1_455 S
C781 C780 1.404 . S
C781 H793 0.930 . S
C782 C778 1.524 . S
C782 H794 0.956 . S
C782 H795 0.961 . S
C782 H796 0.941 1_455 S
C783 C780 1.539 . S
C783 H797 0.958 . S
C783 H798 0.961 . S
C783 H799 0.960 . S
H784 C768 0.931 . S
H785 C773 0.929 . S
H786 C774 0.960 . S
H787 C774 0.962 . S
H788 C774 0.960 . S
H789 C775 0.961 . S
H790 C775 0.961 . S
H791 C775 0.961 . S
H792 C776 0.931 . S
H793 C781 0.930 . S
H794 C782 0.956 . S
H795 C782 0.961 . S
H796 C782 0.941 1_655 S
H797 C783 0.958 . S
H798 C783 0.961 . S
H799 C783 0.960 . S
C800 C801 1.391 . S
C800 C802 1.394 . S
C800 H816 0.931 . S
C801 C800 1.391 . S
C801 C805 1.376 . S
C802 C800 1.394 . S
C802 C803 1.369 . S
C802 C806 1.531 . S
C803 C802 1.369 . S
C803 C804 1.410 . S
C803 C811 1.503 . S
C804 C803 1.410 . S
C804 C805 1.392 . S
C804 C807 1.511 . S
C805 C801 1.376 . S
C805 C804 1.392 . S
C805 H817 0.929 . S
C806 C802 1.531 . S
C806 H818 0.960 . S
C806 H819 0.962 . S
C806 H820 0.960 . S
C807 C804 1.511 . S
C807 H821 0.961 . S
C807 H822 0.961 . S
C807 H823 0.961 . S
C808 C809 1.370 . S
C808 C810 1.363 . S
C808 H824 0.931 . S
C809 C808 1.370 . S
C809 C813 1.408 . S
C810 C808 1.363 . S
C810 C811 1.370 . S
C810 C814 1.524 . S
C811 C803 1.503 . S
C811 C810 1.370 . S
C811 C812 1.403 . S
C812 C811 1.403 . S
C812 C813 1.404 . S
C812 C815 1.539 . S
C813 C809 1.408 . S
C813 C812 1.404 . S
C813 H825 0.930 . S
C814 C810 1.524 . S
C814 H826 0.956 . S
C814 H827 0.961 . S
C814 H828 0.961 . S
C815 C812 1.539 . S
C815 H829 0.958 . S
C815 H830 0.961 . S
C815 H831 0.960 . S
H816 C800 0.931 . S
H817 C805 0.929 . S
H818 C806 0.960 . S
H819 C806 0.962 . S
H820 C806 0.960 . S
H821 C807 0.961 . S
H822 C807 0.961 . S
H823 C807 0.961 . S
H824 C808 0.931 . S
H825 C813 0.930 . S
H826 C814 0.956 . S
H827 C814 0.961 . S
H828 C814 0.961 . S
H829 C815 0.958 . S
H830 C815 0.961 . S
H831 C815 0.960 . S
C832 C833 1.391 . S
C832 C834 1.394 . S
C832 H848 0.931 . S
C833 C832 1.391 . S
C833 C837 1.376 . S
C834 C832 1.394 . S
C834 C835 1.369 . S
C834 C838 1.531 . S
C835 C834 1.369 . S
C835 C836 1.410 . S
C835 C843 1.503 . S
C836 C835 1.410 . S
C836 C837 1.392 . S
C836 C839 1.511 . S
C837 C833 1.376 . S
C837 C836 1.392 . S
C837 H849 0.929 . S
C838 C834 1.531 . S
C838 H850 0.960 . S
C838 H851 0.962 . S
C838 H852 0.960 . S
C839 C836 1.511 . S
C839 H853 0.961 . S
C839 H854 0.961 . S
C839 H855 0.961 . S
C840 C841 1.370 1_655 S
C840 C842 1.363 . S
C840 H856 0.931 . S
C841 C840 1.370 1_455 S
C841 C845 1.408 1_455 S
C842 C840 1.363 . S
C842 C843 1.370 . S
C842 C846 1.524 . S
C843 C835 1.503 . S
C843 C842 1.370 . S
C843 C844 1.403 . S
C844 C843 1.403 . S
C844 C845 1.404 . S
C844 C847 1.539 . S
C845 C841 1.408 1_655 S
C845 C844 1.404 . S
C845 H857 0.930 1_655 S
C846 C842 1.524 . S
C846 H858 0.956 . S
C846 H859 0.961 . S
C846 H860 0.961 . S
C847 C844 1.539 . S
C847 H861 0.958 . S
C847 H862 0.961 . S
C847 H863 0.960 . S
H848 C832 0.931 . S
H849 C837 0.929 . S
H850 C838 0.960 . S
H851 C838 0.962 . S
H852 C838 0.960 . S
H853 C839 0.961 . S
H854 C839 0.961 . S
H855 C839 0.961 . S
H856 C840 0.931 . S
H857 C845 0.930 1_455 S
H858 C846 0.956 . S
H859 C846 0.961 . S
H860 C846 0.961 . S
H861 C847 0.958 . S
H862 C847 0.961 . S
H863 C847 0.960 . S
C864 C865 1.391 . S
C864 C866 1.394 . S
C864 H880 0.931 . S
C865 C864 1.391 . S
C865 C869 1.376 . S
C866 C864 1.394 . S
C866 C867 1.369 . S
C866 C870 1.531 . S
C867 C866 1.369 . S
C867 C868 1.410 . S
C867 C875 1.503 . S
C868 C867 1.410 . S
C868 C869 1.392 . S
C868 C871 1.511 . S
C869 C865 1.376 . S
C869 C868 1.392 . S
C869 H881 0.929 . S
C870 C866 1.531 . S
C870 H882 0.960 . S
C870 H883 0.962 . S
C870 H884 0.960 . S
C871 C868 1.511 . S
C871 H885 0.961 . S
C871 H886 0.961 . S
C871 H887 0.961 . S
C872 C873 1.370 . S
C872 C874 1.363 . S
C872 H888 0.931 . S
C873 C872 1.370 . S
C873 C877 1.408 . S
C874 C872 1.363 . S
C874 C875 1.370 . S
C874 C878 1.524 . S
C875 C867 1.503 . S
C875 C874 1.370 . S
C875 C876 1.403 . S
C876 C875 1.403 . S
C876 C877 1.404 . S
C876 C879 1.539 . S
C877 C873 1.408 . S
C877 C876 1.404 . S
C877 H889 0.930 . S
C878 C874 1.524 . S
C878 H890 0.956 . S
C878 H891 0.961 . S
C878 H892 0.961 . S
C879 C876 1.539 . S
C879 H893 0.958 . S
C879 H894 0.961 . S
C879 H895 0.960 . S
H880 C864 0.931 . S
H881 C869 0.929 . S
H882 C870 0.960 . S
H883 C870 0.962 . S
H884 C870 0.960 . S
H885 C871 0.961 . S
H886 C871 0.961 . S
H887 C871 0.961 . S
H888 C872 0.931 . S
H889 C877 0.930 . S
H890 C878 0.956 . S
H891 C878 0.961 . S
H892 C878 0.961 . S
H893 C879 0.958 . S
H894 C879 0.961 . S
H895 C879 0.960 . S
C896 C897 1.391 . S
C896 C898 1.394 . S
C896 H912 0.931 . S
C897 C896 1.391 . S
C897 C901 1.376 . S
C898 C896 1.394 . S
C898 C899 1.369 . S
C898 C902 1.531 . S
C899 C898 1.369 . S
C899 C900 1.410 . S
C899 C907 1.503 . S
C900 C899 1.410 . S
C900 C901 1.392 . S
C900 C903 1.511 . S
C901 C897 1.376 . S
C901 C900 1.392 . S
C901 H913 0.929 . S
C902 C898 1.531 . S
C902 H914 0.960 . S
C902 H915 0.962 . S
C902 H916 0.960 . S
C903 C900 1.511 . S
C903 H917 0.961 . S
C903 H918 0.961 . S
C903 H919 0.961 . S
C904 C905 1.370 1_655 S
C904 C906 1.363 . S
C904 H920 0.931 1_655 S
C905 C904 1.370 1_455 S
C905 C909 1.408 1_455 S
C906 C904 1.363 . S
C906 C907 1.370 . S
C906 C910 1.524 . S
C907 C899 1.503 . S
C907 C906 1.370 . S
C907 C908 1.403 . S
C908 C907 1.403 . S
C908 C909 1.404 . S
C908 C911 1.539 . S
C909 C905 1.408 1_655 S
C909 C908 1.404 . S
C909 H921 0.930 . S
C910 C906 1.524 . S
C910 H922 0.956 . S
C910 H923 0.961 . S
C910 H924 0.961 . S
C911 C908 1.539 . S
C911 H925 0.958 . S
C911 H926 0.961 . S
C911 H927 0.960 . S
H912 C896 0.931 . S
H913 C901 0.929 . S
H914 C902 0.960 . S
H915 C902 0.962 . S
H916 C902 0.960 . S
H917 C903 0.961 . S
H918 C903 0.961 . S
H919 C903 0.961 . S
H920 C904 0.931 1_455 S
H921 C909 0.930 . S
H922 C910 0.956 . S
H923 C910 0.961 . S
H924 C910 0.961 . S
H925 C911 0.958 . S
H926 C911 0.961 . S
H927 C911 0.960 . S
C928 C929 1.391 . S
C928 C930 1.394 . S
C928 H944 0.931 . S
C929 C928 1.391 . S
C929 C933 1.376 . S
C930 C928 1.394 . S
C930 C931 1.369 . S
C930 C934 1.531 . S
C931 C930 1.369 . S
C931 C932 1.410 . S
C931 C939 1.503 . S
C932 C931 1.410 . S
C932 C933 1.392 . S
C932 C935 1.511 . S
C933 C929 1.376 . S
C933 C932 1.392 . S
C933 H945 0.929 . S
C934 C930 1.531 . S
C934 H946 0.960 . S
C934 H947 0.962 . S
C934 H948 0.960 . S
C935 C932 1.511 . S
C935 H949 0.961 . S
C935 H950 0.961 . S
C935 H951 0.961 . S
C936 C937 1.370 . S
C936 C938 1.363 . S
C936 H952 0.931 . S
C937 C936 1.370 . S
C937 C941 1.408 . S
C938 C936 1.363 . S
C938 C939 1.370 . S
C938 C942 1.524 . S
C939 C931 1.503 . S
C939 C938 1.370 . S
C939 C940 1.403 . S
C940 C939 1.403 . S
C940 C941 1.404 . S
C940 C943 1.539 . S
C941 C937 1.408 . S
C941 C940 1.404 . S
C941 H953 0.930 . S
C942 C938 1.524 . S
C942 H954 0.956 . S
C942 H955 0.961 . S
C942 H956 0.961 . S
C943 C940 1.539 . S
C943 H957 0.958 . S
C943 H958 0.961 . S
C943 H959 0.960 . S
H944 C928 0.931 . S
H945 C933 0.929 . S
H946 C934 0.960 . S
H947 C934 0.962 . S
H948 C934 0.960 . S
H949 C935 0.961 . S
H950 C935 0.961 . S
H951 C935 0.961 . S
H952 C936 0.931 . S
H953 C941 0.930 . S
H954 C942 0.956 . S
H955 C942 0.961 . S
H956 C942 0.961 . S
H957 C943 0.958 . S
H958 C943 0.961 . S
H959 C943 0.960 . S
C960 C961 1.391 . S
C960 C962 1.394 . S
C960 H976 0.931 . S
C961 C960 1.391 . S
C961 C965 1.376 . S
C962 C960 1.394 . S
C962 C963 1.369 . S
C962 C966 1.531 . S
C963 C962 1.369 . S
C963 C964 1.410 . S
C963 C971 1.503 . S
C964 C963 1.410 . S
C964 C965 1.392 . S
C964 C967 1.511 . S
C965 C961 1.376 . S
C965 C964 1.392 . S
C965 H977 0.929 . S
C966 C962 1.531 . S
C966 H978 0.960 . S
C966 H979 0.962 . S
C966 H980 0.960 . S
C967 C964 1.511 . S
C967 H981 0.961 . S
C967 H982 0.961 . S
C967 H983 0.961 . S
C968 C969 1.370 1_455 S
C968 C970 1.363 . S
C968 H984 0.931 . S
C969 C968 1.370 1_655 S
C969 C973 1.408 . S
C970 C968 1.363 . S
C970 C971 1.370 . S
C970 C974 1.524 . S
C971 C963 1.503 . S
C971 C970 1.370 . S
C971 C972 1.403 . S
C972 C971 1.403 . S
C972 C973 1.404 1_455 S
C972 C975 1.539 . S
C973 C969 1.408 . S
C973 C972 1.404 1_655 S
C973 H985 0.930 . S
C974 C970 1.524 . S
C974 H986 0.956 . S
C974 H987 0.961 . S
C974 H988 0.961 . S
C975 C972 1.539 . S
C975 H989 0.958 . S
C975 H990 0.961 . S
C975 H991 0.960 . S
H976 C960 0.931 . S
H977 C965 0.929 . S
H978 C966 0.960 . S
H979 C966 0.962 . S
H980 C966 0.960 . S
H981 C967 0.961 . S
H982 C967 0.961 . S
H983 C967 0.961 . S
H984 C968 0.931 . S
H985 C973 0.930 . S
H986 C974 0.956 . S
H987 C974 0.961 . S
H988 C974 0.961 . S
H989 C975 0.958 . S
H990 C975 0.961 . S
H991 C975 0.960 . S
C992 C993 1.391 . S
C992 C994 1.394 . S
C992 H1008 0.931 . S
C993 C992 1.391 . S
C993 C997 1.376 . S
C994 C992 1.394 . S
C994 C995 1.369 . S
C994 C998 1.531 . S
C995 C994 1.369 . S
C995 C996 1.410 . S
C995 C1003 1.503 . S
C996 C995 1.410 . S
C996 C997 1.392 . S
C996 C999 1.511 . S
C997 C993 1.376 . S
C997 C996 1.392 . S
C997 H1009 0.929 . S
C998 C994 1.531 . S
C998 H1010 0.960 . S
C998 H1011 0.962 . S
C998 H1012 0.960 . S
C999 C996 1.511 . S
C999 H1013 0.961 . S
C999 H1014 0.961 . S
C999 H1015 0.961 . S
C1000 C1001 1.370 . S
C1000 C1002 1.363 . S
C1000 H1016 0.931 . S
C1001 C1000 1.370 . S
C1001 C1005 1.408 . S
C1002 C1000 1.363 . S
C1002 C1003 1.370 . S
C1002 C1006 1.524 . S
C1003 C995 1.503 . S
C1003 C1002 1.370 . S
C1003 C1004 1.403 . S
C1004 C1003 1.403 . S
C1004 C1005 1.404 . S
C1004 C1007 1.539 . S
C1005 C1001 1.408 . S
C1005 C1004 1.404 . S
C1005 H1017 0.930 . S
C1006 C1002 1.524 . S
C1006 H1018 0.956 . S
C1006 H1019 0.961 . S
C1006 H1020 0.961 . S
C1007 C1004 1.539 . S
C1007 H1021 0.958 . S
C1007 H1022 0.961 . S
C1007 H1023 0.960 . S
H1008 C992 0.931 . S
H1009 C997 0.929 . S
H1010 C998 0.960 . S
H1011 C998 0.962 . S
H1012 C998 0.960 . S
H1013 C999 0.961 . S
H1014 C999 0.961 . S
H1015 C999 0.961 . S
H1016 C1000 0.931 . S
H1017 C1005 0.930 . S
H1018 C1006 0.956 . S
H1019 C1006 0.961 . S
H1020 C1006 0.961 . S
H1021 C1007 0.958 . S
H1022 C1007 0.961 . S
H1023 C1007 0.960 . S
C1024 C1025 1.391 . S
C1024 C1026 1.394 . S
C1024 H1040 0.931 . S
C1025 C1024 1.391 . S
C1025 C1029 1.376 . S
C1026 C1024 1.394 . S
C1026 C1027 1.369 . S
C1026 C1030 1.531 . S
C1027 C1026 1.369 . S
C1027 C1028 1.410 . S
C1027 C1035 1.503 . S
C1028 C1027 1.410 . S
C1028 C1029 1.392 . S
C1028 C1031 1.511 . S
C1029 C1025 1.376 . S
C1029 C1028 1.392 . S
C1029 H1041 0.929 . S
C1030 C1026 1.531 . S
C1030 H1042 0.960 . S
C1030 H1043 0.962 . S
C1030 H1044 0.960 . S
C1031 C1028 1.511 . S
C1031 H1045 0.961 . S
C1031 H1046 0.961 . S
C1031 H1047 0.961 . S
C1032 C1033 1.370 . S
C1032 C1034 1.363 . S
C1032 H1048 0.931 . S
C1033 C1032 1.370 . S
C1033 C1037 1.408 . S
C1034 C1032 1.363 . S
C1034 C1035 1.370 . S
C1034 C1038 1.524 . S
C1035 C1027 1.503 . S
C1035 C1034 1.370 . S
C1035 C1036 1.403 . S
C1036 C1035 1.403 . S
C1036 C1037 1.404 . S
C1036 C1039 1.539 . S
C1037 C1033 1.408 . S
C1037 C1036 1.404 . S
C1037 H1049 0.930 . S
C1038 C1034 1.524 . S
C1038 H1050 0.956 . S
C1038 H1051 0.961 . S
C1038 H1052 0.961 . S
C1039 C1036 1.539 . S
C1039 H1053 0.958 . S
C1039 H1054 0.961 . S
C1039 H1055 0.960 . S
H1040 C1024 0.931 . S
H1041 C1029 0.929 . S
H1042 C1030 0.960 . S
H1043 C1030 0.962 . S
H1044 C1030 0.960 . S
H1045 C1031 0.961 . S
H1046 C1031 0.961 . S
H1047 C1031 0.961 . S
H1048 C1032 0.931 . S
H1049 C1037 0.930 . S
H1050 C1038 0.956 . S
H1051 C1038 0.961 . S
H1052 C1038 0.961 . S
H1053 C1039 0.958 . S
H1054 C1039 0.961 . S
H1055 C1039 0.960 . S
C1056 C1057 1.391 . S
C1056 C1058 1.394 . S
C1056 H1072 0.931 . S
C1057 C1056 1.391 . S
C1057 C1061 1.376 . S
C1058 C1056 1.394 . S
C1058 C1059 1.369 . S
C1058 C1062 1.531 . S
C1059 C1058 1.369 . S
C1059 C1060 1.410 . S
C1059 C1067 1.503 . S
C1060 C1059 1.410 . S
C1060 C1061 1.392 . S
C1060 C1063 1.511 . S
C1061 C1057 1.376 . S
C1061 C1060 1.392 . S
C1061 H1073 0.929 . S
C1062 C1058 1.531 . S
C1062 H1074 0.960 . S
C1062 H1075 0.962 . S
C1062 H1076 0.960 . S
C1063 C1060 1.511 . S
C1063 H1077 0.961 . S
C1063 H1078 0.961 . S
C1063 H1079 0.961 . S
C1064 C1065 1.370 . S
C1064 C1066 1.363 . S
C1064 H1080 0.931 . S
C1065 C1064 1.370 . S
C1065 C1069 1.408 . S
C1066 C1064 1.363 . S
C1066 C1067 1.370 . S
C1066 C1070 1.524 . S
C1067 C1059 1.503 . S
C1067 C1066 1.370 . S
C1067 C1068 1.403 . S
C1068 C1067 1.403 . S
C1068 C1069 1.404 . S
C1068 C1071 1.539 . S
C1069 C1065 1.408 . S
C1069 C1068 1.404 . S
C1069 H1081 0.930 . S
C1070 C1066 1.524 . S
C1070 H1082 0.956 . S
C1070 H1083 0.961 . S
C1070 H1084 0.961 . S
C1071 C1068 1.539 . S
C1071 H1085 0.958 . S
C1071 H1086 0.961 . S
C1071 H1087 0.960 . S
H1072 C1056 0.931 . S
H1073 C1061 0.929 . S
H1074 C1062 0.960 . S
H1075 C1062 0.962 . S
H1076 C1062 0.960 . S
H1077 C1063 0.961 . S
H1078 C1063 0.961 . S
H1079 C1063 0.961 . S
H1080 C1064 0.931 . S
H1081 C1069 0.930 . S
H1082 C1070 0.956 . S
H1083 C1070 0.961 . S
H1084 C1070 0.961 . S
H1085 C1071 0.958 . S
H1086 C1071 0.961 . S
H1087 C1071 0.960 . S
C1088 C1089 1.391 . S
C1088 C1090 1.394 . S
C1088 H1104 0.931 . S
C1089 C1088 1.391 . S
C1089 C1093 1.376 . S
C1090 C1088 1.394 . S
C1090 C1091 1.369 . S
C1090 C1094 1.531 . S
C1091 C1090 1.369 . S
C1091 C1092 1.410 . S
C1091 C1099 1.503 . S
C1092 C1091 1.410 . S
C1092 C1093 1.392 . S
C1092 C1095 1.511 . S
C1093 C1089 1.376 . S
C1093 C1092 1.392 . S
C1093 H1105 0.929 . S
C1094 C1090 1.531 . S
C1094 H1106 0.960 . S
C1094 H1107 0.962 . S
C1094 H1108 0.960 . S
C1095 C1092 1.511 . S
C1095 H1109 0.961 . S
C1095 H1110 0.961 . S
C1095 H1111 0.961 . S
C1096 C1097 1.370 . S
C1096 C1098 1.363 . S
C1096 H1112 0.931 . S
C1097 C1096 1.370 . S
C1097 C1101 1.408 . S
C1098 C1096 1.363 . S
C1098 C1099 1.370 . S
C1098 C1102 1.524 . S
C1099 C1091 1.503 . S
C1099 C1098 1.370 . S
C1099 C1100 1.403 . S
C1100 C1099 1.403 . S
C1100 C1101 1.404 . S
C1100 C1103 1.539 . S
C1101 C1097 1.408 . S
C1101 C1100 1.404 . S
C1101 H1113 0.930 . S
C1102 C1098 1.524 . S
C1102 H1114 0.956 . S
C1102 H1115 0.961 . S
C1102 H1116 0.961 . S
C1103 C1100 1.539 . S
C1103 H1117 0.958 . S
C1103 H1118 0.961 . S
C1103 H1119 0.960 . S
H1104 C1088 0.931 . S
H1105 C1093 0.929 . S
H1106 C1094 0.960 . S
H1107 C1094 0.962 . S
H1108 C1094 0.960 . S
H1109 C1095 0.961 . S
H1110 C1095 0.961 . S
H1111 C1095 0.961 . S
H1112 C1096 0.931 . S
H1113 C1101 0.930 . S
H1114 C1102 0.956 . S
H1115 C1102 0.961 . S
H1116 C1102 0.961 . S
H1117 C1103 0.958 . S
H1118 C1103 0.961 . S
H1119 C1103 0.960 . S
C1120 C1121 1.391 . S
C1120 C1122 1.394 . S
C1120 H1136 0.931 . S
C1121 C1120 1.391 . S
C1121 C1125 1.376 . S
C1122 C1120 1.394 . S
C1122 C1123 1.369 . S
C1122 C1126 1.531 1_554 S
C1123 C1122 1.369 . S
C1123 C1124 1.410 1_545 S
C1123 C1131 1.503 1_544 S
C1124 C1123 1.410 1_565 S
C1124 C1125 1.392 1_565 S
C1124 C1127 1.511 . S
C1125 C1121 1.376 . S
C1125 C1124 1.392 1_545 S
C1125 H1137 0.929 1_545 S
C1126 C1122 1.531 1_556 S
C1126 H1138 0.960 . S
C1126 H1139 0.962 . S
C1126 H1140 0.960 1_556 S
C1127 C1124 1.511 . S
C1127 H1141 0.961 . S
C1127 H1142 0.961 . S
C1127 H1143 0.961 . S
C1128 C1129 1.370 . S
C1128 C1130 1.363 . S
C1128 H1144 0.931 . S
C1129 C1128 1.370 . S
C1129 C1133 1.408 . S
C1130 C1128 1.363 . S
C1130 C1131 1.370 . S
C1130 C1134 1.523 1_556 S
C1131 C1123 1.503 1_566 S
C1131 C1130 1.370 . S
C1131 C1132 1.403 1_565 S
C1132 C1131 1.403 1_545 S
C1132 C1133 1.404 1_545 S
C1132 C1135 1.539 . S
C1133 C1129 1.408 . S
C1133 C1132 1.404 1_565 S
C1133 H1145 0.930 1_565 S
C1134 C1130 1.523 1_554 S
C1134 H1146 0.956 . S
C1134 H1147 0.962 . S
C1134 H1148 0.960 1_554 S
C1135 C1132 1.539 . S
C1135 H1149 0.958 . S
C1135 H1150 0.961 . S
C1135 H1151 0.960 . S
H1136 C1120 0.931 . S
H1137 C1125 0.929 1_565 S
H1138 C1126 0.960 . S
H1139 C1126 0.962 . S
H1140 C1126 0.960 1_554 S
H1141 C1127 0.961 . S
H1142 C1127 0.961 . S
H1143 C1127 0.961 . S
H1144 C1128 0.931 . S
H1145 C1133 0.930 1_545 S
H1146 C1134 0.956 . S
H1147 C1134 0.962 . S
H1148 C1134 0.960 1_556 S
H1149 C1135 0.958 . S
H1150 C1135 0.961 . S
H1151 C1135 0.960 . S
C1152 C1153 1.391 . S
C1152 C1154 1.394 1_455 S
C1152 H1168 0.931 . S
C1153 C1152 1.391 . S
C1153 C1157 1.376 . S
C1154 C1152 1.394 1_655 S
C1154 C1155 1.369 1_655 S
C1154 C1158 1.531 . S
C1155 C1154 1.369 1_455 S
C1155 C1156 1.410 . S
C1155 C1163 1.503 1_456 S
C1156 C1155 1.410 . S
C1156 C1157 1.392 . S
C1156 C1159 1.511 1_556 S
C1157 C1153 1.376 . S
C1157 C1156 1.392 . S
C1157 H1169 0.929 . S
C1158 C1154 1.531 . S
C1158 H1170 0.960 . S
C1158 H1171 0.962 . S
C1158 H1172 0.960 . S
C1159 C1156 1.511 1_554 S
C1159 H1173 0.961 . S
C1159 H1174 0.961 . S
C1159 H1175 0.961 . S
C1160 C1161 1.370 . S
C1160 C1162 1.363 . S
C1160 H1176 0.931 . S
C1161 C1160 1.370 . S
C1161 C1165 1.408 . S
C1162 C1160 1.363 . S
C1162 C1163 1.370 . S
C1162 C1166 1.524 1_554 S
C1163 C1155 1.503 1_654 S
C1163 C1162 1.370 . S
C1163 C1164 1.405 . S
C1164 C1163 1.405 . S
C1164 C1165 1.410 . S
C1164 C1167 1.530 1_655 S
C1165 C1161 1.408 . S
C1165 C1164 1.410 . S
C1165 H1177 0.930 . S
C1166 C1162 1.524 1_556 S
C1166 H1178 0.956 . S
C1166 H1179 0.961 . S
C1166 H1180 0.961 1_556 S
C1167 C1164 1.530 1_455 S
C1167 H1181 0.958 . S
C1167 H1182 0.961 . S
C1167 H1183 0.960 . S
H1168 C1152 0.931 . S
H1169 C1157 0.929 . S
H1170 C1158 0.960 . S
H1171 C1158 0.962 . S
H1172 C1158 0.960 . S
H1173 C1159 0.961 . S
H1174 C1159 0.961 . S
H1175 C1159 0.961 . S
H1176 C1160 0.931 . S
H1177 C1165 0.930 . S
H1178 C1166 0.956 . S
H1179 C1166 0.961 . S
H1180 C1166 0.961 1_554 S
H1181 C1167 0.958 . S
H1182 C1167 0.961 . S
H1183 C1167 0.960 . S
C1184 C1185 1.391 . S
C1184 C1186 1.394 1_545 S
C1184 H1200 0.931 . S
C1185 C1184 1.391 . S
C1185 C1189 1.376 . S
C1186 C1184 1.394 1_565 S
C1186 C1187 1.372 . S
C1186 C1190 1.531 . S
C1187 C1186 1.372 . S
C1187 C1188 1.400 1_565 S
C1187 C1195 1.509 1_556 S
C1188 C1187 1.400 1_545 S
C1188 C1189 1.392 . S
C1188 C1191 1.511 . S
C1189 C1185 1.376 . S
C1189 C1188 1.392 . S
C1189 H1201 0.929 . S
C1190 C1186 1.531 . S
C1190 H1202 0.960 . S
C1190 H1203 0.962 . S
C1190 H1204 0.960 . S
C1191 C1188 1.511 . S
C1191 H1205 0.961 . S
C1191 H1206 0.961 1_556 S
C1191 H1207 0.961 . S
C1192 C1193 1.381 . S
C1192 C1194 1.360 1_565 S
C1192 H1208 0.924 1_565 S
C1193 C1192 1.381 . S
C1193 C1197 1.408 . S
C1194 C1192 1.360 1_545 S
C1194 C1195 1.370 1_545 S
C1194 C1198 1.524 . S
C1195 C1187 1.509 1_554 S
C1195 C1194 1.370 1_565 S
C1195 C1196 1.403 . S
C1196 C1195 1.403 . S
C1196 C1197 1.404 . S
C1196 C1199 1.527 1_554 S
C1197 C1193 1.408 . S
C1197 C1196 1.404 . S
C1197 H1209 0.930 . S
C1198 C1194 1.524 . S
C1198 H1210 0.956 . S
C1198 H1211 0.961 . S
C1198 H1212 0.961 . S
C1199 C1196 1.527 1_556 S
C1199 H1213 0.965 . S
C1199 H1214 0.953 1_556 S
C1199 H1215 0.973 . S
H1200 C1184 0.931 . S
H1201 C1189 0.929 . S
H1202 C1190 0.960 . S
H1203 C1190 0.962 . S
H1204 C1190 0.960 . S
H1205 C1191 0.961 . S
H1206 C1191 0.961 1_554 S
H1207 C1191 0.961 . S
H1208 C1192 0.924 1_545 S
H1209 C1197 0.930 . S
H1210 C1198 0.956 . S
H1211 C1198 0.961 . S
H1212 C1198 0.961 . S
H1213 C1199 0.965 . S
H1214 C1199 0.953 1_554 S
H1215 C1199 0.973 . S
C1216 C1217 1.391 . S
C1216 C1218 1.394 . S
C1216 H1232 0.931 . S
C1217 C1216 1.391 . S
C1217 C1221 1.376 . S
C1218 C1216 1.394 . S
C1218 C1219 1.369 . S
C1218 C1222 1.531 1_556 S
C1219 C1218 1.369 . S
C1219 C1220 1.410 1_655 S
C1219 C1227 1.503 1_656 S
C1220 C1219 1.410 1_455 S
C1220 C1221 1.392 1_455 S
C1220 C1223 1.511 . S
C1221 C1217 1.376 . S
C1221 C1220 1.392 1_655 S
C1221 H1233 0.918 1_655 S
C1222 C1218 1.531 1_554 S
C1222 H1234 0.960 . S
C1222 H1235 0.962 . S
C1222 H1236 0.960 1_554 S
C1223 C1220 1.511 . S
C1223 H1237 0.961 . S
C1223 H1238 0.961 . S
C1223 H1239 0.961 . S
C1224 C1225 1.370 . S
C1224 C1226 1.363 . S
C1224 H1240 0.931 . S
C1225 C1224 1.370 . S
C1225 C1229 1.408 . S
C1226 C1224 1.363 . S
C1226 C1227 1.370 . S
C1226 C1230 1.524 1_455 S
C1227 C1219 1.503 1_454 S
C1227 C1226 1.370 . S
C1227 C1228 1.403 . S
C1228 C1227 1.403 . S
C1228 C1229 1.404 . S
C1228 C1231 1.552 . S
C1229 C1225 1.408 . S
C1229 C1228 1.404 . S
C1229 H1241 0.930 . S
C1230 C1226 1.524 1_655 S
C1230 H1242 0.956 . S
C1230 H1243 0.961 . S
C1230 H1244 0.961 . S
C1231 C1228 1.552 . S
C1231 H1245 0.961 . S
C1231 H1246 0.965 . S
C1231 H1247 0.940 1_554 S
H1232 C1216 0.931 . S
H1233 C1221 0.918 1_455 S
H1234 C1222 0.960 . S
H1235 C1222 0.962 . S
H1236 C1222 0.960 1_556 S
H1237 C1223 0.961 . S
H1238 C1223 0.961 . S
H1239 C1223 0.961 . S
H1240 C1224 0.931 . S
H1241 C1229 0.930 . S
H1242 C1230 0.956 . S
H1243 C1230 0.961 . S
H1244 C1230 0.961 . S
H1245 C1231 0.961 . S
H1246 C1231 0.965 . S
H1247 C1231 0.940 1_556 S
C225 C11 1.346 . S
C233 C103 1.288 . S
C257 C19 1.250 . S
C265 C67 1.310 . S
C289 C75 1.242 . S
C297 C39 1.308 . S
C321 C47 1.222 . S
C329 C95 1.307 . S
C353 C123 1.293 . S
C361 C215 1.262 . S
C385 C179 1.333 . S
C393 C131 1.286 . S
C417 C187 1.299 . S
C425 C151 1.324 . S
C449 C207 1.330 . S
C457 C159 1.274 . S
C481 C4 1.233 . S
C489 C158 1.248 . S
C513 C26 1.059 . S
C521 C117 0.884 . S
C545 C130 1.247 . S
C553 C32 1.265 . S
C577 C54 1.069 . S
C585 C145 0.881 . S
C609 C60 1.276 . S
C617 C186 1.223 . S
C641 C201 0.943 . S
C649 C82 1.019 . S
C673 C88 1.262 . S
C681 C214 1.223 . S
C705 C173 0.967 . S
C713 C110 0.997 . S
C737 C116 1.237 1_545 S
C745 C46 1.235 . S
C769 C5 0.944 . S
C777 C138 1.019 . S
C801 C144 1.235 1_565 S
C809 C18 1.250 . S
C833 C33 0.998 . S
C841 C166 0.999 . S
C865 C172 1.276 1_565 S
C873 C74 1.224 . S
C897 C89 0.825 . S
C905 C194 1.040 . S
C929 C102 1.266 . S
C937 C200 1.258 1_545 S
C961 C61 1.007 . S
C969 C222 0.994 . S
C993 C68 1.411 . S
C1001 C12 1.417 . S
C1025 C81 1.695 . S
C1033 C25 1.694 . S
C1057 C40 1.415 . S
C1065 C96 1.413 . S
C1089 C109 1.692 . S
C1097 C53 1.679 . S
C1121 C180 1.411 . S
C1129 C124 1.413 . S
C1153 C193 1.706 . S
C1161 C137 1.687 . S
C1185 C152 1.409 . S
C1193 C208 1.417 . S
C1217 C221 1.662 . S
C1225 C165 1.690 . S
