# Generated by pormake.
# Topology bcg, (8)-cn, num edge types: 1
# Building blocks:
#     Node 0, Type 0, BuildingBlock: XADDAJ01_clean_sbu_3, # of connection points: 8
#     Node 1, Type 0, BuildingBlock: XADDAJ01_clean_sbu_3, # of connection points: 8
#     Node 2, Type 0, BuildingBlock: XADDAJ01_clean_sbu_3, # of connection points: 8
#     Node 3, Type 0, BuildingBlock: XADDAJ01_clean_sbu_3, # of connection points: 8
#     Edge 4, Type (0, 0), BuildingBlock: CIFDUS_clean_linker_0, # of connection points: 2
#     Edge 5, Type (0, 0), BuildingBlock: CIFDUS_clean_linker_0, # of connection points: 2
#     Edge 6, Type (0, 0), BuildingBlock: CIFDUS_clean_linker_0, # of connection points: 2
#     Edge 7, Type (0, 0), BuildingBlock: CIFDUS_clean_linker_0, # of connection points: 2
#     Edge 8, Type (0, 0), BuildingBlock: CIFDUS_clean_linker_0, # of connection points: 2
#     Edge 9, Type (0, 0), BuildingBlock: CIFDUS_clean_linker_0, # of connection points: 2
#     Edge 10, Type (0, 0), BuildingBlock: CIFDUS_clean_linker_0, # of connection points: 2
#     Edge 11, Type (0, 0), BuildingBlock: CIFDUS_clean_linker_0, # of connection points: 2
#     Edge 12, Type (0, 0), BuildingBlock: CIFDUS_clean_linker_0, # of connection points: 2
#     Edge 13, Type (0, 0), BuildingBlock: CIFDUS_clean_linker_0, # of connection points: 2
#     Edge 14, Type (0, 0), BuildingBlock: CIFDUS_clean_linker_0, # of connection points: 2
#     Edge 15, Type (0, 0), BuildingBlock: CIFDUS_clean_linker_0, # of connection points: 2
#     Edge 16, Type (0, 0), BuildingBlock: CIFDUS_clean_linker_0, # of connection points: 2
#     Edge 17, Type (0, 0), BuildingBlock: CIFDUS_clean_linker_0, # of connection points: 2
#     Edge 18, Type (0, 0), BuildingBlock: CIFDUS_clean_linker_0, # of connection points: 2
#     Edge 19, Type (0, 0), BuildingBlock: CIFDUS_clean_linker_0, # of connection points: 2
# Relax obj value: 0.176
# Max RMSD: 0.250
# Mean RMSD: 0.250
data_MOF--net-bcg--node1-XADDAJ01_clean_sbu_3--edge1-CIFDUS_clean_linker_0
_symmetry_space_group_name_H-M    P1
_symmetry_Int_Tables_number       1
_symmetry_cell_setting            triclinic
loop_
_symmetry_equiv_pos_as_xyz
'x, y, z'
_cell_length_a     19.856018
_cell_length_b     14.152581
_cell_length_c     29.928992
_cell_angle_alpha  79.900866
_cell_angle_beta   90.358583
_cell_angle_gamma 91.594709
loop_
_atom_site_label
_atom_site_type_symbol
_atom_site_fract_x
_atom_site_fract_y
_atom_site_fract_z
_atom_type_partial_charge
C0 C 0.06331 0.3915 0.06427 0.0
C1 C 1.00991 0.36138 0.03877 0.0
C2 C 0.94894 0.32723 0.05979 0.0
C3 C 0.94211 0.32466 0.10651 0.0
C4 C 0.99267 0.36124 0.1323 0.0
C5 C 0.05414 0.39328 0.11079 0.0
O6 O 0.22262 0.22571 0.98757 0.0
Tb7 Tb 0.20569 0.37979 0.98304 0.0
Tb8 Tb 0.35166 0.1587 0.03906 0.0
O9 O 0.17058 0.41434 0.91267 0.0
O10 O 0.2475 0.10345 0.04399 0.0
O11 O 0.12891 0.46509 1.00051 0.0
C12 C 0.41082 0.12292 0.97042 0.0
O13 O 0.17635 0.35717 0.05132 0.0
O14 O 0.3195 0.30528 0.02961 0.0
O15 O 0.30568 0.44554 0.98602 0.0
C16 C 0.12909 0.42092 0.04303 0.0
C17 C 0.40512 0.20608 0.12894 0.0
O18 O 0.36016 0.27285 0.11884 0.0
C19 C 0.20116 0.15576 0.01993 0.0
C20 C 0.3481 0.38511 0.00825 0.0
O21 O 0.41273 0.14486 0.101 0.0
C22 C 0.47909 0.13442 0.95145 0.0
C23 C 0.55106 0.1719 0.88476 0.0
C24 C 0.48709 0.14966 0.90393 0.0
C25 C 0.53496 0.14437 0.97958 0.0
C26 C 0.59903 0.1669 0.96045 0.0
C27 C 0.60666 0.17355 0.91353 0.0
C28 C 0.14813 0.34716 0.89046 0.0
O29 O 0.14526 0.25743 0.91101 0.0
O30 O 0.40106 0.05872 0.00758 0.0
O31 O 0.38135 0.20409 0.97176 0.0
H32 H 1.01597 0.36426 1.00266 0.0
H33 H 0.89563 0.2963 0.12268 0.0
H34 H 0.09458 0.42092 0.12971 0.0
H35 H 0.44342 0.1488 0.88206 0.0
H36 H 0.52778 0.13897 0.0158 0.0
H37 H 0.65653 0.18492 0.89867 0.0
C38 C 0.56482 0.86302 0.07752 0.0
C39 C 0.5048 0.8505 0.05378 0.0
C40 C 0.44243 0.83669 0.07704 0.0
C41 C 0.44227 0.83535 0.12434 0.0
C42 C 0.50152 0.85168 0.14794 0.0
C43 C 0.56254 0.86534 0.12406 0.0
O44 O 0.74379 0.70281 0.99843 0.0
Tb45 Tb 0.70195 0.8443 0.99039 0.0
Tb46 Tb 0.86302 0.63598 0.02893 0.0
O47 O 0.65022 0.85688 0.92565 0.0
O48 O 0.76872 0.55433 0.02439 0.0
O49 O 0.64086 0.9361 0.01875 0.0
C50 C 0.94137 0.62177 0.96555 0.0
O51 O 0.66335 0.79204 0.0553 0.0
O52 O 0.83435 0.78103 0.03684 0.0
O53 O 0.80204 0.91457 0.99023 0.0
C54 C 0.63172 0.87209 0.05591 0.0
C55 C 0.85391 0.61005 0.12866 0.0
O56 O 0.79103 0.62093 0.11518 0.0
C57 C 0.72102 0.61409 0.00992 0.0
C58 C 0.85155 0.86262 0.01059 0.0
O59 O 0.90034 0.60882 0.09775 0.0
C60 C 1.00323 0.65058 0.93912 0.0
C61 C 0.05879 0.6699 0.86533 0.0
C62 C 1.00084 0.65004 0.89234 0.0
C63 C 0.06444 0.67136 0.95945 0.0
C64 C 0.1234 0.69313 0.93304 0.0
C65 C 0.1195 0.69299 0.8859 0.0
C66 C 0.6702 0.80439 0.89643 0.0
O67 O 0.72249 0.74984 0.90657 0.0
O68 O 0.94666 0.57058 1.00666 0.0
O69 O 0.89194 0.68285 0.96129 0.0
H70 H 0.50719 0.85197 0.01753 0.0
H71 H 0.3961 0.81905 0.14348 0.0
H72 H 0.60885 0.8783 0.14169 0.0
H73 H 0.95344 0.63288 0.877 0.0
H74 H 0.06614 0.66795 0.99588 0.0
H75 H 0.16405 0.70948 0.86506 0.0
C76 C 0.06397 0.59578 0.44689 0.0
C77 C 1.01258 0.62789 0.4719 0.0
C78 C 0.95039 0.6529 0.45158 0.0
C79 C 0.94085 0.64851 0.40557 0.0
C80 C 0.99104 0.614 0.38004 0.0
C81 C 0.05263 0.58688 0.40145 0.0
O82 O 0.22919 0.80697 0.4778 0.0
Tb83 Tb 0.20412 0.66727 0.515 0.0
Tb84 Tb 0.35812 0.87788 0.49373 0.0
O85 O 0.15528 0.71258 0.57266 0.0
O86 O 0.26132 0.94048 0.50119 0.0
O87 O 0.13542 0.55407 0.51087 0.0
C88 C 0.44113 0.90664 0.55314 0.0
O89 O 0.1771 0.64515 0.44998 0.0
O90 O 0.35608 0.72773 0.48381 0.0
O91 O 0.30237 0.6096 0.53381 0.0
C92 C 0.13152 0.5796 0.4665 0.0
C93 C 0.43971 0.91062 0.4054 0.0
O94 O 0.48598 0.86697 0.43224 0.0
C95 C 0.21179 0.88421 0.49249 0.0
C96 C 0.3589 0.65245 0.51675 0.0
O97 O 0.38326 0.93304 0.42321 0.0
C98 C 0.50546 0.86908 0.57224 0.0
C99 C 0.57454 0.81377 0.63888 0.0
C100 C 0.51305 0.84714 0.61969 0.0
C101 C 0.55892 0.8542 0.54391 0.0
C102 C 0.62077 0.8219 0.56267 0.0
C103 C 0.62862 0.80659 0.60993 0.0
C104 C 0.12134 0.65264 0.6037 0.0
O105 O 0.11008 0.56377 0.59788 0.0
O106 O 0.44216 0.95536 0.51133 0.0
O107 O 0.38835 0.84801 0.56169 0.0
H108 H 1.02131 0.63516 0.50695 0.0
H109 H 0.89343 0.67149 0.38998 0.0
H110 H 0.09236 0.55976 0.38296 0.0
H111 H 0.47087 0.85509 0.64142 0.0
H112 H 0.55217 0.86674 0.50751 0.0
H113 H 0.6777 0.7886 0.62446 0.0
C114 C 0.58657 0.1582 0.45347 0.0
C115 C 0.53103 0.17121 0.48084 0.0
C116 C 0.46682 0.18973 0.46147 0.0
C117 C 0.45943 0.19355 0.41452 0.0
C118 C 0.51479 0.18911 0.38618 0.0
C119 C 0.57834 0.16874 0.40598 0.0
O120 O 0.71416 0.32595 0.54543 0.0
Tb121 Tb 0.719 0.17567 0.54038 0.0
Tb122 Tb 0.84623 0.32162 0.48163 0.0
O123 O 0.65821 0.14621 0.60126 0.0
O124 O 0.75199 0.39911 0.47579 0.0
O125 O 0.65352 0.08053 0.51448 0.0
C126 C 0.92648 0.37239 0.53843 0.0
O127 O 0.69825 0.20683 0.47045 0.0
O128 O 0.85147 0.16829 0.48212 0.0
O129 O 0.81657 0.11133 0.55406 0.0
C130 C 0.65354 0.13539 0.47405 0.0
C131 C 0.84036 0.34198 0.38057 0.0
O132 O 0.77739 0.31968 0.39205 0.0
C133 C 0.70984 0.39418 0.50993 0.0
C134 C 0.85837 0.10893 0.52062 0.0
O135 O 0.88389 0.35129 0.41274 0.0
C136 C 0.99073 0.34641 0.56233 0.0
C137 C 0.05639 0.33265 0.63233 0.0
C138 C 0.99501 0.34842 0.609 0.0
C139 C 0.04844 0.32552 0.53915 0.0
C140 C 0.11082 0.31003 0.56193 0.0
C141 C 0.11396 0.31484 0.6085 0.0
C142 C 0.67784 0.18701 0.63543 0.0
O143 O 0.7357 0.23512 0.63236 0.0
O144 O 0.92944 0.40639 0.49456 0.0
O145 O 0.87371 0.31498 0.55 0.0
H146 H 0.53827 0.16804 0.51697 0.0
H147 H 0.40992 0.20234 0.39918 0.0
H148 H 0.62143 0.1636 0.38457 0.0
H149 H 0.95075 0.36452 0.62705 0.0
H150 H 0.0446 0.32179 0.5034 0.0
H151 H 0.16145 0.30526 0.62651 0.0
H152 H 0.69572 0.30458 0.9351 0.0
H153 H 0.63307 0.08931 0.04886 0.0
H154 H 0.74036 0.11063 0.08669 0.0
H155 H 0.85347 0.1849 0.08533 0.0
H156 H 0.91042 0.41103 0.97415 0.0
H157 H 0.8053 0.38494 0.93562 0.0
C158 C 0.70584 0.26054 0.96779 0.0
C159 C 0.65831 0.18998 0.98757 0.0
C160 C 0.76707 0.27373 0.98927 0.0
C161 C 0.67015 0.13995 0.03161 0.0
C162 C 0.73147 0.15235 0.05331 0.0
C163 C 0.84274 0.22977 0.05299 0.0
C164 C 0.88974 0.30137 0.03329 0.0
C165 C 0.78076 0.21766 0.03194 0.0
C166 C 0.87575 0.3554 0.99035 0.0
C167 C 0.81511 0.34142 0.96846 0.0
H168 H 0.14501 0.78338 1.00586 0.0
H169 H 0.25153 0.65038 0.90885 0.0
H170 H 0.35833 0.69248 0.94119 0.0
H171 H 0.42155 0.75439 1.00124 0.0
H172 H 0.31434 0.8852 0.09853 0.0
H173 H 0.20832 0.84212 0.06619 0.0
C174 C 0.19122 0.76104 0.99237 0.0
C175 C 0.18917 0.71425 0.95453 0.0
C176 C 0.25289 0.78116 0.01251 0.0
C177 C 0.25059 0.68863 0.93712 0.0
C178 C 0.31214 0.71107 0.9562 0.0
C179 C 0.3755 0.77632 0.01467 0.0
C180 C 0.37739 0.82129 0.05312 0.0
C181 C 0.31391 0.75655 0.9942 0.0
C182 C 0.31581 0.84778 0.06999 0.0
C183 C 0.25453 0.82574 0.05068 0.0
H184 H 0.70859 0.67756 0.58217 0.0
H185 H 0.65979 0.9177 0.47788 0.0
H186 H 0.75874 0.88827 0.43466 0.0
H187 H 0.86122 0.79698 0.42808 0.0
H188 H 0.91279 0.5665 0.53638 0.0
H189 H 0.81202 0.59301 0.57772 0.0
C190 C 0.72008 0.72519 0.55047 0.0
C191 C 0.67758 0.80145 0.53403 0.0
C192 C 0.77801 0.71026 0.52681 0.0
C193 C 0.69171 0.85889 0.49166 0.0
C194 C 0.7486 0.84255 0.46705 0.0
C195 C 0.85024 0.75253 0.46069 0.0
C196 C 0.89371 0.67838 0.4787 0.0
C197 C 0.79248 0.76903 0.48461 0.0
C198 C 0.8799 0.62318 0.52154 0.0
C199 C 0.82214 0.63809 0.54514 0.0
H200 H 0.21758 0.19579 0.59268 0.0
H201 H 0.14559 0.38595 0.47415 0.0
H202 H 0.25078 0.37248 0.43539 0.0
H203 H 0.36341 0.31038 0.43503 0.0
H204 H 0.43535 0.11268 0.55092 0.0
H205 H 0.33147 0.13029 0.59158 0.0
C206 C 0.22497 0.2353 0.55855 0.0
C207 C 0.17351 0.294 0.53704 0.0
C208 C 0.28602 0.22678 0.53604 0.0
C209 C 0.18379 0.34128 0.4921 0.0
C210 C 0.24435 0.3339 0.46979 0.0
C211 C 0.3563 0.26895 0.4688 0.0
C212 C 0.40683 0.20704 0.48888 0.0
C213 C 0.29579 0.27722 0.49148 0.0
C214 C 0.39743 0.15943 0.5339 0.0
C215 C 0.33765 0.16911 0.55721 0.0
H216 H 0.66465 0.43282 0.03252 0.0
H217 H 0.61472 0.72677 0.98323 0.0
H218 H 0.49965 0.67902 0.97024 0.0
H219 H 0.4089 0.55749 0.98145 0.0
H220 H 0.45318 0.26455 0.03617 0.0
H221 H 0.57243 0.30822 0.04234 0.0
C222 C 0.62814 0.48667 0.01983 0.0
C223 C 0.64908 0.58388 0.00776 0.0
C224 C 0.55984 0.45912 0.01562 0.0
C225 C 0.60101 0.65199 0.9914 0.0
C226 C 0.53428 0.62479 0.98513 0.0
C227 C 0.44459 0.50286 0.99416 0.0
C228 C 0.42167 0.40777 0.00862 0.0
C229 C 0.51276 0.52906 0.9979 0.0
C230 C 0.46891 0.33829 0.02552 0.0
C231 C 0.53737 0.3634 0.02883 0.0
H232 H 0.59196 0.35593 0.55371 0.0
H233 H 0.69858 0.57719 0.46118 0.0
H234 H 0.60025 0.68 0.45762 0.0
H235 H 0.48238 0.70246 0.47875 0.0
H236 H 0.37661 0.47629 0.56911 0.0
H237 H 0.47667 0.37941 0.57556 0.0
C238 C 0.59413 0.42704 0.53301 0.0
C239 C 0.65249 0.45918 0.50781 0.0
C240 C 0.53746 0.48432 0.53057 0.0
C241 C 0.65402 0.55078 0.48065 0.0
C242 C 0.59792 0.60942 0.47871 0.0
C243 C 0.48131 0.63244 0.50001 0.0
C244 C 0.42168 0.59702 0.52312 0.0
C245 C 0.53908 0.57637 0.50319 0.0
C246 C 0.42147 0.50578 0.5508 0.0
C247 C 0.47874 0.45006 0.55451 0.0
H248 H 0.15223 0.97647 0.05322 0.0
H249 H 0.09005 0.25331 0.98606 0.0
H250 H 0.97663 0.18801 0.97527 0.0
H251 H 0.89615 0.04906 0.9829 0.0
H252 H 0.96205 0.77019 0.048 0.0
H253 H 0.07265 0.83836 0.06147 0.0
C254 C 0.11397 0.02217 0.03618 0.0
C255 C 0.13016 0.1191 0.01938 0.0
C256 C 0.04955 0.9831 0.02933 0.0
C257 C 0.07923 0.17812 0.99841 0.0
C258 C 1.01443 0.14062 0.99222 0.0
C259 C 0.93501 1.00293 0.99942 0.0
C260 C 0.92056 0.90429 0.01422 0.0
C261 C 0.99929 0.04258 1.0068 0.0
C262 C 0.97147 0.84613 0.03617 0.0
C263 C 0.03497 0.8851 0.04393 0.0
H264 H 0.9032 0.97104 0.4776 0.0
H265 H 0.9559 0.1376 0.58066 0.0
H266 H 0.07153 0.08056 0.58268 0.0
H267 H 0.15993 0.99453 0.54942 0.0
H268 H 0.10399 0.81877 0.4503 0.0
H269 H 0.98725 0.86653 0.45285 0.0
C270 C 0.93981 0.99269 0.5012 0.0
C271 C 0.92195 0.05841 0.52875 0.0
C272 C 1.00552 0.95827 0.50268 0.0
C273 C 0.9691 0.08654 0.55932 0.0
C274 C 0.03513 0.0544 0.56027 0.0
C275 C 0.12187 0.96584 0.52892 0.0
C276 C 0.14049 0.90436 0.49928 0.0
C277 C 0.05437 0.99214 0.53122 0.0
C278 C 0.09076 0.86636 0.47334 0.0
C279 C 1.02399 0.89376 0.47467 0.0
H280 H 0.55517 0.09379 0.31771 0.0
H281 H 0.45044 0.34313 0.3421 0.0
H282 H 0.41079 0.37317 0.26416 0.0
H283 H 0.39502 0.31996 0.19203 0.0
H284 H 0.50317 0.07808 0.16286 0.0
H285 H 0.55477 0.05686 0.2387 0.0
C286 C 0.52499 0.15577 0.30557 0.0
C287 C 0.50412 0.21442 0.33618 0.0
C288 C 0.5024 0.17366 0.25996 0.0
C289 C 0.4656 0.29519 0.31968 0.0
C290 C 0.44287 0.31266 0.27504 0.0
C291 C 0.42994 0.26243 0.20201 0.0
C292 C 0.44311 0.1984 0.17237 0.0
C293 C 0.4589 0.25051 0.24542 0.0
C294 C 0.4904 0.12658 0.18557 0.0
C295 C 0.51995 0.11448 0.22895 0.0
H296 H 0.40651 0.93164 0.19416 0.0
H297 H 0.59252 0.77862 0.21344 0.0
H298 H 0.59208 0.78949 0.29386 0.0
H299 H 0.53833 0.84012 0.35896 0.0
H300 H 0.35271 0.99402 0.33986 0.0
H301 H 0.35405 0.9857 0.25902 0.0
C302 C 0.44648 0.89931 0.21603 0.0
C303 C 0.49962 0.85471 0.1975 0.0
C304 C 0.44615 0.90623 0.2623 0.0
C305 C 0.55162 0.81503 0.22639 0.0
C306 C 0.5513 0.82083 0.27251 0.0
C307 C 0.4984 0.87265 0.33712 0.0
C308 C 0.44526 0.91709 0.3556 0.0
C309 C 0.49902 0.86665 0.29078 0.0
C310 C 0.39407 0.95895 0.32665 0.0
C311 C 0.3945 0.95358 0.28045 0.0
H312 H 0.52341 0.89673 0.70771 0.0
H313 H 0.6464 0.66417 0.68302 0.0
H314 H 0.68474 0.63823 0.76125 0.0
H315 H 0.69377 0.69326 0.83379 0.0
H316 H 0.56565 0.91714 0.86181 0.0
H317 H 0.51434 0.92734 0.78692 0.0
C318 C 0.55745 0.83917 0.71961 0.0
C319 C 0.58463 0.78599 0.68876 0.0
C320 C 0.57867 0.82302 0.76522 0.0
C321 C 0.62733 0.70977 0.70533 0.0
C322 C 0.64909 0.69426 0.7502 0.0
C323 C 0.6551 0.74527 0.82336 0.0
C324 C 0.63535 0.80677 0.85264 0.0
C325 C 0.62732 0.75317 0.77983 0.0
C326 C 0.58332 0.87097 0.8393 0.0
C327 C 0.55461 0.87802 0.79614 0.0
H328 H 0.50441 0.08706 0.81376 0.0
H329 H 0.62192 0.32887 0.84446 0.0
H330 H 0.66864 0.35869 0.76837 0.0
H331 H 0.68938 0.30168 0.69791 0.0
H332 H 0.56809 0.0684 0.66239 0.0
H333 H 0.50515 0.05636 0.73337 0.0
C334 C 0.53887 0.14753 0.80327 0.0
C335 C 0.56226 0.20272 0.83529 0.0
C336 C 0.56551 0.16524 0.75889 0.0
C337 C 0.60537 0.28283 0.82092 0.0
C338 C 0.63221 0.30006 0.77744 0.0
C339 C 0.64977 0.24705 0.70593 0.0
C340 C 0.6355 0.18307 0.67605 0.0
C341 C 0.61535 0.23861 0.74709 0.0
C342 C 0.5817 0.1162 0.68577 0.0
C343 C 0.54641 0.10821 0.7267 0.0
H344 H 0.87089 0.58126 0.33952 0.0
H345 H 0.08295 0.63174 0.30941 0.0
H346 H 0.06009 0.62817 0.22963 0.0
H347 H 0.97858 0.61989 0.16737 0.0
H348 H 0.766 0.59241 0.19851 0.0
H349 H 0.79048 0.58652 0.27851 0.0
C350 C 0.91242 0.59506 0.31578 0.0
C351 C 0.97857 0.60822 0.33122 0.0
C352 C 0.89868 0.59955 0.26963 0.0
C353 C 0.03145 0.61989 0.29931 0.0
C354 C 1.01838 0.61932 0.25332 0.0
C355 C 0.93776 0.61237 0.19175 0.0
C356 C 0.87064 0.60567 0.17703 0.0
C357 C 0.95202 0.61028 0.23801 0.0
C358 C 0.81816 0.59742 0.20887 0.0
C359 C 0.83202 0.59402 0.2547 0.0
H360 H 0.96822 0.34641 0.34554 0.0
H361 H 0.75778 0.35921 0.30778 0.0
H362 H 0.78773 0.37252 0.22843 0.0
H363 H 0.87163 0.38798 0.1702 0.0
H364 H 0.08186 0.3503 0.20524 0.0
H365 H 0.05427 0.34865 0.285 0.0
C366 C 0.9291 0.35249 0.31983 0.0
C367 C 0.86082 0.3524 0.33258 0.0
C368 C 0.94659 0.35847 0.27383 0.0
C369 C 0.81063 0.35907 0.29902 0.0
C370 C 0.82766 0.36669 0.25357 0.0
C371 C 0.91185 0.37498 0.19493 0.0
C372 C 0.97872 0.36612 0.18103 0.0
C373 C 0.89529 0.367 0.24068 0.0
C374 C 0.02983 0.35758 0.21427 0.0
C375 C 1.01399 0.35533 0.26015 0.0
H376 H 0.05033 0.26432 0.84639 0.0
H377 H 0.21142 0.47769 0.82498 0.0
H378 H 0.19772 0.49214 0.74254 0.0
H379 H 0.14497 0.43444 0.67678 0.0
H380 H 0.97718 0.23184 0.69874 0.0
H381 H 0.98834 0.22244 0.78086 0.0
C382 C 0.08182 0.31484 0.82358 0.0
C383 C 0.13239 0.36891 0.8415 0.0
C384 C 0.07293 0.32366 0.77647 0.0
C385 C 0.17225 0.43524 0.81184 0.0
C386 C 0.16486 0.44274 0.76478 0.0
C387 C 0.11068 0.38874 0.69962 0.0
C388 C 0.06058 0.33336 0.68183 0.0
C389 C 0.11632 0.38567 0.74674 0.0
C390 C 1.0159 0.27536 0.71168 0.0
C391 C 1.0224 0.26978 0.75858 0.0
H392 H 0.03737 0.55964 0.6696 0.0
H393 H 0.17074 0.80793 0.63772 0.0
H394 H 0.16019 0.83848 0.71518 0.0
H395 H 0.12069 0.78692 0.79377 0.0
H396 H 0.9921 0.53332 0.82619 0.0
H397 H 0.99232 0.51387 0.7469 0.0
C398 C 0.06397 0.62061 0.67957 0.0
C399 C 0.10592 0.68007 0.64812 0.0
C400 C 0.05868 0.63679 0.72445 0.0
C401 C 0.13848 0.76043 0.66124 0.0
C402 C 0.13282 0.77766 0.70569 0.0
C403 C 0.09297 0.72708 0.78358 0.0
C404 C 0.05662 0.66166 0.81622 0.0
C405 C 0.09457 0.71477 0.73793 0.0
C406 C 1.0198 0.58576 0.80196 0.0
C407 C 1.02026 0.57406 0.75656 0.0
loop_
_geom_bond_atom_site_label_1
_geom_bond_atom_site_label_2
_geom_bond_distance
_geom_bond_site_symmetry_2
_ccdc_geom_bond_type
C0 C1 1.386 1_455 S
C0 C5 1.384 . S
C0 C16 1.497 . S
C1 C0 1.386 1_655 S
C1 C2 1.393 . S
C1 H32 0.932 . S
C2 C1 1.393 . S
C2 C3 1.387 . S
C3 C2 1.387 . S
C3 C4 1.392 1_655 S
C3 H33 0.930 . S
C4 C3 1.392 1_455 S
C4 C5 1.402 . S
C5 C0 1.384 . S
C5 C4 1.402 . S
C5 H34 0.930 . S
O6 Tb7 2.288 . S
O6 C19 1.250 1_556 S
Tb7 O6 2.288 . S
Tb7 O9 2.303 . S
Tb7 O11 2.430 . S
Tb7 O13 2.459 1_556 S
Tb7 O15 2.301 . S
Tb7 C16 2.808 1_556 S
Tb8 O10 2.301 . S
Tb8 C12 2.808 1_554 S
Tb8 O14 2.288 . S
Tb8 O21 2.303 . S
Tb8 O30 2.430 . S
Tb8 O31 2.459 1_554 S
O9 Tb7 2.303 . S
O9 C28 1.255 . S
O10 Tb8 2.301 . S
O10 C19 1.247 . S
O11 Tb7 2.430 . S
O11 C16 1.248 1_556 S
C12 Tb8 2.808 1_556 S
C12 C22 1.497 . S
C12 O30 1.248 1_556 S
C12 O31 1.260 . S
O13 Tb7 2.459 1_554 S
O13 C16 1.260 . S
O14 Tb8 2.288 . S
O14 C20 1.257 . S
O15 Tb7 2.301 . S
O15 C20 1.237 1_556 S
C16 C0 1.497 . S
C16 Tb7 2.808 1_554 S
C16 O11 1.248 1_554 S
C16 O13 1.260 . S
C17 O18 1.255 . S
C17 O21 1.255 . S
O18 C17 1.255 . S
C19 O6 1.250 1_554 S
C19 O10 1.247 . S
C20 O14 1.257 . S
C20 O15 1.237 1_554 S
O21 Tb8 2.303 . S
O21 C17 1.255 . S
C22 C12 1.497 . S
C22 C24 1.384 . S
C22 C25 1.386 . S
C23 C24 1.402 . S
C23 C27 1.392 . S
C24 C22 1.384 . S
C24 C23 1.402 . S
C24 H35 0.930 . S
C25 C22 1.386 . S
C25 C26 1.393 . S
C25 H36 0.932 . S
C26 C25 1.393 . S
C26 C27 1.387 . S
C27 C23 1.392 . S
C27 C26 1.387 . S
C27 H37 0.930 . S
C28 O9 1.255 . S
C28 O29 1.255 . S
O29 C28 1.255 . S
O30 Tb8 2.430 . S
O30 C12 1.248 1_554 S
O31 Tb8 2.459 1_556 S
O31 C12 1.260 . S
H32 C1 0.932 . S
H33 C3 0.930 . S
H34 C5 0.930 . S
H35 C24 0.930 . S
H36 C25 0.932 . S
H37 C27 0.930 . S
C38 C39 1.386 . S
C38 C43 1.384 . S
C38 C54 1.497 . S
C39 C38 1.386 . S
C39 C40 1.393 . S
C39 H70 0.932 . S
C40 C39 1.393 . S
C40 C41 1.387 . S
C41 C40 1.387 . S
C41 C42 1.392 . S
C41 H71 0.930 . S
C42 C41 1.392 . S
C42 C43 1.402 . S
C43 C38 1.384 . S
C43 C42 1.402 . S
C43 H72 0.930 . S
O44 Tb45 2.288 . S
O44 C57 1.250 1_556 S
Tb45 O44 2.288 . S
Tb45 O47 2.303 . S
Tb45 O49 2.430 . S
Tb45 O51 2.459 1_556 S
Tb45 O53 2.301 . S
Tb45 C54 2.808 1_556 S
Tb46 O48 2.301 . S
Tb46 C50 2.808 1_554 S
Tb46 O52 2.288 . S
Tb46 O59 2.303 . S
Tb46 O68 2.430 . S
Tb46 O69 2.459 1_554 S
O47 Tb45 2.303 . S
O47 C66 1.255 . S
O48 Tb46 2.301 . S
O48 C57 1.247 . S
O49 Tb45 2.430 . S
O49 C54 1.248 1_556 S
C50 Tb46 2.808 1_556 S
C50 C60 1.497 . S
C50 O68 1.248 1_556 S
C50 O69 1.260 . S
O51 Tb45 2.459 1_554 S
O51 C54 1.260 . S
O52 Tb46 2.288 . S
O52 C58 1.257 . S
O53 Tb45 2.301 . S
O53 C58 1.237 1_556 S
C54 C38 1.497 . S
C54 Tb45 2.808 1_554 S
C54 O49 1.248 1_554 S
C54 O51 1.260 . S
C55 O56 1.255 . S
C55 O59 1.255 . S
O56 C55 1.255 . S
C57 O44 1.250 1_554 S
C57 O48 1.247 . S
C58 O52 1.257 . S
C58 O53 1.237 1_554 S
O59 Tb46 2.303 . S
O59 C55 1.255 . S
C60 C50 1.497 . S
C60 C62 1.384 . S
C60 C63 1.386 1_655 S
C61 C62 1.402 . S
C61 C65 1.392 1_655 S
C62 C60 1.384 . S
C62 C61 1.402 . S
C62 H73 0.930 . S
C63 C60 1.386 1_455 S
C63 C64 1.393 . S
C63 H74 0.932 . S
C64 C63 1.393 . S
C64 C65 1.387 . S
C65 C61 1.392 1_455 S
C65 C64 1.387 . S
C65 H75 0.930 . S
C66 O47 1.255 . S
C66 O67 1.255 . S
O67 C66 1.255 . S
O68 Tb46 2.430 . S
O68 C50 1.248 1_554 S
O69 Tb46 2.459 1_556 S
O69 C50 1.260 . S
H70 C39 0.932 . S
H71 C41 0.930 . S
H72 C43 0.930 . S
H73 C62 0.930 . S
H74 C63 0.932 . S
H75 C65 0.930 . S
C76 C77 1.386 1_455 S
C76 C81 1.384 . S
C76 C92 1.497 . S
C77 C76 1.386 1_655 S
C77 C78 1.393 . S
C77 H108 0.932 . S
C78 C77 1.393 . S
C78 C79 1.387 . S
C79 C78 1.387 . S
C79 C80 1.392 1_655 S
C79 H109 0.930 . S
C80 C79 1.392 1_455 S
C80 C81 1.402 . S
C81 C76 1.384 . S
C81 C80 1.402 . S
C81 H110 0.930 . S
O82 Tb83 2.288 . S
O82 C95 1.257 . S
Tb83 O82 2.288 . S
Tb83 O85 2.303 . S
Tb83 O87 2.430 . S
Tb83 O89 2.459 . S
Tb83 O91 2.301 . S
Tb83 C92 2.808 . S
Tb84 O86 2.301 . S
Tb84 C88 2.808 . S
Tb84 O90 2.288 . S
Tb84 O97 2.303 . S
Tb84 O106 2.430 . S
Tb84 O107 2.459 . S
O85 Tb83 2.303 . S
O85 C104 1.255 . S
O86 Tb84 2.301 . S
O86 C95 1.237 . S
O87 Tb83 2.430 . S
O87 C92 1.248 . S
C88 Tb84 2.808 . S
C88 C98 1.497 . S
C88 O106 1.248 . S
C88 O107 1.260 . S
O89 Tb83 2.459 . S
O89 C92 1.260 . S
O90 Tb84 2.288 . S
O90 C96 1.257 . S
O91 Tb83 2.301 . S
O91 C96 1.237 . S
C92 C76 1.497 . S
C92 Tb83 2.808 . S
C92 O87 1.248 . S
C92 O89 1.260 . S
C93 O94 1.255 . S
C93 O97 1.255 . S
O94 C93 1.255 . S
C95 O82 1.257 . S
C95 O86 1.237 . S
C96 O90 1.257 . S
C96 O91 1.237 . S
O97 Tb84 2.303 . S
O97 C93 1.255 . S
C98 C88 1.497 . S
C98 C100 1.384 . S
C98 C101 1.386 . S
C99 C100 1.402 . S
C99 C103 1.392 . S
C100 C98 1.384 . S
C100 C99 1.402 . S
C100 H111 0.930 . S
C101 C98 1.386 . S
C101 C102 1.393 . S
C101 H112 0.932 . S
C102 C101 1.393 . S
C102 C103 1.387 . S
C103 C99 1.392 . S
C103 C102 1.387 . S
C103 H113 0.930 . S
C104 O85 1.255 . S
C104 O105 1.255 . S
O105 C104 1.255 . S
O106 Tb84 2.430 . S
O106 C88 1.248 . S
O107 Tb84 2.459 . S
O107 C88 1.260 . S
H108 C77 0.932 . S
H109 C79 0.930 . S
H110 C81 0.930 . S
H111 C100 0.930 . S
H112 C101 0.932 . S
H113 C103 0.930 . S
C114 C115 1.386 . S
C114 C119 1.384 . S
C114 C130 1.497 . S
C115 C114 1.386 . S
C115 C116 1.393 . S
C115 H146 0.932 . S
C116 C115 1.393 . S
C116 C117 1.387 . S
C117 C116 1.387 . S
C117 C118 1.392 . S
C117 H147 0.930 . S
C118 C117 1.392 . S
C118 C119 1.402 . S
C119 C114 1.384 . S
C119 C118 1.402 . S
C119 H148 0.930 . S
O120 Tb121 2.288 . S
O120 C133 1.257 . S
Tb121 O120 2.288 . S
Tb121 O123 2.303 . S
Tb121 O125 2.430 . S
Tb121 O127 2.459 . S
Tb121 O129 2.301 . S
Tb121 C130 2.808 . S
Tb122 O124 2.301 . S
Tb122 C126 2.808 . S
Tb122 O128 2.288 . S
Tb122 O135 2.303 . S
Tb122 O144 2.430 . S
Tb122 O145 2.459 . S
O123 Tb121 2.303 . S
O123 C142 1.255 . S
O124 Tb122 2.301 . S
O124 C133 1.237 . S
O125 Tb121 2.430 . S
O125 C130 1.248 . S
C126 Tb122 2.808 . S
C126 C136 1.497 . S
C126 O144 1.248 . S
C126 O145 1.260 . S
O127 Tb121 2.459 . S
O127 C130 1.260 . S
O128 Tb122 2.288 . S
O128 C134 1.257 . S
O129 Tb121 2.301 . S
O129 C134 1.237 . S
C130 C114 1.497 . S
C130 Tb121 2.808 . S
C130 O125 1.248 . S
C130 O127 1.260 . S
C131 O132 1.255 . S
C131 O135 1.255 . S
O132 C131 1.255 . S
C133 O120 1.257 . S
C133 O124 1.237 . S
C134 O128 1.257 . S
C134 O129 1.237 . S
O135 Tb122 2.303 . S
O135 C131 1.255 . S
C136 C126 1.497 . S
C136 C138 1.384 . S
C136 C139 1.386 1_655 S
C137 C138 1.402 . S
C137 C141 1.392 1_655 S
C138 C136 1.384 . S
C138 C137 1.402 . S
C138 H149 0.930 . S
C139 C136 1.386 1_455 S
C139 C140 1.393 . S
C139 H150 0.932 . S
C140 C139 1.393 . S
C140 C141 1.387 . S
C141 C137 1.392 1_455 S
C141 C140 1.387 . S
C141 H151 0.930 . S
C142 O123 1.255 . S
C142 O143 1.255 . S
O143 C142 1.255 . S
O144 Tb122 2.430 . S
O144 C126 1.248 . S
O145 Tb122 2.459 . S
O145 C126 1.260 . S
H146 C115 0.932 . S
H147 C117 0.930 . S
H148 C119 0.930 . S
H149 C138 0.930 . S
H150 C139 0.932 . S
H151 C141 0.930 . S
H152 C158 0.930 . S
H153 C161 0.930 . S
H154 C162 0.930 . S
H155 C163 0.930 . S
H156 C166 0.930 . S
H157 C167 0.930 . S
C158 H152 0.930 . S
C158 C159 1.355 . S
C158 C160 1.415 . S
C159 C158 1.355 . S
C159 C161 1.419 1_556 S
C160 C158 1.415 . S
C160 C165 1.425 1_556 S
C160 C167 1.409 . S
C161 H153 0.930 . S
C161 C159 1.419 1_554 S
C161 C162 1.362 . S
C162 H154 0.930 . S
C162 C161 1.362 . S
C162 C165 1.409 . S
C163 H155 0.930 . S
C163 C164 1.355 . S
C163 C165 1.415 . S
C164 C163 1.355 . S
C164 C166 1.419 1_554 S
C165 C160 1.425 1_554 S
C165 C162 1.409 . S
C165 C163 1.415 . S
C166 H156 0.930 . S
C166 C164 1.419 1_556 S
C166 C167 1.362 . S
C167 H157 0.930 . S
C167 C160 1.409 . S
C167 C166 1.362 . S
H168 C174 0.930 . S
H169 C177 0.930 . S
H170 C178 0.930 . S
H171 C179 0.930 . S
H172 C182 0.930 . S
H173 C183 0.930 . S
C174 H168 0.930 . S
C174 C175 1.355 . S
C174 C176 1.415 1_556 S
C175 C174 1.355 . S
C175 C177 1.419 . S
C176 C174 1.415 1_554 S
C176 C181 1.425 1_554 S
C176 C183 1.409 . S
C177 H169 0.930 . S
C177 C175 1.419 . S
C177 C178 1.362 . S
C178 H170 0.930 . S
C178 C177 1.362 . S
C178 C181 1.409 . S
C179 H171 0.930 . S
C179 C180 1.355 . S
C179 C181 1.415 1_554 S
C180 C179 1.355 . S
C180 C182 1.419 . S
C181 C176 1.425 1_556 S
C181 C178 1.409 . S
C181 C179 1.415 1_556 S
C182 H172 0.930 . S
C182 C180 1.419 . S
C182 C183 1.362 . S
C183 H173 0.930 . S
C183 C176 1.409 . S
C183 C182 1.362 . S
H184 C190 0.930 . S
H185 C193 0.930 . S
H186 C194 0.930 . S
H187 C195 0.930 . S
H188 C198 0.930 . S
H189 C199 0.930 . S
C190 H184 0.930 . S
C190 C191 1.355 . S
C190 C192 1.415 . S
C191 C190 1.355 . S
C191 C193 1.419 . S
C192 C190 1.415 . S
C192 C197 1.425 . S
C192 C199 1.409 . S
C193 H185 0.930 . S
C193 C191 1.419 . S
C193 C194 1.362 . S
C194 H186 0.930 . S
C194 C193 1.362 . S
C194 C197 1.409 . S
C195 H187 0.930 . S
C195 C196 1.355 . S
C195 C197 1.415 . S
C196 C195 1.355 . S
C196 C198 1.419 . S
C197 C192 1.425 . S
C197 C194 1.409 . S
C197 C195 1.415 . S
C198 H188 0.930 . S
C198 C196 1.419 . S
C198 C199 1.362 . S
C199 H189 0.930 . S
C199 C192 1.409 . S
C199 C198 1.362 . S
H200 C206 0.930 . S
H201 C209 0.930 . S
H202 C210 0.930 . S
H203 C211 0.930 . S
H204 C214 0.930 . S
H205 C215 0.930 . S
C206 H200 0.930 . S
C206 C207 1.355 . S
C206 C208 1.415 . S
C207 C206 1.355 . S
C207 C209 1.419 . S
C208 C206 1.415 . S
C208 C213 1.425 . S
C208 C215 1.409 . S
C209 H201 0.930 . S
C209 C207 1.419 . S
C209 C210 1.362 . S
C210 H202 0.930 . S
C210 C209 1.362 . S
C210 C213 1.409 . S
C211 H203 0.930 . S
C211 C212 1.355 . S
C211 C213 1.415 . S
C212 C211 1.355 . S
C212 C214 1.419 . S
C213 C208 1.425 . S
C213 C210 1.409 . S
C213 C211 1.415 . S
C214 H204 0.930 . S
C214 C212 1.419 . S
C214 C215 1.362 . S
C215 H205 0.930 . S
C215 C208 1.409 . S
C215 C214 1.362 . S
H216 C222 0.930 . S
H217 C225 0.930 . S
H218 C226 0.930 . S
H219 C227 0.930 . S
H220 C230 0.930 . S
H221 C231 0.930 . S
C222 H216 0.930 . S
C222 C223 1.355 1_554 S
C222 C224 1.415 . S
C223 C222 1.355 1_556 S
C223 C225 1.419 . S
C224 C222 1.415 . S
C224 C229 1.425 1_554 S
C224 C231 1.409 . S
C225 H217 0.930 . S
C225 C223 1.419 . S
C225 C226 1.362 . S
C226 H218 0.930 . S
C226 C225 1.362 . S
C226 C229 1.409 . S
C227 H219 0.930 . S
C227 C228 1.355 1_556 S
C227 C229 1.415 . S
C228 C227 1.355 1_554 S
C228 C230 1.419 . S
C229 C224 1.425 1_556 S
C229 C226 1.409 . S
C229 C227 1.415 . S
C230 H220 0.930 . S
C230 C228 1.419 . S
C230 C231 1.362 . S
C231 H221 0.930 . S
C231 C224 1.409 . S
C231 C230 1.362 . S
H232 C238 0.930 . S
H233 C241 0.930 . S
H234 C242 0.930 . S
H235 C243 0.930 . S
H236 C246 0.930 . S
H237 C247 0.930 . S
C238 H232 0.930 . S
C238 C239 1.355 . S
C238 C240 1.415 . S
C239 C238 1.355 . S
C239 C241 1.419 . S
C240 C238 1.415 . S
C240 C245 1.425 . S
C240 C247 1.409 . S
C241 H233 0.930 . S
C241 C239 1.419 . S
C241 C242 1.362 . S
C242 H234 0.930 . S
C242 C241 1.362 . S
C242 C245 1.409 . S
C243 H235 0.930 . S
C243 C244 1.355 . S
C243 C245 1.415 . S
C244 C243 1.355 . S
C244 C246 1.419 . S
C245 C240 1.425 . S
C245 C242 1.409 . S
C245 C243 1.415 . S
C246 H236 0.930 . S
C246 C244 1.419 . S
C246 C247 1.362 . S
C247 H237 0.930 . S
C247 C240 1.409 . S
C247 C246 1.362 . S
H248 C254 0.930 . S
H249 C257 0.930 . S
H250 C258 0.930 . S
H251 C259 0.930 . S
H252 C262 0.930 . S
H253 C263 0.930 . S
C254 H248 0.930 . S
C254 C255 1.355 1_554 S
C254 C256 1.415 . S
C255 C254 1.355 1_556 S
C255 C257 1.419 1_545 S
C256 C254 1.415 . S
C256 C261 1.425 1_444 S
C256 C263 1.409 1_455 S
C257 H249 0.930 . S
C257 C255 1.419 1_565 S
C257 C258 1.362 . S
C258 H250 0.930 . S
C258 C257 1.362 . S
C258 C261 1.409 1_455 S
C259 H251 0.930 . S
C259 C260 1.355 1_556 S
C259 C261 1.415 . S
C260 C259 1.355 1_554 S
C260 C262 1.419 1_565 S
C261 C256 1.425 1_666 S
C261 C258 1.409 1_655 S
C261 C259 1.415 . S
C262 H252 0.930 . S
C262 C260 1.419 1_545 S
C262 C263 1.362 . S
C263 H253 0.930 . S
C263 C256 1.409 1_655 S
C263 C262 1.362 . S
H264 C270 0.930 . S
H265 C273 0.930 . S
H266 C274 0.930 1_455 S
H267 C275 0.930 . S
H268 C278 0.930 . S
H269 C279 0.930 1_655 S
C270 H264 0.930 . S
C270 C271 1.355 1_565 S
C270 C272 1.415 . S
C271 C270 1.355 1_545 S
C271 C273 1.419 . S
C272 C270 1.415 . S
C272 C277 1.425 1_665 S
C272 C279 1.409 1_655 S
C273 H265 0.930 . S
C273 C271 1.419 . S
C273 C274 1.362 . S
C274 H266 0.930 1_655 S
C274 C273 1.362 . S
C274 C277 1.409 1_655 S
C275 H267 0.930 . S
C275 C276 1.355 1_545 S
C275 C277 1.415 . S
C276 C275 1.355 1_565 S
C276 C278 1.419 . S
C277 C272 1.425 1_445 S
C277 C274 1.409 1_455 S
C277 C275 1.415 . S
C278 H268 0.930 . S
C278 C276 1.419 . S
C278 C279 1.362 . S
C279 H269 0.930 1_455 S
C279 C272 1.409 1_455 S
C279 C278 1.362 . S
H280 C286 0.930 . S
H281 C289 0.930 . S
H282 C290 0.930 . S
H283 C291 0.930 . S
H284 C294 0.930 . S
H285 C295 0.930 . S
C286 H280 0.930 . S
C286 C287 1.355 . S
C286 C288 1.415 . S
C287 C286 1.355 . S
C287 C289 1.419 . S
C288 C286 1.415 . S
C288 C293 1.425 . S
C288 C295 1.409 . S
C289 H281 0.930 . S
C289 C287 1.419 . S
C289 C290 1.362 . S
C290 H282 0.930 . S
C290 C289 1.362 . S
C290 C293 1.409 . S
C291 H283 0.930 . S
C291 C292 1.355 . S
C291 C293 1.415 . S
C292 C291 1.355 . S
C292 C294 1.419 . S
C293 C288 1.425 . S
C293 C290 1.409 . S
C293 C291 1.415 . S
C294 H284 0.930 . S
C294 C292 1.419 . S
C294 C295 1.362 . S
C295 H285 0.930 . S
C295 C288 1.409 . S
C295 C294 1.362 . S
H296 C302 0.930 . S
H297 C305 0.930 . S
H298 C306 0.930 . S
H299 C307 0.930 . S
H300 C310 0.930 . S
H301 C311 0.930 . S
C302 H296 0.930 . S
C302 C303 1.355 . S
C302 C304 1.415 . S
C303 C302 1.355 . S
C303 C305 1.419 . S
C304 C302 1.415 . S
C304 C309 1.425 . S
C304 C311 1.409 . S
C305 H297 0.930 . S
C305 C303 1.419 . S
C305 C306 1.362 . S
C306 H298 0.930 . S
C306 C305 1.362 . S
C306 C309 1.409 . S
C307 H299 0.930 . S
C307 C308 1.355 . S
C307 C309 1.415 . S
C308 C307 1.355 . S
C308 C310 1.419 . S
C309 C304 1.425 . S
C309 C306 1.409 . S
C309 C307 1.415 . S
C310 H300 0.930 . S
C310 C308 1.419 . S
C310 C311 1.362 . S
C311 H301 0.930 . S
C311 C304 1.409 . S
C311 C310 1.362 . S
H312 C318 0.930 . S
H313 C321 0.930 . S
H314 C322 0.930 . S
H315 C323 0.930 . S
H316 C326 0.930 . S
H317 C327 0.930 . S
C318 H312 0.930 . S
C318 C319 1.355 . S
C318 C320 1.415 . S
C319 C318 1.355 . S
C319 C321 1.419 . S
C320 C318 1.415 . S
C320 C325 1.425 . S
C320 C327 1.409 . S
C321 H313 0.930 . S
C321 C319 1.419 . S
C321 C322 1.362 . S
C322 H314 0.930 . S
C322 C321 1.362 . S
C322 C325 1.409 . S
C323 H315 0.930 . S
C323 C324 1.355 . S
C323 C325 1.415 . S
C324 C323 1.355 . S
C324 C326 1.419 . S
C325 C320 1.425 . S
C325 C322 1.409 . S
C325 C323 1.415 . S
C326 H316 0.930 . S
C326 C324 1.419 . S
C326 C327 1.362 . S
C327 H317 0.930 . S
C327 C320 1.409 . S
C327 C326 1.362 . S
H328 C334 0.930 . S
H329 C337 0.930 . S
H330 C338 0.930 . S
H331 C339 0.930 . S
H332 C342 0.930 . S
H333 C343 0.930 . S
C334 H328 0.930 . S
C334 C335 1.355 . S
C334 C336 1.415 . S
C335 C334 1.355 . S
C335 C337 1.419 . S
C336 C334 1.415 . S
C336 C341 1.425 . S
C336 C343 1.409 . S
C337 H329 0.930 . S
C337 C335 1.419 . S
C337 C338 1.362 . S
C338 H330 0.930 . S
C338 C337 1.362 . S
C338 C341 1.409 . S
C339 H331 0.930 . S
C339 C340 1.355 . S
C339 C341 1.415 . S
C340 C339 1.355 . S
C340 C342 1.419 . S
C341 C336 1.425 . S
C341 C338 1.409 . S
C341 C339 1.415 . S
C342 H332 0.930 . S
C342 C340 1.419 . S
C342 C343 1.362 . S
C343 H333 0.930 . S
C343 C336 1.409 . S
C343 C342 1.362 . S
H344 C350 0.930 . S
H345 C353 0.930 . S
H346 C354 0.930 . S
H347 C355 0.930 . S
H348 C358 0.930 . S
H349 C359 0.930 . S
C350 H344 0.930 . S
C350 C351 1.355 1_655 S
C350 C352 1.415 . S
C351 C350 1.355 1_455 S
C351 C353 1.419 . S
C352 C350 1.415 . S
C352 C357 1.425 . S
C352 C359 1.409 . S
C353 H345 0.930 . S
C353 C351 1.419 . S
C353 C354 1.362 . S
C354 H346 0.930 . S
C354 C353 1.362 . S
C354 C357 1.409 1_455 S
C355 H347 0.930 . S
C355 C356 1.355 . S
C355 C357 1.415 . S
C356 C355 1.355 . S
C356 C358 1.419 . S
C357 C352 1.425 . S
C357 C354 1.409 1_655 S
C357 C355 1.415 . S
C358 H348 0.930 . S
C358 C356 1.419 . S
C358 C359 1.362 . S
C359 H349 0.930 . S
C359 C352 1.409 . S
C359 C358 1.362 . S
H360 C366 0.930 . S
H361 C369 0.930 . S
H362 C370 0.930 . S
H363 C371 0.930 . S
H364 C374 0.930 . S
H365 C375 0.930 . S
C366 H360 0.930 . S
C366 C367 1.355 . S
C366 C368 1.415 . S
C367 C366 1.355 . S
C367 C369 1.419 . S
C368 C366 1.415 . S
C368 C373 1.425 . S
C368 C375 1.409 1_655 S
C369 H361 0.930 . S
C369 C367 1.419 . S
C369 C370 1.362 . S
C370 H362 0.930 . S
C370 C369 1.362 . S
C370 C373 1.409 . S
C371 H363 0.930 . S
C371 C372 1.355 1_655 S
C371 C373 1.415 . S
C372 C371 1.355 1_455 S
C372 C374 1.419 . S
C373 C368 1.425 . S
C373 C370 1.409 . S
C373 C371 1.415 . S
C374 H364 0.930 . S
C374 C372 1.419 . S
C374 C375 1.362 . S
C375 H365 0.930 . S
C375 C368 1.409 1_455 S
C375 C374 1.362 . S
H376 C382 0.930 . S
H377 C385 0.930 . S
H378 C386 0.930 . S
H379 C387 0.930 . S
H380 C390 0.930 . S
H381 C391 0.930 . S
C382 H376 0.930 . S
C382 C383 1.355 . S
C382 C384 1.415 . S
C383 C382 1.355 . S
C383 C385 1.419 . S
C384 C382 1.415 . S
C384 C389 1.425 . S
C384 C391 1.409 . S
C385 H377 0.930 . S
C385 C383 1.419 . S
C385 C386 1.362 1_455 S
C386 H378 0.930 . S
C386 C385 1.362 1_655 S
C386 C389 1.409 1_655 S
C387 H379 0.930 . S
C387 C388 1.355 . S
C387 C389 1.415 1_655 S
C388 C387 1.355 . S
C388 C390 1.419 1_655 S
C389 C384 1.425 . S
C389 C386 1.409 1_455 S
C389 C387 1.415 1_455 S
C390 H380 0.930 . S
C390 C388 1.419 1_455 S
C390 C391 1.362 . S
C391 H381 0.930 . S
C391 C384 1.409 . S
C391 C390 1.362 . S
H392 C398 0.930 . S
H393 C401 0.930 . S
H394 C402 0.930 . S
H395 C403 0.930 . S
H396 C406 0.930 . S
H397 C407 0.930 . S
C398 H392 0.930 . S
C398 C399 1.355 . S
C398 C400 1.415 . S
C399 C398 1.355 . S
C399 C401 1.419 . S
C400 C398 1.415 . S
C400 C405 1.425 . S
C400 C407 1.409 1_455 S
C401 H393 0.930 . S
C401 C399 1.419 . S
C401 C402 1.362 . S
C402 H394 0.930 . S
C402 C401 1.362 . S
C402 C405 1.409 . S
C403 H395 0.930 . S
C403 C404 1.355 1_455 S
C403 C405 1.415 . S
C404 C403 1.355 1_655 S
C404 C406 1.419 . S
C405 C400 1.425 . S
C405 C402 1.409 . S
C405 C403 1.415 . S
C406 H396 0.930 . S
C406 C404 1.419 . S
C406 C407 1.362 . S
C407 H397 0.930 . S
C407 C400 1.409 1_655 S
C407 C406 1.362 . S
C159 C26 2.190 . S
C164 C2 2.190 . S
C175 C64 2.215 . S
C180 C40 2.215 . S
C191 C102 2.209 . S
C196 C78 2.209 . S
C207 C140 2.186 . S
C212 C116 2.186 . S
C223 C57 1.716 1_556 S
C228 C20 1.719 . S
C239 C133 1.720 . S
C244 C96 1.720 . S
C255 C19 1.723 1_556 S
C260 C58 1.726 . S
C271 C134 1.689 . S
C276 C95 1.689 . S
C287 C118 1.188 . S
C292 C17 1.273 . S
C303 C42 1.258 . S
C308 C93 1.224 . S
C319 C99 1.181 . S
C324 C66 1.284 . S
C335 C23 1.188 . S
C340 C142 1.274 . S
C351 C80 1.289 . S
C356 C55 1.247 . S
C367 C131 1.223 . S
C372 C4 1.281 . S
C383 C28 1.269 . S
C388 C137 1.192 . S
C399 C104 1.257 . S
C404 C61 1.284 . S
