# Generated by pormake.
# Topology smk, (6)-cn, num edge types: 1
# Building blocks:
#     Node 0, Type 0, BuildingBlock: MIDCAF_clean_sbu_0, # of connection points: 6
#     Node 1, Type 0, BuildingBlock: MIDCAF_clean_sbu_0, # of connection points: 6
#     Node 2, Type 0, BuildingBlock: MIDCAF_clean_sbu_0, # of connection points: 6
#     Node 3, Type 0, BuildingBlock: MIDCAF_clean_sbu_0, # of connection points: 6
#     Node 4, Type 0, BuildingBlock: MIDCAF_clean_sbu_0, # of connection points: 6
#     Node 5, Type 0, BuildingBlock: MIDCAF_clean_sbu_0, # of connection points: 6
#     Edge 6, Type (0, 0), BuildingBlock: FUNLAD_clean_linker_1, # of connection points: 2
#     Edge 7, Type (0, 0), BuildingBlock: FUNLAD_clean_linker_1, # of connection points: 2
#     Edge 8, Type (0, 0), BuildingBlock: FUNLAD_clean_linker_1, # of connection points: 2
#     Edge 9, Type (0, 0), BuildingBlock: FUNLAD_clean_linker_1, # of connection points: 2
#     Edge 10, Type (0, 0), BuildingBlock: FUNLAD_clean_linker_1, # of connection points: 2
#     Edge 11, Type (0, 0), BuildingBlock: FUNLAD_clean_linker_1, # of connection points: 2
#     Edge 12, Type (0, 0), BuildingBlock: FUNLAD_clean_linker_1, # of connection points: 2
#     Edge 13, Type (0, 0), BuildingBlock: FUNLAD_clean_linker_1, # of connection points: 2
#     Edge 14, Type (0, 0), BuildingBlock: FUNLAD_clean_linker_1, # of connection points: 2
#     Edge 15, Type (0, 0), BuildingBlock: FUNLAD_clean_linker_1, # of connection points: 2
#     Edge 16, Type (0, 0), BuildingBlock: FUNLAD_clean_linker_1, # of connection points: 2
#     Edge 17, Type (0, 0), BuildingBlock: FUNLAD_clean_linker_1, # of connection points: 2
#     Edge 18, Type (0, 0), BuildingBlock: FUNLAD_clean_linker_1, # of connection points: 2
#     Edge 19, Type (0, 0), BuildingBlock: FUNLAD_clean_linker_1, # of connection points: 2
#     Edge 20, Type (0, 0), BuildingBlock: FUNLAD_clean_linker_1, # of connection points: 2
#     Edge 21, Type (0, 0), BuildingBlock: FUNLAD_clean_linker_1, # of connection points: 2
#     Edge 22, Type (0, 0), BuildingBlock: FUNLAD_clean_linker_1, # of connection points: 2
#     Edge 23, Type (0, 0), BuildingBlock: FUNLAD_clean_linker_1, # of connection points: 2
# Relax obj value: 0.124
# Max RMSD: 0.126
# Mean RMSD: 0.126
data_MOF--net-smk--node1-MIDCAF_clean_sbu_0--edge1-FUNLAD_clean_linker_1
_symmetry_space_group_name_H-M    P1
_symmetry_Int_Tables_number       1
_symmetry_cell_setting            triclinic
loop_
_symmetry_equiv_pos_as_xyz
'x, y, z'
_cell_length_a     43.37244
_cell_length_b     43.419378
_cell_length_c     15.336004
_cell_angle_alpha  89.917266
_cell_angle_beta   90.068715
_cell_angle_gamma 119.97126
loop_
_atom_site_label
_atom_site_type_symbol
_atom_site_fract_x
_atom_site_fract_y
_atom_site_fract_z
_atom_type_partial_charge
Zn0 Zn 0.45213 0.28851 0.50659 0.0
Zn1 Zn 0.4398 0.1887 0.69235 0.0
Zn2 Zn 0.44227 0.23504 0.58799 0.0
C3 C 0.40913 0.22069 0.78261 0.0
C4 C 0.51058 0.23034 0.6641 0.0
O5 O 0.41216 0.21148 0.46823 0.0
O6 O 0.41277 0.26012 0.42321 0.0
C7 C 0.42046 0.29492 0.64347 0.0
O8 O 0.41567 0.23765 0.70982 0.0
O9 O 0.41812 0.19745 0.79295 0.0
O10 O 0.48991 0.20219 0.70471 0.0
O11 O 0.49765 0.24592 0.61703 0.0
O12 O 0.44265 0.31689 0.5903 0.0
O13 O 0.41622 0.26334 0.64974 0.0
O14 O 0.50033 0.2693 0.55117 0.0
O15 O 0.50078 0.3093 0.46164 0.0
C16 C 0.51718 0.29562 0.49793 0.0
O17 O 0.40866 0.18278 0.52212 0.0
O18 O 0.4078 0.14656 0.62495 0.0
C19 C 0.40163 0.22726 0.415 0.0
C20 C 0.39763 0.15115 0.55152 0.0
Zn21 Zn 0.16037 0.42593 0.64255 0.0
Zn22 Zn 0.26237 0.43228 0.7846 0.0
Zn23 Zn 0.21266 0.42825 0.71492 0.0
C24 C 0.21062 0.38489 0.88435 0.0
C25 C 0.27068 0.49695 0.81432 0.0
O26 O 0.20859 0.40203 0.58775 0.0
O27 O 0.15804 0.39705 0.54148 0.0
C28 C 0.13153 0.38712 0.78826 0.0
O29 O 0.19558 0.39967 0.84233 0.0
O30 O 0.23988 0.38897 0.85778 0.0
O31 O 0.27926 0.47652 0.85176 0.0
O32 O 0.24875 0.48533 0.74969 0.0
O33 O 0.12281 0.40071 0.72726 0.0
O34 O 0.16415 0.39462 0.79572 0.0
O35 O 0.22518 0.48452 0.68689 0.0
O36 O 0.17619 0.47617 0.62126 0.0
C37 C 0.2073 0.497 0.64778 0.0
O38 O 0.2374 0.40228 0.63755 0.0
O39 O 0.29201 0.43141 0.68862 0.0
C40 C 0.18357 0.39141 0.53053 0.0
C41 C 0.26971 0.40835 0.63726 0.0
Zn42 Zn 0.73861 0.16264 0.86817 0.0
Zn43 Zn 0.82891 0.24303 0.06764 0.0
Zn44 Zn 0.78534 0.20242 0.96666 0.0
C45 C 0.79134 0.18513 0.16657 0.0
C46 C 0.79781 0.27985 0.01916 0.0
O47 O 0.81232 0.19821 0.84787 0.0
O48 O 0.76706 0.15019 0.7916 0.0
C49 C 0.7243 0.12187 0.00966 0.0
O50 O 0.7806 0.17271 0.08937 0.0
O51 O 0.80973 0.21827 0.17757 0.0
O52 O 0.82774 0.28712 0.04895 0.0
O53 O 0.77627 0.24829 0.99039 0.0
O54 O 0.70676 0.12386 0.9464 0.0
O55 O 0.7553 0.14851 0.02717 0.0
O56 O 0.74927 0.22427 0.93389 0.0
O57 O 0.721 0.19284 0.81773 0.0
C58 C 0.72781 0.21802 0.86928 0.0
O59 O 0.83915 0.22125 0.90802 0.0
O60 O 0.87131 0.24219 0.0274 0.0
C61 C 0.79971 0.17309 0.79083 0.0
C62 C 0.86918 0.23377 0.94816 0.0
Zn63 Zn 0.55407 0.72097 0.95479 0.0
Zn64 Zn 0.58709 0.80505 0.16741 0.0
Zn65 Zn 0.56467 0.76659 0.05458 0.0
C66 C 0.557 0.74268 0.24316 0.0
C67 C 0.51464 0.78144 0.17206 0.0
O68 O 0.56122 0.79307 0.93824 0.0
O69 O 0.55485 0.74948 0.85243 0.0
C70 C 0.61782 0.73796 0.03661 0.0
O71 O 0.53772 0.7387 0.1755 0.0
O72 O 0.58926 0.76729 0.24129 0.0
O73 O 0.54247 0.81109 0.18568 0.0
O74 O 0.51817 0.75637 0.1366 0.0
O75 O 0.59633 0.71617 0.98148 0.0
O76 O 0.61071 0.76008 0.07328 0.0
O77 O 0.51001 0.72433 0.08936 0.0
O78 O 0.5056 0.68471 0.99272 0.0
C79 C 0.4915 0.69398 0.05152 0.0
O80 O 0.58311 0.82149 0.01035 0.0
O81 O 0.62796 0.84315 0.10215 0.0
C82 C 0.55667 0.77924 0.8623 0.0
C83 C 0.61258 0.84781 0.03757 0.0
Zn84 Zn 0.84226 0.56849 0.09887 0.0
Zn85 Zn 0.74338 0.57835 0.26777 0.0
Zn86 Zn 0.79503 0.57485 0.19007 0.0
C87 C 0.80635 0.61607 0.36762 0.0
C88 C 0.72138 0.50677 0.26369 0.0
O89 O 0.80225 0.6026 0.06514 0.0
O90 O 0.83987 0.59217 0.99137 0.0
C91 C 0.87832 0.60999 0.2424 0.0
O92 O 0.81887 0.60335 0.31107 0.0
O93 O 0.77475 0.61004 0.36155 0.0
O94 O 0.71106 0.52744 0.29131 0.0
O95 O 0.75141 0.51933 0.22326 0.0
O96 O 0.8833 0.59684 0.17421 0.0
O97 O 0.84675 0.60358 0.26204 0.0
O98 O 0.77606 0.51741 0.16763 0.0
O99 O 0.82036 0.51655 0.09849 0.0
C100 C 0.78968 0.50008 0.13173 0.0
O101 O 0.776 0.60545 0.1105 0.0
O102 O 0.72853 0.60022 0.17812 0.0
C103 C 0.82059 0.60629 0.99603 0.0
C104 C 0.7499 0.61167 0.11503 0.0
Zn105 Zn 0.27294 0.84664 0.33732 0.0
Zn106 Zn 0.19206 0.75186 0.52876 0.0
Zn107 Zn 0.23234 0.80018 0.43167 0.0
C108 C 0.2175 0.8117 0.62923 0.0
C109 C 0.23993 0.73175 0.48918 0.0
O110 O 0.20228 0.79867 0.31223 0.0
O111 O 0.23942 0.85226 0.26206 0.0
C112 C 0.28011 0.884 0.47875 0.0
O113 O 0.22995 0.82596 0.55439 0.0
O114 O 0.20244 0.77841 0.63781 0.0
O115 O 0.20875 0.71767 0.51923 0.0
O116 O 0.25452 0.76348 0.45685 0.0
O117 O 0.29972 0.88685 0.41512 0.0
O118 O 0.25249 0.85355 0.49552 0.0
O119 O 0.27682 0.78997 0.39595 0.0
O120 O 0.29934 0.82595 0.28294 0.0
C121 C 0.29871 0.80216 0.33109 0.0
O122 O 0.17786 0.77246 0.37065 0.0
O123 O 0.14554 0.73886 0.48011 0.0
C124 C 0.2097 0.8241 0.25776 0.0
C125 C 0.14726 0.75125 0.40486 0.0
H126 H 0.38653 0.19019 0.30463 0.0
C127 C 0.38122 0.20951 0.33588 0.0
H128 H 0.35829 0.24209 0.32581 0.0
H129 H 0.42111 0.28513 0.94652 0.0
H130 H 0.44713 0.34132 0.02167 0.0
H131 H 0.43427 0.3443 0.17697 0.0
H132 H 0.39566 0.29098 0.25783 0.0
C133 C 0.36383 0.2233 0.29257 0.0
C134 C 0.36232 0.22231 0.19566 0.0
C135 C 0.38345 0.25422 0.1481 0.0
C136 C 0.39033 0.2526 0.05794 0.0
C137 C 0.41402 0.28454 0.01403 0.0
C138 C 0.42937 0.31719 0.05665 0.0
C139 C 0.42217 0.31886 0.14406 0.0
C140 C 0.3998 0.28787 0.18975 0.0
H141 H 0.37982 0.24466 0.84584 0.0
C142 C 0.39169 0.22805 0.85601 0.0
H143 H 0.40271 0.19724 0.94341 0.0
H144 H 0.31344 0.15813 0.26348 0.0
H145 H 0.28293 0.10188 0.18531 0.0
H146 H 0.29371 0.09902 0.02826 0.0
H147 H 0.33499 0.1524 0.94838 0.0
C148 C 0.39133 0.21441 0.9353 0.0
C149 C 0.37502 0.21913 0.01558 0.0
C150 C 0.34995 0.18805 0.06063 0.0
C151 C 0.34375 0.1896 0.15094 0.0
C152 C 0.31937 0.15807 0.19494 0.0
C153 C 0.30161 0.12575 0.1508 0.0
C154 C 0.30767 0.12415 0.06236 0.0
C155 C 0.33152 0.15487 0.01744 0.0
H156 H 0.15853 0.36002 0.4147 0.0
C157 C 0.18417 0.3751 0.44717 0.0
H158 H 0.23954 0.40388 0.42891 0.0
H159 H 0.14862 0.31366 0.0661 0.0
H160 H 0.13269 0.25962 0.14694 0.0
H161 H 0.15343 0.26236 0.29815 0.0
H162 H 0.18965 0.31926 0.37007 0.0
C163 C 0.21376 0.38654 0.39942 0.0
C164 C 0.21015 0.38483 0.30227 0.0
C165 C 0.19075 0.35158 0.25934 0.0
C166 C 0.18033 0.35007 0.17064 0.0
C167 C 0.15865 0.31638 0.1319 0.0
C168 C 0.14908 0.28515 0.17782 0.0
C169 C 0.16064 0.28669 0.26307 0.0
C170 C 0.18119 0.31944 0.30373 0.0
H171 H 0.21192 0.35517 0.99768 0.0
C172 C 0.19912 0.36933 0.97177 0.0
H173 H 0.17279 0.39731 0.00337 0.0
H174 H 0.24848 0.45337 0.36326 0.0
H175 H 0.26678 0.50722 0.28104 0.0
H176 H 0.25168 0.50486 0.12552 0.0
H177 H 0.21859 0.44864 0.05075 0.0
C178 C 0.18359 0.38112 0.0277 0.0
C179 C 0.19114 0.38195 0.12314 0.0
C180 C 0.21195 0.41533 0.16508 0.0
C181 C 0.22123 0.41674 0.2547 0.0
C182 C 0.24095 0.45046 0.29531 0.0
C183 C 0.25171 0.48175 0.24884 0.0
C184 C 0.24323 0.48041 0.16123 0.0
C185 C 0.22391 0.44778 0.11929 0.0
H186 H 0.7756 0.13343 0.23138 0.0
C187 C 0.78592 0.16165 0.24184 0.0
H188 H 0.8083 0.20465 0.33003 0.0
H189 H 0.74363 0.094 0.64812 0.0
H190 H 0.68596 0.06765 0.57942 0.0
H191 H 0.6796 0.08208 0.42725 0.0
H192 H 0.73119 0.12297 0.34313 0.0
C193 C 0.79713 0.17618 0.32137 0.0
C194 C 0.80058 0.15746 0.39849 0.0
C195 C 0.77015 0.13297 0.44603 0.0
C196 C 0.77392 0.12503 0.53418 0.0
C197 C 0.74283 0.10131 0.58124 0.0
C198 C 0.70932 0.08586 0.54249 0.0
C199 C 0.70574 0.09396 0.45685 0.0
C200 C 0.73566 0.11746 0.40913 0.0
H201 H 0.83647 0.19914 0.68256 0.0
C202 C 0.82056 0.17364 0.71468 0.0
H203 H 0.79561 0.1182 0.70641 0.0
H204 H 0.8645 0.19814 0.31757 0.0
H205 H 0.92317 0.22175 0.38301 0.0
H206 H 0.92966 0.2084 0.53618 0.0
H207 H 0.87743 0.1713 0.62502 0.0
C208 C 0.81064 0.1431 0.67133 0.0
C209 C 0.80811 0.14238 0.57441 0.0
C210 C 0.83874 0.16299 0.5231 0.0
C211 C 0.83496 0.17052 0.43495 0.0
C212 C 0.86598 0.19198 0.38536 0.0
C213 C 0.89973 0.20548 0.42194 0.0
C214 C 0.90338 0.19796 0.50822 0.0
C215 C 0.8733 0.17689 0.55855 0.0
H216 H 0.51055 0.71667 0.3311 0.0
C217 C 0.53947 0.73115 0.32905 0.0
H218 H 0.5869 0.76241 0.39937 0.0
H219 H 0.53807 0.83689 0.65742 0.0
H220 H 0.5638 0.88207 0.5441 0.0
H221 H 0.57842 0.8678 0.39968 0.0
H222 H 0.56788 0.80854 0.36797 0.0
C223 C 0.55805 0.74641 0.40214 0.0
C224 C 0.54131 0.75196 0.48042 0.0
C225 C 0.54692 0.78653 0.49721 0.0
C226 C 0.53839 0.79477 0.58017 0.0
C227 C 0.54467 0.82955 0.59572 0.0
C228 C 0.55921 0.85559 0.53118 0.0
C229 C 0.56744 0.84757 0.44987 0.0
C230 C 0.5614 0.81349 0.43266 0.0
H231 H 0.57788 0.81259 0.74843 0.0
C232 C 0.55317 0.79639 0.7836 0.0
H233 H 0.49836 0.76178 0.77443 0.0
H234 H 0.52274 0.68224 0.46381 0.0
H235 H 0.49411 0.63615 0.57362 0.0
H236 H 0.47849 0.64983 0.71741 0.0
H237 H 0.49132 0.70922 0.75248 0.0
C238 C 0.52268 0.77834 0.73824 0.0
C239 C 0.52416 0.76841 0.64594 0.0
C240 C 0.51508 0.73281 0.6259 0.0
C241 C 0.52395 0.72472 0.54296 0.0
C242 C 0.5163 0.68959 0.52565 0.0
C243 C 0.49992 0.66293 0.58806 0.0
C244 C 0.49112 0.67063 0.66898 0.0
C245 C 0.49868 0.70506 0.68821 0.0
H246 H 0.84305 0.62414 0.47503 0.0
C247 C 0.82672 0.63399 0.44623 0.0
H248 H 0.80355 0.66614 0.45959 0.0
H249 H 0.76088 0.60672 0.84069 0.0
H250 H 0.70614 0.59854 0.77996 0.0
H251 H 0.70418 0.61878 0.63088 0.0
H252 H 0.75713 0.64694 0.54183 0.0
C253 C 0.81937 0.65624 0.4908 0.0
C254 C 0.82374 0.65904 0.58708 0.0
C255 C 0.79289 0.64508 0.64037 0.0
C256 C 0.79434 0.63474 0.72764 0.0
C257 C 0.76223 0.61697 0.77598 0.0
C258 C 0.73024 0.61165 0.7414 0.0
C259 C 0.72911 0.62294 0.65745 0.0
C260 C 0.75985 0.63906 0.60687 0.0
H261 H 0.8084 0.64449 0.93076 0.0
C262 C 0.81879 0.62657 0.92126 0.0
H263 H 0.83953 0.60432 0.83348 0.0
H264 H 0.88873 0.69576 0.50945 0.0
H265 H 0.94585 0.71113 0.57515 0.0
H266 H 0.94919 0.69524 0.72817 0.0
H267 H 0.89559 0.66383 0.81615 0.0
C268 C 0.82861 0.62188 0.8417 0.0
C269 C 0.82729 0.64067 0.76218 0.0
C270 C 0.85896 0.66 0.71289 0.0
C271 C 0.85715 0.66913 0.62503 0.0
C272 C 0.88893 0.68773 0.57624 0.0
C273 C 0.92175 0.69688 0.61332 0.0
C274 C 0.92362 0.68793 0.69946 0.0
C275 C 0.89269 0.66974 0.74904 0.0
H276 H 0.17504 0.79294 0.14986 0.0
C277 C 0.18749 0.81897 0.18051 0.0
H278 H 0.20378 0.87311 0.16837 0.0
H279 H 0.27115 0.87419 0.80467 0.0
H280 H 0.321 0.91887 0.88659 0.0
H281 H 0.31353 0.93224 0.03871 0.0
H282 H 0.25631 0.90082 0.10958 0.0
C283 C 0.19204 0.8476 0.13539 0.0
C284 C 0.19382 0.84762 0.03855 0.0
C285 C 0.22741 0.86786 0.99677 0.0
C286 C 0.23167 0.86065 0.90845 0.0
C287 C 0.26601 0.87909 0.8705 0.0
C288 C 0.29504 0.90481 0.91706 0.0
C289 C 0.29084 0.9123 0.00268 0.0
C290 C 0.25763 0.89395 0.04263 0.0
H291 H 0.22632 0.86093 0.69608 0.0
C292 C 0.21834 0.8331 0.70496 0.0
H293 H 0.19845 0.78914 0.79027 0.0
H294 H 0.12486 0.81143 0.09358 0.0
H295 H 0.07349 0.77008 0.00746 0.0
H296 H 0.08049 0.7584 0.85337 0.0
H297 H 0.13882 0.78788 0.78443 0.0
C298 C 0.20724 0.81727 0.78331 0.0
C299 C 0.20208 0.83403 0.86202 0.0
C300 C 0.16774 0.81752 0.90049 0.0
C301 C 0.16363 0.8242 0.98904 0.0
C302 C 0.12925 0.80674 0.02663 0.0
C303 C 0.09965 0.78318 0.97788 0.0
C304 C 0.10359 0.77661 0.8911 0.0
C305 C 0.13717 0.7935 0.8525 0.0
H306 H 0.38276 0.11215 0.44578 0.0
C307 C 0.3728 0.11892 0.50327 0.0
H308 H 0.33528 0.10173 0.60414 0.0
H309 H 0.28731 0.95785 0.35012 0.0
H310 H 0.27875 0.99034 0.23264 0.0
H311 H 0.293 0.05243 0.2533 0.0
H312 H 0.3161 0.08248 0.39149 0.0
C313 C 0.3441 0.09382 0.54636 0.0
C314 C 0.33128 0.05513 0.53545 0.0
C315 C 0.31705 0.03778 0.45508 0.0
C316 C 0.30847 0.00185 0.44363 0.0
C317 C 0.29466 0.98524 0.36218 0.0
C318 C 0.28939 0.0035 0.29435 0.0
C319 C 0.29742 0.03846 0.30597 0.0
C320 C 0.31092 0.05548 0.38539 0.0
H321 H 0.26671 0.91539 0.56985 0.0
C322 C 0.28599 0.9169 0.52237 0.0
H323 H 0.33024 0.95 0.44328 0.0
H324 H 0.35562 0.07923 0.70192 0.0
H325 H 0.36129 0.04567 0.82008 0.0
H326 H 0.34555 0.98317 0.7998 0.0
H327 H 0.32407 0.95399 0.66054 0.0
C328 C 0.31194 0.94878 0.49338 0.0
C329 C 0.3137 0.98315 0.51286 0.0
C330 C 0.32554 0.99961 0.59511 0.0
C331 C 0.33443 0.03567 0.60657 0.0
C332 C 0.34766 0.05181 0.68893 0.0
C333 C 0.35131 0.03287 0.75768 0.0
C334 C 0.34248 0.99771 0.74627 0.0
C335 C 0.33005 0.98123 0.66592 0.0
H336 H 0.40557 0.33075 0.70617 0.0
C337 C 0.3949 0.30385 0.68148 0.0
H338 H 0.35097 0.26057 0.62176 0.0
H339 H 0.29805 0.37216 0.77869 0.0
H340 H 0.30404 0.3524 0.92263 0.0
H341 H 0.32616 0.31027 0.94056 0.0
H342 H 0.34242 0.28764 0.81434 0.0
C343 C 0.36082 0.28593 0.65473 0.0
C344 C 0.34058 0.30516 0.64418 0.0
C345 C 0.33052 0.31751 0.71811 0.0
C346 C 0.31769 0.3417 0.70754 0.0
C347 C 0.30831 0.35404 0.78287 0.0
C348 C 0.31145 0.34277 0.86587 0.0
C349 C 0.3239 0.31905 0.87597 0.0
C350 C 0.33331 0.30643 0.80315 0.0
H351 H 0.25666 0.35772 0.57224 0.0
C352 C 0.27833 0.38235 0.59813 0.0
H353 H 0.33121 0.40922 0.64402 0.0
H354 H 0.35306 0.28296 0.48706 0.0
H355 H 0.34438 0.30064 0.34344 0.0
H356 H 0.32187 0.34244 0.32584 0.0
H357 H 0.30792 0.36688 0.45244 0.0
C358 C 0.31006 0.38496 0.61516 0.0
C359 C 0.31486 0.35343 0.62292 0.0
C360 C 0.32186 0.33864 0.54867 0.0
C361 C 0.33471 0.31439 0.55915 0.0
C362 C 0.3429 0.30115 0.48351 0.0
C363 C 0.3381 0.31115 0.40045 0.0
C364 C 0.32545 0.33471 0.39053 0.0
C365 C 0.31755 0.34853 0.46359 0.0
H366 H 0.90608 0.25187 0.83583 0.0
C367 C 0.90246 0.24232 0.90263 0.0
H368 H 0.92537 0.23428 0.01507 0.0
H369 H 0.05489 0.29829 0.71167 0.0
H370 H 0.01743 0.24497 0.62751 0.0
H371 H 0.95737 0.201 0.67923 0.0
H372 H 0.93418 0.21033 0.81449 0.0
C373 C 0.93001 0.24459 0.94884 0.0
C374 C 0.9677 0.26812 0.92203 0.0
C375 C 0.9811 0.26171 0.84421 0.0
C376 C 0.01593 0.28677 0.81529 0.0
C377 C 0.02848 0.2802 0.73622 0.0
C378 C 0.00736 0.24963 0.68764 0.0
C379 C 0.97353 0.2249 0.71668 0.0
C380 C 0.96045 0.23067 0.79415 0.0
H381 H 0.10966 0.34819 0.89792 0.0
C382 C 0.10297 0.35992 0.84373 0.0
H383 H 0.06228 0.35866 0.76499 0.0
H384 H 0.95162 0.2873 0.07951 0.0
H385 H 0.9902 0.33891 0.1658 0.0
H386 H 0.0509 0.38167 0.11602 0.0
H387 H 0.07329 0.37288 0.97937 0.0
C388 C 0.06866 0.34796 0.82195 0.0
C389 C 0.03748 0.31787 0.8648 0.0
C390 C 0.02523 0.32284 0.94614 0.0
C391 C 0.99023 0.29799 0.97483 0.0
C392 C 0.9781 0.30464 0.05467 0.0
C393 C 0.99994 0.3344 0.10495 0.0
C394 C 0.03409 0.35849 0.0769 0.0
C395 C 0.04663 0.35306 0.99823 0.0
H396 H 0.60853 0.88911 0.96146 0.0
C397 C 0.62501 0.8845 0.00703 0.0
H398 H 0.66907 0.90748 0.09259 0.0
H399 H 0.69741 0.05 0.86606 0.0
H400 H 0.7032 0.02048 0.73845 0.0
H401 H 0.69044 0.95844 0.7466 0.0
H402 H 0.6716 0.92554 0.88237 0.0
C403 C 0.65334 0.91226 0.04496 0.0
C404 C 0.66056 0.94949 0.03799 0.0
C405 C 0.67175 0.96835 0.95815 0.0
C406 C 0.67947 0.00425 0.95383 0.0
C407 C 0.69081 0.02257 0.8732 0.0
C408 C 0.69445 0.00601 0.79938 0.0
C409 C 0.68725 0.97109 0.80396 0.0
C410 C 0.67622 0.95242 0.88229 0.0
H411 H 0.7303 0.08351 0.0931 0.0
C412 C 0.71208 0.08678 0.05055 0.0
H413 H 0.66469 0.06127 0.97667 0.0
H414 H 0.63957 0.92103 0.20187 0.0
H415 H 0.63538 0.95122 0.33015 0.0
H416 H 0.64976 0.01378 0.32258 0.0
H417 H 0.66826 0.04644 0.18625 0.0
C418 C 0.68223 0.05799 0.02168 0.0
C419 C 0.67648 0.02137 0.02962 0.0
C420 C 0.66603 0.00281 0.1098 0.0
C421 C 0.65796 0.9668 0.11402 0.0
C422 C 0.6467 0.9486 0.19481 0.0
C423 C 0.64398 0.96556 0.26904 0.0
C424 C 0.65203 1.00076 0.26477 0.0
C425 C 0.66273 0.01924 0.18615 0.0
H426 H 0.72094 0.62261 0.01574 0.0
C427 C 0.74573 0.63476 0.05239 0.0
H428 H 0.78494 0.68141 0.11244 0.0
H429 H 0.68068 0.72267 0.86909 0.0
H430 H 0.71086 0.71606 0.74327 0.0
H431 H 0.75546 0.69703 0.76096 0.0
H432 H 0.77037 0.68481 0.90494 0.0
C433 C 0.76192 0.66972 0.06944 0.0
C434 C 0.74122 0.68841 0.05926 0.0
C435 C 0.73315 0.6959 0.97536 0.0
C436 C 0.70717 0.70649 0.96541 0.0
C437 C 0.6997 0.71386 0.88042 0.0
C438 C 0.71696 0.71036 0.8077 0.0
C439 C 0.74209 0.69966 0.81763 0.0
C440 C 0.75028 0.69258 0.90041 0.0
H441 H 0.67116 0.75843 0.09703 0.0
C442 C 0.65101 0.73756 0.05649 0.0
H443 H 0.63604 0.69119 0.98294 0.0
H444 H 0.75442 0.68108 0.23098 0.0
H445 H 0.72367 0.68615 0.3566 0.0
H446 H 0.6755 0.70018 0.3392 0.0
H447 H 0.65828 0.70971 0.19669 0.0
C448 C 0.65608 0.71143 0.02505 0.0
C449 C 0.68874 0.70887 0.03941 0.0
C450 C 0.69822 0.70313 0.12414 0.0
C451 C 0.72518 0.6938 0.13403 0.0
C452 C 0.73403 0.68796 0.21919 0.0
C453 C 0.71653 0.69073 0.29216 0.0
C454 C 0.68949 0.69871 0.28236 0.0
C455 C 0.68012 0.70453 0.19965 0.0
H456 H 0.90611 0.64401 0.35759 0.0
C457 C 0.90975 0.63429 0.2954 0.0
H458 H 0.94619 0.63653 0.20055 0.0
H459 H 0.08378 0.77619 0.28667 0.0
H460 H 0.06238 0.79579 0.16449 0.0
H461 H 1.00158 0.75818 0.10736 0.0
H462 H 0.96155 0.70095 0.1733 0.0
C463 C 0.94279 0.64502 0.26471 0.0
C464 C 0.97639 0.67011 0.31022 0.0
C465 C 0.99966 0.70339 0.27071 0.0
C466 C 0.03501 0.72478 0.30242 0.0
C467 C 0.05712 0.75836 0.26344 0.0
C468 C 0.04508 0.77007 0.19361 0.0
C469 C 0.01082 0.74891 0.16152 0.0
C470 C 0.98821 0.71603 0.19959 0.0
H471 H 0.11176 0.73589 0.28902 0.0
C472 C 0.11349 0.74064 0.35885 0.0
H473 H 0.08736 0.73949 0.47535 0.0
H474 H 0.93834 0.60828 0.40317 0.0
H475 H 0.95931 0.58889 0.52599 0.0
H476 H 0.02077 0.62531 0.57991 0.0
H477 H 0.06154 0.68118 0.51123 0.0
C478 C 0.08441 0.73365 0.4059 0.0
C479 C 0.04728 0.71244 0.37253 0.0
C480 C 0.0235 0.67976 0.4144 0.0
C481 C 0.98802 0.65864 0.3833 0.0
C482 C 0.96535 0.62567 0.42454 0.0
C483 C 0.97709 0.61409 0.49513 0.0
C484 C 0.01166 0.63459 0.52551 0.0
C485 C 0.03476 0.66687 0.48561 0.0
H486 H 0.56934 0.29708 0.50335 0.0
C487 C 0.55555 0.31027 0.47831 0.0
H488 H 0.55886 0.3521 0.40142 0.0
H489 H 0.72548 0.44649 0.46644 0.0
H490 H 0.71448 0.43831 0.62258 0.0
H491 H 0.65605 0.39256 0.67909 0.0
H492 H 0.60835 0.35462 0.58019 0.0
C493 C 0.57315 0.3397 0.42872 0.0
C494 C 0.61115 0.3562 0.40174 0.0
C495 C 0.63888 0.37753 0.46076 0.0
C496 C 0.67254 0.40421 0.42814 0.0
C497 C 0.69947 0.42602 0.48801 0.0
C498 C 0.6935 0.42155 0.57759 0.0
C499 C 0.66058 0.39578 0.60942 0.0
C500 C 0.63339 0.37414 0.55196 0.0
H501 H 0.6685 0.45981 0.27217 0.0
C502 C 0.69673 0.46834 0.27478 0.0
H503 H 0.73423 0.45382 0.31548 0.0
H504 H 0.56748 0.31276 0.27407 0.0
H505 H 0.58048 0.31753 0.11836 0.0
H506 H 0.63839 0.36458 0.06204 0.0
H507 H 0.68347 0.40696 0.16092 0.0
C508 C 0.70637 0.44515 0.30379 0.0
C509 C 0.67792 0.40988 0.33702 0.0
C510 C 0.6521 0.38499 0.27903 0.0
C511 C 0.61877 0.35802 0.31152 0.0
C512 C 0.59309 0.33395 0.25208 0.0
C513 C 0.60029 0.33631 0.16298 0.0
C514 C 0.63289 0.36278 0.13124 0.0
C515 C 0.6585 0.38702 0.18835 0.0
H516 H 0.20059 0.54274 0.62319 0.0
C517 C 0.22068 0.5353 0.63641 0.0
H518 H 0.27617 0.55449 0.64154 0.0
H519 H 0.28316 0.67754 0.3902 0.0
H520 H 0.30859 0.6506 0.29684 0.0
H521 H 0.31414 0.59974 0.34877 0.0
H522 H 0.29427 0.5754 0.4944 0.0
C523 C 0.25507 0.56087 0.63464 0.0
C524 C 0.26352 0.59798 0.61446 0.0
C525 C 0.27681 0.61287 0.53108 0.0
C526 C 0.27372 0.64232 0.50109 0.0
C527 C 0.28509 0.65534 0.41577 0.0
C528 C 0.29972 0.64015 0.36182 0.0
C529 C 0.30287 0.6115 0.3911 0.0
C530 C 0.29138 0.59776 0.47458 0.0
H531 H 0.28842 0.7265 0.50024 0.0
C532 C 0.25962 0.71213 0.49904 0.0
H533 H 0.21273 0.66309 0.51824 0.0
H534 H 0.24203 0.58026 0.78322 0.0
H535 H 0.2224 0.61102 0.88123 0.0
H536 H 0.21978 0.66378 0.8314 0.0
H537 H 0.23655 0.68583 0.683 0.0
C538 C 0.24166 0.67714 0.51769 0.0
C539 C 0.25801 0.65703 0.5554 0.0
C540 C 0.24986 0.64555 0.64308 0.0
C541 C 0.25207 0.61568 0.67231 0.0
C542 C 0.24143 0.6033 0.75851 0.0
C543 C 0.23006 0.62065 0.81519 0.0
C544 C 0.22855 0.65031 0.78711 0.0
C545 C 0.23809 0.66261 0.70191 0.0
H546 H 0.69094 0.23546 0.91477 0.0
C547 C 0.70719 0.23641 0.85988 0.0
H548 H 0.71853 0.24649 0.72693 0.0
H549 H 0.56298 0.19106 0.5983 0.0
H550 H 0.58094 0.15409 0.52007 0.0
H551 H 0.63868 0.15811 0.55042 0.0
H552 H 0.67873 0.19896 0.65807 0.0
C553 C 0.70173 0.24584 0.78024 0.0
C554 C 0.66821 0.24592 0.7578 0.0
C555 C 0.64509 0.22163 0.6937 0.0
C556 C 0.61142 0.21862 0.67732 0.0
C557 C 0.58866 0.19403 0.6139 0.0
C558 C 0.59865 0.1727 0.56837 0.0
C559 C 0.63118 0.17503 0.58533 0.0
C560 C 0.65411 0.19895 0.64733 0.0
H561 H 0.56731 0.2665 0.62867 0.0
C562 C 0.54941 0.24445 0.66986 0.0
H563 H 0.54487 0.2074 0.76589 0.0
H564 H 0.70775 0.29895 0.8734 0.0
H565 H 0.68957 0.33653 0.94932 0.0
H566 H 0.63036 0.32965 0.92339 0.0
H567 H 0.58914 0.28556 0.82111 0.0
C568 C 0.56256 0.22949 0.72424 0.0
C569 C 0.60059 0.23931 0.7256 0.0
C570 C 0.62433 0.26504 0.78537 0.0
C571 C 0.65829 0.26856 0.80118 0.0
C572 C 0.68154 0.29482 0.8605 0.0
C573 C 0.67145 0.31655 0.90408 0.0
C574 C 0.63809 0.31271 0.88951 0.0
C575 C 0.61466 0.28727 0.83092 0.0
H576 H 0.4406 0.67862 0.12043 0.0
C577 C 0.45299 0.67139 0.06897 0.0
H578 H 0.44537 0.63749 0.96233 0.0
H579 H 0.30394 0.50494 0.04238 0.0
H580 H 0.33778 0.49172 0.14529 0.0
H581 H 0.39744 0.53824 0.193 0.0
H582 H 0.42348 0.59857 0.13669 0.0
C583 C 0.433 0.64419 0.01495 0.0
C584 C 0.39368 0.62256 0.01837 0.0
C585 C 0.37796 0.58815 0.05492 0.0
C586 C 0.34314 0.56175 0.02917 0.0
C587 C 0.32951 0.5267 0.06163 0.0
C588 C 0.34889 0.51855 0.12053 0.0
C589 C 0.3825 0.5447 0.14723 0.0
C590 C 0.39714 0.57909 0.11438 0.0
H591 H 0.30747 0.55406 0.79737 0.0
C592 C 0.28872 0.53431 0.84256 0.0
H593 H 0.27117 0.5208 0.97107 0.0
H594 H 0.41418 0.68797 0.94936 0.0
H595 H 0.37806 0.70388 0.85899 0.0
H596 H 0.31595 0.65935 0.82297 0.0
H597 H 0.29001 0.59838 0.87586 0.0
C598 C 0.29057 0.54133 0.92855 0.0
C599 C 0.32369 0.5705 0.96884 0.0
C600 C 0.33774 0.60635 0.9424 0.0
C601 C 0.37308 0.63228 0.96573 0.0
C602 C 0.38736 0.66737 0.93376 0.0
C603 C 0.36687 0.67683 0.8823 0.0
C604 C 0.3319 0.65175 0.86195 0.0
C605 C 0.31739 0.61689 0.89175 0.0
H606 H 0.74021 0.4478 0.12727 0.0
C607 C 0.76893 0.46104 0.12338 0.0
H608 H 0.81422 0.45667 0.09795 0.0
H609 H 0.71383 0.28644 0.15368 0.0
H610 H 0.69545 0.29777 0.29414 0.0
H611 H 0.7106 0.35859 0.33628 0.0
H612 H 0.74378 0.40823 0.23805 0.0
C613 C 0.78537 0.44266 0.10363 0.0
C614 C 0.76673 0.40511 0.07364 0.0
C615 C 0.74757 0.37655 0.13244 0.0
C616 C 0.73963 0.34161 0.10906 0.0
C617 C 0.72079 0.31348 0.16877 0.0
C618 C 0.71009 0.31964 0.24941 0.0
C619 C 0.71859 0.35388 0.27311 0.0
C620 C 0.73748 0.38216 0.21593 0.0
H621 H 0.812 0.3356 0.02159 0.0
C622 C 0.78944 0.3087 0.0169 0.0
H623 H 0.73339 0.27749 0.02123 0.0
H624 H 0.7941 0.45188 0.93769 0.0
H625 H 0.80863 0.43957 0.79348 0.0
H626 H 0.79763 0.37964 0.7559 0.0
H627 H 0.77176 0.33162 0.86205 0.0
C628 C 0.75644 0.304 0.0184 0.0
C629 C 0.75239 0.33591 0.02914 0.0
C630 C 0.76734 0.36352 0.96633 0.0
C631 C 0.77406 0.39804 0.98833 0.0
C632 C 0.78906 0.42526 0.92456 0.0
C633 C 0.79734 0.41851 0.84158 0.0
C634 C 0.79114 0.38477 0.82041 0.0
C635 C 0.77644 0.35753 0.88193 0.0
H636 H 0.46092 0.74471 0.22128 0.0
C637 C 0.48011 0.77265 0.21073 0.0
H638 H 0.49085 0.82533 0.22184 0.0
H639 H 0.31325 0.72394 0.26585 0.0
H640 H 0.31258 0.69469 0.13009 0.0
H641 H 0.36859 0.71062 0.0536 0.0
H642 H 0.42533 0.7543 0.11358 0.0
C643 C 0.4714 0.79738 0.2311 0.0
C644 C 0.43665 0.78808 0.27294 0.0
C645 C 0.4036 0.76439 0.23233 0.0
C646 C 0.37112 0.75747 0.27216 0.0
C647 C 0.3385 0.73146 0.23513 0.0
C648 C 0.33777 0.7144 0.15774 0.0
C649 C 0.36932 0.7232 0.115 0.0
C650 C 0.40187 0.74807 0.15106 0.0
H651 H 0.33515 0.79587 0.24496 0.0
C652 C 0.32433 0.79034 0.31076 0.0
H653 H 0.33099 0.77683 0.43793 0.0
H654 H 0.49429 0.82971 0.37622 0.0
H655 H 0.49409 0.85883 0.51083 0.0
H656 H 0.43817 0.85125 0.57146 0.0
H657 H 0.38202 0.81429 0.49882 0.0
C658 C 0.33919 0.77912 0.37048 0.0
C659 C 0.37159 0.77704 0.34664 0.0
C660 C 0.4043 0.79895 0.39008 0.0
C661 C 0.43676 0.80405 0.35381 0.0
C662 C 0.46897 0.8256 0.39943 0.0
C663 C 0.46926 0.84233 0.47708 0.0
C664 C 0.43775 0.83806 0.51125 0.0
C665 C 0.40561 0.81675 0.46855 0.0
loop_
_geom_bond_atom_site_label_1
_geom_bond_atom_site_label_2
_geom_bond_distance
_geom_bond_site_symmetry_2
_ccdc_geom_bond_type
Zn0 O6 1.920 . S
Zn0 O12 1.898 . S
Zn0 O15 1.905 . S
Zn1 O9 1.905 . S
Zn1 O10 1.898 . S
Zn1 O18 1.920 . S
Zn2 O5 2.080 . S
Zn2 O8 2.114 . S
Zn2 O11 2.120 . S
Zn2 O13 2.120 . S
Zn2 O14 2.114 . S
Zn2 O17 2.080 . S
C3 O8 1.166 . S
C3 O9 1.182 . S
C4 O10 1.167 . S
C4 O11 1.299 . S
O5 Zn2 2.080 . S
O5 C19 1.305 . S
O6 Zn0 1.920 . S
O6 C19 1.234 . S
C7 O12 1.167 . S
C7 O13 1.299 . S
O8 Zn2 2.114 . S
O8 C3 1.166 . S
O9 Zn1 1.905 . S
O9 C3 1.182 . S
O10 Zn1 1.898 . S
O10 C4 1.167 . S
O11 Zn2 2.120 . S
O11 C4 1.299 . S
O12 Zn0 1.898 . S
O12 C7 1.167 . S
O13 Zn2 2.120 . S
O13 C7 1.299 . S
O14 Zn2 2.114 . S
O14 C16 1.166 . S
O15 Zn0 1.905 . S
O15 C16 1.182 . S
C16 O14 1.166 . S
C16 O15 1.182 . S
O17 Zn2 2.080 . S
O17 C20 1.305 . S
O18 Zn1 1.920 . S
O18 C20 1.234 . S
C19 O5 1.305 . S
C19 O6 1.234 . S
C20 O17 1.305 . S
C20 O18 1.234 . S
Zn21 O27 1.920 . S
Zn21 O33 1.898 . S
Zn21 O36 1.905 . S
Zn22 O30 1.905 . S
Zn22 O31 1.898 . S
Zn22 O39 1.920 . S
Zn23 O26 2.080 . S
Zn23 O29 2.114 . S
Zn23 O32 2.120 . S
Zn23 O34 2.120 . S
Zn23 O35 2.114 . S
Zn23 O38 2.080 . S
C24 O29 1.166 . S
C24 O30 1.182 . S
C25 O31 1.167 . S
C25 O32 1.299 . S
O26 Zn23 2.080 . S
O26 C40 1.305 . S
O27 Zn21 1.920 . S
O27 C40 1.234 . S
C28 O33 1.167 . S
C28 O34 1.299 . S
O29 Zn23 2.114 . S
O29 C24 1.166 . S
O30 Zn22 1.905 . S
O30 C24 1.182 . S
O31 Zn22 1.898 . S
O31 C25 1.167 . S
O32 Zn23 2.120 . S
O32 C25 1.299 . S
O33 Zn21 1.898 . S
O33 C28 1.167 . S
O34 Zn23 2.120 . S
O34 C28 1.299 . S
O35 Zn23 2.114 . S
O35 C37 1.166 . S
O36 Zn21 1.905 . S
O36 C37 1.182 . S
C37 O35 1.166 . S
C37 O36 1.182 . S
O38 Zn23 2.080 . S
O38 C41 1.305 . S
O39 Zn22 1.920 . S
O39 C41 1.234 . S
C40 O26 1.305 . S
C40 O27 1.234 . S
C41 O38 1.305 . S
C41 O39 1.234 . S
Zn42 O48 1.920 . S
Zn42 O54 1.898 . S
Zn42 O57 1.905 . S
Zn43 O51 1.905 . S
Zn43 O52 1.898 . S
Zn43 O60 1.920 1_554 S
Zn44 O47 2.080 . S
Zn44 O50 2.114 1_556 S
Zn44 O53 2.120 . S
Zn44 O55 2.120 . S
Zn44 O56 2.114 . S
Zn44 O59 2.080 . S
C45 O50 1.166 . S
C45 O51 1.182 . S
C46 O52 1.167 1_556 S
C46 O53 1.299 . S
O47 Zn44 2.080 . S
O47 C61 1.305 . S
O48 Zn42 1.920 . S
O48 C61 1.234 . S
C49 O54 1.167 . S
C49 O55 1.299 . S
O50 Zn44 2.114 1_554 S
O50 C45 1.166 . S
O51 Zn43 1.905 . S
O51 C45 1.182 . S
O52 Zn43 1.898 . S
O52 C46 1.167 1_554 S
O53 Zn44 2.120 . S
O53 C46 1.299 . S
O54 Zn42 1.898 . S
O54 C49 1.167 . S
O55 Zn44 2.120 . S
O55 C49 1.299 . S
O56 Zn44 2.114 . S
O56 C58 1.166 . S
O57 Zn42 1.905 . S
O57 C58 1.182 . S
C58 O56 1.166 . S
C58 O57 1.182 . S
O59 Zn44 2.080 . S
O59 C62 1.305 . S
O60 Zn43 1.920 1_556 S
O60 C62 1.234 . S
C61 O47 1.305 . S
C61 O48 1.234 . S
C62 O59 1.305 . S
C62 O60 1.234 . S
Zn63 O69 1.920 . S
Zn63 O75 1.898 1_556 S
Zn63 O78 1.905 . S
Zn64 O72 1.905 . S
Zn64 O73 1.898 . S
Zn64 O81 1.920 . S
Zn65 O68 2.080 1_554 S
Zn65 O71 2.114 . S
Zn65 O74 2.120 . S
Zn65 O76 2.120 . S
Zn65 O77 2.114 . S
Zn65 O80 2.080 . S
C66 O71 1.166 . S
C66 O72 1.182 . S
C67 O73 1.167 . S
C67 O74 1.299 . S
O68 Zn65 2.080 1_556 S
O68 C82 1.305 . S
O69 Zn63 1.920 . S
O69 C82 1.234 . S
C70 O75 1.167 . S
C70 O76 1.299 . S
O71 Zn65 2.114 . S
O71 C66 1.166 . S
O72 Zn64 1.905 . S
O72 C66 1.182 . S
O73 Zn64 1.898 . S
O73 C67 1.167 . S
O74 Zn65 2.120 . S
O74 C67 1.299 . S
O75 Zn63 1.898 1_554 S
O75 C70 1.167 . S
O76 Zn65 2.120 . S
O76 C70 1.299 . S
O77 Zn65 2.114 . S
O77 C79 1.166 . S
O78 Zn63 1.905 . S
O78 C79 1.182 1_556 S
C79 O77 1.166 . S
C79 O78 1.182 1_554 S
O80 Zn65 2.080 . S
O80 C83 1.305 . S
O81 Zn64 1.920 . S
O81 C83 1.234 . S
C82 O68 1.305 . S
C82 O69 1.234 . S
C83 O80 1.305 . S
C83 O81 1.234 . S
Zn84 O90 1.920 . S
Zn84 O96 1.898 . S
Zn84 O99 1.905 . S
Zn85 O93 1.905 . S
Zn85 O94 1.898 . S
Zn85 O102 1.920 . S
Zn86 O89 2.080 . S
Zn86 O92 2.114 . S
Zn86 O95 2.120 . S
Zn86 O97 2.120 . S
Zn86 O98 2.114 . S
Zn86 O101 2.080 . S
C87 O92 1.166 . S
C87 O93 1.182 . S
C88 O94 1.167 . S
C88 O95 1.299 . S
O89 Zn86 2.080 . S
O89 C103 1.305 . S
O90 Zn84 1.920 . S
O90 C103 1.234 . S
C91 O96 1.167 . S
C91 O97 1.299 . S
O92 Zn86 2.114 . S
O92 C87 1.166 . S
O93 Zn85 1.905 . S
O93 C87 1.182 . S
O94 Zn85 1.898 . S
O94 C88 1.167 . S
O95 Zn86 2.120 . S
O95 C88 1.299 . S
O96 Zn84 1.898 . S
O96 C91 1.167 . S
O97 Zn86 2.120 . S
O97 C91 1.299 . S
O98 Zn86 2.114 . S
O98 C100 1.166 . S
O99 Zn84 1.905 . S
O99 C100 1.182 . S
C100 O98 1.166 . S
C100 O99 1.182 . S
O101 Zn86 2.080 . S
O101 C104 1.305 . S
O102 Zn85 1.920 . S
O102 C104 1.234 . S
C103 O89 1.305 . S
C103 O90 1.234 . S
C104 O101 1.305 . S
C104 O102 1.234 . S
Zn105 O111 1.920 . S
Zn105 O117 1.898 . S
Zn105 O120 1.905 . S
Zn106 O114 1.905 . S
Zn106 O115 1.898 . S
Zn106 O123 1.920 . S
Zn107 O110 2.080 . S
Zn107 O113 2.114 . S
Zn107 O116 2.120 . S
Zn107 O118 2.120 . S
Zn107 O119 2.114 . S
Zn107 O122 2.080 . S
C108 O113 1.166 . S
C108 O114 1.182 . S
C109 O115 1.167 . S
C109 O116 1.299 . S
O110 Zn107 2.080 . S
O110 C124 1.305 . S
O111 Zn105 1.920 . S
O111 C124 1.234 . S
C112 O117 1.167 . S
C112 O118 1.299 . S
O113 Zn107 2.114 . S
O113 C108 1.166 . S
O114 Zn106 1.905 . S
O114 C108 1.182 . S
O115 Zn106 1.898 . S
O115 C109 1.167 . S
O116 Zn107 2.120 . S
O116 C109 1.299 . S
O117 Zn105 1.898 . S
O117 C112 1.167 . S
O118 Zn107 2.120 . S
O118 C112 1.299 . S
O119 Zn107 2.114 . S
O119 C121 1.166 . S
O120 Zn105 1.905 . S
O120 C121 1.182 . S
C121 O119 1.166 . S
C121 O120 1.182 . S
O122 Zn107 2.080 . S
O122 C125 1.305 . S
O123 Zn106 1.920 . S
O123 C125 1.234 . S
C124 O110 1.305 . S
C124 O111 1.234 . S
C125 O122 1.305 . S
C125 O123 1.234 . S
H126 C127 0.951 . S
C127 H126 0.951 . S
C127 C133 1.265 . S
H128 C133 0.950 . S
H129 C137 0.949 . S
H130 C138 0.950 1_556 S
H131 C139 0.951 . S
H132 C140 0.951 . S
C133 C127 1.265 . S
C133 H128 0.950 . S
C133 C134 1.478 . S
C134 C133 1.478 . S
C134 C135 1.397 . S
C134 C151 1.394 . S
C135 C134 1.397 . S
C135 C136 1.438 . S
C135 C140 1.429 . S
C136 C135 1.438 . S
C136 C137 1.428 1_554 S
C136 C149 1.394 1_554 S
C137 H129 0.949 . S
C137 C136 1.428 1_556 S
C137 C138 1.345 1_556 S
C138 H130 0.950 1_554 S
C138 C137 1.345 1_554 S
C138 C139 1.424 . S
C139 H131 0.951 . S
C139 C138 1.424 . S
C139 C140 1.347 . S
C140 H132 0.951 . S
C140 C135 1.429 . S
C140 C139 1.347 . S
H141 C142 0.951 . S
C142 H141 0.951 . S
C142 C148 1.265 . S
H143 C148 0.950 . S
H144 C152 0.949 . S
H145 C153 0.950 . S
H146 C154 0.951 . S
H147 C155 0.951 . S
C148 C142 1.265 . S
C148 H143 0.950 . S
C148 C149 1.478 . S
C149 C136 1.394 1_556 S
C149 C148 1.478 . S
C149 C150 1.397 1_556 S
C150 C149 1.397 1_554 S
C150 C151 1.438 . S
C150 C155 1.429 1_554 S
C151 C134 1.394 . S
C151 C150 1.438 . S
C151 C152 1.428 . S
C152 H144 0.949 . S
C152 C151 1.428 . S
C152 C153 1.345 . S
C153 H145 0.950 . S
C153 C152 1.345 . S
C153 C154 1.424 . S
C154 H146 0.951 . S
C154 C153 1.424 . S
C154 C155 1.347 1_554 S
C155 H147 0.951 . S
C155 C150 1.429 1_556 S
C155 C154 1.347 1_556 S
H156 C157 0.951 . S
C157 H156 0.951 . S
C157 C163 1.265 . S
H158 C163 0.950 . S
H159 C167 0.949 . S
H160 C168 0.950 . S
H161 C169 0.951 . S
H162 C170 0.951 . S
C163 C157 1.265 . S
C163 H158 0.950 . S
C163 C164 1.478 . S
C164 C163 1.478 . S
C164 C165 1.397 . S
C164 C181 1.394 . S
C165 C164 1.397 . S
C165 C166 1.438 . S
C165 C170 1.429 . S
C166 C165 1.438 . S
C166 C167 1.428 . S
C166 C179 1.394 . S
C167 H159 0.949 . S
C167 C166 1.428 . S
C167 C168 1.345 . S
C168 H160 0.950 . S
C168 C167 1.345 . S
C168 C169 1.424 . S
C169 H161 0.951 . S
C169 C168 1.424 . S
C169 C170 1.347 . S
C170 H162 0.951 . S
C170 C165 1.429 . S
C170 C169 1.347 . S
H171 C172 0.951 . S
C172 H171 0.951 . S
C172 C178 1.265 . S
H173 C178 0.950 . S
H174 C182 0.949 . S
H175 C183 0.950 . S
H176 C184 0.951 . S
H177 C185 0.951 . S
C178 C172 1.265 . S
C178 H173 0.950 . S
C178 C179 1.478 . S
C179 C166 1.394 . S
C179 C178 1.478 . S
C179 C180 1.397 . S
C180 C179 1.397 . S
C180 C181 1.438 . S
C180 C185 1.429 . S
C181 C164 1.394 . S
C181 C180 1.438 . S
C181 C182 1.428 . S
C182 H174 0.949 . S
C182 C181 1.428 . S
C182 C183 1.345 . S
C183 H175 0.950 . S
C183 C182 1.345 . S
C183 C184 1.424 . S
C184 H176 0.951 . S
C184 C183 1.424 . S
C184 C185 1.347 . S
C185 H177 0.951 . S
C185 C180 1.429 . S
C185 C184 1.347 . S
H186 C187 0.951 . S
C187 H186 0.951 . S
C187 C193 1.265 . S
H188 C193 0.950 . S
H189 C197 0.949 . S
H190 C198 0.950 . S
H191 C199 0.951 . S
H192 C200 0.951 . S
C193 C187 1.265 . S
C193 H188 0.950 . S
C193 C194 1.478 . S
C194 C193 1.478 . S
C194 C195 1.397 . S
C194 C211 1.394 . S
C195 C194 1.397 . S
C195 C196 1.438 . S
C195 C200 1.429 . S
C196 C195 1.438 . S
C196 C197 1.428 . S
C196 C209 1.394 . S
C197 H189 0.949 . S
C197 C196 1.428 . S
C197 C198 1.345 . S
C198 H190 0.950 . S
C198 C197 1.345 . S
C198 C199 1.424 . S
C199 H191 0.951 . S
C199 C198 1.424 . S
C199 C200 1.347 . S
C200 H192 0.951 . S
C200 C195 1.429 . S
C200 C199 1.347 . S
H201 C202 0.951 . S
C202 H201 0.951 . S
C202 C208 1.265 . S
H203 C208 0.950 . S
H204 C212 0.949 . S
H205 C213 0.950 . S
H206 C214 0.951 . S
H207 C215 0.951 . S
C208 C202 1.265 . S
C208 H203 0.950 . S
C208 C209 1.478 . S
C209 C196 1.394 . S
C209 C208 1.478 . S
C209 C210 1.397 . S
C210 C209 1.397 . S
C210 C211 1.438 . S
C210 C215 1.429 . S
C211 C194 1.394 . S
C211 C210 1.438 . S
C211 C212 1.428 . S
C212 H204 0.949 . S
C212 C211 1.428 . S
C212 C213 1.345 . S
C213 H205 0.950 . S
C213 C212 1.345 . S
C213 C214 1.424 . S
C214 H206 0.951 . S
C214 C213 1.424 . S
C214 C215 1.347 . S
C215 H207 0.951 . S
C215 C210 1.429 . S
C215 C214 1.347 . S
H216 C217 0.951 . S
C217 H216 0.951 . S
C217 C223 1.265 . S
H218 C223 0.950 . S
H219 C227 0.949 . S
H220 C228 0.950 . S
H221 C229 0.951 . S
H222 C230 0.951 . S
C223 C217 1.265 . S
C223 H218 0.950 . S
C223 C224 1.478 . S
C224 C223 1.478 . S
C224 C225 1.397 . S
C224 C241 1.394 . S
C225 C224 1.397 . S
C225 C226 1.438 . S
C225 C230 1.429 . S
C226 C225 1.438 . S
C226 C227 1.428 . S
C226 C239 1.394 . S
C227 H219 0.949 . S
C227 C226 1.428 . S
C227 C228 1.345 . S
C228 H220 0.950 . S
C228 C227 1.345 . S
C228 C229 1.424 . S
C229 H221 0.951 . S
C229 C228 1.424 . S
C229 C230 1.347 . S
C230 H222 0.951 . S
C230 C225 1.429 . S
C230 C229 1.347 . S
H231 C232 0.951 . S
C232 H231 0.951 . S
C232 C238 1.265 . S
H233 C238 0.950 . S
H234 C242 0.949 . S
H235 C243 0.950 . S
H236 C244 0.951 . S
H237 C245 0.951 . S
C238 C232 1.265 . S
C238 H233 0.950 . S
C238 C239 1.478 . S
C239 C226 1.394 . S
C239 C238 1.478 . S
C239 C240 1.397 . S
C240 C239 1.397 . S
C240 C241 1.438 . S
C240 C245 1.429 . S
C241 C224 1.394 . S
C241 C240 1.438 . S
C241 C242 1.428 . S
C242 H234 0.949 . S
C242 C241 1.428 . S
C242 C243 1.345 . S
C243 H235 0.950 . S
C243 C242 1.345 . S
C243 C244 1.424 . S
C244 H236 0.951 . S
C244 C243 1.424 . S
C244 C245 1.347 . S
C245 H237 0.951 . S
C245 C240 1.429 . S
C245 C244 1.347 . S
H246 C247 0.951 . S
C247 H246 0.951 . S
C247 C253 1.265 . S
H248 C253 0.950 . S
H249 C257 0.949 . S
H250 C258 0.950 . S
H251 C259 0.951 . S
H252 C260 0.951 . S
C253 C247 1.265 . S
C253 H248 0.950 . S
C253 C254 1.478 . S
C254 C253 1.478 . S
C254 C255 1.397 . S
C254 C271 1.394 . S
C255 C254 1.397 . S
C255 C256 1.438 . S
C255 C260 1.429 . S
C256 C255 1.438 . S
C256 C257 1.428 . S
C256 C269 1.394 . S
C257 H249 0.949 . S
C257 C256 1.428 . S
C257 C258 1.345 . S
C258 H250 0.950 . S
C258 C257 1.345 . S
C258 C259 1.424 . S
C259 H251 0.951 . S
C259 C258 1.424 . S
C259 C260 1.347 . S
C260 H252 0.951 . S
C260 C255 1.429 . S
C260 C259 1.347 . S
H261 C262 0.951 . S
C262 H261 0.951 . S
C262 C268 1.265 . S
H263 C268 0.950 . S
H264 C272 0.949 . S
H265 C273 0.950 . S
H266 C274 0.951 . S
H267 C275 0.951 . S
C268 C262 1.265 . S
C268 H263 0.950 . S
C268 C269 1.478 . S
C269 C256 1.394 . S
C269 C268 1.478 . S
C269 C270 1.397 . S
C270 C269 1.397 . S
C270 C271 1.438 . S
C270 C275 1.429 . S
C271 C254 1.394 . S
C271 C270 1.438 . S
C271 C272 1.428 . S
C272 H264 0.949 . S
C272 C271 1.428 . S
C272 C273 1.345 . S
C273 H265 0.950 . S
C273 C272 1.345 . S
C273 C274 1.424 . S
C274 H266 0.951 . S
C274 C273 1.424 . S
C274 C275 1.347 . S
C275 H267 0.951 . S
C275 C270 1.429 . S
C275 C274 1.347 . S
H276 C277 0.951 . S
C277 H276 0.951 . S
C277 C283 1.265 . S
H278 C283 0.950 . S
H279 C287 0.949 . S
H280 C288 0.950 . S
H281 C289 0.951 . S
H282 C290 0.951 1_554 S
C283 C277 1.265 . S
C283 H278 0.950 . S
C283 C284 1.478 . S
C284 C283 1.478 . S
C284 C285 1.397 1_554 S
C284 C301 1.394 1_554 S
C285 C284 1.397 1_556 S
C285 C286 1.438 . S
C285 C290 1.429 . S
C286 C285 1.438 . S
C286 C287 1.428 . S
C286 C299 1.394 . S
C287 H279 0.949 . S
C287 C286 1.428 . S
C287 C288 1.345 . S
C288 H280 0.950 . S
C288 C287 1.345 . S
C288 C289 1.424 . S
C289 H281 0.951 . S
C289 C288 1.424 . S
C289 C290 1.347 . S
C290 H282 0.951 1_556 S
C290 C285 1.429 . S
C290 C289 1.347 . S
H291 C292 0.951 . S
C292 H291 0.951 . S
C292 C298 1.265 . S
H293 C298 0.950 . S
H294 C302 0.949 . S
H295 C303 0.950 1_554 S
H296 C304 0.951 . S
H297 C305 0.951 . S
C298 C292 1.265 . S
C298 H293 0.950 . S
C298 C299 1.478 . S
C299 C286 1.394 . S
C299 C298 1.478 . S
C299 C300 1.397 . S
C300 C299 1.397 . S
C300 C301 1.438 . S
C300 C305 1.429 . S
C301 C284 1.394 1_556 S
C301 C300 1.438 . S
C301 C302 1.428 1_556 S
C302 H294 0.949 . S
C302 C301 1.428 1_554 S
C302 C303 1.345 1_554 S
C303 H295 0.950 1_556 S
C303 C302 1.345 1_556 S
C303 C304 1.424 . S
C304 H296 0.951 . S
C304 C303 1.424 . S
C304 C305 1.347 . S
C305 H297 0.951 . S
C305 C300 1.429 . S
C305 C304 1.347 . S
H306 C307 0.951 . S
C307 H306 0.951 . S
C307 C313 1.265 . S
H308 C313 0.950 . S
H309 C317 0.949 . S
H310 C318 0.950 . S
H311 C319 0.951 . S
H312 C320 0.951 . S
C313 C307 1.265 . S
C313 H308 0.950 . S
C313 C314 1.478 . S
C314 C313 1.478 . S
C314 C315 1.397 . S
C314 C331 1.394 . S
C315 C314 1.397 . S
C315 C316 1.438 1_545 S
C315 C320 1.429 . S
C316 C315 1.438 1_565 S
C316 C317 1.428 . S
C316 C329 1.394 . S
C317 H309 0.949 . S
C317 C316 1.428 . S
C317 C318 1.345 . S
C318 H310 0.950 . S
C318 C317 1.345 . S
C318 C319 1.424 1_565 S
C319 H311 0.951 . S
C319 C318 1.424 1_545 S
C319 C320 1.347 . S
C320 H312 0.951 . S
C320 C315 1.429 . S
C320 C319 1.347 . S
H321 C322 0.951 . S
C322 H321 0.951 . S
C322 C328 1.265 . S
H323 C328 0.950 . S
H324 C332 0.949 . S
H325 C333 0.950 . S
H326 C334 0.951 . S
H327 C335 0.951 . S
C328 C322 1.265 . S
C328 H323 0.950 . S
C328 C329 1.478 . S
C329 C316 1.394 . S
C329 C328 1.478 . S
C329 C330 1.397 . S
C330 C329 1.397 . S
C330 C331 1.438 1_565 S
C330 C335 1.429 . S
C331 C314 1.394 . S
C331 C330 1.438 1_545 S
C331 C332 1.428 . S
C332 H324 0.949 . S
C332 C331 1.428 . S
C332 C333 1.345 . S
C333 H325 0.950 . S
C333 C332 1.345 . S
C333 C334 1.424 1_545 S
C334 H326 0.951 . S
C334 C333 1.424 1_565 S
C334 C335 1.347 . S
C335 H327 0.951 . S
C335 C330 1.429 . S
C335 C334 1.347 . S
H336 C337 0.951 . S
C337 H336 0.951 . S
C337 C343 1.265 . S
H338 C343 0.950 . S
H339 C347 0.949 . S
H340 C348 0.950 . S
H341 C349 0.951 . S
H342 C350 0.951 . S
C343 C337 1.265 . S
C343 H338 0.950 . S
C343 C344 1.478 . S
C344 C343 1.478 . S
C344 C345 1.397 . S
C344 C361 1.394 . S
C345 C344 1.397 . S
C345 C346 1.438 . S
C345 C350 1.429 . S
C346 C345 1.438 . S
C346 C347 1.428 . S
C346 C359 1.394 . S
C347 H339 0.949 . S
C347 C346 1.428 . S
C347 C348 1.345 . S
C348 H340 0.950 . S
C348 C347 1.345 . S
C348 C349 1.424 . S
C349 H341 0.951 . S
C349 C348 1.424 . S
C349 C350 1.347 . S
C350 H342 0.951 . S
C350 C345 1.429 . S
C350 C349 1.347 . S
H351 C352 0.951 . S
C352 H351 0.951 . S
C352 C358 1.265 . S
H353 C358 0.950 . S
H354 C362 0.949 . S
H355 C363 0.950 . S
H356 C364 0.951 . S
H357 C365 0.951 . S
C358 C352 1.265 . S
C358 H353 0.950 . S
C358 C359 1.478 . S
C359 C346 1.394 . S
C359 C358 1.478 . S
C359 C360 1.397 . S
C360 C359 1.397 . S
C360 C361 1.438 . S
C360 C365 1.429 . S
C361 C344 1.394 . S
C361 C360 1.438 . S
C361 C362 1.428 . S
C362 H354 0.949 . S
C362 C361 1.428 . S
C362 C363 1.345 . S
C363 H355 0.950 . S
C363 C362 1.345 . S
C363 C364 1.424 . S
C364 H356 0.951 . S
C364 C363 1.424 . S
C364 C365 1.347 . S
C365 H357 0.951 . S
C365 C360 1.429 . S
C365 C364 1.347 . S
H366 C367 0.951 . S
C367 H366 0.951 . S
C367 C373 1.265 . S
H368 C373 0.950 . S
H369 C377 0.949 . S
H370 C378 0.950 . S
H371 C379 0.951 . S
H372 C380 0.951 . S
C373 C367 1.265 . S
C373 H368 0.950 . S
C373 C374 1.478 . S
C374 C373 1.478 . S
C374 C375 1.397 . S
C374 C391 1.394 . S
C375 C374 1.397 . S
C375 C376 1.438 1_655 S
C375 C380 1.429 . S
C376 C375 1.438 1_455 S
C376 C377 1.428 . S
C376 C389 1.394 . S
C377 H369 0.949 . S
C377 C376 1.428 . S
C377 C378 1.345 . S
C378 H370 0.950 . S
C378 C377 1.345 . S
C378 C379 1.424 1_455 S
C379 H371 0.951 . S
C379 C378 1.424 1_655 S
C379 C380 1.347 . S
C380 H372 0.951 . S
C380 C375 1.429 . S
C380 C379 1.347 . S
H381 C382 0.951 . S
C382 H381 0.951 . S
C382 C388 1.265 . S
H383 C388 0.950 . S
H384 C392 0.949 . S
H385 C393 0.950 . S
H386 C394 0.951 . S
H387 C395 0.951 . S
C388 C382 1.265 . S
C388 H383 0.950 . S
C388 C389 1.478 . S
C389 C376 1.394 . S
C389 C388 1.478 . S
C389 C390 1.397 . S
C390 C389 1.397 . S
C390 C391 1.438 1_455 S
C390 C395 1.429 . S
C391 C374 1.394 . S
C391 C390 1.438 1_655 S
C391 C392 1.428 . S
C392 H384 0.949 . S
C392 C391 1.428 . S
C392 C393 1.345 1_556 S
C393 H385 0.950 . S
C393 C392 1.345 1_554 S
C393 C394 1.424 1_655 S
C394 H386 0.951 . S
C394 C393 1.424 1_455 S
C394 C395 1.347 1_554 S
C395 H387 0.951 . S
C395 C390 1.429 . S
C395 C394 1.347 1_556 S
H396 C397 0.951 . S
C397 H396 0.951 . S
C397 C403 1.265 . S
H398 C403 0.950 . S
H399 C407 0.949 . S
H400 C408 0.950 . S
H401 C409 0.951 . S
H402 C410 0.951 . S
C403 C397 1.265 . S
C403 H398 0.950 . S
C403 C404 1.478 . S
C404 C403 1.478 . S
C404 C405 1.397 1_554 S
C404 C421 1.394 . S
C405 C404 1.397 1_556 S
C405 C406 1.438 1_565 S
C405 C410 1.429 . S
C406 C405 1.438 1_545 S
C406 C407 1.428 . S
C406 C419 1.394 . S
C407 H399 0.949 . S
C407 C406 1.428 . S
C407 C408 1.345 . S
C408 H400 0.950 . S
C408 C407 1.345 . S
C408 C409 1.424 1_545 S
C409 H401 0.951 . S
C409 C408 1.424 1_565 S
C409 C410 1.347 . S
C410 H402 0.951 . S
C410 C405 1.429 . S
C410 C409 1.347 . S
H411 C412 0.951 . S
C412 H411 0.951 . S
C412 C418 1.265 . S
H413 C418 0.950 . S
H414 C422 0.949 . S
H415 C423 0.950 . S
H416 C424 0.951 . S
H417 C425 0.951 . S
C418 C412 1.265 . S
C418 H413 0.950 . S
C418 C419 1.478 . S
C419 C406 1.394 . S
C419 C418 1.478 . S
C419 C420 1.397 1_556 S
C420 C419 1.397 1_554 S
C420 C421 1.438 1_545 S
C420 C425 1.429 . S
C421 C404 1.394 . S
C421 C420 1.438 1_565 S
C421 C422 1.428 . S
C422 H414 0.949 . S
C422 C421 1.428 . S
C422 C423 1.345 . S
C423 H415 0.950 . S
C423 C422 1.345 . S
C423 C424 1.424 1_565 S
C424 H416 0.951 . S
C424 C423 1.424 1_545 S
C424 C425 1.347 . S
C425 H417 0.951 . S
C425 C420 1.429 . S
C425 C424 1.347 . S
H426 C427 0.951 . S
C427 H426 0.951 . S
C427 C433 1.265 . S
H428 C433 0.950 . S
H429 C437 0.949 . S
H430 C438 0.950 . S
H431 C439 0.951 . S
H432 C440 0.951 . S
C433 C427 1.265 . S
C433 H428 0.950 . S
C433 C434 1.478 . S
C434 C433 1.478 . S
C434 C435 1.397 . S
C434 C451 1.394 . S
C435 C434 1.397 . S
C435 C436 1.438 . S
C435 C440 1.429 . S
C436 C435 1.438 . S
C436 C437 1.428 . S
C436 C449 1.394 . S
C437 H429 0.949 . S
C437 C436 1.428 . S
C437 C438 1.345 . S
C438 H430 0.950 . S
C438 C437 1.345 . S
C438 C439 1.424 . S
C439 H431 0.951 . S
C439 C438 1.424 . S
C439 C440 1.347 . S
C440 H432 0.951 . S
C440 C435 1.429 . S
C440 C439 1.347 . S
H441 C442 0.951 . S
C442 H441 0.951 . S
C442 C448 1.265 . S
H443 C448 0.950 . S
H444 C452 0.949 . S
H445 C453 0.950 . S
H446 C454 0.951 . S
H447 C455 0.951 . S
C448 C442 1.265 . S
C448 H443 0.950 . S
C448 C449 1.478 . S
C449 C436 1.394 . S
C449 C448 1.478 . S
C449 C450 1.397 . S
C450 C449 1.397 . S
C450 C451 1.438 . S
C450 C455 1.429 . S
C451 C434 1.394 . S
C451 C450 1.438 . S
C451 C452 1.428 . S
C452 H444 0.949 . S
C452 C451 1.428 . S
C452 C453 1.345 . S
C453 H445 0.950 . S
C453 C452 1.345 . S
C453 C454 1.424 . S
C454 H446 0.951 . S
C454 C453 1.424 . S
C454 C455 1.347 . S
C455 H447 0.951 . S
C455 C450 1.429 . S
C455 C454 1.347 . S
H456 C457 0.951 . S
C457 H456 0.951 . S
C457 C463 1.265 . S
H458 C463 0.950 . S
H459 C467 0.949 . S
H460 C468 0.950 . S
H461 C469 0.951 . S
H462 C470 0.951 . S
C463 C457 1.265 . S
C463 H458 0.950 . S
C463 C464 1.478 . S
C464 C463 1.478 . S
C464 C465 1.397 . S
C464 C481 1.394 . S
C465 C464 1.397 . S
C465 C466 1.438 1_655 S
C465 C470 1.429 . S
C466 C465 1.438 1_455 S
C466 C467 1.428 . S
C466 C479 1.394 . S
C467 H459 0.949 . S
C467 C466 1.428 . S
C467 C468 1.345 . S
C468 H460 0.950 . S
C468 C467 1.345 . S
C468 C469 1.424 . S
C469 H461 0.951 . S
C469 C468 1.424 . S
C469 C470 1.347 1_455 S
C470 H462 0.951 . S
C470 C465 1.429 . S
C470 C469 1.347 1_655 S
H471 C472 0.951 . S
C472 H471 0.951 . S
C472 C478 1.265 . S
H473 C478 0.950 . S
H474 C482 0.949 . S
H475 C483 0.950 . S
H476 C484 0.951 . S
H477 C485 0.951 . S
C478 C472 1.265 . S
C478 H473 0.950 . S
C478 C479 1.478 . S
C479 C466 1.394 . S
C479 C478 1.478 . S
C479 C480 1.397 . S
C480 C479 1.397 . S
C480 C481 1.438 1_455 S
C480 C485 1.429 . S
C481 C464 1.394 . S
C481 C480 1.438 1_655 S
C481 C482 1.428 . S
C482 H474 0.949 . S
C482 C481 1.428 . S
C482 C483 1.345 . S
C483 H475 0.950 . S
C483 C482 1.345 . S
C483 C484 1.424 . S
C484 H476 0.951 . S
C484 C483 1.424 . S
C484 C485 1.347 1_655 S
C485 H477 0.951 . S
C485 C480 1.429 . S
C485 C484 1.347 1_455 S
H486 C487 0.951 . S
C487 H486 0.951 . S
C487 C493 1.265 . S
H488 C493 0.950 . S
H489 C497 0.949 . S
H490 C498 0.950 . S
H491 C499 0.951 . S
H492 C500 0.951 . S
C493 C487 1.265 . S
C493 H488 0.950 . S
C493 C494 1.478 . S
C494 C493 1.478 . S
C494 C495 1.397 . S
C494 C511 1.394 . S
C495 C494 1.397 . S
C495 C496 1.438 . S
C495 C500 1.429 . S
C496 C495 1.438 . S
C496 C497 1.428 . S
C496 C509 1.394 . S
C497 H489 0.949 . S
C497 C496 1.428 . S
C497 C498 1.345 . S
C498 H490 0.950 . S
C498 C497 1.345 . S
C498 C499 1.424 . S
C499 H491 0.951 . S
C499 C498 1.424 . S
C499 C500 1.347 . S
C500 H492 0.951 . S
C500 C495 1.429 . S
C500 C499 1.347 . S
H501 C502 0.951 . S
C502 H501 0.951 . S
C502 C508 1.265 . S
H503 C508 0.950 . S
H504 C512 0.949 . S
H505 C513 0.950 . S
H506 C514 0.951 . S
H507 C515 0.951 . S
C508 C502 1.265 . S
C508 H503 0.950 . S
C508 C509 1.478 . S
C509 C496 1.394 . S
C509 C508 1.478 . S
C509 C510 1.397 . S
C510 C509 1.397 . S
C510 C511 1.438 . S
C510 C515 1.429 . S
C511 C494 1.394 . S
C511 C510 1.438 . S
C511 C512 1.428 . S
C512 H504 0.949 . S
C512 C511 1.428 . S
C512 C513 1.345 . S
C513 H505 0.950 . S
C513 C512 1.345 . S
C513 C514 1.424 . S
C514 H506 0.951 . S
C514 C513 1.424 . S
C514 C515 1.347 . S
C515 H507 0.951 . S
C515 C510 1.429 . S
C515 C514 1.347 . S
H516 C517 0.951 . S
C517 H516 0.951 . S
C517 C523 1.265 . S
H518 C523 0.950 . S
H519 C527 0.949 . S
H520 C528 0.950 . S
H521 C529 0.951 . S
H522 C530 0.951 . S
C523 C517 1.265 . S
C523 H518 0.950 . S
C523 C524 1.478 . S
C524 C523 1.478 . S
C524 C525 1.397 . S
C524 C541 1.394 . S
C525 C524 1.397 . S
C525 C526 1.438 . S
C525 C530 1.429 . S
C526 C525 1.438 . S
C526 C527 1.428 . S
C526 C539 1.394 . S
C527 H519 0.949 . S
C527 C526 1.428 . S
C527 C528 1.345 . S
C528 H520 0.950 . S
C528 C527 1.345 . S
C528 C529 1.424 . S
C529 H521 0.951 . S
C529 C528 1.424 . S
C529 C530 1.347 . S
C530 H522 0.951 . S
C530 C525 1.429 . S
C530 C529 1.347 . S
H531 C532 0.951 . S
C532 H531 0.951 . S
C532 C538 1.265 . S
H533 C538 0.950 . S
H534 C542 0.949 . S
H535 C543 0.950 . S
H536 C544 0.951 . S
H537 C545 0.951 . S
C538 C532 1.265 . S
C538 H533 0.950 . S
C538 C539 1.478 . S
C539 C526 1.394 . S
C539 C538 1.478 . S
C539 C540 1.397 . S
C540 C539 1.397 . S
C540 C541 1.438 . S
C540 C545 1.429 . S
C541 C524 1.394 . S
C541 C540 1.438 . S
C541 C542 1.428 . S
C542 H534 0.949 . S
C542 C541 1.428 . S
C542 C543 1.345 . S
C543 H535 0.950 . S
C543 C542 1.345 . S
C543 C544 1.424 . S
C544 H536 0.951 . S
C544 C543 1.424 . S
C544 C545 1.347 . S
C545 H537 0.951 . S
C545 C540 1.429 . S
C545 C544 1.347 . S
H546 C547 0.951 . S
C547 H546 0.951 . S
C547 C553 1.265 . S
H548 C553 0.950 . S
H549 C557 0.949 . S
H550 C558 0.950 . S
H551 C559 0.951 . S
H552 C560 0.951 . S
C553 C547 1.265 . S
C553 H548 0.950 . S
C553 C554 1.478 . S
C554 C553 1.478 . S
C554 C555 1.397 . S
C554 C571 1.394 . S
C555 C554 1.397 . S
C555 C556 1.438 . S
C555 C560 1.429 . S
C556 C555 1.438 . S
C556 C557 1.428 . S
C556 C569 1.394 . S
C557 H549 0.949 . S
C557 C556 1.428 . S
C557 C558 1.345 . S
C558 H550 0.950 . S
C558 C557 1.345 . S
C558 C559 1.424 . S
C559 H551 0.951 . S
C559 C558 1.424 . S
C559 C560 1.347 . S
C560 H552 0.951 . S
C560 C555 1.429 . S
C560 C559 1.347 . S
H561 C562 0.951 . S
C562 H561 0.951 . S
C562 C568 1.265 . S
H563 C568 0.950 . S
H564 C572 0.949 . S
H565 C573 0.950 . S
H566 C574 0.951 . S
H567 C575 0.951 . S
C568 C562 1.265 . S
C568 H563 0.950 . S
C568 C569 1.478 . S
C569 C556 1.394 . S
C569 C568 1.478 . S
C569 C570 1.397 . S
C570 C569 1.397 . S
C570 C571 1.438 . S
C570 C575 1.429 . S
C571 C554 1.394 . S
C571 C570 1.438 . S
C571 C572 1.428 . S
C572 H564 0.949 . S
C572 C571 1.428 . S
C572 C573 1.345 . S
C573 H565 0.950 . S
C573 C572 1.345 . S
C573 C574 1.424 . S
C574 H566 0.951 . S
C574 C573 1.424 . S
C574 C575 1.347 . S
C575 H567 0.951 . S
C575 C570 1.429 . S
C575 C574 1.347 . S
H576 C577 0.951 . S
C577 H576 0.951 . S
C577 C583 1.265 1_554 S
H578 C583 0.950 . S
H579 C587 0.949 . S
H580 C588 0.950 . S
H581 C589 0.951 . S
H582 C590 0.951 . S
C583 C577 1.265 1_556 S
C583 H578 0.950 . S
C583 C584 1.478 . S
C584 C583 1.478 . S
C584 C585 1.397 . S
C584 C601 1.394 . S
C585 C584 1.397 . S
C585 C586 1.438 . S
C585 C590 1.429 . S
C586 C585 1.438 . S
C586 C587 1.428 . S
C586 C599 1.394 . S
C587 H579 0.949 . S
C587 C586 1.428 . S
C587 C588 1.345 . S
C588 H580 0.950 . S
C588 C587 1.345 . S
C588 C589 1.424 . S
C589 H581 0.951 . S
C589 C588 1.424 . S
C589 C590 1.347 . S
C590 H582 0.951 . S
C590 C585 1.429 . S
C590 C589 1.347 . S
H591 C592 0.951 . S
C592 H591 0.951 . S
C592 C598 1.265 . S
H593 C598 0.950 . S
H594 C602 0.949 . S
H595 C603 0.950 . S
H596 C604 0.951 . S
H597 C605 0.951 . S
C598 C592 1.265 . S
C598 H593 0.950 . S
C598 C599 1.478 . S
C599 C586 1.394 . S
C599 C598 1.478 . S
C599 C600 1.397 . S
C600 C599 1.397 . S
C600 C601 1.438 . S
C600 C605 1.429 . S
C601 C584 1.394 . S
C601 C600 1.438 . S
C601 C602 1.428 . S
C602 H594 0.949 . S
C602 C601 1.428 . S
C602 C603 1.345 . S
C603 H595 0.950 . S
C603 C602 1.345 . S
C603 C604 1.424 . S
C604 H596 0.951 . S
C604 C603 1.424 . S
C604 C605 1.347 . S
C605 H597 0.951 . S
C605 C600 1.429 . S
C605 C604 1.347 . S
H606 C607 0.951 . S
C607 H606 0.951 . S
C607 C613 1.265 . S
H608 C613 0.950 . S
H609 C617 0.949 . S
H610 C618 0.950 . S
H611 C619 0.951 . S
H612 C620 0.951 . S
C613 C607 1.265 . S
C613 H608 0.950 . S
C613 C614 1.478 . S
C614 C613 1.478 . S
C614 C615 1.397 . S
C614 C631 1.394 . S
C615 C614 1.397 . S
C615 C616 1.438 . S
C615 C620 1.429 . S
C616 C615 1.438 . S
C616 C617 1.428 . S
C616 C629 1.394 . S
C617 H609 0.949 . S
C617 C616 1.428 . S
C617 C618 1.345 . S
C618 H610 0.950 . S
C618 C617 1.345 . S
C618 C619 1.424 . S
C619 H611 0.951 . S
C619 C618 1.424 . S
C619 C620 1.347 . S
C620 H612 0.951 . S
C620 C615 1.429 . S
C620 C619 1.347 . S
H621 C622 0.951 . S
C622 H621 0.951 . S
C622 C628 1.265 1_556 S
H623 C628 0.950 . S
H624 C632 0.949 . S
H625 C633 0.950 . S
H626 C634 0.951 . S
H627 C635 0.951 . S
C628 C622 1.265 1_554 S
C628 H623 0.950 . S
C628 C629 1.478 . S
C629 C616 1.394 . S
C629 C628 1.478 . S
C629 C630 1.397 . S
C630 C629 1.397 . S
C630 C631 1.438 . S
C630 C635 1.429 1_554 S
C631 C614 1.394 . S
C631 C630 1.438 . S
C631 C632 1.428 . S
C632 H624 0.949 . S
C632 C631 1.428 . S
C632 C633 1.345 1_554 S
C633 H625 0.950 . S
C633 C632 1.345 1_556 S
C633 C634 1.424 . S
C634 H626 0.951 . S
C634 C633 1.424 . S
C634 C635 1.347 . S
C635 H627 0.951 . S
C635 C630 1.429 1_556 S
C635 C634 1.347 . S
H636 C637 0.951 . S
C637 H636 0.951 . S
C637 C643 1.265 . S
H638 C643 0.950 . S
H639 C647 0.949 . S
H640 C648 0.950 . S
H641 C649 0.951 . S
H642 C650 0.951 . S
C643 C637 1.265 . S
C643 H638 0.950 . S
C643 C644 1.478 . S
C644 C643 1.478 . S
C644 C645 1.397 . S
C644 C661 1.394 . S
C645 C644 1.397 . S
C645 C646 1.438 . S
C645 C650 1.429 . S
C646 C645 1.438 . S
C646 C647 1.428 . S
C646 C659 1.394 . S
C647 H639 0.949 . S
C647 C646 1.428 . S
C647 C648 1.345 . S
C648 H640 0.950 . S
C648 C647 1.345 . S
C648 C649 1.424 . S
C649 H641 0.951 . S
C649 C648 1.424 . S
C649 C650 1.347 . S
C650 H642 0.951 . S
C650 C645 1.429 . S
C650 C649 1.347 . S
H651 C652 0.951 . S
C652 H651 0.951 . S
C652 C658 1.265 . S
H653 C658 0.950 . S
H654 C662 0.949 . S
H655 C663 0.950 . S
H656 C664 0.951 . S
H657 C665 0.951 . S
C658 C652 1.265 . S
C658 H653 0.950 . S
C658 C659 1.478 . S
C659 C646 1.394 . S
C659 C658 1.478 . S
C659 C660 1.397 . S
C660 C659 1.397 . S
C660 C661 1.438 . S
C660 C665 1.429 . S
C661 C644 1.394 . S
C661 C660 1.438 . S
C661 C662 1.428 . S
C662 H654 0.949 . S
C662 C661 1.428 . S
C662 C663 1.345 . S
C663 H655 0.950 . S
C663 C662 1.345 . S
C663 C664 1.424 . S
C664 H656 0.951 . S
C664 C663 1.424 . S
C664 C665 1.347 . S
C665 H657 0.951 . S
C665 C660 1.429 . S
C665 C664 1.347 . S
C127 C19 1.048 . S
C142 C3 1.103 . S
C157 C40 0.896 . S
C172 C24 0.899 1_554 S
C187 C45 0.974 . S
C202 C61 0.909 . S
C217 C66 0.930 . S
C232 C82 0.994 . S
C247 C87 1.114 . S
C262 C103 1.108 1_556 S
C277 C124 0.940 . S
C292 C108 1.015 . S
C307 C20 1.334 . S
C322 C112 1.338 . S
C337 C7 1.344 . S
C352 C41 1.437 . S
C367 C62 1.370 . S
C382 C28 1.446 . S
C397 C83 1.342 . S
C412 C49 1.420 . S
C427 C104 1.358 . S
C442 C70 1.320 . S
C457 C91 1.443 . S
C472 C125 1.366 . S
C487 C16 1.512 . S
C502 C88 1.478 . S
C517 C37 1.483 . S
C532 C109 1.552 . S
C547 C58 1.604 . S
C562 C4 1.594 . S
C577 C79 1.618 . S
C592 C25 1.562 . S
C607 C100 1.613 . S
C622 C46 1.528 . S
C637 C67 1.495 . S
C652 C121 1.492 . S
