# Generated by pormake.
# Topology uoj, (4)-cn, num edge types: 1
# Building blocks:
#     Node 0, Type 0, BuildingBlock: QUQFOY_clean_sbu_1, # of connection points: 4
#     Node 1, Type 0, BuildingBlock: QUQFOY_clean_sbu_1, # of connection points: 4
#     Node 2, Type 0, BuildingBlock: QUQFOY_clean_sbu_1, # of connection points: 4
#     Node 3, Type 0, BuildingBlock: QUQFOY_clean_sbu_1, # of connection points: 4
#     Node 4, Type 0, BuildingBlock: QUQFOY_clean_sbu_1, # of connection points: 4
#     Node 5, Type 0, BuildingBlock: QUQFOY_clean_sbu_1, # of connection points: 4
#     Node 6, Type 0, BuildingBlock: QUQFOY_clean_sbu_1, # of connection points: 4
#     Node 7, Type 0, BuildingBlock: QUQFOY_clean_sbu_1, # of connection points: 4
#     Edge 8, Type (0, 0), BuildingBlock: XUDNAN_clean_linker_2, # of connection points: 2
#     Edge 9, Type (0, 0), BuildingBlock: XUDNAN_clean_linker_2, # of connection points: 2
#     Edge 10, Type (0, 0), BuildingBlock: XUDNAN_clean_linker_2, # of connection points: 2
#     Edge 11, Type (0, 0), BuildingBlock: XUDNAN_clean_linker_2, # of connection points: 2
#     Edge 12, Type (0, 0), BuildingBlock: XUDNAN_clean_linker_2, # of connection points: 2
#     Edge 13, Type (0, 0), BuildingBlock: XUDNAN_clean_linker_2, # of connection points: 2
#     Edge 14, Type (0, 0), BuildingBlock: XUDNAN_clean_linker_2, # of connection points: 2
#     Edge 15, Type (0, 0), BuildingBlock: XUDNAN_clean_linker_2, # of connection points: 2
#     Edge 16, Type (0, 0), BuildingBlock: XUDNAN_clean_linker_2, # of connection points: 2
#     Edge 17, Type (0, 0), BuildingBlock: XUDNAN_clean_linker_2, # of connection points: 2
#     Edge 18, Type (0, 0), BuildingBlock: XUDNAN_clean_linker_2, # of connection points: 2
#     Edge 19, Type (0, 0), BuildingBlock: XUDNAN_clean_linker_2, # of connection points: 2
#     Edge 20, Type (0, 0), BuildingBlock: XUDNAN_clean_linker_2, # of connection points: 2
#     Edge 21, Type (0, 0), BuildingBlock: XUDNAN_clean_linker_2, # of connection points: 2
#     Edge 22, Type (0, 0), BuildingBlock: XUDNAN_clean_linker_2, # of connection points: 2
#     Edge 23, Type (0, 0), BuildingBlock: XUDNAN_clean_linker_2, # of connection points: 2
# Relax obj value: 0.060
# Max RMSD: 0.096
# Mean RMSD: 0.096
data_MOF--net-uoj--node1-QUQFOY_clean_sbu_1--edge1-XUDNAN_clean_linker_2
_symmetry_space_group_name_H-M    P1
_symmetry_Int_Tables_number       1
_symmetry_cell_setting            triclinic
loop_
_symmetry_equiv_pos_as_xyz
'x, y, z'
_cell_length_a     32.295432
_cell_length_b     32.35311
_cell_length_c     43.050137
_cell_angle_alpha  90.091988
_cell_angle_beta   90.240439
_cell_angle_gamma 89.727219
loop_
_atom_site_label
_atom_site_type_symbol
_atom_site_fract_x
_atom_site_fract_y
_atom_site_fract_z
_atom_type_partial_charge
O0 O 0.0172 0.24549 0.46587 0.0
Cd1 Cd 0.07388 0.27305 0.46702 0.0
Cd2 Cd 0.05192 0.2856 0.40758 0.0
O3 O 0.00474 0.24345 0.41549 0.0
O4 O 0.10244 0.24613 0.5026 0.0
O5 O 0.12362 0.24093 0.45378 0.0
C6 C 0.12748 0.23015 0.48258 0.0
C7 C 0.08868 0.29199 0.36097 0.0
C8 C -0.00563 0.2347 0.44322 0.0
C9 C 0.05236 0.35743 0.45422 0.0
O10 O 0.04179 0.34203 0.42821 0.0
O11 O 0.07131 0.33551 0.47419 0.0
O12 O 0.05004 0.30172 0.36285 0.0
O13 O 0.10601 0.27536 0.38502 0.0
O14 O 0.2702 0.94765 0.54434 0.0
Cd15 Cd 0.2872 0.88875 0.55535 0.0
Cd16 Cd 0.2797 0.92097 0.61071 0.0
O17 O 0.24338 0.96616 0.58917 0.0
O18 O 0.27558 0.85824 0.51607 0.0
O19 O 0.24167 0.84748 0.5599 0.0
C20 C 0.24553 0.8406 0.53045 0.0
C21 C 0.2651 0.88317 0.65531 0.0
C22 C 0.25024 0.9736 0.5606 0.0
C23 C 0.365 0.90843 0.58447 0.0
O24 O 0.34208 0.92844 0.60322 0.0
O25 O 0.34909 0.88342 0.56504 0.0
O26 O 0.27137 0.9225 0.65667 0.0
O27 O 0.26406 0.86568 0.6283 0.0
O28 O 0.96066 0.73474 0.46877 0.0
Cd29 Cd 0.90289 0.71123 0.47623 0.0
Cd30 Cd 0.91885 0.69387 0.41036 0.0
O31 O 0.97056 0.73065 0.41805 0.0
O32 O 0.89284 0.72997 0.51978 0.0
O33 O 0.85477 0.75074 0.48002 0.0
C34 C 0.86337 0.75294 0.5093 0.0
C35 C 0.88623 0.68848 0.36135 0.0
C36 C 0.9829 0.7413 0.44504 0.0
C37 C 0.91326 0.62399 0.45904 0.0
O38 O 0.92175 0.63753 0.43213 0.0
O39 O 0.90103 0.64823 0.48033 0.0
O40 O 0.92318 0.67484 0.36618 0.0
O41 O 0.86838 0.70799 0.38384 0.0
O42 O 0.73582 0.02566 0.57849 0.0
Cd43 Cd 0.70771 0.0819 0.57341 0.0
Cd44 Cd 0.69691 0.06427 0.63623 0.0
O45 O 0.73867 0.01607 0.62918 0.0
O46 O 0.7229 0.09443 0.52955 0.0
O47 O 0.74406 0.13203 0.56932 0.0
C48 C 0.74509 0.12436 0.53989 0.0
C49 C 0.69593 0.10652 0.68044 0.0
C50 C 0.7471 0.00418 0.6017 0.0
C51 C 0.62316 0.06163 0.59171 0.0
O52 O 0.63903 0.05291 0.61795 0.0
O53 O 0.64461 0.07876 0.57076 0.0
O54 O 0.68411 0.06857 0.68143 0.0
O55 O 0.71093 0.1202 0.65468 0.0
O56 O 0.46671 0.74736 0.94513 0.0
Cd57 Cd 0.41464 0.78338 0.94545 0.0
Cd58 Cd 0.42508 0.7708 0.8828 0.0
O59 O 0.46612 0.72463 0.8968 0.0
O60 O 0.39901 0.78186 0.99016 0.0
O61 O 0.36085 0.7545 0.95269 0.0
C62 C 0.36751 0.76003 0.98204 0.0
C63 C 0.37523 0.766 0.84341 0.0
C64 C 0.48141 0.72406 0.92412 0.0
C65 C 0.44004 0.85581 0.90949 0.0
O66 O 0.44612 0.83035 0.88745 0.0
O67 O 0.42306 0.84435 0.93458 0.0
O68 O 0.41428 0.76508 0.83722 0.0
O69 O 0.36443 0.7659 0.8723 0.0
O70 O 0.76837 0.49988 0.0523 0.0
Cd71 Cd 0.77546 0.56257 0.05125 0.0
Cd72 Cd 0.78787 0.54131 0.11489 0.0
O73 O 0.76235 0.48464 0.10216 0.0
O74 O 0.75636 0.57512 1.00813 0.0
O75 O 0.72558 0.60034 0.04977 0.0
C76 C 0.72667 0.59656 0.01991 0.0
C77 C 0.78379 0.57017 0.16508 0.0
C78 C 0.76211 0.47374 0.07371 0.0
C79 C 0.86031 0.56714 0.07254 0.0
O80 O 0.84594 0.55061 0.09695 0.0
O81 O 0.83627 0.57982 0.05118 0.0
O82 O 0.80335 0.53616 0.15978 0.0
O83 O 0.76321 0.58632 0.14232 0.0
O84 O 0.53728 0.22627 0.98438 0.0
Cd85 Cd 0.5895 0.19695 0.96932 0.0
Cd86 Cd 0.55808 0.22326 0.91546 0.0
O87 O 0.52003 0.26127 0.94234 0.0
O88 O 0.62776 0.2009 1.00545 0.0
O89 O 0.63863 0.23154 0.96001 0.0
C90 C 0.64931 0.22582 0.98868 0.0
C91 C 0.59154 0.23759 0.86897 0.0
C92 C 0.51467 0.25309 0.97099 0.0
C93 C 0.55821 0.13158 0.93025 0.0
O94 O 0.54347 0.1617 0.91487 0.0
O95 O 0.58208 0.13771 0.9533 0.0
O96 O 0.55169 0.23583 0.87046 0.0
O97 O 0.61225 0.23688 0.89473 0.0
O98 O 0.24819 0.50152 0.07462 0.0
Cd99 Cd 0.22575 0.44277 0.07637 0.0
Cd100 Cd 0.21126 0.46842 0.13394 0.0
O101 O 0.24972 0.51818 0.12429 0.0
O102 O 0.25422 0.41379 0.04169 0.0
O103 O 0.26277 0.39729 0.09127 0.0
C104 C 0.27299 0.39194 0.06251 0.0
C105 C 0.20972 0.43046 0.18017 0.0
C106 C 0.25715 0.52701 0.09604 0.0
C107 C 0.13965 0.45917 0.08794 0.0
O108 O 0.15392 0.47338 0.11333 0.0
O109 O 0.16315 0.43982 0.0693 0.0
O110 O 0.19652 0.46811 0.17892 0.0
O111 O 0.22701 0.41517 0.15567 0.0
H112 H 0.14515 0.43905 0.21983 0.0
H113 H 0.25277 0.36237 0.20161 0.0
H114 H 0.23415 0.3175 0.24617 0.0
H115 H 0.14523 0.43249 0.30327 0.0
H116 H 0.0896 0.42976 0.30563 0.0
H117 H 0.11348 0.45663 0.27385 0.0
H118 H 0.07312 0.41079 0.23476 0.0
H119 H 0.04941 0.38353 0.26643 0.0
H120 H 0.07774 0.35534 0.23721 0.0
H121 H 0.20347 0.28236 0.29471 0.0
H122 H 0.16169 0.25808 0.33939 0.0
H123 H 0.07136 0.35462 0.321 0.0
C124 C 0.16524 0.41321 0.2255 0.0
C125 C 0.20088 0.4046 0.2077 0.0
C126 C 0.22559 0.36973 0.21523 0.0
C127 C 0.2152 0.34411 0.24045 0.0
C128 C 0.1795 0.35333 0.2574 0.0
C129 C 0.15473 0.38687 0.24992 0.0
C130 C 0.11681 0.3891 0.27036 0.0
C131 C 0.11628 0.42938 0.28941 0.0
C132 C 0.07692 0.3844 0.25103 0.0
C133 C 0.12416 0.35185 0.29086 0.0
C134 C 0.16066 0.33174 0.2834 0.0
C135 C 0.1746 0.29762 0.30042 0.0
C136 C 0.15071 0.284 0.32571 0.0
C137 C 0.11294 0.30396 0.33328 0.0
C138 C 0.09959 0.33807 0.31536 0.0
H139 H 0.31805 0.82102 0.66955 0.0
H140 H 0.21661 0.89331 0.70668 0.0
H141 H 0.2264 0.8598 0.75798 0.0
H142 H 0.30665 0.72595 0.71909 0.0
H143 H 0.36196 0.72094 0.72364 0.0
H144 H 0.3406 0.74265 0.68848 0.0
H145 H 0.38517 0.80827 0.6963 0.0
H146 H 0.40652 0.78687 0.73139 0.0
H147 H 0.38135 0.8367 0.73224 0.0
H148 H 0.25239 0.82423 0.80646 0.0
H149 H 0.29675 0.79738 0.84881 0.0
H150 H 0.38561 0.75364 0.78089 0.0
C151 C 0.29679 0.82829 0.68819 0.0
C152 C 0.26559 0.85849 0.68408 0.0
C153 C 0.23988 0.86933 0.70932 0.0
C154 C 0.24524 0.85041 0.73846 0.0
C155 C 0.27703 0.82135 0.74207 0.0
C156 C 0.30264 0.81066 0.71762 0.0
C157 C 0.33873 0.78423 0.72861 0.0
C158 C 0.33685 0.74086 0.71409 0.0
C159 C 0.38037 0.80529 0.72174 0.0
C160 C 0.3302 0.78272 0.76318 0.0
C161 C 0.2938 0.8032 0.77037 0.0
C162 C 0.28067 0.80773 0.80103 0.0
C163 C 0.30603 0.7922 0.82497 0.0
C164 C 0.34459 0.77325 0.81818 0.0
C165 C 0.35612 0.76757 0.78681 0.0
H166 H 0.90668 0.62884 0.3193 0.0
H167 H 0.81537 0.7245 0.33736 0.0
H168 H 0.77758 0.70437 0.28937 0.0
H169 H 0.9085 0.63717 0.23604 0.0
H170 H 0.91375 0.5822 0.23028 0.0
H171 H 0.9338 0.60579 0.26509 0.0
H172 H 0.89013 0.55563 0.29837 0.0
H173 H 0.86964 0.53216 0.26365 0.0
H174 H 0.83492 0.55315 0.29237 0.0
H175 H 0.75089 0.6736 0.23773 0.0
H176 H 0.73716 0.63429 0.18922 0.0
H177 H 0.84384 0.5564 0.2085 0.0
C178 C 0.879 0.64598 0.31304 0.0
C179 C 0.86426 0.67864 0.33189 0.0
C180 C 0.8274 0.69958 0.32315 0.0
C181 C 0.80573 0.6883 0.29596 0.0
C182 C 0.821 0.65559 0.27805 0.0
C183 C 0.85673 0.63466 0.28644 0.0
C184 C 0.86622 0.59979 0.26406 0.0
C185 C 0.90804 0.60667 0.24791 0.0
C186 C 0.86515 0.5577 0.28061 0.0
C187 C 0.83045 0.6044 0.24153 0.0
C188 C 0.80474 0.63688 0.24971 0.0
C189 C 0.77064 0.64786 0.23136 0.0
C190 C 0.763 0.62533 0.20389 0.0
C191 C 0.789 0.59186 0.19528 0.0
C192 C 0.82282 0.58124 0.21467 0.0
H193 H 0.56257 0.1933 0.82045 0.0
H194 H 0.66914 0.26365 0.85086 0.0
H195 H 0.70685 0.24215 0.80321 0.0
H196 H 0.61976 0.10815 0.79671 0.0
H197 H 0.5863 0.09493 0.76463 0.0
H198 H 0.56561 0.12185 0.79773 0.0
H199 H 0.53822 0.18041 0.76197 0.0
H200 H 0.55839 0.15338 0.72864 0.0
H201 H 0.5734 0.20609 0.73603 0.0
H202 H 0.73321 0.2098 0.75181 0.0
H203 H 0.74751 0.16541 0.70577 0.0
H204 H 0.62623 0.11028 0.71474 0.0
C205 C 0.59331 0.20548 0.81658 0.0
C206 C 0.61252 0.23123 0.83882 0.0
C207 C 0.65357 0.2447 0.8337 0.0
C208 C 0.67517 0.23254 0.80675 0.0
C209 C 0.65555 0.20617 0.78562 0.0
C210 C 0.61558 0.19257 0.79055 0.0
C211 C 0.60286 0.16052 0.76679 0.0
C212 C 0.59308 0.11892 0.78241 0.0
C213 C 0.56604 0.17604 0.7472 0.0
C214 C 0.64192 0.15784 0.74769 0.0
C215 C 0.67176 0.18501 0.75829 0.0
C216 C 0.71008 0.18831 0.74352 0.0
C217 C 0.71798 0.16307 0.71745 0.0
C218 C 0.68819 0.13413 0.70718 0.0
C219 C 0.6498 0.1317 0.72251 0.0
H220 H 0.19804 0.03526 0.58297 0.0
H221 H 0.27611 0.00202 0.50471 0.0
H222 H 0.25872 0.06747 0.47922 0.0
H223 H 0.11785 0.08095 0.53767 0.0
H224 H 0.1067 0.12189 0.56488 0.0
H225 H 0.12776 0.0736 0.57854 0.0
H226 H 0.18837 0.11286 0.60475 0.0
H227 H 0.16762 0.16129 0.59088 0.0
H228 H 0.22012 0.14668 0.58176 0.0
H229 H 0.23072 0.13382 0.46029 0.0
H230 H 0.18962 0.19615 0.44789 0.0
H231 H 0.12943 0.18794 0.53768 0.0
C232 C 0.21166 0.04196 0.56061 0.0
C233 C 0.23843 0.01336 0.54595 0.0
C234 C 0.25535 0.02318 0.51649 0.0
C235 C 0.24595 0.06051 0.50181 0.0
C236 C 0.21953 0.08796 0.51675 0.0
C237 C 0.20236 0.07925 0.54537 0.0
C238 C 0.17277 0.11331 0.55519 0.0
C239 C 0.12866 0.09642 0.5593 0.0
C240 C 0.18815 0.13481 0.58491 0.0
C241 C 0.17551 0.14182 0.52732 0.0
C242 C 0.20309 0.12678 0.50563 0.0
C243 C 0.20931 0.14628 0.4772 0.0
C244 C 0.18588 0.18166 0.47036 0.0
C245 C 0.15659 0.19706 0.49187 0.0
C246 C 0.15211 0.17733 0.52098 0.0
H247 H 0.16948 0.81681 0.5511 0.0
H248 H 0.24752 0.81664 0.46931 0.0
H249 H 0.18878 0.7913 0.43767 0.0
H250 H 0.10826 0.7252 0.53109 0.0
H251 H 0.06153 0.74749 0.54676 0.0
H252 H 0.11108 0.76135 0.56293 0.0
H253 H 0.09402 0.83867 0.5532 0.0
H254 H 0.04485 0.82501 0.53637 0.0
H255 H 0.08095 0.85559 0.51448 0.0
H256 H 0.11904 0.77013 0.41434 0.0
H257 H 0.04646 0.75044 0.40267 0.0
H258 H 0.01551 0.76799 0.49989 0.0
C259 C 0.17462 0.8104 0.52672 0.0
C260 C 0.21319 0.81836 0.51275 0.0
C261 C 0.21829 0.81043 0.48058 0.0
C262 C 0.18505 0.79623 0.46238 0.0
C263 C 0.14694 0.79021 0.47669 0.0
C264 C 0.14178 0.79666 0.50823 0.0
C265 C 0.09744 0.78985 0.51788 0.0
C266 C 0.09441 0.75382 0.54102 0.0
C267 C 0.0782 0.82965 0.53126 0.0
C268 C 0.07833 0.77885 0.48687 0.0
C269 C 0.10718 0.77907 0.46331 0.0
C270 C 0.09622 0.76973 0.43267 0.0
C271 C 0.05489 0.75889 0.42619 0.0
C272 C 0.02516 0.75769 0.45028 0.0
C273 C 0.03726 0.76856 0.48082 0.0
H274 H 0.75582 0.96741 0.54538 0.0
H275 H 0.78191 0.94851 0.64339 0.0
H276 H 0.81142 0.87939 0.63097 0.0
H277 H 0.72451 0.86392 0.52851 0.0
H278 H 0.74719 0.86409 0.49032 0.0
H279 H 0.72871 0.91164 0.50722 0.0
H280 H 0.80091 0.94485 0.4997 0.0
H281 H 0.81947 0.89761 0.48246 0.0
H282 H 0.84613 0.91943 0.51545 0.0
H283 H 0.84012 0.81293 0.60651 0.0
H284 H 0.86601 0.75645 0.57289 0.0
H285 H 0.81705 0.81981 0.49185 0.0
C286 C 0.76787 0.94907 0.56443 0.0
C287 C 0.7668 0.96358 0.59542 0.0
C288 C 0.78259 0.93812 0.61948 0.0
C289 C 0.79922 0.89882 0.61262 0.0
C290 C 0.7993 0.88549 0.58172 0.0
C291 C 0.78392 0.91 0.5581 0.0
C292 C 0.7874 0.88918 0.52677 0.0
C293 C 0.74439 0.88177 0.51237 0.0
C294 C 0.81514 0.91426 0.50482 0.0
C295 C 0.80776 0.84904 0.53619 0.0
C296 C 0.81441 0.84732 0.56795 0.0
C297 C 0.83468 0.81388 0.5817 0.0
C298 C 0.8492 0.78193 0.56241 0.0
C299 C 0.84316 0.7836 0.52978 0.0
C300 C 0.82148 0.81727 0.51673 0.0
H301 H 0.8136 0.1681 0.55659 0.0
H302 H 0.74422 0.12562 0.47629 0.0
H303 H 0.79969 0.15073 0.44176 0.0
H304 H 0.85957 0.26015 0.52068 0.0
H305 H 0.90805 0.25257 0.54084 0.0
H306 H 0.86043 0.23586 0.55835 0.0
H307 H 0.89107 0.162 0.56406 0.0
H308 H 0.93842 0.17826 0.54603 0.0
H309 H 0.90994 0.13533 0.5301 0.0
H310 H 0.8659 0.17697 0.41623 0.0
H311 H 0.93548 0.20358 0.40255 0.0
H312 H 0.96092 0.22435 0.50046 0.0
C313 C 0.80947 0.16517 0.53171 0.0
C314 C 0.77444 0.1454 0.51909 0.0
C315 C 0.77074 0.14105 0.48642 0.0
C316 C 0.80211 0.15511 0.46662 0.0
C317 C 0.83702 0.17319 0.47991 0.0
C318 C 0.84067 0.17843 0.51173 0.0
C319 C 0.88228 0.19611 0.5205 0.0
C320 C 0.87727 0.23871 0.53599 0.0
C321 C 0.90686 0.16613 0.5414 0.0
C322 C 0.90165 0.19967 0.48875 0.0
C323 C 0.87518 0.18669 0.4655 0.0
C324 C 0.88686 0.18733 0.43428 0.0
C325 C 0.92645 0.20226 0.42672 0.0
C326 C 0.95383 0.21582 0.45037 0.0
C327 C 0.94105 0.214 0.48171 0.0
H328 H 0.25561 0.55913 0.03801 0.0
H329 H 0.29287 0.58816 0.13252 0.0
H330 H 0.31803 0.65657 0.11457 0.0
H331 H 0.34011 0.60221 1.00045 0.0
H332 H 0.31034 0.62065 0.96774 0.0
H333 H 0.29316 0.57625 0.98904 0.0
H334 H 0.22235 0.61224 0.99847 0.0
H335 H 0.23958 0.65708 0.97747 0.0
H336 H 0.22087 0.66245 0.01667 0.0
H337 H 0.34449 0.71925 0.08435 0.0
H338 H 0.37145 0.76829 0.04545 0.0
H339 H 0.31311 0.6973 0.97192 0.0
C340 C 0.26893 0.57973 0.05516 0.0
C341 C 0.27263 0.56813 0.08669 0.0
C342 C 0.28988 0.59637 0.10824 0.0
C343 C 0.30401 0.63529 0.09825 0.0
C344 C 0.29989 0.64552 0.06683 0.0
C345 C 0.28254 0.61842 0.04574 0.0
C346 C 0.28307 0.63532 1.01306 0.0
C347 C 0.30818 0.60693 0.99131 0.0
C348 C 0.23883 0.64218 1.0007 0.0
C349 C 0.30472 0.67587 0.01866 0.0
C350 C 0.31388 0.68156 0.04981 0.0
C351 C 0.33685 0.71536 0.06003 0.0
C352 C 0.35195 0.74311 0.03775 0.0
C353 C 0.34405 0.73681 1.00565 0.0
C354 C 0.31897 0.70349 0.99627 0.0
H355 H 0.6575 0.64013 0.03753 0.0
H356 H 0.7211 0.59159 0.95657 0.0
H357 H 0.66401 0.61625 0.923 0.0
H358 H 0.55491 0.61398 1.01306 0.0
H359 H 0.53168 0.66032 0.0286 0.0
H360 H 0.57781 0.63927 0.04625 0.0
H361 H 0.61532 0.70925 0.03891 0.0
H362 H 0.56915 0.73063 0.02158 0.0
H363 H 0.61744 0.7321 1.00078 0.0
H364 H 0.59881 0.64575 0.89818 0.0
H365 H 0.5333 0.68163 0.88431 0.0
H366 H 0.51339 0.70982 0.98178 0.0
C367 C 0.65959 0.63492 1.01274 0.0
C368 C 0.69378 0.61396 0.99971 0.0
C369 C 0.69522 0.60765 0.96711 0.0
C370 C 0.66287 0.62141 0.94783 0.0
C371 C 0.62929 0.64142 0.96147 0.0
C372 C 0.62761 0.64841 0.99316 0.0
C373 C 0.58831 0.67097 1.00204 0.0
C374 C 0.56161 0.64455 0.02377 0.0
C375 C 0.59816 0.71324 0.01668 0.0
C376 C 0.56824 0.67568 0.97043 0.0
C377 C 0.59211 0.65831 0.94727 0.0
C378 C 0.57982 0.65946 0.91614 0.0
C379 C 0.54251 0.67969 0.90848 0.0
C380 C 0.51821 0.69857 0.93189 0.0
C381 C 0.53118 0.69579 0.96324 0.0
H382 H 0.70983 0.41285 0.09573 0.0
H383 H 0.8073 0.43696 0.02929 0.0
H384 H 0.79735 0.36829 1.00616 0.0
H385 H 0.72935 0.29632 0.10206 0.0
H386 H 0.67465 0.28593 0.10413 0.0
H387 H 0.69505 0.33324 0.12012 0.0
H388 H 0.64392 0.37555 0.08606 0.0
H389 H 0.6235 0.32855 0.07003 0.0
H390 H 0.64358 0.36776 0.04457 0.0
H391 H 0.76797 0.30581 0.98307 0.0
H392 H 0.72203 0.25085 0.96313 0.0
H393 H 0.64549 0.26287 0.04508 0.0
C394 C 0.72999 0.40282 0.07712 0.0
C395 C 0.75936 0.42999 0.06432 0.0
C396 C 0.78451 0.41653 0.03936 0.0
C397 C 0.77933 0.37745 0.02618 0.0
C398 C 0.74904 0.35187 0.03833 0.0
C399 C 0.72502 0.36361 0.06347 0.0
C400 C 0.69132 0.33212 0.06936 0.0
C401 C 0.69801 0.31062 0.10079 0.0
C402 C 0.64805 0.3522 0.06736 0.0
C403 C 0.6988 0.30243 0.04258 0.0
C404 C 0.73267 0.31414 0.02525 0.0
C405 C 0.74228 0.29528 0.99698 0.0
C406 C 0.71608 0.26421 0.98577 0.0
C407 C 0.68115 0.25203 1.00303 0.0
C408 C 0.67311 0.27054 0.03215 0.0
H409 H 0.44881 0.30156 0.9506 0.0
H410 H 0.50505 0.24887 0.03356 0.0
H411 H 0.44781 0.27572 0.06502 0.0
H412 H 0.41104 0.39528 0.9879 0.0
H413 H 0.36364 0.39685 0.96567 0.0
H414 H 0.40943 0.37366 0.94929 0.0
H415 H 0.36878 0.30599 0.93945 0.0
H416 H 0.32301 0.32882 0.95619 0.0
H417 H 0.34328 0.28094 0.97143 0.0
H418 H 0.38454 0.30636 0.08785 0.0
H419 H 0.32096 0.34483 0.10127 0.0
H420 H 0.30494 0.37861 1.00431 0.0
C421 C 0.44921 0.29602 0.97539 0.0
C422 C 0.48141 0.27286 0.98947 0.0
C423 C 0.48068 0.26623 0.02206 0.0
C424 C 0.44822 0.28129 0.04025 0.0
C425 C 0.41658 0.30311 0.02565 0.0
C426 C 0.41686 0.31094 0.99408 0.0
C427 C 0.37898 0.33581 0.98455 0.0
C428 C 0.39153 0.3779 0.97107 0.0
C429 C 0.35192 0.31142 0.96154 0.0
C430 C 0.35769 0.34067 0.01572 0.0
C431 C 0.37984 0.32127 0.03902 0.0
C432 C 0.36682 0.32174 0.06984 0.0
C433 C 0.33058 0.34352 0.07721 0.0
C434 C 0.30791 0.36463 0.05388 0.0
C435 C 0.32142 0.36255 0.02266 0.0
H436 H 0.92811 0.56225 0.41784 0.0
H437 H 0.92781 0.58977 0.51654 0.0
H438 H 0.9647 0.52391 0.5268 0.0
H439 H 0.91715 0.44916 0.42429 0.0
H440 H 0.95104 0.44068 0.39171 0.0
H441 H 0.91965 0.48676 0.3935 0.0
H442 H 0.98589 0.53091 0.38718 0.0
H443 H 0.01765 0.48509 0.38644 0.0
H444 H 0.02778 0.52504 0.41466 0.0
H445 H 0.00878 0.4581 0.52504 0.0
H446 H 0.0473 0.39395 0.51201 0.0
H447 H 0.02006 0.41386 0.41432 0.0
C448 C 0.93471 0.55398 0.44174 0.0
C449 C 0.9251 0.58105 0.46639 0.0
C450 C 0.9345 0.5692 0.49731 0.0
C451 C 0.9558 0.53208 0.50332 0.0
C452 C 0.96706 0.50732 0.47817 0.0
C453 C 0.95603 0.51749 0.44806 0.0
C454 C 0.97331 0.48712 0.42482 0.0
C455 C 0.9382 0.46458 0.40758 0.0
C456 C 0.00291 0.50833 0.40195 0.0
C457 C -0.00359 0.45851 0.44645 0.0
C458 C 0.99258 0.47041 0.47714 0.0
C459 C 0.01171 0.44835 0.50109 0.0
C460 C 0.03391 0.41228 0.49346 0.0
C461 C 0.03665 0.39895 0.46217 0.0
C462 C 0.01853 0.42313 0.43848 0.0
H463 H 0.56109 0.04104 0.63162 0.0
H464 H 0.59501 0.03978 0.53416 0.0
H465 H 0.53519 -0.00496 0.52253 0.0
H466 H 0.52922 0.93786 0.63714 0.0
H467 H 0.48578 0.94789 0.66224 0.0
H468 H 0.52992 0.98168 0.66307 0.0
H469 H 0.48301 0.04503 0.65124 0.0
H470 H 0.43857 0.01165 0.65145 0.0
H471 H 0.4487 0.04362 0.61811 0.0
H472 H 0.47598 0.94494 0.52252 0.0
H473 H 0.41153 0.90617 0.53177 0.0
H474 H 0.41473 0.94283 0.62876 0.0
C475 C 0.55535 0.03213 0.60772 0.0
C476 C 0.58259 0.04383 0.58378 0.0
C477 C 0.57422 0.03153 0.5528 0.0
C478 C 0.54067 0.00567 0.54604 0.0
C479 C 0.51561 0.99301 0.57045 0.0
C480 C 0.52174 0.00685 0.6005 0.0
C481 C 0.48966 0.98959 0.62236 0.0
C482 C 0.50988 0.96266 0.64769 0.0
C483 C 0.46342 0.02455 0.63661 0.0
C484 C 0.46466 0.96365 0.59993 0.0
C485 C 0.48061 0.96538 0.57023 0.0
C486 C 0.46296 0.94361 0.54561 0.0
C487 C 0.42669 0.92124 0.55118 0.0
C488 C 0.40828 0.92154 0.58098 0.0
C489 C 0.42828 0.94197 0.60579 0.0
H490 H 0.54075 0.06643 0.96834 0.0
H491 H 0.54587 0.10374 0.87169 0.0
H492 H 0.51656 0.03661 0.8558 0.0
H493 H 0.5638 0.95621 0.95636 0.0
H494 H 0.52769 0.93997 0.98568 0.0
H495 H 0.553 0.98928 0.98911 0.0
H496 H 0.48134 0.02528 0.99316 0.0
H497 H 0.4558 0.97618 0.98923 0.0
H498 H 0.44355 0.01764 0.96277 0.0
H499 H 0.48487 0.9672 0.85046 0.0
H500 H 0.45287 0.89845 0.85593 0.0
H501 H 0.46404 0.90784 0.95623 0.0
C502 C 0.5366 0.05989 0.94384 0.0
C503 C 0.54588 0.08973 0.92115 0.0
C504 C 0.53904 0.08092 0.88933 0.0
C505 C 0.52242 0.04301 0.8801 0.0
C506 C 0.51244 0.0146 0.90306 0.0
C507 C 0.51927 0.02244 0.93425 0.0
C508 C 0.50345 0.98751 0.95424 0.0
C509 C 0.53911 0.96703 0.97241 0.0
C510 C 0.46899 0.00257 0.97613 0.0
C511 C 0.48655 0.959 0.92938 0.0
C512 C 0.49238 0.97511 0.90003 0.0
C513 C 0.48006 0.95419 0.8733 0.0
C514 C 0.46188 0.9153 0.87663 0.0
C515 C 0.45576 0.89815 0.90648 0.0
C516 C 0.4678 0.92056 0.93316 0.0
H517 H 0.07844 0.48663 0.12584 0.0
H518 H 0.10606 0.46083 0.02914 0.0
H519 H 0.03974 0.49378 1.01364 0.0
H520 H 0.96893 0.46764 0.12107 0.0
H521 H 0.95684 0.50816 0.1484 0.0
H522 H 0.00582 0.48164 0.15078 0.0
H523 H 0.04317 0.55234 0.14737 0.0
H524 H 0.99423 0.57889 0.14389 0.0
H525 H 0.03332 0.58564 0.11459 0.0
H526 H 0.97077 0.53183 1.00914 0.0
H527 H 0.9002 0.56015 0.01668 0.0
H528 H 0.92052 0.56167 0.11632 0.0
C529 C 0.0704 0.4874 0.10139 0.0
C530 C 0.09734 0.47124 0.07868 0.0
C531 C 0.08562 0.47273 0.04695 0.0
C532 C 0.04833 0.49186 0.03792 0.0
C533 C 0.02335 0.50914 0.06093 0.0
C534 C 0.03362 0.50629 0.09205 0.0
C535 C 0.00123 0.52606 0.11247 0.0
C536 C 0.98206 0.49396 0.13445 0.0
C537 C 0.01908 0.56292 0.13064 0.0
C538 C 0.97074 0.54024 0.08803 0.0
C539 C 0.98416 0.53082 0.05839 0.0
C540 C 0.96003 0.53949 0.03223 0.0
C541 C 0.92021 0.55606 0.0367 0.0
C542 C 0.9051 0.56318 0.06708 0.0
C543 C 0.93145 0.55684 0.09283 0.0
loop_
_geom_bond_atom_site_label_1
_geom_bond_atom_site_label_2
_geom_bond_distance
_geom_bond_site_symmetry_2
_ccdc_geom_bond_type
O0 Cd1 2.223 . S
O0 C8 1.315 . S
Cd1 O0 2.223 . S
Cd1 O4 2.297 . S
Cd1 O5 2.439 . S
Cd1 O11 2.240 . S
Cd2 O3 2.240 . S
Cd2 O10 2.223 . S
Cd2 O12 2.297 . S
Cd2 O13 2.439 . S
O3 Cd2 2.240 . S
O3 C8 1.279 . S
O4 Cd1 2.297 . S
O4 C6 1.247 . S
O5 Cd1 2.439 . S
O5 C6 1.208 . S
C6 O4 1.247 . S
C6 O5 1.208 . S
C7 O12 1.247 . S
C7 O13 1.208 . S
C8 O0 1.315 . S
C8 O3 1.279 . S
C9 O10 1.315 . S
C9 O11 1.279 . S
O10 Cd2 2.223 . S
O10 C9 1.315 . S
O11 Cd1 2.240 . S
O11 C9 1.279 . S
O12 Cd2 2.297 . S
O12 C7 1.247 . S
O13 Cd2 2.439 . S
O13 C7 1.208 . S
O14 Cd15 2.223 . S
O14 C22 1.315 . S
Cd15 O14 2.223 . S
Cd15 O18 2.297 . S
Cd15 O19 2.439 . S
Cd15 O25 2.240 . S
Cd16 O17 2.240 . S
Cd16 O24 2.223 . S
Cd16 O26 2.297 . S
Cd16 O27 2.439 . S
O17 Cd16 2.240 . S
O17 C22 1.279 . S
O18 Cd15 2.297 . S
O18 C20 1.247 . S
O19 Cd15 2.439 . S
O19 C20 1.208 . S
C20 O18 1.247 . S
C20 O19 1.208 . S
C21 O26 1.247 . S
C21 O27 1.208 . S
C22 O14 1.315 . S
C22 O17 1.279 . S
C23 O24 1.315 . S
C23 O25 1.279 . S
O24 Cd16 2.223 . S
O24 C23 1.315 . S
O25 Cd15 2.240 . S
O25 C23 1.279 . S
O26 Cd16 2.297 . S
O26 C21 1.247 . S
O27 Cd16 2.439 . S
O27 C21 1.208 . S
O28 Cd29 2.223 . S
O28 C36 1.315 . S
Cd29 O28 2.223 . S
Cd29 O32 2.297 . S
Cd29 O33 2.439 . S
Cd29 O39 2.240 . S
Cd30 O31 2.240 . S
Cd30 O38 2.223 . S
Cd30 O40 2.297 . S
Cd30 O41 2.439 . S
O31 Cd30 2.240 . S
O31 C36 1.279 . S
O32 Cd29 2.297 . S
O32 C34 1.247 . S
O33 Cd29 2.439 . S
O33 C34 1.208 . S
C34 O32 1.247 . S
C34 O33 1.208 . S
C35 O40 1.247 . S
C35 O41 1.208 . S
C36 O28 1.315 . S
C36 O31 1.279 . S
C37 O38 1.315 . S
C37 O39 1.279 . S
O38 Cd30 2.223 . S
O38 C37 1.315 . S
O39 Cd29 2.240 . S
O39 C37 1.279 . S
O40 Cd30 2.297 . S
O40 C35 1.247 . S
O41 Cd30 2.439 . S
O41 C35 1.208 . S
O42 Cd43 2.223 . S
O42 C50 1.315 . S
Cd43 O42 2.223 . S
Cd43 O46 2.297 . S
Cd43 O47 2.439 . S
Cd43 O53 2.240 . S
Cd44 O45 2.240 . S
Cd44 O52 2.223 . S
Cd44 O54 2.297 . S
Cd44 O55 2.439 . S
O45 Cd44 2.240 . S
O45 C50 1.279 . S
O46 Cd43 2.297 . S
O46 C48 1.247 . S
O47 Cd43 2.439 . S
O47 C48 1.208 . S
C48 O46 1.247 . S
C48 O47 1.208 . S
C49 O54 1.247 . S
C49 O55 1.208 . S
C50 O42 1.315 . S
C50 O45 1.279 . S
C51 O52 1.315 . S
C51 O53 1.279 . S
O52 Cd44 2.223 . S
O52 C51 1.315 . S
O53 Cd43 2.240 . S
O53 C51 1.279 . S
O54 Cd44 2.297 . S
O54 C49 1.247 . S
O55 Cd44 2.439 . S
O55 C49 1.208 . S
O56 Cd57 2.223 . S
O56 C64 1.315 . S
Cd57 O56 2.223 . S
Cd57 O60 2.307 . S
Cd57 O61 2.439 . S
Cd57 O67 2.240 . S
Cd58 O59 2.240 . S
Cd58 O66 2.223 . S
Cd58 O68 2.297 . S
Cd58 O69 2.439 . S
O59 Cd58 2.240 . S
O59 C64 1.279 . S
O60 Cd57 2.307 . S
O60 C62 1.265 . S
O61 Cd57 2.439 . S
O61 C62 1.208 . S
C62 O60 1.265 . S
C62 O61 1.208 . S
C63 O68 1.247 . S
C63 O69 1.208 . S
C64 O56 1.315 . S
C64 O59 1.279 . S
C65 O66 1.315 . S
C65 O67 1.279 . S
O66 Cd58 2.223 . S
O66 C65 1.315 . S
O67 Cd57 2.240 . S
O67 C65 1.279 . S
O68 Cd58 2.297 . S
O68 C63 1.247 . S
O69 Cd58 2.439 . S
O69 C63 1.208 . S
O70 Cd71 2.223 . S
O70 C78 1.315 . S
Cd71 O70 2.223 . S
Cd71 O74 2.307 . S
Cd71 O75 2.439 . S
Cd71 O81 2.240 . S
Cd72 O73 2.240 . S
Cd72 O80 2.223 . S
Cd72 O82 2.297 . S
Cd72 O83 2.439 . S
O73 Cd72 2.240 . S
O73 C78 1.279 . S
O74 Cd71 2.307 . S
O74 C76 1.265 . S
O75 Cd71 2.439 . S
O75 C76 1.208 . S
C76 O74 1.265 . S
C76 O75 1.208 . S
C77 O82 1.247 . S
C77 O83 1.208 . S
C78 O70 1.315 . S
C78 O73 1.279 . S
C79 O80 1.315 . S
C79 O81 1.279 . S
O80 Cd72 2.223 . S
O80 C79 1.315 . S
O81 Cd71 2.240 . S
O81 C79 1.279 . S
O82 Cd72 2.297 . S
O82 C77 1.247 . S
O83 Cd72 2.439 . S
O83 C77 1.208 . S
O84 Cd85 2.223 . S
O84 C92 1.315 . S
Cd85 O84 2.223 . S
Cd85 O88 2.307 . S
Cd85 O89 2.439 . S
Cd85 O95 2.240 . S
Cd86 O87 2.240 . S
Cd86 O94 2.223 . S
Cd86 O96 2.297 . S
Cd86 O97 2.439 . S
O87 Cd86 2.240 . S
O87 C92 1.279 . S
O88 Cd85 2.307 . S
O88 C90 1.265 . S
O89 Cd85 2.439 . S
O89 C90 1.208 . S
C90 O88 1.265 . S
C90 O89 1.208 . S
C91 O96 1.247 . S
C91 O97 1.208 . S
C92 O84 1.315 . S
C92 O87 1.279 . S
C93 O94 1.315 . S
C93 O95 1.279 . S
O94 Cd86 2.223 . S
O94 C93 1.315 . S
O95 Cd85 2.240 . S
O95 C93 1.279 . S
O96 Cd86 2.297 . S
O96 C91 1.247 . S
O97 Cd86 2.439 . S
O97 C91 1.208 . S
O98 Cd99 2.223 . S
O98 C106 1.315 . S
Cd99 O98 2.223 . S
Cd99 O102 2.307 . S
Cd99 O103 2.439 . S
Cd99 O109 2.240 . S
Cd100 O101 2.240 . S
Cd100 O108 2.223 . S
Cd100 O110 2.297 . S
Cd100 O111 2.439 . S
O101 Cd100 2.240 . S
O101 C106 1.279 . S
O102 Cd99 2.307 . S
O102 C104 1.265 . S
O103 Cd99 2.439 . S
O103 C104 1.208 . S
C104 O102 1.265 . S
C104 O103 1.208 . S
C105 O110 1.247 . S
C105 O111 1.208 . S
C106 O98 1.315 . S
C106 O101 1.279 . S
C107 O108 1.315 . S
C107 O109 1.279 . S
O108 Cd100 2.223 . S
O108 C107 1.315 . S
O109 Cd99 2.240 . S
O109 C107 1.279 . S
O110 Cd100 2.297 . S
O110 C105 1.247 . S
O111 Cd100 2.439 . S
O111 C105 1.208 . S
H112 C124 0.930 . S
H113 C126 0.930 . S
H114 C127 0.930 . S
H115 C131 0.959 . S
H116 C131 0.959 . S
H117 C131 0.961 . S
H118 C132 0.960 . S
H119 C132 0.961 . S
H120 C132 0.959 . S
H121 C135 0.929 . S
H122 C136 0.931 . S
H123 C138 0.930 . S
C124 H112 0.930 . S
C124 C125 1.399 . S
C124 C129 1.399 . S
C125 C124 1.399 . S
C125 C126 1.376 . S
C126 H113 0.930 . S
C126 C125 1.376 . S
C126 C127 1.388 . S
C127 H114 0.930 . S
C127 C126 1.388 . S
C127 C128 1.390 . S
C128 C127 1.390 . S
C128 C129 1.394 . S
C128 C134 1.465 . S
C129 C124 1.399 . S
C129 C128 1.394 . S
C129 C130 1.516 . S
C130 C129 1.516 . S
C130 C131 1.502 . S
C130 C132 1.561 . S
C130 C133 1.526 . S
C131 H115 0.959 . S
C131 H116 0.959 . S
C131 H117 0.961 . S
C131 C130 1.502 . S
C132 H118 0.960 . S
C132 H119 0.961 . S
C132 H120 0.959 . S
C132 C130 1.561 . S
C133 C130 1.526 . S
C133 C134 1.396 . S
C133 C138 1.390 . S
C134 C128 1.465 . S
C134 C133 1.396 . S
C134 C135 1.399 . S
C135 H121 0.929 . S
C135 C134 1.399 . S
C135 C136 1.385 . S
C136 H122 0.931 . S
C136 C135 1.385 . S
C136 C137 1.389 . S
C137 C136 1.389 . S
C137 C138 1.387 . S
C138 H123 0.930 . S
C138 C133 1.390 . S
C138 C137 1.387 . S
H139 C151 0.930 . S
H140 C153 0.930 . S
H141 C154 0.930 . S
H142 C158 0.959 . S
H143 C158 0.959 . S
H144 C158 0.961 . S
H145 C159 0.960 . S
H146 C159 0.961 . S
H147 C159 0.959 . S
H148 C162 0.929 . S
H149 C163 0.931 . S
H150 C165 0.930 . S
C151 H139 0.930 . S
C151 C152 1.399 . S
C151 C156 1.399 . S
C152 C151 1.399 . S
C152 C153 1.376 . S
C153 H140 0.930 . S
C153 C152 1.376 . S
C153 C154 1.388 . S
C154 H141 0.930 . S
C154 C153 1.388 . S
C154 C155 1.390 . S
C155 C154 1.390 . S
C155 C156 1.394 . S
C155 C161 1.465 . S
C156 C151 1.399 . S
C156 C155 1.394 . S
C156 C157 1.516 . S
C157 C156 1.516 . S
C157 C158 1.502 . S
C157 C159 1.561 . S
C157 C160 1.526 . S
C158 H142 0.959 . S
C158 H143 0.959 . S
C158 H144 0.961 . S
C158 C157 1.502 . S
C159 H145 0.960 . S
C159 H146 0.961 . S
C159 H147 0.959 . S
C159 C157 1.561 . S
C160 C157 1.526 . S
C160 C161 1.396 . S
C160 C165 1.390 . S
C161 C155 1.465 . S
C161 C160 1.396 . S
C161 C162 1.399 . S
C162 H148 0.929 . S
C162 C161 1.399 . S
C162 C163 1.385 . S
C163 H149 0.931 . S
C163 C162 1.385 . S
C163 C164 1.389 . S
C164 C163 1.389 . S
C164 C165 1.387 . S
C165 H150 0.930 . S
C165 C160 1.390 . S
C165 C164 1.387 . S
H166 C178 0.930 . S
H167 C180 0.930 . S
H168 C181 0.930 . S
H169 C185 0.959 . S
H170 C185 0.959 . S
H171 C185 0.961 . S
H172 C186 0.960 . S
H173 C186 0.961 . S
H174 C186 0.959 . S
H175 C189 0.929 . S
H176 C190 0.931 . S
H177 C192 0.930 . S
C178 H166 0.930 . S
C178 C179 1.399 . S
C178 C183 1.399 . S
C179 C178 1.399 . S
C179 C180 1.376 . S
C180 H167 0.930 . S
C180 C179 1.376 . S
C180 C181 1.388 . S
C181 H168 0.930 . S
C181 C180 1.388 . S
C181 C182 1.390 . S
C182 C181 1.390 . S
C182 C183 1.394 . S
C182 C188 1.465 . S
C183 C178 1.399 . S
C183 C182 1.394 . S
C183 C184 1.516 . S
C184 C183 1.516 . S
C184 C185 1.502 . S
C184 C186 1.561 . S
C184 C187 1.526 . S
C185 H169 0.959 . S
C185 H170 0.959 . S
C185 H171 0.961 . S
C185 C184 1.502 . S
C186 H172 0.960 . S
C186 H173 0.961 . S
C186 H174 0.959 . S
C186 C184 1.561 . S
C187 C184 1.526 . S
C187 C188 1.396 . S
C187 C192 1.390 . S
C188 C182 1.465 . S
C188 C187 1.396 . S
C188 C189 1.399 . S
C189 H175 0.929 . S
C189 C188 1.399 . S
C189 C190 1.385 . S
C190 H176 0.931 . S
C190 C189 1.385 . S
C190 C191 1.389 . S
C191 C190 1.389 . S
C191 C192 1.387 . S
C192 H177 0.930 . S
C192 C187 1.390 . S
C192 C191 1.387 . S
H193 C205 0.930 . S
H194 C207 0.930 . S
H195 C208 0.930 . S
H196 C212 0.959 . S
H197 C212 0.959 . S
H198 C212 0.961 . S
H199 C213 0.960 . S
H200 C213 0.961 . S
H201 C213 0.959 . S
H202 C216 0.929 . S
H203 C217 0.931 . S
H204 C219 0.930 . S
C205 H193 0.930 . S
C205 C206 1.399 . S
C205 C210 1.399 . S
C206 C205 1.399 . S
C206 C207 1.376 . S
C207 H194 0.930 . S
C207 C206 1.376 . S
C207 C208 1.388 . S
C208 H195 0.930 . S
C208 C207 1.388 . S
C208 C209 1.390 . S
C209 C208 1.390 . S
C209 C210 1.394 . S
C209 C215 1.465 . S
C210 C205 1.399 . S
C210 C209 1.394 . S
C210 C211 1.516 . S
C211 C210 1.516 . S
C211 C212 1.502 . S
C211 C213 1.561 . S
C211 C214 1.526 . S
C212 H196 0.959 . S
C212 H197 0.959 . S
C212 H198 0.961 . S
C212 C211 1.502 . S
C213 H199 0.960 . S
C213 H200 0.961 . S
C213 H201 0.959 . S
C213 C211 1.561 . S
C214 C211 1.526 . S
C214 C215 1.396 . S
C214 C219 1.390 . S
C215 C209 1.465 . S
C215 C214 1.396 . S
C215 C216 1.399 . S
C216 H202 0.929 . S
C216 C215 1.399 . S
C216 C217 1.385 . S
C217 H203 0.931 . S
C217 C216 1.385 . S
C217 C218 1.389 . S
C218 C217 1.389 . S
C218 C219 1.387 . S
C219 H204 0.930 . S
C219 C214 1.390 . S
C219 C218 1.387 . S
H220 C232 0.930 . S
H221 C234 0.930 1_565 S
H222 C235 0.930 . S
H223 C239 0.959 . S
H224 C239 0.959 . S
H225 C239 0.961 . S
H226 C240 0.960 . S
H227 C240 0.961 . S
H228 C240 0.959 . S
H229 C243 0.929 . S
H230 C244 0.931 . S
H231 C246 0.930 . S
C232 H220 0.930 . S
C232 C233 1.413 . S
C232 C237 1.399 . S
C233 C232 1.413 . S
C233 C234 1.379 . S
C234 H221 0.930 1_545 S
C234 C233 1.379 . S
C234 C235 1.388 . S
C235 H222 0.930 . S
C235 C234 1.388 . S
C235 C236 1.390 . S
C236 C235 1.390 . S
C236 C237 1.394 . S
C236 C242 1.465 . S
C237 C232 1.399 . S
C237 C236 1.394 . S
C237 C238 1.516 . S
C238 C237 1.516 . S
C238 C239 1.502 . S
C238 C240 1.561 . S
C238 C241 1.526 . S
C239 H223 0.959 . S
C239 H224 0.959 . S
C239 H225 0.961 . S
C239 C238 1.502 . S
C240 H226 0.960 . S
C240 H227 0.961 . S
C240 H228 0.959 . S
C240 C238 1.561 . S
C241 C238 1.526 . S
C241 C242 1.396 . S
C241 C246 1.390 . S
C242 C236 1.465 . S
C242 C241 1.396 . S
C242 C243 1.399 . S
C243 H229 0.929 . S
C243 C242 1.399 . S
C243 C244 1.385 . S
C244 H230 0.931 . S
C244 C243 1.385 . S
C244 C245 1.389 . S
C245 C244 1.389 . S
C245 C246 1.387 . S
C246 H231 0.930 . S
C246 C241 1.390 . S
C246 C245 1.387 . S
H247 C259 0.930 . S
H248 C261 0.930 . S
H249 C262 0.930 . S
H250 C266 0.959 . S
H251 C266 0.959 . S
H252 C266 0.961 . S
H253 C267 0.960 . S
H254 C267 0.961 . S
H255 C267 0.959 . S
H256 C270 0.929 . S
H257 C271 0.931 . S
H258 C273 0.930 1_655 S
C259 H247 0.930 . S
C259 C260 1.399 . S
C259 C264 1.399 . S
C260 C259 1.399 . S
C260 C261 1.376 . S
C261 H248 0.930 . S
C261 C260 1.376 . S
C261 C262 1.388 . S
C262 H249 0.930 . S
C262 C261 1.388 . S
C262 C263 1.390 . S
C263 C262 1.390 . S
C263 C264 1.394 . S
C263 C269 1.465 . S
C264 C259 1.399 . S
C264 C263 1.394 . S
C264 C265 1.516 . S
C265 C264 1.516 . S
C265 C266 1.502 . S
C265 C267 1.561 . S
C265 C268 1.526 . S
C266 H250 0.959 . S
C266 H251 0.959 . S
C266 H252 0.961 . S
C266 C265 1.502 . S
C267 H253 0.960 . S
C267 H254 0.961 . S
C267 H255 0.959 . S
C267 C265 1.561 . S
C268 C265 1.526 . S
C268 C269 1.396 . S
C268 C273 1.390 . S
C269 C263 1.465 . S
C269 C268 1.396 . S
C269 C270 1.399 . S
C270 H256 0.929 . S
C270 C269 1.399 . S
C270 C271 1.385 . S
C271 H257 0.931 . S
C271 C270 1.385 . S
C271 C272 1.389 . S
C272 C271 1.389 . S
C272 C273 1.387 . S
C273 H258 0.930 1_455 S
C273 C268 1.390 . S
C273 C272 1.387 . S
H274 C286 0.930 . S
H275 C288 0.930 . S
H276 C289 0.930 . S
H277 C293 0.959 . S
H278 C293 0.959 . S
H279 C293 0.961 . S
H280 C294 0.960 . S
H281 C294 0.961 . S
H282 C294 0.959 . S
H283 C297 0.929 . S
H284 C298 0.931 . S
H285 C300 0.930 . S
C286 H274 0.930 . S
C286 C287 1.403 . S
C286 C291 1.399 . S
C287 C286 1.403 . S
C287 C288 1.379 . S
C288 H275 0.930 . S
C288 C287 1.379 . S
C288 C289 1.388 . S
C289 H276 0.930 . S
C289 C288 1.388 . S
C289 C290 1.390 . S
C290 C289 1.390 . S
C290 C291 1.394 . S
C290 C296 1.465 . S
C291 C286 1.399 . S
C291 C290 1.394 . S
C291 C292 1.516 . S
C292 C291 1.516 . S
C292 C293 1.502 . S
C292 C294 1.561 . S
C292 C295 1.526 . S
C293 H277 0.959 . S
C293 H278 0.959 . S
C293 H279 0.961 . S
C293 C292 1.502 . S
C294 H280 0.960 . S
C294 H281 0.961 . S
C294 H282 0.959 . S
C294 C292 1.561 . S
C295 C292 1.526 . S
C295 C296 1.396 . S
C295 C300 1.390 . S
C296 C290 1.465 . S
C296 C295 1.396 . S
C296 C297 1.399 . S
C297 H283 0.929 . S
C297 C296 1.399 . S
C297 C298 1.385 . S
C298 H284 0.931 . S
C298 C297 1.385 . S
C298 C299 1.389 . S
C299 C298 1.389 . S
C299 C300 1.387 . S
C300 H285 0.930 . S
C300 C295 1.390 . S
C300 C299 1.387 . S
H301 C313 0.930 . S
H302 C315 0.930 . S
H303 C316 0.930 . S
H304 C320 0.959 . S
H305 C320 0.959 . S
H306 C320 0.961 . S
H307 C321 0.960 . S
H308 C321 0.961 . S
H309 C321 0.959 . S
H310 C324 0.929 . S
H311 C325 0.931 1_455 S
H312 C327 0.930 . S
C313 H301 0.930 . S
C313 C314 1.399 . S
C313 C318 1.399 . S
C314 C313 1.399 . S
C314 C315 1.376 . S
C315 H302 0.930 . S
C315 C314 1.376 . S
C315 C316 1.388 . S
C316 H303 0.930 . S
C316 C315 1.388 . S
C316 C317 1.390 . S
C317 C316 1.390 . S
C317 C318 1.394 . S
C317 C323 1.465 . S
C318 C313 1.399 . S
C318 C317 1.394 . S
C318 C319 1.516 . S
C319 C318 1.516 . S
C319 C320 1.502 . S
C319 C321 1.561 . S
C319 C322 1.526 . S
C320 H304 0.959 . S
C320 H305 0.959 . S
C320 H306 0.961 . S
C320 C319 1.502 . S
C321 H307 0.960 . S
C321 H308 0.961 . S
C321 H309 0.959 . S
C321 C319 1.561 . S
C322 C319 1.526 . S
C322 C323 1.396 . S
C322 C327 1.390 . S
C323 C317 1.465 . S
C323 C322 1.396 . S
C323 C324 1.399 . S
C324 H310 0.929 . S
C324 C323 1.399 . S
C324 C325 1.385 . S
C325 H311 0.931 1_655 S
C325 C324 1.385 . S
C325 C326 1.389 1_655 S
C326 C325 1.389 1_455 S
C326 C327 1.382 1_455 S
C327 H312 0.930 . S
C327 C322 1.390 . S
C327 C326 1.382 1_655 S
H328 C340 0.930 . S
H329 C342 0.930 . S
H330 C343 0.930 . S
H331 C347 0.959 . S
H332 C347 0.959 1_556 S
H333 C347 0.961 . S
H334 C348 0.960 . S
H335 C348 0.961 . S
H336 C348 0.959 . S
H337 C351 0.929 . S
H338 C352 0.931 . S
H339 C354 0.930 . S
C340 H328 0.930 . S
C340 C341 1.399 . S
C340 C345 1.399 . S
C341 C340 1.399 . S
C341 C342 1.376 . S
C342 H329 0.930 . S
C342 C341 1.376 . S
C342 C343 1.388 . S
C343 H330 0.930 . S
C343 C342 1.388 . S
C343 C344 1.390 . S
C344 C343 1.390 . S
C344 C345 1.394 . S
C344 C350 1.465 . S
C345 C340 1.399 . S
C345 C344 1.394 . S
C345 C346 1.516 1_554 S
C346 C345 1.516 1_556 S
C346 C347 1.502 1_556 S
C346 C348 1.561 . S
C346 C349 1.526 . S
C347 H331 0.959 . S
C347 H332 0.959 1_554 S
C347 H333 0.961 . S
C347 C346 1.502 1_554 S
C348 H334 0.960 . S
C348 H335 0.961 . S
C348 H336 0.959 . S
C348 C346 1.561 . S
C349 C346 1.526 . S
C349 C350 1.396 1_556 S
C349 C354 1.390 . S
C350 C344 1.465 . S
C350 C349 1.396 1_554 S
C350 C351 1.399 . S
C351 H337 0.929 . S
C351 C350 1.399 . S
C351 C352 1.385 1_554 S
C352 H338 0.931 . S
C352 C351 1.385 1_556 S
C352 C353 1.389 . S
C353 C352 1.389 . S
C353 C354 1.387 . S
C354 H339 0.930 . S
C354 C349 1.390 . S
C354 C353 1.387 . S
H355 C367 0.930 . S
H356 C369 0.933 . S
H357 C370 0.930 . S
H358 C374 0.959 1_556 S
H359 C374 0.959 . S
H360 C374 0.961 . S
H361 C375 0.960 . S
H362 C375 0.961 . S
H363 C375 0.959 . S
H364 C378 0.929 . S
H365 C379 0.931 . S
H366 C381 0.930 . S
C367 H355 0.930 . S
C367 C368 1.399 . S
C367 C372 1.399 . S
C368 C367 1.399 . S
C368 C369 1.376 . S
C369 H356 0.933 . S
C369 C368 1.376 . S
C369 C370 1.388 1_554 S
C370 H357 0.930 . S
C370 C369 1.388 1_556 S
C370 C371 1.390 . S
C371 C370 1.390 . S
C371 C372 1.394 1_556 S
C371 C377 1.465 . S
C372 C367 1.399 . S
C372 C371 1.394 1_554 S
C372 C373 1.516 . S
C373 C372 1.516 . S
C373 C374 1.502 . S
C373 C375 1.561 . S
C373 C376 1.526 1_554 S
C374 H358 0.959 1_554 S
C374 H359 0.959 . S
C374 H360 0.961 . S
C374 C373 1.502 . S
C375 H361 0.960 . S
C375 H362 0.961 . S
C375 H363 0.959 . S
C375 C373 1.561 . S
C376 C373 1.526 1_556 S
C376 C377 1.396 . S
C376 C381 1.390 . S
C377 C371 1.465 . S
C377 C376 1.396 . S
C377 C378 1.399 . S
C378 H364 0.929 . S
C378 C377 1.399 . S
C378 C379 1.385 . S
C379 H365 0.931 . S
C379 C378 1.385 . S
C379 C380 1.389 . S
C380 C379 1.389 . S
C380 C381 1.387 . S
C381 H366 0.930 . S
C381 C376 1.390 . S
C381 C380 1.387 . S
H382 C394 0.930 . S
H383 C396 0.930 . S
H384 C397 0.930 . S
H385 C401 0.959 . S
H386 C401 0.959 . S
H387 C401 0.961 . S
H388 C402 0.960 . S
H389 C402 0.961 . S
H390 C402 0.959 . S
H391 C405 0.929 . S
H392 C406 0.931 . S
H393 C408 0.930 . S
C394 H382 0.930 . S
C394 C395 1.399 . S
C394 C399 1.399 . S
C395 C394 1.399 . S
C395 C396 1.376 1_554 S
C396 H383 0.930 . S
C396 C395 1.376 1_556 S
C396 C397 1.388 . S
C397 H384 0.930 . S
C397 C396 1.388 . S
C397 C398 1.390 . S
C398 C397 1.390 . S
C398 C399 1.394 1_556 S
C398 C404 1.465 . S
C399 C394 1.399 . S
C399 C398 1.394 1_554 S
C399 C400 1.516 . S
C400 C399 1.516 . S
C400 C401 1.502 . S
C400 C402 1.561 . S
C400 C403 1.526 . S
C401 H385 0.959 . S
C401 H386 0.959 . S
C401 H387 0.961 . S
C401 C400 1.502 . S
C402 H388 0.960 . S
C402 H389 0.961 . S
C402 H390 0.959 . S
C402 C400 1.561 . S
C403 C400 1.526 . S
C403 C404 1.396 1_554 S
C403 C408 1.390 . S
C404 C398 1.465 . S
C404 C403 1.396 1_556 S
C404 C405 1.399 . S
C405 H391 0.929 . S
C405 C404 1.399 . S
C405 C406 1.385 . S
C406 H392 0.931 . S
C406 C405 1.385 . S
C406 C407 1.389 . S
C407 C406 1.389 . S
C407 C408 1.387 1_556 S
C408 H393 0.930 . S
C408 C403 1.390 . S
C408 C407 1.387 1_554 S
H409 C421 0.930 . S
H410 C423 0.930 . S
H411 C424 0.930 . S
H412 C428 0.959 . S
H413 C428 0.959 . S
H414 C428 0.961 . S
H415 C429 0.960 . S
H416 C429 0.961 . S
H417 C429 0.959 . S
H418 C432 0.929 . S
H419 C433 0.931 . S
H420 C435 0.930 . S
C421 H409 0.930 . S
C421 C422 1.399 . S
C421 C426 1.399 . S
C422 C421 1.399 . S
C422 C423 1.376 1_556 S
C423 H410 0.930 . S
C423 C422 1.376 1_554 S
C423 C424 1.388 . S
C424 H411 0.930 . S
C424 C423 1.388 . S
C424 C425 1.390 . S
C425 C424 1.390 . S
C425 C426 1.394 1_554 S
C425 C431 1.465 . S
C426 C421 1.399 . S
C426 C425 1.394 1_556 S
C426 C427 1.516 . S
C427 C426 1.516 . S
C427 C428 1.502 . S
C427 C429 1.561 . S
C427 C430 1.526 . S
C428 H412 0.959 . S
C428 H413 0.959 . S
C428 H414 0.961 . S
C428 C427 1.502 . S
C429 H415 0.960 . S
C429 H416 0.961 . S
C429 H417 0.959 . S
C429 C427 1.561 . S
C430 C427 1.526 . S
C430 C431 1.396 1_556 S
C430 C435 1.390 . S
C431 C425 1.465 . S
C431 C430 1.396 1_554 S
C431 C432 1.399 . S
C432 H418 0.929 . S
C432 C431 1.399 . S
C432 C433 1.385 . S
C433 H419 0.931 . S
C433 C432 1.385 . S
C433 C434 1.389 . S
C434 C433 1.389 . S
C434 C435 1.387 1_554 S
C435 H420 0.930 . S
C435 C430 1.390 . S
C435 C434 1.387 1_556 S
H436 C448 0.930 . S
H437 C450 0.930 . S
H438 C451 0.930 . S
H439 C455 0.959 . S
H440 C455 0.959 . S
H441 C455 0.961 . S
H442 C456 0.960 . S
H443 C456 0.961 . S
H444 C456 0.959 1_455 S
H445 C459 0.929 . S
H446 C460 0.931 . S
H447 C462 0.930 . S
C448 H436 0.930 . S
C448 C449 1.399 . S
C448 C453 1.399 . S
C449 C448 1.399 . S
C449 C450 1.376 . S
C450 H437 0.930 . S
C450 C449 1.376 . S
C450 C451 1.388 1_655 S
C451 H438 0.930 . S
C451 C450 1.388 1_455 S
C451 C452 1.390 . S
C452 C451 1.390 . S
C452 C453 1.394 1_455 S
C452 C458 1.465 . S
C453 C448 1.399 . S
C453 C452 1.394 1_655 S
C453 C454 1.516 . S
C454 C453 1.516 . S
C454 C455 1.502 . S
C454 C456 1.561 . S
C454 C457 1.526 1_655 S
C455 H439 0.959 . S
C455 H440 0.959 . S
C455 H441 0.961 . S
C455 C454 1.502 . S
C456 H442 0.960 . S
C456 H443 0.961 . S
C456 H444 0.959 1_655 S
C456 C454 1.561 . S
C457 C454 1.526 1_455 S
C457 C458 1.396 . S
C457 C462 1.390 . S
C458 C452 1.465 . S
C458 C457 1.396 . S
C458 C459 1.399 . S
C459 H445 0.929 . S
C459 C458 1.399 . S
C459 C460 1.385 . S
C460 H446 0.931 . S
C460 C459 1.385 . S
C460 C461 1.389 . S
C461 C460 1.389 . S
C461 C462 1.387 . S
C462 H447 0.930 . S
C462 C457 1.390 . S
C462 C461 1.387 . S
H463 C475 0.930 . S
H464 C477 0.930 . S
H465 C478 0.930 . S
H466 C482 0.959 . S
H467 C482 0.959 . S
H468 C482 0.961 . S
H469 C483 0.960 . S
H470 C483 0.961 . S
H471 C483 0.959 . S
H472 C486 0.929 . S
H473 C487 0.931 . S
H474 C489 0.930 . S
C475 H463 0.930 . S
C475 C476 1.399 . S
C475 C480 1.399 . S
C476 C475 1.399 . S
C476 C477 1.376 . S
C477 H464 0.930 . S
C477 C476 1.376 . S
C477 C478 1.388 . S
C478 H465 0.930 . S
C478 C477 1.388 . S
C478 C479 1.390 . S
C479 C478 1.390 . S
C479 C480 1.394 . S
C479 C485 1.465 1_545 S
C480 C475 1.399 . S
C480 C479 1.394 . S
C480 C481 1.516 1_545 S
C481 C480 1.516 1_565 S
C481 C482 1.502 . S
C481 C483 1.561 1_565 S
C481 C484 1.526 . S
C482 H466 0.959 . S
C482 H467 0.959 . S
C482 H468 0.961 . S
C482 C481 1.502 . S
C483 H469 0.960 . S
C483 H470 0.961 . S
C483 H471 0.959 . S
C483 C481 1.561 1_545 S
C484 C481 1.526 . S
C484 C485 1.396 . S
C484 C489 1.390 . S
C485 C479 1.465 1_565 S
C485 C484 1.396 . S
C485 C486 1.399 . S
C486 H472 0.929 . S
C486 C485 1.399 . S
C486 C487 1.385 . S
C487 H473 0.931 . S
C487 C486 1.385 . S
C487 C488 1.389 . S
C488 C487 1.389 . S
C488 C489 1.387 . S
C489 H474 0.930 . S
C489 C484 1.390 . S
C489 C488 1.387 . S
H490 C502 0.930 . S
H491 C504 0.930 . S
H492 C505 0.930 . S
H493 C509 0.959 1_556 S
H494 C509 0.959 . S
H495 C509 0.961 . S
H496 C510 0.960 . S
H497 C510 0.961 1_565 S
H498 C510 0.959 1_556 S
H499 C513 0.929 . S
H500 C514 0.931 . S
H501 C516 0.930 . S
C502 H490 0.930 . S
C502 C503 1.399 . S
C502 C507 1.399 . S
C503 C502 1.399 . S
C503 C504 1.376 . S
C504 H491 0.930 . S
C504 C503 1.376 . S
C504 C505 1.388 . S
C505 H492 0.930 . S
C505 C504 1.388 . S
C505 C506 1.390 . S
C506 C505 1.390 . S
C506 C507 1.394 . S
C506 C512 1.465 1_545 S
C507 C502 1.399 . S
C507 C506 1.394 . S
C507 C508 1.516 1_545 S
C508 C507 1.516 1_565 S
C508 C509 1.502 1_556 S
C508 C510 1.561 1_566 S
C508 C511 1.526 . S
C509 H493 0.959 1_554 S
C509 H494 0.959 . S
C509 H495 0.961 . S
C509 C508 1.502 1_554 S
C510 H496 0.960 . S
C510 H497 0.961 1_545 S
C510 H498 0.959 1_554 S
C510 C508 1.561 1_544 S
C511 C508 1.526 . S
C511 C512 1.396 . S
C511 C516 1.390 . S
C512 C506 1.465 1_565 S
C512 C511 1.396 . S
C512 C513 1.399 . S
C513 H499 0.929 . S
C513 C512 1.399 . S
C513 C514 1.385 . S
C514 H500 0.931 . S
C514 C513 1.385 . S
C514 C515 1.389 . S
C515 C514 1.389 . S
C515 C516 1.387 . S
C516 H501 0.930 . S
C516 C511 1.390 . S
C516 C515 1.387 . S
H517 C529 0.930 . S
H518 C531 0.930 . S
H519 C532 0.930 1_655 S
H520 C536 0.959 . S
H521 C536 0.959 . S
H522 C536 0.961 . S
H523 C537 0.960 . S
H524 C537 0.961 . S
H525 C537 0.959 . S
H526 C540 0.929 . S
H527 C541 0.931 . S
H528 C543 0.930 . S
C529 H517 0.930 . S
C529 C530 1.399 . S
C529 C534 1.399 . S
C530 C529 1.399 . S
C530 C531 1.376 . S
C531 H518 0.930 . S
C531 C530 1.376 . S
C531 C532 1.388 . S
C532 H519 0.930 1_455 S
C532 C531 1.388 . S
C532 C533 1.390 . S
C533 C532 1.390 . S
C533 C534 1.394 . S
C533 C539 1.465 1_455 S
C534 C529 1.399 . S
C534 C533 1.394 . S
C534 C535 1.516 . S
C535 C534 1.516 . S
C535 C536 1.502 . S
C535 C537 1.561 . S
C535 C538 1.526 1_455 S
C536 H520 0.959 . S
C536 H521 0.959 . S
C536 H522 0.961 . S
C536 C535 1.502 . S
C537 H523 0.960 . S
C537 H524 0.961 . S
C537 H525 0.959 . S
C537 C535 1.561 . S
C538 C535 1.526 1_655 S
C538 C539 1.396 . S
C538 C543 1.390 . S
C539 C533 1.465 1_655 S
C539 C538 1.396 . S
C539 C540 1.399 . S
C540 H526 0.929 . S
C540 C539 1.399 . S
C540 C541 1.385 . S
C541 H527 0.931 . S
C541 C540 1.385 . S
C541 C542 1.389 . S
C542 C541 1.389 . S
C542 C543 1.387 . S
C543 H528 0.930 . S
C543 C538 1.390 . S
C543 C542 1.387 . S
C125 C105 1.524 . S
C137 C7 1.578 . S
C152 C21 1.531 . S
C164 C63 1.540 . S
C179 C35 1.566 . S
C191 C77 1.590 . S
C206 C91 1.590 . S
C218 C49 1.524 . S
C233 C22 1.470 1_545 S
C245 C6 1.502 . S
C260 C20 1.463 . S
C272 C36 1.507 1_455 S
C287 C50 1.491 1_565 S
C299 C34 1.462 . S
C314 C48 1.463 . S
C326 C8 1.499 . S
C341 C106 1.500 . S
C353 C62 1.497 . S
C368 C76 1.500 . S
C380 C64 1.505 . S
C395 C78 1.480 . S
C407 C90 1.500 . S
C422 C92 1.484 . S
C434 C104 1.498 . S
C449 C37 1.248 . S
C461 C9 1.319 . S
C476 C51 1.323 . S
C488 C23 1.299 . S
C503 C93 1.214 . S
C515 C65 1.243 . S
C530 C107 1.322 . S
C542 C79 1.273 . S
