# Generated by pormake.
# Topology kag, (6)-cn, num edge types: 1
# Building blocks:
#     Node 0, Type 0, BuildingBlock: INOVEN_clean_sbu_0, # of connection points: 6
#     Node 1, Type 0, BuildingBlock: INOVEN_clean_sbu_0, # of connection points: 6
#     Node 2, Type 0, BuildingBlock: INOVEN_clean_sbu_0, # of connection points: 6
#     Edge 3, Type (0, 0), BuildingBlock: CIFDUS_clean_linker_0, # of connection points: 2
#     Edge 4, Type (0, 0), BuildingBlock: CIFDUS_clean_linker_0, # of connection points: 2
#     Edge 5, Type (0, 0), BuildingBlock: CIFDUS_clean_linker_0, # of connection points: 2
#     Edge 6, Type (0, 0), BuildingBlock: CIFDUS_clean_linker_0, # of connection points: 2
#     Edge 7, Type (0, 0), BuildingBlock: CIFDUS_clean_linker_0, # of connection points: 2
#     Edge 8, Type (0, 0), BuildingBlock: CIFDUS_clean_linker_0, # of connection points: 2
#     Edge 9, Type (0, 0), BuildingBlock: CIFDUS_clean_linker_0, # of connection points: 2
#     Edge 10, Type (0, 0), BuildingBlock: CIFDUS_clean_linker_0, # of connection points: 2
#     Edge 11, Type (0, 0), BuildingBlock: CIFDUS_clean_linker_0, # of connection points: 2
# Relax obj value: 0.089
# Max RMSD: 0.217
# Mean RMSD: 0.114
data_MOF--net-kag--node1-INOVEN_clean_sbu_0--edge1-CIFDUS_clean_linker_0
_symmetry_space_group_name_H-M    P1
_symmetry_Int_Tables_number       1
_symmetry_cell_setting            triclinic
loop_
_symmetry_equiv_pos_as_xyz
'x, y, z'
_cell_length_a     27.610944
_cell_length_b     38.545615
_cell_length_c     12.778063
_cell_angle_alpha  96.4344
_cell_angle_beta   93.098896
_cell_angle_gamma 95.168663
loop_
_atom_site_label
_atom_site_type_symbol
_atom_site_fract_x
_atom_site_fract_y
_atom_site_fract_z
_atom_type_partial_charge
Gd0 Gd 0.07401 0.46699 0.02034 0.0
Gd1 Gd 0.07895 0.54101 0.01032 0.0
C2 C 0.97183 0.50226 0.99635 0.0
C3 C 1.05426 0.4032 0.06167 0.0
C4 C 1.01188 0.37668 0.05251 0.0
C5 C 0.9825 0.36829 0.95812 0.0
C6 C 1.00126 0.35892 0.13963 0.0
C7 C 0.93397 0.32343 0.03712 0.0
C8 C 0.96259 0.33263 0.13222 0.0
C9 C 0.94402 0.34173 0.95037 0.0
C10 C 0.08506 0.48396 0.82043 0.0
C11 C 0.18092 0.50398 0.03722 0.0
C12 C 0.09596 0.60509 0.967 0.0
C13 C 0.13334 0.63527 0.98158 0.0
C14 C 0.16861 0.64012 0.06661 0.0
C15 C 0.13159 0.66086 0.91223 0.0
C16 C 0.1982 0.69707 0.01567 0.0
C17 C 0.16361 0.69143 0.92897 0.0
C18 C 0.20076 0.6708 0.08359 0.0
C19 C 0.06811 0.52426 0.21042 0.0
O20 O 0.99415 0.47596 0.02722 0.0
O21 O 0.99767 0.53006 0.96951 0.0
O22 O 0.07239 0.41113 0.9741 0.0
O23 O 1.05265 0.43057 0.13114 0.0
O24 O 0.1077 0.46065 0.86354 0.0
O25 O 1.0565 0.49735 0.88477 0.0
O26 O 0.15983 0.53103 1.0062 0.0
O27 O 0.15395 0.47684 0.06391 0.0
O28 O 0.0753 0.59665 0.05126 0.0
O29 O 0.10472 0.57775 0.90332 0.0
O30 O 1.0461 0.54794 0.16794 0.0
O31 O 0.09647 0.51079 0.14582 0.0
H32 H 0.98959 0.3819 0.89001 0.0
H33 H 1.02343 0.36503 0.21314 0.0
H34 H 0.95606 0.31872 0.2 0.0
H35 H 0.92225 0.33538 0.87646 0.0
H36 H 0.17064 0.62055 0.1209 0.0
H37 H 0.10446 0.65763 0.84645 0.0
H38 H 0.16001 0.71121 0.87595 0.0
H39 H 0.22731 0.67409 0.15034 0.0
Gd40 Gd 0.60341 0.0206 0.00737 0.0
Gd41 Gd 0.50003 0.0149 0.02576 0.0
C42 C 0.54801 0.09228 0.04895 0.0
C43 C 0.69099 0.03973 0.95996 0.0
C44 C 0.71915 0.07397 0.95399 0.0
C45 C 0.74457 0.09255 0.04438 0.0
C46 C 0.72063 0.08855 0.85797 0.0
C47 C 0.7714 0.13988 0.94353 0.0
C48 C 0.74641 0.12118 0.85284 0.0
C49 C 0.77026 0.12515 0.03924 0.0
C50 C 0.57914 1.01095 0.20688 0.0
C51 C 0.55573 0.94337 0.99265 0.0
C52 C 0.41208 0.99317 0.06423 0.0
C53 C 0.38608 0.95748 0.05728 0.0
C54 C 0.34974 0.94654 0.97618 0.0
C55 C 0.39908 0.93333 0.12636 0.0
C56 C 0.34182 0.88761 0.02935 0.0
C57 C 0.37711 0.89879 0.1126 0.0
C58 C 0.32801 0.91201 0.96211 0.0
C59 C 0.52508 0.02455 0.82691 0.0
O60 O 0.58544 0.07734 0.00954 0.0
O61 O 0.51024 0.07278 0.07686 0.0
O62 O 0.68025 0.03236 0.05382 0.0
O63 O 0.65479 0.0305 0.88923 0.0
O64 O 0.61275 0.99573 0.15756 0.0
O65 O 0.55979 0.03129 0.14878 0.0
O66 O 0.51835 0.95891 0.02893 0.0
O67 O 0.5938 0.96215 0.96342 0.0
O68 O 0.42342 1.00396 0.97461 0.0
O69 O 0.4472 1.00145 0.13806 0.0
O70 O 0.492 0.04033 0.87633 0.0
O71 O 0.54372 1.0039 0.88498 0.0
H72 H 0.7447 0.08196 0.11938 0.0
H73 H 0.70169 0.07481 0.7867 0.0
H74 H 0.74643 0.1319 0.77804 0.0
H75 H 0.78996 0.13854 0.11007 0.0
H76 H 0.33878 0.96455 0.92212 0.0
H77 H 0.42704 0.94079 0.18964 0.0
H78 H 0.38875 0.88058 0.16532 0.0
H79 H 0.30034 0.90438 0.8983 0.0
Gd80 Gd 0.58332 0.55916 1.00594 0.0
Gd81 Gd 0.57159 0.4791 0.98721 0.0
C82 C 0.47334 0.51808 0.99021 0.0
C83 C 0.58259 0.62512 0.98538 0.0
C84 C 0.58203 0.66321 0.97577 0.0
C85 C 0.57583 0.68699 0.06472 0.0
C86 C 0.58868 0.67632 0.87865 0.0
C87 C 0.58331 0.73627 0.96005 0.0
C88 C 0.5896 0.71245 0.871 0.0
C89 C 0.57622 0.72299 0.05687 0.0
C90 C 0.58615 0.53159 0.19176 0.0
C91 C 0.68198 0.5217 0.9991 0.0
C92 C 0.57277 0.41289 1.00604 0.0
C93 C 0.57394 0.37451 0.0119 0.0
C94 C 0.58244 0.35207 0.92154 0.0
C95 C 0.56648 0.35977 0.10637 0.0
C96 C 0.57656 0.30107 0.01972 0.0
C97 C 0.56738 0.32343 0.11003 0.0
C98 C 0.584 0.31598 0.92552 0.0
C99 C 0.56837 0.50675 0.80162 0.0
O100 O 0.50136 0.5465 0.97352 0.0
O101 O 0.49275 0.48905 0.01061 0.0
O102 O 0.58767 0.61333 0.07698 0.0
O103 O 0.57743 0.60083 0.90412 0.0
O104 O 0.61312 0.55937 0.17388 0.0
O105 O 0.5579 0.52046 0.11193 0.0
O106 O 0.65501 0.49226 0.01292 0.0
O107 O 0.66136 0.55045 0.9827 0.0
O108 O 0.56496 0.42508 0.91585 0.0
O109 O 0.57994 0.43696 0.08785 0.0
O110 O 0.5414 0.47896 0.81944 0.0
O111 O 0.59679 0.51766 0.88131 0.0
H112 H 0.57071 0.67778 0.14077 0.0
H113 H 0.59366 0.6587 0.8087 0.0
H114 H 0.59474 0.7217 0.79504 0.0
H115 H 0.57179 0.74055 0.12729 0.0
H116 H 0.5883 0.36247 0.84743 0.0
H117 H 0.55972 0.3763 0.17732 0.0
H118 H 0.56178 0.31293 0.18405 0.0
H119 H 0.59062 0.29962 0.85413 0.0
H120 H 1.03147 0.52441 0.69968 0.0
H121 H 0.14413 0.45388 0.68101 0.0
H122 H 0.14911 0.45914 0.49335 0.0
H123 H 0.1216 0.4837 0.33104 0.0
H124 H 1.009 0.55427 0.34977 0.0
H125 H 1.00394 0.54897 0.53738 0.0
C126 C 1.05712 0.51025 0.65458 0.0
C127 C 0.08727 0.4887 0.7055 0.0
C128 C 1.05987 0.51331 0.54515 0.0
C129 C 0.12028 0.47061 0.64482 0.0
C130 C 0.12323 0.47358 0.53683 0.0
C131 C 0.09594 0.49786 0.37615 0.0
C132 C 0.06585 0.51945 0.32527 0.0
C133 C 0.09318 0.49479 0.48557 0.0
C134 C 1.03282 0.53753 0.38594 0.0
C135 C 1.02984 0.53454 0.49391 0.0
H136 H 0.52397 0.05009 0.34183 0.0
H137 H 0.62035 0.96798 0.33308 0.0
H138 H 0.61365 0.96486 0.52155 0.0
H139 H 0.5805 0.98541 0.69215 0.0
H140 H 0.48428 0.06762 0.70069 0.0
H141 H 0.49107 0.07075 0.51236 0.0
C142 C 0.54339 0.03146 0.38112 0.0
C143 C 0.57269 1.00934 0.32232 0.0
C144 C 0.53958 0.02983 0.49096 0.0
C145 C 0.59759 0.98544 0.37552 0.0
C146 C 0.59383 0.98361 0.48392 0.0
C147 C 0.56113 1.00405 0.65284 0.0
C148 C 0.53179 0.02617 0.71155 0.0
C149 C 0.56504 1.00571 0.543 0.0
C150 C 0.50704 0.05014 0.65835 0.0
C151 C 0.51085 0.05197 0.55 0.0
H152 H 0.52408 0.47538 0.61565 0.0
H153 H 0.62986 0.5603 0.7479 0.0
H154 H 0.64572 0.57491 0.57072 0.0
H155 H 0.63018 0.56313 0.37783 0.0
H156 H 0.52456 0.4781 0.24555 0.0
H157 H 0.5085 0.46361 0.42276 0.0
C158 C 0.55041 0.49719 0.60563 0.0
C159 C 0.57567 0.5168 0.69473 0.0
C160 C 0.55974 0.50517 0.50342 0.0
C161 C 0.60982 0.5449 0.68057 0.0
C162 C 0.61905 0.55317 0.57925 0.0
C163 C 0.60383 0.54132 0.38785 0.0
C164 C 0.57868 0.52165 0.29873 0.0
C165 C 0.59446 0.53336 0.49006 0.0
C166 C 0.5445 0.49356 0.3129 0.0
C167 C 0.53517 0.48535 0.41423 0.0
H168 H 0.2511 0.5518 0.97388 0.0
H169 H 0.23383 0.45286 0.10242 0.0
H170 H 0.32096 0.44791 0.09735 0.0
H171 H 0.40311 0.47103 0.05528 0.0
H172 H 0.42099 0.5702 0.92851 0.0
H173 H 0.33374 0.57537 0.93389 0.0
C174 C 0.26636 0.52924 1.00138 0.0
C175 C 0.23525 0.50281 0.03858 0.0
C176 C 0.31715 0.52636 0.99807 0.0
C177 C 0.25627 0.47376 0.07337 0.0
C178 C 0.30642 0.47078 0.07033 0.0
C179 C 0.388 0.49372 0.02831 0.0
C180 C 0.41921 0.52007 0.99115 0.0
C181 C 0.33733 0.49678 0.03235 0.0
C182 C 0.3984 0.54937 0.95753 0.0
C183 C 0.34821 0.55243 0.96064 0.0
H184 H 0.77587 0.19861 0.08462 0.0
H185 H 0.8311 0.15803 0.79056 0.0
H186 H 0.88298 0.21269 0.78878 0.0
H187 H 0.91771 0.26998 0.87829 0.0
H188 H 0.86481 0.30964 0.17561 0.0
H189 H 0.80733 0.25722 0.16925 0.0
C190 C 0.79933 0.20172 0.02023 0.0
C191 C 0.79991 0.17415 0.93836 0.0
C192 C 0.82972 0.23295 0.02069 0.0
C193 C 0.82969 0.17889 0.85425 0.0
C194 C 0.85963 0.21006 0.85351 0.0
C195 C 0.89298 0.2674 0.94071 0.0
C196 C 0.89564 0.29352 0.02755 0.0
C197 C 0.86056 0.23701 0.93722 0.0
C198 C 0.86381 0.28966 0.10856 0.0
C199 C 0.83092 0.25976 0.10488 0.0
H200 H 0.61772 0.89828 0.9003 0.0
H201 H 0.49116 0.90071 0.0843 0.0
H202 H 0.48832 0.83781 0.08961 0.0
H203 H 0.52176 0.78166 0.04467 0.0
H204 H 0.64711 0.77764 0.8583 0.0
H205 H 0.6501 0.841 0.85063 0.0
C206 C 0.58953 0.88503 0.94141 0.0
C207 C 0.55475 0.90454 0.99178 0.0
C208 C 0.58778 0.84832 0.94382 0.0
C209 C 0.51834 0.88668 0.04422 0.0
C210 C 0.51669 0.85052 0.04771 0.0
C211 C 0.54991 0.79464 1.00277 0.0
C212 C 0.58429 0.7748 0.95265 0.0
C213 C 0.55127 0.83106 0.99826 0.0
C214 C 0.61995 0.79211 0.89707 0.0
C215 C 0.62183 0.82845 0.8931 0.0
H216 H 0.91118 0.55425 0.97112 0.0
H217 H 0.90859 0.44513 0.01941 0.0
H218 H 0.82011 0.44106 0.02515 0.0
H219 H 0.74222 0.46854 0.01874 0.0
H220 H 0.74572 0.57798 0.97256 0.0
H221 H 0.83372 0.58156 0.96425 0.0
C222 C 0.89132 0.5295 0.98226 0.0
C223 C 0.91714 0.5001 0.99459 0.0
C224 C 0.83994 0.5273 0.98654 0.0
C225 C 0.89024 0.46836 0.00973 0.0
C226 C 0.83932 0.46594 0.01317 0.0
C227 C 0.76216 0.4932 0.00704 0.0
C228 C 0.73655 0.52288 0.99649 0.0
C229 C 0.8136 0.49528 1.00225 0.0
C230 C 0.76369 0.55453 0.98114 0.0
C231 C 0.81443 0.5567 0.97617 0.0
H232 H 0.24321 0.73483 0.87395 0.0
H233 H 0.22303 0.73607 0.20686 0.0
H234 H 0.2681 0.79408 0.24139 0.0
H235 H 0.30836 0.84636 0.1756 0.0
H236 H 0.32615 0.84555 0.84199 0.0
H237 H 0.28618 0.78588 0.80917 0.0
C238 C 0.24856 0.74779 0.95411 0.0
C239 C 0.22944 0.73105 0.03748 0.0
C240 C 0.27367 0.78148 0.97323 0.0
C241 C 0.2377 0.74804 0.14112 0.0
C242 C 0.26314 0.78142 0.16092 0.0
C243 C 0.30396 0.83296 0.0959 0.0
C244 C 0.31977 0.85057 0.01127 0.0
C245 C 0.28065 0.79863 0.07742 0.0
C246 C 0.31351 0.83288 0.90834 0.0
C247 C 0.29088 0.79867 0.88953 0.0
H248 H 0.51464 0.25441 0.10885 0.0
H249 H 0.64481 0.26065 0.93721 0.0
H250 H 0.64846 0.19747 0.93401 0.0
H251 H 0.61359 0.13987 0.97508 0.0
H252 H 0.48216 0.13297 0.14277 0.0
H253 H 0.48036 0.19655 0.15268 0.0
C254 C 0.54403 0.24199 0.07155 0.0
C255 C 0.57927 0.26247 0.02289 0.0
C256 C 0.54562 0.2053 0.06883 0.0
C257 C 0.61681 0.24567 0.9741 0.0
C258 C 0.61904 0.20945 0.9725 0.0
C259 C 0.58459 0.1522 0.01429 0.0
C260 C 0.54801 0.13134 0.058 0.0
C261 C 0.58341 0.1889 0.0187 0.0
C262 C 0.51077 0.1481 0.10809 0.0
C263 C 0.5097 0.18459 0.11384 0.0
loop_
_geom_bond_atom_site_label_1
_geom_bond_atom_site_label_2
_geom_bond_distance
_geom_bond_site_symmetry_2
_ccdc_geom_bond_type
Gd0 C3 2.818 . S
Gd0 O20 2.377 . S
Gd0 O22 2.448 . S
Gd0 O23 2.506 1_556 S
Gd0 O24 2.435 . S
Gd0 O25 2.717 1_655 S
Gd0 O27 2.395 1_655 S
Gd0 O31 2.327 1_556 S
Gd1 C12 2.818 . S
Gd1 O21 2.395 1_455 S
Gd1 O25 2.327 1_554 S
Gd1 O26 2.377 . S
Gd1 O28 2.448 . S
Gd1 O29 2.506 1_554 S
Gd1 O30 2.435 . S
Gd1 O31 2.717 1_455 S
C2 O20 1.242 . S
C2 O21 1.239 1_556 S
C3 Gd0 2.818 . S
C3 C4 1.510 . S
C3 O22 1.249 . S
C3 O23 1.252 1_556 S
C4 C3 1.510 . S
C4 C5 1.404 . S
C4 C6 1.352 1_556 S
C5 C4 1.404 . S
C5 C9 1.389 . S
C5 H32 0.930 . S
C6 C4 1.352 1_554 S
C6 C8 1.374 . S
C6 H33 0.931 . S
C7 C8 1.355 1_556 S
C7 C9 1.368 . S
C8 C6 1.374 . S
C8 C7 1.355 1_554 S
C8 H34 0.931 . S
C9 C5 1.389 . S
C9 C7 1.368 . S
C9 H35 0.931 . S
C10 O24 1.256 1_455 S
C10 O25 1.257 . S
C11 O26 1.240 . S
C11 O27 1.240 1_554 S
C12 Gd1 2.818 . S
C12 C13 1.510 . S
C12 O28 1.249 . S
C12 O29 1.252 1_554 S
C13 C12 1.510 . S
C13 C14 1.404 . S
C13 C15 1.352 1_554 S
C14 C13 1.404 . S
C14 C18 1.389 . S
C14 H36 0.930 . S
C15 C13 1.352 1_556 S
C15 C17 1.374 . S
C15 H37 0.931 . S
C16 C17 1.359 1_554 S
C16 C18 1.364 . S
C17 C15 1.374 . S
C17 C16 1.359 1_556 S
C17 H38 0.931 . S
C18 C14 1.389 . S
C18 C16 1.364 . S
C18 H39 0.931 . S
C19 O30 1.256 . S
C19 O31 1.257 1_455 S
O20 Gd0 2.377 . S
O20 C2 1.242 . S
O21 Gd1 2.395 1_655 S
O21 C2 1.239 1_554 S
O22 Gd0 2.448 . S
O22 C3 1.249 . S
O23 Gd0 2.506 1_554 S
O23 C3 1.252 1_554 S
O24 Gd0 2.435 . S
O24 C10 1.256 1_655 S
O25 Gd0 2.717 1_455 S
O25 Gd1 2.327 1_556 S
O25 C10 1.257 . S
O26 Gd1 2.377 . S
O26 C11 1.240 . S
O27 Gd0 2.395 1_455 S
O27 C11 1.240 1_556 S
O28 Gd1 2.448 . S
O28 C12 1.249 . S
O29 Gd1 2.506 1_556 S
O29 C12 1.252 1_556 S
O30 Gd1 2.435 . S
O30 C19 1.256 . S
O31 Gd0 2.327 1_554 S
O31 Gd1 2.717 1_655 S
O31 C19 1.257 1_655 S
H32 C5 0.930 . S
H33 C6 0.931 . S
H34 C8 0.931 . S
H35 C9 0.931 . S
H36 C14 0.930 . S
H37 C15 0.931 . S
H38 C17 0.931 . S
H39 C18 0.931 . S
Gd40 C43 2.818 . S
Gd40 O60 2.377 . S
Gd40 O62 2.448 . S
Gd40 O63 2.506 1_554 S
Gd40 O64 2.435 . S
Gd40 O65 2.717 1_545 S
Gd40 O67 2.395 1_545 S
Gd40 O71 2.327 1_554 S
Gd41 C52 2.818 . S
Gd41 O61 2.395 1_565 S
Gd41 O65 2.327 1_556 S
Gd41 O66 2.377 . S
Gd41 O68 2.448 . S
Gd41 O69 2.506 1_556 S
Gd41 O70 2.435 . S
Gd41 O71 2.717 1_565 S
C42 O60 1.240 . S
C42 O61 1.240 1_554 S
C43 Gd40 2.818 . S
C43 C44 1.510 1_554 S
C43 O62 1.249 . S
C43 O63 1.252 1_554 S
C44 C43 1.510 1_556 S
C44 C45 1.404 1_556 S
C44 C46 1.352 . S
C45 C44 1.404 1_554 S
C45 C49 1.389 . S
C45 H72 0.930 . S
C46 C44 1.352 . S
C46 C48 1.374 . S
C46 H73 0.931 . S
C47 C48 1.359 . S
C47 C49 1.364 1_556 S
C48 C46 1.374 . S
C48 C47 1.359 . S
C48 H74 0.931 . S
C49 C45 1.389 . S
C49 C47 1.364 1_554 S
C49 H75 0.931 . S
C50 O64 1.256 . S
C50 O65 1.257 1_545 S
C51 O66 1.240 . S
C51 O67 1.240 1_556 S
C52 Gd41 2.818 . S
C52 C53 1.510 1_556 S
C52 O68 1.249 . S
C52 O69 1.252 1_556 S
C53 C52 1.510 1_554 S
C53 C54 1.404 1_554 S
C53 C55 1.352 . S
C54 C53 1.404 1_556 S
C54 C58 1.389 . S
C54 H76 0.930 . S
C55 C53 1.352 . S
C55 C57 1.374 . S
C55 H77 0.931 . S
C56 C57 1.359 . S
C56 C58 1.364 1_554 S
C57 C55 1.374 . S
C57 C56 1.359 . S
C57 H78 0.931 . S
C58 C54 1.389 . S
C58 C56 1.364 1_556 S
C58 H79 0.931 . S
C59 O70 1.256 . S
C59 O71 1.257 1_565 S
O60 Gd40 2.377 . S
O60 C42 1.240 . S
O61 Gd41 2.395 1_545 S
O61 C42 1.240 1_556 S
O62 Gd40 2.448 . S
O62 C43 1.249 . S
O63 Gd40 2.506 1_556 S
O63 C43 1.252 1_556 S
O64 Gd40 2.435 . S
O64 C50 1.256 . S
O65 Gd40 2.717 1_565 S
O65 Gd41 2.327 1_554 S
O65 C50 1.257 1_565 S
O66 Gd41 2.377 . S
O66 C51 1.240 . S
O67 Gd40 2.395 1_565 S
O67 C51 1.240 1_554 S
O68 Gd41 2.448 . S
O68 C52 1.249 . S
O69 Gd41 2.506 1_554 S
O69 C52 1.252 1_554 S
O70 Gd41 2.435 . S
O70 C59 1.256 . S
O71 Gd40 2.327 1_556 S
O71 Gd41 2.717 1_545 S
O71 C59 1.257 1_545 S
H72 C45 0.930 . S
H73 C46 0.931 . S
H74 C48 0.931 . S
H75 C49 0.931 . S
H76 C54 0.930 . S
H77 C55 0.931 . S
H78 C57 0.931 . S
H79 C58 0.931 . S
Gd80 C83 2.818 . S
Gd80 O100 2.377 . S
Gd80 O102 2.448 . S
Gd80 O103 2.506 1_554 S
Gd80 O104 2.435 . S
Gd80 O105 2.717 . S
Gd80 O107 2.395 . S
Gd80 O111 2.327 1_554 S
Gd81 C92 2.818 . S
Gd81 O101 2.395 . S
Gd81 O105 2.327 1_556 S
Gd81 O106 2.377 . S
Gd81 O108 2.448 . S
Gd81 O109 2.506 1_556 S
Gd81 O110 2.435 . S
Gd81 O111 2.717 . S
C82 O100 1.239 1_556 S
C82 O101 1.241 . S
C83 Gd80 2.818 . S
C83 C84 1.510 . S
C83 O102 1.249 . S
C83 O103 1.252 1_554 S
C84 C83 1.510 . S
C84 C85 1.404 . S
C84 C86 1.352 1_554 S
C85 C84 1.404 . S
C85 C89 1.389 . S
C85 H112 0.930 . S
C86 C84 1.352 1_556 S
C86 C88 1.374 . S
C86 H113 0.931 . S
C87 C88 1.359 . S
C87 C89 1.364 1_556 S
C88 C86 1.374 . S
C88 C87 1.359 . S
C88 H114 0.931 . S
C89 C85 1.389 . S
C89 C87 1.364 1_554 S
C89 H115 0.931 . S
C90 O104 1.256 . S
C90 O105 1.257 . S
C91 O106 1.240 1_554 S
C91 O107 1.240 . S
C92 Gd81 2.818 . S
C92 C93 1.510 . S
C92 O108 1.249 . S
C92 O109 1.252 1_556 S
C93 C92 1.510 . S
C93 C94 1.404 . S
C93 C95 1.352 1_556 S
C94 C93 1.404 . S
C94 C98 1.389 . S
C94 H116 0.930 . S
C95 C93 1.352 1_554 S
C95 C97 1.374 . S
C95 H117 0.931 . S
C96 C97 1.359 . S
C96 C98 1.364 1_554 S
C97 C95 1.374 . S
C97 C96 1.359 . S
C97 H118 0.931 . S
C98 C94 1.389 . S
C98 C96 1.364 1_556 S
C98 H119 0.931 . S
C99 O110 1.256 . S
C99 O111 1.257 . S
O100 Gd80 2.377 . S
O100 C82 1.239 1_554 S
O101 Gd81 2.395 . S
O101 C82 1.241 . S
O102 Gd80 2.448 . S
O102 C83 1.249 . S
O103 Gd80 2.506 1_556 S
O103 C83 1.252 1_556 S
O104 Gd80 2.435 . S
O104 C90 1.256 . S
O105 Gd80 2.717 . S
O105 Gd81 2.327 1_554 S
O105 C90 1.257 . S
O106 Gd81 2.377 . S
O106 C91 1.240 1_556 S
O107 Gd80 2.395 . S
O107 C91 1.240 . S
O108 Gd81 2.448 . S
O108 C92 1.249 . S
O109 Gd81 2.506 1_554 S
O109 C92 1.252 1_554 S
O110 Gd81 2.435 . S
O110 C99 1.256 . S
O111 Gd80 2.327 1_556 S
O111 Gd81 2.717 . S
O111 C99 1.257 . S
H112 C85 0.930 . S
H113 C86 0.931 . S
H114 C88 0.931 . S
H115 C89 0.931 . S
H116 C94 0.930 . S
H117 C95 0.931 . S
H118 C97 0.931 . S
H119 C98 0.931 . S
H120 C126 0.930 . S
H121 C129 0.930 . S
H122 C130 0.930 . S
H123 C131 0.930 . S
H124 C134 0.930 . S
H125 C135 0.930 . S
C126 H120 0.930 . S
C126 C127 1.355 1_655 S
C126 C128 1.415 . S
C127 C126 1.355 1_455 S
C127 C129 1.419 . S
C128 C126 1.415 . S
C128 C133 1.425 1_655 S
C128 C135 1.409 . S
C129 H121 0.930 . S
C129 C127 1.419 . S
C129 C130 1.362 . S
C130 H122 0.930 . S
C130 C129 1.362 . S
C130 C133 1.409 . S
C131 H123 0.930 . S
C131 C132 1.355 1_455 S
C131 C133 1.415 . S
C132 C131 1.355 1_655 S
C132 C134 1.419 . S
C133 C128 1.425 1_455 S
C133 C130 1.409 . S
C133 C131 1.415 . S
C134 H124 0.930 . S
C134 C132 1.419 . S
C134 C135 1.362 . S
C135 H125 0.930 . S
C135 C128 1.409 . S
C135 C134 1.362 . S
H136 C142 0.930 . S
H137 C145 0.930 . S
H138 C146 0.930 . S
H139 C147 0.930 . S
H140 C150 0.930 . S
H141 C151 0.930 . S
C142 H136 0.930 . S
C142 C143 1.355 1_545 S
C142 C144 1.415 . S
C143 C142 1.355 1_565 S
C143 C145 1.419 . S
C144 C142 1.415 . S
C144 C149 1.425 1_545 S
C144 C151 1.409 . S
C145 H137 0.930 . S
C145 C143 1.419 . S
C145 C146 1.362 . S
C146 H138 0.930 . S
C146 C145 1.362 . S
C146 C149 1.409 . S
C147 H139 0.930 . S
C147 C148 1.355 1_565 S
C147 C149 1.415 . S
C148 C147 1.355 1_545 S
C148 C150 1.419 . S
C149 C144 1.425 1_565 S
C149 C146 1.409 . S
C149 C147 1.415 . S
C150 H140 0.930 . S
C150 C148 1.419 . S
C150 C151 1.362 . S
C151 H141 0.930 . S
C151 C144 1.409 . S
C151 C150 1.362 . S
H152 C158 0.930 . S
H153 C161 0.930 . S
H154 C162 0.930 . S
H155 C163 0.930 . S
H156 C166 0.930 . S
H157 C167 0.930 . S
C158 H152 0.930 . S
C158 C159 1.355 . S
C158 C160 1.415 . S
C159 C158 1.355 . S
C159 C161 1.419 . S
C160 C158 1.415 . S
C160 C165 1.425 . S
C160 C167 1.409 . S
C161 H153 0.930 . S
C161 C159 1.419 . S
C161 C162 1.362 . S
C162 H154 0.930 . S
C162 C161 1.362 . S
C162 C165 1.409 . S
C163 H155 0.930 . S
C163 C164 1.355 . S
C163 C165 1.415 . S
C164 C163 1.355 . S
C164 C166 1.419 . S
C165 C160 1.425 . S
C165 C162 1.409 . S
C165 C163 1.415 . S
C166 H156 0.930 . S
C166 C164 1.419 . S
C166 C167 1.362 . S
C167 H157 0.930 . S
C167 C160 1.409 . S
C167 C166 1.362 . S
H168 C174 0.930 . S
H169 C177 0.930 . S
H170 C178 0.930 . S
H171 C179 0.930 . S
H172 C182 0.930 . S
H173 C183 0.930 . S
C174 H168 0.930 . S
C174 C175 1.355 . S
C174 C176 1.415 . S
C175 C174 1.355 . S
C175 C177 1.419 1_556 S
C176 C174 1.415 . S
C176 C181 1.425 1_556 S
C176 C183 1.409 . S
C177 H169 0.930 . S
C177 C175 1.419 1_554 S
C177 C178 1.362 . S
C178 H170 0.930 . S
C178 C177 1.362 . S
C178 C181 1.409 . S
C179 H171 0.930 . S
C179 C180 1.355 1_554 S
C179 C181 1.415 . S
C180 C179 1.355 1_556 S
C180 C182 1.419 . S
C181 C176 1.425 1_554 S
C181 C178 1.409 . S
C181 C179 1.415 . S
C182 H172 0.930 . S
C182 C180 1.419 . S
C182 C183 1.362 . S
C183 H173 0.930 . S
C183 C176 1.409 . S
C183 C182 1.362 . S
H184 C190 0.930 . S
H185 C193 0.930 . S
H186 C194 0.930 . S
H187 C195 0.930 . S
H188 C198 0.930 . S
H189 C199 0.930 . S
C190 H184 0.930 . S
C190 C191 1.355 1_554 S
C190 C192 1.415 . S
C191 C190 1.355 1_556 S
C191 C193 1.419 . S
C192 C190 1.415 . S
C192 C197 1.425 1_554 S
C192 C199 1.409 . S
C193 H185 0.930 . S
C193 C191 1.419 . S
C193 C194 1.362 . S
C194 H186 0.930 . S
C194 C193 1.362 . S
C194 C197 1.409 . S
C195 H187 0.930 . S
C195 C196 1.355 1_556 S
C195 C197 1.415 . S
C196 C195 1.355 1_554 S
C196 C198 1.419 . S
C197 C192 1.425 1_556 S
C197 C194 1.409 . S
C197 C195 1.415 . S
C198 H188 0.930 . S
C198 C196 1.419 . S
C198 C199 1.362 . S
C199 H189 0.930 . S
C199 C192 1.409 . S
C199 C198 1.362 . S
H200 C206 0.930 . S
H201 C209 0.930 . S
H202 C210 0.930 . S
H203 C211 0.930 . S
H204 C214 0.930 . S
H205 C215 0.930 . S
C206 H200 0.930 . S
C206 C207 1.355 . S
C206 C208 1.415 . S
C207 C206 1.355 . S
C207 C209 1.419 1_556 S
C208 C206 1.415 . S
C208 C213 1.425 1_556 S
C208 C215 1.409 . S
C209 H201 0.930 . S
C209 C207 1.419 1_554 S
C209 C210 1.362 . S
C210 H202 0.930 . S
C210 C209 1.362 . S
C210 C213 1.409 . S
C211 H203 0.930 . S
C211 C212 1.355 1_554 S
C211 C213 1.415 . S
C212 C211 1.355 1_556 S
C212 C214 1.419 . S
C213 C208 1.425 1_554 S
C213 C210 1.409 . S
C213 C211 1.415 . S
C214 H204 0.930 . S
C214 C212 1.419 . S
C214 C215 1.362 . S
C215 H205 0.930 . S
C215 C208 1.409 . S
C215 C214 1.362 . S
H216 C222 0.930 . S
H217 C225 0.930 . S
H218 C226 0.930 . S
H219 C227 0.930 . S
H220 C230 0.930 . S
H221 C231 0.930 . S
C222 H216 0.930 . S
C222 C223 1.355 . S
C222 C224 1.415 . S
C223 C222 1.355 . S
C223 C225 1.419 1_554 S
C224 C222 1.415 . S
C224 C229 1.425 1_554 S
C224 C231 1.409 . S
C225 H217 0.930 . S
C225 C223 1.419 1_556 S
C225 C226 1.362 . S
C226 H218 0.930 . S
C226 C225 1.362 . S
C226 C229 1.409 . S
C227 H219 0.930 . S
C227 C228 1.355 1_556 S
C227 C229 1.415 . S
C228 C227 1.355 1_554 S
C228 C230 1.419 . S
C229 C224 1.425 1_556 S
C229 C226 1.409 . S
C229 C227 1.415 . S
C230 H220 0.930 . S
C230 C228 1.419 . S
C230 C231 1.362 . S
C231 H221 0.930 . S
C231 C224 1.409 . S
C231 C230 1.362 . S
H232 C238 0.930 . S
H233 C241 0.930 . S
H234 C242 0.930 . S
H235 C243 0.930 . S
H236 C246 0.930 . S
H237 C247 0.930 . S
C238 H232 0.930 . S
C238 C239 1.355 1_556 S
C238 C240 1.415 . S
C239 C238 1.355 1_554 S
C239 C241 1.419 . S
C240 C238 1.415 . S
C240 C245 1.425 1_556 S
C240 C247 1.409 . S
C241 H233 0.930 . S
C241 C239 1.419 . S
C241 C242 1.362 . S
C242 H234 0.930 . S
C242 C241 1.362 . S
C242 C245 1.409 . S
C243 H235 0.930 . S
C243 C244 1.361 . S
C243 C245 1.415 . S
C244 C243 1.361 . S
C244 C246 1.412 1_554 S
C245 C240 1.425 1_554 S
C245 C242 1.409 . S
C245 C243 1.415 . S
C246 H236 0.930 . S
C246 C244 1.412 1_556 S
C246 C247 1.362 . S
C247 H237 0.930 . S
C247 C240 1.409 . S
C247 C246 1.362 . S
H248 C254 0.930 . S
H249 C257 0.930 . S
H250 C258 0.930 . S
H251 C259 0.930 . S
H252 C262 0.930 . S
H253 C263 0.930 . S
C254 H248 0.930 . S
C254 C255 1.355 1_554 S
C254 C256 1.415 . S
C255 C254 1.355 1_556 S
C255 C257 1.419 . S
C256 C254 1.415 . S
C256 C261 1.425 1_554 S
C256 C263 1.409 . S
C257 H249 0.930 . S
C257 C255 1.419 . S
C257 C258 1.362 . S
C258 H250 0.930 . S
C258 C257 1.362 . S
C258 C261 1.409 . S
C259 H251 0.930 . S
C259 C260 1.355 1_556 S
C259 C261 1.415 . S
C260 C259 1.355 1_554 S
C260 C262 1.419 . S
C261 C256 1.425 1_556 S
C261 C258 1.409 . S
C261 C259 1.415 . S
C262 H252 0.930 . S
C262 C260 1.419 . S
C262 C263 1.362 . S
C263 H253 0.930 . S
C263 C256 1.409 . S
C263 C262 1.362 . S
C127 C10 1.446 . S
C132 C19 1.446 1_655 S
C143 C50 1.445 1_565 S
C148 C59 1.445 1_545 S
C159 C99 1.429 . S
C164 C90 1.429 . S
C175 C11 2.623 1_556 S
C180 C82 2.587 . S
C191 C47 0.925 . S
C196 C7 0.922 1_554 S
C207 C51 2.108 . S
C212 C87 2.020 . S
C223 C2 2.620 1_554 S
C228 C91 2.560 . S
C239 C16 0.910 . S
C244 C56 0.910 . S
C255 C96 2.071 1_556 S
C260 C42 2.131 . S
