# Generated by pormake.
# Topology deh, (3)-cn, num edge types: 1
# Building blocks:
#     Node 0, Type 0, BuildingBlock: WUSLED_clean_sbu_0, # of connection points: 3
#     Node 1, Type 0, BuildingBlock: WUSLED_clean_sbu_0, # of connection points: 3
#     Node 2, Type 0, BuildingBlock: WUSLED_clean_sbu_0, # of connection points: 3
#     Node 3, Type 0, BuildingBlock: WUSLED_clean_sbu_0, # of connection points: 3
#     Node 4, Type 0, BuildingBlock: WUSLED_clean_sbu_0, # of connection points: 3
#     Node 5, Type 0, BuildingBlock: WUSLED_clean_sbu_0, # of connection points: 3
#     Node 6, Type 0, BuildingBlock: WUSLED_clean_sbu_0, # of connection points: 3
#     Node 7, Type 0, BuildingBlock: WUSLED_clean_sbu_0, # of connection points: 3
#     Node 8, Type 0, BuildingBlock: WUSLED_clean_sbu_0, # of connection points: 3
#     Node 9, Type 0, BuildingBlock: WUSLED_clean_sbu_0, # of connection points: 3
#     Node 10, Type 0, BuildingBlock: WUSLED_clean_sbu_0, # of connection points: 3
#     Node 11, Type 0, BuildingBlock: WUSLED_clean_sbu_0, # of connection points: 3
#     Node 12, Type 0, BuildingBlock: WUSLED_clean_sbu_0, # of connection points: 3
#     Node 13, Type 0, BuildingBlock: WUSLED_clean_sbu_0, # of connection points: 3
#     Node 14, Type 0, BuildingBlock: WUSLED_clean_sbu_0, # of connection points: 3
#     Node 15, Type 0, BuildingBlock: WUSLED_clean_sbu_0, # of connection points: 3
#     Node 16, Type 0, BuildingBlock: WUSLED_clean_sbu_0, # of connection points: 3
#     Node 17, Type 0, BuildingBlock: WUSLED_clean_sbu_0, # of connection points: 3
#     Node 18, Type 0, BuildingBlock: WUSLED_clean_sbu_0, # of connection points: 3
#     Node 19, Type 0, BuildingBlock: WUSLED_clean_sbu_0, # of connection points: 3
#     Node 20, Type 0, BuildingBlock: WUSLED_clean_sbu_0, # of connection points: 3
#     Node 21, Type 0, BuildingBlock: WUSLED_clean_sbu_0, # of connection points: 3
#     Node 22, Type 0, BuildingBlock: WUSLED_clean_sbu_0, # of connection points: 3
#     Node 23, Type 0, BuildingBlock: WUSLED_clean_sbu_0, # of connection points: 3
#     Node 24, Type 0, BuildingBlock: WUSLED_clean_sbu_0, # of connection points: 3
#     Node 25, Type 0, BuildingBlock: WUSLED_clean_sbu_0, # of connection points: 3
#     Node 26, Type 0, BuildingBlock: WUSLED_clean_sbu_0, # of connection points: 3
#     Node 27, Type 0, BuildingBlock: WUSLED_clean_sbu_0, # of connection points: 3
#     Node 28, Type 0, BuildingBlock: WUSLED_clean_sbu_0, # of connection points: 3
#     Node 29, Type 0, BuildingBlock: WUSLED_clean_sbu_0, # of connection points: 3
#     Node 30, Type 0, BuildingBlock: WUSLED_clean_sbu_0, # of connection points: 3
#     Node 31, Type 0, BuildingBlock: WUSLED_clean_sbu_0, # of connection points: 3
#     Edge 32, Type (0, 0), BuildingBlock: MIFKUJ_clean_linker_0, # of connection points: 2
#     Edge 33, Type (0, 0), BuildingBlock: MIFKUJ_clean_linker_0, # of connection points: 2
#     Edge 34, Type (0, 0), BuildingBlock: MIFKUJ_clean_linker_0, # of connection points: 2
#     Edge 35, Type (0, 0), BuildingBlock: MIFKUJ_clean_linker_0, # of connection points: 2
#     Edge 36, Type (0, 0), BuildingBlock: MIFKUJ_clean_linker_0, # of connection points: 2
#     Edge 37, Type (0, 0), BuildingBlock: MIFKUJ_clean_linker_0, # of connection points: 2
#     Edge 38, Type (0, 0), BuildingBlock: MIFKUJ_clean_linker_0, # of connection points: 2
#     Edge 39, Type (0, 0), BuildingBlock: MIFKUJ_clean_linker_0, # of connection points: 2
#     Edge 40, Type (0, 0), BuildingBlock: MIFKUJ_clean_linker_0, # of connection points: 2
#     Edge 41, Type (0, 0), BuildingBlock: MIFKUJ_clean_linker_0, # of connection points: 2
#     Edge 42, Type (0, 0), BuildingBlock: MIFKUJ_clean_linker_0, # of connection points: 2
#     Edge 43, Type (0, 0), BuildingBlock: MIFKUJ_clean_linker_0, # of connection points: 2
#     Edge 44, Type (0, 0), BuildingBlock: MIFKUJ_clean_linker_0, # of connection points: 2
#     Edge 45, Type (0, 0), BuildingBlock: MIFKUJ_clean_linker_0, # of connection points: 2
#     Edge 46, Type (0, 0), BuildingBlock: MIFKUJ_clean_linker_0, # of connection points: 2
#     Edge 47, Type (0, 0), BuildingBlock: MIFKUJ_clean_linker_0, # of connection points: 2
#     Edge 48, Type (0, 0), BuildingBlock: MIFKUJ_clean_linker_0, # of connection points: 2
#     Edge 49, Type (0, 0), BuildingBlock: MIFKUJ_clean_linker_0, # of connection points: 2
#     Edge 50, Type (0, 0), BuildingBlock: MIFKUJ_clean_linker_0, # of connection points: 2
#     Edge 51, Type (0, 0), BuildingBlock: MIFKUJ_clean_linker_0, # of connection points: 2
#     Edge 52, Type (0, 0), BuildingBlock: MIFKUJ_clean_linker_0, # of connection points: 2
#     Edge 53, Type (0, 0), BuildingBlock: MIFKUJ_clean_linker_0, # of connection points: 2
#     Edge 54, Type (0, 0), BuildingBlock: MIFKUJ_clean_linker_0, # of connection points: 2
#     Edge 55, Type (0, 0), BuildingBlock: MIFKUJ_clean_linker_0, # of connection points: 2
#     Edge 56, Type (0, 0), BuildingBlock: MIFKUJ_clean_linker_0, # of connection points: 2
#     Edge 57, Type (0, 0), BuildingBlock: MIFKUJ_clean_linker_0, # of connection points: 2
#     Edge 58, Type (0, 0), BuildingBlock: MIFKUJ_clean_linker_0, # of connection points: 2
#     Edge 59, Type (0, 0), BuildingBlock: MIFKUJ_clean_linker_0, # of connection points: 2
#     Edge 60, Type (0, 0), BuildingBlock: MIFKUJ_clean_linker_0, # of connection points: 2
#     Edge 61, Type (0, 0), BuildingBlock: MIFKUJ_clean_linker_0, # of connection points: 2
#     Edge 62, Type (0, 0), BuildingBlock: MIFKUJ_clean_linker_0, # of connection points: 2
#     Edge 63, Type (0, 0), BuildingBlock: MIFKUJ_clean_linker_0, # of connection points: 2
#     Edge 64, Type (0, 0), BuildingBlock: MIFKUJ_clean_linker_0, # of connection points: 2
#     Edge 65, Type (0, 0), BuildingBlock: MIFKUJ_clean_linker_0, # of connection points: 2
#     Edge 66, Type (0, 0), BuildingBlock: MIFKUJ_clean_linker_0, # of connection points: 2
#     Edge 67, Type (0, 0), BuildingBlock: MIFKUJ_clean_linker_0, # of connection points: 2
#     Edge 68, Type (0, 0), BuildingBlock: MIFKUJ_clean_linker_0, # of connection points: 2
#     Edge 69, Type (0, 0), BuildingBlock: MIFKUJ_clean_linker_0, # of connection points: 2
#     Edge 70, Type (0, 0), BuildingBlock: MIFKUJ_clean_linker_0, # of connection points: 2
#     Edge 71, Type (0, 0), BuildingBlock: MIFKUJ_clean_linker_0, # of connection points: 2
#     Edge 72, Type (0, 0), BuildingBlock: MIFKUJ_clean_linker_0, # of connection points: 2
#     Edge 73, Type (0, 0), BuildingBlock: MIFKUJ_clean_linker_0, # of connection points: 2
#     Edge 74, Type (0, 0), BuildingBlock: MIFKUJ_clean_linker_0, # of connection points: 2
#     Edge 75, Type (0, 0), BuildingBlock: MIFKUJ_clean_linker_0, # of connection points: 2
#     Edge 76, Type (0, 0), BuildingBlock: MIFKUJ_clean_linker_0, # of connection points: 2
#     Edge 77, Type (0, 0), BuildingBlock: MIFKUJ_clean_linker_0, # of connection points: 2
#     Edge 78, Type (0, 0), BuildingBlock: MIFKUJ_clean_linker_0, # of connection points: 2
#     Edge 79, Type (0, 0), BuildingBlock: MIFKUJ_clean_linker_0, # of connection points: 2
# Relax obj value: 0.006
# Max RMSD: 0.035
# Mean RMSD: 0.011
data_MOF--net-deh--node1-WUSLED_clean_sbu_0--edge1-MIFKUJ_clean_linker_0
_symmetry_space_group_name_H-M    P1
_symmetry_Int_Tables_number       1
_symmetry_cell_setting            triclinic
loop_
_symmetry_equiv_pos_as_xyz
'x, y, z'
_cell_length_a     86.166359
_cell_length_b     88.922581
_cell_length_c     188.02242
_cell_angle_alpha  89.972506
_cell_angle_beta   90.012861
_cell_angle_gamma 89.999294
loop_
_atom_site_label
_atom_site_type_symbol
_atom_site_fract_x
_atom_site_fract_y
_atom_site_fract_z
_atom_type_partial_charge
C0 C 0.11762 0.03946 0.30382 0.0
C1 C 0.11041 0.04028 0.3105 0.0
C2 C 0.08499 0.03776 0.30492 0.0
C3 C 0.09423 0.03945 0.31105 0.0
C4 C 0.09234 0.0369 0.29824 0.0
C5 C 0.1085 0.03774 0.29771 0.0
U6 U 0.15769 0.0436 0.31214 0.0
O7 O 0.17985 0.03269 0.30951 0.0
O8 O 0.17771 0.05724 0.30872 0.0
C9 C 0.18631 0.04534 0.30742 0.0
C10 C 0.13458 0.04059 0.30314 0.0
C11 C 0.19406 0.04507 0.30042 0.0
C12 C 0.19667 0.03538 0.28837 0.0
C13 C 0.18888 0.03565 0.29491 0.0
C14 C 0.21468 0.05417 0.29271 0.0
C15 C 0.20967 0.04463 0.2872 0.0
C16 C 0.20697 0.05434 0.29925 0.0
C17 C 0.15987 0.04654 0.33265 0.0
C18 C 0.17975 0.05796 0.34009 0.0
C19 C 0.1608 0.04114 0.34531 0.0
C20 C 0.154 0.03907 0.33863 0.0
C21 C 0.1736 0.0508 0.34615 0.0
C22 C 0.17294 0.05584 0.33339 0.0
C23 C 0.15163 0.04493 0.32582 0.0
O24 O 0.14053 0.05367 0.30491 0.0
O25 O 0.14248 0.02914 0.30568 0.0
O26 O 0.15378 0.0322 0.3224 0.0
O27 O 0.15153 0.05676 0.32162 0.0
H28 H 0.11731 0.04159 0.31528 0.0
H29 H 0.08897 0.03999 0.31627 0.0
H30 H 0.08558 0.03582 0.29341 0.0
H31 H 0.11388 0.03716 0.29251 0.0
H32 H 0.19242 0.02804 0.2842 0.0
H33 H 0.17885 0.02847 0.29565 0.0
H34 H 0.22474 0.06132 0.292 0.0
H35 H 0.21116 0.06168 0.30343 0.0
H36 H 0.18952 0.06555 0.34055 0.0
H37 H 0.15595 0.03521 0.34982 0.0
H38 H 0.14396 0.03179 0.33817 0.0
H39 H 0.1777 0.06169 0.32883 0.0
C40 C 0.24841 0.86292 0.55029 0.0
C41 C 0.24789 0.85558 0.55689 0.0
C42 C 0.24944 0.83121 0.551 0.0
C43 C 0.24843 0.83987 0.55725 0.0
C44 C 0.25004 0.83868 0.54439 0.0
C45 C 0.24953 0.85439 0.54405 0.0
U46 U 0.24318 0.90056 0.55942 0.0
O47 O 0.25485 0.92231 0.55781 0.0
O48 O 0.22966 0.92052 0.55633 0.0
C49 C 0.24204 0.92907 0.55576 0.0
C50 C 0.24749 0.87942 0.54988 0.0
C51 C 0.24316 0.93796 0.54917 0.0
C52 C 0.24763 0.93993 0.53643 0.0
C53 C 0.24677 0.93121 0.54263 0.0
C54 C 0.24129 0.96219 0.54326 0.0
C55 C 0.24484 0.95554 0.53667 0.0
C56 C 0.24047 0.95348 0.54944 0.0
C57 C 0.23699 0.89939 0.57975 0.0
C58 C 0.23082 0.92094 0.58718 0.0
C59 C 0.23418 0.89634 0.59251 0.0
C60 C 0.23719 0.89024 0.58581 0.0
C61 C 0.23091 0.91176 0.59329 0.0
C62 C 0.23386 0.9148 0.58045 0.0
C63 C 0.23976 0.89245 0.57277 0.0
O64 O 0.2338 0.88514 0.55134 0.0
O65 O 0.25895 0.88672 0.55294 0.0
O66 O 0.25334 0.89514 0.56986 0.0
O67 O 0.2282 0.89321 0.56822 0.0
H68 H 0.24695 0.86201 0.56177 0.0
H69 H 0.24774 0.8345 0.56241 0.0
H70 H 0.25102 0.83237 0.53949 0.0
H71 H 0.24996 0.85988 0.53891 0.0
H72 H 0.25024 0.93442 0.53144 0.0
H73 H 0.24884 0.91921 0.54232 0.0
H74 H 0.23932 0.97419 0.54367 0.0
H75 H 0.23772 0.95888 0.55445 0.0
H76 H 0.22849 0.93287 0.5876 0.0
H77 H 0.23409 0.88888 0.59706 0.0
H78 H 0.23952 0.8783 0.58535 0.0
H79 H 0.23368 0.92203 0.57581 0.0
C80 C 0.38472 0.96429 0.80394 0.0
C81 C 0.39197 0.96511 0.81062 0.0
C82 C 0.41742 0.96452 0.80495 0.0
C83 C 0.40818 0.96526 0.81112 0.0
C84 C 0.41004 0.96376 0.79828 0.0
C85 C 0.39384 0.96365 0.79779 0.0
U86 U 0.3447 0.96138 0.81242 0.0
O87 O 0.32293 0.97316 0.80991 0.0
O88 O 0.32411 0.94859 0.80904 0.0
C89 C 0.31587 0.96078 0.80787 0.0
C90 C 0.36771 0.96383 0.80334 0.0
C91 C 0.30809 0.9615 0.80092 0.0
C92 C 0.30884 0.96511 0.7881 0.0
C93 C 0.31647 0.96448 0.79467 0.0
C94 C 0.28441 0.95976 0.79395 0.0
C95 C 0.2927 0.96277 0.78765 0.0
C96 C 0.29204 0.95914 0.80051 0.0
C97 C 0.34252 0.95765 0.83281 0.0
C98 C 0.31973 0.9501 0.83956 0.0
C99 C 0.34273 0.95883 0.84572 0.0
C100 C 0.35016 0.961 0.83919 0.0
C101 C 0.32747 0.95322 0.84599 0.0
C102 C 0.32719 0.95233 0.83302 0.0
C103 C 0.35097 0.95935 0.82606 0.0
O104 O 0.36129 0.95091 0.80504 0.0
O105 O 0.36031 0.97547 0.80599 0.0
O106 O 0.34917 0.97225 0.82275 0.0
O107 O 0.35059 0.94769 0.82177 0.0
H108 H 0.38508 0.96553 0.81544 0.0
H109 H 0.41348 0.96569 0.81634 0.0
H110 H 0.41678 0.96338 0.79342 0.0
H111 H 0.38843 0.96303 0.79259 0.0
H112 H 0.31556 0.96761 0.78338 0.0
H113 H 0.32889 0.96633 0.79489 0.0
H114 H 0.27204 0.95765 0.7938 0.0
H115 H 0.28541 0.95676 0.80527 0.0
H116 H 0.30793 0.94592 0.83958 0.0
H117 H 0.34911 0.96115 0.85056 0.0
H118 H 0.36201 0.96509 0.83913 0.0
H119 H 0.32108 0.94974 0.82813 0.0
C120 C 0.25483 0.14075 0.04973 0.0
C121 C 0.25665 0.14808 0.05629 0.0
C122 C 0.25397 0.17246 0.05047 0.0
C123 C 0.25622 0.16379 0.05666 0.0
C124 C 0.25204 0.165 0.04393 0.0
C125 C 0.25247 0.14929 0.04357 0.0
U126 U 0.2598 0.10286 0.05872 0.0
O127 O 0.24778 0.0813 0.05705 0.0
O128 O 0.27296 0.0828 0.05548 0.0
C129 C 0.26045 0.07443 0.0549 0.0
C130 C 0.25557 0.12424 0.04928 0.0
C131 C 0.25904 0.0658 0.04825 0.0
C132 C 0.25687 0.06451 0.03537 0.0
C133 C 0.25797 0.073 0.04163 0.0
C134 C 0.25778 0.04157 0.04231 0.0
C135 C 0.25677 0.04867 0.03563 0.0
C136 C 0.2589 0.05006 0.04855 0.0
C137 C 0.26626 0.10339 0.07905 0.0
C138 C 0.27592 0.08281 0.08633 0.0
C139 C 0.26602 0.10539 0.09193 0.0
C140 C 0.26284 0.11149 0.08524 0.0
C141 C 0.27272 0.09102 0.09257 0.0
C142 C 0.27268 0.08893 0.07962 0.0
C143 C 0.2635 0.11054 0.0721 0.0
O144 O 0.26922 0.11836 0.05068 0.0
O145 O 0.24408 0.11704 0.05237 0.0
O146 O 0.24983 0.10814 0.06922 0.0
O147 O 0.27498 0.10982 0.06751 0.0
H148 H 0.25853 0.14164 0.0611 0.0
H149 H 0.25793 0.16915 0.06177 0.0
H150 H 0.25007 0.1713 0.03908 0.0
H151 H 0.251 0.1438 0.03847 0.0
H152 H 0.25595 0.07034 0.03033 0.0
H153 H 0.25802 0.08517 0.0413 0.0
H154 H 0.25797 0.02942 0.04272 0.0
H155 H 0.25976 0.04431 0.05362 0.0
H156 H 0.28092 0.07165 0.08664 0.0
H157 H 0.26362 0.11212 0.0966 0.0
H158 H 0.25793 0.12269 0.0849 0.0
H159 H 0.27534 0.08248 0.07489 0.0
C160 C 0.11791 0.9649 0.7046 0.0
C161 C 0.1107 0.96494 0.69791 0.0
C162 C 0.08523 0.96595 0.70354 0.0
C163 C 0.09451 0.96547 0.69738 0.0
C164 C 0.09258 0.96589 0.71024 0.0
C165 C 0.10877 0.96537 0.71075 0.0
U166 U 0.1578 0.96138 0.6961 0.0
O167 O 0.17967 0.97319 0.69847 0.0
O168 O 0.17838 0.94863 0.69947 0.0
C169 C 0.18669 0.96082 0.70055 0.0
C170 C 0.13491 0.96427 0.70522 0.0
C171 C 0.19464 0.96168 0.70747 0.0
C172 C 0.19436 0.9602 0.72039 0.0
C173 C 0.18651 0.95968 0.71387 0.0
C174 C 0.2185 0.96495 0.71418 0.0
C175 C 0.21049 0.96276 0.72063 0.0
C176 C 0.21065 0.96439 0.70768 0.0
C177 C 0.15947 0.95701 0.67573 0.0
C178 C 0.18325 0.95509 0.66883 0.0
C179 C 0.1583 0.95285 0.66298 0.0
C180 C 0.15083 0.95488 0.6695 0.0
C181 C 0.1746 0.95294 0.66254 0.0
C182 C 0.17574 0.95712 0.67537 0.0
C183 C 0.15121 0.95893 0.6825 0.0
O184 O 0.14121 0.95125 0.7036 0.0
O185 O 0.14241 0.97577 0.70249 0.0
O186 O 0.15317 0.97191 0.68572 0.0
O187 O 0.15172 0.94739 0.68687 0.0
H188 H 0.11761 0.96459 0.69309 0.0
H189 H 0.08926 0.96568 0.69215 0.0
H190 H 0.08582 0.96602 0.71509 0.0
H191 H 0.11415 0.96528 0.71596 0.0
H192 H 0.18784 0.95832 0.72523 0.0
H193 H 0.17412 0.9576 0.71381 0.0
H194 H 0.23085 0.96721 0.71416 0.0
H195 H 0.2171 0.96604 0.70279 0.0
H196 H 0.19581 0.95535 0.66868 0.0
H197 H 0.15126 0.95094 0.65829 0.0
H198 H 0.13826 0.95469 0.66969 0.0
H199 H 0.18259 0.95875 0.68014 0.0
C200 C 0.25525 0.86342 0.95896 0.0
C201 C 0.25758 0.85601 0.95247 0.0
C202 C 0.25397 0.83171 0.95825 0.0
C203 C 0.25694 0.8403 0.95211 0.0
C204 C 0.25153 0.83925 0.96475 0.0
C205 C 0.25217 0.85497 0.96509 0.0
U206 U 0.26168 0.90093 0.9499 0.0
O207 O 0.24995 0.92277 0.9512 0.0
O208 O 0.27495 0.92085 0.95321 0.0
C209 C 0.26257 0.92946 0.95353 0.0
C210 C 0.2562 0.87991 0.95938 0.0
C211 C 0.26083 0.93835 0.96008 0.0
C212 C 0.25936 0.94021 0.97297 0.0
C213 C 0.26051 0.93145 0.9668 0.0
C214 C 0.25862 0.96278 0.96577 0.0
C215 C 0.25852 0.95601 0.97254 0.0
C216 C 0.25978 0.95403 0.95961 0.0
C217 C 0.27009 0.89914 0.92969 0.0
C218 C 0.27127 0.92025 0.92148 0.0
C219 C 0.27867 0.89533 0.91753 0.0
C220 C 0.27548 0.88964 0.9243 0.0
C221 C 0.2765 0.91068 0.91601 0.0
C222 C 0.26807 0.91451 0.92828 0.0
C223 C 0.26654 0.89257 0.93669 0.0
O224 O 0.27007 0.88557 0.95823 0.0
O225 O 0.24514 0.88724 0.95604 0.0
O226 O 0.25268 0.89541 0.93927 0.0
O227 O 0.27761 0.89339 0.94147 0.0
H228 H 0.26002 0.86237 0.94768 0.0
H229 H 0.25907 0.83488 0.94705 0.0
H230 H 0.24901 0.83302 0.96956 0.0
H231 H 0.2503 0.86052 0.97015 0.0
H232 H 0.25946 0.93462 0.97809 0.0
H233 H 0.26132 0.91933 0.96726 0.0
H234 H 0.25771 0.97487 0.96521 0.0
H235 H 0.25994 0.95954 0.95447 0.0
H236 H 0.2694 0.9321 0.92048 0.0
H237 H 0.28299 0.88769 0.91351 0.0
H238 H 0.27719 0.87776 0.92531 0.0
H239 H 0.26394 0.92202 0.9324 0.0
C240 C 0.38573 0.0403 0.20452 0.0
C241 C 0.39327 0.04338 0.19807 0.0
C242 C 0.41843 0.03925 0.20368 0.0
C243 C 0.40948 0.04286 0.19765 0.0
C244 C 0.41074 0.03597 0.21011 0.0
C245 C 0.39454 0.03651 0.21051 0.0
U246 U 0.34592 0.04521 0.19602 0.0
O247 O 0.32364 0.03415 0.19832 0.0
O248 O 0.32585 0.05861 0.19957 0.0
C249 C 0.31716 0.04666 0.2006 0.0
C250 C 0.36874 0.04128 0.2051 0.0
C251 C 0.30927 0.04588 0.20755 0.0
C252 C 0.30695 0.03599 0.21958 0.0
C253 C 0.31471 0.03653 0.21304 0.0
C254 C 0.28841 0.05434 0.21528 0.0
C255 C 0.29372 0.04492 0.22078 0.0
C256 C 0.29609 0.05478 0.20873 0.0
C257 C 0.34432 0.05046 0.17566 0.0
C258 C 0.32127 0.04906 0.16821 0.0
C259 C 0.34549 0.05813 0.16327 0.0
C260 C 0.3527 0.05609 0.16986 0.0
C261 C 0.32971 0.05453 0.16234 0.0
C262 C 0.32852 0.04705 0.17482 0.0
C263 C 0.35246 0.04806 0.18244 0.0
O264 O 0.36278 0.05451 0.20361 0.0
O265 O 0.36097 0.03009 0.20223 0.0
O266 O 0.35015 0.035 0.18556 0.0
O267 O 0.35236 0.05944 0.1869 0.0
H268 H 0.38662 0.04634 0.19338 0.0
H269 H 0.41501 0.04561 0.19264 0.0
H270 H 0.41723 0.03291 0.21482 0.0
H271 H 0.38889 0.03403 0.21553 0.0
H272 H 0.31143 0.02875 0.22373 0.0
H273 H 0.32496 0.02966 0.21227 0.0
H274 H 0.27817 0.06124 0.21601 0.0
H275 H 0.29171 0.06208 0.20457 0.0
H276 H 0.30914 0.04608 0.16767 0.0
H277 H 0.35228 0.06265 0.15892 0.0
H278 H 0.36488 0.05887 0.17041 0.0
H279 H 0.32184 0.04271 0.17926 0.0
C280 C 0.24978 0.1409 0.45828 0.0
C281 C 0.24554 0.14792 0.45188 0.0
C282 C 0.2512 0.17251 0.45699 0.0
C283 C 0.24622 0.16358 0.45125 0.0
C284 C 0.25556 0.16537 0.46337 0.0
C285 C 0.25484 0.1497 0.46401 0.0
U286 U 0.24258 0.10247 0.45016 0.0
O287 O 0.25449 0.08079 0.4518 0.0
O288 O 0.22965 0.08294 0.45418 0.0
C289 C 0.24206 0.07438 0.4545 0.0
C290 C 0.24887 0.12445 0.45902 0.0
C291 C 0.24432 0.06609 0.46121 0.0
C292 C 0.24369 0.06472 0.47413 0.0
C293 C 0.24229 0.07307 0.46784 0.0
C294 C 0.24955 0.04243 0.46724 0.0
C295 C 0.24724 0.04926 0.4739 0.0
C296 C 0.24808 0.05076 0.46096 0.0
C297 C 0.23205 0.10154 0.43012 0.0
C298 C 0.23708 0.08371 0.42057 0.0
C299 C 0.21512 0.10061 0.41978 0.0
C300 C 0.21906 0.10678 0.42637 0.0
C301 C 0.22415 0.08909 0.41676 0.0
C302 C 0.24098 0.08984 0.4272 0.0
C303 C 0.23639 0.10909 0.43684 0.0
O304 O 0.23493 0.11869 0.45826 0.0
O305 O 0.25964 0.11684 0.45562 0.0
O306 O 0.25054 0.10683 0.43924 0.0
O307 O 0.22582 0.10908 0.44188 0.0
H308 H 0.24168 0.14127 0.44739 0.0
H309 H 0.24297 0.16869 0.44623 0.0
H310 H 0.25927 0.1719 0.46793 0.0
H311 H 0.25814 0.14446 0.46898 0.0
H312 H 0.24203 0.07037 0.47918 0.0
H313 H 0.23946 0.08492 0.46815 0.0
H314 H 0.25211 0.03053 0.46686 0.0
H315 H 0.24965 0.04517 0.4559 0.0
H316 H 0.24418 0.07474 0.41842 0.0
H317 H 0.20522 0.10516 0.41696 0.0
H318 H 0.21208 0.11587 0.42849 0.0
H319 H 0.25106 0.08554 0.42997 0.0
C320 C 0.88518 0.96423 0.70495 0.0
C321 C 0.89227 0.96451 0.69824 0.0
C322 C 0.91783 0.96551 0.7038 0.0
C323 C 0.90846 0.96515 0.69766 0.0
C324 C 0.91059 0.9652 0.71051 0.0
C325 C 0.89442 0.96457 0.71107 0.0
U326 U 0.8451 0.96076 0.6966 0.0
O327 O 0.82466 0.94779 0.69998 0.0
O328 O 0.82323 0.97237 0.69917 0.0
C329 C 0.81632 0.95991 0.70119 0.0
C330 C 0.86819 0.96346 0.70563 0.0
C331 C 0.80843 0.96052 0.70813 0.0
C332 C 0.80862 0.958 0.72101 0.0
C333 C 0.81645 0.95763 0.71448 0.0
C334 C 0.78476 0.96441 0.71491 0.0
C335 C 0.79264 0.96132 0.72131 0.0
C336 C 0.79258 0.96399 0.70839 0.0
C337 C 0.84284 0.95725 0.67613 0.0
C338 C 0.8241 0.94452 0.66854 0.0
C339 C 0.84093 0.96365 0.66359 0.0
C340 C 0.84767 0.96581 0.67027 0.0
C341 C 0.82925 0.95279 0.6626 0.0
C342 C 0.83081 0.94674 0.67524 0.0
C343 C 0.85118 0.95893 0.68294 0.0
O344 O 0.86056 0.97502 0.70302 0.0
O345 O 0.86194 0.95047 0.70393 0.0
O346 O 0.8511 0.94724 0.68723 0.0
O347 O 0.84933 0.9718 0.68628 0.0
H348 H 0.88529 0.96426 0.69344 0.0
H349 H 0.91362 0.96555 0.69241 0.0
H350 H 0.91743 0.96522 0.71534 0.0
H351 H 0.88912 0.96428 0.7163 0.0
H352 H 0.81504 0.95542 0.72581 0.0
H353 H 0.82872 0.95496 0.71439 0.0
H354 H 0.77255 0.96728 0.71493 0.0
H355 H 0.78623 0.96636 0.70355 0.0
H356 H 0.81523 0.93598 0.66797 0.0
H357 H 0.84499 0.97043 0.65917 0.0
H358 H 0.85689 0.97401 0.67084 0.0
H359 H 0.82684 0.94001 0.67968 0.0
C360 C 0.75395 0.14222 0.45833 0.0
C361 C 0.75687 0.14935 0.4518 0.0
C362 C 0.7526 0.17388 0.45725 0.0
C363 C 0.75622 0.16503 0.45127 0.0
C364 C 0.74958 0.16663 0.46376 0.0
C365 C 0.75027 0.15094 0.46429 0.0
U366 U 0.75943 0.10406 0.44971 0.0
O367 O 0.77264 0.08418 0.45313 0.0
O368 O 0.74747 0.08247 0.45151 0.0
C369 C 0.76016 0.07576 0.45374 0.0
C370 C 0.75481 0.12575 0.45894 0.0
C371 C 0.75872 0.06703 0.46038 0.0
C372 C 0.76216 0.06423 0.47316 0.0
C373 C 0.76295 0.07308 0.467 0.0
C374 C 0.75253 0.04334 0.46618 0.0
C375 C 0.75708 0.04918 0.47281 0.0
C376 C 0.75338 0.05217 0.46003 0.0
C377 C 0.76626 0.10383 0.42936 0.0
C378 C 0.78108 0.08691 0.42178 0.0
C379 C 0.76144 0.10305 0.41662 0.0
C380 C 0.75807 0.10881 0.42336 0.0
C381 C 0.77318 0.09221 0.41572 0.0
C382 C 0.77765 0.09264 0.42854 0.0
C383 C 0.76333 0.11118 0.43627 0.0
O384 O 0.74345 0.11834 0.45586 0.0
O385 O 0.76854 0.1199 0.45766 0.0
O386 O 0.7747 0.11088 0.44093 0.0
O387 O 0.7496 0.10887 0.43912 0.0
H388 H 0.75966 0.14276 0.44712 0.0
H389 H 0.75841 0.17022 0.44615 0.0
H390 H 0.74695 0.1731 0.46849 0.0
H391 H 0.74801 0.14562 0.46937 0.0
H392 H 0.76587 0.06908 0.47816 0.0
H393 H 0.76707 0.08456 0.46739 0.0
H394 H 0.74828 0.03192 0.46572 0.0
H395 H 0.74998 0.04732 0.45498 0.0
H396 H 0.79028 0.07867 0.42129 0.0
H397 H 0.75491 0.10719 0.41211 0.0
H398 H 0.74922 0.1174 0.42387 0.0
H399 H 0.78413 0.08858 0.43309 0.0
C400 C 0.61863 0.04029 0.2047 0.0
C401 C 0.61113 0.04344 0.19824 0.0
C402 C 0.58592 0.03943 0.20383 0.0
C403 C 0.59491 0.04302 0.19781 0.0
C404 C 0.59357 0.03614 0.21027 0.0
C405 C 0.60978 0.03658 0.21069 0.0
U406 U 0.65829 0.04466 0.19607 0.0
O407 O 0.67881 0.05742 0.19953 0.0
O408 O 0.68033 0.03296 0.19819 0.0
C409 C 0.68726 0.04525 0.20043 0.0
C410 C 0.63564 0.04096 0.20525 0.0
C411 C 0.69516 0.04405 0.20735 0.0
C412 C 0.69436 0.04202 0.22024 0.0
C413 C 0.68666 0.04286 0.21369 0.0
C414 C 0.71911 0.04344 0.21416 0.0
C415 C 0.71069 0.04233 0.22056 0.0
C416 C 0.7114 0.0443 0.20762 0.0
C417 C 0.65919 0.05034 0.17571 0.0
C418 C 0.6821 0.04958 0.16816 0.0
C419 C 0.65736 0.05735 0.16326 0.0
C420 C 0.65042 0.05532 0.1699 0.0
C421 C 0.67326 0.0544 0.16228 0.0
C422 C 0.67511 0.04756 0.17483 0.0
C423 C 0.65132 0.04795 0.18256 0.0
O424 O 0.64313 0.0297 0.2023 0.0
O425 O 0.64184 0.05412 0.20381 0.0
O426 O 0.6519 0.05923 0.18707 0.0
O427 O 0.65348 0.03479 0.18559 0.0
H428 H 0.61781 0.04633 0.19356 0.0
H429 H 0.58942 0.04579 0.1928 0.0
H430 H 0.58705 0.0331 0.21498 0.0
H431 H 0.61539 0.03404 0.21571 0.0
H432 H 0.68753 0.041 0.22505 0.0
H433 H 0.67409 0.04262 0.21357 0.0
H434 H 0.73167 0.04392 0.21421 0.0
H435 H 0.71813 0.04527 0.20278 0.0
H436 H 0.69434 0.04712 0.16759 0.0
H437 H 0.65026 0.06137 0.1589 0.0
H438 H 0.63813 0.0576 0.17049 0.0
H439 H 0.68207 0.04372 0.17927 0.0
C440 C 0.75101 0.86344 0.95863 0.0
C441 C 0.74787 0.8562 0.95216 0.0
C442 C 0.7528 0.83179 0.95763 0.0
C443 C 0.74873 0.84052 0.95166 0.0
C444 C 0.75605 0.83916 0.96409 0.0
C445 C 0.75514 0.85484 0.96458 0.0
U446 U 0.74476 0.90135 0.9499 0.0
O447 O 0.73111 0.921 0.95326 0.0
O448 O 0.75621 0.92321 0.95158 0.0
C449 C 0.74338 0.92972 0.95378 0.0
C450 C 0.74987 0.8799 0.9592 0.0
C451 C 0.74463 0.93852 0.96038 0.0
C452 C 0.74548 0.94029 0.97329 0.0
C453 C 0.74473 0.93157 0.96708 0.0
C454 C 0.74625 0.96294 0.96613 0.0
C455 C 0.74613 0.95611 0.97289 0.0
C456 C 0.7455 0.95423 0.95995 0.0
C457 C 0.73762 0.90108 0.92963 0.0
C458 C 0.72638 0.92125 0.92256 0.0
C459 C 0.73777 0.89962 0.91673 0.0
C460 C 0.74152 0.89349 0.92335 0.0
C461 C 0.73 0.91349 0.91624 0.0
C462 C 0.73019 0.91511 0.9292 0.0
C463 C 0.74087 0.89382 0.9365 0.0
O464 O 0.76107 0.88747 0.95608 0.0
O465 O 0.73603 0.88551 0.95794 0.0
O466 O 0.72953 0.89407 0.94118 0.0
O467 O 0.75455 0.89656 0.93931 0.0
H468 H 0.74473 0.86268 0.94749 0.0
H469 H 0.74635 0.83524 0.94659 0.0
H470 H 0.75903 0.83278 0.9688 0.0
H471 H 0.75758 0.86025 0.96962 0.0
H472 H 0.74522 0.93466 0.97839 0.0
H473 H 0.74407 0.91944 0.96752 0.0
H474 H 0.74701 0.97504 0.9656 0.0
H475 H 0.74551 0.95978 0.95482 0.0
H476 H 0.72055 0.93203 0.92237 0.0
H477 H 0.74055 0.89324 0.91199 0.0
H478 H 0.74722 0.88263 0.92358 0.0
H479 H 0.72715 0.92118 0.934 0.0
C480 C 0.88492 0.03957 0.3039 0.0
C481 C 0.89221 0.04025 0.31056 0.0
C482 C 0.91757 0.038 0.30491 0.0
C483 C 0.9084 0.03948 0.31107 0.0
C484 C 0.91014 0.03731 0.29825 0.0
C485 C 0.89396 0.03809 0.29775 0.0
U486 U 0.84492 0.04348 0.31232 0.0
O487 O 0.82461 0.05662 0.3089 0.0
O488 O 0.82293 0.03207 0.30978 0.0
C489 C 0.81613 0.04458 0.30773 0.0
C490 C 0.86793 0.04048 0.30328 0.0
C491 C 0.80833 0.04395 0.30078 0.0
C492 C 0.80919 0.04358 0.28785 0.0
C493 C 0.81686 0.04406 0.29442 0.0
C494 C 0.78444 0.04278 0.29395 0.0
C495 C 0.79287 0.04299 0.28753 0.0
C496 C 0.79211 0.04326 0.3005 0.0
C497 C 0.84245 0.04722 0.3327 0.0
C498 C 0.82073 0.0571 0.33952 0.0
C499 C 0.84149 0.04378 0.34551 0.0
C500 C 0.84895 0.04161 0.33899 0.0
C501 C 0.82737 0.05168 0.34587 0.0
C502 C 0.82819 0.05484 0.33298 0.0
C503 C 0.85102 0.04539 0.32598 0.0
O504 O 0.86023 0.02901 0.30593 0.0
O505 O 0.86183 0.05354 0.30496 0.0
O506 O 0.85101 0.05705 0.32167 0.0
O507 O 0.84907 0.03252 0.32267 0.0
H508 H 0.88537 0.04137 0.31537 0.0
H509 H 0.91373 0.03988 0.31628 0.0
H510 H 0.91683 0.0364 0.29339 0.0
H511 H 0.88851 0.03761 0.29256 0.0
H512 H 0.81605 0.04392 0.28303 0.0
H513 H 0.82942 0.04458 0.29454 0.0
H514 H 0.77189 0.04207 0.29391 0.0
H515 H 0.78535 0.04309 0.30536 0.0
H516 H 0.80978 0.06307 0.3396 0.0
H517 H 0.84701 0.03963 0.3503 0.0
H518 H 0.85997 0.03573 0.33888 0.0
H519 H 0.82291 0.05918 0.32817 0.0
C520 C 0.75048 0.14167 0.05008 0.0
C521 C 0.74844 0.1489 0.05665 0.0
C522 C 0.75202 0.17334 0.051 0.0
C523 C 0.74919 0.16459 0.0571 0.0
C524 C 0.75412 0.16599 0.04444 0.0
C525 C 0.75335 0.1503 0.04399 0.0
U526 U 0.74465 0.10375 0.05889 0.0
O527 O 0.73121 0.08395 0.05554 0.0
O528 O 0.75633 0.08201 0.05722 0.0
C529 C 0.74358 0.07537 0.05501 0.0
C530 C 0.74947 0.12519 0.04955 0.0
C531 C 0.74498 0.06669 0.04837 0.0
C532 C 0.74702 0.06529 0.03549 0.0
C533 C 0.74599 0.07384 0.04173 0.0
C534 C 0.74619 0.04241 0.04248 0.0
C535 C 0.74711 0.04945 0.03578 0.0
C536 C 0.74513 0.05095 0.0487 0.0
C537 C 0.73766 0.10405 0.07917 0.0
C538 C 0.72766 0.08331 0.08625 0.0
C539 C 0.73706 0.10587 0.09205 0.0
C540 C 0.74064 0.11208 0.08542 0.0
C541 C 0.73039 0.09147 0.09255 0.0
C542 C 0.7313 0.08955 0.07961 0.0
C543 C 0.74075 0.11131 0.07228 0.0
O544 O 0.76076 0.11775 0.05267 0.0
O545 O 0.73569 0.1195 0.05085 0.0
O546 O 0.72939 0.11087 0.06762 0.0
O547 O 0.75444 0.1087 0.06946 0.0
H548 H 0.74625 0.14239 0.06142 0.0
H549 H 0.74771 0.16985 0.06225 0.0
H550 H 0.75611 0.17238 0.03962 0.0
H551 H 0.7549 0.1449 0.03887 0.0
H552 H 0.74789 0.07108 0.03044 0.0
H553 H 0.74594 0.086 0.04139 0.0
H554 H 0.74599 0.03027 0.04291 0.0
H555 H 0.74431 0.04525 0.05378 0.0
H556 H 0.7227 0.07213 0.08645 0.0
H557 H 0.73911 0.11256 0.09677 0.0
H558 H 0.74549 0.12331 0.08518 0.0
H559 H 0.72897 0.08314 0.07482 0.0
C560 C 0.61743 0.96277 0.80401 0.0
C561 C 0.61018 0.96363 0.81068 0.0
C562 C 0.58474 0.96352 0.80499 0.0
C563 C 0.59397 0.96405 0.81117 0.0
C564 C 0.59212 0.96269 0.79832 0.0
C565 C 0.60832 0.96233 0.79784 0.0
U566 U 0.65714 0.95843 0.81258 0.0
O567 O 0.67758 0.94554 0.80912 0.0
O568 O 0.67922 0.97 0.81043 0.0
C569 C 0.68609 0.95765 0.80822 0.0
C570 C 0.63443 0.96204 0.80343 0.0
C571 C 0.69407 0.95876 0.80132 0.0
C572 C 0.69376 0.96355 0.78858 0.0
C573 C 0.68598 0.96269 0.79511 0.0
C574 C 0.71777 0.95652 0.7944 0.0
C575 C 0.70977 0.96046 0.78814 0.0
C576 C 0.70999 0.95569 0.80092 0.0
C577 C 0.65815 0.95293 0.83296 0.0
C578 C 0.68075 0.95482 0.84067 0.0
C579 C 0.65658 0.94487 0.84528 0.0
C580 C 0.64967 0.94688 0.83863 0.0
C581 C 0.67217 0.94894 0.84642 0.0
C582 C 0.67379 0.9568 0.83399 0.0
C583 C 0.65026 0.95529 0.82611 0.0
O584 O 0.64202 0.97332 0.80631 0.0
O585 O 0.64058 0.94888 0.8049 0.0
O586 O 0.65074 0.94397 0.82163 0.0
O587 O 0.65242 0.96843 0.82305 0.0
H588 H 0.61706 0.96389 0.8155 0.0
H589 H 0.58867 0.96451 0.81638 0.0
H590 H 0.58537 0.96246 0.79346 0.0
H591 H 0.61373 0.96166 0.79265 0.0
H592 H 0.68725 0.96677 0.7839 0.0
H593 H 0.67366 0.96509 0.79533 0.0
H594 H 0.73002 0.95383 0.79426 0.0
H595 H 0.7164 0.95256 0.80565 0.0
H596 H 0.69274 0.95814 0.84137 0.0
H597 H 0.64972 0.94003 0.84953 0.0
H598 H 0.63761 0.94374 0.83792 0.0
H599 H 0.68055 0.96146 0.82966 0.0
C600 C 0.75544 0.86302 0.54985 0.0
C601 C 0.75622 0.85573 0.55647 0.0
C602 C 0.75414 0.83132 0.55064 0.0
C603 C 0.75555 0.84003 0.55686 0.0
C604 C 0.75326 0.83874 0.54403 0.0
C605 C 0.75391 0.85445 0.54365 0.0
U606 U 0.76146 0.9009 0.55873 0.0
O607 O 0.77518 0.92056 0.55536 0.0
O608 O 0.75007 0.92275 0.55702 0.0
C609 C 0.7629 0.92925 0.55482 0.0
C610 C 0.75655 0.8795 0.54938 0.0
C611 C 0.76167 0.938 0.54819 0.0
C612 C 0.75487 0.94018 0.53567 0.0
C613 C 0.75606 0.93153 0.54188 0.0
C614 C 0.76499 0.96177 0.542 0.0
C615 C 0.75928 0.95544 0.53566 0.0
C616 C 0.76615 0.95313 0.5482 0.0
C617 C 0.76832 0.90086 0.579 0.0
C618 C 0.78089 0.92022 0.58609 0.0
C619 C 0.7665 0.9003 0.5919 0.0
C620 C 0.76287 0.89414 0.58526 0.0
C621 C 0.77572 0.91331 0.5924 0.0
C622 C 0.77718 0.91408 0.57945 0.0
C623 C 0.76518 0.89347 0.57214 0.0
O624 O 0.7453 0.88701 0.55248 0.0
O625 O 0.77037 0.88508 0.55072 0.0
O626 O 0.77656 0.89363 0.56749 0.0
O627 O 0.75152 0.89612 0.56929 0.0
H628 H 0.75748 0.8622 0.56132 0.0
H629 H 0.75643 0.83469 0.56202 0.0
H630 H 0.75196 0.83241 0.53914 0.0
H631 H 0.75328 0.8599 0.5385 0.0
H632 H 0.75029 0.93496 0.53091 0.0
H633 H 0.75255 0.91983 0.54178 0.0
H634 H 0.76876 0.97338 0.54217 0.0
H635 H 0.77058 0.9583 0.55301 0.0
H636 H 0.78786 0.93035 0.5863 0.0
H637 H 0.76248 0.89458 0.59664 0.0
H638 H 0.75604 0.88391 0.58503 0.0
H639 H 0.78143 0.91951 0.57467 0.0
C640 C 0.61804 0.51781 0.8038 0.0
C641 C 0.6103 0.52317 0.80986 0.0
C642 C 0.58534 0.5162 0.80469 0.0
C643 C 0.5941 0.5224 0.8103 0.0
C644 C 0.59325 0.51061 0.79869 0.0
C645 C 0.60943 0.51143 0.79826 0.0
U646 U 0.65776 0.52407 0.81216 0.0
O647 O 0.68024 0.51323 0.81007 0.0
O648 O 0.6776 0.53753 0.80842 0.0
C649 C 0.68657 0.52569 0.80765 0.0
C650 C 0.63502 0.51901 0.80317 0.0
C651 C 0.69461 0.5245 0.80076 0.0
C652 C 0.69562 0.51628 0.78843 0.0
C653 C 0.6877 0.51732 0.79492 0.0
C654 C 0.71735 0.52978 0.79353 0.0
C655 C 0.71058 0.52249 0.78765 0.0
C656 C 0.70944 0.53075 0.80001 0.0
C657 C 0.6589 0.53083 0.83246 0.0
C658 C 0.68035 0.54119 0.83931 0.0
C659 C 0.6578 0.53114 0.84537 0.0
C660 C 0.65114 0.5275 0.83882 0.0
C661 C 0.67238 0.53824 0.8457 0.0
C662 C 0.67364 0.53752 0.83273 0.0
C663 C 0.65102 0.52771 0.82568 0.0
O664 O 0.64079 0.53246 0.80439 0.0
O665 O 0.64301 0.50819 0.80622 0.0
O666 O 0.65376 0.51449 0.82281 0.0
O667 O 0.65089 0.53874 0.82102 0.0
H668 H 0.61677 0.5281 0.81422 0.0
H669 H 0.58843 0.52697 0.81496 0.0
H670 H 0.58693 0.50552 0.79433 0.0
H671 H 0.61523 0.50715 0.79356 0.0
H672 H 0.6901 0.51046 0.78405 0.0
H673 H 0.67621 0.51246 0.79538 0.0
H674 H 0.72869 0.53493 0.79311 0.0
H675 H 0.71492 0.53643 0.80445 0.0
H676 H 0.69154 0.54672 0.83937 0.0
H677 H 0.65148 0.52845 0.85018 0.0
H678 H 0.63979 0.52227 0.83871 0.0
H679 H 0.67982 0.54015 0.82787 0.0
C680 C 0.74926 0.36734 0.05117 0.0
C681 C 0.74747 0.3599 0.0577 0.0
C682 C 0.75124 0.33567 0.05187 0.0
C683 C 0.74844 0.3442 0.05805 0.0
C684 C 0.75307 0.34326 0.04535 0.0
C685 C 0.75208 0.35894 0.04501 0.0
U686 U 0.74327 0.40552 0.05993 0.0
O687 O 0.75494 0.42719 0.05801 0.0
O688 O 0.7298 0.42516 0.05641 0.0
C689 C 0.74218 0.43367 0.05571 0.0
C690 C 0.7481 0.38382 0.05072 0.0
C691 C 0.74353 0.44185 0.04892 0.0
C692 C 0.74248 0.44262 0.036 0.0
C693 C 0.74156 0.43451 0.04237 0.0
C694 C 0.74767 0.4654 0.04264 0.0
C695 C 0.74549 0.45819 0.03606 0.0
C696 C 0.74668 0.4573 0.049 0.0
C697 C 0.73649 0.40624 0.08026 0.0
C698 C 0.72202 0.42393 0.08758 0.0
C699 C 0.74053 0.407 0.09305 0.0
C700 C 0.74406 0.401 0.08637 0.0
C701 C 0.72925 0.41835 0.09376 0.0
C702 C 0.72561 0.41794 0.08089 0.0
C703 C 0.73952 0.39868 0.07341 0.0
O704 O 0.73429 0.38942 0.05206 0.0
O705 O 0.75937 0.39133 0.0538 0.0
O706 O 0.7532 0.40108 0.07054 0.0
O707 O 0.72813 0.3987 0.06875 0.0
H708 H 0.74531 0.36624 0.06252 0.0
H709 H 0.74715 0.33875 0.06317 0.0
H710 H 0.75502 0.33705 0.04047 0.0
H711 H 0.75344 0.36451 0.03992 0.0
H712 H 0.74092 0.43668 0.03102 0.0
H713 H 0.73922 0.42254 0.0422 0.0
H714 H 0.74981 0.47739 0.04289 0.0
H715 H 0.74822 0.46316 0.05401 0.0
H716 H 0.7132 0.43257 0.08793 0.0
H717 H 0.74655 0.40264 0.09766 0.0
H718 H 0.75253 0.39202 0.08601 0.0
H719 H 0.71963 0.42221 0.07624 0.0
C720 C 0.88573 0.48434 0.30426 0.0
C721 C 0.89315 0.49212 0.30981 0.0
C722 C 0.91847 0.48508 0.30509 0.0
C723 C 0.90937 0.49256 0.3102 0.0
C724 C 0.91098 0.47723 0.29958 0.0
C725 C 0.89478 0.47691 0.29916 0.0
U726 U 0.84573 0.48055 0.31282 0.0
O727 O 0.82375 0.4922 0.31049 0.0
O728 O 0.82525 0.46768 0.30939 0.0
C729 C 0.81681 0.47982 0.30838 0.0
C730 C 0.86864 0.48366 0.30374 0.0
C731 C 0.80879 0.48075 0.30148 0.0
C732 C 0.80918 0.48125 0.28855 0.0
C733 C 0.81708 0.48059 0.29506 0.0
C734 C 0.78467 0.4824 0.29484 0.0
C735 C 0.79285 0.48209 0.28836 0.0
C736 C 0.79257 0.48172 0.30133 0.0
C737 C 0.84435 0.47573 0.33324 0.0
C738 C 0.823 0.46588 0.34032 0.0
C739 C 0.84526 0.4771 0.34613 0.0
C740 C 0.85194 0.48002 0.33951 0.0
C741 C 0.83083 0.46977 0.34664 0.0
C742 C 0.82972 0.46883 0.33367 0.0
C743 C 0.85234 0.47792 0.3264 0.0
O744 O 0.8624 0.47058 0.30529 0.0
O745 O 0.86096 0.4951 0.30644 0.0
O746 O 0.85022 0.49096 0.32326 0.0
O747 O 0.85199 0.46648 0.32198 0.0
H748 H 0.88643 0.49782 0.31387 0.0
H749 H 0.9148 0.49856 0.31455 0.0
H750 H 0.91767 0.47148 0.29553 0.0
H751 H 0.88929 0.47084 0.29484 0.0
H752 H 0.81585 0.48084 0.28368 0.0
H753 H 0.82963 0.47985 0.29509 0.0
H754 H 0.77214 0.48329 0.2949 0.0
H755 H 0.78599 0.48194 0.30624 0.0
H756 H 0.81193 0.46014 0.34052 0.0
H757 H 0.85147 0.48052 0.35087 0.0
H758 H 0.8632 0.48542 0.33928 0.0
H759 H 0.82366 0.46544 0.32888 0.0
C760 C 0.7559 0.63724 0.55162 0.0
C761 C 0.75676 0.64491 0.55813 0.0
C762 C 0.7548 0.66898 0.55196 0.0
C763 C 0.75619 0.66065 0.5583 0.0
C764 C 0.75388 0.66117 0.54546 0.0
C765 C 0.75442 0.64546 0.5453 0.0
U766 U 0.76105 0.59941 0.56081 0.0
O767 O 0.74896 0.57787 0.55914 0.0
O768 O 0.77413 0.57935 0.55753 0.0
C769 C 0.76159 0.57104 0.55692 0.0
C770 C 0.7567 0.62073 0.55135 0.0
C771 C 0.7601 0.56261 0.55022 0.0
C772 C 0.75972 0.56161 0.53729 0.0
C773 C 0.76075 0.56992 0.54361 0.0
C774 C 0.75713 0.53867 0.54414 0.0
C775 C 0.75799 0.54586 0.53748 0.0
C776 C 0.75819 0.54698 0.55044 0.0
C777 C 0.76789 0.59956 0.58107 0.0
C778 C 0.77289 0.57725 0.58819 0.0
C779 C 0.77194 0.60177 0.5938 0.0
C780 C 0.76892 0.6084 0.58721 0.0
C781 C 0.77398 0.58611 0.59439 0.0
C782 C 0.76986 0.58393 0.58158 0.0
C783 C 0.76502 0.60697 0.5742 0.0
O784 O 0.77038 0.61492 0.55276 0.0
O785 O 0.74526 0.6136 0.55452 0.0
O786 O 0.7513 0.60464 0.57135 0.0
O787 O 0.77641 0.60627 0.56957 0.0
H788 H 0.75796 0.63873 0.56307 0.0
H789 H 0.7571 0.66629 0.56339 0.0
H790 H 0.75259 0.66721 0.54049 0.0
H791 H 0.75371 0.63971 0.54023 0.0
H792 H 0.76058 0.56751 0.53227 0.0
H793 H 0.76221 0.582 0.54334 0.0
H794 H 0.75553 0.52662 0.5445 0.0
H795 H 0.75758 0.54116 0.5555 0.0
H796 H 0.77428 0.56516 0.58847 0.0
H797 H 0.77297 0.60897 0.59842 0.0
H798 H 0.76751 0.62049 0.5869 0.0
H799 H 0.76908 0.57694 0.57688 0.0
C800 C 0.61841 0.48627 0.2044 0.0
C801 C 0.61077 0.48078 0.19834 0.0
C802 C 0.58574 0.48792 0.20337 0.0
C803 C 0.59458 0.48158 0.19783 0.0
C804 C 0.59354 0.49361 0.20938 0.0
C805 C 0.60971 0.49277 0.20988 0.0
U806 U 0.65854 0.47923 0.19648 0.0
O807 O 0.68084 0.49048 0.1986 0.0
O808 O 0.67825 0.46636 0.20074 0.0
C809 C 0.68713 0.47831 0.20133 0.0
C810 C 0.63538 0.48514 0.20512 0.0
C811 C 0.69481 0.4802 0.20827 0.0
C812 C 0.69369 0.48322 0.22111 0.0
C813 C 0.68615 0.48195 0.21453 0.0
C814 C 0.71858 0.48117 0.2152 0.0
C815 C 0.71001 0.48278 0.22153 0.0
C816 C 0.71104 0.47989 0.20864 0.0
C817 C 0.66139 0.46983 0.17644 0.0
C818 C 0.68026 0.47541 0.16715 0.0
C819 C 0.66421 0.45314 0.16627 0.0
C820 C 0.65706 0.45683 0.1727 0.0
C821 C 0.67581 0.46244 0.16338 0.0
C822 C 0.67316 0.47905 0.17363 0.0
C823 C 0.65285 0.47382 0.183 0.0
O824 O 0.6412 0.4716 0.20426 0.0
O825 O 0.64341 0.49565 0.20186 0.0
O826 O 0.65498 0.48743 0.18557 0.0
O827 O 0.65227 0.46339 0.18795 0.0
H828 H 0.61733 0.47574 0.19404 0.0
H829 H 0.58897 0.47695 0.19317 0.0
H830 H 0.58715 0.4988 0.21369 0.0
H831 H 0.61542 0.49714 0.21458 0.0
H832 H 0.68674 0.48461 0.22586 0.0
H833 H 0.67359 0.48225 0.21433 0.0
H834 H 0.73113 0.48057 0.21532 0.0
H835 H 0.7179 0.47848 0.20386 0.0
H836 H 0.68926 0.48272 0.1651 0.0
H837 H 0.66035 0.44319 0.16346 0.0
H838 H 0.64793 0.44961 0.17472 0.0
H839 H 0.67677 0.48916 0.17638 0.0
C840 C 0.75439 0.36784 0.45722 0.0
C841 C 0.75731 0.36053 0.45075 0.0
C842 C 0.75264 0.33618 0.45633 0.0
C843 C 0.75645 0.34484 0.4503 0.0
C844 C 0.74963 0.34363 0.46279 0.0
C845 C 0.75051 0.35931 0.46322 0.0
U846 U 0.76205 0.40608 0.44883 0.0
O847 O 0.75052 0.42792 0.45047 0.0
O848 O 0.77533 0.42543 0.45282 0.0
C849 C 0.76305 0.43417 0.45315 0.0
C850 C 0.75559 0.3843 0.45779 0.0
C851 C 0.76093 0.44231 0.4599 0.0
C852 C 0.75707 0.44259 0.47271 0.0
C853 C 0.75861 0.4346 0.46632 0.0
C854 C 0.76001 0.46603 0.46628 0.0
C855 C 0.7578 0.45842 0.47277 0.0
C856 C 0.76156 0.45804 0.45992 0.0
C857 C 0.77227 0.40715 0.42885 0.0
C858 C 0.76999 0.42795 0.42049 0.0
C859 C 0.7868 0.40689 0.41777 0.0
C860 C 0.78272 0.40012 0.42421 0.0
C861 C 0.78044 0.42086 0.41581 0.0
C862 C 0.76598 0.42119 0.42697 0.0
C863 C 0.76795 0.3994 0.43549 0.0
O864 O 0.76962 0.38981 0.45693 0.0
O865 O 0.74489 0.39196 0.45437 0.0
O866 O 0.75387 0.40185 0.43793 0.0
O867 O 0.77859 0.39926 0.4405 0.0
H868 H 0.7603 0.36697 0.44605 0.0
H869 H 0.75866 0.3395 0.44523 0.0
H870 H 0.74688 0.33732 0.46755 0.0
H871 H 0.74828 0.36478 0.46827 0.0
H872 H 0.75522 0.43637 0.47759 0.0
H873 H 0.75807 0.42243 0.4664 0.0
H874 H 0.76086 0.47818 0.46613 0.0
H875 H 0.76342 0.46417 0.45501 0.0
H876 H 0.76501 0.43878 0.41916 0.0
H877 H 0.79471 0.40104 0.41426 0.0
H878 H 0.78766 0.38927 0.42555 0.0
H879 H 0.75794 0.42688 0.43048 0.0
C880 C 0.88589 0.51977 0.70438 0.0
C881 C 0.89309 0.51975 0.69769 0.0
C882 C 0.91857 0.519 0.70333 0.0
C883 C 0.90929 0.51932 0.69716 0.0
C884 C 0.91123 0.51892 0.71002 0.0
C885 C 0.89505 0.5193 0.71053 0.0
U886 U 0.84591 0.52486 0.69607 0.0
O887 O 0.82371 0.51363 0.69833 0.0
O888 O 0.82584 0.53802 0.69982 0.0
C889 C 0.8172 0.526 0.70073 0.0
C890 C 0.8689 0.52067 0.70503 0.0
C891 C 0.80929 0.52486 0.70768 0.0
C892 C 0.80697 0.51438 0.71959 0.0
C893 C 0.81483 0.51538 0.71309 0.0
C894 C 0.78811 0.53254 0.71541 0.0
C895 C 0.79347 0.52293 0.72084 0.0
C896 C 0.79592 0.53345 0.7089 0.0
C897 C 0.84389 0.531 0.6758 0.0
C898 C 0.82015 0.53562 0.66915 0.0
C899 C 0.84488 0.53492 0.66303 0.0
C900 C 0.85239 0.53206 0.66947 0.0
C901 C 0.82867 0.53676 0.66277 0.0
C902 C 0.82771 0.53275 0.67562 0.0
C903 C 0.85223 0.52828 0.6825 0.0
O904 O 0.86289 0.53394 0.70368 0.0
O905 O 0.8611 0.50957 0.7021 0.0
O906 O 0.84995 0.5151 0.68548 0.0
O907 O 0.85218 0.53944 0.68707 0.0
H908 H 0.88617 0.52019 0.69288 0.0
H909 H 0.91456 0.51956 0.69193 0.0
H910 H 0.91801 0.51847 0.71487 0.0
H911 H 0.88967 0.51931 0.71574 0.0
H912 H 0.81137 0.50675 0.7236 0.0
H913 H 0.82519 0.50868 0.71228 0.0
H914 H 0.77797 0.53952 0.7162 0.0
H915 H 0.79152 0.54091 0.70481 0.0
H916 H 0.80765 0.53684 0.66914 0.0
H917 H 0.85184 0.53598 0.65826 0.0
H918 H 0.8649 0.53081 0.66952 0.0
H919 H 0.82097 0.53194 0.68046 0.0
C920 C 0.74949 0.63786 0.9569 0.0
C921 C 0.74647 0.6455 0.95052 0.0
C922 C 0.75196 0.66951 0.95626 0.0
C923 C 0.74767 0.66118 0.9502 0.0
C924 C 0.75509 0.66173 0.96263 0.0
C925 C 0.75385 0.64605 0.96294 0.0
U926 U 0.74108 0.60017 0.94816 0.0
O927 O 0.75191 0.57797 0.94968 0.0
O928 O 0.72711 0.58104 0.95189 0.0
C929 C 0.73911 0.57195 0.95221 0.0
C930 C 0.74788 0.62142 0.95734 0.0
C931 C 0.74074 0.56344 0.95889 0.0
C932 C 0.74545 0.56235 0.97163 0.0
C933 C 0.74443 0.57065 0.96531 0.0
C934 C 0.73922 0.5396 0.96515 0.0
C935 C 0.74275 0.54672 0.97164 0.0
C936 C 0.73823 0.54789 0.95885 0.0
C937 C 0.73128 0.60034 0.92811 0.0
C938 C 0.73271 0.57974 0.91962 0.0
C939 C 0.71727 0.60178 0.91692 0.0
C940 C 0.72146 0.6081 0.92344 0.0
C941 C 0.72288 0.58754 0.91491 0.0
C942 C 0.73683 0.58605 0.92618 0.0
C943 C 0.7357 0.60761 0.93486 0.0
O944 O 0.73375 0.61627 0.95637 0.0
O945 O 0.75847 0.61363 0.95392 0.0
O946 O 0.74964 0.6046 0.93734 0.0
O947 O 0.72496 0.60784 0.93982 0.0
H948 H 0.74312 0.63932 0.94579 0.0
H949 H 0.74537 0.66678 0.94519 0.0
H950 H 0.75821 0.66778 0.96742 0.0
H951 H 0.75617 0.64034 0.96792 0.0
H952 H 0.74804 0.56822 0.97654 0.0
H953 H 0.74636 0.58269 0.96543 0.0
H954 H 0.73732 0.52757 0.96493 0.0
H955 H 0.73541 0.54214 0.95393 0.0
H956 H 0.7371 0.5687 0.91825 0.0
H957 H 0.70986 0.60819 0.91339 0.0
H958 H 0.7171 0.61915 0.92482 0.0
H959 H 0.74438 0.57981 0.92973 0.0
C960 C 0.38559 0.48677 0.20387 0.0
C961 C 0.3933 0.48146 0.1978 0.0
C962 C 0.41829 0.48833 0.20297 0.0
C963 C 0.40951 0.4822 0.19736 0.0
C964 C 0.41041 0.49385 0.209 0.0
C965 C 0.39423 0.49305 0.20944 0.0
U966 U 0.3456 0.4813 0.19558 0.0
O967 O 0.32554 0.46823 0.19932 0.0
O968 O 0.32342 0.49261 0.19784 0.0
C969 C 0.31683 0.48023 0.20018 0.0
C970 C 0.36859 0.48574 0.2045 0.0
C971 C 0.3089 0.48142 0.20708 0.0
C972 C 0.3095 0.48299 0.22 0.0
C973 C 0.3173 0.48215 0.21347 0.0
C974 C 0.28485 0.48252 0.2138 0.0
C975 C 0.29315 0.48311 0.22024 0.0
C976 C 0.29266 0.48168 0.20729 0.0
C977 C 0.34329 0.47513 0.17532 0.0
C978 C 0.32149 0.46463 0.16877 0.0
C979 C 0.34264 0.47654 0.16242 0.0
C980 C 0.35002 0.4796 0.16887 0.0
C981 C 0.32834 0.4689 0.16227 0.0
C982 C 0.32888 0.46776 0.17524 0.0
C983 C 0.35177 0.47789 0.18199 0.0
O984 O 0.36075 0.49677 0.20154 0.0
O985 O 0.36262 0.47242 0.20321 0.0
O986 O 0.35193 0.46675 0.18659 0.0
O987 O 0.34955 0.49109 0.18496 0.0
H988 H 0.3868 0.47661 0.19343 0.0
H989 H 0.41516 0.47771 0.19268 0.0
H990 H 0.41674 0.49889 0.21336 0.0
H991 H 0.38845 0.4973 0.21414 0.0
H992 H 0.31626 0.48327 0.22485 0.0
H993 H 0.32988 0.48195 0.2134 0.0
H994 H 0.27228 0.48284 0.21377 0.0
H995 H 0.28599 0.48119 0.20241 0.0
H996 H 0.31041 0.45887 0.16884 0.0
H997 H 0.34834 0.47981 0.15752 0.0
H998 H 0.36116 0.48527 0.16883 0.0
H999 H 0.32343 0.46429 0.18017 0.0
C1000 C 0.25652 0.63764 0.95752 0.0
C1001 C 0.25882 0.64535 0.9511 0.0
C1002 C 0.25495 0.66936 0.95711 0.0
C1003 C 0.25802 0.66107 0.95089 0.0
C1004 C 0.25248 0.66151 0.96352 0.0
C1005 C 0.25327 0.6458 0.96372 0.0
U1006 U 0.26362 0.59987 0.94857 0.0
O1007 O 0.27736 0.58041 0.95217 0.0
O1008 O 0.2524 0.5779 0.95013 0.0
C1009 C 0.26513 0.57164 0.95263 0.0
C1010 C 0.2578 0.62116 0.95787 0.0
C1011 C 0.26358 0.56316 0.95934 0.0
C1012 C 0.25224 0.55953 0.97107 0.0
C1013 C 0.25356 0.56791 0.96479 0.0
C1014 C 0.27111 0.54173 0.96659 0.0
C1015 C 0.26098 0.5463 0.97205 0.0
C1016 C 0.27235 0.55005 0.9603 0.0
C1017 C 0.27206 0.59997 0.92841 0.0
C1018 C 0.27164 0.57834 0.9205 0.0
C1019 C 0.28253 0.60196 0.91646 0.0
C1020 C 0.27923 0.60842 0.92306 0.0
C1021 C 0.27867 0.58686 0.91506 0.0
C1022 C 0.26837 0.58484 0.92712 0.0
C1023 C 0.26838 0.60733 0.93522 0.0
O1024 O 0.24686 0.61364 0.95454 0.0
O1025 O 0.27177 0.61577 0.9567 0.0
O1026 O 0.27944 0.60714 0.94003 0.0
O1027 O 0.25454 0.60462 0.93787 0.0
H1028 H 0.26139 0.63921 0.94626 0.0
H1029 H 0.26015 0.66675 0.94588 0.0
H1030 H 0.24986 0.6675 0.96838 0.0
H1031 H 0.25142 0.64002 0.96872 0.0
H1032 H 0.24421 0.56333 0.97512 0.0
H1033 H 0.24672 0.57805 0.96417 0.0
H1034 H 0.27826 0.53179 0.96719 0.0
H1035 H 0.28023 0.54626 0.95619 0.0
H1036 H 0.2684 0.56673 0.91959 0.0
H1037 H 0.28824 0.60878 0.91247 0.0
H1038 H 0.28225 0.6201 0.92397 0.0
H1039 H 0.26285 0.5781 0.93121 0.0
C1040 C 0.11856 0.51996 0.70447 0.0
C1041 C 0.11144 0.51988 0.69775 0.0
C1042 C 0.08589 0.5193 0.70333 0.0
C1043 C 0.09524 0.51952 0.69719 0.0
C1044 C 0.09315 0.51931 0.71004 0.0
C1045 C 0.10933 0.51964 0.71059 0.0
U1046 U 0.15874 0.52425 0.69625 0.0
O1047 O 0.17906 0.53699 0.69995 0.0
O1048 O 0.18063 0.51251 0.69867 0.0
C1049 C 0.18746 0.52482 0.70094 0.0
C1050 C 0.13555 0.52063 0.70516 0.0
C1051 C 0.19527 0.52365 0.70789 0.0
C1052 C 0.1947 0.52422 0.72082 0.0
C1053 C 0.18696 0.52504 0.71427 0.0
C1054 C 0.21905 0.52036 0.71465 0.0
C1055 C 0.21087 0.52194 0.72109 0.0
C1056 C 0.21132 0.52122 0.70812 0.0
C1057 C 0.16136 0.52981 0.6759 0.0
C1058 C 0.1804 0.54322 0.66874 0.0
C1059 C 0.16356 0.52481 0.66323 0.0
C1060 C 0.15661 0.52197 0.66981 0.0
C1061 C 0.17537 0.53565 0.66258 0.0
C1062 C 0.17348 0.54032 0.67534 0.0
C1063 C 0.15287 0.52741 0.68263 0.0
O1064 O 0.1432 0.50935 0.70231 0.0
O1065 O 0.1418 0.53379 0.70376 0.0
O1066 O 0.15279 0.53866 0.68716 0.0
O1067 O 0.15472 0.51423 0.68568 0.0
H1068 H 0.11842 0.5202 0.69296 0.0
H1069 H 0.09004 0.51969 0.69194 0.0
H1070 H 0.08632 0.51895 0.71487 0.0
H1071 H 0.11465 0.51968 0.71582 0.0
H1072 H 0.18804 0.52564 0.72566 0.0
H1073 H 0.17453 0.5269 0.71419 0.0
H1074 H 0.23145 0.51834 0.71465 0.0
H1075 H 0.2179 0.52003 0.70325 0.0
H1076 H 0.18937 0.55174 0.66844 0.0
H1077 H 0.15959 0.51855 0.65864 0.0
H1078 H 0.14732 0.51379 0.67013 0.0
H1079 H 0.17739 0.54651 0.67997 0.0
C1080 C 0.24988 0.36642 0.45666 0.0
C1081 C 0.246 0.35907 0.4503 0.0
C1082 C 0.25145 0.33475 0.45576 0.0
C1083 C 0.24675 0.34337 0.44986 0.0
C1084 C 0.25546 0.34223 0.4621 0.0
C1085 C 0.25466 0.35792 0.46254 0.0
U1086 U 0.24398 0.40487 0.44818 0.0
O1087 O 0.23059 0.42445 0.45181 0.0
O1088 O 0.25573 0.42646 0.45021 0.0
C1089 C 0.243 0.43291 0.45255 0.0
C1090 C 0.24885 0.38289 0.45724 0.0
C1091 C 0.24439 0.44097 0.45937 0.0
C1092 C 0.2425 0.44177 0.47227 0.0
C1093 C 0.24166 0.43371 0.46588 0.0
C1094 C 0.24915 0.46433 0.46572 0.0
C1095 C 0.24618 0.45721 0.47226 0.0
C1096 C 0.24824 0.45628 0.45934 0.0
C1097 C 0.23684 0.40641 0.42796 0.0
C1098 C 0.22529 0.4271 0.42135 0.0
C1099 C 0.2377 0.40662 0.41504 0.0
C1100 C 0.24131 0.39975 0.42152 0.0
C1101 C 0.2295 0.42029 0.41486 0.0
C1102 C 0.22897 0.42024 0.42784 0.0
C1103 C 0.24 0.39842 0.43467 0.0
O1104 O 0.26012 0.39042 0.45416 0.0
O1105 O 0.23506 0.38863 0.45599 0.0
O1106 O 0.22868 0.39836 0.43935 0.0
O1107 O 0.25372 0.40073 0.43751 0.0
H1108 H 0.24234 0.36548 0.44569 0.0
H1109 H 0.24376 0.33799 0.44488 0.0
H1110 H 0.25895 0.33595 0.46677 0.0
H1111 H 0.25768 0.36342 0.46749 0.0
H1112 H 0.24033 0.43591 0.47722 0.0
H1113 H 0.23877 0.42186 0.46602 0.0
H1114 H 0.25184 0.47621 0.4655 0.0
H1115 H 0.25037 0.46208 0.45436 0.0
H1116 H 0.21912 0.43771 0.42139 0.0
H1117 H 0.24095 0.40097 0.41016 0.0
H1118 H 0.24736 0.38907 0.42151 0.0
H1119 H 0.2255 0.42562 0.43276 0.0
C1120 C 0.38499 0.51769 0.80441 0.0
C1121 C 0.39284 0.52323 0.8104 0.0
C1122 C 0.41772 0.51626 0.80515 0.0
C1123 C 0.40906 0.52255 0.81076 0.0
C1124 C 0.40971 0.51048 0.79922 0.0
C1125 C 0.39351 0.51122 0.79885 0.0
U1126 U 0.34511 0.52325 0.8128 0.0
O1127 O 0.32504 0.53636 0.80907 0.0
O1128 O 0.32288 0.51199 0.81059 0.0
C1129 C 0.31631 0.52437 0.80823 0.0
C1130 C 0.36799 0.51873 0.80383 0.0
C1131 C 0.30845 0.52314 0.80131 0.0
C1132 C 0.30914 0.51926 0.78851 0.0
C1133 C 0.31683 0.52026 0.79506 0.0
C1134 C 0.28463 0.524 0.7944 0.0
C1135 C 0.29293 0.52113 0.7881 0.0
C1136 C 0.29233 0.52499 0.80094 0.0
C1137 C 0.34303 0.52945 0.83307 0.0
C1138 C 0.3211 0.53958 0.83966 0.0
C1139 C 0.34269 0.52833 0.84598 0.0
C1140 C 0.35002 0.52531 0.83951 0.0
C1141 C 0.32819 0.53561 0.84615 0.0
C1142 C 0.32844 0.53648 0.83317 0.0
C1143 C 0.35142 0.52669 0.82638 0.0
O1144 O 0.36017 0.50773 0.80682 0.0
O1145 O 0.36205 0.53207 0.80513 0.0
O1146 O 0.35152 0.53782 0.82177 0.0
O1147 O 0.34915 0.51348 0.82342 0.0
H1148 H 0.38644 0.52824 0.81475 0.0
H1149 H 0.41481 0.52725 0.81537 0.0
H1150 H 0.41595 0.50532 0.79486 0.0
H1151 H 0.38764 0.5068 0.79421 0.0
H1152 H 0.31588 0.51688 0.78378 0.0
H1153 H 0.32931 0.51878 0.79525 0.0
H1154 H 0.27219 0.52573 0.79428 0.0
H1155 H 0.28568 0.52729 0.80571 0.0
H1156 H 0.30987 0.54505 0.8396 0.0
H1157 H 0.34858 0.52531 0.85087 0.0
H1158 H 0.36129 0.5199 0.83953 0.0
H1159 H 0.32281 0.5397 0.82825 0.0
C1160 C 0.24719 0.63719 0.55137 0.0
C1161 C 0.24668 0.64463 0.55795 0.0
C1162 C 0.24842 0.66891 0.55196 0.0
C1163 C 0.24732 0.66035 0.55824 0.0
C1164 C 0.24904 0.66134 0.54539 0.0
C1165 C 0.24843 0.64563 0.54511 0.0
U1166 U 0.24158 0.59904 0.56023 0.0
O1167 O 0.22786 0.57946 0.55681 0.0
O1168 O 0.25303 0.57733 0.55825 0.0
C1169 C 0.24016 0.57086 0.55608 0.0
C1170 C 0.24611 0.62071 0.55096 0.0
C1171 C 0.24121 0.56256 0.54932 0.0
C1172 C 0.24606 0.56165 0.53659 0.0
C1173 C 0.24526 0.5698 0.54296 0.0
C1174 C 0.23874 0.53898 0.5429 0.0
C1175 C 0.24275 0.54614 0.53648 0.0
C1176 C 0.23799 0.54713 0.54925 0.0
C1177 C 0.23526 0.59789 0.58048 0.0
C1178 C 0.22363 0.57744 0.58722 0.0
C1179 C 0.23712 0.59749 0.59338 0.0
C1180 C 0.24041 0.60435 0.58686 0.0
C1181 C 0.22854 0.58403 0.59365 0.0
C1182 C 0.22701 0.58428 0.58069 0.0
C1183 C 0.23819 0.60583 0.57374 0.0
O1184 O 0.25749 0.61324 0.554 0.0
O1185 O 0.23235 0.61509 0.55239 0.0
O1186 O 0.2267 0.60589 0.56914 0.0
O1187 O 0.25179 0.60343 0.57078 0.0
H1188 H 0.24565 0.63827 0.56284 0.0
H1189 H 0.24663 0.66581 0.56338 0.0
H1190 H 0.25011 0.66756 0.54046 0.0
H1191 H 0.24887 0.64007 0.53998 0.0
H1192 H 0.24902 0.56754 0.53173 0.0
H1193 H 0.24774 0.58175 0.54291 0.0
H1194 H 0.23634 0.52703 0.54304 0.0
H1195 H 0.23488 0.54135 0.55413 0.0
H1196 H 0.21717 0.56699 0.58725 0.0
H1197 H 0.24092 0.60295 0.59822 0.0
H1198 H 0.24677 0.61486 0.5868 0.0
H1199 H 0.22302 0.57905 0.57582 0.0
C1200 C 0.11858 0.48562 0.30431 0.0
C1201 C 0.11074 0.47578 0.30893 0.0
C1202 C 0.08588 0.4865 0.30539 0.0
C1203 C 0.09455 0.47616 0.30943 0.0
C1204 C 0.09379 0.49654 0.30089 0.0
C1205 C 0.10998 0.49605 0.30034 0.0
U1206 U 0.15916 0.48105 0.31218 0.0
O1207 O 0.17943 0.46856 0.30823 0.0
O1208 O 0.18093 0.49297 0.30976 0.0
C1209 C 0.18777 0.48079 0.30734 0.0
C1210 C 0.13562 0.48509 0.30353 0.0
C1211 C 0.19541 0.48227 0.30038 0.0
C1212 C 0.19429 0.48416 0.28748 0.0
C1213 C 0.18675 0.48307 0.29407 0.0
C1214 C 0.21919 0.48382 0.29347 0.0
C1215 C 0.21062 0.48451 0.28711 0.0
C1216 C 0.21164 0.4827 0.30004 0.0
C1217 C 0.16222 0.4746 0.33251 0.0
C1218 C 0.18009 0.46002 0.3398 0.0
C1219 C 0.16531 0.48031 0.34508 0.0
C1220 C 0.15847 0.4833 0.33848 0.0
C1221 C 0.176 0.46846 0.34586 0.0
C1222 C 0.17328 0.46307 0.33319 0.0
C1223 C 0.15367 0.47722 0.3258 0.0
O1224 O 0.14329 0.49628 0.30644 0.0
O1225 O 0.14217 0.47193 0.30461 0.0
O1226 O 0.15354 0.46617 0.32115 0.0
O1227 O 0.15538 0.49054 0.32287 0.0
H1228 H 0.11712 0.46773 0.31212 0.0
H1229 H 0.0888 0.46842 0.31302 0.0
H1230 H 0.08743 0.50455 0.29767 0.0
H1231 H 0.1158 0.50376 0.29675 0.0
H1232 H 0.18734 0.48484 0.2827 0.0
H1233 H 0.17419 0.48279 0.29424 0.0
H1234 H 0.23175 0.48385 0.29338 0.0
H1235 H 0.21851 0.48205 0.30486 0.0
H1236 H 0.18816 0.45073 0.34021 0.0
H1237 H 0.1621 0.48723 0.34958 0.0
H1238 H 0.15 0.49226 0.33808 0.0
H1239 H 0.1764 0.45617 0.32867 0.0
C1240 C 0.25688 0.36651 0.05096 0.0
C1241 C 0.25875 0.35891 0.05745 0.0
C1242 C 0.2554 0.33479 0.05147 0.0
C1243 C 0.25799 0.34319 0.0577 0.0
C1244 C 0.2534 0.34253 0.04499 0.0
C1245 C 0.25414 0.35824 0.04475 0.0
U1246 U 0.26378 0.40428 0.05991 0.0
O1247 O 0.27736 0.42386 0.05634 0.0
O1248 O 0.25239 0.42618 0.05838 0.0
C1249 C 0.26508 0.43258 0.05593 0.0
C1250 C 0.25807 0.38299 0.0506 0.0
C1251 C 0.26344 0.44114 0.04926 0.0
C1252 C 0.25438 0.44349 0.03706 0.0
C1253 C 0.25579 0.43508 0.04333 0.0
C1254 C 0.2684 0.46402 0.04257 0.0
C1255 C 0.26066 0.4581 0.0366 0.0
C1256 C 0.26975 0.45562 0.04883 0.0
C1257 C 0.2723 0.40415 0.08005 0.0
C1258 C 0.27145 0.42565 0.08804 0.0
C1259 C 0.28319 0.4023 0.09194 0.0
C1260 C 0.27989 0.39583 0.08534 0.0
C1261 C 0.27891 0.41725 0.09341 0.0
C1262 C 0.26819 0.41915 0.08142 0.0
C1263 C 0.26864 0.39678 0.07324 0.0
O1264 O 0.24709 0.39046 0.05392 0.0
O1265 O 0.27201 0.38846 0.05175 0.0
O1266 O 0.27968 0.39705 0.06843 0.0
O1267 O 0.25477 0.3994 0.0706 0.0
H1268 H 0.26093 0.36514 0.0623 0.0
H1269 H 0.25976 0.3376 0.06276 0.0
H1270 H 0.25117 0.33645 0.04011 0.0
H1271 H 0.25264 0.36393 0.0397 0.0
H1272 H 0.24822 0.43862 0.0326 0.0
H1273 H 0.25087 0.42387 0.04356 0.0
H1274 H 0.27364 0.47508 0.04239 0.0
H1275 H 0.27579 0.46045 0.05334 0.0
H1276 H 0.26789 0.43714 0.089 0.0
H1277 H 0.28922 0.39559 0.09587 0.0
H1278 H 0.28323 0.38426 0.08437 0.0
H1279 H 0.26235 0.42578 0.07739 0.0
H1280 H 0.28266 0.06863 0.22854 0.0
H1281 H 0.26867 0.06787 0.23986 0.0
H1282 H 0.27218 0.01949 0.2401 0.0
H1283 H 0.28604 0.02016 0.22872 0.0
H1284 H 0.24271 0.02946 0.24347 0.0
H1285 H 0.29501 0.03958 0.25074 0.0
H1286 H 0.32002 0.05305 0.25069 0.0
H1287 H 0.29705 0.09374 0.25704 0.0
H1288 H 0.27185 0.08056 0.25703 0.0
H1289 H 0.21814 0.02 0.27937 0.0
H1290 H 0.23249 0.01949 0.26815 0.0
H1291 H 0.23446 0.06798 0.26815 0.0
H1292 H 0.22031 0.06852 0.27942 0.0
H1293 H 0.26163 0.05715 0.26467 0.0
H1294 H 0.20933 0.04761 0.2571 0.0
H1295 H 0.18409 0.03454 0.257 0.0
H1296 H 0.20662 0.99336 0.25105 0.0
H1297 H 0.23203 0.00614 0.25121 0.0
C1298 C 0.2804 0.05782 0.23099 0.0
C1299 C 0.28547 0.04445 0.22773 0.0
C1300 C 0.2725 0.05741 0.23748 0.0
C1301 C 0.26948 0.04363 0.24086 0.0
C1302 C 0.27442 0.03025 0.2376 0.0
C1303 C 0.28243 0.03066 0.23113 0.0
C1304 C 0.26103 0.04321 0.24775 0.0
C1305 C 0.24695 0.03533 0.24814 0.0
C1306 C 0.26638 0.05116 0.25379 0.0
C1307 C 0.28152 0.05911 0.25382 0.0
C1308 C 0.29527 0.05143 0.25207 0.0
C1309 C 0.30949 0.05901 0.25206 0.0
C1310 C 0.31012 0.07425 0.25385 0.0
C1311 C 0.29654 0.08193 0.25565 0.0
C1312 C 0.28229 0.07441 0.25566 0.0
C1313 C 0.22151 0.03055 0.27694 0.0
C1314 C 0.21806 0.0443 0.28028 0.0
C1315 C 0.22971 0.03025 0.27052 0.0
C1316 C 0.23443 0.0437 0.26724 0.0
C1317 C 0.23099 0.05744 0.27057 0.0
C1318 C 0.22291 0.05774 0.27702 0.0
C1319 C 0.24319 0.0435 0.2604 0.0
C1320 C 0.25736 0.05126 0.26001 0.0
C1321 C 0.23787 0.0355 0.25435 0.0
C1322 C 0.2226 0.0278 0.25424 0.0
C1323 C 0.20892 0.03574 0.25583 0.0
C1324 C 0.19458 0.02839 0.25575 0.0
C1325 C 0.19375 0.01312 0.25404 0.0
C1326 C 0.20727 0.00518 0.25238 0.0
C1327 C 0.22165 0.01247 0.25246 0.0
H1328 H 0.18264 0.00745 0.25397 0.0
H1329 H 0.32114 0.08009 0.25384 0.0
H1330 H 0.26846 0.02747 0.47739 0.0
H1331 H 0.26902 0.01169 0.48805 0.0
H1332 H 0.22852 0.03454 0.4961 0.0
H1333 H 0.22792 0.05039 0.48547 0.0
H1334 H 0.2492 0.03035 0.50648 0.0
H1335 H 0.22615 0.99945 0.48829 0.0
H1336 H 0.22493 0.98695 0.4766 0.0
H1337 H 0.2665 0.96235 0.48144 0.0
H1338 H 0.26809 0.97487 0.49313 0.0
H1339 H 0.22523 0.97825 0.53267 0.0
H1340 H 0.22678 0.99415 0.5221 0.0
H1341 H 0.26743 0.96998 0.51516 0.0
H1342 H 0.26597 0.954 0.52575 0.0
H1343 H 0.24795 0.97477 0.50424 0.0
H1344 H 0.27057 0.00494 0.52257 0.0
H1345 H 0.27188 0.0174 0.53427 0.0
H1346 H 0.23134 0.04334 0.52917 0.0
H1347 H 0.22965 0.03088 0.51748 0.0
C1348 C 0.25964 0.02911 0.48142 0.0
C1349 C 0.24809 0.04016 0.48055 0.0
C1350 C 0.25997 0.02007 0.48751 0.0
C1351 C 0.24867 0.02176 0.49284 0.0
C1352 C 0.23736 0.03302 0.49207 0.0
C1353 C 0.23706 0.04211 0.48599 0.0
C1354 C 0.2485 0.0117 0.49918 0.0
C1355 C 0.24874 0.0182 0.50598 0.0
C1356 C 0.24832 0.99582 0.49856 0.0
C1357 C 0.24732 0.98821 0.49155 0.0
C1358 C 0.23509 0.99146 0.48684 0.0
C1359 C 0.23433 0.98436 0.48022 0.0
C1360 C 0.24565 0.97389 0.47827 0.0
C1361 C 0.25775 0.97048 0.48295 0.0
C1362 C 0.25858 0.97756 0.48958 0.0
C1363 C 0.23459 0.97638 0.52893 0.0
C1364 C 0.24555 0.96491 0.5301 0.0
C1365 C 0.23545 0.98548 0.52288 0.0
C1366 C 0.24737 0.98344 0.51788 0.0
C1367 C 0.25815 0.9718 0.51894 0.0
C1368 C 0.25727 0.96264 0.52499 0.0
C1369 C 0.24851 0.99342 0.51154 0.0
C1370 C 0.24846 0.98691 0.50474 0.0
C1371 C 0.24888 0.0093 0.51216 0.0
C1372 C 0.24991 0.01687 0.51917 0.0
C1373 C 0.26187 0.01322 0.52397 0.0
C1374 C 0.26269 0.0203 0.53059 0.0
C1375 C 0.25168 0.03113 0.53247 0.0
C1376 C 0.23985 0.03494 0.52772 0.0
C1377 C 0.23896 0.02788 0.52108 0.0
H1378 H 0.25234 0.0366 0.5376 0.0
H1379 H 0.24504 0.96841 0.47314 0.0
H1380 H 0.20103 0.97497 0.73334 0.0
H1381 H 0.21498 0.97515 0.74466 0.0
H1382 H 0.2533 0.95177 0.73489 0.0
H1383 H 0.23917 0.951 0.72363 0.0
H1384 H 0.24711 0.93995 0.74749 0.0
H1385 H 0.25472 0.98993 0.73847 0.0
H1386 H 0.24667 0.01457 0.73371 0.0
H1387 H 0.22073 0.02334 0.75276 0.0
H1388 H 0.22845 0.99865 0.75759 0.0
H1389 H 0.30257 0.95179 0.77478 0.0
H1390 H 0.28886 0.95236 0.7634 0.0
H1391 H 0.25038 0.97517 0.77334 0.0
H1392 H 0.26426 0.97514 0.78468 0.0
H1393 H 0.25664 0.98738 0.76067 0.0
H1394 H 0.24896 0.93737 0.76966 0.0
H1395 H 0.25704 0.91274 0.77442 0.0
H1396 H 0.28316 0.90407 0.75542 0.0
H1397 H 0.2754 0.92875 0.75057 0.0
C1398 C 0.21236 0.96974 0.73361 0.0
C1399 C 0.21898 0.96302 0.72754 0.0
C1400 C 0.22041 0.97 0.74007 0.0
C1401 C 0.2353 0.96366 0.74061 0.0
C1402 C 0.24186 0.95681 0.7346 0.0
C1403 C 0.23382 0.9565 0.72814 0.0
C1404 C 0.24399 0.96398 0.74746 0.0
C1405 C 0.24937 0.95035 0.75032 0.0
C1406 C 0.24666 0.9775 0.75125 0.0
C1407 C 0.24204 0.99238 0.74836 0.0
C1408 C 0.2472 0.99706 0.74162 0.0
C1409 C 0.24272 0.01105 0.73891 0.0
C1410 C 0.23316 0.0205 0.74292 0.0
C1411 C 0.22811 0.016 0.74966 0.0
C1412 C 0.23255 1.00202 0.75238 0.0
C1413 C 0.29127 0.95709 0.77454 0.0
C1414 C 0.2845 0.96335 0.78067 0.0
C1415 C 0.28337 0.95727 0.76804 0.0
C1416 C 0.26847 0.96361 0.76753 0.0
C1417 C 0.26182 0.97014 0.7736 0.0
C1418 C 0.26972 0.96999 0.7801 0.0
C1419 C 0.25978 0.96336 0.76069 0.0
C1420 C 0.25439 0.97699 0.75783 0.0
C1421 C 0.2571 0.94984 0.7569 0.0
C1422 C 0.26172 0.93497 0.75978 0.0
C1423 C 0.25652 0.93026 0.76652 0.0
C1424 C 0.26103 0.91628 0.76923 0.0
C1425 C 0.27064 0.90687 0.76523 0.0
C1426 C 0.27573 0.91139 0.75851 0.0
C1427 C 0.27127 0.92536 0.75577 0.0
H1428 H 0.27412 0.89605 0.76734 0.0
H1429 H 0.22971 0.03132 0.74082 0.0
H1430 H 0.23994 0.02296 0.03331 0.0
H1431 H 0.2394 0.00733 0.02263 0.0
H1432 H 0.27084 0.03799 0.01222 0.0
H1433 H 0.2715 0.05365 0.02291 0.0
H1434 H 0.24791 0.02937 1.00333 0.0
H1435 H 0.2837 0.0047 0.01913 0.0
H1436 H 0.29205 0.99307 0.03041 0.0
H1437 H 0.25606 0.95992 0.0285 0.0
H1438 H 0.24735 0.97148 0.01725 0.0
H1439 H 0.2734 0.98267 0.97516 0.0
H1440 H 0.2719 0.99835 0.98579 0.0
H1441 H 0.24068 0.96645 0.99547 0.0
H1442 H 0.24201 0.9507 0.9848 0.0
H1443 H 0.26252 0.97548 0.00477 0.0
H1444 H 0.22714 0.99959 0.98883 0.0
H1445 H 0.21863 0.01117 0.97757 0.0
H1446 H 0.25354 0.04532 0.97974 0.0
H1447 H 0.26241 0.03381 0.99097 0.0
C1448 C 0.24682 0.02635 0.02877 0.0
C1449 C 0.25586 0.03952 0.029 0.0
C1450 C 0.24647 0.0174 0.02265 0.0
C1451 C 0.25525 0.02136 0.01664 0.0
C1452 C 0.26397 0.0347 0.01678 0.0
C1453 C 0.2643 0.04367 0.0229 0.0
C1454 C 0.25549 0.0115 0.01024 0.0
C1455 C 0.25129 0.01764 1.00363 0.0
C1456 C 0.25951 0.99607 0.01065 0.0
C1457 C 0.26478 0.98905 0.01739 0.0
C1458 C 0.27749 0.995 0.02114 0.0
C1459 C 0.2823 0.98841 0.02752 0.0
C1460 C 0.27456 0.97579 0.03018 0.0
C1461 C 0.26203 0.9697 0.02644 0.0
C1462 C 0.25716 0.97627 0.02006 0.0
C1463 C 0.26606 0.97904 0.97951 0.0
C1464 C 0.25774 0.96545 0.97909 0.0
C1465 C 0.26524 0.98803 0.9856 0.0
C1466 C 0.25601 0.9837 0.9914 0.0
C1467 C 0.24787 0.97003 0.99106 0.0
C1468 C 0.24869 0.96102 0.98496 0.0
C1469 C 0.25503 0.99337 0.99785 0.0
C1470 C 0.25909 0.9872 0.00447 0.0
C1471 C 0.25087 0.00876 0.99745 0.0
C1472 C 0.24554 0.01575 0.99071 0.0
C1473 C 0.23309 0.0095 0.98688 0.0
C1474 C 0.22818 0.01606 0.98051 0.0
C1475 C 0.23557 0.02895 0.97793 0.0
C1476 C 0.24785 0.03532 0.98174 0.0
C1477 C 0.25281 0.02879 0.98811 0.0
H1478 H 0.23175 0.03402 0.973 0.0
H1479 H 0.2783 0.9707 0.03512 0.0
H1480 H 0.6995 0.95108 0.77505 0.0
H1481 H 0.71341 0.95183 0.76373 0.0
H1482 H 0.75297 0.97171 0.77418 0.0
H1483 H 0.73891 0.97154 0.78547 0.0
H1484 H 0.7477 0.98521 0.76172 0.0
H1485 H 0.75223 0.93416 0.76983 0.0
H1486 H 0.7426 0.90967 0.77412 0.0
H1487 H 0.71633 0.90401 0.7549 0.0
H1488 H 0.72564 0.92858 0.75053 0.0
H1489 H 0.80273 0.97198 0.73423 0.0
H1490 H 0.78875 0.972 0.74554 0.0
H1491 H 0.74922 0.95149 0.73535 0.0
H1492 H 0.76334 0.95083 0.7241 0.0
H1493 H 0.75458 0.9384 0.74773 0.0
H1494 H 0.75005 0.98942 0.7396 0.0
H1495 H 0.75961 0.01394 0.7353 0.0
H1496 H 0.78582 0.01968 0.75453 0.0
H1497 H 0.77658 0.99509 0.75891 0.0
C1498 C 0.71108 0.95579 0.77494 0.0
C1499 C 0.7181 0.96118 0.7812 0.0
C1500 C 0.7191 0.95607 0.76847 0.0
C1501 C 0.73435 0.96162 0.76812 0.0
C1502 C 0.74126 0.9673 0.77432 0.0
C1503 C 0.73324 0.96706 0.78079 0.0
C1504 C 0.74314 0.96141 0.7613 0.0
C1505 C 0.74938 0.97493 0.75871 0.0
C1506 C 0.74507 0.94808 0.75728 0.0
C1507 C 0.73952 0.93327 0.75988 0.0
C1508 C 0.74431 0.92774 0.76654 0.0
C1509 C 0.73893 0.91384 0.76898 0.0
C1510 C 0.72883 0.90531 0.7648 0.0
C1511 C 0.72414 0.91065 0.75814 0.0
C1512 C 0.72947 0.92455 0.75568 0.0
C1513 C 0.79112 0.96733 0.7344 0.0
C1514 C 0.78416 0.96146 0.72822 0.0
C1515 C 0.78306 0.96751 0.74087 0.0
C1516 C 0.76783 0.96194 0.74129 0.0
C1517 C 0.76093 0.95592 0.73516 0.0
C1518 C 0.76898 0.95569 0.7287 0.0
C1519 C 0.75912 0.9622 0.74813 0.0
C1520 C 0.7529 0.94868 0.75073 0.0
C1521 C 0.75721 0.97554 0.75216 0.0
C1522 C 0.76275 0.99035 0.74955 0.0
C1523 C 0.75795 0.99586 0.74289 0.0
C1524 C 0.76329 0.00978 0.74044 0.0
C1525 C 0.77335 0.01834 0.74463 0.0
C1526 C 0.77805 0.01302 0.75129 0.0
C1527 C 0.77275 0.9991 0.75376 0.0
H1528 H 0.77747 0.02911 0.74273 0.0
H1529 H 0.72468 0.89455 0.7667 0.0
H1530 H 0.76585 0.94723 0.5219 0.0
H1531 H 0.76456 0.96284 0.51121 0.0
H1532 H 0.74918 1.00049 0.52382 0.0
H1533 H 0.74985 0.98481 0.53449 0.0
H1534 H 0.73317 0.99912 0.5117 0.0
H1535 H 0.78709 0.99735 0.51821 0.0
H1536 H 0.81188 0.98505 0.52124 0.0
H1537 H 0.8125 0.96328 0.50086 0.0
H1538 H 0.7876 0.9753 0.49775 0.0
H1539 H 0.74853 0.05691 0.48643 0.0
H1540 H 0.74845 0.04094 0.49703 0.0
H1541 H 0.76444 0.00344 0.48446 0.0
H1542 H 0.76518 0.01946 0.47393 0.0
H1543 H 0.77995 0.00466 0.49655 0.0
H1544 H 0.72614 0.00665 0.48997 0.0
H1545 H 0.70134 0.01893 0.48695 0.0
H1546 H 0.70045 0.04028 0.50743 0.0
H1547 H 0.72537 0.02829 0.51053 0.0
C1548 C 0.76199 0.95877 0.52239 0.0
C1549 C 0.75806 0.96477 0.52908 0.0
C1550 C 0.76141 0.96774 0.51628 0.0
C1551 C 0.75701 0.98293 0.51671 0.0
C1552 C 0.7527 0.98884 0.52335 0.0
C1553 C 0.75324 0.97988 0.52946 0.0
C1554 C 0.75709 0.99273 0.51029 0.0
C1555 C 0.74346 1.00047 0.50844 0.0
C1556 C 0.7704 0.99429 0.50593 0.0
C1557 C 0.78541 0.98711 0.50778 0.0
C1558 C 0.79246 0.98985 0.5144 0.0
C1559 C 0.80654 0.98294 0.51613 0.0
C1560 C 0.81374 0.97336 0.51126 0.0
C1561 C 0.8069 0.97069 0.50464 0.0
C1562 C 0.79281 0.97756 0.50288 0.0
C1563 C 0.75216 0.0453 0.48593 0.0
C1564 C 0.7568 0.03949 0.4793 0.0
C1565 C 0.75194 0.03612 0.49198 0.0
C1566 C 0.75623 0.0209 0.49154 0.0
C1567 C 0.761 0.01512 0.48495 0.0
C1568 C 0.76127 0.02428 0.4789 0.0
C1569 C 0.75603 0.01104 0.49795 0.0
C1570 C 0.76965 0.0033 0.4998 0.0
C1571 C 0.74271 0.00949 0.5023 0.0
C1572 C 0.7277 0.01669 0.50045 0.0
C1573 C 0.72072 0.01406 0.49381 0.0
C1574 C 0.70663 0.02095 0.49208 0.0
C1575 C 0.69935 0.03041 0.49699 0.0
C1576 C 0.70612 0.03297 0.50363 0.0
C1577 C 0.72022 0.02612 0.50538 0.0
H1578 H 0.68843 0.03574 0.49564 0.0
H1579 H 0.82464 0.96802 0.5126 0.0
H1580 H 0.76619 0.05781 0.2838 0.0
H1581 H 0.75236 0.05687 0.27247 0.0
H1582 H 0.787 0.02671 0.26408 0.0
H1583 H 0.80087 0.02747 0.27544 0.0
H1584 H 0.77975 0.04836 0.25457 0.0
H1585 H 0.75169 0.01353 0.26913 0.0
H1586 H 0.73743 0.00504 0.27977 0.0
H1587 H 0.70281 0.03895 0.27622 0.0
H1588 H 0.71699 0.0478 0.26561 0.0
H1589 H 0.7371 0.02662 0.2239 0.0
H1590 H 0.75107 0.02625 0.23521 0.0
H1591 H 0.717 0.05611 0.24431 0.0
H1592 H 0.70298 0.05658 0.233 0.0
H1593 H 0.72418 0.03391 0.25343 0.0
H1594 H 0.75257 0.06907 0.23902 0.0
H1595 H 0.76685 0.07756 0.22839 0.0
H1596 H 0.80087 0.04296 0.23167 0.0
H1597 H 0.78666 0.03412 0.24227 0.0
C1598 C 0.77081 0.05085 0.27957 0.0
C1599 C 0.78461 0.04264 0.28056 0.0
C1600 C 0.76289 0.05035 0.27309 0.0
C1601 C 0.76852 0.04157 0.26745 0.0
C1602 C 0.78243 0.03356 0.26836 0.0
C1603 C 0.79037 0.03405 0.27485 0.0
C1604 C 0.75994 0.04085 0.26059 0.0
C1605 C 0.76766 0.04499 0.25431 0.0
C1606 C 0.74407 0.03675 0.26025 0.0
C1607 C 0.73549 0.03142 0.26661 0.0
C1608 C 0.7411 0.01926 0.27065 0.0
C1609 C 0.73303 0.01437 0.27667 0.0
C1610 C 0.71925 0.02147 0.27868 0.0
C1611 C 0.7135 0.03347 0.27466 0.0
C1612 C 0.72154 0.03842 0.26864 0.0
C1613 C 0.73263 0.0332 0.22829 0.0
C1614 C 0.71895 0.0417 0.22752 0.0
C1615 C 0.74062 0.03295 0.23476 0.0
C1616 C 0.73521 0.04131 0.2406 0.0
C1617 C 0.7214 0.04957 0.23989 0.0
C1618 C 0.71337 0.04979 0.23342 0.0
C1619 C 0.74396 0.0415 0.24742 0.0
C1620 C 0.73627 0.03726 0.25369 0.0
C1621 C 0.75986 0.0455 0.24775 0.0
C1622 C 0.76846 0.05084 0.2414 0.0
C1623 C 0.76303 0.0632 0.23744 0.0
C1624 C 0.77112 0.06809 0.23143 0.0
C1625 C 0.78474 0.06078 0.22935 0.0
C1626 C 0.79031 0.04859 0.23329 0.0
C1627 C 0.78225 0.04365 0.2393 0.0
H1628 H 0.79099 0.06458 0.22469 0.0
H1629 H 0.71301 0.01767 0.28334 0.0
H1630 H 0.76375 0.02361 0.03346 0.0
H1631 H 0.76399 0.00787 0.02281 0.0
H1632 H 0.73282 0.03878 0.01239 0.0
H1633 H 0.73213 0.05435 0.02311 0.0
H1634 H 0.72358 0.01035 0.01046 0.0
H1635 H 0.77155 0.03731 0.00809 0.0
H1636 H 0.79717 0.04667 0.01189 0.0
H1637 H 0.81349 1.0013 0.0142 0.0
H1638 H 0.78789 0.99166 0.01049 0.0
H1639 H 0.73076 0.98256 0.97538 0.0
H1640 H 0.73161 0.99825 0.98602 0.0
H1641 H 0.76262 0.96659 0.99602 0.0
H1642 H 0.76226 0.95104 0.98528 0.0
H1643 H 0.77213 0.99505 0.99827 0.0
H1644 H 0.72431 0.96807 1.00062 0.0
H1645 H 0.69872 0.95861 0.99682 0.0
H1646 H 0.68214 0.00391 0.99463 0.0
H1647 H 0.70771 0.01365 0.99832 0.0
C1648 C 0.75689 0.02704 0.02892 0.0
C1649 C 0.7479 0.04026 0.02916 0.0
C1650 C 0.75716 0.01809 0.0228 0.0
C1651 C 0.74854 0.02219 0.01676 0.0
C1652 C 0.73961 0.0354 0.01697 0.0
C1653 C 0.73933 0.04437 0.02309 0.0
C1654 C 0.74847 0.01249 0.01031 0.0
C1655 C 0.73419 0.00719 0.00774 0.0
C1656 C 0.76233 0.008 0.00686 0.0
C1657 C 0.77775 0.01376 0.00908 0.0
C1658 C 0.78056 0.02932 0.00946 0.0
C1659 C 0.79509 0.03468 0.01159 0.0
C1660 C 0.80694 0.02458 0.0133 0.0
C1661 C 0.8043 0.00911 0.01288 0.0
C1662 C 0.78978 0.00369 0.01076 0.0
C1663 C 0.73789 0.97897 0.97981 0.0
C1664 C 0.74646 0.96551 0.97945 0.0
C1665 C 0.73823 0.9879 0.98593 0.0
C1666 C 0.74703 0.98353 0.99187 0.0
C1667 C 0.7557 0.97017 0.99152 0.0
C1668 C 0.75537 0.96122 0.98539 0.0
C1669 C 0.74723 0.99298 0.9984 0.0
C1670 C 0.76153 0.99822 1.00099 0.0
C1671 C 0.73339 0.99741 1.00188 0.0
C1672 C 0.71797 0.99159 0.99968 0.0
C1673 C 0.71524 0.97602 0.99927 0.0
C1674 C 0.70073 0.9706 0.99715 0.0
C1675 C 0.68882 0.98066 0.99547 0.0
C1676 C 0.69138 0.99614 0.99592 0.0
C1677 C 0.70588 1.00161 0.99804 0.0
H1678 H 0.67759 0.97644 0.99383 0.0
H1679 H 0.81818 0.02875 0.01495 0.0
H1680 H 0.69885 0.52522 0.77411 0.0
H1681 H 0.71301 0.52404 0.76286 0.0
H1682 H 0.75574 0.51658 0.77426 0.0
H1683 H 0.74167 0.51746 0.78553 0.0
H1684 H 0.75904 0.53801 0.76408 0.0
H1685 H 0.73834 0.48801 0.76554 0.0
H1686 H 0.71785 0.46888 0.76693 0.0
H1687 H 0.69468 0.48576 0.74835 0.0
H1688 H 0.71493 0.50514 0.7469 0.0
H1689 H 0.80573 0.52007 0.73428 0.0
H1690 H 0.79181 0.51874 0.74557 0.0
H1691 H 0.74822 0.52283 0.73446 0.0
H1692 H 0.76199 0.52338 0.72312 0.0
H1693 H 0.74555 0.50271 0.74461 0.0
H1694 H 0.76544 0.55307 0.74327 0.0
H1695 H 0.78553 0.57259 0.74184 0.0
H1696 H 0.80967 0.55561 0.76014 0.0
H1697 H 0.78982 0.53586 0.76163 0.0
C1698 C 0.71123 0.52311 0.77424 0.0
C1699 C 0.71909 0.52145 0.78076 0.0
C1700 C 0.71932 0.52248 0.76779 0.0
C1701 C 0.73544 0.52013 0.76771 0.0
C1702 C 0.74332 0.51845 0.77419 0.0
C1703 C 0.73524 0.51903 0.78064 0.0
C1704 C 0.74415 0.51979 0.76088 0.0
C1705 C 0.75624 0.53015 0.75986 0.0
C1706 C 0.74025 0.50979 0.7553 0.0
C1707 C 0.72807 0.49812 0.75615 0.0
C1708 C 0.72881 0.48773 0.76178 0.0
C1709 C 0.71725 0.47682 0.76258 0.0
C1710 C 0.70495 0.47613 0.75774 0.0
C1711 C 0.70421 0.48632 0.75209 0.0
C1712 C 0.71573 0.49726 0.75128 0.0
C1713 C 0.79317 0.52048 0.73421 0.0
C1714 C 0.78502 0.52193 0.72776 0.0
C1715 C 0.78522 0.5199 0.7407 0.0
C1716 C 0.76895 0.52095 0.7409 0.0
C1717 C 0.76077 0.52209 0.73446 0.0
C1718 C 0.7687 0.52257 0.72797 0.0
C1719 C 0.76045 0.52097 0.7478 0.0
C1720 C 0.74839 0.51056 0.74883 0.0
C1721 C 0.76431 0.53099 0.75338 0.0
C1722 C 0.77623 0.54289 0.75251 0.0
C1723 C 0.7751 0.55343 0.74696 0.0
C1724 C 0.78643 0.56455 0.74614 0.0
C1725 C 0.79889 0.56531 0.75088 0.0
C1726 C 0.80002 0.55499 0.75646 0.0
C1727 C 0.78873 0.54384 0.7573 0.0
H1728 H 0.80765 0.57393 0.75024 0.0
H1729 H 0.69602 0.46768 0.75836 0.0
H1730 H 0.76371 0.54914 0.9826 0.0
H1731 H 0.76467 0.53438 0.99359 0.0
H1732 H 0.72444 0.50931 0.98683 0.0
H1733 H 0.72312 0.52429 0.97595 0.0
H1734 H 0.72199 0.51704 1.00051 0.0
H1735 H 0.76101 0.49436 0.98574 0.0
H1736 H 0.78442 0.49396 0.9782 0.0
H1737 H 0.81179 0.51033 0.99564 0.0
H1738 H 0.78849 0.51103 1.00326 0.0
H1739 H 0.72615 0.45591 0.02454 0.0
H1740 H 0.72643 0.47099 0.01366 0.0
H1741 H 0.766 0.49568 0.02146 0.0
H1742 H 0.76602 0.48038 0.0323 0.0
H1743 H 0.76923 0.4887 0.00745 0.0
H1744 H 0.73035 0.51102 0.02228 0.0
H1745 H 0.70699 0.51138 0.02984 0.0
H1746 H 0.67938 0.49575 0.01233 0.0
H1747 H 0.70264 0.49509 0.00468 0.0
C1748 C 0.75498 0.54057 0.98348 0.0
C1749 C 0.74338 0.53786 0.97837 0.0
C1750 C 0.75564 0.53204 0.98973 0.0
C1751 C 0.74473 0.52059 0.991 0.0
C1752 C 0.73302 0.51803 0.98596 0.0
C1753 C 0.73236 0.52653 0.97971 0.0
C1754 C 0.74542 0.51133 0.99759 0.0
C1755 C 0.73226 0.5107 1.00198 0.0
C1756 C 0.75895 0.50334 0.99961 0.0
C1757 C 0.77298 0.5029 0.99505 0.0
C1758 C 0.772 0.49799 0.98795 0.0
C1759 C 0.78525 0.49769 0.98366 0.0
C1760 C 0.79958 0.50216 0.98643 0.0
C1761 C 0.80069 0.5069 0.9935 0.0
C1762 C 0.78746 0.50724 0.99781 0.0
C1763 C 0.73503 0.46442 0.02391 0.0
C1764 C 0.74602 0.46697 0.02931 0.0
C1765 C 0.73509 0.47313 0.01771 0.0
C1766 C 0.74611 0.48461 0.01678 0.0
C1767 C 0.75734 0.48694 0.02208 0.0
C1768 C 0.75726 0.47826 0.02829 0.0
C1769 C 0.74575 0.49432 0.01034 0.0
C1770 C 0.75897 0.49506 0.00599 0.0
C1771 C 0.73228 0.50242 0.00835 0.0
C1772 C 0.71827 0.50286 0.01292 0.0
C1773 C 0.71932 0.50754 0.02005 0.0
C1774 C 0.70609 0.50782 0.02435 0.0
C1775 C 0.69172 0.50355 0.02157 0.0
C1776 C 0.69053 0.49903 0.01448 0.0
C1777 C 0.70373 0.49872 0.01015 0.0
H1778 H 0.68149 0.50378 0.02491 0.0
H1779 H 0.80983 0.50191 0.98311 0.0
H1780 H 0.80063 0.4974 0.27616 0.0
H1781 H 0.78659 0.49792 0.26486 0.0
H1782 H 0.75158 0.46865 0.27364 0.0
H1783 H 0.76582 0.46762 0.28486 0.0
H1784 H 0.75922 0.4598 0.26062 0.0
H1785 H 0.74532 0.50671 0.27155 0.0
H1786 H 0.75018 0.53124 0.27725 0.0
H1787 H 0.77437 0.5464 0.25861 0.0
H1788 H 0.76984 0.52188 0.25284 0.0
H1789 H 0.70175 0.46927 0.23409 0.0
H1790 H 0.7156 0.46991 0.24543 0.0
H1791 H 0.75068 0.49839 0.23614 0.0
H1792 H 0.73663 0.49821 0.22483 0.0
H1793 H 0.74322 0.50781 0.24933 0.0
H1794 H 0.75712 0.46095 0.23842 0.0
H1795 H 0.75223 0.43646 0.2327 0.0
H1796 H 0.72806 0.42124 0.25133 0.0
H1797 H 0.73262 0.44573 0.25712 0.0
C1798 C 0.79002 0.49096 0.27567 0.0
C1799 C 0.78434 0.48251 0.28145 0.0
C1800 C 0.78191 0.4914 0.26922 0.0
C1801 C 0.7679 0.48348 0.26842 0.0
C1802 C 0.76232 0.47491 0.27414 0.0
C1803 C 0.77041 0.47445 0.28058 0.0
C1804 C 0.75915 0.48394 0.26159 0.0
C1805 C 0.75554 0.4703 0.25821 0.0
C1806 C 0.75466 0.49764 0.25833 0.0
C1807 C 0.75738 0.5124 0.26179 0.0
C1808 C 0.75179 0.51523 0.26869 0.0
C1809 C 0.75446 0.52914 0.27193 0.0
C1810 C 0.76262 0.54035 0.2683 0.0
C1811 C 0.76808 0.53769 0.26142 0.0
C1812 C 0.76545 0.5238 0.25816 0.0
C1813 C 0.7123 0.47585 0.23448 0.0
C1814 C 0.71811 0.48363 0.22853 0.0
C1815 C 0.72029 0.47608 0.24095 0.0
C1816 C 0.73431 0.48402 0.24162 0.0
C1817 C 0.73993 0.49212 0.23575 0.0
C1818 C 0.73195 0.4919 0.22927 0.0
C1819 C 0.74324 0.48368 0.2484 0.0
C1820 C 0.7469 0.49733 0.25176 0.0
C1821 C 0.74778 0.46999 0.25164 0.0
C1822 C 0.74508 0.45523 0.24818 0.0
C1823 C 0.75066 0.45243 0.24127 0.0
C1824 C 0.74796 0.43854 0.23802 0.0
C1825 C 0.7398 0.42732 0.24164 0.0
C1826 C 0.73436 0.42995 0.24853 0.0
C1827 C 0.73701 0.44383 0.2518 0.0
H1828 H 0.73773 0.41657 0.23911 0.0
H1829 H 0.76468 0.55111 0.27082 0.0
H1830 H 0.74211 0.48475 0.47521 0.0
H1831 H 0.74122 0.49948 0.48618 0.0
H1832 H 0.76967 0.46632 0.49668 0.0
H1833 H 0.77069 0.45155 0.48572 0.0
H1834 H 0.74627 0.47549 0.5052 0.0
H1835 H 0.78521 0.49925 0.49073 0.0
H1836 H 0.79554 0.51124 0.47989 0.0
H1837 H 0.76144 0.54627 0.48158 0.0
H1838 H 0.75076 0.53436 0.49238 0.0
H1839 H 0.77151 0.51857 0.53473 0.0
H1840 H 0.77016 0.50375 0.52382 0.0
H1841 H 0.74182 0.538 0.51407 0.0
H1842 H 0.74297 0.55287 0.52501 0.0
H1843 H 0.76422 0.52852 0.50511 0.0
H1844 H 0.72573 0.50527 0.51977 0.0
H1845 H 0.71531 0.49332 0.5306 0.0
H1846 H 0.74833 0.45742 0.52857 0.0
H1847 H 0.7591 0.46927 0.51778 0.0
C1848 C 0.74825 0.48062 0.47984 0.0
C1849 C 0.75657 0.46701 0.47956 0.0
C1850 C 0.7477 0.48904 0.48611 0.0
C1851 C 0.75555 0.48412 0.49223 0.0
C1852 C 0.76352 0.47035 0.49203 0.0
C1853 C 0.76406 0.4619 0.48576 0.0
C1854 C 0.75566 0.49343 0.49881 0.0
C1855 C 0.75037 0.48703 0.5052 0.0
C1856 C 0.76064 0.50861 0.49879 0.0
C1857 C 0.76709 0.51583 0.49232 0.0
C1858 C 0.77984 0.50945 0.48876 0.0
C1859 C 0.78577 0.51624 0.48263 0.0
C1860 C 0.77912 0.52949 0.48003 0.0
C1861 C 0.76656 0.536 0.48358 0.0
C1862 C 0.76057 0.52924 0.48971 0.0
C1863 C 0.76482 0.5229 0.5303 0.0
C1864 C 0.75726 0.5369 0.53078 0.0
C1865 C 0.76409 0.51441 0.52405 0.0
C1866 C 0.75573 0.51966 0.51814 0.0
C1867 C 0.74834 0.53371 0.51856 0.0
C1868 C 0.74906 0.54222 0.52481 0.0
C1869 C 0.7549 0.51057 0.51151 0.0
C1870 C 0.76006 0.517 0.50511 0.0
C1871 C 0.74979 0.49542 0.51152 0.0
C1872 C 0.74332 0.48824 0.518 0.0
C1873 C 0.73085 0.49489 0.52167 0.0
C1874 C 0.72487 0.48812 0.52779 0.0
C1875 C 0.73118 0.47464 0.53028 0.0
C1876 C 0.74347 0.46787 0.52664 0.0
C1877 C 0.74951 0.4746 0.52051 0.0
H1878 H 0.72653 0.46941 0.53502 0.0
H1879 H 0.78373 0.53473 0.47529 0.0
H1880 H 0.30029 0.49987 0.23207 0.0
H1881 H 0.28636 0.50081 0.2434 0.0
H1882 H 0.25302 0.46881 0.23543 0.0
H1883 H 0.26692 0.46772 0.22412 0.0
H1884 H 0.23874 0.49158 0.24219 0.0
H1885 H 0.2814 0.45824 0.24711 0.0
H1886 H 0.30892 0.45073 0.24768 0.0
H1887 H 0.31844 0.48737 0.26189 0.0
H1888 H 0.291 0.49522 0.26133 0.0
H1889 H 0.20341 0.46972 0.27474 0.0
H1890 H 0.21725 0.47054 0.2634 0.0
H1891 H 0.25016 0.50188 0.27229 0.0
H1892 H 0.23635 0.50115 0.28365 0.0
H1893 H 0.26484 0.48035 0.2651 0.0
H1894 H 0.22221 0.51341 0.26049 0.0
H1895 H 0.19476 0.52114 0.25993 0.0
H1896 H 0.18521 0.48548 0.24518 0.0
H1897 H 0.21258 0.4774 0.24572 0.0
C1898 C 0.29008 0.49292 0.23275 0.0
C1899 C 0.28475 0.48371 0.22717 0.0
C1900 C 0.2821 0.49349 0.23923 0.0
C1901 C 0.26869 0.48479 0.2403 0.0
C1902 C 0.26329 0.47567 0.23473 0.0
C1903 C 0.27125 0.47509 0.22825 0.0
C1904 C 0.26023 0.48518 0.2472 0.0
C1905 C 0.2444 0.48895 0.24719 0.0
C1906 C 0.26769 0.48214 0.25375 0.0
C1907 C 0.28418 0.47741 0.25411 0.0
C1908 C 0.28939 0.46476 0.25031 0.0
C1909 C 0.30497 0.46043 0.25064 0.0
C1910 C 0.31543 0.46859 0.2548 0.0
C1911 C 0.31033 0.48107 0.25866 0.0
C1912 C 0.29476 0.48546 0.25834 0.0
C1913 C 0.21346 0.47695 0.27426 0.0
C1914 C 0.21874 0.48538 0.28011 0.0
C1915 C 0.22139 0.47739 0.26777 0.0
C1916 C 0.23469 0.48638 0.26696 0.0
C1917 C 0.23996 0.49484 0.27279 0.0
C1918 C 0.23206 0.49437 0.27928 0.0
C1919 C 0.24331 0.48668 0.2601 0.0
C1920 C 0.25917 0.48304 0.26011 0.0
C1921 C 0.23588 0.48988 0.25355 0.0
C1922 C 0.21942 0.49471 0.2532 0.0
C1923 C 0.21423 0.50714 0.25717 0.0
C1924 C 0.19869 0.5116 0.25685 0.0
C1925 C 0.18824 0.50378 0.25254 0.0
C1926 C 0.19332 0.49151 0.24852 0.0
C1927 C 0.20885 0.487 0.24883 0.0
H1928 H 0.17621 0.50725 0.25229 0.0
H1929 H 0.32749 0.46522 0.25505 0.0
H1930 H 0.25763 0.55658 0.98576 0.0
H1931 H 0.25603 0.54179 0.99668 0.0
H1932 H 0.26042 0.50091 0.9845 0.0
H1933 H 0.26123 0.51557 0.97353 0.0
H1934 H 0.23953 0.49715 0.99455 0.0
H1935 H 0.29152 0.51654 0.99375 0.0
H1936 H 0.31166 0.53616 0.99285 0.0
H1937 H 0.29408 0.55733 0.01172 0.0
H1938 H 0.27369 0.53794 0.01268 0.0
H1939 H 0.26306 0.44837 0.02277 0.0
H1940 H 0.26156 0.46342 0.0119 0.0
H1941 H 0.25398 0.50336 0.02442 0.0
H1942 H 0.25518 0.48838 0.03531 0.0
H1943 H 0.27598 0.50783 0.01434 0.0
H1944 H 0.22442 0.48757 0.01527 0.0
H1945 H 0.20468 0.46758 0.01612 0.0
H1946 H 0.22201 0.44751 0.99694 0.0
H1947 H 0.24201 0.46727 0.99602 0.0
C1948 C 0.25804 0.54444 0.98538 0.0
C1949 C 0.25967 0.53731 0.97874 0.0
C1950 C 0.2573 0.53598 0.99165 0.0
C1951 C 0.25838 0.52022 0.99145 0.0
C1952 C 0.25965 0.51306 0.98482 0.0
C1953 C 0.26029 0.52149 0.97854 0.0
C1954 C 0.25836 0.51118 0.99812 0.0
C1955 C 0.24763 0.49938 0.99884 0.0
C1956 C 0.26871 0.51424 1.0038 0.0
C1957 C 0.28099 0.52588 1.00325 0.0
C1958 C 0.29188 0.52544 0.99768 0.0
C1959 C 0.30335 0.53651 0.99716 0.0
C1960 C 0.30412 0.548 1.00222 0.0
C1961 C 0.29345 0.54843 0.00781 0.0
C1962 C 0.28194 0.5374 0.00834 0.0
C1963 C 0.26083 0.46032 0.02322 0.0
C1964 C 0.25927 0.46714 0.02994 0.0
C1965 C 0.26003 0.46892 0.01699 0.0
C1966 C 0.25758 0.48452 0.01734 0.0
C1967 C 0.25594 0.49136 0.02402 0.0
C1968 C 0.2567 0.48276 0.03025 0.0
C1969 C 0.25718 0.4938 0.01075 0.0
C1970 C 0.26786 0.50563 0.01005 0.0
C1971 C 0.24685 0.49071 0.00508 0.0
C1972 C 0.23482 0.47882 0.00562 0.0
C1973 C 0.22411 0.47882 0.01126 0.0
C1974 C 0.21286 0.46755 0.01175 0.0
C1975 C 0.21212 0.45626 0.0066 0.0
C1976 C 0.22261 0.45625 1.00093 0.0
C1977 C 0.2339 0.46749 1.00042 0.0
H1978 H 0.2034 0.44754 0.00698 0.0
H1979 H 0.31301 0.55656 1.00181 0.0
H1980 H 0.20152 0.50852 0.73354 0.0
H1981 H 0.21531 0.50777 0.74491 0.0
H1982 H 0.253 0.53311 0.73574 0.0
H1983 H 0.23923 0.53407 0.72439 0.0
H1984 H 0.26371 0.50978 0.74354 0.0
H1985 H 0.22687 0.54984 0.74671 0.0
H1986 H 0.20086 0.56143 0.74678 0.0
H1987 H 0.18574 0.52964 0.76252 0.0
H1988 H 0.2116 0.51773 0.76247 0.0
H1989 H 0.30221 0.53251 0.77521 0.0
H1990 H 0.28833 0.53159 0.76388 0.0
H1991 H 0.25102 0.50709 0.77387 0.0
H1992 H 0.26487 0.50787 0.78521 0.0
H1993 H 0.23984 0.52921 0.76571 0.0
H1994 H 0.2767 0.48946 0.76281 0.0
H1995 H 0.3026 0.47768 0.76275 0.0
H1996 H 0.3176 0.50844 0.74654 0.0
H1997 H 0.29184 0.52056 0.74658 0.0
C1998 C 0.21267 0.51407 0.73396 0.0
C1999 C 0.21923 0.52138 0.72803 0.0
C2000 C 0.22057 0.51359 0.74046 0.0
C2001 C 0.23515 0.52048 0.7412 0.0
C2002 C 0.24179 0.52766 0.73529 0.0
C2003 C 0.23391 0.52816 0.72879 0.0
C2004 C 0.24352 0.52023 0.74812 0.0
C2005 C 0.25857 0.51419 0.74837 0.0
C2006 C 0.23666 0.52563 0.75447 0.0
C2007 C 0.22112 0.5328 0.75453 0.0
C2008 C 0.21796 0.54525 0.75014 0.0
C2009 C 0.20325 0.55189 0.75019 0.0
C2010 C 0.19164 0.54625 0.75464 0.0
C2011 C 0.19473 0.53398 0.75907 0.0
C2012 C 0.20942 0.52729 0.75904 0.0
C2013 C 0.29115 0.52674 0.77499 0.0
C2014 C 0.28468 0.52025 0.78114 0.0
C2015 C 0.2832 0.52625 0.7685 0.0
C2016 C 0.26867 0.51916 0.768 0.0
C2017 C 0.26219 0.51266 0.77412 0.0
C2018 C 0.27012 0.51316 0.78061 0.0
C2019 C 0.26008 0.51881 0.76113 0.0
C2020 C 0.24498 0.52474 0.76089 0.0
C2021 C 0.26688 0.51328 0.75479 0.0
C2022 C 0.28238 0.50602 0.75475 0.0
C2023 C 0.28556 0.4938 0.75928 0.0
C2024 C 0.30021 0.48704 0.75924 0.0
C2025 C 0.31175 0.49233 0.75466 0.0
C2026 C 0.30865 0.50437 0.7501 0.0
C2027 C 0.29403 0.51118 0.75012 0.0
H2028 H 0.32308 0.48708 0.75464 0.0
H2029 H 0.18026 0.5514 0.75467 0.0
H2030 H 0.26734 0.47857 0.47636 0.0
H2031 H 0.26723 0.49374 0.48721 0.0
H2032 H 0.22597 0.47079 0.49434 0.0
H2033 H 0.2258 0.45582 0.48342 0.0
H2034 H 0.22339 0.50091 0.49596 0.0
H2035 H 0.2611 0.46299 0.50166 0.0
H2036 H 0.28466 0.44774 0.49983 0.0
H2037 H 0.31263 0.48771 0.5001 0.0
H2038 H 0.28919 0.50323 0.50183 0.0
H2039 H 0.22251 0.52448 0.53188 0.0
H2040 H 0.22379 0.5097 0.52095 0.0
H2041 H 0.26532 0.53336 0.51474 0.0
H2042 H 0.26437 0.54794 0.52579 0.0
H2043 H 0.26823 0.50349 0.51247 0.0
H2044 H 0.23083 0.54141 0.50692 0.0
H2045 H 0.20739 0.55686 0.50871 0.0
H2046 H 0.17899 0.51721 0.50803 0.0
H2047 H 0.20229 0.50149 0.50634 0.0
C2048 C 0.25822 0.47677 0.48023 0.0
C2049 C 0.24658 0.46596 0.47902 0.0
C2050 C 0.25824 0.48537 0.48646 0.0
C2051 C 0.24665 0.48333 0.49162 0.0
C2052 C 0.23504 0.47254 0.49044 0.0
C2053 C 0.23504 0.4639 0.48422 0.0
C2054 C 0.2464 0.4927 0.49817 0.0
C2055 C 0.23311 0.50131 0.49962 0.0
C2056 C 0.25926 0.49359 0.50285 0.0
C2057 C 0.27337 0.48428 0.5018 0.0
C2058 C 0.27226 0.46854 0.50127 0.0
C2059 C 0.28559 0.45985 0.50026 0.0
C2060 C 0.30013 0.46676 0.49983 0.0
C2061 C 0.30136 0.48237 0.50042 0.0
C2062 C 0.28805 0.49112 0.50142 0.0
C2063 C 0.23199 0.52649 0.52822 0.0
C2064 C 0.24335 0.53741 0.52972 0.0
C2065 C 0.23262 0.51811 0.52194 0.0
C2066 C 0.24456 0.52051 0.51698 0.0
C2067 C 0.25597 0.53134 0.51847 0.0
C2068 C 0.25534 0.53975 0.52476 0.0
C2069 C 0.24516 0.5116 0.51029 0.0
C2070 C 0.25851 0.5031 0.50881 0.0
C2071 C 0.23237 0.51084 0.50557 0.0
C2072 C 0.21833 0.52026 0.50657 0.0
C2073 C 0.2196 0.53597 0.50721 0.0
C2074 C 0.20633 0.54478 0.5082 0.0
C2075 C 0.19171 0.53802 0.5085 0.0
C2076 C 0.19032 0.52243 0.5078 0.0
C2077 C 0.20356 0.51357 0.50683 0.0
H2078 H 0.18146 0.54486 0.50926 0.0
H2079 H 0.31044 0.46001 0.49905 0.0
H2080 H 0.19546 0.08204 0.41149 0.0
H2081 H 0.18887 0.07385 0.39946 0.0
H2082 H 0.23736 0.07421 0.39377 0.0
H2083 H 0.24402 0.08278 0.40578 0.0
H2084 H 0.21992 0.08804 0.38379 0.0
H2085 H 0.21853 0.04114 0.39607 0.0
H2086 H 0.21117 0.02333 0.40553 0.0
H2087 H 0.16313 0.02824 0.39992 0.0
H2088 H 0.17017 0.04626 0.39048 0.0
H2089 H 0.20423 0.05357 0.35008 0.0
H2090 H 0.21461 0.0586 0.36198 0.0
H2091 H 0.16808 0.05964 0.37042 0.0
H2092 H 0.15765 0.05477 0.35858 0.0
H2093 H 0.18698 0.04349 0.37886 0.0
H2094 H 0.18835 0.09193 0.36729 0.0
H2095 H 0.19567 0.10991 0.35788 0.0
H2096 H 0.24391 0.10201 0.36223 0.0
H2097 H 0.23687 0.08381 0.3716 0.0
C2098 C 0.20473 0.08038 0.40768 0.0
C2099 C 0.22027 0.08308 0.40959 0.0
C2100 C 0.20096 0.07556 0.40082 0.0
C2101 C 0.21263 0.07328 0.39573 0.0
C2102 C 0.22817 0.07584 0.39762 0.0
C2103 C 0.23196 0.08062 0.4045 0.0
C2104 C 0.20848 0.06878 0.38835 0.0
C2105 C 0.21297 0.07814 0.3827 0.0
C2106 C 0.19917 0.05601 0.38693 0.0
C2107 C 0.19488 0.04516 0.3926 0.0
C2108 C 0.20638 0.03852 0.39689 0.0
C2109 C 0.20227 0.02837 0.40224 0.0
C2110 C 0.18669 0.02468 0.40334 0.0
C2111 C 0.17519 0.03112 0.39907 0.0
C2112 C 0.17924 0.04129 0.39371 0.0
C2113 C 0.19621 0.05498 0.35446 0.0
C2114 C 0.1801 0.05373 0.35337 0.0
C2115 C 0.20216 0.05782 0.36126 0.0
C2116 C 0.19212 0.05957 0.36709 0.0
C2117 C 0.17607 0.05823 0.36602 0.0
C2118 C 0.17012 0.0554 0.35924 0.0
C2119 C 0.1982 0.06289 0.37432 0.0
C2120 C 0.19408 0.0533 0.37995 0.0
C2121 C 0.20784 0.07545 0.37572 0.0
C2122 C 0.21208 0.08638 0.37009 0.0
C2123 C 0.20052 0.09393 0.3662 0.0
C2124 C 0.20461 0.10418 0.36088 0.0
C2125 C 0.22024 0.10707 0.35944 0.0
C2126 C 0.23181 0.09974 0.36334 0.0
C2127 C 0.22777 0.08946 0.36865 0.0
H2128 H 0.22339 0.11501 0.35532 0.0
H2129 H 0.18353 0.01682 0.40749 0.0
H2130 H 0.20848 0.93236 0.59681 0.0
H2131 H 0.20124 0.94108 0.60869 0.0
H2132 H 0.23749 0.91382 0.61786 0.0
H2133 H 0.24491 0.90518 0.60601 0.0
H2134 H 0.21036 0.90952 0.62459 0.0
H2135 H 0.24071 0.95195 0.61733 0.0
H2136 H 0.2487 0.97273 0.60946 0.0
H2137 H 0.20358 0.99277 0.61147 0.0
H2138 H 0.19524 0.97199 0.61928 0.0
H2139 H 0.20064 0.93615 0.65975 0.0
H2140 H 0.2124 0.93092 0.64818 0.0
H2141 H 0.17773 0.95843 0.63795 0.0
H2142 H 0.16629 0.96419 0.64952 0.0
H2143 H 0.2054 0.96288 0.63193 0.0
H2144 H 0.1745 0.91999 0.63845 0.0
H2145 H 0.16599 0.89912 0.64616 0.0
H2146 H 0.21165 0.87987 0.64531 0.0
H2147 H 0.2205 0.90075 0.63766 0.0
C2148 C 0.21511 0.92844 0.60134 0.0
C2149 C 0.22724 0.91801 0.60045 0.0
C2150 C 0.21093 0.93341 0.60814 0.0
C2151 C 0.21886 0.92815 0.61418 0.0
C2152 C 0.23117 0.91799 0.61329 0.0
C2153 C 0.23536 0.91302 0.6065 0.0
C2154 C 0.21378 0.93258 0.62144 0.0
C2155 C 0.20954 0.92119 0.62623 0.0
C2156 C 0.21232 0.9478 0.62353 0.0
C2157 C 0.21731 0.96033 0.61884 0.0
C2158 C 0.23245 0.96072 0.61605 0.0
C2159 C 0.23704 0.97251 0.6116 0.0
C2160 C 0.22664 0.98404 0.60995 0.0
C2161 C 0.21162 0.98382 0.61275 0.0
C2162 C 0.20696 0.97205 0.61719 0.0
C2163 C 0.19567 0.9413 0.65506 0.0
C2164 C 0.18242 0.95048 0.65557 0.0
C2165 C 0.20232 0.93819 0.64843 0.0
C2166 C 0.19579 0.94408 0.64217 0.0
C2167 C 0.18292 0.95369 0.64269 0.0
C2168 C 0.1763 0.95685 0.64931 0.0
C2169 C 0.20197 0.93982 0.63507 0.0
C2170 C 0.20635 0.95122 0.6303 0.0
C2171 C 0.2035 0.92459 0.63297 0.0
C2172 C 0.1982 0.91201 0.63755 0.0
C2173 C 0.18276 0.91137 0.63995 0.0
C2174 C 0.17787 0.89953 0.6443 0.0
C2175 C 0.18828 0.8882 0.64624 0.0
C2176 C 0.2036 0.88867 0.64381 0.0
C2177 C 0.20856 0.90049 0.63947 0.0
H2178 H 0.18447 0.87904 0.64961 0.0
H2179 H 0.23022 0.99317 0.60651 0.0
H2180 H 0.26946 0.89746 0.90328 0.0
H2181 H 0.27659 0.9059 0.89137 0.0
H2182 H 0.29779 0.94561 0.90024 0.0
H2183 H 0.29085 0.93713 0.91224 0.0
H2184 H 0.281 0.95174 0.88797 0.0
H2185 H 0.32025 0.91698 0.89557 0.0
H2186 H 0.3302 0.89304 0.90036 0.0
H2187 H 0.30989 0.86916 0.88283 0.0
H2188 H 0.29961 0.89296 0.87799 0.0
H2189 H 0.32834 0.97047 0.85808 0.0
H2190 H 0.3179 0.9643 0.86981 0.0
H2191 H 0.29901 0.92299 0.86147 0.0
H2192 H 0.30983 0.92887 0.84977 0.0
H2193 H 0.31436 0.91802 0.87354 0.0
H2194 H 0.27552 0.95282 0.86575 0.0
H2195 H 0.26542 0.97673 0.86099 0.0
H2196 H 0.28483 1.00053 0.87875 0.0
H2197 H 0.29524 0.97678 0.88358 0.0
C2198 C 0.27569 0.90797 0.90272 0.0
C2199 C 0.27977 0.91651 0.90873 0.0
C2200 C 0.2797 0.91281 0.89589 0.0
C2201 C 0.28792 0.92627 0.89492 0.0
C2202 C 0.29146 0.93516 0.90088 0.0
C2203 C 0.28746 0.93031 0.90773 0.0
C2204 C 0.29333 0.93069 0.88772 0.0
C2205 C 0.28845 0.94447 0.88484 0.0
C2206 C 0.30279 0.92106 0.88358 0.0
C2207 C 0.30903 0.90674 0.88646 0.0
C2208 C 0.3178 0.90661 0.89277 0.0
C2209 C 0.32352 0.89307 0.89549 0.0
C2210 C 0.32064 0.87958 0.89191 0.0
C2211 C 0.31209 0.87962 0.8856 0.0
C2212 C 0.30632 0.89313 0.88286 0.0
C2213 C 0.32195 0.96007 0.85873 0.0
C2214 C 0.31997 0.95014 0.85298 0.0
C2215 C 0.31585 0.95663 0.86543 0.0
C2216 C 0.30756 0.94323 0.86652 0.0
C2217 C 0.30533 0.93342 0.86076 0.0
C2218 C 0.31142 0.93685 0.85405 0.0
C2219 C 0.30195 0.93905 0.87374 0.0
C2220 C 0.30686 0.9253 0.87664 0.0
C2221 C 0.29253 0.94873 0.87788 0.0
C2222 C 0.28629 0.96303 0.87499 0.0
C2223 C 0.27775 0.96317 0.86861 0.0
C2224 C 0.27195 0.97669 0.86591 0.0
C2225 C 0.27452 0.99015 0.86956 0.0
C2226 C 0.28287 0.9901 0.87593 0.0
C2227 C 0.28871 0.97661 0.87865 0.0
H2228 H 0.27001 1.00061 0.86745 0.0
H2229 H 0.32508 0.8691 0.89403 0.0
H2230 H 0.29909 0.07589 0.09648 0.0
H2231 H 0.30666 0.06771 0.1084 0.0
H2232 H 0.26342 0.08452 0.11679 0.0
H2233 H 0.25574 0.09267 0.10487 0.0
H2234 H 0.2873 0.09394 0.12463 0.0
H2235 H 0.27026 0.04666 0.11537 0.0
H2236 H 0.26901 0.02577 0.10677 0.0
H2237 H 0.31759 0.01711 0.10981 0.0
H2238 H 0.31918 0.03809 0.11836 0.0
H2239 H 0.3005 0.06524 0.15936 0.0
H2240 H 0.28882 0.06941 0.14766 0.0
H2241 H 0.33047 0.05296 0.13759 0.0
H2242 H 0.34195 0.04819 0.14924 0.0
H2243 H 0.30556 0.04267 0.13081 0.0
H2244 H 0.32304 0.09092 0.13929 0.0
H2245 H 0.32465 0.11203 0.14776 0.0
H2246 H 0.27548 0.11899 0.14603 0.0
H2247 H 0.27355 0.09779 0.13761 0.0
C2248 C 0.29105 0.07759 0.10083 0.0
C2249 C 0.27681 0.08497 0.09972 0.0
C2250 C 0.29541 0.07293 0.10766 0.0
C2251 C 0.28557 0.07541 0.1135 0.0
C2252 C 0.27123 0.08252 0.11237 0.0
C2253 C 0.26687 0.0872 0.10556 0.0
C2254 C 0.29059 0.07133 0.12082 0.0
C2255 C 0.29102 0.08266 0.12601 0.0
C2256 C 0.29579 0.05669 0.12259 0.0
C2257 C 0.29486 0.04404 0.11746 0.0
C2258 C 0.28071 0.04038 0.11417 0.0
C2259 C 0.27993 0.0285 0.10931 0.0
C2260 C 0.29322 0.02014 0.10773 0.0
C2261 C 0.3073 0.02361 0.11103 0.0
C2262 C 0.30815 0.03548 0.11589 0.0
C2263 C 0.30709 0.0623 0.15466 0.0
C2264 C 0.32224 0.05651 0.15525 0.0
C2265 C 0.30045 0.06483 0.14796 0.0
C2266 C 0.30886 0.06173 0.14173 0.0
C2267 C 0.32378 0.05552 0.14231 0.0
C2268 C 0.33039 0.05295 0.14899 0.0
C2269 C 0.30236 0.06531 0.13459 0.0
C2270 C 0.30169 0.05391 0.12944 0.0
C2271 C 0.29697 0.0799 0.13284 0.0
C2272 C 0.29813 0.09267 0.13788 0.0
C2273 C 0.31255 0.09688 0.14076 0.0
C2274 C 0.31353 0.10887 0.14554 0.0
C2275 C 0.30017 0.11682 0.14745 0.0
C2276 C 0.28581 0.11281 0.14456 0.0
C2277 C 0.28477 0.10081 0.13978 0.0
H2278 H 0.30095 0.1261 0.15115 0.0
H2279 H 0.29259 0.01095 0.10397 0.0
H2280 H 0.75786 0.91624 0.6044 0.0
H2281 H 0.76626 0.92403 0.61627 0.0
H2282 H 0.81259 0.93148 0.60833 0.0
H2283 H 0.80436 0.92338 0.59649 0.0
H2284 H 0.81279 0.9151 0.62044 0.0
H2285 H 0.78898 0.96091 0.61237 0.0
H2286 H 0.76795 0.97658 0.60746 0.0
H2287 H 0.73863 0.96473 0.62505 0.0
H2288 H 0.75943 0.94881 0.63003 0.0
H2289 H 0.84524 0.95181 0.65002 0.0
H2290 H 0.83525 0.94629 0.63818 0.0
H2291 H 0.78929 0.94049 0.64685 0.0
H2292 H 0.79911 0.94664 0.65872 0.0
H2293 H 0.78822 0.95584 0.63451 0.0
H2294 H 0.81156 0.91012 0.6426 0.0
H2295 H 0.83225 0.89412 0.64758 0.0
H2296 H 0.86191 0.90522 0.62999 0.0
H2297 H 0.84146 0.92146 0.62495 0.0
C2298 C 0.76984 0.91956 0.60518 0.0
C2299 C 0.78045 0.91917 0.59949 0.0
C2300 C 0.77459 0.92413 0.61196 0.0
C2301 C 0.79004 0.92843 0.61319 0.0
C2302 C 0.8006 0.92824 0.6075 0.0
C2303 C 0.79585 0.92373 0.60072 0.0
C2304 C 0.79538 0.93248 0.62046 0.0
C2305 C 0.80756 0.92416 0.62347 0.0
C2306 C 0.78823 0.94397 0.62451 0.0
C2307 C 0.77572 0.95355 0.62153 0.0
C2308 C 0.77801 0.96154 0.61516 0.0
C2309 C 0.76613 0.97049 0.61237 0.0
C2310 C 0.75195 0.97162 0.61593 0.0
C2311 C 0.74962 0.96383 0.6223 0.0
C2312 C 0.76145 0.95485 0.62511 0.0
C2313 C 0.83295 0.9496 0.64942 0.0
C2314 C 0.82299 0.94968 0.65535 0.0
C2315 C 0.82729 0.94627 0.64264 0.0
C2316 C 0.81156 0.94275 0.64163 0.0
C2317 C 0.80149 0.9431 0.6475 0.0
C2318 C 0.80715 0.94648 0.6543 0.0
C2319 C 0.80573 0.93855 0.63445 0.0
C2320 C 0.79344 0.94679 0.63147 0.0
C2321 C 0.81272 0.92692 0.63043 0.0
C2322 C 0.82503 0.91712 0.63343 0.0
C2323 C 0.82254 0.90924 0.63982 0.0
C2324 C 0.83421 0.90011 0.64265 0.0
C2325 C 0.8484 0.89868 0.63912 0.0
C2326 C 0.85092 0.90635 0.63273 0.0
C2327 C 0.83928 0.91551 0.62988 0.0
H2328 H 0.85743 0.89161 0.64132 0.0
H2329 H 0.74277 0.97855 0.61376 0.0
H2330 H 0.78102 0.06362 0.41145 0.0
H2331 H 0.78892 0.05539 0.39957 0.0
H2332 H 0.78303 0.10058 0.39169 0.0
H2333 H 0.77535 0.10894 0.40353 0.0
H2334 H 0.77082 0.08007 0.38259 0.0
H2335 H 0.8188 0.08698 0.39538 0.0
H2336 H 0.83723 0.08286 0.40522 0.0
H2337 H 0.83845 0.03564 0.4005 0.0
H2338 H 0.81985 0.03944 0.39068 0.0
H2339 H 0.81418 0.07788 0.35054 0.0
H2340 H 0.80339 0.0832 0.36228 0.0
H2341 H 0.81305 0.03765 0.36883 0.0
H2342 H 0.82395 0.03227 0.35709 0.0
H2343 H 0.82239 0.05668 0.3787 0.0
H2344 H 0.77561 0.04983 0.36545 0.0
H2345 H 0.75715 0.05382 0.35561 0.0
H2346 H 0.7534 0.10052 0.36115 0.0
H2347 H 0.77201 0.09685 0.37097 0.0
C2348 C 0.7815 0.07183 0.4072 0.0
C2349 C 0.77755 0.08696 0.40847 0.0
C2350 C 0.78597 0.06709 0.4004 0.0
C2351 C 0.78667 0.07739 0.39474 0.0
C2352 C 0.78251 0.09242 0.39596 0.0
C2353 C 0.77806 0.09717 0.40274 0.0
C2354 C 0.79197 0.07264 0.38757 0.0
C2355 C 0.78215 0.07508 0.38172 0.0
C2356 C 0.80659 0.06577 0.38646 0.0
C2357 C 0.8178 0.06347 0.39235 0.0
C2358 C 0.8229 0.0757 0.39648 0.0
C2359 C 0.8334 0.07342 0.40205 0.0
C2360 C 0.83897 0.05899 0.4035 0.0
C2361 C 0.8341 0.04681 0.39938 0.0
C2362 C 0.82359 0.04902 0.39381 0.0
C2363 C 0.81378 0.06892 0.35444 0.0
C2364 C 0.81992 0.05464 0.35287 0.0
C2365 C 0.80761 0.07198 0.36116 0.0
C2366 C 0.80726 0.06079 0.36644 0.0
C2367 C 0.81322 0.04648 0.36486 0.0
C2368 C 0.81946 0.04343 0.35815 0.0
C2369 C 0.80128 0.06421 0.37368 0.0
C2370 C 0.81099 0.06155 0.37955 0.0
C2371 C 0.78654 0.07084 0.37481 0.0
C2372 C 0.77532 0.07309 0.36891 0.0
C2373 C 0.77094 0.06097 0.36454 0.0
C2374 C 0.76044 0.06317 0.35897 0.0
C2375 C 0.75414 0.07742 0.35774 0.0
C2376 C 0.75831 0.08949 0.3621 0.0
C2377 C 0.76882 0.08736 0.36767 0.0
H2378 H 0.746 0.0791 0.35343 0.0
H2379 H 0.8471 0.05726 0.40781 0.0
H2380 H 0.74635 0.09308 0.10515 0.0
H2381 H 0.73762 0.08504 0.11692 0.0
H2382 H 0.69536 0.06775 0.10773 0.0
H2383 H 0.7038 0.0762 0.09597 0.0
H2384 H 0.68925 0.08457 0.11909 0.0
H2385 H 0.7241 0.04415 0.11379 0.0
H2386 H 0.74888 0.03252 0.11022 0.0
H2387 H 0.77161 0.05276 0.12815 0.0
H2388 H 0.747 0.06469 0.13177 0.0
H2389 H 0.66107 0.04666 0.14935 0.0
H2390 H 0.67189 0.05147 0.13758 0.0
H2391 H 0.71259 0.07113 0.14715 0.0
H2392 H 0.70173 0.06651 0.159 0.0
H2393 H 0.71981 0.05284 0.13568 0.0
H2394 H 0.68512 0.09362 0.14079 0.0
H2395 H 0.66033 0.1052 0.14438 0.0
H2396 H 0.63736 0.0842 0.12672 0.0
H2397 H 0.66198 0.07232 0.12307 0.0
C2398 C 0.7352 0.08755 0.10563 0.0
C2399 C 0.72576 0.08534 0.09961 0.0
C2400 C 0.73029 0.08282 0.11236 0.0
C2401 C 0.71587 0.07568 0.11321 0.0
C2402 C 0.70655 0.0732 0.1072 0.0
C2403 C 0.71145 0.07793 0.10047 0.0
C2404 C 0.71014 0.07156 0.12042 0.0
C2405 C 0.69583 0.07743 0.12266 0.0
C2406 C 0.71892 0.0626 0.12518 0.0
C2407 C 0.73374 0.05543 0.12301 0.0
C2408 C 0.73441 0.04623 0.11694 0.0
C2409 C 0.74842 0.03956 0.11491 0.0
C2410 C 0.76182 0.04193 0.11895 0.0
C2411 C 0.76123 0.05095 0.12502 0.0
C2412 C 0.74725 0.05765 0.12707 0.0
C2413 C 0.6723 0.05207 0.14897 0.0
C2414 C 0.68044 0.05638 0.15513 0.0
C2415 C 0.67849 0.05476 0.14223 0.0
C2416 C 0.69295 0.06185 0.14148 0.0
C2417 C 0.7014 0.06565 0.1476 0.0
C2418 C 0.69519 0.06298 0.15437 0.0
C2419 C 0.6989 0.06576 0.1343 0.0
C2420 C 0.71324 0.05993 0.13208 0.0
C2421 C 0.69017 0.07476 0.12954 0.0
C2422 C 0.67536 0.08196 0.1317 0.0
C2423 C 0.67475 0.09138 0.1377 0.0
C2424 C 0.66074 0.09801 0.13974 0.0
C2425 C 0.64727 0.09541 0.13579 0.0
C2426 C 0.6478 0.08619 0.12978 0.0
C2427 C 0.66178 0.07951 0.12772 0.0
H2428 H 0.63643 0.10056 0.13738 0.0
H2429 H 0.77266 0.03676 0.11737 0.0
H2430 H 0.74654 0.91353 0.90378 0.0
H2431 H 0.7376 0.92123 0.89198 0.0
H2432 H 0.69366 0.93476 0.90091 0.0
H2433 H 0.70235 0.92667 0.91268 0.0
H2434 H 0.68953 0.91776 0.88937 0.0
H2435 H 0.72039 0.96078 0.89531 0.0
H2436 H 0.7439 0.97429 0.89919 0.0
H2437 H 0.76902 0.95676 0.8813 0.0
H2438 H 0.7457 0.94297 0.87736 0.0
H2439 H 0.65899 0.95482 0.85936 0.0
H2440 H 0.66986 0.95019 0.87114 0.0
H2441 H 0.71239 0.9345 0.8616 0.0
H2442 H 0.70149 0.93892 0.84974 0.0
H2443 H 0.71765 0.95272 0.87333 0.0
H2444 H 0.68696 0.90946 0.86753 0.0
H2445 H 0.66346 0.89598 0.86362 0.0
H2446 H 0.6381 0.91398 0.88133 0.0
H2447 H 0.66141 0.92776 0.88529 0.0
C2448 C 0.73498 0.91817 0.90323 0.0
C2449 C 0.72514 0.91944 0.90918 0.0
C2450 C 0.72994 0.9227 0.89649 0.0
C2451 C 0.71499 0.92867 0.89556 0.0
C2452 C 0.70525 0.93021 0.9015 0.0
C2453 C 0.71029 0.9257 0.90824 0.0
C2454 C 0.70919 0.93256 0.88833 0.0
C2455 C 0.69556 0.9256 0.88591 0.0
C2456 C 0.7173 0.94243 0.88373 0.0
C2457 C 0.73134 0.95072 0.88608 0.0
C2458 C 0.73096 0.9597 0.89223 0.0
C2459 C 0.74425 0.96743 0.89444 0.0
C2460 C 0.75795 0.96635 0.8905 0.0
C2461 C 0.75839 0.95757 0.88435 0.0
C2462 C 0.74515 0.9498 0.88212 0.0
C2463 C 0.67063 0.95031 0.85974 0.0
C2464 C 0.67928 0.94706 0.85359 0.0
C2465 C 0.67685 0.94773 0.86649 0.0
C2466 C 0.69186 0.9418 0.86725 0.0
C2467 C 0.70077 0.93906 0.86114 0.0
C2468 C 0.69454 0.94163 0.85436 0.0
C2469 C 0.69795 0.93802 0.87442 0.0
C2470 C 0.71163 0.94493 0.87681 0.0
C2471 C 0.68991 0.92808 0.87902 0.0
C2472 C 0.67589 0.91975 0.87667 0.0
C2473 C 0.67634 0.91064 0.87056 0.0
C2474 C 0.66306 0.90293 0.86834 0.0
C2475 C 0.64929 0.90415 0.87221 0.0
C2476 C 0.64878 0.91306 0.87833 0.0
C2477 C 0.66202 0.92081 0.88057 0.0
H2478 H 0.63901 0.89817 0.87049 0.0
H2479 H 0.76823 0.97235 0.89221 0.0
H2480 H 0.65692 0.55111 0.85682 0.0
H2481 H 0.66727 0.55874 0.86833 0.0
H2482 H 0.71295 0.54424 0.86195 0.0
H2483 H 0.70254 0.53614 0.85042 0.0
H2484 H 0.70612 0.53544 0.87557 0.0
H2485 H 0.70458 0.58109 0.86222 0.0
H2486 H 0.69294 0.60055 0.85455 0.0
H2487 H 0.65854 0.6097 0.87049 0.0
H2488 H 0.66984 0.59013 0.87822 0.0
H2489 H 0.74162 0.57306 0.9053 0.0
H2490 H 0.73464 0.56393 0.89344 0.0
H2491 H 0.68739 0.57833 0.89678 0.0
H2492 H 0.6943 0.5875 0.9086 0.0
H2493 H 0.6975 0.58749 0.88419 0.0
H2494 H 0.69821 0.54077 0.89724 0.0
H2495 H 0.70978 0.52118 0.90486 0.0
H2496 H 0.7459 0.51412 0.88949 0.0
H2497 H 0.73465 0.53382 0.88181 0.0
C2498 C 0.66914 0.54939 0.85787 0.0
C2499 C 0.67889 0.54297 0.85269 0.0
C2500 C 0.67508 0.5539 0.86444 0.0
C2501 C 0.69092 0.55222 0.86598 0.0
C2502 C 0.7007 0.54569 0.86086 0.0
C2503 C 0.69475 0.54118 0.85426 0.0
C2504 C 0.69714 0.55735 0.87295 0.0
C2505 C 0.70448 0.54689 0.87742 0.0
C2506 C 0.69479 0.57223 0.8754 0.0
C2507 C 0.68799 0.58406 0.87078 0.0
C2508 C 0.69447 0.58718 0.86407 0.0
C2509 C 0.68794 0.59824 0.85971 0.0
C2510 C 0.67499 0.60634 0.86202 0.0
C2511 C 0.66857 0.60341 0.8687 0.0
C2512 C 0.67504 0.59235 0.87308 0.0
C2513 C 0.7297 0.57408 0.90354 0.0
C2514 C 0.71853 0.58107 0.90789 0.0
C2515 C 0.72572 0.56887 0.89675 0.0
C2516 C 0.71046 0.57039 0.89421 0.0
C2517 C 0.69926 0.57712 0.8986 0.0
C2518 C 0.70323 0.58238 0.90536 0.0
C2519 C 0.70617 0.5655 0.8869 0.0
C2520 C 0.69923 0.57606 0.88235 0.0
C2521 C 0.70892 0.55073 0.88438 0.0
C2522 C 0.71568 0.53888 0.88899 0.0
C2523 C 0.70869 0.53512 0.89551 0.0
C2524 C 0.71518 0.52398 0.89984 0.0
C2525 C 0.7286 0.51644 0.89767 0.0
C2526 C 0.73553 0.51999 0.89117 0.0
C2527 C 0.72909 0.53113 0.88682 0.0
H2528 H 0.7336 0.50781 0.90103 0.0
H2529 H 0.66996 0.6149 0.85864 0.0
H2530 H 0.72539 0.40175 0.10589 0.0
H2531 H 0.71731 0.41043 0.11761 0.0
H2532 H 0.71377 0.45581 0.10967 0.0
H2533 H 0.72246 0.44728 0.09793 0.0
H2534 H 0.72707 0.45521 0.12276 0.0
H2535 H 0.68139 0.4347 0.112 0.0
H2536 H 0.66572 0.41558 0.10579 0.0
H2537 H 0.67274 0.38471 0.12306 0.0
H2538 H 0.68865 0.40358 0.12934 0.0
H2539 H 0.68209 0.48157 0.15231 0.0
H2540 H 0.6921 0.47514 0.14052 0.0
H2541 H 0.69539 0.42857 0.14678 0.0
H2542 H 0.68532 0.43491 0.15855 0.0
H2543 H 0.6817 0.43091 0.13424 0.0
H2544 H 0.72789 0.45139 0.1449 0.0
H2545 H 0.74357 0.47058 0.15106 0.0
H2546 H 0.73543 0.50169 0.13399 0.0
H2547 H 0.71953 0.48275 0.12777 0.0
C2548 C 0.72313 0.41363 0.10664 0.0
C2549 C 0.72459 0.42381 0.10095 0.0
C2550 C 0.71834 0.41854 0.11334 0.0
C2551 C 0.71471 0.43373 0.11451 0.0
C2552 C 0.71643 0.44402 0.10889 0.0
C2553 C 0.72127 0.4391 0.10217 0.0
C2554 C 0.70892 0.43875 0.12157 0.0
C2555 C 0.71702 0.45006 0.12523 0.0
C2556 C 0.69596 0.43186 0.12485 0.0
C2557 C 0.68632 0.42051 0.12111 0.0
C2558 C 0.67969 0.4238 0.11445 0.0
C2559 C 0.67075 0.41301 0.11092 0.0
C2560 C 0.66826 0.39893 0.11402 0.0
C2561 C 0.67469 0.39562 0.12066 0.0
C2562 C 0.68365 0.40636 0.12421 0.0
C2563 C 0.68517 0.47 0.15121 0.0
C2564 C 0.68287 0.45875 0.15637 0.0
C2565 C 0.69089 0.46633 0.14446 0.0
C2566 C 0.6946 0.45137 0.14276 0.0
C2567 C 0.69255 0.44017 0.14794 0.0
C2568 C 0.68677 0.44382 0.15467 0.0
C2569 C 0.69999 0.44722 0.1355 0.0
C2570 C 0.69176 0.43609 0.13178 0.0
C2571 C 0.7128 0.4543 0.13217 0.0
C2572 C 0.72239 0.4657 0.1359 0.0
C2573 C 0.72934 0.46236 0.14248 0.0
C2574 C 0.73829 0.47319 0.14598 0.0
C2575 C 0.74046 0.48736 0.14293 0.0
C2576 C 0.73372 0.49072 0.13636 0.0
C2577 C 0.72475 0.47994 0.13284 0.0
H2578 H 0.74739 0.49572 0.14564 0.0
H2579 H 0.66134 0.39059 0.11128 0.0
H2580 H 0.76121 0.43463 0.40617 0.0
H2581 H 0.76812 0.44491 0.39449 0.0
H2582 H 0.81598 0.43282 0.39805 0.0
H2583 H 0.80922 0.42283 0.40976 0.0
H2584 H 0.81341 0.46069 0.39224 0.0
H2585 H 0.79262 0.41105 0.38783 0.0
H2586 H 0.77269 0.39118 0.38841 0.0
H2587 H 0.74071 0.41949 0.37711 0.0
H2588 H 0.76039 0.43962 0.37655 0.0
H2589 H 0.84642 0.4586 0.35814 0.0
H2590 H 0.83612 0.45239 0.36985 0.0
H2591 H 0.79025 0.4653 0.36299 0.0
H2592 H 0.80054 0.47164 0.3512 0.0
H2593 H 0.78951 0.43935 0.37045 0.0
H2594 H 0.81089 0.48819 0.3739 0.0
H2595 H 0.83074 0.50812 0.37326 0.0
H2596 H 0.86126 0.48182 0.38634 0.0
H2597 H 0.84169 0.46163 0.38698 0.0
C2598 C 0.77324 0.43434 0.4045 0.0
C2599 C 0.78465 0.42783 0.40888 0.0
C2600 C 0.77715 0.44011 0.3978 0.0
C2601 C 0.79254 0.43948 0.39536 0.0
C2602 C 0.80402 0.43338 0.39981 0.0
C2603 C 0.80011 0.42757 0.40648 0.0
C2604 C 0.79677 0.44486 0.38813 0.0
C2605 C 0.80827 0.45595 0.38747 0.0
C2606 C 0.78972 0.43901 0.38191 0.0
C2607 C 0.77791 0.4269 0.38222 0.0
C2608 C 0.78129 0.41309 0.38552 0.0
C2609 C 0.77005 0.40177 0.38583 0.0
C2610 C 0.75543 0.40409 0.38281 0.0
C2611 C 0.75203 0.41772 0.37945 0.0
C2612 C 0.76323 0.42908 0.37914 0.0
C2613 C 0.83416 0.46031 0.35913 0.0
C2614 C 0.82434 0.46579 0.35374 0.0
C2615 C 0.82828 0.45672 0.36583 0.0
C2616 C 0.81245 0.45862 0.36735 0.0
C2617 C 0.80252 0.4638 0.36195 0.0
C2618 C 0.80841 0.46738 0.35521 0.0
C2619 C 0.80639 0.45498 0.37455 0.0
C2620 C 0.79453 0.44424 0.37521 0.0
C2621 C 0.81307 0.46119 0.38078 0.0
C2622 C 0.82486 0.47334 0.38044 0.0
C2623 C 0.82188 0.48661 0.3766 0.0
C2624 C 0.83308 0.49796 0.37624 0.0
C2625 C 0.84726 0.49623 0.37974 0.0
C2626 C 0.85027 0.48315 0.38363 0.0
C2627 C 0.83912 0.47175 0.384 0.0
H2628 H 0.85592 0.50503 0.37946 0.0
H2629 H 0.74674 0.39531 0.38306 0.0
H2630 H 0.76129 0.59305 0.60734 0.0
H2631 H 0.76869 0.58331 0.619 0.0
H2632 H 0.802 0.55378 0.60912 0.0
H2633 H 0.79478 0.5636 0.59741 0.0
H2634 H 0.78607 0.53978 0.62 0.0
H2635 H 0.81397 0.58605 0.6164 0.0
H2636 H 0.81659 0.61304 0.61362 0.0
H2637 H 0.78765 0.62412 0.63146 0.0
H2638 H 0.78468 0.59717 0.63428 0.0
H2639 H 0.83478 0.52475 0.64964 0.0
H2640 H 0.82345 0.53185 0.63823 0.0
H2641 H 0.79322 0.56331 0.64885 0.0
H2642 H 0.80495 0.55667 0.66028 0.0
H2643 H 0.80639 0.57614 0.63771 0.0
H2644 H 0.77943 0.52997 0.64174 0.0
H2645 H 0.77661 0.50301 0.64451 0.0
H2646 H 0.80338 0.49163 0.62602 0.0
H2647 H 0.80654 0.51855 0.62319 0.0
C2648 C 0.77022 0.58451 0.60763 0.0
C2649 C 0.77756 0.57924 0.60143 0.0
C2650 C 0.77439 0.57891 0.61431 0.0
C2651 C 0.78605 0.56797 0.61494 0.0
C2652 C 0.79298 0.56223 0.60876 0.0
C2653 C 0.7888 0.56783 0.60206 0.0
C2654 C 0.79147 0.563 0.62207 0.0
C2655 C 0.79067 0.54769 0.62385 0.0
C2656 C 0.79712 0.57338 0.62716 0.0
C2657 C 0.79898 0.58959 0.6255 0.0
C2658 C 0.80807 0.59424 0.61969 0.0
C2659 C 0.80963 0.60953 0.61812 0.0
C2660 C 0.80226 0.62029 0.62235 0.0
C2661 C 0.79334 0.61577 0.62818 0.0
C2662 C 0.79172 0.60049 0.62977 0.0
C2663 C 0.82574 0.5332 0.64956 0.0
C2664 C 0.82084 0.54019 0.65589 0.0
C2665 C 0.81913 0.53713 0.64303 0.0
C2666 C 0.80736 0.54802 0.64267 0.0
C2667 C 0.80225 0.55484 0.64899 0.0
C2668 C 0.80888 0.55094 0.65553 0.0
C2669 C 0.80101 0.55288 0.63567 0.0
C2670 C 0.80169 0.5682 0.6339 0.0
C2671 C 0.79523 0.5425 0.6306 0.0
C2672 C 0.79334 0.5263 0.63229 0.0
C2673 C 0.78482 0.52173 0.63829 0.0
C2674 C 0.78314 0.50645 0.63987 0.0
C2675 C 0.78984 0.49562 0.63545 0.0
C2676 C 0.79821 0.50004 0.62944 0.0
C2677 C 0.79993 0.51531 0.62784 0.0
H2678 H 0.78852 0.48379 0.63668 0.0
H2679 H 0.80348 0.63212 0.62112 0.0
H2680 H 0.27642 0.40378 0.10646 0.0
H2681 H 0.2831 0.4142 0.11806 0.0
H2682 H 0.295 0.45645 0.10818 0.0
H2683 H 0.28896 0.44586 0.09649 0.0
H2684 H 0.31658 0.44864 0.11746 0.0
H2685 H 0.26129 0.45211 0.11804 0.0
H2686 H 0.23434 0.44307 0.11692 0.0
H2687 H 0.24233 0.41078 0.13351 0.0
H2688 H 0.2694 0.41948 0.13466 0.0
H2689 H 0.32567 0.48652 0.15037 0.0
H2690 H 0.31543 0.47936 0.13872 0.0
H2691 H 0.30421 0.43529 0.14683 0.0
H2692 H 0.31442 0.44238 0.15849 0.0
H2693 H 0.28138 0.44575 0.1383 0.0
H2694 H 0.33711 0.44129 0.13709 0.0
H2695 H 0.36405 0.45037 0.13819 0.0
H2696 H 0.35498 0.48478 0.12271 0.0
H2697 H 0.32791 0.47602 0.12158 0.0
C2698 C 0.28054 0.41526 0.10673 0.0
C2699 C 0.28221 0.42394 0.10052 0.0
C2700 C 0.28417 0.42128 0.11339 0.0
C2701 C 0.28937 0.43619 0.11402 0.0
C2702 C 0.29094 0.44494 0.10784 0.0
C2703 C 0.28736 0.4389 0.10116 0.0
C2704 C 0.29377 0.44238 0.12109 0.0
C2705 C 0.30876 0.44826 0.12198 0.0
C2706 C 0.28371 0.4416 0.12705 0.0
C2707 C 0.26742 0.43637 0.12639 0.0
C2708 C 0.25733 0.44301 0.12141 0.0
C2709 C 0.24203 0.43796 0.12078 0.0
C2710 C 0.23664 0.42634 0.12513 0.0
C2711 C 0.24653 0.41977 0.13014 0.0
C2712 C 0.26185 0.42477 0.13079 0.0
C2713 C 0.32102 0.4753 0.14967 0.0
C2714 C 0.32099 0.46498 0.15535 0.0
C2715 C 0.31515 0.47123 0.14301 0.0
C2716 C 0.30926 0.45671 0.14186 0.0
C2717 C 0.30869 0.44656 0.14758 0.0
C2718 C 0.31451 0.45064 0.15426 0.0
C2719 C 0.3042 0.45189 0.13465 0.0
C2720 C 0.28912 0.44625 0.13375 0.0
C2721 C 0.31415 0.4529 0.12868 0.0
C2722 C 0.33045 0.4581 0.12931 0.0
C2723 C 0.34083 0.45086 0.13396 0.0
C2724 C 0.35613 0.45594 0.13458 0.0
C2725 C 0.36121 0.46817 0.13054 0.0
C2726 C 0.35102 0.47532 0.12584 0.0
C2727 C 0.33571 0.4703 0.12521 0.0
H2728 H 0.37305 0.47209 0.13103 0.0
H2729 H 0.22479 0.42244 0.12463 0.0
H2730 H 0.27536 0.60005 0.90198 0.0
H2731 H 0.28209 0.58967 0.89038 0.0
H2732 H 0.29567 0.54797 0.90033 0.0
H2733 H 0.28957 0.55853 0.91202 0.0
H2734 H 0.31676 0.55635 0.89092 0.0
H2735 H 0.26161 0.55107 0.89062 0.0
H2736 H 0.23439 0.55922 0.89183 0.0
H2737 H 0.24085 0.59151 0.87511 0.0
H2738 H 0.26818 0.58368 0.87386 0.0
H2739 H 0.32629 0.51815 0.85813 0.0
H2740 H 0.31608 0.52523 0.86979 0.0
H2741 H 0.30332 0.56879 0.86156 0.0
H2742 H 0.31353 0.56179 0.84988 0.0
H2743 H 0.281 0.55776 0.87024 0.0
H2744 H 0.33656 0.56403 0.87116 0.0
H2745 H 0.36376 0.55581 0.86996 0.0
H2746 H 0.35627 0.52141 0.88562 0.0
H2747 H 0.32894 0.5293 0.88685 0.0
C2748 C 0.27986 0.58869 0.90172 0.0
C2749 C 0.28198 0.58016 0.90795 0.0
C2750 C 0.28352 0.58269 0.89506 0.0
C2751 C 0.28921 0.56795 0.89445 0.0
C2752 C 0.29123 0.55935 0.90065 0.0
C2753 C 0.28762 0.56537 0.90733 0.0
C2754 C 0.29366 0.56181 0.88738 0.0
C2755 C 0.30883 0.55641 0.88644 0.0
C2756 C 0.28344 0.56217 0.88147 0.0
C2757 C 0.26699 0.56687 0.88219 0.0
C2758 C 0.25726 0.55998 0.88724 0.0
C2759 C 0.24181 0.56453 0.88792 0.0
C2760 C 0.23591 0.5759 0.88356 0.0
C2761 C 0.24544 0.58271 0.87849 0.0
C2762 C 0.26091 0.57821 0.87778 0.0
C2763 C 0.32132 0.52924 0.8588 0.0
C2764 C 0.32085 0.53945 0.85308 0.0
C2765 C 0.31546 0.53326 0.86547 0.0
C2766 C 0.30915 0.54763 0.86659 0.0
C2767 C 0.30815 0.55765 0.86083 0.0
C2768 C 0.31396 0.55361 0.85415 0.0
C2769 C 0.3041 0.55242 0.8738 0.0
C2770 C 0.28885 0.55759 0.87475 0.0
C2771 C 0.31422 0.55184 0.87973 0.0
C2772 C 0.33067 0.54716 0.87904 0.0
C2773 C 0.34068 0.55465 0.87431 0.0
C2774 C 0.35613 0.55005 0.87363 0.0
C2775 C 0.36173 0.53807 0.8777 0.0
C2776 C 0.35191 0.53068 0.88247 0.0
C2777 C 0.33645 0.53521 0.88316 0.0
H2778 H 0.37369 0.53453 0.87716 0.0
H2779 H 0.22394 0.57941 0.8841 0.0
H2780 H 0.20572 0.54193 0.65912 0.0
H2781 H 0.21615 0.54886 0.64746 0.0
H2782 H 0.17049 0.54471 0.63827 0.0
H2783 H 0.15993 0.53803 0.64989 0.0
H2784 H 0.19248 0.53168 0.6299 0.0
H2785 H 0.18538 0.57889 0.64213 0.0
H2786 H 0.18898 0.59692 0.65195 0.0
H2787 H 0.23828 0.59615 0.64864 0.0
H2788 H 0.23498 0.57794 0.63885 0.0
H2789 H 0.20055 0.57226 0.59767 0.0
H2790 H 0.19315 0.56247 0.60933 0.0
H2791 H 0.23947 0.57079 0.61711 0.0
H2792 H 0.24691 0.5807 0.60546 0.0
H2793 H 0.21893 0.58066 0.62636 0.0
H2794 H 0.2262 0.5347 0.61369 0.0
H2795 H 0.22286 0.51658 0.60389 0.0
H2796 H 0.1739 0.51462 0.60803 0.0
H2797 H 0.17691 0.5329 0.6178 0.0
C2798 C 0.19787 0.54258 0.65463 0.0
C2799 C 0.18196 0.53942 0.65546 0.0
C2800 C 0.20387 0.5465 0.64796 0.0
C2801 C 0.19408 0.5474 0.642 0.0
C2802 C 0.17828 0.54402 0.64279 0.0
C2803 C 0.17227 0.54014 0.64944 0.0
C2804 C 0.20019 0.55209 0.63494 0.0
C2805 C 0.19814 0.54245 0.62911 0.0
C2806 C 0.20796 0.56596 0.63394 0.0
C2807 C 0.20995 0.57693 0.63981 0.0
C2808 C 0.197 0.58247 0.64353 0.0
C2809 C 0.19898 0.59274 0.64909 0.0
C2810 C 0.21385 0.59764 0.65093 0.0
C2811 C 0.22677 0.59232 0.64721 0.0
C2812 C 0.22485 0.58203 0.64166 0.0
C2813 C 0.20923 0.57179 0.60183 0.0
C2814 C 0.22433 0.57724 0.60063 0.0
C2815 C 0.20499 0.56618 0.6085 0.0
C2816 C 0.21579 0.56573 0.6141 0.0
C2817 C 0.23092 0.57103 0.61289 0.0
C2818 C 0.23515 0.57672 0.60623 0.0
C2819 C 0.21111 0.56031 0.62128 0.0
C2820 C 0.2134 0.56983 0.62714 0.0
C2821 C 0.20362 0.54629 0.62231 0.0
C2822 C 0.20177 0.53527 0.61644 0.0
C2823 C 0.2147 0.53049 0.61248 0.0
C2824 C 0.21287 0.52018 0.60693 0.0
C2825 C 0.19817 0.51448 0.60533 0.0
C2826 C 0.18527 0.51906 0.60928 0.0
C2827 C 0.18704 0.52938 0.61482 0.0
H2828 H 0.19678 0.50649 0.60103 0.0
H2829 H 0.21536 0.6056 0.65523 0.0
H2830 H 0.24681 0.42273 0.40268 0.0
H2831 H 0.23841 0.43207 0.39105 0.0
H2832 H 0.19336 0.44253 0.39973 0.0
H2833 H 0.20155 0.43287 0.41133 0.0
H2834 H 0.19097 0.42729 0.3874 0.0
H2835 H 0.21921 0.4703 0.3958 0.0
H2836 H 0.24179 0.48386 0.40067 0.0
H2837 H 0.26901 0.47095 0.38255 0.0
H2838 H 0.24664 0.45713 0.37761 0.0
H2839 H 0.16058 0.46834 0.35859 0.0
H2840 H 0.17057 0.46143 0.37027 0.0
H2841 H 0.2154 0.45211 0.36108 0.0
H2842 H 0.20564 0.45962 0.34936 0.0
H2843 H 0.21841 0.4667 0.37358 0.0
H2844 H 0.19058 0.4236 0.3652 0.0
H2845 H 0.16823 0.40979 0.36026 0.0
H2846 H 0.1406 0.42241 0.3783 0.0
H2847 H 0.16274 0.43648 0.3833 0.0
C2848 C 0.23512 0.42704 0.40211 0.0
C2849 C 0.22485 0.42703 0.40793 0.0
C2850 C 0.23038 0.43249 0.39548 0.0
C2851 C 0.21528 0.43809 0.39453 0.0
C2852 C 0.20507 0.43829 0.40035 0.0
C2853 C 0.20982 0.43288 0.40699 0.0
C2854 C 0.20989 0.44311 0.3874 0.0
C2855 C 0.19684 0.43607 0.38443 0.0
C2856 C 0.21783 0.45424 0.38342 0.0
C2857 C 0.23129 0.46255 0.38637 0.0
C2858 C 0.23005 0.47024 0.39288 0.0
C2859 C 0.2428 0.47799 0.39565 0.0
C2860 C 0.25684 0.47823 0.39193 0.0
C2861 C 0.25814 0.47074 0.38543 0.0
C2862 C 0.24542 0.46295 0.38264 0.0
C2863 C 0.17264 0.46505 0.35904 0.0
C2864 C 0.1823 0.46454 0.35301 0.0
C2865 C 0.1783 0.46094 0.36573 0.0
C2866 C 0.19368 0.45603 0.36654 0.0
C2867 C 0.20347 0.45579 0.36057 0.0
C2868 C 0.19783 0.45995 0.35387 0.0
C2869 C 0.19941 0.45096 0.37361 0.0
C2870 C 0.21254 0.45794 0.37656 0.0
C2871 C 0.1916 0.43972 0.37757 0.0
C2872 C 0.17828 0.43121 0.37459 0.0
C2873 C 0.17971 0.42352 0.36809 0.0
C2874 C 0.16708 0.41563 0.36528 0.0
C2875 C 0.153 0.41525 0.36896 0.0
C2876 C 0.15152 0.42273 0.37545 0.0
C2877 C 0.1641 0.43066 0.37828 0.0
H2878 H 0.14324 0.40914 0.36677 0.0
H2879 H 0.2667 0.48424 0.39408 0.0
H2880 H 0.0651 0.01933 0.29763 0.0
H2881 H 0.03676 0.01901 0.29808 0.0
H2882 H 0.03743 0.05414 0.31389 0.0
H2883 H 0.06582 0.05459 0.31343 0.0
H2884 H 0.01625 0.03261 0.31717 0.0
H2885 H 0.02925 0.06236 0.29674 0.0
H2886 H 0.04225 0.06788 0.28535 0.0
H2887 H 0.01916 0.03037 0.27562 0.0
H2888 H 0.00619 0.02449 0.28699 0.0
H2889 H 0.93686 0.05453 0.31349 0.0
H2890 H 0.96521 0.05378 0.31401 0.0
H2891 H 0.9657 0.01924 0.29791 0.0
H2892 H 0.93737 0.01986 0.2974 0.0
H2893 H 0.98636 0.04074 0.29493 0.0
H2894 H 0.97317 0.01108 0.31539 0.0
H2895 H 0.96025 0.00562 0.3268 0.0
H2896 H 0.98356 0.04304 0.33649 0.0
H2897 H 0.99647 0.04887 0.32511 0.0
C2898 C 0.05923 0.02705 0.30117 0.0
C2899 C 0.06775 0.03708 0.30545 0.0
C2900 C 0.04302 0.02683 0.30144 0.0
C2901 C 0.03496 0.03669 0.30595 0.0
C2902 C 0.04341 0.04643 0.31037 0.0
C2903 C 0.05964 0.04665 0.31011 0.0
C2904 C 0.0177 0.03706 0.30593 0.0
C2905 C 0.0097 0.03458 0.31233 0.0
C2906 C 0.00915 0.03934 0.29959 0.0
C2907 C 0.01686 0.0429 0.29273 0.0
C2908 C 0.02703 0.05522 0.29219 0.0
C2909 C 0.03438 0.05842 0.28573 0.0
C2910 C 0.03156 0.04946 0.27977 0.0
C2911 C 0.02135 0.03729 0.28025 0.0
C2912 C 0.01399 0.03402 0.28669 0.0
C2913 C 0.94298 0.04663 0.31013 0.0
C2914 C 0.93482 0.03726 0.3054 0.0
C2915 C 0.9592 0.04623 0.31042 0.0
C2916 C 0.9676 0.03638 0.30603 0.0
C2917 C 0.95948 0.02697 0.30133 0.0
C2918 C 0.94328 0.02738 0.30103 0.0
C2919 C 0.98486 0.03618 0.30617 0.0
C2920 C 0.99288 0.03874 0.29978 0.0
C2921 C 0.9934 0.03399 0.31252 0.0
C2922 C 0.98567 0.0305 0.31938 0.0
C2923 C 0.97544 0.01823 0.31994 0.0
C2924 C 0.96814 0.01505 0.32641 0.0
C2925 C 0.97105 0.024 0.33236 0.0
C2926 C 0.9813 0.03613 0.33187 0.0
C2927 C 0.98863 0.03937 0.32541 0.0
H2928 H 0.96538 0.02152 0.33737 0.0
H2929 H 0.03726 0.05196 0.27478 0.0
H2930 H 0.26505 0.81321 0.56047 0.0
H2931 H 0.26502 0.78573 0.56111 0.0
H2932 H 0.23456 0.78381 0.54293 0.0
H2933 H 0.23417 0.81127 0.54238 0.0
H2934 H 0.22512 0.76482 0.55319 0.0
H2935 H 0.27333 0.77621 0.5414 0.0
H2936 H 0.29887 0.7884 0.54006 0.0
H2937 H 0.31476 0.76714 0.55924 0.0
H2938 H 0.28923 0.75498 0.56074 0.0
H2939 H 0.23328 0.68868 0.54321 0.0
H2940 H 0.23383 0.71612 0.54356 0.0
H2941 H 0.2643 0.71461 0.56175 0.0
H2942 H 0.26416 0.68708 0.56131 0.0
H2943 H 0.27395 0.73531 0.5522 0.0
H2944 H 0.22631 0.72319 0.56383 0.0
H2945 H 0.20084 0.71095 0.56529 0.0
H2946 H 0.18387 0.73357 0.54667 0.0
H2947 H 0.20933 0.7458 0.54503 0.0
C2948 C 0.25826 0.80695 0.55663 0.0
C2949 C 0.24965 0.81447 0.55135 0.0
C2950 C 0.25836 0.79123 0.55697 0.0
C2951 C 0.24991 0.78268 0.55202 0.0
C2952 C 0.24121 0.79016 0.54679 0.0
C2953 C 0.24111 0.80586 0.54644 0.0
C2954 C 0.25001 0.76597 0.55231 0.0
C2955 C 0.23579 0.75836 0.55289 0.0
C2956 C 0.26395 0.75754 0.55213 0.0
C2957 C 0.27932 0.76481 0.55122 0.0
C2958 C 0.28223 0.77423 0.54536 0.0
C2959 C 0.29671 0.78112 0.54457 0.0
C2960 C 0.30842 0.77858 0.54957 0.0
C2961 C 0.30567 0.76912 0.55537 0.0
C2962 C 0.29121 0.76221 0.5562 0.0
C2963 C 0.24021 0.69416 0.54725 0.0
C2964 C 0.24868 0.68565 0.55223 0.0
C2965 C 0.24039 0.70987 0.54749 0.0
C2966 C 0.24897 0.71745 0.55273 0.0
C2967 C 0.25756 0.70901 0.55767 0.0
C2968 C 0.25736 0.69327 0.55745 0.0
C2969 C 0.24904 0.73416 0.55299 0.0
C2970 C 0.26329 0.74176 0.55253 0.0
C2971 C 0.23512 0.74261 0.5533 0.0
C2972 C 0.21978 0.7353 0.55427 0.0
C2973 C 0.21719 0.72546 0.56001 0.0
C2974 C 0.20274 0.71854 0.56088 0.0
C2975 C 0.19075 0.72145 0.55607 0.0
C2976 C 0.19317 0.73132 0.55039 0.0
C2977 C 0.2076 0.73826 0.54949 0.0
H2978 H 0.17958 0.71609 0.55675 0.0
H2979 H 0.31962 0.78392 0.54894 0.0
H2980 H 0.43602 0.98155 0.81364 0.0
H2981 H 0.46439 0.98142 0.81434 0.0
H2982 H 0.46621 0.94739 0.79803 0.0
H2983 H 0.43787 0.94716 0.79743 0.0
H2984 H 0.48599 0.94104 0.80875 0.0
H2985 H 0.4738 0.98409 0.7942 0.0
H2986 H 0.46107 0.00822 0.79142 0.0
H2987 H 0.48333 0.02879 0.80938 0.0
H2988 H 0.49604 0.00471 0.81233 0.0
H2989 H 0.56401 0.94651 0.79746 0.0
H2990 H 0.5357 0.94694 0.79816 0.0
H2991 H 0.53806 0.981 0.81445 0.0
H2992 H 0.56644 0.9809 0.81364 0.0
H2993 H 0.51622 0.98772 0.80459 0.0
H2994 H 0.52946 0.94517 0.81883 0.0
H2995 H 0.54226 0.92112 0.82168 0.0
H2996 H 0.51808 0.89965 0.80449 0.0
H2997 H 0.50529 0.92364 0.80147 0.0
C2998 C 0.44245 0.97394 0.81025 0.0
C2999 C 0.43467 0.96442 0.80545 0.0
C3000 C 0.45868 0.97397 0.81061 0.0
C3001 C 0.46744 0.96451 0.80618 0.0
C3002 C 0.45969 0.95482 0.80148 0.0
C3003 C 0.44349 0.9548 0.8011 0.0
C3004 C 0.48469 0.96471 0.80639 0.0
C3005 C 0.4926 0.95122 0.80777 0.0
C3006 C 0.49333 0.97807 0.80531 0.0
C3007 C 0.48573 0.99256 0.80353 0.0
C3008 C 0.47588 0.99373 0.79759 0.0
C3009 C 0.46869 0.0074 0.79598 0.0
C3010 C 0.47135 0.02002 0.80023 0.0
C3011 C 0.48125 0.019 0.8061 0.0
C3012 C 0.48846 0.00535 0.80774 0.0
C3013 C 0.55852 0.95418 0.80115 0.0
C3014 C 0.5675 0.96368 0.80549 0.0
C3015 C 0.54233 0.9543 0.8016 0.0
C3016 C 0.53475 0.96388 0.80641 0.0
C3017 C 0.54365 0.97348 0.81072 0.0
C3018 C 0.55987 0.97332 0.81029 0.0
C3019 C 0.51752 0.96401 0.80686 0.0
C3020 C 0.50961 0.97756 0.80562 0.0
C3021 C 0.50888 0.95071 0.80808 0.0
C3022 C 0.51653 0.93624 0.80988 0.0
C3023 C 0.52697 0.93535 0.81562 0.0
C3024 C 0.5342 0.92172 0.81728 0.0
C3025 C 0.53101 0.90887 0.81326 0.0
C3026 C 0.52055 0.90962 0.80759 0.0
C3027 C 0.51329 0.92322 0.80591 0.0
H3028 H 0.53663 0.89833 0.81455 0.0
H3029 H 0.46578 0.0306 0.79897 0.0
H3030 H 0.2405 0.19047 0.06061 0.0
H3031 H 0.24066 0.21794 0.06123 0.0
H3032 H 0.2669 0.21987 0.04172 0.0
H3033 H 0.26724 0.19242 0.04119 0.0
H3034 H 0.27854 0.23889 0.05138 0.0
H3035 H 0.2278 0.22744 0.04209 0.0
H3036 H 0.20211 0.21524 0.04205 0.0
H3037 H 0.19089 0.23653 0.06189 0.0
H3038 H 0.21662 0.24871 0.0621 0.0
H3039 H 0.26819 0.31508 0.04194 0.0
H3040 H 0.26757 0.28764 0.04225 0.0
H3041 H 0.2416 0.28901 0.06184 0.0
H3042 H 0.24176 0.31655 0.06146 0.0
H3043 H 0.22976 0.26836 0.05283 0.0
H3044 H 0.27994 0.28048 0.06199 0.0
H3045 H 0.30559 0.29276 0.06213 0.0
H3046 H 0.3179 0.2702 0.04275 0.0
H3047 H 0.29222 0.25795 0.04244 0.0
C3048 C 0.24641 0.19673 0.05648 0.0
C3049 C 0.25382 0.18921 0.05083 0.0
C3050 C 0.24636 0.21245 0.0568 0.0
C3051 C 0.25364 0.221 0.05148 0.0
C3052 C 0.26116 0.21353 0.04588 0.0
C3053 C 0.26122 0.19782 0.04554 0.0
C3054 C 0.25359 0.23772 0.05176 0.0
C3055 C 0.26786 0.24533 0.05161 0.0
C3056 C 0.23969 0.24614 0.05227 0.0
C3057 C 0.2242 0.23886 0.05215 0.0
C3058 C 0.21991 0.22942 0.04648 0.0
C3059 C 0.20533 0.22253 0.04642 0.0
C3060 C 0.19489 0.22507 0.05198 0.0
C3061 C 0.199 0.23455 0.05759 0.0
C3062 C 0.21357 0.24146 0.05768 0.0
C3063 C 0.26221 0.30957 0.04628 0.0
C3064 C 0.25503 0.31805 0.05168 0.0
C3065 C 0.262 0.29386 0.04649 0.0
C3066 C 0.25471 0.28625 0.05212 0.0
C3067 C 0.24736 0.29464 0.05747 0.0
C3068 C 0.24757 0.31038 0.05727 0.0
C3069 C 0.2547 0.26952 0.05237 0.0
C3070 C 0.24044 0.26192 0.05262 0.0
C3071 C 0.26861 0.26109 0.05197 0.0
C3072 C 0.28409 0.2684 0.05216 0.0
C3073 C 0.28807 0.27823 0.05773 0.0
C3074 C 0.30262 0.28517 0.05785 0.0
C3075 C 0.31335 0.28229 0.05245 0.0
C3076 C 0.30957 0.27243 0.04693 0.0
C3077 C 0.29502 0.26548 0.04678 0.0
H3078 H 0.32462 0.28767 0.05255 0.0
H3079 H 0.18361 0.21973 0.05192 0.0
H3080 H 0.9366 0.95042 0.69441 0.0
H3081 H 0.96492 0.95109 0.69365 0.0
H3082 H 0.96647 0.98218 0.71124 0.0
H3083 H 0.93814 0.982 0.71186 0.0
H3084 H 0.98644 0.99043 0.70102 0.0
H3085 H 0.97423 0.94462 0.71352 0.0
H3086 H 0.96146 0.92005 0.71519 0.0
H3087 H 0.98366 0.90324 0.69636 0.0
H3088 H 0.9964 0.92779 0.69453 0.0
H3089 H 0.06492 0.98251 0.71158 0.0
H3090 H 0.03662 0.9827 0.71095 0.0
H3091 H 0.03809 0.95111 0.69357 0.0
H3092 H 0.06642 0.95042 0.69433 0.0
H3093 H 0.01659 0.94308 0.70299 0.0
H3094 H 0.02981 0.98842 0.69075 0.0
H3095 H 0.0426 0.01295 0.68903 0.0
H3096 H 0.01863 0.03067 0.7072 0.0
H3097 H 0.00585 0.00617 0.70909 0.0
C3098 C 0.94294 0.95755 0.69806 0.0
C3099 C 0.93507 0.9661 0.70322 0.0
C3100 C 0.95916 0.95781 0.69766 0.0
C3101 C 0.96785 0.96653 0.70245 0.0
C3102 C 0.96002 0.97531 0.70751 0.0
C3103 C 0.94382 0.97508 0.7079 0.0
C3104 C 0.98511 0.96639 0.70226 0.0
C3105 C 0.99304 0.98009 0.70153 0.0
C3106 C 0.99374 0.95287 0.70274 0.0
C3107 C 0.98614 0.93809 0.70385 0.0
C3108 C 0.97629 0.93572 0.70971 0.0
C3109 C 0.96908 0.92179 0.71069 0.0
C3110 C 0.97171 0.9101 0.70587 0.0
C3111 C 0.98161 0.91231 0.70008 0.0
C3112 C 0.98884 0.92622 0.69907 0.0
C3113 C 0.05924 0.97551 0.70765 0.0
C3114 C 0.06798 0.96644 0.70301 0.0
C3115 C 0.04304 0.97577 0.70724 0.0
C3116 C 0.0352 0.96706 0.70215 0.0
C3117 C 0.04388 0.95797 0.69752 0.0
C3118 C 0.06009 0.95769 0.69793 0.0
C3119 C 0.01795 0.96713 0.7018 0.0
C3120 C 0.01001 0.95341 0.70244 0.0
C3121 C 0.00933 0.98064 0.70123 0.0
C3122 C 0.01697 0.99541 0.7001 0.0
C3123 C 0.02735 0.99751 0.69441 0.0
C3124 C 0.03459 0.01142 0.6934 0.0
C3125 C 0.03146 0.02335 0.69801 0.0
C3126 C 0.02106 0.02141 0.70364 0.0
C3127 C 0.0138 0.00752 0.70468 0.0
H3128 H 0.03707 0.03411 0.69722 0.0
H3129 H 0.96612 0.89933 0.70664 0.0
H3130 H 0.26603 0.81165 0.96784 0.0
H3131 H 0.26574 0.78422 0.96723 0.0
H3132 H 0.24139 0.78632 0.94722 0.0
H3133 H 0.24118 0.81382 0.9479 0.0
H3134 H 0.2292 0.76496 0.95568 0.0
H3135 H 0.27997 0.7785 0.94769 0.0
H3136 H 0.30538 0.79118 0.94824 0.0
H3137 H 0.31627 0.76754 0.96752 0.0
H3138 H 0.29082 0.75487 0.96715 0.0
H3139 H 0.24221 0.6878 0.94694 0.0
H3140 H 0.24189 0.71532 0.94671 0.0
H3141 H 0.26616 0.71635 0.96677 0.0
H3142 H 0.26696 0.6889 0.96692 0.0
H3143 H 0.27837 0.7362 0.95763 0.0
H3144 H 0.22701 0.72323 0.9657 0.0
H3145 H 0.20158 0.7106 0.96502 0.0
H3146 H 0.19187 0.73316 0.94532 0.0
H3147 H 0.21735 0.74578 0.94584 0.0
C3148 C 0.26046 0.8063 0.96334 0.0
C3149 C 0.25366 0.81497 0.95791 0.0
C3150 C 0.26045 0.7906 0.96297 0.0
C3151 C 0.25373 0.78319 0.95713 0.0
C3152 C 0.24671 0.79178 0.95175 0.0
C3153 C 0.24671 0.80751 0.95212 0.0
C3154 C 0.25405 0.7665 0.95666 0.0
C3155 C 0.23997 0.75867 0.956 0.0
C3156 C 0.26808 0.75827 0.95719 0.0
C3157 C 0.28342 0.76584 0.95743 0.0
C3158 C 0.28773 0.77609 0.95208 0.0
C3159 C 0.30215 0.78327 0.95235 0.0
C3160 C 0.31242 0.7802 0.95792 0.0
C3161 C 0.3083 0.76992 0.96322 0.0
C3162 C 0.29388 0.76273 0.96297 0.0
C3163 C 0.24758 0.69388 0.95128 0.0
C3164 C 0.25456 0.68611 0.95696 0.0
C3165 C 0.24726 0.70962 0.95117 0.0
C3166 C 0.25385 0.71792 0.95677 0.0
C3167 C 0.26095 0.7102 0.96241 0.0
C3168 C 0.26127 0.69449 0.96252 0.0
C3169 C 0.2535 0.73465 0.95674 0.0
C3170 C 0.26759 0.74248 0.95729 0.0
C3171 C 0.23949 0.74287 0.95608 0.0
C3172 C 0.22416 0.73533 0.95577 0.0
C3173 C 0.21951 0.72541 0.9612 0.0
C3174 C 0.20507 0.71827 0.96085 0.0
C3175 C 0.19513 0.72104 0.95512 0.0
C3176 C 0.19959 0.731 0.94974 0.0
C3177 C 0.21402 0.73816 0.95007 0.0
H3178 H 0.18396 0.71551 0.95486 0.0
H3179 H 0.32358 0.78576 0.95812 0.0
H3180 H 0.43706 0.02869 0.19292 0.0
H3181 H 0.46542 0.02884 0.19237 0.0
H3182 H 0.4673 0.04937 0.21314 0.0
H3183 H 0.43899 0.04976 0.21362 0.0
H3184 H 0.48716 0.06273 0.20428 0.0
H3185 H 0.47469 0.01159 0.21065 0.0
H3186 H 0.4619 0.98698 0.20916 0.0
H3187 H 0.48438 0.98119 0.18897 0.0
H3188 H 0.49715 0.00587 0.19029 0.0
H3189 H 0.56523 0.04984 0.21374 0.0
H3190 H 0.53694 0.04959 0.21314 0.0
H3191 H 0.53907 0.02906 0.19238 0.0
H3192 H 0.56744 0.02876 0.19305 0.0
H3193 H 0.51725 0.01587 0.20041 0.0
H3194 H 0.53058 0.06636 0.1942 0.0
H3195 H 0.54345 0.09095 0.1956 0.0
H3196 H 0.51936 0.09806 0.2153 0.0
H3197 H 0.5065 0.07341 0.21407 0.0
C3198 C 0.4435 0.03335 0.19735 0.0
C3199 C 0.43571 0.03915 0.20333 0.0
C3200 C 0.45973 0.0333 0.19705 0.0
C3201 C 0.46852 0.03896 0.20275 0.0
C3202 C 0.46078 0.04489 0.20869 0.0
C3203 C 0.44458 0.04497 0.20898 0.0
C3204 C 0.48578 0.03883 0.20254 0.0
C3205 C 0.49373 0.05245 0.20352 0.0
C3206 C 0.49438 0.0255 0.20132 0.0
C3207 C 0.48675 0.01065 0.20053 0.0
C3208 C 0.47681 0.00512 0.20586 0.0
C3209 C 0.46958 0.99115 0.20505 0.0
C3210 C 0.47229 0.98255 0.19896 0.0
C3211 C 0.48227 0.98788 0.19368 0.0
C3212 C 0.48952 1.00185 0.19445 0.0
C3213 C 0.55971 0.04512 0.20907 0.0
C3214 C 0.56865 0.03933 0.20344 0.0
C3215 C 0.54351 0.04514 0.2087 0.0
C3216 C 0.53586 0.0395 0.20267 0.0
C3217 C 0.54471 0.03355 0.19707 0.0
C3218 C 0.56094 0.0335 0.19744 0.0
C3219 C 0.51862 0.03974 0.20226 0.0
C3220 C 0.51067 0.02616 0.20115 0.0
C3221 C 0.51001 0.05311 0.20333 0.0
C3222 C 0.51768 0.06798 0.20408 0.0
C3223 C 0.52811 0.07312 0.19886 0.0
C3224 C 0.53539 0.08707 0.19962 0.0
C3225 C 0.53225 0.09605 0.20554 0.0
C3226 C 0.52179 0.09109 0.21072 0.0
C3227 C 0.51449 0.07714 0.20999 0.0
H3228 H 0.5379 0.10685 0.20612 0.0
H3229 H 0.46668 0.97174 0.19835 0.0
H3230 H 0.23034 0.31584 0.44953 0.0
H3231 H 0.23079 0.28836 0.44919 0.0
H3232 H 0.27384 0.28825 0.4609 0.0
H3233 H 0.27369 0.31577 0.46109 0.0
H3234 H 0.27437 0.26789 0.45012 0.0
H3235 H 0.23996 0.28094 0.46925 0.0
H3236 H 0.21764 0.2937 0.47481 0.0
H3237 H 0.18659 0.27133 0.46042 0.0
H3238 H 0.20876 0.25859 0.4547 0.0
H3239 H 0.2736 0.19183 0.46189 0.0
H3240 H 0.2739 0.21928 0.46116 0.0
H3241 H 0.23035 0.21848 0.44985 0.0
H3242 H 0.22976 0.19104 0.45073 0.0
H3243 H 0.22999 0.23932 0.46013 0.0
H3244 H 0.26432 0.2257 0.44119 0.0
H3245 H 0.28663 0.21298 0.4356 0.0
H3246 H 0.31782 0.23632 0.44958 0.0
H3247 H 0.29567 0.24903 0.45532 0.0
C3248 C 0.24001 0.30999 0.45196 0.0
C3249 C 0.25194 0.31803 0.45537 0.0
C3250 C 0.24018 0.29426 0.45181 0.0
C3251 C 0.25225 0.28623 0.4551 0.0
C3252 C 0.26437 0.29421 0.45835 0.0
C3253 C 0.2642 0.30994 0.45851 0.0
C3254 C 0.25209 0.26951 0.45525 0.0
C3255 C 0.26476 0.26164 0.45239 0.0
C3256 C 0.23939 0.26133 0.45806 0.0
C3257 C 0.22604 0.26893 0.4615 0.0
C3258 C 0.22838 0.27883 0.46723 0.0
C3259 C 0.21576 0.28605 0.47042 0.0
C3260 C 0.20071 0.28336 0.46796 0.0
C3261 C 0.19826 0.27342 0.46231 0.0
C3262 C 0.21085 0.26619 0.4591 0.0
C3263 C 0.26404 0.19749 0.45928 0.0
C3264 C 0.25166 0.18921 0.45637 0.0
C3265 C 0.26431 0.21319 0.4588 0.0
C3266 C 0.25222 0.22095 0.45539 0.0
C3267 C 0.23983 0.21273 0.45249 0.0
C3268 C 0.23958 0.19703 0.45295 0.0
C3269 C 0.25228 0.23767 0.45501 0.0
C3270 C 0.2396 0.24555 0.45784 0.0
C3271 C 0.26497 0.24584 0.45217 0.0
C3272 C 0.27832 0.23821 0.44873 0.0
C3273 C 0.27592 0.22803 0.44311 0.0
C3274 C 0.28854 0.22084 0.43991 0.0
C3275 C 0.30363 0.22381 0.44225 0.0
C3276 C 0.30613 0.23401 0.44778 0.0
C3277 C 0.29355 0.24122 0.45101 0.0
H3278 H 0.31338 0.21824 0.43976 0.0
H3279 H 0.19096 0.28895 0.47043 0.0
H3280 H 0.73156 0.19325 0.46324 0.0
H3281 H 0.73127 0.22072 0.46259 0.0
H3282 H 0.77205 0.21983 0.4493 0.0
H3283 H 0.77269 0.19238 0.45009 0.0
H3284 H 0.77478 0.24062 0.45954 0.0
H3285 H 0.73635 0.22721 0.44228 0.0
H3286 H 0.71286 0.21457 0.43777 0.0
H3287 H 0.68506 0.23793 0.45316 0.0
H3288 H 0.70843 0.25056 0.45783 0.0
H3289 H 0.77248 0.31727 0.44925 0.0
H3290 H 0.77191 0.2898 0.44887 0.0
H3291 H 0.73127 0.28965 0.46226 0.0
H3292 H 0.73146 0.31716 0.46248 0.0
H3293 H 0.72851 0.26938 0.45166 0.0
H3294 H 0.76703 0.28221 0.46912 0.0
H3295 H 0.79051 0.29487 0.47364 0.0
H3296 H 0.81813 0.2725 0.45786 0.0
H3297 H 0.79477 0.25987 0.45318 0.0
C3298 C 0.74052 0.1989 0.46021 0.0
C3299 C 0.75215 0.19059 0.45671 0.0
C3300 C 0.74025 0.2146 0.45978 0.0
C3301 C 0.75154 0.22235 0.45583 0.0
C3302 C 0.76318 0.21411 0.45236 0.0
C3303 C 0.76345 0.1984 0.45277 0.0
C3304 C 0.75146 0.23907 0.45548 0.0
C3305 C 0.76474 0.2469 0.45772 0.0
C3306 C 0.73824 0.24729 0.45325 0.0
C3307 C 0.72417 0.23972 0.45045 0.0
C3308 C 0.72525 0.22956 0.44474 0.0
C3309 C 0.71195 0.22241 0.44215 0.0
C3310 C 0.69748 0.22541 0.44519 0.0
C3311 C 0.69628 0.2356 0.45082 0.0
C3312 C 0.70954 0.24276 0.45344 0.0
C3313 C 0.76329 0.31142 0.45204 0.0
C3314 C 0.75206 0.31945 0.45593 0.0
C3315 C 0.76307 0.29569 0.45187 0.0
C3316 C 0.75167 0.28764 0.45562 0.0
C3317 C 0.74022 0.29561 0.45936 0.0
C3318 C 0.74043 0.31134 0.45953 0.0
C3319 C 0.75182 0.27091 0.45574 0.0
C3320 C 0.73856 0.26309 0.45347 0.0
C3321 C 0.76505 0.26268 0.45793 0.0
C3322 C 0.77912 0.27021 0.46076 0.0
C3323 C 0.77809 0.28008 0.46658 0.0
C3324 C 0.79138 0.28724 0.46918 0.0
C3325 C 0.80579 0.28452 0.46603 0.0
C3326 C 0.80695 0.27461 0.46028 0.0
C3327 C 0.79369 0.26744 0.45766 0.0
H3328 H 0.81607 0.29007 0.46804 0.0
H3329 H 0.6872 0.21987 0.44317 0.0
H3330 H 0.73214 0.68913 0.94962 0.0
H3331 H 0.73337 0.71658 0.94945 0.0
H3332 H 0.77502 0.71527 0.96216 0.0
H3333 H 0.77389 0.68779 0.96234 0.0
H3334 H 0.75524 0.73565 0.96723 0.0
H3335 H 0.77625 0.72372 0.94434 0.0
H3336 H 0.77687 0.71176 0.93252 0.0
H3337 H 0.7352 0.73516 0.92663 0.0
H3338 H 0.73422 0.7471 0.93846 0.0
H3339 H 0.77454 0.81281 0.96337 0.0
H3340 H 0.77521 0.78535 0.96281 0.0
H3341 H 0.73335 0.78545 0.95023 0.0
H3342 H 0.7326 0.81292 0.95076 0.0
H3343 H 0.75394 0.76569 0.945 0.0
H3344 H 0.73257 0.777 0.968 0.0
H3345 H 0.73198 0.78898 0.97983 0.0
H3346 H 0.77443 0.76666 0.98547 0.0
H3347 H 0.77538 0.75469 0.97364 0.0
C3348 C 0.74169 0.69466 0.9523 0.0
C3349 C 0.75293 0.68623 0.95599 0.0
C3350 C 0.74236 0.71038 0.9522 0.0
C3351 C 0.75437 0.71802 0.95574 0.0
C3352 C 0.76563 0.70964 0.95941 0.0
C3353 C 0.76494 0.69392 0.95952 0.0
C3354 C 0.75493 0.73475 0.95578 0.0
C3355 C 0.7552 0.7422 0.96236 0.0
C3356 C 0.75451 0.74334 0.94944 0.0
C3357 C 0.75509 0.7362 0.94231 0.0
C3358 C 0.76715 0.72622 0.94055 0.0
C3359 C 0.76758 0.71946 0.93384 0.0
C3360 C 0.75606 0.72267 0.92883 0.0
C3361 C 0.74411 0.73267 0.93052 0.0
C3362 C 0.74362 0.73945 0.93722 0.0
C3363 C 0.76542 0.80699 0.96052 0.0
C3364 C 0.75346 0.81508 0.95714 0.0
C3365 C 0.76583 0.79128 0.96019 0.0
C3366 C 0.75422 0.7833 0.95655 0.0
C3367 C 0.74244 0.79135 0.95306 0.0
C3368 C 0.74205 0.80707 0.95336 0.0
C3369 C 0.75423 0.76657 0.95644 0.0
C3370 C 0.75404 0.75912 0.94986 0.0
C3371 C 0.75472 0.75796 0.96278 0.0
C3372 C 0.75412 0.76507 0.96991 0.0
C3373 C 0.74183 0.77473 0.97175 0.0
C3374 C 0.74143 0.78151 0.97845 0.0
C3375 C 0.75318 0.77861 0.98339 0.0
C3376 C 0.76534 0.7689 0.98164 0.0
C3377 C 0.76581 0.76211 0.97493 0.0
H3378 H 0.75285 0.78387 0.98858 0.0
H3379 H 0.75641 0.71742 0.92364 0.0
H3380 H 0.73289 0.31637 0.05955 0.0
H3381 H 0.73394 0.2889 0.0598 0.0
H3382 H 0.77243 0.28958 0.04515 0.0
H3383 H 0.77151 0.31705 0.04489 0.0
H3384 H 0.75135 0.26933 0.04115 0.0
H3385 H 0.77771 0.28155 0.06283 0.0
H3386 H 0.78112 0.29369 0.07451 0.0
H3387 H 0.74101 0.27053 0.08249 0.0
H3388 H 0.73723 0.25841 0.07082 0.0
H3389 H 0.77224 0.19251 0.04432 0.0
H3390 H 0.7727 0.21998 0.0448 0.0
H3391 H 0.73375 0.21956 0.0592 0.0
H3392 H 0.73317 0.19207 0.05873 0.0
H3393 H 0.75537 0.23964 0.06342 0.0
H3394 H 0.72877 0.22784 0.04167 0.0
H3395 H 0.72541 0.21565 0.03 0.0
H3396 H 0.76608 0.23811 0.02216 0.0
H3397 H 0.7698 0.25028 0.03383 0.0
C3398 C 0.74172 0.31069 0.05645 0.0
C3399 C 0.75212 0.31894 0.0522 0.0
C3400 C 0.74229 0.29497 0.0566 0.0
C3401 C 0.75335 0.28715 0.05254 0.0
C3402 C 0.76377 0.29535 0.04831 0.0
C3403 C 0.7632 0.31107 0.04815 0.0
C3404 C 0.75377 0.27042 0.05254 0.0
C3405 C 0.75246 0.26285 0.04601 0.0
C3406 C 0.75484 0.26193 0.05889 0.0
C3407 C 0.7571 0.26919 0.06592 0.0
C3408 C 0.76954 0.27914 0.06705 0.0
C3409 C 0.77156 0.286 0.07368 0.0
C3410 C 0.76127 0.28291 0.07923 0.0
C3411 C 0.74896 0.27293 0.07818 0.0
C3412 C 0.74688 0.26605 0.07156 0.0
C3413 C 0.7637 0.19826 0.04755 0.0
C3414 C 0.75261 0.19007 0.05145 0.0
C3415 C 0.764 0.21397 0.04784 0.0
C3416 C 0.75314 0.22186 0.05197 0.0
C3417 C 0.74226 0.21372 0.05598 0.0
C3418 C 0.74197 0.198 0.05571 0.0
C3419 C 0.75298 0.23859 0.05203 0.0
C3420 C 0.7543 0.24614 0.05856 0.0
C3421 C 0.75192 0.24709 0.04568 0.0
C3422 C 0.74965 0.23985 0.03864 0.0
C3423 C 0.73706 0.23009 0.03747 0.0
C3424 C 0.73508 0.2232 0.03086 0.0
C3425 C 0.74555 0.22607 0.02534 0.0
C3426 C 0.75799 0.23588 0.02644 0.0
C3427 C 0.76004 0.24279 0.03305 0.0
H3428 H 0.74399 0.22072 0.02022 0.0
H3429 H 0.76285 0.28823 0.08436 0.0
H3430 H 0.76879 0.81122 0.5419 0.0
H3431 H 0.76805 0.78379 0.54243 0.0
H3432 H 0.73813 0.786 0.56079 0.0
H3433 H 0.7388 0.81351 0.56028 0.0
H3434 H 0.76033 0.76517 0.56263 0.0
H3435 H 0.72353 0.77712 0.54447 0.0
H3436 H 0.71403 0.78916 0.53348 0.0
H3437 H 0.74868 0.76584 0.52134 0.0
H3438 H 0.75853 0.75382 0.53227 0.0
H3439 H 0.73939 0.68738 0.56132 0.0
H3440 H 0.73873 0.7149 0.56143 0.0
H3441 H 0.76865 0.71599 0.54305 0.0
H3442 H 0.76939 0.68853 0.54291 0.0
H3443 H 0.74508 0.73521 0.54151 0.0
H3444 H 0.78228 0.72384 0.55988 0.0
H3445 H 0.79149 0.71185 0.57094 0.0
H3446 H 0.75553 0.73404 0.58275 0.0
H3447 H 0.74597 0.74601 0.57175 0.0
C3448 C 0.76192 0.80589 0.54601 0.0
C3449 C 0.75377 0.81459 0.55101 0.0
C3450 C 0.76153 0.79019 0.54632 0.0
C3451 C 0.75286 0.78281 0.55159 0.0
C3452 C 0.74489 0.79144 0.55667 0.0
C3453 C 0.74531 0.80717 0.55638 0.0
C3454 C 0.75219 0.76609 0.55181 0.0
C3455 C 0.75677 0.75862 0.55805 0.0
C3456 C 0.74779 0.75751 0.54579 0.0
C3457 C 0.74185 0.76467 0.5392 0.0
C3458 C 0.7292 0.77465 0.53946 0.0
C3459 C 0.72374 0.78146 0.53325 0.0
C3460 C 0.73077 0.7783 0.52672 0.0
C3461 C 0.74325 0.76829 0.5264 0.0
C3462 C 0.74877 0.76146 0.5326 0.0
C3463 C 0.74595 0.69348 0.55734 0.0
C3464 C 0.75445 0.68573 0.5521 0.0
C3465 C 0.74555 0.70922 0.55741 0.0
C3466 C 0.75375 0.71754 0.55229 0.0
C3467 C 0.76219 0.70983 0.54705 0.0
C3468 C 0.76257 0.69411 0.54696 0.0
C3469 C 0.75341 0.73427 0.5523 0.0
C3470 C 0.7486 0.74175 0.5461 0.0
C3471 C 0.75755 0.74284 0.55836 0.0
C3472 C 0.76332 0.73569 0.56498 0.0
C3473 C 0.77626 0.72607 0.56483 0.0
C3474 C 0.78156 0.71929 0.57109 0.0
C3475 C 0.77407 0.72214 0.57754 0.0
C3476 C 0.7613 0.73182 0.57775 0.0
C3477 C 0.75595 0.73861 0.57151 0.0
H3478 H 0.77819 0.71689 0.58238 0.0
H3479 H 0.72653 0.78358 0.52191 0.0
H3480 H 0.56677 0.51019 0.81624 0.0
H3481 H 0.53842 0.51026 0.81677 0.0
H3482 H 0.53637 0.521 0.79441 0.0
H3483 H 0.56467 0.5216 0.79391 0.0
H3484 H 0.5165 0.53782 0.80159 0.0
H3485 H 0.52903 0.485 0.80087 0.0
H3486 H 0.54187 0.46174 0.80493 0.0
H3487 H 0.51954 0.4657 0.82526 0.0
H3488 H 0.50672 0.48911 0.82135 0.0
H3489 H 0.43813 0.52143 0.79424 0.0
H3490 H 0.46642 0.52104 0.79463 0.0
H3491 H 0.46496 0.5107 0.81704 0.0
H3492 H 0.43657 0.51043 0.81663 0.0
H3493 H 0.48654 0.49407 0.81052 0.0
H3494 H 0.47338 0.54633 0.81117 0.0
H3495 H 0.46045 0.56959 0.80719 0.0
H3496 H 0.48399 0.56681 0.7871 0.0
H3497 H 0.49691 0.54341 0.79094 0.0
C3498 C 0.5603 0.51269 0.81145 0.0
C3499 C 0.56805 0.51585 0.80502 0.0
C3500 C 0.54407 0.51256 0.81174 0.0
C3501 C 0.53523 0.51545 0.80561 0.0
C3502 C 0.54293 0.51868 0.79921 0.0
C3503 C 0.55913 0.51886 0.79892 0.0
C3504 C 0.51796 0.51538 0.80586 0.0
C3505 C 0.50996 0.52817 0.80346 0.0
C3506 C 0.50939 0.50298 0.8085 0.0
C3507 C 0.51704 0.48889 0.81084 0.0
C3508 C 0.52695 0.48098 0.80623 0.0
C3509 C 0.53421 0.46776 0.8085 0.0
C3510 C 0.53156 0.46227 0.81535 0.0
C3511 C 0.5216 0.46998 0.81995 0.0
C3512 C 0.51433 0.48321 0.81771 0.0
C3513 C 0.44378 0.51888 0.79924 0.0
C3514 C 0.43501 0.51597 0.80541 0.0
C3515 C 0.45999 0.51884 0.79947 0.0
C3516 C 0.46784 0.51607 0.80589 0.0
C3517 C 0.45916 0.51295 0.81203 0.0
C3518 C 0.44292 0.51293 0.8118 0.0
C3519 C 0.4851 0.51643 0.80615 0.0
C3520 C 0.49309 0.50372 0.80866 0.0
C3521 C 0.49369 0.52892 0.80363 0.0
C3522 C 0.48601 0.54304 0.80132 0.0
C3523 C 0.47571 0.55062 0.80589 0.0
C3524 C 0.4684 0.56384 0.80366 0.0
C3525 C 0.47137 0.56966 0.79689 0.0
C3526 C 0.48169 0.56229 0.79234 0.0
C3527 C 0.48903 0.54905 0.79454 0.0
H3528 H 0.4657 0.57989 0.79517 0.0
H3529 H 0.53718 0.45203 0.8171 0.0
H3530 H 0.06652 0.51084 0.30647 0.0
H3531 H 0.03807 0.51088 0.30677 0.0
H3532 H 0.03788 0.46246 0.30543 0.0
H3533 H 0.06628 0.46235 0.30508 0.0
H3534 H 0.01743 0.47595 0.29598 0.0
H3535 H 0.0302 0.47885 0.32088 0.0
H3536 H 0.04295 0.48958 0.33147 0.0
H3537 H 0.01936 0.53151 0.32807 0.0
H3538 H 0.00662 0.52109 0.3174 0.0
H3539 H 0.93863 0.46161 0.30347 0.0
H3540 H 0.96697 0.46225 0.30384 0.0
H3541 H 0.96565 0.50998 0.30793 0.0
H3542 H 0.93724 0.50932 0.30769 0.0
H3543 H 0.98704 0.49751 0.31593 0.0
H3544 H 0.97437 0.49552 0.29121 0.0
H3545 H 0.96174 0.48575 0.28039 0.0
H3546 H 0.98532 0.44357 0.283 0.0
H3547 H 0.99793 0.45301 0.2939 0.0
C3548 C 0.0604 0.50021 0.30623 0.0
C3549 C 0.06864 0.48659 0.30576 0.0
C3550 C 0.04416 0.50024 0.30645 0.0
C3551 C 0.03586 0.48666 0.30617 0.0
C3552 C 0.04405 0.47306 0.30568 0.0
C3553 C 0.06028 0.47301 0.30552 0.0
C3554 C 0.01862 0.48662 0.30623 0.0
C3555 C 0.01077 0.48048 0.30038 0.0
C3556 C 0.00996 0.49297 0.31188 0.0
C3557 C 0.01758 0.49924 0.3183 0.0
C3558 C 0.02783 0.4904 0.32236 0.0
C3559 C 0.03504 0.49642 0.32838 0.0
C3560 C 0.032 0.51123 0.33043 0.0
C3561 C 0.02172 0.52004 0.32647 0.0
C3562 C 0.01449 0.51409 0.32044 0.0
C3563 C 0.94439 0.47225 0.30442 0.0
C3564 C 0.9357 0.48544 0.3055 0.0
C3565 C 0.9606 0.47261 0.30463 0.0
C3566 C 0.9685 0.48621 0.30579 0.0
C3567 C 0.95984 0.49935 0.30701 0.0
C3568 C 0.94361 0.49896 0.30688 0.0
C3569 C 0.98578 0.48672 0.30568 0.0
C3570 C 0.99367 0.49298 0.31152 0.0
C3571 C 0.9945 0.48064 0.29998 0.0
C3572 C 0.98698 0.47493 0.29341 0.0
C3573 C 0.97678 0.48412 0.28951 0.0
C3574 C 0.96964 0.47865 0.28336 0.0
C3575 C 0.9727 0.46404 0.28102 0.0
C3576 C 0.98294 0.45488 0.28482 0.0
C3577 C 0.9901 0.46029 0.29098 0.0
H3578 H 0.96716 0.45982 0.27625 0.0
H3579 H 0.03758 0.51586 0.3351 0.0
H3580 H 0.43905 0.48282 0.2137 0.0
H3581 H 0.46733 0.48384 0.21319 0.0
H3582 H 0.46514 0.49546 0.19095 0.0
H3583 H 0.43676 0.4947 0.19143 0.0
H3584 H 0.48708 0.47403 0.19351 0.0
H3585 H 0.47364 0.52209 0.20294 0.0
H3586 H 0.46064 0.53996 0.211 0.0
H3587 H 0.4844 0.52055 0.22885 0.0
H3588 H 0.49738 0.50241 0.22091 0.0
H3589 H 0.56747 0.4942 0.19176 0.0
H3590 H 0.5391 0.49485 0.19116 0.0
H3591 H 0.53653 0.48356 0.21344 0.0
H3592 H 0.56481 0.48271 0.21406 0.0
H3593 H 0.51693 0.50623 0.21016 0.0
H3594 H 0.52938 0.45735 0.20067 0.0
H3595 H 0.5423 0.43959 0.19253 0.0
H3596 H 0.52039 0.46088 0.17465 0.0
H3597 H 0.5075 0.47891 0.18269 0.0
C3598 C 0.44454 0.48579 0.20871 0.0
C3599 C 0.43557 0.48879 0.20262 0.0
C3600 C 0.46073 0.48631 0.20843 0.0
C3601 C 0.46836 0.48989 0.20205 0.0
C3602 C 0.4595 0.49267 0.19592 0.0
C3603 C 0.44327 0.49218 0.19621 0.0
C3604 C 0.4856 0.49064 0.20181 0.0
C3605 C 0.49361 0.48125 0.19707 0.0
C3606 C 0.49413 0.49989 0.20653 0.0
C3607 C 0.48638 0.5108 0.21133 0.0
C3608 C 0.476 0.52155 0.20859 0.0
C3609 C 0.46865 0.53174 0.21314 0.0
C3610 C 0.47166 0.53136 0.22043 0.0
C3611 C 0.48206 0.52082 0.2232 0.0
C3612 C 0.48943 0.51059 0.21868 0.0
C3613 C 0.56087 0.49171 0.19651 0.0
C3614 C 0.56846 0.4884 0.20296 0.0
C3615 C 0.54465 0.49212 0.19617 0.0
C3616 C 0.53567 0.48916 0.20224 0.0
C3617 C 0.5432 0.48595 0.20869 0.0
C3618 C 0.5594 0.48553 0.20904 0.0
C3619 C 0.51843 0.48944 0.20194 0.0
C3620 C 0.51041 0.49906 0.20657 0.0
C3621 C 0.5099 0.48043 0.19711 0.0
C3622 C 0.51761 0.46958 0.19227 0.0
C3623 C 0.52742 0.45833 0.195 0.0
C3624 C 0.53472 0.4482 0.1904 0.0
C3625 C 0.53221 0.44913 0.18308 0.0
C3626 C 0.52235 0.46018 0.18033 0.0
C3627 C 0.51504 0.47035 0.1849 0.0
H3628 H 0.53786 0.44127 0.17953 0.0
H3629 H 0.46596 0.53927 0.22395 0.0
H3630 H 0.93692 0.50307 0.69407 0.0
H3631 H 0.9653 0.50306 0.69331 0.0
H3632 H 0.96759 0.53458 0.71071 0.0
H3633 H 0.93927 0.53496 0.71137 0.0
H3634 H 0.9872 0.54241 0.70015 0.0
H3635 H 0.97498 0.49729 0.71325 0.0
H3636 H 0.9622 0.47283 0.71521 0.0
H3637 H 0.98425 0.45502 0.69655 0.0
H3638 H 0.99701 0.47946 0.69442 0.0
H3639 H 0.06506 0.53529 0.71129 0.0
H3640 H 0.03678 0.53496 0.71051 0.0
H3641 H 0.03929 0.5032 0.69322 0.0
H3642 H 0.06767 0.50316 0.6941 0.0
H3643 H 0.01731 0.49516 0.70274 0.0
H3644 H 0.03068 0.53966 0.68995 0.0
H3645 H 0.04354 0.56404 0.6879 0.0
H3646 H 0.01936 0.58302 0.70573 0.0
H3647 H 0.00651 0.55868 0.70796 0.0
C3648 C 0.94347 0.5101 0.6977 0.0
C3649 C 0.93582 0.51896 0.70281 0.0
C3650 C 0.95969 0.50998 0.69729 0.0
C3651 C 0.96859 0.51871 0.702 0.0
C3652 C 0.96098 0.52773 0.70704 0.0
C3653 C 0.94478 0.52782 0.70745 0.0
C3654 C 0.98584 0.51846 0.70173 0.0
C3655 C 0.99378 0.5321 0.70079 0.0
C3656 C 0.99444 0.50495 0.70234 0.0
C3657 C 0.98681 0.49025 0.70363 0.0
C3658 C 0.977 0.4882 0.70953 0.0
C3659 C 0.96978 0.47433 0.71068 0.0
C3660 C 0.97238 0.46239 0.706 0.0
C3661 C 0.98223 0.46429 0.70017 0.0
C3662 C 0.98947 0.47814 0.69899 0.0
C3663 C 0.05962 0.52814 0.70735 0.0
C3664 C 0.06865 0.51925 0.70276 0.0
C3665 C 0.04343 0.52808 0.70687 0.0
C3666 C 0.0359 0.51919 0.70175 0.0
C3667 C 0.04485 0.5102 0.69719 0.0
C3668 C 0.06107 0.51028 0.69766 0.0
C3669 C 0.01867 0.51915 0.70127 0.0
C3670 C 0.01073 0.50547 0.70205 0.0
C3671 C 0.01006 0.53262 0.70049 0.0
C3672 C 0.01774 0.54729 0.69916 0.0
C3673 C 0.0282 0.54899 0.69347 0.0
C3674 C 0.03547 0.56281 0.69227 0.0
C3675 C 0.0323 0.57506 0.69669 0.0
C3676 C 0.02182 0.57352 0.70231 0.0
C3677 C 0.01452 0.55971 0.70354 0.0
H3678 H 0.03793 0.58575 0.69575 0.0
H3679 H 0.96678 0.45166 0.7069 0.0
loop_
_geom_bond_atom_site_label_1
_geom_bond_atom_site_label_2
_geom_bond_distance
_geom_bond_site_symmetry_2
_ccdc_geom_bond_type
C0 C1 1.264 . S
C0 C5 1.479 . S
C0 C10 1.465 . S
C1 C0 1.264 . S
C1 C3 1.339 . S
C1 H28 0.931 . S
C2 C3 1.395 . S
C2 C4 1.320 . S
C3 C1 1.339 . S
C3 C2 1.395 . S
C3 H29 0.929 . S
C4 C2 1.320 . S
C4 C5 1.405 . S
C4 H30 0.930 . S
C5 C0 1.479 . S
C5 C4 1.405 . S
C5 H31 0.931 . S
U6 O7 2.454 . S
U6 O8 2.458 . S
U6 C9 2.984 . S
U6 C10 2.847 . S
U6 C23 2.882 . S
U6 O24 2.441 . S
U6 O25 2.420 . S
U6 O26 2.455 . S
U6 O27 2.449 . S
O7 U6 2.454 . S
O7 C9 1.353 . S
O8 U6 2.458 . S
O8 C9 1.286 . S
C9 U6 2.984 . S
C9 O7 1.353 . S
C9 O8 1.286 . S
C9 C11 1.363 . S
C10 C0 1.465 . S
C10 U6 2.847 . S
C10 O24 1.249 . S
C10 O25 1.202 . S
C11 C9 1.363 . S
C11 C13 1.408 . S
C11 C16 1.342 . S
C12 C13 1.310 . S
C12 C15 1.461 . S
C12 H32 0.932 . S
C13 C11 1.408 . S
C13 C12 1.310 . S
C13 H33 0.930 . S
C14 C15 1.474 . S
C14 C16 1.285 . S
C14 H34 0.929 . S
C15 C12 1.461 . S
C15 C14 1.474 . S
C16 C11 1.342 . S
C16 C14 1.285 . S
C16 H35 0.930 . S
C17 C20 1.424 . S
C17 C22 1.245 . S
C17 C23 1.428 1_545 S
C18 C21 1.260 . S
C18 C22 1.477 . S
C18 H36 0.932 . S
C19 C20 1.384 . S
C19 C21 1.479 . S
C19 H37 0.929 . S
C20 C17 1.424 . S
C20 C19 1.384 . S
C20 H38 0.928 . S
C21 C18 1.260 . S
C21 C19 1.479 . S
C22 C17 1.245 . S
C22 C18 1.477 . S
C22 H39 0.932 . S
C23 U6 2.882 . S
C23 C17 1.428 1_565 S
C23 O26 1.301 . S
C23 O27 1.282 . S
O24 U6 2.441 . S
O24 C10 1.249 . S
O25 U6 2.420 . S
O25 C10 1.202 . S
O26 U6 2.455 . S
O26 C23 1.301 . S
O27 U6 2.449 . S
O27 C23 1.282 . S
H28 C1 0.931 . S
H29 C3 0.929 . S
H30 C4 0.930 . S
H31 C5 0.931 . S
H32 C12 0.932 . S
H33 C13 0.930 . S
H34 C14 0.929 . S
H35 C16 0.930 . S
H36 C18 0.932 . S
H37 C19 0.929 . S
H38 C20 0.928 . S
H39 C22 0.932 . S
C40 C41 1.264 . S
C40 C45 1.479 . S
C40 C50 1.465 . S
C41 C40 1.264 . S
C41 C43 1.339 . S
C41 H68 0.931 . S
C42 C43 1.395 . S
C42 C44 1.320 . S
C43 C41 1.339 . S
C43 C42 1.395 . S
C43 H69 0.929 . S
C44 C42 1.320 . S
C44 C45 1.405 . S
C44 H70 0.930 . S
C45 C40 1.479 . S
C45 C44 1.405 . S
C45 H71 0.931 . S
U46 O47 2.454 . S
U46 O48 2.458 . S
U46 C49 2.984 . S
U46 C50 2.847 . S
U46 C63 2.882 . S
U46 O64 2.441 . S
U46 O65 2.420 . S
U46 O66 2.455 . S
U46 O67 2.449 . S
O47 U46 2.454 . S
O47 C49 1.353 . S
O48 U46 2.458 . S
O48 C49 1.286 . S
C49 U46 2.984 . S
C49 O47 1.353 . S
C49 O48 1.286 . S
C49 C51 1.363 . S
C50 C40 1.465 . S
C50 U46 2.847 . S
C50 O64 1.249 . S
C50 O65 1.202 . S
C51 C49 1.363 . S
C51 C53 1.408 . S
C51 C56 1.342 . S
C52 C53 1.310 . S
C52 C55 1.461 . S
C52 H72 0.932 . S
C53 C51 1.408 . S
C53 C52 1.310 . S
C53 H73 0.930 . S
C54 C55 1.474 . S
C54 C56 1.285 . S
C54 H74 0.929 . S
C55 C52 1.461 . S
C55 C54 1.474 . S
C56 C51 1.342 . S
C56 C54 1.285 . S
C56 H75 0.930 . S
C57 C60 1.424 . S
C57 C62 1.245 . S
C57 C63 1.428 . S
C58 C61 1.260 . S
C58 C62 1.477 . S
C58 H76 0.932 . S
C59 C60 1.384 . S
C59 C61 1.479 . S
C59 H77 0.929 . S
C60 C57 1.424 . S
C60 C59 1.384 . S
C60 H78 0.928 . S
C61 C58 1.260 . S
C61 C59 1.479 . S
C62 C57 1.245 . S
C62 C58 1.477 . S
C62 H79 0.932 . S
C63 U46 2.882 . S
C63 C57 1.428 . S
C63 O66 1.301 . S
C63 O67 1.282 . S
O64 U46 2.441 . S
O64 C50 1.249 . S
O65 U46 2.420 . S
O65 C50 1.202 . S
O66 U46 2.455 . S
O66 C63 1.301 . S
O67 U46 2.449 . S
O67 C63 1.282 . S
H68 C41 0.931 . S
H69 C43 0.929 . S
H70 C44 0.930 . S
H71 C45 0.931 . S
H72 C52 0.932 . S
H73 C53 0.930 . S
H74 C54 0.929 . S
H75 C56 0.930 . S
H76 C58 0.932 . S
H77 C59 0.929 . S
H78 C60 0.928 . S
H79 C62 0.932 . S
C80 C81 1.264 . S
C80 C85 1.479 . S
C80 C90 1.465 . S
C81 C80 1.264 . S
C81 C83 1.339 . S
C81 H108 0.931 . S
C82 C83 1.395 . S
C82 C84 1.320 . S
C83 C81 1.339 . S
C83 C82 1.395 . S
C83 H109 0.929 . S
C84 C82 1.320 . S
C84 C85 1.405 . S
C84 H110 0.930 . S
C85 C80 1.479 . S
C85 C84 1.405 . S
C85 H111 0.931 . S
U86 O87 2.454 . S
U86 O88 2.458 . S
U86 C89 2.984 . S
U86 C90 2.847 . S
U86 C103 2.882 . S
U86 O104 2.441 . S
U86 O105 2.420 . S
U86 O106 2.455 . S
U86 O107 2.449 . S
O87 U86 2.454 . S
O87 C89 1.353 . S
O88 U86 2.458 . S
O88 C89 1.286 . S
C89 U86 2.984 . S
C89 O87 1.353 . S
C89 O88 1.286 . S
C89 C91 1.363 . S
C90 C80 1.465 . S
C90 U86 2.847 . S
C90 O104 1.249 . S
C90 O105 1.202 . S
C91 C89 1.363 . S
C91 C93 1.408 . S
C91 C96 1.342 . S
C92 C93 1.310 . S
C92 C95 1.461 . S
C92 H112 0.932 . S
C93 C91 1.408 . S
C93 C92 1.310 . S
C93 H113 0.930 . S
C94 C95 1.474 . S
C94 C96 1.285 . S
C94 H114 0.929 . S
C95 C92 1.461 . S
C95 C94 1.474 . S
C96 C91 1.342 . S
C96 C94 1.285 . S
C96 H115 0.930 . S
C97 C100 1.424 . S
C97 C102 1.245 . S
C97 C103 1.428 1_565 S
C98 C101 1.260 . S
C98 C102 1.477 . S
C98 H116 0.932 . S
C99 C100 1.384 . S
C99 C101 1.479 . S
C99 H117 0.929 . S
C100 C97 1.424 . S
C100 C99 1.384 . S
C100 H118 0.928 . S
C101 C98 1.260 . S
C101 C99 1.479 . S
C102 C97 1.245 . S
C102 C98 1.477 . S
C102 H119 0.932 . S
C103 U86 2.882 . S
C103 C97 1.428 1_545 S
C103 O106 1.301 . S
C103 O107 1.282 . S
O104 U86 2.441 . S
O104 C90 1.249 . S
O105 U86 2.420 . S
O105 C90 1.202 . S
O106 U86 2.455 . S
O106 C103 1.301 . S
O107 U86 2.449 . S
O107 C103 1.282 . S
H108 C81 0.931 . S
H109 C83 0.929 . S
H110 C84 0.930 . S
H111 C85 0.931 . S
H112 C92 0.932 . S
H113 C93 0.930 . S
H114 C94 0.929 . S
H115 C96 0.930 . S
H116 C98 0.932 . S
H117 C99 0.929 . S
H118 C100 0.928 . S
H119 C102 0.932 . S
C120 C121 1.264 . S
C120 C125 1.479 . S
C120 C130 1.465 . S
C121 C120 1.264 . S
C121 C123 1.339 . S
C121 H148 0.931 . S
C122 C123 1.395 . S
C122 C124 1.320 . S
C123 C121 1.339 . S
C123 C122 1.395 . S
C123 H149 0.929 . S
C124 C122 1.320 . S
C124 C125 1.405 . S
C124 H150 0.930 . S
C125 C120 1.479 . S
C125 C124 1.405 . S
C125 H151 0.931 . S
U126 O127 2.454 . S
U126 O128 2.458 . S
U126 C129 2.984 . S
U126 C130 2.847 . S
U126 C143 2.882 . S
U126 O144 2.441 . S
U126 O145 2.420 . S
U126 O146 2.455 . S
U126 O147 2.449 . S
O127 U126 2.454 . S
O127 C129 1.353 . S
O128 U126 2.458 . S
O128 C129 1.286 . S
C129 U126 2.984 . S
C129 O127 1.353 . S
C129 O128 1.286 . S
C129 C131 1.363 . S
C130 C120 1.465 . S
C130 U126 2.847 . S
C130 O144 1.249 . S
C130 O145 1.202 . S
C131 C129 1.363 . S
C131 C133 1.408 . S
C131 C136 1.342 . S
C132 C133 1.310 . S
C132 C135 1.461 . S
C132 H152 0.932 . S
C133 C131 1.408 . S
C133 C132 1.310 . S
C133 H153 0.930 . S
C134 C135 1.474 . S
C134 C136 1.285 . S
C134 H154 0.929 . S
C135 C132 1.461 . S
C135 C134 1.474 . S
C136 C131 1.342 . S
C136 C134 1.285 . S
C136 H155 0.930 . S
C137 C140 1.424 . S
C137 C142 1.245 . S
C137 C143 1.428 . S
C138 C141 1.260 . S
C138 C142 1.477 . S
C138 H156 0.932 . S
C139 C140 1.384 . S
C139 C141 1.479 . S
C139 H157 0.929 . S
C140 C137 1.424 . S
C140 C139 1.384 . S
C140 H158 0.928 . S
C141 C138 1.260 . S
C141 C139 1.479 . S
C142 C137 1.245 . S
C142 C138 1.477 . S
C142 H159 0.932 . S
C143 U126 2.882 . S
C143 C137 1.428 . S
C143 O146 1.301 . S
C143 O147 1.282 . S
O144 U126 2.441 . S
O144 C130 1.249 . S
O145 U126 2.420 . S
O145 C130 1.202 . S
O146 U126 2.455 . S
O146 C143 1.301 . S
O147 U126 2.449 . S
O147 C143 1.282 . S
H148 C121 0.931 . S
H149 C123 0.929 . S
H150 C124 0.930 . S
H151 C125 0.931 . S
H152 C132 0.932 . S
H153 C133 0.930 . S
H154 C134 0.929 . S
H155 C136 0.930 . S
H156 C138 0.932 . S
H157 C139 0.929 . S
H158 C140 0.928 . S
H159 C142 0.932 . S
C160 C161 1.264 . S
C160 C165 1.479 . S
C160 C170 1.465 . S
C161 C160 1.264 . S
C161 C163 1.339 . S
C161 H188 0.931 . S
C162 C163 1.395 . S
C162 C164 1.320 . S
C163 C161 1.339 . S
C163 C162 1.395 . S
C163 H189 0.929 . S
C164 C162 1.320 . S
C164 C165 1.405 . S
C164 H190 0.930 . S
C165 C160 1.479 . S
C165 C164 1.405 . S
C165 H191 0.931 . S
U166 O167 2.454 . S
U166 O168 2.458 . S
U166 C169 2.984 . S
U166 C170 2.847 . S
U166 C183 2.882 . S
U166 O184 2.441 . S
U166 O185 2.420 . S
U166 O186 2.455 . S
U166 O187 2.449 . S
O167 U166 2.454 . S
O167 C169 1.353 . S
O168 U166 2.458 . S
O168 C169 1.286 . S
C169 U166 2.984 . S
C169 O167 1.353 . S
C169 O168 1.286 . S
C169 C171 1.363 . S
C170 C160 1.465 . S
C170 U166 2.847 . S
C170 O184 1.249 . S
C170 O185 1.202 . S
C171 C169 1.363 . S
C171 C173 1.408 . S
C171 C176 1.342 . S
C172 C173 1.310 . S
C172 C175 1.461 . S
C172 H192 0.932 . S
C173 C171 1.408 . S
C173 C172 1.310 . S
C173 H193 0.930 . S
C174 C175 1.474 . S
C174 C176 1.285 . S
C174 H194 0.929 . S
C175 C172 1.461 . S
C175 C174 1.474 . S
C176 C171 1.342 . S
C176 C174 1.285 . S
C176 H195 0.930 . S
C177 C180 1.424 . S
C177 C182 1.245 . S
C177 C183 1.428 1_565 S
C178 C181 1.260 . S
C178 C182 1.477 . S
C178 H196 0.932 . S
C179 C180 1.384 . S
C179 C181 1.479 . S
C179 H197 0.929 . S
C180 C177 1.424 . S
C180 C179 1.384 . S
C180 H198 0.928 . S
C181 C178 1.260 . S
C181 C179 1.479 . S
C182 C177 1.245 . S
C182 C178 1.477 . S
C182 H199 0.932 . S
C183 U166 2.882 . S
C183 C177 1.428 1_545 S
C183 O186 1.301 . S
C183 O187 1.282 . S
O184 U166 2.441 . S
O184 C170 1.249 . S
O185 U166 2.420 . S
O185 C170 1.202 . S
O186 U166 2.455 . S
O186 C183 1.301 . S
O187 U166 2.449 . S
O187 C183 1.282 . S
H188 C161 0.931 . S
H189 C163 0.929 . S
H190 C164 0.930 . S
H191 C165 0.931 . S
H192 C172 0.932 . S
H193 C173 0.930 . S
H194 C174 0.929 . S
H195 C176 0.930 . S
H196 C178 0.932 . S
H197 C179 0.929 . S
H198 C180 0.928 . S
H199 C182 0.932 . S
C200 C201 1.264 . S
C200 C205 1.479 . S
C200 C210 1.465 . S
C201 C200 1.264 . S
C201 C203 1.339 . S
C201 H228 0.931 . S
C202 C203 1.395 . S
C202 C204 1.320 . S
C203 C201 1.339 . S
C203 C202 1.395 . S
C203 H229 0.929 . S
C204 C202 1.320 . S
C204 C205 1.405 . S
C204 H230 0.930 . S
C205 C200 1.479 . S
C205 C204 1.405 . S
C205 H231 0.931 . S
U206 O207 2.454 . S
U206 O208 2.458 . S
U206 C209 2.984 . S
U206 C210 2.847 . S
U206 C223 2.882 . S
U206 O224 2.441 . S
U206 O225 2.420 . S
U206 O226 2.455 . S
U206 O227 2.449 . S
O207 U206 2.454 . S
O207 C209 1.353 . S
O208 U206 2.458 . S
O208 C209 1.286 . S
C209 U206 2.984 . S
C209 O207 1.353 . S
C209 O208 1.286 . S
C209 C211 1.363 . S
C210 C200 1.465 . S
C210 U206 2.847 . S
C210 O224 1.249 . S
C210 O225 1.202 . S
C211 C209 1.363 . S
C211 C213 1.408 . S
C211 C216 1.342 . S
C212 C213 1.310 . S
C212 C215 1.461 . S
C212 H232 0.932 . S
C213 C211 1.408 . S
C213 C212 1.310 . S
C213 H233 0.930 . S
C214 C215 1.474 . S
C214 C216 1.285 . S
C214 H234 0.929 . S
C215 C212 1.461 . S
C215 C214 1.474 . S
C216 C211 1.342 . S
C216 C214 1.285 . S
C216 H235 0.930 . S
C217 C220 1.424 . S
C217 C222 1.245 . S
C217 C223 1.428 . S
C218 C221 1.260 . S
C218 C222 1.477 . S
C218 H236 0.932 . S
C219 C220 1.384 . S
C219 C221 1.479 . S
C219 H237 0.929 . S
C220 C217 1.424 . S
C220 C219 1.384 . S
C220 H238 0.928 . S
C221 C218 1.260 . S
C221 C219 1.479 . S
C222 C217 1.245 . S
C222 C218 1.477 . S
C222 H239 0.932 . S
C223 U206 2.882 . S
C223 C217 1.428 . S
C223 O226 1.301 . S
C223 O227 1.282 . S
O224 U206 2.441 . S
O224 C210 1.249 . S
O225 U206 2.420 . S
O225 C210 1.202 . S
O226 U206 2.455 . S
O226 C223 1.301 . S
O227 U206 2.449 . S
O227 C223 1.282 . S
H228 C201 0.931 . S
H229 C203 0.929 . S
H230 C204 0.930 . S
H231 C205 0.931 . S
H232 C212 0.932 . S
H233 C213 0.930 . S
H234 C214 0.929 . S
H235 C216 0.930 . S
H236 C218 0.932 . S
H237 C219 0.929 . S
H238 C220 0.928 . S
H239 C222 0.932 . S
C240 C241 1.264 . S
C240 C245 1.479 . S
C240 C250 1.465 . S
C241 C240 1.264 . S
C241 C243 1.339 . S
C241 H268 0.931 . S
C242 C243 1.395 . S
C242 C244 1.320 . S
C243 C241 1.339 . S
C243 C242 1.395 . S
C243 H269 0.929 . S
C244 C242 1.320 . S
C244 C245 1.405 . S
C244 H270 0.930 . S
C245 C240 1.479 . S
C245 C244 1.405 . S
C245 H271 0.931 . S
U246 O247 2.454 . S
U246 O248 2.458 . S
U246 C249 2.984 . S
U246 C250 2.847 . S
U246 C263 2.882 . S
U246 O264 2.441 . S
U246 O265 2.420 . S
U246 O266 2.455 . S
U246 O267 2.449 . S
O247 U246 2.454 . S
O247 C249 1.353 . S
O248 U246 2.458 . S
O248 C249 1.286 . S
C249 U246 2.984 . S
C249 O247 1.353 . S
C249 O248 1.286 . S
C249 C251 1.363 . S
C250 C240 1.465 . S
C250 U246 2.847 . S
C250 O264 1.249 . S
C250 O265 1.202 . S
C251 C249 1.363 . S
C251 C253 1.408 . S
C251 C256 1.342 . S
C252 C253 1.310 . S
C252 C255 1.461 . S
C252 H272 0.932 . S
C253 C251 1.408 . S
C253 C252 1.310 . S
C253 H273 0.930 . S
C254 C255 1.474 . S
C254 C256 1.285 . S
C254 H274 0.929 . S
C255 C252 1.461 . S
C255 C254 1.474 . S
C256 C251 1.342 . S
C256 C254 1.285 . S
C256 H275 0.930 . S
C257 C260 1.424 . S
C257 C262 1.245 . S
C257 C263 1.428 1_545 S
C258 C261 1.260 . S
C258 C262 1.477 . S
C258 H276 0.932 . S
C259 C260 1.384 . S
C259 C261 1.479 . S
C259 H277 0.929 . S
C260 C257 1.424 . S
C260 C259 1.384 . S
C260 H278 0.928 . S
C261 C258 1.260 . S
C261 C259 1.479 . S
C262 C257 1.245 . S
C262 C258 1.477 . S
C262 H279 0.932 . S
C263 U246 2.882 . S
C263 C257 1.428 1_565 S
C263 O266 1.301 . S
C263 O267 1.282 . S
O264 U246 2.441 . S
O264 C250 1.249 . S
O265 U246 2.420 . S
O265 C250 1.202 . S
O266 U246 2.455 . S
O266 C263 1.301 . S
O267 U246 2.449 . S
O267 C263 1.282 . S
H268 C241 0.931 . S
H269 C243 0.929 . S
H270 C244 0.930 . S
H271 C245 0.931 . S
H272 C252 0.932 . S
H273 C253 0.930 . S
H274 C254 0.929 . S
H275 C256 0.930 . S
H276 C258 0.932 . S
H277 C259 0.929 . S
H278 C260 0.928 . S
H279 C262 0.932 . S
C280 C281 1.264 . S
C280 C285 1.479 . S
C280 C290 1.465 . S
C281 C280 1.264 . S
C281 C283 1.339 . S
C281 H308 0.931 . S
C282 C283 1.395 . S
C282 C284 1.320 . S
C283 C281 1.339 . S
C283 C282 1.395 . S
C283 H309 0.929 . S
C284 C282 1.320 . S
C284 C285 1.405 . S
C284 H310 0.930 . S
C285 C280 1.479 . S
C285 C284 1.405 . S
C285 H311 0.931 . S
U286 O287 2.454 . S
U286 O288 2.458 . S
U286 C289 2.984 . S
U286 C290 2.847 . S
U286 C303 2.882 . S
U286 O304 2.441 . S
U286 O305 2.420 . S
U286 O306 2.455 . S
U286 O307 2.449 . S
O287 U286 2.454 . S
O287 C289 1.353 . S
O288 U286 2.458 . S
O288 C289 1.286 . S
C289 U286 2.984 . S
C289 O287 1.353 . S
C289 O288 1.286 . S
C289 C291 1.363 . S
C290 C280 1.465 . S
C290 U286 2.847 . S
C290 O304 1.249 . S
C290 O305 1.202 . S
C291 C289 1.363 . S
C291 C293 1.408 . S
C291 C296 1.342 . S
C292 C293 1.310 . S
C292 C295 1.461 . S
C292 H312 0.932 . S
C293 C291 1.408 . S
C293 C292 1.310 . S
C293 H313 0.930 . S
C294 C295 1.474 . S
C294 C296 1.285 . S
C294 H314 0.929 . S
C295 C292 1.461 . S
C295 C294 1.474 . S
C296 C291 1.342 . S
C296 C294 1.285 . S
C296 H315 0.930 . S
C297 C300 1.424 . S
C297 C302 1.245 . S
C297 C303 1.428 . S
C298 C301 1.260 . S
C298 C302 1.477 . S
C298 H316 0.932 . S
C299 C300 1.384 . S
C299 C301 1.479 . S
C299 H317 0.929 . S
C300 C297 1.424 . S
C300 C299 1.384 . S
C300 H318 0.928 . S
C301 C298 1.260 . S
C301 C299 1.479 . S
C302 C297 1.245 . S
C302 C298 1.477 . S
C302 H319 0.932 . S
C303 U286 2.882 . S
C303 C297 1.428 . S
C303 O306 1.301 . S
C303 O307 1.282 . S
O304 U286 2.441 . S
O304 C290 1.249 . S
O305 U286 2.420 . S
O305 C290 1.202 . S
O306 U286 2.455 . S
O306 C303 1.301 . S
O307 U286 2.449 . S
O307 C303 1.282 . S
H308 C281 0.931 . S
H309 C283 0.929 . S
H310 C284 0.930 . S
H311 C285 0.931 . S
H312 C292 0.932 . S
H313 C293 0.930 . S
H314 C294 0.929 . S
H315 C296 0.930 . S
H316 C298 0.932 . S
H317 C299 0.929 . S
H318 C300 0.928 . S
H319 C302 0.932 . S
C320 C321 1.264 . S
C320 C325 1.479 1_565 S
C320 C330 1.465 . S
C321 C320 1.264 . S
C321 C323 1.343 . S
C321 H348 0.931 . S
C322 C323 1.388 1_545 S
C322 C324 1.320 . S
C323 C321 1.343 . S
C323 C322 1.388 1_565 S
C323 H349 0.932 . S
C324 C322 1.320 . S
C324 C325 1.405 . S
C324 H350 0.930 . S
C325 C320 1.479 1_545 S
C325 C324 1.405 . S
C325 H351 0.931 . S
U326 O327 2.441 1_565 S
U326 O328 2.458 . S
U326 C329 2.998 . S
U326 C330 2.847 . S
U326 C343 2.882 . S
U326 O344 2.441 . S
U326 O345 2.420 . S
U326 O346 2.455 . S
U326 O347 2.449 . S
O327 U326 2.441 1_545 S
O327 C329 1.349 1_545 S
O328 U326 2.458 . S
O328 C329 1.300 . S
C329 U326 2.998 . S
C329 O327 1.349 1_565 S
C329 O328 1.300 . S
C329 C331 1.353 1_565 S
C330 C320 1.465 . S
C330 U326 2.847 . S
C330 O344 1.249 . S
C330 O345 1.202 . S
C331 C329 1.353 1_545 S
C331 C333 1.408 . S
C331 C336 1.342 . S
C332 C333 1.310 . S
C332 C335 1.461 . S
C332 H352 0.932 . S
C333 C331 1.408 . S
C333 C332 1.310 . S
C333 H353 0.930 . S
C334 C335 1.474 . S
C334 C336 1.285 . S
C334 H354 0.929 . S
C335 C332 1.461 . S
C335 C334 1.474 . S
C336 C331 1.342 . S
C336 C334 1.285 . S
C336 H355 0.937 . S
C337 C340 1.424 . S
C337 C342 1.245 . S
C337 C343 1.428 . S
C338 C341 1.260 . S
C338 C342 1.477 . S
C338 H356 0.932 . S
C339 C340 1.384 . S
C339 C341 1.479 . S
C339 H357 0.929 . S
C340 C337 1.424 . S
C340 C339 1.384 . S
C340 H358 0.928 . S
C341 C338 1.260 . S
C341 C339 1.479 . S
C342 C337 1.245 . S
C342 C338 1.477 . S
C342 H359 0.932 . S
C343 U326 2.882 . S
C343 C337 1.428 . S
C343 O346 1.301 . S
C343 O347 1.282 . S
O344 U326 2.441 . S
O344 C330 1.249 . S
O345 U326 2.420 . S
O345 C330 1.202 . S
O346 U326 2.455 . S
O346 C343 1.301 . S
O347 U326 2.449 . S
O347 C343 1.282 . S
H348 C321 0.931 . S
H349 C323 0.932 . S
H350 C324 0.930 . S
H351 C325 0.931 . S
H352 C332 0.932 . S
H353 C333 0.930 . S
H354 C334 0.929 . S
H355 C336 0.937 . S
H356 C338 0.932 . S
H357 C339 0.929 . S
H358 C340 0.928 . S
H359 C342 0.932 . S
C360 C361 1.264 . S
C360 C365 1.479 . S
C360 C370 1.465 . S
C361 C360 1.264 . S
C361 C363 1.339 . S
C361 H388 0.931 . S
C362 C363 1.395 . S
C362 C364 1.320 . S
C363 C361 1.339 . S
C363 C362 1.395 . S
C363 H389 0.929 . S
C364 C362 1.320 . S
C364 C365 1.405 . S
C364 H390 0.930 . S
C365 C360 1.479 . S
C365 C364 1.405 . S
C365 H391 0.931 . S
U366 O367 2.454 . S
U366 O368 2.458 . S
U366 C369 2.984 . S
U366 C370 2.847 . S
U366 C383 2.882 . S
U366 O384 2.441 . S
U366 O385 2.420 . S
U366 O386 2.455 . S
U366 O387 2.449 . S
O367 U366 2.454 . S
O367 C369 1.353 . S
O368 U366 2.458 . S
O368 C369 1.286 . S
C369 U366 2.984 . S
C369 O367 1.353 . S
C369 O368 1.286 . S
C369 C371 1.363 . S
C370 C360 1.465 . S
C370 U366 2.847 . S
C370 O384 1.249 . S
C370 O385 1.202 . S
C371 C369 1.363 . S
C371 C373 1.408 . S
C371 C376 1.342 . S
C372 C373 1.310 . S
C372 C375 1.461 . S
C372 H392 0.932 . S
C373 C371 1.408 . S
C373 C372 1.310 . S
C373 H393 0.930 . S
C374 C375 1.474 . S
C374 C376 1.285 . S
C374 H394 0.929 . S
C375 C372 1.461 . S
C375 C374 1.474 . S
C376 C371 1.342 . S
C376 C374 1.285 . S
C376 H395 0.930 . S
C377 C380 1.424 . S
C377 C382 1.245 . S
C377 C383 1.428 . S
C378 C381 1.260 . S
C378 C382 1.477 . S
C378 H396 0.932 . S
C379 C380 1.384 . S
C379 C381 1.479 . S
C379 H397 0.929 . S
C380 C377 1.424 . S
C380 C379 1.384 . S
C380 H398 0.928 . S
C381 C378 1.260 . S
C381 C379 1.479 . S
C382 C377 1.245 . S
C382 C378 1.477 . S
C382 H399 0.932 . S
C383 U366 2.882 . S
C383 C377 1.428 . S
C383 O386 1.301 . S
C383 O387 1.282 . S
O384 U366 2.441 . S
O384 C370 1.249 . S
O385 U366 2.420 . S
O385 C370 1.202 . S
O386 U366 2.455 . S
O386 C383 1.301 . S
O387 U366 2.449 . S
O387 C383 1.282 . S
H388 C361 0.931 . S
H389 C363 0.929 . S
H390 C364 0.930 . S
H391 C365 0.931 . S
H392 C372 0.932 . S
H393 C373 0.930 . S
H394 C374 0.929 . S
H395 C376 0.930 . S
H396 C378 0.932 . S
H397 C379 0.929 . S
H398 C380 0.928 . S
H399 C382 0.932 . S
C400 C401 1.264 . S
C400 C405 1.479 1_545 S
C400 C410 1.465 . S
C401 C400 1.264 . S
C401 C403 1.343 . S
C401 H428 0.931 . S
C402 C403 1.388 1_565 S
C402 C404 1.320 . S
C403 C401 1.343 . S
C403 C402 1.388 1_545 S
C403 H429 0.932 . S
C404 C402 1.320 . S
C404 C405 1.405 . S
C404 H430 0.930 . S
C405 C400 1.479 1_565 S
C405 C404 1.405 . S
C405 H431 0.931 . S
U406 O407 2.441 1_545 S
U406 O408 2.458 . S
U406 C409 2.998 . S
U406 C410 2.847 . S
U406 C423 2.882 . S
U406 O424 2.441 . S
U406 O425 2.420 . S
U406 O426 2.455 . S
U406 O427 2.449 . S
O407 U406 2.441 1_565 S
O407 C409 1.349 1_565 S
O408 U406 2.458 . S
O408 C409 1.300 . S
C409 U406 2.998 . S
C409 O407 1.349 1_545 S
C409 O408 1.300 . S
C409 C411 1.353 1_545 S
C410 C400 1.465 . S
C410 U406 2.847 . S
C410 O424 1.249 . S
C410 O425 1.202 . S
C411 C409 1.353 1_565 S
C411 C413 1.408 . S
C411 C416 1.342 . S
C412 C413 1.310 . S
C412 C415 1.461 . S
C412 H432 0.932 . S
C413 C411 1.408 . S
C413 C412 1.310 . S
C413 H433 0.930 . S
C414 C415 1.474 . S
C414 C416 1.285 . S
C414 H434 0.929 . S
C415 C412 1.461 . S
C415 C414 1.474 . S
C416 C411 1.342 . S
C416 C414 1.285 . S
C416 H435 0.937 . S
C417 C420 1.424 . S
C417 C422 1.245 . S
C417 C423 1.428 . S
C418 C421 1.260 . S
C418 C422 1.477 . S
C418 H436 0.932 . S
C419 C420 1.384 . S
C419 C421 1.479 . S
C419 H437 0.929 . S
C420 C417 1.424 . S
C420 C419 1.384 . S
C420 H438 0.928 . S
C421 C418 1.260 . S
C421 C419 1.479 . S
C422 C417 1.245 . S
C422 C418 1.477 . S
C422 H439 0.932 . S
C423 U406 2.882 . S
C423 C417 1.428 . S
C423 O426 1.301 . S
C423 O427 1.282 . S
O424 U406 2.441 . S
O424 C410 1.249 . S
O425 U406 2.420 . S
O425 C410 1.202 . S
O426 U406 2.455 . S
O426 C423 1.301 . S
O427 U406 2.449 . S
O427 C423 1.282 . S
H428 C401 0.931 . S
H429 C403 0.932 . S
H430 C404 0.930 . S
H431 C405 0.931 . S
H432 C412 0.932 . S
H433 C413 0.930 . S
H434 C414 0.929 . S
H435 C416 0.937 . S
H436 C418 0.932 . S
H437 C419 0.929 . S
H438 C420 0.928 . S
H439 C422 0.932 . S
C440 C441 1.264 . S
C440 C445 1.479 . S
C440 C450 1.465 . S
C441 C440 1.264 . S
C441 C443 1.339 . S
C441 H468 0.931 . S
C442 C443 1.395 . S
C442 C444 1.320 . S
C443 C441 1.339 . S
C443 C442 1.395 . S
C443 H469 0.929 . S
C444 C442 1.320 . S
C444 C445 1.405 . S
C444 H470 0.930 . S
C445 C440 1.479 . S
C445 C444 1.405 . S
C445 H471 0.931 . S
U446 O447 2.454 . S
U446 O448 2.458 . S
U446 C449 2.984 . S
U446 C450 2.847 . S
U446 C463 2.882 . S
U446 O464 2.441 . S
U446 O465 2.420 . S
U446 O466 2.455 . S
U446 O467 2.449 . S
O447 U446 2.454 . S
O447 C449 1.353 . S
O448 U446 2.458 . S
O448 C449 1.286 . S
C449 U446 2.984 . S
C449 O447 1.353 . S
C449 O448 1.286 . S
C449 C451 1.363 . S
C450 C440 1.465 . S
C450 U446 2.847 . S
C450 O464 1.249 . S
C450 O465 1.202 . S
C451 C449 1.363 . S
C451 C453 1.408 . S
C451 C456 1.342 . S
C452 C453 1.310 . S
C452 C455 1.461 . S
C452 H472 0.932 . S
C453 C451 1.408 . S
C453 C452 1.310 . S
C453 H473 0.930 . S
C454 C455 1.474 . S
C454 C456 1.285 . S
C454 H474 0.929 . S
C455 C452 1.461 . S
C455 C454 1.474 . S
C456 C451 1.342 . S
C456 C454 1.285 . S
C456 H475 0.930 . S
C457 C460 1.424 . S
C457 C462 1.245 . S
C457 C463 1.428 . S
C458 C461 1.260 . S
C458 C462 1.477 . S
C458 H476 0.932 . S
C459 C460 1.384 . S
C459 C461 1.479 . S
C459 H477 0.929 . S
C460 C457 1.424 . S
C460 C459 1.384 . S
C460 H478 0.928 . S
C461 C458 1.260 . S
C461 C459 1.479 . S
C462 C457 1.245 . S
C462 C458 1.477 . S
C462 H479 0.932 . S
C463 U446 2.882 . S
C463 C457 1.428 . S
C463 O466 1.301 . S
C463 O467 1.282 . S
O464 U446 2.441 . S
O464 C450 1.249 . S
O465 U446 2.420 . S
O465 C450 1.202 . S
O466 U446 2.455 . S
O466 C463 1.301 . S
O467 U446 2.449 . S
O467 C463 1.282 . S
H468 C441 0.931 . S
H469 C443 0.929 . S
H470 C444 0.930 . S
H471 C445 0.931 . S
H472 C452 0.932 . S
H473 C453 0.930 . S
H474 C454 0.929 . S
H475 C456 0.930 . S
H476 C458 0.932 . S
H477 C459 0.929 . S
H478 C460 0.928 . S
H479 C462 0.932 . S
C480 C481 1.264 . S
C480 C485 1.479 1_545 S
C480 C490 1.465 . S
C481 C480 1.264 . S
C481 C483 1.343 . S
C481 H508 0.931 . S
C482 C483 1.388 1_565 S
C482 C484 1.320 . S
C483 C481 1.343 . S
C483 C482 1.388 1_545 S
C483 H509 0.932 . S
C484 C482 1.320 . S
C484 C485 1.405 . S
C484 H510 0.930 . S
C485 C480 1.479 1_565 S
C485 C484 1.405 . S
C485 H511 0.931 . S
U486 O487 2.441 1_545 S
U486 O488 2.458 . S
U486 C489 2.998 . S
U486 C490 2.847 . S
U486 C503 2.882 . S
U486 O504 2.441 . S
U486 O505 2.420 . S
U486 O506 2.455 . S
U486 O507 2.449 . S
O487 U486 2.441 1_565 S
O487 C489 1.349 1_565 S
O488 U486 2.458 . S
O488 C489 1.300 . S
C489 U486 2.998 . S
C489 O487 1.349 1_545 S
C489 O488 1.300 . S
C489 C491 1.353 1_545 S
C490 C480 1.465 . S
C490 U486 2.847 . S
C490 O504 1.249 . S
C490 O505 1.202 . S
C491 C489 1.353 1_565 S
C491 C493 1.408 . S
C491 C496 1.342 . S
C492 C493 1.310 . S
C492 C495 1.461 . S
C492 H512 0.932 . S
C493 C491 1.408 . S
C493 C492 1.310 . S
C493 H513 0.930 . S
C494 C495 1.474 . S
C494 C496 1.285 . S
C494 H514 0.929 . S
C495 C492 1.461 . S
C495 C494 1.474 . S
C496 C491 1.342 . S
C496 C494 1.285 . S
C496 H515 0.937 . S
C497 C500 1.424 . S
C497 C502 1.245 . S
C497 C503 1.428 . S
C498 C501 1.260 . S
C498 C502 1.477 . S
C498 H516 0.932 . S
C499 C500 1.384 . S
C499 C501 1.479 . S
C499 H517 0.929 . S
C500 C497 1.424 . S
C500 C499 1.384 . S
C500 H518 0.928 . S
C501 C498 1.260 . S
C501 C499 1.479 . S
C502 C497 1.245 . S
C502 C498 1.477 . S
C502 H519 0.932 . S
C503 U486 2.882 . S
C503 C497 1.428 . S
C503 O506 1.301 . S
C503 O507 1.282 . S
O504 U486 2.441 . S
O504 C490 1.249 . S
O505 U486 2.420 . S
O505 C490 1.202 . S
O506 U486 2.455 . S
O506 C503 1.301 . S
O507 U486 2.449 . S
O507 C503 1.282 . S
H508 C481 0.931 . S
H509 C483 0.932 . S
H510 C484 0.930 . S
H511 C485 0.931 . S
H512 C492 0.932 . S
H513 C493 0.930 . S
H514 C494 0.929 . S
H515 C496 0.937 . S
H516 C498 0.932 . S
H517 C499 0.929 . S
H518 C500 0.928 . S
H519 C502 0.932 . S
C520 C521 1.264 . S
C520 C525 1.479 . S
C520 C530 1.465 . S
C521 C520 1.264 . S
C521 C523 1.339 . S
C521 H548 0.931 . S
C522 C523 1.395 . S
C522 C524 1.320 . S
C523 C521 1.339 . S
C523 C522 1.395 . S
C523 H549 0.929 . S
C524 C522 1.320 . S
C524 C525 1.405 . S
C524 H550 0.930 . S
C525 C520 1.479 . S
C525 C524 1.405 . S
C525 H551 0.931 . S
U526 O527 2.454 . S
U526 O528 2.458 . S
U526 C529 2.984 . S
U526 C530 2.847 . S
U526 C543 2.882 . S
U526 O544 2.441 . S
U526 O545 2.420 . S
U526 O546 2.455 . S
U526 O547 2.449 . S
O527 U526 2.454 . S
O527 C529 1.353 . S
O528 U526 2.458 . S
O528 C529 1.286 . S
C529 U526 2.984 . S
C529 O527 1.353 . S
C529 O528 1.286 . S
C529 C531 1.363 . S
C530 C520 1.465 . S
C530 U526 2.847 . S
C530 O544 1.249 . S
C530 O545 1.202 . S
C531 C529 1.363 . S
C531 C533 1.408 . S
C531 C536 1.342 . S
C532 C533 1.310 . S
C532 C535 1.461 . S
C532 H552 0.932 . S
C533 C531 1.408 . S
C533 C532 1.310 . S
C533 H553 0.930 . S
C534 C535 1.474 . S
C534 C536 1.285 . S
C534 H554 0.929 . S
C535 C532 1.461 . S
C535 C534 1.474 . S
C536 C531 1.342 . S
C536 C534 1.285 . S
C536 H555 0.930 . S
C537 C540 1.424 . S
C537 C542 1.245 . S
C537 C543 1.428 . S
C538 C541 1.260 . S
C538 C542 1.477 . S
C538 H556 0.932 . S
C539 C540 1.384 . S
C539 C541 1.479 . S
C539 H557 0.929 . S
C540 C537 1.424 . S
C540 C539 1.384 . S
C540 H558 0.928 . S
C541 C538 1.260 . S
C541 C539 1.479 . S
C542 C537 1.245 . S
C542 C538 1.477 . S
C542 H559 0.932 . S
C543 U526 2.882 . S
C543 C537 1.428 . S
C543 O546 1.301 . S
C543 O547 1.282 . S
O544 U526 2.441 . S
O544 C530 1.249 . S
O545 U526 2.420 . S
O545 C530 1.202 . S
O546 U526 2.455 . S
O546 C543 1.301 . S
O547 U526 2.449 . S
O547 C543 1.282 . S
H548 C521 0.931 . S
H549 C523 0.929 . S
H550 C524 0.930 . S
H551 C525 0.931 . S
H552 C532 0.932 . S
H553 C533 0.930 . S
H554 C534 0.929 . S
H555 C536 0.930 . S
H556 C538 0.932 . S
H557 C539 0.929 . S
H558 C540 0.928 . S
H559 C542 0.932 . S
C560 C561 1.264 . S
C560 C565 1.479 1_565 S
C560 C570 1.465 . S
C561 C560 1.264 . S
C561 C563 1.343 . S
C561 H588 0.931 . S
C562 C563 1.388 1_545 S
C562 C564 1.320 . S
C563 C561 1.343 . S
C563 C562 1.388 1_565 S
C563 H589 0.932 . S
C564 C562 1.320 . S
C564 C565 1.405 . S
C564 H590 0.930 . S
C565 C560 1.479 1_545 S
C565 C564 1.405 . S
C565 H591 0.931 . S
U566 O567 2.441 1_565 S
U566 O568 2.458 . S
U566 C569 2.998 . S
U566 C570 2.847 . S
U566 C583 2.882 . S
U566 O584 2.441 . S
U566 O585 2.420 . S
U566 O586 2.455 . S
U566 O587 2.449 . S
O567 U566 2.441 1_545 S
O567 C569 1.349 1_545 S
O568 U566 2.458 . S
O568 C569 1.300 . S
C569 U566 2.998 . S
C569 O567 1.349 1_565 S
C569 O568 1.300 . S
C569 C571 1.353 1_565 S
C570 C560 1.465 . S
C570 U566 2.847 . S
C570 O584 1.249 . S
C570 O585 1.202 . S
C571 C569 1.353 1_545 S
C571 C573 1.408 . S
C571 C576 1.342 . S
C572 C573 1.310 . S
C572 C575 1.461 . S
C572 H592 0.932 . S
C573 C571 1.408 . S
C573 C572 1.310 . S
C573 H593 0.930 . S
C574 C575 1.474 . S
C574 C576 1.285 . S
C574 H594 0.929 . S
C575 C572 1.461 . S
C575 C574 1.474 . S
C576 C571 1.342 . S
C576 C574 1.285 . S
C576 H595 0.937 . S
C577 C580 1.424 . S
C577 C582 1.245 . S
C577 C583 1.428 . S
C578 C581 1.260 . S
C578 C582 1.477 . S
C578 H596 0.932 . S
C579 C580 1.384 . S
C579 C581 1.479 . S
C579 H597 0.929 . S
C580 C577 1.424 . S
C580 C579 1.384 . S
C580 H598 0.928 . S
C581 C578 1.260 . S
C581 C579 1.479 . S
C582 C577 1.245 . S
C582 C578 1.477 . S
C582 H599 0.932 . S
C583 U566 2.882 . S
C583 C577 1.428 . S
C583 O586 1.301 . S
C583 O587 1.282 . S
O584 U566 2.441 . S
O584 C570 1.249 . S
O585 U566 2.420 . S
O585 C570 1.202 . S
O586 U566 2.455 . S
O586 C583 1.301 . S
O587 U566 2.449 . S
O587 C583 1.282 . S
H588 C561 0.931 . S
H589 C563 0.932 . S
H590 C564 0.930 . S
H591 C565 0.931 . S
H592 C572 0.932 . S
H593 C573 0.930 . S
H594 C574 0.929 . S
H595 C576 0.937 . S
H596 C578 0.932 . S
H597 C579 0.929 . S
H598 C580 0.928 . S
H599 C582 0.932 . S
C600 C601 1.264 . S
C600 C605 1.479 . S
C600 C610 1.465 . S
C601 C600 1.264 . S
C601 C603 1.339 . S
C601 H628 0.931 . S
C602 C603 1.395 . S
C602 C604 1.320 . S
C603 C601 1.339 . S
C603 C602 1.395 . S
C603 H629 0.929 . S
C604 C602 1.320 . S
C604 C605 1.405 . S
C604 H630 0.930 . S
C605 C600 1.479 . S
C605 C604 1.405 . S
C605 H631 0.931 . S
U606 O607 2.454 . S
U606 O608 2.458 . S
U606 C609 2.984 . S
U606 C610 2.847 . S
U606 C623 2.882 . S
U606 O624 2.441 . S
U606 O625 2.420 . S
U606 O626 2.455 . S
U606 O627 2.449 . S
O607 U606 2.454 . S
O607 C609 1.353 . S
O608 U606 2.458 . S
O608 C609 1.286 . S
C609 U606 2.984 . S
C609 O607 1.353 . S
C609 O608 1.286 . S
C609 C611 1.363 . S
C610 C600 1.465 . S
C610 U606 2.847 . S
C610 O624 1.249 . S
C610 O625 1.202 . S
C611 C609 1.363 . S
C611 C613 1.408 . S
C611 C616 1.342 . S
C612 C613 1.310 . S
C612 C615 1.461 . S
C612 H632 0.932 . S
C613 C611 1.408 . S
C613 C612 1.310 . S
C613 H633 0.930 . S
C614 C615 1.474 . S
C614 C616 1.285 . S
C614 H634 0.929 . S
C615 C612 1.461 . S
C615 C614 1.474 . S
C616 C611 1.342 . S
C616 C614 1.285 . S
C616 H635 0.930 . S
C617 C620 1.424 . S
C617 C622 1.245 . S
C617 C623 1.428 . S
C618 C621 1.260 . S
C618 C622 1.477 . S
C618 H636 0.932 . S
C619 C620 1.384 . S
C619 C621 1.479 . S
C619 H637 0.929 . S
C620 C617 1.424 . S
C620 C619 1.384 . S
C620 H638 0.928 . S
C621 C618 1.260 . S
C621 C619 1.479 . S
C622 C617 1.245 . S
C622 C618 1.477 . S
C622 H639 0.932 . S
C623 U606 2.882 . S
C623 C617 1.428 . S
C623 O626 1.301 . S
C623 O627 1.282 . S
O624 U606 2.441 . S
O624 C610 1.249 . S
O625 U606 2.420 . S
O625 C610 1.202 . S
O626 U606 2.455 . S
O626 C623 1.301 . S
O627 U606 2.449 . S
O627 C623 1.282 . S
H628 C601 0.931 . S
H629 C603 0.929 . S
H630 C604 0.930 . S
H631 C605 0.931 . S
H632 C612 0.932 . S
H633 C613 0.930 . S
H634 C614 0.929 . S
H635 C616 0.930 . S
H636 C618 0.932 . S
H637 C619 0.929 . S
H638 C620 0.928 . S
H639 C622 0.932 . S
C640 C641 1.264 . S
C640 C645 1.479 . S
C640 C650 1.465 . S
C641 C640 1.264 . S
C641 C643 1.339 . S
C641 H668 0.931 . S
C642 C643 1.395 . S
C642 C644 1.320 . S
C643 C641 1.339 . S
C643 C642 1.395 . S
C643 H669 0.929 . S
C644 C642 1.320 . S
C644 C645 1.405 . S
C644 H670 0.930 . S
C645 C640 1.479 . S
C645 C644 1.405 . S
C645 H671 0.931 . S
U646 O647 2.454 . S
U646 O648 2.458 . S
U646 C649 2.984 . S
U646 C650 2.847 . S
U646 C663 2.882 . S
U646 O664 2.441 . S
U646 O665 2.420 . S
U646 O666 2.455 . S
U646 O667 2.449 . S
O647 U646 2.454 . S
O647 C649 1.353 . S
O648 U646 2.458 . S
O648 C649 1.286 . S
C649 U646 2.984 . S
C649 O647 1.353 . S
C649 O648 1.286 . S
C649 C651 1.363 . S
C650 C640 1.465 . S
C650 U646 2.847 . S
C650 O664 1.249 . S
C650 O665 1.202 . S
C651 C649 1.363 . S
C651 C653 1.408 . S
C651 C656 1.342 . S
C652 C653 1.310 . S
C652 C655 1.461 . S
C652 H672 0.932 . S
C653 C651 1.408 . S
C653 C652 1.310 . S
C653 H673 0.930 . S
C654 C655 1.474 . S
C654 C656 1.285 . S
C654 H674 0.929 . S
C655 C652 1.461 . S
C655 C654 1.474 . S
C656 C651 1.342 . S
C656 C654 1.285 . S
C656 H675 0.930 . S
C657 C660 1.424 . S
C657 C662 1.245 . S
C657 C663 1.428 . S
C658 C661 1.260 . S
C658 C662 1.477 . S
C658 H676 0.932 . S
C659 C660 1.384 . S
C659 C661 1.479 . S
C659 H677 0.929 . S
C660 C657 1.424 . S
C660 C659 1.384 . S
C660 H678 0.928 . S
C661 C658 1.260 . S
C661 C659 1.479 . S
C662 C657 1.245 . S
C662 C658 1.477 . S
C662 H679 0.932 . S
C663 U646 2.882 . S
C663 C657 1.428 . S
C663 O666 1.301 . S
C663 O667 1.282 . S
O664 U646 2.441 . S
O664 C650 1.249 . S
O665 U646 2.420 . S
O665 C650 1.202 . S
O666 U646 2.455 . S
O666 C663 1.301 . S
O667 U646 2.449 . S
O667 C663 1.282 . S
H668 C641 0.931 . S
H669 C643 0.929 . S
H670 C644 0.930 . S
H671 C645 0.931 . S
H672 C652 0.932 . S
H673 C653 0.930 . S
H674 C654 0.929 . S
H675 C656 0.930 . S
H676 C658 0.932 . S
H677 C659 0.929 . S
H678 C660 0.928 . S
H679 C662 0.932 . S
C680 C681 1.264 . S
C680 C685 1.479 . S
C680 C690 1.465 . S
C681 C680 1.264 . S
C681 C683 1.339 . S
C681 H708 0.931 . S
C682 C683 1.395 . S
C682 C684 1.320 . S
C683 C681 1.339 . S
C683 C682 1.395 . S
C683 H709 0.929 . S
C684 C682 1.320 . S
C684 C685 1.405 . S
C684 H710 0.930 . S
C685 C680 1.479 . S
C685 C684 1.405 . S
C685 H711 0.931 . S
U686 O687 2.454 . S
U686 O688 2.458 . S
U686 C689 2.984 . S
U686 C690 2.847 . S
U686 C703 2.882 . S
U686 O704 2.441 . S
U686 O705 2.420 . S
U686 O706 2.455 . S
U686 O707 2.449 . S
O687 U686 2.454 . S
O687 C689 1.353 . S
O688 U686 2.458 . S
O688 C689 1.286 . S
C689 U686 2.984 . S
C689 O687 1.353 . S
C689 O688 1.286 . S
C689 C691 1.363 . S
C690 C680 1.465 . S
C690 U686 2.847 . S
C690 O704 1.249 . S
C690 O705 1.202 . S
C691 C689 1.363 . S
C691 C693 1.408 . S
C691 C696 1.342 . S
C692 C693 1.310 . S
C692 C695 1.461 . S
C692 H712 0.932 . S
C693 C691 1.408 . S
C693 C692 1.310 . S
C693 H713 0.930 . S
C694 C695 1.474 . S
C694 C696 1.285 . S
C694 H714 0.929 . S
C695 C692 1.461 . S
C695 C694 1.474 . S
C696 C691 1.342 . S
C696 C694 1.285 . S
C696 H715 0.930 . S
C697 C700 1.424 . S
C697 C702 1.245 . S
C697 C703 1.428 . S
C698 C701 1.260 . S
C698 C702 1.477 . S
C698 H716 0.932 . S
C699 C700 1.384 . S
C699 C701 1.479 . S
C699 H717 0.929 . S
C700 C697 1.424 . S
C700 C699 1.384 . S
C700 H718 0.928 . S
C701 C698 1.260 . S
C701 C699 1.479 . S
C702 C697 1.245 . S
C702 C698 1.477 . S
C702 H719 0.932 . S
C703 U686 2.882 . S
C703 C697 1.428 . S
C703 O706 1.301 . S
C703 O707 1.282 . S
O704 U686 2.441 . S
O704 C690 1.249 . S
O705 U686 2.420 . S
O705 C690 1.202 . S
O706 U686 2.455 . S
O706 C703 1.301 . S
O707 U686 2.449 . S
O707 C703 1.282 . S
H708 C681 0.931 . S
H709 C683 0.929 . S
H710 C684 0.930 . S
H711 C685 0.931 . S
H712 C692 0.932 . S
H713 C693 0.930 . S
H714 C694 0.929 . S
H715 C696 0.930 . S
H716 C698 0.932 . S
H717 C699 0.929 . S
H718 C700 0.928 . S
H719 C702 0.932 . S
C720 C721 1.264 . S
C720 C725 1.479 . S
C720 C730 1.465 . S
C721 C720 1.264 . S
C721 C723 1.339 . S
C721 H748 0.931 . S
C722 C723 1.395 . S
C722 C724 1.320 . S
C723 C721 1.339 . S
C723 C722 1.395 . S
C723 H749 0.929 . S
C724 C722 1.320 . S
C724 C725 1.405 . S
C724 H750 0.930 . S
C725 C720 1.479 . S
C725 C724 1.405 . S
C725 H751 0.931 . S
U726 O727 2.454 . S
U726 O728 2.458 . S
U726 C729 2.984 . S
U726 C730 2.847 . S
U726 C743 2.882 . S
U726 O744 2.441 . S
U726 O745 2.420 . S
U726 O746 2.455 . S
U726 O747 2.449 . S
O727 U726 2.454 . S
O727 C729 1.353 . S
O728 U726 2.458 . S
O728 C729 1.286 . S
C729 U726 2.984 . S
C729 O727 1.353 . S
C729 O728 1.286 . S
C729 C731 1.363 . S
C730 C720 1.465 . S
C730 U726 2.847 . S
C730 O744 1.249 . S
C730 O745 1.202 . S
C731 C729 1.363 . S
C731 C733 1.408 . S
C731 C736 1.342 . S
C732 C733 1.310 . S
C732 C735 1.461 . S
C732 H752 0.932 . S
C733 C731 1.408 . S
C733 C732 1.310 . S
C733 H753 0.930 . S
C734 C735 1.474 . S
C734 C736 1.285 . S
C734 H754 0.929 . S
C735 C732 1.461 . S
C735 C734 1.474 . S
C736 C731 1.342 . S
C736 C734 1.285 . S
C736 H755 0.930 . S
C737 C740 1.424 . S
C737 C742 1.245 . S
C737 C743 1.428 . S
C738 C741 1.260 . S
C738 C742 1.477 . S
C738 H756 0.932 . S
C739 C740 1.384 . S
C739 C741 1.479 . S
C739 H757 0.929 . S
C740 C737 1.424 . S
C740 C739 1.384 . S
C740 H758 0.928 . S
C741 C738 1.260 . S
C741 C739 1.479 . S
C742 C737 1.245 . S
C742 C738 1.477 . S
C742 H759 0.932 . S
C743 U726 2.882 . S
C743 C737 1.428 . S
C743 O746 1.301 . S
C743 O747 1.282 . S
O744 U726 2.441 . S
O744 C730 1.249 . S
O745 U726 2.420 . S
O745 C730 1.202 . S
O746 U726 2.455 . S
O746 C743 1.301 . S
O747 U726 2.449 . S
O747 C743 1.282 . S
H748 C721 0.931 . S
H749 C723 0.929 . S
H750 C724 0.930 . S
H751 C725 0.931 . S
H752 C732 0.932 . S
H753 C733 0.930 . S
H754 C734 0.929 . S
H755 C736 0.930 . S
H756 C738 0.932 . S
H757 C739 0.929 . S
H758 C740 0.928 . S
H759 C742 0.932 . S
C760 C761 1.264 . S
C760 C765 1.479 . S
C760 C770 1.465 . S
C761 C760 1.264 . S
C761 C763 1.339 . S
C761 H788 0.931 . S
C762 C763 1.395 . S
C762 C764 1.320 . S
C763 C761 1.339 . S
C763 C762 1.395 . S
C763 H789 0.929 . S
C764 C762 1.320 . S
C764 C765 1.405 . S
C764 H790 0.930 . S
C765 C760 1.479 . S
C765 C764 1.405 . S
C765 H791 0.931 . S
U766 O767 2.454 . S
U766 O768 2.458 . S
U766 C769 2.984 . S
U766 C770 2.847 . S
U766 C783 2.882 . S
U766 O784 2.441 . S
U766 O785 2.420 . S
U766 O786 2.455 . S
U766 O787 2.449 . S
O767 U766 2.454 . S
O767 C769 1.353 . S
O768 U766 2.458 . S
O768 C769 1.286 . S
C769 U766 2.984 . S
C769 O767 1.353 . S
C769 O768 1.286 . S
C769 C771 1.363 . S
C770 C760 1.465 . S
C770 U766 2.847 . S
C770 O784 1.249 . S
C770 O785 1.202 . S
C771 C769 1.363 . S
C771 C773 1.408 . S
C771 C776 1.342 . S
C772 C773 1.310 . S
C772 C775 1.461 . S
C772 H792 0.932 . S
C773 C771 1.408 . S
C773 C772 1.310 . S
C773 H793 0.930 . S
C774 C775 1.474 . S
C774 C776 1.285 . S
C774 H794 0.929 . S
C775 C772 1.461 . S
C775 C774 1.474 . S
C776 C771 1.342 . S
C776 C774 1.285 . S
C776 H795 0.930 . S
C777 C780 1.424 . S
C777 C782 1.245 . S
C777 C783 1.428 . S
C778 C781 1.260 . S
C778 C782 1.477 . S
C778 H796 0.932 . S
C779 C780 1.384 . S
C779 C781 1.479 . S
C779 H797 0.929 . S
C780 C777 1.424 . S
C780 C779 1.384 . S
C780 H798 0.928 . S
C781 C778 1.260 . S
C781 C779 1.479 . S
C782 C777 1.245 . S
C782 C778 1.477 . S
C782 H799 0.932 . S
C783 U766 2.882 . S
C783 C777 1.428 . S
C783 O786 1.301 . S
C783 O787 1.282 . S
O784 U766 2.441 . S
O784 C770 1.249 . S
O785 U766 2.420 . S
O785 C770 1.202 . S
O786 U766 2.455 . S
O786 C783 1.301 . S
O787 U766 2.449 . S
O787 C783 1.282 . S
H788 C761 0.931 . S
H789 C763 0.929 . S
H790 C764 0.930 . S
H791 C765 0.931 . S
H792 C772 0.932 . S
H793 C773 0.930 . S
H794 C774 0.929 . S
H795 C776 0.930 . S
H796 C778 0.932 . S
H797 C779 0.929 . S
H798 C780 0.928 . S
H799 C782 0.932 . S
C800 C801 1.264 . S
C800 C805 1.479 . S
C800 C810 1.465 . S
C801 C800 1.264 . S
C801 C803 1.339 . S
C801 H828 0.931 . S
C802 C803 1.395 . S
C802 C804 1.320 . S
C803 C801 1.339 . S
C803 C802 1.395 . S
C803 H829 0.929 . S
C804 C802 1.320 . S
C804 C805 1.405 . S
C804 H830 0.930 . S
C805 C800 1.479 . S
C805 C804 1.405 . S
C805 H831 0.931 . S
U806 O807 2.454 . S
U806 O808 2.458 . S
U806 C809 2.984 . S
U806 C810 2.847 . S
U806 C823 2.882 . S
U806 O824 2.441 . S
U806 O825 2.420 . S
U806 O826 2.455 . S
U806 O827 2.449 . S
O807 U806 2.454 . S
O807 C809 1.353 . S
O808 U806 2.458 . S
O808 C809 1.286 . S
C809 U806 2.984 . S
C809 O807 1.353 . S
C809 O808 1.286 . S
C809 C811 1.363 . S
C810 C800 1.465 . S
C810 U806 2.847 . S
C810 O824 1.249 . S
C810 O825 1.202 . S
C811 C809 1.363 . S
C811 C813 1.408 . S
C811 C816 1.342 . S
C812 C813 1.310 . S
C812 C815 1.461 . S
C812 H832 0.932 . S
C813 C811 1.408 . S
C813 C812 1.310 . S
C813 H833 0.930 . S
C814 C815 1.474 . S
C814 C816 1.285 . S
C814 H834 0.929 . S
C815 C812 1.461 . S
C815 C814 1.474 . S
C816 C811 1.342 . S
C816 C814 1.285 . S
C816 H835 0.930 . S
C817 C820 1.424 . S
C817 C822 1.245 . S
C817 C823 1.428 . S
C818 C821 1.260 . S
C818 C822 1.477 . S
C818 H836 0.932 . S
C819 C820 1.384 . S
C819 C821 1.479 . S
C819 H837 0.929 . S
C820 C817 1.424 . S
C820 C819 1.384 . S
C820 H838 0.928 . S
C821 C818 1.260 . S
C821 C819 1.479 . S
C822 C817 1.245 . S
C822 C818 1.477 . S
C822 H839 0.932 . S
C823 U806 2.882 . S
C823 C817 1.428 . S
C823 O826 1.301 . S
C823 O827 1.282 . S
O824 U806 2.441 . S
O824 C810 1.249 . S
O825 U806 2.420 . S
O825 C810 1.202 . S
O826 U806 2.455 . S
O826 C823 1.301 . S
O827 U806 2.449 . S
O827 C823 1.282 . S
H828 C801 0.931 . S
H829 C803 0.929 . S
H830 C804 0.930 . S
H831 C805 0.931 . S
H832 C812 0.932 . S
H833 C813 0.930 . S
H834 C814 0.929 . S
H835 C816 0.930 . S
H836 C818 0.932 . S
H837 C819 0.929 . S
H838 C820 0.928 . S
H839 C822 0.932 . S
C840 C841 1.264 . S
C840 C845 1.479 . S
C840 C850 1.465 . S
C841 C840 1.264 . S
C841 C843 1.339 . S
C841 H868 0.931 . S
C842 C843 1.395 . S
C842 C844 1.320 . S
C843 C841 1.339 . S
C843 C842 1.395 . S
C843 H869 0.929 . S
C844 C842 1.320 . S
C844 C845 1.405 . S
C844 H870 0.930 . S
C845 C840 1.479 . S
C845 C844 1.405 . S
C845 H871 0.931 . S
U846 O847 2.454 . S
U846 O848 2.458 . S
U846 C849 2.984 . S
U846 C850 2.847 . S
U846 C863 2.882 . S
U846 O864 2.441 . S
U846 O865 2.420 . S
U846 O866 2.455 . S
U846 O867 2.449 . S
O847 U846 2.454 . S
O847 C849 1.353 . S
O848 U846 2.458 . S
O848 C849 1.286 . S
C849 U846 2.984 . S
C849 O847 1.353 . S
C849 O848 1.286 . S
C849 C851 1.363 . S
C850 C840 1.465 . S
C850 U846 2.847 . S
C850 O864 1.249 . S
C850 O865 1.202 . S
C851 C849 1.363 . S
C851 C853 1.408 . S
C851 C856 1.342 . S
C852 C853 1.310 . S
C852 C855 1.461 . S
C852 H872 0.932 . S
C853 C851 1.408 . S
C853 C852 1.310 . S
C853 H873 0.930 . S
C854 C855 1.474 . S
C854 C856 1.285 . S
C854 H874 0.929 . S
C855 C852 1.461 . S
C855 C854 1.474 . S
C856 C851 1.342 . S
C856 C854 1.285 . S
C856 H875 0.930 . S
C857 C860 1.424 . S
C857 C862 1.245 . S
C857 C863 1.428 . S
C858 C861 1.260 . S
C858 C862 1.477 . S
C858 H876 0.932 . S
C859 C860 1.384 . S
C859 C861 1.479 . S
C859 H877 0.929 . S
C860 C857 1.424 . S
C860 C859 1.384 . S
C860 H878 0.928 . S
C861 C858 1.260 . S
C861 C859 1.479 . S
C862 C857 1.245 . S
C862 C858 1.477 . S
C862 H879 0.932 . S
C863 U846 2.882 . S
C863 C857 1.428 . S
C863 O866 1.301 . S
C863 O867 1.282 . S
O864 U846 2.441 . S
O864 C850 1.249 . S
O865 U846 2.420 . S
O865 C850 1.202 . S
O866 U846 2.455 . S
O866 C863 1.301 . S
O867 U846 2.449 . S
O867 C863 1.282 . S
H868 C841 0.931 . S
H869 C843 0.929 . S
H870 C844 0.930 . S
H871 C845 0.931 . S
H872 C852 0.932 . S
H873 C853 0.930 . S
H874 C854 0.929 . S
H875 C856 0.930 . S
H876 C858 0.932 . S
H877 C859 0.929 . S
H878 C860 0.928 . S
H879 C862 0.932 . S
C880 C881 1.264 . S
C880 C885 1.479 . S
C880 C890 1.465 . S
C881 C880 1.264 . S
C881 C883 1.339 . S
C881 H908 0.931 . S
C882 C883 1.395 . S
C882 C884 1.320 . S
C883 C881 1.339 . S
C883 C882 1.395 . S
C883 H909 0.929 . S
C884 C882 1.320 . S
C884 C885 1.405 . S
C884 H910 0.930 . S
C885 C880 1.479 . S
C885 C884 1.405 . S
C885 H911 0.931 . S
U886 O887 2.454 . S
U886 O888 2.458 . S
U886 C889 2.984 . S
U886 C890 2.847 . S
U886 C903 2.882 . S
U886 O904 2.441 . S
U886 O905 2.420 . S
U886 O906 2.455 . S
U886 O907 2.449 . S
O887 U886 2.454 . S
O887 C889 1.353 . S
O888 U886 2.458 . S
O888 C889 1.286 . S
C889 U886 2.984 . S
C889 O887 1.353 . S
C889 O888 1.286 . S
C889 C891 1.363 . S
C890 C880 1.465 . S
C890 U886 2.847 . S
C890 O904 1.249 . S
C890 O905 1.202 . S
C891 C889 1.363 . S
C891 C893 1.408 . S
C891 C896 1.342 . S
C892 C893 1.310 . S
C892 C895 1.461 . S
C892 H912 0.932 . S
C893 C891 1.408 . S
C893 C892 1.310 . S
C893 H913 0.930 . S
C894 C895 1.474 . S
C894 C896 1.285 . S
C894 H914 0.929 . S
C895 C892 1.461 . S
C895 C894 1.474 . S
C896 C891 1.342 . S
C896 C894 1.285 . S
C896 H915 0.930 . S
C897 C900 1.424 . S
C897 C902 1.245 . S
C897 C903 1.428 . S
C898 C901 1.260 . S
C898 C902 1.477 . S
C898 H916 0.932 . S
C899 C900 1.384 . S
C899 C901 1.479 . S
C899 H917 0.929 . S
C900 C897 1.424 . S
C900 C899 1.384 . S
C900 H918 0.928 . S
C901 C898 1.260 . S
C901 C899 1.479 . S
C902 C897 1.245 . S
C902 C898 1.477 . S
C902 H919 0.932 . S
C903 U886 2.882 . S
C903 C897 1.428 . S
C903 O906 1.301 . S
C903 O907 1.282 . S
O904 U886 2.441 . S
O904 C890 1.249 . S
O905 U886 2.420 . S
O905 C890 1.202 . S
O906 U886 2.455 . S
O906 C903 1.301 . S
O907 U886 2.449 . S
O907 C903 1.282 . S
H908 C881 0.931 . S
H909 C883 0.929 . S
H910 C884 0.930 . S
H911 C885 0.931 . S
H912 C892 0.932 . S
H913 C893 0.930 . S
H914 C894 0.929 . S
H915 C896 0.930 . S
H916 C898 0.932 . S
H917 C899 0.929 . S
H918 C900 0.928 . S
H919 C902 0.932 . S
C920 C921 1.264 . S
C920 C925 1.479 . S
C920 C930 1.465 . S
C921 C920 1.264 . S
C921 C923 1.339 . S
C921 H948 0.931 . S
C922 C923 1.395 . S
C922 C924 1.320 . S
C923 C921 1.339 . S
C923 C922 1.395 . S
C923 H949 0.929 . S
C924 C922 1.320 . S
C924 C925 1.405 . S
C924 H950 0.930 . S
C925 C920 1.479 . S
C925 C924 1.405 . S
C925 H951 0.931 . S
U926 O927 2.454 . S
U926 O928 2.458 . S
U926 C929 2.984 . S
U926 C930 2.847 . S
U926 C943 2.882 . S
U926 O944 2.441 . S
U926 O945 2.420 . S
U926 O946 2.455 . S
U926 O947 2.449 . S
O927 U926 2.454 . S
O927 C929 1.353 . S
O928 U926 2.458 . S
O928 C929 1.286 . S
C929 U926 2.984 . S
C929 O927 1.353 . S
C929 O928 1.286 . S
C929 C931 1.363 . S
C930 C920 1.465 . S
C930 U926 2.847 . S
C930 O944 1.249 . S
C930 O945 1.202 . S
C931 C929 1.363 . S
C931 C933 1.408 . S
C931 C936 1.342 . S
C932 C933 1.310 . S
C932 C935 1.461 . S
C932 H952 0.932 . S
C933 C931 1.408 . S
C933 C932 1.310 . S
C933 H953 0.930 . S
C934 C935 1.474 . S
C934 C936 1.285 . S
C934 H954 0.929 . S
C935 C932 1.461 . S
C935 C934 1.474 . S
C936 C931 1.342 . S
C936 C934 1.285 . S
C936 H955 0.930 . S
C937 C940 1.424 . S
C937 C942 1.245 . S
C937 C943 1.428 . S
C938 C941 1.260 . S
C938 C942 1.477 . S
C938 H956 0.932 . S
C939 C940 1.384 . S
C939 C941 1.479 . S
C939 H957 0.929 . S
C940 C937 1.424 . S
C940 C939 1.384 . S
C940 H958 0.928 . S
C941 C938 1.260 . S
C941 C939 1.479 . S
C942 C937 1.245 . S
C942 C938 1.477 . S
C942 H959 0.932 . S
C943 U926 2.882 . S
C943 C937 1.428 . S
C943 O946 1.301 . S
C943 O947 1.282 . S
O944 U926 2.441 . S
O944 C930 1.249 . S
O945 U926 2.420 . S
O945 C930 1.202 . S
O946 U926 2.455 . S
O946 C943 1.301 . S
O947 U926 2.449 . S
O947 C943 1.282 . S
H948 C921 0.931 . S
H949 C923 0.929 . S
H950 C924 0.930 . S
H951 C925 0.931 . S
H952 C932 0.932 . S
H953 C933 0.930 . S
H954 C934 0.929 . S
H955 C936 0.930 . S
H956 C938 0.932 . S
H957 C939 0.929 . S
H958 C940 0.928 . S
H959 C942 0.932 . S
C960 C961 1.264 . S
C960 C965 1.479 . S
C960 C970 1.465 . S
C961 C960 1.264 . S
C961 C963 1.339 . S
C961 H988 0.931 . S
C962 C963 1.395 . S
C962 C964 1.320 . S
C963 C961 1.339 . S
C963 C962 1.395 . S
C963 H989 0.929 . S
C964 C962 1.320 . S
C964 C965 1.405 . S
C964 H990 0.930 . S
C965 C960 1.479 . S
C965 C964 1.405 . S
C965 H991 0.931 . S
U966 O967 2.454 . S
U966 O968 2.458 . S
U966 C969 2.984 . S
U966 C970 2.847 . S
U966 C983 2.882 . S
U966 O984 2.441 . S
U966 O985 2.420 . S
U966 O986 2.455 . S
U966 O987 2.449 . S
O967 U966 2.454 . S
O967 C969 1.353 . S
O968 U966 2.458 . S
O968 C969 1.286 . S
C969 U966 2.984 . S
C969 O967 1.353 . S
C969 O968 1.286 . S
C969 C971 1.363 . S
C970 C960 1.465 . S
C970 U966 2.847 . S
C970 O984 1.249 . S
C970 O985 1.202 . S
C971 C969 1.363 . S
C971 C973 1.408 . S
C971 C976 1.342 . S
C972 C973 1.310 . S
C972 C975 1.461 . S
C972 H992 0.932 . S
C973 C971 1.408 . S
C973 C972 1.310 . S
C973 H993 0.930 . S
C974 C975 1.474 . S
C974 C976 1.285 . S
C974 H994 0.929 . S
C975 C972 1.461 . S
C975 C974 1.474 . S
C976 C971 1.342 . S
C976 C974 1.285 . S
C976 H995 0.930 . S
C977 C980 1.424 . S
C977 C982 1.245 . S
C977 C983 1.428 . S
C978 C981 1.260 . S
C978 C982 1.477 . S
C978 H996 0.932 . S
C979 C980 1.384 . S
C979 C981 1.479 . S
C979 H997 0.929 . S
C980 C977 1.424 . S
C980 C979 1.384 . S
C980 H998 0.928 . S
C981 C978 1.260 . S
C981 C979 1.479 . S
C982 C977 1.245 . S
C982 C978 1.477 . S
C982 H999 0.932 . S
C983 U966 2.882 . S
C983 C977 1.428 . S
C983 O986 1.301 . S
C983 O987 1.282 . S
O984 U966 2.441 . S
O984 C970 1.249 . S
O985 U966 2.420 . S
O985 C970 1.202 . S
O986 U966 2.455 . S
O986 C983 1.301 . S
O987 U966 2.449 . S
O987 C983 1.282 . S
H988 C961 0.931 . S
H989 C963 0.929 . S
H990 C964 0.930 . S
H991 C965 0.931 . S
H992 C972 0.932 . S
H993 C973 0.930 . S
H994 C974 0.929 . S
H995 C976 0.930 . S
H996 C978 0.932 . S
H997 C979 0.929 . S
H998 C980 0.928 . S
H999 C982 0.932 . S
C1000 C1001 1.264 . S
C1000 C1005 1.479 . S
C1000 C1010 1.465 . S
C1001 C1000 1.264 . S
C1001 C1003 1.339 . S
C1001 H1028 0.931 . S
C1002 C1003 1.395 . S
C1002 C1004 1.320 . S
C1003 C1001 1.339 . S
C1003 C1002 1.395 . S
C1003 H1029 0.929 . S
C1004 C1002 1.320 . S
C1004 C1005 1.405 . S
C1004 H1030 0.930 . S
C1005 C1000 1.479 . S
C1005 C1004 1.405 . S
C1005 H1031 0.931 . S
U1006 O1007 2.454 . S
U1006 O1008 2.458 . S
U1006 C1009 2.984 . S
U1006 C1010 2.847 . S
U1006 C1023 2.882 . S
U1006 O1024 2.441 . S
U1006 O1025 2.420 . S
U1006 O1026 2.455 . S
U1006 O1027 2.449 . S
O1007 U1006 2.454 . S
O1007 C1009 1.353 . S
O1008 U1006 2.458 . S
O1008 C1009 1.286 . S
C1009 U1006 2.984 . S
C1009 O1007 1.353 . S
C1009 O1008 1.286 . S
C1009 C1011 1.363 . S
C1010 C1000 1.465 . S
C1010 U1006 2.847 . S
C1010 O1024 1.249 . S
C1010 O1025 1.202 . S
C1011 C1009 1.363 . S
C1011 C1013 1.408 . S
C1011 C1016 1.342 . S
C1012 C1013 1.310 . S
C1012 C1015 1.461 . S
C1012 H1032 0.932 . S
C1013 C1011 1.408 . S
C1013 C1012 1.310 . S
C1013 H1033 0.930 . S
C1014 C1015 1.474 . S
C1014 C1016 1.285 . S
C1014 H1034 0.929 . S
C1015 C1012 1.461 . S
C1015 C1014 1.474 . S
C1016 C1011 1.342 . S
C1016 C1014 1.285 . S
C1016 H1035 0.930 . S
C1017 C1020 1.424 . S
C1017 C1022 1.245 . S
C1017 C1023 1.428 . S
C1018 C1021 1.260 . S
C1018 C1022 1.477 . S
C1018 H1036 0.932 . S
C1019 C1020 1.384 . S
C1019 C1021 1.479 . S
C1019 H1037 0.929 . S
C1020 C1017 1.424 . S
C1020 C1019 1.384 . S
C1020 H1038 0.928 . S
C1021 C1018 1.260 . S
C1021 C1019 1.479 . S
C1022 C1017 1.245 . S
C1022 C1018 1.477 . S
C1022 H1039 0.932 . S
C1023 U1006 2.882 . S
C1023 C1017 1.428 . S
C1023 O1026 1.301 . S
C1023 O1027 1.282 . S
O1024 U1006 2.441 . S
O1024 C1010 1.249 . S
O1025 U1006 2.420 . S
O1025 C1010 1.202 . S
O1026 U1006 2.455 . S
O1026 C1023 1.301 . S
O1027 U1006 2.449 . S
O1027 C1023 1.282 . S
H1028 C1001 0.931 . S
H1029 C1003 0.929 . S
H1030 C1004 0.930 . S
H1031 C1005 0.931 . S
H1032 C1012 0.932 . S
H1033 C1013 0.930 . S
H1034 C1014 0.929 . S
H1035 C1016 0.930 . S
H1036 C1018 0.932 . S
H1037 C1019 0.929 . S
H1038 C1020 0.928 . S
H1039 C1022 0.932 . S
C1040 C1041 1.264 . S
C1040 C1045 1.479 . S
C1040 C1050 1.465 . S
C1041 C1040 1.264 . S
C1041 C1043 1.339 . S
C1041 H1068 0.931 . S
C1042 C1043 1.395 . S
C1042 C1044 1.320 . S
C1043 C1041 1.339 . S
C1043 C1042 1.395 . S
C1043 H1069 0.929 . S
C1044 C1042 1.320 . S
C1044 C1045 1.405 . S
C1044 H1070 0.930 . S
C1045 C1040 1.479 . S
C1045 C1044 1.405 . S
C1045 H1071 0.931 . S
U1046 O1047 2.454 . S
U1046 O1048 2.458 . S
U1046 C1049 2.984 . S
U1046 C1050 2.847 . S
U1046 C1063 2.882 . S
U1046 O1064 2.441 . S
U1046 O1065 2.420 . S
U1046 O1066 2.455 . S
U1046 O1067 2.449 . S
O1047 U1046 2.454 . S
O1047 C1049 1.353 . S
O1048 U1046 2.458 . S
O1048 C1049 1.286 . S
C1049 U1046 2.984 . S
C1049 O1047 1.353 . S
C1049 O1048 1.286 . S
C1049 C1051 1.363 . S
C1050 C1040 1.465 . S
C1050 U1046 2.847 . S
C1050 O1064 1.249 . S
C1050 O1065 1.202 . S
C1051 C1049 1.363 . S
C1051 C1053 1.408 . S
C1051 C1056 1.342 . S
C1052 C1053 1.310 . S
C1052 C1055 1.461 . S
C1052 H1072 0.932 . S
C1053 C1051 1.408 . S
C1053 C1052 1.310 . S
C1053 H1073 0.930 . S
C1054 C1055 1.474 . S
C1054 C1056 1.285 . S
C1054 H1074 0.929 . S
C1055 C1052 1.461 . S
C1055 C1054 1.474 . S
C1056 C1051 1.342 . S
C1056 C1054 1.285 . S
C1056 H1075 0.930 . S
C1057 C1060 1.424 . S
C1057 C1062 1.245 . S
C1057 C1063 1.428 . S
C1058 C1061 1.260 . S
C1058 C1062 1.477 . S
C1058 H1076 0.932 . S
C1059 C1060 1.384 . S
C1059 C1061 1.479 . S
C1059 H1077 0.929 . S
C1060 C1057 1.424 . S
C1060 C1059 1.384 . S
C1060 H1078 0.928 . S
C1061 C1058 1.260 . S
C1061 C1059 1.479 . S
C1062 C1057 1.245 . S
C1062 C1058 1.477 . S
C1062 H1079 0.932 . S
C1063 U1046 2.882 . S
C1063 C1057 1.428 . S
C1063 O1066 1.301 . S
C1063 O1067 1.282 . S
O1064 U1046 2.441 . S
O1064 C1050 1.249 . S
O1065 U1046 2.420 . S
O1065 C1050 1.202 . S
O1066 U1046 2.455 . S
O1066 C1063 1.301 . S
O1067 U1046 2.449 . S
O1067 C1063 1.282 . S
H1068 C1041 0.931 . S
H1069 C1043 0.929 . S
H1070 C1044 0.930 . S
H1071 C1045 0.931 . S
H1072 C1052 0.932 . S
H1073 C1053 0.930 . S
H1074 C1054 0.929 . S
H1075 C1056 0.930 . S
H1076 C1058 0.932 . S
H1077 C1059 0.929 . S
H1078 C1060 0.928 . S
H1079 C1062 0.932 . S
C1080 C1081 1.264 . S
C1080 C1085 1.479 . S
C1080 C1090 1.465 . S
C1081 C1080 1.264 . S
C1081 C1083 1.339 . S
C1081 H1108 0.931 . S
C1082 C1083 1.395 . S
C1082 C1084 1.320 . S
C1083 C1081 1.339 . S
C1083 C1082 1.395 . S
C1083 H1109 0.929 . S
C1084 C1082 1.320 . S
C1084 C1085 1.405 . S
C1084 H1110 0.930 . S
C1085 C1080 1.479 . S
C1085 C1084 1.405 . S
C1085 H1111 0.931 . S
U1086 O1087 2.454 . S
U1086 O1088 2.458 . S
U1086 C1089 2.984 . S
U1086 C1090 2.847 . S
U1086 C1103 2.882 . S
U1086 O1104 2.441 . S
U1086 O1105 2.420 . S
U1086 O1106 2.455 . S
U1086 O1107 2.449 . S
O1087 U1086 2.454 . S
O1087 C1089 1.353 . S
O1088 U1086 2.458 . S
O1088 C1089 1.286 . S
C1089 U1086 2.984 . S
C1089 O1087 1.353 . S
C1089 O1088 1.286 . S
C1089 C1091 1.363 . S
C1090 C1080 1.465 . S
C1090 U1086 2.847 . S
C1090 O1104 1.249 . S
C1090 O1105 1.202 . S
C1091 C1089 1.363 . S
C1091 C1093 1.408 . S
C1091 C1096 1.342 . S
C1092 C1093 1.310 . S
C1092 C1095 1.461 . S
C1092 H1112 0.932 . S
C1093 C1091 1.408 . S
C1093 C1092 1.310 . S
C1093 H1113 0.930 . S
C1094 C1095 1.474 . S
C1094 C1096 1.285 . S
C1094 H1114 0.929 . S
C1095 C1092 1.461 . S
C1095 C1094 1.474 . S
C1096 C1091 1.342 . S
C1096 C1094 1.285 . S
C1096 H1115 0.930 . S
C1097 C1100 1.424 . S
C1097 C1102 1.245 . S
C1097 C1103 1.428 . S
C1098 C1101 1.260 . S
C1098 C1102 1.477 . S
C1098 H1116 0.932 . S
C1099 C1100 1.384 . S
C1099 C1101 1.479 . S
C1099 H1117 0.929 . S
C1100 C1097 1.424 . S
C1100 C1099 1.384 . S
C1100 H1118 0.928 . S
C1101 C1098 1.260 . S
C1101 C1099 1.479 . S
C1102 C1097 1.245 . S
C1102 C1098 1.477 . S
C1102 H1119 0.932 . S
C1103 U1086 2.882 . S
C1103 C1097 1.428 . S
C1103 O1106 1.301 . S
C1103 O1107 1.282 . S
O1104 U1086 2.441 . S
O1104 C1090 1.249 . S
O1105 U1086 2.420 . S
O1105 C1090 1.202 . S
O1106 U1086 2.455 . S
O1106 C1103 1.301 . S
O1107 U1086 2.449 . S
O1107 C1103 1.282 . S
H1108 C1081 0.931 . S
H1109 C1083 0.929 . S
H1110 C1084 0.930 . S
H1111 C1085 0.931 . S
H1112 C1092 0.932 . S
H1113 C1093 0.930 . S
H1114 C1094 0.929 . S
H1115 C1096 0.930 . S
H1116 C1098 0.932 . S
H1117 C1099 0.929 . S
H1118 C1100 0.928 . S
H1119 C1102 0.932 . S
C1120 C1121 1.264 . S
C1120 C1125 1.479 . S
C1120 C1130 1.465 . S
C1121 C1120 1.264 . S
C1121 C1123 1.339 . S
C1121 H1148 0.931 . S
C1122 C1123 1.395 . S
C1122 C1124 1.320 . S
C1123 C1121 1.339 . S
C1123 C1122 1.395 . S
C1123 H1149 0.929 . S
C1124 C1122 1.320 . S
C1124 C1125 1.405 . S
C1124 H1150 0.930 . S
C1125 C1120 1.479 . S
C1125 C1124 1.405 . S
C1125 H1151 0.931 . S
U1126 O1127 2.454 . S
U1126 O1128 2.458 . S
U1126 C1129 2.984 . S
U1126 C1130 2.847 . S
U1126 C1143 2.882 . S
U1126 O1144 2.441 . S
U1126 O1145 2.420 . S
U1126 O1146 2.455 . S
U1126 O1147 2.449 . S
O1127 U1126 2.454 . S
O1127 C1129 1.353 . S
O1128 U1126 2.458 . S
O1128 C1129 1.286 . S
C1129 U1126 2.984 . S
C1129 O1127 1.353 . S
C1129 O1128 1.286 . S
C1129 C1131 1.363 . S
C1130 C1120 1.465 . S
C1130 U1126 2.847 . S
C1130 O1144 1.249 . S
C1130 O1145 1.202 . S
C1131 C1129 1.363 . S
C1131 C1133 1.408 . S
C1131 C1136 1.342 . S
C1132 C1133 1.310 . S
C1132 C1135 1.461 . S
C1132 H1152 0.932 . S
C1133 C1131 1.408 . S
C1133 C1132 1.310 . S
C1133 H1153 0.930 . S
C1134 C1135 1.474 . S
C1134 C1136 1.285 . S
C1134 H1154 0.929 . S
C1135 C1132 1.461 . S
C1135 C1134 1.474 . S
C1136 C1131 1.342 . S
C1136 C1134 1.285 . S
C1136 H1155 0.930 . S
C1137 C1140 1.424 . S
C1137 C1142 1.245 . S
C1137 C1143 1.428 . S
C1138 C1141 1.260 . S
C1138 C1142 1.477 . S
C1138 H1156 0.932 . S
C1139 C1140 1.384 . S
C1139 C1141 1.479 . S
C1139 H1157 0.929 . S
C1140 C1137 1.424 . S
C1140 C1139 1.384 . S
C1140 H1158 0.928 . S
C1141 C1138 1.260 . S
C1141 C1139 1.479 . S
C1142 C1137 1.245 . S
C1142 C1138 1.477 . S
C1142 H1159 0.932 . S
C1143 U1126 2.882 . S
C1143 C1137 1.428 . S
C1143 O1146 1.301 . S
C1143 O1147 1.282 . S
O1144 U1126 2.441 . S
O1144 C1130 1.249 . S
O1145 U1126 2.420 . S
O1145 C1130 1.202 . S
O1146 U1126 2.455 . S
O1146 C1143 1.301 . S
O1147 U1126 2.449 . S
O1147 C1143 1.282 . S
H1148 C1121 0.931 . S
H1149 C1123 0.929 . S
H1150 C1124 0.930 . S
H1151 C1125 0.931 . S
H1152 C1132 0.932 . S
H1153 C1133 0.930 . S
H1154 C1134 0.929 . S
H1155 C1136 0.930 . S
H1156 C1138 0.932 . S
H1157 C1139 0.929 . S
H1158 C1140 0.928 . S
H1159 C1142 0.932 . S
C1160 C1161 1.264 . S
C1160 C1165 1.479 . S
C1160 C1170 1.465 . S
C1161 C1160 1.264 . S
C1161 C1163 1.339 . S
C1161 H1188 0.931 . S
C1162 C1163 1.395 . S
C1162 C1164 1.320 . S
C1163 C1161 1.339 . S
C1163 C1162 1.395 . S
C1163 H1189 0.929 . S
C1164 C1162 1.320 . S
C1164 C1165 1.405 . S
C1164 H1190 0.930 . S
C1165 C1160 1.479 . S
C1165 C1164 1.405 . S
C1165 H1191 0.931 . S
U1166 O1167 2.454 . S
U1166 O1168 2.458 . S
U1166 C1169 2.984 . S
U1166 C1170 2.847 . S
U1166 C1183 2.882 . S
U1166 O1184 2.441 . S
U1166 O1185 2.420 . S
U1166 O1186 2.455 . S
U1166 O1187 2.449 . S
O1167 U1166 2.454 . S
O1167 C1169 1.353 . S
O1168 U1166 2.458 . S
O1168 C1169 1.286 . S
C1169 U1166 2.984 . S
C1169 O1167 1.353 . S
C1169 O1168 1.286 . S
C1169 C1171 1.363 . S
C1170 C1160 1.465 . S
C1170 U1166 2.847 . S
C1170 O1184 1.249 . S
C1170 O1185 1.202 . S
C1171 C1169 1.363 . S
C1171 C1173 1.408 . S
C1171 C1176 1.342 . S
C1172 C1173 1.310 . S
C1172 C1175 1.461 . S
C1172 H1192 0.932 . S
C1173 C1171 1.408 . S
C1173 C1172 1.310 . S
C1173 H1193 0.930 . S
C1174 C1175 1.474 . S
C1174 C1176 1.285 . S
C1174 H1194 0.929 . S
C1175 C1172 1.461 . S
C1175 C1174 1.474 . S
C1176 C1171 1.342 . S
C1176 C1174 1.285 . S
C1176 H1195 0.930 . S
C1177 C1180 1.424 . S
C1177 C1182 1.245 . S
C1177 C1183 1.428 . S
C1178 C1181 1.260 . S
C1178 C1182 1.477 . S
C1178 H1196 0.932 . S
C1179 C1180 1.384 . S
C1179 C1181 1.479 . S
C1179 H1197 0.929 . S
C1180 C1177 1.424 . S
C1180 C1179 1.384 . S
C1180 H1198 0.928 . S
C1181 C1178 1.260 . S
C1181 C1179 1.479 . S
C1182 C1177 1.245 . S
C1182 C1178 1.477 . S
C1182 H1199 0.932 . S
C1183 U1166 2.882 . S
C1183 C1177 1.428 . S
C1183 O1186 1.301 . S
C1183 O1187 1.282 . S
O1184 U1166 2.441 . S
O1184 C1170 1.249 . S
O1185 U1166 2.420 . S
O1185 C1170 1.202 . S
O1186 U1166 2.455 . S
O1186 C1183 1.301 . S
O1187 U1166 2.449 . S
O1187 C1183 1.282 . S
H1188 C1161 0.931 . S
H1189 C1163 0.929 . S
H1190 C1164 0.930 . S
H1191 C1165 0.931 . S
H1192 C1172 0.932 . S
H1193 C1173 0.930 . S
H1194 C1174 0.929 . S
H1195 C1176 0.930 . S
H1196 C1178 0.932 . S
H1197 C1179 0.929 . S
H1198 C1180 0.928 . S
H1199 C1182 0.932 . S
C1200 C1201 1.264 . S
C1200 C1205 1.479 . S
C1200 C1210 1.465 . S
C1201 C1200 1.264 . S
C1201 C1203 1.339 . S
C1201 H1228 0.931 . S
C1202 C1203 1.395 . S
C1202 C1204 1.320 . S
C1203 C1201 1.339 . S
C1203 C1202 1.395 . S
C1203 H1229 0.929 . S
C1204 C1202 1.320 . S
C1204 C1205 1.405 . S
C1204 H1230 0.930 . S
C1205 C1200 1.479 . S
C1205 C1204 1.405 . S
C1205 H1231 0.931 . S
U1206 O1207 2.454 . S
U1206 O1208 2.458 . S
U1206 C1209 2.984 . S
U1206 C1210 2.847 . S
U1206 C1223 2.882 . S
U1206 O1224 2.441 . S
U1206 O1225 2.420 . S
U1206 O1226 2.455 . S
U1206 O1227 2.449 . S
O1207 U1206 2.454 . S
O1207 C1209 1.353 . S
O1208 U1206 2.458 . S
O1208 C1209 1.286 . S
C1209 U1206 2.984 . S
C1209 O1207 1.353 . S
C1209 O1208 1.286 . S
C1209 C1211 1.363 . S
C1210 C1200 1.465 . S
C1210 U1206 2.847 . S
C1210 O1224 1.249 . S
C1210 O1225 1.202 . S
C1211 C1209 1.363 . S
C1211 C1213 1.408 . S
C1211 C1216 1.342 . S
C1212 C1213 1.310 . S
C1212 C1215 1.461 . S
C1212 H1232 0.932 . S
C1213 C1211 1.408 . S
C1213 C1212 1.310 . S
C1213 H1233 0.930 . S
C1214 C1215 1.474 . S
C1214 C1216 1.285 . S
C1214 H1234 0.929 . S
C1215 C1212 1.461 . S
C1215 C1214 1.474 . S
C1216 C1211 1.342 . S
C1216 C1214 1.285 . S
C1216 H1235 0.930 . S
C1217 C1220 1.424 . S
C1217 C1222 1.245 . S
C1217 C1223 1.428 . S
C1218 C1221 1.260 . S
C1218 C1222 1.477 . S
C1218 H1236 0.932 . S
C1219 C1220 1.384 . S
C1219 C1221 1.479 . S
C1219 H1237 0.929 . S
C1220 C1217 1.424 . S
C1220 C1219 1.384 . S
C1220 H1238 0.928 . S
C1221 C1218 1.260 . S
C1221 C1219 1.479 . S
C1222 C1217 1.245 . S
C1222 C1218 1.477 . S
C1222 H1239 0.932 . S
C1223 U1206 2.882 . S
C1223 C1217 1.428 . S
C1223 O1226 1.301 . S
C1223 O1227 1.282 . S
O1224 U1206 2.441 . S
O1224 C1210 1.249 . S
O1225 U1206 2.420 . S
O1225 C1210 1.202 . S
O1226 U1206 2.455 . S
O1226 C1223 1.301 . S
O1227 U1206 2.449 . S
O1227 C1223 1.282 . S
H1228 C1201 0.931 . S
H1229 C1203 0.929 . S
H1230 C1204 0.930 . S
H1231 C1205 0.931 . S
H1232 C1212 0.932 . S
H1233 C1213 0.930 . S
H1234 C1214 0.929 . S
H1235 C1216 0.930 . S
H1236 C1218 0.932 . S
H1237 C1219 0.929 . S
H1238 C1220 0.928 . S
H1239 C1222 0.932 . S
C1240 C1241 1.264 . S
C1240 C1245 1.479 . S
C1240 C1250 1.465 . S
C1241 C1240 1.264 . S
C1241 C1243 1.339 . S
C1241 H1268 0.931 . S
C1242 C1243 1.395 . S
C1242 C1244 1.320 . S
C1243 C1241 1.339 . S
C1243 C1242 1.395 . S
C1243 H1269 0.929 . S
C1244 C1242 1.320 . S
C1244 C1245 1.405 . S
C1244 H1270 0.930 . S
C1245 C1240 1.479 . S
C1245 C1244 1.405 . S
C1245 H1271 0.931 . S
U1246 O1247 2.454 . S
U1246 O1248 2.458 . S
U1246 C1249 2.984 . S
U1246 C1250 2.847 . S
U1246 C1263 2.882 . S
U1246 O1264 2.441 . S
U1246 O1265 2.420 . S
U1246 O1266 2.455 . S
U1246 O1267 2.449 . S
O1247 U1246 2.454 . S
O1247 C1249 1.353 . S
O1248 U1246 2.458 . S
O1248 C1249 1.286 . S
C1249 U1246 2.984 . S
C1249 O1247 1.353 . S
C1249 O1248 1.286 . S
C1249 C1251 1.363 . S
C1250 C1240 1.465 . S
C1250 U1246 2.847 . S
C1250 O1264 1.249 . S
C1250 O1265 1.202 . S
C1251 C1249 1.363 . S
C1251 C1253 1.408 . S
C1251 C1256 1.342 . S
C1252 C1253 1.310 . S
C1252 C1255 1.461 . S
C1252 H1272 0.932 . S
C1253 C1251 1.408 . S
C1253 C1252 1.310 . S
C1253 H1273 0.930 . S
C1254 C1255 1.474 . S
C1254 C1256 1.285 . S
C1254 H1274 0.929 . S
C1255 C1252 1.461 . S
C1255 C1254 1.474 . S
C1256 C1251 1.342 . S
C1256 C1254 1.285 . S
C1256 H1275 0.930 . S
C1257 C1260 1.424 . S
C1257 C1262 1.245 . S
C1257 C1263 1.428 . S
C1258 C1261 1.260 . S
C1258 C1262 1.477 . S
C1258 H1276 0.932 . S
C1259 C1260 1.384 . S
C1259 C1261 1.479 . S
C1259 H1277 0.929 . S
C1260 C1257 1.424 . S
C1260 C1259 1.384 . S
C1260 H1278 0.928 . S
C1261 C1258 1.260 . S
C1261 C1259 1.479 . S
C1262 C1257 1.245 . S
C1262 C1258 1.477 . S
C1262 H1279 0.932 . S
C1263 U1246 2.882 . S
C1263 C1257 1.428 . S
C1263 O1266 1.301 . S
C1263 O1267 1.282 . S
O1264 U1246 2.441 . S
O1264 C1250 1.249 . S
O1265 U1246 2.420 . S
O1265 C1250 1.202 . S
O1266 U1246 2.455 . S
O1266 C1263 1.301 . S
O1267 U1246 2.449 . S
O1267 C1263 1.282 . S
H1268 C1241 0.931 . S
H1269 C1243 0.929 . S
H1270 C1244 0.930 . S
H1271 C1245 0.931 . S
H1272 C1252 0.932 . S
H1273 C1253 0.930 . S
H1274 C1254 0.929 . S
H1275 C1256 0.930 . S
H1276 C1258 0.932 . S
H1277 C1259 0.929 . S
H1278 C1260 0.928 . S
H1279 C1262 0.932 . S
H1280 C1298 0.951 . S
H1281 C1300 0.951 . S
H1282 C1302 0.950 . S
H1283 C1303 0.950 . S
H1284 C1305 0.950 . S
H1285 C1308 0.950 1_565 S
H1286 C1309 0.950 . S
H1287 C1311 0.950 . S
H1288 C1312 0.950 . S
H1289 C1313 0.951 . S
H1290 C1315 0.951 . S
H1291 C1317 0.950 . S
H1292 C1318 0.950 . S
H1293 C1320 0.978 . S
H1294 C1323 0.950 . S
H1295 C1324 0.950 . S
H1296 C1326 0.950 . S
H1297 C1327 0.950 . S
C1298 H1280 0.951 . S
C1298 C1299 1.366 1_545 S
C1298 C1300 1.388 . S
C1299 C1298 1.366 1_565 S
C1299 C1303 1.385 . S
C1300 H1281 0.951 . S
C1300 C1298 1.388 . S
C1300 C1301 1.366 1_545 S
C1301 C1300 1.366 1_565 S
C1301 C1302 1.414 . S
C1301 C1304 1.499 . S
C1302 H1282 0.950 . S
C1302 C1301 1.414 . S
C1302 C1303 1.374 . S
C1303 H1283 0.950 . S
C1303 C1299 1.385 . S
C1303 C1302 1.374 . S
C1304 C1301 1.499 . S
C1304 C1305 1.373 . S
C1304 C1306 1.391 1_565 S
C1305 H1284 0.950 . S
C1305 C1304 1.373 . S
C1305 C1321 1.377 . S
C1306 C1304 1.391 1_545 S
C1306 C1307 1.523 . S
C1306 C1320 1.376 . S
C1307 C1306 1.523 . S
C1307 C1308 1.397 . S
C1307 C1312 1.363 . S
C1308 H1285 0.950 1_545 S
C1308 C1307 1.397 . S
C1308 C1309 1.334 . S
C1309 H1286 0.950 . S
C1309 C1308 1.334 . S
C1309 C1310 1.287 . S
C1310 C1309 1.287 . S
C1310 C1311 1.524 . S
C1310 H1329 0.913 . S
C1311 H1287 0.950 . S
C1311 C1310 1.524 . S
C1311 C1312 1.415 . S
C1312 H1288 0.950 . S
C1312 C1307 1.363 . S
C1312 C1311 1.415 . S
C1313 H1289 0.951 . S
C1313 C1314 1.366 . S
C1313 C1315 1.388 . S
C1314 C1313 1.366 . S
C1314 C1318 1.385 1_565 S
C1315 H1290 0.951 . S
C1315 C1313 1.388 . S
C1315 C1316 1.366 . S
C1316 C1315 1.366 . S
C1316 C1317 1.414 1_565 S
C1316 C1319 1.499 . S
C1317 H1291 0.950 . S
C1317 C1316 1.414 1_545 S
C1317 C1318 1.374 . S
C1318 H1292 0.950 . S
C1318 C1314 1.385 1_545 S
C1318 C1317 1.374 . S
C1319 C1316 1.499 . S
C1319 C1320 1.348 1_565 S
C1319 C1321 1.389 . S
C1320 H1293 0.978 . S
C1320 C1306 1.376 . S
C1320 C1319 1.348 1_545 S
C1321 C1305 1.377 . S
C1321 C1319 1.389 . S
C1321 C1322 1.524 . S
C1322 C1321 1.524 . S
C1322 C1323 1.397 . S
C1322 C1327 1.363 . S
C1323 H1294 0.950 . S
C1323 C1322 1.397 . S
C1323 C1324 1.334 . S
C1324 H1295 0.950 . S
C1324 C1323 1.334 . S
C1324 C1325 1.287 . S
C1325 C1324 1.287 . S
C1325 C1326 1.524 . S
C1325 H1328 0.999 . S
C1326 H1296 0.950 . S
C1326 C1325 1.524 . S
C1326 C1327 1.415 . S
C1327 H1297 0.950 . S
C1327 C1322 1.363 . S
C1327 C1326 1.415 . S
H1328 C1325 0.999 . S
H1329 C1310 0.913 . S
H1330 C1348 0.951 . S
H1331 C1350 0.951 . S
H1332 C1352 0.950 . S
H1333 C1353 0.950 . S
H1334 C1355 0.950 . S
H1335 C1358 0.950 . S
H1336 C1359 0.950 . S
H1337 C1361 0.950 . S
H1338 C1362 0.950 . S
H1339 C1363 0.951 . S
H1340 C1365 0.951 . S
H1341 C1367 0.950 . S
H1342 C1368 0.950 . S
H1343 C1370 0.950 . S
H1344 C1373 0.950 . S
H1345 C1374 0.950 . S
H1346 C1376 0.950 . S
H1347 C1377 0.950 . S
C1348 H1330 0.951 . S
C1348 C1349 1.366 . S
C1348 C1350 1.388 . S
C1349 C1348 1.366 . S
C1349 C1353 1.385 . S
C1350 H1331 0.951 . S
C1350 C1348 1.388 . S
C1350 C1351 1.366 . S
C1351 C1350 1.366 . S
C1351 C1352 1.414 . S
C1351 C1354 1.499 . S
C1352 H1332 0.950 . S
C1352 C1351 1.414 . S
C1352 C1353 1.374 . S
C1353 H1333 0.950 . S
C1353 C1349 1.385 . S
C1353 C1352 1.374 . S
C1354 C1351 1.499 . S
C1354 C1355 1.373 . S
C1354 C1356 1.389 1_545 S
C1355 H1334 0.950 . S
C1355 C1354 1.373 . S
C1355 C1371 1.377 . S
C1356 C1354 1.389 1_565 S
C1356 C1357 1.524 . S
C1356 C1370 1.377 . S
C1357 C1356 1.524 . S
C1357 C1358 1.397 . S
C1357 C1362 1.363 . S
C1358 H1335 0.950 . S
C1358 C1357 1.397 . S
C1358 C1359 1.334 . S
C1359 H1336 0.950 . S
C1359 C1358 1.334 . S
C1359 C1360 1.287 . S
C1360 C1359 1.287 . S
C1360 C1361 1.524 . S
C1360 H1379 0.913 . S
C1361 H1337 0.950 . S
C1361 C1360 1.524 . S
C1361 C1362 1.415 . S
C1362 H1338 0.950 . S
C1362 C1357 1.363 . S
C1362 C1361 1.415 . S
C1363 H1339 0.951 . S
C1363 C1364 1.366 . S
C1363 C1365 1.388 . S
C1364 C1363 1.366 . S
C1364 C1368 1.385 . S
C1365 H1340 0.951 . S
C1365 C1363 1.388 . S
C1365 C1366 1.366 . S
C1366 C1365 1.366 . S
C1366 C1367 1.414 . S
C1366 C1369 1.499 . S
C1367 H1341 0.950 . S
C1367 C1366 1.414 . S
C1367 C1368 1.374 . S
C1368 H1342 0.950 . S
C1368 C1364 1.385 . S
C1368 C1367 1.374 . S
C1369 C1366 1.499 . S
C1369 C1370 1.373 . S
C1369 C1371 1.389 1_565 S
C1370 H1343 0.950 . S
C1370 C1356 1.377 . S
C1370 C1369 1.373 . S
C1371 C1355 1.377 . S
C1371 C1369 1.389 1_545 S
C1371 C1372 1.524 . S
C1372 C1371 1.524 . S
C1372 C1373 1.397 . S
C1372 C1377 1.363 . S
C1373 H1344 0.950 . S
C1373 C1372 1.397 . S
C1373 C1374 1.334 . S
C1374 H1345 0.950 . S
C1374 C1373 1.334 . S
C1374 C1375 1.287 . S
C1375 C1374 1.287 . S
C1375 C1376 1.524 . S
C1375 H1378 0.999 . S
C1376 H1346 0.950 . S
C1376 C1375 1.524 . S
C1376 C1377 1.415 . S
C1377 H1347 0.950 . S
C1377 C1372 1.363 . S
C1377 C1376 1.415 . S
H1378 C1375 0.999 . S
H1379 C1360 0.913 . S
H1380 C1398 0.951 . S
H1381 C1400 0.951 . S
H1382 C1402 0.965 . S
H1383 C1403 0.964 . S
H1384 C1405 0.950 . S
H1385 C1408 0.950 . S
H1386 C1409 0.950 . S
H1387 C1411 0.950 . S
H1388 C1412 0.950 . S
H1389 C1413 0.965 . S
H1390 C1415 0.951 . S
H1391 C1417 0.950 . S
H1392 C1418 0.950 . S
H1393 C1420 0.950 . S
H1394 C1423 0.950 . S
H1395 C1424 0.950 . S
H1396 C1426 0.950 . S
H1397 C1427 0.950 . S
C1398 H1380 0.951 . S
C1398 C1399 1.366 . S
C1398 C1400 1.388 . S
C1399 C1398 1.366 . S
C1399 C1403 1.385 . S
C1400 H1381 0.951 . S
C1400 C1398 1.388 . S
C1400 C1401 1.366 . S
C1401 C1400 1.366 . S
C1401 C1402 1.414 . S
C1401 C1404 1.499 . S
C1402 H1382 0.965 . S
C1402 C1401 1.414 . S
C1402 C1403 1.374 . S
C1403 H1383 0.964 . S
C1403 C1399 1.385 . S
C1403 C1402 1.374 . S
C1404 C1401 1.499 . S
C1404 C1405 1.373 1_545 S
C1404 C1406 1.389 . S
C1405 H1384 0.950 . S
C1405 C1404 1.373 1_565 S
C1405 C1421 1.377 . S
C1406 C1404 1.389 . S
C1406 C1407 1.524 . S
C1406 C1420 1.377 . S
C1407 C1406 1.524 . S
C1407 C1408 1.397 . S
C1407 C1412 1.363 . S
C1408 H1385 0.950 . S
C1408 C1407 1.397 . S
C1408 C1409 1.334 . S
C1409 H1386 0.950 . S
C1409 C1408 1.334 . S
C1409 C1410 1.287 . S
C1410 C1409 1.287 . S
C1410 C1411 1.524 . S
C1410 H1429 0.913 . S
C1411 H1387 0.950 . S
C1411 C1410 1.524 . S
C1411 C1412 1.415 . S
C1412 H1388 0.950 . S
C1412 C1407 1.363 . S
C1412 C1411 1.415 . S
C1413 H1389 0.965 . S
C1413 C1414 1.366 . S
C1413 C1415 1.388 . S
C1414 C1413 1.366 . S
C1414 C1418 1.385 . S
C1415 H1390 0.951 . S
C1415 C1413 1.388 . S
C1415 C1416 1.366 . S
C1416 C1415 1.366 . S
C1416 C1417 1.414 . S
C1416 C1419 1.499 . S
C1417 H1391 0.950 . S
C1417 C1416 1.414 . S
C1417 C1418 1.374 . S
C1418 H1392 0.950 . S
C1418 C1414 1.385 . S
C1418 C1417 1.374 . S
C1419 C1416 1.499 . S
C1419 C1420 1.373 . S
C1419 C1421 1.389 1_545 S
C1420 H1393 0.950 . S
C1420 C1406 1.377 . S
C1420 C1419 1.373 . S
C1421 C1405 1.377 . S
C1421 C1419 1.389 1_565 S
C1421 C1422 1.524 . S
C1422 C1421 1.524 . S
C1422 C1423 1.397 . S
C1422 C1427 1.363 . S
C1423 H1394 0.950 . S
C1423 C1422 1.397 . S
C1423 C1424 1.334 . S
C1424 H1395 0.950 . S
C1424 C1423 1.334 . S
C1424 C1425 1.287 . S
C1425 C1424 1.287 . S
C1425 C1426 1.524 . S
C1425 H1428 0.999 . S
C1426 H1396 0.950 . S
C1426 C1425 1.524 . S
C1426 C1427 1.415 . S
C1427 H1397 0.950 . S
C1427 C1422 1.363 . S
C1427 C1426 1.415 . S
H1428 C1425 0.999 . S
H1429 C1410 0.913 . S
H1430 C1448 0.951 . S
H1431 C1450 0.951 . S
H1432 C1452 0.950 . S
H1433 C1453 0.950 . S
H1434 C1455 0.949 . S
H1435 C1458 0.956 . S
H1436 C1459 0.950 . S
H1437 C1461 0.950 . S
H1438 C1462 0.950 . S
H1439 C1463 0.951 . S
H1440 C1465 0.951 . S
H1441 C1467 0.950 . S
H1442 C1468 0.950 . S
H1443 C1470 0.949 . S
H1444 C1473 0.956 . S
H1445 C1474 0.950 . S
H1446 C1476 0.950 . S
H1447 C1477 0.950 . S
C1448 H1430 0.951 . S
C1448 C1449 1.366 . S
C1448 C1450 1.388 . S
C1449 C1448 1.366 . S
C1449 C1453 1.385 . S
C1450 H1431 0.951 . S
C1450 C1448 1.388 . S
C1450 C1451 1.366 . S
C1451 C1450 1.366 . S
C1451 C1452 1.414 . S
C1451 C1454 1.499 . S
C1452 H1432 0.950 . S
C1452 C1451 1.414 . S
C1452 C1453 1.374 . S
C1453 H1433 0.950 . S
C1453 C1449 1.385 . S
C1453 C1452 1.374 . S
C1454 C1451 1.499 . S
C1454 C1455 1.345 1_554 S
C1454 C1456 1.389 1_545 S
C1455 H1434 0.949 . S
C1455 C1454 1.345 1_556 S
C1455 C1471 1.403 . S
C1456 C1454 1.389 1_565 S
C1456 C1457 1.524 . S
C1456 C1470 1.403 . S
C1457 C1456 1.524 . S
C1457 C1458 1.397 . S
C1457 C1462 1.363 . S
C1458 H1435 0.956 . S
C1458 C1457 1.397 . S
C1458 C1459 1.334 . S
C1459 H1436 0.950 . S
C1459 C1458 1.334 . S
C1459 C1460 1.287 . S
C1460 C1459 1.287 . S
C1460 C1461 1.524 . S
C1460 H1479 0.913 . S
C1461 H1437 0.950 . S
C1461 C1460 1.524 . S
C1461 C1462 1.415 . S
C1462 H1438 0.950 . S
C1462 C1457 1.363 . S
C1462 C1461 1.415 . S
C1463 H1439 0.951 . S
C1463 C1464 1.366 . S
C1463 C1465 1.388 . S
C1464 C1463 1.366 . S
C1464 C1468 1.385 . S
C1465 H1440 0.951 . S
C1465 C1463 1.388 . S
C1465 C1466 1.366 . S
C1466 C1465 1.366 . S
C1466 C1467 1.414 . S
C1466 C1469 1.499 . S
C1467 H1441 0.950 . S
C1467 C1466 1.414 . S
C1467 C1468 1.374 . S
C1468 H1442 0.950 . S
C1468 C1464 1.385 . S
C1468 C1467 1.374 . S
C1469 C1466 1.499 . S
C1469 C1470 1.345 1_556 S
C1469 C1471 1.389 1_565 S
C1470 H1443 0.949 . S
C1470 C1456 1.403 . S
C1470 C1469 1.345 1_554 S
C1471 C1455 1.403 . S
C1471 C1469 1.389 1_545 S
C1471 C1472 1.524 . S
C1472 C1471 1.524 . S
C1472 C1473 1.397 . S
C1472 C1477 1.363 . S
C1473 H1444 0.956 . S
C1473 C1472 1.397 . S
C1473 C1474 1.334 . S
C1474 H1445 0.950 . S
C1474 C1473 1.334 . S
C1474 C1475 1.287 . S
C1475 C1474 1.287 . S
C1475 C1476 1.524 . S
C1475 H1478 0.999 . S
C1476 H1446 0.950 . S
C1476 C1475 1.524 . S
C1476 C1477 1.415 . S
C1477 H1447 0.950 . S
C1477 C1472 1.363 . S
C1477 C1476 1.415 . S
H1478 C1475 0.999 . S
H1479 C1460 0.913 . S
H1480 C1498 0.951 . S
H1481 C1500 0.951 . S
H1482 C1502 0.950 . S
H1483 C1503 0.950 . S
H1484 C1505 0.950 . S
H1485 C1508 0.950 . S
H1486 C1509 0.950 . S
H1487 C1511 0.950 . S
H1488 C1512 0.950 . S
H1489 C1513 0.951 . S
H1490 C1515 0.951 . S
H1491 C1517 0.950 . S
H1492 C1518 0.950 . S
H1493 C1520 0.950 . S
H1494 C1523 0.950 . S
H1495 C1524 0.950 . S
H1496 C1526 0.950 . S
H1497 C1527 0.950 . S
C1498 H1480 0.951 . S
C1498 C1499 1.366 . S
C1498 C1500 1.388 . S
C1499 C1498 1.366 . S
C1499 C1503 1.385 . S
C1500 H1481 0.951 . S
C1500 C1498 1.388 . S
C1500 C1501 1.366 . S
C1501 C1500 1.366 . S
C1501 C1502 1.414 . S
C1501 C1504 1.499 . S
C1502 H1482 0.950 . S
C1502 C1501 1.414 . S
C1502 C1503 1.374 . S
C1503 H1483 0.950 . S
C1503 C1499 1.385 . S
C1503 C1502 1.374 . S
C1504 C1501 1.499 . S
C1504 C1505 1.373 . S
C1504 C1506 1.389 1_545 S
C1505 H1484 0.950 . S
C1505 C1504 1.373 . S
C1505 C1521 1.377 . S
C1506 C1504 1.389 1_565 S
C1506 C1507 1.524 . S
C1506 C1520 1.377 . S
C1507 C1506 1.524 . S
C1507 C1508 1.397 . S
C1507 C1512 1.363 . S
C1508 H1485 0.950 . S
C1508 C1507 1.397 . S
C1508 C1509 1.334 . S
C1509 H1486 0.950 . S
C1509 C1508 1.334 . S
C1509 C1510 1.287 . S
C1510 C1509 1.287 . S
C1510 C1511 1.524 . S
C1510 H1529 0.913 . S
C1511 H1487 0.950 . S
C1511 C1510 1.524 . S
C1511 C1512 1.415 . S
C1512 H1488 0.950 . S
C1512 C1507 1.363 . S
C1512 C1511 1.415 . S
C1513 H1489 0.951 . S
C1513 C1514 1.366 . S
C1513 C1515 1.388 . S
C1514 C1513 1.366 . S
C1514 C1518 1.385 . S
C1515 H1490 0.951 . S
C1515 C1513 1.388 . S
C1515 C1516 1.366 . S
C1516 C1515 1.366 . S
C1516 C1517 1.414 . S
C1516 C1519 1.499 . S
C1517 H1491 0.950 . S
C1517 C1516 1.414 . S
C1517 C1518 1.374 . S
C1518 H1492 0.950 . S
C1518 C1514 1.385 . S
C1518 C1517 1.374 . S
C1519 C1516 1.499 . S
C1519 C1520 1.373 1_545 S
C1519 C1521 1.389 . S
C1520 H1493 0.950 . S
C1520 C1506 1.377 . S
C1520 C1519 1.373 1_565 S
C1521 C1505 1.377 . S
C1521 C1519 1.389 . S
C1521 C1522 1.524 . S
C1522 C1521 1.524 . S
C1522 C1523 1.397 . S
C1522 C1527 1.363 . S
C1523 H1494 0.950 . S
C1523 C1522 1.397 . S
C1523 C1524 1.334 . S
C1524 H1495 0.950 . S
C1524 C1523 1.334 . S
C1524 C1525 1.287 . S
C1525 C1524 1.287 . S
C1525 C1526 1.524 . S
C1525 H1528 0.999 . S
C1526 H1496 0.950 . S
C1526 C1525 1.524 . S
C1526 C1527 1.415 . S
C1527 H1497 0.950 . S
C1527 C1522 1.363 . S
C1527 C1526 1.415 . S
H1528 C1525 0.999 . S
H1529 C1510 0.913 . S
H1530 C1548 0.951 . S
H1531 C1550 0.951 . S
H1532 C1552 0.950 . S
H1533 C1553 0.950 . S
H1534 C1555 0.950 . S
H1535 C1558 0.950 . S
H1536 C1559 0.950 . S
H1537 C1561 0.950 . S
H1538 C1562 0.950 . S
H1539 C1563 0.951 . S
H1540 C1565 0.951 . S
H1541 C1567 0.950 . S
H1542 C1568 0.950 . S
H1543 C1570 0.950 . S
H1544 C1573 0.950 . S
H1545 C1574 0.950 . S
H1546 C1576 0.950 . S
H1547 C1577 0.950 . S
C1548 H1530 0.951 . S
C1548 C1549 1.366 . S
C1548 C1550 1.388 . S
C1549 C1548 1.366 . S
C1549 C1553 1.385 . S
C1550 H1531 0.951 . S
C1550 C1548 1.388 . S
C1550 C1551 1.366 . S
C1551 C1550 1.366 . S
C1551 C1552 1.414 . S
C1551 C1554 1.499 . S
C1552 H1532 0.950 . S
C1552 C1551 1.414 . S
C1552 C1553 1.374 . S
C1553 H1533 0.950 . S
C1553 C1549 1.385 . S
C1553 C1552 1.374 . S
C1554 C1551 1.499 . S
C1554 C1555 1.371 1_565 S
C1554 C1556 1.389 . S
C1555 H1534 0.950 . S
C1555 C1554 1.371 1_545 S
C1555 C1571 1.379 . S
C1556 C1554 1.389 . S
C1556 C1557 1.524 . S
C1556 C1570 1.379 . S
C1557 C1556 1.524 . S
C1557 C1558 1.397 . S
C1557 C1562 1.363 . S
C1558 H1535 0.950 . S
C1558 C1557 1.397 . S
C1558 C1559 1.334 . S
C1559 H1536 0.950 . S
C1559 C1558 1.334 . S
C1559 C1560 1.287 . S
C1560 C1559 1.287 . S
C1560 C1561 1.524 . S
C1560 H1579 0.913 . S
C1561 H1537 0.950 . S
C1561 C1560 1.524 . S
C1561 C1562 1.415 . S
C1562 H1538 0.950 . S
C1562 C1557 1.363 . S
C1562 C1561 1.415 . S
C1563 H1539 0.951 . S
C1563 C1564 1.366 . S
C1563 C1565 1.388 . S
C1564 C1563 1.366 . S
C1564 C1568 1.385 . S
C1565 H1540 0.951 . S
C1565 C1563 1.388 . S
C1565 C1566 1.366 . S
C1566 C1565 1.366 . S
C1566 C1567 1.414 . S
C1566 C1569 1.499 . S
C1567 H1541 0.950 . S
C1567 C1566 1.414 . S
C1567 C1568 1.374 . S
C1568 H1542 0.950 . S
C1568 C1564 1.385 . S
C1568 C1567 1.374 . S
C1569 C1566 1.499 . S
C1569 C1570 1.371 1_545 S
C1569 C1571 1.389 . S
C1570 H1543 0.950 . S
C1570 C1556 1.379 . S
C1570 C1569 1.371 1_565 S
C1571 C1555 1.379 . S
C1571 C1569 1.389 . S
C1571 C1572 1.524 . S
C1572 C1571 1.524 . S
C1572 C1573 1.397 . S
C1572 C1577 1.363 . S
C1573 H1544 0.950 . S
C1573 C1572 1.397 . S
C1573 C1574 1.334 . S
C1574 H1545 0.950 . S
C1574 C1573 1.334 . S
C1574 C1575 1.287 . S
C1575 C1574 1.287 . S
C1575 C1576 1.524 . S
C1575 H1578 0.999 . S
C1576 H1546 0.950 . S
C1576 C1575 1.524 . S
C1576 C1577 1.415 . S
C1577 H1547 0.950 . S
C1577 C1572 1.363 . S
C1577 C1576 1.415 . S
H1578 C1575 0.999 . S
H1579 C1560 0.913 . S
H1580 C1598 0.951 1_545 S
H1581 C1600 0.951 1_545 S
H1582 C1602 0.950 . S
H1583 C1603 0.950 . S
H1584 C1605 0.950 . S
H1585 C1608 0.950 . S
H1586 C1609 0.950 . S
H1587 C1611 0.950 . S
H1588 C1612 0.950 . S
H1589 C1613 0.951 . S
H1590 C1615 0.951 . S
H1591 C1617 0.917 1_545 S
H1592 C1618 0.950 1_545 S
H1593 C1620 0.950 . S
H1594 C1623 0.950 . S
H1595 C1624 0.950 . S
H1596 C1626 0.950 1_565 S
H1597 C1627 0.950 . S
C1598 H1580 0.951 1_565 S
C1598 C1599 1.366 . S
C1598 C1600 1.388 . S
C1599 C1598 1.366 . S
C1599 C1603 1.385 . S
C1600 H1581 0.951 1_565 S
C1600 C1598 1.388 . S
C1600 C1601 1.366 . S
C1601 C1600 1.366 . S
C1601 C1602 1.414 . S
C1601 C1604 1.499 . S
C1602 H1582 0.950 . S
C1602 C1601 1.414 . S
C1602 C1603 1.374 . S
C1603 H1583 0.950 . S
C1603 C1599 1.385 . S
C1603 C1602 1.374 . S
C1604 C1601 1.499 . S
C1604 C1605 1.373 . S
C1604 C1606 1.389 . S
C1605 H1584 0.950 . S
C1605 C1604 1.373 . S
C1605 C1621 1.377 . S
C1606 C1604 1.389 . S
C1606 C1607 1.524 . S
C1606 C1620 1.377 . S
C1607 C1606 1.524 . S
C1607 C1608 1.397 . S
C1607 C1612 1.363 . S
C1608 H1585 0.950 . S
C1608 C1607 1.397 . S
C1608 C1609 1.334 . S
C1609 H1586 0.950 . S
C1609 C1608 1.334 . S
C1609 C1610 1.287 . S
C1610 C1609 1.287 . S
C1610 C1611 1.524 . S
C1610 H1629 0.913 . S
C1611 H1587 0.950 . S
C1611 C1610 1.524 . S
C1611 C1612 1.415 . S
C1612 H1588 0.950 . S
C1612 C1607 1.363 . S
C1612 C1611 1.415 . S
C1613 H1589 0.951 . S
C1613 C1614 1.366 . S
C1613 C1615 1.388 . S
C1614 C1613 1.366 . S
C1614 C1618 1.385 . S
C1615 H1590 0.951 . S
C1615 C1613 1.388 . S
C1615 C1616 1.366 . S
C1616 C1615 1.366 . S
C1616 C1617 1.450 . S
C1616 C1619 1.499 . S
C1617 H1591 0.917 1_565 S
C1617 C1616 1.450 . S
C1617 C1618 1.377 . S
C1618 H1592 0.950 1_565 S
C1618 C1614 1.385 . S
C1618 C1617 1.377 . S
C1619 C1616 1.499 . S
C1619 C1620 1.373 . S
C1619 C1621 1.389 . S
C1620 H1593 0.950 . S
C1620 C1606 1.377 . S
C1620 C1619 1.373 . S
C1621 C1605 1.377 . S
C1621 C1619 1.389 . S
C1621 C1622 1.524 1_565 S
C1622 C1621 1.524 1_545 S
C1622 C1623 1.397 . S
C1622 C1627 1.363 1_545 S
C1623 H1594 0.950 . S
C1623 C1622 1.397 . S
C1623 C1624 1.334 . S
C1624 H1595 0.950 . S
C1624 C1623 1.334 . S
C1624 C1625 1.287 . S
C1625 C1624 1.287 . S
C1625 C1626 1.524 . S
C1625 H1628 0.999 . S
C1626 H1596 0.950 1_545 S
C1626 C1625 1.524 . S
C1626 C1627 1.415 1_545 S
C1627 H1597 0.950 . S
C1627 C1622 1.363 1_565 S
C1627 C1626 1.415 1_565 S
H1628 C1625 0.999 . S
H1629 C1610 0.913 . S
H1630 C1648 0.951 . S
H1631 C1650 0.951 . S
H1632 C1652 0.950 . S
H1633 C1653 0.950 . S
H1634 C1655 0.950 . S
H1635 C1658 0.950 . S
H1636 C1659 0.950 . S
H1637 C1661 0.950 1_565 S
H1638 C1662 0.954 . S
H1639 C1663 0.951 . S
H1640 C1665 0.951 . S
H1641 C1667 0.950 . S
H1642 C1668 0.950 . S
H1643 C1670 0.950 . S
H1644 C1673 0.950 . S
H1645 C1674 0.950 . S
H1646 C1676 0.950 1_545 S
H1647 C1677 0.954 . S
C1648 H1630 0.951 . S
C1648 C1649 1.366 . S
C1648 C1650 1.388 . S
C1649 C1648 1.366 . S
C1649 C1653 1.385 . S
C1650 H1631 0.951 . S
C1650 C1648 1.388 . S
C1650 C1651 1.366 . S
C1651 C1650 1.366 . S
C1651 C1652 1.414 . S
C1651 C1654 1.499 . S
C1652 H1632 0.950 . S
C1652 C1651 1.414 . S
C1652 C1653 1.374 . S
C1653 H1633 0.950 . S
C1653 C1649 1.385 . S
C1653 C1652 1.374 . S
C1654 C1651 1.499 . S
C1654 C1655 1.373 . S
C1654 C1656 1.389 . S
C1655 H1634 0.950 . S
C1655 C1654 1.373 . S
C1655 C1671 1.377 1_544 S
C1656 C1654 1.389 . S
C1656 C1657 1.524 . S
C1656 C1670 1.377 1_544 S
C1657 C1656 1.524 . S
C1657 C1658 1.397 . S
C1657 C1662 1.360 1_545 S
C1658 H1635 0.950 . S
C1658 C1657 1.397 . S
C1658 C1659 1.334 . S
C1659 H1636 0.950 . S
C1659 C1658 1.334 . S
C1659 C1660 1.287 . S
C1660 C1659 1.287 . S
C1660 C1661 1.524 . S
C1660 H1679 0.913 . S
C1661 H1637 0.950 1_545 S
C1661 C1660 1.524 . S
C1661 C1662 1.414 1_545 S
C1662 H1638 0.954 . S
C1662 C1657 1.360 1_565 S
C1662 C1661 1.414 1_565 S
C1663 H1639 0.951 . S
C1663 C1664 1.366 . S
C1663 C1665 1.388 . S
C1664 C1663 1.366 . S
C1664 C1668 1.385 . S
C1665 H1640 0.951 . S
C1665 C1663 1.388 . S
C1665 C1666 1.366 . S
C1666 C1665 1.366 . S
C1666 C1667 1.414 . S
C1666 C1669 1.499 . S
C1667 H1641 0.950 . S
C1667 C1666 1.414 . S
C1667 C1668 1.374 . S
C1668 H1642 0.950 . S
C1668 C1664 1.385 . S
C1668 C1667 1.374 . S
C1669 C1666 1.499 . S
C1669 C1670 1.373 . S
C1669 C1671 1.389 . S
C1670 H1643 0.950 . S
C1670 C1656 1.377 1_566 S
C1670 C1669 1.373 . S
C1671 C1655 1.377 1_566 S
C1671 C1669 1.389 . S
C1671 C1672 1.524 . S
C1672 C1671 1.524 . S
C1672 C1673 1.397 . S
C1672 C1677 1.360 1_565 S
C1673 H1644 0.950 . S
C1673 C1672 1.397 . S
C1673 C1674 1.334 . S
C1674 H1645 0.950 . S
C1674 C1673 1.334 . S
C1674 C1675 1.287 . S
C1675 C1674 1.287 . S
C1675 C1676 1.524 . S
C1675 H1678 0.999 . S
C1676 H1646 0.950 1_565 S
C1676 C1675 1.524 . S
C1676 C1677 1.414 1_565 S
C1677 H1647 0.954 . S
C1677 C1672 1.360 1_545 S
C1677 C1676 1.414 1_545 S
H1678 C1675 0.999 . S
H1679 C1660 0.913 . S
H1680 C1698 0.951 . S
H1681 C1700 0.951 . S
H1682 C1702 0.950 . S
H1683 C1703 0.950 . S
H1684 C1705 0.950 . S
H1685 C1708 0.950 . S
H1686 C1709 0.950 . S
H1687 C1711 0.950 . S
H1688 C1712 0.950 . S
H1689 C1713 0.951 . S
H1690 C1715 0.951 . S
H1691 C1717 0.950 . S
H1692 C1718 0.950 . S
H1693 C1720 0.950 . S
H1694 C1723 0.950 . S
H1695 C1724 0.950 . S
H1696 C1726 0.950 . S
H1697 C1727 0.950 . S
C1698 H1680 0.951 . S
C1698 C1699 1.366 . S
C1698 C1700 1.388 . S
C1699 C1698 1.366 . S
C1699 C1703 1.385 . S
C1700 H1681 0.951 . S
C1700 C1698 1.388 . S
C1700 C1701 1.366 . S
C1701 C1700 1.366 . S
C1701 C1702 1.414 . S
C1701 C1704 1.499 . S
C1702 H1682 0.950 . S
C1702 C1701 1.414 . S
C1702 C1703 1.374 . S
C1703 H1683 0.950 . S
C1703 C1699 1.385 . S
C1703 C1702 1.374 . S
C1704 C1701 1.499 . S
C1704 C1705 1.373 . S
C1704 C1706 1.389 . S
C1705 H1684 0.950 . S
C1705 C1704 1.373 . S
C1705 C1721 1.377 . S
C1706 C1704 1.389 . S
C1706 C1707 1.524 . S
C1706 C1720 1.377 . S
C1707 C1706 1.524 . S
C1707 C1708 1.397 . S
C1707 C1712 1.363 . S
C1708 H1685 0.950 . S
C1708 C1707 1.397 . S
C1708 C1709 1.334 . S
C1709 H1686 0.950 . S
C1709 C1708 1.334 . S
C1709 C1710 1.287 . S
C1710 C1709 1.287 . S
C1710 C1711 1.524 . S
C1710 H1729 0.913 . S
C1711 H1687 0.950 . S
C1711 C1710 1.524 . S
C1711 C1712 1.415 . S
C1712 H1688 0.950 . S
C1712 C1707 1.363 . S
C1712 C1711 1.415 . S
C1713 H1689 0.951 . S
C1713 C1714 1.366 . S
C1713 C1715 1.388 . S
C1714 C1713 1.366 . S
C1714 C1718 1.385 . S
C1715 H1690 0.951 . S
C1715 C1713 1.388 . S
C1715 C1716 1.366 . S
C1716 C1715 1.366 . S
C1716 C1717 1.414 . S
C1716 C1719 1.499 . S
C1717 H1691 0.950 . S
C1717 C1716 1.414 . S
C1717 C1718 1.374 . S
C1718 H1692 0.950 . S
C1718 C1714 1.385 . S
C1718 C1717 1.374 . S
C1719 C1716 1.499 . S
C1719 C1720 1.373 . S
C1719 C1721 1.389 . S
C1720 H1693 0.950 . S
C1720 C1706 1.377 . S
C1720 C1719 1.373 . S
C1721 C1705 1.377 . S
C1721 C1719 1.389 . S
C1721 C1722 1.524 . S
C1722 C1721 1.524 . S
C1722 C1723 1.397 . S
C1722 C1727 1.363 . S
C1723 H1694 0.950 . S
C1723 C1722 1.397 . S
C1723 C1724 1.334 . S
C1724 H1695 0.950 . S
C1724 C1723 1.334 . S
C1724 C1725 1.287 . S
C1725 C1724 1.287 . S
C1725 C1726 1.524 . S
C1725 H1728 0.999 . S
C1726 H1696 0.950 . S
C1726 C1725 1.524 . S
C1726 C1727 1.415 . S
C1727 H1697 0.950 . S
C1727 C1722 1.363 . S
C1727 C1726 1.415 . S
H1728 C1725 0.999 . S
H1729 C1710 0.913 . S
H1730 C1748 0.951 . S
H1731 C1750 0.951 . S
H1732 C1752 0.950 . S
H1733 C1753 0.950 . S
H1734 C1755 0.950 . S
H1735 C1758 0.950 . S
H1736 C1759 0.950 . S
H1737 C1761 0.950 . S
H1738 C1762 0.950 . S
H1739 C1763 0.951 . S
H1740 C1765 0.951 . S
H1741 C1767 0.950 . S
H1742 C1768 0.950 . S
H1743 C1770 0.950 . S
H1744 C1773 0.950 . S
H1745 C1774 0.950 . S
H1746 C1776 0.950 . S
H1747 C1777 0.950 . S
C1748 H1730 0.951 . S
C1748 C1749 1.366 . S
C1748 C1750 1.388 . S
C1749 C1748 1.366 . S
C1749 C1753 1.385 . S
C1750 H1731 0.951 . S
C1750 C1748 1.388 . S
C1750 C1751 1.366 . S
C1751 C1750 1.366 . S
C1751 C1752 1.414 . S
C1751 C1754 1.499 . S
C1752 H1732 0.950 . S
C1752 C1751 1.414 . S
C1752 C1753 1.374 . S
C1753 H1733 0.950 . S
C1753 C1749 1.385 . S
C1753 C1752 1.374 . S
C1754 C1751 1.499 . S
C1754 C1755 1.373 . S
C1754 C1756 1.389 . S
C1755 H1734 0.950 . S
C1755 C1754 1.373 . S
C1755 C1771 1.377 1_556 S
C1756 C1754 1.389 . S
C1756 C1757 1.524 . S
C1756 C1770 1.377 1_556 S
C1757 C1756 1.524 . S
C1757 C1758 1.397 . S
C1757 C1762 1.363 . S
C1758 H1735 0.950 . S
C1758 C1757 1.397 . S
C1758 C1759 1.334 . S
C1759 H1736 0.950 . S
C1759 C1758 1.334 . S
C1759 C1760 1.287 . S
C1760 C1759 1.287 . S
C1760 C1761 1.524 . S
C1760 H1779 0.913 . S
C1761 H1737 0.950 . S
C1761 C1760 1.524 . S
C1761 C1762 1.415 . S
C1762 H1738 0.950 . S
C1762 C1757 1.363 . S
C1762 C1761 1.415 . S
C1763 H1739 0.951 . S
C1763 C1764 1.366 . S
C1763 C1765 1.388 . S
C1764 C1763 1.366 . S
C1764 C1768 1.385 . S
C1765 H1740 0.951 . S
C1765 C1763 1.388 . S
C1765 C1766 1.366 . S
C1766 C1765 1.366 . S
C1766 C1767 1.414 . S
C1766 C1769 1.499 . S
C1767 H1741 0.950 . S
C1767 C1766 1.414 . S
C1767 C1768 1.374 . S
C1768 H1742 0.950 . S
C1768 C1764 1.385 . S
C1768 C1767 1.374 . S
C1769 C1766 1.499 . S
C1769 C1770 1.373 . S
C1769 C1771 1.389 . S
C1770 H1743 0.950 . S
C1770 C1756 1.377 1_554 S
C1770 C1769 1.373 . S
C1771 C1755 1.377 1_554 S
C1771 C1769 1.389 . S
C1771 C1772 1.524 . S
C1772 C1771 1.524 . S
C1772 C1773 1.397 . S
C1772 C1777 1.363 . S
C1773 H1744 0.950 . S
C1773 C1772 1.397 . S
C1773 C1774 1.334 . S
C1774 H1745 0.950 . S
C1774 C1773 1.334 . S
C1774 C1775 1.287 . S
C1775 C1774 1.287 . S
C1775 C1776 1.524 . S
C1775 H1778 0.999 . S
C1776 H1746 0.950 . S
C1776 C1775 1.524 . S
C1776 C1777 1.415 . S
C1777 H1747 0.950 . S
C1777 C1772 1.363 . S
C1777 C1776 1.415 . S
H1778 C1775 0.999 . S
H1779 C1760 0.913 . S
H1780 C1798 0.951 . S
H1781 C1800 0.951 . S
H1782 C1802 0.950 . S
H1783 C1803 0.950 . S
H1784 C1805 0.950 . S
H1785 C1808 0.950 . S
H1786 C1809 0.950 . S
H1787 C1811 0.950 . S
H1788 C1812 0.950 . S
H1789 C1813 0.951 . S
H1790 C1815 0.951 . S
H1791 C1817 0.950 . S
H1792 C1818 0.950 . S
H1793 C1820 0.950 . S
H1794 C1823 0.950 . S
H1795 C1824 0.950 . S
H1796 C1826 0.950 . S
H1797 C1827 0.950 . S
C1798 H1780 0.951 . S
C1798 C1799 1.366 . S
C1798 C1800 1.388 . S
C1799 C1798 1.366 . S
C1799 C1803 1.385 . S
C1800 H1781 0.951 . S
C1800 C1798 1.388 . S
C1800 C1801 1.366 . S
C1801 C1800 1.366 . S
C1801 C1802 1.414 . S
C1801 C1804 1.499 . S
C1802 H1782 0.950 . S
C1802 C1801 1.414 . S
C1802 C1803 1.374 . S
C1803 H1783 0.950 . S
C1803 C1799 1.385 . S
C1803 C1802 1.374 . S
C1804 C1801 1.499 . S
C1804 C1805 1.373 . S
C1804 C1806 1.389 . S
C1805 H1784 0.950 . S
C1805 C1804 1.373 . S
C1805 C1821 1.377 . S
C1806 C1804 1.389 . S
C1806 C1807 1.524 . S
C1806 C1820 1.377 . S
C1807 C1806 1.524 . S
C1807 C1808 1.397 . S
C1807 C1812 1.363 . S
C1808 H1785 0.950 . S
C1808 C1807 1.397 . S
C1808 C1809 1.334 . S
C1809 H1786 0.950 . S
C1809 C1808 1.334 . S
C1809 C1810 1.287 . S
C1810 C1809 1.287 . S
C1810 C1811 1.524 . S
C1810 H1829 0.913 . S
C1811 H1787 0.950 . S
C1811 C1810 1.524 . S
C1811 C1812 1.415 . S
C1812 H1788 0.950 . S
C1812 C1807 1.363 . S
C1812 C1811 1.415 . S
C1813 H1789 0.951 . S
C1813 C1814 1.366 . S
C1813 C1815 1.388 . S
C1814 C1813 1.366 . S
C1814 C1818 1.385 . S
C1815 H1790 0.951 . S
C1815 C1813 1.388 . S
C1815 C1816 1.366 . S
C1816 C1815 1.366 . S
C1816 C1817 1.414 . S
C1816 C1819 1.499 . S
C1817 H1791 0.950 . S
C1817 C1816 1.414 . S
C1817 C1818 1.374 . S
C1818 H1792 0.950 . S
C1818 C1814 1.385 . S
C1818 C1817 1.374 . S
C1819 C1816 1.499 . S
C1819 C1820 1.373 . S
C1819 C1821 1.389 . S
C1820 H1793 0.950 . S
C1820 C1806 1.377 . S
C1820 C1819 1.373 . S
C1821 C1805 1.377 . S
C1821 C1819 1.389 . S
C1821 C1822 1.524 . S
C1822 C1821 1.524 . S
C1822 C1823 1.397 . S
C1822 C1827 1.363 . S
C1823 H1794 0.950 . S
C1823 C1822 1.397 . S
C1823 C1824 1.334 . S
C1824 H1795 0.950 . S
C1824 C1823 1.334 . S
C1824 C1825 1.287 . S
C1825 C1824 1.287 . S
C1825 C1826 1.524 . S
C1825 H1828 0.999 . S
C1826 H1796 0.950 . S
C1826 C1825 1.524 . S
C1826 C1827 1.415 . S
C1827 H1797 0.950 . S
C1827 C1822 1.363 . S
C1827 C1826 1.415 . S
H1828 C1825 0.999 . S
H1829 C1810 0.913 . S
H1830 C1848 0.951 . S
H1831 C1850 0.951 . S
H1832 C1852 0.950 . S
H1833 C1853 0.950 . S
H1834 C1855 0.950 . S
H1835 C1858 0.950 . S
H1836 C1859 0.950 . S
H1837 C1861 0.950 . S
H1838 C1862 0.950 . S
H1839 C1863 0.951 . S
H1840 C1865 0.951 . S
H1841 C1867 0.950 . S
H1842 C1868 0.950 . S
H1843 C1870 0.950 . S
H1844 C1873 0.950 . S
H1845 C1874 0.950 . S
H1846 C1876 0.950 . S
H1847 C1877 0.950 . S
C1848 H1830 0.951 . S
C1848 C1849 1.366 . S
C1848 C1850 1.388 . S
C1849 C1848 1.366 . S
C1849 C1853 1.385 . S
C1850 H1831 0.951 . S
C1850 C1848 1.388 . S
C1850 C1851 1.366 . S
C1851 C1850 1.366 . S
C1851 C1852 1.414 . S
C1851 C1854 1.499 . S
C1852 H1832 0.950 . S
C1852 C1851 1.414 . S
C1852 C1853 1.374 . S
C1853 H1833 0.950 . S
C1853 C1849 1.385 . S
C1853 C1852 1.374 . S
C1854 C1851 1.499 . S
C1854 C1855 1.373 . S
C1854 C1856 1.389 . S
C1855 H1834 0.950 . S
C1855 C1854 1.373 . S
C1855 C1871 1.377 . S
C1856 C1854 1.389 . S
C1856 C1857 1.524 . S
C1856 C1870 1.377 . S
C1857 C1856 1.524 . S
C1857 C1858 1.397 . S
C1857 C1862 1.363 . S
C1858 H1835 0.950 . S
C1858 C1857 1.397 . S
C1858 C1859 1.334 . S
C1859 H1836 0.950 . S
C1859 C1858 1.334 . S
C1859 C1860 1.287 . S
C1860 C1859 1.287 . S
C1860 C1861 1.524 . S
C1860 H1879 0.913 . S
C1861 H1837 0.950 . S
C1861 C1860 1.524 . S
C1861 C1862 1.415 . S
C1862 H1838 0.950 . S
C1862 C1857 1.363 . S
C1862 C1861 1.415 . S
C1863 H1839 0.951 . S
C1863 C1864 1.366 . S
C1863 C1865 1.388 . S
C1864 C1863 1.366 . S
C1864 C1868 1.385 . S
C1865 H1840 0.951 . S
C1865 C1863 1.388 . S
C1865 C1866 1.366 . S
C1866 C1865 1.366 . S
C1866 C1867 1.414 . S
C1866 C1869 1.499 . S
C1867 H1841 0.950 . S
C1867 C1866 1.414 . S
C1867 C1868 1.374 . S
C1868 H1842 0.950 . S
C1868 C1864 1.385 . S
C1868 C1867 1.374 . S
C1869 C1866 1.499 . S
C1869 C1870 1.373 . S
C1869 C1871 1.389 . S
C1870 H1843 0.950 . S
C1870 C1856 1.377 . S
C1870 C1869 1.373 . S
C1871 C1855 1.377 . S
C1871 C1869 1.389 . S
C1871 C1872 1.524 . S
C1872 C1871 1.524 . S
C1872 C1873 1.397 . S
C1872 C1877 1.363 . S
C1873 H1844 0.950 . S
C1873 C1872 1.397 . S
C1873 C1874 1.334 . S
C1874 H1845 0.950 . S
C1874 C1873 1.334 . S
C1874 C1875 1.287 . S
C1875 C1874 1.287 . S
C1875 C1876 1.524 . S
C1875 H1878 0.999 . S
C1876 H1846 0.950 . S
C1876 C1875 1.524 . S
C1876 C1877 1.415 . S
C1877 H1847 0.950 . S
C1877 C1872 1.363 . S
C1877 C1876 1.415 . S
H1878 C1875 0.999 . S
H1879 C1860 0.913 . S
H1880 C1898 0.951 . S
H1881 C1900 0.951 . S
H1882 C1902 0.950 . S
H1883 C1903 0.950 . S
H1884 C1905 0.950 . S
H1885 C1908 0.950 . S
H1886 C1909 0.950 . S
H1887 C1911 0.950 . S
H1888 C1912 0.950 . S
H1889 C1913 0.951 . S
H1890 C1915 0.951 . S
H1891 C1917 0.950 . S
H1892 C1918 0.950 . S
H1893 C1920 0.950 . S
H1894 C1923 0.950 . S
H1895 C1924 0.950 . S
H1896 C1926 0.950 . S
H1897 C1927 0.950 . S
C1898 H1880 0.951 . S
C1898 C1899 1.366 . S
C1898 C1900 1.388 . S
C1899 C1898 1.366 . S
C1899 C1903 1.385 . S
C1900 H1881 0.951 . S
C1900 C1898 1.388 . S
C1900 C1901 1.366 . S
C1901 C1900 1.366 . S
C1901 C1902 1.414 . S
C1901 C1904 1.499 . S
C1902 H1882 0.950 . S
C1902 C1901 1.414 . S
C1902 C1903 1.374 . S
C1903 H1883 0.950 . S
C1903 C1899 1.385 . S
C1903 C1902 1.374 . S
C1904 C1901 1.499 . S
C1904 C1905 1.373 . S
C1904 C1906 1.389 . S
C1905 H1884 0.950 . S
C1905 C1904 1.373 . S
C1905 C1921 1.377 . S
C1906 C1904 1.389 . S
C1906 C1907 1.524 . S
C1906 C1920 1.377 . S
C1907 C1906 1.524 . S
C1907 C1908 1.397 . S
C1907 C1912 1.363 . S
C1908 H1885 0.950 . S
C1908 C1907 1.397 . S
C1908 C1909 1.334 . S
C1909 H1886 0.950 . S
C1909 C1908 1.334 . S
C1909 C1910 1.287 . S
C1910 C1909 1.287 . S
C1910 C1911 1.524 . S
C1910 H1929 0.913 . S
C1911 H1887 0.950 . S
C1911 C1910 1.524 . S
C1911 C1912 1.415 . S
C1912 H1888 0.950 . S
C1912 C1907 1.363 . S
C1912 C1911 1.415 . S
C1913 H1889 0.951 . S
C1913 C1914 1.366 . S
C1913 C1915 1.388 . S
C1914 C1913 1.366 . S
C1914 C1918 1.385 . S
C1915 H1890 0.951 . S
C1915 C1913 1.388 . S
C1915 C1916 1.366 . S
C1916 C1915 1.366 . S
C1916 C1917 1.414 . S
C1916 C1919 1.499 . S
C1917 H1891 0.950 . S
C1917 C1916 1.414 . S
C1917 C1918 1.374 . S
C1918 H1892 0.950 . S
C1918 C1914 1.385 . S
C1918 C1917 1.374 . S
C1919 C1916 1.499 . S
C1919 C1920 1.373 . S
C1919 C1921 1.389 . S
C1920 H1893 0.950 . S
C1920 C1906 1.377 . S
C1920 C1919 1.373 . S
C1921 C1905 1.377 . S
C1921 C1919 1.389 . S
C1921 C1922 1.524 . S
C1922 C1921 1.524 . S
C1922 C1923 1.397 . S
C1922 C1927 1.363 . S
C1923 H1894 0.950 . S
C1923 C1922 1.397 . S
C1923 C1924 1.334 . S
C1924 H1895 0.950 . S
C1924 C1923 1.334 . S
C1924 C1925 1.287 . S
C1925 C1924 1.287 . S
C1925 C1926 1.524 . S
C1925 H1928 0.999 . S
C1926 H1896 0.950 . S
C1926 C1925 1.524 . S
C1926 C1927 1.415 . S
C1927 H1897 0.950 . S
C1927 C1922 1.363 . S
C1927 C1926 1.415 . S
H1928 C1925 0.999 . S
H1929 C1910 0.913 . S
H1930 C1948 0.951 . S
H1931 C1950 0.951 . S
H1932 C1952 0.950 . S
H1933 C1953 0.950 . S
H1934 C1955 0.950 . S
H1935 C1958 0.950 . S
H1936 C1959 0.950 . S
H1937 C1961 0.950 . S
H1938 C1962 0.950 . S
H1939 C1963 0.951 . S
H1940 C1965 0.951 . S
H1941 C1967 0.950 . S
H1942 C1968 0.950 . S
H1943 C1970 0.950 . S
H1944 C1973 0.950 . S
H1945 C1974 0.950 . S
H1946 C1976 0.950 . S
H1947 C1977 0.950 . S
C1948 H1930 0.951 . S
C1948 C1949 1.366 . S
C1948 C1950 1.388 . S
C1949 C1948 1.366 . S
C1949 C1953 1.385 . S
C1950 H1931 0.951 . S
C1950 C1948 1.388 . S
C1950 C1951 1.366 . S
C1951 C1950 1.366 . S
C1951 C1952 1.414 . S
C1951 C1954 1.499 . S
C1952 H1932 0.950 . S
C1952 C1951 1.414 . S
C1952 C1953 1.374 . S
C1953 H1933 0.950 . S
C1953 C1949 1.385 . S
C1953 C1952 1.374 . S
C1954 C1951 1.499 . S
C1954 C1955 1.373 . S
C1954 C1956 1.490 . S
C1955 H1934 0.950 . S
C1955 C1954 1.373 . S
C1955 C1971 1.266 1_556 S
C1956 C1954 1.490 . S
C1956 C1957 1.538 . S
C1956 C1970 1.266 1_556 S
C1957 C1956 1.538 . S
C1957 C1958 1.397 . S
C1957 C1962 1.363 1_556 S
C1958 H1935 0.950 . S
C1958 C1957 1.397 . S
C1958 C1959 1.334 . S
C1959 H1936 0.950 . S
C1959 C1958 1.334 . S
C1959 C1960 1.287 . S
C1960 C1959 1.287 . S
C1960 C1961 1.524 1_556 S
C1960 H1979 0.913 . S
C1961 H1937 0.950 . S
C1961 C1960 1.524 1_554 S
C1961 C1962 1.415 . S
C1962 H1938 0.950 . S
C1962 C1957 1.363 1_554 S
C1962 C1961 1.415 . S
C1963 H1939 0.951 . S
C1963 C1964 1.366 . S
C1963 C1965 1.388 . S
C1964 C1963 1.366 . S
C1964 C1968 1.385 . S
C1965 H1940 0.951 . S
C1965 C1963 1.388 . S
C1965 C1966 1.366 . S
C1966 C1965 1.366 . S
C1966 C1967 1.414 . S
C1966 C1969 1.499 . S
C1967 H1941 0.950 . S
C1967 C1966 1.414 . S
C1967 C1968 1.374 . S
C1968 H1942 0.950 . S
C1968 C1964 1.385 . S
C1968 C1967 1.374 . S
C1969 C1966 1.499 . S
C1969 C1970 1.373 . S
C1969 C1971 1.490 . S
C1970 H1943 0.950 . S
C1970 C1956 1.266 1_554 S
C1970 C1969 1.373 . S
C1971 C1955 1.266 1_554 S
C1971 C1969 1.490 . S
C1971 C1972 1.538 . S
C1972 C1971 1.538 . S
C1972 C1973 1.397 . S
C1972 C1977 1.363 1_554 S
C1973 H1944 0.950 . S
C1973 C1972 1.397 . S
C1973 C1974 1.334 . S
C1974 H1945 0.950 . S
C1974 C1973 1.334 . S
C1974 C1975 1.287 . S
C1975 C1974 1.287 . S
C1975 C1976 1.524 1_554 S
C1975 H1978 0.999 . S
C1976 H1946 0.950 . S
C1976 C1975 1.524 1_556 S
C1976 C1977 1.415 . S
C1977 H1947 0.950 . S
C1977 C1972 1.363 1_556 S
C1977 C1976 1.415 . S
H1978 C1975 0.999 . S
H1979 C1960 0.913 . S
H1980 C1998 0.951 . S
H1981 C2000 0.951 . S
H1982 C2002 0.950 . S
H1983 C2003 0.950 . S
H1984 C2005 0.950 . S
H1985 C2008 0.950 . S
H1986 C2009 0.950 . S
H1987 C2011 0.950 . S
H1988 C2012 0.950 . S
H1989 C2013 0.951 . S
H1990 C2015 0.951 . S
H1991 C2017 0.950 . S
H1992 C2018 0.950 . S
H1993 C2020 0.950 . S
H1994 C2023 0.950 . S
H1995 C2024 0.950 . S
H1996 C2026 0.950 . S
H1997 C2027 0.950 . S
C1998 H1980 0.951 . S
C1998 C1999 1.366 . S
C1998 C2000 1.388 . S
C1999 C1998 1.366 . S
C1999 C2003 1.385 . S
C2000 H1981 0.951 . S
C2000 C1998 1.388 . S
C2000 C2001 1.366 . S
C2001 C2000 1.366 . S
C2001 C2002 1.414 . S
C2001 C2004 1.499 . S
C2002 H1982 0.950 . S
C2002 C2001 1.414 . S
C2002 C2003 1.374 . S
C2003 H1983 0.950 . S
C2003 C1999 1.385 . S
C2003 C2002 1.374 . S
C2004 C2001 1.499 . S
C2004 C2005 1.373 . S
C2004 C2006 1.389 . S
C2005 H1984 0.950 . S
C2005 C2004 1.373 . S
C2005 C2021 1.377 . S
C2006 C2004 1.389 . S
C2006 C2007 1.524 . S
C2006 C2020 1.377 . S
C2007 C2006 1.524 . S
C2007 C2008 1.397 . S
C2007 C2012 1.363 . S
C2008 H1985 0.950 . S
C2008 C2007 1.397 . S
C2008 C2009 1.334 . S
C2009 H1986 0.950 . S
C2009 C2008 1.334 . S
C2009 C2010 1.287 . S
C2010 C2009 1.287 . S
C2010 C2011 1.524 . S
C2010 H2029 0.913 . S
C2011 H1987 0.950 . S
C2011 C2010 1.524 . S
C2011 C2012 1.415 . S
C2012 H1988 0.950 . S
C2012 C2007 1.363 . S
C2012 C2011 1.415 . S
C2013 H1989 0.951 . S
C2013 C2014 1.366 . S
C2013 C2015 1.388 . S
C2014 C2013 1.366 . S
C2014 C2018 1.385 . S
C2015 H1990 0.951 . S
C2015 C2013 1.388 . S
C2015 C2016 1.366 . S
C2016 C2015 1.366 . S
C2016 C2017 1.414 . S
C2016 C2019 1.499 . S
C2017 H1991 0.950 . S
C2017 C2016 1.414 . S
C2017 C2018 1.374 . S
C2018 H1992 0.950 . S
C2018 C2014 1.385 . S
C2018 C2017 1.374 . S
C2019 C2016 1.499 . S
C2019 C2020 1.373 . S
C2019 C2021 1.389 . S
C2020 H1993 0.950 . S
C2020 C2006 1.377 . S
C2020 C2019 1.373 . S
C2021 C2005 1.377 . S
C2021 C2019 1.389 . S
C2021 C2022 1.524 . S
C2022 C2021 1.524 . S
C2022 C2023 1.397 . S
C2022 C2027 1.363 . S
C2023 H1994 0.950 . S
C2023 C2022 1.397 . S
C2023 C2024 1.334 . S
C2024 H1995 0.950 . S
C2024 C2023 1.334 . S
C2024 C2025 1.287 . S
C2025 C2024 1.287 . S
C2025 C2026 1.524 . S
C2025 H2028 0.999 . S
C2026 H1996 0.950 . S
C2026 C2025 1.524 . S
C2026 C2027 1.415 . S
C2027 H1997 0.950 . S
C2027 C2022 1.363 . S
C2027 C2026 1.415 . S
H2028 C2025 0.999 . S
H2029 C2010 0.913 . S
H2030 C2048 0.951 . S
H2031 C2050 0.951 . S
H2032 C2052 0.950 . S
H2033 C2053 0.950 . S
H2034 C2055 0.950 . S
H2035 C2058 0.950 . S
H2036 C2059 0.950 . S
H2037 C2061 0.950 . S
H2038 C2062 0.950 . S
H2039 C2063 0.951 . S
H2040 C2065 0.951 . S
H2041 C2067 0.950 . S
H2042 C2068 0.950 . S
H2043 C2070 0.950 . S
H2044 C2073 0.950 . S
H2045 C2074 0.950 . S
H2046 C2076 0.950 . S
H2047 C2077 0.950 . S
C2048 H2030 0.951 . S
C2048 C2049 1.366 . S
C2048 C2050 1.388 . S
C2049 C2048 1.366 . S
C2049 C2053 1.385 . S
C2050 H2031 0.951 . S
C2050 C2048 1.388 . S
C2050 C2051 1.366 . S
C2051 C2050 1.366 . S
C2051 C2052 1.414 . S
C2051 C2054 1.499 . S
C2052 H2032 0.950 . S
C2052 C2051 1.414 . S
C2052 C2053 1.374 . S
C2053 H2033 0.950 . S
C2053 C2049 1.385 . S
C2053 C2052 1.374 . S
C2054 C2051 1.499 . S
C2054 C2055 1.373 . S
C2054 C2056 1.389 . S
C2055 H2034 0.950 . S
C2055 C2054 1.373 . S
C2055 C2071 1.377 . S
C2056 C2054 1.389 . S
C2056 C2057 1.524 . S
C2056 C2070 1.377 . S
C2057 C2056 1.524 . S
C2057 C2058 1.397 . S
C2057 C2062 1.363 . S
C2058 H2035 0.950 . S
C2058 C2057 1.397 . S
C2058 C2059 1.334 . S
C2059 H2036 0.950 . S
C2059 C2058 1.334 . S
C2059 C2060 1.287 . S
C2060 C2059 1.287 . S
C2060 C2061 1.524 . S
C2060 H2079 0.913 . S
C2061 H2037 0.950 . S
C2061 C2060 1.524 . S
C2061 C2062 1.415 . S
C2062 H2038 0.950 . S
C2062 C2057 1.363 . S
C2062 C2061 1.415 . S
C2063 H2039 0.951 . S
C2063 C2064 1.366 . S
C2063 C2065 1.388 . S
C2064 C2063 1.366 . S
C2064 C2068 1.385 . S
C2065 H2040 0.951 . S
C2065 C2063 1.388 . S
C2065 C2066 1.366 . S
C2066 C2065 1.366 . S
C2066 C2067 1.414 . S
C2066 C2069 1.499 . S
C2067 H2041 0.950 . S
C2067 C2066 1.414 . S
C2067 C2068 1.374 . S
C2068 H2042 0.950 . S
C2068 C2064 1.385 . S
C2068 C2067 1.374 . S
C2069 C2066 1.499 . S
C2069 C2070 1.373 . S
C2069 C2071 1.389 . S
C2070 H2043 0.950 . S
C2070 C2056 1.377 . S
C2070 C2069 1.373 . S
C2071 C2055 1.377 . S
C2071 C2069 1.389 . S
C2071 C2072 1.524 . S
C2072 C2071 1.524 . S
C2072 C2073 1.397 . S
C2072 C2077 1.363 . S
C2073 H2044 0.950 . S
C2073 C2072 1.397 . S
C2073 C2074 1.334 . S
C2074 H2045 0.950 . S
C2074 C2073 1.334 . S
C2074 C2075 1.287 . S
C2075 C2074 1.287 . S
C2075 C2076 1.524 . S
C2075 H2078 0.999 . S
C2076 H2046 0.950 . S
C2076 C2075 1.524 . S
C2076 C2077 1.415 . S
C2077 H2047 0.950 . S
C2077 C2072 1.363 . S
C2077 C2076 1.415 . S
H2078 C2075 0.999 . S
H2079 C2060 0.913 . S
H2080 C2098 0.951 . S
H2081 C2100 0.951 . S
H2082 C2102 0.950 . S
H2083 C2103 0.950 . S
H2084 C2105 0.950 . S
H2085 C2108 0.950 . S
H2086 C2109 0.950 . S
H2087 C2111 0.950 . S
H2088 C2112 0.950 . S
H2089 C2113 0.951 . S
H2090 C2115 0.951 . S
H2091 C2117 0.950 . S
H2092 C2118 0.950 . S
H2093 C2120 0.950 . S
H2094 C2123 0.950 . S
H2095 C2124 0.950 . S
H2096 C2126 0.950 . S
H2097 C2127 0.950 . S
C2098 H2080 0.951 . S
C2098 C2099 1.366 . S
C2098 C2100 1.388 . S
C2099 C2098 1.366 . S
C2099 C2103 1.385 . S
C2100 H2081 0.951 . S
C2100 C2098 1.388 . S
C2100 C2101 1.366 . S
C2101 C2100 1.366 . S
C2101 C2102 1.414 . S
C2101 C2104 1.499 . S
C2102 H2082 0.950 . S
C2102 C2101 1.414 . S
C2102 C2103 1.374 . S
C2103 H2083 0.950 . S
C2103 C2099 1.385 . S
C2103 C2102 1.374 . S
C2104 C2101 1.499 . S
C2104 C2105 1.373 . S
C2104 C2106 1.389 . S
C2105 H2084 0.950 . S
C2105 C2104 1.373 . S
C2105 C2121 1.377 . S
C2106 C2104 1.389 . S
C2106 C2107 1.524 . S
C2106 C2120 1.377 . S
C2107 C2106 1.524 . S
C2107 C2108 1.397 . S
C2107 C2112 1.363 . S
C2108 H2085 0.950 . S
C2108 C2107 1.397 . S
C2108 C2109 1.334 . S
C2109 H2086 0.950 . S
C2109 C2108 1.334 . S
C2109 C2110 1.287 . S
C2110 C2109 1.287 . S
C2110 C2111 1.524 . S
C2110 H2129 0.913 . S
C2111 H2087 0.950 . S
C2111 C2110 1.524 . S
C2111 C2112 1.415 . S
C2112 H2088 0.950 . S
C2112 C2107 1.363 . S
C2112 C2111 1.415 . S
C2113 H2089 0.951 . S
C2113 C2114 1.366 . S
C2113 C2115 1.388 . S
C2114 C2113 1.366 . S
C2114 C2118 1.385 . S
C2115 H2090 0.951 . S
C2115 C2113 1.388 . S
C2115 C2116 1.366 . S
C2116 C2115 1.366 . S
C2116 C2117 1.414 . S
C2116 C2119 1.499 . S
C2117 H2091 0.950 . S
C2117 C2116 1.414 . S
C2117 C2118 1.374 . S
C2118 H2092 0.950 . S
C2118 C2114 1.385 . S
C2118 C2117 1.374 . S
C2119 C2116 1.499 . S
C2119 C2120 1.373 . S
C2119 C2121 1.389 . S
C2120 H2093 0.950 . S
C2120 C2106 1.377 . S
C2120 C2119 1.373 . S
C2121 C2105 1.377 . S
C2121 C2119 1.389 . S
C2121 C2122 1.524 . S
C2122 C2121 1.524 . S
C2122 C2123 1.397 . S
C2122 C2127 1.363 . S
C2123 H2094 0.950 . S
C2123 C2122 1.397 . S
C2123 C2124 1.334 . S
C2124 H2095 0.950 . S
C2124 C2123 1.334 . S
C2124 C2125 1.287 . S
C2125 C2124 1.287 . S
C2125 C2126 1.524 . S
C2125 H2128 0.999 . S
C2126 H2096 0.950 . S
C2126 C2125 1.524 . S
C2126 C2127 1.415 . S
C2127 H2097 0.950 . S
C2127 C2122 1.363 . S
C2127 C2126 1.415 . S
H2128 C2125 0.999 . S
H2129 C2110 0.913 . S
H2130 C2148 0.951 . S
H2131 C2150 0.951 . S
H2132 C2152 0.950 . S
H2133 C2153 0.950 . S
H2134 C2155 0.950 . S
H2135 C2158 0.950 . S
H2136 C2159 0.950 . S
H2137 C2161 0.950 . S
H2138 C2162 0.950 . S
H2139 C2163 0.951 . S
H2140 C2165 0.951 . S
H2141 C2167 0.950 . S
H2142 C2168 0.950 . S
H2143 C2170 0.950 . S
H2144 C2173 0.950 . S
H2145 C2174 0.950 . S
H2146 C2176 0.950 . S
H2147 C2177 0.950 . S
C2148 H2130 0.951 . S
C2148 C2149 1.366 . S
C2148 C2150 1.388 . S
C2149 C2148 1.366 . S
C2149 C2153 1.385 . S
C2150 H2131 0.951 . S
C2150 C2148 1.388 . S
C2150 C2151 1.366 . S
C2151 C2150 1.366 . S
C2151 C2152 1.414 . S
C2151 C2154 1.499 . S
C2152 H2132 0.950 . S
C2152 C2151 1.414 . S
C2152 C2153 1.374 . S
C2153 H2133 0.950 . S
C2153 C2149 1.385 . S
C2153 C2152 1.374 . S
C2154 C2151 1.499 . S
C2154 C2155 1.373 . S
C2154 C2156 1.389 . S
C2155 H2134 0.950 . S
C2155 C2154 1.373 . S
C2155 C2171 1.377 . S
C2156 C2154 1.389 . S
C2156 C2157 1.524 . S
C2156 C2170 1.377 . S
C2157 C2156 1.524 . S
C2157 C2158 1.397 . S
C2157 C2162 1.363 . S
C2158 H2135 0.950 . S
C2158 C2157 1.397 . S
C2158 C2159 1.334 . S
C2159 H2136 0.950 . S
C2159 C2158 1.334 . S
C2159 C2160 1.287 1_565 S
C2160 C2159 1.287 1_545 S
C2160 C2161 1.524 . S
C2160 H2179 0.913 . S
C2161 H2137 0.950 . S
C2161 C2160 1.524 . S
C2161 C2162 1.415 1_545 S
C2162 H2138 0.950 . S
C2162 C2157 1.363 . S
C2162 C2161 1.415 1_565 S
C2163 H2139 0.951 . S
C2163 C2164 1.366 . S
C2163 C2165 1.388 . S
C2164 C2163 1.366 . S
C2164 C2168 1.385 . S
C2165 H2140 0.951 . S
C2165 C2163 1.388 . S
C2165 C2166 1.366 . S
C2166 C2165 1.366 . S
C2166 C2167 1.414 . S
C2166 C2169 1.499 . S
C2167 H2141 0.950 . S
C2167 C2166 1.414 . S
C2167 C2168 1.374 . S
C2168 H2142 0.950 . S
C2168 C2164 1.385 . S
C2168 C2167 1.374 . S
C2169 C2166 1.499 . S
C2169 C2170 1.373 . S
C2169 C2171 1.389 . S
C2170 H2143 0.950 . S
C2170 C2156 1.377 . S
C2170 C2169 1.373 . S
C2171 C2155 1.377 . S
C2171 C2169 1.389 . S
C2171 C2172 1.524 . S
C2172 C2171 1.524 . S
C2172 C2173 1.397 . S
C2172 C2177 1.363 . S
C2173 H2144 0.950 . S
C2173 C2172 1.397 . S
C2173 C2174 1.334 . S
C2174 H2145 0.950 . S
C2174 C2173 1.334 . S
C2174 C2175 1.287 . S
C2175 C2174 1.287 . S
C2175 C2176 1.524 . S
C2175 H2178 0.999 . S
C2176 H2146 0.950 . S
C2176 C2175 1.524 . S
C2176 C2177 1.415 . S
C2177 H2147 0.950 . S
C2177 C2172 1.363 . S
C2177 C2176 1.415 . S
H2178 C2175 0.999 . S
H2179 C2160 0.913 . S
H2180 C2198 0.951 . S
H2181 C2200 0.951 . S
H2182 C2202 0.950 . S
H2183 C2203 0.950 . S
H2184 C2205 0.950 . S
H2185 C2208 0.950 . S
H2186 C2209 0.950 . S
H2187 C2211 0.950 . S
H2188 C2212 0.950 . S
H2189 C2213 0.951 . S
H2190 C2215 0.951 . S
H2191 C2217 0.950 . S
H2192 C2218 0.950 . S
H2193 C2220 0.950 . S
H2194 C2223 0.950 . S
H2195 C2224 0.950 . S
H2196 C2226 0.950 . S
H2197 C2227 0.950 . S
C2198 H2180 0.951 . S
C2198 C2199 1.366 . S
C2198 C2200 1.388 . S
C2199 C2198 1.366 . S
C2199 C2203 1.385 . S
C2200 H2181 0.951 . S
C2200 C2198 1.388 . S
C2200 C2201 1.366 . S
C2201 C2200 1.366 . S
C2201 C2202 1.414 . S
C2201 C2204 1.499 . S
C2202 H2182 0.950 . S
C2202 C2201 1.414 . S
C2202 C2203 1.374 . S
C2203 H2183 0.950 . S
C2203 C2199 1.385 . S
C2203 C2202 1.374 . S
C2204 C2201 1.499 . S
C2204 C2205 1.373 . S
C2204 C2206 1.389 . S
C2205 H2184 0.950 . S
C2205 C2204 1.373 . S
C2205 C2221 1.377 . S
C2206 C2204 1.389 . S
C2206 C2207 1.524 . S
C2206 C2220 1.377 . S
C2207 C2206 1.524 . S
C2207 C2208 1.397 . S
C2207 C2212 1.363 . S
C2208 H2185 0.950 . S
C2208 C2207 1.397 . S
C2208 C2209 1.334 . S
C2209 H2186 0.950 . S
C2209 C2208 1.334 . S
C2209 C2210 1.287 . S
C2210 C2209 1.287 . S
C2210 C2211 1.524 . S
C2210 H2229 0.913 . S
C2211 H2187 0.950 . S
C2211 C2210 1.524 . S
C2211 C2212 1.415 . S
C2212 H2188 0.950 . S
C2212 C2207 1.363 . S
C2212 C2211 1.415 . S
C2213 H2189 0.951 . S
C2213 C2214 1.366 . S
C2213 C2215 1.388 . S
C2214 C2213 1.366 . S
C2214 C2218 1.385 . S
C2215 H2190 0.951 . S
C2215 C2213 1.388 . S
C2215 C2216 1.366 . S
C2216 C2215 1.366 . S
C2216 C2217 1.414 . S
C2216 C2219 1.499 . S
C2217 H2191 0.950 . S
C2217 C2216 1.414 . S
C2217 C2218 1.374 . S
C2218 H2192 0.950 . S
C2218 C2214 1.385 . S
C2218 C2217 1.374 . S
C2219 C2216 1.499 . S
C2219 C2220 1.373 . S
C2219 C2221 1.389 . S
C2220 H2193 0.950 . S
C2220 C2206 1.377 . S
C2220 C2219 1.373 . S
C2221 C2205 1.377 . S
C2221 C2219 1.389 . S
C2221 C2222 1.524 . S
C2222 C2221 1.524 . S
C2222 C2223 1.397 . S
C2222 C2227 1.363 1_565 S
C2223 H2194 0.950 . S
C2223 C2222 1.397 . S
C2223 C2224 1.334 1_565 S
C2224 H2195 0.950 . S
C2224 C2223 1.334 1_545 S
C2224 C2225 1.287 . S
C2225 C2224 1.287 . S
C2225 C2226 1.524 . S
C2225 H2228 0.999 . S
C2226 H2196 0.950 . S
C2226 C2225 1.524 . S
C2226 C2227 1.415 . S
C2227 H2197 0.950 . S
C2227 C2222 1.363 1_545 S
C2227 C2226 1.415 . S
H2228 C2225 0.999 . S
H2229 C2210 0.913 . S
H2230 C2248 0.951 . S
H2231 C2250 0.951 . S
H2232 C2252 0.950 . S
H2233 C2253 0.950 . S
H2234 C2255 0.950 . S
H2235 C2258 0.950 . S
H2236 C2259 0.950 . S
H2237 C2261 0.950 . S
H2238 C2262 0.950 . S
H2239 C2263 0.951 . S
H2240 C2265 0.951 . S
H2241 C2267 0.950 . S
H2242 C2268 0.950 . S
H2243 C2270 0.950 . S
H2244 C2273 0.950 . S
H2245 C2274 0.950 . S
H2246 C2276 0.950 . S
H2247 C2277 0.950 . S
C2248 H2230 0.951 . S
C2248 C2249 1.366 . S
C2248 C2250 1.388 . S
C2249 C2248 1.366 . S
C2249 C2253 1.385 . S
C2250 H2231 0.951 . S
C2250 C2248 1.388 . S
C2250 C2251 1.366 . S
C2251 C2250 1.366 . S
C2251 C2252 1.414 . S
C2251 C2254 1.499 . S
C2252 H2232 0.950 . S
C2252 C2251 1.414 . S
C2252 C2253 1.374 . S
C2253 H2233 0.950 . S
C2253 C2249 1.385 . S
C2253 C2252 1.374 . S
C2254 C2251 1.499 . S
C2254 C2255 1.373 . S
C2254 C2256 1.389 . S
C2255 H2234 0.950 . S
C2255 C2254 1.373 . S
C2255 C2271 1.377 . S
C2256 C2254 1.389 . S
C2256 C2257 1.524 . S
C2256 C2270 1.377 . S
C2257 C2256 1.524 . S
C2257 C2258 1.397 . S
C2257 C2262 1.363 . S
C2258 H2235 0.950 . S
C2258 C2257 1.397 . S
C2258 C2259 1.334 . S
C2259 H2236 0.950 . S
C2259 C2258 1.334 . S
C2259 C2260 1.287 1_545 S
C2260 C2259 1.287 1_565 S
C2260 C2261 1.524 . S
C2260 H2279 0.913 . S
C2261 H2237 0.950 . S
C2261 C2260 1.524 . S
C2261 C2262 1.415 1_565 S
C2262 H2238 0.950 . S
C2262 C2257 1.363 . S
C2262 C2261 1.415 1_545 S
C2263 H2239 0.951 . S
C2263 C2264 1.366 . S
C2263 C2265 1.388 . S
C2264 C2263 1.366 . S
C2264 C2268 1.385 . S
C2265 H2240 0.951 . S
C2265 C2263 1.388 . S
C2265 C2266 1.366 . S
C2266 C2265 1.366 . S
C2266 C2267 1.414 . S
C2266 C2269 1.499 . S
C2267 H2241 0.950 . S
C2267 C2266 1.414 . S
C2267 C2268 1.374 . S
C2268 H2242 0.950 . S
C2268 C2264 1.385 . S
C2268 C2267 1.374 . S
C2269 C2266 1.499 . S
C2269 C2270 1.373 . S
C2269 C2271 1.389 . S
C2270 H2243 0.950 . S
C2270 C2256 1.377 . S
C2270 C2269 1.373 . S
C2271 C2255 1.377 . S
C2271 C2269 1.389 . S
C2271 C2272 1.524 . S
C2272 C2271 1.524 . S
C2272 C2273 1.397 . S
C2272 C2277 1.363 . S
C2273 H2244 0.950 . S
C2273 C2272 1.397 . S
C2273 C2274 1.334 . S
C2274 H2245 0.950 . S
C2274 C2273 1.334 . S
C2274 C2275 1.287 . S
C2275 C2274 1.287 . S
C2275 C2276 1.524 . S
C2275 H2278 0.999 . S
C2276 H2246 0.950 . S
C2276 C2275 1.524 . S
C2276 C2277 1.415 . S
C2277 H2247 0.950 . S
C2277 C2272 1.363 . S
C2277 C2276 1.415 . S
H2278 C2275 0.999 . S
H2279 C2260 0.913 . S
H2280 C2298 0.951 . S
H2281 C2300 0.951 . S
H2282 C2302 0.950 . S
H2283 C2303 0.950 . S
H2284 C2305 0.950 . S
H2285 C2308 0.950 . S
H2286 C2309 0.966 . S
H2287 C2311 0.950 1_545 S
H2288 C2312 0.950 . S
H2289 C2313 0.951 . S
H2290 C2315 0.951 . S
H2291 C2317 0.950 . S
H2292 C2318 0.950 . S
H2293 C2320 0.950 . S
H2294 C2323 0.950 . S
H2295 C2324 0.950 . S
H2296 C2326 0.950 . S
H2297 C2327 0.950 . S
C2298 H2280 0.951 . S
C2298 C2299 1.366 . S
C2298 C2300 1.388 . S
C2299 C2298 1.366 . S
C2299 C2303 1.385 . S
C2300 H2281 0.951 . S
C2300 C2298 1.388 . S
C2300 C2301 1.366 . S
C2301 C2300 1.366 . S
C2301 C2302 1.414 . S
C2301 C2304 1.499 . S
C2302 H2282 0.950 . S
C2302 C2301 1.414 . S
C2302 C2303 1.374 . S
C2303 H2283 0.950 . S
C2303 C2299 1.385 . S
C2303 C2302 1.374 . S
C2304 C2301 1.499 . S
C2304 C2305 1.373 . S
C2304 C2306 1.389 . S
C2305 H2284 0.950 . S
C2305 C2304 1.373 . S
C2305 C2321 1.377 . S
C2306 C2304 1.389 . S
C2306 C2307 1.524 . S
C2306 C2320 1.377 . S
C2307 C2306 1.524 . S
C2307 C2308 1.397 . S
C2307 C2312 1.363 . S
C2308 H2285 0.950 . S
C2308 C2307 1.397 . S
C2308 C2309 1.334 . S
C2309 H2286 0.966 . S
C2309 C2308 1.334 . S
C2309 C2310 1.287 1_565 S
C2310 C2309 1.287 1_545 S
C2310 C2311 1.524 1_545 S
C2310 H2329 0.913 . S
C2311 H2287 0.950 1_565 S
C2311 C2310 1.524 1_565 S
C2311 C2312 1.415 . S
C2312 H2288 0.950 . S
C2312 C2307 1.363 . S
C2312 C2311 1.415 . S
C2313 H2289 0.951 . S
C2313 C2314 1.366 . S
C2313 C2315 1.388 . S
C2314 C2313 1.366 . S
C2314 C2318 1.385 . S
C2315 H2290 0.951 . S
C2315 C2313 1.388 . S
C2315 C2316 1.366 . S
C2316 C2315 1.366 . S
C2316 C2317 1.414 . S
C2316 C2319 1.499 . S
C2317 H2291 0.950 . S
C2317 C2316 1.414 . S
C2317 C2318 1.374 . S
C2318 H2292 0.950 . S
C2318 C2314 1.385 . S
C2318 C2317 1.374 . S
C2319 C2316 1.499 . S
C2319 C2320 1.373 . S
C2319 C2321 1.389 . S
C2320 H2293 0.950 . S
C2320 C2306 1.377 . S
C2320 C2319 1.373 . S
C2321 C2305 1.377 . S
C2321 C2319 1.389 . S
C2321 C2322 1.524 . S
C2322 C2321 1.524 . S
C2322 C2323 1.397 . S
C2322 C2327 1.363 . S
C2323 H2294 0.950 . S
C2323 C2322 1.397 . S
C2323 C2324 1.334 . S
C2324 H2295 0.950 . S
C2324 C2323 1.334 . S
C2324 C2325 1.287 . S
C2325 C2324 1.287 . S
C2325 C2326 1.524 . S
C2325 H2328 0.999 . S
C2326 H2296 0.950 . S
C2326 C2325 1.524 . S
C2326 C2327 1.415 . S
C2327 H2297 0.950 . S
C2327 C2322 1.363 . S
C2327 C2326 1.415 . S
H2328 C2325 0.999 . S
H2329 C2310 0.913 . S
H2330 C2348 0.951 . S
H2331 C2350 0.951 . S
H2332 C2352 0.950 . S
H2333 C2353 0.950 . S
H2334 C2355 0.950 . S
H2335 C2358 0.950 . S
H2336 C2359 0.950 . S
H2337 C2361 0.950 1_565 S
H2338 C2362 0.950 . S
H2339 C2363 0.951 . S
H2340 C2365 0.951 . S
H2341 C2367 0.950 . S
H2342 C2368 0.883 1_565 S
H2343 C2370 0.950 . S
H2344 C2373 0.950 . S
H2345 C2374 0.950 . S
H2346 C2376 0.950 . S
H2347 C2377 0.950 . S
C2348 H2330 0.951 . S
C2348 C2349 1.366 . S
C2348 C2350 1.388 . S
C2349 C2348 1.366 . S
C2349 C2353 1.385 . S
C2350 H2331 0.951 . S
C2350 C2348 1.388 . S
C2350 C2351 1.366 . S
C2351 C2350 1.366 . S
C2351 C2352 1.414 . S
C2351 C2354 1.499 . S
C2352 H2332 0.950 . S
C2352 C2351 1.414 . S
C2352 C2353 1.374 . S
C2353 H2333 0.950 . S
C2353 C2349 1.385 . S
C2353 C2352 1.374 . S
C2354 C2351 1.499 . S
C2354 C2355 1.373 . S
C2354 C2356 1.389 . S
C2355 H2334 0.950 . S
C2355 C2354 1.373 . S
C2355 C2371 1.377 . S
C2356 C2354 1.389 . S
C2356 C2357 1.524 . S
C2356 C2370 1.377 . S
C2357 C2356 1.524 . S
C2357 C2358 1.397 . S
C2357 C2362 1.363 . S
C2358 H2335 0.950 . S
C2358 C2357 1.397 . S
C2358 C2359 1.334 . S
C2359 H2336 0.950 . S
C2359 C2358 1.334 . S
C2359 C2360 1.287 . S
C2360 C2359 1.287 . S
C2360 C2361 1.524 . S
C2360 H2379 0.913 . S
C2361 H2337 0.950 1_545 S
C2361 C2360 1.524 . S
C2361 C2362 1.415 . S
C2362 H2338 0.950 . S
C2362 C2357 1.363 . S
C2362 C2361 1.415 . S
C2363 H2339 0.951 . S
C2363 C2364 1.366 . S
C2363 C2365 1.388 . S
C2364 C2363 1.366 . S
C2364 C2368 1.385 . S
C2365 H2340 0.951 . S
C2365 C2363 1.388 . S
C2365 C2366 1.366 . S
C2366 C2365 1.366 . S
C2366 C2367 1.414 . S
C2366 C2369 1.499 . S
C2367 H2341 0.950 . S
C2367 C2366 1.414 . S
C2367 C2368 1.374 . S
C2368 H2342 0.883 1_545 S
C2368 C2364 1.385 . S
C2368 C2367 1.374 . S
C2369 C2366 1.499 . S
C2369 C2370 1.373 . S
C2369 C2371 1.389 . S
C2370 H2343 0.950 . S
C2370 C2356 1.377 . S
C2370 C2369 1.373 . S
C2371 C2355 1.377 . S
C2371 C2369 1.389 . S
C2371 C2372 1.524 . S
C2372 C2371 1.524 . S
C2372 C2373 1.397 . S
C2372 C2377 1.363 . S
C2373 H2344 0.950 . S
C2373 C2372 1.397 . S
C2373 C2374 1.334 . S
C2374 H2345 0.950 . S
C2374 C2373 1.334 . S
C2374 C2375 1.287 . S
C2375 C2374 1.287 . S
C2375 C2376 1.524 . S
C2375 H2378 0.999 . S
C2376 H2346 0.950 . S
C2376 C2375 1.524 . S
C2376 C2377 1.415 . S
C2377 H2347 0.950 . S
C2377 C2372 1.363 . S
C2377 C2376 1.415 . S
H2378 C2375 0.999 . S
H2379 C2360 0.913 . S
H2380 C2398 0.951 . S
H2381 C2400 0.951 . S
H2382 C2402 0.950 . S
H2383 C2403 0.950 . S
H2384 C2405 0.950 . S
H2385 C2408 0.950 . S
H2386 C2409 0.950 . S
H2387 C2411 0.950 . S
H2388 C2412 0.950 . S
H2389 C2413 0.951 . S
H2390 C2415 0.951 . S
H2391 C2417 0.950 . S
H2392 C2418 0.950 . S
H2393 C2420 0.950 . S
H2394 C2423 0.950 . S
H2395 C2424 0.950 . S
H2396 C2426 0.950 . S
H2397 C2427 0.950 . S
C2398 H2380 0.951 . S
C2398 C2399 1.366 . S
C2398 C2400 1.388 . S
C2399 C2398 1.366 . S
C2399 C2403 1.385 . S
C2400 H2381 0.951 . S
C2400 C2398 1.388 . S
C2400 C2401 1.366 . S
C2401 C2400 1.366 . S
C2401 C2402 1.414 . S
C2401 C2404 1.499 . S
C2402 H2382 0.950 . S
C2402 C2401 1.414 . S
C2402 C2403 1.374 . S
C2403 H2383 0.950 . S
C2403 C2399 1.385 . S
C2403 C2402 1.374 . S
C2404 C2401 1.499 . S
C2404 C2405 1.373 . S
C2404 C2406 1.389 . S
C2405 H2384 0.950 . S
C2405 C2404 1.373 . S
C2405 C2421 1.377 . S
C2406 C2404 1.389 . S
C2406 C2407 1.524 . S
C2406 C2420 1.377 . S
C2407 C2406 1.524 . S
C2407 C2408 1.397 . S
C2407 C2412 1.363 . S
C2408 H2385 0.950 . S
C2408 C2407 1.397 . S
C2408 C2409 1.334 . S
C2409 H2386 0.950 . S
C2409 C2408 1.334 . S
C2409 C2410 1.287 . S
C2410 C2409 1.287 . S
C2410 C2411 1.524 . S
C2410 H2429 0.913 . S
C2411 H2387 0.950 . S
C2411 C2410 1.524 . S
C2411 C2412 1.415 . S
C2412 H2388 0.950 . S
C2412 C2407 1.363 . S
C2412 C2411 1.415 . S
C2413 H2389 0.951 . S
C2413 C2414 1.366 . S
C2413 C2415 1.388 . S
C2414 C2413 1.366 . S
C2414 C2418 1.385 . S
C2415 H2390 0.951 . S
C2415 C2413 1.388 . S
C2415 C2416 1.366 . S
C2416 C2415 1.366 . S
C2416 C2417 1.414 . S
C2416 C2419 1.499 . S
C2417 H2391 0.950 . S
C2417 C2416 1.414 . S
C2417 C2418 1.374 . S
C2418 H2392 0.950 . S
C2418 C2414 1.385 . S
C2418 C2417 1.374 . S
C2419 C2416 1.499 . S
C2419 C2420 1.373 . S
C2419 C2421 1.389 . S
C2420 H2393 0.950 . S
C2420 C2406 1.377 . S
C2420 C2419 1.373 . S
C2421 C2405 1.377 . S
C2421 C2419 1.389 . S
C2421 C2422 1.524 . S
C2422 C2421 1.524 . S
C2422 C2423 1.397 . S
C2422 C2427 1.363 . S
C2423 H2394 0.950 . S
C2423 C2422 1.397 . S
C2423 C2424 1.334 . S
C2424 H2395 0.950 . S
C2424 C2423 1.334 . S
C2424 C2425 1.287 . S
C2425 C2424 1.287 . S
C2425 C2426 1.524 . S
C2425 H2428 0.999 . S
C2426 H2396 0.950 . S
C2426 C2425 1.524 . S
C2426 C2427 1.415 . S
C2427 H2397 0.950 . S
C2427 C2422 1.363 . S
C2427 C2426 1.415 . S
H2428 C2425 0.999 . S
H2429 C2410 0.913 . S
H2430 C2448 0.951 . S
H2431 C2450 0.951 . S
H2432 C2452 0.950 . S
H2433 C2453 0.950 . S
H2434 C2455 0.950 . S
H2435 C2458 0.950 . S
H2436 C2459 0.950 . S
H2437 C2461 0.950 . S
H2438 C2462 0.950 . S
H2439 C2463 0.951 . S
H2440 C2465 0.951 . S
H2441 C2467 0.950 . S
H2442 C2468 0.950 . S
H2443 C2470 0.950 . S
H2444 C2473 0.950 . S
H2445 C2474 0.950 . S
H2446 C2476 0.950 . S
H2447 C2477 0.950 . S
C2448 H2430 0.951 . S
C2448 C2449 1.366 . S
C2448 C2450 1.388 . S
C2449 C2448 1.366 . S
C2449 C2453 1.385 . S
C2450 H2431 0.951 . S
C2450 C2448 1.388 . S
C2450 C2451 1.366 . S
C2451 C2450 1.366 . S
C2451 C2452 1.414 . S
C2451 C2454 1.499 . S
C2452 H2432 0.950 . S
C2452 C2451 1.414 . S
C2452 C2453 1.374 . S
C2453 H2433 0.950 . S
C2453 C2449 1.385 . S
C2453 C2452 1.374 . S
C2454 C2451 1.499 . S
C2454 C2455 1.373 . S
C2454 C2456 1.389 . S
C2455 H2434 0.950 . S
C2455 C2454 1.373 . S
C2455 C2471 1.377 . S
C2456 C2454 1.389 . S
C2456 C2457 1.524 . S
C2456 C2470 1.377 . S
C2457 C2456 1.524 . S
C2457 C2458 1.397 . S
C2457 C2462 1.363 . S
C2458 H2435 0.950 . S
C2458 C2457 1.397 . S
C2458 C2459 1.334 . S
C2459 H2436 0.950 . S
C2459 C2458 1.334 . S
C2459 C2460 1.287 . S
C2460 C2459 1.287 . S
C2460 C2461 1.524 . S
C2460 H2479 0.913 1_565 S
C2461 H2437 0.950 . S
C2461 C2460 1.524 . S
C2461 C2462 1.415 . S
C2462 H2438 0.950 . S
C2462 C2457 1.363 . S
C2462 C2461 1.415 . S
C2463 H2439 0.951 . S
C2463 C2464 1.366 . S
C2463 C2465 1.388 . S
C2464 C2463 1.366 . S
C2464 C2468 1.385 . S
C2465 H2440 0.951 . S
C2465 C2463 1.388 . S
C2465 C2466 1.366 . S
C2466 C2465 1.366 . S
C2466 C2467 1.414 . S
C2466 C2469 1.499 . S
C2467 H2441 0.950 . S
C2467 C2466 1.414 . S
C2467 C2468 1.374 . S
C2468 H2442 0.950 . S
C2468 C2464 1.385 . S
C2468 C2467 1.374 . S
C2469 C2466 1.499 . S
C2469 C2470 1.373 . S
C2469 C2471 1.389 . S
C2470 H2443 0.950 . S
C2470 C2456 1.377 . S
C2470 C2469 1.373 . S
C2471 C2455 1.377 . S
C2471 C2469 1.389 . S
C2471 C2472 1.524 . S
C2472 C2471 1.524 . S
C2472 C2473 1.397 . S
C2472 C2477 1.363 . S
C2473 H2444 0.950 . S
C2473 C2472 1.397 . S
C2473 C2474 1.334 . S
C2474 H2445 0.950 . S
C2474 C2473 1.334 . S
C2474 C2475 1.287 . S
C2475 C2474 1.287 . S
C2475 C2476 1.524 . S
C2475 H2478 0.999 . S
C2476 H2446 0.950 . S
C2476 C2475 1.524 . S
C2476 C2477 1.415 . S
C2477 H2447 0.950 . S
C2477 C2472 1.363 . S
C2477 C2476 1.415 . S
H2478 C2475 0.999 . S
H2479 C2460 0.913 1_545 S
H2480 C2498 0.951 . S
H2481 C2500 0.951 . S
H2482 C2502 0.950 . S
H2483 C2503 0.950 . S
H2484 C2505 0.950 . S
H2485 C2508 0.950 . S
H2486 C2509 0.950 . S
H2487 C2511 0.950 . S
H2488 C2512 0.950 . S
H2489 C2513 0.951 . S
H2490 C2515 0.951 . S
H2491 C2517 0.950 . S
H2492 C2518 0.950 . S
H2493 C2520 0.950 . S
H2494 C2523 0.950 . S
H2495 C2524 0.950 . S
H2496 C2526 0.950 . S
H2497 C2527 0.950 . S
C2498 H2480 0.951 . S
C2498 C2499 1.366 . S
C2498 C2500 1.388 . S
C2499 C2498 1.366 . S
C2499 C2503 1.385 . S
C2500 H2481 0.951 . S
C2500 C2498 1.388 . S
C2500 C2501 1.366 . S
C2501 C2500 1.366 . S
C2501 C2502 1.414 . S
C2501 C2504 1.499 . S
C2502 H2482 0.950 . S
C2502 C2501 1.414 . S
C2502 C2503 1.374 . S
C2503 H2483 0.950 . S
C2503 C2499 1.385 . S
C2503 C2502 1.374 . S
C2504 C2501 1.499 . S
C2504 C2505 1.373 . S
C2504 C2506 1.389 . S
C2505 H2484 0.950 . S
C2505 C2504 1.373 . S
C2505 C2521 1.377 . S
C2506 C2504 1.389 . S
C2506 C2507 1.524 . S
C2506 C2520 1.377 . S
C2507 C2506 1.524 . S
C2507 C2508 1.397 . S
C2507 C2512 1.363 . S
C2508 H2485 0.950 . S
C2508 C2507 1.397 . S
C2508 C2509 1.334 . S
C2509 H2486 0.950 . S
C2509 C2508 1.334 . S
C2509 C2510 1.287 . S
C2510 C2509 1.287 . S
C2510 C2511 1.524 . S
C2510 H2529 0.913 . S
C2511 H2487 0.950 . S
C2511 C2510 1.524 . S
C2511 C2512 1.415 . S
C2512 H2488 0.950 . S
C2512 C2507 1.363 . S
C2512 C2511 1.415 . S
C2513 H2489 0.951 . S
C2513 C2514 1.366 . S
C2513 C2515 1.388 . S
C2514 C2513 1.366 . S
C2514 C2518 1.385 . S
C2515 H2490 0.951 . S
C2515 C2513 1.388 . S
C2515 C2516 1.366 . S
C2516 C2515 1.366 . S
C2516 C2517 1.414 . S
C2516 C2519 1.499 . S
C2517 H2491 0.950 . S
C2517 C2516 1.414 . S
C2517 C2518 1.374 . S
C2518 H2492 0.950 . S
C2518 C2514 1.385 . S
C2518 C2517 1.374 . S
C2519 C2516 1.499 . S
C2519 C2520 1.373 . S
C2519 C2521 1.389 . S
C2520 H2493 0.950 . S
C2520 C2506 1.377 . S
C2520 C2519 1.373 . S
C2521 C2505 1.377 . S
C2521 C2519 1.389 . S
C2521 C2522 1.524 . S
C2522 C2521 1.524 . S
C2522 C2523 1.397 . S
C2522 C2527 1.363 . S
C2523 H2494 0.950 . S
C2523 C2522 1.397 . S
C2523 C2524 1.334 . S
C2524 H2495 0.950 . S
C2524 C2523 1.334 . S
C2524 C2525 1.287 . S
C2525 C2524 1.287 . S
C2525 C2526 1.524 . S
C2525 H2528 0.999 . S
C2526 H2496 0.950 . S
C2526 C2525 1.524 . S
C2526 C2527 1.415 . S
C2527 H2497 0.950 . S
C2527 C2522 1.363 . S
C2527 C2526 1.415 . S
H2528 C2525 0.999 . S
H2529 C2510 0.913 . S
H2530 C2548 0.951 . S
H2531 C2550 0.951 . S
H2532 C2552 0.950 . S
H2533 C2553 0.950 . S
H2534 C2555 0.950 . S
H2535 C2558 0.950 . S
H2536 C2559 0.950 . S
H2537 C2561 0.950 . S
H2538 C2562 0.950 . S
H2539 C2563 0.951 . S
H2540 C2565 0.951 . S
H2541 C2567 0.950 . S
H2542 C2568 0.950 . S
H2543 C2570 0.950 . S
H2544 C2573 0.950 . S
H2545 C2574 0.950 . S
H2546 C2576 0.950 . S
H2547 C2577 0.950 . S
C2548 H2530 0.951 . S
C2548 C2549 1.366 . S
C2548 C2550 1.388 . S
C2549 C2548 1.366 . S
C2549 C2553 1.385 . S
C2550 H2531 0.951 . S
C2550 C2548 1.388 . S
C2550 C2551 1.366 . S
C2551 C2550 1.366 . S
C2551 C2552 1.414 . S
C2551 C2554 1.499 . S
C2552 H2532 0.950 . S
C2552 C2551 1.414 . S
C2552 C2553 1.374 . S
C2553 H2533 0.950 . S
C2553 C2549 1.385 . S
C2553 C2552 1.374 . S
C2554 C2551 1.499 . S
C2554 C2555 1.373 . S
C2554 C2556 1.389 . S
C2555 H2534 0.950 . S
C2555 C2554 1.373 . S
C2555 C2571 1.377 . S
C2556 C2554 1.389 . S
C2556 C2557 1.524 . S
C2556 C2570 1.377 . S
C2557 C2556 1.524 . S
C2557 C2558 1.397 . S
C2557 C2562 1.363 . S
C2558 H2535 0.950 . S
C2558 C2557 1.397 . S
C2558 C2559 1.334 . S
C2559 H2536 0.950 . S
C2559 C2558 1.334 . S
C2559 C2560 1.287 . S
C2560 C2559 1.287 . S
C2560 C2561 1.524 . S
C2560 H2579 0.913 . S
C2561 H2537 0.950 . S
C2561 C2560 1.524 . S
C2561 C2562 1.415 . S
C2562 H2538 0.950 . S
C2562 C2557 1.363 . S
C2562 C2561 1.415 . S
C2563 H2539 0.951 . S
C2563 C2564 1.366 . S
C2563 C2565 1.388 . S
C2564 C2563 1.366 . S
C2564 C2568 1.385 . S
C2565 H2540 0.951 . S
C2565 C2563 1.388 . S
C2565 C2566 1.366 . S
C2566 C2565 1.366 . S
C2566 C2567 1.414 . S
C2566 C2569 1.499 . S
C2567 H2541 0.950 . S
C2567 C2566 1.414 . S
C2567 C2568 1.374 . S
C2568 H2542 0.950 . S
C2568 C2564 1.385 . S
C2568 C2567 1.374 . S
C2569 C2566 1.499 . S
C2569 C2570 1.373 . S
C2569 C2571 1.389 . S
C2570 H2543 0.950 . S
C2570 C2556 1.377 . S
C2570 C2569 1.373 . S
C2571 C2555 1.377 . S
C2571 C2569 1.389 . S
C2571 C2572 1.524 . S
C2572 C2571 1.524 . S
C2572 C2573 1.397 . S
C2572 C2577 1.363 . S
C2573 H2544 0.950 . S
C2573 C2572 1.397 . S
C2573 C2574 1.334 . S
C2574 H2545 0.950 . S
C2574 C2573 1.334 . S
C2574 C2575 1.287 . S
C2575 C2574 1.287 . S
C2575 C2576 1.524 . S
C2575 H2578 0.999 . S
C2576 H2546 0.950 . S
C2576 C2575 1.524 . S
C2576 C2577 1.415 . S
C2577 H2547 0.950 . S
C2577 C2572 1.363 . S
C2577 C2576 1.415 . S
H2578 C2575 0.999 . S
H2579 C2560 0.913 . S
H2580 C2598 0.951 . S
H2581 C2600 0.951 . S
H2582 C2602 0.950 . S
H2583 C2603 0.950 . S
H2584 C2605 0.950 . S
H2585 C2608 0.950 . S
H2586 C2609 0.950 . S
H2587 C2611 0.950 . S
H2588 C2612 0.950 . S
H2589 C2613 0.951 . S
H2590 C2615 0.951 . S
H2591 C2617 0.950 . S
H2592 C2618 0.950 . S
H2593 C2620 0.950 . S
H2594 C2623 0.950 . S
H2595 C2624 0.950 . S
H2596 C2626 0.950 . S
H2597 C2627 0.950 . S
C2598 H2580 0.951 . S
C2598 C2599 1.366 . S
C2598 C2600 1.388 . S
C2599 C2598 1.366 . S
C2599 C2603 1.385 . S
C2600 H2581 0.951 . S
C2600 C2598 1.388 . S
C2600 C2601 1.366 . S
C2601 C2600 1.366 . S
C2601 C2602 1.414 . S
C2601 C2604 1.499 . S
C2602 H2582 0.950 . S
C2602 C2601 1.414 . S
C2602 C2603 1.374 . S
C2603 H2583 0.950 . S
C2603 C2599 1.385 . S
C2603 C2602 1.374 . S
C2604 C2601 1.499 . S
C2604 C2605 1.373 . S
C2604 C2606 1.389 . S
C2605 H2584 0.950 . S
C2605 C2604 1.373 . S
C2605 C2621 1.377 . S
C2606 C2604 1.389 . S
C2606 C2607 1.524 . S
C2606 C2620 1.377 . S
C2607 C2606 1.524 . S
C2607 C2608 1.397 . S
C2607 C2612 1.363 . S
C2608 H2585 0.950 . S
C2608 C2607 1.397 . S
C2608 C2609 1.334 . S
C2609 H2586 0.950 . S
C2609 C2608 1.334 . S
C2609 C2610 1.287 . S
C2610 C2609 1.287 . S
C2610 C2611 1.524 . S
C2610 H2629 0.913 . S
C2611 H2587 0.950 . S
C2611 C2610 1.524 . S
C2611 C2612 1.415 . S
C2612 H2588 0.950 . S
C2612 C2607 1.363 . S
C2612 C2611 1.415 . S
C2613 H2589 0.951 . S
C2613 C2614 1.366 . S
C2613 C2615 1.388 . S
C2614 C2613 1.366 . S
C2614 C2618 1.385 . S
C2615 H2590 0.951 . S
C2615 C2613 1.388 . S
C2615 C2616 1.366 . S
C2616 C2615 1.366 . S
C2616 C2617 1.414 . S
C2616 C2619 1.499 . S
C2617 H2591 0.950 . S
C2617 C2616 1.414 . S
C2617 C2618 1.374 . S
C2618 H2592 0.950 . S
C2618 C2614 1.385 . S
C2618 C2617 1.374 . S
C2619 C2616 1.499 . S
C2619 C2620 1.373 . S
C2619 C2621 1.389 . S
C2620 H2593 0.950 . S
C2620 C2606 1.377 . S
C2620 C2619 1.373 . S
C2621 C2605 1.377 . S
C2621 C2619 1.389 . S
C2621 C2622 1.524 . S
C2622 C2621 1.524 . S
C2622 C2623 1.397 . S
C2622 C2627 1.363 . S
C2623 H2594 0.950 . S
C2623 C2622 1.397 . S
C2623 C2624 1.334 . S
C2624 H2595 0.950 . S
C2624 C2623 1.334 . S
C2624 C2625 1.287 . S
C2625 C2624 1.287 . S
C2625 C2626 1.524 . S
C2625 H2628 0.999 . S
C2626 H2596 0.950 . S
C2626 C2625 1.524 . S
C2626 C2627 1.415 . S
C2627 H2597 0.950 . S
C2627 C2622 1.363 . S
C2627 C2626 1.415 . S
H2628 C2625 0.999 . S
H2629 C2610 0.913 . S
H2630 C2648 0.951 . S
H2631 C2650 0.951 . S
H2632 C2652 0.950 . S
H2633 C2653 0.950 . S
H2634 C2655 0.950 . S
H2635 C2658 0.950 . S
H2636 C2659 0.950 . S
H2637 C2661 0.950 . S
H2638 C2662 0.950 . S
H2639 C2663 0.951 . S
H2640 C2665 0.951 . S
H2641 C2667 0.950 . S
H2642 C2668 0.950 . S
H2643 C2670 0.950 . S
H2644 C2673 0.950 . S
H2645 C2674 0.950 . S
H2646 C2676 0.950 . S
H2647 C2677 0.950 . S
C2648 H2630 0.951 . S
C2648 C2649 1.366 . S
C2648 C2650 1.388 . S
C2649 C2648 1.366 . S
C2649 C2653 1.385 . S
C2650 H2631 0.951 . S
C2650 C2648 1.388 . S
C2650 C2651 1.366 . S
C2651 C2650 1.366 . S
C2651 C2652 1.414 . S
C2651 C2654 1.499 . S
C2652 H2632 0.950 . S
C2652 C2651 1.414 . S
C2652 C2653 1.374 . S
C2653 H2633 0.950 . S
C2653 C2649 1.385 . S
C2653 C2652 1.374 . S
C2654 C2651 1.499 . S
C2654 C2655 1.373 . S
C2654 C2656 1.389 . S
C2655 H2634 0.950 . S
C2655 C2654 1.373 . S
C2655 C2671 1.377 . S
C2656 C2654 1.389 . S
C2656 C2657 1.524 . S
C2656 C2670 1.377 . S
C2657 C2656 1.524 . S
C2657 C2658 1.397 . S
C2657 C2662 1.363 . S
C2658 H2635 0.950 . S
C2658 C2657 1.397 . S
C2658 C2659 1.334 . S
C2659 H2636 0.950 . S
C2659 C2658 1.334 . S
C2659 C2660 1.287 . S
C2660 C2659 1.287 . S
C2660 C2661 1.524 . S
C2660 H2679 0.913 . S
C2661 H2637 0.950 . S
C2661 C2660 1.524 . S
C2661 C2662 1.415 . S
C2662 H2638 0.950 . S
C2662 C2657 1.363 . S
C2662 C2661 1.415 . S
C2663 H2639 0.951 . S
C2663 C2664 1.366 . S
C2663 C2665 1.388 . S
C2664 C2663 1.366 . S
C2664 C2668 1.385 . S
C2665 H2640 0.951 . S
C2665 C2663 1.388 . S
C2665 C2666 1.366 . S
C2666 C2665 1.366 . S
C2666 C2667 1.414 . S
C2666 C2669 1.499 . S
C2667 H2641 0.950 . S
C2667 C2666 1.414 . S
C2667 C2668 1.374 . S
C2668 H2642 0.950 . S
C2668 C2664 1.385 . S
C2668 C2667 1.374 . S
C2669 C2666 1.499 . S
C2669 C2670 1.373 . S
C2669 C2671 1.389 . S
C2670 H2643 0.950 . S
C2670 C2656 1.377 . S
C2670 C2669 1.373 . S
C2671 C2655 1.377 . S
C2671 C2669 1.389 . S
C2671 C2672 1.524 . S
C2672 C2671 1.524 . S
C2672 C2673 1.397 . S
C2672 C2677 1.363 . S
C2673 H2644 0.950 . S
C2673 C2672 1.397 . S
C2673 C2674 1.334 . S
C2674 H2645 0.950 . S
C2674 C2673 1.334 . S
C2674 C2675 1.287 . S
C2675 C2674 1.287 . S
C2675 C2676 1.524 . S
C2675 H2678 0.999 . S
C2676 H2646 0.950 . S
C2676 C2675 1.524 . S
C2676 C2677 1.415 . S
C2677 H2647 0.950 . S
C2677 C2672 1.363 . S
C2677 C2676 1.415 . S
H2678 C2675 0.999 . S
H2679 C2660 0.913 . S
H2680 C2698 0.951 . S
H2681 C2700 0.951 . S
H2682 C2702 0.950 . S
H2683 C2703 0.950 . S
H2684 C2705 0.950 . S
H2685 C2708 0.950 . S
H2686 C2709 0.950 . S
H2687 C2711 0.950 . S
H2688 C2712 0.950 . S
H2689 C2713 0.951 . S
H2690 C2715 0.951 . S
H2691 C2717 0.950 . S
H2692 C2718 0.950 . S
H2693 C2720 0.950 . S
H2694 C2723 0.950 . S
H2695 C2724 0.950 . S
H2696 C2726 0.950 . S
H2697 C2727 0.950 . S
C2698 H2680 0.951 . S
C2698 C2699 1.366 . S
C2698 C2700 1.388 . S
C2699 C2698 1.366 . S
C2699 C2703 1.385 . S
C2700 H2681 0.951 . S
C2700 C2698 1.388 . S
C2700 C2701 1.366 . S
C2701 C2700 1.366 . S
C2701 C2702 1.414 . S
C2701 C2704 1.499 . S
C2702 H2682 0.950 . S
C2702 C2701 1.414 . S
C2702 C2703 1.374 . S
C2703 H2683 0.950 . S
C2703 C2699 1.385 . S
C2703 C2702 1.374 . S
C2704 C2701 1.499 . S
C2704 C2705 1.373 . S
C2704 C2706 1.389 . S
C2705 H2684 0.950 . S
C2705 C2704 1.373 . S
C2705 C2721 1.377 . S
C2706 C2704 1.389 . S
C2706 C2707 1.524 . S
C2706 C2720 1.377 . S
C2707 C2706 1.524 . S
C2707 C2708 1.397 . S
C2707 C2712 1.363 . S
C2708 H2685 0.950 . S
C2708 C2707 1.397 . S
C2708 C2709 1.334 . S
C2709 H2686 0.950 . S
C2709 C2708 1.334 . S
C2709 C2710 1.287 . S
C2710 C2709 1.287 . S
C2710 C2711 1.524 . S
C2710 H2729 0.913 . S
C2711 H2687 0.950 . S
C2711 C2710 1.524 . S
C2711 C2712 1.415 . S
C2712 H2688 0.950 . S
C2712 C2707 1.363 . S
C2712 C2711 1.415 . S
C2713 H2689 0.951 . S
C2713 C2714 1.366 . S
C2713 C2715 1.388 . S
C2714 C2713 1.366 . S
C2714 C2718 1.385 . S
C2715 H2690 0.951 . S
C2715 C2713 1.388 . S
C2715 C2716 1.366 . S
C2716 C2715 1.366 . S
C2716 C2717 1.414 . S
C2716 C2719 1.499 . S
C2717 H2691 0.950 . S
C2717 C2716 1.414 . S
C2717 C2718 1.374 . S
C2718 H2692 0.950 . S
C2718 C2714 1.385 . S
C2718 C2717 1.374 . S
C2719 C2716 1.499 . S
C2719 C2720 1.373 . S
C2719 C2721 1.389 . S
C2720 H2693 0.950 . S
C2720 C2706 1.377 . S
C2720 C2719 1.373 . S
C2721 C2705 1.377 . S
C2721 C2719 1.389 . S
C2721 C2722 1.524 . S
C2722 C2721 1.524 . S
C2722 C2723 1.397 . S
C2722 C2727 1.363 . S
C2723 H2694 0.950 . S
C2723 C2722 1.397 . S
C2723 C2724 1.334 . S
C2724 H2695 0.950 . S
C2724 C2723 1.334 . S
C2724 C2725 1.287 . S
C2725 C2724 1.287 . S
C2725 C2726 1.524 . S
C2725 H2728 0.999 . S
C2726 H2696 0.950 . S
C2726 C2725 1.524 . S
C2726 C2727 1.415 . S
C2727 H2697 0.950 . S
C2727 C2722 1.363 . S
C2727 C2726 1.415 . S
H2728 C2725 0.999 . S
H2729 C2710 0.913 . S
H2730 C2748 0.951 . S
H2731 C2750 0.951 . S
H2732 C2752 0.950 . S
H2733 C2753 0.950 . S
H2734 C2755 0.950 . S
H2735 C2758 0.950 . S
H2736 C2759 0.950 . S
H2737 C2761 0.950 . S
H2738 C2762 0.950 . S
H2739 C2763 0.951 . S
H2740 C2765 0.951 . S
H2741 C2767 0.950 . S
H2742 C2768 0.950 . S
H2743 C2770 0.950 . S
H2744 C2773 0.950 . S
H2745 C2774 0.950 . S
H2746 C2776 0.950 . S
H2747 C2777 0.950 . S
C2748 H2730 0.951 . S
C2748 C2749 1.366 . S
C2748 C2750 1.388 . S
C2749 C2748 1.366 . S
C2749 C2753 1.385 . S
C2750 H2731 0.951 . S
C2750 C2748 1.388 . S
C2750 C2751 1.366 . S
C2751 C2750 1.366 . S
C2751 C2752 1.414 . S
C2751 C2754 1.499 . S
C2752 H2732 0.950 . S
C2752 C2751 1.414 . S
C2752 C2753 1.374 . S
C2753 H2733 0.950 . S
C2753 C2749 1.385 . S
C2753 C2752 1.374 . S
C2754 C2751 1.499 . S
C2754 C2755 1.373 . S
C2754 C2756 1.389 . S
C2755 H2734 0.950 . S
C2755 C2754 1.373 . S
C2755 C2771 1.377 . S
C2756 C2754 1.389 . S
C2756 C2757 1.524 . S
C2756 C2770 1.377 . S
C2757 C2756 1.524 . S
C2757 C2758 1.397 . S
C2757 C2762 1.363 . S
C2758 H2735 0.950 . S
C2758 C2757 1.397 . S
C2758 C2759 1.334 . S
C2759 H2736 0.950 . S
C2759 C2758 1.334 . S
C2759 C2760 1.287 . S
C2760 C2759 1.287 . S
C2760 C2761 1.524 . S
C2760 H2779 0.913 . S
C2761 H2737 0.950 . S
C2761 C2760 1.524 . S
C2761 C2762 1.415 . S
C2762 H2738 0.950 . S
C2762 C2757 1.363 . S
C2762 C2761 1.415 . S
C2763 H2739 0.951 . S
C2763 C2764 1.366 . S
C2763 C2765 1.388 . S
C2764 C2763 1.366 . S
C2764 C2768 1.385 . S
C2765 H2740 0.951 . S
C2765 C2763 1.388 . S
C2765 C2766 1.366 . S
C2766 C2765 1.366 . S
C2766 C2767 1.414 . S
C2766 C2769 1.499 . S
C2767 H2741 0.950 . S
C2767 C2766 1.414 . S
C2767 C2768 1.374 . S
C2768 H2742 0.950 . S
C2768 C2764 1.385 . S
C2768 C2767 1.374 . S
C2769 C2766 1.499 . S
C2769 C2770 1.373 . S
C2769 C2771 1.389 . S
C2770 H2743 0.950 . S
C2770 C2756 1.377 . S
C2770 C2769 1.373 . S
C2771 C2755 1.377 . S
C2771 C2769 1.389 . S
C2771 C2772 1.524 . S
C2772 C2771 1.524 . S
C2772 C2773 1.397 . S
C2772 C2777 1.363 . S
C2773 H2744 0.950 . S
C2773 C2772 1.397 . S
C2773 C2774 1.334 . S
C2774 H2745 0.950 . S
C2774 C2773 1.334 . S
C2774 C2775 1.287 . S
C2775 C2774 1.287 . S
C2775 C2776 1.524 . S
C2775 H2778 0.999 . S
C2776 H2746 0.950 . S
C2776 C2775 1.524 . S
C2776 C2777 1.415 . S
C2777 H2747 0.950 . S
C2777 C2772 1.363 . S
C2777 C2776 1.415 . S
H2778 C2775 0.999 . S
H2779 C2760 0.913 . S
H2780 C2798 0.951 . S
H2781 C2800 0.951 . S
H2782 C2802 0.950 . S
H2783 C2803 0.950 . S
H2784 C2805 0.950 . S
H2785 C2808 0.950 . S
H2786 C2809 0.950 . S
H2787 C2811 0.950 . S
H2788 C2812 0.950 . S
H2789 C2813 0.951 . S
H2790 C2815 0.951 . S
H2791 C2817 0.950 . S
H2792 C2818 0.950 . S
H2793 C2820 0.950 . S
H2794 C2823 0.950 . S
H2795 C2824 0.950 . S
H2796 C2826 0.950 . S
H2797 C2827 0.950 . S
C2798 H2780 0.951 . S
C2798 C2799 1.366 . S
C2798 C2800 1.388 . S
C2799 C2798 1.366 . S
C2799 C2803 1.385 . S
C2800 H2781 0.951 . S
C2800 C2798 1.388 . S
C2800 C2801 1.366 . S
C2801 C2800 1.366 . S
C2801 C2802 1.414 . S
C2801 C2804 1.499 . S
C2802 H2782 0.950 . S
C2802 C2801 1.414 . S
C2802 C2803 1.374 . S
C2803 H2783 0.950 . S
C2803 C2799 1.385 . S
C2803 C2802 1.374 . S
C2804 C2801 1.499 . S
C2804 C2805 1.373 . S
C2804 C2806 1.389 . S
C2805 H2784 0.950 . S
C2805 C2804 1.373 . S
C2805 C2821 1.377 . S
C2806 C2804 1.389 . S
C2806 C2807 1.524 . S
C2806 C2820 1.377 . S
C2807 C2806 1.524 . S
C2807 C2808 1.397 . S
C2807 C2812 1.363 . S
C2808 H2785 0.950 . S
C2808 C2807 1.397 . S
C2808 C2809 1.334 . S
C2809 H2786 0.950 . S
C2809 C2808 1.334 . S
C2809 C2810 1.287 . S
C2810 C2809 1.287 . S
C2810 C2811 1.524 . S
C2810 H2829 0.913 . S
C2811 H2787 0.950 . S
C2811 C2810 1.524 . S
C2811 C2812 1.415 . S
C2812 H2788 0.950 . S
C2812 C2807 1.363 . S
C2812 C2811 1.415 . S
C2813 H2789 0.951 . S
C2813 C2814 1.366 . S
C2813 C2815 1.388 . S
C2814 C2813 1.366 . S
C2814 C2818 1.385 . S
C2815 H2790 0.951 . S
C2815 C2813 1.388 . S
C2815 C2816 1.366 . S
C2816 C2815 1.366 . S
C2816 C2817 1.414 . S
C2816 C2819 1.499 . S
C2817 H2791 0.950 . S
C2817 C2816 1.414 . S
C2817 C2818 1.374 . S
C2818 H2792 0.950 . S
C2818 C2814 1.385 . S
C2818 C2817 1.374 . S
C2819 C2816 1.499 . S
C2819 C2820 1.373 . S
C2819 C2821 1.389 . S
C2820 H2793 0.950 . S
C2820 C2806 1.377 . S
C2820 C2819 1.373 . S
C2821 C2805 1.377 . S
C2821 C2819 1.389 . S
C2821 C2822 1.524 . S
C2822 C2821 1.524 . S
C2822 C2823 1.397 . S
C2822 C2827 1.363 . S
C2823 H2794 0.950 . S
C2823 C2822 1.397 . S
C2823 C2824 1.334 . S
C2824 H2795 0.950 . S
C2824 C2823 1.334 . S
C2824 C2825 1.287 . S
C2825 C2824 1.287 . S
C2825 C2826 1.524 . S
C2825 H2828 0.999 . S
C2826 H2796 0.950 . S
C2826 C2825 1.524 . S
C2826 C2827 1.415 . S
C2827 H2797 0.950 . S
C2827 C2822 1.363 . S
C2827 C2826 1.415 . S
H2828 C2825 0.999 . S
H2829 C2810 0.913 . S
H2830 C2848 0.951 . S
H2831 C2850 0.951 . S
H2832 C2852 0.950 . S
H2833 C2853 0.950 . S
H2834 C2855 0.950 . S
H2835 C2858 0.950 . S
H2836 C2859 0.950 . S
H2837 C2861 0.950 . S
H2838 C2862 0.950 . S
H2839 C2863 0.951 . S
H2840 C2865 0.951 . S
H2841 C2867 0.950 . S
H2842 C2868 0.950 . S
H2843 C2870 0.950 . S
H2844 C2873 0.950 . S
H2845 C2874 0.950 . S
H2846 C2876 0.950 . S
H2847 C2877 0.950 . S
C2848 H2830 0.951 . S
C2848 C2849 1.366 . S
C2848 C2850 1.388 . S
C2849 C2848 1.366 . S
C2849 C2853 1.385 . S
C2850 H2831 0.951 . S
C2850 C2848 1.388 . S
C2850 C2851 1.366 . S
C2851 C2850 1.366 . S
C2851 C2852 1.414 . S
C2851 C2854 1.499 . S
C2852 H2832 0.950 . S
C2852 C2851 1.414 . S
C2852 C2853 1.374 . S
C2853 H2833 0.950 . S
C2853 C2849 1.385 . S
C2853 C2852 1.374 . S
C2854 C2851 1.499 . S
C2854 C2855 1.373 . S
C2854 C2856 1.389 . S
C2855 H2834 0.950 . S
C2855 C2854 1.373 . S
C2855 C2871 1.377 . S
C2856 C2854 1.389 . S
C2856 C2857 1.524 . S
C2856 C2870 1.377 . S
C2857 C2856 1.524 . S
C2857 C2858 1.397 . S
C2857 C2862 1.363 . S
C2858 H2835 0.950 . S
C2858 C2857 1.397 . S
C2858 C2859 1.334 . S
C2859 H2836 0.950 . S
C2859 C2858 1.334 . S
C2859 C2860 1.287 . S
C2860 C2859 1.287 . S
C2860 C2861 1.524 . S
C2860 H2879 0.913 . S
C2861 H2837 0.950 . S
C2861 C2860 1.524 . S
C2861 C2862 1.415 . S
C2862 H2838 0.950 . S
C2862 C2857 1.363 . S
C2862 C2861 1.415 . S
C2863 H2839 0.951 . S
C2863 C2864 1.366 . S
C2863 C2865 1.388 . S
C2864 C2863 1.366 . S
C2864 C2868 1.385 . S
C2865 H2840 0.951 . S
C2865 C2863 1.388 . S
C2865 C2866 1.366 . S
C2866 C2865 1.366 . S
C2866 C2867 1.414 . S
C2866 C2869 1.499 . S
C2867 H2841 0.950 . S
C2867 C2866 1.414 . S
C2867 C2868 1.374 . S
C2868 H2842 0.950 . S
C2868 C2864 1.385 . S
C2868 C2867 1.374 . S
C2869 C2866 1.499 . S
C2869 C2870 1.373 . S
C2869 C2871 1.389 . S
C2870 H2843 0.950 . S
C2870 C2856 1.377 . S
C2870 C2869 1.373 . S
C2871 C2855 1.377 . S
C2871 C2869 1.389 . S
C2871 C2872 1.524 . S
C2872 C2871 1.524 . S
C2872 C2873 1.397 . S
C2872 C2877 1.363 . S
C2873 H2844 0.950 . S
C2873 C2872 1.397 . S
C2873 C2874 1.334 . S
C2874 H2845 0.950 . S
C2874 C2873 1.334 . S
C2874 C2875 1.287 . S
C2875 C2874 1.287 . S
C2875 C2876 1.524 . S
C2875 H2878 0.999 . S
C2876 H2846 0.950 . S
C2876 C2875 1.524 . S
C2876 C2877 1.415 . S
C2877 H2847 0.950 . S
C2877 C2872 1.363 . S
C2877 C2876 1.415 . S
H2878 C2875 0.999 . S
H2879 C2860 0.913 . S
H2880 C2898 0.951 . S
H2881 C2900 0.951 . S
H2882 C2902 0.950 1_545 S
H2883 C2903 0.950 1_545 S
H2884 C2905 0.950 . S
H2885 C2908 0.950 . S
H2886 C2909 0.950 . S
H2887 C2911 0.950 . S
H2888 C2912 0.930 1_565 S
H2889 C2913 0.951 1_545 S
H2890 C2915 0.930 1_545 S
H2891 C2917 0.950 . S
H2892 C2918 0.950 . S
H2893 C2920 0.970 . S
H2894 C2923 0.950 . S
H2895 C2924 0.950 . S
H2896 C2926 0.950 . S
H2897 C2927 0.950 . S
C2898 H2880 0.951 . S
C2898 C2899 1.366 . S
C2898 C2900 1.388 . S
C2899 C2898 1.366 . S
C2899 C2903 1.385 . S
C2900 H2881 0.951 . S
C2900 C2898 1.388 . S
C2900 C2901 1.366 . S
C2901 C2900 1.366 . S
C2901 C2902 1.414 . S
C2901 C2904 1.499 . S
C2902 H2882 0.950 1_565 S
C2902 C2901 1.414 . S
C2902 C2903 1.374 . S
C2903 H2883 0.950 1_565 S
C2903 C2899 1.385 . S
C2903 C2902 1.374 . S
C2904 C2901 1.499 . S
C2904 C2905 1.373 . S
C2904 C2906 1.389 . S
C2905 H2884 0.950 . S
C2905 C2904 1.373 . S
C2905 C2921 1.377 1_455 S
C2906 C2904 1.389 . S
C2906 C2907 1.524 1_565 S
C2906 C2920 1.377 1_455 S
C2907 C2906 1.524 1_545 S
C2907 C2908 1.397 . S
C2907 C2912 1.370 . S
C2908 H2885 0.950 . S
C2908 C2907 1.397 . S
C2908 C2909 1.334 . S
C2909 H2886 0.950 . S
C2909 C2908 1.334 . S
C2909 C2910 1.287 . S
C2910 C2909 1.287 . S
C2910 C2911 1.524 . S
C2910 H2929 0.913 . S
C2911 H2887 0.950 . S
C2911 C2910 1.524 . S
C2911 C2912 1.428 . S
C2912 H2888 0.930 1_545 S
C2912 C2907 1.370 . S
C2912 C2911 1.428 . S
C2913 H2889 0.951 1_565 S
C2913 C2914 1.366 . S
C2913 C2915 1.388 . S
C2914 C2913 1.366 . S
C2914 C2918 1.385 . S
C2915 H2890 0.930 1_565 S
C2915 C2913 1.388 . S
C2915 C2916 1.366 . S
C2916 C2915 1.366 . S
C2916 C2917 1.414 . S
C2916 C2919 1.499 . S
C2917 H2891 0.950 . S
C2917 C2916 1.414 . S
C2917 C2918 1.374 . S
C2918 H2892 0.950 . S
C2918 C2914 1.385 . S
C2918 C2917 1.374 . S
C2919 C2916 1.499 . S
C2919 C2920 1.373 . S
C2919 C2921 1.389 . S
C2920 H2893 0.970 . S
C2920 C2906 1.377 1_655 S
C2920 C2919 1.373 . S
C2921 C2905 1.377 1_655 S
C2921 C2919 1.389 . S
C2921 C2922 1.524 . S
C2922 C2921 1.524 . S
C2922 C2923 1.397 . S
C2922 C2927 1.363 . S
C2923 H2894 0.950 . S
C2923 C2922 1.397 . S
C2923 C2924 1.334 . S
C2924 H2895 0.950 . S
C2924 C2923 1.334 . S
C2924 C2925 1.287 . S
C2925 C2924 1.287 . S
C2925 C2926 1.524 . S
C2925 H2928 0.999 . S
C2926 H2896 0.950 . S
C2926 C2925 1.524 . S
C2926 C2927 1.415 . S
C2927 H2897 0.950 . S
C2927 C2922 1.363 . S
C2927 C2926 1.415 . S
H2928 C2925 0.999 . S
H2929 C2910 0.913 . S
H2930 C2948 0.951 . S
H2931 C2950 0.951 . S
H2932 C2952 0.950 . S
H2933 C2953 0.950 . S
H2934 C2955 0.950 . S
H2935 C2958 0.950 . S
H2936 C2959 0.950 . S
H2937 C2961 0.950 . S
H2938 C2962 0.950 . S
H2939 C2963 0.951 . S
H2940 C2965 0.951 . S
H2941 C2967 0.950 . S
H2942 C2968 0.950 . S
H2943 C2970 0.950 . S
H2944 C2973 0.950 . S
H2945 C2974 0.950 . S
H2946 C2976 0.950 . S
H2947 C2977 0.950 . S
C2948 H2930 0.951 . S
C2948 C2949 1.366 . S
C2948 C2950 1.388 . S
C2949 C2948 1.366 . S
C2949 C2953 1.385 . S
C2950 H2931 0.951 . S
C2950 C2948 1.388 . S
C2950 C2951 1.366 . S
C2951 C2950 1.366 . S
C2951 C2952 1.414 . S
C2951 C2954 1.499 . S
C2952 H2932 0.950 . S
C2952 C2951 1.414 . S
C2952 C2953 1.374 . S
C2953 H2933 0.950 . S
C2953 C2949 1.385 . S
C2953 C2952 1.374 . S
C2954 C2951 1.499 . S
C2954 C2955 1.373 . S
C2954 C2956 1.389 . S
C2955 H2934 0.950 . S
C2955 C2954 1.373 . S
C2955 C2971 1.377 . S
C2956 C2954 1.389 . S
C2956 C2957 1.524 . S
C2956 C2970 1.377 . S
C2957 C2956 1.524 . S
C2957 C2958 1.397 . S
C2957 C2962 1.363 . S
C2958 H2935 0.950 . S
C2958 C2957 1.397 . S
C2958 C2959 1.334 . S
C2959 H2936 0.950 . S
C2959 C2958 1.334 . S
C2959 C2960 1.287 . S
C2960 C2959 1.287 . S
C2960 C2961 1.524 . S
C2960 H2979 0.913 . S
C2961 H2937 0.950 . S
C2961 C2960 1.524 . S
C2961 C2962 1.415 . S
C2962 H2938 0.950 . S
C2962 C2957 1.363 . S
C2962 C2961 1.415 . S
C2963 H2939 0.951 . S
C2963 C2964 1.366 . S
C2963 C2965 1.388 . S
C2964 C2963 1.366 . S
C2964 C2968 1.385 . S
C2965 H2940 0.951 . S
C2965 C2963 1.388 . S
C2965 C2966 1.366 . S
C2966 C2965 1.366 . S
C2966 C2967 1.414 . S
C2966 C2969 1.499 . S
C2967 H2941 0.950 . S
C2967 C2966 1.414 . S
C2967 C2968 1.374 . S
C2968 H2942 0.950 . S
C2968 C2964 1.385 . S
C2968 C2967 1.374 . S
C2969 C2966 1.499 . S
C2969 C2970 1.373 . S
C2969 C2971 1.389 . S
C2970 H2943 0.950 . S
C2970 C2956 1.377 . S
C2970 C2969 1.373 . S
C2971 C2955 1.377 . S
C2971 C2969 1.389 . S
C2971 C2972 1.524 . S
C2972 C2971 1.524 . S
C2972 C2973 1.397 . S
C2972 C2977 1.363 . S
C2973 H2944 0.950 . S
C2973 C2972 1.397 . S
C2973 C2974 1.334 . S
C2974 H2945 0.950 . S
C2974 C2973 1.334 . S
C2974 C2975 1.287 . S
C2975 C2974 1.287 . S
C2975 C2976 1.524 . S
C2975 H2978 0.999 . S
C2976 H2946 0.950 . S
C2976 C2975 1.524 . S
C2976 C2977 1.415 . S
C2977 H2947 0.950 . S
C2977 C2972 1.363 . S
C2977 C2976 1.415 . S
H2978 C2975 0.999 . S
H2979 C2960 0.913 . S
H2980 C2998 0.951 . S
H2981 C3000 0.951 . S
H2982 C3002 0.950 . S
H2983 C3003 0.950 . S
H2984 C3005 0.950 . S
H2985 C3008 0.950 . S
H2986 C3009 0.950 . S
H2987 C3011 0.950 . S
H2988 C3012 0.950 . S
H2989 C3013 0.951 . S
H2990 C3015 0.951 . S
H2991 C3017 0.950 . S
H2992 C3018 0.950 . S
H2993 C3020 0.950 . S
H2994 C3023 0.950 . S
H2995 C3024 0.950 . S
H2996 C3026 0.950 . S
H2997 C3027 0.950 . S
C2998 H2980 0.951 . S
C2998 C2999 1.366 . S
C2998 C3000 1.388 . S
C2999 C2998 1.366 . S
C2999 C3003 1.385 1_545 S
C3000 H2981 0.951 . S
C3000 C2998 1.388 . S
C3000 C3001 1.366 . S
C3001 C3000 1.366 . S
C3001 C3002 1.414 1_545 S
C3001 C3004 1.499 . S
C3002 H2982 0.950 . S
C3002 C3001 1.414 1_565 S
C3002 C3003 1.374 . S
C3003 H2983 0.950 . S
C3003 C2999 1.385 1_565 S
C3003 C3002 1.374 . S
C3004 C3001 1.499 . S
C3004 C3005 1.373 1_545 S
C3004 C3006 1.389 . S
C3005 H2984 0.950 . S
C3005 C3004 1.373 1_565 S
C3005 C3021 1.377 . S
C3006 C3004 1.389 . S
C3006 C3007 1.524 . S
C3006 C3020 1.377 . S
C3007 C3006 1.524 . S
C3007 C3008 1.397 . S
C3007 C3012 1.363 . S
C3008 H2985 0.950 . S
C3008 C3007 1.397 . S
C3008 C3009 1.334 . S
C3009 H2986 0.950 . S
C3009 C3008 1.334 . S
C3009 C3010 1.287 . S
C3010 C3009 1.287 . S
C3010 C3011 1.524 . S
C3010 H3029 0.913 . S
C3011 H2987 0.950 . S
C3011 C3010 1.524 . S
C3011 C3012 1.415 . S
C3012 H2988 0.950 . S
C3012 C3007 1.363 . S
C3012 C3011 1.415 . S
C3013 H2989 0.951 . S
C3013 C3014 1.366 1_565 S
C3013 C3015 1.388 . S
C3014 C3013 1.366 1_545 S
C3014 C3018 1.385 . S
C3015 H2990 0.951 . S
C3015 C3013 1.388 . S
C3015 C3016 1.366 1_565 S
C3016 C3015 1.366 1_545 S
C3016 C3017 1.414 . S
C3016 C3019 1.499 . S
C3017 H2991 0.950 . S
C3017 C3016 1.414 . S
C3017 C3018 1.374 . S
C3018 H2992 0.950 . S
C3018 C3014 1.385 . S
C3018 C3017 1.374 . S
C3019 C3016 1.499 . S
C3019 C3020 1.373 . S
C3019 C3021 1.389 1_545 S
C3020 H2993 0.950 . S
C3020 C3006 1.377 . S
C3020 C3019 1.373 . S
C3021 C3005 1.377 . S
C3021 C3019 1.389 1_565 S
C3021 C3022 1.524 . S
C3022 C3021 1.524 . S
C3022 C3023 1.397 . S
C3022 C3027 1.363 . S
C3023 H2994 0.950 . S
C3023 C3022 1.397 . S
C3023 C3024 1.334 . S
C3024 H2995 0.950 . S
C3024 C3023 1.334 . S
C3024 C3025 1.287 . S
C3025 C3024 1.287 . S
C3025 C3026 1.524 . S
C3025 H3028 0.999 . S
C3026 H2996 0.950 . S
C3026 C3025 1.524 . S
C3026 C3027 1.415 . S
C3027 H2997 0.950 . S
C3027 C3022 1.363 . S
C3027 C3026 1.415 . S
H3028 C3025 0.999 . S
H3029 C3010 0.913 . S
H3030 C3048 0.951 . S
H3031 C3050 0.951 . S
H3032 C3052 0.950 . S
H3033 C3053 0.950 . S
H3034 C3055 0.950 . S
H3035 C3058 0.950 . S
H3036 C3059 0.950 . S
H3037 C3061 0.950 . S
H3038 C3062 0.950 . S
H3039 C3063 0.951 . S
H3040 C3065 0.951 . S
H3041 C3067 0.950 . S
H3042 C3068 0.950 . S
H3043 C3070 0.950 . S
H3044 C3073 0.950 . S
H3045 C3074 0.950 . S
H3046 C3076 0.950 . S
H3047 C3077 0.950 . S
C3048 H3030 0.951 . S
C3048 C3049 1.366 . S
C3048 C3050 1.388 . S
C3049 C3048 1.366 . S
C3049 C3053 1.385 . S
C3050 H3031 0.951 . S
C3050 C3048 1.388 . S
C3050 C3051 1.366 . S
C3051 C3050 1.366 . S
C3051 C3052 1.414 . S
C3051 C3054 1.499 . S
C3052 H3032 0.950 . S
C3052 C3051 1.414 . S
C3052 C3053 1.374 . S
C3053 H3033 0.950 . S
C3053 C3049 1.385 . S
C3053 C3052 1.374 . S
C3054 C3051 1.499 . S
C3054 C3055 1.373 . S
C3054 C3056 1.389 . S
C3055 H3034 0.950 . S
C3055 C3054 1.373 . S
C3055 C3071 1.377 . S
C3056 C3054 1.389 . S
C3056 C3057 1.524 . S
C3056 C3070 1.377 . S
C3057 C3056 1.524 . S
C3057 C3058 1.397 . S
C3057 C3062 1.363 . S
C3058 H3035 0.950 . S
C3058 C3057 1.397 . S
C3058 C3059 1.334 . S
C3059 H3036 0.950 . S
C3059 C3058 1.334 . S
C3059 C3060 1.287 . S
C3060 C3059 1.287 . S
C3060 C3061 1.524 . S
C3060 H3079 0.913 . S
C3061 H3037 0.950 . S
C3061 C3060 1.524 . S
C3061 C3062 1.415 . S
C3062 H3038 0.950 . S
C3062 C3057 1.363 . S
C3062 C3061 1.415 . S
C3063 H3039 0.951 . S
C3063 C3064 1.366 . S
C3063 C3065 1.388 . S
C3064 C3063 1.366 . S
C3064 C3068 1.385 . S
C3065 H3040 0.951 . S
C3065 C3063 1.388 . S
C3065 C3066 1.366 . S
C3066 C3065 1.366 . S
C3066 C3067 1.414 . S
C3066 C3069 1.499 . S
C3067 H3041 0.950 . S
C3067 C3066 1.414 . S
C3067 C3068 1.374 . S
C3068 H3042 0.950 . S
C3068 C3064 1.385 . S
C3068 C3067 1.374 . S
C3069 C3066 1.499 . S
C3069 C3070 1.373 . S
C3069 C3071 1.389 . S
C3070 H3043 0.950 . S
C3070 C3056 1.377 . S
C3070 C3069 1.373 . S
C3071 C3055 1.377 . S
C3071 C3069 1.389 . S
C3071 C3072 1.524 . S
C3072 C3071 1.524 . S
C3072 C3073 1.397 . S
C3072 C3077 1.363 . S
C3073 H3044 0.950 . S
C3073 C3072 1.397 . S
C3073 C3074 1.334 . S
C3074 H3045 0.950 . S
C3074 C3073 1.334 . S
C3074 C3075 1.287 . S
C3075 C3074 1.287 . S
C3075 C3076 1.524 . S
C3075 H3078 0.999 . S
C3076 H3046 0.950 . S
C3076 C3075 1.524 . S
C3076 C3077 1.415 . S
C3077 H3047 0.950 . S
C3077 C3072 1.363 . S
C3077 C3076 1.415 . S
H3078 C3075 0.999 . S
H3079 C3060 0.913 . S
H3080 C3098 0.960 . S
H3081 C3100 0.951 1_565 S
H3082 C3102 0.950 . S
H3083 C3103 0.950 . S
H3084 C3105 0.950 . S
H3085 C3108 0.950 . S
H3086 C3109 0.950 . S
H3087 C3111 0.950 . S
H3088 C3112 0.950 . S
H3089 C3113 0.951 . S
H3090 C3115 0.951 . S
H3091 C3117 0.959 . S
H3092 C3118 0.959 . S
H3093 C3120 0.950 . S
H3094 C3123 0.950 . S
H3095 C3124 0.950 . S
H3096 C3126 0.950 . S
H3097 C3127 0.950 . S
C3098 H3080 0.960 . S
C3098 C3099 1.366 . S
C3098 C3100 1.388 . S
C3099 C3098 1.366 . S
C3099 C3103 1.385 . S
C3100 H3081 0.951 1_545 S
C3100 C3098 1.388 . S
C3100 C3101 1.366 . S
C3101 C3100 1.366 . S
C3101 C3102 1.414 . S
C3101 C3104 1.499 . S
C3102 H3082 0.950 . S
C3102 C3101 1.414 . S
C3102 C3103 1.374 . S
C3103 H3083 0.950 . S
C3103 C3099 1.385 . S
C3103 C3102 1.374 . S
C3104 C3101 1.499 . S
C3104 C3105 1.373 . S
C3104 C3106 1.389 1_545 S
C3105 H3084 0.950 . S
C3105 C3104 1.373 . S
C3105 C3121 1.377 1_655 S
C3106 C3104 1.389 1_565 S
C3106 C3107 1.524 . S
C3106 C3120 1.377 1_655 S
C3107 C3106 1.524 . S
C3107 C3108 1.397 . S
C3107 C3112 1.363 . S
C3108 H3085 0.950 . S
C3108 C3107 1.397 . S
C3108 C3109 1.334 . S
C3109 H3086 0.950 . S
C3109 C3108 1.334 . S
C3109 C3110 1.287 . S
C3110 C3109 1.287 . S
C3110 C3111 1.524 . S
C3110 H3129 0.913 . S
C3111 H3087 0.950 . S
C3111 C3110 1.524 . S
C3111 C3112 1.415 . S
C3112 H3088 0.950 . S
C3112 C3107 1.363 . S
C3112 C3111 1.415 . S
C3113 H3089 0.951 . S
C3113 C3114 1.366 . S
C3113 C3115 1.388 . S
C3114 C3113 1.366 . S
C3114 C3118 1.385 . S
C3115 H3090 0.951 . S
C3115 C3113 1.388 . S
C3115 C3116 1.366 . S
C3116 C3115 1.366 . S
C3116 C3117 1.414 . S
C3116 C3119 1.499 . S
C3117 H3091 0.959 . S
C3117 C3116 1.414 . S
C3117 C3118 1.374 . S
C3118 H3092 0.959 . S
C3118 C3114 1.385 . S
C3118 C3117 1.374 . S
C3119 C3116 1.499 . S
C3119 C3120 1.373 1_545 S
C3119 C3121 1.389 . S
C3120 H3093 0.950 . S
C3120 C3106 1.377 1_455 S
C3120 C3119 1.373 1_565 S
C3121 C3105 1.377 1_455 S
C3121 C3119 1.389 . S
C3121 C3122 1.524 . S
C3122 C3121 1.524 . S
C3122 C3123 1.397 . S
C3122 C3127 1.363 . S
C3123 H3094 0.950 . S
C3123 C3122 1.397 . S
C3123 C3124 1.334 . S
C3124 H3095 0.950 . S
C3124 C3123 1.334 . S
C3124 C3125 1.287 . S
C3125 C3124 1.287 . S
C3125 C3126 1.524 . S
C3125 H3128 0.999 . S
C3126 H3096 0.950 . S
C3126 C3125 1.524 . S
C3126 C3127 1.415 . S
C3127 H3097 0.950 . S
C3127 C3122 1.363 . S
C3127 C3126 1.415 . S
H3128 C3125 0.999 . S
H3129 C3110 0.913 . S
H3130 C3148 0.951 . S
H3131 C3150 0.951 . S
H3132 C3152 0.950 . S
H3133 C3153 0.950 . S
H3134 C3155 0.950 . S
H3135 C3158 0.950 . S
H3136 C3159 0.950 . S
H3137 C3161 0.950 . S
H3138 C3162 0.950 . S
H3139 C3163 0.951 . S
H3140 C3165 0.951 . S
H3141 C3167 0.950 . S
H3142 C3168 0.950 . S
H3143 C3170 0.950 . S
H3144 C3173 0.950 . S
H3145 C3174 0.950 . S
H3146 C3176 0.950 . S
H3147 C3177 0.950 . S
C3148 H3130 0.951 . S
C3148 C3149 1.366 . S
C3148 C3150 1.388 . S
C3149 C3148 1.366 . S
C3149 C3153 1.385 . S
C3150 H3131 0.951 . S
C3150 C3148 1.388 . S
C3150 C3151 1.366 . S
C3151 C3150 1.366 . S
C3151 C3152 1.414 . S
C3151 C3154 1.499 . S
C3152 H3132 0.950 . S
C3152 C3151 1.414 . S
C3152 C3153 1.374 . S
C3153 H3133 0.950 . S
C3153 C3149 1.385 . S
C3153 C3152 1.374 . S
C3154 C3151 1.499 . S
C3154 C3155 1.373 . S
C3154 C3156 1.389 . S
C3155 H3134 0.950 . S
C3155 C3154 1.373 . S
C3155 C3171 1.377 . S
C3156 C3154 1.389 . S
C3156 C3157 1.524 . S
C3156 C3170 1.377 . S
C3157 C3156 1.524 . S
C3157 C3158 1.397 . S
C3157 C3162 1.363 . S
C3158 H3135 0.950 . S
C3158 C3157 1.397 . S
C3158 C3159 1.334 . S
C3159 H3136 0.950 . S
C3159 C3158 1.334 . S
C3159 C3160 1.287 . S
C3160 C3159 1.287 . S
C3160 C3161 1.524 . S
C3160 H3179 0.913 . S
C3161 H3137 0.950 . S
C3161 C3160 1.524 . S
C3161 C3162 1.415 . S
C3162 H3138 0.950 . S
C3162 C3157 1.363 . S
C3162 C3161 1.415 . S
C3163 H3139 0.951 . S
C3163 C3164 1.366 . S
C3163 C3165 1.388 . S
C3164 C3163 1.366 . S
C3164 C3168 1.385 . S
C3165 H3140 0.951 . S
C3165 C3163 1.388 . S
C3165 C3166 1.366 . S
C3166 C3165 1.366 . S
C3166 C3167 1.414 . S
C3166 C3169 1.499 . S
C3167 H3141 0.950 . S
C3167 C3166 1.414 . S
C3167 C3168 1.374 . S
C3168 H3142 0.950 . S
C3168 C3164 1.385 . S
C3168 C3167 1.374 . S
C3169 C3166 1.499 . S
C3169 C3170 1.373 . S
C3169 C3171 1.389 . S
C3170 H3143 0.950 . S
C3170 C3156 1.377 . S
C3170 C3169 1.373 . S
C3171 C3155 1.377 . S
C3171 C3169 1.389 . S
C3171 C3172 1.524 . S
C3172 C3171 1.524 . S
C3172 C3173 1.397 . S
C3172 C3177 1.363 . S
C3173 H3144 0.950 . S
C3173 C3172 1.397 . S
C3173 C3174 1.334 . S
C3174 H3145 0.950 . S
C3174 C3173 1.334 . S
C3174 C3175 1.287 . S
C3175 C3174 1.287 . S
C3175 C3176 1.524 . S
C3175 H3178 0.999 . S
C3176 H3146 0.950 . S
C3176 C3175 1.524 . S
C3176 C3177 1.415 . S
C3177 H3147 0.950 . S
C3177 C3172 1.363 . S
C3177 C3176 1.415 . S
H3178 C3175 0.999 . S
H3179 C3160 0.913 . S
H3180 C3198 0.951 . S
H3181 C3200 0.951 . S
H3182 C3202 0.956 . S
H3183 C3203 0.956 . S
H3184 C3205 0.950 . S
H3185 C3208 0.950 . S
H3186 C3209 0.950 . S
H3187 C3211 0.950 . S
H3188 C3212 0.950 . S
H3189 C3213 0.957 . S
H3190 C3215 0.949 1_545 S
H3191 C3217 0.950 . S
H3192 C3218 0.950 . S
H3193 C3220 0.950 . S
H3194 C3223 0.950 . S
H3195 C3224 0.950 . S
H3196 C3226 0.950 . S
H3197 C3227 0.950 . S
C3198 H3180 0.951 . S
C3198 C3199 1.366 . S
C3198 C3200 1.388 . S
C3199 C3198 1.366 . S
C3199 C3203 1.385 . S
C3200 H3181 0.951 . S
C3200 C3198 1.388 . S
C3200 C3201 1.366 . S
C3201 C3200 1.366 . S
C3201 C3202 1.414 . S
C3201 C3204 1.499 . S
C3202 H3182 0.956 . S
C3202 C3201 1.414 . S
C3202 C3203 1.374 . S
C3203 H3183 0.956 . S
C3203 C3199 1.385 . S
C3203 C3202 1.374 . S
C3204 C3201 1.499 . S
C3204 C3205 1.373 1_565 S
C3204 C3206 1.389 . S
C3205 H3184 0.950 . S
C3205 C3204 1.373 1_545 S
C3205 C3221 1.377 . S
C3206 C3204 1.389 . S
C3206 C3207 1.524 . S
C3206 C3220 1.377 . S
C3207 C3206 1.524 . S
C3207 C3208 1.397 . S
C3207 C3212 1.363 . S
C3208 H3185 0.950 . S
C3208 C3207 1.397 . S
C3208 C3209 1.334 . S
C3209 H3186 0.950 . S
C3209 C3208 1.334 . S
C3209 C3210 1.287 . S
C3210 C3209 1.287 . S
C3210 C3211 1.524 . S
C3210 H3229 0.913 . S
C3211 H3187 0.950 . S
C3211 C3210 1.524 . S
C3211 C3212 1.415 . S
C3212 H3188 0.950 . S
C3212 C3207 1.363 . S
C3212 C3211 1.415 . S
C3213 H3189 0.957 . S
C3213 C3214 1.366 . S
C3213 C3215 1.388 . S
C3214 C3213 1.366 . S
C3214 C3218 1.385 . S
C3215 H3190 0.949 1_565 S
C3215 C3213 1.388 . S
C3215 C3216 1.366 . S
C3216 C3215 1.366 . S
C3216 C3217 1.414 . S
C3216 C3219 1.499 . S
C3217 H3191 0.950 . S
C3217 C3216 1.414 . S
C3217 C3218 1.374 . S
C3218 H3192 0.950 . S
C3218 C3214 1.385 . S
C3218 C3217 1.374 . S
C3219 C3216 1.499 . S
C3219 C3220 1.373 . S
C3219 C3221 1.389 1_565 S
C3220 H3193 0.950 . S
C3220 C3206 1.377 . S
C3220 C3219 1.373 . S
C3221 C3205 1.377 . S
C3221 C3219 1.389 1_545 S
C3221 C3222 1.524 . S
C3222 C3221 1.524 . S
C3222 C3223 1.397 . S
C3222 C3227 1.363 . S
C3223 H3194 0.950 . S
C3223 C3222 1.397 . S
C3223 C3224 1.334 . S
C3224 H3195 0.950 . S
C3224 C3223 1.334 . S
C3224 C3225 1.287 . S
C3225 C3224 1.287 . S
C3225 C3226 1.524 . S
C3225 H3228 0.999 . S
C3226 H3196 0.950 . S
C3226 C3225 1.524 . S
C3226 C3227 1.415 . S
C3227 H3197 0.950 . S
C3227 C3222 1.363 . S
C3227 C3226 1.415 . S
H3228 C3225 0.999 . S
H3229 C3210 0.913 . S
H3230 C3248 0.951 . S
H3231 C3250 0.951 . S
H3232 C3252 0.950 . S
H3233 C3253 0.950 . S
H3234 C3255 0.950 . S
H3235 C3258 0.950 . S
H3236 C3259 0.950 . S
H3237 C3261 0.950 . S
H3238 C3262 0.950 . S
H3239 C3263 0.951 . S
H3240 C3265 0.951 . S
H3241 C3267 0.950 . S
H3242 C3268 0.950 . S
H3243 C3270 0.950 . S
H3244 C3273 0.950 . S
H3245 C3274 0.950 . S
H3246 C3276 0.950 . S
H3247 C3277 0.950 . S
C3248 H3230 0.951 . S
C3248 C3249 1.366 . S
C3248 C3250 1.388 . S
C3249 C3248 1.366 . S
C3249 C3253 1.385 . S
C3250 H3231 0.951 . S
C3250 C3248 1.388 . S
C3250 C3251 1.366 . S
C3251 C3250 1.366 . S
C3251 C3252 1.414 . S
C3251 C3254 1.499 . S
C3252 H3232 0.950 . S
C3252 C3251 1.414 . S
C3252 C3253 1.374 . S
C3253 H3233 0.950 . S
C3253 C3249 1.385 . S
C3253 C3252 1.374 . S
C3254 C3251 1.499 . S
C3254 C3255 1.373 . S
C3254 C3256 1.389 . S
C3255 H3234 0.950 . S
C3255 C3254 1.373 . S
C3255 C3271 1.377 . S
C3256 C3254 1.389 . S
C3256 C3257 1.524 . S
C3256 C3270 1.377 . S
C3257 C3256 1.524 . S
C3257 C3258 1.397 . S
C3257 C3262 1.363 . S
C3258 H3235 0.950 . S
C3258 C3257 1.397 . S
C3258 C3259 1.334 . S
C3259 H3236 0.950 . S
C3259 C3258 1.334 . S
C3259 C3260 1.287 . S
C3260 C3259 1.287 . S
C3260 C3261 1.524 . S
C3260 H3279 0.913 . S
C3261 H3237 0.950 . S
C3261 C3260 1.524 . S
C3261 C3262 1.415 . S
C3262 H3238 0.950 . S
C3262 C3257 1.363 . S
C3262 C3261 1.415 . S
C3263 H3239 0.951 . S
C3263 C3264 1.366 . S
C3263 C3265 1.388 . S
C3264 C3263 1.366 . S
C3264 C3268 1.385 . S
C3265 H3240 0.951 . S
C3265 C3263 1.388 . S
C3265 C3266 1.366 . S
C3266 C3265 1.366 . S
C3266 C3267 1.414 . S
C3266 C3269 1.499 . S
C3267 H3241 0.950 . S
C3267 C3266 1.414 . S
C3267 C3268 1.374 . S
C3268 H3242 0.950 . S
C3268 C3264 1.385 . S
C3268 C3267 1.374 . S
C3269 C3266 1.499 . S
C3269 C3270 1.373 . S
C3269 C3271 1.389 . S
C3270 H3243 0.950 . S
C3270 C3256 1.377 . S
C3270 C3269 1.373 . S
C3271 C3255 1.377 . S
C3271 C3269 1.389 . S
C3271 C3272 1.524 . S
C3272 C3271 1.524 . S
C3272 C3273 1.397 . S
C3272 C3277 1.363 . S
C3273 H3244 0.950 . S
C3273 C3272 1.397 . S
C3273 C3274 1.334 . S
C3274 H3245 0.950 . S
C3274 C3273 1.334 . S
C3274 C3275 1.287 . S
C3275 C3274 1.287 . S
C3275 C3276 1.524 . S
C3275 H3278 0.999 . S
C3276 H3246 0.950 . S
C3276 C3275 1.524 . S
C3276 C3277 1.415 . S
C3277 H3247 0.950 . S
C3277 C3272 1.363 . S
C3277 C3276 1.415 . S
H3278 C3275 0.999 . S
H3279 C3260 0.913 . S
H3280 C3298 0.951 . S
H3281 C3300 0.951 . S
H3282 C3302 0.950 . S
H3283 C3303 0.950 . S
H3284 C3305 0.950 . S
H3285 C3308 0.950 . S
H3286 C3309 0.950 . S
H3287 C3311 0.950 . S
H3288 C3312 0.950 . S
H3289 C3313 0.951 . S
H3290 C3315 0.951 . S
H3291 C3317 0.950 . S
H3292 C3318 0.950 . S
H3293 C3320 0.950 . S
H3294 C3323 0.950 . S
H3295 C3324 0.950 . S
H3296 C3326 0.950 . S
H3297 C3327 0.950 . S
C3298 H3280 0.951 . S
C3298 C3299 1.366 . S
C3298 C3300 1.388 . S
C3299 C3298 1.366 . S
C3299 C3303 1.385 . S
C3300 H3281 0.951 . S
C3300 C3298 1.388 . S
C3300 C3301 1.366 . S
C3301 C3300 1.366 . S
C3301 C3302 1.414 . S
C3301 C3304 1.499 . S
C3302 H3282 0.950 . S
C3302 C3301 1.414 . S
C3302 C3303 1.374 . S
C3303 H3283 0.950 . S
C3303 C3299 1.385 . S
C3303 C3302 1.374 . S
C3304 C3301 1.499 . S
C3304 C3305 1.373 . S
C3304 C3306 1.389 . S
C3305 H3284 0.950 . S
C3305 C3304 1.373 . S
C3305 C3321 1.377 . S
C3306 C3304 1.389 . S
C3306 C3307 1.524 . S
C3306 C3320 1.377 . S
C3307 C3306 1.524 . S
C3307 C3308 1.397 . S
C3307 C3312 1.363 . S
C3308 H3285 0.950 . S
C3308 C3307 1.397 . S
C3308 C3309 1.334 . S
C3309 H3286 0.950 . S
C3309 C3308 1.334 . S
C3309 C3310 1.287 . S
C3310 C3309 1.287 . S
C3310 C3311 1.524 . S
C3310 H3329 0.913 . S
C3311 H3287 0.950 . S
C3311 C3310 1.524 . S
C3311 C3312 1.415 . S
C3312 H3288 0.950 . S
C3312 C3307 1.363 . S
C3312 C3311 1.415 . S
C3313 H3289 0.951 . S
C3313 C3314 1.366 . S
C3313 C3315 1.388 . S
C3314 C3313 1.366 . S
C3314 C3318 1.385 . S
C3315 H3290 0.951 . S
C3315 C3313 1.388 . S
C3315 C3316 1.366 . S
C3316 C3315 1.366 . S
C3316 C3317 1.414 . S
C3316 C3319 1.499 . S
C3317 H3291 0.950 . S
C3317 C3316 1.414 . S
C3317 C3318 1.374 . S
C3318 H3292 0.950 . S
C3318 C3314 1.385 . S
C3318 C3317 1.374 . S
C3319 C3316 1.499 . S
C3319 C3320 1.373 . S
C3319 C3321 1.389 . S
C3320 H3293 0.950 . S
C3320 C3306 1.377 . S
C3320 C3319 1.373 . S
C3321 C3305 1.377 . S
C3321 C3319 1.389 . S
C3321 C3322 1.524 . S
C3322 C3321 1.524 . S
C3322 C3323 1.397 . S
C3322 C3327 1.363 . S
C3323 H3294 0.950 . S
C3323 C3322 1.397 . S
C3323 C3324 1.334 . S
C3324 H3295 0.950 . S
C3324 C3323 1.334 . S
C3324 C3325 1.287 . S
C3325 C3324 1.287 . S
C3325 C3326 1.524 . S
C3325 H3328 0.999 . S
C3326 H3296 0.950 . S
C3326 C3325 1.524 . S
C3326 C3327 1.415 . S
C3327 H3297 0.950 . S
C3327 C3322 1.363 . S
C3327 C3326 1.415 . S
H3328 C3325 0.999 . S
H3329 C3310 0.913 . S
H3330 C3348 0.951 . S
H3331 C3350 0.951 . S
H3332 C3352 0.950 . S
H3333 C3353 0.950 . S
H3334 C3355 0.950 . S
H3335 C3358 0.950 . S
H3336 C3359 0.950 . S
H3337 C3361 0.950 . S
H3338 C3362 0.950 . S
H3339 C3363 0.951 . S
H3340 C3365 0.951 . S
H3341 C3367 0.950 . S
H3342 C3368 0.950 . S
H3343 C3370 0.950 . S
H3344 C3373 0.950 . S
H3345 C3374 0.950 . S
H3346 C3376 0.950 . S
H3347 C3377 0.950 . S
C3348 H3330 0.951 . S
C3348 C3349 1.366 . S
C3348 C3350 1.388 . S
C3349 C3348 1.366 . S
C3349 C3353 1.385 . S
C3350 H3331 0.951 . S
C3350 C3348 1.388 . S
C3350 C3351 1.366 . S
C3351 C3350 1.366 . S
C3351 C3352 1.414 . S
C3351 C3354 1.499 . S
C3352 H3332 0.950 . S
C3352 C3351 1.414 . S
C3352 C3353 1.374 . S
C3353 H3333 0.950 . S
C3353 C3349 1.385 . S
C3353 C3352 1.374 . S
C3354 C3351 1.499 . S
C3354 C3355 1.373 . S
C3354 C3356 1.389 . S
C3355 H3334 0.950 . S
C3355 C3354 1.373 . S
C3355 C3371 1.377 . S
C3356 C3354 1.389 . S
C3356 C3357 1.524 . S
C3356 C3370 1.377 . S
C3357 C3356 1.524 . S
C3357 C3358 1.397 . S
C3357 C3362 1.363 . S
C3358 H3335 0.950 . S
C3358 C3357 1.397 . S
C3358 C3359 1.334 . S
C3359 H3336 0.950 . S
C3359 C3358 1.334 . S
C3359 C3360 1.287 . S
C3360 C3359 1.287 . S
C3360 C3361 1.524 . S
C3360 H3379 0.913 . S
C3361 H3337 0.950 . S
C3361 C3360 1.524 . S
C3361 C3362 1.415 . S
C3362 H3338 0.950 . S
C3362 C3357 1.363 . S
C3362 C3361 1.415 . S
C3363 H3339 0.951 . S
C3363 C3364 1.366 . S
C3363 C3365 1.388 . S
C3364 C3363 1.366 . S
C3364 C3368 1.385 . S
C3365 H3340 0.951 . S
C3365 C3363 1.388 . S
C3365 C3366 1.366 . S
C3366 C3365 1.366 . S
C3366 C3367 1.414 . S
C3366 C3369 1.499 . S
C3367 H3341 0.950 . S
C3367 C3366 1.414 . S
C3367 C3368 1.374 . S
C3368 H3342 0.950 . S
C3368 C3364 1.385 . S
C3368 C3367 1.374 . S
C3369 C3366 1.499 . S
C3369 C3370 1.373 . S
C3369 C3371 1.389 . S
C3370 H3343 0.950 . S
C3370 C3356 1.377 . S
C3370 C3369 1.373 . S
C3371 C3355 1.377 . S
C3371 C3369 1.389 . S
C3371 C3372 1.524 . S
C3372 C3371 1.524 . S
C3372 C3373 1.397 . S
C3372 C3377 1.363 . S
C3373 H3344 0.950 . S
C3373 C3372 1.397 . S
C3373 C3374 1.334 . S
C3374 H3345 0.950 . S
C3374 C3373 1.334 . S
C3374 C3375 1.287 . S
C3375 C3374 1.287 . S
C3375 C3376 1.524 . S
C3375 H3378 0.999 . S
C3376 H3346 0.950 . S
C3376 C3375 1.524 . S
C3376 C3377 1.415 . S
C3377 H3347 0.950 . S
C3377 C3372 1.363 . S
C3377 C3376 1.415 . S
H3378 C3375 0.999 . S
H3379 C3360 0.913 . S
H3380 C3398 0.951 . S
H3381 C3400 0.951 . S
H3382 C3402 0.950 . S
H3383 C3403 0.950 . S
H3384 C3405 0.950 . S
H3385 C3408 0.950 . S
H3386 C3409 0.950 . S
H3387 C3411 0.950 . S
H3388 C3412 0.950 . S
H3389 C3413 0.951 . S
H3390 C3415 0.951 . S
H3391 C3417 0.950 . S
H3392 C3418 0.950 . S
H3393 C3420 0.950 . S
H3394 C3423 0.950 . S
H3395 C3424 0.950 . S
H3396 C3426 0.950 . S
H3397 C3427 0.950 . S
C3398 H3380 0.951 . S
C3398 C3399 1.366 . S
C3398 C3400 1.388 . S
C3399 C3398 1.366 . S
C3399 C3403 1.385 . S
C3400 H3381 0.951 . S
C3400 C3398 1.388 . S
C3400 C3401 1.366 . S
C3401 C3400 1.366 . S
C3401 C3402 1.414 . S
C3401 C3404 1.499 . S
C3402 H3382 0.950 . S
C3402 C3401 1.414 . S
C3402 C3403 1.374 . S
C3403 H3383 0.950 . S
C3403 C3399 1.385 . S
C3403 C3402 1.374 . S
C3404 C3401 1.499 . S
C3404 C3405 1.373 . S
C3404 C3406 1.389 . S
C3405 H3384 0.950 . S
C3405 C3404 1.373 . S
C3405 C3421 1.377 . S
C3406 C3404 1.389 . S
C3406 C3407 1.524 . S
C3406 C3420 1.377 . S
C3407 C3406 1.524 . S
C3407 C3408 1.397 . S
C3407 C3412 1.363 . S
C3408 H3385 0.950 . S
C3408 C3407 1.397 . S
C3408 C3409 1.334 . S
C3409 H3386 0.950 . S
C3409 C3408 1.334 . S
C3409 C3410 1.287 . S
C3410 C3409 1.287 . S
C3410 C3411 1.524 . S
C3410 H3429 0.913 . S
C3411 H3387 0.950 . S
C3411 C3410 1.524 . S
C3411 C3412 1.415 . S
C3412 H3388 0.950 . S
C3412 C3407 1.363 . S
C3412 C3411 1.415 . S
C3413 H3389 0.951 . S
C3413 C3414 1.366 . S
C3413 C3415 1.388 . S
C3414 C3413 1.366 . S
C3414 C3418 1.385 . S
C3415 H3390 0.951 . S
C3415 C3413 1.388 . S
C3415 C3416 1.366 . S
C3416 C3415 1.366 . S
C3416 C3417 1.414 . S
C3416 C3419 1.499 . S
C3417 H3391 0.950 . S
C3417 C3416 1.414 . S
C3417 C3418 1.374 . S
C3418 H3392 0.950 . S
C3418 C3414 1.385 . S
C3418 C3417 1.374 . S
C3419 C3416 1.499 . S
C3419 C3420 1.373 . S
C3419 C3421 1.389 . S
C3420 H3393 0.950 . S
C3420 C3406 1.377 . S
C3420 C3419 1.373 . S
C3421 C3405 1.377 . S
C3421 C3419 1.389 . S
C3421 C3422 1.524 . S
C3422 C3421 1.524 . S
C3422 C3423 1.397 . S
C3422 C3427 1.363 . S
C3423 H3394 0.950 . S
C3423 C3422 1.397 . S
C3423 C3424 1.334 . S
C3424 H3395 0.950 . S
C3424 C3423 1.334 . S
C3424 C3425 1.287 . S
C3425 C3424 1.287 . S
C3425 C3426 1.524 . S
C3425 H3428 0.999 . S
C3426 H3396 0.950 . S
C3426 C3425 1.524 . S
C3426 C3427 1.415 . S
C3427 H3397 0.950 . S
C3427 C3422 1.363 . S
C3427 C3426 1.415 . S
H3428 C3425 0.999 . S
H3429 C3410 0.913 . S
H3430 C3448 0.951 . S
H3431 C3450 0.951 . S
H3432 C3452 0.950 . S
H3433 C3453 0.950 . S
H3434 C3455 0.950 . S
H3435 C3458 0.950 . S
H3436 C3459 0.950 . S
H3437 C3461 0.950 . S
H3438 C3462 0.950 . S
H3439 C3463 0.951 . S
H3440 C3465 0.951 . S
H3441 C3467 0.950 . S
H3442 C3468 0.950 . S
H3443 C3470 0.950 . S
H3444 C3473 0.950 . S
H3445 C3474 0.950 . S
H3446 C3476 0.950 . S
H3447 C3477 0.950 . S
C3448 H3430 0.951 . S
C3448 C3449 1.366 . S
C3448 C3450 1.388 . S
C3449 C3448 1.366 . S
C3449 C3453 1.385 . S
C3450 H3431 0.951 . S
C3450 C3448 1.388 . S
C3450 C3451 1.366 . S
C3451 C3450 1.366 . S
C3451 C3452 1.414 . S
C3451 C3454 1.499 . S
C3452 H3432 0.950 . S
C3452 C3451 1.414 . S
C3452 C3453 1.374 . S
C3453 H3433 0.950 . S
C3453 C3449 1.385 . S
C3453 C3452 1.374 . S
C3454 C3451 1.499 . S
C3454 C3455 1.373 . S
C3454 C3456 1.389 . S
C3455 H3434 0.950 . S
C3455 C3454 1.373 . S
C3455 C3471 1.377 . S
C3456 C3454 1.389 . S
C3456 C3457 1.524 . S
C3456 C3470 1.377 . S
C3457 C3456 1.524 . S
C3457 C3458 1.397 . S
C3457 C3462 1.363 . S
C3458 H3435 0.950 . S
C3458 C3457 1.397 . S
C3458 C3459 1.334 . S
C3459 H3436 0.950 . S
C3459 C3458 1.334 . S
C3459 C3460 1.287 . S
C3460 C3459 1.287 . S
C3460 C3461 1.524 . S
C3460 H3479 0.913 . S
C3461 H3437 0.950 . S
C3461 C3460 1.524 . S
C3461 C3462 1.415 . S
C3462 H3438 0.950 . S
C3462 C3457 1.363 . S
C3462 C3461 1.415 . S
C3463 H3439 0.951 . S
C3463 C3464 1.366 . S
C3463 C3465 1.388 . S
C3464 C3463 1.366 . S
C3464 C3468 1.385 . S
C3465 H3440 0.951 . S
C3465 C3463 1.388 . S
C3465 C3466 1.366 . S
C3466 C3465 1.366 . S
C3466 C3467 1.414 . S
C3466 C3469 1.499 . S
C3467 H3441 0.950 . S
C3467 C3466 1.414 . S
C3467 C3468 1.374 . S
C3468 H3442 0.950 . S
C3468 C3464 1.385 . S
C3468 C3467 1.374 . S
C3469 C3466 1.499 . S
C3469 C3470 1.373 . S
C3469 C3471 1.389 . S
C3470 H3443 0.950 . S
C3470 C3456 1.377 . S
C3470 C3469 1.373 . S
C3471 C3455 1.377 . S
C3471 C3469 1.389 . S
C3471 C3472 1.524 . S
C3472 C3471 1.524 . S
C3472 C3473 1.397 . S
C3472 C3477 1.363 . S
C3473 H3444 0.950 . S
C3473 C3472 1.397 . S
C3473 C3474 1.334 . S
C3474 H3445 0.950 . S
C3474 C3473 1.334 . S
C3474 C3475 1.287 . S
C3475 C3474 1.287 . S
C3475 C3476 1.524 . S
C3475 H3478 0.999 . S
C3476 H3446 0.950 . S
C3476 C3475 1.524 . S
C3476 C3477 1.415 . S
C3477 H3447 0.950 . S
C3477 C3472 1.363 . S
C3477 C3476 1.415 . S
H3478 C3475 0.999 . S
H3479 C3460 0.913 . S
H3480 C3498 0.951 . S
H3481 C3500 0.951 . S
H3482 C3502 0.950 . S
H3483 C3503 0.950 . S
H3484 C3505 0.950 . S
H3485 C3508 0.950 . S
H3486 C3509 0.950 . S
H3487 C3511 0.950 . S
H3488 C3512 0.950 . S
H3489 C3513 0.951 . S
H3490 C3515 0.951 . S
H3491 C3517 0.950 . S
H3492 C3518 0.950 . S
H3493 C3520 0.950 . S
H3494 C3523 0.950 . S
H3495 C3524 0.950 . S
H3496 C3526 0.950 . S
H3497 C3527 0.950 . S
C3498 H3480 0.951 . S
C3498 C3499 1.366 . S
C3498 C3500 1.388 . S
C3499 C3498 1.366 . S
C3499 C3503 1.385 . S
C3500 H3481 0.951 . S
C3500 C3498 1.388 . S
C3500 C3501 1.366 . S
C3501 C3500 1.366 . S
C3501 C3502 1.414 . S
C3501 C3504 1.499 . S
C3502 H3482 0.950 . S
C3502 C3501 1.414 . S
C3502 C3503 1.374 . S
C3503 H3483 0.950 . S
C3503 C3499 1.385 . S
C3503 C3502 1.374 . S
C3504 C3501 1.499 . S
C3504 C3505 1.373 . S
C3504 C3506 1.389 . S
C3505 H3484 0.950 . S
C3505 C3504 1.373 . S
C3505 C3521 1.377 . S
C3506 C3504 1.389 . S
C3506 C3507 1.524 . S
C3506 C3520 1.377 . S
C3507 C3506 1.524 . S
C3507 C3508 1.397 . S
C3507 C3512 1.363 . S
C3508 H3485 0.950 . S
C3508 C3507 1.397 . S
C3508 C3509 1.334 . S
C3509 H3486 0.950 . S
C3509 C3508 1.334 . S
C3509 C3510 1.287 . S
C3510 C3509 1.287 . S
C3510 C3511 1.524 . S
C3510 H3529 0.913 . S
C3511 H3487 0.950 . S
C3511 C3510 1.524 . S
C3511 C3512 1.415 . S
C3512 H3488 0.950 . S
C3512 C3507 1.363 . S
C3512 C3511 1.415 . S
C3513 H3489 0.951 . S
C3513 C3514 1.366 . S
C3513 C3515 1.388 . S
C3514 C3513 1.366 . S
C3514 C3518 1.385 . S
C3515 H3490 0.951 . S
C3515 C3513 1.388 . S
C3515 C3516 1.366 . S
C3516 C3515 1.366 . S
C3516 C3517 1.414 . S
C3516 C3519 1.499 . S
C3517 H3491 0.950 . S
C3517 C3516 1.414 . S
C3517 C3518 1.374 . S
C3518 H3492 0.950 . S
C3518 C3514 1.385 . S
C3518 C3517 1.374 . S
C3519 C3516 1.499 . S
C3519 C3520 1.373 . S
C3519 C3521 1.389 . S
C3520 H3493 0.950 . S
C3520 C3506 1.377 . S
C3520 C3519 1.373 . S
C3521 C3505 1.377 . S
C3521 C3519 1.389 . S
C3521 C3522 1.524 . S
C3522 C3521 1.524 . S
C3522 C3523 1.397 . S
C3522 C3527 1.363 . S
C3523 H3494 0.950 . S
C3523 C3522 1.397 . S
C3523 C3524 1.334 . S
C3524 H3495 0.950 . S
C3524 C3523 1.334 . S
C3524 C3525 1.287 . S
C3525 C3524 1.287 . S
C3525 C3526 1.524 . S
C3525 H3528 0.999 . S
C3526 H3496 0.950 . S
C3526 C3525 1.524 . S
C3526 C3527 1.415 . S
C3527 H3497 0.950 . S
C3527 C3522 1.363 . S
C3527 C3526 1.415 . S
H3528 C3525 0.999 . S
H3529 C3510 0.913 . S
H3530 C3548 0.951 . S
H3531 C3550 0.951 . S
H3532 C3552 0.950 . S
H3533 C3553 0.950 . S
H3534 C3555 0.950 . S
H3535 C3558 0.950 . S
H3536 C3559 0.950 . S
H3537 C3561 0.950 . S
H3538 C3562 0.950 . S
H3539 C3563 0.951 . S
H3540 C3565 0.951 . S
H3541 C3567 0.950 . S
H3542 C3568 0.950 . S
H3543 C3570 0.950 . S
H3544 C3573 0.950 . S
H3545 C3574 0.950 . S
H3546 C3576 0.950 . S
H3547 C3577 0.950 . S
C3548 H3530 0.951 . S
C3548 C3549 1.366 . S
C3548 C3550 1.388 . S
C3549 C3548 1.366 . S
C3549 C3553 1.385 . S
C3550 H3531 0.951 . S
C3550 C3548 1.388 . S
C3550 C3551 1.366 . S
C3551 C3550 1.366 . S
C3551 C3552 1.414 . S
C3551 C3554 1.499 . S
C3552 H3532 0.950 . S
C3552 C3551 1.414 . S
C3552 C3553 1.374 . S
C3553 H3533 0.950 . S
C3553 C3549 1.385 . S
C3553 C3552 1.374 . S
C3554 C3551 1.499 . S
C3554 C3555 1.373 . S
C3554 C3556 1.389 . S
C3555 H3534 0.950 . S
C3555 C3554 1.373 . S
C3555 C3571 1.377 1_455 S
C3556 C3554 1.389 . S
C3556 C3557 1.524 . S
C3556 C3570 1.377 1_455 S
C3557 C3556 1.524 . S
C3557 C3558 1.397 . S
C3557 C3562 1.363 . S
C3558 H3535 0.950 . S
C3558 C3557 1.397 . S
C3558 C3559 1.334 . S
C3559 H3536 0.950 . S
C3559 C3558 1.334 . S
C3559 C3560 1.287 . S
C3560 C3559 1.287 . S
C3560 C3561 1.524 . S
C3560 H3579 0.913 . S
C3561 H3537 0.950 . S
C3561 C3560 1.524 . S
C3561 C3562 1.415 . S
C3562 H3538 0.950 . S
C3562 C3557 1.363 . S
C3562 C3561 1.415 . S
C3563 H3539 0.951 . S
C3563 C3564 1.366 . S
C3563 C3565 1.388 . S
C3564 C3563 1.366 . S
C3564 C3568 1.385 . S
C3565 H3540 0.951 . S
C3565 C3563 1.388 . S
C3565 C3566 1.366 . S
C3566 C3565 1.366 . S
C3566 C3567 1.414 . S
C3566 C3569 1.499 . S
C3567 H3541 0.950 . S
C3567 C3566 1.414 . S
C3567 C3568 1.374 . S
C3568 H3542 0.950 . S
C3568 C3564 1.385 . S
C3568 C3567 1.374 . S
C3569 C3566 1.499 . S
C3569 C3570 1.373 . S
C3569 C3571 1.389 . S
C3570 H3543 0.950 . S
C3570 C3556 1.377 1_655 S
C3570 C3569 1.373 . S
C3571 C3555 1.377 1_655 S
C3571 C3569 1.389 . S
C3571 C3572 1.524 . S
C3572 C3571 1.524 . S
C3572 C3573 1.397 . S
C3572 C3577 1.363 . S
C3573 H3544 0.950 . S
C3573 C3572 1.397 . S
C3573 C3574 1.334 . S
C3574 H3545 0.950 . S
C3574 C3573 1.334 . S
C3574 C3575 1.287 . S
C3575 C3574 1.287 . S
C3575 C3576 1.524 . S
C3575 H3578 0.999 . S
C3576 H3546 0.950 . S
C3576 C3575 1.524 . S
C3576 C3577 1.415 . S
C3577 H3547 0.950 . S
C3577 C3572 1.363 . S
C3577 C3576 1.415 . S
H3578 C3575 0.999 . S
H3579 C3560 0.913 . S
H3580 C3598 0.951 . S
H3581 C3600 0.951 . S
H3582 C3602 0.950 . S
H3583 C3603 0.950 . S
H3584 C3605 0.950 . S
H3585 C3608 0.950 . S
H3586 C3609 0.950 . S
H3587 C3611 0.950 . S
H3588 C3612 0.950 . S
H3589 C3613 0.951 . S
H3590 C3615 0.951 . S
H3591 C3617 0.950 . S
H3592 C3618 0.950 . S
H3593 C3620 0.950 . S
H3594 C3623 0.950 . S
H3595 C3624 0.950 . S
H3596 C3626 0.950 . S
H3597 C3627 0.950 . S
C3598 H3580 0.951 . S
C3598 C3599 1.366 . S
C3598 C3600 1.388 . S
C3599 C3598 1.366 . S
C3599 C3603 1.385 . S
C3600 H3581 0.951 . S
C3600 C3598 1.388 . S
C3600 C3601 1.366 . S
C3601 C3600 1.366 . S
C3601 C3602 1.414 . S
C3601 C3604 1.499 . S
C3602 H3582 0.950 . S
C3602 C3601 1.414 . S
C3602 C3603 1.374 . S
C3603 H3583 0.950 . S
C3603 C3599 1.385 . S
C3603 C3602 1.374 . S
C3604 C3601 1.499 . S
C3604 C3605 1.373 . S
C3604 C3606 1.389 . S
C3605 H3584 0.950 . S
C3605 C3604 1.373 . S
C3605 C3621 1.377 . S
C3606 C3604 1.389 . S
C3606 C3607 1.524 . S
C3606 C3620 1.377 . S
C3607 C3606 1.524 . S
C3607 C3608 1.397 . S
C3607 C3612 1.363 . S
C3608 H3585 0.950 . S
C3608 C3607 1.397 . S
C3608 C3609 1.334 . S
C3609 H3586 0.950 . S
C3609 C3608 1.334 . S
C3609 C3610 1.287 . S
C3610 C3609 1.287 . S
C3610 C3611 1.524 . S
C3610 H3629 0.913 . S
C3611 H3587 0.950 . S
C3611 C3610 1.524 . S
C3611 C3612 1.415 . S
C3612 H3588 0.950 . S
C3612 C3607 1.363 . S
C3612 C3611 1.415 . S
C3613 H3589 0.951 . S
C3613 C3614 1.366 . S
C3613 C3615 1.388 . S
C3614 C3613 1.366 . S
C3614 C3618 1.385 . S
C3615 H3590 0.951 . S
C3615 C3613 1.388 . S
C3615 C3616 1.366 . S
C3616 C3615 1.366 . S
C3616 C3617 1.414 . S
C3616 C3619 1.499 . S
C3617 H3591 0.950 . S
C3617 C3616 1.414 . S
C3617 C3618 1.374 . S
C3618 H3592 0.950 . S
C3618 C3614 1.385 . S
C3618 C3617 1.374 . S
C3619 C3616 1.499 . S
C3619 C3620 1.373 . S
C3619 C3621 1.389 . S
C3620 H3593 0.950 . S
C3620 C3606 1.377 . S
C3620 C3619 1.373 . S
C3621 C3605 1.377 . S
C3621 C3619 1.389 . S
C3621 C3622 1.524 . S
C3622 C3621 1.524 . S
C3622 C3623 1.397 . S
C3622 C3627 1.363 . S
C3623 H3594 0.950 . S
C3623 C3622 1.397 . S
C3623 C3624 1.334 . S
C3624 H3595 0.950 . S
C3624 C3623 1.334 . S
C3624 C3625 1.287 . S
C3625 C3624 1.287 . S
C3625 C3626 1.524 . S
C3625 H3628 0.999 . S
C3626 H3596 0.950 . S
C3626 C3625 1.524 . S
C3626 C3627 1.415 . S
C3627 H3597 0.950 . S
C3627 C3622 1.363 . S
C3627 C3626 1.415 . S
H3628 C3625 0.999 . S
H3629 C3610 0.913 . S
H3630 C3648 0.951 . S
H3631 C3650 0.951 . S
H3632 C3652 0.950 . S
H3633 C3653 0.950 . S
H3634 C3655 0.950 . S
H3635 C3658 0.950 . S
H3636 C3659 0.950 . S
H3637 C3661 0.950 . S
H3638 C3662 0.950 . S
H3639 C3663 0.951 . S
H3640 C3665 0.951 . S
H3641 C3667 0.950 . S
H3642 C3668 0.950 . S
H3643 C3670 0.950 . S
H3644 C3673 0.950 . S
H3645 C3674 0.950 . S
H3646 C3676 0.950 . S
H3647 C3677 0.950 . S
C3648 H3630 0.951 . S
C3648 C3649 1.366 . S
C3648 C3650 1.388 . S
C3649 C3648 1.366 . S
C3649 C3653 1.385 . S
C3650 H3631 0.951 . S
C3650 C3648 1.388 . S
C3650 C3651 1.366 . S
C3651 C3650 1.366 . S
C3651 C3652 1.414 . S
C3651 C3654 1.499 . S
C3652 H3632 0.950 . S
C3652 C3651 1.414 . S
C3652 C3653 1.374 . S
C3653 H3633 0.950 . S
C3653 C3649 1.385 . S
C3653 C3652 1.374 . S
C3654 C3651 1.499 . S
C3654 C3655 1.373 . S
C3654 C3656 1.389 . S
C3655 H3634 0.950 . S
C3655 C3654 1.373 . S
C3655 C3671 1.377 1_655 S
C3656 C3654 1.389 . S
C3656 C3657 1.524 . S
C3656 C3670 1.377 1_655 S
C3657 C3656 1.524 . S
C3657 C3658 1.397 . S
C3657 C3662 1.363 . S
C3658 H3635 0.950 . S
C3658 C3657 1.397 . S
C3658 C3659 1.334 . S
C3659 H3636 0.950 . S
C3659 C3658 1.334 . S
C3659 C3660 1.287 . S
C3660 C3659 1.287 . S
C3660 C3661 1.524 . S
C3660 H3679 0.913 . S
C3661 H3637 0.950 . S
C3661 C3660 1.524 . S
C3661 C3662 1.415 . S
C3662 H3638 0.950 . S
C3662 C3657 1.363 . S
C3662 C3661 1.415 . S
C3663 H3639 0.951 . S
C3663 C3664 1.366 . S
C3663 C3665 1.388 . S
C3664 C3663 1.366 . S
C3664 C3668 1.385 . S
C3665 H3640 0.951 . S
C3665 C3663 1.388 . S
C3665 C3666 1.366 . S
C3666 C3665 1.366 . S
C3666 C3667 1.414 . S
C3666 C3669 1.499 . S
C3667 H3641 0.950 . S
C3667 C3666 1.414 . S
C3667 C3668 1.374 . S
C3668 H3642 0.950 . S
C3668 C3664 1.385 . S
C3668 C3667 1.374 . S
C3669 C3666 1.499 . S
C3669 C3670 1.373 . S
C3669 C3671 1.389 . S
C3670 H3643 0.950 . S
C3670 C3656 1.377 1_455 S
C3670 C3669 1.373 . S
C3671 C3655 1.377 1_455 S
C3671 C3669 1.389 . S
C3671 C3672 1.524 . S
C3672 C3671 1.524 . S
C3672 C3673 1.397 . S
C3672 C3677 1.363 . S
C3673 H3644 0.950 . S
C3673 C3672 1.397 . S
C3673 C3674 1.334 . S
C3674 H3645 0.950 . S
C3674 C3673 1.334 . S
C3674 C3675 1.287 . S
C3675 C3674 1.287 . S
C3675 C3676 1.524 . S
C3675 H3678 0.999 . S
C3676 H3646 0.950 . S
C3676 C3675 1.524 . S
C3676 C3677 1.415 . S
C3677 H3647 0.950 . S
C3677 C3672 1.363 . S
C3677 C3676 1.415 . S
H3678 C3675 0.999 . S
H3679 C3660 0.913 . S
C1299 C255 1.495 . S
C1314 C15 1.495 . S
C1349 C295 1.735 . S
C1364 C55 1.735 . S
C1399 C175 1.495 . S
C1414 C95 1.495 . S
C1449 C135 1.735 . S
C1464 C215 1.735 . S
C1499 C575 1.494 . S
C1514 C335 1.493 . S
C1549 C615 1.733 . S
C1564 C375 1.732 . S
C1599 C495 1.493 . S
C1614 C415 1.494 . S
C1649 C535 1.733 . S
C1664 C455 1.733 . S
C1699 C655 1.724 . S
C1714 C895 1.724 . S
C1749 C935 1.509 . S
C1764 C695 1.509 . S
C1799 C735 1.723 . S
C1814 C815 1.724 . S
C1849 C855 1.509 . S
C1864 C775 1.508 . S
C1899 C975 1.721 . S
C1914 C1215 1.721 . S
C1949 C1015 1.506 . S
C1964 C1255 1.506 . S
C1999 C1055 1.721 . S
C2014 C1135 1.721 . S
C2049 C1095 1.506 . S
C2064 C1175 1.506 . S
C2099 C301 1.482 . S
C2114 C21 1.476 . S
C2149 C61 1.482 . S
C2164 C181 1.476 . S
C2199 C221 1.482 . S
C2214 C101 1.476 . S
C2249 C141 1.482 . S
C2264 C261 1.476 . S
C2299 C621 1.443 . S
C2314 C341 1.459 . S
C2349 C381 1.444 . S
C2364 C501 1.459 . S
C2399 C541 1.443 . S
C2414 C421 1.459 . S
C2449 C461 1.443 . S
C2464 C581 1.459 . S
C2499 C661 1.819 . S
C2514 C941 1.820 . S
C2549 C701 1.821 . S
C2564 C821 1.820 . S
C2599 C861 1.821 . S
C2614 C741 1.819 . S
C2649 C781 1.820 . S
C2664 C901 1.819 . S
C2699 C1261 1.772 . S
C2714 C981 1.779 . S
C2749 C1021 1.772 . S
C2764 C1141 1.779 . S
C2799 C1061 1.779 . S
C2814 C1181 1.773 . S
C2849 C1101 1.772 . S
C2864 C1221 1.779 . S
C2899 C2 1.486 . S
C2914 C482 1.468 . S
C2949 C42 1.662 . S
C2964 C1162 1.629 . S
C2999 C82 1.486 . S
C3014 C562 1.469 . S
C3049 C122 1.662 . S
C3064 C1242 1.629 . S
C3099 C322 1.469 . S
C3114 C162 1.486 . S
C3149 C202 1.662 . S
C3164 C1002 1.628 . S
C3199 C242 1.486 . S
C3214 C402 1.469 . S
C3249 C1082 1.629 . S
C3264 C282 1.662 . S
C3299 C362 1.637 . S
C3314 C842 1.659 . S
C3349 C922 1.659 . S
C3364 C442 1.638 . S
C3399 C682 1.659 . S
C3414 C522 1.638 . S
C3449 C602 1.637 . S
C3464 C762 1.659 . S
C3499 C642 1.734 . S
C3514 C1122 1.708 . S
C3549 C1202 1.707 . S
C3564 C722 1.734 . S
C3599 C962 1.707 . S
C3614 C802 1.734 . S
C3649 C882 1.734 . S
C3664 C1042 1.708 . S
