# Generated by pormake.
# Topology gis, (4)-cn, num edge types: 1
# Building blocks:
#     Node 0, Type 0, BuildingBlock: NAHDIM_clean_sbu_0, # of connection points: 4
#     Node 1, Type 0, BuildingBlock: NAHDIM_clean_sbu_0, # of connection points: 4
#     Node 2, Type 0, BuildingBlock: NAHDIM_clean_sbu_0, # of connection points: 4
#     Node 3, Type 0, BuildingBlock: NAHDIM_clean_sbu_0, # of connection points: 4
#     Node 4, Type 0, BuildingBlock: NAHDIM_clean_sbu_0, # of connection points: 4
#     Node 5, Type 0, BuildingBlock: NAHDIM_clean_sbu_0, # of connection points: 4
#     Node 6, Type 0, BuildingBlock: NAHDIM_clean_sbu_0, # of connection points: 4
#     Node 7, Type 0, BuildingBlock: NAHDIM_clean_sbu_0, # of connection points: 4
#     Node 8, Type 0, BuildingBlock: NAHDIM_clean_sbu_0, # of connection points: 4
#     Node 9, Type 0, BuildingBlock: NAHDIM_clean_sbu_0, # of connection points: 4
#     Node 10, Type 0, BuildingBlock: NAHDIM_clean_sbu_0, # of connection points: 4
#     Node 11, Type 0, BuildingBlock: NAHDIM_clean_sbu_0, # of connection points: 4
#     Node 12, Type 0, BuildingBlock: NAHDIM_clean_sbu_0, # of connection points: 4
#     Node 13, Type 0, BuildingBlock: NAHDIM_clean_sbu_0, # of connection points: 4
#     Node 14, Type 0, BuildingBlock: NAHDIM_clean_sbu_0, # of connection points: 4
#     Node 15, Type 0, BuildingBlock: NAHDIM_clean_sbu_0, # of connection points: 4
#     Edge 16, Type (0, 0), BuildingBlock: XIVTED_clean_linker_0, # of connection points: 2
#     Edge 17, Type (0, 0), BuildingBlock: XIVTED_clean_linker_0, # of connection points: 2
#     Edge 18, Type (0, 0), BuildingBlock: XIVTED_clean_linker_0, # of connection points: 2
#     Edge 19, Type (0, 0), BuildingBlock: XIVTED_clean_linker_0, # of connection points: 2
#     Edge 20, Type (0, 0), BuildingBlock: XIVTED_clean_linker_0, # of connection points: 2
#     Edge 21, Type (0, 0), BuildingBlock: XIVTED_clean_linker_0, # of connection points: 2
#     Edge 22, Type (0, 0), BuildingBlock: XIVTED_clean_linker_0, # of connection points: 2
#     Edge 23, Type (0, 0), BuildingBlock: XIVTED_clean_linker_0, # of connection points: 2
#     Edge 24, Type (0, 0), BuildingBlock: XIVTED_clean_linker_0, # of connection points: 2
#     Edge 25, Type (0, 0), BuildingBlock: XIVTED_clean_linker_0, # of connection points: 2
#     Edge 26, Type (0, 0), BuildingBlock: XIVTED_clean_linker_0, # of connection points: 2
#     Edge 27, Type (0, 0), BuildingBlock: XIVTED_clean_linker_0, # of connection points: 2
#     Edge 28, Type (0, 0), BuildingBlock: XIVTED_clean_linker_0, # of connection points: 2
#     Edge 29, Type (0, 0), BuildingBlock: XIVTED_clean_linker_0, # of connection points: 2
#     Edge 30, Type (0, 0), BuildingBlock: XIVTED_clean_linker_0, # of connection points: 2
#     Edge 31, Type (0, 0), BuildingBlock: XIVTED_clean_linker_0, # of connection points: 2
#     Edge 32, Type (0, 0), BuildingBlock: XIVTED_clean_linker_0, # of connection points: 2
#     Edge 33, Type (0, 0), BuildingBlock: XIVTED_clean_linker_0, # of connection points: 2
#     Edge 34, Type (0, 0), BuildingBlock: XIVTED_clean_linker_0, # of connection points: 2
#     Edge 35, Type (0, 0), BuildingBlock: XIVTED_clean_linker_0, # of connection points: 2
#     Edge 36, Type (0, 0), BuildingBlock: XIVTED_clean_linker_0, # of connection points: 2
#     Edge 37, Type (0, 0), BuildingBlock: XIVTED_clean_linker_0, # of connection points: 2
#     Edge 38, Type (0, 0), BuildingBlock: XIVTED_clean_linker_0, # of connection points: 2
#     Edge 39, Type (0, 0), BuildingBlock: XIVTED_clean_linker_0, # of connection points: 2
#     Edge 40, Type (0, 0), BuildingBlock: XIVTED_clean_linker_0, # of connection points: 2
#     Edge 41, Type (0, 0), BuildingBlock: XIVTED_clean_linker_0, # of connection points: 2
#     Edge 42, Type (0, 0), BuildingBlock: XIVTED_clean_linker_0, # of connection points: 2
#     Edge 43, Type (0, 0), BuildingBlock: XIVTED_clean_linker_0, # of connection points: 2
#     Edge 44, Type (0, 0), BuildingBlock: XIVTED_clean_linker_0, # of connection points: 2
#     Edge 45, Type (0, 0), BuildingBlock: XIVTED_clean_linker_0, # of connection points: 2
#     Edge 46, Type (0, 0), BuildingBlock: XIVTED_clean_linker_0, # of connection points: 2
#     Edge 47, Type (0, 0), BuildingBlock: XIVTED_clean_linker_0, # of connection points: 2
# Relax obj value: 0.161
# Max RMSD: 0.165
# Mean RMSD: 0.149
data_MOF--net-gis--node1-NAHDIM_clean_sbu_0--edge1-XIVTED_clean_linker_0
_symmetry_space_group_name_H-M    P1
_symmetry_Int_Tables_number       1
_symmetry_cell_setting            triclinic
loop_
_symmetry_equiv_pos_as_xyz
'x, y, z'
_cell_length_a     48.998742
_cell_length_b     45.467272
_cell_length_c     47.848219
_cell_angle_alpha  91.487329
_cell_angle_beta   91.138214
_cell_angle_gamma 90.121257
loop_
_atom_site_label
_atom_site_type_symbol
_atom_site_fract_x
_atom_site_fract_y
_atom_site_fract_z
_atom_type_partial_charge
C0 C 0.16849 0.5439 0.1875 0.0
O1 O 0.17544 0.52764 0.1657 0.0
O2 O 0.14579 0.5479 0.11618 0.0
Zn3 Zn 0.13341 0.57444 0.14772 0.0
O4 O 0.14412 0.6161 0.14011 0.0
C5 C 0.07943 0.54917 0.14252 0.0
O6 O 0.093 0.52551 0.13485 0.0
O7 O 0.15071 0.56394 0.18453 0.0
C8 C 0.13519 0.6294 0.11879 0.0
O9 O 0.11846 0.61558 0.10109 0.0
C10 C 0.16638 0.55375 0.10157 0.0
O11 O 0.18098 0.57738 0.10779 0.0
O12 O 0.09252 0.57243 0.14959 0.0
C13 C 0.71216 0.90921 0.3602 0.0
O14 O 0.72173 0.89562 0.38221 0.0
O15 O 0.67028 0.92035 0.42311 0.0
Zn16 Zn 0.66129 0.89921 0.38666 0.0
O17 O 0.66418 0.85524 0.38926 0.0
C18 C 0.61237 0.93359 0.37503 0.0
O19 O 0.62719 0.95614 0.38406 0.0
O20 O 0.68662 0.91326 0.35757 0.0
C21 C 0.64526 0.84128 0.40102 0.0
O22 O 0.62532 0.85616 0.41266 0.0
C23 C 0.67631 0.90794 0.4459 0.0
O24 O 0.67687 0.8791 0.44667 0.0
O25 O 0.62282 0.90806 0.3745 0.0
C26 C 0.36298 0.46023 0.61422 0.0
O27 O 0.37663 0.4749 0.63398 0.0
O28 O 0.35991 0.41933 0.68366 0.0
Zn29 Zn 0.37833 0.41055 0.64712 0.0
O30 O 0.4182 0.42058 0.64927 0.0
C31 C 0.3525 0.35387 0.63748 0.0
O32 O 0.33006 0.36867 0.64252 0.0
O33 O 0.36086 0.43247 0.61562 0.0
C34 C 0.43413 0.40707 0.66579 0.0
O35 O 0.42384 0.38786 0.68275 0.0
C36 C 0.33611 0.43037 0.6841 0.0
O37 O 0.32394 0.4371 0.66042 0.0
O38 O 0.37528 0.36728 0.63829 0.0
C39 C 0.79712 0.08019 0.95261 0.0
O40 O 0.77687 0.07468 0.93484 0.0
O41 O 0.78963 0.0973 0.88122 0.0
Zn42 Zn 0.82035 0.11177 0.9065 0.0
O43 O 0.85573 0.09636 0.89162 0.0
C44 C 0.8097 0.17061 0.88824 0.0
O45 O 0.79421 0.15636 0.86969 0.0
O46 O 0.81682 0.09632 0.9453 0.0
C47 C 0.86575 0.10577 0.86924 0.0
O48 O 0.85247 0.12583 0.85517 0.0
C49 C 0.79028 0.07224 0.86887 0.0
O50 O 0.81114 0.05478 0.87343 0.0
O51 O 0.82232 0.1562 0.90689 0.0
C52 C 0.21706 0.4133 0.84904 0.0
O53 O 0.22476 0.39657 0.86973 0.0
O54 O 0.17028 0.42501 0.91244 0.0
Zn55 Zn 0.1647 0.40684 0.87399 0.0
O56 O 0.16686 0.36288 0.87563 0.0
C57 C 0.11565 0.44112 0.86281 0.0
O58 O 0.12917 0.46275 0.87551 0.0
O59 O 0.19223 0.42106 0.84698 0.0
C60 C 0.1506 0.34937 0.89122 0.0
O61 O 0.13386 0.3647 0.90697 0.0
C62 C 0.1844 0.44812 0.91732 0.0
O63 O 0.19661 0.46077 0.89658 0.0
O64 O 0.127 0.41618 0.85975 0.0
C65 C 0.82938 0.94529 0.19672 0.0
O66 O 0.81935 0.95983 0.17553 0.0
O67 O 0.85499 0.95308 0.12829 0.0
Zn68 Zn 0.86754 0.92292 0.15579 0.0
O69 O 0.85686 0.88254 0.14137 0.0
C70 C 0.92293 0.94423 0.14999 0.0
O71 O 0.91079 0.96628 0.1377 0.0
O72 O 0.85025 0.92917 0.19324 0.0
C73 C 0.86945 0.87045 0.12118 0.0
O74 O 0.88914 0.88498 0.10935 0.0
C75 C 0.83357 0.94951 0.11316 0.0
O76 O 0.81872 0.92568 0.11581 0.0
O77 O 0.90852 0.92386 0.15992 0.0
C78 C 0.30994 0.55968 0.43825 0.0
O79 O 0.30501 0.5427 0.4161 0.0
O80 O 0.28953 0.58689 0.37027 0.0
Zn81 Zn 0.31981 0.60166 0.39618 0.0
O82 O 0.35606 0.58721 0.38255 0.0
C83 C 0.30959 0.66077 0.37792 0.0
O84 O 0.29604 0.64679 0.35766 0.0
O85 O 0.31566 0.58662 0.43497 0.0
C86 C 0.36749 0.59791 0.36148 0.0
O87 O 0.35507 0.61871 0.34759 0.0
C88 C 0.29267 0.56504 0.35353 0.0
O89 O 0.31593 0.55075 0.35382 0.0
O90 O 0.32089 0.64605 0.39717 0.0
C91 C 0.66849 0.03821 0.70253 0.0
O92 O 0.67332 0.01698 0.68416 0.0
O93 O 0.65537 0.03585 0.62961 0.0
Zn94 Zn 0.6387 0.06516 0.65653 0.0
O95 O 0.64825 0.10634 0.64571 0.0
C96 C 0.586 0.04579 0.63559 0.0
O97 O 0.6009 0.03416 0.61567 0.0
O98 O 0.6538 0.05986 0.69539 0.0
C99 C 0.6388 0.11866 0.62404 0.0
O100 O 0.62156 0.10418 0.60738 0.0
C101 C 0.67364 0.04238 0.61234 0.0
O102 O 0.68361 0.06922 0.6126 0.0
O103 O 0.59769 0.06016 0.65563 0.0
C104 C 0.82716 0.46007 0.77804 0.0
O105 O 0.82127 0.47928 0.79798 0.0
O106 O 0.8483 0.46235 0.84972 0.0
Zn107 Zn 0.86094 0.43261 0.82093 0.0
O108 O 0.85002 0.39202 0.83222 0.0
C109 C 0.91504 0.45791 0.82458 0.0
O110 O 0.90155 0.48218 0.83041 0.0
O111 O 0.84386 0.43947 0.78315 0.0
C112 C 0.85985 0.38009 0.85392 0.0
O113 O 0.87785 0.39462 0.86967 0.0
C114 C 0.82873 0.45728 0.86595 0.0
O115 O 0.81547 0.43218 0.86342 0.0
O116 O 0.90186 0.43427 0.81917 0.0
C117 C 0.27909 0.06681 0.62865 0.0
O118 O 0.2728 0.08125 0.60599 0.0
O119 O 0.32272 0.05949 0.56906 0.0
Zn120 Zn 0.33171 0.07595 0.60758 0.0
O121 O 0.33032 0.1203 0.60825 0.0
C122 C 0.38342 0.04454 0.60658 0.0
O123 O 0.37226 0.03039 0.58495 0.0
O124 O 0.30401 0.06129 0.6341 0.0
C125 C 0.35199 0.13514 0.60497 0.0
O126 O 0.37497 0.12123 0.60022 0.0
C127 C 0.33008 0.07205 0.54702 0.0
O128 O 0.34364 0.09697 0.54922 0.0
O129 O 0.36956 0.06375 0.61978 0.0
C130 C 0.65694 0.55114 0.28185 0.0
O131 O 0.66547 0.53412 0.30198 0.0
O132 O 0.63328 0.54467 0.35134 0.0
Zn133 Zn 0.62044 0.57488 0.32402 0.0
O134 O 0.6313 0.61504 0.33879 0.0
C135 C 0.56481 0.55557 0.3325 0.0
O136 O 0.57676 0.53518 0.34733 0.0
O137 O 0.63761 0.5691 0.28644 0.0
C138 C 0.61969 0.62656 0.35989 0.0
O139 O 0.60064 0.61167 0.37236 0.0
C140 C 0.65533 0.54801 0.36549 0.0
O141 O 0.67058 0.5713 0.36162 0.0
O142 O 0.57941 0.57414 0.32012 0.0
C143 C 0.18687 0.93873 0.03611 0.0
O144 O 0.20433 0.94863 0.05532 0.0
O145 O 0.19727 0.91671 0.10624 0.0
Zn146 Zn 0.16654 0.90273 0.08071 0.0
O147 O 0.13077 0.91699 0.09571 0.0
C148 C 0.17711 0.84331 0.09758 0.0
O149 O 0.19111 0.857 0.1177 0.0
O150 O 0.16993 0.9188 0.04219 0.0
C151 C 0.12013 0.90587 0.11702 0.0
O152 O 0.13311 0.8849 0.13013 0.0
C153 C 0.19574 0.94027 0.12099 0.0
O154 O 0.17381 0.95671 0.1189 0.0
O155 O 0.16535 0.85834 0.07883 0.0
C156 C 0.7773 0.58814 0.12099 0.0
O157 O 0.76883 0.60403 0.09998 0.0
O158 O 0.82132 0.57619 0.05818 0.0
Zn159 Zn 0.82904 0.59637 0.09549 0.0
O160 O 0.82685 0.64054 0.09359 0.0
C161 C 0.87841 0.56188 0.10461 0.0
O162 O 0.86475 0.54061 0.0915 0.0
O163 O 0.80249 0.582 0.12335 0.0
C164 C 0.84715 0.65444 0.08427 0.0
O165 O 0.86813 0.63948 0.07487 0.0
C166 C 0.82038 0.58908 0.03493 0.0
O167 O 0.82407 0.61766 0.03439 0.0
O168 O 0.86704 0.58666 0.10867 0.0
C169 C 0.1495 0.04804 0.78394 0.0
O170 O 0.154 0.03057 0.80496 0.0
O171 O 0.12857 0.05357 0.85385 0.0
Zn172 Zn 0.11606 0.08051 0.82354 0.0
O173 O 0.12743 0.12175 0.83433 0.0
C174 C 0.06067 0.06038 0.83115 0.0
O175 O 0.07284 0.03894 0.84437 0.0
O176 O 0.13347 0.06978 0.787 0.0
C177 C 0.11776 0.13437 0.85596 0.0
O178 O 0.1004 0.12 0.87117 0.0
C179 C 0.15118 0.05755 0.86686 0.0
O180 O 0.16694 0.07958 0.86014 0.0
O181 O 0.07507 0.0799 0.81987 0.0
C182 C 0.69342 0.4221 0.52948 0.0
O183 O 0.71436 0.42734 0.54646 0.0
O184 O 0.70335 0.40373 0.60058 0.0
Zn185 Zn 0.67233 0.38899 0.57579 0.0
O186 O 0.63684 0.40178 0.59247 0.0
C187 C 0.68448 0.32982 0.59225 0.0
O188 O 0.69924 0.34385 0.61157 0.0
O189 O 0.67406 0.40583 0.53739 0.0
C190 C 0.63 0.39341 0.61648 0.0
O191 O 0.6468 0.37679 0.63081 0.0
C192 C 0.70222 0.42834 0.6137 0.0
O193 O 0.68069 0.44513 0.61023 0.0
O194 O 0.67187 0.34455 0.57383 0.0
C195 C 0.3242 0.95807 0.28354 0.0
O196 O 0.31715 0.97429 0.30532 0.0
O197 O 0.34708 0.95607 0.3543 0.0
Zn198 Zn 0.35822 0.92752 0.32389 0.0
O199 O 0.34548 0.88679 0.33264 0.0
C200 C 0.41296 0.95039 0.32858 0.0
O201 O 0.40009 0.97516 0.33395 0.0
O202 O 0.34183 0.93789 0.28662 0.0
C203 C 0.35425 0.87354 0.35407 0.0
O204 O 0.37189 0.88691 0.37113 0.0
C205 C 0.32715 0.95184 0.37029 0.0
O206 O 0.31205 0.92809 0.3666 0.0
O207 O 0.39918 0.92725 0.32274 0.0
H208 H 0.14666 0.80809 0.06137 0.0
H209 H 0.17047 0.66355 0.15061 0.0
H210 H 0.19838 0.80507 0.13536 0.0
H211 H 0.1185 0.66557 0.07675 0.0
H212 H 0.18263 0.71485 0.1438 0.0
H213 H 0.13799 0.75535 0.06497 0.0
C214 C 0.15635 0.79632 0.07826 0.0
C215 C 0.17317 0.81108 0.09818 0.0
C216 C 0.16863 0.70408 0.12901 0.0
C217 C 0.16322 0.75074 0.10249 0.0
C218 C 0.16164 0.67476 0.1329 0.0
C219 C 0.14331 0.66025 0.1143 0.0
C220 C 0.15718 0.71914 0.10638 0.0
C221 C 0.13263 0.6759 0.09167 0.0
C222 C 0.15135 0.76621 0.08032 0.0
C223 C 0.18519 0.79467 0.11959 0.0
N224 N 0.13965 0.70454 0.0884 0.0
N225 N 0.17988 0.76545 0.12124 0.0
H226 H 0.44578 0.90252 0.32004 0.0
H227 H 0.58201 0.98433 0.37564 0.0
H228 H 0.44858 0.99449 0.34484 0.0
H229 H 0.57714 0.89171 0.35372 0.0
H230 H 0.53395 0.98952 0.36167 0.0
H231 H 0.49479 0.89926 0.32911 0.0
C232 C 0.45672 0.9221 0.32722 0.0
C233 C 0.443 0.94878 0.33184 0.0
C234 C 0.54346 0.96809 0.35984 0.0
C235 C 0.49922 0.94516 0.34246 0.0
C236 C 0.57089 0.96511 0.36781 0.0
C237 C 0.5836 0.93752 0.36597 0.0
C238 C 0.52868 0.9433 0.34994 0.0
C239 C 0.56819 0.9134 0.35563 0.0
C240 C 0.48475 0.92021 0.33245 0.0
C241 C 0.45831 0.97344 0.34108 0.0
N242 N 0.54157 0.91685 0.34808 0.0
N243 N 0.48558 0.97099 0.34623 0.0
H244 H 0.30779 0.31739 0.63636 0.0
H245 H 0.39483 0.17305 0.59983 0.0
H246 H 0.3949 0.31736 0.62436 0.0
H247 H 0.3085 0.17123 0.61621 0.0
H248 H 0.39453 0.2264 0.60628 0.0
H249 H 0.30699 0.26428 0.6268 0.0
C250 C 0.32673 0.30626 0.63166 0.0
C251 C 0.35146 0.32186 0.63124 0.0
C252 C 0.37562 0.21438 0.60841 0.0
C253 C 0.35068 0.26111 0.62026 0.0
C254 C 0.37576 0.18387 0.60469 0.0
C255 C 0.35167 0.16761 0.60759 0.0
C256 C 0.35121 0.22882 0.61511 0.0
C257 C 0.32757 0.18288 0.61384 0.0
C258 C 0.32625 0.27593 0.62621 0.0
C259 C 0.37537 0.30626 0.625 0.0
N260 N 0.32797 0.21263 0.61748 0.0
N261 N 0.37437 0.27678 0.61979 0.0
H262 H 0.02874 0.10124 0.80509 0.0
H263 H 0.89631 0.061 0.89053 0.0
H264 H 0.02429 0.02737 0.85975 0.0
H265 H 0.89711 0.12731 0.82757 0.0
H266 H 0.94252 0.04685 0.87781 0.0
H267 H 0.97995 0.10954 0.81108 0.0
C268 C 0.01746 0.08658 0.81815 0.0
C269 C 0.03069 0.06372 0.83214 0.0
C270 C 0.93253 0.06434 0.86661 0.0
C271 C 0.97485 0.07326 0.83926 0.0
C272 C 0.90614 0.07249 0.87391 0.0
C273 C 0.8929 0.09556 0.86026 0.0
C274 C 0.94592 0.07953 0.84566 0.0
C275 C 0.90658 0.10949 0.83874 0.0
C276 C 0.98959 0.09134 0.82155 0.0
C277 C 0.015 0.04535 0.84867 0.0
N278 N 0.93245 0.10143 0.83227 0.0
N279 N 0.98797 0.0507 0.85198 0.0
H280 H 0.11745 0.31349 0.9208 0.0
H281 H 0.15502 0.16926 0.83065 0.0
H282 H 0.17894 0.31129 0.85738 0.0
H283 H 0.09753 0.16971 0.89789 0.0
H284 H 0.16551 0.22081 0.84164 0.0
H285 H 0.11151 0.26036 0.91445 0.0
C286 C 0.12987 0.30182 0.9057 0.0
C287 C 0.14858 0.31691 0.88945 0.0
C288 C 0.1507 0.20961 0.8541 0.0
C289 C 0.14175 0.2561 0.88195 0.0
C290 C 0.14466 0.18016 0.84781 0.0
C291 C 0.12523 0.16518 0.86326 0.0
C292 C 0.13712 0.22429 0.87593 0.0
C293 C 0.11258 0.18041 0.88535 0.0
C294 C 0.12644 0.27147 0.90206 0.0
C295 C 0.16417 0.3006 0.87027 0.0
N296 N 0.11863 0.20918 0.89091 0.0
N297 N 0.16026 0.27113 0.86691 0.0
H298 H 0.95476 0.90228 0.17456 0.0
H299 H 0.08957 0.95152 0.09744 0.0
H300 H 0.95961 0.97977 0.12458 0.0
H301 H 0.08768 0.88084 0.15592 0.0
H302 H 0.04257 0.96367 0.10898 0.0
H303 H 0.00392 0.89552 0.17 0.0
C304 C 0.96619 0.91803 0.16282 0.0
C305 C 0.95299 0.9415 0.14973 0.0
C306 C 0.05248 0.94565 0.11947 0.0
C307 C 0.00927 0.93376 0.14427 0.0
C308 C 0.07933 0.93866 0.11285 0.0
C309 C 0.0925 0.91495 0.12555 0.0
C310 C 0.03859 0.92867 0.13877 0.0
C311 C 0.07828 0.89922 0.14552 0.0
C312 C 0.99428 0.91416 0.16024 0.0
C313 C 0.96888 0.96128 0.13491 0.0
N314 N 0.052 0.90618 0.15132 0.0
N315 N 0.99613 0.9568 0.13237 0.0
H316 H 0.33942 0.69638 0.41429 0.0
H317 H 0.31789 0.83988 0.32302 0.0
H318 H 0.28915 0.69858 0.33923 0.0
H319 H 0.37013 0.83776 0.39668 0.0
H320 H 0.30479 0.78897 0.33056 0.0
H321 H 0.34841 0.74898 0.4102 0.0
C322 C 0.33011 0.70794 0.39706 0.0
C323 C 0.31362 0.69298 0.37698 0.0
C324 C 0.31904 0.79964 0.34515 0.0
C325 C 0.32394 0.75318 0.37211 0.0
C326 C 0.32656 0.82875 0.34085 0.0
C327 C 0.34529 0.84309 0.35916 0.0
C328 C 0.33035 0.78465 0.3679 0.0
C329 C 0.35572 0.82755 0.38197 0.0
C330 C 0.3353 0.73798 0.39471 0.0
C331 C 0.30209 0.70914 0.35513 0.0
N332 N 0.3482 0.79913 0.38562 0.0
N333 N 0.30757 0.73831 0.35322 0.0
H334 H 0.54826 0.0706 0.67064 0.0
H335 H 0.42035 0.009 0.57999 0.0
H336 H 0.55518 0.01459 0.59687 0.0
H337 H 0.41336 0.07155 0.64893 0.0
H338 H 0.46949 0.00662 0.58912 0.0
H339 H 0.49853 0.06731 0.66602 0.0
C340 C 0.53935 0.0575 0.65356 0.0
C341 C 0.55592 0.04301 0.634 0.0
C342 C 0.45719 0.02073 0.60237 0.0
C343 C 0.49905 0.03914 0.62861 0.0
C344 C 0.42909 0.02203 0.59722 0.0
C345 C 0.41271 0.04066 0.61359 0.0
C346 C 0.46903 0.03817 0.62405 0.0
C347 C 0.4252 0.05699 0.63567 0.0
C348 C 0.51095 0.05564 0.65093 0.0
C349 C 0.54323 0.02629 0.61234 0.0
N350 N 0.45263 0.0555 0.64014 0.0
N351 N 0.51558 0.0249 0.61018 0.0
H352 H 0.78599 0.2075 0.85075 0.0
H353 H 0.87804 0.34667 0.89745 0.0
H354 H 0.84437 0.20651 0.91951 0.0
H355 H 0.82177 0.34511 0.82682 0.0
H356 H 0.86403 0.29652 0.90796 0.0
H357 H 0.79662 0.25918 0.84404 0.0
C358 C 0.80093 0.21819 0.86458 0.0
C359 C 0.81442 0.20256 0.88563 0.0
C360 C 0.8547 0.30721 0.89022 0.0
C361 C 0.82685 0.26187 0.87793 0.0
C362 C 0.86269 0.33584 0.8842 0.0
C363 C 0.85117 0.35008 0.86112 0.0
C364 C 0.83503 0.29273 0.87307 0.0
C365 C 0.83132 0.33498 0.84474 0.0
C366 C 0.80704 0.24774 0.8607 0.0
C367 C 0.83352 0.21767 0.90297 0.0
N368 N 0.82395 0.30715 0.85099 0.0
N369 N 0.83928 0.24645 0.89863 0.0
H370 H 0.66023 0.66202 0.34105 0.0
H371 H 0.60855 0.80466 0.42498 0.0
H372 H 0.59446 0.66061 0.39974 0.0
H373 H 0.67953 0.80385 0.37291 0.0
H374 H 0.60458 0.75141 0.41807 0.0
H375 H 0.66904 0.71341 0.35432 0.0
C376 C 0.64772 0.67247 0.35685 0.0
C377 C 0.62642 0.65705 0.36914 0.0
C378 C 0.62116 0.76283 0.40835 0.0
C379 C 0.63636 0.71597 0.38437 0.0
C380 C 0.62345 0.79326 0.41228 0.0
C381 C 0.64427 0.80878 0.39931 0.0
C382 C 0.63971 0.74781 0.39115 0.0
C383 C 0.66307 0.79282 0.38321 0.0
C384 C 0.65281 0.70182 0.36445 0.0
C385 C 0.61102 0.67168 0.38962 0.0
N386 N 0.66019 0.76325 0.37939 0.0
N387 N 0.61615 0.70039 0.39643 0.0
H388 H 0.88552 0.69066 0.06264 0.0
H389 H 0.82822 0.83522 0.13905 0.0
H390 H 0.81104 0.69227 0.10937 0.0
H391 H 0.89669 0.83543 0.08364 0.0
H392 H 0.82048 0.78331 0.12699 0.0
H393 H 0.88886 0.74403 0.06855 0.0
C394 C 0.86975 0.70226 0.07399 0.0
C395 C 0.84807 0.68694 0.08571 0.0
C396 C 0.83707 0.79476 0.11731 0.0
C397 C 0.85187 0.74809 0.09271 0.0
C398 C 0.84154 0.82441 0.12421 0.0
C399 C 0.86328 0.83966 0.1125 0.0
C400 C 0.85459 0.78015 0.0987 0.0
C401 C 0.87976 0.82454 0.09327 0.0
C402 C 0.87166 0.73276 0.07733 0.0
C403 C 0.82816 0.70316 0.10007 0.0
N404 N 0.87521 0.79557 0.08715 0.0
N405 N 0.83067 0.73283 0.10337 0.0
H406 H 0.65184 0.29407 0.55857 0.0
H407 H 0.67602 0.15325 0.65282 0.0
H408 H 0.70723 0.29234 0.62983 0.0
H409 H 0.62123 0.15318 0.58101 0.0
H410 H 0.68923 0.20357 0.64305 0.0
H411 H 0.64221 0.2418 0.56454 0.0
C412 C 0.66216 0.28266 0.57532 0.0
C413 C 0.68026 0.29768 0.59384 0.0
C414 C 0.67438 0.19257 0.62935 0.0
C415 C 0.66918 0.23793 0.60088 0.0
C416 C 0.66677 0.1638 0.63495 0.0
C417 C 0.64735 0.14899 0.6178 0.0
C418 C 0.66246 0.20681 0.60647 0.0
C419 C 0.6362 0.16378 0.59485 0.0
C420 C 0.6566 0.25283 0.57875 0.0
C421 C 0.69304 0.28175 0.61513 0.0
N422 N 0.64383 0.19193 0.58992 0.0
N423 N 0.68714 0.25283 0.61815 0.0
H424 H 0.08245 0.40085 0.83564 0.0
H425 H 0.94972 0.50292 0.84076 0.0
H426 H 0.08331 0.49004 0.86893 0.0
H427 H 0.94911 0.41181 0.81293 0.0
H428 H -0.0007 0.50036 0.84712 0.0
H429 H 0.03434 0.40628 0.82312 0.0
C430 C 0.07257 0.42166 0.84021 0.0
C431 C 0.08693 0.44497 0.85356 0.0
C432 C 0.98832 0.481 0.83946 0.0
C433 C 0.03164 0.45129 0.83931 0.0
C434 C 0.96001 0.48244 0.83578 0.0
C435 C 0.94519 0.45747 0.82648 0.0
C436 C 0.00191 0.4544 0.83378 0.0
C437 C 0.95964 0.43156 0.8203 0.0
C438 C 0.04504 0.42474 0.83305 0.0
C439 C 0.07302 0.47145 0.85879 0.0
N440 N 0.98715 0.43068 0.82419 0.0
N441 N 0.04609 0.47385 0.85179 0.0
H442 H 0.53339 0.59548 0.3045 0.0
H443 H 0.39739 0.55305 0.38354 0.0
H444 H 0.52779 0.5231 0.36079 0.0
H445 H 0.4009 0.62094 0.32226 0.0
H446 H 0.44444 0.53988 0.37329 0.0
H447 H 0.48428 0.60321 0.3084 0.0
C448 C 0.52181 0.58104 0.3175 0.0
C449 C 0.53478 0.55875 0.33253 0.0
C450 C 0.43488 0.55753 0.36193 0.0
C451 C 0.47856 0.56761 0.33722 0.0
C452 C 0.408 0.5651 0.3678 0.0
C453 C 0.39525 0.58832 0.35391 0.0
C454 C 0.44924 0.5734 0.34214 0.0
C455 C 0.40996 0.60298 0.33358 0.0
C456 C 0.49375 0.58548 0.31972 0.0
C457 C 0.5187 0.54066 0.34894 0.0
N458 N 0.43626 0.59544 0.32847 0.0
N459 N 0.49149 0.54564 0.35103 0.0
H460 H 0.59159 0.42979 0.59375 0.0
H461 H 0.47439 0.37936 0.69568 0.0
H462 H 0.60581 0.37274 0.66328 0.0
H463 H 0.46205 0.44128 0.62972 0.0
H464 H 0.52335 0.38002 0.68695 0.0
H465 H 0.54495 0.4375 0.60921 0.0
C466 C 0.58497 0.41904 0.6124 0.0
C467 C 0.60256 0.40034 0.62708 0.0
C468 C 0.50996 0.39369 0.67458 0.0
C469 C 0.54906 0.40897 0.64483 0.0
C470 C 0.48199 0.39335 0.67958 0.0
C471 C 0.46403 0.41003 0.6632 0.0
C472 C 0.52004 0.41071 0.65295 0.0
C473 C 0.47508 0.42786 0.64272 0.0
C474 C 0.55832 0.42349 0.62124 0.0
C475 C 0.59291 0.3872 0.65122 0.0
N476 N 0.50232 0.4275 0.638 0.0
N477 N 0.56672 0.39154 0.65919 0.0
H478 H 0.04521 0.59406 0.15755 0.0
H479 H 0.91059 0.51304 0.09702 0.0
H480 H 0.0449 0.50525 0.12331 0.0
H481 H 0.91208 0.6016 0.1319 0.0
H482 H 0.9591 0.50829 0.10924 0.0
H483 H 0.99575 0.5957 0.15122 0.0
C484 C 0.03472 0.57482 0.14885 0.0
C485 C 0.04926 0.54955 0.14077 0.0
C486 C 0.94874 0.52869 0.11435 0.0
C487 C 0.99253 0.55134 0.1333 0.0
C488 C 0.92105 0.53141 0.10739 0.0
C489 C 0.90728 0.55782 0.11328 0.0
C490 C 0.96275 0.55256 0.12726 0.0
C491 C 0.92186 0.58087 0.12681 0.0
C492 C 0.00645 0.57577 0.14522 0.0
C493 C 0.03454 0.52524 0.12974 0.0
N494 N 0.94879 0.57774 0.1332 0.0
N495 N 0.00698 0.5268 0.12615 0.0
H496 H 0.14267 0.50153 0.08495 0.0
H497 H 0.21263 0.49732 0.93559 0.0
H498 H 0.20338 0.56445 0.0608 0.0
H499 H 0.15824 0.42989 0.96381 0.0
H500 H 0.21127 0.52111 0.98196 0.0
H501 H 0.14988 0.47378 0.04144 0.0
C502 C 0.15767 0.50941 0.07058 0.0
C503 C 0.17231 0.53548 0.07644 0.0
C504 C 0.1998 0.501 0.97805 0.0
C505 C 0.18054 0.50388 0.02642 0.0
C506 C 0.20054 0.48741 0.95157 0.0
C507 C 0.18537 0.46169 0.94573 0.0
C508 C 0.18364 0.48886 -0.00121 0.0
C509 C 0.17016 0.44977 0.96729 0.0
C510 C 0.16179 0.49354 0.04572 0.0
C511 C 0.19158 0.54453 0.0571 0.0
N512 N 0.16954 0.46356 -0.00722 0.0
N513 N 0.19498 0.52888 0.03283 0.0
H514 H 0.69959 0.94196 0.3146 0.0
H515 H 0.84472 0.91833 0.24509 0.0
H516 H 0.76682 0.898 0.35547 0.0
H517 H 0.78037 0.97079 0.20898 0.0
H518 H 0.81762 0.91311 0.28696 0.0
H519 H 0.72976 0.95491 0.27687 0.0
C520 C 0.72075 0.93513 0.31571 0.0
C521 C 0.73065 0.91864 0.33811 0.0
C522 C 0.80954 0.926 0.26998 0.0
C523 C 0.76531 0.93335 0.2949 0.0
C524 C 0.825 0.929 0.24606 0.0
C525 C 0.81467 0.94478 0.22337 0.0
C526 C 0.78347 0.93869 0.27115 0.0
C527 C 0.78908 0.95827 0.22588 0.0
C528 C 0.73799 0.94261 0.29418 0.0
C529 C 0.75829 0.91061 0.33854 0.0
N530 N 0.77424 0.95467 0.24922 0.0
N531 N 0.77461 0.91784 0.31712 0.0
H532 H 0.33355 0.43634 0.57003 0.0
H533 H 0.32575 0.58702 0.48773 0.0
H534 H 0.36502 0.5191 0.60336 0.0
H535 H 0.3001 0.50281 0.45247 0.0
H536 H 0.33496 0.56376 0.53238 0.0
H537 H 0.31624 0.46153 0.52896 0.0
C538 C 0.33672 0.45985 0.56879 0.0
C539 C 0.351 0.47559 0.59006 0.0
C540 C 0.3271 0.55043 0.51494 0.0
C541 C 0.33122 0.50458 0.54301 0.0
C542 C 0.32175 0.56371 0.48944 0.0
C543 C 0.31241 0.54677 0.46622 0.0
C544 C 0.32308 0.52 0.51723 0.0
C545 C 0.30751 0.51668 0.46973 0.0
C546 C 0.3268 0.47423 0.54531 0.0
C547 C 0.3543 0.50605 0.58738 0.0
N548 N 0.31311 0.50423 0.49468 0.0
N549 N 0.34463 0.51953 0.56418 0.0
H550 H 0.70626 -0.00072 0.72284 0.0
H551 H 0.74375 0.10243 0.85582 0.0
H552 H 0.663 0.07888 0.74513 0.0
H553 H 0.78802 0.02333 0.83413 0.0
H554 H 0.71079 0.09088 0.8183 0.0
H555 H 0.73306 0.00437 0.76637 0.0
C556 C 0.70217 0.01764 0.73701 0.0
C557 C 0.68257 0.03888 0.73016 0.0
C558 C 0.72758 0.0759 0.82185 0.0
C559 C 0.71326 0.04491 0.77989 0.0
C560 C 0.74644 0.08249 0.8433 0.0
C561 C 0.76886 0.06397 0.84794 0.0
C562 C 0.7312 0.05068 0.80476 0.0
C563 C 0.77115 0.03833 0.83117 0.0
C564 C 0.71752 0.02055 0.76184 0.0
C565 C 0.67808 0.06212 0.74939 0.0
N566 N 0.75269 0.03258 0.81014 0.0
N567 N 0.69347 0.06464 0.77323 0.0
H568 H 0.79753 0.44821 0.91176 0.0
H569 H 0.82904 0.60672 0.98155 0.0
H570 H 0.8464 0.51416 0.87278 0.0
H571 H 0.80442 0.53159 0.02843 0.0
H572 H 0.82712 0.57612 0.93872 0.0
H573 H 0.79149 0.48187 0.95187 0.0
C574 C 0.80673 0.46988 0.91149 0.0
C575 C 0.8227 0.47831 0.88902 0.0
C576 C 0.82197 0.56643 0.95838 0.0
C577 C 0.81583 0.51685 0.93475 0.0
C578 C 0.82297 0.58388 0.98281 0.0
C579 C 0.81713 0.57161 0.00862 0.0
C580 C 0.8148 0.5366 0.95976 0.0
C581 C 0.80935 0.54189 0.009 0.0
C582 C 0.80337 0.489 0.93443 0.0
C583 C 0.83414 0.50666 0.88979 0.0
N584 N 0.80848 0.52537 0.98494 0.0
N585 N 0.83055 0.5249 0.91234 0.0
H586 H 0.1934 0.0122 0.77455 0.0
H587 H 0.22509 0.08189 0.62687 0.0
H588 H 0.14234 0.0769 0.73489 0.0
H589 H 0.28437 0.03408 0.67572 0.0
H590 H 0.19097 0.07244 0.66208 0.0
H591 H 0.22311 0.01212 0.73409 0.0
C592 C 0.18822 0.0261 0.75719 0.0
C593 C 0.16554 0.04487 0.75824 0.0
C594 C 0.2114 0.06385 0.66498 0.0
C595 C 0.19947 0.04491 0.712 0.0
C596 C 0.23089 0.06918 0.64487 0.0
C597 C 0.25772 0.05906 0.64854 0.0
C598 C 0.21874 0.04815 0.68885 0.0
C599 C 0.264 0.04257 0.67221 0.0
C600 C 0.20526 0.02612 0.73417 0.0
C601 C 0.15979 0.06233 0.7351 0.0
N602 N 0.24469 0.03777 0.69156 0.0
N603 N 0.17675 0.06207 0.71301 0.0
H604 H 0.6279 0.49815 0.37935 0.0
H605 H 0.72796 0.46316 0.50839 0.0
H606 H 0.70023 0.54903 0.40061 0.0
H607 H 0.65296 0.41604 0.4895 0.0
H608 H 0.72084 0.49151 0.46615 0.0
H609 H 0.63939 0.46471 0.41683 0.0
C610 C 0.6463 0.50221 0.3918 0.0
C611 C 0.66302 0.52658 0.38696 0.0
C612 C 0.70605 0.47482 0.47115 0.0
C613 C 0.67627 0.48836 0.43002 0.0
C614 C 0.71013 0.45856 0.49524 0.0
C615 C 0.6909 0.43736 0.50264 0.0
C616 C 0.68258 0.46982 0.45435 0.0
C617 C 0.66822 0.43231 0.48475 0.0
C618 C 0.65284 0.48309 0.41322 0.0
C619 C 0.68666 0.53063 0.40369 0.0
N620 N 0.66462 0.44855 0.46155 0.0
N621 N 0.6925 0.51181 0.42458 0.0
H622 H 0.3329 0.9271 0.23476 0.0
H623 H 0.19662 0.98524 0.16031 0.0
H624 H 0.28134 0.99437 0.27082 0.0
H625 H 0.24441 0.91219 0.1292 0.0
H626 H 0.23099 0.99405 0.19736 0.0
H627 H 0.30444 0.92683 0.19238 0.0
C628 C 0.31576 0.94205 0.23367 0.0
C629 C 0.30928 0.96051 0.25654 0.0
C630 C 0.23405 0.97626 0.18227 0.0
C631 C 0.27647 0.96015 0.20807 0.0
C632 C 0.21446 0.97123 0.16109 0.0
C633 C 0.2175 0.94773 0.14181 0.0
C634 C 0.25684 0.95767 0.18415 0.0
C635 C 0.24108 0.93039 0.14377 0.0
C636 C 0.29947 0.94184 0.20945 0.0
C637 C 0.28695 0.97959 0.2538 0.0
N638 N 0.25973 0.93558 0.16468 0.0
N639 N 0.27117 0.9787 0.2301 0.0
H640 H 0.70034 0.05295 0.56391 0.0
H641 H 0.67663 0.89028 0.50022 0.0
H642 H 0.66247 0.98341 0.60927 0.0
H643 H 0.68731 0.96681 0.44997 0.0
H644 H 0.68136 0.92169 0.54244 0.0
H645 H 0.70599 0.01873 0.52416 0.0
C646 C 0.69359 0.03038 0.56568 0.0
C647 C 0.68062 0.02109 0.5898 0.0
C648 C 0.68288 0.9315 0.52214 0.0
C649 C 0.68701 0.98195 0.54446 0.0
C650 C 0.68025 0.91362 0.49807 0.0
C651 C 0.68128 0.92603 0.47157 0.0
C652 C 0.68689 0.9619 0.51964 0.0
C653 C 0.68606 0.95639 0.46999 0.0
C654 C 0.69671 0.01094 0.54294 0.0
C655 C 0.6723 0.99158 0.59094 0.0
N656 N 0.68861 0.9733 0.4937 0.0
N657 N 0.6755 0.97308 0.56851 0.0
H658 H 0.35223 0.41178 0.73594 0.0
H659 H 0.20748 0.44696 0.80334 0.0
H660 H 0.28584 0.45454 0.69254 0.0
H661 H 0.2707 0.39711 0.84458 0.0
H662 H 0.23834 0.45564 0.76504 0.0
H663 H 0.32506 0.41192 0.77826 0.0
C664 C 0.33206 0.42146 0.73537 0.0
C665 C 0.32117 0.43289 0.71057 0.0
C666 C 0.24555 0.44296 0.78254 0.0
C667 C 0.28998 0.43303 0.75888 0.0
C668 C 0.22793 0.43801 0.80446 0.0
C669 C 0.23642 0.42099 0.82707 0.0
C670 C 0.27185 0.43077 0.78316 0.0
C671 C 0.26323 0.41016 0.82746 0.0
C672 C 0.31654 0.42147 0.75953 0.0
C673 C 0.29496 0.44524 0.71109 0.0
N674 N 0.27993 0.41504 0.80571 0.0
N675 N 0.2802 0.4448 0.73479 0.0
H676 H 0.76223 0.03858 0.97214 0.0
H677 H 0.86028 0.00061 0.10185 0.0
H678 H 0.83633 0.08616 -0.00608 0.0
H679 H 0.78955 0.94878 0.07688 0.0
H680 H 0.84884 0.03546 0.06555 0.0
H681 H 0.76876 0.00909 0.01372 0.0
C682 C 0.77971 0.04307 0.98582 0.0
C683 C 0.79892 0.06468 0.97937 0.0
C684 C 0.83572 0.01655 0.06809 0.0
C685 C 0.80658 0.03088 0.02688 0.0
C686 C 0.84225 0.99662 0.08883 0.0
C687 C 0.82597 0.97159 0.09226 0.0
C688 C 0.81276 0.01145 0.05059 0.0
C689 C 0.80278 0.96767 0.07486 0.0
C690 C 0.78346 0.02615 0.00951 0.0
C691 C 0.82111 0.06957 -0.00208 0.0
N692 N 0.79695 0.98731 0.05466 0.0
N693 N 0.82444 0.05266 0.0207 0.0
H694 H 0.21151 0.50775 0.2002 0.0
H695 H 0.24226 0.59009 0.34699 0.0
H696 H 0.15981 0.57491 0.23625 0.0
H697 H 0.2944 0.52299 0.31155 0.0
H698 H 0.20914 0.58065 0.30906 0.0
H699 H 0.23928 0.50873 0.24323 0.0
C700 C 0.2058 0.52246 0.21726 0.0
C701 C 0.18349 0.54154 0.21447 0.0
C702 C 0.22772 0.5678 0.30969 0.0
C703 C 0.21528 0.5429 0.26369 0.0
C704 C 0.24665 0.57318 0.33137 0.0
C705 C 0.27129 0.55752 0.33229 0.0
C706 C 0.23348 0.54671 0.28866 0.0
C707 C 0.27577 0.53574 0.31156 0.0
C708 C 0.2217 0.52305 0.24181 0.0
C709 C 0.17699 0.56002 0.23733 0.0
N710 N 0.25716 0.53117 0.29045 0.0
N711 N 0.19295 0.56043 0.26085 0.0
H712 H 0.34784 0.0896 0.49618 0.0
H713 H 0.29311 0.94473 0.41441 0.0
H714 H 0.30164 0.02124 0.53489 0.0
H715 H 0.35135 0.00525 0.38101 0.0
H716 H 0.28985 0.97657 0.45621 0.0
H717 H 0.34312 0.0629 0.45139 0.0
C718 C 0.33651 0.0691 0.49524 0.0
C719 C 0.32538 0.05747 0.51939 0.0
C720 C 0.30317 0.98297 0.43962 0.0
C721 C 0.31994 0.0268 0.46819 0.0
C722 C 0.30498 0.96486 0.41572 0.0
C723 C 0.32275 0.97219 0.39433 0.0
C724 C 0.31915 0.00863 0.44205 0.0
C725 C 0.3376 0.99858 0.39712 0.0
C726 C 0.33387 0.05384 0.46966 0.0
C727 C 0.31078 0.03089 0.51686 0.0
N728 N 0.33558 0.01575 0.42061 0.0
N729 N 0.30862 0.01636 0.49174 0.0
H730 H 0.78728 0.55145 0.16441 0.0
H731 H 0.64392 0.58238 0.23529 0.0
H732 H 0.72351 0.60322 0.12638 0.0
H733 H 0.70397 0.5223 0.26802 0.0
H734 H 0.67153 0.58798 0.19384 0.0
H735 H 0.75607 0.53846 0.20125 0.0
C736 C 0.76666 0.55998 0.16372 0.0
C737 C 0.75806 0.57867 0.1424 0.0
C738 C 0.67855 0.57335 0.20996 0.0
C739 C 0.72222 0.56394 0.18461 0.0
C740 C 0.66279 0.57013 0.23365 0.0
C741 C 0.67178 0.55206 0.2553 0.0
C742 C 0.7036 0.55858 0.20799 0.0
C743 C 0.69631 0.5366 0.25194 0.0
C744 C 0.74882 0.55249 0.18475 0.0
C745 C 0.73105 0.58887 0.14248 0.0
N746 N 0.7115 0.54045 0.22887 0.0
N747 N 0.71416 0.58157 0.1634 0.0
H748 H 0.15161 0.92515 -0.00738 0.0
H749 H 0.19575 0.06239 0.90225 0.0
H750 H 0.21713 0.98466 0.01712 0.0
H751 H 0.12491 0.00815 0.88367 0.0
H752 H 0.20723 0.03097 0.94149 0.0
H753 H 0.14522 0.95188 0.94948 0.0
C754 C 0.16483 0.94369 0.98884 0.0
C755 C 0.18478 0.95285 0.00867 0.0
C756 C 0.18926 0.02589 0.92873 0.0
C757 C 0.17742 0.98369 0.9593 0.0
C758 C 0.18269 0.04379 0.90632 0.0
C759 C 0.15922 0.03801 0.88978 0.0
C760 C 0.17227 0.00199 0.93458 0.0
C761 C 0.1431 0.01357 0.89597 0.0
C762 C 0.16111 0.959 0.9642 0.0
C763 C 0.20138 0.97694 0.00251 0.0
N764 N 0.14988 0.99654 0.91792 0.0
N765 N 0.19721 0.99167 0.97845 0.0
H766 H 0.75037 0.4 0.62412 0.0
H767 H 0.78617 0.49718 0.76141 0.0
H768 H 0.70328 0.47553 0.65058 0.0
H769 H 0.83385 0.42292 0.73285 0.0
H770 H 0.75832 0.49299 0.7185 0.0
H771 H 0.78376 0.41133 0.66131 0.0
C772 C 0.74715 0.41912 0.63762 0.0
C773 C 0.72383 0.43667 0.63441 0.0
C774 C 0.77505 0.4778 0.72152 0.0
C775 C 0.76197 0.44969 0.67722 0.0
C776 C 0.79099 0.48021 0.74601 0.0
C777 C 0.81218 0.46015 0.7509 0.0
C778 C 0.7803 0.45513 0.70186 0.0
C779 C 0.81756 0.43869 0.73013 0.0
C780 C 0.76625 0.42559 0.65887 0.0
C781 C 0.72087 0.46129 0.6524 0.0
N782 N 0.80157 0.4366 0.70666 0.0
N783 N 0.73958 0.46691 0.67322 0.0
loop_
_geom_bond_atom_site_label_1
_geom_bond_atom_site_label_2
_geom_bond_distance
_geom_bond_site_symmetry_2
_ccdc_geom_bond_type
C0 O1 1.160 . S
C0 O7 1.185 . S
O1 C0 1.160 . S
O2 Zn3 1.899 . S
O2 C10 1.284 . S
Zn3 O2 1.899 . S
Zn3 O4 2.032 . S
Zn3 O7 2.086 . S
Zn3 O12 1.977 . S
O4 Zn3 2.032 . S
O4 C8 1.278 . S
C5 O6 1.203 . S
C5 O12 1.267 . S
O6 C5 1.203 . S
O7 C0 1.185 . S
O7 Zn3 2.086 . S
C8 O4 1.278 . S
C8 O9 1.211 . S
O9 C8 1.211 . S
C10 O2 1.284 . S
C10 O11 1.273 . S
O11 C10 1.273 . S
O12 Zn3 1.977 . S
O12 C5 1.267 . S
C13 O14 1.160 . S
C13 O20 1.185 . S
O14 C13 1.160 . S
O15 Zn16 1.899 . S
O15 C23 1.284 . S
Zn16 O15 1.899 . S
Zn16 O17 2.032 . S
Zn16 O20 2.086 . S
Zn16 O25 1.977 . S
O17 Zn16 2.032 . S
O17 C21 1.278 . S
C18 O19 1.203 . S
C18 O25 1.267 . S
O19 C18 1.203 . S
O20 C13 1.185 . S
O20 Zn16 2.086 . S
C21 O17 1.278 . S
C21 O22 1.211 . S
O22 C21 1.211 . S
C23 O15 1.284 . S
C23 O24 1.273 . S
O24 C23 1.273 . S
O25 Zn16 1.977 . S
O25 C18 1.267 . S
C26 O27 1.160 . S
C26 O33 1.185 . S
O27 C26 1.160 . S
O28 Zn29 1.899 . S
O28 C36 1.284 . S
Zn29 O28 1.899 . S
Zn29 O30 2.032 . S
Zn29 O33 2.086 . S
Zn29 O38 1.977 . S
O30 Zn29 2.032 . S
O30 C34 1.278 . S
C31 O32 1.203 . S
C31 O38 1.267 . S
O32 C31 1.203 . S
O33 C26 1.185 . S
O33 Zn29 2.086 . S
C34 O30 1.278 . S
C34 O35 1.211 . S
O35 C34 1.211 . S
C36 O28 1.284 . S
C36 O37 1.273 . S
O37 C36 1.273 . S
O38 Zn29 1.977 . S
O38 C31 1.267 . S
C39 O40 1.160 . S
C39 O46 1.185 . S
O40 C39 1.160 . S
O41 Zn42 1.899 . S
O41 C49 1.284 . S
Zn42 O41 1.899 . S
Zn42 O43 2.032 . S
Zn42 O46 2.086 . S
Zn42 O51 1.977 . S
O43 Zn42 2.032 . S
O43 C47 1.278 . S
C44 O45 1.203 . S
C44 O51 1.267 . S
O45 C44 1.203 . S
O46 C39 1.185 . S
O46 Zn42 2.086 . S
C47 O43 1.278 . S
C47 O48 1.211 . S
O48 C47 1.211 . S
C49 O41 1.284 . S
C49 O50 1.273 . S
O50 C49 1.273 . S
O51 Zn42 1.977 . S
O51 C44 1.267 . S
C52 O53 1.160 . S
C52 O59 1.185 . S
O53 C52 1.160 . S
O54 Zn55 1.899 . S
O54 C62 1.284 . S
Zn55 O54 1.899 . S
Zn55 O56 2.032 . S
Zn55 O59 2.086 . S
Zn55 O64 1.977 . S
O56 Zn55 2.032 . S
O56 C60 1.278 . S
C57 O58 1.203 . S
C57 O64 1.267 . S
O58 C57 1.203 . S
O59 C52 1.185 . S
O59 Zn55 2.086 . S
C60 O56 1.278 . S
C60 O61 1.211 . S
O61 C60 1.211 . S
C62 O54 1.284 . S
C62 O63 1.273 . S
O63 C62 1.273 . S
O64 Zn55 1.977 . S
O64 C57 1.267 . S
C65 O66 1.160 . S
C65 O72 1.185 . S
O66 C65 1.160 . S
O67 Zn68 1.899 . S
O67 C75 1.284 . S
Zn68 O67 1.899 . S
Zn68 O69 2.032 . S
Zn68 O72 2.086 . S
Zn68 O77 1.977 . S
O69 Zn68 2.032 . S
O69 C73 1.278 . S
C70 O71 1.203 . S
C70 O77 1.267 . S
O71 C70 1.203 . S
O72 C65 1.185 . S
O72 Zn68 2.086 . S
C73 O69 1.278 . S
C73 O74 1.211 . S
O74 C73 1.211 . S
C75 O67 1.284 . S
C75 O76 1.273 . S
O76 C75 1.273 . S
O77 Zn68 1.977 . S
O77 C70 1.267 . S
C78 O79 1.160 . S
C78 O85 1.185 . S
O79 C78 1.160 . S
O80 Zn81 1.899 . S
O80 C88 1.284 . S
Zn81 O80 1.899 . S
Zn81 O82 2.032 . S
Zn81 O85 2.086 . S
Zn81 O90 1.977 . S
O82 Zn81 2.032 . S
O82 C86 1.278 . S
C83 O84 1.203 . S
C83 O90 1.267 . S
O84 C83 1.203 . S
O85 C78 1.185 . S
O85 Zn81 2.086 . S
C86 O82 1.278 . S
C86 O87 1.211 . S
O87 C86 1.211 . S
C88 O80 1.284 . S
C88 O89 1.273 . S
O89 C88 1.273 . S
O90 Zn81 1.977 . S
O90 C83 1.267 . S
C91 O92 1.160 . S
C91 O98 1.185 . S
O92 C91 1.160 . S
O93 Zn94 1.899 . S
O93 C101 1.284 . S
Zn94 O93 1.899 . S
Zn94 O95 2.032 . S
Zn94 O98 2.086 . S
Zn94 O103 1.977 . S
O95 Zn94 2.032 . S
O95 C99 1.278 . S
C96 O97 1.203 . S
C96 O103 1.267 . S
O97 C96 1.203 . S
O98 C91 1.185 . S
O98 Zn94 2.086 . S
C99 O95 1.278 . S
C99 O100 1.211 . S
O100 C99 1.211 . S
C101 O93 1.284 . S
C101 O102 1.273 . S
O102 C101 1.273 . S
O103 Zn94 1.977 . S
O103 C96 1.267 . S
C104 O105 1.160 . S
C104 O111 1.185 . S
O105 C104 1.160 . S
O106 Zn107 1.899 . S
O106 C114 1.284 . S
Zn107 O106 1.899 . S
Zn107 O108 2.032 . S
Zn107 O111 2.086 . S
Zn107 O116 1.977 . S
O108 Zn107 2.032 . S
O108 C112 1.278 . S
C109 O110 1.203 . S
C109 O116 1.267 . S
O110 C109 1.203 . S
O111 C104 1.185 . S
O111 Zn107 2.086 . S
C112 O108 1.278 . S
C112 O113 1.211 . S
O113 C112 1.211 . S
C114 O106 1.284 . S
C114 O115 1.273 . S
O115 C114 1.273 . S
O116 Zn107 1.977 . S
O116 C109 1.267 . S
C117 O118 1.160 . S
C117 O124 1.185 . S
O118 C117 1.160 . S
O119 Zn120 1.899 . S
O119 C127 1.284 . S
Zn120 O119 1.899 . S
Zn120 O121 2.032 . S
Zn120 O124 2.086 . S
Zn120 O129 1.977 . S
O121 Zn120 2.032 . S
O121 C125 1.278 . S
C122 O123 1.203 . S
C122 O129 1.267 . S
O123 C122 1.203 . S
O124 C117 1.185 . S
O124 Zn120 2.086 . S
C125 O121 1.278 . S
C125 O126 1.211 . S
O126 C125 1.211 . S
C127 O119 1.284 . S
C127 O128 1.273 . S
O128 C127 1.273 . S
O129 Zn120 1.977 . S
O129 C122 1.267 . S
C130 O131 1.160 . S
C130 O137 1.185 . S
O131 C130 1.160 . S
O132 Zn133 1.899 . S
O132 C140 1.284 . S
Zn133 O132 1.899 . S
Zn133 O134 2.032 . S
Zn133 O137 2.086 . S
Zn133 O142 1.977 . S
O134 Zn133 2.032 . S
O134 C138 1.278 . S
C135 O136 1.203 . S
C135 O142 1.267 . S
O136 C135 1.203 . S
O137 C130 1.185 . S
O137 Zn133 2.086 . S
C138 O134 1.278 . S
C138 O139 1.211 . S
O139 C138 1.211 . S
C140 O132 1.284 . S
C140 O141 1.273 . S
O141 C140 1.273 . S
O142 Zn133 1.977 . S
O142 C135 1.267 . S
C143 O144 1.160 . S
C143 O150 1.185 . S
O144 C143 1.160 . S
O145 Zn146 1.899 . S
O145 C153 1.284 . S
Zn146 O145 1.899 . S
Zn146 O147 2.032 . S
Zn146 O150 2.086 . S
Zn146 O155 1.977 . S
O147 Zn146 2.032 . S
O147 C151 1.278 . S
C148 O149 1.203 . S
C148 O155 1.267 . S
O149 C148 1.203 . S
O150 C143 1.185 . S
O150 Zn146 2.086 . S
C151 O147 1.278 . S
C151 O152 1.211 . S
O152 C151 1.211 . S
C153 O145 1.284 . S
C153 O154 1.273 . S
O154 C153 1.273 . S
O155 Zn146 1.977 . S
O155 C148 1.267 . S
C156 O157 1.160 . S
C156 O163 1.185 . S
O157 C156 1.160 . S
O158 Zn159 1.899 . S
O158 C166 1.284 . S
Zn159 O158 1.899 . S
Zn159 O160 2.032 . S
Zn159 O163 2.086 . S
Zn159 O168 1.977 . S
O160 Zn159 2.032 . S
O160 C164 1.278 . S
C161 O162 1.203 . S
C161 O168 1.267 . S
O162 C161 1.203 . S
O163 C156 1.185 . S
O163 Zn159 2.086 . S
C164 O160 1.278 . S
C164 O165 1.211 . S
O165 C164 1.211 . S
C166 O158 1.284 . S
C166 O167 1.273 . S
O167 C166 1.273 . S
O168 Zn159 1.977 . S
O168 C161 1.267 . S
C169 O170 1.160 . S
C169 O176 1.185 . S
O170 C169 1.160 . S
O171 Zn172 1.899 . S
O171 C179 1.284 . S
Zn172 O171 1.899 . S
Zn172 O173 2.032 . S
Zn172 O176 2.086 . S
Zn172 O181 1.977 . S
O173 Zn172 2.032 . S
O173 C177 1.278 . S
C174 O175 1.203 . S
C174 O181 1.267 . S
O175 C174 1.203 . S
O176 C169 1.185 . S
O176 Zn172 2.086 . S
C177 O173 1.278 . S
C177 O178 1.211 . S
O178 C177 1.211 . S
C179 O171 1.284 . S
C179 O180 1.273 . S
O180 C179 1.273 . S
O181 Zn172 1.977 . S
O181 C174 1.267 . S
C182 O183 1.160 . S
C182 O189 1.185 . S
O183 C182 1.160 . S
O184 Zn185 1.899 . S
O184 C192 1.284 . S
Zn185 O184 1.899 . S
Zn185 O186 2.032 . S
Zn185 O189 2.086 . S
Zn185 O194 1.977 . S
O186 Zn185 2.032 . S
O186 C190 1.278 . S
C187 O188 1.203 . S
C187 O194 1.267 . S
O188 C187 1.203 . S
O189 C182 1.185 . S
O189 Zn185 2.086 . S
C190 O186 1.278 . S
C190 O191 1.211 . S
O191 C190 1.211 . S
C192 O184 1.284 . S
C192 O193 1.273 . S
O193 C192 1.273 . S
O194 Zn185 1.977 . S
O194 C187 1.267 . S
C195 O196 1.160 . S
C195 O202 1.185 . S
O196 C195 1.160 . S
O197 Zn198 1.899 . S
O197 C205 1.284 . S
Zn198 O197 1.899 . S
Zn198 O199 2.032 . S
Zn198 O202 2.086 . S
Zn198 O207 1.977 . S
O199 Zn198 2.032 . S
O199 C203 1.278 . S
C200 O201 1.203 . S
C200 O207 1.267 . S
O201 C200 1.203 . S
O202 C195 1.185 . S
O202 Zn198 2.086 . S
C203 O199 1.278 . S
C203 O204 1.211 . S
O204 C203 1.211 . S
C205 O197 1.284 . S
C205 O206 1.273 . S
O206 C205 1.273 . S
O207 Zn198 1.977 . S
O207 C200 1.267 . S
H208 C214 0.930 . S
H209 C218 0.930 . S
H210 C223 0.929 . S
H211 C221 0.929 . S
H212 C216 0.929 . S
H213 C222 0.929 . S
C214 H208 0.930 . S
C214 C215 1.367 . S
C214 C222 1.378 . S
C215 C214 1.367 . S
C215 C223 1.433 . S
C216 H212 0.929 . S
C216 C218 1.378 . S
C216 C220 1.350 . S
C217 C220 1.463 . S
C217 C222 1.350 . S
C217 N225 1.427 . S
C218 H209 0.930 . S
C218 C216 1.378 . S
C218 C219 1.367 . S
C219 C218 1.367 . S
C219 C221 1.433 . S
C220 C216 1.350 . S
C220 C217 1.463 . S
C220 N224 1.427 . S
C221 H211 0.929 . S
C221 C219 1.433 . S
C221 N224 1.384 . S
C222 H213 0.929 . S
C222 C214 1.378 . S
C222 C217 1.350 . S
C223 H210 0.929 . S
C223 C215 1.433 . S
C223 N225 1.384 . S
N224 C220 1.427 . S
N224 C221 1.384 . S
N225 C217 1.427 . S
N225 C223 1.384 . S
H226 C232 0.930 . S
H227 C236 0.930 . S
H228 C241 0.929 . S
H229 C239 0.929 . S
H230 C234 0.929 . S
H231 C240 0.929 . S
C232 H226 0.930 . S
C232 C233 1.367 . S
C232 C240 1.378 . S
C233 C232 1.367 . S
C233 C241 1.433 . S
C234 H230 0.929 . S
C234 C236 1.378 . S
C234 C238 1.350 . S
C235 C238 1.463 . S
C235 C240 1.350 . S
C235 N243 1.427 . S
C236 H227 0.930 . S
C236 C234 1.378 . S
C236 C237 1.367 . S
C237 C236 1.367 . S
C237 C239 1.433 . S
C238 C234 1.350 . S
C238 C235 1.463 . S
C238 N242 1.427 . S
C239 H229 0.929 . S
C239 C237 1.433 . S
C239 N242 1.384 . S
C240 H231 0.929 . S
C240 C232 1.378 . S
C240 C235 1.350 . S
C241 H228 0.929 . S
C241 C233 1.433 . S
C241 N243 1.384 . S
N242 C238 1.427 . S
N242 C239 1.384 . S
N243 C235 1.427 . S
N243 C241 1.384 . S
H244 C250 0.930 . S
H245 C254 0.930 . S
H246 C259 0.929 . S
H247 C257 0.929 . S
H248 C252 0.929 . S
H249 C258 0.929 . S
C250 H244 0.930 . S
C250 C251 1.367 . S
C250 C258 1.378 . S
C251 C250 1.367 . S
C251 C259 1.433 . S
C252 H248 0.929 . S
C252 C254 1.378 . S
C252 C256 1.350 . S
C253 C256 1.463 . S
C253 C258 1.350 . S
C253 N261 1.427 . S
C254 H245 0.930 . S
C254 C252 1.378 . S
C254 C255 1.367 . S
C255 C254 1.367 . S
C255 C257 1.433 . S
C256 C252 1.350 . S
C256 C253 1.463 . S
C256 N260 1.427 . S
C257 H247 0.929 . S
C257 C255 1.433 . S
C257 N260 1.384 . S
C258 H249 0.929 . S
C258 C250 1.378 . S
C258 C253 1.350 . S
C259 H246 0.929 . S
C259 C251 1.433 . S
C259 N261 1.384 . S
N260 C256 1.427 . S
N260 C257 1.384 . S
N261 C253 1.427 . S
N261 C259 1.384 . S
H262 C268 0.930 . S
H263 C272 0.930 . S
H264 C277 0.929 . S
H265 C275 0.929 . S
H266 C270 0.929 . S
H267 C276 0.929 . S
C268 H262 0.930 . S
C268 C269 1.367 . S
C268 C276 1.378 . S
C269 C268 1.367 . S
C269 C277 1.433 . S
C270 H266 0.929 . S
C270 C272 1.378 . S
C270 C274 1.350 . S
C271 C274 1.463 1_455 S
C271 C276 1.350 . S
C271 N279 1.427 . S
C272 H263 0.930 . S
C272 C270 1.378 . S
C272 C273 1.367 . S
C273 C272 1.367 . S
C273 C275 1.433 . S
C274 C270 1.350 . S
C274 C271 1.463 1_655 S
C274 N278 1.427 . S
C275 H265 0.929 . S
C275 C273 1.433 . S
C275 N278 1.384 . S
C276 H267 0.929 . S
C276 C268 1.378 . S
C276 C271 1.350 . S
C277 H264 0.929 . S
C277 C269 1.433 . S
C277 N279 1.384 . S
N278 C274 1.427 . S
N278 C275 1.384 . S
N279 C271 1.427 . S
N279 C277 1.384 . S
H280 C286 0.930 . S
H281 C290 0.930 . S
H282 C295 0.929 . S
H283 C293 0.929 . S
H284 C288 0.929 . S
H285 C294 0.929 . S
C286 H280 0.930 . S
C286 C287 1.367 . S
C286 C294 1.378 . S
C287 C286 1.367 . S
C287 C295 1.433 . S
C288 H284 0.929 . S
C288 C290 1.378 . S
C288 C292 1.350 . S
C289 C292 1.463 . S
C289 C294 1.350 . S
C289 N297 1.427 . S
C290 H281 0.930 . S
C290 C288 1.378 . S
C290 C291 1.367 . S
C291 C290 1.367 . S
C291 C293 1.433 . S
C292 C288 1.350 . S
C292 C289 1.463 . S
C292 N296 1.427 . S
C293 H283 0.929 . S
C293 C291 1.433 . S
C293 N296 1.384 . S
C294 H285 0.929 . S
C294 C286 1.378 . S
C294 C289 1.350 . S
C295 H282 0.929 . S
C295 C287 1.433 . S
C295 N297 1.384 . S
N296 C292 1.427 . S
N296 C293 1.384 . S
N297 C289 1.427 . S
N297 C295 1.384 . S
H298 C304 0.930 . S
H299 C308 0.930 . S
H300 C313 0.929 . S
H301 C311 0.929 . S
H302 C306 0.929 . S
H303 C312 0.929 . S
C304 H298 0.930 . S
C304 C305 1.367 . S
C304 C312 1.378 . S
C305 C304 1.367 . S
C305 C313 1.433 . S
C306 H302 0.929 . S
C306 C308 1.378 . S
C306 C310 1.350 . S
C307 C310 1.463 1_655 S
C307 C312 1.350 . S
C307 N315 1.427 . S
C308 H299 0.930 . S
C308 C306 1.378 . S
C308 C309 1.367 . S
C309 C308 1.367 . S
C309 C311 1.433 . S
C310 C306 1.350 . S
C310 C307 1.463 1_455 S
C310 N314 1.427 . S
C311 H301 0.929 . S
C311 C309 1.433 . S
C311 N314 1.384 . S
C312 H303 0.929 . S
C312 C304 1.378 . S
C312 C307 1.350 . S
C313 H300 0.929 . S
C313 C305 1.433 . S
C313 N315 1.384 . S
N314 C310 1.427 . S
N314 C311 1.384 . S
N315 C307 1.427 . S
N315 C313 1.384 . S
H316 C322 0.930 . S
H317 C326 0.930 . S
H318 C331 0.929 . S
H319 C329 0.929 . S
H320 C324 0.929 . S
H321 C330 0.929 . S
C322 H316 0.930 . S
C322 C323 1.367 . S
C322 C330 1.378 . S
C323 C322 1.367 . S
C323 C331 1.433 . S
C324 H320 0.929 . S
C324 C326 1.378 . S
C324 C328 1.350 . S
C325 C328 1.463 . S
C325 C330 1.350 . S
C325 N333 1.427 . S
C326 H317 0.930 . S
C326 C324 1.378 . S
C326 C327 1.367 . S
C327 C326 1.367 . S
C327 C329 1.433 . S
C328 C324 1.350 . S
C328 C325 1.463 . S
C328 N332 1.427 . S
C329 H319 0.929 . S
C329 C327 1.433 . S
C329 N332 1.384 . S
C330 H321 0.929 . S
C330 C322 1.378 . S
C330 C325 1.350 . S
C331 H318 0.929 . S
C331 C323 1.433 . S
C331 N333 1.384 . S
N332 C328 1.427 . S
N332 C329 1.384 . S
N333 C325 1.427 . S
N333 C331 1.384 . S
H334 C340 0.930 . S
H335 C344 0.930 . S
H336 C349 0.929 . S
H337 C347 0.929 . S
H338 C342 0.929 . S
H339 C348 0.929 . S
C340 H334 0.930 . S
C340 C341 1.367 . S
C340 C348 1.378 . S
C341 C340 1.367 . S
C341 C349 1.433 . S
C342 H338 0.929 . S
C342 C344 1.378 . S
C342 C346 1.350 . S
C343 C346 1.463 . S
C343 C348 1.350 . S
C343 N351 1.427 . S
C344 H335 0.930 . S
C344 C342 1.378 . S
C344 C345 1.367 . S
C345 C344 1.367 . S
C345 C347 1.433 . S
C346 C342 1.350 . S
C346 C343 1.463 . S
C346 N350 1.427 . S
C347 H337 0.929 . S
C347 C345 1.433 . S
C347 N350 1.384 . S
C348 H339 0.929 . S
C348 C340 1.378 . S
C348 C343 1.350 . S
C349 H336 0.929 . S
C349 C341 1.433 . S
C349 N351 1.384 . S
N350 C346 1.427 . S
N350 C347 1.384 . S
N351 C343 1.427 . S
N351 C349 1.384 . S
H352 C358 0.930 . S
H353 C362 0.930 . S
H354 C367 0.929 . S
H355 C365 0.929 . S
H356 C360 0.929 . S
H357 C366 0.929 . S
C358 H352 0.930 . S
C358 C359 1.367 . S
C358 C366 1.378 . S
C359 C358 1.367 . S
C359 C367 1.433 . S
C360 H356 0.929 . S
C360 C362 1.378 . S
C360 C364 1.350 . S
C361 C364 1.463 . S
C361 C366 1.350 . S
C361 N369 1.427 . S
C362 H353 0.930 . S
C362 C360 1.378 . S
C362 C363 1.367 . S
C363 C362 1.367 . S
C363 C365 1.433 . S
C364 C360 1.350 . S
C364 C361 1.463 . S
C364 N368 1.427 . S
C365 H355 0.929 . S
C365 C363 1.433 . S
C365 N368 1.384 . S
C366 H357 0.929 . S
C366 C358 1.378 . S
C366 C361 1.350 . S
C367 H354 0.929 . S
C367 C359 1.433 . S
C367 N369 1.384 . S
N368 C364 1.427 . S
N368 C365 1.384 . S
N369 C361 1.427 . S
N369 C367 1.384 . S
H370 C376 0.930 . S
H371 C380 0.930 . S
H372 C385 0.929 . S
H373 C383 0.929 . S
H374 C378 0.929 . S
H375 C384 0.929 . S
C376 H370 0.930 . S
C376 C377 1.367 . S
C376 C384 1.378 . S
C377 C376 1.367 . S
C377 C385 1.433 . S
C378 H374 0.929 . S
C378 C380 1.378 . S
C378 C382 1.350 . S
C379 C382 1.463 . S
C379 C384 1.350 . S
C379 N387 1.427 . S
C380 H371 0.930 . S
C380 C378 1.378 . S
C380 C381 1.367 . S
C381 C380 1.367 . S
C381 C383 1.433 . S
C382 C378 1.350 . S
C382 C379 1.463 . S
C382 N386 1.427 . S
C383 H373 0.929 . S
C383 C381 1.433 . S
C383 N386 1.384 . S
C384 H375 0.929 . S
C384 C376 1.378 . S
C384 C379 1.350 . S
C385 H372 0.929 . S
C385 C377 1.433 . S
C385 N387 1.384 . S
N386 C382 1.427 . S
N386 C383 1.384 . S
N387 C379 1.427 . S
N387 C385 1.384 . S
H388 C394 0.930 . S
H389 C398 0.930 . S
H390 C403 0.929 . S
H391 C401 0.929 . S
H392 C396 0.929 . S
H393 C402 0.929 . S
C394 H388 0.930 . S
C394 C395 1.367 . S
C394 C402 1.378 . S
C395 C394 1.367 . S
C395 C403 1.433 . S
C396 H392 0.929 . S
C396 C398 1.378 . S
C396 C400 1.350 . S
C397 C400 1.463 . S
C397 C402 1.350 . S
C397 N405 1.427 . S
C398 H389 0.930 . S
C398 C396 1.378 . S
C398 C399 1.367 . S
C399 C398 1.367 . S
C399 C401 1.433 . S
C400 C396 1.350 . S
C400 C397 1.463 . S
C400 N404 1.427 . S
C401 H391 0.929 . S
C401 C399 1.433 . S
C401 N404 1.384 . S
C402 H393 0.929 . S
C402 C394 1.378 . S
C402 C397 1.350 . S
C403 H390 0.929 . S
C403 C395 1.433 . S
C403 N405 1.384 . S
N404 C400 1.427 . S
N404 C401 1.384 . S
N405 C397 1.427 . S
N405 C403 1.384 . S
H406 C412 0.930 . S
H407 C416 0.930 . S
H408 C421 0.929 . S
H409 C419 0.929 . S
H410 C414 0.929 . S
H411 C420 0.929 . S
C412 H406 0.930 . S
C412 C413 1.367 . S
C412 C420 1.378 . S
C413 C412 1.367 . S
C413 C421 1.433 . S
C414 H410 0.929 . S
C414 C416 1.378 . S
C414 C418 1.350 . S
C415 C418 1.463 . S
C415 C420 1.350 . S
C415 N423 1.427 . S
C416 H407 0.930 . S
C416 C414 1.378 . S
C416 C417 1.367 . S
C417 C416 1.367 . S
C417 C419 1.433 . S
C418 C414 1.350 . S
C418 C415 1.463 . S
C418 N422 1.427 . S
C419 H409 0.929 . S
C419 C417 1.433 . S
C419 N422 1.384 . S
C420 H411 0.929 . S
C420 C412 1.378 . S
C420 C415 1.350 . S
C421 H408 0.929 . S
C421 C413 1.433 . S
C421 N423 1.384 . S
N422 C418 1.427 . S
N422 C419 1.384 . S
N423 C415 1.427 . S
N423 C421 1.384 . S
H424 C430 0.930 . S
H425 C434 0.930 . S
H426 C439 0.929 . S
H427 C437 0.929 . S
H428 C432 0.929 . S
H429 C438 0.929 . S
C430 H424 0.930 . S
C430 C431 1.367 . S
C430 C438 1.378 . S
C431 C430 1.367 . S
C431 C439 1.433 . S
C432 H428 0.929 . S
C432 C434 1.378 . S
C432 C436 1.350 . S
C433 C436 1.463 1_455 S
C433 C438 1.350 . S
C433 N441 1.427 . S
C434 H425 0.930 . S
C434 C432 1.378 . S
C434 C435 1.367 . S
C435 C434 1.367 . S
C435 C437 1.433 . S
C436 C432 1.350 . S
C436 C433 1.463 1_655 S
C436 N440 1.427 . S
C437 H427 0.929 . S
C437 C435 1.433 . S
C437 N440 1.384 . S
C438 H429 0.929 . S
C438 C430 1.378 . S
C438 C433 1.350 . S
C439 H426 0.929 . S
C439 C431 1.433 . S
C439 N441 1.384 . S
N440 C436 1.427 . S
N440 C437 1.384 . S
N441 C433 1.427 . S
N441 C439 1.384 . S
H442 C448 0.930 . S
H443 C452 0.930 . S
H444 C457 0.929 . S
H445 C455 0.929 . S
H446 C450 0.929 . S
H447 C456 0.929 . S
C448 H442 0.930 . S
C448 C449 1.367 . S
C448 C456 1.378 . S
C449 C448 1.367 . S
C449 C457 1.433 . S
C450 H446 0.929 . S
C450 C452 1.378 . S
C450 C454 1.350 . S
C451 C454 1.463 . S
C451 C456 1.350 . S
C451 N459 1.427 . S
C452 H443 0.930 . S
C452 C450 1.378 . S
C452 C453 1.367 . S
C453 C452 1.367 . S
C453 C455 1.433 . S
C454 C450 1.350 . S
C454 C451 1.463 . S
C454 N458 1.427 . S
C455 H445 0.929 . S
C455 C453 1.433 . S
C455 N458 1.384 . S
C456 H447 0.929 . S
C456 C448 1.378 . S
C456 C451 1.350 . S
C457 H444 0.929 . S
C457 C449 1.433 . S
C457 N459 1.384 . S
N458 C454 1.427 . S
N458 C455 1.384 . S
N459 C451 1.427 . S
N459 C457 1.384 . S
H460 C466 0.930 . S
H461 C470 0.930 . S
H462 C475 0.929 . S
H463 C473 0.929 . S
H464 C468 0.929 . S
H465 C474 0.929 . S
C466 H460 0.930 . S
C466 C467 1.367 . S
C466 C474 1.378 . S
C467 C466 1.367 . S
C467 C475 1.433 . S
C468 H464 0.929 . S
C468 C470 1.378 . S
C468 C472 1.350 . S
C469 C472 1.463 . S
C469 C474 1.350 . S
C469 N477 1.427 . S
C470 H461 0.930 . S
C470 C468 1.378 . S
C470 C471 1.367 . S
C471 C470 1.367 . S
C471 C473 1.433 . S
C472 C468 1.350 . S
C472 C469 1.463 . S
C472 N476 1.427 . S
C473 H463 0.929 . S
C473 C471 1.433 . S
C473 N476 1.384 . S
C474 H465 0.929 . S
C474 C466 1.378 . S
C474 C469 1.350 . S
C475 H462 0.929 . S
C475 C467 1.433 . S
C475 N477 1.384 . S
N476 C472 1.427 . S
N476 C473 1.384 . S
N477 C469 1.427 . S
N477 C475 1.384 . S
H478 C484 0.930 . S
H479 C488 0.930 . S
H480 C493 0.929 . S
H481 C491 0.929 . S
H482 C486 0.929 . S
H483 C492 0.929 . S
C484 H478 0.930 . S
C484 C485 1.367 . S
C484 C492 1.378 . S
C485 C484 1.367 . S
C485 C493 1.433 . S
C486 H482 0.929 . S
C486 C488 1.378 . S
C486 C490 1.350 . S
C487 C490 1.463 1_455 S
C487 C492 1.350 . S
C487 N495 1.427 . S
C488 H479 0.930 . S
C488 C486 1.378 . S
C488 C489 1.367 . S
C489 C488 1.367 . S
C489 C491 1.433 . S
C490 C486 1.350 . S
C490 C487 1.463 1_655 S
C490 N494 1.427 . S
C491 H481 0.929 . S
C491 C489 1.433 . S
C491 N494 1.384 . S
C492 H483 0.929 . S
C492 C484 1.378 . S
C492 C487 1.350 . S
C493 H480 0.929 . S
C493 C485 1.433 . S
C493 N495 1.384 . S
N494 C490 1.427 . S
N494 C491 1.384 . S
N495 C487 1.427 . S
N495 C493 1.384 . S
H496 C502 0.930 . S
H497 C506 0.930 . S
H498 C511 0.929 . S
H499 C509 0.929 . S
H500 C504 0.929 . S
H501 C510 0.929 . S
C502 H496 0.930 . S
C502 C503 1.367 . S
C502 C510 1.378 . S
C503 C502 1.367 . S
C503 C511 1.433 . S
C504 H500 0.929 . S
C504 C506 1.378 . S
C504 C508 1.350 . S
C505 C508 1.463 1_554 S
C505 C510 1.350 . S
C505 N513 1.427 . S
C506 H497 0.930 . S
C506 C504 1.378 . S
C506 C507 1.367 . S
C507 C506 1.367 . S
C507 C509 1.433 . S
C508 C504 1.350 . S
C508 C505 1.463 1_556 S
C508 N512 1.427 . S
C509 H499 0.929 . S
C509 C507 1.433 . S
C509 N512 1.384 . S
C510 H501 0.929 . S
C510 C502 1.378 . S
C510 C505 1.350 . S
C511 H498 0.929 . S
C511 C503 1.433 . S
C511 N513 1.384 . S
N512 C508 1.427 . S
N512 C509 1.384 . S
N513 C505 1.427 . S
N513 C511 1.384 . S
H514 C520 0.930 . S
H515 C524 0.930 . S
H516 C529 0.929 . S
H517 C527 0.929 . S
H518 C522 0.929 . S
H519 C528 0.929 . S
C520 H514 0.930 . S
C520 C521 1.367 . S
C520 C528 1.378 . S
C521 C520 1.367 . S
C521 C529 1.433 . S
C522 H518 0.929 . S
C522 C524 1.378 . S
C522 C526 1.350 . S
C523 C526 1.463 . S
C523 C528 1.350 . S
C523 N531 1.427 . S
C524 H515 0.930 . S
C524 C522 1.378 . S
C524 C525 1.367 . S
C525 C524 1.367 . S
C525 C527 1.433 . S
C526 C522 1.350 . S
C526 C523 1.463 . S
C526 N530 1.427 . S
C527 H517 0.929 . S
C527 C525 1.433 . S
C527 N530 1.384 . S
C528 H519 0.929 . S
C528 C520 1.378 . S
C528 C523 1.350 . S
C529 H516 0.929 . S
C529 C521 1.433 . S
C529 N531 1.384 . S
N530 C526 1.427 . S
N530 C527 1.384 . S
N531 C523 1.427 . S
N531 C529 1.384 . S
H532 C538 0.930 . S
H533 C542 0.930 . S
H534 C547 0.929 . S
H535 C545 0.929 . S
H536 C540 0.929 . S
H537 C546 0.929 . S
C538 H532 0.930 . S
C538 C539 1.367 . S
C538 C546 1.378 . S
C539 C538 1.367 . S
C539 C547 1.433 . S
C540 H536 0.929 . S
C540 C542 1.378 . S
C540 C544 1.350 . S
C541 C544 1.463 . S
C541 C546 1.350 . S
C541 N549 1.427 . S
C542 H533 0.930 . S
C542 C540 1.378 . S
C542 C543 1.367 . S
C543 C542 1.367 . S
C543 C545 1.433 . S
C544 C540 1.350 . S
C544 C541 1.463 . S
C544 N548 1.427 . S
C545 H535 0.929 . S
C545 C543 1.433 . S
C545 N548 1.384 . S
C546 H537 0.929 . S
C546 C538 1.378 . S
C546 C541 1.350 . S
C547 H534 0.929 . S
C547 C539 1.433 . S
C547 N549 1.384 . S
N548 C544 1.427 . S
N548 C545 1.384 . S
N549 C541 1.427 . S
N549 C547 1.384 . S
H550 C556 0.930 . S
H551 C560 0.930 . S
H552 C565 0.929 . S
H553 C563 0.929 . S
H554 C558 0.929 . S
H555 C564 0.929 . S
C556 H550 0.930 . S
C556 C557 1.367 . S
C556 C564 1.378 . S
C557 C556 1.367 . S
C557 C565 1.433 . S
C558 H554 0.929 . S
C558 C560 1.378 . S
C558 C562 1.350 . S
C559 C562 1.463 . S
C559 C564 1.350 . S
C559 N567 1.427 . S
C560 H551 0.930 . S
C560 C558 1.378 . S
C560 C561 1.367 . S
C561 C560 1.367 . S
C561 C563 1.433 . S
C562 C558 1.350 . S
C562 C559 1.463 . S
C562 N566 1.427 . S
C563 H553 0.929 . S
C563 C561 1.433 . S
C563 N566 1.384 . S
C564 H555 0.929 . S
C564 C556 1.378 . S
C564 C559 1.350 . S
C565 H552 0.929 . S
C565 C557 1.433 . S
C565 N567 1.384 . S
N566 C562 1.427 . S
N566 C563 1.384 . S
N567 C559 1.427 . S
N567 C565 1.384 . S
H568 C574 0.930 . S
H569 C578 0.930 . S
H570 C583 0.929 . S
H571 C581 0.929 . S
H572 C576 0.929 1_556 S
H573 C582 0.929 . S
C574 H568 0.930 . S
C574 C575 1.367 . S
C574 C582 1.378 . S
C575 C574 1.367 . S
C575 C583 1.433 . S
C576 H572 0.929 1_554 S
C576 C578 1.378 . S
C576 C580 1.350 . S
C577 C580 1.463 1_556 S
C577 C582 1.350 . S
C577 N585 1.427 . S
C578 H569 0.930 . S
C578 C576 1.378 . S
C578 C579 1.367 . S
C579 C578 1.367 . S
C579 C581 1.433 . S
C580 C576 1.350 . S
C580 C577 1.463 1_554 S
C580 N584 1.427 . S
C581 H571 0.929 . S
C581 C579 1.433 . S
C581 N584 1.384 . S
C582 H573 0.929 . S
C582 C574 1.378 . S
C582 C577 1.350 . S
C583 H570 0.929 . S
C583 C575 1.433 . S
C583 N585 1.384 . S
N584 C580 1.427 . S
N584 C581 1.384 . S
N585 C577 1.427 . S
N585 C583 1.384 . S
H586 C592 0.930 . S
H587 C596 0.930 . S
H588 C601 0.929 . S
H589 C599 0.929 . S
H590 C594 0.929 . S
H591 C600 0.929 . S
C592 H586 0.930 . S
C592 C593 1.367 . S
C592 C600 1.378 . S
C593 C592 1.367 . S
C593 C601 1.433 . S
C594 H590 0.929 . S
C594 C596 1.378 . S
C594 C598 1.350 . S
C595 C598 1.463 . S
C595 C600 1.350 . S
C595 N603 1.427 . S
C596 H587 0.930 . S
C596 C594 1.378 . S
C596 C597 1.367 . S
C597 C596 1.367 . S
C597 C599 1.433 . S
C598 C594 1.350 . S
C598 C595 1.463 . S
C598 N602 1.427 . S
C599 H589 0.929 . S
C599 C597 1.433 . S
C599 N602 1.384 . S
C600 H591 0.929 . S
C600 C592 1.378 . S
C600 C595 1.350 . S
C601 H588 0.929 . S
C601 C593 1.433 . S
C601 N603 1.384 . S
N602 C598 1.427 . S
N602 C599 1.384 . S
N603 C595 1.427 . S
N603 C601 1.384 . S
H604 C610 0.930 . S
H605 C614 0.930 . S
H606 C619 0.929 . S
H607 C617 0.929 . S
H608 C612 0.929 . S
H609 C618 0.929 . S
C610 H604 0.930 . S
C610 C611 1.367 . S
C610 C618 1.378 . S
C611 C610 1.367 . S
C611 C619 1.433 . S
C612 H608 0.929 . S
C612 C614 1.378 . S
C612 C616 1.350 . S
C613 C616 1.463 . S
C613 C618 1.350 . S
C613 N621 1.427 . S
C614 H605 0.930 . S
C614 C612 1.378 . S
C614 C615 1.367 . S
C615 C614 1.367 . S
C615 C617 1.433 . S
C616 C612 1.350 . S
C616 C613 1.463 . S
C616 N620 1.427 . S
C617 H607 0.929 . S
C617 C615 1.433 . S
C617 N620 1.384 . S
C618 H609 0.929 . S
C618 C610 1.378 . S
C618 C613 1.350 . S
C619 H606 0.929 . S
C619 C611 1.433 . S
C619 N621 1.384 . S
N620 C616 1.427 . S
N620 C617 1.384 . S
N621 C613 1.427 . S
N621 C619 1.384 . S
H622 C628 0.930 . S
H623 C632 0.930 . S
H624 C637 0.929 . S
H625 C635 0.929 . S
H626 C630 0.929 . S
H627 C636 0.929 . S
C628 H622 0.930 . S
C628 C629 1.367 . S
C628 C636 1.378 . S
C629 C628 1.367 . S
C629 C637 1.433 . S
C630 H626 0.929 . S
C630 C632 1.378 . S
C630 C634 1.350 . S
C631 C634 1.463 . S
C631 C636 1.350 . S
C631 N639 1.427 . S
C632 H623 0.930 . S
C632 C630 1.378 . S
C632 C633 1.367 . S
C633 C632 1.367 . S
C633 C635 1.433 . S
C634 C630 1.350 . S
C634 C631 1.463 . S
C634 N638 1.427 . S
C635 H625 0.929 . S
C635 C633 1.433 . S
C635 N638 1.384 . S
C636 H627 0.929 . S
C636 C628 1.378 . S
C636 C631 1.350 . S
C637 H624 0.929 . S
C637 C629 1.433 . S
C637 N639 1.384 . S
N638 C634 1.427 . S
N638 C635 1.384 . S
N639 C631 1.427 . S
N639 C637 1.384 . S
H640 C646 0.930 . S
H641 C650 0.930 . S
H642 C655 0.929 1_565 S
H643 C653 0.929 . S
H644 C648 0.929 . S
H645 C654 0.929 . S
C646 H640 0.930 . S
C646 C647 1.367 . S
C646 C654 1.378 . S
C647 C646 1.367 . S
C647 C655 1.433 . S
C648 H644 0.929 . S
C648 C650 1.378 . S
C648 C652 1.350 . S
C649 C652 1.463 1_545 S
C649 C654 1.350 . S
C649 N657 1.427 1_545 S
C650 H641 0.930 . S
C650 C648 1.378 . S
C650 C651 1.367 . S
C651 C650 1.367 . S
C651 C653 1.433 . S
C652 C648 1.350 . S
C652 C649 1.463 1_565 S
C652 N656 1.444 . S
C653 H643 0.929 . S
C653 C651 1.433 . S
C653 N656 1.402 . S
C654 H645 0.929 . S
C654 C646 1.378 . S
C654 C649 1.350 . S
C655 H642 0.929 1_545 S
C655 C647 1.433 . S
C655 N657 1.384 1_545 S
N656 C652 1.444 . S
N656 C653 1.402 . S
N657 C649 1.427 1_565 S
N657 C655 1.384 1_565 S
H658 C664 0.930 . S
H659 C668 0.930 . S
H660 C673 0.929 . S
H661 C671 0.929 . S
H662 C666 0.929 . S
H663 C672 0.929 . S
C664 H658 0.930 . S
C664 C665 1.367 . S
C664 C672 1.378 . S
C665 C664 1.367 . S
C665 C673 1.433 . S
C666 H662 0.929 . S
C666 C668 1.378 . S
C666 C670 1.350 . S
C667 C670 1.463 . S
C667 C672 1.350 . S
C667 N675 1.427 . S
C668 H659 0.930 . S
C668 C666 1.378 . S
C668 C669 1.367 . S
C669 C668 1.367 . S
C669 C671 1.433 . S
C670 C666 1.350 . S
C670 C667 1.463 . S
C670 N674 1.427 . S
C671 H661 0.929 . S
C671 C669 1.433 . S
C671 N674 1.384 . S
C672 H663 0.929 . S
C672 C664 1.378 . S
C672 C667 1.350 . S
C673 H660 0.929 . S
C673 C665 1.433 . S
C673 N675 1.384 . S
N674 C670 1.427 . S
N674 C671 1.384 . S
N675 C667 1.427 . S
N675 C673 1.384 . S
H676 C682 0.940 . S
H677 C686 0.930 . S
H678 C691 0.929 . S
H679 C689 0.929 . S
H680 C684 0.929 . S
H681 C690 0.929 . S
C682 H676 0.940 . S
C682 C683 1.367 . S
C682 C690 1.378 1_545 S
C683 C682 1.367 . S
C683 C691 1.433 . S
C684 H680 0.929 . S
C684 C686 1.378 1_545 S
C684 C688 1.350 1_545 S
C685 C688 1.463 1_546 S
C685 C690 1.350 1_545 S
C685 N693 1.427 1_556 S
C686 H677 0.930 . S
C686 C684 1.378 1_565 S
C686 C687 1.367 . S
C687 C686 1.367 . S
C687 C689 1.433 . S
C688 C684 1.350 1_565 S
C688 C685 1.463 1_564 S
C688 N692 1.427 . S
C689 H679 0.929 . S
C689 C687 1.433 . S
C689 N692 1.384 . S
C690 H681 0.929 . S
C690 C682 1.378 1_565 S
C690 C685 1.350 1_565 S
C691 H678 0.929 . S
C691 C683 1.433 . S
C691 N693 1.384 1_556 S
N692 C688 1.427 . S
N692 C689 1.384 . S
N693 C685 1.427 1_554 S
N693 C691 1.384 1_554 S
H694 C700 0.930 . S
H695 C704 0.930 . S
H696 C709 0.929 . S
H697 C707 0.929 . S
H698 C702 0.929 . S
H699 C708 0.929 . S
C700 H694 0.930 . S
C700 C701 1.367 . S
C700 C708 1.378 . S
C701 C700 1.367 . S
C701 C709 1.433 . S
C702 H698 0.929 . S
C702 C704 1.378 . S
C702 C706 1.350 . S
C703 C706 1.463 . S
C703 C708 1.350 . S
C703 N711 1.427 . S
C704 H695 0.930 . S
C704 C702 1.378 . S
C704 C705 1.367 . S
C705 C704 1.367 . S
C705 C707 1.433 . S
C706 C702 1.350 . S
C706 C703 1.463 . S
C706 N710 1.427 . S
C707 H697 0.929 . S
C707 C705 1.433 . S
C707 N710 1.384 . S
C708 H699 0.929 . S
C708 C700 1.378 . S
C708 C703 1.350 . S
C709 H696 0.929 . S
C709 C701 1.433 . S
C709 N711 1.384 . S
N710 C706 1.427 . S
N710 C707 1.384 . S
N711 C703 1.427 . S
N711 C709 1.384 . S
H712 C718 0.930 . S
H713 C722 0.930 . S
H714 C727 0.929 1_565 S
H715 C725 0.929 1_545 S
H716 C720 0.929 . S
H717 C726 0.929 . S
C718 H712 0.930 . S
C718 C719 1.367 . S
C718 C726 1.378 . S
C719 C718 1.367 . S
C719 C727 1.433 . S
C720 H716 0.929 . S
C720 C722 1.378 . S
C720 C724 1.350 . S
C721 C724 1.463 1_545 S
C721 C726 1.350 . S
C721 N729 1.427 1_545 S
C722 H713 0.930 . S
C722 C720 1.378 . S
C722 C723 1.367 . S
C723 C722 1.367 . S
C723 C725 1.433 . S
C724 C720 1.350 . S
C724 C721 1.463 1_565 S
C724 N728 1.427 1_565 S
C725 H715 0.929 1_565 S
C725 C723 1.433 . S
C725 N728 1.384 1_565 S
C726 H717 0.929 . S
C726 C718 1.378 . S
C726 C721 1.350 . S
C727 H714 0.929 1_545 S
C727 C719 1.433 . S
C727 N729 1.384 1_545 S
N728 C724 1.427 1_545 S
N728 C725 1.384 1_545 S
N729 C721 1.427 1_565 S
N729 C727 1.384 1_565 S
H730 C736 0.930 . S
H731 C740 0.930 . S
H732 C745 0.929 . S
H733 C743 0.929 . S
H734 C738 0.929 . S
H735 C744 0.929 . S
C736 H730 0.930 . S
C736 C737 1.367 . S
C736 C744 1.378 . S
C737 C736 1.367 . S
C737 C745 1.433 . S
C738 H734 0.929 . S
C738 C740 1.378 . S
C738 C742 1.350 . S
C739 C742 1.463 . S
C739 C744 1.350 . S
C739 N747 1.427 . S
C740 H731 0.930 . S
C740 C738 1.378 . S
C740 C741 1.367 . S
C741 C740 1.367 . S
C741 C743 1.433 . S
C742 C738 1.350 . S
C742 C739 1.463 . S
C742 N746 1.427 . S
C743 H733 0.929 . S
C743 C741 1.433 . S
C743 N746 1.384 . S
C744 H735 0.929 . S
C744 C736 1.378 . S
C744 C739 1.350 . S
C745 H732 0.929 . S
C745 C737 1.433 . S
C745 N747 1.384 . S
N746 C742 1.427 . S
N746 C743 1.384 . S
N747 C739 1.427 . S
N747 C745 1.384 . S
H748 C754 0.930 . S
H749 C758 0.930 . S
H750 C763 0.929 . S
H751 C761 0.929 . S
H752 C756 0.929 . S
H753 C762 0.929 1_556 S
C754 H748 0.930 . S
C754 C755 1.367 . S
C754 C762 1.378 . S
C755 C754 1.367 . S
C755 C763 1.433 . S
C756 H752 0.929 . S
C756 C758 1.378 . S
C756 C760 1.350 . S
C757 C760 1.463 1_564 S
C757 C762 1.350 . S
C757 N765 1.427 1_565 S
C758 H749 0.930 . S
C758 C756 1.378 . S
C758 C759 1.367 . S
C759 C758 1.367 . S
C759 C761 1.433 . S
C760 C756 1.350 . S
C760 C757 1.463 1_546 S
C760 N764 1.427 . S
C761 H751 0.929 . S
C761 C759 1.433 . S
C761 N764 1.384 . S
C762 H753 0.929 1_554 S
C762 C754 1.378 . S
C762 C757 1.350 . S
C763 H750 0.929 . S
C763 C755 1.433 . S
C763 N765 1.384 1_565 S
N764 C760 1.427 . S
N764 C761 1.384 . S
N765 C757 1.427 1_545 S
N765 C763 1.384 1_545 S
H766 C772 0.930 . S
H767 C776 0.930 . S
H768 C781 0.929 . S
H769 C779 0.929 . S
H770 C774 0.929 . S
H771 C780 0.929 . S
C772 H766 0.930 . S
C772 C773 1.367 . S
C772 C780 1.378 . S
C773 C772 1.367 . S
C773 C781 1.433 . S
C774 H770 0.929 . S
C774 C776 1.378 . S
C774 C778 1.350 . S
C775 C778 1.463 . S
C775 C780 1.350 . S
C775 N783 1.427 . S
C776 H767 0.930 . S
C776 C774 1.378 . S
C776 C777 1.367 . S
C777 C776 1.367 . S
C777 C779 1.433 . S
C778 C774 1.350 . S
C778 C775 1.463 . S
C778 N782 1.427 . S
C779 H769 0.929 . S
C779 C777 1.433 . S
C779 N782 1.384 . S
C780 H771 0.929 . S
C780 C772 1.378 . S
C780 C775 1.350 . S
C781 H768 0.929 . S
C781 C773 1.433 . S
C781 N783 1.384 . S
N782 C778 1.427 . S
N782 C779 1.384 . S
N783 C775 1.427 . S
N783 C781 1.384 . S
C215 C148 1.412 . S
C219 C8 1.392 . S
C233 C200 1.346 . S
C237 C18 1.356 . S
C251 C31 1.361 . S
C255 C125 1.354 . S
C269 C174 1.345 . S
C273 C47 1.332 . S
C287 C60 1.420 . S
C291 C177 1.426 . S
C305 C70 1.334 . S
C309 C151 1.343 . S
C323 C83 1.356 . S
C327 C203 1.345 . S
C341 C96 1.334 . S
C345 C122 1.320 . S
C359 C44 1.406 . S
C363 C112 1.409 . S
C377 C138 1.422 . S
C381 C21 1.405 . S
C395 C164 1.410 . S
C399 C73 1.429 . S
C413 C187 1.446 . S
C417 C99 1.426 . S
C431 C57 1.418 . S
C435 C109 1.408 . S
C449 C135 1.337 . S
C453 C86 1.334 . S
C467 C190 1.401 . S
C471 C34 1.394 . S
C485 C5 1.368 . S
C489 C161 1.350 . S
C503 C10 1.154 . S
C507 C62 1.162 . S
C521 C13 1.156 . S
C525 C65 1.151 . S
C539 C26 1.146 . S
C543 C78 1.148 . S
C557 C91 1.122 . S
C561 C49 1.121 . S
C575 C114 1.126 . S
C579 C166 1.133 . S
C593 C169 1.072 . S
C597 C117 1.075 . S
C611 C140 1.283 . S
C615 C182 1.280 . S
C629 C195 1.131 . S
C633 C153 1.120 . S
C647 C101 1.120 . S
C651 C23 1.122 . S
C665 C36 1.212 . S
C669 C52 1.210 . S
C683 C39 1.197 . S
C687 C75 1.203 . S
C701 C0 1.086 . S
C705 C88 1.095 . S
C719 C127 1.105 . S
C723 C205 1.104 . S
C737 C156 1.178 . S
C741 C130 1.178 . S
C755 C143 1.183 . S
C759 C179 1.174 . S
C773 C192 1.161 . S
C777 C104 1.148 . S
