# Generated by pormake.
# Topology lcy-e, (6)-cn, num edge types: 1
# Building blocks:
#     Node 0, Type 0, BuildingBlock: INOVEN_clean_sbu_0, # of connection points: 6
#     Node 1, Type 0, BuildingBlock: INOVEN_clean_sbu_0, # of connection points: 6
#     Node 2, Type 0, BuildingBlock: INOVEN_clean_sbu_0, # of connection points: 6
#     Node 3, Type 0, BuildingBlock: INOVEN_clean_sbu_0, # of connection points: 6
#     Node 4, Type 0, BuildingBlock: INOVEN_clean_sbu_0, # of connection points: 6
#     Node 5, Type 0, BuildingBlock: INOVEN_clean_sbu_0, # of connection points: 6
#     Node 6, Type 0, BuildingBlock: INOVEN_clean_sbu_0, # of connection points: 6
#     Node 7, Type 0, BuildingBlock: INOVEN_clean_sbu_0, # of connection points: 6
#     Node 8, Type 0, BuildingBlock: INOVEN_clean_sbu_0, # of connection points: 6
#     Node 9, Type 0, BuildingBlock: INOVEN_clean_sbu_0, # of connection points: 6
#     Node 10, Type 0, BuildingBlock: INOVEN_clean_sbu_0, # of connection points: 6
#     Node 11, Type 0, BuildingBlock: INOVEN_clean_sbu_0, # of connection points: 6
#     Edge 12, Type (0, 0), BuildingBlock: OJICUG_clean_linker_0, # of connection points: 2
#     Edge 13, Type (0, 0), BuildingBlock: OJICUG_clean_linker_0, # of connection points: 2
#     Edge 14, Type (0, 0), BuildingBlock: OJICUG_clean_linker_0, # of connection points: 2
#     Edge 15, Type (0, 0), BuildingBlock: OJICUG_clean_linker_0, # of connection points: 2
#     Edge 16, Type (0, 0), BuildingBlock: OJICUG_clean_linker_0, # of connection points: 2
#     Edge 17, Type (0, 0), BuildingBlock: OJICUG_clean_linker_0, # of connection points: 2
#     Edge 18, Type (0, 0), BuildingBlock: OJICUG_clean_linker_0, # of connection points: 2
#     Edge 19, Type (0, 0), BuildingBlock: OJICUG_clean_linker_0, # of connection points: 2
#     Edge 20, Type (0, 0), BuildingBlock: OJICUG_clean_linker_0, # of connection points: 2
#     Edge 21, Type (0, 0), BuildingBlock: OJICUG_clean_linker_0, # of connection points: 2
#     Edge 22, Type (0, 0), BuildingBlock: OJICUG_clean_linker_0, # of connection points: 2
#     Edge 23, Type (0, 0), BuildingBlock: OJICUG_clean_linker_0, # of connection points: 2
#     Edge 24, Type (0, 0), BuildingBlock: OJICUG_clean_linker_0, # of connection points: 2
#     Edge 25, Type (0, 0), BuildingBlock: OJICUG_clean_linker_0, # of connection points: 2
#     Edge 26, Type (0, 0), BuildingBlock: OJICUG_clean_linker_0, # of connection points: 2
#     Edge 27, Type (0, 0), BuildingBlock: OJICUG_clean_linker_0, # of connection points: 2
#     Edge 28, Type (0, 0), BuildingBlock: OJICUG_clean_linker_0, # of connection points: 2
#     Edge 29, Type (0, 0), BuildingBlock: OJICUG_clean_linker_0, # of connection points: 2
#     Edge 30, Type (0, 0), BuildingBlock: OJICUG_clean_linker_0, # of connection points: 2
#     Edge 31, Type (0, 0), BuildingBlock: OJICUG_clean_linker_0, # of connection points: 2
#     Edge 32, Type (0, 0), BuildingBlock: OJICUG_clean_linker_0, # of connection points: 2
#     Edge 33, Type (0, 0), BuildingBlock: OJICUG_clean_linker_0, # of connection points: 2
#     Edge 34, Type (0, 0), BuildingBlock: OJICUG_clean_linker_0, # of connection points: 2
#     Edge 35, Type (0, 0), BuildingBlock: OJICUG_clean_linker_0, # of connection points: 2
#     Edge 36, Type (0, 0), BuildingBlock: OJICUG_clean_linker_0, # of connection points: 2
#     Edge 37, Type (0, 0), BuildingBlock: OJICUG_clean_linker_0, # of connection points: 2
#     Edge 38, Type (0, 0), BuildingBlock: OJICUG_clean_linker_0, # of connection points: 2
#     Edge 39, Type (0, 0), BuildingBlock: OJICUG_clean_linker_0, # of connection points: 2
#     Edge 40, Type (0, 0), BuildingBlock: OJICUG_clean_linker_0, # of connection points: 2
#     Edge 41, Type (0, 0), BuildingBlock: OJICUG_clean_linker_0, # of connection points: 2
#     Edge 42, Type (0, 0), BuildingBlock: OJICUG_clean_linker_0, # of connection points: 2
#     Edge 43, Type (0, 0), BuildingBlock: OJICUG_clean_linker_0, # of connection points: 2
#     Edge 44, Type (0, 0), BuildingBlock: OJICUG_clean_linker_0, # of connection points: 2
#     Edge 45, Type (0, 0), BuildingBlock: OJICUG_clean_linker_0, # of connection points: 2
#     Edge 46, Type (0, 0), BuildingBlock: OJICUG_clean_linker_0, # of connection points: 2
#     Edge 47, Type (0, 0), BuildingBlock: OJICUG_clean_linker_0, # of connection points: 2
# Relax obj value: 0.184
# Max RMSD: 0.316
# Mean RMSD: 0.300
data_MOF--net-lcy-e--node1-INOVEN_clean_sbu_0--edge1-OJICUG_clean_linker_0
_symmetry_space_group_name_H-M    P1
_symmetry_Int_Tables_number       1
_symmetry_cell_setting            triclinic
loop_
_symmetry_equiv_pos_as_xyz
'x, y, z'
_cell_length_a     35.035978
_cell_length_b     33.449028
_cell_length_c     34.329906
_cell_angle_alpha  89.899542
_cell_angle_beta   90.042792
_cell_angle_gamma 87.460756
loop_
_atom_site_label
_atom_site_type_symbol
_atom_site_fract_x
_atom_site_fract_y
_atom_site_fract_z
_atom_type_partial_charge
Gd0 Gd 0.1442 0.25203 0.55002 0.0
Gd1 Gd 0.13115 0.3104 0.48088 0.0
C2 C 0.08039 0.23086 0.48699 0.0
C3 C 0.13742 0.22006 0.6181 0.0
C4 C 0.1277 0.18021 0.6316 0.0
C5 C 0.11258 0.15272 0.60556 0.0
C6 C 0.13162 0.17019 0.67102 0.0
C7 C 0.10423 0.10578 0.65863 0.0
C8 C 0.12008 0.13319 0.68445 0.0
C9 C 0.10076 0.11583 0.619 0.0
C10 C 0.1937 0.22815 0.49347 0.0
C11 C 0.19585 0.32941 0.53562 0.0
C12 C 0.1209 0.34428 0.41365 0.0
C13 C 0.1417 0.35889 0.37953 0.0
C14 C 0.1294 0.34802 0.34231 0.0
C15 C 0.17213 0.38462 0.38308 0.0
C16 C 0.17565 0.39065 0.31235 0.0
C17 C 0.18898 0.40037 0.34973 0.0
C18 C 0.14622 0.36361 0.30909 0.0
C19 C 0.09624 0.33018 0.54994 0.0
O20 O 0.10005 0.21771 0.51777 0.0
O21 O 0.0864 0.26568 0.4703 0.0
O22 O 0.17031 0.22254 0.60046 0.0
O23 O 0.10972 0.24018 0.60037 0.0
O24 O 0.18895 0.20925 0.52596 0.0
O25 O 0.16991 0.25775 0.49114 0.0
O26 O 0.18965 0.32425 0.49829 0.0
O27 O 0.17757 0.30811 0.56199 0.0
O28 O 0.12291 0.36433 0.44628 0.0
O29 O 0.12179 0.30551 0.41877 0.0
O30 O 0.11154 0.35616 0.52732 0.0
O31 O 0.09983 0.29663 0.53396 0.0
H32 H 0.10941 0.16003 0.57495 0.0
H33 H 0.14301 0.19123 0.69149 0.0
H34 H 0.1227 0.12641 0.71523 0.0
H35 H 0.08901 0.09515 0.59843 0.0
H36 H 0.10611 0.32803 0.33893 0.0
H37 H 0.18228 0.3933 0.41152 0.0
H38 H 0.21139 0.42134 0.35326 0.0
H39 H 0.13572 0.35498 0.28077 0.0
Gd40 Gd 0.98786 0.89501 0.74249 0.0
Gd41 Gd 0.05233 0.90093 0.80062 0.0
C42 C 0.04789 0.96167 0.72621 0.0
C43 C 0.92681 0.89292 0.70033 0.0
C44 C 0.91617 0.90821 0.66105 0.0
C45 C 0.93589 0.8952 0.6273 0.0
C46 C 0.88638 0.93739 0.65738 0.0
C47 C 0.89609 0.94054 0.58711 0.0
C48 C 0.87653 0.95343 0.62095 0.0
C49 C 0.92578 0.91105 0.59068 0.0
C50 C 0.0529 0.85308 0.72391 0.0
C51 C 0.9923 0.84018 0.82102 0.0
C52 C 0.11805 0.90067 0.83536 0.0
C53 C 0.14618 0.87468 0.85711 0.0
C54 C 0.15065 0.88047 0.89728 0.0
C55 C 0.17124 0.84704 0.838 0.0
C56 C 0.20517 0.83246 0.89887 0.0
C57 C 0.20046 0.82619 0.85867 0.0
C58 C 0.17963 0.85966 0.91786 0.0
C59 C 0.98639 0.94327 0.81867 0.0
O60 O 1.01324 0.9501 0.71796 0.0
O61 O 0.06859 0.94485 0.75445 0.0
O62 O 0.95219 0.86308 0.70245 0.0
O63 O 0.93186 0.92015 0.72688 0.0
O64 O 0.03205 0.8736 0.69918 0.0
O65 O 0.03821 0.85532 0.75735 0.0
O66 O 0.02953 0.84329 0.81931 0.0
O67 O 0.96941 0.86127 0.79699 0.0
O68 O 0.08574 0.91069 0.85272 0.0
O69 O 0.11403 0.89423 0.798 0.0
O70 O 1.00872 0.9258 0.84435 0.0
O71 O 1.0017 0.9397 0.78572 0.0
H72 H 0.95919 0.8729 0.62913 0.0
H73 H 0.87068 0.9479 0.68284 0.0
H74 H 0.85294 0.97541 0.61922 0.0
H75 H 0.94137 0.90048 0.5652 0.0
H76 H 0.13237 0.90207 0.91272 0.0
H77 H 0.16887 0.84211 0.80694 0.0
H78 H 0.21952 0.80542 0.84316 0.0
H79 H 0.18282 0.8661 0.94856 0.0
Gd80 Gd 0.38709 0.79086 0.05444 0.0
Gd81 Gd 0.41128 0.73294 0.98406 0.0
C82 C 0.45003 0.81938 0.9905 0.0
C83 C 0.38222 0.83181 0.11784 0.0
C84 C 0.40631 0.85786 0.14052 0.0
C85 C 0.39052 0.87751 0.17297 0.0
C86 C 0.44246 0.86791 0.127 0.0
C87 C 0.44581 0.91903 0.17721 0.0
C88 C 0.46221 0.89808 0.14539 0.0
C89 C 0.40992 0.9079 0.19104 0.0
C90 C 0.33173 0.79251 0.99812 0.0
C91 C 0.35592 0.70144 0.04733 0.0
C92 C 0.42058 0.70128 0.91579 0.0
C93 C 0.40073 0.68135 0.88367 0.0
C94 C 0.41997 0.6497 0.86421 0.0
C95 C 0.36476 0.6954 0.86982 0.0
C96 C 0.369 0.6479 0.81589 0.0
C97 C 0.34898 0.67871 0.83627 0.0
C98 C 0.40432 0.63311 0.83082 0.0
C99 C 0.45224 0.72434 0.05169 0.0
O100 O 0.43299 0.8264 0.0246 0.0
O101 O 0.44452 0.78679 0.9699 0.0
O102 O 0.37236 0.84612 0.08358 0.0
O103 O 0.39124 0.79328 0.11759 0.0
O104 O 0.32886 0.81163 0.03066 0.0
O105 O 0.36337 0.77352 0.9982 0.0
O106 O 0.36061 0.70404 1.00924 0.0
O107 O 0.36883 0.72873 0.07165 0.0
O108 O 0.42676 0.68113 0.94816 0.0
O109 O 0.41176 0.73928 0.92153 0.0
O110 O 0.4469 0.6953 0.02735 0.0
O111 O 0.43875 0.75639 0.03694 0.0
H112 H 0.36229 0.87068 0.18324 0.0
H113 H 0.45473 0.85355 0.10139 0.0
H114 H 0.48991 0.90548 0.13419 0.0
H115 H 0.39584 0.92381 0.21482 0.0
H116 H 0.44772 0.6384 0.87431 0.0
H117 H 0.3493 0.71989 0.8843 0.0
H118 H 0.32174 0.6908 0.82561 0.0
H119 H 0.42013 0.6088 0.81646 0.0
Gd120 Gd 0.55671 0.13503 0.26085 0.0
Gd121 Gd 0.49292 0.12349 0.31898 0.0
C122 C 0.50295 0.06214 0.24544 0.0
C123 C 0.61791 0.14282 0.21944 0.0
C124 C 0.6318 0.12646 0.18186 0.0
C125 C 0.60879 0.10274 0.15854 0.0
C126 C 0.66898 0.13361 0.16965 0.0
C127 C 0.65999 0.09438 0.11059 0.0
C128 C 0.68295 0.11777 0.13449 0.0
C129 C 0.62277 0.08679 0.12324 0.0
C130 C 0.48908 0.17246 0.24264 0.0
C131 C 0.54801 0.18818 0.34072 0.0
C132 C 0.42686 0.11919 0.3523 0.0
C133 C 0.39522 0.14333 0.37095 0.0
C134 C 0.38865 0.13882 0.41099 0.0
C135 C 0.36882 0.16708 0.34891 0.0
C136 C 0.32835 0.178 0.4061 0.0
C137 C 0.33579 0.18441 0.36638 0.0
C138 C 0.35581 0.15603 0.42834 0.0
C139 C 0.56113 0.08443 0.33571 0.0
O140 O 0.53583 0.07758 0.23617 0.0
O141 O 0.48114 0.07687 0.27384 0.0
O142 O 0.58848 0.16822 0.21814 0.0
O143 O 0.61539 0.1169 0.24763 0.0
O144 O 0.51104 0.15352 0.21785 0.0
O145 O 0.50394 0.17087 0.27609 0.0
O146 O 0.51125 0.18275 0.33802 0.0
O147 O 0.57237 0.16918 0.31654 0.0
O148 O 0.45931 0.1146 0.37122 0.0
O149 O 0.43135 0.12264 0.31457 0.0
O150 O 0.53811 0.09959 0.36206 0.0
O151 O 0.54548 0.0885 0.30305 0.0
H152 H 0.58002 0.09664 0.16762 0.0
H153 H 0.68735 0.15138 0.18743 0.0
H154 H 0.71199 0.1236 0.12619 0.0
H155 H 0.60425 0.06913 0.10558 0.0
H156 H 0.40824 0.12063 0.42875 0.0
H157 H 0.37287 0.17109 0.3179 0.0
H158 H 0.31523 0.20111 0.34844 0.0
H159 H 0.35136 0.15111 0.45917 0.0
Gd160 Gd 0.64105 0.23572 0.57225 0.0
Gd161 Gd 0.6531 0.30655 0.51038 0.0
C162 C 0.7067 0.3012 0.5853 0.0
C163 C 0.65175 0.17082 0.6119 0.0
C164 C 0.66181 0.16103 0.6528 0.0
C165 C 0.64526 0.12871 0.67131 0.0
C166 C 0.68938 0.18234 0.67297 0.0
C167 C 0.68558 0.13722 0.7285 0.0
C168 C 0.70131 0.17038 0.71033 0.0
C169 C 0.65691 0.11698 0.70881 0.0
C170 C 0.59933 0.30264 0.59331 0.0
C171 C 0.58975 0.24495 0.49302 0.0
C172 C 0.64916 0.36984 0.46669 0.0
C173 C 0.6235 0.40252 0.45074 0.0
C174 C 0.60741 0.39922 0.41348 0.0
C175 C 0.61894 0.43934 0.47046 0.0
C176 C 0.5846 0.46936 0.41511 0.0
C177 C 0.5997 0.4723 0.45289 0.0
C178 C 0.58816 0.43212 0.39595 0.0
C179 C 0.69541 0.23603 0.50252 0.0
O180 O 0.69522 0.26461 0.59249 0.0
O181 O 0.69052 0.3248 0.5587 0.0
O182 O 0.61746 0.18706 0.60531 0.0
O183 O 0.67868 0.18698 0.59136 0.0
O184 O 0.60012 0.26936 0.61274 0.0
O185 O 0.62129 0.29829 0.56447 0.0
O186 O 0.5959 0.28363 0.49419 0.0
O187 O 0.60652 0.21951 0.51844 0.0
O188 O 0.64664 0.33345 0.45288 0.0
O189 O 0.65644 0.37051 0.50412 0.0
O190 O 0.70796 0.27028 0.49139 0.0
O191 O 0.6619 0.24173 0.51344 0.0
H192 H 0.62403 0.11182 0.65634 0.0
H193 H 0.70243 0.20767 0.65952 0.0
H194 H 0.72324 0.18674 0.72478 0.0
H195 H 0.64457 0.09095 0.7217 0.0
H196 H 0.61093 0.37163 0.39714 0.0
H197 H 0.63138 0.44318 0.49903 0.0
H198 H 0.59731 0.50033 0.46864 0.0
H199 H 0.57762 0.42877 0.36653 0.0
Gd200 Gd 1.00296 0.38494 0.73622 0.0
Gd201 Gd 0.06309 0.36276 0.79196 0.0
C202 C 0.98969 0.30669 0.78647 0.0
C203 C 0.95842 0.40142 0.67783 0.0
C204 C 0.92073 0.38657 0.66653 0.0
C205 C 0.88777 0.41178 0.66956 0.0
C206 C 0.91702 0.34688 0.65396 0.0
C207 C 0.84812 0.35811 0.64743 0.0
C208 C 0.88116 0.33286 0.6445 0.0
C209 C 0.85189 0.3977 0.66031 0.0
C210 C 0.98924 0.41597 0.80839 0.0
C211 C 0.07902 0.43701 0.74534 0.0
C212 C 0.10262 0.34506 0.8535 0.0
C213 C 0.11864 0.36694 0.8861 0.0
C214 C 0.12351 0.34746 0.92193 0.0
C215 C 0.12766 0.40726 0.88246 0.0
C216 C 0.14859 0.4076 0.95002 0.0
C217 C 0.14265 0.42747 0.91425 0.0
C218 C 0.13823 0.36761 0.95366 0.0
C219 C 0.07731 0.33638 0.71801 0.0
O220 O 0.97794 0.32679 0.75524 0.0
O221 O 1.01995 0.31725 0.80601 0.0
O222 O 0.95914 0.42369 0.70904 0.0
O223 O 0.98759 0.37578 0.67593 0.0
O224 O 0.96403 0.39923 0.78696 0.0
O225 O 1.02106 0.4144 0.79107 0.0
O226 O 0.07836 0.42523 0.78172 0.0
O227 O 0.05463 0.42201 0.72013 0.0
O228 O 0.11805 0.3502 0.81923 0.0
O229 O 0.06532 0.34521 0.85251 0.0
O230 O 0.10322 0.34886 0.74141 0.0
O231 O 0.04599 0.33573 0.736 0.0
H232 H 0.88971 0.44241 0.67934 0.0
H233 H 0.94179 0.32652 0.65131 0.0
H234 H 0.87949 0.30245 0.63407 0.0
H235 H 0.82704 0.41787 0.66338 0.0
H236 H 0.11599 0.31656 0.92534 0.0
H237 H 0.12345 0.42293 0.85504 0.0
H238 H 0.15056 0.45817 0.91052 0.0
H239 H 0.14177 0.35173 0.98105 0.0
Gd240 Gd 0.90121 0.78832 0.05435 0.0
Gd241 Gd 0.88918 0.71894 1.0008 0.0
C242 C 0.84221 0.72524 0.08219 0.0
C243 C 0.90784 0.85367 0.09412 0.0
C244 C 0.8896 0.86916 0.13014 0.0
C245 C 0.86302 0.84676 0.15049 0.0
C246 C 0.89919 0.90643 0.14475 0.0
C247 C 0.85707 0.89819 0.20065 0.0
C248 C 0.88312 0.92081 0.1796 0.0
C249 C 0.84677 0.8612 0.18536 0.0
C250 C 0.9472 0.72248 0.06863 0.0
C251 C 0.94198 0.7823 0.9693 0.0
C252 C 0.8845 0.64853 0.96952 0.0
C253 C 0.9053 0.61467 0.94973 0.0
C254 C 0.89659 0.57551 0.96009 0.0
C255 C 0.93156 0.62024 0.91944 0.0
C256 C 0.93815 0.5478 0.90885 0.0
C257 C 0.94791 0.58711 0.8993 0.0
C258 C 0.91274 0.54255 0.93999 0.0
C259 C 0.84268 0.78562 0.98701 0.0
O260 O 0.85095 0.76312 0.0848 0.0
O261 O 0.85726 0.70178 0.05485 0.0
O262 O 0.93081 0.82215 0.09811 0.0
O263 O 0.88565 0.85109 0.06387 0.0
O264 O 0.92938 0.74356 0.09505 0.0
O265 O 0.93915 0.73657 0.03534 0.0
O266 O 0.94006 0.74329 0.97248 0.0
O267 O 0.92525 0.80663 0.9953 0.0
O268 O 0.87828 0.68205 0.95031 0.0
O269 O 0.89174 0.65413 1.00644 0.0
O270 O 0.85548 0.76121 0.96024 0.0
O271 O 0.85245 0.77142 1.01963 0.0
H272 H 0.85523 0.81786 0.13972 0.0
H273 H 0.91941 0.9243 0.12939 0.0
H274 H 0.89119 0.94975 0.19013 0.0
H275 H 0.82701 0.84293 0.20087 0.0
H276 H 0.87647 0.57039 0.98335 0.0
H277 H 0.9388 0.65012 0.9108 0.0
H278 H 0.96714 0.59239 0.87534 0.0
H279 H 0.90497 0.51284 0.94865 0.0
Gd280 Gd 0.54754 0.63463 0.24106 0.0
Gd281 Gd 0.48547 0.66741 0.29139 0.0
C282 C 0.56277 0.71134 0.29747 0.0
C283 C 0.59945 0.62391 0.18836 0.0
C284 C 0.63723 0.63981 0.17996 0.0
C285 C 0.67 0.61422 0.18178 0.0
C286 C 0.64096 0.68 0.16907 0.0
C287 C 0.70936 0.66801 0.15971 0.0
C288 C 0.67663 0.6939 0.15898 0.0
C289 C 0.70572 0.62821 0.172 0.0
C290 C 0.54323 0.59316 0.30742 0.0
C291 C 0.46996 0.58963 0.24592 0.0
C292 C 0.43098 0.67721 0.34182 0.0
C293 C 0.41945 0.65534 0.37726 0.0
C294 C 0.42654 0.67143 0.41417 0.0
C295 C 0.40133 0.61867 0.37491 0.0
C296 C 0.39618 0.6157 0.4457 0.0
C297 C 0.38983 0.59908 0.40877 0.0
C298 C 0.41531 0.65176 0.44792 0.0
C299 C 0.48592 0.69696 0.21614 0.0
O300 O 0.5732 0.69143 0.26554 0.0
O301 O 0.53111 0.70349 0.31576 0.0
O302 O 0.59721 0.6009 0.21906 0.0
O303 O 0.56971 0.64866 0.18424 0.0
O304 O 0.55136 0.57749 0.27379 0.0
O305 O 0.53923 0.63119 0.3055 0.0
O306 O 0.46894 0.60438 0.28126 0.0
O307 O 0.49568 0.60207 0.22092 0.0
O308 O 0.42659 0.65961 0.30827 0.0
O309 O 0.46305 0.69558 0.34395 0.0
O310 O 0.47628 0.71873 0.24611 0.0
O311 O 0.49211 0.66219 0.22797 0.0
H312 H 0.66791 0.58317 0.19023 0.0
H313 H 0.61627 0.70059 0.16746 0.0
H314 H 0.67823 0.72456 0.14913 0.0
H315 H 0.73042 0.60761 0.17346 0.0
H316 H 0.44056 0.69951 0.41699 0.0
H317 H 0.39548 0.60532 0.34693 0.0
H318 H 0.37481 0.57163 0.40591 0.0
H319 H 0.42126 0.66515 0.47585 0.0
Gd320 Gd 0.24777 0.54624 0.13967 0.0
Gd321 Gd 0.30303 0.47512 0.13333 0.0
C322 C 0.22837 0.48143 0.07649 0.0
C323 C 0.20971 0.61419 0.14242 0.0
C324 C 0.17082 0.62755 0.1303 0.0
C325 C 0.1514 0.65847 0.15063 0.0
C326 C 0.15244 0.60905 0.09916 0.0
C327 C 0.09558 0.65245 0.10885 0.0
C328 C 0.11524 0.62153 0.0884 0.0
C329 C 0.11415 0.6708 0.14006 0.0
C330 C 0.22825 0.48165 0.18135 0.0
C331 C 0.32518 0.53801 0.19252 0.0
C332 C 0.33588 0.40448 0.12939 0.0
C333 C 0.35784 0.37317 0.15108 0.0
C334 C 0.39009 0.3551 0.13321 0.0
C335 C 0.34566 0.35859 0.18725 0.0
C336 C 0.39642 0.30639 0.18577 0.0
C337 C 0.36493 0.32547 0.20454 0.0
C338 C 0.40924 0.32217 0.15037 0.0
C339 C 0.32217 0.54076 0.09227 0.0
O340 O 0.22103 0.51881 0.08728 0.0
O341 O 0.25621 0.4592 0.09243 0.0
O342 O 0.2119 0.58927 0.17181 0.0
O343 O 0.23358 0.60432 0.1144 0.0
O344 O 0.20425 0.50451 0.16186 0.0
O345 O 0.26149 0.49433 0.1785 0.0
O346 O 0.3229 0.49904 0.18938 0.0
O347 O 0.30189 0.56261 0.17218 0.0
O348 O 0.35325 0.4371 0.12049 0.0
O349 O 0.29988 0.411 0.13857 0.0
O350 O 0.34678 0.51683 0.10977 0.0
O351 O 0.2894 0.52726 0.09547 0.0
H352 H 0.16503 0.67306 0.17476 0.0
H353 H 0.16678 0.58481 0.08326 0.0
H354 H 0.10165 0.60658 0.06448 0.0
H355 H 0.10002 0.69508 0.15607 0.0
H356 H 0.39995 0.36585 0.10533 0.0
H357 H 0.32078 0.37206 0.20163 0.0
H358 H 0.35445 0.31401 0.23186 0.0
H359 H 0.43393 0.30875 0.13562 0.0
Gd360 Gd 0.74802 0.97323 0.89378 0.0
Gd361 Gd 0.807 0.02968 0.91866 0.0
C362 C 0.73242 0.03295 0.96935 0.0
C363 C 0.69903 0.91741 0.89311 0.0
C364 C 0.6601 0.91136 0.90896 0.0
C365 C 0.62748 0.9185 0.88564 0.0
C366 C 0.65522 0.89645 0.94694 0.0
C367 C 0.58629 0.89428 0.93724 0.0
C368 C 0.61884 0.88813 0.96091 0.0
C369 C 0.59109 0.91023 0.89963 0.0
C370 C 0.74405 0.04099 0.85209 0.0
C371 C 0.82562 0.97868 0.8455 0.0
C372 C 0.85864 0.0829 0.92394 0.0
C373 C 0.87649 0.11407 0.90045 0.0
C374 C 0.90028 0.14051 0.91922 0.0
C375 C 0.8696 0.11871 0.86029 0.0
C376 C 0.91134 0.17544 0.858 0.0
C377 C 0.88684 0.14924 0.83923 0.0
C378 C 0.91742 0.1708 0.89836 0.0
C379 C 0.81137 0.95401 0.95126 0.0
O380 O 0.72267 1.00053 0.95009 0.0
O381 O 0.76295 0.05211 0.95996 0.0
O382 O 0.70216 0.94324 0.86468 0.0
O383 O 0.72694 0.91882 0.91837 0.0
O384 O 0.73732 1.00588 0.83841 0.0
O385 O 0.75038 0.03959 0.88861 0.0
O386 O 0.82154 1.01624 0.85625 0.0
O387 O 0.80204 0.95269 0.86065 0.0
O388 O 0.86641 0.04554 0.91463 0.0
O389 O 0.82284 0.08975 0.93325 0.0
O390 O 0.81863 0.98603 0.97079 0.0
O391 O 0.80467 0.96422 0.91713 0.0
H392 H 0.6301 0.92984 0.85624 0.0
H393 H 0.67965 0.89024 0.9657 0.0
H394 H 0.61648 0.87531 0.98974 0.0
H395 H 0.5667 0.9158 0.88068 0.0
H396 H 0.90559 0.1378 0.95024 0.0
H397 H 0.85105 0.09874 0.84529 0.0
H398 H 0.88161 0.15183 0.80822 0.0
H399 H 0.93538 0.19083 0.91405 0.0
Gd400 Gd 0.74449 0.9943 0.41714 0.0
Gd401 Gd 0.79793 0.05333 0.38633 0.0
C402 C 0.8 0.97212 0.34284 0.0
C403 C 0.69016 0.94442 0.42283 0.0
C404 C 0.67759 0.90816 0.40238 0.0
C405 C 0.66845 0.87454 0.42434 0.0
C406 C 0.67306 0.90696 0.36162 0.0
C407 C 0.64755 0.84022 0.36576 0.0
C408 C 0.65821 0.87333 0.34351 0.0
C409 C 0.65379 0.84099 0.40632 0.0
C410 C 0.80946 0.99306 0.4578 0.0
C411 C 0.75414 0.07729 0.46243 0.0
C412 C 0.8486 0.10609 0.37384 0.0
C413 C 0.8846 0.11833 0.3917 0.0
C414 C 0.91481 0.12846 0.36745 0.0
C415 C 0.88903 0.12108 0.43232 0.0
C416 C 0.95247 0.14709 0.42383 0.0
C417 C 0.92266 0.1354 0.44824 0.0
C418 C 0.94841 0.14252 0.38328 0.0
C419 C 0.7243 0.05819 0.35814 0.0
O420 O 0.76625 0.96726 0.35921 0.0
O421 O 0.82151 1.00083 0.35436 0.0
O422 O 0.72188 0.94077 0.44291 0.0
O423 O 0.68658 0.97848 0.40407 0.0
O424 O 0.77609 0.98738 0.47264 0.0
O425 O 0.80802 0.9967 0.42086 0.0
O426 O 0.78869 0.07444 0.4475 0.0
O427 O 0.72858 0.05085 0.45209 0.0
O428 O 0.81722 0.11349 0.3935 0.0
O429 O 0.84946 0.07113 0.35696 0.0
O430 O 0.75373 0.0632 0.33607 0.0
O431 O 0.73585 0.05269 0.39177 0.0
H432 H 0.67193 0.87451 0.45571 0.0
H433 H 0.68014 0.93234 0.3438 0.0
H434 H 0.65369 0.87395 0.3123 0.0
H435 H 0.64671 0.8158 0.42437 0.0
H436 H 0.91217 0.12615 0.33608 0.0
H437 H 0.86623 0.11302 0.45172 0.0
H438 H 0.92471 0.1387 0.47954 0.0
H439 H 0.97104 0.15043 0.36363 0.0
Gd440 Gd 0.30338 0.4906 0.65017 0.0
Gd441 Gd 0.24542 0.55437 0.62671 0.0
C442 C 0.32205 0.54912 0.58041 0.0
C443 C 0.34684 0.4273 0.66057 0.0
C444 C 0.38712 0.41608 0.65043 0.0
C445 C 0.41806 0.4302 0.67176 0.0
C446 C 0.3948 0.39142 0.61797 0.0
C447 C 0.4633 0.3948 0.62844 0.0
C448 C 0.43234 0.38115 0.60697 0.0
C449 C 0.45575 0.41952 0.66095 0.0
C450 C 0.31777 0.56361 0.68032 0.0
C451 C 0.22181 0.49965 0.69607 0.0
C452 C 0.19768 0.61426 0.61529 0.0
C453 C 0.1766 0.64646 0.63607 0.0
C454 C 0.14405 0.66419 0.61847 0.0
C455 C 0.19007 0.66197 0.67125 0.0
C456 C 0.14003 0.71479 0.66924 0.0
C457 C 0.1718 0.69593 0.68781 0.0
C458 C 0.12587 0.69799 0.6349 0.0
C459 C 0.24395 0.48319 0.58719 0.0
O460 O 0.3243 0.51107 0.59097 0.0
O461 O 0.29793 0.57425 0.59783 0.0
O462 O 0.34027 0.45386 0.68823 0.0
O463 O 0.32387 0.43241 0.63068 0.0
O464 O 0.34326 0.53869 0.66586 0.0
O465 O 0.28524 0.54904 0.6775 0.0
O466 O 0.2184 0.53634 0.68232 0.0
O467 O 0.25094 0.475 0.68589 0.0
O468 O 0.18685 0.5777 0.62067 0.0
O469 O 0.23482 0.61689 0.61388 0.0
O470 O 0.23812 0.51755 0.57026 0.0
O471 O 0.24851 0.48923 0.62237 0.0
H472 H 0.41324 0.44934 0.69685 0.0
H473 H 0.37165 0.37982 0.60103 0.0
H474 H 0.43707 0.36132 0.58236 0.0
H475 H 0.47902 0.43042 0.67816 0.0
H476 H 0.13327 0.65251 0.59136 0.0
H477 H 0.21526 0.64856 0.68523 0.0
H478 H 0.18329 0.7082 0.7143 0.0
H479 H 0.10092 0.71129 0.62042 0.0
C480 C 0.21821 0.39808 0.52037 0.0
C481 C 0.21436 0.36656 0.54741 0.0
H482 H 0.23003 0.4601 0.51162 0.0
C483 C 0.22339 0.37322 0.58651 0.0
H484 H 0.21122 0.39413 0.48992 0.0
C485 C 0.23443 0.41082 0.59862 0.0
C486 C 0.23615 0.44294 0.57208 0.0
H487 H 0.22061 0.34981 0.60804 0.0
H488 H 0.24021 0.41506 0.6293 0.0
C489 C 0.22872 0.43603 0.53267 0.0
C490 C 0.88337 0.98098 0.80239 0.0
C491 C 0.86507 0.9652 0.83503 0.0
H492 H 0.93633 0.98641 0.77151 0.0
C493 C 0.88731 0.94382 0.86281 0.0
H494 H 0.86722 0.99913 0.78144 0.0
C495 C 0.92683 0.93818 0.85812 0.0
C496 C 0.945 0.95255 0.82486 0.0
H497 H 0.87455 0.93324 0.88935 0.0
H498 H 0.94314 0.92229 0.88054 0.0
C499 C 0.92291 0.97418 0.79705 0.0
C500 C 0.31257 0.64392 0.04613 0.0
C501 C 0.34384 0.66273 0.06255 0.0
H502 H 0.28063 0.59056 0.04343 0.0
C503 C 0.36756 0.64131 0.08893 0.0
H504 H 0.29433 0.65963 0.0251 0.0
C505 C 0.36104 0.60133 0.09763 0.0
C506 C 0.3296 0.58256 0.08161 0.0
H507 H 0.39233 0.65482 0.10129 0.0
H508 H 0.38067 0.58509 0.11693 0.0
C509 C 0.30503 0.6044 0.05624 0.0
C510 C 0.6202 0.08589 0.37629 0.0
C511 C 0.6027 0.07565 0.34128 0.0
H512 H 0.67218 0.08977 0.40808 0.0
C513 C 0.62571 0.0593 0.31101 0.0
H514 H 0.60338 0.09811 0.40029 0.0
C515 C 0.6657 0.05516 0.31509 0.0
C516 C 0.68309 0.06626 0.35 0.0
H517 H 0.61274 0.04986 0.2841 0.0
H518 H 0.68276 0.04231 0.29157 0.0
C519 C 0.65977 0.08133 0.38055 0.0
C520 C 0.69034 0.16172 0.50241 0.0
C521 C 0.71296 0.19518 0.49693 0.0
H522 H 0.68538 0.09841 0.49615 0.0
C523 C 0.75088 0.18866 0.48492 0.0
H524 H 0.66107 0.16544 0.51217 0.0
C525 C 0.76523 0.14968 0.47684 0.0
C526 C 0.74166 0.1165 0.47977 0.0
H527 H 0.76911 0.21365 0.48084 0.0
H528 H 0.79428 0.14597 0.46631 0.0
C529 C 0.70433 0.123 0.49359 0.0
C530 C 0.12476 0.45592 0.69303 0.0
C531 C 0.11339 0.45765 0.73219 0.0
H532 H 0.16908 0.46631 0.65165 0.0
C533 C 0.13845 0.47355 0.75983 0.0
H534 H 0.10635 0.44384 0.67104 0.0
C535 C 0.17437 0.48648 0.74866 0.0
C536 C 0.18614 0.48291 0.70986 0.0
H537 H 0.1306 0.47529 0.79032 0.0
H538 H 0.19293 0.49902 0.77026 0.0
C539 C 0.1609 0.46812 0.68207 0.0
C540 C 0.81651 0.89718 1.00114 0.0
C541 C 0.81719 0.91098 0.96246 0.0
H542 H 0.82023 0.8457 0.03917 0.0
C543 C 0.82203 0.88243 0.9325 0.0
H544 H 0.81142 0.91806 0.02483 0.0
C545 C 0.82865 0.84187 0.94072 0.0
C546 C 0.8301 0.8281 0.97923 0.0
H547 H 0.82163 0.89135 0.90223 0.0
H548 H 0.83374 0.82138 0.91668 0.0
C549 C 0.82192 0.85587 1.00932 0.0
C550 C 0.42035 0.53859 0.24444 0.0
C551 C 0.43395 0.57496 0.23138 0.0
H552 H 0.37461 0.49824 0.24246 0.0
C553 C 0.40995 0.60104 0.20943 0.0
H554 H 0.438 0.51887 0.26275 0.0
C555 C 0.37314 0.59041 0.19956 0.0
C556 C 0.36014 0.55291 0.21042 0.0
H557 H 0.4194 0.63011 0.20059 0.0
H558 H 0.35549 0.61097 0.18217 0.0
C559 C 0.38391 0.5273 0.23346 0.0
C560 C 0.5944 0.19167 0.396 0.0
C561 C 0.56112 0.20672 0.37733 0.0
H562 H 0.62817 0.1903 0.44807 0.0
C563 C 0.5368 0.23426 0.3975 0.0
H564 H 0.61369 0.17051 0.38135 0.0
C565 C 0.5454 0.24613 0.43557 0.0
C566 C 0.57762 0.22941 0.45485 0.0
H567 H 0.51076 0.24622 0.38398 0.0
H568 H 0.5267 0.26803 0.45008 0.0
C569 C 0.60223 0.20239 0.43453 0.0
C570 C 0.11476 0.35574 0.61585 0.0
C571 C 0.08938 0.33504 0.59244 0.0
H572 H 0.132 0.37052 0.67388 0.0
C573 C 0.05961 0.31513 0.61059 0.0
H574 H 0.13815 0.37106 0.60278 0.0
C575 C 0.0554 0.31573 0.6513 0.0
C576 C 0.08151 0.33537 0.67482 0.0
H577 H 0.03983 0.29863 0.59324 0.0
H578 H 0.03215 0.3002 0.66442 0.0
C579 C 0.11133 0.3552 0.6566 0.0
C580 C 1.00028 0.79379 0.87789 0.0
C581 C 0.97704 0.8212 0.85632 0.0
H582 H 1.00725 0.75991 0.93082 0.0
C583 C 0.94224 0.83544 0.87244 0.0
H584 H 0.0273 0.78225 0.86625 0.0
C585 C 0.9322 0.82479 0.91036 0.0
C586 C 0.95568 0.79792 0.93201 0.0
H587 H 0.92344 0.85599 0.85636 0.0
H588 H 0.90564 0.83683 0.92242 0.0
C589 C 0.98926 0.7816 0.91506 0.0
C590 C 0.47766 0.67367 0.14765 0.0
C591 C 0.47904 0.70592 0.17397 0.0
H592 H 0.46809 0.65414 0.08926 0.0
C593 C 0.47407 0.74498 0.15907 0.0
H594 H 0.48174 0.6431 0.15763 0.0
C595 C 0.46719 0.75125 0.11892 0.0
C596 C 0.46379 0.7187 0.09326 0.0
H597 H 0.47562 0.77052 0.17826 0.0
H598 H 0.46397 0.78153 0.10799 0.0
C599 C 0.46998 0.67993 0.10811 0.0
C600 C 0.16454 0.42481 0.24809 0.0
C601 C 0.19024 0.41079 0.27704 0.0
H602 H 0.15657 0.45777 0.19506 0.0
C603 C 0.22931 0.41781 0.27265 0.0
H604 H 0.13421 0.42038 0.25074 0.0
C605 C 0.24214 0.43941 0.24058 0.0
C606 C 0.21606 0.45462 0.21255 0.0
H607 H 0.24988 0.40698 0.2942 0.0
H608 H 0.27224 0.44519 0.23834 0.0
C609 C 0.17731 0.44643 0.21624 0.0
C610 C 0.87263 0.99719 0.54397 0.0
C611 C 0.88364 0.95647 0.54834 0.0
H612 H 0.84116 0.04123 0.51002 0.0
C613 C 0.878 0.93041 0.51689 0.0
H614 H 0.87719 1.01819 0.56733 0.0
C615 C 0.85801 0.94395 0.48365 0.0
C616 C 0.8437 0.98374 0.48129 0.0
H617 H 0.88597 0.89885 0.51935 0.0
H618 H 0.85042 0.92245 0.46171 0.0
C619 C 0.85264 1.01061 0.51086 0.0
C620 C 0.30251 0.60292 0.7413 0.0
C621 C 0.32838 0.59149 0.71161 0.0
H622 H 0.29507 0.62937 0.79792 0.0
C623 C 0.36646 0.60253 0.71471 0.0
H624 H 0.27297 0.59476 0.73972 0.0
C625 C 0.37906 0.62224 0.74783 0.0
C626 C 0.35396 0.63135 0.77884 0.0
H627 H 0.38698 0.59447 0.69215 0.0
H628 H 0.40885 0.62947 0.74954 0.0
C629 C 0.3152 0.62268 0.77465 0.0
C630 C 0.69754 0.10321 0.04925 0.0
C631 C 0.67505 0.0789 0.07246 0.0
H632 H 0.73241 0.10808 0.99879 0.0
C633 C 0.6685 0.03979 0.05942 0.0
H634 H 0.70237 0.13378 0.05762 0.0
C635 C 0.68565 0.02491 0.02495 0.0
C636 C 0.70971 0.04885 1.00301 0.0
H637 H 0.65131 0.02021 0.07656 0.0
H638 H 0.68129 0.9943 1.01637 0.0
C639 C 0.71464 0.08843 1.01523 0.0
C640 C 0.74079 0.11633 0.77196 0.0
C641 C 0.70106 0.1214 0.76623 0.0
H642 H 0.7859 0.087 0.80513 0.0
C643 C 0.67645 0.10679 0.79476 0.0
H644 H 0.76053 0.12689 0.75039 0.0
C645 C 0.69112 0.08453 0.82638 0.0
C646 C 0.73061 0.07658 0.8301 0.0
H647 H 0.64575 0.11058 0.79144 0.0
H648 H 0.67144 0.07065 0.84603 0.0
C649 C 0.75541 0.0938 0.80348 0.0
C650 C 0.21498 0.42322 0.03455 0.0
C651 C 0.20649 0.46332 0.04476 0.0
H652 H 0.20408 0.37484 0.99651 0.0
C653 C 0.17818 0.48528 0.02375 0.0
H654 H 0.23668 0.40528 0.0499 0.0
C655 C 0.15905 0.46738 0.9929 0.0
C656 C 0.16786 0.42725 0.98281 0.0
H657 H 0.17103 0.51624 0.03091 0.0
H658 H 0.13725 0.48477 0.97715 0.0
C659 C 0.19605 0.40552 1.00399 0.0
C660 C 0.78937 0.92793 0.28424 0.0
C661 C 0.81413 0.94761 0.30931 0.0
H662 H 0.78339 0.89708 0.22974 0.0
C663 C 0.85319 0.94765 0.29983 0.0
H664 H 0.75913 0.92748 0.29066 0.0
C665 C 0.86693 0.93058 0.26529 0.0
C666 C 0.84209 0.91288 0.239 0.0
H667 H 0.87328 0.96197 0.31868 0.0
H668 H 0.89713 0.93184 0.2589 0.0
C669 C 0.80327 0.91066 0.24934 0.0
C670 C 0.34588 0.6064 0.54263 0.0
C671 C 0.34475 0.56475 0.54774 0.0
H672 H 0.36205 0.65474 0.50668 0.0
C673 C 0.36272 0.53947 0.52 0.0
H674 H 0.33248 0.6269 0.56342 0.0
C675 C 0.38022 0.55575 0.48708 0.0
C676 C 0.38025 0.59755 0.48157 0.0
H677 H 0.36226 0.50727 0.52308 0.0
H678 H 0.3934 0.53565 0.46582 0.0
C679 C 0.36324 0.62252 0.51008 0.0
C680 C 0.24075 0.24182 0.43933 0.0
C681 C 0.22395 0.21533 0.46541 0.0
H682 H 0.28756 0.25097 0.39999 0.0
C683 C 0.2397 0.17613 0.46878 0.0
H684 H 0.22932 0.27229 0.43634 0.0
C685 C 0.27259 0.16411 0.44845 0.0
C686 C 0.29106 0.19096 0.42417 0.0
H687 H 0.22723 0.15482 0.4883 0.0
H688 H 0.28408 0.13378 0.45245 0.0
C689 C 0.27413 0.22966 0.41874 0.0
C690 C 0.11315 0.04455 0.69997 0.0
C691 C 0.09082 0.06718 0.67333 0.0
H692 H 0.11745 0.99334 0.737 0.0
C693 C 0.0551 0.05344 0.66203 0.0
H694 H 0.14105 0.05406 0.70871 0.0
C695 C 0.0414 1.01845 0.67826 0.0
C696 C 0.06328 0.99654 0.70595 0.0
H697 H 0.0372 0.07044 0.64163 0.0
H698 H 1.01333 1.00919 0.66985 0.0
C699 C 0.09961 1.0096 0.71602 0.0
C700 C 0.23185 0.80094 0.95993 0.0
C701 C 0.23751 0.81283 0.92116 0.0
H702 H 0.25772 0.78473 1.01445 0.0
C703 C 0.27491 0.81001 0.90584 0.0
H704 H 0.20345 0.80156 0.97242 0.0
C705 C 0.30619 0.79918 0.92995 0.0
C706 C 0.30035 0.7914 0.96962 0.0
H707 H 0.28034 0.81893 0.87609 0.0
H708 H 0.33491 0.80018 0.91842 0.0
C709 C 0.26291 0.79084 0.98393 0.0
C710 C 0.49827 1.01582 0.18825 0.0
C711 C 0.49182 0.02433 0.22774 0.0
H712 H 0.48788 0.97621 0.14082 0.0
C713 C 0.47348 0.99649 0.25099 0.0
H714 H 0.51256 0.03683 0.16985 0.0
C715 C 0.4605 0.96143 0.23492 0.0
C716 C 0.4646 0.95372 0.19489 0.0
H717 H 0.469 1.00187 0.28181 0.0
H718 H 0.44662 0.94066 0.25391 0.0
C719 C 0.48439 0.98095 0.17182 0.0
C720 C 0.79965 0.30447 0.6423 0.0
C721 C 0.81026 0.34395 0.63499 0.0
H722 H 0.75835 0.2599 0.63283 0.0
C723 C 0.78505 0.36963 0.61392 0.0
H724 H 0.81815 0.28405 0.65895 0.0
C725 C 0.75082 0.356 0.59944 0.0
C726 C 0.74077 0.31616 0.60537 0.0
H727 H 0.79235 0.4 0.60723 0.0
H728 H 0.73274 0.37663 0.58254 0.0
C729 C 0.76521 0.29071 0.62767 0.0
C730 C 0.94033 0.45006 0.85165 0.0
C731 C 0.97794 0.44732 0.83742 0.0
H732 H 0.89832 0.4837 0.88468 0.0
C733 C 1.00317 0.47692 0.84838 0.0
H734 H 0.92012 0.42787 0.84366 0.0
C735 C 0.99058 0.50928 0.87188 0.0
C736 C 0.95258 0.51254 0.88534 0.0
H737 H 0.03233 0.47576 0.83786 0.0
H738 H 1.01056 0.53184 0.87936 0.0
C739 C 0.92785 0.48211 0.87531 0.0
C740 C 0.80122 0.6697 0.10213 0.0
C741 C 0.81153 0.70956 0.10664 0.0
H742 H 0.76083 0.62567 0.1147 0.0
C743 C 0.79009 0.73472 0.13195 0.0
H744 H 0.81716 0.64939 0.083 0.0
C745 C 0.75777 0.72081 0.15068 0.0
C746 C 0.7463 0.68153 0.1444 0.0
H747 H 0.79743 0.76552 0.13626 0.0
H748 H 0.74128 0.7411 0.16935 0.0
C749 C 0.76897 0.65592 0.12064 0.0
C750 C 0.53705 0.5014 0.36843 0.0
C751 C 0.56782 0.50529 0.39425 0.0
H752 H 0.50468 0.52724 0.32107 0.0
C753 C 0.58498 0.54263 0.3965 0.0
H754 H 0.52252 0.47355 0.3665 0.0
C755 C 0.57391 0.57394 0.37096 0.0
C756 C 0.54566 0.56826 0.34281 0.0
H757 H 0.60889 0.54672 0.41586 0.0
H758 H 0.58974 0.60104 0.37092 0.0
C759 C 0.52639 0.53237 0.34279 0.0
C760 C 0.42686 0.23795 0.17719 0.0
C761 C 0.41576 0.26966 0.20212 0.0
H762 H 0.45827 0.1821 0.17075 0.0
C763 C 0.42511 0.26669 0.2419 0.0
H764 H 0.41924 0.23884 0.1466 0.0
C765 C 0.44728 0.23381 0.25586 0.0
C766 C 0.46039 0.2035 0.23021 0.0
H767 H 0.41687 0.29061 0.26182 0.0
H768 H 0.45561 0.23305 0.28626 0.0
C769 C 0.44896 0.20529 0.19107 0.0
C770 C 0.98837 0.24567 0.82833 0.0
C771 C 0.96967 0.27119 0.80106 0.0
H772 H 0.98528 0.19547 0.86644 0.0
C773 C 0.93204 0.26314 0.79016 0.0
H774 H 1.01757 0.25028 0.83704 0.0
C775 C 0.91315 0.23132 0.8076 0.0
C776 C 0.93158 0.20701 0.83619 0.0
H777 H 0.91683 0.28211 0.76919 0.0
H778 H 0.88374 0.22667 0.79973 0.0
C779 C 0.96974 0.21413 0.84545 0.0
C780 C 0.02855 0.67467 0.12674 0.0
C781 C 0.05597 0.66594 0.09777 0.0
H782 H 0.97244 0.69853 0.14004 0.0
C783 C 0.04568 0.67193 0.05846 0.0
H784 H 0.03526 0.6696 0.1572 0.0
C785 C 1.00945 0.68839 0.04856 0.0
C786 C 0.98288 0.69905 0.07781 0.0
H787 H 0.06617 0.66555 0.03545 0.0
H788 H 1.00286 0.69432 1.0182 0.0
C789 C 0.99244 0.69095 0.11686 0.0
C790 C 0.63765 0.79036 0.31093 0.0
C791 C 0.62731 0.80634 0.34767 0.0
H792 H 0.62591 0.74743 0.26616 0.0
C793 C 0.59633 0.79025 0.36727 0.0
H794 H 0.66147 0.80193 0.29503 0.0
C795 C 0.57625 0.75934 0.35094 0.0
C796 C 0.58626 0.74327 0.31426 0.0
H797 H 0.58689 0.80213 0.39514 0.0
H798 H 0.55247 0.74828 0.36728 0.0
C799 C 0.61744 0.75898 0.29446 0.0
C800 C 0.54971 0.35416 0.57152 0.0
C801 C 0.57118 0.33555 0.60149 0.0
H802 H 0.49813 0.38788 0.55661 0.0
C803 C 0.56002 0.34196 0.64032 0.0
H804 H 0.55756 0.34926 0.54133 0.0
C805 C 0.5264 0.36401 0.64911 0.0
C806 C 0.50283 0.3796 0.61916 0.0
H807 H 0.57606 0.32766 0.66391 0.0
H808 H 0.51744 0.36611 0.67926 0.0
C809 C 0.51555 0.37581 0.5803 0.0
C810 C 0.11377 0.75689 0.72456 0.0
C811 C 0.1219 0.75239 0.68467 0.0
H812 H 0.08559 0.79286 0.76855 0.0
C813 C 0.11092 0.78351 0.65889 0.0
H814 H 0.12197 0.73344 0.7451 0.0
C815 C 0.09019 0.81726 0.67221 0.0
C816 C 0.08002 0.82066 0.7116 0.0
H817 H 0.11764 0.78136 0.62814 0.0
H818 H 0.08097 0.84005 0.65136 0.0
C819 C 0.09295 0.79082 0.73794 0.0
C820 C 0.49147 0.84347 0.937 0.0
C821 C 0.48062 0.84523 0.97643 0.0
H822 H 0.53293 0.85699 0.89399 0.0
C823 C 0.50271 0.86705 1.00237 0.0
H824 H 0.47508 0.82701 0.91616 0.0
C825 C 0.53628 0.88447 0.98951 0.0
C826 C 0.54823 0.88072 0.95039 0.0
H827 H 0.49528 0.86883 0.03296 0.0
H828 H 0.5534 0.89998 1.01043 0.0
C829 C 0.52469 0.86095 0.92417 0.0
C830 C 1.00417 0.15376 0.47489 0.0
C831 C 0.98639 0.1668 0.43999 0.0
H832 H 0.0482 0.16334 0.51715 0.0
C833 C 1.00059 0.20005 0.42066 0.0
H834 H 0.99407 0.12807 0.4904 0.0
C835 C 0.0314 0.21994 0.43573 0.0
C836 C 0.04905 0.20738 0.47077 0.0
H837 H 0.98728 0.21149 0.39418 0.0
H838 H 0.04104 0.24564 0.41988 0.0
C839 C 0.03533 0.17378 0.49008 0.0
loop_
_geom_bond_atom_site_label_1
_geom_bond_atom_site_label_2
_geom_bond_distance
_geom_bond_site_symmetry_2
_ccdc_geom_bond_type
Gd0 C3 2.818 . S
Gd0 O20 2.377 . S
Gd0 O22 2.448 . S
Gd0 O23 2.506 . S
Gd0 O24 2.435 . S
Gd0 O25 2.717 . S
Gd0 O27 2.395 . S
Gd0 O31 2.327 . S
Gd1 C12 2.818 . S
Gd1 O21 2.395 . S
Gd1 O25 2.327 . S
Gd1 O26 2.377 . S
Gd1 O28 2.448 . S
Gd1 O29 2.506 . S
Gd1 O30 2.435 . S
Gd1 O31 2.717 . S
C2 O20 1.240 . S
C2 O21 1.240 . S
C3 Gd0 2.818 . S
C3 C4 1.510 . S
C3 O22 1.249 . S
C3 O23 1.252 . S
C4 C3 1.510 . S
C4 C5 1.404 . S
C4 C6 1.352 . S
C5 C4 1.404 . S
C5 C9 1.389 . S
C5 H32 0.930 . S
C6 C4 1.352 . S
C6 C8 1.374 . S
C6 H33 0.931 . S
C7 C8 1.359 . S
C7 C9 1.364 . S
C8 C6 1.374 . S
C8 C7 1.359 . S
C8 H34 0.931 . S
C9 C5 1.389 . S
C9 C7 1.364 . S
C9 H35 0.931 . S
C10 O24 1.256 . S
C10 O25 1.257 . S
C11 O26 1.240 . S
C11 O27 1.240 . S
C12 Gd1 2.818 . S
C12 C13 1.510 . S
C12 O28 1.249 . S
C12 O29 1.252 . S
C13 C12 1.510 . S
C13 C14 1.404 . S
C13 C15 1.352 . S
C14 C13 1.404 . S
C14 C18 1.389 . S
C14 H36 0.930 . S
C15 C13 1.352 . S
C15 C17 1.374 . S
C15 H37 0.931 . S
C16 C17 1.359 . S
C16 C18 1.364 . S
C17 C15 1.374 . S
C17 C16 1.359 . S
C17 H38 0.931 . S
C18 C14 1.389 . S
C18 C16 1.364 . S
C18 H39 0.931 . S
C19 O30 1.256 . S
C19 O31 1.257 . S
O20 Gd0 2.377 . S
O20 C2 1.240 . S
O21 Gd1 2.395 . S
O21 C2 1.240 . S
O22 Gd0 2.448 . S
O22 C3 1.249 . S
O23 Gd0 2.506 . S
O23 C3 1.252 . S
O24 Gd0 2.435 . S
O24 C10 1.256 . S
O25 Gd0 2.717 . S
O25 Gd1 2.327 . S
O25 C10 1.257 . S
O26 Gd1 2.377 . S
O26 C11 1.240 . S
O27 Gd0 2.395 . S
O27 C11 1.240 . S
O28 Gd1 2.448 . S
O28 C12 1.249 . S
O29 Gd1 2.506 . S
O29 C12 1.252 . S
O30 Gd1 2.435 . S
O30 C19 1.256 . S
O31 Gd0 2.327 . S
O31 Gd1 2.717 . S
O31 C19 1.257 . S
H32 C5 0.930 . S
H33 C6 0.931 . S
H34 C8 0.931 . S
H35 C9 0.931 . S
H36 C14 0.930 . S
H37 C15 0.931 . S
H38 C17 0.931 . S
H39 C18 0.931 . S
Gd40 C43 2.818 . S
Gd40 O60 2.377 . S
Gd40 O62 2.448 . S
Gd40 O63 2.506 . S
Gd40 O64 2.435 1_655 S
Gd40 O65 2.717 1_655 S
Gd40 O67 2.395 . S
Gd40 O71 2.327 . S
Gd41 C52 2.818 . S
Gd41 O61 2.395 . S
Gd41 O65 2.327 . S
Gd41 O66 2.377 . S
Gd41 O68 2.448 . S
Gd41 O69 2.506 . S
Gd41 O70 2.435 1_455 S
Gd41 O71 2.717 1_455 S
C42 O60 1.240 1_455 S
C42 O61 1.240 . S
C43 Gd40 2.818 . S
C43 C44 1.510 . S
C43 O62 1.249 . S
C43 O63 1.252 . S
C44 C43 1.510 . S
C44 C45 1.404 . S
C44 C46 1.352 . S
C45 C44 1.404 . S
C45 C49 1.389 . S
C45 H72 0.930 . S
C46 C44 1.352 . S
C46 C48 1.374 . S
C46 H73 0.931 . S
C47 C48 1.359 . S
C47 C49 1.364 . S
C48 C46 1.374 . S
C48 C47 1.359 . S
C48 H74 0.931 . S
C49 C45 1.389 . S
C49 C47 1.364 . S
C49 H75 0.931 . S
C50 O64 1.256 . S
C50 O65 1.257 . S
C51 O66 1.240 1_655 S
C51 O67 1.240 . S
C52 Gd41 2.818 . S
C52 C53 1.510 . S
C52 O68 1.249 . S
C52 O69 1.252 . S
C53 C52 1.510 . S
C53 C54 1.404 . S
C53 C55 1.352 . S
C54 C53 1.404 . S
C54 C58 1.389 . S
C54 H76 0.930 . S
C55 C53 1.352 . S
C55 C57 1.374 . S
C55 H77 0.931 . S
C56 C57 1.359 . S
C56 C58 1.364 . S
C57 C55 1.374 . S
C57 C56 1.359 . S
C57 H78 0.931 . S
C58 C54 1.389 . S
C58 C56 1.364 . S
C58 H79 0.931 . S
C59 O70 1.256 . S
C59 O71 1.257 . S
O60 Gd40 2.377 . S
O60 C42 1.240 1_655 S
O61 Gd41 2.395 . S
O61 C42 1.240 . S
O62 Gd40 2.448 . S
O62 C43 1.249 . S
O63 Gd40 2.506 . S
O63 C43 1.252 . S
O64 Gd40 2.435 1_455 S
O64 C50 1.256 . S
O65 Gd40 2.717 1_455 S
O65 Gd41 2.327 . S
O65 C50 1.257 . S
O66 Gd41 2.377 . S
O66 C51 1.240 1_455 S
O67 Gd40 2.395 . S
O67 C51 1.240 . S
O68 Gd41 2.448 . S
O68 C52 1.249 . S
O69 Gd41 2.506 . S
O69 C52 1.252 . S
O70 Gd41 2.435 1_655 S
O70 C59 1.256 . S
O71 Gd40 2.327 . S
O71 Gd41 2.717 1_655 S
O71 C59 1.257 . S
H72 C45 0.930 . S
H73 C46 0.931 . S
H74 C48 0.931 . S
H75 C49 0.931 . S
H76 C54 0.930 . S
H77 C55 0.931 . S
H78 C57 0.931 . S
H79 C58 0.931 . S
Gd80 C83 2.818 . S
Gd80 O100 2.392 . S
Gd80 O102 2.448 . S
Gd80 O103 2.506 . S
Gd80 O104 2.435 1_554 S
Gd80 O105 2.717 1_554 S
Gd80 O107 2.395 . S
Gd80 O111 2.327 . S
Gd81 C92 2.818 . S
Gd81 O101 2.395 . S
Gd81 O105 2.327 . S
Gd81 O106 2.396 . S
Gd81 O108 2.448 . S
Gd81 O109 2.506 . S
Gd81 O110 2.435 1_556 S
Gd81 O111 2.717 1_556 S
C82 O100 1.227 1_556 S
C82 O101 1.240 . S
C83 Gd80 2.818 . S
C83 C84 1.510 . S
C83 O102 1.249 . S
C83 O103 1.252 . S
C84 C83 1.510 . S
C84 C85 1.404 . S
C84 C86 1.352 . S
C85 C84 1.404 . S
C85 C89 1.389 . S
C85 H112 0.930 . S
C86 C84 1.352 . S
C86 C88 1.374 . S
C86 H113 0.931 . S
C87 C88 1.359 . S
C87 C89 1.364 . S
C88 C86 1.374 . S
C88 C87 1.359 . S
C88 H114 0.931 . S
C89 C85 1.389 . S
C89 C87 1.364 . S
C89 H115 0.931 . S
C90 O104 1.256 . S
C90 O105 1.257 . S
C91 O106 1.223 1_554 S
C91 O107 1.240 . S
C92 Gd81 2.818 . S
C92 C93 1.510 . S
C92 O108 1.249 . S
C92 O109 1.252 . S
C93 C92 1.510 . S
C93 C94 1.404 . S
C93 C95 1.352 . S
C94 C93 1.404 . S
C94 C98 1.389 . S
C94 H116 0.930 . S
C95 C93 1.352 . S
C95 C97 1.374 . S
C95 H117 0.931 . S
C96 C97 1.359 . S
C96 C98 1.364 . S
C97 C95 1.374 . S
C97 C96 1.359 . S
C97 H118 0.931 . S
C98 C94 1.389 . S
C98 C96 1.364 . S
C98 H119 0.931 . S
C99 O110 1.256 . S
C99 O111 1.257 . S
O100 Gd80 2.392 . S
O100 C82 1.227 1_554 S
O101 Gd81 2.395 . S
O101 C82 1.240 . S
O102 Gd80 2.448 . S
O102 C83 1.249 . S
O103 Gd80 2.506 . S
O103 C83 1.252 . S
O104 Gd80 2.435 1_556 S
O104 C90 1.256 . S
O105 Gd80 2.717 1_556 S
O105 Gd81 2.327 . S
O105 C90 1.257 . S
O106 Gd81 2.396 . S
O106 C91 1.223 1_556 S
O107 Gd80 2.395 . S
O107 C91 1.240 . S
O108 Gd81 2.448 . S
O108 C92 1.249 . S
O109 Gd81 2.506 . S
O109 C92 1.252 . S
O110 Gd81 2.435 1_554 S
O110 C99 1.256 . S
O111 Gd80 2.327 . S
O111 Gd81 2.717 1_554 S
O111 C99 1.257 . S
H112 C85 0.930 . S
H113 C86 0.931 . S
H114 C88 0.931 . S
H115 C89 0.931 . S
H116 C94 0.930 . S
H117 C95 0.931 . S
H118 C97 0.931 . S
H119 C98 0.931 . S
Gd120 C123 2.818 . S
Gd120 O140 2.377 . S
Gd120 O142 2.448 . S
Gd120 O143 2.506 . S
Gd120 O144 2.435 . S
Gd120 O145 2.717 . S
Gd120 O147 2.395 . S
Gd120 O151 2.327 . S
Gd121 C132 2.818 . S
Gd121 O141 2.395 . S
Gd121 O145 2.327 . S
Gd121 O146 2.377 . S
Gd121 O148 2.448 . S
Gd121 O149 2.506 . S
Gd121 O150 2.435 . S
Gd121 O151 2.717 . S
C122 O140 1.240 . S
C122 O141 1.240 . S
C123 Gd120 2.818 . S
C123 C124 1.510 . S
C123 O142 1.249 . S
C123 O143 1.252 . S
C124 C123 1.510 . S
C124 C125 1.404 . S
C124 C126 1.352 . S
C125 C124 1.404 . S
C125 C129 1.389 . S
C125 H152 0.930 . S
C126 C124 1.352 . S
C126 C128 1.374 . S
C126 H153 0.931 . S
C127 C128 1.359 . S
C127 C129 1.364 . S
C128 C126 1.374 . S
C128 C127 1.359 . S
C128 H154 0.931 . S
C129 C125 1.389 . S
C129 C127 1.364 . S
C129 H155 0.931 . S
C130 O144 1.256 . S
C130 O145 1.257 . S
C131 O146 1.240 . S
C131 O147 1.240 . S
C132 Gd121 2.818 . S
C132 C133 1.510 . S
C132 O148 1.249 . S
C132 O149 1.252 . S
C133 C132 1.510 . S
C133 C134 1.404 . S
C133 C135 1.352 . S
C134 C133 1.404 . S
C134 C138 1.389 . S
C134 H156 0.930 . S
C135 C133 1.352 . S
C135 C137 1.374 . S
C135 H157 0.931 . S
C136 C137 1.359 . S
C136 C138 1.364 . S
C137 C135 1.374 . S
C137 C136 1.359 . S
C137 H158 0.931 . S
C138 C134 1.389 . S
C138 C136 1.364 . S
C138 H159 0.931 . S
C139 O150 1.256 . S
C139 O151 1.257 . S
O140 Gd120 2.377 . S
O140 C122 1.240 . S
O141 Gd121 2.395 . S
O141 C122 1.240 . S
O142 Gd120 2.448 . S
O142 C123 1.249 . S
O143 Gd120 2.506 . S
O143 C123 1.252 . S
O144 Gd120 2.435 . S
O144 C130 1.256 . S
O145 Gd120 2.717 . S
O145 Gd121 2.327 . S
O145 C130 1.257 . S
O146 Gd121 2.377 . S
O146 C131 1.240 . S
O147 Gd120 2.395 . S
O147 C131 1.240 . S
O148 Gd121 2.448 . S
O148 C132 1.249 . S
O149 Gd121 2.506 . S
O149 C132 1.252 . S
O150 Gd121 2.435 . S
O150 C139 1.256 . S
O151 Gd120 2.327 . S
O151 Gd121 2.717 . S
O151 C139 1.257 . S
H152 C125 0.930 . S
H153 C126 0.931 . S
H154 C128 0.931 . S
H155 C129 0.931 . S
H156 C134 0.930 . S
H157 C135 0.931 . S
H158 C137 0.931 . S
H159 C138 0.931 . S
Gd160 C163 2.818 . S
Gd160 O180 2.377 . S
Gd160 O182 2.448 . S
Gd160 O183 2.506 . S
Gd160 O184 2.435 . S
Gd160 O185 2.717 . S
Gd160 O187 2.395 . S
Gd160 O191 2.327 . S
Gd161 C172 2.818 . S
Gd161 O181 2.395 . S
Gd161 O185 2.327 . S
Gd161 O186 2.377 . S
Gd161 O188 2.448 . S
Gd161 O189 2.506 . S
Gd161 O190 2.435 . S
Gd161 O191 2.717 . S
C162 O180 1.240 . S
C162 O181 1.240 . S
C163 Gd160 2.818 . S
C163 C164 1.510 . S
C163 O182 1.249 . S
C163 O183 1.252 . S
C164 C163 1.510 . S
C164 C165 1.404 . S
C164 C166 1.352 . S
C165 C164 1.404 . S
C165 C169 1.389 . S
C165 H192 0.930 . S
C166 C164 1.352 . S
C166 C168 1.374 . S
C166 H193 0.931 . S
C167 C168 1.359 . S
C167 C169 1.364 . S
C168 C166 1.374 . S
C168 C167 1.359 . S
C168 H194 0.931 . S
C169 C165 1.389 . S
C169 C167 1.364 . S
C169 H195 0.931 . S
C170 O184 1.256 . S
C170 O185 1.257 . S
C171 O186 1.240 . S
C171 O187 1.240 . S
C172 Gd161 2.818 . S
C172 C173 1.510 . S
C172 O188 1.249 . S
C172 O189 1.252 . S
C173 C172 1.510 . S
C173 C174 1.404 . S
C173 C175 1.352 . S
C174 C173 1.404 . S
C174 C178 1.389 . S
C174 H196 0.930 . S
C175 C173 1.352 . S
C175 C177 1.374 . S
C175 H197 0.931 . S
C176 C177 1.359 . S
C176 C178 1.364 . S
C177 C175 1.374 . S
C177 C176 1.359 . S
C177 H198 0.931 . S
C178 C174 1.389 . S
C178 C176 1.364 . S
C178 H199 0.931 . S
C179 O190 1.256 . S
C179 O191 1.257 . S
O180 Gd160 2.377 . S
O180 C162 1.240 . S
O181 Gd161 2.395 . S
O181 C162 1.240 . S
O182 Gd160 2.448 . S
O182 C163 1.249 . S
O183 Gd160 2.506 . S
O183 C163 1.252 . S
O184 Gd160 2.435 . S
O184 C170 1.256 . S
O185 Gd160 2.717 . S
O185 Gd161 2.327 . S
O185 C170 1.257 . S
O186 Gd161 2.377 . S
O186 C171 1.240 . S
O187 Gd160 2.395 . S
O187 C171 1.240 . S
O188 Gd161 2.448 . S
O188 C172 1.249 . S
O189 Gd161 2.506 . S
O189 C172 1.252 . S
O190 Gd161 2.435 . S
O190 C179 1.256 . S
O191 Gd160 2.327 . S
O191 Gd161 2.717 . S
O191 C179 1.257 . S
H192 C165 0.930 . S
H193 C166 0.931 . S
H194 C168 0.931 . S
H195 C169 0.931 . S
H196 C174 0.930 . S
H197 C175 0.931 . S
H198 C177 0.931 . S
H199 C178 0.931 . S
Gd200 C203 2.818 . S
Gd200 O220 2.377 . S
Gd200 O222 2.448 . S
Gd200 O223 2.506 . S
Gd200 O224 2.435 . S
Gd200 O225 2.717 . S
Gd200 O227 2.395 1_655 S
Gd200 O231 2.327 1_655 S
Gd201 C212 2.818 . S
Gd201 O221 2.395 1_455 S
Gd201 O225 2.327 1_455 S
Gd201 O226 2.377 . S
Gd201 O228 2.448 . S
Gd201 O229 2.506 . S
Gd201 O230 2.435 . S
Gd201 O231 2.717 . S
C202 O220 1.240 . S
C202 O221 1.240 . S
C203 Gd200 2.818 . S
C203 C204 1.510 . S
C203 O222 1.249 . S
C203 O223 1.252 . S
C204 C203 1.510 . S
C204 C205 1.404 . S
C204 C206 1.352 . S
C205 C204 1.404 . S
C205 C209 1.389 . S
C205 H232 0.930 . S
C206 C204 1.352 . S
C206 C208 1.374 . S
C206 H233 0.931 . S
C207 C208 1.359 . S
C207 C209 1.364 . S
C208 C206 1.374 . S
C208 C207 1.359 . S
C208 H234 0.931 . S
C209 C205 1.389 . S
C209 C207 1.364 . S
C209 H235 0.931 . S
C210 O224 1.256 . S
C210 O225 1.257 . S
C211 O226 1.240 . S
C211 O227 1.240 . S
C212 Gd201 2.818 . S
C212 C213 1.510 . S
C212 O228 1.249 . S
C212 O229 1.252 . S
C213 C212 1.510 . S
C213 C214 1.404 . S
C213 C215 1.352 . S
C214 C213 1.404 . S
C214 C218 1.389 . S
C214 H236 0.930 . S
C215 C213 1.352 . S
C215 C217 1.374 . S
C215 H237 0.931 . S
C216 C217 1.359 . S
C216 C218 1.364 . S
C217 C215 1.374 . S
C217 C216 1.359 . S
C217 H238 0.931 . S
C218 C214 1.389 . S
C218 C216 1.364 . S
C218 H239 0.931 . S
C219 O230 1.256 . S
C219 O231 1.257 . S
O220 Gd200 2.377 . S
O220 C202 1.240 . S
O221 Gd201 2.395 1_655 S
O221 C202 1.240 . S
O222 Gd200 2.448 . S
O222 C203 1.249 . S
O223 Gd200 2.506 . S
O223 C203 1.252 . S
O224 Gd200 2.435 . S
O224 C210 1.256 . S
O225 Gd200 2.717 . S
O225 Gd201 2.327 1_655 S
O225 C210 1.257 . S
O226 Gd201 2.377 . S
O226 C211 1.240 . S
O227 Gd200 2.395 1_455 S
O227 C211 1.240 . S
O228 Gd201 2.448 . S
O228 C212 1.249 . S
O229 Gd201 2.506 . S
O229 C212 1.252 . S
O230 Gd201 2.435 . S
O230 C219 1.256 . S
O231 Gd200 2.327 1_455 S
O231 Gd201 2.717 . S
O231 C219 1.257 . S
H232 C205 0.930 . S
H233 C206 0.931 . S
H234 C208 0.931 . S
H235 C209 0.931 . S
H236 C214 0.930 . S
H237 C215 0.931 . S
H238 C217 0.931 . S
H239 C218 0.931 . S
Gd240 C243 2.818 . S
Gd240 O260 2.377 . S
Gd240 O262 2.448 . S
Gd240 O263 2.506 . S
Gd240 O264 2.435 . S
Gd240 O265 2.717 . S
Gd240 O267 2.395 1_554 S
Gd240 O271 2.327 1_554 S
Gd241 C252 2.818 . S
Gd241 O261 2.395 1_556 S
Gd241 O265 2.327 1_556 S
Gd241 O266 2.377 . S
Gd241 O268 2.448 . S
Gd241 O269 2.506 . S
Gd241 O270 2.435 . S
Gd241 O271 2.717 . S
C242 O260 1.240 . S
C242 O261 1.240 . S
C243 Gd240 2.818 . S
C243 C244 1.510 . S
C243 O262 1.249 . S
C243 O263 1.252 . S
C244 C243 1.510 . S
C244 C245 1.404 . S
C244 C246 1.352 . S
C245 C244 1.404 . S
C245 C249 1.389 . S
C245 H272 0.930 . S
C246 C244 1.352 . S
C246 C248 1.374 . S
C246 H273 0.931 . S
C247 C248 1.359 . S
C247 C249 1.364 . S
C248 C246 1.374 . S
C248 C247 1.359 . S
C248 H274 0.931 . S
C249 C245 1.389 . S
C249 C247 1.364 . S
C249 H275 0.931 . S
C250 O264 1.256 . S
C250 O265 1.257 . S
C251 O266 1.240 . S
C251 O267 1.240 . S
C252 Gd241 2.818 . S
C252 C253 1.510 . S
C252 O268 1.249 . S
C252 O269 1.252 . S
C253 C252 1.510 . S
C253 C254 1.404 . S
C253 C255 1.352 . S
C254 C253 1.404 . S
C254 C258 1.389 . S
C254 H276 0.930 . S
C255 C253 1.352 . S
C255 C257 1.374 . S
C255 H277 0.931 . S
C256 C257 1.359 . S
C256 C258 1.364 . S
C257 C255 1.374 . S
C257 C256 1.359 . S
C257 H278 0.931 . S
C258 C254 1.389 . S
C258 C256 1.364 . S
C258 H279 0.931 . S
C259 O270 1.256 . S
C259 O271 1.257 . S
O260 Gd240 2.377 . S
O260 C242 1.240 . S
O261 Gd241 2.395 1_554 S
O261 C242 1.240 . S
O262 Gd240 2.448 . S
O262 C243 1.249 . S
O263 Gd240 2.506 . S
O263 C243 1.252 . S
O264 Gd240 2.435 . S
O264 C250 1.256 . S
O265 Gd240 2.717 . S
O265 Gd241 2.327 1_554 S
O265 C250 1.257 . S
O266 Gd241 2.377 . S
O266 C251 1.240 . S
O267 Gd240 2.395 1_556 S
O267 C251 1.240 . S
O268 Gd241 2.448 . S
O268 C252 1.249 . S
O269 Gd241 2.506 . S
O269 C252 1.252 . S
O270 Gd241 2.435 . S
O270 C259 1.256 . S
O271 Gd240 2.327 1_556 S
O271 Gd241 2.717 . S
O271 C259 1.257 . S
H272 C245 0.930 . S
H273 C246 0.931 . S
H274 C248 0.931 . S
H275 C249 0.931 . S
H276 C254 0.930 . S
H277 C255 0.931 . S
H278 C257 0.931 . S
H279 C258 0.931 . S
Gd280 C283 2.818 . S
Gd280 O300 2.377 . S
Gd280 O302 2.448 . S
Gd280 O303 2.506 . S
Gd280 O304 2.435 . S
Gd280 O305 2.717 . S
Gd280 O307 2.395 . S
Gd280 O311 2.327 . S
Gd281 C292 2.818 . S
Gd281 O301 2.395 . S
Gd281 O305 2.327 . S
Gd281 O306 2.377 . S
Gd281 O308 2.448 . S
Gd281 O309 2.506 . S
Gd281 O310 2.435 . S
Gd281 O311 2.717 . S
C282 O300 1.240 . S
C282 O301 1.240 . S
C283 Gd280 2.818 . S
C283 C284 1.510 . S
C283 O302 1.249 . S
C283 O303 1.252 . S
C284 C283 1.510 . S
C284 C285 1.404 . S
C284 C286 1.352 . S
C285 C284 1.404 . S
C285 C289 1.389 . S
C285 H312 0.930 . S
C286 C284 1.352 . S
C286 C288 1.374 . S
C286 H313 0.931 . S
C287 C288 1.359 . S
C287 C289 1.364 . S
C288 C286 1.374 . S
C288 C287 1.359 . S
C288 H314 0.931 . S
C289 C285 1.389 . S
C289 C287 1.364 . S
C289 H315 0.931 . S
C290 O304 1.256 . S
C290 O305 1.257 . S
C291 O306 1.240 . S
C291 O307 1.240 . S
C292 Gd281 2.818 . S
C292 C293 1.510 . S
C292 O308 1.249 . S
C292 O309 1.252 . S
C293 C292 1.510 . S
C293 C294 1.404 . S
C293 C295 1.352 . S
C294 C293 1.404 . S
C294 C298 1.389 . S
C294 H316 0.930 . S
C295 C293 1.352 . S
C295 C297 1.374 . S
C295 H317 0.931 . S
C296 C297 1.359 . S
C296 C298 1.364 . S
C297 C295 1.374 . S
C297 C296 1.359 . S
C297 H318 0.931 . S
C298 C294 1.389 . S
C298 C296 1.364 . S
C298 H319 0.931 . S
C299 O310 1.256 . S
C299 O311 1.257 . S
O300 Gd280 2.377 . S
O300 C282 1.240 . S
O301 Gd281 2.395 . S
O301 C282 1.240 . S
O302 Gd280 2.448 . S
O302 C283 1.249 . S
O303 Gd280 2.506 . S
O303 C283 1.252 . S
O304 Gd280 2.435 . S
O304 C290 1.256 . S
O305 Gd280 2.717 . S
O305 Gd281 2.327 . S
O305 C290 1.257 . S
O306 Gd281 2.377 . S
O306 C291 1.240 . S
O307 Gd280 2.395 . S
O307 C291 1.240 . S
O308 Gd281 2.448 . S
O308 C292 1.249 . S
O309 Gd281 2.506 . S
O309 C292 1.252 . S
O310 Gd281 2.435 . S
O310 C299 1.256 . S
O311 Gd280 2.327 . S
O311 Gd281 2.717 . S
O311 C299 1.257 . S
H312 C285 0.930 . S
H313 C286 0.931 . S
H314 C288 0.931 . S
H315 C289 0.931 . S
H316 C294 0.930 . S
H317 C295 0.931 . S
H318 C297 0.931 . S
H319 C298 0.931 . S
Gd320 C323 2.818 . S
Gd320 O340 2.377 . S
Gd320 O342 2.448 . S
Gd320 O343 2.506 . S
Gd320 O344 2.435 . S
Gd320 O345 2.717 . S
Gd320 O347 2.395 . S
Gd320 O351 2.327 . S
Gd321 C332 2.818 . S
Gd321 O341 2.395 . S
Gd321 O345 2.327 . S
Gd321 O346 2.377 . S
Gd321 O348 2.448 . S
Gd321 O349 2.506 . S
Gd321 O350 2.435 . S
Gd321 O351 2.717 . S
C322 O340 1.240 . S
C322 O341 1.240 . S
C323 Gd320 2.818 . S
C323 C324 1.510 . S
C323 O342 1.249 . S
C323 O343 1.252 . S
C324 C323 1.510 . S
C324 C325 1.404 . S
C324 C326 1.352 . S
C325 C324 1.404 . S
C325 C329 1.389 . S
C325 H352 0.930 . S
C326 C324 1.352 . S
C326 C328 1.374 . S
C326 H353 0.931 . S
C327 C328 1.359 . S
C327 C329 1.364 . S
C328 C326 1.374 . S
C328 C327 1.359 . S
C328 H354 0.931 . S
C329 C325 1.389 . S
C329 C327 1.364 . S
C329 H355 0.931 . S
C330 O344 1.256 . S
C330 O345 1.257 . S
C331 O346 1.240 . S
C331 O347 1.240 . S
C332 Gd321 2.818 . S
C332 C333 1.510 . S
C332 O348 1.249 . S
C332 O349 1.252 . S
C333 C332 1.510 . S
C333 C334 1.404 . S
C333 C335 1.352 . S
C334 C333 1.404 . S
C334 C338 1.389 . S
C334 H356 0.930 . S
C335 C333 1.352 . S
C335 C337 1.374 . S
C335 H357 0.931 . S
C336 C337 1.359 . S
C336 C338 1.364 . S
C337 C335 1.374 . S
C337 C336 1.359 . S
C337 H358 0.931 . S
C338 C334 1.389 . S
C338 C336 1.364 . S
C338 H359 0.931 . S
C339 O350 1.256 . S
C339 O351 1.257 . S
O340 Gd320 2.377 . S
O340 C322 1.240 . S
O341 Gd321 2.395 . S
O341 C322 1.240 . S
O342 Gd320 2.448 . S
O342 C323 1.249 . S
O343 Gd320 2.506 . S
O343 C323 1.252 . S
O344 Gd320 2.435 . S
O344 C330 1.256 . S
O345 Gd320 2.717 . S
O345 Gd321 2.327 . S
O345 C330 1.257 . S
O346 Gd321 2.377 . S
O346 C331 1.240 . S
O347 Gd320 2.395 . S
O347 C331 1.240 . S
O348 Gd321 2.448 . S
O348 C332 1.249 . S
O349 Gd321 2.506 . S
O349 C332 1.252 . S
O350 Gd321 2.435 . S
O350 C339 1.256 . S
O351 Gd320 2.327 . S
O351 Gd321 2.717 . S
O351 C339 1.257 . S
H352 C325 0.930 . S
H353 C326 0.931 . S
H354 C328 0.931 . S
H355 C329 0.931 . S
H356 C334 0.930 . S
H357 C335 0.931 . S
H358 C337 0.931 . S
H359 C338 0.931 . S
Gd360 C363 2.818 . S
Gd360 O380 2.368 1_565 S
Gd360 O382 2.448 . S
Gd360 O383 2.506 . S
Gd360 O384 2.435 1_565 S
Gd360 O385 2.717 1_565 S
Gd360 O387 2.395 . S
Gd360 O391 2.327 . S
Gd361 C372 2.818 . S
Gd361 O381 2.395 . S
Gd361 O385 2.327 . S
Gd361 O386 2.372 1_545 S
Gd361 O388 2.448 . S
Gd361 O389 2.506 . S
Gd361 O390 2.435 1_545 S
Gd361 O391 2.717 1_545 S
C362 O380 1.249 . S
C362 O381 1.240 . S
C363 Gd360 2.818 . S
C363 C364 1.510 . S
C363 O382 1.249 . S
C363 O383 1.252 . S
C364 C363 1.510 . S
C364 C365 1.404 . S
C364 C366 1.352 . S
C365 C364 1.404 . S
C365 C369 1.389 . S
C365 H392 0.930 . S
C366 C364 1.352 . S
C366 C368 1.374 . S
C366 H393 0.931 . S
C367 C368 1.359 . S
C367 C369 1.364 . S
C368 C366 1.374 . S
C368 C367 1.359 . S
C368 H394 0.931 . S
C369 C365 1.389 . S
C369 C367 1.364 . S
C369 H395 0.931 . S
C370 O384 1.256 . S
C370 O385 1.257 . S
C371 O386 1.245 . S
C371 O387 1.240 . S
C372 Gd361 2.818 . S
C372 C373 1.510 . S
C372 O388 1.249 . S
C372 O389 1.252 . S
C373 C372 1.510 . S
C373 C374 1.404 . S
C373 C375 1.352 . S
C374 C373 1.404 . S
C374 C378 1.389 . S
C374 H396 0.930 . S
C375 C373 1.352 . S
C375 C377 1.374 . S
C375 H397 0.931 . S
C376 C377 1.359 . S
C376 C378 1.364 . S
C377 C375 1.374 . S
C377 C376 1.359 . S
C377 H398 0.931 . S
C378 C374 1.389 . S
C378 C376 1.364 . S
C378 H399 0.931 . S
C379 O390 1.256 . S
C379 O391 1.257 . S
O380 Gd360 2.368 1_545 S
O380 C362 1.249 . S
O381 Gd361 2.395 . S
O381 C362 1.240 . S
O382 Gd360 2.448 . S
O382 C363 1.249 . S
O383 Gd360 2.506 . S
O383 C363 1.252 . S
O384 Gd360 2.435 1_545 S
O384 C370 1.256 . S
O385 Gd360 2.717 1_545 S
O385 Gd361 2.327 . S
O385 C370 1.257 . S
O386 Gd361 2.372 1_565 S
O386 C371 1.245 . S
O387 Gd360 2.395 . S
O387 C371 1.240 . S
O388 Gd361 2.448 . S
O388 C372 1.249 . S
O389 Gd361 2.506 . S
O389 C372 1.252 . S
O390 Gd361 2.435 1_565 S
O390 C379 1.256 . S
O391 Gd360 2.327 . S
O391 Gd361 2.717 1_565 S
O391 C379 1.257 . S
H392 C365 0.930 . S
H393 C366 0.931 . S
H394 C368 0.931 . S
H395 C369 0.931 . S
H396 C374 0.930 . S
H397 C375 0.931 . S
H398 C377 0.931 . S
H399 C378 0.931 . S
Gd400 C403 2.818 . S
Gd400 O420 2.377 . S
Gd400 O422 2.448 . S
Gd400 O423 2.506 . S
Gd400 O424 2.435 . S
Gd400 O425 2.717 . S
Gd400 O427 2.395 1_565 S
Gd400 O431 2.327 1_565 S
Gd401 C412 2.818 . S
Gd401 O421 2.395 1_545 S
Gd401 O425 2.327 1_545 S
Gd401 O426 2.377 . S
Gd401 O428 2.448 . S
Gd401 O429 2.506 . S
Gd401 O430 2.435 . S
Gd401 O431 2.717 . S
C402 O420 1.240 . S
C402 O421 1.240 . S
C403 Gd400 2.818 . S
C403 C404 1.510 . S
C403 O422 1.249 . S
C403 O423 1.252 . S
C404 C403 1.510 . S
C404 C405 1.404 . S
C404 C406 1.352 . S
C405 C404 1.404 . S
C405 C409 1.389 . S
C405 H432 0.930 . S
C406 C404 1.352 . S
C406 C408 1.374 . S
C406 H433 0.931 . S
C407 C408 1.359 . S
C407 C409 1.364 . S
C408 C406 1.374 . S
C408 C407 1.359 . S
C408 H434 0.931 . S
C409 C405 1.389 . S
C409 C407 1.364 . S
C409 H435 0.931 . S
C410 O424 1.256 . S
C410 O425 1.257 . S
C411 O426 1.240 . S
C411 O427 1.240 . S
C412 Gd401 2.818 . S
C412 C413 1.510 . S
C412 O428 1.249 . S
C412 O429 1.252 . S
C413 C412 1.510 . S
C413 C414 1.404 . S
C413 C415 1.352 . S
C414 C413 1.404 . S
C414 C418 1.389 . S
C414 H436 0.930 . S
C415 C413 1.352 . S
C415 C417 1.374 . S
C415 H437 0.931 . S
C416 C417 1.359 . S
C416 C418 1.364 . S
C417 C415 1.374 . S
C417 C416 1.359 . S
C417 H438 0.931 . S
C418 C414 1.389 . S
C418 C416 1.364 . S
C418 H439 0.931 . S
C419 O430 1.256 . S
C419 O431 1.257 . S
O420 Gd400 2.377 . S
O420 C402 1.240 . S
O421 Gd401 2.395 1_565 S
O421 C402 1.240 . S
O422 Gd400 2.448 . S
O422 C403 1.249 . S
O423 Gd400 2.506 . S
O423 C403 1.252 . S
O424 Gd400 2.435 . S
O424 C410 1.256 . S
O425 Gd400 2.717 . S
O425 Gd401 2.327 1_565 S
O425 C410 1.257 . S
O426 Gd401 2.377 . S
O426 C411 1.240 . S
O427 Gd400 2.395 1_545 S
O427 C411 1.240 . S
O428 Gd401 2.448 . S
O428 C412 1.249 . S
O429 Gd401 2.506 . S
O429 C412 1.252 . S
O430 Gd401 2.435 . S
O430 C419 1.256 . S
O431 Gd400 2.327 1_545 S
O431 Gd401 2.717 . S
O431 C419 1.257 . S
H432 C405 0.930 . S
H433 C406 0.931 . S
H434 C408 0.931 . S
H435 C409 0.931 . S
H436 C414 0.930 . S
H437 C415 0.931 . S
H438 C417 0.931 . S
H439 C418 0.931 . S
Gd440 C443 2.818 . S
Gd440 O460 2.377 . S
Gd440 O462 2.448 . S
Gd440 O463 2.506 . S
Gd440 O464 2.435 . S
Gd440 O465 2.717 . S
Gd440 O467 2.395 . S
Gd440 O471 2.327 . S
Gd441 C452 2.818 . S
Gd441 O461 2.395 . S
Gd441 O465 2.327 . S
Gd441 O466 2.377 . S
Gd441 O468 2.448 . S
Gd441 O469 2.506 . S
Gd441 O470 2.435 . S
Gd441 O471 2.717 . S
C442 O460 1.240 . S
C442 O461 1.240 . S
C443 Gd440 2.818 . S
C443 C444 1.510 . S
C443 O462 1.249 . S
C443 O463 1.252 . S
C444 C443 1.510 . S
C444 C445 1.404 . S
C444 C446 1.352 . S
C445 C444 1.404 . S
C445 C449 1.389 . S
C445 H472 0.930 . S
C446 C444 1.352 . S
C446 C448 1.374 . S
C446 H473 0.931 . S
C447 C448 1.359 . S
C447 C449 1.364 . S
C448 C446 1.374 . S
C448 C447 1.359 . S
C448 H474 0.931 . S
C449 C445 1.389 . S
C449 C447 1.364 . S
C449 H475 0.931 . S
C450 O464 1.256 . S
C450 O465 1.257 . S
C451 O466 1.240 . S
C451 O467 1.240 . S
C452 Gd441 2.818 . S
C452 C453 1.510 . S
C452 O468 1.249 . S
C452 O469 1.252 . S
C453 C452 1.510 . S
C453 C454 1.404 . S
C453 C455 1.352 . S
C454 C453 1.404 . S
C454 C458 1.389 . S
C454 H476 0.930 . S
C455 C453 1.352 . S
C455 C457 1.374 . S
C455 H477 0.931 . S
C456 C457 1.359 . S
C456 C458 1.364 . S
C457 C455 1.374 . S
C457 C456 1.359 . S
C457 H478 0.931 . S
C458 C454 1.389 . S
C458 C456 1.364 . S
C458 H479 0.931 . S
C459 O470 1.256 . S
C459 O471 1.257 . S
O460 Gd440 2.377 . S
O460 C442 1.240 . S
O461 Gd441 2.395 . S
O461 C442 1.240 . S
O462 Gd440 2.448 . S
O462 C443 1.249 . S
O463 Gd440 2.506 . S
O463 C443 1.252 . S
O464 Gd440 2.435 . S
O464 C450 1.256 . S
O465 Gd440 2.717 . S
O465 Gd441 2.327 . S
O465 C450 1.257 . S
O466 Gd441 2.377 . S
O466 C451 1.240 . S
O467 Gd440 2.395 . S
O467 C451 1.240 . S
O468 Gd441 2.448 . S
O468 C452 1.249 . S
O469 Gd441 2.506 . S
O469 C452 1.252 . S
O470 Gd441 2.435 . S
O470 C459 1.256 . S
O471 Gd440 2.327 . S
O471 Gd441 2.717 . S
O471 C459 1.257 . S
H472 C445 0.930 . S
H473 C446 0.931 . S
H474 C448 0.931 . S
H475 C449 0.931 . S
H476 C454 0.930 . S
H477 C455 0.931 . S
H478 C457 0.931 . S
H479 C458 0.931 . S
C480 C481 1.387 . S
C480 H484 0.950 . S
C480 C489 1.390 . S
C481 C480 1.387 . S
C481 C483 1.387 . S
H482 C489 0.950 . S
C483 C481 1.387 . S
C483 C485 1.390 . S
C483 H487 0.950 . S
H484 C480 0.950 . S
C485 C483 1.390 . S
C485 C486 1.387 . S
C485 H488 0.950 . S
C486 C485 1.387 . S
C486 C489 1.387 . S
H487 C483 0.950 . S
H488 C485 0.950 . S
C489 C480 1.390 . S
C489 H482 0.950 . S
C489 C486 1.387 . S
C490 C491 1.387 . S
C490 H494 0.950 . S
C490 C499 1.390 . S
C491 C490 1.387 . S
C491 C493 1.387 . S
H492 C499 0.950 . S
C493 C491 1.387 . S
C493 C495 1.390 . S
C493 H497 0.950 . S
H494 C490 0.950 . S
C495 C493 1.390 . S
C495 C496 1.387 . S
C495 H498 0.950 . S
C496 C495 1.387 . S
C496 C499 1.387 . S
H497 C493 0.950 . S
H498 C495 0.950 . S
C499 C490 1.390 . S
C499 H492 0.950 . S
C499 C496 1.387 . S
C500 C501 1.387 . S
C500 H504 0.950 1_554 S
C500 C509 1.390 . S
C501 C500 1.387 . S
C501 C503 1.387 . S
H502 C509 0.950 . S
C503 C501 1.387 . S
C503 C505 1.390 . S
C503 H507 0.950 . S
H504 C500 0.950 1_556 S
C505 C503 1.390 . S
C505 C506 1.387 . S
C505 H508 0.950 . S
C506 C505 1.387 . S
C506 C509 1.387 . S
H507 C503 0.950 . S
H508 C505 0.950 . S
C509 C500 1.390 . S
C509 H502 0.950 . S
C509 C506 1.387 . S
C510 C511 1.387 . S
C510 H514 0.950 . S
C510 C519 1.390 . S
C511 C510 1.387 . S
C511 C513 1.387 . S
H512 C519 0.950 . S
C513 C511 1.387 . S
C513 C515 1.390 . S
C513 H517 0.950 . S
H514 C510 0.950 . S
C515 C513 1.390 . S
C515 C516 1.387 . S
C515 H518 0.950 . S
C516 C515 1.387 . S
C516 C519 1.387 . S
H517 C513 0.950 . S
H518 C515 0.950 . S
C519 C510 1.390 . S
C519 H512 0.950 . S
C519 C516 1.387 . S
C520 C521 1.387 . S
C520 H524 0.950 . S
C520 C529 1.390 . S
C521 C520 1.387 . S
C521 C523 1.387 . S
H522 C529 0.950 . S
C523 C521 1.387 . S
C523 C525 1.390 . S
C523 H527 0.950 . S
H524 C520 0.950 . S
C525 C523 1.390 . S
C525 C526 1.387 . S
C525 H528 0.950 . S
C526 C525 1.387 . S
C526 C529 1.387 . S
H527 C523 0.950 . S
H528 C525 0.950 . S
C529 C520 1.390 . S
C529 H522 0.950 . S
C529 C526 1.387 . S
C530 C531 1.387 . S
C530 H534 0.950 . S
C530 C539 1.390 . S
C531 C530 1.387 . S
C531 C533 1.387 . S
H532 C539 0.950 . S
C533 C531 1.387 . S
C533 C535 1.390 . S
C533 H537 0.950 . S
H534 C530 0.950 . S
C535 C533 1.390 . S
C535 C536 1.387 . S
C535 H538 0.950 . S
C536 C535 1.387 . S
C536 C539 1.387 . S
H537 C533 0.950 . S
H538 C535 0.950 . S
C539 C530 1.390 . S
C539 H532 0.950 . S
C539 C536 1.387 . S
C540 C541 1.387 . S
C540 H544 0.950 1_556 S
C540 C549 1.390 . S
C541 C540 1.387 . S
C541 C543 1.387 . S
H542 C549 0.950 1_554 S
C543 C541 1.387 . S
C543 C545 1.390 . S
C543 H547 0.950 . S
H544 C540 0.950 1_554 S
C545 C543 1.390 . S
C545 C546 1.387 . S
C545 H548 0.950 . S
C546 C545 1.387 . S
C546 C549 1.387 . S
H547 C543 0.950 . S
H548 C545 0.950 . S
C549 C540 1.390 . S
C549 H542 0.950 1_556 S
C549 C546 1.387 . S
C550 C551 1.387 . S
C550 H554 0.950 . S
C550 C559 1.390 . S
C551 C550 1.387 . S
C551 C553 1.387 . S
H552 C559 0.950 . S
C553 C551 1.387 . S
C553 C555 1.390 . S
C553 H557 0.950 . S
H554 C550 0.950 . S
C555 C553 1.390 . S
C555 C556 1.387 . S
C555 H558 0.950 . S
C556 C555 1.387 . S
C556 C559 1.387 . S
H557 C553 0.950 . S
H558 C555 0.950 . S
C559 C550 1.390 . S
C559 H552 0.950 . S
C559 C556 1.387 . S
C560 C561 1.387 . S
C560 H564 0.950 . S
C560 C569 1.390 . S
C561 C560 1.387 . S
C561 C563 1.387 . S
H562 C569 0.950 . S
C563 C561 1.387 . S
C563 C565 1.390 . S
C563 H567 0.950 . S
H564 C560 0.950 . S
C565 C563 1.390 . S
C565 C566 1.387 . S
C565 H568 0.950 . S
C566 C565 1.387 . S
C566 C569 1.387 . S
H567 C563 0.950 . S
H568 C565 0.950 . S
C569 C560 1.390 . S
C569 H562 0.950 . S
C569 C566 1.387 . S
C570 C571 1.387 . S
C570 H574 0.950 . S
C570 C579 1.390 . S
C571 C570 1.387 . S
C571 C573 1.387 . S
H572 C579 0.950 . S
C573 C571 1.387 . S
C573 C575 1.390 . S
C573 H577 0.950 . S
H574 C570 0.950 . S
C575 C573 1.390 . S
C575 C576 1.387 . S
C575 H578 0.950 . S
C576 C575 1.387 . S
C576 C579 1.387 . S
H577 C573 0.950 . S
H578 C575 0.950 . S
C579 C570 1.390 . S
C579 H572 0.950 . S
C579 C576 1.387 . S
C580 C581 1.387 . S
C580 H584 0.950 . S
C580 C589 1.390 . S
C581 C580 1.387 . S
C581 C583 1.387 . S
H582 C589 0.950 . S
C583 C581 1.387 . S
C583 C585 1.390 . S
C583 H587 0.950 . S
H584 C580 0.950 . S
C585 C583 1.390 . S
C585 C586 1.387 . S
C585 H588 0.950 . S
C586 C585 1.387 . S
C586 C589 1.387 . S
H587 C583 0.950 . S
H588 C585 0.950 . S
C589 C580 1.390 . S
C589 H582 0.950 . S
C589 C586 1.387 . S
C590 C591 1.387 . S
C590 H594 0.950 . S
C590 C599 1.390 . S
C591 C590 1.387 . S
C591 C593 1.387 . S
H592 C599 0.950 . S
C593 C591 1.387 . S
C593 C595 1.390 . S
C593 H597 0.950 . S
H594 C590 0.950 . S
C595 C593 1.390 . S
C595 C596 1.387 . S
C595 H598 0.950 . S
C596 C595 1.387 . S
C596 C599 1.387 . S
H597 C593 0.950 . S
H598 C595 0.950 . S
C599 C590 1.390 . S
C599 H592 0.950 . S
C599 C596 1.387 . S
C600 C601 1.387 . S
C600 H604 0.950 . S
C600 C609 1.390 . S
C601 C600 1.387 . S
C601 C603 1.387 . S
H602 C609 0.950 . S
C603 C601 1.387 . S
C603 C605 1.390 . S
C603 H607 0.950 . S
H604 C600 0.950 . S
C605 C603 1.390 . S
C605 C606 1.387 . S
C605 H608 0.950 . S
C606 C605 1.387 . S
C606 C609 1.387 . S
H607 C603 0.950 . S
H608 C605 0.950 . S
C609 C600 1.390 . S
C609 H602 0.950 . S
C609 C606 1.387 . S
C610 C611 1.387 . S
C610 H614 0.950 . S
C610 C619 1.390 . S
C611 C610 1.387 . S
C611 C613 1.387 . S
H612 C619 0.950 1_545 S
C613 C611 1.387 . S
C613 C615 1.390 . S
C613 H617 0.950 . S
H614 C610 0.950 . S
C615 C613 1.390 . S
C615 C616 1.387 . S
C615 H618 0.950 . S
C616 C615 1.387 . S
C616 C619 1.387 . S
H617 C613 0.950 . S
H618 C615 0.950 . S
C619 C610 1.390 . S
C619 H612 0.950 1_565 S
C619 C616 1.387 . S
C620 C621 1.387 . S
C620 H624 0.950 . S
C620 C629 1.390 . S
C621 C620 1.387 . S
C621 C623 1.387 . S
H622 C629 0.950 . S
C623 C621 1.387 . S
C623 C625 1.390 . S
C623 H627 0.950 . S
H624 C620 0.950 . S
C625 C623 1.390 . S
C625 C626 1.387 . S
C625 H628 0.950 . S
C626 C625 1.387 . S
C626 C629 1.387 . S
H627 C623 0.950 . S
H628 C625 0.950 . S
C629 C620 1.390 . S
C629 H622 0.950 . S
C629 C626 1.387 . S
C630 C631 1.387 . S
C630 H634 0.950 . S
C630 C639 1.390 . S
C631 C630 1.387 . S
C631 C633 1.387 . S
H632 C639 0.950 . S
C633 C631 1.387 . S
C633 C635 1.390 1_554 S
C633 H637 0.950 . S
H634 C630 0.950 . S
C635 C633 1.390 1_556 S
C635 C636 1.387 . S
C635 H638 0.950 . S
C636 C635 1.387 . S
C636 C639 1.387 1_556 S
H637 C633 0.950 . S
H638 C635 0.950 . S
C639 C630 1.390 . S
C639 H632 0.950 . S
C639 C636 1.387 1_554 S
C640 C641 1.387 . S
C640 H644 0.950 . S
C640 C649 1.390 . S
C641 C640 1.387 . S
C641 C643 1.387 . S
H642 C649 0.950 . S
C643 C641 1.387 . S
C643 C645 1.390 . S
C643 H647 0.950 . S
H644 C640 0.950 . S
C645 C643 1.390 . S
C645 C646 1.387 . S
C645 H648 0.950 . S
C646 C645 1.387 . S
C646 C649 1.387 . S
H647 C643 0.950 . S
H648 C645 0.950 . S
C649 C640 1.390 . S
C649 H642 0.950 . S
C649 C646 1.387 . S
C650 C651 1.387 1_556 S
C650 H654 0.950 1_556 S
C650 C659 1.390 . S
C651 C650 1.387 1_554 S
C651 C653 1.387 1_554 S
H652 C659 0.950 . S
C653 C651 1.387 1_556 S
C653 C655 1.390 . S
C653 H657 0.964 . S
H654 C650 0.950 1_554 S
C655 C653 1.390 . S
C655 C656 1.387 . S
C655 H658 0.950 . S
C656 C655 1.387 . S
C656 C659 1.387 . S
H657 C653 0.964 . S
H658 C655 0.950 . S
C659 C650 1.390 . S
C659 H652 0.950 . S
C659 C656 1.387 . S
C660 C661 1.387 . S
C660 H664 0.950 . S
C660 C669 1.390 . S
C661 C660 1.387 . S
C661 C663 1.387 . S
H662 C669 0.950 . S
C663 C661 1.387 . S
C663 C665 1.390 . S
C663 H667 0.950 . S
H664 C660 0.950 . S
C665 C663 1.390 . S
C665 C666 1.387 . S
C665 H668 0.950 . S
C666 C665 1.387 . S
C666 C669 1.387 . S
H667 C663 0.950 . S
H668 C665 0.950 . S
C669 C660 1.390 . S
C669 H662 0.950 . S
C669 C666 1.387 . S
C670 C671 1.387 . S
C670 H674 0.950 . S
C670 C679 1.390 . S
C671 C670 1.387 . S
C671 C673 1.387 . S
H672 C679 0.950 . S
C673 C671 1.387 . S
C673 C675 1.390 . S
C673 H677 0.950 . S
H674 C670 0.950 . S
C675 C673 1.390 . S
C675 C676 1.387 . S
C675 H678 0.950 . S
C676 C675 1.387 . S
C676 C679 1.387 . S
H677 C673 0.950 . S
H678 C675 0.950 . S
C679 C670 1.390 . S
C679 H672 0.950 . S
C679 C676 1.387 . S
C680 C681 1.387 . S
C680 H684 0.950 . S
C680 C689 1.390 . S
C681 C680 1.387 . S
C681 C683 1.387 . S
H682 C689 0.950 . S
C683 C681 1.387 . S
C683 C685 1.390 . S
C683 H687 0.950 . S
H684 C680 0.950 . S
C685 C683 1.390 . S
C685 C686 1.387 . S
C685 H688 0.950 . S
C686 C685 1.387 . S
C686 C689 1.387 . S
H687 C683 0.950 . S
H688 C685 0.950 . S
C689 C680 1.390 . S
C689 H682 0.950 . S
C689 C686 1.387 . S
C690 C691 1.387 . S
C690 H694 0.950 . S
C690 C699 1.390 1_545 S
C691 C690 1.387 . S
C691 C693 1.387 . S
H692 C699 0.950 . S
C693 C691 1.387 . S
C693 C695 1.390 1_545 S
C693 H697 0.950 . S
H694 C690 0.950 . S
C695 C693 1.390 1_565 S
C695 C696 1.387 . S
C695 H698 0.950 . S
C696 C695 1.387 . S
C696 C699 1.387 . S
H697 C693 0.950 . S
H698 C695 0.950 . S
C699 C690 1.390 1_565 S
C699 H692 0.950 . S
C699 C696 1.387 . S
C700 C701 1.387 . S
C700 H704 0.939 1_556 S
C700 C709 1.390 . S
C701 C700 1.387 . S
C701 C703 1.387 . S
H702 C709 0.950 . S
C703 C701 1.387 . S
C703 C705 1.390 . S
C703 H707 0.950 . S
H704 C700 0.939 1_554 S
C705 C703 1.390 . S
C705 C706 1.387 . S
C705 H708 0.950 . S
C706 C705 1.387 . S
C706 C709 1.387 . S
H707 C703 0.950 . S
H708 C705 0.950 . S
C709 C700 1.390 . S
C709 H702 0.950 . S
C709 C706 1.387 . S
C710 C711 1.387 . S
C710 H714 0.950 . S
C710 C719 1.390 1_545 S
C711 C710 1.387 . S
C711 C713 1.387 . S
H712 C719 0.950 . S
C713 C711 1.387 . S
C713 C715 1.390 1_545 S
C713 H717 0.950 . S
H714 C710 0.950 . S
C715 C713 1.390 1_565 S
C715 C716 1.387 . S
C715 H718 0.950 . S
C716 C715 1.387 . S
C716 C719 1.387 . S
H717 C713 0.950 . S
H718 C715 0.950 . S
C719 C710 1.390 1_565 S
C719 H712 0.950 . S
C719 C716 1.387 . S
C720 C721 1.387 . S
C720 H724 0.950 . S
C720 C729 1.390 . S
C721 C720 1.387 . S
C721 C723 1.387 . S
H722 C729 0.950 . S
C723 C721 1.387 . S
C723 C725 1.390 . S
C723 H727 0.950 . S
H724 C720 0.950 . S
C725 C723 1.390 . S
C725 C726 1.387 . S
C725 H728 0.950 . S
C726 C725 1.387 . S
C726 C729 1.387 . S
H727 C723 0.950 . S
H728 C725 0.950 . S
C729 C720 1.390 . S
C729 H722 0.950 . S
C729 C726 1.387 . S
C730 C731 1.387 . S
C730 H734 0.950 . S
C730 C739 1.390 . S
C731 C730 1.387 . S
C731 C733 1.387 . S
H732 C739 0.950 . S
C733 C731 1.387 . S
C733 C735 1.390 . S
C733 H737 0.950 . S
H734 C730 0.950 . S
C735 C733 1.390 . S
C735 C736 1.387 . S
C735 H738 0.950 . S
C736 C735 1.387 . S
C736 C739 1.387 . S
H737 C733 0.950 . S
H738 C735 0.950 . S
C739 C730 1.390 . S
C739 H732 0.950 . S
C739 C736 1.387 . S
C740 C741 1.387 . S
C740 H744 0.950 . S
C740 C749 1.390 . S
C741 C740 1.387 . S
C741 C743 1.387 . S
H742 C749 0.950 . S
C743 C741 1.387 . S
C743 C745 1.390 . S
C743 H747 0.950 . S
H744 C740 0.950 . S
C745 C743 1.390 . S
C745 C746 1.387 . S
C745 H748 0.950 . S
C746 C745 1.387 . S
C746 C749 1.387 . S
H747 C743 0.950 . S
H748 C745 0.950 . S
C749 C740 1.390 . S
C749 H742 0.950 . S
C749 C746 1.387 . S
C750 C751 1.387 . S
C750 H754 0.950 . S
C750 C759 1.390 . S
C751 C750 1.387 . S
C751 C753 1.387 . S
H752 C759 0.950 . S
C753 C751 1.387 . S
C753 C755 1.390 . S
C753 H757 0.950 . S
H754 C750 0.950 . S
C755 C753 1.390 . S
C755 C756 1.387 . S
C755 H758 0.950 . S
C756 C755 1.387 . S
C756 C759 1.387 . S
H757 C753 0.950 . S
H758 C755 0.950 . S
C759 C750 1.390 . S
C759 H752 0.950 . S
C759 C756 1.387 . S
C760 C761 1.387 . S
C760 H764 0.950 . S
C760 C769 1.390 . S
C761 C760 1.387 . S
C761 C763 1.387 . S
H762 C769 0.950 . S
C763 C761 1.387 . S
C763 C765 1.390 . S
C763 H767 0.950 . S
H764 C760 0.950 . S
C765 C763 1.390 . S
C765 C766 1.387 . S
C765 H768 0.950 . S
C766 C765 1.387 . S
C766 C769 1.387 . S
H767 C763 0.950 . S
H768 C765 0.950 . S
C769 C760 1.390 . S
C769 H762 0.950 . S
C769 C766 1.387 . S
C770 C771 1.387 . S
C770 H774 0.950 . S
C770 C779 1.390 . S
C771 C770 1.387 . S
C771 C773 1.387 . S
H772 C779 0.950 . S
C773 C771 1.387 . S
C773 C775 1.390 . S
C773 H777 0.950 . S
H774 C770 0.950 . S
C775 C773 1.390 . S
C775 C776 1.387 . S
C775 H778 0.950 . S
C776 C775 1.387 . S
C776 C779 1.387 . S
H777 C773 0.950 . S
H778 C775 0.950 . S
C779 C770 1.390 . S
C779 H772 0.950 . S
C779 C776 1.387 . S
C780 C781 1.387 . S
C780 H784 0.950 . S
C780 C789 1.390 1_455 S
C781 C780 1.387 . S
C781 C783 1.387 . S
H782 C789 0.950 . S
C783 C781 1.387 . S
C783 C785 1.390 1_455 S
C783 H787 0.950 . S
H784 C780 0.950 . S
C785 C783 1.390 1_655 S
C785 C786 1.387 . S
C785 H788 0.950 . S
C786 C785 1.387 . S
C786 C789 1.387 . S
H787 C783 0.950 . S
H788 C785 0.950 . S
C789 C780 1.390 1_655 S
C789 H782 0.950 . S
C789 C786 1.387 . S
C790 C791 1.387 . S
C790 H794 0.950 . S
C790 C799 1.390 . S
C791 C790 1.387 . S
C791 C793 1.387 . S
H792 C799 0.950 . S
C793 C791 1.387 . S
C793 C795 1.390 . S
C793 H797 0.950 . S
H794 C790 0.950 . S
C795 C793 1.390 . S
C795 C796 1.387 . S
C795 H798 0.950 . S
C796 C795 1.387 . S
C796 C799 1.387 . S
H797 C793 0.950 . S
H798 C795 0.950 . S
C799 C790 1.390 . S
C799 H792 0.950 . S
C799 C796 1.387 . S
C800 C801 1.387 . S
C800 H804 0.950 . S
C800 C809 1.390 . S
C801 C800 1.387 . S
C801 C803 1.387 . S
H802 C809 0.950 . S
C803 C801 1.387 . S
C803 C805 1.390 . S
C803 H807 0.950 . S
H804 C800 0.950 . S
C805 C803 1.390 . S
C805 C806 1.387 . S
C805 H808 0.950 . S
C806 C805 1.387 . S
C806 C809 1.387 . S
H807 C803 0.950 . S
H808 C805 0.950 . S
C809 C800 1.390 . S
C809 H802 0.950 . S
C809 C806 1.387 . S
C810 C811 1.387 . S
C810 H814 0.950 . S
C810 C819 1.390 . S
C811 C810 1.387 . S
C811 C813 1.387 . S
H812 C819 0.950 . S
C813 C811 1.387 . S
C813 C815 1.390 . S
C813 H817 0.950 . S
H814 C810 0.950 . S
C815 C813 1.390 . S
C815 C816 1.387 . S
C815 H818 0.950 . S
C816 C815 1.387 . S
C816 C819 1.387 . S
H817 C813 0.950 . S
H818 C815 0.950 . S
C819 C810 1.390 . S
C819 H812 0.950 . S
C819 C816 1.387 . S
C820 C821 1.387 . S
C820 H824 0.950 . S
C820 C829 1.390 . S
C821 C820 1.387 . S
C821 C823 1.387 . S
H822 C829 0.950 . S
C823 C821 1.387 . S
C823 C825 1.390 . S
C823 H827 0.950 1_556 S
H824 C820 0.950 . S
C825 C823 1.390 . S
C825 C826 1.387 . S
C825 H828 0.950 1_556 S
C826 C825 1.387 . S
C826 C829 1.387 . S
H827 C823 0.950 1_554 S
H828 C825 0.950 1_554 S
C829 C820 1.390 . S
C829 H822 0.950 . S
C829 C826 1.387 . S
C830 C831 1.387 . S
C830 H834 0.950 . S
C830 C839 1.390 . S
C831 C830 1.387 . S
C831 C833 1.387 . S
H832 C839 0.950 . S
C833 C831 1.387 . S
C833 C835 1.390 . S
C833 H837 0.950 . S
H834 C830 0.950 . S
C835 C833 1.390 . S
C835 C836 1.387 . S
C835 H838 0.950 . S
C836 C835 1.387 . S
C836 C839 1.387 . S
H837 C833 0.950 . S
H838 C835 0.950 . S
C839 C830 1.390 . S
C839 H832 0.950 . S
C839 C836 1.387 . S
C481 C11 1.387 . S
C486 C459 1.434 . S
C491 C371 1.879 . S
C496 C59 1.988 . S
C501 C91 1.443 . S
C506 C339 1.529 . S
C511 C139 2.176 . S
C516 C419 2.173 . S
C521 C179 1.878 . S
C526 C411 1.785 . S
C531 C211 1.573 . S
C536 C451 1.599 . S
C541 C379 2.084 . S
C546 C259 2.086 . S
C551 C291 1.644 . S
C556 C331 1.696 . S
C561 C131 1.653 . S
C566 C171 1.671 . S
C571 C19 1.885 . S
C576 C219 1.887 . S
C581 C51 1.661 . S
C586 C251 1.698 . S
C591 C299 1.949 . S
C596 C99 1.954 . S
C601 C16 2.210 . S
C606 C330 2.215 . S
C611 C47 1.395 . S
C616 C410 1.339 . S
C621 C450 2.132 . S
C626 C96 2.125 . S
C631 C127 1.609 . S
C636 C362 1.586 . S
C641 C167 1.277 . S
C646 C370 1.230 . S
C651 C322 2.393 . S
C656 C216 2.233 . S
C661 C402 1.479 . S
C666 C247 1.497 . S
C671 C442 2.325 . S
C676 C296 2.176 . S
C681 C10 2.502 . S
C686 C136 2.503 . S
C691 C7 1.750 . S
C696 C42 1.722 . S
C701 C56 2.277 . S
C706 C90 2.284 . S
C711 C122 1.625 . S
C716 C87 1.651 . S
C721 C207 1.603 . S
C726 C162 1.559 . S
C731 C210 1.613 . S
C736 C256 1.622 . S
C741 C242 1.495 . S
C746 C287 1.526 . S
C751 C176 1.444 . S
C756 C290 1.455 . S
C761 C336 1.805 . S
C766 C130 1.781 . S
C771 C202 2.303 . S
C776 C376 2.180 . S
C781 C327 1.543 . S
C786 C250 1.432 . S
C791 C407 1.791 . S
C796 C282 1.752 . S
C801 C170 1.382 . S
C806 C447 1.468 . S
C811 C456 1.697 . S
C816 C50 1.674 . S
C821 C82 1.645 . S
C826 C367 1.666 . S
C831 C416 2.088 . S
C836 C2 2.235 1_655 S
