# Generated by pormake.
# Topology uou, (4)-cn, num edge types: 1
# Building blocks:
#     Node 0, Type 0, BuildingBlock: GALJAG_clean_sbu_0, # of connection points: 4
#     Node 1, Type 0, BuildingBlock: GALJAG_clean_sbu_0, # of connection points: 4
#     Node 2, Type 0, BuildingBlock: GALJAG_clean_sbu_0, # of connection points: 4
#     Node 3, Type 0, BuildingBlock: GALJAG_clean_sbu_0, # of connection points: 4
#     Node 4, Type 0, BuildingBlock: GALJAG_clean_sbu_0, # of connection points: 4
#     Node 5, Type 0, BuildingBlock: GALJAG_clean_sbu_0, # of connection points: 4
#     Node 6, Type 0, BuildingBlock: GALJAG_clean_sbu_0, # of connection points: 4
#     Node 7, Type 0, BuildingBlock: GALJAG_clean_sbu_0, # of connection points: 4
#     Node 8, Type 0, BuildingBlock: GALJAG_clean_sbu_0, # of connection points: 4
#     Node 9, Type 0, BuildingBlock: GALJAG_clean_sbu_0, # of connection points: 4
#     Node 10, Type 0, BuildingBlock: GALJAG_clean_sbu_0, # of connection points: 4
#     Node 11, Type 0, BuildingBlock: GALJAG_clean_sbu_0, # of connection points: 4
#     Node 12, Type 0, BuildingBlock: GALJAG_clean_sbu_0, # of connection points: 4
#     Node 13, Type 0, BuildingBlock: GALJAG_clean_sbu_0, # of connection points: 4
#     Node 14, Type 0, BuildingBlock: GALJAG_clean_sbu_0, # of connection points: 4
#     Node 15, Type 0, BuildingBlock: GALJAG_clean_sbu_0, # of connection points: 4
#     Edge 16, Type (0, 0), BuildingBlock: OJICUG_clean_linker_0, # of connection points: 2
#     Edge 17, Type (0, 0), BuildingBlock: OJICUG_clean_linker_0, # of connection points: 2
#     Edge 18, Type (0, 0), BuildingBlock: OJICUG_clean_linker_0, # of connection points: 2
#     Edge 19, Type (0, 0), BuildingBlock: OJICUG_clean_linker_0, # of connection points: 2
#     Edge 20, Type (0, 0), BuildingBlock: OJICUG_clean_linker_0, # of connection points: 2
#     Edge 21, Type (0, 0), BuildingBlock: OJICUG_clean_linker_0, # of connection points: 2
#     Edge 22, Type (0, 0), BuildingBlock: OJICUG_clean_linker_0, # of connection points: 2
#     Edge 23, Type (0, 0), BuildingBlock: OJICUG_clean_linker_0, # of connection points: 2
#     Edge 24, Type (0, 0), BuildingBlock: OJICUG_clean_linker_0, # of connection points: 2
#     Edge 25, Type (0, 0), BuildingBlock: OJICUG_clean_linker_0, # of connection points: 2
#     Edge 26, Type (0, 0), BuildingBlock: OJICUG_clean_linker_0, # of connection points: 2
#     Edge 27, Type (0, 0), BuildingBlock: OJICUG_clean_linker_0, # of connection points: 2
#     Edge 28, Type (0, 0), BuildingBlock: OJICUG_clean_linker_0, # of connection points: 2
#     Edge 29, Type (0, 0), BuildingBlock: OJICUG_clean_linker_0, # of connection points: 2
#     Edge 30, Type (0, 0), BuildingBlock: OJICUG_clean_linker_0, # of connection points: 2
#     Edge 31, Type (0, 0), BuildingBlock: OJICUG_clean_linker_0, # of connection points: 2
#     Edge 32, Type (0, 0), BuildingBlock: OJICUG_clean_linker_0, # of connection points: 2
#     Edge 33, Type (0, 0), BuildingBlock: OJICUG_clean_linker_0, # of connection points: 2
#     Edge 34, Type (0, 0), BuildingBlock: OJICUG_clean_linker_0, # of connection points: 2
#     Edge 35, Type (0, 0), BuildingBlock: OJICUG_clean_linker_0, # of connection points: 2
#     Edge 36, Type (0, 0), BuildingBlock: OJICUG_clean_linker_0, # of connection points: 2
#     Edge 37, Type (0, 0), BuildingBlock: OJICUG_clean_linker_0, # of connection points: 2
#     Edge 38, Type (0, 0), BuildingBlock: OJICUG_clean_linker_0, # of connection points: 2
#     Edge 39, Type (0, 0), BuildingBlock: OJICUG_clean_linker_0, # of connection points: 2
#     Edge 40, Type (0, 0), BuildingBlock: OJICUG_clean_linker_0, # of connection points: 2
#     Edge 41, Type (0, 0), BuildingBlock: OJICUG_clean_linker_0, # of connection points: 2
#     Edge 42, Type (0, 0), BuildingBlock: OJICUG_clean_linker_0, # of connection points: 2
#     Edge 43, Type (0, 0), BuildingBlock: OJICUG_clean_linker_0, # of connection points: 2
#     Edge 44, Type (0, 0), BuildingBlock: OJICUG_clean_linker_0, # of connection points: 2
#     Edge 45, Type (0, 0), BuildingBlock: OJICUG_clean_linker_0, # of connection points: 2
#     Edge 46, Type (0, 0), BuildingBlock: OJICUG_clean_linker_0, # of connection points: 2
#     Edge 47, Type (0, 0), BuildingBlock: OJICUG_clean_linker_0, # of connection points: 2
# Relax obj value: 0.005
# Max RMSD: 0.017
# Mean RMSD: 0.017
data_MOF--net-uou--node1-GALJAG_clean_sbu_0--edge1-OJICUG_clean_linker_0
_symmetry_space_group_name_H-M    P1
_symmetry_Int_Tables_number       1
_symmetry_cell_setting            triclinic
loop_
_symmetry_equiv_pos_as_xyz
'x, y, z'
_cell_length_a     26.241685
_cell_length_b     31.658896
_cell_length_c     39.629899
_cell_angle_alpha  90.016411
_cell_angle_beta   90.009149
_cell_angle_gamma 89.998867
loop_
_atom_site_label
_atom_site_type_symbol
_atom_site_fract_x
_atom_site_fract_y
_atom_site_fract_z
_atom_type_partial_charge
In0 In 0.05989 0.08566 0.11637 0.0
O1 O 0.14479 0.08229 0.10303 0.0
O2 O 0.11558 0.03847 0.13883 0.0
C3 C 0.03075 0.16597 0.10483 0.0
C4 C 0.02704 0.04482 0.0609 0.0
C5 C 0.02697 0.08132 0.18034 0.0
O6 O 0.07683 0.1561 0.11016 0.0
O7 O 7e-05 0.13525 0.10462 0.0
O8 O 0.0157 0.05316 0.15887 0.0
O9 O 0.05448 0.11107 0.16946 0.0
C10 C 0.1533 0.05107 0.12204 0.0
O11 O 0.00539 0.04034 0.08921 0.0
O12 O 0.0643 0.06987 0.06087 0.0
In13 In 0.43094 0.91854 0.11697 0.0
O14 O 0.34594 0.9221 0.10401 0.0
O15 O 0.37615 0.96703 0.13861 0.0
C16 C 0.45993 0.83822 0.10538 0.0
C17 C 0.46424 0.95855 0.0613 0.0
C18 C 0.46331 0.92254 0.18109 0.0
O19 O 0.41381 0.84813 0.11055 0.0
O20 O 0.49069 0.86888 0.10543 0.0
O21 O 0.47553 0.9504 0.15961 0.0
O22 O 0.43507 0.89327 0.17014 0.0
C23 C 0.33806 0.95409 0.12233 0.0
O24 O 0.48592 0.96319 0.0896 0.0
O25 O 0.42664 0.93385 0.06141 0.0
In26 In 0.56097 0.91801 0.38394 0.0
O27 O 0.50627 0.96292 0.4113 0.0
O28 O 0.56525 0.93328 0.43954 0.0
C29 C 0.52871 0.92223 0.3198 0.0
C30 C 0.6541 0.95314 0.37859 0.0
C31 C 0.53168 0.83774 0.39543 0.0
O32 O 0.51653 0.95005 0.34134 0.0
O33 O 0.55683 0.89288 0.33071 0.0
O34 O 0.57785 0.84759 0.3904 0.0
O35 O 0.50098 0.86845 0.39529 0.0
C36 C 0.52784 0.95819 0.43962 0.0
O37 O 0.64604 0.9211 0.39681 0.0
O38 O 0.61604 0.96633 0.36242 0.0
In39 In 0.93265 0.0842 0.38387 0.0
O40 O 0.98691 0.03898 0.41129 0.0
O41 O 0.92846 0.06938 0.43952 0.0
C42 C 0.96334 0.08044 0.31939 0.0
C43 C 0.83969 0.04894 0.3787 0.0
C44 C 0.96286 0.16422 0.39535 0.0
O45 O 0.97691 0.05293 0.34082 0.0
O46 O 0.93465 0.10924 0.33059 0.0
O47 O 0.91645 0.15457 0.39113 0.0
O48 O 0.99342 0.13343 0.39442 0.0
C49 C 0.96548 0.04408 0.43962 0.0
O50 O 0.8474 0.08171 0.39618 0.0
O51 O 0.87805 0.03493 0.36329 0.0
In52 In 0.93255 0.91618 0.88449 0.0
O53 O 0.98705 0.96149 0.91165 0.0
O54 O 0.92814 0.93197 0.93999 0.0
C55 C 0.96546 0.92051 0.82052 0.0
C56 C 0.83914 0.95077 0.87882 0.0
C57 C 0.96168 0.83587 0.89603 0.0
O58 O 0.97673 0.94868 0.84199 0.0
O59 O 0.93795 0.89076 0.83141 0.0
O60 O 0.9156 0.84574 0.8907 0.0
O61 O 0.99237 0.86658 0.89624 0.0
C62 C 0.96539 0.95702 0.93996 0.0
O63 O 0.84765 0.91955 0.89783 0.0
O64 O 0.87685 0.96337 0.86203 0.0
In65 In 0.5615 0.0833 0.88389 0.0
O66 O 0.6465 0.07974 0.89686 0.0
O67 O 0.61629 0.03481 0.86225 0.0
C68 C 0.53251 0.16361 0.89548 0.0
C69 C 0.52819 0.04329 0.93956 0.0
C70 C 0.52913 0.0793 0.81977 0.0
O71 O 0.57862 0.15371 0.89031 0.0
O72 O 0.50174 0.13295 0.89543 0.0
O73 O 0.5169 0.05144 0.84126 0.0
O74 O 0.55736 0.10857 0.83072 0.0
C75 C 0.65438 0.04775 0.87853 0.0
O76 O 0.50652 0.03865 0.91126 0.0
O77 O 0.56579 0.06798 0.93945 0.0
In78 In 0.43147 0.08382 0.61692 0.0
O79 O 0.48617 0.03891 0.58956 0.0
O80 O 0.42719 0.06855 0.56133 0.0
C81 C 0.46373 0.0796 0.68106 0.0
C82 C 0.33833 0.04869 0.62227 0.0
C83 C 0.46075 0.16409 0.60543 0.0
O84 O 0.47591 0.05178 0.65952 0.0
O85 O 0.4356 0.10895 0.67015 0.0
O86 O 0.41458 0.15425 0.61046 0.0
O87 O 0.49146 0.13339 0.60557 0.0
C88 C 0.46459 0.04365 0.56124 0.0
O89 O 0.3464 0.08073 0.60405 0.0
O90 O 0.3764 0.0355 0.63844 0.0
In91 In 0.05979 0.91763 0.61699 0.0
O92 O 0.00553 0.96285 0.58957 0.0
O93 O 0.06398 0.93246 0.56134 0.0
C94 C 0.02909 0.9214 0.68147 0.0
C95 C 0.15274 0.95289 0.62216 0.0
C96 C 0.02957 0.83762 0.60551 0.0
O97 O 0.01553 0.9489 0.66004 0.0
O98 O 0.05779 0.89259 0.67027 0.0
O99 O 0.07599 0.84727 0.60973 0.0
O100 O -0.00099 0.86841 0.60644 0.0
C101 C 0.02696 0.95776 0.56124 0.0
O102 O 0.14504 0.92013 0.60468 0.0
O103 O 0.11439 0.9669 0.63757 0.0
In104 In 0.55964 0.58524 0.11661 0.0
O105 O 0.64466 0.58239 0.10358 0.0
O106 O 0.61513 0.5374 0.13835 0.0
C107 C 0.52977 0.66536 0.10514 0.0
C108 C 0.52687 0.5446 0.06104 0.0
C109 C 0.52782 0.58111 0.18084 0.0
O110 O 0.57605 0.65566 0.10987 0.0
O111 O 0.49919 0.63457 0.10553 0.0
O112 O 0.51552 0.55323 0.15937 0.0
O113 O 0.5558 0.61048 0.16981 0.0
C114 C 0.65301 0.55062 0.12203 0.0
O115 O 0.50547 0.5397 0.0894 0.0
O116 O 0.56383 0.56996 0.06102 0.0
In117 In 0.93129 0.41899 0.11725 0.0
O118 O 0.84618 0.42211 0.10457 0.0
O119 O 0.87671 0.46807 0.1382 0.0
C120 C 0.96095 0.33884 0.10575 0.0
C121 C 0.96448 0.45877 0.06145 0.0
C122 C 0.96266 0.42284 0.18159 0.0
O123 O 0.91465 0.3486 0.11034 0.0
O124 O 0.99162 0.36957 0.10638 0.0
O125 O 0.97585 0.4504 0.1601 0.0
O126 O 0.93396 0.39395 0.17053 0.0
C127 C 0.83845 0.4546 0.12237 0.0
O128 O 0.9859 0.46386 0.08979 0.0
O129 O 0.9272 0.43374 0.0616 0.0
In130 In 0.06128 0.41754 0.38422 0.0
O131 O 0.00635 0.4624 0.41145 0.0
O132 O 0.06557 0.4332 0.43975 0.0
C133 C 0.02802 0.42197 0.32031 0.0
C134 C 0.15451 0.45254 0.3787 0.0
C135 C 0.03263 0.33711 0.39575 0.0
O136 O 0.01684 0.45008 0.34185 0.0
O137 O 0.05565 0.39223 0.3311 0.0
O138 O 0.07861 0.34709 0.39017 0.0
O139 O 0.00185 0.36775 0.39617 0.0
C140 C 0.02801 0.45794 0.43977 0.0
O141 O 0.14616 0.42118 0.39759 0.0
O142 O 0.11673 0.46506 0.36192 0.0
In143 In 0.43237 0.58466 0.38412 0.0
O144 O 0.48671 0.53933 0.41139 0.0
O145 O 0.4283 0.56958 0.43974 0.0
C146 C 0.46421 0.58077 0.3199 0.0
C147 C 0.33932 0.54945 0.37873 0.0
C148 C 0.46192 0.66485 0.39562 0.0
O149 O 0.47681 0.55298 0.34134 0.0
O150 O 0.4359 0.60993 0.33095 0.0
O151 O 0.41568 0.65506 0.39083 0.0
O152 O 0.49259 0.63412 0.39528 0.0
C153 C 0.46533 0.54429 0.43975 0.0
O154 O 0.34734 0.5814 0.39708 0.0
O155 O 0.37736 0.53635 0.36249 0.0
In156 In 0.43278 0.41659 0.88425 0.0
O157 O 0.34776 0.41944 0.89728 0.0
O158 O 0.37729 0.46444 0.86251 0.0
C159 C 0.46266 0.33648 0.89572 0.0
C160 C 0.46555 0.45724 0.93982 0.0
C161 C 0.4646 0.42073 0.82002 0.0
O162 O 0.41638 0.34617 0.89099 0.0
O163 O 0.49323 0.36727 0.89533 0.0
O164 O 0.4769 0.4486 0.84149 0.0
O165 O 0.43662 0.39135 0.83105 0.0
C166 C 0.33941 0.45122 0.87883 0.0
O167 O 0.48695 0.46214 0.91146 0.0
O168 O 0.4286 0.43188 0.93983 0.0
In169 In 0.06113 0.58284 0.88361 0.0
O170 O 0.14624 0.57972 0.89629 0.0
O171 O 0.11571 0.53376 0.86266 0.0
C172 C 0.03147 0.66299 0.89511 0.0
C173 C 0.02794 0.54306 0.93941 0.0
C174 C 0.02976 0.57899 0.81927 0.0
O175 O 0.07777 0.65323 0.89052 0.0
O176 O 0.0008 0.63227 0.89448 0.0
O177 O 0.01657 0.55143 0.84076 0.0
O178 O 0.05846 0.60788 0.83033 0.0
C179 C 0.15397 0.54723 0.87849 0.0
O180 O 0.00652 0.53797 0.91107 0.0
O181 O 0.06522 0.56809 0.93926 0.0
In182 In 0.93114 0.5843 0.61664 0.0
O183 O 0.98607 0.53944 0.58941 0.0
O184 O 0.92685 0.56863 0.56111 0.0
C185 C 0.9644 0.57987 0.68055 0.0
C186 C 0.83792 0.5493 0.62216 0.0
C187 C 0.95979 0.66473 0.60511 0.0
O188 O 0.97558 0.55176 0.65901 0.0
O189 O 0.93677 0.60961 0.66976 0.0
O190 O 0.91382 0.65475 0.61069 0.0
O191 O 0.99058 0.63409 0.60469 0.0
C192 C 0.96441 0.54389 0.56109 0.0
O193 O 0.84626 0.58066 0.60327 0.0
O194 O 0.8757 0.53678 0.63894 0.0
In195 In 0.56005 0.41718 0.61673 0.0
O196 O 0.50572 0.46251 0.58947 0.0
O197 O 0.56413 0.43226 0.56112 0.0
C198 C 0.52821 0.42106 0.68096 0.0
C199 C 0.65311 0.45239 0.62213 0.0
C200 C 0.53051 0.33698 0.60524 0.0
O201 O 0.51561 0.44886 0.65951 0.0
O202 O 0.55652 0.3919 0.66991 0.0
O203 O 0.57675 0.34678 0.61003 0.0
O204 O 0.49984 0.36771 0.60558 0.0
C205 C 0.52709 0.45754 0.56111 0.0
O206 O 0.64508 0.42044 0.60378 0.0
O207 O 0.61507 0.46548 0.63836 0.0
C208 C 0.2672 0.98941 0.09176 0.0
C209 C 0.2898 0.97747 0.12239 0.0
H210 H 0.20689 0.02404 0.06779 0.0
C211 C 0.26827 0.99104 0.15293 0.0
H212 H 0.2838 0.97974 0.06795 0.0
C213 C 0.22375 0.01529 0.15285 0.0
C214 C 0.20173 0.02792 0.12222 0.0
H215 H 0.28555 0.98243 0.17679 0.0
H216 H 0.20681 0.02457 0.17666 0.0
C217 C 0.22388 0.01512 0.09167 0.0
C218 C 0.72232 0.99216 0.34806 0.0
C219 C 0.70265 0.97618 0.37841 0.0
H220 H 0.78253 0.02732 0.3244 0.0
C221 C 0.72749 0.98529 0.4089 0.0
H222 H 0.70339 0.98569 0.32431 0.0
C223 C 0.7711 0.01067 0.40909 0.0
C224 C 0.79122 0.02598 0.37868 0.0
H225 H 0.71242 0.97373 0.43262 0.0
H226 H 0.78982 0.01748 0.43285 0.0
C227 C 0.76707 0.01611 0.34812 0.0
C228 C 0.76856 0.98673 0.90919 0.0
C229 C 0.79071 0.97392 0.87864 0.0
H230 H 0.70864 0.0221 0.93292 0.0
C231 C 0.76868 0.98655 0.84801 0.0
H232 H 0.78555 0.9778 0.93307 0.0
C233 C 0.72416 0.0108 0.84794 0.0
C234 C 0.70264 0.02437 0.87847 0.0
H235 H 0.78562 0.97727 0.8242 0.0
H236 H 0.70688 0.0194 0.82407 0.0
C237 C 0.72524 0.01244 0.9091 0.0
C238 C 0.22536 0.98572 0.65274 0.0
C239 C 0.20122 0.97585 0.62218 0.0
H240 H 0.28904 0.01615 0.67655 0.0
C241 C 0.22134 0.99116 0.59177 0.0
H242 H 0.2099 0.97452 0.67646 0.0
C243 C 0.26495 0.01653 0.59196 0.0
C244 C 0.28979 0.02565 0.62246 0.0
H245 H 0.20262 0.98434 0.56801 0.0
H246 H 0.28002 0.02809 0.56824 0.0
C247 C 0.27011 0.00968 0.65281 0.0
C248 C 0.76878 0.49171 0.15292 0.0
C249 C 0.79005 0.47777 0.12241 0.0
H250 H 0.70733 0.52529 0.17662 0.0
C251 C 0.76699 0.48907 0.09178 0.0
H252 H 0.78641 0.48359 0.17678 0.0
C253 C 0.72346 0.51453 0.09165 0.0
C254 C 0.70158 0.52771 0.12219 0.0
H255 H 0.78338 0.4791 0.06798 0.0
H256 H 0.70609 0.52298 0.06778 0.0
C257 C 0.72407 0.51571 0.15283 0.0
C258 C 0.2687 0.51377 0.34803 0.0
C259 C 0.29096 0.52622 0.37864 0.0
H260 H 0.20669 0.48109 0.32417 0.0
C261 C 0.26909 0.51322 0.40921 0.0
H262 H 0.28545 0.52319 0.32421 0.0
C263 C 0.22575 0.48753 0.40917 0.0
C264 C 0.20286 0.47581 0.37857 0.0
H265 H 0.28629 0.52202 0.43306 0.0
H266 H 0.20935 0.47775 0.43301 0.0
C267 C 0.22417 0.48953 0.34801 0.0
C268 C 0.22543 0.51276 0.90908 0.0
C269 C 0.20237 0.52406 0.87845 0.0
H270 H 0.28632 0.47884 0.93308 0.0
C271 C 0.22365 0.51012 0.84794 0.0
H272 H 0.20903 0.52272 0.93288 0.0
C273 C 0.26836 0.48613 0.84803 0.0
C274 C 0.29084 0.47412 0.87867 0.0
H275 H 0.20602 0.51826 0.82408 0.0
H276 H 0.2851 0.47656 0.82423 0.0
C277 C 0.26896 0.48729 0.90921 0.0
C278 C 0.72333 0.48862 0.59165 0.0
C279 C 0.70146 0.47562 0.62222 0.0
H280 H 0.78307 0.5241 0.56785 0.0
C281 C 0.72372 0.48806 0.65283 0.0
H282 H 0.70612 0.47983 0.5678 0.0
C283 C 0.76825 0.5123 0.65285 0.0
C284 C 0.78956 0.52602 0.62229 0.0
H285 H 0.70698 0.47864 0.67665 0.0
H286 H 0.78574 0.52074 0.67668 0.0
C287 C 0.76666 0.51431 0.59169 0.0
C288 C 0.9895 0.04164 0.26702 0.0
C289 C 0.97988 0.07984 0.2839 0.0
H290 H 0.01058 0.01207 0.2202 0.0
C291 C 0.98509 0.1181 0.26637 0.0
H292 H 0.98539 0.01175 0.28003 0.0
C293 C 0.00057 0.11832 0.23272 0.0
C294 C 0.00957 0.08023 0.21564 0.0
H295 H 0.97793 0.14797 0.27887 0.0
H296 H 0.00499 0.14834 0.21992 0.0
C297 C 0.00347 0.04181 0.23288 0.0
C298 C 0.48871 0.9616 0.23349 0.0
C299 C 0.48073 0.92329 0.2164 0.0
H300 H 0.50883 0.99133 0.28043 0.0
C301 C 0.4882 0.88504 0.23357 0.0
H302 H 0.48284 0.99147 0.22075 0.0
C303 C 0.50415 0.88497 0.26713 0.0
C304 C 0.51137 0.92314 0.28448 0.0
H305 H 0.48234 0.85511 0.22088 0.0
H306 H 0.5102 0.85497 0.27967 0.0
C307 C 0.50316 0.96152 0.26755 0.0
C308 C 0.00734 0.88373 0.73449 0.0
C309 C 0.01255 0.92199 0.71697 0.0
H310 H 0.98744 0.85349 0.78094 0.0
C311 C 0.00294 0.96019 0.73385 0.0
H312 H 0.0145 0.85386 0.72199 0.0
C313 C 0.98896 0.96003 0.76798 0.0
C314 C 0.98286 0.9216 0.78522 0.0
H315 H 0.00705 0.99009 0.72083 0.0
H316 H 0.98186 0.98976 0.78067 0.0
C317 C 0.99186 0.88351 0.76814 0.0
C318 C 0.48828 0.11686 0.73373 0.0
C319 C 0.48107 0.0787 0.71638 0.0
H320 H 0.51009 0.14673 0.77998 0.0
C321 C 0.48928 0.04032 0.73331 0.0
H322 H 0.48224 0.14686 0.72119 0.0
C323 C 0.50373 0.04024 0.76737 0.0
C324 C 0.51171 0.07854 0.78447 0.0
H325 H 0.48361 0.0105 0.72043 0.0
H326 H 0.5096 0.01037 0.78012 0.0
C327 C 0.50423 0.11679 0.76729 0.0
C328 C 0.50312 0.54182 0.23325 0.0
C329 C 0.51087 0.5802 0.21624 0.0
H330 H 0.48362 0.51186 0.2802 0.0
C331 C 0.50369 0.61837 0.2336 0.0
H332 H 0.50879 0.51201 0.22037 0.0
C333 C 0.48822 0.61828 0.26725 0.0
C334 C 0.4812 0.58003 0.28451 0.0
H335 H 0.5094 0.64836 0.22099 0.0
H336 H 0.48236 0.64822 0.27994 0.0
C337 C 0.48915 0.54174 0.26739 0.0
C338 C 0.00126 0.38496 0.26801 0.0
C339 C 0.01028 0.42305 0.28509 0.0
H340 H 0.97815 0.3553 0.22196 0.0
C341 C 0.00376 0.46148 0.26792 0.0
H342 H 0.00599 0.35493 0.28076 0.0
C343 C 0.98932 0.46165 0.23386 0.0
C344 C 0.97967 0.42344 0.217 0.0
H345 H 0.01086 0.49122 0.28059 0.0
H346 H 0.98489 0.49155 0.2209 0.0
C347 C 0.98532 0.38517 0.23445 0.0
C348 C 0.50421 0.38355 0.73361 0.0
C349 C 0.51122 0.4218 0.71635 0.0
H350 H 0.48302 0.35347 0.77987 0.0
C351 C 0.50327 0.4601 0.73346 0.0
H352 H 0.51007 0.35362 0.72092 0.0
C353 C 0.4893 0.46002 0.7676 0.0
C354 C 0.48155 0.42164 0.78462 0.0
H355 H 0.5088 0.48997 0.72065 0.0
H356 H 0.48363 0.48983 0.78049 0.0
C357 C 0.48873 0.38347 0.76726 0.0
C358 C 0.0031 0.54018 0.767 0.0
C359 C 0.01275 0.57839 0.78386 0.0
H360 H 0.98156 0.51061 0.72027 0.0
C361 C 0.0071 0.61666 0.76641 0.0
H362 H 0.00753 0.51029 0.77996 0.0
C363 C 0.99116 0.61688 0.73285 0.0
C364 C 0.98214 0.57879 0.71577 0.0
H365 H 0.01427 0.64653 0.7789 0.0
H366 H 0.98643 0.64691 0.7201 0.0
C367 C 0.98866 0.54036 0.73294 0.0
C368 C 0.96074 0.21938 0.10071 0.0
C369 C 0.01316 0.21019 0.10183 0.0
H370 H 0.90305 0.26732 0.10109 0.0
C371 C 0.04821 0.24369 0.1021 0.0
H372 H 0.93277 0.19422 0.10048 0.0
C373 C 0.03114 0.28553 0.10226 0.0
C374 C 0.97869 0.2947 0.10238 0.0
H375 H 0.08881 0.23759 0.10292 0.0
H376 H 0.0591 0.31068 0.10322 0.0
C377 C 0.94367 0.26123 0.1011 0.0
C378 C 0.44243 0.76052 0.10207 0.0
C379 C 0.47748 0.79402 0.10213 0.0
H380 H 0.43157 0.6935 0.10261 0.0
C381 C 0.5299 0.78484 0.10099 0.0
H382 H 0.40183 0.76661 0.10288 0.0
C383 C 0.54698 0.743 0.10105 0.0
C384 C 0.51196 0.70951 0.102 0.0
H385 H 0.55787 0.81 0.101 0.0
H386 H 0.5876 0.73693 0.10105 0.0
C387 C 0.45951 0.71867 0.10189 0.0
C388 C 0.44458 0.74252 0.39944 0.0
C389 C 0.47962 0.70903 0.39876 0.0
H390 H 0.43366 0.80952 0.39929 0.0
C391 C 0.53207 0.71821 0.39914 0.0
H392 H 0.40396 0.73643 0.39923 0.0
C393 C 0.54913 0.76007 0.39897 0.0
C394 C 0.51407 0.79355 0.39865 0.0
H395 H 0.56004 0.69306 0.39863 0.0
H396 H 0.58974 0.76616 0.39838 0.0
C397 C 0.46164 0.78437 0.3995 0.0
C398 C 0.96283 0.28364 0.4006 0.0
C399 C 0.0152 0.29285 0.39886 0.0
H400 H 0.90515 0.23571 0.40086 0.0
C401 C 0.05025 0.25936 0.39812 0.0
H402 H 0.93485 0.30879 0.40122 0.0
C403 C 0.03319 0.21751 0.39812 0.0
C404 C 0.98074 0.20833 0.39862 0.0
H405 H 0.09082 0.26548 0.39682 0.0
H406 H 0.06111 0.19236 0.39677 0.0
C407 C 0.94576 0.2418 0.40037 0.0
C408 C 0.04876 0.7406 0.89976 0.0
C409 C 0.01373 0.70713 0.89848 0.0
H410 H 0.05966 0.80761 0.90038 0.0
C411 C 0.96128 0.71631 0.8986 0.0
H412 H 0.08938 0.73452 0.89977 0.0
C413 C 0.94422 0.75815 0.89876 0.0
C414 C 0.97927 0.79164 0.89903 0.0
H415 H 0.93333 0.69116 0.89764 0.0
H416 H 0.90362 0.76425 0.89794 0.0
C417 C 0.03169 0.78245 0.90015 0.0
C418 C 0.44545 0.25883 0.89981 0.0
C419 C 0.48046 0.29233 0.89886 0.0
H420 H 0.43456 0.19184 0.89987 0.0
C421 C 0.53292 0.28317 0.89897 0.0
H422 H 0.40483 0.26491 0.89981 0.0
C423 C 0.55 0.24132 0.89879 0.0
C424 C 0.51495 0.20782 0.89874 0.0
H425 H 0.56086 0.30834 0.89825 0.0
H426 H 0.5906 0.23524 0.89798 0.0
C427 C 0.46253 0.217 0.89987 0.0
C428 C 0.53079 0.21747 0.60136 0.0
C429 C 0.47836 0.20828 0.60221 0.0
H430 H 0.58847 0.26541 0.60164 0.0
C431 C 0.4433 0.24177 0.60189 0.0
H432 H 0.55877 0.19231 0.60157 0.0
C433 C 0.46036 0.28362 0.60172 0.0
C434 C 0.51281 0.2928 0.6021 0.0
H435 H 0.4027 0.23567 0.60248 0.0
H436 H 0.43239 0.30878 0.60223 0.0
C437 C 0.54785 0.25932 0.60142 0.0
C438 C 0.95924 0.78433 0.60274 0.0
C439 C 0.01169 0.7935 0.60224 0.0
H440 H 0.90161 0.73636 0.60404 0.0
C441 C 0.04667 0.76004 0.60049 0.0
H442 H 0.93132 0.80948 0.60409 0.0
C443 C 0.0296 0.7182 0.60026 0.0
C444 C 0.97723 0.70898 0.602 0.0
H445 H 0.08728 0.76612 0.6 0.0
H446 H 0.05758 0.69305 0.59964 0.0
C447 C 0.94218 0.74247 0.60273 0.0
C448 C 0.02299 0.0073 0.97029 0.0
C449 C 0.98148 0.97943 0.97083 0.0
H450 H 0.06987 0.04988 0.99844 0.0
C451 C 0.95483 0.97325 0.00125 0.0
H452 H 0.04417 0.01269 0.94723 0.0
C453 C 0.96944 0.99453 0.03058 0.0
C454 C 0.01096 0.02241 0.03003 0.0
H455 H 0.92257 0.95195 0.00242 0.0
H456 H 0.94826 0.98914 0.05364 0.0
C457 C 0.0376 0.02859 0.99962 0.0
C458 C 0.46946 0.99436 0.9703 0.0
C459 C 0.51158 0.0216 0.97062 0.0
H460 H 0.42151 0.95305 0.99883 0.0
C461 C 0.53821 0.02797 0.00103 0.0
H462 H 0.44826 0.98886 0.94725 0.0
C463 C 0.52298 0.00748 0.03057 0.0
C464 C 0.48085 0.98024 0.03024 0.0
H465 H 0.57093 0.04879 0.00203 0.0
H466 H 0.54418 0.01298 0.05361 0.0
C467 C 0.45423 0.97387 0.99984 0.0
C468 C 0.52277 0.99413 0.53061 0.0
C469 C 0.48104 0.02179 0.53021 0.0
H470 H 0.57021 0.95229 0.50218 0.0
C471 C 0.45463 0.02838 0.49975 0.0
H472 H 0.54379 0.98844 0.5537 0.0
C473 C 0.46967 0.0077 0.47025 0.0
C474 C 0.51139 0.98004 0.47066 0.0
H475 H 0.42222 0.04954 0.49868 0.0
H476 H 0.44865 0.01339 0.44716 0.0
C477 C 0.53781 0.97345 0.50111 0.0
C478 C 0.96988 0.00816 0.53063 0.0
C479 C 0.0109 0.97979 0.5302 0.0
H480 H 0.92346 0.0508 0.50222 0.0
C481 C 0.03711 0.97274 0.49973 0.0
H482 H 0.94906 0.01423 0.55372 0.0
C483 C 0.02255 0.99368 0.47024 0.0
C484 C 0.98153 0.02205 0.47067 0.0
H485 H 0.06898 0.95104 0.49864 0.0
H486 H 0.04338 0.98761 0.44714 0.0
C487 C 0.95533 0.0291 0.50113 0.0
C488 C 0.537 0.52919 0.99959 0.0
C489 C 0.51086 0.5223 0.0301 0.0
H490 H 0.54326 0.51395 0.94706 0.0
C491 C 0.46993 0.49384 0.03067 0.0
H492 H 0.5688 0.55095 0.99839 0.0
C493 C 0.45542 0.47265 0.00127 0.0
C494 C 0.48156 0.47953 0.97076 0.0
H495 H 0.44916 0.48789 0.0538 0.0
H496 H 0.42362 0.45088 0.00247 0.0
C497 C 0.52249 0.508 0.97019 0.0
C498 C 0.95483 0.47324 0.99983 0.0
C499 C 0.98098 0.48034 0.03031 0.0
H500 H 0.94911 0.48754 0.94711 0.0
C501 C 0.0225 0.50821 0.03064 0.0
H502 H 0.92259 0.45191 0.99882 0.0
C503 C 0.03759 0.5286 0.00103 0.0
C504 C 0.01144 0.5215 0.97055 0.0
H505 H 0.04331 0.51429 0.05375 0.0
H506 H 0.06983 0.54993 0.00204 0.0
C507 C 0.96992 0.49363 0.97022 0.0
C508 C 0.95438 0.52813 0.49969 0.0
C509 C 0.98095 0.52191 0.53013 0.0
H510 H 0.94836 0.51273 0.44718 0.0
C511 C 0.02292 0.49451 0.5306 0.0
H512 H 0.92178 0.54908 0.49857 0.0
C513 C 0.03804 0.47371 0.50117 0.0
C514 C 0.01148 0.47993 0.47073 0.0
H515 H 0.04406 0.48911 0.55368 0.0
H516 H 0.07064 0.45276 0.50229 0.0
C517 C 0.96951 0.50733 0.47026 0.0
C518 C 0.47002 0.50813 0.53069 0.0
C519 C 0.51096 0.47968 0.53013 0.0
H520 H 0.4236 0.55094 0.50244 0.0
C521 C 0.53702 0.47266 0.4996 0.0
H522 H 0.44932 0.51418 0.55383 0.0
C523 C 0.5224 0.4937 0.47017 0.0
C524 C 0.48146 0.52215 0.47073 0.0
H525 H 0.56882 0.4509 0.49842 0.0
H526 H 0.5431 0.48765 0.44703 0.0
C527 C 0.4554 0.52917 0.50125 0.0
loop_
_geom_bond_atom_site_label_1
_geom_bond_atom_site_label_2
_geom_bond_distance
_geom_bond_site_symmetry_2
_ccdc_geom_bond_type
In0 O1 2.294 . S
In0 O2 2.326 . S
In0 O6 2.266 . S
In0 O7 2.326 1_455 S
In0 O8 2.266 . S
In0 O9 2.326 . S
In0 O11 2.294 . S
In0 O12 2.326 . S
O1 In0 2.294 . S
O1 C10 1.240 . S
O2 In0 2.326 . S
O2 C10 1.252 . S
C3 O6 1.252 . S
C3 O7 1.260 1_455 S
C4 O11 1.240 . S
C4 O12 1.252 . S
C5 O8 1.252 . S
C5 O9 1.260 . S
O6 In0 2.266 . S
O6 C3 1.252 . S
O7 In0 2.326 1_655 S
O7 C3 1.260 1_655 S
O8 In0 2.266 . S
O8 C5 1.252 . S
O9 In0 2.326 . S
O9 C5 1.260 . S
C10 O1 1.240 . S
C10 O2 1.252 . S
O11 In0 2.294 . S
O11 C4 1.240 . S
O12 In0 2.326 . S
O12 C4 1.252 . S
In13 O14 2.294 . S
In13 O15 2.326 . S
In13 O19 2.266 . S
In13 O20 2.326 . S
In13 O21 2.266 . S
In13 O22 2.326 . S
In13 O24 2.294 . S
In13 O25 2.326 . S
O14 In13 2.294 . S
O14 C23 1.240 . S
O15 In13 2.326 . S
O15 C23 1.252 . S
C16 O19 1.252 . S
C16 O20 1.260 . S
C17 O24 1.240 . S
C17 O25 1.252 . S
C18 O21 1.252 . S
C18 O22 1.260 . S
O19 In13 2.266 . S
O19 C16 1.252 . S
O20 In13 2.326 . S
O20 C16 1.260 . S
O21 In13 2.266 . S
O21 C18 1.252 . S
O22 In13 2.326 . S
O22 C18 1.260 . S
C23 O14 1.240 . S
C23 O15 1.252 . S
O24 In13 2.294 . S
O24 C17 1.240 . S
O25 In13 2.326 . S
O25 C17 1.252 . S
In26 O27 2.294 . S
In26 O28 2.326 . S
In26 O32 2.266 . S
In26 O33 2.326 . S
In26 O34 2.266 . S
In26 O35 2.326 . S
In26 O37 2.294 . S
In26 O38 2.326 . S
O27 In26 2.294 . S
O27 C36 1.240 . S
O28 In26 2.326 . S
O28 C36 1.252 . S
C29 O32 1.252 . S
C29 O33 1.260 . S
C30 O37 1.240 . S
C30 O38 1.252 . S
C31 O34 1.252 . S
C31 O35 1.260 . S
O32 In26 2.266 . S
O32 C29 1.252 . S
O33 In26 2.326 . S
O33 C29 1.260 . S
O34 In26 2.266 . S
O34 C31 1.252 . S
O35 In26 2.326 . S
O35 C31 1.260 . S
C36 O27 1.240 . S
C36 O28 1.252 . S
O37 In26 2.294 . S
O37 C30 1.240 . S
O38 In26 2.326 . S
O38 C30 1.252 . S
In39 O40 2.294 . S
In39 O41 2.326 . S
In39 O45 2.266 . S
In39 O46 2.326 . S
In39 O47 2.266 . S
In39 O48 2.326 1_655 S
In39 O50 2.294 . S
In39 O51 2.326 . S
O40 In39 2.294 . S
O40 C49 1.240 . S
O41 In39 2.326 . S
O41 C49 1.252 . S
C42 O45 1.252 . S
C42 O46 1.260 . S
C43 O50 1.240 . S
C43 O51 1.252 . S
C44 O47 1.252 . S
C44 O48 1.260 1_655 S
O45 In39 2.266 . S
O45 C42 1.252 . S
O46 In39 2.326 . S
O46 C42 1.260 . S
O47 In39 2.266 . S
O47 C44 1.252 . S
O48 In39 2.326 1_455 S
O48 C44 1.260 1_455 S
C49 O40 1.240 . S
C49 O41 1.252 . S
O50 In39 2.294 . S
O50 C43 1.240 . S
O51 In39 2.326 . S
O51 C43 1.252 . S
In52 O53 2.294 . S
In52 O54 2.326 . S
In52 O58 2.266 . S
In52 O59 2.326 . S
In52 O60 2.266 . S
In52 O61 2.326 1_655 S
In52 O63 2.294 . S
In52 O64 2.326 . S
O53 In52 2.294 . S
O53 C62 1.240 . S
O54 In52 2.326 . S
O54 C62 1.252 . S
C55 O58 1.252 . S
C55 O59 1.260 . S
C56 O63 1.240 . S
C56 O64 1.252 . S
C57 O60 1.252 . S
C57 O61 1.260 1_655 S
O58 In52 2.266 . S
O58 C55 1.252 . S
O59 In52 2.326 . S
O59 C55 1.260 . S
O60 In52 2.266 . S
O60 C57 1.252 . S
O61 In52 2.326 1_455 S
O61 C57 1.260 1_455 S
C62 O53 1.240 . S
C62 O54 1.252 . S
O63 In52 2.294 . S
O63 C56 1.240 . S
O64 In52 2.326 . S
O64 C56 1.252 . S
In65 O66 2.294 . S
In65 O67 2.326 . S
In65 O71 2.266 . S
In65 O72 2.326 . S
In65 O73 2.266 . S
In65 O74 2.326 . S
In65 O76 2.294 . S
In65 O77 2.326 . S
O66 In65 2.294 . S
O66 C75 1.240 . S
O67 In65 2.326 . S
O67 C75 1.252 . S
C68 O71 1.252 . S
C68 O72 1.260 . S
C69 O76 1.240 . S
C69 O77 1.252 . S
C70 O73 1.252 . S
C70 O74 1.260 . S
O71 In65 2.266 . S
O71 C68 1.252 . S
O72 In65 2.326 . S
O72 C68 1.260 . S
O73 In65 2.266 . S
O73 C70 1.252 . S
O74 In65 2.326 . S
O74 C70 1.260 . S
C75 O66 1.240 . S
C75 O67 1.252 . S
O76 In65 2.294 . S
O76 C69 1.240 . S
O77 In65 2.326 . S
O77 C69 1.252 . S
In78 O79 2.294 . S
In78 O80 2.326 . S
In78 O84 2.266 . S
In78 O85 2.326 . S
In78 O86 2.266 . S
In78 O87 2.326 . S
In78 O89 2.294 . S
In78 O90 2.326 . S
O79 In78 2.294 . S
O79 C88 1.240 . S
O80 In78 2.326 . S
O80 C88 1.252 . S
C81 O84 1.252 . S
C81 O85 1.260 . S
C82 O89 1.240 . S
C82 O90 1.252 . S
C83 O86 1.252 . S
C83 O87 1.260 . S
O84 In78 2.266 . S
O84 C81 1.252 . S
O85 In78 2.326 . S
O85 C81 1.260 . S
O86 In78 2.266 . S
O86 C83 1.252 . S
O87 In78 2.326 . S
O87 C83 1.260 . S
C88 O79 1.240 . S
C88 O80 1.252 . S
O89 In78 2.294 . S
O89 C82 1.240 . S
O90 In78 2.326 . S
O90 C82 1.252 . S
In91 O92 2.294 . S
In91 O93 2.326 . S
In91 O97 2.266 . S
In91 O98 2.326 . S
In91 O99 2.266 . S
In91 O100 2.326 1_455 S
In91 O102 2.294 . S
In91 O103 2.326 . S
O92 In91 2.294 . S
O92 C101 1.240 . S
O93 In91 2.326 . S
O93 C101 1.252 . S
C94 O97 1.252 . S
C94 O98 1.260 . S
C95 O102 1.240 . S
C95 O103 1.252 . S
C96 O99 1.252 . S
C96 O100 1.260 1_455 S
O97 In91 2.266 . S
O97 C94 1.252 . S
O98 In91 2.326 . S
O98 C94 1.260 . S
O99 In91 2.266 . S
O99 C96 1.252 . S
O100 In91 2.326 1_655 S
O100 C96 1.260 1_655 S
C101 O92 1.240 . S
C101 O93 1.252 . S
O102 In91 2.294 . S
O102 C95 1.240 . S
O103 In91 2.326 . S
O103 C95 1.252 . S
In104 O105 2.294 . S
In104 O106 2.326 . S
In104 O110 2.266 . S
In104 O111 2.326 . S
In104 O112 2.266 . S
In104 O113 2.326 . S
In104 O115 2.294 . S
In104 O116 2.326 . S
O105 In104 2.294 . S
O105 C114 1.240 . S
O106 In104 2.326 . S
O106 C114 1.252 . S
C107 O110 1.252 . S
C107 O111 1.260 . S
C108 O115 1.240 . S
C108 O116 1.252 . S
C109 O112 1.252 . S
C109 O113 1.260 . S
O110 In104 2.266 . S
O110 C107 1.252 . S
O111 In104 2.326 . S
O111 C107 1.260 . S
O112 In104 2.266 . S
O112 C109 1.252 . S
O113 In104 2.326 . S
O113 C109 1.260 . S
C114 O105 1.240 . S
C114 O106 1.252 . S
O115 In104 2.294 . S
O115 C108 1.240 . S
O116 In104 2.326 . S
O116 C108 1.252 . S
In117 O118 2.294 . S
In117 O119 2.326 . S
In117 O123 2.266 . S
In117 O124 2.326 1_655 S
In117 O125 2.266 . S
In117 O126 2.326 . S
In117 O128 2.294 . S
In117 O129 2.326 . S
O118 In117 2.294 . S
O118 C127 1.240 . S
O119 In117 2.326 . S
O119 C127 1.252 . S
C120 O123 1.252 . S
C120 O124 1.260 1_655 S
C121 O128 1.240 . S
C121 O129 1.252 . S
C122 O125 1.252 . S
C122 O126 1.260 . S
O123 In117 2.266 . S
O123 C120 1.252 . S
O124 In117 2.326 1_455 S
O124 C120 1.260 1_455 S
O125 In117 2.266 . S
O125 C122 1.252 . S
O126 In117 2.326 . S
O126 C122 1.260 . S
C127 O118 1.240 . S
C127 O119 1.252 . S
O128 In117 2.294 . S
O128 C121 1.240 . S
O129 In117 2.326 . S
O129 C121 1.252 . S
In130 O131 2.294 . S
In130 O132 2.326 . S
In130 O136 2.266 . S
In130 O137 2.326 . S
In130 O138 2.266 . S
In130 O139 2.326 1_455 S
In130 O141 2.294 . S
In130 O142 2.326 . S
O131 In130 2.294 . S
O131 C140 1.240 . S
O132 In130 2.326 . S
O132 C140 1.252 . S
C133 O136 1.252 . S
C133 O137 1.260 . S
C134 O141 1.240 . S
C134 O142 1.252 . S
C135 O138 1.252 . S
C135 O139 1.260 1_455 S
O136 In130 2.266 . S
O136 C133 1.252 . S
O137 In130 2.326 . S
O137 C133 1.260 . S
O138 In130 2.266 . S
O138 C135 1.252 . S
O139 In130 2.326 1_655 S
O139 C135 1.260 1_655 S
C140 O131 1.240 . S
C140 O132 1.252 . S
O141 In130 2.294 . S
O141 C134 1.240 . S
O142 In130 2.326 . S
O142 C134 1.252 . S
In143 O144 2.294 . S
In143 O145 2.326 . S
In143 O149 2.266 . S
In143 O150 2.326 . S
In143 O151 2.266 . S
In143 O152 2.326 . S
In143 O154 2.294 . S
In143 O155 2.326 . S
O144 In143 2.294 . S
O144 C153 1.240 . S
O145 In143 2.326 . S
O145 C153 1.252 . S
C146 O149 1.252 . S
C146 O150 1.260 . S
C147 O154 1.240 . S
C147 O155 1.252 . S
C148 O151 1.252 . S
C148 O152 1.260 . S
O149 In143 2.266 . S
O149 C146 1.252 . S
O150 In143 2.326 . S
O150 C146 1.260 . S
O151 In143 2.266 . S
O151 C148 1.252 . S
O152 In143 2.326 . S
O152 C148 1.260 . S
C153 O144 1.240 . S
C153 O145 1.252 . S
O154 In143 2.294 . S
O154 C147 1.240 . S
O155 In143 2.326 . S
O155 C147 1.252 . S
In156 O157 2.294 . S
In156 O158 2.326 . S
In156 O162 2.266 . S
In156 O163 2.326 . S
In156 O164 2.266 . S
In156 O165 2.326 . S
In156 O167 2.294 . S
In156 O168 2.326 . S
O157 In156 2.294 . S
O157 C166 1.240 . S
O158 In156 2.326 . S
O158 C166 1.252 . S
C159 O162 1.252 . S
C159 O163 1.260 . S
C160 O167 1.240 . S
C160 O168 1.252 . S
C161 O164 1.252 . S
C161 O165 1.260 . S
O162 In156 2.266 . S
O162 C159 1.252 . S
O163 In156 2.326 . S
O163 C159 1.260 . S
O164 In156 2.266 . S
O164 C161 1.252 . S
O165 In156 2.326 . S
O165 C161 1.260 . S
C166 O157 1.240 . S
C166 O158 1.252 . S
O167 In156 2.294 . S
O167 C160 1.240 . S
O168 In156 2.326 . S
O168 C160 1.252 . S
In169 O170 2.294 . S
In169 O171 2.326 . S
In169 O175 2.266 . S
In169 O176 2.326 1_455 S
In169 O177 2.266 . S
In169 O178 2.326 . S
In169 O180 2.294 . S
In169 O181 2.326 . S
O170 In169 2.294 . S
O170 C179 1.240 . S
O171 In169 2.326 . S
O171 C179 1.252 . S
C172 O175 1.252 . S
C172 O176 1.260 1_455 S
C173 O180 1.240 . S
C173 O181 1.252 . S
C174 O177 1.252 . S
C174 O178 1.260 . S
O175 In169 2.266 . S
O175 C172 1.252 . S
O176 In169 2.326 1_655 S
O176 C172 1.260 1_655 S
O177 In169 2.266 . S
O177 C174 1.252 . S
O178 In169 2.326 . S
O178 C174 1.260 . S
C179 O170 1.240 . S
C179 O171 1.252 . S
O180 In169 2.294 . S
O180 C173 1.240 . S
O181 In169 2.326 . S
O181 C173 1.252 . S
In182 O183 2.294 . S
In182 O184 2.326 . S
In182 O188 2.266 . S
In182 O189 2.326 . S
In182 O190 2.266 . S
In182 O191 2.326 1_655 S
In182 O193 2.294 . S
In182 O194 2.326 . S
O183 In182 2.294 . S
O183 C192 1.240 . S
O184 In182 2.326 . S
O184 C192 1.252 . S
C185 O188 1.252 . S
C185 O189 1.260 . S
C186 O193 1.240 . S
C186 O194 1.252 . S
C187 O190 1.252 . S
C187 O191 1.260 1_655 S
O188 In182 2.266 . S
O188 C185 1.252 . S
O189 In182 2.326 . S
O189 C185 1.260 . S
O190 In182 2.266 . S
O190 C187 1.252 . S
O191 In182 2.326 1_455 S
O191 C187 1.260 1_455 S
C192 O183 1.240 . S
C192 O184 1.252 . S
O193 In182 2.294 . S
O193 C186 1.240 . S
O194 In182 2.326 . S
O194 C186 1.252 . S
In195 O196 2.294 . S
In195 O197 2.326 . S
In195 O201 2.266 . S
In195 O202 2.326 . S
In195 O203 2.266 . S
In195 O204 2.326 . S
In195 O206 2.294 . S
In195 O207 2.326 . S
O196 In195 2.294 . S
O196 C205 1.240 . S
O197 In195 2.326 . S
O197 C205 1.252 . S
C198 O201 1.252 . S
C198 O202 1.260 . S
C199 O206 1.240 . S
C199 O207 1.252 . S
C200 O203 1.252 . S
C200 O204 1.260 . S
O201 In195 2.266 . S
O201 C198 1.252 . S
O202 In195 2.326 . S
O202 C198 1.260 . S
O203 In195 2.266 . S
O203 C200 1.252 . S
O204 In195 2.326 . S
O204 C200 1.260 . S
C205 O196 1.240 . S
C205 O197 1.252 . S
O206 In195 2.294 . S
O206 C199 1.240 . S
O207 In195 2.326 . S
O207 C199 1.252 . S
C208 C209 1.387 . S
C208 H212 0.950 . S
C208 C217 1.390 1_565 S
C209 C208 1.387 . S
C209 C211 1.387 . S
H210 C217 0.950 . S
C211 C209 1.387 . S
C211 C213 1.390 1_565 S
C211 H215 0.950 . S
H212 C208 0.950 . S
C213 C211 1.390 1_545 S
C213 C214 1.387 . S
C213 H216 0.950 . S
C214 C213 1.387 . S
C214 C217 1.387 . S
H215 C211 0.950 . S
H216 C213 0.950 . S
C217 C208 1.390 1_545 S
C217 H210 0.950 . S
C217 C214 1.387 . S
C218 C219 1.387 . S
C218 H222 0.950 . S
C218 C227 1.390 1_565 S
C219 C218 1.387 . S
C219 C221 1.387 . S
H220 C227 0.950 . S
C221 C219 1.387 . S
C221 C223 1.390 1_565 S
C221 H225 0.950 . S
H222 C218 0.950 . S
C223 C221 1.390 1_545 S
C223 C224 1.387 . S
C223 H226 0.950 . S
C224 C223 1.387 . S
C224 C227 1.387 . S
H225 C221 0.950 . S
H226 C223 0.950 . S
C227 C218 1.390 1_545 S
C227 H220 0.950 . S
C227 C224 1.387 . S
C228 C229 1.387 . S
C228 H232 0.950 . S
C228 C237 1.390 1_565 S
C229 C228 1.387 . S
C229 C231 1.387 . S
H230 C237 0.950 . S
C231 C229 1.387 . S
C231 C233 1.390 1_565 S
C231 H235 0.950 . S
H232 C228 0.950 . S
C233 C231 1.390 1_545 S
C233 C234 1.387 . S
C233 H236 0.950 . S
C234 C233 1.387 . S
C234 C237 1.387 . S
H235 C231 0.950 . S
H236 C233 0.950 . S
C237 C228 1.390 1_545 S
C237 H230 0.950 . S
C237 C234 1.387 . S
C238 C239 1.387 . S
C238 H242 0.950 . S
C238 C247 1.390 1_565 S
C239 C238 1.387 . S
C239 C241 1.387 . S
H240 C247 0.950 . S
C241 C239 1.387 . S
C241 C243 1.390 1_565 S
C241 H245 0.950 . S
H242 C238 0.950 . S
C243 C241 1.390 1_545 S
C243 C244 1.387 . S
C243 H246 0.950 . S
C244 C243 1.387 . S
C244 C247 1.387 . S
H245 C241 0.950 . S
H246 C243 0.950 . S
C247 C238 1.390 1_545 S
C247 H240 0.950 . S
C247 C244 1.387 . S
C248 C249 1.387 . S
C248 H252 0.950 . S
C248 C257 1.390 . S
C249 C248 1.387 . S
C249 C251 1.387 . S
H250 C257 0.950 . S
C251 C249 1.387 . S
C251 C253 1.390 . S
C251 H255 0.950 . S
H252 C248 0.950 . S
C253 C251 1.390 . S
C253 C254 1.387 . S
C253 H256 0.950 . S
C254 C253 1.387 . S
C254 C257 1.387 . S
H255 C251 0.950 . S
H256 C253 0.950 . S
C257 C248 1.390 . S
C257 H250 0.950 . S
C257 C254 1.387 . S
C258 C259 1.387 . S
C258 H262 0.950 . S
C258 C267 1.390 . S
C259 C258 1.387 . S
C259 C261 1.387 . S
H260 C267 0.950 . S
C261 C259 1.387 . S
C261 C263 1.390 . S
C261 H265 0.950 . S
H262 C258 0.950 . S
C263 C261 1.390 . S
C263 C264 1.387 . S
C263 H266 0.950 . S
C264 C263 1.387 . S
C264 C267 1.387 . S
H265 C261 0.950 . S
H266 C263 0.950 . S
C267 C258 1.390 . S
C267 H260 0.950 . S
C267 C264 1.387 . S
C268 C269 1.387 . S
C268 H272 0.950 . S
C268 C277 1.390 . S
C269 C268 1.387 . S
C269 C271 1.387 . S
H270 C277 0.950 . S
C271 C269 1.387 . S
C271 C273 1.390 . S
C271 H275 0.950 . S
H272 C268 0.950 . S
C273 C271 1.390 . S
C273 C274 1.387 . S
C273 H276 0.950 . S
C274 C273 1.387 . S
C274 C277 1.387 . S
H275 C271 0.950 . S
H276 C273 0.950 . S
C277 C268 1.390 . S
C277 H270 0.950 . S
C277 C274 1.387 . S
C278 C279 1.387 . S
C278 H282 0.950 . S
C278 C287 1.390 . S
C279 C278 1.387 . S
C279 C281 1.387 . S
H280 C287 0.950 . S
C281 C279 1.387 . S
C281 C283 1.390 . S
C281 H285 0.950 . S
H282 C278 0.950 . S
C283 C281 1.390 . S
C283 C284 1.387 . S
C283 H286 0.950 . S
C284 C283 1.387 . S
C284 C287 1.387 . S
H285 C281 0.950 . S
H286 C283 0.950 . S
C287 C278 1.390 . S
C287 H280 0.950 . S
C287 C284 1.387 . S
C288 C289 1.387 . S
C288 H292 0.950 . S
C288 C297 1.390 1_655 S
C289 C288 1.387 . S
C289 C291 1.387 . S
H290 C297 0.950 . S
C291 C289 1.387 . S
C291 C293 1.390 1_655 S
C291 H295 0.950 . S
H292 C288 0.950 . S
C293 C291 1.390 1_455 S
C293 C294 1.387 . S
C293 H296 0.950 . S
C294 C293 1.387 . S
C294 C297 1.387 . S
H295 C291 0.950 . S
H296 C293 0.950 . S
C297 C288 1.390 1_455 S
C297 H290 0.950 . S
C297 C294 1.387 . S
C298 C299 1.387 . S
C298 H302 0.950 . S
C298 C307 1.390 . S
C299 C298 1.387 . S
C299 C301 1.387 . S
H300 C307 0.950 . S
C301 C299 1.387 . S
C301 C303 1.390 . S
C301 H305 0.950 . S
H302 C298 0.950 . S
C303 C301 1.390 . S
C303 C304 1.387 . S
C303 H306 0.950 . S
C304 C303 1.387 . S
C304 C307 1.387 . S
H305 C301 0.950 . S
H306 C303 0.950 . S
C307 C298 1.390 . S
C307 H300 0.950 . S
C307 C304 1.387 . S
C308 C309 1.387 . S
C308 H312 0.950 . S
C308 C317 1.390 1_455 S
C309 C308 1.387 . S
C309 C311 1.387 . S
H310 C317 0.950 . S
C311 C309 1.387 . S
C311 C313 1.390 1_455 S
C311 H315 0.950 . S
H312 C308 0.950 . S
C313 C311 1.390 1_655 S
C313 C314 1.387 . S
C313 H316 0.950 . S
C314 C313 1.387 . S
C314 C317 1.387 . S
H315 C311 0.950 . S
H316 C313 0.950 . S
C317 C308 1.390 1_655 S
C317 H310 0.950 . S
C317 C314 1.387 . S
C318 C319 1.387 . S
C318 H322 0.950 . S
C318 C327 1.390 . S
C319 C318 1.387 . S
C319 C321 1.387 . S
H320 C327 0.950 . S
C321 C319 1.387 . S
C321 C323 1.390 . S
C321 H325 0.950 . S
H322 C318 0.950 . S
C323 C321 1.390 . S
C323 C324 1.387 . S
C323 H326 0.950 . S
C324 C323 1.387 . S
C324 C327 1.387 . S
H325 C321 0.950 . S
H326 C323 0.950 . S
C327 C318 1.390 . S
C327 H320 0.950 . S
C327 C324 1.387 . S
C328 C329 1.387 . S
C328 H332 0.950 . S
C328 C337 1.390 . S
C329 C328 1.387 . S
C329 C331 1.387 . S
H330 C337 0.950 . S
C331 C329 1.387 . S
C331 C333 1.390 . S
C331 H335 0.950 . S
H332 C328 0.950 . S
C333 C331 1.390 . S
C333 C334 1.387 . S
C333 H336 0.950 . S
C334 C333 1.387 . S
C334 C337 1.387 . S
H335 C331 0.950 . S
H336 C333 0.950 . S
C337 C328 1.390 . S
C337 H330 0.950 . S
C337 C334 1.387 . S
C338 C339 1.387 . S
C338 H342 0.950 . S
C338 C347 1.390 1_455 S
C339 C338 1.387 . S
C339 C341 1.387 . S
H340 C347 0.950 . S
C341 C339 1.387 . S
C341 C343 1.390 1_455 S
C341 H345 0.950 . S
H342 C338 0.950 . S
C343 C341 1.390 1_655 S
C343 C344 1.387 . S
C343 H346 0.950 . S
C344 C343 1.387 . S
C344 C347 1.387 . S
H345 C341 0.950 . S
H346 C343 0.950 . S
C347 C338 1.390 1_655 S
C347 H340 0.950 . S
C347 C344 1.387 . S
C348 C349 1.387 . S
C348 H352 0.950 . S
C348 C357 1.390 . S
C349 C348 1.387 . S
C349 C351 1.387 . S
H350 C357 0.950 . S
C351 C349 1.387 . S
C351 C353 1.390 . S
C351 H355 0.950 . S
H352 C348 0.950 . S
C353 C351 1.390 . S
C353 C354 1.387 . S
C353 H356 0.950 . S
C354 C353 1.387 . S
C354 C357 1.387 . S
H355 C351 0.950 . S
H356 C353 0.950 . S
C357 C348 1.390 . S
C357 H350 0.950 . S
C357 C354 1.387 . S
C358 C359 1.387 . S
C358 H362 0.950 . S
C358 C367 1.390 1_455 S
C359 C358 1.387 . S
C359 C361 1.387 . S
H360 C367 0.950 . S
C361 C359 1.387 . S
C361 C363 1.390 1_455 S
C361 H365 0.950 . S
H362 C358 0.950 . S
C363 C361 1.390 1_655 S
C363 C364 1.387 . S
C363 H366 0.950 . S
C364 C363 1.387 . S
C364 C367 1.387 . S
H365 C361 0.950 . S
H366 C363 0.950 . S
C367 C358 1.390 1_655 S
C367 H360 0.950 . S
C367 C364 1.387 . S
C368 C369 1.387 . S
C368 H372 0.950 . S
C368 C377 1.390 1_455 S
C369 C368 1.387 . S
C369 C371 1.387 . S
H370 C377 0.950 . S
C371 C369 1.387 . S
C371 C373 1.390 1_455 S
C371 H375 0.950 . S
H372 C368 0.950 . S
C373 C371 1.390 1_655 S
C373 C374 1.387 . S
C373 H376 0.950 . S
C374 C373 1.387 . S
C374 C377 1.387 . S
H375 C371 0.950 . S
H376 C373 0.950 . S
C377 C368 1.390 1_655 S
C377 H370 0.950 . S
C377 C374 1.387 . S
C378 C379 1.387 . S
C378 H382 0.950 . S
C378 C387 1.390 . S
C379 C378 1.387 . S
C379 C381 1.387 . S
H380 C387 0.950 . S
C381 C379 1.387 . S
C381 C383 1.390 . S
C381 H385 0.950 . S
H382 C378 0.950 . S
C383 C381 1.390 . S
C383 C384 1.387 . S
C383 H386 0.950 . S
C384 C383 1.387 . S
C384 C387 1.387 . S
H385 C381 0.950 . S
H386 C383 0.950 . S
C387 C378 1.390 . S
C387 H380 0.950 . S
C387 C384 1.387 . S
C388 C389 1.387 . S
C388 H392 0.950 . S
C388 C397 1.390 . S
C389 C388 1.387 . S
C389 C391 1.387 . S
H390 C397 0.950 . S
C391 C389 1.387 . S
C391 C393 1.390 . S
C391 H395 0.950 . S
H392 C388 0.950 . S
C393 C391 1.390 . S
C393 C394 1.387 . S
C393 H396 0.950 . S
C394 C393 1.387 . S
C394 C397 1.387 . S
H395 C391 0.950 . S
H396 C393 0.950 . S
C397 C388 1.390 . S
C397 H390 0.950 . S
C397 C394 1.387 . S
C398 C399 1.387 . S
C398 H402 0.950 . S
C398 C407 1.390 1_455 S
C399 C398 1.387 . S
C399 C401 1.387 . S
H400 C407 0.950 . S
C401 C399 1.387 . S
C401 C403 1.390 1_455 S
C401 H405 0.950 . S
H402 C398 0.950 . S
C403 C401 1.390 1_655 S
C403 C404 1.387 . S
C403 H406 0.950 . S
C404 C403 1.387 . S
C404 C407 1.387 . S
H405 C401 0.950 . S
H406 C403 0.950 . S
C407 C398 1.390 1_655 S
C407 H400 0.950 . S
C407 C404 1.387 . S
C408 C409 1.387 . S
C408 H412 0.950 . S
C408 C417 1.390 1_455 S
C409 C408 1.387 . S
C409 C411 1.387 . S
H410 C417 0.950 . S
C411 C409 1.387 . S
C411 C413 1.390 1_455 S
C411 H415 0.950 . S
H412 C408 0.950 . S
C413 C411 1.390 1_655 S
C413 C414 1.387 . S
C413 H416 0.950 . S
C414 C413 1.387 . S
C414 C417 1.387 . S
H415 C411 0.950 . S
H416 C413 0.950 . S
C417 C408 1.390 1_655 S
C417 H410 0.950 . S
C417 C414 1.387 . S
C418 C419 1.387 . S
C418 H422 0.950 . S
C418 C427 1.390 . S
C419 C418 1.387 . S
C419 C421 1.387 . S
H420 C427 0.950 . S
C421 C419 1.387 . S
C421 C423 1.390 . S
C421 H425 0.950 . S
H422 C418 0.950 . S
C423 C421 1.390 . S
C423 C424 1.387 . S
C423 H426 0.950 . S
C424 C423 1.387 . S
C424 C427 1.387 . S
H425 C421 0.950 . S
H426 C423 0.950 . S
C427 C418 1.390 . S
C427 H420 0.950 . S
C427 C424 1.387 . S
C428 C429 1.387 . S
C428 H432 0.950 . S
C428 C437 1.390 . S
C429 C428 1.387 . S
C429 C431 1.387 . S
H430 C437 0.950 . S
C431 C429 1.387 . S
C431 C433 1.390 . S
C431 H435 0.950 . S
H432 C428 0.950 . S
C433 C431 1.390 . S
C433 C434 1.387 . S
C433 H436 0.950 . S
C434 C433 1.387 . S
C434 C437 1.387 . S
H435 C431 0.950 . S
H436 C433 0.950 . S
C437 C428 1.390 . S
C437 H430 0.950 . S
C437 C434 1.387 . S
C438 C439 1.387 . S
C438 H442 0.950 . S
C438 C447 1.390 1_455 S
C439 C438 1.387 . S
C439 C441 1.387 . S
H440 C447 0.950 . S
C441 C439 1.387 . S
C441 C443 1.390 1_455 S
C441 H445 0.950 . S
H442 C438 0.950 . S
C443 C441 1.390 1_655 S
C443 C444 1.387 . S
C443 H446 0.950 . S
C444 C443 1.387 . S
C444 C447 1.387 . S
H445 C441 0.950 . S
H446 C443 0.950 . S
C447 C438 1.390 1_655 S
C447 H440 0.950 . S
C447 C444 1.387 . S
C448 C449 1.387 1_445 S
C448 H452 0.950 . S
C448 C457 1.390 . S
C449 C448 1.387 1_665 S
C449 C451 1.387 1_556 S
H450 C457 0.950 . S
C451 C449 1.387 1_554 S
C451 C453 1.390 . S
C451 H455 0.950 . S
H452 C448 0.950 . S
C453 C451 1.390 . S
C453 C454 1.387 1_665 S
C453 H456 0.950 . S
C454 C453 1.387 1_445 S
C454 C457 1.387 1_554 S
H455 C451 0.950 . S
H456 C453 0.950 . S
C457 C448 1.390 . S
C457 H450 0.950 . S
C457 C454 1.387 1_556 S
C458 C459 1.387 . S
C458 H462 0.950 . S
C458 C467 1.390 1_546 S
C459 C458 1.387 . S
C459 C461 1.387 . S
H460 C467 0.950 . S
C461 C459 1.387 . S
C461 C463 1.390 1_546 S
C461 H465 0.950 . S
H462 C458 0.950 . S
C463 C461 1.390 1_564 S
C463 C464 1.387 . S
C463 H466 0.950 . S
C464 C463 1.387 . S
C464 C467 1.387 . S
H465 C461 0.950 . S
H466 C463 0.950 . S
C467 C458 1.390 1_564 S
C467 H460 0.950 . S
C467 C464 1.387 . S
C468 C469 1.387 1_565 S
C468 H472 0.950 . S
C468 C477 1.390 . S
C469 C468 1.387 1_545 S
C469 C471 1.387 . S
H470 C477 0.950 . S
C471 C469 1.387 . S
C471 C473 1.390 . S
C471 H475 0.950 . S
H472 C468 0.950 . S
C473 C471 1.390 . S
C473 C474 1.387 1_545 S
C473 H476 0.950 . S
C474 C473 1.387 1_565 S
C474 C477 1.387 . S
H475 C471 0.950 . S
H476 C473 0.950 . S
C477 C468 1.390 . S
C477 H470 0.950 . S
C477 C474 1.387 . S
C478 C479 1.387 1_545 S
C478 H482 0.950 . S
C478 C487 1.390 1_455 S
C479 C478 1.387 1_565 S
C479 C481 1.387 . S
H480 C487 0.950 . S
C481 C479 1.387 . S
C481 C483 1.390 1_455 S
C481 H485 0.950 . S
H482 C478 0.950 . S
C483 C481 1.390 1_655 S
C483 C484 1.387 1_565 S
C483 H486 0.950 . S
C484 C483 1.387 1_545 S
C484 C487 1.387 . S
H485 C481 0.950 . S
H486 C483 0.950 . S
C487 C478 1.390 1_655 S
C487 H480 0.950 . S
C487 C484 1.387 . S
C488 C489 1.387 . S
C488 H492 0.950 . S
C488 C497 1.390 1_554 S
C489 C488 1.387 . S
C489 C491 1.387 . S
H490 C497 0.950 . S
C491 C489 1.387 . S
C491 C493 1.390 1_554 S
C491 H495 0.950 . S
H492 C488 0.950 . S
C493 C491 1.390 1_556 S
C493 C494 1.387 . S
C493 H496 0.950 . S
C494 C493 1.387 . S
C494 C497 1.387 . S
H495 C491 0.950 . S
H496 C493 0.950 . S
C497 C488 1.390 1_556 S
C497 H490 0.950 . S
C497 C494 1.387 . S
C498 C499 1.387 1_556 S
C498 H502 0.950 . S
C498 C507 1.390 1_655 S
C499 C498 1.387 1_554 S
C499 C501 1.387 . S
H500 C507 0.950 . S
C501 C499 1.387 . S
C501 C503 1.390 1_655 S
C501 H505 0.950 . S
H502 C498 0.950 . S
C503 C501 1.390 1_455 S
C503 C504 1.387 1_554 S
C503 H506 0.950 . S
C504 C503 1.387 1_556 S
C504 C507 1.387 . S
H505 C501 0.950 . S
H506 C503 0.950 . S
C507 C498 1.390 1_455 S
C507 H500 0.950 . S
C507 C504 1.387 . S
C508 C509 1.387 . S
C508 H512 0.950 . S
C508 C517 1.390 1_655 S
C509 C508 1.387 . S
C509 C511 1.387 . S
H510 C517 0.950 . S
C511 C509 1.387 . S
C511 C513 1.390 1_655 S
C511 H515 0.950 . S
H512 C508 0.950 . S
C513 C511 1.390 1_455 S
C513 C514 1.387 . S
C513 H516 0.950 . S
C514 C513 1.387 . S
C514 C517 1.387 . S
H515 C511 0.950 . S
H516 C513 0.950 . S
C517 C508 1.390 1_455 S
C517 H510 0.950 . S
C517 C514 1.387 . S
C518 C519 1.387 . S
C518 H522 0.950 . S
C518 C527 1.390 . S
C519 C518 1.387 . S
C519 C521 1.387 . S
H520 C527 0.950 . S
C521 C519 1.387 . S
C521 C523 1.390 . S
C521 H525 0.950 . S
H522 C518 0.950 . S
C523 C521 1.390 . S
C523 C524 1.387 . S
C523 H526 0.950 . S
C524 C523 1.387 . S
C524 C527 1.387 . S
H525 C521 0.950 . S
H526 C523 0.950 . S
C527 C518 1.390 . S
C527 H520 0.950 . S
C527 C524 1.387 . S
C209 C23 1.506 . S
C214 C10 1.506 . S
C219 C30 1.506 . S
C224 C43 1.506 . S
C229 C56 1.506 . S
C234 C75 1.506 . S
C239 C95 1.506 . S
C244 C82 1.506 . S
C249 C127 1.506 . S
C254 C114 1.506 . S
C259 C147 1.506 . S
C264 C134 1.506 . S
C269 C179 1.506 . S
C274 C166 1.506 . S
C279 C199 1.506 . S
C284 C186 1.506 . S
C289 C42 1.516 . S
C294 C5 1.516 . S
C299 C18 1.516 . S
C304 C29 1.516 . S
C309 C94 1.516 . S
C314 C55 1.516 . S
C319 C81 1.516 . S
C324 C70 1.516 . S
C329 C109 1.516 . S
C334 C146 1.516 . S
C339 C133 1.515 . S
C344 C122 1.515 . S
C349 C198 1.516 . S
C354 C161 1.516 . S
C359 C174 1.515 . S
C364 C185 1.515 . S
C369 C3 1.468 . S
C374 C120 1.468 . S
C379 C16 1.468 . S
C384 C107 1.468 . S
C389 C148 1.468 . S
C394 C31 1.468 . S
C399 C135 1.468 . S
C404 C44 1.468 . S
C409 C172 1.468 . S
C414 C57 1.468 . S
C419 C159 1.468 . S
C424 C68 1.468 . S
C429 C83 1.468 . S
C434 C200 1.468 . S
C439 C96 1.468 . S
C444 C187 1.468 . S
C449 C62 1.524 . S
C454 C4 1.524 . S
C459 C69 1.524 . S
C464 C17 1.524 . S
C469 C88 1.524 . S
C474 C36 1.524 . S
C479 C101 1.524 . S
C484 C49 1.524 . S
C489 C108 1.524 . S
C494 C160 1.524 . S
C499 C121 1.524 . S
C504 C173 1.524 . S
C509 C192 1.524 . S
C514 C140 1.524 . S
C519 C205 1.524 . S
C524 C153 1.524 . S
