# Generated by pormake.
# Topology loh, (5)-cn, num edge types: 1
# Building blocks:
#     Node 0, Type 0, BuildingBlock: XOMCOT_clean_sbu_1, # of connection points: 5
#     Node 1, Type 0, BuildingBlock: XOMCOT_clean_sbu_1, # of connection points: 5
#     Node 2, Type 0, BuildingBlock: XOMCOT_clean_sbu_1, # of connection points: 5
#     Node 3, Type 0, BuildingBlock: XOMCOT_clean_sbu_1, # of connection points: 5
#     Node 4, Type 0, BuildingBlock: XOMCOT_clean_sbu_1, # of connection points: 5
#     Node 5, Type 0, BuildingBlock: XOMCOT_clean_sbu_1, # of connection points: 5
#     Node 6, Type 0, BuildingBlock: XOMCOT_clean_sbu_1, # of connection points: 5
#     Node 7, Type 0, BuildingBlock: XOMCOT_clean_sbu_1, # of connection points: 5
#     Edge 8, Type (0, 0), BuildingBlock: XUDNAN_clean_linker_2, # of connection points: 2
#     Edge 9, Type (0, 0), BuildingBlock: XUDNAN_clean_linker_2, # of connection points: 2
#     Edge 10, Type (0, 0), BuildingBlock: XUDNAN_clean_linker_2, # of connection points: 2
#     Edge 11, Type (0, 0), BuildingBlock: XUDNAN_clean_linker_2, # of connection points: 2
#     Edge 12, Type (0, 0), BuildingBlock: XUDNAN_clean_linker_2, # of connection points: 2
#     Edge 13, Type (0, 0), BuildingBlock: XUDNAN_clean_linker_2, # of connection points: 2
#     Edge 14, Type (0, 0), BuildingBlock: XUDNAN_clean_linker_2, # of connection points: 2
#     Edge 15, Type (0, 0), BuildingBlock: XUDNAN_clean_linker_2, # of connection points: 2
#     Edge 16, Type (0, 0), BuildingBlock: XUDNAN_clean_linker_2, # of connection points: 2
#     Edge 17, Type (0, 0), BuildingBlock: XUDNAN_clean_linker_2, # of connection points: 2
#     Edge 18, Type (0, 0), BuildingBlock: XUDNAN_clean_linker_2, # of connection points: 2
#     Edge 19, Type (0, 0), BuildingBlock: XUDNAN_clean_linker_2, # of connection points: 2
#     Edge 20, Type (0, 0), BuildingBlock: XUDNAN_clean_linker_2, # of connection points: 2
#     Edge 21, Type (0, 0), BuildingBlock: XUDNAN_clean_linker_2, # of connection points: 2
#     Edge 22, Type (0, 0), BuildingBlock: XUDNAN_clean_linker_2, # of connection points: 2
#     Edge 23, Type (0, 0), BuildingBlock: XUDNAN_clean_linker_2, # of connection points: 2
#     Edge 24, Type (0, 0), BuildingBlock: XUDNAN_clean_linker_2, # of connection points: 2
#     Edge 25, Type (0, 0), BuildingBlock: XUDNAN_clean_linker_2, # of connection points: 2
#     Edge 26, Type (0, 0), BuildingBlock: XUDNAN_clean_linker_2, # of connection points: 2
#     Edge 27, Type (0, 0), BuildingBlock: XUDNAN_clean_linker_2, # of connection points: 2
# Relax obj value: 0.207
# Max RMSD: 0.136
# Mean RMSD: 0.136
data_MOF--net-loh--node1-XOMCOT_clean_sbu_1--edge1-XUDNAN_clean_linker_2
_symmetry_space_group_name_H-M    P1
_symmetry_Int_Tables_number       1
_symmetry_cell_setting            triclinic
loop_
_symmetry_equiv_pos_as_xyz
'x, y, z'
_cell_length_a     27.227167
_cell_length_b     24.951413
_cell_length_c     40.568385
_cell_angle_alpha  89.86843
_cell_angle_beta   89.856183
_cell_angle_gamma 90.443709
loop_
_atom_site_label
_atom_site_type_symbol
_atom_site_fract_x
_atom_site_fract_y
_atom_site_fract_z
_atom_type_partial_charge
C0 C 0.07153 0.13873 0.14642 0.0
C1 C 0.07556 0.09046 0.1624 0.0
N2 N 0.05552 0.09504 0.19265 0.0
N3 N 0.04938 0.17432 0.16643 0.0
C4 C 1.0396 0.14635 0.19439 0.0
H5 H 0.08294 0.14674 0.12133 0.0
Co6 Co 1.03297 0.24454 0.15449 0.0
C7 C 0.04889 0.28724 0.21614 0.0
O8 O 1.00338 0.27061 0.22033 0.0
N9 N 1.01629 0.3137 0.14212 0.0
C10 C 0.97673 0.39067 0.13606 0.0
C11 C 0.98135 0.34525 0.15525 0.0
C12 C 1.03227 0.34051 0.11522 0.0
N13 N 1.00907 0.38735 0.11098 0.0
O14 O 0.09037 0.24778 0.12475 0.0
H15 H 0.95919 0.33487 0.1765 0.0
H16 H 0.05806 0.32462 0.09756 0.0
O17 O 0.07126 0.27411 0.18978 0.0
C18 C 0.13633 0.25587 0.12939 0.0
O19 O 0.15355 0.26065 0.15945 0.0
N20 N 0.99114 0.21868 0.12132 0.0
C21 C 0.91364 0.21468 0.07612 0.0
C22 C 0.90471 0.21204 0.11021 0.0
C23 C 0.94401 0.21397 0.13232 0.0
C24 C 1.00111 0.21715 0.08835 0.0
C25 C 0.96283 0.21488 0.06534 0.0
H26 H 0.93665 0.21643 0.1585 0.0
H27 H 1.03818 0.22133 0.0794 0.0
H28 H 1.02097 0.16319 0.21549 0.0
H29 H 0.09072 0.05423 0.15203 0.0
H30 H 0.95083 0.4228 0.13977 0.0
H31 H 0.86766 0.2124 0.11994 0.0
H32 H 0.97175 0.21577 0.03933 0.0
C33 C 0.57331 0.88996 0.64589 0.0
C34 C 0.56862 0.93777 0.66229 0.0
N35 N 0.5874 0.93214 0.6928 0.0
N36 N 0.59449 0.85379 0.66599 0.0
C37 C 0.60305 0.88077 0.69432 0.0
H38 H 0.5633 0.88264 0.62051 0.0
Co39 Co 0.61346 0.78442 0.65469 0.0
C40 C 0.59993 0.73936 0.71527 0.0
O41 O 0.64618 0.75442 0.71735 0.0
N42 N 0.63329 0.71595 0.6435 0.0
C43 C 0.68084 0.64591 0.63359 0.0
C44 C 0.67773 0.69459 0.64941 0.0
C45 C 0.60975 0.67941 0.62476 0.0
N46 N 0.63792 0.63669 0.61805 0.0
O47 O 0.55716 0.77781 0.62495 0.0
H48 H 0.70675 0.71436 0.66301 0.0
H49 H 0.57375 0.68524 0.61432 0.0
O50 O 0.57548 0.75388 0.69007 0.0
C51 C 0.51076 0.7787 0.62971 0.0
O52 O 0.49342 0.78913 0.65924 0.0
N53 N 0.65418 0.81165 0.62111 0.0
C54 C 0.73226 0.82418 0.57684 0.0
C55 C 0.73856 0.83456 0.61058 0.0
C56 C 0.69892 0.8282 0.63227 0.0
C57 C 0.64643 0.80447 0.58815 0.0
C58 C 0.68499 0.81101 0.56557 0.0
H59 H 0.70478 0.83252 0.6585 0.0
H60 H 0.61163 0.78994 0.57914 0.0
H61 H 0.62094 0.86318 0.71547 0.0
H62 H 0.55413 0.97444 0.65201 0.0
H63 H 0.71274 0.62033 0.63261 0.0
H64 H 0.7743 0.84527 0.62032 0.0
H65 H 0.67855 0.80207 0.53982 0.0
C66 C 0.06558 0.88534 0.90677 0.0
C67 C 0.07206 0.93366 0.89095 0.0
N68 N 0.04726 0.93235 0.86225 0.0
N69 N 1.03711 0.85305 0.88809 0.0
C70 C 1.02623 0.88294 0.86122 0.0
H71 H 0.07954 0.87537 0.93091 0.0
Co72 Co 1.01299 0.78471 0.89866 0.0
C73 C 1.03482 0.73743 0.83958 0.0
O74 O 0.99052 0.7547 0.83274 0.0
N75 N 0.98768 0.71628 0.90807 0.0
C76 C 0.93637 0.64789 0.91661 0.0
C77 C 0.94061 0.69955 0.90516 0.0
C78 C 1.01179 0.67259 0.91884 0.0
N79 N 0.98122 0.6313 0.92577 0.0
O80 O 0.06703 0.77598 0.93096 0.0
H81 H 0.91074 0.7233 0.89584 0.0
H82 H 0.05093 0.67173 0.92305 0.0
O83 O 0.05469 0.7521 0.86652 0.0
C84 C 0.07674 0.75482 0.95901 0.0
O85 O 1.04188 0.73045 0.97596 0.0
N86 N 0.96888 0.81553 0.92915 0.0
C87 C 0.8863 0.8313 0.96901 0.0
C88 C 0.88222 0.82958 0.9345 0.0
C89 C 0.92411 0.82291 0.91509 0.0
C90 C 0.97487 0.82463 0.96207 0.0
C91 C 0.93383 0.83174 0.98258 0.0
H92 H 0.92023 0.81829 0.88871 0.0
H93 H 1.0108 0.82509 0.97301 0.0
H94 H 1.00291 0.86876 0.84148 0.0
H95 H 0.0921 0.96783 0.90054 0.0
H96 H 0.90259 0.62508 0.91915 0.0
H97 H 0.84683 0.82959 0.92244 0.0
H98 H 0.93927 0.83604 1.00887 0.0
C99 C 0.59153 0.12664 0.40775 0.0
C100 C 0.58529 0.07988 0.39052 0.0
N101 N 0.58359 0.0918 0.35825 0.0
N102 N 0.59263 0.16875 0.38671 0.0
C103 C 0.58853 0.14582 0.35651 0.0
H104 H 0.59866 0.12863 0.43381 0.0
Co105 Co 0.60552 0.24157 0.3973 0.0
C106 C 0.59028 0.28299 0.3349 0.0
O107 O 0.63707 0.27146 0.33181 0.0
N108 N 0.61965 0.3125 0.40688 0.0
C109 C 0.66371 0.38686 0.41323 0.0
C110 C 0.66105 0.33821 0.39744 0.0
C111 C 0.59724 0.34642 0.4278 0.0
N112 N 0.62366 0.39162 0.43256 0.0
O113 O 0.54454 0.24492 0.42391 0.0
H114 H 0.68895 0.32117 0.3817 0.0
H115 H 0.56448 0.33633 0.44164 0.0
O116 O 0.56737 0.26618 0.36042 0.0
C117 C 0.52341 0.22274 0.44872 0.0
O118 O 0.54512 0.18395 0.4648 0.0
N119 N 0.64619 0.22147 0.43299 0.0
C120 C 0.72298 0.21349 0.47845 0.0
C121 C 0.72865 0.19487 0.44608 0.0
C122 C 0.68968 0.19912 0.42376 0.0
C123 C 0.6401 0.23956 0.46454 0.0
C124 C 0.67761 0.23476 0.4878 0.0
H125 H 0.69514 0.18744 0.39836 0.0
H126 H 0.60768 0.26129 0.47152 0.0
H127 H 0.59038 0.16801 0.3336 0.0
H128 H 0.58516 0.03979 0.40081 0.0
H129 H 0.69396 0.41517 0.41187 0.0
H130 H 0.7634 0.17878 0.43783 0.0
H131 H 0.6723 0.251 0.51228 0.0
C132 C 0.55205 0.63328 0.14098 0.0
C133 C 0.55747 0.58504 0.15691 0.0
N134 N 0.54143 0.59034 0.18816 0.0
N135 N 0.53328 0.66951 0.16209 0.0
C136 C 0.52666 0.64196 0.1906 0.0
H137 H 0.56028 0.64099 0.11531 0.0
Co138 Co 0.51591 0.74018 0.15179 0.0
C139 C 0.53572 0.78426 0.21218 0.0
O140 O 0.48996 0.76926 0.21733 0.0
N141 N 0.4977 0.80996 0.1416 0.0
C142 C 0.45228 0.88218 0.13295 0.0
C143 C 0.45514 0.83401 0.14955 0.0
C144 C 0.52057 0.84472 0.12114 0.0
N145 N 0.49357 0.88851 0.11489 0.0
O146 O 0.57092 0.74586 0.12068 0.0
H147 H 0.42686 0.81629 0.16495 0.0
H148 H 0.55505 0.83685 0.10919 0.0
O149 O 0.55704 0.76869 0.18593 0.0
C150 C 0.61731 0.74024 0.12371 0.0
O151 O 0.63548 0.7237 0.1519 0.0
N152 N 0.47239 0.71555 0.11906 0.0
C153 C 0.39357 0.71343 0.07477 0.0
C154 C 0.38573 0.70765 0.10886 0.0
C155 C 0.4257 0.70848 0.13051 0.0
C156 C 0.48135 0.71685 0.08592 0.0
C157 C 0.44245 0.71533 0.06341 0.0
H158 H 0.41908 0.70843 0.15682 0.0
H159 H 0.51809 0.72243 0.07645 0.0
H160 H 0.51104 0.65936 0.21263 0.0
H161 H 0.57071 0.54836 0.14595 0.0
H162 H 0.42134 0.90914 0.13309 0.0
H163 H 0.34898 0.7064 0.11908 0.0
H164 H 0.45069 0.71821 0.03734 0.0
C165 C 0.09448 0.39762 0.6433 0.0
C166 C 0.08851 0.4442 0.66066 0.0
N167 N 0.08466 0.43179 0.6928 0.0
N168 N 0.09337 0.35519 0.66409 0.0
C169 C 0.08809 0.37771 0.69432 0.0
H170 H 0.10257 0.39586 0.61731 0.0
Co171 Co 0.10448 0.28231 0.65321 0.0
C172 C 0.09056 0.24175 0.71558 0.0
O173 O 0.13751 0.25396 0.71739 0.0
N174 N 0.1167 0.2113 0.64321 0.0
C175 C 0.15843 0.13625 0.636 0.0
C176 C 0.15702 0.1843 0.65253 0.0
C177 C 0.09368 0.17871 0.62164 0.0
N178 N 0.1187 0.13318 0.61632 0.0
O179 O 1.04323 0.27983 0.62717 0.0
H180 H 0.18522 0.20014 0.66859 0.0
H181 H 0.06172 0.19014 0.60762 0.0
O182 O 0.06654 0.25782 0.69052 0.0
C183 C 1.02211 0.3031 0.60295 0.0
O184 O 1.04398 0.34294 0.58754 0.0
N185 N 0.14521 0.30224 0.61726 0.0
C186 C 0.22226 0.30966 0.57161 0.0
C187 C 0.22855 0.32714 0.60417 0.0
C188 C 0.18949 0.32312 0.62658 0.0
C189 C 0.13836 0.28552 0.58551 0.0
C190 C 0.17607 0.28998 0.56216 0.0
H191 H 0.1954 0.3338 0.6521 0.0
H192 H 0.10507 0.26508 0.57836 0.0
H193 H 0.08782 0.35517 0.71711 0.0
H194 H 0.0898 0.48442 0.6506 0.0
H195 H 0.18783 0.10736 0.63701 0.0
H196 H 0.26382 0.34213 0.61251 0.0
H197 H 0.17014 0.27469 0.53751 0.0
C198 C 0.5867 0.38439 0.90799 0.0
C199 C 0.59266 0.43268 0.89198 0.0
N200 N 0.56632 0.43146 0.86387 0.0
N201 N 0.55706 0.35239 0.88998 0.0
C202 C 0.54506 0.38221 0.86336 0.0
H203 H 0.60161 0.37433 0.93187 0.0
Co204 Co 0.53143 0.2851 0.90072 0.0
C205 C 0.54951 0.23769 0.84151 0.0
O206 O 0.50464 0.25498 0.83661 0.0
N207 N 0.50404 0.21792 0.91021 0.0
C208 C 0.44909 0.15357 0.91974 0.0
C209 C 0.45607 0.20469 0.90799 0.0
C210 C 0.52581 0.17275 0.92084 0.0
N211 N 0.49304 0.13385 0.92874 0.0
O212 O 0.58622 0.27451 0.93251 0.0
H213 H 0.42751 0.23088 0.89926 0.0
H214 H 0.56495 0.16949 0.92434 0.0
O215 O 0.57142 0.25145 0.86793 0.0
C216 C 0.59733 0.25136 0.95975 0.0
O217 O 0.56359 0.22491 0.97655 0.0
N218 N 0.48872 0.31722 0.93161 0.0
C219 C 0.40363 0.32754 0.96962 0.0
C220 C 0.40291 0.33723 0.93546 0.0
C221 C 0.4459 0.33176 0.91695 0.0
C222 C 0.49217 0.31766 0.96516 0.0
C223 C 0.44976 0.32138 0.98468 0.0
H224 H 0.44391 0.33335 0.89033 0.0
H225 H 0.5268 0.31271 0.97726 0.0
H226 H 0.52051 0.36816 0.84427 0.0
H227 H 0.61327 0.46678 0.9011 0.0
H228 H 0.41394 0.13365 0.92273 0.0
H229 H 0.36892 0.34532 0.92267 0.0
H230 H 0.45307 0.31581 1.01104 0.0
C231 C 0.07149 0.63609 0.41096 0.0
C232 C 0.06743 0.58805 0.39475 0.0
N233 N 0.08692 0.59374 0.36442 0.0
N234 N 0.09324 0.6727 0.39106 0.0
C235 C 0.10243 0.64542 0.36287 0.0
H236 H 0.06021 0.64254 0.43598 0.0
Co237 Co 0.1112 0.7446 0.39951 0.0
C238 C 0.09396 0.7843 0.33775 0.0
O239 O 0.14047 0.77151 0.33457 0.0
N240 N 0.12961 0.81545 0.40624 0.0
C241 C 0.17665 0.88757 0.41254 0.0
C242 C 0.1744 0.83644 0.39995 0.0
C243 C 0.10469 0.85487 0.42138 0.0
N244 N 0.13279 0.89876 0.42631 0.0
O245 O 0.0535 0.75345 0.42877 0.0
H246 H 0.20436 0.81461 0.38888 0.0
H247 H 0.06814 0.84989 0.43144 0.0
O248 O 0.0712 0.76898 0.36365 0.0
C249 C 1.0381 0.74104 0.45769 0.0
O250 O 0.06513 0.71142 0.47723 0.0
N251 N 0.154 0.72356 0.43436 0.0
C252 C 0.23651 0.71342 0.4755 0.0
C253 C 0.2306 0.68088 0.44746 0.0
C254 C 0.18954 0.68716 0.42703 0.0
C255 C 0.15796 0.75346 0.4625 0.0
C256 C 0.19852 0.74892 0.48328 0.0
H257 H 0.18794 0.66516 0.40414 0.0
H258 H 0.13139 0.78401 0.46806 0.0
H259 H 0.12043 0.66318 0.34166 0.0
H260 H 0.05256 0.55125 0.40501 0.0
H261 H 0.2089 0.91318 0.41328 0.0
H262 H 0.25843 0.65231 0.44045 0.0
H263 H 0.20135 0.77593 0.50404 0.0
H264 H 0.3828 0.34778 0.03585 0.0
H265 H 0.31807 0.28252 0.94647 0.0
H266 H 0.24278 0.26058 0.97699 0.0
H267 H 0.33571 0.24521 0.08892 0.0
H268 H 0.32494 0.28927 0.1233 0.0
H269 H 0.37281 0.30477 0.09401 0.0
H270 H 0.33431 0.39782 0.08333 0.0
H271 H 0.28644 0.38271 0.11273 0.0
H272 H 0.27077 0.40192 0.07123 0.0
H273 H 0.17498 0.24204 1.01726 0.0
H274 H 0.12001 0.22804 0.06491 0.0
H275 H 0.22923 0.30019 0.12907 0.0
C276 C 0.3529 0.32906 1.02253 0.0
C277 C 0.35675 0.31806 0.98832 0.0
C278 C 0.31614 0.29339 0.97224 0.0
C279 C 0.27309 0.28005 0.9895 0.0
C280 C 0.27088 0.29093 1.02306 0.0
C281 C 0.30965 0.31479 0.03949 0.0
C282 C 0.29834 0.31992 0.07601 0.0
C283 C 0.33514 0.28788 0.09678 0.0
C284 C 0.2974 0.37912 0.08643 0.0
C285 C 0.24737 0.29488 0.07746 0.0
C286 C 0.23215 0.27879 0.04658 0.0
C287 C 0.18644 0.25464 0.04158 0.0
C288 C 0.15533 0.24695 0.06884 0.0
C289 C 0.17003 0.263 0.10081 0.0
C290 C 0.21689 0.28711 0.10503 0.0
H291 H 0.4094 0.77695 0.63071 0.0
H292 H 0.53447 0.74947 0.56647 0.0
H293 H 0.47831 0.72626 0.5211 0.0
H294 H 0.33413 0.66818 0.59944 0.0
H295 H 0.2776 0.70492 0.60275 0.0
H296 H 0.3276 0.71931 0.63043 0.0
H297 H 0.32614 0.81919 0.61282 0.0
H298 H 0.27604 0.80513 0.5852 0.0
H299 H 0.33144 0.8363 0.56975 0.0
H300 H 0.40843 0.70863 0.48199 0.0
H301 H 0.3305 0.69897 0.452 0.0
H302 H 0.25025 0.73283 0.54225 0.0
C303 C 0.42507 0.76613 0.60711 0.0
C304 C 0.4766 0.76557 0.60223 0.0
C305 C 0.49532 0.75087 0.5709 0.0
C306 C 0.46363 0.7373 0.54493 0.0
C307 C 0.41315 0.73826 0.55059 0.0
C308 C 0.39392 0.75223 0.5809 0.0
C309 C 0.33819 0.75041 0.58035 0.0
C310 C 0.31822 0.70819 0.60469 0.0
C311 C 0.3167 0.80607 0.58744 0.0
C312 C 0.32913 0.73374 0.54492 0.0
C313 C 0.37286 0.72686 0.52822 0.0
C314 C 0.37393 0.71328 0.49494 0.0
C315 C 0.3292 0.7073 0.47815 0.0
C316 C 0.28361 0.71457 0.49457 0.0
C317 C 0.28406 0.72727 0.52865 0.0
H318 H 0.29906 0.67039 0.07717 0.0
H319 H 0.39151 0.77981 1.02063 0.0
H320 H 0.32178 0.80006 0.98443 0.0
H321 H 0.22584 0.62069 1.00875 0.0
H322 H 0.16966 0.61852 0.03231 0.0
H323 H 0.22779 0.6096 0.05265 0.0
H324 H 0.20758 0.68774 0.09225 0.0
H325 H 0.14948 0.69701 0.07198 0.0
H326 H 0.19209 0.75236 0.07543 0.0
H327 H 0.24124 0.81082 0.95489 0.0
H328 H 0.1558 0.81123 0.93463 0.0
H329 H 0.11419 0.69858 1.01172 0.0
C330 C 0.30485 0.69854 0.05717 0.0
C331 C 0.35149 0.72277 0.05172 0.0
C332 C 0.35693 0.7593 1.02502 0.0
C333 C 0.31726 0.77159 1.0044 0.0
C334 C 0.27193 0.74739 1.01068 0.0
C335 C 0.26546 0.71162 0.03641 0.0
C336 C 0.21243 0.69254 0.03839 0.0
C337 C 0.20873 0.63173 0.03268 0.0
C338 C 0.18902 0.70837 0.07148 0.0
C339 C 0.1901 0.72353 1.00996 0.0
C340 C 0.22516 0.75467 0.99417 0.0
C341 C 0.21347 0.78661 0.96709 0.0
C342 C 0.16474 0.78663 0.95577 0.0
C343 C 0.12801 0.75527 0.97163 0.0
C344 C 0.14116 0.7234 0.99915 0.0
H345 H 0.4845 0.20953 0.51052 0.0
H346 H 0.45562 0.28402 0.41587 0.0
H347 H 0.37605 0.31706 0.43722 0.0
H348 H 0.36245 0.16689 0.52871 0.0
H349 H 0.36673 0.18166 0.57208 0.0
H350 H 0.42109 0.16449 0.5492 0.0
H351 H 0.46282 0.25306 0.56786 0.0
H352 H 0.40848 0.27058 0.59073 0.0
H353 H 0.43281 0.31595 0.56004 0.0
H354 H 0.2967 0.33697 0.46854 0.0
H355 H 0.22758 0.34682 0.50797 0.0
H356 H 0.31162 0.26398 0.5827 0.0
C357 C 0.46147 0.23272 0.49419 0.0
C358 C 0.47609 0.24373 0.46137 0.0
C359 C 0.44512 0.27495 0.44105 0.0
C360 C 0.39987 0.29385 0.45298 0.0
C361 C 0.38648 0.28196 0.48544 0.0
C362 C 0.41673 0.2526 0.50584 0.0
C363 C 0.39439 0.24578 0.53986 0.0
C364 C 0.38564 0.18617 0.54791 0.0
C365 C 0.42654 0.27297 0.56617 0.0
C366 C 0.34638 0.27508 0.53535 0.0
C367 C 0.34227 0.29549 0.50377 0.0
C368 C 0.29991 0.32177 0.49344 0.0
C369 C 0.26084 0.32713 0.51593 0.0
C370 C 0.26462 0.30694 0.54848 0.0
C371 C 0.30817 0.28094 0.55822 0.0
H372 H 0.71753 0.72573 0.11872 0.0
H373 H 0.593 0.79189 0.06621 0.0
H374 H 0.64886 0.8277 1.02363 0.0
H375 H 0.80495 0.83 0.10106 0.0
H376 H 0.85574 0.78532 0.09449 0.0
H377 H 0.80642 0.76611 0.12187 0.0
H378 H 0.79209 0.67905 0.08842 0.0
H379 H 0.84181 0.69765 0.06125 0.0
H380 H 0.78182 0.68338 0.04461 0.0
H381 H 0.71858 0.8602 0.98791 0.0
H382 H 0.79541 0.87556 0.95711 0.0
H383 H 0.87424 0.78047 0.02929 0.0
C384 C 0.70195 0.74766 0.09825 0.0
C385 C 0.65076 0.75704 0.09642 0.0
C386 C 0.63199 0.78509 0.06879 0.0
C387 C 0.6635 0.80562 0.04434 0.0
C388 C 0.71376 0.79677 0.04732 0.0
C389 C 0.73282 0.76741 0.07314 0.0
C390 C 0.78801 0.76119 0.06941 0.0
C391 C 0.81538 0.78721 0.09844 0.0
C392 C 0.80173 0.7018 0.06569 0.0
C393 C 0.79695 0.79202 0.03762 0.0
C394 C 0.75368 0.81279 1.02557 0.0
C395 C 0.75258 0.84342 0.99684 0.0
C396 C 0.79657 0.85169 0.97939 0.0
C397 C 0.84125 0.82869 0.99028 0.0
C398 C 0.84118 0.79923 1.02024 0.0
H399 H 0.98425 0.31698 0.54107 0.0
H400 H 0.9538 0.24016 0.63504 0.0
H401 H 0.87479 0.20582 0.61305 0.0
H402 H 0.86234 0.3572 0.52236 0.0
H403 H 0.86756 0.34316 0.47894 0.0
H404 H 0.92137 0.36118 0.50223 0.0
H405 H 0.96384 0.27381 0.48329 0.0
H406 H 0.91002 0.25542 0.46004 0.0
H407 H 0.93396 0.21015 0.49062 0.0
H408 H 0.79615 0.185 0.58132 0.0
H409 H 0.72754 0.17484 0.54163 0.0
H410 H 0.81271 0.26008 0.46764 0.0
C411 C 0.96095 0.29305 0.55711 0.0
C412 C 0.97496 0.28174 0.58993 0.0
C413 C 0.94374 0.2495 0.60987 0.0
C414 C 0.89881 0.22984 0.59758 0.0
C415 C 0.88604 0.24198 0.56511 0.0
C416 C 0.91654 0.27236 0.54507 0.0
C417 C 0.89483 0.27918 0.51096 0.0
C418 C 0.886 0.33871 0.50318 0.0
C419 C 0.92762 0.25307 0.48468 0.0
C420 C 0.84685 0.24875 0.51504 0.0
C421 C 0.84225 0.22776 0.54648 0.0
C422 C 0.79975 0.20059 0.55651 0.0
C423 C 0.761 0.19502 0.53388 0.0
C424 C 0.76527 0.21584 0.50148 0.0
C425 C 0.80898 0.24262 0.492 0.0
H426 H 0.81973 0.17102 0.07836 0.0
H427 H 0.91267 0.27817 1.02066 0.0
H428 H 0.8431 0.2971 0.98384 0.0
H429 H 0.74716 0.1186 1.01017 0.0
H430 H 0.69095 0.117 0.03373 0.0
H431 H 0.74908 0.10884 0.05419 0.0
H432 H 0.7286 0.18809 0.0929 0.0
H433 H 0.67055 0.19665 0.07247 0.0
H434 H 0.71305 0.25218 0.07533 0.0
H435 H 0.76194 0.30746 0.95426 0.0
H436 H 0.67622 0.30739 0.93432 0.0
H437 H 0.63552 0.19641 1.01252 0.0
C438 C 0.82566 0.19831 0.05793 0.0
C439 C 0.87222 0.22253 0.0524 0.0
C440 C 0.878 0.25788 1.02515 0.0
C441 C 0.83846 0.26935 1.00418 0.0
C442 C 0.79306 0.24535 1.01065 0.0
C443 C 0.7865 0.21043 0.03681 0.0
C444 C 0.73356 0.1913 0.03899 0.0
C445 C 0.72999 0.13032 0.03396 0.0
C446 C 0.71007 0.20807 0.07187 0.0
C447 C 0.71129 0.22136 1.01021 0.0
C448 C 0.74625 0.2521 0.99404 0.0
C449 C 0.73429 0.28346 0.96673 0.0
C450 C 0.68542 0.28325 0.95561 0.0
C451 C 0.64887 0.25217 0.97188 0.0
C452 C 0.66233 0.22091 0.99956 0.0
H453 H 0.82103 0.77694 0.58837 0.0
H454 H 0.74034 0.86407 0.51369 0.0
H455 H 0.81037 0.85427 0.4751 0.0
H456 H 0.9424 0.83017 0.56857 0.0
H457 H 0.97228 0.7672 0.57636 0.0
H458 H 0.91681 0.78379 0.59825 0.0
H459 H 0.87627 0.69556 0.57795 0.0
H460 H 0.93145 0.67886 0.55583 0.0
H461 H 0.87366 0.68191 0.53436 0.0
H462 H 0.88967 0.83285 0.44428 0.0
H463 H 0.96993 0.80068 0.42387 0.0
H464 H 0.99699 0.72634 0.5189 0.0
C465 C 0.81841 0.79495 0.56413 0.0
C466 C 0.77537 0.82185 0.55418 0.0
C467 C 0.77295 0.84336 0.52186 0.0
C468 C 0.81259 0.8381 0.49982 0.0
C469 C 0.85433 0.81091 0.51038 0.0
C470 C 0.85738 0.78969 0.54181 0.0
C471 C 0.90533 0.76042 0.54679 0.0
C472 C 0.93602 0.787 0.57411 0.0
C473 C 0.8961 0.70065 0.55416 0.0
C474 C 0.92888 0.76833 0.51326 0.0
C475 C 0.8991 0.79775 0.49259 0.0
C476 C 0.91324 0.80981 0.46031 0.0
C477 C 0.9589 0.79129 0.44891 0.0
C478 C 0.98985 0.76075 0.46967 0.0
C479 C 0.97433 0.74941 0.50228 0.0
H480 H 1.00874 0.32513 0.27333 0.0
H481 H 0.13254 0.34853 0.20713 0.0
H482 H 0.15744 0.42905 0.23864 0.0
H483 H 0.97758 0.46014 0.28075 0.0
H484 H 0.96053 0.45622 0.32365 0.0
H485 H 0.95531 0.39781 0.29793 0.0
H486 H 1.01063 0.34446 0.338 0.0
H487 H 1.01551 0.40254 0.36413 0.0
H488 H 0.07026 0.37087 0.3488 0.0
H489 H 0.16433 0.51235 0.27527 0.0
H490 H 0.15606 0.58577 0.31588 0.0
H491 H 1.02713 0.50694 0.35689 0.0
C492 C 1.04171 0.34642 0.26578 0.0
C493 C 0.06879 0.33018 0.23779 0.0
C494 C 0.11141 0.35974 0.22866 0.0
C495 C 0.12571 0.40577 0.24633 0.0
C496 C 0.0972 0.42157 0.2732 0.0
C497 C 0.05644 0.39227 0.28309 0.0
C498 C 1.03085 0.41847 0.31198 0.0
C499 C 0.97795 0.43408 0.30302 0.0
C500 C 1.0319 0.38191 0.34254 0.0
C501 C 0.0631 0.46754 0.3166 0.0
C502 C 0.10122 0.46882 0.29407 0.0
C503 C 0.1348 0.5114 0.29317 0.0
C504 C 0.12959 0.55321 0.31616 0.0
C505 C 0.09115 0.55215 0.3398 0.0
C506 C 0.05748 0.50868 0.33964 0.0
H507 H 0.64627 0.69693 0.76891 0.0
H508 H 0.51168 0.68461 0.71226 0.0
H509 H 0.48657 0.60562 0.74552 0.0
H510 H 0.6693 0.55962 0.77355 0.0
H511 H 0.6935 0.56115 0.81486 0.0
H512 H 0.69835 0.61965 0.78901 0.0
H513 H 0.65373 0.67619 0.83326 0.0
H514 H 0.64923 0.61795 0.85946 0.0
H515 H 0.59466 0.65429 0.84855 0.0
H516 H 0.47975 0.52288 0.78263 0.0
H517 H 0.48965 0.44775 0.82181 0.0
H518 H 0.62983 0.51439 0.85261 0.0
C519 C 0.61099 0.67843 0.76385 0.0
C520 C 0.58083 0.6973 0.73803 0.0
C521 C 0.53524 0.6713 0.73209 0.0
C522 C 0.52077 0.62623 0.75078 0.0
C523 C 0.55218 0.60777 0.77541 0.0
C524 C 0.59613 0.63351 0.78214 0.0
C525 C 0.62446 0.60461 0.8088 0.0
C526 C 0.67434 0.5851 0.79576 0.0
C527 C 0.63088 0.6404 0.83933 0.0
C528 C 0.58998 0.55807 0.81581 0.0
C529 C 0.54841 0.56053 0.79642 0.0
C530 C 0.51206 0.52087 0.79805 0.0
C531 C 0.51823 0.478 0.82023 0.0
C532 C 0.56049 0.47492 0.84052 0.0
C533 C 0.5967 0.51572 0.83799 0.0
H534 H 1.03491 0.52517 0.6931 0.0
H535 H 0.1297 0.42534 0.75242 0.0
H536 H 0.13169 0.4955 0.79568 0.0
H537 H 0.09007 0.65152 0.71249 0.0
H538 H 1.03271 0.68705 0.71395 0.0
H539 H 1.0388 0.62903 0.68797 0.0
H540 H 0.96387 0.58416 0.71668 0.0
H541 H 0.95709 0.64238 0.74237 0.0
H542 H 0.96346 0.5771 0.76092 0.0
H543 H 0.12534 0.57944 0.83149 0.0
H544 H 0.10288 0.66359 0.85973 0.0
H545 H 1.01021 0.70648 0.77707 0.0
C546 C 0.05601 0.51809 0.71525 0.0
C547 C 0.08233 0.46995 0.71941 0.0
C548 C 0.10898 0.46174 0.7489 0.0
C549 C 0.11065 0.50158 0.77341 0.0
C550 C 0.08503 0.54912 0.76816 0.0
C551 C 0.05754 0.55703 0.74 0.0
C552 C 1.03189 0.61067 0.74064 0.0
C553 C 0.04944 0.64668 0.71206 0.0
C554 C 0.97576 0.6031 0.74014 0.0
C555 C 0.04932 0.63203 0.77353 0.0
C556 C 0.0804 0.59633 0.78892 0.0
C557 C 0.10098 0.60757 0.81963 0.0
C558 C 0.08834 0.65574 0.83537 0.0
C559 C 0.05497 0.69183 0.82055 0.0
C560 C 1.03599 0.67992 0.78899 0.0
H561 H 0.62807 0.32332 0.27726 0.0
H562 H 0.50544 0.34024 0.34484 0.0
H563 H 0.47821 0.4204 0.31407 0.0
H564 H 0.6563 0.45964 0.26965 0.0
H565 H 0.67195 0.45713 0.22649 0.0
H566 H 0.67916 0.39851 0.25189 0.0
H567 H 0.62352 0.34362 0.2125 0.0
H568 H 0.61669 0.4019 0.18667 0.0
H569 H 0.56307 0.36785 0.20269 0.0
H570 H 0.46921 0.50465 0.27838 0.0
H571 H 0.47481 0.57924 0.23804 0.0
H572 H 0.60298 0.50574 0.19419 0.0
C573 C 0.59485 0.34311 0.28523 0.0
C574 C 0.56879 0.32514 0.31343 0.0
C575 C 0.52577 0.35271 0.32313 0.0
C576 C 0.51019 0.39858 0.3059 0.0
C577 C 0.53771 0.41617 0.27882 0.0
C578 C 0.57871 0.38866 0.26827 0.0
C579 C 0.6028 0.41639 0.23908 0.0
C580 C 0.65567 0.43395 0.24729 0.0
C581 C 0.60141 0.38029 0.20842 0.0
C582 C 0.56948 0.46429 0.2351 0.0
C583 C 0.53218 0.4637 0.25825 0.0
C584 C 0.49802 0.50509 0.25996 0.0
C585 C 0.50171 0.54758 0.23713 0.0
C586 C 0.53911 0.5483 0.21276 0.0
C587 C 0.57345 0.50603 0.21208 0.0
H588 H 0.50716 0.81691 0.27359 0.0
H589 H 0.60885 0.8552 0.19434 0.0
H590 H 0.63194 0.93931 0.22277 0.0
H591 H 0.4638 0.94697 0.28675 0.0
H592 H 0.45976 0.94121 0.33097 0.0
H593 H 0.45377 0.88235 0.30568 0.0
H594 H 0.52498 0.83698 0.33719 0.0
H595 H 0.53061 0.89531 0.36302 0.0
H596 H 0.58327 0.87126 0.34065 0.0
H597 H 0.63769 0.02429 0.25791 0.0
H598 H 0.63398 0.09576 0.30031 0.0
H599 H 0.53072 0.99966 0.35687 0.0
C600 C 0.53507 0.8424 0.26253 0.0
C601 C 0.55635 0.82925 0.2318 0.0
C602 C 0.59247 0.86398 0.21806 0.0
C603 C 0.60551 0.91214 0.2339 0.0
C604 C 0.58258 0.92472 0.26368 0.0
C605 C 0.54887 0.8902 0.27816 0.0
C606 C 0.52917 0.91296 0.31011 0.0
C607 C 0.47332 0.92136 0.30824 0.0
C608 C 0.54284 0.87699 0.33948 0.0
C609 C 0.55653 0.96599 0.31122 0.0
C610 C 0.58686 0.97243 0.28411 0.0
C611 C 0.61443 0.0193 0.27938 0.0
C612 C 0.61178 0.05991 0.30338 0.0
C613 C 0.58222 0.05311 0.33187 0.0
C614 C 0.55399 1.00567 0.33548 0.0
H615 H 0.1125 0.01393 0.85203 0.0
H616 H 0.97254 0.95009 0.81884 0.0
H617 H 0.96496 0.02609 0.77991 0.0
H618 H 0.07994 0.15413 0.84846 0.0
H619 H 0.13985 0.17506 0.8342 0.0
H620 H 0.13347 0.11625 0.85975 0.0
H621 H 0.17786 0.05949 0.81547 0.0
H622 H 0.18476 0.11818 0.78997 0.0
H623 H 0.15496 0.05912 0.77381 0.0
H624 H 0.97393 0.11005 0.74368 0.0
H625 H 1.00124 0.18926 0.71141 0.0
H626 H 0.13448 0.19758 0.7697 0.0
C627 C 0.07991 0.01606 0.83692 0.0
C628 C 1.04299 0.97589 0.83876 0.0
C629 C 1.00154 0.97993 0.81781 0.0
C630 C 0.99673 0.02329 0.79579 0.0
C631 C 1.03365 0.06242 0.79492 0.0
C632 C 0.07456 0.05889 0.81488 0.0
C633 C 0.11 0.1049 0.8086 0.0
C634 C 0.11616 0.13964 0.8396 0.0
C635 C 0.15982 0.08417 0.79622 0.0
C636 C 0.08295 0.13483 0.78177 0.0
C637 C 1.03879 0.11008 0.77431 0.0
C638 C 1.00833 0.12982 0.74952 0.0
C639 C 1.02402 0.17509 0.73141 0.0
C640 C 0.0699 0.20004 0.73807 0.0
C641 C 0.09902 0.17994 0.76408 0.0
H642 H 0.52871 0.019 0.69992 0.0
H643 H 0.65522 0.93978 0.74206 0.0
H644 H 0.66302 1.01252 0.78315 0.0
H645 H 0.57345 0.15475 0.70915 0.0
H646 H 0.51377 0.18093 0.71923 0.0
H647 H 0.51889 0.12302 0.69304 0.0
H648 H 0.46193 0.06893 0.73241 0.0
H649 H 0.45631 0.12676 0.75853 0.0
H650 H 0.47733 0.06421 0.77551 0.0
H651 H 0.65595 0.09507 0.82024 0.0
H652 H 0.63135 0.17549 0.85171 0.0
H653 H 0.51042 0.19995 0.78398 0.0
C654 C 0.55844 0.01706 0.71751 0.0
C655 C 0.5915 0.9736 0.71755 0.0
C656 C 0.62916 0.97229 0.74162 0.0
C657 C 0.63413 0.01372 0.7649 0.0
C658 C 0.60114 0.05624 0.76385 0.0
C659 C 0.56387 0.05789 0.74083 0.0
C660 C 0.53215 0.1069 0.74538 0.0
C661 C 0.53475 0.14356 0.71489 0.0
C662 C 0.47879 0.09071 0.75345 0.0
C663 C 0.55711 0.13258 0.77472 0.0
C664 C 0.59706 0.1031 0.78497 0.0
C665 C 0.62488 0.11852 0.81227 0.0
C666 C 0.61078 0.16447 0.8299 0.0
C667 C 0.5691 0.19434 0.82027 0.0
C668 C 0.54267 0.17839 0.79193 0.0
H669 H 0.11587 1.00969 0.19989 0.0
H670 H 0.98573 0.08377 0.24072 0.0
H671 H 0.97727 1.00857 0.28043 0.0
H672 H 0.0736 0.8727 0.20568 0.0
H673 H 0.13326 0.84738 0.2165 0.0
H674 H 0.12833 0.90664 0.19132 0.0
H675 H 0.18196 0.95983 0.23283 0.0
H676 H 0.1875 0.90062 0.25791 0.0
H677 H 0.16424 0.96154 0.27567 0.0
H678 H 0.98413 0.92366 0.31614 0.0
H679 H 1.00929 0.84251 0.34683 0.0
H680 H 0.13404 0.82502 0.28107 0.0
C681 C 0.08521 1.01002 0.21689 0.0
C682 C 0.05124 0.05265 0.21693 0.0
C683 C 1.01242 0.05187 0.24028 0.0
C684 C 1.0071 1.00903 0.26275 0.0
C685 C 1.04094 0.96727 0.2616 0.0
C686 C 0.07944 0.96782 0.23935 0.0
C687 C 0.11195 0.91936 0.24362 0.0
C688 C 0.11175 0.88446 0.21242 0.0
C689 C 0.16451 0.93637 0.25308 0.0
C690 C 0.08603 0.89135 0.27193 0.0
C691 C 0.04491 0.91921 0.2819 0.0
C692 C 1.01612 0.9015 0.30835 0.0
C693 C 1.03051 0.85508 0.32552 0.0
C694 C 0.0735 0.82702 0.31629 0.0
C695 C 0.10077 0.84511 0.28866 0.0
H696 H 0.92012 0.58372 0.97008 0.0
H697 H 0.06837 0.57984 0.93072 0.0
H698 H 0.09168 0.5155 0.97425 0.0
H699 H 0.95136 0.58301 0.05245 0.0
H700 H 0.90147 0.54044 0.06607 0.0
H701 H 0.89449 0.58129 0.0298 0.0
H702 H 0.87261 0.49738 0.99506 0.0
H703 H 0.87827 0.45632 0.03143 0.0
H704 H 0.91351 0.44089 0.99505 0.0
H705 H 0.10029 0.45812 1.02464 0.0
H706 H 0.09225 0.40565 0.07604 0.0
H707 H 0.93798 0.44683 0.08195 0.0
C708 C 0.95702 0.56801 0.96981 0.0
C709 C 0.99242 0.58668 0.94689 0.0
C710 C 1.04077 0.56623 0.94813 0.0
C711 C 0.05429 0.52969 0.97271 0.0
C712 C 1.0189 0.51382 0.99567 0.0
C713 C 0.97108 0.53168 0.99415 0.0
C714 C 0.94065 0.51053 1.02269 0.0
C715 C 0.92085 0.55657 0.044 0.0
C716 C 0.89879 0.47411 1.01031 0.0
C717 C 0.9791 0.47876 0.04089 0.0
C718 C 1.02392 0.481 1.02483 0.0
C719 C 0.06524 0.45551 0.03721 0.0
C720 C 0.06031 0.42588 0.06638 0.0
C721 C 1.01444 0.42206 0.08287 0.0
C722 C 0.97356 0.44949 0.07009 0.0
H723 H 0.70238 0.5853 0.57808 0.0
H724 H 0.54786 0.59677 0.60332 0.0
H725 H 0.52706 0.53661 0.55715 0.0
H726 H 0.68822 0.58652 0.49212 0.0
H727 H 0.73578 0.5385 0.48384 0.0
H728 H 0.73924 0.57995 0.52004 0.0
H729 H 0.74506 0.49558 0.55722 0.0
H730 H 0.74269 0.45388 0.52106 0.0
H731 H 0.69888 0.4437 0.55391 0.0
H732 H 0.5228 0.47929 0.50663 0.0
H733 H 0.53602 0.42214 0.45782 0.0
H734 H 0.69341 0.44681 0.4666 0.0
C735 C 0.66431 0.57414 0.57443 0.0
C736 C 0.62671 0.59584 0.59423 0.0
C737 C 0.57719 0.58104 0.5882 0.0
C738 C 0.56502 0.54688 0.56209 0.0
C739 C 0.60286 0.52761 0.5424 0.0
C740 C 0.65154 0.54006 0.54851 0.0
C741 C 0.6851 0.51464 0.52333 0.0
C742 C 0.71376 0.55747 0.50367 0.0
C743 C 0.71998 0.47456 0.53987 0.0
C744 C 0.64761 0.48637 0.50196 0.0
C745 C 0.6004 0.49442 0.51334 0.0
C746 C 0.55963 0.47232 0.49761 0.0
C747 C 0.56749 0.43998 0.46995 0.0
C748 C 0.6157 0.42999 0.45839 0.0
C749 C 0.65609 0.45428 0.47443 0.0
H750 H 0.42551 0.08187 0.96741 0.0
H751 H 0.58063 0.0856 0.94176 0.0
H752 H 0.59775 0.02471 0.98806 0.0
H753 H 0.43839 0.08363 0.05191 0.0
H754 H 0.38872 0.03757 0.06074 0.0
H755 H 0.38729 0.0779 1.02392 0.0
H756 H 0.37835 0.99282 0.98779 0.0
H757 H 0.37826 0.95223 1.02457 0.0
H758 H 0.42201 0.93934 0.99219 0.0
H759 H 0.59901 0.9715 0.04061 0.0
H760 H 0.58293 0.91805 0.09063 0.0
H761 H 0.42644 0.9451 0.07958 0.0
C762 C 0.46297 0.06896 0.97063 0.0
C763 C 0.50174 0.08961 0.95093 0.0
C764 C 0.55026 0.07152 0.95674 0.0
C765 C 0.56042 0.03675 0.98299 0.0
C766 C 0.52157 0.0196 1.00284 0.0
C767 C 0.47368 0.03399 0.99647 0.0
C768 C 0.43862 1.01066 1.02182 0.0
C769 C 0.41169 0.0551 0.0407 0.0
C770 C 0.40217 0.97142 1.00563 0.0
C771 C 0.47445 0.98168 0.04383 0.0
C772 C 0.52212 0.98757 0.03255 0.0
C773 C 0.56173 0.96574 0.04932 0.0
C774 C 0.55216 0.93542 0.07773 0.0
C775 C 0.5033 0.92662 0.0889 0.0
C776 C 0.46417 0.95118 0.07197 0.0
H777 H 0.19718 0.94856 0.46717 0.0
H778 H 1.04361 0.94124 0.43923 0.0
H779 H 1.02268 1.00015 0.48604 0.0
H780 H 0.1792 0.94192 0.55188 0.0
H781 H 0.22784 0.9881 0.56249 0.0
H782 H 0.23176 0.9496 0.52512 0.0
H783 H 0.2419 0.03662 0.4906 0.0
H784 H 0.23935 0.07536 0.52796 0.0
H785 H 0.19737 0.08929 0.49481 0.0
H786 H 1.01808 0.05389 0.53824 0.0
H787 H 1.03109 0.10632 0.58911 0.0
H788 H 0.18796 0.07896 0.58177 0.0
C789 C 0.15938 0.9607 0.47018 0.0
C790 C 0.12199 0.94049 0.44952 0.0
C791 C 0.07273 0.95619 0.45492 0.0
C792 C 0.06052 0.98952 0.4814 0.0
C793 C 0.0981 1.00697 0.50207 0.0
C794 C 0.14662 0.99382 0.49646 0.0
C795 C 0.17987 0.01632 0.52291 0.0
C796 C 0.2062 0.97129 0.5417 0.0
C797 C 0.21679 0.05682 0.50819 0.0
C798 C 0.14239 0.04369 0.54449 0.0
C799 C 0.09545 0.0378 0.5321 0.0
C800 C 0.05474 0.05926 0.548 0.0
C801 C 0.06247 0.08887 0.57685 0.0
C802 C 0.11051 0.09682 0.58941 0.0
C803 C 0.15074 0.07305 0.57318 0.0
loop_
_geom_bond_atom_site_label_1
_geom_bond_atom_site_label_2
_geom_bond_distance
_geom_bond_site_symmetry_2
_ccdc_geom_bond_type
C0 C1 1.351 . S
C0 N3 1.368 . S
C0 H5 0.931 . S
C1 C0 1.351 . S
C1 N2 1.373 . S
C1 H29 0.930 . S
N2 C1 1.373 . S
N2 C4 1.340 . S
N3 C0 1.368 . S
N3 C4 1.321 . S
N3 Co6 2.135 . S
C4 N2 1.340 . S
C4 N3 1.321 . S
C4 H28 0.930 . S
H5 C0 0.931 . S
Co6 N3 2.135 . S
Co6 N9 2.121 . S
Co6 O14 2.055 . S
Co6 O17 2.039 . S
Co6 N20 2.140 1_455 S
C7 O8 1.227 1_455 S
C7 O17 1.265 . S
O8 C7 1.227 1_655 S
N9 Co6 2.121 . S
N9 C11 1.375 . S
N9 C12 1.313 . S
C10 C11 1.338 . S
C10 N13 1.377 . S
C10 H30 0.930 . S
C11 N9 1.375 . S
C11 C10 1.338 . S
C11 H15 0.931 1_455 S
C12 N9 1.313 . S
C12 N13 1.344 . S
C12 H16 0.930 . S
N13 C10 1.377 . S
N13 C12 1.344 . S
O14 Co6 2.055 . S
O14 C18 1.253 . S
H15 C11 0.931 1_655 S
H16 C12 0.930 . S
O17 Co6 2.039 . S
O17 C7 1.265 . S
C18 O14 1.253 . S
C18 O19 1.227 . S
O19 C18 1.227 . S
N20 Co6 2.140 1_655 S
N20 C23 1.346 . S
N20 C24 1.345 . S
C21 C22 1.387 . S
C21 C25 1.391 . S
C22 C21 1.387 . S
C22 C23 1.369 . S
C22 H31 0.929 . S
C23 N20 1.346 . S
C23 C22 1.369 . S
C23 H26 0.928 . S
C24 N20 1.345 . S
C24 C25 1.371 . S
C24 H27 0.931 1_655 S
C25 C21 1.391 . S
C25 C24 1.371 . S
C25 H32 0.930 . S
H26 C23 0.928 . S
H27 C24 0.931 1_455 S
H28 C4 0.930 . S
H29 C1 0.930 . S
H30 C10 0.930 . S
H31 C22 0.929 . S
H32 C25 0.930 . S
C33 C34 1.351 . S
C33 N36 1.368 . S
C33 H38 0.931 . S
C34 C33 1.351 . S
C34 N35 1.373 . S
C34 H62 0.930 . S
N35 C34 1.373 . S
N35 C37 1.340 . S
N36 C33 1.368 . S
N36 C37 1.321 . S
N36 Co39 2.135 . S
C37 N35 1.340 . S
C37 N36 1.321 . S
C37 H61 0.930 . S
H38 C33 0.931 . S
Co39 N36 2.135 . S
Co39 N42 2.121 . S
Co39 O47 2.055 . S
Co39 O50 2.039 . S
Co39 N53 2.140 . S
C40 O41 1.227 . S
C40 O50 1.265 . S
O41 C40 1.227 . S
N42 Co39 2.121 . S
N42 C44 1.375 . S
N42 C45 1.313 . S
C43 C44 1.338 . S
C43 N46 1.377 . S
C43 H63 0.930 . S
C44 N42 1.375 . S
C44 C43 1.338 . S
C44 H48 0.931 . S
C45 N42 1.313 . S
C45 N46 1.344 . S
C45 H49 0.930 . S
N46 C43 1.377 . S
N46 C45 1.344 . S
O47 Co39 2.055 . S
O47 C51 1.253 . S
H48 C44 0.931 . S
H49 C45 0.930 . S
O50 Co39 2.039 . S
O50 C40 1.265 . S
C51 O47 1.253 . S
C51 O52 1.227 . S
O52 C51 1.227 . S
N53 Co39 2.140 . S
N53 C56 1.346 . S
N53 C57 1.345 . S
C54 C55 1.387 . S
C54 C58 1.391 . S
C55 C54 1.387 . S
C55 C56 1.369 . S
C55 H64 0.929 . S
C56 N53 1.346 . S
C56 C55 1.369 . S
C56 H59 0.928 . S
C57 N53 1.345 . S
C57 C58 1.371 . S
C57 H60 0.931 . S
C58 C54 1.391 . S
C58 C57 1.371 . S
C58 H65 0.930 . S
H59 C56 0.928 . S
H60 C57 0.931 . S
H61 C37 0.930 . S
H62 C34 0.930 . S
H63 C43 0.930 . S
H64 C55 0.929 . S
H65 C58 0.930 . S
C66 C67 1.351 . S
C66 N69 1.368 . S
C66 H71 0.931 . S
C67 C66 1.351 . S
C67 N68 1.373 . S
C67 H95 0.930 . S
N68 C67 1.373 . S
N68 C70 1.340 . S
N69 C66 1.368 . S
N69 C70 1.321 . S
N69 Co72 2.135 . S
C70 N68 1.340 . S
C70 N69 1.321 . S
C70 H94 0.930 . S
H71 C66 0.931 . S
Co72 N69 2.135 . S
Co72 N75 2.121 . S
Co72 O80 2.055 . S
Co72 O83 2.039 . S
Co72 N86 2.140 1_455 S
C73 O74 1.227 1_455 S
C73 O83 1.265 . S
O74 C73 1.227 1_655 S
N75 Co72 2.121 . S
N75 C77 1.375 . S
N75 C78 1.313 . S
C76 C77 1.338 . S
C76 N79 1.377 . S
C76 H96 0.930 . S
C77 N75 1.375 . S
C77 C76 1.338 . S
C77 H81 0.931 1_455 S
C78 N75 1.313 . S
C78 N79 1.344 . S
C78 H82 0.930 . S
N79 C76 1.377 . S
N79 C78 1.344 . S
O80 Co72 2.055 . S
O80 C84 1.253 . S
H81 C77 0.931 1_655 S
H82 C78 0.930 . S
O83 Co72 2.039 . S
O83 C73 1.265 . S
C84 O80 1.253 . S
C84 O85 1.227 . S
O85 C84 1.227 . S
N86 Co72 2.140 1_655 S
N86 C89 1.346 . S
N86 C90 1.345 . S
C87 C88 1.387 . S
C87 C91 1.391 . S
C88 C87 1.387 . S
C88 C89 1.369 . S
C88 H97 0.929 . S
C89 N86 1.346 . S
C89 C88 1.369 . S
C89 H92 0.928 . S
C90 N86 1.345 . S
C90 C91 1.371 . S
C90 H93 0.931 1_655 S
C91 C87 1.391 . S
C91 C90 1.371 . S
C91 H98 0.930 . S
H92 C89 0.928 . S
H93 C90 0.931 1_455 S
H94 C70 0.930 . S
H95 C67 0.930 . S
H96 C76 0.930 . S
H97 C88 0.929 . S
H98 C91 0.930 . S
C99 C100 1.351 . S
C99 N102 1.368 . S
C99 H104 0.931 . S
C100 C99 1.351 . S
C100 N101 1.373 . S
C100 H128 0.930 . S
N101 C100 1.373 . S
N101 C103 1.340 . S
N102 C99 1.368 . S
N102 C103 1.321 . S
N102 Co105 2.135 . S
C103 N101 1.340 . S
C103 N102 1.321 . S
C103 H127 0.930 . S
H104 C99 0.931 . S
Co105 N102 2.135 . S
Co105 N108 2.121 . S
Co105 O113 2.055 . S
Co105 O116 2.039 . S
Co105 N119 2.140 . S
C106 O107 1.227 . S
C106 O116 1.265 . S
O107 C106 1.227 . S
N108 Co105 2.121 . S
N108 C110 1.375 . S
N108 C111 1.313 . S
C109 C110 1.338 . S
C109 N112 1.377 . S
C109 H129 0.930 . S
C110 N108 1.375 . S
C110 C109 1.338 . S
C110 H114 0.931 . S
C111 N108 1.313 . S
C111 N112 1.344 . S
C111 H115 0.930 . S
N112 C109 1.377 . S
N112 C111 1.344 . S
O113 Co105 2.055 . S
O113 C117 1.253 . S
H114 C110 0.931 . S
H115 C111 0.930 . S
O116 Co105 2.039 . S
O116 C106 1.265 . S
C117 O113 1.253 . S
C117 O118 1.227 . S
O118 C117 1.227 . S
N119 Co105 2.140 . S
N119 C122 1.346 . S
N119 C123 1.345 . S
C120 C121 1.387 . S
C120 C124 1.391 . S
C121 C120 1.387 . S
C121 C122 1.369 . S
C121 H130 0.929 . S
C122 N119 1.346 . S
C122 C121 1.369 . S
C122 H125 0.928 . S
C123 N119 1.345 . S
C123 C124 1.371 . S
C123 H126 0.931 . S
C124 C120 1.391 . S
C124 C123 1.371 . S
C124 H131 0.930 . S
H125 C122 0.928 . S
H126 C123 0.931 . S
H127 C103 0.930 . S
H128 C100 0.930 . S
H129 C109 0.930 . S
H130 C121 0.929 . S
H131 C124 0.930 . S
C132 C133 1.351 . S
C132 N135 1.368 . S
C132 H137 0.931 . S
C133 C132 1.351 . S
C133 N134 1.373 . S
C133 H161 0.930 . S
N134 C133 1.373 . S
N134 C136 1.340 . S
N135 C132 1.368 . S
N135 C136 1.321 . S
N135 Co138 2.135 . S
C136 N134 1.340 . S
C136 N135 1.321 . S
C136 H160 0.930 . S
H137 C132 0.931 . S
Co138 N135 2.135 . S
Co138 N141 2.121 . S
Co138 O146 2.055 . S
Co138 O149 2.039 . S
Co138 N152 2.140 . S
C139 O140 1.227 . S
C139 O149 1.265 . S
O140 C139 1.227 . S
N141 Co138 2.121 . S
N141 C143 1.375 . S
N141 C144 1.313 . S
C142 C143 1.338 . S
C142 N145 1.377 . S
C142 H162 0.930 . S
C143 N141 1.375 . S
C143 C142 1.338 . S
C143 H147 0.931 . S
C144 N141 1.313 . S
C144 N145 1.344 . S
C144 H148 0.930 . S
N145 C142 1.377 . S
N145 C144 1.344 . S
O146 Co138 2.055 . S
O146 C150 1.253 . S
H147 C143 0.931 . S
H148 C144 0.930 . S
O149 Co138 2.039 . S
O149 C139 1.265 . S
C150 O146 1.253 . S
C150 O151 1.227 . S
O151 C150 1.227 . S
N152 Co138 2.140 . S
N152 C155 1.346 . S
N152 C156 1.345 . S
C153 C154 1.387 . S
C153 C157 1.391 . S
C154 C153 1.387 . S
C154 C155 1.369 . S
C154 H163 0.929 . S
C155 N152 1.346 . S
C155 C154 1.369 . S
C155 H158 0.928 . S
C156 N152 1.345 . S
C156 C157 1.371 . S
C156 H159 0.931 . S
C157 C153 1.391 . S
C157 C156 1.371 . S
C157 H164 0.930 . S
H158 C155 0.928 . S
H159 C156 0.931 . S
H160 C136 0.930 . S
H161 C133 0.930 . S
H162 C142 0.930 . S
H163 C154 0.929 . S
H164 C157 0.930 . S
C165 C166 1.351 . S
C165 N168 1.368 . S
C165 H170 0.931 . S
C166 C165 1.351 . S
C166 N167 1.373 . S
C166 H194 0.930 . S
N167 C166 1.373 . S
N167 C169 1.340 . S
N168 C165 1.368 . S
N168 C169 1.321 . S
N168 Co171 2.135 . S
C169 N167 1.340 . S
C169 N168 1.321 . S
C169 H193 0.930 1_655 S
H170 C165 0.931 . S
Co171 N168 2.135 . S
Co171 N174 2.121 . S
Co171 O179 2.055 . S
Co171 O182 2.039 . S
Co171 N185 2.140 1_655 S
C172 O173 1.227 . S
C172 O182 1.265 1_455 S
O173 C172 1.227 . S
N174 Co171 2.121 . S
N174 C176 1.375 1_655 S
N174 C177 1.313 . S
C175 C176 1.338 . S
C175 N178 1.377 1_455 S
C175 H195 0.930 . S
C176 N174 1.375 1_455 S
C176 C175 1.338 . S
C176 H180 0.931 . S
C177 N174 1.313 . S
C177 N178 1.344 . S
C177 H181 0.930 . S
N178 C175 1.377 1_655 S
N178 C177 1.344 . S
O179 Co171 2.055 . S
O179 C183 1.253 . S
H180 C176 0.931 . S
H181 C177 0.930 . S
O182 Co171 2.039 . S
O182 C172 1.265 1_655 S
C183 O179 1.253 . S
C183 O184 1.227 . S
O184 C183 1.227 . S
N185 Co171 2.140 1_455 S
N185 C188 1.346 . S
N185 C189 1.345 . S
C186 C187 1.387 . S
C186 C190 1.391 . S
C187 C186 1.387 . S
C187 C188 1.369 . S
C187 H196 0.929 . S
C188 N185 1.346 . S
C188 C187 1.369 . S
C188 H191 0.928 . S
C189 N185 1.345 . S
C189 C190 1.371 . S
C189 H192 0.931 . S
C190 C186 1.391 . S
C190 C189 1.371 . S
C190 H197 0.930 . S
H191 C188 0.928 . S
H192 C189 0.931 . S
H193 C169 0.930 1_455 S
H194 C166 0.930 . S
H195 C175 0.930 . S
H196 C187 0.929 . S
H197 C190 0.930 . S
C198 C199 1.351 . S
C198 N201 1.368 . S
C198 H203 0.931 . S
C199 C198 1.351 . S
C199 N200 1.373 . S
C199 H227 0.930 . S
N200 C199 1.373 . S
N200 C202 1.340 . S
N201 C198 1.368 . S
N201 C202 1.321 . S
N201 Co204 2.135 . S
C202 N200 1.340 . S
C202 N201 1.321 . S
C202 H226 0.930 . S
H203 C198 0.931 . S
Co204 N201 2.135 . S
Co204 N207 2.121 . S
Co204 O212 2.055 . S
Co204 O215 2.039 . S
Co204 N218 2.140 . S
C205 O206 1.227 . S
C205 O215 1.265 . S
O206 C205 1.227 . S
N207 Co204 2.121 . S
N207 C209 1.375 . S
N207 C210 1.313 . S
C208 C209 1.338 . S
C208 N211 1.377 . S
C208 H228 0.930 . S
C209 N207 1.375 . S
C209 C208 1.338 . S
C209 H213 0.931 . S
C210 N207 1.313 . S
C210 N211 1.344 . S
C210 H214 0.930 . S
N211 C208 1.377 . S
N211 C210 1.344 . S
O212 Co204 2.055 . S
O212 C216 1.253 . S
H213 C209 0.931 . S
H214 C210 0.930 . S
O215 Co204 2.039 . S
O215 C205 1.265 . S
C216 O212 1.253 . S
C216 O217 1.227 . S
O217 C216 1.227 . S
N218 Co204 2.140 . S
N218 C221 1.346 . S
N218 C222 1.345 . S
C219 C220 1.387 . S
C219 C223 1.391 . S
C220 C219 1.387 . S
C220 C221 1.369 . S
C220 H229 0.929 . S
C221 N218 1.346 . S
C221 C220 1.369 . S
C221 H224 0.928 . S
C222 N218 1.345 . S
C222 C223 1.371 . S
C222 H225 0.931 . S
C223 C219 1.391 . S
C223 C222 1.371 . S
C223 H230 0.930 . S
H224 C221 0.928 . S
H225 C222 0.931 . S
H226 C202 0.930 . S
H227 C199 0.930 . S
H228 C208 0.930 . S
H229 C220 0.929 . S
H230 C223 0.930 . S
C231 C232 1.351 . S
C231 N234 1.368 . S
C231 H236 0.931 . S
C232 C231 1.351 . S
C232 N233 1.373 . S
C232 H260 0.930 . S
N233 C232 1.373 . S
N233 C235 1.340 . S
N234 C231 1.368 . S
N234 C235 1.321 . S
N234 Co237 2.135 . S
C235 N233 1.340 . S
C235 N234 1.321 . S
C235 H259 0.930 1_655 S
H236 C231 0.931 . S
Co237 N234 2.135 . S
Co237 N240 2.121 . S
Co237 O245 2.055 . S
Co237 O248 2.039 . S
Co237 N251 2.140 1_655 S
C238 O239 1.227 . S
C238 O248 1.265 1_455 S
O239 C238 1.227 . S
N240 Co237 2.121 . S
N240 C242 1.375 1_655 S
N240 C243 1.313 . S
C241 C242 1.338 . S
C241 N244 1.377 1_455 S
C241 H261 0.930 . S
C242 N240 1.375 1_455 S
C242 C241 1.338 . S
C242 H246 0.931 . S
C243 N240 1.313 . S
C243 N244 1.344 . S
C243 H247 0.930 . S
N244 C241 1.377 1_655 S
N244 C243 1.344 . S
O245 Co237 2.055 . S
O245 C249 1.253 . S
H246 C242 0.931 . S
H247 C243 0.930 . S
O248 Co237 2.039 . S
O248 C238 1.265 1_655 S
C249 O245 1.253 . S
C249 O250 1.227 . S
O250 C249 1.227 . S
N251 Co237 2.140 1_455 S
N251 C254 1.346 . S
N251 C255 1.345 . S
C252 C253 1.387 . S
C252 C256 1.391 . S
C253 C252 1.387 . S
C253 C254 1.369 . S
C253 H262 0.929 . S
C254 N251 1.346 . S
C254 C253 1.369 . S
C254 H257 0.928 . S
C255 N251 1.345 . S
C255 C256 1.371 . S
C255 H258 0.931 . S
C256 C252 1.391 . S
C256 C255 1.371 . S
C256 H263 0.930 . S
H257 C254 0.928 . S
H258 C255 0.931 . S
H259 C235 0.930 1_455 S
H260 C232 0.930 . S
H261 C241 0.930 . S
H262 C253 0.929 . S
H263 C256 0.930 . S
H264 C276 0.930 . S
H265 C278 0.930 . S
H266 C279 0.930 . S
H267 C283 0.959 . S
H268 C283 0.959 . S
H269 C283 0.961 . S
H270 C284 0.960 . S
H271 C284 0.961 . S
H272 C284 0.959 . S
H273 C287 0.929 . S
H274 C288 0.931 . S
H275 C290 0.930 . S
C276 H264 0.930 . S
C276 C277 1.399 . S
C276 C281 1.399 . S
C277 C276 1.399 . S
C277 C278 1.376 . S
C278 H265 0.930 . S
C278 C277 1.376 . S
C278 C279 1.388 . S
C279 H266 0.930 . S
C279 C278 1.388 . S
C279 C280 1.390 . S
C280 C279 1.390 . S
C280 C281 1.394 . S
C280 C286 1.465 1_556 S
C281 C276 1.399 . S
C281 C280 1.394 . S
C281 C282 1.516 1_556 S
C282 C281 1.516 1_554 S
C282 C283 1.502 . S
C282 C284 1.561 . S
C282 C285 1.526 . S
C283 H267 0.959 . S
C283 H268 0.959 . S
C283 H269 0.961 . S
C283 C282 1.502 . S
C284 H270 0.960 . S
C284 H271 0.961 . S
C284 H272 0.959 . S
C284 C282 1.561 . S
C285 C282 1.526 . S
C285 C286 1.396 . S
C285 C290 1.390 . S
C286 C280 1.465 1_554 S
C286 C285 1.396 . S
C286 C287 1.399 1_554 S
C287 H273 0.929 . S
C287 C286 1.399 1_556 S
C287 C288 1.385 1_556 S
C288 H274 0.931 . S
C288 C287 1.385 1_554 S
C288 C289 1.389 . S
C289 C288 1.389 . S
C289 C290 1.387 . S
C290 H275 0.930 . S
C290 C285 1.390 . S
C290 C289 1.387 . S
H291 C303 0.930 . S
H292 C305 0.930 . S
H293 C306 0.930 . S
H294 C310 0.959 . S
H295 C310 0.959 . S
H296 C310 0.961 . S
H297 C311 0.960 . S
H298 C311 0.961 . S
H299 C311 0.959 . S
H300 C314 0.929 . S
H301 C315 0.931 . S
H302 C317 0.930 . S
C303 H291 0.930 . S
C303 C304 1.399 . S
C303 C308 1.399 . S
C304 C303 1.399 . S
C304 C305 1.376 . S
C305 H292 0.930 . S
C305 C304 1.376 . S
C305 C306 1.388 . S
C306 H293 0.930 . S
C306 C305 1.388 . S
C306 C307 1.390 . S
C307 C306 1.390 . S
C307 C308 1.394 . S
C307 C313 1.465 . S
C308 C303 1.399 . S
C308 C307 1.394 . S
C308 C309 1.516 . S
C309 C308 1.516 . S
C309 C310 1.502 . S
C309 C311 1.561 . S
C309 C312 1.526 . S
C310 H294 0.959 . S
C310 H295 0.959 . S
C310 H296 0.961 . S
C310 C309 1.502 . S
C311 H297 0.960 . S
C311 H298 0.961 . S
C311 H299 0.959 . S
C311 C309 1.561 . S
C312 C309 1.526 . S
C312 C313 1.396 . S
C312 C317 1.390 . S
C313 C307 1.465 . S
C313 C312 1.396 . S
C313 C314 1.399 . S
C314 H300 0.929 . S
C314 C313 1.399 . S
C314 C315 1.385 . S
C315 H301 0.931 . S
C315 C314 1.385 . S
C315 C316 1.389 . S
C316 C315 1.389 . S
C316 C317 1.387 . S
C317 H302 0.930 . S
C317 C312 1.390 . S
C317 C316 1.387 . S
H318 C330 0.930 . S
H319 C332 0.930 . S
H320 C333 0.930 . S
H321 C337 0.959 . S
H322 C337 0.959 . S
H323 C337 0.961 . S
H324 C338 0.960 . S
H325 C338 0.961 1_556 S
H326 C338 0.959 . S
H327 C341 0.929 . S
H328 C342 0.931 . S
H329 C344 0.930 . S
C330 H318 0.930 . S
C330 C331 1.399 . S
C330 C335 1.399 . S
C331 C330 1.399 . S
C331 C332 1.376 . S
C332 H319 0.930 . S
C332 C331 1.376 . S
C332 C333 1.388 . S
C333 H320 0.930 . S
C333 C332 1.388 . S
C333 C334 1.390 . S
C334 C333 1.390 . S
C334 C335 1.394 . S
C334 C340 1.465 1_554 S
C335 C330 1.399 . S
C335 C334 1.394 . S
C335 C336 1.516 1_554 S
C336 C335 1.516 1_556 S
C336 C337 1.502 . S
C336 C338 1.561 1_556 S
C336 C339 1.526 . S
C337 H321 0.959 . S
C337 H322 0.959 . S
C337 H323 0.961 . S
C337 C336 1.502 . S
C338 H324 0.960 . S
C338 H325 0.961 1_554 S
C338 H326 0.959 . S
C338 C336 1.561 1_554 S
C339 C336 1.526 . S
C339 C340 1.396 . S
C339 C344 1.390 . S
C340 C334 1.465 1_556 S
C340 C339 1.396 . S
C340 C341 1.399 . S
C341 H327 0.929 . S
C341 C340 1.399 . S
C341 C342 1.385 . S
C342 H328 0.931 . S
C342 C341 1.385 . S
C342 C343 1.389 . S
C343 C342 1.389 . S
C343 C344 1.387 . S
C344 H329 0.930 . S
C344 C339 1.390 . S
C344 C343 1.387 . S
H345 C357 0.930 . S
H346 C359 0.930 . S
H347 C360 0.930 . S
H348 C364 0.959 . S
H349 C364 0.959 . S
H350 C364 0.961 . S
H351 C365 0.960 . S
H352 C365 0.961 . S
H353 C365 0.959 . S
H354 C368 0.929 . S
H355 C369 0.931 . S
H356 C371 0.930 . S
C357 H345 0.930 . S
C357 C358 1.399 . S
C357 C362 1.399 . S
C358 C357 1.399 . S
C358 C359 1.376 . S
C359 H346 0.930 . S
C359 C358 1.376 . S
C359 C360 1.388 . S
C360 H347 0.930 . S
C360 C359 1.388 . S
C360 C361 1.390 . S
C361 C360 1.390 . S
C361 C362 1.394 . S
C361 C367 1.465 . S
C362 C357 1.399 . S
C362 C361 1.394 . S
C362 C363 1.516 . S
C363 C362 1.516 . S
C363 C364 1.502 . S
C363 C365 1.561 . S
C363 C366 1.526 . S
C364 H348 0.959 . S
C364 H349 0.959 . S
C364 H350 0.961 . S
C364 C363 1.502 . S
C365 H351 0.960 . S
C365 H352 0.961 . S
C365 H353 0.959 . S
C365 C363 1.561 . S
C366 C363 1.526 . S
C366 C367 1.396 . S
C366 C371 1.390 . S
C367 C361 1.465 . S
C367 C366 1.396 . S
C367 C368 1.399 . S
C368 H354 0.929 . S
C368 C367 1.399 . S
C368 C369 1.385 . S
C369 H355 0.931 . S
C369 C368 1.385 . S
C369 C370 1.389 . S
C370 C369 1.389 . S
C370 C371 1.387 . S
C371 H356 0.930 . S
C371 C366 1.390 . S
C371 C370 1.387 . S
H372 C384 0.930 . S
H373 C386 0.930 . S
H374 C387 0.930 1_556 S
H375 C391 0.959 . S
H376 C391 0.959 . S
H377 C391 0.961 . S
H378 C392 0.960 . S
H379 C392 0.966 . S
H380 C392 0.959 1_556 S
H381 C395 0.929 . S
H382 C396 0.931 . S
H383 C398 0.930 . S
C384 H372 0.930 . S
C384 C385 1.399 . S
C384 C389 1.399 . S
C385 C384 1.399 . S
C385 C386 1.376 . S
C386 H373 0.930 . S
C386 C385 1.376 . S
C386 C387 1.388 . S
C387 H374 0.930 1_554 S
C387 C386 1.388 . S
C387 C388 1.390 . S
C388 C387 1.390 . S
C388 C389 1.394 . S
C388 C394 1.465 1_554 S
C389 C384 1.399 . S
C389 C388 1.394 . S
C389 C390 1.516 . S
C390 C389 1.516 . S
C390 C391 1.502 . S
C390 C392 1.561 . S
C390 C393 1.526 1_554 S
C391 H375 0.959 . S
C391 H376 0.959 . S
C391 H377 0.961 . S
C391 C390 1.502 . S
C392 H378 0.960 . S
C392 H379 0.966 . S
C392 H380 0.959 1_554 S
C392 C390 1.561 . S
C393 C390 1.526 1_556 S
C393 C394 1.396 . S
C393 C398 1.390 . S
C394 C388 1.465 1_556 S
C394 C393 1.396 . S
C394 C395 1.399 . S
C395 H381 0.929 . S
C395 C394 1.399 . S
C395 C396 1.385 . S
C396 H382 0.931 . S
C396 C395 1.385 . S
C396 C397 1.389 . S
C397 C396 1.389 . S
C397 C398 1.387 . S
C398 H383 0.930 . S
C398 C393 1.390 . S
C398 C397 1.387 . S
H399 C411 0.930 . S
H400 C413 0.930 . S
H401 C414 0.930 . S
H402 C418 0.959 . S
H403 C418 0.959 . S
H404 C418 0.961 . S
H405 C419 0.960 . S
H406 C419 0.961 . S
H407 C419 0.959 . S
H408 C422 0.929 . S
H409 C423 0.931 . S
H410 C425 0.930 . S
C411 H399 0.930 . S
C411 C412 1.399 . S
C411 C416 1.399 . S
C412 C411 1.399 . S
C412 C413 1.376 . S
C413 H400 0.930 . S
C413 C412 1.376 . S
C413 C414 1.388 . S
C414 H401 0.930 . S
C414 C413 1.388 . S
C414 C415 1.390 . S
C415 C414 1.390 . S
C415 C416 1.394 . S
C415 C421 1.465 . S
C416 C411 1.399 . S
C416 C415 1.394 . S
C416 C417 1.516 . S
C417 C416 1.516 . S
C417 C418 1.502 . S
C417 C419 1.561 . S
C417 C420 1.526 . S
C418 H402 0.959 . S
C418 H403 0.959 . S
C418 H404 0.961 . S
C418 C417 1.502 . S
C419 H405 0.960 . S
C419 H406 0.961 . S
C419 H407 0.959 . S
C419 C417 1.561 . S
C420 C417 1.526 . S
C420 C421 1.396 . S
C420 C425 1.390 . S
C421 C415 1.465 . S
C421 C420 1.396 . S
C421 C422 1.399 . S
C422 H408 0.929 . S
C422 C421 1.399 . S
C422 C423 1.385 . S
C423 H409 0.931 . S
C423 C422 1.385 . S
C423 C424 1.389 . S
C424 C423 1.389 . S
C424 C425 1.387 . S
C425 H410 0.930 . S
C425 C420 1.390 . S
C425 C424 1.387 . S
H426 C438 0.930 . S
H427 C440 0.930 . S
H428 C441 0.930 . S
H429 C445 0.959 . S
H430 C445 0.959 . S
H431 C445 0.961 . S
H432 C446 0.960 . S
H433 C446 0.961 . S
H434 C446 0.959 . S
H435 C449 0.929 . S
H436 C450 0.931 . S
H437 C452 0.930 . S
C438 H426 0.930 . S
C438 C439 1.399 . S
C438 C443 1.399 . S
C439 C438 1.399 . S
C439 C440 1.376 . S
C440 H427 0.930 . S
C440 C439 1.376 . S
C440 C441 1.388 . S
C441 H428 0.930 . S
C441 C440 1.388 . S
C441 C442 1.390 . S
C442 C441 1.390 . S
C442 C443 1.394 . S
C442 C448 1.465 1_554 S
C443 C438 1.399 . S
C443 C442 1.394 . S
C443 C444 1.516 . S
C444 C443 1.516 . S
C444 C445 1.502 1_554 S
C444 C446 1.561 . S
C444 C447 1.526 1_554 S
C445 H429 0.959 . S
C445 H430 0.959 . S
C445 H431 0.961 . S
C445 C444 1.502 1_556 S
C446 H432 0.960 . S
C446 H433 0.961 . S
C446 H434 0.959 . S
C446 C444 1.561 . S
C447 C444 1.526 1_556 S
C447 C448 1.396 . S
C447 C452 1.390 . S
C448 C442 1.465 1_556 S
C448 C447 1.396 . S
C448 C449 1.399 . S
C449 H435 0.929 . S
C449 C448 1.399 . S
C449 C450 1.385 . S
C450 H436 0.931 . S
C450 C449 1.385 . S
C450 C451 1.389 . S
C451 C450 1.389 . S
C451 C452 1.387 . S
C452 H437 0.930 . S
C452 C447 1.390 . S
C452 C451 1.387 . S
H453 C465 0.930 . S
H454 C467 0.930 . S
H455 C468 0.930 . S
H456 C472 0.959 . S
H457 C472 0.959 . S
H458 C472 0.961 . S
H459 C473 0.960 . S
H460 C473 0.961 . S
H461 C473 0.959 . S
H462 C476 0.929 . S
H463 C477 0.931 . S
H464 C479 0.930 . S
C465 H453 0.930 . S
C465 C466 1.399 . S
C465 C470 1.399 . S
C466 C465 1.399 . S
C466 C467 1.376 . S
C467 H454 0.930 . S
C467 C466 1.376 . S
C467 C468 1.388 . S
C468 H455 0.930 . S
C468 C467 1.388 . S
C468 C469 1.390 . S
C469 C468 1.390 . S
C469 C470 1.394 . S
C469 C475 1.465 . S
C470 C465 1.399 . S
C470 C469 1.394 . S
C470 C471 1.516 . S
C471 C470 1.516 . S
C471 C472 1.502 . S
C471 C473 1.561 . S
C471 C474 1.526 . S
C472 H456 0.959 . S
C472 H457 0.959 . S
C472 H458 0.961 . S
C472 C471 1.502 . S
C473 H459 0.960 . S
C473 H460 0.961 . S
C473 H461 0.959 . S
C473 C471 1.561 . S
C474 C471 1.526 . S
C474 C475 1.396 . S
C474 C479 1.390 . S
C475 C469 1.465 . S
C475 C474 1.396 . S
C475 C476 1.399 . S
C476 H462 0.929 . S
C476 C475 1.399 . S
C476 C477 1.385 . S
C477 H463 0.931 . S
C477 C476 1.385 . S
C477 C478 1.389 . S
C478 C477 1.389 . S
C478 C479 1.387 . S
C479 H464 0.930 . S
C479 C474 1.390 . S
C479 C478 1.387 . S
H480 C492 0.930 . S
H481 C494 0.930 . S
H482 C495 0.930 . S
H483 C499 0.959 . S
H484 C499 0.959 . S
H485 C499 0.961 . S
H486 C500 0.961 . S
H487 C500 0.961 . S
H488 C500 0.956 1_655 S
H489 C503 0.929 . S
H490 C504 0.931 . S
H491 C506 0.930 . S
C492 H480 0.930 . S
C492 C493 1.399 . S
C492 C497 1.399 . S
C493 C492 1.399 . S
C493 C494 1.376 1_455 S
C494 H481 0.930 . S
C494 C493 1.376 1_655 S
C494 C495 1.388 . S
C495 H482 0.930 . S
C495 C494 1.388 . S
C495 C496 1.390 1_655 S
C496 C495 1.390 1_455 S
C496 C497 1.394 . S
C496 C502 1.465 1_455 S
C497 C492 1.399 . S
C497 C496 1.394 . S
C497 C498 1.516 . S
C498 C497 1.516 . S
C498 C499 1.502 . S
C498 C500 1.563 . S
C498 C501 1.526 . S
C499 H483 0.959 . S
C499 H484 0.959 . S
C499 H485 0.961 . S
C499 C498 1.502 . S
C500 H486 0.961 . S
C500 H487 0.961 . S
C500 H488 0.956 1_455 S
C500 C498 1.563 . S
C501 C498 1.526 . S
C501 C502 1.395 1_455 S
C501 C506 1.390 . S
C502 C496 1.465 1_655 S
C502 C501 1.395 1_655 S
C502 C503 1.400 . S
C503 H489 0.929 . S
C503 C502 1.400 . S
C503 C504 1.385 . S
C504 H490 0.931 . S
C504 C503 1.385 . S
C504 C505 1.389 1_655 S
C505 C504 1.389 1_455 S
C505 C506 1.387 . S
C506 H491 0.930 . S
C506 C501 1.390 . S
C506 C505 1.387 . S
H507 C519 0.930 . S
H508 C521 0.930 . S
H509 C522 0.930 . S
H510 C526 0.959 . S
H511 C526 0.959 . S
H512 C526 0.961 . S
H513 C527 0.960 . S
H514 C527 0.961 . S
H515 C527 0.959 . S
H516 C530 0.929 . S
H517 C531 0.931 . S
H518 C533 0.930 . S
C519 H507 0.930 . S
C519 C520 1.399 . S
C519 C524 1.399 . S
C520 C519 1.399 . S
C520 C521 1.376 . S
C521 H508 0.930 . S
C521 C520 1.376 . S
C521 C522 1.388 . S
C522 H509 0.930 . S
C522 C521 1.388 . S
C522 C523 1.390 . S
C523 C522 1.390 . S
C523 C524 1.394 . S
C523 C529 1.465 . S
C524 C519 1.399 . S
C524 C523 1.394 . S
C524 C525 1.516 . S
C525 C524 1.516 . S
C525 C526 1.502 . S
C525 C527 1.561 . S
C525 C528 1.526 . S
C526 H510 0.959 . S
C526 H511 0.959 . S
C526 H512 0.961 . S
C526 C525 1.502 . S
C527 H513 0.960 . S
C527 H514 0.961 . S
C527 H515 0.959 . S
C527 C525 1.561 . S
C528 C525 1.526 . S
C528 C529 1.396 . S
C528 C533 1.390 . S
C529 C523 1.465 . S
C529 C528 1.396 . S
C529 C530 1.399 . S
C530 H516 0.929 . S
C530 C529 1.399 . S
C530 C531 1.385 . S
C531 H517 0.931 . S
C531 C530 1.385 . S
C531 C532 1.389 . S
C532 C531 1.389 . S
C532 C533 1.387 . S
C533 H518 0.930 . S
C533 C528 1.390 . S
C533 C532 1.387 . S
H534 C546 0.930 . S
H535 C548 0.930 . S
H536 C549 0.930 . S
H537 C553 0.959 . S
H538 C553 0.959 . S
H539 C553 0.961 . S
H540 C554 0.960 . S
H541 C554 0.961 . S
H542 C554 0.959 . S
H543 C557 0.929 . S
H544 C558 0.931 . S
H545 C560 0.930 . S
C546 H534 0.930 . S
C546 C547 1.399 . S
C546 C551 1.399 . S
C547 C546 1.399 . S
C547 C548 1.376 1_455 S
C548 H535 0.930 . S
C548 C547 1.376 1_655 S
C548 C549 1.388 . S
C549 H536 0.930 . S
C549 C548 1.388 . S
C549 C550 1.390 . S
C550 C549 1.390 . S
C550 C551 1.394 1_655 S
C550 C556 1.465 . S
C551 C546 1.399 . S
C551 C550 1.394 1_455 S
C551 C552 1.516 . S
C552 C551 1.516 . S
C552 C553 1.502 . S
C552 C554 1.561 . S
C552 C555 1.526 . S
C553 H537 0.959 . S
C553 H538 0.959 . S
C553 H539 0.961 . S
C553 C552 1.502 . S
C554 H540 0.960 . S
C554 H541 0.961 . S
C554 H542 0.959 . S
C554 C552 1.561 . S
C555 C552 1.526 . S
C555 C556 1.396 1_455 S
C555 C560 1.390 . S
C556 C550 1.465 . S
C556 C555 1.396 1_655 S
C556 C557 1.399 . S
C557 H543 0.929 . S
C557 C556 1.399 . S
C557 C558 1.385 . S
C558 H544 0.931 . S
C558 C557 1.385 . S
C558 C559 1.389 1_655 S
C559 C558 1.389 1_455 S
C559 C560 1.387 . S
C560 H545 0.930 . S
C560 C555 1.390 . S
C560 C559 1.387 . S
H561 C573 0.930 . S
H562 C575 0.930 . S
H563 C576 0.930 . S
H564 C580 0.959 . S
H565 C580 0.959 . S
H566 C580 0.961 . S
H567 C581 0.960 . S
H568 C581 0.961 . S
H569 C581 0.959 . S
H570 C584 0.929 . S
H571 C585 0.931 . S
H572 C587 0.930 . S
C573 H561 0.930 . S
C573 C574 1.399 . S
C573 C578 1.399 . S
C574 C573 1.399 . S
C574 C575 1.376 . S
C575 H562 0.930 . S
C575 C574 1.376 . S
C575 C576 1.388 . S
C576 H563 0.930 . S
C576 C575 1.388 . S
C576 C577 1.390 . S
C577 C576 1.390 . S
C577 C578 1.394 . S
C577 C583 1.465 . S
C578 C573 1.399 . S
C578 C577 1.394 . S
C578 C579 1.516 . S
C579 C578 1.516 . S
C579 C580 1.502 . S
C579 C581 1.561 . S
C579 C582 1.526 . S
C580 H564 0.959 . S
C580 H565 0.959 . S
C580 H566 0.961 . S
C580 C579 1.502 . S
C581 H567 0.960 . S
C581 H568 0.961 . S
C581 H569 0.959 . S
C581 C579 1.561 . S
C582 C579 1.526 . S
C582 C583 1.396 . S
C582 C587 1.390 . S
C583 C577 1.465 . S
C583 C582 1.396 . S
C583 C584 1.399 . S
C584 H570 0.929 . S
C584 C583 1.399 . S
C584 C585 1.385 . S
C585 H571 0.931 . S
C585 C584 1.385 . S
C585 C586 1.389 . S
C586 C585 1.389 . S
C586 C587 1.387 . S
C587 H572 0.930 . S
C587 C582 1.390 . S
C587 C586 1.387 . S
H588 C600 0.930 . S
H589 C602 0.930 . S
H590 C603 0.930 . S
H591 C607 0.959 . S
H592 C607 0.959 . S
H593 C607 0.961 . S
H594 C608 0.960 . S
H595 C608 0.961 . S
H596 C608 0.959 . S
H597 C611 0.929 1_565 S
H598 C612 0.931 . S
H599 C614 0.930 . S
C600 H588 0.930 . S
C600 C601 1.399 . S
C600 C605 1.399 . S
C601 C600 1.399 . S
C601 C602 1.376 . S
C602 H589 0.930 . S
C602 C601 1.376 . S
C602 C603 1.388 . S
C603 H590 0.930 . S
C603 C602 1.388 . S
C603 C604 1.390 . S
C604 C603 1.390 . S
C604 C605 1.394 . S
C604 C610 1.465 1_565 S
C605 C600 1.399 . S
C605 C604 1.394 . S
C605 C606 1.516 1_565 S
C606 C605 1.516 1_545 S
C606 C607 1.502 . S
C606 C608 1.561 . S
C606 C609 1.526 . S
C607 H591 0.959 . S
C607 H592 0.959 . S
C607 H593 0.961 . S
C607 C606 1.502 . S
C608 H594 0.960 . S
C608 H595 0.961 . S
C608 H596 0.959 . S
C608 C606 1.561 . S
C609 C606 1.526 . S
C609 C610 1.396 . S
C609 C614 1.390 . S
C610 C604 1.465 1_545 S
C610 C609 1.396 . S
C610 C611 1.399 . S
C611 H597 0.929 1_545 S
C611 C610 1.399 . S
C611 C612 1.385 . S
C612 H598 0.931 . S
C612 C611 1.385 . S
C612 C613 1.389 . S
C613 C612 1.389 . S
C613 C614 1.387 . S
C614 H599 0.930 . S
C614 C609 1.390 . S
C614 C613 1.387 . S
H615 C627 0.930 . S
H616 C629 0.930 . S
H617 C630 0.930 1_545 S
H618 C634 0.959 . S
H619 C634 0.959 . S
H620 C634 0.961 . S
H621 C635 0.960 . S
H622 C635 0.961 . S
H623 C635 0.959 . S
H624 C638 0.929 . S
H625 C639 0.931 . S
H626 C641 0.930 . S
C627 H615 0.930 . S
C627 C628 1.399 . S
C627 C632 1.399 . S
C628 C627 1.399 . S
C628 C629 1.376 . S
C629 H616 0.930 . S
C629 C628 1.376 . S
C629 C630 1.388 . S
C630 H617 0.930 1_565 S
C630 C629 1.388 . S
C630 C631 1.390 . S
C631 C630 1.390 . S
C631 C632 1.394 . S
C631 C637 1.465 1_565 S
C632 C627 1.399 . S
C632 C631 1.394 . S
C632 C633 1.516 . S
C633 C632 1.516 . S
C633 C634 1.502 . S
C633 C635 1.561 1_455 S
C633 C636 1.526 1_565 S
C634 H618 0.959 . S
C634 H619 0.959 . S
C634 H620 0.961 . S
C634 C633 1.502 . S
C635 H621 0.960 . S
C635 H622 0.961 . S
C635 H623 0.959 . S
C635 C633 1.561 1_655 S
C636 C633 1.526 1_545 S
C636 C637 1.396 . S
C636 C641 1.390 . S
C637 C631 1.465 1_545 S
C637 C636 1.396 . S
C637 C638 1.399 . S
C638 H624 0.929 . S
C638 C637 1.399 . S
C638 C639 1.385 . S
C639 H625 0.931 . S
C639 C638 1.385 . S
C639 C640 1.389 . S
C640 C639 1.389 . S
C640 C641 1.387 . S
C641 H626 0.930 . S
C641 C636 1.390 . S
C641 C640 1.387 . S
H642 C654 0.930 . S
H643 C656 0.930 . S
H644 C657 0.930 . S
H645 C661 0.959 . S
H646 C661 0.959 . S
H647 C661 0.961 . S
H648 C662 0.960 . S
H649 C662 0.961 . S
H650 C662 0.959 . S
H651 C665 0.929 1_565 S
H652 C666 0.931 . S
H653 C668 0.930 . S
C654 H642 0.930 . S
C654 C655 1.399 . S
C654 C659 1.399 . S
C655 C654 1.399 . S
C655 C656 1.376 . S
C656 H643 0.930 . S
C656 C655 1.376 . S
C656 C657 1.388 . S
C657 H644 0.930 . S
C657 C656 1.388 . S
C657 C658 1.390 . S
C658 C657 1.390 . S
C658 C659 1.394 . S
C658 C664 1.465 1_565 S
C659 C654 1.399 . S
C659 C658 1.394 . S
C659 C660 1.516 1_565 S
C660 C659 1.516 1_545 S
C660 C661 1.502 . S
C660 C662 1.561 . S
C660 C663 1.526 . S
C661 H645 0.959 . S
C661 H646 0.959 . S
C661 H647 0.961 . S
C661 C660 1.502 . S
C662 H648 0.960 . S
C662 H649 0.961 . S
C662 H650 0.959 . S
C662 C660 1.561 . S
C663 C660 1.526 . S
C663 C664 1.396 . S
C663 C668 1.390 . S
C664 C658 1.465 1_545 S
C664 C663 1.396 . S
C664 C665 1.399 . S
C665 H651 0.929 1_545 S
C665 C664 1.399 . S
C665 C666 1.385 . S
C666 H652 0.931 . S
C666 C665 1.385 . S
C666 C667 1.389 . S
C667 C666 1.389 . S
C667 C668 1.387 . S
C668 H653 0.930 . S
C668 C663 1.390 . S
C668 C667 1.387 . S
H669 C681 0.930 . S
H670 C683 0.930 . S
H671 C684 0.930 1_565 S
H672 C688 0.959 . S
H673 C688 0.959 . S
H674 C688 0.961 . S
H675 C689 0.960 . S
H676 C689 0.961 . S
H677 C689 0.959 . S
H678 C692 0.929 . S
H679 C693 0.931 . S
H680 C695 0.930 . S
C681 H669 0.930 . S
C681 C682 1.399 . S
C681 C686 1.399 . S
C682 C681 1.399 . S
C682 C683 1.376 . S
C683 H670 0.930 . S
C683 C682 1.376 . S
C683 C684 1.388 . S
C684 H671 0.930 1_545 S
C684 C683 1.388 . S
C684 C685 1.390 . S
C685 C684 1.390 . S
C685 C686 1.394 . S
C685 C691 1.465 1_545 S
C686 C681 1.399 . S
C686 C685 1.394 . S
C686 C687 1.516 . S
C687 C686 1.516 . S
C687 C688 1.502 . S
C687 C689 1.561 1_455 S
C687 C690 1.526 1_545 S
C688 H672 0.959 . S
C688 H673 0.959 . S
C688 H674 0.961 . S
C688 C687 1.502 . S
C689 H675 0.960 . S
C689 H676 0.961 . S
C689 H677 0.959 . S
C689 C687 1.561 1_655 S
C690 C687 1.526 1_565 S
C690 C691 1.396 . S
C690 C695 1.390 . S
C691 C685 1.465 1_565 S
C691 C690 1.396 . S
C691 C692 1.399 . S
C692 H678 0.929 . S
C692 C691 1.399 . S
C692 C693 1.385 . S
C693 H679 0.931 . S
C693 C692 1.385 . S
C693 C694 1.389 . S
C694 C693 1.389 . S
C694 C695 1.387 . S
C695 H680 0.930 . S
C695 C690 1.390 . S
C695 C694 1.387 . S
H696 C708 0.930 . S
H697 C710 0.930 . S
H698 C711 0.930 . S
H699 C715 0.959 . S
H700 C715 0.959 . S
H701 C715 0.961 . S
H702 C716 0.960 . S
H703 C716 0.961 . S
H704 C716 0.959 1_655 S
H705 C719 0.929 . S
H706 C720 0.931 . S
H707 C722 0.930 . S
C708 H696 0.930 . S
C708 C709 1.399 . S
C708 C713 1.399 . S
C709 C708 1.399 . S
C709 C710 1.376 . S
C710 H697 0.930 . S
C710 C709 1.376 . S
C710 C711 1.388 . S
C711 H698 0.930 . S
C711 C710 1.388 . S
C711 C712 1.390 . S
C712 C711 1.390 . S
C712 C713 1.394 . S
C712 C718 1.465 . S
C713 C708 1.399 . S
C713 C712 1.394 . S
C713 C714 1.516 1_556 S
C714 C713 1.516 1_554 S
C714 C715 1.502 . S
C714 C716 1.561 . S
C714 C717 1.526 . S
C715 H699 0.959 . S
C715 H700 0.959 . S
C715 H701 0.961 . S
C715 C714 1.502 . S
C716 H702 0.960 . S
C716 H703 0.961 . S
C716 H704 0.959 1_455 S
C716 C714 1.561 . S
C717 C714 1.526 . S
C717 C718 1.396 1_554 S
C717 C722 1.390 . S
C718 C712 1.465 . S
C718 C717 1.396 1_556 S
C718 C719 1.399 . S
C719 H705 0.929 . S
C719 C718 1.399 . S
C719 C720 1.385 1_556 S
C720 H706 0.931 . S
C720 C719 1.385 1_554 S
C720 C721 1.389 . S
C721 C720 1.389 . S
C721 C722 1.387 . S
C722 H707 0.930 . S
C722 C717 1.390 . S
C722 C721 1.387 . S
H723 C735 0.930 . S
H724 C737 0.930 . S
H725 C738 0.930 . S
H726 C742 0.959 . S
H727 C742 0.959 . S
H728 C742 0.961 . S
H729 C743 0.960 . S
H730 C743 0.961 . S
H731 C743 0.959 . S
H732 C746 0.929 . S
H733 C747 0.931 . S
H734 C749 0.930 . S
C735 H723 0.930 . S
C735 C736 1.399 . S
C735 C740 1.399 . S
C736 C735 1.399 . S
C736 C737 1.376 . S
C737 H724 0.930 . S
C737 C736 1.376 . S
C737 C738 1.388 . S
C738 H725 0.930 . S
C738 C737 1.388 . S
C738 C739 1.390 . S
C739 C738 1.390 . S
C739 C740 1.394 . S
C739 C745 1.465 . S
C740 C735 1.399 . S
C740 C739 1.394 . S
C740 C741 1.516 . S
C741 C740 1.516 . S
C741 C742 1.502 . S
C741 C743 1.561 . S
C741 C744 1.526 . S
C742 H726 0.959 . S
C742 H727 0.959 . S
C742 H728 0.961 . S
C742 C741 1.502 . S
C743 H729 0.960 . S
C743 H730 0.961 . S
C743 H731 0.959 . S
C743 C741 1.561 . S
C744 C741 1.526 . S
C744 C745 1.396 . S
C744 C749 1.390 . S
C745 C739 1.465 . S
C745 C744 1.396 . S
C745 C746 1.399 . S
C746 H732 0.929 . S
C746 C745 1.399 . S
C746 C747 1.385 . S
C747 H733 0.931 . S
C747 C746 1.385 . S
C747 C748 1.389 . S
C748 C747 1.389 . S
C748 C749 1.387 . S
C749 H734 0.930 . S
C749 C744 1.390 . S
C749 C748 1.387 . S
H750 C762 0.930 . S
H751 C764 0.930 . S
H752 C765 0.930 1_565 S
H753 C769 0.959 . S
H754 C769 0.959 . S
H755 C769 0.961 . S
H756 C770 0.960 . S
H757 C770 0.961 . S
H758 C770 0.959 . S
H759 C773 0.929 . S
H760 C774 0.931 . S
H761 C776 0.930 . S
C762 H750 0.930 . S
C762 C763 1.399 . S
C762 C767 1.399 . S
C763 C762 1.399 . S
C763 C764 1.376 . S
C764 H751 0.930 . S
C764 C763 1.376 . S
C764 C765 1.388 . S
C765 H752 0.930 1_545 S
C765 C764 1.388 . S
C765 C766 1.390 . S
C766 C765 1.390 . S
C766 C767 1.394 . S
C766 C772 1.465 1_545 S
C767 C762 1.399 . S
C767 C766 1.394 . S
C767 C768 1.516 1_556 S
C768 C767 1.516 1_554 S
C768 C769 1.502 . S
C768 C770 1.561 . S
C768 C771 1.526 1_545 S
C769 H753 0.959 . S
C769 H754 0.959 . S
C769 H755 0.961 . S
C769 C768 1.502 . S
C770 H756 0.960 . S
C770 H757 0.961 . S
C770 H758 0.959 . S
C770 C768 1.561 . S
C771 C768 1.526 1_565 S
C771 C772 1.396 1_554 S
C771 C776 1.390 . S
C772 C766 1.465 1_565 S
C772 C771 1.396 1_556 S
C772 C773 1.399 . S
C773 H759 0.929 . S
C773 C772 1.399 . S
C773 C774 1.385 1_556 S
C774 H760 0.931 . S
C774 C773 1.385 1_554 S
C774 C775 1.389 . S
C775 C774 1.389 . S
C775 C776 1.387 . S
C776 H761 0.930 . S
C776 C771 1.390 . S
C776 C775 1.387 . S
H777 C789 0.930 . S
H778 C791 0.930 . S
H779 C792 0.930 1_545 S
H780 C796 0.959 . S
H781 C796 0.959 . S
H782 C796 0.961 . S
H783 C797 0.960 . S
H784 C797 0.961 . S
H785 C797 0.959 . S
H786 C800 0.929 . S
H787 C801 0.931 . S
H788 C803 0.930 . S
C789 H777 0.930 . S
C789 C790 1.399 . S
C789 C794 1.399 . S
C790 C789 1.399 . S
C790 C791 1.376 . S
C791 H778 0.930 . S
C791 C790 1.376 . S
C791 C792 1.388 . S
C792 H779 0.930 1_565 S
C792 C791 1.388 . S
C792 C793 1.390 . S
C793 C792 1.390 . S
C793 C794 1.394 . S
C793 C799 1.465 1_565 S
C794 C789 1.399 . S
C794 C793 1.394 . S
C794 C795 1.516 . S
C795 C794 1.516 . S
C795 C796 1.502 . S
C795 C797 1.561 1_655 S
C795 C798 1.526 1_565 S
C796 H780 0.959 . S
C796 H781 0.959 . S
C796 H782 0.961 . S
C796 C795 1.502 . S
C797 H783 0.960 . S
C797 H784 0.961 . S
C797 H785 0.959 . S
C797 C795 1.561 1_455 S
C798 C795 1.526 1_545 S
C798 C799 1.396 . S
C798 C803 1.390 . S
C799 C793 1.465 1_545 S
C799 C798 1.396 . S
C799 C800 1.399 . S
C800 H786 0.929 . S
C800 C799 1.399 . S
C800 C801 1.385 . S
C801 H787 0.931 . S
C801 C800 1.385 . S
C801 C802 1.389 . S
C802 C801 1.389 . S
C802 C803 1.387 . S
C803 H788 0.930 . S
C803 C798 1.390 . S
C803 C802 1.387 . S
C277 C219 1.801 . S
C289 C18 1.761 . S
C304 C51 1.778 . S
C316 C252 1.787 . S
C331 C153 1.764 . S
C343 C84 1.798 . S
C358 C117 1.807 . S
C370 C186 1.747 . S
C385 C150 1.762 . S
C397 C87 1.800 . S
C412 C183 1.807 . S
C424 C120 1.747 . S
C439 C21 1.756 . S
C451 C216 1.804 . S
C466 C54 1.776 . S
C478 C249 1.772 . S
C493 C7 1.975 . S
C505 N233 1.908 1_455 S
C520 C40 1.975 . S
C532 N200 1.908 . S
C547 N167 1.925 1_455 S
C559 C73 1.967 . S
C574 C106 1.968 . S
C586 N134 1.948 . S
C601 C139 1.974 . S
C613 N101 1.908 . S
C628 N68 1.923 . S
C640 C172 1.983 . S
C655 N35 1.929 . S
C667 C205 1.966 . S
C682 N2 1.913 . S
C694 C238 1.981 . S
C709 N79 0.585 . S
C721 N13 0.721 . S
C736 N46 0.584 . S
C748 N112 0.696 . S
C763 N211 0.587 . S
C775 N145 0.724 . S
C790 N244 0.586 . S
C802 N178 0.722 . S
