# Generated by pormake.
# Topology smn, (6)-cn, num edge types: 1
# Building blocks:
#     Node 0, Type 0, BuildingBlock: VOLQOD_clean_sbu_1, # of connection points: 6
#     Node 1, Type 0, BuildingBlock: VOLQOD_clean_sbu_1, # of connection points: 6
#     Node 2, Type 0, BuildingBlock: VOLQOD_clean_sbu_1, # of connection points: 6
#     Node 3, Type 0, BuildingBlock: VOLQOD_clean_sbu_1, # of connection points: 6
#     Node 4, Type 0, BuildingBlock: VOLQOD_clean_sbu_1, # of connection points: 6
#     Node 5, Type 0, BuildingBlock: VOLQOD_clean_sbu_1, # of connection points: 6
#     Node 6, Type 0, BuildingBlock: VOLQOD_clean_sbu_1, # of connection points: 6
#     Node 7, Type 0, BuildingBlock: VOLQOD_clean_sbu_1, # of connection points: 6
#     Node 8, Type 0, BuildingBlock: VOLQOD_clean_sbu_1, # of connection points: 6
#     Node 9, Type 0, BuildingBlock: VOLQOD_clean_sbu_1, # of connection points: 6
#     Node 10, Type 0, BuildingBlock: VOLQOD_clean_sbu_1, # of connection points: 6
#     Node 11, Type 0, BuildingBlock: VOLQOD_clean_sbu_1, # of connection points: 6
#     Node 12, Type 0, BuildingBlock: VOLQOD_clean_sbu_1, # of connection points: 6
#     Node 13, Type 0, BuildingBlock: VOLQOD_clean_sbu_1, # of connection points: 6
#     Node 14, Type 0, BuildingBlock: VOLQOD_clean_sbu_1, # of connection points: 6
#     Node 15, Type 0, BuildingBlock: VOLQOD_clean_sbu_1, # of connection points: 6
#     Node 16, Type 0, BuildingBlock: VOLQOD_clean_sbu_1, # of connection points: 6
#     Node 17, Type 0, BuildingBlock: VOLQOD_clean_sbu_1, # of connection points: 6
#     Edge 18, Type (0, 0), None
#     Edge 19, Type (0, 0), None
#     Edge 20, Type (0, 0), None
#     Edge 21, Type (0, 0), None
#     Edge 22, Type (0, 0), None
#     Edge 23, Type (0, 0), None
#     Edge 24, Type (0, 0), None
#     Edge 25, Type (0, 0), None
#     Edge 26, Type (0, 0), None
#     Edge 27, Type (0, 0), None
#     Edge 28, Type (0, 0), None
#     Edge 29, Type (0, 0), None
#     Edge 30, Type (0, 0), None
#     Edge 31, Type (0, 0), None
#     Edge 32, Type (0, 0), None
#     Edge 33, Type (0, 0), None
#     Edge 34, Type (0, 0), None
#     Edge 35, Type (0, 0), None
#     Edge 36, Type (0, 0), None
#     Edge 37, Type (0, 0), None
#     Edge 38, Type (0, 0), None
#     Edge 39, Type (0, 0), None
#     Edge 40, Type (0, 0), None
#     Edge 41, Type (0, 0), None
#     Edge 42, Type (0, 0), None
#     Edge 43, Type (0, 0), None
#     Edge 44, Type (0, 0), None
#     Edge 45, Type (0, 0), None
#     Edge 46, Type (0, 0), None
#     Edge 47, Type (0, 0), None
#     Edge 48, Type (0, 0), None
#     Edge 49, Type (0, 0), None
#     Edge 50, Type (0, 0), None
#     Edge 51, Type (0, 0), None
#     Edge 52, Type (0, 0), None
#     Edge 53, Type (0, 0), None
#     Edge 54, Type (0, 0), None
#     Edge 55, Type (0, 0), None
#     Edge 56, Type (0, 0), None
#     Edge 57, Type (0, 0), None
#     Edge 58, Type (0, 0), None
#     Edge 59, Type (0, 0), None
#     Edge 60, Type (0, 0), None
#     Edge 61, Type (0, 0), None
#     Edge 62, Type (0, 0), None
#     Edge 63, Type (0, 0), None
#     Edge 64, Type (0, 0), None
#     Edge 65, Type (0, 0), None
#     Edge 66, Type (0, 0), None
#     Edge 67, Type (0, 0), None
#     Edge 68, Type (0, 0), None
#     Edge 69, Type (0, 0), None
#     Edge 70, Type (0, 0), None
#     Edge 71, Type (0, 0), None
# Relax obj value: 0.237
# Max RMSD: 0.243
# Mean RMSD: 0.242
data_MOF--net-smn--node1-VOLQOD_clean_sbu_1--edge1-none
_symmetry_space_group_name_H-M    P1
_symmetry_Int_Tables_number       1
_symmetry_cell_setting            triclinic
loop_
_symmetry_equiv_pos_as_xyz
'x, y, z'
_cell_length_a     32.662769
_cell_length_b     32.662578
_cell_length_c     10.133523
_cell_angle_alpha  90.005833
_cell_angle_beta   89.989697
_cell_angle_gamma 119.99849
loop_
_atom_site_label
_atom_site_type_symbol
_atom_site_fract_x
_atom_site_fract_y
_atom_site_fract_z
_atom_type_partial_charge
O0 O 0.01758 0.28699 0.58072 0.0
Zn1 Zn 0.96552 0.22723 0.66544 0.0
O2 O -0.00611 0.20343 0.77624 0.0
Zn3 Zn -0.01445 0.14268 0.74002 0.0
Zn4 Zn 0.05457 0.24996 0.81552 0.0
Zn5 Zn 0.96703 0.19147 0.93947 0.0
O6 O 0.93153 0.09114 0.86994 0.0
O7 O 0.90489 0.13991 0.90714 0.0
O8 O 0.92973 0.17471 0.52605 0.0
O9 O 0.95561 0.12408 0.56506 0.0
O10 O 0.05366 0.15645 0.6998 0.0
O11 O 0.09364 0.23572 0.70059 0.0
O12 O 0.07045 0.23991 0.99984 0.0
O13 O 0.92997 0.24945 0.7902 0.0
O14 O 0.00624 0.17395 0.06206 0.0
O15 O 0.95503 0.2428 0.9909 0.0
C16 C 0.05239 0.32041 0.64202 0.0
C17 C 0.89792 0.09843 0.90753 0.0
C18 C 0.09003 0.1965 0.66857 0.0
C19 C 0.93315 0.13833 0.49442 0.0
C20 C 0.05045 0.20272 0.07192 0.0
C21 C 0.93399 0.25761 0.91517 0.0
O22 O 0.06566 0.31388 0.75509 0.0
O23 O 0.71504 0.75503 0.58074 0.0
Zn24 Zn 0.77481 0.76274 0.66543 0.0
O25 O 0.79861 0.81492 0.77624 0.0
Zn26 Zn 0.85935 0.86732 0.74005 0.0
Zn27 Zn 0.75207 0.82907 0.81555 0.0
Zn28 Zn 0.81058 0.80001 0.93943 0.0
O29 O 0.9109 0.86484 0.86993 0.0
O30 O 0.86214 0.78944 0.90707 0.0
O31 O 0.82733 0.77948 0.52602 0.0
O32 O 0.87795 0.85598 0.56507 0.0
O33 O 0.84558 0.92166 0.69985 0.0
O34 O 0.7663 0.88238 0.70065 0.0
O35 O 0.76213 0.85498 0.9999 0.0
O36 O 0.7526 0.70497 0.79019 0.0
O37 O 0.82809 0.85674 0.06204 0.0
O38 O 0.75926 0.7367 0.9909 0.0
C39 C 0.68162 0.75643 0.64204 0.0
C40 C 0.90362 0.82394 0.90748 0.0
C41 C 0.80553 0.91798 0.66862 0.0
C42 C 0.86371 0.81928 0.4944 0.0
C43 C 0.79932 0.87218 0.07195 0.0
C44 C 0.74445 0.70084 0.91517 0.0
O45 O 0.68815 0.77623 0.75511 0.0
O46 O 0.24705 0.98449 0.58069 0.0
Zn47 Zn 0.23933 0.03655 0.66538 0.0
O48 O 0.18714 0.00817 0.77616 0.0
Zn49 Zn 0.13475 0.01653 0.73998 0.0
Zn50 Zn 0.17298 0.94749 0.81545 0.0
Zn51 Zn 0.20203 0.03504 0.93938 0.0
O52 O 0.13723 0.07056 0.86988 0.0
O53 O 0.21263 0.09718 0.90704 0.0
O54 O 0.2226 0.07234 0.52596 0.0
O55 O 0.1461 0.04647 0.56501 0.0
O56 O 0.0804 0.94843 0.69978 0.0
O57 O 0.11967 0.90842 0.70055 0.0
O58 O 0.14706 0.93163 0.99979 0.0
O59 O 0.29708 0.0721 0.79018 0.0
O60 O 0.1453 -0.00416 0.06198 0.0
O61 O 0.26534 0.04701 0.99086 0.0
C62 C 0.24563 0.94966 0.64199 0.0
C63 C 0.17813 0.10417 0.90744 0.0
C64 C 0.08408 0.91205 0.66854 0.0
C65 C 0.1828 0.06892 0.49434 0.0
C66 C 0.12986 0.95163 0.07186 0.0
C67 C 0.3012 0.06807 0.91515 0.0
O68 O 0.22581 0.93639 0.75504 0.0
O69 O 0.05648 0.76826 0.27074 0.0
Zn70 Zn 0.02092 0.79047 0.39548 0.0
O71 O -0.00746 0.81427 0.28468 0.0
Zn72 Zn 0.00088 0.87501 0.32089 0.0
Zn73 Zn 0.01941 0.82621 0.12145 0.0
Zn74 Zn 0.93186 0.76772 0.24541 0.0
O75 O 0.93276 0.86123 0.3611 0.0
O76 O 0.89278 0.78195 0.36032 0.0
O77 O 0.0567 0.84299 0.53486 0.0
O78 O 0.03081 0.89361 0.49586 0.0
O79 O 0.0549 0.92656 0.19098 0.0
O80 O 0.08154 0.87778 0.15375 0.0
O81 O 0.98019 0.84372 0.99885 0.0
O82 O 0.96887 0.73071 0.48022 0.0
O83 O 0.91598 0.77777 0.06108 0.0
O84 O 0.92079 0.7038 0.30586 0.0
C85 C 0.05247 0.76009 0.14577 0.0
C86 C 0.89639 0.82117 0.39228 0.0
C87 C 0.0885 0.91925 0.15337 0.0
C88 C 0.05326 0.87936 0.56651 0.0
C89 C 0.93598 0.81496 0.98902 0.0
C90 C 0.93406 0.69728 0.41893 0.0
O91 O 0.03141 0.77489 0.07004 0.0
O92 O 0.23382 0.31272 0.27076 0.0
Zn93 Zn 0.21162 0.25495 0.39549 0.0
O94 O 0.18782 0.20277 0.28468 0.0
Zn95 Zn 0.12708 0.15036 0.32087 0.0
Zn96 Zn 0.17587 0.21768 0.12148 0.0
Zn97 Zn 0.23437 0.18863 0.24538 0.0
O98 O 0.14086 0.09602 0.36105 0.0
O99 O 0.22014 0.13532 0.36027 0.0
O100 O 0.15909 0.2382 0.53489 0.0
O101 O 0.10848 0.16169 0.49585 0.0
O102 O 0.07553 0.15284 0.19099 0.0
O103 O 0.1243 0.22825 0.15382 0.0
O104 O 0.15836 0.16097 0.99886 0.0
O105 O 0.27138 0.26267 0.4802 0.0
O106 O 0.22431 0.16271 0.06103 0.0
O107 O 0.29829 0.24147 0.30584 0.0
C108 C 0.24198 0.31686 0.14578 0.0
C109 C 0.18092 0.09971 0.39223 0.0
C110 C 0.08283 0.19374 0.15342 0.0
C111 C 0.12273 0.19839 0.56652 0.0
C112 C 0.18712 0.14552 0.98899 0.0
C113 C 0.30481 0.26127 0.41891 0.0
O114 O 0.22719 0.281 0.07005 0.0
O115 O 0.68935 0.94559 0.27076 0.0
Zn116 Zn 0.7471 0.98113 0.39555 0.0
O117 O 0.7993 0.00952 0.28476 0.0
Zn118 Zn 0.85169 0.00117 0.32094 0.0
Zn119 Zn 0.78439 0.98266 0.12154 0.0
Zn120 Zn 0.81345 0.0702 0.24547 0.0
O121 O 0.90604 0.06928 0.36112 0.0
O122 O 0.86676 0.10928 0.36036 0.0
O123 O 0.76384 0.94535 0.53495 0.0
O124 O 0.84035 0.97124 0.49591 0.0
O125 O 0.84921 0.94713 0.19104 0.0
O126 O 0.7738 0.92051 0.15384 0.0
O127 O 0.84112 0.02185 0.99893 0.0
O128 O 0.73938 0.03319 0.48025 0.0
O129 O 0.83937 0.08607 0.06113 0.0
O130 O 0.76061 0.08129 0.3059 0.0
C131 C 0.68523 0.94962 0.14579 0.0
C132 C 0.90236 0.10566 0.39231 0.0
C133 C 0.8083 0.91354 0.15345 0.0
C134 C 0.80365 0.94879 0.56658 0.0
C135 C 0.85657 0.06607 0.98908 0.0
C136 C 0.74079 0.06802 0.41896 0.0
O137 O 0.72109 0.97068 0.07008 0.0
O138 O 0.68425 0.62034 0.91406 0.0
Zn139 Zn 0.63219 0.56057 0.9988 0.0
O140 O 0.66058 0.53677 0.10959 0.0
Zn141 Zn 0.65223 0.47603 0.07339 0.0
Zn142 Zn 0.72126 0.58332 0.14887 0.0
Zn143 Zn 0.63372 0.52483 0.27283 0.0
O144 O 0.59821 0.42449 0.20331 0.0
O145 O 0.57158 0.47326 0.24054 0.0
O146 O 0.5964 0.50804 0.85942 0.0
O147 O 0.62229 0.45742 0.89843 0.0
O148 O 0.72035 0.4898 0.03316 0.0
O149 O 0.76033 0.56908 0.03394 0.0
O150 O 0.73714 0.57327 0.33319 0.0
O151 O 0.59664 0.58279 0.12356 0.0
O152 O 0.67293 0.50732 0.39542 0.0
O153 O 0.62172 0.57615 0.32425 0.0
C154 C 0.71906 0.65376 0.97535 0.0
C155 C 0.5646 0.43179 0.24091 0.0
C156 C 0.75672 0.52986 1.00193 0.0
C157 C 0.59982 0.47166 0.8278 0.0
C158 C 0.71714 0.53608 0.40527 0.0
C159 C 0.60066 0.59095 0.24852 0.0
O160 O 0.73233 0.64723 0.08842 0.0
O161 O 0.3817 0.08835 0.91408 0.0
Zn162 Zn 0.44147 0.09607 0.99879 0.0
O163 O 0.46526 0.14825 0.10959 0.0
Zn164 Zn 0.526 0.20066 0.07342 0.0
Zn165 Zn 0.41872 0.16239 0.1489 0.0
Zn166 Zn 0.47723 0.13334 0.27278 0.0
O167 O 0.57755 0.19818 0.20331 0.0
O168 O 0.5288 0.12277 0.24038 0.0
O169 O 0.494 0.11282 0.8594 0.0
O170 O 0.54461 0.18932 0.89845 0.0
O171 O 0.51223 0.255 0.03322 0.0
O172 O 0.43295 0.2157 0.03401 0.0
O173 O 0.42877 0.18829 0.33327 0.0
O174 O 0.41927 0.0383 0.12355 0.0
O175 O 0.49474 0.19007 0.39538 0.0
O176 O 0.42592 0.07003 0.32426 0.0
C177 C 0.34828 0.08975 0.97536 0.0
C178 C 0.57027 0.15728 0.24083 0.0
C179 C 0.47217 0.25131 1.00199 0.0
C180 C 0.53037 0.15262 0.82778 0.0
C181 C 0.46596 0.2055 0.4053 0.0
C182 C 0.41112 0.03417 0.24853 0.0
O183 O 0.3548 0.10955 0.08843 0.0
O184 O 0.91372 0.31783 0.91406 0.0
Zn185 Zn 0.906 0.36989 0.99876 0.0
O186 O 0.8538 0.34151 0.10954 0.0
Zn187 Zn 0.80141 0.34987 0.07335 0.0
Zn188 Zn 0.83964 0.28082 0.14882 0.0
Zn189 Zn 0.8687 0.36837 0.27277 0.0
O190 O 0.8039 0.4039 0.20326 0.0
O191 O 0.8793 0.43052 0.24044 0.0
O192 O 0.88927 0.40568 0.85935 0.0
O193 O 0.81277 0.37981 0.89839 0.0
O194 O 0.74706 0.28177 0.03315 0.0
O195 O 0.78634 0.24176 0.03391 0.0
O196 O 0.81372 0.26496 0.33316 0.0
O197 O 0.96375 0.40544 0.12356 0.0
O198 O 0.81196 0.32917 0.39536 0.0
O199 O 0.93201 0.38035 0.32424 0.0
C200 C 0.9123 0.283 0.97535 0.0
C201 C 0.84481 0.4375 0.24083 0.0
C202 C 0.75074 0.24539 1.0019 0.0
C203 C 0.84947 0.40226 0.82773 0.0
C204 C 0.79652 0.28496 0.40523 0.0
C205 C 0.96787 0.40141 0.24853 0.0
O206 O 0.89248 0.26973 0.0884 0.0
O207 O 0.72312 0.10158 0.60409 0.0
Zn208 Zn 0.68757 0.1238 0.72885 0.0
O209 O 0.65919 0.1476 0.61805 0.0
Zn210 Zn 0.66754 0.20835 0.65426 0.0
Zn211 Zn 0.68605 0.15954 0.45481 0.0
Zn212 Zn 0.59851 0.10106 0.57878 0.0
O213 O 0.59942 0.19458 0.69447 0.0
O214 O 0.55944 0.11529 0.6937 0.0
O215 O 0.72336 0.17632 0.86823 0.0
O216 O 0.69747 0.22694 0.82923 0.0
O217 O 0.72157 0.25989 0.52436 0.0
O218 O 0.74819 0.21111 0.48707 0.0
O219 O 0.64685 0.17706 0.33221 0.0
O220 O 0.63552 0.06404 0.81358 0.0
O221 O 0.58263 0.11112 0.39447 0.0
O222 O 0.58744 0.03714 0.63922 0.0
C223 C 0.7191 0.09341 0.47913 0.0
C224 C 0.56305 0.15451 0.72566 0.0
C225 C 0.75516 0.25258 0.48672 0.0
C226 C 0.71992 0.21269 0.89988 0.0
C227 C 0.60263 0.1483 0.32239 0.0
C228 C 0.60071 0.03061 0.75228 0.0
O229 O 0.69804 0.10821 0.4034 0.0
O230 O 0.90052 0.64606 0.60409 0.0
Zn231 Zn 0.87831 0.5883 0.72885 0.0
O232 O 0.85451 0.53612 0.61805 0.0
Zn233 Zn 0.79377 0.48371 0.65423 0.0
Zn234 Zn 0.84255 0.55103 0.45485 0.0
Zn235 Zn 0.90105 0.52197 0.57875 0.0
O236 O 0.80753 0.42937 0.69443 0.0
O237 O 0.88682 0.46866 0.69365 0.0
O238 O 0.82578 0.57156 0.86825 0.0
O239 O 0.77517 0.49505 0.82921 0.0
O240 O 0.74222 0.4862 0.52436 0.0
O241 O 0.79099 0.56161 0.48716 0.0
O242 O 0.82504 0.49431 0.33224 0.0
O243 O 0.93808 0.59602 0.81356 0.0
O244 O 0.89099 0.49605 0.39441 0.0
O245 O 0.96497 0.57481 0.6392 0.0
C246 C 0.90868 0.6502 0.47911 0.0
C247 C 0.84759 0.43305 0.72561 0.0
C248 C 0.74952 0.5271 0.48677 0.0
C249 C 0.78942 0.53175 0.89988 0.0
C250 C 0.8538 0.47886 0.32237 0.0
C251 C 0.9715 0.59461 0.75227 0.0
O252 O 0.89388 0.61434 0.40339 0.0
O253 O 0.35601 0.27892 0.60408 0.0
Zn254 Zn 0.41376 0.31446 0.72888 0.0
O255 O 0.46596 0.34285 0.6181 0.0
Zn256 Zn 0.51835 0.33449 0.6543 0.0
Zn257 Zn 0.45106 0.31601 0.45485 0.0
Zn258 Zn 0.48012 0.40354 0.57885 0.0
O259 O 0.5727 0.4026 0.69451 0.0
O260 O 0.53342 0.4426 0.69376 0.0
O261 O 0.43048 0.27867 0.86829 0.0
O262 O 0.50699 0.30456 0.82927 0.0
O263 O 0.51586 0.28045 0.52442 0.0
O264 O 0.44046 0.25386 0.48707 0.0
O265 O 0.50779 0.35521 0.33226 0.0
O266 O 0.40604 0.36652 0.81359 0.0
O267 O 0.50606 0.41942 0.39453 0.0
O268 O 0.42728 0.41463 0.63926 0.0
C269 C 0.35188 0.28296 0.47911 0.0
C270 C 0.56903 0.43898 0.7257 0.0
C271 C 0.47495 0.24687 0.48676 0.0
C272 C 0.47029 0.28212 0.89994 0.0
C273 C 0.52325 0.39942 0.32245 0.0
C274 C 0.40746 0.40135 0.7523 0.0
O275 O 0.38775 0.30403 0.4034 0.0
O276 O 0.35093 0.95366 0.2474 0.0
Zn277 Zn 0.29888 0.89389 0.33213 0.0
O278 O 0.32726 0.8701 0.44294 0.0
Zn279 Zn 0.31892 0.80936 0.40676 0.0
Zn280 Zn 0.38793 0.91665 0.48227 0.0
Zn281 Zn 0.30036 0.85813 0.60613 0.0
O282 O 0.26491 0.75782 0.53669 0.0
O283 O 0.23824 0.80656 0.57368 0.0
O284 O 0.2631 0.84136 0.19276 0.0
O285 O 0.28898 0.79074 0.2318 0.0
O286 O 0.38704 0.82314 0.36658 0.0
O287 O 0.42702 0.90242 0.36738 0.0
O288 O 0.40377 0.90659 0.66663 0.0
O289 O 0.26332 0.91611 0.45685 0.0
O290 O 0.33957 0.84062 0.72875 0.0
O291 O 0.28836 0.90945 0.65757 0.0
C292 C 0.38574 0.98709 0.30871 0.0
C293 C 0.23128 0.76509 0.57418 0.0
C294 C 0.4234 0.8632 0.33536 0.0
C295 C 0.26652 0.80498 0.16115 0.0
C296 C 0.38378 0.8694 0.73867 0.0
C297 C 0.26732 0.92426 0.58183 0.0
O298 O 0.399 0.98056 0.4218 0.0
O299 O 0.04837 0.42169 0.24743 0.0
Zn300 Zn 0.10814 0.4294 0.33213 0.0
O301 O 0.13193 0.48158 0.44294 0.0
Zn302 Zn 0.19267 0.53399 0.40676 0.0
Zn303 Zn 0.08539 0.49572 0.48227 0.0
Zn304 Zn 0.14391 0.46667 0.60611 0.0
O305 O 0.24422 0.53151 0.53666 0.0
O306 O 0.19548 0.45609 0.57366 0.0
O307 O 0.16066 0.44615 0.19273 0.0
O308 O 0.21128 0.52265 0.23179 0.0
O309 O 0.1789 0.58833 0.3666 0.0
O310 O 0.09963 0.54904 0.36739 0.0
O311 O 0.09545 0.52162 0.66665 0.0
O312 O 0.08593 0.37163 0.45686 0.0
O313 O 0.16142 0.52339 0.72873 0.0
O314 O 0.0926 0.40335 0.65758 0.0
C315 C 0.01495 0.42309 0.30873 0.0
C316 C 0.23695 0.49061 0.57415 0.0
C317 C 0.13885 0.58464 0.33537 0.0
C318 C 0.19704 0.48596 0.16111 0.0
C319 C 0.13265 0.53882 0.73867 0.0
C320 C 0.07778 0.3675 0.58184 0.0
O321 O 0.02147 0.44288 0.42181 0.0
O322 O 0.58038 0.65117 0.2474 0.0
Zn323 Zn 0.57266 0.70323 0.3321 0.0
O324 O 0.52047 0.67484 0.44289 0.0
Zn325 Zn 0.46807 0.6832 0.4067 0.0
Zn326 Zn 0.50631 0.61416 0.48216 0.0
Zn327 Zn 0.53537 0.70171 0.60611 0.0
O328 O 0.47056 0.73723 0.53661 0.0
O329 O 0.54596 0.76385 0.57378 0.0
O330 O 0.55593 0.73901 0.19269 0.0
O331 O 0.47943 0.71314 0.23174 0.0
O332 O 0.41372 0.61509 0.3665 0.0
O333 O 0.453 0.57509 0.36725 0.0
O334 O 0.48039 0.5983 0.66651 0.0
O335 O 0.63041 0.73877 0.45688 0.0
O336 O 0.47863 0.6625 0.72871 0.0
O337 O 0.59868 0.71369 0.65757 0.0
C338 C 0.57897 0.61635 0.30869 0.0
C339 C 0.51146 0.77083 0.57418 0.0
C340 C 0.4174 0.57872 0.33525 0.0
C341 C 0.51613 0.73559 0.16108 0.0
C342 C 0.46319 0.61829 0.73858 0.0
C343 C 0.63454 0.73474 0.58185 0.0
O344 O 0.55915 0.60307 0.42174 0.0
O345 O 0.38978 0.43491 0.93744 0.0
Zn346 Zn 0.35424 0.45713 0.0622 0.0
O347 O 0.32586 0.48093 0.9514 0.0
Zn348 Zn 0.3342 0.54168 0.98761 0.0
Zn349 Zn 0.35272 0.49288 0.78816 0.0
Zn350 Zn 0.26518 0.43439 0.91211 0.0
O351 O 0.26609 0.52791 1.02781 0.0
O352 O 0.22611 0.44862 1.02703 0.0
O353 O 0.39002 0.50965 0.20158 0.0
O354 O 0.36414 0.56027 0.16258 0.0
O355 O 0.38824 0.59322 0.85771 0.0
O356 O 0.41486 0.54444 0.82042 0.0
O357 O 0.31352 0.51039 0.66556 0.0
O358 O 0.30218 0.39736 0.14692 0.0
O359 O 0.2493 0.44445 0.7278 0.0
O360 O 0.2541 0.37047 0.97254 0.0
C361 C 0.38576 0.42674 0.81248 0.0
C362 C 0.22971 0.48785 0.05899 0.0
C363 C 0.42183 0.58592 0.82008 0.0
C364 C 0.38659 0.54602 0.23323 0.0
C365 C 0.2693 0.48163 0.65573 0.0
C366 C 0.26737 0.36394 0.08561 0.0
O367 O 0.36471 0.44154 0.73675 0.0
O368 O 0.56717 0.9794 0.93745 0.0
Zn369 Zn 0.54497 0.92163 0.0622 0.0
O370 O 0.52116 0.86945 0.9514 0.0
Zn371 Zn 0.46042 0.81704 0.98761 0.0
Zn372 Zn 0.5092 0.88436 0.7882 0.0
Zn373 Zn 0.5677 0.8553 0.91209 0.0
O374 O 0.47419 0.7627 1.02779 0.0
O375 O 0.55347 0.80199 1.02699 0.0
O376 O 0.49245 0.9049 0.20163 0.0
O377 O 0.44184 0.82839 0.1626 0.0
O378 O 0.40886 0.81952 0.85776 0.0
O379 O 0.45763 0.89493 0.82055 0.0
O380 O 0.49169 0.82764 0.66559 0.0
O381 O 0.60473 0.92934 0.14689 0.0
O382 O 0.55764 0.82938 0.72775 0.0
O383 O 0.63162 0.90814 0.97253 0.0
C384 C 0.57532 0.98353 0.81247 0.0
C385 C 0.51425 0.76638 0.05896 0.0
C386 C 0.41616 0.86042 0.82016 0.0
C387 C 0.45609 0.86509 0.23328 0.0
C388 C 0.52045 0.81218 0.65572 0.0
C389 C 0.63815 0.92794 0.0856 0.0
O390 O 0.56051 0.94767 0.73674 0.0
O391 O 0.0227 0.61226 0.93744 0.0
Zn392 Zn 0.08045 0.6478 0.06223 0.0
O393 O 0.13265 0.67618 0.95145 0.0
Zn394 Zn 0.18504 0.66782 0.98766 0.0
Zn395 Zn 0.11775 0.64933 0.78821 0.0
Zn396 Zn 0.14682 0.73687 0.91219 0.0
O397 O 0.2394 0.73592 1.02787 0.0
O398 O 0.20012 0.77593 1.02712 0.0
O399 O 0.09717 0.61201 0.20166 0.0
O400 O 0.17367 0.63789 0.16263 0.0
O401 O 0.18254 0.61377 0.85778 0.0
O402 O 0.10715 0.58718 0.82046 0.0
O403 O 0.17448 0.68852 0.66561 0.0
O404 O 0.07274 0.69987 0.14692 0.0
O405 O 0.17278 0.75275 0.72789 0.0
O406 O 0.09399 0.74798 0.97258 0.0
C407 C 0.01858 0.6163 0.81247 0.0
C408 C 0.23573 0.7723 0.05906 0.0
C409 C 0.14164 0.58019 0.82014 0.0
C410 C 0.13697 0.61545 0.23331 0.0
C411 C 0.18995 0.73274 0.6558 0.0
C412 C 0.07416 0.7347 0.08562 0.0
O413 O 0.05444 0.63736 0.73676 0.0
loop_
_geom_bond_atom_site_label_1
_geom_bond_atom_site_label_2
_geom_bond_distance
_geom_bond_site_symmetry_2
_ccdc_geom_bond_type
O0 Zn1 1.953 1_455 S
O0 C16 1.225 . S
Zn1 O0 1.953 1_655 S
Zn1 O2 1.949 1_655 S
Zn1 O8 1.919 . S
Zn1 O13 1.924 . S
O2 Zn1 1.949 1_455 S
O2 Zn3 1.923 1_455 S
O2 Zn4 1.950 . S
O2 Zn5 1.945 1_455 S
Zn3 O2 1.923 1_655 S
Zn3 O6 1.933 . S
Zn3 O9 1.941 . S
Zn3 O10 1.965 1_655 S
Zn4 O2 1.950 . S
Zn4 O11 1.938 . S
Zn4 O12 1.906 . S
Zn4 O22 1.953 . S
Zn5 O2 1.945 1_655 S
Zn5 O7 1.932 . S
Zn5 O14 1.977 1_656 S
Zn5 O15 1.910 . S
O6 Zn3 1.933 . S
O6 C17 1.226 . S
O7 Zn5 1.932 . S
O7 C17 1.307 . S
O8 Zn1 1.919 . S
O8 C19 1.253 . S
O9 Zn3 1.941 . S
O9 C19 1.283 . S
O10 Zn3 1.965 1_455 S
O10 C18 1.303 . S
O11 Zn4 1.938 . S
O11 C18 1.247 . S
O12 Zn4 1.906 . S
O12 C20 1.304 1_556 S
O13 Zn1 1.924 . S
O13 C21 1.311 . S
O14 Zn5 1.977 1_454 S
O14 C20 1.272 . S
O15 Zn5 1.910 . S
O15 C21 1.231 . S
C16 O0 1.225 . S
C16 O22 1.298 . S
C17 O6 1.226 . S
C17 O7 1.307 . S
C18 O10 1.303 . S
C18 O11 1.247 . S
C19 O8 1.253 . S
C19 O9 1.283 . S
C20 O12 1.304 1_554 S
C20 O14 1.272 . S
C21 O13 1.311 . S
C21 O15 1.231 . S
O22 Zn4 1.953 . S
O22 C16 1.298 . S
O23 Zn24 1.953 . S
O23 C39 1.225 . S
Zn24 O23 1.953 . S
Zn24 O25 1.949 . S
Zn24 O31 1.919 . S
Zn24 O36 1.924 . S
O25 Zn24 1.949 . S
O25 Zn26 1.923 . S
O25 Zn27 1.950 . S
O25 Zn28 1.945 . S
Zn26 O25 1.923 . S
Zn26 O29 1.933 . S
Zn26 O32 1.941 . S
Zn26 O33 1.965 . S
Zn27 O25 1.950 . S
Zn27 O34 1.938 . S
Zn27 O35 1.906 . S
Zn27 O45 1.953 . S
Zn28 O25 1.945 . S
Zn28 O30 1.932 . S
Zn28 O37 1.977 1_556 S
Zn28 O38 1.910 . S
O29 Zn26 1.933 . S
O29 C40 1.226 . S
O30 Zn28 1.932 . S
O30 C40 1.307 . S
O31 Zn24 1.919 . S
O31 C42 1.253 . S
O32 Zn26 1.941 . S
O32 C42 1.283 . S
O33 Zn26 1.965 . S
O33 C41 1.303 . S
O34 Zn27 1.938 . S
O34 C41 1.247 . S
O35 Zn27 1.906 . S
O35 C43 1.304 1_556 S
O36 Zn24 1.924 . S
O36 C44 1.311 . S
O37 Zn28 1.977 1_554 S
O37 C43 1.272 . S
O38 Zn28 1.910 . S
O38 C44 1.231 . S
C39 O23 1.225 . S
C39 O45 1.298 . S
C40 O29 1.226 . S
C40 O30 1.307 . S
C41 O33 1.303 . S
C41 O34 1.247 . S
C42 O31 1.253 . S
C42 O32 1.283 . S
C43 O35 1.304 1_554 S
C43 O37 1.272 . S
C44 O36 1.311 . S
C44 O38 1.231 . S
O45 Zn27 1.953 . S
O45 C39 1.298 . S
O46 Zn47 1.974 . S
O46 C62 1.204 1_545 S
Zn47 O46 1.974 . S
Zn47 O48 1.949 . S
Zn47 O54 1.919 . S
Zn47 O59 1.924 . S
O48 Zn47 1.949 . S
O48 Zn49 1.923 . S
O48 Zn50 1.950 1_545 S
O48 Zn51 1.945 . S
Zn49 O48 1.923 . S
Zn49 O52 1.933 . S
Zn49 O55 1.941 . S
Zn49 O56 1.965 1_545 S
Zn50 O48 1.950 1_565 S
Zn50 O57 1.938 . S
Zn50 O58 1.906 . S
Zn50 O68 1.953 . S
Zn51 O48 1.945 . S
Zn51 O53 1.932 . S
Zn51 O60 1.977 1_546 S
Zn51 O61 1.910 . S
O52 Zn49 1.933 . S
O52 C63 1.226 . S
O53 Zn51 1.932 . S
O53 C63 1.307 . S
O54 Zn47 1.919 . S
O54 C65 1.253 . S
O55 Zn49 1.941 . S
O55 C65 1.283 . S
O56 Zn49 1.965 1_565 S
O56 C64 1.303 . S
O57 Zn50 1.938 . S
O57 C64 1.247 . S
O58 Zn50 1.906 . S
O58 C66 1.304 1_556 S
O59 Zn47 1.924 . S
O59 C67 1.311 . S
O60 Zn51 1.977 1_564 S
O60 C66 1.272 . S
O61 Zn51 1.910 . S
O61 C67 1.231 . S
C62 O46 1.204 1_565 S
C62 O68 1.298 . S
C63 O52 1.226 . S
C63 O53 1.307 . S
C64 O56 1.303 . S
C64 O57 1.247 . S
C65 O54 1.253 . S
C65 O55 1.283 . S
C66 O58 1.304 1_554 S
C66 O60 1.272 . S
C67 O59 1.311 . S
C67 O61 1.231 . S
O68 Zn50 1.953 . S
O68 C62 1.298 . S
O69 Zn70 1.953 . S
O69 C85 1.225 . S
Zn70 O69 1.953 . S
Zn70 O71 1.949 . S
Zn70 O77 1.919 . S
Zn70 O82 1.924 . S
O71 Zn70 1.949 . S
O71 Zn72 1.923 . S
O71 Zn73 1.950 . S
O71 Zn74 1.945 1_455 S
Zn72 O71 1.923 . S
Zn72 O75 1.933 1_455 S
Zn72 O78 1.941 . S
Zn72 O79 1.965 . S
Zn73 O71 1.950 . S
Zn73 O80 1.938 . S
Zn73 O81 1.906 1_454 S
Zn73 O91 1.953 . S
Zn74 O71 1.945 1_655 S
Zn74 O76 1.932 . S
Zn74 O83 1.977 . S
Zn74 O84 1.910 . S
O75 Zn72 1.933 1_655 S
O75 C86 1.226 . S
O76 Zn74 1.932 . S
O76 C86 1.307 . S
O77 Zn70 1.919 . S
O77 C88 1.253 . S
O78 Zn72 1.941 . S
O78 C88 1.283 . S
O79 Zn72 1.965 . S
O79 C87 1.303 . S
O80 Zn73 1.938 . S
O80 C87 1.247 . S
O81 Zn73 1.906 1_656 S
O81 C89 1.304 1_556 S
O82 Zn70 1.924 . S
O82 C90 1.311 1_455 S
O83 Zn74 1.977 . S
O83 C89 1.272 . S
O84 Zn74 1.910 . S
O84 C90 1.231 . S
C85 O69 1.225 . S
C85 O91 1.298 . S
C86 O75 1.226 . S
C86 O76 1.307 . S
C87 O79 1.303 . S
C87 O80 1.247 . S
C88 O77 1.253 . S
C88 O78 1.283 . S
C89 O81 1.304 1_554 S
C89 O83 1.272 . S
C90 O82 1.311 1_655 S
C90 O84 1.231 . S
O91 Zn73 1.953 . S
O91 C85 1.298 . S
O92 Zn93 1.953 . S
O92 C108 1.225 . S
Zn93 O92 1.953 . S
Zn93 O94 1.949 . S
Zn93 O100 1.919 . S
Zn93 O105 1.924 . S
O94 Zn93 1.949 . S
O94 Zn95 1.923 . S
O94 Zn96 1.950 . S
O94 Zn97 1.945 . S
Zn95 O94 1.923 . S
Zn95 O98 1.933 . S
Zn95 O101 1.941 . S
Zn95 O102 1.965 . S
Zn96 O94 1.950 . S
Zn96 O103 1.938 . S
Zn96 O104 1.906 1_554 S
Zn96 O114 1.953 . S
Zn97 O94 1.945 . S
Zn97 O99 1.932 . S
Zn97 O106 1.977 . S
Zn97 O107 1.910 . S
O98 Zn95 1.933 . S
O98 C109 1.226 . S
O99 Zn97 1.932 . S
O99 C109 1.307 . S
O100 Zn93 1.919 . S
O100 C111 1.253 . S
O101 Zn95 1.941 . S
O101 C111 1.283 . S
O102 Zn95 1.965 . S
O102 C110 1.303 . S
O103 Zn96 1.938 . S
O103 C110 1.247 . S
O104 Zn96 1.906 1_556 S
O104 C112 1.304 1_556 S
O105 Zn93 1.924 . S
O105 C113 1.311 . S
O106 Zn97 1.977 . S
O106 C112 1.272 . S
O107 Zn97 1.910 . S
O107 C113 1.231 . S
C108 O92 1.225 . S
C108 O114 1.298 . S
C109 O98 1.226 . S
C109 O99 1.307 . S
C110 O102 1.303 . S
C110 O103 1.247 . S
C111 O100 1.253 . S
C111 O101 1.283 . S
C112 O104 1.304 1_554 S
C112 O106 1.272 . S
C113 O105 1.311 . S
C113 O107 1.231 . S
O114 Zn96 1.953 . S
O114 C108 1.298 . S
O115 Zn116 1.953 . S
O115 C131 1.225 . S
Zn116 O115 1.953 . S
Zn116 O117 1.949 1_565 S
Zn116 O123 1.919 . S
Zn116 O128 1.924 1_565 S
O117 Zn116 1.949 1_545 S
O117 Zn118 1.923 1_545 S
O117 Zn119 1.950 . S
O117 Zn120 1.945 . S
Zn118 O117 1.923 1_565 S
Zn118 O121 1.933 1_565 S
Zn118 O124 1.941 . S
Zn118 O125 1.965 . S
Zn119 O117 1.950 . S
Zn119 O126 1.938 1_545 S
Zn119 O127 1.906 1_554 S
Zn119 O137 1.953 1_545 S
Zn120 O117 1.945 . S
Zn120 O122 1.932 . S
Zn120 O129 1.977 . S
Zn120 O130 1.910 . S
O121 Zn118 1.933 1_545 S
O121 C132 1.226 . S
O122 Zn120 1.932 . S
O122 C132 1.307 . S
O123 Zn116 1.919 . S
O123 C134 1.253 . S
O124 Zn118 1.941 . S
O124 C134 1.283 . S
O125 Zn118 1.965 . S
O125 C133 1.303 . S
O126 Zn119 1.938 1_565 S
O126 C133 1.247 . S
O127 Zn119 1.906 1_556 S
O127 C135 1.304 1_556 S
O128 Zn116 1.924 1_545 S
O128 C136 1.311 . S
O129 Zn120 1.977 . S
O129 C135 1.272 . S
O130 Zn120 1.910 . S
O130 C136 1.231 . S
C131 O115 1.225 . S
C131 O137 1.298 . S
C132 O121 1.226 . S
C132 O122 1.307 . S
C133 O125 1.303 . S
C133 O126 1.247 . S
C134 O123 1.253 . S
C134 O124 1.283 . S
C135 O127 1.304 1_554 S
C135 O129 1.272 . S
C136 O128 1.311 . S
C136 O130 1.231 . S
O137 Zn119 1.953 1_565 S
O137 C131 1.298 . S
O138 Zn139 1.953 . S
O138 C154 1.225 . S
Zn139 O138 1.953 . S
Zn139 O140 1.949 1_556 S
Zn139 O146 1.919 . S
Zn139 O151 1.924 1_556 S
O140 Zn139 1.949 1_554 S
O140 Zn141 1.923 . S
O140 Zn142 1.950 . S
O140 Zn143 1.945 . S
Zn141 O140 1.923 . S
Zn141 O144 1.933 . S
Zn141 O147 1.941 1_554 S
Zn141 O148 1.965 1_554 S
Zn142 O140 1.950 . S
Zn142 O149 1.938 1_554 S
Zn142 O150 1.906 . S
Zn142 O160 1.953 1_554 S
Zn143 O140 1.945 . S
Zn143 O145 1.932 . S
Zn143 O152 1.977 . S
Zn143 O153 1.910 . S
O144 Zn141 1.933 . S
O144 C155 1.226 . S
O145 Zn143 1.932 . S
O145 C155 1.307 . S
O146 Zn139 1.919 . S
O146 C157 1.253 . S
O147 Zn141 1.941 1_556 S
O147 C157 1.283 . S
O148 Zn141 1.965 1_556 S
O148 C156 1.303 . S
O149 Zn142 1.938 1_556 S
O149 C156 1.247 . S
O150 Zn142 1.906 . S
O150 C158 1.304 . S
O151 Zn139 1.924 1_554 S
O151 C159 1.311 . S
O152 Zn143 1.977 . S
O152 C158 1.272 . S
O153 Zn143 1.910 . S
O153 C159 1.231 . S
C154 O138 1.225 . S
C154 O160 1.298 . S
C155 O144 1.226 . S
C155 O145 1.307 . S
C156 O148 1.303 . S
C156 O149 1.247 . S
C157 O146 1.253 . S
C157 O147 1.283 . S
C158 O150 1.304 . S
C158 O152 1.272 . S
C159 O151 1.311 . S
C159 O153 1.231 . S
O160 Zn142 1.953 1_556 S
O160 C154 1.298 . S
O161 Zn162 1.953 . S
O161 C177 1.225 . S
Zn162 O161 1.953 . S
Zn162 O163 1.949 1_556 S
Zn162 O169 1.919 . S
Zn162 O174 1.924 1_556 S
O163 Zn162 1.949 1_554 S
O163 Zn164 1.923 . S
O163 Zn165 1.950 . S
O163 Zn166 1.945 . S
Zn164 O163 1.923 . S
Zn164 O167 1.933 . S
Zn164 O170 1.941 1_554 S
Zn164 O171 1.965 1_554 S
Zn165 O163 1.950 . S
Zn165 O172 1.938 1_554 S
Zn165 O173 1.906 . S
Zn165 O183 1.953 1_554 S
Zn166 O163 1.945 . S
Zn166 O168 1.932 . S
Zn166 O175 1.977 . S
Zn166 O176 1.910 . S
O167 Zn164 1.933 . S
O167 C178 1.226 . S
O168 Zn166 1.932 . S
O168 C178 1.307 . S
O169 Zn162 1.919 . S
O169 C180 1.253 . S
O170 Zn164 1.941 1_556 S
O170 C180 1.283 . S
O171 Zn164 1.965 1_556 S
O171 C179 1.303 . S
O172 Zn165 1.938 1_556 S
O172 C179 1.247 . S
O173 Zn165 1.906 . S
O173 C181 1.304 . S
O174 Zn162 1.924 1_554 S
O174 C182 1.311 . S
O175 Zn166 1.977 . S
O175 C181 1.272 . S
O176 Zn166 1.910 . S
O176 C182 1.231 . S
C177 O161 1.225 . S
C177 O183 1.298 . S
C178 O167 1.226 . S
C178 O168 1.307 . S
C179 O171 1.303 . S
C179 O172 1.247 . S
C180 O169 1.253 . S
C180 O170 1.283 . S
C181 O173 1.304 . S
C181 O175 1.272 . S
C182 O174 1.311 . S
C182 O176 1.231 . S
O183 Zn165 1.953 1_556 S
O183 C177 1.298 . S
O184 Zn185 1.953 . S
O184 C200 1.225 . S
Zn185 O184 1.953 . S
Zn185 O186 1.949 1_556 S
Zn185 O192 1.919 . S
Zn185 O197 1.924 1_556 S
O186 Zn185 1.949 1_554 S
O186 Zn187 1.923 . S
O186 Zn188 1.950 . S
O186 Zn189 1.945 . S
Zn187 O186 1.923 . S
Zn187 O190 1.933 . S
Zn187 O193 1.941 1_554 S
Zn187 O194 1.965 1_554 S
Zn188 O186 1.950 . S
Zn188 O195 1.938 1_554 S
Zn188 O196 1.906 . S
Zn188 O206 1.953 1_554 S
Zn189 O186 1.945 . S
Zn189 O191 1.932 . S
Zn189 O198 1.977 . S
Zn189 O199 1.910 . S
O190 Zn187 1.933 . S
O190 C201 1.226 . S
O191 Zn189 1.932 . S
O191 C201 1.307 . S
O192 Zn185 1.919 . S
O192 C203 1.253 . S
O193 Zn187 1.941 1_556 S
O193 C203 1.283 . S
O194 Zn187 1.965 1_556 S
O194 C202 1.303 . S
O195 Zn188 1.938 1_556 S
O195 C202 1.247 . S
O196 Zn188 1.906 . S
O196 C204 1.304 . S
O197 Zn185 1.924 1_554 S
O197 C205 1.311 . S
O198 Zn189 1.977 . S
O198 C204 1.272 . S
O199 Zn189 1.910 . S
O199 C205 1.231 . S
C200 O184 1.225 . S
C200 O206 1.298 . S
C201 O190 1.226 . S
C201 O191 1.307 . S
C202 O194 1.303 . S
C202 O195 1.247 . S
C203 O192 1.253 . S
C203 O193 1.283 . S
C204 O196 1.304 . S
C204 O198 1.272 . S
C205 O197 1.311 . S
C205 O199 1.231 . S
O206 Zn188 1.953 1_556 S
O206 C200 1.298 . S
O207 Zn208 1.953 . S
O207 C223 1.225 . S
Zn208 O207 1.953 . S
Zn208 O209 1.949 . S
Zn208 O215 1.919 . S
Zn208 O220 1.924 . S
O209 Zn208 1.949 . S
O209 Zn210 1.923 . S
O209 Zn211 1.950 . S
O209 Zn212 1.945 . S
Zn210 O209 1.923 . S
Zn210 O213 1.933 . S
Zn210 O216 1.941 . S
Zn210 O217 1.965 . S
Zn211 O209 1.950 . S
Zn211 O218 1.938 . S
Zn211 O219 1.906 . S
Zn211 O229 1.953 . S
Zn212 O209 1.945 . S
Zn212 O214 1.932 . S
Zn212 O221 1.977 . S
Zn212 O222 1.910 . S
O213 Zn210 1.933 . S
O213 C224 1.226 . S
O214 Zn212 1.932 . S
O214 C224 1.307 . S
O215 Zn208 1.919 . S
O215 C226 1.253 . S
O216 Zn210 1.941 . S
O216 C226 1.283 . S
O217 Zn210 1.965 . S
O217 C225 1.303 . S
O218 Zn211 1.938 . S
O218 C225 1.247 . S
O219 Zn211 1.906 . S
O219 C227 1.304 . S
O220 Zn208 1.924 . S
O220 C228 1.311 . S
O221 Zn212 1.977 . S
O221 C227 1.272 . S
O222 Zn212 1.910 . S
O222 C228 1.231 . S
C223 O207 1.225 . S
C223 O229 1.298 . S
C224 O213 1.226 . S
C224 O214 1.307 . S
C225 O217 1.303 . S
C225 O218 1.247 . S
C226 O215 1.253 . S
C226 O216 1.283 . S
C227 O219 1.304 . S
C227 O221 1.272 . S
C228 O220 1.311 . S
C228 O222 1.231 . S
O229 Zn211 1.953 . S
O229 C223 1.298 . S
O230 Zn231 1.953 . S
O230 C246 1.225 . S
Zn231 O230 1.953 . S
Zn231 O232 1.949 . S
Zn231 O238 1.919 . S
Zn231 O243 1.924 . S
O232 Zn231 1.949 . S
O232 Zn233 1.923 . S
O232 Zn234 1.950 . S
O232 Zn235 1.945 . S
Zn233 O232 1.923 . S
Zn233 O236 1.933 . S
Zn233 O239 1.941 . S
Zn233 O240 1.965 . S
Zn234 O232 1.950 . S
Zn234 O241 1.938 . S
Zn234 O242 1.906 . S
Zn234 O252 1.953 . S
Zn235 O232 1.945 . S
Zn235 O237 1.932 . S
Zn235 O244 1.977 . S
Zn235 O245 1.910 . S
O236 Zn233 1.933 . S
O236 C247 1.226 . S
O237 Zn235 1.932 . S
O237 C247 1.307 . S
O238 Zn231 1.919 . S
O238 C249 1.253 . S
O239 Zn233 1.941 . S
O239 C249 1.283 . S
O240 Zn233 1.965 . S
O240 C248 1.303 . S
O241 Zn234 1.938 . S
O241 C248 1.247 . S
O242 Zn234 1.906 . S
O242 C250 1.304 . S
O243 Zn231 1.924 . S
O243 C251 1.311 . S
O244 Zn235 1.977 . S
O244 C250 1.272 . S
O245 Zn235 1.910 . S
O245 C251 1.231 . S
C246 O230 1.225 . S
C246 O252 1.298 . S
C247 O236 1.226 . S
C247 O237 1.307 . S
C248 O240 1.303 . S
C248 O241 1.247 . S
C249 O238 1.253 . S
C249 O239 1.283 . S
C250 O242 1.304 . S
C250 O244 1.272 . S
C251 O243 1.311 . S
C251 O245 1.231 . S
O252 Zn234 1.953 . S
O252 C246 1.298 . S
O253 Zn254 1.953 . S
O253 C269 1.225 . S
Zn254 O253 1.953 . S
Zn254 O255 1.949 . S
Zn254 O261 1.919 . S
Zn254 O266 1.924 . S
O255 Zn254 1.949 . S
O255 Zn256 1.923 . S
O255 Zn257 1.950 . S
O255 Zn258 1.945 . S
Zn256 O255 1.923 . S
Zn256 O259 1.933 . S
Zn256 O262 1.941 . S
Zn256 O263 1.965 . S
Zn257 O255 1.950 . S
Zn257 O264 1.938 . S
Zn257 O265 1.906 . S
Zn257 O275 1.953 . S
Zn258 O255 1.945 . S
Zn258 O260 1.932 . S
Zn258 O267 1.977 . S
Zn258 O268 1.910 . S
O259 Zn256 1.933 . S
O259 C270 1.226 . S
O260 Zn258 1.932 . S
O260 C270 1.307 . S
O261 Zn254 1.919 . S
O261 C272 1.253 . S
O262 Zn256 1.941 . S
O262 C272 1.283 . S
O263 Zn256 1.965 . S
O263 C271 1.303 . S
O264 Zn257 1.938 . S
O264 C271 1.247 . S
O265 Zn257 1.906 . S
O265 C273 1.304 . S
O266 Zn254 1.924 . S
O266 C274 1.311 . S
O267 Zn258 1.977 . S
O267 C273 1.272 . S
O268 Zn258 1.910 . S
O268 C274 1.231 . S
C269 O253 1.225 . S
C269 O275 1.298 . S
C270 O259 1.226 . S
C270 O260 1.307 . S
C271 O263 1.303 . S
C271 O264 1.247 . S
C272 O261 1.253 . S
C272 O262 1.283 . S
C273 O265 1.304 . S
C273 O267 1.272 . S
C274 O266 1.311 . S
C274 O268 1.231 . S
O275 Zn257 1.953 . S
O275 C269 1.298 . S
O276 Zn277 1.953 . S
O276 C292 1.225 . S
Zn277 O276 1.953 . S
Zn277 O278 1.949 . S
Zn277 O284 1.919 . S
Zn277 O289 1.924 . S
O278 Zn277 1.949 . S
O278 Zn279 1.923 . S
O278 Zn280 1.950 . S
O278 Zn281 1.945 . S
Zn279 O278 1.923 . S
Zn279 O282 1.933 . S
Zn279 O285 1.941 . S
Zn279 O286 1.965 . S
Zn280 O278 1.950 . S
Zn280 O287 1.938 . S
Zn280 O288 1.906 . S
Zn280 O298 1.953 . S
Zn281 O278 1.945 . S
Zn281 O283 1.932 . S
Zn281 O290 1.977 . S
Zn281 O291 1.910 . S
O282 Zn279 1.933 . S
O282 C293 1.226 . S
O283 Zn281 1.932 . S
O283 C293 1.307 . S
O284 Zn277 1.919 . S
O284 C295 1.253 . S
O285 Zn279 1.941 . S
O285 C295 1.283 . S
O286 Zn279 1.965 . S
O286 C294 1.303 . S
O287 Zn280 1.938 . S
O287 C294 1.247 . S
O288 Zn280 1.906 . S
O288 C296 1.304 . S
O289 Zn277 1.924 . S
O289 C297 1.311 . S
O290 Zn281 1.977 . S
O290 C296 1.272 . S
O291 Zn281 1.910 . S
O291 C297 1.231 . S
C292 O276 1.225 . S
C292 O298 1.298 . S
C293 O282 1.226 . S
C293 O283 1.307 . S
C294 O286 1.303 . S
C294 O287 1.247 . S
C295 O284 1.253 . S
C295 O285 1.283 . S
C296 O288 1.304 . S
C296 O290 1.272 . S
C297 O289 1.311 . S
C297 O291 1.231 . S
O298 Zn280 1.953 . S
O298 C292 1.298 . S
O299 Zn300 1.953 . S
O299 C315 1.225 . S
Zn300 O299 1.953 . S
Zn300 O301 1.949 . S
Zn300 O307 1.919 . S
Zn300 O312 1.924 . S
O301 Zn300 1.949 . S
O301 Zn302 1.923 . S
O301 Zn303 1.950 . S
O301 Zn304 1.945 . S
Zn302 O301 1.923 . S
Zn302 O305 1.933 . S
Zn302 O308 1.941 . S
Zn302 O309 1.965 . S
Zn303 O301 1.950 . S
Zn303 O310 1.938 . S
Zn303 O311 1.906 . S
Zn303 O321 1.953 . S
Zn304 O301 1.945 . S
Zn304 O306 1.932 . S
Zn304 O313 1.977 . S
Zn304 O314 1.910 . S
O305 Zn302 1.933 . S
O305 C316 1.226 . S
O306 Zn304 1.932 . S
O306 C316 1.307 . S
O307 Zn300 1.919 . S
O307 C318 1.253 . S
O308 Zn302 1.941 . S
O308 C318 1.283 . S
O309 Zn302 1.965 . S
O309 C317 1.303 . S
O310 Zn303 1.938 . S
O310 C317 1.247 . S
O311 Zn303 1.906 . S
O311 C319 1.304 . S
O312 Zn300 1.924 . S
O312 C320 1.311 . S
O313 Zn304 1.977 . S
O313 C319 1.272 . S
O314 Zn304 1.910 . S
O314 C320 1.231 . S
C315 O299 1.225 . S
C315 O321 1.298 . S
C316 O305 1.226 . S
C316 O306 1.307 . S
C317 O309 1.303 . S
C317 O310 1.247 . S
C318 O307 1.253 . S
C318 O308 1.283 . S
C319 O311 1.304 . S
C319 O313 1.272 . S
C320 O312 1.311 . S
C320 O314 1.231 . S
O321 Zn303 1.953 . S
O321 C315 1.298 . S
O322 Zn323 1.953 . S
O322 C338 1.225 . S
Zn323 O322 1.953 . S
Zn323 O324 1.949 . S
Zn323 O330 1.919 . S
Zn323 O335 1.924 . S
O324 Zn323 1.949 . S
O324 Zn325 1.923 . S
O324 Zn326 1.950 . S
O324 Zn327 1.945 . S
Zn325 O324 1.923 . S
Zn325 O328 1.933 . S
Zn325 O331 1.941 . S
Zn325 O332 1.965 . S
Zn326 O324 1.950 . S
Zn326 O333 1.938 . S
Zn326 O334 1.906 . S
Zn326 O344 1.953 . S
Zn327 O324 1.945 . S
Zn327 O329 1.932 . S
Zn327 O336 1.977 . S
Zn327 O337 1.910 . S
O328 Zn325 1.933 . S
O328 C339 1.226 . S
O329 Zn327 1.932 . S
O329 C339 1.307 . S
O330 Zn323 1.919 . S
O330 C341 1.253 . S
O331 Zn325 1.941 . S
O331 C341 1.283 . S
O332 Zn325 1.965 . S
O332 C340 1.303 . S
O333 Zn326 1.938 . S
O333 C340 1.247 . S
O334 Zn326 1.906 . S
O334 C342 1.304 . S
O335 Zn323 1.924 . S
O335 C343 1.311 . S
O336 Zn327 1.977 . S
O336 C342 1.272 . S
O337 Zn327 1.910 . S
O337 C343 1.231 . S
C338 O322 1.225 . S
C338 O344 1.298 . S
C339 O328 1.226 . S
C339 O329 1.307 . S
C340 O332 1.303 . S
C340 O333 1.247 . S
C341 O330 1.253 . S
C341 O331 1.283 . S
C342 O334 1.304 . S
C342 O336 1.272 . S
C343 O335 1.311 . S
C343 O337 1.231 . S
O344 Zn326 1.953 . S
O344 C338 1.298 . S
O345 Zn346 1.960 . S
O345 C361 1.225 . S
Zn346 O345 1.960 . S
Zn346 O347 1.953 . S
Zn346 O353 1.912 1_556 S
Zn346 O358 1.921 1_556 S
O347 Zn346 1.953 . S
O347 Zn348 1.923 . S
O347 Zn349 1.950 . S
O347 Zn350 1.945 . S
Zn348 O347 1.923 . S
Zn348 O351 1.933 1_556 S
Zn348 O354 1.941 1_556 S
Zn348 O355 1.965 . S
Zn349 O347 1.950 . S
Zn349 O356 1.938 . S
Zn349 O357 1.906 . S
Zn349 O367 1.953 . S
Zn350 O347 1.945 . S
Zn350 O352 1.932 1_556 S
Zn350 O359 1.977 . S
Zn350 O360 1.910 1_556 S
O351 Zn348 1.933 1_554 S
O351 C362 1.226 . S
O352 Zn350 1.932 1_554 S
O352 C362 1.307 . S
O353 Zn346 1.912 1_554 S
O353 C364 1.253 . S
O354 Zn348 1.941 1_554 S
O354 C364 1.283 . S
O355 Zn348 1.965 . S
O355 C363 1.303 . S
O356 Zn349 1.938 . S
O356 C363 1.247 . S
O357 Zn349 1.906 . S
O357 C365 1.304 . S
O358 Zn346 1.921 1_554 S
O358 C366 1.311 . S
O359 Zn350 1.977 . S
O359 C365 1.272 . S
O360 Zn350 1.910 1_554 S
O360 C366 1.231 . S
C361 O345 1.225 . S
C361 O367 1.298 . S
C362 O351 1.226 . S
C362 O352 1.307 . S
C363 O355 1.303 . S
C363 O356 1.247 . S
C364 O353 1.253 . S
C364 O354 1.283 . S
C365 O357 1.304 . S
C365 O359 1.272 . S
C366 O358 1.311 . S
C366 O360 1.231 . S
O367 Zn349 1.953 . S
O367 C361 1.298 . S
O368 Zn369 1.960 . S
O368 C384 1.225 . S
Zn369 O368 1.960 . S
Zn369 O370 1.953 . S
Zn369 O376 1.912 1_556 S
Zn369 O381 1.921 1_556 S
O370 Zn369 1.953 . S
O370 Zn371 1.923 . S
O370 Zn372 1.950 . S
O370 Zn373 1.945 . S
Zn371 O370 1.923 . S
Zn371 O374 1.933 1_556 S
Zn371 O377 1.941 1_556 S
Zn371 O378 1.965 . S
Zn372 O370 1.950 . S
Zn372 O379 1.938 . S
Zn372 O380 1.906 . S
Zn372 O390 1.953 . S
Zn373 O370 1.945 . S
Zn373 O375 1.932 1_556 S
Zn373 O382 1.977 . S
Zn373 O383 1.910 1_556 S
O374 Zn371 1.933 1_554 S
O374 C385 1.226 . S
O375 Zn373 1.932 1_554 S
O375 C385 1.307 . S
O376 Zn369 1.912 1_554 S
O376 C387 1.253 . S
O377 Zn371 1.941 1_554 S
O377 C387 1.283 . S
O378 Zn371 1.965 . S
O378 C386 1.303 . S
O379 Zn372 1.938 . S
O379 C386 1.247 . S
O380 Zn372 1.906 . S
O380 C388 1.304 . S
O381 Zn369 1.921 1_554 S
O381 C389 1.311 . S
O382 Zn373 1.977 . S
O382 C388 1.272 . S
O383 Zn373 1.910 1_554 S
O383 C389 1.231 . S
C384 O368 1.225 . S
C384 O390 1.298 . S
C385 O374 1.226 . S
C385 O375 1.307 . S
C386 O378 1.303 . S
C386 O379 1.247 . S
C387 O376 1.253 . S
C387 O377 1.283 . S
C388 O380 1.304 . S
C388 O382 1.272 . S
C389 O381 1.311 . S
C389 O383 1.231 . S
O390 Zn372 1.953 . S
O390 C384 1.298 . S
O391 Zn392 1.960 . S
O391 C407 1.225 . S
Zn392 O391 1.960 . S
Zn392 O393 1.953 . S
Zn392 O399 1.912 1_556 S
Zn392 O404 1.921 1_556 S
O393 Zn392 1.953 . S
O393 Zn394 1.923 . S
O393 Zn395 1.950 . S
O393 Zn396 1.945 . S
Zn394 O393 1.923 . S
Zn394 O397 1.933 1_556 S
Zn394 O400 1.941 1_556 S
Zn394 O401 1.965 . S
Zn395 O393 1.950 . S
Zn395 O402 1.938 . S
Zn395 O403 1.906 . S
Zn395 O413 1.953 . S
Zn396 O393 1.945 . S
Zn396 O398 1.932 1_556 S
Zn396 O405 1.977 . S
Zn396 O406 1.910 1_556 S
O397 Zn394 1.933 1_554 S
O397 C408 1.226 . S
O398 Zn396 1.932 1_554 S
O398 C408 1.307 . S
O399 Zn392 1.912 1_554 S
O399 C410 1.253 . S
O400 Zn394 1.941 1_554 S
O400 C410 1.283 . S
O401 Zn394 1.965 . S
O401 C409 1.303 . S
O402 Zn395 1.938 . S
O402 C409 1.247 . S
O403 Zn395 1.906 . S
O403 C411 1.304 . S
O404 Zn392 1.921 1_554 S
O404 C412 1.311 . S
O405 Zn396 1.977 . S
O405 C411 1.272 . S
O406 Zn396 1.910 1_554 S
O406 C412 1.231 . S
C407 O391 1.225 . S
C407 O413 1.298 . S
C408 O397 1.226 . S
C408 O398 1.307 . S
C409 O401 1.303 . S
C409 O402 1.247 . S
C410 O399 1.253 . S
C410 O400 1.283 . S
C411 O403 1.304 . S
C411 O405 1.272 . S
C412 O404 1.311 . S
C412 O406 1.231 . S
O413 Zn395 1.953 . S
O413 C407 1.298 . S
C18 C111 2.005 . S
C134 C41 2.005 . S
C64 C88 2.005 . S
C63 C112 3.037 1_556 S
C135 C17 3.037 1_554 S
C40 C89 3.037 1_556 S
C42 C86 2.874 . S
C65 C109 2.874 . S
C132 C19 2.874 . S
C133 C43 2.228 . S
C66 C87 2.228 . S
C20 C110 2.228 . S
C249 C156 2.005 . S
C179 C272 2.005 . S
C202 C226 2.005 . S
C250 C201 3.037 . S
C273 C155 3.037 . S
C227 C178 3.037 . S
C180 C224 2.874 . S
C203 C247 2.874 . S
C157 C270 2.874 . S
C181 C271 2.228 . S
C204 C225 2.228 . S
C248 C158 2.228 . S
C294 C387 2.005 . S
C317 C410 2.006 . S
C364 C340 2.005 . S
C388 C339 3.037 . S
C293 C411 3.037 . S
C316 C365 3.037 . S
C318 C362 2.874 . S
C341 C385 2.874 . S
C295 C408 2.874 . S
C409 C319 2.228 . S
C363 C342 2.228 . S
C296 C386 2.228 . S
C16 C320 1.351 . S
C39 C343 1.351 . S
C62 C297 1.351 . S
C67 C177 1.350 . S
C21 C200 1.351 . S
C44 C154 1.350 . S
C246 C90 1.470 . S
C113 C269 1.470 . S
C136 C223 1.470 . S
C389 C131 1.470 . S
C85 C412 1.470 . S
C108 C366 1.470 . S
C205 C315 1.351 1_655 S
C159 C338 1.351 . S
C292 C182 1.350 1_565 S
C384 C228 1.470 1_565 S
C407 C251 1.470 1_455 S
C274 C361 1.470 . S
