# Generated by pormake.
# Topology irl, (4)-cn, num edge types: 1
# Building blocks:
#     Node 0, Type 0, BuildingBlock: QUQFOY_clean_sbu_1, # of connection points: 4
#     Node 1, Type 0, BuildingBlock: QUQFOY_clean_sbu_1, # of connection points: 4
#     Node 2, Type 0, BuildingBlock: QUQFOY_clean_sbu_1, # of connection points: 4
#     Node 3, Type 0, BuildingBlock: QUQFOY_clean_sbu_1, # of connection points: 4
#     Node 4, Type 0, BuildingBlock: QUQFOY_clean_sbu_1, # of connection points: 4
#     Node 5, Type 0, BuildingBlock: QUQFOY_clean_sbu_1, # of connection points: 4
#     Node 6, Type 0, BuildingBlock: QUQFOY_clean_sbu_1, # of connection points: 4
#     Node 7, Type 0, BuildingBlock: QUQFOY_clean_sbu_1, # of connection points: 4
#     Edge 8, Type (0, 0), BuildingBlock: AJUNOK_clean_linker_0, # of connection points: 2
#     Edge 9, Type (0, 0), BuildingBlock: AJUNOK_clean_linker_0, # of connection points: 2
#     Edge 10, Type (0, 0), BuildingBlock: AJUNOK_clean_linker_0, # of connection points: 2
#     Edge 11, Type (0, 0), BuildingBlock: AJUNOK_clean_linker_0, # of connection points: 2
#     Edge 12, Type (0, 0), BuildingBlock: AJUNOK_clean_linker_0, # of connection points: 2
#     Edge 13, Type (0, 0), BuildingBlock: AJUNOK_clean_linker_0, # of connection points: 2
#     Edge 14, Type (0, 0), BuildingBlock: AJUNOK_clean_linker_0, # of connection points: 2
#     Edge 15, Type (0, 0), BuildingBlock: AJUNOK_clean_linker_0, # of connection points: 2
#     Edge 16, Type (0, 0), BuildingBlock: AJUNOK_clean_linker_0, # of connection points: 2
#     Edge 17, Type (0, 0), BuildingBlock: AJUNOK_clean_linker_0, # of connection points: 2
#     Edge 18, Type (0, 0), BuildingBlock: AJUNOK_clean_linker_0, # of connection points: 2
#     Edge 19, Type (0, 0), BuildingBlock: AJUNOK_clean_linker_0, # of connection points: 2
#     Edge 20, Type (0, 0), BuildingBlock: AJUNOK_clean_linker_0, # of connection points: 2
#     Edge 21, Type (0, 0), BuildingBlock: AJUNOK_clean_linker_0, # of connection points: 2
#     Edge 22, Type (0, 0), BuildingBlock: AJUNOK_clean_linker_0, # of connection points: 2
#     Edge 23, Type (0, 0), BuildingBlock: AJUNOK_clean_linker_0, # of connection points: 2
# Relax obj value: 0.048
# Max RMSD: 0.079
# Mean RMSD: 0.079
data_MOF--net-irl--node1-QUQFOY_clean_sbu_1--edge1-AJUNOK_clean_linker_0
_symmetry_space_group_name_H-M    P1
_symmetry_Int_Tables_number       1
_symmetry_cell_setting            triclinic
loop_
_symmetry_equiv_pos_as_xyz
'x, y, z'
_cell_length_a     27.175428
_cell_length_b     31.980271
_cell_length_c     21.16119
_cell_angle_alpha  90.10362
_cell_angle_beta   90.138178
_cell_angle_gamma 89.926381
loop_
_atom_site_label
_atom_site_type_symbol
_atom_site_fract_x
_atom_site_fract_y
_atom_site_fract_z
_atom_type_partial_charge
O0 O 0.0927 0.19801 0.14474 0.0
Cd1 Cd 0.12298 0.17927 0.06033 0.0
Cd2 Cd 0.03142 0.19634 1.02062 0.0
O3 O 1.02426 0.22594 0.10737 0.0
O4 O 0.19659 0.1844 0.07011 0.0
O5 O 0.15206 0.22622 1.00983 0.0
C6 C 0.19409 0.21696 0.03427 0.0
C7 C 0.03051 0.22665 0.92047 0.0
C8 C 0.05325 0.21864 0.15347 0.0
C9 C 0.05961 0.10627 1.02204 0.0
O10 O 1.02429 0.13238 1.02168 0.0
O11 O 0.10371 0.11912 0.02962 0.0
O12 O 0.98984 0.21985 0.95036 0.0
O13 O 0.0711 0.21853 0.94953 0.0
O14 O 0.96548 0.84116 0.15086 0.0
Cd15 Cd 0.93839 0.85991 0.06453 0.0
Cd16 Cd 0.02921 0.83724 0.02914 0.0
O17 O 0.03141 0.80782 0.1165 0.0
O18 O 0.86432 0.85852 0.07063 0.0
O19 O 0.90757 0.81317 1.01482 0.0
C20 C 0.86556 0.82514 0.03623 0.0
C21 C 0.02961 0.80706 0.92871 0.0
C22 C 1.00251 0.81781 0.16145 0.0
C23 C 1.00795 0.92855 0.02674 0.0
O24 O 0.04113 0.90061 0.02999 0.0
O25 O 0.96272 0.91823 0.0318 0.0
O26 O 0.0702 0.81134 0.96013 0.0
O27 O 0.98927 0.81741 0.95649 0.0
O28 O 0.08977 0.83681 0.43525 0.0
Cd29 Cd 0.11989 0.85945 0.51777 0.0
Cd30 Cd 0.02972 0.83941 0.55695 0.0
O31 O 1.02048 0.8099 0.47051 0.0
O32 O 0.19187 0.85625 0.49817 0.0
O33 O 0.15678 0.81874 0.57321 0.0
C34 C 0.19523 0.82714 0.54007 0.0
C35 C 0.02892 0.80864 0.65669 0.0
C36 C 0.05061 0.81612 0.42558 0.0
C37 C 0.0544 0.93097 0.55374 0.0
O38 O 1.02091 0.90334 0.55684 0.0
O39 O 0.09893 0.92002 0.54375 0.0
O40 O 0.98837 0.8159 0.62653 0.0
O41 O 0.06972 0.81628 0.62786 0.0
O42 O 0.96364 0.19857 0.42782 0.0
Cd43 Cd 0.93665 0.18049 0.5143 0.0
Cd44 Cd 1.0288 0.19882 0.54784 0.0
O45 O 0.03231 0.22832 0.46085 0.0
O46 O 0.86279 0.18287 0.50713 0.0
O47 O 0.90623 0.22743 0.56425 0.0
C48 C 0.86419 0.21597 0.54208 0.0
C49 C 0.03063 0.22855 0.64839 0.0
C50 C 1.00187 0.22017 0.41663 0.0
C51 C 1.00291 0.10878 0.55037 0.0
O52 O 0.03779 0.13508 0.54647 0.0
O53 O 0.95835 0.12123 0.5462 0.0
O54 O 0.07087 0.22317 0.61687 0.0
O55 O 0.98971 0.21974 0.62047 0.0
O56 O 0.59656 0.69818 0.15145 0.0
Cd57 Cd 0.62333 0.68 0.06477 0.0
Cd58 Cd 0.52997 0.69828 0.03169 0.0
O59 O 0.52738 0.72764 0.11929 0.0
O60 O 0.69731 0.68399 0.07082 0.0
O61 O 0.65179 0.7273 1.01435 0.0
C62 C 0.69435 0.71716 0.03633 0.0
C63 C 0.52807 0.72849 0.93146 0.0
C64 C 0.55829 0.71975 0.16311 0.0
C65 C 0.55726 0.60818 0.02805 0.0
O66 O 0.5222 0.6344 0.03213 0.0
O67 O 0.60177 0.62069 0.03253 0.0
O68 O 0.48771 0.7227 0.96254 0.0
O69 O 0.56886 0.71959 0.95949 0.0
O70 O 0.46649 0.34151 0.14698 0.0
Cd71 Cd 0.43736 0.36096 0.06218 0.0
Cd72 Cd 0.52747 0.33921 1.02292 0.0
O73 O 0.53273 0.30988 0.10995 0.0
O74 O 0.36346 0.35879 0.07059 0.0
O75 O 0.4062 0.31462 1.01202 0.0
C76 C 0.36447 0.32592 0.0351 0.0
C77 C 0.52712 0.30845 0.92292 0.0
C78 C 0.50447 0.31898 0.15594 0.0
C79 C 0.50528 0.43053 1.02333 0.0
O80 O 0.53868 0.4027 1.02357 0.0
O81 O 0.46035 0.41996 0.03079 0.0
O82 O 0.56799 0.31361 0.95342 0.0
O83 O 0.48692 0.31842 0.95134 0.0
O84 O 0.59323 0.34089 0.42945 0.0
Cd85 Cd 0.6209 0.36016 0.51516 0.0
Cd86 Cd 0.52994 0.33815 0.55117 0.0
O87 O 0.52636 0.309 0.4637 0.0
O88 O 0.69485 0.35688 0.5085 0.0
O89 O 0.65035 0.31358 0.56599 0.0
C90 C 0.69256 0.32383 0.54334 0.0
C91 C 0.52736 0.30764 0.65112 0.0
C92 C 0.5558 0.31806 0.419 0.0
C93 C 0.55226 0.4295 0.55294 0.0
O94 O 0.51898 0.40167 0.55082 0.0
O95 O 0.59739 0.41901 0.54698 0.0
O96 O 0.48741 0.31302 0.61881 0.0
O97 O 0.56843 0.31697 0.62435 0.0
O98 O 0.4689 0.70159 0.43591 0.0
Cd99 Cd 0.43732 0.68054 0.51824 0.0
Cd100 Cd 0.52778 0.69769 0.55899 0.0
O101 O 0.53834 0.7273 0.47305 0.0
O102 O 0.3655 0.6853 0.49766 0.0
O103 O 0.40143 0.72242 0.57289 0.0
C104 C 0.3628 0.71457 0.53952 0.0
C105 C 0.5285 0.72789 0.65932 0.0
C106 C 0.50891 0.72118 0.42708 0.0
C107 C 0.49977 0.60713 0.55479 0.0
O108 O 0.53464 0.63355 0.55786 0.0
O109 O 0.45577 0.61962 0.54502 0.0
O110 O 0.56911 0.72017 0.6298 0.0
O111 O 0.48776 0.72105 0.62961 0.0
C112 C 0.98616 1.00475 1.01674 0.0
C113 C 1.02245 0.97341 1.02038 0.0
C114 C 0.99873 0.0473 1.01534 0.0
C115 C 0.04818 0.06066 1.01775 0.0
H116 H 0.94753 0.99648 1.01609 0.0
H117 H 0.96905 0.06994 1.01377 0.0
S118 S 0.15777 0.99126 1.02375 0.0
N119 N 0.11053 0.9589 1.02333 0.0
N120 N 0.13384 0.03867 1.02102 0.0
C121 C 0.08498 0.02966 1.0195 0.0
C122 C 0.07221 0.98622 1.02073 0.0
C123 C 0.07665 1.00726 0.54984 0.0
C124 C 0.04069 0.97615 0.5582 0.0
C125 C 0.06413 0.04986 0.54902 0.0
C126 C 1.01502 0.06342 0.55627 0.0
H127 H 0.1148 0.99873 0.5426 0.0
H128 H 0.09332 0.07228 0.54114 0.0
S129 S 0.90708 0.99496 0.58444 0.0
N130 N 0.95382 0.96228 0.57762 0.0
N131 N 0.93056 0.04213 0.57562 0.0
C132 C 0.97883 0.03277 0.56657 0.0
C133 C 0.99158 0.98931 0.56768 0.0
C134 C 0.49587 0.5495 0.0248 0.0
C135 C 0.5453 0.56279 1.02145 0.0
C136 C 0.48322 0.50696 1.02352 0.0
C137 C 0.51938 0.47559 1.01864 0.0
H138 H 0.46641 0.5721 0.02994 0.0
H139 H 0.44475 0.49868 0.0278 0.0
S140 S 0.65414 0.49352 1.00334 0.0
N141 N 0.63048 0.54089 1.00944 0.0
N142 N 0.60699 0.46114 1.00667 0.0
C143 C 0.56891 0.48844 1.01296 0.0
C144 C 0.58179 0.53187 1.01447 0.0
C145 C 0.57402 0.50588 0.55777 0.0
C146 C 0.53784 0.47446 0.55862 0.0
C147 C 0.56125 0.54843 0.55819 0.0
C148 C 0.51169 0.56164 0.55917 0.0
H149 H 0.61265 0.49768 0.55557 0.0
H150 H 0.59076 0.57114 0.55625 0.0
S151 S 0.40254 0.49213 0.56622 0.0
N152 N 0.44989 0.45981 0.56402 0.0
N153 N 0.42623 0.53959 0.56437 0.0
C154 C 0.4751 0.53063 0.56188 0.0
C155 C 0.48807 0.4872 0.56175 0.0
C156 C 0.07572 0.23065 0.26657 0.0
C157 C 0.03919 0.22939 0.21922 0.0
C158 C 0.06333 0.23141 0.33082 0.0
C159 C 1.0139 0.2303 0.35015 0.0
H160 H 0.1143 0.22888 0.25403 0.0
H161 H 0.09273 0.22979 0.36539 0.0
S162 S 0.90429 0.23384 0.24529 0.0
N163 N 0.95149 0.23261 0.19632 0.0
N164 N 0.9282 0.2335 0.31709 0.0
C165 C 0.97704 0.23257 0.3034 0.0
C166 C 0.98967 0.23232 0.23791 0.0
C167 C 0.9887 0.80851 0.33899 0.0
C168 C 0.03772 0.80516 0.35958 0.0
C169 C 0.97723 0.80958 0.27434 0.0
C170 C 1.01426 0.80673 0.22793 0.0
H171 H 0.95939 0.8136 0.37277 0.0
H172 H 0.93928 0.8149 0.26071 0.0
S173 S 0.14739 0.78971 0.25798 0.0
N174 N 0.1228 0.79334 0.32906 0.0
N175 N 0.10124 0.79473 0.20764 0.0
C176 C 0.06283 0.79925 0.2481 0.0
C177 C 0.07456 0.79868 0.31393 0.0
C178 C 0.0734 0.79919 0.75942 0.0
C179 C 0.02896 0.79776 0.72499 0.0
C180 C 0.0737 0.79869 0.82571 0.0
C181 C 0.02958 0.79672 0.86022 0.0
H182 H 0.10815 0.80338 0.73529 0.0
H183 H 0.10857 0.80266 0.84988 0.0
S184 S 0.9042 0.78352 0.79275 0.0
N185 N 0.94033 0.78775 0.73049 0.0
N186 N 0.94088 0.78664 0.85486 0.0
C187 C 0.98534 0.79116 0.82636 0.0
C188 C 0.98503 0.79172 0.75883 0.0
C189 C 0.98653 0.23633 0.81755 0.0
C190 C 0.0307 0.23762 0.85225 0.0
C191 C 0.9867 0.23682 0.75132 0.0
C192 C 0.03106 0.23854 0.71703 0.0
H193 H 0.95165 0.23228 0.84141 0.0
H194 H 0.95183 0.23323 0.72701 0.0
S195 S 0.15605 0.25117 0.78557 0.0
N196 N 0.1195 0.24737 0.84747 0.0
N197 N 0.11976 0.24798 0.72307 0.0
C198 C 0.07511 0.24388 0.75116 0.0
C199 C 0.07494 0.24349 0.81873 0.0
C200 C 0.49788 0.73307 0.24975 0.0
C201 C 0.54707 0.73056 0.22976 0.0
C202 C 0.48601 0.73329 0.31419 0.0
C203 C 0.52286 0.73157 0.36115 0.0
H204 H 0.46814 0.73184 0.21561 0.0
H205 H 0.44749 0.73255 0.32722 0.0
S206 S 0.65759 0.73272 0.33325 0.0
N207 N 0.6331 0.73221 0.26176 0.0
N208 N 0.61077 0.73301 0.38285 0.0
C209 C 0.57227 0.73317 0.34175 0.0
C210 C 0.58436 0.73248 0.27605 0.0
C211 C 0.49394 0.30725 0.33323 0.0
C212 C 0.54339 0.30743 0.35277 0.0
C213 C 0.48155 0.30793 0.26889 0.0
C214 C 0.5181 0.30809 0.22178 0.0
H215 H 0.46465 0.30979 0.36768 0.0
H216 H 0.44304 0.31055 0.25607 0.0
S217 S 0.65284 0.30105 0.24868 0.0
N218 N 0.62896 0.30233 0.32034 0.0
N219 N 0.60568 0.30289 0.1994 0.0
C220 C 0.56753 0.30419 0.24076 0.0
C221 C 0.58016 0.30411 0.3063 0.0
C222 C 0.57088 0.29748 0.8204 0.0
C223 C 0.52662 0.29744 0.85468 0.0
C224 C 0.57079 0.2973 0.75417 0.0
C225 C 0.52643 0.29711 0.71949 0.0
H226 H 0.60587 0.30041 0.84462 0.0
H227 H 0.60582 0.29995 0.73021 0.0
S228 S 0.40088 0.28797 0.78678 0.0
N229 N 0.43748 0.29038 0.84904 0.0
N230 N 0.43738 0.29029 0.72463 0.0
C231 C 0.48214 0.29288 0.75315 0.0
C232 C 0.48222 0.293 0.82072 0.0
C233 C 0.48361 0.73599 0.82831 0.0
C234 C 0.52767 0.73897 0.86305 0.0
C235 C 0.48386 0.73577 0.762 0.0
C236 C 0.52819 0.73841 0.7278 0.0
H237 H 0.44892 0.73108 0.85225 0.0
H238 H 0.44924 0.7308 0.73765 0.0
S239 S 0.65244 0.75564 0.7963 0.0
N240 N 0.61597 0.75136 0.85821 0.0
N241 N 0.61642 0.75064 0.73382 0.0
C242 C 0.57193 0.7454 0.76192 0.0
C243 C 0.57167 0.74576 0.82946 0.0
C244 C 0.32602 0.25535 0.02633 0.0
C245 C 0.32052 0.29916 0.02698 0.0
C246 C 0.28494 0.22879 0.02715 0.0
C247 C 0.2369 0.24507 0.02653 0.0
H248 H 0.36237 0.24144 0.02818 0.0
H249 H 0.29084 0.19531 0.02921 0.0
S250 S 0.20267 0.35749 1.02339 0.0
N251 N 0.26345 0.35758 0.0247 0.0
N252 N 0.18616 0.30781 1.02344 0.0
C253 C 0.23092 0.2888 1.02409 0.0
C254 C 0.27276 0.31582 0.0251 0.0
C255 C 0.78528 0.72846 0.02845 0.0
C256 C 0.73736 0.745 0.02772 0.0
C257 C 0.82658 0.75477 0.02747 0.0
C258 C 0.82144 0.79861 0.02774 0.0
H259 H 0.79094 0.69496 0.03093 0.0
H260 H 0.8628 0.74065 0.02962 0.0
S261 S 0.70407 0.85762 1.02303 0.0
N262 N 0.68716 0.80804 1.02368 0.0
N263 N 0.76484 0.85734 1.02449 0.0
C264 C 0.77381 0.81554 0.02544 0.0
C265 C 0.73175 0.78876 0.02467 0.0
C266 C 0.25948 0.78534 0.48585 0.0
C267 C 0.23911 0.79993 0.54277 0.0
C268 C 0.29833 0.75653 0.48571 0.0
C269 C 0.31927 0.74219 0.54248 0.0
H270 H 0.24444 0.79547 0.44092 0.0
H271 H 0.31282 0.74611 0.44068 0.0
S272 S 0.28 0.77142 0.70425 0.0
N273 N 0.24211 0.79752 0.65745 0.0
N274 N 0.31742 0.74512 0.65718 0.0
C275 C 0.29989 0.75703 0.59981 0.0
C276 C 0.25911 0.78539 0.59996 0.0
C277 C 0.78365 0.31267 0.55093 0.0
C278 C 0.73579 0.29607 0.55139 0.0
C279 C 0.82507 0.28637 0.55161 0.0
C280 C 0.82008 0.24254 0.55074 0.0
H281 H 0.78913 0.34619 0.54897 0.0
H282 H 0.86125 0.30051 0.54973 0.0
S283 S 0.70296 0.18339 0.55384 0.0
N284 N 0.68586 0.23296 0.55401 0.0
N285 N 0.76372 0.18374 0.55273 0.0
C286 C 0.77253 0.22556 0.55257 0.0
C287 C 0.73037 0.25229 0.55362 0.0
loop_
_geom_bond_atom_site_label_1
_geom_bond_atom_site_label_2
_geom_bond_distance
_geom_bond_site_symmetry_2
_ccdc_geom_bond_type
O0 Cd1 2.223 . S
O0 C8 1.315 . S
Cd1 O0 2.223 . S
Cd1 O4 2.297 . S
Cd1 O5 2.439 . S
Cd1 O11 2.240 . S
Cd2 O3 2.240 1_655 S
Cd2 O10 2.223 . S
Cd2 O12 2.297 1_554 S
Cd2 O13 2.439 1_654 S
O3 Cd2 2.240 1_455 S
O3 C8 1.279 . S
O4 Cd1 2.297 . S
O4 C6 1.247 . S
O5 Cd1 2.439 . S
O5 C6 1.208 . S
C6 O4 1.247 . S
C6 O5 1.208 . S
C7 O12 1.247 1_455 S
C7 O13 1.208 . S
C8 O0 1.315 . S
C8 O3 1.279 . S
C9 O10 1.315 1_455 S
C9 O11 1.279 . S
O10 Cd2 2.223 . S
O10 C9 1.315 1_655 S
O11 Cd1 2.240 . S
O11 C9 1.279 . S
O12 Cd2 2.297 1_556 S
O12 C7 1.247 1_655 S
O13 Cd2 2.439 1_456 S
O13 C7 1.208 . S
O14 Cd15 2.223 . S
O14 C22 1.315 . S
Cd15 O14 2.223 . S
Cd15 O18 2.297 . S
Cd15 O19 2.439 . S
Cd15 O25 2.240 . S
Cd16 O17 2.240 1_455 S
Cd16 O24 2.223 . S
Cd16 O26 2.297 1_554 S
Cd16 O27 2.439 1_454 S
O17 Cd16 2.240 1_655 S
O17 C22 1.279 . S
O18 Cd15 2.297 . S
O18 C20 1.247 . S
O19 Cd15 2.439 . S
O19 C20 1.208 . S
C20 O18 1.247 . S
C20 O19 1.208 . S
C21 O26 1.247 1_655 S
C21 O27 1.208 . S
C22 O14 1.315 . S
C22 O17 1.279 . S
C23 O24 1.315 1_655 S
C23 O25 1.279 . S
O24 Cd16 2.223 . S
O24 C23 1.315 1_455 S
O25 Cd15 2.240 . S
O25 C23 1.279 . S
O26 Cd16 2.297 1_556 S
O26 C21 1.247 1_455 S
O27 Cd16 2.439 1_656 S
O27 C21 1.208 . S
O28 Cd29 2.223 . S
O28 C36 1.315 . S
Cd29 O28 2.223 . S
Cd29 O32 2.297 . S
Cd29 O33 2.439 . S
Cd29 O39 2.240 . S
Cd30 O31 2.240 1_655 S
Cd30 O38 2.223 . S
Cd30 O40 2.297 . S
Cd30 O41 2.439 1_655 S
O31 Cd30 2.240 1_455 S
O31 C36 1.279 . S
O32 Cd29 2.297 . S
O32 C34 1.247 . S
O33 Cd29 2.439 . S
O33 C34 1.208 . S
C34 O32 1.247 . S
C34 O33 1.208 . S
C35 O40 1.247 1_455 S
C35 O41 1.208 . S
C36 O28 1.315 . S
C36 O31 1.279 . S
C37 O38 1.315 1_455 S
C37 O39 1.279 . S
O38 Cd30 2.223 . S
O38 C37 1.315 1_655 S
O39 Cd29 2.240 . S
O39 C37 1.279 . S
O40 Cd30 2.297 . S
O40 C35 1.247 1_655 S
O41 Cd30 2.439 1_455 S
O41 C35 1.208 . S
O42 Cd43 2.223 . S
O42 C50 1.315 . S
Cd43 O42 2.223 . S
Cd43 O46 2.297 . S
Cd43 O47 2.439 . S
Cd43 O53 2.240 . S
Cd44 O45 2.240 1_455 S
Cd44 O52 2.223 . S
Cd44 O54 2.297 . S
Cd44 O55 2.439 1_455 S
O45 Cd44 2.240 1_655 S
O45 C50 1.279 . S
O46 Cd43 2.297 . S
O46 C48 1.247 . S
O47 Cd43 2.439 . S
O47 C48 1.208 . S
C48 O46 1.247 . S
C48 O47 1.208 . S
C49 O54 1.247 1_655 S
C49 O55 1.208 . S
C50 O42 1.315 . S
C50 O45 1.279 . S
C51 O52 1.315 1_655 S
C51 O53 1.279 . S
O52 Cd44 2.223 . S
O52 C51 1.315 1_455 S
O53 Cd43 2.240 . S
O53 C51 1.279 . S
O54 Cd44 2.297 . S
O54 C49 1.247 1_455 S
O55 Cd44 2.439 1_655 S
O55 C49 1.208 . S
O56 Cd57 2.223 . S
O56 C64 1.315 . S
Cd57 O56 2.223 . S
Cd57 O60 2.297 . S
Cd57 O61 2.439 . S
Cd57 O67 2.240 . S
Cd58 O59 2.240 . S
Cd58 O66 2.223 . S
Cd58 O68 2.297 1_554 S
Cd58 O69 2.439 1_554 S
O59 Cd58 2.240 . S
O59 C64 1.279 . S
O60 Cd57 2.297 . S
O60 C62 1.247 . S
O61 Cd57 2.439 . S
O61 C62 1.208 . S
C62 O60 1.247 . S
C62 O61 1.208 . S
C63 O68 1.247 . S
C63 O69 1.208 . S
C64 O56 1.315 . S
C64 O59 1.279 . S
C65 O66 1.315 . S
C65 O67 1.279 . S
O66 Cd58 2.223 . S
O66 C65 1.315 . S
O67 Cd57 2.240 . S
O67 C65 1.279 . S
O68 Cd58 2.297 1_556 S
O68 C63 1.247 . S
O69 Cd58 2.439 1_556 S
O69 C63 1.208 . S
O70 Cd71 2.223 . S
O70 C78 1.315 . S
Cd71 O70 2.223 . S
Cd71 O74 2.297 . S
Cd71 O75 2.439 . S
Cd71 O81 2.240 . S
Cd72 O73 2.240 . S
Cd72 O80 2.223 . S
Cd72 O82 2.297 1_554 S
Cd72 O83 2.439 1_554 S
O73 Cd72 2.240 . S
O73 C78 1.279 . S
O74 Cd71 2.297 . S
O74 C76 1.247 . S
O75 Cd71 2.439 . S
O75 C76 1.208 . S
C76 O74 1.247 . S
C76 O75 1.208 . S
C77 O82 1.247 . S
C77 O83 1.208 . S
C78 O70 1.315 . S
C78 O73 1.279 . S
C79 O80 1.315 . S
C79 O81 1.279 . S
O80 Cd72 2.223 . S
O80 C79 1.315 . S
O81 Cd71 2.240 . S
O81 C79 1.279 . S
O82 Cd72 2.297 1_556 S
O82 C77 1.247 . S
O83 Cd72 2.439 1_556 S
O83 C77 1.208 . S
O84 Cd85 2.223 . S
O84 C92 1.315 . S
Cd85 O84 2.223 . S
Cd85 O88 2.297 . S
Cd85 O89 2.439 . S
Cd85 O95 2.240 . S
Cd86 O87 2.240 . S
Cd86 O94 2.223 . S
Cd86 O96 2.297 . S
Cd86 O97 2.439 . S
O87 Cd86 2.240 . S
O87 C92 1.279 . S
O88 Cd85 2.297 . S
O88 C90 1.247 . S
O89 Cd85 2.439 . S
O89 C90 1.208 . S
C90 O88 1.247 . S
C90 O89 1.208 . S
C91 O96 1.247 . S
C91 O97 1.208 . S
C92 O84 1.315 . S
C92 O87 1.279 . S
C93 O94 1.315 . S
C93 O95 1.279 . S
O94 Cd86 2.223 . S
O94 C93 1.315 . S
O95 Cd85 2.240 . S
O95 C93 1.279 . S
O96 Cd86 2.297 . S
O96 C91 1.247 . S
O97 Cd86 2.439 . S
O97 C91 1.208 . S
O98 Cd99 2.223 . S
O98 C106 1.315 . S
Cd99 O98 2.223 . S
Cd99 O102 2.297 . S
Cd99 O103 2.439 . S
Cd99 O109 2.240 . S
Cd100 O101 2.240 . S
Cd100 O108 2.223 . S
Cd100 O110 2.297 . S
Cd100 O111 2.439 . S
O101 Cd100 2.240 . S
O101 C106 1.279 . S
O102 Cd99 2.297 . S
O102 C104 1.247 . S
O103 Cd99 2.439 . S
O103 C104 1.208 . S
C104 O102 1.247 . S
C104 O103 1.208 . S
C105 O110 1.247 . S
C105 O111 1.208 . S
C106 O98 1.315 . S
C106 O101 1.279 . S
C107 O108 1.315 . S
C107 O109 1.279 . S
O108 Cd100 2.223 . S
O108 C107 1.315 . S
O109 Cd99 2.240 . S
O109 C107 1.279 . S
O110 Cd100 2.297 . S
O110 C105 1.247 . S
O111 Cd100 2.439 . S
O111 C105 1.208 . S
C112 C113 1.369 . S
C112 C114 1.419 1_565 S
C112 H116 0.930 . S
C113 C112 1.369 . S
C113 C122 1.429 1_655 S
C114 C112 1.419 1_545 S
C114 C115 1.363 1_655 S
C114 H117 0.929 . S
C115 C114 1.363 1_455 S
C115 C121 1.428 . S
H116 C112 0.930 . S
H117 C114 0.929 . S
S118 N119 1.613 . S
S118 N120 1.610 1_565 S
N119 S118 1.613 . S
N119 C122 1.350 . S
N120 S118 1.610 1_545 S
N120 C121 1.351 . S
C121 C115 1.428 . S
C121 N120 1.351 . S
C121 C122 1.434 1_545 S
C122 C113 1.429 1_455 S
C122 N119 1.350 . S
C122 C121 1.434 1_565 S
C123 C124 1.369 . S
C123 C125 1.419 1_565 S
C123 H127 0.930 . S
C124 C123 1.369 . S
C124 C133 1.429 1_455 S
C125 C123 1.419 1_545 S
C125 C126 1.363 1_455 S
C125 H128 0.929 . S
C126 C125 1.363 1_655 S
C126 C132 1.428 . S
H127 C123 0.930 . S
H128 C125 0.929 . S
S129 N130 1.613 . S
S129 N131 1.610 1_565 S
N130 S129 1.613 . S
N130 C133 1.350 . S
N131 S129 1.610 1_545 S
N131 C132 1.351 . S
C132 C126 1.428 . S
C132 N131 1.351 . S
C132 C133 1.434 1_545 S
C133 C124 1.429 1_655 S
C133 N130 1.350 . S
C133 C132 1.434 1_565 S
C134 C135 1.369 . S
C134 C136 1.419 . S
C134 H138 0.930 . S
C135 C134 1.369 . S
C135 C144 1.429 . S
C136 C134 1.419 . S
C136 C137 1.363 . S
C136 H139 0.929 . S
C137 C136 1.363 . S
C137 C143 1.428 . S
H138 C134 0.930 . S
H139 C136 0.929 . S
S140 N141 1.613 1_556 S
S140 N142 1.610 1_556 S
N141 S140 1.613 1_554 S
N141 C144 1.350 . S
N142 S140 1.610 1_554 S
N142 C143 1.351 . S
C143 C137 1.428 . S
C143 N142 1.351 . S
C143 C144 1.434 . S
C144 C135 1.429 . S
C144 N141 1.350 . S
C144 C143 1.434 . S
C145 C146 1.369 . S
C145 C147 1.419 . S
C145 H149 0.930 . S
C146 C145 1.369 . S
C146 C155 1.429 . S
C147 C145 1.419 . S
C147 C148 1.363 . S
C147 H150 0.929 . S
C148 C147 1.363 . S
C148 C154 1.428 . S
H149 C145 0.930 . S
H150 C147 0.929 . S
S151 N152 1.613 . S
S151 N153 1.610 . S
N152 S151 1.613 . S
N152 C155 1.350 . S
N153 S151 1.610 . S
N153 C154 1.351 . S
C154 C148 1.428 . S
C154 N153 1.351 . S
C154 C155 1.434 . S
C155 C146 1.429 . S
C155 N152 1.350 . S
C155 C154 1.434 . S
C156 C157 1.369 . S
C156 C158 1.419 . S
C156 H160 0.930 . S
C157 C156 1.369 . S
C157 C166 1.429 1_455 S
C158 C156 1.419 . S
C158 C159 1.363 1_455 S
C158 H161 0.929 . S
C159 C158 1.363 1_655 S
C159 C165 1.428 . S
H160 C156 0.930 . S
H161 C158 0.929 . S
S162 N163 1.613 . S
S162 N164 1.610 . S
N163 S162 1.613 . S
N163 C166 1.350 . S
N164 S162 1.610 . S
N164 C165 1.351 . S
C165 C159 1.428 . S
C165 N164 1.351 . S
C165 C166 1.434 . S
C166 C157 1.429 1_655 S
C166 N163 1.350 . S
C166 C165 1.434 . S
C167 C168 1.369 1_655 S
C167 C169 1.419 . S
C167 H171 0.930 . S
C168 C167 1.369 1_455 S
C168 C177 1.429 . S
C169 C167 1.419 . S
C169 C170 1.363 . S
C169 H172 0.929 . S
C170 C169 1.363 . S
C170 C176 1.428 1_655 S
H171 C167 0.930 . S
H172 C169 0.929 . S
S173 N174 1.613 . S
S173 N175 1.610 . S
N174 S173 1.613 . S
N174 C177 1.350 . S
N175 S173 1.610 . S
N175 C176 1.351 . S
C176 C170 1.428 1_455 S
C176 N175 1.351 . S
C176 C177 1.434 . S
C177 C168 1.429 . S
C177 N174 1.350 . S
C177 C176 1.434 . S
C178 C179 1.369 . S
C178 C180 1.419 . S
C178 H182 0.930 . S
C179 C178 1.369 . S
C179 C188 1.429 1_455 S
C180 C178 1.419 . S
C180 C181 1.363 1_455 S
C180 H183 0.929 . S
C181 C180 1.363 1_655 S
C181 C187 1.428 . S
H182 C178 0.930 . S
H183 C180 0.929 . S
S184 N185 1.613 . S
S184 N186 1.610 . S
N185 S184 1.613 . S
N185 C188 1.350 . S
N186 S184 1.610 . S
N186 C187 1.351 . S
C187 C181 1.428 . S
C187 N186 1.351 . S
C187 C188 1.434 . S
C188 C179 1.429 1_655 S
C188 N185 1.350 . S
C188 C187 1.434 . S
C189 C190 1.369 1_655 S
C189 C191 1.419 . S
C189 H193 0.930 . S
C190 C189 1.369 1_455 S
C190 C199 1.429 . S
C191 C189 1.419 . S
C191 C192 1.363 . S
C191 H194 0.929 . S
C192 C191 1.363 . S
C192 C198 1.428 1_655 S
H193 C189 0.930 . S
H194 C191 0.929 . S
S195 N196 1.613 . S
S195 N197 1.610 . S
N196 S195 1.613 . S
N196 C199 1.350 . S
N197 S195 1.610 . S
N197 C198 1.351 . S
C198 C192 1.428 1_455 S
C198 N197 1.351 . S
C198 C199 1.434 . S
C199 C190 1.429 . S
C199 N196 1.350 . S
C199 C198 1.434 . S
C200 C201 1.369 . S
C200 C202 1.419 . S
C200 H204 0.930 . S
C201 C200 1.369 . S
C201 C210 1.429 . S
C202 C200 1.419 . S
C202 C203 1.363 . S
C202 H205 0.929 . S
C203 C202 1.363 . S
C203 C209 1.428 . S
H204 C200 0.930 . S
H205 C202 0.929 . S
S206 N207 1.613 . S
S206 N208 1.610 . S
N207 S206 1.613 . S
N207 C210 1.350 . S
N208 S206 1.610 . S
N208 C209 1.351 . S
C209 C203 1.428 . S
C209 N208 1.351 . S
C209 C210 1.434 . S
C210 C201 1.429 . S
C210 N207 1.350 . S
C210 C209 1.434 . S
C211 C212 1.369 . S
C211 C213 1.419 . S
C211 H215 0.930 . S
C212 C211 1.369 . S
C212 C221 1.429 . S
C213 C211 1.419 . S
C213 C214 1.363 . S
C213 H216 0.929 . S
C214 C213 1.363 . S
C214 C220 1.428 . S
H215 C211 0.930 . S
H216 C213 0.929 . S
S217 N218 1.613 . S
S217 N219 1.610 . S
N218 S217 1.613 . S
N218 C221 1.350 . S
N219 S217 1.610 . S
N219 C220 1.351 . S
C220 C214 1.428 . S
C220 N219 1.351 . S
C220 C221 1.434 . S
C221 C212 1.429 . S
C221 N218 1.350 . S
C221 C220 1.434 . S
C222 C223 1.369 . S
C222 C224 1.419 . S
C222 H226 0.930 . S
C223 C222 1.369 . S
C223 C232 1.429 . S
C224 C222 1.419 . S
C224 C225 1.363 . S
C224 H227 0.929 . S
C225 C224 1.363 . S
C225 C231 1.428 . S
H226 C222 0.930 . S
H227 C224 0.929 . S
S228 N229 1.613 . S
S228 N230 1.610 . S
N229 S228 1.613 . S
N229 C232 1.350 . S
N230 S228 1.610 . S
N230 C231 1.351 . S
C231 C225 1.428 . S
C231 N230 1.351 . S
C231 C232 1.434 . S
C232 C223 1.429 . S
C232 N229 1.350 . S
C232 C231 1.434 . S
C233 C234 1.369 . S
C233 C235 1.419 . S
C233 H237 0.930 . S
C234 C233 1.369 . S
C234 C243 1.429 . S
C235 C233 1.419 . S
C235 C236 1.363 . S
C235 H238 0.929 . S
C236 C235 1.363 . S
C236 C242 1.428 . S
H237 C233 0.930 . S
H238 C235 0.929 . S
S239 N240 1.613 . S
S239 N241 1.610 . S
N240 S239 1.613 . S
N240 C243 1.350 . S
N241 S239 1.610 . S
N241 C242 1.351 . S
C242 C236 1.428 . S
C242 N241 1.351 . S
C242 C243 1.434 . S
C243 C234 1.429 . S
C243 N240 1.350 . S
C243 C242 1.434 . S
C244 C245 1.369 . S
C244 C246 1.419 . S
C244 H248 0.930 . S
C245 C244 1.369 . S
C245 C254 1.429 . S
C246 C244 1.419 . S
C246 C247 1.363 . S
C246 H249 0.929 . S
C247 C246 1.363 . S
C247 C253 1.428 . S
H248 C244 0.930 . S
H249 C246 0.929 . S
S250 N251 1.613 . S
S250 N252 1.610 . S
N251 S250 1.613 . S
N251 C254 1.350 . S
N252 S250 1.610 . S
N252 C253 1.351 . S
C253 C247 1.428 . S
C253 N252 1.351 . S
C253 C254 1.434 . S
C254 C245 1.429 . S
C254 N251 1.350 . S
C254 C253 1.434 . S
C255 C256 1.369 . S
C255 C257 1.419 . S
C255 H259 0.930 . S
C256 C255 1.369 . S
C256 C265 1.429 . S
C257 C255 1.419 . S
C257 C258 1.363 . S
C257 H260 0.929 . S
C258 C257 1.363 . S
C258 C264 1.428 . S
H259 C255 0.930 . S
H260 C257 0.929 . S
S261 N262 1.613 . S
S261 N263 1.610 . S
N262 S261 1.613 . S
N262 C265 1.350 1_556 S
N263 S261 1.610 . S
N263 C264 1.351 1_556 S
C264 C258 1.428 . S
C264 N263 1.351 1_554 S
C264 C265 1.434 . S
C265 C256 1.429 . S
C265 N262 1.350 1_554 S
C265 C264 1.434 . S
C266 C267 1.369 . S
C266 C268 1.419 . S
C266 H270 0.930 . S
C267 C266 1.369 . S
C267 C276 1.429 . S
C268 C266 1.419 . S
C268 C269 1.363 . S
C268 H271 0.929 . S
C269 C268 1.363 . S
C269 C275 1.428 . S
H270 C266 0.930 . S
H271 C268 0.929 . S
S272 N273 1.613 . S
S272 N274 1.610 . S
N273 S272 1.613 . S
N273 C276 1.350 . S
N274 S272 1.610 . S
N274 C275 1.351 . S
C275 C269 1.428 . S
C275 N274 1.351 . S
C275 C276 1.434 . S
C276 C267 1.429 . S
C276 N273 1.350 . S
C276 C275 1.434 . S
C277 C278 1.369 . S
C277 C279 1.419 . S
C277 H281 0.930 . S
C278 C277 1.369 . S
C278 C287 1.429 . S
C279 C277 1.419 . S
C279 C280 1.363 . S
C279 H282 0.929 . S
C280 C279 1.363 . S
C280 C286 1.428 . S
H281 C277 0.930 . S
H282 C279 0.929 . S
S283 N284 1.613 . S
S283 N285 1.610 . S
N284 S283 1.613 . S
N284 C287 1.350 . S
N285 S283 1.610 . S
N285 C286 1.351 . S
C286 C280 1.428 . S
C286 N285 1.351 . S
C286 C287 1.434 . S
C287 C278 1.429 . S
C287 N284 1.350 . S
C287 C286 1.434 . S
C113 C23 1.487 . S
C115 C9 1.489 . S
C124 C37 1.483 . S
C126 C51 1.488 . S
C135 C65 1.487 . S
C137 C79 1.484 . S
C146 C93 1.483 . S
C148 C107 1.488 . S
C157 C8 1.342 . S
C159 C50 1.338 . S
C168 C36 1.337 . S
C170 C22 1.344 . S
C179 C35 1.515 . S
C181 C21 1.515 . S
C190 C7 1.516 . S
C192 C49 1.516 . S
C201 C64 1.339 . S
C203 C106 1.341 . S
C212 C92 1.337 . S
C214 C78 1.345 . S
C223 C77 1.516 . S
C225 C91 1.516 . S
C234 C63 1.516 . S
C236 C105 1.516 . S
C245 C76 1.516 . S
C247 C6 1.522 . S
C256 C62 1.521 . S
C258 C20 1.519 . S
C267 C34 1.518 . S
C269 C104 1.521 . S
C278 C90 1.522 . S
C280 C48 1.518 . S
