# Generated by pormake.
# Topology neb, (4)-cn, num edge types: 1
# Building blocks:
#     Node 0, Type 0, BuildingBlock: QUQFOY_clean_sbu_1, # of connection points: 4
#     Node 1, Type 0, BuildingBlock: QUQFOY_clean_sbu_1, # of connection points: 4
#     Node 2, Type 0, BuildingBlock: QUQFOY_clean_sbu_1, # of connection points: 4
#     Node 3, Type 0, BuildingBlock: QUQFOY_clean_sbu_1, # of connection points: 4
#     Node 4, Type 0, BuildingBlock: QUQFOY_clean_sbu_1, # of connection points: 4
#     Node 5, Type 0, BuildingBlock: QUQFOY_clean_sbu_1, # of connection points: 4
#     Node 6, Type 0, BuildingBlock: QUQFOY_clean_sbu_1, # of connection points: 4
#     Node 7, Type 0, BuildingBlock: QUQFOY_clean_sbu_1, # of connection points: 4
#     Node 8, Type 0, BuildingBlock: QUQFOY_clean_sbu_1, # of connection points: 4
#     Node 9, Type 0, BuildingBlock: QUQFOY_clean_sbu_1, # of connection points: 4
#     Node 10, Type 0, BuildingBlock: QUQFOY_clean_sbu_1, # of connection points: 4
#     Node 11, Type 0, BuildingBlock: QUQFOY_clean_sbu_1, # of connection points: 4
#     Node 12, Type 0, BuildingBlock: QUQFOY_clean_sbu_1, # of connection points: 4
#     Node 13, Type 0, BuildingBlock: QUQFOY_clean_sbu_1, # of connection points: 4
#     Node 14, Type 0, BuildingBlock: QUQFOY_clean_sbu_1, # of connection points: 4
#     Node 15, Type 0, BuildingBlock: QUQFOY_clean_sbu_1, # of connection points: 4
#     Edge 16, Type (0, 0), BuildingBlock: AJUNOK_clean_linker_0, # of connection points: 2
#     Edge 17, Type (0, 0), BuildingBlock: AJUNOK_clean_linker_0, # of connection points: 2
#     Edge 18, Type (0, 0), BuildingBlock: AJUNOK_clean_linker_0, # of connection points: 2
#     Edge 19, Type (0, 0), BuildingBlock: AJUNOK_clean_linker_0, # of connection points: 2
#     Edge 20, Type (0, 0), BuildingBlock: AJUNOK_clean_linker_0, # of connection points: 2
#     Edge 21, Type (0, 0), BuildingBlock: AJUNOK_clean_linker_0, # of connection points: 2
#     Edge 22, Type (0, 0), BuildingBlock: AJUNOK_clean_linker_0, # of connection points: 2
#     Edge 23, Type (0, 0), BuildingBlock: AJUNOK_clean_linker_0, # of connection points: 2
#     Edge 24, Type (0, 0), BuildingBlock: AJUNOK_clean_linker_0, # of connection points: 2
#     Edge 25, Type (0, 0), BuildingBlock: AJUNOK_clean_linker_0, # of connection points: 2
#     Edge 26, Type (0, 0), BuildingBlock: AJUNOK_clean_linker_0, # of connection points: 2
#     Edge 27, Type (0, 0), BuildingBlock: AJUNOK_clean_linker_0, # of connection points: 2
#     Edge 28, Type (0, 0), BuildingBlock: AJUNOK_clean_linker_0, # of connection points: 2
#     Edge 29, Type (0, 0), BuildingBlock: AJUNOK_clean_linker_0, # of connection points: 2
#     Edge 30, Type (0, 0), BuildingBlock: AJUNOK_clean_linker_0, # of connection points: 2
#     Edge 31, Type (0, 0), BuildingBlock: AJUNOK_clean_linker_0, # of connection points: 2
#     Edge 32, Type (0, 0), BuildingBlock: AJUNOK_clean_linker_0, # of connection points: 2
#     Edge 33, Type (0, 0), BuildingBlock: AJUNOK_clean_linker_0, # of connection points: 2
#     Edge 34, Type (0, 0), BuildingBlock: AJUNOK_clean_linker_0, # of connection points: 2
#     Edge 35, Type (0, 0), BuildingBlock: AJUNOK_clean_linker_0, # of connection points: 2
#     Edge 36, Type (0, 0), BuildingBlock: AJUNOK_clean_linker_0, # of connection points: 2
#     Edge 37, Type (0, 0), BuildingBlock: AJUNOK_clean_linker_0, # of connection points: 2
#     Edge 38, Type (0, 0), BuildingBlock: AJUNOK_clean_linker_0, # of connection points: 2
#     Edge 39, Type (0, 0), BuildingBlock: AJUNOK_clean_linker_0, # of connection points: 2
#     Edge 40, Type (0, 0), BuildingBlock: AJUNOK_clean_linker_0, # of connection points: 2
#     Edge 41, Type (0, 0), BuildingBlock: AJUNOK_clean_linker_0, # of connection points: 2
#     Edge 42, Type (0, 0), BuildingBlock: AJUNOK_clean_linker_0, # of connection points: 2
#     Edge 43, Type (0, 0), BuildingBlock: AJUNOK_clean_linker_0, # of connection points: 2
#     Edge 44, Type (0, 0), BuildingBlock: AJUNOK_clean_linker_0, # of connection points: 2
#     Edge 45, Type (0, 0), BuildingBlock: AJUNOK_clean_linker_0, # of connection points: 2
#     Edge 46, Type (0, 0), BuildingBlock: AJUNOK_clean_linker_0, # of connection points: 2
#     Edge 47, Type (0, 0), BuildingBlock: AJUNOK_clean_linker_0, # of connection points: 2
# Relax obj value: 0.022
# Max RMSD: 0.099
# Mean RMSD: 0.099
data_MOF--net-neb--node1-QUQFOY_clean_sbu_1--edge1-AJUNOK_clean_linker_0
_symmetry_space_group_name_H-M    P1
_symmetry_Int_Tables_number       1
_symmetry_cell_setting            triclinic
loop_
_symmetry_equiv_pos_as_xyz
'x, y, z'
_cell_length_a     36.489534
_cell_length_b     17.336886
_cell_length_c     56.28281
_cell_angle_alpha  89.995543
_cell_angle_beta   89.964988
_cell_angle_gamma 90.570943
loop_
_atom_site_label
_atom_site_type_symbol
_atom_site_fract_x
_atom_site_fract_y
_atom_site_fract_z
_atom_type_partial_charge
O0 O 0.14947 -0.02903 0.4449 0.0
Cd1 Cd 0.13119 0.06536 0.46322 0.0
Cd2 Cd 0.20458 0.09319 0.4609 0.0
O3 O 0.20956 -0.01701 0.44765 0.0
O4 O 0.08049 0.03251 0.47231 0.0
O5 O 0.12405 0.05585 0.4986 0.0
C6 C 0.09102 0.03245 0.49415 0.0
C7 C 0.24084 0.14235 0.49176 0.0
C8 C 0.1814 0.94548 0.44084 0.0
C9 C 0.15344 0.19383 0.43221 0.0
O10 O 0.18576 0.17129 0.43659 0.0
O11 O 0.12617 0.16484 0.44323 0.0
O12 O 0.25398 0.1322 0.47071 0.0
O13 O 0.20718 0.12165 0.49548 0.0
O14 O 0.18423 -0.00263 0.86546 0.0
Cd15 Cd 0.20082 0.08207 0.84234 0.0
Cd16 Cd 0.12728 0.09906 0.84181 0.0
O17 O 0.12461 -0.00559 0.85931 0.0
O18 O 0.25134 0.05097 0.83281 0.0
O19 O 0.20515 0.05672 0.80756 0.0
C20 C 0.23899 0.0397 0.81161 0.0
C21 C 0.08809 0.13518 0.81091 0.0
C22 C 0.15286 -0.03224 0.86953 0.0
C23 C 0.1749 0.22023 0.86642 0.0
O24 O 0.14364 0.1896 0.86278 0.0
O25 O 0.20344 0.19069 0.85735 0.0
O26 O 0.07643 0.12783 0.83243 0.0
O27 O 0.12175 0.11712 0.80667 0.0
O28 O 0.92991 0.94972 0.61313 0.0
Cd29 Cd 0.95089 0.85883 0.59456 0.0
Cd30 Cd 0.87457 0.82691 0.59439 0.0
O31 O 0.86986 0.93349 0.61041 0.0
O32 O 1.00203 0.89478 0.58788 0.0
O33 O 0.96113 0.87396 0.55969 0.0
C34 C 0.99351 0.89775 0.5657 0.0
C35 C 0.83343 0.78234 0.56538 0.0
C36 C 0.89756 -0.02765 0.61733 0.0
C37 C 0.92684 0.71925 0.62061 0.0
O38 O 0.89471 0.74114 0.61543 0.0
O39 O 0.95477 0.75564 0.6128 0.0
O40 O 0.8238 0.78944 0.58729 0.0
O41 O 0.86617 0.80471 0.55966 0.0
O42 O 0.89259 0.92557 0.19067 0.0
Cd43 Cd 0.87392 0.84294 0.21386 0.0
Cd44 Cd 0.94833 0.82173 0.21563 0.0
O45 O 0.9522 0.92455 0.19709 0.0
O46 O 0.82285 0.87599 0.22132 0.0
O47 O 0.86657 0.87062 0.24832 0.0
C48 C 0.83323 0.88803 0.2429 0.0
C49 C 0.98774 0.78732 0.24667 0.0
C50 C 0.92449 0.95259 0.18661 0.0
C51 C 0.89955 0.70069 0.19161 0.0
O52 O 0.93112 0.72921 0.19572 0.0
O53 O 0.87099 0.7336 0.19943 0.0
O54 O 0.99909 0.79188 0.22502 0.0
O55 O 0.95432 0.80719 0.25092 0.0
O56 O 0.14288 0.49518 0.94089 0.0
Cd57 Cd 0.12647 0.58052 0.96357 0.0
Cd58 Cd 0.20098 0.60261 0.96312 0.0
O59 O 0.20289 0.49832 0.94537 0.0
O60 O 0.07608 0.5476 0.97349 0.0
O61 O 0.12247 0.55717 0.99851 0.0
C62 C 0.08861 0.53837 0.99471 0.0
C63 C 0.24308 0.64019 0.99248 0.0
C64 C 0.17433 0.4683 0.93614 0.0
C65 C 0.15155 0.72071 0.93928 0.0
O66 O 0.18316 0.69305 0.94292 0.0
O67 O 0.12325 0.68815 0.94805 0.0
O68 O 0.25261 0.63366 0.97054 0.0
O69 O 0.20989 0.62056 0.99803 0.0
O70 O 0.17799 0.47028 0.3609 0.0
Cd71 Cd 0.19689 0.56493 0.3427 0.0
Cd72 Cd 0.12213 0.5914 0.34579 0.0
O73 O 0.11779 0.48039 0.35876 0.0
O74 O 0.24766 0.53247 0.33431 0.0
O75 O 0.20486 0.55332 0.30747 0.0
C76 C 0.23758 0.53038 0.31239 0.0
C77 C 0.08224 0.64198 0.31724 0.0
C78 C 0.1461 0.44336 0.36495 0.0
C79 C 0.1751 0.69428 0.37341 0.0
O80 O 0.14268 0.66989 0.3696 0.0
O81 O 0.20208 0.66543 0.36233 0.0
O82 O 0.0717 0.62902 0.33875 0.0
O83 O 0.11527 0.62272 0.31161 0.0
O84 O 0.93541 0.42671 0.11825 0.0
Cd85 Cd 0.95388 0.3445 0.09514 0.0
Cd86 Cd 0.87878 0.31935 0.09394 0.0
O87 O 0.87564 0.42217 0.11247 0.0
O88 O 1.00488 0.37971 0.0875 0.0
O89 O 0.96103 0.37192 0.06061 0.0
C90 C 0.99439 0.39086 0.06592 0.0
C91 C 0.83624 0.28238 0.06469 0.0
C92 C 0.90353 0.45203 0.12258 0.0
C93 C 0.9287 0.20093 0.11752 0.0
O94 O 0.89701 0.22769 0.11349 0.0
O95 O 0.95713 0.23552 0.10972 0.0
O96 O 0.8272 0.28721 0.08675 0.0
O97 O 0.86918 0.30329 0.05896 0.0
O98 O 0.89622 0.43709 0.6924 0.0
Cd99 Cd 0.8788 0.34952 0.71421 0.0
Cd100 Cd 0.9523 0.32948 0.71243 0.0
O101 O 0.95594 0.43891 0.69814 0.0
O102 O 0.82821 0.38245 0.7229 0.0
O103 O 0.87272 0.37101 0.74915 0.0
C104 C 0.83945 0.39086 0.74445 0.0
C105 C 0.99296 0.28165 0.74097 0.0
C106 C 0.92752 0.46746 0.68866 0.0
C107 C 0.90136 0.22007 0.68542 0.0
O108 O 0.93309 0.24883 0.68876 0.0
O109 O 0.87402 0.24464 0.69708 0.0
O110 O 1.00317 0.29442 0.71939 0.0
O111 O 0.95985 0.29997 0.7467 0.0
O112 O 0.64424 -0.00889 0.94142 0.0
Cd113 Cd 0.62661 0.07871 0.96276 0.0
Cd114 Cd 0.70102 0.10094 0.96284 0.0
O115 O 0.70414 -0.00534 0.94641 0.0
O116 O 0.57526 0.04594 0.97017 0.0
O117 O 0.61829 0.0566 0.99752 0.0
C118 C 0.58511 0.03702 0.99196 0.0
C119 C 0.7397 0.14143 0.99369 0.0
C120 C 0.67573 -0.03657 0.93738 0.0
C121 C 0.65239 0.21588 0.93708 0.0
O122 O 0.6839 0.18836 0.9412 0.0
O123 O 0.62399 0.18484 0.94621 0.0
O124 O 0.75161 0.13377 0.97225 0.0
O125 O 0.70606 0.12167 0.99786 0.0
O126 O 0.68479 0.00737 0.36818 0.0
Cd127 Cd 0.70263 0.08646 0.34361 0.0
Cd128 Cd 0.62887 0.10816 0.3421 0.0
O129 O 0.62511 0.00763 0.36182 0.0
O130 O 0.75252 0.05116 0.33411 0.0
O131 O 0.70587 0.05627 0.30918 0.0
C132 C 0.73964 0.03835 0.31312 0.0
C133 C 0.58872 0.14 0.31123 0.0
C134 C 0.65285 -0.01843 0.37276 0.0
C135 C 0.67833 0.23151 0.36434 0.0
O136 O 0.6466 0.20292 0.3608 0.0
O137 O 0.70665 0.19727 0.35674 0.0
O138 O 0.57795 0.13755 0.33303 0.0
O139 O 0.62193 0.11919 0.30677 0.0
O140 O 0.43094 0.95268 0.11228 0.0
Cd141 Cd 0.44957 0.85911 0.09385 0.0
Cd142 Cd 0.37539 0.83245 0.09419 0.0
O143 O 0.37087 0.94152 0.10847 0.0
O144 O 0.5003 0.89167 0.08475 0.0
O145 O 0.45626 0.87079 0.05857 0.0
C146 C 0.48938 0.89371 0.06298 0.0
C147 C 0.33799 0.7859 0.06348 0.0
C148 C 0.39893 -0.02153 0.11575 0.0
C149 C 0.42504 0.72655 0.12257 0.0
O150 O 0.39318 0.75048 0.11751 0.0
O151 O 0.45315 0.75779 0.11312 0.0
O152 O 0.32544 0.79583 0.08467 0.0
O153 O 0.37163 0.80609 0.05946 0.0
O154 O 0.39356 0.93298 0.68983 0.0
Cd155 Cd 0.37531 0.8488 0.71268 0.0
Cd156 Cd 0.44891 0.83085 0.71334 0.0
O157 O 0.45286 0.93786 0.69734 0.0
O158 O 0.32405 0.88127 0.7199 0.0
O159 O 0.36719 0.87453 0.74723 0.0
C160 C 0.33399 0.89238 0.74161 0.0
C161 C 0.48757 0.78777 0.74373 0.0
C162 C 0.42501 -0.03703 0.68632 0.0
C163 C 0.4006 0.71614 0.68632 0.0
O164 O 0.43187 0.74626 0.69029 0.0
O165 O 0.37229 0.74144 0.69681 0.0
O166 O 0.49942 0.79814 0.72238 0.0
O167 O 0.454 0.80617 0.74814 0.0
O168 O 0.64161 0.50511 0.437 0.0
Cd169 Cd 0.6235 0.58533 0.46087 0.0
Cd170 Cd 0.69738 0.61159 0.46274 0.0
O171 O 0.70133 0.51146 0.44291 0.0
O172 O 0.57385 0.54819 0.47089 0.0
O173 O 0.62078 0.55788 0.49554 0.0
C174 C 0.587 0.53793 0.49192 0.0
C175 C 0.73743 0.64351 0.49378 0.0
C176 C 0.67373 0.48142 0.43252 0.0
C177 C 0.64771 0.73287 0.44076 0.0
O178 O 0.67954 0.7067 0.44464 0.0
O179 O 0.61935 0.69542 0.44731 0.0
O180 O 0.74822 0.64293 0.47197 0.0
O181 O 0.70424 0.62093 0.49812 0.0
O182 O 0.68315 0.49471 0.86354 0.0
Cd183 Cd 0.70055 0.58165 0.84156 0.0
Cd184 Cd 0.62567 0.59889 0.84178 0.0
O185 O 0.62344 0.49169 0.8578 0.0
O186 O 0.75218 0.55126 0.83478 0.0
O187 O 0.70969 0.55737 0.80702 0.0
C188 C 0.74282 0.54014 0.81298 0.0
C189 C 0.5837 0.6403 0.81298 0.0
C190 C 0.65196 0.46408 0.86743 0.0
C191 C 0.67464 0.71579 0.86765 0.0
O192 O 0.64335 0.68543 0.86388 0.0
O193 O 0.70299 0.6884 0.85773 0.0
O194 O 0.57409 0.62937 0.83476 0.0
O195 O 0.61693 0.62319 0.80719 0.0
O196 O 0.43227 0.44473 0.61337 0.0
Cd197 Cd 0.45229 0.35485 0.59387 0.0
Cd198 Cd 0.37573 0.32411 0.59368 0.0
O199 O 0.37215 0.42876 0.61115 0.0
O200 O 0.50338 0.38936 0.58619 0.0
O201 O 0.46077 0.37181 0.55886 0.0
C202 C 0.49371 0.39381 0.56422 0.0
C203 C 0.33424 0.28574 0.56403 0.0
C204 C 0.40003 0.46696 0.61815 0.0
C205 C 0.42775 0.21164 0.61804 0.0
O206 O 0.39558 0.2339 0.61311 0.0
O207 O 0.45573 0.24997 0.61124 0.0
O208 O 0.32462 0.28985 0.58602 0.0
O209 O 0.36718 0.30767 0.55866 0.0
O210 O 0.39656 0.44504 0.19451 0.0
Cd211 Cd 0.37846 0.3528 0.21413 0.0
Cd212 Cd 0.45309 0.33291 0.21237 0.0
O213 O 0.45647 0.44389 0.19926 0.0
O214 O 0.32684 0.38365 0.22072 0.0
O215 O 0.36799 0.36945 0.24898 0.0
C216 C 0.33535 0.38967 0.24283 0.0
C217 C 0.49326 0.28346 0.24092 0.0
C218 C 0.42789 0.47551 0.19101 0.0
C219 C 0.40272 0.22631 0.18393 0.0
O220 O 0.43444 0.25405 0.188 0.0
O221 O 0.37502 0.25067 0.19529 0.0
O222 O 0.5039 0.29791 0.21952 0.0
O223 O 0.45996 0.30088 0.24647 0.0
C224 C 0.32142 0.24191 0.52237 0.0
C225 C 0.30908 0.25231 0.54582 0.0
C226 C 0.29925 0.20604 0.50518 0.0
C227 C 0.26368 0.179 0.51064 0.0
H228 H 0.34867 0.26079 0.51721 0.0
H229 H 0.31025 0.1995 0.48742 0.0
S230 S 0.21782 0.193 0.56939 0.0
N231 N 0.25849 0.23324 0.57355 0.0
N232 N 0.21695 0.1661 0.54126 0.0
C233 C 0.25078 0.18962 0.53398 0.0
C234 C 0.2734 0.22617 0.55153 0.0
C235 C 1.00893 0.93591 0.52389 0.0
C236 C 1.01931 0.93139 0.54791 0.0
C237 C 1.03198 -0.02993 0.50686 0.0
C238 C 0.06648 0.00131 0.51306 0.0
H239 H 0.98269 0.91301 0.5181 0.0
H240 H 1.02267 -0.02875 0.4886 0.0
S241 S 0.10659 0.00581 0.57366 0.0
N242 N 0.06649 0.96235 0.57711 0.0
N243 N 0.1097 0.02631 0.54509 0.0
C244 C 0.07718 -0.00228 0.53704 0.0
C245 C 0.05368 -0.03718 0.55444 0.0
C246 C 0.32095 0.94387 0.78238 0.0
C247 C 0.30876 0.92841 0.75914 0.0
C248 C 0.29842 -0.01911 0.79898 0.0
C249 C 0.26265 0.00415 0.7931 0.0
H250 H 0.34825 0.92762 0.78787 0.0
H251 H 0.30922 -0.00916 0.81665 0.0
S252 S 0.21738 -0.02215 0.73454 0.0
N253 N 0.25832 0.93981 0.73106 0.0
N254 N 0.21614 0.00914 0.76222 0.0
C255 C 0.25006 -0.01078 0.7699 0.0
C256 C 0.27302 0.95143 0.75297 0.0
C257 C 1.02864 0.19378 0.79836 0.0
C258 C 0.06406 0.16871 0.79228 0.0
C259 C 1.0061 0.23062 0.78176 0.0
C260 C 1.01793 0.24415 0.75832 0.0
H261 H 1.01822 0.18579 0.81622 0.0
H262 H 0.97916 0.24874 0.78745 0.0
S263 S 0.10797 0.18794 0.73301 0.0
N264 N 0.10962 0.15878 0.7609 0.0
N265 N 0.0674 0.22781 0.72972 0.0
C266 C 0.05318 0.21866 0.75188 0.0
C267 C 0.07615 0.181 0.76882 0.0
C268 C 0.81916 0.74071 0.5237 0.0
C269 C 0.80828 0.74653 0.54761 0.0
C270 C 0.79644 0.70568 0.50666 0.0
C271 C 0.76181 0.67477 0.51274 0.0
H272 H 0.84545 0.7636 0.518 0.0
H273 H 0.80606 0.70379 0.48846 0.0
S274 S 0.72069 0.67253 0.5731 0.0
N275 N 0.76066 0.71642 0.57663 0.0
N276 N 0.71811 0.65079 0.5446 0.0
C277 C 0.75072 0.67924 0.53665 0.0
C278 C 0.77386 0.71507 0.55404 0.0
C279 C 0.79866 -0.02196 0.30031 0.0
C280 C 0.76278 0.00112 0.29464 0.0
C281 C 0.82089 0.94056 0.28365 0.0
C282 C 0.80828 0.92442 0.26054 0.0
H283 H 0.80981 -0.01128 0.31785 0.0
H284 H 0.84831 0.92459 0.28896 0.0
S285 S 0.71637 -0.02739 0.23655 0.0
N286 N 0.71564 0.00483 0.26414 0.0
N287 N 0.75727 0.9346 0.23285 0.0
C288 C 0.77239 0.947 0.2546 0.0
C289 C 0.74973 -0.01473 0.27161 0.0
C290 C 0.04701 0.72838 0.25949 0.0
C291 C 1.01177 0.75472 0.26548 0.0
C292 C 0.06942 0.69195 0.27625 0.0
C293 C 0.05761 0.68007 0.29979 0.0
H294 H 0.05736 0.73491 0.24155 0.0
H295 H 0.09618 0.6726 0.27061 0.0
S296 S 0.96815 0.74059 0.32497 0.0
N297 N 0.96651 0.76802 0.29692 0.0
N298 N 1.00847 0.69978 0.3284 0.0
C299 C 1.02261 0.70711 0.30616 0.0
C300 C 0.99978 0.74437 0.28905 0.0
C301 C 0.27905 0.72316 0.05065 0.0
C302 C 0.31466 0.74925 0.04486 0.0
C303 C 0.25655 0.68648 0.03381 0.0
C304 C 0.2686 0.67423 1.01037 0.0
H305 H 0.2683 0.73097 0.06842 0.0
H306 H 0.2293 0.66837 0.03921 0.0
S307 S 0.35975 0.7307 0.98599 0.0
N308 N 0.36104 0.75947 1.01393 0.0
N309 N 0.3189 0.69076 0.98228 0.0
C310 C 0.30429 0.69951 1.00433 0.0
C311 C 0.32722 0.73695 1.02153 0.0
C312 C 1.0291 0.47896 1.00804 0.0
C313 C 0.06511 0.50314 1.01354 0.0
C314 C 1.00673 0.44204 1.02494 0.0
C315 C 1.01931 0.42756 0.04813 0.0
H316 H 1.01801 0.48806 0.99043 0.0
H317 H 0.97926 0.42493 1.01972 0.0
S318 S 0.11137 0.47988 0.07182 0.0
N319 N 0.11222 0.51025 0.04403 0.0
N320 N 0.07033 0.44109 0.07576 0.0
C321 C 0.05525 0.45166 0.05394 0.0
C322 C 0.07806 0.48937 0.0367 0.0
C323 C 0.32001 0.43385 0.28406 0.0
C324 C 0.30938 0.42379 0.26023 0.0
C325 C 0.29693 0.46972 0.30056 0.0
C326 C 0.26216 0.49728 0.29398 0.0
H327 H 0.34653 0.41425 0.29008 0.0
H328 H 0.30647 0.47535 0.3187 0.0
S329 S 0.22107 0.48565 0.23374 0.0
N330 N 0.26147 0.44473 0.23086 0.0
N331 N 0.21826 0.512 0.26185 0.0
C332 C 0.25115 0.48781 0.2702 0.0
C333 C 0.27465 0.45108 0.25337 0.0
C334 C 0.79932 0.20137 1.00648 0.0
C335 C 0.76365 0.17594 1.01238 0.0
C336 C 0.82219 0.23708 1.02332 0.0
C337 C 0.81046 0.24896 0.04685 0.0
H338 H 0.80981 0.19397 0.98863 0.0
H339 H 0.84945 0.25483 1.01784 0.0
S340 S 0.71933 0.1938 0.07151 0.0
N341 N 0.71758 0.1658 0.04351 0.0
N342 N 0.76042 0.23267 0.07513 0.0
C343 C 0.77475 0.22413 0.053 0.0
C344 C 0.75144 0.18769 0.03582 0.0
C345 C 0.75684 0.48765 0.7725 0.0
C346 C 0.76852 0.50406 0.79579 0.0
C347 C 0.77973 0.44993 0.75628 0.0
C348 C 0.81534 0.42681 0.76261 0.0
H349 H 0.72966 0.50359 0.76669 0.0
H350 H 0.76933 0.43921 0.73856 0.0
S351 S 0.8594 0.45609 0.82142 0.0
N352 N 0.81837 0.49414 0.82437 0.0
N353 N 0.86122 0.42342 0.79392 0.0
C354 C 0.82743 0.44279 0.78585 0.0
C355 C 0.80412 0.48138 0.80239 0.0
C356 C 0.57141 -0.00911 0.03329 0.0
C357 C 0.55982 0.00127 1.00968 0.0
C358 C 0.54877 0.95458 0.05015 0.0
C359 C 0.51352 0.92683 0.04417 0.0
H360 H 0.59827 0.01087 0.03889 0.0
H361 H 0.559 0.94891 0.06812 0.0
S362 S 0.47011 0.93823 0.98463 0.0
N363 N 0.51064 -0.02023 0.9811 0.0
N364 N 0.46826 0.91165 1.01276 0.0
C365 C 0.50163 0.93626 1.02057 0.0
C366 C 0.52467 -0.02653 1.00338 0.0
C367 C 0.50656 0.23419 0.2819 0.0
C368 C 0.51809 0.24566 0.25829 0.0
C369 C 0.52919 0.19814 0.29861 0.0
C370 C 0.56436 0.1717 0.29247 0.0
H371 H 0.47988 0.2537 0.28765 0.0
H372 H 0.51909 0.19203 0.31662 0.0
S373 S 0.60715 0.18435 0.2327 0.0
N374 N 0.5668 0.22519 0.22942 0.0
N375 N 0.60918 0.15756 0.2608 0.0
C376 C 0.57602 0.18145 0.26881 0.0
C377 C 0.55299 0.21842 0.25177 0.0
C378 C 0.54724 0.72913 0.75593 0.0
C379 C 0.51146 0.75181 0.76203 0.0
C380 C 0.57004 0.69201 0.77233 0.0
C381 C 0.55811 0.67581 0.79559 0.0
H382 H 0.55787 0.73977 0.73824 0.0
H383 H 0.59737 0.6764 0.76669 0.0
S384 S 0.46671 0.72283 0.82067 0.0
N385 N 0.46515 0.75499 0.7931 0.0
N386 N 0.50782 0.68543 0.82389 0.0
C387 C 0.52232 0.69801 0.80196 0.0
C388 C 0.4991 0.73594 0.78523 0.0
C389 C 0.50632 0.43886 0.52263 0.0
C390 C 0.51879 0.42768 0.54602 0.0
C391 C 0.52845 0.475 0.50545 0.0
C392 C 0.56412 0.50154 0.51085 0.0
H393 H 0.479 0.42032 0.51752 0.0
H394 H 0.51736 0.48204 0.48775 0.0
S395 S 0.6103 0.48566 0.5694 0.0
N396 N 0.56958 0.44566 0.57361 0.0
N397 N 0.61105 0.5133 0.54134 0.0
C398 C 0.57712 0.49027 0.53412 0.0
C399 C 0.55455 0.45345 0.55166 0.0
C400 C 0.15248 0.76478 0.40876 0.0
C401 C 0.18047 0.75405 0.39191 0.0
C402 C 0.15444 0.82384 0.4255 0.0
C403 C 0.18447 0.87509 0.4262 0.0
H404 H 0.12825 0.72811 0.4088 0.0
H405 H 0.13151 0.83094 0.43753 0.0
S406 S 0.26658 0.86869 0.38735 0.0
N407 N 0.24051 0.7964 0.37798 0.0
N408 N 0.2441 0.90872 0.40958 0.0
C409 C 0.21373 0.86283 0.41037 0.0
C410 C 0.21174 0.80206 0.39318 0.0
C411 C 0.11925 0.30427 0.41395 0.0
C412 C 0.14819 0.25125 0.41314 0.0
C413 C 0.11683 0.36392 0.39709 0.0
C414 C 0.14318 0.3717 0.37894 0.0
H415 H 0.09948 0.30196 0.4283 0.0
H416 H 0.0956 0.40663 0.39912 0.0
S417 S 0.2197 0.23867 0.36634 0.0
N418 N 0.20041 0.20396 0.39067 0.0
N419 N 0.19579 0.31557 0.35922 0.0
C420 C 0.17039 0.31546 0.37692 0.0
C421 C 0.17293 0.25533 0.39398 0.0
C422 C 0.14425 0.32009 0.89073 0.0
C423 C 0.17713 0.28679 0.88294 0.0
C424 C 0.14401 0.37741 0.90805 0.0
C425 C 0.17666 0.40502 0.91844 0.0
H426 H 0.11807 0.30118 0.88364 0.0
H427 H 0.11764 0.40015 0.91326 0.0
S428 S 0.27059 0.3393 0.90385 0.0
N429 N 0.24359 0.28662 0.88661 0.0
N430 N 0.2432 0.39598 0.91919 0.0
C431 C 0.21001 0.37347 0.9106 0.0
C432 C 0.21022 0.31427 0.89283 0.0
C433 C 0.18067 0.83155 0.91859 0.0
C434 C 0.14878 0.78795 0.92319 0.0
C435 C 0.18131 0.88884 0.90126 0.0
C436 C 0.15005 0.90581 0.88765 0.0
H437 H 0.20582 0.82051 0.92818 0.0
H438 H 0.2069 0.91982 0.89852 0.0
S439 S 0.05883 0.81085 0.8934 0.0
N440 N 0.08454 0.76697 0.9133 0.0
N441 N 0.08561 0.87613 0.88063 0.0
C442 C 0.11748 0.86441 0.8925 0.0
C443 C 0.11685 0.80535 0.9103 0.0
C444 C 0.86968 0.10384 0.66777 0.0
C445 C 0.89675 0.16207 0.66639 0.0
C446 C 0.86808 0.04452 0.65072 0.0
C447 C 0.89339 0.04233 0.63186 0.0
H448 H 0.85082 0.10209 0.68263 0.0
H449 H 0.84839 -0.00204 0.65309 0.0
S450 S 0.96459 0.18925 0.61776 0.0
N451 N 0.9458 0.21957 0.6427 0.0
N452 N 0.94278 0.10836 0.61101 0.0
C453 C 0.91861 0.10331 0.62937 0.0
C454 C 0.92031 0.16316 0.64657 0.0
C455 C 0.89955 0.54465 0.6565 0.0
C456 C 0.92998 0.5314 0.67124 0.0
C457 C 0.89978 0.60339 0.63967 0.0
C458 C 0.93036 0.65232 0.63674 0.0
H459 H 0.875 0.50928 0.65785 0.0
H460 H 0.87531 0.61096 0.62906 0.0
S461 S 1.01778 0.64121 0.67019 0.0
N462 N 0.9923 0.57058 0.68129 0.0
N463 N 0.99255 0.68272 0.64954 0.0
C464 C 0.96153 0.63897 0.65085 0.0
C465 C 0.96135 0.57826 0.66813 0.0
C466 C 0.93027 0.53075 0.15524 0.0
C467 C 0.89981 0.51327 0.14081 0.0
C468 C 0.92896 0.58861 0.17237 0.0
C469 C 0.89718 0.63223 0.17593 0.0
H470 H 0.95576 0.49989 0.15325 0.0
H471 H 0.95356 0.60028 0.18258 0.0
S472 S 0.80899 0.60735 0.14386 0.0
N473 N 0.83607 0.54193 0.13202 0.0
N474 N 0.83373 0.6521 0.16431 0.0
C475 C 0.86592 0.6139 0.16231 0.0
C476 C 0.86722 0.55427 0.14472 0.0
C477 C 0.89843 0.02816 0.15328 0.0
C478 C 0.92845 0.01355 0.16826 0.0
C479 C 0.89984 0.08599 0.13612 0.0
C480 C 0.93127 0.13239 0.13309 0.0
H481 H 0.87319 -0.00487 0.15488 0.0
H482 H 0.87553 0.09553 0.1255 0.0
S483 S 1.01838 0.11535 0.16661 0.0
N484 N 0.99151 0.04768 0.17807 0.0
N485 N 0.99401 0.1578 0.14571 0.0
C486 C 0.96218 0.1168 0.14721 0.0
C487 C 0.96077 0.0572 0.16483 0.0
C488 C 0.64511 0.80088 0.89734 0.0
C489 C 0.67719 0.77937 0.88525 0.0
C490 C 0.6456 0.85812 0.91466 0.0
C491 C 0.67814 0.8974 0.92075 0.0
H492 H 0.61901 0.77327 0.89353 0.0
H493 H 0.61985 0.87213 0.92316 0.0
S494 S 0.77013 0.86272 0.89489 0.0
N495 N 0.74291 0.80086 0.88098 0.0
N496 N 0.74371 0.91018 0.9136 0.0
C497 C 0.71074 0.87614 0.90916 0.0
C498 C 0.71026 0.81699 0.89137 0.0
C499 C 0.6825 0.31778 0.91284 0.0
C500 C 0.64985 0.28134 0.92022 0.0
C501 C 0.68252 0.37513 0.89555 0.0
C502 C 0.64985 0.39967 0.88477 0.0
H503 H 0.70869 0.30161 0.92031 0.0
H504 H 0.70873 0.40054 0.89074 0.0
S505 S 0.55648 0.32386 0.89786 0.0
N506 N 0.58358 0.274 0.9155 0.0
N507 N 0.58356 0.38354 0.88296 0.0
C508 C 0.61674 0.36451 0.89206 0.0
C509 C 0.61673 0.30522 0.90981 0.0
C510 C 0.6501 0.34811 0.38159 0.0
C511 C 0.68115 0.30142 0.37931 0.0
C512 C 0.64858 0.40655 0.39854 0.0
C513 C 0.67808 0.42133 0.41403 0.0
H514 H 0.62613 0.33803 0.37061 0.0
H515 H 0.62362 0.43968 0.39966 0.0
S516 S 0.76699 0.31922 0.4143 0.0
N517 N 0.74309 0.27626 0.39308 0.0
N518 N 0.74036 0.38742 0.42505 0.0
C519 C 0.71014 0.3777 0.41125 0.0
C520 C 0.71166 0.31755 0.39385 0.0
C521 C 0.6176 0.81068 0.40887 0.0
C522 C 0.64477 0.80383 0.42647 0.0
C523 C 0.61944 0.87 0.39185 0.0
C524 C 0.64859 0.92379 0.39193 0.0
H525 H 0.59602 0.76758 0.40741 0.0
H526 H 0.59891 0.87164 0.37797 0.0
S527 S 0.72252 0.93868 0.43713 0.0
N528 N 0.69864 0.86138 0.44489 0.0
N529 N 0.70217 -0.02748 0.41318 0.0
C530 C 0.67432 0.92049 0.41053 0.0
C531 C 0.67237 0.86059 0.42774 0.0
C532 C 0.37012 0.11326 0.1651 0.0
C533 C 0.39863 0.16855 0.16476 0.0
C534 C 0.36856 0.05409 0.14802 0.0
C535 C 0.39539 0.04896 0.13013 0.0
H536 H 0.34992 0.11365 0.17921 0.0
H537 H 0.34755 0.00982 0.14964 0.0
S538 S 0.47135 0.18764 0.1188 0.0
N539 N 0.45115 0.22024 0.14298 0.0
N540 N 0.44818 0.10924 0.11122 0.0
C541 C 0.42231 0.10702 0.12863 0.0
C542 C 0.42396 0.1668 0.14587 0.0
C543 C 0.39699 0.58029 0.16906 0.0
C544 C 0.42994 0.54434 0.17542 0.0
C545 C 0.39615 0.6385 0.15206 0.0
C546 C 0.42824 0.66445 0.14059 0.0
H547 H 0.37117 0.56237 0.1769 0.0
H548 H 0.3697 0.66286 0.14785 0.0
S549 S 0.52233 0.59353 0.1519 0.0
N550 N 0.49604 0.54123 0.16971 0.0
N551 N 0.49453 0.65243 0.13772 0.0
C552 C 0.46178 0.6312 0.14729 0.0
C553 C 0.46261 0.57098 0.16473 0.0
C554 C 0.37031 0.59871 0.66829 0.0
C555 C 0.39765 0.65652 0.6676 0.0
C556 C 0.3696 0.53915 0.65129 0.0
C557 C 0.39611 0.53616 0.63313 0.0
H558 H 0.3503 0.59783 0.68252 0.0
H559 H 0.34938 0.49333 0.65307 0.0
S560 S 0.46896 0.68147 0.62096 0.0
N561 N 0.44866 0.71241 0.64531 0.0
N562 N 0.44727 0.60093 0.61371 0.0
C563 C 0.42191 0.59642 0.6314 0.0
C564 C 0.4227 0.6565 0.64855 0.0
C565 C 0.4572 0.13973 0.65158 0.0
C566 C 0.43142 0.14234 0.633 0.0
C567 C 0.45593 0.08028 0.66862 0.0
C568 C 0.42874 0.02223 0.66754 0.0
H569 H 0.47721 0.18582 0.65366 0.0
H570 H 0.47532 0.08152 0.68318 0.0
S571 S 0.35944 -0.00377 0.61974 0.0
N572 N 0.38124 0.07694 0.61279 0.0
N573 N 0.37882 -0.03437 0.64444 0.0
C574 C 0.40451 0.0218 0.64806 0.0
C575 C 0.40587 0.08178 0.63087 0.0
loop_
_geom_bond_atom_site_label_1
_geom_bond_atom_site_label_2
_geom_bond_distance
_geom_bond_site_symmetry_2
_ccdc_geom_bond_type
O0 Cd1 2.223 . S
O0 C8 1.315 . S
Cd1 O0 2.223 . S
Cd1 O4 2.297 . S
Cd1 O5 2.439 . S
Cd1 O11 2.240 . S
Cd2 O3 2.240 . S
Cd2 O10 2.223 . S
Cd2 O12 2.297 . S
Cd2 O13 2.439 . S
O3 Cd2 2.240 . S
O3 C8 1.279 . S
O4 Cd1 2.297 . S
O4 C6 1.247 . S
O5 Cd1 2.439 . S
O5 C6 1.208 . S
C6 O4 1.247 . S
C6 O5 1.208 . S
C7 O12 1.247 . S
C7 O13 1.208 . S
C8 O0 1.315 . S
C8 O3 1.279 . S
C9 O10 1.315 . S
C9 O11 1.279 . S
O10 Cd2 2.223 . S
O10 C9 1.315 . S
O11 Cd1 2.240 . S
O11 C9 1.279 . S
O12 Cd2 2.297 . S
O12 C7 1.247 . S
O13 Cd2 2.439 . S
O13 C7 1.208 . S
O14 Cd15 2.223 . S
O14 C22 1.315 . S
Cd15 O14 2.223 . S
Cd15 O18 2.297 . S
Cd15 O19 2.439 . S
Cd15 O25 2.240 . S
Cd16 O17 2.240 . S
Cd16 O24 2.223 . S
Cd16 O26 2.297 . S
Cd16 O27 2.439 . S
O17 Cd16 2.240 . S
O17 C22 1.279 . S
O18 Cd15 2.297 . S
O18 C20 1.247 . S
O19 Cd15 2.439 . S
O19 C20 1.208 . S
C20 O18 1.247 . S
C20 O19 1.208 . S
C21 O26 1.247 . S
C21 O27 1.208 . S
C22 O14 1.315 . S
C22 O17 1.279 . S
C23 O24 1.315 . S
C23 O25 1.279 . S
O24 Cd16 2.223 . S
O24 C23 1.315 . S
O25 Cd15 2.240 . S
O25 C23 1.279 . S
O26 Cd16 2.297 . S
O26 C21 1.247 . S
O27 Cd16 2.439 . S
O27 C21 1.208 . S
O28 Cd29 2.223 . S
O28 C36 1.315 . S
Cd29 O28 2.223 . S
Cd29 O32 2.297 . S
Cd29 O33 2.439 . S
Cd29 O39 2.240 . S
Cd30 O31 2.240 . S
Cd30 O38 2.223 . S
Cd30 O40 2.297 . S
Cd30 O41 2.439 . S
O31 Cd30 2.240 . S
O31 C36 1.279 . S
O32 Cd29 2.297 . S
O32 C34 1.247 . S
O33 Cd29 2.439 . S
O33 C34 1.208 . S
C34 O32 1.247 . S
C34 O33 1.208 . S
C35 O40 1.247 . S
C35 O41 1.208 . S
C36 O28 1.315 . S
C36 O31 1.279 . S
C37 O38 1.315 . S
C37 O39 1.279 . S
O38 Cd30 2.223 . S
O38 C37 1.315 . S
O39 Cd29 2.240 . S
O39 C37 1.279 . S
O40 Cd30 2.297 . S
O40 C35 1.247 . S
O41 Cd30 2.439 . S
O41 C35 1.208 . S
O42 Cd43 2.223 . S
O42 C50 1.315 . S
Cd43 O42 2.223 . S
Cd43 O46 2.297 . S
Cd43 O47 2.439 . S
Cd43 O53 2.240 . S
Cd44 O45 2.240 . S
Cd44 O52 2.223 . S
Cd44 O54 2.297 . S
Cd44 O55 2.439 . S
O45 Cd44 2.240 . S
O45 C50 1.279 . S
O46 Cd43 2.297 . S
O46 C48 1.247 . S
O47 Cd43 2.439 . S
O47 C48 1.208 . S
C48 O46 1.247 . S
C48 O47 1.208 . S
C49 O54 1.247 . S
C49 O55 1.208 . S
C50 O42 1.315 . S
C50 O45 1.279 . S
C51 O52 1.315 . S
C51 O53 1.279 . S
O52 Cd44 2.223 . S
O52 C51 1.315 . S
O53 Cd43 2.240 . S
O53 C51 1.279 . S
O54 Cd44 2.297 . S
O54 C49 1.247 . S
O55 Cd44 2.439 . S
O55 C49 1.208 . S
O56 Cd57 2.223 . S
O56 C64 1.315 . S
Cd57 O56 2.223 . S
Cd57 O60 2.297 . S
Cd57 O61 2.439 . S
Cd57 O67 2.240 . S
Cd58 O59 2.240 . S
Cd58 O66 2.223 . S
Cd58 O68 2.297 . S
Cd58 O69 2.439 . S
O59 Cd58 2.240 . S
O59 C64 1.279 . S
O60 Cd57 2.297 . S
O60 C62 1.247 . S
O61 Cd57 2.439 . S
O61 C62 1.208 . S
C62 O60 1.247 . S
C62 O61 1.208 . S
C63 O68 1.247 . S
C63 O69 1.208 . S
C64 O56 1.315 . S
C64 O59 1.279 . S
C65 O66 1.315 . S
C65 O67 1.279 . S
O66 Cd58 2.223 . S
O66 C65 1.315 . S
O67 Cd57 2.240 . S
O67 C65 1.279 . S
O68 Cd58 2.297 . S
O68 C63 1.247 . S
O69 Cd58 2.439 . S
O69 C63 1.208 . S
O70 Cd71 2.223 . S
O70 C78 1.315 . S
Cd71 O70 2.223 . S
Cd71 O74 2.297 . S
Cd71 O75 2.439 . S
Cd71 O81 2.240 . S
Cd72 O73 2.240 . S
Cd72 O80 2.223 . S
Cd72 O82 2.297 . S
Cd72 O83 2.439 . S
O73 Cd72 2.240 . S
O73 C78 1.279 . S
O74 Cd71 2.297 . S
O74 C76 1.247 . S
O75 Cd71 2.439 . S
O75 C76 1.208 . S
C76 O74 1.247 . S
C76 O75 1.208 . S
C77 O82 1.247 . S
C77 O83 1.208 . S
C78 O70 1.315 . S
C78 O73 1.279 . S
C79 O80 1.315 . S
C79 O81 1.279 . S
O80 Cd72 2.223 . S
O80 C79 1.315 . S
O81 Cd71 2.240 . S
O81 C79 1.279 . S
O82 Cd72 2.297 . S
O82 C77 1.247 . S
O83 Cd72 2.439 . S
O83 C77 1.208 . S
O84 Cd85 2.223 . S
O84 C92 1.315 . S
Cd85 O84 2.223 . S
Cd85 O88 2.297 . S
Cd85 O89 2.439 . S
Cd85 O95 2.240 . S
Cd86 O87 2.240 . S
Cd86 O94 2.223 . S
Cd86 O96 2.297 . S
Cd86 O97 2.439 . S
O87 Cd86 2.240 . S
O87 C92 1.279 . S
O88 Cd85 2.297 . S
O88 C90 1.247 . S
O89 Cd85 2.439 . S
O89 C90 1.208 . S
C90 O88 1.247 . S
C90 O89 1.208 . S
C91 O96 1.247 . S
C91 O97 1.208 . S
C92 O84 1.315 . S
C92 O87 1.279 . S
C93 O94 1.315 . S
C93 O95 1.279 . S
O94 Cd86 2.223 . S
O94 C93 1.315 . S
O95 Cd85 2.240 . S
O95 C93 1.279 . S
O96 Cd86 2.297 . S
O96 C91 1.247 . S
O97 Cd86 2.439 . S
O97 C91 1.208 . S
O98 Cd99 2.223 . S
O98 C106 1.315 . S
Cd99 O98 2.223 . S
Cd99 O102 2.297 . S
Cd99 O103 2.439 . S
Cd99 O109 2.240 . S
Cd100 O101 2.240 . S
Cd100 O108 2.223 . S
Cd100 O110 2.297 . S
Cd100 O111 2.439 . S
O101 Cd100 2.240 . S
O101 C106 1.279 . S
O102 Cd99 2.297 . S
O102 C104 1.247 . S
O103 Cd99 2.439 . S
O103 C104 1.208 . S
C104 O102 1.247 . S
C104 O103 1.208 . S
C105 O110 1.247 . S
C105 O111 1.208 . S
C106 O98 1.315 . S
C106 O101 1.279 . S
C107 O108 1.315 . S
C107 O109 1.279 . S
O108 Cd100 2.223 . S
O108 C107 1.315 . S
O109 Cd99 2.240 . S
O109 C107 1.279 . S
O110 Cd100 2.297 . S
O110 C105 1.247 . S
O111 Cd100 2.439 . S
O111 C105 1.208 . S
O112 Cd113 2.223 . S
O112 C120 1.315 . S
Cd113 O112 2.223 . S
Cd113 O116 2.297 . S
Cd113 O117 2.439 . S
Cd113 O123 2.240 . S
Cd114 O115 2.240 . S
Cd114 O122 2.223 . S
Cd114 O124 2.297 . S
Cd114 O125 2.439 . S
O115 Cd114 2.240 . S
O115 C120 1.279 . S
O116 Cd113 2.297 . S
O116 C118 1.247 . S
O117 Cd113 2.439 . S
O117 C118 1.208 . S
C118 O116 1.247 . S
C118 O117 1.208 . S
C119 O124 1.247 . S
C119 O125 1.208 . S
C120 O112 1.315 . S
C120 O115 1.279 . S
C121 O122 1.315 . S
C121 O123 1.279 . S
O122 Cd114 2.223 . S
O122 C121 1.315 . S
O123 Cd113 2.240 . S
O123 C121 1.279 . S
O124 Cd114 2.297 . S
O124 C119 1.247 . S
O125 Cd114 2.439 . S
O125 C119 1.208 . S
O126 Cd127 2.223 . S
O126 C134 1.315 . S
Cd127 O126 2.223 . S
Cd127 O130 2.297 . S
Cd127 O131 2.439 . S
Cd127 O137 2.240 . S
Cd128 O129 2.240 . S
Cd128 O136 2.223 . S
Cd128 O138 2.297 . S
Cd128 O139 2.439 . S
O129 Cd128 2.240 . S
O129 C134 1.279 . S
O130 Cd127 2.297 . S
O130 C132 1.247 . S
O131 Cd127 2.439 . S
O131 C132 1.208 . S
C132 O130 1.247 . S
C132 O131 1.208 . S
C133 O138 1.247 . S
C133 O139 1.208 . S
C134 O126 1.315 . S
C134 O129 1.279 . S
C135 O136 1.315 . S
C135 O137 1.279 . S
O136 Cd128 2.223 . S
O136 C135 1.315 . S
O137 Cd127 2.240 . S
O137 C135 1.279 . S
O138 Cd128 2.297 . S
O138 C133 1.247 . S
O139 Cd128 2.439 . S
O139 C133 1.208 . S
O140 Cd141 2.223 . S
O140 C148 1.315 . S
Cd141 O140 2.223 . S
Cd141 O144 2.297 . S
Cd141 O145 2.439 . S
Cd141 O151 2.240 . S
Cd142 O143 2.240 . S
Cd142 O150 2.223 . S
Cd142 O152 2.297 . S
Cd142 O153 2.439 . S
O143 Cd142 2.240 . S
O143 C148 1.279 . S
O144 Cd141 2.297 . S
O144 C146 1.247 . S
O145 Cd141 2.439 . S
O145 C146 1.208 . S
C146 O144 1.247 . S
C146 O145 1.208 . S
C147 O152 1.247 . S
C147 O153 1.208 . S
C148 O140 1.315 . S
C148 O143 1.279 . S
C149 O150 1.315 . S
C149 O151 1.279 . S
O150 Cd142 2.223 . S
O150 C149 1.315 . S
O151 Cd141 2.240 . S
O151 C149 1.279 . S
O152 Cd142 2.297 . S
O152 C147 1.247 . S
O153 Cd142 2.439 . S
O153 C147 1.208 . S
O154 Cd155 2.223 . S
O154 C162 1.315 . S
Cd155 O154 2.223 . S
Cd155 O158 2.297 . S
Cd155 O159 2.439 . S
Cd155 O165 2.240 . S
Cd156 O157 2.240 . S
Cd156 O164 2.223 . S
Cd156 O166 2.297 . S
Cd156 O167 2.439 . S
O157 Cd156 2.240 . S
O157 C162 1.279 . S
O158 Cd155 2.297 . S
O158 C160 1.247 . S
O159 Cd155 2.439 . S
O159 C160 1.208 . S
C160 O158 1.247 . S
C160 O159 1.208 . S
C161 O166 1.247 . S
C161 O167 1.208 . S
C162 O154 1.315 . S
C162 O157 1.279 . S
C163 O164 1.315 . S
C163 O165 1.279 . S
O164 Cd156 2.223 . S
O164 C163 1.315 . S
O165 Cd155 2.240 . S
O165 C163 1.279 . S
O166 Cd156 2.297 . S
O166 C161 1.247 . S
O167 Cd156 2.439 . S
O167 C161 1.208 . S
O168 Cd169 2.223 . S
O168 C176 1.315 . S
Cd169 O168 2.223 . S
Cd169 O172 2.297 . S
Cd169 O173 2.439 . S
Cd169 O179 2.240 . S
Cd170 O171 2.240 . S
Cd170 O178 2.223 . S
Cd170 O180 2.297 . S
Cd170 O181 2.439 . S
O171 Cd170 2.240 . S
O171 C176 1.279 . S
O172 Cd169 2.297 . S
O172 C174 1.247 . S
O173 Cd169 2.439 . S
O173 C174 1.208 . S
C174 O172 1.247 . S
C174 O173 1.208 . S
C175 O180 1.247 . S
C175 O181 1.208 . S
C176 O168 1.315 . S
C176 O171 1.279 . S
C177 O178 1.315 . S
C177 O179 1.279 . S
O178 Cd170 2.223 . S
O178 C177 1.315 . S
O179 Cd169 2.240 . S
O179 C177 1.279 . S
O180 Cd170 2.297 . S
O180 C175 1.247 . S
O181 Cd170 2.439 . S
O181 C175 1.208 . S
O182 Cd183 2.223 . S
O182 C190 1.315 . S
Cd183 O182 2.223 . S
Cd183 O186 2.297 . S
Cd183 O187 2.439 . S
Cd183 O193 2.240 . S
Cd184 O185 2.240 . S
Cd184 O192 2.223 . S
Cd184 O194 2.297 . S
Cd184 O195 2.439 . S
O185 Cd184 2.240 . S
O185 C190 1.279 . S
O186 Cd183 2.297 . S
O186 C188 1.247 . S
O187 Cd183 2.439 . S
O187 C188 1.208 . S
C188 O186 1.247 . S
C188 O187 1.208 . S
C189 O194 1.247 . S
C189 O195 1.208 . S
C190 O182 1.315 . S
C190 O185 1.279 . S
C191 O192 1.315 . S
C191 O193 1.279 . S
O192 Cd184 2.223 . S
O192 C191 1.315 . S
O193 Cd183 2.240 . S
O193 C191 1.279 . S
O194 Cd184 2.297 . S
O194 C189 1.247 . S
O195 Cd184 2.439 . S
O195 C189 1.208 . S
O196 Cd197 2.223 . S
O196 C204 1.315 . S
Cd197 O196 2.223 . S
Cd197 O200 2.297 . S
Cd197 O201 2.439 . S
Cd197 O207 2.240 . S
Cd198 O199 2.240 . S
Cd198 O206 2.223 . S
Cd198 O208 2.297 . S
Cd198 O209 2.439 . S
O199 Cd198 2.240 . S
O199 C204 1.279 . S
O200 Cd197 2.297 . S
O200 C202 1.247 . S
O201 Cd197 2.439 . S
O201 C202 1.208 . S
C202 O200 1.247 . S
C202 O201 1.208 . S
C203 O208 1.247 . S
C203 O209 1.208 . S
C204 O196 1.315 . S
C204 O199 1.279 . S
C205 O206 1.315 . S
C205 O207 1.279 . S
O206 Cd198 2.223 . S
O206 C205 1.315 . S
O207 Cd197 2.240 . S
O207 C205 1.279 . S
O208 Cd198 2.297 . S
O208 C203 1.247 . S
O209 Cd198 2.439 . S
O209 C203 1.208 . S
O210 Cd211 2.223 . S
O210 C218 1.315 . S
Cd211 O210 2.223 . S
Cd211 O214 2.297 . S
Cd211 O215 2.439 . S
Cd211 O221 2.240 . S
Cd212 O213 2.240 . S
Cd212 O220 2.223 . S
Cd212 O222 2.297 . S
Cd212 O223 2.439 . S
O213 Cd212 2.240 . S
O213 C218 1.279 . S
O214 Cd211 2.297 . S
O214 C216 1.247 . S
O215 Cd211 2.439 . S
O215 C216 1.208 . S
C216 O214 1.247 . S
C216 O215 1.208 . S
C217 O222 1.247 . S
C217 O223 1.208 . S
C218 O210 1.315 . S
C218 O213 1.279 . S
C219 O220 1.315 . S
C219 O221 1.279 . S
O220 Cd212 2.223 . S
O220 C219 1.315 . S
O221 Cd211 2.240 . S
O221 C219 1.279 . S
O222 Cd212 2.297 . S
O222 C217 1.247 . S
O223 Cd212 2.439 . S
O223 C217 1.208 . S
C224 C225 1.369 . S
C224 C226 1.419 . S
C224 H228 0.930 . S
C225 C224 1.369 . S
C225 C234 1.429 . S
C226 C224 1.419 . S
C226 C227 1.363 . S
C226 H229 0.929 . S
C227 C226 1.363 . S
C227 C233 1.428 . S
H228 C224 0.930 . S
H229 C226 0.929 . S
S230 N231 1.613 . S
S230 N232 1.610 . S
N231 S230 1.613 . S
N231 C234 1.350 . S
N232 S230 1.610 . S
N232 C233 1.351 . S
C233 C227 1.428 . S
C233 N232 1.351 . S
C233 C234 1.434 . S
C234 C225 1.429 . S
C234 N231 1.350 . S
C234 C233 1.434 . S
C235 C236 1.369 . S
C235 C237 1.395 1_655 S
C235 H239 0.930 . S
C236 C235 1.369 . S
C236 C245 1.430 1_665 S
C237 C235 1.395 1_455 S
C237 C238 1.387 1_565 S
C237 H240 0.929 1_455 S
C238 C237 1.387 1_545 S
C238 C244 1.428 . S
H239 C235 0.930 . S
H240 C237 0.929 1_655 S
S241 N242 1.613 . S
S241 N243 1.610 . S
N242 S241 1.613 . S
N242 C245 1.350 . S
N243 S241 1.610 . S
N243 C244 1.351 . S
C244 C238 1.428 . S
C244 N243 1.351 . S
C244 C245 1.433 . S
C245 C236 1.430 1_445 S
C245 N242 1.350 . S
C245 C244 1.433 . S
C246 C247 1.369 . S
C246 C248 1.419 1_565 S
C246 H250 0.930 . S
C247 C246 1.369 . S
C247 C256 1.428 1_565 S
C248 C246 1.419 1_545 S
C248 C249 1.363 . S
C248 H251 0.929 . S
C249 C248 1.363 . S
C249 C255 1.428 . S
H250 C246 0.930 . S
H251 C248 0.929 . S
S252 N253 1.613 . S
S252 N254 1.610 . S
N253 S252 1.613 . S
N253 C256 1.350 . S
N254 S252 1.610 . S
N254 C255 1.351 . S
C255 C249 1.428 . S
C255 N254 1.351 . S
C255 C256 1.435 . S
C256 C247 1.428 1_545 S
C256 N253 1.350 . S
C256 C255 1.435 . S
C257 C258 1.394 . S
C257 C259 1.395 1_455 S
C257 H261 0.929 1_455 S
C258 C257 1.394 . S
C258 C267 1.429 . S
C259 C257 1.395 1_655 S
C259 C260 1.363 . S
C259 H262 0.929 . S
C260 C259 1.363 . S
C260 C266 1.418 1_655 S
H261 C257 0.929 1_655 S
H262 C259 0.929 . S
S263 N264 1.613 . S
S263 N265 1.610 . S
N264 S263 1.613 . S
N264 C267 1.350 . S
N265 S263 1.610 . S
N265 C266 1.353 . S
C266 C260 1.418 1_455 S
C266 N265 1.353 . S
C266 C267 1.444 . S
C267 C258 1.429 . S
C267 N264 1.350 . S
C267 C266 1.444 . S
C268 C269 1.369 . S
C268 C270 1.419 . S
C268 H272 0.930 . S
C269 C268 1.369 . S
C269 C278 1.429 . S
C270 C268 1.419 . S
C270 C271 1.363 . S
C270 H273 0.929 . S
C271 C270 1.363 . S
C271 C277 1.428 . S
H272 C268 0.930 . S
H273 C270 0.929 . S
S274 N275 1.613 . S
S274 N276 1.610 . S
N275 S274 1.613 . S
N275 C278 1.350 . S
N276 S274 1.610 . S
N276 C277 1.351 . S
C277 C271 1.428 . S
C277 N276 1.351 . S
C277 C278 1.434 . S
C278 C269 1.429 . S
C278 N275 1.350 . S
C278 C277 1.434 . S
C279 C280 1.369 1_565 S
C279 C281 1.419 . S
C279 H283 0.930 . S
C280 C279 1.369 1_545 S
C280 C289 1.429 . S
C281 C279 1.419 . S
C281 C282 1.363 . S
C281 H284 0.929 . S
C282 C281 1.363 . S
C282 C288 1.428 1_565 S
H283 C279 0.930 . S
H284 C281 0.929 . S
S285 N286 1.613 . S
S285 N287 1.610 . S
N286 S285 1.613 . S
N286 C289 1.350 . S
N287 S285 1.610 . S
N287 C288 1.351 . S
C288 C282 1.428 1_545 S
C288 N287 1.351 . S
C288 C289 1.434 . S
C289 C280 1.429 . S
C289 N286 1.350 . S
C289 C288 1.434 . S
C290 C291 1.369 . S
C290 C292 1.419 1_655 S
C290 H294 0.930 . S
C291 C290 1.369 . S
C291 C300 1.429 . S
C292 C290 1.419 1_455 S
C292 C293 1.363 . S
C292 H295 0.929 . S
C293 C292 1.363 . S
C293 C299 1.428 . S
H294 C290 0.930 . S
H295 C292 0.929 . S
S296 N297 1.613 . S
S296 N298 1.610 1_655 S
N297 S296 1.613 . S
N297 C300 1.350 . S
N298 S296 1.610 1_455 S
N298 C299 1.351 . S
C299 C293 1.428 . S
C299 N298 1.351 . S
C299 C300 1.434 1_455 S
C300 C291 1.429 . S
C300 N297 1.350 . S
C300 C299 1.434 1_655 S
C301 C302 1.369 . S
C301 C303 1.419 . S
C301 H305 0.930 . S
C302 C301 1.369 . S
C302 C311 1.429 1_554 S
C303 C301 1.419 . S
C303 C304 1.363 1_554 S
C303 H306 0.929 . S
C304 C303 1.363 1_556 S
C304 C310 1.428 . S
H305 C301 0.930 . S
H306 C303 0.929 . S
S307 N308 1.613 . S
S307 N309 1.610 . S
N308 S307 1.613 . S
N308 C311 1.350 . S
N309 S307 1.610 . S
N309 C310 1.351 . S
C310 C304 1.428 . S
C310 N309 1.351 . S
C310 C311 1.434 . S
C311 C302 1.429 1_556 S
C311 N308 1.350 . S
C311 C310 1.434 . S
C312 C313 1.369 . S
C312 C314 1.419 1_455 S
C312 H316 0.930 . S
C313 C312 1.369 . S
C313 C322 1.429 1_556 S
C314 C312 1.419 1_655 S
C314 C315 1.363 1_556 S
C314 H317 0.929 . S
C315 C314 1.363 1_554 S
C315 C321 1.425 1_655 S
H316 C312 0.930 . S
H317 C314 0.929 . S
S318 N319 1.613 . S
S318 N320 1.610 . S
N319 S318 1.613 . S
N319 C322 1.350 . S
N320 S318 1.610 . S
N320 C321 1.352 . S
C321 C315 1.425 1_455 S
C321 N320 1.352 . S
C321 C322 1.438 . S
C322 C313 1.429 1_554 S
C322 N319 1.350 . S
C322 C321 1.438 . S
C323 C324 1.369 . S
C323 C325 1.419 . S
C323 H327 0.930 . S
C324 C323 1.369 . S
C324 C333 1.429 . S
C325 C323 1.419 . S
C325 C326 1.363 . S
C325 H328 0.929 . S
C326 C325 1.363 . S
C326 C332 1.428 . S
H327 C323 0.930 . S
H328 C325 0.929 . S
S329 N330 1.613 . S
S329 N331 1.610 . S
N330 S329 1.613 . S
N330 C333 1.350 . S
N331 S329 1.610 . S
N331 C332 1.351 . S
C332 C326 1.428 . S
C332 N331 1.351 . S
C332 C333 1.434 . S
C333 C324 1.429 . S
C333 N330 1.350 . S
C333 C332 1.434 . S
C334 C335 1.369 . S
C334 C336 1.419 . S
C334 H338 0.930 . S
C335 C334 1.369 . S
C335 C344 1.429 1_556 S
C336 C334 1.419 . S
C336 C337 1.363 1_556 S
C336 H339 0.929 . S
C337 C336 1.363 1_554 S
C337 C343 1.428 . S
H338 C334 0.930 . S
H339 C336 0.929 . S
S340 N341 1.613 . S
S340 N342 1.610 . S
N341 S340 1.613 . S
N341 C344 1.350 . S
N342 S340 1.610 . S
N342 C343 1.351 . S
C343 C337 1.428 . S
C343 N342 1.351 . S
C343 C344 1.434 . S
C344 C335 1.429 1_554 S
C344 N341 1.350 . S
C344 C343 1.434 . S
C345 C346 1.369 . S
C345 C347 1.419 . S
C345 H349 0.930 . S
C346 C345 1.369 . S
C346 C355 1.429 . S
C347 C345 1.419 . S
C347 C348 1.363 . S
C347 H350 0.929 . S
C348 C347 1.363 . S
C348 C354 1.428 . S
H349 C345 0.930 . S
H350 C347 0.929 . S
S351 N352 1.613 . S
S351 N353 1.610 . S
N352 S351 1.613 . S
N352 C355 1.350 . S
N353 S351 1.610 . S
N353 C354 1.351 . S
C354 C348 1.428 . S
C354 N353 1.351 . S
C354 C355 1.434 . S
C355 C346 1.429 . S
C355 N352 1.350 . S
C355 C354 1.434 . S
C356 C357 1.369 1_564 S
C356 C358 1.419 . S
C356 H360 0.930 . S
C357 C356 1.369 1_546 S
C357 C366 1.429 . S
C358 C356 1.419 . S
C358 C359 1.363 . S
C358 H361 0.929 . S
C359 C358 1.363 . S
C359 C365 1.428 1_564 S
H360 C356 0.930 . S
H361 C358 0.929 . S
S362 N363 1.613 . S
S362 N364 1.610 . S
N363 S362 1.613 . S
N363 C366 1.350 . S
N364 S362 1.610 . S
N364 C365 1.351 . S
C365 C359 1.428 1_546 S
C365 N364 1.351 . S
C365 C366 1.434 . S
C366 C357 1.429 . S
C366 N363 1.350 . S
C366 C365 1.434 . S
C367 C368 1.369 . S
C367 C369 1.419 . S
C367 H371 0.930 . S
C368 C367 1.369 . S
C368 C377 1.429 . S
C369 C367 1.419 . S
C369 C370 1.363 . S
C369 H372 0.929 . S
C370 C369 1.363 . S
C370 C376 1.428 . S
H371 C367 0.930 . S
H372 C369 0.929 . S
S373 N374 1.613 . S
S373 N375 1.610 . S
N374 S373 1.613 . S
N374 C377 1.350 . S
N375 S373 1.610 . S
N375 C376 1.351 . S
C376 C370 1.428 . S
C376 N375 1.351 . S
C376 C377 1.434 . S
C377 C368 1.429 . S
C377 N374 1.350 . S
C377 C376 1.434 . S
C378 C379 1.369 . S
C378 C380 1.419 . S
C378 H382 0.930 . S
C379 C378 1.369 . S
C379 C388 1.429 . S
C380 C378 1.419 . S
C380 C381 1.363 . S
C380 H383 0.929 . S
C381 C380 1.363 . S
C381 C387 1.428 . S
H382 C378 0.930 . S
H383 C380 0.929 . S
S384 N385 1.613 . S
S384 N386 1.610 . S
N385 S384 1.613 . S
N385 C388 1.350 . S
N386 S384 1.610 . S
N386 C387 1.351 . S
C387 C381 1.428 . S
C387 N386 1.351 . S
C387 C388 1.434 . S
C388 C379 1.429 . S
C388 N385 1.350 . S
C388 C387 1.434 . S
C389 C390 1.369 . S
C389 C391 1.419 . S
C389 H393 0.930 . S
C390 C389 1.369 . S
C390 C399 1.429 . S
C391 C389 1.419 . S
C391 C392 1.363 . S
C391 H394 0.929 . S
C392 C391 1.363 . S
C392 C398 1.428 . S
H393 C389 0.930 . S
H394 C391 0.929 . S
S395 N396 1.613 . S
S395 N397 1.610 . S
N396 S395 1.613 . S
N396 C399 1.350 . S
N397 S395 1.610 . S
N397 C398 1.351 . S
C398 C392 1.428 . S
C398 N397 1.351 . S
C398 C399 1.434 . S
C399 C390 1.429 . S
C399 N396 1.350 . S
C399 C398 1.434 . S
C400 C401 1.369 . S
C400 C402 1.419 . S
C400 H404 0.930 . S
C401 C400 1.369 . S
C401 C410 1.429 . S
C402 C400 1.419 . S
C402 C403 1.363 . S
C402 H405 0.929 . S
C403 C402 1.363 . S
C403 C409 1.428 . S
H404 C400 0.930 . S
H405 C402 0.929 . S
S406 N407 1.613 1_545 S
S406 N408 1.610 . S
N407 S406 1.613 1_565 S
N407 C410 1.350 . S
N408 S406 1.610 . S
N408 C409 1.351 1_545 S
C409 C403 1.428 . S
C409 N408 1.351 1_565 S
C409 C410 1.434 . S
C410 C401 1.429 . S
C410 N407 1.350 . S
C410 C409 1.434 . S
C411 C412 1.369 . S
C411 C413 1.419 . S
C411 H415 0.930 . S
C412 C411 1.369 . S
C412 C421 1.429 . S
C413 C411 1.419 . S
C413 C414 1.363 . S
C413 H416 0.929 . S
C414 C413 1.363 . S
C414 C420 1.428 . S
H415 C411 0.930 . S
H416 C413 0.929 . S
S417 N418 1.613 . S
S417 N419 1.610 . S
N418 S417 1.613 . S
N418 C421 1.350 . S
N419 S417 1.610 . S
N419 C420 1.351 . S
C420 C414 1.428 . S
C420 N419 1.351 . S
C420 C421 1.434 . S
C421 C412 1.429 . S
C421 N418 1.350 . S
C421 C420 1.434 . S
C422 C423 1.369 . S
C422 C424 1.419 . S
C422 H426 0.930 . S
C423 C422 1.369 . S
C423 C432 1.429 . S
C424 C422 1.419 . S
C424 C425 1.363 . S
C424 H427 0.929 . S
C425 C424 1.363 . S
C425 C431 1.428 . S
H426 C422 0.930 . S
H427 C424 0.929 . S
S428 N429 1.613 . S
S428 N430 1.610 . S
N429 S428 1.613 . S
N429 C432 1.350 . S
N430 S428 1.610 . S
N430 C431 1.351 . S
C431 C425 1.428 . S
C431 N430 1.351 . S
C431 C432 1.434 . S
C432 C423 1.429 . S
C432 N429 1.350 . S
C432 C431 1.434 . S
C433 C434 1.369 . S
C433 C435 1.419 . S
C433 H437 0.930 . S
C434 C433 1.369 . S
C434 C443 1.429 . S
C435 C433 1.419 . S
C435 C436 1.363 . S
C435 H438 0.929 . S
C436 C435 1.363 . S
C436 C442 1.428 . S
H437 C433 0.930 . S
H438 C435 0.929 . S
S439 N440 1.613 . S
S439 N441 1.610 . S
N440 S439 1.613 . S
N440 C443 1.350 . S
N441 S439 1.610 . S
N441 C442 1.351 . S
C442 C436 1.428 . S
C442 N441 1.351 . S
C442 C443 1.434 . S
C443 C434 1.429 . S
C443 N440 1.350 . S
C443 C442 1.434 . S
C444 C445 1.369 . S
C444 C446 1.419 . S
C444 H448 0.930 . S
C445 C444 1.369 . S
C445 C454 1.429 . S
C446 C444 1.419 . S
C446 C447 1.363 . S
C446 H449 0.929 . S
C447 C446 1.363 . S
C447 C453 1.428 . S
H448 C444 0.930 . S
H449 C446 0.929 . S
S450 N451 1.613 . S
S450 N452 1.610 . S
N451 S450 1.613 . S
N451 C454 1.350 . S
N452 S450 1.610 . S
N452 C453 1.351 . S
C453 C447 1.428 . S
C453 N452 1.351 . S
C453 C454 1.434 . S
C454 C445 1.429 . S
C454 N451 1.350 . S
C454 C453 1.434 . S
C455 C456 1.369 . S
C455 C457 1.419 . S
C455 H459 0.930 . S
C456 C455 1.369 . S
C456 C465 1.429 . S
C457 C455 1.419 . S
C457 C458 1.363 . S
C457 H460 0.929 . S
C458 C457 1.363 . S
C458 C464 1.428 . S
H459 C455 0.930 . S
H460 C457 0.929 . S
S461 N462 1.613 . S
S461 N463 1.610 . S
N462 S461 1.613 . S
N462 C465 1.350 . S
N463 S461 1.610 . S
N463 C464 1.351 . S
C464 C458 1.428 . S
C464 N463 1.351 . S
C464 C465 1.434 . S
C465 C456 1.429 . S
C465 N462 1.350 . S
C465 C464 1.434 . S
C466 C467 1.369 . S
C466 C468 1.419 . S
C466 H470 0.930 . S
C467 C466 1.369 . S
C467 C476 1.429 . S
C468 C466 1.419 . S
C468 C469 1.363 . S
C468 H471 0.929 . S
C469 C468 1.363 . S
C469 C475 1.428 . S
H470 C466 0.930 . S
H471 C468 0.929 . S
S472 N473 1.613 . S
S472 N474 1.610 . S
N473 S472 1.613 . S
N473 C476 1.350 . S
N474 S472 1.610 . S
N474 C475 1.351 . S
C475 C469 1.428 . S
C475 N474 1.351 . S
C475 C476 1.434 . S
C476 C467 1.429 . S
C476 N473 1.350 . S
C476 C475 1.434 . S
C477 C478 1.369 . S
C477 C479 1.419 . S
C477 H481 0.930 . S
C478 C477 1.369 . S
C478 C487 1.429 . S
C479 C477 1.419 . S
C479 C480 1.363 . S
C479 H482 0.929 . S
C480 C479 1.363 . S
C480 C486 1.428 . S
H481 C477 0.930 . S
H482 C479 0.929 . S
S483 N484 1.613 . S
S483 N485 1.610 . S
N484 S483 1.613 . S
N484 C487 1.350 . S
N485 S483 1.610 . S
N485 C486 1.351 . S
C486 C480 1.428 . S
C486 N485 1.351 . S
C486 C487 1.434 . S
C487 C478 1.429 . S
C487 N484 1.350 . S
C487 C486 1.434 . S
C488 C489 1.369 . S
C488 C490 1.419 . S
C488 H492 0.930 . S
C489 C488 1.369 . S
C489 C498 1.429 . S
C490 C488 1.419 . S
C490 C491 1.363 . S
C490 H493 0.929 . S
C491 C490 1.363 . S
C491 C497 1.428 . S
H492 C488 0.930 . S
H493 C490 0.929 . S
S494 N495 1.613 . S
S494 N496 1.610 . S
N495 S494 1.613 . S
N495 C498 1.350 . S
N496 S494 1.610 . S
N496 C497 1.351 . S
C497 C491 1.428 . S
C497 N496 1.351 . S
C497 C498 1.434 . S
C498 C489 1.429 . S
C498 N495 1.350 . S
C498 C497 1.434 . S
C499 C500 1.369 . S
C499 C501 1.419 . S
C499 H503 0.930 . S
C500 C499 1.369 . S
C500 C509 1.429 . S
C501 C499 1.419 . S
C501 C502 1.363 . S
C501 H504 0.929 . S
C502 C501 1.363 . S
C502 C508 1.428 . S
H503 C499 0.930 . S
H504 C501 0.929 . S
S505 N506 1.613 . S
S505 N507 1.610 . S
N506 S505 1.613 . S
N506 C509 1.350 . S
N507 S505 1.610 . S
N507 C508 1.351 . S
C508 C502 1.428 . S
C508 N507 1.351 . S
C508 C509 1.434 . S
C509 C500 1.429 . S
C509 N506 1.350 . S
C509 C508 1.434 . S
C510 C511 1.369 . S
C510 C512 1.419 . S
C510 H514 0.930 . S
C511 C510 1.369 . S
C511 C520 1.429 . S
C512 C510 1.419 . S
C512 C513 1.363 . S
C512 H515 0.929 . S
C513 C512 1.363 . S
C513 C519 1.428 . S
H514 C510 0.930 . S
H515 C512 0.929 . S
S516 N517 1.613 . S
S516 N518 1.610 . S
N517 S516 1.613 . S
N517 C520 1.350 . S
N518 S516 1.610 . S
N518 C519 1.351 . S
C519 C513 1.428 . S
C519 N518 1.351 . S
C519 C520 1.434 . S
C520 C511 1.429 . S
C520 N517 1.350 . S
C520 C519 1.434 . S
C521 C522 1.369 . S
C521 C523 1.419 . S
C521 H525 0.930 . S
C522 C521 1.369 . S
C522 C531 1.429 . S
C523 C521 1.419 . S
C523 C524 1.363 . S
C523 H526 0.929 . S
C524 C523 1.363 . S
C524 C530 1.428 . S
H525 C521 0.930 . S
H526 C523 0.929 . S
S527 N528 1.613 . S
S527 N529 1.610 . S
N528 S527 1.613 . S
N528 C531 1.350 . S
N529 S527 1.610 . S
N529 C530 1.351 . S
C530 C524 1.428 . S
C530 N529 1.351 . S
C530 C531 1.434 . S
C531 C522 1.429 . S
C531 N528 1.350 . S
C531 C530 1.434 . S
C532 C533 1.369 . S
C532 C534 1.419 . S
C532 H536 0.930 . S
C533 C532 1.369 . S
C533 C542 1.429 . S
C534 C532 1.419 . S
C534 C535 1.363 . S
C534 H537 0.929 . S
C535 C534 1.363 . S
C535 C541 1.428 . S
H536 C532 0.930 . S
H537 C534 0.929 . S
S538 N539 1.613 . S
S538 N540 1.610 . S
N539 S538 1.613 . S
N539 C542 1.350 . S
N540 S538 1.610 . S
N540 C541 1.351 . S
C541 C535 1.428 . S
C541 N540 1.351 . S
C541 C542 1.434 . S
C542 C533 1.429 . S
C542 N539 1.350 . S
C542 C541 1.434 . S
C543 C544 1.369 . S
C543 C545 1.419 . S
C543 H547 0.930 . S
C544 C543 1.369 . S
C544 C553 1.429 . S
C545 C543 1.419 . S
C545 C546 1.363 . S
C545 H548 0.929 . S
C546 C545 1.363 . S
C546 C552 1.428 . S
H547 C543 0.930 . S
H548 C545 0.929 . S
S549 N550 1.613 . S
S549 N551 1.610 . S
N550 S549 1.613 . S
N550 C553 1.350 . S
N551 S549 1.610 . S
N551 C552 1.351 . S
C552 C546 1.428 . S
C552 N551 1.351 . S
C552 C553 1.434 . S
C553 C544 1.429 . S
C553 N550 1.350 . S
C553 C552 1.434 . S
C554 C555 1.369 . S
C554 C556 1.419 . S
C554 H558 0.930 . S
C555 C554 1.369 . S
C555 C564 1.429 . S
C556 C554 1.419 . S
C556 C557 1.363 . S
C556 H559 0.929 . S
C557 C556 1.363 . S
C557 C563 1.428 . S
H558 C554 0.930 . S
H559 C556 0.929 . S
S560 N561 1.613 . S
S560 N562 1.610 . S
N561 S560 1.613 . S
N561 C564 1.350 . S
N562 S560 1.610 . S
N562 C563 1.351 . S
C563 C557 1.428 . S
C563 N562 1.351 . S
C563 C564 1.434 . S
C564 C555 1.429 . S
C564 N561 1.350 . S
C564 C563 1.434 . S
C565 C566 1.369 . S
C565 C567 1.419 . S
C565 H569 0.930 . S
C566 C565 1.369 . S
C566 C575 1.429 . S
C567 C565 1.419 . S
C567 C568 1.363 . S
C567 H570 0.929 . S
C568 C567 1.363 . S
C568 C574 1.428 . S
H569 C565 0.930 . S
H570 C567 0.929 . S
S571 N572 1.613 . S
S571 N573 1.613 . S
N572 S571 1.613 . S
N572 C575 1.350 . S
N573 S571 1.613 . S
N573 C574 1.357 . S
C574 C568 1.428 . S
C574 N573 1.357 . S
C574 C575 1.434 . S
C575 C566 1.429 . S
C575 N572 1.350 . S
C575 C574 1.434 . S
C225 C203 1.488 . S
C227 C7 1.492 . S
C236 C34 1.490 . S
C238 C6 1.491 . S
C247 C160 1.488 . S
C249 C20 1.492 . S
C258 C21 1.494 . S
C260 C105 1.487 . S
C269 C35 1.494 . S
C271 C175 1.487 . S
C280 C132 1.494 . S
C282 C48 1.488 . S
C291 C49 1.488 . S
C293 C77 1.491 . S
C302 C147 1.488 . S
C304 C63 1.491 . S
C313 C62 1.494 . S
C315 C90 1.488 . S
C324 C216 1.490 . S
C326 C76 1.490 . S
C335 C119 1.491 . S
C337 C91 1.490 . S
C346 C188 1.487 . S
C348 C104 1.492 . S
C357 C118 1.486 . S
C359 C146 1.493 . S
C368 C217 1.493 . S
C370 C133 1.488 . S
C379 C161 1.493 . S
C381 C189 1.488 . S
C390 C202 1.487 . S
C392 C174 1.492 . S
C401 C79 1.661 . S
C403 C8 1.662 1_565 S
C412 C9 1.659 . S
C414 C78 1.659 . S
C423 C23 1.663 . S
C425 C64 1.663 . S
C434 C65 1.663 . S
C436 C22 1.662 1_565 S
C445 C107 1.661 . S
C447 C36 1.660 1_545 S
C456 C106 1.659 . S
C458 C37 1.661 . S
C467 C92 1.662 . S
C469 C51 1.663 . S
C478 C50 1.661 1_545 S
C480 C93 1.662 . S
C489 C191 1.663 . S
C491 C120 1.663 1_565 S
C500 C121 1.663 . S
C502 C190 1.662 . S
C511 C135 1.663 . S
C513 C176 1.661 . S
C522 C177 1.659 . S
C524 C134 1.661 1_565 S
C533 C219 1.661 . S
C535 C148 1.660 1_545 S
C544 C218 1.662 . S
C546 C149 1.663 . S
C555 C163 1.660 . S
C557 C204 1.659 . S
C566 C205 1.659 . S
C568 C162 1.660 1_545 S
