# Generated by pormake.
# Topology tes, (8)-cn, num edge types: 1
# Building blocks:
#     Node 0, Type 0, BuildingBlock: EBIMEJ_clean_sbu_0, # of connection points: 8
#     Node 1, Type 0, BuildingBlock: EBIMEJ_clean_sbu_0, # of connection points: 8
#     Node 2, Type 0, BuildingBlock: EBIMEJ_clean_sbu_0, # of connection points: 8
#     Node 3, Type 0, BuildingBlock: EBIMEJ_clean_sbu_0, # of connection points: 8
#     Node 4, Type 0, BuildingBlock: EBIMEJ_clean_sbu_0, # of connection points: 8
#     Node 5, Type 0, BuildingBlock: EBIMEJ_clean_sbu_0, # of connection points: 8
#     Node 6, Type 0, BuildingBlock: EBIMEJ_clean_sbu_0, # of connection points: 8
#     Node 7, Type 0, BuildingBlock: EBIMEJ_clean_sbu_0, # of connection points: 8
#     Node 8, Type 0, BuildingBlock: EBIMEJ_clean_sbu_0, # of connection points: 8
#     Node 9, Type 0, BuildingBlock: EBIMEJ_clean_sbu_0, # of connection points: 8
#     Node 10, Type 0, BuildingBlock: EBIMEJ_clean_sbu_0, # of connection points: 8
#     Node 11, Type 0, BuildingBlock: EBIMEJ_clean_sbu_0, # of connection points: 8
#     Node 12, Type 0, BuildingBlock: EBIMEJ_clean_sbu_0, # of connection points: 8
#     Node 13, Type 0, BuildingBlock: EBIMEJ_clean_sbu_0, # of connection points: 8
#     Node 14, Type 0, BuildingBlock: EBIMEJ_clean_sbu_0, # of connection points: 8
#     Node 15, Type 0, BuildingBlock: EBIMEJ_clean_sbu_0, # of connection points: 8
#     Node 16, Type 0, BuildingBlock: EBIMEJ_clean_sbu_0, # of connection points: 8
#     Node 17, Type 0, BuildingBlock: EBIMEJ_clean_sbu_0, # of connection points: 8
#     Node 18, Type 0, BuildingBlock: EBIMEJ_clean_sbu_0, # of connection points: 8
#     Node 19, Type 0, BuildingBlock: EBIMEJ_clean_sbu_0, # of connection points: 8
#     Node 20, Type 0, BuildingBlock: EBIMEJ_clean_sbu_0, # of connection points: 8
#     Node 21, Type 0, BuildingBlock: EBIMEJ_clean_sbu_0, # of connection points: 8
#     Node 22, Type 0, BuildingBlock: EBIMEJ_clean_sbu_0, # of connection points: 8
#     Node 23, Type 0, BuildingBlock: EBIMEJ_clean_sbu_0, # of connection points: 8
#     Edge 24, Type (0, 0), BuildingBlock: OJICUG_clean_linker_0, # of connection points: 2
#     Edge 25, Type (0, 0), BuildingBlock: OJICUG_clean_linker_0, # of connection points: 2
#     Edge 26, Type (0, 0), BuildingBlock: OJICUG_clean_linker_0, # of connection points: 2
#     Edge 27, Type (0, 0), BuildingBlock: OJICUG_clean_linker_0, # of connection points: 2
#     Edge 28, Type (0, 0), BuildingBlock: OJICUG_clean_linker_0, # of connection points: 2
#     Edge 29, Type (0, 0), BuildingBlock: OJICUG_clean_linker_0, # of connection points: 2
#     Edge 30, Type (0, 0), BuildingBlock: OJICUG_clean_linker_0, # of connection points: 2
#     Edge 31, Type (0, 0), BuildingBlock: OJICUG_clean_linker_0, # of connection points: 2
#     Edge 32, Type (0, 0), BuildingBlock: OJICUG_clean_linker_0, # of connection points: 2
#     Edge 33, Type (0, 0), BuildingBlock: OJICUG_clean_linker_0, # of connection points: 2
#     Edge 34, Type (0, 0), BuildingBlock: OJICUG_clean_linker_0, # of connection points: 2
#     Edge 35, Type (0, 0), BuildingBlock: OJICUG_clean_linker_0, # of connection points: 2
#     Edge 36, Type (0, 0), BuildingBlock: OJICUG_clean_linker_0, # of connection points: 2
#     Edge 37, Type (0, 0), BuildingBlock: OJICUG_clean_linker_0, # of connection points: 2
#     Edge 38, Type (0, 0), BuildingBlock: OJICUG_clean_linker_0, # of connection points: 2
#     Edge 39, Type (0, 0), BuildingBlock: OJICUG_clean_linker_0, # of connection points: 2
#     Edge 40, Type (0, 0), BuildingBlock: OJICUG_clean_linker_0, # of connection points: 2
#     Edge 41, Type (0, 0), BuildingBlock: OJICUG_clean_linker_0, # of connection points: 2
#     Edge 42, Type (0, 0), BuildingBlock: OJICUG_clean_linker_0, # of connection points: 2
#     Edge 43, Type (0, 0), BuildingBlock: OJICUG_clean_linker_0, # of connection points: 2
#     Edge 44, Type (0, 0), BuildingBlock: OJICUG_clean_linker_0, # of connection points: 2
#     Edge 45, Type (0, 0), BuildingBlock: OJICUG_clean_linker_0, # of connection points: 2
#     Edge 46, Type (0, 0), BuildingBlock: OJICUG_clean_linker_0, # of connection points: 2
#     Edge 47, Type (0, 0), BuildingBlock: OJICUG_clean_linker_0, # of connection points: 2
#     Edge 48, Type (0, 0), BuildingBlock: OJICUG_clean_linker_0, # of connection points: 2
#     Edge 49, Type (0, 0), BuildingBlock: OJICUG_clean_linker_0, # of connection points: 2
#     Edge 50, Type (0, 0), BuildingBlock: OJICUG_clean_linker_0, # of connection points: 2
#     Edge 51, Type (0, 0), BuildingBlock: OJICUG_clean_linker_0, # of connection points: 2
#     Edge 52, Type (0, 0), BuildingBlock: OJICUG_clean_linker_0, # of connection points: 2
#     Edge 53, Type (0, 0), BuildingBlock: OJICUG_clean_linker_0, # of connection points: 2
#     Edge 54, Type (0, 0), BuildingBlock: OJICUG_clean_linker_0, # of connection points: 2
#     Edge 55, Type (0, 0), BuildingBlock: OJICUG_clean_linker_0, # of connection points: 2
#     Edge 56, Type (0, 0), BuildingBlock: OJICUG_clean_linker_0, # of connection points: 2
#     Edge 57, Type (0, 0), BuildingBlock: OJICUG_clean_linker_0, # of connection points: 2
#     Edge 58, Type (0, 0), BuildingBlock: OJICUG_clean_linker_0, # of connection points: 2
#     Edge 59, Type (0, 0), BuildingBlock: OJICUG_clean_linker_0, # of connection points: 2
#     Edge 60, Type (0, 0), BuildingBlock: OJICUG_clean_linker_0, # of connection points: 2
#     Edge 61, Type (0, 0), BuildingBlock: OJICUG_clean_linker_0, # of connection points: 2
#     Edge 62, Type (0, 0), BuildingBlock: OJICUG_clean_linker_0, # of connection points: 2
#     Edge 63, Type (0, 0), BuildingBlock: OJICUG_clean_linker_0, # of connection points: 2
#     Edge 64, Type (0, 0), BuildingBlock: OJICUG_clean_linker_0, # of connection points: 2
#     Edge 65, Type (0, 0), BuildingBlock: OJICUG_clean_linker_0, # of connection points: 2
#     Edge 66, Type (0, 0), BuildingBlock: OJICUG_clean_linker_0, # of connection points: 2
#     Edge 67, Type (0, 0), BuildingBlock: OJICUG_clean_linker_0, # of connection points: 2
#     Edge 68, Type (0, 0), BuildingBlock: OJICUG_clean_linker_0, # of connection points: 2
#     Edge 69, Type (0, 0), BuildingBlock: OJICUG_clean_linker_0, # of connection points: 2
#     Edge 70, Type (0, 0), BuildingBlock: OJICUG_clean_linker_0, # of connection points: 2
#     Edge 71, Type (0, 0), BuildingBlock: OJICUG_clean_linker_0, # of connection points: 2
#     Edge 72, Type (0, 0), BuildingBlock: OJICUG_clean_linker_0, # of connection points: 2
#     Edge 73, Type (0, 0), BuildingBlock: OJICUG_clean_linker_0, # of connection points: 2
#     Edge 74, Type (0, 0), BuildingBlock: OJICUG_clean_linker_0, # of connection points: 2
#     Edge 75, Type (0, 0), BuildingBlock: OJICUG_clean_linker_0, # of connection points: 2
#     Edge 76, Type (0, 0), BuildingBlock: OJICUG_clean_linker_0, # of connection points: 2
#     Edge 77, Type (0, 0), BuildingBlock: OJICUG_clean_linker_0, # of connection points: 2
#     Edge 78, Type (0, 0), BuildingBlock: OJICUG_clean_linker_0, # of connection points: 2
#     Edge 79, Type (0, 0), BuildingBlock: OJICUG_clean_linker_0, # of connection points: 2
#     Edge 80, Type (0, 0), BuildingBlock: OJICUG_clean_linker_0, # of connection points: 2
#     Edge 81, Type (0, 0), BuildingBlock: OJICUG_clean_linker_0, # of connection points: 2
#     Edge 82, Type (0, 0), BuildingBlock: OJICUG_clean_linker_0, # of connection points: 2
#     Edge 83, Type (0, 0), BuildingBlock: OJICUG_clean_linker_0, # of connection points: 2
#     Edge 84, Type (0, 0), BuildingBlock: OJICUG_clean_linker_0, # of connection points: 2
#     Edge 85, Type (0, 0), BuildingBlock: OJICUG_clean_linker_0, # of connection points: 2
#     Edge 86, Type (0, 0), BuildingBlock: OJICUG_clean_linker_0, # of connection points: 2
#     Edge 87, Type (0, 0), BuildingBlock: OJICUG_clean_linker_0, # of connection points: 2
#     Edge 88, Type (0, 0), BuildingBlock: OJICUG_clean_linker_0, # of connection points: 2
#     Edge 89, Type (0, 0), BuildingBlock: OJICUG_clean_linker_0, # of connection points: 2
#     Edge 90, Type (0, 0), BuildingBlock: OJICUG_clean_linker_0, # of connection points: 2
#     Edge 91, Type (0, 0), BuildingBlock: OJICUG_clean_linker_0, # of connection points: 2
#     Edge 92, Type (0, 0), BuildingBlock: OJICUG_clean_linker_0, # of connection points: 2
#     Edge 93, Type (0, 0), BuildingBlock: OJICUG_clean_linker_0, # of connection points: 2
#     Edge 94, Type (0, 0), BuildingBlock: OJICUG_clean_linker_0, # of connection points: 2
#     Edge 95, Type (0, 0), BuildingBlock: OJICUG_clean_linker_0, # of connection points: 2
#     Edge 96, Type (0, 0), BuildingBlock: OJICUG_clean_linker_0, # of connection points: 2
#     Edge 97, Type (0, 0), BuildingBlock: OJICUG_clean_linker_0, # of connection points: 2
#     Edge 98, Type (0, 0), BuildingBlock: OJICUG_clean_linker_0, # of connection points: 2
#     Edge 99, Type (0, 0), BuildingBlock: OJICUG_clean_linker_0, # of connection points: 2
#     Edge 100, Type (0, 0), BuildingBlock: OJICUG_clean_linker_0, # of connection points: 2
#     Edge 101, Type (0, 0), BuildingBlock: OJICUG_clean_linker_0, # of connection points: 2
#     Edge 102, Type (0, 0), BuildingBlock: OJICUG_clean_linker_0, # of connection points: 2
#     Edge 103, Type (0, 0), BuildingBlock: OJICUG_clean_linker_0, # of connection points: 2
#     Edge 104, Type (0, 0), BuildingBlock: OJICUG_clean_linker_0, # of connection points: 2
#     Edge 105, Type (0, 0), BuildingBlock: OJICUG_clean_linker_0, # of connection points: 2
#     Edge 106, Type (0, 0), BuildingBlock: OJICUG_clean_linker_0, # of connection points: 2
#     Edge 107, Type (0, 0), BuildingBlock: OJICUG_clean_linker_0, # of connection points: 2
#     Edge 108, Type (0, 0), BuildingBlock: OJICUG_clean_linker_0, # of connection points: 2
#     Edge 109, Type (0, 0), BuildingBlock: OJICUG_clean_linker_0, # of connection points: 2
#     Edge 110, Type (0, 0), BuildingBlock: OJICUG_clean_linker_0, # of connection points: 2
#     Edge 111, Type (0, 0), BuildingBlock: OJICUG_clean_linker_0, # of connection points: 2
#     Edge 112, Type (0, 0), BuildingBlock: OJICUG_clean_linker_0, # of connection points: 2
#     Edge 113, Type (0, 0), BuildingBlock: OJICUG_clean_linker_0, # of connection points: 2
#     Edge 114, Type (0, 0), BuildingBlock: OJICUG_clean_linker_0, # of connection points: 2
#     Edge 115, Type (0, 0), BuildingBlock: OJICUG_clean_linker_0, # of connection points: 2
#     Edge 116, Type (0, 0), BuildingBlock: OJICUG_clean_linker_0, # of connection points: 2
#     Edge 117, Type (0, 0), BuildingBlock: OJICUG_clean_linker_0, # of connection points: 2
#     Edge 118, Type (0, 0), BuildingBlock: OJICUG_clean_linker_0, # of connection points: 2
#     Edge 119, Type (0, 0), BuildingBlock: OJICUG_clean_linker_0, # of connection points: 2
# Relax obj value: 0.228
# Max RMSD: 0.301
# Mean RMSD: 0.292
data_MOF--net-tes--node1-EBIMEJ_clean_sbu_0--edge1-OJICUG_clean_linker_0
_symmetry_space_group_name_H-M    P1
_symmetry_Int_Tables_number       1
_symmetry_cell_setting            triclinic
loop_
_symmetry_equiv_pos_as_xyz
'x, y, z'
_cell_length_a     38.225192
_cell_length_b     37.899613
_cell_length_c     39.304207
_cell_angle_alpha  90.951559
_cell_angle_beta   91.593384
_cell_angle_gamma 91.462736
loop_
_atom_site_label
_atom_site_type_symbol
_atom_site_fract_x
_atom_site_fract_y
_atom_site_fract_z
_atom_type_partial_charge
Co0 Co 0.08957 0.38398 0.44699 0.0
Co1 Co 0.12918 0.42644 0.37972 0.0
Co2 Co 0.13584 0.34754 0.39453 0.0
H3 H 0.12023 0.3755 0.41869 0.0
O4 O 0.13257 0.39498 0.42092 0.0
H5 H 0.14728 0.39811 0.35786 0.0
O6 O 0.13424 0.37925 0.35438 0.0
Co7 Co 0.1811 0.38834 0.33435 0.0
O8 O 0.16845 0.43179 0.30691 0.0
O9 O 0.12607 0.45609 0.33676 0.0
O10 O 0.19059 0.33501 0.34002 0.0
O11 O 0.14652 0.30772 0.36592 0.0
O12 O 0.04231 0.40679 0.453 0.0
O13 O 0.0698 0.38709 0.49491 0.0
O14 O 0.21168 0.43208 0.34703 0.0
O15 O 0.17974 0.4478 0.39047 0.0
C16 C 0.12463 0.31491 0.46457 0.0
C17 C 0.09699 0.46626 0.4322 0.0
C18 C 0.2254 0.37334 0.29392 0.0
C19 C 0.0603 0.32268 0.40836 0.0
C20 C 0.14557 0.45544 0.3106 0.0
C21 C 0.17369 0.307 0.3484 0.0
C22 C 0.04254 0.40182 0.48458 0.0
C23 C 0.20753 0.45215 0.37276 0.0
O24 O 0.10336 0.33905 0.47252 0.0
O25 O 0.1405 0.31579 0.43612 0.0
O26 O 0.11459 0.46709 0.40552 0.0
O27 O 0.08882 0.4378 0.44728 0.0
O28 O 0.232 0.37914 0.32508 0.0
O29 O 0.19338 0.37458 0.28609 0.0
O30 O 0.0602 0.34072 0.43573 0.0
O31 O 0.08427 0.32886 0.38655 0.0
Co32 Co 0.88442 0.9451 0.58279 0.0
Co33 Co 0.93539 0.87915 0.62759 0.0
Co34 Co 0.85762 0.89753 0.63963 0.0
H35 H 0.8824 0.91983 0.61725 0.0
O36 O 0.90322 0.92299 0.62654 0.0
H37 H 0.9086 0.85866 0.64863 0.0
O38 O 0.88848 0.85495 0.63825 0.0
Co39 Co 0.90162 0.83647 0.6836 0.0
O40 O 0.94524 0.80823 0.6744 0.0
O41 O 0.96537 0.83498 0.62848 0.0
O42 O 0.86111 0.86423 0.70236 0.0
O43 O 0.82141 0.87018 0.66129 0.0
O44 O 0.90657 0.95211 0.53699 0.0
O45 O 0.88814 0.99529 0.56437 0.0
O46 O 0.94541 0.8516 0.70987 0.0
O47 O 0.95845 0.89523 0.67507 0.0
C48 C 0.82196 0.96841 0.62289 0.0
C49 C 0.95751 0.92124 0.58479 0.0
C50 C 0.87431 0.79198 0.7184 0.0
C51 C 0.82516 0.89916 0.56572 0.0
C52 C 0.96739 0.81052 0.65073 0.0
C53 C 0.8294 0.86132 0.69135 0.0
C54 C 0.90325 0.98489 0.53823 0.0
C55 C 0.96399 0.87866 0.70333 0.0
O56 O 0.84165 0.9733 0.59741 0.0
O57 O 0.82671 0.9418 0.6426 0.0
O58 O 0.97412 0.90382 0.60644 0.0
O59 O 0.92513 0.91283 0.58189 0.0
O60 O 0.88593 0.82132 0.72957 0.0
O61 O 0.87808 0.78765 0.68696 0.0
O62 O 0.84148 0.92718 0.55793 0.0
O63 O 0.83233 0.88309 0.59374 0.0
Co64 Co 0.44277 0.63708 0.94539 0.0
Co65 Co 0.40125 0.58491 0.87689 0.0
Co66 Co 0.38818 0.66389 0.89322 0.0
H67 H 0.40968 0.63954 0.91687 0.0
O68 O 0.39977 0.61876 0.91886 0.0
H69 H 0.38203 0.61171 0.85466 0.0
O70 O 0.39331 0.63169 0.85263 0.0
Co71 Co 0.34853 0.61902 0.82845 0.0
O72 O 0.36181 0.57649 0.8 0.0
O73 O 0.4024 0.55329 0.83437 0.0
O74 O 0.32344 0.6598 0.85136 0.0
O75 O 0.36603 0.69915 0.86516 0.0
O76 O 0.48719 0.61137 0.95677 0.0
O77 O 0.45584 0.63063 0.99553 0.0
O78 O 0.3182 0.57698 0.84239 0.0
O79 O 0.35156 0.56498 0.88753 0.0
C80 C 0.40022 0.70083 0.96332 0.0
C81 C 0.43874 0.56095 0.92395 0.0
C82 C 0.33268 0.65116 0.77769 0.0
C83 C 0.46251 0.6987 0.9055 0.0
C84 C 0.38453 0.55323 0.80616 0.0
C85 C 0.33453 0.69181 0.85594 0.0
C86 C 0.48243 0.61367 0.98813 0.0
C87 C 0.32323 0.55949 0.86936 0.0
O88 O 0.42619 0.68131 0.97049 0.0
O89 O 0.38162 0.69566 0.93564 0.0
O90 O 0.41838 0.5452 0.90302 0.0
O91 O 0.44504 0.59307 0.91666 0.0
O92 O 0.31301 0.64703 0.80241 0.0
O93 O 0.36115 0.63567 0.78092 0.0
O94 O 0.46733 0.682 0.93291 0.0
O95 O 0.43628 0.69021 0.88508 0.0
Co96 Co 0.64487 0.18405 0.1995 0.0
Co97 Co 0.68341 0.14539 0.13169 0.0
Co98 Co 0.6061 0.13439 0.14634 0.0
H99 H 0.63434 0.15229 0.17081 0.0
O100 O 0.65332 0.14033 0.17253 0.0
H101 H 0.65509 0.1269 0.10832 0.0
O102 O 0.63637 0.13911 0.10616 0.0
Co103 Co 0.64438 0.09409 0.08131 0.0
O104 O 0.68827 0.10726 0.05655 0.0
O105 O 0.71217 0.15081 0.08932 0.0
O106 O 0.59986 0.07492 0.10259 0.0
O107 O 0.56682 0.11931 0.11708 0.0
O108 O 0.67442 0.22928 0.20757 0.0
O109 O 0.64193 0.20948 0.24518 0.0
O110 O 0.68532 0.06275 0.09282 0.0
O111 O 0.70261 0.09433 0.13853 0.0
C112 C 0.57576 0.1464 0.21665 0.0
C113 C 0.72571 0.17373 0.18822 0.0
C114 C 0.61406 0.07012 0.03013 0.0
C115 C 0.58341 0.20997 0.16064 0.0
C116 C 0.71153 0.13149 0.06217 0.0
C117 C 0.57011 0.08966 0.10247 0.0
C118 C 0.66329 0.23337 0.23716 0.0
C119 C 0.7051 0.06648 0.11924 0.0
O120 O 0.60001 0.1694 0.22416 0.0
O121 O 0.57562 0.12888 0.18825 0.0
O122 O 0.72406 0.16043 0.15852 0.0
O123 O 0.69878 0.18112 0.20548 0.0
O124 O 0.61633 0.0543 0.05785 0.0
O125 O 0.62981 0.09959 0.03104 0.0
O126 O 0.60197 0.21239 0.18792 0.0
O127 O 0.588 0.18463 0.13926 0.0
Co128 Co 0.08821 0.63149 0.06933 0.0
Co129 Co 0.13092 0.59264 0.13664 0.0
Co130 Co 0.14048 0.66994 0.11926 0.0
H131 H 0.12174 0.64129 0.0961 0.0
O132 O 0.13346 0.62209 0.09438 0.0
H133 H 0.15009 0.62227 0.15881 0.0
O134 O 0.1374 0.64074 0.16033 0.0
Co135 Co 0.18276 0.63559 0.18549 0.0
O136 O 0.1734 0.58884 0.21009 0.0
O137 O 0.12781 0.56475 0.18033 0.0
O138 O 0.1992 0.68709 0.17361 0.0
O139 O 0.15343 0.71056 0.14659 0.0
O140 O 0.0439 0.60173 0.05895 0.0
O141 O 0.06548 0.63385 0.02175 0.0
O142 O 0.21571 0.59674 0.17097 0.0
O143 O 0.18129 0.5739 0.12927 0.0
C144 C 0.12449 0.70127 0.04986 0.0
C145 C 0.09788 0.54959 0.08347 0.0
C146 C 0.20044 0.66003 0.24147 0.0
C147 C 0.06185 0.68886 0.11146 0.0
C148 C 0.14895 0.56522 0.20634 0.0
C149 C 0.18217 0.71381 0.16279 0.0
C150 C 0.04139 0.61229 0.02884 0.0
C151 C 0.21063 0.57449 0.14654 0.0
O152 O 0.10003 0.67794 0.04424 0.0
O153 O 0.1446 0.6998 0.07657 0.0
O154 O 0.11535 0.55068 0.11132 0.0
O155 O 0.0888 0.57715 0.06739 0.0
O156 O 0.17805 0.63553 0.23707 0.0
O157 O 0.21276 0.67057 0.21399 0.0
O158 O 0.05517 0.66802 0.08648 0.0
O159 O 0.09166 0.68878 0.12711 0.0
Co160 Co 0.62631 0.84063 0.3236 0.0
Co161 Co 0.68029 0.88051 0.39262 0.0
Co162 Co 0.60011 0.89157 0.37704 0.0
H163 H 0.62467 0.87277 0.35272 0.0
O164 O 0.64514 0.88315 0.35076 0.0
H165 H 0.65409 0.8993 0.41523 0.0
O166 O 0.63438 0.88777 0.41766 0.0
Co167 Co 0.64899 0.9336 0.44099 0.0
O168 O 0.68709 0.91392 0.47183 0.0
O169 O 0.71234 0.87759 0.43518 0.0
O170 O 0.60693 0.94961 0.41308 0.0
O171 O 0.56503 0.90983 0.40651 0.0
O172 O 0.64955 0.79388 0.3174 0.0
O173 O 0.64036 0.82769 0.27628 0.0
O174 O 0.69477 0.95989 0.43165 0.0
O175 O 0.70003 0.93098 0.38296 0.0
C176 C 0.5613 0.88085 0.30597 0.0
C177 C 0.70353 0.84684 0.34355 0.0
C178 C 0.62413 0.97388 0.48212 0.0
C179 C 0.56689 0.81689 0.36248 0.0
C180 C 0.71099 0.89226 0.4649 0.0
C181 C 0.57576 0.9392 0.41912 0.0
C182 C 0.65347 0.79955 0.2864 0.0
C183 C 0.70993 0.95647 0.40348 0.0
O184 O 0.58197 0.85622 0.29781 0.0
O185 O 0.56619 0.89796 0.33472 0.0
O186 O 0.72 0.86485 0.36578 0.0
O187 O 0.67134 0.84266 0.35019 0.0
O188 O 0.6439 0.98371 0.45892 0.0
O189 O 0.61891 0.94104 0.48231 0.0
O190 O 0.58167 0.8149 0.33402 0.0
O191 O 0.577 0.84126 0.38447 0.0
Co192 Co 0.3246 0.38285 0.68295 0.0
Co193 Co 0.39337 0.33546 0.63897 0.0
Co194 Co 0.37331 0.41395 0.62885 0.0
H195 H 0.3509 0.38723 0.64951 0.0
O196 O 0.34869 0.36659 0.63951 0.0
H197 H 0.41361 0.36388 0.61891 0.0
O198 O 0.41637 0.38379 0.62993 0.0
Co199 Co 0.43707 0.37257 0.58502 0.0
O200 O 0.46664 0.3303 0.59589 0.0
O201 O 0.43796 0.30635 0.63877 0.0
O202 O 0.41048 0.41523 0.56904 0.0
O203 O 0.40048 0.45261 0.6106 0.0
O204 O 0.27492 0.38089 0.70182 0.0
O205 O 0.31652 0.35708 0.72719 0.0
O206 O 0.42287 0.32916 0.55749 0.0
O207 O 0.37913 0.31395 0.59075 0.0
C208 C 0.30202 0.4482 0.6449 0.0
C209 C 0.35088 0.30948 0.67918 0.0
C210 C 0.48436 0.38866 0.54734 0.0
C211 C 0.37089 0.441 0.70424 0.0
C212 C 0.46359 0.30653 0.61823 0.0
C213 C 0.41396 0.4461 0.58225 0.0
C214 C 0.28447 0.36305 0.7269 0.0
C215 C 0.39636 0.30963 0.56308 0.0
O216 O 0.29651 0.42673 0.66922 0.0
O217 O 0.32901 0.44469 0.62605 0.0
O218 O 0.36964 0.29448 0.65801 0.0
O219 O 0.35731 0.34247 0.68252 0.0
O220 O 0.46461 0.36196 0.54306 0.0
O221 O 0.47727 0.40679 0.5732 0.0
O222 O 0.34321 0.42375 0.71087 0.0
O223 O 0.38664 0.43627 0.67598 0.0
Co224 Co 0.89133 0.18234 0.8289 0.0
Co225 Co 0.84928 0.14371 0.89339 0.0
Co226 Co 0.92722 0.13388 0.88059 0.0
H227 H 0.89992 0.15053 0.85628 0.0
O228 O 0.8805 0.13833 0.85347 0.0
H229 H 0.87646 0.12513 0.91645 0.0
O230 O 0.89564 0.13753 0.92007 0.0
Co231 Co 0.88471 0.09109 0.94106 0.0
O232 O 0.84345 0.1079 0.96761 0.0
O233 O 0.82004 0.1495 0.93511 0.0
O234 O 0.93614 0.07817 0.93452 0.0
O235 O 0.96633 0.12141 0.91009 0.0
O236 O 0.88958 0.23611 0.82385 0.0
O237 O 0.86655 0.20128 0.78735 0.0
O238 O 0.8404 0.06151 0.92906 0.0
O239 O 0.82663 0.09308 0.88413 0.0
C240 C 0.95765 0.14416 0.81053 0.0
C241 C 0.81017 0.17128 0.83658 0.0
C242 C 0.90049 0.04811 0.98379 0.0
C243 C 0.95392 0.20986 0.86667 0.0
C244 C 0.82088 0.13153 0.96242 0.0
C245 C 0.96497 0.09438 0.92851 0.0
C246 C 0.87323 0.23289 0.79574 0.0
C247 C 0.82107 0.0657 0.9027 0.0
O248 O 0.93437 0.16668 0.80331 0.0
O249 O 0.95778 0.12786 0.83901 0.0
O250 O 0.80942 0.15862 0.86607 0.0
O251 O 0.83832 0.1776 0.82083 0.0
O252 O 0.898 0.04106 0.95239 0.0
O253 O 0.89497 0.07989 0.99077 0.0
O254 O 0.93507 0.21114 0.83975 0.0
O255 O 0.94805 0.18513 0.88816 0.0
Co256 Co 0.43904 0.08633 0.37831 0.0
Co257 Co 0.37459 0.12962 0.4218 0.0
Co258 Co 0.39471 0.14534 0.34834 0.0
H259 H 0.4159 0.12257 0.37361 0.0
O260 O 0.41866 0.13246 0.39363 0.0
H261 H 0.35334 0.1507 0.3951 0.0
O262 O 0.35151 0.14021 0.37541 0.0
Co263 Co 0.32702 0.18411 0.38674 0.0
O264 O 0.3029 0.17328 0.43073 0.0
O265 O 0.33028 0.12497 0.44751 0.0
O266 O 0.34385 0.2072 0.34309 0.0
O267 O 0.36888 0.166 0.31096 0.0
O268 O 0.44582 0.03753 0.39706 0.0
O269 O 0.48846 0.07275 0.39075 0.0
O270 O 0.34312 0.21384 0.42806 0.0
O271 O 0.38554 0.17862 0.44497 0.0
C272 C 0.46505 0.12801 0.31806 0.0
C273 C 0.4168 0.08664 0.44935 0.0
C274 C 0.26855 0.20069 0.36589 0.0
C275 C 0.39503 0.06741 0.32006 0.0
C276 C 0.30578 0.14694 0.45023 0.0
C277 C 0.35286 0.19464 0.31419 0.0
C278 C 0.47817 0.04307 0.40084 0.0
C279 C 0.3684 0.20732 0.44856 0.0
O280 O 0.46773 0.10113 0.33718 0.0
O281 O 0.43979 0.14967 0.3213 0.0
O282 O 0.39919 0.11097 0.46145 0.0
O283 O 0.40865 0.07847 0.41859 0.0
O284 O 0.27804 0.20099 0.39669 0.0
O285 O 0.29227 0.19107 0.34682 0.0
O286 O 0.4201 0.0577 0.339 0.0
O287 O 0.3822 0.09828 0.32332 0.0
Co288 Co 0.07832 0.08158 0.63947 0.0
Co289 Co 0.14373 0.12636 0.59228 0.0
Co290 Co 0.12793 0.14014 0.66807 0.0
H291 H 0.1044 0.11738 0.64318 0.0
O292 O 0.10112 0.12706 0.62348 0.0
H293 H 0.16594 0.14853 0.61844 0.0
O294 O 0.16953 0.13807 0.63762 0.0
Co295 Co 0.19006 0.18494 0.6252 0.0
O296 O 0.21879 0.17001 0.58572 0.0
O297 O 0.18664 0.12465 0.56383 0.0
O298 O 0.16054 0.19938 0.66435 0.0
O299 O 0.15662 0.16113 0.70441 0.0
O300 O 0.06803 0.03526 0.61499 0.0
O301 O 0.02724 0.06757 0.63046 0.0
O302 O 0.17805 0.20962 0.58186 0.0
O303 O 0.13103 0.17524 0.57161 0.0
C304 C 0.05893 0.12237 0.70243 0.0
C305 C 0.09841 0.08337 0.56707 0.0
C306 C 0.2338 0.22551 0.6504 0.0
C307 C 0.12311 0.06461 0.69688 0.0
C308 C 0.21377 0.14508 0.56392 0.0
C309 C 0.16941 0.18977 0.69408 0.0
C310 C 0.0357 0.03994 0.61504 0.0
C311 C 0.14996 0.20295 0.56493 0.0
O312 O 0.05301 0.09559 0.6827 0.0
O313 O 0.08523 0.14356 0.69816 0.0
O314 O 0.11738 0.10603 0.55335 0.0
O315 O 0.10725 0.07749 0.59787 0.0
O316 O 0.20947 0.23485 0.63071 0.0
O317 O 0.23366 0.19287 0.65543 0.0
O318 O 0.09488 0.05624 0.68081 0.0
O319 O 0.14045 0.09308 0.69023 0.0
Co320 Co 0.18552 0.83736 0.88496 0.0
Co321 Co 0.14403 0.9006 0.84361 0.0
Co322 Co 0.1327 0.88689 0.91874 0.0
H323 H 0.15217 0.863 0.89319 0.0
O324 O 0.14022 0.85934 0.87433 0.0
H325 H 0.12605 0.92517 0.86931 0.0
O326 O 0.13799 0.92843 0.88823 0.0
Co327 Co 0.09332 0.95192 0.87686 0.0
O328 O 0.10997 0.97973 0.83577 0.0
O329 O 0.14842 0.94312 0.81323 0.0
O330 O 0.07033 0.92634 0.91691 0.0
O331 O 0.11348 0.91632 0.95419 0.0
O332 O 0.23709 0.82582 0.88381 0.0
O333 O 0.19834 0.78845 0.86805 0.0
O334 O 0.06601 0.94053 0.83245 0.0
O335 O 0.09377 0.89086 0.8234 0.0
C336 C 0.14407 0.81423 0.948 0.0
C337 C 0.18696 0.8545 0.80844 0.0
C338 C 0.06765 0.99954 0.90956 0.0
C339 C 0.20879 0.87699 0.9468 0.0
C340 C 0.13219 0.97236 0.81312 0.0
C341 C 0.08196 0.92407 0.94775 0.0
C342 C 0.23052 0.79483 0.87325 0.0
C343 C 0.06901 0.91201 0.81537 0.0
O344 O 0.1675 0.80874 0.92586 0.0
O345 O 0.12661 0.84293 0.94799 0.0
O346 O 0.15868 0.87105 0.80662 0.0
O347 O 0.20313 0.84941 0.83688 0.0
O348 O 0.09798 1.00166 0.89822 0.0
O349 O 0.05188 0.97101 0.90157 0.0
O350 O 0.21309 0.85102 0.9269 0.0
O351 O 0.18174 0.89647 0.9429 0.0
Co352 Co 0.32765 0.83752 0.12434 0.0
Co353 Co 0.37106 0.89674 0.1731 0.0
Co354 Co 0.38392 0.88676 0.09727 0.0
H355 H 0.36306 0.86205 0.12017 0.0
O356 O 0.37401 0.85713 0.13908 0.0
H357 H 0.38912 0.92286 0.14944 0.0
O358 O 0.37795 0.9267 0.13043 0.0
Co359 Co 0.42261 0.95052 0.14485 0.0
O360 O 0.40133 0.97916 0.18283 0.0
O361 O 0.36736 0.93796 0.20646 0.0
O362 O 0.44595 0.92431 0.10575 0.0
O363 O 0.40561 0.91764 0.06475 0.0
O364 O 0.28955 0.84438 0.15942 0.0
O365 O 0.27735 0.82296 0.11159 0.0
O366 O 0.44897 0.93985 0.18899 0.0
O367 O 0.42185 0.88795 0.19287 0.0
C368 C 0.37218 0.81451 0.06392 0.0
C369 C 0.34497 0.8334 0.20257 0.0
C370 C 0.45965 0.99492 0.11952 0.0
C371 C 0.31037 0.87544 0.06311 0.0
C372 C 0.38073 0.9694 0.20605 0.0
C373 C 0.43701 0.92471 0.07411 0.0
C374 C 0.26598 0.83103 0.14023 0.0
C375 C 0.44672 0.90994 0.20296 0.0
O376 O 0.34713 0.80832 0.08433 0.0
O377 O 0.39013 0.84384 0.0658 0.0
O378 O 0.35604 0.86488 0.20796 0.0
O379 O 0.33679 0.82045 0.1729 0.0
O380 O 0.47029 0.96608 0.13054 0.0
O381 O 0.4275 0.99915 0.12326 0.0
O382 O 0.30555 0.84703 0.07896 0.0
O383 O 0.33614 0.89661 0.07211 0.0
Co384 Co 0.386 0.44548 0.08399 0.0
Co385 Co 0.43531 0.37771 0.12753 0.0
Co386 Co 0.3592 0.39923 0.1422 0.0
H387 H 0.38381 0.42041 0.11864 0.0
O388 O 0.40498 0.42272 0.1272 0.0
H389 H 0.4086 0.35837 0.1496 0.0
O390 O 0.38808 0.35555 0.13989 0.0
Co391 Co 0.40118 0.33624 0.18464 0.0
O392 O 0.44487 0.30762 0.17572 0.0
O393 O 0.46371 0.33248 0.12828 0.0
O394 O 0.36342 0.36604 0.20626 0.0
O395 O 0.32303 0.37378 0.16571 0.0
O396 O 0.40828 0.45343 0.03853 0.0
O397 O 0.38909 0.49607 0.06615 0.0
O398 O 0.44507 0.35166 0.21022 0.0
O399 O 0.45901 0.39391 0.17407 0.0
C400 C 0.32404 0.47008 0.12418 0.0
C401 C 0.45836 0.41933 0.08458 0.0
C402 C 0.36695 0.29079 0.21222 0.0
C403 C 0.32845 0.39713 0.06785 0.0
C404 C 0.46612 0.30867 0.15115 0.0
C405 C 0.33132 0.36639 0.19612 0.0
C406 C 0.4046 0.48612 0.04007 0.0
C407 C 0.46395 0.3782 0.20274 0.0
O408 O 0.34308 0.4739 0.09807 0.0
O409 O 0.32944 0.44438 0.14485 0.0
O410 O 0.47456 0.40076 0.10555 0.0
O411 O 0.42572 0.41204 0.08196 0.0
O412 O 0.3761 0.28789 0.18189 0.0
O413 O 0.37792 0.31884 0.2267 0.0
O414 O 0.34569 0.42386 0.05827 0.0
O415 O 0.33316 0.384 0.09758 0.0
Co416 Co 0.82391 0.88305 0.18187 0.0
Co417 Co 0.89041 0.83222 0.1389 0.0
Co418 Co 0.8756 0.9118 0.12913 0.0
H419 H 0.85123 0.88628 0.14919 0.0
O420 O 0.84793 0.86593 0.13882 0.0
H421 H 0.91323 0.85948 0.12001 0.0
O422 O 0.91675 0.87911 0.13137 0.0
Co423 Co 0.93879 0.86693 0.08735 0.0
O424 O 0.96993 0.82802 0.10537 0.0
O425 O 0.93273 0.80055 0.13955 0.0
O426 O 0.91408 0.90997 0.06885 0.0
O427 O 0.90534 0.94839 0.11035 0.0
O428 O 0.77356 0.88249 0.19907 0.0
O429 O 0.81389 0.85955 0.22703 0.0
O430 O 0.92547 0.8219 0.06121 0.0
O431 O 0.87711 0.812 0.08984 0.0
C432 C 0.80503 0.94892 0.14286 0.0
C433 C 0.84667 0.80884 0.17925 0.0
C434 C 0.98273 0.88544 0.04684 0.0
C435 C 0.86944 0.94228 0.20248 0.0
C436 C 0.96235 0.8026 0.12497 0.0
C437 C 0.91655 0.94143 0.08099 0.0
C438 C 0.7819 0.86593 0.22534 0.0
C439 C 0.8968 0.80482 0.06434 0.0
O440 O 0.79771 0.92733 0.16659 0.0
O441 O 0.83289 0.94492 0.12522 0.0
O442 O 0.86359 0.79295 0.15708 0.0
O443 O 0.85513 0.84137 0.18303 0.0
O444 O 0.95973 0.86181 0.04076 0.0
O445 O 0.98072 0.89906 0.07608 0.0
O446 O 0.83995 0.92717 0.20647 0.0
O447 O 0.88851 0.93396 0.177 0.0
Co448 Co 0.14785 0.68765 0.69846 0.0
Co449 Co 0.18289 0.64481 0.63192 0.0
Co450 Co 0.10583 0.63899 0.64767 0.0
H451 H 0.13536 0.65501 0.67151 0.0
O452 O 0.15349 0.64188 0.67338 0.0
H453 H 0.15316 0.6271 0.60937 0.0
O454 O 0.13538 0.64063 0.60714 0.0
Co455 Co 0.13967 0.59444 0.58316 0.0
O456 O 0.1854 0.60352 0.55875 0.0
O457 O 0.2107 0.64815 0.58906 0.0
O458 O 0.08739 0.58362 0.59312 0.0
O459 O 0.06446 0.62963 0.61972 0.0
O460 O 0.15545 0.74123 0.69294 0.0
O461 O 0.18108 0.7144 0.73174 0.0
O462 O 0.17842 0.56051 0.5964 0.0
O463 O 0.20026 0.59341 0.63945 0.0
C464 C 0.07863 0.65136 0.71889 0.0
C465 C 0.22713 0.67066 0.68759 0.0
C466 C 0.11273 0.56849 0.53139 0.0
C467 C 0.08583 0.71406 0.66302 0.0
C468 C 0.20945 0.62735 0.563 0.0
C469 C 0.06123 0.60245 0.60095 0.0
C470 C 0.1763 0.74369 0.71816 0.0
C471 C 0.19998 0.56445 0.62156 0.0
O472 O 0.10442 0.67285 0.72624 0.0
O473 O 0.07617 0.63547 0.68977 0.0
O474 O 0.22469 0.6584 0.65758 0.0
O475 O 0.20081 0.67857 0.7056 0.0
O476 O 0.10764 0.55706 0.56076 0.0
O477 O 0.13324 0.59485 0.53136 0.0
O478 O 0.10334 0.71506 0.69096 0.0
O479 O 0.09237 0.69051 0.64051 0.0
Co480 Co 0.59181 0.8818 0.94291 0.0
Co481 Co 0.63148 0.92538 0.87865 0.0
Co482 Co 0.63971 0.84614 0.89111 0.0
H483 H 0.62318 0.87341 0.91548 0.0
O484 O 0.63545 0.89285 0.91856 0.0
H485 H 0.64979 0.89813 0.856 0.0
O486 O 0.63729 0.87902 0.85189 0.0
Co487 Co 0.68386 0.8899 0.83243 0.0
O488 O 0.67037 0.9337 0.80628 0.0
O489 O 0.62739 0.95601 0.83678 0.0
O490 O 0.69798 0.83876 0.84226 0.0
O491 O 0.65282 0.80744 0.86149 0.0
O492 O 0.5403 0.89366 0.94863 0.0
O493 O 0.57528 0.89184 0.99048 0.0
O494 O 0.71378 0.93373 0.84538 0.0
O495 O 0.68188 0.94759 0.88942 0.0
C496 C 0.62721 0.81242 0.95995 0.0
C497 C 0.6007 0.96425 0.93357 0.0
C498 C 0.72495 0.87316 0.78951 0.0
C499 C 0.56366 0.82039 0.90299 0.0
C500 C 0.64683 0.95646 0.81065 0.0
C501 C 0.68127 0.80941 0.84581 0.0
C502 C 0.54426 0.89633 0.98046 0.0
C503 C 0.70946 0.95304 0.87157 0.0
O504 O 0.60541 0.83624 0.96744 0.0
O505 O 0.64422 0.81377 0.93215 0.0
O506 O 0.61659 0.96508 0.90582 0.0
O507 O 0.59243 0.93574 0.94858 0.0
O508 O 0.69327 0.87866 0.78274 0.0
O509 O 0.7328 0.87604 0.82076 0.0
O510 O 0.56222 0.83919 0.9298 0.0
O511 O 0.58873 0.82586 0.88217 0.0
Co512 Co 0.94033 0.13866 0.44826 0.0
Co513 Co 0.90022 0.08776 0.37644 0.0
Co514 Co 0.88552 0.16602 0.39676 0.0
H515 H 0.90747 0.1411 0.41938 0.0
O516 O 0.89827 0.11987 0.42019 0.0
H517 H 0.88043 0.11527 0.35575 0.0
O518 O 0.89105 0.13571 0.35471 0.0
Co519 Co 0.84684 0.12275 0.32984 0.0
O520 O 0.85507 0.07779 0.30333 0.0
O521 O 0.90149 0.05783 0.33191 0.0
O522 O 0.82186 0.16115 0.35584 0.0
O523 O 0.86275 0.2019 0.37015 0.0
O524 O 0.9845 0.1122 0.45897 0.0
O525 O 0.95439 0.13217 0.49827 0.0
O526 O 0.81488 0.08272 0.34489 0.0
O527 O 0.85083 0.0662 0.38666 0.0
C528 C 0.8976 0.20174 0.46819 0.0
C529 C 0.93715 0.06294 0.42325 0.0
C530 C 0.83633 0.14897 0.2741 0.0
C531 C 0.95926 0.20133 0.40953 0.0
C532 C 0.8797 0.05592 0.30618 0.0
C533 C 0.83221 0.19345 0.35873 0.0
C534 C 0.98052 0.11472 0.49043 0.0
C535 C 0.82111 0.06316 0.37022 0.0
O536 O 0.92386 0.18235 0.47476 0.0
O537 O 0.87887 0.19654 0.44049 0.0
O538 O 0.91861 0.04721 0.40076 0.0
O539 O 0.94166 0.09578 0.41778 0.0
O540 O 0.82751 0.11797 0.28143 0.0
O541 O 0.85147 0.16527 0.29846 0.0
O542 O 0.96423 0.18439 0.43679 0.0
O543 O 0.93317 0.1929 0.38901 0.0
Co544 Co 0.58635 0.1299 0.56497 0.0
Co545 Co 0.62933 0.09 0.63702 0.0
Co546 Co 0.63563 0.16835 0.6174 0.0
H547 H 0.61859 0.13886 0.59394 0.0
O548 O 0.63041 0.11959 0.59321 0.0
H549 H 0.64846 0.12062 0.65765 0.0
O550 O 0.63546 0.13892 0.65909 0.0
Co551 Co 0.68156 0.1348 0.68322 0.0
O552 O 0.67249 0.08968 0.71008 0.0
O553 O 0.62753 0.06349 0.68118 0.0
O554 O 0.69437 0.18661 0.67051 0.0
O555 O 0.64765 0.20988 0.64456 0.0
O556 O 0.54153 0.1012 0.55437 0.0
O557 O 0.56959 0.12444 0.51532 0.0
O558 O 0.71408 0.09511 0.66982 0.0
O559 O 0.67948 0.0717 0.62862 0.0
C560 C 0.62386 0.19644 0.54383 0.0
C561 C 0.59031 0.0581 0.59305 0.0
C562 C 0.70612 0.16066 0.73628 0.0
C563 C 0.561 0.18976 0.60336 0.0
C564 C 0.64858 0.06549 0.70712 0.0
C565 C 0.67645 0.21318 0.66097 0.0
C566 C 0.54353 0.10571 0.52298 0.0
C567 C 0.70885 0.0725 0.64573 0.0
O568 O 0.60459 0.16959 0.5349 0.0
O569 O 0.63706 0.19936 0.57441 0.0
O570 O 0.61287 0.0468 0.6135 0.0
O571 O 0.58325 0.09035 0.59796 0.0
O572 O 0.6813 0.13836 0.73507 0.0
O573 O 0.71688 0.16832 0.70729 0.0
O574 O 0.55954 0.17396 0.5746 0.0
O575 O 0.58482 0.18214 0.62551 0.0
Co576 Co 0.13791 0.33049 0.82894 0.0
Co577 Co 0.18842 0.37352 0.89503 0.0
Co578 Co 0.11002 0.38554 0.87792 0.0
H579 H 0.13471 0.3646 0.85534 0.0
O580 O 0.15503 0.37506 0.853 0.0
H581 H 0.16167 0.39188 0.91733 0.0
O582 O 0.14195 0.3803 0.9191 0.0
Co583 Co 0.15461 0.42522 0.94379 0.0
O584 O 0.19398 0.4079 0.97392 0.0
O585 O 0.21936 0.37116 0.93764 0.0
O586 O 0.11644 0.44754 0.91497 0.0
O587 O 0.07484 0.40687 0.90534 0.0
O588 O 0.16144 0.28385 0.82214 0.0
O589 O 0.15245 0.31861 0.78169 0.0
O590 O 0.19799 0.45491 0.93244 0.0
O591 O 0.20714 0.42416 0.88535 0.0
C592 C 0.07541 0.37326 0.80679 0.0
C593 C 0.21423 0.33664 0.84855 0.0
C594 C 0.12086 0.44657 0.99112 0.0
C595 C 0.07554 0.31079 0.86573 0.0
C596 C 0.21767 0.38608 0.96707 0.0
C597 C 0.08427 0.43759 0.91567 0.0
C598 C 0.16563 0.29033 0.7913 0.0
C599 C 0.21433 0.45118 0.90489 0.0
O600 O 0.09519 0.34712 0.80123 0.0
O601 O 0.07906 0.39202 0.83454 0.0
O602 O 0.22842 0.35856 0.86897 0.0
O603 O 0.18309 0.32765 0.85622 0.0
O604 O 0.13038 0.46545 0.96695 0.0
O605 O 0.13173 0.41567 0.98941 0.0
O606 O 0.09236 0.306 0.83874 0.0
O607 O 0.08417 0.33694 0.88616 0.0
Co608 Co 0.38681 0.68046 0.32921 0.0
Co609 Co 0.34781 0.64212 0.39478 0.0
Co610 Co 0.42553 0.63403 0.38035 0.0
H611 H 0.39727 0.64937 0.35652 0.0
O612 O 0.3781 0.63672 0.35425 0.0
H613 H 0.37563 0.62374 0.41697 0.0
O614 O 0.39463 0.63647 0.42043 0.0
Co615 Co 0.38476 0.58953 0.44068 0.0
O616 O 0.34139 0.60251 0.46673 0.0
O617 O 0.31948 0.64715 0.43719 0.0
O618 O 0.43557 0.57673 0.42945 0.0
O619 O 0.46513 0.62284 0.40942 0.0
O620 O 0.38037 0.73394 0.32813 0.0
O621 O 0.35751 0.69955 0.29101 0.0
O622 O 0.34127 0.55862 0.42852 0.0
O623 O 0.32498 0.59163 0.38539 0.0
C624 C 0.45459 0.64549 0.30961 0.0
C625 C 0.30705 0.66537 0.33762 0.0
C626 C 0.4059 0.55138 0.48522 0.0
C627 C 0.44929 0.71066 0.36553 0.0
C628 C 0.31924 0.62689 0.46297 0.0
C629 C 0.46412 0.59472 0.42626 0.0
C630 C 0.36199 0.73094 0.30118 0.0
C631 C 0.32081 0.56337 0.40302 0.0
O632 O 0.43029 0.66709 0.30277 0.0
O633 O 0.45566 0.62916 0.33813 0.0
O634 O 0.3076 0.65724 0.36858 0.0
O635 O 0.33442 0.66898 0.31984 0.0
O636 O 0.40394 0.54248 0.45422 0.0
O637 O 0.3965 0.58238 0.49086 0.0
O638 O 0.42999 0.71089 0.33878 0.0
O639 O 0.44454 0.68605 0.3874 0.0
Co640 Co 0.94398 0.58497 0.87851 0.0
Co641 Co 0.87497 0.62402 0.92143 0.0
Co642 Co 0.89393 0.63795 0.84665 0.0
H643 H 0.91682 0.61805 0.87277 0.0
O644 O 0.91881 0.62845 0.89266 0.0
H645 H 0.85342 0.64398 0.89441 0.0
O646 O 0.85104 0.63277 0.875 0.0
Co647 Co 0.82865 0.67826 0.88659 0.0
O648 O 0.80194 0.66566 0.92868 0.0
O649 O 0.83079 0.61903 0.94764 0.0
O650 O 0.8557 0.6993 0.84745 0.0
O651 O 0.86629 0.65749 0.80966 0.0
O652 O 0.952 0.53615 0.89674 0.0
O653 O 0.99373 0.57246 0.89045 0.0
O654 O 0.84089 0.70694 0.92982 0.0
O655 O 0.88533 0.67355 0.94459 0.0
C656 C 0.9677 0.62862 0.81899 0.0
C657 C 0.91964 0.58369 0.94892 0.0
C658 C 0.77877 0.70483 0.85742 0.0
C659 C 0.9072 0.56329 0.81561 0.0
C660 C 0.80533 0.64012 0.94913 0.0
C661 C 0.85481 0.68776 0.81665 0.0
C662 C 0.98432 0.54227 0.89988 0.0
C663 C 0.86699 0.70131 0.9496 0.0
O664 O 0.97378 0.60384 0.83989 0.0
O665 O 0.93869 0.64532 0.81929 0.0
O666 O 0.90013 0.60634 0.96112 0.0
O667 O 0.91283 0.57593 0.91782 0.0
O668 O 0.77736 0.67449 0.8697 0.0
O669 O 0.80807 0.71998 0.86228 0.0
O670 O 0.93444 0.56019 0.83425 0.0
O671 O 0.88569 0.5884 0.82194 0.0
Co672 Co 0.57666 0.58356 0.13911 0.0
Co673 Co 0.64292 0.62612 0.09128 0.0
Co674 Co 0.62594 0.64294 0.16621 0.0
H675 H 0.60272 0.61938 0.14181 0.0
O676 O 0.59977 0.62824 0.12169 0.0
H677 H 0.66468 0.64921 0.11695 0.0
O678 O 0.66794 0.63955 0.13654 0.0
Co679 Co 0.68864 0.68577 0.12312 0.0
O680 O 0.71809 0.6692 0.08438 0.0
O681 O 0.6863 0.62304 0.0637 0.0
O682 O 0.65835 0.703 0.16095 0.0
O683 O 0.65414 0.6656 0.20199 0.0
O684 O 0.56842 0.53599 0.11634 0.0
O685 O 0.52625 0.56734 0.13014 0.0
O686 O 0.67817 0.70838 0.07847 0.0
O687 O 0.63086 0.67427 0.06876 0.0
C688 C 0.55622 0.62607 0.20062 0.0
C689 C 0.59809 0.58226 0.06709 0.0
C690 C 0.72984 0.72741 0.15059 0.0
C691 C 0.62018 0.56954 0.19787 0.0
C692 C 0.71348 0.64337 0.06343 0.0
C693 C 0.6657 0.69474 0.19149 0.0
C694 C 0.53591 0.53947 0.11592 0.0
C695 C 0.65024 0.70146 0.06141 0.0
O696 O 0.55051 0.59887 0.18141 0.0
O697 O 0.58271 0.6471 0.19609 0.0
O698 O 0.61722 0.60429 0.0527 0.0
O699 O 0.60642 0.57786 0.09827 0.0
O700 O 0.70612 0.73621 0.12995 0.0
O701 O 0.73066 0.69472 0.15517 0.0
O702 O 0.59135 0.56157 0.18277 0.0
O703 O 0.63864 0.59658 0.18931 0.0
Co704 Co 0.68337 0.33359 0.3813 0.0
Co705 Co 0.64424 0.4044 0.33913 0.0
Co706 Co 0.6318 0.38437 0.41356 0.0
H707 H 0.65084 0.36129 0.38736 0.0
O708 O 0.64027 0.35972 0.36755 0.0
H709 H 0.62446 0.4258 0.36621 0.0
O710 O 0.63606 0.42774 0.3854 0.0
Co711 Co 0.59115 0.45122 0.3758 0.0
O712 O 0.60498 0.4807 0.33481 0.0
O713 O 0.64774 0.44927 0.31259 0.0
O714 O 0.56984 0.42697 0.41759 0.0
O715 O 0.61461 0.41198 0.45119 0.0
O716 O 0.73308 0.3274 0.366 0.0
O717 O 0.69782 0.28421 0.36885 0.0
O718 O 0.56317 0.43941 0.33207 0.0
O719 O 0.59517 0.39373 0.3179 0.0
C720 C 0.6409 0.3084 0.44047 0.0
C721 C 0.68465 0.36039 0.31174 0.0
C722 C 0.56707 0.49983 0.40829 0.0
C723 C 0.70469 0.37179 0.44261 0.0
C724 C 0.62873 0.4766 0.31287 0.0
C725 C 0.5836 0.4224 0.44732 0.0
C726 C 0.72806 0.2948 0.36167 0.0
C727 C 0.56823 0.41281 0.31284 0.0
O728 O 0.66198 0.30102 0.41678 0.0
O729 O 0.6273 0.33925 0.44253 0.0
O730 O 0.66148 0.37957 0.29944 0.0
O731 O 0.69217 0.36678 0.34296 0.0
O732 O 0.55171 0.47043 0.4033 0.0
O733 O 0.59606 0.50208 0.39417 0.0
O734 O 0.7068 0.3427 0.42663 0.0
O735 O 0.68125 0.39402 0.43425 0.0
Co736 Co 0.94484 0.44407 0.63749 0.0
Co737 Co 0.87617 0.39731 0.58839 0.0
Co738 Co 0.89505 0.3879 0.66533 0.0
H739 H 0.91821 0.40883 0.64056 0.0
O740 O 0.92047 0.39811 0.62098 0.0
H741 H 0.85382 0.37928 0.61574 0.0
O742 O 0.85235 0.39144 0.63452 0.0
Co743 Co 0.82638 0.3461 0.62442 0.0
O744 O 0.79978 0.35458 0.58017 0.0
O745 O 0.83185 0.39811 0.55847 0.0
O746 O 0.84759 0.32407 0.66716 0.0
O747 O 0.86747 0.36819 0.7014 0.0
O748 O 0.9368 0.49691 0.63328 0.0
O749 O 0.97879 0.47309 0.60987 0.0
O750 O 0.8409 0.31289 0.58633 0.0
O751 O 0.88638 0.34613 0.57152 0.0
C752 C 0.96878 0.40071 0.69792 0.0
C753 C 0.92503 0.43083 0.56213 0.0
C754 C 0.76804 0.32695 0.6427 0.0
C755 C 0.90876 0.46223 0.69843 0.0
C756 C 0.80458 0.37769 0.55752 0.0
C757 C 0.855 0.33713 0.69687 0.0
C758 C 0.96219 0.50084 0.61417 0.0
C759 C 0.86781 0.31723 0.56839 0.0
O760 O 0.97516 0.42613 0.67761 0.0
O761 O 0.93967 0.38265 0.69536 0.0
O762 O 0.90182 0.41178 0.54779 0.0
O763 O 0.91949 0.43542 0.59351 0.0
O764 O 0.77691 0.32817 0.61228 0.0
O765 O 0.79228 0.33699 0.66294 0.0
O766 O 0.93733 0.46614 0.68309 0.0
O767 O 0.88669 0.43725 0.68875 0.0
C768 C 0.21654 0.26778 0.32135 0.0
C769 C 0.19066 0.27297 0.34537 0.0
H770 H 0.26099 0.23804 0.30803 0.0
C771 C 0.18542 0.24784 0.37081 0.0
H772 H 0.22064 0.28654 0.30124 0.0
C773 C 0.20914 0.22112 0.37538 0.0
C774 C 0.2375 0.21862 0.35388 0.0
H775 H 0.16543 0.25098 0.38957 0.0
H776 H 0.20711 0.2045 0.39745 0.0
C777 C 0.23952 0.2401 0.32522 0.0
C778 C 1.00221 0.96207 0.56522 0.0
C779 C 0.97009 0.95699 0.58067 0.0
H780 H 0.04906 0.99371 0.56452 0.0
C781 C 0.95653 0.98354 0.60139 0.0
H782 H 0.01297 0.94151 0.54945 0.0
C783 C 0.97677 0.01334 0.6097 0.0
C784 C 1.01093 0.01574 0.59827 0.0
H785 H 0.93205 0.97984 0.61407 0.0
H786 H 0.96723 0.03223 0.62802 0.0
C787 C 0.0228 0.99152 0.57413 0.0
C788 C 0.29271 0.77841 0.87399 0.0
C789 C 0.25752 0.76964 0.86622 0.0
H790 H 0.34515 0.76048 0.87646 0.0
C791 C 0.24819 0.73642 0.85227 0.0
H792 H 0.3004 0.80416 0.8845 0.0
C793 C 0.27365 0.71155 0.84754 0.0
C794 C 0.30875 0.7196 0.85682 0.0
H795 H 0.22117 0.72939 0.84566 0.0
H796 H 0.26558 0.68573 0.83755 0.0
C797 C 0.31826 0.75352 0.86927 0.0
C798 C 0.47741 0.05643 0.10688 0.0
C799 C 0.48332 0.0202 0.10473 0.0
H800 H 0.50138 0.10804 0.10718 0.0
C801 C 0.51541 1.00789 0.09416 0.0
H802 H 0.45243 0.06617 0.1147 0.0
C803 C 0.54312 0.03117 0.09072 0.0
C804 C 0.53889 0.06725 0.09701 0.0
H805 H 0.52026 0.97999 0.0919 0.0
H806 H 0.56841 0.02017 0.08609 0.0
C807 C 0.50537 0.08015 0.10286 0.0
C808 C 0.19014 0.77096 0.13446 0.0
C809 C 0.19817 0.74929 0.16228 0.0
H810 H 0.20549 0.81599 0.1061 0.0
C811 C 0.22192 0.7616 0.18767 0.0
H812 H 0.17142 0.76247 0.11458 0.0
C813 C 0.23993 0.79365 0.18359 0.0
C814 C 0.23574 0.81213 0.1531 0.0
H815 H 0.22766 0.74586 0.20962 0.0
H816 H 0.26003 0.80165 0.20225 0.0
C817 C 0.20902 0.80207 0.12979 0.0
C818 C 0.51419 0.95662 0.42453 0.0
C819 C 0.54996 0.96586 0.42575 0.0
H820 H 0.46253 0.97491 0.41518 0.0
C821 C 0.56072 1.00157 0.42712 0.0
H822 H 0.50525 0.92926 0.42448 0.0
C823 C 0.53646 0.02742 0.42192 0.0
C824 C 0.50146 0.01761 0.4153 0.0
H825 H 0.58807 1.00961 0.42866 0.0
H826 H 0.54553 0.05465 0.42028 0.0
C827 C 0.48985 0.98261 0.41917 0.0
C828 C 0.31419 0.25994 0.69669 0.0
C829 C 0.31647 0.29382 0.68324 0.0
H830 H 0.28524 0.21102 0.69656 0.0
C831 C 0.28841 0.30722 0.66432 0.0
H832 H 0.33603 0.24929 0.71101 0.0
C833 C 0.25969 0.28551 0.65591 0.0
C834 C 0.2594 0.25019 0.66584 0.0
H835 H 0.29016 0.33306 0.65309 0.0
H836 H 0.23929 0.29547 0.63925 0.0
C837 C 0.28555 0.23807 0.68806 0.0
C838 C 0.05507 0.06268 0.91547 0.0
C839 C 0.05017 0.02808 0.92657 0.0
H840 H 0.03093 0.11216 0.90783 0.0
C841 C 0.02228 0.0195 0.94749 0.0
H842 H 0.07686 0.06972 0.89965 0.0
C843 C 0.99619 0.04363 0.95239 0.0
C844 C 0.99761 0.07608 0.93572 0.0
H845 H 0.01869 0.99296 0.9569 0.0
H846 H 0.97322 0.03518 0.96582 0.0
C847 C 0.02866 0.0868 0.92001 0.0
C848 C 0.36052 0.22802 0.22566 0.0
C849 C 0.3507 0.26287 0.23127 0.0
H850 H 0.36908 0.17824 0.24855 0.0
C851 C 0.33372 0.27233 0.26099 0.0
H852 H 0.3735 0.22038 0.20261 0.0
C853 C 0.33187 0.24884 0.28739 0.0
C854 C 0.34659 0.21554 0.28393 0.0
H855 H 0.32551 0.29906 0.26537 0.0
H856 H 0.32181 0.25802 0.31137 0.0
C857 C 0.35849 0.20424 0.25212 0.0
C858 C 0.03921 0.10708 0.56655 0.0
C859 C 0.06245 0.08195 0.55456 0.0
H860 H 0.99351 0.13654 0.55541 0.0
C861 C 0.05481 0.06322 0.52426 0.0
H862 H 0.04512 0.12242 0.58951 0.0
C863 C 0.02586 0.07197 0.50437 0.0
C864 C 1.00459 0.09948 0.51486 0.0
H865 H 0.0729 0.04421 0.51452 0.0
H866 H 0.02163 0.05909 0.47972 0.0
C867 C 1.00989 0.11536 0.54698 0.0
C868 C 0.21834 0.80528 0.78251 0.0
C869 C 0.1969 0.83432 0.77819 0.0
H870 H 0.22594 0.75195 0.76851 0.0
C871 C 0.17728 0.83737 0.74759 0.0
H872 H 0.23506 0.80297 0.80489 0.0
C873 C 0.17386 0.80865 0.72505 0.0
C874 C 0.18965 0.77689 0.73343 0.0
H875 H 0.16133 0.86014 0.74302 0.0
H876 H 0.15568 0.81003 0.70349 0.0
C877 C 0.21364 0.77609 0.76105 0.0
C878 C 0.48255 0.91117 0.99134 0.0
C879 C 0.51679 0.90575 1.00348 0.0
H880 H 0.42992 0.9221 1.00456 0.0
C881 C 0.52496 0.90883 0.03831 0.0
H882 H 0.47591 0.90907 0.9644 0.0
C883 C 0.49903 0.91602 0.06102 0.0
C884 C 0.46446 0.9206 0.04928 0.0
H885 H 0.5513 0.90495 0.04821 0.0
H886 H 0.50608 0.91698 0.0879 0.0
C887 C 0.45641 0.91864 0.01421 0.0
C888 C 0.3593 0.81953 0.2627 0.0
C889 C 0.34245 0.81025 0.23146 0.0
H890 H 0.37873 0.80067 0.31041 0.0
C891 C 0.32619 0.77697 0.22681 0.0
H892 H 0.37173 0.84531 0.26693 0.0
C893 C 0.32969 0.75206 0.25164 0.0
C894 C 0.34995 0.75999 0.28113 0.0
H895 H 0.31277 0.76923 0.20311 0.0
H896 H 0.31892 0.72573 0.24641 0.0
C897 C 0.36317 0.79425 0.28758 0.0
C898 C 0.49243 0.06711 0.50692 0.0
C899 C 0.51556 0.09492 0.49899 0.0
H900 H 0.44232 0.04212 0.49601 0.0
C901 C 0.50845 0.11615 0.47102 0.0
H902 H 0.49775 0.05046 0.52852 0.0
C903 C 0.47669 0.11204 0.45332 0.0
C904 C 0.45262 0.08552 0.46238 0.0
H905 H 0.52594 0.13789 0.46474 0.0
H906 H 0.47034 0.13069 0.43374 0.0
C907 C 0.46099 0.06232 0.48849 0.0
C908 C 0.18462 0.2513 0.70948 0.0
C909 C 0.18339 0.21568 0.71856 0.0
H910 H 0.18238 0.30427 0.72714 0.0
C911 C 0.18903 0.20616 0.75254 0.0
H912 H 0.1806 0.2595 0.68349 0.0
C913 C 0.18831 0.23205 0.77775 0.0
C914 C 0.18253 0.26688 0.76832 0.0
H915 H 0.18949 0.17872 0.75983 0.0
H916 H 0.18772 0.22425 0.80413 0.0
C917 C 0.18519 0.27703 0.73453 0.0
C918 C 0.02954 0.9266 0.02702 0.0
C919 C 1.00855 0.89589 0.02203 0.0
H920 H 0.06987 0.95993 1.00655 0.0
C921 C 1.01202 0.8749 0.99268 0.0
H922 H 0.02698 0.94325 0.04944 0.0
C923 C 0.03598 0.88451 0.96846 0.0
C924 C 0.05682 0.91513 0.97336 0.0
H925 H 0.99635 0.8509 0.98849 0.0
H926 H 0.03857 0.86782 0.94605 0.0
C927 C 0.05382 0.93613 1.00271 0.0
C928 C 0.26884 0.36153 0.2108 0.0
C929 C 0.30412 0.36527 0.22124 0.0
H930 H 0.21574 0.36087 0.22625 0.0
C931 C 0.3133 0.36899 0.25594 0.0
H932 H 0.26124 0.35834 0.18414 0.0
C933 C 0.28746 0.36995 0.27987 0.0
C934 C 0.25223 0.36764 0.26929 0.0
H935 H 0.34038 0.37181 0.26464 0.0
H936 H 0.29506 0.37367 0.30648 0.0
C937 C 0.24294 0.36275 0.23478 0.0
C938 C 0.74898 0.15234 0.82163 0.0
C939 C 0.77726 0.17614 0.81797 0.0
H940 H 0.70268 0.12934 0.79781 0.0
C941 C 0.77635 0.20093 0.79205 0.0
H942 H 0.74898 0.13333 0.84192 0.0
C943 C 0.75088 0.19794 0.76646 0.0
C944 C 0.72511 0.17114 0.76753 0.0
H945 H 0.7971 0.22058 0.78995 0.0
H946 H 0.7535 0.21445 0.74453 0.0
C947 C 0.72263 0.15005 0.79644 0.0
C948 C 0.11826 0.4595 0.05224 0.0
C949 C 0.10277 0.46129 0.0197 0.0
H950 H 0.12843 0.48722 0.09926 0.0
C951 C 0.07711 0.48603 0.01288 0.0
H952 H 0.13799 0.44023 0.05782 0.0
C953 C 0.07179 0.51301 0.03619 0.0
C954 C 0.09231 0.51526 0.0663 0.0
H955 H 0.0643 0.48705 0.98806 0.0
H956 H 0.05476 0.53406 0.0288 0.0
C957 C 0.11298 0.48661 0.07572 0.0
C958 C 0.72651 0.87439 0.25592 0.0
C959 C 0.7577 0.85622 0.25202 0.0
H960 H 0.68448 0.88569 0.28909 0.0
C961 C 0.76748 0.8309 0.27586 0.0
H962 H 0.71861 0.89411 0.23781 0.0
C963 C 0.74763 0.82558 0.30455 0.0
C964 C 0.71777 0.84538 0.3096 0.0
H965 H 0.79134 0.8164 0.27315 0.0
H966 H 0.75669 0.8075 0.32377 0.0
C967 C 0.7069 0.8694 0.28495 0.0
C968 C 0.90987 0.03126 0.04371 0.0
C969 C 0.91028 0.02243 1.00899 0.0
H970 H 0.91226 0.0121 0.0944 0.0
C971 C 0.91841 0.98826 0.99838 0.0
H972 H 0.90433 0.05781 0.05226 0.0
C973 C 0.9233 0.96232 0.02228 0.0
C974 C 0.91953 0.97023 0.057 0.0
H975 H 0.91958 0.98121 0.97161 0.0
H976 H 0.92792 0.9357 0.01333 0.0
C977 C 0.91451 1.00521 0.06771 0.0
C978 C 0.29917 0.69579 0.74909 0.0
C979 C 0.31943 0.6657 0.74641 0.0
H980 H 0.25353 0.72131 0.73051 0.0
C981 C 0.31499 0.64275 0.7183 0.0
H982 H 0.30274 0.71392 0.77061 0.0
C983 C 0.28593 0.64617 0.69666 0.0
C984 C 0.26206 0.67285 0.70314 0.0
H985 H 0.33051 0.61932 0.71611 0.0
H986 H 0.28021 0.62585 0.67744 0.0
C987 C 0.27052 0.69941 0.72717 0.0
C988 C 0.1152 0.55541 0.46968 0.0
C989 C 0.09923 0.55019 0.50093 0.0
H990 H 0.12686 0.53161 0.42182 0.0
C991 C 0.07465 0.52262 0.50445 0.0
H992 H 0.13397 0.57692 0.46646 0.0
C993 C 0.06921 0.49807 0.47851 0.0
C994 C 0.09027 0.49933 0.44999 0.0
H995 H 0.06242 0.5175 0.5284 0.0
H996 H 0.05207 0.47568 0.48299 0.0
C997 C 0.11096 0.52966 0.44413 0.0
C998 C 0.44507 0.49749 0.99368 0.0
C999 C 0.41875 0.50963 0.01476 0.0
H1000 H 0.47298 0.50582 0.94802 0.0
C1001 C 0.4044 0.54274 0.00948 0.0
H1002 H 0.45689 0.47218 0.99783 0.0
C1003 C 0.41365 0.56187 0.98104 0.0
C1004 C 0.438 0.54832 0.9585 0.0
H1005 H 0.38419 0.5525 0.02571 0.0
H1006 H 0.39993 0.58579 0.97544 0.0
C1007 C 0.45459 0.51678 0.96557 0.0
C1008 C 0.69187 0.74597 0.85729 0.0
C1009 C 0.70002 0.77679 0.83937 0.0
H1010 H 0.71135 0.69755 0.87666 0.0
C1011 C 0.73011 0.77812 0.81976 0.0
H1012 H 0.66848 0.74397 0.87217 0.0
C1013 C 0.75443 0.75174 0.82245 0.0
C1014 C 0.74867 0.72363 0.8444 0.0
H1015 H 0.73645 0.80097 0.8048 0.0
H1016 H 0.77906 0.75502 0.80981 0.0
C1017 C 0.71624 0.71931 0.85974 0.0
C1018 C 0.50475 0.4597 0.06731 0.0
C1019 C 0.47196 0.4549 0.08156 0.0
H1020 H 0.55153 0.49157 0.0675 0.0
C1021 C 0.45786 0.48162 0.10168 0.0
H1022 H 0.51598 0.439 0.05206 0.0
C1023 C 0.47772 0.51156 0.11014 0.0
C1024 C 0.51218 0.51401 0.0996 0.0
H1025 H 0.43295 0.47826 0.11359 0.0
H1026 H 0.46745 0.53078 0.12771 0.0
C1027 C 0.52501 0.48934 0.07643 0.0
C1028 C 0.79053 0.28156 0.35872 0.0
C1029 C 0.75545 0.271 0.35309 0.0
H1030 H 0.84301 0.2646 0.36518 0.0
C1031 C 0.7465 0.2361 0.34388 0.0
H1032 H 0.79777 0.30865 0.36551 0.0
C1033 C 0.77212 0.21103 0.34376 0.0
C1034 C 0.80682 0.22077 0.353 0.0
H1035 H 0.71949 0.22783 0.3387 0.0
H1036 H 0.76437 0.18381 0.33814 0.0
C1037 C 0.81624 0.25641 0.35878 0.0
C1038 C 1.00295 0.58901 0.62365 0.0
C1039 C 0.02611 0.58695 0.5966 0.0
H1040 H 0.96246 0.562 0.64998 0.0
C1041 C 0.01881 0.56344 0.56949 0.0
H1042 H 1.00752 0.60776 0.64451 0.0
C1043 C 0.99393 0.53656 0.57313 0.0
C1044 C 0.97531 0.53478 0.60324 0.0
H1045 H 0.03475 0.56392 0.54732 0.0
H1046 H 0.99179 0.51544 0.55418 0.0
C1047 C 0.97717 0.56288 0.62681 0.0
C1048 C 0.71096 0.29857 0.62835 0.0
C1049 C 0.73733 0.30668 0.65286 0.0
H1050 H 0.67054 0.262 0.612 0.0
C1051 C 0.73828 0.28855 0.68371 0.0
H1052 H 0.70962 0.31257 0.60453 0.0
C1053 C 0.71622 0.2592 0.68776 0.0
C1054 C 0.69306 0.2483 0.66128 0.0
H1055 H 0.75819 0.29481 0.70319 0.0
H1056 H 0.71835 0.244 0.71061 0.0
C1057 C 0.68876 0.26957 0.63261 0.0
C1058 C 0.04418 0.52599 0.91497 0.0
C1059 C 1.00881 0.51625 0.91097 0.0
H1060 H 0.09617 0.50827 0.91965 0.0
C1061 C 0.99771 0.48096 0.91393 0.0
H1062 H 0.05302 0.55331 0.91346 0.0
C1063 C 0.02239 0.45501 0.9175 0.0
C1064 C 0.05808 0.46448 0.91815 0.0
H1065 H 0.97027 0.47321 0.91141 0.0
H1066 H 0.01364 0.42761 0.91799 0.0
C1067 C 0.06877 0.5002 0.91847 0.0
C1068 C 0.80786 0.7626 0.19956 0.0
C1069 C 0.81166 0.79541 0.1842 0.0
H1070 H 0.77773 0.71446 0.20062 0.0
C1071 C 0.78455 0.8087 0.16392 0.0
H1072 H 0.82895 0.7521 0.21502 0.0
C1073 C 0.75551 0.7874 0.15567 0.0
C1074 C 0.75418 0.75259 0.16702 0.0
H1075 H 0.78754 0.83372 0.15131 0.0
H1076 H 0.73609 0.79691 0.13767 0.0
C1077 C 0.77898 0.74107 0.19097 0.0
C1078 C 0.52284 0.52154 0.44654 0.0
C1079 C 0.54985 0.52913 0.42431 0.0
H1080 H 0.47468 0.53809 0.46602 0.0
C1081 C 0.5539 0.56305 0.41121 0.0
H1082 H 0.51963 0.49554 0.45722 0.0
C1083 C 0.52739 0.58714 0.41541 0.0
C1084 C 0.49719 0.57707 0.43286 0.0
H1085 H 0.57496 0.56936 0.39427 0.0
H1086 H 0.52883 0.61172 0.40178 0.0
C1087 C 0.49684 0.54572 0.4512 0.0
C1088 C 0.85492 0.77495 0.77454 0.0
C1089 C 0.86113 0.76513 0.74088 0.0
H1090 H 0.84827 0.75822 0.8249 0.0
C1091 C 0.8596 0.72946 0.73083 0.0
H1092 H 0.85585 0.80234 0.78285 0.0
C1093 C 0.85523 0.70363 0.75528 0.0
C1094 C 0.85234 0.71362 0.78964 0.0
H1095 H 0.86421 0.72154 0.70476 0.0
H1096 H 0.85611 0.67608 0.74763 0.0
C1097 C 0.85063 0.74946 0.79873 0.0
C1098 C 0.53861 0.60508 0.06573 0.0
C1099 C 0.56234 0.58025 0.05411 0.0
H1100 H 0.49318 0.63454 0.05362 0.0
C1101 C 0.55564 0.5618 0.02348 0.0
H1102 H 0.54375 0.62022 0.08893 0.0
C1103 C 0.52739 0.57083 1.00281 0.0
C1104 C 0.50577 0.59817 0.01298 0.0
H1105 H 0.57412 0.54301 0.01405 0.0
H1106 H 0.52405 0.55835 0.97789 0.0
C1107 C 0.50989 0.61353 0.04543 0.0
C1108 C 0.6534 0.26955 0.28832 0.0
C1109 C 0.67309 0.26315 0.25947 0.0
H1110 H 0.64165 0.30633 0.3276 0.0
C1111 C 0.70015 0.28679 0.25088 0.0
H1112 H 0.6324 0.2516 0.29535 0.0
C1113 C 0.70602 0.31772 0.26999 0.0
C1114 C 0.68489 0.32495 0.2976 0.0
H1115 H 0.71568 0.28208 0.2287 0.0
H1116 H 0.72564 0.33683 0.26215 0.0
C1117 C 0.65884 0.30065 0.30692 0.0
C1118 C 0.98857 0.43501 0.49327 0.0
C1119 C 0.01535 0.4144 0.50682 0.0
H1120 H 0.93896 0.45786 0.50162 0.0
C1121 C 0.01517 0.40509 0.54121 0.0
H1122 H 0.98845 0.44289 0.4669 0.0
C1123 C 0.98693 0.41391 0.56109 0.0
C1124 C 0.95913 0.43258 0.54676 0.0
H1125 H 0.03575 0.38936 0.55216 0.0
H1126 H 0.98558 0.40388 0.58668 0.0
C1127 C 0.96064 0.44407 0.51318 0.0
C1128 C 0.87221 0.32193 0.75627 0.0
C1129 C 0.8539 0.31342 0.72561 0.0
H1130 H 0.89277 0.30228 0.80332 0.0
C1131 C 0.83772 0.28006 0.72089 0.0
H1132 H 0.88467 0.34768 0.76053 0.0
C1133 C 0.84272 0.25438 0.74487 0.0
C1134 C 0.86337 0.26189 0.7742 0.0
H1135 H 0.8229 0.27303 0.69775 0.0
H1136 H 0.83182 0.22814 0.73952 0.0
C1137 C 0.87691 0.2961 0.78062 0.0
C1138 C 0.96134 0.56462 0.99273 0.0
C1139 C 0.95488 0.58416 0.96348 0.0
H1140 H 0.99427 0.5586 0.03693 0.0
C1141 C 0.97875 0.61068 0.95405 0.0
H1142 H 0.94254 0.54477 1.00075 0.0
C1143 C 1.00834 0.61841 0.97437 0.0
C1144 C 0.01358 0.6005 1.00489 0.0
H1145 H 0.9735 0.62684 0.93214 0.0
H1146 H 0.02582 0.63986 0.96733 0.0
C1147 C 0.99058 0.5728 0.01346 0.0
C1148 C 0.67948 0.71427 0.25056 0.0
C1149 C 0.67564 0.72234 0.21602 0.0
H1150 H 0.6753 0.73402 0.30133 0.0
C1151 C 0.67539 0.7576 0.20576 0.0
H1152 H 0.68099 0.68722 0.25886 0.0
C1153 C 0.67301 0.78413 0.22985 0.0
C1154 C 0.66988 0.77516 0.26392 0.0
H1155 H 0.67303 0.76467 0.17927 0.0
H1156 H 0.66944 0.81092 0.22141 0.0
C1157 C 0.67641 0.7409 0.27472 0.0
C1158 C 0.54675 0.37973 0.47652 0.0
C1159 C 0.56016 0.41425 0.47451 0.0
H1160 H 0.5122 0.34459 0.50186 0.0
C1161 C 0.55048 0.44028 0.49784 0.0
H1162 H 0.55448 0.35939 0.45873 0.0
C1163 C 0.52626 0.43192 0.52257 0.0
C1164 C 0.51189 0.39752 0.52382 0.0
H1165 H 0.56117 0.46695 0.49654 0.0
H1166 H 0.51808 0.45239 0.53997 0.0
C1167 C 0.52269 0.37139 0.50104 0.0
C1168 C 0.81067 0.85759 0.75074 0.0
C1169 C 0.80169 0.85891 0.71597 0.0
H1170 H 0.79287 0.86031 0.80142 0.0
C1171 C 0.76641 0.86081 0.70541 0.0
H1172 H 0.83761 0.85652 0.75969 0.0
C1173 C 0.74074 0.86391 0.72952 0.0
C1174 C 0.7503 0.86472 0.76418 0.0
H1175 H 0.75881 0.86153 0.67867 0.0
H1176 H 0.7138 0.86711 0.72109 0.0
C1177 C 0.78509 0.86015 0.77469 0.0
C1178 C 0.21997 0.64138 0.2984 0.0
C1179 C 0.21785 0.66801 0.27408 0.0
H1180 H 0.25163 0.61951 0.3382 0.0
C1181 C 0.24008 0.69787 0.27698 0.0
H1182 H 0.20275 0.61822 0.29671 0.0
C1183 C 0.26781 0.69844 0.3004 0.0
C1184 C 0.27327 0.6692 0.32081 0.0
H1185 H 0.23822 0.71908 0.25909 0.0
H1186 H 0.28628 0.72053 0.30097 0.0
C1187 C 0.24795 0.64192 0.32182 0.0
C1188 C 0.61042 0.05514 0.5344 0.0
C1189 C 0.58915 0.0414 0.55967 0.0
H1190 H 0.63802 0.04403 0.48917 0.0
C1191 C 0.57518 1.00701 0.55654 0.0
H1192 H 0.62213 0.08139 0.53696 0.0
C1193 C 0.58486 0.98537 0.52973 0.0
C1194 C 0.60873 0.99812 0.50617 0.0
H1195 H 0.55916 0.99602 0.5763 0.0
H1196 H 0.57547 0.95815 0.52872 0.0
C1197 C 0.6199 0.03363 0.50745 0.0
C1198 C 0.23248 0.37151 0.76223 0.0
C1199 C 0.26173 0.35184 0.75414 0.0
H1200 H 0.19434 0.38217 0.79961 0.0
C1201 C 0.27163 0.3237 0.77475 0.0
H1202 H 0.22461 0.39343 0.74668 0.0
C1203 C 0.25393 0.31681 0.80447 0.0
C1204 C 0.22623 0.33799 0.81377 0.0
H1205 H 0.29407 0.30809 0.7687 0.0
H1206 H 0.26308 0.29628 0.82113 0.0
C1207 C 0.21518 0.36502 0.79232 0.0
C1208 C 0.43068 0.46811 0.52633 0.0
C1209 C 0.42121 0.4754 0.55987 0.0
H1210 H 0.4328 0.48712 0.47586 0.0
C1211 C 0.41407 0.51009 0.57005 0.0
H1212 H 0.43724 0.44176 0.51804 0.0
C1213 C 0.41178 0.53618 0.54581 0.0
C1214 C 0.41671 0.52749 0.51156 0.0
H1215 H 0.40757 0.5165 0.59605 0.0
H1216 H 0.40358 0.56223 0.55345 0.0
C1217 C 0.42814 0.49403 0.50218 0.0
C1218 C 0.76705 0.19855 0.23308 0.0
C1219 C 0.76046 0.17632 0.20465 0.0
H1220 H 0.80005 0.20886 0.27702 0.0
C1221 C 0.78619 0.15288 0.19424 0.0
H1222 H 0.74793 0.21739 0.24104 0.0
C1223 C 0.81535 0.14757 0.21507 0.0
C1224 C 0.81937 0.16633 0.24584 0.0
H1225 H 0.78203 0.13577 0.17205 0.0
H1226 H 0.83242 0.12602 0.20915 0.0
C1227 C 0.79702 0.19403 0.25331 0.0
C1228 C 0.61705 0.02721 0.94551 0.0
C1229 C 0.59518 0.99767 0.95145 0.0
H1230 H 0.63977 0.0751 0.96681 0.0
C1231 C 0.57197 0.99856 0.97839 0.0
H1232 H 0.63475 0.02742 0.92446 0.0
C1233 C 0.57469 0.02591 1.00221 0.0
C1234 C 0.60061 0.05235 0.99928 0.0
H1235 H 0.55397 0.97667 0.98278 0.0
H1236 H 0.55896 0.02441 0.02454 0.0
C1237 C 0.61975 0.05464 0.96952 0.0
C1238 C 0.91374 0.06213 0.48108 0.0
C1239 C 0.93635 0.04823 0.45706 0.0
H1240 H 0.88577 0.05267 0.52658 0.0
C1241 C 0.95107 0.01529 0.46206 0.0
H1242 H 0.90133 0.08712 0.47709 0.0
C1243 C 0.94154 0.99531 0.48975 0.0
C1244 C 0.91709 1.00817 0.51251 0.0
H1245 H 0.96807 1.00406 0.44335 0.0
H1246 H 0.952 0.96916 0.49243 0.0
C1247 C 0.90451 0.04232 0.50907 0.0
C1248 C 0.1612 0.26559 0.48977 0.0
C1249 C 0.12988 0.2844 0.48877 0.0
H1250 H 0.19182 0.22595 0.51428 0.0
C1251 C 0.10367 0.27384 0.51162 0.0
H1252 H 0.18205 0.27251 0.47281 0.0
C1253 C 0.10888 0.24603 0.53489 0.0
C1254 C 0.14083 0.22831 0.53673 0.0
H1255 H 0.07899 0.28725 0.51162 0.0
H1256 H 0.08844 0.23944 0.55241 0.0
C1257 C 0.16675 0.23861 0.51362 0.0
C1258 C 0.03584 0.86904 0.77375 0.0
C1259 C 0.04323 0.90382 0.78551 0.0
H1260 H 1.00564 0.83434 0.73976 0.0
C1261 C 0.02559 0.93102 0.76804 0.0
H1262 H 0.04858 0.8472 0.78594 0.0
C1263 C 1.00139 0.92368 0.74039 0.0
C1264 C 0.99313 0.8887 0.72955 0.0
H1265 H 0.03055 0.95829 0.77576 0.0
H1266 H 0.98827 0.94536 0.72833 0.0
C1267 C 1.01104 0.86169 0.74689 0.0
C1268 C 0.35187 0.76736 0.01986 0.0
C1269 C 0.3795 0.78674 0.03681 0.0
H1270 H 0.33627 0.72668 0.9829 0.0
C1271 C 0.41387 0.77802 0.02843 0.0
H1272 H 0.32501 0.77289 0.02559 0.0
C1273 C 0.42032 0.75027 1.00498 0.0
C1274 C 0.3927 0.73113 0.98774 0.0
H1275 H 0.43593 0.79189 0.0409 0.0
H1276 H 0.44718 0.74383 1.00027 0.0
C1277 C 0.35832 0.74067 0.99525 0.0
C1278 C 0.50367 0.10432 0.27137 0.0
C1279 C 0.49207 0.13326 0.29086 0.0
H1280 H 0.53767 0.08559 0.23232 0.0
C1281 C 0.50771 0.16655 0.28484 0.0
H1282 H 0.49235 0.07822 0.2751 0.0
C1283 C 0.53473 0.1705 0.26113 0.0
C1284 C 0.54623 0.14163 0.24146 0.0
H1285 H 0.49984 0.18945 0.29928 0.0
H1286 H 0.54662 0.19645 0.25811 0.0
C1287 C 0.52973 0.10853 0.24666 0.0
C1288 C 0.1674 0.77083 0.99176 0.0
C1289 C 0.13852 0.78654 0.97522 0.0
H1290 H 0.18595 0.7333 0.02844 0.0
C1291 C 0.10489 0.7743 0.98427 0.0
H1292 H 0.19375 0.77937 0.98579 0.0
C1293 C 0.10044 0.74668 1.00795 0.0
C1294 C 0.12937 0.73109 0.02459 0.0
H1295 H 0.08192 0.78542 0.97229 0.0
H1296 H 0.07411 0.73771 0.01352 0.0
C1297 C 0.16293 0.74425 0.0164 0.0
C1298 C 0.48737 0.86727 0.23574 0.0
C1299 C 0.47437 0.90143 0.23081 0.0
H1300 H 0.5245 0.83437 0.26181 0.0
C1301 C 0.48962 0.9286 0.25221 0.0
H1302 H 0.47696 0.84544 0.22013 0.0
C1303 C 0.51643 0.92207 0.27713 0.0
C1304 C 0.53032 0.88816 0.28124 0.0
H1305 H 0.48072 0.95536 0.24971 0.0
H1306 H 0.52706 0.94398 0.29251 0.0
C1307 C 0.51502 0.86096 0.25988 0.0
C1308 C 0.3489 0.25468 0.49095 0.0
C1309 C 0.3755 0.23257 0.4789 0.0
H1310 H 0.33357 0.29476 0.52711 0.0
C1311 C 0.408 0.23472 0.49678 0.0
H1312 H 0.32337 0.25404 0.47831 0.0
C1313 C 0.41396 0.25884 0.52448 0.0
C1314 C 0.38739 0.2809 0.53647 0.0
H1315 H 0.42923 0.2184 0.48882 0.0
H1316 H 0.4398 0.26046 0.5365 0.0
C1317 C 0.35455 0.27799 0.51939 0.0
C1318 C 0.99692 0.10438 0.77612 0.0
C1319 C 0.98577 0.13837 0.78495 0.0
H1320 H 0.0278 0.07269 0.74289 0.0
C1321 C 1.00019 0.16719 0.76726 0.0
H1322 H 0.98639 0.08154 0.78894 0.0
C1323 C 0.02473 0.16225 0.74151 0.0
C1324 C 0.03474 0.12818 0.73163 0.0
H1325 H 0.99236 0.19378 0.77333 0.0
H1326 H 0.03499 0.1851 0.72852 0.0
C1327 C 0.02055 0.09933 0.7495 0.0
C1328 C 0.2581 0.53241 0.16774 0.0
C1329 C 0.23902 0.54713 0.14015 0.0
H1330 H 0.29795 0.49671 0.18496 0.0
C1331 C 0.24802 0.53538 0.10728 0.0
H1332 H 0.25223 0.54019 0.19355 0.0
C1333 C 0.27546 0.51108 0.1023 0.0
C1334 C 0.29435 0.49618 0.12995 0.0
H1335 H 0.23438 0.54562 0.08519 0.0
H1336 H 0.28163 0.50356 0.0765 0.0
C1337 C 0.28455 0.50712 0.16281 0.0
C1338 C 0.78234 0.02642 0.86079 0.0
C1339 C 0.79145 0.03796 0.89433 0.0
H1340 H 0.75154 0.99086 0.82776 0.0
C1341 C 0.77233 0.02143 0.92051 0.0
H1342 H 0.796 0.03777 0.83966 0.0
C1343 C 0.7454 0.99517 0.91357 0.0
C1344 C 0.73706 0.98284 0.88008 0.0
H1345 H 0.77806 0.02902 0.94677 0.0
H1346 H 0.73171 0.98385 0.9347 0.0
C1347 C 0.75646 0.99915 0.85396 0.0
C1348 C 0.78736 0.02494 0.41295 0.0
C1349 C 0.79337 0.03521 0.37921 0.0
H1350 H 0.7565 0.99349 0.44693 0.0
C1351 C 0.77185 0.0185 0.35341 0.0
H1352 H 0.80303 0.03683 0.43369 0.0
C1353 C 0.74571 0.99265 0.3609 0.0
C1354 C 0.73897 0.98314 0.3947 0.0
H1355 H 0.77551 0.02517 0.32703 0.0
H1356 H 0.73021 0.98063 0.34012 0.0
C1357 C 0.76038 0.99996 0.42055 0.0
C1358 C 0.76234 0.99584 0.16407 0.0
C1359 C 0.78066 0.98019 0.13695 0.0
H1360 H 0.72599 0.03521 0.18066 0.0
C1361 C 0.77445 0.99447 0.10444 0.0
H1362 H 0.76601 0.98605 0.18962 0.0
C1363 C 0.7503 0.02202 0.09916 0.0
C1364 C 0.73216 0.03785 0.12626 0.0
H1365 H 0.78753 0.98363 0.08269 0.0
H1366 H 0.74588 0.03109 0.07349 0.0
C1367 C 0.73923 0.02441 0.15899 0.0
C1368 C 0.26662 0.48981 0.60608 0.0
C1369 C 0.27642 0.47853 0.63902 0.0
H1370 H 0.23498 0.52379 0.57496 0.0
C1371 C 0.26093 0.49662 0.66649 0.0
H1372 H 0.2775 0.47705 0.58405 0.0
C1373 C 0.23724 0.52476 0.66128 0.0
C1374 C 0.22667 0.53527 0.62826 0.0
H1375 H 0.26753 0.4893 0.69236 0.0
H1376 H 0.22654 0.53775 0.68327 0.0
C1377 C 0.24191 0.51689 0.60086 0.0
C1378 C 0.25242 0.50019 0.35471 0.0
C1379 C 0.23556 0.48157 0.38104 0.0
H1380 H 0.29034 0.54037 0.3402 0.0
C1381 C 0.24693 0.49106 0.41458 0.0
H1382 H 0.24496 0.49418 0.32846 0.0
C1383 C 0.27436 0.51684 0.42128 0.0
C1384 C 0.29099 0.53571 0.39495 0.0
H1385 H 0.23528 0.47781 0.43585 0.0
H1386 H 0.28243 0.52221 0.4475 0.0
C1387 C 0.2788 0.52703 0.36147 0.0
C1388 C 0.24994 0.48655 0.86159 0.0
C1389 C 0.2423 0.47886 0.89566 0.0
H1390 H 0.27998 0.51783 0.82686 0.0
C1391 C 0.26216 0.49796 0.92117 0.0
H1392 H 0.23567 0.47271 0.84103 0.0
C1393 C 0.28863 0.52328 0.913 0.0
C1394 C 0.29563 0.5316 0.87892 0.0
H1395 H 0.25761 0.49291 0.94774 0.0
H1396 H 0.30322 0.53685 0.93353 0.0
C1397 C 0.27553 0.51272 0.85345 0.0
C1398 C 0.66806 0.73619 0.00996 0.0
C1399 C 0.64163 0.72618 0.03262 0.0
H1400 H 0.68435 0.76983 0.96932 0.0
C1401 C 0.60974 0.74388 0.03003 0.0
H1402 H 0.69312 0.72353 0.01126 0.0
C1403 C 0.60508 0.77149 1.00647 0.0
C1404 C 0.63184 0.78186 0.98414 0.0
H1405 H 0.58895 0.73753 0.04723 0.0
H1406 H 0.58045 0.78499 1.00595 0.0
C1407 C 0.6631 0.76301 0.98585 0.0
C1408 C 0.53751 0.36987 0.27043 0.0
C1409 C 0.54258 0.40448 0.28345 0.0
H1410 H 0.50899 0.33486 0.23553 0.0
C1411 C 0.52302 0.43129 0.26764 0.0
H1412 H 0.55193 0.34846 0.28152 0.0
C1413 C 0.49898 0.42361 0.24017 0.0
C1414 C 0.49304 0.3887 0.22815 0.0
H1415 H 0.52637 0.45841 0.27651 0.0
H1416 H 0.4841 0.44478 0.22927 0.0
C1417 C 0.51285 0.3621 0.24378 0.0
C1418 C 0.85563 0.2436 0.49858 0.0
C1419 C 0.88989 0.23197 0.49323 0.0
H1420 H 0.82199 0.27804 0.52638 0.0
C1421 C 0.9171 0.24949 0.51277 0.0
H1422 H 0.83377 0.23119 0.48447 0.0
C1423 C 0.91046 0.27752 0.53613 0.0
C1424 C 0.8761 0.2884 0.54215 0.0
H1425 H 0.9439 0.24168 0.50982 0.0
H1426 H 0.93229 0.29007 0.55016 0.0
C1427 C 0.84887 0.27065 0.5229 0.0
C1428 C 1.00441 0.60838 0.76986 0.0
C1429 C 0.99453 0.63575 0.79213 0.0
H1430 H 0.03734 0.59184 0.72923 0.0
C1431 C 0.01248 0.66855 0.78983 0.0
H1432 H 0.99144 0.58271 0.7709 0.0
C1433 C 0.03992 0.67346 0.76664 0.0
C1434 C 0.04968 0.64606 0.7442 0.0
H1435 H 1.00597 0.69018 0.80665 0.0
H1436 H 0.05332 0.69895 0.76604 0.0
C1437 C 0.03094 0.61362 0.74593 0.0
C1438 C 0.63325 0.24419 0.45817 0.0
C1439 C 0.63452 0.28042 0.4673 0.0
H1440 H 0.6284 0.19023 0.47418 0.0
C1441 C 0.63299 0.28878 0.50245 0.0
H1442 H 0.63467 0.23631 0.43164 0.0
C1443 C 0.63077 0.26192 0.52732 0.0
C1444 C 0.62902 0.22567 0.51796 0.0
H1445 H 0.63446 0.31614 0.51087 0.0
H1446 H 0.62974 0.26963 0.55392 0.0
C1447 C 0.62988 0.21754 0.48279 0.0
C1448 C 1.00285 0.35909 0.73674 0.0
C1449 C 0.99533 0.39362 0.72651 0.0
H1450 H 0.03443 0.32575 0.76828 0.0
C1451 C 0.014 0.42159 0.74381 0.0
H1452 H 0.98948 0.33673 0.72418 0.0
C1453 C 0.03865 0.41534 0.77061 0.0
C1454 C 0.04689 0.38075 0.78016 0.0
H1455 H 1.00941 0.44858 0.73675 0.0
H1456 H 0.05213 0.43767 0.78311 0.0
C1457 C 0.0287 0.3528 0.76236 0.0
C1458 C 0.85442 0.77301 0.02052 0.0
C1459 C 0.88759 0.77638 0.03705 0.0
H1460 H 0.8225 0.74858 0.98013 0.0
C1461 C 0.91391 0.7542 0.02458 0.0
H1462 H 0.83346 0.78965 0.02855 0.0
C1463 C 0.90742 0.72967 0.99715 0.0
C1464 C 0.87456 0.72698 0.97988 0.0
H1465 H 0.93997 0.75585 0.03616 0.0
H1466 H 0.92856 0.71335 0.98897 0.0
C1467 C 0.84825 0.74932 0.99231 0.0
C1468 C 0.52 0.60288 0.24926 0.0
C1469 C 0.53208 0.63176 0.23006 0.0
H1470 H 0.48759 0.58442 0.28981 0.0
C1471 C 0.51964 0.66532 0.23863 0.0
H1472 H 0.52901 0.5766 0.24366 0.0
C1473 C 0.49491 0.66958 0.26445 0.0
C1474 C 0.48269 0.64068 0.28356 0.0
H1475 H 0.52811 0.68818 0.22456 0.0
H1476 H 0.48524 0.69571 0.26947 0.0
C1477 C 0.49627 0.60735 0.27594 0.0
C1478 C 0.78201 1.00445 0.6618 0.0
C1479 C 0.79222 0.99426 0.62886 0.0
H1480 H 0.74935 0.03699 0.69273 0.0
C1481 C 0.77387 1.00983 0.60128 0.0
H1482 H 0.79506 0.99348 0.68386 0.0
C1483 C 0.74652 0.03413 0.60637 0.0
C1484 C 0.73712 0.04516 0.63933 0.0
H1485 H 0.78043 1.00288 0.57543 0.0
H1486 H 0.73329 0.04496 0.58434 0.0
C1487 C 0.75562 0.02975 0.66687 0.0
C1488 C 0.17769 0.52344 0.24702 0.0
C1489 C 0.14671 0.53686 0.23273 0.0
H1490 H 0.20135 0.48729 0.28154 0.0
C1491 C 0.11457 0.52367 0.24492 0.0
H1492 H 0.20291 0.5328 0.23847 0.0
C1493 C 0.11368 0.4982 0.271 0.0
C1494 C 0.14488 0.48436 0.28466 0.0
H1495 H 0.09015 0.53353 0.23476 0.0
H1496 H 0.08862 0.48874 0.27986 0.0
C1497 C 0.17677 0.49729 0.27194 0.0
C1498 C 0.73337 0.89549 0.52634 0.0
C1499 C 0.73926 0.88687 0.49186 0.0
H1500 H 0.7555 0.90475 0.57679 0.0
C1501 C 0.77331 0.87698 0.48346 0.0
H1502 H 0.70771 0.90347 0.53401 0.0
C1503 C 0.8009 0.87808 0.50822 0.0
C1504 C 0.79511 0.8879 0.54235 0.0
H1505 H 0.77917 0.87053 0.45732 0.0
H1506 H 0.82722 0.87287 0.5003 0.0
C1507 C 0.76076 0.89581 0.55114 0.0
C1508 C 0.38444 0.50471 0.72006 0.0
C1509 C 0.38274 0.46911 0.72952 0.0
H1510 H 0.38579 0.55909 0.73681 0.0
C1511 C 0.38536 0.4615 0.7645 0.0
H1512 H 0.38159 0.51158 0.69349 0.0
C1513 C 0.38872 0.48871 0.78937 0.0
C1514 C 0.38818 0.52436 0.78 0.0
H1515 H 0.38338 0.43439 0.77271 0.0
H1516 H 0.38934 0.48185 0.81602 0.0
C1517 C 0.38658 0.53195 0.74496 0.0
C1518 C 0.77806 0.10193 0.99926 0.0
C1519 C 0.79242 0.13368 0.98734 0.0
H1520 H 0.74141 0.07673 0.03138 0.0
C1521 C 0.78041 0.16576 1.00073 0.0
H1522 H 0.78675 0.0768 0.98958 0.0
C1523 C 0.75485 0.16571 0.02609 0.0
C1524 C 0.74029 0.1336 0.03744 0.0
H1525 H 0.79125 0.19065 0.99218 0.0
H1526 H 0.74598 0.19058 0.03619 0.0
C1527 C 0.75213 0.1019 0.02343 0.0
C1528 C 0.25302 0.17574 0.52436 0.0
C1529 C 0.23792 0.14386 0.53528 0.0
H1530 H 0.28535 0.20144 0.48851 0.0
C1531 C 0.24548 0.11226 0.51807 0.0
H1532 H 0.24762 0.20058 0.53695 0.0
C1533 C 0.26828 0.11272 0.49062 0.0
C1534 C 0.28251 0.14493 0.4794 0.0
H1535 H 0.23414 0.08736 0.52604 0.0
H1536 H 0.27415 0.08818 0.47774 0.0
C1537 C 0.27455 0.17632 0.49648 0.0
C1538 C 0.14244 0.98436 0.75084 0.0
C1539 C 0.13604 0.99714 0.78392 0.0
H1540 H 0.1431 0.99558 0.69727 0.0
C1541 C 0.12948 0.03339 0.78805 0.0
H1542 H 0.14707 0.95659 0.74651 0.0
C1543 C 0.12836 0.05592 0.75992 0.0
C1544 C 0.13297 0.04273 0.72674 0.0
H1545 H 0.12415 0.0442 0.81301 0.0
H1546 H 0.12169 0.08327 0.7639 0.0
C1547 C 0.14027 1.00672 0.72257 0.0
C1548 C 0.25316 0.84968 0.98566 0.0
C1549 C 0.23517 0.88036 0.97657 0.0
H1550 H 0.29004 0.82479 0.0183 0.0
C1551 C 0.24386 0.91156 0.99571 0.0
H1552 H 0.24762 0.82481 0.97237 0.0
C1553 C 0.26963 0.91149 0.02291 0.0
C1554 C 0.28682 0.88011 0.03186 0.0
H1555 H 0.23094 0.93585 0.9897 0.0
H1556 H 0.2752 0.93555 0.0375 0.0
C1557 C 0.27798 0.84957 0.01242 0.0
C1558 C 0.37937 0.05512 0.25819 0.0
C1559 C 0.38326 0.04288 0.29162 0.0
H1560 H 0.37587 0.04145 0.20486 0.0
C1561 C 0.38176 1.00614 0.29669 0.0
H1562 H 0.38105 0.08315 0.25332 0.0
C1563 C 0.37785 0.98222 0.26901 0.0
C1564 C 0.37647 0.99439 0.23542 0.0
H1565 H 0.38508 0.99583 0.32208 0.0
H1566 H 0.37845 0.95418 0.27382 0.0
C1567 C 0.37656 0.03117 0.23042 0.0
C1568 C 0.50803 0.26994 0.18326 0.0
C1569 C 0.49616 0.28321 0.15182 0.0
H1570 H 0.54447 0.23812 0.21046 0.0
C1571 C 0.51353 0.2719 0.12239 0.0
H1572 H 0.49567 0.27767 0.20659 0.0
C1573 C 0.54136 0.24769 0.12457 0.0
C1574 C 0.55351 0.2352 0.15636 0.0
H1575 H 0.50529 0.28132 0.09766 0.0
H1576 H 0.55376 0.23929 0.10147 0.0
C1577 C 0.53633 0.24705 0.18552 0.0
C1578 C 0.99475 0.25406 0.84008 0.0
C1579 C 0.98449 0.23672 0.86987 0.0
H1580 H 0.02999 0.28955 0.81593 0.0
C1581 C 1.0041 0.24555 0.90015 0.0
H1582 H 0.98118 0.24847 0.81596 0.0
C1583 C 0.03275 0.27074 0.90012 0.0
C1584 C 0.04307 0.28713 0.86967 0.0
H1585 H 0.99742 0.23304 0.92374 0.0
H1586 H 0.04745 0.27644 0.92359 0.0
C1587 C 0.02322 0.27811 0.83997 0.0
C1588 C 0.02341 0.77879 0.1324 0.0
C1589 C 0.98719 0.77256 0.12695 0.0
H1590 H 0.075 0.75727 0.13323 0.0
C1591 C 0.97553 0.73778 0.11887 0.0
H1592 H 0.03339 0.80529 0.13816 0.0
C1593 C 0.99952 0.71039 0.11486 0.0
C1594 C 0.03584 0.71667 0.11996 0.0
H1595 H 0.94794 0.73212 0.11376 0.0
H1596 H 0.98966 0.68437 0.10705 0.0
C1597 C 0.04729 0.75116 0.12962 0.0
C1598 C 0.52564 0.77565 0.39773 0.0
C1599 C 0.53571 0.79138 0.36686 0.0
H1600 H 0.49141 0.73753 0.42224 0.0
C1601 C 0.51648 0.78043 0.33723 0.0
H1602 H 0.53967 0.78289 0.42121 0.0
C1603 C 0.48906 0.75516 0.33784 0.0
C1604 C 0.47906 0.73856 0.36809 0.0
H1605 H 0.52278 0.79144 0.31282 0.0
H1606 H 0.47598 0.74813 0.31379 0.0
C1607 C 0.49798 0.74931 0.39827 0.0
C1608 C 0.01693 0.77578 0.6234 0.0
C1609 C 0.99798 0.7859 0.65219 0.0
H1610 H 0.05874 0.74455 0.60366 0.0
C1611 C 1.00867 0.77214 0.68384 0.0
H1612 H 1.00963 0.78564 0.59857 0.0
C1613 C 0.03728 0.74976 0.68689 0.0
C1614 C 0.05597 0.73909 0.6583 0.0
H1615 H 0.99505 0.779 0.70671 0.0
H1616 H 0.04437 0.74017 0.7119 0.0
C1617 C 0.04512 0.75215 0.62632 0.0
C1618 C 0.02421 0.27277 0.37496 0.0
C1619 C 0.03311 0.29244 0.40512 0.0
H1620 H 0.99331 0.22925 0.35171 0.0
C1621 C 0.01576 0.28235 0.43485 0.0
H1622 H 0.03675 0.27933 0.35145 0.0
C1623 C 0.99159 0.25397 0.43501 0.0
C1624 C 0.98266 0.23397 0.40545 0.0
H1625 H 0.02144 0.29592 0.45892 0.0
H1626 H 0.98003 0.24733 0.459 0.0
C1627 C 0.99901 0.24412 0.37505 0.0
C1628 C 0.50065 0.7427 0.87014 0.0
C1629 C 0.4866 0.73095 0.90116 0.0
H1630 H 0.53649 0.77928 0.84559 0.0
C1631 C 0.49822 0.74927 0.93099 0.0
H1632 H 0.4929 0.72925 0.84651 0.0
C1633 C 0.52243 0.77757 0.93047 0.0
C1634 C 0.53723 0.78942 0.90007 0.0
H1635 H 0.48867 0.74149 0.95549 0.0
H1636 H 0.53007 0.78985 0.95473 0.0
C1637 C 0.52597 0.77131 0.86965 0.0
C1638 C 0.67754 0.02904 0.75211 0.0
C1639 C 0.64677 0.03816 0.73425 0.0
H1640 H 0.70139 0.99609 0.78943 0.0
C1641 C 0.61508 0.02103 0.74287 0.0
H1642 H 0.70245 0.04145 0.74623 0.0
C1643 C 0.61435 0.99556 0.76879 0.0
C1644 C 0.64546 0.98595 0.78585 0.0
H1645 H 0.59084 0.02748 0.72976 0.0
H1646 H 0.58972 0.98262 0.77468 0.0
C1647 C 0.67695 1.00302 0.77703 0.0
C1648 C 0.26504 0.38584 0.05345 0.0
C1649 C 0.3001 0.38385 0.04411 0.0
H1650 H 0.2114 0.38842 0.03624 0.0
C1651 C 0.30739 0.37785 0.0096 0.0
H1652 H 0.25871 0.39135 0.07967 0.0
C1653 C 0.28033 0.37566 0.9847 0.0
C1654 C 0.24545 0.38056 0.99368 0.0
H1655 H 0.33427 0.37695 1.00162 0.0
H1656 H 0.287 0.3728 0.95821 0.0
C1657 C 0.23802 0.38458 0.02846 0.0
C1658 C 0.90531 0.97503 0.25041 0.0
C1659 C 0.87768 0.97361 0.22571 0.0
H1660 H 0.92807 1.00167 0.29537 0.0
C1661 C 0.85263 0.99999 0.22728 0.0
H1662 H 0.9247 0.9547 0.25054 0.0
C1663 C 0.85429 0.02636 0.25271 0.0
C1664 C 0.88101 0.02766 0.27833 0.0
H1665 H 0.83067 0.99956 0.20923 0.0
H1666 H 0.83359 0.04534 0.25261 0.0
C1667 C 0.90698 1.00177 0.27642 0.0
C1668 C 0.25315 0.66056 0.52679 0.0
C1669 C 0.2378 0.6286 0.53763 0.0
H1670 H 0.29022 0.68544 0.49364 0.0
C1671 C 0.24915 0.59684 0.52325 0.0
H1672 H 0.24479 0.68549 0.53723 0.0
C1673 C 0.27552 0.59679 0.4993 0.0
C1674 C 0.29064 0.62853 0.48798 0.0
H1675 H 0.23795 0.57177 0.53093 0.0
H1676 H 0.28391 0.57168 0.48931 0.0
C1677 C 0.27893 0.66056 0.5017 0.0
C1678 C 0.75364 0.67196 0.02311 0.0
C1679 C 0.73802 0.64077 0.03504 0.0
H1680 H 0.78597 0.6959 0.98619 0.0
C1681 C 0.74501 0.60851 0.01863 0.0
H1682 H 0.7487 0.69729 0.03497 0.0
C1683 C 0.76761 0.60765 0.99096 0.0
C1684 C 0.78221 0.63921 0.97862 0.0
H1685 H 0.73327 0.58408 0.02732 0.0
H1686 H 0.77297 0.58262 0.97875 0.0
C1687 C 0.7749 0.67123 0.99499 0.0
C1688 C 0.61528 0.53564 0.2874 0.0
C1689 C 0.63183 0.50293 0.28498 0.0
H1690 H 0.5997 0.58265 0.26189 0.0
C1691 C 0.6485 0.49454 0.25439 0.0
H1692 H 0.60212 0.54312 0.31039 0.0
C1693 C 0.64692 0.51733 0.22647 0.0
C1694 C 0.62932 0.54934 0.22875 0.0
H1695 H 0.66122 0.46952 0.25136 0.0
H1696 H 0.65807 0.50921 0.20264 0.0
C1697 C 0.6141 0.5585 0.25969 0.0
C1698 C 0.77594 0.40706 0.50587 0.0
C1699 C 0.77795 0.37879 0.52875 0.0
H1700 H 0.75041 0.42785 0.46091 0.0
C1701 C 0.75397 0.35018 0.52386 0.0
H1702 H 0.79385 0.42957 0.50882 0.0
C1703 C 0.72967 0.34918 0.49664 0.0
C1704 C 0.72786 0.37694 0.47352 0.0
H1705 H 0.75445 0.32778 0.54061 0.0
H1706 H 0.71247 0.32611 0.49332 0.0
C1707 C 0.75087 0.40628 0.47863 0.0
C1708 C 0.93484 0.49607 0.74843 0.0
C1709 C 0.90434 0.48631 0.72939 0.0
H1710 H 0.95944 0.52642 0.78853 0.0
C1711 C 0.87291 0.50243 0.73904 0.0
H1712 H 0.95965 0.48482 0.74223 0.0
C1713 C 0.87274 0.52792 0.76648 0.0
C1714 C 0.90388 0.53741 0.78531 0.0
H1715 H 0.84879 0.49617 0.7249 0.0
H1716 H 0.84836 0.53992 0.77298 0.0
C1717 C 0.93462 0.5205 0.77547 0.0
C1718 C 0.4973 0.25485 0.64431 0.0
C1719 C 0.4888 0.27651 0.61651 0.0
H1720 H 0.52751 0.21108 0.66265 0.0
C1721 C 0.50464 0.2691 0.58529 0.0
H1722 H 0.48576 0.25961 0.66876 0.0
C1723 C 0.52746 0.24103 0.58161 0.0
C1724 C 0.53636 0.21953 0.60917 0.0
H1725 H 0.49895 0.28478 0.56311 0.0
H1726 H 0.53861 0.23643 0.55692 0.0
C1727 C 0.52131 0.22707 0.64083 0.0
loop_
_geom_bond_atom_site_label_1
_geom_bond_atom_site_label_2
_geom_bond_distance
_geom_bond_site_symmetry_2
_ccdc_geom_bond_type
Co0 H3 2.400 . S
Co0 O4 2.009 . S
Co0 O12 2.115 . S
Co0 O13 2.315 . S
Co0 O24 2.053 . S
Co0 O27 2.094 . S
Co0 O30 2.122 . S
Co1 O4 2.126 . S
Co1 H5 2.388 . S
Co1 O6 2.053 . S
Co1 O9 2.047 . S
Co1 O15 2.113 . S
Co1 O26 2.063 . S
Co2 H3 2.388 . S
Co2 O4 2.053 . S
Co2 O6 2.126 . S
Co2 O11 2.063 . S
Co2 O25 2.047 . S
Co2 O31 2.113 . S
H3 Co0 2.400 . S
H3 Co2 2.388 . S
H3 O4 0.760 . S
O4 Co0 2.009 . S
O4 Co1 2.126 . S
O4 Co2 2.053 . S
O4 H3 0.760 . S
H5 Co1 2.388 . S
H5 O6 0.760 . S
H5 Co7 2.400 . S
O6 Co1 2.053 . S
O6 Co2 2.126 . S
O6 H5 0.760 . S
O6 Co7 2.009 . S
Co7 H5 2.400 . S
Co7 O6 2.009 . S
Co7 O8 2.053 . S
Co7 O10 2.094 . S
Co7 O14 2.122 . S
Co7 O28 2.115 . S
Co7 O29 2.315 . S
O8 Co7 2.053 . S
O8 C20 1.259 . S
O9 Co1 2.047 . S
O9 C20 1.257 . S
O10 Co7 2.094 . S
O10 C21 1.253 . S
O11 Co2 2.063 . S
O11 C21 1.268 . S
O12 Co0 2.115 . S
O12 C22 1.281 . S
O13 Co0 2.315 . S
O13 C22 1.252 . S
O14 Co7 2.122 . S
O14 C23 1.272 . S
O15 Co1 2.113 . S
O15 C23 1.245 . S
C16 O24 1.259 . S
C16 O25 1.257 . S
C17 O26 1.268 . S
C17 O27 1.253 . S
C18 O28 1.281 . S
C18 O29 1.252 . S
C19 O30 1.272 . S
C19 O31 1.245 . S
C20 O8 1.259 . S
C20 O9 1.257 . S
C21 O10 1.253 . S
C21 O11 1.268 . S
C22 O12 1.281 . S
C22 O13 1.252 . S
C23 O14 1.272 . S
C23 O15 1.245 . S
O24 Co0 2.053 . S
O24 C16 1.259 . S
O25 Co2 2.047 . S
O25 C16 1.257 . S
O26 Co1 2.063 . S
O26 C17 1.268 . S
O27 Co0 2.094 . S
O27 C17 1.253 . S
O28 Co7 2.115 . S
O28 C18 1.281 . S
O29 Co7 2.315 . S
O29 C18 1.252 . S
O30 Co0 2.122 . S
O30 C19 1.272 . S
O31 Co2 2.113 . S
O31 C19 1.245 . S
Co32 H35 2.400 . S
Co32 O36 2.009 . S
Co32 O44 2.115 . S
Co32 O45 2.315 . S
Co32 O56 2.053 . S
Co32 O59 2.094 . S
Co32 O62 2.122 . S
Co33 O36 2.126 . S
Co33 H37 2.388 . S
Co33 O38 2.053 . S
Co33 O41 2.047 . S
Co33 O47 2.113 . S
Co33 O58 2.063 . S
Co34 H35 2.388 . S
Co34 O36 2.053 . S
Co34 O38 2.126 . S
Co34 O43 2.063 . S
Co34 O57 2.047 . S
Co34 O63 2.113 . S
H35 Co32 2.400 . S
H35 Co34 2.388 . S
H35 O36 0.760 . S
O36 Co32 2.009 . S
O36 Co33 2.126 . S
O36 Co34 2.053 . S
O36 H35 0.760 . S
H37 Co33 2.388 . S
H37 O38 0.760 . S
H37 Co39 2.400 . S
O38 Co33 2.053 . S
O38 Co34 2.126 . S
O38 H37 0.760 . S
O38 Co39 2.009 . S
Co39 H37 2.400 . S
Co39 O38 2.009 . S
Co39 O40 2.053 . S
Co39 O42 2.094 . S
Co39 O46 2.122 . S
Co39 O60 2.115 . S
Co39 O61 2.315 . S
O40 Co39 2.053 . S
O40 C52 1.259 . S
O41 Co33 2.047 . S
O41 C52 1.257 . S
O42 Co39 2.094 . S
O42 C53 1.253 . S
O43 Co34 2.063 . S
O43 C53 1.268 . S
O44 Co32 2.115 . S
O44 C54 1.281 . S
O45 Co32 2.315 . S
O45 C54 1.252 . S
O46 Co39 2.122 . S
O46 C55 1.272 . S
O47 Co33 2.113 . S
O47 C55 1.245 . S
C48 O56 1.259 . S
C48 O57 1.257 . S
C49 O58 1.268 . S
C49 O59 1.253 . S
C50 O60 1.281 . S
C50 O61 1.252 . S
C51 O62 1.272 . S
C51 O63 1.245 . S
C52 O40 1.259 . S
C52 O41 1.257 . S
C53 O42 1.253 . S
C53 O43 1.268 . S
C54 O44 1.281 . S
C54 O45 1.252 . S
C55 O46 1.272 . S
C55 O47 1.245 . S
O56 Co32 2.053 . S
O56 C48 1.259 . S
O57 Co34 2.047 . S
O57 C48 1.257 . S
O58 Co33 2.063 . S
O58 C49 1.268 . S
O59 Co32 2.094 . S
O59 C49 1.253 . S
O60 Co39 2.115 . S
O60 C50 1.281 . S
O61 Co39 2.315 . S
O61 C50 1.252 . S
O62 Co32 2.122 . S
O62 C51 1.272 . S
O63 Co34 2.113 . S
O63 C51 1.245 . S
Co64 H67 2.400 . S
Co64 O68 2.009 . S
Co64 O76 2.115 . S
Co64 O77 2.315 . S
Co64 O88 2.053 . S
Co64 O91 2.094 . S
Co64 O94 2.122 . S
Co65 O68 2.126 . S
Co65 H69 2.388 . S
Co65 O70 2.053 . S
Co65 O73 2.047 . S
Co65 O79 2.113 . S
Co65 O90 2.063 . S
Co66 H67 2.388 . S
Co66 O68 2.053 . S
Co66 O70 2.126 . S
Co66 O75 2.063 . S
Co66 O89 2.047 . S
Co66 O95 2.113 . S
H67 Co64 2.400 . S
H67 Co66 2.388 . S
H67 O68 0.760 . S
O68 Co64 2.009 . S
O68 Co65 2.126 . S
O68 Co66 2.053 . S
O68 H67 0.760 . S
H69 Co65 2.388 . S
H69 O70 0.760 . S
H69 Co71 2.400 . S
O70 Co65 2.053 . S
O70 Co66 2.126 . S
O70 H69 0.760 . S
O70 Co71 2.009 . S
Co71 H69 2.400 . S
Co71 O70 2.009 . S
Co71 O72 2.053 . S
Co71 O74 2.094 . S
Co71 O78 2.122 . S
Co71 O92 2.115 . S
Co71 O93 2.315 . S
O72 Co71 2.053 . S
O72 C84 1.259 . S
O73 Co65 2.047 . S
O73 C84 1.257 . S
O74 Co71 2.094 . S
O74 C85 1.253 . S
O75 Co66 2.063 . S
O75 C85 1.268 . S
O76 Co64 2.115 . S
O76 C86 1.281 . S
O77 Co64 2.315 . S
O77 C86 1.252 . S
O78 Co71 2.122 . S
O78 C87 1.272 . S
O79 Co65 2.113 . S
O79 C87 1.245 . S
C80 O88 1.259 . S
C80 O89 1.257 . S
C81 O90 1.268 . S
C81 O91 1.253 . S
C82 O92 1.281 . S
C82 O93 1.252 . S
C83 O94 1.272 . S
C83 O95 1.245 . S
C84 O72 1.259 . S
C84 O73 1.257 . S
C85 O74 1.253 . S
C85 O75 1.268 . S
C86 O76 1.281 . S
C86 O77 1.252 . S
C87 O78 1.272 . S
C87 O79 1.245 . S
O88 Co64 2.053 . S
O88 C80 1.259 . S
O89 Co66 2.047 . S
O89 C80 1.257 . S
O90 Co65 2.063 . S
O90 C81 1.268 . S
O91 Co64 2.094 . S
O91 C81 1.253 . S
O92 Co71 2.115 . S
O92 C82 1.281 . S
O93 Co71 2.315 . S
O93 C82 1.252 . S
O94 Co64 2.122 . S
O94 C83 1.272 . S
O95 Co66 2.113 . S
O95 C83 1.245 . S
Co96 H99 2.400 . S
Co96 O100 2.009 . S
Co96 O108 2.115 . S
Co96 O109 2.315 . S
Co96 O120 2.053 . S
Co96 O123 2.094 . S
Co96 O126 2.122 . S
Co97 O100 2.126 . S
Co97 H101 2.388 . S
Co97 O102 2.053 . S
Co97 O105 2.047 . S
Co97 O111 2.113 . S
Co97 O122 2.063 . S
Co98 H99 2.388 . S
Co98 O100 2.053 . S
Co98 O102 2.126 . S
Co98 O107 2.063 . S
Co98 O121 2.047 . S
Co98 O127 2.113 . S
H99 Co96 2.400 . S
H99 Co98 2.388 . S
H99 O100 0.760 . S
O100 Co96 2.009 . S
O100 Co97 2.126 . S
O100 Co98 2.053 . S
O100 H99 0.760 . S
H101 Co97 2.388 . S
H101 O102 0.760 . S
H101 Co103 2.400 . S
O102 Co97 2.053 . S
O102 Co98 2.126 . S
O102 H101 0.760 . S
O102 Co103 2.009 . S
Co103 H101 2.400 . S
Co103 O102 2.009 . S
Co103 O104 2.053 . S
Co103 O106 2.094 . S
Co103 O110 2.122 . S
Co103 O124 2.115 . S
Co103 O125 2.315 . S
O104 Co103 2.053 . S
O104 C116 1.259 . S
O105 Co97 2.047 . S
O105 C116 1.257 . S
O106 Co103 2.094 . S
O106 C117 1.253 . S
O107 Co98 2.063 . S
O107 C117 1.268 . S
O108 Co96 2.115 . S
O108 C118 1.281 . S
O109 Co96 2.315 . S
O109 C118 1.252 . S
O110 Co103 2.122 . S
O110 C119 1.272 . S
O111 Co97 2.113 . S
O111 C119 1.245 . S
C112 O120 1.259 . S
C112 O121 1.257 . S
C113 O122 1.268 . S
C113 O123 1.253 . S
C114 O124 1.281 . S
C114 O125 1.252 . S
C115 O126 1.272 . S
C115 O127 1.245 . S
C116 O104 1.259 . S
C116 O105 1.257 . S
C117 O106 1.253 . S
C117 O107 1.268 . S
C118 O108 1.281 . S
C118 O109 1.252 . S
C119 O110 1.272 . S
C119 O111 1.245 . S
O120 Co96 2.053 . S
O120 C112 1.259 . S
O121 Co98 2.047 . S
O121 C112 1.257 . S
O122 Co97 2.063 . S
O122 C113 1.268 . S
O123 Co96 2.094 . S
O123 C113 1.253 . S
O124 Co103 2.115 . S
O124 C114 1.281 . S
O125 Co103 2.315 . S
O125 C114 1.252 . S
O126 Co96 2.122 . S
O126 C115 1.272 . S
O127 Co98 2.113 . S
O127 C115 1.245 . S
Co128 H131 2.400 . S
Co128 O132 2.009 . S
Co128 O140 2.115 . S
Co128 O141 2.315 . S
Co128 O152 2.053 . S
Co128 O155 2.094 . S
Co128 O158 2.122 . S
Co129 O132 2.126 . S
Co129 H133 2.388 . S
Co129 O134 2.053 . S
Co129 O137 2.047 . S
Co129 O143 2.113 . S
Co129 O154 2.063 . S
Co130 H131 2.388 . S
Co130 O132 2.053 . S
Co130 O134 2.126 . S
Co130 O139 2.063 . S
Co130 O153 2.047 . S
Co130 O159 2.113 . S
H131 Co128 2.400 . S
H131 Co130 2.388 . S
H131 O132 0.760 . S
O132 Co128 2.009 . S
O132 Co129 2.126 . S
O132 Co130 2.053 . S
O132 H131 0.760 . S
H133 Co129 2.388 . S
H133 O134 0.760 . S
H133 Co135 2.400 . S
O134 Co129 2.053 . S
O134 Co130 2.126 . S
O134 H133 0.760 . S
O134 Co135 2.009 . S
Co135 H133 2.400 . S
Co135 O134 2.009 . S
Co135 O136 2.053 . S
Co135 O138 2.094 . S
Co135 O142 2.122 . S
Co135 O156 2.115 . S
Co135 O157 2.315 . S
O136 Co135 2.053 . S
O136 C148 1.259 . S
O137 Co129 2.047 . S
O137 C148 1.257 . S
O138 Co135 2.094 . S
O138 C149 1.253 . S
O139 Co130 2.063 . S
O139 C149 1.268 . S
O140 Co128 2.115 . S
O140 C150 1.281 . S
O141 Co128 2.315 . S
O141 C150 1.252 . S
O142 Co135 2.122 . S
O142 C151 1.272 . S
O143 Co129 2.113 . S
O143 C151 1.245 . S
C144 O152 1.259 . S
C144 O153 1.257 . S
C145 O154 1.268 . S
C145 O155 1.253 . S
C146 O156 1.281 . S
C146 O157 1.252 . S
C147 O158 1.272 . S
C147 O159 1.245 . S
C148 O136 1.259 . S
C148 O137 1.257 . S
C149 O138 1.253 . S
C149 O139 1.268 . S
C150 O140 1.281 . S
C150 O141 1.252 . S
C151 O142 1.272 . S
C151 O143 1.245 . S
O152 Co128 2.053 . S
O152 C144 1.259 . S
O153 Co130 2.047 . S
O153 C144 1.257 . S
O154 Co129 2.063 . S
O154 C145 1.268 . S
O155 Co128 2.094 . S
O155 C145 1.253 . S
O156 Co135 2.115 . S
O156 C146 1.281 . S
O157 Co135 2.315 . S
O157 C146 1.252 . S
O158 Co128 2.122 . S
O158 C147 1.272 . S
O159 Co130 2.113 . S
O159 C147 1.245 . S
Co160 H163 2.400 . S
Co160 O164 2.009 . S
Co160 O172 2.115 . S
Co160 O173 2.315 . S
Co160 O184 2.053 . S
Co160 O187 2.094 . S
Co160 O190 2.122 . S
Co161 O164 2.126 . S
Co161 H165 2.388 . S
Co161 O166 2.053 . S
Co161 O169 2.047 . S
Co161 O175 2.113 . S
Co161 O186 2.063 . S
Co162 H163 2.388 . S
Co162 O164 2.053 . S
Co162 O166 2.126 . S
Co162 O171 2.063 . S
Co162 O185 2.047 . S
Co162 O191 2.113 . S
H163 Co160 2.400 . S
H163 Co162 2.388 . S
H163 O164 0.760 . S
O164 Co160 2.009 . S
O164 Co161 2.126 . S
O164 Co162 2.053 . S
O164 H163 0.760 . S
H165 Co161 2.388 . S
H165 O166 0.760 . S
H165 Co167 2.400 . S
O166 Co161 2.053 . S
O166 Co162 2.126 . S
O166 H165 0.760 . S
O166 Co167 2.009 . S
Co167 H165 2.400 . S
Co167 O166 2.009 . S
Co167 O168 2.053 . S
Co167 O170 2.094 . S
Co167 O174 2.122 . S
Co167 O188 2.115 . S
Co167 O189 2.315 . S
O168 Co167 2.053 . S
O168 C180 1.259 . S
O169 Co161 2.047 . S
O169 C180 1.257 . S
O170 Co167 2.094 . S
O170 C181 1.253 . S
O171 Co162 2.063 . S
O171 C181 1.268 . S
O172 Co160 2.115 . S
O172 C182 1.281 . S
O173 Co160 2.315 . S
O173 C182 1.252 . S
O174 Co167 2.122 . S
O174 C183 1.272 . S
O175 Co161 2.113 . S
O175 C183 1.245 . S
C176 O184 1.259 . S
C176 O185 1.257 . S
C177 O186 1.268 . S
C177 O187 1.253 . S
C178 O188 1.281 . S
C178 O189 1.252 . S
C179 O190 1.272 . S
C179 O191 1.245 . S
C180 O168 1.259 . S
C180 O169 1.257 . S
C181 O170 1.253 . S
C181 O171 1.268 . S
C182 O172 1.281 . S
C182 O173 1.252 . S
C183 O174 1.272 . S
C183 O175 1.245 . S
O184 Co160 2.053 . S
O184 C176 1.259 . S
O185 Co162 2.047 . S
O185 C176 1.257 . S
O186 Co161 2.063 . S
O186 C177 1.268 . S
O187 Co160 2.094 . S
O187 C177 1.253 . S
O188 Co167 2.115 . S
O188 C178 1.281 . S
O189 Co167 2.315 . S
O189 C178 1.252 . S
O190 Co160 2.122 . S
O190 C179 1.272 . S
O191 Co162 2.113 . S
O191 C179 1.245 . S
Co192 H195 2.400 . S
Co192 O196 2.009 . S
Co192 O204 2.115 . S
Co192 O205 2.315 . S
Co192 O216 2.053 . S
Co192 O219 2.094 . S
Co192 O222 2.122 . S
Co193 O196 2.126 . S
Co193 H197 2.388 . S
Co193 O198 2.053 . S
Co193 O201 2.047 . S
Co193 O207 2.113 . S
Co193 O218 2.063 . S
Co194 H195 2.388 . S
Co194 O196 2.053 . S
Co194 O198 2.126 . S
Co194 O203 2.063 . S
Co194 O217 2.047 . S
Co194 O223 2.113 . S
H195 Co192 2.400 . S
H195 Co194 2.388 . S
H195 O196 0.760 . S
O196 Co192 2.009 . S
O196 Co193 2.126 . S
O196 Co194 2.053 . S
O196 H195 0.760 . S
H197 Co193 2.388 . S
H197 O198 0.760 . S
H197 Co199 2.400 . S
O198 Co193 2.053 . S
O198 Co194 2.126 . S
O198 H197 0.760 . S
O198 Co199 2.009 . S
Co199 H197 2.400 . S
Co199 O198 2.009 . S
Co199 O200 2.053 . S
Co199 O202 2.094 . S
Co199 O206 2.122 . S
Co199 O220 2.115 . S
Co199 O221 2.315 . S
O200 Co199 2.053 . S
O200 C212 1.259 . S
O201 Co193 2.047 . S
O201 C212 1.257 . S
O202 Co199 2.094 . S
O202 C213 1.253 . S
O203 Co194 2.063 . S
O203 C213 1.268 . S
O204 Co192 2.115 . S
O204 C214 1.281 . S
O205 Co192 2.315 . S
O205 C214 1.252 . S
O206 Co199 2.122 . S
O206 C215 1.272 . S
O207 Co193 2.113 . S
O207 C215 1.245 . S
C208 O216 1.259 . S
C208 O217 1.257 . S
C209 O218 1.268 . S
C209 O219 1.253 . S
C210 O220 1.281 . S
C210 O221 1.252 . S
C211 O222 1.272 . S
C211 O223 1.245 . S
C212 O200 1.259 . S
C212 O201 1.257 . S
C213 O202 1.253 . S
C213 O203 1.268 . S
C214 O204 1.281 . S
C214 O205 1.252 . S
C215 O206 1.272 . S
C215 O207 1.245 . S
O216 Co192 2.053 . S
O216 C208 1.259 . S
O217 Co194 2.047 . S
O217 C208 1.257 . S
O218 Co193 2.063 . S
O218 C209 1.268 . S
O219 Co192 2.094 . S
O219 C209 1.253 . S
O220 Co199 2.115 . S
O220 C210 1.281 . S
O221 Co199 2.315 . S
O221 C210 1.252 . S
O222 Co192 2.122 . S
O222 C211 1.272 . S
O223 Co194 2.113 . S
O223 C211 1.245 . S
Co224 H227 2.400 . S
Co224 O228 2.009 . S
Co224 O236 2.115 . S
Co224 O237 2.315 . S
Co224 O248 2.053 . S
Co224 O251 2.094 . S
Co224 O254 2.122 . S
Co225 O228 2.126 . S
Co225 H229 2.388 . S
Co225 O230 2.053 . S
Co225 O233 2.047 . S
Co225 O239 2.113 . S
Co225 O250 2.063 . S
Co226 H227 2.388 . S
Co226 O228 2.053 . S
Co226 O230 2.126 . S
Co226 O235 2.063 . S
Co226 O249 2.047 . S
Co226 O255 2.113 . S
H227 Co224 2.400 . S
H227 Co226 2.388 . S
H227 O228 0.760 . S
O228 Co224 2.009 . S
O228 Co225 2.126 . S
O228 Co226 2.053 . S
O228 H227 0.760 . S
H229 Co225 2.388 . S
H229 O230 0.760 . S
H229 Co231 2.400 . S
O230 Co225 2.053 . S
O230 Co226 2.126 . S
O230 H229 0.760 . S
O230 Co231 2.009 . S
Co231 H229 2.400 . S
Co231 O230 2.009 . S
Co231 O232 2.053 . S
Co231 O234 2.094 . S
Co231 O238 2.122 . S
Co231 O252 2.115 . S
Co231 O253 2.315 . S
O232 Co231 2.053 . S
O232 C244 1.259 . S
O233 Co225 2.047 . S
O233 C244 1.257 . S
O234 Co231 2.094 . S
O234 C245 1.253 . S
O235 Co226 2.063 . S
O235 C245 1.268 . S
O236 Co224 2.115 . S
O236 C246 1.281 . S
O237 Co224 2.315 . S
O237 C246 1.252 . S
O238 Co231 2.122 . S
O238 C247 1.272 . S
O239 Co225 2.113 . S
O239 C247 1.245 . S
C240 O248 1.259 . S
C240 O249 1.257 . S
C241 O250 1.268 . S
C241 O251 1.253 . S
C242 O252 1.281 . S
C242 O253 1.252 . S
C243 O254 1.272 . S
C243 O255 1.245 . S
C244 O232 1.259 . S
C244 O233 1.257 . S
C245 O234 1.253 . S
C245 O235 1.268 . S
C246 O236 1.281 . S
C246 O237 1.252 . S
C247 O238 1.272 . S
C247 O239 1.245 . S
O248 Co224 2.053 . S
O248 C240 1.259 . S
O249 Co226 2.047 . S
O249 C240 1.257 . S
O250 Co225 2.063 . S
O250 C241 1.268 . S
O251 Co224 2.094 . S
O251 C241 1.253 . S
O252 Co231 2.115 . S
O252 C242 1.281 . S
O253 Co231 2.315 . S
O253 C242 1.252 . S
O254 Co224 2.122 . S
O254 C243 1.272 . S
O255 Co226 2.113 . S
O255 C243 1.245 . S
Co256 H259 2.400 . S
Co256 O260 2.009 . S
Co256 O268 2.115 . S
Co256 O269 2.315 . S
Co256 O280 2.053 . S
Co256 O283 2.094 . S
Co256 O286 2.122 . S
Co257 O260 2.126 . S
Co257 H261 2.388 . S
Co257 O262 2.053 . S
Co257 O265 2.047 . S
Co257 O271 2.113 . S
Co257 O282 2.063 . S
Co258 H259 2.388 . S
Co258 O260 2.053 . S
Co258 O262 2.126 . S
Co258 O267 2.063 . S
Co258 O281 2.047 . S
Co258 O287 2.113 . S
H259 Co256 2.400 . S
H259 Co258 2.388 . S
H259 O260 0.760 . S
O260 Co256 2.009 . S
O260 Co257 2.126 . S
O260 Co258 2.053 . S
O260 H259 0.760 . S
H261 Co257 2.388 . S
H261 O262 0.760 . S
H261 Co263 2.400 . S
O262 Co257 2.053 . S
O262 Co258 2.126 . S
O262 H261 0.760 . S
O262 Co263 2.009 . S
Co263 H261 2.400 . S
Co263 O262 2.009 . S
Co263 O264 2.053 . S
Co263 O266 2.094 . S
Co263 O270 2.122 . S
Co263 O284 2.115 . S
Co263 O285 2.315 . S
O264 Co263 2.053 . S
O264 C276 1.259 . S
O265 Co257 2.047 . S
O265 C276 1.257 . S
O266 Co263 2.094 . S
O266 C277 1.253 . S
O267 Co258 2.063 . S
O267 C277 1.268 . S
O268 Co256 2.115 . S
O268 C278 1.281 . S
O269 Co256 2.315 . S
O269 C278 1.252 . S
O270 Co263 2.122 . S
O270 C279 1.272 . S
O271 Co257 2.113 . S
O271 C279 1.245 . S
C272 O280 1.259 . S
C272 O281 1.257 . S
C273 O282 1.268 . S
C273 O283 1.253 . S
C274 O284 1.281 . S
C274 O285 1.252 . S
C275 O286 1.272 . S
C275 O287 1.245 . S
C276 O264 1.259 . S
C276 O265 1.257 . S
C277 O266 1.253 . S
C277 O267 1.268 . S
C278 O268 1.281 . S
C278 O269 1.252 . S
C279 O270 1.272 . S
C279 O271 1.245 . S
O280 Co256 2.053 . S
O280 C272 1.259 . S
O281 Co258 2.047 . S
O281 C272 1.257 . S
O282 Co257 2.063 . S
O282 C273 1.268 . S
O283 Co256 2.094 . S
O283 C273 1.253 . S
O284 Co263 2.115 . S
O284 C274 1.281 . S
O285 Co263 2.315 . S
O285 C274 1.252 . S
O286 Co256 2.122 . S
O286 C275 1.272 . S
O287 Co258 2.113 . S
O287 C275 1.245 . S
Co288 H291 2.400 . S
Co288 O292 2.009 . S
Co288 O300 2.115 . S
Co288 O301 2.315 . S
Co288 O312 2.053 . S
Co288 O315 2.094 . S
Co288 O318 2.122 . S
Co289 O292 2.126 . S
Co289 H293 2.388 . S
Co289 O294 2.053 . S
Co289 O297 2.047 . S
Co289 O303 2.113 . S
Co289 O314 2.063 . S
Co290 H291 2.388 . S
Co290 O292 2.053 . S
Co290 O294 2.126 . S
Co290 O299 2.063 . S
Co290 O313 2.047 . S
Co290 O319 2.113 . S
H291 Co288 2.400 . S
H291 Co290 2.388 . S
H291 O292 0.760 . S
O292 Co288 2.009 . S
O292 Co289 2.126 . S
O292 Co290 2.053 . S
O292 H291 0.760 . S
H293 Co289 2.388 . S
H293 O294 0.760 . S
H293 Co295 2.400 . S
O294 Co289 2.053 . S
O294 Co290 2.126 . S
O294 H293 0.760 . S
O294 Co295 2.009 . S
Co295 H293 2.400 . S
Co295 O294 2.009 . S
Co295 O296 2.053 . S
Co295 O298 2.094 . S
Co295 O302 2.122 . S
Co295 O316 2.115 . S
Co295 O317 2.315 . S
O296 Co295 2.053 . S
O296 C308 1.259 . S
O297 Co289 2.047 . S
O297 C308 1.257 . S
O298 Co295 2.094 . S
O298 C309 1.253 . S
O299 Co290 2.063 . S
O299 C309 1.268 . S
O300 Co288 2.115 . S
O300 C310 1.281 . S
O301 Co288 2.315 . S
O301 C310 1.252 . S
O302 Co295 2.122 . S
O302 C311 1.272 . S
O303 Co289 2.113 . S
O303 C311 1.245 . S
C304 O312 1.259 . S
C304 O313 1.257 . S
C305 O314 1.268 . S
C305 O315 1.253 . S
C306 O316 1.281 . S
C306 O317 1.252 . S
C307 O318 1.272 . S
C307 O319 1.245 . S
C308 O296 1.259 . S
C308 O297 1.257 . S
C309 O298 1.253 . S
C309 O299 1.268 . S
C310 O300 1.281 . S
C310 O301 1.252 . S
C311 O302 1.272 . S
C311 O303 1.245 . S
O312 Co288 2.053 . S
O312 C304 1.259 . S
O313 Co290 2.047 . S
O313 C304 1.257 . S
O314 Co289 2.063 . S
O314 C305 1.268 . S
O315 Co288 2.094 . S
O315 C305 1.253 . S
O316 Co295 2.115 . S
O316 C306 1.281 . S
O317 Co295 2.315 . S
O317 C306 1.252 . S
O318 Co288 2.122 . S
O318 C307 1.272 . S
O319 Co290 2.113 . S
O319 C307 1.245 . S
Co320 H323 2.400 . S
Co320 O324 2.009 . S
Co320 O332 2.115 . S
Co320 O333 2.315 . S
Co320 O344 2.053 . S
Co320 O347 2.094 . S
Co320 O350 2.122 . S
Co321 O324 2.126 . S
Co321 H325 2.388 . S
Co321 O326 2.053 . S
Co321 O329 2.047 . S
Co321 O335 2.113 . S
Co321 O346 2.063 . S
Co322 H323 2.388 . S
Co322 O324 2.053 . S
Co322 O326 2.126 . S
Co322 O331 2.063 . S
Co322 O345 2.047 . S
Co322 O351 2.113 . S
H323 Co320 2.400 . S
H323 Co322 2.388 . S
H323 O324 0.760 . S
O324 Co320 2.009 . S
O324 Co321 2.126 . S
O324 Co322 2.053 . S
O324 H323 0.760 . S
H325 Co321 2.388 . S
H325 O326 0.760 . S
H325 Co327 2.400 . S
O326 Co321 2.053 . S
O326 Co322 2.126 . S
O326 H325 0.760 . S
O326 Co327 2.009 . S
Co327 H325 2.400 . S
Co327 O326 2.009 . S
Co327 O328 2.053 . S
Co327 O330 2.094 . S
Co327 O334 2.122 . S
Co327 O348 2.115 . S
Co327 O349 2.315 . S
O328 Co327 2.053 . S
O328 C340 1.259 . S
O329 Co321 2.047 . S
O329 C340 1.257 . S
O330 Co327 2.094 . S
O330 C341 1.253 . S
O331 Co322 2.063 . S
O331 C341 1.268 . S
O332 Co320 2.115 . S
O332 C342 1.281 . S
O333 Co320 2.315 . S
O333 C342 1.252 . S
O334 Co327 2.122 . S
O334 C343 1.272 . S
O335 Co321 2.113 . S
O335 C343 1.245 . S
C336 O344 1.259 . S
C336 O345 1.257 . S
C337 O346 1.268 . S
C337 O347 1.253 . S
C338 O348 1.281 . S
C338 O349 1.252 . S
C339 O350 1.272 . S
C339 O351 1.245 . S
C340 O328 1.259 . S
C340 O329 1.257 . S
C341 O330 1.253 . S
C341 O331 1.268 . S
C342 O332 1.281 . S
C342 O333 1.252 . S
C343 O334 1.272 . S
C343 O335 1.245 . S
O344 Co320 2.053 . S
O344 C336 1.259 . S
O345 Co322 2.047 . S
O345 C336 1.257 . S
O346 Co321 2.063 . S
O346 C337 1.268 . S
O347 Co320 2.094 . S
O347 C337 1.253 . S
O348 Co327 2.115 . S
O348 C338 1.281 . S
O349 Co327 2.315 . S
O349 C338 1.252 . S
O350 Co320 2.122 . S
O350 C339 1.272 . S
O351 Co322 2.113 . S
O351 C339 1.245 . S
Co352 H355 2.400 . S
Co352 O356 2.009 . S
Co352 O364 2.115 . S
Co352 O365 2.315 . S
Co352 O376 2.053 . S
Co352 O379 2.094 . S
Co352 O382 2.122 . S
Co353 O356 2.126 . S
Co353 H357 2.388 . S
Co353 O358 2.053 . S
Co353 O361 2.047 . S
Co353 O367 2.113 . S
Co353 O378 2.063 . S
Co354 H355 2.388 . S
Co354 O356 2.053 . S
Co354 O358 2.126 . S
Co354 O363 2.063 . S
Co354 O377 2.047 . S
Co354 O383 2.113 . S
H355 Co352 2.400 . S
H355 Co354 2.388 . S
H355 O356 0.760 . S
O356 Co352 2.009 . S
O356 Co353 2.126 . S
O356 Co354 2.053 . S
O356 H355 0.760 . S
H357 Co353 2.388 . S
H357 O358 0.760 . S
H357 Co359 2.400 . S
O358 Co353 2.053 . S
O358 Co354 2.126 . S
O358 H357 0.760 . S
O358 Co359 2.009 . S
Co359 H357 2.400 . S
Co359 O358 2.009 . S
Co359 O360 2.053 . S
Co359 O362 2.094 . S
Co359 O366 2.122 . S
Co359 O380 2.115 . S
Co359 O381 2.315 . S
O360 Co359 2.053 . S
O360 C372 1.259 . S
O361 Co353 2.047 . S
O361 C372 1.257 . S
O362 Co359 2.094 . S
O362 C373 1.253 . S
O363 Co354 2.063 . S
O363 C373 1.268 . S
O364 Co352 2.115 . S
O364 C374 1.281 . S
O365 Co352 2.315 . S
O365 C374 1.252 . S
O366 Co359 2.122 . S
O366 C375 1.272 . S
O367 Co353 2.113 . S
O367 C375 1.245 . S
C368 O376 1.259 . S
C368 O377 1.257 . S
C369 O378 1.268 . S
C369 O379 1.253 . S
C370 O380 1.281 . S
C370 O381 1.252 . S
C371 O382 1.272 . S
C371 O383 1.245 . S
C372 O360 1.259 . S
C372 O361 1.257 . S
C373 O362 1.253 . S
C373 O363 1.268 . S
C374 O364 1.281 . S
C374 O365 1.252 . S
C375 O366 1.272 . S
C375 O367 1.245 . S
O376 Co352 2.053 . S
O376 C368 1.259 . S
O377 Co354 2.047 . S
O377 C368 1.257 . S
O378 Co353 2.063 . S
O378 C369 1.268 . S
O379 Co352 2.094 . S
O379 C369 1.253 . S
O380 Co359 2.115 . S
O380 C370 1.281 . S
O381 Co359 2.315 . S
O381 C370 1.252 . S
O382 Co352 2.122 . S
O382 C371 1.272 . S
O383 Co354 2.113 . S
O383 C371 1.245 . S
Co384 H387 2.400 . S
Co384 O388 2.009 . S
Co384 O396 2.115 . S
Co384 O397 2.315 . S
Co384 O408 2.053 . S
Co384 O411 2.094 . S
Co384 O414 2.122 . S
Co385 O388 2.126 . S
Co385 H389 2.388 . S
Co385 O390 2.053 . S
Co385 O393 2.047 . S
Co385 O399 2.113 . S
Co385 O410 2.063 . S
Co386 H387 2.388 . S
Co386 O388 2.053 . S
Co386 O390 2.126 . S
Co386 O395 2.063 . S
Co386 O409 2.047 . S
Co386 O415 2.113 . S
H387 Co384 2.400 . S
H387 Co386 2.388 . S
H387 O388 0.760 . S
O388 Co384 2.009 . S
O388 Co385 2.126 . S
O388 Co386 2.053 . S
O388 H387 0.760 . S
H389 Co385 2.388 . S
H389 O390 0.760 . S
H389 Co391 2.400 . S
O390 Co385 2.053 . S
O390 Co386 2.126 . S
O390 H389 0.760 . S
O390 Co391 2.009 . S
Co391 H389 2.400 . S
Co391 O390 2.009 . S
Co391 O392 2.053 . S
Co391 O394 2.094 . S
Co391 O398 2.122 . S
Co391 O412 2.115 . S
Co391 O413 2.315 . S
O392 Co391 2.053 . S
O392 C404 1.259 . S
O393 Co385 2.047 . S
O393 C404 1.257 . S
O394 Co391 2.094 . S
O394 C405 1.253 . S
O395 Co386 2.063 . S
O395 C405 1.268 . S
O396 Co384 2.115 . S
O396 C406 1.281 . S
O397 Co384 2.315 . S
O397 C406 1.252 . S
O398 Co391 2.122 . S
O398 C407 1.272 . S
O399 Co385 2.113 . S
O399 C407 1.245 . S
C400 O408 1.259 . S
C400 O409 1.257 . S
C401 O410 1.268 . S
C401 O411 1.253 . S
C402 O412 1.281 . S
C402 O413 1.252 . S
C403 O414 1.272 . S
C403 O415 1.245 . S
C404 O392 1.259 . S
C404 O393 1.257 . S
C405 O394 1.253 . S
C405 O395 1.268 . S
C406 O396 1.281 . S
C406 O397 1.252 . S
C407 O398 1.272 . S
C407 O399 1.245 . S
O408 Co384 2.053 . S
O408 C400 1.259 . S
O409 Co386 2.047 . S
O409 C400 1.257 . S
O410 Co385 2.063 . S
O410 C401 1.268 . S
O411 Co384 2.094 . S
O411 C401 1.253 . S
O412 Co391 2.115 . S
O412 C402 1.281 . S
O413 Co391 2.315 . S
O413 C402 1.252 . S
O414 Co384 2.122 . S
O414 C403 1.272 . S
O415 Co386 2.113 . S
O415 C403 1.245 . S
Co416 H419 2.400 . S
Co416 O420 2.009 . S
Co416 O428 2.115 . S
Co416 O429 2.315 . S
Co416 O440 2.053 . S
Co416 O443 2.094 . S
Co416 O446 2.122 . S
Co417 O420 2.126 . S
Co417 H421 2.388 . S
Co417 O422 2.053 . S
Co417 O425 2.047 . S
Co417 O431 2.113 . S
Co417 O442 2.063 . S
Co418 H419 2.388 . S
Co418 O420 2.053 . S
Co418 O422 2.126 . S
Co418 O427 2.063 . S
Co418 O441 2.047 . S
Co418 O447 2.113 . S
H419 Co416 2.400 . S
H419 Co418 2.388 . S
H419 O420 0.760 . S
O420 Co416 2.009 . S
O420 Co417 2.126 . S
O420 Co418 2.053 . S
O420 H419 0.760 . S
H421 Co417 2.388 . S
H421 O422 0.760 . S
H421 Co423 2.400 . S
O422 Co417 2.053 . S
O422 Co418 2.126 . S
O422 H421 0.760 . S
O422 Co423 2.009 . S
Co423 H421 2.400 . S
Co423 O422 2.009 . S
Co423 O424 2.053 . S
Co423 O426 2.094 . S
Co423 O430 2.122 . S
Co423 O444 2.115 . S
Co423 O445 2.315 . S
O424 Co423 2.053 . S
O424 C436 1.259 . S
O425 Co417 2.047 . S
O425 C436 1.257 . S
O426 Co423 2.094 . S
O426 C437 1.253 . S
O427 Co418 2.063 . S
O427 C437 1.268 . S
O428 Co416 2.115 . S
O428 C438 1.281 . S
O429 Co416 2.315 . S
O429 C438 1.252 . S
O430 Co423 2.122 . S
O430 C439 1.272 . S
O431 Co417 2.113 . S
O431 C439 1.245 . S
C432 O440 1.259 . S
C432 O441 1.257 . S
C433 O442 1.268 . S
C433 O443 1.253 . S
C434 O444 1.281 . S
C434 O445 1.252 . S
C435 O446 1.272 . S
C435 O447 1.245 . S
C436 O424 1.259 . S
C436 O425 1.257 . S
C437 O426 1.253 . S
C437 O427 1.268 . S
C438 O428 1.281 . S
C438 O429 1.252 . S
C439 O430 1.272 . S
C439 O431 1.245 . S
O440 Co416 2.053 . S
O440 C432 1.259 . S
O441 Co418 2.047 . S
O441 C432 1.257 . S
O442 Co417 2.063 . S
O442 C433 1.268 . S
O443 Co416 2.094 . S
O443 C433 1.253 . S
O444 Co423 2.115 . S
O444 C434 1.281 . S
O445 Co423 2.315 . S
O445 C434 1.252 . S
O446 Co416 2.122 . S
O446 C435 1.272 . S
O447 Co418 2.113 . S
O447 C435 1.245 . S
Co448 H451 2.400 . S
Co448 O452 2.009 . S
Co448 O460 2.115 . S
Co448 O461 2.315 . S
Co448 O472 2.053 . S
Co448 O475 2.094 . S
Co448 O478 2.122 . S
Co449 O452 2.126 . S
Co449 H453 2.388 . S
Co449 O454 2.053 . S
Co449 O457 2.047 . S
Co449 O463 2.113 . S
Co449 O474 2.063 . S
Co450 H451 2.388 . S
Co450 O452 2.053 . S
Co450 O454 2.126 . S
Co450 O459 2.063 . S
Co450 O473 2.047 . S
Co450 O479 2.113 . S
H451 Co448 2.400 . S
H451 Co450 2.388 . S
H451 O452 0.760 . S
O452 Co448 2.009 . S
O452 Co449 2.126 . S
O452 Co450 2.053 . S
O452 H451 0.760 . S
H453 Co449 2.388 . S
H453 O454 0.760 . S
H453 Co455 2.400 . S
O454 Co449 2.053 . S
O454 Co450 2.126 . S
O454 H453 0.760 . S
O454 Co455 2.009 . S
Co455 H453 2.400 . S
Co455 O454 2.009 . S
Co455 O456 2.053 . S
Co455 O458 2.094 . S
Co455 O462 2.122 . S
Co455 O476 2.115 . S
Co455 O477 2.315 . S
O456 Co455 2.053 . S
O456 C468 1.259 . S
O457 Co449 2.047 . S
O457 C468 1.257 . S
O458 Co455 2.094 . S
O458 C469 1.253 . S
O459 Co450 2.063 . S
O459 C469 1.268 . S
O460 Co448 2.115 . S
O460 C470 1.281 . S
O461 Co448 2.315 . S
O461 C470 1.252 . S
O462 Co455 2.122 . S
O462 C471 1.272 . S
O463 Co449 2.113 . S
O463 C471 1.245 . S
C464 O472 1.259 . S
C464 O473 1.257 . S
C465 O474 1.268 . S
C465 O475 1.253 . S
C466 O476 1.281 . S
C466 O477 1.252 . S
C467 O478 1.272 . S
C467 O479 1.245 . S
C468 O456 1.259 . S
C468 O457 1.257 . S
C469 O458 1.253 . S
C469 O459 1.268 . S
C470 O460 1.281 . S
C470 O461 1.252 . S
C471 O462 1.272 . S
C471 O463 1.245 . S
O472 Co448 2.053 . S
O472 C464 1.259 . S
O473 Co450 2.047 . S
O473 C464 1.257 . S
O474 Co449 2.063 . S
O474 C465 1.268 . S
O475 Co448 2.094 . S
O475 C465 1.253 . S
O476 Co455 2.115 . S
O476 C466 1.281 . S
O477 Co455 2.315 . S
O477 C466 1.252 . S
O478 Co448 2.122 . S
O478 C467 1.272 . S
O479 Co450 2.113 . S
O479 C467 1.245 . S
Co480 H483 2.400 . S
Co480 O484 2.009 . S
Co480 O492 2.115 . S
Co480 O493 2.315 . S
Co480 O504 2.053 . S
Co480 O507 2.094 . S
Co480 O510 2.122 . S
Co481 O484 2.126 . S
Co481 H485 2.388 . S
Co481 O486 2.053 . S
Co481 O489 2.047 . S
Co481 O495 2.113 . S
Co481 O506 2.063 . S
Co482 H483 2.388 . S
Co482 O484 2.053 . S
Co482 O486 2.126 . S
Co482 O491 2.063 . S
Co482 O505 2.047 . S
Co482 O511 2.113 . S
H483 Co480 2.400 . S
H483 Co482 2.388 . S
H483 O484 0.760 . S
O484 Co480 2.009 . S
O484 Co481 2.126 . S
O484 Co482 2.053 . S
O484 H483 0.760 . S
H485 Co481 2.388 . S
H485 O486 0.760 . S
H485 Co487 2.400 . S
O486 Co481 2.053 . S
O486 Co482 2.126 . S
O486 H485 0.760 . S
O486 Co487 2.009 . S
Co487 H485 2.400 . S
Co487 O486 2.009 . S
Co487 O488 2.053 . S
Co487 O490 2.094 . S
Co487 O494 2.122 . S
Co487 O508 2.115 . S
Co487 O509 2.315 . S
O488 Co487 2.053 . S
O488 C500 1.259 . S
O489 Co481 2.047 . S
O489 C500 1.257 . S
O490 Co487 2.094 . S
O490 C501 1.253 . S
O491 Co482 2.063 . S
O491 C501 1.268 . S
O492 Co480 2.115 . S
O492 C502 1.281 . S
O493 Co480 2.315 . S
O493 C502 1.252 . S
O494 Co487 2.122 . S
O494 C503 1.272 . S
O495 Co481 2.113 . S
O495 C503 1.245 . S
C496 O504 1.259 . S
C496 O505 1.257 . S
C497 O506 1.268 . S
C497 O507 1.253 . S
C498 O508 1.281 . S
C498 O509 1.252 . S
C499 O510 1.272 . S
C499 O511 1.245 . S
C500 O488 1.259 . S
C500 O489 1.257 . S
C501 O490 1.253 . S
C501 O491 1.268 . S
C502 O492 1.281 . S
C502 O493 1.252 . S
C503 O494 1.272 . S
C503 O495 1.245 . S
O504 Co480 2.053 . S
O504 C496 1.259 . S
O505 Co482 2.047 . S
O505 C496 1.257 . S
O506 Co481 2.063 . S
O506 C497 1.268 . S
O507 Co480 2.094 . S
O507 C497 1.253 . S
O508 Co487 2.115 . S
O508 C498 1.281 . S
O509 Co487 2.315 . S
O509 C498 1.252 . S
O510 Co480 2.122 . S
O510 C499 1.272 . S
O511 Co482 2.113 . S
O511 C499 1.245 . S
Co512 H515 2.400 . S
Co512 O516 2.009 . S
Co512 O524 2.115 . S
Co512 O525 2.315 . S
Co512 O536 2.053 . S
Co512 O539 2.094 . S
Co512 O542 2.122 . S
Co513 O516 2.126 . S
Co513 H517 2.388 . S
Co513 O518 2.053 . S
Co513 O521 2.047 . S
Co513 O527 2.113 . S
Co513 O538 2.063 . S
Co514 H515 2.388 . S
Co514 O516 2.053 . S
Co514 O518 2.126 . S
Co514 O523 2.063 . S
Co514 O537 2.047 . S
Co514 O543 2.113 . S
H515 Co512 2.400 . S
H515 Co514 2.388 . S
H515 O516 0.760 . S
O516 Co512 2.009 . S
O516 Co513 2.126 . S
O516 Co514 2.053 . S
O516 H515 0.760 . S
H517 Co513 2.388 . S
H517 O518 0.760 . S
H517 Co519 2.400 . S
O518 Co513 2.053 . S
O518 Co514 2.126 . S
O518 H517 0.760 . S
O518 Co519 2.009 . S
Co519 H517 2.400 . S
Co519 O518 2.009 . S
Co519 O520 2.053 . S
Co519 O522 2.094 . S
Co519 O526 2.122 . S
Co519 O540 2.115 . S
Co519 O541 2.315 . S
O520 Co519 2.053 . S
O520 C532 1.259 . S
O521 Co513 2.047 . S
O521 C532 1.257 . S
O522 Co519 2.094 . S
O522 C533 1.253 . S
O523 Co514 2.063 . S
O523 C533 1.268 . S
O524 Co512 2.115 . S
O524 C534 1.281 . S
O525 Co512 2.315 . S
O525 C534 1.252 . S
O526 Co519 2.122 . S
O526 C535 1.272 . S
O527 Co513 2.113 . S
O527 C535 1.245 . S
C528 O536 1.259 . S
C528 O537 1.257 . S
C529 O538 1.268 . S
C529 O539 1.253 . S
C530 O540 1.281 . S
C530 O541 1.252 . S
C531 O542 1.272 . S
C531 O543 1.245 . S
C532 O520 1.259 . S
C532 O521 1.257 . S
C533 O522 1.253 . S
C533 O523 1.268 . S
C534 O524 1.281 . S
C534 O525 1.252 . S
C535 O526 1.272 . S
C535 O527 1.245 . S
O536 Co512 2.053 . S
O536 C528 1.259 . S
O537 Co514 2.047 . S
O537 C528 1.257 . S
O538 Co513 2.063 . S
O538 C529 1.268 . S
O539 Co512 2.094 . S
O539 C529 1.253 . S
O540 Co519 2.115 . S
O540 C530 1.281 . S
O541 Co519 2.315 . S
O541 C530 1.252 . S
O542 Co512 2.122 . S
O542 C531 1.272 . S
O543 Co514 2.113 . S
O543 C531 1.245 . S
Co544 H547 2.400 . S
Co544 O548 2.009 . S
Co544 O556 2.115 . S
Co544 O557 2.315 . S
Co544 O568 2.053 . S
Co544 O571 2.094 . S
Co544 O574 2.122 . S
Co545 O548 2.126 . S
Co545 H549 2.388 . S
Co545 O550 2.053 . S
Co545 O553 2.047 . S
Co545 O559 2.113 . S
Co545 O570 2.063 . S
Co546 H547 2.388 . S
Co546 O548 2.053 . S
Co546 O550 2.126 . S
Co546 O555 2.063 . S
Co546 O569 2.047 . S
Co546 O575 2.113 . S
H547 Co544 2.400 . S
H547 Co546 2.388 . S
H547 O548 0.760 . S
O548 Co544 2.009 . S
O548 Co545 2.126 . S
O548 Co546 2.053 . S
O548 H547 0.760 . S
H549 Co545 2.388 . S
H549 O550 0.760 . S
H549 Co551 2.400 . S
O550 Co545 2.053 . S
O550 Co546 2.126 . S
O550 H549 0.760 . S
O550 Co551 2.009 . S
Co551 H549 2.400 . S
Co551 O550 2.009 . S
Co551 O552 2.053 . S
Co551 O554 2.094 . S
Co551 O558 2.122 . S
Co551 O572 2.115 . S
Co551 O573 2.315 . S
O552 Co551 2.053 . S
O552 C564 1.259 . S
O553 Co545 2.047 . S
O553 C564 1.257 . S
O554 Co551 2.094 . S
O554 C565 1.253 . S
O555 Co546 2.063 . S
O555 C565 1.268 . S
O556 Co544 2.115 . S
O556 C566 1.281 . S
O557 Co544 2.315 . S
O557 C566 1.252 . S
O558 Co551 2.122 . S
O558 C567 1.272 . S
O559 Co545 2.113 . S
O559 C567 1.245 . S
C560 O568 1.259 . S
C560 O569 1.257 . S
C561 O570 1.268 . S
C561 O571 1.253 . S
C562 O572 1.281 . S
C562 O573 1.252 . S
C563 O574 1.272 . S
C563 O575 1.245 . S
C564 O552 1.259 . S
C564 O553 1.257 . S
C565 O554 1.253 . S
C565 O555 1.268 . S
C566 O556 1.281 . S
C566 O557 1.252 . S
C567 O558 1.272 . S
C567 O559 1.245 . S
O568 Co544 2.053 . S
O568 C560 1.259 . S
O569 Co546 2.047 . S
O569 C560 1.257 . S
O570 Co545 2.063 . S
O570 C561 1.268 . S
O571 Co544 2.094 . S
O571 C561 1.253 . S
O572 Co551 2.115 . S
O572 C562 1.281 . S
O573 Co551 2.315 . S
O573 C562 1.252 . S
O574 Co544 2.122 . S
O574 C563 1.272 . S
O575 Co546 2.113 . S
O575 C563 1.245 . S
Co576 H579 2.400 . S
Co576 O580 2.009 . S
Co576 O588 2.115 . S
Co576 O589 2.315 . S
Co576 O600 2.053 . S
Co576 O603 2.094 . S
Co576 O606 2.122 . S
Co577 O580 2.126 . S
Co577 H581 2.388 . S
Co577 O582 2.053 . S
Co577 O585 2.047 . S
Co577 O591 2.113 . S
Co577 O602 2.063 . S
Co578 H579 2.388 . S
Co578 O580 2.053 . S
Co578 O582 2.126 . S
Co578 O587 2.063 . S
Co578 O601 2.047 . S
Co578 O607 2.113 . S
H579 Co576 2.400 . S
H579 Co578 2.388 . S
H579 O580 0.760 . S
O580 Co576 2.009 . S
O580 Co577 2.126 . S
O580 Co578 2.053 . S
O580 H579 0.760 . S
H581 Co577 2.388 . S
H581 O582 0.760 . S
H581 Co583 2.400 . S
O582 Co577 2.053 . S
O582 Co578 2.126 . S
O582 H581 0.760 . S
O582 Co583 2.009 . S
Co583 H581 2.400 . S
Co583 O582 2.009 . S
Co583 O584 2.053 . S
Co583 O586 2.094 . S
Co583 O590 2.122 . S
Co583 O604 2.115 . S
Co583 O605 2.315 . S
O584 Co583 2.053 . S
O584 C596 1.259 . S
O585 Co577 2.047 . S
O585 C596 1.257 . S
O586 Co583 2.094 . S
O586 C597 1.253 . S
O587 Co578 2.063 . S
O587 C597 1.268 . S
O588 Co576 2.115 . S
O588 C598 1.281 . S
O589 Co576 2.315 . S
O589 C598 1.252 . S
O590 Co583 2.122 . S
O590 C599 1.272 . S
O591 Co577 2.113 . S
O591 C599 1.245 . S
C592 O600 1.259 . S
C592 O601 1.257 . S
C593 O602 1.268 . S
C593 O603 1.253 . S
C594 O604 1.281 . S
C594 O605 1.252 . S
C595 O606 1.272 . S
C595 O607 1.245 . S
C596 O584 1.259 . S
C596 O585 1.257 . S
C597 O586 1.253 . S
C597 O587 1.268 . S
C598 O588 1.281 . S
C598 O589 1.252 . S
C599 O590 1.272 . S
C599 O591 1.245 . S
O600 Co576 2.053 . S
O600 C592 1.259 . S
O601 Co578 2.047 . S
O601 C592 1.257 . S
O602 Co577 2.063 . S
O602 C593 1.268 . S
O603 Co576 2.094 . S
O603 C593 1.253 . S
O604 Co583 2.115 . S
O604 C594 1.281 . S
O605 Co583 2.315 . S
O605 C594 1.252 . S
O606 Co576 2.122 . S
O606 C595 1.272 . S
O607 Co578 2.113 . S
O607 C595 1.245 . S
Co608 H611 2.400 . S
Co608 O612 2.009 . S
Co608 O620 2.115 . S
Co608 O621 2.315 . S
Co608 O632 2.053 . S
Co608 O635 2.094 . S
Co608 O638 2.122 . S
Co609 O612 2.126 . S
Co609 H613 2.388 . S
Co609 O614 2.053 . S
Co609 O617 2.047 . S
Co609 O623 2.113 . S
Co609 O634 2.063 . S
Co610 H611 2.388 . S
Co610 O612 2.053 . S
Co610 O614 2.126 . S
Co610 O619 2.063 . S
Co610 O633 2.047 . S
Co610 O639 2.113 . S
H611 Co608 2.400 . S
H611 Co610 2.388 . S
H611 O612 0.760 . S
O612 Co608 2.009 . S
O612 Co609 2.126 . S
O612 Co610 2.053 . S
O612 H611 0.760 . S
H613 Co609 2.388 . S
H613 O614 0.760 . S
H613 Co615 2.400 . S
O614 Co609 2.053 . S
O614 Co610 2.126 . S
O614 H613 0.760 . S
O614 Co615 2.009 . S
Co615 H613 2.400 . S
Co615 O614 2.009 . S
Co615 O616 2.053 . S
Co615 O618 2.094 . S
Co615 O622 2.122 . S
Co615 O636 2.115 . S
Co615 O637 2.315 . S
O616 Co615 2.053 . S
O616 C628 1.259 . S
O617 Co609 2.047 . S
O617 C628 1.257 . S
O618 Co615 2.094 . S
O618 C629 1.253 . S
O619 Co610 2.063 . S
O619 C629 1.268 . S
O620 Co608 2.115 . S
O620 C630 1.281 . S
O621 Co608 2.315 . S
O621 C630 1.252 . S
O622 Co615 2.122 . S
O622 C631 1.272 . S
O623 Co609 2.113 . S
O623 C631 1.245 . S
C624 O632 1.259 . S
C624 O633 1.257 . S
C625 O634 1.268 . S
C625 O635 1.253 . S
C626 O636 1.281 . S
C626 O637 1.252 . S
C627 O638 1.272 . S
C627 O639 1.245 . S
C628 O616 1.259 . S
C628 O617 1.257 . S
C629 O618 1.253 . S
C629 O619 1.268 . S
C630 O620 1.281 . S
C630 O621 1.252 . S
C631 O622 1.272 . S
C631 O623 1.245 . S
O632 Co608 2.053 . S
O632 C624 1.259 . S
O633 Co610 2.047 . S
O633 C624 1.257 . S
O634 Co609 2.063 . S
O634 C625 1.268 . S
O635 Co608 2.094 . S
O635 C625 1.253 . S
O636 Co615 2.115 . S
O636 C626 1.281 . S
O637 Co615 2.315 . S
O637 C626 1.252 . S
O638 Co608 2.122 . S
O638 C627 1.272 . S
O639 Co610 2.113 . S
O639 C627 1.245 . S
Co640 H643 2.400 . S
Co640 O644 2.009 . S
Co640 O652 2.115 . S
Co640 O653 2.315 . S
Co640 O664 2.053 . S
Co640 O667 2.094 . S
Co640 O670 2.122 . S
Co641 O644 2.126 . S
Co641 H645 2.388 . S
Co641 O646 2.053 . S
Co641 O649 2.047 . S
Co641 O655 2.113 . S
Co641 O666 2.063 . S
Co642 H643 2.388 . S
Co642 O644 2.053 . S
Co642 O646 2.126 . S
Co642 O651 2.063 . S
Co642 O665 2.047 . S
Co642 O671 2.113 . S
H643 Co640 2.400 . S
H643 Co642 2.388 . S
H643 O644 0.760 . S
O644 Co640 2.009 . S
O644 Co641 2.126 . S
O644 Co642 2.053 . S
O644 H643 0.760 . S
H645 Co641 2.388 . S
H645 O646 0.760 . S
H645 Co647 2.400 . S
O646 Co641 2.053 . S
O646 Co642 2.126 . S
O646 H645 0.760 . S
O646 Co647 2.009 . S
Co647 H645 2.400 . S
Co647 O646 2.009 . S
Co647 O648 2.053 . S
Co647 O650 2.094 . S
Co647 O654 2.122 . S
Co647 O668 2.115 . S
Co647 O669 2.315 . S
O648 Co647 2.053 . S
O648 C660 1.259 . S
O649 Co641 2.047 . S
O649 C660 1.257 . S
O650 Co647 2.094 . S
O650 C661 1.253 . S
O651 Co642 2.063 . S
O651 C661 1.268 . S
O652 Co640 2.115 . S
O652 C662 1.281 . S
O653 Co640 2.315 . S
O653 C662 1.252 . S
O654 Co647 2.122 . S
O654 C663 1.272 . S
O655 Co641 2.113 . S
O655 C663 1.245 . S
C656 O664 1.259 . S
C656 O665 1.257 . S
C657 O666 1.268 . S
C657 O667 1.253 . S
C658 O668 1.281 . S
C658 O669 1.252 . S
C659 O670 1.272 . S
C659 O671 1.245 . S
C660 O648 1.259 . S
C660 O649 1.257 . S
C661 O650 1.253 . S
C661 O651 1.268 . S
C662 O652 1.281 . S
C662 O653 1.252 . S
C663 O654 1.272 . S
C663 O655 1.245 . S
O664 Co640 2.053 . S
O664 C656 1.259 . S
O665 Co642 2.047 . S
O665 C656 1.257 . S
O666 Co641 2.063 . S
O666 C657 1.268 . S
O667 Co640 2.094 . S
O667 C657 1.253 . S
O668 Co647 2.115 . S
O668 C658 1.281 . S
O669 Co647 2.315 . S
O669 C658 1.252 . S
O670 Co640 2.122 . S
O670 C659 1.272 . S
O671 Co642 2.113 . S
O671 C659 1.245 . S
Co672 H675 2.400 . S
Co672 O676 2.009 . S
Co672 O684 2.115 . S
Co672 O685 2.315 . S
Co672 O696 2.053 . S
Co672 O699 2.094 . S
Co672 O702 2.122 . S
Co673 O676 2.126 . S
Co673 H677 2.388 . S
Co673 O678 2.053 . S
Co673 O681 2.047 . S
Co673 O687 2.113 . S
Co673 O698 2.063 . S
Co674 H675 2.388 . S
Co674 O676 2.053 . S
Co674 O678 2.126 . S
Co674 O683 2.063 . S
Co674 O697 2.047 . S
Co674 O703 2.113 . S
H675 Co672 2.400 . S
H675 Co674 2.388 . S
H675 O676 0.760 . S
O676 Co672 2.009 . S
O676 Co673 2.126 . S
O676 Co674 2.053 . S
O676 H675 0.760 . S
H677 Co673 2.388 . S
H677 O678 0.760 . S
H677 Co679 2.400 . S
O678 Co673 2.053 . S
O678 Co674 2.126 . S
O678 H677 0.760 . S
O678 Co679 2.009 . S
Co679 H677 2.400 . S
Co679 O678 2.009 . S
Co679 O680 2.053 . S
Co679 O682 2.094 . S
Co679 O686 2.122 . S
Co679 O700 2.115 . S
Co679 O701 2.315 . S
O680 Co679 2.053 . S
O680 C692 1.259 . S
O681 Co673 2.047 . S
O681 C692 1.257 . S
O682 Co679 2.094 . S
O682 C693 1.253 . S
O683 Co674 2.063 . S
O683 C693 1.268 . S
O684 Co672 2.115 . S
O684 C694 1.281 . S
O685 Co672 2.315 . S
O685 C694 1.252 . S
O686 Co679 2.122 . S
O686 C695 1.272 . S
O687 Co673 2.113 . S
O687 C695 1.245 . S
C688 O696 1.259 . S
C688 O697 1.257 . S
C689 O698 1.268 . S
C689 O699 1.253 . S
C690 O700 1.281 . S
C690 O701 1.252 . S
C691 O702 1.272 . S
C691 O703 1.245 . S
C692 O680 1.259 . S
C692 O681 1.257 . S
C693 O682 1.253 . S
C693 O683 1.268 . S
C694 O684 1.281 . S
C694 O685 1.252 . S
C695 O686 1.272 . S
C695 O687 1.245 . S
O696 Co672 2.053 . S
O696 C688 1.259 . S
O697 Co674 2.047 . S
O697 C688 1.257 . S
O698 Co673 2.063 . S
O698 C689 1.268 . S
O699 Co672 2.094 . S
O699 C689 1.253 . S
O700 Co679 2.115 . S
O700 C690 1.281 . S
O701 Co679 2.315 . S
O701 C690 1.252 . S
O702 Co672 2.122 . S
O702 C691 1.272 . S
O703 Co674 2.113 . S
O703 C691 1.245 . S
Co704 H707 2.400 . S
Co704 O708 2.009 . S
Co704 O716 2.115 . S
Co704 O717 2.315 . S
Co704 O728 2.053 . S
Co704 O731 2.094 . S
Co704 O734 2.122 . S
Co705 O708 2.126 . S
Co705 H709 2.388 . S
Co705 O710 2.053 . S
Co705 O713 2.047 . S
Co705 O719 2.113 . S
Co705 O730 2.063 . S
Co706 H707 2.388 . S
Co706 O708 2.053 . S
Co706 O710 2.126 . S
Co706 O715 2.063 . S
Co706 O729 2.047 . S
Co706 O735 2.113 . S
H707 Co704 2.400 . S
H707 Co706 2.388 . S
H707 O708 0.760 . S
O708 Co704 2.009 . S
O708 Co705 2.126 . S
O708 Co706 2.053 . S
O708 H707 0.760 . S
H709 Co705 2.388 . S
H709 O710 0.760 . S
H709 Co711 2.400 . S
O710 Co705 2.053 . S
O710 Co706 2.126 . S
O710 H709 0.760 . S
O710 Co711 2.009 . S
Co711 H709 2.400 . S
Co711 O710 2.009 . S
Co711 O712 2.053 . S
Co711 O714 2.094 . S
Co711 O718 2.122 . S
Co711 O732 2.115 . S
Co711 O733 2.315 . S
O712 Co711 2.053 . S
O712 C724 1.259 . S
O713 Co705 2.047 . S
O713 C724 1.257 . S
O714 Co711 2.094 . S
O714 C725 1.253 . S
O715 Co706 2.063 . S
O715 C725 1.268 . S
O716 Co704 2.115 . S
O716 C726 1.281 . S
O717 Co704 2.315 . S
O717 C726 1.252 . S
O718 Co711 2.122 . S
O718 C727 1.272 . S
O719 Co705 2.113 . S
O719 C727 1.245 . S
C720 O728 1.259 . S
C720 O729 1.257 . S
C721 O730 1.268 . S
C721 O731 1.253 . S
C722 O732 1.281 . S
C722 O733 1.252 . S
C723 O734 1.272 . S
C723 O735 1.245 . S
C724 O712 1.259 . S
C724 O713 1.257 . S
C725 O714 1.253 . S
C725 O715 1.268 . S
C726 O716 1.281 . S
C726 O717 1.252 . S
C727 O718 1.272 . S
C727 O719 1.245 . S
O728 Co704 2.053 . S
O728 C720 1.259 . S
O729 Co706 2.047 . S
O729 C720 1.257 . S
O730 Co705 2.063 . S
O730 C721 1.268 . S
O731 Co704 2.094 . S
O731 C721 1.253 . S
O732 Co711 2.115 . S
O732 C722 1.281 . S
O733 Co711 2.315 . S
O733 C722 1.252 . S
O734 Co704 2.122 . S
O734 C723 1.272 . S
O735 Co706 2.113 . S
O735 C723 1.245 . S
Co736 H739 2.400 . S
Co736 O740 2.009 . S
Co736 O748 2.115 . S
Co736 O749 2.315 . S
Co736 O760 2.053 . S
Co736 O763 2.094 . S
Co736 O766 2.122 . S
Co737 O740 2.126 . S
Co737 H741 2.388 . S
Co737 O742 2.053 . S
Co737 O745 2.047 . S
Co737 O751 2.113 . S
Co737 O762 2.063 . S
Co738 H739 2.388 . S
Co738 O740 2.053 . S
Co738 O742 2.126 . S
Co738 O747 2.063 . S
Co738 O761 2.047 . S
Co738 O767 2.113 . S
H739 Co736 2.400 . S
H739 Co738 2.388 . S
H739 O740 0.760 . S
O740 Co736 2.009 . S
O740 Co737 2.126 . S
O740 Co738 2.053 . S
O740 H739 0.760 . S
H741 Co737 2.388 . S
H741 O742 0.760 . S
H741 Co743 2.400 . S
O742 Co737 2.053 . S
O742 Co738 2.126 . S
O742 H741 0.760 . S
O742 Co743 2.009 . S
Co743 H741 2.400 . S
Co743 O742 2.009 . S
Co743 O744 2.053 . S
Co743 O746 2.094 . S
Co743 O750 2.122 . S
Co743 O764 2.115 . S
Co743 O765 2.315 . S
O744 Co743 2.053 . S
O744 C756 1.259 . S
O745 Co737 2.047 . S
O745 C756 1.257 . S
O746 Co743 2.094 . S
O746 C757 1.253 . S
O747 Co738 2.063 . S
O747 C757 1.268 . S
O748 Co736 2.115 . S
O748 C758 1.281 . S
O749 Co736 2.315 . S
O749 C758 1.252 . S
O750 Co743 2.122 . S
O750 C759 1.272 . S
O751 Co737 2.113 . S
O751 C759 1.245 . S
C752 O760 1.259 . S
C752 O761 1.257 . S
C753 O762 1.268 . S
C753 O763 1.253 . S
C754 O764 1.281 . S
C754 O765 1.252 . S
C755 O766 1.272 . S
C755 O767 1.245 . S
C756 O744 1.259 . S
C756 O745 1.257 . S
C757 O746 1.253 . S
C757 O747 1.268 . S
C758 O748 1.281 . S
C758 O749 1.252 . S
C759 O750 1.272 . S
C759 O751 1.245 . S
O760 Co736 2.053 . S
O760 C752 1.259 . S
O761 Co738 2.047 . S
O761 C752 1.257 . S
O762 Co737 2.063 . S
O762 C753 1.268 . S
O763 Co736 2.094 . S
O763 C753 1.253 . S
O764 Co743 2.115 . S
O764 C754 1.281 . S
O765 Co743 2.315 . S
O765 C754 1.252 . S
O766 Co736 2.122 . S
O766 C755 1.272 . S
O767 Co738 2.113 . S
O767 C755 1.245 . S
C768 C769 1.387 . S
C768 H772 0.950 . S
C768 C777 1.390 . S
C769 C768 1.387 . S
C769 C771 1.387 . S
H770 C777 0.950 . S
C771 C769 1.387 . S
C771 C773 1.390 . S
C771 H775 0.950 . S
H772 C768 0.950 . S
C773 C771 1.390 . S
C773 C774 1.387 . S
C773 H776 0.950 . S
C774 C773 1.387 . S
C774 C777 1.387 . S
H775 C771 0.950 . S
H776 C773 0.950 . S
C777 C768 1.390 . S
C777 H770 0.950 . S
C777 C774 1.387 . S
C778 C779 1.387 . S
C778 H782 0.940 1_655 S
C778 C787 1.397 . S
C779 C778 1.387 . S
C779 C781 1.387 . S
H780 C787 0.945 1_445 S
C781 C779 1.387 . S
C781 C783 1.390 . S
C781 H785 0.950 . S
H782 C778 0.940 1_455 S
C783 C781 1.390 . S
C783 C784 1.387 1_565 S
C783 H786 0.950 1_565 S
C784 C783 1.387 1_545 S
C784 C787 1.385 1_545 S
H785 C781 0.950 . S
H786 C783 0.950 1_545 S
C787 C778 1.397 . S
C787 H780 0.945 1_665 S
C787 C784 1.385 1_565 S
C788 C789 1.387 . S
C788 H792 0.950 . S
C788 C797 1.390 . S
C789 C788 1.387 . S
C789 C791 1.387 . S
H790 C797 0.950 . S
C791 C789 1.387 . S
C791 C793 1.390 . S
C791 H795 0.950 . S
H792 C788 0.950 . S
C793 C791 1.390 . S
C793 C794 1.387 . S
C793 H796 0.950 . S
C794 C793 1.387 . S
C794 C797 1.387 . S
H795 C791 0.950 . S
H796 C793 0.950 . S
C797 C788 1.390 . S
C797 H790 0.950 . S
C797 C794 1.387 . S
C798 C799 1.387 . S
C798 H802 0.950 . S
C798 C807 1.390 . S
C799 C798 1.387 . S
C799 C801 1.387 1_545 S
H800 C807 0.950 . S
C801 C799 1.387 1_565 S
C801 C803 1.390 1_565 S
C801 H805 0.950 . S
H802 C798 0.950 . S
C803 C801 1.390 1_545 S
C803 C804 1.387 . S
C803 H806 0.967 . S
C804 C803 1.387 . S
C804 C807 1.387 . S
H805 C801 0.950 . S
H806 C803 0.967 . S
C807 C798 1.390 . S
C807 H800 0.950 . S
C807 C804 1.387 . S
C808 C809 1.387 . S
C808 H812 0.950 . S
C808 C817 1.390 . S
C809 C808 1.387 . S
C809 C811 1.387 . S
H810 C817 0.950 . S
C811 C809 1.387 . S
C811 C813 1.390 . S
C811 H815 0.950 . S
H812 C808 0.950 . S
C813 C811 1.390 . S
C813 C814 1.387 . S
C813 H816 0.950 . S
C814 C813 1.387 . S
C814 C817 1.387 . S
H815 C811 0.950 . S
H816 C813 0.950 . S
C817 C808 1.390 . S
C817 H810 0.950 . S
C817 C814 1.387 . S
C818 C819 1.387 . S
C818 H822 0.950 . S
C818 C827 1.390 1_565 S
C819 C818 1.387 . S
C819 C821 1.387 . S
H820 C827 0.950 . S
C821 C819 1.387 . S
C821 C823 1.390 1_565 S
C821 H825 0.950 . S
H822 C818 0.950 . S
C823 C821 1.390 1_545 S
C823 C824 1.387 . S
C823 H826 0.950 . S
C824 C823 1.387 . S
C824 C827 1.387 . S
H825 C821 0.950 . S
H826 C823 0.950 . S
C827 C818 1.390 1_545 S
C827 H820 0.950 . S
C827 C824 1.387 . S
C828 C829 1.387 . S
C828 H832 0.950 . S
C828 C837 1.390 . S
C829 C828 1.387 . S
C829 C831 1.387 . S
H830 C837 0.950 . S
C831 C829 1.387 . S
C831 C833 1.390 . S
C831 H835 0.950 . S
H832 C828 0.950 . S
C833 C831 1.390 . S
C833 C834 1.387 . S
C833 H836 0.950 . S
C834 C833 1.387 . S
C834 C837 1.387 . S
H835 C831 0.950 . S
H836 C833 0.950 . S
C837 C828 1.390 . S
C837 H830 0.950 . S
C837 C834 1.387 . S
C838 C839 1.387 . S
C838 H842 0.950 . S
C838 C847 1.390 1_455 S
C839 C838 1.387 . S
C839 C841 1.387 . S
H840 C847 0.950 . S
C841 C839 1.387 . S
C841 C843 1.390 1_455 S
C841 H845 0.950 1_545 S
H842 C838 0.950 . S
C843 C841 1.390 1_655 S
C843 C844 1.387 . S
C843 H846 0.950 . S
C844 C843 1.387 . S
C844 C847 1.387 . S
H845 C841 0.950 1_565 S
H846 C843 0.950 . S
C847 C838 1.390 1_655 S
C847 H840 0.950 . S
C847 C844 1.387 . S
C848 C849 1.387 . S
C848 H852 0.950 . S
C848 C857 1.390 . S
C849 C848 1.387 . S
C849 C851 1.387 . S
H850 C857 0.950 . S
C851 C849 1.387 . S
C851 C853 1.390 . S
C851 H855 0.950 . S
H852 C848 0.950 . S
C853 C851 1.390 . S
C853 C854 1.387 . S
C853 H856 0.950 . S
C854 C853 1.387 . S
C854 C857 1.387 . S
H855 C851 0.950 . S
H856 C853 0.950 . S
C857 C848 1.390 . S
C857 H850 0.950 . S
C857 C854 1.387 . S
C858 C859 1.387 . S
C858 H862 0.950 . S
C858 C867 1.390 . S
C859 C858 1.387 . S
C859 C861 1.387 . S
H860 C867 0.950 . S
C861 C859 1.387 . S
C861 C863 1.390 1_455 S
C861 H865 0.950 . S
H862 C858 0.950 . S
C863 C861 1.390 1_655 S
C863 C864 1.387 . S
C863 H866 0.950 . S
C864 C863 1.387 . S
C864 C867 1.387 1_655 S
H865 C861 0.950 . S
H866 C863 0.950 . S
C867 C858 1.390 . S
C867 H860 0.950 . S
C867 C864 1.387 1_455 S
C868 C869 1.387 . S
C868 H872 0.950 . S
C868 C877 1.390 . S
C869 C868 1.387 . S
C869 C871 1.387 . S
H870 C877 0.950 . S
C871 C869 1.387 . S
C871 C873 1.390 . S
C871 H875 0.950 . S
H872 C868 0.950 . S
C873 C871 1.390 . S
C873 C874 1.387 . S
C873 H876 0.950 . S
C874 C873 1.387 . S
C874 C877 1.387 . S
H875 C871 0.950 . S
H876 C873 0.950 . S
C877 C868 1.390 . S
C877 H870 0.950 . S
C877 C874 1.387 . S
C878 C879 1.387 1_556 S
C878 H882 0.951 . S
C878 C887 1.389 1_556 S
C879 C878 1.387 1_554 S
C879 C881 1.387 . S
H880 C887 0.950 . S
C881 C879 1.387 . S
C881 C883 1.390 . S
C881 H885 0.950 . S
H882 C878 0.951 . S
C883 C881 1.390 . S
C883 C884 1.387 . S
C883 H886 0.950 . S
C884 C883 1.387 . S
C884 C887 1.387 . S
H885 C881 0.950 . S
H886 C883 0.950 . S
C887 C878 1.389 1_554 S
C887 H880 0.950 . S
C887 C884 1.387 . S
C888 C889 1.387 . S
C888 H892 0.950 . S
C888 C897 1.390 . S
C889 C888 1.387 . S
C889 C891 1.387 . S
H890 C897 0.950 . S
C891 C889 1.387 . S
C891 C893 1.390 . S
C891 H895 0.950 . S
H892 C888 0.950 . S
C893 C891 1.390 . S
C893 C894 1.387 . S
C893 H896 0.950 . S
C894 C893 1.387 . S
C894 C897 1.387 . S
H895 C891 0.950 . S
H896 C893 0.950 . S
C897 C888 1.390 . S
C897 H890 0.950 . S
C897 C894 1.387 . S
C898 C899 1.387 . S
C898 H902 0.950 . S
C898 C907 1.390 . S
C899 C898 1.387 . S
C899 C901 1.387 . S
H900 C907 0.950 . S
C901 C899 1.387 . S
C901 C903 1.390 . S
C901 H905 0.950 . S
H902 C898 0.950 . S
C903 C901 1.390 . S
C903 C904 1.387 . S
C903 H906 0.950 . S
C904 C903 1.387 . S
C904 C907 1.387 . S
H905 C901 0.950 . S
H906 C903 0.950 . S
C907 C898 1.390 . S
C907 H900 0.950 . S
C907 C904 1.387 . S
C908 C909 1.387 . S
C908 H912 0.950 . S
C908 C917 1.390 . S
C909 C908 1.387 . S
C909 C911 1.387 . S
H910 C917 0.950 . S
C911 C909 1.387 . S
C911 C913 1.390 . S
C911 H915 0.950 . S
H912 C908 0.950 . S
C913 C911 1.390 . S
C913 C914 1.387 . S
C913 H916 0.950 . S
C914 C913 1.387 . S
C914 C917 1.387 . S
H915 C911 0.950 . S
H916 C913 0.950 . S
C917 C908 1.390 . S
C917 H910 0.950 . S
C917 C914 1.387 . S
C918 C919 1.387 . S
C918 H922 0.950 1_455 S
C918 C927 1.390 1_554 S
C919 C918 1.387 . S
C919 C921 1.387 . S
H920 C927 0.950 . S
C921 C919 1.387 . S
C921 C923 1.390 1_554 S
C921 H925 0.950 . S
H922 C918 0.950 1_655 S
C923 C921 1.390 1_556 S
C923 C924 1.387 . S
C923 H926 0.950 . S
C924 C923 1.387 . S
C924 C927 1.387 . S
H925 C921 0.950 . S
H926 C923 0.950 . S
C927 C918 1.390 1_556 S
C927 H920 0.950 . S
C927 C924 1.387 . S
C928 C929 1.387 . S
C928 H932 0.950 . S
C928 C937 1.390 . S
C929 C928 1.387 . S
C929 C931 1.387 . S
H930 C937 0.950 . S
C931 C929 1.387 . S
C931 C933 1.390 . S
C931 H935 0.950 . S
H932 C928 0.950 . S
C933 C931 1.390 . S
C933 C934 1.387 . S
C933 H936 0.950 . S
C934 C933 1.387 . S
C934 C937 1.387 . S
H935 C931 0.950 . S
H936 C933 0.950 . S
C937 C928 1.390 . S
C937 H930 0.950 . S
C937 C934 1.387 . S
C938 C939 1.387 . S
C938 H942 0.950 . S
C938 C947 1.390 . S
C939 C938 1.387 . S
C939 C941 1.387 . S
H940 C947 0.950 . S
C941 C939 1.387 . S
C941 C943 1.390 . S
C941 H945 0.950 . S
H942 C938 0.950 . S
C943 C941 1.390 . S
C943 C944 1.387 . S
C943 H946 0.950 . S
C944 C943 1.387 . S
C944 C947 1.387 . S
H945 C941 0.950 . S
H946 C943 0.950 . S
C947 C938 1.390 . S
C947 H940 0.950 . S
C947 C944 1.387 . S
C948 C949 1.387 . S
C948 H952 0.950 . S
C948 C957 1.390 . S
C949 C948 1.387 . S
C949 C951 1.387 . S
H950 C957 0.950 . S
C951 C949 1.387 . S
C951 C953 1.390 . S
C951 H955 0.950 1_554 S
H952 C948 0.950 . S
C953 C951 1.390 . S
C953 C954 1.387 . S
C953 H956 0.950 . S
C954 C953 1.387 . S
C954 C957 1.387 . S
H955 C951 0.950 1_556 S
H956 C953 0.950 . S
C957 C948 1.390 . S
C957 H950 0.950 . S
C957 C954 1.387 . S
C958 C959 1.387 . S
C958 H962 0.950 . S
C958 C967 1.390 . S
C959 C958 1.387 . S
C959 C961 1.387 . S
H960 C967 0.950 . S
C961 C959 1.387 . S
C961 C963 1.390 . S
C961 H965 0.950 . S
H962 C958 0.950 . S
C963 C961 1.390 . S
C963 C964 1.387 . S
C963 H966 0.950 . S
C964 C963 1.387 . S
C964 C967 1.387 . S
H965 C961 0.950 . S
H966 C963 0.950 . S
C967 C958 1.390 . S
C967 H960 0.950 . S
C967 C964 1.387 . S
C968 C969 1.387 . S
C968 H972 0.950 . S
C968 C977 1.390 1_545 S
C969 C968 1.387 . S
C969 C971 1.388 . S
H970 C977 0.950 . S
C971 C969 1.388 . S
C971 C973 1.389 1_545 S
C971 H975 0.950 1_554 S
H972 C968 0.950 . S
C973 C971 1.389 1_565 S
C973 C974 1.387 . S
C973 H976 0.950 . S
C974 C973 1.387 . S
C974 C977 1.387 . S
H975 C971 0.950 1_556 S
H976 C973 0.950 . S
C977 C968 1.390 1_565 S
C977 H970 0.950 . S
C977 C974 1.387 . S
C978 C979 1.387 . S
C978 H982 0.950 . S
C978 C987 1.390 . S
C979 C978 1.387 . S
C979 C981 1.387 . S
H980 C987 0.950 . S
C981 C979 1.387 . S
C981 C983 1.390 . S
C981 H985 0.950 . S
H982 C978 0.950 . S
C983 C981 1.390 . S
C983 C984 1.387 . S
C983 H986 0.950 . S
C984 C983 1.387 . S
C984 C987 1.387 . S
H985 C981 0.950 . S
H986 C983 0.950 . S
C987 C978 1.390 . S
C987 H980 0.950 . S
C987 C984 1.387 . S
C988 C989 1.387 . S
C988 H992 0.950 . S
C988 C997 1.390 . S
C989 C988 1.387 . S
C989 C991 1.387 . S
H990 C997 0.950 . S
C991 C989 1.387 . S
C991 C993 1.390 . S
C991 H995 0.950 . S
H992 C988 0.950 . S
C993 C991 1.390 . S
C993 C994 1.387 . S
C993 H996 0.950 . S
C994 C993 1.387 . S
C994 C997 1.387 . S
H995 C991 0.950 . S
H996 C993 0.950 . S
C997 C988 1.390 . S
C997 H990 0.950 . S
C997 C994 1.387 . S
C998 C999 1.387 . S
C998 H1002 0.950 . S
C998 C1007 1.390 1_554 S
C999 C998 1.387 . S
C999 C1001 1.387 1_554 S
H1000 C1007 0.950 . S
C1001 C999 1.387 1_556 S
C1001 C1003 1.390 . S
C1001 H1005 0.950 . S
H1002 C998 0.950 . S
C1003 C1001 1.390 . S
C1003 C1004 1.387 . S
C1003 H1006 0.950 . S
C1004 C1003 1.387 . S
C1004 C1007 1.387 . S
H1005 C1001 0.950 . S
H1006 C1003 0.950 . S
C1007 C998 1.390 1_556 S
C1007 H1000 0.950 . S
C1007 C1004 1.387 . S
C1008 C1009 1.387 . S
C1008 H1012 0.950 . S
C1008 C1017 1.390 . S
C1009 C1008 1.387 . S
C1009 C1011 1.387 . S
H1010 C1017 0.950 . S
C1011 C1009 1.387 . S
C1011 C1013 1.390 . S
C1011 H1015 0.950 . S
H1012 C1008 0.950 . S
C1013 C1011 1.390 . S
C1013 C1014 1.387 . S
C1013 H1016 0.950 . S
C1014 C1013 1.387 . S
C1014 C1017 1.387 . S
H1015 C1011 0.950 . S
H1016 C1013 0.950 . S
C1017 C1008 1.390 . S
C1017 H1010 0.950 . S
C1017 C1014 1.387 . S
C1018 C1019 1.387 . S
C1018 H1022 0.950 . S
C1018 C1027 1.390 . S
C1019 C1018 1.387 . S
C1019 C1021 1.387 . S
H1020 C1027 0.950 . S
C1021 C1019 1.387 . S
C1021 C1023 1.390 . S
C1021 H1025 0.950 . S
H1022 C1018 0.950 . S
C1023 C1021 1.390 . S
C1023 C1024 1.387 . S
C1023 H1026 0.950 . S
C1024 C1023 1.387 . S
C1024 C1027 1.387 . S
H1025 C1021 0.950 . S
H1026 C1023 0.950 . S
C1027 C1018 1.390 . S
C1027 H1020 0.950 . S
C1027 C1024 1.387 . S
C1028 C1029 1.387 . S
C1028 H1032 0.950 . S
C1028 C1037 1.390 . S
C1029 C1028 1.387 . S
C1029 C1031 1.387 . S
H1030 C1037 0.950 . S
C1031 C1029 1.387 . S
C1031 C1033 1.390 . S
C1031 H1035 0.950 . S
H1032 C1028 0.950 . S
C1033 C1031 1.390 . S
C1033 C1034 1.387 . S
C1033 H1036 0.950 . S
C1034 C1033 1.387 . S
C1034 C1037 1.387 . S
H1035 C1031 0.950 . S
H1036 C1033 0.950 . S
C1037 C1028 1.390 . S
C1037 H1030 0.950 . S
C1037 C1034 1.387 . S
C1038 C1039 1.387 . S
C1038 H1042 0.950 . S
C1038 C1047 1.390 . S
C1039 C1038 1.387 . S
C1039 C1041 1.387 . S
H1040 C1047 0.950 . S
C1041 C1039 1.387 . S
C1041 C1043 1.390 . S
C1041 H1045 0.950 . S
H1042 C1038 0.950 . S
C1043 C1041 1.390 . S
C1043 C1044 1.387 . S
C1043 H1046 0.950 . S
C1044 C1043 1.387 . S
C1044 C1047 1.387 . S
H1045 C1041 0.950 . S
H1046 C1043 0.950 . S
C1047 C1038 1.390 . S
C1047 H1040 0.950 . S
C1047 C1044 1.387 . S
C1048 C1049 1.387 . S
C1048 H1052 0.950 . S
C1048 C1057 1.390 . S
C1049 C1048 1.387 . S
C1049 C1051 1.387 . S
H1050 C1057 0.950 . S
C1051 C1049 1.387 . S
C1051 C1053 1.390 . S
C1051 H1055 0.950 . S
H1052 C1048 0.950 . S
C1053 C1051 1.390 . S
C1053 C1054 1.387 . S
C1053 H1056 0.950 . S
C1054 C1053 1.387 . S
C1054 C1057 1.387 . S
H1055 C1051 0.950 . S
H1056 C1053 0.950 . S
C1057 C1048 1.390 . S
C1057 H1050 0.950 . S
C1057 C1054 1.387 . S
C1058 C1059 1.387 . S
C1058 H1062 0.950 . S
C1058 C1067 1.390 . S
C1059 C1058 1.387 . S
C1059 C1061 1.387 . S
H1060 C1067 0.950 . S
C1061 C1059 1.387 . S
C1061 C1063 1.390 . S
C1061 H1065 0.950 1_455 S
H1062 C1058 0.950 . S
C1063 C1061 1.390 . S
C1063 C1064 1.387 . S
C1063 H1066 0.950 . S
C1064 C1063 1.387 . S
C1064 C1067 1.387 . S
H1065 C1061 0.950 1_655 S
H1066 C1063 0.950 . S
C1067 C1058 1.390 . S
C1067 H1060 0.950 . S
C1067 C1064 1.387 . S
C1068 C1069 1.387 . S
C1068 H1072 0.950 . S
C1068 C1077 1.390 . S
C1069 C1068 1.387 . S
C1069 C1071 1.387 . S
H1070 C1077 0.950 . S
C1071 C1069 1.387 . S
C1071 C1073 1.390 . S
C1071 H1075 0.950 . S
H1072 C1068 0.950 . S
C1073 C1071 1.390 . S
C1073 C1074 1.387 . S
C1073 H1076 0.950 . S
C1074 C1073 1.387 . S
C1074 C1077 1.387 . S
H1075 C1071 0.950 . S
H1076 C1073 0.950 . S
C1077 C1068 1.390 . S
C1077 H1070 0.950 . S
C1077 C1074 1.387 . S
C1078 C1079 1.387 . S
C1078 H1082 0.950 . S
C1078 C1087 1.390 . S
C1079 C1078 1.387 . S
C1079 C1081 1.387 . S
H1080 C1087 0.950 . S
C1081 C1079 1.387 . S
C1081 C1083 1.390 . S
C1081 H1085 0.950 . S
H1082 C1078 0.950 . S
C1083 C1081 1.390 . S
C1083 C1084 1.387 . S
C1083 H1086 0.950 . S
C1084 C1083 1.387 . S
C1084 C1087 1.387 . S
H1085 C1081 0.950 . S
H1086 C1083 0.950 . S
C1087 C1078 1.390 . S
C1087 H1080 0.950 . S
C1087 C1084 1.387 . S
C1088 C1089 1.387 . S
C1088 H1092 0.950 . S
C1088 C1097 1.390 . S
C1089 C1088 1.387 . S
C1089 C1091 1.387 . S
H1090 C1097 0.950 . S
C1091 C1089 1.387 . S
C1091 C1093 1.390 . S
C1091 H1095 0.950 . S
H1092 C1088 0.950 . S
C1093 C1091 1.390 . S
C1093 C1094 1.387 . S
C1093 H1096 0.950 . S
C1094 C1093 1.387 . S
C1094 C1097 1.387 . S
H1095 C1091 0.950 . S
H1096 C1093 0.950 . S
C1097 C1088 1.390 . S
C1097 H1090 0.950 . S
C1097 C1094 1.387 . S
C1098 C1099 1.387 . S
C1098 H1102 0.950 . S
C1098 C1107 1.390 . S
C1099 C1098 1.387 . S
C1099 C1101 1.405 . S
H1100 C1107 0.950 . S
C1101 C1099 1.405 . S
C1101 C1103 1.385 1_554 S
C1101 H1105 0.938 1_554 S
H1102 C1098 0.950 . S
C1103 C1101 1.385 1_556 S
C1103 C1104 1.387 1_556 S
C1103 H1106 0.950 . S
C1104 C1103 1.387 1_554 S
C1104 C1107 1.387 . S
H1105 C1101 0.938 1_556 S
H1106 C1103 0.950 . S
C1107 C1098 1.390 . S
C1107 H1100 0.950 . S
C1107 C1104 1.387 . S
C1108 C1109 1.387 . S
C1108 H1112 0.950 . S
C1108 C1117 1.390 . S
C1109 C1108 1.387 . S
C1109 C1111 1.387 . S
H1110 C1117 0.950 . S
C1111 C1109 1.387 . S
C1111 C1113 1.390 . S
C1111 H1115 0.950 . S
H1112 C1108 0.950 . S
C1113 C1111 1.390 . S
C1113 C1114 1.387 . S
C1113 H1116 0.950 . S
C1114 C1113 1.387 . S
C1114 C1117 1.387 . S
H1115 C1111 0.950 . S
H1116 C1113 0.950 . S
C1117 C1108 1.390 . S
C1117 H1110 0.950 . S
C1117 C1114 1.387 . S
C1118 C1119 1.395 . S
C1118 H1122 0.968 . S
C1118 C1127 1.365 1_455 S
C1119 C1118 1.395 . S
C1119 C1121 1.387 1_455 S
H1120 C1127 0.950 . S
C1121 C1119 1.387 1_655 S
C1121 C1123 1.390 . S
C1121 H1125 0.950 . S
H1122 C1118 0.968 . S
C1123 C1121 1.390 . S
C1123 C1124 1.387 . S
C1123 H1126 0.950 . S
C1124 C1123 1.387 . S
C1124 C1127 1.387 . S
H1125 C1121 0.950 . S
H1126 C1123 0.950 . S
C1127 C1118 1.365 1_655 S
C1127 H1120 0.950 . S
C1127 C1124 1.387 . S
C1128 C1129 1.387 . S
C1128 H1132 0.950 . S
C1128 C1137 1.390 . S
C1129 C1128 1.387 . S
C1129 C1131 1.387 . S
H1130 C1137 0.950 . S
C1131 C1129 1.387 . S
C1131 C1133 1.390 . S
C1131 H1135 0.950 . S
H1132 C1128 0.950 . S
C1133 C1131 1.390 . S
C1133 C1134 1.387 . S
C1133 H1136 0.950 . S
C1134 C1133 1.387 . S
C1134 C1137 1.387 . S
H1135 C1131 0.950 . S
H1136 C1133 0.950 . S
C1137 C1128 1.390 . S
C1137 H1130 0.950 . S
C1137 C1134 1.387 . S
C1138 C1139 1.387 . S
C1138 H1142 0.950 1_556 S
C1138 C1147 1.390 1_556 S
C1139 C1138 1.387 . S
C1139 C1141 1.387 . S
H1140 C1147 0.950 . S
C1141 C1139 1.387 . S
C1141 C1143 1.390 1_655 S
C1141 H1145 0.950 . S
H1142 C1138 0.950 1_554 S
C1143 C1141 1.390 1_455 S
C1143 C1144 1.387 . S
C1143 H1146 0.950 . S
C1144 C1143 1.387 . S
C1144 C1147 1.387 1_456 S
H1145 C1141 0.950 . S
H1146 C1143 0.950 . S
C1147 C1138 1.390 1_554 S
C1147 H1140 0.950 . S
C1147 C1144 1.387 1_654 S
C1148 C1149 1.387 . S
C1148 H1152 0.950 . S
C1148 C1157 1.390 . S
C1149 C1148 1.387 . S
C1149 C1151 1.387 . S
H1150 C1157 0.950 . S
C1151 C1149 1.387 . S
C1151 C1153 1.390 . S
C1151 H1155 0.950 . S
H1152 C1148 0.950 . S
C1153 C1151 1.390 . S
C1153 C1154 1.387 . S
C1153 H1156 0.950 . S
C1154 C1153 1.387 . S
C1154 C1157 1.387 . S
H1155 C1151 0.950 . S
H1156 C1153 0.950 . S
C1157 C1148 1.390 . S
C1157 H1150 0.950 . S
C1157 C1154 1.387 . S
C1158 C1159 1.387 . S
C1158 H1162 0.950 . S
C1158 C1167 1.390 . S
C1159 C1158 1.387 . S
C1159 C1161 1.387 . S
H1160 C1167 0.950 . S
C1161 C1159 1.387 . S
C1161 C1163 1.390 . S
C1161 H1165 0.950 . S
H1162 C1158 0.950 . S
C1163 C1161 1.390 . S
C1163 C1164 1.387 . S
C1163 H1166 0.950 . S
C1164 C1163 1.387 . S
C1164 C1167 1.387 . S
H1165 C1161 0.950 . S
H1166 C1163 0.950 . S
C1167 C1158 1.390 . S
C1167 H1160 0.950 . S
C1167 C1164 1.387 . S
C1168 C1169 1.387 . S
C1168 H1172 0.950 . S
C1168 C1177 1.390 . S
C1169 C1168 1.387 . S
C1169 C1171 1.387 . S
H1170 C1177 0.950 . S
C1171 C1169 1.387 . S
C1171 C1173 1.390 . S
C1171 H1175 0.950 . S
H1172 C1168 0.950 . S
C1173 C1171 1.390 . S
C1173 C1174 1.387 . S
C1173 H1176 0.950 . S
C1174 C1173 1.387 . S
C1174 C1177 1.387 . S
H1175 C1171 0.950 . S
H1176 C1173 0.950 . S
C1177 C1168 1.390 . S
C1177 H1170 0.950 . S
C1177 C1174 1.387 . S
C1178 C1179 1.387 . S
C1178 H1182 0.950 . S
C1178 C1187 1.390 . S
C1179 C1178 1.387 . S
C1179 C1181 1.387 . S
H1180 C1187 0.950 . S
C1181 C1179 1.387 . S
C1181 C1183 1.390 . S
C1181 H1185 0.950 . S
H1182 C1178 0.950 . S
C1183 C1181 1.390 . S
C1183 C1184 1.387 . S
C1183 H1186 0.950 . S
C1184 C1183 1.387 . S
C1184 C1187 1.387 . S
H1185 C1181 0.950 . S
H1186 C1183 0.950 . S
C1187 C1178 1.390 . S
C1187 H1180 0.950 . S
C1187 C1184 1.387 . S
C1188 C1189 1.387 . S
C1188 H1192 0.950 . S
C1188 C1197 1.390 . S
C1189 C1188 1.387 . S
C1189 C1191 1.387 1_545 S
H1190 C1197 0.950 . S
C1191 C1189 1.387 1_565 S
C1191 C1193 1.390 . S
C1191 H1195 0.950 . S
H1192 C1188 0.950 . S
C1193 C1191 1.390 . S
C1193 C1194 1.387 . S
C1193 H1196 0.950 . S
C1194 C1193 1.387 . S
C1194 C1197 1.387 1_565 S
H1195 C1191 0.950 . S
H1196 C1193 0.950 . S
C1197 C1188 1.390 . S
C1197 H1190 0.950 . S
C1197 C1194 1.387 1_545 S
C1198 C1199 1.387 . S
C1198 H1202 0.950 . S
C1198 C1207 1.390 . S
C1199 C1198 1.387 . S
C1199 C1201 1.387 . S
H1200 C1207 0.950 . S
C1201 C1199 1.387 . S
C1201 C1203 1.390 . S
C1201 H1205 0.950 . S
H1202 C1198 0.950 . S
C1203 C1201 1.390 . S
C1203 C1204 1.387 . S
C1203 H1206 0.950 . S
C1204 C1203 1.387 . S
C1204 C1207 1.387 . S
H1205 C1201 0.950 . S
H1206 C1203 0.950 . S
C1207 C1198 1.390 . S
C1207 H1200 0.950 . S
C1207 C1204 1.387 . S
C1208 C1209 1.387 . S
C1208 H1212 0.950 . S
C1208 C1217 1.390 . S
C1209 C1208 1.387 . S
C1209 C1211 1.387 . S
H1210 C1217 0.950 . S
C1211 C1209 1.387 . S
C1211 C1213 1.390 . S
C1211 H1215 0.950 . S
H1212 C1208 0.950 . S
C1213 C1211 1.390 . S
C1213 C1214 1.387 . S
C1213 H1216 0.950 . S
C1214 C1213 1.387 . S
C1214 C1217 1.387 . S
H1215 C1211 0.950 . S
H1216 C1213 0.950 . S
C1217 C1208 1.390 . S
C1217 H1210 0.950 . S
C1217 C1214 1.387 . S
C1218 C1219 1.387 . S
C1218 H1222 0.950 . S
C1218 C1227 1.390 . S
C1219 C1218 1.387 . S
C1219 C1221 1.387 . S
H1220 C1227 0.950 . S
C1221 C1219 1.387 . S
C1221 C1223 1.390 . S
C1221 H1225 0.950 . S
H1222 C1218 0.950 . S
C1223 C1221 1.390 . S
C1223 C1224 1.387 . S
C1223 H1226 0.950 . S
C1224 C1223 1.387 . S
C1224 C1227 1.387 . S
H1225 C1221 0.950 . S
H1226 C1223 0.950 . S
C1227 C1218 1.390 . S
C1227 H1220 0.950 . S
C1227 C1224 1.387 . S
C1228 C1229 1.387 . S
C1228 H1232 0.950 . S
C1228 C1237 1.390 1_565 S
C1229 C1228 1.387 . S
C1229 C1231 1.387 . S
H1230 C1237 0.950 . S
C1231 C1229 1.387 . S
C1231 C1233 1.390 . S
C1231 H1235 0.950 . S
H1232 C1228 0.950 . S
C1233 C1231 1.390 . S
C1233 C1234 1.387 1_565 S
C1233 H1236 0.951 1_556 S
C1234 C1233 1.387 1_545 S
C1234 C1237 1.387 . S
H1235 C1231 0.950 . S
H1236 C1233 0.951 1_554 S
C1237 C1228 1.390 1_545 S
C1237 H1230 0.950 . S
C1237 C1234 1.387 . S
C1238 C1239 1.387 . S
C1238 H1242 0.950 . S
C1238 C1247 1.390 . S
C1239 C1238 1.387 . S
C1239 C1241 1.359 1_545 S
H1240 C1247 0.950 . S
C1241 C1239 1.359 1_565 S
C1241 C1243 1.398 . S
C1241 H1245 0.972 . S
H1242 C1238 0.950 . S
C1243 C1241 1.398 . S
C1243 C1244 1.387 1_565 S
C1243 H1246 0.950 . S
C1244 C1243 1.387 1_545 S
C1244 C1247 1.387 . S
H1245 C1241 0.972 . S
H1246 C1243 0.950 . S
C1247 C1238 1.390 . S
C1247 H1240 0.950 . S
C1247 C1244 1.387 . S
C1248 C1249 1.387 . S
C1248 H1252 0.950 . S
C1248 C1257 1.390 . S
C1249 C1248 1.387 . S
C1249 C1251 1.387 . S
H1250 C1257 0.950 . S
C1251 C1249 1.387 . S
C1251 C1253 1.390 . S
C1251 H1255 0.950 . S
H1252 C1248 0.950 . S
C1253 C1251 1.390 . S
C1253 C1254 1.387 . S
C1253 H1256 0.950 . S
C1254 C1253 1.387 . S
C1254 C1257 1.387 . S
H1255 C1251 0.950 . S
H1256 C1253 0.950 . S
C1257 C1248 1.390 . S
C1257 H1250 0.950 . S
C1257 C1254 1.387 . S
C1258 C1259 1.387 . S
C1258 H1262 0.950 . S
C1258 C1267 1.390 1_455 S
C1259 C1258 1.387 . S
C1259 C1261 1.387 . S
H1260 C1267 0.950 . S
C1261 C1259 1.387 . S
C1261 C1263 1.390 1_455 S
C1261 H1265 0.950 . S
H1262 C1258 0.950 . S
C1263 C1261 1.390 1_655 S
C1263 C1264 1.387 . S
C1263 H1266 0.950 . S
C1264 C1263 1.387 . S
C1264 C1267 1.387 . S
H1265 C1261 0.950 . S
H1266 C1263 0.950 . S
C1267 C1258 1.390 1_655 S
C1267 H1260 0.950 . S
C1267 C1264 1.387 . S
C1268 C1269 1.369 1_556 S
C1268 H1272 0.947 1_556 S
C1268 C1277 1.412 . S
C1269 C1268 1.369 1_554 S
C1269 C1271 1.387 . S
H1270 C1277 0.950 . S
C1271 C1269 1.387 . S
C1271 C1273 1.390 1_554 S
C1271 H1275 0.950 . S
H1272 C1268 0.947 1_554 S
C1273 C1271 1.390 1_556 S
C1273 C1274 1.387 . S
C1273 H1276 0.950 . S
C1274 C1273 1.387 . S
C1274 C1277 1.387 . S
H1275 C1271 0.950 . S
H1276 C1273 0.950 . S
C1277 C1268 1.412 . S
C1277 H1270 0.950 . S
C1277 C1274 1.387 . S
C1278 C1279 1.387 . S
C1278 H1282 0.950 . S
C1278 C1287 1.390 . S
C1279 C1278 1.387 . S
C1279 C1281 1.387 . S
H1280 C1287 0.950 . S
C1281 C1279 1.387 . S
C1281 C1283 1.390 . S
C1281 H1285 0.950 . S
H1282 C1278 0.950 . S
C1283 C1281 1.390 . S
C1283 C1284 1.387 . S
C1283 H1286 0.950 . S
C1284 C1283 1.387 . S
C1284 C1287 1.387 . S
H1285 C1281 0.950 . S
H1286 C1283 0.950 . S
C1287 C1278 1.390 . S
C1287 H1280 0.950 . S
C1287 C1284 1.387 . S
C1288 C1289 1.404 . S
C1288 H1292 0.952 . S
C1288 C1297 1.372 1_556 S
C1289 C1288 1.404 . S
C1289 C1291 1.387 . S
H1290 C1297 0.950 . S
C1291 C1289 1.387 . S
C1291 C1293 1.390 1_556 S
C1291 H1295 0.950 . S
H1292 C1288 0.952 . S
C1293 C1291 1.390 1_554 S
C1293 C1294 1.387 . S
C1293 H1296 0.950 . S
C1294 C1293 1.387 . S
C1294 C1297 1.387 . S
H1295 C1291 0.950 . S
H1296 C1293 0.950 . S
C1297 C1288 1.372 1_554 S
C1297 H1290 0.950 . S
C1297 C1294 1.387 . S
C1298 C1299 1.387 . S
C1298 H1302 0.950 . S
C1298 C1307 1.390 . S
C1299 C1298 1.387 . S
C1299 C1301 1.387 . S
H1300 C1307 0.950 . S
C1301 C1299 1.387 . S
C1301 C1303 1.390 . S
C1301 H1305 0.950 . S
H1302 C1298 0.950 . S
C1303 C1301 1.390 . S
C1303 C1304 1.387 . S
C1303 H1306 0.950 . S
C1304 C1303 1.387 . S
C1304 C1307 1.387 . S
H1305 C1301 0.950 . S
H1306 C1303 0.950 . S
C1307 C1298 1.390 . S
C1307 H1300 0.950 . S
C1307 C1304 1.387 . S
C1308 C1309 1.387 . S
C1308 H1312 0.950 . S
C1308 C1317 1.390 . S
C1309 C1308 1.387 . S
C1309 C1311 1.387 . S
H1310 C1317 0.950 . S
C1311 C1309 1.387 . S
C1311 C1313 1.390 . S
C1311 H1315 0.950 . S
H1312 C1308 0.950 . S
C1313 C1311 1.390 . S
C1313 C1314 1.387 . S
C1313 H1316 0.950 . S
C1314 C1313 1.387 . S
C1314 C1317 1.387 . S
H1315 C1311 0.950 . S
H1316 C1313 0.950 . S
C1317 C1308 1.390 . S
C1317 H1310 0.950 . S
C1317 C1314 1.387 . S
C1318 C1319 1.387 . S
C1318 H1322 0.950 . S
C1318 C1327 1.390 1_655 S
C1319 C1318 1.387 . S
C1319 C1321 1.387 . S
H1320 C1327 0.950 . S
C1321 C1319 1.387 . S
C1321 C1323 1.390 1_655 S
C1321 H1325 0.950 . S
H1322 C1318 0.950 . S
C1323 C1321 1.390 1_455 S
C1323 C1324 1.387 . S
C1323 H1326 0.950 . S
C1324 C1323 1.387 . S
C1324 C1327 1.387 . S
H1325 C1321 0.950 . S
H1326 C1323 0.950 . S
C1327 C1318 1.390 1_455 S
C1327 H1320 0.950 . S
C1327 C1324 1.387 . S
C1328 C1329 1.387 . S
C1328 H1332 0.950 . S
C1328 C1337 1.390 . S
C1329 C1328 1.387 . S
C1329 C1331 1.387 . S
H1330 C1337 0.950 . S
C1331 C1329 1.387 . S
C1331 C1333 1.390 . S
C1331 H1335 0.950 . S
H1332 C1328 0.950 . S
C1333 C1331 1.390 . S
C1333 C1334 1.387 . S
C1333 H1336 0.950 . S
C1334 C1333 1.387 . S
C1334 C1337 1.387 . S
H1335 C1331 0.950 . S
H1336 C1333 0.950 . S
C1337 C1328 1.390 . S
C1337 H1330 0.950 . S
C1337 C1334 1.387 . S
C1338 C1339 1.387 1_565 S
C1338 H1342 0.950 . S
C1338 C1347 1.390 . S
C1339 C1338 1.387 1_545 S
C1339 C1341 1.387 . S
H1340 C1347 0.950 . S
C1341 C1339 1.387 . S
C1341 C1343 1.390 1_545 S
C1341 H1345 0.950 . S
H1342 C1338 0.950 . S
C1343 C1341 1.390 1_565 S
C1343 C1344 1.387 . S
C1343 H1346 0.950 . S
C1344 C1343 1.387 . S
C1344 C1347 1.387 . S
H1345 C1341 0.950 . S
H1346 C1343 0.950 . S
C1347 C1338 1.390 . S
C1347 H1340 0.950 . S
C1347 C1344 1.387 . S
C1348 C1349 1.387 . S
C1348 H1352 0.950 . S
C1348 C1357 1.390 1_545 S
C1349 C1348 1.387 . S
C1349 C1351 1.387 . S
H1350 C1357 0.950 . S
C1351 C1349 1.387 . S
C1351 C1353 1.390 1_545 S
C1351 H1355 0.950 . S
H1352 C1348 0.950 . S
C1353 C1351 1.390 1_565 S
C1353 C1354 1.387 . S
C1353 H1356 0.950 . S
C1354 C1353 1.387 . S
C1354 C1357 1.387 . S
H1355 C1351 0.950 . S
H1356 C1353 0.950 . S
C1357 C1348 1.390 1_565 S
C1357 H1350 0.950 . S
C1357 C1354 1.387 . S
C1358 C1359 1.387 . S
C1358 H1362 0.950 . S
C1358 C1367 1.390 1_565 S
C1359 C1358 1.387 . S
C1359 C1361 1.387 . S
H1360 C1367 0.950 . S
C1361 C1359 1.387 . S
C1361 C1363 1.390 1_565 S
C1361 H1365 0.950 . S
H1362 C1358 0.950 . S
C1363 C1361 1.390 1_545 S
C1363 C1364 1.387 . S
C1363 H1366 0.950 . S
C1364 C1363 1.387 . S
C1364 C1367 1.387 . S
H1365 C1361 0.950 . S
H1366 C1363 0.950 . S
C1367 C1358 1.390 1_545 S
C1367 H1360 0.950 . S
C1367 C1364 1.387 . S
C1368 C1369 1.387 . S
C1368 H1372 0.950 . S
C1368 C1377 1.390 . S
C1369 C1368 1.387 . S
C1369 C1371 1.387 . S
H1370 C1377 0.950 . S
C1371 C1369 1.387 . S
C1371 C1373 1.390 . S
C1371 H1375 0.950 . S
H1372 C1368 0.950 . S
C1373 C1371 1.390 . S
C1373 C1374 1.387 . S
C1373 H1376 0.950 . S
C1374 C1373 1.387 . S
C1374 C1377 1.387 . S
H1375 C1371 0.950 . S
H1376 C1373 0.950 . S
C1377 C1368 1.390 . S
C1377 H1370 0.950 . S
C1377 C1374 1.387 . S
C1378 C1379 1.387 . S
C1378 H1382 0.950 . S
C1378 C1387 1.390 . S
C1379 C1378 1.387 . S
C1379 C1381 1.387 . S
H1380 C1387 0.950 . S
C1381 C1379 1.387 . S
C1381 C1383 1.390 . S
C1381 H1385 0.950 . S
H1382 C1378 0.950 . S
C1383 C1381 1.390 . S
C1383 C1384 1.387 . S
C1383 H1386 0.950 . S
C1384 C1383 1.387 . S
C1384 C1387 1.387 . S
H1385 C1381 0.950 . S
H1386 C1383 0.950 . S
C1387 C1378 1.390 . S
C1387 H1380 0.950 . S
C1387 C1384 1.387 . S
C1388 C1389 1.387 . S
C1388 H1392 0.950 . S
C1388 C1397 1.390 . S
C1389 C1388 1.387 . S
C1389 C1391 1.387 . S
H1390 C1397 0.950 . S
C1391 C1389 1.387 . S
C1391 C1393 1.390 . S
C1391 H1395 0.950 . S
H1392 C1388 0.950 . S
C1393 C1391 1.390 . S
C1393 C1394 1.387 . S
C1393 H1396 0.950 . S
C1394 C1393 1.387 . S
C1394 C1397 1.387 . S
H1395 C1391 0.950 . S
H1396 C1393 0.950 . S
C1397 C1388 1.390 . S
C1397 H1390 0.950 . S
C1397 C1394 1.387 . S
C1398 C1399 1.387 . S
C1398 H1402 0.950 . S
C1398 C1407 1.390 1_554 S
C1399 C1398 1.387 . S
C1399 C1401 1.387 . S
H1400 C1407 0.950 . S
C1401 C1399 1.387 . S
C1401 C1403 1.390 1_554 S
C1401 H1405 0.950 . S
H1402 C1398 0.950 . S
C1403 C1401 1.390 1_556 S
C1403 C1404 1.387 . S
C1403 H1406 0.950 . S
C1404 C1403 1.387 . S
C1404 C1407 1.387 . S
H1405 C1401 0.950 . S
H1406 C1403 0.950 . S
C1407 C1398 1.390 1_556 S
C1407 H1400 0.950 . S
C1407 C1404 1.387 . S
C1408 C1409 1.387 . S
C1408 H1412 0.950 . S
C1408 C1417 1.390 . S
C1409 C1408 1.387 . S
C1409 C1411 1.387 . S
H1410 C1417 0.950 . S
C1411 C1409 1.387 . S
C1411 C1413 1.390 . S
C1411 H1415 0.950 . S
H1412 C1408 0.950 . S
C1413 C1411 1.390 . S
C1413 C1414 1.387 . S
C1413 H1416 0.950 . S
C1414 C1413 1.387 . S
C1414 C1417 1.387 . S
H1415 C1411 0.950 . S
H1416 C1413 0.950 . S
C1417 C1408 1.390 . S
C1417 H1410 0.950 . S
C1417 C1414 1.387 . S
C1418 C1419 1.387 . S
C1418 H1422 0.950 . S
C1418 C1427 1.390 . S
C1419 C1418 1.387 . S
C1419 C1421 1.387 . S
H1420 C1427 0.950 . S
C1421 C1419 1.387 . S
C1421 C1423 1.390 . S
C1421 H1425 0.950 . S
H1422 C1418 0.950 . S
C1423 C1421 1.390 . S
C1423 C1424 1.387 . S
C1423 H1426 0.950 . S
C1424 C1423 1.387 . S
C1424 C1427 1.387 . S
H1425 C1421 0.950 . S
H1426 C1423 0.950 . S
C1427 C1418 1.390 . S
C1427 H1420 0.950 . S
C1427 C1424 1.387 . S
C1428 C1429 1.387 . S
C1428 H1432 0.950 . S
C1428 C1437 1.390 1_655 S
C1429 C1428 1.387 . S
C1429 C1431 1.387 . S
H1430 C1437 0.950 . S
C1431 C1429 1.387 . S
C1431 C1433 1.390 1_655 S
C1431 H1435 0.950 . S
H1432 C1428 0.950 . S
C1433 C1431 1.390 1_455 S
C1433 C1434 1.387 . S
C1433 H1436 0.950 . S
C1434 C1433 1.387 . S
C1434 C1437 1.387 . S
H1435 C1431 0.950 . S
H1436 C1433 0.950 . S
C1437 C1428 1.390 1_455 S
C1437 H1430 0.950 . S
C1437 C1434 1.387 . S
C1438 C1439 1.387 . S
C1438 H1442 0.950 . S
C1438 C1447 1.390 . S
C1439 C1438 1.387 . S
C1439 C1441 1.387 . S
H1440 C1447 0.950 . S
C1441 C1439 1.387 . S
C1441 C1443 1.390 . S
C1441 H1445 0.950 . S
H1442 C1438 0.950 . S
C1443 C1441 1.390 . S
C1443 C1444 1.387 . S
C1443 H1446 0.950 . S
C1444 C1443 1.387 . S
C1444 C1447 1.387 . S
H1445 C1441 0.950 . S
H1446 C1443 0.950 . S
C1447 C1438 1.390 . S
C1447 H1440 0.950 . S
C1447 C1444 1.387 . S
C1448 C1449 1.387 . S
C1448 H1452 0.950 . S
C1448 C1457 1.390 1_655 S
C1449 C1448 1.387 . S
C1449 C1451 1.387 . S
H1450 C1457 0.950 . S
C1451 C1449 1.387 . S
C1451 C1453 1.390 1_655 S
C1451 H1455 0.950 . S
H1452 C1448 0.950 . S
C1453 C1451 1.390 1_455 S
C1453 C1454 1.387 . S
C1453 H1456 0.950 . S
C1454 C1453 1.387 . S
C1454 C1457 1.387 . S
H1455 C1451 0.950 . S
H1456 C1453 0.950 . S
C1457 C1448 1.390 1_455 S
C1457 H1450 0.950 . S
C1457 C1454 1.387 . S
C1458 C1459 1.387 1_556 S
C1458 H1462 0.952 . S
C1458 C1467 1.390 . S
C1459 C1458 1.387 1_554 S
C1459 C1461 1.387 . S
H1460 C1467 0.950 . S
C1461 C1459 1.387 . S
C1461 C1463 1.390 1_554 S
C1461 H1465 0.950 . S
H1462 C1458 0.952 . S
C1463 C1461 1.390 1_556 S
C1463 C1464 1.387 . S
C1463 H1466 0.950 . S
C1464 C1463 1.387 . S
C1464 C1467 1.387 . S
H1465 C1461 0.950 . S
H1466 C1463 0.950 . S
C1467 C1458 1.390 . S
C1467 H1460 0.950 . S
C1467 C1464 1.387 . S
C1468 C1469 1.387 . S
C1468 H1472 0.950 . S
C1468 C1477 1.390 . S
C1469 C1468 1.387 . S
C1469 C1471 1.387 . S
H1470 C1477 0.950 . S
C1471 C1469 1.387 . S
C1471 C1473 1.390 . S
C1471 H1475 0.950 . S
H1472 C1468 0.950 . S
C1473 C1471 1.390 . S
C1473 C1474 1.387 . S
C1473 H1476 0.950 . S
C1474 C1473 1.387 . S
C1474 C1477 1.387 . S
H1475 C1471 0.950 . S
H1476 C1473 0.950 . S
C1477 C1468 1.390 . S
C1477 H1470 0.950 . S
C1477 C1474 1.387 . S
C1478 C1479 1.387 . S
C1478 H1482 0.950 . S
C1478 C1487 1.390 1_565 S
C1479 C1478 1.387 . S
C1479 C1481 1.387 . S
H1480 C1487 0.950 . S
C1481 C1479 1.387 . S
C1481 C1483 1.390 1_565 S
C1481 H1485 0.950 . S
H1482 C1478 0.950 . S
C1483 C1481 1.390 1_545 S
C1483 C1484 1.387 . S
C1483 H1486 0.950 . S
C1484 C1483 1.387 . S
C1484 C1487 1.387 . S
H1485 C1481 0.950 . S
H1486 C1483 0.950 . S
C1487 C1478 1.390 1_545 S
C1487 H1480 0.950 . S
C1487 C1484 1.387 . S
C1488 C1489 1.387 . S
C1488 H1492 0.950 . S
C1488 C1497 1.390 . S
C1489 C1488 1.387 . S
C1489 C1491 1.387 . S
H1490 C1497 0.950 . S
C1491 C1489 1.387 . S
C1491 C1493 1.390 . S
C1491 H1495 0.950 . S
H1492 C1488 0.950 . S
C1493 C1491 1.390 . S
C1493 C1494 1.387 . S
C1493 H1496 0.950 . S
C1494 C1493 1.387 . S
C1494 C1497 1.387 . S
H1495 C1491 0.950 . S
H1496 C1493 0.950 . S
C1497 C1488 1.390 . S
C1497 H1490 0.950 . S
C1497 C1494 1.387 . S
C1498 C1499 1.387 . S
C1498 H1502 0.950 . S
C1498 C1507 1.390 . S
C1499 C1498 1.387 . S
C1499 C1501 1.387 . S
H1500 C1507 0.950 . S
C1501 C1499 1.387 . S
C1501 C1503 1.390 . S
C1501 H1505 0.950 . S
H1502 C1498 0.950 . S
C1503 C1501 1.390 . S
C1503 C1504 1.387 . S
C1503 H1506 0.950 . S
C1504 C1503 1.387 . S
C1504 C1507 1.387 . S
H1505 C1501 0.950 . S
H1506 C1503 0.950 . S
C1507 C1498 1.390 . S
C1507 H1500 0.950 . S
C1507 C1504 1.387 . S
C1508 C1509 1.387 . S
C1508 H1512 0.950 . S
C1508 C1517 1.390 . S
C1509 C1508 1.387 . S
C1509 C1511 1.387 . S
H1510 C1517 0.950 . S
C1511 C1509 1.387 . S
C1511 C1513 1.390 . S
C1511 H1515 0.950 . S
H1512 C1508 0.950 . S
C1513 C1511 1.390 . S
C1513 C1514 1.387 . S
C1513 H1516 0.950 . S
C1514 C1513 1.387 . S
C1514 C1517 1.387 . S
H1515 C1511 0.950 . S
H1516 C1513 0.950 . S
C1517 C1508 1.390 . S
C1517 H1510 0.950 . S
C1517 C1514 1.387 . S
C1518 C1519 1.387 . S
C1518 H1522 0.950 . S
C1518 C1527 1.390 1_556 S
C1519 C1518 1.387 . S
C1519 C1521 1.387 . S
H1520 C1527 0.950 . S
C1521 C1519 1.387 . S
C1521 C1523 1.390 1_556 S
C1521 H1525 0.950 . S
H1522 C1518 0.950 . S
C1523 C1521 1.390 1_554 S
C1523 C1524 1.387 . S
C1523 H1526 0.950 . S
C1524 C1523 1.387 . S
C1524 C1527 1.387 . S
H1525 C1521 0.950 . S
H1526 C1523 0.950 . S
C1527 C1518 1.390 1_554 S
C1527 H1520 0.950 . S
C1527 C1524 1.387 . S
C1528 C1529 1.387 . S
C1528 H1532 0.950 . S
C1528 C1537 1.390 . S
C1529 C1528 1.387 . S
C1529 C1531 1.387 . S
H1530 C1537 0.950 . S
C1531 C1529 1.387 . S
C1531 C1533 1.390 . S
C1531 H1535 0.950 . S
H1532 C1528 0.950 . S
C1533 C1531 1.390 . S
C1533 C1534 1.387 . S
C1533 H1536 0.950 . S
C1534 C1533 1.387 . S
C1534 C1537 1.387 . S
H1535 C1531 0.950 . S
H1536 C1533 0.950 . S
C1537 C1528 1.390 . S
C1537 H1530 0.950 . S
C1537 C1534 1.387 . S
C1538 C1539 1.387 . S
C1538 H1542 0.950 . S
C1538 C1547 1.390 . S
C1539 C1538 1.387 . S
C1539 C1541 1.387 1_565 S
H1540 C1547 0.950 . S
C1541 C1539 1.387 1_545 S
C1541 C1543 1.390 . S
C1541 H1545 0.950 . S
H1542 C1538 0.950 . S
C1543 C1541 1.390 . S
C1543 C1544 1.387 . S
C1543 H1546 0.950 . S
C1544 C1543 1.387 . S
C1544 C1547 1.387 1_545 S
H1545 C1541 0.950 . S
H1546 C1543 0.950 . S
C1547 C1538 1.390 . S
C1547 H1540 0.950 . S
C1547 C1544 1.387 1_565 S
C1548 C1549 1.387 . S
C1548 H1552 0.950 . S
C1548 C1557 1.390 1_556 S
C1549 C1548 1.387 . S
C1549 C1551 1.387 . S
H1550 C1557 0.950 . S
C1551 C1549 1.387 . S
C1551 C1553 1.390 1_556 S
C1551 H1555 0.950 . S
H1552 C1548 0.950 . S
C1553 C1551 1.390 1_554 S
C1553 C1554 1.387 . S
C1553 H1556 0.950 . S
C1554 C1553 1.387 . S
C1554 C1557 1.387 . S
H1555 C1551 0.950 . S
H1556 C1553 0.950 . S
C1557 C1548 1.390 1_554 S
C1557 H1550 0.950 . S
C1557 C1554 1.387 . S
C1558 C1559 1.387 . S
C1558 H1562 0.950 . S
C1558 C1567 1.390 . S
C1559 C1558 1.387 . S
C1559 C1561 1.387 . S
H1560 C1567 0.950 . S
C1561 C1559 1.387 . S
C1561 C1563 1.390 1_545 S
C1561 H1565 0.950 . S
H1562 C1558 0.950 . S
C1563 C1561 1.390 1_565 S
C1563 C1564 1.387 . S
C1563 H1566 0.950 . S
C1564 C1563 1.387 . S
C1564 C1567 1.387 1_565 S
H1565 C1561 0.950 . S
H1566 C1563 0.950 . S
C1567 C1558 1.390 . S
C1567 H1560 0.950 . S
C1567 C1564 1.387 1_545 S
C1568 C1569 1.387 . S
C1568 H1572 0.950 . S
C1568 C1577 1.390 . S
C1569 C1568 1.387 . S
C1569 C1571 1.387 . S
H1570 C1577 0.950 . S
C1571 C1569 1.387 . S
C1571 C1573 1.390 . S
C1571 H1575 0.950 . S
H1572 C1568 0.950 . S
C1573 C1571 1.390 . S
C1573 C1574 1.387 . S
C1573 H1576 0.950 . S
C1574 C1573 1.387 . S
C1574 C1577 1.387 . S
H1575 C1571 0.950 . S
H1576 C1573 0.950 . S
C1577 C1568 1.390 . S
C1577 H1570 0.950 . S
C1577 C1574 1.387 . S
C1578 C1579 1.387 . S
C1578 H1582 0.950 . S
C1578 C1587 1.390 1_655 S
C1579 C1578 1.387 . S
C1579 C1581 1.387 . S
H1580 C1587 0.950 . S
C1581 C1579 1.387 . S
C1581 C1583 1.390 1_655 S
C1581 H1585 0.950 . S
H1582 C1578 0.950 . S
C1583 C1581 1.390 1_455 S
C1583 C1584 1.387 . S
C1583 H1586 0.950 . S
C1584 C1583 1.387 . S
C1584 C1587 1.387 . S
H1585 C1581 0.950 . S
H1586 C1583 0.950 . S
C1587 C1578 1.390 1_455 S
C1587 H1580 0.950 . S
C1587 C1584 1.387 . S
C1588 C1589 1.370 1_455 S
C1588 H1592 0.946 1_455 S
C1588 C1597 1.413 . S
C1589 C1588 1.370 1_655 S
C1589 C1591 1.387 . S
H1590 C1597 0.950 . S
C1591 C1589 1.387 . S
C1591 C1593 1.390 1_655 S
C1591 H1595 0.950 . S
H1592 C1588 0.946 1_655 S
C1593 C1591 1.390 1_455 S
C1593 C1594 1.387 . S
C1593 H1596 0.950 . S
C1594 C1593 1.387 . S
C1594 C1597 1.387 . S
H1595 C1591 0.950 . S
H1596 C1593 0.950 . S
C1597 C1588 1.413 . S
C1597 H1590 0.950 . S
C1597 C1594 1.387 . S
C1598 C1599 1.387 . S
C1598 H1602 0.950 . S
C1598 C1607 1.390 . S
C1599 C1598 1.387 . S
C1599 C1601 1.387 . S
H1600 C1607 0.950 . S
C1601 C1599 1.387 . S
C1601 C1603 1.390 . S
C1601 H1605 0.950 . S
H1602 C1598 0.950 . S
C1603 C1601 1.390 . S
C1603 C1604 1.387 . S
C1603 H1606 0.950 . S
C1604 C1603 1.387 . S
C1604 C1607 1.387 . S
H1605 C1601 0.950 . S
H1606 C1603 0.950 . S
C1607 C1598 1.390 . S
C1607 H1600 0.950 . S
C1607 C1604 1.387 . S
C1608 C1609 1.387 1_455 S
C1608 H1612 0.950 1_455 S
C1608 C1617 1.390 . S
C1609 C1608 1.387 1_655 S
C1609 C1611 1.387 . S
H1610 C1617 0.950 . S
C1611 C1609 1.387 . S
C1611 C1613 1.390 1_655 S
C1611 H1615 0.950 . S
H1612 C1608 0.950 1_655 S
C1613 C1611 1.390 1_455 S
C1613 C1614 1.387 . S
C1613 H1616 0.950 . S
C1614 C1613 1.387 . S
C1614 C1617 1.387 . S
H1615 C1611 0.950 . S
H1616 C1613 0.950 . S
C1617 C1608 1.390 . S
C1617 H1610 0.950 . S
C1617 C1614 1.387 . S
C1618 C1619 1.387 . S
C1618 H1622 0.950 . S
C1618 C1627 1.390 1_455 S
C1619 C1618 1.387 . S
C1619 C1621 1.387 . S
H1620 C1627 0.950 . S
C1621 C1619 1.387 . S
C1621 C1623 1.390 1_455 S
C1621 H1625 0.950 . S
H1622 C1618 0.950 . S
C1623 C1621 1.390 1_655 S
C1623 C1624 1.387 . S
C1623 H1626 0.950 . S
C1624 C1623 1.387 . S
C1624 C1627 1.387 . S
H1625 C1621 0.950 . S
H1626 C1623 0.950 . S
C1627 C1618 1.390 1_655 S
C1627 H1620 0.950 . S
C1627 C1624 1.387 . S
C1628 C1629 1.387 . S
C1628 H1632 0.950 . S
C1628 C1637 1.390 . S
C1629 C1628 1.387 . S
C1629 C1631 1.387 . S
H1630 C1637 0.950 . S
C1631 C1629 1.387 . S
C1631 C1633 1.390 . S
C1631 H1635 0.950 . S
H1632 C1628 0.950 . S
C1633 C1631 1.390 . S
C1633 C1634 1.387 . S
C1633 H1636 0.950 . S
C1634 C1633 1.387 . S
C1634 C1637 1.387 . S
H1635 C1631 0.950 . S
H1636 C1633 0.950 . S
C1637 C1628 1.390 . S
C1637 H1630 0.950 . S
C1637 C1634 1.387 . S
C1638 C1639 1.387 . S
C1638 H1642 0.950 . S
C1638 C1647 1.390 1_545 S
C1639 C1638 1.387 . S
C1639 C1641 1.387 . S
H1640 C1647 0.950 . S
C1641 C1639 1.387 . S
C1641 C1643 1.390 1_545 S
C1641 H1645 0.950 . S
H1642 C1638 0.950 . S
C1643 C1641 1.390 1_565 S
C1643 C1644 1.387 . S
C1643 H1646 0.950 . S
C1644 C1643 1.387 . S
C1644 C1647 1.387 . S
H1645 C1641 0.950 . S
H1646 C1643 0.950 . S
C1647 C1638 1.390 1_565 S
C1647 H1640 0.950 . S
C1647 C1644 1.387 . S
C1648 C1649 1.387 . S
C1648 H1652 0.950 . S
C1648 C1657 1.390 . S
C1649 C1648 1.387 . S
C1649 C1651 1.387 . S
H1650 C1657 0.950 1_556 S
C1651 C1649 1.387 . S
C1651 C1653 1.390 1_554 S
C1651 H1655 0.950 . S
H1652 C1648 0.950 . S
C1653 C1651 1.390 1_556 S
C1653 C1654 1.387 . S
C1653 H1656 0.950 . S
C1654 C1653 1.387 . S
C1654 C1657 1.387 1_556 S
H1655 C1651 0.950 . S
H1656 C1653 0.950 . S
C1657 C1648 1.390 . S
C1657 H1650 0.950 1_554 S
C1657 C1654 1.387 1_554 S
C1658 C1659 1.387 . S
C1658 H1662 0.950 . S
C1658 C1667 1.390 1_565 S
C1659 C1658 1.387 . S
C1659 C1661 1.387 . S
H1660 C1667 0.950 . S
C1661 C1659 1.387 . S
C1661 C1663 1.390 . S
C1661 H1665 0.950 . S
H1662 C1658 0.950 . S
C1663 C1661 1.390 . S
C1663 C1664 1.387 1_565 S
C1663 H1666 0.957 . S
C1664 C1663 1.387 1_545 S
C1664 C1667 1.387 . S
H1665 C1661 0.950 . S
H1666 C1663 0.957 . S
C1667 C1658 1.390 1_545 S
C1667 H1660 0.950 . S
C1667 C1664 1.387 . S
C1668 C1669 1.387 . S
C1668 H1672 0.950 . S
C1668 C1677 1.390 . S
C1669 C1668 1.387 . S
C1669 C1671 1.387 . S
H1670 C1677 0.950 . S
C1671 C1669 1.387 . S
C1671 C1673 1.390 . S
C1671 H1675 0.950 . S
H1672 C1668 0.950 . S
C1673 C1671 1.390 . S
C1673 C1674 1.387 . S
C1673 H1676 0.950 . S
C1674 C1673 1.387 . S
C1674 C1677 1.387 . S
H1675 C1671 0.950 . S
H1676 C1673 0.950 . S
C1677 C1668 1.390 . S
C1677 H1670 0.950 . S
C1677 C1674 1.387 . S
C1678 C1679 1.387 . S
C1678 H1682 0.950 . S
C1678 C1687 1.390 1_554 S
C1679 C1678 1.387 . S
C1679 C1681 1.387 . S
H1680 C1687 0.950 . S
C1681 C1679 1.387 . S
C1681 C1683 1.390 1_554 S
C1681 H1685 0.950 . S
H1682 C1678 0.950 . S
C1683 C1681 1.390 1_556 S
C1683 C1684 1.387 . S
C1683 H1686 0.950 . S
C1684 C1683 1.387 . S
C1684 C1687 1.387 . S
H1685 C1681 0.950 . S
H1686 C1683 0.950 . S
C1687 C1678 1.390 1_556 S
C1687 H1680 0.950 . S
C1687 C1684 1.387 . S
C1688 C1689 1.387 . S
C1688 H1692 0.950 . S
C1688 C1697 1.390 . S
C1689 C1688 1.387 . S
C1689 C1691 1.387 . S
H1690 C1697 0.950 . S
C1691 C1689 1.387 . S
C1691 C1693 1.390 . S
C1691 H1695 0.950 . S
H1692 C1688 0.950 . S
C1693 C1691 1.390 . S
C1693 C1694 1.387 . S
C1693 H1696 0.950 . S
C1694 C1693 1.387 . S
C1694 C1697 1.387 . S
H1695 C1691 0.950 . S
H1696 C1693 0.950 . S
C1697 C1688 1.390 . S
C1697 H1690 0.950 . S
C1697 C1694 1.387 . S
C1698 C1699 1.387 . S
C1698 H1702 0.950 . S
C1698 C1707 1.390 . S
C1699 C1698 1.387 . S
C1699 C1701 1.387 . S
H1700 C1707 0.950 . S
C1701 C1699 1.387 . S
C1701 C1703 1.390 . S
C1701 H1705 0.950 . S
H1702 C1698 0.950 . S
C1703 C1701 1.390 . S
C1703 C1704 1.387 . S
C1703 H1706 0.950 . S
C1704 C1703 1.387 . S
C1704 C1707 1.387 . S
H1705 C1701 0.950 . S
H1706 C1703 0.950 . S
C1707 C1698 1.390 . S
C1707 H1700 0.950 . S
C1707 C1704 1.387 . S
C1708 C1709 1.387 . S
C1708 H1712 0.950 . S
C1708 C1717 1.390 . S
C1709 C1708 1.387 . S
C1709 C1711 1.387 . S
H1710 C1717 0.950 . S
C1711 C1709 1.387 . S
C1711 C1713 1.390 . S
C1711 H1715 0.950 . S
H1712 C1708 0.950 . S
C1713 C1711 1.390 . S
C1713 C1714 1.387 . S
C1713 H1716 0.950 . S
C1714 C1713 1.387 . S
C1714 C1717 1.387 . S
H1715 C1711 0.950 . S
H1716 C1713 0.950 . S
C1717 C1708 1.390 . S
C1717 H1710 0.950 . S
C1717 C1714 1.387 . S
C1718 C1719 1.387 . S
C1718 H1722 0.950 . S
C1718 C1727 1.390 . S
C1719 C1718 1.387 . S
C1719 C1721 1.387 . S
H1720 C1727 0.950 . S
C1721 C1719 1.387 . S
C1721 C1723 1.390 . S
C1721 H1725 0.950 . S
H1722 C1718 0.950 . S
C1723 C1721 1.390 . S
C1723 C1724 1.387 . S
C1723 H1726 0.950 . S
C1724 C1723 1.387 . S
C1724 C1727 1.387 . S
H1725 C1721 0.950 . S
H1726 C1723 0.950 . S
C1727 C1718 1.390 . S
C1727 H1720 0.950 . S
C1727 C1724 1.387 . S
C769 C21 1.164 . S
C774 C274 1.173 . S
C779 C49 1.591 . S
C784 C310 1.863 1_655 S
C789 C342 1.410 . S
C794 C85 1.354 . S
C799 C370 1.179 1_545 S
C804 C117 1.161 . S
C809 C149 1.177 . S
C814 C374 1.235 . S
C819 C181 1.314 . S
C824 C278 1.350 . S
C829 C209 1.422 . S
C834 C306 1.651 . S
C839 C338 1.229 1_545 S
C844 C245 1.221 . S
C849 C402 1.239 . S
C854 C277 1.244 . S
C859 C305 1.655 . S
C864 C534 1.943 . S
C869 C337 1.731 . S
C874 C470 1.992 . S
C879 C502 1.413 1_554 S
C884 C373 1.360 . S
C889 C369 1.783 . S
C894 C630 2.060 . S
C899 C566 1.820 . S
C904 C273 1.572 . S
C909 C309 1.195 . S
C914 C598 1.235 . S
C919 C434 1.390 1_455 S
C924 C341 1.380 . S
C929 C405 1.396 . S
C934 C18 1.397 . S
C939 C241 1.577 . S
C944 C562 1.801 . S
C949 C594 1.765 1_554 S
C954 C145 1.501 . S
C959 C438 2.140 . S
C964 C177 1.868 . S
C969 C242 1.304 1_554 S
C974 C437 1.301 . S
C979 C82 1.767 . S
C984 C465 1.514 . S
C989 C466 1.777 . S
C994 C17 1.537 . S
C999 C406 2.152 . S
C1004 C81 1.857 . S
C1009 C501 1.157 . S
C1014 C658 1.155 . S
C1019 C401 1.583 . S
C1024 C694 1.857 . S
C1029 C726 1.408 . S
C1034 C533 1.367 . S
C1039 C469 1.168 . S
C1044 C758 1.220 1_455 S
C1049 C754 1.188 . S
C1054 C565 1.166 . S
C1059 C662 1.347 1_455 S
C1064 C597 1.296 . S
C1069 C433 1.435 . S
C1074 C690 1.661 . S
C1079 C722 1.244 . S
C1084 C629 1.229 . S
C1089 C50 1.256 . S
C1094 C661 1.251 . S
C1099 C689 1.645 . S
C1104 C86 1.922 1_554 S
C1109 C118 1.868 . S
C1114 C721 1.618 . S
C1119 C22 2.085 . S
C1124 C753 1.795 . S
C1129 C757 1.357 . S
C1134 C246 1.400 . S
C1139 C657 1.685 . S
C1144 C150 1.946 1_556 S
C1149 C693 1.196 . S
C1154 C182 1.247 . S
C1159 C725 1.376 . S
C1164 C210 1.376 . S
C1169 C53 1.361 . S
C1174 C498 1.354 . S
C1179 C146 1.775 . S
C1184 C625 1.530 . S
C1189 C561 1.566 . S
C1194 C178 1.828 . S
C1199 C214 2.161 . S
C1204 C593 1.886 . S
C1209 C213 1.345 . S
C1214 C626 1.349 . S
C1219 C113 1.574 . S
C1224 C530 1.830 . S
C1229 C497 1.587 . S
C1234 C114 1.806 1_556 S
C1239 C529 1.840 . S
C1244 C54 2.129 1_545 S
C1249 C16 1.890 . S
C1254 C311 1.843 . S
C1259 C343 2.136 . S
C1264 C55 2.133 . S
C1269 C368 1.640 . S
C1274 C80 1.637 . S
C1279 C272 1.652 . S
C1284 C112 1.646 . S
C1289 C336 1.682 . S
C1294 C144 1.681 . S
C1299 C375 1.808 . S
C1304 C176 1.845 . S
C1309 C279 2.031 . S
C1314 C215 2.026 . S
C1319 C240 1.639 . S
C1324 C304 1.643 . S
C1329 C151 1.791 . S
C1334 C400 1.838 . S
C1339 C247 2.125 . S
C1344 C503 2.123 . S
C1349 C535 2.069 . S
C1354 C183 2.068 . S
C1359 C432 1.969 . S
C1364 C119 1.917 . S
C1369 C208 1.909 . S
C1374 C471 1.860 . S
C1379 C23 2.113 . S
C1384 C631 2.115 . S
C1389 C599 1.975 . S
C1394 C87 1.975 . S
C1399 C695 1.801 . S
C1404 C496 1.849 . S
C1409 C727 2.026 . S
C1414 C407 2.022 . S
C1419 C528 1.871 . S
C1424 C759 1.838 . S
C1429 C656 1.644 . S
C1434 C464 1.644 . S
C1439 C720 1.691 . S
C1444 C560 1.682 . S
C1449 C752 1.610 . S
C1454 C592 1.607 . S
C1459 C439 2.138 . S
C1464 C663 2.142 . S
C1469 C688 1.686 . S
C1474 C624 1.684 . S
C1479 C48 1.900 . S
C1484 C567 1.849 . S
C1489 C148 1.608 . S
C1494 C20 1.607 . S
C1499 C180 1.930 . S
C1504 C51 1.829 . S
C1509 C211 1.733 . S
C1514 C84 1.837 . S
C1519 C244 1.600 . S
C1524 C116 1.599 . S
C1529 C308 1.703 . S
C1534 C276 1.705 . S
C1539 C340 1.945 . S
C1544 C307 1.848 . S
C1549 C339 2.143 . S
C1554 C371 2.163 . S
C1559 C275 1.849 . S
C1564 C372 1.949 . S
C1569 C404 1.933 . S
C1574 C115 1.830 . S
C1579 C243 2.140 . S
C1584 C595 2.152 . S
C1589 C436 1.887 . S
C1594 C147 1.801 . S
C1599 C179 2.114 . S
C1604 C627 2.091 . S
C1609 C52 1.975 . S
C1614 C467 1.876 . S
C1619 C19 2.017 . S
C1624 C531 2.026 . S
C1629 C83 2.067 . S
C1634 C499 2.069 . S
C1639 C564 1.654 . S
C1644 C500 1.655 . S
C1649 C403 1.723 . S
C1654 C596 1.825 . S
C1659 C435 1.839 . S
C1664 C532 1.943 . S
C1669 C468 1.550 . S
C1674 C628 1.550 . S
C1679 C692 1.722 . S
C1684 C660 1.722 . S
C1689 C724 1.929 . S
C1694 C691 1.830 . S
C1699 C756 1.970 . S
C1704 C723 1.862 . S
C1709 C755 2.142 . S
C1714 C659 2.132 . S
C1719 C212 1.843 . S
C1724 C563 1.751 . S
