# Generated by pormake.
# Topology can, (4)-cn, num edge types: 1
# Building blocks:
#     Node 0, Type 0, BuildingBlock: AZAVOO_clean_sbu_0, # of connection points: 4
#     Node 1, Type 0, BuildingBlock: AZAVOO_clean_sbu_0, # of connection points: 4
#     Node 2, Type 0, BuildingBlock: AZAVOO_clean_sbu_0, # of connection points: 4
#     Node 3, Type 0, BuildingBlock: AZAVOO_clean_sbu_0, # of connection points: 4
#     Node 4, Type 0, BuildingBlock: AZAVOO_clean_sbu_0, # of connection points: 4
#     Node 5, Type 0, BuildingBlock: AZAVOO_clean_sbu_0, # of connection points: 4
#     Node 6, Type 0, BuildingBlock: AZAVOO_clean_sbu_0, # of connection points: 4
#     Node 7, Type 0, BuildingBlock: AZAVOO_clean_sbu_0, # of connection points: 4
#     Node 8, Type 0, BuildingBlock: AZAVOO_clean_sbu_0, # of connection points: 4
#     Node 9, Type 0, BuildingBlock: AZAVOO_clean_sbu_0, # of connection points: 4
#     Node 10, Type 0, BuildingBlock: AZAVOO_clean_sbu_0, # of connection points: 4
#     Node 11, Type 0, BuildingBlock: AZAVOO_clean_sbu_0, # of connection points: 4
#     Edge 12, Type (0, 0), BuildingBlock: CIFDUS_clean_linker_0, # of connection points: 2
#     Edge 13, Type (0, 0), BuildingBlock: CIFDUS_clean_linker_0, # of connection points: 2
#     Edge 14, Type (0, 0), BuildingBlock: CIFDUS_clean_linker_0, # of connection points: 2
#     Edge 15, Type (0, 0), BuildingBlock: CIFDUS_clean_linker_0, # of connection points: 2
#     Edge 16, Type (0, 0), BuildingBlock: CIFDUS_clean_linker_0, # of connection points: 2
#     Edge 17, Type (0, 0), BuildingBlock: CIFDUS_clean_linker_0, # of connection points: 2
#     Edge 18, Type (0, 0), BuildingBlock: CIFDUS_clean_linker_0, # of connection points: 2
#     Edge 19, Type (0, 0), BuildingBlock: CIFDUS_clean_linker_0, # of connection points: 2
#     Edge 20, Type (0, 0), BuildingBlock: CIFDUS_clean_linker_0, # of connection points: 2
#     Edge 21, Type (0, 0), BuildingBlock: CIFDUS_clean_linker_0, # of connection points: 2
#     Edge 22, Type (0, 0), BuildingBlock: CIFDUS_clean_linker_0, # of connection points: 2
#     Edge 23, Type (0, 0), BuildingBlock: CIFDUS_clean_linker_0, # of connection points: 2
#     Edge 24, Type (0, 0), BuildingBlock: CIFDUS_clean_linker_0, # of connection points: 2
#     Edge 25, Type (0, 0), BuildingBlock: CIFDUS_clean_linker_0, # of connection points: 2
#     Edge 26, Type (0, 0), BuildingBlock: CIFDUS_clean_linker_0, # of connection points: 2
#     Edge 27, Type (0, 0), BuildingBlock: CIFDUS_clean_linker_0, # of connection points: 2
#     Edge 28, Type (0, 0), BuildingBlock: CIFDUS_clean_linker_0, # of connection points: 2
#     Edge 29, Type (0, 0), BuildingBlock: CIFDUS_clean_linker_0, # of connection points: 2
#     Edge 30, Type (0, 0), BuildingBlock: CIFDUS_clean_linker_0, # of connection points: 2
#     Edge 31, Type (0, 0), BuildingBlock: CIFDUS_clean_linker_0, # of connection points: 2
#     Edge 32, Type (0, 0), BuildingBlock: CIFDUS_clean_linker_0, # of connection points: 2
#     Edge 33, Type (0, 0), BuildingBlock: CIFDUS_clean_linker_0, # of connection points: 2
#     Edge 34, Type (0, 0), BuildingBlock: CIFDUS_clean_linker_0, # of connection points: 2
#     Edge 35, Type (0, 0), BuildingBlock: CIFDUS_clean_linker_0, # of connection points: 2
# Relax obj value: 0.086
# Max RMSD: 0.099
# Mean RMSD: 0.099
data_MOF--net-can--node1-AZAVOO_clean_sbu_0--edge1-CIFDUS_clean_linker_0
_symmetry_space_group_name_H-M    P1
_symmetry_Int_Tables_number       1
_symmetry_cell_setting            triclinic
loop_
_symmetry_equiv_pos_as_xyz
'x, y, z'
_cell_length_a     51.361828
_cell_length_b     51.419714
_cell_length_c     23.441875
_cell_angle_alpha  89.897366
_cell_angle_beta   90.2032
_cell_angle_gamma 120.02037
loop_
_atom_site_label
_atom_site_type_symbol
_atom_site_fract_x
_atom_site_fract_y
_atom_site_fract_z
_atom_type_partial_charge
Mg0 Mg 0.06112 0.38667 0.2806 0.0
O1 O 0.05786 0.42934 0.27886 0.0
O2 O 0.07661 0.45427 0.36044 0.0
Mg3 Mg 0.09134 0.42742 0.41607 0.0
C4 C 0.06472 0.45174 0.31138 0.0
C5 C 0.0232 0.37438 0.16938 0.0
O6 O 0.00442 0.3736 0.20817 0.0
O7 O 0.11188 0.41493 0.2655 0.0
O8 O 0.12787 0.43532 0.35215 0.0
O9 O 0.01695 0.36117 0.32662 0.0
O10 O 0.06101 0.38643 0.36922 0.0
C11 C 0.133 0.43069 0.30098 0.0
C12 C 0.03236 0.37049 0.37344 0.0
O13 O 0.04922 0.37981 0.18509 0.0
Mg14 Mg 0.64056 0.06859 0.77204 0.0
O15 O 0.59649 0.06975 0.77222 0.0
O16 O 0.59583 0.09264 0.85296 0.0
Mg17 Mg 0.63831 0.10578 0.90479 0.0
C18 C 0.58385 0.07958 0.8059 0.0
C19 C 0.61083 0.02915 0.66421 0.0
O20 O 0.58985 0.01456 0.70253 0.0
O21 O 0.66677 0.11858 0.75063 0.0
O22 O 0.66771 0.13872 0.8358 0.0
O23 O 0.61983 0.02542 0.82072 0.0
O24 O 0.64171 0.07036 0.86051 0.0
C25 C 0.67573 0.14129 0.78364 0.0
C26 C 0.62717 0.04171 0.86641 0.0
O27 O 0.63417 0.05362 0.67849 0.0
Mg28 Mg 0.60873 0.6636 0.23847 0.0
O29 O 0.55992 0.62592 0.23215 0.0
O30 O 0.53626 0.6222 0.3141 0.0
Mg31 Mg 0.57065 0.65833 0.37399 0.0
C32 C 0.53639 0.61367 0.26305 0.0
C33 C 0.60798 0.633 0.12761 0.0
O34 O 0.59535 0.61096 0.16468 0.0
O35 O 0.59269 0.69734 0.22864 0.0
O36 O 0.57315 0.69522 0.31515 0.0
O37 O 0.6231 0.63308 0.27544 0.0
O38 O 0.60764 0.65891 0.32633 0.0
C39 C 0.58063 0.70651 0.26518 0.0
C40 C 0.61672 0.63971 0.3247 0.0
O41 O 0.61511 0.65943 0.14339 0.0
Mg42 Mg 0.92194 0.58823 0.79331 0.0
O43 O 0.91892 0.5423 0.79827 0.0
O44 O 0.90126 0.52296 0.88447 0.0
Mg45 Mg 0.89305 0.55617 0.93465 0.0
C46 C 0.91081 0.52136 0.83514 0.0
C47 C 0.95006 0.61783 0.68253 0.0
O48 O 0.95811 0.63972 0.71958 0.0
O49 O 0.87115 0.56523 0.78276 0.0
O50 O 0.8559 0.54983 0.87219 0.0
O51 O 0.96783 0.61059 0.83066 0.0
O52 O 0.92604 0.5927 0.88108 0.0
C53 C 0.85042 0.55315 0.8203 0.0
C54 C 0.95488 0.60529 0.87996 0.0
O55 O 0.93184 0.5911 0.69841 0.0
Mg56 Mg 0.3307 0.907 0.25295 0.0
O57 O 0.37313 0.90298 0.26125 0.0
O58 O 0.37133 0.88233 0.34639 0.0
Mg59 Mg 0.32846 0.87261 0.39271 0.0
C60 C 0.38439 0.89348 0.29903 0.0
C61 C 0.34196 0.94364 0.14197 0.0
O62 O 0.33874 0.96039 0.18038 0.0
O63 O 0.30179 0.85644 0.23636 0.0
O64 O 0.29936 0.83896 0.32479 0.0
O65 O 0.35335 0.95158 0.29789 0.0
O66 O 0.32808 0.90782 0.34141 0.0
C67 C 0.2916 0.83482 0.27234 0.0
C68 C 0.34439 0.93646 0.34492 0.0
O69 O 0.33978 0.9189 0.15775 0.0
Mg70 Mg 0.3884 0.32894 0.71791 0.0
O71 O 0.43677 0.36793 0.71629 0.0
O72 O 0.4597 0.36803 0.79752 0.0
Mg73 Mg 0.42604 0.32867 0.85194 0.0
C74 C 0.45985 0.37912 0.74871 0.0
C75 C 0.36486 0.34416 0.60696 0.0
O76 O 0.34743 0.34616 0.64548 0.0
O77 O 0.40497 0.29592 0.7009 0.0
O78 O 0.4241 0.29498 0.78646 0.0
O79 O 0.3733 0.35714 0.76463 0.0
O80 O 0.38874 0.32883 0.8066 0.0
C81 C 0.4169 0.28548 0.73531 0.0
C82 C 0.37952 0.34774 0.81121 0.0
O83 O 0.384 0.33676 0.62283 0.0
Mg84 Mg 0.60824 0.93254 0.25096 0.0
O85 O 0.55937 0.92052 0.2362 0.0
O86 O 0.54469 0.9005 0.14927 0.0
Mg87 Mg 0.58315 0.89656 0.10997 0.0
C88 C 0.53968 0.90946 0.19653 0.0
C89 C 0.6286 0.96974 0.35933 0.0
O90 O 0.65111 0.98342 0.32352 0.0
O91 O 0.59244 0.88298 0.27012 0.0
O92 O 0.57984 0.86507 0.18123 0.0
O93 O 0.62378 0.97579 0.20356 0.0
O94 O 0.61511 0.93335 0.16362 0.0
C95 C 0.58301 0.86137 0.23414 0.0
C96 C 0.62188 0.9608 0.15792 0.0
O97 O 0.60567 0.94529 0.34361 0.0
Mg98 Mg 0.6755 0.5943 0.72032 0.0
O99 O 0.63239 0.54859 0.72364 0.0
O100 O 0.62688 0.52573 0.63978 0.0
Mg101 Mg 0.66655 0.55657 0.58307 0.0
C102 C 0.61788 0.5263 0.6902 0.0
C103 C 0.67971 0.62686 0.83024 0.0
O104 O 0.69252 0.64851 0.7924 0.0
O105 O 0.70313 0.57116 0.73049 0.0
O106 O 0.6993 0.55194 0.64311 0.0
O107 O 0.65042 0.61514 0.684 0.0
O108 O 0.67209 0.59529 0.63237 0.0
C109 C 0.70997 0.55721 0.69377 0.0
C110 C 0.65556 0.60756 0.63449 0.0
O111 O 0.67167 0.60013 0.81514 0.0
Mg112 Mg 0.05909 0.66392 0.27704 0.0
O113 O 0.05724 0.61867 0.27872 0.0
O114 O 0.07272 0.61125 0.19454 0.0
Mg115 Mg 0.0844 0.65199 0.13834 0.0
C116 C 0.06305 0.60277 0.24513 0.0
C117 C 0.04659 0.67954 0.39773 0.0
O118 O 0.0524 0.70416 0.37024 0.0
O119 O 0.11011 0.6875 0.28608 0.0
O120 O 0.1234 0.68205 0.19781 0.0
O121 O 0.01299 0.64285 0.24056 0.0
O122 O 0.05457 0.6618 0.18921 0.0
C123 C 0.1301 0.69254 0.24845 0.0
C124 C 0.02567 0.64765 0.19104 0.0
O125 O 0.04991 0.65964 0.37218 0.0
Mg126 Mg 0.36726 0.05257 0.72146 0.0
O127 O 0.41443 0.0592 0.7124 0.0
O128 O 0.43269 0.07793 0.62617 0.0
Mg129 Mg 0.39769 0.08562 0.58045 0.0
C130 C 0.43515 0.06833 0.67499 0.0
C131 C 0.36724 0.01808 0.83184 0.0
O132 O 0.36831 0.00058 0.79227 0.0
O133 O 0.38793 0.10314 0.73611 0.0
O134 O 0.40359 0.12017 0.64754 0.0
O135 O 0.34818 0.00809 0.67657 0.0
O136 O 0.36234 0.05137 0.63361 0.0
C137 C 0.39999 0.12459 0.6998 0.0
C138 C 0.35263 0.02315 0.62977 0.0
O139 O 0.36733 0.04193 0.81672 0.0
Mg140 Mg 0.31597 0.40991 0.18649 0.0
O141 O 0.35963 0.45409 0.20006 0.0
O142 O 0.36734 0.48337 0.1241 0.0
Mg143 Mg 0.32893 0.45774 0.06045 0.0
C144 C 0.37517 0.47864 0.17303 0.0
C145 C 0.33686 0.39217 0.29762 0.0
O146 O 0.35649 0.39324 0.26055 0.0
O147 O 0.2889 0.43307 0.20352 0.0
O148 O 0.29418 0.45767 0.1214 0.0
O149 O 0.34012 0.39038 0.13983 0.0
O150 O 0.32049 0.41516 0.09832 0.0
C151 C 0.28244 0.44895 0.17068 0.0
C152 C 0.33551 0.40147 0.09379 0.0
O153 O 0.31686 0.3982 0.28081 0.0
Mg154 Mg 0.90606 0.31451 0.75014 0.0
O155 O 0.90795 0.35974 0.74173 0.0
O156 O 0.88805 0.36144 0.65787 0.0
Mg157 Mg 0.87284 0.31702 0.61181 0.0
C158 C 0.90045 0.37334 0.70538 0.0
C159 C 0.94595 0.332 0.86017 0.0
O160 O 0.96492 0.33319 0.8214 0.0
O161 O 0.85564 0.29181 0.76811 0.0
O162 O 0.8378 0.29178 0.68072 0.0
O163 O 0.94955 0.33218 0.7029 0.0
O164 O 0.90496 0.31001 0.66163 0.0
C165 C 0.83375 0.28457 0.73345 0.0
C166 C 0.93364 0.32359 0.65658 0.0
O167 O 0.9193 0.32462 0.84486 0.0
H168 H 0.96838 0.35912 0.1245 0.0
H169 H 0.05645 0.37523 0.07756 0.0
H170 H 0.0403 0.36369 0.97814 0.0
H171 H 0.00111 0.34853 0.90473 0.0
H172 H 0.91295 0.33215 0.95165 0.0
H173 H 0.92926 0.34427 0.05091 0.0
C174 C 0.98412 0.36019 0.09258 0.0
C175 C 0.01363 0.36804 0.10868 0.0
C176 C 0.97464 0.3534 0.03546 0.0
C177 C 0.03362 0.36925 0.06655 0.0
C178 C 0.02439 0.36263 0.00962 0.0
C179 C 0.98541 0.34759 0.93658 0.0
C180 C 0.95578 0.33937 0.92057 0.0
C181 C -0.00507 0.35458 0.99363 0.0
C182 C 0.93584 0.33835 0.96262 0.0
C183 C 0.94517 0.3453 0.01945 0.0
H184 H 0.5838 0.95217 0.43861 0.0
H185 H 0.67606 0.01948 0.40539 0.0
H186 H 0.67828 0.04444 0.49492 0.0
H187 H 0.65441 0.04724 0.5832 0.0
H188 H 0.56239 0.97992 0.61778 0.0
H189 H 0.55969 0.95522 0.52726 0.0
C190 C 0.60442 0.97222 0.45108 0.0
C191 C 0.62972 0.98382 0.4152 0.0
C192 C 0.60558 0.98667 0.50282 0.0
C193 C 0.6562 0.00996 0.43202 0.0
C194 C 0.65752 0.02435 0.48327 0.0
C195 C 0.63367 0.02731 0.5708 0.0
C196 C 0.60865 0.01554 0.60733 0.0
C197 C 0.63236 0.01297 0.51897 0.0
C198 C 0.58203 0.98953 0.59058 0.0
C199 C 0.58047 0.9753 0.53881 0.0
H200 H 0.64777 0.67412 0.0525 0.0
H201 H 0.58909 0.57887 0.07723 0.0
H202 H 0.60724 0.56848 0.98907 0.0
H203 H 0.64007 0.58624 0.9055 0.0
H204 H 0.69864 0.68141 0.87987 0.0
H205 H 0.68057 0.69195 0.96821 0.0
C206 C 0.63873 0.65112 0.03826 0.0
C207 C 0.61707 0.62733 0.07134 0.0
C208 C 0.64955 0.64523 0.98778 0.0
C209 C 0.6058 0.59762 0.05258 0.0
C210 C 0.61624 0.59162 0.00227 0.0
C211 C 0.64912 0.60928 0.91951 0.0
C212 C 0.67077 0.63298 0.88628 0.0
C213 C 0.6383 0.61522 0.96982 0.0
C214 C 0.682 0.66273 0.90474 0.0
C215 C 0.67158 0.6688 0.95513 0.0
H216 H 0.01116 0.62481 0.44549 0.0
H217 H 0.04822 0.71968 0.47545 0.0
H218 H 0.02093 0.70881 0.56565 0.0
H219 H 0.98623 0.67243 0.63518 0.0
H220 H 0.94756 0.57746 0.60357 0.0
H221 H 0.97548 0.58833 0.51416 0.0
C222 C 0.01353 0.64312 0.47208 0.0
C223 C 0.03193 0.67304 0.45417 0.0
C224 C -0.00281 0.63668 0.52309 0.0
C225 C 0.03431 0.69649 0.4885 0.0
C226 C 0.01863 0.69028 0.53992 0.0
C227 C 0.98378 0.65406 0.60866 0.0
C228 C 0.96486 0.62417 0.62611 0.0
C229 C -0.00013 0.66047 0.55741 0.0
C230 C 0.96186 0.60067 0.59106 0.0
C231 C 0.97796 0.60687 0.54009 0.0
H232 H 0.3633 0.96724 0.87658 0.0
H233 H 0.36416 0.04871 0.92452 0.0
H234 H 0.3569 0.03299 0.0243 0.0
H235 H 0.3491 -0.00429 0.09763 0.0
H236 H 0.34791 0.91405 0.05013 0.0
H237 H 0.35651 0.93031 0.95048 0.0
C238 C 0.36203 0.98166 0.90882 0.0
C239 C 0.36422 0.00913 0.89284 0.0
C240 C 0.35768 0.9724 0.96622 0.0
C241 C 0.36252 0.02746 0.9354 0.0
C242 C 0.35833 0.01846 0.99255 0.0
C243 C 0.35075 0.98142 0.06559 0.0
C244 C 0.34774 0.9536 0.0815 0.0
C245 C 0.35566 0.9909 0.00838 0.0
C246 C 0.35007 0.93552 0.03922 0.0
C247 C 0.35499 0.94482 0.98217 0.0
H248 H 0.37454 0.37494 0.34391 0.0
H249 H 0.30166 0.39031 0.38684 0.0
H250 H 0.30367 0.37643 0.48584 0.0
H251 H 0.32633 0.3603 0.56037 0.0
H252 H 0.39909 0.34478 0.51717 0.0
H253 H 0.39679 0.35827 0.41809 0.0
C254 C 0.35907 0.37529 0.37485 0.0
C255 C 0.33801 0.38374 0.35782 0.0
C256 C 0.36029 0.3672 0.4317 0.0
C257 C 0.31811 0.38393 0.39863 0.0
C258 C 0.31924 0.37599 0.45532 0.0
C259 C 0.34167 0.35979 0.52933 0.0
C260 C 0.36288 0.35153 0.54639 0.0
C261 C 0.34026 0.36762 0.47235 0.0
C262 C 0.38252 0.351 0.50539 0.0
C263 C 0.38125 0.35876 0.44866 0.0
H264 H 0.93342 0.59602 0.98805 0.0
H265 H 0.01583 0.63329 0.89145 0.0
H266 H 0.04496 0.6496 0.97979 0.0
H267 H 0.04677 0.65499 0.08312 0.0
H268 H 0.96449 0.61547 0.18039 0.0
H269 H 0.93525 0.59826 0.09214 0.0
C270 C 0.9577 0.60721 0.98615 0.0
C271 C 0.97242 0.61328 0.93325 0.0
C272 C 0.97422 0.61626 0.03694 0.0
C273 C 0.00396 0.62828 0.93168 0.0
C274 C 0.02062 0.63766 0.9821 0.0
C275 C 0.02249 0.64211 0.08538 0.0
C276 C 0.00785 0.63628 0.13831 0.0
C277 C 0.00594 0.63197 0.03482 0.0
C278 C 0.9763 0.62019 0.14013 0.0
C279 C 0.95959 0.61034 0.08977 0.0
H280 H 0.34565 0.98794 0.37113 0.0
H281 H 0.35757 0.91762 0.44408 0.0
H282 H 0.35979 0.9373 0.53968 0.0
H283 H 0.35635 0.97361 0.60307 0.0
H284 H 0.34461 0.04402 0.52932 0.0
H285 H 0.34413 0.02521 0.43383 0.0
C286 C 0.34925 0.9773 0.40797 0.0
C287 C 0.351 0.95119 0.4009 0.0
C288 C 0.3501 0.98852 0.46279 0.0
C289 C 0.35541 0.93735 0.44874 0.0
C290 C 0.35677 0.94864 0.50341 0.0
C291 C 0.35343 0.98459 0.56605 0.0
C292 C 0.35035 0.00998 0.57308 0.0
C293 C 0.3535 0.97385 0.51107 0.0
C294 C 0.34703 0.02438 0.52484 0.0
C295 C 0.34685 0.01373 0.47021 0.0
H296 H 0.36119 0.38773 0.8364 0.0
H297 H 0.38986 0.33003 0.91439 0.0
H298 H 0.38209 0.34431 0.00855 0.0
H299 H 0.36349 0.37004 0.06919 0.0
H300 H 0.33052 0.42421 0.99141 0.0
H301 H 0.3438 0.41467 0.89751 0.0
C302 C 0.36603 0.37854 0.87401 0.0
C303 C 0.37646 0.35815 0.8681 0.0
C304 C 0.36061 0.38613 0.92843 0.0
C305 C 0.38237 0.34623 0.91735 0.0
C306 C 0.3777 0.35419 0.97149 0.0
C307 C 0.35957 0.38008 0.03179 0.0
C308 C 0.34625 0.39799 0.03758 0.0
C309 C 0.36637 0.37373 0.97754 0.0
C310 C 0.34108 0.41062 0.98854 0.0
C311 C 0.34848 0.40501 0.93455 0.0
H312 H -0.00686 0.35466 0.63129 0.0
H313 H 0.90522 0.30643 0.55337 0.0
H314 H 0.92771 0.31777 0.459 0.0
H315 H 0.97252 0.34086 0.39803 0.0
H316 H 0.0604 0.3853 0.47684 0.0
H317 H 0.0378 0.37602 0.57075 0.0
C318 C 0.9789 0.34671 0.59368 0.0
C319 C 0.94755 0.33031 0.59952 0.0
C320 C -0.00801 0.35267 0.53937 0.0
C321 C 0.92942 0.3198 0.55029 0.0
C322 C 0.94226 0.32606 0.49611 0.0
C323 C 0.98669 0.34859 0.43575 0.0
C324 C 0.01808 0.36438 0.43014 0.0
C325 C 0.97354 0.34249 0.4901 0.0
C326 C 0.03615 0.37385 0.47955 0.0
C327 C 0.02326 0.36833 0.53355 0.0
H328 H 0.62747 0.99157 0.8971 0.0
H329 H 0.61436 0.06223 0.96372 0.0
H330 H 0.61236 0.04402 0.06075 0.0
H331 H 0.61631 0.00891 0.12707 0.0
H332 H 0.63093 0.93923 0.05938 0.0
H333 H 0.63052 0.95619 0.96262 0.0
C334 C 0.62367 0.00263 0.93285 0.0
C335 C 0.62129 0.02826 0.92355 0.0
C336 C 0.62321 0.99243 0.98844 0.0
C337 C 0.61676 0.04271 0.97005 0.0
C338 C 0.61559 0.0323 0.02553 0.0
C339 C 0.6196 -0.00236 0.0911 0.0
C340 C 0.62356 0.97287 0.10027 0.0
C341 C 0.61937 0.0075 0.03534 0.0
C342 C 0.62759 0.95826 0.05335 0.0
C343 C 0.62734 0.96788 -0.00204 0.0
H344 H 0.60386 0.64845 0.43267 0.0
H345 H 0.64019 0.60273 0.33535 0.0
H346 H 0.65409 0.58739 0.4235 0.0
H347 H 0.65999 0.5911 0.52677 0.0
H348 H 0.6225 0.63553 0.62464 0.0
H349 H 0.6049 0.64741 0.53682 0.0
C350 C 0.61426 0.63465 0.43056 0.0
C351 C 0.62113 0.62689 0.37754 0.0
C352 C 0.62225 0.62601 0.48126 0.0
C353 C 0.63474 0.60907 0.37569 0.0
C354 C 0.6428 0.60039 0.42602 0.0
C355 C 0.64746 0.60281 0.52928 0.0
C356 C 0.64261 0.61242 0.5822 0.0
C357 C 0.63727 0.60934 0.4789 0.0
C358 C 0.6266 0.62794 0.58435 0.0
C359 C 0.61654 0.63475 0.53422 0.0
H360 H 0.05802 0.55592 0.18278 0.0
H361 H 0.0613 0.58584 0.356 0.0
H362 H 0.06067 0.54097 0.39189 0.0
H363 H 0.06227 0.49483 0.37401 0.0
H364 H 0.0576 0.46411 0.20099 0.0
H365 H 0.05544 0.5076 0.1652 0.0
C366 C 0.05845 0.55255 0.22838 0.0
C367 C 0.06004 0.57435 0.26659 0.0
C368 C 0.05791 0.52661 0.2488 0.0
C369 C 0.06011 0.56943 0.32561 0.0
C370 C 0.05986 0.54383 0.34622 0.0
C371 C 0.06061 0.49756 0.32848 0.0
C372 C 0.06045 0.47645 0.29024 0.0
C373 C 0.05924 0.52252 0.30818 0.0
C374 C 0.05782 0.48006 0.2314 0.0
C375 C 0.0567 0.50498 0.21085 0.0
H376 H 0.45673 0.06872 0.78065 0.0
H377 H 0.47694 0.06902 0.60202 0.0
H378 H 0.52418 0.07094 0.62678 0.0
H379 H 0.56041 0.07405 0.69942 0.0
H380 H 0.54112 0.07689 0.87764 0.0
H381 H 0.49277 0.07211 0.85274 0.0
C382 C 0.47135 0.069 0.74709 0.0
C383 C 0.46332 0.06866 0.68961 0.0
C384 C 0.49868 0.07076 0.76157 0.0
C385 C 0.48269 0.06938 0.64663 0.0
C386 C 0.50967 0.07044 0.66074 0.0
C387 C 0.54551 0.07343 0.73274 0.0
C388 C 0.5543 0.07582 0.79024 0.0
C389 C 0.51799 0.07135 0.71808 0.0
C390 C 0.53493 0.07529 0.83302 0.0
C391 C 0.50726 0.0725 0.81886 0.0
H392 H 0.487 0.5709 0.31882 0.0
H393 H 0.52258 0.6024 0.15026 0.0
H394 H 0.47559 0.56393 0.10772 0.0
H395 H 0.42427 0.52162 0.11816 0.0
H396 H 0.38951 0.48802 0.28612 0.0
H397 H 0.43627 0.52705 0.32912 0.0
C398 C 0.48443 0.56934 0.2728 0.0
C399 C 0.50818 0.58959 0.23783 0.0
C400 C 0.4575 0.54685 0.2485 0.0
C401 C 0.50467 0.58705 0.17821 0.0
C402 C 0.47777 0.56512 0.15379 0.0
C403 C 0.42689 0.52295 0.16418 0.0
C404 C 0.40342 0.50219 0.19894 0.0
C405 C 0.45401 0.54499 0.1885 0.0
C406 C 0.4073 0.5038 0.25847 0.0
C407 C 0.43399 0.52611 0.28308 0.0
H408 H 0.91077 0.50035 0.72882 0.0
H409 H 0.91247 0.48061 0.90742 0.0
H410 H 0.91143 0.434 0.88272 0.0
H411 H 0.9077 0.3978 0.81077 0.0
H412 H 0.90302 0.41601 0.63234 0.0
H413 H 0.90771 0.46436 0.65665 0.0
C414 C 0.91118 0.48598 0.76232 0.0
C415 C 0.91167 0.49392 0.81985 0.0
C416 C 0.90993 0.45889 0.74788 0.0
C417 C 0.9119 0.47492 0.86278 0.0
C418 C 0.91135 0.44828 0.84873 0.0
C419 C 0.908 0.41246 0.77714 0.0
C420 C 0.90502 0.40332 0.71985 0.0
C421 C 0.91002 0.43989 0.79146 0.0
C422 C 0.90513 0.42246 0.67682 0.0
C423 C 0.90783 0.45011 0.69067 0.0
H424 H 0.41142 0.89802 0.19686 0.0
H425 H 0.42397 0.89528 0.37852 0.0
H426 H 0.47336 0.90075 0.3628 0.0
H427 H 0.51296 0.9062 0.29777 0.0
H428 H 0.49971 0.90635 0.11592 0.0
H429 H 0.45064 0.90201 0.13142 0.0
C430 C 0.42501 0.89867 0.23295 0.0
C431 C 0.41406 0.8963 0.28873 0.0
C432 C 0.45324 0.90134 0.22362 0.0
C433 C 0.43179 0.89688 0.3351 0.0
C434 C 0.46009 0.90011 0.32621 0.0
C435 C 0.49938 0.9054 0.26153 0.0
C436 C 0.50999 0.90674 0.20584 0.0
C437 C 0.47103 0.90236 0.2707 0.0
C438 C 0.49198 0.90527 0.15926 0.0
C439 C 0.46396 0.90285 0.16807 0.0
H440 H 0.57177 0.48504 0.62576 0.0
H441 H 0.60065 0.50927 0.80035 0.0
H442 H 0.55443 0.46559 0.8339 0.0
H443 H 0.50601 0.42032 0.81351 0.0
H444 H 0.47612 0.39763 0.639 0.0
H445 H 0.52257 0.44097 0.60554 0.0
C446 C 0.56798 0.48071 0.67115 0.0
C447 C 0.58968 0.50021 0.71049 0.0
C448 C 0.5412 0.45586 0.69014 0.0
C449 C 0.58427 0.49459 0.7692 0.0
C450 C 0.55789 0.46959 0.78841 0.0
C451 C 0.50971 0.42483 0.76816 0.0
C452 C 0.48776 0.40569 0.72879 0.0
C453 C 0.53624 0.45004 0.74925 0.0
C454 C 0.49266 0.41205 0.67019 0.0
C455 C 0.51923 0.43678 0.651 0.0
H456 H 0.15785 0.44214 0.19482 0.0
H457 H 0.17873 0.44172 0.37328 0.0
H458 H 0.22852 0.45062 0.34908 0.0
H459 H 0.2638 0.45239 0.27701 0.0
H460 H 0.24419 0.45497 0.09865 0.0
H461 H 0.19663 0.45194 0.12307 0.0
C462 C 0.17349 0.44443 0.2283 0.0
C463 C 0.16444 0.44078 0.28554 0.0
C464 C 0.20231 0.44982 0.21422 0.0
C465 C 0.18508 0.44432 0.32872 0.0
C466 C 0.21357 0.44929 0.31502 0.0
C467 C 0.24933 0.45284 0.24363 0.0
C468 C 0.25721 0.45343 0.18628 0.0
C469 C 0.22207 0.45116 0.25788 0.0
C470 C 0.23857 0.45448 0.14329 0.0
C471 C 0.21124 0.45252 0.15713 0.0
H472 H 0.78579 0.24973 0.66651 0.0
H473 H 0.81212 0.27232 0.84277 0.0
H474 H 0.76262 0.2323 0.87328 0.0
H475 H 0.71504 0.18728 0.84992 0.0
H476 H 0.69118 0.16143 0.67389 0.0
H477 H 0.73663 0.20689 0.64301 0.0
C478 C 0.78058 0.24635 0.71166 0.0
C479 C 0.80269 0.26385 0.75241 0.0
C480 C 0.75266 0.22261 0.72878 0.0
C481 C 0.79557 0.259 0.81064 0.0
C482 C 0.76732 0.23611 0.82805 0.0
C483 C 0.71938 0.19186 0.8047 0.0
C484 C 0.69984 0.17094 0.76416 0.0
C485 C 0.74612 0.21721 0.78748 0.0
C486 C 0.70597 0.17711 0.70584 0.0
C487 C 0.73197 0.20302 0.68825 0.0
H488 H 0.57866 0.74618 0.33861 0.0
H489 H 0.57441 0.72484 0.1595 0.0
H490 H 0.57163 0.76959 0.13532 0.0
H491 H 0.57393 0.8159 0.1643 0.0
H492 H 0.5822 0.84011 0.34257 0.0
H493 H 0.5795 0.79256 0.36806 0.0
C494 C 0.57676 0.75115 0.29432 0.0
C495 C 0.57678 0.73229 0.25079 0.0
C496 C 0.57601 0.77733 0.2807 0.0
C497 C 0.57463 0.73913 0.19363 0.0
C498 C 0.57301 0.76466 0.17984 0.0
C499 C 0.57484 0.81082 0.20895 0.0
C500 C 0.57837 0.83167 0.25152 0.0
C501 C 0.57421 0.78411 0.22296 0.0
C502 C 0.57958 0.82454 0.30898 0.0
C503 C 0.57811 0.79741 0.3235 0.0
H504 H 0.82599 0.54657 0.71437 0.0
H505 H 0.80579 0.54484 0.89349 0.0
H506 H 0.7588 0.54319 0.87004 0.0
H507 H 0.72656 0.54855 0.79907 0.0
H508 H 0.74606 0.5491 0.61997 0.0
H509 H 0.78992 0.54458 0.64312 0.0
C510 C 0.81109 0.54536 0.74822 0.0
C511 C 0.81968 0.5464 0.80547 0.0
C512 C 0.78406 0.54449 0.73456 0.0
C513 C 0.79986 0.54428 0.84893 0.0
C514 C 0.773 0.5435 0.83566 0.0
C515 C 0.74021 0.54728 0.76516 0.0
C516 C 0.7334 0.54968 0.70806 0.0
C517 C 0.76539 0.54462 0.77868 0.0
C518 C 0.75091 0.54744 0.66441 0.0
C519 C 0.7761 0.54499 0.67754 0.0
H520 H 0.25526 0.79001 0.34382 0.0
H521 H 0.27029 0.81293 0.16492 0.0
H522 H 0.22265 0.76777 0.14149 0.0
H523 H 0.17417 0.72602 0.17319 0.0
H524 H 0.15734 0.70694 0.35303 0.0
H525 H 0.2086 0.74662 0.37486 0.0
C526 C 0.24853 0.78497 0.29947 0.0
C527 C 0.26625 0.80503 0.25616 0.0
C528 C 0.22062 0.75991 0.2867 0.0
C529 C 0.25701 0.79799 0.19907 0.0
C530 C 0.22972 0.77227 0.18573 0.0
C531 C 0.18188 0.73017 0.21713 0.0
C532 C 0.16198 0.7137 0.26156 0.0
C533 C 0.21091 0.75371 0.2294 0.0
C534 C 0.17218 0.71949 0.31823 0.0
C535 C 0.20145 0.74214 0.33066 0.0
H536 H 0.41987 0.24541 0.80579 0.0
H537 H 0.41807 0.26575 0.62747 0.0
H538 H 0.41573 0.21859 0.60119 0.0
H539 H 0.40977 0.17019 0.62918 0.0
H540 H 0.4073 0.14796 0.80763 0.0
H541 H 0.41592 0.19773 0.83374 0.0
C542 C 0.41946 0.23981 0.76108 0.0
C543 C 0.41914 0.25904 0.71853 0.0
C544 C 0.41707 0.21232 0.74648 0.0
C545 C 0.41824 0.25127 0.66091 0.0
C546 C 0.41685 0.22432 0.64595 0.0
C547 C 0.41149 0.17627 0.67388 0.0
C548 C 0.40781 0.15535 0.71649 0.0
C549 C 0.41556 0.20444 0.68844 0.0
C550 C 0.40988 0.16359 0.77409 0.0
C551 C 0.41481 0.19201 0.78898 0.0
loop_
_geom_bond_atom_site_label_1
_geom_bond_atom_site_label_2
_geom_bond_distance
_geom_bond_site_symmetry_2
_ccdc_geom_bond_type
Mg0 O1 2.028 . S
Mg0 O7 1.986 . S
Mg0 O9 2.114 . S
Mg0 O10 2.251 . S
Mg0 O13 2.010 . S
O1 Mg0 2.028 . S
O1 C4 1.250 . S
O2 Mg3 2.028 . S
O2 C4 1.248 . S
Mg3 O2 2.028 . S
Mg3 O8 2.032 . S
Mg3 O10 2.079 . S
C4 O1 1.250 . S
C4 O2 1.248 . S
C5 O6 1.264 . S
C5 O13 1.249 . S
O6 C5 1.264 . S
O7 Mg0 1.986 . S
O7 C11 1.246 . S
O8 Mg3 2.032 . S
O8 C11 1.259 . S
O9 Mg0 2.114 . S
O9 C12 1.252 . S
O10 Mg0 2.251 . S
O10 Mg3 2.079 . S
O10 C12 1.273 . S
C11 O7 1.246 . S
C11 O8 1.259 . S
C12 O9 1.252 . S
C12 O10 1.273 . S
O13 Mg0 2.010 . S
O13 C5 1.249 . S
Mg14 O15 2.028 . S
Mg14 O21 1.986 . S
Mg14 O23 2.114 . S
Mg14 O24 2.251 . S
Mg14 O27 2.010 . S
O15 Mg14 2.028 . S
O15 C18 1.250 . S
O16 Mg17 2.028 . S
O16 C18 1.248 . S
Mg17 O16 2.028 . S
Mg17 O22 2.032 . S
Mg17 O24 2.079 . S
C18 O15 1.250 . S
C18 O16 1.248 . S
C19 O20 1.264 . S
C19 O27 1.249 . S
O20 C19 1.264 . S
O21 Mg14 1.986 . S
O21 C25 1.246 . S
O22 Mg17 2.032 . S
O22 C25 1.259 . S
O23 Mg14 2.114 . S
O23 C26 1.252 . S
O24 Mg14 2.251 . S
O24 Mg17 2.079 . S
O24 C26 1.273 . S
C25 O21 1.246 . S
C25 O22 1.259 . S
C26 O23 1.252 . S
C26 O24 1.273 . S
O27 Mg14 2.010 . S
O27 C19 1.249 . S
Mg28 O29 2.028 . S
Mg28 O35 1.986 . S
Mg28 O37 2.114 . S
Mg28 O38 2.251 . S
Mg28 O41 2.010 . S
O29 Mg28 2.028 . S
O29 C32 1.250 . S
O30 Mg31 2.028 . S
O30 C32 1.248 . S
Mg31 O30 2.028 . S
Mg31 O36 2.032 . S
Mg31 O38 2.079 . S
C32 O29 1.250 . S
C32 O30 1.248 . S
C33 O34 1.264 . S
C33 O41 1.249 . S
O34 C33 1.264 . S
O35 Mg28 1.986 . S
O35 C39 1.246 . S
O36 Mg31 2.032 . S
O36 C39 1.259 . S
O37 Mg28 2.114 . S
O37 C40 1.252 . S
O38 Mg28 2.251 . S
O38 Mg31 2.079 . S
O38 C40 1.273 . S
C39 O35 1.246 . S
C39 O36 1.259 . S
C40 O37 1.252 . S
C40 O38 1.273 . S
O41 Mg28 2.010 . S
O41 C33 1.249 . S
Mg42 O43 2.028 . S
Mg42 O49 1.986 . S
Mg42 O51 2.114 . S
Mg42 O52 2.251 . S
Mg42 O55 2.010 . S
O43 Mg42 2.028 . S
O43 C46 1.250 . S
O44 Mg45 2.028 . S
O44 C46 1.248 . S
Mg45 O44 2.028 . S
Mg45 O50 2.032 . S
Mg45 O52 2.079 . S
C46 O43 1.250 . S
C46 O44 1.248 . S
C47 O48 1.264 . S
C47 O55 1.249 . S
O48 C47 1.264 . S
O49 Mg42 1.986 . S
O49 C53 1.246 . S
O50 Mg45 2.032 . S
O50 C53 1.259 . S
O51 Mg42 2.114 . S
O51 C54 1.252 . S
O52 Mg42 2.251 . S
O52 Mg45 2.079 . S
O52 C54 1.273 . S
C53 O49 1.246 . S
C53 O50 1.259 . S
C54 O51 1.252 . S
C54 O52 1.273 . S
O55 Mg42 2.010 . S
O55 C47 1.249 . S
Mg56 O57 2.028 . S
Mg56 O63 1.986 . S
Mg56 O65 2.114 . S
Mg56 O66 2.251 . S
Mg56 O69 2.010 . S
O57 Mg56 2.028 . S
O57 C60 1.250 . S
O58 Mg59 2.028 . S
O58 C60 1.248 . S
Mg59 O58 2.028 . S
Mg59 O64 2.032 . S
Mg59 O66 2.079 . S
C60 O57 1.250 . S
C60 O58 1.248 . S
C61 O62 1.264 . S
C61 O69 1.249 . S
O62 C61 1.264 . S
O63 Mg56 1.986 . S
O63 C67 1.246 . S
O64 Mg59 2.032 . S
O64 C67 1.259 . S
O65 Mg56 2.114 . S
O65 C68 1.252 . S
O66 Mg56 2.251 . S
O66 Mg59 2.079 . S
O66 C68 1.273 . S
C67 O63 1.246 . S
C67 O64 1.259 . S
C68 O65 1.252 . S
C68 O66 1.273 . S
O69 Mg56 2.010 . S
O69 C61 1.249 . S
Mg70 O71 2.028 . S
Mg70 O77 1.986 . S
Mg70 O79 2.114 . S
Mg70 O80 2.251 . S
Mg70 O83 2.010 . S
O71 Mg70 2.028 . S
O71 C74 1.250 . S
O72 Mg73 2.028 . S
O72 C74 1.248 . S
Mg73 O72 2.028 . S
Mg73 O78 2.032 . S
Mg73 O80 2.079 . S
C74 O71 1.250 . S
C74 O72 1.248 . S
C75 O76 1.264 . S
C75 O83 1.249 . S
O76 C75 1.264 . S
O77 Mg70 1.986 . S
O77 C81 1.246 . S
O78 Mg73 2.032 . S
O78 C81 1.259 . S
O79 Mg70 2.114 . S
O79 C82 1.252 . S
O80 Mg70 2.251 . S
O80 Mg73 2.079 . S
O80 C82 1.273 . S
C81 O77 1.246 . S
C81 O78 1.259 . S
C82 O79 1.252 . S
C82 O80 1.273 . S
O83 Mg70 2.010 . S
O83 C75 1.249 . S
Mg84 O85 2.028 . S
Mg84 O91 1.986 . S
Mg84 O93 2.114 . S
Mg84 O94 2.251 . S
Mg84 O97 2.010 . S
O85 Mg84 2.028 . S
O85 C88 1.250 . S
O86 Mg87 2.028 . S
O86 C88 1.248 . S
Mg87 O86 2.028 . S
Mg87 O92 2.032 . S
Mg87 O94 2.079 . S
C88 O85 1.250 . S
C88 O86 1.248 . S
C89 O90 1.264 . S
C89 O97 1.249 . S
O90 C89 1.264 . S
O91 Mg84 1.986 . S
O91 C95 1.246 . S
O92 Mg87 2.032 . S
O92 C95 1.259 . S
O93 Mg84 2.114 . S
O93 C96 1.252 . S
O94 Mg84 2.251 . S
O94 Mg87 2.079 . S
O94 C96 1.273 . S
C95 O91 1.246 . S
C95 O92 1.259 . S
C96 O93 1.252 . S
C96 O94 1.273 . S
O97 Mg84 2.010 . S
O97 C89 1.249 . S
Mg98 O99 2.028 . S
Mg98 O105 1.986 . S
Mg98 O107 2.114 . S
Mg98 O108 2.251 . S
Mg98 O111 2.010 . S
O99 Mg98 2.028 . S
O99 C102 1.250 . S
O100 Mg101 2.028 . S
O100 C102 1.248 . S
Mg101 O100 2.028 . S
Mg101 O106 2.032 . S
Mg101 O108 2.079 . S
C102 O99 1.250 . S
C102 O100 1.248 . S
C103 O104 1.264 . S
C103 O111 1.249 . S
O104 C103 1.264 . S
O105 Mg98 1.986 . S
O105 C109 1.246 . S
O106 Mg101 2.032 . S
O106 C109 1.259 . S
O107 Mg98 2.114 . S
O107 C110 1.252 . S
O108 Mg98 2.251 . S
O108 Mg101 2.079 . S
O108 C110 1.273 . S
C109 O105 1.246 . S
C109 O106 1.259 . S
C110 O107 1.252 . S
C110 O108 1.273 . S
O111 Mg98 2.010 . S
O111 C103 1.249 . S
Mg112 O113 2.028 . S
Mg112 O119 1.986 . S
Mg112 O121 2.114 . S
Mg112 O122 2.251 . S
Mg112 O125 2.010 . S
O113 Mg112 2.028 . S
O113 C116 1.250 . S
O114 Mg115 2.028 . S
O114 C116 1.248 . S
Mg115 O114 2.028 . S
Mg115 O120 2.032 . S
Mg115 O122 2.079 . S
C116 O113 1.250 . S
C116 O114 1.248 . S
C117 O118 1.264 . S
C117 O125 1.249 . S
O118 C117 1.264 . S
O119 Mg112 1.986 . S
O119 C123 1.246 . S
O120 Mg115 2.032 . S
O120 C123 1.259 . S
O121 Mg112 2.114 . S
O121 C124 1.252 . S
O122 Mg112 2.251 . S
O122 Mg115 2.079 . S
O122 C124 1.273 . S
C123 O119 1.246 . S
C123 O120 1.259 . S
C124 O121 1.252 . S
C124 O122 1.273 . S
O125 Mg112 2.010 . S
O125 C117 1.249 . S
Mg126 O127 2.028 . S
Mg126 O133 1.986 . S
Mg126 O135 2.114 . S
Mg126 O136 2.251 . S
Mg126 O139 2.010 . S
O127 Mg126 2.028 . S
O127 C130 1.250 . S
O128 Mg129 2.028 . S
O128 C130 1.248 . S
Mg129 O128 2.028 . S
Mg129 O134 2.032 . S
Mg129 O136 2.079 . S
C130 O127 1.250 . S
C130 O128 1.248 . S
C131 O132 1.264 . S
C131 O139 1.249 . S
O132 C131 1.264 . S
O133 Mg126 1.986 . S
O133 C137 1.246 . S
O134 Mg129 2.032 . S
O134 C137 1.259 . S
O135 Mg126 2.114 . S
O135 C138 1.252 . S
O136 Mg126 2.251 . S
O136 Mg129 2.079 . S
O136 C138 1.273 . S
C137 O133 1.246 . S
C137 O134 1.259 . S
C138 O135 1.252 . S
C138 O136 1.273 . S
O139 Mg126 2.010 . S
O139 C131 1.249 . S
Mg140 O141 2.028 . S
Mg140 O147 1.986 . S
Mg140 O149 2.114 . S
Mg140 O150 2.251 . S
Mg140 O153 2.010 . S
O141 Mg140 2.028 . S
O141 C144 1.250 . S
O142 Mg143 2.028 . S
O142 C144 1.248 . S
Mg143 O142 2.028 . S
Mg143 O148 2.032 . S
Mg143 O150 2.079 . S
C144 O141 1.250 . S
C144 O142 1.248 . S
C145 O146 1.264 . S
C145 O153 1.249 . S
O146 C145 1.264 . S
O147 Mg140 1.986 . S
O147 C151 1.246 . S
O148 Mg143 2.032 . S
O148 C151 1.259 . S
O149 Mg140 2.114 . S
O149 C152 1.252 . S
O150 Mg140 2.251 . S
O150 Mg143 2.079 . S
O150 C152 1.273 . S
C151 O147 1.246 . S
C151 O148 1.259 . S
C152 O149 1.252 . S
C152 O150 1.273 . S
O153 Mg140 2.010 . S
O153 C145 1.249 . S
Mg154 O155 2.028 . S
Mg154 O161 1.986 . S
Mg154 O163 2.114 . S
Mg154 O164 2.251 . S
Mg154 O167 2.010 . S
O155 Mg154 2.028 . S
O155 C158 1.250 . S
O156 Mg157 2.028 . S
O156 C158 1.248 . S
Mg157 O156 2.028 . S
Mg157 O162 2.032 . S
Mg157 O164 2.079 . S
C158 O155 1.250 . S
C158 O156 1.248 . S
C159 O160 1.264 . S
C159 O167 1.249 . S
O160 C159 1.264 . S
O161 Mg154 1.986 . S
O161 C165 1.246 . S
O162 Mg157 2.032 . S
O162 C165 1.259 . S
O163 Mg154 2.114 . S
O163 C166 1.252 . S
O164 Mg154 2.251 . S
O164 Mg157 2.079 . S
O164 C166 1.273 . S
C165 O161 1.246 . S
C165 O162 1.259 . S
C166 O163 1.252 . S
C166 O164 1.273 . S
O167 Mg154 2.010 . S
O167 C159 1.249 . S
H168 C174 0.919 1_655 S
H169 C177 0.930 . S
H170 C178 0.930 . S
H171 C179 0.920 1_455 S
H172 C182 0.930 . S
H173 C183 0.930 . S
C174 H168 0.919 1_455 S
C174 C175 1.373 . S
C174 C176 1.407 1_455 S
C175 C174 1.373 . S
C175 C177 1.419 . S
C176 C174 1.407 1_655 S
C176 C181 1.425 1_654 S
C176 C183 1.409 . S
C177 H169 0.930 . S
C177 C175 1.419 . S
C177 C178 1.362 1_554 S
C178 H170 0.930 . S
C178 C177 1.362 1_556 S
C178 C181 1.409 . S
C179 H171 0.920 1_655 S
C179 C180 1.373 . S
C179 C181 1.407 1_655 S
C180 C179 1.373 . S
C180 C182 1.419 . S
C181 C176 1.425 1_456 S
C181 C178 1.409 . S
C181 C179 1.407 1_455 S
C182 H172 0.930 . S
C182 C180 1.419 . S
C182 C183 1.362 1_556 S
C183 H173 0.930 . S
C183 C176 1.409 . S
C183 C182 1.362 1_554 S
H184 C190 0.930 . S
H185 C193 0.930 1_545 S
H186 C194 0.930 . S
H187 C195 0.930 . S
H188 C198 0.930 1_565 S
H189 C199 0.930 . S
C190 H184 0.930 . S
C190 C191 1.355 . S
C190 C192 1.415 . S
C191 C190 1.355 . S
C191 C193 1.419 . S
C192 C190 1.415 . S
C192 C197 1.425 1_565 S
C192 C199 1.409 . S
C193 H185 0.930 1_565 S
C193 C191 1.419 . S
C193 C194 1.362 1_565 S
C194 H186 0.930 . S
C194 C193 1.362 1_545 S
C194 C197 1.409 . S
C195 H187 0.930 . S
C195 C196 1.355 . S
C195 C197 1.415 . S
C196 C195 1.355 . S
C196 C198 1.419 . S
C197 C192 1.425 1_545 S
C197 C194 1.409 . S
C197 C195 1.415 . S
C198 H188 0.930 1_545 S
C198 C196 1.419 . S
C198 C199 1.362 1_545 S
C199 H189 0.930 . S
C199 C192 1.409 . S
C199 C198 1.362 1_565 S
H200 C206 0.930 . S
H201 C209 0.930 . S
H202 C210 0.930 . S
H203 C211 0.930 . S
H204 C214 0.930 . S
H205 C215 0.930 . S
C206 H200 0.930 . S
C206 C207 1.355 . S
C206 C208 1.429 . S
C207 C206 1.355 . S
C207 C209 1.419 . S
C208 C206 1.429 . S
C208 C213 1.425 1_554 S
C208 C215 1.395 1_554 S
C209 H201 0.930 . S
C209 C207 1.419 . S
C209 C210 1.362 . S
C210 H202 0.930 . S
C210 C209 1.362 . S
C210 C213 1.395 1_554 S
C211 H203 0.930 . S
C211 C212 1.355 . S
C211 C213 1.429 . S
C212 C211 1.355 . S
C212 C214 1.419 . S
C213 C208 1.425 1_556 S
C213 C210 1.395 1_556 S
C213 C211 1.429 . S
C214 H204 0.930 . S
C214 C212 1.419 . S
C214 C215 1.362 . S
C215 H205 0.930 . S
C215 C208 1.395 1_556 S
C215 C214 1.362 . S
H216 C222 0.930 . S
H217 C225 0.930 . S
H218 C226 0.930 . S
H219 C227 0.930 . S
H220 C230 0.930 . S
H221 C231 0.930 . S
C222 H216 0.930 . S
C222 C223 1.355 . S
C222 C224 1.415 . S
C223 C222 1.355 . S
C223 C225 1.419 . S
C224 C222 1.415 . S
C224 C229 1.425 1_455 S
C224 C231 1.409 . S
C225 H217 0.930 . S
C225 C223 1.419 . S
C225 C226 1.362 1_455 S
C226 H218 0.930 . S
C226 C225 1.362 1_655 S
C226 C229 1.409 . S
C227 H219 0.930 . S
C227 C228 1.355 . S
C227 C229 1.415 . S
C228 C227 1.355 . S
C228 C230 1.419 . S
C229 C224 1.425 1_655 S
C229 C226 1.409 . S
C229 C227 1.415 . S
C230 H220 0.930 . S
C230 C228 1.419 . S
C230 C231 1.362 1_655 S
C231 H221 0.930 . S
C231 C224 1.409 . S
C231 C230 1.362 1_455 S
H232 C238 0.930 1_565 S
H233 C241 0.930 . S
H234 C242 0.930 . S
H235 C243 0.930 1_545 S
H236 C246 0.930 . S
H237 C247 0.930 . S
C238 H232 0.930 1_545 S
C238 C239 1.354 . S
C238 C240 1.415 1_545 S
C239 C238 1.354 . S
C239 C241 1.419 . S
C240 C238 1.415 1_565 S
C240 C245 1.425 1_566 S
C240 C247 1.409 . S
C241 H233 0.930 . S
C241 C239 1.419 . S
C241 C242 1.362 1_556 S
C242 H234 0.930 . S
C242 C241 1.362 1_554 S
C242 C245 1.409 . S
C243 H235 0.930 1_565 S
C243 C244 1.354 . S
C243 C245 1.415 1_565 S
C244 C243 1.354 . S
C244 C246 1.419 . S
C245 C240 1.425 1_544 S
C245 C242 1.409 . S
C245 C243 1.415 1_545 S
C246 H236 0.930 . S
C246 C244 1.419 . S
C246 C247 1.362 1_554 S
C247 H237 0.930 . S
C247 C240 1.409 . S
C247 C246 1.362 1_556 S
H248 C254 0.930 . S
H249 C257 0.930 . S
H250 C258 0.930 . S
H251 C259 0.930 . S
H252 C262 0.930 . S
H253 C263 0.930 . S
C254 H248 0.930 . S
C254 C255 1.355 . S
C254 C256 1.415 . S
C255 C254 1.355 . S
C255 C257 1.419 . S
C256 C254 1.415 . S
C256 C261 1.425 . S
C256 C263 1.409 . S
C257 H249 0.930 . S
C257 C255 1.419 . S
C257 C258 1.362 . S
C258 H250 0.930 . S
C258 C257 1.362 . S
C258 C261 1.409 . S
C259 H251 0.930 . S
C259 C260 1.355 . S
C259 C261 1.415 . S
C260 C259 1.355 . S
C260 C262 1.419 . S
C261 C256 1.425 . S
C261 C258 1.409 . S
C261 C259 1.415 . S
C262 H252 0.930 . S
C262 C260 1.419 . S
C262 C263 1.362 . S
C263 H253 0.930 . S
C263 C256 1.409 . S
C263 C262 1.362 . S
H264 C270 0.930 . S
H265 C273 0.930 . S
H266 C274 0.930 . S
H267 C275 0.930 . S
H268 C278 0.930 . S
H269 C279 0.930 . S
C270 H264 0.930 . S
C270 C271 1.355 . S
C270 C272 1.415 1_556 S
C271 C270 1.355 . S
C271 C273 1.419 1_655 S
C272 C270 1.415 1_554 S
C272 C277 1.425 1_654 S
C272 C279 1.409 . S
C273 H265 0.930 . S
C273 C271 1.419 1_455 S
C273 C274 1.362 . S
C274 H266 0.930 . S
C274 C273 1.362 . S
C274 C277 1.409 . S
C275 H267 0.930 . S
C275 C276 1.355 . S
C275 C277 1.415 1_554 S
C276 C275 1.355 . S
C276 C278 1.419 1_455 S
C277 C272 1.425 1_456 S
C277 C274 1.409 . S
C277 C275 1.415 1_556 S
C278 H268 0.930 . S
C278 C276 1.419 1_655 S
C278 C279 1.362 . S
C279 H269 0.930 . S
C279 C272 1.409 . S
C279 C278 1.362 . S
H280 C286 0.930 1_545 S
H281 C289 0.930 . S
H282 C290 0.930 . S
H283 C291 0.930 1_565 S
H284 C294 0.930 . S
H285 C295 0.930 . S
C286 H280 0.930 1_565 S
C286 C287 1.355 . S
C286 C288 1.415 1_565 S
C287 C286 1.355 . S
C287 C289 1.419 . S
C288 C286 1.415 1_545 S
C288 C293 1.425 1_545 S
C288 C295 1.409 . S
C289 H281 0.930 . S
C289 C287 1.419 . S
C289 C290 1.362 . S
C290 H282 0.930 . S
C290 C289 1.362 . S
C290 C293 1.409 . S
C291 H283 0.930 1_545 S
C291 C292 1.355 . S
C291 C293 1.415 1_545 S
C292 C291 1.355 . S
C292 C294 1.419 . S
C293 C288 1.425 1_565 S
C293 C290 1.409 . S
C293 C291 1.415 1_565 S
C294 H284 0.930 . S
C294 C292 1.419 . S
C294 C295 1.362 . S
C295 H285 0.930 . S
C295 C288 1.409 . S
C295 C294 1.362 . S
H296 C302 0.930 . S
H297 C305 0.930 . S
H298 C306 0.930 . S
H299 C307 0.930 . S
H300 C310 0.930 . S
H301 C311 0.930 . S
C302 H296 0.930 . S
C302 C303 1.355 . S
C302 C304 1.415 . S
C303 C302 1.355 . S
C303 C305 1.419 . S
C304 C302 1.415 . S
C304 C309 1.425 1_556 S
C304 C311 1.409 . S
C305 H297 0.930 . S
C305 C303 1.419 . S
C305 C306 1.362 1_556 S
C306 H298 0.930 . S
C306 C305 1.362 1_554 S
C306 C309 1.409 . S
C307 H299 0.930 . S
C307 C308 1.355 . S
C307 C309 1.415 . S
C308 C307 1.355 . S
C308 C310 1.419 . S
C309 C304 1.425 1_554 S
C309 C306 1.409 . S
C309 C307 1.415 . S
C310 H300 0.930 . S
C310 C308 1.419 . S
C310 C311 1.362 1_554 S
C311 H301 0.930 . S
C311 C304 1.409 . S
C311 C310 1.362 1_556 S
H312 C318 0.930 1_455 S
H313 C321 0.930 . S
H314 C322 0.930 . S
H315 C323 0.930 1_655 S
H316 C326 0.930 . S
H317 C327 0.930 . S
C318 H312 0.930 1_655 S
C318 C319 1.355 . S
C318 C320 1.415 1_655 S
C319 C318 1.355 . S
C319 C321 1.419 . S
C320 C318 1.415 1_455 S
C320 C325 1.425 1_455 S
C320 C327 1.409 . S
C321 H313 0.930 . S
C321 C319 1.419 . S
C321 C322 1.362 . S
C322 H314 0.930 . S
C322 C321 1.362 . S
C322 C325 1.409 . S
C323 H315 0.930 1_455 S
C323 C324 1.355 . S
C323 C325 1.415 1_455 S
C324 C323 1.355 . S
C324 C326 1.419 . S
C325 C320 1.425 1_655 S
C325 C322 1.409 . S
C325 C323 1.415 1_655 S
C326 H316 0.930 . S
C326 C324 1.419 . S
C326 C327 1.362 . S
C327 H317 0.930 . S
C327 C320 1.409 . S
C327 C326 1.362 . S
H328 C334 0.930 . S
H329 C337 0.930 . S
H330 C338 0.930 1_554 S
H331 C339 0.930 . S
H332 C342 0.930 . S
H333 C343 0.930 1_556 S
C334 H328 0.930 . S
C334 C335 1.355 . S
C334 C336 1.415 1_545 S
C335 C334 1.355 . S
C335 C337 1.419 . S
C336 C334 1.415 1_565 S
C336 C341 1.425 1_566 S
C336 C343 1.409 1_556 S
C337 H329 0.930 . S
C337 C335 1.419 . S
C337 C338 1.362 . S
C338 H330 0.930 1_556 S
C338 C337 1.362 . S
C338 C341 1.409 1_556 S
C339 H331 0.930 . S
C339 C340 1.355 . S
C339 C341 1.415 1_565 S
C340 C339 1.355 . S
C340 C342 1.419 . S
C341 C336 1.425 1_544 S
C341 C338 1.409 1_554 S
C341 C339 1.415 1_545 S
C342 H332 0.930 . S
C342 C340 1.419 . S
C342 C343 1.362 . S
C343 H333 0.930 1_554 S
C343 C336 1.409 1_554 S
C343 C342 1.362 . S
H344 C350 0.930 . S
H345 C353 0.930 . S
H346 C354 0.930 . S
H347 C355 0.930 . S
H348 C358 0.930 . S
H349 C359 0.930 . S
C350 H344 0.930 . S
C350 C351 1.355 . S
C350 C352 1.415 . S
C351 C350 1.355 . S
C351 C353 1.419 . S
C352 C350 1.415 . S
C352 C357 1.425 . S
C352 C359 1.409 . S
C353 H345 0.930 . S
C353 C351 1.419 . S
C353 C354 1.362 . S
C354 H346 0.930 . S
C354 C353 1.362 . S
C354 C357 1.409 . S
C355 H347 0.930 . S
C355 C356 1.355 . S
C355 C357 1.415 . S
C356 C355 1.355 . S
C356 C358 1.419 . S
C357 C352 1.425 . S
C357 C354 1.409 . S
C357 C355 1.415 . S
C358 H348 0.930 . S
C358 C356 1.419 . S
C358 C359 1.362 . S
C359 H349 0.930 . S
C359 C352 1.409 . S
C359 C358 1.362 . S
H360 C366 0.930 . S
H361 C369 0.930 . S
H362 C370 0.930 . S
H363 C371 0.930 . S
H364 C374 0.930 . S
H365 C375 0.930 . S
C366 H360 0.930 . S
C366 C367 1.355 . S
C366 C368 1.415 . S
C367 C366 1.355 . S
C367 C369 1.419 . S
C368 C366 1.415 . S
C368 C373 1.425 . S
C368 C375 1.409 . S
C369 H361 0.930 . S
C369 C367 1.419 . S
C369 C370 1.362 . S
C370 H362 0.930 . S
C370 C369 1.362 . S
C370 C373 1.409 . S
C371 H363 0.930 . S
C371 C372 1.355 . S
C371 C373 1.415 . S
C372 C371 1.355 . S
C372 C374 1.419 . S
C373 C368 1.425 . S
C373 C370 1.409 . S
C373 C371 1.415 . S
C374 H364 0.930 . S
C374 C372 1.419 . S
C374 C375 1.362 . S
C375 H365 0.930 . S
C375 C368 1.409 . S
C375 C374 1.362 . S
H376 C382 0.930 . S
H377 C385 0.930 . S
H378 C386 0.930 . S
H379 C387 0.930 . S
H380 C390 0.930 . S
H381 C391 0.930 . S
C382 H376 0.930 . S
C382 C383 1.355 . S
C382 C384 1.415 . S
C383 C382 1.355 . S
C383 C385 1.419 . S
C384 C382 1.415 . S
C384 C389 1.425 . S
C384 C391 1.409 . S
C385 H377 0.930 . S
C385 C383 1.419 . S
C385 C386 1.362 . S
C386 H378 0.930 . S
C386 C385 1.362 . S
C386 C389 1.409 . S
C387 H379 0.930 . S
C387 C388 1.355 . S
C387 C389 1.415 . S
C388 C387 1.355 . S
C388 C390 1.419 . S
C389 C384 1.425 . S
C389 C386 1.409 . S
C389 C387 1.415 . S
C390 H380 0.930 . S
C390 C388 1.419 . S
C390 C391 1.362 . S
C391 H381 0.930 . S
C391 C384 1.409 . S
C391 C390 1.362 . S
H392 C398 0.930 . S
H393 C401 0.930 . S
H394 C402 0.930 . S
H395 C403 0.930 . S
H396 C406 0.930 . S
H397 C407 0.930 . S
C398 H392 0.930 . S
C398 C399 1.355 . S
C398 C400 1.415 . S
C399 C398 1.355 . S
C399 C401 1.419 . S
C400 C398 1.415 . S
C400 C405 1.425 . S
C400 C407 1.409 . S
C401 H393 0.930 . S
C401 C399 1.419 . S
C401 C402 1.362 . S
C402 H394 0.930 . S
C402 C401 1.362 . S
C402 C405 1.409 . S
C403 H395 0.930 . S
C403 C404 1.355 . S
C403 C405 1.415 . S
C404 C403 1.355 . S
C404 C406 1.419 . S
C405 C400 1.425 . S
C405 C402 1.409 . S
C405 C403 1.415 . S
C406 H396 0.930 . S
C406 C404 1.419 . S
C406 C407 1.362 . S
C407 H397 0.930 . S
C407 C400 1.409 . S
C407 C406 1.362 . S
H408 C414 0.930 . S
H409 C417 0.930 . S
H410 C418 0.930 . S
H411 C419 0.930 . S
H412 C422 0.930 . S
H413 C423 0.930 . S
C414 H408 0.930 . S
C414 C415 1.355 . S
C414 C416 1.415 . S
C415 C414 1.355 . S
C415 C417 1.419 . S
C416 C414 1.415 . S
C416 C421 1.425 . S
C416 C423 1.409 . S
C417 H409 0.930 . S
C417 C415 1.419 . S
C417 C418 1.362 . S
C418 H410 0.930 . S
C418 C417 1.362 . S
C418 C421 1.409 . S
C419 H411 0.930 . S
C419 C420 1.355 . S
C419 C421 1.415 . S
C420 C419 1.355 . S
C420 C422 1.419 . S
C421 C416 1.425 . S
C421 C418 1.409 . S
C421 C419 1.415 . S
C422 H412 0.930 . S
C422 C420 1.419 . S
C422 C423 1.362 . S
C423 H413 0.930 . S
C423 C416 1.409 . S
C423 C422 1.362 . S
H424 C430 0.930 . S
H425 C433 0.930 . S
H426 C434 0.930 . S
H427 C435 0.930 . S
H428 C438 0.930 . S
H429 C439 0.930 . S
C430 H424 0.930 . S
C430 C431 1.355 . S
C430 C432 1.415 . S
C431 C430 1.355 . S
C431 C433 1.419 . S
C432 C430 1.415 . S
C432 C437 1.425 . S
C432 C439 1.409 . S
C433 H425 0.930 . S
C433 C431 1.419 . S
C433 C434 1.362 . S
C434 H426 0.930 . S
C434 C433 1.362 . S
C434 C437 1.409 . S
C435 H427 0.930 . S
C435 C436 1.355 . S
C435 C437 1.415 . S
C436 C435 1.355 . S
C436 C438 1.419 . S
C437 C432 1.425 . S
C437 C434 1.409 . S
C437 C435 1.415 . S
C438 H428 0.930 . S
C438 C436 1.419 . S
C438 C439 1.362 . S
C439 H429 0.930 . S
C439 C432 1.409 . S
C439 C438 1.362 . S
H440 C446 0.930 . S
H441 C449 0.930 . S
H442 C450 0.930 . S
H443 C451 0.930 . S
H444 C454 0.930 . S
H445 C455 0.930 . S
C446 H440 0.930 . S
C446 C447 1.355 . S
C446 C448 1.415 . S
C447 C446 1.355 . S
C447 C449 1.419 . S
C448 C446 1.415 . S
C448 C453 1.425 . S
C448 C455 1.409 . S
C449 H441 0.930 . S
C449 C447 1.419 . S
C449 C450 1.362 . S
C450 H442 0.930 . S
C450 C449 1.362 . S
C450 C453 1.409 . S
C451 H443 0.930 . S
C451 C452 1.355 . S
C451 C453 1.415 . S
C452 C451 1.355 . S
C452 C454 1.419 . S
C453 C448 1.425 . S
C453 C450 1.409 . S
C453 C451 1.415 . S
C454 H444 0.930 . S
C454 C452 1.419 . S
C454 C455 1.362 . S
C455 H445 0.930 . S
C455 C448 1.409 . S
C455 C454 1.362 . S
H456 C462 0.930 . S
H457 C465 0.930 . S
H458 C466 0.930 . S
H459 C467 0.930 . S
H460 C470 0.930 . S
H461 C471 0.930 . S
C462 H456 0.930 . S
C462 C463 1.355 . S
C462 C464 1.415 . S
C463 C462 1.355 . S
C463 C465 1.419 . S
C464 C462 1.415 . S
C464 C469 1.425 . S
C464 C471 1.409 . S
C465 H457 0.930 . S
C465 C463 1.419 . S
C465 C466 1.362 . S
C466 H458 0.930 . S
C466 C465 1.362 . S
C466 C469 1.409 . S
C467 H459 0.930 . S
C467 C468 1.355 . S
C467 C469 1.415 . S
C468 C467 1.355 . S
C468 C470 1.419 . S
C469 C464 1.425 . S
C469 C466 1.409 . S
C469 C467 1.415 . S
C470 H460 0.930 . S
C470 C468 1.419 . S
C470 C471 1.362 . S
C471 H461 0.930 . S
C471 C464 1.409 . S
C471 C470 1.362 . S
H472 C478 0.930 . S
H473 C481 0.930 . S
H474 C482 0.930 . S
H475 C483 0.930 . S
H476 C486 0.930 . S
H477 C487 0.930 . S
C478 H472 0.930 . S
C478 C479 1.355 . S
C478 C480 1.415 . S
C479 C478 1.355 . S
C479 C481 1.419 . S
C480 C478 1.415 . S
C480 C485 1.425 . S
C480 C487 1.409 . S
C481 H473 0.930 . S
C481 C479 1.419 . S
C481 C482 1.362 . S
C482 H474 0.930 . S
C482 C481 1.362 . S
C482 C485 1.409 . S
C483 H475 0.930 . S
C483 C484 1.355 . S
C483 C485 1.415 . S
C484 C483 1.355 . S
C484 C486 1.419 . S
C485 C480 1.425 . S
C485 C482 1.409 . S
C485 C483 1.415 . S
C486 H476 0.930 . S
C486 C484 1.419 . S
C486 C487 1.362 . S
C487 H477 0.930 . S
C487 C480 1.409 . S
C487 C486 1.362 . S
H488 C494 0.930 . S
H489 C497 0.930 . S
H490 C498 0.930 . S
H491 C499 0.930 . S
H492 C502 0.930 . S
H493 C503 0.930 . S
C494 H488 0.930 . S
C494 C495 1.355 . S
C494 C496 1.415 . S
C495 C494 1.355 . S
C495 C497 1.419 . S
C496 C494 1.415 . S
C496 C501 1.425 . S
C496 C503 1.409 . S
C497 H489 0.930 . S
C497 C495 1.419 . S
C497 C498 1.362 . S
C498 H490 0.930 . S
C498 C497 1.362 . S
C498 C501 1.409 . S
C499 H491 0.930 . S
C499 C500 1.355 . S
C499 C501 1.415 . S
C500 C499 1.355 . S
C500 C502 1.419 . S
C501 C496 1.425 . S
C501 C498 1.409 . S
C501 C499 1.415 . S
C502 H492 0.930 . S
C502 C500 1.419 . S
C502 C503 1.362 . S
C503 H493 0.930 . S
C503 C496 1.409 . S
C503 C502 1.362 . S
H504 C510 0.930 . S
H505 C513 0.930 . S
H506 C514 0.930 . S
H507 C515 0.930 . S
H508 C518 0.930 . S
H509 C519 0.930 . S
C510 H504 0.930 . S
C510 C511 1.355 . S
C510 C512 1.415 . S
C511 C510 1.355 . S
C511 C513 1.419 . S
C512 C510 1.415 . S
C512 C517 1.425 . S
C512 C519 1.409 . S
C513 H505 0.930 . S
C513 C511 1.419 . S
C513 C514 1.362 . S
C514 H506 0.930 . S
C514 C513 1.362 . S
C514 C517 1.409 . S
C515 H507 0.930 . S
C515 C516 1.355 . S
C515 C517 1.415 . S
C516 C515 1.355 . S
C516 C518 1.419 . S
C517 C512 1.425 . S
C517 C514 1.409 . S
C517 C515 1.415 . S
C518 H508 0.930 . S
C518 C516 1.419 . S
C518 C519 1.362 . S
C519 H509 0.930 . S
C519 C512 1.409 . S
C519 C518 1.362 . S
H520 C526 0.930 . S
H521 C529 0.930 . S
H522 C530 0.930 . S
H523 C531 0.930 . S
H524 C534 0.930 . S
H525 C535 0.930 . S
C526 H520 0.930 . S
C526 C527 1.355 . S
C526 C528 1.415 . S
C527 C526 1.355 . S
C527 C529 1.419 . S
C528 C526 1.415 . S
C528 C533 1.425 . S
C528 C535 1.409 . S
C529 H521 0.930 . S
C529 C527 1.419 . S
C529 C530 1.362 . S
C530 H522 0.930 . S
C530 C529 1.362 . S
C530 C533 1.409 . S
C531 H523 0.930 . S
C531 C532 1.355 . S
C531 C533 1.415 . S
C532 C531 1.355 . S
C532 C534 1.419 . S
C533 C528 1.425 . S
C533 C530 1.409 . S
C533 C531 1.415 . S
C534 H524 0.930 . S
C534 C532 1.419 . S
C534 C535 1.362 . S
C535 H525 0.930 . S
C535 C528 1.409 . S
C535 C534 1.362 . S
H536 C542 0.930 . S
H537 C545 0.930 . S
H538 C546 0.930 . S
H539 C547 0.930 . S
H540 C550 0.930 . S
H541 C551 0.930 . S
C542 H536 0.930 . S
C542 C543 1.355 . S
C542 C544 1.415 . S
C543 C542 1.355 . S
C543 C545 1.419 . S
C544 C542 1.415 . S
C544 C549 1.425 . S
C544 C551 1.409 . S
C545 H537 0.930 . S
C545 C543 1.419 . S
C545 C546 1.362 . S
C546 H538 0.930 . S
C546 C545 1.362 . S
C546 C549 1.409 . S
C547 H539 0.930 . S
C547 C548 1.355 . S
C547 C549 1.415 . S
C548 C547 1.355 . S
C548 C550 1.419 . S
C549 C544 1.425 . S
C549 C546 1.409 . S
C549 C547 1.415 . S
C550 H540 0.930 . S
C550 C548 1.419 . S
C550 C551 1.362 . S
C551 H541 0.930 . S
C551 C544 1.409 . S
C551 C550 1.362 . S
C175 C5 1.189 . S
C180 C159 1.206 . S
C191 C89 1.140 . S
C196 C19 1.201 . S
C207 C33 1.245 . S
C212 C103 1.111 . S
C223 C117 1.131 . S
C228 C47 1.211 . S
C239 C131 1.161 . S
C244 C61 1.230 . S
C255 C145 1.121 . S
C260 C75 1.252 . S
C271 C54 1.603 . S
C276 C124 1.594 . S
C287 C68 1.593 . S
C292 C138 1.610 . S
C303 C82 1.604 . S
C308 C152 1.601 . S
C319 C166 1.599 . S
C324 C12 1.606 . S
C335 C26 1.592 . S
C340 C96 1.610 . S
C351 C40 1.610 . S
C356 C110 1.592 . S
C367 C116 1.376 . S
C372 C4 1.381 . S
C383 C130 1.342 . S
C388 C18 1.345 . S
C399 C32 1.378 . S
C404 C144 1.374 . S
C415 C46 1.344 . S
C420 C158 1.347 . S
C431 C60 1.360 . S
C436 C88 1.365 . S
C447 C102 1.382 . S
C452 C74 1.386 . S
C463 C11 1.289 . S
C468 C151 1.268 . S
C479 C165 1.308 . S
C484 C25 1.300 . S
C495 C39 1.305 . S
C500 C95 1.281 . S
C511 C53 1.275 . S
C516 C109 1.268 . S
C527 C67 1.306 . S
C532 C123 1.284 . S
C543 C81 1.306 . S
C548 C137 1.283 . S
