# Generated by pormake.
# Topology sml, (6)-cn, num edge types: 1
# Building blocks:
#     Node 0, Type 0, BuildingBlock: BETDIP_clean_sbu_0, # of connection points: 6
#     Node 1, Type 0, BuildingBlock: BETDIP_clean_sbu_0, # of connection points: 6
#     Node 2, Type 0, BuildingBlock: BETDIP_clean_sbu_0, # of connection points: 6
#     Node 3, Type 0, BuildingBlock: BETDIP_clean_sbu_0, # of connection points: 6
#     Node 4, Type 0, BuildingBlock: BETDIP_clean_sbu_0, # of connection points: 6
#     Node 5, Type 0, BuildingBlock: BETDIP_clean_sbu_0, # of connection points: 6
#     Edge 6, Type (0, 0), BuildingBlock: XIVTED_clean_linker_0, # of connection points: 2
#     Edge 7, Type (0, 0), BuildingBlock: XIVTED_clean_linker_0, # of connection points: 2
#     Edge 8, Type (0, 0), BuildingBlock: XIVTED_clean_linker_0, # of connection points: 2
#     Edge 9, Type (0, 0), BuildingBlock: XIVTED_clean_linker_0, # of connection points: 2
#     Edge 10, Type (0, 0), BuildingBlock: XIVTED_clean_linker_0, # of connection points: 2
#     Edge 11, Type (0, 0), BuildingBlock: XIVTED_clean_linker_0, # of connection points: 2
#     Edge 12, Type (0, 0), BuildingBlock: XIVTED_clean_linker_0, # of connection points: 2
#     Edge 13, Type (0, 0), BuildingBlock: XIVTED_clean_linker_0, # of connection points: 2
#     Edge 14, Type (0, 0), BuildingBlock: XIVTED_clean_linker_0, # of connection points: 2
#     Edge 15, Type (0, 0), BuildingBlock: XIVTED_clean_linker_0, # of connection points: 2
#     Edge 16, Type (0, 0), BuildingBlock: XIVTED_clean_linker_0, # of connection points: 2
#     Edge 17, Type (0, 0), BuildingBlock: XIVTED_clean_linker_0, # of connection points: 2
#     Edge 18, Type (0, 0), BuildingBlock: XIVTED_clean_linker_0, # of connection points: 2
#     Edge 19, Type (0, 0), BuildingBlock: XIVTED_clean_linker_0, # of connection points: 2
#     Edge 20, Type (0, 0), BuildingBlock: XIVTED_clean_linker_0, # of connection points: 2
#     Edge 21, Type (0, 0), BuildingBlock: XIVTED_clean_linker_0, # of connection points: 2
#     Edge 22, Type (0, 0), BuildingBlock: XIVTED_clean_linker_0, # of connection points: 2
#     Edge 23, Type (0, 0), BuildingBlock: XIVTED_clean_linker_0, # of connection points: 2
# Relax obj value: 0.254
# Max RMSD: 0.254
# Mean RMSD: 0.254
data_MOF--net-sml--node1-BETDIP_clean_sbu_0--edge1-XIVTED_clean_linker_0
_symmetry_space_group_name_H-M    P1
_symmetry_Int_Tables_number       1
_symmetry_cell_setting            triclinic
loop_
_symmetry_equiv_pos_as_xyz
'x, y, z'
_cell_length_a     32.590383
_cell_length_b     32.609327
_cell_length_c     25.11464
_cell_angle_alpha  90.052074
_cell_angle_beta   90.057228
_cell_angle_gamma 120.03324
loop_
_atom_site_label
_atom_site_type_symbol
_atom_site_fract_x
_atom_site_fract_y
_atom_site_fract_z
_atom_type_partial_charge
Tb0 Tb 0.17135 0.43069 0.9645 0.0
Tb1 Tb 0.20838 0.39802 0.05823 0.0
C2 C 0.15653 0.4554 0.87501 0.0
C3 C 0.1639 0.44848 0.81809 0.0
C4 C 0.20663 0.47936 0.79208 0.0
C5 C 0.2124 0.47369 0.73781 0.0
C6 C 0.17533 0.43744 0.70813 0.0
C7 C 0.13269 0.40657 0.73421 0.0
C8 C 0.12702 0.41206 0.78843 0.0
C9 C 0.10823 0.37514 0.03389 0.0
C10 C 0.19633 0.34736 0.95069 0.0
C11 C 0.21549 0.36885 0.14851 0.0
C12 C 0.21049 0.37911 0.205 0.0
C13 C 0.16612 0.35605 0.23045 0.0
C14 C 0.1621 0.36409 0.28446 0.0
C15 C 0.20234 0.39528 0.31444 0.0
C16 C 0.24659 0.41867 0.28873 0.0
C17 C 0.25063 0.41051 0.23482 0.0
C18 C 0.27271 0.45368 0.98972 0.0
C19 C 0.18984 0.48572 0.07095 0.0
O20 O 0.19423 0.4819 0.90403 0.0
O21 O 0.12495 0.41791 0.90084 0.0
O22 O 0.14291 0.37193 0.01746 0.0
O23 O 0.10642 0.40911 1.00937 0.0
O24 O 0.19077 0.38127 0.92868 0.0
O25 O 0.19818 0.34297 1.00283 0.0
O26 O 0.17678 0.34831 0.11956 0.0
O27 O 0.25158 0.40197 0.1222 0.0
O28 O 0.23706 0.45617 1.00429 0.0
O29 O 0.27679 0.42308 0.01891 0.0
O30 O 0.19597 0.4524 0.0935 0.0
O31 O 0.18391 0.48744 0.01902 0.0
H32 H 0.23543 0.50837 0.8134 0.0
H33 H 0.24549 0.49846 0.7188 0.0
H34 H 0.10361 0.37798 0.71269 0.0
H35 H 0.09345 0.38794 0.80699 0.0
H36 H 0.13449 0.33124 0.2089 0.0
H37 H 0.12754 0.34491 0.30298 0.0
H38 H 0.27824 0.44346 0.31021 0.0
H39 H 0.2854 0.42861 0.2166 0.0
Tb40 Tb 0.74572 0.17966 0.3123 0.0
Tb41 Tb 0.81337 0.2231 0.40698 0.0
C42 C 0.7059 0.15947 0.22253 0.0
C43 C 0.71966 0.16763 0.16597 0.0
C44 C 0.76102 0.20836 0.14899 0.0
C45 C 0.7726 0.21537 0.09475 0.0
C46 C 0.74306 0.18174 0.05659 0.0
C47 C 0.70204 0.14078 0.07417 0.0
C48 C 0.6905 0.13389 0.12824 0.0
C49 C 0.74392 0.11992 0.38277 0.0
C50 C 0.85716 0.21678 0.30085 0.0
C51 C 0.85187 0.23658 0.49706 0.0
C52 C 0.83787 0.23066 0.55363 0.0
C53 C 0.79588 0.19118 0.57168 0.0
C54 C 0.78447 0.18595 0.62597 0.0
C55 C 0.81474 0.22017 0.6632 0.0
C56 C 0.85631 0.25997 0.64457 0.0
C57 C 0.86773 0.26506 0.59044 0.0
C58 C 0.81425 0.28393 0.33789 0.0
C59 C 0.70354 0.19286 0.41748 0.0
O60 O 0.71349 0.19651 0.25056 0.0
O61 O 0.71717 0.13172 0.24854 0.0
O62 O 0.78025 0.15676 0.36696 0.0
O63 O 0.70692 0.11408 0.35708 0.0
O64 O 0.81647 0.20639 0.27768 0.0
O65 O 0.86292 0.21965 0.35302 0.0
O66 O 0.83774 0.19785 0.46897 0.0
O67 O 0.84812 0.26925 0.47087 0.0
O68 O 0.77866 0.24585 0.35252 0.0
O69 O 0.85098 0.29127 0.3656 0.0
O70 O 0.74398 0.20292 0.441 0.0
O71 O 0.6969 0.18646 0.36541 0.0
H72 H 0.78414 0.23485 0.17754 0.0
H73 H 0.80424 0.24749 0.08266 0.0
H74 H 0.67897 0.1137 0.04618 0.0
H75 H 0.65863 0.10208 0.14063 0.0
H76 H 0.77214 0.16418 0.54398 0.0
H77 H 0.75241 0.15463 0.63885 0.0
H78 H 0.87999 0.28749 0.67179 0.0
H79 H 0.90014 0.29592 0.5773 0.0
Tb80 Tb 0.56598 0.75489 0.65176 0.0
Tb81 Tb 0.58581 0.81839 0.74775 0.0
C82 C 0.54623 0.71575 0.56152 0.0
C83 C 0.55089 0.72926 0.50514 0.0
C84 C 0.55926 0.77405 0.48922 0.0
C85 C 0.56353 0.78573 0.43506 0.0
C86 C 0.55942 0.75276 0.39608 0.0
C87 C 0.55123 0.70807 0.41258 0.0
C88 C 0.54702 0.69649 0.46656 0.0
C89 C 0.62375 0.75126 0.72182 0.0
C90 C 0.63981 0.86604 0.64464 0.0
C91 C 0.60464 0.85851 0.83734 0.0
C92 C 0.60128 0.84622 0.89402 0.0
C93 C 0.59221 0.80142 0.91075 0.0
C94 C 0.58808 0.79045 0.96509 0.0
C95 C 0.59304 0.82417 1.00349 0.0
C96 C 0.60224 0.86902 0.98622 0.0
C97 C 0.60629 0.87987 0.93202 0.0
C98 C 0.5267 0.81974 0.67691 0.0
C99 C 0.51277 0.70783 0.7562 0.0
O100 O 0.5168 0.72295 0.5899 0.0
O101 O 0.58574 0.72793 0.58693 0.0
O102 O 0.6227 0.78813 0.70888 0.0
O103 O 0.59488 0.7162 0.69202 0.0
O104 O 0.61018 0.82637 0.61936 0.0
O105 O 0.64079 0.86968 0.69698 0.0
O106 O 0.63522 0.85304 0.80887 0.0
O107 O 0.56434 0.84369 0.81248 0.0
O108 O 0.52929 0.78426 0.6915 0.0
O109 O 0.556 0.85609 0.70483 0.0
O110 O 0.54402 0.74712 0.78084 0.0
O111 O 0.51034 0.70445 0.70367 0.0
H112 H 0.56231 0.79981 0.51855 0.0
H113 H 0.56943 0.8203 0.42369 0.0
H114 H 0.54871 0.68216 0.38378 0.0
H115 H 0.54082 0.66186 0.47822 0.0
H116 H 0.58828 0.77502 0.88189 0.0
H117 H 0.58146 0.75575 0.97702 0.0
H118 H 0.60547 0.89555 0.01454 0.0
H119 H 0.613 0.91454 0.91972 0.0
Tb120 Tb 0.80993 0.55669 0.97035 0.0
Tb121 Tb 0.77877 0.59206 0.06485 0.0
C122 C 0.8148 0.52479 0.88062 0.0
C123 C 0.81127 0.5346 0.82392 0.0
C124 C 0.77899 0.54824 0.80604 0.0
C125 C 0.77599 0.55641 0.75175 0.0
C126 C 0.80522 0.55112 0.71431 0.0
C127 C 0.83784 0.53801 0.73275 0.0
C128 C 0.84074 0.5298 0.78689 0.0
C129 C 0.87946 0.61529 0.03228 0.0
C130 C 0.78841 0.64239 0.95795 0.0
C131 C 0.7648 0.61791 0.15441 0.0
C132 C 0.77216 0.61214 0.2112 0.0
C133 C 0.80666 0.60126 0.22821 0.0
C134 C 0.81206 0.59522 0.28256 0.0
C135 C 0.78305 0.59997 0.32081 0.0
C136 C 0.74853 0.61077 0.30323 0.0
C137 C 0.7432 0.61677 0.24906 0.0
C138 C 0.71147 0.53082 1.00121 0.0
C139 C 0.80386 0.51002 0.07879 0.0
O140 O 0.77594 0.50746 0.90893 0.0
O141 O 0.85174 0.5572 0.90645 0.0
O142 O 0.84327 0.6184 0.02083 0.0
O143 O 0.879 0.58104 1.00554 0.0
O144 O 0.79269 0.60789 0.9355 0.0
O145 O 0.78776 0.64705 0.01015 0.0
O146 O 0.80264 0.64324 0.12551 0.0
O147 O 0.73342 0.57967 0.12964 0.0
O148 O 0.74773 0.5302 0.01646 0.0
O149 O 0.7105 0.56622 0.02325 0.0
O150 O 0.80366 0.54697 0.10041 0.0
O151 O 0.79919 0.50198 0.02692 0.0
H152 H 0.75588 0.55227 0.8339 0.0
H153 H 0.75017 0.56603 0.73904 0.0
H154 H 0.86155 0.53447 0.7054 0.0
H155 H 0.86608 0.51959 0.79989 0.0
H156 H 0.82937 0.59744 0.19957 0.0
H157 H 0.83928 0.58735 0.29464 0.0
H158 H 0.72498 0.61383 0.33127 0.0
H159 H 0.71612 0.62478 0.23665 0.0
Tb160 Tb 0.26122 0.81852 0.29426 0.0
Tb161 Tb 0.19134 0.78727 0.38742 0.0
C162 C 0.29948 0.82572 0.20493 0.0
C163 C 0.28591 0.82103 0.14793 0.0
C164 C 0.24253 0.78374 0.1291 0.0
C165 C 0.23101 0.78025 0.07477 0.0
C166 C 0.26261 0.81395 0.03803 0.0
C167 C 0.30594 0.85117 0.0573 0.0
C168 C 0.31737 0.85461 0.1115 0.0
C169 C 0.26664 0.88642 0.3552 0.0
C170 C 0.1521 0.79107 0.27693 0.0
C171 C 0.15344 0.78068 0.47681 0.0
C172 C 0.16723 0.78616 0.53374 0.0
C173 C 0.21149 0.82252 0.55181 0.0
C174 C 0.22322 0.82649 0.60615 0.0
C175 C 0.19107 0.79405 0.64347 0.0
C176 C 0.14689 0.75776 0.62492 0.0
C177 C 0.13519 0.75393 0.57081 0.0
C178 C 0.18804 0.71961 0.32727 0.0
C179 C 0.29887 0.81064 0.40436 0.0
O180 O 0.28044 0.78701 0.2337 0.0
O181 O 0.30132 0.86161 0.23049 0.0
O182 O 0.2292 0.84965 0.34105 0.0
O183 O 0.30289 0.88733 0.33268 0.0
O184 O 0.19224 0.79636 0.25723 0.0
O185 O 0.14539 0.79257 0.32871 0.0
O186 O 0.17183 0.81905 0.44745 0.0
O187 O 0.15218 0.74478 0.45191 0.0
O188 O 0.22432 0.75704 0.34162 0.0
O189 O 0.15092 0.7172 0.34937 0.0
O190 O 0.26037 0.80866 0.42476 0.0
O191 O 0.30455 0.80827 0.35245 0.0
H192 H 0.21749 0.75733 0.15632 0.0
H193 H 0.1971 0.75142 0.06168 0.0
H194 H 0.33154 0.87735 0.03035 0.0
H195 H 0.35111 0.88355 0.12498 0.0
H196 H 0.23704 0.84776 0.52402 0.0
H197 H 0.25773 0.8546 0.61877 0.0
H198 H 0.12091 0.73257 0.65237 0.0
H199 H 0.10083 0.72568 0.55785 0.0
Tb200 Tb 0.42432 0.23818 0.65043 0.0
Tb201 Tb 0.39921 0.16983 0.74374 0.0
C202 C 0.4494 0.27622 0.56024 0.0
C203 C 0.44243 0.26074 0.50372 0.0
C204 C 0.46791 0.24084 0.48078 0.0
C205 C 0.46237 0.22851 0.42673 0.0
C206 C 0.4312 0.23566 0.39443 0.0
C207 C 0.40551 0.25518 0.41757 0.0
C208 C 0.41125 0.26777 0.47143 0.0
C209 C 0.36332 0.23874 0.71726 0.0
C210 C 0.35024 0.12654 0.63658 0.0
C211 C 0.37714 0.12975 0.83318 0.0
C212 C 0.38351 0.14373 0.89024 0.0
C213 C 0.35202 0.15471 0.91631 0.0
C214 C 0.35731 0.16585 0.97067 0.0
C215 C 0.39389 0.16579 1.00049 0.0
C216 C 0.4253 0.15475 0.97431 0.0
C217 C 0.42011 0.14378 0.91999 0.0
C218 C 0.46196 0.17296 0.67588 0.0
C219 C 0.4742 0.28069 0.75836 0.0
O220 O 0.47556 0.26527 0.59004 0.0
O221 O 0.41197 0.27102 0.58556 0.0
O222 O 0.36522 0.20242 0.70353 0.0
O223 O 0.39246 0.27489 0.68893 0.0
O224 O 0.37959 0.168 0.61448 0.0
O225 O 0.34758 0.11975 0.68859 0.0
O226 O 0.34873 0.13857 0.8046 0.0
O227 O 0.41538 0.13845 0.80697 0.0
O228 O 0.4581 0.20715 0.69241 0.0
O229 O 0.43139 0.13456 0.69996 0.0
O230 O 0.44347 0.23962 0.78028 0.0
O231 O 0.47677 0.28765 0.70623 0.0
H232 H 0.49241 0.23507 0.50438 0.0
H233 H 0.48238 0.21316 0.41027 0.0
H234 H 0.38175 0.26183 0.39372 0.0
H235 H 0.39159 0.28357 0.48771 0.0
H236 H 0.32296 0.15431 0.89493 0.0
H237 H 0.33272 0.17463 0.98927 0.0
H238 H 0.45333 0.15344 0.99604 0.0
H239 H 0.44448 0.13467 0.90144 0.0
H240 H 0.33991 0.21047 0.82034 0.0
H241 H 0.18809 0.33983 0.8423 0.0
H242 H 0.305 0.27106 0.68794 0.0
H243 H 0.22819 0.2866 0.97828 0.0
H244 H 0.21739 0.30066 0.78373 0.0
H245 H 0.28641 0.2238 0.87703 0.0
C246 C 0.3195 0.22483 0.80288 0.0
C247 C 0.32589 0.23883 0.74949 0.0
C248 C 0.21928 0.29701 0.82637 0.0
C249 C 0.26633 0.25599 0.81385 0.0
C250 C 0.20248 0.31936 0.85992 0.0
C251 C 0.20636 0.31715 0.91535 0.0
C252 C 0.24061 0.27259 0.8483 0.0
C253 C 0.22484 0.28962 0.93578 0.0
C254 C 0.28953 0.23314 0.83527 0.0
C255 C 0.30066 0.25962 0.72904 0.0
N256 N 0.24195 0.26899 0.90224 0.0
N257 N 0.27219 0.26784 0.76131 0.0
H258 H 0.08295 0.41186 0.11557 0.0
H259 H 0.86052 0.18629 0.20043 0.0
H260 H 0.06621 0.2807 0.05469 0.0
H261 H 0.94836 0.28298 0.32354 0.0
H262 H 0.92904 0.22115 0.14008 0.0
H263 H 0.02742 0.3678 0.18769 0.0
C264 C 0.06768 0.37377 0.11777 0.0
C265 C 0.07853 0.34951 0.07946 0.0
C266 C 0.93332 0.23385 0.18072 0.0
C267 C 0.01476 0.29933 0.16016 0.0
C268 C 0.89441 0.21422 0.21495 0.0
C269 C 0.89902 0.23182 0.26689 0.0
C270 C 0.97632 0.27225 0.19819 0.0
C271 C 0.94353 0.26822 0.28386 0.0
C272 C 0.03644 0.34884 0.15887 0.0
C273 C 0.05836 0.30032 0.0838 0.0
N274 N 0.98031 0.28809 0.24913 0.0
N275 N 0.02633 0.27645 0.1229 0.0
H276 H 0.79732 0.07871 0.40251 0.0
H277 H 0.66757 0.95691 0.67239 0.0
H278 H 0.6844 0.09638 0.46634 0.0
H279 H 0.67639 0.8727 0.54501 0.0
H280 H 0.70479 0.02663 0.61433 0.0
H281 H 0.78289 0.0205 0.47338 0.0
C282 C 0.77041 0.07113 0.43227 0.0
C283 C 0.74163 0.09161 0.42892 0.0
C284 C 0.69951 0.99302 0.59982 0.0
C285 C 0.72615 0.02721 0.50952 0.0
C286 C 0.67849 0.95337 0.63273 0.0
C287 C 0.66872 0.90907 0.61314 0.0
C288 C 0.71185 0.9884 0.54768 0.0
C289 C 0.68309 0.90626 0.5613 0.0
C290 C 0.76217 0.03808 0.47223 0.0
C291 C 0.70695 0.0808 0.46775 0.0
N292 N 0.70394 0.94553 0.5301 0.0
N293 N 0.70016 0.04928 0.50671 0.0
H294 H 0.67411 0.71003 0.69289 0.0
H295 H 0.76008 0.7059 0.98639 0.0
H296 H 0.65702 0.78788 0.82121 0.0
H297 H 0.79484 0.64883 0.8496 0.0
H298 H 0.73141 0.74527 0.92643 0.0
H299 H 0.72719 0.69615 0.74849 0.0
C300 C 0.68229 0.72487 0.73271 0.0
C301 C 0.66137 0.75012 0.75272 0.0
C302 C 0.74609 0.7248 0.90961 0.0
C303 C 0.7211 0.73342 0.8173 0.0
C304 C 0.76254 0.70234 0.94381 0.0
C305 C 0.77908 0.67328 0.92302 0.0
C306 C 0.74605 0.71788 0.85439 0.0
C307 C 0.78161 0.67015 0.86753 0.0
C308 C 0.71261 0.717 0.76448 0.0
C309 C 0.67296 0.76869 0.80436 0.0
N310 N 0.76467 0.69161 0.83526 0.0
N311 N 0.70151 0.75925 0.83541 0.0
H312 H 0.06006 0.76922 0.29838 0.0
H313 H 0.96318 0.61809 0.04202 0.0
H314 H 0.1527 0.78028 0.16941 0.0
H315 H 0.88794 0.68683 0.09918 0.0
H316 H 0.02968 0.66908 0.0994 0.0
H317 H 0.99256 0.73287 0.23611 0.0
C318 C 0.06643 0.76484 0.25701 0.0
C319 C 0.11212 0.77716 0.23939 0.0
C320 C -0.00141 0.67304 0.09938 0.0
C321 C 0.0354 0.73516 0.16896 0.0
C322 C 0.96052 0.64387 0.06682 0.0
C323 C 0.91965 0.64782 0.06635 0.0
C324 C 0.99558 0.70584 0.1328 0.0
C325 C 0.91837 0.68202 0.09925 0.0
C326 C 0.02795 0.7442 0.22166 0.0
C327 C 0.11821 0.77074 0.18525 0.0
N328 N 0.95569 0.70947 0.13196 0.0
N329 N 0.08023 0.74938 0.15232 0.0
H330 H 0.33084 0.0363 0.65447 0.0
H331 H 0.20622 0.91826 0.38267 0.0
H332 H 0.31375 0.12356 0.53761 0.0
H333 H 0.33559 0.92281 0.43019 0.0
H334 H 0.21698 0.97306 0.45646 0.0
H335 H 0.30209 0.97185 0.58882 0.0
C336 C 0.31968 0.04138 0.61558 0.0
C337 C 0.32468 0.08522 0.60122 0.0
C338 C 0.24248 0.96139 0.45076 0.0
C339 C 0.29136 0.01185 0.52701 0.0
C340 C 0.23646 0.93039 0.40902 0.0
C341 C 0.27039 0.91669 0.40043 0.0
C342 C 0.28166 0.97694 0.48479 0.0
C343 C 0.30896 0.93305 0.43541 0.0
C344 C 0.30363 0.00481 0.57829 0.0
C345 C 0.31048 0.09026 0.55002 0.0
N346 N 0.31343 0.96213 0.47642 0.0
N347 N 0.29444 0.05391 0.51452 0.0
H348 H 0.2522 0.44442 0.65482 0.0
H349 H 0.13117 0.40113 0.3666 0.0
H350 H 0.11044 0.41904 0.62881 0.0
H351 H 0.26438 0.40631 0.395 0.0
H352 H 0.12481 0.41173 0.46193 0.0
H353 H 0.25954 0.43549 0.55906 0.0
C354 C 0.2227 0.43719 0.62896 0.0
C355 C 0.18058 0.43233 0.64999 0.0
C356 C 0.15545 0.41058 0.44729 0.0
C357 C 0.18866 0.42185 0.54026 0.0
C358 C 0.15901 0.40427 0.39279 0.0
C359 C 0.19836 0.40272 0.37243 0.0
C360 C 0.19154 0.41556 0.48195 0.0
C361 C 0.23371 0.40794 0.40852 0.0
C362 C 0.22681 0.43183 0.57432 0.0
C363 C 0.14333 0.42243 0.61455 0.0
N364 N 0.22945 0.41409 0.46138 0.0
N365 N 0.14828 0.41761 0.56153 0.0
H366 H 0.83043 0.21878 1.00863 0.0
H367 H 0.72778 0.1857 0.71143 0.0
H368 H 0.68214 0.16153 0.97216 0.0
H369 H 0.87589 0.24138 0.74767 0.0
H370 H 0.71044 0.17684 0.80675 0.0
H371 H 0.84803 0.22894 0.91335 0.0
C372 C 0.80157 0.20861 0.9807 0.0
C373 C 0.75467 0.1891 0.99868 0.0
C374 C 0.74675 0.19105 0.79385 0.0
C375 C 0.77457 0.20014 0.88918 0.0
C376 C 0.75667 0.19585 0.73932 0.0
C377 C 0.80342 0.21439 0.72122 0.0
C378 C 0.78381 0.20484 0.83082 0.0
C379 C 0.8394 0.22759 0.75956 0.0
C380 C 0.81163 0.21414 0.92619 0.0
C381 C 0.71874 0.176 0.96032 0.0
N382 N 0.82884 0.22254 0.81238 0.0
N383 N 0.72943 0.18172 0.90755 0.0
H384 H 0.62214 0.83662 0.3476 0.0
H385 H 0.52909 0.74115 0.05242 0.0
H386 H 0.50694 0.69601 0.31297 0.0
H387 H 0.64561 0.88118 0.08655 0.0
H388 H 0.52051 0.72397 0.14775 0.0
H389 H 0.63031 0.85424 0.2523 0.0
C390 C 0.59832 0.80956 0.32003 0.0
C391 C 0.5639 0.76469 0.33842 0.0
C392 C 0.54798 0.75846 0.1344 0.0
C393 C 0.57343 0.78445 0.22907 0.0
C394 C 0.55312 0.76819 0.07989 0.0
C395 C 0.58811 0.81272 0.06131 0.0
C396 C 0.57806 0.79347 0.17078 0.0
C397 C 0.61771 0.84659 0.09899 0.0
C398 C 0.60322 0.81953 0.26555 0.0
C399 C 0.53446 0.73083 0.30065 0.0
N400 N 0.612 0.83627 0.15184 0.0
N401 N 0.53993 0.74139 0.24788 0.0
H402 H 0.79115 0.61906 0.66632 0.0
H403 H 0.80037 0.5342 0.36869 0.0
H404 H 0.8113 0.50097 0.62954 0.0
H405 H 0.77732 0.65045 0.40541 0.0
H406 H 0.80637 0.52271 0.46397 0.0
H407 H 0.7863 0.63133 0.57102 0.0
C408 C 0.7943 0.59551 0.63832 0.0
C409 C 0.80175 0.55894 0.65629 0.0
C410 C 0.80002 0.55076 0.45119 0.0
C411 C 0.79682 0.57324 0.54668 0.0
C412 C 0.79692 0.55757 0.39668 0.0
C413 C 0.7882 0.59331 0.37874 0.0
C414 C 0.79445 0.57991 0.4883 0.0
C415 C 0.78335 0.62198 0.4172 0.0
C416 C 0.79184 0.60275 0.5838 0.0
C417 C 0.80627 0.53008 0.61779 0.0
N418 N 0.78651 0.61465 0.46999 0.0
N419 N 0.80374 0.53785 0.565 0.0
H420 H 0.23844 0.87454 0.70518 0.0
H421 H 0.21726 0.73372 0.97558 0.0
H422 H 0.1711 0.72227 0.71466 0.0
H423 H 0.28129 0.88577 0.96721 0.0
H424 H 0.2001 0.72888 0.88023 0.0
H425 H 0.25577 0.87951 0.80058 0.0
C426 C 0.22756 0.84213 0.72712 0.0
C427 C 0.2031 0.79789 0.70151 0.0
C428 C 0.21789 0.76332 0.89924 0.0
C429 C 0.22249 0.80334 0.81141 0.0
C430 C 0.22744 0.76611 0.95392 0.0
C431 C 0.25089 0.81025 0.97988 0.0
C432 C 0.23178 0.80495 0.8699 0.0
C433 C 0.26382 0.85098 0.94908 0.0
C434 C 0.23721 0.84499 0.7818 0.0
C435 C 0.18938 0.75715 0.73257 0.0
N436 N 0.25413 0.84733 0.89594 0.0
N437 N 0.19924 0.76087 0.78565 0.0
H438 H 0.50113 0.25209 0.3224 0.0
H439 H 0.32325 0.13932 0.07506 0.0
H440 H 0.34977 0.19274 0.3344 0.0
H441 H 0.47563 0.21561 0.05947 0.0
H442 H 0.33207 0.15564 0.17057 0.0
H443 H 0.49223 0.23482 0.22691 0.0
C444 C 0.46597 0.23508 0.30506 0.0
C445 C 0.42615 0.22392 0.33658 0.0
C446 C 0.36359 0.16887 0.14625 0.0
C447 C 0.41572 0.20439 0.22697 0.0
C448 C 0.35859 0.15984 0.09152 0.0
C449 C 0.39874 0.17613 0.05882 0.0
C450 C 0.40909 0.19428 0.1688 0.0
C451 C 0.44361 0.20172 0.08298 0.0
C452 C 0.46094 0.22554 0.25042 0.0
C453 C 0.38153 0.2025 0.31163 0.0
N454 N 0.44754 0.20993 0.13637 0.0
N455 N 0.37753 0.19341 0.25843 0.0
H456 H 0.14307 0.53533 0.05681 0.0
H457 H 0.2602 0.70338 0.30662 0.0
H458 H 0.23643 0.51834 0.165 0.0
H459 H 0.11688 0.66022 0.2597 0.0
H460 H 0.26113 0.64759 0.24189 0.0
H461 H 0.14181 0.59337 0.11863 0.0
C462 C 0.16356 0.54412 0.09327 0.0
C463 C 0.1899 0.52211 0.10593 0.0
C464 C 0.22948 0.65033 0.24583 0.0
C465 C 0.18901 0.58833 0.17585 0.0
C466 C 0.22895 0.68208 0.28257 0.0
C467 C 0.18824 0.68583 0.28862 0.0
C468 C 0.18938 0.62291 0.21416 0.0
C469 C 0.1487 0.65773 0.25648 0.0
C470 C 0.16255 0.57686 0.12852 0.0
C471 C 0.21551 0.53436 0.15386 0.0
N472 N 0.15031 0.62753 0.22017 0.0
N473 N 0.21474 0.56693 0.18688 0.0
H474 H 0.60718 0.13832 0.40364 0.0
H475 H 0.5448 0.25087 0.64917 0.0
H476 H 0.71378 0.24142 0.50881 0.0
H477 H 0.45518 0.10333 0.60937 0.0
H478 H 0.60197 0.25656 0.58217 0.0
H479 H 0.5454 0.13316 0.46448 0.0
C480 C 0.61748 0.16009 0.43919 0.0
C481 C 0.66548 0.19023 0.45145 0.0
C482 C 0.56971 0.223 0.58805 0.0
C483 C 0.5957 0.18507 0.51997 0.0
C484 C 0.53715 0.21976 0.62605 0.0
C485 C 0.49568 0.17648 0.63487 0.0
C486 C 0.56026 0.18288 0.55809 0.0
C487 C 0.4872 0.13716 0.60395 0.0
C488 C 0.58239 0.15693 0.47383 0.0
C489 C 0.67714 0.2175 0.4981 0.0
N490 N 0.51926 0.14128 0.56656 0.0
N491 N 0.64249 0.21452 0.53047 0.0
H492 H 0.26239 0.46692 0.88487 0.0
H493 H 0.52046 0.69365 0.86194 0.0
H494 H 0.36563 0.51388 0.01105 0.0
H495 H 0.42983 0.62903 0.72552 0.0
H496 H 0.46374 0.62857 0.91719 0.0
H497 H 0.32247 0.52632 0.82556 0.0
C498 C 0.29763 0.49032 0.90009 0.0
C499 C 0.30903 0.48686 0.95297 0.0
C500 C 0.45633 0.62839 0.87512 0.0
C501 C 0.37795 0.55393 0.88577 0.0
C502 C 0.48864 0.6657 0.84352 0.0
C503 C 0.47972 0.66698 0.78904 0.0
C504 C 0.41442 0.59223 0.85231 0.0
C505 C 0.4381 0.62947 0.76734 0.0
C506 C 0.33203 0.5237 0.86621 0.0
C507 C 0.35561 0.51608 0.97048 0.0
N508 N 0.40673 0.59379 0.79917 0.0
N509 N 0.38835 0.54887 0.9371 0.0
H510 H 0.73782 0.27705 0.28518 0.0
H511 H 0.85749 0.53152 0.16855 0.0
H512 H 0.88909 0.36647 0.30194 0.0
H513 H 0.76164 0.41396 0.06958 0.0
H514 H 0.86263 0.47562 0.22991 0.0
H515 H 0.738 0.33066 0.21677 0.0
C516 C 0.77114 0.30741 0.27369 0.0
C517 C 0.81368 0.31662 0.2979 0.0
C518 C 0.84082 0.46229 0.19451 0.0
C519 C 0.81367 0.37922 0.22246 0.0
C520 C 0.83768 0.49394 0.15977 0.0
C521 C 0.80914 0.47707 0.11413 0.0
C522 C 0.81403 0.41356 0.18425 0.0
C523 C 0.78423 0.42819 0.10427 0.0
C524 C 0.77113 0.33812 0.23514 0.0
C525 C 0.8556 0.35795 0.28376 0.0
N526 N 0.78662 0.39791 0.13963 0.0
N527 N 0.85452 0.38815 0.24724 0.0
H528 H 0.35546 0.77129 0.39462 0.0
H529 H 0.52109 0.89549 0.64047 0.0
H530 H 0.32502 0.85797 0.4988 0.0
H531 H 0.45767 0.74433 0.62154 0.0
H532 H 0.46714 0.89521 0.57176 0.0
H533 H 0.41276 0.77408 0.4607 0.0
C534 C 0.36135 0.79139 0.431 0.0
C535 C 0.33565 0.81444 0.44147 0.0
C536 C 0.46569 0.86232 0.58239 0.0
C537 C 0.40118 0.81848 0.51583 0.0
C538 C 0.49626 0.86237 0.62143 0.0
C539 C 0.49452 0.81995 0.63571 0.0
C540 C 0.43416 0.81979 0.55677 0.0
C541 C 0.46143 0.77798 0.61018 0.0
C542 C 0.39365 0.7927 0.46857 0.0
C543 C 0.34414 0.83967 0.48938 0.0
N544 N 0.43282 0.77896 0.57138 0.0
N545 N 0.37659 0.84142 0.5247 0.0
H546 H 0.65072 0.54178 0.93488 0.0
H547 H 0.50369 0.27058 0.85621 0.0
H548 H 0.69196 0.44087 0.98405 0.0
H549 H 0.52188 0.37715 0.74186 0.0
H550 H 0.56117 0.33278 0.91458 0.0
H551 H 0.5922 0.48185 0.87345 0.0
C552 C 0.6472 0.50697 0.93288 0.0
C553 C 0.67585 0.49594 0.96447 0.0
C554 C 0.55251 0.34252 0.87673 0.0
C555 C 0.60922 0.42777 0.89567 0.0
C556 C 0.51956 0.30713 0.84349 0.0
C557 C 0.50812 0.31874 0.79399 0.0
C558 C 0.57353 0.39004 0.86104 0.0
C559 C 0.53001 0.36673 0.77956 0.0
C560 C 0.6142 0.47309 0.89777 0.0
C561 C 0.67045 0.45065 0.96028 0.0
N562 N 0.56154 0.40083 0.81318 0.0
N563 N 0.63743 0.41804 0.92692 0.0
loop_
_geom_bond_atom_site_label_1
_geom_bond_atom_site_label_2
_geom_bond_distance
_geom_bond_site_symmetry_2
_ccdc_geom_bond_type
Tb0 C2 2.809 . S
Tb0 O20 2.484 . S
Tb0 O21 2.440 . S
Tb0 O22 2.658 1_556 S
Tb0 O23 2.409 . S
Tb0 O24 2.378 . S
Tb0 O28 2.325 . S
Tb0 O31 2.341 1_556 S
Tb1 C11 2.809 . S
Tb1 O22 2.325 . S
Tb1 O25 2.341 1_554 S
Tb1 O26 2.484 . S
Tb1 O27 2.440 . S
Tb1 O28 2.658 1_554 S
Tb1 O29 2.409 . S
Tb1 O30 2.378 . S
C2 Tb0 2.809 . S
C2 C3 1.514 . S
C2 O20 1.248 . S
C2 O21 1.266 . S
C3 C2 1.514 . S
C3 C4 1.359 . S
C3 C8 1.348 . S
C4 C3 1.359 . S
C4 C5 1.380 . S
C4 H32 0.929 . S
C5 C4 1.380 . S
C5 C6 1.347 . S
C5 H33 0.931 . S
C6 C5 1.347 . S
C6 C7 1.369 . S
C7 C6 1.369 . S
C7 C8 1.408 . S
C7 H34 0.930 . S
C8 C3 1.348 . S
C8 C7 1.408 . S
C8 H35 0.930 . S
C9 O22 1.281 . S
C9 O23 1.254 1_554 S
C10 O24 1.236 . S
C10 O25 1.266 . S
C11 Tb1 2.809 . S
C11 C12 1.514 . S
C11 O26 1.248 . S
C11 O27 1.266 . S
C12 C11 1.514 . S
C12 C13 1.359 . S
C12 C17 1.348 . S
C13 C12 1.359 . S
C13 C14 1.380 . S
C13 H36 0.929 . S
C14 C13 1.380 . S
C14 C15 1.347 . S
C14 H37 0.931 . S
C15 C14 1.347 . S
C15 C16 1.369 . S
C16 C15 1.369 . S
C16 C17 1.408 . S
C16 H38 0.930 . S
C17 C12 1.348 . S
C17 C16 1.408 . S
C17 H39 0.930 . S
C18 O28 1.281 . S
C18 O29 1.254 1_556 S
C19 O30 1.236 . S
C19 O31 1.266 . S
O20 Tb0 2.484 . S
O20 C2 1.248 . S
O21 Tb0 2.440 . S
O21 C2 1.266 . S
O22 Tb0 2.658 1_554 S
O22 Tb1 2.325 . S
O22 C9 1.281 . S
O23 Tb0 2.409 . S
O23 C9 1.254 1_556 S
O24 Tb0 2.378 . S
O24 C10 1.236 . S
O25 Tb1 2.341 1_556 S
O25 C10 1.266 . S
O26 Tb1 2.484 . S
O26 C11 1.248 . S
O27 Tb1 2.440 . S
O27 C11 1.266 . S
O28 Tb0 2.325 . S
O28 Tb1 2.658 1_556 S
O28 C18 1.281 . S
O29 Tb1 2.409 . S
O29 C18 1.254 1_554 S
O30 Tb1 2.378 . S
O30 C19 1.236 . S
O31 Tb0 2.341 1_554 S
O31 C19 1.266 . S
H32 C4 0.929 . S
H33 C5 0.931 . S
H34 C7 0.930 . S
H35 C8 0.930 . S
H36 C13 0.929 . S
H37 C14 0.931 . S
H38 C16 0.930 . S
H39 C17 0.930 . S
Tb40 C42 2.809 . S
Tb40 O60 2.484 . S
Tb40 O61 2.440 . S
Tb40 O62 2.658 . S
Tb40 O63 2.409 . S
Tb40 O64 2.378 . S
Tb40 O68 2.325 . S
Tb40 O71 2.341 . S
Tb41 C51 2.809 . S
Tb41 O62 2.325 . S
Tb41 O65 2.341 . S
Tb41 O66 2.484 . S
Tb41 O67 2.440 . S
Tb41 O68 2.658 . S
Tb41 O69 2.409 . S
Tb41 O70 2.378 . S
C42 Tb40 2.809 . S
C42 C43 1.514 . S
C42 O60 1.248 . S
C42 O61 1.266 . S
C43 C42 1.514 . S
C43 C44 1.359 . S
C43 C48 1.348 . S
C44 C43 1.359 . S
C44 C45 1.380 . S
C44 H72 0.929 . S
C45 C44 1.380 . S
C45 C46 1.347 . S
C45 H73 0.931 . S
C46 C45 1.347 . S
C46 C47 1.369 . S
C47 C46 1.369 . S
C47 C48 1.408 . S
C47 H74 0.930 . S
C48 C43 1.348 . S
C48 C47 1.408 . S
C48 H75 0.930 . S
C49 O62 1.281 . S
C49 O63 1.254 . S
C50 O64 1.236 . S
C50 O65 1.266 . S
C51 Tb41 2.809 . S
C51 C52 1.514 . S
C51 O66 1.248 . S
C51 O67 1.266 . S
C52 C51 1.514 . S
C52 C53 1.359 . S
C52 C57 1.348 . S
C53 C52 1.359 . S
C53 C54 1.380 . S
C53 H76 0.929 . S
C54 C53 1.380 . S
C54 C55 1.347 . S
C54 H77 0.931 . S
C55 C54 1.347 . S
C55 C56 1.369 . S
C56 C55 1.369 . S
C56 C57 1.408 . S
C56 H78 0.930 . S
C57 C52 1.348 . S
C57 C56 1.408 . S
C57 H79 0.930 . S
C58 O68 1.281 . S
C58 O69 1.254 . S
C59 O70 1.236 . S
C59 O71 1.266 . S
O60 Tb40 2.484 . S
O60 C42 1.248 . S
O61 Tb40 2.440 . S
O61 C42 1.266 . S
O62 Tb40 2.658 . S
O62 Tb41 2.325 . S
O62 C49 1.281 . S
O63 Tb40 2.409 . S
O63 C49 1.254 . S
O64 Tb40 2.378 . S
O64 C50 1.236 . S
O65 Tb41 2.341 . S
O65 C50 1.266 . S
O66 Tb41 2.484 . S
O66 C51 1.248 . S
O67 Tb41 2.440 . S
O67 C51 1.266 . S
O68 Tb40 2.325 . S
O68 Tb41 2.658 . S
O68 C58 1.281 . S
O69 Tb41 2.409 . S
O69 C58 1.254 . S
O70 Tb41 2.378 . S
O70 C59 1.236 . S
O71 Tb40 2.341 . S
O71 C59 1.266 . S
H72 C44 0.929 . S
H73 C45 0.931 . S
H74 C47 0.930 . S
H75 C48 0.930 . S
H76 C53 0.929 . S
H77 C54 0.931 . S
H78 C56 0.930 . S
H79 C57 0.930 . S
Tb80 C82 2.809 . S
Tb80 O100 2.484 . S
Tb80 O101 2.440 . S
Tb80 O102 2.658 . S
Tb80 O103 2.409 . S
Tb80 O104 2.378 . S
Tb80 O108 2.325 . S
Tb80 O111 2.341 . S
Tb81 C91 2.809 . S
Tb81 O102 2.325 . S
Tb81 O105 2.341 . S
Tb81 O106 2.484 . S
Tb81 O107 2.440 . S
Tb81 O108 2.658 . S
Tb81 O109 2.409 . S
Tb81 O110 2.378 . S
C82 Tb80 2.809 . S
C82 C83 1.514 . S
C82 O100 1.248 . S
C82 O101 1.266 . S
C83 C82 1.514 . S
C83 C84 1.359 . S
C83 C88 1.348 . S
C84 C83 1.359 . S
C84 C85 1.380 . S
C84 H112 0.929 . S
C85 C84 1.380 . S
C85 C86 1.347 . S
C85 H113 0.931 . S
C86 C85 1.347 . S
C86 C87 1.369 . S
C87 C86 1.369 . S
C87 C88 1.408 . S
C87 H114 0.930 . S
C88 C83 1.348 . S
C88 C87 1.408 . S
C88 H115 0.930 . S
C89 O102 1.281 . S
C89 O103 1.254 . S
C90 O104 1.236 . S
C90 O105 1.266 . S
C91 Tb81 2.809 . S
C91 C92 1.514 . S
C91 O106 1.248 . S
C91 O107 1.266 . S
C92 C91 1.514 . S
C92 C93 1.359 . S
C92 C97 1.348 . S
C93 C92 1.359 . S
C93 C94 1.380 . S
C93 H116 0.929 . S
C94 C93 1.380 . S
C94 C95 1.347 1_556 S
C94 H117 0.931 1_556 S
C95 C94 1.347 1_554 S
C95 C96 1.369 1_554 S
C96 C95 1.369 1_556 S
C96 C97 1.408 . S
C96 H118 0.930 . S
C97 C92 1.348 . S
C97 C96 1.408 . S
C97 H119 0.930 . S
C98 O108 1.281 . S
C98 O109 1.254 . S
C99 O110 1.236 . S
C99 O111 1.266 . S
O100 Tb80 2.484 . S
O100 C82 1.248 . S
O101 Tb80 2.440 . S
O101 C82 1.266 . S
O102 Tb80 2.658 . S
O102 Tb81 2.325 . S
O102 C89 1.281 . S
O103 Tb80 2.409 . S
O103 C89 1.254 . S
O104 Tb80 2.378 . S
O104 C90 1.236 . S
O105 Tb81 2.341 . S
O105 C90 1.266 . S
O106 Tb81 2.484 . S
O106 C91 1.248 . S
O107 Tb81 2.440 . S
O107 C91 1.266 . S
O108 Tb80 2.325 . S
O108 Tb81 2.658 . S
O108 C98 1.281 . S
O109 Tb81 2.409 . S
O109 C98 1.254 . S
O110 Tb81 2.378 . S
O110 C99 1.236 . S
O111 Tb80 2.341 . S
O111 C99 1.266 . S
H112 C84 0.929 . S
H113 C85 0.931 . S
H114 C87 0.930 . S
H115 C88 0.930 . S
H116 C93 0.929 . S
H117 C94 0.931 1_554 S
H118 C96 0.930 . S
H119 C97 0.930 . S
Tb120 C122 2.809 . S
Tb120 O140 2.484 . S
Tb120 O141 2.440 . S
Tb120 O142 2.658 1_556 S
Tb120 O143 2.409 . S
Tb120 O144 2.378 . S
Tb120 O148 2.325 . S
Tb120 O151 2.341 1_556 S
Tb121 C131 2.809 . S
Tb121 O142 2.325 . S
Tb121 O145 2.341 1_554 S
Tb121 O146 2.484 . S
Tb121 O147 2.440 . S
Tb121 O148 2.658 1_554 S
Tb121 O149 2.409 . S
Tb121 O150 2.378 . S
C122 Tb120 2.809 . S
C122 C123 1.514 . S
C122 O140 1.248 . S
C122 O141 1.266 . S
C123 C122 1.514 . S
C123 C124 1.359 . S
C123 C128 1.348 . S
C124 C123 1.359 . S
C124 C125 1.380 . S
C124 H152 0.929 . S
C125 C124 1.380 . S
C125 C126 1.347 . S
C125 H153 0.931 . S
C126 C125 1.347 . S
C126 C127 1.369 . S
C127 C126 1.369 . S
C127 C128 1.408 . S
C127 H154 0.930 . S
C128 C123 1.348 . S
C128 C127 1.408 . S
C128 H155 0.930 . S
C129 O142 1.281 . S
C129 O143 1.254 1_554 S
C130 O144 1.236 . S
C130 O145 1.266 . S
C131 Tb121 2.809 . S
C131 C132 1.514 . S
C131 O146 1.248 . S
C131 O147 1.266 . S
C132 C131 1.514 . S
C132 C133 1.359 . S
C132 C137 1.348 . S
C133 C132 1.359 . S
C133 C134 1.380 . S
C133 H156 0.929 . S
C134 C133 1.380 . S
C134 C135 1.347 . S
C134 H157 0.931 . S
C135 C134 1.347 . S
C135 C136 1.369 . S
C136 C135 1.369 . S
C136 C137 1.408 . S
C136 H158 0.930 . S
C137 C132 1.348 . S
C137 C136 1.408 . S
C137 H159 0.930 . S
C138 O148 1.281 . S
C138 O149 1.254 1_556 S
C139 O150 1.236 . S
C139 O151 1.266 . S
O140 Tb120 2.484 . S
O140 C122 1.248 . S
O141 Tb120 2.440 . S
O141 C122 1.266 . S
O142 Tb120 2.658 1_554 S
O142 Tb121 2.325 . S
O142 C129 1.281 . S
O143 Tb120 2.409 . S
O143 C129 1.254 1_556 S
O144 Tb120 2.378 . S
O144 C130 1.236 . S
O145 Tb121 2.341 1_556 S
O145 C130 1.266 . S
O146 Tb121 2.484 . S
O146 C131 1.248 . S
O147 Tb121 2.440 . S
O147 C131 1.266 . S
O148 Tb120 2.325 . S
O148 Tb121 2.658 1_556 S
O148 C138 1.281 . S
O149 Tb121 2.409 . S
O149 C138 1.254 1_554 S
O150 Tb121 2.378 . S
O150 C139 1.236 . S
O151 Tb120 2.341 1_554 S
O151 C139 1.266 . S
H152 C124 0.929 . S
H153 C125 0.931 . S
H154 C127 0.930 . S
H155 C128 0.930 . S
H156 C133 0.929 . S
H157 C134 0.931 . S
H158 C136 0.930 . S
H159 C137 0.930 . S
Tb160 C162 2.809 . S
Tb160 O180 2.484 . S
Tb160 O181 2.440 . S
Tb160 O182 2.658 . S
Tb160 O183 2.409 . S
Tb160 O184 2.378 . S
Tb160 O188 2.325 . S
Tb160 O191 2.341 . S
Tb161 C171 2.809 . S
Tb161 O182 2.325 . S
Tb161 O185 2.341 . S
Tb161 O186 2.484 . S
Tb161 O187 2.440 . S
Tb161 O188 2.658 . S
Tb161 O189 2.409 . S
Tb161 O190 2.378 . S
C162 Tb160 2.809 . S
C162 C163 1.514 . S
C162 O180 1.248 . S
C162 O181 1.266 . S
C163 C162 1.514 . S
C163 C164 1.359 . S
C163 C168 1.348 . S
C164 C163 1.359 . S
C164 C165 1.380 . S
C164 H192 0.929 . S
C165 C164 1.380 . S
C165 C166 1.347 . S
C165 H193 0.931 . S
C166 C165 1.347 . S
C166 C167 1.369 . S
C167 C166 1.369 . S
C167 C168 1.408 . S
C167 H194 0.930 . S
C168 C163 1.348 . S
C168 C167 1.408 . S
C168 H195 0.930 . S
C169 O182 1.281 . S
C169 O183 1.254 . S
C170 O184 1.236 . S
C170 O185 1.266 . S
C171 Tb161 2.809 . S
C171 C172 1.514 . S
C171 O186 1.248 . S
C171 O187 1.266 . S
C172 C171 1.514 . S
C172 C173 1.359 . S
C172 C177 1.348 . S
C173 C172 1.359 . S
C173 C174 1.380 . S
C173 H196 0.929 . S
C174 C173 1.380 . S
C174 C175 1.347 . S
C174 H197 0.931 . S
C175 C174 1.347 . S
C175 C176 1.369 . S
C176 C175 1.369 . S
C176 C177 1.408 . S
C176 H198 0.930 . S
C177 C172 1.348 . S
C177 C176 1.408 . S
C177 H199 0.930 . S
C178 O188 1.281 . S
C178 O189 1.254 . S
C179 O190 1.236 . S
C179 O191 1.266 . S
O180 Tb160 2.484 . S
O180 C162 1.248 . S
O181 Tb160 2.440 . S
O181 C162 1.266 . S
O182 Tb160 2.658 . S
O182 Tb161 2.325 . S
O182 C169 1.281 . S
O183 Tb160 2.409 . S
O183 C169 1.254 . S
O184 Tb160 2.378 . S
O184 C170 1.236 . S
O185 Tb161 2.341 . S
O185 C170 1.266 . S
O186 Tb161 2.484 . S
O186 C171 1.248 . S
O187 Tb161 2.440 . S
O187 C171 1.266 . S
O188 Tb160 2.325 . S
O188 Tb161 2.658 . S
O188 C178 1.281 . S
O189 Tb161 2.409 . S
O189 C178 1.254 . S
O190 Tb161 2.378 . S
O190 C179 1.236 . S
O191 Tb160 2.341 . S
O191 C179 1.266 . S
H192 C164 0.929 . S
H193 C165 0.931 . S
H194 C167 0.930 . S
H195 C168 0.930 . S
H196 C173 0.929 . S
H197 C174 0.931 . S
H198 C176 0.930 . S
H199 C177 0.930 . S
Tb200 C202 2.809 . S
Tb200 O220 2.484 . S
Tb200 O221 2.440 . S
Tb200 O222 2.658 . S
Tb200 O223 2.409 . S
Tb200 O224 2.378 . S
Tb200 O228 2.325 . S
Tb200 O231 2.341 . S
Tb201 C211 2.809 . S
Tb201 O222 2.325 . S
Tb201 O225 2.341 . S
Tb201 O226 2.484 . S
Tb201 O227 2.440 . S
Tb201 O228 2.658 . S
Tb201 O229 2.409 . S
Tb201 O230 2.378 . S
C202 Tb200 2.809 . S
C202 C203 1.514 . S
C202 O220 1.248 . S
C202 O221 1.266 . S
C203 C202 1.514 . S
C203 C204 1.359 . S
C203 C208 1.348 . S
C204 C203 1.359 . S
C204 C205 1.380 . S
C204 H232 0.929 . S
C205 C204 1.380 . S
C205 C206 1.347 . S
C205 H233 0.931 . S
C206 C205 1.347 . S
C206 C207 1.369 . S
C207 C206 1.369 . S
C207 C208 1.408 . S
C207 H234 0.930 . S
C208 C203 1.348 . S
C208 C207 1.408 . S
C208 H235 0.930 . S
C209 O222 1.281 . S
C209 O223 1.254 . S
C210 O224 1.236 . S
C210 O225 1.266 . S
C211 Tb201 2.809 . S
C211 C212 1.514 . S
C211 O226 1.248 . S
C211 O227 1.266 . S
C212 C211 1.514 . S
C212 C213 1.359 . S
C212 C217 1.348 . S
C213 C212 1.359 . S
C213 C214 1.380 . S
C213 H236 0.929 . S
C214 C213 1.380 . S
C214 C215 1.347 1_556 S
C214 H237 0.931 1_556 S
C215 C214 1.347 1_554 S
C215 C216 1.369 1_554 S
C216 C215 1.369 1_556 S
C216 C217 1.408 . S
C216 H238 0.930 . S
C217 C212 1.348 . S
C217 C216 1.408 . S
C217 H239 0.930 . S
C218 O228 1.281 . S
C218 O229 1.254 . S
C219 O230 1.236 . S
C219 O231 1.266 . S
O220 Tb200 2.484 . S
O220 C202 1.248 . S
O221 Tb200 2.440 . S
O221 C202 1.266 . S
O222 Tb200 2.658 . S
O222 Tb201 2.325 . S
O222 C209 1.281 . S
O223 Tb200 2.409 . S
O223 C209 1.254 . S
O224 Tb200 2.378 . S
O224 C210 1.236 . S
O225 Tb201 2.341 . S
O225 C210 1.266 . S
O226 Tb201 2.484 . S
O226 C211 1.248 . S
O227 Tb201 2.440 . S
O227 C211 1.266 . S
O228 Tb200 2.325 . S
O228 Tb201 2.658 . S
O228 C218 1.281 . S
O229 Tb201 2.409 . S
O229 C218 1.254 . S
O230 Tb201 2.378 . S
O230 C219 1.236 . S
O231 Tb200 2.341 . S
O231 C219 1.266 . S
H232 C204 0.929 . S
H233 C205 0.931 . S
H234 C207 0.930 . S
H235 C208 0.930 . S
H236 C213 0.929 . S
H237 C214 0.931 1_554 S
H238 C216 0.930 . S
H239 C217 0.930 . S
H240 C246 0.930 . S
H241 C250 0.930 . S
H242 C255 0.929 . S
H243 C253 0.929 . S
H244 C248 0.929 . S
H245 C254 0.929 . S
C246 H240 0.930 . S
C246 C247 1.367 . S
C246 C254 1.378 . S
C247 C246 1.367 . S
C247 C255 1.433 . S
C248 H244 0.929 . S
C248 C250 1.378 . S
C248 C252 1.350 . S
C249 C252 1.463 . S
C249 C254 1.350 . S
C249 N257 1.427 . S
C250 H241 0.930 . S
C250 C248 1.378 . S
C250 C251 1.367 . S
C251 C250 1.367 . S
C251 C253 1.433 . S
C252 C248 1.350 . S
C252 C249 1.463 . S
C252 N256 1.427 . S
C253 H243 0.929 . S
C253 C251 1.433 . S
C253 N256 1.384 . S
C254 H245 0.929 . S
C254 C246 1.378 . S
C254 C249 1.350 . S
C255 H242 0.929 . S
C255 C247 1.433 . S
C255 N257 1.384 . S
N256 C252 1.427 . S
N256 C253 1.384 . S
N257 C249 1.427 . S
N257 C255 1.384 . S
H258 C264 0.930 . S
H259 C268 0.930 . S
H260 C273 0.929 . S
H261 C271 0.929 . S
H262 C266 0.929 . S
H263 C272 0.929 . S
C264 H258 0.930 . S
C264 C265 1.367 . S
C264 C272 1.378 . S
C265 C264 1.367 . S
C265 C273 1.433 . S
C266 H262 0.929 . S
C266 C268 1.378 . S
C266 C270 1.350 . S
C267 C270 1.463 1_455 S
C267 C272 1.350 . S
C267 N275 1.427 . S
C268 H259 0.930 . S
C268 C266 1.378 . S
C268 C269 1.367 . S
C269 C268 1.367 . S
C269 C271 1.433 . S
C270 C266 1.350 . S
C270 C267 1.463 1_655 S
C270 N274 1.427 . S
C271 H261 0.929 . S
C271 C269 1.433 . S
C271 N274 1.384 . S
C272 H263 0.929 . S
C272 C264 1.378 . S
C272 C267 1.350 . S
C273 H260 0.929 . S
C273 C265 1.433 . S
C273 N275 1.384 . S
N274 C270 1.427 . S
N274 C271 1.384 . S
N275 C267 1.427 . S
N275 C273 1.384 . S
H276 C282 0.930 . S
H277 C286 0.930 . S
H278 C291 0.929 . S
H279 C289 0.929 . S
H280 C284 0.929 1_545 S
H281 C290 0.929 1_565 S
C282 H276 0.930 . S
C282 C283 1.367 . S
C282 C290 1.378 . S
C283 C282 1.367 . S
C283 C291 1.433 . S
C284 H280 0.929 1_565 S
C284 C286 1.378 . S
C284 C288 1.350 . S
C285 C288 1.463 1_545 S
C285 C290 1.350 . S
C285 N293 1.427 . S
C286 H277 0.930 . S
C286 C284 1.378 . S
C286 C287 1.367 . S
C287 C286 1.367 . S
C287 C289 1.433 . S
C288 C284 1.350 . S
C288 C285 1.463 1_565 S
C288 N292 1.427 . S
C289 H279 0.929 . S
C289 C287 1.433 . S
C289 N292 1.384 . S
C290 H281 0.929 1_545 S
C290 C282 1.378 . S
C290 C285 1.350 . S
C291 H278 0.929 . S
C291 C283 1.433 . S
C291 N293 1.384 . S
N292 C288 1.427 . S
N292 C289 1.384 . S
N293 C285 1.427 . S
N293 C291 1.384 . S
H294 C300 0.930 . S
H295 C304 0.930 . S
H296 C309 0.929 . S
H297 C307 0.929 . S
H298 C302 0.929 . S
H299 C308 0.929 . S
C300 H294 0.930 . S
C300 C301 1.367 . S
C300 C308 1.378 . S
C301 C300 1.367 . S
C301 C309 1.433 . S
C302 H298 0.929 . S
C302 C304 1.378 . S
C302 C306 1.350 . S
C303 C306 1.463 . S
C303 C308 1.350 . S
C303 N311 1.427 . S
C304 H295 0.930 . S
C304 C302 1.378 . S
C304 C305 1.367 . S
C305 C304 1.367 . S
C305 C307 1.433 . S
C306 C302 1.350 . S
C306 C303 1.463 . S
C306 N310 1.427 . S
C307 H297 0.929 . S
C307 C305 1.433 . S
C307 N310 1.384 . S
C308 H299 0.929 . S
C308 C300 1.378 . S
C308 C303 1.350 . S
C309 H296 0.929 . S
C309 C301 1.433 . S
C309 N311 1.384 . S
N310 C306 1.427 . S
N310 C307 1.384 . S
N311 C303 1.427 . S
N311 C309 1.384 . S
H312 C318 0.930 . S
H313 C322 0.930 . S
H314 C327 0.929 . S
H315 C325 0.929 . S
H316 C320 0.929 1_455 S
H317 C326 0.929 . S
C318 H312 0.930 . S
C318 C319 1.367 . S
C318 C326 1.378 . S
C319 C318 1.367 . S
C319 C327 1.433 . S
C320 H316 0.929 1_655 S
C320 C322 1.378 . S
C320 C324 1.350 . S
C321 C324 1.463 1_455 S
C321 C326 1.350 . S
C321 N329 1.427 . S
C322 H313 0.930 . S
C322 C320 1.378 . S
C322 C323 1.367 . S
C323 C322 1.367 . S
C323 C325 1.433 . S
C324 C320 1.350 . S
C324 C321 1.463 1_655 S
C324 N328 1.427 . S
C325 H315 0.929 . S
C325 C323 1.433 . S
C325 N328 1.384 . S
C326 H317 0.929 . S
C326 C318 1.378 . S
C326 C321 1.350 . S
C327 H314 0.929 . S
C327 C319 1.433 . S
C327 N329 1.384 . S
N328 C324 1.427 . S
N328 C325 1.384 . S
N329 C321 1.427 . S
N329 C327 1.384 . S
H330 C336 0.930 . S
H331 C340 0.930 . S
H332 C345 0.929 . S
H333 C343 0.929 . S
H334 C338 0.929 . S
H335 C344 0.929 . S
C336 H330 0.930 . S
C336 C337 1.367 . S
C336 C344 1.378 . S
C337 C336 1.367 . S
C337 C345 1.433 . S
C338 H334 0.929 . S
C338 C340 1.378 . S
C338 C342 1.350 . S
C339 C342 1.463 1_545 S
C339 C344 1.350 . S
C339 N347 1.427 . S
C340 H331 0.930 . S
C340 C338 1.378 . S
C340 C341 1.367 . S
C341 C340 1.367 . S
C341 C343 1.433 . S
C342 C338 1.350 . S
C342 C339 1.463 1_565 S
C342 N346 1.427 . S
C343 H333 0.929 . S
C343 C341 1.433 . S
C343 N346 1.384 . S
C344 H335 0.929 . S
C344 C336 1.378 . S
C344 C339 1.350 . S
C345 H332 0.929 . S
C345 C337 1.433 . S
C345 N347 1.384 . S
N346 C342 1.427 . S
N346 C343 1.384 . S
N347 C339 1.427 . S
N347 C345 1.384 . S
H348 C354 0.930 . S
H349 C358 0.930 . S
H350 C363 0.929 . S
H351 C361 0.929 . S
H352 C356 0.929 . S
H353 C362 0.929 . S
C354 H348 0.930 . S
C354 C355 1.367 . S
C354 C362 1.378 . S
C355 C354 1.367 . S
C355 C363 1.433 . S
C356 H352 0.929 . S
C356 C358 1.378 . S
C356 C360 1.350 . S
C357 C360 1.463 . S
C357 C362 1.350 . S
C357 N365 1.427 . S
C358 H349 0.930 . S
C358 C356 1.378 . S
C358 C359 1.367 . S
C359 C358 1.367 . S
C359 C361 1.433 . S
C360 C356 1.350 . S
C360 C357 1.463 . S
C360 N364 1.427 . S
C361 H351 0.929 . S
C361 C359 1.433 . S
C361 N364 1.384 . S
C362 H353 0.929 . S
C362 C354 1.378 . S
C362 C357 1.350 . S
C363 H350 0.929 . S
C363 C355 1.433 . S
C363 N365 1.384 . S
N364 C360 1.427 . S
N364 C361 1.384 . S
N365 C357 1.427 . S
N365 C363 1.384 . S
H366 C372 0.930 . S
H367 C376 0.930 . S
H368 C381 0.929 . S
H369 C379 0.929 . S
H370 C374 0.929 . S
H371 C380 0.929 . S
C372 H366 0.930 . S
C372 C373 1.367 . S
C372 C380 1.378 . S
C373 C372 1.367 . S
C373 C381 1.433 . S
C374 H370 0.929 . S
C374 C376 1.378 . S
C374 C378 1.350 . S
C375 C378 1.463 . S
C375 C380 1.350 . S
C375 N383 1.427 . S
C376 H367 0.930 . S
C376 C374 1.378 . S
C376 C377 1.367 . S
C377 C376 1.367 . S
C377 C379 1.433 . S
C378 C374 1.350 . S
C378 C375 1.463 . S
C378 N382 1.427 . S
C379 H369 0.929 . S
C379 C377 1.433 . S
C379 N382 1.384 . S
C380 H371 0.929 . S
C380 C372 1.378 . S
C380 C375 1.350 . S
C381 H368 0.929 . S
C381 C373 1.433 . S
C381 N383 1.384 . S
N382 C378 1.427 . S
N382 C379 1.384 . S
N383 C375 1.427 . S
N383 C381 1.384 . S
H384 C390 0.930 . S
H385 C394 0.930 . S
H386 C399 0.929 . S
H387 C397 0.929 . S
H388 C392 0.929 . S
H389 C398 0.929 . S
C390 H384 0.930 . S
C390 C391 1.367 . S
C390 C398 1.378 . S
C391 C390 1.367 . S
C391 C399 1.433 . S
C392 H388 0.929 . S
C392 C394 1.378 . S
C392 C396 1.350 . S
C393 C396 1.463 . S
C393 C398 1.350 . S
C393 N401 1.427 . S
C394 H385 0.930 . S
C394 C392 1.378 . S
C394 C395 1.367 . S
C395 C394 1.367 . S
C395 C397 1.433 . S
C396 C392 1.350 . S
C396 C393 1.463 . S
C396 N400 1.427 . S
C397 H387 0.929 . S
C397 C395 1.433 . S
C397 N400 1.384 . S
C398 H389 0.929 . S
C398 C390 1.378 . S
C398 C393 1.350 . S
C399 H386 0.929 . S
C399 C391 1.433 . S
C399 N401 1.384 . S
N400 C396 1.427 . S
N400 C397 1.384 . S
N401 C393 1.427 . S
N401 C399 1.384 . S
H402 C408 0.930 . S
H403 C412 0.930 . S
H404 C417 0.929 . S
H405 C415 0.929 . S
H406 C410 0.929 . S
H407 C416 0.929 . S
C408 H402 0.930 . S
C408 C409 1.367 . S
C408 C416 1.378 . S
C409 C408 1.367 . S
C409 C417 1.433 . S
C410 H406 0.929 . S
C410 C412 1.378 . S
C410 C414 1.350 . S
C411 C414 1.463 . S
C411 C416 1.350 . S
C411 N419 1.427 . S
C412 H403 0.930 . S
C412 C410 1.378 . S
C412 C413 1.367 . S
C413 C412 1.367 . S
C413 C415 1.433 . S
C414 C410 1.350 . S
C414 C411 1.463 . S
C414 N418 1.427 . S
C415 H405 0.929 . S
C415 C413 1.433 . S
C415 N418 1.384 . S
C416 H407 0.929 . S
C416 C408 1.378 . S
C416 C411 1.350 . S
C417 H404 0.929 . S
C417 C409 1.433 . S
C417 N419 1.384 . S
N418 C414 1.427 . S
N418 C415 1.384 . S
N419 C411 1.427 . S
N419 C417 1.384 . S
H420 C426 0.930 . S
H421 C430 0.930 . S
H422 C435 0.929 . S
H423 C433 0.929 . S
H424 C428 0.929 . S
H425 C434 0.929 . S
C426 H420 0.930 . S
C426 C427 1.367 . S
C426 C434 1.378 . S
C427 C426 1.367 . S
C427 C435 1.433 . S
C428 H424 0.929 . S
C428 C430 1.378 . S
C428 C432 1.350 . S
C429 C432 1.463 . S
C429 C434 1.350 . S
C429 N437 1.427 . S
C430 H421 0.930 . S
C430 C428 1.378 . S
C430 C431 1.367 . S
C431 C430 1.367 . S
C431 C433 1.433 . S
C432 C428 1.350 . S
C432 C429 1.463 . S
C432 N436 1.427 . S
C433 H423 0.929 . S
C433 C431 1.433 . S
C433 N436 1.384 . S
C434 H425 0.929 . S
C434 C426 1.378 . S
C434 C429 1.350 . S
C435 H422 0.929 . S
C435 C427 1.433 . S
C435 N437 1.384 . S
N436 C432 1.427 . S
N436 C433 1.384 . S
N437 C429 1.427 . S
N437 C435 1.384 . S
H438 C444 0.930 . S
H439 C448 0.930 . S
H440 C453 0.929 . S
H441 C451 0.929 . S
H442 C446 0.929 . S
H443 C452 0.929 . S
C444 H438 0.930 . S
C444 C445 1.367 . S
C444 C452 1.378 . S
C445 C444 1.367 . S
C445 C453 1.433 . S
C446 H442 0.929 . S
C446 C448 1.378 . S
C446 C450 1.350 . S
C447 C450 1.463 . S
C447 C452 1.350 . S
C447 N455 1.427 . S
C448 H439 0.930 . S
C448 C446 1.378 . S
C448 C449 1.367 . S
C449 C448 1.367 . S
C449 C451 1.433 . S
C450 C446 1.350 . S
C450 C447 1.463 . S
C450 N454 1.427 . S
C451 H441 0.929 . S
C451 C449 1.433 . S
C451 N454 1.384 . S
C452 H443 0.929 . S
C452 C444 1.378 . S
C452 C447 1.350 . S
C453 H440 0.929 . S
C453 C445 1.433 . S
C453 N455 1.384 . S
N454 C450 1.427 . S
N454 C451 1.384 . S
N455 C447 1.427 . S
N455 C453 1.384 . S
H456 C462 0.930 . S
H457 C466 0.930 . S
H458 C471 0.929 . S
H459 C469 0.929 . S
H460 C464 0.929 . S
H461 C470 0.929 . S
C462 H456 0.930 . S
C462 C463 1.367 . S
C462 C470 1.378 . S
C463 C462 1.367 . S
C463 C471 1.433 . S
C464 H460 0.929 . S
C464 C466 1.378 . S
C464 C468 1.350 . S
C465 C468 1.463 . S
C465 C470 1.350 . S
C465 N473 1.427 . S
C466 H457 0.930 . S
C466 C464 1.378 . S
C466 C467 1.367 . S
C467 C466 1.367 . S
C467 C469 1.433 . S
C468 C464 1.350 . S
C468 C465 1.463 . S
C468 N472 1.427 . S
C469 H459 0.929 . S
C469 C467 1.433 . S
C469 N472 1.384 . S
C470 H461 0.929 . S
C470 C462 1.378 . S
C470 C465 1.350 . S
C471 H458 0.929 . S
C471 C463 1.433 . S
C471 N473 1.384 . S
N472 C468 1.427 . S
N472 C469 1.384 . S
N473 C465 1.427 . S
N473 C471 1.384 . S
H474 C480 0.930 . S
H475 C484 0.930 . S
H476 C489 0.929 . S
H477 C487 0.929 . S
H478 C482 0.929 . S
H479 C488 0.929 . S
C480 H474 0.930 . S
C480 C481 1.367 . S
C480 C488 1.378 . S
C481 C480 1.367 . S
C481 C489 1.433 . S
C482 H478 0.929 . S
C482 C484 1.378 . S
C482 C486 1.350 . S
C483 C486 1.463 . S
C483 C488 1.350 . S
C483 N491 1.427 . S
C484 H475 0.930 . S
C484 C482 1.378 . S
C484 C485 1.367 . S
C485 C484 1.367 . S
C485 C487 1.433 . S
C486 C482 1.350 . S
C486 C483 1.463 . S
C486 N490 1.427 . S
C487 H477 0.929 . S
C487 C485 1.433 . S
C487 N490 1.384 . S
C488 H479 0.929 . S
C488 C480 1.378 . S
C488 C483 1.350 . S
C489 H476 0.929 . S
C489 C481 1.433 . S
C489 N491 1.384 . S
N490 C486 1.427 . S
N490 C487 1.384 . S
N491 C483 1.427 . S
N491 C489 1.384 . S
H492 C498 0.930 . S
H493 C502 0.930 . S
H494 C507 0.929 1_554 S
H495 C505 0.929 . S
H496 C500 0.929 . S
H497 C506 0.929 . S
C498 H492 0.930 . S
C498 C499 1.367 . S
C498 C506 1.378 . S
C499 C498 1.367 . S
C499 C507 1.433 . S
C500 H496 0.929 . S
C500 C502 1.378 . S
C500 C504 1.350 . S
C501 C504 1.463 . S
C501 C506 1.350 . S
C501 N509 1.427 . S
C502 H493 0.930 . S
C502 C500 1.378 . S
C502 C503 1.367 . S
C503 C502 1.367 . S
C503 C505 1.433 . S
C504 C500 1.350 . S
C504 C501 1.463 . S
C504 N508 1.427 . S
C505 H495 0.929 . S
C505 C503 1.433 . S
C505 N508 1.384 . S
C506 H497 0.929 . S
C506 C498 1.378 . S
C506 C501 1.350 . S
C507 H494 0.929 1_556 S
C507 C499 1.433 . S
C507 N509 1.384 . S
N508 C504 1.427 . S
N508 C505 1.384 . S
N509 C501 1.427 . S
N509 C507 1.384 . S
H510 C516 0.930 . S
H511 C520 0.930 . S
H512 C525 0.929 . S
H513 C523 0.929 . S
H514 C518 0.929 . S
H515 C524 0.929 . S
C516 H510 0.930 . S
C516 C517 1.367 . S
C516 C524 1.378 . S
C517 C516 1.367 . S
C517 C525 1.433 . S
C518 H514 0.929 . S
C518 C520 1.378 . S
C518 C522 1.350 . S
C519 C522 1.463 . S
C519 C524 1.350 . S
C519 N527 1.427 . S
C520 H511 0.930 . S
C520 C518 1.378 . S
C520 C521 1.367 . S
C521 C520 1.367 . S
C521 C523 1.433 . S
C522 C518 1.350 . S
C522 C519 1.463 . S
C522 N526 1.427 . S
C523 H513 0.929 . S
C523 C521 1.433 . S
C523 N526 1.384 . S
C524 H515 0.929 . S
C524 C516 1.378 . S
C524 C519 1.350 . S
C525 H512 0.929 . S
C525 C517 1.433 . S
C525 N527 1.384 . S
N526 C522 1.427 . S
N526 C523 1.384 . S
N527 C519 1.427 . S
N527 C525 1.384 . S
H528 C534 0.930 . S
H529 C538 0.930 . S
H530 C543 0.929 . S
H531 C541 0.929 . S
H532 C536 0.929 . S
H533 C542 0.929 . S
C534 H528 0.930 . S
C534 C535 1.367 . S
C534 C542 1.378 . S
C535 C534 1.367 . S
C535 C543 1.433 . S
C536 H532 0.929 . S
C536 C538 1.378 . S
C536 C540 1.350 . S
C537 C540 1.463 . S
C537 C542 1.350 . S
C537 N545 1.427 . S
C538 H529 0.930 . S
C538 C536 1.378 . S
C538 C539 1.367 . S
C539 C538 1.367 . S
C539 C541 1.433 . S
C540 C536 1.350 . S
C540 C537 1.463 . S
C540 N544 1.427 . S
C541 H531 0.929 . S
C541 C539 1.433 . S
C541 N544 1.384 . S
C542 H533 0.929 . S
C542 C534 1.378 . S
C542 C537 1.350 . S
C543 H530 0.929 . S
C543 C535 1.433 . S
C543 N545 1.384 . S
N544 C540 1.427 . S
N544 C541 1.384 . S
N545 C537 1.427 . S
N545 C543 1.384 . S
H546 C552 0.930 . S
H547 C556 0.930 . S
H548 C561 0.929 1_554 S
H549 C559 0.929 . S
H550 C554 0.929 . S
H551 C560 0.929 . S
C552 H546 0.930 . S
C552 C553 1.367 . S
C552 C560 1.378 . S
C553 C552 1.367 . S
C553 C561 1.433 . S
C554 H550 0.929 . S
C554 C556 1.378 . S
C554 C558 1.350 . S
C555 C558 1.463 . S
C555 C560 1.350 . S
C555 N563 1.427 . S
C556 H547 0.930 . S
C556 C554 1.378 . S
C556 C557 1.367 . S
C557 C556 1.367 . S
C557 C559 1.433 . S
C558 C554 1.350 . S
C558 C555 1.463 . S
C558 N562 1.427 . S
C559 H549 0.929 . S
C559 C557 1.433 . S
C559 N562 1.384 . S
C560 H551 0.929 . S
C560 C552 1.378 . S
C560 C555 1.350 . S
C561 H548 0.929 1_556 S
C561 C553 1.433 . S
C561 N563 1.384 . S
N562 C558 1.427 . S
N562 C559 1.384 . S
N563 C555 1.427 . S
N563 C561 1.384 . S
C247 C209 1.327 . S
C251 C10 1.392 . S
C265 C9 1.319 . S
C269 C50 1.393 . S
C283 C49 1.334 . S
C287 C90 1.391 . S
C301 C89 1.323 . S
C305 C130 1.393 . S
C319 C170 1.393 . S
C323 C129 1.320 . S
C337 C210 1.390 . S
C341 C169 1.338 . S
C355 C6 1.499 . S
C359 C15 1.499 . S
C373 C46 1.498 1_556 S
C377 C55 1.498 . S
C391 C86 1.507 . S
C395 C95 1.507 . S
C409 C126 1.506 . S
C413 C135 1.506 . S
C427 C175 1.494 . S
C431 C166 1.494 1_556 S
C445 C206 1.496 . S
C449 C215 1.496 . S
C463 C19 1.716 . S
C467 C178 1.722 . S
C481 C59 1.714 . S
C485 C218 1.721 . S
C499 C18 1.721 . S
C503 C99 1.714 . S
C517 C58 1.723 . S
C521 C139 1.717 . S
C535 C179 1.710 . S
C539 C98 1.717 . S
C553 C138 1.721 . S
C557 C219 1.715 . S
