# Generated by pormake.
# Topology wje, (4)-cn, num edge types: 1
# Building blocks:
#     Node 0, Type 0, BuildingBlock: CEKHIL_clean_sbu_0, # of connection points: 4
#     Node 1, Type 0, BuildingBlock: CEKHIL_clean_sbu_0, # of connection points: 4
#     Node 2, Type 0, BuildingBlock: CEKHIL_clean_sbu_0, # of connection points: 4
#     Node 3, Type 0, BuildingBlock: CEKHIL_clean_sbu_0, # of connection points: 4
#     Node 4, Type 0, BuildingBlock: CEKHIL_clean_sbu_0, # of connection points: 4
#     Node 5, Type 0, BuildingBlock: CEKHIL_clean_sbu_0, # of connection points: 4
#     Node 6, Type 0, BuildingBlock: CEKHIL_clean_sbu_0, # of connection points: 4
#     Node 7, Type 0, BuildingBlock: CEKHIL_clean_sbu_0, # of connection points: 4
#     Node 8, Type 0, BuildingBlock: CEKHIL_clean_sbu_0, # of connection points: 4
#     Node 9, Type 0, BuildingBlock: CEKHIL_clean_sbu_0, # of connection points: 4
#     Node 10, Type 0, BuildingBlock: CEKHIL_clean_sbu_0, # of connection points: 4
#     Node 11, Type 0, BuildingBlock: CEKHIL_clean_sbu_0, # of connection points: 4
#     Edge 12, Type (0, 0), BuildingBlock: XIVTED_clean_linker_0, # of connection points: 2
#     Edge 13, Type (0, 0), BuildingBlock: XIVTED_clean_linker_0, # of connection points: 2
#     Edge 14, Type (0, 0), BuildingBlock: XIVTED_clean_linker_0, # of connection points: 2
#     Edge 15, Type (0, 0), BuildingBlock: XIVTED_clean_linker_0, # of connection points: 2
#     Edge 16, Type (0, 0), BuildingBlock: XIVTED_clean_linker_0, # of connection points: 2
#     Edge 17, Type (0, 0), BuildingBlock: XIVTED_clean_linker_0, # of connection points: 2
#     Edge 18, Type (0, 0), BuildingBlock: XIVTED_clean_linker_0, # of connection points: 2
#     Edge 19, Type (0, 0), BuildingBlock: XIVTED_clean_linker_0, # of connection points: 2
#     Edge 20, Type (0, 0), BuildingBlock: XIVTED_clean_linker_0, # of connection points: 2
#     Edge 21, Type (0, 0), BuildingBlock: XIVTED_clean_linker_0, # of connection points: 2
#     Edge 22, Type (0, 0), BuildingBlock: XIVTED_clean_linker_0, # of connection points: 2
#     Edge 23, Type (0, 0), BuildingBlock: XIVTED_clean_linker_0, # of connection points: 2
#     Edge 24, Type (0, 0), BuildingBlock: XIVTED_clean_linker_0, # of connection points: 2
#     Edge 25, Type (0, 0), BuildingBlock: XIVTED_clean_linker_0, # of connection points: 2
#     Edge 26, Type (0, 0), BuildingBlock: XIVTED_clean_linker_0, # of connection points: 2
#     Edge 27, Type (0, 0), BuildingBlock: XIVTED_clean_linker_0, # of connection points: 2
#     Edge 28, Type (0, 0), BuildingBlock: XIVTED_clean_linker_0, # of connection points: 2
#     Edge 29, Type (0, 0), BuildingBlock: XIVTED_clean_linker_0, # of connection points: 2
#     Edge 30, Type (0, 0), BuildingBlock: XIVTED_clean_linker_0, # of connection points: 2
#     Edge 31, Type (0, 0), BuildingBlock: XIVTED_clean_linker_0, # of connection points: 2
#     Edge 32, Type (0, 0), BuildingBlock: XIVTED_clean_linker_0, # of connection points: 2
#     Edge 33, Type (0, 0), BuildingBlock: XIVTED_clean_linker_0, # of connection points: 2
#     Edge 34, Type (0, 0), BuildingBlock: XIVTED_clean_linker_0, # of connection points: 2
#     Edge 35, Type (0, 0), BuildingBlock: XIVTED_clean_linker_0, # of connection points: 2
# Relax obj value: 0.162
# Max RMSD: 0.099
# Mean RMSD: 0.099
data_MOF--net-wje--node1-CEKHIL_clean_sbu_0--edge1-XIVTED_clean_linker_0
_symmetry_space_group_name_H-M    P1
_symmetry_Int_Tables_number       1
_symmetry_cell_setting            triclinic
loop_
_symmetry_equiv_pos_as_xyz
'x, y, z'
_cell_length_a     39.417189
_cell_length_b     39.419468
_cell_length_c     37.944437
_cell_angle_alpha  89.99284
_cell_angle_beta   90.00379
_cell_angle_gamma 119.96803
loop_
_atom_site_label
_atom_site_type_symbol
_atom_site_fract_x
_atom_site_fract_y
_atom_site_fract_z
_atom_type_partial_charge
Co0 Co 0.31806 0.02294 0.30141 0.0
O1 O 0.32208 0.03929 0.25303 0.0
O2 O 0.34683 0.08021 0.29773 0.0
C3 C 0.25357 0.97847 0.29939 0.0
O4 O 0.3172 0.01473 0.35548 0.0
Co5 Co 0.2932 0.9355 0.31621 0.0
O6 O 0.28682 0.94952 0.36488 0.0
C7 C 0.37297 0.99027 0.29076 0.0
C8 C 0.34064 0.07517 0.26385 0.0
C9 C 0.3016 0.98453 0.37629 0.0
O10 O 0.36775 0.01977 0.29593 0.0
O11 O 0.34559 0.95465 0.29402 0.0
O12 O 0.26476 0.01514 0.30465 0.0
O13 O 0.28117 0.97116 0.29228 0.0
Co14 Co 0.29031 0.31522 0.63447 0.0
O15 O 0.27804 0.32014 0.58625 0.0
O16 O 0.2648 0.34693 0.63128 0.0
C17 C 0.26637 0.25001 0.63229 0.0
O18 O 0.29813 0.3141 0.68843 0.0
Co19 Co 0.34857 0.28469 0.64884 0.0
O20 O 0.32876 0.27947 0.69765 0.0
C21 C 0.37862 0.36588 0.62437 0.0
C22 C 0.26268 0.34044 0.59742 0.0
C23 C 0.31094 0.29676 0.70917 0.0
O24 O 0.34461 0.3627 0.62865 0.0
O25 O 0.38478 0.3371 0.62793 0.0
O26 O 0.2428 0.26348 0.63809 0.0
O27 O 0.3019 0.27597 0.62495 0.0
Co28 Co 0.97417 0.2964 0.96718 0.0
O29 O 0.95776 0.28315 0.91892 0.0
O30 O 0.91691 0.26727 0.96368 0.0
C31 C 0.01937 0.27728 0.96591 0.0
O32 O 0.98246 0.30469 0.02114 0.0
Co33 Co 0.06129 0.36031 0.98128 0.0
O34 O 0.04758 0.34138 0.03039 0.0
C35 C 0.0055 0.38338 0.9547 0.0
C36 C 0.9219 0.26573 0.92985 0.0
C37 C 0.01269 0.32059 0.0419 0.0
O38 O 0.97642 0.34872 0.96084 0.0
O39 O 0.04132 0.39219 0.95772 0.0
O40 O 0.98281 0.25148 0.97122 0.0
O41 O 0.02612 0.31187 0.95817 0.0
Co42 Co 0.68593 0.9767 0.30171 0.0
O43 O 0.68179 0.95964 0.25355 0.0
O44 O 0.65122 0.91988 0.29794 0.0
C45 C 0.75156 0.01383 0.30195 0.0
O46 O 0.68572 0.98558 0.3555 0.0
Co47 Co 0.72068 0.06597 0.31544 0.0
O48 O 0.72268 0.05062 0.36476 0.0
C49 C 0.63919 0.01882 0.2907 0.0
C50 C 0.65913 0.92419 0.2643 0.0
C51 C 0.70351 0.01559 0.37631 0.0
O52 O 0.641 0.98717 0.29414 0.0
O53 O 0.66874 0.0531 0.29516 0.0
O54 O 0.73509 0.97645 0.30764 0.0
O55 O 0.72837 0.02653 0.29294 0.0
Co56 Co 0.70658 0.68159 0.63626 0.0
O57 O 0.71848 0.67684 0.58791 0.0
O58 O 0.73247 0.65032 0.6327 0.0
C59 C 0.72993 0.74668 0.63404 0.0
O60 O 0.69939 0.68261 0.69029 0.0
Co61 Co 0.64795 0.71139 0.65164 0.0
O62 O 0.66784 0.71619 0.70036 0.0
C63 C 0.61835 0.63054 0.62643 0.0
C64 C 0.73424 0.65681 0.59886 0.0
C65 C 0.68628 0.69934 0.71142 0.0
O66 O 0.65242 0.63383 0.63068 0.0
O67 O 0.61206 0.65919 0.63022 0.0
O68 O 0.75384 0.73357 0.63962 0.0
O69 O 0.69439 0.72047 0.62708 0.0
Co70 Co 0.02044 0.70944 0.96678 0.0
O71 O 0.03701 0.72234 0.91852 0.0
O72 O 0.0771 0.73079 0.96246 0.0
C73 C 0.98399 0.73868 0.9677 0.0
O74 O 0.01215 0.70021 0.02059 0.0
Co75 Co 0.93125 0.65594 0.98151 0.0
O76 O 0.94738 0.67331 0.0307 0.0
C77 C 0.9772 0.62066 0.95566 0.0
C78 C 0.07249 0.73458 0.92891 0.0
C79 C 0.98254 0.68856 0.04179 0.0
O80 O 0.00915 0.65387 0.95881 0.0
O81 O 0.94317 0.61638 0.96076 0.0
O82 O 0.02143 0.75916 0.97316 0.0
O83 O 0.97077 0.70274 0.95864 0.0
Co84 Co 0.97123 0.67767 0.38273 0.0
O85 O 0.95517 0.67424 0.43117 0.0
O86 O 0.91407 0.64876 0.38664 0.0
C87 C 0.01562 0.74221 0.38375 0.0
O88 O 0.97887 0.67774 0.32869 0.0
Co89 Co 0.05845 0.70234 0.36721 0.0
O90 O 0.04391 0.7079 0.31849 0.0
C91 C 0.0041 0.62292 0.39358 0.0
C92 C 0.91923 0.65539 0.42044 0.0
C93 C 0.00873 0.69295 0.3075 0.0
O94 O 0.97456 0.62813 0.38866 0.0
O95 O 0.03968 0.65023 0.38986 0.0
O96 O 0.97883 0.73082 0.37892 0.0
O97 O 0.02313 0.71481 0.39124 0.0
Co98 Co 0.28888 0.97346 0.71676 0.0
O99 O 0.27688 0.95666 0.76507 0.0
O100 O 0.26321 0.9163 0.72022 0.0
C101 C 0.26522 0.015 0.71856 0.0
O102 O 0.2964 0.98203 0.66275 0.0
Co103 Co 0.34765 0.06196 0.70208 0.0
O104 O 0.32761 0.04725 0.65335 0.0
C105 C 0.37726 0.01047 0.72647 0.0
C106 C 0.26138 0.92093 0.75407 0.0
C107 C 0.30941 0.01212 0.64193 0.0
O108 O 0.34306 0.97989 0.72242 0.0
O109 O 0.38378 0.0455 0.72279 0.0
O110 O 0.24149 0.97792 0.71324 0.0
O111 O 0.30073 0.02446 0.72594 0.0
Co112 Co 0.32015 0.29449 0.04986 0.0
O113 O 0.32328 0.28163 0.09828 0.0
O114 O 0.34843 0.26549 0.05386 0.0
C115 C 0.25577 0.27513 0.05086 0.0
O116 O 0.32013 0.30236 0.99578 0.0
Co117 Co 0.29665 0.35811 0.03517 0.0
O118 O 0.29092 0.33833 0.98633 0.0
C119 C 0.3757 0.38174 0.06154 0.0
C120 C 0.34178 0.26415 0.08766 0.0
C121 C 0.30528 0.3177 0.97493 0.0
O122 O 0.37011 0.34697 0.05598 0.0
O123 O 0.34866 0.39049 0.05822 0.0
O124 O 0.26673 0.24941 0.04594 0.0
O125 O 0.28347 0.30981 0.05852 0.0
Co126 Co 0.02415 0.3129 0.38215 0.0
O127 O 0.04097 0.31646 0.43034 0.0
O128 O 0.08095 0.3476 0.38625 0.0
C129 C 0.98702 0.24729 0.38136 0.0
O130 O 0.01554 0.31377 0.32836 0.0
Co131 Co 0.93499 0.27824 0.36791 0.0
O132 O 0.95069 0.27568 0.31883 0.0
C133 C 0.98196 0.35953 0.39332 0.0
C134 C 0.07648 0.33927 0.41981 0.0
C135 C 0.98574 0.29538 0.30743 0.0
O136 O 0.01364 0.35772 0.39016 0.0
O137 O 0.94773 0.33009 0.38834 0.0
O138 O 0.02442 0.26381 0.37575 0.0
O139 O 0.97428 0.2704 0.39054 0.0
Co140 Co 0.70671 0.02381 0.71696 0.0
O141 O 0.71852 0.04004 0.7654 0.0
O142 O 0.73278 0.08094 0.7209 0.0
C143 C 0.72984 0.98182 0.71846 0.0
O144 O 0.69951 0.01583 0.6629 0.0
Co145 Co 0.64739 0.93558 0.70166 0.0
O146 O 0.66771 0.95067 0.65306 0.0
C147 C 0.61838 0.98738 0.72652 0.0
C148 C 0.73438 0.07591 0.75471 0.0
C149 C 0.68632 0.98588 0.64188 0.0
O150 O 0.65269 0.01782 0.72252 0.0
O151 O 0.6116 0.95228 0.7227 0.0
O152 O 0.75385 0.0189 0.71348 0.0
O153 O 0.69437 0.9726 0.72573 0.0
Co154 Co 0.68625 0.7109 0.05232 0.0
O155 O 0.68221 0.72355 0.1006 0.0
O156 O 0.65156 0.73303 0.05642 0.0
C157 C 0.75187 0.73928 0.05205 0.0
O158 O 0.68584 0.70216 0.99844 0.0
Co159 Co 0.72097 0.65652 0.0376 0.0
O160 O 0.72292 0.67433 0.98845 0.0
C161 C 0.63954 0.62203 0.0627 0.0
C162 C 0.65953 0.73643 0.09004 0.0
C163 C 0.70359 0.69021 0.9773 0.0
O164 O 0.64134 0.65552 0.05972 0.0
O165 O 0.66905 0.6173 0.05779 0.0
O166 O 0.73544 0.76027 0.04653 0.0
O167 O 0.72864 0.70332 0.06077 0.0
H168 H 0.34695 0.07281 0.19254 0.0
H169 H 0.3468 0.27213 0.15907 0.0
H170 H 0.35715 0.15104 0.27652 0.0
H171 H 0.35857 0.20492 0.07521 0.0
H172 H 0.35424 0.23035 0.2022 0.0
H173 H 0.3549 0.1223 0.1495 0.0
C174 C 0.35134 0.10065 0.20199 0.0
C175 C 0.35117 0.10764 0.23831 0.0
C176 C 0.35569 0.22492 0.17442 0.0
C177 C 0.35978 0.16457 0.18878 0.0
C178 C 0.35141 0.2488 0.14967 0.0
C179 C 0.35185 0.24196 0.11334 0.0
C180 C 0.3599 0.19336 0.16297 0.0
C181 C 0.3581 0.21135 0.10288 0.0
C182 C 0.3559 0.12896 0.17729 0.0
C183 C 0.35715 0.14437 0.24885 0.0
N184 N 0.36137 0.1879 0.12755 0.0
N185 N 0.36069 0.17122 0.22422 0.0
H186 H 0.20532 0.35935 0.61139 0.0
H187 H 0.15385 0.36201 0.40631 0.0
H188 H 0.27048 0.34696 0.52599 0.0
H189 H 0.07376 0.34332 0.49131 0.0
H190 H 0.20384 0.37103 0.45002 0.0
H191 H 0.16387 0.36793 0.56792 0.0
C192 C 0.21141 0.35921 0.58358 0.0
C193 C 0.24125 0.35215 0.57237 0.0
C194 C 0.17546 0.36548 0.45907 0.0
C195 C 0.19392 0.3618 0.52243 0.0
C196 C 0.14704 0.36063 0.43411 0.0
C197 C 0.10947 0.35164 0.44511 0.0
C198 C 0.16637 0.36174 0.4953 0.0
C199 C 0.10222 0.34988 0.48157 0.0
C200 C 0.1876 0.36384 0.55874 0.0
C201 C 0.2476 0.35199 0.53588 0.0
N202 N 0.13021 0.35464 0.50525 0.0
N203 N 0.2241 0.3565 0.51232 0.0
H204 H 0.72613 0.07314 0.82609 0.0
H205 H 0.92392 0.27389 0.85851 0.0
H206 H 0.79195 0.1524 0.74194 0.0
H207 H 0.84631 0.2061 0.94292 0.0
H208 H 0.87436 0.23194 0.81574 0.0
H209 H 0.76738 0.12291 0.86904 0.0
C210 C 0.749 0.10128 0.8166 0.0
C211 C 0.75567 0.10848 0.78025 0.0
C212 C 0.86784 0.22642 0.84357 0.0
C213 C 0.80366 0.1657 0.82963 0.0
C214 C 0.89619 0.25039 0.86811 0.0
C215 C 0.8894 0.24343 0.90447 0.0
C216 C 0.8324 0.19465 0.85526 0.0
C217 C 0.85282 0.21262 0.91521 0.0
C218 C 0.77258 0.12974 0.84123 0.0
C219 C 0.78566 0.14557 0.76963 0.0
N220 N 0.82592 0.18907 0.89073 0.0
N221 N 0.80887 0.17256 0.79419 0.0
H222 H 0.6537 0.72803 0.16136 0.0
H223 H 0.65224 0.92615 0.19309 0.0
H224 H 0.63825 0.79226 0.07693 0.0
H225 H 0.63892 0.84743 0.27768 0.0
H226 H 0.64294 0.87583 0.15042 0.0
H227 H 0.64416 0.76883 0.20414 0.0
C228 C 0.64768 0.75039 0.15178 0.0
C229 C 0.64694 0.7568 0.11541 0.0
C230 C 0.64142 0.86921 0.17826 0.0
C231 C 0.63669 0.80437 0.16457 0.0
C232 C 0.64672 0.89797 0.20273 0.0
C233 C 0.64651 0.8911 0.23911 0.0
C234 C 0.63657 0.8333 0.19006 0.0
C235 C 0.63917 0.85398 0.24995 0.0
C236 C 0.64224 0.77372 0.17631 0.0
C237 C 0.63894 0.78617 0.10466 0.0
N238 N 0.63513 0.82672 0.22555 0.0
N239 N 0.63475 0.80925 0.1291 0.0
H240 H 0.84289 0.63658 0.40715 0.0
H241 H 0.79148 0.63764 0.61242 0.0
H242 H 0.92193 0.65149 0.49204 0.0
H243 H 0.72668 0.6513 0.5274 0.0
H244 H 0.83289 0.62937 0.56872 0.0
H245 H 0.79346 0.62875 0.45093 0.0
C246 C 0.84962 0.63755 0.43493 0.0
C247 C 0.88673 0.645 0.44588 0.0
C248 C 0.80927 0.6337 0.55967 0.0
C249 C 0.8304 0.63616 0.49616 0.0
C250 C 0.78547 0.63815 0.58463 0.0
C251 C 0.75573 0.64544 0.5736 0.0
C252 C 0.80304 0.63618 0.52342 0.0
C253 C 0.74948 0.64607 0.53715 0.0
C254 C 0.8215 0.6333 0.45994 0.0
C255 C 0.89385 0.64614 0.48233 0.0
N256 N 0.77297 0.64174 0.51347 0.0
N257 N 0.86614 0.64199 0.50606 0.0
H258 H 0.27063 0.92253 0.82529 0.0
H259 H 0.06944 0.72615 0.85763 0.0
H260 H 0.20299 0.84492 0.74085 0.0
H261 H 0.14985 0.78971 0.94176 0.0
H262 H 0.11963 0.7666 0.81467 0.0
H263 H 0.22929 0.8725 0.86803 0.0
C264 C 0.24736 0.89468 0.81568 0.0
C265 C 0.24018 0.88804 0.77933 0.0
C266 C 0.12664 0.77143 0.84246 0.0
C267 C 0.19205 0.83056 0.82848 0.0
C268 C 0.09795 0.74829 0.8671 0.0
C269 C 0.10535 0.75463 0.90344 0.0
C270 C 0.16303 0.80182 0.85407 0.0
C271 C 0.14288 0.7837 0.91405 0.0
C272 C 0.22373 0.86607 0.84019 0.0
C273 C 0.20967 0.85131 0.76855 0.0
N274 N 0.17009 0.80661 0.88951 0.0
N275 N 0.18638 0.82421 0.793 0.0
H276 H 0.39214 0.93594 0.26912 0.0
H277 H 0.62295 0.07873 0.2862 0.0
H278 H 0.44447 0.05876 0.2947 0.0
H279 H 0.56757 0.95273 0.2794 0.0
H280 H 0.55899 0.0736 0.28035 0.0
H281 H 0.45705 0.94382 0.26349 0.0
C282 C 0.41729 0.96475 0.27333 0.0
C283 C 0.41266 0.99668 0.28293 0.0
C284 C 0.56087 0.04711 0.2799 0.0
C285 C 0.48755 0.00575 0.27649 0.0
C286 C 0.59744 0.04993 0.28316 0.0
C287 C 0.6008 0.01601 0.28363 0.0
C288 C 0.52723 0.01015 0.27691 0.0
C289 C 0.56653 0.97966 0.27942 0.0
C290 C 0.45444 0.96915 0.27012 0.0
C291 C 0.44654 0.03329 0.28747 0.0
N292 N 0.5312 0.9777 0.27642 0.0
N293 N 0.4826 0.03676 0.28451 0.0
H294 H 0.54351 0.61406 0.61282 0.0
H295 H 0.4536 0.38244 0.6112 0.0
H296 H 0.61344 0.55817 0.62313 0.0
H297 H 0.38367 0.4383 0.62174 0.0
H298 H 0.51205 0.44647 0.60618 0.0
H299 H 0.48522 0.55012 0.60673 0.0
C300 C 0.54679 0.58839 0.61358 0.0
C301 C 0.58366 0.59168 0.61895 0.0
C302 C 0.48393 0.44476 0.60937 0.0
C303 C 0.5164 0.51797 0.61191 0.0
C304 C 0.45035 0.40812 0.61221 0.0
C305 C 0.41344 0.40479 0.61735 0.0
C306 C 0.48084 0.47858 0.61156 0.0
C307 C 0.4114 0.43933 0.61803 0.0
C308 C 0.5133 0.5518 0.61012 0.0
C309 C 0.58575 0.55716 0.61926 0.0
N310 N 0.44469 0.47479 0.61542 0.0
N311 N 0.55252 0.52172 0.61604 0.0
H312 H 0.91688 0.54462 0.95344 0.0
H313 H 0.05802 0.45547 0.9289 0.0
H314 H 0.04238 0.61454 0.94098 0.0
H315 H 0.93721 0.38636 0.96137 0.0
H316 H 0.0497 0.51226 0.92305 0.0
H317 H 0.9214 0.48552 0.9467 0.0
C318 C 0.94542 0.5477 0.94895 0.0
C319 C 0.97942 0.58485 0.94813 0.0
C320 C 0.02489 0.48466 0.93121 0.0
C321 C 0.98457 0.51687 0.94037 0.0
C322 C 0.02954 0.45206 0.93455 0.0
C323 C 0.99838 0.41605 0.94623 0.0
C324 C 0.98881 0.48152 0.93959 0.0
C325 C 0.96209 0.41351 0.95252 0.0
C326 C 0.94789 0.51379 0.94519 0.0
C327 C 0.01542 0.58667 0.94209 0.0
N328 N 0.95841 0.44596 0.94947 0.0
N329 N 0.01705 0.55317 0.93863 0.0
H330 H 0.93538 0.55165 0.39074 0.0
H331 H 0.04789 0.43063 0.40662 0.0
H332 H 0.05867 0.60363 0.4142 0.0
H333 H 0.92222 0.37609 0.39646 0.0
H334 H 0.05161 0.49409 0.41297 0.0
H335 H 0.92877 0.48664 0.3966 0.0
C336 C 0.96091 0.54947 0.39755 0.0
C337 C 0.9977 0.58326 0.40148 0.0
C338 C 0.02317 0.46816 0.40966 0.0
C339 C 0.99047 0.50908 0.4079 0.0
C340 C 0.02105 0.43187 0.40602 0.0
C341 C 0.98476 0.39786 0.40068 0.0
C342 C 0.98881 0.4706 0.40768 0.0
C343 C 0.95095 0.40143 0.4003 0.0
C344 C 0.95717 0.51236 0.40079 0.0
C345 C 0.02977 0.57854 0.41037 0.0
N346 N 0.95384 0.43712 0.40338 0.0
N347 N 0.02547 0.54228 0.41292 0.0
H348 H 0.61502 0.0556 0.73021 0.0
H349 H 0.3808 0.94242 0.73124 0.0
H350 H 0.54279 0.92989 0.73869 0.0
H351 H 0.45302 0.06831 0.73736 0.0
H352 H 0.43986 0.93712 0.73688 0.0
H353 H 0.55604 0.06109 0.73576 0.0
C354 C 0.58694 0.02922 0.73358 0.0
C355 C 0.584 0.99225 0.73358 0.0
C356 C 0.44267 0.96587 0.73728 0.0
C357 C 0.51632 0.99824 0.73967 0.0
C358 C 0.40891 0.96889 0.73409 0.0
C359 C 0.4118 0.00583 0.73344 0.0
C360 C 0.47959 4e-05 0.73963 0.0
C361 C 0.44917 0.03914 0.73735 0.0
C362 C 0.55322 0.03234 0.7367 0.0
C363 C 0.54667 0.95907 0.73813 0.0
N364 N 0.48151 0.03545 0.73995 0.0
N365 N 0.51438 0.96285 0.74066 0.0
H366 H 0.44676 0.38392 0.05713 0.0
H367 H 0.5686 0.61685 0.07696 0.0
H368 H 0.39549 0.45499 0.08435 0.0
H369 H 0.62281 0.54565 0.06426 0.0
H370 H 0.50511 0.55716 0.08301 0.0
H371 H 0.51197 0.44194 0.0633 0.0
C372 C 0.44914 0.41148 0.06484 0.0
C373 C 0.41549 0.41458 0.0697 0.0
C374 C 0.53097 0.55462 0.0792 0.0
C375 C 0.48987 0.48109 0.07648 0.0
C376 C 0.56728 0.58876 0.07572 0.0
C377 C 0.6012 0.58645 0.06978 0.0
C378 C 0.52842 0.51781 0.07643 0.0
C379 C 0.59753 0.54905 0.0686 0.0
C380 C 0.48637 0.44464 0.06826 0.0
C381 C 0.42047 0.45116 0.07974 0.0
N382 N 0.56182 0.51629 0.07153 0.0
N383 N 0.45682 0.48292 0.08243 0.0
H384 H 0.011 0.80473 0.35603 0.0
H385 H 0.22562 0.90152 0.28751 0.0
H386 H 0.09321 0.76934 0.39032 0.0
H387 H 0.19129 0.98185 0.32931 0.0
H388 H 0.16448 0.84696 0.30875 0.0
H389 H 0.06656 0.86642 0.3335 0.0
C390 C 0.04058 0.81011 0.35923 0.0
C391 C 0.04755 0.78168 0.37454 0.0
C392 C 0.1702 0.87656 0.31292 0.0
C393 C 0.11003 0.85078 0.3485 0.0
C394 C 0.205 0.90772 0.30081 0.0
C395 C 0.21383 0.94627 0.30729 0.0
C396 C 0.14373 0.8838 0.33136 0.0
C397 C 0.18561 0.95246 0.32413 0.0
C398 C 0.07202 0.8451 0.34641 0.0
C399 C 0.08635 0.79004 0.37818 0.0
N400 N 0.15162 0.92133 0.33598 0.0
N401 N 0.11602 0.82349 0.36472 0.0
H402 H 0.30901 0.21608 0.61544 0.0
H403 H 0.19813 0.00673 0.68734 0.0
H404 H 0.20166 0.19216 0.66712 0.0
H405 H 0.31042 0.09277 0.72948 0.0
H406 H 0.18949 0.06062 0.66428 0.0
H407 H 0.3002 0.1542 0.63757 0.0
C408 C 0.28318 0.19747 0.63093 0.0
C409 C 0.25636 0.20949 0.64004 0.0
C410 C 0.2155 0.06725 0.67922 0.0
C411 C 0.24617 0.13875 0.66497 0.0
C412 C 0.2205 0.03678 0.69232 0.0
C413 C 0.25534 0.04543 0.70981 0.0
C414 C 0.24582 0.106 0.68345 0.0
C415 C 0.28343 0.08475 0.71563 0.0
C416 C 0.27824 0.16227 0.64344 0.0
C417 C 0.2231 0.18392 0.6598 0.0
N418 N 0.27839 0.11356 0.70188 0.0
N419 N 0.21909 0.14962 0.67217 0.0
H420 H 0.19271 0.20843 0.02334 0.0
H421 H 0.09645 0.32798 0.95637 0.0
H422 H 0.22964 0.32646 0.05723 0.0
H423 H 0.01671 0.2115 0.99469 0.0
H424 H 0.15117 0.32189 0.97799 0.0
H425 H 0.13129 0.20307 1.00097 0.0
C426 C 0.18773 0.23291 0.02646 0.0
C427 C 0.2165 0.26817 0.04164 0.0
C428 C 0.12167 0.29755 0.98139 0.0
C429 C 0.14768 0.26243 0.01577 0.0
C430 C 0.09041 0.3009 0.96904 0.0
C431 C 0.05194 0.27046 0.97437 0.0
C432 C 0.11464 0.26337 0.99887 0.0
C433 C 0.04601 0.23576 0.99042 0.0
C434 C 0.15288 0.22979 0.01373 0.0
C435 C 0.20865 0.29897 0.04519 0.0
N436 N 0.07724 0.23314 1.00243 0.0
N437 N 0.17532 0.29559 0.03183 0.0
H438 H 0.98681 0.21086 0.32051 0.0
H439 H 0.78974 0.0125 0.36113 0.0
H440 H 0.9248 0.1931 0.41851 0.0
H441 H 0.80455 0.07745 0.26543 0.0
H442 H 0.854 0.06507 0.38156 0.0
H443 H 0.93365 0.1472 0.29955 0.0
C444 C 0.9626 0.19291 0.33794 0.0
C445 C 0.9598 0.20678 0.37118 0.0
C446 C 0.84344 0.0671 0.35573 0.0
C447 C 0.90015 0.13462 0.3479 0.0
C448 C 0.80713 0.03726 0.34405 0.0
C449 C 0.79227 0.04103 0.31167 0.0
C450 C 0.86511 0.10002 0.33432 0.0
C451 C 0.81528 0.0738 0.29061 0.0
C452 C 0.93241 0.15695 0.32597 0.0
C453 C 0.9277 0.18311 0.39269 0.0
N454 N 0.85075 0.10221 0.30231 0.0
N455 N 0.89895 0.14799 0.38067 0.0
H456 H 0.68723 0.78013 0.61594 0.0
H457 H 0.79764 0.98992 0.68897 0.0
H458 H 0.79425 0.80508 0.66888 0.0
H459 H 0.68339 0.90388 0.72744 0.0
H460 H 0.80646 0.93607 0.66609 0.0
H461 H 0.69551 0.84209 0.6372 0.0
C462 C 0.71288 0.79898 0.63154 0.0
C463 C 0.73974 0.78723 0.64127 0.0
C464 C 0.77993 0.92942 0.68014 0.0
C465 C 0.74931 0.85804 0.66525 0.0
C466 C 0.77483 0.95987 0.69313 0.0
C467 C 0.73946 0.95124 0.70958 0.0
C468 C 0.74918 0.89074 0.68339 0.0
C469 C 0.71082 0.91192 0.71441 0.0
C470 C 0.71752 0.83422 0.64356 0.0
C471 C 0.77278 0.81311 0.6611 0.0
N472 N 0.71601 0.88317 0.70077 0.0
N473 N 0.77648 0.84744 0.67303 0.0
H474 H 0.80428 0.72781 0.08857 0.0
H475 H 0.92166 0.73051 0.93067 0.0
H476 H 0.79066 0.77937 0.99329 0.0
H477 H 0.98472 0.77632 0.02794 0.0
H478 H 0.87059 0.74372 0.95204 0.0
H479 H 0.86864 0.74077 0.0677 0.0
C480 C 0.81535 0.7426 0.0636 0.0
C481 C 0.79265 0.75279 0.04258 0.0
C482 C 0.89612 0.75177 0.96827 0.0
C483 C 0.86486 0.76638 0.01828 0.0
C484 C 0.92502 0.74414 0.95621 0.0
C485 C 0.9572 0.75263 0.97762 0.0
C486 C 0.89889 0.76643 1.00245 0.0
C487 C 0.96035 0.76985 0.01065 0.0
C488 C 0.85192 0.7501 0.05183 0.0
C489 C 0.80775 0.77153 0.01028 0.0
N490 N 0.9309 0.77529 0.02256 0.0
N491 N 0.84267 0.77686 0.99858 0.0
H492 H 0.27087 0.92646 0.42601 0.0
H493 H 0.32927 0.06944 0.59228 0.0
H494 H 0.33064 0.05246 0.41669 0.0
H495 H 0.2802 0.94435 0.60146 0.0
H496 H 0.32633 0.06332 0.52848 0.0
H497 H 0.27078 0.9325 0.48964 0.0
C498 C 0.28403 0.95559 0.43719 0.0
C499 C 0.301 0.98911 0.41544 0.0
C500 C 0.31613 0.03715 0.54433 0.0
C501 C 0.30077 0.99599 0.48943 0.0
C502 C 0.31773 0.0405 0.58102 0.0
C503 C 0.30515 0.0073 0.60275 0.0
C504 C 0.30174 0.00029 0.52869 0.0
C505 C 0.29028 0.97078 0.58606 0.0
C506 C 0.28392 0.95889 0.47381 0.0
C507 C 0.31731 0.02579 0.43209 0.0
N508 N 0.28909 0.9683 0.55011 0.0
N509 N 0.31681 0.02823 0.46802 0.0
H510 H 0.27773 0.34818 0.92517 0.0
H511 H 0.32906 0.25773 0.75868 0.0
H512 H 0.33147 0.27623 0.93447 0.0
H513 H 0.2842 0.33739 0.74983 0.0
H514 H 0.3269 0.26141 0.82253 0.0
H515 H 0.27717 0.34182 0.86157 0.0
C516 C 0.28948 0.33091 0.91399 0.0
C517 C 0.30484 0.31278 0.93574 0.0
C518 C 0.31745 0.27807 0.80674 0.0
C519 C 0.30405 0.30539 0.86174 0.0
C520 C 0.3186 0.27603 0.77003 0.0
C521 C 0.30698 0.29752 0.74838 0.0
C522 C 0.3045 0.30172 0.82247 0.0
C523 C 0.29349 0.32032 0.76517 0.0
C524 C 0.28908 0.32736 0.87738 0.0
C525 C 0.31941 0.29083 0.91907 0.0
N526 N 0.29274 0.32189 0.80112 0.0
N527 N 0.31866 0.28778 0.88313 0.0
H528 H 0.92995 0.2541 0.25753 0.0
H529 H 0.07004 0.35547 0.09187 0.0
H530 H 0.05235 0.34112 0.26723 0.0
H531 H 0.94576 0.27537 0.08209 0.0
H532 H 0.06431 0.34855 0.15547 0.0
H533 H 0.93593 0.25938 0.19375 0.0
C534 C 0.95826 0.27439 0.24637 0.0
C535 C 0.99072 0.29744 0.26824 0.0
C536 C 0.03823 0.33244 0.13955 0.0
C537 C 0.99758 0.30348 0.19423 0.0
C538 C 0.04136 0.33629 0.10295 0.0
C539 C 0.00824 0.31595 0.08109 0.0
C540 C 0.0017 0.30792 0.15502 0.0
C541 C 0.9721 0.29171 0.09761 0.0
C542 C 0.96154 0.27733 0.20971 0.0
C543 C 0.02651 0.32278 0.25171 0.0
N544 N 0.96983 0.28836 0.13351 0.0
N545 N 0.02892 0.32518 0.21578 0.0
H546 H 0.73348 0.07336 0.42633 0.0
H547 H 0.6651 0.9287 0.59191 0.0
H548 H 0.66959 0.94737 0.41648 0.0
H549 H 0.71805 0.05418 0.60183 0.0
H550 H 0.66955 0.93539 0.52822 0.0
H551 H 0.73069 0.06684 0.49006 0.0
C552 C 0.71881 0.04414 0.43743 0.0
C553 C 0.70165 0.01077 0.41552 0.0
C554 C 0.68023 0.96152 0.5442 0.0
C555 C 0.69853 0.00332 0.48953 0.0
C556 C 0.67779 0.95785 0.58084 0.0
C557 C 0.69107 0.991 0.60275 0.0
C558 C 0.69623 0.99866 0.52877 0.0
C559 C 0.70738 0.02778 0.58628 0.0
C560 C 0.71725 0.04057 0.47408 0.0
C561 C 0.68317 0.97394 0.43203 0.0
N562 N 0.70943 0.03058 0.55035 0.0
N563 N 0.68215 0.97123 0.46796 0.0
H564 H 0.66706 0.72247 0.93812 0.0
H565 H 0.72118 0.66537 0.75058 0.0
H566 H 0.73523 0.66491 0.92654 0.0
H567 H 0.66183 0.73184 0.7621 0.0
H568 H 0.72597 0.66408 0.81511 0.0
H569 H 0.66394 0.72541 0.87357 0.0
C570 C 0.68138 0.71051 0.92218 0.0
C571 C 0.70135 0.69339 0.93814 0.0
C572 C 0.71196 0.679 0.80341 0.0
C573 C 0.69783 0.69651 0.86402 0.0
C574 C 0.70926 0.67974 0.7665 0.0
C575 C 0.69101 0.69862 0.75053 0.0
C576 C 0.69622 0.69716 0.82463 0.0
C577 C 0.6761 0.71675 0.77286 0.0
C578 C 0.67962 0.71218 0.88526 0.0
C579 C 0.71939 0.67841 0.91579 0.0
N580 N 0.67894 0.71546 0.80849 0.0
N581 N 0.7171 0.68024 0.88014 0.0
H582 H 0.94001 0.66311 0.26844 0.0
H583 H 0.05113 0.71751 0.08087 0.0
H584 H 0.06579 0.72295 0.25682 0.0
H585 H 0.92593 0.66556 0.09262 0.0
H586 H 0.05718 0.71933 0.1454 0.0
H587 H 0.93405 0.66315 0.20395 0.0
C588 C 0.96632 0.67628 0.25251 0.0
C589 C 0.00339 0.69291 0.26843 0.0
C590 C 0.0284 0.70759 0.13375 0.0
C591 C 0.99685 0.69301 0.1944 0.0
C592 C 0.02497 0.70657 0.09684 0.0
C593 C 0.98802 0.6913 0.08094 0.0
C594 C 0.99464 0.69313 0.15503 0.0
C595 C 0.95515 0.67757 0.10333 0.0
C596 C 0.96295 0.67631 0.21563 0.0
C597 C 0.03646 0.7096 0.2461 0.0
N598 N 0.95924 0.67873 0.13897 0.0
N599 N 0.03239 0.70912 0.21049 0.0
loop_
_geom_bond_atom_site_label_1
_geom_bond_atom_site_label_2
_geom_bond_distance
_geom_bond_site_symmetry_2
_ccdc_geom_bond_type
Co0 O1 2.216 . S
Co0 O2 2.091 . S
Co0 O4 2.004 . S
Co0 O10 2.021 . S
Co0 O12 2.137 1_545 S
Co0 O13 2.244 1_545 S
O1 Co0 2.216 . S
O1 C8 1.247 . S
O2 Co0 2.091 . S
O2 C8 1.261 . S
C3 O12 1.247 . S
C3 O13 1.272 . S
O4 Co0 2.004 . S
O4 C9 1.259 . S
Co5 O6 2.061 . S
Co5 O11 2.052 . S
Co5 O13 2.135 . S
O6 Co5 2.061 . S
O6 C9 1.235 1_565 S
C7 O10 1.238 . S
C7 O11 1.241 1_545 S
C8 O1 1.247 . S
C8 O2 1.261 . S
C9 O4 1.259 . S
C9 O6 1.235 1_545 S
O10 Co0 2.021 . S
O10 C7 1.238 . S
O11 Co5 2.052 . S
O11 C7 1.241 1_565 S
O12 Co0 2.137 1_565 S
O12 C3 1.247 . S
O13 Co0 2.244 1_565 S
O13 C3 1.272 . S
O13 Co5 2.135 . S
Co14 O15 2.216 . S
Co14 O16 2.091 . S
Co14 O18 2.004 . S
Co14 O24 2.021 . S
Co14 O26 2.137 . S
Co14 O27 2.244 . S
O15 Co14 2.216 . S
O15 C22 1.247 . S
O16 Co14 2.091 . S
O16 C22 1.261 . S
C17 O26 1.247 . S
C17 O27 1.272 . S
O18 Co14 2.004 . S
O18 C23 1.259 . S
Co19 O20 2.061 . S
Co19 O25 2.052 . S
Co19 O27 2.135 . S
O20 Co19 2.061 . S
O20 C23 1.235 . S
C21 O24 1.238 . S
C21 O25 1.241 . S
C22 O15 1.247 . S
C22 O16 1.261 . S
C23 O18 1.259 . S
C23 O20 1.235 . S
O24 Co14 2.021 . S
O24 C21 1.238 . S
O25 Co19 2.052 . S
O25 C21 1.241 . S
O26 Co14 2.137 . S
O26 C17 1.247 . S
O27 Co14 2.244 . S
O27 C17 1.272 . S
O27 Co19 2.135 . S
Co28 O29 2.216 . S
Co28 O30 2.091 . S
Co28 O32 2.004 1_556 S
Co28 O38 2.021 . S
Co28 O40 2.137 1_655 S
Co28 O41 2.244 1_655 S
O29 Co28 2.216 . S
O29 C36 1.247 . S
O30 Co28 2.091 . S
O30 C36 1.261 . S
C31 O40 1.247 . S
C31 O41 1.272 . S
O32 Co28 2.004 1_554 S
O32 C37 1.259 . S
Co33 O34 2.061 . S
Co33 O39 2.052 1_554 S
Co33 O41 2.135 1_554 S
O34 Co33 2.061 . S
O34 C37 1.235 1_455 S
C35 O38 1.238 . S
C35 O39 1.241 1_655 S
C36 O29 1.247 . S
C36 O30 1.261 . S
C37 O32 1.259 . S
C37 O34 1.235 1_655 S
O38 Co28 2.021 . S
O38 C35 1.238 . S
O39 Co33 2.052 1_556 S
O39 C35 1.241 1_455 S
O40 Co28 2.137 1_455 S
O40 C31 1.247 . S
O41 Co28 2.244 1_455 S
O41 C31 1.272 . S
O41 Co33 2.135 1_556 S
Co42 O43 2.216 . S
Co42 O44 2.091 . S
Co42 O46 2.004 . S
Co42 O52 2.021 . S
Co42 O54 2.137 1_565 S
Co42 O55 2.244 1_565 S
O43 Co42 2.216 . S
O43 C50 1.247 . S
O44 Co42 2.091 . S
O44 C50 1.261 . S
C45 O54 1.247 . S
C45 O55 1.272 . S
O46 Co42 2.004 . S
O46 C51 1.259 . S
Co47 O48 2.061 . S
Co47 O53 2.052 . S
Co47 O55 2.135 . S
O48 Co47 2.061 . S
O48 C51 1.235 1_545 S
C49 O52 1.238 . S
C49 O53 1.241 1_565 S
C50 O43 1.247 . S
C50 O44 1.261 . S
C51 O46 1.259 . S
C51 O48 1.235 1_565 S
O52 Co42 2.021 . S
O52 C49 1.238 . S
O53 Co47 2.052 . S
O53 C49 1.241 1_545 S
O54 Co42 2.137 1_545 S
O54 C45 1.247 . S
O55 Co42 2.244 1_545 S
O55 C45 1.272 . S
O55 Co47 2.135 . S
Co56 O57 2.216 . S
Co56 O58 2.091 . S
Co56 O60 2.004 . S
Co56 O66 2.021 . S
Co56 O68 2.137 . S
Co56 O69 2.244 . S
O57 Co56 2.216 . S
O57 C64 1.247 . S
O58 Co56 2.091 . S
O58 C64 1.261 . S
C59 O68 1.247 . S
C59 O69 1.272 . S
O60 Co56 2.004 . S
O60 C65 1.259 . S
Co61 O62 2.061 . S
Co61 O67 2.052 . S
Co61 O69 2.135 . S
O62 Co61 2.061 . S
O62 C65 1.235 . S
C63 O66 1.238 . S
C63 O67 1.241 . S
C64 O57 1.247 . S
C64 O58 1.261 . S
C65 O60 1.259 . S
C65 O62 1.235 . S
O66 Co56 2.021 . S
O66 C63 1.238 . S
O67 Co61 2.052 . S
O67 C63 1.241 . S
O68 Co56 2.137 . S
O68 C59 1.247 . S
O69 Co56 2.244 . S
O69 C59 1.272 . S
O69 Co61 2.135 . S
Co70 O71 2.216 . S
Co70 O72 2.091 . S
Co70 O74 2.004 1_556 S
Co70 O80 2.021 . S
Co70 O82 2.137 1_455 S
Co70 O83 2.244 1_455 S
O71 Co70 2.216 . S
O71 C78 1.247 . S
O72 Co70 2.091 . S
O72 C78 1.261 . S
C73 O82 1.247 . S
C73 O83 1.272 . S
O74 Co70 2.004 1_554 S
O74 C79 1.259 . S
Co75 O76 2.061 . S
Co75 O81 2.052 1_554 S
Co75 O83 2.135 1_554 S
O76 Co75 2.061 . S
O76 C79 1.235 1_655 S
C77 O80 1.238 . S
C77 O81 1.241 1_455 S
C78 O71 1.247 . S
C78 O72 1.261 . S
C79 O74 1.259 . S
C79 O76 1.235 1_455 S
O80 Co70 2.021 . S
O80 C77 1.238 . S
O81 Co75 2.052 1_556 S
O81 C77 1.241 1_655 S
O82 Co70 2.137 1_655 S
O82 C73 1.247 . S
O83 Co70 2.244 1_655 S
O83 C73 1.272 . S
O83 Co75 2.135 1_556 S
Co84 O85 2.216 . S
Co84 O86 2.091 . S
Co84 O88 2.004 . S
Co84 O94 2.021 . S
Co84 O96 2.137 1_655 S
Co84 O97 2.244 1_655 S
O85 Co84 2.216 . S
O85 C92 1.247 . S
O86 Co84 2.091 . S
O86 C92 1.261 . S
C87 O96 1.247 . S
C87 O97 1.272 . S
O88 Co84 2.004 . S
O88 C93 1.259 . S
Co89 O90 2.061 . S
Co89 O95 2.052 . S
Co89 O97 2.135 . S
O90 Co89 2.061 . S
O90 C93 1.235 1_455 S
C91 O94 1.238 . S
C91 O95 1.241 1_655 S
C92 O85 1.247 . S
C92 O86 1.261 . S
C93 O88 1.259 . S
C93 O90 1.235 1_655 S
O94 Co84 2.021 . S
O94 C91 1.238 . S
O95 Co89 2.052 . S
O95 C91 1.241 1_455 S
O96 Co84 2.137 1_455 S
O96 C87 1.247 . S
O97 Co84 2.244 1_455 S
O97 C87 1.272 . S
O97 Co89 2.135 . S
Co98 O99 2.216 . S
Co98 O100 2.091 . S
Co98 O102 2.004 . S
Co98 O108 2.021 . S
Co98 O110 2.137 1_565 S
Co98 O111 2.244 1_565 S
O99 Co98 2.216 . S
O99 C106 1.247 . S
O100 Co98 2.091 . S
O100 C106 1.261 . S
C101 O110 1.247 . S
C101 O111 1.272 . S
O102 Co98 2.004 . S
O102 C107 1.259 . S
Co103 O104 2.061 . S
Co103 O109 2.052 . S
Co103 O111 2.135 . S
O104 Co103 2.061 . S
O104 C107 1.235 1_545 S
C105 O108 1.238 . S
C105 O109 1.241 1_565 S
C106 O99 1.247 . S
C106 O100 1.261 . S
C107 O102 1.259 . S
C107 O104 1.235 1_565 S
O108 Co98 2.021 . S
O108 C105 1.238 . S
O109 Co103 2.052 . S
O109 C105 1.241 1_545 S
O110 Co98 2.137 1_545 S
O110 C101 1.247 . S
O111 Co98 2.244 1_545 S
O111 C101 1.272 . S
O111 Co103 2.135 . S
Co112 O113 2.216 . S
Co112 O114 2.091 . S
Co112 O116 2.004 1_554 S
Co112 O122 2.021 . S
Co112 O124 2.137 . S
Co112 O125 2.244 . S
O113 Co112 2.216 . S
O113 C120 1.247 . S
O114 Co112 2.091 . S
O114 C120 1.261 . S
C115 O124 1.247 . S
C115 O125 1.272 . S
O116 Co112 2.004 1_556 S
O116 C121 1.259 . S
Co117 O118 2.061 . S
Co117 O123 2.052 1_556 S
Co117 O125 2.135 1_556 S
O118 Co117 2.061 . S
O118 C121 1.235 . S
C119 O122 1.238 . S
C119 O123 1.241 . S
C120 O113 1.247 . S
C120 O114 1.261 . S
C121 O116 1.259 . S
C121 O118 1.235 . S
O122 Co112 2.021 . S
O122 C119 1.238 . S
O123 Co117 2.052 1_554 S
O123 C119 1.241 . S
O124 Co112 2.137 . S
O124 C115 1.247 . S
O125 Co112 2.244 . S
O125 C115 1.272 . S
O125 Co117 2.135 1_554 S
Co126 O127 2.216 . S
Co126 O128 2.091 . S
Co126 O130 2.004 . S
Co126 O136 2.021 . S
Co126 O138 2.137 1_455 S
Co126 O139 2.244 1_455 S
O127 Co126 2.216 . S
O127 C134 1.247 . S
O128 Co126 2.091 . S
O128 C134 1.261 . S
C129 O138 1.247 . S
C129 O139 1.272 . S
O130 Co126 2.004 . S
O130 C135 1.259 . S
Co131 O132 2.061 . S
Co131 O137 2.052 . S
Co131 O139 2.135 . S
O132 Co131 2.061 . S
O132 C135 1.235 1_655 S
C133 O136 1.238 . S
C133 O137 1.241 1_455 S
C134 O127 1.247 . S
C134 O128 1.261 . S
C135 O130 1.259 . S
C135 O132 1.235 1_455 S
O136 Co126 2.021 . S
O136 C133 1.238 . S
O137 Co131 2.052 . S
O137 C133 1.241 1_655 S
O138 Co126 2.137 1_655 S
O138 C129 1.247 . S
O139 Co126 2.244 1_655 S
O139 C129 1.272 . S
O139 Co131 2.135 . S
Co140 O141 2.216 . S
Co140 O142 2.091 . S
Co140 O144 2.004 . S
Co140 O150 2.021 . S
Co140 O152 2.137 1_545 S
Co140 O153 2.244 1_545 S
O141 Co140 2.216 . S
O141 C148 1.247 . S
O142 Co140 2.091 . S
O142 C148 1.261 . S
C143 O152 1.247 . S
C143 O153 1.272 . S
O144 Co140 2.004 . S
O144 C149 1.259 . S
Co145 O146 2.061 . S
Co145 O151 2.052 . S
Co145 O153 2.135 . S
O146 Co145 2.061 . S
O146 C149 1.235 1_565 S
C147 O150 1.238 . S
C147 O151 1.241 1_545 S
C148 O141 1.247 . S
C148 O142 1.261 . S
C149 O144 1.259 . S
C149 O146 1.235 1_545 S
O150 Co140 2.021 . S
O150 C147 1.238 . S
O151 Co145 2.052 . S
O151 C147 1.241 1_565 S
O152 Co140 2.137 1_565 S
O152 C143 1.247 . S
O153 Co140 2.244 1_565 S
O153 C143 1.272 . S
O153 Co145 2.135 . S
Co154 O155 2.216 . S
Co154 O156 2.091 . S
Co154 O158 2.004 1_554 S
Co154 O164 2.021 . S
Co154 O166 2.137 . S
Co154 O167 2.244 . S
O155 Co154 2.216 . S
O155 C162 1.247 . S
O156 Co154 2.091 . S
O156 C162 1.261 . S
C157 O166 1.247 . S
C157 O167 1.272 . S
O158 Co154 2.004 1_556 S
O158 C163 1.259 . S
Co159 O160 2.061 . S
Co159 O165 2.052 1_556 S
Co159 O167 2.135 1_556 S
O160 Co159 2.061 . S
O160 C163 1.235 . S
C161 O164 1.238 . S
C161 O165 1.241 . S
C162 O155 1.247 . S
C162 O156 1.261 . S
C163 O158 1.259 . S
C163 O160 1.235 . S
O164 Co154 2.021 . S
O164 C161 1.238 . S
O165 Co159 2.052 1_554 S
O165 C161 1.241 . S
O166 Co154 2.137 . S
O166 C157 1.247 . S
O167 Co154 2.244 . S
O167 C157 1.272 . S
O167 Co159 2.135 1_554 S
H168 C174 0.930 . S
H169 C178 0.930 . S
H170 C183 0.929 . S
H171 C181 0.929 . S
H172 C176 0.929 . S
H173 C182 0.929 . S
C174 H168 0.930 . S
C174 C175 1.367 . S
C174 C182 1.378 . S
C175 C174 1.367 . S
C175 C183 1.433 . S
C176 H172 0.929 . S
C176 C178 1.378 . S
C176 C180 1.350 . S
C177 C180 1.463 . S
C177 C182 1.350 . S
C177 N185 1.427 . S
C178 H169 0.930 . S
C178 C176 1.378 . S
C178 C179 1.367 . S
C179 C178 1.367 . S
C179 C181 1.433 . S
C180 C176 1.350 . S
C180 C177 1.463 . S
C180 N184 1.427 . S
C181 H171 0.929 . S
C181 C179 1.433 . S
C181 N184 1.384 . S
C182 H173 0.929 . S
C182 C174 1.378 . S
C182 C177 1.350 . S
C183 H170 0.929 . S
C183 C175 1.433 . S
C183 N185 1.384 . S
N184 C180 1.427 . S
N184 C181 1.384 . S
N185 C177 1.427 . S
N185 C183 1.384 . S
H186 C192 0.930 . S
H187 C196 0.930 . S
H188 C201 0.929 . S
H189 C199 0.929 . S
H190 C194 0.929 . S
H191 C200 0.929 . S
C192 H186 0.930 . S
C192 C193 1.367 . S
C192 C200 1.378 . S
C193 C192 1.367 . S
C193 C201 1.433 . S
C194 H190 0.929 . S
C194 C196 1.378 . S
C194 C198 1.350 . S
C195 C198 1.463 . S
C195 C200 1.350 . S
C195 N203 1.427 . S
C196 H187 0.930 . S
C196 C194 1.378 . S
C196 C197 1.367 . S
C197 C196 1.367 . S
C197 C199 1.433 . S
C198 C194 1.350 . S
C198 C195 1.463 . S
C198 N202 1.427 . S
C199 H189 0.929 . S
C199 C197 1.433 . S
C199 N202 1.384 . S
C200 H191 0.929 . S
C200 C192 1.378 . S
C200 C195 1.350 . S
C201 H188 0.929 . S
C201 C193 1.433 . S
C201 N203 1.384 . S
N202 C198 1.427 . S
N202 C199 1.384 . S
N203 C195 1.427 . S
N203 C201 1.384 . S
H204 C210 0.930 . S
H205 C214 0.930 . S
H206 C219 0.929 . S
H207 C217 0.929 . S
H208 C212 0.929 . S
H209 C218 0.929 . S
C210 H204 0.930 . S
C210 C211 1.367 . S
C210 C218 1.378 . S
C211 C210 1.367 . S
C211 C219 1.433 . S
C212 H208 0.929 . S
C212 C214 1.378 . S
C212 C216 1.350 . S
C213 C216 1.463 . S
C213 C218 1.350 . S
C213 N221 1.427 . S
C214 H205 0.930 . S
C214 C212 1.378 . S
C214 C215 1.367 . S
C215 C214 1.367 . S
C215 C217 1.433 . S
C216 C212 1.350 . S
C216 C213 1.463 . S
C216 N220 1.427 . S
C217 H207 0.929 . S
C217 C215 1.433 . S
C217 N220 1.384 . S
C218 H209 0.929 . S
C218 C210 1.378 . S
C218 C213 1.350 . S
C219 H206 0.929 . S
C219 C211 1.433 . S
C219 N221 1.384 . S
N220 C216 1.427 . S
N220 C217 1.384 . S
N221 C213 1.427 . S
N221 C219 1.384 . S
H222 C228 0.930 . S
H223 C232 0.930 . S
H224 C237 0.929 . S
H225 C235 0.929 . S
H226 C230 0.929 . S
H227 C236 0.929 . S
C228 H222 0.930 . S
C228 C229 1.367 . S
C228 C236 1.378 . S
C229 C228 1.367 . S
C229 C237 1.433 . S
C230 H226 0.929 . S
C230 C232 1.378 . S
C230 C234 1.350 . S
C231 C234 1.463 . S
C231 C236 1.350 . S
C231 N239 1.427 . S
C232 H223 0.930 . S
C232 C230 1.378 . S
C232 C233 1.367 . S
C233 C232 1.367 . S
C233 C235 1.433 . S
C234 C230 1.350 . S
C234 C231 1.463 . S
C234 N238 1.427 . S
C235 H225 0.929 . S
C235 C233 1.433 . S
C235 N238 1.384 . S
C236 H227 0.929 . S
C236 C228 1.378 . S
C236 C231 1.350 . S
C237 H224 0.929 . S
C237 C229 1.433 . S
C237 N239 1.384 . S
N238 C234 1.427 . S
N238 C235 1.384 . S
N239 C231 1.427 . S
N239 C237 1.384 . S
H240 C246 0.930 . S
H241 C250 0.930 . S
H242 C255 0.929 . S
H243 C253 0.929 . S
H244 C248 0.929 . S
H245 C254 0.929 . S
C246 H240 0.930 . S
C246 C247 1.367 . S
C246 C254 1.378 . S
C247 C246 1.367 . S
C247 C255 1.433 . S
C248 H244 0.929 . S
C248 C250 1.378 . S
C248 C252 1.350 . S
C249 C252 1.463 . S
C249 C254 1.350 . S
C249 N257 1.427 . S
C250 H241 0.930 . S
C250 C248 1.378 . S
C250 C251 1.367 . S
C251 C250 1.367 . S
C251 C253 1.433 . S
C252 C248 1.350 . S
C252 C249 1.463 . S
C252 N256 1.427 . S
C253 H243 0.929 . S
C253 C251 1.433 . S
C253 N256 1.384 . S
C254 H245 0.929 . S
C254 C246 1.378 . S
C254 C249 1.350 . S
C255 H242 0.929 . S
C255 C247 1.433 . S
C255 N257 1.384 . S
N256 C252 1.427 . S
N256 C253 1.384 . S
N257 C249 1.427 . S
N257 C255 1.384 . S
H258 C264 0.930 . S
H259 C268 0.930 . S
H260 C273 0.929 . S
H261 C271 0.929 . S
H262 C266 0.929 . S
H263 C272 0.929 . S
C264 H258 0.930 . S
C264 C265 1.367 . S
C264 C272 1.378 . S
C265 C264 1.367 . S
C265 C273 1.433 . S
C266 H262 0.929 . S
C266 C268 1.378 . S
C266 C270 1.350 . S
C267 C270 1.463 . S
C267 C272 1.350 . S
C267 N275 1.427 . S
C268 H259 0.930 . S
C268 C266 1.378 . S
C268 C269 1.367 . S
C269 C268 1.367 . S
C269 C271 1.433 . S
C270 C266 1.350 . S
C270 C267 1.463 . S
C270 N274 1.427 . S
C271 H261 0.929 . S
C271 C269 1.433 . S
C271 N274 1.384 . S
C272 H263 0.929 . S
C272 C264 1.378 . S
C272 C267 1.350 . S
C273 H260 0.929 . S
C273 C265 1.433 . S
C273 N275 1.384 . S
N274 C270 1.427 . S
N274 C271 1.384 . S
N275 C267 1.427 . S
N275 C273 1.384 . S
H276 C282 0.926 . S
H277 C286 0.926 . S
H278 C291 0.929 . S
H279 C289 0.929 . S
H280 C284 0.929 . S
H281 C290 0.929 . S
C282 H276 0.926 . S
C282 C283 1.367 . S
C282 C290 1.378 1_545 S
C283 C282 1.367 . S
C283 C291 1.433 . S
C284 H280 0.929 . S
C284 C286 1.378 1_545 S
C284 C288 1.350 1_545 S
C285 C288 1.463 1_545 S
C285 C290 1.350 1_545 S
C285 N293 1.427 . S
C286 H277 0.926 . S
C286 C284 1.378 1_565 S
C286 C287 1.367 . S
C287 C286 1.367 . S
C287 C289 1.433 . S
C288 C284 1.350 1_565 S
C288 C285 1.463 1_565 S
C288 N292 1.427 . S
C289 H279 0.929 . S
C289 C287 1.433 . S
C289 N292 1.384 . S
C290 H281 0.929 . S
C290 C282 1.378 1_565 S
C290 C285 1.350 1_565 S
C291 H278 0.929 . S
C291 C283 1.433 . S
C291 N293 1.384 . S
N292 C288 1.427 . S
N292 C289 1.384 . S
N293 C285 1.427 . S
N293 C291 1.384 . S
H294 C300 0.930 . S
H295 C304 0.930 . S
H296 C309 0.929 . S
H297 C307 0.929 . S
H298 C302 0.929 . S
H299 C308 0.929 . S
C300 H294 0.930 . S
C300 C301 1.367 . S
C300 C308 1.378 . S
C301 C300 1.367 . S
C301 C309 1.433 . S
C302 H298 0.929 . S
C302 C304 1.378 . S
C302 C306 1.350 . S
C303 C306 1.463 . S
C303 C308 1.350 . S
C303 N311 1.427 . S
C304 H295 0.930 . S
C304 C302 1.378 . S
C304 C305 1.367 . S
C305 C304 1.367 . S
C305 C307 1.433 . S
C306 C302 1.350 . S
C306 C303 1.463 . S
C306 N310 1.427 . S
C307 H297 0.929 . S
C307 C305 1.433 . S
C307 N310 1.384 . S
C308 H299 0.929 . S
C308 C300 1.378 . S
C308 C303 1.350 . S
C309 H296 0.929 . S
C309 C301 1.433 . S
C309 N311 1.384 . S
N310 C306 1.427 . S
N310 C307 1.384 . S
N311 C303 1.427 . S
N311 C309 1.384 . S
H312 C318 0.930 1_554 S
H313 C322 0.930 . S
H314 C327 0.929 . S
H315 C325 0.929 1_554 S
H316 C320 0.929 . S
H317 C326 0.929 1_554 S
C318 H312 0.930 1_556 S
C318 C319 1.367 1_655 S
C318 C326 1.378 . S
C319 C318 1.367 1_455 S
C319 C327 1.433 . S
C320 H316 0.929 . S
C320 C322 1.378 . S
C320 C324 1.350 1_455 S
C321 C324 1.463 1_455 S
C321 C326 1.350 1_455 S
C321 N329 1.427 . S
C322 H313 0.930 . S
C322 C320 1.378 . S
C322 C323 1.367 1_455 S
C323 C322 1.367 1_655 S
C323 C325 1.433 . S
C324 C320 1.350 1_655 S
C324 C321 1.463 1_655 S
C324 N328 1.427 . S
C325 H315 0.929 1_556 S
C325 C323 1.433 . S
C325 N328 1.384 . S
C326 H317 0.929 1_556 S
C326 C318 1.378 . S
C326 C321 1.350 1_655 S
C327 H314 0.929 . S
C327 C319 1.433 . S
C327 N329 1.384 . S
N328 C324 1.427 . S
N328 C325 1.384 . S
N329 C321 1.427 . S
N329 C327 1.384 . S
H330 C336 0.930 . S
H331 C340 0.930 . S
H332 C345 0.929 . S
H333 C343 0.929 . S
H334 C338 0.929 . S
H335 C344 0.929 . S
C336 H330 0.930 . S
C336 C337 1.367 . S
C336 C344 1.378 . S
C337 C336 1.367 . S
C337 C345 1.433 1_655 S
C338 H334 0.929 . S
C338 C340 1.378 . S
C338 C342 1.350 . S
C339 C342 1.463 1_655 S
C339 C344 1.350 . S
C339 N347 1.427 1_655 S
C340 H331 0.930 . S
C340 C338 1.378 . S
C340 C341 1.367 . S
C341 C340 1.367 . S
C341 C343 1.433 1_455 S
C342 C338 1.350 . S
C342 C339 1.463 1_455 S
C342 N346 1.427 1_455 S
C343 H333 0.929 . S
C343 C341 1.433 1_655 S
C343 N346 1.384 . S
C344 H335 0.929 . S
C344 C336 1.378 . S
C344 C339 1.350 . S
C345 H332 0.929 . S
C345 C337 1.433 1_455 S
C345 N347 1.384 . S
N346 C342 1.427 1_655 S
N346 C343 1.384 . S
N347 C339 1.427 1_455 S
N347 C345 1.384 . S
H348 C354 0.930 . S
H349 C358 0.930 . S
H350 C363 0.929 1_565 S
H351 C361 0.929 1_545 S
H352 C356 0.929 . S
H353 C362 0.929 . S
C354 H348 0.930 . S
C354 C355 1.367 . S
C354 C362 1.378 . S
C355 C354 1.367 . S
C355 C363 1.433 . S
C356 H352 0.929 . S
C356 C358 1.378 . S
C356 C360 1.350 . S
C357 C360 1.463 1_545 S
C357 C362 1.350 . S
C357 N365 1.427 1_545 S
C358 H349 0.930 . S
C358 C356 1.378 . S
C358 C359 1.367 . S
C359 C358 1.367 . S
C359 C361 1.433 . S
C360 C356 1.350 . S
C360 C357 1.463 1_565 S
C360 N364 1.427 1_565 S
C361 H351 0.929 1_565 S
C361 C359 1.433 . S
C361 N364 1.384 1_565 S
C362 H353 0.929 . S
C362 C354 1.378 . S
C362 C357 1.350 . S
C363 H350 0.929 1_545 S
C363 C355 1.433 . S
C363 N365 1.384 1_545 S
N364 C360 1.427 1_545 S
N364 C361 1.384 1_545 S
N365 C357 1.427 1_565 S
N365 C363 1.384 1_565 S
H366 C372 0.930 . S
H367 C376 0.930 1_556 S
H368 C381 0.929 1_556 S
H369 C379 0.929 . S
H370 C374 0.929 1_556 S
H371 C380 0.929 . S
C372 H366 0.930 . S
C372 C373 1.367 . S
C372 C380 1.378 . S
C373 C372 1.367 . S
C373 C381 1.433 . S
C374 H370 0.929 1_554 S
C374 C376 1.378 . S
C374 C378 1.350 . S
C375 C378 1.463 . S
C375 C380 1.350 . S
C375 N383 1.427 . S
C376 H367 0.930 1_554 S
C376 C374 1.378 . S
C376 C377 1.367 . S
C377 C376 1.367 . S
C377 C379 1.433 . S
C378 C374 1.350 . S
C378 C375 1.463 . S
C378 N382 1.427 . S
C379 H369 0.929 . S
C379 C377 1.433 . S
C379 N382 1.384 . S
C380 H371 0.929 . S
C380 C372 1.378 . S
C380 C375 1.350 . S
C381 H368 0.929 1_554 S
C381 C373 1.433 . S
C381 N383 1.384 . S
N382 C378 1.427 . S
N382 C379 1.384 . S
N383 C375 1.427 . S
N383 C381 1.384 . S
H384 C390 0.930 . S
H385 C394 0.930 . S
H386 C399 0.929 . S
H387 C397 0.929 . S
H388 C392 0.929 . S
H389 C398 0.929 . S
C390 H384 0.930 . S
C390 C391 1.367 . S
C390 C398 1.378 . S
C391 C390 1.367 . S
C391 C399 1.433 . S
C392 H388 0.929 . S
C392 C394 1.378 . S
C392 C396 1.350 . S
C393 C396 1.463 . S
C393 C398 1.350 . S
C393 N401 1.427 . S
C394 H385 0.930 . S
C394 C392 1.378 . S
C394 C395 1.367 . S
C395 C394 1.367 . S
C395 C397 1.433 . S
C396 C392 1.350 . S
C396 C393 1.463 . S
C396 N400 1.427 . S
C397 H387 0.929 . S
C397 C395 1.433 . S
C397 N400 1.384 . S
C398 H389 0.929 . S
C398 C390 1.378 . S
C398 C393 1.350 . S
C399 H386 0.929 . S
C399 C391 1.433 . S
C399 N401 1.384 . S
N400 C396 1.427 . S
N400 C397 1.384 . S
N401 C393 1.427 . S
N401 C399 1.384 . S
H402 C408 0.930 . S
H403 C412 0.930 . S
H404 C417 0.929 . S
H405 C415 0.929 . S
H406 C410 0.929 . S
H407 C416 0.929 . S
C408 H402 0.930 . S
C408 C409 1.367 . S
C408 C416 1.378 . S
C409 C408 1.367 . S
C409 C417 1.433 . S
C410 H406 0.929 . S
C410 C412 1.378 . S
C410 C414 1.350 . S
C411 C414 1.463 . S
C411 C416 1.350 . S
C411 N419 1.427 . S
C412 H403 0.930 . S
C412 C410 1.378 . S
C412 C413 1.367 . S
C413 C412 1.367 . S
C413 C415 1.433 . S
C414 C410 1.350 . S
C414 C411 1.463 . S
C414 N418 1.427 . S
C415 H405 0.929 . S
C415 C413 1.433 . S
C415 N418 1.384 . S
C416 H407 0.929 . S
C416 C408 1.378 . S
C416 C411 1.350 . S
C417 H404 0.929 . S
C417 C409 1.433 . S
C417 N419 1.384 . S
N418 C414 1.427 . S
N418 C415 1.384 . S
N419 C411 1.427 . S
N419 C417 1.384 . S
H420 C426 0.930 . S
H421 C430 0.930 . S
H422 C435 0.942 . S
H423 C433 0.942 . S
H424 C428 0.929 . S
H425 C434 0.929 . S
C426 H420 0.930 . S
C426 C427 1.367 . S
C426 C434 1.378 . S
C427 C426 1.367 . S
C427 C435 1.412 1_554 S
C428 H424 0.929 . S
C428 C430 1.378 . S
C428 C432 1.350 . S
C429 C432 1.463 1_554 S
C429 C434 1.350 . S
C429 N437 1.427 1_554 S
C430 H421 0.930 . S
C430 C428 1.378 . S
C430 C431 1.367 . S
C431 C430 1.367 . S
C431 C433 1.412 1_556 S
C432 C428 1.350 . S
C432 C429 1.463 1_556 S
C432 N436 1.427 1_556 S
C433 H423 0.942 . S
C433 C431 1.412 1_554 S
C433 N436 1.392 . S
C434 H425 0.929 . S
C434 C426 1.378 . S
C434 C429 1.350 . S
C435 H422 0.942 . S
C435 C427 1.412 1_556 S
C435 N437 1.392 . S
N436 C432 1.427 1_554 S
N436 C433 1.392 . S
N437 C429 1.427 1_556 S
N437 C435 1.392 . S
H438 C444 0.930 . S
H439 C448 0.930 . S
H440 C453 0.929 . S
H441 C451 0.929 . S
H442 C446 0.929 . S
H443 C452 0.929 . S
C444 H438 0.930 . S
C444 C445 1.367 . S
C444 C452 1.378 . S
C445 C444 1.367 . S
C445 C453 1.433 . S
C446 H442 0.929 . S
C446 C448 1.378 . S
C446 C450 1.350 . S
C447 C450 1.463 . S
C447 C452 1.350 . S
C447 N455 1.427 . S
C448 H439 0.930 . S
C448 C446 1.378 . S
C448 C449 1.367 . S
C449 C448 1.367 . S
C449 C451 1.433 . S
C450 C446 1.350 . S
C450 C447 1.463 . S
C450 N454 1.427 . S
C451 H441 0.929 . S
C451 C449 1.433 . S
C451 N454 1.384 . S
C452 H443 0.929 . S
C452 C444 1.378 . S
C452 C447 1.350 . S
C453 H440 0.929 . S
C453 C445 1.433 . S
C453 N455 1.384 . S
N454 C450 1.427 . S
N454 C451 1.384 . S
N455 C447 1.427 . S
N455 C453 1.384 . S
H456 C462 0.930 . S
H457 C466 0.930 . S
H458 C471 0.929 . S
H459 C469 0.929 . S
H460 C464 0.929 . S
H461 C470 0.929 . S
C462 H456 0.930 . S
C462 C463 1.367 . S
C462 C470 1.378 . S
C463 C462 1.367 . S
C463 C471 1.433 . S
C464 H460 0.929 . S
C464 C466 1.378 . S
C464 C468 1.350 . S
C465 C468 1.463 . S
C465 C470 1.350 . S
C465 N473 1.427 . S
C466 H457 0.930 . S
C466 C464 1.378 . S
C466 C467 1.367 . S
C467 C466 1.367 . S
C467 C469 1.433 . S
C468 C464 1.350 . S
C468 C465 1.463 . S
C468 N472 1.427 . S
C469 H459 0.929 . S
C469 C467 1.433 . S
C469 N472 1.384 . S
C470 H461 0.929 . S
C470 C462 1.378 . S
C470 C465 1.350 . S
C471 H458 0.929 . S
C471 C463 1.433 . S
C471 N473 1.384 . S
N472 C468 1.427 . S
N472 C469 1.384 . S
N473 C465 1.427 . S
N473 C471 1.384 . S
H474 C480 0.930 . S
H475 C484 0.930 . S
H476 C489 0.929 . S
H477 C487 0.929 . S
H478 C482 0.929 . S
H479 C488 0.929 . S
C480 H474 0.930 . S
C480 C481 1.367 . S
C480 C488 1.378 . S
C481 C480 1.367 . S
C481 C489 1.433 1_554 S
C482 H478 0.929 . S
C482 C484 1.378 . S
C482 C486 1.350 . S
C483 C486 1.463 1_554 S
C483 C488 1.350 . S
C483 N491 1.427 1_554 S
C484 H475 0.930 . S
C484 C482 1.378 . S
C484 C485 1.367 . S
C485 C484 1.367 . S
C485 C487 1.433 1_556 S
C486 C482 1.350 . S
C486 C483 1.463 1_556 S
C486 N490 1.427 1_556 S
C487 H477 0.929 . S
C487 C485 1.433 1_554 S
C487 N490 1.384 . S
C488 H479 0.929 . S
C488 C480 1.378 . S
C488 C483 1.350 . S
C489 H476 0.929 . S
C489 C481 1.433 1_556 S
C489 N491 1.384 . S
N490 C486 1.427 1_554 S
N490 C487 1.384 . S
N491 C483 1.427 1_556 S
N491 C489 1.384 . S
H492 C498 0.930 . S
H493 C502 0.930 . S
H494 C507 0.929 . S
H495 C505 0.929 . S
H496 C500 0.929 . S
H497 C506 0.929 . S
C498 H492 0.930 . S
C498 C499 1.367 1_565 S
C498 C506 1.378 . S
C499 C498 1.367 1_545 S
C499 C507 1.433 . S
C500 H496 0.929 . S
C500 C502 1.378 . S
C500 C504 1.350 1_545 S
C501 C504 1.463 1_545 S
C501 C506 1.350 1_545 S
C501 N509 1.427 . S
C502 H493 0.930 . S
C502 C500 1.378 . S
C502 C503 1.367 1_545 S
C503 C502 1.367 1_565 S
C503 C505 1.433 . S
C504 C500 1.350 1_565 S
C504 C501 1.463 1_565 S
C504 N508 1.427 . S
C505 H495 0.929 . S
C505 C503 1.433 . S
C505 N508 1.384 . S
C506 H497 0.929 . S
C506 C498 1.378 . S
C506 C501 1.350 1_565 S
C507 H494 0.929 . S
C507 C499 1.433 . S
C507 N509 1.384 . S
N508 C504 1.427 . S
N508 C505 1.384 . S
N509 C501 1.427 . S
N509 C507 1.384 . S
H510 C516 0.930 . S
H511 C520 0.930 . S
H512 C525 0.929 . S
H513 C523 0.929 . S
H514 C518 0.929 . S
H515 C524 0.929 . S
C516 H510 0.930 . S
C516 C517 1.367 . S
C516 C524 1.378 . S
C517 C516 1.367 . S
C517 C525 1.433 . S
C518 H514 0.929 . S
C518 C520 1.378 . S
C518 C522 1.350 . S
C519 C522 1.463 . S
C519 C524 1.350 . S
C519 N527 1.427 . S
C520 H511 0.930 . S
C520 C518 1.378 . S
C520 C521 1.367 . S
C521 C520 1.367 . S
C521 C523 1.433 . S
C522 C518 1.350 . S
C522 C519 1.463 . S
C522 N526 1.427 . S
C523 H513 0.929 . S
C523 C521 1.433 . S
C523 N526 1.384 . S
C524 H515 0.929 . S
C524 C516 1.378 . S
C524 C519 1.350 . S
C525 H512 0.929 . S
C525 C517 1.433 . S
C525 N527 1.384 . S
N526 C522 1.427 . S
N526 C523 1.384 . S
N527 C519 1.427 . S
N527 C525 1.384 . S
H528 C534 0.930 . S
H529 C538 0.930 . S
H530 C543 0.929 . S
H531 C541 0.929 . S
H532 C536 0.929 . S
H533 C542 0.929 . S
C534 H528 0.930 . S
C534 C535 1.367 . S
C534 C542 1.378 1_455 S
C535 C534 1.367 . S
C535 C543 1.433 . S
C536 H532 0.929 . S
C536 C538 1.378 1_455 S
C536 C540 1.350 1_455 S
C537 C540 1.463 1_455 S
C537 C542 1.350 1_455 S
C537 N545 1.427 . S
C538 H529 0.930 . S
C538 C536 1.378 1_655 S
C538 C539 1.367 . S
C539 C538 1.367 . S
C539 C541 1.433 . S
C540 C536 1.350 1_655 S
C540 C537 1.463 1_655 S
C540 N544 1.427 . S
C541 H531 0.929 . S
C541 C539 1.433 . S
C541 N544 1.384 . S
C542 H533 0.929 . S
C542 C534 1.378 1_655 S
C542 C537 1.350 1_655 S
C543 H530 0.929 . S
C543 C535 1.433 . S
C543 N545 1.384 . S
N544 C540 1.427 . S
N544 C541 1.384 . S
N545 C537 1.427 . S
N545 C543 1.384 . S
H546 C552 0.930 . S
H547 C556 0.930 . S
H548 C561 0.929 . S
H549 C559 0.929 . S
H550 C554 0.929 . S
H551 C560 0.929 . S
C552 H546 0.930 . S
C552 C553 1.367 1_545 S
C552 C560 1.378 . S
C553 C552 1.367 1_565 S
C553 C561 1.433 . S
C554 H550 0.929 . S
C554 C556 1.378 . S
C554 C558 1.350 1_565 S
C555 C558 1.463 1_565 S
C555 C560 1.350 1_565 S
C555 N563 1.427 . S
C556 H547 0.930 . S
C556 C554 1.378 . S
C556 C557 1.367 1_565 S
C557 C556 1.367 1_545 S
C557 C559 1.433 . S
C558 C554 1.350 1_545 S
C558 C555 1.463 1_545 S
C558 N562 1.427 . S
C559 H549 0.929 . S
C559 C557 1.433 . S
C559 N562 1.384 . S
C560 H551 0.929 . S
C560 C552 1.378 . S
C560 C555 1.350 1_545 S
C561 H548 0.929 . S
C561 C553 1.433 . S
C561 N563 1.384 . S
N562 C558 1.427 . S
N562 C559 1.384 . S
N563 C555 1.427 . S
N563 C561 1.384 . S
H564 C570 0.930 . S
H565 C574 0.930 . S
H566 C579 0.929 . S
H567 C577 0.929 . S
H568 C572 0.929 . S
H569 C578 0.929 . S
C570 H564 0.930 . S
C570 C571 1.367 . S
C570 C578 1.378 . S
C571 C570 1.367 . S
C571 C579 1.433 . S
C572 H568 0.929 . S
C572 C574 1.378 . S
C572 C576 1.350 . S
C573 C576 1.463 . S
C573 C578 1.350 . S
C573 N581 1.427 . S
C574 H565 0.930 . S
C574 C572 1.378 . S
C574 C575 1.367 . S
C575 C574 1.367 . S
C575 C577 1.433 . S
C576 C572 1.350 . S
C576 C573 1.463 . S
C576 N580 1.427 . S
C577 H567 0.929 . S
C577 C575 1.433 . S
C577 N580 1.384 . S
C578 H569 0.929 . S
C578 C570 1.378 . S
C578 C573 1.350 . S
C579 H566 0.929 . S
C579 C571 1.433 . S
C579 N581 1.384 . S
N580 C576 1.427 . S
N580 C577 1.384 . S
N581 C573 1.427 . S
N581 C579 1.384 . S
H582 C588 0.930 . S
H583 C592 0.930 . S
H584 C597 0.929 . S
H585 C595 0.929 . S
H586 C590 0.929 . S
H587 C596 0.929 . S
C588 H582 0.930 . S
C588 C589 1.367 . S
C588 C596 1.378 . S
C589 C588 1.367 . S
C589 C597 1.433 1_655 S
C590 H586 0.929 . S
C590 C592 1.378 . S
C590 C594 1.350 . S
C591 C594 1.463 1_655 S
C591 C596 1.350 . S
C591 N599 1.427 1_655 S
C592 H583 0.930 . S
C592 C590 1.378 . S
C592 C593 1.367 . S
C593 C592 1.367 . S
C593 C595 1.433 1_455 S
C594 C590 1.350 . S
C594 C591 1.463 1_455 S
C594 N598 1.427 1_455 S
C595 H585 0.929 . S
C595 C593 1.433 1_655 S
C595 N598 1.384 . S
C596 H587 0.929 . S
C596 C588 1.378 . S
C596 C591 1.350 . S
C597 H584 0.929 . S
C597 C589 1.433 1_455 S
C597 N599 1.384 . S
N598 C594 1.427 1_655 S
N598 C595 1.384 . S
N599 C591 1.427 1_455 S
N599 C597 1.384 . S
C175 C8 1.787 . S
C179 C120 1.786 . S
C193 C22 1.784 . S
C197 C134 1.786 . S
C211 C148 1.787 . S
C215 C36 1.786 . S
C229 C162 1.787 . S
C233 C50 1.785 . S
C247 C92 1.786 . S
C251 C64 1.784 . S
C265 C106 1.785 . S
C269 C78 1.787 . S
C283 C7 1.511 . S
C287 C49 1.521 . S
C301 C63 1.511 . S
C305 C21 1.520 . S
C319 C77 1.510 . S
C323 C35 1.519 . S
C337 C91 1.526 . S
C341 C133 1.517 . S
C355 C147 1.516 . S
C359 C105 1.525 . S
C373 C119 1.527 . S
C377 C161 1.519 . S
C391 C87 0.870 . S
C395 C3 0.869 . S
C409 C17 0.876 . S
C413 C101 0.876 . S
C427 C115 0.882 . S
C431 C31 0.882 . S
C445 C129 0.867 . S
C449 C45 0.867 . S
C463 C59 0.875 . S
C467 C143 0.876 . S
C481 C157 0.885 . S
C485 C73 0.885 . S
C499 C9 1.020 . S
C503 C107 1.022 . S
C517 C121 1.024 . S
C521 C23 1.028 . S
C535 C135 1.029 . S
C539 C37 1.025 . S
C553 C51 1.020 . S
C557 C149 1.024 . S
C571 C163 1.041 . S
C575 C65 1.039 . S
C589 C93 1.038 . S
C593 C79 1.040 . S
