# Generated by pormake.
# Topology umy, (4)-cn, num edge types: 1
# Building blocks:
#     Node 0, Type 0, BuildingBlock: QUQFOY_clean_sbu_1, # of connection points: 4
#     Node 1, Type 0, BuildingBlock: QUQFOY_clean_sbu_1, # of connection points: 4
#     Node 2, Type 0, BuildingBlock: QUQFOY_clean_sbu_1, # of connection points: 4
#     Node 3, Type 0, BuildingBlock: QUQFOY_clean_sbu_1, # of connection points: 4
#     Node 4, Type 0, BuildingBlock: QUQFOY_clean_sbu_1, # of connection points: 4
#     Node 5, Type 0, BuildingBlock: QUQFOY_clean_sbu_1, # of connection points: 4
#     Node 6, Type 0, BuildingBlock: QUQFOY_clean_sbu_1, # of connection points: 4
#     Node 7, Type 0, BuildingBlock: QUQFOY_clean_sbu_1, # of connection points: 4
#     Node 8, Type 0, BuildingBlock: QUQFOY_clean_sbu_1, # of connection points: 4
#     Node 9, Type 0, BuildingBlock: QUQFOY_clean_sbu_1, # of connection points: 4
#     Node 10, Type 0, BuildingBlock: QUQFOY_clean_sbu_1, # of connection points: 4
#     Node 11, Type 0, BuildingBlock: QUQFOY_clean_sbu_1, # of connection points: 4
#     Edge 12, Type (0, 0), BuildingBlock: EZIPEK_clean_linker_0, # of connection points: 2
#     Edge 13, Type (0, 0), BuildingBlock: EZIPEK_clean_linker_0, # of connection points: 2
#     Edge 14, Type (0, 0), BuildingBlock: EZIPEK_clean_linker_0, # of connection points: 2
#     Edge 15, Type (0, 0), BuildingBlock: EZIPEK_clean_linker_0, # of connection points: 2
#     Edge 16, Type (0, 0), BuildingBlock: EZIPEK_clean_linker_0, # of connection points: 2
#     Edge 17, Type (0, 0), BuildingBlock: EZIPEK_clean_linker_0, # of connection points: 2
#     Edge 18, Type (0, 0), BuildingBlock: EZIPEK_clean_linker_0, # of connection points: 2
#     Edge 19, Type (0, 0), BuildingBlock: EZIPEK_clean_linker_0, # of connection points: 2
#     Edge 20, Type (0, 0), BuildingBlock: EZIPEK_clean_linker_0, # of connection points: 2
#     Edge 21, Type (0, 0), BuildingBlock: EZIPEK_clean_linker_0, # of connection points: 2
#     Edge 22, Type (0, 0), BuildingBlock: EZIPEK_clean_linker_0, # of connection points: 2
#     Edge 23, Type (0, 0), BuildingBlock: EZIPEK_clean_linker_0, # of connection points: 2
#     Edge 24, Type (0, 0), BuildingBlock: EZIPEK_clean_linker_0, # of connection points: 2
#     Edge 25, Type (0, 0), BuildingBlock: EZIPEK_clean_linker_0, # of connection points: 2
#     Edge 26, Type (0, 0), BuildingBlock: EZIPEK_clean_linker_0, # of connection points: 2
#     Edge 27, Type (0, 0), BuildingBlock: EZIPEK_clean_linker_0, # of connection points: 2
#     Edge 28, Type (0, 0), BuildingBlock: EZIPEK_clean_linker_0, # of connection points: 2
#     Edge 29, Type (0, 0), BuildingBlock: EZIPEK_clean_linker_0, # of connection points: 2
#     Edge 30, Type (0, 0), BuildingBlock: EZIPEK_clean_linker_0, # of connection points: 2
#     Edge 31, Type (0, 0), BuildingBlock: EZIPEK_clean_linker_0, # of connection points: 2
#     Edge 32, Type (0, 0), BuildingBlock: EZIPEK_clean_linker_0, # of connection points: 2
#     Edge 33, Type (0, 0), BuildingBlock: EZIPEK_clean_linker_0, # of connection points: 2
#     Edge 34, Type (0, 0), BuildingBlock: EZIPEK_clean_linker_0, # of connection points: 2
#     Edge 35, Type (0, 0), BuildingBlock: EZIPEK_clean_linker_0, # of connection points: 2
# Relax obj value: 0.086
# Max RMSD: 0.117
# Mean RMSD: 0.117
data_MOF--net-umy--node1-QUQFOY_clean_sbu_1--edge1-EZIPEK_clean_linker_0
_symmetry_space_group_name_H-M    P1
_symmetry_Int_Tables_number       1
_symmetry_cell_setting            triclinic
loop_
_symmetry_equiv_pos_as_xyz
'x, y, z'
_cell_length_a     30.763898
_cell_length_b     30.784145
_cell_length_c     37.810619
_cell_angle_alpha  89.991506
_cell_angle_beta   89.981681
_cell_angle_gamma 119.94721
loop_
_atom_site_label
_atom_site_type_symbol
_atom_site_fract_x
_atom_site_fract_y
_atom_site_fract_z
_atom_type_partial_charge
O0 O 1.00045 0.32127 0.17208 0.0
Cd1 Cd 0.06516 0.38661 0.15788 0.0
Cd2 Cd 0.09039 0.31809 0.13586 0.0
O3 O 0.01826 0.26503 0.15074 0.0
O4 O 0.04792 0.44107 0.15844 0.0
O5 O 0.07551 0.42042 0.11066 0.0
C6 C 0.06095 0.44871 0.12564 0.0
C7 C 0.1299 0.31334 0.08409 0.0
C8 C 0.98883 0.27577 0.16728 0.0
C9 C 0.14778 0.38571 0.19723 0.0
O10 O 0.13893 0.34858 0.17779 0.0
O11 O 0.12461 0.40967 0.19238 0.0
O12 O 0.12067 0.28304 0.1102 0.0
O13 O 0.11314 0.34427 0.08613 0.0
O14 O 0.68273 0.99146 0.33738 0.0
Cd15 Cd 0.68368 0.05695 0.32322 0.0
Cd16 Cd 0.77908 0.08085 0.30297 0.0
O17 O 0.75588 1.00696 0.31558 0.0
O18 O 0.61228 0.04078 0.32353 0.0
O19 O 0.66092 0.06814 0.27595 0.0
C20 C 0.61806 0.05404 0.29078 0.0
C21 C 0.83178 0.1246 0.25546 0.0
C22 C 0.71544 0.97833 0.33211 0.0
C23 C 0.76674 0.13705 0.36448 0.0
O24 O 0.79517 0.12681 0.34632 0.0
O25 O 0.72006 0.11586 0.35808 0.0
O26 O 0.84699 0.10848 0.28139 0.0
O27 O 0.78504 0.11228 0.25473 0.0
O28 O 0.70775 0.68038 0.50644 0.0
Cd29 Cd 0.63972 0.67427 0.49262 0.0
Cd30 Cd 0.70337 0.76752 0.46616 0.0
O31 O 0.75694 0.74619 0.47364 0.0
O32 O 0.5872 0.60195 0.49173 0.0
O33 O 0.60794 0.65194 0.44485 0.0
C34 C 0.58004 0.60833 0.45897 0.0
C35 C 0.70882 0.82026 0.41942 0.0
C36 C 0.75129 0.71193 0.49515 0.0
C37 C 0.63974 0.75649 0.5312 0.0
O38 O 0.67698 0.78433 0.5116 0.0
O39 O 0.61475 0.70953 0.52613 0.0
O40 O 0.74154 0.83555 0.44441 0.0
O41 O 0.67442 0.77358 0.41927 0.0
O42 O 0.02878 0.69754 0.67215 0.0
Cd43 Cd 0.96413 0.63224 0.65782 0.0
Cd44 Cd 0.93884 0.70075 0.63593 0.0
O45 O 1.01096 0.7538 0.65083 0.0
O46 O 0.98128 0.57771 0.65827 0.0
O47 O 0.95405 0.59871 0.61052 0.0
C48 C 0.96836 0.57016 0.62545 0.0
C49 C 0.89928 0.70547 0.5842 0.0
C50 C 0.04037 0.74304 0.66739 0.0
C51 C 0.88137 0.6329 0.6972 0.0
O52 O 0.89027 0.67013 0.67785 0.0
O53 O 0.90456 0.60896 0.69227 0.0
O54 O 0.90851 0.73577 0.6103 0.0
O55 O 0.91611 0.67459 0.58621 0.0
O56 O 0.3464 0.02719 0.83739 0.0
Cd57 Cd 0.34533 0.96167 0.82317 0.0
Cd58 Cd 0.24998 0.93791 0.80306 0.0
O59 O 0.27326 0.01181 0.81569 0.0
O60 O 0.41671 0.97777 0.82335 0.0
O61 O 0.36802 0.95052 0.77585 0.0
C62 C 0.4109 0.96449 0.7906 0.0
C63 C 0.19731 0.89418 0.75556 0.0
C64 C 0.31373 0.04038 0.83218 0.0
C65 C 0.26231 0.88164 0.86453 0.0
O66 O 0.23388 0.89192 0.84641 0.0
O67 O 0.30898 0.90277 0.85806 0.0
O68 O 0.18208 0.91027 0.78149 0.0
O69 O 0.24405 0.90651 0.75481 0.0
O70 O 0.32126 0.33815 0.0065 0.0
Cd71 Cd 0.38941 0.34431 0.99301 0.0
Cd72 Cd 0.32596 0.25108 0.9664 0.0
O73 O 0.27226 0.27231 0.97371 0.0
O74 O 0.44172 0.4167 0.99212 0.0
O75 O 0.42176 0.36655 0.94539 0.0
C76 C 0.44928 0.41025 0.95946 0.0
C77 C 0.32066 0.19839 0.91967 0.0
C78 C 0.27778 0.30657 0.99515 0.0
C79 C 0.38916 0.26208 0.03171 0.0
O80 O 0.35217 0.23427 0.01192 0.0
O81 O 0.41409 0.30907 0.02677 0.0
O82 O 0.28791 0.18306 0.94466 0.0
O83 O 0.35504 0.24508 0.91954 0.0
O84 O 0.70289 0.02272 0.67159 0.0
Cd85 Cd 0.63738 0.95813 0.68568 0.0
Cd86 Cd 0.70579 0.93266 0.70767 0.0
O87 O 0.75905 1.00475 0.69294 0.0
O88 O 0.58317 0.97577 0.68519 0.0
O89 O 0.60338 0.9476 0.73285 0.0
C90 C 0.57533 0.96252 0.71794 0.0
C91 C 0.7104 0.89294 0.75936 0.0
C92 C 0.74839 0.03426 0.67642 0.0
C93 C 0.63819 0.87568 0.64614 0.0
O94 O 0.67525 0.88436 0.66562 0.0
O95 O 0.61425 0.89888 0.65103 0.0
O96 O 0.74071 0.90216 0.73324 0.0
O97 O 0.67952 0.90978 0.75738 0.0
O98 O 0.68524 0.70154 0.83701 0.0
Cd99 Cd 0.67891 0.63336 0.85048 0.0
Cd100 Cd 0.77231 0.6968 0.87717 0.0
O101 O 0.75115 0.75049 0.86977 0.0
O102 O 0.6064 0.58128 0.85127 0.0
O103 O 0.6565 0.60081 0.89803 0.0
C104 C 0.61277 0.57358 0.88391 0.0
C105 C 0.82526 0.70237 0.92382 0.0
C106 C 0.71688 0.74499 0.84834 0.0
C107 C 0.7612 0.63349 0.81187 0.0
O108 O 0.78902 0.67042 0.83169 0.0
O109 O 0.71417 0.60864 0.81675 0.0
O110 O 0.84048 0.73495 0.89873 0.0
O111 O 0.77855 0.66801 0.92408 0.0
O112 O 0.99744 0.67793 0.00603 0.0
Cd113 Cd 0.06304 0.67935 0.02061 0.0
Cd114 Cd 0.08611 0.77446 0.04067 0.0
O115 O 1.0121 0.75071 0.0279 0.0
O116 O 0.04736 0.60816 0.02016 0.0
O117 O 0.07344 0.65621 0.06799 0.0
C118 C 0.05997 0.61358 0.05304 0.0
C119 C 0.12949 0.82709 0.08825 0.0
C120 C 0.98387 0.71031 0.01125 0.0
C121 C 0.14318 0.76271 0.97952 0.0
O122 O 0.13236 0.79091 0.99741 0.0
O123 O 0.12239 0.71614 0.9861 0.0
O124 O 0.11321 0.84218 0.06235 0.0
O125 O 0.11748 0.78046 0.08893 0.0
O126 O 0.32586 0.99554 0.17177 0.0
Cd127 Cd 0.39124 0.0601 0.18607 0.0
Cd128 Cd 0.32269 0.08526 0.20812 0.0
O129 O 0.26957 0.01314 0.19339 0.0
O130 O 0.44573 0.04284 0.18545 0.0
O131 O 0.42494 0.07007 0.23331 0.0
C132 C 0.45337 0.05568 0.21829 0.0
C133 C 0.3182 0.12496 0.25984 0.0
C134 C 0.28033 0.98383 0.1767 0.0
C135 C 0.39029 0.14261 0.14669 0.0
O136 O 0.35303 0.13363 0.16608 0.0
O137 O 0.41441 0.11962 0.15163 0.0
O138 O 0.28774 0.11563 0.23382 0.0
O139 O 0.34912 0.10818 0.25777 0.0
O140 O 0.34372 0.31673 0.33706 0.0
Cd141 Cd 0.35017 0.385 0.35041 0.0
Cd142 Cd 0.25672 0.32163 0.37728 0.0
O143 O 0.2779 0.26793 0.37 0.0
O144 O 0.4227 0.43707 0.3509 0.0
O145 O 0.37294 0.41772 0.39786 0.0
C146 C 0.41656 0.44487 0.38356 0.0
C147 C 0.20374 0.3161 0.42393 0.0
C148 C 0.3121 0.27333 0.34851 0.0
C149 C 0.26777 0.3848 0.3119 0.0
O150 O 0.23997 0.34789 0.33177 0.0
O151 O 0.31482 0.40965 0.31674 0.0
O152 O 0.18855 0.28347 0.39889 0.0
O153 O 0.25044 0.35049 0.42415 0.0
O154 O 0.03156 0.34077 0.50602 0.0
Cd155 Cd 0.96595 0.33945 0.52045 0.0
Cd156 Cd 0.94271 0.24422 0.54062 0.0
O157 O 0.01672 0.26791 0.52787 0.0
O158 O 0.98182 0.41071 0.51998 0.0
O159 O 0.9552 0.36248 0.56776 0.0
C160 C 0.969 0.40517 0.55282 0.0
C161 C 0.89928 0.19138 0.58814 0.0
C162 C 0.04505 0.30834 0.51126 0.0
C163 C 0.88585 0.25612 0.47937 0.0
O164 O 0.89653 0.22789 0.49736 0.0
O165 O 0.90673 0.30273 0.48585 0.0
O166 O 0.91556 0.1764 0.56217 0.0
O167 O 0.91129 0.238 0.58891 0.0
C168 C 1.01449 0.52613 0.07738 0.0
C169 C 0.06013 0.57195 0.07262 0.0
C170 C 0.10595 0.53741 0.10402 0.0
C171 C 0.06099 0.49048 0.10629 0.0
N172 N 0.97388 0.43738 0.09143 0.0
N173 N 0.1505 0.61918 0.07615 0.0
C174 C 0.01561 0.48403 0.09189 0.0
C175 C 0.10623 0.57717 0.08464 0.0
N176 N 0.96991 0.52351 0.06931 0.0
N177 N 0.14812 0.5443 0.1211 0.0
H178 H 0.1524 0.64912 0.06195 0.0
H179 H 0.18554 0.62279 0.08062 0.0
H180 H 0.1498 0.51566 0.13466 0.0
H181 H 0.18033 0.57916 0.12404 0.0
H182 H 0.93503 0.49296 0.07554 0.0
H183 H 0.96762 0.55376 0.05903 0.0
H184 H 0.94111 0.42894 0.07792 0.0
H185 H 0.97328 0.40593 0.10232 0.0
C186 C 0.53705 0.00951 0.25742 0.0
C187 C 0.57673 0.05476 0.27131 0.0
C188 C 0.53656 0.10109 0.2492 0.0
C189 C 0.49497 0.05521 0.23771 0.0
N190 N 0.45162 0.96493 0.23531 0.0
N191 N 0.61182 0.14241 0.28514 0.0
C192 C 0.49417 1.00914 0.24294 0.0
C193 C 0.57581 0.10025 0.26853 0.0
N194 N 0.54096 0.96716 0.25742 0.0
N195 N 0.53965 0.14561 0.24029 0.0
H196 H 0.64196 0.14364 0.29869 0.0
H197 H 0.60999 0.17513 0.28772 0.0
H198 H 0.51177 0.14791 0.22615 0.0
H199 H 0.57155 0.18039 0.24435 0.0
H200 H 0.51599 0.93431 0.2443 0.0
H201 H 0.57157 0.96603 0.26826 0.0
H202 H 0.44661 0.92989 0.24191 0.0
H203 H 0.41935 0.96322 0.22501 0.0
C204 C 0.53981 0.52184 0.43281 0.0
C205 C 0.53893 0.56695 0.43874 0.0
C206 C 0.45912 0.53271 0.40672 0.0
C207 C 0.45805 0.4863 0.40333 0.0
N208 N 0.49328 0.43374 0.41663 0.0
N209 N 0.49418 0.61276 0.43673 0.0
C210 C 0.49729 0.48002 0.41736 0.0
C211 C 0.4977 0.57182 0.42703 0.0
N212 N 0.58207 0.51969 0.44073 0.0
N213 N 0.42395 0.53988 0.38972 0.0
H214 H 0.52139 0.64215 0.45178 0.0
H215 H 0.46235 0.61578 0.43248 0.0
H216 H 0.39439 0.51179 0.37526 0.0
H217 H 0.42615 0.57465 0.38762 0.0
H218 H 0.58719 0.48984 0.43375 0.0
H219 H 0.61404 0.54975 0.45173 0.0
H220 H 0.51782 0.42522 0.42977 0.0
H221 H 0.46297 0.40256 0.40506 0.0
C222 C 0.92259 0.48722 0.5943 0.0
C223 C 0.96858 0.52851 0.60595 0.0
C224 C 1.01387 0.48596 0.58632 0.0
C225 C 0.96853 0.4466 0.57228 0.0
N226 N 0.881 0.4122 0.55818 0.0
N227 N 0.0589 0.57125 0.60857 0.0
C228 C 0.9232 0.44791 0.57493 0.0
C229 C 0.01452 0.52895 0.60083 0.0
N230 N 0.87814 0.48444 0.60313 0.0
N231 N 0.05603 0.48168 0.58643 0.0
H232 H 0.06082 0.6036 0.61886 0.0
H233 H 0.09389 0.57599 0.60206 0.0
H234 H 0.05696 0.45101 0.57554 0.0
H235 H 0.08889 0.50639 0.59966 0.0
H236 H 0.84325 0.45273 0.59894 0.0
H237 H 0.87598 0.51234 0.61733 0.0
H238 H 0.84844 0.41435 0.55551 0.0
H239 H 0.87958 0.382 0.54463 0.0
C240 C 0.53946 1.00876 0.74989 0.0
C241 C 0.53369 0.96279 0.73732 0.0
C242 C 0.4479 0.91757 0.76076 0.0
C243 C 0.45236 0.964 0.77099 0.0
N244 N 0.49904 0.05433 0.77102 0.0
N245 N 0.48105 0.8744 0.72599 0.0
C246 C 0.49732 0.0098 0.76446 0.0
C247 C 0.4875 0.91741 0.74143 0.0
N248 N 0.58559 0.05116 0.74867 0.0
N249 N 0.40672 0.87354 0.77081 0.0
H250 H 0.50958 0.87251 0.7124 0.0
H251 H 0.44654 0.84147 0.72439 0.0
H252 H 0.3768 0.87201 0.78485 0.0
H253 H 0.40382 0.83859 0.76775 0.0
H254 H 0.59373 0.08473 0.76081 0.0
H255 H 0.61707 0.05177 0.73781 0.0
H256 H 0.52874 0.08904 0.76344 0.0
H257 H 0.46878 0.05648 0.78147 0.0
C258 C 0.53337 0.44816 0.92994 0.0
C259 C 0.49051 0.45161 0.93933 0.0
C260 C 0.53026 0.53725 0.9156 0.0
C261 C 0.57137 0.53229 0.90389 0.0
N262 N 0.60928 0.48094 0.89481 0.0
N263 N 0.44443 0.4959 0.93716 0.0
C264 C 0.5722 0.48716 0.90968 0.0
C265 C 0.48796 0.49528 0.93115 0.0
N266 N 0.53796 0.40858 0.94165 0.0
N267 N 0.53237 0.58255 0.91272 0.0
H268 H 0.41274 0.46579 0.94843 0.0
H269 H 0.43816 0.52439 0.92847 0.0
H270 H 0.56262 0.61387 0.9012 0.0
H271 H 0.50621 0.59035 0.92411 0.0
H272 H 0.57075 0.40681 0.93922 0.0
H273 H 0.51034 0.37912 0.95645 0.0
H274 H 0.60874 0.44686 0.89447 0.0
H275 H 0.63887 0.50891 0.88028 0.0
C276 C 0.15222 0.26585 0.04122 0.0
C277 C 0.16079 0.31285 0.05377 0.0
C278 C 0.23545 0.35387 0.01577 0.0
C279 C 0.23326 0.30718 0.01042 0.0
N280 N 0.19131 0.2181 0.02414 0.0
N281 N 0.21559 0.40314 0.05526 0.0
C282 C 0.19171 0.26271 0.02421 0.0
C283 C 0.2033 0.35751 0.04124 0.0
N284 N 0.10634 0.22402 0.04579 0.0
N285 N 0.26823 0.39478 0.99649 0.0
H286 H 0.1948 0.40826 0.07481 0.0
H287 H 0.24932 0.43566 0.04967 0.0
H288 H 0.29118 0.39289 0.97693 0.0
H289 H 0.26841 0.42871 0.99715 0.0
H290 H 0.09685 0.18949 0.03452 0.0
H291 H 0.07621 0.22545 0.05728 0.0
H292 H 0.16401 0.18638 0.03729 0.0
H293 H 0.22053 0.21357 0.01466 0.0
C294 C 0.90811 0.20813 0.2468 0.0
C295 C 0.86927 0.16355 0.23144 0.0
C296 C 0.9055 0.19477 0.1725 0.0
C297 C 0.94715 0.23641 0.18862 0.0
N298 N 0.9937 0.27544 0.24203 0.0
N299 N 0.83293 0.11146 0.1801 0.0
C300 C 0.94999 0.2411 0.22602 0.0
C301 C 0.86826 0.15606 0.1943 0.0
N302 N 0.9043 0.22005 0.28109 0.0
N303 N 0.90101 0.19287 0.13652 0.0
H304 H 0.80516 0.08276 0.19533 0.0
H305 H 0.8332 0.10153 0.15382 0.0
H306 H 0.92783 0.22042 0.12004 0.0
H307 H 0.86922 0.1662 0.12318 0.0
H308 H 0.92903 0.25466 0.29234 0.0
H309 H 0.8735 0.19777 0.29713 0.0
H310 H 0.9992 0.27667 0.26929 0.0
H311 H 0.02642 0.29903 0.22811 0.0
C312 C 0.7025 0.89722 0.41139 0.0
C313 C 0.70657 0.85758 0.39565 0.0
C314 C 0.71018 0.8936 0.33685 0.0
C315 C 0.71203 0.93601 0.35323 0.0
N316 N 0.72243 0.98334 0.40677 0.0
N317 N 0.71907 0.8198 0.34372 0.0
C318 C 0.71152 0.93921 0.39069 0.0
C319 C 0.71141 0.85599 0.35837 0.0
N320 N 0.68844 0.89417 0.44603 0.0
N321 N 0.70619 0.88886 0.30091 0.0
H322 H 0.71982 0.79174 0.35871 0.0
H323 H 0.72811 0.81955 0.31721 0.0
H324 H 0.70562 0.91596 0.28465 0.0
H325 H 0.69973 0.85666 0.28747 0.0
H326 H 0.67971 0.91953 0.45772 0.0
H327 H 0.68016 0.86344 0.46208 0.0
H328 H 0.72777 0.98902 0.43396 0.0
H329 H 0.73166 0.01612 0.39291 0.0
C330 C 0.79362 0.66471 0.516 0.0
C331 C 0.79574 0.71136 0.51058 0.0
C332 C 0.87676 0.75284 0.54136 0.0
C333 C 0.8683 0.70588 0.55393 0.0
N334 N 0.8136 0.61558 0.55554 0.0
N335 N 0.83748 0.80042 0.52428 0.0
C336 C 0.82582 0.66117 0.54147 0.0
C337 C 0.83722 0.75587 0.52436 0.0
N338 N 0.76089 0.62375 0.49677 0.0
N339 N 0.92259 0.79474 0.5459 0.0
H340 H 0.80819 0.80483 0.51483 0.0
H341 H 0.86473 0.83218 0.53739 0.0
H342 H 0.95276 0.7934 0.55737 0.0
H343 H 0.932 0.82925 0.53461 0.0
H344 H 0.76078 0.58985 0.49748 0.0
H345 H 0.7379 0.62554 0.47721 0.0
H346 H 0.77989 0.58303 0.55 0.0
H347 H 0.83441 0.61053 0.57511 0.0
C348 C 0.0792 0.77761 0.72613 0.0
C349 C 0.08202 0.78238 0.68873 0.0
C350 C 0.16084 0.8628 0.69441 0.0
C351 C 0.15985 0.85524 0.73154 0.0
N352 N 0.12488 0.79865 0.78117 0.0
N353 N 0.12813 0.82609 0.63662 0.0
C354 C 0.12105 0.8106 0.7469 0.0
C355 C 0.12364 0.82411 0.67261 0.0
N356 N 0.03551 0.74318 0.74215 0.0
N357 N 0.19612 0.90745 0.68022 0.0
H358 H 0.10136 0.79854 0.62015 0.0
H359 H 0.1599 0.85283 0.62328 0.0
H360 H 0.22387 0.93615 0.69545 0.0
H361 H 0.19583 0.91743 0.65395 0.0
H362 H 0.03001 0.74188 0.76941 0.0
H363 H 1.00281 0.71958 0.72824 0.0
H364 H 0.1002 0.764 0.79242 0.0
H365 H 0.15566 0.82095 0.79721 0.0
C366 C 0.31917 0.12518 0.83702 0.0
C367 C 0.31722 0.0827 0.85335 0.0
C368 C 0.3269 0.12142 0.91154 0.0
C369 C 0.3229 0.16112 0.89585 0.0
N370 N 0.31046 0.19907 0.84398 0.0
N371 N 0.3068 0.03525 0.90686 0.0
C372 C 0.31804 0.1628 0.85858 0.0
C373 C 0.31777 0.07944 0.8908 0.0
N374 N 0.32315 0.12998 0.80107 0.0
N375 N 0.341 0.1244 0.94616 0.0
H376 H 0.29748 1.00249 0.89297 0.0
H377 H 0.3015 0.02953 0.93405 0.0
H378 H 0.34938 0.15514 0.96221 0.0
H379 H 0.34966 0.09896 0.95781 0.0
H380 H 0.32968 0.16224 0.78766 0.0
H381 H 0.32364 0.10287 0.78478 0.0
H382 H 0.30141 0.19938 0.81749 0.0
H383 H 0.30979 0.22714 0.85901 0.0
C384 C 0.66968 0.7874 0.82766 0.0
C385 C 0.71635 0.78949 0.83301 0.0
C386 C 0.75784 0.87045 0.80217 0.0
C387 C 0.71084 0.86199 0.78965 0.0
N388 N 0.62048 0.80737 0.78817 0.0
N389 N 0.80547 0.8312 0.81923 0.0
C390 C 0.66611 0.81957 0.80219 0.0
C391 C 0.76089 0.83093 0.81918 0.0
N392 N 0.62872 0.75471 0.84695 0.0
N393 N 0.79976 0.91624 0.79758 0.0
H394 H 0.80991 0.80195 0.82871 0.0
H395 H 0.83723 0.85842 0.80607 0.0
H396 H 0.79841 0.9464 0.78611 0.0
H397 H 0.83431 0.92565 0.80883 0.0
H398 H 0.59481 0.75463 0.84629 0.0
H399 H 0.63055 0.73175 0.86652 0.0
H400 H 0.5879 0.7737 0.79377 0.0
H401 H 0.6154 0.82815 0.76861 0.0
C402 C 0.86108 0.70537 0.98489 0.0
C403 C 0.86266 0.70034 0.94762 0.0
C404 C 0.94454 0.70577 0.95263 0.0
C405 C 0.94138 0.70649 0.99009 0.0
N406 N 0.89408 0.70057 0.04239 0.0
N407 N 0.89936 0.68209 0.89736 0.0
C408 C 0.89883 0.70445 0.00644 0.0
C409 C 0.90242 0.69638 0.93194 0.0
N410 N 0.82476 0.71292 0.99948 0.0
N411 N 0.98876 0.71683 0.93653 0.0
H412 H 0.86852 0.67351 0.88135 0.0
H413 H 0.92486 0.67349 0.88572 0.0
H414 H 0.02163 0.72639 0.95038 0.0
H415 H 0.99437 0.72199 0.90932 0.0
H416 H 0.82452 0.7221 0.02595 0.0
H417 H 0.79659 0.71344 0.98447 0.0
H418 H 0.86179 0.69399 0.05581 0.0
H419 H 0.92126 0.70019 0.05868 0.0
C420 C 0.24553 0.94558 0.11789 0.0
C421 C 0.24095 0.94233 0.15529 0.0
C422 C 0.16086 0.86321 0.14948 0.0
C423 C 0.16829 0.86462 0.11231 0.0
N424 N 0.22467 0.90049 0.06262 0.0
N425 N 0.19769 0.89557 0.2073 0.0
C426 C 0.21271 0.90384 0.09699 0.0
C427 C 0.19949 0.90039 0.17134 0.0
N428 N 0.27964 0.98953 0.10202 0.0
N429 N 0.11637 0.82756 0.16367 0.0
H430 H 0.22518 0.92235 0.22382 0.0
H431 H 0.1712 0.86359 0.22057 0.0
H432 H 0.0877 0.79985 0.14839 0.0
H433 H 0.10646 0.82748 0.19 0.0
H434 H 0.28076 0.99531 0.0748 0.0
H435 H 0.30313 0.02213 0.11606 0.0
H436 H 0.25921 0.92554 0.05137 0.0
H437 H 0.20256 0.86979 0.04648 0.0
C438 C 0.36269 0.1985 0.30247 0.0
C439 C 0.3179 0.15602 0.2901 0.0
C440 C 0.26797 0.18721 0.31965 0.0
C441 C 0.31257 0.22875 0.33329 0.0
N442 N 0.40025 0.26358 0.34703 0.0
N443 N 0.22903 0.10178 0.29833 0.0
C444 C 0.35922 0.2308 0.32787 0.0
C445 C 0.27096 0.14761 0.30273 0.0
N446 N 0.40827 0.21064 0.28836 0.0
N447 N 0.22339 0.18692 0.31977 0.0
H448 H 0.23034 0.07157 0.28693 0.0
H449 H 0.19454 0.09242 0.30968 0.0
H450 H 0.21897 0.21623 0.32917 0.0
H451 H 0.19156 0.15961 0.30674 0.0
H452 H 0.44086 0.24435 0.29382 0.0
H453 H 0.41328 0.18976 0.26884 0.0
H454 H 0.43417 0.26367 0.34632 0.0
H455 H 0.3985 0.28664 0.36655 0.0
C456 C 0.12655 0.32208 0.43198 0.0
C457 C 0.16631 0.31817 0.4477 0.0
C458 C 0.13009 0.31418 0.5065 0.0
C459 C 0.08755 0.31211 0.49012 0.0
N460 N 0.04023 0.30169 0.43656 0.0
N461 N 0.20417 0.30571 0.49961 0.0
C462 C 0.08442 0.31276 0.45266 0.0
C463 C 0.16786 0.31322 0.48498 0.0
N464 N 0.12963 0.33628 0.39737 0.0
N465 N 0.13479 0.31811 0.54244 0.0
H466 H 0.23236 0.30516 0.48462 0.0
H467 H 0.20441 0.29659 0.5261 0.0
H468 H 0.10759 0.31851 0.55871 0.0
H469 H 0.16707 0.32472 0.55588 0.0
H470 H 0.10414 0.34487 0.3857 0.0
H471 H 0.16047 0.3448 0.38135 0.0
H472 H 0.03462 0.29646 0.40935 0.0
H473 H 1.00735 0.2922 0.4504 0.0
C474 C 0.81603 0.11465 0.59682 0.0
C475 C 0.86047 0.15374 0.61217 0.0
C476 C 0.82932 0.11764 0.67115 0.0
C477 C 0.78781 0.07583 0.65507 0.0
N478 N 0.74902 0.02896 0.60173 0.0
N479 N 0.91247 0.19047 0.66351 0.0
C480 C 0.78319 0.0728 0.61766 0.0
C481 C 0.86794 0.15492 0.64932 0.0
N482 N 0.80406 0.11821 0.56251 0.0
N483 N 0.83116 0.12224 0.70713 0.0
H484 H 0.94112 0.21826 0.64825 0.0
H485 H 0.9224 0.19038 0.68981 0.0
H486 H 0.80369 0.09537 0.72362 0.0
H487 H 0.8577 0.15413 0.72044 0.0
H488 H 0.7695 0.09326 0.55125 0.0
H489 H 0.82619 0.14898 0.54641 0.0
H490 H 0.74786 0.02334 0.57449 0.0
H491 H 0.72551 0.9963 0.61572 0.0
C492 C 0.20264 0.40382 0.28995 0.0
C493 C 0.24423 0.39742 0.28247 0.0
C494 C 0.23147 0.40357 0.21917 0.0
C495 C 0.18409 0.39875 0.22662 0.0
N496 N 0.12203 0.38959 0.27003 0.0
N497 N 0.29621 0.38678 0.23919 0.0
C498 C 0.16919 0.39851 0.26226 0.0
C499 C 0.2588 0.397 0.24687 0.0
N500 N 0.19538 0.41534 0.32352 0.0
N501 N 0.25023 0.41444 0.18555 0.0
H502 H 0.31663 0.3804 0.2584 0.0
H503 H 0.30414 0.38035 0.21357 0.0
H504 H 0.23129 0.42035 0.16487 0.0
H505 H 0.28654 0.42282 0.17914 0.0
H506 H 0.16817 0.42476 0.32994 0.0
H507 H 0.22013 0.42074 0.34415 0.0
H508 H 0.10763 0.38296 0.29565 0.0
H509 H 0.0956 0.38465 0.25093 0.0
C510 C 0.86448 0.24876 0.41451 0.0
C511 C 0.84949 0.23349 0.45001 0.0
C512 C 0.7742 0.15807 0.4294 0.0
C513 C 0.78924 0.17328 0.39391 0.0
N514 N 0.83917 0.2397 0.353 0.0
N515 N 0.7834 0.18301 0.491 0.0
C516 C 0.83126 0.221 0.38663 0.0
C517 C 0.80195 0.19123 0.45731 0.0
N518 N 0.91155 0.28738 0.40715 0.0
N519 N 0.73583 0.11086 0.43672 0.0
H520 H 0.80268 0.20741 0.5118 0.0
H521 H 0.74707 0.15527 0.49748 0.0
H522 H 0.71439 0.08503 0.41729 0.0
H523 H 0.72762 0.09593 0.46218 0.0
H524 H 0.92635 0.29579 0.38166 0.0
H525 H 0.93745 0.30881 0.42655 0.0
H526 H 0.86669 0.27612 0.34657 0.0
H527 H 0.81472 0.2204 0.33223 0.0
C528 C 0.6203 0.79216 0.62396 0.0
C529 C 0.62524 0.83957 0.61664 0.0
C530 C 0.62062 0.82149 0.55325 0.0
C531 C 0.62692 0.77984 0.56065 0.0
N532 N 0.63711 0.7275 0.60382 0.0
N533 N 0.63475 0.90191 0.5734 0.0
C534 C 0.62703 0.765 0.59621 0.0
C535 C 0.62575 0.85472 0.58104 0.0
N536 N 0.60918 0.77318 0.65751 0.0
N537 N 0.60938 0.82899 0.51966 0.0
H538 H 0.63953 0.92818 0.59257 0.0
H539 H 0.64159 0.91649 0.54784 0.0
H540 H 0.60411 0.80439 0.49897 0.0
H541 H 0.60005 0.85626 0.51327 0.0
H542 H 0.60071 0.73684 0.66383 0.0
H543 H 0.60316 0.79199 0.67823 0.0
H544 H 0.64333 0.71936 0.62944 0.0
H545 H 0.64356 0.70718 0.58457 0.0
C546 C 0.79761 0.61484 0.71913 0.0
C547 C 0.84499 0.6197 0.72658 0.0
C548 C 0.82634 0.61447 0.7899 0.0
C549 C 0.78474 0.62085 0.78243 0.0
N550 N 0.73276 0.63147 0.73917 0.0
N551 N 0.90698 0.62877 0.76997 0.0
C552 C 0.7702 0.62131 0.74684 0.0
C553 C 0.85983 0.61986 0.76221 0.0
N554 N 0.77892 0.60405 0.68551 0.0
N555 N 0.83357 0.60292 0.82348 0.0
H556 H 0.93344 0.63375 0.75087 0.0
H557 H 0.92136 0.63535 0.79559 0.0
H558 H 0.80879 0.59749 0.84411 0.0
H559 H 0.86079 0.59352 0.8299 0.0
H560 H 0.7426 0.59564 0.67908 0.0
H561 H 0.79792 0.59823 0.66481 0.0
H562 H 0.72485 0.63794 0.71356 0.0
H563 H 0.71226 0.63775 0.75839 0.0
C564 C 0.19783 0.79772 0.88676 0.0
C565 C 0.23983 0.84544 0.89399 0.0
C566 C 0.22707 0.82761 0.95742 0.0
C567 C 0.17955 0.78532 0.95015 0.0
N568 N 0.11755 0.73132 0.90735 0.0
N569 N 0.29325 0.90792 0.93673 0.0
C570 C 0.1646 0.76998 0.91468 0.0
C571 C 0.25486 0.86072 0.92947 0.0
N572 N 0.18993 0.77898 0.85316 0.0
N573 N 0.24558 0.8359 0.99111 0.0
H574 H 0.31473 0.93369 0.91726 0.0
H575 H 0.30144 0.92292 0.96215 0.0
H576 H 0.22628 0.81155 0.01194 0.0
H577 H 0.28189 0.86367 0.99758 0.0
H578 H 0.16242 0.74255 0.84675 0.0
H579 H 0.21438 0.79826 0.83236 0.0
H580 H 0.10275 0.72285 0.88187 0.0
H581 H 0.09165 0.7099 0.92678 0.0
C582 C 0.40791 0.22609 0.12455 0.0
C583 C 0.40323 0.17879 0.11722 0.0
C584 C 0.40824 0.19709 0.05385 0.0
C585 C 0.40176 0.23863 0.06122 0.0
N586 N 0.39097 0.29063 0.10434 0.0
N587 N 0.39419 0.11667 0.07397 0.0
C588 C 0.40129 0.25328 0.09678 0.0
C589 C 0.40301 0.16379 0.08162 0.0
N590 N 0.4187 0.24493 0.15814 0.0
N591 N 0.41975 0.18973 0.02029 0.0
H592 H 0.38933 0.09035 0.09314 0.0
H593 H 0.38757 0.10218 0.04839 0.0
H594 H 0.42509 0.21438 0.9996 0.0
H595 H 0.42923 0.16256 0.01393 0.0
H596 H 0.42699 0.28121 0.16448 0.0
H597 H 0.42464 0.22611 0.17889 0.0
H598 H 0.38449 0.29861 0.12994 0.0
H599 H 0.38456 0.31095 0.08507 0.0
loop_
_geom_bond_atom_site_label_1
_geom_bond_atom_site_label_2
_geom_bond_distance
_geom_bond_site_symmetry_2
_ccdc_geom_bond_type
O0 Cd1 2.223 . S
O0 C8 1.315 . S
Cd1 O0 2.223 . S
Cd1 O4 2.297 . S
Cd1 O5 2.439 . S
Cd1 O11 2.240 . S
Cd2 O3 2.240 . S
Cd2 O10 2.223 . S
Cd2 O12 2.297 . S
Cd2 O13 2.439 . S
O3 Cd2 2.240 . S
O3 C8 1.279 . S
O4 Cd1 2.297 . S
O4 C6 1.247 . S
O5 Cd1 2.439 . S
O5 C6 1.208 . S
C6 O4 1.247 . S
C6 O5 1.208 . S
C7 O12 1.247 . S
C7 O13 1.208 . S
C8 O0 1.315 . S
C8 O3 1.279 . S
C9 O10 1.315 . S
C9 O11 1.279 . S
O10 Cd2 2.223 . S
O10 C9 1.315 . S
O11 Cd1 2.240 . S
O11 C9 1.279 . S
O12 Cd2 2.297 . S
O12 C7 1.247 . S
O13 Cd2 2.439 . S
O13 C7 1.208 . S
O14 Cd15 2.223 . S
O14 C22 1.315 . S
Cd15 O14 2.223 . S
Cd15 O18 2.297 . S
Cd15 O19 2.439 . S
Cd15 O25 2.240 . S
Cd16 O17 2.240 . S
Cd16 O24 2.223 . S
Cd16 O26 2.297 . S
Cd16 O27 2.439 . S
O17 Cd16 2.240 . S
O17 C22 1.279 . S
O18 Cd15 2.297 . S
O18 C20 1.247 . S
O19 Cd15 2.439 . S
O19 C20 1.208 . S
C20 O18 1.247 . S
C20 O19 1.208 . S
C21 O26 1.247 . S
C21 O27 1.208 . S
C22 O14 1.315 . S
C22 O17 1.279 . S
C23 O24 1.315 . S
C23 O25 1.279 . S
O24 Cd16 2.223 . S
O24 C23 1.315 . S
O25 Cd15 2.240 . S
O25 C23 1.279 . S
O26 Cd16 2.297 . S
O26 C21 1.247 . S
O27 Cd16 2.439 . S
O27 C21 1.208 . S
O28 Cd29 2.223 . S
O28 C36 1.315 . S
Cd29 O28 2.223 . S
Cd29 O32 2.297 . S
Cd29 O33 2.439 . S
Cd29 O39 2.240 . S
Cd30 O31 2.240 . S
Cd30 O38 2.223 . S
Cd30 O40 2.297 . S
Cd30 O41 2.439 . S
O31 Cd30 2.240 . S
O31 C36 1.279 . S
O32 Cd29 2.297 . S
O32 C34 1.247 . S
O33 Cd29 2.439 . S
O33 C34 1.208 . S
C34 O32 1.247 . S
C34 O33 1.208 . S
C35 O40 1.247 . S
C35 O41 1.208 . S
C36 O28 1.315 . S
C36 O31 1.279 . S
C37 O38 1.315 . S
C37 O39 1.279 . S
O38 Cd30 2.223 . S
O38 C37 1.315 . S
O39 Cd29 2.240 . S
O39 C37 1.279 . S
O40 Cd30 2.297 . S
O40 C35 1.247 . S
O41 Cd30 2.439 . S
O41 C35 1.208 . S
O42 Cd43 2.223 . S
O42 C50 1.315 . S
Cd43 O42 2.223 . S
Cd43 O46 2.297 . S
Cd43 O47 2.439 . S
Cd43 O53 2.240 . S
Cd44 O45 2.240 . S
Cd44 O52 2.223 . S
Cd44 O54 2.297 . S
Cd44 O55 2.439 . S
O45 Cd44 2.240 . S
O45 C50 1.279 . S
O46 Cd43 2.297 . S
O46 C48 1.247 . S
O47 Cd43 2.439 . S
O47 C48 1.208 . S
C48 O46 1.247 . S
C48 O47 1.208 . S
C49 O54 1.247 . S
C49 O55 1.208 . S
C50 O42 1.315 . S
C50 O45 1.279 . S
C51 O52 1.315 . S
C51 O53 1.279 . S
O52 Cd44 2.223 . S
O52 C51 1.315 . S
O53 Cd43 2.240 . S
O53 C51 1.279 . S
O54 Cd44 2.297 . S
O54 C49 1.247 . S
O55 Cd44 2.439 . S
O55 C49 1.208 . S
O56 Cd57 2.223 . S
O56 C64 1.315 . S
Cd57 O56 2.223 . S
Cd57 O60 2.297 . S
Cd57 O61 2.439 . S
Cd57 O67 2.240 . S
Cd58 O59 2.240 . S
Cd58 O66 2.223 . S
Cd58 O68 2.297 . S
Cd58 O69 2.439 . S
O59 Cd58 2.240 . S
O59 C64 1.279 . S
O60 Cd57 2.297 . S
O60 C62 1.247 . S
O61 Cd57 2.439 . S
O61 C62 1.208 . S
C62 O60 1.247 . S
C62 O61 1.208 . S
C63 O68 1.247 . S
C63 O69 1.208 . S
C64 O56 1.315 . S
C64 O59 1.279 . S
C65 O66 1.315 . S
C65 O67 1.279 . S
O66 Cd58 2.223 . S
O66 C65 1.315 . S
O67 Cd57 2.240 . S
O67 C65 1.279 . S
O68 Cd58 2.297 . S
O68 C63 1.247 . S
O69 Cd58 2.439 . S
O69 C63 1.208 . S
O70 Cd71 2.223 1_554 S
O70 C78 1.315 1_554 S
Cd71 O70 2.223 1_556 S
Cd71 O74 2.297 . S
Cd71 O75 2.439 . S
Cd71 O81 2.240 . S
Cd72 O73 2.240 . S
Cd72 O80 2.223 1_556 S
Cd72 O82 2.297 . S
Cd72 O83 2.439 . S
O73 Cd72 2.240 . S
O73 C78 1.279 . S
O74 Cd71 2.297 . S
O74 C76 1.247 . S
O75 Cd71 2.439 . S
O75 C76 1.208 . S
C76 O74 1.247 . S
C76 O75 1.208 . S
C77 O82 1.247 . S
C77 O83 1.208 . S
C78 O70 1.315 1_556 S
C78 O73 1.279 . S
C79 O80 1.315 . S
C79 O81 1.279 1_554 S
O80 Cd72 2.223 1_554 S
O80 C79 1.315 . S
O81 Cd71 2.240 . S
O81 C79 1.279 1_556 S
O82 Cd72 2.297 . S
O82 C77 1.247 . S
O83 Cd72 2.439 . S
O83 C77 1.208 . S
O84 Cd85 2.223 . S
O84 C92 1.315 . S
Cd85 O84 2.223 . S
Cd85 O88 2.297 . S
Cd85 O89 2.439 . S
Cd85 O95 2.240 . S
Cd86 O87 2.240 . S
Cd86 O94 2.223 . S
Cd86 O96 2.297 . S
Cd86 O97 2.439 . S
O87 Cd86 2.240 . S
O87 C92 1.279 . S
O88 Cd85 2.297 . S
O88 C90 1.247 . S
O89 Cd85 2.439 . S
O89 C90 1.208 . S
C90 O88 1.247 . S
C90 O89 1.208 . S
C91 O96 1.247 . S
C91 O97 1.208 . S
C92 O84 1.315 . S
C92 O87 1.279 . S
C93 O94 1.315 . S
C93 O95 1.279 . S
O94 Cd86 2.223 . S
O94 C93 1.315 . S
O95 Cd85 2.240 . S
O95 C93 1.279 . S
O96 Cd86 2.297 . S
O96 C91 1.247 . S
O97 Cd86 2.439 . S
O97 C91 1.208 . S
O98 Cd99 2.223 . S
O98 C106 1.315 . S
Cd99 O98 2.223 . S
Cd99 O102 2.297 . S
Cd99 O103 2.439 . S
Cd99 O109 2.240 . S
Cd100 O101 2.240 . S
Cd100 O108 2.223 . S
Cd100 O110 2.297 . S
Cd100 O111 2.439 . S
O101 Cd100 2.240 . S
O101 C106 1.279 . S
O102 Cd99 2.297 . S
O102 C104 1.247 . S
O103 Cd99 2.439 . S
O103 C104 1.208 . S
C104 O102 1.247 . S
C104 O103 1.208 . S
C105 O110 1.247 . S
C105 O111 1.208 . S
C106 O98 1.315 . S
C106 O101 1.279 . S
C107 O108 1.315 . S
C107 O109 1.279 . S
O108 Cd100 2.223 . S
O108 C107 1.315 . S
O109 Cd99 2.240 . S
O109 C107 1.279 . S
O110 Cd100 2.297 . S
O110 C105 1.247 . S
O111 Cd100 2.439 . S
O111 C105 1.208 . S
O112 Cd113 2.223 1_556 S
O112 C120 1.315 1_556 S
Cd113 O112 2.223 1_554 S
Cd113 O116 2.297 . S
Cd113 O117 2.439 . S
Cd113 O123 2.240 . S
Cd114 O115 2.240 . S
Cd114 O122 2.223 1_554 S
Cd114 O124 2.297 . S
Cd114 O125 2.439 . S
O115 Cd114 2.240 . S
O115 C120 1.279 . S
O116 Cd113 2.297 . S
O116 C118 1.247 . S
O117 Cd113 2.439 . S
O117 C118 1.208 . S
C118 O116 1.247 . S
C118 O117 1.208 . S
C119 O124 1.247 . S
C119 O125 1.208 . S
C120 O112 1.315 1_554 S
C120 O115 1.279 . S
C121 O122 1.315 . S
C121 O123 1.279 1_556 S
O122 Cd114 2.223 1_556 S
O122 C121 1.315 . S
O123 Cd113 2.240 . S
O123 C121 1.279 1_554 S
O124 Cd114 2.297 . S
O124 C119 1.247 . S
O125 Cd114 2.439 . S
O125 C119 1.208 . S
O126 Cd127 2.223 . S
O126 C134 1.315 . S
Cd127 O126 2.223 . S
Cd127 O130 2.297 . S
Cd127 O131 2.439 . S
Cd127 O137 2.240 . S
Cd128 O129 2.240 . S
Cd128 O136 2.223 . S
Cd128 O138 2.297 . S
Cd128 O139 2.439 . S
O129 Cd128 2.240 . S
O129 C134 1.279 . S
O130 Cd127 2.297 . S
O130 C132 1.247 . S
O131 Cd127 2.439 . S
O131 C132 1.208 . S
C132 O130 1.247 . S
C132 O131 1.208 . S
C133 O138 1.247 . S
C133 O139 1.208 . S
C134 O126 1.315 . S
C134 O129 1.279 . S
C135 O136 1.315 . S
C135 O137 1.279 . S
O136 Cd128 2.223 . S
O136 C135 1.315 . S
O137 Cd127 2.240 . S
O137 C135 1.279 . S
O138 Cd128 2.297 . S
O138 C133 1.247 . S
O139 Cd128 2.439 . S
O139 C133 1.208 . S
O140 Cd141 2.223 . S
O140 C148 1.315 . S
Cd141 O140 2.223 . S
Cd141 O144 2.297 . S
Cd141 O145 2.439 . S
Cd141 O151 2.240 . S
Cd142 O143 2.240 . S
Cd142 O150 2.223 . S
Cd142 O152 2.297 . S
Cd142 O153 2.439 . S
O143 Cd142 2.240 . S
O143 C148 1.279 . S
O144 Cd141 2.297 . S
O144 C146 1.247 . S
O145 Cd141 2.439 . S
O145 C146 1.208 . S
C146 O144 1.247 . S
C146 O145 1.208 . S
C147 O152 1.247 . S
C147 O153 1.208 . S
C148 O140 1.315 . S
C148 O143 1.279 . S
C149 O150 1.315 . S
C149 O151 1.279 . S
O150 Cd142 2.223 . S
O150 C149 1.315 . S
O151 Cd141 2.240 . S
O151 C149 1.279 . S
O152 Cd142 2.297 . S
O152 C147 1.247 . S
O153 Cd142 2.439 . S
O153 C147 1.208 . S
O154 Cd155 2.223 . S
O154 C162 1.315 . S
Cd155 O154 2.223 . S
Cd155 O158 2.297 . S
Cd155 O159 2.439 . S
Cd155 O165 2.240 . S
Cd156 O157 2.240 . S
Cd156 O164 2.223 . S
Cd156 O166 2.297 . S
Cd156 O167 2.439 . S
O157 Cd156 2.240 . S
O157 C162 1.279 . S
O158 Cd155 2.297 . S
O158 C160 1.247 . S
O159 Cd155 2.439 . S
O159 C160 1.208 . S
C160 O158 1.247 . S
C160 O159 1.208 . S
C161 O166 1.247 . S
C161 O167 1.208 . S
C162 O154 1.315 . S
C162 O157 1.279 . S
C163 O164 1.315 . S
C163 O165 1.279 . S
O164 Cd156 2.223 . S
O164 C163 1.315 . S
O165 Cd155 2.240 . S
O165 C163 1.279 . S
O166 Cd156 2.297 . S
O166 C161 1.247 . S
O167 Cd156 2.439 . S
O167 C161 1.208 . S
C168 C169 1.363 . S
C168 C174 1.379 . S
C168 N176 1.356 1_455 S
C169 C168 1.363 . S
C169 C175 1.363 . S
C170 C171 1.363 . S
C170 C175 1.379 . S
C170 N177 1.356 . S
C171 C170 1.363 . S
C171 C174 1.363 . S
N172 C174 1.356 1_655 S
N172 H184 0.984 . S
N172 H185 0.985 1_655 S
N173 C175 1.356 . S
N173 H178 0.984 . S
N173 H179 0.985 . S
C174 C168 1.379 . S
C174 C171 1.363 . S
C174 N172 1.356 1_455 S
C175 C169 1.363 . S
C175 C170 1.379 . S
C175 N173 1.356 . S
N176 C168 1.356 1_655 S
N176 H182 0.984 . S
N176 H183 0.984 1_655 S
N177 C170 1.356 . S
N177 H180 0.984 . S
N177 H181 0.985 . S
H178 N173 0.984 . S
H179 N173 0.985 . S
H180 N177 0.984 . S
H181 N177 0.985 . S
H182 N176 0.984 . S
H183 N176 0.984 1_455 S
H184 N172 0.984 . S
H185 N172 0.985 1_455 S
C186 C187 1.363 . S
C186 C192 1.379 . S
C186 N194 1.356 1_545 S
C187 C186 1.363 . S
C187 C193 1.363 . S
C188 C189 1.363 . S
C188 C193 1.379 . S
C188 N195 1.356 . S
C189 C188 1.363 . S
C189 C192 1.363 . S
N190 C192 1.356 1_565 S
N190 H202 0.984 . S
N190 H203 0.985 1_565 S
N191 C193 1.356 . S
N191 H196 0.984 . S
N191 H197 0.985 . S
C192 C186 1.379 . S
C192 C189 1.363 . S
C192 N190 1.356 1_545 S
C193 C187 1.363 . S
C193 C188 1.379 . S
C193 N191 1.356 . S
N194 C186 1.356 1_565 S
N194 H200 0.984 . S
N194 H201 0.984 1_565 S
N195 C188 1.356 . S
N195 H198 0.984 . S
N195 H199 0.985 . S
H196 N191 0.984 . S
H197 N191 0.985 . S
H198 N195 0.984 . S
H199 N195 0.985 . S
H200 N194 0.984 . S
H201 N194 0.984 1_545 S
H202 N190 0.984 . S
H203 N190 0.985 1_545 S
C204 C205 1.363 . S
C204 C210 1.379 . S
C204 N212 1.356 . S
C205 C204 1.363 . S
C205 C211 1.363 . S
C206 C207 1.363 . S
C206 C211 1.379 . S
C206 N213 1.356 . S
C207 C206 1.363 . S
C207 C210 1.363 . S
N208 C210 1.356 . S
N208 H220 0.984 . S
N208 H221 0.985 . S
N209 C211 1.356 . S
N209 H214 0.984 . S
N209 H215 0.985 . S
C210 C204 1.379 . S
C210 C207 1.363 . S
C210 N208 1.356 . S
C211 C205 1.363 . S
C211 C206 1.379 . S
C211 N209 1.356 . S
N212 C204 1.356 . S
N212 H218 0.984 . S
N212 H219 0.984 . S
N213 C206 1.356 . S
N213 H216 0.984 . S
N213 H217 0.985 . S
H214 N209 0.984 . S
H215 N209 0.985 . S
H216 N213 0.984 . S
H217 N213 0.985 . S
H218 N212 0.984 . S
H219 N212 0.984 . S
H220 N208 0.984 . S
H221 N208 0.985 . S
C222 C223 1.363 . S
C222 C228 1.379 . S
C222 N230 1.356 . S
C223 C222 1.363 . S
C223 C229 1.363 . S
C224 C225 1.363 . S
C224 C229 1.379 . S
C224 N231 1.356 . S
C225 C224 1.363 . S
C225 C228 1.363 . S
N226 C228 1.356 . S
N226 H238 0.984 . S
N226 H239 0.985 . S
N227 C229 1.356 . S
N227 H232 0.984 . S
N227 H233 0.985 . S
C228 C222 1.379 . S
C228 C225 1.363 . S
C228 N226 1.356 . S
C229 C223 1.363 . S
C229 C224 1.379 . S
C229 N227 1.356 . S
N230 C222 1.356 . S
N230 H236 0.984 . S
N230 H237 0.984 . S
N231 C224 1.356 . S
N231 H234 0.984 . S
N231 H235 0.985 . S
H232 N227 0.984 . S
H233 N227 0.985 . S
H234 N231 0.984 . S
H235 N231 0.985 . S
H236 N230 0.984 . S
H237 N230 0.984 . S
H238 N226 0.984 . S
H239 N226 0.985 . S
C240 C241 1.363 . S
C240 C246 1.379 . S
C240 N248 1.356 1_565 S
C241 C240 1.363 . S
C241 C247 1.363 . S
C242 C243 1.363 . S
C242 C247 1.379 . S
C242 N249 1.356 . S
C243 C242 1.363 . S
C243 C246 1.363 . S
N244 C246 1.356 1_545 S
N244 H256 0.984 . S
N244 H257 0.985 1_545 S
N245 C247 1.356 . S
N245 H250 0.984 . S
N245 H251 0.985 . S
C246 C240 1.379 . S
C246 C243 1.363 . S
C246 N244 1.356 1_565 S
C247 C241 1.363 . S
C247 C242 1.379 . S
C247 N245 1.356 . S
N248 C240 1.356 1_545 S
N248 H254 0.984 . S
N248 H255 0.984 1_545 S
N249 C242 1.356 . S
N249 H252 0.984 . S
N249 H253 0.985 . S
H250 N245 0.984 . S
H251 N245 0.985 . S
H252 N249 0.984 . S
H253 N249 0.985 . S
H254 N248 0.984 . S
H255 N248 0.984 1_565 S
H256 N244 0.984 . S
H257 N244 0.985 1_565 S
C258 C259 1.363 . S
C258 C264 1.379 . S
C258 N266 1.356 . S
C259 C258 1.363 . S
C259 C265 1.363 . S
C260 C261 1.363 . S
C260 C265 1.379 . S
C260 N267 1.356 . S
C261 C260 1.363 . S
C261 C264 1.363 . S
N262 C264 1.356 . S
N262 H274 0.984 . S
N262 H275 0.985 . S
N263 C265 1.356 . S
N263 H268 0.984 . S
N263 H269 0.985 . S
C264 C258 1.379 . S
C264 C261 1.363 . S
C264 N262 1.356 . S
C265 C259 1.363 . S
C265 C260 1.379 . S
C265 N263 1.356 . S
N266 C258 1.356 . S
N266 H272 0.984 . S
N266 H273 0.984 . S
N267 C260 1.356 . S
N267 H270 0.984 . S
N267 H271 0.985 . S
H268 N263 0.984 . S
H269 N263 0.985 . S
H270 N267 0.984 . S
H271 N267 0.985 . S
H272 N266 0.984 . S
H273 N266 0.984 . S
H274 N262 0.984 . S
H275 N262 0.985 . S
C276 C277 1.363 . S
C276 C282 1.379 . S
C276 N284 1.356 . S
C277 C276 1.363 . S
C277 C283 1.363 . S
C278 C279 1.363 . S
C278 C283 1.379 . S
C278 N285 1.356 1_554 S
C279 C278 1.363 . S
C279 C282 1.363 . S
N280 C282 1.356 . S
N280 H292 0.984 . S
N280 H293 0.985 . S
N281 C283 1.356 . S
N281 H286 0.984 . S
N281 H287 0.985 . S
C282 C276 1.379 . S
C282 C279 1.363 . S
C282 N280 1.356 . S
C283 C277 1.363 . S
C283 C278 1.379 . S
C283 N281 1.356 . S
N284 C276 1.356 . S
N284 H290 0.984 . S
N284 H291 0.984 . S
N285 C278 1.356 1_556 S
N285 H288 0.984 . S
N285 H289 0.985 . S
H286 N281 0.984 . S
H287 N281 0.985 . S
H288 N285 0.984 . S
H289 N285 0.985 . S
H290 N284 0.984 . S
H291 N284 0.984 . S
H292 N280 0.984 . S
H293 N280 0.985 . S
C294 C295 1.363 . S
C294 C300 1.379 . S
C294 N302 1.356 . S
C295 C294 1.363 . S
C295 C301 1.363 . S
C296 C297 1.363 . S
C296 C301 1.379 . S
C296 N303 1.356 . S
C297 C296 1.363 . S
C297 C300 1.363 . S
N298 C300 1.356 1_455 S
N298 H310 0.984 . S
N298 H311 0.985 . S
N299 C301 1.356 . S
N299 H304 0.984 . S
N299 H305 0.985 . S
C300 C294 1.379 . S
C300 C297 1.363 . S
C300 N298 1.356 1_655 S
C301 C295 1.363 . S
C301 C296 1.379 . S
C301 N299 1.356 . S
N302 C294 1.356 . S
N302 H308 0.984 . S
N302 H309 0.984 . S
N303 C296 1.356 . S
N303 H306 0.984 . S
N303 H307 0.985 . S
H304 N299 0.984 . S
H305 N299 0.985 . S
H306 N303 0.984 . S
H307 N303 0.985 . S
H308 N302 0.984 . S
H309 N302 0.984 . S
H310 N298 0.984 . S
H311 N298 0.985 . S
C312 C313 1.363 . S
C312 C318 1.379 . S
C312 N320 1.356 . S
C313 C312 1.363 . S
C313 C319 1.363 . S
C314 C315 1.363 . S
C314 C319 1.379 . S
C314 N321 1.356 . S
C315 C314 1.363 . S
C315 C318 1.363 . S
N316 C318 1.356 1_545 S
N316 H328 0.984 . S
N316 H329 0.985 . S
N317 C319 1.356 . S
N317 H322 0.984 . S
N317 H323 0.985 . S
C318 C312 1.379 . S
C318 C315 1.363 . S
C318 N316 1.356 1_565 S
C319 C313 1.363 . S
C319 C314 1.379 . S
C319 N317 1.356 . S
N320 C312 1.356 . S
N320 H326 0.984 . S
N320 H327 0.984 . S
N321 C314 1.356 . S
N321 H324 0.984 . S
N321 H325 0.985 . S
H322 N317 0.984 . S
H323 N317 0.985 . S
H324 N321 0.984 . S
H325 N321 0.985 . S
H326 N320 0.984 . S
H327 N320 0.984 . S
H328 N316 0.984 . S
H329 N316 0.985 . S
C330 C331 1.363 . S
C330 C336 1.379 . S
C330 N338 1.356 . S
C331 C330 1.363 . S
C331 C337 1.363 . S
C332 C333 1.363 . S
C332 C337 1.379 . S
C332 N339 1.356 . S
C333 C332 1.363 . S
C333 C336 1.363 . S
N334 C336 1.356 . S
N334 H346 0.984 . S
N334 H347 0.985 . S
N335 C337 1.356 . S
N335 H340 0.984 . S
N335 H341 0.985 . S
C336 C330 1.379 . S
C336 C333 1.363 . S
C336 N334 1.356 . S
C337 C331 1.363 . S
C337 C332 1.379 . S
C337 N335 1.356 . S
N338 C330 1.356 . S
N338 H344 0.984 . S
N338 H345 0.984 . S
N339 C332 1.356 . S
N339 H342 0.984 . S
N339 H343 0.985 . S
H340 N335 0.984 . S
H341 N335 0.985 . S
H342 N339 0.984 . S
H343 N339 0.985 . S
H344 N338 0.984 . S
H345 N338 0.984 . S
H346 N334 0.984 . S
H347 N334 0.985 . S
C348 C349 1.363 . S
C348 C354 1.379 . S
C348 N356 1.356 . S
C349 C348 1.363 . S
C349 C355 1.363 . S
C350 C351 1.363 . S
C350 C355 1.379 . S
C350 N357 1.356 . S
C351 C350 1.363 . S
C351 C354 1.363 . S
N352 C354 1.356 . S
N352 H364 0.984 . S
N352 H365 0.985 . S
N353 C355 1.356 . S
N353 H358 0.984 . S
N353 H359 0.985 . S
C354 C348 1.379 . S
C354 C351 1.363 . S
C354 N352 1.356 . S
C355 C349 1.363 . S
C355 C350 1.379 . S
C355 N353 1.356 . S
N356 C348 1.356 . S
N356 H362 0.984 1_455 S
N356 H363 0.984 1_455 S
N357 C350 1.356 . S
N357 H360 0.984 . S
N357 H361 0.985 . S
H358 N353 0.984 . S
H359 N353 0.985 . S
H360 N357 0.984 . S
H361 N357 0.985 . S
H362 N356 0.984 1_655 S
H363 N356 0.984 1_655 S
H364 N352 0.984 . S
H365 N352 0.985 . S
C366 C367 1.363 . S
C366 C372 1.379 . S
C366 N374 1.356 . S
C367 C366 1.363 . S
C367 C373 1.363 . S
C368 C369 1.363 . S
C368 C373 1.379 . S
C368 N375 1.356 . S
C369 C368 1.363 . S
C369 C372 1.363 . S
N370 C372 1.356 . S
N370 H382 0.984 . S
N370 H383 0.985 . S
N371 C373 1.356 1_565 S
N371 H376 0.984 . S
N371 H377 0.985 . S
C372 C366 1.379 . S
C372 C369 1.363 . S
C372 N370 1.356 . S
C373 C367 1.363 . S
C373 C368 1.379 . S
C373 N371 1.356 1_545 S
N374 C366 1.356 . S
N374 H380 0.984 . S
N374 H381 0.984 . S
N375 C368 1.356 . S
N375 H378 0.984 . S
N375 H379 0.985 . S
H376 N371 0.984 . S
H377 N371 0.985 . S
H378 N375 0.984 . S
H379 N375 0.985 . S
H380 N374 0.984 . S
H381 N374 0.984 . S
H382 N370 0.984 . S
H383 N370 0.985 . S
C384 C385 1.363 . S
C384 C390 1.379 . S
C384 N392 1.356 . S
C385 C384 1.363 . S
C385 C391 1.363 . S
C386 C387 1.363 . S
C386 C391 1.379 . S
C386 N393 1.356 . S
C387 C386 1.363 . S
C387 C390 1.363 . S
N388 C390 1.356 . S
N388 H400 0.984 . S
N388 H401 0.985 . S
N389 C391 1.356 . S
N389 H394 0.984 . S
N389 H395 0.985 . S
C390 C384 1.379 . S
C390 C387 1.363 . S
C390 N388 1.356 . S
C391 C385 1.363 . S
C391 C386 1.379 . S
C391 N389 1.356 . S
N392 C384 1.356 . S
N392 H398 0.984 . S
N392 H399 0.984 . S
N393 C386 1.356 . S
N393 H396 0.984 . S
N393 H397 0.985 . S
H394 N389 0.984 . S
H395 N389 0.985 . S
H396 N393 0.984 . S
H397 N393 0.985 . S
H398 N392 0.984 . S
H399 N392 0.984 . S
H400 N388 0.984 . S
H401 N388 0.985 . S
C402 C403 1.363 . S
C402 C408 1.379 . S
C402 N410 1.356 . S
C403 C402 1.363 . S
C403 C409 1.363 . S
C404 C405 1.363 . S
C404 C409 1.379 . S
C404 N411 1.356 1_655 S
C405 C404 1.363 . S
C405 C408 1.363 . S
N406 C408 1.356 1_554 S
N406 H418 0.984 . S
N406 H419 0.985 . S
N407 C409 1.356 . S
N407 H412 0.984 . S
N407 H413 0.985 . S
C408 C402 1.379 . S
C408 C405 1.363 . S
C408 N406 1.356 1_556 S
C409 C403 1.363 . S
C409 C404 1.379 . S
C409 N407 1.356 . S
N410 C402 1.356 . S
N410 H416 0.984 1_556 S
N410 H417 0.984 . S
N411 C404 1.356 1_455 S
N411 H414 0.984 . S
N411 H415 0.985 . S
H412 N407 0.984 . S
H413 N407 0.985 . S
H414 N411 0.984 . S
H415 N411 0.985 . S
H416 N410 0.984 1_554 S
H417 N410 0.984 . S
H418 N406 0.984 . S
H419 N406 0.985 . S
C420 C421 1.363 . S
C420 C426 1.379 . S
C420 N428 1.356 1_565 S
C421 C420 1.363 . S
C421 C427 1.363 . S
C422 C423 1.363 . S
C422 C427 1.379 . S
C422 N429 1.356 . S
C423 C422 1.363 . S
C423 C426 1.363 . S
N424 C426 1.356 . S
N424 H436 0.984 . S
N424 H437 0.985 . S
N425 C427 1.356 . S
N425 H430 0.984 . S
N425 H431 0.985 . S
C426 C420 1.379 . S
C426 C423 1.363 . S
C426 N424 1.356 . S
C427 C421 1.363 . S
C427 C422 1.379 . S
C427 N425 1.356 . S
N428 C420 1.356 1_545 S
N428 H434 0.984 . S
N428 H435 0.984 . S
N429 C422 1.356 . S
N429 H432 0.984 . S
N429 H433 0.985 . S
H430 N425 0.984 . S
H431 N425 0.985 . S
H432 N429 0.984 . S
H433 N429 0.985 . S
H434 N428 0.984 . S
H435 N428 0.984 . S
H436 N424 0.984 . S
H437 N424 0.985 . S
C438 C439 1.363 . S
C438 C444 1.379 . S
C438 N446 1.356 . S
C439 C438 1.363 . S
C439 C445 1.363 . S
C440 C441 1.363 . S
C440 C445 1.379 . S
C440 N447 1.356 . S
C441 C440 1.363 . S
C441 C444 1.363 . S
N442 C444 1.356 . S
N442 H454 0.984 . S
N442 H455 0.985 . S
N443 C445 1.356 . S
N443 H448 0.984 . S
N443 H449 0.985 . S
C444 C438 1.379 . S
C444 C441 1.363 . S
C444 N442 1.356 . S
C445 C439 1.363 . S
C445 C440 1.379 . S
C445 N443 1.356 . S
N446 C438 1.356 . S
N446 H452 0.984 . S
N446 H453 0.984 . S
N447 C440 1.356 . S
N447 H450 0.984 . S
N447 H451 0.985 . S
H448 N443 0.984 . S
H449 N443 0.985 . S
H450 N447 0.984 . S
H451 N447 0.985 . S
H452 N446 0.984 . S
H453 N446 0.984 . S
H454 N442 0.984 . S
H455 N442 0.985 . S
C456 C457 1.363 . S
C456 C462 1.379 . S
C456 N464 1.356 . S
C457 C456 1.363 . S
C457 C463 1.363 . S
C458 C459 1.363 . S
C458 C463 1.379 . S
C458 N465 1.356 . S
C459 C458 1.363 . S
C459 C462 1.363 . S
N460 C462 1.356 1_655 S
N460 H472 0.984 . S
N460 H473 0.985 . S
N461 C463 1.356 . S
N461 H466 0.984 . S
N461 H467 0.985 . S
C462 C456 1.379 . S
C462 C459 1.363 . S
C462 N460 1.356 1_455 S
C463 C457 1.363 . S
C463 C458 1.379 . S
C463 N461 1.356 . S
N464 C456 1.356 . S
N464 H470 0.984 . S
N464 H471 0.984 . S
N465 C458 1.356 . S
N465 H468 0.984 . S
N465 H469 0.985 . S
H466 N461 0.984 . S
H467 N461 0.985 . S
H468 N465 0.984 . S
H469 N465 0.985 . S
H470 N464 0.984 . S
H471 N464 0.984 . S
H472 N460 0.984 . S
H473 N460 0.985 . S
C474 C475 1.363 . S
C474 C480 1.379 . S
C474 N482 1.356 . S
C475 C474 1.363 . S
C475 C481 1.363 . S
C476 C477 1.363 . S
C476 C481 1.379 . S
C476 N483 1.356 . S
C477 C476 1.363 . S
C477 C480 1.363 . S
N478 C480 1.356 1_565 S
N478 H490 0.984 . S
N478 H491 0.985 . S
N479 C481 1.356 . S
N479 H484 0.984 . S
N479 H485 0.985 . S
C480 C474 1.379 . S
C480 C477 1.363 . S
C480 N478 1.356 1_545 S
C481 C475 1.363 . S
C481 C476 1.379 . S
C481 N479 1.356 . S
N482 C474 1.356 . S
N482 H488 0.984 . S
N482 H489 0.984 . S
N483 C476 1.356 . S
N483 H486 0.984 . S
N483 H487 0.985 . S
H484 N479 0.984 . S
H485 N479 0.985 . S
H486 N483 0.984 . S
H487 N483 0.985 . S
H488 N482 0.984 . S
H489 N482 0.984 . S
H490 N478 0.984 . S
H491 N478 0.985 . S
C492 C493 1.363 . S
C492 C498 1.379 . S
C492 N500 1.356 . S
C493 C492 1.363 . S
C493 C499 1.363 . S
C494 C495 1.363 . S
C494 C499 1.379 . S
C494 N501 1.356 . S
C495 C494 1.363 . S
C495 C498 1.363 . S
N496 C498 1.356 . S
N496 H508 0.984 . S
N496 H509 0.985 . S
N497 C499 1.356 . S
N497 H502 0.984 . S
N497 H503 0.985 . S
C498 C492 1.379 . S
C498 C495 1.363 . S
C498 N496 1.356 . S
C499 C493 1.363 . S
C499 C494 1.379 . S
C499 N497 1.356 . S
N500 C492 1.356 . S
N500 H506 0.984 . S
N500 H507 0.984 . S
N501 C494 1.356 . S
N501 H504 0.984 . S
N501 H505 0.985 . S
H502 N497 0.984 . S
H503 N497 0.985 . S
H504 N501 0.984 . S
H505 N501 0.985 . S
H506 N500 0.984 . S
H507 N500 0.984 . S
H508 N496 0.984 . S
H509 N496 0.985 . S
C510 C511 1.363 . S
C510 C516 1.379 . S
C510 N518 1.356 . S
C511 C510 1.363 . S
C511 C517 1.363 . S
C512 C513 1.363 . S
C512 C517 1.379 . S
C512 N519 1.356 . S
C513 C512 1.363 . S
C513 C516 1.363 . S
N514 C516 1.356 . S
N514 H526 0.984 . S
N514 H527 0.985 . S
N515 C517 1.356 . S
N515 H520 0.984 . S
N515 H521 0.985 . S
C516 C510 1.379 . S
C516 C513 1.363 . S
C516 N514 1.356 . S
C517 C511 1.363 . S
C517 C512 1.379 . S
C517 N515 1.356 . S
N518 C510 1.356 . S
N518 H524 0.984 . S
N518 H525 0.984 . S
N519 C512 1.356 . S
N519 H522 0.984 . S
N519 H523 0.985 . S
H520 N515 0.984 . S
H521 N515 0.985 . S
H522 N519 0.984 . S
H523 N519 0.985 . S
H524 N518 0.984 . S
H525 N518 0.984 . S
H526 N514 0.984 . S
H527 N514 0.985 . S
C528 C529 1.363 . S
C528 C534 1.379 . S
C528 N536 1.356 . S
C529 C528 1.363 . S
C529 C535 1.363 . S
C530 C531 1.363 . S
C530 C535 1.379 . S
C530 N537 1.356 . S
C531 C530 1.363 . S
C531 C534 1.363 . S
N532 C534 1.356 . S
N532 H544 0.984 . S
N532 H545 0.985 . S
N533 C535 1.356 . S
N533 H538 0.984 . S
N533 H539 0.985 . S
C534 C528 1.379 . S
C534 C531 1.363 . S
C534 N532 1.356 . S
C535 C529 1.363 . S
C535 C530 1.379 . S
C535 N533 1.356 . S
N536 C528 1.356 . S
N536 H542 0.984 . S
N536 H543 0.984 . S
N537 C530 1.356 . S
N537 H540 0.984 . S
N537 H541 0.985 . S
H538 N533 0.984 . S
H539 N533 0.985 . S
H540 N537 0.984 . S
H541 N537 0.985 . S
H542 N536 0.984 . S
H543 N536 0.984 . S
H544 N532 0.984 . S
H545 N532 0.985 . S
C546 C547 1.363 . S
C546 C552 1.379 . S
C546 N554 1.356 . S
C547 C546 1.363 . S
C547 C553 1.363 . S
C548 C549 1.363 . S
C548 C553 1.379 . S
C548 N555 1.356 . S
C549 C548 1.363 . S
C549 C552 1.363 . S
N550 C552 1.356 . S
N550 H562 0.984 . S
N550 H563 0.985 . S
N551 C553 1.356 . S
N551 H556 0.984 . S
N551 H557 0.985 . S
C552 C546 1.379 . S
C552 C549 1.363 . S
C552 N550 1.356 . S
C553 C547 1.363 . S
C553 C548 1.379 . S
C553 N551 1.356 . S
N554 C546 1.356 . S
N554 H560 0.984 . S
N554 H561 0.984 . S
N555 C548 1.356 . S
N555 H558 0.984 . S
N555 H559 0.985 . S
H556 N551 0.984 . S
H557 N551 0.985 . S
H558 N555 0.984 . S
H559 N555 0.985 . S
H560 N554 0.984 . S
H561 N554 0.984 . S
H562 N550 0.984 . S
H563 N550 0.985 . S
C564 C565 1.363 . S
C564 C570 1.379 . S
C564 N572 1.356 . S
C565 C564 1.363 . S
C565 C571 1.363 . S
C566 C567 1.363 . S
C566 C571 1.379 . S
C566 N573 1.356 . S
C567 C566 1.363 . S
C567 C570 1.363 . S
N568 C570 1.356 . S
N568 H580 0.984 . S
N568 H581 0.985 . S
N569 C571 1.356 . S
N569 H574 0.984 . S
N569 H575 0.985 . S
C570 C564 1.379 . S
C570 C567 1.363 . S
C570 N568 1.356 . S
C571 C565 1.363 . S
C571 C566 1.379 . S
C571 N569 1.356 . S
N572 C564 1.356 . S
N572 H578 0.984 . S
N572 H579 0.984 . S
N573 C566 1.356 . S
N573 H576 0.984 . S
N573 H577 0.985 . S
H574 N569 0.984 . S
H575 N569 0.985 . S
H576 N573 0.984 . S
H577 N573 0.985 . S
H578 N572 0.984 . S
H579 N572 0.984 . S
H580 N568 0.984 . S
H581 N568 0.985 . S
C582 C583 1.363 . S
C582 C588 1.379 . S
C582 N590 1.356 . S
C583 C582 1.363 . S
C583 C589 1.363 . S
C584 C585 1.363 . S
C584 C589 1.379 . S
C584 N591 1.356 . S
C585 C584 1.363 . S
C585 C588 1.363 . S
N586 C588 1.356 . S
N586 H598 0.984 . S
N586 H599 0.985 . S
N587 C589 1.356 . S
N587 H592 0.984 . S
N587 H593 0.985 . S
C588 C582 1.379 . S
C588 C585 1.363 . S
C588 N586 1.356 . S
C589 C583 1.363 . S
C589 C584 1.379 . S
C589 N587 1.356 . S
N590 C582 1.356 . S
N590 H596 0.984 . S
N590 H597 0.984 . S
N591 C584 1.356 . S
N591 H594 0.984 . S
N591 H595 0.985 . S
H592 N587 0.984 . S
H593 N587 0.985 . S
H594 N591 0.984 . S
H595 N591 0.985 . S
H596 N590 0.984 . S
H597 N590 0.984 . S
H598 N586 0.984 . S
H599 N586 0.985 . S
C169 C118 1.501 . S
C171 C6 1.501 . S
C187 C20 1.501 . S
C189 C132 1.501 . S
C205 C34 1.501 . S
C207 C146 1.501 . S
C223 C48 1.501 . S
C225 C160 1.501 . S
C241 C90 1.501 . S
C243 C62 1.501 . S
C259 C76 1.501 . S
C261 C104 1.501 . S
C277 C7 1.574 . S
C279 C78 1.585 1_554 S
C295 C21 1.573 . S
C297 C8 1.585 1_655 S
C313 C35 1.574 . S
C315 C22 1.585 1_565 S
C331 C36 1.585 . S
C333 C49 1.574 . S
C349 C50 1.585 1_455 S
C351 C63 1.573 . S
C367 C64 1.585 1_545 S
C369 C77 1.574 . S
C385 C106 1.585 . S
C387 C91 1.574 . S
C403 C105 1.574 . S
C405 C120 1.585 1_656 S
C421 C134 1.585 1_565 S
C423 C119 1.573 . S
C439 C133 1.574 . S
C441 C148 1.585 . S
C457 C147 1.574 . S
C459 C162 1.585 1_455 S
C475 C161 1.573 . S
C477 C92 1.585 1_545 S
C493 C149 1.494 . S
C495 C9 1.494 . S
C511 C163 1.494 . S
C513 C23 1.494 . S
C529 C93 1.494 . S
C531 C37 1.494 . S
C547 C51 1.494 . S
C549 C107 1.494 . S
C565 C65 1.494 . S
C567 C121 1.494 . S
C583 C135 1.494 . S
C585 C79 1.494 . S
