# Generated by pormake.
# Topology ukp, (4)-cn, num edge types: 1
# Building blocks:
#     Node 0, Type 0, BuildingBlock: GALJAG_clean_sbu_0, # of connection points: 4
#     Node 1, Type 0, BuildingBlock: GALJAG_clean_sbu_0, # of connection points: 4
#     Node 2, Type 0, BuildingBlock: GALJAG_clean_sbu_0, # of connection points: 4
#     Node 3, Type 0, BuildingBlock: GALJAG_clean_sbu_0, # of connection points: 4
#     Node 4, Type 0, BuildingBlock: GALJAG_clean_sbu_0, # of connection points: 4
#     Node 5, Type 0, BuildingBlock: GALJAG_clean_sbu_0, # of connection points: 4
#     Node 6, Type 0, BuildingBlock: GALJAG_clean_sbu_0, # of connection points: 4
#     Node 7, Type 0, BuildingBlock: GALJAG_clean_sbu_0, # of connection points: 4
#     Node 8, Type 0, BuildingBlock: GALJAG_clean_sbu_0, # of connection points: 4
#     Node 9, Type 0, BuildingBlock: GALJAG_clean_sbu_0, # of connection points: 4
#     Node 10, Type 0, BuildingBlock: GALJAG_clean_sbu_0, # of connection points: 4
#     Node 11, Type 0, BuildingBlock: GALJAG_clean_sbu_0, # of connection points: 4
#     Node 12, Type 0, BuildingBlock: GALJAG_clean_sbu_0, # of connection points: 4
#     Node 13, Type 0, BuildingBlock: GALJAG_clean_sbu_0, # of connection points: 4
#     Node 14, Type 0, BuildingBlock: GALJAG_clean_sbu_0, # of connection points: 4
#     Node 15, Type 0, BuildingBlock: GALJAG_clean_sbu_0, # of connection points: 4
#     Node 16, Type 0, BuildingBlock: GALJAG_clean_sbu_0, # of connection points: 4
#     Node 17, Type 0, BuildingBlock: GALJAG_clean_sbu_0, # of connection points: 4
#     Node 18, Type 0, BuildingBlock: GALJAG_clean_sbu_0, # of connection points: 4
#     Node 19, Type 0, BuildingBlock: GALJAG_clean_sbu_0, # of connection points: 4
#     Node 20, Type 0, BuildingBlock: GALJAG_clean_sbu_0, # of connection points: 4
#     Node 21, Type 0, BuildingBlock: GALJAG_clean_sbu_0, # of connection points: 4
#     Node 22, Type 0, BuildingBlock: GALJAG_clean_sbu_0, # of connection points: 4
#     Node 23, Type 0, BuildingBlock: GALJAG_clean_sbu_0, # of connection points: 4
#     Node 24, Type 0, BuildingBlock: GALJAG_clean_sbu_0, # of connection points: 4
#     Node 25, Type 0, BuildingBlock: GALJAG_clean_sbu_0, # of connection points: 4
#     Node 26, Type 0, BuildingBlock: GALJAG_clean_sbu_0, # of connection points: 4
#     Node 27, Type 0, BuildingBlock: GALJAG_clean_sbu_0, # of connection points: 4
#     Node 28, Type 0, BuildingBlock: GALJAG_clean_sbu_0, # of connection points: 4
#     Node 29, Type 0, BuildingBlock: GALJAG_clean_sbu_0, # of connection points: 4
#     Node 30, Type 0, BuildingBlock: GALJAG_clean_sbu_0, # of connection points: 4
#     Node 31, Type 0, BuildingBlock: GALJAG_clean_sbu_0, # of connection points: 4
#     Node 32, Type 0, BuildingBlock: GALJAG_clean_sbu_0, # of connection points: 4
#     Node 33, Type 0, BuildingBlock: GALJAG_clean_sbu_0, # of connection points: 4
#     Node 34, Type 0, BuildingBlock: GALJAG_clean_sbu_0, # of connection points: 4
#     Node 35, Type 0, BuildingBlock: GALJAG_clean_sbu_0, # of connection points: 4
#     Node 36, Type 0, BuildingBlock: GALJAG_clean_sbu_0, # of connection points: 4
#     Node 37, Type 0, BuildingBlock: GALJAG_clean_sbu_0, # of connection points: 4
#     Node 38, Type 0, BuildingBlock: GALJAG_clean_sbu_0, # of connection points: 4
#     Node 39, Type 0, BuildingBlock: GALJAG_clean_sbu_0, # of connection points: 4
#     Node 40, Type 0, BuildingBlock: GALJAG_clean_sbu_0, # of connection points: 4
#     Node 41, Type 0, BuildingBlock: GALJAG_clean_sbu_0, # of connection points: 4
#     Node 42, Type 0, BuildingBlock: GALJAG_clean_sbu_0, # of connection points: 4
#     Node 43, Type 0, BuildingBlock: GALJAG_clean_sbu_0, # of connection points: 4
#     Node 44, Type 0, BuildingBlock: GALJAG_clean_sbu_0, # of connection points: 4
#     Node 45, Type 0, BuildingBlock: GALJAG_clean_sbu_0, # of connection points: 4
#     Node 46, Type 0, BuildingBlock: GALJAG_clean_sbu_0, # of connection points: 4
#     Node 47, Type 0, BuildingBlock: GALJAG_clean_sbu_0, # of connection points: 4
#     Edge 48, Type (0, 0), BuildingBlock: OJICUG_clean_linker_0, # of connection points: 2
#     Edge 49, Type (0, 0), BuildingBlock: OJICUG_clean_linker_0, # of connection points: 2
#     Edge 50, Type (0, 0), BuildingBlock: OJICUG_clean_linker_0, # of connection points: 2
#     Edge 51, Type (0, 0), BuildingBlock: OJICUG_clean_linker_0, # of connection points: 2
#     Edge 52, Type (0, 0), BuildingBlock: OJICUG_clean_linker_0, # of connection points: 2
#     Edge 53, Type (0, 0), BuildingBlock: OJICUG_clean_linker_0, # of connection points: 2
#     Edge 54, Type (0, 0), BuildingBlock: OJICUG_clean_linker_0, # of connection points: 2
#     Edge 55, Type (0, 0), BuildingBlock: OJICUG_clean_linker_0, # of connection points: 2
#     Edge 56, Type (0, 0), BuildingBlock: OJICUG_clean_linker_0, # of connection points: 2
#     Edge 57, Type (0, 0), BuildingBlock: OJICUG_clean_linker_0, # of connection points: 2
#     Edge 58, Type (0, 0), BuildingBlock: OJICUG_clean_linker_0, # of connection points: 2
#     Edge 59, Type (0, 0), BuildingBlock: OJICUG_clean_linker_0, # of connection points: 2
#     Edge 60, Type (0, 0), BuildingBlock: OJICUG_clean_linker_0, # of connection points: 2
#     Edge 61, Type (0, 0), BuildingBlock: OJICUG_clean_linker_0, # of connection points: 2
#     Edge 62, Type (0, 0), BuildingBlock: OJICUG_clean_linker_0, # of connection points: 2
#     Edge 63, Type (0, 0), BuildingBlock: OJICUG_clean_linker_0, # of connection points: 2
#     Edge 64, Type (0, 0), BuildingBlock: OJICUG_clean_linker_0, # of connection points: 2
#     Edge 65, Type (0, 0), BuildingBlock: OJICUG_clean_linker_0, # of connection points: 2
#     Edge 66, Type (0, 0), BuildingBlock: OJICUG_clean_linker_0, # of connection points: 2
#     Edge 67, Type (0, 0), BuildingBlock: OJICUG_clean_linker_0, # of connection points: 2
#     Edge 68, Type (0, 0), BuildingBlock: OJICUG_clean_linker_0, # of connection points: 2
#     Edge 69, Type (0, 0), BuildingBlock: OJICUG_clean_linker_0, # of connection points: 2
#     Edge 70, Type (0, 0), BuildingBlock: OJICUG_clean_linker_0, # of connection points: 2
#     Edge 71, Type (0, 0), BuildingBlock: OJICUG_clean_linker_0, # of connection points: 2
#     Edge 72, Type (0, 0), BuildingBlock: OJICUG_clean_linker_0, # of connection points: 2
#     Edge 73, Type (0, 0), BuildingBlock: OJICUG_clean_linker_0, # of connection points: 2
#     Edge 74, Type (0, 0), BuildingBlock: OJICUG_clean_linker_0, # of connection points: 2
#     Edge 75, Type (0, 0), BuildingBlock: OJICUG_clean_linker_0, # of connection points: 2
#     Edge 76, Type (0, 0), BuildingBlock: OJICUG_clean_linker_0, # of connection points: 2
#     Edge 77, Type (0, 0), BuildingBlock: OJICUG_clean_linker_0, # of connection points: 2
#     Edge 78, Type (0, 0), BuildingBlock: OJICUG_clean_linker_0, # of connection points: 2
#     Edge 79, Type (0, 0), BuildingBlock: OJICUG_clean_linker_0, # of connection points: 2
#     Edge 80, Type (0, 0), BuildingBlock: OJICUG_clean_linker_0, # of connection points: 2
#     Edge 81, Type (0, 0), BuildingBlock: OJICUG_clean_linker_0, # of connection points: 2
#     Edge 82, Type (0, 0), BuildingBlock: OJICUG_clean_linker_0, # of connection points: 2
#     Edge 83, Type (0, 0), BuildingBlock: OJICUG_clean_linker_0, # of connection points: 2
#     Edge 84, Type (0, 0), BuildingBlock: OJICUG_clean_linker_0, # of connection points: 2
#     Edge 85, Type (0, 0), BuildingBlock: OJICUG_clean_linker_0, # of connection points: 2
#     Edge 86, Type (0, 0), BuildingBlock: OJICUG_clean_linker_0, # of connection points: 2
#     Edge 87, Type (0, 0), BuildingBlock: OJICUG_clean_linker_0, # of connection points: 2
#     Edge 88, Type (0, 0), BuildingBlock: OJICUG_clean_linker_0, # of connection points: 2
#     Edge 89, Type (0, 0), BuildingBlock: OJICUG_clean_linker_0, # of connection points: 2
#     Edge 90, Type (0, 0), BuildingBlock: OJICUG_clean_linker_0, # of connection points: 2
#     Edge 91, Type (0, 0), BuildingBlock: OJICUG_clean_linker_0, # of connection points: 2
#     Edge 92, Type (0, 0), BuildingBlock: OJICUG_clean_linker_0, # of connection points: 2
#     Edge 93, Type (0, 0), BuildingBlock: OJICUG_clean_linker_0, # of connection points: 2
#     Edge 94, Type (0, 0), BuildingBlock: OJICUG_clean_linker_0, # of connection points: 2
#     Edge 95, Type (0, 0), BuildingBlock: OJICUG_clean_linker_0, # of connection points: 2
#     Edge 96, Type (0, 0), BuildingBlock: OJICUG_clean_linker_0, # of connection points: 2
#     Edge 97, Type (0, 0), BuildingBlock: OJICUG_clean_linker_0, # of connection points: 2
#     Edge 98, Type (0, 0), BuildingBlock: OJICUG_clean_linker_0, # of connection points: 2
#     Edge 99, Type (0, 0), BuildingBlock: OJICUG_clean_linker_0, # of connection points: 2
#     Edge 100, Type (0, 0), BuildingBlock: OJICUG_clean_linker_0, # of connection points: 2
#     Edge 101, Type (0, 0), BuildingBlock: OJICUG_clean_linker_0, # of connection points: 2
#     Edge 102, Type (0, 0), BuildingBlock: OJICUG_clean_linker_0, # of connection points: 2
#     Edge 103, Type (0, 0), BuildingBlock: OJICUG_clean_linker_0, # of connection points: 2
#     Edge 104, Type (0, 0), BuildingBlock: OJICUG_clean_linker_0, # of connection points: 2
#     Edge 105, Type (0, 0), BuildingBlock: OJICUG_clean_linker_0, # of connection points: 2
#     Edge 106, Type (0, 0), BuildingBlock: OJICUG_clean_linker_0, # of connection points: 2
#     Edge 107, Type (0, 0), BuildingBlock: OJICUG_clean_linker_0, # of connection points: 2
#     Edge 108, Type (0, 0), BuildingBlock: OJICUG_clean_linker_0, # of connection points: 2
#     Edge 109, Type (0, 0), BuildingBlock: OJICUG_clean_linker_0, # of connection points: 2
#     Edge 110, Type (0, 0), BuildingBlock: OJICUG_clean_linker_0, # of connection points: 2
#     Edge 111, Type (0, 0), BuildingBlock: OJICUG_clean_linker_0, # of connection points: 2
#     Edge 112, Type (0, 0), BuildingBlock: OJICUG_clean_linker_0, # of connection points: 2
#     Edge 113, Type (0, 0), BuildingBlock: OJICUG_clean_linker_0, # of connection points: 2
#     Edge 114, Type (0, 0), BuildingBlock: OJICUG_clean_linker_0, # of connection points: 2
#     Edge 115, Type (0, 0), BuildingBlock: OJICUG_clean_linker_0, # of connection points: 2
#     Edge 116, Type (0, 0), BuildingBlock: OJICUG_clean_linker_0, # of connection points: 2
#     Edge 117, Type (0, 0), BuildingBlock: OJICUG_clean_linker_0, # of connection points: 2
#     Edge 118, Type (0, 0), BuildingBlock: OJICUG_clean_linker_0, # of connection points: 2
#     Edge 119, Type (0, 0), BuildingBlock: OJICUG_clean_linker_0, # of connection points: 2
#     Edge 120, Type (0, 0), BuildingBlock: OJICUG_clean_linker_0, # of connection points: 2
#     Edge 121, Type (0, 0), BuildingBlock: OJICUG_clean_linker_0, # of connection points: 2
#     Edge 122, Type (0, 0), BuildingBlock: OJICUG_clean_linker_0, # of connection points: 2
#     Edge 123, Type (0, 0), BuildingBlock: OJICUG_clean_linker_0, # of connection points: 2
#     Edge 124, Type (0, 0), BuildingBlock: OJICUG_clean_linker_0, # of connection points: 2
#     Edge 125, Type (0, 0), BuildingBlock: OJICUG_clean_linker_0, # of connection points: 2
#     Edge 126, Type (0, 0), BuildingBlock: OJICUG_clean_linker_0, # of connection points: 2
#     Edge 127, Type (0, 0), BuildingBlock: OJICUG_clean_linker_0, # of connection points: 2
#     Edge 128, Type (0, 0), BuildingBlock: OJICUG_clean_linker_0, # of connection points: 2
#     Edge 129, Type (0, 0), BuildingBlock: OJICUG_clean_linker_0, # of connection points: 2
#     Edge 130, Type (0, 0), BuildingBlock: OJICUG_clean_linker_0, # of connection points: 2
#     Edge 131, Type (0, 0), BuildingBlock: OJICUG_clean_linker_0, # of connection points: 2
#     Edge 132, Type (0, 0), BuildingBlock: OJICUG_clean_linker_0, # of connection points: 2
#     Edge 133, Type (0, 0), BuildingBlock: OJICUG_clean_linker_0, # of connection points: 2
#     Edge 134, Type (0, 0), BuildingBlock: OJICUG_clean_linker_0, # of connection points: 2
#     Edge 135, Type (0, 0), BuildingBlock: OJICUG_clean_linker_0, # of connection points: 2
#     Edge 136, Type (0, 0), BuildingBlock: OJICUG_clean_linker_0, # of connection points: 2
#     Edge 137, Type (0, 0), BuildingBlock: OJICUG_clean_linker_0, # of connection points: 2
#     Edge 138, Type (0, 0), BuildingBlock: OJICUG_clean_linker_0, # of connection points: 2
#     Edge 139, Type (0, 0), BuildingBlock: OJICUG_clean_linker_0, # of connection points: 2
#     Edge 140, Type (0, 0), BuildingBlock: OJICUG_clean_linker_0, # of connection points: 2
#     Edge 141, Type (0, 0), BuildingBlock: OJICUG_clean_linker_0, # of connection points: 2
#     Edge 142, Type (0, 0), BuildingBlock: OJICUG_clean_linker_0, # of connection points: 2
#     Edge 143, Type (0, 0), BuildingBlock: OJICUG_clean_linker_0, # of connection points: 2
# Relax obj value: 0.195
# Max RMSD: 0.253
# Mean RMSD: 0.253
data_MOF--net-ukp--node1-GALJAG_clean_sbu_0--edge1-OJICUG_clean_linker_0
_symmetry_space_group_name_H-M    P1
_symmetry_Int_Tables_number       1
_symmetry_cell_setting            triclinic
loop_
_symmetry_equiv_pos_as_xyz
'x, y, z'
_cell_length_a     45.181203
_cell_length_b     45.187771
_cell_length_c     45.215741
_cell_angle_alpha  89.975044
_cell_angle_beta   90.000318
_cell_angle_gamma 90.018099
loop_
_atom_site_label
_atom_site_type_symbol
_atom_site_fract_x
_atom_site_fract_y
_atom_site_fract_z
_atom_type_partial_charge
In0 In 0.21984 0.27668 0.41221 0.0
O1 O 0.17154 0.26176 0.41558 0.0
O2 O 0.20321 0.23961 0.44244 0.0
C3 C 0.21382 0.31747 0.36849 0.0
C4 C 0.22907 0.31672 0.45563 0.0
C5 C 0.26134 0.24067 0.38811 0.0
O6 O 0.19951 0.29341 0.36815 0.0
O7 O 0.23005 0.32083 0.39077 0.0
O8 O 0.26444 0.25201 0.41349 0.0
O9 O 0.23702 0.24651 0.37581 0.0
C10 C 0.17637 0.24216 0.43496 0.0
O11 O 0.25006 0.3058 0.44068 0.0
O12 O 0.20398 0.30577 0.45003 0.0
In13 In 0.97501 0.97158 0.66301 0.0
O14 O 0.99057 0.92359 0.66649 0.0
O15 O 0.01205 0.95558 0.69357 0.0
C16 C 0.9363 0.96485 0.61751 0.0
C17 C 0.93422 0.9784 0.70619 0.0
C18 C 0.01058 0.01481 0.6414 0.0
O19 O 0.96089 0.95151 0.618 0.0
O20 O 0.93132 0.98043 0.63995 0.0
O21 O 0.99698 0.0174 0.6657 0.0
O22 O 0.00721 0.99011 0.62895 0.0
C23 C 0.00988 0.9287 0.6861 0.0
O24 O 0.94395 1.00004 0.69135 0.0
O25 O 0.94641 0.95396 0.7004 0.0
In26 In 0.29181 0.7331 0.89704 0.0
O27 O 0.3321 0.76417 0.89736 0.0
O28 O 0.31142 0.75369 0.93847 0.0
C29 C 0.28823 0.70313 0.84594 0.0
C30 C 0.30159 0.68085 0.92307 0.0
C31 C 0.24384 0.76709 0.88689 0.0
O32 O 0.30849 0.72224 0.84993 0.0
O33 O 0.27004 0.70049 0.86691 0.0
O34 O 0.24412 0.74729 0.90675 0.0
O35 O 0.2683 0.77097 0.874 0.0
C36 C 0.33194 0.76727 0.92519 0.0
O37 O 0.27952 0.6966 0.93049 0.0
O38 O 0.31909 0.69259 0.90468 0.0
In39 In 0.52947 0.04141 0.1584 0.0
O40 O 0.56171 0.01033 0.18216 0.0
O41 O 0.55715 0.05417 0.19854 0.0
C42 C 0.49492 0.99704 0.13744 0.0
C43 C 0.49474 0.08398 0.18259 0.0
C44 C 0.5663 0.05124 0.11165 0.0
O45 O 0.50998 0.99451 0.16086 0.0
O46 O 0.49634 0.02219 0.12555 0.0
O47 O 0.53904 0.05725 0.11064 0.0
O48 O 0.57495 0.04236 0.13648 0.0
C49 C 0.57045 0.02965 0.20042 0.0
O50 O 0.51459 0.08964 0.16372 0.0
O51 O 0.49219 0.05688 0.18893 0.0
In52 In 0.21101 0.73141 0.10623 0.0
O53 O 0.24016 0.70286 0.07601 0.0
O54 O 0.19346 0.70149 0.07011 0.0
C55 C 0.25093 0.76891 0.13045 0.0
C56 C 0.16821 0.76572 0.08235 0.0
C57 C 0.20779 0.69027 0.14973 0.0
O58 O 0.25476 0.75747 0.10519 0.0
O59 O 0.22673 0.76224 0.14262 0.0
O60 O 0.19112 0.71281 0.14975 0.0
O61 O 0.22503 0.68868 0.12799 0.0
C62 C 0.21839 0.69133 0.06268 0.0
O63 O 0.16282 0.74667 0.10218 0.0
O64 O 0.1952 0.76794 0.0753 0.0
In65 In 0.53064 0.97101 0.3444 0.0
O66 O 0.51306 0.92353 0.34211 0.0
O67 O 0.49246 0.95598 0.31488 0.0
C68 C 0.56967 0.96638 0.3899 0.0
C69 C 0.57102 0.9751 0.30056 0.0
C70 C 0.49587 0.01501 0.36531 0.0
O71 O 0.5456 0.95207 0.38967 0.0
O72 O 0.57403 0.98181 0.3672 0.0
O73 O 0.50943 0.01704 0.34092 0.0
O74 O 0.499 0.99053 0.37828 0.0
C75 C 0.4935 0.92919 0.32289 0.0
O76 O 0.56077 0.99772 0.31346 0.0
O77 O 0.55964 0.95091 0.30868 0.0
In78 In 0.28587 0.27635 0.59221 0.0
O79 O 0.25674 0.30982 0.56762 0.0
O80 O 0.30185 0.30632 0.55491 0.0
C81 C 0.24292 0.23919 0.61184 0.0
C82 C 0.3293 0.24289 0.56817 0.0
C83 C 0.29417 0.3121 0.63971 0.0
O84 O 0.24056 0.25339 0.58786 0.0
O85 O 0.26717 0.24297 0.62503 0.0
O86 O 0.30734 0.28757 0.63725 0.0
O87 O 0.27779 0.31853 0.6182 0.0
C88 C 0.27752 0.31967 0.55171 0.0
O89 O 0.33405 0.2617 0.58831 0.0
O90 O 0.30252 0.24075 0.5603 0.0
In91 In 0.97485 0.03409 0.84456 0.0
O92 O 0.99261 0.08127 0.83978 0.0
O93 O 0.01154 0.04789 0.81255 0.0
C94 C 0.93745 0.04281 0.89089 0.0
C95 C 0.93288 0.0274 0.80255 0.0
C96 C 0.00915 0.9898 0.86591 0.0
O97 O 0.96279 0.05464 0.89003 0.0
O98 O 0.9311 0.02783 0.86839 0.0
O99 O 0.99471 0.98739 0.84209 0.0
O100 O 0.00722 0.0148 0.87806 0.0
C101 C 0.01101 0.07493 0.81969 0.0
O102 O 0.94275 0.00579 0.81733 0.0
O103 O 0.94543 0.05181 0.80784 0.0
In104 In 0.40628 0.21839 0.27973 0.0
O105 O 0.42716 0.24997 0.31331 0.0
O106 O 0.44891 0.20914 0.30511 0.0
C107 C 0.38537 0.26353 0.24614 0.0
C108 C 0.43022 0.17543 0.24519 0.0
C109 C 0.36018 0.20638 0.31678 0.0
O110 O 0.40929 0.26533 0.2605 0.0
O111 O 0.37289 0.23866 0.2477 0.0
O112 O 0.35799 0.2044 0.28904 0.0
O113 O 0.38587 0.21219 0.32565 0.0
C114 C 0.44811 0.23272 0.32009 0.0
O115 O 0.412 0.1699 0.26567 0.0
O116 O 0.43583 0.20258 0.24179 0.0
In117 In 0.03757 0.15768 0.5294 0.0
O118 O 0.08643 0.16202 0.51645 0.0
O119 O 0.05488 0.18662 0.49168 0.0
C120 C 0.04402 0.11403 0.57036 0.0
C121 C 0.02613 0.20187 0.56807 0.0
C122 C 0.9966 0.13334 0.49293 0.0
O123 O 0.0572 0.11314 0.54571 0.0
O124 O 0.0289 0.13698 0.57437 0.0
O125 O 0.99341 0.15886 0.50393 0.0
O126 O 0.02071 0.12097 0.49943 0.0
C127 C 0.08182 0.18026 0.49574 0.0
O128 O 0.006 0.1852 0.55804 0.0
O129 O 0.05137 0.19745 0.55693 0.0
In130 In 0.09512 0.79089 0.78108 0.0
O131 O 0.06695 0.7597 0.80971 0.0
O132 O 0.0578 0.80579 0.81129 0.0
C133 C 0.11898 0.75368 0.74052 0.0
C134 C 0.0713 0.83489 0.74827 0.0
C135 C 0.13939 0.79454 0.82142 0.0
O136 O 0.09403 0.74884 0.7523 0.0
O137 O 0.13123 0.77733 0.74879 0.0
O138 O 0.13691 0.8132 0.80067 0.0
O139 O 0.11975 0.77482 0.82161 0.0
C140 C 0.05218 0.78038 0.82141 0.0
O141 O 0.09097 0.83958 0.76766 0.0
O142 O 0.06394 0.80805 0.74536 0.0
In143 In 0.46352 0.85274 0.02691 0.0
O144 O 0.48611 0.81913 0.05749 0.0
O145 O 0.43909 0.82357 0.05936 0.0
C146 C 0.50785 0.87214 0.99155 0.0
C147 C 0.4229 0.82927 0.98997 0.0
C148 C 0.46179 0.89768 0.06641 0.0
O149 O 0.5097 0.84827 0.00607 0.0
O150 O 0.48329 0.88514 0.99384 0.0
O151 O 0.44385 0.89658 0.04491 0.0
O152 O 0.47976 0.87649 0.06765 0.0
C153 C 0.46205 0.8113 0.06959 0.0
O154 O 0.41944 0.85449 1.00163 0.0
O155 O 0.44682 0.81636 0.99645 0.0
In156 In 0.39823 0.7953 0.23163 0.0
O157 O 0.40421 0.84368 0.24619 0.0
O158 O 0.43087 0.81113 0.26696 0.0
C159 C 0.34897 0.80865 0.19975 0.0
C160 C 0.43419 0.78019 0.1862 0.0
C161 C 0.38176 0.74863 0.26555 0.0
O162 O 0.34825 0.80393 0.22723 0.0
O163 O 0.37466 0.80943 0.18909 0.0
O164 O 0.4039 0.74775 0.2485 0.0
O165 O 0.369 0.77339 0.26653 0.0
C166 C 0.42439 0.83818 0.26472 0.0
O167 O 0.41148 0.76547 0.19316 0.0
O168 O 0.44 0.80128 0.20358 0.0
In169 In 0.46873 0.16006 0.47407 0.0
O170 O 0.41991 0.16343 0.48713 0.0
O171 O 0.45115 0.18844 0.51195 0.0
C172 C 0.46247 0.11567 0.43406 0.0
C173 C 0.47787 0.20471 0.4353 0.0
C174 C 0.51085 0.13759 0.51043 0.0
O175 O 0.44961 0.11504 0.45887 0.0
O176 O 0.47721 0.13877 0.42939 0.0
O177 O 0.51346 0.16269 0.49834 0.0
O178 O 0.48675 0.12468 0.50502 0.0
C179 C 0.42431 0.18167 0.50788 0.0
O180 O 0.49861 0.18809 0.44405 0.0
O181 O 0.45325 0.19987 0.44756 0.0
In182 In 0.10015 0.20748 0.72071 0.0
O183 O 0.09296 0.15885 0.73354 0.0
O184 O 0.07165 0.1919 0.75934 0.0
C185 C 0.14341 0.2004 0.67942 0.0
C186 C 0.05531 0.2219 0.68385 0.0
C187 C 0.12651 0.24721 0.75692 0.0
O188 O 0.14465 0.18788 0.70438 0.0
O189 O 0.12003 0.21476 0.67507 0.0
O190 O 0.10163 0.25194 0.74504 0.0
O191 O 0.13735 0.22214 0.75144 0.0
C192 C 0.07597 0.16463 0.75501 0.0
O193 O 0.0728 0.24109 0.69433 0.0
O194 O 0.05954 0.19595 0.69335 0.0
In195 In 0.03439 0.84707 0.97869 0.0
O196 O 0.08223 0.84348 0.99483 0.0
O197 O 0.04964 0.81733 0.01661 0.0
C198 C 0.04001 0.89035 0.93751 0.0
C199 C 0.0261 0.80322 0.93891 0.0
C200 C 0.99384 0.87251 0.01472 0.0
O201 O 0.05591 0.88996 0.96055 0.0
O202 O 0.0223 0.86902 0.93537 0.0
O203 O 0.99003 0.84699 0.00383 0.0
O204 O 0.01824 0.88432 0.00821 0.0
C205 C 0.0766 0.82462 0.01475 0.0
O206 O 0.00473 0.81743 0.95009 0.0
O207 O 0.05114 0.80975 0.94945 0.0
In208 In 0.27935 0.41218 0.22578 0.0
O209 O 0.31082 0.44045 0.25372 0.0
O210 O 0.30956 0.44796 0.20731 0.0
C211 C 0.24523 0.38969 0.26958 0.0
C212 C 0.24216 0.43674 0.18574 0.0
C213 C 0.31739 0.36635 0.21777 0.0
O214 O 0.25893 0.41395 0.27225 0.0
O215 O 0.24785 0.37766 0.24459 0.0
O216 O 0.29268 0.36732 0.20465 0.0
O217 O 0.32274 0.38843 0.23374 0.0
C218 C 0.32152 0.45413 0.23178 0.0
O219 O 0.26066 0.41684 0.17898 0.0
O220 O 0.24222 0.44397 0.21274 0.0
In221 In 0.77558 0.09913 0.78852 0.0
O222 O 0.80674 0.07393 0.75758 0.0
O223 O 0.80334 0.05932 0.80213 0.0
C224 C 0.74072 0.12085 0.74478 0.0
C225 C 0.74107 0.07556 0.83164 0.0
C226 C 0.81393 0.14482 0.7973 0.0
O227 O 0.75403 0.09636 0.74255 0.0
O228 O 0.74403 0.13349 0.76937 0.0
O229 O 0.78742 0.14584 0.80609 0.0
O230 O 0.8211 0.1206 0.78579 0.0
C231 C 0.81593 0.05641 0.77736 0.0
O232 O 0.76114 0.09434 0.8369 0.0
O233 O 0.7381 0.0691 0.80462 0.0
In234 In 0.14842 0.53445 0.05565 0.0
O235 O 0.17175 0.56486 0.02258 0.0
O236 O 0.18921 0.56211 0.06615 0.0
C237 C 0.12616 0.50022 0.01193 0.0
C238 C 0.17329 0.49971 0.09784 0.0
C239 C 0.10247 0.57244 0.06448 0.0
O240 O 0.15006 0.51452 0.00918 0.0
O241 O 0.11442 0.50207 0.03713 0.0
O242 O 0.10006 0.54493 0.06862 0.0
O243 O 0.12837 0.58073 0.05883 0.0
C244 C 0.19059 0.57425 0.04101 0.0
O245 O 0.15518 0.52013 0.10401 0.0
O246 O 0.17819 0.49651 0.07056 0.0
In247 In 0.73064 0.90767 0.28835 0.0
O248 O 0.69437 0.92431 0.25732 0.0
O249 O 0.70385 0.94998 0.29546 0.0
C250 C 0.76519 0.88966 0.24272 0.0
C251 C 0.76375 0.93235 0.33203 0.0
C252 C 0.69685 0.85929 0.30073 0.0
O253 O 0.74875 0.91221 0.24111 0.0
O254 O 0.76522 0.87725 0.26766 0.0
O255 O 0.7247 0.85823 0.29924 0.0
O256 O 0.68641 0.88496 0.2984 0.0
C257 C 0.68754 0.94638 0.27304 0.0
O258 O 0.74413 0.91306 0.33701 0.0
O259 O 0.76691 0.93886 0.30507 0.0
In260 In 0.85063 0.98147 0.04004 0.0
O261 O 0.83271 0.9467 0.00803 0.0
O262 O 0.80768 0.95555 0.04672 0.0
C263 C 0.87052 0.01547 0.99474 0.0
C264 C 0.82689 0.01502 0.08398 0.0
C265 C 0.89729 0.94531 0.05217 0.0
O266 O 0.84675 1.00082 0.99324 0.0
O267 O 0.88324 0.01416 0.0195 0.0
O268 O 0.89975 0.97308 0.05074 0.0
O269 O 0.87111 0.93617 0.04998 0.0
C270 C 0.81066 0.93986 0.02379 0.0
O271 O 0.84561 0.99483 0.08881 0.0
O272 O 0.82062 0.01864 0.05703 0.0
In273 In 0.22438 0.61468 0.69869 0.0
O274 O 0.23906 0.60731 0.65048 0.0
O275 O 0.2619 0.58416 0.68436 0.0
C276 C 0.18816 0.66164 0.6882 0.0
C277 C 0.18327 0.57446 0.71509 0.0
C278 C 0.25821 0.63524 0.7434 0.0
O279 O 0.21597 0.66391 0.68851 0.0
O280 O 0.17902 0.63542 0.6898 0.0
O281 O 0.24282 0.61197 0.74558 0.0
O282 O 0.25776 0.64713 0.71818 0.0
C283 C 0.25907 0.58887 0.65702 0.0
O284 O 0.19146 0.59531 0.73181 0.0
O285 O 0.19717 0.57293 0.6909 0.0
In286 In 0.15968 0.47443 0.46647 0.0
O287 O 0.18753 0.44579 0.49775 0.0
O288 O 0.1975 0.44471 0.4518 0.0
C289 C 0.13623 0.5116 0.5072 0.0
C290 C 0.18398 0.50825 0.42332 0.0
C291 C 0.1148 0.43474 0.46091 0.0
O292 O 0.16093 0.49897 0.51092 0.0
O293 O 0.12417 0.50633 0.48265 0.0
O294 O 0.11481 0.45894 0.44685 0.0
O295 O 0.13746 0.43054 0.47641 0.0
C296 C 0.20283 0.43446 0.47724 0.0
O297 O 0.16501 0.48835 0.41798 0.0
O298 O 0.19023 0.51134 0.45039 0.0
In299 In 0.36896 0.51575 0.95943 0.0
O300 O 0.36996 0.49053 0.91553 0.0
O301 O 0.3361 0.47976 0.94659 0.0
C302 C 0.41565 0.55279 0.96128 0.0
C303 C 0.33144 0.56035 0.94783 0.0
C304 C 0.38416 0.48477 0.00792 0.0
O305 O 0.41607 0.52986 0.94507 0.0
O306 O 0.39227 0.55635 0.97599 0.0
O307 O 0.36097 0.50055 0.007 0.0
O308 O 0.39855 0.48364 0.984 0.0
C309 C 0.34722 0.47518 0.92134 0.0
O310 O 0.33234 0.54847 0.97324 0.0
O311 O 0.34783 0.54833 0.92867 0.0
In312 In 0.72263 0.78203 0.90995 0.0
O313 O 0.75071 0.8132 0.93849 0.0
O314 O 0.70446 0.81079 0.94694 0.0
C315 C 0.76658 0.7481 0.88757 0.0
C316 C 0.68248 0.74465 0.93404 0.0
C317 C 0.7143 0.82045 0.8644 0.0
O318 O 0.76923 0.76199 0.91169 0.0
O319 O 0.74154 0.75049 0.87557 0.0
O320 O 0.70168 0.79548 0.86505 0.0
O321 O 0.72986 0.82596 0.88674 0.0
C322 C 0.72889 0.82293 0.95305 0.0
O323 O 0.67563 0.7637 0.91471 0.0
O324 O 0.70961 0.74421 0.94084 0.0
In325 In 0.48192 0.46749 0.16277 0.0
O326 O 0.45015 0.4978 0.18819 0.0
O327 O 0.4516 0.45234 0.20007 0.0
C328 C 0.51974 0.50912 0.14176 0.0
C329 C 0.51543 0.42449 0.18758 0.0
C330 C 0.44511 0.45987 0.11591 0.0
O331 O 0.50606 0.51218 0.16595 0.0
O332 O 0.51505 0.48484 0.12893 0.0
O333 O 0.46909 0.44566 0.11828 0.0
O334 O 0.43973 0.47687 0.13721 0.0
C335 C 0.43957 0.47724 0.20393 0.0
O336 O 0.49633 0.41925 0.16782 0.0
O337 O 0.5178 0.45147 0.19461 0.0
In338 In 0.79094 0.22635 0.41159 0.0
O339 O 0.83926 0.24147 0.41514 0.0
O340 O 0.80712 0.26415 0.44097 0.0
C341 C 0.79665 0.1872 0.36624 0.0
C342 C 0.78358 0.1867 0.45574 0.0
C343 C 0.74757 0.26187 0.39036 0.0
O344 O 0.80938 0.21212 0.3659 0.0
O345 O 0.7824 0.182 0.38952 0.0
O346 O 0.74537 0.24864 0.4149 0.0
O347 O 0.77194 0.25809 0.37738 0.0
C348 C 0.83408 0.26147 0.43401 0.0
O349 O 0.76205 0.1964 0.44072 0.0
O350 O 0.80824 0.19823 0.44946 0.0
In351 In 0.02595 0.54592 0.64974 0.0
O352 O 0.05686 0.51976 0.68027 0.0
O353 O 0.0547 0.56651 0.68531 0.0
C354 C 0.9919 0.50049 0.63064 0.0
C355 C 0.9899 0.58842 0.67167 0.0
C356 C 0.06505 0.55027 0.6043 0.0
O357 O 0.00541 0.49979 0.65512 0.0
O358 O 0.99458 0.52447 0.61665 0.0
O359 O 0.03986 0.56244 0.60313 0.0
O360 O 0.07033 0.5372 0.62823 0.0
C361 C 0.06673 0.54256 0.69317 0.0
O362 O 0.00889 0.59365 0.65177 0.0
O363 O 0.98848 0.56166 0.67965 0.0
In364 In 0.71719 0.22962 0.59908 0.0
O365 O 0.74722 0.19905 0.57187 0.0
O366 O 0.7019 0.20223 0.55972 0.0
C367 C 0.76035 0.26466 0.62176 0.0
C368 C 0.67433 0.26487 0.57626 0.0
C369 C 0.70907 0.19027 0.64391 0.0
O370 O 0.76287 0.25204 0.59694 0.0
O371 O 0.73583 0.26048 0.63431 0.0
O372 O 0.69779 0.21585 0.6445 0.0
O373 O 0.72304 0.18455 0.62061 0.0
C374 C 0.72661 0.18996 0.55527 0.0
O375 O 0.66894 0.24466 0.59485 0.0
O376 O 0.70136 0.2676 0.56961 0.0
In377 In 0.02485 0.46193 0.86128 0.0
O378 O 0.05919 0.47639 0.82639 0.0
O379 O 0.06468 0.43524 0.84908 0.0
C380 C 0.99077 0.50903 0.87418 0.0
C381 C 0.98934 0.42175 0.83465 0.0
C382 C 0.05693 0.46637 0.91115 0.0
O383 O 0.00874 0.50902 0.85265 0.0
O384 O 0.98877 0.48468 0.88779 0.0
O385 O 0.03633 0.44733 0.909 0.0
O386 O 0.0602 0.48288 0.88892 0.0
C387 C 0.07532 0.45392 0.83124 0.0
O388 O 1.00067 0.41727 0.85989 0.0
O389 O 0.99544 0.44661 0.82336 0.0
In390 In 0.79086 0.78356 0.09501 0.0
O391 O 0.83895 0.76827 0.09093 0.0
O392 O 0.80649 0.74621 0.06486 0.0
C393 C 0.79657 0.82292 0.14002 0.0
C394 C 0.78352 0.82351 0.05112 0.0
C395 C 0.74881 0.74722 0.11749 0.0
O396 O 0.81114 0.79903 0.13947 0.0
O397 O 0.7803 0.82692 0.11786 0.0
O398 O 0.74562 0.76048 0.09306 0.0
O399 O 0.7735 0.75142 0.12974 0.0
C400 C 0.83351 0.74861 0.07175 0.0
O401 O 0.7619 0.81332 0.06569 0.0
O402 O 0.80825 0.81231 0.05768 0.0
In403 In 0.48142 0.53808 0.3448 0.0
O404 O 0.45189 0.50805 0.31657 0.0
O405 O 0.45258 0.55403 0.30672 0.0
C406 C 0.51631 0.49557 0.36875 0.0
C407 C 0.51712 0.58074 0.3223 0.0
C408 C 0.44107 0.54521 0.38876 0.0
O409 O 0.50471 0.49282 0.34345 0.0
O410 O 0.51125 0.52003 0.3811 0.0
O411 O 0.46587 0.55817 0.38937 0.0
O412 O 0.43674 0.52988 0.36604 0.0
C413 C 0.44127 0.52903 0.30139 0.0
O414 O 0.49711 0.58611 0.3411 0.0
O415 O 0.51935 0.55379 0.31514 0.0
In416 In 0.90904 0.72273 0.77465 0.0
O417 O 0.91189 0.67499 0.75814 0.0
O418 O 0.93845 0.70735 0.73651 0.0
C419 C 0.86556 0.71696 0.81555 0.0
C420 C 0.95288 0.72983 0.81473 0.0
C421 C 0.8843 0.76438 0.73933 0.0
O422 O 0.86562 0.70171 0.79209 0.0
O423 O 0.88729 0.73409 0.81822 0.0
O424 O 0.90985 0.76757 0.75035 0.0
O425 O 0.87213 0.74002 0.7453 0.0
C426 C 0.93078 0.68049 0.73821 0.0
O427 O 0.93889 0.75153 0.8039 0.0
O428 O 0.94617 0.70507 0.80368 0.0
In429 In 0.55327 0.65161 0.03336 0.0
O430 O 0.60137 0.65838 0.01852 0.0
O431 O 0.56753 0.68124 0.99511 0.0
C432 C 0.56025 0.60755 0.07374 0.0
C433 C 0.54162 0.69579 0.07181 0.0
C434 C 0.51202 0.62647 0.99805 0.0
O435 O 0.57242 0.60646 0.04859 0.0
O436 O 0.54633 0.63107 0.07862 0.0
O437 O 0.50791 0.65106 0.01074 0.0
O438 O 0.53724 0.61536 1.00224 0.0
C439 C 0.59489 0.67634 0.99804 0.0
O440 O 0.52141 0.67971 0.061 0.0
O441 O 0.56724 0.69054 0.0619 0.0
In442 In 0.6007 0.28798 0.28424 0.0
O443 O 0.57466 0.25772 0.31555 0.0
O444 O 0.56057 0.30235 0.31102 0.0
C445 C 0.62217 0.24467 0.24874 0.0
C446 C 0.57779 0.33149 0.24997 0.0
C447 C 0.64626 0.29604 0.32277 0.0
O448 O 0.59764 0.24234 0.26199 0.0
O449 O 0.63503 0.26909 0.25256 0.0
O450 O 0.64696 0.30621 0.29675 0.0
O451 O 0.62243 0.28337 0.32938 0.0
C452 C 0.55714 0.27784 0.32399 0.0
O453 O 0.59616 0.33655 0.27045 0.0
O454 O 0.57148 0.30447 0.24646 0.0
In455 In 0.96953 0.3475 0.53185 0.0
O456 O 0.92136 0.3429 0.5168 0.0
O457 O 0.95372 0.31672 0.49489 0.0
C458 C 0.9611 0.39493 0.56795 0.0
C459 C 0.97818 0.30577 0.57398 0.0
C460 C 0.01369 0.36744 0.49637 0.0
O461 O 0.9506 0.39402 0.54208 0.0
O462 O 0.97439 0.37177 0.57564 0.0
O463 O 0.01567 0.34349 0.51069 0.0
O464 O 0.98921 0.38044 0.49912 0.0
C465 C 0.92673 0.32366 0.49723 0.0
O466 O 0.99884 0.32222 0.5647 0.0
O467 O 0.95381 0.30926 0.56076 0.0
In468 In 0.90569 0.28971 0.73021 0.0
O469 O 0.9321 0.25916 0.69954 0.0
O470 O 0.94591 0.30393 0.70326 0.0
C471 C 0.88287 0.24585 0.76418 0.0
C472 C 0.9281 0.33214 0.76635 0.0
C473 C 0.86058 0.29856 0.69126 0.0
O474 O 0.90793 0.24371 0.7519 0.0
O475 O 0.87013 0.2703 0.76014 0.0
O476 O 0.85947 0.30805 0.71751 0.0
O477 O 0.8846 0.2863 0.68465 0.0
C478 C 0.94943 0.27926 0.69063 0.0
O479 O 0.91154 0.33804 0.74459 0.0
O480 O 0.93305 0.30488 0.77006 0.0
In481 In 0.96843 0.66147 0.97457 0.0
O482 O 0.92023 0.66613 0.98935 0.0
O483 O 0.9525 0.69352 0.0101 0.0
C484 C 0.96318 0.61533 0.93661 0.0
C485 C 0.97731 0.70305 0.93242 0.0
C486 C 0.00774 0.63949 0.01418 0.0
O487 O 0.94615 0.61814 0.95865 0.0
O488 O 0.98196 0.63567 0.93387 0.0
O489 O 0.01189 0.66389 1.00108 0.0
O490 O 0.98374 0.62686 0.00771 0.0
C491 C 0.92557 0.68616 0.00817 0.0
O492 O 0.99843 0.68861 0.94375 0.0
O493 O 0.9523 0.69775 0.94365 0.0
In494 In 0.60607 0.71676 0.2284 0.0
O495 O 0.57787 0.74672 0.1987 0.0
O496 O 0.56818 0.7007 0.19955 0.0
C497 C 0.62903 0.75868 0.2646 0.0
C498 C 0.58274 0.67342 0.26266 0.0
C499 C 0.65052 0.71112 0.18833 0.0
O500 O 0.60378 0.7614 0.25283 0.0
O501 O 0.6418 0.73455 0.25901 0.0
O502 O 0.65117 0.69766 0.21286 0.0
O503 O 0.62753 0.72612 0.18411 0.0
C504 C 0.5627 0.72565 0.18822 0.0
O505 O 0.60198 0.66832 0.24299 0.0
O506 O 0.57591 0.7004 0.26548 0.0
In507 In 0.53892 0.35091 0.47866 0.0
O508 O 0.58728 0.34643 0.49338 0.0
O509 O 0.55484 0.32196 0.51702 0.0
C510 C 0.54902 0.39619 0.4401 0.0
C511 C 0.52788 0.30735 0.43915 0.0
C512 C 0.49398 0.37248 0.51209 0.0
O513 O 0.55549 0.39804 0.46719 0.0
O514 O 0.53928 0.37131 0.4325 0.0
O515 O 0.49227 0.34802 0.49868 0.0
O516 O 0.51866 0.38519 0.50967 0.0
C517 C 0.58192 0.3282 0.5139 0.0
O518 O 0.50848 0.32604 0.44668 0.0
O519 O 0.55208 0.30962 0.45296 0.0
In520 In 0.77604 0.909 0.7162 0.0
O521 O 0.81035 0.92801 0.74812 0.0
O522 O 0.80215 0.95156 0.70832 0.0
C523 C 0.74224 0.88857 0.76144 0.0
C524 C 0.74209 0.93327 0.67284 0.0
C525 C 0.81247 0.86254 0.70394 0.0
O526 O 0.75691 0.91232 0.76315 0.0
O527 O 0.74349 0.87612 0.73655 0.0
O528 O 0.78465 0.86023 0.70385 0.0
O529 O 0.82162 0.8885 0.70781 0.0
C530 C 0.81744 0.94945 0.73162 0.0
O531 O 0.76214 0.9145 0.66763 0.0
O532 O 0.73879 0.9393 0.69989 0.0
In533 In 0.2814 0.59647 0.28877 0.0
O534 O 0.31207 0.5701 0.25815 0.0
O535 O 0.31187 0.55931 0.30391 0.0
C536 C 0.24452 0.61825 0.24679 0.0
C537 C 0.24749 0.57135 0.33139 0.0
C538 C 0.31884 0.64306 0.29591 0.0
O539 O 0.25856 0.59429 0.24344 0.0
O540 O 0.24819 0.63035 0.27161 0.0
O541 O 0.29427 0.64176 0.30924 0.0
O542 O 0.32451 0.62079 0.28032 0.0
C543 C 0.32315 0.55477 0.27877 0.0
O544 O 0.26675 0.5909 0.33694 0.0
O545 O 0.2451 0.56478 0.30433 0.0
In546 In 0.6577 0.03265 0.53721 0.0
O547 O 0.66218 0.0178 0.58556 0.0
O548 O 0.68762 0.99505 0.55329 0.0
C549 C 0.61099 0.06948 0.54731 0.0
C550 C 0.69971 0.07381 0.52577 0.0
C551 C 0.63746 0.99878 0.49195 0.0
O552 O 0.60955 0.04199 0.55196 0.0
O553 O 0.63619 0.07832 0.53968 0.0
O554 O 0.66127 0.01337 0.49026 0.0
O555 O 0.62481 1.00031 0.51671 0.0
C556 C 0.68095 0.99775 0.58027 0.0
O557 O 0.6808 0.06587 0.50673 0.0
O558 O 0.69856 0.05952 0.54976 0.0
In559 In 0.23973 0.38768 0.7967 0.0
O560 O 0.2076 0.42421 0.78155 0.0
O561 O 0.20774 0.4107 0.82676 0.0
C562 C 0.27062 0.37223 0.74829 0.0
C563 C 0.28033 0.40875 0.83516 0.0
C564 C 0.20187 0.34156 0.79519 0.0
O565 O 0.25544 0.3958 0.74937 0.0
O566 O 0.27121 0.35752 0.77204 0.0
O567 O 0.2251 0.34063 0.81094 0.0
O568 O 0.1984 0.36515 0.78082 0.0
C569 C 0.19588 0.42643 0.80693 0.0
O570 O 0.26419 0.38658 0.84106 0.0
O571 O 0.27649 0.4196 0.80966 0.0
In572 In 0.34608 0.4797 0.53141 0.0
O573 O 0.34119 0.49896 0.57796 0.0
O574 O 0.3145 0.51721 0.54373 0.0
C575 C 0.39155 0.4413 0.53972 0.0
C576 C 0.30389 0.43779 0.52545 0.0
C577 C 0.36916 0.5136 0.48778 0.0
O578 O 0.39056 0.46589 0.55307 0.0
O579 O 0.36968 0.43626 0.52335 0.0
O580 O 0.34471 0.50025 0.485 0.0
O581 O 0.38115 0.51065 0.51276 0.0
C582 C 0.32153 0.51757 0.57078 0.0
O583 O 0.31758 0.44845 0.50349 0.0
O584 O 0.31019 0.44965 0.54994 0.0
In585 In 0.7283 0.09794 0.22077 0.0
O586 O 0.69705 0.07069 0.25001 0.0
O587 O 0.69985 0.0597 0.20441 0.0
C588 C 0.76313 0.11899 0.26491 0.0
C589 C 0.76336 0.07539 0.17761 0.0
C590 C 0.68992 0.14378 0.21364 0.0
O591 O 0.74974 0.09449 0.26681 0.0
O592 O 0.75993 0.13195 0.24046 0.0
O593 O 0.71574 0.1444 0.20293 0.0
O594 O 0.68348 0.11999 0.22643 0.0
C595 C 0.68742 0.05495 0.22898 0.0
O596 O 0.74363 0.09459 0.17259 0.0
O597 O 0.76572 0.06796 0.20447 0.0
In598 In 0.65523 0.97863 0.96791 0.0
O599 O 0.68088 0.9479 0.99901 0.0
O600 O 0.69529 0.95117 0.95441 0.0
C601 C 0.63304 0.01448 0.01062 0.0
C602 C 0.67855 0.01288 0.92447 0.0
C603 C 0.61001 0.93967 0.9596 0.0
O604 O 0.65801 1.00211 0.01297 0.0
O605 O 0.62003 0.00958 0.98649 0.0
O606 O 0.60952 0.96542 0.94871 0.0
O607 O 0.63344 0.93355 0.9732 0.0
C608 C 0.69848 0.93881 0.97926 0.0
O609 O 0.66014 0.99243 0.91932 0.0
O610 O 0.68475 0.01631 0.95149 0.0
In611 In 0.85014 0.02823 0.46892 0.0
O612 O 0.83271 0.06387 0.50021 0.0
O613 O 0.80753 0.05448 0.46172 0.0
C614 C 0.86896 0.99411 0.51453 0.0
C615 C 0.82589 0.9947 0.42531 0.0
C616 C 0.89781 0.06302 0.45655 0.0
O617 O 0.84598 0.00995 0.51611 0.0
O618 O 0.88138 0.99438 0.4896 0.0
O619 O 0.89947 0.03521 0.45817 0.0
O620 O 0.87191 0.07291 0.45874 0.0
C621 C 0.8107 0.07058 0.48434 0.0
O622 O 0.84494 0.01455 0.4203 0.0
O623 O 0.81946 0.99147 0.45228 0.0
C624 C 0.13587 0.18878 0.48578 0.0
C625 C 0.10609 0.1945 0.47877 0.0
H626 H 0.1814 0.19928 0.47742 0.0
C627 C 0.09972 0.21502 0.45627 0.0
H628 H 0.14154 0.17313 0.50302 0.0
C629 C 0.12255 0.22997 0.44156 0.0
C630 C 0.1523 0.22479 0.44907 0.0
H631 H 0.07701 0.21994 0.45033 0.0
H632 H 0.11685 0.24601 0.4247 0.0
C633 C 0.15871 0.20379 0.47111 0.0
C634 C 0.03614 0.85233 0.70906 0.0
C635 C 0.057 0.85898 0.73116 0.0
H636 H 0.00514 0.86908 0.67735 0.0
C637 C 0.06323 0.88882 0.73737 0.0
H638 H 0.03087 0.82956 0.70371 0.0
C639 C 0.04839 0.9115 0.7223 0.0
C640 C 0.02712 0.90482 0.7006 0.0
H641 H 0.07917 0.89468 0.75427 0.0
H642 H 0.05327 0.93427 0.72799 0.0
C643 C 0.02142 0.87498 0.69391 0.0
C644 C 0.38878 0.8256 0.94629 0.0
C645 C 0.39937 0.81419 0.97317 0.0
H646 H 0.35946 0.81904 0.90932 0.0
C647 C 0.38761 0.78764 0.9841 0.0
H648 H 0.39767 0.84605 0.93749 0.0
C649 C 0.36526 0.77285 0.96868 0.0
C650 C 0.35501 0.78378 0.94147 0.0
H651 H 0.3955 0.7785 0.00482 0.0
H652 H 0.35641 0.75249 0.97774 0.0
C653 C 0.36709 0.81017 0.93023 0.0
C654 C 0.466 0.15944 0.20586 0.0
C655 C 0.44523 0.15197 0.2278 0.0
H656 H 0.49783 0.14388 0.17432 0.0
C657 C 0.43998 0.12191 0.23384 0.0
H658 H 0.47057 0.1824 0.20068 0.0
C659 C 0.45565 0.09983 0.21874 0.0
C660 C 0.47688 0.10732 0.19726 0.0
H661 H 0.42415 0.11542 0.25061 0.0
H662 H 0.45144 0.07688 0.22427 0.0
C663 C 0.48164 0.13737 0.19075 0.0
C664 C 0.1146 0.77647 0.07222 0.0
C665 C 0.14464 0.78251 0.06682 0.0
H666 H 0.06955 0.785 0.05999 0.0
C667 C 0.15202 0.80355 0.04512 0.0
H668 H 0.10818 0.76033 0.08873 0.0
C669 C 0.12991 0.81773 0.02869 0.0
C670 C 0.0999 0.81109 0.03351 0.0
H671 H 0.17496 0.80871 0.04041 0.0
H672 H 0.13637 0.83345 0.0118 0.0
C673 C 0.09247 0.79056 0.05569 0.0
C674 C 0.4523 0.91365 0.289 0.0
C675 C 0.47439 0.90604 0.30957 0.0
H676 H 0.419 0.89823 0.25891 0.0
C677 C 0.47883 0.87601 0.31632 0.0
H678 H 0.44829 0.9366 0.28334 0.0
C679 C 0.46214 0.85403 0.30222 0.0
C680 C 0.4405 0.8616 0.28118 0.0
H681 H 0.49567 0.86941 0.33205 0.0
H682 H 0.46653 0.83106 0.30748 0.0
C683 C 0.43548 0.89167 0.27502 0.0
C684 C 0.38306 0.23065 0.56208 0.0
C685 C 0.35342 0.22576 0.554 0.0
H686 H 0.42866 0.2205 0.55393 0.0
C687 C 0.3472 0.20514 0.53157 0.0
H688 H 0.3886 0.24638 0.57928 0.0
C689 C 0.37018 0.1902 0.5171 0.0
C690 C 0.39986 0.19565 0.5247 0.0
H691 H 0.32458 0.20086 0.52486 0.0
H692 H 0.3647 0.17485 0.49955 0.0
C693 C 0.40603 0.21581 0.54755 0.0
C694 C 0.04213 0.14933 0.79623 0.0
C695 C 0.06097 0.14143 0.77277 0.0
H696 H 0.01176 0.13457 0.82952 0.0
C697 C 0.06428 0.11131 0.76575 0.0
H698 H 0.03911 0.17235 0.80223 0.0
C699 C 0.04855 0.08964 0.78141 0.0
C700 C 0.02922 0.09762 0.80445 0.0
H701 H 0.07859 0.1045 0.74779 0.0
H702 H 0.05116 0.06666 0.77511 0.0
C703 C 0.02646 0.12768 0.81191 0.0
C704 C 0.20286 0.47363 0.17207 0.0
C705 C 0.22299 0.45148 0.16353 0.0
H706 H 0.17118 0.50612 0.15807 0.0
C707 C 0.22545 0.44434 0.13338 0.0
H708 H 0.20042 0.47963 0.19513 0.0
C709 C 0.20875 0.45954 0.11219 0.0
C710 C 0.18913 0.48217 0.12063 0.0
H711 H 0.24071 0.42738 0.12607 0.0
H712 H 0.21162 0.45388 0.08908 0.0
C713 C 0.18607 0.48879 0.15085 0.0
C714 C 0.70223 0.03946 0.84834 0.0
C715 C 0.72362 0.06097 0.85534 0.0
H716 H 0.67112 0.00752 0.86463 0.0
C717 C 0.72907 0.06743 0.88525 0.0
H718 H 0.69751 0.03396 0.82551 0.0
C719 C 0.71396 0.05226 0.90767 0.0
C720 C 0.69304 0.03029 0.90068 0.0
H721 H 0.74541 0.08387 0.8914 0.0
H722 H 0.71905 0.05742 0.9305 0.0
C723 C 0.68709 0.02431 0.87076 0.0
C724 C 0.77496 0.94078 0.38578 0.0
C725 C 0.78078 0.94713 0.3559 0.0
H726 H 0.78467 0.95077 0.4311 0.0
C727 C 0.80236 0.96851 0.34905 0.0
H728 H 0.75846 0.92445 0.3918 0.0
C729 C 0.81742 0.98354 0.37157 0.0
C730 C 0.8112 0.9776 0.40145 0.0
H731 H 0.80737 0.97391 0.32626 0.0
H732 H 0.83363 1.00016 0.36555 0.0
C733 C 0.78998 0.95587 0.4083 0.0
C734 C 0.79127 0.05395 0.10133 0.0
C735 C 0.81218 0.03189 0.10801 0.0
H736 H 0.75961 0.08509 0.11802 0.0
C737 C 0.81787 0.02524 0.13785 0.0
H738 H 0.78637 0.05962 0.07857 0.0
C739 C 0.80248 0.03981 0.16047 0.0
C740 C 0.78109 0.06141 0.15376 0.0
H741 H 0.83383 0.00836 0.14375 0.0
H742 H 0.80699 0.03378 0.18322 0.0
C743 C 0.77593 0.06857 0.12394 0.0
C744 C 0.27016 0.57509 0.6043 0.0
C745 C 0.27651 0.57241 0.63461 0.0
H746 H 0.2794 0.55985 0.56034 0.0
C747 C 0.29872 0.55253 0.64357 0.0
H748 H 0.25315 0.59016 0.59669 0.0
C749 C 0.31378 0.53522 0.62278 0.0
C750 C 0.30691 0.5373 0.59255 0.0
H751 H 0.30416 0.54994 0.66675 0.0
H752 H 0.33042 0.51979 0.63049 0.0
C753 C 0.28517 0.55768 0.58349 0.0
C754 C 0.2351 0.56276 0.38484 0.0
C755 C 0.23004 0.55636 0.35484 0.0
H756 H 0.22452 0.55265 0.42993 0.0
C757 C 0.20884 0.53476 0.34753 0.0
H758 H 0.25129 0.57925 0.39122 0.0
C759 C 0.19342 0.51956 0.36972 0.0
C760 C 0.19892 0.52555 0.39973 0.0
H761 H 0.20441 0.52932 0.32462 0.0
H762 H 0.17754 0.50276 0.36336 0.0
C763 C 0.21976 0.5475 0.40702 0.0
C764 C 0.33832 0.45909 0.86903 0.0
C765 C 0.33291 0.45543 0.89942 0.0
H766 H 0.3257 0.44733 0.82484 0.0
C767 C 0.31184 0.43439 0.90849 0.0
H768 H 0.35432 0.47521 0.86136 0.0
C769 C 0.29583 0.41803 0.88759 0.0
C770 C 0.30012 0.42284 0.85719 0.0
H771 H 0.30724 0.43105 0.93177 0.0
H772 H 0.27917 0.40259 0.89525 0.0
C773 C 0.32186 0.44319 0.84813 0.0
C774 C 0.64783 0.68843 0.98605 0.0
C775 C 0.61751 0.69202 0.98012 0.0
H776 H 0.69215 0.7022 0.97611 0.0
C777 C 0.60886 0.71195 0.95784 0.0
H778 H 0.65521 0.67327 1.00308 0.0
C779 C 0.63 0.72849 0.94236 0.0
C780 C 0.66027 0.72552 0.94885 0.0
H781 H 0.58567 0.71521 0.95271 0.0
H782 H 0.62256 0.74405 0.92572 0.0
C783 C 0.66898 0.70504 0.97061 0.0
C784 C 0.54285 0.34844 0.21033 0.0
C785 C 0.56333 0.35535 0.23269 0.0
H786 H 0.51178 0.36481 0.17847 0.0
C787 C 0.5688 0.38526 0.23927 0.0
H788 H 0.53813 0.32561 0.20473 0.0
C789 C 0.55362 0.40773 0.22427 0.0
C790 C 0.5327 0.40079 0.20231 0.0
H791 H 0.58441 0.39132 0.25641 0.0
H792 H 0.55797 0.43055 0.23019 0.0
C793 C 0.52773 0.3709 0.19527 0.0
C794 C 0.87316 0.31582 0.48476 0.0
C795 C 0.90311 0.30924 0.47953 0.0
H796 H 0.82791 0.30599 0.47443 0.0
C797 C 0.9102 0.28787 0.45806 0.0
H798 H 0.86695 0.33217 0.50113 0.0
C799 C 0.88781 0.27293 0.44266 0.0
C800 C 0.85784 0.27895 0.44847 0.0
H801 H 0.93306 0.28232 0.45348 0.0
H802 H 0.89399 0.25619 0.42667 0.0
C803 C 0.85078 0.30081 0.46944 0.0
C804 C 0.96449 0.66433 0.6971 0.0
C805 C 0.94405 0.65708 0.71943 0.0
H806 H 0.99474 0.64835 0.66423 0.0
C807 C 0.9374 0.62711 0.72449 0.0
H808 H 0.97003 0.68722 0.69261 0.0
C809 C 0.95162 0.60486 0.7083 0.0
C810 C 0.97268 0.61207 0.68655 0.0
H811 H 0.92174 0.62078 0.74149 0.0
H812 H 0.94656 0.58197 0.71329 0.0
C813 C 0.97859 0.64207 0.68078 0.0
C814 C 0.63555 0.31962 0.52566 0.0
C815 C 0.60556 0.31371 0.53151 0.0
H816 H 0.68076 0.30891 0.53527 0.0
C817 C 0.59841 0.29268 0.5533 0.0
H818 H 0.6418 0.33567 0.509 0.0
C819 C 0.62074 0.27735 0.56838 0.0
C820 C 0.65072 0.28268 0.56197 0.0
H821 H 0.57552 0.28762 0.55833 0.0
H822 H 0.61449 0.26088 0.58463 0.0
C823 C 0.65787 0.30426 0.54071 0.0
C824 C 0.95694 0.34776 0.81124 0.0
C825 C 0.94194 0.35533 0.78504 0.0
H826 H 0.98329 0.36287 0.84775 0.0
C827 C 0.94138 0.38515 0.77621 0.0
H828 H 0.95771 0.32499 0.81867 0.0
C829 C 0.95629 0.40676 0.79267 0.0
C830 C 0.97176 0.39913 0.81857 0.0
H831 H 0.93006 0.3917 0.75613 0.0
H832 H 0.956 0.42943 0.78488 0.0
C833 C 0.97152 0.36947 0.82794 0.0
C834 C 0.88707 0.7372 0.0626 0.0
C835 C 0.85707 0.73118 0.05701 0.0
H836 H 0.93221 0.72774 0.05154 0.0
C837 C 0.8498 0.70934 0.03608 0.0
H838 H 0.8934 0.75393 0.07855 0.0
C839 C 0.87205 0.69426 0.02066 0.0
C840 C 0.90203 0.7008 0.02573 0.0
H841 H 0.82689 0.70419 0.03127 0.0
H842 H 0.86572 0.67787 0.00437 0.0
C843 C 0.90931 0.72223 0.04708 0.0
C844 C 0.55736 0.59726 0.28766 0.0
C845 C 0.53544 0.60432 0.30859 0.0
H846 H 0.58967 0.61351 0.25692 0.0
C847 C 0.53037 0.63424 0.31539 0.0
H848 H 0.56184 0.57441 0.28195 0.0
C849 C 0.54628 0.65662 0.30102 0.0
C850 C 0.5677 0.6496 0.27957 0.0
H851 H 0.51367 0.64043 0.33141 0.0
H852 H 0.54139 0.67948 0.30634 0.0
C853 C 0.57336 0.61965 0.27335 0.0
C854 C 0.73113 0.94262 0.61917 0.0
C855 C 0.72505 0.94832 0.64912 0.0
H856 H 0.72196 0.95368 0.57397 0.0
C857 C 0.70341 0.96954 0.65619 0.0
H858 H 0.74768 0.92644 0.61297 0.0
C859 C 0.68863 0.98513 0.63385 0.0
C860 C 0.69519 0.97991 0.60391 0.0
H861 H 0.6982 0.97446 0.67906 0.0
H862 H 0.67243 1.00166 0.64006 0.0
C863 C 0.71639 0.95826 0.59682 0.0
C864 C 0.2166 0.34697 0.29041 0.0
C865 C 0.23112 0.3742 0.29476 0.0
H866 H 0.19909 0.30766 0.31057 0.0
C867 C 0.23542 0.38444 0.32374 0.0
H868 H 0.21285 0.33857 0.26829 0.0
C869 C 0.22773 0.36667 0.34784 0.0
C870 C 0.21528 0.33847 0.34346 0.0
H871 H 0.24644 0.40534 0.32783 0.0
H872 H 0.23296 0.37439 0.36992 0.0
C873 C 0.20859 0.3293 0.31459 0.0
C874 C 0.91024 0.96549 0.5381 0.0
C875 C 0.88307 0.98052 0.54078 0.0
H876 H 0.94841 0.94824 0.5605 0.0
C877 C 0.8717 0.98599 0.56914 0.0
H878 H 0.91953 0.96087 0.5165 0.0
C879 C 0.88829 0.97887 0.59424 0.0
C880 C 0.91648 0.96597 0.5915 0.0
H881 H 0.85081 0.99741 0.57196 0.0
H882 H 0.87966 0.98493 0.61576 0.0
C883 C 0.92678 0.95818 0.56327 0.0
C884 C 0.29394 0.69396 0.79141 0.0
C885 C 0.28565 0.68409 0.81962 0.0
H886 H 0.29164 0.68597 0.74467 0.0
C887 C 0.27212 0.65625 0.82263 0.0
H888 H 0.30445 0.71532 0.78859 0.0
C889 C 0.26524 0.63933 0.79781 0.0
C890 C 0.27136 0.6501 0.76938 0.0
H891 H 0.2659 0.64793 0.84425 0.0
H892 H 0.25363 0.61858 0.8009 0.0
C893 C 0.28662 0.67715 0.76638 0.0
C894 C 0.58931 0.04097 0.03204 0.0
C895 C 0.61825 0.02995 0.03543 0.0
H896 H 0.55017 0.05692 0.05358 0.0
C897 C 0.63138 0.03072 0.06356 0.0
H898 H 0.57863 0.04083 0.01058 0.0
C899 C 0.61508 0.04002 0.08815 0.0
C900 C 0.58533 0.04877 0.08511 0.0
H901 H 0.65367 0.02255 0.06687 0.0
H902 H 0.62526 0.03868 0.10981 0.0
C903 C 0.573 0.05032 0.05665 0.0
C904 C 0.22355 0.64133 0.16943 0.0
C905 C 0.21038 0.66906 0.17447 0.0
H906 H 0.24409 0.60311 0.18844 0.0
C907 C 0.20431 0.67776 0.20363 0.0
H908 H 0.22834 0.63401 0.14711 0.0
C909 C 0.2137 0.66016 0.22738 0.0
C910 C 0.22893 0.63345 0.2223 0.0
H911 H 0.19431 0.69907 0.20813 0.0
H912 H 0.21048 0.66827 0.24969 0.0
C913 C 0.23255 0.62359 0.1931 0.0
C914 C 0.596 0.96972 0.46921 0.0
C915 C 0.62307 0.98483 0.46601 0.0
H916 H 0.55791 0.95145 0.44745 0.0
C917 C 0.63423 0.98972 0.43746 0.0
H918 H 0.58686 0.96554 0.49096 0.0
C919 C 0.61757 0.98181 0.41263 0.0
C920 C 0.58954 0.96861 0.41582 0.0
H921 H 0.65503 1.00122 0.43424 0.0
H922 H 0.62604 0.98737 0.3909 0.0
C923 C 0.57943 0.96155 0.44431 0.0
C924 C 0.28084 0.35831 0.66674 0.0
C925 C 0.29426 0.33022 0.6669 0.0
H926 H 0.26331 0.39399 0.69247 0.0
C927 C 0.30403 0.31833 0.69386 0.0
H928 H 0.27329 0.36814 0.64622 0.0
C929 C 0.29817 0.33313 0.72041 0.0
C930 C 0.28265 0.36014 0.72039 0.0
H931 H 0.31446 0.29677 0.69463 0.0
H932 H 0.30434 0.3226 0.74103 0.0
C933 C 0.27519 0.37318 0.69323 0.0
C934 C 0.91304 0.04204 0.97087 0.0
C935 C 0.88494 0.02877 0.96848 0.0
H936 H 0.95176 0.05741 0.94798 0.0
C937 C 0.87267 0.02467 0.94026 0.0
H938 H 0.92306 0.04557 0.99235 0.0
C939 C 0.88913 0.03134 0.91495 0.0
C940 C 0.91813 0.04243 0.91732 0.0
H941 H 0.85105 0.01462 0.93765 0.0
H942 H 0.87969 0.02632 0.8935 0.0
C943 C 0.92948 0.04891 0.94548 0.0
C944 C 0.33818 0.2151 0.36683 0.0
C945 C 0.33423 0.20812 0.33675 0.0
H946 H 0.31811 0.23071 0.40688 0.0
C947 C 0.30539 0.20758 0.32518 0.0
H948 H 0.36013 0.21566 0.37645 0.0
C949 C 0.28133 0.2162 0.34265 0.0
C950 C 0.28561 0.22557 0.37202 0.0
H951 H 0.30161 0.20228 0.30212 0.0
H952 H 0.2596 0.21715 0.33257 0.0
C953 C 0.3141 0.22377 0.3843 0.0
C954 C 0.03962 0.03561 0.59896 0.0
C955 C 0.02531 0.03991 0.62629 0.0
H956 H 0.0574 0.05588 0.55987 0.0
C957 C 0.02175 0.06887 0.63693 0.0
H958 H 0.0428 0.01351 0.59024 0.0
C959 C 0.02995 0.09306 0.61946 0.0
C960 C 0.04214 0.08879 0.59114 0.0
H961 H 0.01091 0.07293 0.6579 0.0
H962 H 0.02526 0.11516 0.62748 0.0
C963 C 0.0481 0.05985 0.58159 0.0
C964 C 0.16323 0.77471 0.86707 0.0
C965 C 0.16474 0.79323 0.84209 0.0
H966 H 0.18707 0.75249 0.90145 0.0
C967 C 0.19165 0.80718 0.83532 0.0
H968 H 0.14267 0.76389 0.87301 0.0
C969 C 0.21718 0.80053 0.85161 0.0
C970 C 0.21614 0.78004 0.87507 0.0
H971 H 0.19344 0.8216 0.81626 0.0
H972 H 0.23807 0.81003 0.84464 0.0
C973 C 0.18864 0.76829 0.88349 0.0
C974 C 0.4867 0.94266 0.132 0.0
C975 C 0.48072 0.9716 0.12247 0.0
H976 H 0.48514 0.89651 0.12157 0.0
C977 C 0.46436 0.97575 0.09627 0.0
H978 H 0.49917 0.93871 0.15207 0.0
C979 C 0.45599 0.95147 0.07888 0.0
C980 C 0.46422 0.92273 0.08726 0.0
H981 H 0.45934 0.99784 0.08842 0.0
H982 H 0.44489 0.95534 0.058 0.0
C983 C 0.47872 0.9185 0.11446 0.0
C984 C 0.29429 0.80254 0.19353 0.0
C985 C 0.32241 0.80594 0.18075 0.0
H986 H 0.24947 0.78856 0.18742 0.0
C987 C 0.32562 0.80137 0.15012 0.0
H988 H 0.29111 0.80589 0.21704 0.0
C989 C 0.30183 0.79103 0.13317 0.0
C990 C 0.27432 0.78537 0.14648 0.0
H991 H 0.34703 0.80374 0.1396 0.0
H992 H 0.30544 0.78594 0.11004 0.0
C993 C 0.27046 0.79249 0.17653 0.0
C994 C 0.48491 0.06916 0.36858 0.0
C995 C 0.48126 0.04045 0.37985 0.0
H996 H 0.48145 0.11564 0.37698 0.0
C997 C 0.46687 0.03673 0.40722 0.0
H998 H 0.49581 0.07275 0.34754 0.0
C999 C 0.4584 0.06132 0.42403 0.0
C1000 C 0.46444 0.09004 0.41384 0.0
H1001 H 0.4636 0.01483 0.41641 0.0
H1002 H 0.44901 0.05782 0.44579 0.0
C1003 C 0.47671 0.09372 0.38548 0.0
C1004 C 0.16491 0.21607 0.631 0.0
C1005 C 0.16894 0.20327 0.6591 0.0
H1006 H 0.18527 0.23708 0.59369 0.0
C1007 C 0.19786 0.19813 0.66922 0.0
H1008 H 0.14285 0.2202 0.62255 0.0
C1009 C 0.22217 0.20806 0.65275 0.0
C1010 C 0.218 0.22306 0.62578 0.0
H1011 H 0.20166 0.1884 0.69079 0.0
H1012 H 0.24414 0.20547 0.66198 0.0
C1013 C 0.18921 0.22576 0.61444 0.0
C1014 C 0.02516 0.91114 0.8887 0.0
C1015 C 0.03871 0.91529 0.9164 0.0
H1016 H 0.00575 0.93153 0.85061 0.0
C1017 C 0.04666 0.944 0.92512 0.0
H1018 H 0.01895 0.88918 0.88134 0.0
C1019 C 0.03879 0.96835 0.90761 0.0
C1020 C 0.02318 0.9643 0.88096 0.0
H1021 H 0.05703 0.94782 0.94638 0.0
H1022 H 0.04349 0.9904 0.91574 0.0
C1023 C 0.01764 0.93539 0.87106 0.0
C1024 C 0.32612 0.31185 0.21186 0.0
C1025 C 0.33704 0.34019 0.21833 0.0
H1026 H 0.33308 0.26506 0.21557 0.0
C1027 C 0.36587 0.34301 0.22974 0.0
H1028 H 0.30396 0.30903 0.20314 0.0
C1029 C 0.38257 0.31795 0.23672 0.0
C1030 C 0.37069 0.28955 0.23266 0.0
H1031 H 0.37495 0.36463 0.23476 0.0
H1032 H 0.40404 0.3209 0.24698 0.0
C1033 C 0.34278 0.2867 0.21908 0.0
C1034 C 0.8223 0.19963 0.79901 0.0
C1035 C 0.83363 0.17094 0.79544 0.0
H1036 H 0.82919 0.24601 0.79201 0.0
C1037 C 0.86298 0.16748 0.78558 0.0
H1038 H 0.79978 0.20299 0.80651 0.0
C1039 C 0.87985 0.19208 0.77729 0.0
C1040 C 0.86766 0.22062 0.77857 0.0
H1041 H 0.87239 0.14562 0.78271 0.0
H1042 H 0.90178 0.18856 0.76827 0.0
C1043 C 0.83914 0.22425 0.79058 0.0
C1044 C 0.05849 0.63768 0.03663 0.0
C1045 C 0.0304 0.62493 0.03289 0.0
H1046 H 0.10334 0.63117 0.05042 0.0
C1047 C 0.0251 0.59655 0.04461 0.0
H1048 H 0.0632 0.65957 0.02807 0.0
C1049 C 0.04806 0.58026 0.05751 0.0
C1050 C 0.07678 0.59205 0.05896 0.0
H1051 H 1.00359 0.5862 0.04231 0.0
H1052 H 0.04375 0.55774 0.06448 0.0
C1053 C 0.08145 0.62141 0.04958 0.0
C1054 C 0.63094 0.81097 0.28319 0.0
C1055 C 0.64442 0.78315 0.28008 0.0
H1056 H 0.63695 0.85696 0.29292 0.0
C1057 C 0.67418 0.77983 0.28866 0.0
H1058 H 0.60803 0.81419 0.27691 0.0
C1059 C 0.69079 0.80432 0.29774 0.0
C1060 C 0.67794 0.83259 0.29859 0.0
H1061 H 0.68518 0.75863 0.2867 0.0
H1062 H 0.71413 0.80139 0.30237 0.0
C1063 C 0.64753 0.83545 0.29246 0.0
C1064 C 0.94198 0.87704 0.03415 0.0
C1065 C 0.97036 0.88915 0.03043 0.0
H1066 H 0.89651 0.88532 0.0447 0.0
C1067 C 0.97528 0.91875 0.03876 0.0
H1068 H 0.93753 0.85428 0.02808 0.0
C1069 C 0.95181 0.93656 0.04823 0.0
C1070 C 0.92297 0.9251 0.04969 0.0
H1071 H 0.99696 0.9287 0.03636 0.0
H1072 H 0.95598 0.95974 0.05267 0.0
C1073 C 0.9185 0.89483 0.04378 0.0
C1074 C 0.18022 0.71553 0.69809 0.0
C1075 C 0.16833 0.6871 0.69406 0.0
H1076 H 0.17379 0.75898 0.71578 0.0
C1077 C 0.13844 0.68217 0.70141 0.0
H1078 H 0.20315 0.72006 0.69271 0.0
C1079 C 0.12165 0.70442 0.71496 0.0
C1080 C 0.13438 0.73206 0.72125 0.0
H1081 H 0.1286 0.66049 0.69863 0.0
H1082 H 0.09928 0.69941 0.72197 0.0
C1083 C 0.16341 0.73779 0.71151 0.0
C1084 C 0.0678 0.37012 0.48497 0.0
C1085 C 0.03916 0.38154 0.4813 0.0
H1086 H 0.11433 0.37806 0.48096 0.0
C1087 C 0.03558 0.40865 0.46633 0.0
H1088 H 0.0713 0.34928 0.49629 0.0
C1089 C 0.06028 0.42508 0.45729 0.0
C1090 C 0.08895 0.41478 0.46331 0.0
H1091 H 0.01373 0.41795 0.46305 0.0
H1092 H 0.05692 0.44669 0.44748 0.0
C1093 C 0.09245 0.38664 0.47619 0.0
C1094 C 0.47008 0.56404 0.96095 0.0
C1095 C 0.44076 0.57338 0.96497 0.0
H1096 H 0.51596 0.57375 0.96838 0.0
C1097 C 0.43538 0.60191 0.97615 0.0
H1098 H 0.47481 0.54214 0.95244 0.0
C1099 C 0.45876 0.62006 0.98498 0.0
C1100 C 0.48802 0.6099 0.98315 0.0
H1101 H 0.41294 0.60979 0.97924 0.0
H1102 H 0.45375 0.64135 0.99477 0.0
C1103 C 0.49357 0.58212 0.97016 0.0
C1104 C 0.72648 0.86894 0.84102 0.0
C1105 C 0.71487 0.84018 0.83827 0.0
H1106 H 0.74374 0.90708 0.81883 0.0
C1107 C 0.70808 0.82939 0.80996 0.0
H1108 H 0.73177 0.87794 0.8626 0.0
C1109 C 0.71513 0.84609 0.7848 0.0
C1110 C 0.72889 0.87393 0.78756 0.0
H1111 H 0.69918 0.80731 0.80717 0.0
H1112 H 0.71133 0.83648 0.76319 0.0
C1113 C 0.73332 0.88569 0.81594 0.0
C1114 C 0.39897 0.47455 0.08938 0.0
C1115 C 0.42659 0.4602 0.08894 0.0
H1116 H 0.3635 0.4931 0.06403 0.0
C1117 C 0.43778 0.44994 0.06187 0.0
H1118 H 0.38967 0.48252 0.10999 0.0
C1119 C 0.4228 0.45616 0.03548 0.0
C1120 C 0.3963 0.47254 0.03576 0.0
H1121 H 0.45899 0.43882 0.06087 0.0
H1122 H 0.43284 0.44955 0.01476 0.0
C1123 C 0.3839 0.48056 0.06306 0.0
C1124 C 0.79999 0.17794 0.31165 0.0
C1125 C 0.79441 0.16735 0.3403 0.0
H1126 H 0.7945 0.17075 0.26513 0.0
C1127 C 0.78246 0.13879 0.34373 0.0
H1128 H 0.8091 0.19987 0.30832 0.0
C1129 C 0.77425 0.12204 0.31906 0.0
C1130 C 0.77757 0.13362 0.29044 0.0
H1131 H 0.77804 0.12996 0.36558 0.0
H1132 H 0.76368 0.1008 0.32251 0.0
C1133 C 0.79152 0.16128 0.28693 0.0
C1134 C 0.0749 0.54968 0.54972 0.0
C1135 C 0.08535 0.5472 0.57883 0.0
H1136 H 0.08302 0.54034 0.50396 0.0
C1137 C 0.11443 0.53713 0.58361 0.0
H1138 H 0.05257 0.55727 0.5454 0.0
C1139 C 0.1319 0.52755 0.55997 0.0
C1140 C 0.12054 0.52762 0.53109 0.0
H1141 H 0.12316 0.53514 0.60584 0.0
H1142 H 0.15358 0.51842 0.56459 0.0
C1143 C 0.09232 0.53985 0.52603 0.0
C1144 C 0.70528 0.18089 0.69842 0.0
C1145 C 0.71041 0.1702 0.66973 0.0
H1146 H 0.71079 0.17343 0.7449 0.0
C1147 C 0.72129 0.14124 0.66619 0.0
H1148 H 0.69697 0.20311 0.70183 0.0
C1149 C 0.7291 0.12419 0.69079 0.0
C1150 C 0.72638 0.13585 0.71942 0.0
H1151 H 0.72531 0.13233 0.64431 0.0
H1152 H 0.73896 0.10264 0.68725 0.0
C1153 C 0.7133 0.1639 0.72306 0.0
C1154 C 0.06644 0.46337 0.96589 0.0
C1155 C 0.07625 0.47003 0.93722 0.0
H1156 H 0.07476 0.46783 0.01241 0.0
C1157 C 0.10424 0.48311 0.93343 0.0
H1158 H 0.04496 0.4533 0.96936 0.0
C1159 C 0.1214 0.491 0.95782 0.0
C1160 C 0.11077 0.48639 0.98658 0.0
H1161 H 0.1125 0.4882 0.91152 0.0
H1162 H 0.14229 0.50217 0.95407 0.0
C1163 C 0.0835 0.47171 0.99044 0.0
C1164 C 0.77327 0.88695 0.1881 0.0
C1165 C 0.77922 0.87592 0.21651 0.0
H1166 H 0.77449 0.8788 0.14152 0.0
C1167 C 0.79527 0.84936 0.21929 0.0
H1168 H 0.76107 0.90738 0.1852 0.0
C1169 C 0.80314 0.83299 0.19418 0.0
C1170 C 0.79489 0.84285 0.16591 0.0
H1171 H 0.80029 0.84035 0.24092 0.0
H1172 H 0.81389 0.81176 0.19703 0.0
C1173 C 0.78093 0.87052 0.16307 0.0
C1174 C 0.41245 0.54145 0.46709 0.0
C1175 C 0.38476 0.52781 0.46273 0.0
H1176 H 0.452 0.5583 0.44687 0.0
C1177 C 0.37402 0.52456 0.4338 0.0
H1178 H 0.42124 0.54439 0.48918 0.0
C1179 C 0.39168 0.5324 0.40966 0.0
C1180 C 0.4203 0.54388 0.41398 0.0
H1181 H 0.35275 0.51427 0.42971 0.0
H1182 H 0.38352 0.52796 0.38757 0.0
C1183 C 0.43004 0.54955 0.4429 0.0
C1184 C 0.78753 0.71914 0.8452 0.0
C1185 C 0.79183 0.73403 0.87221 0.0
H1186 H 0.80777 0.70138 0.80608 0.0
C1187 C 0.82082 0.73874 0.88232 0.0
H1188 H 0.7654 0.71508 0.83691 0.0
C1189 C 0.84495 0.73111 0.8646 0.0
C1190 C 0.8406 0.7183 0.83659 0.0
H1191 H 0.82486 0.75005 0.90306 0.0
H1192 H 0.86702 0.73667 0.87217 0.0
C1193 C 0.81175 0.71117 0.82759 0.0
C1194 C 0.55016 0.52888 0.09977 0.0
C1195 C 0.5364 0.53341 0.12735 0.0
H1196 H 0.56924 0.54897 0.06121 0.0
C1197 C 0.53552 0.56214 0.1391 0.0
H1198 H 0.55133 0.50693 0.09022 0.0
C1199 C 0.54573 0.58615 0.12246 0.0
C1200 C 0.55722 0.58189 0.09385 0.0
H1201 H 0.52523 0.56634 0.16032 0.0
H1202 H 0.54296 0.60826 0.1313 0.0
C1203 C 0.56059 0.55292 0.0832 0.0
C1204 C 0.66913 0.28358 0.37145 0.0
C1205 C 0.67243 0.29413 0.34235 0.0
H1206 H 0.69043 0.26548 0.40972 0.0
C1207 C 0.70106 0.29827 0.33103 0.0
H1208 H 0.64731 0.2803 0.38084 0.0
C1209 C 0.72579 0.2896 0.34757 0.0
C1210 C 0.72232 0.27682 0.37576 0.0
H1211 H 0.70429 0.30631 0.30869 0.0
H1212 H 0.74751 0.29138 0.33758 0.0
C1213 C 0.69383 0.27509 0.38803 0.0
C1214 C 0.96499 0.47575 0.58894 0.0
C1215 C 0.97794 0.47405 0.61721 0.0
H1216 H 0.94894 0.45188 0.55119 0.0
C1217 C 0.9808 0.44624 0.63074 0.0
H1218 H 0.96236 0.49691 0.57798 0.0
C1219 C 0.9732 0.4205 0.61536 0.0
C1220 C 0.9624 0.42207 0.58621 0.0
H1221 H 0.99057 0.44419 0.65252 0.0
H1222 H 0.97729 0.39928 0.62574 0.0
C1223 C 0.9572 0.44998 0.5736 0.0
C1224 C 0.80583 0.30024 0.6824 0.0
C1225 C 0.83464 0.29673 0.67133 0.0
H1226 H 0.75954 0.29291 0.67519 0.0
C1227 C 0.83838 0.2868 0.64207 0.0
H1228 H 0.80225 0.30777 0.70486 0.0
C1229 C 0.81396 0.27832 0.62505 0.0
C1230 C 0.78532 0.27946 0.63701 0.0
H1231 H 0.86034 0.28399 0.63286 0.0
H1232 H 0.81772 0.26923 0.60321 0.0
C1233 C 0.78138 0.2916 0.66542 0.0
C1234 C 0.95272 0.56167 0.92692 0.0
C1235 C 0.96409 0.58893 0.91731 0.0
H1236 H 0.95213 0.51468 0.92049 0.0
C1237 C 0.98009 0.59005 0.89065 0.0
H1238 H 0.94033 0.56017 0.94737 0.0
C1239 C 0.98663 0.56414 0.87513 0.0
C1240 C 0.97757 0.53653 0.88613 0.0
H1241 H 0.98891 0.61084 0.88256 0.0
H1242 H 1.00046 0.56561 0.85561 0.0
C1243 C 0.95953 0.53564 0.91151 0.0
C1244 C 0.67137 0.72472 0.13917 0.0
C1245 C 0.6759 0.71342 0.16781 0.0
H1246 H 0.69098 0.74379 0.10049 0.0
C1247 C 0.70497 0.70906 0.17783 0.0
H1248 H 0.64916 0.72818 0.1308 0.0
C1249 C 0.72898 0.71829 0.16051 0.0
C1250 C 0.72429 0.73175 0.1328 0.0
H1251 H 0.7091 0.7005 0.19983 0.0
H1252 H 0.75111 0.71638 0.16953 0.0
C1253 C 0.69533 0.73366 0.12177 0.0
C1254 C 0.53076 0.44219 0.3728 0.0
C1255 C 0.53086 0.47089 0.38469 0.0
H1256 H 0.53695 0.39595 0.38103 0.0
C1257 C 0.54163 0.47511 0.4136 0.0
H1258 H 0.52271 0.43822 0.35058 0.0
C1259 C 0.5499 0.4509 0.43106 0.0
C1260 C 0.54745 0.42199 0.41996 0.0
H1261 H 0.54213 0.49701 0.42334 0.0
H1262 H 0.55637 0.4547 0.45381 0.0
C1263 C 0.53894 0.41798 0.39028 0.0
C1264 C 0.82091 0.80784 0.70627 0.0
C1265 C 0.83251 0.83667 0.70601 0.0
H1266 H 0.82842 0.76227 0.71668 0.0
C1267 C 0.86269 0.84078 0.71259 0.0
H1268 H 0.79779 0.80394 0.70129 0.0
C1269 C 0.88026 0.8169 0.72164 0.0
C1270 C 0.86799 0.78846 0.72416 0.0
H1271 H 0.87232 0.86274 0.71257 0.0
H1272 H 0.90294 0.82104 0.72823 0.0
C1273 C 0.83849 0.78398 0.7152 0.0
C1274 C 0.32654 0.69765 0.30261 0.0
C1275 C 0.33769 0.66981 0.29455 0.0
H1276 H 0.332 0.7447 0.29987 0.0
C1277 C 0.36568 0.66816 0.28101 0.0
H1278 H 0.30504 0.6996 0.31303 0.0
C1279 C 0.38113 0.69389 0.27353 0.0
C1280 C 0.36886 0.72182 0.27932 0.0
H1281 H 0.37496 0.64697 0.27472 0.0
H1282 H 0.40185 0.69186 0.26164 0.0
C1283 C 0.34197 0.72346 0.29499 0.0
C1284 C 0.56365 0.13535 0.5273 0.0
C1285 C 0.5354 0.12247 0.52604 0.0
H1286 H 0.60981 0.12869 0.53565 0.0
C1287 C 0.53165 0.0934 0.5366 0.0
H1288 H 0.56723 0.15772 0.51947 0.0
C1289 C 0.55603 0.07673 0.54592 0.0
C1290 C 0.58464 0.08882 0.54485 0.0
H1291 H 0.51009 0.0829 0.53608 0.0
H1292 H 0.55269 0.05382 0.55215 0.0
C1293 C 0.58803 0.11868 0.53662 0.0
C1294 C 0.15215 0.32276 0.78119 0.0
C1295 C 0.18092 0.31677 0.79142 0.0
H1296 H 0.11211 0.30538 0.76286 0.0
C1297 C 0.19014 0.28726 0.7941 0.0
H1298 H 0.14438 0.34536 0.77912 0.0
C1299 C 0.17166 0.26426 0.78445 0.0
C1300 C 0.1436 0.27049 0.77236 0.0
H1301 H 0.21224 0.28207 0.80183 0.0
H1302 H 0.17992 0.24177 0.78514 0.0
C1303 C 0.13361 0.29986 0.77193 0.0
C1304 C 0.44597 0.43223 0.54586 0.0
C1305 C 0.41756 0.42146 0.53941 0.0
H1306 H 0.49272 0.42496 0.54228 0.0
C1307 C 0.41458 0.39257 0.5282 0.0
H1308 H 0.44891 0.45443 0.55442 0.0
C1309 C 0.43955 0.37564 0.52142 0.0
C1310 C 0.46802 0.38738 0.52544 0.0
H1311 H 0.3929 0.38361 0.52318 0.0
H1312 H 0.43648 0.35413 0.51131 0.0
C1313 C 0.47102 0.41537 0.5388 0.0
C1314 C 0.66503 0.22322 0.22086 0.0
C1315 C 0.63685 0.21956 0.23366 0.0
H1316 H 0.70393 0.20194 0.20387 0.0
C1317 C 0.62464 0.19104 0.23521 0.0
H1318 H 0.67497 0.24497 0.21922 0.0
C1319 C 0.64125 0.16646 0.22647 0.0
C1320 C 0.67033 0.16992 0.21585 0.0
H1321 H 0.60296 0.18751 0.24482 0.0
H1322 H 0.6319 0.1446 0.22958 0.0
C1323 C 0.6816 0.1986 0.21193 0.0
C1324 C 0.5621 0.87453 0.98056 0.0
C1325 C 0.5336 0.88639 0.97709 0.0
H1326 H 0.60874 0.88211 0.97729 0.0
C1327 C 0.53046 0.91412 0.9632 0.0
H1328 H 0.56526 0.85322 0.99105 0.0
C1329 C 0.55541 0.93069 0.95518 0.0
C1330 C 0.58393 0.91987 0.96105 0.0
H1331 H 0.50875 0.9238 0.96008 0.0
H1332 H 0.55234 0.95272 0.94625 0.0
C1333 C 0.58701 0.89114 0.97268 0.0
C1334 C 0.97664 0.08746 0.46926 0.0
C1335 C 0.97264 0.11726 0.47734 0.0
H1336 H 0.95607 0.0469 0.45587 0.0
C1337 C 0.9446 0.13014 0.47366 0.0
H1338 H 0.99804 0.07691 0.47167 0.0
C1339 C 0.92055 0.11294 0.46434 0.0
C1340 C 0.92409 0.0825 0.45871 0.0
H1341 H 0.94084 0.15307 0.47955 0.0
H1342 H 0.89884 0.12307 0.46345 0.0
C1343 C 0.9526 0.07024 0.46011 0.0
C1344 C 0.24074 0.39808 0.46076 0.0
C1345 C 0.21811 0.40582 0.48055 0.0
H1346 H 0.2632 0.3629 0.43845 0.0
C1347 C 0.20484 0.38358 0.49778 0.0
H1348 H 0.25122 0.41485 0.44719 0.0
C1349 C 0.21103 0.35377 0.49215 0.0
C1350 C 0.23127 0.34593 0.46995 0.0
H1351 H 0.18715 0.38894 0.51304 0.0
H1352 H 0.19807 0.3369 0.50322 0.0
C1353 C 0.24763 0.36832 0.45584 0.0
C1354 C 0.8824 0.99632 0.71004 0.0
C1355 C 0.90555 0.97919 0.72175 0.0
H1356 H 0.83548 1.0003 0.70428 0.0
C1357 C 0.89897 0.9574 0.74288 0.0
H1358 H 0.88686 0.01325 0.69366 0.0
C1359 C 0.86954 0.9504 0.74943 0.0
C1360 C 0.84634 0.96456 0.73429 0.0
H1361 H 0.91646 0.94396 0.75227 0.0
H1362 H 0.86517 0.93166 0.76373 0.0
C1363 C 0.85294 0.98884 0.71603 0.0
C1364 C 0.31267 0.63004 0.90709 0.0
C1365 C 0.3043 0.64913 0.93003 0.0
H1366 H 0.3264 0.58677 0.8946 0.0
C1367 C 0.30025 0.63766 0.95862 0.0
H1368 H 0.31525 0.63822 0.88469 0.0
C1369 C 0.30706 0.60784 0.96451 0.0
C1370 C 0.31739 0.58928 0.94168 0.0
H1371 H 0.2935 0.65202 0.97657 0.0
H1372 H 0.30579 0.5998 0.98704 0.0
C1373 C 0.31884 0.60046 0.91276 0.0
C1374 C 0.65171 0.01759 0.20971 0.0
C1375 C 0.65846 0.03989 0.23023 0.0
H1376 H 0.61771 0.99567 0.18508 0.0
C1377 C 0.63534 0.05298 0.24638 0.0
H1378 H 0.66916 0.00715 0.19702 0.0
C1379 C 0.60586 0.04704 0.23899 0.0
C1380 C 0.59915 0.02735 0.21593 0.0
H1381 H 0.6399 0.07031 0.26229 0.0
H1382 H 0.58849 0.05981 0.24945 0.0
C1383 C 0.62221 0.011 0.20294 0.0
C1384 C 0.19885 0.65502 0.02637 0.0
C1385 C 0.22021 0.66248 0.04762 0.0
H1386 H 0.17356 0.62033 0.00644 0.0
C1387 C 0.23719 0.63988 0.06056 0.0
H1388 H 0.18538 0.67208 0.01624 0.0
C1389 C 0.22981 0.6102 0.0557 0.0
C1390 C 0.20598 0.60283 0.03717 0.0
H1391 H 0.25358 0.64505 0.07728 0.0
H1392 H 0.24084 0.59325 0.06858 0.0
C1393 C 0.19211 0.62534 0.02079 0.0
C1394 C 0.63485 0.94574 0.25699 0.0
C1395 C 0.6583 0.96089 0.27074 0.0
H1396 H 0.58797 0.93856 0.25588 0.0
C1397 C 0.65191 0.98592 0.28802 0.0
H1398 H 0.63906 0.92641 0.24347 0.0
C1399 C 0.62253 0.99333 0.29447 0.0
C1400 C 0.59929 0.97538 0.28426 0.0
H1401 H 0.66956 0.99815 0.29867 0.0
H1402 H 0.6183 0.01097 0.31012 0.0
C1403 C 0.60554 0.95266 0.26407 0.0
C1404 C 0.30231 0.38576 0.50798 0.0
C1405 C 0.28926 0.40863 0.52451 0.0
H1406 H 0.30876 0.33892 0.50384 0.0
C1407 C 0.26731 0.40157 0.54531 0.0
H1408 H 0.31951 0.3906 0.492 0.0
C1409 C 0.26054 0.37199 0.55145 0.0
C1410 C 0.27637 0.34909 0.53759 0.0
H1411 H 0.25707 0.41883 0.55841 0.0
H1412 H 0.24523 0.36716 0.56926 0.0
C1413 C 0.29625 0.35618 0.51481 0.0
C1414 C 0.89724 0.04786 0.7659 0.0
C1415 C 0.9039 0.02664 0.78757 0.0
H1416 H 0.86333 0.073 0.74448 0.0
C1417 C 0.88076 0.01009 0.80013 0.0
H1418 H 0.91472 0.06089 0.75591 0.0
C1419 C 0.8513 0.01759 0.79426 0.0
C1420 C 0.84467 0.04109 0.77506 0.0
H1421 H 0.8853 0.99369 0.81702 0.0
H1422 H 0.83385 0.00674 0.80663 0.0
C1423 C 0.86779 0.05471 0.75933 0.0
C1424 C 0.49583 0.20958 0.38364 0.0
C1425 C 0.47925 0.22124 0.40719 0.0
H1426 H 0.49889 0.20439 0.33663 0.0
C1427 C 0.4581 0.2432 0.4013 0.0
H1428 H 0.51232 0.19262 0.38756 0.0
C1429 C 0.45082 0.25039 0.37211 0.0
C1430 C 0.46409 0.23511 0.34851 0.0
H1431 H 0.44514 0.25264 0.41911 0.0
H1432 H 0.43238 0.26522 0.36825 0.0
C1433 C 0.48807 0.21623 0.35443 0.0
C1434 C 0.04377 0.23927 0.60438 0.0
C1435 C 0.02348 0.21697 0.59688 0.0
H1436 H 0.06892 0.25949 0.63901 0.0
C1437 C 0.00729 0.20308 0.61952 0.0
H1438 H 0.05645 0.25036 0.58731 0.0
C1439 C 0.01506 0.20763 0.64911 0.0
C1440 C 0.0384 0.2268 0.65636 0.0
H1441 H 0.9915 0.18578 0.61438 0.0
H1442 H 0.00499 0.19386 0.66596 0.0
C1443 C 0.05087 0.2445 0.63404 0.0
C1444 C 0.04447 0.76639 0.90226 0.0
C1445 C 0.02397 0.78844 0.9099 0.0
H1446 H 0.06847 0.74533 0.86727 0.0
C1447 C 0.00734 0.80203 0.88742 0.0
H1448 H 0.05766 0.75574 0.91921 0.0
C1449 C 0.01418 0.7968 0.85771 0.0
C1450 C 0.03701 0.77717 0.85012 0.0
H1451 H 0.99158 0.81931 0.89269 0.0
H1452 H 1.00348 0.81004 0.84082 0.0
C1453 C 0.05059 0.76042 0.87251 0.0
C1454 C 0.48064 0.80101 0.12038 0.0
C1455 C 0.46072 0.79445 0.09745 0.0
H1456 H 0.48772 0.80153 0.16732 0.0
C1457 C 0.43572 0.77712 0.1036 0.0
H1458 H 0.49998 0.81456 0.11618 0.0
C1459 C 0.42914 0.76897 0.13266 0.0
C1460 C 0.44696 0.77892 0.15613 0.0
H1461 H 0.42004 0.77185 0.08624 0.0
H1462 H 0.40843 0.75766 0.13693 0.0
C1463 C 0.47359 0.79363 0.14965 0.0
C1464 C 0.38791 0.49605 0.20515 0.0
C1465 C 0.41055 0.47959 0.21871 0.0
H1466 H 0.34108 0.50067 0.19875 0.0
C1467 C 0.40328 0.46008 0.24175 0.0
H1468 H 0.39291 0.5111 0.18717 0.0
C1469 C 0.37364 0.45484 0.24901 0.0
C1470 C 0.3509 0.46833 0.23264 0.0
H1471 H 0.42035 0.44713 0.25249 0.0
H1472 H 0.36859 0.4378 0.2651 0.0
C1473 C 0.35824 0.49007 0.21172 0.0
C1474 C 0.77124 0.90413 0.03891 0.0
C1475 C 0.79583 0.9108 0.02108 0.0
H1476 H 0.74707 0.87023 0.06158 0.0
C1477 C 0.8106 0.88757 0.00661 0.0
H1478 H 0.75927 0.92162 0.0501 0.0
C1479 C 0.80403 0.85818 0.01367 0.0
C1480 C 0.78207 0.85164 0.03462 0.0
H1481 H 0.82953 0.89198 0.99258 0.0
H1482 H 0.81801 0.84077 0.00495 0.0
C1483 C 0.76418 0.87467 0.04539 0.0
C1484 C 0.1315 0.57406 0.73358 0.0
C1485 C 0.15464 0.55924 0.71903 0.0
H1486 H 0.08456 0.58014 0.73663 0.0
C1487 C 0.14814 0.53381 0.7024 0.0
H1488 H 0.13585 0.59379 0.74648 0.0
C1489 C 0.11872 0.52549 0.69749 0.0
C1490 C 0.09552 0.54302 0.70847 0.0
H1491 H 0.1656 0.52199 0.691 0.0
H1492 H 0.11426 0.50757 0.68221 0.0
C1493 C 0.10209 0.56627 0.72797 0.0
C1494 C 0.70095 0.88697 0.99722 0.0
C1495 C 0.71436 0.9104 0.98176 0.0
H1496 H 0.69521 0.83995 0.99998 0.0
C1497 C 0.7382 0.90426 0.96282 0.0
H1498 H 0.68244 0.89107 0.01188 0.0
C1499 C 0.74612 0.87496 0.95673 0.0
C1500 C 0.72961 0.85151 0.96876 0.0
H1501 H 0.74892 0.92197 0.9507 0.0
H1502 H 0.76269 0.87081 0.93992 0.0
C1503 C 0.7082 0.85768 0.99039 0.0
C1504 C 0.80421 0.15241 0.49347 0.0
C1505 C 0.78224 0.1587 0.47246 0.0
H1506 H 0.82971 0.11884 0.51491 0.0
C1507 C 0.76434 0.13555 0.46195 0.0
H1508 H 0.81818 0.16992 0.50201 0.0
C1509 C 0.7714 0.10617 0.46873 0.0
C1510 C 0.79598 0.09971 0.48663 0.0
H1511 H 0.74719 0.13981 0.44575 0.0
H1512 H 0.75939 0.08856 0.45775 0.0
C1513 C 0.81078 0.12309 0.50084 0.0
C1514 C 0.70757 0.15552 0.51672 0.0
C1515 C 0.72837 0.16173 0.53893 0.0
H1516 H 0.68302 0.12206 0.49398 0.0
C1517 C 0.7453 0.13842 0.55065 0.0
H1518 H 0.69434 0.17313 0.50725 0.0
C1519 C 0.73828 0.10907 0.54367 0.0
C1520 C 0.71485 0.10276 0.52425 0.0
H1521 H 0.7615 0.14256 0.56782 0.0
H1522 H 0.74932 0.09137 0.55549 0.0
C1523 C 0.70114 0.12622 0.50911 0.0
C1524 C 0.12682 0.44757 0.84724 0.0
C1525 C 0.10701 0.45282 0.82397 0.0
H1526 H 0.17079 0.43653 0.86006 0.0
C1527 C 0.11775 0.4545 0.7949 0.0
H1528 H 0.11906 0.44668 0.86992 0.0
C1529 C 0.14771 0.4483 0.78909 0.0
C1530 C 0.16702 0.44081 0.81242 0.0
H1531 H 0.10276 0.45871 0.77669 0.0
H1532 H 0.15523 0.44748 0.76637 0.0
C1533 C 0.1565 0.44193 0.84158 0.0
C1534 C 0.35983 0.51732 0.29581 0.0
C1535 C 0.35212 0.53998 0.27602 0.0
H1536 H 0.39495 0.49485 0.31824 0.0
C1537 C 0.37445 0.55342 0.25903 0.0
H1538 H 0.34301 0.50665 0.30916 0.0
C1539 C 0.40425 0.54733 0.26485 0.0
C1540 C 0.41203 0.527 0.28701 0.0
H1541 H 0.36911 0.5711 0.24374 0.0
H1542 H 0.42115 0.56036 0.25391 0.0
C1543 C 0.3896 0.51052 0.3009 0.0
C1544 C 0.95981 0.74068 0.89617 0.0
C1545 C 0.97958 0.71786 0.90342 0.0
H1546 H 0.93699 0.7636 0.86157 0.0
C1547 C 0.99594 0.70429 0.88075 0.0
H1548 H 0.94687 0.75138 0.91327 0.0
C1549 C 0.98963 0.71061 0.85109 0.0
C1550 C 0.96764 0.7313 0.8438 0.0
H1551 H 0.01112 0.68641 0.88574 0.0
H1552 H 1.00011 0.69755 0.83395 0.0
C1553 C 0.95426 0.74773 0.86655 0.0
C1554 C 0.52038 0.69984 0.12224 0.0
C1555 C 0.53786 0.71226 0.09971 0.0
H1556 H 0.51475 0.69454 0.16903 0.0
C1557 C 0.55751 0.73525 0.10679 0.0
H1558 H 0.5052 0.68192 0.1174 0.0
C1559 C 0.56223 0.74318 0.13632 0.0
C1560 C 0.5481 0.72744 0.15912 0.0
H1561 H 0.57127 0.7451 0.0898 0.0
H1562 H 0.57968 0.75884 0.14131 0.0
C1563 C 0.52583 0.70703 0.15183 0.0
C1564 C 0.51796 0.29626 0.35805 0.0
C1565 C 0.541 0.27623 0.35231 0.0
H1566 H 0.49455 0.32094 0.39093 0.0
C1567 C 0.55361 0.26055 0.37601 0.0
H1568 H 0.50779 0.3085 0.34013 0.0
C1569 C 0.54658 0.26819 0.40515 0.0
C1570 C 0.52633 0.29105 0.41088 0.0
H1571 H 0.57143 0.24497 0.37223 0.0
H1572 H 0.55905 0.25824 0.42305 0.0
C1573 C 0.51036 0.30332 0.38719 0.0
C1574 C 0.95245 0.26105 0.63885 0.0
C1575 C 0.96521 0.27733 0.66207 0.0
H1576 H 0.94666 0.25752 0.59191 0.0
C1577 C 0.98802 0.29742 0.65558 0.0
H1578 H 0.93476 0.24544 0.64318 0.0
C1579 C 0.9954 0.30373 0.62618 0.0
C1580 C 0.97942 0.29066 0.60293 0.0
H1581 H 0.99824 0.31021 0.67308 0.0
H1582 H 0.01112 0.3213 0.6218 0.0
C1583 C 0.95918 0.26801 0.60945 0.0
loop_
_geom_bond_atom_site_label_1
_geom_bond_atom_site_label_2
_geom_bond_distance
_geom_bond_site_symmetry_2
_ccdc_geom_bond_type
In0 O1 2.294 . S
In0 O2 2.326 . S
In0 O6 2.266 . S
In0 O7 2.326 . S
In0 O8 2.266 . S
In0 O9 2.326 . S
In0 O11 2.294 . S
In0 O12 2.326 . S
O1 In0 2.294 . S
O1 C10 1.240 . S
O2 In0 2.326 . S
O2 C10 1.252 . S
C3 O6 1.252 . S
C3 O7 1.260 . S
C4 O11 1.240 . S
C4 O12 1.252 . S
C5 O8 1.252 . S
C5 O9 1.260 . S
O6 In0 2.266 . S
O6 C3 1.252 . S
O7 In0 2.326 . S
O7 C3 1.260 . S
O8 In0 2.266 . S
O8 C5 1.252 . S
O9 In0 2.326 . S
O9 C5 1.260 . S
C10 O1 1.240 . S
C10 O2 1.252 . S
O11 In0 2.294 . S
O11 C4 1.240 . S
O12 In0 2.326 . S
O12 C4 1.252 . S
In13 O14 2.294 1_655 S
In13 O15 2.326 1_655 S
In13 O19 2.266 . S
In13 O20 2.326 . S
In13 O21 2.266 . S
In13 O22 2.326 1_655 S
In13 O24 2.294 . S
In13 O25 2.326 . S
O14 In13 2.294 1_455 S
O14 C23 1.240 . S
O15 In13 2.326 1_455 S
O15 C23 1.252 . S
C16 O19 1.252 . S
C16 O20 1.260 . S
C17 O24 1.240 . S
C17 O25 1.252 . S
C18 O21 1.252 1_455 S
C18 O22 1.260 . S
O19 In13 2.266 . S
O19 C16 1.252 . S
O20 In13 2.326 . S
O20 C16 1.260 . S
O21 In13 2.266 . S
O21 C18 1.252 1_655 S
O22 In13 2.326 1_455 S
O22 C18 1.260 . S
C23 O14 1.240 . S
C23 O15 1.252 . S
O24 In13 2.294 . S
O24 C17 1.240 . S
O25 In13 2.326 . S
O25 C17 1.252 . S
In26 O27 2.294 . S
In26 O28 2.326 . S
In26 O32 2.266 . S
In26 O33 2.326 . S
In26 O34 2.266 . S
In26 O35 2.326 . S
In26 O37 2.294 . S
In26 O38 2.326 . S
O27 In26 2.294 . S
O27 C36 1.240 . S
O28 In26 2.326 . S
O28 C36 1.252 . S
C29 O32 1.252 . S
C29 O33 1.260 . S
C30 O37 1.240 . S
C30 O38 1.252 . S
C31 O34 1.252 . S
C31 O35 1.260 . S
O32 In26 2.266 . S
O32 C29 1.252 . S
O33 In26 2.326 . S
O33 C29 1.260 . S
O34 In26 2.266 . S
O34 C31 1.252 . S
O35 In26 2.326 . S
O35 C31 1.260 . S
C36 O27 1.240 . S
C36 O28 1.252 . S
O37 In26 2.294 . S
O37 C30 1.240 . S
O38 In26 2.326 . S
O38 C30 1.252 . S
In39 O40 2.294 . S
In39 O41 2.326 . S
In39 O45 2.266 . S
In39 O46 2.326 . S
In39 O47 2.266 . S
In39 O48 2.326 . S
In39 O50 2.294 . S
In39 O51 2.326 . S
O40 In39 2.294 . S
O40 C49 1.240 . S
O41 In39 2.326 . S
O41 C49 1.252 . S
C42 O45 1.252 . S
C42 O46 1.260 . S
C43 O50 1.240 . S
C43 O51 1.252 . S
C44 O47 1.252 . S
C44 O48 1.260 . S
O45 In39 2.266 . S
O45 C42 1.252 . S
O46 In39 2.326 . S
O46 C42 1.260 . S
O47 In39 2.266 . S
O47 C44 1.252 . S
O48 In39 2.326 . S
O48 C44 1.260 . S
C49 O40 1.240 . S
C49 O41 1.252 . S
O50 In39 2.294 . S
O50 C43 1.240 . S
O51 In39 2.326 . S
O51 C43 1.252 . S
In52 O53 2.294 . S
In52 O54 2.326 . S
In52 O58 2.266 . S
In52 O59 2.326 . S
In52 O60 2.266 . S
In52 O61 2.326 . S
In52 O63 2.294 . S
In52 O64 2.326 . S
O53 In52 2.294 . S
O53 C62 1.240 . S
O54 In52 2.326 . S
O54 C62 1.252 . S
C55 O58 1.252 . S
C55 O59 1.260 . S
C56 O63 1.240 . S
C56 O64 1.252 . S
C57 O60 1.252 . S
C57 O61 1.260 . S
O58 In52 2.266 . S
O58 C55 1.252 . S
O59 In52 2.326 . S
O59 C55 1.260 . S
O60 In52 2.266 . S
O60 C57 1.252 . S
O61 In52 2.326 . S
O61 C57 1.260 . S
C62 O53 1.240 . S
C62 O54 1.252 . S
O63 In52 2.294 . S
O63 C56 1.240 . S
O64 In52 2.326 . S
O64 C56 1.252 . S
In65 O66 2.294 . S
In65 O67 2.326 . S
In65 O71 2.266 . S
In65 O72 2.326 . S
In65 O73 2.266 . S
In65 O74 2.326 . S
In65 O76 2.294 . S
In65 O77 2.326 . S
O66 In65 2.294 . S
O66 C75 1.240 . S
O67 In65 2.326 . S
O67 C75 1.252 . S
C68 O71 1.252 . S
C68 O72 1.260 . S
C69 O76 1.240 . S
C69 O77 1.252 . S
C70 O73 1.252 . S
C70 O74 1.260 . S
O71 In65 2.266 . S
O71 C68 1.252 . S
O72 In65 2.326 . S
O72 C68 1.260 . S
O73 In65 2.266 . S
O73 C70 1.252 . S
O74 In65 2.326 . S
O74 C70 1.260 . S
C75 O66 1.240 . S
C75 O67 1.252 . S
O76 In65 2.294 . S
O76 C69 1.240 . S
O77 In65 2.326 . S
O77 C69 1.252 . S
In78 O79 2.294 . S
In78 O80 2.326 . S
In78 O84 2.266 . S
In78 O85 2.326 . S
In78 O86 2.266 . S
In78 O87 2.326 . S
In78 O89 2.294 . S
In78 O90 2.326 . S
O79 In78 2.294 . S
O79 C88 1.240 . S
O80 In78 2.326 . S
O80 C88 1.252 . S
C81 O84 1.252 . S
C81 O85 1.260 . S
C82 O89 1.240 . S
C82 O90 1.252 . S
C83 O86 1.252 . S
C83 O87 1.260 . S
O84 In78 2.266 . S
O84 C81 1.252 . S
O85 In78 2.326 . S
O85 C81 1.260 . S
O86 In78 2.266 . S
O86 C83 1.252 . S
O87 In78 2.326 . S
O87 C83 1.260 . S
C88 O79 1.240 . S
C88 O80 1.252 . S
O89 In78 2.294 . S
O89 C82 1.240 . S
O90 In78 2.326 . S
O90 C82 1.252 . S
In91 O92 2.294 1_655 S
In91 O93 2.326 1_655 S
In91 O97 2.266 . S
In91 O98 2.326 . S
In91 O99 2.266 . S
In91 O100 2.326 1_655 S
In91 O102 2.294 . S
In91 O103 2.326 . S
O92 In91 2.294 1_455 S
O92 C101 1.240 . S
O93 In91 2.326 1_455 S
O93 C101 1.252 . S
C94 O97 1.252 . S
C94 O98 1.260 . S
C95 O102 1.240 . S
C95 O103 1.252 . S
C96 O99 1.252 1_455 S
C96 O100 1.260 . S
O97 In91 2.266 . S
O97 C94 1.252 . S
O98 In91 2.326 . S
O98 C94 1.260 . S
O99 In91 2.266 . S
O99 C96 1.252 1_655 S
O100 In91 2.326 1_455 S
O100 C96 1.260 . S
C101 O92 1.240 . S
C101 O93 1.252 . S
O102 In91 2.294 . S
O102 C95 1.240 . S
O103 In91 2.326 . S
O103 C95 1.252 . S
In104 O105 2.294 . S
In104 O106 2.326 . S
In104 O110 2.266 . S
In104 O111 2.326 . S
In104 O112 2.266 . S
In104 O113 2.326 . S
In104 O115 2.294 . S
In104 O116 2.326 . S
O105 In104 2.294 . S
O105 C114 1.240 . S
O106 In104 2.326 . S
O106 C114 1.252 . S
C107 O110 1.252 . S
C107 O111 1.260 . S
C108 O115 1.240 . S
C108 O116 1.252 . S
C109 O112 1.252 . S
C109 O113 1.260 . S
O110 In104 2.266 . S
O110 C107 1.252 . S
O111 In104 2.326 . S
O111 C107 1.260 . S
O112 In104 2.266 . S
O112 C109 1.252 . S
O113 In104 2.326 . S
O113 C109 1.260 . S
C114 O105 1.240 . S
C114 O106 1.252 . S
O115 In104 2.294 . S
O115 C108 1.240 . S
O116 In104 2.326 . S
O116 C108 1.252 . S
In117 O118 2.294 . S
In117 O119 2.326 . S
In117 O123 2.266 . S
In117 O124 2.326 . S
In117 O125 2.266 . S
In117 O126 2.326 . S
In117 O128 2.294 . S
In117 O129 2.326 . S
O118 In117 2.294 . S
O118 C127 1.240 . S
O119 In117 2.326 . S
O119 C127 1.252 . S
C120 O123 1.252 . S
C120 O124 1.260 . S
C121 O128 1.240 . S
C121 O129 1.252 . S
C122 O125 1.252 . S
C122 O126 1.260 . S
O123 In117 2.266 . S
O123 C120 1.252 . S
O124 In117 2.326 . S
O124 C120 1.260 . S
O125 In117 2.266 . S
O125 C122 1.252 . S
O126 In117 2.326 . S
O126 C122 1.260 . S
C127 O118 1.240 . S
C127 O119 1.252 . S
O128 In117 2.294 . S
O128 C121 1.240 . S
O129 In117 2.326 . S
O129 C121 1.252 . S
In130 O131 2.294 . S
In130 O132 2.326 . S
In130 O136 2.266 . S
In130 O137 2.326 . S
In130 O138 2.266 . S
In130 O139 2.326 . S
In130 O141 2.294 . S
In130 O142 2.326 . S
O131 In130 2.294 . S
O131 C140 1.240 . S
O132 In130 2.326 . S
O132 C140 1.252 . S
C133 O136 1.252 . S
C133 O137 1.260 . S
C134 O141 1.240 . S
C134 O142 1.252 . S
C135 O138 1.252 . S
C135 O139 1.260 . S
O136 In130 2.266 . S
O136 C133 1.252 . S
O137 In130 2.326 . S
O137 C133 1.260 . S
O138 In130 2.266 . S
O138 C135 1.252 . S
O139 In130 2.326 . S
O139 C135 1.260 . S
C140 O131 1.240 . S
C140 O132 1.252 . S
O141 In130 2.294 . S
O141 C134 1.240 . S
O142 In130 2.326 . S
O142 C134 1.252 . S
In143 O144 2.294 . S
In143 O145 2.326 . S
In143 O149 2.266 . S
In143 O150 2.326 1_554 S
In143 O151 2.266 . S
In143 O152 2.326 . S
In143 O154 2.294 1_554 S
In143 O155 2.326 1_554 S
O144 In143 2.294 . S
O144 C153 1.240 . S
O145 In143 2.326 . S
O145 C153 1.252 . S
C146 O149 1.252 1_556 S
C146 O150 1.260 . S
C147 O154 1.240 . S
C147 O155 1.252 . S
C148 O151 1.252 . S
C148 O152 1.260 . S
O149 In143 2.266 . S
O149 C146 1.252 1_554 S
O150 In143 2.326 1_556 S
O150 C146 1.260 . S
O151 In143 2.266 . S
O151 C148 1.252 . S
O152 In143 2.326 . S
O152 C148 1.260 . S
C153 O144 1.240 . S
C153 O145 1.252 . S
O154 In143 2.294 1_556 S
O154 C147 1.240 . S
O155 In143 2.326 1_556 S
O155 C147 1.252 . S
In156 O157 2.294 . S
In156 O158 2.326 . S
In156 O162 2.266 . S
In156 O163 2.326 . S
In156 O164 2.266 . S
In156 O165 2.326 . S
In156 O167 2.294 . S
In156 O168 2.326 . S
O157 In156 2.294 . S
O157 C166 1.240 . S
O158 In156 2.326 . S
O158 C166 1.252 . S
C159 O162 1.252 . S
C159 O163 1.260 . S
C160 O167 1.240 . S
C160 O168 1.252 . S
C161 O164 1.252 . S
C161 O165 1.260 . S
O162 In156 2.266 . S
O162 C159 1.252 . S
O163 In156 2.326 . S
O163 C159 1.260 . S
O164 In156 2.266 . S
O164 C161 1.252 . S
O165 In156 2.326 . S
O165 C161 1.260 . S
C166 O157 1.240 . S
C166 O158 1.252 . S
O167 In156 2.294 . S
O167 C160 1.240 . S
O168 In156 2.326 . S
O168 C160 1.252 . S
In169 O170 2.294 . S
In169 O171 2.326 . S
In169 O175 2.266 . S
In169 O176 2.326 . S
In169 O177 2.266 . S
In169 O178 2.326 . S
In169 O180 2.294 . S
In169 O181 2.326 . S
O170 In169 2.294 . S
O170 C179 1.240 . S
O171 In169 2.326 . S
O171 C179 1.252 . S
C172 O175 1.252 . S
C172 O176 1.260 . S
C173 O180 1.240 . S
C173 O181 1.252 . S
C174 O177 1.252 . S
C174 O178 1.260 . S
O175 In169 2.266 . S
O175 C172 1.252 . S
O176 In169 2.326 . S
O176 C172 1.260 . S
O177 In169 2.266 . S
O177 C174 1.252 . S
O178 In169 2.326 . S
O178 C174 1.260 . S
C179 O170 1.240 . S
C179 O171 1.252 . S
O180 In169 2.294 . S
O180 C173 1.240 . S
O181 In169 2.326 . S
O181 C173 1.252 . S
In182 O183 2.294 . S
In182 O184 2.326 . S
In182 O188 2.266 . S
In182 O189 2.326 . S
In182 O190 2.266 . S
In182 O191 2.326 . S
In182 O193 2.294 . S
In182 O194 2.326 . S
O183 In182 2.294 . S
O183 C192 1.240 . S
O184 In182 2.326 . S
O184 C192 1.252 . S
C185 O188 1.252 . S
C185 O189 1.260 . S
C186 O193 1.240 . S
C186 O194 1.252 . S
C187 O190 1.252 . S
C187 O191 1.260 . S
O188 In182 2.266 . S
O188 C185 1.252 . S
O189 In182 2.326 . S
O189 C185 1.260 . S
O190 In182 2.266 . S
O190 C187 1.252 . S
O191 In182 2.326 . S
O191 C187 1.260 . S
C192 O183 1.240 . S
C192 O184 1.252 . S
O193 In182 2.294 . S
O193 C186 1.240 . S
O194 In182 2.326 . S
O194 C186 1.252 . S
In195 O196 2.294 1_556 S
In195 O197 2.326 1_556 S
In195 O201 2.266 . S
In195 O202 2.326 . S
In195 O203 2.266 . S
In195 O204 2.326 1_556 S
In195 O206 2.294 . S
In195 O207 2.326 . S
O196 In195 2.294 1_554 S
O196 C205 1.240 . S
O197 In195 2.326 1_554 S
O197 C205 1.252 . S
C198 O201 1.252 . S
C198 O202 1.260 . S
C199 O206 1.240 . S
C199 O207 1.252 . S
C200 O203 1.252 1_554 S
C200 O204 1.260 . S
O201 In195 2.266 . S
O201 C198 1.252 . S
O202 In195 2.326 . S
O202 C198 1.260 . S
O203 In195 2.266 . S
O203 C200 1.252 1_556 S
O204 In195 2.326 1_554 S
O204 C200 1.260 . S
C205 O196 1.240 . S
C205 O197 1.252 . S
O206 In195 2.294 . S
O206 C199 1.240 . S
O207 In195 2.326 . S
O207 C199 1.252 . S
In208 O209 2.294 . S
In208 O210 2.326 . S
In208 O214 2.266 . S
In208 O215 2.326 . S
In208 O216 2.266 . S
In208 O217 2.326 . S
In208 O219 2.294 . S
In208 O220 2.326 . S
O209 In208 2.294 . S
O209 C218 1.240 . S
O210 In208 2.326 . S
O210 C218 1.252 . S
C211 O214 1.252 . S
C211 O215 1.260 . S
C212 O219 1.240 . S
C212 O220 1.252 . S
C213 O216 1.252 . S
C213 O217 1.260 . S
O214 In208 2.266 . S
O214 C211 1.252 . S
O215 In208 2.326 . S
O215 C211 1.260 . S
O216 In208 2.266 . S
O216 C213 1.252 . S
O217 In208 2.326 . S
O217 C213 1.260 . S
C218 O209 1.240 . S
C218 O210 1.252 . S
O219 In208 2.294 . S
O219 C212 1.240 . S
O220 In208 2.326 . S
O220 C212 1.252 . S
In221 O222 2.294 . S
In221 O223 2.326 . S
In221 O227 2.266 . S
In221 O228 2.326 . S
In221 O229 2.266 . S
In221 O230 2.326 . S
In221 O232 2.294 . S
In221 O233 2.326 . S
O222 In221 2.294 . S
O222 C231 1.240 . S
O223 In221 2.326 . S
O223 C231 1.252 . S
C224 O227 1.252 . S
C224 O228 1.260 . S
C225 O232 1.240 . S
C225 O233 1.252 . S
C226 O229 1.252 . S
C226 O230 1.260 . S
O227 In221 2.266 . S
O227 C224 1.252 . S
O228 In221 2.326 . S
O228 C224 1.260 . S
O229 In221 2.266 . S
O229 C226 1.252 . S
O230 In221 2.326 . S
O230 C226 1.260 . S
C231 O222 1.240 . S
C231 O223 1.252 . S
O232 In221 2.294 . S
O232 C225 1.240 . S
O233 In221 2.326 . S
O233 C225 1.252 . S
In234 O235 2.294 . S
In234 O236 2.326 . S
In234 O240 2.266 . S
In234 O241 2.326 . S
In234 O242 2.266 . S
In234 O243 2.326 . S
In234 O245 2.294 . S
In234 O246 2.326 . S
O235 In234 2.294 . S
O235 C244 1.240 . S
O236 In234 2.326 . S
O236 C244 1.252 . S
C237 O240 1.252 . S
C237 O241 1.260 . S
C238 O245 1.240 . S
C238 O246 1.252 . S
C239 O242 1.252 . S
C239 O243 1.260 . S
O240 In234 2.266 . S
O240 C237 1.252 . S
O241 In234 2.326 . S
O241 C237 1.260 . S
O242 In234 2.266 . S
O242 C239 1.252 . S
O243 In234 2.326 . S
O243 C239 1.260 . S
C244 O235 1.240 . S
C244 O236 1.252 . S
O245 In234 2.294 . S
O245 C238 1.240 . S
O246 In234 2.326 . S
O246 C238 1.252 . S
In247 O248 2.294 . S
In247 O249 2.326 . S
In247 O253 2.266 . S
In247 O254 2.326 . S
In247 O255 2.266 . S
In247 O256 2.326 . S
In247 O258 2.294 . S
In247 O259 2.326 . S
O248 In247 2.294 . S
O248 C257 1.240 . S
O249 In247 2.326 . S
O249 C257 1.252 . S
C250 O253 1.252 . S
C250 O254 1.260 . S
C251 O258 1.240 . S
C251 O259 1.252 . S
C252 O255 1.252 . S
C252 O256 1.260 . S
O253 In247 2.266 . S
O253 C250 1.252 . S
O254 In247 2.326 . S
O254 C250 1.260 . S
O255 In247 2.266 . S
O255 C252 1.252 . S
O256 In247 2.326 . S
O256 C252 1.260 . S
C257 O248 1.240 . S
C257 O249 1.252 . S
O258 In247 2.294 . S
O258 C251 1.240 . S
O259 In247 2.326 . S
O259 C251 1.252 . S
In260 O261 2.294 . S
In260 O262 2.326 . S
In260 O266 2.266 . S
In260 O267 2.326 1_565 S
In260 O268 2.266 . S
In260 O269 2.326 . S
In260 O271 2.294 1_565 S
In260 O272 2.326 1_565 S
O261 In260 2.294 . S
O261 C270 1.240 . S
O262 In260 2.326 . S
O262 C270 1.252 . S
C263 O266 1.252 1_545 S
C263 O267 1.260 . S
C264 O271 1.240 . S
C264 O272 1.252 . S
C265 O268 1.252 . S
C265 O269 1.260 . S
O266 In260 2.266 . S
O266 C263 1.252 1_565 S
O267 In260 2.326 1_545 S
O267 C263 1.260 . S
O268 In260 2.266 . S
O268 C265 1.252 . S
O269 In260 2.326 . S
O269 C265 1.260 . S
C270 O261 1.240 . S
C270 O262 1.252 . S
O271 In260 2.294 1_545 S
O271 C264 1.240 . S
O272 In260 2.326 1_545 S
O272 C264 1.252 . S
In273 O274 2.294 . S
In273 O275 2.326 . S
In273 O279 2.266 . S
In273 O280 2.326 . S
In273 O281 2.266 . S
In273 O282 2.326 . S
In273 O284 2.294 . S
In273 O285 2.326 . S
O274 In273 2.294 . S
O274 C283 1.240 . S
O275 In273 2.326 . S
O275 C283 1.252 . S
C276 O279 1.252 . S
C276 O280 1.260 . S
C277 O284 1.240 . S
C277 O285 1.252 . S
C278 O281 1.252 . S
C278 O282 1.260 . S
O279 In273 2.266 . S
O279 C276 1.252 . S
O280 In273 2.326 . S
O280 C276 1.260 . S
O281 In273 2.266 . S
O281 C278 1.252 . S
O282 In273 2.326 . S
O282 C278 1.260 . S
C283 O274 1.240 . S
C283 O275 1.252 . S
O284 In273 2.294 . S
O284 C277 1.240 . S
O285 In273 2.326 . S
O285 C277 1.252 . S
In286 O287 2.294 . S
In286 O288 2.326 . S
In286 O292 2.266 . S
In286 O293 2.326 . S
In286 O294 2.266 . S
In286 O295 2.326 . S
In286 O297 2.294 . S
In286 O298 2.326 . S
O287 In286 2.294 . S
O287 C296 1.240 . S
O288 In286 2.326 . S
O288 C296 1.252 . S
C289 O292 1.252 . S
C289 O293 1.260 . S
C290 O297 1.240 . S
C290 O298 1.252 . S
C291 O294 1.252 . S
C291 O295 1.260 . S
O292 In286 2.266 . S
O292 C289 1.252 . S
O293 In286 2.326 . S
O293 C289 1.260 . S
O294 In286 2.266 . S
O294 C291 1.252 . S
O295 In286 2.326 . S
O295 C291 1.260 . S
C296 O287 1.240 . S
C296 O288 1.252 . S
O297 In286 2.294 . S
O297 C290 1.240 . S
O298 In286 2.326 . S
O298 C290 1.252 . S
In299 O300 2.294 . S
In299 O301 2.326 . S
In299 O305 2.266 . S
In299 O306 2.326 . S
In299 O307 2.266 . S
In299 O308 2.326 . S
In299 O310 2.294 . S
In299 O311 2.326 . S
O300 In299 2.294 . S
O300 C309 1.240 . S
O301 In299 2.326 . S
O301 C309 1.252 . S
C302 O305 1.252 . S
C302 O306 1.260 . S
C303 O310 1.240 . S
C303 O311 1.252 . S
C304 O307 1.252 . S
C304 O308 1.260 . S
O305 In299 2.266 . S
O305 C302 1.252 . S
O306 In299 2.326 . S
O306 C302 1.260 . S
O307 In299 2.266 . S
O307 C304 1.252 . S
O308 In299 2.326 . S
O308 C304 1.260 . S
C309 O300 1.240 . S
C309 O301 1.252 . S
O310 In299 2.294 . S
O310 C303 1.240 . S
O311 In299 2.326 . S
O311 C303 1.252 . S
In312 O313 2.294 . S
In312 O314 2.326 . S
In312 O318 2.266 . S
In312 O319 2.326 . S
In312 O320 2.266 . S
In312 O321 2.326 . S
In312 O323 2.294 . S
In312 O324 2.326 . S
O313 In312 2.294 . S
O313 C322 1.240 . S
O314 In312 2.326 . S
O314 C322 1.252 . S
C315 O318 1.252 . S
C315 O319 1.260 . S
C316 O323 1.240 . S
C316 O324 1.252 . S
C317 O320 1.252 . S
C317 O321 1.260 . S
O318 In312 2.266 . S
O318 C315 1.252 . S
O319 In312 2.326 . S
O319 C315 1.260 . S
O320 In312 2.266 . S
O320 C317 1.252 . S
O321 In312 2.326 . S
O321 C317 1.260 . S
C322 O313 1.240 . S
C322 O314 1.252 . S
O323 In312 2.294 . S
O323 C316 1.240 . S
O324 In312 2.326 . S
O324 C316 1.252 . S
In325 O326 2.294 . S
In325 O327 2.326 . S
In325 O331 2.266 . S
In325 O332 2.326 . S
In325 O333 2.266 . S
In325 O334 2.326 . S
In325 O336 2.294 . S
In325 O337 2.326 . S
O326 In325 2.294 . S
O326 C335 1.240 . S
O327 In325 2.326 . S
O327 C335 1.252 . S
C328 O331 1.252 . S
C328 O332 1.260 . S
C329 O336 1.240 . S
C329 O337 1.252 . S
C330 O333 1.252 . S
C330 O334 1.260 . S
O331 In325 2.266 . S
O331 C328 1.252 . S
O332 In325 2.326 . S
O332 C328 1.260 . S
O333 In325 2.266 . S
O333 C330 1.252 . S
O334 In325 2.326 . S
O334 C330 1.260 . S
C335 O326 1.240 . S
C335 O327 1.252 . S
O336 In325 2.294 . S
O336 C329 1.240 . S
O337 In325 2.326 . S
O337 C329 1.252 . S
In338 O339 2.294 . S
In338 O340 2.326 . S
In338 O344 2.266 . S
In338 O345 2.326 . S
In338 O346 2.266 . S
In338 O347 2.326 . S
In338 O349 2.294 . S
In338 O350 2.326 . S
O339 In338 2.294 . S
O339 C348 1.240 . S
O340 In338 2.326 . S
O340 C348 1.252 . S
C341 O344 1.252 . S
C341 O345 1.260 . S
C342 O349 1.240 . S
C342 O350 1.252 . S
C343 O346 1.252 . S
C343 O347 1.260 . S
O344 In338 2.266 . S
O344 C341 1.252 . S
O345 In338 2.326 . S
O345 C341 1.260 . S
O346 In338 2.266 . S
O346 C343 1.252 . S
O347 In338 2.326 . S
O347 C343 1.260 . S
C348 O339 1.240 . S
C348 O340 1.252 . S
O349 In338 2.294 . S
O349 C342 1.240 . S
O350 In338 2.326 . S
O350 C342 1.252 . S
In351 O352 2.294 . S
In351 O353 2.326 . S
In351 O357 2.266 . S
In351 O358 2.326 1_455 S
In351 O359 2.266 . S
In351 O360 2.326 . S
In351 O362 2.294 1_455 S
In351 O363 2.326 1_455 S
O352 In351 2.294 . S
O352 C361 1.240 . S
O353 In351 2.326 . S
O353 C361 1.252 . S
C354 O357 1.252 1_655 S
C354 O358 1.260 . S
C355 O362 1.240 . S
C355 O363 1.252 . S
C356 O359 1.252 . S
C356 O360 1.260 . S
O357 In351 2.266 . S
O357 C354 1.252 1_455 S
O358 In351 2.326 1_655 S
O358 C354 1.260 . S
O359 In351 2.266 . S
O359 C356 1.252 . S
O360 In351 2.326 . S
O360 C356 1.260 . S
C361 O352 1.240 . S
C361 O353 1.252 . S
O362 In351 2.294 1_655 S
O362 C355 1.240 . S
O363 In351 2.326 1_655 S
O363 C355 1.252 . S
In364 O365 2.294 . S
In364 O366 2.326 . S
In364 O370 2.266 . S
In364 O371 2.326 . S
In364 O372 2.266 . S
In364 O373 2.326 . S
In364 O375 2.294 . S
In364 O376 2.326 . S
O365 In364 2.294 . S
O365 C374 1.240 . S
O366 In364 2.326 . S
O366 C374 1.252 . S
C367 O370 1.252 . S
C367 O371 1.260 . S
C368 O375 1.240 . S
C368 O376 1.252 . S
C369 O372 1.252 . S
C369 O373 1.260 . S
O370 In364 2.266 . S
O370 C367 1.252 . S
O371 In364 2.326 . S
O371 C367 1.260 . S
O372 In364 2.266 . S
O372 C369 1.252 . S
O373 In364 2.326 . S
O373 C369 1.260 . S
C374 O365 1.240 . S
C374 O366 1.252 . S
O375 In364 2.294 . S
O375 C368 1.240 . S
O376 In364 2.326 . S
O376 C368 1.252 . S
In377 O378 2.294 . S
In377 O379 2.326 . S
In377 O383 2.266 . S
In377 O384 2.326 1_455 S
In377 O385 2.266 . S
In377 O386 2.326 . S
In377 O388 2.294 1_455 S
In377 O389 2.326 1_455 S
O378 In377 2.294 . S
O378 C387 1.240 . S
O379 In377 2.326 . S
O379 C387 1.252 . S
C380 O383 1.252 1_655 S
C380 O384 1.260 . S
C381 O388 1.240 . S
C381 O389 1.252 . S
C382 O385 1.252 . S
C382 O386 1.260 . S
O383 In377 2.266 . S
O383 C380 1.252 1_455 S
O384 In377 2.326 1_655 S
O384 C380 1.260 . S
O385 In377 2.266 . S
O385 C382 1.252 . S
O386 In377 2.326 . S
O386 C382 1.260 . S
C387 O378 1.240 . S
C387 O379 1.252 . S
O388 In377 2.294 1_655 S
O388 C381 1.240 . S
O389 In377 2.326 1_655 S
O389 C381 1.252 . S
In390 O391 2.294 . S
In390 O392 2.326 . S
In390 O396 2.266 . S
In390 O397 2.326 . S
In390 O398 2.266 . S
In390 O399 2.326 . S
In390 O401 2.294 . S
In390 O402 2.326 . S
O391 In390 2.294 . S
O391 C400 1.240 . S
O392 In390 2.326 . S
O392 C400 1.252 . S
C393 O396 1.252 . S
C393 O397 1.260 . S
C394 O401 1.240 . S
C394 O402 1.252 . S
C395 O398 1.252 . S
C395 O399 1.260 . S
O396 In390 2.266 . S
O396 C393 1.252 . S
O397 In390 2.326 . S
O397 C393 1.260 . S
O398 In390 2.266 . S
O398 C395 1.252 . S
O399 In390 2.326 . S
O399 C395 1.260 . S
C400 O391 1.240 . S
C400 O392 1.252 . S
O401 In390 2.294 . S
O401 C394 1.240 . S
O402 In390 2.326 . S
O402 C394 1.252 . S
In403 O404 2.294 . S
In403 O405 2.326 . S
In403 O409 2.266 . S
In403 O410 2.326 . S
In403 O411 2.266 . S
In403 O412 2.326 . S
In403 O414 2.294 . S
In403 O415 2.326 . S
O404 In403 2.294 . S
O404 C413 1.240 . S
O405 In403 2.326 . S
O405 C413 1.252 . S
C406 O409 1.252 . S
C406 O410 1.260 . S
C407 O414 1.240 . S
C407 O415 1.252 . S
C408 O411 1.252 . S
C408 O412 1.260 . S
O409 In403 2.266 . S
O409 C406 1.252 . S
O410 In403 2.326 . S
O410 C406 1.260 . S
O411 In403 2.266 . S
O411 C408 1.252 . S
O412 In403 2.326 . S
O412 C408 1.260 . S
C413 O404 1.240 . S
C413 O405 1.252 . S
O414 In403 2.294 . S
O414 C407 1.240 . S
O415 In403 2.326 . S
O415 C407 1.252 . S
In416 O417 2.294 . S
In416 O418 2.326 . S
In416 O422 2.266 . S
In416 O423 2.326 . S
In416 O424 2.266 . S
In416 O425 2.326 . S
In416 O427 2.294 . S
In416 O428 2.326 . S
O417 In416 2.294 . S
O417 C426 1.240 . S
O418 In416 2.326 . S
O418 C426 1.252 . S
C419 O422 1.252 . S
C419 O423 1.260 . S
C420 O427 1.240 . S
C420 O428 1.252 . S
C421 O424 1.252 . S
C421 O425 1.260 . S
O422 In416 2.266 . S
O422 C419 1.252 . S
O423 In416 2.326 . S
O423 C419 1.260 . S
O424 In416 2.266 . S
O424 C421 1.252 . S
O425 In416 2.326 . S
O425 C421 1.260 . S
C426 O417 1.240 . S
C426 O418 1.252 . S
O427 In416 2.294 . S
O427 C420 1.240 . S
O428 In416 2.326 . S
O428 C420 1.252 . S
In429 O430 2.294 1_554 S
In429 O431 2.326 1_554 S
In429 O435 2.266 . S
In429 O436 2.326 . S
In429 O437 2.266 . S
In429 O438 2.326 1_554 S
In429 O440 2.294 . S
In429 O441 2.326 . S
O430 In429 2.294 1_556 S
O430 C439 1.240 . S
O431 In429 2.326 1_556 S
O431 C439 1.252 . S
C432 O435 1.252 . S
C432 O436 1.260 . S
C433 O440 1.240 . S
C433 O441 1.252 . S
C434 O437 1.252 1_556 S
C434 O438 1.260 . S
O435 In429 2.266 . S
O435 C432 1.252 . S
O436 In429 2.326 . S
O436 C432 1.260 . S
O437 In429 2.266 . S
O437 C434 1.252 1_554 S
O438 In429 2.326 1_556 S
O438 C434 1.260 . S
C439 O430 1.240 . S
C439 O431 1.252 . S
O440 In429 2.294 . S
O440 C433 1.240 . S
O441 In429 2.326 . S
O441 C433 1.252 . S
In442 O443 2.294 . S
In442 O444 2.326 . S
In442 O448 2.266 . S
In442 O449 2.326 . S
In442 O450 2.266 . S
In442 O451 2.326 . S
In442 O453 2.294 . S
In442 O454 2.326 . S
O443 In442 2.294 . S
O443 C452 1.240 . S
O444 In442 2.326 . S
O444 C452 1.252 . S
C445 O448 1.252 . S
C445 O449 1.260 . S
C446 O453 1.240 . S
C446 O454 1.252 . S
C447 O450 1.252 . S
C447 O451 1.260 . S
O448 In442 2.266 . S
O448 C445 1.252 . S
O449 In442 2.326 . S
O449 C445 1.260 . S
O450 In442 2.266 . S
O450 C447 1.252 . S
O451 In442 2.326 . S
O451 C447 1.260 . S
C452 O443 1.240 . S
C452 O444 1.252 . S
O453 In442 2.294 . S
O453 C446 1.240 . S
O454 In442 2.326 . S
O454 C446 1.252 . S
In455 O456 2.294 . S
In455 O457 2.326 . S
In455 O461 2.266 . S
In455 O462 2.326 . S
In455 O463 2.266 . S
In455 O464 2.326 . S
In455 O466 2.294 . S
In455 O467 2.326 . S
O456 In455 2.294 . S
O456 C465 1.240 . S
O457 In455 2.326 . S
O457 C465 1.252 . S
C458 O461 1.252 . S
C458 O462 1.260 . S
C459 O466 1.240 . S
C459 O467 1.252 . S
C460 O463 1.252 . S
C460 O464 1.260 . S
O461 In455 2.266 . S
O461 C458 1.252 . S
O462 In455 2.326 . S
O462 C458 1.260 . S
O463 In455 2.266 . S
O463 C460 1.252 . S
O464 In455 2.326 . S
O464 C460 1.260 . S
C465 O456 1.240 . S
C465 O457 1.252 . S
O466 In455 2.294 . S
O466 C459 1.240 . S
O467 In455 2.326 . S
O467 C459 1.252 . S
In468 O469 2.294 . S
In468 O470 2.326 . S
In468 O474 2.266 . S
In468 O475 2.326 . S
In468 O476 2.266 . S
In468 O477 2.326 . S
In468 O479 2.294 . S
In468 O480 2.326 . S
O469 In468 2.294 . S
O469 C478 1.240 . S
O470 In468 2.326 . S
O470 C478 1.252 . S
C471 O474 1.252 . S
C471 O475 1.260 . S
C472 O479 1.240 . S
C472 O480 1.252 . S
C473 O476 1.252 . S
C473 O477 1.260 . S
O474 In468 2.266 . S
O474 C471 1.252 . S
O475 In468 2.326 . S
O475 C471 1.260 . S
O476 In468 2.266 . S
O476 C473 1.252 . S
O477 In468 2.326 . S
O477 C473 1.260 . S
C478 O469 1.240 . S
C478 O470 1.252 . S
O479 In468 2.294 . S
O479 C472 1.240 . S
O480 In468 2.326 . S
O480 C472 1.252 . S
In481 O482 2.294 1_556 S
In481 O483 2.326 1_556 S
In481 O487 2.266 . S
In481 O488 2.326 . S
In481 O489 2.266 . S
In481 O490 2.326 1_556 S
In481 O492 2.294 . S
In481 O493 2.326 . S
O482 In481 2.294 1_554 S
O482 C491 1.240 . S
O483 In481 2.326 1_554 S
O483 C491 1.252 . S
C484 O487 1.252 . S
C484 O488 1.260 . S
C485 O492 1.240 . S
C485 O493 1.252 . S
C486 O489 1.252 1_554 S
C486 O490 1.260 . S
O487 In481 2.266 . S
O487 C484 1.252 . S
O488 In481 2.326 . S
O488 C484 1.260 . S
O489 In481 2.266 . S
O489 C486 1.252 1_556 S
O490 In481 2.326 1_554 S
O490 C486 1.260 . S
C491 O482 1.240 . S
C491 O483 1.252 . S
O492 In481 2.294 . S
O492 C485 1.240 . S
O493 In481 2.326 . S
O493 C485 1.252 . S
In494 O495 2.294 . S
In494 O496 2.326 . S
In494 O500 2.266 . S
In494 O501 2.326 . S
In494 O502 2.266 . S
In494 O503 2.326 . S
In494 O505 2.294 . S
In494 O506 2.326 . S
O495 In494 2.294 . S
O495 C504 1.240 . S
O496 In494 2.326 . S
O496 C504 1.252 . S
C497 O500 1.252 . S
C497 O501 1.260 . S
C498 O505 1.240 . S
C498 O506 1.252 . S
C499 O502 1.252 . S
C499 O503 1.260 . S
O500 In494 2.266 . S
O500 C497 1.252 . S
O501 In494 2.326 . S
O501 C497 1.260 . S
O502 In494 2.266 . S
O502 C499 1.252 . S
O503 In494 2.326 . S
O503 C499 1.260 . S
C504 O495 1.240 . S
C504 O496 1.252 . S
O505 In494 2.294 . S
O505 C498 1.240 . S
O506 In494 2.326 . S
O506 C498 1.252 . S
In507 O508 2.294 . S
In507 O509 2.326 . S
In507 O513 2.266 . S
In507 O514 2.326 . S
In507 O515 2.266 . S
In507 O516 2.326 . S
In507 O518 2.294 . S
In507 O519 2.326 . S
O508 In507 2.294 . S
O508 C517 1.240 . S
O509 In507 2.326 . S
O509 C517 1.252 . S
C510 O513 1.252 . S
C510 O514 1.260 . S
C511 O518 1.240 . S
C511 O519 1.252 . S
C512 O515 1.252 . S
C512 O516 1.260 . S
O513 In507 2.266 . S
O513 C510 1.252 . S
O514 In507 2.326 . S
O514 C510 1.260 . S
O515 In507 2.266 . S
O515 C512 1.252 . S
O516 In507 2.326 . S
O516 C512 1.260 . S
C517 O508 1.240 . S
C517 O509 1.252 . S
O518 In507 2.294 . S
O518 C511 1.240 . S
O519 In507 2.326 . S
O519 C511 1.252 . S
In520 O521 2.294 . S
In520 O522 2.326 . S
In520 O526 2.266 . S
In520 O527 2.326 . S
In520 O528 2.266 . S
In520 O529 2.326 . S
In520 O531 2.294 . S
In520 O532 2.326 . S
O521 In520 2.294 . S
O521 C530 1.240 . S
O522 In520 2.326 . S
O522 C530 1.252 . S
C523 O526 1.252 . S
C523 O527 1.260 . S
C524 O531 1.240 . S
C524 O532 1.252 . S
C525 O528 1.252 . S
C525 O529 1.260 . S
O526 In520 2.266 . S
O526 C523 1.252 . S
O527 In520 2.326 . S
O527 C523 1.260 . S
O528 In520 2.266 . S
O528 C525 1.252 . S
O529 In520 2.326 . S
O529 C525 1.260 . S
C530 O521 1.240 . S
C530 O522 1.252 . S
O531 In520 2.294 . S
O531 C524 1.240 . S
O532 In520 2.326 . S
O532 C524 1.252 . S
In533 O534 2.294 . S
In533 O535 2.326 . S
In533 O539 2.266 . S
In533 O540 2.326 . S
In533 O541 2.266 . S
In533 O542 2.326 . S
In533 O544 2.294 . S
In533 O545 2.326 . S
O534 In533 2.294 . S
O534 C543 1.240 . S
O535 In533 2.326 . S
O535 C543 1.252 . S
C536 O539 1.252 . S
C536 O540 1.260 . S
C537 O544 1.240 . S
C537 O545 1.252 . S
C538 O541 1.252 . S
C538 O542 1.260 . S
O539 In533 2.266 . S
O539 C536 1.252 . S
O540 In533 2.326 . S
O540 C536 1.260 . S
O541 In533 2.266 . S
O541 C538 1.252 . S
O542 In533 2.326 . S
O542 C538 1.260 . S
C543 O534 1.240 . S
C543 O535 1.252 . S
O544 In533 2.294 . S
O544 C537 1.240 . S
O545 In533 2.326 . S
O545 C537 1.252 . S
In546 O547 2.294 1_545 S
In546 O548 2.326 1_545 S
In546 O552 2.266 . S
In546 O553 2.326 . S
In546 O554 2.266 . S
In546 O555 2.326 1_545 S
In546 O557 2.294 . S
In546 O558 2.326 . S
O547 In546 2.294 1_565 S
O547 C556 1.240 . S
O548 In546 2.326 1_565 S
O548 C556 1.252 . S
C549 O552 1.252 . S
C549 O553 1.260 . S
C550 O557 1.240 . S
C550 O558 1.252 . S
C551 O554 1.252 1_565 S
C551 O555 1.260 . S
O552 In546 2.266 . S
O552 C549 1.252 . S
O553 In546 2.326 . S
O553 C549 1.260 . S
O554 In546 2.266 . S
O554 C551 1.252 1_545 S
O555 In546 2.326 1_565 S
O555 C551 1.260 . S
C556 O547 1.240 . S
C556 O548 1.252 . S
O557 In546 2.294 . S
O557 C550 1.240 . S
O558 In546 2.326 . S
O558 C550 1.252 . S
In559 O560 2.294 . S
In559 O561 2.326 . S
In559 O565 2.266 . S
In559 O566 2.326 . S
In559 O567 2.266 . S
In559 O568 2.326 . S
In559 O570 2.294 . S
In559 O571 2.326 . S
O560 In559 2.294 . S
O560 C569 1.240 . S
O561 In559 2.326 . S
O561 C569 1.252 . S
C562 O565 1.252 . S
C562 O566 1.260 . S
C563 O570 1.240 . S
C563 O571 1.252 . S
C564 O567 1.252 . S
C564 O568 1.260 . S
O565 In559 2.266 . S
O565 C562 1.252 . S
O566 In559 2.326 . S
O566 C562 1.260 . S
O567 In559 2.266 . S
O567 C564 1.252 . S
O568 In559 2.326 . S
O568 C564 1.260 . S
C569 O560 1.240 . S
C569 O561 1.252 . S
O570 In559 2.294 . S
O570 C563 1.240 . S
O571 In559 2.326 . S
O571 C563 1.252 . S
In572 O573 2.294 . S
In572 O574 2.326 . S
In572 O578 2.266 . S
In572 O579 2.326 . S
In572 O580 2.266 . S
In572 O581 2.326 . S
In572 O583 2.294 . S
In572 O584 2.326 . S
O573 In572 2.294 . S
O573 C582 1.240 . S
O574 In572 2.326 . S
O574 C582 1.252 . S
C575 O578 1.252 . S
C575 O579 1.260 . S
C576 O583 1.240 . S
C576 O584 1.252 . S
C577 O580 1.252 . S
C577 O581 1.260 . S
O578 In572 2.266 . S
O578 C575 1.252 . S
O579 In572 2.326 . S
O579 C575 1.260 . S
O580 In572 2.266 . S
O580 C577 1.252 . S
O581 In572 2.326 . S
O581 C577 1.260 . S
C582 O573 1.240 . S
C582 O574 1.252 . S
O583 In572 2.294 . S
O583 C576 1.240 . S
O584 In572 2.326 . S
O584 C576 1.252 . S
In585 O586 2.294 . S
In585 O587 2.326 . S
In585 O591 2.266 . S
In585 O592 2.326 . S
In585 O593 2.266 . S
In585 O594 2.326 . S
In585 O596 2.294 . S
In585 O597 2.326 . S
O586 In585 2.294 . S
O586 C595 1.240 . S
O587 In585 2.326 . S
O587 C595 1.252 . S
C588 O591 1.252 . S
C588 O592 1.260 . S
C589 O596 1.240 . S
C589 O597 1.252 . S
C590 O593 1.252 . S
C590 O594 1.260 . S
O591 In585 2.266 . S
O591 C588 1.252 . S
O592 In585 2.326 . S
O592 C588 1.260 . S
O593 In585 2.266 . S
O593 C590 1.252 . S
O594 In585 2.326 . S
O594 C590 1.260 . S
C595 O586 1.240 . S
C595 O587 1.252 . S
O596 In585 2.294 . S
O596 C589 1.240 . S
O597 In585 2.326 . S
O597 C589 1.252 . S
In598 O599 2.294 . S
In598 O600 2.326 . S
In598 O604 2.266 . S
In598 O605 2.326 1_565 S
In598 O606 2.266 . S
In598 O607 2.326 . S
In598 O609 2.294 1_565 S
In598 O610 2.326 1_565 S
O599 In598 2.294 . S
O599 C608 1.240 . S
O600 In598 2.326 . S
O600 C608 1.252 . S
C601 O604 1.252 1_545 S
C601 O605 1.260 . S
C602 O609 1.240 . S
C602 O610 1.252 . S
C603 O606 1.252 . S
C603 O607 1.260 . S
O604 In598 2.266 . S
O604 C601 1.252 1_565 S
O605 In598 2.326 1_545 S
O605 C601 1.260 . S
O606 In598 2.266 . S
O606 C603 1.252 . S
O607 In598 2.326 . S
O607 C603 1.260 . S
C608 O599 1.240 . S
C608 O600 1.252 . S
O609 In598 2.294 1_545 S
O609 C602 1.240 . S
O610 In598 2.326 1_545 S
O610 C602 1.252 . S
In611 O612 2.294 . S
In611 O613 2.326 . S
In611 O617 2.266 . S
In611 O618 2.326 1_545 S
In611 O619 2.266 . S
In611 O620 2.326 . S
In611 O622 2.294 1_545 S
In611 O623 2.326 1_545 S
O612 In611 2.294 . S
O612 C621 1.240 . S
O613 In611 2.326 . S
O613 C621 1.252 . S
C614 O617 1.252 1_565 S
C614 O618 1.260 . S
C615 O622 1.240 . S
C615 O623 1.252 . S
C616 O619 1.252 . S
C616 O620 1.260 . S
O617 In611 2.266 . S
O617 C614 1.252 1_545 S
O618 In611 2.326 1_565 S
O618 C614 1.260 . S
O619 In611 2.266 . S
O619 C616 1.252 . S
O620 In611 2.326 . S
O620 C616 1.260 . S
C621 O612 1.240 . S
C621 O613 1.252 . S
O622 In611 2.294 1_565 S
O622 C615 1.240 . S
O623 In611 2.326 1_565 S
O623 C615 1.252 . S
C624 C625 1.387 . S
C624 H628 0.950 . S
C624 C633 1.390 . S
C625 C624 1.387 . S
C625 C627 1.387 . S
H626 C633 0.950 . S
C627 C625 1.387 . S
C627 C629 1.390 . S
C627 H631 0.950 . S
H628 C624 0.950 . S
C629 C627 1.390 . S
C629 C630 1.387 . S
C629 H632 0.950 . S
C630 C629 1.387 . S
C630 C633 1.387 . S
H631 C627 0.950 . S
H632 C629 0.950 . S
C633 C624 1.390 . S
C633 H626 0.950 . S
C633 C630 1.387 . S
C634 C635 1.387 . S
C634 H638 0.950 . S
C634 C643 1.390 . S
C635 C634 1.387 . S
C635 C637 1.387 . S
H636 C643 0.950 . S
C637 C635 1.387 . S
C637 C639 1.390 . S
C637 H641 0.950 . S
H638 C634 0.950 . S
C639 C637 1.390 . S
C639 C640 1.387 . S
C639 H642 0.950 . S
C640 C639 1.387 . S
C640 C643 1.387 . S
H641 C637 0.950 . S
H642 C639 0.950 . S
C643 C634 1.390 . S
C643 H636 0.950 . S
C643 C640 1.387 . S
C644 C645 1.387 . S
C644 H648 0.950 . S
C644 C653 1.390 . S
C645 C644 1.387 . S
C645 C647 1.387 . S
H646 C653 0.950 . S
C647 C645 1.387 . S
C647 C649 1.390 . S
C647 H651 0.950 . S
H648 C644 0.950 . S
C649 C647 1.390 . S
C649 C650 1.387 . S
C649 H652 0.950 . S
C650 C649 1.387 . S
C650 C653 1.387 . S
H651 C647 0.950 . S
H652 C649 0.950 . S
C653 C644 1.390 . S
C653 H646 0.950 . S
C653 C650 1.387 . S
C654 C655 1.387 . S
C654 H658 0.950 . S
C654 C663 1.390 . S
C655 C654 1.387 . S
C655 C657 1.387 . S
H656 C663 0.950 . S
C657 C655 1.387 . S
C657 C659 1.390 . S
C657 H661 0.950 . S
H658 C654 0.950 . S
C659 C657 1.390 . S
C659 C660 1.387 . S
C659 H662 0.950 . S
C660 C659 1.387 . S
C660 C663 1.387 . S
H661 C657 0.950 . S
H662 C659 0.950 . S
C663 C654 1.390 . S
C663 H656 0.950 . S
C663 C660 1.387 . S
C664 C665 1.387 . S
C664 H668 0.950 . S
C664 C673 1.390 . S
C665 C664 1.387 . S
C665 C667 1.387 . S
H666 C673 0.950 . S
C667 C665 1.387 . S
C667 C669 1.390 . S
C667 H671 0.950 . S
H668 C664 0.950 . S
C669 C667 1.390 . S
C669 C670 1.387 . S
C669 H672 0.950 . S
C670 C669 1.387 . S
C670 C673 1.387 . S
H671 C667 0.950 . S
H672 C669 0.950 . S
C673 C664 1.390 . S
C673 H666 0.950 . S
C673 C670 1.387 . S
C674 C675 1.387 . S
C674 H678 0.950 . S
C674 C683 1.390 . S
C675 C674 1.387 . S
C675 C677 1.387 . S
H676 C683 0.950 . S
C677 C675 1.387 . S
C677 C679 1.390 . S
C677 H681 0.950 . S
H678 C674 0.950 . S
C679 C677 1.390 . S
C679 C680 1.387 . S
C679 H682 0.950 . S
C680 C679 1.387 . S
C680 C683 1.387 . S
H681 C677 0.950 . S
H682 C679 0.950 . S
C683 C674 1.390 . S
C683 H676 0.950 . S
C683 C680 1.387 . S
C684 C685 1.387 . S
C684 H688 0.950 . S
C684 C693 1.390 . S
C685 C684 1.387 . S
C685 C687 1.387 . S
H686 C693 0.950 . S
C687 C685 1.387 . S
C687 C689 1.390 . S
C687 H691 0.950 . S
H688 C684 0.950 . S
C689 C687 1.390 . S
C689 C690 1.387 . S
C689 H692 0.950 . S
C690 C689 1.387 . S
C690 C693 1.387 . S
H691 C687 0.950 . S
H692 C689 0.950 . S
C693 C684 1.390 . S
C693 H686 0.950 . S
C693 C690 1.387 . S
C694 C695 1.387 . S
C694 H698 0.950 . S
C694 C703 1.390 . S
C695 C694 1.387 . S
C695 C697 1.387 . S
H696 C703 0.950 . S
C697 C695 1.387 . S
C697 C699 1.390 . S
C697 H701 0.950 . S
H698 C694 0.950 . S
C699 C697 1.390 . S
C699 C700 1.387 . S
C699 H702 0.950 . S
C700 C699 1.387 . S
C700 C703 1.387 . S
H701 C697 0.950 . S
H702 C699 0.950 . S
C703 C694 1.390 . S
C703 H696 0.950 . S
C703 C700 1.387 . S
C704 C705 1.387 . S
C704 H708 0.950 . S
C704 C713 1.390 . S
C705 C704 1.387 . S
C705 C707 1.387 . S
H706 C713 0.950 . S
C707 C705 1.387 . S
C707 C709 1.390 . S
C707 H711 0.950 . S
H708 C704 0.950 . S
C709 C707 1.390 . S
C709 C710 1.387 . S
C709 H712 0.950 . S
C710 C709 1.387 . S
C710 C713 1.387 . S
H711 C707 0.950 . S
H712 C709 0.950 . S
C713 C704 1.390 . S
C713 H706 0.950 . S
C713 C710 1.387 . S
C714 C715 1.387 . S
C714 H718 0.950 . S
C714 C723 1.390 . S
C715 C714 1.387 . S
C715 C717 1.387 . S
H716 C723 0.950 . S
C717 C715 1.387 . S
C717 C719 1.390 . S
C717 H721 0.950 . S
H718 C714 0.950 . S
C719 C717 1.390 . S
C719 C720 1.387 . S
C719 H722 0.950 . S
C720 C719 1.387 . S
C720 C723 1.387 . S
H721 C717 0.950 . S
H722 C719 0.950 . S
C723 C714 1.390 . S
C723 H716 0.950 . S
C723 C720 1.387 . S
C724 C725 1.387 . S
C724 H728 0.950 . S
C724 C733 1.390 . S
C725 C724 1.387 . S
C725 C727 1.387 . S
H726 C733 0.950 . S
C727 C725 1.387 . S
C727 C729 1.390 . S
C727 H731 0.950 . S
H728 C724 0.950 . S
C729 C727 1.390 . S
C729 C730 1.387 . S
C729 H732 0.950 . S
C730 C729 1.387 . S
C730 C733 1.387 . S
H731 C727 0.950 . S
H732 C729 0.950 . S
C733 C724 1.390 . S
C733 H726 0.950 . S
C733 C730 1.387 . S
C734 C735 1.387 . S
C734 H738 0.950 . S
C734 C743 1.390 . S
C735 C734 1.387 . S
C735 C737 1.387 . S
H736 C743 0.950 . S
C737 C735 1.387 . S
C737 C739 1.390 . S
C737 H741 0.950 . S
H738 C734 0.950 . S
C739 C737 1.390 . S
C739 C740 1.387 . S
C739 H742 0.950 . S
C740 C739 1.387 . S
C740 C743 1.387 . S
H741 C737 0.950 . S
H742 C739 0.950 . S
C743 C734 1.390 . S
C743 H736 0.950 . S
C743 C740 1.387 . S
C744 C745 1.387 . S
C744 H748 0.950 . S
C744 C753 1.390 . S
C745 C744 1.387 . S
C745 C747 1.387 . S
H746 C753 0.950 . S
C747 C745 1.387 . S
C747 C749 1.390 . S
C747 H751 0.950 . S
H748 C744 0.950 . S
C749 C747 1.390 . S
C749 C750 1.387 . S
C749 H752 0.950 . S
C750 C749 1.387 . S
C750 C753 1.387 . S
H751 C747 0.950 . S
H752 C749 0.950 . S
C753 C744 1.390 . S
C753 H746 0.950 . S
C753 C750 1.387 . S
C754 C755 1.387 . S
C754 H758 0.950 . S
C754 C763 1.390 . S
C755 C754 1.387 . S
C755 C757 1.387 . S
H756 C763 0.950 . S
C757 C755 1.387 . S
C757 C759 1.390 . S
C757 H761 0.950 . S
H758 C754 0.950 . S
C759 C757 1.390 . S
C759 C760 1.387 . S
C759 H762 0.950 . S
C760 C759 1.387 . S
C760 C763 1.387 . S
H761 C757 0.950 . S
H762 C759 0.950 . S
C763 C754 1.390 . S
C763 H756 0.950 . S
C763 C760 1.387 . S
C764 C765 1.387 . S
C764 H768 0.950 . S
C764 C773 1.390 . S
C765 C764 1.387 . S
C765 C767 1.387 . S
H766 C773 0.950 . S
C767 C765 1.387 . S
C767 C769 1.390 . S
C767 H771 0.950 . S
H768 C764 0.950 . S
C769 C767 1.390 . S
C769 C770 1.387 . S
C769 H772 0.950 . S
C770 C769 1.387 . S
C770 C773 1.387 . S
H771 C767 0.950 . S
H772 C769 0.950 . S
C773 C764 1.390 . S
C773 H766 0.950 . S
C773 C770 1.387 . S
C774 C775 1.387 . S
C774 H778 0.950 . S
C774 C783 1.390 . S
C775 C774 1.387 . S
C775 C777 1.387 . S
H776 C783 0.950 . S
C777 C775 1.387 . S
C777 C779 1.390 . S
C777 H781 0.950 . S
H778 C774 0.950 . S
C779 C777 1.390 . S
C779 C780 1.387 . S
C779 H782 0.950 . S
C780 C779 1.387 . S
C780 C783 1.387 . S
H781 C777 0.950 . S
H782 C779 0.950 . S
C783 C774 1.390 . S
C783 H776 0.950 . S
C783 C780 1.387 . S
C784 C785 1.387 . S
C784 H788 0.950 . S
C784 C793 1.390 . S
C785 C784 1.387 . S
C785 C787 1.387 . S
H786 C793 0.950 . S
C787 C785 1.387 . S
C787 C789 1.390 . S
C787 H791 0.950 . S
H788 C784 0.950 . S
C789 C787 1.390 . S
C789 C790 1.387 . S
C789 H792 0.950 . S
C790 C789 1.387 . S
C790 C793 1.387 . S
H791 C787 0.950 . S
H792 C789 0.950 . S
C793 C784 1.390 . S
C793 H786 0.950 . S
C793 C790 1.387 . S
C794 C795 1.387 . S
C794 H798 0.950 . S
C794 C803 1.390 . S
C795 C794 1.387 . S
C795 C797 1.387 . S
H796 C803 0.950 . S
C797 C795 1.387 . S
C797 C799 1.390 . S
C797 H801 0.950 . S
H798 C794 0.950 . S
C799 C797 1.390 . S
C799 C800 1.387 . S
C799 H802 0.950 . S
C800 C799 1.387 . S
C800 C803 1.387 . S
H801 C797 0.950 . S
H802 C799 0.950 . S
C803 C794 1.390 . S
C803 H796 0.950 . S
C803 C800 1.387 . S
C804 C805 1.387 . S
C804 H808 0.950 . S
C804 C813 1.390 . S
C805 C804 1.387 . S
C805 C807 1.387 . S
H806 C813 0.950 . S
C807 C805 1.387 . S
C807 C809 1.390 . S
C807 H811 0.950 . S
H808 C804 0.950 . S
C809 C807 1.390 . S
C809 C810 1.387 . S
C809 H812 0.950 . S
C810 C809 1.387 . S
C810 C813 1.387 . S
H811 C807 0.950 . S
H812 C809 0.950 . S
C813 C804 1.390 . S
C813 H806 0.950 . S
C813 C810 1.387 . S
C814 C815 1.387 . S
C814 H818 0.950 . S
C814 C823 1.390 . S
C815 C814 1.387 . S
C815 C817 1.387 . S
H816 C823 0.950 . S
C817 C815 1.387 . S
C817 C819 1.390 . S
C817 H821 0.950 . S
H818 C814 0.950 . S
C819 C817 1.390 . S
C819 C820 1.387 . S
C819 H822 0.950 . S
C820 C819 1.387 . S
C820 C823 1.387 . S
H821 C817 0.950 . S
H822 C819 0.950 . S
C823 C814 1.390 . S
C823 H816 0.950 . S
C823 C820 1.387 . S
C824 C825 1.387 . S
C824 H828 0.950 . S
C824 C833 1.390 . S
C825 C824 1.387 . S
C825 C827 1.387 . S
H826 C833 0.950 . S
C827 C825 1.387 . S
C827 C829 1.390 . S
C827 H831 0.950 . S
H828 C824 0.950 . S
C829 C827 1.390 . S
C829 C830 1.387 . S
C829 H832 0.950 . S
C830 C829 1.387 . S
C830 C833 1.387 . S
H831 C827 0.950 . S
H832 C829 0.950 . S
C833 C824 1.390 . S
C833 H826 0.950 . S
C833 C830 1.387 . S
C834 C835 1.387 . S
C834 H838 0.950 . S
C834 C843 1.390 . S
C835 C834 1.387 . S
C835 C837 1.387 . S
H836 C843 0.950 . S
C837 C835 1.387 . S
C837 C839 1.390 . S
C837 H841 0.950 . S
H838 C834 0.950 . S
C839 C837 1.390 . S
C839 C840 1.387 . S
C839 H842 0.950 . S
C840 C839 1.387 . S
C840 C843 1.387 . S
H841 C837 0.950 . S
H842 C839 0.950 . S
C843 C834 1.390 . S
C843 H836 0.950 . S
C843 C840 1.387 . S
C844 C845 1.387 . S
C844 H848 0.950 . S
C844 C853 1.390 . S
C845 C844 1.387 . S
C845 C847 1.387 . S
H846 C853 0.950 . S
C847 C845 1.387 . S
C847 C849 1.390 . S
C847 H851 0.950 . S
H848 C844 0.950 . S
C849 C847 1.390 . S
C849 C850 1.387 . S
C849 H852 0.950 . S
C850 C849 1.387 . S
C850 C853 1.387 . S
H851 C847 0.950 . S
H852 C849 0.950 . S
C853 C844 1.390 . S
C853 H846 0.950 . S
C853 C850 1.387 . S
C854 C855 1.387 . S
C854 H858 0.950 . S
C854 C863 1.390 . S
C855 C854 1.387 . S
C855 C857 1.387 . S
H856 C863 0.950 . S
C857 C855 1.387 . S
C857 C859 1.390 . S
C857 H861 0.950 . S
H858 C854 0.950 . S
C859 C857 1.390 . S
C859 C860 1.387 . S
C859 H862 0.950 . S
C860 C859 1.387 . S
C860 C863 1.387 . S
H861 C857 0.950 . S
H862 C859 0.950 . S
C863 C854 1.390 . S
C863 H856 0.950 . S
C863 C860 1.387 . S
C864 C865 1.387 . S
C864 H868 0.950 . S
C864 C873 1.390 . S
C865 C864 1.387 . S
C865 C867 1.387 . S
H866 C873 0.950 . S
C867 C865 1.387 . S
C867 C869 1.390 . S
C867 H871 0.950 . S
H868 C864 0.950 . S
C869 C867 1.390 . S
C869 C870 1.387 . S
C869 H872 0.950 . S
C870 C869 1.387 . S
C870 C873 1.387 . S
H871 C867 0.950 . S
H872 C869 0.950 . S
C873 C864 1.390 . S
C873 H866 0.950 . S
C873 C870 1.387 . S
C874 C875 1.387 . S
C874 H878 0.950 . S
C874 C883 1.390 . S
C875 C874 1.387 . S
C875 C877 1.387 . S
H876 C883 0.950 . S
C877 C875 1.387 . S
C877 C879 1.390 . S
C877 H881 0.923 1_565 S
H878 C874 0.950 . S
C879 C877 1.390 . S
C879 C880 1.387 . S
C879 H882 0.950 . S
C880 C879 1.387 . S
C880 C883 1.387 . S
H881 C877 0.923 1_545 S
H882 C879 0.950 . S
C883 C874 1.390 . S
C883 H876 0.950 . S
C883 C880 1.387 . S
C884 C885 1.387 . S
C884 H888 0.950 . S
C884 C893 1.390 . S
C885 C884 1.387 . S
C885 C887 1.387 . S
H886 C893 0.950 . S
C887 C885 1.387 . S
C887 C889 1.390 . S
C887 H891 0.950 . S
H888 C884 0.950 . S
C889 C887 1.390 . S
C889 C890 1.387 . S
C889 H892 0.950 . S
C890 C889 1.387 . S
C890 C893 1.387 . S
H891 C887 0.950 . S
H892 C889 0.950 . S
C893 C884 1.390 . S
C893 H886 0.950 . S
C893 C890 1.387 . S
C894 C895 1.387 1_556 S
C894 H898 0.950 . S
C894 C903 1.390 1_556 S
C895 C894 1.387 1_554 S
C895 C897 1.387 . S
H896 C903 0.950 1_556 S
C897 C895 1.387 . S
C897 C899 1.390 . S
C897 H901 0.950 1_545 S
H898 C894 0.950 . S
C899 C897 1.390 . S
C899 C900 1.387 . S
C899 H902 0.950 . S
C900 C899 1.387 . S
C900 C903 1.387 . S
H901 C897 0.950 1_565 S
H902 C899 0.950 . S
C903 C894 1.390 1_554 S
C903 H896 0.950 1_554 S
C903 C900 1.387 . S
C904 C905 1.387 . S
C904 H908 0.950 . S
C904 C913 1.390 . S
C905 C904 1.387 . S
C905 C907 1.387 . S
H906 C913 0.950 . S
C907 C905 1.387 . S
C907 C909 1.390 . S
C907 H911 0.950 . S
H908 C904 0.950 . S
C909 C907 1.390 . S
C909 C910 1.387 . S
C909 H912 0.950 . S
C910 C909 1.387 . S
C910 C913 1.387 . S
H911 C907 0.950 . S
H912 C909 0.950 . S
C913 C904 1.390 . S
C913 H906 0.950 . S
C913 C910 1.387 . S
C914 C915 1.387 . S
C914 H918 0.950 . S
C914 C923 1.390 . S
C915 C914 1.387 . S
C915 C917 1.387 . S
H916 C923 0.950 . S
C917 C915 1.387 . S
C917 C919 1.390 . S
C917 H921 0.950 1_565 S
H918 C914 0.950 . S
C919 C917 1.390 . S
C919 C920 1.387 . S
C919 H922 0.950 . S
C920 C919 1.387 . S
C920 C923 1.387 . S
H921 C917 0.950 1_545 S
H922 C919 0.950 . S
C923 C914 1.390 . S
C923 H916 0.950 . S
C923 C920 1.387 . S
C924 C925 1.387 . S
C924 H928 0.950 . S
C924 C933 1.390 . S
C925 C924 1.387 . S
C925 C927 1.387 . S
H926 C933 0.950 . S
C927 C925 1.387 . S
C927 C929 1.390 . S
C927 H931 0.950 . S
H928 C924 0.950 . S
C929 C927 1.390 . S
C929 C930 1.387 . S
C929 H932 0.950 . S
C930 C929 1.387 . S
C930 C933 1.387 . S
H931 C927 0.950 . S
H932 C929 0.950 . S
C933 C924 1.390 . S
C933 H926 0.950 . S
C933 C930 1.387 . S
C934 C935 1.387 1_554 S
C934 H938 0.950 . S
C934 C943 1.390 1_554 S
C935 C934 1.387 1_556 S
C935 C937 1.387 . S
H936 C943 0.956 . S
C937 C935 1.387 . S
C937 C939 1.390 . S
C937 H941 0.950 1_545 S
H938 C934 0.950 . S
C939 C937 1.390 . S
C939 C940 1.387 . S
C939 H942 0.950 . S
C940 C939 1.387 . S
C940 C943 1.387 . S
H941 C937 0.950 1_565 S
H942 C939 0.950 . S
C943 C934 1.390 1_556 S
C943 H936 0.956 . S
C943 C940 1.387 . S
C944 C945 1.387 . S
C944 H948 0.950 . S
C944 C953 1.390 . S
C945 C944 1.387 . S
C945 C947 1.387 . S
H946 C953 0.950 . S
C947 C945 1.387 . S
C947 C949 1.390 . S
C947 H951 0.950 . S
H948 C944 0.950 . S
C949 C947 1.390 . S
C949 C950 1.387 . S
C949 H952 0.950 . S
C950 C949 1.387 . S
C950 C953 1.387 . S
H951 C947 0.950 . S
H952 C949 0.950 . S
C953 C944 1.390 . S
C953 H946 0.950 . S
C953 C950 1.387 . S
C954 C955 1.387 1_565 S
C954 H958 0.950 . S
C954 C963 1.390 1_565 S
C955 C954 1.387 1_545 S
C955 C957 1.387 . S
H956 C963 0.950 . S
C957 C955 1.387 . S
C957 C959 1.390 . S
C957 H961 0.950 1_455 S
H958 C954 0.950 . S
C959 C957 1.390 . S
C959 C960 1.387 . S
C959 H962 0.950 . S
C960 C959 1.387 . S
C960 C963 1.387 . S
H961 C957 0.950 1_655 S
H962 C959 0.950 . S
C963 C954 1.390 1_545 S
C963 H956 0.950 . S
C963 C960 1.387 . S
C964 C965 1.387 . S
C964 H968 0.950 . S
C964 C973 1.390 . S
C965 C964 1.387 . S
C965 C967 1.387 . S
H966 C973 0.950 . S
C967 C965 1.387 . S
C967 C969 1.390 . S
C967 H971 0.950 . S
H968 C964 0.950 . S
C969 C967 1.390 . S
C969 C970 1.387 . S
C969 H972 0.950 . S
C970 C969 1.387 . S
C970 C973 1.387 . S
H971 C967 0.950 . S
H972 C969 0.950 . S
C973 C964 1.390 . S
C973 H966 0.950 . S
C973 C970 1.387 . S
C974 C975 1.387 . S
C974 H978 0.950 . S
C974 C983 1.390 . S
C975 C974 1.387 . S
C975 C977 1.387 1_565 S
H976 C983 0.950 . S
C977 C975 1.387 1_545 S
C977 C979 1.374 1_545 S
C977 H981 0.950 . S
H978 C974 0.950 . S
C979 C977 1.374 1_565 S
C979 C980 1.422 . S
C979 H982 0.932 1_565 S
C980 C979 1.422 . S
C980 C983 1.387 . S
H981 C977 0.950 . S
H982 C979 0.932 1_545 S
C983 C974 1.390 . S
C983 H976 0.950 . S
C983 C980 1.387 . S
C984 C985 1.387 . S
C984 H988 0.950 . S
C984 C993 1.390 . S
C985 C984 1.387 . S
C985 C987 1.387 . S
H986 C993 0.950 . S
C987 C985 1.387 . S
C987 C989 1.390 . S
C987 H991 0.950 . S
H988 C984 0.950 . S
C989 C987 1.390 . S
C989 C990 1.387 . S
C989 H992 0.950 . S
C990 C989 1.387 . S
C990 C993 1.387 . S
H991 C987 0.950 . S
H992 C989 0.950 . S
C993 C984 1.390 . S
C993 H986 0.950 . S
C993 C990 1.387 . S
C994 C995 1.387 . S
C994 H998 0.950 . S
C994 C1003 1.390 . S
C995 C994 1.387 . S
C995 C997 1.387 1_545 S
H996 C1003 0.950 . S
C997 C995 1.387 1_565 S
C997 C999 1.375 1_565 S
C997 H1001 0.950 . S
H998 C994 0.950 . S
C999 C997 1.375 1_545 S
C999 C1000 1.419 . S
C999 H1002 0.934 1_545 S
C1000 C999 1.419 . S
C1000 C1003 1.387 . S
H1001 C997 0.950 . S
H1002 C999 0.934 1_565 S
C1003 C994 1.390 . S
C1003 H996 0.950 . S
C1003 C1000 1.387 . S
C1004 C1005 1.387 . S
C1004 H1008 0.950 . S
C1004 C1013 1.390 . S
C1005 C1004 1.387 . S
C1005 C1007 1.387 . S
H1006 C1013 0.950 . S
C1007 C1005 1.387 . S
C1007 C1009 1.390 . S
C1007 H1011 0.950 . S
H1008 C1004 0.950 . S
C1009 C1007 1.390 . S
C1009 C1010 1.387 . S
C1009 H1012 0.950 . S
C1010 C1009 1.387 . S
C1010 C1013 1.387 . S
H1011 C1007 0.950 . S
H1012 C1009 0.950 . S
C1013 C1004 1.390 . S
C1013 H1006 0.950 . S
C1013 C1010 1.387 . S
C1014 C1015 1.387 . S
C1014 H1018 0.950 . S
C1014 C1023 1.390 . S
C1015 C1014 1.387 . S
C1015 C1017 1.387 . S
H1016 C1023 0.950 . S
C1017 C1015 1.387 . S
C1017 C1019 1.390 1_565 S
C1017 H1021 0.950 1_565 S
H1018 C1014 0.950 . S
C1019 C1017 1.390 1_545 S
C1019 C1020 1.387 1_545 S
C1019 H1022 0.950 . S
C1020 C1019 1.387 1_565 S
C1020 C1023 1.387 . S
H1021 C1017 0.950 1_545 S
H1022 C1019 0.950 . S
C1023 C1014 1.390 . S
C1023 H1016 0.950 . S
C1023 C1020 1.387 . S
C1024 C1025 1.387 . S
C1024 H1028 0.950 . S
C1024 C1033 1.390 . S
C1025 C1024 1.387 . S
C1025 C1027 1.387 . S
H1026 C1033 0.950 . S
C1027 C1025 1.387 . S
C1027 C1029 1.390 . S
C1027 H1031 0.950 . S
H1028 C1024 0.950 . S
C1029 C1027 1.390 . S
C1029 C1030 1.387 . S
C1029 H1032 0.950 . S
C1030 C1029 1.387 . S
C1030 C1033 1.387 . S
H1031 C1027 0.950 . S
H1032 C1029 0.950 . S
C1033 C1024 1.390 . S
C1033 H1026 0.950 . S
C1033 C1030 1.387 . S
C1034 C1035 1.387 . S
C1034 H1038 0.950 . S
C1034 C1043 1.390 . S
C1035 C1034 1.387 . S
C1035 C1037 1.387 . S
H1036 C1043 0.950 . S
C1037 C1035 1.387 . S
C1037 C1039 1.390 . S
C1037 H1041 0.950 . S
H1038 C1034 0.950 . S
C1039 C1037 1.390 . S
C1039 C1040 1.387 . S
C1039 H1042 0.950 . S
C1040 C1039 1.387 . S
C1040 C1043 1.387 . S
H1041 C1037 0.950 . S
H1042 C1039 0.950 . S
C1043 C1034 1.390 . S
C1043 H1036 0.950 . S
C1043 C1040 1.387 . S
C1044 C1045 1.387 . S
C1044 H1048 0.950 1_554 S
C1044 C1053 1.390 . S
C1045 C1044 1.387 . S
C1045 C1047 1.387 . S
H1046 C1053 0.950 . S
C1047 C1045 1.387 . S
C1047 C1049 1.390 . S
C1047 H1051 0.950 1_455 S
H1048 C1044 0.950 1_556 S
C1049 C1047 1.390 . S
C1049 C1050 1.387 . S
C1049 H1052 0.950 . S
C1050 C1049 1.387 . S
C1050 C1053 1.387 . S
H1051 C1047 0.950 1_655 S
H1052 C1049 0.950 . S
C1053 C1044 1.390 . S
C1053 H1046 0.950 . S
C1053 C1050 1.387 . S
C1054 C1055 1.387 . S
C1054 H1058 0.950 . S
C1054 C1063 1.390 . S
C1055 C1054 1.387 . S
C1055 C1057 1.387 . S
H1056 C1063 0.950 . S
C1057 C1055 1.387 . S
C1057 C1059 1.390 . S
C1057 H1061 0.950 . S
H1058 C1054 0.950 . S
C1059 C1057 1.390 . S
C1059 C1060 1.387 . S
C1059 H1062 0.950 . S
C1060 C1059 1.387 . S
C1060 C1063 1.387 . S
H1061 C1057 0.950 . S
H1062 C1059 0.950 . S
C1063 C1054 1.390 . S
C1063 H1056 0.950 . S
C1063 C1060 1.387 . S
C1064 C1065 1.387 . S
C1064 H1068 0.950 . S
C1064 C1073 1.390 . S
C1065 C1064 1.387 . S
C1065 C1067 1.387 . S
H1066 C1073 0.950 . S
C1067 C1065 1.387 . S
C1067 C1069 1.390 . S
C1067 H1071 0.950 1_654 S
H1068 C1064 0.950 . S
C1069 C1067 1.390 . S
C1069 C1070 1.387 . S
C1069 H1072 0.950 . S
C1070 C1069 1.387 . S
C1070 C1073 1.387 . S
H1071 C1067 0.950 1_456 S
H1072 C1069 0.950 . S
C1073 C1064 1.390 . S
C1073 H1066 0.950 . S
C1073 C1070 1.387 . S
C1074 C1075 1.387 . S
C1074 H1078 0.950 . S
C1074 C1083 1.390 . S
C1075 C1074 1.387 . S
C1075 C1077 1.387 . S
H1076 C1083 0.950 . S
C1077 C1075 1.387 . S
C1077 C1079 1.390 . S
C1077 H1081 0.950 . S
H1078 C1074 0.950 . S
C1079 C1077 1.390 . S
C1079 C1080 1.387 . S
C1079 H1082 0.950 . S
C1080 C1079 1.387 . S
C1080 C1083 1.387 . S
H1081 C1077 0.950 . S
H1082 C1079 0.950 . S
C1083 C1074 1.390 . S
C1083 H1076 0.950 . S
C1083 C1080 1.387 . S
C1084 C1085 1.387 . S
C1084 H1088 0.950 . S
C1084 C1093 1.390 . S
C1085 C1084 1.387 . S
C1085 C1087 1.386 1_455 S
H1086 C1093 0.950 . S
C1087 C1085 1.386 1_655 S
C1087 C1089 1.377 1_655 S
C1087 H1091 0.965 . S
H1088 C1084 0.950 . S
C1089 C1087 1.377 1_455 S
C1089 C1090 1.387 . S
C1089 H1092 0.950 . S
C1090 C1089 1.387 . S
C1090 C1093 1.387 . S
H1091 C1087 0.965 . S
H1092 C1089 0.950 . S
C1093 C1084 1.390 . S
C1093 H1086 0.950 . S
C1093 C1090 1.387 . S
C1094 C1095 1.387 . S
C1094 H1098 0.950 . S
C1094 C1103 1.390 . S
C1095 C1094 1.387 . S
C1095 C1097 1.387 . S
H1096 C1103 0.950 1_554 S
C1097 C1095 1.387 . S
C1097 C1099 1.390 . S
C1097 H1101 0.950 . S
H1098 C1094 0.950 . S
C1099 C1097 1.390 . S
C1099 C1100 1.387 . S
C1099 H1102 0.950 . S
C1100 C1099 1.387 . S
C1100 C1103 1.387 . S
H1101 C1097 0.950 . S
H1102 C1099 0.950 . S
C1103 C1094 1.390 . S
C1103 H1096 0.950 1_556 S
C1103 C1100 1.387 . S
C1104 C1105 1.387 . S
C1104 H1108 0.950 . S
C1104 C1113 1.390 . S
C1105 C1104 1.387 . S
C1105 C1107 1.387 . S
H1106 C1113 0.950 . S
C1107 C1105 1.387 . S
C1107 C1109 1.390 . S
C1107 H1111 0.950 . S
H1108 C1104 0.950 . S
C1109 C1107 1.390 . S
C1109 C1110 1.387 . S
C1109 H1112 0.950 . S
C1110 C1109 1.387 . S
C1110 C1113 1.387 . S
H1111 C1107 0.950 . S
H1112 C1109 0.950 . S
C1113 C1104 1.390 . S
C1113 H1106 0.950 . S
C1113 C1110 1.387 . S
C1114 C1115 1.387 . S
C1114 H1118 0.950 . S
C1114 C1123 1.390 . S
C1115 C1114 1.387 . S
C1115 C1117 1.387 . S
H1116 C1123 0.950 . S
C1117 C1115 1.387 . S
C1117 C1119 1.390 . S
C1117 H1121 0.950 . S
H1118 C1114 0.950 . S
C1119 C1117 1.390 . S
C1119 C1120 1.387 . S
C1119 H1122 0.950 . S
C1120 C1119 1.387 . S
C1120 C1123 1.387 . S
H1121 C1117 0.950 . S
H1122 C1119 0.950 . S
C1123 C1114 1.390 . S
C1123 H1116 0.950 . S
C1123 C1120 1.387 . S
C1124 C1125 1.387 . S
C1124 H1128 0.950 . S
C1124 C1133 1.390 . S
C1125 C1124 1.387 . S
C1125 C1127 1.387 . S
H1126 C1133 0.950 . S
C1127 C1125 1.387 . S
C1127 C1129 1.390 . S
C1127 H1131 0.950 . S
H1128 C1124 0.950 . S
C1129 C1127 1.390 . S
C1129 C1130 1.387 . S
C1129 H1132 0.950 . S
C1130 C1129 1.387 . S
C1130 C1133 1.387 . S
H1131 C1127 0.950 . S
H1132 C1129 0.950 . S
C1133 C1124 1.390 . S
C1133 H1126 0.950 . S
C1133 C1130 1.387 . S
C1134 C1135 1.387 . S
C1134 H1138 0.950 . S
C1134 C1143 1.390 . S
C1135 C1134 1.387 . S
C1135 C1137 1.387 . S
H1136 C1143 0.950 . S
C1137 C1135 1.387 . S
C1137 C1139 1.390 . S
C1137 H1141 0.950 . S
H1138 C1134 0.950 . S
C1139 C1137 1.390 . S
C1139 C1140 1.387 . S
C1139 H1142 0.950 . S
C1140 C1139 1.387 . S
C1140 C1143 1.387 . S
H1141 C1137 0.950 . S
H1142 C1139 0.950 . S
C1143 C1134 1.390 . S
C1143 H1136 0.950 . S
C1143 C1140 1.387 . S
C1144 C1145 1.387 . S
C1144 H1148 0.950 . S
C1144 C1153 1.390 . S
C1145 C1144 1.387 . S
C1145 C1147 1.387 . S
H1146 C1153 0.950 . S
C1147 C1145 1.387 . S
C1147 C1149 1.390 . S
C1147 H1151 0.950 . S
H1148 C1144 0.950 . S
C1149 C1147 1.390 . S
C1149 C1150 1.387 . S
C1149 H1152 0.950 . S
C1150 C1149 1.387 . S
C1150 C1153 1.387 . S
H1151 C1147 0.950 . S
H1152 C1149 0.950 . S
C1153 C1144 1.390 . S
C1153 H1146 0.950 . S
C1153 C1150 1.387 . S
C1154 C1155 1.387 . S
C1154 H1158 0.950 1_556 S
C1154 C1163 1.390 1_556 S
C1155 C1154 1.387 . S
C1155 C1157 1.387 . S
H1156 C1163 0.950 . S
C1157 C1155 1.387 . S
C1157 C1159 1.390 . S
C1157 H1161 0.950 . S
H1158 C1154 0.950 1_554 S
C1159 C1157 1.390 . S
C1159 C1160 1.387 . S
C1159 H1162 0.950 . S
C1160 C1159 1.387 . S
C1160 C1163 1.387 1_556 S
H1161 C1157 0.950 . S
H1162 C1159 0.950 . S
C1163 C1154 1.390 1_554 S
C1163 H1156 0.950 . S
C1163 C1160 1.387 1_554 S
C1164 C1165 1.387 . S
C1164 H1168 0.950 . S
C1164 C1173 1.390 . S
C1165 C1164 1.387 . S
C1165 C1167 1.387 . S
H1166 C1173 0.950 . S
C1167 C1165 1.387 . S
C1167 C1169 1.390 . S
C1167 H1171 0.950 . S
H1168 C1164 0.950 . S
C1169 C1167 1.390 . S
C1169 C1170 1.387 . S
C1169 H1172 0.950 . S
C1170 C1169 1.387 . S
C1170 C1173 1.387 . S
H1171 C1167 0.950 . S
H1172 C1169 0.950 . S
C1173 C1164 1.390 . S
C1173 H1166 0.950 . S
C1173 C1170 1.387 . S
C1174 C1175 1.387 . S
C1174 H1178 0.950 . S
C1174 C1183 1.390 . S
C1175 C1174 1.387 . S
C1175 C1177 1.387 . S
H1176 C1183 0.950 . S
C1177 C1175 1.387 . S
C1177 C1179 1.390 . S
C1177 H1181 0.950 . S
H1178 C1174 0.950 . S
C1179 C1177 1.390 . S
C1179 C1180 1.387 . S
C1179 H1182 0.950 . S
C1180 C1179 1.387 . S
C1180 C1183 1.387 . S
H1181 C1177 0.950 . S
H1182 C1179 0.950 . S
C1183 C1174 1.390 . S
C1183 H1176 0.950 . S
C1183 C1180 1.387 . S
C1184 C1185 1.387 . S
C1184 H1188 0.950 . S
C1184 C1193 1.390 . S
C1185 C1184 1.387 . S
C1185 C1187 1.387 . S
H1186 C1193 0.950 . S
C1187 C1185 1.387 . S
C1187 C1189 1.390 . S
C1187 H1191 0.950 . S
H1188 C1184 0.950 . S
C1189 C1187 1.390 . S
C1189 C1190 1.387 . S
C1189 H1192 0.950 . S
C1190 C1189 1.387 . S
C1190 C1193 1.387 . S
H1191 C1187 0.950 . S
H1192 C1189 0.950 . S
C1193 C1184 1.390 . S
C1193 H1186 0.950 . S
C1193 C1190 1.387 . S
C1194 C1195 1.387 . S
C1194 H1198 0.950 . S
C1194 C1203 1.390 . S
C1195 C1194 1.387 . S
C1195 C1197 1.387 . S
H1196 C1203 0.950 . S
C1197 C1195 1.387 . S
C1197 C1199 1.390 . S
C1197 H1201 0.950 . S
H1198 C1194 0.950 . S
C1199 C1197 1.390 . S
C1199 C1200 1.387 . S
C1199 H1202 0.950 . S
C1200 C1199 1.387 . S
C1200 C1203 1.387 . S
H1201 C1197 0.950 . S
H1202 C1199 0.950 . S
C1203 C1194 1.390 . S
C1203 H1196 0.950 . S
C1203 C1200 1.387 . S
C1204 C1205 1.387 . S
C1204 H1208 0.950 . S
C1204 C1213 1.390 . S
C1205 C1204 1.387 . S
C1205 C1207 1.387 . S
H1206 C1213 0.950 . S
C1207 C1205 1.387 . S
C1207 C1209 1.390 . S
C1207 H1211 0.950 . S
H1208 C1204 0.950 . S
C1209 C1207 1.390 . S
C1209 C1210 1.387 . S
C1209 H1212 0.950 . S
C1210 C1209 1.387 . S
C1210 C1213 1.387 . S
H1211 C1207 0.950 . S
H1212 C1209 0.950 . S
C1213 C1204 1.390 . S
C1213 H1206 0.950 . S
C1213 C1210 1.387 . S
C1214 C1215 1.387 . S
C1214 H1218 0.950 . S
C1214 C1223 1.390 . S
C1215 C1214 1.387 . S
C1215 C1217 1.387 . S
H1216 C1223 0.950 . S
C1217 C1215 1.387 . S
C1217 C1219 1.390 . S
C1217 H1221 0.950 . S
H1218 C1214 0.950 . S
C1219 C1217 1.390 . S
C1219 C1220 1.387 . S
C1219 H1222 0.950 . S
C1220 C1219 1.387 . S
C1220 C1223 1.387 . S
H1221 C1217 0.950 . S
H1222 C1219 0.950 . S
C1223 C1214 1.390 . S
C1223 H1216 0.950 . S
C1223 C1220 1.387 . S
C1224 C1225 1.387 . S
C1224 H1228 0.950 . S
C1224 C1233 1.390 . S
C1225 C1224 1.387 . S
C1225 C1227 1.387 . S
H1226 C1233 0.950 . S
C1227 C1225 1.387 . S
C1227 C1229 1.390 . S
C1227 H1231 0.950 . S
H1228 C1224 0.950 . S
C1229 C1227 1.390 . S
C1229 C1230 1.387 . S
C1229 H1232 0.950 . S
C1230 C1229 1.387 . S
C1230 C1233 1.387 . S
H1231 C1227 0.950 . S
H1232 C1229 0.950 . S
C1233 C1224 1.390 . S
C1233 H1226 0.950 . S
C1233 C1230 1.387 . S
C1234 C1235 1.387 . S
C1234 H1238 0.950 . S
C1234 C1243 1.390 . S
C1235 C1234 1.387 . S
C1235 C1237 1.387 . S
H1236 C1243 0.950 . S
C1237 C1235 1.387 . S
C1237 C1239 1.390 . S
C1237 H1241 0.950 . S
H1238 C1234 0.950 . S
C1239 C1237 1.390 . S
C1239 C1240 1.387 . S
C1239 H1242 0.950 . S
C1240 C1239 1.387 . S
C1240 C1243 1.387 . S
H1241 C1237 0.950 . S
H1242 C1239 0.950 . S
C1243 C1234 1.390 . S
C1243 H1236 0.950 . S
C1243 C1240 1.387 . S
C1244 C1245 1.387 . S
C1244 H1248 0.950 . S
C1244 C1253 1.390 . S
C1245 C1244 1.387 . S
C1245 C1247 1.387 . S
H1246 C1253 0.950 . S
C1247 C1245 1.387 . S
C1247 C1249 1.390 . S
C1247 H1251 0.950 . S
H1248 C1244 0.950 . S
C1249 C1247 1.390 . S
C1249 C1250 1.387 . S
C1249 H1252 0.950 . S
C1250 C1249 1.387 . S
C1250 C1253 1.387 . S
H1251 C1247 0.950 . S
H1252 C1249 0.950 . S
C1253 C1244 1.390 . S
C1253 H1246 0.950 . S
C1253 C1250 1.387 . S
C1254 C1255 1.387 . S
C1254 H1258 0.950 . S
C1254 C1263 1.390 . S
C1255 C1254 1.387 . S
C1255 C1257 1.387 . S
H1256 C1263 0.950 . S
C1257 C1255 1.387 . S
C1257 C1259 1.390 . S
C1257 H1261 0.950 . S
H1258 C1254 0.950 . S
C1259 C1257 1.390 . S
C1259 C1260 1.387 . S
C1259 H1262 0.950 . S
C1260 C1259 1.387 . S
C1260 C1263 1.387 . S
H1261 C1257 0.950 . S
H1262 C1259 0.950 . S
C1263 C1254 1.390 . S
C1263 H1256 0.950 . S
C1263 C1260 1.387 . S
C1264 C1265 1.387 . S
C1264 H1268 0.950 . S
C1264 C1273 1.390 . S
C1265 C1264 1.387 . S
C1265 C1267 1.387 . S
H1266 C1273 0.950 . S
C1267 C1265 1.387 . S
C1267 C1269 1.390 . S
C1267 H1271 0.950 . S
H1268 C1264 0.950 . S
C1269 C1267 1.390 . S
C1269 C1270 1.387 . S
C1269 H1272 0.950 . S
C1270 C1269 1.387 . S
C1270 C1273 1.387 . S
H1271 C1267 0.950 . S
H1272 C1269 0.950 . S
C1273 C1264 1.390 . S
C1273 H1266 0.950 . S
C1273 C1270 1.387 . S
C1274 C1275 1.387 . S
C1274 H1278 0.950 . S
C1274 C1283 1.390 . S
C1275 C1274 1.387 . S
C1275 C1277 1.387 . S
H1276 C1283 0.950 . S
C1277 C1275 1.387 . S
C1277 C1279 1.390 . S
C1277 H1281 0.950 . S
H1278 C1274 0.950 . S
C1279 C1277 1.390 . S
C1279 C1280 1.387 . S
C1279 H1282 0.950 . S
C1280 C1279 1.387 . S
C1280 C1283 1.387 . S
H1281 C1277 0.950 . S
H1282 C1279 0.950 . S
C1283 C1274 1.390 . S
C1283 H1276 0.950 . S
C1283 C1280 1.387 . S
C1284 C1285 1.387 . S
C1284 H1288 0.950 . S
C1284 C1293 1.390 . S
C1285 C1284 1.387 . S
C1285 C1287 1.387 . S
H1286 C1293 0.950 . S
C1287 C1285 1.387 . S
C1287 C1289 1.390 . S
C1287 H1291 0.950 . S
H1288 C1284 0.950 . S
C1289 C1287 1.390 . S
C1289 C1290 1.387 . S
C1289 H1292 0.950 . S
C1290 C1289 1.387 . S
C1290 C1293 1.387 . S
H1291 C1287 0.950 . S
H1292 C1289 0.950 . S
C1293 C1284 1.390 . S
C1293 H1286 0.950 . S
C1293 C1290 1.387 . S
C1294 C1295 1.387 . S
C1294 H1298 0.950 . S
C1294 C1303 1.390 . S
C1295 C1294 1.387 . S
C1295 C1297 1.387 . S
H1296 C1303 0.950 . S
C1297 C1295 1.387 . S
C1297 C1299 1.390 . S
C1297 H1301 0.950 . S
H1298 C1294 0.950 . S
C1299 C1297 1.390 . S
C1299 C1300 1.387 . S
C1299 H1302 0.950 . S
C1300 C1299 1.387 . S
C1300 C1303 1.387 . S
H1301 C1297 0.950 . S
H1302 C1299 0.950 . S
C1303 C1294 1.390 . S
C1303 H1296 0.950 . S
C1303 C1300 1.387 . S
C1304 C1305 1.387 . S
C1304 H1308 0.950 . S
C1304 C1313 1.390 . S
C1305 C1304 1.387 . S
C1305 C1307 1.387 . S
H1306 C1313 0.950 . S
C1307 C1305 1.387 . S
C1307 C1309 1.390 . S
C1307 H1311 0.950 . S
H1308 C1304 0.950 . S
C1309 C1307 1.390 . S
C1309 C1310 1.387 . S
C1309 H1312 0.950 . S
C1310 C1309 1.387 . S
C1310 C1313 1.387 . S
H1311 C1307 0.950 . S
H1312 C1309 0.950 . S
C1313 C1304 1.390 . S
C1313 H1306 0.950 . S
C1313 C1310 1.387 . S
C1314 C1315 1.387 . S
C1314 H1318 0.950 . S
C1314 C1323 1.390 . S
C1315 C1314 1.387 . S
C1315 C1317 1.387 . S
H1316 C1323 0.950 . S
C1317 C1315 1.387 . S
C1317 C1319 1.390 . S
C1317 H1321 0.950 . S
H1318 C1314 0.950 . S
C1319 C1317 1.390 . S
C1319 C1320 1.387 . S
C1319 H1322 0.950 . S
C1320 C1319 1.387 . S
C1320 C1323 1.387 . S
H1321 C1317 0.950 . S
H1322 C1319 0.950 . S
C1323 C1314 1.390 . S
C1323 H1316 0.950 . S
C1323 C1320 1.387 . S
C1324 C1325 1.387 . S
C1324 H1328 0.950 . S
C1324 C1333 1.390 . S
C1325 C1324 1.387 . S
C1325 C1327 1.387 . S
H1326 C1333 0.950 . S
C1327 C1325 1.387 . S
C1327 C1329 1.390 . S
C1327 H1331 0.950 1_556 S
H1328 C1324 0.950 . S
C1329 C1327 1.390 . S
C1329 C1330 1.387 . S
C1329 H1332 0.950 . S
C1330 C1329 1.387 . S
C1330 C1333 1.387 . S
H1331 C1327 0.950 1_554 S
H1332 C1329 0.950 . S
C1333 C1324 1.390 . S
C1333 H1326 0.950 . S
C1333 C1330 1.387 . S
C1334 C1335 1.387 1_455 S
C1334 H1338 0.950 . S
C1334 C1343 1.390 1_455 S
C1335 C1334 1.387 1_655 S
C1335 C1337 1.387 . S
H1336 C1343 0.950 . S
C1337 C1335 1.387 . S
C1337 C1339 1.390 . S
C1337 H1341 0.950 . S
H1338 C1334 0.950 . S
C1339 C1337 1.390 . S
C1339 C1340 1.387 . S
C1339 H1342 0.950 . S
C1340 C1339 1.387 . S
C1340 C1343 1.387 . S
H1341 C1337 0.950 . S
H1342 C1339 0.950 . S
C1343 C1334 1.390 1_655 S
C1343 H1336 0.950 . S
C1343 C1340 1.387 . S
C1344 C1345 1.387 . S
C1344 H1348 0.950 . S
C1344 C1353 1.390 . S
C1345 C1344 1.387 . S
C1345 C1347 1.387 . S
H1346 C1353 0.950 . S
C1347 C1345 1.387 . S
C1347 C1349 1.390 . S
C1347 H1351 0.950 . S
H1348 C1344 0.950 . S
C1349 C1347 1.390 . S
C1349 C1350 1.387 . S
C1349 H1352 0.950 . S
C1350 C1349 1.387 . S
C1350 C1353 1.387 . S
H1351 C1347 0.950 . S
H1352 C1349 0.950 . S
C1353 C1344 1.390 . S
C1353 H1346 0.950 . S
C1353 C1350 1.387 . S
C1354 C1355 1.387 . S
C1354 H1358 0.950 . S
C1354 C1363 1.390 . S
C1355 C1354 1.387 . S
C1355 C1357 1.387 . S
H1356 C1363 0.950 . S
C1357 C1355 1.387 . S
C1357 C1359 1.390 . S
C1357 H1361 0.950 . S
H1358 C1354 0.950 . S
C1359 C1357 1.390 . S
C1359 C1360 1.387 . S
C1359 H1362 0.950 . S
C1360 C1359 1.387 . S
C1360 C1363 1.387 . S
H1361 C1357 0.950 . S
H1362 C1359 0.950 . S
C1363 C1354 1.390 . S
C1363 H1356 0.950 . S
C1363 C1360 1.387 . S
C1364 C1365 1.387 . S
C1364 H1368 0.950 . S
C1364 C1373 1.390 . S
C1365 C1364 1.387 . S
C1365 C1367 1.387 . S
H1366 C1373 0.950 . S
C1367 C1365 1.387 . S
C1367 C1369 1.390 . S
C1367 H1371 0.950 . S
H1368 C1364 0.950 . S
C1369 C1367 1.390 . S
C1369 C1370 1.387 . S
C1369 H1372 0.950 . S
C1370 C1369 1.387 . S
C1370 C1373 1.387 . S
H1371 C1367 0.950 . S
H1372 C1369 0.950 . S
C1373 C1364 1.390 . S
C1373 H1366 0.950 . S
C1373 C1370 1.387 . S
C1374 C1375 1.387 . S
C1374 H1378 0.950 . S
C1374 C1383 1.390 . S
C1375 C1374 1.387 . S
C1375 C1377 1.387 . S
H1376 C1383 0.950 . S
C1377 C1375 1.387 . S
C1377 C1379 1.390 . S
C1377 H1381 0.950 . S
H1378 C1374 0.950 . S
C1379 C1377 1.390 . S
C1379 C1380 1.387 . S
C1379 H1382 0.950 . S
C1380 C1379 1.387 . S
C1380 C1383 1.387 . S
H1381 C1377 0.950 . S
H1382 C1379 0.950 . S
C1383 C1374 1.390 . S
C1383 H1376 0.950 . S
C1383 C1380 1.387 . S
C1384 C1385 1.387 . S
C1384 H1388 0.950 . S
C1384 C1393 1.390 . S
C1385 C1384 1.387 . S
C1385 C1387 1.387 . S
H1386 C1393 0.950 . S
C1387 C1385 1.387 . S
C1387 C1389 1.390 . S
C1387 H1391 0.950 . S
H1388 C1384 0.950 . S
C1389 C1387 1.390 . S
C1389 C1390 1.387 . S
C1389 H1392 0.950 . S
C1390 C1389 1.387 . S
C1390 C1393 1.387 . S
H1391 C1387 0.950 . S
H1392 C1389 0.950 . S
C1393 C1384 1.390 . S
C1393 H1386 0.950 . S
C1393 C1390 1.387 . S
C1394 C1395 1.387 . S
C1394 H1398 0.950 . S
C1394 C1403 1.390 . S
C1395 C1394 1.387 . S
C1395 C1397 1.387 . S
H1396 C1403 0.950 . S
C1397 C1395 1.387 . S
C1397 C1399 1.390 . S
C1397 H1401 0.950 . S
H1398 C1394 0.950 . S
C1399 C1397 1.390 . S
C1399 C1400 1.387 . S
C1399 H1402 0.950 . S
C1400 C1399 1.387 . S
C1400 C1403 1.387 . S
H1401 C1397 0.950 . S
H1402 C1399 0.950 . S
C1403 C1394 1.390 . S
C1403 H1396 0.950 . S
C1403 C1400 1.387 . S
C1404 C1405 1.387 . S
C1404 H1408 0.950 . S
C1404 C1413 1.390 . S
C1405 C1404 1.387 . S
C1405 C1407 1.387 . S
H1406 C1413 0.950 . S
C1407 C1405 1.387 . S
C1407 C1409 1.390 . S
C1407 H1411 0.950 . S
H1408 C1404 0.950 . S
C1409 C1407 1.390 . S
C1409 C1410 1.387 . S
C1409 H1412 0.950 . S
C1410 C1409 1.387 . S
C1410 C1413 1.387 . S
H1411 C1407 0.950 . S
H1412 C1409 0.950 . S
C1413 C1404 1.390 . S
C1413 H1406 0.950 . S
C1413 C1410 1.387 . S
C1414 C1415 1.387 . S
C1414 H1418 0.950 . S
C1414 C1423 1.390 . S
C1415 C1414 1.387 . S
C1415 C1417 1.387 . S
H1416 C1423 0.950 . S
C1417 C1415 1.387 . S
C1417 C1419 1.390 . S
C1417 H1421 0.950 . S
H1418 C1414 0.950 . S
C1419 C1417 1.390 . S
C1419 C1420 1.387 . S
C1419 H1422 0.950 . S
C1420 C1419 1.387 . S
C1420 C1423 1.387 . S
H1421 C1417 0.950 . S
H1422 C1419 0.950 . S
C1423 C1414 1.390 . S
C1423 H1416 0.950 . S
C1423 C1420 1.387 . S
C1424 C1425 1.387 . S
C1424 H1428 0.950 . S
C1424 C1433 1.390 . S
C1425 C1424 1.387 . S
C1425 C1427 1.387 . S
H1426 C1433 0.950 . S
C1427 C1425 1.387 . S
C1427 C1429 1.390 . S
C1427 H1431 0.950 . S
H1428 C1424 0.950 . S
C1429 C1427 1.390 . S
C1429 C1430 1.387 . S
C1429 H1432 0.950 . S
C1430 C1429 1.387 . S
C1430 C1433 1.387 . S
H1431 C1427 0.950 . S
H1432 C1429 0.950 . S
C1433 C1424 1.390 . S
C1433 H1426 0.950 . S
C1433 C1430 1.387 . S
C1434 C1435 1.387 . S
C1434 H1438 0.950 . S
C1434 C1443 1.390 . S
C1435 C1434 1.387 . S
C1435 C1437 1.387 . S
H1436 C1443 0.950 . S
C1437 C1435 1.387 . S
C1437 C1439 1.390 . S
C1437 H1441 0.950 . S
H1438 C1434 0.950 . S
C1439 C1437 1.390 . S
C1439 C1440 1.387 . S
C1439 H1442 0.950 . S
C1440 C1439 1.387 . S
C1440 C1443 1.387 . S
H1441 C1437 0.950 . S
H1442 C1439 0.950 . S
C1443 C1434 1.390 . S
C1443 H1436 0.950 . S
C1443 C1440 1.387 . S
C1444 C1445 1.387 . S
C1444 H1448 0.950 . S
C1444 C1453 1.390 . S
C1445 C1444 1.387 . S
C1445 C1447 1.387 . S
H1446 C1453 0.950 . S
C1447 C1445 1.387 . S
C1447 C1449 1.390 . S
C1447 H1451 0.950 . S
H1448 C1444 0.950 . S
C1449 C1447 1.390 . S
C1449 C1450 1.387 . S
C1449 H1452 0.950 . S
C1450 C1449 1.387 . S
C1450 C1453 1.387 . S
H1451 C1447 0.950 . S
H1452 C1449 0.950 . S
C1453 C1444 1.390 . S
C1453 H1446 0.950 . S
C1453 C1450 1.387 . S
C1454 C1455 1.387 . S
C1454 H1458 0.950 . S
C1454 C1463 1.390 . S
C1455 C1454 1.387 . S
C1455 C1457 1.387 . S
H1456 C1463 0.950 . S
C1457 C1455 1.387 . S
C1457 C1459 1.390 . S
C1457 H1461 0.950 . S
H1458 C1454 0.950 . S
C1459 C1457 1.390 . S
C1459 C1460 1.387 . S
C1459 H1462 0.950 . S
C1460 C1459 1.387 . S
C1460 C1463 1.387 . S
H1461 C1457 0.950 . S
H1462 C1459 0.950 . S
C1463 C1454 1.390 . S
C1463 H1456 0.950 . S
C1463 C1460 1.387 . S
C1464 C1465 1.387 . S
C1464 H1468 0.950 . S
C1464 C1473 1.390 . S
C1465 C1464 1.387 . S
C1465 C1467 1.387 . S
H1466 C1473 0.950 . S
C1467 C1465 1.387 . S
C1467 C1469 1.390 . S
C1467 H1471 0.950 . S
H1468 C1464 0.950 . S
C1469 C1467 1.390 . S
C1469 C1470 1.387 . S
C1469 H1472 0.950 . S
C1470 C1469 1.387 . S
C1470 C1473 1.387 . S
H1471 C1467 0.950 . S
H1472 C1469 0.950 . S
C1473 C1464 1.390 . S
C1473 H1466 0.950 . S
C1473 C1470 1.387 . S
C1474 C1475 1.387 . S
C1474 H1478 0.950 . S
C1474 C1483 1.390 . S
C1475 C1474 1.387 . S
C1475 C1477 1.387 . S
H1476 C1483 0.950 . S
C1477 C1475 1.387 . S
C1477 C1479 1.390 . S
C1477 H1481 0.950 . S
H1478 C1474 0.950 . S
C1479 C1477 1.390 . S
C1479 C1480 1.387 . S
C1479 H1482 0.950 . S
C1480 C1479 1.387 . S
C1480 C1483 1.387 . S
H1481 C1477 0.950 . S
H1482 C1479 0.950 . S
C1483 C1474 1.390 . S
C1483 H1476 0.950 . S
C1483 C1480 1.387 . S
C1484 C1485 1.387 . S
C1484 H1488 0.950 . S
C1484 C1493 1.390 . S
C1485 C1484 1.387 . S
C1485 C1487 1.387 . S
H1486 C1493 0.950 . S
C1487 C1485 1.387 . S
C1487 C1489 1.390 . S
C1487 H1491 0.950 . S
H1488 C1484 0.950 . S
C1489 C1487 1.390 . S
C1489 C1490 1.387 . S
C1489 H1492 0.950 . S
C1490 C1489 1.387 . S
C1490 C1493 1.387 . S
H1491 C1487 0.950 . S
H1492 C1489 0.950 . S
C1493 C1484 1.390 . S
C1493 H1486 0.950 . S
C1493 C1490 1.387 . S
C1494 C1495 1.387 . S
C1494 H1498 0.950 . S
C1494 C1503 1.390 . S
C1495 C1494 1.387 . S
C1495 C1497 1.387 . S
H1496 C1503 0.950 . S
C1497 C1495 1.387 . S
C1497 C1499 1.390 . S
C1497 H1501 0.950 . S
H1498 C1494 0.950 . S
C1499 C1497 1.390 . S
C1499 C1500 1.387 . S
C1499 H1502 0.950 . S
C1500 C1499 1.387 . S
C1500 C1503 1.387 . S
H1501 C1497 0.950 . S
H1502 C1499 0.950 . S
C1503 C1494 1.390 . S
C1503 H1496 0.950 . S
C1503 C1500 1.387 . S
C1504 C1505 1.387 . S
C1504 H1508 0.950 . S
C1504 C1513 1.390 . S
C1505 C1504 1.387 . S
C1505 C1507 1.387 . S
H1506 C1513 0.950 . S
C1507 C1505 1.387 . S
C1507 C1509 1.390 . S
C1507 H1511 0.950 . S
H1508 C1504 0.950 . S
C1509 C1507 1.390 . S
C1509 C1510 1.387 . S
C1509 H1512 0.950 . S
C1510 C1509 1.387 . S
C1510 C1513 1.387 . S
H1511 C1507 0.950 . S
H1512 C1509 0.950 . S
C1513 C1504 1.390 . S
C1513 H1506 0.950 . S
C1513 C1510 1.387 . S
C1514 C1515 1.387 . S
C1514 H1518 0.950 . S
C1514 C1523 1.390 . S
C1515 C1514 1.387 . S
C1515 C1517 1.387 . S
H1516 C1523 0.950 . S
C1517 C1515 1.387 . S
C1517 C1519 1.390 . S
C1517 H1521 0.950 . S
H1518 C1514 0.950 . S
C1519 C1517 1.390 . S
C1519 C1520 1.387 . S
C1519 H1522 0.950 . S
C1520 C1519 1.387 . S
C1520 C1523 1.387 . S
H1521 C1517 0.950 . S
H1522 C1519 0.950 . S
C1523 C1514 1.390 . S
C1523 H1516 0.950 . S
C1523 C1520 1.387 . S
C1524 C1525 1.387 . S
C1524 H1528 0.950 . S
C1524 C1533 1.390 . S
C1525 C1524 1.387 . S
C1525 C1527 1.387 . S
H1526 C1533 0.950 . S
C1527 C1525 1.387 . S
C1527 C1529 1.390 . S
C1527 H1531 0.950 . S
H1528 C1524 0.950 . S
C1529 C1527 1.390 . S
C1529 C1530 1.387 . S
C1529 H1532 0.950 . S
C1530 C1529 1.387 . S
C1530 C1533 1.387 . S
H1531 C1527 0.950 . S
H1532 C1529 0.950 . S
C1533 C1524 1.390 . S
C1533 H1526 0.950 . S
C1533 C1530 1.387 . S
C1534 C1535 1.387 . S
C1534 H1538 0.950 . S
C1534 C1543 1.390 . S
C1535 C1534 1.387 . S
C1535 C1537 1.387 . S
H1536 C1543 0.950 . S
C1537 C1535 1.387 . S
C1537 C1539 1.390 . S
C1537 H1541 0.950 . S
H1538 C1534 0.950 . S
C1539 C1537 1.390 . S
C1539 C1540 1.387 . S
C1539 H1542 0.950 . S
C1540 C1539 1.387 . S
C1540 C1543 1.387 . S
H1541 C1537 0.950 . S
H1542 C1539 0.950 . S
C1543 C1534 1.390 . S
C1543 H1536 0.950 . S
C1543 C1540 1.387 . S
C1544 C1545 1.387 . S
C1544 H1548 0.950 . S
C1544 C1553 1.390 . S
C1545 C1544 1.387 . S
C1545 C1547 1.387 . S
H1546 C1553 0.950 . S
C1547 C1545 1.387 . S
C1547 C1549 1.390 . S
C1547 H1551 0.950 . S
H1548 C1544 0.950 . S
C1549 C1547 1.390 . S
C1549 C1550 1.387 . S
C1549 H1552 0.950 . S
C1550 C1549 1.387 . S
C1550 C1553 1.387 . S
H1551 C1547 0.950 . S
H1552 C1549 0.950 . S
C1553 C1544 1.390 . S
C1553 H1546 0.950 . S
C1553 C1550 1.387 . S
C1554 C1555 1.387 . S
C1554 H1558 0.950 . S
C1554 C1563 1.390 . S
C1555 C1554 1.387 . S
C1555 C1557 1.387 . S
H1556 C1563 0.950 . S
C1557 C1555 1.387 . S
C1557 C1559 1.390 . S
C1557 H1561 0.950 . S
H1558 C1554 0.950 . S
C1559 C1557 1.390 . S
C1559 C1560 1.387 . S
C1559 H1562 0.950 . S
C1560 C1559 1.387 . S
C1560 C1563 1.387 . S
H1561 C1557 0.950 . S
H1562 C1559 0.950 . S
C1563 C1554 1.390 . S
C1563 H1556 0.950 . S
C1563 C1560 1.387 . S
C1564 C1565 1.387 . S
C1564 H1568 0.950 . S
C1564 C1573 1.390 . S
C1565 C1564 1.387 . S
C1565 C1567 1.387 . S
H1566 C1573 0.950 . S
C1567 C1565 1.387 . S
C1567 C1569 1.390 . S
C1567 H1571 0.950 . S
H1568 C1564 0.950 . S
C1569 C1567 1.390 . S
C1569 C1570 1.387 . S
C1569 H1572 0.950 . S
C1570 C1569 1.387 . S
C1570 C1573 1.387 . S
H1571 C1567 0.950 . S
H1572 C1569 0.950 . S
C1573 C1564 1.390 . S
C1573 H1566 0.950 . S
C1573 C1570 1.387 . S
C1574 C1575 1.387 . S
C1574 H1578 0.950 . S
C1574 C1583 1.390 . S
C1575 C1574 1.387 . S
C1575 C1577 1.387 . S
H1576 C1583 0.950 . S
C1577 C1575 1.387 . S
C1577 C1579 1.390 . S
C1577 H1581 0.950 . S
H1578 C1574 0.950 . S
C1579 C1577 1.390 . S
C1579 C1580 1.387 . S
C1579 H1582 0.950 . S
C1580 C1579 1.387 . S
C1580 C1583 1.387 . S
H1581 C1577 0.950 . S
H1582 C1579 0.950 . S
C1583 C1574 1.390 . S
C1583 H1576 0.950 . S
C1583 C1580 1.387 . S
C625 C127 1.918 . S
C630 C10 1.919 . S
C635 C134 1.920 . S
C640 C23 1.919 . S
C645 C147 1.920 . S
C650 C36 1.920 . S
C655 C108 1.920 . S
C660 C43 1.919 . S
C665 C56 1.920 . S
C670 C205 1.920 . S
C675 C75 1.919 . S
C680 C166 1.919 . S
C685 C82 1.920 . S
C690 C179 1.920 . S
C695 C192 1.920 . S
C700 C101 1.919 . S
C705 C212 1.919 . S
C710 C238 1.918 . S
C715 C225 1.919 . S
C720 C602 1.919 . S
C725 C251 1.918 . S
C730 C615 1.919 . S
C735 C264 1.920 . S
C740 C589 1.919 . S
C745 C283 1.919 . S
C750 C582 1.920 . S
C755 C537 1.919 . S
C760 C290 1.920 . S
C765 C309 1.919 . S
C770 C563 1.919 . S
C775 C439 1.919 . S
C780 C316 1.919 . S
C785 C446 1.919 . S
C790 C329 1.919 . S
C795 C465 1.919 . S
C800 C348 1.920 . S
C805 C426 1.920 . S
C810 C355 1.919 . S
C815 C517 1.920 . S
C820 C368 1.920 . S
C825 C472 1.919 . S
C830 C381 1.919 . S
C835 C400 1.919 . S
C840 C491 1.919 . S
C845 C407 1.919 . S
C850 C498 1.919 . S
C855 C524 1.919 . S
C860 C556 1.919 . S
C865 C211 1.180 . S
C870 C3 1.154 . S
C875 C614 1.183 . S
C880 C16 1.156 . S
C885 C29 1.155 . S
C890 C278 1.182 . S
C895 C601 1.182 1_554 S
C900 C44 1.156 . S
C905 C57 1.157 . S
C910 C536 1.180 . S
C915 C551 1.183 . S
C920 C68 1.158 . S
C925 C83 1.157 . S
C930 C562 1.180 . S
C935 C263 1.183 1_556 S
C940 C94 1.157 . S
C945 C109 1.157 . S
C950 C5 1.180 . S
C955 C18 1.183 1_545 S
C960 C120 1.158 . S
C965 C135 1.153 . S
C970 C31 1.178 . S
C975 C42 1.180 1_565 S
C980 C148 1.157 . S
C985 C159 1.153 . S
C990 C55 1.179 . S
C995 C70 1.180 1_545 S
C1000 C172 1.156 . S
C1005 C185 1.153 . S
C1010 C81 1.178 . S
C1015 C198 1.156 . S
C1020 C96 1.179 1_565 S
C1025 C213 1.157 . S
C1030 C107 1.183 . S
C1035 C226 1.158 . S
C1040 C471 1.183 . S
C1045 C486 1.178 1_455 S
C1050 C239 1.153 . S
C1055 C497 1.178 . S
C1060 C252 1.154 . S
C1065 C200 1.182 1_655 S
C1070 C265 1.159 . S
C1075 C276 1.155 . S
C1080 C133 1.181 . S
C1085 C460 1.182 1_455 S
C1090 C291 1.158 . S
C1095 C302 1.153 . S
C1100 C434 1.178 . S
C1105 C317 1.156 . S
C1110 C523 1.179 . S
C1115 C330 1.153 . S
C1120 C304 1.178 1_554 S
C1125 C341 1.153 . S
C1130 C588 1.180 . S
C1135 C356 1.158 . S
C1140 C289 1.183 . S
C1145 C369 1.156 . S
C1150 C224 1.182 . S
C1155 C382 1.156 . S
C1160 C237 1.182 1_556 S
C1165 C250 1.181 . S
C1170 C393 1.158 . S
C1175 C577 1.183 . S
C1180 C408 1.158 . S
C1185 C315 1.183 . S
C1190 C419 1.158 . S
C1195 C328 1.182 . S
C1200 C432 1.156 . S
C1205 C447 1.154 . S
C1210 C343 1.178 . S
C1215 C354 1.181 . S
C1220 C458 1.154 . S
C1225 C473 1.153 . S
C1230 C367 1.178 . S
C1235 C484 1.155 . S
C1240 C380 1.181 . S
C1245 C499 1.154 . S
C1250 C395 1.178 . S
C1255 C406 1.181 . S
C1260 C510 1.158 . S
C1265 C525 1.156 . S
C1270 C421 1.182 . S
C1275 C538 1.153 . S
C1280 C161 1.178 . S
C1285 C174 1.183 . S
C1290 C549 1.158 . S
C1295 C564 1.159 . S
C1300 C187 1.183 . S
C1305 C575 1.157 . S
C1310 C512 1.183 . S
C1315 C445 1.182 . S
C1320 C590 1.156 . S
C1325 C146 1.182 . S
C1330 C603 1.159 . S
C1335 C122 1.179 1_655 S
C1340 C616 1.153 . S
C1345 C296 1.434 . S
C1350 C4 1.435 . S
C1355 C17 1.433 . S
C1360 C530 1.433 . S
C1365 C30 1.433 . S
C1370 C303 1.433 . S
C1375 C595 1.436 . S
C1380 C49 1.436 . S
C1385 C62 1.433 . S
C1390 C244 1.433 . S
C1395 C257 1.434 . S
C1400 C69 1.433 . S
C1405 C576 1.436 . S
C1410 C88 1.435 . S
C1415 C95 1.436 . S
C1420 C231 1.436 . S
C1425 C173 1.433 . S
C1430 C114 1.433 . S
C1435 C121 1.434 . S
C1440 C186 1.435 . S
C1445 C199 1.435 . S
C1450 C140 1.436 . S
C1455 C153 1.436 . S
C1460 C160 1.435 . S
C1465 C335 1.433 . S
C1470 C218 1.433 . S
C1475 C270 1.433 . S
C1480 C394 1.434 . S
C1485 C277 1.436 . S
C1490 C361 1.436 . S
C1495 C608 1.433 . S
C1500 C322 1.433 . S
C1505 C342 1.435 . S
C1510 C621 1.436 . S
C1515 C374 1.436 . S
C1520 C550 1.436 . S
C1525 C387 1.433 . S
C1530 C569 1.433 . S
C1535 C543 1.436 . S
C1540 C413 1.436 . S
C1545 C485 1.433 . S
C1550 C420 1.433 . S
C1555 C433 1.434 . S
C1560 C504 1.433 . S
C1565 C452 1.435 . S
C1570 C511 1.436 . S
C1575 C478 1.436 . S
C1580 C459 1.435 . S
