# Generated by pormake.
# Topology wlk, (5)-cn, num edge types: 1
# Building blocks:
#     Node 0, Type 0, BuildingBlock: XOMCOT_clean_sbu_0, # of connection points: 5
#     Node 1, Type 0, BuildingBlock: XOMCOT_clean_sbu_0, # of connection points: 5
#     Node 2, Type 0, BuildingBlock: XOMCOT_clean_sbu_0, # of connection points: 5
#     Node 3, Type 0, BuildingBlock: XOMCOT_clean_sbu_0, # of connection points: 5
#     Node 4, Type 0, BuildingBlock: XOMCOT_clean_sbu_0, # of connection points: 5
#     Node 5, Type 0, BuildingBlock: XOMCOT_clean_sbu_0, # of connection points: 5
#     Node 6, Type 0, BuildingBlock: XOMCOT_clean_sbu_0, # of connection points: 5
#     Node 7, Type 0, BuildingBlock: XOMCOT_clean_sbu_0, # of connection points: 5
#     Node 8, Type 0, BuildingBlock: XOMCOT_clean_sbu_0, # of connection points: 5
#     Node 9, Type 0, BuildingBlock: XOMCOT_clean_sbu_0, # of connection points: 5
#     Node 10, Type 0, BuildingBlock: XOMCOT_clean_sbu_0, # of connection points: 5
#     Node 11, Type 0, BuildingBlock: XOMCOT_clean_sbu_0, # of connection points: 5
#     Node 12, Type 0, BuildingBlock: XOMCOT_clean_sbu_0, # of connection points: 5
#     Node 13, Type 0, BuildingBlock: XOMCOT_clean_sbu_0, # of connection points: 5
#     Node 14, Type 0, BuildingBlock: XOMCOT_clean_sbu_0, # of connection points: 5
#     Node 15, Type 0, BuildingBlock: XOMCOT_clean_sbu_0, # of connection points: 5
#     Node 16, Type 0, BuildingBlock: XOMCOT_clean_sbu_0, # of connection points: 5
#     Node 17, Type 0, BuildingBlock: XOMCOT_clean_sbu_0, # of connection points: 5
#     Edge 18, Type (0, 0), BuildingBlock: OJICUG_clean_linker_0, # of connection points: 2
#     Edge 19, Type (0, 0), BuildingBlock: OJICUG_clean_linker_0, # of connection points: 2
#     Edge 20, Type (0, 0), BuildingBlock: OJICUG_clean_linker_0, # of connection points: 2
#     Edge 21, Type (0, 0), BuildingBlock: OJICUG_clean_linker_0, # of connection points: 2
#     Edge 22, Type (0, 0), BuildingBlock: OJICUG_clean_linker_0, # of connection points: 2
#     Edge 23, Type (0, 0), BuildingBlock: OJICUG_clean_linker_0, # of connection points: 2
#     Edge 24, Type (0, 0), BuildingBlock: OJICUG_clean_linker_0, # of connection points: 2
#     Edge 25, Type (0, 0), BuildingBlock: OJICUG_clean_linker_0, # of connection points: 2
#     Edge 26, Type (0, 0), BuildingBlock: OJICUG_clean_linker_0, # of connection points: 2
#     Edge 27, Type (0, 0), BuildingBlock: OJICUG_clean_linker_0, # of connection points: 2
#     Edge 28, Type (0, 0), BuildingBlock: OJICUG_clean_linker_0, # of connection points: 2
#     Edge 29, Type (0, 0), BuildingBlock: OJICUG_clean_linker_0, # of connection points: 2
#     Edge 30, Type (0, 0), BuildingBlock: OJICUG_clean_linker_0, # of connection points: 2
#     Edge 31, Type (0, 0), BuildingBlock: OJICUG_clean_linker_0, # of connection points: 2
#     Edge 32, Type (0, 0), BuildingBlock: OJICUG_clean_linker_0, # of connection points: 2
#     Edge 33, Type (0, 0), BuildingBlock: OJICUG_clean_linker_0, # of connection points: 2
#     Edge 34, Type (0, 0), BuildingBlock: OJICUG_clean_linker_0, # of connection points: 2
#     Edge 35, Type (0, 0), BuildingBlock: OJICUG_clean_linker_0, # of connection points: 2
#     Edge 36, Type (0, 0), BuildingBlock: OJICUG_clean_linker_0, # of connection points: 2
#     Edge 37, Type (0, 0), BuildingBlock: OJICUG_clean_linker_0, # of connection points: 2
#     Edge 38, Type (0, 0), BuildingBlock: OJICUG_clean_linker_0, # of connection points: 2
#     Edge 39, Type (0, 0), BuildingBlock: OJICUG_clean_linker_0, # of connection points: 2
#     Edge 40, Type (0, 0), BuildingBlock: OJICUG_clean_linker_0, # of connection points: 2
#     Edge 41, Type (0, 0), BuildingBlock: OJICUG_clean_linker_0, # of connection points: 2
#     Edge 42, Type (0, 0), BuildingBlock: OJICUG_clean_linker_0, # of connection points: 2
#     Edge 43, Type (0, 0), BuildingBlock: OJICUG_clean_linker_0, # of connection points: 2
#     Edge 44, Type (0, 0), BuildingBlock: OJICUG_clean_linker_0, # of connection points: 2
#     Edge 45, Type (0, 0), BuildingBlock: OJICUG_clean_linker_0, # of connection points: 2
#     Edge 46, Type (0, 0), BuildingBlock: OJICUG_clean_linker_0, # of connection points: 2
#     Edge 47, Type (0, 0), BuildingBlock: OJICUG_clean_linker_0, # of connection points: 2
#     Edge 48, Type (0, 0), BuildingBlock: OJICUG_clean_linker_0, # of connection points: 2
#     Edge 49, Type (0, 0), BuildingBlock: OJICUG_clean_linker_0, # of connection points: 2
#     Edge 50, Type (0, 0), BuildingBlock: OJICUG_clean_linker_0, # of connection points: 2
#     Edge 51, Type (0, 0), BuildingBlock: OJICUG_clean_linker_0, # of connection points: 2
#     Edge 52, Type (0, 0), BuildingBlock: OJICUG_clean_linker_0, # of connection points: 2
#     Edge 53, Type (0, 0), BuildingBlock: OJICUG_clean_linker_0, # of connection points: 2
#     Edge 54, Type (0, 0), BuildingBlock: OJICUG_clean_linker_0, # of connection points: 2
#     Edge 55, Type (0, 0), BuildingBlock: OJICUG_clean_linker_0, # of connection points: 2
#     Edge 56, Type (0, 0), BuildingBlock: OJICUG_clean_linker_0, # of connection points: 2
#     Edge 57, Type (0, 0), BuildingBlock: OJICUG_clean_linker_0, # of connection points: 2
#     Edge 58, Type (0, 0), BuildingBlock: OJICUG_clean_linker_0, # of connection points: 2
#     Edge 59, Type (0, 0), BuildingBlock: OJICUG_clean_linker_0, # of connection points: 2
#     Edge 60, Type (0, 0), BuildingBlock: OJICUG_clean_linker_0, # of connection points: 2
#     Edge 61, Type (0, 0), BuildingBlock: OJICUG_clean_linker_0, # of connection points: 2
#     Edge 62, Type (0, 0), BuildingBlock: OJICUG_clean_linker_0, # of connection points: 2
# Relax obj value: 0.213
# Max RMSD: 0.256
# Mean RMSD: 0.256
data_MOF--net-wlk--node1-XOMCOT_clean_sbu_0--edge1-OJICUG_clean_linker_0
_symmetry_space_group_name_H-M    P1
_symmetry_Int_Tables_number       1
_symmetry_cell_setting            triclinic
loop_
_symmetry_equiv_pos_as_xyz
'x, y, z'
_cell_length_a     49.073139
_cell_length_b     49.031521
_cell_length_c     22.036701
_cell_angle_alpha  90.135606
_cell_angle_beta   89.904085
_cell_angle_gamma 120.46465
loop_
_atom_site_label
_atom_site_type_symbol
_atom_site_fract_x
_atom_site_fract_y
_atom_site_fract_z
_atom_type_partial_charge
Co0 Co 0.22853 0.28116 0.10577 0.0
C1 C 0.24234 0.23945 0.028 0.0
C2 C 0.19286 0.22277 0.03265 0.0
C3 C 0.19701 0.20031 0.00335 0.0
N4 N 0.22135 0.24796 0.04705 0.0
N5 N 0.22818 0.21082 0.00059 0.0
H6 H 0.26721 0.25229 0.03898 0.0
H7 H 0.17027 0.21937 0.04673 0.0
C8 C 0.1735 0.27507 0.03742 0.0
O9 O 0.19101 0.2816 0.98844 0.0
N10 N 0.23502 0.31261 0.1663 0.0
C11 C 0.26267 0.33862 0.18072 0.0
C12 C 0.2574 0.35454 0.22655 0.0
C13 C 0.21337 0.31278 0.20393 0.0
N14 N 0.22639 0.33831 0.24119 0.0
C15 C 0.27325 0.31782 0.01389 0.0
C16 C 0.25949 0.36593 0.00842 0.0
C17 C 0.28522 0.36872 0.97569 0.0
C18 C 0.29178 0.34418 0.97818 0.0
C19 C 0.24106 0.33866 0.04325 0.0
N20 N 0.24797 0.31485 0.04545 0.0
H21 H 0.28057 0.30075 0.0185 0.0
H22 H 0.22189 0.33716 0.07012 0.0
H23 H 0.28511 0.3455 0.15934 0.0
H24 H 0.1886 0.29471 0.20363 0.0
O25 O 0.26661 0.2831 0.13149 0.0
O26 O 0.21904 0.25054 0.17034 0.0
O27 O 0.18461 0.27369 0.08913 0.0
C28 C 0.24933 0.26072 0.16931 0.0
H29 H 0.17841 0.1774 0.98784 0.0
H30 H 0.27521 0.37613 0.2481 0.0
H31 H 0.25387 0.38463 0.00744 0.0
H32 H 0.31182 0.34584 0.95399 0.0
Co33 Co 0.76623 0.9568 0.0938 0.0
C34 C 0.81275 1.01934 0.03991 0.0
C35 C 0.81056 0.9809 0.98951 0.0
C36 C 0.83229 1.00895 0.96218 0.0
N37 N 0.7985 0.98738 0.03882 0.0
N38 N 0.83374 0.03316 0.99412 0.0
H39 H 0.8074 0.03239 0.07254 0.0
H40 H 0.80401 0.95743 0.97395 0.0
C41 C 0.76625 0.89478 0.07637 0.0
O42 O 0.73876 0.87843 0.1034 0.0
N43 N 0.73369 0.92717 0.14894 0.0
C44 C 0.70306 0.91927 0.14875 0.0
C45 C 0.68782 0.89936 0.19661 0.0
C46 C 0.73693 0.91305 0.19887 0.0
N47 N 0.70902 0.8952 0.22791 0.0
C48 C 0.72822 0.96788 0.01374 0.0
C49 C 0.6897 0.9066 0.97309 0.0
C50 C 0.68084 0.92917 0.96255 0.0
C51 C 0.70102 0.96035 0.98124 0.0
C52 C 0.717 0.91505 0.00695 0.0
N53 N 0.73503 0.94507 0.02943 0.0
H54 H 0.74298 0.99193 0.02926 0.0
H55 H 0.72231 0.89692 0.01698 0.0
H56 H 0.69237 0.92758 0.11645 0.0
H57 H 0.75914 0.91539 0.21289 0.0
O58 O 0.76085 0.98929 0.13035 0.0
O59 O 0.79519 0.9756 0.16214 0.0
O60 O 0.77866 0.92463 0.06776 0.0
C61 C 0.78259 0.99329 0.16868 0.0
H62 H 0.8463 1.01126 0.92246 0.0
H63 H 0.66286 0.88833 0.20678 0.0
H64 H 0.67495 0.88241 0.95775 0.0
H65 H 0.69546 0.97867 0.97185 0.0
Co66 Co 0.08487 0.81906 0.11087 0.0
C67 C 1.02689 0.80213 0.03816 0.0
C68 C 0.06057 0.85156 0.03243 0.0
C69 C 0.03363 0.84566 0.00199 0.0
N70 N 0.05701 0.82406 0.05355 0.0
N71 N 1.01239 0.81454 0.00581 0.0
H72 H 1.01491 0.77786 0.0534 0.0
H73 H 0.0802 0.87486 0.04225 0.0
C74 C 0.13263 0.87351 0.03693 0.0
O75 O 0.12024 0.85523 0.98914 0.0
N76 N 0.11148 0.81419 0.16945 0.0
C77 C 0.11016 0.78687 0.18385 0.0
C78 C 0.13164 0.79269 0.22928 0.0
C79 C 0.13356 0.83626 0.20658 0.0
N80 N 0.14636 0.82374 0.24375 0.0
C81 C 0.07427 0.77234 0.02191 0.0
C82 C 0.13651 0.78789 0.00731 0.0
C83 C 0.11257 0.76141 0.9772 0.0
C84 C 0.08125 0.75384 0.98461 0.0
C85 C 0.12846 0.80625 0.04388 0.0
N86 N 0.09757 0.79859 0.05017 0.0
H87 H 0.04985 0.7644 0.03014 0.0
H88 H 0.14695 0.82612 0.06848 0.0
H89 H 0.09456 0.76425 0.16276 0.0
H90 H 0.13955 0.86076 0.20722 0.0
O91 O 0.04924 0.78141 0.14186 0.0
O92 O 0.06542 0.82986 0.17672 0.0
O93 O 0.12129 0.86288 0.08976 0.0
C94 C 0.04537 0.79949 0.17953 0.0
H95 H 0.02912 0.86331 0.98286 0.0
H96 H 0.13621 0.77534 0.24963 0.0
H97 H 0.16101 0.79424 0.00272 0.0
H98 H 0.06211 0.73315 0.96281 0.0
Co99 Co 0.82612 0.75732 0.8836 0.0
C100 C 0.81261 0.79933 0.96082 0.0
C101 C 0.86205 0.81598 0.9557 0.0
C102 C 0.85802 0.83851 0.98498 0.0
N103 N 0.83351 0.79076 0.94172 0.0
N104 N 0.82686 0.82799 0.98805 0.0
H105 H 0.78772 0.78655 0.94995 0.0
H106 H 0.8846 0.81934 0.94137 0.0
C107 C 0.88096 0.76358 0.95283 0.0
O108 O 0.86321 0.75718 0.00144 0.0
N109 N 0.81944 0.72561 0.82364 0.0
C110 C 0.79174 0.6996 0.80949 0.0
C111 C 0.79686 0.68364 0.76353 0.0
C112 C 0.84097 0.7254 0.78577 0.0
N113 N 0.82783 0.69986 0.74857 0.0
C114 C 0.78114 0.72104 0.97526 0.0
C115 C 0.79454 0.67271 0.98192 0.0
C116 C 0.7687 0.67012 0.014 0.0
C117 C 0.76235 0.69477 0.01092 0.0
C118 C 0.81325 0.69992 0.9471 0.0
N119 N 0.80651 0.72384 0.94429 0.0
H120 H 0.77391 0.73814 0.9701 0.0
H121 H 0.83247 0.70128 0.92064 0.0
H122 H 0.76936 0.6928 0.83102 0.0
H123 H 0.86573 0.7435 0.78576 0.0
O124 O 0.78811 0.75545 0.85758 0.0
O125 O 0.83567 0.78773 0.8185 0.0
O126 O 0.87001 0.76468 0.90072 0.0
C127 C 0.80541 0.77765 0.81948 0.0
H128 H 0.87667 0.86144 0.00026 0.0
H129 H 0.77897 0.66208 0.74203 0.0
H130 H 0.8 0.65391 0.98335 0.0
H131 H 0.74223 0.69326 0.03456 0.0
Co132 Co 0.28872 0.08168 0.8948 0.0
C133 C 0.24175 1.01943 0.94928 0.0
C134 C 0.24563 0.05837 0.00064 0.0
C135 C 0.22391 0.03057 0.02868 0.0
N136 N 0.25664 0.05143 0.95035 0.0
N137 N 0.22141 1.00605 -0.00382 0.0
H138 H 0.24623 1.00604 0.91594 0.0
H139 H 0.25299 0.082 0.01647 0.0
C140 C 0.28875 0.14386 0.91201 0.0
O141 O 0.31617 0.16019 0.88473 0.0
N142 N 0.32112 0.11108 0.83922 0.0
C143 C 0.35171 0.11884 0.83902 0.0
C144 C 0.36688 0.13878 0.79117 0.0
C145 C 0.31782 0.1253 0.78953 0.0
N146 N 0.34567 0.1431 0.76028 0.0
C147 C 0.32696 0.07083 0.97483 0.0
C148 C 0.36571 0.13224 0.01455 0.0
C149 C 0.37455 0.10966 0.02539 0.0
C150 C 0.35426 0.07843 0.00712 0.0
C151 C 0.33832 0.12372 0.9809 0.0
N152 N 0.32015 0.09361 0.9589 0.0
H153 H 0.31211 0.04672 0.95968 0.0
H154 H 0.33305 0.14185 0.97062 0.0
H155 H 0.36242 0.11046 0.87113 0.0
H156 H 0.29561 0.1231 0.77589 0.0
O157 O 0.29391 0.04893 0.85858 0.0
O158 O 0.25961 0.06258 0.82665 0.0
O159 O 0.27637 0.11401 0.92061 0.0
C160 C 0.27214 0.04482 0.82024 0.0
H161 H 0.21069 0.02866 0.06938 0.0
H162 H 0.39181 0.14977 0.7808 0.0
H163 H 0.38055 0.15648 0.02951 0.0
H164 H 0.3598 0.06011 0.01667 0.0
Co165 Co 0.96919 0.22215 0.88648 0.0
C166 C 1.02732 0.23877 0.95838 0.0
C167 C 0.99401 0.18916 0.96162 0.0
C168 C 1.02101 0.19483 0.99138 0.0
N169 N 0.99728 0.21685 0.9425 0.0
N170 N 0.04203 0.22605 0.98908 0.0
H171 H 0.0391 0.26326 0.94453 0.0
H172 H 0.97458 0.16592 0.95065 0.0
C173 C 0.9218 0.16632 0.958 0.0
O174 O 0.93383 0.18403 0.00659 0.0
N175 N 0.94222 0.22726 0.82923 0.0
C176 C 0.94249 0.25433 0.81758 0.0
C177 C 0.9202 0.2485 0.77389 0.0
C178 C 0.92007 0.20538 0.792 0.0
N179 N 0.90607 0.2177 0.75752 0.0
C180 C 0.97891 0.26835 0.97566 0.0
C181 C 0.91649 0.2529 0.98566 0.0
C182 C 0.94027 0.28156 0.01011 0.0
C183 C 0.97162 0.28855 0.00669 0.0
C184 C 0.92486 0.23321 0.95452 0.0
N185 N 0.95592 0.24137 0.94879 0.0
H186 H 1.00342 0.27602 0.96926 0.0
H187 H 0.90656 0.21258 0.93136 0.0
H188 H 0.95773 0.27674 0.83975 0.0
H189 H 0.91483 0.18115 0.78962 0.0
O190 O 1.00447 0.26062 0.85691 0.0
O191 O 0.98913 0.21294 0.81907 0.0
O192 O 0.93323 0.17773 0.90561 0.0
C193 C 1.00872 0.24345 0.81761 0.0
H194 H 1.02579 0.17703 0.00874 0.0
H195 H 0.91475 0.26573 0.75616 0.0
H196 H 0.89195 0.24669 0.9874 0.0
H197 H 0.99068 0.31027 0.02576 0.0
Co198 Co 0.8906 0.61037 0.4274 0.0
C199 C 0.90526 0.57059 0.34588 0.0
C200 C 0.85561 0.55066 0.35912 0.0
C201 C 0.86042 0.52881 0.32927 0.0
N202 N 0.88367 0.57745 0.36846 0.0
N203 N 0.89171 0.5413 0.32128 0.0
H204 H 0.93041 0.58495 0.35321 0.0
H205 H 0.83321 0.54591 0.3775 0.0
C206 C 0.8338 0.6002 0.36111 0.0
O207 O 0.85096 0.60538 0.31195 0.0
N208 N 0.89707 0.64166 0.48817 0.0
C209 C 0.92463 0.66801 0.50156 0.0
C210 C 0.91947 0.68387 0.54764 0.0
C211 C 0.87558 0.64161 0.52653 0.0
N212 N 0.88862 0.6673 0.56337 0.0
C213 C 0.93554 0.65001 0.33874 0.0
C214 C 0.9184 0.69574 0.33675 0.0
C215 C 0.94729 0.70245 0.31123 0.0
C216 C 0.95518 0.6788 0.31054 0.0
C217 C 0.89935 0.66643 0.36518 0.0
N218 N 0.90838 0.64416 0.36708 0.0
H219 H 0.94398 0.63377 0.3423 0.0
H220 H 0.87864 0.66269 0.38971 0.0
H221 H 0.94691 0.6752 0.47926 0.0
H222 H 0.8509 0.6233 0.52695 0.0
O223 O 0.92956 0.61351 0.45063 0.0
O224 O 0.88295 0.58003 0.49173 0.0
O225 O 0.84599 0.60156 0.41317 0.0
C226 C 0.91334 0.5909 0.48871 0.0
H227 H 0.84236 0.50491 0.31758 0.0
H228 H 0.93727 0.70569 0.56852 0.0
H229 H 0.91162 0.71359 0.33809 0.0
H230 H 0.97726 0.68311 0.29081 0.0
Co231 Co 0.43244 0.28892 0.42764 0.0
C232 C 0.47514 0.34865 0.36119 0.0
C233 C 0.48513 0.31215 0.33827 0.0
C234 C 0.50673 0.33957 0.30916 0.0
N235 N 0.46539 0.31781 0.37159 0.0
N236 N 0.50038 0.36245 0.32368 0.0
H237 H 0.46454 0.36115 0.38156 0.0
H238 H 0.48434 0.28983 0.33502 0.0
C239 C 0.43178 0.22589 0.4177 0.0
O240 O 0.40411 0.20963 0.44417 0.0
N241 N 0.3997 0.26112 0.48428 0.0
C242 C 0.36928 0.2539 0.48415 0.0
C243 C 0.35386 0.23432 0.53241 0.0
C244 C 0.4027 0.24708 0.53449 0.0
N245 N 0.37478 0.22973 0.56374 0.0
C246 C 0.39459 0.29835 0.34407 0.0
C247 C 0.35418 0.23586 0.31269 0.0
C248 C 0.34557 0.2584 0.2997 0.0
C249 C 0.36677 0.29012 0.31328 0.0
C250 C 0.38227 0.2451 0.34454 0.0
N251 N 0.40122 0.27582 0.36281 0.0
H252 H 0.40969 0.3228 0.35659 0.0
H253 H 0.38734 0.22708 0.35707 0.0
H254 H 0.35883 0.26219 0.45125 0.0
H255 H 0.42472 0.24889 0.54823 0.0
O256 O 0.42783 0.32292 0.45865 0.0
O257 O 0.46143 0.30934 0.49527 0.0
O258 O 0.44401 0.25553 0.40717 0.0
C259 C 0.44978 0.32803 0.49726 0.0
H260 H 0.52551 0.34239 0.27924 0.0
H261 H 0.32892 0.2236 0.54253 0.0
H262 H 0.33861 0.21118 0.30124 0.0
H263 H 0.36137 0.30837 0.30191 0.0
Co264 Co 0.75816 0.15224 0.42657 0.0
C265 C 0.69943 0.14613 0.3729 0.0
C266 C 0.73694 0.16368 0.30796 0.0
C267 C 0.70957 0.15801 0.27892 0.0
N268 N 0.73042 0.15558 0.36692 0.0
N269 N 0.68584 0.14657 0.3199 0.0
H270 H 0.68674 0.1388 0.41505 0.0
H271 H 0.75963 0.17159 0.28674 0.0
C272 C 0.82105 0.21527 0.41618 0.0
O273 O 0.83637 0.20474 0.44786 0.0
N274 N 0.78478 0.14818 0.48697 0.0
C275 C 0.78971 0.12362 0.49264 0.0
C276 C 0.80795 0.12825 0.54326 0.0
C277 C 0.79853 0.16641 0.53644 0.0
N278 N 0.81382 0.15537 0.5704 0.0
C279 C 0.74849 0.10678 0.33864 0.0
C280 C 0.81025 0.12056 0.32675 0.0
C281 C 0.78565 0.09146 0.30529 0.0
C282 C 0.75467 0.08561 0.30859 0.0
C283 C 0.80299 0.1415 0.35632 0.0
N284 N 0.77221 0.1336 0.36474 0.0
H285 H 0.72411 0.10038 0.34473 0.0
H286 H 0.82194 0.16242 0.37668 0.0
H287 H 0.78057 0.10356 0.46219 0.0
H288 H 0.79799 0.18777 0.54643 0.0
O289 O 0.72396 0.11308 0.45553 0.0
O290 O 0.73607 0.15998 0.49261 0.0
O291 O 0.79158 0.1975 0.40407 0.0
C292 C 0.71789 0.12918 0.4942 0.0
H293 H 0.70719 0.16078 0.23088 0.0
H294 H 0.81695 0.11325 0.5579 0.0
H295 H 0.8346 0.12619 0.32416 0.0
H296 H 0.73501 0.06404 0.29043 0.0
Co297 Co 0.49566 0.09223 0.22323 0.0
C298 C 0.48117 0.13272 0.30286 0.0
C299 C 0.53086 0.15106 0.29536 0.0
C300 C 0.52616 0.17262 0.32659 0.0
N301 N 0.50263 0.12533 0.28181 0.0
N302 N 0.49483 0.16114 0.33106 0.0
H303 H 0.4562 0.11918 0.29288 0.0
H304 H 0.55357 0.15544 0.2796 0.0
C305 C 0.55303 0.10165 0.28722 0.0
O306 O 0.53624 0.09532 0.33719 0.0
N307 N 0.48924 0.06083 0.16294 0.0
C308 C 0.4619 0.0342 0.1497 0.0
C309 C 0.46734 1.01869 0.10329 0.0
C310 C 0.51083 0.06143 0.12419 0.0
N311 N 0.49812 0.03582 0.08726 0.0
C312 C 0.45363 0.05501 0.31816 0.0
C313 C 0.46969 1.00846 0.32018 0.0
C314 C 0.44395 1.00455 0.35452 0.0
C315 C 0.43633 0.02838 0.35397 0.0
C316 C 0.48691 0.03602 0.28541 0.0
N317 N 0.47872 0.05894 0.28457 0.0
H318 H 0.44538 0.07141 0.31492 0.0
H319 H 0.50598 0.03832 0.25714 0.0
H320 H 0.4396 0.02663 0.17226 0.0
H321 H 0.53535 0.08011 0.12351 0.0
O322 O 0.4562 0.08826 0.20074 0.0
O323 O 0.5024 0.12187 0.1582 0.0
O324 O 0.54064 0.10171 0.23614 0.0
C325 C 0.47192 0.11041 0.16147 0.0
H326 H 0.54452 0.19564 0.34207 0.0
H327 H 0.44979 0.99675 0.08237 0.0
H328 H 0.4761 0.99033 0.3196 0.0
H329 H 0.41626 0.02584 0.37945 0.0
Co330 Co 0.95667 0.41545 0.22285 0.0
C331 C 0.90842 0.35533 0.28366 0.0
C332 C 0.9208 0.3967 0.33684 0.0
C333 C 0.90045 0.3704 0.3702 0.0
N334 N 0.92593 0.38735 0.2825 0.0
N335 N 0.8926 0.34449 0.33653 0.0
H336 H 0.90856 0.34005 0.24859 0.0
H337 H 0.93217 0.42097 0.35231 0.0
C338 C 0.95589 0.47763 0.23494 0.0
O339 O 0.98273 0.49405 0.20576 0.0
N340 N 0.98772 0.44316 0.16352 0.0
C341 C 1.01825 0.45087 0.16115 0.0
C342 C 0.03258 0.47071 0.11274 0.0
C343 C 0.9835 0.45712 0.11445 0.0
N344 N 1.01085 0.47499 0.08368 0.0
C345 C 0.99594 0.40713 0.30454 0.0
C346 C 0.03649 0.46983 0.3345 0.0
C347 C 0.04476 0.44725 0.34953 0.0
C348 C 1.02362 0.41546 0.3361 0.0
C349 C 1.00865 0.46051 0.30174 0.0
N350 N 0.98948 0.42962 0.28478 0.0
H351 H 0.98038 0.38254 0.29319 0.0
H352 H 1.00379 0.4785 0.28791 0.0
H353 H 0.02956 0.44288 0.19269 0.0
H354 H 0.9611 0.45505 0.1029 0.0
O355 O 0.96138 0.38164 0.19073 0.0
O356 O 0.9264 0.39406 0.15729 0.0
O357 O 0.94439 0.44809 0.24563 0.0
C358 C 0.93904 0.3763 0.15285 0.0
H359 H 0.89261 0.37025 0.41621 0.0
H360 H 0.05739 0.48193 0.10119 0.0
H361 H 0.05205 0.49456 0.34553 0.0
H362 H 0.02875 0.39721 0.34893 0.0
Co363 Co 0.62867 0.55545 0.22938 0.0
C364 C 0.68914 0.56512 0.28168 0.0
C365 C 0.6499 0.53758 0.34048 0.0
C366 C 0.67708 0.54169 0.36787 0.0
N367 N 0.65749 0.55233 0.28622 0.0
N368 N 0.70172 0.55897 0.3305 0.0
H369 H 0.70317 0.57931 0.24424 0.0
H370 H 0.62626 0.52495 0.35919 0.0
C371 C 0.56674 0.49152 0.24067 0.0
O372 O 0.55024 0.50218 0.21353 0.0
N373 N 0.60059 0.55899 0.17212 0.0
C374 C 0.59331 0.58205 0.17028 0.0
C375 C 0.57369 0.57671 0.12158 0.0
C376 C 0.58671 0.54096 0.12257 0.0
N377 N 0.56925 0.55065 0.09193 0.0
C378 C 0.63785 0.59968 0.31955 0.0
C379 C 0.57544 0.58201 0.33952 0.0
C380 C 0.59941 0.61185 0.35887 0.0
C381 C 0.63089 0.61991 0.35122 0.0
C382 C 0.58351 0.56241 0.30723 0.0
N383 N 0.61446 0.57224 0.29462 0.0
H384 H 0.66239 0.60738 0.31098 0.0
H385 H 0.56473 0.54085 0.2889 0.0
H386 H 0.60165 0.60147 0.20212 0.0
H387 H 0.58879 0.52071 0.11022 0.0
O388 O 0.66171 0.59555 0.20117 0.0
O389 O 0.65091 0.54971 0.16086 0.0
O390 O 0.59656 0.50942 0.2493 0.0
C391 C 0.66834 0.58058 0.16078 0.0
H392 H 0.67847 0.53241 0.41152 0.0
H393 H 0.56292 0.59054 0.10993 0.0
H394 H 0.55079 0.57479 0.34587 0.0
H395 H 0.65007 0.64238 0.3674 0.0
Co396 Co 0.56296 0.95031 0.76394 0.0
C397 C 0.57694 0.90968 0.68382 0.0
C398 C 0.52743 0.89279 0.68821 0.0
C399 C 0.53181 0.87103 0.65692 0.0
N400 N 0.55581 0.91773 0.70392 0.0
N401 N 0.56301 0.8816 0.65444 0.0
H402 H 0.60177 0.92249 0.69524 0.0
H403 H 0.50472 0.88895 0.70264 0.0
C404 C 0.50647 0.94336 0.69969 0.0
O405 O 0.5234 0.95064 0.64976 0.0
N406 N 0.56952 0.9812 0.82553 0.0
C407 C 0.59701 1.00741 0.83989 0.0
C408 C 0.5916 0.02275 0.88665 0.0
C409 C 0.54786 0.98065 0.86401 0.0
N410 N 0.56068 1.00591 0.90179 0.0
C411 C 0.60609 0.98786 0.67085 0.0
C412 C 0.59173 0.03564 0.67076 0.0
C413 C 0.61747 0.03924 0.63689 0.0
C414 C 0.62424 1.01483 0.6364 0.0
C415 C 0.57369 1.0078 0.70426 0.0
N416 N 0.58104 0.98427 0.70414 0.0
H417 H 0.61362 0.97086 0.67334 0.0
H418 H 0.55463 1.0057 0.7323 0.0
H419 H 0.6194 1.01484 0.81778 0.0
H420 H 0.5232 0.96229 0.86387 0.0
O421 O 0.60176 0.95307 0.78716 0.0
O422 O 0.55488 0.91968 0.82766 0.0
O423 O 0.5185 0.94196 0.75028 0.0
C424 C 0.58528 0.93054 0.82531 0.0
H425 H 0.51324 0.84843 0.64011 0.0
H426 H 0.60922 0.04438 0.90838 0.0
H427 H 0.58596 0.05423 0.67202 0.0
H428 H 0.64426 1.01711 0.61109 0.0
Co429 Co 0.09339 0.62462 0.75701 0.0
C430 C 0.14202 0.68664 0.70368 0.0
C431 C 0.1367 0.64754 0.65092 0.0
C432 C 0.15948 0.67533 0.62405 0.0
N433 N 0.12584 0.65461 0.70128 0.0
N434 N 0.16287 0.69992 0.6576 0.0
H435 H 0.13842 0.7003 0.73768 0.0
H436 H 0.12866 0.62382 0.63467 0.0
C437 C 0.0988 0.56473 0.75025 0.0
O438 O 0.07184 0.54755 0.77853 0.0
N439 N 0.06109 0.59565 0.81317 0.0
C440 C 0.03014 0.58653 0.81204 0.0
C441 C 1.01522 0.5666 0.86019 0.0
C442 C 0.06486 0.58266 0.86417 0.0
N443 N 0.03699 0.56381 0.89249 0.0
C444 C 0.05755 0.63012 0.66368 0.0
C445 C 1.01668 0.56638 0.64263 0.0
C446 C 1.00913 0.58846 0.62071 0.0
C447 C 0.03047 0.62065 0.62928 0.0
C448 C 0.04412 0.57692 0.67739 0.0
N449 N 0.06328 0.6084 0.69019 0.0
H450 H 0.07284 0.65506 0.67271 0.0
H451 H 0.04819 0.55944 0.69726 0.0
H452 H 1.01901 0.59367 0.77832 0.0
H453 H 0.08741 0.58602 0.87882 0.0
O454 O 0.08412 0.65623 0.78313 0.0
O455 O 0.12006 0.64802 0.82641 0.0
O456 O 0.10942 0.59417 0.7395 0.0
C457 C 0.10544 0.66408 0.82476 0.0
H458 H 0.17286 0.67716 0.58365 0.0
H459 H 0.99009 0.55427 0.8694 0.0
H460 H 1.00076 0.54127 0.63572 0.0
H461 H 1.02556 0.63833 0.61162 0.0
Co462 Co 0.42376 0.48412 0.75863 0.0
C463 C 0.36335 0.47491 0.7066 0.0
C464 C 0.40268 0.50226 0.64779 0.0
C465 C 0.37558 0.49833 0.62039 0.0
N466 N 0.395 0.48751 0.70203 0.0
N467 N 0.35089 0.48116 0.65772 0.0
H468 H 0.34927 0.46078 0.74409 0.0
H469 H 0.42632 0.51475 0.62907 0.0
C470 C 0.48591 0.54794 0.7477 0.0
O471 O 0.50224 0.53706 0.77476 0.0
N472 N 0.45175 0.48032 0.81573 0.0
C473 C 0.45894 0.45719 0.81744 0.0
C474 C 0.47856 0.46244 0.86612 0.0
C475 C 0.46565 0.49826 0.86536 0.0
N476 N 0.48307 0.4885 0.89588 0.0
C477 C 0.4144 0.44012 0.66778 0.0
C478 C 0.47672 0.4572 0.64867 0.0
C479 C 0.45262 0.42748 0.62902 0.0
C480 C 0.42121 0.41976 0.63614 0.0
C481 C 0.4688 0.47695 0.68083 0.0
N482 N 0.43788 0.46738 0.69311 0.0
H483 H 0.38989 0.43261 0.67613 0.0
H484 H 0.48765 0.49836 0.69947 0.0
H485 H 0.45055 0.4378 0.78553 0.0
H486 H 0.46363 0.51854 0.87782 0.0
O487 O 0.39062 0.444 0.78648 0.0
O488 O 0.40161 0.48979 0.82738 0.0
O489 O 0.45606 0.53018 0.739 0.0
C490 C 0.38412 0.45892 0.82719 0.0
H491 H 0.37428 0.50766 0.57673 0.0
H492 H 0.48929 0.44855 0.87766 0.0
H493 H 0.50133 0.46417 0.64279 0.0
H494 H 0.40193 0.39742 0.6197 0.0
Co495 Co 0.16278 0.43038 0.5558 0.0
C496 C 0.14841 0.47198 0.63328 0.0
C497 C 0.19797 0.49149 0.61953 0.0
C498 C 0.19348 0.51375 0.64853 0.0
N499 N 0.1698 0.4647 0.61125 0.0
N500 N 0.16226 0.5015 0.65703 0.0
H501 H 0.12322 0.45759 0.62668 0.0
H502 H 0.2203 0.49575 0.60159 0.0
C503 C 0.21923 0.4415 0.62524 0.0
O504 O 0.20215 0.43773 0.6739 0.0
N505 N 0.15645 0.39776 0.49831 0.0
C506 C 0.12905 0.37102 0.48602 0.0
C507 C 0.13436 0.3547 0.44104 0.0
C508 C 0.17799 0.39757 0.4604 0.0
N509 N 0.16515 0.37138 0.42485 0.0
C510 C 0.1166 0.39251 0.64441 0.0
C511 C 0.13401 0.34725 0.65583 0.0
C512 C 0.10483 0.34099 0.67915 0.0
C513 C 0.09676 0.36446 0.67485 0.0
C514 C 0.15322 0.37576 0.62491 0.0
N515 N 0.14419 0.39788 0.61866 0.0
H516 H 0.10805 0.40846 0.63713 0.0
H517 H 0.17415 0.37892 0.60212 0.0
H518 H 0.10672 0.36401 0.50799 0.0
H519 H 0.20253 0.4162 0.45914 0.0
O520 O 0.1242 0.42723 0.52936 0.0
O521 O 0.17127 0.45932 0.48838 0.0
O522 O 0.20712 0.439 0.57264 0.0
C523 C 0.1409 0.44869 0.48961 0.0
H524 H 0.21172 0.53762 0.65996 0.0
H525 H 0.11666 0.33257 0.42101 0.0
H526 H 0.14097 0.32955 0.65816 0.0
H527 H 0.07447 0.36058 0.69268 0.0
Co528 Co 0.62183 0.7504 0.56195 0.0
C529 C 0.57918 0.69117 0.62974 0.0
C530 C 0.56795 0.72722 0.64844 0.0
C531 C 0.54612 0.69985 0.67735 0.0
N532 N 0.58869 0.72184 0.61801 0.0
N533 N 0.55322 0.67722 0.66545 0.0
H534 H 0.59029 0.6788 0.61102 0.0
H535 H 0.56803 0.74923 0.6493 0.0
C536 C 0.62409 0.81417 0.57207 0.0
O537 O 0.65199 0.82989 0.54625 0.0
N538 N 0.65468 0.77785 0.50513 0.0
C539 C 0.68504 0.78488 0.50526 0.0
C540 C 0.70053 0.80437 0.45691 0.0
C541 C 0.65178 0.79195 0.4549 0.0
N542 N 0.67971 0.80911 0.42554 0.0
C543 C 0.65994 0.74028 0.64391 0.0
C544 C 0.70018 0.80243 0.67757 0.0
C545 C 0.70895 0.77985 0.68904 0.0
C546 C 0.68781 0.74827 0.67431 0.0
C547 C 0.67205 0.79344 0.64605 0.0
N548 N 0.65318 0.76292 0.62655 0.0
H549 H 0.6449 0.71595 0.63067 0.0
H550 H 0.6668 0.81151 0.63507 0.0
H551 H 0.69543 0.77656 0.53821 0.0
H552 H 0.62984 0.79033 0.44123 0.0
O553 O 0.62549 0.71591 0.53061 0.0
O554 O 0.59257 0.73046 0.4945 0.0
O555 O 0.61117 0.78444 0.58264 0.0
C556 C 0.60356 0.71123 0.49232 0.0
H557 H 0.52652 0.69683 0.705 0.0
H558 H 0.72544 0.81492 0.44675 0.0
H559 H 0.71564 0.82698 0.69004 0.0
H560 H 0.69324 0.72994 0.6846 0.0
Co561 Co 0.302 0.88996 0.56053 0.0
C562 C 0.35863 0.90568 0.63584 0.0
C563 C 0.32536 0.85611 0.63757 0.0
C564 C 0.35255 0.86149 0.6664 0.0
N565 N 0.32859 0.88398 0.61958 0.0
N566 N 0.37354 0.89269 0.6647 0.0
H567 H 0.37049 0.93029 0.62295 0.0
H568 H 0.30611 0.83296 0.6255 0.0
C569 C 0.2531 0.83312 0.62656 0.0
O570 O 0.26371 0.85056 0.67582 0.0
N571 N 0.27672 0.89567 0.49997 0.0
C572 C 0.27817 0.92308 0.48584 0.0
C573 C 0.25704 0.91753 0.4398 0.0
C574 C 0.25494 0.87383 0.46211 0.0
N575 N 0.24241 0.88656 0.42478 0.0
C576 C 0.30853 0.93322 0.65336 0.0
C577 C 0.24689 0.92067 0.65124 0.0
C578 C 0.27022 0.94822 0.67997 0.0
C579 C 0.30095 0.95348 0.6831 0.0
C580 C 0.25555 0.9007 0.62184 0.0
N581 N 0.28639 0.90773 0.62148 0.0
H582 H 0.33297 0.93996 0.65189 0.0
H583 H 0.23793 0.88093 0.59565 0.0
H584 H 0.29339 0.94553 0.50789 0.0
H585 H 0.24879 0.8493 0.46135 0.0
O586 O 0.33765 0.9293 0.53656 0.0
O587 O 0.32516 0.88307 0.49548 0.0
O588 O 0.26591 0.84499 0.57522 0.0
C589 C 0.34449 0.91366 0.49816 0.0
H590 H 0.35762 0.84357 0.68178 0.0
H591 H 0.25251 0.93495 0.41968 0.0
H592 H 0.22277 0.91569 0.64828 0.0
H593 H 0.31956 0.97417 0.70589 0.0
C594 C 0.28245 0.23664 0.18225 0.0
C595 C 0.26484 0.24887 0.20901 0.0
H596 H 0.32191 0.22946 0.19116 0.0
C597 C 0.27029 0.25865 0.26969 0.0
H598 H 0.27891 0.22954 0.13498 0.0
C599 C 0.29524 0.25921 0.30128 0.0
C600 C 0.31473 0.24971 0.27262 0.0
H601 H 0.25748 0.26887 0.29053 0.0
H602 H 0.30078 0.26926 0.34655 0.0
C603 C 0.30709 0.23675 0.21413 0.0
C604 C 0.81489 0.04843 0.20594 0.0
C605 C 0.79135 1.01691 0.21677 0.0
H606 H 0.83155 0.09735 0.22547 0.0
C607 C 0.76989 1.01007 0.2642 0.0
H608 H 0.83163 0.05409 0.16938 0.0
C609 C 0.77002 0.03456 0.29668 0.0
C610 C 0.79115 0.06634 0.28122 0.0
H611 H 0.75131 0.98591 0.27273 0.0
H612 H 0.75208 0.02859 0.33111 0.0
C613 C 0.81481 0.07312 0.23797 0.0
C614 C 1.02605 0.77472 0.27919 0.0
C615 C 1.01983 0.78471 0.22417 0.0
H616 H 1.00723 0.74054 0.35074 0.0
C617 C 0.98844 0.77144 0.20437 0.0
H618 H 0.05019 0.78409 0.29439 0.0
C619 C 0.9638 0.74637 0.23629 0.0
C620 C 0.97054 0.73416 0.2879 0.0
H621 H 0.98337 0.77857 0.16144 0.0
H622 H 0.94012 0.73473 0.21762 0.0
C623 C 1.00155 0.7496 0.31089 0.0
C624 C 0.75907 0.77851 0.6876 0.0
C625 C 0.73979 0.78835 0.71607 0.0
H626 H 0.79671 0.76869 0.69844 0.0
C627 C 0.74775 0.80172 0.77423 0.0
H628 H 0.75334 0.7682 0.64256 0.0
C629 C 0.77248 0.80192 0.80601 0.0
C630 C 0.78988 0.7894 0.77949 0.0
H631 H 0.73314 0.8093 0.79707 0.0
H632 H 0.77625 0.80936 0.8531 0.0
C633 C 0.7841 0.77917 0.71909 0.0
C634 C 0.24029 0.9897 0.78157 0.0
C635 C 0.26366 0.02142 0.77163 0.0
H636 H 0.22382 0.94101 0.75954 0.0
C637 C 0.28514 0.02883 0.72395 0.0
H638 H 0.22365 0.98353 0.81851 0.0
C639 C 0.28517 1.00475 0.69023 0.0
C640 C 0.26403 0.97279 0.70433 0.0
H641 H 0.30365 0.05311 0.71619 0.0
H642 H 0.30332 1.01107 0.65609 0.0
C643 C 0.2404 0.96542 0.74794 0.0
C644 C 1.02647 0.26898 0.71783 0.0
C645 C 0.03376 0.25936 0.77217 0.0
H646 H 0.04376 0.30255 0.64513 0.0
C647 C 0.06548 0.27333 0.79029 0.0
H648 H 1.00206 0.25908 0.70392 0.0
C649 C 0.08942 0.29832 0.75693 0.0
C650 C 0.08169 0.30995 0.70566 0.0
H651 H 0.0714 0.26655 0.83273 0.0
H652 H 0.11343 0.3102 0.774 0.0
C653 C 0.05025 0.29409 0.6848 0.0
C654 C 0.93135 0.58274 0.58858 0.0
C655 C 0.92999 0.57907 0.52543 0.0
H656 H 0.95839 0.58854 0.66904 0.0
C657 C 0.95132 0.57227 0.49607 0.0
H658 H 0.91555 0.58869 0.61174 0.0
C659 C 0.97553 0.57197 0.52861 0.0
C660 C 0.97883 0.57882 0.59071 0.0
H661 H 0.95083 0.56975 0.44716 0.0
H662 H 0.99322 0.56919 0.50442 0.0
C663 C 0.95588 0.58285 0.62108 0.0
C664 C 0.44335 0.37262 0.62698 0.0
C665 C 0.45929 0.40355 0.60352 0.0
H666 H 0.42885 0.32392 0.61157 0.0
C667 C 0.47805 0.41006 0.55145 0.0
H668 H 0.42894 0.36714 0.66747 0.0
C669 C 0.47811 0.3853 0.51982 0.0
C670 C 0.4599 0.35401 0.5406 0.0
H671 H 0.49048 0.4337 0.53257 0.0
H672 H 0.49033 0.39028 0.4767 0.0
C673 C 0.44363 0.34799 0.59566 0.0
C674 C 0.66327 0.09454 0.6288 0.0
C675 C 0.63791 0.06781 0.60116 0.0
H676 H 0.70912 0.13609 0.6157 0.0
C677 C 0.63691 0.06504 0.53794 0.0
H678 H 0.66467 0.09666 0.67779 0.0
C679 C 0.66221 0.08693 0.50314 0.0
C680 C 0.68886 0.11227 0.53073 0.0
H681 H 0.61782 0.0444 0.51593 0.0
H682 H 0.66186 0.08273 0.45477 0.0
C683 C 0.68865 0.11693 0.59351 0.0
C684 C 0.45095 0.11216 0.0605 0.0
C685 C 0.45453 0.12032 0.12209 0.0
H686 H 0.42209 0.10222 0.98119 0.0
C687 C 0.43462 0.12975 0.14895 0.0
H688 H 0.46558 0.10407 0.03947 0.0
C689 C 0.41 0.12897 0.11573 0.0
C690 C 0.40458 0.11795 0.05573 0.0
H691 H 0.43672 0.13557 0.19683 0.0
H692 H 0.39374 0.13447 0.13832 0.0
C693 C 0.42593 0.11075 0.02758 0.0
C694 C 0.9099 0.32032 0.1179 0.0
C695 C 0.93093 0.35243 0.10535 0.0
H696 H 0.89616 0.27221 0.09674 0.0
C697 C 0.95113 0.36067 0.05522 0.0
H698 H 0.89432 0.31341 0.15678 0.0
C699 C 0.95228 0.33725 0.0212 0.0
C700 C 0.93343 0.30517 0.03714 0.0
H701 H 0.96793 0.38531 0.04549 0.0
H702 H 0.96941 0.34435 0.98479 0.0
C703 C 0.911 0.29675 0.0837 0.0
C704 C 0.6986 0.59223 0.06225 0.0
C705 C 0.69713 0.59875 0.12384 0.0
H706 H 0.72347 0.61042 0.9778 0.0
C707 C 0.72256 0.62595 0.14995 0.0
H708 H 0.6792 0.5715 0.04116 0.0
C709 C 0.74776 0.64751 0.11459 0.0
C710 C 0.748 0.6426 0.05214 0.0
H711 H 0.7222 0.63151 0.19747 0.0
H712 H 0.7659 0.66929 0.13524 0.0
C713 C 0.72391 0.6143 0.02629 0.0
C714 C 0.62154 0.91002 0.83813 0.0
C715 C 0.60177 0.91968 0.8648 0.0
H716 H 0.66205 0.90476 0.84929 0.0
C717 C 0.60494 0.92734 0.9266 0.0
H718 H 0.61972 0.90455 0.79011 0.0
C719 C 0.62958 0.92822 0.95993 0.0
C720 C 0.65093 0.92098 0.93194 0.0
H721 H 0.5904 0.93558 0.9475 0.0
H722 H 0.63321 0.9365 0.00649 0.0
C723 C 0.64577 0.91029 0.87174 0.0
C724 C 0.10821 0.71541 0.83887 0.0
C725 C 0.11395 0.69219 0.86255 0.0
H726 H 0.10434 0.75616 0.85679 0.0
C727 C 0.12473 0.69518 0.92255 0.0
H728 H 0.10033 0.71405 0.79246 0.0
C729 C 0.12706 0.71967 0.95966 0.0
C730 C 0.11901 0.7414 0.93655 0.0
H731 H 0.12931 0.67758 0.94175 0.0
H732 H 0.13305 0.72038 0.00714 0.0
C733 C 0.11077 0.73974 0.87537 0.0
C734 C 0.32978 0.42462 0.96312 0.0
C735 C 0.30557 0.39633 0.93747 0.0
H736 H 0.37422 0.4676 0.94756 0.0
C737 C 0.30524 0.39165 0.87481 0.0
H738 H 0.33065 0.42832 0.01173 0.0
C739 C 0.33001 0.41349 0.83892 0.0
C740 C 0.35558 0.44066 0.86474 0.0
H741 H 0.28698 0.3699 0.8543 0.0
H742 H 0.32996 0.40814 0.79116 0.0
C743 C 0.35468 0.44692 0.92667 0.0
C744 C 0.08156 0.46944 0.43762 0.0
C745 C 0.07504 0.45602 0.37943 0.0
H746 H 0.10879 0.47802 0.51878 0.0
C747 C 0.09528 0.44668 0.35357 0.0
H748 H 0.06614 0.47658 0.45849 0.0
C749 C 0.12012 0.44825 0.3874 0.0
C750 C 0.12465 0.45878 0.44765 0.0
H751 H 0.09058 0.43626 0.30863 0.0
H752 H 0.1337 0.4384 0.36858 0.0
C753 C 0.10602 0.47044 0.47182 0.0
C754 C 0.60755 0.69088 0.39263 0.0
C755 C 0.59269 0.68505 0.44923 0.0
H756 H 0.621 0.67161 0.319 0.0
C757 C 0.57538 0.65388 0.47102 0.0
H758 H 0.62166 0.71488 0.37588 0.0
C759 C 0.57504 0.62911 0.43874 0.0
C760 C 0.59255 0.63549 0.385 0.0
H761 H 0.56427 0.64907 0.51529 0.0
H762 H 0.56345 0.60562 0.45833 0.0
C763 C 0.6075 0.66624 0.36068 0.0
C764 C 0.39946 0.95777 0.48946 0.0
C765 C 0.37382 0.93113 0.46246 0.0
H766 H 0.44264 1.00146 0.4759 0.0
C767 C 0.375 0.9256 0.40024 0.0
H768 H 0.39911 0.96279 0.53722 0.0
C769 C 0.40011 0.94827 0.36472 0.0
C770 C 0.42426 0.9762 0.39154 0.0
H771 H 0.35534 0.90544 0.37835 0.0
H772 H 0.39927 0.94529 0.3159 0.0
C773 C 0.42449 0.97994 0.45448 0.0
C774 C 0.20861 0.38639 0.35065 0.0
C775 C 0.18069 0.36304 0.37863 0.0
H776 H 0.24462 0.39701 0.2846 0.0
C777 C 0.16804 0.33135 0.36022 0.0
H778 H 0.21882 0.41107 0.36273 0.0
C779 C 0.18285 0.32326 0.31511 0.0
C780 C 0.21079 0.34662 0.28725 0.0
H781 H 0.14689 0.3126 0.38124 0.0
H782 H 0.17266 0.2986 0.30287 0.0
C783 C 0.22344 0.37829 0.30564 0.0
C784 C 0.71291 0.83843 0.33706 0.0
C785 C 0.68681 0.83043 0.37503 0.0
H786 H 0.74038 0.86514 0.26053 0.0
C787 C 0.66862 0.84469 0.36435 0.0
H788 H 0.72726 0.82768 0.34352 0.0
C789 C 0.67626 0.86628 0.31691 0.0
C790 C 0.70227 0.87418 0.2788 0.0
H791 H 0.64881 0.83968 0.39336 0.0
H792 H 0.66191 0.87702 0.31048 0.0
C793 C 0.72056 0.86005 0.28959 0.0
C794 C 0.19213 0.87238 0.28591 0.0
C795 C 0.17045 0.83972 0.28964 0.0
H796 H 0.23227 0.91269 0.32487 0.0
C797 C 0.17298 0.82277 0.33872 0.0
H798 H 0.19125 0.88612 0.24843 0.0
C799 C 0.19658 0.83801 0.38266 0.0
C800 C 0.21829 0.87066 0.3789 0.0
H801 H 0.15644 0.79772 0.34383 0.0
H802 H 0.19741 0.82425 0.42015 0.0
C803 C 0.21574 0.88763 0.32989 0.0
C804 C 0.83051 0.66003 0.68317 0.0
C805 C 0.84327 0.69165 0.70204 0.0
H806 H 0.83497 0.62743 0.62519 0.0
C807 C 0.87118 0.71507 0.67424 0.0
H808 H 0.80933 0.64127 0.70413 0.0
C809 C 0.88589 0.70711 0.62878 0.0
C810 C 0.87315 0.67548 0.60992 0.0
H811 H 0.88144 0.7397 0.68679 0.0
H812 H 0.90704 0.7259 0.60782 0.0
C813 C 0.84523 0.65206 0.63773 0.0
C814 C 0.33409 0.17845 0.69935 0.0
C815 C 0.35239 0.16428 0.70969 0.0
H816 H 0.32733 0.21096 0.646 0.0
C817 C 0.37837 0.17231 0.67143 0.0
H818 H 0.31428 0.17327 0.72854 0.0
C819 C 0.38598 0.19405 0.62429 0.0
C820 C 0.36776 0.20832 0.61405 0.0
H821 H 0.39273 0.16155 0.67749 0.0
H822 H 0.40577 0.19917 0.59514 0.0
C823 C 0.34169 0.20021 0.65215 0.0
C824 C 0.85323 0.20417 0.62306 0.0
C825 C 0.83532 0.171 0.62021 0.0
H826 H 0.89008 0.24491 0.66719 0.0
C827 C 0.8404 0.1534 0.6644 0.0
H828 H 0.85034 0.21844 0.58913 0.0
C829 C 0.86321 0.1686 0.70977 0.0
C830 C 0.88173 0.20184 0.71188 0.0
H831 H 0.82676 0.12781 0.6638 0.0
H832 H 0.86623 0.1542 0.7431 0.0
C833 C 0.87619 0.21937 0.66804 0.0
C834 C 0.54154 0.05225 0.01269 0.0
C835 C 0.51394 0.02829 0.04046 0.0
H836 H 0.5777 0.06405 0.94637 0.0
C837 C 0.50198 0.99679 0.02161 0.0
H838 H 0.55117 0.0768 0.02523 0.0
C839 C 0.51721 0.98947 0.9762 0.0
C840 C 0.54483 1.01344 0.9485 0.0
H841 H 0.48109 0.97764 0.04256 0.0
H842 H 0.5076 0.96494 0.96357 0.0
C843 C 0.55679 0.04492 0.96733 0.0
C844 C 0.04999 0.52869 0.95029 0.0
C845 C 0.03082 0.54203 0.94173 0.0
H846 H 0.05813 0.49626 0.00051 0.0
C847 C 1.00453 0.53243 0.97998 0.0
H848 H 0.06999 0.53497 0.92084 0.0
C849 C 0.99765 0.51012 0.02582 0.0
C850 C 1.01685 0.49677 0.03444 0.0
H851 H 0.98942 0.54242 0.97489 0.0
H852 H 0.97765 0.50386 0.05523 0.0
C853 C 0.04305 0.50631 -0.0041 0.0
C854 C 0.51827 0.5369 0.95482 0.0
C855 C 0.50436 0.50408 0.94605 0.0
H856 H 0.55032 0.57751 0.00693 0.0
C857 C 0.5126 0.48697 0.98567 0.0
H858 H 0.51302 0.55096 0.92452 0.0
C859 C 0.53416 0.50225 0.03285 0.0
C860 C 0.54804 0.53506 0.04166 0.0
H861 H 0.50211 0.46164 0.98072 0.0
H862 H 0.53942 0.48819 0.06316 0.0
C863 C 0.53982 0.55217 0.00199 0.0
C864 C 0.27417 0.21037 0.95576 0.0
C865 C 0.24321 0.19384 0.97877 0.0
H866 H 0.31263 0.20774 0.91651 0.0
C867 C 0.22734 0.16054 0.98024 0.0
H868 H 0.28693 0.23596 0.95353 0.0
C869 C 0.24212 0.14423 0.95921 0.0
C870 C 0.273 0.16083 0.93569 0.0
H871 H 0.20363 0.14706 -0.0016 0.0
H872 H 0.22925 0.11862 0.96105 0.0
C873 C 0.28881 0.19411 0.93426 0.0
C874 C 0.88832 0.11087 0.91664 0.0
C875 C 0.89754 0.1323 0.96545 0.0
H876 H 0.86067 0.06259 0.88726 0.0
C877 C 0.8844 0.12064 0.02298 0.0
H878 H 0.89791 0.11903 0.87167 0.0
C879 C 0.86319 0.08841 0.0319 0.0
C880 C 0.85447 0.06674 0.98367 0.0
H881 H 0.89086 0.13637 0.0617 0.0
H882 H 0.85437 0.08045 0.0772 0.0
C883 C 0.86711 0.07845 0.92569 0.0
C884 C 0.95607 0.77464 0.02334 0.0
C885 C 0.97954 0.79917 0.98802 0.0
H886 H 0.90653 0.74438 0.03998 0.0
C887 C 0.9702 0.80972 0.93709 0.0
H888 H 0.96229 0.76583 0.06263 0.0
C889 C 0.93809 0.79686 0.92322 0.0
C890 C 0.91472 0.77368 0.96082 0.0
H891 H 0.98776 0.82832 0.90861 0.0
H892 H 0.93158 0.80614 0.88487 0.0
C893 C 0.92405 0.76235 0.01035 0.0
C894 C 0.81288 0.8945 0.02924 0.0
C895 C 0.78203 0.87786 0.05289 0.0
H896 H 0.85136 0.89172 0.98991 0.0
C897 C 0.76629 0.8446 0.05462 0.0
H898 H 0.82569 0.92011 0.02721 0.0
C899 C 0.78097 0.82838 0.03322 0.0
C900 C 0.81187 0.84496 0.00998 0.0
H901 H 0.74251 0.83095 0.07253 0.0
H902 H 0.76827 0.8028 0.03567 0.0
C903 C 0.82769 0.87823 0.00826 0.0
C904 C 0.18884 0.96135 0.06626 0.0
C905 C 0.20049 0.97261 0.00756 0.0
H906 H 0.15865 0.92131 0.12196 0.0
C907 C 0.19061 0.95064 0.95963 0.0
H908 H 0.1962 0.97745 0.10445 0.0
C909 C 0.16924 0.91853 0.96969 0.0
C910 C 0.15708 0.90735 0.02802 0.0
H911 H 0.19865 0.95829 0.9138 0.0
H912 H 0.16186 0.90255 0.93125 0.0
C913 C 0.16746 0.92909 0.07641 0.0
C914 C 0.13036 0.27719 0.98178 0.0
C915 C 0.13982 0.26548 0.03049 0.0
H916 H 0.09189 0.27448 0.93142 0.0
C917 C 0.1166 0.24255 0.06869 0.0
H918 H 0.14778 0.295 0.95178 0.0
C919 C 0.08446 0.23026 0.05612 0.0
C920 C 0.07496 0.24116 0.00598 0.0
H921 H 0.12322 0.23302 0.10647 0.0
H922 H 0.06697 0.21178 0.08489 0.0
C923 C 0.09831 0.26548 0.97015 0.0
C924 C 0.93762 0.54238 0.27227 0.0
C925 C 0.90765 0.52525 0.29942 0.0
H926 H 0.97622 0.54092 0.23039 0.0
C927 C 0.89374 0.49226 0.30557 0.0
H928 H 0.94886 0.56775 0.26652 0.0
C929 C 0.90943 0.47681 0.28508 0.0
C930 C 0.93933 0.49395 0.25756 0.0
H931 H 0.87091 0.47837 0.32712 0.0
H932 H 0.89804 0.45141 0.29071 0.0
C933 C 0.95322 0.52693 0.25138 0.0
C934 C 0.51706 0.44235 0.27199 0.0
C935 C 0.55002 0.45847 0.26327 0.0
H936 H 0.47554 0.39925 0.29853 0.0
C937 C 0.56647 0.44255 0.27565 0.0
H938 H 0.50367 0.45395 0.2632 0.0
C939 C 0.55017 0.41099 0.29513 0.0
C940 C 0.51722 0.39495 0.30383 0.0
H941 H 0.59184 0.4543 0.26941 0.0
H942 H 0.56336 0.39921 0.30407 0.0
C943 C 0.50092 0.41107 0.29257 0.0
C944 C 0.59774 0.10374 0.34444 0.0
C945 C 0.58696 0.11161 0.29218 0.0
H946 H 0.63662 0.10751 0.3935 0.0
C947 C 0.6091 0.13036 0.2476 0.0
H948 H 0.5813 0.08901 0.37936 0.0
C949 C 0.64151 0.14182 0.25632 0.0
C950 C 0.65242 0.13449 0.30953 0.0
H951 H 0.60149 0.13695 0.2069 0.0
H952 H 0.65797 0.15688 0.22188 0.0
C953 C 0.62983 0.11475 0.35278 0.0
C954 C 0.44752 0.16024 0.37313 0.0
C955 C 0.47924 0.17736 0.35407 0.0
H956 H 0.40771 0.162 0.40814 0.0
C957 C 0.4953 0.21061 0.35717 0.0
H958 H 0.43453 0.13464 0.37222 0.0
C959 C 0.48 0.2263 0.37819 0.0
C960 C 0.44819 0.20921 0.39642 0.0
H961 H 0.51962 0.22469 0.3425 0.0
H962 H 0.49325 0.25187 0.38043 0.0
C963 C 0.4322 0.17596 0.39414 0.0
C964 C 0.86228 0.2718 0.43248 0.0
C965 C 0.83854 0.24856 0.39544 0.0
H966 H 0.89769 0.32073 0.44289 0.0
C967 C 0.83264 0.2574 0.33849 0.0
H968 H 0.86729 0.26567 0.47662 0.0
C969 C 0.85075 0.28886 0.31854 0.0
C970 C 0.87423 0.31207 0.35608 0.0
H971 H 0.8146 0.23989 0.30893 0.0
H972 H 0.8462 0.2952 0.27423 0.0
C973 C 0.8796 0.30328 0.41338 0.0
C974 C 0.75474 0.57582 0.28888 0.0
C975 C 0.73471 0.56899 0.3393 0.0
H976 H 0.8012 0.5911 0.25622 0.0
C977 C 0.74766 0.57263 0.3978 0.0
H978 H 0.74569 0.57273 0.24312 0.0
C979 C 0.77992 0.58307 0.40543 0.0
C980 C 0.79983 0.59003 0.3547 0.0
H981 H 0.73302 0.56783 0.43765 0.0
H982 H 0.78923 0.58566 0.45096 0.0
C983 C 0.78676 0.58626 0.29645 0.0
C984 C 0.57614 0.81511 0.60898 0.0
C985 C 0.60822 0.83153 0.59243 0.0
H986 H 0.53673 0.81789 0.6422 0.0
C987 C 0.62498 0.86478 0.59524 0.0
H988 H 0.56233 0.78958 0.60625 0.0
C989 C 0.61013 0.88115 0.61513 0.0
C990 C 0.57812 0.86471 0.63245 0.0
H991 H 0.64969 0.87823 0.58252 0.0
H992 H 0.6237 0.90674 0.61655 0.0
C993 C 0.56129 0.83146 0.62882 0.0
C994 C 0.21593 0.78671 0.69008 0.0
C995 C 0.22889 0.79896 0.63271 0.0
H996 H 0.1857 0.74614 0.7432 0.0
C997 C 0.21932 0.77805 0.58297 0.0
H998 H 0.22273 0.80196 0.72958 0.0
C999 C 0.19762 0.7456 0.59083 0.0
C1000 C 0.18492 0.73337 0.64854 0.0
H1001 H 0.22881 0.78667 0.53812 0.0
H1002 H 0.1907 0.73017 0.55166 0.0
C1003 C 0.19438 0.75449 0.69789 0.0
C1004 C 0.26591 0.4548 0.6908 0.0
C1005 C 0.25305 0.45111 0.63236 0.0
H1006 H 0.30676 0.46783 0.74465 0.0
C1007 C 0.27304 0.45763 0.58191 0.0
H1008 H 0.25136 0.45021 0.73081 0.0
C1009 C 0.30518 0.46769 0.58996 0.0
C1010 C 0.31796 0.47133 0.64862 0.0
H1011 H 0.26392 0.45508 0.53624 0.0
H1012 H 0.31988 0.47223 0.55029 0.0
C1013 C 0.29783 0.4648 0.6988 0.0
C1014 C 0.14532 0.56612 0.69833 0.0
C1015 C 0.11572 0.54887 0.72691 0.0
H1016 H 0.18327 0.56462 0.65336 0.0
C1017 C 0.1019 0.51584 0.73223 0.0
H1018 H 0.15662 0.59154 0.69325 0.0
C1019 C 0.11711 0.50042 0.70925 0.0
C1020 C 0.14668 0.5176 0.68073 0.0
H1021 H 0.07911 0.50169 0.75392 0.0
H1022 H 0.10586 0.47502 0.7144 0.0
C1023 C 0.16068 0.55068 0.67572 0.0
C1024 C 0.53596 0.59731 0.71849 0.0
C1025 C 0.50287 0.58106 0.72538 0.0
H1026 H 0.5778 0.64051 0.69369 0.0
C1027 C 0.48656 0.59694 0.7114 0.0
H1028 H 0.54929 0.58577 0.72855 0.0
C1029 C 0.50307 0.62853 0.69208 0.0
C1030 C 0.53615 0.6447 0.68525 0.0
H1031 H 0.4611 0.58511 0.71616 0.0
H1032 H 0.48993 0.64022 0.68179 0.0
C1033 C 0.55234 0.62863 0.69818 0.0
C1034 C 0.41793 0.89891 0.72814 0.0
C1035 C 0.40691 0.9076 0.67714 0.0
H1036 H 0.45829 0.90404 0.77634 0.0
C1037 C 0.42901 0.92965 0.63617 0.0
H1038 H 0.40133 0.88194 0.76032 0.0
C1039 C 0.46136 0.94195 0.64477 0.0
C1040 C 0.47244 0.93282 0.695 0.0
H1041 H 0.42124 0.93634 0.59596 0.0
H1042 H 0.47769 0.95817 0.61128 0.0
C1043 C 0.45045 0.91168 0.7374 0.0
loop_
_geom_bond_atom_site_label_1
_geom_bond_atom_site_label_2
_geom_bond_distance
_geom_bond_site_symmetry_2
_ccdc_geom_bond_type
Co0 N4 2.148 . S
Co0 N10 2.128 . S
Co0 N20 2.194 . S
Co0 O25 2.351 . S
Co0 O26 2.155 . S
Co0 O27 2.096 . S
C1 N4 1.301 . S
C1 N5 1.328 . S
C1 H6 0.930 . S
C2 C3 1.333 . S
C2 N4 1.317 . S
C2 H7 0.930 . S
C3 C2 1.333 . S
C3 N5 1.350 . S
C3 H29 0.931 1_554 S
N4 Co0 2.148 . S
N4 C1 1.301 . S
N4 C2 1.317 . S
N5 C1 1.328 . S
N5 C3 1.350 . S
H6 C1 0.930 . S
H7 C2 0.930 . S
C8 O9 1.224 . S
C8 O27 1.247 . S
O9 C8 1.224 . S
N10 Co0 2.128 . S
N10 C11 1.355 . S
N10 C13 1.311 . S
C11 N10 1.355 . S
C11 C12 1.363 . S
C11 H23 0.929 . S
C12 C11 1.363 . S
C12 N14 1.375 . S
C12 H30 0.931 . S
C13 N10 1.311 . S
C13 N14 1.347 . S
C13 H24 0.929 . S
N14 C12 1.375 . S
N14 C13 1.347 . S
C15 C18 1.365 . S
C15 N20 1.328 . S
C15 H21 0.929 . S
C16 C17 1.362 . S
C16 C19 1.378 1_556 S
C16 H31 0.929 . S
C17 C16 1.362 . S
C17 C18 1.366 1_556 S
C18 C15 1.365 . S
C18 C17 1.366 1_554 S
C18 H32 0.930 . S
C19 C16 1.378 1_554 S
C19 N20 1.315 . S
C19 H22 0.930 . S
N20 Co0 2.194 . S
N20 C15 1.328 . S
N20 C19 1.315 . S
H21 C15 0.929 . S
H22 C19 0.930 . S
H23 C11 0.929 . S
H24 C13 0.929 . S
O25 Co0 2.351 . S
O25 C28 1.244 . S
O26 Co0 2.155 . S
O26 C28 1.240 . S
O27 Co0 2.096 . S
O27 C8 1.247 . S
C28 O25 1.244 . S
C28 O26 1.240 . S
H29 C3 0.931 1_556 S
H30 C12 0.931 . S
H31 C16 0.929 . S
H32 C18 0.930 . S
Co33 N37 2.148 . S
Co33 N43 2.128 . S
Co33 N53 2.194 . S
Co33 O58 2.351 . S
Co33 O59 2.155 . S
Co33 O60 2.096 . S
C34 N37 1.301 1_545 S
C34 N38 1.328 . S
C34 H39 0.930 . S
C35 C36 1.333 1_565 S
C35 N37 1.317 . S
C35 H40 0.930 . S
C36 C35 1.333 1_545 S
C36 N38 1.350 . S
C36 H62 0.931 1_554 S
N37 Co33 2.148 . S
N37 C34 1.301 1_565 S
N37 C35 1.317 . S
N38 C34 1.328 . S
N38 C36 1.350 . S
H39 C34 0.930 . S
H40 C35 0.930 . S
C41 O42 1.224 . S
C41 O60 1.247 . S
O42 C41 1.224 . S
N43 Co33 2.128 . S
N43 C44 1.355 . S
N43 C46 1.311 . S
C44 N43 1.355 . S
C44 C45 1.363 . S
C44 H56 0.929 . S
C45 C44 1.363 . S
C45 N47 1.375 . S
C45 H63 0.931 . S
C46 N43 1.311 . S
C46 N47 1.347 . S
C46 H57 0.929 . S
N47 C45 1.375 . S
N47 C46 1.347 . S
C48 C51 1.365 . S
C48 N53 1.328 . S
C48 H54 0.929 . S
C49 C50 1.362 . S
C49 C52 1.378 1_556 S
C49 H64 0.929 . S
C50 C49 1.362 . S
C50 C51 1.366 1_556 S
C51 C48 1.365 . S
C51 C50 1.366 1_554 S
C51 H65 0.930 . S
C52 C49 1.378 1_554 S
C52 N53 1.315 . S
C52 H55 0.930 . S
N53 Co33 2.194 . S
N53 C48 1.328 . S
N53 C52 1.315 . S
H54 C48 0.929 . S
H55 C52 0.930 . S
H56 C44 0.929 . S
H57 C46 0.929 . S
O58 Co33 2.351 . S
O58 C61 1.244 . S
O59 Co33 2.155 . S
O59 C61 1.240 . S
O60 Co33 2.096 . S
O60 C41 1.247 . S
C61 O58 1.244 . S
C61 O59 1.240 . S
H62 C36 0.931 1_556 S
H63 C45 0.931 . S
H64 C49 0.929 . S
H65 C51 0.930 . S
Co66 N70 2.148 . S
Co66 N76 2.128 . S
Co66 N86 2.194 . S
Co66 O91 2.351 . S
Co66 O92 2.155 . S
Co66 O93 2.096 . S
C67 N70 1.301 1_655 S
C67 N71 1.328 . S
C67 H72 0.930 . S
C68 C69 1.333 1_455 S
C68 N70 1.317 . S
C68 H73 0.930 . S
C69 C68 1.333 1_655 S
C69 N71 1.350 . S
C69 H95 0.931 1_554 S
N70 Co66 2.148 . S
N70 C67 1.301 1_455 S
N70 C68 1.317 . S
N71 C67 1.328 . S
N71 C69 1.350 . S
H72 C67 0.930 . S
H73 C68 0.930 . S
C74 O75 1.224 . S
C74 O93 1.247 . S
O75 C74 1.224 . S
N76 Co66 2.128 . S
N76 C77 1.355 . S
N76 C79 1.311 . S
C77 N76 1.355 . S
C77 C78 1.363 . S
C77 H89 0.929 . S
C78 C77 1.363 . S
C78 N80 1.375 . S
C78 H96 0.931 . S
C79 N76 1.311 . S
C79 N80 1.347 . S
C79 H90 0.929 . S
N80 C78 1.375 . S
N80 C79 1.347 . S
C81 C84 1.365 . S
C81 N86 1.328 . S
C81 H87 0.929 . S
C82 C83 1.362 . S
C82 C85 1.378 1_556 S
C82 H97 0.929 . S
C83 C82 1.362 . S
C83 C84 1.366 1_556 S
C84 C81 1.365 . S
C84 C83 1.366 1_554 S
C84 H98 0.930 . S
C85 C82 1.378 1_554 S
C85 N86 1.315 . S
C85 H88 0.930 . S
N86 Co66 2.194 . S
N86 C81 1.328 . S
N86 C85 1.315 . S
H87 C81 0.929 . S
H88 C85 0.930 . S
H89 C77 0.929 . S
H90 C79 0.929 . S
O91 Co66 2.351 . S
O91 C94 1.244 . S
O92 Co66 2.155 . S
O92 C94 1.240 . S
O93 Co66 2.096 . S
O93 C74 1.247 . S
C94 O91 1.244 . S
C94 O92 1.240 . S
H95 C69 0.931 1_556 S
H96 C78 0.931 . S
H97 C82 0.929 . S
H98 C84 0.930 . S
Co99 N103 2.148 . S
Co99 N109 2.128 . S
Co99 N119 2.194 . S
Co99 O124 2.351 . S
Co99 O125 2.155 . S
Co99 O126 2.096 . S
C100 N103 1.301 . S
C100 N104 1.328 . S
C100 H105 0.930 . S
C101 C102 1.333 . S
C101 N103 1.317 . S
C101 H106 0.930 . S
C102 C101 1.333 . S
C102 N104 1.350 . S
C102 H128 0.931 1_556 S
N103 Co99 2.148 . S
N103 C100 1.301 . S
N103 C101 1.317 . S
N104 C100 1.328 . S
N104 C102 1.350 . S
H105 C100 0.930 . S
H106 C101 0.930 . S
C107 O108 1.224 . S
C107 O126 1.247 . S
O108 C107 1.224 . S
N109 Co99 2.128 . S
N109 C110 1.355 . S
N109 C112 1.311 . S
C110 N109 1.355 . S
C110 C111 1.363 . S
C110 H122 0.929 . S
C111 C110 1.363 . S
C111 N113 1.375 . S
C111 H129 0.931 . S
C112 N109 1.311 . S
C112 N113 1.347 . S
C112 H123 0.929 . S
N113 C111 1.375 . S
N113 C112 1.347 . S
C114 C117 1.365 . S
C114 N119 1.328 . S
C114 H120 0.929 . S
C115 C116 1.362 . S
C115 C118 1.378 1_554 S
C115 H130 0.929 . S
C116 C115 1.362 . S
C116 C117 1.366 1_554 S
C117 C114 1.365 . S
C117 C116 1.366 1_556 S
C117 H131 0.930 . S
C118 C115 1.378 1_556 S
C118 N119 1.315 . S
C118 H121 0.930 . S
N119 Co99 2.194 . S
N119 C114 1.328 . S
N119 C118 1.315 . S
H120 C114 0.929 . S
H121 C118 0.930 . S
H122 C110 0.929 . S
H123 C112 0.929 . S
O124 Co99 2.351 . S
O124 C127 1.244 . S
O125 Co99 2.155 . S
O125 C127 1.240 . S
O126 Co99 2.096 . S
O126 C107 1.247 . S
C127 O124 1.244 . S
C127 O125 1.240 . S
H128 C102 0.931 1_554 S
H129 C111 0.931 . S
H130 C115 0.929 . S
H131 C117 0.930 . S
Co132 N136 2.148 . S
Co132 N142 2.128 . S
Co132 N152 2.194 . S
Co132 O157 2.351 . S
Co132 O158 2.155 . S
Co132 O159 2.096 . S
C133 N136 1.301 1_565 S
C133 N137 1.328 . S
C133 H138 0.930 . S
C134 C135 1.333 1_545 S
C134 N136 1.317 . S
C134 H139 0.930 . S
C135 C134 1.333 1_565 S
C135 N137 1.350 . S
C135 H161 0.931 1_556 S
N136 Co132 2.148 . S
N136 C133 1.301 1_545 S
N136 C134 1.317 . S
N137 C133 1.328 . S
N137 C135 1.350 . S
H138 C133 0.930 . S
H139 C134 0.930 . S
C140 O141 1.224 . S
C140 O159 1.247 . S
O141 C140 1.224 . S
N142 Co132 2.128 . S
N142 C143 1.355 . S
N142 C145 1.311 . S
C143 N142 1.355 . S
C143 C144 1.363 . S
C143 H155 0.929 . S
C144 C143 1.363 . S
C144 N146 1.375 . S
C144 H162 0.931 . S
C145 N142 1.311 . S
C145 N146 1.347 . S
C145 H156 0.929 . S
N146 C144 1.375 . S
N146 C145 1.347 . S
C147 C150 1.365 . S
C147 N152 1.328 . S
C147 H153 0.929 . S
C148 C149 1.362 . S
C148 C151 1.378 1_554 S
C148 H163 0.929 . S
C149 C148 1.362 . S
C149 C150 1.366 1_554 S
C150 C147 1.365 . S
C150 C149 1.366 1_556 S
C150 H164 0.930 . S
C151 C148 1.378 1_556 S
C151 N152 1.315 . S
C151 H154 0.930 . S
N152 Co132 2.194 . S
N152 C147 1.328 . S
N152 C151 1.315 . S
H153 C147 0.929 . S
H154 C151 0.930 . S
H155 C143 0.929 . S
H156 C145 0.929 . S
O157 Co132 2.351 . S
O157 C160 1.244 . S
O158 Co132 2.155 . S
O158 C160 1.240 . S
O159 Co132 2.096 . S
O159 C140 1.247 . S
C160 O157 1.244 . S
C160 O158 1.240 . S
H161 C135 0.931 1_554 S
H162 C144 0.931 . S
H163 C148 0.929 . S
H164 C150 0.930 . S
Co165 N169 2.148 . S
Co165 N175 2.128 . S
Co165 N185 2.194 . S
Co165 O190 2.351 . S
Co165 O191 2.155 . S
Co165 O192 2.096 . S
C166 N169 1.301 1_455 S
C166 N170 1.328 . S
C166 H171 0.930 . S
C167 C168 1.333 1_655 S
C167 N169 1.317 . S
C167 H172 0.930 . S
C168 C167 1.333 1_455 S
C168 N170 1.350 . S
C168 H194 0.931 1_556 S
N169 Co165 2.148 . S
N169 C166 1.301 1_655 S
N169 C167 1.317 . S
N170 C166 1.328 . S
N170 C168 1.350 . S
H171 C166 0.930 . S
H172 C167 0.930 . S
C173 O174 1.224 . S
C173 O192 1.247 . S
O174 C173 1.224 . S
N175 Co165 2.128 . S
N175 C176 1.355 . S
N175 C178 1.311 . S
C176 N175 1.355 . S
C176 C177 1.363 . S
C176 H188 0.929 . S
C177 C176 1.363 . S
C177 N179 1.375 . S
C177 H195 0.931 . S
C178 N175 1.311 . S
C178 N179 1.347 . S
C178 H189 0.929 . S
N179 C177 1.375 . S
N179 C178 1.347 . S
C180 C183 1.365 . S
C180 N185 1.328 . S
C180 H186 0.929 . S
C181 C182 1.362 . S
C181 C184 1.378 1_554 S
C181 H196 0.929 . S
C182 C181 1.362 . S
C182 C183 1.366 1_554 S
C183 C180 1.365 . S
C183 C182 1.366 1_556 S
C183 H197 0.930 . S
C184 C181 1.378 1_556 S
C184 N185 1.315 . S
C184 H187 0.930 . S
N185 Co165 2.194 . S
N185 C180 1.328 . S
N185 C184 1.315 . S
H186 C180 0.929 . S
H187 C184 0.930 . S
H188 C176 0.929 . S
H189 C178 0.929 . S
O190 Co165 2.351 . S
O190 C193 1.244 . S
O191 Co165 2.155 . S
O191 C193 1.240 . S
O192 Co165 2.096 . S
O192 C173 1.247 . S
C193 O190 1.244 . S
C193 O191 1.240 . S
H194 C168 0.931 1_554 S
H195 C177 0.931 . S
H196 C181 0.929 . S
H197 C183 0.930 . S
Co198 N202 2.148 . S
Co198 N208 2.128 . S
Co198 N218 2.194 . S
Co198 O223 2.351 . S
Co198 O224 2.155 . S
Co198 O225 2.096 . S
C199 N202 1.301 . S
C199 N203 1.328 . S
C199 H204 0.930 . S
C200 C201 1.333 . S
C200 N202 1.317 . S
C200 H205 0.930 . S
C201 C200 1.333 . S
C201 N203 1.350 . S
C201 H227 0.931 . S
N202 Co198 2.148 . S
N202 C199 1.301 . S
N202 C200 1.317 . S
N203 C199 1.328 . S
N203 C201 1.350 . S
H204 C199 0.930 . S
H205 C200 0.930 . S
C206 O207 1.224 . S
C206 O225 1.247 . S
O207 C206 1.224 . S
N208 Co198 2.128 . S
N208 C209 1.355 . S
N208 C211 1.311 . S
C209 N208 1.355 . S
C209 C210 1.363 . S
C209 H221 0.929 . S
C210 C209 1.363 . S
C210 N212 1.375 . S
C210 H228 0.931 . S
C211 N208 1.311 . S
C211 N212 1.347 . S
C211 H222 0.929 . S
N212 C210 1.375 . S
N212 C211 1.347 . S
C213 C216 1.365 . S
C213 N218 1.328 . S
C213 H219 0.929 . S
C214 C215 1.362 . S
C214 C217 1.378 . S
C214 H229 0.929 . S
C215 C214 1.362 . S
C215 C216 1.366 . S
C216 C213 1.365 . S
C216 C215 1.366 . S
C216 H230 0.930 . S
C217 C214 1.378 . S
C217 N218 1.315 . S
C217 H220 0.930 . S
N218 Co198 2.194 . S
N218 C213 1.328 . S
N218 C217 1.315 . S
H219 C213 0.929 . S
H220 C217 0.930 . S
H221 C209 0.929 . S
H222 C211 0.929 . S
O223 Co198 2.351 . S
O223 C226 1.244 . S
O224 Co198 2.155 . S
O224 C226 1.240 . S
O225 Co198 2.096 . S
O225 C206 1.247 . S
C226 O223 1.244 . S
C226 O224 1.240 . S
H227 C201 0.931 . S
H228 C210 0.931 . S
H229 C214 0.929 . S
H230 C216 0.930 . S
Co231 N235 2.148 . S
Co231 N241 2.128 . S
Co231 N251 2.194 . S
Co231 O256 2.351 . S
Co231 O257 2.155 . S
Co231 O258 2.096 . S
C232 N235 1.301 . S
C232 N236 1.328 . S
C232 H237 0.930 . S
C233 C234 1.333 . S
C233 N235 1.317 . S
C233 H238 0.930 . S
C234 C233 1.333 . S
C234 N236 1.350 . S
C234 H260 0.931 . S
N235 Co231 2.148 . S
N235 C232 1.301 . S
N235 C233 1.317 . S
N236 C232 1.328 . S
N236 C234 1.350 . S
H237 C232 0.930 . S
H238 C233 0.930 . S
C239 O240 1.224 . S
C239 O258 1.247 . S
O240 C239 1.224 . S
N241 Co231 2.128 . S
N241 C242 1.355 . S
N241 C244 1.311 . S
C242 N241 1.355 . S
C242 C243 1.363 . S
C242 H254 0.929 . S
C243 C242 1.363 . S
C243 N245 1.375 . S
C243 H261 0.931 . S
C244 N241 1.311 . S
C244 N245 1.347 . S
C244 H255 0.929 . S
N245 C243 1.375 . S
N245 C244 1.347 . S
C246 C249 1.365 . S
C246 N251 1.328 . S
C246 H252 0.929 . S
C247 C248 1.362 . S
C247 C250 1.378 . S
C247 H262 0.929 . S
C248 C247 1.362 . S
C248 C249 1.366 . S
C249 C246 1.365 . S
C249 C248 1.366 . S
C249 H263 0.930 . S
C250 C247 1.378 . S
C250 N251 1.315 . S
C250 H253 0.930 . S
N251 Co231 2.194 . S
N251 C246 1.328 . S
N251 C250 1.315 . S
H252 C246 0.929 . S
H253 C250 0.930 . S
H254 C242 0.929 . S
H255 C244 0.929 . S
O256 Co231 2.351 . S
O256 C259 1.244 . S
O257 Co231 2.155 . S
O257 C259 1.240 . S
O258 Co231 2.096 . S
O258 C239 1.247 . S
C259 O256 1.244 . S
C259 O257 1.240 . S
H260 C234 0.931 . S
H261 C243 0.931 . S
H262 C247 0.929 . S
H263 C249 0.930 . S
Co264 N268 2.148 . S
Co264 N274 2.128 . S
Co264 N284 2.194 . S
Co264 O289 2.351 . S
Co264 O290 2.155 . S
Co264 O291 2.096 . S
C265 N268 1.301 . S
C265 N269 1.328 . S
C265 H270 0.930 . S
C266 C267 1.333 . S
C266 N268 1.317 . S
C266 H271 0.930 . S
C267 C266 1.333 . S
C267 N269 1.350 . S
C267 H293 0.931 . S
N268 Co264 2.148 . S
N268 C265 1.301 . S
N268 C266 1.317 . S
N269 C265 1.328 . S
N269 C267 1.350 . S
H270 C265 0.930 . S
H271 C266 0.930 . S
C272 O273 1.224 . S
C272 O291 1.247 . S
O273 C272 1.224 . S
N274 Co264 2.128 . S
N274 C275 1.355 . S
N274 C277 1.311 . S
C275 N274 1.355 . S
C275 C276 1.363 . S
C275 H287 0.929 . S
C276 C275 1.363 . S
C276 N278 1.375 . S
C276 H294 0.931 . S
C277 N274 1.311 . S
C277 N278 1.347 . S
C277 H288 0.929 . S
N278 C276 1.375 . S
N278 C277 1.347 . S
C279 C282 1.365 . S
C279 N284 1.328 . S
C279 H285 0.929 . S
C280 C281 1.362 . S
C280 C283 1.378 . S
C280 H295 0.929 . S
C281 C280 1.362 . S
C281 C282 1.366 . S
C282 C279 1.365 . S
C282 C281 1.366 . S
C282 H296 0.930 . S
C283 C280 1.378 . S
C283 N284 1.315 . S
C283 H286 0.930 . S
N284 Co264 2.194 . S
N284 C279 1.328 . S
N284 C283 1.315 . S
H285 C279 0.929 . S
H286 C283 0.930 . S
H287 C275 0.929 . S
H288 C277 0.929 . S
O289 Co264 2.351 . S
O289 C292 1.244 . S
O290 Co264 2.155 . S
O290 C292 1.240 . S
O291 Co264 2.096 . S
O291 C272 1.247 . S
C292 O289 1.244 . S
C292 O290 1.240 . S
H293 C267 0.931 . S
H294 C276 0.931 . S
H295 C280 0.929 . S
H296 C282 0.930 . S
Co297 N301 2.148 . S
Co297 N307 2.128 . S
Co297 N317 2.194 . S
Co297 O322 2.351 . S
Co297 O323 2.155 . S
Co297 O324 2.096 . S
C298 N301 1.301 . S
C298 N302 1.328 . S
C298 H303 0.930 . S
C299 C300 1.333 . S
C299 N301 1.317 . S
C299 H304 0.930 . S
C300 C299 1.333 . S
C300 N302 1.350 . S
C300 H326 0.931 . S
N301 Co297 2.148 . S
N301 C298 1.301 . S
N301 C299 1.317 . S
N302 C298 1.328 . S
N302 C300 1.350 . S
H303 C298 0.930 . S
H304 C299 0.930 . S
C305 O306 1.224 . S
C305 O324 1.247 . S
O306 C305 1.224 . S
N307 Co297 2.128 . S
N307 C308 1.355 . S
N307 C310 1.311 . S
C308 N307 1.355 . S
C308 C309 1.363 1_545 S
C308 H320 0.929 . S
C309 C308 1.363 1_565 S
C309 N311 1.375 1_565 S
C309 H327 0.931 . S
C310 N307 1.311 . S
C310 N311 1.347 . S
C310 H321 0.929 . S
N311 C309 1.375 1_545 S
N311 C310 1.347 . S
C312 C315 1.365 . S
C312 N317 1.328 . S
C312 H318 0.929 . S
C313 C314 1.362 . S
C313 C316 1.378 . S
C313 H328 0.929 . S
C314 C313 1.362 . S
C314 C315 1.366 . S
C315 C312 1.365 . S
C315 C314 1.366 . S
C315 H329 0.930 . S
C316 C313 1.378 . S
C316 N317 1.315 . S
C316 H319 0.930 . S
N317 Co297 2.194 . S
N317 C312 1.328 . S
N317 C316 1.315 . S
H318 C312 0.929 . S
H319 C316 0.930 . S
H320 C308 0.929 . S
H321 C310 0.929 . S
O322 Co297 2.351 . S
O322 C325 1.244 . S
O323 Co297 2.155 . S
O323 C325 1.240 . S
O324 Co297 2.096 . S
O324 C305 1.247 . S
C325 O322 1.244 . S
C325 O323 1.240 . S
H326 C300 0.931 . S
H327 C309 0.931 . S
H328 C313 0.929 . S
H329 C315 0.930 . S
Co330 N334 2.148 . S
Co330 N340 2.128 . S
Co330 N350 2.194 . S
Co330 O355 2.351 . S
Co330 O356 2.155 . S
Co330 O357 2.096 . S
C331 N334 1.301 . S
C331 N335 1.328 . S
C331 H336 0.930 . S
C332 C333 1.333 . S
C332 N334 1.317 . S
C332 H337 0.930 . S
C333 C332 1.333 . S
C333 N335 1.350 . S
C333 H359 0.931 . S
N334 Co330 2.148 . S
N334 C331 1.301 . S
N334 C332 1.317 . S
N335 C331 1.328 . S
N335 C333 1.350 . S
H336 C331 0.930 . S
H337 C332 0.930 . S
C338 O339 1.224 . S
C338 O357 1.247 . S
O339 C338 1.224 . S
N340 Co330 2.128 . S
N340 C341 1.355 . S
N340 C343 1.311 . S
C341 N340 1.355 . S
C341 C342 1.363 1_655 S
C341 H353 0.929 . S
C342 C341 1.363 1_455 S
C342 N344 1.375 1_455 S
C342 H360 0.931 . S
C343 N340 1.311 . S
C343 N344 1.347 . S
C343 H354 0.929 . S
N344 C342 1.375 1_655 S
N344 C343 1.347 . S
C345 C348 1.365 . S
C345 N350 1.328 . S
C345 H351 0.929 . S
C346 C347 1.362 . S
C346 C349 1.378 . S
C346 H361 0.929 . S
C347 C346 1.362 . S
C347 C348 1.366 . S
C348 C345 1.365 . S
C348 C347 1.366 . S
C348 H362 0.930 . S
C349 C346 1.378 . S
C349 N350 1.315 . S
C349 H352 0.930 . S
N350 Co330 2.194 . S
N350 C345 1.328 . S
N350 C349 1.315 . S
H351 C345 0.929 . S
H352 C349 0.930 . S
H353 C341 0.929 . S
H354 C343 0.929 . S
O355 Co330 2.351 . S
O355 C358 1.244 . S
O356 Co330 2.155 . S
O356 C358 1.240 . S
O357 Co330 2.096 . S
O357 C338 1.247 . S
C358 O355 1.244 . S
C358 O356 1.240 . S
H359 C333 0.931 . S
H360 C342 0.931 . S
H361 C346 0.929 . S
H362 C348 0.930 . S
Co363 N367 2.148 . S
Co363 N373 2.128 . S
Co363 N383 2.194 . S
Co363 O388 2.351 . S
Co363 O389 2.155 . S
Co363 O390 2.096 . S
C364 N367 1.301 . S
C364 N368 1.328 . S
C364 H369 0.930 . S
C365 C366 1.333 . S
C365 N367 1.317 . S
C365 H370 0.930 . S
C366 C365 1.333 . S
C366 N368 1.350 . S
C366 H392 0.931 . S
N367 Co363 2.148 . S
N367 C364 1.301 . S
N367 C365 1.317 . S
N368 C364 1.328 . S
N368 C366 1.350 . S
H369 C364 0.930 . S
H370 C365 0.930 . S
C371 O372 1.224 . S
C371 O390 1.247 . S
O372 C371 1.224 . S
N373 Co363 2.128 . S
N373 C374 1.355 . S
N373 C376 1.311 . S
C374 N373 1.355 . S
C374 C375 1.363 . S
C374 H386 0.929 . S
C375 C374 1.363 . S
C375 N377 1.375 . S
C375 H393 0.931 . S
C376 N373 1.311 . S
C376 N377 1.347 . S
C376 H387 0.929 . S
N377 C375 1.375 . S
N377 C376 1.347 . S
C378 C381 1.365 . S
C378 N383 1.328 . S
C378 H384 0.929 . S
C379 C380 1.362 . S
C379 C382 1.378 . S
C379 H394 0.929 . S
C380 C379 1.362 . S
C380 C381 1.366 . S
C381 C378 1.365 . S
C381 C380 1.366 . S
C381 H395 0.930 . S
C382 C379 1.378 . S
C382 N383 1.315 . S
C382 H385 0.930 . S
N383 Co363 2.194 . S
N383 C378 1.328 . S
N383 C382 1.315 . S
H384 C378 0.929 . S
H385 C382 0.930 . S
H386 C374 0.929 . S
H387 C376 0.929 . S
O388 Co363 2.351 . S
O388 C391 1.244 . S
O389 Co363 2.155 . S
O389 C391 1.240 . S
O390 Co363 2.096 . S
O390 C371 1.247 . S
C391 O388 1.244 . S
C391 O389 1.240 . S
H392 C366 0.931 . S
H393 C375 0.931 . S
H394 C379 0.929 . S
H395 C381 0.930 . S
Co396 N400 2.148 . S
Co396 N406 2.128 . S
Co396 N416 2.194 . S
Co396 O421 2.351 . S
Co396 O422 2.155 . S
Co396 O423 2.096 . S
C397 N400 1.301 . S
C397 N401 1.328 . S
C397 H402 0.930 . S
C398 C399 1.333 . S
C398 N400 1.317 . S
C398 H403 0.930 . S
C399 C398 1.333 . S
C399 N401 1.350 . S
C399 H425 0.931 . S
N400 Co396 2.148 . S
N400 C397 1.301 . S
N400 C398 1.317 . S
N401 C397 1.328 . S
N401 C399 1.350 . S
H402 C397 0.930 . S
H403 C398 0.930 . S
C404 O405 1.224 . S
C404 O423 1.247 . S
O405 C404 1.224 . S
N406 Co396 2.128 . S
N406 C407 1.355 . S
N406 C409 1.311 . S
C407 N406 1.355 . S
C407 C408 1.363 1_565 S
C407 H419 0.929 . S
C408 C407 1.363 1_545 S
C408 N410 1.375 1_545 S
C408 H426 0.931 . S
C409 N406 1.311 . S
C409 N410 1.347 . S
C409 H420 0.929 . S
N410 C408 1.375 1_565 S
N410 C409 1.347 . S
C411 C414 1.365 . S
C411 N416 1.328 . S
C411 H417 0.929 . S
C412 C413 1.362 . S
C412 C415 1.378 . S
C412 H427 0.929 . S
C413 C412 1.362 . S
C413 C414 1.366 . S
C414 C411 1.365 . S
C414 C413 1.366 . S
C414 H428 0.930 . S
C415 C412 1.378 . S
C415 N416 1.315 . S
C415 H418 0.930 . S
N416 Co396 2.194 . S
N416 C411 1.328 . S
N416 C415 1.315 . S
H417 C411 0.929 . S
H418 C415 0.930 . S
H419 C407 0.929 . S
H420 C409 0.929 . S
O421 Co396 2.351 . S
O421 C424 1.244 . S
O422 Co396 2.155 . S
O422 C424 1.240 . S
O423 Co396 2.096 . S
O423 C404 1.247 . S
C424 O421 1.244 . S
C424 O422 1.240 . S
H425 C399 0.931 . S
H426 C408 0.931 . S
H427 C412 0.929 . S
H428 C414 0.930 . S
Co429 N433 2.148 . S
Co429 N439 2.128 . S
Co429 N449 2.194 . S
Co429 O454 2.351 . S
Co429 O455 2.155 . S
Co429 O456 2.096 . S
C430 N433 1.301 . S
C430 N434 1.328 . S
C430 H435 0.930 . S
C431 C432 1.333 . S
C431 N433 1.317 . S
C431 H436 0.930 . S
C432 C431 1.333 . S
C432 N434 1.350 . S
C432 H458 0.931 . S
N433 Co429 2.148 . S
N433 C430 1.301 . S
N433 C431 1.317 . S
N434 C430 1.328 . S
N434 C432 1.350 . S
H435 C430 0.930 . S
H436 C431 0.930 . S
C437 O438 1.224 . S
C437 O456 1.247 . S
O438 C437 1.224 . S
N439 Co429 2.128 . S
N439 C440 1.355 . S
N439 C442 1.311 . S
C440 N439 1.355 . S
C440 C441 1.363 1_455 S
C440 H452 0.929 . S
C441 C440 1.363 1_655 S
C441 N443 1.375 1_655 S
C441 H459 0.931 . S
C442 N439 1.311 . S
C442 N443 1.347 . S
C442 H453 0.929 . S
N443 C441 1.375 1_455 S
N443 C442 1.347 . S
C444 C447 1.365 . S
C444 N449 1.328 . S
C444 H450 0.929 . S
C445 C446 1.362 . S
C445 C448 1.378 . S
C445 H460 0.929 . S
C446 C445 1.362 . S
C446 C447 1.366 . S
C447 C444 1.365 . S
C447 C446 1.366 . S
C447 H461 0.930 . S
C448 C445 1.378 . S
C448 N449 1.315 . S
C448 H451 0.930 . S
N449 Co429 2.194 . S
N449 C444 1.328 . S
N449 C448 1.315 . S
H450 C444 0.929 . S
H451 C448 0.930 . S
H452 C440 0.929 . S
H453 C442 0.929 . S
O454 Co429 2.351 . S
O454 C457 1.244 . S
O455 Co429 2.155 . S
O455 C457 1.240 . S
O456 Co429 2.096 . S
O456 C437 1.247 . S
C457 O454 1.244 . S
C457 O455 1.240 . S
H458 C432 0.931 . S
H459 C441 0.931 . S
H460 C445 0.929 . S
H461 C447 0.930 . S
Co462 N466 2.148 . S
Co462 N472 2.128 . S
Co462 N482 2.194 . S
Co462 O487 2.351 . S
Co462 O488 2.155 . S
Co462 O489 2.096 . S
C463 N466 1.301 . S
C463 N467 1.328 . S
C463 H468 0.930 . S
C464 C465 1.333 . S
C464 N466 1.317 . S
C464 H469 0.930 . S
C465 C464 1.333 . S
C465 N467 1.350 . S
C465 H491 0.931 . S
N466 Co462 2.148 . S
N466 C463 1.301 . S
N466 C464 1.317 . S
N467 C463 1.328 . S
N467 C465 1.350 . S
H468 C463 0.930 . S
H469 C464 0.930 . S
C470 O471 1.224 . S
C470 O489 1.247 . S
O471 C470 1.224 . S
N472 Co462 2.128 . S
N472 C473 1.355 . S
N472 C475 1.311 . S
C473 N472 1.355 . S
C473 C474 1.363 . S
C473 H485 0.929 . S
C474 C473 1.363 . S
C474 N476 1.375 . S
C474 H492 0.931 . S
C475 N472 1.311 . S
C475 N476 1.347 . S
C475 H486 0.929 . S
N476 C474 1.375 . S
N476 C475 1.347 . S
C477 C480 1.365 . S
C477 N482 1.328 . S
C477 H483 0.929 . S
C478 C479 1.362 . S
C478 C481 1.378 . S
C478 H493 0.929 . S
C479 C478 1.362 . S
C479 C480 1.366 . S
C480 C477 1.365 . S
C480 C479 1.366 . S
C480 H494 0.930 . S
C481 C478 1.378 . S
C481 N482 1.315 . S
C481 H484 0.930 . S
N482 Co462 2.194 . S
N482 C477 1.328 . S
N482 C481 1.315 . S
H483 C477 0.929 . S
H484 C481 0.930 . S
H485 C473 0.929 . S
H486 C475 0.929 . S
O487 Co462 2.351 . S
O487 C490 1.244 . S
O488 Co462 2.155 . S
O488 C490 1.240 . S
O489 Co462 2.096 . S
O489 C470 1.247 . S
C490 O487 1.244 . S
C490 O488 1.240 . S
H491 C465 0.931 . S
H492 C474 0.931 . S
H493 C478 0.929 . S
H494 C480 0.930 . S
Co495 N499 2.148 . S
Co495 N505 2.128 . S
Co495 N515 2.194 . S
Co495 O520 2.351 . S
Co495 O521 2.155 . S
Co495 O522 2.096 . S
C496 N499 1.301 . S
C496 N500 1.328 . S
C496 H501 0.930 . S
C497 C498 1.333 . S
C497 N499 1.317 . S
C497 H502 0.930 . S
C498 C497 1.333 . S
C498 N500 1.350 . S
C498 H524 0.931 . S
N499 Co495 2.148 . S
N499 C496 1.301 . S
N499 C497 1.317 . S
N500 C496 1.328 . S
N500 C498 1.350 . S
H501 C496 0.930 . S
H502 C497 0.930 . S
C503 O504 1.224 . S
C503 O522 1.247 . S
O504 C503 1.224 . S
N505 Co495 2.128 . S
N505 C506 1.355 . S
N505 C508 1.311 . S
C506 N505 1.355 . S
C506 C507 1.363 . S
C506 H518 0.929 . S
C507 C506 1.363 . S
C507 N509 1.375 . S
C507 H525 0.931 . S
C508 N505 1.311 . S
C508 N509 1.347 . S
C508 H519 0.929 . S
N509 C507 1.375 . S
N509 C508 1.347 . S
C510 C513 1.365 . S
C510 N515 1.328 . S
C510 H516 0.929 . S
C511 C512 1.362 . S
C511 C514 1.378 . S
C511 H526 0.929 . S
C512 C511 1.362 . S
C512 C513 1.366 . S
C513 C510 1.365 . S
C513 C512 1.366 . S
C513 H527 0.930 . S
C514 C511 1.378 . S
C514 N515 1.315 . S
C514 H517 0.930 . S
N515 Co495 2.194 . S
N515 C510 1.328 . S
N515 C514 1.315 . S
H516 C510 0.929 . S
H517 C514 0.930 . S
H518 C506 0.929 . S
H519 C508 0.929 . S
O520 Co495 2.351 . S
O520 C523 1.244 . S
O521 Co495 2.155 . S
O521 C523 1.240 . S
O522 Co495 2.096 . S
O522 C503 1.247 . S
C523 O520 1.244 . S
C523 O521 1.240 . S
H524 C498 0.931 . S
H525 C507 0.931 . S
H526 C511 0.929 . S
H527 C513 0.930 . S
Co528 N532 2.148 . S
Co528 N538 2.128 . S
Co528 N548 2.194 . S
Co528 O553 2.351 . S
Co528 O554 2.155 . S
Co528 O555 2.096 . S
C529 N532 1.301 . S
C529 N533 1.328 . S
C529 H534 0.930 . S
C530 C531 1.333 . S
C530 N532 1.317 . S
C530 H535 0.930 . S
C531 C530 1.333 . S
C531 N533 1.350 . S
C531 H557 0.931 . S
N532 Co528 2.148 . S
N532 C529 1.301 . S
N532 C530 1.317 . S
N533 C529 1.328 . S
N533 C531 1.350 . S
H534 C529 0.930 . S
H535 C530 0.930 . S
C536 O537 1.224 . S
C536 O555 1.247 . S
O537 C536 1.224 . S
N538 Co528 2.128 . S
N538 C539 1.355 . S
N538 C541 1.311 . S
C539 N538 1.355 . S
C539 C540 1.363 . S
C539 H551 0.929 . S
C540 C539 1.363 . S
C540 N542 1.375 . S
C540 H558 0.931 . S
C541 N538 1.311 . S
C541 N542 1.347 . S
C541 H552 0.929 . S
N542 C540 1.375 . S
N542 C541 1.347 . S
C543 C546 1.365 . S
C543 N548 1.328 . S
C543 H549 0.929 . S
C544 C545 1.362 . S
C544 C547 1.378 . S
C544 H559 0.929 . S
C545 C544 1.362 . S
C545 C546 1.366 . S
C546 C543 1.365 . S
C546 C545 1.366 . S
C546 H560 0.930 . S
C547 C544 1.378 . S
C547 N548 1.315 . S
C547 H550 0.930 . S
N548 Co528 2.194 . S
N548 C543 1.328 . S
N548 C547 1.315 . S
H549 C543 0.929 . S
H550 C547 0.930 . S
H551 C539 0.929 . S
H552 C541 0.929 . S
O553 Co528 2.351 . S
O553 C556 1.244 . S
O554 Co528 2.155 . S
O554 C556 1.240 . S
O555 Co528 2.096 . S
O555 C536 1.247 . S
C556 O553 1.244 . S
C556 O554 1.240 . S
H557 C531 0.931 . S
H558 C540 0.931 . S
H559 C544 0.929 . S
H560 C546 0.930 . S
Co561 N565 2.148 . S
Co561 N571 2.128 . S
Co561 N581 2.194 . S
Co561 O586 2.351 . S
Co561 O587 2.155 . S
Co561 O588 2.096 . S
C562 N565 1.301 . S
C562 N566 1.328 . S
C562 H567 0.930 . S
C563 C564 1.333 . S
C563 N565 1.317 . S
C563 H568 0.930 . S
C564 C563 1.333 . S
C564 N566 1.350 . S
C564 H590 0.931 . S
N565 Co561 2.148 . S
N565 C562 1.301 . S
N565 C563 1.317 . S
N566 C562 1.328 . S
N566 C564 1.350 . S
H567 C562 0.930 . S
H568 C563 0.930 . S
C569 O570 1.224 . S
C569 O588 1.247 . S
O570 C569 1.224 . S
N571 Co561 2.128 . S
N571 C572 1.355 . S
N571 C574 1.311 . S
C572 N571 1.355 . S
C572 C573 1.363 . S
C572 H584 0.929 . S
C573 C572 1.363 . S
C573 N575 1.375 . S
C573 H591 0.931 . S
C574 N571 1.311 . S
C574 N575 1.347 . S
C574 H585 0.929 . S
N575 C573 1.375 . S
N575 C574 1.347 . S
C576 C579 1.365 . S
C576 N581 1.328 . S
C576 H582 0.929 . S
C577 C578 1.362 . S
C577 C580 1.378 . S
C577 H592 0.929 . S
C578 C577 1.362 . S
C578 C579 1.366 . S
C579 C576 1.365 . S
C579 C578 1.366 . S
C579 H593 0.930 . S
C580 C577 1.378 . S
C580 N581 1.315 . S
C580 H583 0.930 . S
N581 Co561 2.194 . S
N581 C576 1.328 . S
N581 C580 1.315 . S
H582 C576 0.929 . S
H583 C580 0.930 . S
H584 C572 0.929 . S
H585 C574 0.929 . S
O586 Co561 2.351 . S
O586 C589 1.244 . S
O587 Co561 2.155 . S
O587 C589 1.240 . S
O588 Co561 2.096 . S
O588 C569 1.247 . S
C589 O586 1.244 . S
C589 O587 1.240 . S
H590 C564 0.931 . S
H591 C573 0.931 . S
H592 C577 0.929 . S
H593 C579 0.930 . S
C594 C595 1.387 . S
C594 H598 0.950 . S
C594 C603 1.390 . S
C595 C594 1.387 . S
C595 C597 1.387 . S
H596 C603 0.950 . S
C597 C595 1.387 . S
C597 C599 1.390 . S
C597 H601 0.950 . S
H598 C594 0.950 . S
C599 C597 1.390 . S
C599 C600 1.387 . S
C599 H602 0.950 . S
C600 C599 1.387 . S
C600 C603 1.387 . S
H601 C597 0.950 . S
H602 C599 0.950 . S
C603 C594 1.390 . S
C603 H596 0.950 . S
C603 C600 1.387 . S
C604 C605 1.387 . S
C604 H608 0.950 . S
C604 C613 1.390 . S
C605 C604 1.387 . S
C605 C607 1.387 . S
H606 C613 0.950 . S
C607 C605 1.387 . S
C607 C609 1.390 . S
C607 H611 0.950 1_545 S
H608 C604 0.950 . S
C609 C607 1.390 . S
C609 C610 1.387 . S
C609 H612 0.950 . S
C610 C609 1.387 . S
C610 C613 1.387 . S
H611 C607 0.950 1_565 S
H612 C609 0.950 . S
C613 C604 1.390 . S
C613 H606 0.950 . S
C613 C610 1.387 . S
C614 C615 1.387 . S
C614 H618 0.950 1_655 S
C614 C623 1.390 . S
C615 C614 1.387 . S
C615 C617 1.387 . S
H616 C623 0.950 . S
C617 C615 1.387 . S
C617 C619 1.390 . S
C617 H621 0.950 . S
H618 C614 0.950 1_455 S
C619 C617 1.390 . S
C619 C620 1.387 . S
C619 H622 0.950 . S
C620 C619 1.387 . S
C620 C623 1.387 . S
H621 C617 0.950 . S
H622 C619 0.950 . S
C623 C614 1.390 . S
C623 H616 0.950 . S
C623 C620 1.387 . S
C624 C625 1.387 . S
C624 H628 0.950 . S
C624 C633 1.390 . S
C625 C624 1.387 . S
C625 C627 1.387 . S
H626 C633 0.950 . S
C627 C625 1.387 . S
C627 C629 1.390 . S
C627 H631 0.950 . S
H628 C624 0.950 . S
C629 C627 1.390 . S
C629 C630 1.387 . S
C629 H632 0.950 . S
C630 C629 1.387 . S
C630 C633 1.387 . S
H631 C627 0.950 . S
H632 C629 0.950 . S
C633 C624 1.390 . S
C633 H626 0.950 . S
C633 C630 1.387 . S
C634 C635 1.387 . S
C634 H638 0.950 . S
C634 C643 1.390 . S
C635 C634 1.387 . S
C635 C637 1.387 . S
H636 C643 0.950 . S
C637 C635 1.387 . S
C637 C639 1.390 . S
C637 H641 0.950 1_565 S
H638 C634 0.950 . S
C639 C637 1.390 . S
C639 C640 1.387 . S
C639 H642 0.950 . S
C640 C639 1.387 . S
C640 C643 1.387 . S
H641 C637 0.950 1_545 S
H642 C639 0.950 . S
C643 C634 1.390 . S
C643 H636 0.950 . S
C643 C640 1.387 . S
C644 C645 1.387 . S
C644 H648 0.950 1_455 S
C644 C653 1.390 . S
C645 C644 1.387 . S
C645 C647 1.387 . S
H646 C653 0.950 . S
C647 C645 1.387 . S
C647 C649 1.390 . S
C647 H651 0.950 . S
H648 C644 0.950 1_655 S
C649 C647 1.390 . S
C649 C650 1.387 . S
C649 H652 0.950 . S
C650 C649 1.387 . S
C650 C653 1.387 . S
H651 C647 0.950 . S
H652 C649 0.950 . S
C653 C644 1.390 . S
C653 H646 0.950 . S
C653 C650 1.387 . S
C654 C655 1.387 . S
C654 H658 0.950 . S
C654 C663 1.390 . S
C655 C654 1.387 . S
C655 C657 1.387 . S
H656 C663 0.950 . S
C657 C655 1.387 . S
C657 C659 1.390 . S
C657 H661 0.950 . S
H658 C654 0.950 . S
C659 C657 1.390 . S
C659 C660 1.387 . S
C659 H662 0.950 . S
C660 C659 1.387 . S
C660 C663 1.387 . S
H661 C657 0.950 . S
H662 C659 0.950 . S
C663 C654 1.390 . S
C663 H656 0.950 . S
C663 C660 1.387 . S
C664 C665 1.387 . S
C664 H668 0.950 . S
C664 C673 1.390 . S
C665 C664 1.387 . S
C665 C667 1.387 . S
H666 C673 0.950 . S
C667 C665 1.387 . S
C667 C669 1.390 . S
C667 H671 0.950 . S
H668 C664 0.950 . S
C669 C667 1.390 . S
C669 C670 1.387 . S
C669 H672 0.950 . S
C670 C669 1.387 . S
C670 C673 1.387 . S
H671 C667 0.950 . S
H672 C669 0.950 . S
C673 C664 1.390 . S
C673 H666 0.950 . S
C673 C670 1.387 . S
C674 C675 1.387 . S
C674 H678 0.950 . S
C674 C683 1.390 . S
C675 C674 1.387 . S
C675 C677 1.387 . S
H676 C683 0.950 . S
C677 C675 1.387 . S
C677 C679 1.390 . S
C677 H681 0.950 . S
H678 C674 0.950 . S
C679 C677 1.390 . S
C679 C680 1.387 . S
C679 H682 0.950 . S
C680 C679 1.387 . S
C680 C683 1.387 . S
H681 C677 0.950 . S
H682 C679 0.950 . S
C683 C674 1.390 . S
C683 H676 0.950 . S
C683 C680 1.387 . S
C684 C685 1.387 . S
C684 H688 0.950 . S
C684 C693 1.390 . S
C685 C684 1.387 . S
C685 C687 1.387 . S
H686 C693 0.950 . S
C687 C685 1.387 . S
C687 C689 1.390 . S
C687 H691 0.950 . S
H688 C684 0.950 . S
C689 C687 1.390 . S
C689 C690 1.387 . S
C689 H692 0.950 . S
C690 C689 1.387 . S
C690 C693 1.387 . S
H691 C687 0.950 . S
H692 C689 0.950 . S
C693 C684 1.390 . S
C693 H686 0.950 . S
C693 C690 1.387 . S
C694 C695 1.387 . S
C694 H698 0.950 . S
C694 C703 1.390 . S
C695 C694 1.387 . S
C695 C697 1.387 . S
H696 C703 0.950 . S
C697 C695 1.387 . S
C697 C699 1.390 . S
C697 H701 0.950 . S
H698 C694 0.950 . S
C699 C697 1.390 . S
C699 C700 1.387 . S
C699 H702 0.950 1_554 S
C700 C699 1.387 . S
C700 C703 1.387 . S
H701 C697 0.950 . S
H702 C699 0.950 1_556 S
C703 C694 1.390 . S
C703 H696 0.950 . S
C703 C700 1.387 . S
C704 C705 1.387 . S
C704 H708 0.950 . S
C704 C713 1.390 . S
C705 C704 1.387 . S
C705 C707 1.387 . S
H706 C713 0.950 1_556 S
C707 C705 1.387 . S
C707 C709 1.390 . S
C707 H711 0.950 . S
H708 C704 0.950 . S
C709 C707 1.390 . S
C709 C710 1.387 . S
C709 H712 0.950 . S
C710 C709 1.387 . S
C710 C713 1.387 . S
H711 C707 0.950 . S
H712 C709 0.950 . S
C713 C704 1.390 . S
C713 H706 0.950 1_554 S
C713 C710 1.387 . S
C714 C715 1.387 . S
C714 H718 0.950 . S
C714 C723 1.390 . S
C715 C714 1.387 . S
C715 C717 1.387 . S
H716 C723 0.950 . S
C717 C715 1.387 . S
C717 C719 1.390 . S
C717 H721 0.950 . S
H718 C714 0.950 . S
C719 C717 1.390 . S
C719 C720 1.387 . S
C719 H722 0.950 1_556 S
C720 C719 1.387 . S
C720 C723 1.387 . S
H721 C717 0.950 . S
H722 C719 0.950 1_554 S
C723 C714 1.390 . S
C723 H716 0.950 . S
C723 C720 1.387 . S
C724 C725 1.387 . S
C724 H728 0.950 . S
C724 C733 1.390 . S
C725 C724 1.387 . S
C725 C727 1.387 . S
H726 C733 0.950 . S
C727 C725 1.387 . S
C727 C729 1.390 . S
C727 H731 0.950 . S
H728 C724 0.950 . S
C729 C727 1.390 . S
C729 C730 1.387 . S
C729 H732 0.950 . S
C730 C729 1.387 . S
C730 C733 1.387 . S
H731 C727 0.950 . S
H732 C729 0.950 . S
C733 C724 1.390 . S
C733 H726 0.950 . S
C733 C730 1.387 . S
C734 C735 1.387 . S
C734 H738 0.950 1_556 S
C734 C743 1.390 . S
C735 C734 1.387 . S
C735 C737 1.387 . S
H736 C743 0.950 . S
C737 C735 1.387 . S
C737 C739 1.390 . S
C737 H741 0.950 . S
H738 C734 0.950 1_554 S
C739 C737 1.390 . S
C739 C740 1.387 . S
C739 H742 0.950 . S
C740 C739 1.387 . S
C740 C743 1.387 . S
H741 C737 0.950 . S
H742 C739 0.950 . S
C743 C734 1.390 . S
C743 H736 0.950 . S
C743 C740 1.387 . S
C744 C745 1.387 . S
C744 H748 0.950 . S
C744 C753 1.390 . S
C745 C744 1.387 . S
C745 C747 1.387 . S
H746 C753 0.950 . S
C747 C745 1.387 . S
C747 C749 1.390 . S
C747 H751 0.950 . S
H748 C744 0.950 . S
C749 C747 1.390 . S
C749 C750 1.387 . S
C749 H752 0.950 . S
C750 C749 1.387 . S
C750 C753 1.387 . S
H751 C747 0.950 . S
H752 C749 0.950 . S
C753 C744 1.390 . S
C753 H746 0.950 . S
C753 C750 1.387 . S
C754 C755 1.387 . S
C754 H758 0.950 . S
C754 C763 1.390 . S
C755 C754 1.387 . S
C755 C757 1.387 . S
H756 C763 0.950 . S
C757 C755 1.387 . S
C757 C759 1.390 . S
C757 H761 0.950 . S
H758 C754 0.950 . S
C759 C757 1.390 . S
C759 C760 1.387 . S
C759 H762 0.950 . S
C760 C759 1.387 . S
C760 C763 1.387 . S
H761 C757 0.950 . S
H762 C759 0.950 . S
C763 C754 1.390 . S
C763 H756 0.950 . S
C763 C760 1.387 . S
C764 C765 1.387 . S
C764 H768 0.950 . S
C764 C773 1.390 . S
C765 C764 1.387 . S
C765 C767 1.387 . S
H766 C773 0.950 . S
C767 C765 1.387 . S
C767 C769 1.390 . S
C767 H771 0.950 . S
H768 C764 0.950 . S
C769 C767 1.390 . S
C769 C770 1.387 . S
C769 H772 0.950 . S
C770 C769 1.387 . S
C770 C773 1.387 . S
H771 C767 0.950 . S
H772 C769 0.950 . S
C773 C764 1.390 . S
C773 H766 0.950 . S
C773 C770 1.387 . S
C774 C775 1.387 . S
C774 H778 0.950 . S
C774 C783 1.390 . S
C775 C774 1.387 . S
C775 C777 1.387 . S
H776 C783 0.950 . S
C777 C775 1.387 . S
C777 C779 1.390 . S
C777 H781 0.950 . S
H778 C774 0.950 . S
C779 C777 1.390 . S
C779 C780 1.387 . S
C779 H782 0.950 . S
C780 C779 1.387 . S
C780 C783 1.387 . S
H781 C777 0.950 . S
H782 C779 0.950 . S
C783 C774 1.390 . S
C783 H776 0.950 . S
C783 C780 1.387 . S
C784 C785 1.387 . S
C784 H788 0.950 . S
C784 C793 1.390 . S
C785 C784 1.387 . S
C785 C787 1.387 . S
H786 C793 0.950 . S
C787 C785 1.387 . S
C787 C789 1.390 . S
C787 H791 0.950 . S
H788 C784 0.950 . S
C789 C787 1.390 . S
C789 C790 1.387 . S
C789 H792 0.950 . S
C790 C789 1.387 . S
C790 C793 1.387 . S
H791 C787 0.950 . S
H792 C789 0.950 . S
C793 C784 1.390 . S
C793 H786 0.950 . S
C793 C790 1.387 . S
C794 C795 1.387 . S
C794 H798 0.950 . S
C794 C803 1.390 . S
C795 C794 1.387 . S
C795 C797 1.387 . S
H796 C803 0.950 . S
C797 C795 1.387 . S
C797 C799 1.390 . S
C797 H801 0.950 . S
H798 C794 0.950 . S
C799 C797 1.390 . S
C799 C800 1.387 . S
C799 H802 0.950 . S
C800 C799 1.387 . S
C800 C803 1.387 . S
H801 C797 0.950 . S
H802 C799 0.950 . S
C803 C794 1.390 . S
C803 H796 0.950 . S
C803 C800 1.387 . S
C804 C805 1.387 . S
C804 H808 0.950 . S
C804 C813 1.390 . S
C805 C804 1.387 . S
C805 C807 1.387 . S
H806 C813 0.950 . S
C807 C805 1.387 . S
C807 C809 1.390 . S
C807 H811 0.950 . S
H808 C804 0.950 . S
C809 C807 1.390 . S
C809 C810 1.387 . S
C809 H812 0.950 . S
C810 C809 1.387 . S
C810 C813 1.387 . S
H811 C807 0.950 . S
H812 C809 0.950 . S
C813 C804 1.390 . S
C813 H806 0.950 . S
C813 C810 1.387 . S
C814 C815 1.387 . S
C814 H818 0.950 . S
C814 C823 1.390 . S
C815 C814 1.387 . S
C815 C817 1.387 . S
H816 C823 0.950 . S
C817 C815 1.387 . S
C817 C819 1.390 . S
C817 H821 0.950 . S
H818 C814 0.950 . S
C819 C817 1.390 . S
C819 C820 1.387 . S
C819 H822 0.950 . S
C820 C819 1.387 . S
C820 C823 1.387 . S
H821 C817 0.950 . S
H822 C819 0.950 . S
C823 C814 1.390 . S
C823 H816 0.950 . S
C823 C820 1.387 . S
C824 C825 1.387 . S
C824 H828 0.950 . S
C824 C833 1.390 . S
C825 C824 1.387 . S
C825 C827 1.387 . S
H826 C833 0.950 . S
C827 C825 1.387 . S
C827 C829 1.390 . S
C827 H831 0.950 . S
H828 C824 0.950 . S
C829 C827 1.390 . S
C829 C830 1.387 . S
C829 H832 0.950 . S
C830 C829 1.387 . S
C830 C833 1.387 . S
H831 C827 0.950 . S
H832 C829 0.950 . S
C833 C824 1.390 . S
C833 H826 0.950 . S
C833 C830 1.387 . S
C834 C835 1.387 . S
C834 H838 0.950 . S
C834 C843 1.390 1_554 S
C835 C834 1.387 . S
C835 C837 1.387 1_545 S
H836 C843 0.950 . S
C837 C835 1.387 1_565 S
C837 C839 1.390 1_554 S
C837 H841 0.950 . S
H838 C834 0.950 . S
C839 C837 1.390 1_556 S
C839 C840 1.387 . S
C839 H842 0.950 . S
C840 C839 1.387 . S
C840 C843 1.387 1_565 S
H841 C837 0.950 . S
H842 C839 0.950 . S
C843 C834 1.390 1_556 S
C843 H836 0.950 . S
C843 C840 1.387 1_545 S
C844 C845 1.387 . S
C844 H848 0.950 . S
C844 C853 1.390 1_556 S
C845 C844 1.387 . S
C845 C847 1.387 1_455 S
H846 C853 0.950 . S
C847 C845 1.387 1_655 S
C847 C849 1.390 1_556 S
C847 H851 0.950 . S
H848 C844 0.950 . S
C849 C847 1.390 1_554 S
C849 C850 1.387 . S
C849 H852 0.950 . S
C850 C849 1.387 . S
C850 C853 1.387 1_655 S
H851 C847 0.950 . S
H852 C849 0.950 . S
C853 C844 1.390 1_554 S
C853 H846 0.950 . S
C853 C850 1.387 1_455 S
C854 C855 1.387 . S
C854 H858 0.950 . S
C854 C863 1.390 1_556 S
C855 C854 1.387 . S
C855 C857 1.387 . S
H856 C863 0.950 . S
C857 C855 1.387 . S
C857 C859 1.390 1_556 S
C857 H861 0.950 . S
H858 C854 0.950 . S
C859 C857 1.390 1_554 S
C859 C860 1.387 . S
C859 H862 0.950 . S
C860 C859 1.387 . S
C860 C863 1.387 . S
H861 C857 0.950 . S
H862 C859 0.950 . S
C863 C854 1.390 1_554 S
C863 H856 0.950 . S
C863 C860 1.387 . S
C864 C865 1.387 1_554 S
C864 H868 0.950 . S
C864 C873 1.390 1_554 S
C865 C864 1.387 1_556 S
C865 C867 1.387 . S
H866 C873 0.950 1_554 S
C867 C865 1.387 . S
C867 C869 1.390 . S
C867 H871 0.950 . S
H868 C864 0.950 . S
C869 C867 1.390 . S
C869 C870 1.387 . S
C869 H872 0.950 . S
C870 C869 1.387 . S
C870 C873 1.387 . S
H871 C867 0.950 . S
H872 C869 0.950 . S
C873 C864 1.390 1_556 S
C873 H866 0.950 1_556 S
C873 C870 1.387 . S
C874 C875 1.387 . S
C874 H878 0.950 . S
C874 C883 1.390 . S
C875 C874 1.387 . S
C875 C877 1.387 . S
H876 C883 0.950 1_554 S
C877 C875 1.387 . S
C877 C879 1.390 . S
C877 H881 0.950 . S
H878 C874 0.950 . S
C879 C877 1.390 . S
C879 C880 1.387 . S
C879 H882 0.950 . S
C880 C879 1.387 . S
C880 C883 1.387 . S
H881 C877 0.950 . S
H882 C879 0.950 . S
C883 C874 1.390 . S
C883 H876 0.950 1_556 S
C883 C880 1.387 . S
C884 C885 1.387 . S
C884 H888 0.950 . S
C884 C893 1.390 . S
C885 C884 1.387 . S
C885 C887 1.387 . S
H886 C893 0.950 . S
C887 C885 1.387 . S
C887 C889 1.390 . S
C887 H891 0.950 . S
H888 C884 0.950 . S
C889 C887 1.390 . S
C889 C890 1.387 . S
C889 H892 0.950 . S
C890 C889 1.387 . S
C890 C893 1.387 . S
H891 C887 0.950 . S
H892 C889 0.950 . S
C893 C884 1.390 . S
C893 H886 0.950 . S
C893 C890 1.387 . S
C894 C895 1.387 . S
C894 H898 0.950 1_554 S
C894 C903 1.390 1_554 S
C895 C894 1.387 . S
C895 C897 1.387 . S
H896 C903 0.950 . S
C897 C895 1.387 . S
C897 C899 1.390 . S
C897 H901 0.950 . S
H898 C894 0.950 1_556 S
C899 C897 1.390 . S
C899 C900 1.387 . S
C899 H902 0.950 . S
C900 C899 1.387 . S
C900 C903 1.387 1_554 S
H901 C897 0.950 . S
H902 C899 0.950 . S
C903 C894 1.390 1_556 S
C903 H896 0.950 . S
C903 C900 1.387 1_556 S
C904 C905 1.387 . S
C904 H908 0.950 . S
C904 C913 1.390 . S
C905 C904 1.387 . S
C905 C907 1.387 . S
H906 C913 0.950 . S
C907 C905 1.387 . S
C907 C909 1.390 . S
C907 H911 0.950 1_554 S
H908 C904 0.950 . S
C909 C907 1.390 . S
C909 C910 1.387 . S
C909 H912 0.950 . S
C910 C909 1.387 . S
C910 C913 1.387 . S
H911 C907 0.950 1_556 S
H912 C909 0.950 . S
C913 C904 1.390 . S
C913 H906 0.950 . S
C913 C910 1.387 . S
C914 C915 1.387 . S
C914 H918 0.950 . S
C914 C923 1.390 . S
C915 C914 1.387 . S
C915 C917 1.387 . S
H916 C923 0.950 . S
C917 C915 1.387 . S
C917 C919 1.390 . S
C917 H921 0.950 . S
H918 C914 0.950 . S
C919 C917 1.390 . S
C919 C920 1.387 . S
C919 H922 0.950 . S
C920 C919 1.387 . S
C920 C923 1.387 . S
H921 C917 0.950 . S
H922 C919 0.950 . S
C923 C914 1.390 . S
C923 H916 0.950 . S
C923 C920 1.387 . S
C924 C925 1.387 . S
C924 H928 0.950 . S
C924 C933 1.390 . S
C925 C924 1.387 . S
C925 C927 1.387 . S
H926 C933 0.950 . S
C927 C925 1.387 . S
C927 C929 1.390 . S
C927 H931 0.950 . S
H928 C924 0.950 . S
C929 C927 1.390 . S
C929 C930 1.387 . S
C929 H932 0.950 . S
C930 C929 1.387 . S
C930 C933 1.387 . S
H931 C927 0.950 . S
H932 C929 0.950 . S
C933 C924 1.390 . S
C933 H926 0.950 . S
C933 C930 1.387 . S
C934 C935 1.387 . S
C934 H938 0.950 . S
C934 C943 1.390 . S
C935 C934 1.387 . S
C935 C937 1.387 . S
H936 C943 0.950 . S
C937 C935 1.387 . S
C937 C939 1.390 . S
C937 H941 0.950 . S
H938 C934 0.950 . S
C939 C937 1.390 . S
C939 C940 1.387 . S
C939 H942 0.950 . S
C940 C939 1.387 . S
C940 C943 1.387 . S
H941 C937 0.950 . S
H942 C939 0.950 . S
C943 C934 1.390 . S
C943 H936 0.950 . S
C943 C940 1.387 . S
C944 C945 1.387 . S
C944 H948 0.950 . S
C944 C953 1.390 . S
C945 C944 1.387 . S
C945 C947 1.387 . S
H946 C953 0.950 . S
C947 C945 1.387 . S
C947 C949 1.390 . S
C947 H951 0.950 . S
H948 C944 0.950 . S
C949 C947 1.390 . S
C949 C950 1.387 . S
C949 H952 0.950 . S
C950 C949 1.387 . S
C950 C953 1.387 . S
H951 C947 0.950 . S
H952 C949 0.950 . S
C953 C944 1.390 . S
C953 H946 0.950 . S
C953 C950 1.387 . S
C954 C955 1.387 . S
C954 H958 0.950 . S
C954 C963 1.390 . S
C955 C954 1.387 . S
C955 C957 1.387 . S
H956 C963 0.950 . S
C957 C955 1.387 . S
C957 C959 1.390 . S
C957 H961 0.950 . S
H958 C954 0.950 . S
C959 C957 1.390 . S
C959 C960 1.387 . S
C959 H962 0.950 . S
C960 C959 1.387 . S
C960 C963 1.387 . S
H961 C957 0.950 . S
H962 C959 0.950 . S
C963 C954 1.390 . S
C963 H956 0.950 . S
C963 C960 1.387 . S
C964 C965 1.387 . S
C964 H968 0.950 . S
C964 C973 1.390 . S
C965 C964 1.387 . S
C965 C967 1.387 . S
H966 C973 0.950 . S
C967 C965 1.387 . S
C967 C969 1.390 . S
C967 H971 0.950 . S
H968 C964 0.950 . S
C969 C967 1.390 . S
C969 C970 1.387 . S
C969 H972 0.950 . S
C970 C969 1.387 . S
C970 C973 1.387 . S
H971 C967 0.950 . S
H972 C969 0.950 . S
C973 C964 1.390 . S
C973 H966 0.950 . S
C973 C970 1.387 . S
C974 C975 1.387 . S
C974 H978 0.950 . S
C974 C983 1.390 . S
C975 C974 1.387 . S
C975 C977 1.387 . S
H976 C983 0.950 . S
C977 C975 1.387 . S
C977 C979 1.390 . S
C977 H981 0.950 . S
H978 C974 0.950 . S
C979 C977 1.390 . S
C979 C980 1.387 . S
C979 H982 0.950 . S
C980 C979 1.387 . S
C980 C983 1.387 . S
H981 C977 0.950 . S
H982 C979 0.950 . S
C983 C974 1.390 . S
C983 H976 0.950 . S
C983 C980 1.387 . S
C984 C985 1.387 . S
C984 H988 0.950 . S
C984 C993 1.390 . S
C985 C984 1.387 . S
C985 C987 1.387 . S
H986 C993 0.950 . S
C987 C985 1.387 . S
C987 C989 1.390 . S
C987 H991 0.950 . S
H988 C984 0.950 . S
C989 C987 1.390 . S
C989 C990 1.387 . S
C989 H992 0.950 . S
C990 C989 1.387 . S
C990 C993 1.387 . S
H991 C987 0.950 . S
H992 C989 0.950 . S
C993 C984 1.390 . S
C993 H986 0.950 . S
C993 C990 1.387 . S
C994 C995 1.387 . S
C994 H998 0.950 . S
C994 C1003 1.390 . S
C995 C994 1.387 . S
C995 C997 1.387 . S
H996 C1003 0.950 . S
C997 C995 1.387 . S
C997 C999 1.390 . S
C997 H1001 0.950 . S
H998 C994 0.950 . S
C999 C997 1.390 . S
C999 C1000 1.387 . S
C999 H1002 0.950 . S
C1000 C999 1.387 . S
C1000 C1003 1.387 . S
H1001 C997 0.950 . S
H1002 C999 0.950 . S
C1003 C994 1.390 . S
C1003 H996 0.950 . S
C1003 C1000 1.387 . S
C1004 C1005 1.387 . S
C1004 H1008 0.950 . S
C1004 C1013 1.390 . S
C1005 C1004 1.387 . S
C1005 C1007 1.387 . S
H1006 C1013 0.950 . S
C1007 C1005 1.387 . S
C1007 C1009 1.390 . S
C1007 H1011 0.950 . S
H1008 C1004 0.950 . S
C1009 C1007 1.390 . S
C1009 C1010 1.387 . S
C1009 H1012 0.950 . S
C1010 C1009 1.387 . S
C1010 C1013 1.387 . S
H1011 C1007 0.950 . S
H1012 C1009 0.950 . S
C1013 C1004 1.390 . S
C1013 H1006 0.950 . S
C1013 C1010 1.387 . S
C1014 C1015 1.387 . S
C1014 H1018 0.950 . S
C1014 C1023 1.390 . S
C1015 C1014 1.387 . S
C1015 C1017 1.387 . S
H1016 C1023 0.950 . S
C1017 C1015 1.387 . S
C1017 C1019 1.390 . S
C1017 H1021 0.950 . S
H1018 C1014 0.950 . S
C1019 C1017 1.390 . S
C1019 C1020 1.387 . S
C1019 H1022 0.950 . S
C1020 C1019 1.387 . S
C1020 C1023 1.387 . S
H1021 C1017 0.950 . S
H1022 C1019 0.950 . S
C1023 C1014 1.390 . S
C1023 H1016 0.950 . S
C1023 C1020 1.387 . S
C1024 C1025 1.387 . S
C1024 H1028 0.950 . S
C1024 C1033 1.390 . S
C1025 C1024 1.387 . S
C1025 C1027 1.387 . S
H1026 C1033 0.950 . S
C1027 C1025 1.387 . S
C1027 C1029 1.390 . S
C1027 H1031 0.950 . S
H1028 C1024 0.950 . S
C1029 C1027 1.390 . S
C1029 C1030 1.387 . S
C1029 H1032 0.950 . S
C1030 C1029 1.387 . S
C1030 C1033 1.387 . S
H1031 C1027 0.950 . S
H1032 C1029 0.950 . S
C1033 C1024 1.390 . S
C1033 H1026 0.950 . S
C1033 C1030 1.387 . S
C1034 C1035 1.387 . S
C1034 H1038 0.950 . S
C1034 C1043 1.390 . S
C1035 C1034 1.387 . S
C1035 C1037 1.387 . S
H1036 C1043 0.950 . S
C1037 C1035 1.387 . S
C1037 C1039 1.390 . S
C1037 H1041 0.950 . S
H1038 C1034 0.950 . S
C1039 C1037 1.390 . S
C1039 C1040 1.387 . S
C1039 H1042 0.950 . S
C1040 C1039 1.387 . S
C1040 C1043 1.387 . S
H1041 C1037 0.950 . S
H1042 C1039 0.950 . S
C1043 C1034 1.390 . S
C1043 H1036 0.950 . S
C1043 C1040 1.387 . S
C595 C28 1.222 . S
C600 C248 1.282 . S
C605 C61 1.224 1_545 S
C610 C281 1.283 . S
C615 C94 1.219 1_655 S
C620 C215 1.282 . S
C625 C545 1.281 . S
C630 C127 1.221 . S
C635 C160 1.219 1_565 S
C640 C578 1.282 . S
C645 C193 1.224 1_455 S
C650 C512 1.283 . S
C655 C226 1.222 . S
C660 C446 1.283 1_655 S
C665 C479 1.282 . S
C670 C259 1.220 . S
C675 C413 1.282 1_545 S
C680 C292 1.220 . S
C685 C325 1.220 . S
C690 C149 1.281 . S
C695 C358 1.220 . S
C700 C182 1.282 . S
C705 C391 1.223 . S
C710 C116 1.282 . S
C715 C424 1.222 . S
C720 C50 1.282 . S
C725 C457 1.221 . S
C730 C83 1.282 . S
C735 C17 1.282 . S
C740 C490 1.220 . S
C745 C347 1.283 1_455 S
C750 C523 1.221 . S
C755 C556 1.224 . S
C760 C380 1.283 . S
C765 C589 1.220 . S
C770 C314 1.282 1_565 S
C775 N509 1.744 . S
C780 N14 1.744 . S
C785 N542 1.746 . S
C790 N47 1.746 . S
C795 N80 1.746 . S
C800 N575 1.746 . S
C805 N113 1.747 . S
C810 N212 1.747 . S
C815 N146 1.743 . S
C820 N245 1.743 . S
C825 N278 1.746 . S
C830 N179 1.746 . S
C835 N311 1.743 . S
C840 N410 1.743 . S
C845 N443 1.746 . S
C850 N344 1.746 . S
C855 N476 1.745 . S
C860 N377 1.745 . S
C865 N5 1.555 1_556 S
C870 C140 1.554 . S
C875 C173 1.554 . S
C880 N38 1.553 1_556 S
C885 N71 1.553 1_556 S
C890 C107 1.551 . S
C895 C41 1.551 . S
C900 N104 1.551 1_554 S
C905 N137 1.554 1_554 S
C910 C74 1.553 . S
C915 C8 1.553 . S
C920 N170 1.553 1_554 S
C925 N203 1.552 . S
C930 C338 1.551 . S
C935 C371 1.551 . S
C940 N236 1.551 . S
C945 C305 1.551 . S
C950 N269 1.553 . S
C955 N302 1.551 . S
C960 C239 1.551 . S
C965 C272 1.554 . S
C970 N335 1.555 . S
C975 N368 1.553 . S
C980 C206 1.553 . S
C985 C536 1.551 . S
C990 N401 1.551 . S
C995 C569 1.554 . S
C1000 N434 1.554 . S
C1005 C503 1.551 . S
C1010 N467 1.553 . S
C1015 C437 1.551 . S
C1020 N500 1.551 . S
C1025 C470 1.552 . S
C1030 N533 1.552 . S
C1035 N566 1.553 . S
C1040 C404 1.551 . S
