# Generated by pormake.
# Topology wfe, (8)-cn, num edge types: 1
# Building blocks:
#     Node 0, Type 0, BuildingBlock: TAGTUT_clean_sbu_1, # of connection points: 8
#     Node 1, Type 0, BuildingBlock: TAGTUT_clean_sbu_1, # of connection points: 8
#     Node 2, Type 0, BuildingBlock: TAGTUT_clean_sbu_1, # of connection points: 8
#     Node 3, Type 0, BuildingBlock: TAGTUT_clean_sbu_1, # of connection points: 8
#     Node 4, Type 0, BuildingBlock: TAGTUT_clean_sbu_1, # of connection points: 8
#     Node 5, Type 0, BuildingBlock: TAGTUT_clean_sbu_1, # of connection points: 8
#     Node 6, Type 0, BuildingBlock: TAGTUT_clean_sbu_1, # of connection points: 8
#     Node 7, Type 0, BuildingBlock: TAGTUT_clean_sbu_1, # of connection points: 8
#     Edge 8, Type (0, 0), BuildingBlock: KIFKEQ_clean_linker_1, # of connection points: 2
#     Edge 9, Type (0, 0), BuildingBlock: KIFKEQ_clean_linker_1, # of connection points: 2
#     Edge 10, Type (0, 0), BuildingBlock: KIFKEQ_clean_linker_1, # of connection points: 2
#     Edge 11, Type (0, 0), BuildingBlock: KIFKEQ_clean_linker_1, # of connection points: 2
#     Edge 12, Type (0, 0), BuildingBlock: KIFKEQ_clean_linker_1, # of connection points: 2
#     Edge 13, Type (0, 0), BuildingBlock: KIFKEQ_clean_linker_1, # of connection points: 2
#     Edge 14, Type (0, 0), BuildingBlock: KIFKEQ_clean_linker_1, # of connection points: 2
#     Edge 15, Type (0, 0), BuildingBlock: KIFKEQ_clean_linker_1, # of connection points: 2
#     Edge 16, Type (0, 0), BuildingBlock: KIFKEQ_clean_linker_1, # of connection points: 2
#     Edge 17, Type (0, 0), BuildingBlock: KIFKEQ_clean_linker_1, # of connection points: 2
#     Edge 18, Type (0, 0), BuildingBlock: KIFKEQ_clean_linker_1, # of connection points: 2
#     Edge 19, Type (0, 0), BuildingBlock: KIFKEQ_clean_linker_1, # of connection points: 2
#     Edge 20, Type (0, 0), BuildingBlock: KIFKEQ_clean_linker_1, # of connection points: 2
#     Edge 21, Type (0, 0), BuildingBlock: KIFKEQ_clean_linker_1, # of connection points: 2
#     Edge 22, Type (0, 0), BuildingBlock: KIFKEQ_clean_linker_1, # of connection points: 2
#     Edge 23, Type (0, 0), BuildingBlock: KIFKEQ_clean_linker_1, # of connection points: 2
#     Edge 24, Type (0, 0), BuildingBlock: KIFKEQ_clean_linker_1, # of connection points: 2
#     Edge 25, Type (0, 0), BuildingBlock: KIFKEQ_clean_linker_1, # of connection points: 2
#     Edge 26, Type (0, 0), BuildingBlock: KIFKEQ_clean_linker_1, # of connection points: 2
#     Edge 27, Type (0, 0), BuildingBlock: KIFKEQ_clean_linker_1, # of connection points: 2
#     Edge 28, Type (0, 0), BuildingBlock: KIFKEQ_clean_linker_1, # of connection points: 2
#     Edge 29, Type (0, 0), BuildingBlock: KIFKEQ_clean_linker_1, # of connection points: 2
#     Edge 30, Type (0, 0), BuildingBlock: KIFKEQ_clean_linker_1, # of connection points: 2
#     Edge 31, Type (0, 0), BuildingBlock: KIFKEQ_clean_linker_1, # of connection points: 2
#     Edge 32, Type (0, 0), BuildingBlock: KIFKEQ_clean_linker_1, # of connection points: 2
#     Edge 33, Type (0, 0), BuildingBlock: KIFKEQ_clean_linker_1, # of connection points: 2
#     Edge 34, Type (0, 0), BuildingBlock: KIFKEQ_clean_linker_1, # of connection points: 2
#     Edge 35, Type (0, 0), BuildingBlock: KIFKEQ_clean_linker_1, # of connection points: 2
#     Edge 36, Type (0, 0), BuildingBlock: KIFKEQ_clean_linker_1, # of connection points: 2
#     Edge 37, Type (0, 0), BuildingBlock: KIFKEQ_clean_linker_1, # of connection points: 2
#     Edge 38, Type (0, 0), BuildingBlock: KIFKEQ_clean_linker_1, # of connection points: 2
#     Edge 39, Type (0, 0), BuildingBlock: KIFKEQ_clean_linker_1, # of connection points: 2
# Relax obj value: 0.277
# Max RMSD: 0.306
# Mean RMSD: 0.306
data_MOF--net-wfe--node1-TAGTUT_clean_sbu_1--edge1-KIFKEQ_clean_linker_1
_symmetry_space_group_name_H-M    P1
_symmetry_Int_Tables_number       1
_symmetry_cell_setting            triclinic
loop_
_symmetry_equiv_pos_as_xyz
'x, y, z'
_cell_length_a     37.827646
_cell_length_b     37.857691
_cell_length_c     25.028838
_cell_angle_alpha  90.120376
_cell_angle_beta   90.074626
_cell_angle_gamma 89.82496
loop_
_atom_site_label
_atom_site_type_symbol
_atom_site_fract_x
_atom_site_fract_y
_atom_site_fract_z
_atom_type_partial_charge
C0 C 0.52514 0.38668 0.09976 0.0
C1 C 0.47124 0.33084 0.21719 0.0
C2 C 0.61267 0.31001 0.2974 0.0
Mg3 Mg 0.51118 0.30659 0.11258 0.0
O4 O 0.54899 0.30792 0.16035 0.0
Mg5 Mg 0.55934 0.34747 0.21007 0.0
Mg6 Mg 0.56941 0.26805 0.20062 0.0
O7 O 0.59221 0.22829 0.23945 0.0
Mg8 Mg 0.64059 0.2364 0.24957 0.0
Mg9 Mg 0.58138 0.18789 0.18859 0.0
C10 C 0.54997 0.23313 0.08054 0.0
C11 C 0.50749 0.21516 0.24284 0.0
O12 O 0.53937 0.3861 0.14619 0.0
O13 O 0.51508 0.35844 0.07595 0.0
O14 O 0.50039 0.34299 0.23686 0.0
O15 O 0.47 0.31371 0.17267 0.0
O16 O 0.53085 0.25966 0.06567 0.0
O17 O 0.55859 0.22957 0.13 0.0
C18 C 0.62856 0.31932 0.14936 0.0
O19 O 0.61958 0.28775 0.16162 0.0
O20 O 0.61338 0.34637 0.17006 0.0
O21 O 0.60761 0.15266 0.2548 0.0
O22 O 0.64945 0.18837 0.28987 0.0
O23 O 0.63293 0.18914 0.14102 0.0
C24 C 0.6334 0.15872 0.28722 0.0
O25 O 0.66653 0.23225 0.17406 0.0
O26 O 0.63713 0.2865 0.29343 0.0
C27 C 0.65999 0.20882 0.13883 0.0
O28 O 0.58292 0.30696 0.27154 0.0
O29 O 0.51628 0.24758 0.23534 0.0
O30 O 0.52801 0.18933 0.23088 0.0
C31 C 0.62612 0.03021 0.60021 0.0
C32 C 0.68196 0.96836 0.71187 0.0
C33 C 0.7012 0.1061 0.8079 0.0
Mg34 Mg 0.70572 0.01435 0.61306 0.0
O35 O 0.70358 0.05007 0.66438 0.0
Mg36 Mg 0.66415 0.05654 0.7161 0.0
Mg37 Mg 0.74317 0.06877 0.70656 0.0
O38 O 0.78277 0.0899 0.74729 0.0
Mg39 Mg 0.77413 0.13777 0.76304 0.0
Mg40 Mg 0.82276 0.08208 0.69459 0.0
C41 C 0.77909 0.05321 0.58407 0.0
C42 C 0.79747 1.0052 0.73895 0.0
O43 O 0.62584 0.04067 0.64893 0.0
O44 O 0.65466 0.02157 0.57594 0.0
O45 O 0.66957 0.99614 0.73547 0.0
O46 O 0.69856 0.96986 0.66705 0.0
O47 O 0.75304 0.03398 0.56808 0.0
O48 O 0.78119 0.06257 0.63351 0.0
C49 C 0.68976 0.12827 0.66295 0.0
O50 O 0.72173 0.12117 0.67644 0.0
O51 O 0.66356 0.11288 0.68533 0.0
O52 O 0.85713 0.10378 0.76508 0.0
O53 O 0.82208 0.14433 0.80518 0.0
O54 O 0.81986 0.13583 0.65393 0.0
C55 C 0.85124 0.12731 0.80129 0.0
O56 O 0.77708 0.16809 0.69102 0.0
O57 O 0.72404 0.13117 0.80593 0.0
C58 C 0.79993 0.16285 0.65452 0.0
O59 O 0.70478 0.07741 0.77957 0.0
O60 O 0.76483 0.0141 0.73371 0.0
O61 O 0.82283 0.02649 0.72888 0.0
C62 C 0.98696 0.11919 0.11053 0.0
C63 C 0.04377 0.18477 0.216 0.0
C64 C 0.90487 0.2021 0.30854 0.0
Mg65 Mg 0.99734 0.20045 0.11462 0.0
O66 O 0.95996 0.19735 0.1633 0.0
Mg67 Mg 0.95697 0.16152 0.22168 0.0
Mg68 Mg 0.93968 0.23824 0.20047 0.0
O69 O 0.91768 0.27975 0.23584 0.0
Mg70 Mg 0.87096 0.27291 0.25762 0.0
Mg71 Mg 0.92471 0.31704 0.17848 0.0
C72 C 0.95622 0.27031 0.07554 0.0
C73 C 1.0023 0.2956 0.2258 0.0
O74 O 0.97502 0.12023 0.15853 0.0
O75 O 0.99524 0.14712 0.08456 0.0
O76 O 0.01666 0.17159 0.23983 0.0
O77 O 0.04162 0.1996 0.16993 0.0
O78 O 0.97739 0.2449 0.06272 0.0
O79 O 0.94414 0.27236 0.1234 0.0
C80 C 0.88094 0.17838 0.17167 0.0
O81 O 0.88821 0.21165 0.17201 0.0
O82 O 0.90095 0.15572 0.19472 0.0
O83 O 0.90398 0.35597 0.24346 0.0
O84 O 0.86686 0.32333 0.29377 0.0
O85 O 0.86993 0.31144 0.14046 0.0
C86 C 0.88248 0.3524 0.28287 0.0
O87 O 0.83796 0.27334 0.18798 0.0
O88 O 0.87963 0.22491 0.30541 0.0
C89 C 0.8422 0.29312 0.1473 0.0
O90 O 0.93303 0.20448 0.27878 0.0
O91 O 0.99365 0.26282 0.22556 0.0
O92 O 0.98081 0.31998 0.21146 0.0
C93 C 0.88574 0.50732 0.60507 0.0
C94 C 0.81987 0.55515 0.71775 0.0
C95 C 0.82596 0.40459 0.78704 0.0
Mg96 Mg 0.80444 0.50944 0.61318 0.0
O97 O 0.81128 0.47422 0.6641 0.0
Mg98 Mg 0.85098 0.47185 0.71653 0.0
Mg99 Mg 0.77761 0.44204 0.6959 0.0
O100 O 0.74436 0.4071 0.72615 0.0
Mg101 Mg 0.76634 0.36321 0.71893 0.0
Mg102 Mg 0.7027 0.41109 0.67562 0.0
C103 C 0.73891 0.45943 0.57568 0.0
C104 C 0.70873 0.48621 0.74003 0.0
O105 O 0.88689 0.49893 0.65464 0.0
O106 O 0.85672 0.50899 0.57872 0.0
O107 O 0.83255 0.52787 0.74212 0.0
O108 O 0.80659 0.55351 0.67028 0.0
O109 O 0.76086 0.48424 0.56355 0.0
O110 O 0.73926 0.44597 0.62276 0.0
C111 C 0.84861 0.40024 0.65264 0.0
O112 O 0.81458 0.40187 0.65255 0.0
O113 O 0.86719 0.42049 0.68192 0.0
O114 O 0.67821 0.37383 0.73962 0.0
O115 O 0.72367 0.33666 0.75586 0.0
O116 O 0.71329 0.36419 0.62059 0.0
C117 C 0.69222 0.34771 0.76518 0.0
O118 O 0.76899 0.34898 0.63543 0.0
O119 O 0.81231 0.37582 0.76896 0.0
C120 C 0.7416 0.34913 0.60581 0.0
O121 O 0.8152 0.43559 0.77091 0.0
O122 O 0.74252 0.4862 0.73477 0.0
O123 O 0.69005 0.46024 0.72371 0.0
C124 C 0.38713 0.85497 0.732 0.0
C125 C 0.34684 0.81142 0.87958 0.0
C126 C 0.45798 0.77916 0.95004 0.0
Mg127 Mg 0.37077 0.77983 0.77289 0.0
O128 O 0.41902 0.78467 0.78917 0.0
Mg129 Mg 0.4303 0.82489 0.84001 0.0
Mg130 Mg 0.43886 0.74423 0.82958 0.0
O131 O 0.4565 0.70381 0.87196 0.0
Mg132 Mg 0.49487 0.70441 0.91874 0.0
Mg133 Mg 0.44492 0.66401 0.82325 0.0
C134 C 0.3963 0.70343 0.73115 0.0
C135 C 0.37605 0.69747 0.8793 0.0
O136 O 0.41028 0.85998 0.76905 0.0
O137 O 0.36877 0.82678 0.72792 0.0
O138 O 0.37644 0.82711 0.88187 0.0
O139 O 0.33969 0.78898 0.84311 0.0
O140 O 0.37321 0.72844 0.73216 0.0
O141 O 0.4253 0.70509 0.75911 0.0
C142 C 0.50459 0.7942 0.79189 0.0
O143 O 0.49421 0.76207 0.79768 0.0
O144 O 0.48492 0.82065 0.80354 0.0
O145 O 0.46149 0.62533 0.88982 0.0
O146 O 0.48898 0.65353 0.9569 0.0
O147 O 0.50433 0.66422 0.79776 0.0
C148 C 0.47634 0.62539 0.93586 0.0
O149 O 0.53615 0.69407 0.85958 0.0
O150 O 0.47661 0.75226 0.96491 0.0
C151 C 0.53408 0.67546 0.8165 0.0
O152 O 0.44884 0.78252 0.90076 0.0
O153 O 0.3864 0.72803 0.86419 0.0
O154 O 0.39058 0.66907 0.8618 0.0
C155 C 0.16491 0.8762 0.25381 0.0
C156 C 0.22409 0.84946 0.39691 0.0
C157 C 0.24098 0.9604 0.45579 0.0
Mg158 Mg 0.24474 0.87164 0.28384 0.0
O159 O 0.23399 0.91907 0.29686 0.0
Mg160 Mg 0.19545 0.92676 0.3523 0.0
Mg161 Mg 0.274 0.94423 0.33154 0.0
O162 O 0.31348 0.96722 0.36807 0.0
Mg163 Mg 0.30872 1.00435 0.41692 0.0
Mg164 Mg 0.34957 0.96486 0.31019 0.0
C165 C 0.31291 0.90755 0.22834 0.0
C166 C 0.3372 0.88911 0.36289 0.0
O167 O 0.15914 0.9006 0.28863 0.0
O168 O 0.19507 0.86131 0.24736 0.0
O169 O 0.20219 0.87488 0.39665 0.0
O170 O 0.24636 0.84456 0.35938 0.0
O171 O 0.29244 0.88086 0.23559 0.0
O172 O 0.30836 0.9372 0.25407 0.0
C173 C 0.21417 1.00308 0.29945 0.0
O174 O 0.24731 0.99613 0.30299 0.0
O175 O 0.19046 0.98087 0.31323 0.0
O176 O 0.38959 0.98583 0.37224 0.0
O177 O 0.36218 1.00501 0.44661 0.0
O178 O 0.33643 0.02388 0.29082 0.0
C179 C 0.39032 0.99812 0.42004 0.0
O180 O 0.30757 0.04809 0.36096 0.0
O181 O 0.26584 0.9819 0.46926 0.0
C182 C 0.32237 0.05062 0.31487 0.0
O183 O 0.23859 0.94976 0.40718 0.0
O184 O 0.30356 0.89492 0.36331 0.0
O185 O 0.35862 0.90984 0.339 0.0
C186 C 0.14675 0.66441 0.7492 0.0
C187 C 0.17153 0.72408 0.89544 0.0
C188 C 0.05201 0.73229 0.94925 0.0
Mg189 Mg 0.14878 0.74324 0.78194 0.0
O190 O 0.10132 0.73119 0.79413 0.0
Mg191 Mg 0.09498 0.69229 0.84904 0.0
Mg192 Mg 0.07411 0.76945 0.82955 0.0
O193 O 0.04925 0.80766 0.86699 0.0
Mg194 Mg 0.01103 0.80321 0.91357 0.0
Mg195 Mg 0.05542 0.84722 0.81554 0.0
C196 C 0.11278 0.81264 0.73059 0.0
C197 C 0.12607 0.82858 0.87829 0.0
O198 O 0.1232 0.6579 0.7849 0.0
O199 O 0.16107 0.69479 0.74356 0.0
O200 O 0.14653 0.70175 0.89603 0.0
O201 O 0.17581 0.74556 0.85695 0.0
O202 O 0.13939 0.79174 0.73628 0.0
O203 O 0.08309 0.80749 0.75581 0.0
C204 C 0.01805 0.70832 0.79327 0.0
O205 O 0.02332 0.74186 0.7964 0.0
O206 O 0.04162 0.686 0.80827 0.0
O207 O 0.033 0.88465 0.88014 0.0
O208 O 0.01277 0.85467 0.95115 0.0
O209 O 0.99684 0.83756 0.78889 0.0
C210 C 0.02027 0.88371 0.92758 0.0
O211 O 0.96918 0.8075 0.85458 0.0
O212 O 0.02891 0.75619 0.96104 0.0
C213 C 0.96881 0.82378 0.80951 0.0
O214 O 0.06754 0.73281 0.90355 0.0
O215 O 0.12227 0.79592 0.86597 0.0
O216 O 0.10978 0.85294 0.85276 0.0
C217 C 0.33467 0.6567 0.26153 0.0
C218 C 0.2814 0.66319 0.41594 0.0
C219 C 0.27173 0.55339 0.45245 0.0
Mg220 Mg 0.25754 0.64881 0.30209 0.0
O221 O 0.27425 0.60248 0.29949 0.0
Mg222 Mg 0.31473 0.59534 0.35145 0.0
Mg223 Mg 0.23726 0.57138 0.33049 0.0
O224 O 0.2 0.54322 0.36323 0.0
Mg225 Mg 0.2034 0.50759 0.41432 0.0
Mg226 Mg 0.16117 0.54849 0.3098 0.0
C227 C 0.1928 0.61175 0.23823 0.0
C228 C 0.17116 0.62045 0.37213 0.0
O229 O 0.34497 0.62958 0.28867 0.0
O230 O 0.30335 0.66946 0.26486 0.0
O231 O 0.3075 0.6435 0.40487 0.0
O232 O 0.2553 0.66655 0.38413 0.0
O233 O 0.21033 0.63903 0.2538 0.0
O234 O 0.2004 0.58015 0.25545 0.0
C235 C 0.30184 0.52071 0.28837 0.0
O236 O 0.26815 0.52365 0.29353 0.0
O237 O 0.32282 0.54495 0.30442 0.0
O238 O 0.12261 0.5258 0.37144 0.0
O239 O 0.15045 0.51001 0.44698 0.0
O240 O 0.17457 0.49046 0.28569 0.0
C241 C 0.12209 0.51564 0.42021 0.0
O242 O 0.2007 0.46408 0.35676 0.0
O243 O 0.24729 0.53108 0.46477 0.0
C244 C 0.18689 0.46284 0.30963 0.0
O245 O 0.27441 0.56474 0.40426 0.0
O246 O 0.20486 0.61563 0.3716 0.0
O247 O 0.15037 0.60185 0.34356 0.0
H248 H 0.69831 0.13936 0.319 0.0
H249 H 0.58775 0.12653 0.35537 0.0
H250 H 0.71323 0.13153 0.41166 0.0
H251 H 0.60261 0.11558 0.44891 0.0
H252 H 0.6318 0.15769 0.61369 0.0
H253 H 0.61788 0.15371 0.51846 0.0
H254 H 0.71967 0.10456 0.49032 0.0
H255 H 0.73413 0.11141 0.58283 0.0
C256 C 0.67738 0.13245 0.3466 0.0
C257 C 0.64193 0.13423 0.33051 0.0
C258 C 0.68584 0.12822 0.40024 0.0
C259 C 0.65895 0.12438 0.43858 0.0
C260 C 0.62384 0.12018 0.42082 0.0
C261 C 0.61533 0.12526 0.36695 0.0
C262 C 0.65159 0.14748 0.58644 0.0
C263 C 0.68445 0.13583 0.60573 0.0
C264 C 0.64332 0.14415 0.53212 0.0
C265 C 0.6674 0.12819 0.49637 0.0
C266 C 0.70054 0.11754 0.51582 0.0
C267 C 0.70909 0.12188 0.56933 0.0
H268 H 0.88473 0.18309 0.84672 0.0
H269 H 0.85975 0.07307 0.86808 0.0
H270 H 0.88509 0.19149 0.94311 0.0
H271 H 0.85668 0.08165 0.96379 0.0
H272 H 0.8732 0.10931 0.1408 0.0
H273 H 0.87516 0.09311 0.04786 0.0
H274 H 0.84021 0.19811 1.00487 0.0
H275 H 0.84145 0.21509 0.09872 0.0
C276 C 0.88102 0.16035 0.87232 0.0
C277 C 0.87213 0.12752 0.85027 0.0
C278 C 0.87976 0.16534 0.92749 0.0
C279 C 0.86872 0.13777 0.96129 0.0
C280 C 0.86474 0.10375 0.93939 0.0
C281 C 0.8672 0.09857 0.8843 0.0
C282 C 0.86484 0.12884 0.11178 0.0
C283 C 0.85971 0.16443 0.1267 0.0
C284 C 0.86626 0.11948 0.05794 0.0
C285 C 0.86026 0.14505 0.01834 0.0
C286 C 0.84751 0.17847 0.03419 0.0
C287 C 0.84715 0.18803 0.08806 0.0
H288 H 0.82529 0.37933 0.33296 0.0
H289 H 0.93934 0.37974 0.33311 0.0
H290 H 0.8252 0.38906 0.42914 0.0
H291 H 0.93937 0.38902 0.42978 0.0
H292 H 0.90744 0.42726 0.60623 0.0
H293 H 0.9199 0.42469 0.51139 0.0
H294 H 0.84518 0.33997 0.49369 0.0
H295 H 0.83065 0.3437 0.58913 0.0
C296 C 0.85027 0.3836 0.35318 0.0
C297 C 0.88227 0.37827 0.32616 0.0
C298 C 0.85029 0.38818 0.4083 0.0
C299 C 0.88232 0.38781 0.43674 0.0
C300 C 0.91437 0.38852 0.40864 0.0
C301 C 0.91432 0.38399 0.35322 0.0
C302 C 0.89415 0.40724 0.58273 0.0
C303 C 0.86652 0.38674 0.60454 0.0
C304 C 0.90127 0.4061 0.52819 0.0
C305 C 0.88161 0.38374 0.49524 0.0
C306 C 0.85871 0.359 0.51848 0.0
C307 C 0.85081 0.36074 0.57286 0.0
H308 H 0.68896 0.34975 0.10733 0.0
H309 H 0.59 0.30022 0.06622 0.0
H310 H 0.70199 0.35678 1.01119 0.0
H311 H 0.60237 0.30766 0.97174 0.0
H312 H 0.62721 0.36436 0.809 0.0
H313 H 0.61185 0.36006 0.90411 0.0
H314 H 0.7119 0.30897 0.93539 0.0
H315 H 0.72553 0.30952 0.84196 0.0
C316 C 0.67024 0.34036 0.0778 0.0
C317 C 0.63911 0.32351 0.09355 0.0
C318 C 0.67741 0.34455 0.02321 0.0
C319 C 0.65291 0.33293 0.98446 0.0
C320 C 0.62141 0.31716 1.00076 0.0
C321 C 0.61466 0.31245 0.0547 0.0
C322 C 0.64514 0.35088 0.83595 0.0
C323 C 0.6775 0.33728 0.81748 0.0
C324 C 0.63667 0.34899 0.89034 0.0
C325 C 0.66098 0.3346 0.92699 0.0
C326 C 0.6926 0.32008 0.90825 0.0
C327 C 0.70023 0.32032 0.85413 0.0
H328 H 0.33244 0.88931 0.68534 0.0
H329 H 0.44267 0.86293 0.66686 0.0
H330 H 0.32537 0.89027 0.58869 0.0
H331 H 0.43548 0.86158 0.57035 0.0
H332 H 0.40677 0.88594 0.39335 0.0
H333 H 0.42344 0.8855 0.48643 0.0
H334 H 0.32152 0.84244 0.52723 0.0
H335 H 0.30389 0.84509 0.43346 0.0
C336 C 0.35555 0.88555 0.6604 0.0
C337 C 0.38801 0.87596 0.68325 0.0
C338 C 0.35132 0.88477 0.60511 0.0
C339 C 0.3794 0.87396 0.57196 0.0
C340 C 0.41311 0.86938 0.59465 0.0
C341 C 0.41746 0.87091 0.65003 0.0
C342 C 0.38807 0.87526 0.42177 0.0
C343 C 0.35282 0.86808 0.40675 0.0
C344 C 0.3977 0.87531 0.47554 0.0
C345 C 0.3728 0.86632 0.51462 0.0
C346 C 0.34031 0.85186 0.49816 0.0
C347 C 0.33044 0.85259 0.44444 0.0
H348 H 0.13319 0.92551 0.19228 0.0
H349 H 0.1435 0.81311 0.21599 0.0
H350 H 0.1182 0.91543 0.09836 0.0
H351 H 0.12884 0.80289 0.12278 0.0
H352 H 0.09183 0.79389 0.95492 0.0
H353 H 0.08773 0.80795 0.04886 0.0
H354 H 0.16005 0.89481 0.02624 0.0
H355 H 0.16318 0.88094 0.93019 0.0
C356 C 0.1302 0.8986 0.17813 0.0
C357 C 0.13951 0.87 0.21089 0.0
C358 C 0.12248 0.89289 0.12421 0.0
C359 C 0.12343 0.8585 0.10313 0.0
C360 C 0.12802 0.82973 0.13786 0.0
C361 C 0.13601 0.83547 0.19141 0.0
C362 C 0.10741 0.81558 0.97002 0.0
C363 C 0.12912 0.83535 0.93583 0.0
C364 C 0.1047 0.82387 0.02379 0.0
C365 C 0.12358 0.85237 0.04489 0.0
C366 C 0.14489 0.87284 1.01072 0.0
C367 C 0.14734 0.86458 0.95624 0.0
H368 H 0.09288 0.63203 0.69836 0.0
H369 H 0.20564 0.64866 0.69202 0.0
H370 H 0.09119 0.62574 0.60167 0.0
H371 H 0.20434 0.64093 0.59545 0.0
H372 H 0.19291 0.67708 0.4326 0.0
H373 H 0.18149 0.68265 0.5286 0.0
H374 H 0.10717 0.59683 0.52024 0.0
H375 H 0.11456 0.59442 0.42454 0.0
C376 C 0.11764 0.63215 0.67662 0.0
C377 C 0.14933 0.64142 0.70232 0.0
C378 C 0.11656 0.62924 0.62105 0.0
C379 C 0.14734 0.63478 0.59095 0.0
C380 C 0.17989 0.63834 0.61759 0.0
C381 C 0.18087 0.64167 0.67296 0.0
C382 C 0.1731 0.66056 0.45106 0.0
C383 C 0.15561 0.63463 0.42145 0.0
C384 C 0.16738 0.66297 0.50599 0.0
C385 C 0.14581 0.63827 0.53217 0.0
C386 C 0.12479 0.6156 0.50154 0.0
C387 C 0.12905 0.61442 0.44639 0.0
H388 H 0.3362 0.72242 0.21937 0.0
H389 H 0.37491 0.61624 0.19498 0.0
H390 H 0.34155 0.7341 0.12468 0.0
H391 H 0.38222 0.62841 0.09995 0.0
H392 H 0.37722 0.7492 0.95329 0.0
H393 H 0.37465 0.74195 0.04837 0.0
H394 H 0.34147 0.63365 0.02697 0.0
H395 H 0.34519 0.6409 0.93008 0.0
C396 C 0.34767 0.70216 0.19403 0.0
C397 C 0.35461 0.66828 0.21436 0.0
C398 C 0.35041 0.70871 0.13947 0.0
C399 C 0.36099 0.6817 0.10429 0.0
C400 C 0.37255 0.64931 0.12575 0.0
C401 C 0.36943 0.64264 0.18047 0.0
C402 C 0.36745 0.72435 0.96836 0.0
C403 C 0.36082 0.69584 0.93362 0.0
C404 C 0.36669 0.71996 0.02343 0.0
C405 C 0.35869 0.68699 0.04558 0.0
C406 C 0.34889 0.65916 1.01113 0.0
C407 C 0.35012 0.6635 0.95561 0.0
H408 H 0.52677 0.45083 0.14879 0.0
H409 H 0.50786 0.40162 0.99545 0.0
H410 H 0.51327 0.50814 0.1111 0.0
H411 H 0.49565 0.45962 0.95684 0.0
H412 H 0.4414 0.56356 0.917 0.0
H413 H 0.45297 0.50598 0.95654 0.0
H414 H 0.53562 0.55178 0.05374 0.0
H415 H 0.52307 0.60954 1.01569 0.0
C416 C 0.52021 0.45227 0.10671 0.0
C417 C 0.51851 0.42157 0.07506 0.0
C418 C 0.51258 0.4853 0.08501 0.0
C419 C 0.50345 0.48866 0.03085 0.0
C420 C 0.50205 0.45798 0.99894 0.0
C421 C 0.50931 0.42474 0.0209 0.0
C422 C 0.46181 0.56138 0.94722 0.0
C423 C 0.48127 0.59116 0.9633 0.0
C424 C 0.46869 0.52826 0.96951 0.0
C425 C 0.49544 0.52407 1.00805 0.0
C426 C 0.51449 0.55403 0.02471 0.0
C427 C 0.50733 0.58722 1.00286 0.0
H428 H 0.56101 0.02559 0.64507 0.0
H429 H 0.61401 0.02823 0.49224 0.0
H430 H 0.50455 0.0189 0.60035 0.0
H431 H 0.55698 0.02275 0.44705 0.0
H432 H 0.40509 0.0395 0.50665 0.0
H433 H 0.46253 0.04984 0.54768 0.0
H434 H 0.51129 0.98004 0.43216 0.0
H435 H 0.45407 0.97074 0.39001 0.0
C436 C 0.56054 0.02518 0.60179 0.0
C437 C 0.59196 0.02732 0.57214 0.0
C438 C 0.52809 0.02155 0.57612 0.0
C439 C 0.52618 0.02041 0.52011 0.0
C440 C 0.5576 0.02302 0.49031 0.0
C441 C 0.59023 0.02627 0.51611 0.0
C442 C 0.42809 0.0264 0.49003 0.0
C443 C 0.42506 1.00428 0.4452 0.0
C444 C 0.461 0.03223 0.51361 0.0
C445 C 0.49152 0.01568 0.49329 0.0
C446 C 0.48845 0.99366 0.44828 0.0
C447 C 0.45559 0.98815 0.42434 0.0
H448 H 0.95813 0.05603 0.14017 0.0
H449 H 0.02598 0.10367 0.02184 0.0
H450 H 0.96528 0.99884 0.0966 0.0
H451 H 0.03414 0.0464 0.97948 0.0
H452 H 0.01208 0.94846 0.88256 0.0
H453 H 1.003 1.00472 0.9272 0.0
H454 H 0.00704 0.95237 0.08048 0.0
H455 H 0.01485 0.8956 0.03535 0.0
C456 C 0.9748 0.05424 0.1051 0.0
C457 C 0.99141 0.08442 0.08435 0.0
C458 C 0.97905 0.0214 0.0803 0.0
C459 C 1.00024 0.01796 0.03446 0.0
C460 C 0.01707 0.04816 1.01409 0.0
C461 C 0.01253 0.08101 0.03853 0.0
C462 C 0.01103 0.94892 0.92582 0.0
C463 C 0.01425 0.91761 0.95547 0.0
C464 C 1.00601 0.98125 0.95146 0.0
C465 C 1.00457 0.9832 1.00749 0.0
C466 C 0.00757 0.9518 0.03724 0.0
C467 C 0.01218 0.91928 1.01145 0.0
H468 H 0.89858 0.49959 0.49836 0.0
H469 H 0.94972 0.52365 0.64849 0.0
H470 H 0.95575 0.50006 0.45376 0.0
H471 H 0.00675 0.5254 0.60367 0.0
H472 H 0.05869 0.53869 0.38196 0.0
H473 H 1.00188 0.53836 0.42639 0.0
H474 H 0.04913 0.48676 0.56298 0.0
H475 H 0.10668 0.48822 0.51899 0.0
C476 C 0.92195 0.50575 0.52159 0.0
C477 C 0.91966 0.51168 0.57686 0.0
C478 C 0.95476 0.50597 0.49608 0.0
C479 C 0.98592 0.5126 0.5252 0.0
C480 C 0.98342 0.51947 0.58025 0.0
C481 C 0.95068 0.51882 0.60584 0.0
C482 C 0.05707 0.52702 0.42135 0.0
C483 C 0.0873 0.51333 0.44686 0.0
C484 C 0.02434 0.52674 0.44677 0.0
C485 C 0.02085 0.51249 0.49821 0.0
C486 C 0.05099 0.49843 0.52362 0.0
C487 C 0.08393 0.499 0.49829 0.0
H488 H 0.7219 0.17401 0.12274 0.0
H489 H 0.64683 0.24395 0.04803 0.0
H490 H 0.76884 0.19865 0.06828 0.0
H491 H 0.69423 0.27056 0.99707 0.0
H492 H 0.7739 0.31198 0.15706 0.0
H493 H 0.72628 0.29028 0.10129 0.0
H494 H 0.80201 0.24791 0.98929 0.0
H495 H 0.85024 0.27219 0.04402 0.0
C496 C 0.71518 0.19315 0.09222 0.0
C497 C 0.68151 0.20843 0.09069 0.0
C498 C 0.74194 0.20707 0.06036 0.0
C499 C 0.73538 0.2381 0.03106 0.0
C500 C 0.70018 0.24741 0.02024 0.0
C501 C 0.6731 0.2326 0.05039 0.0
C502 C 0.78028 0.30002 0.11887 0.0
C503 C 0.81531 0.29256 0.10534 0.0
C504 C 0.75305 0.28804 0.08632 0.0
C505 C 0.76065 0.26679 0.04155 0.0
C506 C 0.79568 0.26405 0.02375 0.0
C507 C 0.82309 0.27764 0.05526 0.0
H508 H 0.69536 0.29641 0.58412 0.0
H509 H 0.78487 0.35108 0.51896 0.0
H510 H 0.71333 0.24285 0.538 0.0
H511 H 0.80399 0.29631 0.47428 0.0
H512 H 0.77887 0.1488 0.55318 0.0
H513 H 0.7616 0.19357 0.48709 0.0
H514 H 0.81007 0.27383 0.58594 0.0
H515 H 0.82333 0.22991 0.65357 0.0
C516 C 0.71794 0.2974 0.55758 0.0
C517 C 0.74096 0.32631 0.55856 0.0
C518 C 0.72802 0.26684 0.53021 0.0
C519 C 0.76212 0.26501 0.50798 0.0
C520 C 0.77889 0.29685 0.49495 0.0
C521 C 0.76874 0.32766 0.52176 0.0
C522 C 0.78616 0.17604 0.55983 0.0
C523 C 0.80081 0.18666 0.60887 0.0
C524 C 0.77709 0.20136 0.52157 0.0
C525 C 0.78443 0.23707 0.53135 0.0
C526 C 0.80431 0.24642 0.57696 0.0
C527 C 0.81157 0.2215 0.61615 0.0
H528 H 0.35669 0.80136 0.98652 0.0
H529 H 0.27943 0.83399 0.8699 0.0
H530 H 0.30921 0.7797 0.04428 0.0
H531 H 0.23227 0.81786 0.93043 0.0
H532 H 0.15481 0.76403 0.98054 0.0
H533 H 0.19917 0.79807 0.02937 0.0
H534 H 0.28014 0.72748 0.97071 0.0
H535 H 0.23626 0.69636 0.91764 0.0
C536 C 0.32952 0.80571 0.97474 0.0
C537 C 0.32124 0.81672 0.92265 0.0
C538 C 0.30243 0.79425 1.00847 0.0
C539 C 0.26722 0.79598 0.99088 0.0
C540 C 0.25927 0.81561 0.94463 0.0
C541 C 0.28621 0.82456 0.90948 0.0
C542 C 0.18194 0.75515 0.98018 0.0
C543 C 0.19277 0.72924 0.9436 0.0
C544 C 0.20718 0.77397 1.00925 0.0
C545 C 0.24316 0.76635 1.00163 0.0
C546 C 0.25254 0.73442 0.9762 0.0
C547 C 0.22755 0.71673 0.94514 0.0
H548 H 0.25348 0.86032 0.49469 0.0
H549 H 0.19358 0.78554 0.40169 0.0
H550 H 0.27062 0.81293 0.55687 0.0
H551 H 0.20835 0.73928 0.46471 0.0
H552 H 0.32561 0.71794 0.43299 0.0
H553 H 0.31129 0.76821 0.48947 0.0
H554 H 0.22899 0.70862 0.56542 0.0
H555 H 0.24306 0.65761 0.50765 0.0
C556 C 0.24282 0.83404 0.48909 0.0
C557 C 0.22403 0.82551 0.44245 0.0
C558 C 0.25211 0.80728 0.52499 0.0
C559 C 0.24192 0.77234 0.51453 0.0
C560 C 0.21707 0.76587 0.47362 0.0
C561 C 0.20899 0.79214 0.43684 0.0
C562 C 0.30545 0.71501 0.46337 0.0
C563 C 0.28324 0.68553 0.46351 0.0
C564 C 0.29769 0.74353 0.49679 0.0
C565 C 0.26633 0.74301 0.52697 0.0
C566 C 0.25126 0.71008 0.53847 0.0
C567 C 0.25872 0.68143 0.5049 0.0
H568 H 0.57516 0.16462 0.09212 0.0
H569 H 0.56025 0.24592 0.9739 0.0
H570 H 0.60697 0.1286 0.02654 0.0
H571 H 0.59193 0.21024 0.90844 0.0
H572 H 0.63545 0.13363 0.78662 0.0
H573 H 0.59469 0.16043 0.85119 0.0
H574 H 0.66162 0.12476 0.98027 0.0
H575 H 0.70151 0.09748 0.9155 0.0
C576 C 0.57851 0.17485 0.05213 0.0
C577 C 0.56509 0.20847 0.03888 0.0
C578 C 0.59693 0.15413 1.01423 0.0
C579 C 0.60248 0.16617 0.96149 0.0
C580 C 0.58798 0.19939 0.94795 0.0
C581 C 0.56963 0.22005 0.98582 0.0
C582 C 0.64054 0.13016 0.82887 0.0
C583 C 0.67116 0.11215 0.84574 0.0
C584 C 0.61752 0.14626 0.86617 0.0
C585 C 0.62459 0.14528 0.92168 0.0
C586 C 0.65454 0.12588 0.93839 0.0
C587 C 0.67747 0.10985 0.90109 0.0
H588 H 0.77076 0.057 0.47514 0.0
H589 H 0.84513 0.08379 0.59923 0.0
H590 H 0.80663 0.08842 0.41003 0.0
H591 H 0.88093 0.11589 0.53417 0.0
H592 H 0.90569 0.20897 0.41629 0.0
H593 H 0.87944 0.16958 0.48229 0.0
H594 H 0.86041 0.09234 0.35859 0.0
H595 H 0.88654 0.13228 0.29257 0.0
C596 C 0.7951 0.0691 0.48866 0.0
C597 C 0.80449 0.06804 0.54325 0.0
C598 C 0.81585 0.08729 0.45096 0.0
C599 C 0.84691 0.10524 0.46623 0.0
C600 C 0.85699 0.1031 0.52052 0.0
C601 C 0.83631 0.08465 0.55818 0.0
C602 C 0.89726 0.18296 0.40352 0.0
C603 C 0.89946 0.17351 0.34913 0.0
C604 C 0.88186 0.1603 0.44151 0.0
C605 C 0.8674 0.12745 0.42641 0.0
C606 C 0.87082 0.11741 0.37216 0.0
C607 C 0.88653 0.14008 0.33418 0.0
H608 H 0.89187 0.37652 0.77597 0.0
H609 H 0.81924 0.41503 0.89477 0.0
H610 H 0.92729 0.34827 0.8454 0.0
H611 H 0.85351 0.38555 0.9646 0.0
H612 H 0.92828 0.33779 0.088 0.0
H613 H 0.90185 0.37601 0.0206 0.0
H614 H 0.9272 0.29884 0.89911 0.0
H615 H 0.95415 0.26118 0.96659 0.0
C616 C 0.8842 0.38013 0.81733 0.0
C617 C 0.85329 0.39926 0.82966 0.0
C618 C 0.90409 0.36304 0.85741 0.0
C619 C 0.89336 0.36364 0.91147 0.0
C620 C 0.86333 0.38444 0.92405 0.0
C621 C 0.84367 0.40188 0.88384 0.0
C622 C 0.92833 0.32891 0.04698 0.0
C623 C 0.94343 0.29599 0.03342 0.0
C624 C 0.91294 0.351 1.00787 0.0
C625 C 0.91189 0.34103 0.95345 0.0
C626 C 0.92776 0.30834 0.9399 0.0
C627 C 0.94333 0.28642 0.97898 0.0
H628 H 0.67508 0.42526 0.58925 0.0
H629 H 0.74725 0.45819 0.46618 0.0
H630 H 0.63977 0.39395 0.52301 0.0
H631 H 0.71222 0.42648 0.39952 0.0
H632 H 0.63416 0.3788 0.28032 0.0
H633 H 0.66097 0.4188 0.34628 0.0
H634 H 0.63925 0.343 0.47062 0.0
H635 H 0.61192 0.30412 0.40502 0.0
C636 C 0.68353 0.42587 0.54802 0.0
C637 C 0.71446 0.4442 0.53372 0.0
C638 C 0.66318 0.40767 0.50961 0.0
C639 C 0.67291 0.40692 0.45511 0.0
C640 C 0.70321 0.42642 0.44054 0.0
C641 C 0.72351 0.44476 0.47906 0.0
C642 C 0.63382 0.37148 0.32213 0.0
C643 C 0.6196 0.33871 0.33747 0.0
C644 C 0.64994 0.39412 0.36009 0.0
C645 C 0.6527 0.38457 0.41464 0.0
C646 C 0.63732 0.35216 0.42979 0.0
C647 C 0.62132 0.3297 0.39196 0.0
H648 H 0.45041 0.76783 0.05751 0.0
H649 H 0.4321 0.84744 0.93772 0.0
H650 H 0.41991 0.804 0.1234 0.0
H651 H 0.40149 0.88406 1.00391 0.0
H652 H 0.30945 0.91571 0.12047 0.0
H653 H 0.34786 0.88825 0.05364 0.0
H654 H 0.4186 0.8543 0.17907 0.0
H655 H 0.37937 0.88094 0.24554 0.0
C656 C 0.44058 0.79347 0.04529 0.0
C657 C 0.44382 0.80439 0.9917 0.0
C658 C 0.4229 0.81443 0.08344 0.0
C659 C 0.40784 0.84736 0.06974 0.0
C660 C 0.41206 0.85879 0.0164 0.0
C661 C 0.42978 0.83772 0.97816 0.0
C662 C 0.33401 0.9037 0.13354 0.0
C663 C 0.34186 0.90183 0.18848 0.0
C664 C 0.35606 0.88757 0.09508 0.0
C665 C 0.38663 0.86855 0.11026 0.0
C666 C 0.39523 0.86811 0.16525 0.0
C667 C 0.37308 0.88419 0.20364 0.0
H668 H 0.14102 0.87785 0.75082 0.0
H669 H 0.10316 0.81203 0.62289 0.0
H670 H 0.16829 0.91757 0.68585 0.0
H671 H 0.1312 0.85067 0.55765 0.0
H672 H 0.25308 0.95218 0.56343 0.0
H673 H 0.21729 0.92118 0.62924 0.0
H674 H 0.13699 0.90322 0.50952 0.0
H675 H 0.17318 0.9339 0.44385 0.0
C676 C 0.13728 0.87263 0.70862 0.0
C677 C 0.11853 0.84241 0.69225 0.0
C678 C 0.15373 0.89501 0.67106 0.0
C679 C 0.15261 0.88763 0.61564 0.0
C680 C 0.13251 0.85807 0.59939 0.0
C681 C 0.11597 0.83585 0.63699 0.0
C682 C 0.22752 0.94216 0.55124 0.0
C683 C 0.21643 0.94553 0.49769 0.0
C684 C 0.20674 0.92423 0.5893 0.0
C685 C 0.17383 0.9091 0.5755 0.0
C686 C 0.16229 0.91358 0.5222 0.0
C687 C 0.18316 0.93141 0.48415 0.0
H688 H 0.16858 0.57545 0.14811 0.0
H689 H 0.14927 0.6682 0.24387 0.0
H690 H 0.12839 0.59868 0.07919 0.0
H691 H 0.11143 0.69217 0.17546 0.0
H692 H 0.0357 0.73221 0.05633 0.0
H693 H 0.06141 0.69673 0.12713 0.0
H694 H 0.12326 0.63938 1.01047 0.0
H695 H 0.09458 0.67261 0.9396 0.0
C696 C 0.15509 0.60029 0.15516 0.0
C697 C 0.1622 0.61977 0.20188 0.0
C698 C 0.13246 0.61413 0.11507 0.0
C699 C 0.11639 0.64786 0.12057 0.0
C700 C 0.12228 0.66606 0.16893 0.0
C701 C 0.14445 0.65224 0.20862 0.0
C702 C 0.05421 0.71155 0.04545 0.0
C703 C 0.06373 0.70638 0.9916 0.0
C704 C 0.06962 0.69133 0.08654 0.0
C705 C 0.09575 0.6655 0.07569 0.0
C706 C 0.10359 0.65888 0.02146 0.0
C707 C 0.08754 0.67865 0.98029 0.0
H708 H 0.40134 0.70612 0.62348 0.0
H709 H 0.36959 0.63691 0.75066 0.0
H710 H 0.37415 0.66691 0.55802 0.0
H711 H 0.34275 0.59668 0.68503 0.0
H712 H 0.33863 0.58186 0.44276 0.0
H713 H 0.37317 0.61339 0.50994 0.0
H714 H 0.29266 0.59199 0.6275 0.0
H715 H 0.25837 0.56023 0.5601 0.0
C716 C 0.3898 0.68161 0.63728 0.0
C717 C 0.38883 0.67418 0.69234 0.0
C718 C 0.3739 0.65902 0.59956 0.0
C719 C 0.35593 0.62816 0.61546 0.0
C720 C 0.35591 0.62017 0.6707 0.0
C721 C 0.37197 0.64289 0.70852 0.0
C722 C 0.32829 0.58371 0.48294 0.0
C723 C 0.29538 0.56851 0.4954 0.0
C724 C 0.34816 0.60203 0.5218 0.0
C725 C 0.33596 0.60586 0.57484 0.0
C726 C 0.30355 0.58951 0.5877 0.0
C727 C 0.28371 0.57113 0.54876 0.0
H728 H 0.44712 0.22591 0.18671 0.0
H729 H 0.48746 0.18074 0.33257 0.0
H730 H 0.39088 0.19469 0.19982 0.0
H731 H 0.43097 0.15088 0.34698 0.0
H732 H 0.32178 0.11214 0.37247 0.0
H733 H 0.35967 0.16289 0.35639 0.0
H734 H 0.38618 0.12168 0.20082 0.0
H735 H 0.34908 0.0701 0.21713 0.0
C736 C 0.44327 0.21068 0.22283 0.0
C737 C 0.47127 0.20605 0.25914 0.0
C738 C 0.41129 0.19265 0.23006 0.0
C739 C 0.40658 0.17053 0.27448 0.0
C740 C 0.43372 0.16816 0.31279 0.0
C741 C 0.46596 0.1853 0.30474 0.0
C742 C 0.33445 0.11437 0.33386 0.0
C743 C 0.33284 0.08648 0.29649 0.0
C744 C 0.35635 0.14349 0.32491 0.0
C745 C 0.37619 0.1459 0.27776 0.0
C746 C 0.37111 0.12045 0.23754 0.0
C747 C 0.34979 0.09089 0.24691 0.0
H748 H 0.7998 0.95116 0.66863 0.0
H749 H 0.82099 0.97818 0.83286 0.0
H750 H 0.8337 0.8962 0.67902 0.0
H751 H 0.85402 0.92296 0.84394 0.0
H752 H 0.95435 0.85722 0.71449 0.0
H753 H 0.90203 0.89289 0.69546 0.0
H754 H 0.85215 0.85384 0.83838 0.0
H755 H 0.90395 0.81757 0.85715 0.0
C756 C 0.81034 0.94444 0.70761 0.0
C757 C 0.80737 0.9684 0.75029 0.0
C758 C 0.82995 0.91323 0.7134 0.0
C759 C 0.84648 0.90529 0.76225 0.0
C760 C 0.84117 0.92811 0.80603 0.0
C761 C 0.82218 0.95963 0.79988 0.0
C762 C 0.93174 0.85506 0.74078 0.0
C763 C 0.93383 0.83498 0.78793 0.0
C764 C 0.9017 0.87556 0.72984 0.0
C765 C 0.87331 0.87663 0.76604 0.0
C766 C 0.87385 0.85383 0.81017 0.0
C767 C 0.90358 0.83287 0.82064 0.0
H768 H 0.15984 0.44696 0.21058 0.0
H769 H 0.18632 0.39933 0.36228 0.0
H770 H 0.12237 0.3967 0.18938 0.0
H771 H 0.14874 0.34911 0.34084 0.0
H772 H 0.05762 0.30047 0.15798 0.0
H773 H 0.11301 0.33247 0.1735 0.0
H774 H 0.08257 0.34968 0.33781 0.0
H775 H 0.02734 0.31784 0.32181 0.0
C776 C 0.1588 0.42522 0.2386 0.0
C777 C 0.17568 0.42773 0.28862 0.0
C778 C 0.13721 0.3963 0.22641 0.0
C779 C 0.13189 0.36924 0.26399 0.0
C780 C 0.15175 0.36986 0.31148 0.0
C781 C 0.17365 0.3986 0.32347 0.0
C782 C 0.06352 0.31008 0.19781 0.0
C783 C 0.03866 0.30636 0.23898 0.0
C784 C 0.09502 0.32863 0.2066 0.0
C785 C 0.10224 0.34373 0.25685 0.0
C786 C 0.07817 0.33797 0.29886 0.0
C787 C 0.04653 0.31973 0.28985 0.0
H788 H 0.60167 0.6786 0.85786 0.0
H789 H 0.54126 0.63345 0.72794 0.0
H790 H 0.6495 0.63647 0.84008 0.0
H791 H 0.58885 0.59154 0.71101 0.0
H792 H 0.64038 0.4897 0.77241 0.0
H793 H 0.60401 0.54196 0.78436 0.0
H794 H 0.69517 0.60836 0.76178 0.0
H795 H 0.73226 0.55537 0.74839 0.0
C796 C 0.59898 0.66065 0.82435 0.0
C797 C 0.56709 0.65908 0.79506 0.0
C798 C 0.62645 0.63646 0.81436 0.0
C799 C 0.62249 0.61028 0.77502 0.0
C800 C 0.59232 0.61112 0.74221 0.0
C801 C 0.56508 0.63533 0.75184 0.0
C802 C 0.65304 0.5153 0.77049 0.0
C803 C 0.68929 0.51819 0.75875 0.0
C804 C 0.63203 0.54529 0.77702 0.0
C805 C 0.64659 0.57918 0.77266 0.0
C806 C 0.68327 0.58246 0.76478 0.0
C807 C 0.70448 0.55215 0.75756 0.0
H808 H 0.65058 0.95159 0.8075 0.0
H809 H 0.6842 0.90528 0.65792 0.0
H810 H 0.61623 0.89873 0.82675 0.0
H811 H 0.64946 0.85269 0.67714 0.0
H812 H 0.56124 0.797 0.85739 0.0
H813 H 0.61462 0.8321 0.84201 0.0
H814 H 0.58196 0.84928 0.67877 0.0
H815 H 0.52847 0.81477 0.69476 0.0
C816 C 0.65159 0.92978 0.77947 0.0
C817 C 0.6699 0.93308 0.73083 0.0
C818 C 0.63189 0.89937 0.79057 0.0
C819 C 0.62973 0.87169 0.75308 0.0
C820 C 0.65031 0.87372 0.70652 0.0
C821 C 0.67043 0.90389 0.69576 0.0
C822 C 0.56646 0.80687 0.81756 0.0
C823 C 0.54123 0.80259 0.77686 0.0
C824 C 0.59673 0.82735 0.80896 0.0
C825 C 0.60244 0.84365 0.75929 0.0
C826 C 0.5786 0.83675 0.7173 0.0
C827 C 0.54806 0.81678 0.72622 0.0
H828 H 0.18081 0.02126 0.20773 0.0
H829 H 0.21797 0.06338 0.35765 0.0
H830 H 0.14867 0.07631 0.19041 0.0
H831 H 0.1847 0.11825 0.34138 0.0
H832 H 0.06213 0.1596 0.31513 0.0
H833 H 0.1138 0.12307 0.33506 0.0
H834 H 0.15674 0.14606 0.17952 0.0
H835 H 0.1057 0.18323 0.15972 0.0
C836 C 0.18296 0.04283 0.23606 0.0
C837 C 0.20215 0.0385 0.28352 0.0
C838 C 0.1646 0.07428 0.22629 0.0
C839 C 0.16428 0.10156 0.26456 0.0
C840 C 0.18468 0.09772 0.31116 0.0
C841 C 0.20382 0.06652 0.32029 0.0
C842 C 0.08325 0.15815 0.28601 0.0
C843 C 0.07935 0.17396 0.23549 0.0
C844 C 0.11287 0.13717 0.29746 0.0
C845 C 0.13892 0.1313 0.25841 0.0
C846 C 0.13685 0.14994 0.2101 0.0
C847 C 0.10761 0.17144 0.19901 0.0
H848 H 0.95367 0.74312 0.78232 0.0
H849 H 1.00277 0.64017 0.76888 0.0
H850 H 0.8952 0.71551 0.7695 0.0
H851 H 0.94516 0.61332 0.75757 0.0
H852 H 0.84436 0.57161 0.81777 0.0
H853 H 0.88757 0.61761 0.83638 0.0
H854 H 0.86778 0.66392 0.68213 0.0
H855 H 0.82456 0.6178 0.66277 0.0
C856 C 0.95215 0.71487 0.77591 0.0
C857 C 0.98302 0.69388 0.77718 0.0
C858 C 0.91872 0.69914 0.76896 0.0
C859 C 0.91583 0.66227 0.76378 0.0
C860 C 0.94669 0.64173 0.76255 0.0
C861 C 0.97975 0.65726 0.76884 0.0
C862 C 0.84781 0.59246 0.78868 0.0
C863 C 0.83158 0.59026 0.73814 0.0
C864 C 0.87268 0.61881 0.7994 0.0
C865 C 0.88135 0.64386 0.76028 0.0
C866 C 0.8615 0.64489 0.71293 0.0
C867 C 0.83661 0.61839 0.70203 0.0
H868 H 0.40422 0.32571 0.17466 0.0
H869 H 0.46177 0.37018 0.30809 0.0
H870 H 0.35563 0.36703 0.19147 0.0
H871 H 0.4133 0.41129 0.32406 0.0
H872 H 0.27514 0.45273 0.29131 0.0
H873 H 0.30958 0.3977 0.28023 0.0
H874 H 0.40085 0.45881 0.23562 0.0
H875 H 0.367 0.51305 0.24541 0.0
C876 C 0.40603 0.34316 0.20889 0.0
C877 C 0.43749 0.34512 0.23918 0.0
C878 C 0.37809 0.36685 0.21835 0.0
C879 C 0.38112 0.39262 0.25838 0.0
C880 C 0.41055 0.39176 0.29262 0.0
C881 C 0.43831 0.36809 0.28343 0.0
C882 C 0.30223 0.45424 0.27756 0.0
C883 C 0.31844 0.4873 0.26975 0.0
C884 C 0.32194 0.42284 0.27173 0.0
C885 C 0.358 0.42429 0.25838 0.0
C886 C 0.37327 0.4571 0.247 0.0
C887 C 0.35376 0.48814 0.25234 0.0
loop_
_geom_bond_atom_site_label_1
_geom_bond_atom_site_label_2
_geom_bond_distance
_geom_bond_site_symmetry_2
_ccdc_geom_bond_type
C0 O12 1.241 . S
C0 O13 1.280 . S
C1 O14 1.277 . S
C1 O15 1.245 . S
C2 O26 1.247 . S
C2 O28 1.289 . S
Mg3 O4 1.926 . S
Mg3 O13 1.984 . S
Mg3 O15 1.988 . S
Mg3 O16 2.061 . S
O4 Mg3 1.926 . S
O4 Mg5 1.986 . S
O4 Mg6 1.917 . S
Mg5 O4 1.986 . S
Mg5 O12 2.042 . S
Mg5 O14 2.041 . S
Mg5 O20 2.038 . S
Mg5 O28 2.238 . S
Mg6 O4 1.917 . S
Mg6 O7 1.917 . S
Mg6 O17 2.106 . S
Mg6 O19 2.079 . S
Mg6 O28 2.106 . S
Mg6 O29 2.079 . S
O7 Mg6 1.917 . S
O7 Mg8 1.926 . S
O7 Mg9 1.986 . S
Mg8 O7 1.926 . S
Mg8 O22 1.984 . S
Mg8 O25 1.988 . S
Mg8 O26 2.061 . S
Mg9 O7 1.986 . S
Mg9 O17 2.238 . S
Mg9 O21 2.042 . S
Mg9 O23 2.041 . S
Mg9 O30 2.038 . S
C10 O16 1.247 . S
C10 O17 1.289 . S
C11 O29 1.245 . S
C11 O30 1.274 . S
O12 C0 1.241 . S
O12 Mg5 2.042 . S
O13 C0 1.280 . S
O13 Mg3 1.984 . S
O14 C1 1.277 . S
O14 Mg5 2.041 . S
O15 C1 1.245 . S
O15 Mg3 1.988 . S
O16 Mg3 2.061 . S
O16 C10 1.247 . S
O17 Mg6 2.106 . S
O17 Mg9 2.238 . S
O17 C10 1.289 . S
C18 O19 1.245 . S
C18 O20 1.274 . S
O19 Mg6 2.079 . S
O19 C18 1.245 . S
O20 Mg5 2.038 . S
O20 C18 1.274 . S
O21 Mg9 2.042 . S
O21 C24 1.241 . S
O22 Mg8 1.984 . S
O22 C24 1.280 . S
O23 Mg9 2.041 . S
O23 C27 1.277 . S
C24 O21 1.241 . S
C24 O22 1.280 . S
O25 Mg8 1.988 . S
O25 C27 1.245 . S
O26 C2 1.247 . S
O26 Mg8 2.061 . S
C27 O23 1.277 . S
C27 O25 1.245 . S
O28 C2 1.289 . S
O28 Mg5 2.238 . S
O28 Mg6 2.106 . S
O29 Mg6 2.079 . S
O29 C11 1.245 . S
O30 Mg9 2.038 . S
O30 C11 1.274 . S
C31 O43 1.241 . S
C31 O44 1.280 1_545 S
C32 O45 1.277 . S
C32 O46 1.245 . S
C33 O57 1.247 . S
C33 O59 1.289 . S
Mg34 O35 1.926 1_565 S
Mg34 O44 1.984 . S
Mg34 O46 1.988 . S
Mg34 O47 2.061 1_565 S
O35 Mg34 1.926 1_545 S
O35 Mg36 1.986 . S
O35 Mg37 1.917 . S
Mg36 O35 1.986 . S
Mg36 O43 2.042 . S
Mg36 O45 2.041 1_545 S
Mg36 O51 2.038 . S
Mg36 O59 2.238 . S
Mg37 O35 1.917 . S
Mg37 O38 1.917 . S
Mg37 O48 2.106 . S
Mg37 O50 2.079 . S
Mg37 O59 2.106 . S
Mg37 O60 2.079 . S
O38 Mg37 1.917 . S
O38 Mg39 1.926 . S
O38 Mg40 1.986 . S
Mg39 O38 1.926 . S
Mg39 O53 1.984 . S
Mg39 O56 1.988 . S
Mg39 O57 2.061 . S
Mg40 O38 1.986 . S
Mg40 O48 2.238 . S
Mg40 O52 2.042 . S
Mg40 O54 2.041 . S
Mg40 O61 2.038 . S
C41 O47 1.247 . S
C41 O48 1.289 . S
C42 O60 1.245 . S
C42 O61 1.274 . S
O43 C31 1.241 . S
O43 Mg36 2.042 . S
O44 C31 1.280 1_565 S
O44 Mg34 1.984 . S
O45 C32 1.277 . S
O45 Mg36 2.041 1_565 S
O46 C32 1.245 . S
O46 Mg34 1.988 . S
O47 Mg34 2.061 1_545 S
O47 C41 1.247 . S
O48 Mg37 2.106 . S
O48 Mg40 2.238 . S
O48 C41 1.289 . S
C49 O50 1.245 . S
C49 O51 1.274 . S
O50 Mg37 2.079 . S
O50 C49 1.245 . S
O51 Mg36 2.038 . S
O51 C49 1.274 . S
O52 Mg40 2.042 . S
O52 C55 1.241 . S
O53 Mg39 1.984 . S
O53 C55 1.280 . S
O54 Mg40 2.041 . S
O54 C58 1.277 . S
C55 O52 1.241 . S
C55 O53 1.280 . S
O56 Mg39 1.988 . S
O56 C58 1.245 . S
O57 C33 1.247 . S
O57 Mg39 2.061 . S
C58 O54 1.277 . S
C58 O56 1.245 . S
O59 C33 1.289 . S
O59 Mg36 2.238 . S
O59 Mg37 2.106 . S
O60 Mg37 2.079 . S
O60 C42 1.245 . S
O61 Mg40 2.038 . S
O61 C42 1.274 . S
C62 O74 1.241 . S
C62 O75 1.280 1_655 S
C63 O76 1.277 . S
C63 O77 1.245 . S
C64 O88 1.247 . S
C64 O90 1.289 . S
Mg65 O66 1.926 1_455 S
Mg65 O75 1.984 . S
Mg65 O77 1.988 . S
Mg65 O78 2.061 1_455 S
O66 Mg65 1.926 1_655 S
O66 Mg67 1.986 . S
O66 Mg68 1.917 . S
Mg67 O66 1.986 . S
Mg67 O74 2.042 . S
Mg67 O76 2.041 1_655 S
Mg67 O82 2.038 . S
Mg67 O90 2.238 . S
Mg68 O66 1.917 . S
Mg68 O69 1.917 . S
Mg68 O79 2.106 . S
Mg68 O81 2.079 . S
Mg68 O90 2.106 . S
Mg68 O91 2.079 . S
O69 Mg68 1.917 . S
O69 Mg70 1.926 . S
O69 Mg71 1.986 . S
Mg70 O69 1.926 . S
Mg70 O84 1.984 . S
Mg70 O87 1.988 . S
Mg70 O88 2.061 . S
Mg71 O69 1.986 . S
Mg71 O79 2.238 . S
Mg71 O83 2.042 . S
Mg71 O85 2.041 . S
Mg71 O92 2.038 . S
C72 O78 1.247 . S
C72 O79 1.289 . S
C73 O91 1.245 . S
C73 O92 1.274 . S
O74 C62 1.241 . S
O74 Mg67 2.042 . S
O75 C62 1.280 1_455 S
O75 Mg65 1.984 . S
O76 C63 1.277 . S
O76 Mg67 2.041 1_455 S
O77 C63 1.245 . S
O77 Mg65 1.988 . S
O78 Mg65 2.061 1_655 S
O78 C72 1.247 . S
O79 Mg68 2.106 . S
O79 Mg71 2.238 . S
O79 C72 1.289 . S
C80 O81 1.245 . S
C80 O82 1.274 . S
O81 Mg68 2.079 . S
O81 C80 1.245 . S
O82 Mg67 2.038 . S
O82 C80 1.274 . S
O83 Mg71 2.042 . S
O83 C86 1.241 . S
O84 Mg70 1.984 . S
O84 C86 1.280 . S
O85 Mg71 2.041 . S
O85 C89 1.277 . S
C86 O83 1.241 . S
C86 O84 1.280 . S
O87 Mg70 1.988 . S
O87 C89 1.245 . S
O88 C64 1.247 . S
O88 Mg70 2.061 . S
C89 O85 1.277 . S
C89 O87 1.245 . S
O90 C64 1.289 . S
O90 Mg67 2.238 . S
O90 Mg68 2.106 . S
O91 Mg68 2.079 . S
O91 C73 1.245 . S
O92 Mg71 2.038 . S
O92 C73 1.274 . S
C93 O105 1.241 . S
C93 O106 1.280 . S
C94 O107 1.277 . S
C94 O108 1.245 . S
C95 O119 1.247 . S
C95 O121 1.289 . S
Mg96 O97 1.926 . S
Mg96 O106 1.984 . S
Mg96 O108 1.988 . S
Mg96 O109 2.061 . S
O97 Mg96 1.926 . S
O97 Mg98 1.986 . S
O97 Mg99 1.917 . S
Mg98 O97 1.986 . S
Mg98 O105 2.042 . S
Mg98 O107 2.041 . S
Mg98 O113 2.038 . S
Mg98 O121 2.238 . S
Mg99 O97 1.917 . S
Mg99 O100 1.917 . S
Mg99 O110 2.106 . S
Mg99 O112 2.079 . S
Mg99 O121 2.106 . S
Mg99 O122 2.079 . S
O100 Mg99 1.917 . S
O100 Mg101 1.926 . S
O100 Mg102 1.986 . S
Mg101 O100 1.926 . S
Mg101 O115 1.984 . S
Mg101 O118 1.988 . S
Mg101 O119 2.061 . S
Mg102 O100 1.986 . S
Mg102 O110 2.238 . S
Mg102 O114 2.042 . S
Mg102 O116 2.041 . S
Mg102 O123 2.038 . S
C103 O109 1.247 . S
C103 O110 1.289 . S
C104 O122 1.245 . S
C104 O123 1.274 . S
O105 C93 1.241 . S
O105 Mg98 2.042 . S
O106 C93 1.280 . S
O106 Mg96 1.984 . S
O107 C94 1.277 . S
O107 Mg98 2.041 . S
O108 C94 1.245 . S
O108 Mg96 1.988 . S
O109 Mg96 2.061 . S
O109 C103 1.247 . S
O110 Mg99 2.106 . S
O110 Mg102 2.238 . S
O110 C103 1.289 . S
C111 O112 1.245 . S
C111 O113 1.274 . S
O112 Mg99 2.079 . S
O112 C111 1.245 . S
O113 Mg98 2.038 . S
O113 C111 1.274 . S
O114 Mg102 2.042 . S
O114 C117 1.241 . S
O115 Mg101 1.984 . S
O115 C117 1.280 . S
O116 Mg102 2.041 . S
O116 C120 1.277 . S
C117 O114 1.241 . S
C117 O115 1.280 . S
O118 Mg101 1.988 . S
O118 C120 1.245 . S
O119 C95 1.247 . S
O119 Mg101 2.061 . S
C120 O116 1.277 . S
C120 O118 1.245 . S
O121 C95 1.289 . S
O121 Mg98 2.238 . S
O121 Mg99 2.106 . S
O122 Mg99 2.079 . S
O122 C104 1.245 . S
O123 Mg102 2.038 . S
O123 C104 1.274 . S
C124 O136 1.241 . S
C124 O137 1.280 . S
C125 O138 1.277 . S
C125 O139 1.245 . S
C126 O150 1.247 . S
C126 O152 1.289 . S
Mg127 O128 1.926 . S
Mg127 O137 1.984 . S
Mg127 O139 1.988 . S
Mg127 O140 2.061 . S
O128 Mg127 1.926 . S
O128 Mg129 1.986 . S
O128 Mg130 1.917 . S
Mg129 O128 1.986 . S
Mg129 O136 2.042 . S
Mg129 O138 2.041 . S
Mg129 O144 2.038 . S
Mg129 O152 2.238 . S
Mg130 O128 1.917 . S
Mg130 O131 1.917 . S
Mg130 O141 2.106 . S
Mg130 O143 2.079 . S
Mg130 O152 2.106 . S
Mg130 O153 2.079 . S
O131 Mg130 1.917 . S
O131 Mg132 1.926 . S
O131 Mg133 1.986 . S
Mg132 O131 1.926 . S
Mg132 O146 1.984 . S
Mg132 O149 1.988 . S
Mg132 O150 2.061 . S
Mg133 O131 1.986 . S
Mg133 O141 2.238 . S
Mg133 O145 2.042 . S
Mg133 O147 2.041 . S
Mg133 O154 2.038 . S
C134 O140 1.247 . S
C134 O141 1.289 . S
C135 O153 1.245 . S
C135 O154 1.274 . S
O136 C124 1.241 . S
O136 Mg129 2.042 . S
O137 C124 1.280 . S
O137 Mg127 1.984 . S
O138 C125 1.277 . S
O138 Mg129 2.041 . S
O139 C125 1.245 . S
O139 Mg127 1.988 . S
O140 Mg127 2.061 . S
O140 C134 1.247 . S
O141 Mg130 2.106 . S
O141 Mg133 2.238 . S
O141 C134 1.289 . S
C142 O143 1.245 . S
C142 O144 1.274 . S
O143 Mg130 2.079 . S
O143 C142 1.245 . S
O144 Mg129 2.038 . S
O144 C142 1.274 . S
O145 Mg133 2.042 . S
O145 C148 1.241 . S
O146 Mg132 1.984 . S
O146 C148 1.280 . S
O147 Mg133 2.041 . S
O147 C151 1.277 . S
C148 O145 1.241 . S
C148 O146 1.280 . S
O149 Mg132 1.988 . S
O149 C151 1.245 . S
O150 C126 1.247 . S
O150 Mg132 2.061 . S
C151 O147 1.277 . S
C151 O149 1.245 . S
O152 C126 1.289 . S
O152 Mg129 2.238 . S
O152 Mg130 2.106 . S
O153 Mg130 2.079 . S
O153 C135 1.245 . S
O154 Mg133 2.038 . S
O154 C135 1.274 . S
C155 O167 1.241 . S
C155 O168 1.280 . S
C156 O169 1.277 . S
C156 O170 1.245 . S
C157 O181 1.247 . S
C157 O183 1.289 . S
Mg158 O159 1.926 . S
Mg158 O168 1.984 . S
Mg158 O170 1.988 . S
Mg158 O171 2.061 . S
O159 Mg158 1.926 . S
O159 Mg160 1.986 . S
O159 Mg161 1.917 . S
Mg160 O159 1.986 . S
Mg160 O167 2.042 . S
Mg160 O169 2.041 . S
Mg160 O175 2.038 . S
Mg160 O183 2.238 . S
Mg161 O159 1.917 . S
Mg161 O162 1.917 . S
Mg161 O172 2.106 . S
Mg161 O174 2.079 . S
Mg161 O183 2.106 . S
Mg161 O184 2.079 . S
O162 Mg161 1.917 . S
O162 Mg163 1.926 1_565 S
O162 Mg164 1.986 . S
Mg163 O162 1.926 1_545 S
Mg163 O177 1.984 . S
Mg163 O180 1.988 . S
Mg163 O181 2.061 1_545 S
Mg164 O162 1.986 . S
Mg164 O172 2.238 . S
Mg164 O176 2.042 . S
Mg164 O178 2.041 1_565 S
Mg164 O185 2.038 . S
C165 O171 1.247 . S
C165 O172 1.289 . S
C166 O184 1.245 . S
C166 O185 1.274 . S
O167 C155 1.241 . S
O167 Mg160 2.042 . S
O168 C155 1.280 . S
O168 Mg158 1.984 . S
O169 C156 1.277 . S
O169 Mg160 2.041 . S
O170 C156 1.245 . S
O170 Mg158 1.988 . S
O171 Mg158 2.061 . S
O171 C165 1.247 . S
O172 Mg161 2.106 . S
O172 Mg164 2.238 . S
O172 C165 1.289 . S
C173 O174 1.245 . S
C173 O175 1.274 . S
O174 Mg161 2.079 . S
O174 C173 1.245 . S
O175 Mg160 2.038 . S
O175 C173 1.274 . S
O176 Mg164 2.042 . S
O176 C179 1.241 . S
O177 Mg163 1.984 . S
O177 C179 1.280 1_545 S
O178 Mg164 2.041 1_545 S
O178 C182 1.277 . S
C179 O176 1.241 . S
C179 O177 1.280 1_565 S
O180 Mg163 1.988 . S
O180 C182 1.245 . S
O181 C157 1.247 . S
O181 Mg163 2.061 1_565 S
C182 O178 1.277 . S
C182 O180 1.245 . S
O183 C157 1.289 . S
O183 Mg160 2.238 . S
O183 Mg161 2.106 . S
O184 Mg161 2.079 . S
O184 C166 1.245 . S
O185 Mg164 2.038 . S
O185 C166 1.274 . S
C186 O198 1.241 . S
C186 O199 1.280 . S
C187 O200 1.277 . S
C187 O201 1.245 . S
C188 O212 1.247 . S
C188 O214 1.289 . S
Mg189 O190 1.926 . S
Mg189 O199 1.984 . S
Mg189 O201 1.988 . S
Mg189 O202 2.061 . S
O190 Mg189 1.926 . S
O190 Mg191 1.986 . S
O190 Mg192 1.917 . S
Mg191 O190 1.986 . S
Mg191 O198 2.042 . S
Mg191 O200 2.041 . S
Mg191 O206 2.038 . S
Mg191 O214 2.238 . S
Mg192 O190 1.917 . S
Mg192 O193 1.917 . S
Mg192 O203 2.106 . S
Mg192 O205 2.079 . S
Mg192 O214 2.106 . S
Mg192 O215 2.079 . S
O193 Mg192 1.917 . S
O193 Mg194 1.926 1_455 S
O193 Mg195 1.986 . S
Mg194 O193 1.926 1_655 S
Mg194 O208 1.984 . S
Mg194 O211 1.988 . S
Mg194 O212 2.061 1_655 S
Mg195 O193 1.986 . S
Mg195 O203 2.238 . S
Mg195 O207 2.042 . S
Mg195 O209 2.041 1_455 S
Mg195 O216 2.038 . S
C196 O202 1.247 . S
C196 O203 1.289 . S
C197 O215 1.245 . S
C197 O216 1.274 . S
O198 C186 1.241 . S
O198 Mg191 2.042 . S
O199 C186 1.280 . S
O199 Mg189 1.984 . S
O200 C187 1.277 . S
O200 Mg191 2.041 . S
O201 C187 1.245 . S
O201 Mg189 1.988 . S
O202 Mg189 2.061 . S
O202 C196 1.247 . S
O203 Mg192 2.106 . S
O203 Mg195 2.238 . S
O203 C196 1.289 . S
C204 O205 1.245 . S
C204 O206 1.274 . S
O205 Mg192 2.079 . S
O205 C204 1.245 . S
O206 Mg191 2.038 . S
O206 C204 1.274 . S
O207 Mg195 2.042 . S
O207 C210 1.241 . S
O208 Mg194 1.984 . S
O208 C210 1.280 1_655 S
O209 Mg195 2.041 1_655 S
O209 C213 1.277 . S
C210 O207 1.241 . S
C210 O208 1.280 1_455 S
O211 Mg194 1.988 . S
O211 C213 1.245 . S
O212 C188 1.247 . S
O212 Mg194 2.061 1_455 S
C213 O209 1.277 . S
C213 O211 1.245 . S
O214 C188 1.289 . S
O214 Mg191 2.238 . S
O214 Mg192 2.106 . S
O215 Mg192 2.079 . S
O215 C197 1.245 . S
O216 Mg195 2.038 . S
O216 C197 1.274 . S
C217 O229 1.241 . S
C217 O230 1.280 . S
C218 O231 1.277 . S
C218 O232 1.245 . S
C219 O243 1.247 . S
C219 O245 1.289 . S
Mg220 O221 1.926 . S
Mg220 O230 1.984 . S
Mg220 O232 1.988 . S
Mg220 O233 2.061 . S
O221 Mg220 1.926 . S
O221 Mg222 1.986 . S
O221 Mg223 1.917 . S
Mg222 O221 1.986 . S
Mg222 O229 2.042 . S
Mg222 O231 2.041 . S
Mg222 O237 2.038 . S
Mg222 O245 2.238 . S
Mg223 O221 1.917 . S
Mg223 O224 1.917 . S
Mg223 O234 2.106 . S
Mg223 O236 2.079 . S
Mg223 O245 2.106 . S
Mg223 O246 2.079 . S
O224 Mg223 1.917 . S
O224 Mg225 1.926 . S
O224 Mg226 1.986 . S
Mg225 O224 1.926 . S
Mg225 O239 1.984 . S
Mg225 O242 1.988 . S
Mg225 O243 2.061 . S
Mg226 O224 1.986 . S
Mg226 O234 2.238 . S
Mg226 O238 2.042 . S
Mg226 O240 2.041 . S
Mg226 O247 2.038 . S
C227 O233 1.247 . S
C227 O234 1.289 . S
C228 O246 1.245 . S
C228 O247 1.274 . S
O229 C217 1.241 . S
O229 Mg222 2.042 . S
O230 C217 1.280 . S
O230 Mg220 1.984 . S
O231 C218 1.277 . S
O231 Mg222 2.041 . S
O232 C218 1.245 . S
O232 Mg220 1.988 . S
O233 Mg220 2.061 . S
O233 C227 1.247 . S
O234 Mg223 2.106 . S
O234 Mg226 2.238 . S
O234 C227 1.289 . S
C235 O236 1.245 . S
C235 O237 1.274 . S
O236 Mg223 2.079 . S
O236 C235 1.245 . S
O237 Mg222 2.038 . S
O237 C235 1.274 . S
O238 Mg226 2.042 . S
O238 C241 1.241 . S
O239 Mg225 1.984 . S
O239 C241 1.280 . S
O240 Mg226 2.041 . S
O240 C244 1.277 . S
C241 O238 1.241 . S
C241 O239 1.280 . S
O242 Mg225 1.988 . S
O242 C244 1.245 . S
O243 C219 1.247 . S
O243 Mg225 2.061 . S
C244 O240 1.277 . S
C244 O242 1.245 . S
O245 C219 1.289 . S
O245 Mg222 2.238 . S
O245 Mg223 2.106 . S
O246 Mg223 2.079 . S
O246 C228 1.245 . S
O247 Mg226 2.038 . S
O247 C228 1.274 . S
H248 C256 0.950 . S
H249 C261 0.950 . S
H250 C258 0.950 . S
H251 C260 0.950 . S
H252 C262 0.950 . S
H253 C264 0.950 . S
H254 C266 0.950 . S
H255 C267 0.950 . S
C256 H248 0.950 . S
C256 C257 1.386 . S
C256 C258 1.391 . S
C257 C256 1.386 . S
C257 C261 1.393 . S
C258 H250 0.950 . S
C258 C256 1.391 . S
C258 C259 1.400 . S
C259 C258 1.400 . S
C259 C260 1.398 . S
C259 C265 1.491 . S
C260 H251 0.950 . S
C260 C259 1.398 . S
C260 C261 1.391 . S
C261 H249 0.950 . S
C261 C257 1.393 . S
C261 C260 1.391 . S
C262 H252 0.950 . S
C262 C263 1.386 . S
C262 C264 1.391 . S
C263 C262 1.386 . S
C263 C267 1.393 . S
C264 H253 0.950 . S
C264 C262 1.391 . S
C264 C265 1.400 . S
C265 C259 1.491 . S
C265 C264 1.400 . S
C265 C266 1.398 . S
C266 H254 0.950 . S
C266 C265 1.398 . S
C266 C267 1.391 . S
C267 H255 0.950 . S
C267 C263 1.393 . S
C267 C266 1.391 . S
H268 C276 0.950 . S
H269 C281 0.950 . S
H270 C278 0.950 . S
H271 C280 0.950 . S
H272 C282 0.950 . S
H273 C284 0.950 . S
H274 C286 0.950 . S
H275 C287 0.950 . S
C276 H268 0.950 . S
C276 C277 1.386 . S
C276 C278 1.391 . S
C277 C276 1.386 . S
C277 C281 1.393 . S
C278 H270 0.950 . S
C278 C276 1.391 . S
C278 C279 1.400 . S
C279 C278 1.400 . S
C279 C280 1.398 . S
C279 C285 1.491 . S
C280 H271 0.950 . S
C280 C279 1.398 . S
C280 C281 1.391 . S
C281 H269 0.950 . S
C281 C277 1.393 . S
C281 C280 1.391 . S
C282 H272 0.950 . S
C282 C283 1.386 . S
C282 C284 1.391 . S
C283 C282 1.386 . S
C283 C287 1.393 . S
C284 H273 0.950 . S
C284 C282 1.391 . S
C284 C285 1.400 1_554 S
C285 C279 1.491 . S
C285 C284 1.400 1_556 S
C285 C286 1.398 . S
C286 H274 0.950 . S
C286 C285 1.398 . S
C286 C287 1.391 1_556 S
C287 H275 0.950 . S
C287 C283 1.393 . S
C287 C286 1.391 1_554 S
H288 C296 0.950 . S
H289 C301 0.950 . S
H290 C298 0.950 . S
H291 C300 0.950 . S
H292 C302 0.950 . S
H293 C304 0.950 . S
H294 C306 0.950 . S
H295 C307 0.950 . S
C296 H288 0.950 . S
C296 C297 1.386 . S
C296 C298 1.391 . S
C297 C296 1.386 . S
C297 C301 1.393 . S
C298 H290 0.950 . S
C298 C296 1.391 . S
C298 C299 1.400 . S
C299 C298 1.400 . S
C299 C300 1.398 . S
C299 C305 1.491 . S
C300 H291 0.950 . S
C300 C299 1.398 . S
C300 C301 1.391 . S
C301 H289 0.950 . S
C301 C297 1.393 . S
C301 C300 1.391 . S
C302 H292 0.950 . S
C302 C303 1.386 . S
C302 C304 1.391 . S
C303 C302 1.386 . S
C303 C307 1.393 . S
C304 H293 0.950 . S
C304 C302 1.391 . S
C304 C305 1.400 . S
C305 C299 1.491 . S
C305 C304 1.400 . S
C305 C306 1.398 . S
C306 H294 0.950 . S
C306 C305 1.398 . S
C306 C307 1.391 . S
C307 H295 0.950 . S
C307 C303 1.393 . S
C307 C306 1.391 . S
H308 C316 0.950 . S
H309 C321 0.950 . S
H310 C318 0.950 . S
H311 C320 0.950 . S
H312 C322 0.950 . S
H313 C324 0.950 . S
H314 C326 0.950 . S
H315 C327 0.950 . S
C316 H308 0.950 . S
C316 C317 1.386 . S
C316 C318 1.391 . S
C317 C316 1.386 . S
C317 C321 1.393 . S
C318 H310 0.950 . S
C318 C316 1.391 . S
C318 C319 1.400 1_554 S
C319 C318 1.400 1_556 S
C319 C320 1.398 . S
C319 C325 1.491 . S
C320 H311 0.950 . S
C320 C319 1.398 . S
C320 C321 1.391 1_556 S
C321 H309 0.950 . S
C321 C317 1.393 . S
C321 C320 1.391 1_554 S
C322 H312 0.950 . S
C322 C323 1.386 . S
C322 C324 1.391 . S
C323 C322 1.386 . S
C323 C327 1.393 . S
C324 H313 0.950 . S
C324 C322 1.391 . S
C324 C325 1.400 . S
C325 C319 1.491 . S
C325 C324 1.400 . S
C325 C326 1.398 . S
C326 H314 0.950 . S
C326 C325 1.398 . S
C326 C327 1.391 . S
C327 H315 0.950 . S
C327 C323 1.393 . S
C327 C326 1.391 . S
H328 C336 0.950 . S
H329 C341 0.950 . S
H330 C338 0.950 . S
H331 C340 0.950 . S
H332 C342 0.950 . S
H333 C344 0.950 . S
H334 C346 0.950 . S
H335 C347 0.950 . S
C336 H328 0.950 . S
C336 C337 1.386 . S
C336 C338 1.391 . S
C337 C336 1.386 . S
C337 C341 1.393 . S
C338 H330 0.950 . S
C338 C336 1.391 . S
C338 C339 1.400 . S
C339 C338 1.400 . S
C339 C340 1.398 . S
C339 C345 1.491 . S
C340 H331 0.950 . S
C340 C339 1.398 . S
C340 C341 1.391 . S
C341 H329 0.950 . S
C341 C337 1.393 . S
C341 C340 1.391 . S
C342 H332 0.950 . S
C342 C343 1.386 . S
C342 C344 1.391 . S
C343 C342 1.386 . S
C343 C347 1.393 . S
C344 H333 0.950 . S
C344 C342 1.391 . S
C344 C345 1.400 . S
C345 C339 1.491 . S
C345 C344 1.400 . S
C345 C346 1.398 . S
C346 H334 0.950 . S
C346 C345 1.398 . S
C346 C347 1.391 . S
C347 H335 0.950 . S
C347 C343 1.393 . S
C347 C346 1.391 . S
H348 C356 0.950 . S
H349 C361 0.950 . S
H350 C358 0.950 . S
H351 C360 0.950 . S
H352 C362 0.950 . S
H353 C364 0.950 1_554 S
H354 C366 0.950 . S
H355 C367 0.950 . S
C356 H348 0.950 . S
C356 C357 1.386 . S
C356 C358 1.391 . S
C357 C356 1.386 . S
C357 C361 1.393 . S
C358 H350 0.950 . S
C358 C356 1.391 . S
C358 C359 1.400 . S
C359 C358 1.400 . S
C359 C360 1.398 . S
C359 C365 1.491 . S
C360 H351 0.950 . S
C360 C359 1.398 . S
C360 C361 1.391 . S
C361 H349 0.950 . S
C361 C357 1.393 . S
C361 C360 1.391 . S
C362 H352 0.950 . S
C362 C363 1.386 . S
C362 C364 1.391 . S
C363 C362 1.386 . S
C363 C367 1.393 . S
C364 H353 0.950 1_556 S
C364 C362 1.391 . S
C364 C365 1.400 1_556 S
C365 C359 1.491 . S
C365 C364 1.400 1_554 S
C365 C366 1.398 1_554 S
C366 H354 0.950 . S
C366 C365 1.398 1_556 S
C366 C367 1.391 . S
C367 H355 0.950 . S
C367 C363 1.393 . S
C367 C366 1.391 . S
H368 C376 0.950 . S
H369 C381 0.950 . S
H370 C378 0.950 . S
H371 C380 0.950 . S
H372 C382 0.950 . S
H373 C384 0.950 . S
H374 C386 0.950 . S
H375 C387 0.950 . S
C376 H368 0.950 . S
C376 C377 1.386 . S
C376 C378 1.391 . S
C377 C376 1.386 . S
C377 C381 1.393 . S
C378 H370 0.950 . S
C378 C376 1.391 . S
C378 C379 1.400 . S
C379 C378 1.400 . S
C379 C380 1.398 . S
C379 C385 1.491 . S
C380 H371 0.950 . S
C380 C379 1.398 . S
C380 C381 1.391 . S
C381 H369 0.950 . S
C381 C377 1.393 . S
C381 C380 1.391 . S
C382 H372 0.950 . S
C382 C383 1.386 . S
C382 C384 1.391 . S
C383 C382 1.386 . S
C383 C387 1.393 . S
C384 H373 0.950 . S
C384 C382 1.391 . S
C384 C385 1.400 . S
C385 C379 1.491 . S
C385 C384 1.400 . S
C385 C386 1.398 . S
C386 H374 0.950 . S
C386 C385 1.398 . S
C386 C387 1.391 . S
C387 H375 0.950 . S
C387 C383 1.393 . S
C387 C386 1.391 . S
H388 C396 0.950 . S
H389 C401 0.950 . S
H390 C398 0.950 . S
H391 C400 0.950 . S
H392 C402 0.950 . S
H393 C404 0.950 . S
H394 C406 0.950 . S
H395 C407 0.950 . S
C396 H388 0.950 . S
C396 C397 1.386 . S
C396 C398 1.391 . S
C397 C396 1.386 . S
C397 C401 1.393 . S
C398 H390 0.950 . S
C398 C396 1.391 . S
C398 C399 1.400 . S
C399 C398 1.400 . S
C399 C400 1.398 . S
C399 C405 1.491 . S
C400 H391 0.950 . S
C400 C399 1.398 . S
C400 C401 1.391 . S
C401 H389 0.950 . S
C401 C397 1.393 . S
C401 C400 1.391 . S
C402 H392 0.950 . S
C402 C403 1.386 . S
C402 C404 1.391 1_556 S
C403 C402 1.386 . S
C403 C407 1.393 . S
C404 H393 0.950 . S
C404 C402 1.391 1_554 S
C404 C405 1.400 . S
C405 C399 1.491 . S
C405 C404 1.400 . S
C405 C406 1.398 1_554 S
C406 H394 0.950 . S
C406 C405 1.398 1_556 S
C406 C407 1.391 . S
C407 H395 0.950 . S
C407 C403 1.393 . S
C407 C406 1.391 . S
H408 C416 0.950 . S
H409 C421 0.950 . S
H410 C418 0.950 . S
H411 C420 0.950 . S
H412 C422 0.950 . S
H413 C424 0.950 . S
H414 C426 0.950 . S
H415 C427 0.950 . S
C416 H408 0.950 . S
C416 C417 1.386 . S
C416 C418 1.391 . S
C417 C416 1.386 . S
C417 C421 1.393 1_554 S
C418 H410 0.950 . S
C418 C416 1.391 . S
C418 C419 1.400 . S
C419 C418 1.400 . S
C419 C420 1.398 1_554 S
C419 C425 1.491 1_554 S
C420 H411 0.950 . S
C420 C419 1.398 1_556 S
C420 C421 1.391 . S
C421 H409 0.950 . S
C421 C417 1.393 1_556 S
C421 C420 1.391 . S
C422 H412 0.950 . S
C422 C423 1.386 . S
C422 C424 1.391 . S
C423 C422 1.386 . S
C423 C427 1.393 1_556 S
C424 H413 0.950 . S
C424 C422 1.391 . S
C424 C425 1.400 . S
C425 C419 1.491 1_556 S
C425 C424 1.400 . S
C425 C426 1.398 1_556 S
C426 H414 0.950 . S
C426 C425 1.398 1_554 S
C426 C427 1.391 . S
C427 H415 0.950 . S
C427 C423 1.393 1_554 S
C427 C426 1.391 . S
H428 C436 0.950 . S
H429 C441 0.950 . S
H430 C438 0.950 . S
H431 C440 0.950 . S
H432 C442 0.950 . S
H433 C444 0.950 . S
H434 C446 0.950 . S
H435 C447 0.950 . S
C436 H428 0.950 . S
C436 C437 1.386 1_565 S
C436 C438 1.391 . S
C437 C436 1.386 1_545 S
C437 C441 1.393 . S
C438 H430 0.950 . S
C438 C436 1.391 . S
C438 C439 1.400 1_565 S
C439 C438 1.400 1_545 S
C439 C440 1.398 . S
C439 C445 1.491 1_545 S
C440 H431 0.950 . S
C440 C439 1.398 . S
C440 C441 1.391 . S
C441 H429 0.950 . S
C441 C437 1.393 . S
C441 C440 1.391 . S
C442 H432 0.950 . S
C442 C443 1.386 1_545 S
C442 C444 1.391 . S
C443 C442 1.386 1_565 S
C443 C447 1.393 . S
C444 H433 0.950 . S
C444 C442 1.391 . S
C444 C445 1.400 1_545 S
C445 C439 1.491 1_565 S
C445 C444 1.400 1_565 S
C445 C446 1.398 . S
C446 H434 0.950 . S
C446 C445 1.398 . S
C446 C447 1.391 . S
C447 H435 0.950 . S
C447 C443 1.393 . S
C447 C446 1.391 . S
H448 C456 0.950 . S
H449 C461 0.953 . S
H450 C458 0.950 . S
H451 C460 0.950 . S
H452 C462 0.950 . S
H453 C464 0.950 . S
H454 C466 0.950 . S
H455 C467 0.953 . S
C456 H448 0.950 . S
C456 C457 1.386 . S
C456 C458 1.391 . S
C457 C456 1.386 . S
C457 C461 1.389 1_654 S
C458 H450 0.950 . S
C458 C456 1.391 . S
C458 C459 1.400 . S
C459 C458 1.400 . S
C459 C460 1.398 1_654 S
C459 C465 1.491 1_644 S
C460 H451 0.950 . S
C460 C459 1.398 1_456 S
C460 C461 1.392 . S
C461 H449 0.953 . S
C461 C457 1.389 1_456 S
C461 C460 1.392 . S
C462 H452 0.950 . S
C462 C463 1.386 . S
C462 C464 1.391 . S
C463 C462 1.386 . S
C463 C467 1.389 1_456 S
C464 H453 0.950 . S
C464 C462 1.391 . S
C464 C465 1.400 . S
C465 C459 1.491 1_466 S
C465 C464 1.400 . S
C465 C466 1.398 1_456 S
C466 H454 0.950 . S
C466 C465 1.398 1_654 S
C466 C467 1.392 . S
C467 H455 0.953 . S
C467 C463 1.389 1_654 S
C467 C466 1.392 . S
H468 C476 0.950 . S
H469 C481 0.950 . S
H470 C478 0.950 . S
H471 C480 0.950 . S
H472 C482 0.950 . S
H473 C484 0.950 . S
H474 C486 0.950 . S
H475 C487 0.950 . S
C476 H468 0.950 . S
C476 C477 1.386 . S
C476 C478 1.391 . S
C477 C476 1.386 . S
C477 C481 1.393 . S
C478 H470 0.950 . S
C478 C476 1.391 . S
C478 C479 1.400 . S
C479 C478 1.400 . S
C479 C480 1.398 . S
C479 C485 1.491 1_655 S
C480 H471 0.950 . S
C480 C479 1.398 . S
C480 C481 1.391 . S
C481 H469 0.950 . S
C481 C477 1.393 . S
C481 C480 1.391 . S
C482 H472 0.950 . S
C482 C483 1.386 . S
C482 C484 1.391 . S
C483 C482 1.386 . S
C483 C487 1.393 . S
C484 H473 0.950 . S
C484 C482 1.391 . S
C484 C485 1.400 . S
C485 C479 1.491 1_455 S
C485 C484 1.400 . S
C485 C486 1.398 . S
C486 H474 0.950 . S
C486 C485 1.398 . S
C486 C487 1.391 . S
C487 H475 0.950 . S
C487 C483 1.393 . S
C487 C486 1.391 . S
H488 C496 0.950 . S
H489 C501 0.950 . S
H490 C498 0.950 . S
H491 C500 0.950 . S
H492 C502 0.950 . S
H493 C504 0.950 . S
H494 C506 0.950 . S
H495 C507 0.950 . S
C496 H488 0.950 . S
C496 C497 1.386 . S
C496 C498 1.391 . S
C497 C496 1.386 . S
C497 C501 1.393 . S
C498 H490 0.950 . S
C498 C496 1.391 . S
C498 C499 1.400 . S
C499 C498 1.400 . S
C499 C500 1.398 . S
C499 C505 1.491 . S
C500 H491 0.950 . S
C500 C499 1.398 . S
C500 C501 1.391 . S
C501 H489 0.950 . S
C501 C497 1.393 . S
C501 C500 1.391 . S
C502 H492 0.950 . S
C502 C503 1.386 . S
C502 C504 1.391 . S
C503 C502 1.386 . S
C503 C507 1.393 . S
C504 H493 0.950 . S
C504 C502 1.391 . S
C504 C505 1.400 . S
C505 C499 1.491 . S
C505 C504 1.400 . S
C505 C506 1.398 . S
C506 H494 0.950 . S
C506 C505 1.398 . S
C506 C507 1.391 . S
C507 H495 0.950 . S
C507 C503 1.393 . S
C507 C506 1.391 . S
H508 C516 0.950 . S
H509 C521 0.950 . S
H510 C518 0.950 . S
H511 C520 0.950 . S
H512 C522 0.950 . S
H513 C524 0.950 . S
H514 C526 0.950 . S
H515 C527 0.950 . S
C516 H508 0.950 . S
C516 C517 1.386 . S
C516 C518 1.391 . S
C517 C516 1.386 . S
C517 C521 1.393 . S
C518 H510 0.950 . S
C518 C516 1.391 . S
C518 C519 1.400 . S
C519 C518 1.400 . S
C519 C520 1.398 . S
C519 C525 1.491 . S
C520 H511 0.950 . S
C520 C519 1.398 . S
C520 C521 1.391 . S
C521 H509 0.950 . S
C521 C517 1.393 . S
C521 C520 1.391 . S
C522 H512 0.950 . S
C522 C523 1.386 . S
C522 C524 1.391 . S
C523 C522 1.386 . S
C523 C527 1.393 . S
C524 H513 0.950 . S
C524 C522 1.391 . S
C524 C525 1.400 . S
C525 C519 1.491 . S
C525 C524 1.400 . S
C525 C526 1.398 . S
C526 H514 0.950 . S
C526 C525 1.398 . S
C526 C527 1.391 . S
C527 H515 0.950 . S
C527 C523 1.393 . S
C527 C526 1.391 . S
H528 C536 0.950 . S
H529 C541 0.950 . S
H530 C538 0.950 . S
H531 C540 0.950 . S
H532 C542 0.950 . S
H533 C544 0.950 . S
H534 C546 0.950 . S
H535 C547 0.950 . S
C536 H528 0.950 . S
C536 C537 1.386 . S
C536 C538 1.391 . S
C537 C536 1.386 . S
C537 C541 1.393 . S
C538 H530 0.950 . S
C538 C536 1.391 . S
C538 C539 1.400 . S
C539 C538 1.400 . S
C539 C540 1.398 . S
C539 C545 1.491 . S
C540 H531 0.950 . S
C540 C539 1.398 . S
C540 C541 1.391 . S
C541 H529 0.950 . S
C541 C537 1.393 . S
C541 C540 1.391 . S
C542 H532 0.950 . S
C542 C543 1.386 . S
C542 C544 1.391 . S
C543 C542 1.386 . S
C543 C547 1.393 . S
C544 H533 0.950 . S
C544 C542 1.391 . S
C544 C545 1.400 . S
C545 C539 1.491 . S
C545 C544 1.400 . S
C545 C546 1.398 . S
C546 H534 0.950 . S
C546 C545 1.398 . S
C546 C547 1.391 . S
C547 H535 0.950 . S
C547 C543 1.393 . S
C547 C546 1.391 . S
H548 C556 0.950 . S
H549 C561 0.950 . S
H550 C558 0.950 . S
H551 C560 0.950 . S
H552 C562 0.950 . S
H553 C564 0.950 . S
H554 C566 0.950 . S
H555 C567 0.950 . S
C556 H548 0.950 . S
C556 C557 1.386 . S
C556 C558 1.391 . S
C557 C556 1.386 . S
C557 C561 1.393 . S
C558 H550 0.950 . S
C558 C556 1.391 . S
C558 C559 1.400 . S
C559 C558 1.400 . S
C559 C560 1.398 . S
C559 C565 1.491 . S
C560 H551 0.950 . S
C560 C559 1.398 . S
C560 C561 1.391 . S
C561 H549 0.950 . S
C561 C557 1.393 . S
C561 C560 1.391 . S
C562 H552 0.950 . S
C562 C563 1.386 . S
C562 C564 1.391 . S
C563 C562 1.386 . S
C563 C567 1.393 . S
C564 H553 0.950 . S
C564 C562 1.391 . S
C564 C565 1.400 . S
C565 C559 1.491 . S
C565 C564 1.400 . S
C565 C566 1.398 . S
C566 H554 0.950 . S
C566 C565 1.398 . S
C566 C567 1.391 . S
C567 H555 0.950 . S
C567 C563 1.393 . S
C567 C566 1.391 . S
H568 C576 0.950 . S
H569 C581 0.950 . S
H570 C578 0.950 1_554 S
H571 C580 0.950 . S
H572 C582 0.950 . S
H573 C584 0.950 . S
H574 C586 0.950 . S
H575 C587 0.950 . S
C576 H568 0.950 . S
C576 C577 1.386 . S
C576 C578 1.391 1_554 S
C577 C576 1.386 . S
C577 C581 1.393 1_554 S
C578 H570 0.950 1_556 S
C578 C576 1.391 1_556 S
C578 C579 1.400 . S
C579 C578 1.400 . S
C579 C580 1.398 . S
C579 C585 1.491 . S
C580 H571 0.950 . S
C580 C579 1.398 . S
C580 C581 1.391 . S
C581 H569 0.950 . S
C581 C577 1.393 1_556 S
C581 C580 1.391 . S
C582 H572 0.950 . S
C582 C583 1.386 . S
C582 C584 1.391 . S
C583 C582 1.386 . S
C583 C587 1.393 . S
C584 H573 0.950 . S
C584 C582 1.391 . S
C584 C585 1.400 . S
C585 C579 1.491 . S
C585 C584 1.400 . S
C585 C586 1.398 . S
C586 H574 0.950 . S
C586 C585 1.398 . S
C586 C587 1.391 . S
C587 H575 0.950 . S
C587 C583 1.393 . S
C587 C586 1.391 . S
H588 C596 0.950 . S
H589 C601 0.950 . S
H590 C598 0.950 . S
H591 C600 0.950 . S
H592 C602 0.950 . S
H593 C604 0.950 . S
H594 C606 0.950 . S
H595 C607 0.950 . S
C596 H588 0.950 . S
C596 C597 1.386 . S
C596 C598 1.391 . S
C597 C596 1.386 . S
C597 C601 1.393 . S
C598 H590 0.950 . S
C598 C596 1.391 . S
C598 C599 1.400 . S
C599 C598 1.400 . S
C599 C600 1.398 . S
C599 C605 1.491 . S
C600 H591 0.950 . S
C600 C599 1.398 . S
C600 C601 1.391 . S
C601 H589 0.950 . S
C601 C597 1.393 . S
C601 C600 1.391 . S
C602 H592 0.950 . S
C602 C603 1.386 . S
C602 C604 1.391 . S
C603 C602 1.386 . S
C603 C607 1.393 . S
C604 H593 0.950 . S
C604 C602 1.391 . S
C604 C605 1.400 . S
C605 C599 1.491 . S
C605 C604 1.400 . S
C605 C606 1.398 . S
C606 H594 0.950 . S
C606 C605 1.398 . S
C606 C607 1.391 . S
C607 H595 0.950 . S
C607 C603 1.393 . S
C607 C606 1.391 . S
H608 C616 0.950 . S
H609 C621 0.950 . S
H610 C618 0.950 . S
H611 C620 0.950 . S
H612 C622 0.950 . S
H613 C624 0.945 1_554 S
H614 C626 0.950 . S
H615 C627 0.950 . S
C616 H608 0.950 . S
C616 C617 1.386 . S
C616 C618 1.391 . S
C617 C616 1.386 . S
C617 C621 1.393 . S
C618 H610 0.950 . S
C618 C616 1.391 . S
C618 C619 1.400 . S
C619 C618 1.400 . S
C619 C620 1.398 . S
C619 C625 1.491 . S
C620 H611 0.950 . S
C620 C619 1.398 . S
C620 C621 1.391 . S
C621 H609 0.950 . S
C621 C617 1.393 . S
C621 C620 1.391 . S
C622 H612 0.950 . S
C622 C623 1.386 . S
C622 C624 1.391 1_554 S
C623 C622 1.386 . S
C623 C627 1.393 1_554 S
C624 H613 0.945 1_556 S
C624 C622 1.391 1_556 S
C624 C625 1.400 . S
C625 C619 1.491 . S
C625 C624 1.400 . S
C625 C626 1.398 . S
C626 H614 0.950 . S
C626 C625 1.398 . S
C626 C627 1.391 . S
C627 H615 0.950 . S
C627 C623 1.393 1_556 S
C627 C626 1.391 . S
H628 C636 0.950 . S
H629 C641 0.950 . S
H630 C638 0.950 . S
H631 C640 0.950 . S
H632 C642 0.950 . S
H633 C644 0.950 . S
H634 C646 0.950 . S
H635 C647 0.950 . S
C636 H628 0.950 . S
C636 C637 1.386 . S
C636 C638 1.391 . S
C637 C636 1.386 . S
C637 C641 1.393 . S
C638 H630 0.950 . S
C638 C636 1.391 . S
C638 C639 1.400 . S
C639 C638 1.400 . S
C639 C640 1.398 . S
C639 C645 1.491 . S
C640 H631 0.950 . S
C640 C639 1.398 . S
C640 C641 1.391 . S
C641 H629 0.950 . S
C641 C637 1.393 . S
C641 C640 1.391 . S
C642 H632 0.950 . S
C642 C643 1.386 . S
C642 C644 1.391 . S
C643 C642 1.386 . S
C643 C647 1.393 . S
C644 H633 0.950 . S
C644 C642 1.391 . S
C644 C645 1.400 . S
C645 C639 1.491 . S
C645 C644 1.400 . S
C645 C646 1.398 . S
C646 H634 0.950 . S
C646 C645 1.398 . S
C646 C647 1.391 . S
C647 H635 0.950 . S
C647 C643 1.393 . S
C647 C646 1.391 . S
H648 C656 0.950 . S
H649 C661 0.950 . S
H650 C658 0.950 . S
H651 C660 0.950 . S
H652 C662 0.950 . S
H653 C664 0.950 . S
H654 C666 0.950 . S
H655 C667 0.950 . S
C656 H648 0.950 . S
C656 C657 1.386 1_554 S
C656 C658 1.391 . S
C657 C656 1.386 1_556 S
C657 C661 1.393 . S
C658 H650 0.950 . S
C658 C656 1.391 . S
C658 C659 1.400 . S
C659 C658 1.400 . S
C659 C660 1.398 . S
C659 C665 1.491 . S
C660 H651 0.950 . S
C660 C659 1.398 . S
C660 C661 1.391 1_554 S
C661 H649 0.950 . S
C661 C657 1.393 . S
C661 C660 1.391 1_556 S
C662 H652 0.950 . S
C662 C663 1.386 . S
C662 C664 1.391 . S
C663 C662 1.386 . S
C663 C667 1.393 . S
C664 H653 0.950 . S
C664 C662 1.391 . S
C664 C665 1.400 . S
C665 C659 1.491 . S
C665 C664 1.400 . S
C665 C666 1.398 . S
C666 H654 0.950 . S
C666 C665 1.398 . S
C666 C667 1.391 . S
C667 H655 0.950 . S
C667 C663 1.393 . S
C667 C666 1.391 . S
H668 C676 0.950 . S
H669 C681 0.950 . S
H670 C678 0.950 . S
H671 C680 0.950 . S
H672 C682 0.950 . S
H673 C684 0.950 . S
H674 C686 0.950 . S
H675 C687 0.950 . S
C676 H668 0.950 . S
C676 C677 1.386 . S
C676 C678 1.391 . S
C677 C676 1.386 . S
C677 C681 1.393 . S
C678 H670 0.950 . S
C678 C676 1.391 . S
C678 C679 1.400 . S
C679 C678 1.400 . S
C679 C680 1.398 . S
C679 C685 1.491 . S
C680 H671 0.950 . S
C680 C679 1.398 . S
C680 C681 1.391 . S
C681 H669 0.950 . S
C681 C677 1.393 . S
C681 C680 1.391 . S
C682 H672 0.950 . S
C682 C683 1.386 . S
C682 C684 1.391 . S
C683 C682 1.386 . S
C683 C687 1.393 . S
C684 H673 0.950 . S
C684 C682 1.391 . S
C684 C685 1.400 . S
C685 C679 1.491 . S
C685 C684 1.400 . S
C685 C686 1.398 . S
C686 H674 0.950 . S
C686 C685 1.398 . S
C686 C687 1.391 . S
C687 H675 0.950 . S
C687 C683 1.393 . S
C687 C686 1.391 . S
H688 C696 0.950 . S
H689 C701 0.950 . S
H690 C698 0.950 . S
H691 C700 0.950 . S
H692 C702 0.950 1_556 S
H693 C704 0.950 . S
H694 C706 0.950 . S
H695 C707 0.950 . S
C696 H688 0.950 . S
C696 C697 1.386 . S
C696 C698 1.391 . S
C697 C696 1.386 . S
C697 C701 1.393 . S
C698 H690 0.950 . S
C698 C696 1.391 . S
C698 C699 1.400 . S
C699 C698 1.400 . S
C699 C700 1.398 . S
C699 C705 1.491 . S
C700 H691 0.950 . S
C700 C699 1.398 . S
C700 C701 1.391 . S
C701 H689 0.950 . S
C701 C697 1.393 . S
C701 C700 1.391 . S
C702 H692 0.950 1_554 S
C702 C703 1.386 1_554 S
C702 C704 1.391 . S
C703 C702 1.386 1_556 S
C703 C707 1.393 1_556 S
C704 H693 0.950 . S
C704 C702 1.391 . S
C704 C705 1.400 . S
C705 C699 1.491 . S
C705 C704 1.400 . S
C705 C706 1.398 . S
C706 H694 0.950 . S
C706 C705 1.398 . S
C706 C707 1.391 . S
C707 H695 0.950 . S
C707 C703 1.393 1_554 S
C707 C706 1.391 . S
H708 C716 0.950 . S
H709 C721 0.950 . S
H710 C718 0.950 . S
H711 C720 0.950 . S
H712 C722 0.950 . S
H713 C724 0.950 . S
H714 C726 0.950 . S
H715 C727 0.950 . S
C716 H708 0.950 . S
C716 C717 1.386 . S
C716 C718 1.391 . S
C717 C716 1.386 . S
C717 C721 1.393 . S
C718 H710 0.950 . S
C718 C716 1.391 . S
C718 C719 1.400 . S
C719 C718 1.400 . S
C719 C720 1.398 . S
C719 C725 1.491 . S
C720 H711 0.950 . S
C720 C719 1.398 . S
C720 C721 1.391 . S
C721 H709 0.950 . S
C721 C717 1.393 . S
C721 C720 1.391 . S
C722 H712 0.950 . S
C722 C723 1.386 . S
C722 C724 1.391 . S
C723 C722 1.386 . S
C723 C727 1.393 . S
C724 H713 0.950 . S
C724 C722 1.391 . S
C724 C725 1.400 . S
C725 C719 1.491 . S
C725 C724 1.400 . S
C725 C726 1.398 . S
C726 H714 0.950 . S
C726 C725 1.398 . S
C726 C727 1.391 . S
C727 H715 0.950 . S
C727 C723 1.393 . S
C727 C726 1.391 . S
H728 C736 0.950 . S
H729 C741 0.950 . S
H730 C738 0.950 . S
H731 C740 0.950 . S
H732 C742 0.950 . S
H733 C744 0.950 . S
H734 C746 0.950 . S
H735 C747 0.950 . S
C736 H728 0.950 . S
C736 C737 1.386 . S
C736 C738 1.391 . S
C737 C736 1.386 . S
C737 C741 1.393 . S
C738 H730 0.950 . S
C738 C736 1.391 . S
C738 C739 1.400 . S
C739 C738 1.400 . S
C739 C740 1.398 . S
C739 C745 1.491 . S
C740 H731 0.950 . S
C740 C739 1.398 . S
C740 C741 1.391 . S
C741 H729 0.950 . S
C741 C737 1.393 . S
C741 C740 1.391 . S
C742 H732 0.950 . S
C742 C743 1.386 . S
C742 C744 1.391 . S
C743 C742 1.386 . S
C743 C747 1.393 . S
C744 H733 0.950 . S
C744 C742 1.391 . S
C744 C745 1.400 . S
C745 C739 1.491 . S
C745 C744 1.400 . S
C745 C746 1.398 . S
C746 H734 0.950 . S
C746 C745 1.398 . S
C746 C747 1.391 . S
C747 H735 0.950 . S
C747 C743 1.393 . S
C747 C746 1.391 . S
H748 C756 0.950 . S
H749 C761 0.950 1_545 S
H750 C758 0.950 . S
H751 C760 0.950 . S
H752 C762 0.950 . S
H753 C764 0.950 . S
H754 C766 0.950 . S
H755 C767 0.950 . S
C756 H748 0.950 . S
C756 C757 1.386 . S
C756 C758 1.391 . S
C757 C756 1.386 . S
C757 C761 1.393 . S
C758 H750 0.950 . S
C758 C756 1.391 . S
C758 C759 1.400 . S
C759 C758 1.400 . S
C759 C760 1.398 . S
C759 C765 1.491 . S
C760 H751 0.950 . S
C760 C759 1.398 . S
C760 C761 1.391 . S
C761 H749 0.950 1_565 S
C761 C757 1.393 . S
C761 C760 1.391 . S
C762 H752 0.950 . S
C762 C763 1.386 . S
C762 C764 1.391 . S
C763 C762 1.386 . S
C763 C767 1.393 . S
C764 H753 0.950 . S
C764 C762 1.391 . S
C764 C765 1.400 . S
C765 C759 1.491 . S
C765 C764 1.400 . S
C765 C766 1.398 . S
C766 H754 0.950 . S
C766 C765 1.398 . S
C766 C767 1.391 . S
C767 H755 0.950 . S
C767 C763 1.393 . S
C767 C766 1.391 . S
H768 C776 0.950 . S
H769 C781 0.950 . S
H770 C778 0.950 . S
H771 C780 0.950 . S
H772 C782 0.950 . S
H773 C784 0.950 . S
H774 C786 0.950 . S
H775 C787 0.950 1_655 S
C776 H768 0.950 . S
C776 C777 1.386 . S
C776 C778 1.391 . S
C777 C776 1.386 . S
C777 C781 1.393 . S
C778 H770 0.950 . S
C778 C776 1.391 . S
C778 C779 1.400 . S
C779 C778 1.400 . S
C779 C780 1.398 . S
C779 C785 1.491 . S
C780 H771 0.950 . S
C780 C779 1.398 . S
C780 C781 1.391 . S
C781 H769 0.950 . S
C781 C777 1.393 . S
C781 C780 1.391 . S
C782 H772 0.950 . S
C782 C783 1.386 . S
C782 C784 1.391 . S
C783 C782 1.386 . S
C783 C787 1.393 . S
C784 H773 0.950 . S
C784 C782 1.391 . S
C784 C785 1.400 . S
C785 C779 1.491 . S
C785 C784 1.400 . S
C785 C786 1.398 . S
C786 H774 0.950 . S
C786 C785 1.398 . S
C786 C787 1.391 . S
C787 H775 0.950 1_455 S
C787 C783 1.393 . S
C787 C786 1.391 . S
H788 C796 0.950 . S
H789 C801 0.950 . S
H790 C798 0.950 . S
H791 C800 0.950 . S
H792 C802 0.950 . S
H793 C804 0.950 . S
H794 C806 0.950 . S
H795 C807 0.950 . S
C796 H788 0.950 . S
C796 C797 1.386 . S
C796 C798 1.391 . S
C797 C796 1.386 . S
C797 C801 1.393 . S
C798 H790 0.950 . S
C798 C796 1.391 . S
C798 C799 1.400 . S
C799 C798 1.400 . S
C799 C800 1.398 . S
C799 C805 1.491 . S
C800 H791 0.950 . S
C800 C799 1.398 . S
C800 C801 1.391 . S
C801 H789 0.950 . S
C801 C797 1.393 . S
C801 C800 1.391 . S
C802 H792 0.950 . S
C802 C803 1.386 . S
C802 C804 1.391 . S
C803 C802 1.386 . S
C803 C807 1.393 . S
C804 H793 0.950 . S
C804 C802 1.391 . S
C804 C805 1.400 . S
C805 C799 1.491 . S
C805 C804 1.400 . S
C805 C806 1.398 . S
C806 H794 0.950 . S
C806 C805 1.398 . S
C806 C807 1.391 . S
C807 H795 0.950 . S
C807 C803 1.393 . S
C807 C806 1.391 . S
H808 C816 0.950 . S
H809 C821 0.950 . S
H810 C818 0.950 . S
H811 C820 0.950 . S
H812 C822 0.950 . S
H813 C824 0.950 . S
H814 C826 0.950 . S
H815 C827 0.950 . S
C816 H808 0.950 . S
C816 C817 1.386 . S
C816 C818 1.391 . S
C817 C816 1.386 . S
C817 C821 1.393 . S
C818 H810 0.950 . S
C818 C816 1.391 . S
C818 C819 1.400 . S
C819 C818 1.400 . S
C819 C820 1.398 . S
C819 C825 1.491 . S
C820 H811 0.950 . S
C820 C819 1.398 . S
C820 C821 1.391 . S
C821 H809 0.950 . S
C821 C817 1.393 . S
C821 C820 1.391 . S
C822 H812 0.950 . S
C822 C823 1.386 . S
C822 C824 1.391 . S
C823 C822 1.386 . S
C823 C827 1.393 . S
C824 H813 0.950 . S
C824 C822 1.391 . S
C824 C825 1.400 . S
C825 C819 1.491 . S
C825 C824 1.400 . S
C825 C826 1.398 . S
C826 H814 0.950 . S
C826 C825 1.398 . S
C826 C827 1.391 . S
C827 H815 0.950 . S
C827 C823 1.393 . S
C827 C826 1.391 . S
H828 C836 0.950 . S
H829 C841 0.950 . S
H830 C838 0.950 . S
H831 C840 0.950 . S
H832 C842 0.950 . S
H833 C844 0.950 . S
H834 C846 0.950 . S
H835 C847 0.950 . S
C836 H828 0.950 . S
C836 C837 1.386 . S
C836 C838 1.391 . S
C837 C836 1.386 . S
C837 C841 1.393 . S
C838 H830 0.950 . S
C838 C836 1.391 . S
C838 C839 1.400 . S
C839 C838 1.400 . S
C839 C840 1.398 . S
C839 C845 1.491 . S
C840 H831 0.950 . S
C840 C839 1.398 . S
C840 C841 1.391 . S
C841 H829 0.950 . S
C841 C837 1.393 . S
C841 C840 1.391 . S
C842 H832 0.950 . S
C842 C843 1.386 . S
C842 C844 1.391 . S
C843 C842 1.386 . S
C843 C847 1.393 . S
C844 H833 0.950 . S
C844 C842 1.391 . S
C844 C845 1.400 . S
C845 C839 1.491 . S
C845 C844 1.400 . S
C845 C846 1.398 . S
C846 H834 0.950 . S
C846 C845 1.398 . S
C846 C847 1.391 . S
C847 H835 0.950 . S
C847 C843 1.393 . S
C847 C846 1.391 . S
H848 C856 0.950 1_455 S
H849 C861 0.950 . S
H850 C858 0.950 . S
H851 C860 0.950 . S
H852 C862 0.950 . S
H853 C864 0.950 . S
H854 C866 0.950 . S
H855 C867 0.950 . S
C856 H848 0.950 1_655 S
C856 C857 1.386 . S
C856 C858 1.391 . S
C857 C856 1.386 . S
C857 C861 1.393 . S
C858 H850 0.950 . S
C858 C856 1.391 . S
C858 C859 1.400 . S
C859 C858 1.400 . S
C859 C860 1.398 . S
C859 C865 1.491 . S
C860 H851 0.950 . S
C860 C859 1.398 . S
C860 C861 1.391 . S
C861 H849 0.950 . S
C861 C857 1.393 . S
C861 C860 1.391 . S
C862 H852 0.950 . S
C862 C863 1.386 . S
C862 C864 1.391 . S
C863 C862 1.386 . S
C863 C867 1.393 . S
C864 H853 0.950 . S
C864 C862 1.391 . S
C864 C865 1.400 . S
C865 C859 1.491 . S
C865 C864 1.400 . S
C865 C866 1.398 . S
C866 H854 0.950 . S
C866 C865 1.398 . S
C866 C867 1.391 . S
C867 H855 0.950 . S
C867 C863 1.393 . S
C867 C866 1.391 . S
H868 C876 0.950 . S
H869 C881 0.950 . S
H870 C878 0.950 . S
H871 C880 0.950 . S
H872 C882 0.950 . S
H873 C884 0.950 . S
H874 C886 0.950 . S
H875 C887 0.950 . S
C876 H868 0.950 . S
C876 C877 1.386 . S
C876 C878 1.391 . S
C877 C876 1.386 . S
C877 C881 1.393 . S
C878 H870 0.950 . S
C878 C876 1.391 . S
C878 C879 1.400 . S
C879 C878 1.400 . S
C879 C880 1.398 . S
C879 C885 1.491 . S
C880 H871 0.950 . S
C880 C879 1.398 . S
C880 C881 1.391 . S
C881 H869 0.950 . S
C881 C877 1.393 . S
C881 C880 1.391 . S
C882 H872 0.950 . S
C882 C883 1.386 . S
C882 C884 1.391 . S
C883 C882 1.386 . S
C883 C887 1.393 . S
C884 H873 0.950 . S
C884 C882 1.391 . S
C884 C885 1.400 . S
C885 C879 1.491 . S
C885 C884 1.400 . S
C885 C886 1.398 . S
C886 H874 0.950 . S
C886 C885 1.398 . S
C886 C887 1.391 . S
C887 H875 0.950 . S
C887 C883 1.393 . S
C887 C886 1.391 . S
C257 C24 1.337 . S
C263 C49 1.300 . S
C277 C55 1.324 . S
C283 C80 1.297 . S
C297 C86 1.335 . S
C303 C111 1.297 . S
C317 C18 1.306 . S
C323 C117 1.341 . S
C337 C124 1.339 . S
C343 C166 1.323 . S
C357 C155 1.327 . S
C363 C197 1.294 . S
C377 C186 1.325 . S
C383 C228 1.295 . S
C397 C217 1.324 . S
C403 C135 1.312 . S
C417 C0 1.343 . S
C423 C148 1.343 . S
C437 C31 1.307 . S
C443 C179 1.307 . S
C457 C62 1.334 . S
C463 C210 1.334 . S
C477 C93 1.340 . S
C483 C241 1.340 . S
C497 C27 0.557 . S
C503 C89 0.497 . S
C517 C120 0.587 . S
C523 C58 0.522 . S
C537 C125 0.587 . S
C543 C187 0.522 . S
C557 C156 0.544 . S
C563 C218 0.578 . S
C577 C10 2.434 . S
C583 C33 2.127 . S
C597 C41 2.437 . S
C603 C64 2.147 . S
C617 C95 2.152 . S
C623 C72 2.438 . S
C637 C103 2.434 . S
C643 C2 2.126 . S
C657 C126 2.436 . S
C663 C165 2.134 . S
C677 C196 2.123 . S
C683 C157 2.432 . S
C697 C227 2.148 . S
C703 C188 2.438 . S
C717 C134 2.146 . S
C723 C219 2.438 . S
C737 C11 1.516 . S
C743 C182 1.563 . S
C757 C42 1.501 1_565 S
C763 C213 1.547 . S
C777 C244 1.564 . S
C783 C73 1.521 1_455 S
C797 C151 1.535 . S
C803 C104 1.515 . S
C817 C32 1.537 . S
C823 C142 1.507 . S
C837 C173 1.502 1_545 S
C843 C63 1.552 . S
C857 C204 1.501 1_655 S
C863 C94 1.547 . S
C877 C1 1.552 . S
C883 C235 1.502 . S
