# Generated by pormake.
# Topology umg, (4)-cn, num edge types: 1
# Building blocks:
#     Node 0, Type 0, BuildingBlock: CEKHIL_clean_sbu_0, # of connection points: 4
#     Node 1, Type 0, BuildingBlock: CEKHIL_clean_sbu_0, # of connection points: 4
#     Node 2, Type 0, BuildingBlock: CEKHIL_clean_sbu_0, # of connection points: 4
#     Node 3, Type 0, BuildingBlock: CEKHIL_clean_sbu_0, # of connection points: 4
#     Node 4, Type 0, BuildingBlock: CEKHIL_clean_sbu_0, # of connection points: 4
#     Node 5, Type 0, BuildingBlock: CEKHIL_clean_sbu_0, # of connection points: 4
#     Node 6, Type 0, BuildingBlock: CEKHIL_clean_sbu_0, # of connection points: 4
#     Node 7, Type 0, BuildingBlock: CEKHIL_clean_sbu_0, # of connection points: 4
#     Node 8, Type 0, BuildingBlock: CEKHIL_clean_sbu_0, # of connection points: 4
#     Node 9, Type 0, BuildingBlock: CEKHIL_clean_sbu_0, # of connection points: 4
#     Node 10, Type 0, BuildingBlock: CEKHIL_clean_sbu_0, # of connection points: 4
#     Node 11, Type 0, BuildingBlock: CEKHIL_clean_sbu_0, # of connection points: 4
#     Edge 12, Type (0, 0), BuildingBlock: UVAHIK_clean_linker_0, # of connection points: 2
#     Edge 13, Type (0, 0), BuildingBlock: UVAHIK_clean_linker_0, # of connection points: 2
#     Edge 14, Type (0, 0), BuildingBlock: UVAHIK_clean_linker_0, # of connection points: 2
#     Edge 15, Type (0, 0), BuildingBlock: UVAHIK_clean_linker_0, # of connection points: 2
#     Edge 16, Type (0, 0), BuildingBlock: UVAHIK_clean_linker_0, # of connection points: 2
#     Edge 17, Type (0, 0), BuildingBlock: UVAHIK_clean_linker_0, # of connection points: 2
#     Edge 18, Type (0, 0), BuildingBlock: UVAHIK_clean_linker_0, # of connection points: 2
#     Edge 19, Type (0, 0), BuildingBlock: UVAHIK_clean_linker_0, # of connection points: 2
#     Edge 20, Type (0, 0), BuildingBlock: UVAHIK_clean_linker_0, # of connection points: 2
#     Edge 21, Type (0, 0), BuildingBlock: UVAHIK_clean_linker_0, # of connection points: 2
#     Edge 22, Type (0, 0), BuildingBlock: UVAHIK_clean_linker_0, # of connection points: 2
#     Edge 23, Type (0, 0), BuildingBlock: UVAHIK_clean_linker_0, # of connection points: 2
#     Edge 24, Type (0, 0), BuildingBlock: UVAHIK_clean_linker_0, # of connection points: 2
#     Edge 25, Type (0, 0), BuildingBlock: UVAHIK_clean_linker_0, # of connection points: 2
#     Edge 26, Type (0, 0), BuildingBlock: UVAHIK_clean_linker_0, # of connection points: 2
#     Edge 27, Type (0, 0), BuildingBlock: UVAHIK_clean_linker_0, # of connection points: 2
#     Edge 28, Type (0, 0), BuildingBlock: UVAHIK_clean_linker_0, # of connection points: 2
#     Edge 29, Type (0, 0), BuildingBlock: UVAHIK_clean_linker_0, # of connection points: 2
#     Edge 30, Type (0, 0), BuildingBlock: UVAHIK_clean_linker_0, # of connection points: 2
#     Edge 31, Type (0, 0), BuildingBlock: UVAHIK_clean_linker_0, # of connection points: 2
#     Edge 32, Type (0, 0), BuildingBlock: UVAHIK_clean_linker_0, # of connection points: 2
#     Edge 33, Type (0, 0), BuildingBlock: UVAHIK_clean_linker_0, # of connection points: 2
#     Edge 34, Type (0, 0), BuildingBlock: UVAHIK_clean_linker_0, # of connection points: 2
#     Edge 35, Type (0, 0), BuildingBlock: UVAHIK_clean_linker_0, # of connection points: 2
# Relax obj value: 0.087
# Max RMSD: 0.199
# Mean RMSD: 0.198
data_MOF--net-umg--node1-CEKHIL_clean_sbu_0--edge1-UVAHIK_clean_linker_0
_symmetry_space_group_name_H-M    P1
_symmetry_Int_Tables_number       1
_symmetry_cell_setting            triclinic
loop_
_symmetry_equiv_pos_as_xyz
'x, y, z'
_cell_length_a     36.265871
_cell_length_b     36.267549
_cell_length_c     109.21364
_cell_angle_alpha  90.029204
_cell_angle_beta   89.980112
_cell_angle_gamma 120.01803
loop_
_atom_site_label
_atom_site_type_symbol
_atom_site_fract_x
_atom_site_fract_y
_atom_site_fract_z
_atom_type_partial_charge
Co0 Co 0.31795 0.61204 0.07269 0.0
O1 O 0.37356 0.61831 0.07346 0.0
O2 O 0.31891 0.56597 0.06373 0.0
C3 C 0.31291 0.62305 0.09273 0.0
O4 O 0.25544 0.59589 0.07049 0.0
Co5 Co 0.31069 0.69169 0.07869 0.0
O6 O 0.24886 0.65123 0.07716 0.0
C7 C 0.34483 0.68644 0.05486 0.0
C8 C 0.35893 0.58421 0.06685 0.0
C9 C 0.2329 0.61349 0.07296 0.0
O10 O 0.33513 0.64804 0.05744 0.0
O11 O 0.34047 0.71082 0.06248 0.0
O12 O 0.30371 0.58563 0.08878 0.0
O13 O 0.32922 0.65334 0.08472 0.0
Co14 Co 0.71447 0.31523 0.40597 0.0
O15 O 0.76397 0.37091 0.40575 0.0
O16 O 0.75973 0.31456 0.39654 0.0
C17 C 0.70226 0.31363 0.42621 0.0
O18 O 0.6678 0.25238 0.40474 0.0
Co19 Co 0.62835 0.30813 0.41302 0.0
O20 O 0.60854 0.24643 0.41329 0.0
C21 C 0.66308 0.33824 0.38846 0.0
C22 C 0.78226 0.35498 0.39915 0.0
C23 C 0.62894 0.22986 0.40852 0.0
O24 O 0.69281 0.32983 0.39085 0.0
O25 O 0.63524 0.33433 0.39636 0.0
O26 O 0.72987 0.30399 0.42201 0.0
O27 O 0.68642 0.32819 0.41822 0.0
Co28 Co 0.39766 0.70846 0.73985 0.0
O29 O 0.39098 0.75758 0.74044 0.0
O30 O 0.44357 0.75541 0.73083 0.0
C31 C 0.38664 0.69291 0.75992 0.0
O32 O 0.41424 0.66235 0.73781 0.0
Co33 Co 0.31835 0.62132 0.74599 0.0
O34 O 0.35912 0.60035 0.74452 0.0
C35 C 0.32373 0.65942 0.72195 0.0
C36 C 0.42509 0.77706 0.73384 0.0
C37 C 0.39683 0.62226 0.74032 0.0
O38 O 0.36178 0.68887 0.72458 0.0
O39 O 0.29951 0.63065 0.72957 0.0
O40 O 0.42399 0.72126 0.75596 0.0
O41 O 0.35637 0.6785 0.7519 0.0
Co42 Co 0.6885 0.39865 0.07414 0.0
O43 O 0.63202 0.39045 0.07341 0.0
O44 O 0.68876 0.44523 0.06522 0.0
C45 C 0.68756 0.38479 0.09422 0.0
O46 O 0.75212 0.41722 0.07356 0.0
Co47 Co 0.69789 0.32018 0.08044 0.0
O48 O 0.75894 0.36372 0.08158 0.0
C49 C 0.67073 0.32791 0.05572 0.0
C50 C 0.64794 0.42581 0.06735 0.0
C51 C 0.77511 0.40142 0.07734 0.0
O52 O 0.67756 0.36524 0.05853 0.0
O53 O 0.67426 0.30322 0.06341 0.0
O54 O 0.69607 0.42227 0.09055 0.0
O55 O 0.67538 0.35589 0.08581 0.0
Co56 Co 0.29765 0.68693 0.40732 0.0
O57 O 0.24838 0.6314 0.40857 0.0
O58 O 0.25005 0.68516 0.39849 0.0
C59 C 0.31562 0.69418 0.42722 0.0
O60 O 0.34381 0.74921 0.40457 0.0
Co61 Co 0.38497 0.6945 0.41271 0.0
O62 O 0.40608 0.75623 0.41104 0.0
C63 C 0.34393 0.65922 0.38919 0.0
C64 C 0.22855 0.64537 0.40186 0.0
C65 C 0.38408 0.77194 0.40684 0.0
O66 O 0.31516 0.66845 0.39209 0.0
O67 O 0.37385 0.66461 0.39648 0.0
O68 O 0.28686 0.70273 0.42335 0.0
O69 O 0.32881 0.67688 0.41927 0.0
Co70 Co 0.6105 0.29183 0.73999 0.0
O71 O 0.61859 0.2435 0.73913 0.0
O72 O 0.56405 0.24582 0.73091 0.0
C73 C 0.62384 0.30398 0.76012 0.0
O74 O 0.5921 0.33701 0.73954 0.0
Co75 Co 0.68895 0.37936 0.74662 0.0
O76 O 0.6454 0.3968 0.74788 0.0
C77 C 0.68169 0.34556 0.72176 0.0
C78 C 0.58334 0.22428 0.73301 0.0
C79 C 0.60785 0.37559 0.74352 0.0
O80 O 0.64433 0.31485 0.72446 0.0
O81 O 0.70618 0.37349 0.72955 0.0
O82 O 0.58644 0.27521 0.75634 0.0
O83 O 0.65296 0.32095 0.75179 0.0
Co84 Co 0.40331 0.6966 0.5764 0.0
O85 O 0.39755 0.64113 0.57599 0.0
O86 O 0.4489 0.69637 0.58579 0.0
C87 C 0.39363 0.70088 0.55622 0.0
O88 O 0.41897 0.75909 0.57831 0.0
Co89 Co 0.32392 0.70335 0.56956 0.0
O90 O 0.36429 0.76524 0.57085 0.0
C91 C 0.32811 0.67136 0.59386 0.0
C92 C 0.43131 0.6563 0.58276 0.0
C93 C 0.40158 0.78146 0.5754 0.0
O94 O 0.36631 0.67994 0.59145 0.0
O95 O 0.30432 0.67576 0.58604 0.0
O96 O 0.43081 0.71038 0.56045 0.0
O97 O 0.36279 0.68473 0.56408 0.0
Co98 Co 0.7201 0.40135 0.90923 0.0
O99 O 0.76736 0.39154 0.9093 0.0
O100 O 0.76747 0.44611 0.9184 0.0
C101 C 0.70614 0.39011 0.8891 0.0
O102 O 0.67619 0.42117 0.91064 0.0
Co103 Co 0.63127 0.32433 0.90277 0.0
O104 O 0.61305 0.36724 0.90408 0.0
C105 C 0.66699 0.32878 0.92715 0.0
C106 C 0.78771 0.42585 0.91579 0.0
C107 C 0.63621 0.40501 0.90812 0.0
O108 O 0.69764 0.36627 0.92456 0.0
O109 O 0.63841 0.30507 0.9194 0.0
O110 O 0.7359 0.42684 0.89302 0.0
O111 O 0.6893 0.36026 0.89723 0.0
Co112 Co 0.32501 0.71419 0.2421 0.0
O113 O 0.3799 0.76469 0.24233 0.0
O114 O 0.32281 0.75859 0.25158 0.0
C115 C 0.32314 0.70163 0.22192 0.0
O116 O 0.2628 0.66614 0.24331 0.0
Co117 Co 0.32128 0.62958 0.23527 0.0
O118 O 0.25929 0.60833 0.23449 0.0
C119 C 0.34853 0.66382 0.25996 0.0
C120 C 0.36319 0.78202 0.24901 0.0
C121 C 0.24143 0.62751 0.23928 0.0
O122 O 0.34035 0.69346 0.25726 0.0
O123 O 0.34528 0.63579 0.25224 0.0
O124 O 0.31264 0.72863 0.22611 0.0
O125 O 0.33922 0.68708 0.22985 0.0
Co126 Co 0.61387 0.3253 0.57506 0.0
O127 O 0.62151 0.38152 0.57537 0.0
O128 O 0.56791 0.32554 0.58427 0.0
C129 C 0.62562 0.32392 0.55489 0.0
O130 O 0.59645 0.26208 0.57615 0.0
Co131 Co 0.69279 0.31722 0.56847 0.0
O132 O 0.64998 0.25581 0.56787 0.0
C133 C 0.68653 0.34593 0.59308 0.0
C134 C 0.58703 0.36615 0.58183 0.0
C135 C 0.61267 0.23939 0.57243 0.0
O136 O 0.64891 0.33851 0.59041 0.0
O137 O 0.71087 0.342 0.58535 0.0
O138 O 0.58837 0.31517 0.55887 0.0
O139 O 0.65547 0.33779 0.56305 0.0
Co140 Co 0.30063 0.61112 0.90951 0.0
O141 O 0.2504 0.61596 0.91004 0.0
O142 O 0.25655 0.5649 0.91919 0.0
C143 C 0.3115 0.62121 0.88923 0.0
O144 O 0.34842 0.59646 0.91042 0.0
Co145 Co 0.38525 0.69106 0.90193 0.0
O146 O 0.40568 0.64972 0.90107 0.0
C147 C 0.35301 0.68592 0.92688 0.0
C148 C 0.23317 0.58196 0.91673 0.0
C149 C 0.38664 0.61307 0.90609 0.0
O150 O 0.32281 0.64792 0.92455 0.0
O151 O 0.3803 0.70983 0.91887 0.0
O152 O 0.28481 0.58383 0.89356 0.0
O153 O 0.327 0.65195 0.89712 0.0
Co154 Co 0.69627 0.29396 0.24333 0.0
O155 O 0.63917 0.24671 0.24344 0.0
O156 O 0.69357 0.24703 0.25273 0.0
C157 C 0.69921 0.30701 0.22315 0.0
O158 O 0.75998 0.33786 0.24474 0.0
Co159 Co 0.70836 0.38253 0.23644 0.0
O160 O 0.76948 0.40078 0.2379 0.0
C161 C 0.67589 0.34749 0.2608 0.0
C162 C 0.6531 0.22668 0.25008 0.0
C163 C 0.78392 0.37771 0.24211 0.0
O164 O 0.68329 0.31703 0.25847 0.0
O165 O 0.68083 0.37563 0.25289 0.0
O166 O 0.70619 0.27747 0.22724 0.0
O167 O 0.68616 0.32423 0.23114 0.0
C168 C 0.3971 0.7335 0.94408 0.0
C169 C 0.35754 0.70138 0.93963 0.0
C170 C 0.40235 0.74429 0.95651 0.0
C171 C 0.40771 0.72983 0.984 0.0
H172 H 0.32096 0.73656 0.00304 0.0
C173 C 0.37122 0.67922 0.03433 0.0
C174 C 0.35893 0.70181 0.04222 0.0
C175 C 0.37959 0.69039 0.022 0.0
C176 C 0.34591 0.73553 -0.00214 0.0
H177 H 0.29196 0.65708 0.9446 0.0
H178 H 0.30104 0.67623 0.9662 0.0
H179 H 0.31779 0.73663 0.98072 0.0
H180 H 0.34795 0.75529 0.04345 0.0
H181 H 0.36224 0.7745 0.02183 0.0
H182 H 0.43483 0.72695 0.00116 0.0
C183 C 0.32801 0.69299 0.9601 0.0
C184 C 0.34386 0.73521 0.98509 0.0
C185 C 0.3229 0.6818 0.94774 0.0
C186 C 0.35722 0.73714 0.03762 0.0
C187 C 0.36521 0.74806 0.02523 0.0
C188 C 0.40955 0.72977 -0.00322 0.0
C189 C 0.36797 0.72367 0.96467 0.0
C190 C 0.37407 0.73117 0.97804 0.0
C191 C 0.37558 0.7242 0.01725 0.0
C192 C 0.37799 0.73145 0.00384 0.0
H193 H 0.42443 0.74909 0.93806 0.0
H194 H 0.43344 0.76818 0.9598 0.0
H195 H 0.4313 0.72646 0.9788 0.0
H196 H 0.37317 0.65203 0.03759 0.0
H197 H 0.38713 0.67114 0.01606 0.0
C198 C 0.695 0.36518 0.36783 0.0
C199 C 0.66001 0.35087 0.37579 0.0
C200 C 0.69119 0.37291 0.35551 0.0
C201 C 0.61226 0.33528 0.33135 0.0
H202 H 0.70432 0.42507 0.31265 0.0
C203 C 0.64838 0.31626 0.28148 0.0
C204 C 0.66322 0.35107 0.27344 0.0
C205 C 0.64043 0.32052 0.29374 0.0
C206 C 0.67794 0.40022 0.31773 0.0
H207 H 0.59403 0.33513 0.37715 0.0
H208 H 0.58728 0.3482 0.35551 0.0
H209 H 0.70625 0.42812 0.33499 0.0
H210 H 0.67969 0.41723 0.27187 0.0
H211 H 0.6662 0.42473 0.29342 0.0
H212 H 0.58481 0.30651 0.3141 0.0
C213 C 0.61762 0.3534 0.35887 0.0
C214 C 0.67924 0.4018 0.33051 0.0
C215 C 0.62157 0.34611 0.37125 0.0
C216 C 0.66832 0.38981 0.27783 0.0
C217 C 0.66077 0.39419 0.29017 0.0
C218 C 0.6111 0.33356 0.31856 0.0
C219 C 0.65222 0.36618 0.35084 0.0
C220 C 0.64708 0.36867 0.33745 0.0
C221 C 0.64744 0.35976 0.29829 0.0
C222 C 0.6446 0.36533 0.31164 0.0
H223 H 0.72516 0.36945 0.37104 0.0
H224 H 0.71829 0.38226 0.34953 0.0
H225 H 0.58712 0.30917 0.33644 0.0
H226 H 0.64383 0.28588 0.27837 0.0
H227 H 0.63065 0.29354 0.29979 0.0
C228 C 0.33031 0.69246 0.70137 0.0
C229 C 0.30873 0.65728 0.70922 0.0
C230 C 0.31972 0.6891 0.68898 0.0
C231 C 0.2795 0.61048 0.66469 0.0
H232 H 0.28238 0.70227 0.64573 0.0
C233 C 0.27873 0.66359 0.61104 0.0
C234 C 0.31235 0.65866 0.60653 0.0
C235 C 0.26767 0.65681 0.62344 0.0
C236 C 0.28076 0.67601 0.65089 0.0
H237 H 0.25775 0.5915 0.7103 0.0
H238 H 0.23959 0.58558 0.68856 0.0
H239 H 0.28122 0.70481 0.66807 0.0
H240 H 0.35898 0.64027 0.61135 0.0
H241 H 0.33946 0.62818 0.63291 0.0
H242 H 0.28076 0.58252 0.64752 0.0
C243 C 0.26473 0.6157 0.69205 0.0
C244 C 0.28044 0.67765 0.66367 0.0
C245 C 0.27502 0.6192 0.7045 0.0
C246 C 0.3331 0.6446 0.61454 0.0
C247 C 0.32171 0.63736 0.62688 0.0
C248 C 0.2802 0.60902 0.65192 0.0
C249 C 0.28756 0.65038 0.68413 0.0
C250 C 0.28094 0.64545 0.6707 0.0
C251 C 0.28959 0.64437 0.63152 0.0
C252 C 0.28196 0.64233 0.6449 0.0
H253 H 0.35627 0.72235 0.70473 0.0
H254 H 0.33816 0.71626 0.68309 0.0
H255 H 0.28018 0.58534 0.66986 0.0
H256 H 0.26213 0.67443 0.60511 0.0
H257 H 0.2426 0.66219 0.62677 0.0
C258 C 0.66516 0.28048 0.03819 0.0
C259 C 0.6603 0.31402 0.04281 0.0
C260 C 0.6593 0.2704 0.02571 0.0
C261 C 0.6135 0.28568 -0.00282 0.0
H262 H 0.70781 0.28345 0.98115 0.0
C263 C 0.69863 0.33418 0.94787 0.0
C264 C 0.66355 0.31378 0.93993 0.0
C265 C 0.69447 0.32347 0.96026 0.0
C266 C 0.68107 0.28363 0.98551 0.0
H267 H 0.64338 0.36179 0.03805 0.0
H268 H 0.63309 0.3441 0.01637 0.0
H269 H 0.7049 0.28427 0.00348 0.0
H270 H 0.59699 0.26483 0.93869 0.0
H271 H 0.58968 0.24643 0.96044 0.0
H272 H 0.59067 0.28698 0.97921 0.0
C273 C 0.64138 0.32558 0.02237 0.0
C274 C 0.67921 0.28374 -0.00171 0.0
C275 C 0.64764 0.33595 0.03479 0.0
C276 C 0.62463 0.28116 0.94457 0.0
C277 C 0.62036 0.27075 0.95702 0.0
C278 C 0.61519 0.28524 0.98441 0.0
C279 C 0.64792 0.29326 0.01765 0.0
C280 C 0.64608 0.28608 0.00424 0.0
C281 C 0.65506 0.29235 0.96502 0.0
C282 C 0.64968 0.28552 0.97844 0.0
H283 H 0.67488 0.26295 0.04412 0.0
H284 H 0.6643 0.24516 0.02232 0.0
H285 H 0.58738 0.28707 0.00154 0.0
H286 H 0.72915 0.35926 0.94458 0.0
H287 H 0.72169 0.34099 0.96621 0.0
C288 C 0.35244 0.62195 0.27779 0.0
C289 C 0.3587 0.66058 0.27291 0.0
C290 C 0.3548 0.6173 0.29045 0.0
C291 C 0.33541 0.65974 0.31834 0.0
H292 H 0.38754 0.60435 0.33578 0.0
C293 C 0.30683 0.62966 0.36933 0.0
C294 C 0.34388 0.64515 0.37647 0.0
C295 C 0.30816 0.62352 0.35677 0.0
C296 C 0.3728 0.61981 0.331 0.0
H297 H 0.37626 0.7257 0.27736 0.0
H298 H 0.38063 0.7176 0.2993 0.0
H299 H 0.39509 0.61248 0.31341 0.0
H300 H 0.41062 0.66312 0.37621 0.0
H301 H 0.41306 0.65304 0.35414 0.0
H302 H 0.31359 0.66783 0.33571 0.0
C303 C 0.37291 0.69064 0.29341 0.0
C304 C 0.37698 0.62429 0.31823 0.0
C305 C 0.37048 0.69527 0.28082 0.0
C306 C 0.38156 0.65126 0.37094 0.0
C307 C 0.38295 0.64536 0.35831 0.0
C308 C 0.33098 0.655 0.33099 0.0
C309 C 0.3635 0.65121 0.29839 0.0
C310 C 0.35877 0.64487 0.31183 0.0
C311 C 0.34662 0.63307 0.35104 0.0
C312 C 0.34975 0.63521 0.33749 0.0
H313 H 0.34337 0.59464 0.27192 0.0
H314 H 0.34744 0.58655 0.29407 0.0
H315 H 0.32043 0.67513 0.31364 0.0
H316 H 0.27708 0.62387 0.37335 0.0
H317 H 0.2794 0.61305 0.35145 0.0
C318 C 0.72932 0.38838 0.70438 0.0
C319 C 0.6959 0.34964 0.70886 0.0
C320 C 0.73978 0.39316 0.69192 0.0
C321 C 0.72737 0.40051 0.66448 0.0
H322 H 0.72635 0.31009 0.64523 0.0
C323 C 0.67979 0.37115 0.61382 0.0
C324 C 0.70091 0.35715 0.60593 0.0
C325 C 0.68983 0.37729 0.62626 0.0
C326 C 0.72747 0.33599 0.65048 0.0
H327 H 0.64869 0.28495 0.70387 0.0
H328 H 0.66709 0.2933 0.68223 0.0
H329 H 0.72507 0.30582 0.66755 0.0
H330 H 0.75045 0.34036 0.60482 0.0
H331 H 0.76768 0.35072 0.62666 0.0
H332 H 0.72823 0.42993 0.64739 0.0
C333 C 0.68521 0.31996 0.68832 0.0
C334 C 0.72634 0.33333 0.66325 0.0
C335 C 0.67444 0.3153 0.70072 0.0
C336 C 0.73358 0.35114 0.61066 0.0
C337 C 0.74331 0.35685 0.62317 0.0
C338 C 0.72816 0.403 0.6517 0.0
C339 C 0.71744 0.35914 0.68375 0.0
C340 C 0.72516 0.36501 0.67037 0.0
C341 C 0.72099 0.36926 0.63112 0.0
C342 C 0.7271 0.37022 0.64457 0.0
H343 H 0.74647 0.41546 0.7104 0.0
H344 H 0.76494 0.42365 0.68865 0.0
H345 H 0.72625 0.4253 0.66972 0.0
H346 H 0.65466 0.37636 0.61046 0.0
H347 H 0.67176 0.38644 0.63217 0.0
C348 C 0.29196 0.69912 0.20144 0.0
C349 C 0.31744 0.68937 0.2089 0.0
C350 C 0.28801 0.68983 0.18895 0.0
C351 C 0.30638 0.69285 0.16197 0.0
H352 H 0.3062 0.59285 0.1494 0.0
C353 C 0.32907 0.67188 0.11061 0.0
C354 C 0.30799 0.63055 0.10574 0.0
C355 C 0.32746 0.67832 0.12318 0.0
C356 C 0.30562 0.62066 0.15274 0.0
H357 H 0.35828 0.66172 0.20926 0.0
H358 H 0.3526 0.64663 0.18733 0.0
H359 H 0.30719 0.60361 0.17139 0.0
H360 H 0.26698 0.56371 0.11001 0.0
H361 H 0.26283 0.57496 0.13182 0.0
H362 H 0.30332 0.70917 0.14334 0.0
C363 C 0.33484 0.66061 0.19115 0.0
C364 C 0.30688 0.62718 0.16537 0.0
C365 C 0.33833 0.66943 0.2037 0.0
C366 C 0.28392 0.59593 0.11355 0.0
C367 C 0.28184 0.60237 0.12607 0.0
C368 C 0.30465 0.6861 0.14934 0.0
C369 C 0.30993 0.67109 0.18359 0.0
C370 C 0.30754 0.66349 0.17015 0.0
C371 C 0.30426 0.64357 0.13109 0.0
C372 C 0.30453 0.65007 0.14455 0.0
H373 H 0.27508 0.71409 0.20523 0.0
H374 H 0.26775 0.69742 0.1835 0.0
H375 H 0.30747 0.72152 0.16528 0.0
H376 H 0.348 0.69913 0.10479 0.0
H377 H 0.34555 0.71045 0.12671 0.0
C378 C 0.7173 0.30395 0.44786 0.0
C379 C 0.69206 0.31054 0.43937 0.0
C380 C 0.70939 0.30305 0.46039 0.0
C381 C 0.62744 0.28363 0.48292 0.0
H382 H 0.72223 0.35626 0.5041 0.0
C383 C 0.60221 0.31385 0.53312 0.0
C384 C 0.63305 0.31948 0.54183 0.0
C385 C 0.60916 0.3108 0.52069 0.0
C386 C 0.69551 0.33518 0.49838 0.0
H387 H 0.63807 0.32021 0.43727 0.0
H388 H 0.62371 0.31786 0.45928 0.0
H389 H 0.7342 0.35388 0.48223 0.0
H390 H 0.69494 0.32532 0.54446 0.0
H391 H 0.70667 0.31854 0.52275 0.0
H392 H 0.58878 0.2641 0.49902 0.0
C393 C 0.64976 0.31368 0.45618 0.0
C394 C 0.70238 0.33405 0.48584 0.0
C395 C 0.65807 0.31519 0.44363 0.0
C396 C 0.67077 0.32131 0.53791 0.0
C397 C 0.67754 0.31767 0.52546 0.0
C398 C 0.62063 0.28428 0.49549 0.0
C399 C 0.67571 0.30811 0.46467 0.0
C400 C 0.66837 0.30852 0.47799 0.0
C401 C 0.64691 0.31268 0.51668 0.0
C402 C 0.65451 0.31039 0.50338 0.0
H403 H 0.74372 0.30023 0.44485 0.0
H404 H 0.72959 0.29831 0.46674 0.0
H405 H 0.60079 0.26327 0.47706 0.0
H406 H 0.57289 0.3126 0.53587 0.0
H407 H 0.58522 0.30785 0.51423 0.0
C408 C 0.33794 0.65992 0.77781 0.0
C409 C 0.37924 0.68038 0.77292 0.0
C410 C 0.33157 0.65151 0.79036 0.0
C411 C 0.32391 0.62006 0.81643 0.0
H412 H 0.407 0.70399 0.83861 0.0
C413 C 0.31189 0.59256 0.86852 0.0
C414 C 0.32259 0.62772 0.87612 0.0
C415 C 0.32053 0.59814 0.856 0.0
C416 C 0.38323 0.68041 0.83257 0.0
H417 H 0.44612 0.70628 0.77714 0.0
H418 H 0.43502 0.69019 0.79891 0.0
H419 H 0.4174 0.7147 0.81666 0.0
H420 H 0.35097 0.69632 0.87667 0.0
H421 H 0.36482 0.70613 0.85471 0.0
H422 H 0.28865 0.58687 0.83233 0.0
C423 C 0.40756 0.68192 0.7932 0.0
C424 C 0.38956 0.68619 0.81994 0.0
C425 C 0.41393 0.69085 0.7807 0.0
C426 C 0.34258 0.66868 0.87101 0.0
C427 C 0.35071 0.67425 0.85843 0.0
C428 C 0.31733 0.61453 0.82906 0.0
C429 C 0.36638 0.66287 0.79825 0.0
C430 C 0.35997 0.65611 0.8117 0.0
C431 C 0.33953 0.63899 0.85075 0.0
C432 C 0.3469 0.64465 0.8373 0.0
H433 H 0.31065 0.65167 0.77202 0.0
H434 H 0.29946 0.63728 0.79392 0.0
H435 H 0.3007 0.59594 0.81039 0.0
H436 H 0.2968 0.56061 0.87225 0.0
H437 H 0.31233 0.57034 0.85044 0.0
C438 C 0.70759 0.35124 0.11095 0.0
C439 C 0.68985 0.37594 0.10722 0.0
C440 C 0.71173 0.34521 0.12342 0.0
C441 C 0.70306 0.38555 0.15452 0.0
H442 H 0.70483 0.28474 0.16518 0.0
C443 C 0.71974 0.3584 0.20582 0.0
C444 C 0.70138 0.31642 0.21002 0.0
C445 C 0.72187 0.36676 0.19325 0.0
C446 C 0.70352 0.31275 0.16248 0.0
H447 H 0.66092 0.41233 0.11335 0.0
H448 H 0.66429 0.39884 0.13494 0.0
H449 H 0.69832 0.29507 0.14369 0.0
H450 H 0.66997 0.25015 0.20467 0.0
H451 H 0.67004 0.26399 0.18296 0.0
H452 H 0.70404 0.40117 0.17334 0.0
C453 C 0.67769 0.38613 0.12848 0.0
C454 C 0.70082 0.31927 0.14998 0.0
C455 C 0.67515 0.39349 0.11606 0.0
C456 C 0.68467 0.28288 0.20157 0.0
C457 C 0.68525 0.29102 0.18907 0.0
C458 C 0.70413 0.37823 0.16703 0.0
C459 C 0.69669 0.36246 0.13241 0.0
C460 C 0.70044 0.35575 0.14577 0.0
C461 C 0.70412 0.33314 0.18466 0.0
C462 C 0.7043 0.34165 0.17124 0.0
H463 H 0.71946 0.33771 0.10424 0.0
H464 H 0.72741 0.3276 0.12592 0.0
H465 H 0.70418 0.41475 0.15179 0.0
H466 H 0.73323 0.38474 0.21223 0.0
H467 H 0.73774 0.39967 0.19035 0.0
C468 C 0.42231 0.73005 0.53552 0.0
C469 C 0.38711 0.70617 0.54317 0.0
C470 C 0.41667 0.73303 0.52299 0.0
C471 C 0.33449 0.71395 0.49956 0.0
H472 H 0.41674 0.71115 0.47745 0.0
C473 C 0.35007 0.68068 0.44518 0.0
C474 C 0.32984 0.70143 0.44008 0.0
C475 C 0.35973 0.68465 0.45767 0.0
C476 C 0.39327 0.7116 0.48348 0.0
H477 H 0.31837 0.6672 0.54379 0.0
H478 H 0.30843 0.67119 0.52186 0.0
H479 H 0.42668 0.71033 0.49943 0.0
H480 H 0.30592 0.74439 0.44382 0.0
H481 H 0.32417 0.75265 0.46546 0.0
H482 H 0.2999 0.71295 0.48364 0.0
C483 C 0.34041 0.68849 0.52554 0.0
C484 C 0.3993 0.7118 0.49612 0.0
C485 C 0.34606 0.68598 0.53811 0.0
C486 C 0.32107 0.7276 0.44755 0.0
C487 C 0.33125 0.73206 0.45999 0.0
C488 C 0.32821 0.71327 0.48693 0.0
C489 C 0.3757 0.71174 0.51779 0.0
C490 C 0.36991 0.71282 0.50433 0.0
C491 C 0.34988 0.70993 0.46528 0.0
C492 C 0.35745 0.71197 0.47872 0.0
H493 H 0.45434 0.74629 0.5392 0.0
H494 H 0.4445 0.75198 0.51738 0.0
H495 H 0.31149 0.71534 0.50558 0.0
H496 H 0.35704 0.66019 0.43961 0.0
H497 H 0.37363 0.66673 0.46143 0.0
C498 C 0.72919 0.39747 0.86747 0.0
C499 C 0.69602 0.38229 0.87602 0.0
C500 C 0.72036 0.39003 0.855 0.0
C501 C 0.63102 0.32553 0.83307 0.0
H502 H 0.71559 0.40092 0.80973 0.0
C503 C 0.61328 0.28234 0.78194 0.0
C504 C 0.63235 0.31468 0.77317 0.0
C505 C 0.62069 0.29181 0.79439 0.0
C506 C 0.691 0.37984 0.81602 0.0
H507 H 0.62775 0.34873 0.87845 0.0
H508 H 0.61179 0.33859 0.85661 0.0
H509 H 0.72717 0.41693 0.83124 0.0
H510 H 0.67322 0.38232 0.77036 0.0
H511 H 0.68357 0.39977 0.79208 0.0
H512 H 0.59306 0.29066 0.81782 0.0
C513 C 0.64481 0.35422 0.85941 0.0
C514 C 0.69821 0.38851 0.82853 0.0
C515 C 0.65377 0.36028 0.87196 0.0
C516 C 0.65851 0.35682 0.777 0.0
C517 C 0.66467 0.36663 0.7895 0.0
C518 C 0.62309 0.31774 0.82055 0.0
C519 C 0.678 0.36867 0.85071 0.0
C520 C 0.6688 0.36099 0.8373 0.0
C521 C 0.64606 0.3342 0.79842 0.0
C522 C 0.65336 0.34421 0.8118 0.0
H523 H 0.76209 0.41424 0.87047 0.0
H524 H 0.74702 0.40059 0.8488 0.0
H525 H 0.60758 0.30303 0.83938 0.0
H526 H 0.59326 0.24947 0.77916 0.0
H527 H 0.60679 0.26555 0.80079 0.0
C528 C 0.84644 0.40756 0.08015 0.0
C529 C 0.82239 0.42623 0.0763 0.0
C530 C 0.89047 0.42861 0.07862 0.0
C531 C 0.98526 0.53323 0.07511 0.0
H532 H 0.03591 0.46833 0.06272 0.0
C533 C 0.16594 0.613 0.06761 0.0
C534 C 0.1863 0.59009 0.07087 0.0
C535 C 0.12165 0.59291 0.06693 0.0
C536 C 0.02243 0.48684 0.06632 0.0
H537 H 0.82661 0.48263 0.06808 0.0
H538 H 0.90435 0.51996 0.06556 0.0
H539 H 0.95865 0.43495 0.06421 0.0
H540 H 0.17623 0.52778 0.07559 0.0
H541 H 0.09837 0.49253 0.07476 0.0
H542 H 0.04877 0.58467 0.07763 0.0
C543 C 0.88849 0.48863 0.0697 0.0
C544 C 0.97809 0.46775 0.06711 0.0
C545 C 0.84401 0.46727 0.07114 0.0
C546 C 0.16138 0.54615 0.07299 0.0
C547 C 0.11675 0.52603 0.07249 0.0
C548 C 0.02961 0.55222 0.07442 0.0
C549 C 0.91205 0.46915 0.07328 0.0
C550 C 0.95901 0.49061 0.07161 0.0
C551 C 0.09629 0.54941 0.06969 0.0
C552 C 0.04888 0.52924 0.07008 0.0
H553 H 0.83128 0.37618 0.08426 0.0
H554 H 0.90773 0.41311 0.08171 0.0
H555 H 0.97155 0.55148 0.07876 0.0
H556 H 0.18435 0.64684 0.06574 0.0
H557 H 0.10732 0.61178 0.06437 0.0
C558 C 0.56144 0.15954 0.40956 0.0
C559 C 0.60541 0.18274 0.407 0.0
C560 C 0.53826 0.11545 0.40813 0.0
C561 C 0.54883 0.02036 0.40767 0.0
H562 H 0.43558 0.96695 0.39349 0.0
C563 C 0.45088 0.83899 0.4017 0.0
C564 C 0.40718 0.81842 0.40447 0.0
C565 C 0.47469 0.88319 0.40064 0.0
C566 C 0.46693 0.98127 0.39759 0.0
H567 H 0.6593 0.17716 0.40089 0.0
H568 H 0.61851 0.09946 0.39848 0.0
H569 H 0.47896 0.04447 0.39408 0.0
H570 H 0.35381 0.82808 0.40789 0.0
H571 H 0.39574 0.9059 0.40635 0.0
H572 H 0.53662 0.95749 0.41152 0.0
C573 C 0.60224 0.1159 0.40161 0.0
C574 C 0.4919 0.02573 0.39788 0.0
C575 C 0.62557 0.16039 0.40296 0.0
C576 C 0.3874 0.84305 0.40571 0.0
C577 C 0.41149 0.88763 0.4048 0.0
C578 C 0.5238 0.97595 0.40746 0.0
C579 C 0.55824 0.09302 0.40414 0.0
C580 C 0.53302 0.0458 0.40301 0.0
C581 C 0.45568 0.9083 0.40249 0.0
C582 C 0.48242 0.95574 0.40246 0.0
H583 H 0.54457 0.17539 0.41268 0.0
H584 H 0.50465 0.09881 0.41036 0.0
H585 H 0.58007 0.03479 0.41186 0.0
H586 H 0.46697 0.82086 0.40048 0.0
H587 H 0.50825 0.89769 0.39849 0.0
C588 C 0.60181 0.44069 0.74667 0.0
C589 C 0.58319 0.39822 0.74257 0.0
C590 C 0.58093 0.46386 0.74525 0.0
C591 C 0.47661 0.45451 0.74164 0.0
H592 H 0.54217 0.57088 0.72993 0.0
C593 C 0.39742 0.55609 0.73469 0.0
C594 C 0.42026 0.59916 0.73816 0.0
C595 C 0.41747 0.5319 0.73388 0.0
C596 C 0.52348 0.53866 0.73334 0.0
H597 H 0.52707 0.34668 0.73402 0.0
H598 H 0.49004 0.38742 0.73169 0.0
H599 H 0.57533 0.52677 0.73117 0.0
H600 H 0.48244 0.65111 0.74315 0.0
H601 H 0.51764 0.60847 0.74214 0.0
H602 H 0.42519 0.46654 0.74423 0.0
C603 C 0.52119 0.40255 0.73594 0.0
C604 C 0.54244 0.51328 0.73399 0.0
C605 C 0.54238 0.37924 0.73727 0.0
C606 C 0.46413 0.61804 0.74039 0.0
C607 C 0.48421 0.59352 0.73978 0.0
C608 C 0.45774 0.47999 0.7411 0.0
C609 C 0.54062 0.44534 0.73977 0.0
C610 C 0.51933 0.47104 0.73825 0.0
C611 C 0.46088 0.54984 0.73675 0.0
C612 C 0.48095 0.52252 0.737 0.0
H613 H 0.633 0.45656 0.75089 0.0
H614 H 0.59636 0.49641 0.74853 0.0
H615 H 0.45816 0.42231 0.74511 0.0
H616 H 0.36364 0.54081 0.73272 0.0
H617 H 0.39866 0.49886 0.73115 0.0
C618 C 0.54618 0.16992 0.57781 0.0
C619 C 0.58878 0.19223 0.57383 0.0
C620 C 0.52498 0.12543 0.57919 0.0
C621 C 0.54545 0.03584 0.58344 0.0
H622 H 0.43317 0.96637 0.56947 0.0
C623 C 0.46896 0.85298 0.57646 0.0
C624 C 0.4245 0.82809 0.5775 0.0
C625 C 0.48907 0.89759 0.57714 0.0
C626 C 0.46424 0.98517 0.57362 0.0
H627 H 0.64226 0.18473 0.56822 0.0
H628 H 0.60556 0.10824 0.57062 0.0
H629 H 0.46651 0.04363 0.56889 0.0
H630 H 0.3666 0.83011 0.58089 0.0
H631 H 0.40145 0.90699 0.58253 0.0
H632 H 0.5433 0.97751 0.5882 0.0
C633 C 0.58857 0.12491 0.57278 0.0
C634 C 0.48332 0.02956 0.57327 0.0
C635 C 0.6095 0.16896 0.57131 0.0
C636 C 0.40088 0.84845 0.57983 0.0
C637 C 0.42088 0.89268 0.58068 0.0
C638 C 0.52624 0.99143 0.58389 0.0
C639 C 0.54615 0.10255 0.57676 0.0
C640 C 0.52434 0.05542 0.57805 0.0
C641 C 0.46509 0.91803 0.57904 0.0
C642 C 0.48547 0.96544 0.5789 0.0
H643 H 0.52924 0.18673 0.57984 0.0
H644 H 0.49222 0.109 0.58229 0.0
H645 H 0.57696 0.05494 0.58732 0.0
H646 H 0.48794 0.83816 0.57461 0.0
H647 H 0.52317 0.91602 0.57576 0.0
C648 C 0.39332 0.54949 0.91245 0.0
C649 C 0.41113 0.59034 0.90724 0.0
C650 C 0.41776 0.52947 0.91365 0.0
C651 C 0.5297 0.55293 0.91476 0.0
H652 H 0.48245 0.43522 0.90492 0.0
C653 C 0.63331 0.47311 0.90769 0.0
C654 C 0.61428 0.42952 0.91037 0.0
C655 C 0.6093 0.49375 0.90838 0.0
C656 C 0.49607 0.46794 0.90791 0.0
H657 H 0.4688 0.64181 0.89914 0.0
H658 H 0.51062 0.60708 0.90121 0.0
H659 H 0.43789 0.46779 0.90438 0.0
H660 H 0.55648 0.37416 0.91675 0.0
H661 H 0.51553 0.41014 0.91842 0.0
H662 H 0.58791 0.55313 0.91831 0.0
C663 C 0.47808 0.59067 0.90451 0.0
C664 C 0.4704 0.48658 0.90758 0.0
C665 C 0.45378 0.61044 0.90324 0.0
C666 C 0.5718 0.40766 0.91441 0.0
C667 C 0.54817 0.42824 0.91528 0.0
C668 C 0.55534 0.53419 0.91517 0.0
C669 C 0.46055 0.55006 0.90977 0.0
C670 C 0.48698 0.52939 0.9109 0.0
C671 C 0.56607 0.47122 0.91193 0.0
C672 C 0.53893 0.49146 0.9117 0.0
H673 H 0.36066 0.53307 0.91564 0.0
H674 H 0.40338 0.49814 0.91777 0.0
H675 H 0.54331 0.58591 0.9175 0.0
H676 H 0.66596 0.49065 0.90451 0.0
H677 H 0.62416 0.52687 0.90569 0.0
C678 C 0.17177 0.56004 0.23661 0.0
C679 C 0.19424 0.60281 0.24051 0.0
C680 C 0.12771 0.53562 0.23796 0.0
C681 C 0.03119 0.54315 0.24114 0.0
H682 H 0.98052 0.42587 0.25204 0.0
C683 C 0.85107 0.44201 0.24839 0.0
C684 C 0.83034 0.39952 0.24437 0.0
C685 C 0.89531 0.46558 0.2492 0.0
C686 C 0.99408 0.45838 0.24886 0.0
H687 H 0.18733 0.65335 0.24881 0.0
H688 H 0.10978 0.61043 0.2511 0.0
H689 H 0.05791 0.47048 0.25103 0.0
H690 H 0.83958 0.34774 0.23848 0.0
H691 H 0.91763 0.38944 0.23955 0.0
H692 H 0.9677 0.53104 0.23864 0.0
C693 C 0.12674 0.59605 0.24698 0.0
C694 C 0.03845 0.48402 0.24833 0.0
C695 C 0.17115 0.62061 0.2457 0.0
C696 C 0.85479 0.3804 0.24165 0.0
C697 C 0.89946 0.40435 0.24228 0.0
C698 C 0.98688 0.51748 0.24159 0.0
C699 C 0.10461 0.55316 0.24319 0.0
C700 C 0.05752 0.52666 0.24441 0.0
C701 C 0.92028 0.44761 0.2458 0.0
C702 C 0.96765 0.47472 0.24546 0.0
H703 H 0.18818 0.54505 0.23252 0.0
H704 H 0.11163 0.503 0.23473 0.0
H705 H 0.04481 0.57559 0.23789 0.0
H706 H 0.83296 0.45739 0.25075 0.0
H707 H 0.90996 0.49825 0.25233 0.0
C708 C 0.63712 0.48656 0.06114 0.0
C709 C 0.62029 0.44305 0.0636 0.0
C710 C 0.60983 0.50294 0.05914 0.0
C711 C 0.49841 0.47307 0.05164 0.0
H712 H 0.52164 0.57029 0.07178 0.0
C713 C 0.37257 0.52455 0.06135 0.0
C714 C 0.38761 0.56806 0.06328 0.0
C715 C 0.40142 0.50984 0.05959 0.0
C716 C 0.51491 0.54365 0.06588 0.0
H717 H 0.56192 0.38223 0.06522 0.0
H718 H 0.51465 0.41062 0.0616 0.0
H719 H 0.57226 0.54503 0.07134 0.0
H720 H 0.44412 0.63057 0.06398 0.0
H721 H 0.49389 0.60546 0.06043 0.0
H722 H 0.44088 0.4716 0.04621 0.0
C723 C 0.54873 0.43218 0.06125 0.0
C724 C 0.54407 0.52916 0.06565 0.0
C725 C 0.57587 0.41598 0.06341 0.0
C726 C 0.43161 0.59673 0.06272 0.0
C727 C 0.46022 0.58224 0.06078 0.0
C728 C 0.46933 0.48784 0.05177 0.0
C729 C 0.5653 0.47596 0.05937 0.0
C730 C 0.53602 0.49348 0.05863 0.0
C731 C 0.44574 0.5385 0.05957 0.0
C732 C 0.47705 0.52319 0.05897 0.0
H733 H 0.67121 0.50816 0.06125 0.0
H734 H 0.62353 0.53681 0.05762 0.0
H735 H 0.49143 0.44558 0.04609 0.0
H736 H 0.33878 0.50178 0.06177 0.0
H737 H 0.38901 0.4759 0.05876 0.0
C738 C 0.85372 0.36519 0.39311 0.0
C739 C 0.82709 0.38223 0.39534 0.0
C740 C 0.89755 0.39234 0.39129 0.0
C741 C 0.98021 0.5036 0.3841 0.0
H742 H 0.05127 0.48111 0.40574 0.0
C743 C 0.15547 0.63063 0.39561 0.0
C744 C 0.18393 0.61607 0.39821 0.0
C745 C 0.11224 0.6014 0.39345 0.0
C746 C 0.03224 0.48763 0.39942 0.0
H747 H 0.82476 0.4407 0.39664 0.0
H748 H 0.90067 0.48773 0.3933 0.0
H749 H 0.97562 0.43009 0.4044 0.0
H750 H 0.19033 0.55994 0.39973 0.0
H751 H 0.11614 0.50952 0.3955 0.0
H752 H 0.03688 0.56129 0.37914 0.0
C753 C 0.88804 0.45363 0.39302 0.0
C754 C 0.98872 0.45823 0.39868 0.0
C755 C 0.84457 0.42664 0.39501 0.0
C756 C 0.16896 0.57211 0.39798 0.0
C757 C 0.12624 0.54311 0.39563 0.0
C758 C 0.02395 0.53289 0.38473 0.0
C759 C 0.91523 0.43689 0.39146 0.0
C760 C 0.9621 0.46606 0.39112 0.0
C761 C 0.09693 0.55715 0.39368 0.0
C762 C 0.05054 0.52549 0.3925 0.0
H763 H 0.84109 0.33109 0.39334 0.0
H764 H 0.91776 0.37855 0.39003 0.0
H765 H 0.96045 0.5104 0.37815 0.0
H766 H 0.1662 0.66438 0.39575 0.0
H767 H 0.09065 0.61349 0.39206 0.0
C768 C 0.59296 0.16197 0.72898 0.0
C769 C 0.56597 0.17939 0.72922 0.0
C770 C 0.57662 0.11855 0.72689 0.0
C771 C 0.47963 0.01717 0.73167 0.0
H772 H 0.53665 0.97058 0.71239 0.0
C773 C 0.41226 0.83695 0.72956 0.0
C774 C 0.44102 0.82174 0.73013 0.0
C775 C 0.42657 0.87992 0.72743 0.0
C776 C 0.52055 0.98306 0.71791 0.0
H777 H 0.50084 0.16524 0.72699 0.0
H778 H 0.47194 0.08878 0.72348 0.0
H779 H 0.56264 0.04714 0.71196 0.0
H780 H 0.50729 0.83932 0.72848 0.0
H781 H 0.53288 0.91522 0.72516 0.0
H782 H 0.4387 0.95392 0.73807 0.0
C783 C 0.50587 0.10896 0.72491 0.0
C784 C 0.53531 0.0269 0.7176 0.0
C785 C 0.52238 0.1527 0.72684 0.0
C786 C 0.48444 0.85022 0.72805 0.0
C787 C 0.49899 0.89366 0.72611 0.0
C788 C 0.46516 0.97353 0.73208 0.0
C789 C 0.53276 0.09133 0.72513 0.0
C790 C 0.51512 0.04446 0.72453 0.0
C791 C 0.47024 0.90921 0.72606 0.0
C792 C 0.48544 0.95578 0.72524 0.0
H793 H 0.62676 0.18176 0.73073 0.0
H794 H 0.59814 0.10599 0.72723 0.0
H795 H 0.46393 0.02978 0.73732 0.0
H796 H 0.37847 0.8156 0.73093 0.0
H797 H 0.40328 0.89025 0.72707 0.0
C798 C 0.49122 0.64515 0.58977 0.0
C799 C 0.44835 0.62846 0.58649 0.0
C800 C 0.50749 0.61779 0.59185 0.0
C801 C 0.47648 0.50519 0.59809 0.0
H802 H 0.57795 0.53178 0.57959 0.0
C803 C 0.52754 0.37994 0.58731 0.0
C804 C 0.57118 0.39457 0.58592 0.0
C805 C 0.51327 0.40896 0.58942 0.0
C806 C 0.55008 0.52407 0.58505 0.0
H807 H 0.3884 0.57015 0.58347 0.0
H808 H 0.41652 0.5228 0.58721 0.0
H809 H 0.55301 0.58265 0.58019 0.0
H810 H 0.63425 0.45027 0.58656 0.0
H811 H 0.60982 0.50027 0.59075 0.0
H812 H 0.47336 0.4464 0.60288 0.0
C813 C 0.4377 0.5568 0.58815 0.0
C814 C 0.53578 0.55338 0.58537 0.0
C815 C 0.42168 0.58402 0.58591 0.0
C816 C 0.60033 0.43816 0.5874 0.0
C817 C 0.58625 0.46691 0.58971 0.0
C818 C 0.49103 0.47594 0.59787 0.0
C819 C 0.48096 0.57331 0.59088 0.0
C820 C 0.49852 0.54408 0.59175 0.0
C821 C 0.5425 0.45302 0.59035 0.0
C822 C 0.52781 0.48478 0.59123 0.0
H823 H 0.51249 0.67925 0.59027 0.0
H824 H 0.54095 0.6314 0.59403 0.0
H825 H 0.44776 0.49724 0.60315 0.0
H826 H 0.5044 0.34649 0.58615 0.0
H827 H 0.47932 0.39701 0.58978 0.0
C828 C 0.17059 0.59034 0.92134 0.0
C829 C 0.18857 0.56387 0.92086 0.0
C830 C 0.12725 0.57343 0.92367 0.0
C831 C 0.02649 0.47612 0.91891 0.0
H832 H 0.97979 0.53257 0.9384 0.0
C833 C 0.84629 0.41099 0.9202 0.0
C834 C 0.83198 0.44049 0.91969 0.0
C835 C 0.88895 0.42431 0.92255 0.0
C836 C 0.99228 0.5166 0.93283 0.0
H837 H 0.1756 0.49909 0.92293 0.0
H838 H 0.09911 0.46909 0.92683 0.0
H839 H 0.05624 0.55824 0.93895 0.0
H840 H 0.85082 0.50699 0.92169 0.0
H841 H 0.92608 0.53082 0.92542 0.0
H842 H 0.96335 0.43575 0.91232 0.0
C843 C 0.11885 0.50308 0.92543 0.0
C844 C 0.03607 0.53116 0.93322 0.0
C845 C 0.16258 0.52021 0.92327 0.0
C846 C 0.86099 0.48357 0.92206 0.0
C847 C 0.90408 0.49711 0.92424 0.0
C848 C 0.98287 0.46184 0.91844 0.0
C849 C 0.10062 0.52948 0.92543 0.0
C850 C 0.05371 0.51133 0.92616 0.0
C851 C 0.91878 0.46769 0.92425 0.0
C852 C 0.96513 0.48205 0.92531 0.0
H853 H 0.18988 0.62419 0.91959 0.0
H854 H 0.11423 0.59458 0.9235 0.0
H855 H 0.03916 0.46068 0.91318 0.0
H856 H 0.82452 0.37742 0.91859 0.0
H857 H 0.89863 0.40051 0.92284 0.0
C858 C 0.37209 0.85218 0.25604 0.0
C859 C 0.3898 0.82654 0.25319 0.0
C860 C 0.39867 0.89572 0.25848 0.0
C861 C 0.50954 0.97773 0.26647 0.0
H862 H 0.48675 0.05254 0.24661 0.0
C863 C 0.63735 0.15325 0.25613 0.0
C864 C 0.62347 0.18254 0.25405 0.0
C865 C 0.60765 0.11014 0.25821 0.0
C866 C 0.49333 0.03241 0.25245 0.0
H867 H 0.4489 0.82561 0.25139 0.0
H868 H 0.49487 0.9009 0.25577 0.0
H869 H 0.43576 0.97671 0.24694 0.0
H870 H 0.56818 0.1906 0.25344 0.0
H871 H 0.51688 0.11642 0.25756 0.0
H872 H 0.56737 0.03342 0.27191 0.0
C873 C 0.4607 0.88776 0.25608 0.0
C874 C 0.46395 0.98879 0.25262 0.0
C875 C 0.4343 0.84464 0.25347 0.0
C876 C 0.57977 0.16856 0.25482 0.0
C877 C 0.55029 0.12589 0.25709 0.0
C878 C 0.53883 0.02152 0.2664 0.0
C879 C 0.44331 0.91405 0.25833 0.0
C880 C 0.47201 0.96084 0.25946 0.0
C881 C 0.56359 0.09575 0.25843 0.0
C882 C 0.5314 0.04941 0.25925 0.0
H883 H 0.3379 0.83905 0.25588 0.0
H884 H 0.38438 0.91522 0.26026 0.0
H885 H 0.51648 0.95696 0.27191 0.0
H886 H 0.67087 0.16319 0.25554 0.0
H887 H 0.61918 0.08791 0.25911 0.0
loop_
_geom_bond_atom_site_label_1
_geom_bond_atom_site_label_2
_geom_bond_distance
_geom_bond_site_symmetry_2
_ccdc_geom_bond_type
Co0 O1 2.216 . S
Co0 O2 2.091 . S
Co0 O4 2.004 . S
Co0 O10 2.021 . S
Co0 O12 2.137 . S
Co0 O13 2.244 . S
O1 Co0 2.216 . S
O1 C8 1.247 . S
O2 Co0 2.091 . S
O2 C8 1.261 . S
C3 O12 1.247 . S
C3 O13 1.272 . S
O4 Co0 2.004 . S
O4 C9 1.259 . S
Co5 O6 2.061 . S
Co5 O11 2.052 . S
Co5 O13 2.135 . S
O6 Co5 2.061 . S
O6 C9 1.235 . S
C7 O10 1.238 . S
C7 O11 1.241 . S
C8 O1 1.247 . S
C8 O2 1.261 . S
C9 O4 1.259 . S
C9 O6 1.235 . S
O10 Co0 2.021 . S
O10 C7 1.238 . S
O11 Co5 2.052 . S
O11 C7 1.241 . S
O12 Co0 2.137 . S
O12 C3 1.247 . S
O13 Co0 2.244 . S
O13 C3 1.272 . S
O13 Co5 2.135 . S
Co14 O15 2.216 . S
Co14 O16 2.091 . S
Co14 O18 2.004 . S
Co14 O24 2.021 . S
Co14 O26 2.137 . S
Co14 O27 2.244 . S
O15 Co14 2.216 . S
O15 C22 1.247 . S
O16 Co14 2.091 . S
O16 C22 1.261 . S
C17 O26 1.247 . S
C17 O27 1.272 . S
O18 Co14 2.004 . S
O18 C23 1.259 . S
Co19 O20 2.061 . S
Co19 O25 2.052 . S
Co19 O27 2.135 . S
O20 Co19 2.061 . S
O20 C23 1.235 . S
C21 O24 1.238 . S
C21 O25 1.241 . S
C22 O15 1.247 . S
C22 O16 1.261 . S
C23 O18 1.259 . S
C23 O20 1.235 . S
O24 Co14 2.021 . S
O24 C21 1.238 . S
O25 Co19 2.052 . S
O25 C21 1.241 . S
O26 Co14 2.137 . S
O26 C17 1.247 . S
O27 Co14 2.244 . S
O27 C17 1.272 . S
O27 Co19 2.135 . S
Co28 O29 2.216 . S
Co28 O30 2.091 . S
Co28 O32 2.004 . S
Co28 O38 2.021 . S
Co28 O40 2.137 . S
Co28 O41 2.244 . S
O29 Co28 2.216 . S
O29 C36 1.247 . S
O30 Co28 2.091 . S
O30 C36 1.261 . S
C31 O40 1.247 . S
C31 O41 1.272 . S
O32 Co28 2.004 . S
O32 C37 1.259 . S
Co33 O34 2.061 . S
Co33 O39 2.052 . S
Co33 O41 2.135 . S
O34 Co33 2.061 . S
O34 C37 1.235 . S
C35 O38 1.238 . S
C35 O39 1.241 . S
C36 O29 1.247 . S
C36 O30 1.261 . S
C37 O32 1.259 . S
C37 O34 1.235 . S
O38 Co28 2.021 . S
O38 C35 1.238 . S
O39 Co33 2.052 . S
O39 C35 1.241 . S
O40 Co28 2.137 . S
O40 C31 1.247 . S
O41 Co28 2.244 . S
O41 C31 1.272 . S
O41 Co33 2.135 . S
Co42 O43 2.216 . S
Co42 O44 2.091 . S
Co42 O46 2.004 . S
Co42 O52 2.021 . S
Co42 O54 2.137 . S
Co42 O55 2.244 . S
O43 Co42 2.216 . S
O43 C50 1.247 . S
O44 Co42 2.091 . S
O44 C50 1.261 . S
C45 O54 1.247 . S
C45 O55 1.272 . S
O46 Co42 2.004 . S
O46 C51 1.259 . S
Co47 O48 2.061 . S
Co47 O53 2.052 . S
Co47 O55 2.135 . S
O48 Co47 2.061 . S
O48 C51 1.235 . S
C49 O52 1.238 . S
C49 O53 1.241 . S
C50 O43 1.247 . S
C50 O44 1.261 . S
C51 O46 1.259 . S
C51 O48 1.235 . S
O52 Co42 2.021 . S
O52 C49 1.238 . S
O53 Co47 2.052 . S
O53 C49 1.241 . S
O54 Co42 2.137 . S
O54 C45 1.247 . S
O55 Co42 2.244 . S
O55 C45 1.272 . S
O55 Co47 2.135 . S
Co56 O57 2.216 . S
Co56 O58 2.091 . S
Co56 O60 2.004 . S
Co56 O66 2.021 . S
Co56 O68 2.137 . S
Co56 O69 2.244 . S
O57 Co56 2.216 . S
O57 C64 1.247 . S
O58 Co56 2.091 . S
O58 C64 1.261 . S
C59 O68 1.247 . S
C59 O69 1.272 . S
O60 Co56 2.004 . S
O60 C65 1.259 . S
Co61 O62 2.061 . S
Co61 O67 2.052 . S
Co61 O69 2.135 . S
O62 Co61 2.061 . S
O62 C65 1.235 . S
C63 O66 1.238 . S
C63 O67 1.241 . S
C64 O57 1.247 . S
C64 O58 1.261 . S
C65 O60 1.259 . S
C65 O62 1.235 . S
O66 Co56 2.021 . S
O66 C63 1.238 . S
O67 Co61 2.052 . S
O67 C63 1.241 . S
O68 Co56 2.137 . S
O68 C59 1.247 . S
O69 Co56 2.244 . S
O69 C59 1.272 . S
O69 Co61 2.135 . S
Co70 O71 2.216 . S
Co70 O72 2.091 . S
Co70 O74 2.004 . S
Co70 O80 2.021 . S
Co70 O82 2.137 . S
Co70 O83 2.244 . S
O71 Co70 2.216 . S
O71 C78 1.247 . S
O72 Co70 2.091 . S
O72 C78 1.261 . S
C73 O82 1.247 . S
C73 O83 1.272 . S
O74 Co70 2.004 . S
O74 C79 1.259 . S
Co75 O76 2.061 . S
Co75 O81 2.052 . S
Co75 O83 2.135 . S
O76 Co75 2.061 . S
O76 C79 1.235 . S
C77 O80 1.238 . S
C77 O81 1.241 . S
C78 O71 1.247 . S
C78 O72 1.261 . S
C79 O74 1.259 . S
C79 O76 1.235 . S
O80 Co70 2.021 . S
O80 C77 1.238 . S
O81 Co75 2.052 . S
O81 C77 1.241 . S
O82 Co70 2.137 . S
O82 C73 1.247 . S
O83 Co70 2.244 . S
O83 C73 1.272 . S
O83 Co75 2.135 . S
Co84 O85 2.216 . S
Co84 O86 2.091 . S
Co84 O88 2.004 . S
Co84 O94 2.021 . S
Co84 O96 2.137 . S
Co84 O97 2.244 . S
O85 Co84 2.216 . S
O85 C92 1.247 . S
O86 Co84 2.091 . S
O86 C92 1.261 . S
C87 O96 1.247 . S
C87 O97 1.272 . S
O88 Co84 2.004 . S
O88 C93 1.259 . S
Co89 O90 2.061 . S
Co89 O95 2.052 . S
Co89 O97 2.135 . S
O90 Co89 2.061 . S
O90 C93 1.235 . S
C91 O94 1.238 . S
C91 O95 1.241 . S
C92 O85 1.247 . S
C92 O86 1.261 . S
C93 O88 1.259 . S
C93 O90 1.235 . S
O94 Co84 2.021 . S
O94 C91 1.238 . S
O95 Co89 2.052 . S
O95 C91 1.241 . S
O96 Co84 2.137 . S
O96 C87 1.247 . S
O97 Co84 2.244 . S
O97 C87 1.272 . S
O97 Co89 2.135 . S
Co98 O99 2.216 . S
Co98 O100 2.091 . S
Co98 O102 2.004 . S
Co98 O108 2.021 . S
Co98 O110 2.137 . S
Co98 O111 2.244 . S
O99 Co98 2.216 . S
O99 C106 1.247 . S
O100 Co98 2.091 . S
O100 C106 1.261 . S
C101 O110 1.247 . S
C101 O111 1.272 . S
O102 Co98 2.004 . S
O102 C107 1.259 . S
Co103 O104 2.061 . S
Co103 O109 2.052 . S
Co103 O111 2.135 . S
O104 Co103 2.061 . S
O104 C107 1.235 . S
C105 O108 1.238 . S
C105 O109 1.241 . S
C106 O99 1.247 . S
C106 O100 1.261 . S
C107 O102 1.259 . S
C107 O104 1.235 . S
O108 Co98 2.021 . S
O108 C105 1.238 . S
O109 Co103 2.052 . S
O109 C105 1.241 . S
O110 Co98 2.137 . S
O110 C101 1.247 . S
O111 Co98 2.244 . S
O111 C101 1.272 . S
O111 Co103 2.135 . S
Co112 O113 2.216 . S
Co112 O114 2.091 . S
Co112 O116 2.004 . S
Co112 O122 2.021 . S
Co112 O124 2.137 . S
Co112 O125 2.244 . S
O113 Co112 2.216 . S
O113 C120 1.247 . S
O114 Co112 2.091 . S
O114 C120 1.261 . S
C115 O124 1.247 . S
C115 O125 1.272 . S
O116 Co112 2.004 . S
O116 C121 1.259 . S
Co117 O118 2.061 . S
Co117 O123 2.052 . S
Co117 O125 2.135 . S
O118 Co117 2.061 . S
O118 C121 1.235 . S
C119 O122 1.238 . S
C119 O123 1.241 . S
C120 O113 1.247 . S
C120 O114 1.261 . S
C121 O116 1.259 . S
C121 O118 1.235 . S
O122 Co112 2.021 . S
O122 C119 1.238 . S
O123 Co117 2.052 . S
O123 C119 1.241 . S
O124 Co112 2.137 . S
O124 C115 1.247 . S
O125 Co112 2.244 . S
O125 C115 1.272 . S
O125 Co117 2.135 . S
Co126 O127 2.216 . S
Co126 O128 2.091 . S
Co126 O130 2.004 . S
Co126 O136 2.021 . S
Co126 O138 2.137 . S
Co126 O139 2.244 . S
O127 Co126 2.216 . S
O127 C134 1.247 . S
O128 Co126 2.091 . S
O128 C134 1.261 . S
C129 O138 1.247 . S
C129 O139 1.272 . S
O130 Co126 2.004 . S
O130 C135 1.259 . S
Co131 O132 2.061 . S
Co131 O137 2.052 . S
Co131 O139 2.135 . S
O132 Co131 2.061 . S
O132 C135 1.235 . S
C133 O136 1.238 . S
C133 O137 1.241 . S
C134 O127 1.247 . S
C134 O128 1.261 . S
C135 O130 1.259 . S
C135 O132 1.235 . S
O136 Co126 2.021 . S
O136 C133 1.238 . S
O137 Co131 2.052 . S
O137 C133 1.241 . S
O138 Co126 2.137 . S
O138 C129 1.247 . S
O139 Co126 2.244 . S
O139 C129 1.272 . S
O139 Co131 2.135 . S
Co140 O141 2.216 . S
Co140 O142 2.091 . S
Co140 O144 2.004 . S
Co140 O150 2.021 . S
Co140 O152 2.137 . S
Co140 O153 2.244 . S
O141 Co140 2.216 . S
O141 C148 1.247 . S
O142 Co140 2.091 . S
O142 C148 1.261 . S
C143 O152 1.247 . S
C143 O153 1.272 . S
O144 Co140 2.004 . S
O144 C149 1.259 . S
Co145 O146 2.061 . S
Co145 O151 2.052 . S
Co145 O153 2.135 . S
O146 Co145 2.061 . S
O146 C149 1.235 . S
C147 O150 1.238 . S
C147 O151 1.241 . S
C148 O141 1.247 . S
C148 O142 1.261 . S
C149 O144 1.259 . S
C149 O146 1.235 . S
O150 Co140 2.021 . S
O150 C147 1.238 . S
O151 Co145 2.052 . S
O151 C147 1.241 . S
O152 Co140 2.137 . S
O152 C143 1.247 . S
O153 Co140 2.244 . S
O153 C143 1.272 . S
O153 Co145 2.135 . S
Co154 O155 2.216 . S
Co154 O156 2.091 . S
Co154 O158 2.004 . S
Co154 O164 2.021 . S
Co154 O166 2.137 . S
Co154 O167 2.244 . S
O155 Co154 2.216 . S
O155 C162 1.247 . S
O156 Co154 2.091 . S
O156 C162 1.261 . S
C157 O166 1.247 . S
C157 O167 1.272 . S
O158 Co154 2.004 . S
O158 C163 1.259 . S
Co159 O160 2.061 . S
Co159 O165 2.052 . S
Co159 O167 2.135 . S
O160 Co159 2.061 . S
O160 C163 1.235 . S
C161 O164 1.238 . S
C161 O165 1.241 . S
C162 O155 1.247 . S
C162 O156 1.261 . S
C163 O158 1.259 . S
C163 O160 1.235 . S
O164 Co154 2.021 . S
O164 C161 1.238 . S
O165 Co159 2.052 . S
O165 C161 1.241 . S
O166 Co154 2.137 . S
O166 C157 1.247 . S
O167 Co154 2.244 . S
O167 C157 1.272 . S
O167 Co159 2.135 . S
C168 C169 1.349 . S
C168 C170 1.327 . S
C168 H193 0.950 . S
C169 C168 1.349 . S
C169 C185 1.349 . S
C170 C168 1.327 . S
C170 C189 1.429 . S
C170 H194 0.950 . S
C171 C188 1.574 1_556 S
C171 C190 1.368 . S
C171 H195 0.949 . S
H172 C176 0.949 . S
C173 C174 1.349 . S
C173 C175 1.327 . S
C173 H196 0.950 . S
C174 C173 1.349 . S
C174 C186 1.349 . S
C175 C173 1.327 . S
C175 C191 1.429 . S
C175 H197 0.950 . S
C176 H172 0.949 . S
C176 C184 1.574 1_554 S
C176 C192 1.368 . S
H177 C185 0.950 . S
H178 C183 0.950 . S
H179 C184 0.949 . S
H180 C186 0.950 . S
H181 C187 0.950 . S
H182 C188 0.949 . S
C183 H178 0.950 . S
C183 C185 1.327 . S
C183 C189 1.429 . S
C184 C176 1.574 1_556 S
C184 H179 0.949 . S
C184 C190 1.368 . S
C185 C169 1.349 . S
C185 H177 0.950 . S
C185 C183 1.327 . S
C186 C174 1.349 . S
C186 H180 0.950 . S
C186 C187 1.327 . S
C187 H181 0.950 . S
C187 C186 1.327 . S
C187 C191 1.429 . S
C188 C171 1.574 1_554 S
C188 H182 0.949 . S
C188 C192 1.368 . S
C189 C170 1.429 . S
C189 C183 1.429 . S
C189 C190 1.523 . S
C190 C171 1.368 . S
C190 C184 1.368 . S
C190 C189 1.523 . S
C191 C175 1.429 . S
C191 C187 1.429 . S
C191 C192 1.523 . S
C192 C176 1.368 . S
C192 C188 1.368 . S
C192 C191 1.523 . S
H193 C168 0.950 . S
H194 C170 0.950 . S
H195 C171 0.949 . S
H196 C173 0.950 . S
H197 C175 0.950 . S
C198 C199 1.349 . S
C198 C200 1.327 . S
C198 H223 0.950 . S
C199 C198 1.349 . S
C199 C215 1.349 . S
C200 C198 1.327 . S
C200 C219 1.429 . S
C200 H224 0.950 . S
C201 C218 1.574 . S
C201 C220 1.368 . S
C201 H225 0.949 . S
H202 C206 0.949 . S
C203 C204 1.349 . S
C203 C205 1.327 . S
C203 H226 0.950 . S
C204 C203 1.349 . S
C204 C216 1.349 . S
C205 C203 1.327 . S
C205 C221 1.429 . S
C205 H227 0.950 . S
C206 H202 0.949 . S
C206 C214 1.574 . S
C206 C222 1.368 . S
H207 C215 0.950 . S
H208 C213 0.950 . S
H209 C214 0.949 . S
H210 C216 0.950 . S
H211 C217 0.950 . S
H212 C218 0.949 . S
C213 H208 0.950 . S
C213 C215 1.327 . S
C213 C219 1.429 . S
C214 C206 1.574 . S
C214 H209 0.949 . S
C214 C220 1.368 . S
C215 C199 1.349 . S
C215 H207 0.950 . S
C215 C213 1.327 . S
C216 C204 1.349 . S
C216 H210 0.950 . S
C216 C217 1.327 . S
C217 H211 0.950 . S
C217 C216 1.327 . S
C217 C221 1.429 . S
C218 C201 1.574 . S
C218 H212 0.949 . S
C218 C222 1.368 . S
C219 C200 1.429 . S
C219 C213 1.429 . S
C219 C220 1.523 . S
C220 C201 1.368 . S
C220 C214 1.368 . S
C220 C219 1.523 . S
C221 C205 1.429 . S
C221 C217 1.429 . S
C221 C222 1.523 . S
C222 C206 1.368 . S
C222 C218 1.368 . S
C222 C221 1.523 . S
H223 C198 0.950 . S
H224 C200 0.950 . S
H225 C201 0.949 . S
H226 C203 0.950 . S
H227 C205 0.950 . S
C228 C229 1.349 . S
C228 C230 1.327 . S
C228 H253 0.950 . S
C229 C228 1.349 . S
C229 C245 1.349 . S
C230 C228 1.327 . S
C230 C249 1.429 . S
C230 H254 0.950 . S
C231 C248 1.574 . S
C231 C250 1.368 . S
C231 H255 0.949 . S
H232 C236 0.949 . S
C233 C234 1.349 . S
C233 C235 1.327 . S
C233 H256 0.950 . S
C234 C233 1.349 . S
C234 C246 1.349 . S
C235 C233 1.327 . S
C235 C251 1.429 . S
C235 H257 0.950 . S
C236 H232 0.949 . S
C236 C244 1.574 . S
C236 C252 1.368 . S
H237 C245 0.950 . S
H238 C243 0.950 . S
H239 C244 0.949 . S
H240 C246 0.950 . S
H241 C247 0.950 . S
H242 C248 0.949 . S
C243 H238 0.950 . S
C243 C245 1.327 . S
C243 C249 1.429 . S
C244 C236 1.574 . S
C244 H239 0.949 . S
C244 C250 1.368 . S
C245 C229 1.349 . S
C245 H237 0.950 . S
C245 C243 1.327 . S
C246 C234 1.349 . S
C246 H240 0.950 . S
C246 C247 1.327 . S
C247 H241 0.950 . S
C247 C246 1.327 . S
C247 C251 1.429 . S
C248 C231 1.574 . S
C248 H242 0.949 . S
C248 C252 1.368 . S
C249 C230 1.429 . S
C249 C243 1.429 . S
C249 C250 1.523 . S
C250 C231 1.368 . S
C250 C244 1.368 . S
C250 C249 1.523 . S
C251 C235 1.429 . S
C251 C247 1.429 . S
C251 C252 1.523 . S
C252 C236 1.368 . S
C252 C248 1.368 . S
C252 C251 1.523 . S
H253 C228 0.950 . S
H254 C230 0.950 . S
H255 C231 0.949 . S
H256 C233 0.950 . S
H257 C235 0.950 . S
C258 C259 1.349 . S
C258 C260 1.327 . S
C258 H283 0.950 . S
C259 C258 1.349 . S
C259 C275 1.349 . S
C260 C258 1.327 . S
C260 C279 1.429 . S
C260 H284 0.950 . S
C261 C278 1.574 1_554 S
C261 C280 1.368 . S
C261 H285 0.949 . S
H262 C266 0.949 . S
C263 C264 1.349 . S
C263 C265 1.327 . S
C263 H286 0.950 . S
C264 C263 1.349 . S
C264 C276 1.349 . S
C265 C263 1.327 . S
C265 C281 1.429 . S
C265 H287 0.950 . S
C266 H262 0.949 . S
C266 C274 1.574 1_556 S
C266 C282 1.368 . S
H267 C275 0.950 . S
H268 C273 0.950 . S
H269 C274 0.949 . S
H270 C276 0.950 . S
H271 C277 0.950 . S
H272 C278 0.949 . S
C273 H268 0.950 . S
C273 C275 1.327 . S
C273 C279 1.429 . S
C274 C266 1.574 1_554 S
C274 H269 0.949 . S
C274 C280 1.368 . S
C275 C259 1.349 . S
C275 H267 0.950 . S
C275 C273 1.327 . S
C276 C264 1.349 . S
C276 H270 0.950 . S
C276 C277 1.327 . S
C277 H271 0.950 . S
C277 C276 1.327 . S
C277 C281 1.429 . S
C278 C261 1.574 1_556 S
C278 H272 0.949 . S
C278 C282 1.368 . S
C279 C260 1.429 . S
C279 C273 1.429 . S
C279 C280 1.523 . S
C280 C261 1.368 . S
C280 C274 1.368 . S
C280 C279 1.523 . S
C281 C265 1.429 . S
C281 C277 1.429 . S
C281 C282 1.523 . S
C282 C266 1.368 . S
C282 C278 1.368 . S
C282 C281 1.523 . S
H283 C258 0.950 . S
H284 C260 0.950 . S
H285 C261 0.949 . S
H286 C263 0.950 . S
H287 C265 0.950 . S
C288 C289 1.349 . S
C288 C290 1.327 . S
C288 H313 0.950 . S
C289 C288 1.349 . S
C289 C305 1.349 . S
C290 C288 1.327 . S
C290 C309 1.429 . S
C290 H314 0.950 . S
C291 C308 1.574 . S
C291 C310 1.368 . S
C291 H315 0.949 . S
H292 C296 0.949 . S
C293 C294 1.349 . S
C293 C295 1.327 . S
C293 H316 0.950 . S
C294 C293 1.349 . S
C294 C306 1.349 . S
C295 C293 1.327 . S
C295 C311 1.429 . S
C295 H317 0.950 . S
C296 H292 0.949 . S
C296 C304 1.574 . S
C296 C312 1.368 . S
H297 C305 0.950 . S
H298 C303 0.950 . S
H299 C304 0.949 . S
H300 C306 0.950 . S
H301 C307 0.950 . S
H302 C308 0.949 . S
C303 H298 0.950 . S
C303 C305 1.327 . S
C303 C309 1.429 . S
C304 C296 1.574 . S
C304 H299 0.949 . S
C304 C310 1.368 . S
C305 C289 1.349 . S
C305 H297 0.950 . S
C305 C303 1.327 . S
C306 C294 1.349 . S
C306 H300 0.950 . S
C306 C307 1.327 . S
C307 H301 0.950 . S
C307 C306 1.327 . S
C307 C311 1.429 . S
C308 C291 1.574 . S
C308 H302 0.949 . S
C308 C312 1.368 . S
C309 C290 1.429 . S
C309 C303 1.429 . S
C309 C310 1.523 . S
C310 C291 1.368 . S
C310 C304 1.368 . S
C310 C309 1.523 . S
C311 C295 1.429 . S
C311 C307 1.429 . S
C311 C312 1.523 . S
C312 C296 1.368 . S
C312 C308 1.368 . S
C312 C311 1.523 . S
H313 C288 0.950 . S
H314 C290 0.950 . S
H315 C291 0.949 . S
H316 C293 0.950 . S
H317 C295 0.950 . S
C318 C319 1.349 . S
C318 C320 1.327 . S
C318 H343 0.950 . S
C319 C318 1.349 . S
C319 C335 1.349 . S
C320 C318 1.327 . S
C320 C339 1.429 . S
C320 H344 0.950 . S
C321 C338 1.574 . S
C321 C340 1.368 . S
C321 H345 0.949 . S
H322 C326 0.949 . S
C323 C324 1.349 . S
C323 C325 1.327 . S
C323 H346 0.950 . S
C324 C323 1.349 . S
C324 C336 1.349 . S
C325 C323 1.327 . S
C325 C341 1.429 . S
C325 H347 0.950 . S
C326 H322 0.949 . S
C326 C334 1.574 . S
C326 C342 1.368 . S
H327 C335 0.950 . S
H328 C333 0.950 . S
H329 C334 0.949 . S
H330 C336 0.950 . S
H331 C337 0.950 . S
H332 C338 0.949 . S
C333 H328 0.950 . S
C333 C335 1.327 . S
C333 C339 1.429 . S
C334 C326 1.574 . S
C334 H329 0.949 . S
C334 C340 1.368 . S
C335 C319 1.349 . S
C335 H327 0.950 . S
C335 C333 1.327 . S
C336 C324 1.349 . S
C336 H330 0.950 . S
C336 C337 1.327 . S
C337 H331 0.950 . S
C337 C336 1.327 . S
C337 C341 1.429 . S
C338 C321 1.574 . S
C338 H332 0.949 . S
C338 C342 1.368 . S
C339 C320 1.429 . S
C339 C333 1.429 . S
C339 C340 1.523 . S
C340 C321 1.368 . S
C340 C334 1.368 . S
C340 C339 1.523 . S
C341 C325 1.429 . S
C341 C337 1.429 . S
C341 C342 1.523 . S
C342 C326 1.368 . S
C342 C338 1.368 . S
C342 C341 1.523 . S
H343 C318 0.950 . S
H344 C320 0.950 . S
H345 C321 0.949 . S
H346 C323 0.950 . S
H347 C325 0.950 . S
C348 C349 1.349 . S
C348 C350 1.327 . S
C348 H373 0.950 . S
C349 C348 1.349 . S
C349 C365 1.349 . S
C350 C348 1.327 . S
C350 C369 1.429 . S
C350 H374 0.950 . S
C351 C368 1.574 . S
C351 C370 1.368 . S
C351 H375 0.949 . S
H352 C356 0.949 . S
C353 C354 1.349 . S
C353 C355 1.327 . S
C353 H376 0.950 . S
C354 C353 1.349 . S
C354 C366 1.349 . S
C355 C353 1.327 . S
C355 C371 1.429 . S
C355 H377 0.950 . S
C356 H352 0.949 . S
C356 C364 1.574 . S
C356 C372 1.368 . S
H357 C365 0.950 . S
H358 C363 0.950 . S
H359 C364 0.949 . S
H360 C366 0.950 . S
H361 C367 0.950 . S
H362 C368 0.949 . S
C363 H358 0.950 . S
C363 C365 1.327 . S
C363 C369 1.429 . S
C364 C356 1.574 . S
C364 H359 0.949 . S
C364 C370 1.368 . S
C365 C349 1.349 . S
C365 H357 0.950 . S
C365 C363 1.327 . S
C366 C354 1.349 . S
C366 H360 0.950 . S
C366 C367 1.327 . S
C367 H361 0.950 . S
C367 C366 1.327 . S
C367 C371 1.429 . S
C368 C351 1.574 . S
C368 H362 0.949 . S
C368 C372 1.368 . S
C369 C350 1.429 . S
C369 C363 1.429 . S
C369 C370 1.523 . S
C370 C351 1.368 . S
C370 C364 1.368 . S
C370 C369 1.523 . S
C371 C355 1.429 . S
C371 C367 1.429 . S
C371 C372 1.523 . S
C372 C356 1.368 . S
C372 C368 1.368 . S
C372 C371 1.523 . S
H373 C348 0.950 . S
H374 C350 0.950 . S
H375 C351 0.949 . S
H376 C353 0.950 . S
H377 C355 0.950 . S
C378 C379 1.349 . S
C378 C380 1.327 . S
C378 H403 0.950 . S
C379 C378 1.349 . S
C379 C395 1.349 . S
C380 C378 1.327 . S
C380 C399 1.429 . S
C380 H404 0.950 . S
C381 C398 1.574 . S
C381 C400 1.368 . S
C381 H405 0.949 . S
H382 C386 0.949 . S
C383 C384 1.349 . S
C383 C385 1.327 . S
C383 H406 0.950 . S
C384 C383 1.349 . S
C384 C396 1.349 . S
C385 C383 1.327 . S
C385 C401 1.429 . S
C385 H407 0.950 . S
C386 H382 0.949 . S
C386 C394 1.574 . S
C386 C402 1.368 . S
H387 C395 0.950 . S
H388 C393 0.950 . S
H389 C394 0.949 . S
H390 C396 0.950 . S
H391 C397 0.950 . S
H392 C398 0.949 . S
C393 H388 0.950 . S
C393 C395 1.327 . S
C393 C399 1.429 . S
C394 C386 1.574 . S
C394 H389 0.949 . S
C394 C400 1.368 . S
C395 C379 1.349 . S
C395 H387 0.950 . S
C395 C393 1.327 . S
C396 C384 1.349 . S
C396 H390 0.950 . S
C396 C397 1.327 . S
C397 H391 0.950 . S
C397 C396 1.327 . S
C397 C401 1.429 . S
C398 C381 1.574 . S
C398 H392 0.949 . S
C398 C402 1.368 . S
C399 C380 1.429 . S
C399 C393 1.429 . S
C399 C400 1.523 . S
C400 C381 1.368 . S
C400 C394 1.368 . S
C400 C399 1.523 . S
C401 C385 1.429 . S
C401 C397 1.429 . S
C401 C402 1.523 . S
C402 C386 1.368 . S
C402 C398 1.368 . S
C402 C401 1.523 . S
H403 C378 0.950 . S
H404 C380 0.950 . S
H405 C381 0.949 . S
H406 C383 0.950 . S
H407 C385 0.950 . S
C408 C409 1.349 . S
C408 C410 1.327 . S
C408 H433 0.950 . S
C409 C408 1.349 . S
C409 C425 1.349 . S
C410 C408 1.327 . S
C410 C429 1.429 . S
C410 H434 0.950 . S
C411 C428 1.574 . S
C411 C430 1.368 . S
C411 H435 0.949 . S
H412 C416 0.949 . S
C413 C414 1.349 . S
C413 C415 1.327 . S
C413 H436 0.950 . S
C414 C413 1.349 . S
C414 C426 1.349 . S
C415 C413 1.327 . S
C415 C431 1.429 . S
C415 H437 0.950 . S
C416 H412 0.949 . S
C416 C424 1.574 . S
C416 C432 1.368 . S
H417 C425 0.950 . S
H418 C423 0.950 . S
H419 C424 0.949 . S
H420 C426 0.950 . S
H421 C427 0.950 . S
H422 C428 0.949 . S
C423 H418 0.950 . S
C423 C425 1.327 . S
C423 C429 1.429 . S
C424 C416 1.574 . S
C424 H419 0.949 . S
C424 C430 1.368 . S
C425 C409 1.349 . S
C425 H417 0.950 . S
C425 C423 1.327 . S
C426 C414 1.349 . S
C426 H420 0.950 . S
C426 C427 1.327 . S
C427 H421 0.950 . S
C427 C426 1.327 . S
C427 C431 1.429 . S
C428 C411 1.574 . S
C428 H422 0.949 . S
C428 C432 1.368 . S
C429 C410 1.429 . S
C429 C423 1.429 . S
C429 C430 1.523 . S
C430 C411 1.368 . S
C430 C424 1.368 . S
C430 C429 1.523 . S
C431 C415 1.429 . S
C431 C427 1.429 . S
C431 C432 1.523 . S
C432 C416 1.368 . S
C432 C428 1.368 . S
C432 C431 1.523 . S
H433 C408 0.950 . S
H434 C410 0.950 . S
H435 C411 0.949 . S
H436 C413 0.950 . S
H437 C415 0.950 . S
C438 C439 1.349 . S
C438 C440 1.327 . S
C438 H463 0.950 . S
C439 C438 1.349 . S
C439 C455 1.349 . S
C440 C438 1.327 . S
C440 C459 1.429 . S
C440 H464 0.950 . S
C441 C458 1.574 . S
C441 C460 1.368 . S
C441 H465 0.949 . S
H442 C446 0.949 . S
C443 C444 1.349 . S
C443 C445 1.327 . S
C443 H466 0.950 . S
C444 C443 1.349 . S
C444 C456 1.349 . S
C445 C443 1.327 . S
C445 C461 1.429 . S
C445 H467 0.950 . S
C446 H442 0.949 . S
C446 C454 1.574 . S
C446 C462 1.368 . S
H447 C455 0.950 . S
H448 C453 0.950 . S
H449 C454 0.949 . S
H450 C456 0.950 . S
H451 C457 0.950 . S
H452 C458 0.949 . S
C453 H448 0.950 . S
C453 C455 1.327 . S
C453 C459 1.429 . S
C454 C446 1.574 . S
C454 H449 0.949 . S
C454 C460 1.368 . S
C455 C439 1.349 . S
C455 H447 0.950 . S
C455 C453 1.327 . S
C456 C444 1.349 . S
C456 H450 0.950 . S
C456 C457 1.327 . S
C457 H451 0.950 . S
C457 C456 1.327 . S
C457 C461 1.429 . S
C458 C441 1.574 . S
C458 H452 0.949 . S
C458 C462 1.368 . S
C459 C440 1.429 . S
C459 C453 1.429 . S
C459 C460 1.523 . S
C460 C441 1.368 . S
C460 C454 1.368 . S
C460 C459 1.523 . S
C461 C445 1.429 . S
C461 C457 1.429 . S
C461 C462 1.523 . S
C462 C446 1.368 . S
C462 C458 1.368 . S
C462 C461 1.523 . S
H463 C438 0.950 . S
H464 C440 0.950 . S
H465 C441 0.949 . S
H466 C443 0.950 . S
H467 C445 0.950 . S
C468 C469 1.349 . S
C468 C470 1.327 . S
C468 H493 0.950 . S
C469 C468 1.349 . S
C469 C485 1.349 . S
C470 C468 1.327 . S
C470 C489 1.429 . S
C470 H494 0.950 . S
C471 C488 1.574 . S
C471 C490 1.368 . S
C471 H495 0.949 . S
H472 C476 0.949 . S
C473 C474 1.349 . S
C473 C475 1.327 . S
C473 H496 0.950 . S
C474 C473 1.349 . S
C474 C486 1.349 . S
C475 C473 1.327 . S
C475 C491 1.429 . S
C475 H497 0.950 . S
C476 H472 0.949 . S
C476 C484 1.574 . S
C476 C492 1.368 . S
H477 C485 0.950 . S
H478 C483 0.950 . S
H479 C484 0.949 . S
H480 C486 0.950 . S
H481 C487 0.950 . S
H482 C488 0.949 . S
C483 H478 0.950 . S
C483 C485 1.327 . S
C483 C489 1.429 . S
C484 C476 1.574 . S
C484 H479 0.949 . S
C484 C490 1.368 . S
C485 C469 1.349 . S
C485 H477 0.950 . S
C485 C483 1.327 . S
C486 C474 1.349 . S
C486 H480 0.950 . S
C486 C487 1.327 . S
C487 H481 0.950 . S
C487 C486 1.327 . S
C487 C491 1.429 . S
C488 C471 1.574 . S
C488 H482 0.949 . S
C488 C492 1.368 . S
C489 C470 1.429 . S
C489 C483 1.429 . S
C489 C490 1.523 . S
C490 C471 1.368 . S
C490 C484 1.368 . S
C490 C489 1.523 . S
C491 C475 1.429 . S
C491 C487 1.429 . S
C491 C492 1.523 . S
C492 C476 1.368 . S
C492 C488 1.368 . S
C492 C491 1.523 . S
H493 C468 0.950 . S
H494 C470 0.950 . S
H495 C471 0.949 . S
H496 C473 0.950 . S
H497 C475 0.950 . S
C498 C499 1.349 . S
C498 C500 1.327 . S
C498 H523 0.950 . S
C499 C498 1.349 . S
C499 C515 1.349 . S
C500 C498 1.327 . S
C500 C519 1.429 . S
C500 H524 0.950 . S
C501 C518 1.574 . S
C501 C520 1.368 . S
C501 H525 0.949 . S
H502 C506 0.949 . S
C503 C504 1.349 . S
C503 C505 1.327 . S
C503 H526 0.950 . S
C504 C503 1.349 . S
C504 C516 1.349 . S
C505 C503 1.327 . S
C505 C521 1.429 . S
C505 H527 0.950 . S
C506 H502 0.949 . S
C506 C514 1.574 . S
C506 C522 1.368 . S
H507 C515 0.950 . S
H508 C513 0.950 . S
H509 C514 0.949 . S
H510 C516 0.950 . S
H511 C517 0.950 . S
H512 C518 0.949 . S
C513 H508 0.950 . S
C513 C515 1.327 . S
C513 C519 1.429 . S
C514 C506 1.574 . S
C514 H509 0.949 . S
C514 C520 1.368 . S
C515 C499 1.349 . S
C515 H507 0.950 . S
C515 C513 1.327 . S
C516 C504 1.349 . S
C516 H510 0.950 . S
C516 C517 1.327 . S
C517 H511 0.950 . S
C517 C516 1.327 . S
C517 C521 1.429 . S
C518 C501 1.574 . S
C518 H512 0.949 . S
C518 C522 1.368 . S
C519 C500 1.429 . S
C519 C513 1.429 . S
C519 C520 1.523 . S
C520 C501 1.368 . S
C520 C514 1.368 . S
C520 C519 1.523 . S
C521 C505 1.429 . S
C521 C517 1.429 . S
C521 C522 1.523 . S
C522 C506 1.368 . S
C522 C518 1.368 . S
C522 C521 1.523 . S
H523 C498 0.950 . S
H524 C500 0.950 . S
H525 C501 0.949 . S
H526 C503 0.950 . S
H527 C505 0.950 . S
C528 C529 1.349 . S
C528 C530 1.327 . S
C528 H553 0.950 . S
C529 C528 1.349 . S
C529 C545 1.349 . S
C530 C528 1.327 . S
C530 C549 1.429 . S
C530 H554 0.950 . S
C531 C548 1.574 1_655 S
C531 C550 1.368 . S
C531 H555 0.949 . S
H532 C536 0.949 . S
C533 C534 1.349 . S
C533 C535 1.327 . S
C533 H556 0.950 . S
C534 C533 1.349 . S
C534 C546 1.349 . S
C535 C533 1.327 . S
C535 C551 1.429 . S
C535 H557 0.950 . S
C536 H532 0.949 . S
C536 C544 1.574 1_455 S
C536 C552 1.368 . S
H537 C545 0.950 . S
H538 C543 0.950 . S
H539 C544 0.949 . S
H540 C546 0.950 . S
H541 C547 0.950 . S
H542 C548 0.949 . S
C543 H538 0.950 . S
C543 C545 1.327 . S
C543 C549 1.429 . S
C544 C536 1.574 1_655 S
C544 H539 0.949 . S
C544 C550 1.368 . S
C545 C529 1.349 . S
C545 H537 0.950 . S
C545 C543 1.327 . S
C546 C534 1.349 . S
C546 H540 0.950 . S
C546 C547 1.327 . S
C547 H541 0.950 . S
C547 C546 1.327 . S
C547 C551 1.429 . S
C548 C531 1.574 1_455 S
C548 H542 0.949 . S
C548 C552 1.368 . S
C549 C530 1.429 . S
C549 C543 1.429 . S
C549 C550 1.523 . S
C550 C531 1.368 . S
C550 C544 1.368 . S
C550 C549 1.523 . S
C551 C535 1.429 . S
C551 C547 1.429 . S
C551 C552 1.523 . S
C552 C536 1.368 . S
C552 C548 1.368 . S
C552 C551 1.523 . S
H553 C528 0.950 . S
H554 C530 0.950 . S
H555 C531 0.949 . S
H556 C533 0.950 . S
H557 C535 0.950 . S
C558 C559 1.349 . S
C558 C560 1.327 . S
C558 H583 0.950 . S
C559 C558 1.349 . S
C559 C575 1.349 . S
C560 C558 1.327 . S
C560 C579 1.429 . S
C560 H584 0.950 . S
C561 C578 1.574 1_545 S
C561 C580 1.368 . S
C561 H585 0.949 . S
H562 C566 0.949 . S
C563 C564 1.349 . S
C563 C565 1.327 . S
C563 H586 0.950 . S
C564 C563 1.349 . S
C564 C576 1.349 . S
C565 C563 1.327 . S
C565 C581 1.429 . S
C565 H587 0.950 . S
C566 H562 0.949 . S
C566 C574 1.574 1_565 S
C566 C582 1.368 . S
H567 C575 0.950 . S
H568 C573 0.950 . S
H569 C574 0.949 . S
H570 C576 0.950 . S
H571 C577 0.950 . S
H572 C578 0.949 . S
C573 H568 0.950 . S
C573 C575 1.327 . S
C573 C579 1.429 . S
C574 C566 1.574 1_545 S
C574 H569 0.949 . S
C574 C580 1.368 . S
C575 C559 1.349 . S
C575 H567 0.950 . S
C575 C573 1.327 . S
C576 C564 1.349 . S
C576 H570 0.950 . S
C576 C577 1.327 . S
C577 H571 0.950 . S
C577 C576 1.327 . S
C577 C581 1.429 . S
C578 C561 1.574 1_565 S
C578 H572 0.949 . S
C578 C582 1.368 . S
C579 C560 1.429 . S
C579 C573 1.429 . S
C579 C580 1.523 . S
C580 C561 1.368 . S
C580 C574 1.368 . S
C580 C579 1.523 . S
C581 C565 1.429 . S
C581 C577 1.429 . S
C581 C582 1.523 . S
C582 C566 1.368 . S
C582 C578 1.368 . S
C582 C581 1.523 . S
H583 C558 0.950 . S
H584 C560 0.950 . S
H585 C561 0.949 . S
H586 C563 0.950 . S
H587 C565 0.950 . S
C588 C589 1.349 . S
C588 C590 1.327 . S
C588 H613 0.950 . S
C589 C588 1.349 . S
C589 C605 1.349 . S
C590 C588 1.327 . S
C590 C609 1.429 . S
C590 H614 0.950 . S
C591 C608 1.574 . S
C591 C610 1.368 . S
C591 H615 0.949 . S
H592 C596 0.949 . S
C593 C594 1.349 . S
C593 C595 1.327 . S
C593 H616 0.950 . S
C594 C593 1.349 . S
C594 C606 1.349 . S
C595 C593 1.327 . S
C595 C611 1.429 . S
C595 H617 0.950 . S
C596 H592 0.949 . S
C596 C604 1.574 . S
C596 C612 1.368 . S
H597 C605 0.950 . S
H598 C603 0.950 . S
H599 C604 0.949 . S
H600 C606 0.950 . S
H601 C607 0.950 . S
H602 C608 0.949 . S
C603 H598 0.950 . S
C603 C605 1.327 . S
C603 C609 1.429 . S
C604 C596 1.574 . S
C604 H599 0.949 . S
C604 C610 1.368 . S
C605 C589 1.349 . S
C605 H597 0.950 . S
C605 C603 1.327 . S
C606 C594 1.349 . S
C606 H600 0.950 . S
C606 C607 1.327 . S
C607 H601 0.950 . S
C607 C606 1.327 . S
C607 C611 1.429 . S
C608 C591 1.574 . S
C608 H602 0.949 . S
C608 C612 1.368 . S
C609 C590 1.429 . S
C609 C603 1.429 . S
C609 C610 1.523 . S
C610 C591 1.368 . S
C610 C604 1.368 . S
C610 C609 1.523 . S
C611 C595 1.429 . S
C611 C607 1.429 . S
C611 C612 1.523 . S
C612 C596 1.368 . S
C612 C608 1.368 . S
C612 C611 1.523 . S
H613 C588 0.950 . S
H614 C590 0.950 . S
H615 C591 0.949 . S
H616 C593 0.950 . S
H617 C595 0.950 . S
C618 C619 1.349 . S
C618 C620 1.327 . S
C618 H643 0.950 . S
C619 C618 1.349 . S
C619 C635 1.349 . S
C620 C618 1.327 . S
C620 C639 1.429 . S
C620 H644 0.950 . S
C621 C638 1.574 1_545 S
C621 C640 1.368 . S
C621 H645 0.949 . S
H622 C626 0.949 . S
C623 C624 1.349 . S
C623 C625 1.327 . S
C623 H646 0.950 . S
C624 C623 1.349 . S
C624 C636 1.349 . S
C625 C623 1.327 . S
C625 C641 1.429 . S
C625 H647 0.950 . S
C626 H622 0.949 . S
C626 C634 1.574 1_565 S
C626 C642 1.368 . S
H627 C635 0.950 . S
H628 C633 0.950 . S
H629 C634 0.949 . S
H630 C636 0.950 . S
H631 C637 0.950 . S
H632 C638 0.949 . S
C633 H628 0.950 . S
C633 C635 1.327 . S
C633 C639 1.429 . S
C634 C626 1.574 1_545 S
C634 H629 0.949 . S
C634 C640 1.368 . S
C635 C619 1.349 . S
C635 H627 0.950 . S
C635 C633 1.327 . S
C636 C624 1.349 . S
C636 H630 0.950 . S
C636 C637 1.327 . S
C637 H631 0.950 . S
C637 C636 1.327 . S
C637 C641 1.429 . S
C638 C621 1.574 1_565 S
C638 H632 0.949 . S
C638 C642 1.368 . S
C639 C620 1.429 . S
C639 C633 1.429 . S
C639 C640 1.523 . S
C640 C621 1.368 . S
C640 C634 1.368 . S
C640 C639 1.523 . S
C641 C625 1.429 . S
C641 C637 1.429 . S
C641 C642 1.523 . S
C642 C626 1.368 . S
C642 C638 1.368 . S
C642 C641 1.523 . S
H643 C618 0.950 . S
H644 C620 0.950 . S
H645 C621 0.949 . S
H646 C623 0.950 . S
H647 C625 0.950 . S
C648 C649 1.349 . S
C648 C650 1.327 . S
C648 H673 0.950 . S
C649 C648 1.349 . S
C649 C665 1.349 . S
C650 C648 1.327 . S
C650 C669 1.429 . S
C650 H674 0.950 . S
C651 C668 1.574 . S
C651 C670 1.368 . S
C651 H675 0.949 . S
H652 C656 0.949 . S
C653 C654 1.349 . S
C653 C655 1.327 . S
C653 H676 0.950 . S
C654 C653 1.349 . S
C654 C666 1.349 . S
C655 C653 1.327 . S
C655 C671 1.429 . S
C655 H677 0.950 . S
C656 H652 0.949 . S
C656 C664 1.574 . S
C656 C672 1.368 . S
H657 C665 0.950 . S
H658 C663 0.950 . S
H659 C664 0.949 . S
H660 C666 0.950 . S
H661 C667 0.950 . S
H662 C668 0.949 . S
C663 H658 0.950 . S
C663 C665 1.327 . S
C663 C669 1.429 . S
C664 C656 1.574 . S
C664 H659 0.949 . S
C664 C670 1.368 . S
C665 C649 1.349 . S
C665 H657 0.950 . S
C665 C663 1.327 . S
C666 C654 1.349 . S
C666 H660 0.950 . S
C666 C667 1.327 . S
C667 H661 0.950 . S
C667 C666 1.327 . S
C667 C671 1.429 . S
C668 C651 1.574 . S
C668 H662 0.949 . S
C668 C672 1.368 . S
C669 C650 1.429 . S
C669 C663 1.429 . S
C669 C670 1.523 . S
C670 C651 1.368 . S
C670 C664 1.368 . S
C670 C669 1.523 . S
C671 C655 1.429 . S
C671 C667 1.429 . S
C671 C672 1.523 . S
C672 C656 1.368 . S
C672 C668 1.368 . S
C672 C671 1.523 . S
H673 C648 0.950 . S
H674 C650 0.950 . S
H675 C651 0.949 . S
H676 C653 0.950 . S
H677 C655 0.950 . S
C678 C679 1.349 . S
C678 C680 1.327 . S
C678 H703 0.950 . S
C679 C678 1.349 . S
C679 C695 1.349 . S
C680 C678 1.327 . S
C680 C699 1.429 . S
C680 H704 0.950 . S
C681 C698 1.574 1_455 S
C681 C700 1.368 . S
C681 H705 0.949 . S
H682 C686 0.949 . S
C683 C684 1.349 . S
C683 C685 1.327 . S
C683 H706 0.950 . S
C684 C683 1.349 . S
C684 C696 1.349 . S
C685 C683 1.327 . S
C685 C701 1.429 . S
C685 H707 0.950 . S
C686 H682 0.949 . S
C686 C694 1.574 1_655 S
C686 C702 1.368 . S
H687 C695 0.950 . S
H688 C693 0.950 . S
H689 C694 0.949 . S
H690 C696 0.950 . S
H691 C697 0.950 . S
H692 C698 0.949 . S
C693 H688 0.950 . S
C693 C695 1.327 . S
C693 C699 1.429 . S
C694 C686 1.574 1_455 S
C694 H689 0.949 . S
C694 C700 1.368 . S
C695 C679 1.349 . S
C695 H687 0.950 . S
C695 C693 1.327 . S
C696 C684 1.349 . S
C696 H690 0.950 . S
C696 C697 1.327 . S
C697 H691 0.950 . S
C697 C696 1.327 . S
C697 C701 1.429 . S
C698 C681 1.574 1_655 S
C698 H692 0.949 . S
C698 C702 1.368 . S
C699 C680 1.429 . S
C699 C693 1.429 . S
C699 C700 1.523 . S
C700 C681 1.368 . S
C700 C694 1.368 . S
C700 C699 1.523 . S
C701 C685 1.429 . S
C701 C697 1.429 . S
C701 C702 1.523 . S
C702 C686 1.368 . S
C702 C698 1.368 . S
C702 C701 1.523 . S
H703 C678 0.950 . S
H704 C680 0.950 . S
H705 C681 0.949 . S
H706 C683 0.950 . S
H707 C685 0.950 . S
C708 C709 1.349 . S
C708 C710 1.327 . S
C708 H733 0.950 . S
C709 C708 1.349 . S
C709 C725 1.349 . S
C710 C708 1.327 . S
C710 C729 1.429 . S
C710 H734 0.950 . S
C711 C728 1.574 . S
C711 C730 1.368 . S
C711 H735 0.949 . S
H712 C716 0.949 . S
C713 C714 1.349 . S
C713 C715 1.327 . S
C713 H736 0.950 . S
C714 C713 1.349 . S
C714 C726 1.349 . S
C715 C713 1.327 . S
C715 C731 1.429 . S
C715 H737 0.950 . S
C716 H712 0.949 . S
C716 C724 1.574 . S
C716 C732 1.368 . S
H717 C725 0.950 . S
H718 C723 0.950 . S
H719 C724 0.949 . S
H720 C726 0.950 . S
H721 C727 0.950 . S
H722 C728 0.949 . S
C723 H718 0.950 . S
C723 C725 1.327 . S
C723 C729 1.429 . S
C724 C716 1.574 . S
C724 H719 0.949 . S
C724 C730 1.368 . S
C725 C709 1.349 . S
C725 H717 0.950 . S
C725 C723 1.327 . S
C726 C714 1.349 . S
C726 H720 0.950 . S
C726 C727 1.327 . S
C727 H721 0.950 . S
C727 C726 1.327 . S
C727 C731 1.429 . S
C728 C711 1.574 . S
C728 H722 0.949 . S
C728 C732 1.368 . S
C729 C710 1.429 . S
C729 C723 1.429 . S
C729 C730 1.523 . S
C730 C711 1.368 . S
C730 C724 1.368 . S
C730 C729 1.523 . S
C731 C715 1.429 . S
C731 C727 1.429 . S
C731 C732 1.523 . S
C732 C716 1.368 . S
C732 C728 1.368 . S
C732 C731 1.523 . S
H733 C708 0.950 . S
H734 C710 0.950 . S
H735 C711 0.949 . S
H736 C713 0.950 . S
H737 C715 0.950 . S
C738 C739 1.349 . S
C738 C740 1.327 . S
C738 H763 0.950 . S
C739 C738 1.349 . S
C739 C755 1.349 . S
C740 C738 1.327 . S
C740 C759 1.429 . S
C740 H764 0.950 . S
C741 C758 1.574 1_655 S
C741 C760 1.368 . S
C741 H765 0.949 . S
H742 C746 0.949 . S
C743 C744 1.349 . S
C743 C745 1.327 . S
C743 H766 0.950 . S
C744 C743 1.349 . S
C744 C756 1.349 . S
C745 C743 1.327 . S
C745 C761 1.429 . S
C745 H767 0.950 . S
C746 H742 0.949 . S
C746 C754 1.574 1_455 S
C746 C762 1.368 . S
H747 C755 0.950 . S
H748 C753 0.950 . S
H749 C754 0.949 . S
H750 C756 0.950 . S
H751 C757 0.950 . S
H752 C758 0.949 . S
C753 H748 0.950 . S
C753 C755 1.327 . S
C753 C759 1.429 . S
C754 C746 1.574 1_655 S
C754 H749 0.949 . S
C754 C760 1.368 . S
C755 C739 1.349 . S
C755 H747 0.950 . S
C755 C753 1.327 . S
C756 C744 1.349 . S
C756 H750 0.950 . S
C756 C757 1.327 . S
C757 H751 0.950 . S
C757 C756 1.327 . S
C757 C761 1.429 . S
C758 C741 1.574 1_455 S
C758 H752 0.949 . S
C758 C762 1.368 . S
C759 C740 1.429 . S
C759 C753 1.429 . S
C759 C760 1.523 . S
C760 C741 1.368 . S
C760 C754 1.368 . S
C760 C759 1.523 . S
C761 C745 1.429 . S
C761 C757 1.429 . S
C761 C762 1.523 . S
C762 C746 1.368 . S
C762 C758 1.368 . S
C762 C761 1.523 . S
H763 C738 0.950 . S
H764 C740 0.950 . S
H765 C741 0.949 . S
H766 C743 0.950 . S
H767 C745 0.950 . S
C768 C769 1.349 . S
C768 C770 1.327 . S
C768 H793 0.950 . S
C769 C768 1.349 . S
C769 C785 1.349 . S
C770 C768 1.327 . S
C770 C789 1.429 . S
C770 H794 0.950 . S
C771 C788 1.574 1_545 S
C771 C790 1.368 . S
C771 H795 0.949 . S
H772 C776 0.949 . S
C773 C774 1.349 . S
C773 C775 1.327 . S
C773 H796 0.950 . S
C774 C773 1.349 . S
C774 C786 1.349 . S
C775 C773 1.327 . S
C775 C791 1.429 . S
C775 H797 0.950 . S
C776 H772 0.949 . S
C776 C784 1.574 1_565 S
C776 C792 1.368 . S
H777 C785 0.950 . S
H778 C783 0.950 . S
H779 C784 0.949 . S
H780 C786 0.950 . S
H781 C787 0.950 . S
H782 C788 0.949 . S
C783 H778 0.950 . S
C783 C785 1.327 . S
C783 C789 1.429 . S
C784 C776 1.574 1_545 S
C784 H779 0.949 . S
C784 C790 1.368 . S
C785 C769 1.349 . S
C785 H777 0.950 . S
C785 C783 1.327 . S
C786 C774 1.349 . S
C786 H780 0.950 . S
C786 C787 1.327 . S
C787 H781 0.950 . S
C787 C786 1.327 . S
C787 C791 1.429 . S
C788 C771 1.574 1_565 S
C788 H782 0.949 . S
C788 C792 1.368 . S
C789 C770 1.429 . S
C789 C783 1.429 . S
C789 C790 1.523 . S
C790 C771 1.368 . S
C790 C784 1.368 . S
C790 C789 1.523 . S
C791 C775 1.429 . S
C791 C787 1.429 . S
C791 C792 1.523 . S
C792 C776 1.368 . S
C792 C788 1.368 . S
C792 C791 1.523 . S
H793 C768 0.950 . S
H794 C770 0.950 . S
H795 C771 0.949 . S
H796 C773 0.950 . S
H797 C775 0.950 . S
C798 C799 1.349 . S
C798 C800 1.327 . S
C798 H823 0.950 . S
C799 C798 1.349 . S
C799 C815 1.349 . S
C800 C798 1.327 . S
C800 C819 1.429 . S
C800 H824 0.950 . S
C801 C818 1.574 . S
C801 C820 1.368 . S
C801 H825 0.949 . S
H802 C806 0.949 . S
C803 C804 1.349 . S
C803 C805 1.327 . S
C803 H826 0.950 . S
C804 C803 1.349 . S
C804 C816 1.349 . S
C805 C803 1.327 . S
C805 C821 1.429 . S
C805 H827 0.950 . S
C806 H802 0.949 . S
C806 C814 1.574 . S
C806 C822 1.368 . S
H807 C815 0.950 . S
H808 C813 0.950 . S
H809 C814 0.949 . S
H810 C816 0.950 . S
H811 C817 0.950 . S
H812 C818 0.949 . S
C813 H808 0.950 . S
C813 C815 1.327 . S
C813 C819 1.429 . S
C814 C806 1.574 . S
C814 H809 0.949 . S
C814 C820 1.368 . S
C815 C799 1.349 . S
C815 H807 0.950 . S
C815 C813 1.327 . S
C816 C804 1.349 . S
C816 H810 0.950 . S
C816 C817 1.327 . S
C817 H811 0.950 . S
C817 C816 1.327 . S
C817 C821 1.429 . S
C818 C801 1.574 . S
C818 H812 0.949 . S
C818 C822 1.368 . S
C819 C800 1.429 . S
C819 C813 1.429 . S
C819 C820 1.523 . S
C820 C801 1.368 . S
C820 C814 1.368 . S
C820 C819 1.523 . S
C821 C805 1.429 . S
C821 C817 1.429 . S
C821 C822 1.523 . S
C822 C806 1.368 . S
C822 C818 1.368 . S
C822 C821 1.523 . S
H823 C798 0.950 . S
H824 C800 0.950 . S
H825 C801 0.949 . S
H826 C803 0.950 . S
H827 C805 0.950 . S
C828 C829 1.349 . S
C828 C830 1.327 . S
C828 H853 0.950 . S
C829 C828 1.349 . S
C829 C845 1.349 . S
C830 C828 1.327 . S
C830 C849 1.429 . S
C830 H854 0.950 . S
C831 C848 1.574 1_455 S
C831 C850 1.368 . S
C831 H855 0.949 . S
H832 C836 0.949 . S
C833 C834 1.349 . S
C833 C835 1.327 . S
C833 H856 0.950 . S
C834 C833 1.349 . S
C834 C846 1.349 . S
C835 C833 1.327 . S
C835 C851 1.429 . S
C835 H857 0.950 . S
C836 H832 0.949 . S
C836 C844 1.574 1_655 S
C836 C852 1.368 . S
H837 C845 0.950 . S
H838 C843 0.950 . S
H839 C844 0.949 . S
H840 C846 0.950 . S
H841 C847 0.950 . S
H842 C848 0.949 . S
C843 H838 0.950 . S
C843 C845 1.327 . S
C843 C849 1.429 . S
C844 C836 1.574 1_455 S
C844 H839 0.949 . S
C844 C850 1.368 . S
C845 C829 1.349 . S
C845 H837 0.950 . S
C845 C843 1.327 . S
C846 C834 1.349 . S
C846 H840 0.950 . S
C846 C847 1.327 . S
C847 H841 0.950 . S
C847 C846 1.327 . S
C847 C851 1.429 . S
C848 C831 1.574 1_655 S
C848 H842 0.949 . S
C848 C852 1.368 . S
C849 C830 1.429 . S
C849 C843 1.429 . S
C849 C850 1.523 . S
C850 C831 1.368 . S
C850 C844 1.368 . S
C850 C849 1.523 . S
C851 C835 1.429 . S
C851 C847 1.429 . S
C851 C852 1.523 . S
C852 C836 1.368 . S
C852 C848 1.368 . S
C852 C851 1.523 . S
H853 C828 0.950 . S
H854 C830 0.950 . S
H855 C831 0.949 . S
H856 C833 0.950 . S
H857 C835 0.950 . S
C858 C859 1.349 . S
C858 C860 1.327 . S
C858 H883 0.950 . S
C859 C858 1.349 . S
C859 C875 1.349 . S
C860 C858 1.327 . S
C860 C879 1.429 . S
C860 H884 0.950 . S
C861 C878 1.574 1_565 S
C861 C880 1.368 . S
C861 H885 0.949 . S
H862 C866 0.949 . S
C863 C864 1.349 . S
C863 C865 1.327 . S
C863 H886 0.950 . S
C864 C863 1.349 . S
C864 C876 1.349 . S
C865 C863 1.327 . S
C865 C881 1.429 . S
C865 H887 0.950 . S
C866 H862 0.949 . S
C866 C874 1.574 1_545 S
C866 C882 1.368 . S
H867 C875 0.950 . S
H868 C873 0.950 . S
H869 C874 0.949 . S
H870 C876 0.950 . S
H871 C877 0.950 . S
H872 C878 0.949 . S
C873 H868 0.950 . S
C873 C875 1.327 . S
C873 C879 1.429 . S
C874 C866 1.574 1_565 S
C874 H869 0.949 . S
C874 C880 1.368 . S
C875 C859 1.349 . S
C875 H867 0.950 . S
C875 C873 1.327 . S
C876 C864 1.349 . S
C876 H870 0.950 . S
C876 C877 1.327 . S
C877 H871 0.950 . S
C877 C876 1.327 . S
C877 C881 1.429 . S
C878 C861 1.574 1_545 S
C878 H872 0.949 . S
C878 C882 1.368 . S
C879 C860 1.429 . S
C879 C873 1.429 . S
C879 C880 1.523 . S
C880 C861 1.368 . S
C880 C874 1.368 . S
C880 C879 1.523 . S
C881 C865 1.429 . S
C881 C877 1.429 . S
C881 C882 1.523 . S
C882 C866 1.368 . S
C882 C878 1.368 . S
C882 C881 1.523 . S
H883 C858 0.950 . S
H884 C860 0.950 . S
H885 C861 0.949 . S
H886 C863 0.950 . S
H887 C865 0.950 . S
C169 C147 1.128 . S
C174 C7 1.128 . S
C199 C21 1.129 . S
C204 C161 1.129 . S
C229 C35 1.128 . S
C234 C91 1.128 . S
C259 C49 1.128 . S
C264 C105 1.128 . S
C289 C119 1.128 . S
C294 C63 1.128 . S
C319 C77 1.128 . S
C324 C133 1.128 . S
C349 C115 1.140 . S
C354 C3 1.141 . S
C379 C17 1.142 . S
C384 C129 1.142 . S
C409 C31 1.143 . S
C414 C143 1.143 . S
C439 C45 1.142 . S
C444 C157 1.142 . S
C469 C87 1.141 . S
C474 C59 1.140 . S
C499 C101 1.140 . S
C504 C73 1.140 . S
C529 C51 1.476 . S
C534 C9 1.476 . S
C559 C23 1.477 . S
C564 C65 1.477 . S
C589 C79 1.476 . S
C594 C37 1.476 . S
C619 C135 1.476 . S
C624 C93 1.476 . S
C649 C149 1.476 . S
C654 C107 1.476 . S
C679 C121 1.477 . S
C684 C163 1.477 . S
C709 C50 1.419 . S
C714 C8 1.419 . S
C739 C22 1.419 . S
C744 C64 1.419 . S
C769 C78 1.419 . S
C774 C36 1.419 . S
C799 C92 1.419 . S
C804 C134 1.419 . S
C829 C148 1.419 . S
C834 C106 1.419 . S
C859 C120 1.419 . S
C864 C162 1.419 . S
