# Generated by pormake.
# Topology zfv, (5)-cn, num edge types: 1
# Building blocks:
#     Node 0, Type 0, BuildingBlock: BEQFEK_clean_sbu_0, # of connection points: 5
#     Node 1, Type 0, BuildingBlock: BEQFEK_clean_sbu_0, # of connection points: 5
#     Node 2, Type 0, BuildingBlock: BEQFEK_clean_sbu_0, # of connection points: 5
#     Node 3, Type 0, BuildingBlock: BEQFEK_clean_sbu_0, # of connection points: 5
#     Node 4, Type 0, BuildingBlock: BEQFEK_clean_sbu_0, # of connection points: 5
#     Node 5, Type 0, BuildingBlock: BEQFEK_clean_sbu_0, # of connection points: 5
#     Node 6, Type 0, BuildingBlock: BEQFEK_clean_sbu_0, # of connection points: 5
#     Node 7, Type 0, BuildingBlock: BEQFEK_clean_sbu_0, # of connection points: 5
#     Node 8, Type 0, BuildingBlock: BEQFEK_clean_sbu_0, # of connection points: 5
#     Node 9, Type 0, BuildingBlock: BEQFEK_clean_sbu_0, # of connection points: 5
#     Node 10, Type 0, BuildingBlock: BEQFEK_clean_sbu_0, # of connection points: 5
#     Node 11, Type 0, BuildingBlock: BEQFEK_clean_sbu_0, # of connection points: 5
#     Node 12, Type 0, BuildingBlock: BEQFEK_clean_sbu_0, # of connection points: 5
#     Node 13, Type 0, BuildingBlock: BEQFEK_clean_sbu_0, # of connection points: 5
#     Node 14, Type 0, BuildingBlock: BEQFEK_clean_sbu_0, # of connection points: 5
#     Node 15, Type 0, BuildingBlock: BEQFEK_clean_sbu_0, # of connection points: 5
#     Edge 16, Type (0, 0), BuildingBlock: CIFDUS_clean_linker_0, # of connection points: 2
#     Edge 17, Type (0, 0), BuildingBlock: CIFDUS_clean_linker_0, # of connection points: 2
#     Edge 18, Type (0, 0), BuildingBlock: CIFDUS_clean_linker_0, # of connection points: 2
#     Edge 19, Type (0, 0), BuildingBlock: CIFDUS_clean_linker_0, # of connection points: 2
#     Edge 20, Type (0, 0), BuildingBlock: CIFDUS_clean_linker_0, # of connection points: 2
#     Edge 21, Type (0, 0), BuildingBlock: CIFDUS_clean_linker_0, # of connection points: 2
#     Edge 22, Type (0, 0), BuildingBlock: CIFDUS_clean_linker_0, # of connection points: 2
#     Edge 23, Type (0, 0), BuildingBlock: CIFDUS_clean_linker_0, # of connection points: 2
#     Edge 24, Type (0, 0), BuildingBlock: CIFDUS_clean_linker_0, # of connection points: 2
#     Edge 25, Type (0, 0), BuildingBlock: CIFDUS_clean_linker_0, # of connection points: 2
#     Edge 26, Type (0, 0), BuildingBlock: CIFDUS_clean_linker_0, # of connection points: 2
#     Edge 27, Type (0, 0), BuildingBlock: CIFDUS_clean_linker_0, # of connection points: 2
#     Edge 28, Type (0, 0), BuildingBlock: CIFDUS_clean_linker_0, # of connection points: 2
#     Edge 29, Type (0, 0), BuildingBlock: CIFDUS_clean_linker_0, # of connection points: 2
#     Edge 30, Type (0, 0), BuildingBlock: CIFDUS_clean_linker_0, # of connection points: 2
#     Edge 31, Type (0, 0), BuildingBlock: CIFDUS_clean_linker_0, # of connection points: 2
#     Edge 32, Type (0, 0), BuildingBlock: CIFDUS_clean_linker_0, # of connection points: 2
#     Edge 33, Type (0, 0), BuildingBlock: CIFDUS_clean_linker_0, # of connection points: 2
#     Edge 34, Type (0, 0), BuildingBlock: CIFDUS_clean_linker_0, # of connection points: 2
#     Edge 35, Type (0, 0), BuildingBlock: CIFDUS_clean_linker_0, # of connection points: 2
#     Edge 36, Type (0, 0), BuildingBlock: CIFDUS_clean_linker_0, # of connection points: 2
#     Edge 37, Type (0, 0), BuildingBlock: CIFDUS_clean_linker_0, # of connection points: 2
#     Edge 38, Type (0, 0), BuildingBlock: CIFDUS_clean_linker_0, # of connection points: 2
#     Edge 39, Type (0, 0), BuildingBlock: CIFDUS_clean_linker_0, # of connection points: 2
#     Edge 40, Type (0, 0), BuildingBlock: CIFDUS_clean_linker_0, # of connection points: 2
#     Edge 41, Type (0, 0), BuildingBlock: CIFDUS_clean_linker_0, # of connection points: 2
#     Edge 42, Type (0, 0), BuildingBlock: CIFDUS_clean_linker_0, # of connection points: 2
#     Edge 43, Type (0, 0), BuildingBlock: CIFDUS_clean_linker_0, # of connection points: 2
#     Edge 44, Type (0, 0), BuildingBlock: CIFDUS_clean_linker_0, # of connection points: 2
#     Edge 45, Type (0, 0), BuildingBlock: CIFDUS_clean_linker_0, # of connection points: 2
#     Edge 46, Type (0, 0), BuildingBlock: CIFDUS_clean_linker_0, # of connection points: 2
#     Edge 47, Type (0, 0), BuildingBlock: CIFDUS_clean_linker_0, # of connection points: 2
#     Edge 48, Type (0, 0), BuildingBlock: CIFDUS_clean_linker_0, # of connection points: 2
#     Edge 49, Type (0, 0), BuildingBlock: CIFDUS_clean_linker_0, # of connection points: 2
#     Edge 50, Type (0, 0), BuildingBlock: CIFDUS_clean_linker_0, # of connection points: 2
#     Edge 51, Type (0, 0), BuildingBlock: CIFDUS_clean_linker_0, # of connection points: 2
#     Edge 52, Type (0, 0), BuildingBlock: CIFDUS_clean_linker_0, # of connection points: 2
#     Edge 53, Type (0, 0), BuildingBlock: CIFDUS_clean_linker_0, # of connection points: 2
#     Edge 54, Type (0, 0), BuildingBlock: CIFDUS_clean_linker_0, # of connection points: 2
#     Edge 55, Type (0, 0), BuildingBlock: CIFDUS_clean_linker_0, # of connection points: 2
# Relax obj value: 0.069
# Max RMSD: 0.134
# Mean RMSD: 0.134
data_MOF--net-zfv--node1-BEQFEK_clean_sbu_0--edge1-CIFDUS_clean_linker_0
_symmetry_space_group_name_H-M    P1
_symmetry_Int_Tables_number       1
_symmetry_cell_setting            triclinic
loop_
_symmetry_equiv_pos_as_xyz
'x, y, z'
_cell_length_a     66.679456
_cell_length_b     66.682671
_cell_length_c     17.56852
_cell_angle_alpha  89.985266
_cell_angle_beta   89.985961
_cell_angle_gamma 89.99707
loop_
_atom_site_label
_atom_site_type_symbol
_atom_site_fract_x
_atom_site_fract_y
_atom_site_fract_z
_atom_type_partial_charge
Co0 Co 0.00577 0.61048 0.13085 0.0
Co1 Co 0.00861 0.62125 0.95759 0.0
C2 C 0.97581 0.63774 0.05554 0.0
O3 O 0.98277 0.62858 0.11336 0.0
O4 O 0.9841 0.63614 0.99036 0.0
C5 C 0.99105 0.60505 0.28363 0.0
O6 O 0.97532 0.61493 0.25889 0.0
C7 C 0.99807 0.62128 0.79491 0.0
C8 C 0.02809 0.62409 0.74255 0.0
C9 C 0.00799 0.62143 0.72539 0.0
N10 N 0.01179 0.62344 0.85039 0.0
N11 N 0.02964 0.62545 0.81864 0.0
C12 C 0.97634 0.61718 0.80935 0.0
H13 H 0.97414 0.61134 0.86792 0.0
H14 H 0.9704 0.6063 0.76721 0.0
H15 H 0.9678 0.63139 0.80366 0.0
C16 C 0.00488 0.56924 0.06765 0.0
N17 N 0.00589 0.58929 0.05922 0.0
N18 N 0.00729 0.59367 0.98632 0.0
C19 C 0.00742 0.57642 0.94608 0.0
C20 C 0.00574 0.56043 0.99615 0.0
C21 C 0.00247 0.55895 0.14276 0.0
H22 H 0.01656 0.56053 0.1758 0.0
H23 H 0.99033 0.56633 0.17562 0.0
H24 H 0.9989 0.5428 0.13576 0.0
O25 O 0.03074 0.62642 0.12459 0.0
O26 O 0.03259 0.63431 0.00236 0.0
H27 H 0.0226 0.58543 0.84408 0.0
H28 H 0.0147 0.55965 0.84413 0.0
C29 C 0.01052 0.57506 0.86184 0.0
H30 H 0.99646 0.57929 0.83235 0.0
H31 H 0.04298 0.62696 0.84908 0.0
O32 O 0.00497 0.60053 0.23717 0.0
C33 C 0.03958 0.63516 0.06966 0.0
Co34 Co 0.65172 0.74923 0.4527 0.0
Co35 Co 0.6433 0.74922 0.27482 0.0
C36 C 0.62623 0.7175 0.37313 0.0
O37 O 0.63415 0.72626 0.43003 0.0
O38 O 0.62874 0.7241 0.3054 0.0
C39 C 0.65819 0.7308 0.59959 0.0
O40 O 0.65407 0.71417 0.56275 0.0
C41 C 0.64613 0.74365 0.10413 0.0
C42 C 0.64215 0.77532 0.07042 0.0
C43 C 0.64643 0.75652 0.0412 0.0
N44 N 0.64238 0.75466 0.16711 0.0
N45 N 0.63967 0.77346 0.14578 0.0
C46 C 0.65084 0.72173 0.10587 0.0
H47 H 0.65407 0.71677 0.16495 0.0
H48 H 0.6638 0.71839 0.06829 0.0
H49 H 0.63768 0.71323 0.08461 0.0
C50 C 0.69378 0.74858 0.39748 0.0
N51 N 0.67385 0.74918 0.38496 0.0
N52 N 0.67045 0.74923 0.31097 0.0
C53 C 0.68824 0.74893 0.27438 0.0
C54 C 0.70351 0.74825 0.32771 0.0
C55 C 0.70305 0.74727 0.4748 0.0
H56 H 0.69762 0.7335 0.50364 0.0
H57 H 0.71967 0.74695 0.47179 0.0
H58 H 0.69811 0.76028 0.50945 0.0
O59 O 0.6356 0.77405 0.44191 0.0
O60 O 0.62858 0.77225 0.31895 0.0
H61 H 0.70654 0.7541 0.17442 0.0
H62 H 0.68713 0.73562 0.16406 0.0
C63 C 0.69087 0.75027 0.18995 0.0
H64 H 0.68085 0.76196 0.16646 0.0
H65 H 0.637 0.7853 0.18318 0.0
O66 O 0.65944 0.74719 0.56258 0.0
C67 C 0.62681 0.78089 0.38309 0.0
Co68 Co 0.50589 0.38706 0.68749 0.0
Co69 Co 0.51337 0.38194 0.51688 0.0
C70 C 0.54203 0.36431 0.62049 0.0
O71 O 0.53102 0.37084 0.6746 0.0
O72 O 0.53756 0.36769 0.55105 0.0
C73 C 0.5186 0.39684 0.83719 0.0
O74 O 0.53685 0.39558 0.80935 0.0
C75 C 0.52215 0.38275 0.35025 0.0
C76 C 0.49442 0.39849 0.31532 0.0
C77 C 0.51226 0.39083 0.28736 0.0
N78 N 0.5106 0.38594 0.41181 0.0
N79 N 0.49405 0.39515 0.39025 0.0
C80 C 0.54163 0.37165 0.35264 0.0
H81 H 0.54251 0.36223 0.40454 0.0
H82 H 0.55415 0.3826 0.35395 0.0
H83 H 0.54328 0.362 0.30156 0.0
C84 C 0.50338 0.43005 0.64152 0.0
N85 N 0.50633 0.4104 0.62799 0.0
N86 N 0.51281 0.40806 0.55845 0.0
C87 C 0.51596 0.42614 0.52678 0.0
C88 C 0.50949 0.44102 0.57733 0.0
C89 C 0.49358 0.43756 0.71269 0.0
H90 H 0.48456 0.42548 0.73938 0.0
H91 H 0.5053 0.44225 0.75382 0.0
H92 H 0.48363 0.45048 0.70018 0.0
O93 O 0.48273 0.37037 0.66417 0.0
O94 O 0.48908 0.36546 0.54225 0.0
H95 H 0.51725 0.42978 0.40555 0.0
H96 H 0.53695 0.44256 0.4568 0.0
C97 C 0.52767 0.42876 0.45457 0.0
H98 H 0.53768 0.41569 0.44541 0.0
H99 H 0.48265 0.39953 0.42739 0.0
O100 O 0.50364 0.39418 0.79391 0.0
C101 C 0.47836 0.36229 0.60101 0.0
Co102 Co 0.87306 0.25487 0.91663 0.0
Co103 Co 0.87641 0.25193 0.73792 0.0
C104 C 0.8962 0.28513 0.82028 0.0
O105 O 0.88983 0.27779 0.88277 0.0
O106 O 0.8919 0.27704 0.75645 0.0
C107 C 0.87277 0.27294 0.06651 0.0
O108 O 0.88131 0.28818 0.03212 0.0
C109 C 0.87267 0.25705 0.56922 0.0
C110 C 0.86834 0.22533 0.53668 0.0
C111 C 0.8691 0.24455 0.50697 0.0
N112 N 0.8737 0.24559 0.63229 0.0
N113 N 0.8713 0.22667 0.61205 0.0
C114 C 0.87342 0.27947 0.57051 0.0
H115 H 0.87002 0.28518 0.62842 0.0
H116 H 0.86262 0.28585 0.52898 0.0
H117 H 0.88875 0.28448 0.55481 0.0
C118 C 0.82966 0.25357 0.87881 0.0
N119 N 0.84916 0.25363 0.85876 0.0
N120 N 0.85057 0.25307 0.78406 0.0
C121 C 0.83196 0.25292 0.75414 0.0
C122 C 0.81806 0.25305 0.81307 0.0
C123 C 0.82247 0.25326 0.95947 0.0
H124 H 0.83183 0.24282 0.99342 0.0
H125 H 0.82414 0.26848 0.98421 0.0
H126 H 0.80652 0.24861 0.96326 0.0
O127 O 0.88891 0.23003 0.90457 0.0
O128 O 0.89204 0.22905 0.77912 0.0
H129 H 0.83105 0.23948 0.64369 0.0
H130 H 0.81177 0.2581 0.65913 0.0
C131 C 0.82763 0.25413 0.67065 0.0
H132 H 0.83727 0.26573 0.64449 0.0
H133 H 0.87123 0.21467 0.65015 0.0
O134 O 0.86741 0.25777 0.02755 0.0
C135 C 0.89573 0.22179 0.8446 0.0
Co136 Co 0.01209 0.38897 0.82241 0.0
Co137 Co 0.01482 0.38318 1e-05 0.0
C138 C 0.98073 0.36606 0.91219 0.0
O139 O 0.98812 0.37295 0.85052 0.0
O140 O 0.98924 0.36906 0.97638 0.0
C141 C 0.99534 0.39843 0.67181 0.0
O142 O 0.97773 0.40012 0.70469 0.0
C143 C 0.01052 0.38331 0.17116 0.0
C144 C 0.04249 0.38755 0.20037 0.0
C145 C 0.02365 0.38541 0.23246 0.0
N146 N 0.02127 0.38439 0.10619 0.0
N147 N 0.04032 0.38688 0.12454 0.0
C148 C 0.98841 0.37966 0.17397 0.0
H149 H 0.98333 0.3719 0.12169 0.0
H150 H 0.98052 0.39428 0.17764 0.0
H151 H 0.98441 0.37059 0.22474 0.0
C152 C 0.01498 0.43194 0.86916 0.0
N153 N 0.01416 0.41214 0.88456 0.0
N154 N 0.01472 0.40955 0.95883 0.0
C155 C 0.01559 0.42759 0.99303 0.0
C156 C 0.01605 0.44239 0.93756 0.0
C157 C 0.0154 0.44049 0.79046 0.0
H158 H 0.02494 0.43103 0.75322 0.0
H159 H -4e-05 0.44037 0.76691 0.0
H160 H 0.02113 0.45611 0.79039 0.0
O161 O 0.03612 0.37188 0.83293 0.0
O162 O 0.03727 0.36723 0.95746 0.0
H163 H 0.02926 0.42717 0.10308 0.0
H164 H 0.01032 0.44629 0.09202 0.0
C165 C 0.01448 0.43066 0.07736 0.0
H166 H 0.0031 0.42044 0.10194 0.0
H167 H 0.0519 0.3882 0.08492 0.0
O168 O 0.01081 0.39506 0.71215 0.0
C169 C 0.04426 0.36408 0.89124 0.0
Co170 Co 0.87028 0.75137 0.10849 0.0
Co171 Co 0.88141 0.75354 0.28174 0.0
C172 C 0.89585 0.71987 0.18396 0.0
O173 O 0.88707 0.72737 0.12631 0.0
O174 O 0.89472 0.72816 0.24924 0.0
C175 C 0.86432 0.73685 0.95582 0.0
O176 O 0.87363 0.72079 0.98072 0.0
C177 C 0.88186 0.74322 0.44494 0.0
C178 C 0.88455 0.77338 0.49615 0.0
C179 C 0.88202 0.75331 0.51414 0.0
N180 N 0.88383 0.75683 0.38891 0.0
N181 N 0.8858 0.77476 0.41999 0.0
C182 C 0.87777 0.72145 0.43136 0.0
H183 H 0.87185 0.71909 0.373 0.0
H184 H 0.86691 0.71561 0.47382 0.0
H185 H 0.89198 0.71293 0.43714 0.0
C186 C 0.82915 0.75417 0.17243 0.0
N187 N 0.84922 0.75312 0.18045 0.0
N188 N 0.85381 0.75424 0.25321 0.0
C189 C 0.83674 0.75626 0.29379 0.0
C190 C 0.82058 0.75629 0.24403 0.0
C191 C 0.81866 0.7541 0.09718 0.0
H192 H 0.82539 0.76571 0.05981 0.0
H193 H 0.82099 0.73935 0.06931 0.0
H194 H 0.80236 0.75701 0.10332 0.0
O195 O 0.88772 0.77531 0.11412 0.0
O196 O 0.89598 0.77652 0.23616 0.0
H197 H 0.84488 0.77029 0.39888 0.0
H198 H 0.82029 0.75898 0.40025 0.0
C199 C 0.83583 0.7574 0.37883 0.0
H200 H 0.84216 0.74347 0.40318 0.0
H201 H 0.88718 0.78804 0.38903 0.0
O202 O 0.86023 0.75091 0.00221 0.0
C203 C 0.89712 0.7835 0.16887 0.0
Co204 Co 0.50624 0.61019 0.32826 0.0
Co205 Co 0.5124 0.61458 0.50378 0.0
C206 C 0.54088 0.6339 0.40398 0.0
O207 O 0.53018 0.62725 0.34929 0.0
O208 O 0.53655 0.62993 0.47329 0.0
C209 C 0.52297 0.60154 0.18163 0.0
O210 O 0.53983 0.59983 0.21977 0.0
C211 C 0.51651 0.61452 0.67603 0.0
C212 C 0.48659 0.60163 0.70009 0.0
C213 C 0.50363 0.60899 0.73492 0.0
N214 N 0.50725 0.6106 0.60946 0.0
N215 N 0.48949 0.60279 0.62481 0.0
C216 C 0.53658 0.62432 0.68273 0.0
H217 H 0.5402 0.63274 0.63 0.0
H218 H 0.54815 0.61256 0.69106 0.0
H219 H 0.53695 0.6345 0.73271 0.0
C220 C 0.50496 0.56693 0.37249 0.0
N221 N 0.50729 0.58661 0.38733 0.0
N222 N 0.51266 0.58884 0.4585 0.0
C223 C 0.51549 0.57074 0.49026 0.0
C224 C 0.51013 0.55589 0.43775 0.0
C225 C 0.49654 0.55946 0.29882 0.0
H226 H 0.48819 0.57161 0.26949 0.0
H227 H 0.50901 0.55465 0.26119 0.0
H228 H 0.4863 0.5466 0.30862 0.0
O229 O 0.48203 0.62573 0.35138 0.0
O230 O 0.48832 0.63045 0.47361 0.0
H231 H 0.51392 0.56731 0.61145 0.0
H232 H 0.53484 0.55448 0.56734 0.0
C233 C 0.52547 0.56823 0.56613 0.0
H234 H 0.53515 0.58138 0.57841 0.0
H235 H 0.47915 0.5985 0.58332 0.0
O236 O 0.50672 0.60477 0.2176 0.0
C237 C 0.47749 0.63349 0.41514 0.0
Co238 Co 0.65189 0.24856 0.56956 0.0
Co239 Co 0.64228 0.24854 0.74365 0.0
C240 C 0.62787 0.28157 0.64264 0.0
O241 O 0.63597 0.27313 0.5854 0.0
O242 O 0.62925 0.27398 0.70913 0.0
C243 C 0.66025 0.26286 0.418 0.0
O244 O 0.654 0.28023 0.44403 0.0
C245 C 0.64456 0.25954 0.9059 0.0
C246 C 0.6383 0.23016 0.95927 0.0
C247 C 0.64351 0.2498 0.97568 0.0
N248 N 0.64044 0.24611 0.85101 0.0
N249 N 0.63642 0.22869 0.8834 0.0
C250 C 0.65114 0.2806 0.89057 0.0
H251 H 0.65664 0.28207 0.83118 0.0
H252 H 0.66306 0.28514 0.93116 0.0
H253 H 0.63816 0.29081 0.8981 0.0
C254 C 0.69346 0.2462 0.62786 0.0
N255 N 0.67351 0.2473 0.63884 0.0
N256 N 0.66966 0.2469 0.7123 0.0
C257 C 0.68715 0.24515 0.75047 0.0
C258 C 0.7028 0.2448 0.6983 0.0
C259 C 0.70323 0.24733 0.55129 0.0
H260 H 0.69664 0.2599 0.51842 0.0
H261 H 0.71967 0.2496 0.55579 0.0
H262 H 0.70018 0.23326 0.51966 0.0
O263 O 0.63393 0.22502 0.58029 0.0
O264 O 0.62684 0.22554 0.70336 0.0
H265 H 0.67718 0.23169 0.85467 0.0
H266 H 0.70376 0.23613 0.85077 0.0
C267 C 0.68887 0.24223 0.83472 0.0
H268 H 0.68677 0.25684 0.86367 0.0
H269 H 0.63311 0.21559 0.8535 0.0
O270 O 0.66134 0.24796 0.46293 0.0
C271 C 0.62485 0.21777 0.63774 0.0
Co272 Co 0.37176 0.24684 0.58139 0.0
Co273 Co 0.37834 0.2434 0.75372 0.0
C274 C 0.39619 0.21323 0.6514 0.0
O275 O 0.38877 0.22258 0.59469 0.0
O276 O 0.39323 0.21927 0.71937 0.0
C277 C 0.36151 0.23363 0.43174 0.0
O278 O 0.36387 0.2153 0.45766 0.0
C279 C 0.37853 0.23408 0.91932 0.0
C280 C 0.36751 0.26349 0.95959 0.0
C281 C 0.37229 0.24434 0.98447 0.0
N282 N 0.37673 0.24661 0.85969 0.0
N283 N 0.37053 0.2642 0.88448 0.0
C284 C 0.38616 0.21307 0.91243 0.0
H285 H 0.39414 0.21096 0.85785 0.0
H286 H 0.37334 0.20247 0.91437 0.0
H287 H 0.39664 0.20963 0.9597 0.0
C288 C 0.32889 0.24647 0.62925 0.0
N289 N 0.34875 0.24591 0.64353 0.0
N290 N 0.35162 0.24331 0.71674 0.0
C291 C 0.33366 0.24164 0.75144 0.0
C292 C 0.31865 0.24388 0.69746 0.0
C293 C 0.32002 0.25001 0.5522 0.0
H294 H 0.32869 0.26175 0.5219 0.0
H295 H 0.32099 0.23597 0.51856 0.0
H296 H 0.30408 0.25468 0.55621 0.0
O297 O 0.38805 0.2711 0.59877 0.0
O298 O 0.39319 0.26774 0.72219 0.0
H299 H 0.33209 0.24985 0.86889 0.0
H300 H 0.31584 0.2294 0.84332 0.0
C301 C 0.33082 0.23617 0.83339 0.0
H302 H 0.34243 0.22526 0.85106 0.0
H303 H 0.36759 0.27648 0.84937 0.0
O304 O 0.36376 0.24843 0.47607 0.0
C305 C 0.39584 0.27725 0.66037 0.0
Co306 Co 0.15306 0.74898 0.02494 0.0
Co307 Co 0.14248 0.74655 0.19839 0.0
C308 C 0.12677 0.77974 0.10234 0.0
O309 O 0.13556 0.77249 0.0442 0.0
O310 O 0.12829 0.77146 0.1675 0.0
C311 C 0.15734 0.76379 0.87241 0.0
O312 O 0.14649 0.77882 0.89762 0.0
C313 C 0.14026 0.75604 0.36233 0.0
C314 C 0.14258 0.72557 0.41128 0.0
C315 C 0.14171 0.74568 0.43073 0.0
N316 N 0.14062 0.74259 0.30529 0.0
N317 N 0.14164 0.72442 0.33502 0.0
C318 C 0.14073 0.77827 0.35061 0.0
H319 H 0.14665 0.78196 0.29328 0.0
H320 H 0.1501 0.78563 0.39468 0.0
H321 H 0.12524 0.78424 0.35502 0.0
C322 C 0.19447 0.74882 0.08778 0.0
N323 N 0.1744 0.74801 0.09605 0.0
N324 N 0.16999 0.74734 0.16901 0.0
C325 C 0.18716 0.74787 0.20961 0.0
C326 C 0.20327 0.74874 0.15956 0.0
C327 C 0.20486 0.74943 0.01232 0.0
H328 H 0.1978 0.73848 0.97308 0.0
H329 H 0.20306 0.76459 0.98718 0.0
H330 H 0.22107 0.74595 0.01784 0.0
O331 O 0.13633 0.72456 0.03021 0.0
O332 O 0.12845 0.72323 0.15253 0.0
H333 H 0.182 0.73559 0.32043 0.0
H334 H 0.20337 0.75217 0.316 0.0
C335 C 0.18799 0.74951 0.29456 0.0
H336 H 0.17859 0.76227 0.313 0.0
H337 H 0.1425 0.71127 0.30304 0.0
O338 O 0.16286 0.75017 0.91852 0.0
C339 C 0.12722 0.71621 0.08535 0.0
Co340 Co 0.15546 0.24864 0.97868 0.0
Co341 Co 0.14477 0.24806 0.80502 0.0
C342 C 0.12965 0.21628 0.91038 0.0
O343 O 0.13829 0.22486 0.9661 0.0
O344 O 0.13114 0.22322 0.84286 0.0
C345 C 0.16372 0.23442 0.1303 0.0
O346 O 0.1573 0.21713 0.10405 0.0
C347 C 0.14659 0.23682 0.64235 0.0
C348 C 0.13936 0.26599 0.58917 0.0
C349 C 0.14513 0.24653 0.57255 0.0
N350 N 0.14223 0.25013 0.69744 0.0
N351 N 0.13758 0.26741 0.6651 0.0
C352 C 0.15384 0.21597 0.6574 0.0
H353 H 0.15922 0.21456 0.71697 0.0
H354 H 0.16602 0.21192 0.61712 0.0
H355 H 0.14124 0.20533 0.64899 0.0
C356 C 0.19678 0.2489 0.91587 0.0
N357 N 0.17672 0.24853 0.90712 0.0
N358 N 0.17236 0.24915 0.83409 0.0
C359 C 0.18959 0.25065 0.79409 0.0
C360 C 0.20566 0.25027 0.84442 0.0
C361 C 0.20706 0.24723 0.99131 0.0
H362 H 0.19928 0.23595 0.02704 0.0
H363 H 0.22301 0.24281 0.98483 0.0
H364 H 0.20623 0.2619 0.02094 0.0
O365 O 0.13839 0.27291 0.96735 0.0
O366 O 0.13031 0.27159 0.84525 0.0
H367 H 0.20516 0.26161 0.69422 0.0
H368 H 0.1892 0.24023 0.67902 0.0
C369 C 0.19068 0.25459 0.71026 0.0
H370 H 0.17842 0.26479 0.69285 0.0
H371 H 0.13401 0.28044 0.69503 0.0
O372 O 0.1652 0.24927 0.08521 0.0
C373 C 0.12908 0.27996 0.91004 0.0
Co374 Co 0.36844 0.74771 0.43355 0.0
Co375 Co 0.37552 0.74777 0.25507 0.0
C376 C 0.39383 0.77909 0.3521 0.0
O377 O 0.38631 0.77044 0.41001 0.0
O378 O 0.39054 0.7726 0.28479 0.0
C379 C 0.36281 0.76647 0.58006 0.0
O380 O 0.36764 0.78286 0.54285 0.0
C381 C 0.37171 0.75382 0.0852 0.0
C382 C 0.37614 0.72236 0.04944 0.0
C383 C 0.37141 0.74119 0.02173 0.0
N384 N 0.37597 0.74265 0.14725 0.0
N385 N 0.37891 0.72398 0.1247 0.0
C386 C 0.36635 0.77557 0.08834 0.0
H387 H 0.36275 0.78009 0.14762 0.0
H388 H 0.35344 0.77875 0.05029 0.0
H389 H 0.37933 0.78456 0.06846 0.0
C390 C 0.3259 0.7475 0.38166 0.0
N391 N 0.34578 0.74795 0.36754 0.0
N392 N 0.34871 0.74777 0.29331 0.0
C393 C 0.33077 0.74677 0.2581 0.0
C394 C 0.31573 0.74686 0.31265 0.0
C395 C 0.31703 0.74799 0.45983 0.0
H396 H 0.32381 0.76048 0.49263 0.0
H397 H 0.30051 0.74994 0.45815 0.0
H398 H 0.32075 0.73381 0.48975 0.0
O399 O 0.38426 0.72254 0.42159 0.0
O400 O 0.38988 0.72448 0.29751 0.0
H401 H 0.31267 0.73822 0.16063 0.0
H402 H 0.33075 0.75776 0.14386 0.0
C403 C 0.32801 0.74349 0.1744 0.0
H404 H 0.33873 0.73203 0.15398 0.0
H405 H 0.38189 0.71204 0.16123 0.0
O406 O 0.36108 0.75003 0.54361 0.0
C407 C 0.39217 0.71566 0.36102 0.0
Co408 Co 0.51118 0.1106 0.58451 0.0
Co409 Co 0.51132 0.12014 0.41039 0.0
C410 C 0.47843 0.13501 0.5099 0.0
O411 O 0.48681 0.12693 0.56734 0.0
O412 O 0.48597 0.1334 0.44346 0.0
C413 C 0.49627 0.1032 0.73582 0.0
O414 O 0.47938 0.11058 0.70958 0.0
C415 C 0.5007 0.11967 0.24731 0.0
C416 C 0.53093 0.12172 0.19603 0.0
C417 C 0.51083 0.11939 0.17817 0.0
N418 N 0.51433 0.1217 0.30318 0.0
N419 N 0.5323 0.12326 0.27204 0.0
C420 C 0.47886 0.11605 0.2611 0.0
H421 H 0.47636 0.11053 0.31996 0.0
H422 H 0.47285 0.10504 0.21956 0.0
H423 H 0.47059 0.13037 0.25399 0.0
C424 C 0.51404 0.06897 0.5261 0.0
N425 N 0.51255 0.08891 0.51543 0.0
N426 N 0.5126 0.0928 0.442 0.0
C427 C 0.51425 0.07537 0.4035 0.0
C428 C 0.51523 0.0597 0.45546 0.0
C429 C 0.51527 0.05924 0.60272 0.0
H430 H 0.5268 0.06696 0.63753 0.0
H431 H 0.50066 0.06096 0.63225 0.0
H432 H 0.51907 0.04308 0.59841 0.0
O433 O 0.53498 0.12818 0.57468 0.0
O434 O 0.5344 0.13537 0.45164 0.0
H435 H 0.52699 0.082 0.29457 0.0
H436 H 0.51473 0.05786 0.29907 0.0
C437 C 0.51407 0.07365 0.31854 0.0
H438 H 0.50008 0.08035 0.2963 0.0
H439 H 0.54558 0.12462 0.30292 0.0
O440 O 0.51112 0.10111 0.69111 0.0
C441 C 0.54227 0.13722 0.5172 0.0
Co442 Co 0.01559 0.8925 0.21046 0.0
Co443 Co 0.01082 0.88372 0.03323 0.0
C444 C 0.04493 0.86672 0.12234 0.0
O445 O 0.03825 0.87493 0.1827 0.0
O446 O 0.03618 0.86908 0.05824 0.0
C447 C 0.03365 0.8963 0.36028 0.0
O448 O 0.04962 0.88907 0.32623 0.0
C449 C 0.01623 0.88647 0.86354 0.0
C450 C 0.98484 0.88181 0.82759 0.0
C451 C 0.00374 0.88633 0.79959 0.0
N452 N 0.00497 0.88266 0.92579 0.0
N453 N 0.98632 0.87956 0.90332 0.0
C454 C 0.03803 0.89166 0.86691 0.0
H455 H 0.04243 0.89569 0.92592 0.0
H456 H 0.04143 0.90426 0.82765 0.0
H457 H 0.04697 0.87845 0.84897 0.0
C458 C 0.01527 0.93443 0.15311 0.0
N459 N 0.01411 0.91447 0.14188 0.0
N460 N 0.0118 0.91088 0.06853 0.0
C461 C 0.01109 0.92855 0.03125 0.0
C462 C 0.01354 0.94396 0.08319 0.0
C463 C 0.01887 0.94392 0.22897 0.0
H464 H 0.0319 0.93661 0.2568 0.0
H465 H 0.02167 0.96027 0.22375 0.0
H466 H 0.00559 0.94137 0.2658 0.0
O467 O 0.99088 0.87622 0.20567 0.0
O468 O 0.98825 0.86929 0.08272 0.0
H469 H 0.00193 0.9464 0.93443 0.0
H470 H 0.02085 0.92789 0.9155 0.0
C471 C 0.00695 0.93095 0.948 0.0
H472 H 0.9951 0.92035 0.92997 0.0
H473 H 0.97439 0.87665 0.9401 0.0
O474 O 0.01819 0.90036 0.32051 0.0
C475 C 0.98191 0.86762 0.15076 0.0
Co476 Co 0.51002 0.88885 0.27635 0.0
Co477 Co 0.51085 0.88152 0.45453 0.0
C478 C 0.47897 0.86341 0.35944 0.0
O479 O 0.48734 0.87106 0.30114 0.0
O480 O 0.48583 0.86651 0.42641 0.0
C481 C 0.49143 0.89401 0.12904 0.0
O482 O 0.47504 0.88881 0.16546 0.0
C483 C 0.50528 0.88483 0.62458 0.0
C484 C 0.53702 0.88177 0.65883 0.0
C485 C 0.51806 0.88554 0.68762 0.0
N486 N 0.51645 0.88127 0.56192 0.0
N487 N 0.53531 0.87914 0.58348 0.0
C488 C 0.48326 0.88901 0.6224 0.0
H489 H 0.47836 0.89233 0.56332 0.0
H490 H 0.47951 0.90176 0.66047 0.0
H491 H 0.47503 0.87557 0.64269 0.0
C492 C 0.50896 0.93121 0.32795 0.0
N493 N 0.5099 0.91137 0.34219 0.0
N494 N 0.51035 0.90843 0.4164 0.0
C495 C 0.50998 0.92642 0.4515 0.0
C496 C 0.50885 0.94138 0.39686 0.0
C497 C 0.50706 0.93995 0.24988 0.0
H498 H 0.49377 0.93338 0.22128 0.0
H499 H 0.50551 0.95651 0.25145 0.0
H500 H 0.52046 0.93581 0.21583 0.0
O501 O 0.53508 0.87311 0.2872 0.0
O502 O 0.53395 0.86684 0.41087 0.0
H503 H 0.5154 0.94529 0.54974 0.0
H504 H 0.4973 0.9256 0.56302 0.0
C505 C 0.51173 0.92949 0.53562 0.0
H506 H 0.5237 0.91977 0.55886 0.0
H507 H 0.54724 0.87669 0.54624 0.0
O508 O 0.50768 0.89618 0.16631 0.0
C509 C 0.54231 0.86478 0.34631 0.0
Co510 Co 0.00743 0.11157 0.87176 0.0
Co511 Co 0.01014 0.12174 0.04559 0.0
C512 C 0.04157 0.13589 0.93969 0.0
O513 O 0.03191 0.12799 0.88491 0.0
O514 O 0.03541 0.13435 0.00822 0.0
C515 C 0.02207 0.10308 0.72133 0.0
O516 O 0.03933 0.10915 0.74898 0.0
C517 C 0.02084 0.12172 0.20984 0.0
C518 C 0.99041 0.12386 0.25933 0.0
C519 C 0.01041 0.12142 0.27846 0.0
N520 N 0.00743 0.12376 0.15309 0.0
N521 N 0.98936 0.12543 0.18331 0.0
C522 C 0.04274 0.11814 0.19739 0.0
H523 H 0.0456 0.11332 0.1379 0.0
H524 H 0.04842 0.10664 0.23766 0.0
H525 H 0.05103 0.13231 0.20773 0.0
C526 C 0.00495 0.07016 0.93357 0.0
N527 N 0.00682 0.09014 0.94242 0.0
N528 N 0.00802 0.09435 0.01548 0.0
C529 C 0.00684 0.07712 0.05549 0.0
C530 C 0.0048 0.06125 0.00505 0.0
C531 C 0.0026 0.06005 0.85812 0.0
H532 H 0.99108 0.06803 0.82406 0.0
H533 H 0.017 0.06097 0.82659 0.0
H534 H 0.99824 0.04408 0.8646 0.0
O535 O 0.98377 0.12927 0.88437 0.0
O536 O 0.98707 0.13721 0.00607 0.0
H537 H 0.99605 0.08398 0.16719 0.0
H538 H 0.00858 0.06004 0.16081 0.0
C539 C 0.00863 0.07575 0.14027 0.0
H540 H 0.02291 0.08272 0.15823 0.0
H541 H 0.97619 0.12677 0.15174 0.0
O542 O 0.00691 0.10192 0.76508 0.0
C543 C 0.9779 0.13883 0.94293 0.0
H544 H 0.02516 0.59919 0.61571 0.0
H545 H 0.97316 0.63561 0.66223 0.0
H546 H 0.96192 0.63159 0.53051 0.0
H547 H 0.96869 0.62035 0.39962 0.0
H548 H 0.02136 0.58465 0.35347 0.0
H549 H 0.03038 0.58554 0.4879 0.0
C550 C 0.01128 0.60612 0.59705 0.0
C551 C -1e-05 0.61768 0.64835 0.0
C552 C 0.00507 0.6039 0.52135 0.0
C553 C 0.98196 0.62643 0.62397 0.0
C554 C 0.97562 0.62424 0.54854 0.0
C555 C 0.98196 0.61247 0.4191 0.0
C556 C 0.99446 0.60266 0.36633 0.0
C557 C 0.98727 0.61334 0.49638 0.0
C558 C 0.01156 0.59247 0.39269 0.0
C559 C 0.01679 0.59303 0.46954 0.0
H560 H 0.64139 0.72261 0.95197 0.0
H561 H 0.66448 0.78312 0.94747 0.0
H562 H 0.67149 0.7801 0.81242 0.0
H563 H 0.66906 0.76136 0.69332 0.0
H564 H 0.64668 0.70067 0.69603 0.0
H565 H 0.64202 0.70254 0.83377 0.0
C566 C 0.64842 0.73495 0.92215 0.0
C567 C 0.65233 0.75307 0.96051 0.0
C568 C 0.65253 0.73315 0.84363 0.0
C569 C 0.66104 0.76903 0.91966 0.0
C570 C 0.66515 0.76735 0.84218 0.0
C571 C 0.66339 0.74844 0.72408 0.0
C572 C 0.65808 0.731 0.6841 0.0
C573 C 0.66062 0.74964 0.80323 0.0
C574 C 0.65089 0.71434 0.72517 0.0
C575 C 0.64811 0.71542 0.80408 0.0
H576 H 0.48698 0.39527 0.17082 0.0
H577 H 0.55021 0.38995 0.22045 0.0
H578 H 0.55785 0.39196 0.08493 0.0
H579 H 0.54624 0.3948 0.95157 0.0
H580 H 0.48294 0.40269 0.90726 0.0
H581 H 0.47583 0.40096 0.04248 0.0
C582 C 0.50252 0.39462 0.1526 0.0
C583 C 0.5179 0.39177 0.20607 0.0
C584 C 0.50683 0.39661 0.07547 0.0
C585 C 0.53791 0.39115 0.18085 0.0
C586 C 0.54234 0.39269 0.1032 0.0
C587 C 0.53094 0.39639 0.97172 0.0
C588 C 0.51512 0.39859 0.91947 0.0
C589 C 0.52687 0.39533 0.04996 0.0
C590 C 0.49538 0.40074 0.94624 0.0
C591 C 0.49126 0.3997 0.02352 0.0
H592 H 0.88532 0.27522 0.42181 0.0
H593 H 0.84578 0.22409 0.40776 0.0
H594 H 0.84238 0.22901 0.27111 0.0
H595 H 0.85222 0.24645 0.15435 0.0
H596 H 0.89116 0.29802 0.1678 0.0
H597 H 0.89266 0.29466 0.3061 0.0
C598 C 0.87548 0.26552 0.38954 0.0
C599 C 0.86573 0.24939 0.42551 0.0
C600 C 0.87353 0.26844 0.31056 0.0
C601 C 0.85358 0.23657 0.38164 0.0
C602 C 0.85157 0.23938 0.30338 0.0
C603 C 0.86089 0.25708 0.18757 0.0
C604 C 0.87171 0.27232 0.15066 0.0
C605 C 0.86175 0.25504 0.26702 0.0
C606 C 0.8827 0.28609 0.19468 0.0
C607 C 0.88364 0.28415 0.27384 0.0
H608 H 0.99116 0.40039 0.31159 0.0
H609 H 0.04833 0.37095 0.34077 0.0
H610 H 0.04486 0.37304 0.47827 0.0
H611 H 0.02616 0.38351 0.59001 0.0
H612 H 0.96833 0.41173 0.56485 0.0
H613 H 0.97141 0.40968 0.42589 0.0
C614 C 0.0026 0.39399 0.34794 0.0
C615 C 0.01989 0.3853 0.31564 0.0
C616 C 0.00052 0.39521 0.42766 0.0
C617 C 0.03488 0.37771 0.36397 0.0
C618 C 0.03294 0.37891 0.44272 0.0
C619 C 0.01423 0.38934 0.55433 0.0
C620 C 0.99713 0.39794 0.58777 0.0
C621 C 0.01595 0.38778 0.4751 0.0
C622 C 0.9817 0.40512 0.54049 0.0
C623 C 0.98345 0.4039 0.46107 0.0
H624 H 0.86017 0.77114 0.62351 0.0
H625 H 0.89545 0.71827 0.5784 0.0
H626 H 0.89082 0.70715 0.70995 0.0
H627 H 0.87933 0.71415 0.84032 0.0
H628 H 0.84497 0.76776 0.88537 0.0
H629 H 0.84645 0.77678 0.75097 0.0
C630 C 0.86674 0.75712 0.64244 0.0
C631 C 0.87811 0.74553 0.59146 0.0
C632 C 0.8642 0.75099 0.7181 0.0
C633 C 0.88639 0.72731 0.61628 0.0
C634 C 0.88386 0.72103 0.69164 0.0
C635 C 0.87186 0.72763 0.8206 0.0
C636 C 0.86224 0.74037 0.87306 0.0
C637 C 0.8731 0.73295 0.74339 0.0
C638 C 0.85261 0.75776 0.84639 0.0
C639 C 0.85352 0.76298 0.76956 0.0
H640 H 0.53614 0.60009 0.82439 0.0
H641 H 0.47518 0.62168 0.83196 0.0
H642 H 0.4757 0.62099 0.97046 0.0
H643 H 0.49271 0.61299 0.08894 0.0
H644 H 0.5537 0.59142 0.08508 0.0
H645 H 0.55392 0.59326 0.94582 0.0
C646 C 0.52318 0.60504 0.8566 0.0
C647 C 0.50569 0.61105 0.8182 0.0
C648 C 0.52345 0.6043 0.93676 0.0
C649 C 0.48881 0.61699 0.86042 0.0
C650 C 0.48906 0.61654 0.93958 0.0
C651 C 0.50606 0.6086 0.05782 0.0
C652 C 0.52309 0.6019 0.09738 0.0
C653 C 0.50615 0.6099 0.97826 0.0
C654 C 0.54033 0.59652 0.05597 0.0
C655 C 0.54049 0.59764 0.97634 0.0
H656 H 0.64891 0.28774 0.30281 0.0
H657 H 0.67676 0.23046 0.34767 0.0
H658 H 0.67556 0.22229 0.21255 0.0
H659 H 0.66336 0.22979 0.08461 0.0
H660 H 0.63434 0.28631 0.03905 0.0
H661 H 0.63946 0.29655 0.17142 0.0
C662 C 0.65506 0.27363 0.28285 0.0
C663 C 0.66267 0.25962 0.33535 0.0
C664 C 0.65395 0.26884 0.20513 0.0
C665 C 0.67061 0.24142 0.30855 0.0
C666 C 0.66989 0.2367 0.23133 0.0
C667 C 0.65832 0.24443 0.10357 0.0
C668 C 0.64847 0.25727 0.05243 0.0
C669 C 0.66103 0.25002 0.17963 0.0
C670 C 0.64219 0.27627 0.07719 0.0
C671 C 0.64498 0.28205 0.15301 0.0
H672 H 0.36405 0.20693 0.31431 0.0
H673 H 0.35463 0.26964 0.36569 0.0
H674 H 0.35741 0.27801 0.23189 0.0
H675 H 0.36524 0.26825 0.10387 0.0
H676 H 0.37153 0.20545 0.04694 0.0
H677 H 0.36785 0.1966 0.17991 0.0
C678 C 0.3623 0.22236 0.29597 0.0
C679 C 0.35956 0.23766 0.34992 0.0
C680 C 0.36393 0.22718 0.21851 0.0
C681 C 0.35708 0.25758 0.32541 0.0
C682 C 0.35872 0.26244 0.24893 0.0
C683 C 0.36577 0.25253 0.1196 0.0
C684 C 0.36963 0.23774 0.06452 0.0
C685 C 0.36269 0.24743 0.19551 0.0
C686 C 0.36979 0.21748 0.08719 0.0
C687 C 0.36725 0.21228 0.16371 0.0
H688 H 0.16612 0.73107 0.53921 0.0
H689 H 0.12276 0.77775 0.49692 0.0
H690 H 0.12584 0.78917 0.62867 0.0
H691 H 0.1387 0.78394 0.75812 0.0
H692 H 0.18098 0.73619 0.80105 0.0
H693 H 0.18066 0.72726 0.66635 0.0
C694 C 0.15741 0.74381 0.55883 0.0
C695 C 0.14429 0.75361 0.50853 0.0
C696 C 0.15907 0.75006 0.63465 0.0
C697 C 0.13322 0.77018 0.53425 0.0
C698 C 0.13487 0.77661 0.6097 0.0
C699 C 0.14811 0.7718 0.73788 0.0
C700 C 0.15971 0.76063 0.78968 0.0
C701 C 0.14751 0.76645 0.66068 0.0
C702 C 0.1718 0.74493 0.76244 0.0
C703 C 0.17157 0.73977 0.6855 0.0
H704 H 0.16468 0.26723 0.46457 0.0
H705 H 0.1371 0.20988 0.50801 0.0
H706 H 0.14284 0.19998 0.37556 0.0
H707 H 0.15253 0.20918 0.24473 0.0
H708 H 0.1791 0.26719 0.20214 0.0
H709 H 0.17713 0.27519 0.33728 0.0
C710 C 0.16008 0.25249 0.44514 0.0
C711 C 0.15044 0.23932 0.4957 0.0
C712 C 0.16319 0.24707 0.36906 0.0
C713 C 0.14476 0.22019 0.47031 0.0
C714 C 0.14791 0.2146 0.39446 0.0
C715 C 0.15822 0.22343 0.26517 0.0
C716 C 0.16571 0.23767 0.21321 0.0
C717 C 0.1567 0.22811 0.34293 0.0
C718 C 0.17307 0.25604 0.24074 0.0
C719 C 0.1719 0.26066 0.318 0.0
H720 H 0.34966 0.73685 0.67383 0.0
H721 H 0.3752 0.79629 0.67615 0.0
H722 H 0.37877 0.79465 0.8144 0.0
H723 H 0.37775 0.77484 0.93338 0.0
H724 H 0.35187 0.71551 0.92902 0.0
H725 H 0.34545 0.71863 0.7934 0.0
C726 C 0.3558 0.74955 0.70461 0.0
C727 C 0.36235 0.76655 0.66447 0.0
C728 C 0.35794 0.74847 0.78402 0.0
C729 C 0.37007 0.78296 0.70548 0.0
C730 C 0.37221 0.78201 0.78467 0.0
C731 C 0.37024 0.76283 0.90328 0.0
C732 C 0.36539 0.74495 0.94162 0.0
C733 C 0.36662 0.76465 0.82448 0.0
C734 C 0.35601 0.72937 0.90092 0.0
C735 C 0.35227 0.73112 0.82321 0.0
H736 H 0.47282 0.11753 0.85028 0.0
H737 H 0.52684 0.08368 0.80684 0.0
H738 H 0.53511 0.08443 0.94202 0.0
H739 H 0.52881 0.09754 0.06958 0.0
H740 H 0.4758 0.13277 0.11318 0.0
H741 H 0.46515 0.12843 0.98096 0.0
C742 C 0.4862 0.10999 0.87058 0.0
C743 C 0.49931 0.10075 0.81852 0.0
C744 C 0.49112 0.11088 0.94822 0.0
C745 C 0.51661 0.09107 0.84569 0.0
C746 C 0.52138 0.09153 0.92291 0.0
C747 C 0.51484 0.10415 0.05023 0.0
C748 C 0.50309 0.11543 0.10091 0.0
C749 C 0.50906 0.1019 0.97415 0.0
C750 C 0.48495 0.12376 0.07553 0.0
C751 C 0.47895 0.12142 -0.00023 0.0
H752 H 0.03823 0.88055 0.7146 0.0
H753 H 0.97794 0.9039 0.70122 0.0
H754 H 0.98228 0.91052 0.56614 0.0
H755 H 0.00224 0.90783 0.44965 0.0
H756 H 0.06259 0.88466 0.46162 0.0
H757 H 0.05933 0.88045 0.59911 0.0
C758 C 0.02622 0.88755 0.68283 0.0
C759 C 0.0078 0.89175 0.71874 0.0
C760 C 0.02877 0.89136 0.60438 0.0
C761 C 0.99225 0.90032 0.67534 0.0
C762 C 0.9947 0.9042 0.59786 0.0
C763 C 0.0148 0.9021 0.48234 0.0
C764 C 0.03257 0.89645 0.44488 0.0
C765 C 0.01277 0.89949 0.56144 0.0
C766 C 0.04868 0.88911 0.4886 0.0
C767 C 0.04681 0.8866 0.56742 0.0
H768 H 0.52142 0.90699 0.03651 0.0
H769 H 0.46203 0.88134 0.03158 0.0
H770 H 0.46422 0.87752 0.89355 0.0
H771 H 0.48439 0.87853 0.77568 0.0
H772 H 0.5436 0.9047 0.78231 0.0
H773 H 0.5401 0.91099 0.91782 0.0
C774 C 0.50885 0.90077 0.00521 0.0
C775 C 0.49169 0.8943 0.0446 0.0
C776 C 0.51024 0.89848 0.92591 0.0
C777 C 0.47547 0.88644 0.00288 0.0
C778 C 0.47674 0.88415 0.92382 0.0
C779 C 0.4963 0.88608 0.80611 0.0
C780 C 0.51423 0.89109 0.7683 0.0
C781 C 0.49423 0.88972 0.88481 0.0
C782 C 0.52969 0.90045 0.80979 0.0
C783 C 0.52772 0.90413 0.88749 0.0
H784 H 0.99118 0.09979 0.38471 0.0
H785 H 0.0455 0.13349 0.34715 0.0
H786 H 0.05524 0.12833 0.47998 0.0
H787 H 0.04652 0.11712 0.60944 0.0
H788 H 0.99111 0.0851 0.64697 0.0
H789 H 0.98364 0.0866 0.51112 0.0
C790 C 0.00523 0.10591 0.40546 0.0
C791 C 0.01762 0.11698 0.3562 0.0
C792 C 0.01047 0.10324 0.48192 0.0
C793 C 0.03586 0.12464 0.38354 0.0
C794 C 0.04134 0.12184 0.45969 0.0
C795 C 0.033 0.11014 0.5877 0.0
C796 C 0.0193 0.10115 0.63827 0.0
C797 C 0.02855 0.11151 0.50974 0.0
C798 C 0.0018 0.09225 0.60928 0.0
C799 C 0.9975 0.09315 0.53169 0.0
H800 H 0.03045 0.53126 0.04717 0.0
H801 H 0.97984 0.5418 0.90034 0.0
H802 H 0.97903 0.50621 0.86549 0.0
H803 H 0.99233 0.47184 0.87982 0.0
H804 H 0.04339 0.46163 0.025 0.0
H805 H 0.04455 0.49726 0.05752 0.0
C806 C 0.01922 0.52565 0.00791 0.0
C807 C 0.00512 0.5389 0.97672 0.0
C808 C 0.01901 0.50528 0.98773 0.0
C809 C 0.99078 0.5317 0.92502 0.0
C810 C 0.99034 0.51142 0.90509 0.0
C811 C 0.00384 0.47755 0.91766 0.0
C812 C 0.01769 0.46424 0.95036 0.0
C813 C 0.00437 0.49805 0.9362 0.0
C814 C 0.03248 0.47167 -0.0002 0.0
C815 C 0.03313 0.49199 0.01843 0.0
H816 H 0.79104 0.72992 0.21169 0.0
H817 H 0.80246 0.78652 0.32142 0.0
H818 H 0.76733 0.78859 0.36166 0.0
H819 H 0.73318 0.77422 0.36476 0.0
H820 H 0.72169 0.71807 0.25192 0.0
H821 H 0.75696 0.71569 0.21406 0.0
C822 C 0.7857 0.74274 0.24389 0.0
C823 C 0.79914 0.75803 0.26388 0.0
C824 C 0.76555 0.74377 0.26679 0.0
C825 C 0.79226 0.77456 0.3059 0.0
C826 C 0.77224 0.77571 0.32895 0.0
C827 C 0.73857 0.7614 0.33274 0.0
C828 C 0.72512 0.74623 0.31159 0.0
C829 C 0.75876 0.76036 0.31006 0.0
C830 C 0.73198 0.7298 0.26903 0.0
C831 C 0.75206 0.7285 0.24715 0.0
H832 H 0.50439 0.53564 0.57246 0.0
H833 H 0.51414 0.52513 0.3325 0.0
H834 H 0.51097 0.48932 0.35365 0.0
H835 H 0.50615 0.46113 0.44108 0.0
H836 H 0.51155 0.47185 0.68287 0.0
H837 H 0.50823 0.50759 0.66082 0.0
C838 C 0.50685 0.52582 0.52458 0.0
C839 C 0.50933 0.53367 0.45056 0.0
C840 C 0.50754 0.5051 0.538 0.0
C841 C 0.51126 0.52005 0.38974 0.0
C842 C 0.50987 0.49937 0.40197 0.0
C843 C 0.50757 0.47101 0.4894 0.0
C844 C 0.5088 0.46322 0.56398 0.0
C845 C 0.50818 0.49175 0.47607 0.0
C846 C 0.50955 0.47688 0.62502 0.0
C847 C 0.50809 0.49752 0.61238 0.0
H848 H 0.79554 0.22795 0.72793 0.0
H849 H 0.79126 0.27803 0.88202 0.0
H850 H 0.7549 0.27946 0.86221 0.0
H851 H 0.72465 0.26757 0.79513 0.0
H852 H 0.72926 0.21817 0.63803 0.0
H853 H 0.76529 0.2156 0.66321 0.0
C854 C 0.78659 0.23916 0.75707 0.0
C855 C 0.79595 0.25293 0.80602 0.0
C856 C 0.76586 0.24016 0.74397 0.0
C857 C 0.78428 0.2672 0.84447 0.0
C858 C 0.76356 0.26812 0.83268 0.0
C859 C 0.73359 0.25618 0.76696 0.0
C860 C 0.72449 0.24314 0.71454 0.0
C861 C 0.75424 0.25484 0.78175 0.0
C862 C 0.7361 0.2285 0.67788 0.0
C863 C 0.75663 0.22697 0.69257 0.0
H864 H 0.22564 0.22959 0.73529 0.0
H865 H 0.23395 0.2741 0.91041 0.0
H866 H 0.26963 0.27633 0.87908 0.0
H867 H 0.29844 0.26554 0.80194 0.0
H868 H 0.29015 0.22168 0.6247 0.0
H869 H 0.25428 0.21972 0.65477 0.0
C870 C 0.23527 0.23989 0.76607 0.0
C871 C 0.22727 0.25156 0.82545 0.0
C872 C 0.25565 0.24134 0.74673 0.0
C873 C 0.23988 0.26471 0.86542 0.0
C874 C 0.26021 0.26611 0.8471 0.0
C875 C 0.28872 0.25558 0.76996 0.0
C876 C 0.29679 0.24373 0.71142 0.0
C877 C 0.26826 0.25447 0.78801 0.0
C878 C 0.28413 0.23104 0.66962 0.0
C879 C 0.26371 0.22983 0.68718 0.0
H880 H 0.22474 0.72568 0.25708 0.0
H881 H 0.2297 0.77657 0.10695 0.0
H882 H 0.2648 0.78105 0.14399 0.0
H883 H 0.29398 0.77056 0.2198 0.0
H884 H 0.28904 0.72001 0.37142 0.0
H885 H 0.25373 0.71577 0.33582 0.0
C886 C 0.23354 0.73779 0.23289 0.0
C887 C 0.22476 0.75077 0.17934 0.0
C888 C 0.25352 0.74052 0.25581 0.0
C889 C 0.23627 0.76627 0.14758 0.0
C890 C 0.25624 0.76894 0.16929 0.0
C891 C 0.28506 0.75871 0.24529 0.0
C892 C 0.29393 0.74563 0.29815 0.0
C893 C 0.26498 0.75621 0.22353 0.0
C894 C 0.28236 0.73038 0.33125 0.0
C895 C 0.26229 0.72784 0.3103 0.0
H896 H 0.49049 0.02997 0.50136 0.0
H897 H 0.54412 0.04131 0.37168 0.0
H898 H 0.54649 0.0057 0.33854 0.0
H899 H 0.53328 0.97117 0.34746 0.0
H900 H 0.48002 0.95985 0.47938 0.0
H901 H 0.4774 0.99552 0.5108 0.0
C902 C 0.50273 0.02453 0.46631 0.0
C903 C 0.51708 0.03807 0.43867 0.0
C904 C 0.50396 0.00409 0.44765 0.0
C905 C 0.53286 0.03104 0.393 0.0
C906 C 0.5342 0.01073 0.37411 0.0
C907 C 0.52103 0.97665 0.38235 0.0
C908 C 0.50678 0.96311 0.41083 0.0
C909 C 0.51979 0.99712 0.40086 0.0
C910 C 0.4911 0.97016 0.45689 0.0
C911 C 0.48963 0.99049 0.47496 0.0
H912 H 0.98973 0.9741 0.13348 0.0
H913 H 0.04066 0.96154 0.99044 0.0
H914 H 0.04215 0.99672 0.95102 0.0
H915 H 0.02876 0.03111 0.95691 0.0
H916 H 0.97729 0.04362 0.09718 0.0
H917 H 0.976 0.00849 0.13781 0.0
C918 C 0.00124 0.97924 0.09442 0.0
C919 C 0.01518 0.9655 0.06525 0.0
C920 C 0.00175 0.99939 0.07103 0.0
C921 C 0.02988 0.97204 0.0137 0.0
C922 C 0.03067 0.99207 0.99098 0.0
C923 C 0.01718 0.02601 0.99573 0.0
C924 C 0.00317 0.03976 0.02432 0.0
C925 C 0.01661 0.00586 0.01886 0.0
C926 C 0.98827 0.03317 0.07493 0.0
C927 C 0.98756 0.01316 0.09824 0.0
H928 H 0.10721 0.69325 0.1888 0.0
H929 H 0.11647 0.70071 0.94711 0.0
H930 H 0.09107 0.67531 0.92109 0.0
H931 H 0.06441 0.65294 0.96648 0.0
H932 H 0.05511 0.64555 0.20817 0.0
H933 H 0.08243 0.66885 0.23431 0.0
C934 C 0.10383 0.68921 0.13039 0.0
C935 C 0.11362 0.69908 0.07008 0.0
C936 C 0.0891 0.67467 0.11568 0.0
C937 C 0.10915 0.69345 0.99478 0.0
C938 C 0.09456 0.67895 0.97974 0.0
C939 C 0.06844 0.65628 0.02492 0.0
C940 C 0.05753 0.64764 0.08518 0.0
C941 C 0.08414 0.66978 0.03969 0.0
C942 C 0.06316 0.65201 0.16055 0.0
C943 C 0.07877 0.6654 0.17565 0.0
H944 H 0.56398 0.84838 0.46181 0.0
H945 H 0.56039 0.85096 0.21653 0.0
H946 H 0.5872 0.82615 0.20665 0.0
H947 H 0.60982 0.80202 0.26748 0.0
H948 H 0.61335 0.79932 0.51273 0.0
H949 H 0.58844 0.82606 0.52257 0.0
C950 C 0.56914 0.84366 0.40608 0.0
C951 C 0.56 0.8514 0.34 0.0
C952 C 0.58448 0.82931 0.40078 0.0
C953 C 0.56708 0.84524 0.26835 0.0
C954 C 0.58238 0.83099 0.26263 0.0
C955 C 0.60528 0.80735 0.32319 0.0
C956 C 0.61332 0.79849 0.3893 0.0
C957 C 0.59089 0.82265 0.32846 0.0
C958 C 0.60739 0.80579 0.4609 0.0
C959 C 0.59309 0.82105 0.46659 0.0
H960 H 0.45613 0.3482 0.71893 0.0
H961 H 0.46252 0.34396 0.47487 0.0
H962 H 0.43639 0.31826 0.47101 0.0
H963 H 0.4133 0.29546 0.53808 0.0
H964 H 0.40826 0.29902 0.78278 0.0
H965 H 0.43223 0.3266 0.78495 0.0
C966 C 0.45172 0.34183 0.66466 0.0
C967 C 0.46138 0.34797 0.59735 0.0
C968 C 0.43697 0.32684 0.66298 0.0
C969 C 0.45542 0.33947 0.52766 0.0
C970 C 0.44048 0.32475 0.52538 0.0
C971 C 0.41727 0.30243 0.59178 0.0
C972 C 0.40905 0.2951 0.66018 0.0
C973 C 0.43138 0.31809 0.59286 0.0
C974 C 0.41445 0.30424 0.72932 0.0
C975 C 0.42817 0.32004 0.73067 0.0
H976 H 0.95834 0.15124 0.81483 0.0
H977 H 0.95888 0.15817 0.05926 0.0
H978 H 0.93258 0.18342 0.05071 0.0
H979 H 0.91094 0.20508 0.97376 0.0
H980 H 0.91092 0.19887 0.72907 0.0
H981 H 0.93534 0.17175 0.73816 0.0
C982 C 0.95258 0.15812 0.86631 0.0
C983 C 0.96073 0.15288 0.93746 0.0
C984 C 0.93758 0.17286 0.86106 0.0
C985 C 0.95304 0.16199 0.00358 0.0
C986 C 0.93797 0.17646 -0.00115 0.0
C987 C 0.91611 0.19769 0.92239 0.0
C988 C 0.90917 0.20415 0.85087 0.0
C989 C 0.93036 0.18225 0.92783 0.0
C990 C 0.91607 0.19433 0.78495 0.0
C991 C 0.93007 0.1788 0.79001 0.0
H992 H 0.11023 0.30098 0.79846 0.0
H993 H 0.11737 0.2982 0.04255 0.0
H994 H 0.09252 0.32479 0.05793 0.0
H995 H 0.06722 0.34725 0.00255 0.0
H996 H 0.06009 0.34979 0.75834 0.0
H997 H 0.08659 0.32492 0.74281 0.0
C998 C 0.10648 0.30625 0.8551 0.0
C999 C 0.11555 0.29743 0.91927 0.0
C1000 C 0.0921 0.32145 0.8636 0.0
C1001 C 0.11062 0.30465 0.99212 0.0
C1002 C 0.09634 0.31983 0.00101 0.0
C1003 C 0.07152 0.34247 0.94585 0.0
C1004 C 0.0615 0.35027 0.88178 0.0
C1005 C 0.08674 0.32808 0.93722 0.0
C1006 C 0.06746 0.34402 0.80874 0.0
C1007 C 0.0826 0.32975 0.79974 0.0
H1008 H 0.95765 0.84885 0.04842 0.0
H1009 H 0.96735 0.8563 0.28985 0.0
H1010 H 0.94115 0.83178 0.3167 0.0
H1011 H 0.91711 0.8066 0.27179 0.0
H1012 H 0.90748 0.79909 0.03035 0.0
H1013 H 0.93194 0.82536 0.00372 0.0
C1014 C 0.95395 0.84525 0.10698 0.0
C1015 C 0.96463 0.8543 0.16692 0.0
C1016 C 0.93893 0.83104 0.12215 0.0
C1017 C 0.95946 0.84955 0.24246 0.0
C1018 C 0.9445 0.83547 0.25796 0.0
C1019 C 0.92024 0.81079 0.21331 0.0
C1020 C 0.91058 0.80071 0.15323 0.0
C1021 C 0.93439 0.82586 0.19825 0.0
C1022 C 0.91471 0.80651 0.07782 0.0
C1023 C 0.92875 0.82151 0.06244 0.0
H1024 H 0.45196 0.64452 0.30212 0.0
H1025 H 0.46377 0.65335 0.54139 0.0
H1026 H 0.43704 0.67833 0.54791 0.0
H1027 H 0.41208 0.6997 0.48297 0.0
H1028 H 0.40141 0.69111 0.24287 0.0
H1029 H 0.42571 0.66397 0.23982 0.0
C1030 C 0.44861 0.65174 0.35594 0.0
C1031 C 0.46003 0.64718 0.42085 0.0
C1032 C 0.43341 0.66626 0.35919 0.0
C1033 C 0.45533 0.65665 0.49022 0.0
C1034 C 0.44004 0.67098 0.49408 0.0
C1035 C 0.41487 0.69167 0.43034 0.0
C1036 C 0.40507 0.6976 0.36313 0.0
C1037 C 0.42923 0.6762 0.42854 0.0
C1038 C 0.4089 0.68707 0.29528 0.0
C1039 C 0.42282 0.6715 0.29339 0.0
H1040 H 0.6117 0.20143 0.50465 0.0
H1041 H 0.60632 0.19581 0.74871 0.0
H1042 H 0.58122 0.16953 0.73286 0.0
H1043 H 0.55938 0.14954 0.65008 0.0
H1044 H 0.56405 0.1559 0.40606 0.0
H1045 H 0.59089 0.18039 0.42181 0.0
C1046 C 0.6052 0.19434 0.55444 0.0
C1047 C 0.61085 0.2007 0.62773 0.0
C1048 C 0.59054 0.17941 0.54503 0.0
C1049 C 0.6022 0.19132 0.69155 0.0
C1050 C 0.58781 0.17628 0.6826 0.0
C1051 C 0.56638 0.15613 0.60026 0.0
C1052 C 0.55959 0.15093 0.52704 0.0
C1053 C 0.58165 0.17042 0.60964 0.0
C1054 C 0.56885 0.15968 0.46318 0.0
C1055 C 0.58422 0.17371 0.47207 0.0
H1056 H 0.96159 0.35291 0.7845 0.0
H1057 H 0.95946 0.34964 0.03003 0.0
H1058 H 0.93207 0.32548 0.02245 0.0
H1059 H 0.91066 0.30354 0.94678 0.0
H1060 H 0.91325 0.30578 0.7013 0.0
H1061 H 0.93858 0.33225 0.70849 0.0
C1062 C 0.95503 0.3471 0.83651 0.0
C1063 C 0.96274 0.35302 0.90782 0.0
C1064 C 0.93947 0.33295 0.83178 0.0
C1065 C 0.95396 0.34531 0.97442 0.0
C1066 C 0.9383 0.33145 0.97014 0.0
C1067 C 0.91651 0.30992 0.89461 0.0
C1068 C 0.91006 0.30254 0.82355 0.0
C1069 C 0.93122 0.32489 0.89917 0.0
C1070 C 0.91796 0.31107 0.75678 0.0
C1071 C 0.93247 0.3262 0.76086 0.0
H1072 H 0.46102 0.14458 0.6451 0.0
H1073 H 0.45565 0.15454 0.40301 0.0
H1074 H 0.42854 0.17848 0.42557 0.0
H1075 H 0.40827 0.19841 0.51431 0.0
H1076 H 0.41457 0.1891 0.75652 0.0
H1077 H 0.43934 0.16288 0.73321 0.0
C1078 C 0.45381 0.15177 0.59699 0.0
C1079 C 0.46053 0.14782 0.52241 0.0
C1080 C 0.43847 0.16573 0.6104 0.0
C1081 C 0.4509 0.15734 0.46102 0.0
C1082 C 0.43541 0.17107 0.47389 0.0
C1083 C 0.41489 0.19054 0.56214 0.0
C1084 C 0.40964 0.1959 0.63717 0.0
C1085 C 0.42937 0.17567 0.54842 0.0
C1086 C 0.41836 0.18542 0.69823 0.0
C1087 C 0.43258 0.17043 0.68496 0.0
H1088 H 0.60396 0.69549 0.2718 0.0
H1089 H 0.61823 0.7005 0.51092 0.0
H1090 H 0.59415 0.67444 0.54105 0.0
H1091 H 0.56729 0.65171 0.50162 0.0
H1092 H 0.55271 0.64652 0.26293 0.0
H1093 H 0.57855 0.6709 0.23129 0.0
C1094 C 0.60195 0.69074 0.33036 0.0
C1095 C 0.61289 0.70014 0.38872 0.0
C1096 C 0.58784 0.67572 0.34788 0.0
C1097 C 0.61007 0.69367 0.46441 0.0
C1098 C 0.59621 0.67874 0.48205 0.0
C1099 C 0.56986 0.65577 0.44263 0.0
C1100 C 0.55788 0.64738 0.38513 0.0
C1101 C 0.58474 0.66991 0.4245 0.0
C1102 C 0.56157 0.65278 0.30879 0.0
C1103 C 0.57637 0.66678 0.2904 0.0
H1104 H 0.06488 0.84697 0.00868 0.0
H1105 H 0.06386 0.85506 0.25265 0.0
H1106 H 0.08975 0.82977 0.26756 0.0
H1107 H 0.1111 0.80362 0.21289 0.0
H1108 H 0.11247 0.7954 0.96922 0.0
H1109 H 0.08826 0.82245 0.95305 0.0
C1110 C 0.07045 0.84334 0.06503 0.0
C1111 C 0.06223 0.85286 0.1293 0.0
C1112 C 0.08539 0.82862 0.07356 0.0
C1113 C 0.06979 0.84803 0.20191 0.0
C1114 C 0.08461 0.83346 0.21073 0.0
C1115 C 0.10621 0.80782 0.1562 0.0
C1116 C 0.1135 0.79736 0.09255 0.0
C1117 C 0.09224 0.82339 0.14715 0.0
C1118 C 0.10715 0.80318 0.01938 0.0
C1119 C 0.09321 0.81863 0.00998 0.0
H1120 H 0.90787 0.70347 0.0498 0.0
H1121 H 0.91363 0.69658 0.29328 0.0
H1122 H 0.9378 0.66948 0.27436 0.0
H1123 H 0.95892 0.64951 0.18918 0.0
H1124 H 0.95415 0.65734 0.94578 0.0
H1125 H 0.92779 0.68231 0.96446 0.0
C1126 C 0.91418 0.6959 0.09889 0.0
C1127 C 0.90896 0.70213 0.17294 0.0
C1128 C 0.92833 0.6806 0.08763 0.0
C1129 C 0.91743 0.69218 0.2357 0.0
C1130 C 0.93127 0.67669 0.22491 0.0
C1131 C 0.95199 0.65647 0.14 0.0
C1132 C 0.95861 0.65157 0.06611 0.0
C1133 C 0.93709 0.67104 0.15117 0.0
C1134 C 0.94945 0.66087 0.00327 0.0
C1135 C 0.93438 0.67517 0.01391 0.0
H1136 H 0.10786 0.19399 0.80934 0.0
H1137 H 0.12094 0.19995 0.04907 0.0
H1138 H 0.09582 0.17474 0.0791 0.0
H1139 H 0.06816 0.15291 0.03872 0.0
H1140 H 0.05507 0.14692 0.79905 0.0
H1141 H 0.08214 0.16998 0.76819 0.0
C1142 C 0.10539 0.18962 0.86807 0.0
C1143 C 0.11619 0.19908 0.92667 0.0
C1144 C 0.09076 0.17513 0.88534 0.0
C1145 C 0.11284 0.19306 0.00251 0.0
C1146 C 0.09839 0.17864 0.01999 0.0
C1147 C 0.07134 0.1565 0.97971 0.0
C1148 C 0.05941 0.14829 0.92159 0.0
C1149 C 0.08694 0.1699 0.96205 0.0
C1150 C 0.06391 0.15301 0.84528 0.0
C1151 C 0.0794 0.16628 0.82737 0.0
H1152 H 0.60538 0.30237 0.74626 0.0
H1153 H 0.62161 0.30112 0.50822 0.0
H1154 H 0.59759 0.32761 0.48147 0.0
H1155 H 0.5699 0.34908 0.52294 0.0
H1156 H 0.55333 0.35037 0.76054 0.0
H1157 H 0.5796 0.32614 0.78975 0.0
C1158 C 0.60386 0.30806 0.68871 0.0
C1159 C 0.61518 0.29952 0.62938 0.0
C1160 C 0.5898 0.32324 0.67325 0.0
C1161 C 0.61305 0.30723 0.55516 0.0
C1162 C 0.59924 0.32239 0.53957 0.0
C1163 C 0.57213 0.34422 0.58126 0.0
C1164 C 0.55945 0.35138 0.63912 0.0
C1165 C 0.58719 0.33017 0.59779 0.0
C1166 C 0.56275 0.34504 0.71456 0.0
C1167 C 0.57777 0.33112 0.73144 0.0
H1168 H 0.45609 0.84392 0.46583 0.0
H1169 H 0.46308 0.8519 0.22324 0.0
H1170 H 0.43678 0.82755 0.19941 0.0
H1171 H 0.41302 0.80233 0.24642 0.0
H1172 H 0.40601 0.79422 0.4889 0.0
H1173 H 0.43079 0.82016 0.51302 0.0
C1174 C 0.45176 0.84046 0.40781 0.0
C1175 C 0.46172 0.84973 0.34673 0.0
C1176 C 0.43657 0.82625 0.39404 0.0
C1177 C 0.45577 0.84506 0.27177 0.0
C1178 C 0.44071 0.83104 0.25779 0.0
C1179 C 0.41678 0.80634 0.30452 0.0
C1180 C 0.40768 0.79617 0.36543 0.0
C1181 C 0.4312 0.82129 0.31839 0.0
C1182 C 0.41273 0.8017 0.4405 0.0
C1183 C 0.42699 0.81655 0.45462 0.0
loop_
_geom_bond_atom_site_label_1
_geom_bond_atom_site_label_2
_geom_bond_distance
_geom_bond_site_symmetry_2
_ccdc_geom_bond_type
Co0 O3 1.970 1_455 S
Co0 N17 1.989 . S
Co0 O25 1.967 . S
Co0 O32 1.920 . S
Co1 O4 1.966 1_456 S
Co1 N10 2.022 . S
Co1 N18 1.993 1_556 S
Co1 O26 1.941 1_556 S
C2 O3 1.258 . S
C2 O4 1.263 . S
O3 Co0 1.970 1_655 S
O3 C2 1.258 . S
O4 Co1 1.966 1_654 S
O4 C2 1.263 . S
C5 O6 1.235 1_455 S
C5 O32 1.289 . S
O6 C5 1.235 1_655 S
C7 C9 1.400 . S
C7 N10 1.351 . S
C7 C12 1.501 1_455 S
C8 C9 1.387 . S
C8 N11 1.341 . S
C9 C7 1.400 . S
C9 C8 1.387 . S
N10 Co1 2.022 . S
N10 C7 1.351 . S
N10 N11 1.365 . S
N11 C8 1.341 . S
N11 N10 1.365 . S
N11 H31 0.862 . S
C12 C7 1.501 1_655 S
C12 H13 0.961 . S
C12 H14 0.961 . S
C12 H15 0.960 . S
H13 C12 0.961 . S
H14 C12 0.961 . S
H15 C12 0.960 . S
C16 N17 1.342 . S
C16 C20 1.401 . S
C16 C21 1.499 . S
N17 Co0 1.989 . S
N17 C16 1.342 . S
N17 N18 1.388 . S
N18 Co1 1.993 1_554 S
N18 N17 1.388 . S
N18 C19 1.346 1_554 S
C19 N18 1.346 1_556 S
C19 C20 1.396 1_556 S
C19 C29 1.510 . S
C20 C16 1.401 . S
C20 C19 1.396 1_554 S
C21 C16 1.499 . S
C21 H22 0.959 . S
C21 H23 0.960 . S
C21 H24 0.961 . S
H22 C21 0.959 . S
H23 C21 0.960 . S
H24 C21 0.961 . S
O25 Co0 1.967 . S
O25 C33 1.258 . S
O26 Co1 1.941 1_554 S
O26 C33 1.266 . S
H27 C29 0.959 . S
H28 C29 0.961 . S
C29 C19 1.510 . S
C29 H27 0.959 . S
C29 H28 0.961 . S
C29 H30 0.960 . S
H30 C29 0.960 . S
H31 N11 0.862 . S
O32 Co0 1.920 . S
O32 C5 1.289 . S
C33 O25 1.258 . S
C33 O26 1.266 . S
Co34 O37 1.970 . S
Co34 N51 1.989 . S
Co34 O59 1.967 . S
Co34 O66 1.920 . S
Co35 O38 1.966 . S
Co35 N44 2.022 . S
Co35 N52 1.993 . S
Co35 O60 1.941 . S
C36 O37 1.258 . S
C36 O38 1.263 . S
O37 Co34 1.970 . S
O37 C36 1.258 . S
O38 Co35 1.966 . S
O38 C36 1.263 . S
C39 O40 1.235 . S
C39 O66 1.289 . S
O40 C39 1.235 . S
C41 C43 1.400 1_554 S
C41 N44 1.351 . S
C41 C46 1.501 . S
C42 C43 1.387 1_554 S
C42 N45 1.341 . S
C43 C41 1.400 1_556 S
C43 C42 1.387 1_556 S
N44 Co35 2.022 . S
N44 C41 1.351 . S
N44 N45 1.365 . S
N45 C42 1.341 . S
N45 N44 1.365 . S
N45 H65 0.862 . S
C46 C41 1.501 . S
C46 H47 0.961 . S
C46 H48 0.961 . S
C46 H49 0.960 . S
H47 C46 0.961 . S
H48 C46 0.961 . S
H49 C46 0.960 . S
C50 N51 1.342 . S
C50 C54 1.401 . S
C50 C55 1.499 . S
N51 Co34 1.989 . S
N51 C50 1.342 . S
N51 N52 1.388 . S
N52 Co35 1.993 . S
N52 N51 1.388 . S
N52 C53 1.346 . S
C53 N52 1.346 . S
C53 C54 1.396 . S
C53 C63 1.510 . S
C54 C50 1.401 . S
C54 C53 1.396 . S
C55 C50 1.499 . S
C55 H56 0.959 . S
C55 H57 0.960 . S
C55 H58 0.961 . S
H56 C55 0.959 . S
H57 C55 0.960 . S
H58 C55 0.961 . S
O59 Co34 1.967 . S
O59 C67 1.258 . S
O60 Co35 1.941 . S
O60 C67 1.266 . S
H61 C63 0.959 . S
H62 C63 0.961 . S
C63 C53 1.510 . S
C63 H61 0.959 . S
C63 H62 0.961 . S
C63 H64 0.960 . S
H64 C63 0.960 . S
H65 N45 0.862 . S
O66 Co34 1.920 . S
O66 C39 1.289 . S
C67 O59 1.258 . S
C67 O60 1.266 . S
Co68 O71 1.970 . S
Co68 N85 1.989 . S
Co68 O93 1.967 . S
Co68 O100 1.920 . S
Co69 O72 1.966 . S
Co69 N78 2.022 . S
Co69 N86 1.993 . S
Co69 O94 1.941 . S
C70 O71 1.258 . S
C70 O72 1.263 . S
O71 Co68 1.970 . S
O71 C70 1.258 . S
O72 Co69 1.966 . S
O72 C70 1.263 . S
C73 O74 1.235 . S
C73 O100 1.289 . S
O74 C73 1.235 . S
C75 C77 1.400 . S
C75 N78 1.351 . S
C75 C80 1.501 . S
C76 C77 1.387 . S
C76 N79 1.341 . S
C77 C75 1.400 . S
C77 C76 1.387 . S
N78 Co69 2.022 . S
N78 C75 1.351 . S
N78 N79 1.365 . S
N79 C76 1.341 . S
N79 N78 1.365 . S
N79 H99 0.862 . S
C80 C75 1.501 . S
C80 H81 0.961 . S
C80 H82 0.961 . S
C80 H83 0.960 . S
H81 C80 0.961 . S
H82 C80 0.961 . S
H83 C80 0.960 . S
C84 N85 1.342 . S
C84 C88 1.401 . S
C84 C89 1.499 . S
N85 Co68 1.989 . S
N85 C84 1.342 . S
N85 N86 1.388 . S
N86 Co69 1.993 . S
N86 N85 1.388 . S
N86 C87 1.346 . S
C87 N86 1.346 . S
C87 C88 1.396 . S
C87 C97 1.510 . S
C88 C84 1.401 . S
C88 C87 1.396 . S
C89 C84 1.499 . S
C89 H90 0.959 . S
C89 H91 0.960 . S
C89 H92 0.961 . S
H90 C89 0.959 . S
H91 C89 0.960 . S
H92 C89 0.961 . S
O93 Co68 1.967 . S
O93 C101 1.258 . S
O94 Co69 1.941 . S
O94 C101 1.266 . S
H95 C97 0.959 . S
H96 C97 0.961 . S
C97 C87 1.510 . S
C97 H95 0.959 . S
C97 H96 0.961 . S
C97 H98 0.960 . S
H98 C97 0.960 . S
H99 N79 0.862 . S
O100 Co68 1.920 . S
O100 C73 1.289 . S
C101 O93 1.258 . S
C101 O94 1.266 . S
Co102 O105 1.970 . S
Co102 N119 1.989 . S
Co102 O127 1.967 . S
Co102 O134 1.920 1_556 S
Co103 O106 1.966 . S
Co103 N112 2.022 . S
Co103 N120 1.993 . S
Co103 O128 1.941 . S
C104 O105 1.258 . S
C104 O106 1.263 . S
O105 Co102 1.970 . S
O105 C104 1.258 . S
O106 Co103 1.966 . S
O106 C104 1.263 . S
C107 O108 1.235 . S
C107 O134 1.289 . S
O108 C107 1.235 . S
C109 C111 1.400 . S
C109 N112 1.351 . S
C109 C114 1.501 . S
C110 C111 1.387 . S
C110 N113 1.341 . S
C111 C109 1.400 . S
C111 C110 1.387 . S
N112 Co103 2.022 . S
N112 C109 1.351 . S
N112 N113 1.365 . S
N113 C110 1.341 . S
N113 N112 1.365 . S
N113 H133 0.862 . S
C114 C109 1.501 . S
C114 H115 0.961 . S
C114 H116 0.961 . S
C114 H117 0.960 . S
H115 C114 0.961 . S
H116 C114 0.961 . S
H117 C114 0.960 . S
C118 N119 1.342 . S
C118 C122 1.401 . S
C118 C123 1.499 . S
N119 Co102 1.989 . S
N119 C118 1.342 . S
N119 N120 1.388 . S
N120 Co103 1.993 . S
N120 N119 1.388 . S
N120 C121 1.346 . S
C121 N120 1.346 . S
C121 C122 1.396 . S
C121 C131 1.510 . S
C122 C118 1.401 . S
C122 C121 1.396 . S
C123 C118 1.499 . S
C123 H124 0.959 . S
C123 H125 0.960 . S
C123 H126 0.961 . S
H124 C123 0.959 . S
H125 C123 0.960 . S
H126 C123 0.961 . S
O127 Co102 1.967 . S
O127 C135 1.258 . S
O128 Co103 1.941 . S
O128 C135 1.266 . S
H129 C131 0.959 . S
H130 C131 0.961 . S
C131 C121 1.510 . S
C131 H129 0.959 . S
C131 H130 0.961 . S
C131 H132 0.960 . S
H132 C131 0.960 . S
H133 N113 0.862 . S
O134 Co102 1.920 1_554 S
O134 C107 1.289 . S
C135 O127 1.258 . S
C135 O128 1.266 . S
Co136 O139 1.970 1_455 S
Co136 N153 1.989 . S
Co136 O161 1.967 . S
Co136 O168 1.920 . S
Co137 O140 1.966 1_454 S
Co137 N146 2.022 . S
Co137 N154 1.993 1_554 S
Co137 O162 1.941 1_554 S
C138 O139 1.258 . S
C138 O140 1.263 . S
O139 Co136 1.970 1_655 S
O139 C138 1.258 . S
O140 Co137 1.966 1_656 S
O140 C138 1.263 . S
C141 O142 1.235 1_455 S
C141 O168 1.289 . S
O142 C141 1.235 1_655 S
C143 C145 1.400 . S
C143 N146 1.351 . S
C143 C148 1.501 1_455 S
C144 C145 1.387 . S
C144 N147 1.341 . S
C145 C143 1.400 . S
C145 C144 1.387 . S
N146 Co137 2.022 . S
N146 C143 1.351 . S
N146 N147 1.365 . S
N147 C144 1.341 . S
N147 N146 1.365 . S
N147 H167 0.862 . S
C148 C143 1.501 1_655 S
C148 H149 0.961 . S
C148 H150 0.961 . S
C148 H151 0.960 . S
H149 C148 0.961 . S
H150 C148 0.961 . S
H151 C148 0.960 . S
C152 N153 1.342 . S
C152 C156 1.401 . S
C152 C157 1.499 . S
N153 Co136 1.989 . S
N153 C152 1.342 . S
N153 N154 1.388 . S
N154 Co137 1.993 1_556 S
N154 N153 1.388 . S
N154 C155 1.346 1_556 S
C155 N154 1.346 1_554 S
C155 C156 1.396 1_554 S
C155 C165 1.510 . S
C156 C152 1.401 . S
C156 C155 1.396 1_556 S
C157 C152 1.499 . S
C157 H158 0.959 . S
C157 H159 0.960 . S
C157 H160 0.961 . S
H158 C157 0.959 . S
H159 C157 0.960 . S
H160 C157 0.961 . S
O161 Co136 1.967 . S
O161 C169 1.258 . S
O162 Co137 1.941 1_556 S
O162 C169 1.266 . S
H163 C165 0.959 . S
H164 C165 0.961 . S
C165 C155 1.510 . S
C165 H163 0.959 . S
C165 H164 0.961 . S
C165 H166 0.960 . S
H166 C165 0.960 . S
H167 N147 0.862 . S
O168 Co136 1.920 . S
O168 C141 1.289 . S
C169 O161 1.258 . S
C169 O162 1.266 . S
Co170 O173 1.970 . S
Co170 N187 1.989 . S
Co170 O195 1.967 . S
Co170 O202 1.920 1_554 S
Co171 O174 1.966 . S
Co171 N180 2.022 . S
Co171 N188 1.993 . S
Co171 O196 1.941 . S
C172 O173 1.258 . S
C172 O174 1.263 . S
O173 Co170 1.970 . S
O173 C172 1.258 . S
O174 Co171 1.966 . S
O174 C172 1.263 . S
C175 O176 1.235 . S
C175 O202 1.289 . S
O176 C175 1.235 . S
C177 C179 1.400 . S
C177 N180 1.351 . S
C177 C182 1.501 . S
C178 C179 1.387 . S
C178 N181 1.341 . S
C179 C177 1.400 . S
C179 C178 1.387 . S
N180 Co171 2.022 . S
N180 C177 1.351 . S
N180 N181 1.365 . S
N181 C178 1.341 . S
N181 N180 1.365 . S
N181 H201 0.862 . S
C182 C177 1.501 . S
C182 H183 0.961 . S
C182 H184 0.961 . S
C182 H185 0.960 . S
H183 C182 0.961 . S
H184 C182 0.961 . S
H185 C182 0.960 . S
C186 N187 1.342 . S
C186 C190 1.401 . S
C186 C191 1.499 . S
N187 Co170 1.989 . S
N187 C186 1.342 . S
N187 N188 1.388 . S
N188 Co171 1.993 . S
N188 N187 1.388 . S
N188 C189 1.346 . S
C189 N188 1.346 . S
C189 C190 1.396 . S
C189 C199 1.510 . S
C190 C186 1.401 . S
C190 C189 1.396 . S
C191 C186 1.499 . S
C191 H192 0.959 . S
C191 H193 0.960 . S
C191 H194 0.961 . S
H192 C191 0.959 . S
H193 C191 0.960 . S
H194 C191 0.961 . S
O195 Co170 1.967 . S
O195 C203 1.258 . S
O196 Co171 1.941 . S
O196 C203 1.266 . S
H197 C199 0.959 . S
H198 C199 0.961 . S
C199 C189 1.510 . S
C199 H197 0.959 . S
C199 H198 0.961 . S
C199 H200 0.960 . S
H200 C199 0.960 . S
H201 N181 0.862 . S
O202 Co170 1.920 1_556 S
O202 C175 1.289 . S
C203 O195 1.258 . S
C203 O196 1.266 . S
Co204 O207 1.970 . S
Co204 N221 1.989 . S
Co204 O229 1.967 . S
Co204 O236 1.920 . S
Co205 O208 1.966 . S
Co205 N214 2.022 . S
Co205 N222 1.993 . S
Co205 O230 1.941 . S
C206 O207 1.258 . S
C206 O208 1.263 . S
O207 Co204 1.970 . S
O207 C206 1.258 . S
O208 Co205 1.966 . S
O208 C206 1.263 . S
C209 O210 1.235 . S
C209 O236 1.289 . S
O210 C209 1.235 . S
C211 C213 1.400 . S
C211 N214 1.351 . S
C211 C216 1.501 . S
C212 C213 1.387 . S
C212 N215 1.341 . S
C213 C211 1.400 . S
C213 C212 1.387 . S
N214 Co205 2.022 . S
N214 C211 1.351 . S
N214 N215 1.365 . S
N215 C212 1.341 . S
N215 N214 1.365 . S
N215 H235 0.862 . S
C216 C211 1.501 . S
C216 H217 0.961 . S
C216 H218 0.961 . S
C216 H219 0.960 . S
H217 C216 0.961 . S
H218 C216 0.961 . S
H219 C216 0.960 . S
C220 N221 1.342 . S
C220 C224 1.401 . S
C220 C225 1.499 . S
N221 Co204 1.989 . S
N221 C220 1.342 . S
N221 N222 1.388 . S
N222 Co205 1.993 . S
N222 N221 1.388 . S
N222 C223 1.346 . S
C223 N222 1.346 . S
C223 C224 1.396 . S
C223 C233 1.510 . S
C224 C220 1.401 . S
C224 C223 1.396 . S
C225 C220 1.499 . S
C225 H226 0.959 . S
C225 H227 0.960 . S
C225 H228 0.961 . S
H226 C225 0.959 . S
H227 C225 0.960 . S
H228 C225 0.961 . S
O229 Co204 1.967 . S
O229 C237 1.258 . S
O230 Co205 1.941 . S
O230 C237 1.266 . S
H231 C233 0.959 . S
H232 C233 0.961 . S
C233 C223 1.510 . S
C233 H231 0.959 . S
C233 H232 0.961 . S
C233 H234 0.960 . S
H234 C233 0.960 . S
H235 N215 0.862 . S
O236 Co204 1.920 . S
O236 C209 1.289 . S
C237 O229 1.258 . S
C237 O230 1.266 . S
Co238 O241 1.970 . S
Co238 N255 1.989 . S
Co238 O263 1.967 . S
Co238 O270 1.920 . S
Co239 O242 1.966 . S
Co239 N248 2.022 . S
Co239 N256 1.993 . S
Co239 O264 1.941 . S
C240 O241 1.258 . S
C240 O242 1.263 . S
O241 Co238 1.970 . S
O241 C240 1.258 . S
O242 Co239 1.966 . S
O242 C240 1.263 . S
C243 O244 1.235 . S
C243 O270 1.289 . S
O244 C243 1.235 . S
C245 C247 1.400 1_556 S
C245 N248 1.351 . S
C245 C250 1.501 . S
C246 C247 1.387 1_556 S
C246 N249 1.341 . S
C247 C245 1.400 1_554 S
C247 C246 1.387 1_554 S
N248 Co239 2.022 . S
N248 C245 1.351 . S
N248 N249 1.365 . S
N249 C246 1.341 . S
N249 N248 1.365 . S
N249 H269 0.862 . S
C250 C245 1.501 . S
C250 H251 0.961 . S
C250 H252 0.961 . S
C250 H253 0.960 . S
H251 C250 0.961 . S
H252 C250 0.961 . S
H253 C250 0.960 . S
C254 N255 1.342 . S
C254 C258 1.401 . S
C254 C259 1.499 . S
N255 Co238 1.989 . S
N255 C254 1.342 . S
N255 N256 1.388 . S
N256 Co239 1.993 . S
N256 N255 1.388 . S
N256 C257 1.346 . S
C257 N256 1.346 . S
C257 C258 1.396 . S
C257 C267 1.510 . S
C258 C254 1.401 . S
C258 C257 1.396 . S
C259 C254 1.499 . S
C259 H260 0.959 . S
C259 H261 0.960 . S
C259 H262 0.961 . S
H260 C259 0.959 . S
H261 C259 0.960 . S
H262 C259 0.961 . S
O263 Co238 1.967 . S
O263 C271 1.258 . S
O264 Co239 1.941 . S
O264 C271 1.266 . S
H265 C267 0.959 . S
H266 C267 0.961 . S
C267 C257 1.510 . S
C267 H265 0.959 . S
C267 H266 0.961 . S
C267 H268 0.960 . S
H268 C267 0.960 . S
H269 N249 0.862 . S
O270 Co238 1.920 . S
O270 C243 1.289 . S
C271 O263 1.258 . S
C271 O264 1.266 . S
Co272 O275 1.970 . S
Co272 N289 1.989 . S
Co272 O297 1.967 . S
Co272 O304 1.920 . S
Co273 O276 1.966 . S
Co273 N282 2.022 . S
Co273 N290 1.993 . S
Co273 O298 1.941 . S
C274 O275 1.258 . S
C274 O276 1.263 . S
O275 Co272 1.970 . S
O275 C274 1.258 . S
O276 Co273 1.966 . S
O276 C274 1.263 . S
C277 O278 1.235 . S
C277 O304 1.289 . S
O278 C277 1.235 . S
C279 C281 1.400 1_556 S
C279 N282 1.351 . S
C279 C284 1.501 . S
C280 C281 1.387 1_556 S
C280 N283 1.341 . S
C281 C279 1.400 1_554 S
C281 C280 1.387 1_554 S
N282 Co273 2.022 . S
N282 C279 1.351 . S
N282 N283 1.365 . S
N283 C280 1.341 . S
N283 N282 1.365 . S
N283 H303 0.862 . S
C284 C279 1.501 . S
C284 H285 0.961 . S
C284 H286 0.961 . S
C284 H287 0.960 . S
H285 C284 0.961 . S
H286 C284 0.961 . S
H287 C284 0.960 . S
C288 N289 1.342 . S
C288 C292 1.401 . S
C288 C293 1.499 . S
N289 Co272 1.989 . S
N289 C288 1.342 . S
N289 N290 1.388 . S
N290 Co273 1.993 . S
N290 N289 1.388 . S
N290 C291 1.346 . S
C291 N290 1.346 . S
C291 C292 1.396 . S
C291 C301 1.510 . S
C292 C288 1.401 . S
C292 C291 1.396 . S
C293 C288 1.499 . S
C293 H294 0.959 . S
C293 H295 0.960 . S
C293 H296 0.961 . S
H294 C293 0.959 . S
H295 C293 0.960 . S
H296 C293 0.961 . S
O297 Co272 1.967 . S
O297 C305 1.258 . S
O298 Co273 1.941 . S
O298 C305 1.266 . S
H299 C301 0.959 . S
H300 C301 0.961 . S
C301 C291 1.510 . S
C301 H299 0.959 . S
C301 H300 0.961 . S
C301 H302 0.960 . S
H302 C301 0.960 . S
H303 N283 0.862 . S
O304 Co272 1.920 . S
O304 C277 1.289 . S
C305 O297 1.258 . S
C305 O298 1.266 . S
Co306 O309 1.970 . S
Co306 N323 1.989 . S
Co306 O331 1.967 . S
Co306 O338 1.920 1_554 S
Co307 O310 1.966 . S
Co307 N316 2.022 . S
Co307 N324 1.993 . S
Co307 O332 1.941 . S
C308 O309 1.258 . S
C308 O310 1.263 . S
O309 Co306 1.970 . S
O309 C308 1.258 . S
O310 Co307 1.966 . S
O310 C308 1.263 . S
C311 O312 1.235 . S
C311 O338 1.289 . S
O312 C311 1.235 . S
C313 C315 1.400 . S
C313 N316 1.351 . S
C313 C318 1.501 . S
C314 C315 1.387 . S
C314 N317 1.341 . S
C315 C313 1.400 . S
C315 C314 1.387 . S
N316 Co307 2.022 . S
N316 C313 1.351 . S
N316 N317 1.365 . S
N317 C314 1.341 . S
N317 N316 1.365 . S
N317 H337 0.862 . S
C318 C313 1.501 . S
C318 H319 0.961 . S
C318 H320 0.961 . S
C318 H321 0.960 . S
H319 C318 0.961 . S
H320 C318 0.961 . S
H321 C318 0.960 . S
C322 N323 1.342 . S
C322 C326 1.401 . S
C322 C327 1.499 . S
N323 Co306 1.989 . S
N323 C322 1.342 . S
N323 N324 1.388 . S
N324 Co307 1.993 . S
N324 N323 1.388 . S
N324 C325 1.346 . S
C325 N324 1.346 . S
C325 C326 1.396 . S
C325 C335 1.510 . S
C326 C322 1.401 . S
C326 C325 1.396 . S
C327 C322 1.499 . S
C327 H328 0.959 . S
C327 H329 0.960 . S
C327 H330 0.961 . S
H328 C327 0.959 . S
H329 C327 0.960 . S
H330 C327 0.961 . S
O331 Co306 1.967 . S
O331 C339 1.258 . S
O332 Co307 1.941 . S
O332 C339 1.266 . S
H333 C335 0.959 . S
H334 C335 0.961 . S
C335 C325 1.510 . S
C335 H333 0.959 . S
C335 H334 0.961 . S
C335 H336 0.960 . S
H336 C335 0.960 . S
H337 N317 0.862 . S
O338 Co306 1.920 1_556 S
O338 C311 1.289 . S
C339 O331 1.258 . S
C339 O332 1.266 . S
Co340 O343 1.970 . S
Co340 N357 1.989 . S
Co340 O365 1.967 . S
Co340 O372 1.920 1_556 S
Co341 O344 1.966 . S
Co341 N350 2.022 . S
Co341 N358 1.993 . S
Co341 O366 1.941 . S
C342 O343 1.258 . S
C342 O344 1.263 . S
O343 Co340 1.970 . S
O343 C342 1.258 . S
O344 Co341 1.966 . S
O344 C342 1.263 . S
C345 O346 1.235 . S
C345 O372 1.289 . S
O346 C345 1.235 . S
C347 C349 1.400 . S
C347 N350 1.351 . S
C347 C352 1.501 . S
C348 C349 1.387 . S
C348 N351 1.341 . S
C349 C347 1.400 . S
C349 C348 1.387 . S
N350 Co341 2.022 . S
N350 C347 1.351 . S
N350 N351 1.365 . S
N351 C348 1.341 . S
N351 N350 1.365 . S
N351 H371 0.862 . S
C352 C347 1.501 . S
C352 H353 0.961 . S
C352 H354 0.961 . S
C352 H355 0.960 . S
H353 C352 0.961 . S
H354 C352 0.961 . S
H355 C352 0.960 . S
C356 N357 1.342 . S
C356 C360 1.401 . S
C356 C361 1.499 . S
N357 Co340 1.989 . S
N357 C356 1.342 . S
N357 N358 1.388 . S
N358 Co341 1.993 . S
N358 N357 1.388 . S
N358 C359 1.346 . S
C359 N358 1.346 . S
C359 C360 1.396 . S
C359 C369 1.510 . S
C360 C356 1.401 . S
C360 C359 1.396 . S
C361 C356 1.499 . S
C361 H362 0.959 . S
C361 H363 0.960 . S
C361 H364 0.961 . S
H362 C361 0.959 . S
H363 C361 0.960 . S
H364 C361 0.961 . S
O365 Co340 1.967 . S
O365 C373 1.258 . S
O366 Co341 1.941 . S
O366 C373 1.266 . S
H367 C369 0.959 . S
H368 C369 0.961 . S
C369 C359 1.510 . S
C369 H367 0.959 . S
C369 H368 0.961 . S
C369 H370 0.960 . S
H370 C369 0.960 . S
H371 N351 0.862 . S
O372 Co340 1.920 1_554 S
O372 C345 1.289 . S
C373 O365 1.258 . S
C373 O366 1.266 . S
Co374 O377 1.970 . S
Co374 N391 1.989 . S
Co374 O399 1.967 . S
Co374 O406 1.920 . S
Co375 O378 1.966 . S
Co375 N384 2.022 . S
Co375 N392 1.993 . S
Co375 O400 1.941 . S
C376 O377 1.258 . S
C376 O378 1.263 . S
O377 Co374 1.970 . S
O377 C376 1.258 . S
O378 Co375 1.966 . S
O378 C376 1.263 . S
C379 O380 1.235 . S
C379 O406 1.289 . S
O380 C379 1.235 . S
C381 C383 1.400 1_554 S
C381 N384 1.351 . S
C381 C386 1.501 . S
C382 C383 1.387 1_554 S
C382 N385 1.341 . S
C383 C381 1.400 1_556 S
C383 C382 1.387 1_556 S
N384 Co375 2.022 . S
N384 C381 1.351 . S
N384 N385 1.365 . S
N385 C382 1.341 . S
N385 N384 1.365 . S
N385 H405 0.862 . S
C386 C381 1.501 . S
C386 H387 0.961 . S
C386 H388 0.961 . S
C386 H389 0.960 . S
H387 C386 0.961 . S
H388 C386 0.961 . S
H389 C386 0.960 . S
C390 N391 1.342 . S
C390 C394 1.401 . S
C390 C395 1.499 . S
N391 Co374 1.989 . S
N391 C390 1.342 . S
N391 N392 1.388 . S
N392 Co375 1.993 . S
N392 N391 1.388 . S
N392 C393 1.346 . S
C393 N392 1.346 . S
C393 C394 1.396 . S
C393 C403 1.510 . S
C394 C390 1.401 . S
C394 C393 1.396 . S
C395 C390 1.499 . S
C395 H396 0.959 . S
C395 H397 0.960 . S
C395 H398 0.961 . S
H396 C395 0.959 . S
H397 C395 0.960 . S
H398 C395 0.961 . S
O399 Co374 1.967 . S
O399 C407 1.258 . S
O400 Co375 1.941 . S
O400 C407 1.266 . S
H401 C403 0.959 . S
H402 C403 0.961 . S
C403 C393 1.510 . S
C403 H401 0.959 . S
C403 H402 0.961 . S
C403 H404 0.960 . S
H404 C403 0.960 . S
H405 N385 0.862 . S
O406 Co374 1.920 . S
O406 C379 1.289 . S
C407 O399 1.258 . S
C407 O400 1.266 . S
Co408 O411 1.970 . S
Co408 N425 1.989 . S
Co408 O433 1.967 . S
Co408 O440 1.920 . S
Co409 O412 1.966 . S
Co409 N418 2.022 . S
Co409 N426 1.993 . S
Co409 O434 1.941 . S
C410 O411 1.258 . S
C410 O412 1.263 . S
O411 Co408 1.970 . S
O411 C410 1.258 . S
O412 Co409 1.966 . S
O412 C410 1.263 . S
C413 O414 1.235 . S
C413 O440 1.289 . S
O414 C413 1.235 . S
C415 C417 1.400 . S
C415 N418 1.351 . S
C415 C420 1.501 . S
C416 C417 1.387 . S
C416 N419 1.341 . S
C417 C415 1.400 . S
C417 C416 1.387 . S
N418 Co409 2.022 . S
N418 C415 1.351 . S
N418 N419 1.365 . S
N419 C416 1.341 . S
N419 N418 1.365 . S
N419 H439 0.862 . S
C420 C415 1.501 . S
C420 H421 0.961 . S
C420 H422 0.961 . S
C420 H423 0.960 . S
H421 C420 0.961 . S
H422 C420 0.961 . S
H423 C420 0.960 . S
C424 N425 1.342 . S
C424 C428 1.401 . S
C424 C429 1.499 . S
N425 Co408 1.989 . S
N425 C424 1.342 . S
N425 N426 1.388 . S
N426 Co409 1.993 . S
N426 N425 1.388 . S
N426 C427 1.346 . S
C427 N426 1.346 . S
C427 C428 1.396 . S
C427 C437 1.510 . S
C428 C424 1.401 . S
C428 C427 1.396 . S
C429 C424 1.499 . S
C429 H430 0.959 . S
C429 H431 0.960 . S
C429 H432 0.961 . S
H430 C429 0.959 . S
H431 C429 0.960 . S
H432 C429 0.961 . S
O433 Co408 1.967 . S
O433 C441 1.258 . S
O434 Co409 1.941 . S
O434 C441 1.266 . S
H435 C437 0.959 . S
H436 C437 0.961 . S
C437 C427 1.510 . S
C437 H435 0.959 . S
C437 H436 0.961 . S
C437 H438 0.960 . S
H438 C437 0.960 . S
H439 N419 0.862 . S
O440 Co408 1.920 . S
O440 C413 1.289 . S
C441 O433 1.258 . S
C441 O434 1.266 . S
Co442 O445 1.970 . S
Co442 N459 1.989 . S
Co442 O467 1.967 1_455 S
Co442 O474 1.920 . S
Co443 O446 1.966 1_556 S
Co443 N452 2.022 . S
Co443 N460 1.993 1_556 S
Co443 O468 1.941 1_456 S
C444 O445 1.258 . S
C444 O446 1.263 . S
O445 Co442 1.970 . S
O445 C444 1.258 . S
O446 Co443 1.966 1_554 S
O446 C444 1.263 . S
C447 O448 1.235 . S
C447 O474 1.289 . S
O448 C447 1.235 . S
C449 C451 1.400 . S
C449 N452 1.351 . S
C449 C454 1.501 . S
C450 C451 1.387 1_655 S
C450 N453 1.341 . S
C451 C449 1.400 . S
C451 C450 1.387 1_455 S
N452 Co443 2.022 . S
N452 C449 1.351 . S
N452 N453 1.365 1_455 S
N453 C450 1.341 . S
N453 N452 1.365 1_655 S
N453 H473 0.862 . S
C454 C449 1.501 . S
C454 H455 0.961 . S
C454 H456 0.961 . S
C454 H457 0.960 . S
H455 C454 0.961 . S
H456 C454 0.961 . S
H457 C454 0.960 . S
C458 N459 1.342 . S
C458 C462 1.401 . S
C458 C463 1.500 1_455 S
N459 Co442 1.989 . S
N459 C458 1.342 . S
N459 N460 1.388 . S
N460 Co443 1.993 1_554 S
N460 N459 1.388 . S
N460 C461 1.346 1_554 S
C461 N460 1.346 1_556 S
C461 C462 1.396 1_556 S
C461 C471 1.510 . S
C462 C458 1.401 . S
C462 C461 1.396 1_554 S
C463 C458 1.500 1_655 S
C463 H464 0.959 1_655 S
C463 H465 0.962 1_655 S
C463 H466 0.958 . S
H464 C463 0.959 1_455 S
H465 C463 0.962 1_455 S
H466 C463 0.958 . S
O467 Co442 1.967 1_655 S
O467 C475 1.258 . S
O468 Co443 1.941 1_654 S
O468 C475 1.266 . S
H469 C471 0.959 1_655 S
H470 C471 0.961 . S
C471 C461 1.510 . S
C471 H469 0.959 1_455 S
C471 H470 0.961 . S
C471 H472 0.960 . S
H472 C471 0.960 . S
H473 N453 0.862 . S
O474 Co442 1.920 . S
O474 C447 1.289 . S
C475 O467 1.258 . S
C475 O468 1.266 . S
Co476 O479 1.970 . S
Co476 N493 1.989 . S
Co476 O501 1.967 . S
Co476 O508 1.920 . S
Co477 O480 1.966 . S
Co477 N486 2.022 . S
Co477 N494 1.993 . S
Co477 O502 1.941 . S
C478 O479 1.258 . S
C478 O480 1.263 . S
O479 Co476 1.970 . S
O479 C478 1.258 . S
O480 Co477 1.966 . S
O480 C478 1.263 . S
C481 O482 1.235 . S
C481 O508 1.289 . S
O482 C481 1.235 . S
C483 C485 1.400 . S
C483 N486 1.351 . S
C483 C488 1.501 . S
C484 C485 1.387 . S
C484 N487 1.341 . S
C485 C483 1.400 . S
C485 C484 1.387 . S
N486 Co477 2.022 . S
N486 C483 1.351 . S
N486 N487 1.365 . S
N487 C484 1.341 . S
N487 N486 1.365 . S
N487 H507 0.862 . S
C488 C483 1.501 . S
C488 H489 0.961 . S
C488 H490 0.961 . S
C488 H491 0.960 . S
H489 C488 0.961 . S
H490 C488 0.961 . S
H491 C488 0.960 . S
C492 N493 1.342 . S
C492 C496 1.401 . S
C492 C497 1.499 . S
N493 Co476 1.989 . S
N493 C492 1.342 . S
N493 N494 1.388 . S
N494 Co477 1.993 . S
N494 N493 1.388 . S
N494 C495 1.346 . S
C495 N494 1.346 . S
C495 C496 1.396 . S
C495 C505 1.510 . S
C496 C492 1.401 . S
C496 C495 1.396 . S
C497 C492 1.499 . S
C497 H498 0.959 . S
C497 H499 0.960 . S
C497 H500 0.961 . S
H498 C497 0.959 . S
H499 C497 0.960 . S
H500 C497 0.961 . S
O501 Co476 1.967 . S
O501 C509 1.258 . S
O502 Co477 1.941 . S
O502 C509 1.266 . S
H503 C505 0.959 . S
H504 C505 0.961 . S
C505 C495 1.510 . S
C505 H503 0.959 . S
C505 H504 0.961 . S
C505 H506 0.960 . S
H506 C505 0.960 . S
H507 N487 0.862 . S
O508 Co476 1.920 . S
O508 C481 1.289 . S
C509 O501 1.258 . S
C509 O502 1.266 . S
Co510 O513 1.970 . S
Co510 N527 1.989 . S
Co510 O535 1.967 1_455 S
Co510 O542 1.920 . S
Co511 O514 1.966 1_554 S
Co511 N520 2.022 . S
Co511 N528 1.993 1_554 S
Co511 O536 1.941 1_454 S
C512 O513 1.258 . S
C512 O514 1.263 . S
O513 Co510 1.970 . S
O513 C512 1.258 . S
O514 Co511 1.966 1_556 S
O514 C512 1.263 . S
C515 O516 1.235 . S
C515 O542 1.289 . S
O516 C515 1.235 . S
C517 C519 1.400 . S
C517 N520 1.351 . S
C517 C522 1.501 . S
C518 C519 1.387 1_655 S
C518 N521 1.341 . S
C519 C517 1.400 . S
C519 C518 1.387 1_455 S
N520 Co511 2.022 . S
N520 C517 1.351 . S
N520 N521 1.365 1_455 S
N521 C518 1.341 . S
N521 N520 1.365 1_655 S
N521 H541 0.862 . S
C522 C517 1.501 . S
C522 H523 0.961 . S
C522 H524 0.961 . S
C522 H525 0.960 . S
H523 C522 0.961 . S
H524 C522 0.961 . S
H525 C522 0.960 . S
C526 N527 1.342 . S
C526 C530 1.401 . S
C526 C531 1.500 1_455 S
N527 Co510 1.989 . S
N527 C526 1.342 . S
N527 N528 1.388 . S
N528 Co511 1.993 1_556 S
N528 N527 1.388 . S
N528 C529 1.346 1_556 S
C529 N528 1.346 1_554 S
C529 C530 1.396 1_554 S
C529 C539 1.510 . S
C530 C526 1.401 . S
C530 C529 1.396 1_556 S
C531 C526 1.500 1_655 S
C531 H532 0.959 1_655 S
C531 H533 0.962 1_655 S
C531 H534 0.958 . S
H532 C531 0.959 1_455 S
H533 C531 0.962 1_455 S
H534 C531 0.958 . S
O535 Co510 1.967 1_655 S
O535 C543 1.258 . S
O536 Co511 1.941 1_656 S
O536 C543 1.266 . S
H537 C539 0.959 1_655 S
H538 C539 0.961 . S
C539 C529 1.510 . S
C539 H537 0.959 1_455 S
C539 H538 0.961 . S
C539 H540 0.960 . S
H540 C539 0.960 . S
H541 N521 0.862 . S
O542 Co510 1.920 . S
O542 C515 1.289 . S
C543 O535 1.258 . S
C543 O536 1.266 . S
H544 C550 0.930 . S
H545 C553 0.930 . S
H546 C554 0.930 . S
H547 C555 0.930 . S
H548 C558 0.930 . S
H549 C559 0.930 . S
C550 H544 0.930 . S
C550 C551 1.355 1_455 S
C550 C552 1.415 . S
C551 C550 1.355 1_655 S
C551 C553 1.419 . S
C552 C550 1.415 . S
C552 C557 1.425 1_455 S
C552 C559 1.409 . S
C553 H545 0.930 . S
C553 C551 1.419 . S
C553 C554 1.362 . S
C554 H546 0.930 . S
C554 C553 1.362 . S
C554 C557 1.409 . S
C555 H547 0.930 . S
C555 C556 1.355 1_655 S
C555 C557 1.415 . S
C556 C555 1.355 1_455 S
C556 C558 1.419 . S
C557 C552 1.425 1_655 S
C557 C554 1.409 . S
C557 C555 1.415 . S
C558 H548 0.930 . S
C558 C556 1.419 . S
C558 C559 1.362 . S
C559 H549 0.930 . S
C559 C552 1.409 . S
C559 C558 1.362 . S
H560 C566 0.930 . S
H561 C569 0.930 . S
H562 C570 0.930 . S
H563 C571 0.930 . S
H564 C574 0.930 . S
H565 C575 0.930 . S
C566 H560 0.930 . S
C566 C567 1.355 . S
C566 C568 1.415 . S
C567 C566 1.355 . S
C567 C569 1.419 . S
C568 C566 1.415 . S
C568 C573 1.425 . S
C568 C575 1.409 . S
C569 H561 0.930 . S
C569 C567 1.419 . S
C569 C570 1.362 . S
C570 H562 0.930 . S
C570 C569 1.362 . S
C570 C573 1.409 . S
C571 H563 0.930 . S
C571 C572 1.355 . S
C571 C573 1.415 . S
C572 C571 1.355 . S
C572 C574 1.419 . S
C573 C568 1.425 . S
C573 C570 1.409 . S
C573 C571 1.415 . S
C574 H564 0.930 . S
C574 C572 1.419 . S
C574 C575 1.362 . S
C575 H565 0.930 . S
C575 C568 1.409 . S
C575 C574 1.362 . S
H576 C582 0.930 . S
H577 C585 0.930 . S
H578 C586 0.930 . S
H579 C587 0.930 . S
H580 C590 0.930 . S
H581 C591 0.930 1_554 S
C582 H576 0.930 . S
C582 C583 1.355 . S
C582 C584 1.415 . S
C583 C582 1.355 . S
C583 C585 1.419 . S
C584 C582 1.415 . S
C584 C589 1.425 . S
C584 C591 1.409 1_554 S
C585 H577 0.930 . S
C585 C583 1.419 . S
C585 C586 1.362 . S
C586 H578 0.930 . S
C586 C585 1.362 . S
C586 C589 1.409 . S
C587 H579 0.930 . S
C587 C588 1.355 . S
C587 C589 1.415 1_556 S
C588 C587 1.355 . S
C588 C590 1.419 . S
C589 C584 1.425 . S
C589 C586 1.409 . S
C589 C587 1.415 1_554 S
C590 H580 0.930 . S
C590 C588 1.419 . S
C590 C591 1.362 . S
C591 H581 0.930 1_556 S
C591 C584 1.409 1_556 S
C591 C590 1.362 . S
H592 C598 0.930 . S
H593 C601 0.930 . S
H594 C602 0.930 . S
H595 C603 0.930 . S
H596 C606 0.930 . S
H597 C607 0.930 . S
C598 H592 0.930 . S
C598 C599 1.355 . S
C598 C600 1.415 . S
C599 C598 1.355 . S
C599 C601 1.419 . S
C600 C598 1.415 . S
C600 C605 1.425 . S
C600 C607 1.409 . S
C601 H593 0.930 . S
C601 C599 1.419 . S
C601 C602 1.362 . S
C602 H594 0.930 . S
C602 C601 1.362 . S
C602 C605 1.409 . S
C603 H595 0.930 . S
C603 C604 1.355 . S
C603 C605 1.415 . S
C604 C603 1.355 . S
C604 C606 1.419 . S
C605 C600 1.425 . S
C605 C602 1.409 . S
C605 C603 1.415 . S
C606 H596 0.930 . S
C606 C604 1.419 . S
C606 C607 1.362 . S
C607 H597 0.930 . S
C607 C600 1.409 . S
C607 C606 1.362 . S
H608 C614 0.930 . S
H609 C617 0.930 . S
H610 C618 0.930 . S
H611 C619 0.930 . S
H612 C622 0.930 . S
H613 C623 0.930 . S
C614 H608 0.930 . S
C614 C615 1.355 1_655 S
C614 C616 1.415 . S
C615 C614 1.355 1_455 S
C615 C617 1.419 . S
C616 C614 1.415 . S
C616 C621 1.425 1_655 S
C616 C623 1.409 . S
C617 H609 0.930 . S
C617 C615 1.419 . S
C617 C618 1.362 . S
C618 H610 0.930 . S
C618 C617 1.362 . S
C618 C621 1.409 . S
C619 H611 0.930 . S
C619 C620 1.355 . S
C619 C621 1.415 . S
C620 C619 1.355 . S
C620 C622 1.419 1_455 S
C621 C616 1.425 1_455 S
C621 C618 1.409 . S
C621 C619 1.415 . S
C622 H612 0.930 . S
C622 C620 1.419 1_655 S
C622 C623 1.362 . S
C623 H613 0.930 . S
C623 C616 1.409 . S
C623 C622 1.362 . S
H624 C630 0.930 . S
H625 C633 0.930 . S
H626 C634 0.930 . S
H627 C635 0.930 . S
H628 C638 0.930 . S
H629 C639 0.930 . S
C630 H624 0.930 . S
C630 C631 1.355 . S
C630 C632 1.415 . S
C631 C630 1.355 . S
C631 C633 1.419 . S
C632 C630 1.415 . S
C632 C637 1.425 . S
C632 C639 1.409 . S
C633 H625 0.930 . S
C633 C631 1.419 . S
C633 C634 1.362 . S
C634 H626 0.930 . S
C634 C633 1.362 . S
C634 C637 1.409 . S
C635 H627 0.930 . S
C635 C636 1.355 . S
C635 C637 1.415 . S
C636 C635 1.355 . S
C636 C638 1.419 . S
C637 C632 1.425 . S
C637 C634 1.409 . S
C637 C635 1.415 . S
C638 H628 0.930 . S
C638 C636 1.419 . S
C638 C639 1.362 . S
C639 H629 0.930 . S
C639 C632 1.409 . S
C639 C638 1.362 . S
H640 C646 0.930 . S
H641 C649 0.930 . S
H642 C650 0.930 . S
H643 C651 0.930 . S
H644 C654 0.930 . S
H645 C655 0.930 1_556 S
C646 H640 0.930 . S
C646 C647 1.355 . S
C646 C648 1.415 . S
C647 C646 1.355 . S
C647 C649 1.419 . S
C648 C646 1.415 . S
C648 C653 1.425 . S
C648 C655 1.409 1_556 S
C649 H641 0.930 . S
C649 C647 1.419 . S
C649 C650 1.362 . S
C650 H642 0.930 . S
C650 C649 1.362 . S
C650 C653 1.409 . S
C651 H643 0.930 . S
C651 C652 1.355 . S
C651 C653 1.415 1_554 S
C652 C651 1.355 . S
C652 C654 1.419 . S
C653 C648 1.425 . S
C653 C650 1.409 . S
C653 C651 1.415 1_556 S
C654 H644 0.930 . S
C654 C652 1.419 . S
C654 C655 1.362 . S
C655 H645 0.930 1_554 S
C655 C648 1.409 1_554 S
C655 C654 1.362 . S
H656 C662 0.930 . S
H657 C665 0.930 . S
H658 C666 0.930 . S
H659 C667 0.930 . S
H660 C670 0.930 . S
H661 C671 0.930 . S
C662 H656 0.930 . S
C662 C663 1.355 . S
C662 C664 1.415 . S
C663 C662 1.355 . S
C663 C665 1.419 . S
C664 C662 1.415 . S
C664 C669 1.425 . S
C664 C671 1.409 . S
C665 H657 0.930 . S
C665 C663 1.419 . S
C665 C666 1.362 . S
C666 H658 0.930 . S
C666 C665 1.362 . S
C666 C669 1.409 . S
C667 H659 0.930 . S
C667 C668 1.355 . S
C667 C669 1.415 . S
C668 C667 1.355 . S
C668 C670 1.419 . S
C669 C664 1.425 . S
C669 C666 1.409 . S
C669 C667 1.415 . S
C670 H660 0.930 . S
C670 C668 1.419 . S
C670 C671 1.362 . S
C671 H661 0.930 . S
C671 C664 1.409 . S
C671 C670 1.362 . S
H672 C678 0.930 . S
H673 C681 0.930 . S
H674 C682 0.930 . S
H675 C683 0.930 . S
H676 C686 0.930 . S
H677 C687 0.930 . S
C678 H672 0.930 . S
C678 C679 1.355 . S
C678 C680 1.415 . S
C679 C678 1.355 . S
C679 C681 1.419 . S
C680 C678 1.415 . S
C680 C685 1.425 . S
C680 C687 1.409 . S
C681 H673 0.930 . S
C681 C679 1.419 . S
C681 C682 1.362 . S
C682 H674 0.930 . S
C682 C681 1.362 . S
C682 C685 1.409 . S
C683 H675 0.930 . S
C683 C684 1.355 . S
C683 C685 1.415 . S
C684 C683 1.355 . S
C684 C686 1.419 . S
C685 C680 1.425 . S
C685 C682 1.409 . S
C685 C683 1.415 . S
C686 H676 0.930 . S
C686 C684 1.419 . S
C686 C687 1.362 . S
C687 H677 0.930 . S
C687 C680 1.409 . S
C687 C686 1.362 . S
H688 C694 0.930 . S
H689 C697 0.930 . S
H690 C698 0.930 . S
H691 C699 0.930 . S
H692 C702 0.930 . S
H693 C703 0.930 . S
C694 H688 0.930 . S
C694 C695 1.355 . S
C694 C696 1.415 . S
C695 C694 1.355 . S
C695 C697 1.419 . S
C696 C694 1.415 . S
C696 C701 1.425 . S
C696 C703 1.409 . S
C697 H689 0.930 . S
C697 C695 1.419 . S
C697 C698 1.362 . S
C698 H690 0.930 . S
C698 C697 1.362 . S
C698 C701 1.409 . S
C699 H691 0.930 . S
C699 C700 1.355 . S
C699 C701 1.415 . S
C700 C699 1.355 . S
C700 C702 1.419 . S
C701 C696 1.425 . S
C701 C698 1.409 . S
C701 C699 1.415 . S
C702 H692 0.930 . S
C702 C700 1.419 . S
C702 C703 1.362 . S
C703 H693 0.930 . S
C703 C696 1.409 . S
C703 C702 1.362 . S
H704 C710 0.930 . S
H705 C713 0.930 . S
H706 C714 0.930 . S
H707 C715 0.930 . S
H708 C718 0.930 . S
H709 C719 0.930 . S
C710 H704 0.930 . S
C710 C711 1.355 . S
C710 C712 1.415 . S
C711 C710 1.355 . S
C711 C713 1.419 . S
C712 C710 1.415 . S
C712 C717 1.425 . S
C712 C719 1.409 . S
C713 H705 0.930 . S
C713 C711 1.419 . S
C713 C714 1.362 . S
C714 H706 0.930 . S
C714 C713 1.362 . S
C714 C717 1.409 . S
C715 H707 0.930 . S
C715 C716 1.355 . S
C715 C717 1.415 . S
C716 C715 1.355 . S
C716 C718 1.419 . S
C717 C712 1.425 . S
C717 C714 1.409 . S
C717 C715 1.415 . S
C718 H708 0.930 . S
C718 C716 1.419 . S
C718 C719 1.362 . S
C719 H709 0.930 . S
C719 C712 1.409 . S
C719 C718 1.362 . S
H720 C726 0.930 . S
H721 C729 0.930 . S
H722 C730 0.930 . S
H723 C731 0.930 . S
H724 C734 0.930 . S
H725 C735 0.930 . S
C726 H720 0.930 . S
C726 C727 1.355 . S
C726 C728 1.415 . S
C727 C726 1.355 . S
C727 C729 1.419 . S
C728 C726 1.415 . S
C728 C733 1.425 . S
C728 C735 1.409 . S
C729 H721 0.930 . S
C729 C727 1.419 . S
C729 C730 1.362 . S
C730 H722 0.930 . S
C730 C729 1.362 . S
C730 C733 1.409 . S
C731 H723 0.930 . S
C731 C732 1.355 . S
C731 C733 1.415 . S
C732 C731 1.355 . S
C732 C734 1.419 . S
C733 C728 1.425 . S
C733 C730 1.409 . S
C733 C731 1.415 . S
C734 H724 0.930 . S
C734 C732 1.419 . S
C734 C735 1.362 . S
C735 H725 0.930 . S
C735 C728 1.409 . S
C735 C734 1.362 . S
H736 C742 0.930 . S
H737 C745 0.930 . S
H738 C746 0.930 1_554 S
H739 C747 0.930 . S
H740 C750 0.930 . S
H741 C751 0.930 . S
C742 H736 0.930 . S
C742 C743 1.355 . S
C742 C744 1.415 1_556 S
C743 C742 1.355 . S
C743 C745 1.419 . S
C744 C742 1.415 1_554 S
C744 C749 1.425 . S
C744 C751 1.409 . S
C745 H737 0.930 . S
C745 C743 1.419 . S
C745 C746 1.362 . S
C746 H738 0.930 1_556 S
C746 C745 1.362 . S
C746 C749 1.409 1_556 S
C747 H739 0.930 . S
C747 C748 1.355 . S
C747 C749 1.415 . S
C748 C747 1.355 . S
C748 C750 1.419 . S
C749 C744 1.425 . S
C749 C746 1.409 1_554 S
C749 C747 1.415 . S
C750 H740 0.930 . S
C750 C748 1.419 . S
C750 C751 1.362 . S
C751 H741 0.930 . S
C751 C744 1.409 . S
C751 C750 1.362 . S
H752 C758 0.930 . S
H753 C761 0.915 1_655 S
H754 C762 0.930 . S
H755 C763 0.930 1_655 S
H756 C766 0.930 . S
H757 C767 0.930 . S
C758 H752 0.930 . S
C758 C759 1.355 . S
C758 C760 1.415 . S
C759 C758 1.355 . S
C759 C761 1.439 . S
C760 C758 1.415 . S
C760 C765 1.425 . S
C760 C767 1.409 . S
C761 H753 0.915 1_455 S
C761 C759 1.439 . S
C761 C762 1.358 1_455 S
C762 H754 0.930 . S
C762 C761 1.358 1_655 S
C762 C765 1.409 1_655 S
C763 H755 0.930 1_455 S
C763 C764 1.355 . S
C763 C765 1.415 . S
C764 C763 1.355 . S
C764 C766 1.419 . S
C765 C760 1.425 . S
C765 C762 1.409 1_455 S
C765 C763 1.415 . S
C766 H756 0.930 . S
C766 C764 1.419 . S
C766 C767 1.362 . S
C767 H757 0.930 . S
C767 C760 1.409 . S
C767 C766 1.362 . S
H768 C774 0.930 . S
H769 C777 0.930 . S
H770 C778 0.930 . S
H771 C779 0.930 . S
H772 C782 0.930 . S
H773 C783 0.930 . S
C774 H768 0.930 . S
C774 C775 1.355 . S
C774 C776 1.415 1_554 S
C775 C774 1.355 . S
C775 C777 1.419 . S
C776 C774 1.415 1_556 S
C776 C781 1.425 . S
C776 C783 1.409 . S
C777 H769 0.930 . S
C777 C775 1.419 . S
C777 C778 1.362 . S
C778 H770 0.930 . S
C778 C777 1.362 . S
C778 C781 1.409 1_554 S
C779 H771 0.930 . S
C779 C780 1.355 . S
C779 C781 1.415 . S
C780 C779 1.355 . S
C780 C782 1.419 . S
C781 C776 1.425 . S
C781 C778 1.409 1_556 S
C781 C779 1.415 . S
C782 H772 0.930 . S
C782 C780 1.419 . S
C782 C783 1.362 . S
C783 H773 0.930 . S
C783 C776 1.409 . S
C783 C782 1.362 . S
H784 C790 0.930 . S
H785 C793 0.930 . S
H786 C794 0.930 . S
H787 C795 0.930 . S
H788 C798 0.930 . S
H789 C799 0.930 . S
C790 H784 0.930 . S
C790 C791 1.355 . S
C790 C792 1.415 . S
C791 C790 1.355 . S
C791 C793 1.419 . S
C792 C790 1.415 . S
C792 C797 1.425 . S
C792 C799 1.409 . S
C793 H785 0.930 . S
C793 C791 1.419 . S
C793 C794 1.362 . S
C794 H786 0.930 . S
C794 C793 1.362 . S
C794 C797 1.409 . S
C795 H787 0.930 . S
C795 C796 1.355 . S
C795 C797 1.415 . S
C796 C795 1.355 . S
C796 C798 1.419 . S
C797 C792 1.425 . S
C797 C794 1.409 . S
C797 C795 1.415 . S
C798 H788 0.930 . S
C798 C796 1.419 . S
C798 C799 1.362 . S
C799 H789 0.930 . S
C799 C792 1.409 . S
C799 C798 1.362 . S
H800 C806 0.930 . S
H801 C809 0.930 1_655 S
H802 C810 0.930 . S
H803 C811 0.930 1_655 S
H804 C814 0.930 . S
H805 C815 0.930 . S
C806 H800 0.930 . S
C806 C807 1.355 . S
C806 C808 1.415 . S
C807 C806 1.355 . S
C807 C809 1.419 1_554 S
C808 C806 1.415 . S
C808 C813 1.425 1_554 S
C808 C815 1.409 . S
C809 H801 0.930 1_455 S
C809 C807 1.419 1_556 S
C809 C810 1.362 1_455 S
C810 H802 0.930 . S
C810 C809 1.362 1_655 S
C810 C813 1.409 1_655 S
C811 H803 0.930 1_455 S
C811 C812 1.355 . S
C811 C813 1.415 . S
C812 C811 1.355 . S
C812 C814 1.419 1_556 S
C813 C808 1.425 1_556 S
C813 C810 1.409 1_455 S
C813 C811 1.415 . S
C814 H804 0.930 . S
C814 C812 1.419 1_554 S
C814 C815 1.362 . S
C815 H805 0.930 . S
C815 C808 1.409 . S
C815 C814 1.362 . S
H816 C822 0.930 . S
H817 C825 0.930 . S
H818 C826 0.930 . S
H819 C827 0.930 . S
H820 C830 0.930 . S
H821 C831 0.930 . S
C822 H816 0.930 . S
C822 C823 1.355 . S
C822 C824 1.415 . S
C823 C822 1.355 . S
C823 C825 1.419 . S
C824 C822 1.415 . S
C824 C829 1.425 . S
C824 C831 1.409 . S
C825 H817 0.930 . S
C825 C823 1.419 . S
C825 C826 1.362 . S
C826 H818 0.930 . S
C826 C825 1.362 . S
C826 C829 1.409 . S
C827 H819 0.930 . S
C827 C828 1.355 . S
C827 C829 1.415 . S
C828 C827 1.355 . S
C828 C830 1.419 . S
C829 C824 1.425 . S
C829 C826 1.409 . S
C829 C827 1.415 . S
C830 H820 0.930 . S
C830 C828 1.419 . S
C830 C831 1.362 . S
C831 H821 0.930 . S
C831 C824 1.409 . S
C831 C830 1.362 . S
H832 C838 0.930 . S
H833 C841 0.930 . S
H834 C842 0.930 . S
H835 C843 0.930 . S
H836 C846 0.930 . S
H837 C847 0.930 . S
C838 H832 0.930 . S
C838 C839 1.355 . S
C838 C840 1.415 . S
C839 C838 1.355 . S
C839 C841 1.419 . S
C840 C838 1.415 . S
C840 C845 1.425 . S
C840 C847 1.409 . S
C841 H833 0.930 . S
C841 C839 1.419 . S
C841 C842 1.362 . S
C842 H834 0.930 . S
C842 C841 1.362 . S
C842 C845 1.409 . S
C843 H835 0.930 . S
C843 C844 1.355 . S
C843 C845 1.415 . S
C844 C843 1.355 . S
C844 C846 1.419 . S
C845 C840 1.425 . S
C845 C842 1.409 . S
C845 C843 1.415 . S
C846 H836 0.930 . S
C846 C844 1.419 . S
C846 C847 1.362 . S
C847 H837 0.930 . S
C847 C840 1.409 . S
C847 C846 1.362 . S
H848 C854 0.930 . S
H849 C857 0.930 . S
H850 C858 0.930 . S
H851 C859 0.930 . S
H852 C862 0.930 . S
H853 C863 0.930 . S
C854 H848 0.930 . S
C854 C855 1.355 . S
C854 C856 1.415 . S
C855 C854 1.355 . S
C855 C857 1.419 . S
C856 C854 1.415 . S
C856 C861 1.425 . S
C856 C863 1.409 . S
C857 H849 0.930 . S
C857 C855 1.419 . S
C857 C858 1.362 . S
C858 H850 0.930 . S
C858 C857 1.362 . S
C858 C861 1.409 . S
C859 H851 0.930 . S
C859 C860 1.355 . S
C859 C861 1.415 . S
C860 C859 1.355 . S
C860 C862 1.419 . S
C861 C856 1.425 . S
C861 C858 1.409 . S
C861 C859 1.415 . S
C862 H852 0.930 . S
C862 C860 1.419 . S
C862 C863 1.362 . S
C863 H853 0.930 . S
C863 C856 1.409 . S
C863 C862 1.362 . S
H864 C870 0.930 . S
H865 C873 0.930 . S
H866 C874 0.930 . S
H867 C875 0.930 . S
H868 C878 0.930 . S
H869 C879 0.930 . S
C870 H864 0.930 . S
C870 C871 1.355 . S
C870 C872 1.415 . S
C871 C870 1.355 . S
C871 C873 1.419 . S
C872 C870 1.415 . S
C872 C877 1.425 . S
C872 C879 1.409 . S
C873 H865 0.930 . S
C873 C871 1.419 . S
C873 C874 1.362 . S
C874 H866 0.930 . S
C874 C873 1.362 . S
C874 C877 1.409 . S
C875 H867 0.930 . S
C875 C876 1.355 . S
C875 C877 1.415 . S
C876 C875 1.355 . S
C876 C878 1.419 . S
C877 C872 1.425 . S
C877 C874 1.409 . S
C877 C875 1.415 . S
C878 H868 0.930 . S
C878 C876 1.419 . S
C878 C879 1.362 . S
C879 H869 0.930 . S
C879 C872 1.409 . S
C879 C878 1.362 . S
H880 C886 0.930 . S
H881 C889 0.930 . S
H882 C890 0.930 . S
H883 C891 0.930 . S
H884 C894 0.930 . S
H885 C895 0.930 . S
C886 H880 0.930 . S
C886 C887 1.355 . S
C886 C888 1.415 . S
C887 C886 1.355 . S
C887 C889 1.419 . S
C888 C886 1.415 . S
C888 C893 1.425 . S
C888 C895 1.409 . S
C889 H881 0.930 . S
C889 C887 1.419 . S
C889 C890 1.362 . S
C890 H882 0.930 . S
C890 C889 1.362 . S
C890 C893 1.409 . S
C891 H883 0.930 . S
C891 C892 1.355 . S
C891 C893 1.415 . S
C892 C891 1.355 . S
C892 C894 1.419 . S
C893 C888 1.425 . S
C893 C890 1.409 . S
C893 C891 1.415 . S
C894 H884 0.930 . S
C894 C892 1.419 . S
C894 C895 1.362 . S
C895 H885 0.930 . S
C895 C888 1.409 . S
C895 C894 1.362 . S
H896 C902 0.930 . S
H897 C905 0.930 . S
H898 C906 0.930 . S
H899 C907 0.930 . S
H900 C910 0.930 . S
H901 C911 0.930 . S
C902 H896 0.930 . S
C902 C903 1.355 . S
C902 C904 1.415 . S
C903 C902 1.355 . S
C903 C905 1.419 . S
C904 C902 1.415 . S
C904 C909 1.425 1_545 S
C904 C911 1.409 1_545 S
C905 H897 0.930 . S
C905 C903 1.419 . S
C905 C906 1.362 . S
C906 H898 0.930 . S
C906 C905 1.362 . S
C906 C909 1.409 1_545 S
C907 H899 0.930 . S
C907 C908 1.355 . S
C907 C909 1.415 . S
C908 C907 1.355 . S
C908 C910 1.419 . S
C909 C904 1.425 1_565 S
C909 C906 1.409 1_565 S
C909 C907 1.415 . S
C910 H900 0.930 . S
C910 C908 1.419 . S
C910 C911 1.362 . S
C911 H901 0.930 . S
C911 C904 1.409 1_565 S
C911 C910 1.362 . S
H912 C918 0.930 . S
H913 C921 0.930 . S
H914 C922 0.930 . S
H915 C923 0.930 . S
H916 C926 0.930 . S
H917 C927 0.930 . S
C918 H912 0.930 . S
C918 C919 1.363 . S
C918 C920 1.415 . S
C919 C918 1.363 . S
C919 C921 1.408 1_654 S
C920 C918 1.415 . S
C920 C925 1.425 1_664 S
C920 C927 1.409 1_565 S
C921 H913 0.930 . S
C921 C919 1.408 1_456 S
C921 C922 1.362 . S
C922 H914 0.930 . S
C922 C921 1.362 . S
C922 C925 1.409 1_565 S
C923 H915 0.930 . S
C923 C924 1.355 1_455 S
C923 C925 1.415 . S
C924 C923 1.355 1_655 S
C924 C926 1.419 1_556 S
C925 C920 1.425 1_446 S
C925 C922 1.409 1_545 S
C925 C923 1.415 . S
C926 H916 0.930 . S
C926 C924 1.419 1_554 S
C926 C927 1.362 . S
C927 H917 0.930 . S
C927 C920 1.409 1_545 S
C927 C926 1.362 . S
H928 C934 0.930 . S
H929 C937 0.930 . S
H930 C938 0.930 . S
H931 C939 0.930 . S
H932 C942 0.930 . S
H933 C943 0.930 . S
C934 H928 0.930 . S
C934 C935 1.355 . S
C934 C936 1.415 . S
C935 C934 1.355 . S
C935 C937 1.419 . S
C936 C934 1.415 . S
C936 C941 1.425 . S
C936 C943 1.409 . S
C937 H929 0.930 . S
C937 C935 1.419 . S
C937 C938 1.362 . S
C938 H930 0.930 . S
C938 C937 1.362 . S
C938 C941 1.409 . S
C939 H931 0.930 . S
C939 C940 1.355 . S
C939 C941 1.415 . S
C940 C939 1.355 . S
C940 C942 1.419 . S
C941 C936 1.425 . S
C941 C938 1.409 . S
C941 C939 1.415 . S
C942 H932 0.930 . S
C942 C940 1.419 . S
C942 C943 1.362 . S
C943 H933 0.930 . S
C943 C936 1.409 . S
C943 C942 1.362 . S
H944 C950 0.930 . S
H945 C953 0.930 . S
H946 C954 0.930 . S
H947 C955 0.930 . S
H948 C958 0.930 . S
H949 C959 0.930 . S
C950 H944 0.930 . S
C950 C951 1.355 . S
C950 C952 1.415 . S
C951 C950 1.355 . S
C951 C953 1.419 . S
C952 C950 1.415 . S
C952 C957 1.425 . S
C952 C959 1.409 . S
C953 H945 0.930 . S
C953 C951 1.419 . S
C953 C954 1.362 . S
C954 H946 0.930 . S
C954 C953 1.362 . S
C954 C957 1.409 . S
C955 H947 0.930 . S
C955 C956 1.355 . S
C955 C957 1.415 . S
C956 C955 1.355 . S
C956 C958 1.419 . S
C957 C952 1.425 . S
C957 C954 1.409 . S
C957 C955 1.415 . S
C958 H948 0.930 . S
C958 C956 1.419 . S
C958 C959 1.362 . S
C959 H949 0.930 . S
C959 C952 1.409 . S
C959 C958 1.362 . S
H960 C966 0.930 . S
H961 C969 0.930 . S
H962 C970 0.930 . S
H963 C971 0.930 . S
H964 C974 0.930 . S
H965 C975 0.930 . S
C966 H960 0.930 . S
C966 C967 1.355 . S
C966 C968 1.415 . S
C967 C966 1.355 . S
C967 C969 1.419 . S
C968 C966 1.415 . S
C968 C973 1.425 . S
C968 C975 1.409 . S
C969 H961 0.930 . S
C969 C967 1.419 . S
C969 C970 1.362 . S
C970 H962 0.930 . S
C970 C969 1.362 . S
C970 C973 1.409 . S
C971 H963 0.930 . S
C971 C972 1.355 . S
C971 C973 1.415 . S
C972 C971 1.355 . S
C972 C974 1.419 . S
C973 C968 1.425 . S
C973 C970 1.409 . S
C973 C971 1.415 . S
C974 H964 0.930 . S
C974 C972 1.419 . S
C974 C975 1.362 . S
C975 H965 0.930 . S
C975 C968 1.409 . S
C975 C974 1.362 . S
H976 C982 0.930 . S
H977 C985 0.930 . S
H978 C986 0.930 . S
H979 C987 0.930 . S
H980 C990 0.930 . S
H981 C991 0.930 . S
C982 H976 0.930 . S
C982 C983 1.355 . S
C982 C984 1.415 . S
C983 C982 1.355 . S
C983 C985 1.419 . S
C984 C982 1.415 . S
C984 C989 1.425 . S
C984 C991 1.409 . S
C985 H977 0.930 . S
C985 C983 1.419 . S
C985 C986 1.362 . S
C986 H978 0.930 . S
C986 C985 1.362 . S
C986 C989 1.409 . S
C987 H979 0.930 . S
C987 C988 1.355 . S
C987 C989 1.415 . S
C988 C987 1.355 . S
C988 C990 1.419 . S
C989 C984 1.425 . S
C989 C986 1.409 . S
C989 C987 1.415 . S
C990 H980 0.930 . S
C990 C988 1.419 . S
C990 C991 1.362 . S
C991 H981 0.930 . S
C991 C984 1.409 . S
C991 C990 1.362 . S
H992 C998 0.930 . S
H993 C1001 0.930 . S
H994 C1002 0.930 . S
H995 C1003 0.930 . S
H996 C1006 0.930 . S
H997 C1007 0.930 . S
C998 H992 0.930 . S
C998 C999 1.355 . S
C998 C1000 1.415 . S
C999 C998 1.355 . S
C999 C1001 1.419 . S
C1000 C998 1.415 . S
C1000 C1005 1.425 . S
C1000 C1007 1.409 . S
C1001 H993 0.930 . S
C1001 C999 1.419 . S
C1001 C1002 1.362 . S
C1002 H994 0.930 . S
C1002 C1001 1.362 . S
C1002 C1005 1.409 . S
C1003 H995 0.930 . S
C1003 C1004 1.355 . S
C1003 C1005 1.415 . S
C1004 C1003 1.355 . S
C1004 C1006 1.419 . S
C1005 C1000 1.425 . S
C1005 C1002 1.409 . S
C1005 C1003 1.415 . S
C1006 H996 0.930 . S
C1006 C1004 1.419 . S
C1006 C1007 1.362 . S
C1007 H997 0.930 . S
C1007 C1000 1.409 . S
C1007 C1006 1.362 . S
H1008 C1014 0.930 . S
H1009 C1017 0.930 . S
H1010 C1018 0.930 . S
H1011 C1019 0.930 . S
H1012 C1022 0.930 . S
H1013 C1023 0.930 . S
C1014 H1008 0.930 . S
C1014 C1015 1.355 . S
C1014 C1016 1.415 . S
C1015 C1014 1.355 . S
C1015 C1017 1.419 . S
C1016 C1014 1.415 . S
C1016 C1021 1.425 . S
C1016 C1023 1.409 . S
C1017 H1009 0.930 . S
C1017 C1015 1.419 . S
C1017 C1018 1.362 . S
C1018 H1010 0.930 . S
C1018 C1017 1.362 . S
C1018 C1021 1.409 . S
C1019 H1011 0.930 . S
C1019 C1020 1.355 . S
C1019 C1021 1.415 . S
C1020 C1019 1.355 . S
C1020 C1022 1.419 . S
C1021 C1016 1.425 . S
C1021 C1018 1.409 . S
C1021 C1019 1.415 . S
C1022 H1012 0.930 . S
C1022 C1020 1.419 . S
C1022 C1023 1.362 . S
C1023 H1013 0.930 . S
C1023 C1016 1.409 . S
C1023 C1022 1.362 . S
H1024 C1030 0.930 . S
H1025 C1033 0.930 . S
H1026 C1034 0.930 . S
H1027 C1035 0.930 . S
H1028 C1038 0.930 . S
H1029 C1039 0.930 . S
C1030 H1024 0.930 . S
C1030 C1031 1.355 . S
C1030 C1032 1.415 . S
C1031 C1030 1.355 . S
C1031 C1033 1.419 . S
C1032 C1030 1.415 . S
C1032 C1037 1.425 . S
C1032 C1039 1.409 . S
C1033 H1025 0.930 . S
C1033 C1031 1.419 . S
C1033 C1034 1.362 . S
C1034 H1026 0.930 . S
C1034 C1033 1.362 . S
C1034 C1037 1.409 . S
C1035 H1027 0.930 . S
C1035 C1036 1.355 . S
C1035 C1037 1.415 . S
C1036 C1035 1.355 . S
C1036 C1038 1.419 . S
C1037 C1032 1.425 . S
C1037 C1034 1.409 . S
C1037 C1035 1.415 . S
C1038 H1028 0.930 . S
C1038 C1036 1.419 . S
C1038 C1039 1.362 . S
C1039 H1029 0.930 . S
C1039 C1032 1.409 . S
C1039 C1038 1.362 . S
H1040 C1046 0.930 . S
H1041 C1049 0.930 . S
H1042 C1050 0.930 . S
H1043 C1051 0.930 . S
H1044 C1054 0.930 . S
H1045 C1055 0.930 . S
C1046 H1040 0.930 . S
C1046 C1047 1.355 . S
C1046 C1048 1.415 . S
C1047 C1046 1.355 . S
C1047 C1049 1.419 . S
C1048 C1046 1.415 . S
C1048 C1053 1.425 . S
C1048 C1055 1.409 . S
C1049 H1041 0.930 . S
C1049 C1047 1.419 . S
C1049 C1050 1.362 . S
C1050 H1042 0.930 . S
C1050 C1049 1.362 . S
C1050 C1053 1.409 . S
C1051 H1043 0.930 . S
C1051 C1052 1.355 . S
C1051 C1053 1.415 . S
C1052 C1051 1.355 . S
C1052 C1054 1.419 . S
C1053 C1048 1.425 . S
C1053 C1050 1.409 . S
C1053 C1051 1.415 . S
C1054 H1044 0.930 . S
C1054 C1052 1.419 . S
C1054 C1055 1.362 . S
C1055 H1045 0.930 . S
C1055 C1048 1.409 . S
C1055 C1054 1.362 . S
H1056 C1062 0.930 . S
H1057 C1065 0.930 . S
H1058 C1066 0.930 . S
H1059 C1067 0.930 . S
H1060 C1070 0.930 . S
H1061 C1071 0.930 . S
C1062 H1056 0.930 . S
C1062 C1063 1.355 . S
C1062 C1064 1.415 . S
C1063 C1062 1.355 . S
C1063 C1065 1.419 . S
C1064 C1062 1.415 . S
C1064 C1069 1.425 . S
C1064 C1071 1.409 . S
C1065 H1057 0.930 . S
C1065 C1063 1.419 . S
C1065 C1066 1.362 . S
C1066 H1058 0.930 . S
C1066 C1065 1.362 . S
C1066 C1069 1.409 . S
C1067 H1059 0.930 . S
C1067 C1068 1.355 . S
C1067 C1069 1.415 . S
C1068 C1067 1.355 . S
C1068 C1070 1.419 . S
C1069 C1064 1.425 . S
C1069 C1066 1.409 . S
C1069 C1067 1.415 . S
C1070 H1060 0.930 . S
C1070 C1068 1.419 . S
C1070 C1071 1.362 . S
C1071 H1061 0.930 . S
C1071 C1064 1.409 . S
C1071 C1070 1.362 . S
H1072 C1078 0.930 . S
H1073 C1081 0.930 . S
H1074 C1082 0.930 . S
H1075 C1083 0.930 . S
H1076 C1086 0.930 . S
H1077 C1087 0.930 . S
C1078 H1072 0.930 . S
C1078 C1079 1.355 . S
C1078 C1080 1.415 . S
C1079 C1078 1.355 . S
C1079 C1081 1.419 . S
C1080 C1078 1.415 . S
C1080 C1085 1.425 . S
C1080 C1087 1.409 . S
C1081 H1073 0.930 . S
C1081 C1079 1.419 . S
C1081 C1082 1.362 . S
C1082 H1074 0.930 . S
C1082 C1081 1.362 . S
C1082 C1085 1.409 . S
C1083 H1075 0.930 . S
C1083 C1084 1.355 . S
C1083 C1085 1.415 . S
C1084 C1083 1.355 . S
C1084 C1086 1.419 . S
C1085 C1080 1.425 . S
C1085 C1082 1.409 . S
C1085 C1083 1.415 . S
C1086 H1076 0.930 . S
C1086 C1084 1.419 . S
C1086 C1087 1.362 . S
C1087 H1077 0.930 . S
C1087 C1080 1.409 . S
C1087 C1086 1.362 . S
H1088 C1094 0.930 . S
H1089 C1097 0.930 . S
H1090 C1098 0.930 . S
H1091 C1099 0.930 . S
H1092 C1102 0.930 . S
H1093 C1103 0.930 . S
C1094 H1088 0.930 . S
C1094 C1095 1.355 . S
C1094 C1096 1.415 . S
C1095 C1094 1.355 . S
C1095 C1097 1.419 . S
C1096 C1094 1.415 . S
C1096 C1101 1.425 . S
C1096 C1103 1.409 . S
C1097 H1089 0.930 . S
C1097 C1095 1.419 . S
C1097 C1098 1.362 . S
C1098 H1090 0.930 . S
C1098 C1097 1.362 . S
C1098 C1101 1.409 . S
C1099 H1091 0.930 . S
C1099 C1100 1.355 . S
C1099 C1101 1.415 . S
C1100 C1099 1.355 . S
C1100 C1102 1.419 . S
C1101 C1096 1.425 . S
C1101 C1098 1.409 . S
C1101 C1099 1.415 . S
C1102 H1092 0.930 . S
C1102 C1100 1.419 . S
C1102 C1103 1.362 . S
C1103 H1093 0.930 . S
C1103 C1096 1.409 . S
C1103 C1102 1.362 . S
H1104 C1110 0.930 . S
H1105 C1113 0.930 . S
H1106 C1114 0.930 . S
H1107 C1115 0.930 . S
H1108 C1118 0.930 . S
H1109 C1119 0.930 . S
C1110 H1104 0.930 . S
C1110 C1111 1.355 . S
C1110 C1112 1.415 . S
C1111 C1110 1.355 . S
C1111 C1113 1.419 . S
C1112 C1110 1.415 . S
C1112 C1117 1.425 . S
C1112 C1119 1.409 . S
C1113 H1105 0.930 . S
C1113 C1111 1.419 . S
C1113 C1114 1.362 . S
C1114 H1106 0.930 . S
C1114 C1113 1.362 . S
C1114 C1117 1.409 . S
C1115 H1107 0.930 . S
C1115 C1116 1.355 . S
C1115 C1117 1.415 . S
C1116 C1115 1.355 . S
C1116 C1118 1.419 . S
C1117 C1112 1.425 . S
C1117 C1114 1.409 . S
C1117 C1115 1.415 . S
C1118 H1108 0.930 . S
C1118 C1116 1.419 . S
C1118 C1119 1.362 . S
C1119 H1109 0.930 . S
C1119 C1112 1.409 . S
C1119 C1118 1.362 . S
H1120 C1126 0.930 . S
H1121 C1129 0.930 . S
H1122 C1130 0.930 . S
H1123 C1131 0.930 . S
H1124 C1134 0.930 . S
H1125 C1135 0.930 . S
C1126 H1120 0.930 . S
C1126 C1127 1.355 . S
C1126 C1128 1.415 . S
C1127 C1126 1.355 . S
C1127 C1129 1.419 . S
C1128 C1126 1.415 . S
C1128 C1133 1.425 . S
C1128 C1135 1.409 . S
C1129 H1121 0.930 . S
C1129 C1127 1.419 . S
C1129 C1130 1.362 . S
C1130 H1122 0.930 . S
C1130 C1129 1.362 . S
C1130 C1133 1.409 . S
C1131 H1123 0.930 . S
C1131 C1132 1.355 . S
C1131 C1133 1.415 . S
C1132 C1131 1.355 . S
C1132 C1134 1.419 . S
C1133 C1128 1.425 . S
C1133 C1130 1.409 . S
C1133 C1131 1.415 . S
C1134 H1124 0.930 . S
C1134 C1132 1.419 . S
C1134 C1135 1.362 . S
C1135 H1125 0.930 . S
C1135 C1128 1.409 . S
C1135 C1134 1.362 . S
H1136 C1142 0.930 . S
H1137 C1145 0.930 . S
H1138 C1146 0.930 . S
H1139 C1147 0.930 . S
H1140 C1150 0.930 . S
H1141 C1151 0.930 . S
C1142 H1136 0.930 . S
C1142 C1143 1.355 . S
C1142 C1144 1.415 . S
C1143 C1142 1.355 . S
C1143 C1145 1.419 . S
C1144 C1142 1.415 . S
C1144 C1149 1.425 . S
C1144 C1151 1.409 . S
C1145 H1137 0.930 . S
C1145 C1143 1.419 . S
C1145 C1146 1.362 . S
C1146 H1138 0.930 . S
C1146 C1145 1.362 . S
C1146 C1149 1.409 . S
C1147 H1139 0.930 . S
C1147 C1148 1.355 . S
C1147 C1149 1.415 . S
C1148 C1147 1.355 . S
C1148 C1150 1.419 . S
C1149 C1144 1.425 . S
C1149 C1146 1.409 . S
C1149 C1147 1.415 . S
C1150 H1140 0.930 . S
C1150 C1148 1.419 . S
C1150 C1151 1.362 . S
C1151 H1141 0.930 . S
C1151 C1144 1.409 . S
C1151 C1150 1.362 . S
H1152 C1158 0.930 . S
H1153 C1161 0.930 . S
H1154 C1162 0.930 . S
H1155 C1163 0.930 . S
H1156 C1166 0.930 . S
H1157 C1167 0.930 . S
C1158 H1152 0.930 . S
C1158 C1159 1.355 . S
C1158 C1160 1.415 . S
C1159 C1158 1.355 . S
C1159 C1161 1.419 . S
C1160 C1158 1.415 . S
C1160 C1165 1.425 . S
C1160 C1167 1.409 . S
C1161 H1153 0.930 . S
C1161 C1159 1.419 . S
C1161 C1162 1.362 . S
C1162 H1154 0.930 . S
C1162 C1161 1.362 . S
C1162 C1165 1.409 . S
C1163 H1155 0.930 . S
C1163 C1164 1.355 . S
C1163 C1165 1.415 . S
C1164 C1163 1.355 . S
C1164 C1166 1.419 . S
C1165 C1160 1.425 . S
C1165 C1162 1.409 . S
C1165 C1163 1.415 . S
C1166 H1156 0.930 . S
C1166 C1164 1.419 . S
C1166 C1167 1.362 . S
C1167 H1157 0.930 . S
C1167 C1160 1.409 . S
C1167 C1166 1.362 . S
H1168 C1174 0.930 . S
H1169 C1177 0.930 . S
H1170 C1178 0.930 . S
H1171 C1179 0.930 . S
H1172 C1182 0.930 . S
H1173 C1183 0.930 . S
C1174 H1168 0.930 . S
C1174 C1175 1.355 . S
C1174 C1176 1.415 . S
C1175 C1174 1.355 . S
C1175 C1177 1.419 . S
C1176 C1174 1.415 . S
C1176 C1181 1.425 . S
C1176 C1183 1.409 . S
C1177 H1169 0.930 . S
C1177 C1175 1.419 . S
C1177 C1178 1.362 . S
C1178 H1170 0.930 . S
C1178 C1177 1.362 . S
C1178 C1181 1.409 . S
C1179 H1171 0.930 . S
C1179 C1180 1.355 . S
C1179 C1181 1.415 . S
C1180 C1179 1.355 . S
C1180 C1182 1.419 . S
C1181 C1176 1.425 . S
C1181 C1178 1.409 . S
C1181 C1179 1.415 . S
C1182 H1172 0.930 . S
C1182 C1180 1.419 . S
C1182 C1183 1.362 . S
C1183 H1173 0.930 . S
C1183 C1176 1.409 . S
C1183 C1182 1.362 . S
C551 C9 1.380 1_655 S
C556 C5 1.428 . S
C567 C43 1.330 . S
C572 C39 1.409 . S
C583 C77 1.389 . S
C588 C73 1.440 . S
C599 C111 1.300 . S
C604 C107 1.404 . S
C615 C145 1.289 . S
C620 C141 1.408 . S
C631 C179 1.367 . S
C636 C175 1.422 . S
C647 C213 1.292 . S
C652 C209 1.405 . S
C663 C243 1.417 . S
C668 C247 1.354 . S
C679 C277 1.431 . S
C684 C281 1.384 . S
C695 C315 1.380 . S
C700 C311 1.441 . S
C711 C349 1.331 . S
C716 C345 1.430 . S
C727 C379 1.405 . S
C732 C383 1.308 . S
C743 C413 1.426 . S
C748 C417 1.376 . S
C759 C451 1.300 . S
C764 C447 1.404 . S
C775 C481 1.404 . S
C780 C485 1.303 . S
C791 C519 1.330 . S
C796 C515 1.430 . S
C807 C20 1.474 . S
C812 C156 1.498 . S
C823 C190 1.499 . S
C828 C54 1.474 . S
C839 C224 1.493 . S
C844 C88 1.500 . S
C855 C122 1.479 . S
C860 C258 1.507 . S
C871 C360 1.501 . S
C876 C292 1.493 . S
C887 C326 1.481 . S
C892 C394 1.506 . S
C903 C428 1.498 . S
C908 C496 1.474 . S
C919 C462 1.477 1_655 S
C924 C530 1.489 1_655 S
C935 C339 1.238 . S
C940 C33 1.209 . S
C951 C509 1.237 . S
C956 C67 1.209 . S
C967 C101 1.209 . S
C972 C305 1.238 . S
C983 C543 1.235 . S
C988 C135 1.213 . S
C999 C373 1.238 . S
C1004 C169 1.209 . S
C1015 C475 1.238 . S
C1020 C203 1.209 . S
C1031 C237 1.224 . S
C1036 C407 1.226 . S
C1047 C271 1.217 . S
C1052 C441 1.232 . S
C1063 C138 1.667 . S
C1068 C104 1.667 . S
C1079 C410 1.676 . S
C1084 C274 1.676 . S
C1095 C36 1.658 . S
C1100 C206 1.658 . S
C1111 C444 1.671 . S
C1116 C308 1.671 . S
C1127 C172 1.663 . S
C1132 C2 1.663 . S
C1143 C342 1.667 . S
C1148 C512 1.667 . S
C1159 C240 1.671 . S
C1164 C70 1.671 . S
C1175 C478 1.665 . S
C1180 C376 1.664 . S
