# Generated by pormake.
# Topology zfc, (5)-cn, num edge types: 1
# Building blocks:
#     Node 0, Type 0, BuildingBlock: XOMCOT_clean_sbu_1, # of connection points: 5
#     Node 1, Type 0, BuildingBlock: XOMCOT_clean_sbu_1, # of connection points: 5
#     Node 2, Type 0, BuildingBlock: XOMCOT_clean_sbu_1, # of connection points: 5
#     Node 3, Type 0, BuildingBlock: XOMCOT_clean_sbu_1, # of connection points: 5
#     Node 4, Type 0, BuildingBlock: XOMCOT_clean_sbu_1, # of connection points: 5
#     Node 5, Type 0, BuildingBlock: XOMCOT_clean_sbu_1, # of connection points: 5
#     Node 6, Type 0, BuildingBlock: XOMCOT_clean_sbu_1, # of connection points: 5
#     Node 7, Type 0, BuildingBlock: XOMCOT_clean_sbu_1, # of connection points: 5
#     Node 8, Type 0, BuildingBlock: XOMCOT_clean_sbu_1, # of connection points: 5
#     Node 9, Type 0, BuildingBlock: XOMCOT_clean_sbu_1, # of connection points: 5
#     Node 10, Type 0, BuildingBlock: XOMCOT_clean_sbu_1, # of connection points: 5
#     Node 11, Type 0, BuildingBlock: XOMCOT_clean_sbu_1, # of connection points: 5
#     Node 12, Type 0, BuildingBlock: XOMCOT_clean_sbu_1, # of connection points: 5
#     Node 13, Type 0, BuildingBlock: XOMCOT_clean_sbu_1, # of connection points: 5
#     Node 14, Type 0, BuildingBlock: XOMCOT_clean_sbu_1, # of connection points: 5
#     Node 15, Type 0, BuildingBlock: XOMCOT_clean_sbu_1, # of connection points: 5
#     Edge 16, Type (0, 0), BuildingBlock: EZIPEK_clean_linker_0, # of connection points: 2
#     Edge 17, Type (0, 0), BuildingBlock: EZIPEK_clean_linker_0, # of connection points: 2
#     Edge 18, Type (0, 0), BuildingBlock: EZIPEK_clean_linker_0, # of connection points: 2
#     Edge 19, Type (0, 0), BuildingBlock: EZIPEK_clean_linker_0, # of connection points: 2
#     Edge 20, Type (0, 0), BuildingBlock: EZIPEK_clean_linker_0, # of connection points: 2
#     Edge 21, Type (0, 0), BuildingBlock: EZIPEK_clean_linker_0, # of connection points: 2
#     Edge 22, Type (0, 0), BuildingBlock: EZIPEK_clean_linker_0, # of connection points: 2
#     Edge 23, Type (0, 0), BuildingBlock: EZIPEK_clean_linker_0, # of connection points: 2
#     Edge 24, Type (0, 0), BuildingBlock: EZIPEK_clean_linker_0, # of connection points: 2
#     Edge 25, Type (0, 0), BuildingBlock: EZIPEK_clean_linker_0, # of connection points: 2
#     Edge 26, Type (0, 0), BuildingBlock: EZIPEK_clean_linker_0, # of connection points: 2
#     Edge 27, Type (0, 0), BuildingBlock: EZIPEK_clean_linker_0, # of connection points: 2
#     Edge 28, Type (0, 0), BuildingBlock: EZIPEK_clean_linker_0, # of connection points: 2
#     Edge 29, Type (0, 0), BuildingBlock: EZIPEK_clean_linker_0, # of connection points: 2
#     Edge 30, Type (0, 0), BuildingBlock: EZIPEK_clean_linker_0, # of connection points: 2
#     Edge 31, Type (0, 0), BuildingBlock: EZIPEK_clean_linker_0, # of connection points: 2
#     Edge 32, Type (0, 0), BuildingBlock: EZIPEK_clean_linker_0, # of connection points: 2
#     Edge 33, Type (0, 0), BuildingBlock: EZIPEK_clean_linker_0, # of connection points: 2
#     Edge 34, Type (0, 0), BuildingBlock: EZIPEK_clean_linker_0, # of connection points: 2
#     Edge 35, Type (0, 0), BuildingBlock: EZIPEK_clean_linker_0, # of connection points: 2
#     Edge 36, Type (0, 0), BuildingBlock: EZIPEK_clean_linker_0, # of connection points: 2
#     Edge 37, Type (0, 0), BuildingBlock: EZIPEK_clean_linker_0, # of connection points: 2
#     Edge 38, Type (0, 0), BuildingBlock: EZIPEK_clean_linker_0, # of connection points: 2
#     Edge 39, Type (0, 0), BuildingBlock: EZIPEK_clean_linker_0, # of connection points: 2
#     Edge 40, Type (0, 0), BuildingBlock: EZIPEK_clean_linker_0, # of connection points: 2
#     Edge 41, Type (0, 0), BuildingBlock: EZIPEK_clean_linker_0, # of connection points: 2
#     Edge 42, Type (0, 0), BuildingBlock: EZIPEK_clean_linker_0, # of connection points: 2
#     Edge 43, Type (0, 0), BuildingBlock: EZIPEK_clean_linker_0, # of connection points: 2
#     Edge 44, Type (0, 0), BuildingBlock: EZIPEK_clean_linker_0, # of connection points: 2
#     Edge 45, Type (0, 0), BuildingBlock: EZIPEK_clean_linker_0, # of connection points: 2
#     Edge 46, Type (0, 0), BuildingBlock: EZIPEK_clean_linker_0, # of connection points: 2
#     Edge 47, Type (0, 0), BuildingBlock: EZIPEK_clean_linker_0, # of connection points: 2
#     Edge 48, Type (0, 0), BuildingBlock: EZIPEK_clean_linker_0, # of connection points: 2
#     Edge 49, Type (0, 0), BuildingBlock: EZIPEK_clean_linker_0, # of connection points: 2
#     Edge 50, Type (0, 0), BuildingBlock: EZIPEK_clean_linker_0, # of connection points: 2
#     Edge 51, Type (0, 0), BuildingBlock: EZIPEK_clean_linker_0, # of connection points: 2
#     Edge 52, Type (0, 0), BuildingBlock: EZIPEK_clean_linker_0, # of connection points: 2
#     Edge 53, Type (0, 0), BuildingBlock: EZIPEK_clean_linker_0, # of connection points: 2
#     Edge 54, Type (0, 0), BuildingBlock: EZIPEK_clean_linker_0, # of connection points: 2
#     Edge 55, Type (0, 0), BuildingBlock: EZIPEK_clean_linker_0, # of connection points: 2
# Relax obj value: 0.155
# Max RMSD: 0.159
# Mean RMSD: 0.159
data_MOF--net-zfc--node1-XOMCOT_clean_sbu_1--edge1-EZIPEK_clean_linker_0
_symmetry_space_group_name_H-M    P1
_symmetry_Int_Tables_number       1
_symmetry_cell_setting            triclinic
loop_
_symmetry_equiv_pos_as_xyz
'x, y, z'
_cell_length_a     56.64568
_cell_length_b     56.618577
_cell_length_c     13.392293
_cell_angle_alpha  89.92991
_cell_angle_beta   90.047246
_cell_angle_gamma 89.973396
loop_
_atom_site_label
_atom_site_type_symbol
_atom_site_fract_x
_atom_site_fract_y
_atom_site_fract_z
_atom_type_partial_charge
C0 C 0.25255 0.07534 0.21317 0.0
C1 C 0.25046 0.07432 0.31586 0.0
N2 N 0.26436 0.09119 0.35502 0.0
N3 N 0.26789 0.09261 0.18805 0.0
C4 C 0.27429 0.10225 0.27652 0.0
H5 H 0.24392 0.06374 0.16056 0.0
Co6 Co 0.27891 0.09986 0.05898 0.0
C7 C 0.32776 0.11396 0.11721 0.0
O8 O 0.33737 0.09785 0.05969 0.0
N9 N 0.28941 0.10714 0.92919 0.0
C10 C 0.30302 0.12615 0.79514 0.0
C11 C 0.30291 0.12542 0.89815 0.0
C12 C 0.28131 0.09726 0.84376 0.0
N13 N 0.28937 0.10844 0.76167 0.0
O14 O 0.29684 0.07101 0.05777 0.0
H15 H 0.31105 0.13828 0.94677 0.0
H16 H 0.26863 0.08303 0.84128 0.0
O17 O 0.30539 0.11668 0.11913 0.0
C18 C 0.28598 0.05323 0.022 0.0
O19 O 0.26434 0.05592 0.9887 0.0
N20 N 0.26003 0.1268 0.05683 0.0
C21 C 0.22707 0.16302 0.03794 0.0
C22 C 0.24616 0.16524 0.1043 0.0
C23 C 0.26272 0.1469 0.112 0.0
C24 C 0.24141 0.12433 0.99337 0.0
C25 C 0.225 0.14239 0.98121 0.0
H26 H 0.27732 0.14873 0.1633 0.0
H27 H 0.23926 0.10808 0.95203 0.0
H28 H 0.28623 0.11699 0.28426 0.0
H29 H 0.24024 0.06171 0.35854 0.0
H30 H 0.31157 0.13923 0.74853 0.0
H31 H 0.24812 0.1809 0.14991 0.0
H32 H 0.2104 0.14002 0.92985 0.0
C33 C 0.91481 0.2522 0.20996 0.0
C34 C 0.91648 0.25033 0.31266 0.0
N35 N 0.90819 0.27047 0.35282 0.0
N36 N 0.90549 0.2734 0.18595 0.0
C37 C 0.90186 0.28417 0.27502 0.0
H38 H 0.91947 0.23874 0.15625 0.0
Co39 Co 0.89776 0.28401 0.05693 0.0
C40 C 0.87895 0.33172 0.11069 0.0
O41 O 0.89019 0.34241 0.03777 0.0
N42 N 0.89013 0.29438 0.92695 0.0
C43 C 0.87029 0.30584 0.79146 0.0
C44 C 0.87045 0.30551 0.89441 0.0
C45 C 0.90148 0.28791 0.84232 0.0
N46 N 0.88981 0.29469 0.7593 0.0
O47 O 0.92578 0.30309 0.05556 0.0
H48 H 0.85631 0.31162 0.94182 0.0
H49 H 0.91708 0.27692 0.84112 0.0
O50 O 0.8798 0.3093 0.11801 0.0
C51 C 0.94371 0.29153 0.02542 0.0
O52 O 0.94114 0.26922 1.00112 0.0
N53 N 0.87139 0.264 0.05516 0.0
C54 C 0.83422 0.23211 0.0341 0.0
C55 C 0.83454 0.24823 0.11377 0.0
C56 C 0.85337 0.26418 0.12286 0.0
C57 C 0.87178 0.24768 0.9804 0.0
C58 C 0.85311 0.23204 0.96687 0.0
H59 H 0.85367 0.27634 0.18495 0.0
H60 H 0.88671 0.24682 0.93038 0.0
H61 H 0.89414 0.30149 0.28408 0.0
H62 H 0.92258 0.23516 0.35466 0.0
H63 H 0.85632 0.3125 0.7439 0.0
H64 H 0.82045 0.24839 0.16836 0.0
H65 H 0.85367 0.21957 0.90561 0.0
C66 C 0.75862 0.90679 0.19914 0.0
C67 C 0.75773 0.90803 0.30219 0.0
N68 N 0.73502 0.91063 0.3297 0.0
N69 N 0.73648 0.90812 0.16208 0.0
C70 C 0.72262 0.91115 0.24352 0.0
H71 H 0.77419 0.90339 0.15472 0.0
Co72 Co 0.72566 0.90145 0.03119 0.0
C73 C 0.67795 0.88081 0.09081 0.0
O74 O 0.66522 0.89268 0.02584 0.0
N75 N 0.71416 0.89469 0.90083 0.0
C76 C 0.70025 0.87584 0.76825 0.0
C77 C 0.70402 0.8746 0.86916 0.0
C78 C 0.71653 0.90771 0.81643 0.0
N79 N 0.70718 0.89722 0.73371 0.0
O80 O 0.70796 0.9307 0.03021 0.0
H81 H 0.70094 0.85927 0.91461 0.0
H82 H 0.72674 0.9236 0.81553 0.0
O83 O 0.70027 0.88349 0.09292 0.0
C84 C 0.72137 0.94887 0.02585 0.0
O85 O 0.74431 0.94581 0.03317 0.0
N86 N 0.74462 0.87403 0.02732 0.0
C87 C 0.77558 0.8358 1.01233 0.0
C88 C 0.76115 0.83849 0.09666 0.0
C89 C 0.74558 0.85765 0.10226 0.0
C90 C 0.75909 0.87199 0.94639 0.0
C91 C 0.77412 0.85266 0.93594 0.0
H92 H 0.73477 0.85969 0.16803 0.0
H93 H 0.7591 0.88552 0.88941 0.0
H94 H 0.70354 0.91199 0.24055 0.0
H95 H 0.77243 0.90596 0.35314 0.0
H96 H 0.69446 0.86104 0.72377 0.0
H97 H 0.76208 0.826 0.15789 0.0
H98 H 0.7852 0.85133 0.87027 0.0
C99 C 0.09178 0.75276 0.20352 0.0
C100 C 0.09043 0.75472 0.30627 0.0
N101 N 0.09537 0.73345 0.3462 0.0
N102 N 0.09765 0.73039 0.17922 0.0
C103 C 0.09939 0.71903 0.26811 0.0
H104 H 0.08943 0.76689 0.15003 0.0
Co105 Co 0.10415 0.71877 0.05053 0.0
C106 C 0.12268 0.67177 0.12319 0.0
O107 O 0.10795 0.65866 0.0716 0.0
N108 N 0.11034 0.70724 0.92068 0.0
C109 C 0.1271 0.69181 0.78492 0.0
C110 C 0.12725 0.69229 0.88784 0.0
C111 C 0.10004 0.71541 0.83604 0.0
N112 N 0.11003 0.70646 0.75289 0.0
O113 O 0.07582 0.7002 0.05578 0.0
H114 H 0.13973 0.68314 0.93451 0.0
H115 H 0.08649 0.72887 0.83497 0.0
O116 O 0.12261 0.69411 0.11276 0.0
C117 C 0.05798 0.71191 0.02536 0.0
O118 O 0.06096 0.73388 0.99649 0.0
N119 N 0.13105 0.7382 0.04293 0.0
C120 C 0.16895 0.76927 0.02092 0.0
C121 C 0.16797 0.7537 0.10249 0.0
C122 C 0.14891 0.73809 0.11169 0.0
C123 C 0.13137 0.7539 0.96571 0.0
C124 C 0.15048 0.76899 0.95138 0.0
H125 H 0.14824 0.72637 0.1754 0.0
H126 H 0.11659 0.75501 0.91508 0.0
H127 H 0.10414 0.70065 0.27665 0.0
H128 H 0.0869 0.77062 0.34848 0.0
H129 H 0.13928 0.68236 0.7372 0.0
H130 H 0.18171 0.75377 0.15878 0.0
H131 H 0.15042 0.78102 0.88839 0.0
C132 C 0.26039 0.92901 0.81079 0.0
C133 C 0.25841 0.9305 0.70812 0.0
N134 N 0.27409 0.91544 0.66792 0.0
N135 N 0.27749 0.91335 0.83473 0.0
C136 C 0.28515 0.90514 0.74552 0.0
H137 H 0.25069 0.93947 0.86431 0.0
Co138 Co 0.28977 0.90774 0.96329 0.0
C139 C 0.33101 0.876 0.90218 0.0
O140 O 0.32479 0.85843 0.96075 0.0
N141 N 0.30192 0.90295 0.09472 0.0
C142 C 0.32392 0.89566 0.23012 0.0
C143 C 0.3234 0.8957 0.12721 0.0
C144 C 0.29028 0.90839 0.18017 0.0
N145 N 0.30303 0.90368 0.26282 0.0
O146 O 0.30409 0.93849 0.96196 0.0
H147 H 0.33832 0.89162 0.08063 0.0
H148 H 0.27289 0.91622 0.18262 0.0
O149 O 0.31844 0.89473 0.90117 0.0
C150 C 0.29142 0.95456 1.00152 0.0
O151 O 0.27097 0.94877 0.04059 0.0
N152 N 0.27373 0.87838 0.96708 0.0
C153 C 0.24261 0.8401 0.97942 0.0
C154 C 0.25998 0.8409 0.90479 0.0
C155 C 0.27545 0.86024 0.89997 0.0
C156 C 0.25619 0.8781 0.03671 0.0
C157 C 0.24117 0.85885 0.04692 0.0
H158 H 0.28809 0.86089 0.83995 0.0
H159 H 0.25285 0.89344 0.08167 0.0
H160 H 0.29899 0.89228 0.73635 0.0
H161 H 0.24708 0.94232 0.6663 0.0
H162 H 0.33868 0.89078 0.27731 0.0
H163 H 0.26115 0.82702 0.84942 0.0
H164 H 0.22751 0.85926 0.10352 0.0
C165 C 0.07439 0.25099 0.81581 0.0
C166 C 0.07254 0.24941 0.7131 0.0
N167 N 0.07672 0.27095 0.67426 0.0
N168 N 0.07994 0.27338 0.84114 0.0
C169 C 0.08062 0.2852 0.75314 0.0
H170 H 0.07291 0.23655 0.86836 0.0
Co171 Co 0.08747 0.28471 0.96946 0.0
C172 C 0.12667 0.31675 0.89309 0.0
O173 O 0.14351 0.30495 0.93835 0.0
N174 N 0.09401 0.29634 0.1002 0.0
C175 C 0.10945 0.3129 0.23679 0.0
C176 C 0.11021 0.31197 0.13399 0.0
C177 C 0.08329 0.28848 0.18456 0.0
N178 N 0.09256 0.29801 0.26817 0.0
O179 O 0.0591 0.30333 0.96756 0.0
H180 H 0.12254 0.32161 0.08866 0.0
H181 H 0.06998 0.27479 0.18521 0.0
O182 O 0.105 0.31105 0.90543 0.0
C183 C 0.04122 0.29156 0.9969 0.0
O184 O 0.04411 0.2694 0.02316 0.0
N185 N 0.11461 0.26431 0.97461 0.0
C186 C 0.15213 0.23224 0.99128 0.0
C187 C 0.14742 0.24356 0.9004 0.0
C188 C 0.1285 0.25942 0.89359 0.0
C189 C 0.11815 0.25192 0.06106 0.0
C190 C 0.13722 0.23659 0.0722 0.0
H191 H 0.125 0.26762 0.82288 0.0
H192 H 0.10588 0.25309 0.12184 0.0
H193 H 0.08486 0.30374 0.74589 0.0
H194 H 0.06953 0.23353 0.67005 0.0
H195 H 0.12105 0.32292 0.28503 0.0
H196 H 0.15816 0.24004 0.83521 0.0
H197 H 0.13977 0.22748 0.1426 0.0
C198 C 0.74671 0.09068 0.81002 0.0
C199 C 0.748 0.09004 0.70741 0.0
N200 N 0.72607 0.08666 0.6713 0.0
N201 N 0.72394 0.08849 0.83813 0.0
C202 C 0.71202 0.08506 0.75223 0.0
H203 H 0.76114 0.09448 0.86043 0.0
Co204 Co 0.71198 0.09482 0.96514 0.0
C205 C 0.67228 0.1282 0.89297 0.0
O206 O 0.68312 0.14775 0.91845 0.0
N207 N 0.70041 0.10108 0.09432 0.0
C208 C 0.69514 0.12241 0.23142 0.0
C209 C 0.69413 0.12253 0.12956 0.0
C210 C 0.70388 0.08787 0.1774 0.0
N211 N 0.70126 0.10062 0.26206 0.0
O212 O 0.69703 0.06418 0.9666 0.0
H213 H 0.6922 0.13828 0.08568 0.0
H214 H 0.71041 0.06994 0.1761 0.0
O215 O 0.68245 0.10821 0.90632 0.0
C216 C 0.71146 0.04781 0.99016 0.0
O217 O 0.73345 0.05349 1.00996 0.0
N218 N 0.72909 0.12378 0.9666 0.0
C219 C 0.76116 0.16118 0.98059 0.0
C220 C 0.74668 0.15876 0.89607 0.0
C221 C 0.7308 0.13977 0.89022 0.0
C222 C 0.74408 0.1254 0.04624 0.0
C223 C 0.75953 0.14431 0.05649 0.0
H224 H 0.72054 0.13741 0.82293 0.0
H225 H 0.74444 0.11162 0.10202 0.0
H226 H 0.69323 0.08291 0.74803 0.0
H227 H 0.7636 0.09313 0.66259 0.0
H228 H 0.69301 0.13765 0.27939 0.0
H229 H 0.74808 0.17106 0.83438 0.0
H230 H 0.77094 0.14519 0.12138 0.0
C231 C 0.93497 0.74007 0.81597 0.0
C232 C 0.93594 0.74201 0.71327 0.0
N233 N 0.91902 0.7281 0.67462 0.0
N234 N 0.91781 0.72466 0.84152 0.0
C235 C 0.90809 0.71818 0.75339 0.0
H236 H 0.94692 0.74837 0.86818 0.0
Co237 Co 0.91228 0.71237 0.96984 0.0
C238 C 0.88 0.67112 0.91801 0.0
O239 O 0.86437 0.67676 0.9865 0.0
N240 N 0.90756 0.70024 0.10115 0.0
C241 C 0.90286 0.67699 0.23481 0.0
C242 C 0.90349 0.67782 0.13204 0.0
C243 C 0.91084 0.71229 0.18757 0.0
N244 N 0.90771 0.69871 0.26932 0.0
O245 O 0.94271 0.69733 0.96742 0.0
H246 H 0.90234 0.66257 0.08418 0.0
H247 H 0.91656 0.73044 0.19161 0.0
O248 O 0.89836 0.684 0.90775 0.0
C249 C 0.95898 0.70949 1.00842 0.0
O250 O 0.95341 0.72974 0.05007 0.0
N251 N 0.88336 0.72905 0.97434 0.0
C252 C 0.84594 0.7612 0.985 0.0
C253 C 0.84519 0.74223 0.91776 0.0
C254 C 0.86411 0.72628 0.91361 0.0
C255 C 0.88464 0.74807 0.03629 0.0
C256 C 0.86586 0.76376 0.04581 0.0
H257 H 0.86353 0.71247 0.85847 0.0
H258 H 0.90083 0.75191 0.07507 0.0
H259 H 0.89385 0.70571 0.74589 0.0
H260 H 0.94885 0.75176 0.67024 0.0
H261 H 0.90029 0.66146 0.28076 0.0
H262 H 0.83038 0.74014 0.86732 0.0
H263 H 0.86744 0.77862 0.0963 0.0
C264 C 0.75389 0.57476 0.7187 0.0
C265 C 0.75187 0.5723 0.82114 0.0
N266 N 0.76993 0.58398 0.86352 0.0
N267 N 0.77328 0.58768 0.69714 0.0
C268 C 0.78245 0.59311 0.78755 0.0
H269 H 0.74229 0.56707 0.66345 0.0
Co270 Co 0.7855 0.59368 0.56844 0.0
C271 C 0.82556 0.62582 0.63179 0.0
O272 O 0.81699 0.64381 0.58135 0.0
N273 N 0.79753 0.59825 0.43691 0.0
C274 C 0.81842 0.60639 0.29952 0.0
C275 C 0.81802 0.60746 0.40236 0.0
C276 C 0.78644 0.59063 0.3531 0.0
N277 N 0.79845 0.59587 0.26912 0.0
O278 O 0.79936 0.5626 0.56841 0.0
H279 H 0.83224 0.61408 0.44749 0.0
H280 H 0.76941 0.58198 0.35316 0.0
O281 O 0.81468 0.60607 0.62948 0.0
C282 C 0.78646 0.54638 0.53145 0.0
O283 O 0.76535 0.5518 0.49802 0.0
N284 N 0.77 0.62401 0.56699 0.0
C285 C 0.73851 0.6625 0.56839 0.0
C286 C 0.75229 0.65713 0.65255 0.0
C287 C 0.76847 0.63838 0.64907 0.0
C288 C 0.75652 0.62916 0.48515 0.0
C289 C 0.74185 0.64891 0.48232 0.0
H290 H 0.77905 0.63507 0.71431 0.0
H291 H 0.75569 0.61742 0.42273 0.0
H292 H 0.79774 0.60401 0.79878 0.0
H293 H 0.73846 0.56253 0.86122 0.0
H294 H 0.83228 0.61273 0.25079 0.0
H295 H 0.75028 0.66705 0.72113 0.0
H296 H 0.73162 0.65233 0.41543 0.0
C297 C 0.42779 0.75866 0.69694 0.0
C298 C 0.42811 0.75633 0.79961 0.0
N299 N 0.41291 0.77218 0.83808 0.0
N300 N 0.41273 0.77612 0.67149 0.0
C301 C 0.4035 0.78351 0.75915 0.0
H302 H 0.43877 0.74917 0.64453 0.0
Co303 Co 0.40833 0.78841 0.54342 0.0
C304 C 0.37942 0.83265 0.58941 0.0
O305 O 0.36451 0.82968 0.51527 0.0
N306 N 0.40441 0.80042 0.41221 0.0
C307 C 0.40556 0.82382 0.27792 0.0
C308 C 0.40615 0.82307 0.38085 0.0
C309 C 0.40356 0.78776 0.32634 0.0
N310 N 0.40389 0.80153 0.24426 0.0
O311 O 0.43925 0.80278 0.54954 0.0
H312 H 0.40916 0.83806 0.42909 0.0
H313 H 0.40445 0.76877 0.3225 0.0
O314 O 0.39547 0.81719 0.60318 0.0
C315 C 0.45597 0.79373 0.49874 0.0
O316 O 0.45138 0.77579 0.4398 0.0
N317 N 0.37894 0.77288 0.53761 0.0
C318 C 0.34032 0.74219 0.5294 0.0
C319 C 0.33942 0.76274 0.58782 0.0
C320 C 0.35896 0.77795 0.59083 0.0
C321 C 0.38037 0.75234 0.48514 0.0
C322 C 0.36104 0.73731 0.47641 0.0
H323 H 0.35829 0.79295 0.64011 0.0
H324 H 0.39703 0.74702 0.45319 0.0
H325 H 0.39049 0.79731 0.76614 0.0
H326 H 0.43953 0.74489 0.84288 0.0
H327 H 0.40761 0.83932 0.23133 0.0
H328 H 0.324 0.76665 0.63264 0.0
H329 H 0.36273 0.72124 0.43312 0.0
C330 C 0.25184 0.40982 0.72326 0.0
C331 C 0.25374 0.41192 0.82553 0.0
N332 N 0.23231 0.41738 0.86217 0.0
N333 N 0.22924 0.41374 0.69523 0.0
C334 C 0.21818 0.41958 0.78142 0.0
H335 H 0.26597 0.40477 0.67365 0.0
Co336 Co 0.21589 0.41038 0.56582 0.0
C337 C 0.1844 0.38099 0.69961 0.0
O338 O 0.20262 0.37435 0.75327 0.0
N339 N 0.20343 0.40807 0.43627 0.0
C340 C 0.18064 0.40326 0.30211 0.0
C341 C 0.18149 0.40229 0.4051 0.0
C342 C 0.21541 0.41288 0.35121 0.0
N343 N 0.20198 0.41005 0.26889 0.0
O344 O 0.20059 0.4404 0.58033 0.0
H345 H 0.16694 0.39778 0.45359 0.0
H346 H 0.23369 0.41837 0.34927 0.0
O347 O 0.18739 0.39417 0.6225 0.0
C348 C 0.21434 0.45715 0.55469 0.0
O349 O 0.23602 0.45188 0.52782 0.0
N350 N 0.23272 0.38181 0.54421 0.0
C351 C 0.26392 0.34483 0.50008 0.0
C352 C 0.24211 0.34036 0.54591 0.0
C353 C 0.22635 0.35895 0.5633 0.0
C354 C 0.25358 0.38631 0.49711 0.0
C355 C 0.26908 0.36811 0.47183 0.0
H356 H 0.20924 0.35451 0.59133 0.0
H357 H 0.25837 0.40435 0.48003 0.0
H358 H 0.19968 0.42381 0.78572 0.0
H359 H 0.26921 0.40807 0.87019 0.0
H360 H 0.1656 0.39923 0.25518 0.0
H361 H 0.23716 0.32257 0.56715 0.0
H362 H 0.28549 0.37233 0.43436 0.0
C363 C 0.56931 0.24285 0.73502 0.0
C364 C 0.56876 0.24503 0.83775 0.0
N365 N 0.5855 0.23082 0.87624 0.0
N366 N 0.58618 0.22717 0.70894 0.0
C367 C 0.59619 0.22082 0.79687 0.0
H368 H 0.55741 0.25139 0.68327 0.0
Co369 Co 0.59193 0.21483 0.5802 0.0
C370 C 0.59979 0.16535 0.65428 0.0
O371 O 0.57998 0.15785 0.61447 0.0
N372 N 0.5977 0.203 0.45057 0.0
C373 C 0.61416 0.18603 0.31738 0.0
C374 C 0.6132 0.18629 0.42047 0.0
C375 C 0.58958 0.21263 0.36444 0.0
N376 N 0.5993 0.20268 0.28286 0.0
O377 O 0.56136 0.20009 0.58073 0.0
H378 H 0.62406 0.17577 0.46978 0.0
H379 H 0.57772 0.22756 0.3611 0.0
O380 O 0.60638 0.18681 0.64257 0.0
C381 C 0.545 0.21246 0.5415 0.0
O382 O 0.55012 0.23344 0.50573 0.0
N383 N 0.62062 0.23101 0.57496 0.0
C384 C 0.65916 0.26107 0.54989 0.0
C385 C 0.66001 0.24256 0.62002 0.0
C386 C 0.64058 0.22731 0.63011 0.0
C387 C 0.6195 0.24911 0.50817 0.0
C388 C 0.63877 0.26376 0.49186 0.0
H389 H 0.64143 0.21304 0.68357 0.0
H390 H 0.60333 0.25236 0.46762 0.0
H391 H 0.61064 0.20852 0.80354 0.0
H392 H 0.55623 0.2552 0.88101 0.0
H393 H 0.62545 0.1751 0.27144 0.0
H394 H 0.6754 0.2401 0.66689 0.0
H395 H 0.63735 0.27787 0.43741 0.0
C396 C 0.74526 0.40394 0.31311 0.0
C397 C 0.74517 0.40461 0.21032 0.0
N398 N 0.76734 0.40883 0.17846 0.0
N399 N 0.76752 0.40714 0.34616 0.0
C400 C 0.78037 0.41103 0.26255 0.0
H401 H 0.73045 0.3993 0.36015 0.0
Co402 Co 0.7792 0.39997 0.47419 0.0
C403 C 0.82759 0.38254 0.4214 0.0
O404 O 0.83772 0.39268 0.49851 0.0
N405 N 0.7912 0.39244 0.60206 0.0
C406 C 0.79696 0.37079 0.73856 0.0
C407 C 0.7966 0.37061 0.63594 0.0
C408 C 0.78986 0.40579 0.68548 0.0
N409 N 0.79243 0.39293 0.76995 0.0
O410 O 0.79544 0.42992 0.47837 0.0
H411 H 0.79767 0.35501 0.58982 0.0
H412 H 0.78523 0.42418 0.68502 0.0
O413 O 0.80535 0.38407 0.40948 0.0
C414 C 0.78092 0.44704 0.48975 0.0
O415 O 0.75818 0.44247 0.48761 0.0
N416 N 0.76129 0.37199 0.47548 0.0
C417 C 0.73073 0.33364 0.49486 0.0
C418 C 0.7462 0.33521 0.41303 0.0
C419 C 0.76167 0.35449 0.40537 0.0
C420 C 0.74569 0.3711 0.55278 0.0
C421 C 0.731 0.35172 0.5661 0.0
H422 H 0.77329 0.35581 0.34163 0.0
H423 H 0.7448 0.38556 0.60525 0.0
H424 H 0.79935 0.41334 0.26269 0.0
H425 H 0.73024 0.40084 0.1624 0.0
H426 H 0.79885 0.35551 0.78663 0.0
H427 H 0.74611 0.32182 0.35535 0.0
H428 H 0.71917 0.35131 0.62962 0.0
C429 C 0.59622 0.74925 0.32188 0.0
C430 C 0.59429 0.74793 0.21933 0.0
N431 N 0.59278 0.77003 0.18303 0.0
N432 N 0.59629 0.77215 0.35055 0.0
C433 C 0.59295 0.78423 0.26392 0.0
H434 H 0.5982 0.7343 0.3711 0.0
Co435 Co 0.60115 0.78526 0.48054 0.0
C436 C 0.63501 0.81014 0.34743 0.0
O437 O 0.64051 0.78926 0.31155 0.0
N438 N 0.60489 0.79774 0.60873 0.0
C439 C 0.61296 0.81962 0.7425 0.0
C440 C 0.61355 0.81873 0.63941 0.0
C441 C 0.59903 0.78628 0.69387 0.0
N442 N 0.60369 0.79922 0.77608 0.0
O443 O 0.57255 0.80305 0.46514 0.0
H444 H 0.62007 0.83246 0.5905 0.0
H445 H 0.59171 0.76863 0.69565 0.0
O446 O 0.62015 0.81152 0.41974 0.0
C447 C 0.5551 0.79039 0.49253 0.0
O448 O 0.55922 0.76867 0.52258 0.0
N449 N 0.62804 0.7662 0.50409 0.0
C450 C 0.66395 0.73375 0.54683 0.0
C451 C 0.66928 0.75728 0.52245 0.0
C452 C 0.65099 0.77355 0.50819 0.0
C453 C 0.62248 0.74402 0.53599 0.0
C454 C 0.64011 0.72765 0.5594 0.0
H455 H 0.65539 0.79196 0.50104 0.0
H456 H 0.60414 0.73904 0.5438 0.0
H457 H 0.59224 0.80329 0.25919 0.0
H458 H 0.59529 0.73207 0.17444 0.0
H459 H 0.61903 0.83397 0.78925 0.0
H460 H 0.68741 0.76316 0.51616 0.0
H461 H 0.63512 0.71006 0.58324 0.0
C462 C 0.25219 0.59382 0.35558 0.0
C463 C 0.25387 0.59243 0.25278 0.0
N464 N 0.23205 0.59508 0.21454 0.0
N465 N 0.22946 0.59759 0.38119 0.0
C466 C 0.2176 0.5979 0.29336 0.0
H467 H 0.26668 0.59302 0.40811 0.0
Co468 Co 0.21748 0.60319 0.50949 0.0
C469 C 0.18137 0.64008 0.454 0.0
O470 O 0.18775 0.65451 0.52588 0.0
N471 N 0.20522 0.6075 0.64027 0.0
C472 C 0.18229 0.61252 0.77436 0.0
C473 C 0.18343 0.61392 0.67163 0.0
C474 C 0.21642 0.60104 0.72555 0.0
N475 N 0.20323 0.60464 0.80776 0.0
O476 O 0.20091 0.57366 0.50252 0.0
H477 H 0.16886 0.61862 0.62379 0.0
H478 H 0.23387 0.59328 0.72781 0.0
O479 O 0.19076 0.61963 0.4471 0.0
C480 C 0.21242 0.5565 0.54032 0.0
O481 O 0.23335 0.56054 0.57881 0.0
N482 N 0.23549 0.63192 0.51657 0.0
C483 C 0.26676 0.6704 0.51915 0.0
C484 C 0.25266 0.66593 0.43529 0.0
C485 C 0.237 0.64677 0.43601 0.0
C486 C 0.24979 0.63584 0.59707 0.0
C487 C 0.26469 0.65539 0.60162 0.0
H488 H 0.22667 0.64341 0.36989 0.0
H489 H 0.251 0.62336 0.65674 0.0
H490 H 0.19881 0.60087 0.28626 0.0
H491 H 0.26985 0.59042 0.20939 0.0
H492 H 0.16733 0.61695 0.82098 0.0
H493 H 0.25407 0.67685 0.36911 0.0
H494 H 0.27572 0.65788 0.6669 0.0
C495 C 0.42139 0.24828 0.31266 0.0
C496 C 0.42362 0.25031 0.21019 0.0
N497 N 0.41004 0.23359 0.16817 0.0
N498 N 0.40661 0.23028 0.33452 0.0
C499 C 0.39992 0.22191 0.24426 0.0
H500 H 0.43033 0.259 0.36767 0.0
Co501 Co 0.39942 0.21883 0.46315 0.0
C502 C 0.36592 0.17984 0.39407 0.0
O503 O 0.3474 0.18942 0.43694 0.0
N504 N 0.39338 0.20758 0.59482 0.0
C505 C 0.3818 0.18846 0.73247 0.0
C506 C 0.38127 0.18868 0.62958 0.0
C507 C 0.40185 0.21795 0.67877 0.0
N508 N 0.39475 0.20695 0.7628 0.0
O509 O 0.42961 0.20333 0.46752 0.0
H510 H 0.37284 0.17549 0.58465 0.0
H511 H 0.41249 0.2338 0.67885 0.0
O512 O 0.38602 0.18989 0.4025 0.0
C513 C 0.44645 0.21535 0.5049 0.0
O514 O 0.44223 0.23682 0.53707 0.0
N515 N 0.37025 0.23604 0.46132 0.0
C516 C 0.33321 0.2691 0.46253 0.0
C517 C 0.33682 0.25431 0.37992 0.0
C518 C 0.35511 0.23755 0.38169 0.0
C519 C 0.36715 0.25092 0.54043 0.0
C520 C 0.34822 0.26654 0.54483 0.0
H521 H 0.35732 0.22639 0.31745 0.0
H522 H 0.38002 0.2519 0.59902 0.0
H523 H 0.38742 0.20787 0.23327 0.0
H524 H 0.43452 0.26277 0.16982 0.0
H525 H 0.37344 0.17571 0.7813 0.0
H526 H 0.32585 0.25592 0.31398 0.0
H527 H 0.34635 0.27781 0.60967 0.0
C528 C 0.26435 0.11716 0.61461 0.0
C529 C 0.28271 0.10385 0.65954 0.0
C530 C 0.28714 0.08057 0.50634 0.0
C531 C 0.26992 0.09495 0.45901 0.0
N532 N 0.24336 0.12792 0.46249 0.0
N533 N 0.31357 0.07503 0.64774 0.0
C534 C 0.25887 0.11357 0.51178 0.0
C535 C 0.29458 0.08603 0.60527 0.0
N536 N 0.25184 0.13275 0.6716 0.0
N537 N 0.29632 0.06171 0.45614 0.0
H538 H 0.31932 0.07893 0.71989 0.0
H539 H 0.32458 0.06337 0.60995 0.0
H540 H 0.29208 0.05806 0.38204 0.0
H541 H 0.30713 0.04901 0.48884 0.0
H542 H 0.23683 0.1416 0.64692 0.0
H543 H 0.25567 0.13571 0.74678 0.0
H544 H 0.23628 0.14329 0.4927 0.0
H545 H 0.23848 0.12501 0.38836 0.0
C546 C 0.88247 0.26919 0.61277 0.0
C547 C 0.89507 0.28797 0.65786 0.0
C548 C 0.91841 0.29298 0.50507 0.0
C549 C 0.90436 0.27567 0.45709 0.0
N550 N 0.87066 0.24987 0.45893 0.0
N551 N 0.923 0.31966 0.64594 0.0
C552 C 0.88578 0.26438 0.50941 0.0
C553 C 0.91258 0.30037 0.60369 0.0
N554 N 0.86774 0.25566 0.66974 0.0
N555 N 0.93764 0.30187 0.45655 0.0
H556 H 0.91881 0.32539 0.71781 0.0
H557 H 0.9344 0.33092 0.60785 0.0
H558 H 0.94225 0.29649 0.38475 0.0
H559 H 0.94996 0.31302 0.48973 0.0
H560 H 0.85977 0.24024 0.64417 0.0
H561 H 0.86505 0.25882 0.7456 0.0
H562 H 0.85533 0.24293 0.49012 0.0
H563 H 0.87242 0.24635 0.38288 0.0
C564 C 0.71048 0.89006 0.45637 0.0
C565 C 0.72549 0.90911 0.42991 0.0
C566 C 0.71991 0.92577 0.59815 0.0
C567 C 0.70854 0.90457 0.6284 0.0
N568 N 0.67891 0.87799 0.56539 0.0
N569 N 0.74355 0.94614 0.47342 0.0
C570 C 0.6996 0.88984 0.55159 0.0
C571 C 0.72991 0.92733 0.50031 0.0
N572 N 0.7074 0.87151 0.39283 0.0
N573 N 0.71771 0.94546 0.65589 0.0
H574 H 0.74963 0.94857 0.40064 0.0
H575 H 0.74973 0.9586 0.52426 0.0
H576 H 0.70599 0.94596 0.71594 0.0
H577 H 0.72416 0.96201 0.63569 0.0
H578 H 0.69829 0.85628 0.41348 0.0
H579 H 0.71598 0.87027 0.32429 0.0
H580 H 0.6706 0.86848 0.50874 0.0
H581 H 0.66847 0.88083 0.62845 0.0
C582 C 0.08201 0.71262 0.49864 0.0
C583 C 0.09849 0.7276 0.45047 0.0
C584 C 0.12122 0.73052 0.60609 0.0
C585 C 0.10591 0.71386 0.65125 0.0
N586 N 0.07379 0.68648 0.63845 0.0
N587 N 0.1358 0.74783 0.45211 0.0
C588 C 0.08681 0.70421 0.59685 0.0
C589 C 0.11864 0.73584 0.50269 0.0
N590 N 0.06149 0.70703 0.45093 0.0
N591 N 0.13793 0.74152 0.66295 0.0
H592 H 0.13458 0.75159 0.37603 0.0
H593 H 0.15203 0.75231 0.48326 0.0
H594 H 0.14024 0.73782 0.73865 0.0
H595 H 0.14815 0.75556 0.63741 0.0
H596 H 0.04768 0.69782 0.4843 0.0
H597 H 0.05752 0.71356 0.38014 0.0
H598 H 0.06089 0.67707 0.59995 0.0
H599 H 0.07727 0.67993 0.70982 0.0
C600 C 0.27883 0.89112 0.40696 0.0
C601 C 0.29569 0.90678 0.36516 0.0
C602 C 0.29816 0.92827 0.52396 0.0
C603 C 0.28059 0.91321 0.56429 0.0
N604 N 0.25254 0.8819 0.54549 0.0
N605 N 0.32047 0.94103 0.3786 0.0
C606 C 0.27042 0.89508 0.50585 0.0
C607 C 0.30515 0.92557 0.42247 0.0
N608 N 0.27166 0.87199 0.35278 0.0
N609 N 0.30847 0.94475 0.58425 0.0
H610 H 0.32652 0.93891 0.30574 0.0
H611 H 0.32639 0.95654 0.41171 0.0
H612 H 0.3033 0.94728 0.65806 0.0
H613 H 0.32293 0.95499 0.56402 0.0
H614 H 0.26087 0.85865 0.38052 0.0
H615 H 0.27786 0.86858 0.28089 0.0
H616 H 0.24274 0.86961 0.50534 0.0
H617 H 0.24653 0.88433 0.61842 0.0
C618 C 0.10064 0.26889 0.51947 0.0
C619 C 0.08024 0.277 0.57042 0.0
C620 C 0.06908 0.30053 0.42357 0.0
C621 C 0.08826 0.29078 0.36998 0.0
N622 N 0.12064 0.26345 0.36084 0.0
N623 N 0.04332 0.29776 0.56811 0.0
C624 C 0.10355 0.27425 0.41629 0.0
C625 C 0.06395 0.29207 0.52145 0.0
N626 N 0.11774 0.25702 0.57109 0.0
N627 N 0.05637 0.31847 0.38178 0.0
H628 H 0.03917 0.29141 0.63906 0.0
H629 H 0.02962 0.30697 0.53374 0.0
H630 H 0.06028 0.32522 0.31119 0.0
H631 H 0.04339 0.3279 0.41972 0.0
H632 H 0.13415 0.25278 0.54114 0.0
H633 H 0.11633 0.2532 0.64698 0.0
H634 H 0.13082 0.24942 0.38694 0.0
H635 H 0.12345 0.26741 0.28573 0.0
C636 C 0.69994 0.1037 0.54019 0.0
C637 C 0.71874 0.08846 0.56818 0.0
C638 C 0.72728 0.08177 0.39149 0.0
C639 C 0.70634 0.09415 0.36448 0.0
N640 N 0.66933 0.11071 0.41806 0.0
N641 N 0.74593 0.05787 0.51891 0.0
C642 C 0.69148 0.10294 0.44083 0.0
C643 C 0.73096 0.07575 0.49326 0.0
N644 N 0.69126 0.12004 0.6054 0.0
N645 N 0.74463 0.07755 0.32324 0.0
H646 H 0.74813 0.05233 0.59267 0.0
H647 H 0.75392 0.04699 0.46599 0.0
H648 H 0.74431 0.08433 0.25108 0.0
H649 H 0.76082 0.07008 0.34277 0.0
H650 H 0.67875 0.13267 0.58495 0.0
H651 H 0.69871 0.12312 0.67523 0.0
H652 H 0.65782 0.11748 0.47109 0.0
H653 H 0.66177 0.10819 0.34781 0.0
C654 C 0.8983 0.73099 0.51273 0.0
C655 C 0.91643 0.721 0.57186 0.0
C656 C 0.92932 0.6967 0.43038 0.0
C657 C 0.91043 0.70584 0.37229 0.0
N658 N 0.87481 0.72874 0.36099 0.0
N659 N 0.947 0.69207 0.59435 0.0
C660 C 0.89435 0.72228 0.41427 0.0
C661 C 0.93137 0.70324 0.53253 0.0
N662 N 0.88515 0.74905 0.551 0.0
N663 N 0.9457 0.68233 0.38688 0.0
H664 H 0.94889 0.69656 0.66931 0.0
H665 H 0.95667 0.6772 0.57418 0.0
H666 H 0.94439 0.6766 0.31332 0.0
H667 H 0.96142 0.67731 0.42116 0.0
H668 H 0.87302 0.7588 0.50957 0.0
H669 H 0.88758 0.75532 0.62356 0.0
H670 H 0.86121 0.73906 0.38964 0.0
H671 H 0.87126 0.72216 0.28981 0.0
C672 C 0.80084 0.57404 0.10964 0.0
C673 C 0.79076 0.59238 0.16745 0.0
C674 C 0.76499 0.60341 0.02717 0.0
C675 C 0.77585 0.58578 0.96799 0.0
N676 N 0.80484 0.55527 0.94724 0.0
N677 N 0.76557 0.62633 0.18079 0.0
C678 C 0.79397 0.5713 1.00794 0.0
C679 C 0.7733 0.60748 0.12622 0.0
N680 N 0.81667 0.55905 0.15335 0.0
N681 N 0.74684 0.61628 0.98765 0.0
H682 H 0.77181 0.62992 0.25246 0.0
H683 H 0.75427 0.63932 0.1536 0.0
H684 H 0.74117 0.6142 0.91404 0.0
H685 H 0.73655 0.62804 0.02834 0.0
H686 H 0.82321 0.54385 0.11974 0.0
H687 H 0.8225 0.56128 0.22655 0.0
H688 H 0.8198 0.54569 0.96708 0.0
H689 H 0.79939 0.55227 0.874 0.0
C690 C 0.42818 0.79539 0.09334 0.0
C691 C 0.40611 0.79368 0.14218 0.0
C692 C 0.38902 0.77548 0.99233 0.0
C693 C 0.4106 0.77917 0.94118 0.0
N694 N 0.44892 0.79746 0.9358 0.0
N695 N 0.36475 0.78465 0.13711 0.0
C696 C 0.42972 0.79047 0.98976 0.0
C697 C 0.38626 0.78438 0.09128 0.0
N698 N 0.44786 0.80085 0.14724 0.0
N699 N 0.37147 0.76297 0.94668 0.0
H700 H 0.36246 0.79099 0.2096 0.0
H701 H 0.34904 0.78018 0.10147 0.0
H702 H 0.37323 0.75629 0.87447 0.0
H703 H 0.35601 0.75776 0.98235 0.0
H704 H 0.4649 0.80026 0.11813 0.0
H705 H 0.44722 0.80351 0.22404 0.0
H706 H 0.46242 0.80784 0.9652 0.0
H707 H 0.45017 0.79494 0.85897 0.0
C708 C 0.20588 0.43326 0.11268 0.0
C709 C 0.20948 0.41196 0.16619 0.0
C710 C 0.22616 0.3936 0.01626 0.0
C711 C 0.22473 0.41562 0.96521 0.0
N712 N 0.21577 0.45706 0.96723 0.0
N713 N 0.22525 0.37266 0.1746 0.0
C714 C 0.21518 0.43565 1.01415 0.0
C715 C 0.22036 0.39239 0.11953 0.0
N716 N 0.19318 0.45099 0.15592 0.0
N717 N 0.23181 0.37358 0.96476 0.0
H718 H 0.22027 0.37091 0.24922 0.0
H719 H 0.23561 0.35877 0.14867 0.0
H720 H 0.23553 0.37351 0.8887 0.0
H721 H 0.23069 0.35667 0.99506 0.0
H722 H 0.18798 0.46626 0.11848 0.0
H723 H 0.18632 0.44957 0.22795 0.0
H724 H 0.21108 0.47288 1.00143 0.0
H725 H 0.22278 0.45923 0.89578 0.0
C726 C 0.57725 0.19984 0.12418 0.0
C727 C 0.5959 0.20982 0.18025 0.0
C728 C 0.60812 0.23325 0.03437 0.0
C729 C 0.58866 0.22423 0.97987 0.0
N730 N 0.55326 0.20078 0.97387 0.0
N731 N 0.62779 0.23745 0.19523 0.0
C732 C 0.57274 0.20811 0.02539 0.0
C733 C 0.61103 0.22694 0.13696 0.0
N734 N 0.5644 0.18185 0.16501 0.0
N735 N 0.62386 0.24768 0.98705 0.0
H736 H 0.63044 0.23278 0.26981 0.0
H737 H 0.63815 0.25161 0.1722 0.0
H738 H 0.62149 0.25325 0.91341 0.0
H739 H 0.63973 0.25323 0.01834 0.0
H740 H 0.55193 0.17203 0.12596 0.0
H741 H 0.56746 0.1756 0.23721 0.0
H742 H 0.53954 0.19114 1.00553 0.0
H743 H 0.5502 0.20534 0.89962 0.0
C744 C 0.76311 0.41915 0.99937 0.0
C745 C 0.77552 0.40718 0.07608 0.0
C746 C 0.80281 0.39199 0.9495 0.0
C747 C 0.78759 0.39983 0.87228 0.0
N748 N 0.74929 0.41625 0.82972 0.0
N749 N 0.80396 0.37671 0.11711 0.0
C750 C 0.7667 0.41241 0.89831 0.0
C751 C 0.79469 0.39223 0.04974 0.0
N752 N 0.74792 0.43699 0.02289 0.0
N753 N 0.82502 0.38432 0.92729 0.0
H754 H 0.79689 0.37406 0.18794 0.0
H755 H 0.81657 0.36422 0.09701 0.0
H756 H 0.83182 0.38498 0.85493 0.0
H757 H 0.83737 0.37999 0.98216 0.0
H758 H 0.7398 0.44748 0.96878 0.0
H759 H 0.74569 0.44292 0.09602 0.0
H760 H 0.73308 0.42378 0.84843 0.0
H761 H 0.74961 0.40923 0.75807 0.0
C762 C 0.61718 0.77333 0.02948 0.0
C763 C 0.59547 0.7773 0.07995 0.0
C764 C 0.58014 0.79796 0.93191 0.0
C765 C 0.60096 0.79202 0.87893 0.0
N766 N 0.63833 0.77213 0.87172 0.0
N767 N 0.55532 0.79082 0.07704 0.0
C768 C 0.61918 0.77908 0.92624 0.0
C769 C 0.57667 0.789 0.03048 0.0
N770 N 0.63624 0.76515 0.08158 0.0
N771 N 0.56398 0.81257 0.88822 0.0
H772 H 0.55238 0.78411 0.14854 0.0
H773 H 0.54014 0.79724 0.04253 0.0
H774 H 0.56627 0.81932 0.81636 0.0
H775 H 0.54935 0.8194 0.92521 0.0
H776 H 0.65322 0.76427 0.05212 0.0
H777 H 0.63558 0.76112 0.15738 0.0
H778 H 0.65107 0.76041 0.8981 0.0
H779 H 0.64064 0.77689 0.79708 0.0
C780 C 0.2204 0.57697 0.05433 0.0
C781 C 0.2256 0.59742 0.11084 0.0
C782 C 0.2156 0.62268 0.96761 0.0
C783 C 0.21073 0.60216 0.91036 0.0
N784 N 0.20998 0.55997 0.89355 0.0
N785 N 0.23019 0.63942 0.12344 0.0
C786 C 0.21363 0.57932 0.95227 0.0
C787 C 0.22367 0.62024 0.06799 0.0
N788 N 0.22141 0.55541 0.10001 0.0
N789 N 0.21266 0.64442 0.92483 0.0
H790 H 0.23645 0.63789 0.19636 0.0
H791 H 0.23057 0.65669 0.09716 0.0
H792 H 0.20854 0.64664 0.84953 0.0
H793 H 0.21375 0.66033 0.9632 0.0
H794 H 0.21599 0.53967 0.06738 0.0
H795 H 0.22694 0.55342 0.1738 0.0
H796 H 0.21356 0.54269 0.91511 0.0
H797 H 0.20412 0.56137 0.82014 0.0
C798 C 0.38936 0.23941 1.00776 0.0
C799 C 0.40732 0.22812 0.06375 0.0
C800 C 0.41645 0.2023 0.92181 0.0
C801 C 0.39911 0.2142 0.86436 0.0
N802 N 0.36979 0.24461 0.84739 0.0
N803 N 0.43945 0.20068 0.07527 0.0
C804 C 0.38583 0.23302 0.90589 0.0
C805 C 0.42132 0.21007 0.02085 0.0
N806 N 0.37521 0.2556 0.05394 0.0
N807 N 0.42786 0.1833 0.88159 0.0
H808 H 0.44304 0.20597 0.14828 0.0
H809 H 0.45177 0.1888 0.04721 0.0
H810 H 0.42498 0.17771 0.80844 0.0
H811 H 0.43923 0.17233 0.92123 0.0
H812 H 0.36033 0.26316 0.02152 0.0
H813 H 0.37782 0.26074 0.12795 0.0
H814 H 0.36103 0.25994 0.86861 0.0
H815 H 0.36582 0.23927 0.77481 0.0
C816 C 0.33852 0.12309 0.29413 0.0
C817 C 0.34242 0.12692 0.19107 0.0
C818 C 0.37258 0.15592 0.23552 0.0
C819 C 0.36266 0.15784 0.33278 0.0
N820 N 0.33829 0.13976 0.45998 0.0
N821 N 0.36448 0.14694 0.06216 0.0
C822 C 0.34631 0.14027 0.36394 0.0
C823 C 0.36002 0.14318 0.16102 0.0
N824 N 0.32868 0.1024 0.32559 0.0
N825 N 0.39454 0.16454 0.21571 0.0
H826 H 0.35583 0.1377 1.00559 0.0
H827 H 0.37559 0.16039 0.0371 0.0
H828 H 0.40559 0.17094 0.27161 0.0
H829 H 0.4029 0.1622 0.1471 0.0
H830 H 0.32793 0.09756 0.40056 0.0
H831 H 0.32371 0.08909 0.27592 0.0
H832 H 0.32414 0.12927 0.48267 0.0
H833 H 0.34549 0.1502 0.51622 0.0
C834 C 0.86233 0.37941 0.30237 0.0
C835 C 0.84177 0.36935 0.34567 0.0
C836 C 0.84393 0.33689 0.22482 0.0
C837 C 0.86594 0.34541 0.18885 0.0
N838 N 0.89814 0.37353 0.21336 0.0
N839 N 0.81763 0.33454 0.36607 0.0
C840 C 0.87575 0.36613 0.23293 0.0
C841 C 0.83394 0.3469 0.31223 0.0
N842 N 0.86939 0.40175 0.32656 0.0
N843 N 0.83165 0.32025 0.17237 0.0
H844 H 0.81103 0.34054 0.43402 0.0
H845 H 0.8129 0.3172 0.34924 0.0
H846 H 0.83718 0.31394 0.10319 0.0
H847 H 0.81457 0.31507 0.19125 0.0
H848 H 0.88444 0.40947 0.29562 0.0
H849 H 0.85955 0.41303 0.37172 0.0
H850 H 0.91027 0.3643 0.1698 0.0
H851 H 0.91027 0.3643 0.1698 0.0
C852 C 0.63391 0.85196 0.2726 0.0
C853 C 0.64654 0.83118 0.30041 0.0
C854 C 0.67794 0.842 0.18421 0.0
C855 C 0.66672 0.86385 0.16264 0.0
N856 N 0.63711 0.89226 0.21281 0.0
N857 N 0.68478 0.81236 0.30959 0.0
C858 C 0.64561 0.86969 0.21478 0.0
C859 C 0.66995 0.82825 0.26534 0.0
N860 N 0.61063 0.85457 0.29629 0.0
N861 N 0.69521 0.83327 0.12374 0.0
H862 H 0.68003 0.80276 0.37282 0.0
H863 H 0.70262 0.81106 0.29094 0.0
H864 H 0.70028 0.8415 0.058 0.0
H865 H 0.70235 0.81641 0.1327 0.0
H866 H 0.60025 0.86816 0.26732 0.0
H867 H 0.6011 0.84238 0.33803 0.0
H868 H 0.62301 0.89777 0.25698 0.0
H869 H 0.64575 0.90603 0.17636 0.0
C870 C 0.14338 0.63765 0.35542 0.0
C871 C 0.16566 0.64846 0.3719 0.0
C872 C 0.16148 0.66973 0.21336 0.0
C873 C 0.13792 0.66154 0.2035 0.0
N874 N 0.10466 0.64198 0.28152 0.0
N875 N 0.19306 0.67954 0.32649 0.0
C876 C 0.12834 0.64649 0.27853 0.0
C877 C 0.17384 0.66598 0.30416 0.0
N878 N 0.13629 0.6192 0.41395 0.0
N879 N 0.17248 0.68051 0.13484 0.0
H880 H 0.20225 0.67829 0.3934 0.0
H881 H 0.1982 0.69398 0.28335 0.0
H882 H 0.16439 0.68287 0.06579 0.0
H883 H 0.19041 0.68463 0.13479 0.0
H884 H 0.12144 0.60903 0.39786 0.0
H885 H 0.14611 0.61302 0.4744 0.0
H886 H 0.09658 0.6332 0.34076 0.0
H887 H 0.0926 0.64913 0.23113 0.0
C888 C 0.3594 0.87049 0.64945 0.0
C889 C 0.37468 0.85107 0.66803 0.0
C890 C 0.36919 0.85621 0.84779 0.0
C891 C 0.35068 0.8725 0.82824 0.0
N892 N 0.34216 0.90574 0.72057 0.0
N893 N 0.4055 0.83969 0.78336 0.0
C894 C 0.34981 0.88307 0.73199 0.0
C895 C 0.38325 0.84808 0.76696 0.0
N896 N 0.35466 0.87749 0.55403 0.0
N897 N 0.37385 0.84903 0.94307 0.0
H898 H 0.41741 0.83688 0.72523 0.0
H899 H 0.41306 0.83861 0.85419 0.0
H900 H 0.36621 0.85708 1.00519 0.0
H901 H 0.38519 0.83502 0.95935 0.0
H902 H 0.34124 0.88942 0.53659 0.0
H903 H 0.36429 0.87138 0.49293 0.0
H904 H 0.34316 0.91476 0.65288 0.0
H905 H 0.33818 0.91658 0.78107 0.0
C906 C 0.14166 0.33173 0.72769 0.0
C907 C 0.13346 0.33657 0.82588 0.0
C908 C 0.1505 0.37623 0.81697 0.0
C909 C 0.16127 0.37017 0.72492 0.0
N910 N 0.16039 0.34649 0.57661 0.0
N911 N 0.1232 0.36542 0.94972 0.0
C912 C 0.15444 0.34936 0.6746 0.0
C913 C 0.13554 0.35961 0.86568 0.0
N914 N 0.13809 0.30994 0.68713 0.0
N915 N 0.15529 0.39768 0.85853 0.0
H916 H 0.11157 0.35365 0.98384 0.0
H917 H 0.12278 0.38228 0.98049 0.0
H918 H 0.16384 0.41088 0.8182 0.0
H919 H 0.15084 0.40241 0.93116 0.0
H920 H 0.14606 0.30403 0.62179 0.0
H921 H 0.12732 0.29746 0.72093 0.0
H922 H 0.1546 0.33253 0.53247 0.0
H923 H 0.16936 0.35948 0.53666 0.0
C924 C 0.63254 0.14786 0.88745 0.0
C925 C 0.64799 0.13039 0.84928 0.0
C926 C 0.6251 0.12937 0.6935 0.0
C927 C 0.61298 0.14995 0.72528 0.0
N928 N 0.59628 0.16885 0.87057 0.0
N929 N 0.64893 0.09573 0.74581 0.0
C930 C 0.61386 0.15617 0.82741 0.0
C931 C 0.64125 0.11822 0.76101 0.0
N932 N 0.63507 0.15599 0.98272 0.0
N933 N 0.62099 0.1205 0.60044 0.0
H934 H 0.65674 0.0861 0.80332 0.0
H935 H 0.64454 0.08552 0.68404 0.0
H936 H 0.6094 0.12846 0.55009 0.0
H937 H 0.62903 0.10538 0.57276 0.0
H938 H 0.62431 0.16929 1.01191 0.0
H939 H 0.64739 0.14886 0.03235 0.0
H940 H 0.58097 0.17386 0.83251 0.0
H941 H 0.58097 0.17386 0.83251 0.0
C942 C 0.86469 0.64582 0.66845 0.0
C943 C 0.84686 0.62951 0.69678 0.0
C944 C 0.85921 0.63296 0.87105 0.0
C945 C 0.8742 0.65202 0.84421 0.0
N946 N 0.90232 0.66243 0.71615 0.0
N947 N 0.84078 0.5971 0.81156 0.0
C948 C 0.88055 0.65433 0.7423 0.0
C949 C 0.8481 0.61966 0.7942 0.0
N950 N 0.86687 0.65285 0.57144 0.0
N951 N 0.856 0.62717 0.96898 0.0
H952 H 0.83557 0.58588 0.75404 0.0
H953 H 0.84288 0.58868 0.88025 0.0
H954 H 0.86614 0.63456 0.02604 0.0
H955 H 0.8431 0.61527 0.99257 0.0
H956 H 0.87784 0.66674 0.54977 0.0
H957 H 0.85741 0.64498 0.51357 0.0
H958 H 0.90825 0.6626 0.64252 0.0
H959 H 0.91546 0.66572 0.76885 0.0
C960 C 0.29992 0.01855 0.92466 0.0
C961 C 0.29656 0.02929 0.01904 0.0
C962 C 0.30053 0.99072 0.10021 0.0
C963 C 0.29884 0.9797 1.00541 0.0
N964 N 0.29818 0.98271 0.8259 0.0
N965 N 0.29552 0.02642 0.19828 0.0
C966 C 0.29953 0.99349 0.91691 0.0
C967 C 0.29801 0.01566 0.10764 0.0
N968 N 0.30336 0.03254 0.84279 0.0
N969 N 0.30444 0.9771 0.18282 0.0
H970 H 0.29486 0.04472 0.20612 0.0
H971 H 0.29334 0.01735 0.26526 0.0
H972 H 0.30645 0.95883 0.1781 0.0
H973 H 0.30773 0.98388 0.25366 0.0
H974 H 0.30774 0.0261 0.77243 0.0
H975 H 0.30404 0.05091 0.84815 0.0
H976 H 0.29561 0.99172 0.75899 0.0
H977 H 0.29866 0.96444 0.81763 0.0
C978 C 0.0067 0.30412 0.09859 0.0
C979 C 0.01715 0.30183 1.00305 0.0
C980 C 0.97813 0.3052 0.92563 0.0
C981 C 0.96769 0.3019 0.02069 0.0
N982 N 0.97127 0.30035 0.19944 0.0
N983 N 0.01357 0.30248 0.82418 0.0
C984 C 0.98173 0.30261 0.10809 0.0
C985 C 0.00311 0.30366 0.91584 0.0
N986 N 0.02085 0.30757 0.1797 0.0
N987 N 0.96394 0.30959 0.84531 0.0
H988 H 0.03186 0.30235 0.81543 0.0
H989 H 0.00427 0.30091 0.75747 0.0
H990 H 0.94571 0.31142 0.85301 0.0
H991 H 0.9702 0.31365 0.7743 0.0
H992 H 0.01456 0.31095 0.25125 0.0
H993 H 0.03908 0.30936 0.17236 0.0
H994 H 0.98055 0.29783 0.2657 0.0
H995 H 0.95298 0.30023 0.20822 0.0
C996 C 0.72159 0.98541 0.91861 0.0
C997 C 0.7124 0.9731 1.00311 0.0
C998 C 0.69513 0.01029 0.0645 0.0
C999 C 0.70542 0.02235 0.98262 0.0
N1000 N 0.72045 0.02065 0.81575 0.0
N1001 N 0.68629 0.9728 0.14553 0.0
C1002 C 0.71585 0.00953 0.90415 0.0
C1003 C 0.69749 0.98516 0.07182 0.0
N1004 N 0.73699 0.9746 0.85483 0.0
N1005 N 0.68413 0.02308 0.13723 0.0
H1006 H 0.68841 0.95468 0.15566 0.0
H1007 H 0.6737 0.98011 0.19281 0.0
H1008 H 0.68086 0.04112 0.12933 0.0
H1009 H 0.67871 0.01612 0.2054 0.0
H1010 H 0.74651 0.98359 0.80025 0.0
H1011 H 0.74176 0.95696 0.86042 0.0
H1012 H 0.72598 0.01188 0.75155 0.0
H1013 H 0.71612 0.03832 0.80398 0.0
C1014 C 0.99521 0.70043 0.10715 0.0
C1015 C 0.98401 0.70158 1.01246 0.0
C1016 C 0.02265 0.69825 0.93107 0.0
C1017 C 0.03371 0.70208 0.02447 0.0
N1018 N 0.03129 0.70523 0.20298 0.0
N1019 N 0.98675 0.70059 0.83275 0.0
C1020 C 0.02023 0.70213 0.11335 0.0
C1021 C 0.9976 0.69957 0.92377 0.0
N1022 N 0.98172 0.69782 0.1909 0.0
N1023 N 0.03633 0.69349 0.84963 0.0
H1024 H 0.96849 0.70085 0.82458 0.0
H1025 H 0.99577 0.70222 0.76541 0.0
H1026 H 0.05465 0.69211 0.85497 0.0
H1027 H 0.0296 0.68868 0.78024 0.0
H1028 H 0.98861 0.6949 0.26193 0.0
H1029 H 0.96338 0.69653 0.18737 0.0
H1030 H 0.02244 0.7085 0.26962 0.0
H1031 H 0.04962 0.70535 0.20969 0.0
C1032 C 0.7802 0.48312 0.59984 0.0
C1033 C 0.78859 0.4717 0.51165 0.0
C1034 C 0.80232 0.51006 0.44769 0.0
C1035 C 0.79333 0.52112 0.53448 0.0
N1036 N 0.7817 0.51783 0.70577 0.0
N1037 N 0.81203 0.47361 0.36112 0.0
C1038 C 0.78512 0.50741 0.615 0.0
C1039 C 0.80143 0.48491 0.43927 0.0
N1040 N 0.76632 0.4713 0.66675 0.0
N1041 N 0.81068 0.52379 0.37171 0.0
H1042 H 0.81083 0.45546 0.34971 0.0
H1043 H 0.82336 0.48193 0.31112 0.0
H1044 H 0.81267 0.54203 0.37932 0.0
H1045 H 0.81487 0.51741 0.30108 0.0
H1046 H 0.75754 0.47957 0.7254 0.0
H1047 H 0.76174 0.45363 0.65979 0.0
H1048 H 0.77775 0.50844 0.77059 0.0
H1049 H 0.78554 0.53559 0.71796 0.0
C1050 C 0.49283 0.80986 0.42293 0.0
C1051 C 0.48089 0.80171 0.5091 0.0
C1052 C 0.51892 0.79724 0.59415 0.0
C1053 C 0.53062 0.79968 0.50099 0.0
N1054 N 0.52891 0.80939 0.32565 0.0
N1055 N 0.48225 0.78978 0.68169 0.0
C1056 C 0.51773 0.80686 0.41529 0.0
C1057 C 0.49383 0.79654 0.59705 0.0
N1058 N 0.48023 0.82086 0.34961 0.0
N1059 N 0.53197 0.7957 0.67972 0.0
H1060 H 0.464 0.7908 0.68847 0.0
H1061 H 0.4906 0.78258 0.74397 0.0
H1062 H 0.55034 0.79661 0.67907 0.0
H1063 H 0.52471 0.79588 0.7511 0.0
H1064 H 0.4879 0.8288 0.28743 0.0
H1065 H 0.46222 0.82428 0.35784 0.0
H1066 H 0.51999 0.81179 0.25838 0.0
H1067 H 0.54714 0.80789 0.31775 0.0
C1068 C 0.21039 0.4934 0.45013 0.0
C1069 C 0.20614 0.48198 0.54285 0.0
C1070 C 0.19498 0.52015 0.61528 0.0
C1071 C 0.20451 0.53167 0.5307 0.0
N1072 N 0.22054 0.52974 0.3647 0.0
N1073 N 0.19387 0.48441 0.71518 0.0
C1074 C 0.21156 0.51843 0.44637 0.0
C1075 C 0.19772 0.49523 0.62548 0.0
N1076 N 0.21318 0.4802 0.36567 0.0
N1077 N 0.18335 0.53316 0.68536 0.0
H1078 H 0.19542 0.46623 0.72525 0.0
H1079 H 0.19047 0.49359 0.78094 0.0
H1080 H 0.18077 0.55132 0.67683 0.0
H1081 H 0.17436 0.52576 0.74556 0.0
H1082 H 0.21434 0.48742 0.29429 0.0
H1083 H 0.21189 0.46184 0.3663 0.0
H1084 H 0.22896 0.52105 0.30621 0.0
H1085 H 0.22052 0.54808 0.35792 0.0
C1086 C 0.5058 0.20379 0.62099 0.0
C1087 C 0.52024 0.20415 0.53465 0.0
C1088 C 0.48522 0.20434 0.42676 0.0
C1089 C 0.47083 0.20598 0.51301 0.0
N1090 N 0.46626 0.20006 0.68956 0.0
N1091 N 0.52434 0.19714 0.35878 0.0
C1092 C 0.48082 0.20321 0.60945 0.0
C1093 C 0.51006 0.20178 0.43849 0.0
N1094 N 0.5159 0.20542 0.71339 0.0
N1095 N 0.47534 0.20673 0.33418 0.0
H1096 H 0.54249 0.19474 0.36705 0.0
H1097 H 0.51812 0.19341 0.28737 0.0
H1098 H 0.45717 0.20784 0.32304 0.0
H1099 H 0.48509 0.20864 0.26885 0.0
H1100 H 0.50642 0.20828 0.77879 0.0
H1101 H 0.5341 0.20471 0.72434 0.0
H1102 H 0.47218 0.19614 0.76127 0.0
H1103 H 0.44797 0.1992 0.6817 0.0
C1104 C 0.21368 0.20435 0.99289 0.0
C1105 C 0.20839 0.18148 0.03038 0.0
C1106 C 0.16624 0.191 0.027 0.0
C1107 C 0.17164 0.21471 1.00119 0.0
N1108 N 0.20109 0.24512 0.9792 0.0
N1109 N 0.18001 0.15525 0.10663 0.0
C1110 C 0.19556 0.22176 0.98966 0.0
C1111 C 0.18476 0.17547 0.05456 0.0
N1112 N 0.23569 0.20923 0.95671 0.0
N1113 N 0.14352 0.18298 0.02145 0.0
H1114 H 0.1932 0.1438 0.13161 0.0
H1115 H 0.16329 0.15121 0.13421 0.0
H1116 H 0.12951 0.1935 0.99726 0.0
H1117 H 0.13904 0.16526 0.03036 0.0
H1118 H 0.23975 0.22482 0.91908 0.0
H1119 H 0.24934 0.19686 0.95597 0.0
H1120 H 0.21837 0.2514 0.98072 0.0
H1121 H 0.1884 0.25847 0.97853 0.0
C1122 C 0.79142 0.22151 1.00185 0.0
C1123 C 0.81497 0.21433 0.02263 0.0
C1124 C 0.80365 0.17312 0.99512 0.0
C1125 C 0.7796 0.17992 0.98773 0.0
N1126 N 0.75006 0.21051 1.00117 0.0
N1127 N 0.84206 0.1827 0.06211 0.0
C1128 C 0.77329 0.20413 0.99569 0.0
C1129 C 0.82067 0.18993 0.02596 0.0
N1130 N 0.78647 0.24477 0.98431 0.0
N1131 N 0.8104 0.15073 0.96976 0.0
H1132 H 0.85471 0.19442 0.0895 0.0
H1133 H 0.84619 0.16501 0.07491 0.0
H1134 H 0.79857 0.13812 0.94295 0.0
H1135 H 0.82802 0.14555 0.96495 0.0
H1136 H 0.7701 0.25063 0.95875 0.0
H1137 H 0.79928 0.25798 0.98632 0.0
H1138 H 0.74457 0.22763 0.01764 0.0
H1139 H 0.73629 0.19833 0.99797 0.0
C1140 C 0.83356 0.80362 0.96817 0.0
C1141 C 0.8272 0.77976 0.98647 0.0
C1142 C 0.78604 0.79224 1.00891 0.0
C1143 C 0.79325 0.81628 1.00573 0.0
N1144 N 0.82543 0.84434 1.00805 0.0
N1145 N 0.79778 0.75188 0.0428 0.0
C1146 C 0.81748 0.82184 0.99276 0.0
C1147 C 0.80351 0.77415 1.01192 0.0
N1148 N 0.85469 0.80892 0.92437 0.0
N1149 N 0.76261 0.78658 1.00543 0.0
H1150 H 0.81013 0.73829 0.04857 0.0
H1151 H 0.78126 0.74755 0.07167 0.0
H1152 H 0.7493 0.79925 0.99996 0.0
H1153 H 0.75656 0.7693 0.99785 0.0
H1154 H 0.85916 0.82596 0.9017 0.0
H1155 H 0.86652 0.79599 0.90036 0.0
H1156 H 0.84331 0.84868 1.00814 0.0
H1157 H 0.8145 0.85804 0.03189 0.0
C1158 C 0.21227 0.77977 1.00176 0.0
C1159 C 0.18832 0.78699 1.01065 0.0
C1160 C 0.20012 0.82773 0.97598 0.0
C1161 C 0.22426 0.82119 0.98259 0.0
N1162 N 0.25329 0.79114 0.01959 0.0
N1163 N 0.1606 0.81911 0.03187 0.0
C1164 C 0.2304 0.79721 1.00027 0.0
C1165 C 0.18256 0.81136 1.00514 0.0
N1166 N 0.21772 0.75641 0.99111 0.0
N1167 N 0.19387 0.84938 0.93925 0.0
H1168 H 0.14754 0.80789 0.05949 0.0
H1169 H 0.15634 0.83697 0.03745 0.0
H1170 H 0.2062 0.8615 0.91237 0.0
H1171 H 0.1764 0.85411 0.92505 0.0
H1172 H 0.2347 0.75046 0.97473 0.0
H1173 H 0.20495 0.74316 0.98873 0.0
H1174 H 0.25827 0.7743 0.04296 0.0
H1175 H 0.267 0.80341 0.02125 0.0
C1176 C 0.68059 0.69324 0.50897 0.0
C1177 C 0.683 0.71546 0.55709 0.0
C1178 C 0.72321 0.70405 0.60627 0.0
C1179 C 0.71923 0.68071 0.57095 0.0
N1180 N 0.68972 0.65187 0.52308 0.0
N1181 N 0.70468 0.73843 0.679 0.0
C1182 C 0.69652 0.67487 0.53317 0.0
C1183 C 0.70374 0.71986 0.61424 0.0
N1184 N 0.66403 0.68979 0.43628 0.0
N1185 N 0.74549 0.71169 0.62775 0.0
H1186 H 0.69019 0.74931 0.69292 0.0
H1187 H 0.71887 0.74112 0.7273 0.0
H1188 H 0.76046 0.70135 0.61613 0.0
H1189 H 0.74917 0.7292 0.64612 0.0
H1190 H 0.66306 0.67416 0.39527 0.0
H1191 H 0.65345 0.70335 0.40835 0.0
H1192 H 0.67264 0.64713 0.50183 0.0
H1193 H 0.70007 0.63779 0.54789 0.0
C1194 C 0.32576 0.70084 0.55872 0.0
C1195 C 0.32076 0.72447 0.53017 0.0
C1196 C 0.27928 0.71337 0.50403 0.0
C1197 C 0.28526 0.68921 0.51858 0.0
N1198 N 0.31619 0.65988 0.5314 0.0
N1199 N 0.29335 0.75216 0.45618 0.0
C1200 C 0.30911 0.68291 0.5375 0.0
C1201 C 0.29765 0.7305 0.49733 0.0
N1202 N 0.34604 0.69554 0.60929 0.0
N1203 N 0.25615 0.72014 0.50024 0.0
H1204 H 0.30643 0.76494 0.44719 0.0
H1205 H 0.27737 0.75654 0.42223 0.0
H1206 H 0.24219 0.70827 0.50781 0.0
H1207 H 0.25089 0.73778 0.49942 0.0
H1208 H 0.3494 0.67883 0.63893 0.0
H1209 H 0.35814 0.70838 0.63166 0.0
H1210 H 0.33385 0.65481 0.53624 0.0
H1211 H 0.30489 0.64626 0.50987 0.0
C1212 C 0.32257 0.31182 0.48856 0.0
C1213 C 0.31535 0.28865 0.4618 0.0
C1214 C 0.27514 0.30384 0.43834 0.0
C1215 C 0.28163 0.32547 0.48483 0.0
N1216 N 0.31132 0.34661 0.57978 0.0
N1217 N 0.28288 0.26188 0.43021 0.0
C1218 C 0.30532 0.32855 0.51718 0.0
C1219 C 0.29108 0.28439 0.44157 0.0
N1220 N 0.34581 0.31812 0.48457 0.0
N1221 N 0.25425 0.30198 0.3881 0.0
H1222 H 0.29361 0.24703 0.43759 0.0
H1223 H 0.26495 0.25798 0.42415 0.0
H1224 H 0.24278 0.31621 0.37858 0.0
H1225 H 0.24974 0.28711 0.3464 0.0
H1226 H 0.35148 0.33541 0.49672 0.0
H1227 H 0.35889 0.30686 0.45742 0.0
H1228 H 0.32815 0.34821 0.61071 0.0
H1229 H 0.29895 0.35814 0.61053 0.0
C1230 C 0.68873 0.32049 0.51568 0.0
C1231 C 0.71285 0.31434 0.50411 0.0
C1232 C 0.70184 0.27244 0.51446 0.0
C1233 C 0.67842 0.27899 0.5407 0.0
N1234 N 0.65205 0.31001 0.59512 0.0
N1235 N 0.74297 0.28414 0.51382 0.0
C1236 C 0.67262 0.30327 0.55021 0.0
C1237 C 0.71966 0.29019 0.50947 0.0
N1238 N 0.68093 0.34254 0.49048 0.0
N1239 N 0.70699 0.24958 0.49036 0.0
H1240 H 0.75654 0.29657 0.51388 0.0
H1241 H 0.74869 0.26693 0.52735 0.0
H1242 H 0.69434 0.23622 0.4898 0.0
H1243 H 0.72328 0.24444 0.46153 0.0
H1244 H 0.66309 0.34709 0.49019 0.0
H1245 H 0.69189 0.35531 0.45876 0.0
H1246 H 0.64809 0.32761 0.61074 0.0
H1247 H 0.64035 0.29796 0.62712 0.0
loop_
_geom_bond_atom_site_label_1
_geom_bond_atom_site_label_2
_geom_bond_distance
_geom_bond_site_symmetry_2
_ccdc_geom_bond_type
C0 C1 1.351 . S
C0 N3 1.368 . S
C0 H5 0.931 . S
C1 C0 1.351 . S
C1 N2 1.373 . S
C1 H29 0.930 . S
N2 C1 1.373 . S
N2 C4 1.340 . S
N3 C0 1.368 . S
N3 C4 1.321 . S
N3 Co6 2.135 . S
C4 N2 1.340 . S
C4 N3 1.321 . S
C4 H28 0.930 . S
H5 C0 0.931 . S
Co6 N3 2.135 . S
Co6 N9 2.121 1_554 S
Co6 O14 2.055 . S
Co6 O17 2.039 . S
Co6 N20 2.140 . S
C7 O8 1.227 . S
C7 O17 1.265 . S
O8 C7 1.227 . S
N9 Co6 2.121 1_556 S
N9 C11 1.375 . S
N9 C12 1.313 . S
C10 C11 1.338 . S
C10 N13 1.377 . S
C10 H30 0.930 . S
C11 N9 1.375 . S
C11 C10 1.338 . S
C11 H15 0.931 . S
C12 N9 1.313 . S
C12 N13 1.344 . S
C12 H16 0.930 . S
N13 C10 1.377 . S
N13 C12 1.344 . S
O14 Co6 2.055 . S
O14 C18 1.253 . S
H15 C11 0.931 . S
H16 C12 0.930 . S
O17 Co6 2.039 . S
O17 C7 1.265 . S
C18 O14 1.253 . S
C18 O19 1.227 . S
O19 C18 1.227 . S
N20 Co6 2.140 . S
N20 C23 1.346 . S
N20 C24 1.345 . S
C21 C22 1.387 . S
C21 C25 1.391 1_554 S
C22 C21 1.387 . S
C22 C23 1.369 . S
C22 H31 0.929 . S
C23 N20 1.346 . S
C23 C22 1.369 . S
C23 H26 0.928 . S
C24 N20 1.345 . S
C24 C25 1.371 1_554 S
C24 H27 0.931 1_554 S
C25 C21 1.391 1_556 S
C25 C24 1.371 1_556 S
C25 H32 0.930 . S
H26 C23 0.928 . S
H27 C24 0.931 1_556 S
H28 C4 0.930 . S
H29 C1 0.930 . S
H30 C10 0.930 . S
H31 C22 0.929 . S
H32 C25 0.930 . S
C33 C34 1.351 . S
C33 N36 1.368 . S
C33 H38 0.931 . S
C34 C33 1.351 . S
C34 N35 1.373 . S
C34 H62 0.930 . S
N35 C34 1.373 . S
N35 C37 1.340 . S
N36 C33 1.368 . S
N36 C37 1.321 . S
N36 Co39 2.135 . S
C37 N35 1.340 . S
C37 N36 1.321 . S
C37 H61 0.930 . S
H38 C33 0.931 . S
Co39 N36 2.135 . S
Co39 N42 2.121 1_554 S
Co39 O47 2.055 . S
Co39 O50 2.039 . S
Co39 N53 2.140 . S
C40 O41 1.227 . S
C40 O50 1.265 . S
O41 C40 1.227 . S
N42 Co39 2.121 1_556 S
N42 C44 1.375 . S
N42 C45 1.313 . S
C43 C44 1.338 . S
C43 N46 1.377 . S
C43 H63 0.930 . S
C44 N42 1.375 . S
C44 C43 1.338 . S
C44 H48 0.931 . S
C45 N42 1.313 . S
C45 N46 1.344 . S
C45 H49 0.930 . S
N46 C43 1.377 . S
N46 C45 1.344 . S
O47 Co39 2.055 . S
O47 C51 1.253 . S
H48 C44 0.931 . S
H49 C45 0.930 . S
O50 Co39 2.039 . S
O50 C40 1.265 . S
C51 O47 1.253 . S
C51 O52 1.227 . S
O52 C51 1.227 . S
N53 Co39 2.140 . S
N53 C56 1.346 . S
N53 C57 1.345 . S
C54 C55 1.387 . S
C54 C58 1.391 1_554 S
C55 C54 1.387 . S
C55 C56 1.369 . S
C55 H64 0.929 . S
C56 N53 1.346 . S
C56 C55 1.369 . S
C56 H59 0.928 . S
C57 N53 1.345 . S
C57 C58 1.371 1_554 S
C57 H60 0.931 1_554 S
C58 C54 1.391 1_556 S
C58 C57 1.371 1_556 S
C58 H65 0.930 . S
H59 C56 0.928 . S
H60 C57 0.931 1_556 S
H61 C37 0.930 . S
H62 C34 0.930 . S
H63 C43 0.930 . S
H64 C55 0.929 . S
H65 C58 0.930 . S
C66 C67 1.351 . S
C66 N69 1.368 . S
C66 H71 0.931 . S
C67 C66 1.351 . S
C67 N68 1.373 . S
C67 H95 0.930 . S
N68 C67 1.373 . S
N68 C70 1.340 . S
N69 C66 1.368 . S
N69 C70 1.321 . S
N69 Co72 2.135 . S
C70 N68 1.340 . S
C70 N69 1.321 . S
C70 H94 0.930 . S
H71 C66 0.931 . S
Co72 N69 2.135 . S
Co72 N75 2.121 1_554 S
Co72 O80 2.055 . S
Co72 O83 2.039 . S
Co72 N86 2.140 . S
C73 O74 1.227 . S
C73 O83 1.265 . S
O74 C73 1.227 . S
N75 Co72 2.121 1_556 S
N75 C77 1.375 . S
N75 C78 1.313 . S
C76 C77 1.338 . S
C76 N79 1.377 . S
C76 H96 0.930 . S
C77 N75 1.375 . S
C77 C76 1.338 . S
C77 H81 0.931 . S
C78 N75 1.313 . S
C78 N79 1.344 . S
C78 H82 0.930 . S
N79 C76 1.377 . S
N79 C78 1.344 . S
O80 Co72 2.055 . S
O80 C84 1.253 . S
H81 C77 0.931 . S
H82 C78 0.930 . S
O83 Co72 2.039 . S
O83 C73 1.265 . S
C84 O80 1.253 . S
C84 O85 1.227 . S
O85 C84 1.227 . S
N86 Co72 2.140 . S
N86 C89 1.346 . S
N86 C90 1.345 . S
C87 C88 1.387 . S
C87 C91 1.391 1_554 S
C88 C87 1.387 . S
C88 C89 1.369 . S
C88 H97 0.929 . S
C89 N86 1.346 . S
C89 C88 1.369 . S
C89 H92 0.928 . S
C90 N86 1.345 . S
C90 C91 1.371 1_554 S
C90 H93 0.931 1_554 S
C91 C87 1.391 1_556 S
C91 C90 1.371 1_556 S
C91 H98 0.930 . S
H92 C89 0.928 . S
H93 C90 0.931 1_556 S
H94 C70 0.930 . S
H95 C67 0.930 . S
H96 C76 0.930 . S
H97 C88 0.929 . S
H98 C91 0.930 . S
C99 C100 1.351 . S
C99 N102 1.368 . S
C99 H104 0.931 . S
C100 C99 1.351 . S
C100 N101 1.373 . S
C100 H128 0.930 . S
N101 C100 1.373 . S
N101 C103 1.340 . S
N102 C99 1.368 . S
N102 C103 1.321 . S
N102 Co105 2.135 . S
C103 N101 1.340 . S
C103 N102 1.321 . S
C103 H127 0.930 . S
H104 C99 0.931 . S
Co105 N102 2.135 . S
Co105 N108 2.121 1_554 S
Co105 O113 2.055 . S
Co105 O116 2.039 . S
Co105 N119 2.140 . S
C106 O107 1.227 . S
C106 O116 1.265 . S
O107 C106 1.227 . S
N108 Co105 2.121 1_556 S
N108 C110 1.375 . S
N108 C111 1.313 . S
C109 C110 1.338 . S
C109 N112 1.377 . S
C109 H129 0.930 . S
C110 N108 1.375 . S
C110 C109 1.338 . S
C110 H114 0.931 . S
C111 N108 1.313 . S
C111 N112 1.344 . S
C111 H115 0.930 . S
N112 C109 1.377 . S
N112 C111 1.344 . S
O113 Co105 2.055 . S
O113 C117 1.253 . S
H114 C110 0.931 . S
H115 C111 0.930 . S
O116 Co105 2.039 . S
O116 C106 1.265 . S
C117 O113 1.253 . S
C117 O118 1.227 . S
O118 C117 1.227 . S
N119 Co105 2.140 . S
N119 C122 1.346 . S
N119 C123 1.345 . S
C120 C121 1.387 . S
C120 C124 1.391 1_554 S
C121 C120 1.387 . S
C121 C122 1.369 . S
C121 H130 0.929 . S
C122 N119 1.346 . S
C122 C121 1.369 . S
C122 H125 0.928 . S
C123 N119 1.345 . S
C123 C124 1.371 1_554 S
C123 H126 0.931 1_554 S
C124 C120 1.391 1_556 S
C124 C123 1.371 1_556 S
C124 H131 0.930 . S
H125 C122 0.928 . S
H126 C123 0.931 1_556 S
H127 C103 0.930 . S
H128 C100 0.930 . S
H129 C109 0.930 . S
H130 C121 0.929 . S
H131 C124 0.930 . S
C132 C133 1.351 . S
C132 N135 1.368 . S
C132 H137 0.931 . S
C133 C132 1.351 . S
C133 N134 1.373 . S
C133 H161 0.930 . S
N134 C133 1.373 . S
N134 C136 1.340 . S
N135 C132 1.368 . S
N135 C136 1.321 . S
N135 Co138 2.135 . S
C136 N134 1.340 . S
C136 N135 1.321 . S
C136 H160 0.930 . S
H137 C132 0.931 . S
Co138 N135 2.135 . S
Co138 N141 2.121 1_556 S
Co138 O146 2.055 . S
Co138 O149 2.039 . S
Co138 N152 2.140 . S
C139 O140 1.227 . S
C139 O149 1.265 . S
O140 C139 1.227 . S
N141 Co138 2.121 1_554 S
N141 C143 1.375 . S
N141 C144 1.313 . S
C142 C143 1.338 . S
C142 N145 1.377 . S
C142 H162 0.930 . S
C143 N141 1.375 . S
C143 C142 1.338 . S
C143 H147 0.931 . S
C144 N141 1.313 . S
C144 N145 1.344 . S
C144 H148 0.930 . S
N145 C142 1.377 . S
N145 C144 1.344 . S
O146 Co138 2.055 . S
O146 C150 1.253 . S
H147 C143 0.931 . S
H148 C144 0.930 . S
O149 Co138 2.039 . S
O149 C139 1.265 . S
C150 O146 1.253 . S
C150 O151 1.227 . S
O151 C150 1.227 . S
N152 Co138 2.140 . S
N152 C155 1.346 . S
N152 C156 1.345 . S
C153 C154 1.387 . S
C153 C157 1.391 1_556 S
C154 C153 1.387 . S
C154 C155 1.369 . S
C154 H163 0.929 . S
C155 N152 1.346 . S
C155 C154 1.369 . S
C155 H158 0.928 . S
C156 N152 1.345 . S
C156 C157 1.371 1_556 S
C156 H159 0.931 1_556 S
C157 C153 1.391 1_554 S
C157 C156 1.371 1_554 S
C157 H164 0.930 . S
H158 C155 0.928 . S
H159 C156 0.931 1_554 S
H160 C136 0.930 . S
H161 C133 0.930 . S
H162 C142 0.930 . S
H163 C154 0.929 . S
H164 C157 0.930 . S
C165 C166 1.351 . S
C165 N168 1.368 . S
C165 H170 0.931 . S
C166 C165 1.351 . S
C166 N167 1.373 . S
C166 H194 0.930 . S
N167 C166 1.373 . S
N167 C169 1.340 . S
N168 C165 1.368 . S
N168 C169 1.321 . S
N168 Co171 2.135 . S
C169 N167 1.340 . S
C169 N168 1.321 . S
C169 H193 0.930 . S
H170 C165 0.931 . S
Co171 N168 2.135 . S
Co171 N174 2.121 1_556 S
Co171 O179 2.055 . S
Co171 O182 2.039 . S
Co171 N185 2.140 . S
C172 O173 1.227 . S
C172 O182 1.265 . S
O173 C172 1.227 . S
N174 Co171 2.121 1_554 S
N174 C176 1.375 . S
N174 C177 1.313 . S
C175 C176 1.338 . S
C175 N178 1.377 . S
C175 H195 0.930 . S
C176 N174 1.375 . S
C176 C175 1.338 . S
C176 H180 0.931 . S
C177 N174 1.313 . S
C177 N178 1.344 . S
C177 H181 0.930 . S
N178 C175 1.377 . S
N178 C177 1.344 . S
O179 Co171 2.055 . S
O179 C183 1.253 . S
H180 C176 0.931 . S
H181 C177 0.930 . S
O182 Co171 2.039 . S
O182 C172 1.265 . S
C183 O179 1.253 . S
C183 O184 1.227 . S
O184 C183 1.227 . S
N185 Co171 2.140 . S
N185 C188 1.346 . S
N185 C189 1.345 . S
C186 C187 1.387 . S
C186 C190 1.391 1_556 S
C187 C186 1.387 . S
C187 C188 1.369 . S
C187 H196 0.929 . S
C188 N185 1.346 . S
C188 C187 1.369 . S
C188 H191 0.928 . S
C189 N185 1.345 . S
C189 C190 1.371 1_556 S
C189 H192 0.931 1_556 S
C190 C186 1.391 1_554 S
C190 C189 1.371 1_554 S
C190 H197 0.930 . S
H191 C188 0.928 . S
H192 C189 0.931 1_554 S
H193 C169 0.930 . S
H194 C166 0.930 . S
H195 C175 0.930 . S
H196 C187 0.929 . S
H197 C190 0.930 . S
C198 C199 1.351 . S
C198 N201 1.368 . S
C198 H203 0.931 . S
C199 C198 1.351 . S
C199 N200 1.373 . S
C199 H227 0.930 . S
N200 C199 1.373 . S
N200 C202 1.340 . S
N201 C198 1.368 . S
N201 C202 1.321 . S
N201 Co204 2.135 . S
C202 N200 1.340 . S
C202 N201 1.321 . S
C202 H226 0.930 . S
H203 C198 0.931 . S
Co204 N201 2.135 . S
Co204 N207 2.121 1_556 S
Co204 O212 2.055 . S
Co204 O215 2.039 . S
Co204 N218 2.140 . S
C205 O206 1.227 . S
C205 O215 1.265 . S
O206 C205 1.227 . S
N207 Co204 2.121 1_554 S
N207 C209 1.375 . S
N207 C210 1.313 . S
C208 C209 1.338 . S
C208 N211 1.377 . S
C208 H228 0.930 . S
C209 N207 1.375 . S
C209 C208 1.338 . S
C209 H213 0.931 . S
C210 N207 1.313 . S
C210 N211 1.344 . S
C210 H214 0.930 . S
N211 C208 1.377 . S
N211 C210 1.344 . S
O212 Co204 2.055 . S
O212 C216 1.253 . S
H213 C209 0.931 . S
H214 C210 0.930 . S
O215 Co204 2.039 . S
O215 C205 1.265 . S
C216 O212 1.253 . S
C216 O217 1.227 . S
O217 C216 1.227 . S
N218 Co204 2.140 . S
N218 C221 1.346 . S
N218 C222 1.345 . S
C219 C220 1.387 . S
C219 C223 1.391 1_556 S
C220 C219 1.387 . S
C220 C221 1.369 . S
C220 H229 0.929 . S
C221 N218 1.346 . S
C221 C220 1.369 . S
C221 H224 0.928 . S
C222 N218 1.345 . S
C222 C223 1.371 1_556 S
C222 H225 0.931 1_556 S
C223 C219 1.391 1_554 S
C223 C222 1.371 1_554 S
C223 H230 0.930 . S
H224 C221 0.928 . S
H225 C222 0.931 1_554 S
H226 C202 0.930 . S
H227 C199 0.930 . S
H228 C208 0.930 . S
H229 C220 0.929 . S
H230 C223 0.930 . S
C231 C232 1.351 . S
C231 N234 1.368 . S
C231 H236 0.931 . S
C232 C231 1.351 . S
C232 N233 1.373 . S
C232 H260 0.930 . S
N233 C232 1.373 . S
N233 C235 1.340 . S
N234 C231 1.368 . S
N234 C235 1.321 . S
N234 Co237 2.135 . S
C235 N233 1.340 . S
C235 N234 1.321 . S
C235 H259 0.930 . S
H236 C231 0.931 . S
Co237 N234 2.135 . S
Co237 N240 2.121 1_556 S
Co237 O245 2.055 . S
Co237 O248 2.039 . S
Co237 N251 2.140 . S
C238 O239 1.227 . S
C238 O248 1.265 . S
O239 C238 1.227 . S
N240 Co237 2.121 1_554 S
N240 C242 1.375 . S
N240 C243 1.313 . S
C241 C242 1.338 . S
C241 N244 1.377 . S
C241 H261 0.930 . S
C242 N240 1.375 . S
C242 C241 1.338 . S
C242 H246 0.931 . S
C243 N240 1.313 . S
C243 N244 1.344 . S
C243 H247 0.930 . S
N244 C241 1.377 . S
N244 C243 1.344 . S
O245 Co237 2.055 . S
O245 C249 1.253 . S
H246 C242 0.931 . S
H247 C243 0.930 . S
O248 Co237 2.039 . S
O248 C238 1.265 . S
C249 O245 1.253 . S
C249 O250 1.227 . S
O250 C249 1.227 . S
N251 Co237 2.140 . S
N251 C254 1.346 . S
N251 C255 1.345 . S
C252 C253 1.387 . S
C252 C256 1.391 1_556 S
C253 C252 1.387 . S
C253 C254 1.369 . S
C253 H262 0.929 . S
C254 N251 1.346 . S
C254 C253 1.369 . S
C254 H257 0.928 . S
C255 N251 1.345 . S
C255 C256 1.371 1_556 S
C255 H258 0.931 1_556 S
C256 C252 1.391 1_554 S
C256 C255 1.371 1_554 S
C256 H263 0.930 . S
H257 C254 0.928 . S
H258 C255 0.931 1_554 S
H259 C235 0.930 . S
H260 C232 0.930 . S
H261 C241 0.930 . S
H262 C253 0.929 . S
H263 C256 0.930 . S
C264 C265 1.351 . S
C264 N267 1.368 . S
C264 H269 0.931 . S
C265 C264 1.351 . S
C265 N266 1.373 . S
C265 H293 0.930 . S
N266 C265 1.373 . S
N266 C268 1.340 . S
N267 C264 1.368 . S
N267 C268 1.321 . S
N267 Co270 2.135 . S
C268 N266 1.340 . S
C268 N267 1.321 . S
C268 H292 0.930 . S
H269 C264 0.931 . S
Co270 N267 2.135 . S
Co270 N273 2.121 . S
Co270 O278 2.055 . S
Co270 O281 2.039 . S
Co270 N284 2.140 . S
C271 O272 1.227 . S
C271 O281 1.265 . S
O272 C271 1.227 . S
N273 Co270 2.121 . S
N273 C275 1.375 . S
N273 C276 1.313 . S
C274 C275 1.338 . S
C274 N277 1.377 . S
C274 H294 0.930 . S
C275 N273 1.375 . S
C275 C274 1.338 . S
C275 H279 0.931 . S
C276 N273 1.313 . S
C276 N277 1.344 . S
C276 H280 0.930 . S
N277 C274 1.377 . S
N277 C276 1.344 . S
O278 Co270 2.055 . S
O278 C282 1.253 . S
H279 C275 0.931 . S
H280 C276 0.930 . S
O281 Co270 2.039 . S
O281 C271 1.265 . S
C282 O278 1.253 . S
C282 O283 1.227 . S
O283 C282 1.227 . S
N284 Co270 2.140 . S
N284 C287 1.346 . S
N284 C288 1.345 . S
C285 C286 1.387 . S
C285 C289 1.391 . S
C286 C285 1.387 . S
C286 C287 1.369 . S
C286 H295 0.929 . S
C287 N284 1.346 . S
C287 C286 1.369 . S
C287 H290 0.928 . S
C288 N284 1.345 . S
C288 C289 1.371 . S
C288 H291 0.931 . S
C289 C285 1.391 . S
C289 C288 1.371 . S
C289 H296 0.930 . S
H290 C287 0.928 . S
H291 C288 0.931 . S
H292 C268 0.930 . S
H293 C265 0.930 . S
H294 C274 0.930 . S
H295 C286 0.929 . S
H296 C289 0.930 . S
C297 C298 1.351 . S
C297 N300 1.368 . S
C297 H302 0.931 . S
C298 C297 1.351 . S
C298 N299 1.373 . S
C298 H326 0.930 . S
N299 C298 1.373 . S
N299 C301 1.340 . S
N300 C297 1.368 . S
N300 C301 1.321 . S
N300 Co303 2.135 . S
C301 N299 1.340 . S
C301 N300 1.321 . S
C301 H325 0.930 . S
H302 C297 0.931 . S
Co303 N300 2.135 . S
Co303 N306 2.121 . S
Co303 O311 2.055 . S
Co303 O314 2.039 . S
Co303 N317 2.140 . S
C304 O305 1.227 . S
C304 O314 1.265 . S
O305 C304 1.227 . S
N306 Co303 2.121 . S
N306 C308 1.375 . S
N306 C309 1.313 . S
C307 C308 1.338 . S
C307 N310 1.377 . S
C307 H327 0.930 . S
C308 N306 1.375 . S
C308 C307 1.338 . S
C308 H312 0.931 . S
C309 N306 1.313 . S
C309 N310 1.344 . S
C309 H313 0.930 . S
N310 C307 1.377 . S
N310 C309 1.344 . S
O311 Co303 2.055 . S
O311 C315 1.253 . S
H312 C308 0.931 . S
H313 C309 0.930 . S
O314 Co303 2.039 . S
O314 C304 1.265 . S
C315 O311 1.253 . S
C315 O316 1.227 . S
O316 C315 1.227 . S
N317 Co303 2.140 . S
N317 C320 1.346 . S
N317 C321 1.345 . S
C318 C319 1.387 . S
C318 C322 1.391 . S
C319 C318 1.387 . S
C319 C320 1.369 . S
C319 H328 0.929 . S
C320 N317 1.346 . S
C320 C319 1.369 . S
C320 H323 0.928 . S
C321 N317 1.345 . S
C321 C322 1.371 . S
C321 H324 0.931 . S
C322 C318 1.391 . S
C322 C321 1.371 . S
C322 H329 0.930 . S
H323 C320 0.928 . S
H324 C321 0.931 . S
H325 C301 0.930 . S
H326 C298 0.930 . S
H327 C307 0.930 . S
H328 C319 0.929 . S
H329 C322 0.930 . S
C330 C331 1.351 . S
C330 N333 1.368 . S
C330 H335 0.931 . S
C331 C330 1.351 . S
C331 N332 1.373 . S
C331 H359 0.930 . S
N332 C331 1.373 . S
N332 C334 1.340 . S
N333 C330 1.368 . S
N333 C334 1.321 . S
N333 Co336 2.135 . S
C334 N332 1.340 . S
C334 N333 1.321 . S
C334 H358 0.930 . S
H335 C330 0.931 . S
Co336 N333 2.135 . S
Co336 N339 2.121 . S
Co336 O344 2.055 . S
Co336 O347 2.039 . S
Co336 N350 2.140 . S
C337 O338 1.227 . S
C337 O347 1.265 . S
O338 C337 1.227 . S
N339 Co336 2.121 . S
N339 C341 1.375 . S
N339 C342 1.313 . S
C340 C341 1.338 . S
C340 N343 1.377 . S
C340 H360 0.930 . S
C341 N339 1.375 . S
C341 C340 1.338 . S
C341 H345 0.931 . S
C342 N339 1.313 . S
C342 N343 1.344 . S
C342 H346 0.930 . S
N343 C340 1.377 . S
N343 C342 1.344 . S
O344 Co336 2.055 . S
O344 C348 1.253 . S
H345 C341 0.931 . S
H346 C342 0.930 . S
O347 Co336 2.039 . S
O347 C337 1.265 . S
C348 O344 1.253 . S
C348 O349 1.227 . S
O349 C348 1.227 . S
N350 Co336 2.140 . S
N350 C353 1.346 . S
N350 C354 1.345 . S
C351 C352 1.387 . S
C351 C355 1.391 . S
C352 C351 1.387 . S
C352 C353 1.369 . S
C352 H361 0.929 . S
C353 N350 1.346 . S
C353 C352 1.369 . S
C353 H356 0.928 . S
C354 N350 1.345 . S
C354 C355 1.371 . S
C354 H357 0.931 . S
C355 C351 1.391 . S
C355 C354 1.371 . S
C355 H362 0.930 . S
H356 C353 0.928 . S
H357 C354 0.931 . S
H358 C334 0.930 . S
H359 C331 0.930 . S
H360 C340 0.930 . S
H361 C352 0.929 . S
H362 C355 0.930 . S
C363 C364 1.351 . S
C363 N366 1.368 . S
C363 H368 0.931 . S
C364 C363 1.351 . S
C364 N365 1.373 . S
C364 H392 0.930 . S
N365 C364 1.373 . S
N365 C367 1.340 . S
N366 C363 1.368 . S
N366 C367 1.321 . S
N366 Co369 2.135 . S
C367 N365 1.340 . S
C367 N366 1.321 . S
C367 H391 0.930 . S
H368 C363 0.931 . S
Co369 N366 2.135 . S
Co369 N372 2.121 . S
Co369 O377 2.055 . S
Co369 O380 2.039 . S
Co369 N383 2.140 . S
C370 O371 1.227 . S
C370 O380 1.265 . S
O371 C370 1.227 . S
N372 Co369 2.121 . S
N372 C374 1.375 . S
N372 C375 1.313 . S
C373 C374 1.338 . S
C373 N376 1.377 . S
C373 H393 0.930 . S
C374 N372 1.375 . S
C374 C373 1.338 . S
C374 H378 0.931 . S
C375 N372 1.313 . S
C375 N376 1.344 . S
C375 H379 0.930 . S
N376 C373 1.377 . S
N376 C375 1.344 . S
O377 Co369 2.055 . S
O377 C381 1.253 . S
H378 C374 0.931 . S
H379 C375 0.930 . S
O380 Co369 2.039 . S
O380 C370 1.265 . S
C381 O377 1.253 . S
C381 O382 1.227 . S
O382 C381 1.227 . S
N383 Co369 2.140 . S
N383 C386 1.346 . S
N383 C387 1.345 . S
C384 C385 1.387 . S
C384 C388 1.391 . S
C385 C384 1.387 . S
C385 C386 1.369 . S
C385 H394 0.929 . S
C386 N383 1.346 . S
C386 C385 1.369 . S
C386 H389 0.928 . S
C387 N383 1.345 . S
C387 C388 1.371 . S
C387 H390 0.931 . S
C388 C384 1.391 . S
C388 C387 1.371 . S
C388 H395 0.930 . S
H389 C386 0.928 . S
H390 C387 0.931 . S
H391 C367 0.930 . S
H392 C364 0.930 . S
H393 C373 0.930 . S
H394 C385 0.929 . S
H395 C388 0.930 . S
C396 C397 1.351 . S
C396 N399 1.368 . S
C396 H401 0.931 . S
C397 C396 1.351 . S
C397 N398 1.373 . S
C397 H425 0.930 . S
N398 C397 1.373 . S
N398 C400 1.340 . S
N399 C396 1.368 . S
N399 C400 1.321 . S
N399 Co402 2.135 . S
C400 N398 1.340 . S
C400 N399 1.321 . S
C400 H424 0.930 . S
H401 C396 0.931 . S
Co402 N399 2.135 . S
Co402 N405 2.121 . S
Co402 O410 2.055 . S
Co402 O413 2.039 . S
Co402 N416 2.140 . S
C403 O404 1.227 . S
C403 O413 1.265 . S
O404 C403 1.227 . S
N405 Co402 2.121 . S
N405 C407 1.375 . S
N405 C408 1.313 . S
C406 C407 1.338 . S
C406 N409 1.377 . S
C406 H426 0.930 . S
C407 N405 1.375 . S
C407 C406 1.338 . S
C407 H411 0.931 . S
C408 N405 1.313 . S
C408 N409 1.344 . S
C408 H412 0.930 . S
N409 C406 1.377 . S
N409 C408 1.344 . S
O410 Co402 2.055 . S
O410 C414 1.253 . S
H411 C407 0.931 . S
H412 C408 0.930 . S
O413 Co402 2.039 . S
O413 C403 1.265 . S
C414 O410 1.253 . S
C414 O415 1.227 . S
O415 C414 1.227 . S
N416 Co402 2.140 . S
N416 C419 1.346 . S
N416 C420 1.345 . S
C417 C418 1.387 . S
C417 C421 1.391 . S
C418 C417 1.387 . S
C418 C419 1.369 . S
C418 H427 0.929 . S
C419 N416 1.346 . S
C419 C418 1.369 . S
C419 H422 0.928 . S
C420 N416 1.345 . S
C420 C421 1.371 . S
C420 H423 0.931 . S
C421 C417 1.391 . S
C421 C420 1.371 . S
C421 H428 0.930 . S
H422 C419 0.928 . S
H423 C420 0.931 . S
H424 C400 0.930 . S
H425 C397 0.930 . S
H426 C406 0.930 . S
H427 C418 0.929 . S
H428 C421 0.930 . S
C429 C430 1.351 . S
C429 N432 1.368 . S
C429 H434 0.931 . S
C430 C429 1.351 . S
C430 N431 1.373 . S
C430 H458 0.930 . S
N431 C430 1.373 . S
N431 C433 1.340 . S
N432 C429 1.368 . S
N432 C433 1.321 . S
N432 Co435 2.135 . S
C433 N431 1.340 . S
C433 N432 1.321 . S
C433 H457 0.930 . S
H434 C429 0.931 . S
Co435 N432 2.135 . S
Co435 N438 2.121 . S
Co435 O443 2.055 . S
Co435 O446 2.039 . S
Co435 N449 2.140 . S
C436 O437 1.227 . S
C436 O446 1.265 . S
O437 C436 1.227 . S
N438 Co435 2.121 . S
N438 C440 1.375 . S
N438 C441 1.313 . S
C439 C440 1.338 . S
C439 N442 1.377 . S
C439 H459 0.930 . S
C440 N438 1.375 . S
C440 C439 1.338 . S
C440 H444 0.931 . S
C441 N438 1.313 . S
C441 N442 1.344 . S
C441 H445 0.930 . S
N442 C439 1.377 . S
N442 C441 1.344 . S
O443 Co435 2.055 . S
O443 C447 1.253 . S
H444 C440 0.931 . S
H445 C441 0.930 . S
O446 Co435 2.039 . S
O446 C436 1.265 . S
C447 O443 1.253 . S
C447 O448 1.227 . S
O448 C447 1.227 . S
N449 Co435 2.140 . S
N449 C452 1.346 . S
N449 C453 1.345 . S
C450 C451 1.387 . S
C450 C454 1.391 . S
C451 C450 1.387 . S
C451 C452 1.369 . S
C451 H460 0.929 . S
C452 N449 1.346 . S
C452 C451 1.369 . S
C452 H455 0.928 . S
C453 N449 1.345 . S
C453 C454 1.371 . S
C453 H456 0.931 . S
C454 C450 1.391 . S
C454 C453 1.371 . S
C454 H461 0.930 . S
H455 C452 0.928 . S
H456 C453 0.931 . S
H457 C433 0.930 . S
H458 C430 0.930 . S
H459 C439 0.930 . S
H460 C451 0.929 . S
H461 C454 0.930 . S
C462 C463 1.351 . S
C462 N465 1.368 . S
C462 H467 0.931 . S
C463 C462 1.351 . S
C463 N464 1.373 . S
C463 H491 0.930 . S
N464 C463 1.373 . S
N464 C466 1.340 . S
N465 C462 1.368 . S
N465 C466 1.321 . S
N465 Co468 2.135 . S
C466 N464 1.340 . S
C466 N465 1.321 . S
C466 H490 0.930 . S
H467 C462 0.931 . S
Co468 N465 2.135 . S
Co468 N471 2.121 . S
Co468 O476 2.055 . S
Co468 O479 2.039 . S
Co468 N482 2.140 . S
C469 O470 1.227 . S
C469 O479 1.265 . S
O470 C469 1.227 . S
N471 Co468 2.121 . S
N471 C473 1.375 . S
N471 C474 1.313 . S
C472 C473 1.338 . S
C472 N475 1.377 . S
C472 H492 0.930 . S
C473 N471 1.375 . S
C473 C472 1.338 . S
C473 H477 0.931 . S
C474 N471 1.313 . S
C474 N475 1.344 . S
C474 H478 0.930 . S
N475 C472 1.377 . S
N475 C474 1.344 . S
O476 Co468 2.055 . S
O476 C480 1.253 . S
H477 C473 0.931 . S
H478 C474 0.930 . S
O479 Co468 2.039 . S
O479 C469 1.265 . S
C480 O476 1.253 . S
C480 O481 1.227 . S
O481 C480 1.227 . S
N482 Co468 2.140 . S
N482 C485 1.346 . S
N482 C486 1.345 . S
C483 C484 1.387 . S
C483 C487 1.391 . S
C484 C483 1.387 . S
C484 C485 1.369 . S
C484 H493 0.929 . S
C485 N482 1.346 . S
C485 C484 1.369 . S
C485 H488 0.928 . S
C486 N482 1.345 . S
C486 C487 1.371 . S
C486 H489 0.931 . S
C487 C483 1.391 . S
C487 C486 1.371 . S
C487 H494 0.930 . S
H488 C485 0.928 . S
H489 C486 0.931 . S
H490 C466 0.930 . S
H491 C463 0.930 . S
H492 C472 0.930 . S
H493 C484 0.929 . S
H494 C487 0.930 . S
C495 C496 1.351 . S
C495 N498 1.368 . S
C495 H500 0.931 . S
C496 C495 1.351 . S
C496 N497 1.373 . S
C496 H524 0.930 . S
N497 C496 1.373 . S
N497 C499 1.340 . S
N498 C495 1.368 . S
N498 C499 1.321 . S
N498 Co501 2.135 . S
C499 N497 1.340 . S
C499 N498 1.321 . S
C499 H523 0.930 . S
H500 C495 0.931 . S
Co501 N498 2.135 . S
Co501 N504 2.121 . S
Co501 O509 2.055 . S
Co501 O512 2.039 . S
Co501 N515 2.140 . S
C502 O503 1.227 . S
C502 O512 1.265 . S
O503 C502 1.227 . S
N504 Co501 2.121 . S
N504 C506 1.375 . S
N504 C507 1.313 . S
C505 C506 1.338 . S
C505 N508 1.377 . S
C505 H525 0.930 . S
C506 N504 1.375 . S
C506 C505 1.338 . S
C506 H510 0.931 . S
C507 N504 1.313 . S
C507 N508 1.344 . S
C507 H511 0.930 . S
N508 C505 1.377 . S
N508 C507 1.344 . S
O509 Co501 2.055 . S
O509 C513 1.253 . S
H510 C506 0.931 . S
H511 C507 0.930 . S
O512 Co501 2.039 . S
O512 C502 1.265 . S
C513 O509 1.253 . S
C513 O514 1.227 . S
O514 C513 1.227 . S
N515 Co501 2.140 . S
N515 C518 1.346 . S
N515 C519 1.345 . S
C516 C517 1.387 . S
C516 C520 1.391 . S
C517 C516 1.387 . S
C517 C518 1.369 . S
C517 H526 0.929 . S
C518 N515 1.346 . S
C518 C517 1.369 . S
C518 H521 0.928 . S
C519 N515 1.345 . S
C519 C520 1.371 . S
C519 H522 0.931 . S
C520 C516 1.391 . S
C520 C519 1.371 . S
C520 H527 0.930 . S
H521 C518 0.928 . S
H522 C519 0.931 . S
H523 C499 0.930 . S
H524 C496 0.930 . S
H525 C505 0.930 . S
H526 C517 0.929 . S
H527 C520 0.930 . S
C528 C529 1.363 . S
C528 C534 1.379 . S
C528 N536 1.356 . S
C529 C528 1.363 . S
C529 C535 1.363 . S
C530 C531 1.363 . S
C530 C535 1.379 . S
C530 N537 1.356 . S
C531 C530 1.363 . S
C531 C534 1.363 . S
N532 C534 1.356 . S
N532 H544 0.984 . S
N532 H545 0.985 . S
N533 C535 1.356 . S
N533 H538 0.984 . S
N533 H539 0.985 . S
C534 C528 1.379 . S
C534 C531 1.363 . S
C534 N532 1.356 . S
C535 C529 1.363 . S
C535 C530 1.379 . S
C535 N533 1.356 . S
N536 C528 1.356 . S
N536 H542 0.984 . S
N536 H543 0.984 . S
N537 C530 1.356 . S
N537 H540 0.984 . S
N537 H541 0.985 . S
H538 N533 0.984 . S
H539 N533 0.985 . S
H540 N537 0.984 . S
H541 N537 0.985 . S
H542 N536 0.984 . S
H543 N536 0.984 . S
H544 N532 0.984 . S
H545 N532 0.985 . S
C546 C547 1.363 . S
C546 C552 1.379 . S
C546 N554 1.356 . S
C547 C546 1.363 . S
C547 C553 1.363 . S
C548 C549 1.363 . S
C548 C553 1.379 . S
C548 N555 1.356 . S
C549 C548 1.363 . S
C549 C552 1.363 . S
N550 C552 1.356 . S
N550 H562 0.984 . S
N550 H563 0.985 . S
N551 C553 1.356 . S
N551 H556 0.984 . S
N551 H557 0.985 . S
C552 C546 1.379 . S
C552 C549 1.363 . S
C552 N550 1.356 . S
C553 C547 1.363 . S
C553 C548 1.379 . S
C553 N551 1.356 . S
N554 C546 1.356 . S
N554 H560 0.984 . S
N554 H561 0.984 . S
N555 C548 1.356 . S
N555 H558 0.984 . S
N555 H559 0.985 . S
H556 N551 0.984 . S
H557 N551 0.985 . S
H558 N555 0.984 . S
H559 N555 0.985 . S
H560 N554 0.984 . S
H561 N554 0.984 . S
H562 N550 0.984 . S
H563 N550 0.985 . S
C564 C565 1.363 . S
C564 C570 1.379 . S
C564 N572 1.356 . S
C565 C564 1.363 . S
C565 C571 1.363 . S
C566 C567 1.363 . S
C566 C571 1.379 . S
C566 N573 1.356 . S
C567 C566 1.363 . S
C567 C570 1.363 . S
N568 C570 1.356 . S
N568 H580 0.984 . S
N568 H581 0.985 . S
N569 C571 1.356 . S
N569 H574 0.984 . S
N569 H575 0.985 . S
C570 C564 1.379 . S
C570 C567 1.363 . S
C570 N568 1.356 . S
C571 C565 1.363 . S
C571 C566 1.379 . S
C571 N569 1.356 . S
N572 C564 1.356 . S
N572 H578 0.984 . S
N572 H579 0.984 . S
N573 C566 1.356 . S
N573 H576 0.984 . S
N573 H577 0.985 . S
H574 N569 0.984 . S
H575 N569 0.985 . S
H576 N573 0.984 . S
H577 N573 0.985 . S
H578 N572 0.984 . S
H579 N572 0.984 . S
H580 N568 0.984 . S
H581 N568 0.985 . S
C582 C583 1.363 . S
C582 C588 1.379 . S
C582 N590 1.356 . S
C583 C582 1.363 . S
C583 C589 1.363 . S
C584 C585 1.363 . S
C584 C589 1.379 . S
C584 N591 1.356 . S
C585 C584 1.363 . S
C585 C588 1.363 . S
N586 C588 1.356 . S
N586 H598 0.984 . S
N586 H599 0.985 . S
N587 C589 1.356 . S
N587 H592 0.984 . S
N587 H593 0.985 . S
C588 C582 1.379 . S
C588 C585 1.363 . S
C588 N586 1.356 . S
C589 C583 1.363 . S
C589 C584 1.379 . S
C589 N587 1.356 . S
N590 C582 1.356 . S
N590 H596 0.984 . S
N590 H597 0.984 . S
N591 C584 1.356 . S
N591 H594 0.984 . S
N591 H595 0.985 . S
H592 N587 0.984 . S
H593 N587 0.985 . S
H594 N591 0.984 . S
H595 N591 0.985 . S
H596 N590 0.984 . S
H597 N590 0.984 . S
H598 N586 0.984 . S
H599 N586 0.985 . S
C600 C601 1.363 . S
C600 C606 1.379 . S
C600 N608 1.356 . S
C601 C600 1.363 . S
C601 C607 1.363 . S
C602 C603 1.363 . S
C602 C607 1.379 . S
C602 N609 1.356 . S
C603 C602 1.363 . S
C603 C606 1.363 . S
N604 C606 1.356 . S
N604 H616 0.984 . S
N604 H617 0.985 . S
N605 C607 1.356 . S
N605 H610 0.984 . S
N605 H611 0.985 . S
C606 C600 1.379 . S
C606 C603 1.363 . S
C606 N604 1.356 . S
C607 C601 1.363 . S
C607 C602 1.379 . S
C607 N605 1.356 . S
N608 C600 1.356 . S
N608 H614 0.984 . S
N608 H615 0.984 . S
N609 C602 1.356 . S
N609 H612 0.984 . S
N609 H613 0.985 . S
H610 N605 0.984 . S
H611 N605 0.985 . S
H612 N609 0.984 . S
H613 N609 0.985 . S
H614 N608 0.984 . S
H615 N608 0.984 . S
H616 N604 0.984 . S
H617 N604 0.985 . S
C618 C619 1.363 . S
C618 C624 1.379 . S
C618 N626 1.356 . S
C619 C618 1.363 . S
C619 C625 1.363 . S
C620 C621 1.363 . S
C620 C625 1.379 . S
C620 N627 1.356 . S
C621 C620 1.363 . S
C621 C624 1.363 . S
N622 C624 1.356 . S
N622 H634 0.984 . S
N622 H635 0.985 . S
N623 C625 1.356 . S
N623 H628 0.984 . S
N623 H629 0.985 . S
C624 C618 1.379 . S
C624 C621 1.363 . S
C624 N622 1.356 . S
C625 C619 1.363 . S
C625 C620 1.379 . S
C625 N623 1.356 . S
N626 C618 1.356 . S
N626 H632 0.984 . S
N626 H633 0.984 . S
N627 C620 1.356 . S
N627 H630 0.984 . S
N627 H631 0.985 . S
H628 N623 0.984 . S
H629 N623 0.985 . S
H630 N627 0.984 . S
H631 N627 0.985 . S
H632 N626 0.984 . S
H633 N626 0.984 . S
H634 N622 0.984 . S
H635 N622 0.985 . S
C636 C637 1.363 . S
C636 C642 1.379 . S
C636 N644 1.356 . S
C637 C636 1.363 . S
C637 C643 1.363 . S
C638 C639 1.363 . S
C638 C643 1.379 . S
C638 N645 1.356 . S
C639 C638 1.363 . S
C639 C642 1.363 . S
N640 C642 1.356 . S
N640 H652 0.984 . S
N640 H653 0.985 . S
N641 C643 1.356 . S
N641 H646 0.984 . S
N641 H647 0.985 . S
C642 C636 1.379 . S
C642 C639 1.363 . S
C642 N640 1.356 . S
C643 C637 1.363 . S
C643 C638 1.379 . S
C643 N641 1.356 . S
N644 C636 1.356 . S
N644 H650 0.984 . S
N644 H651 0.984 . S
N645 C638 1.356 . S
N645 H648 0.984 . S
N645 H649 0.985 . S
H646 N641 0.984 . S
H647 N641 0.985 . S
H648 N645 0.984 . S
H649 N645 0.985 . S
H650 N644 0.984 . S
H651 N644 0.984 . S
H652 N640 0.984 . S
H653 N640 0.985 . S
C654 C655 1.363 . S
C654 C660 1.379 . S
C654 N662 1.356 . S
C655 C654 1.363 . S
C655 C661 1.363 . S
C656 C657 1.363 . S
C656 C661 1.379 . S
C656 N663 1.356 . S
C657 C656 1.363 . S
C657 C660 1.363 . S
N658 C660 1.356 . S
N658 H670 0.984 . S
N658 H671 0.985 . S
N659 C661 1.356 . S
N659 H664 0.984 . S
N659 H665 0.985 . S
C660 C654 1.379 . S
C660 C657 1.363 . S
C660 N658 1.356 . S
C661 C655 1.363 . S
C661 C656 1.379 . S
C661 N659 1.356 . S
N662 C654 1.356 . S
N662 H668 0.984 . S
N662 H669 0.984 . S
N663 C656 1.356 . S
N663 H666 0.984 . S
N663 H667 0.985 . S
H664 N659 0.984 . S
H665 N659 0.985 . S
H666 N663 0.984 . S
H667 N663 0.985 . S
H668 N662 0.984 . S
H669 N662 0.984 . S
H670 N658 0.984 . S
H671 N658 0.985 . S
C672 C673 1.363 . S
C672 C678 1.379 . S
C672 N680 1.356 . S
C673 C672 1.363 . S
C673 C679 1.363 . S
C674 C675 1.363 1_554 S
C674 C679 1.379 . S
C674 N681 1.356 . S
C675 C674 1.363 1_556 S
C675 C678 1.363 1_556 S
N676 C678 1.356 1_556 S
N676 H688 0.984 . S
N676 H689 0.985 . S
N677 C679 1.356 . S
N677 H682 0.984 . S
N677 H683 0.985 . S
C678 C672 1.379 . S
C678 C675 1.363 1_554 S
C678 N676 1.356 1_554 S
C679 C673 1.363 . S
C679 C674 1.379 . S
C679 N677 1.356 . S
N680 C672 1.356 . S
N680 H686 0.984 . S
N680 H687 0.984 . S
N681 C674 1.356 . S
N681 H684 0.984 1_554 S
N681 H685 0.985 . S
H682 N677 0.984 . S
H683 N677 0.985 . S
H684 N681 0.984 1_556 S
H685 N681 0.985 . S
H686 N680 0.984 . S
H687 N680 0.984 . S
H688 N676 0.984 . S
H689 N676 0.985 . S
C690 C691 1.363 . S
C690 C696 1.379 . S
C690 N698 1.356 . S
C691 C690 1.363 . S
C691 C697 1.363 . S
C692 C693 1.363 1_554 S
C692 C697 1.379 . S
C692 N699 1.356 . S
C693 C692 1.363 1_556 S
C693 C696 1.363 1_556 S
N694 C696 1.356 1_556 S
N694 H706 0.984 . S
N694 H707 0.985 . S
N695 C697 1.356 . S
N695 H700 0.984 . S
N695 H701 0.985 . S
C696 C690 1.379 . S
C696 C693 1.363 1_554 S
C696 N694 1.356 1_554 S
C697 C691 1.363 . S
C697 C692 1.379 . S
C697 N695 1.356 . S
N698 C690 1.356 . S
N698 H704 0.984 . S
N698 H705 0.984 . S
N699 C692 1.356 . S
N699 H702 0.984 1_554 S
N699 H703 0.985 . S
H700 N695 0.984 . S
H701 N695 0.985 . S
H702 N699 0.984 1_556 S
H703 N699 0.985 . S
H704 N698 0.984 . S
H705 N698 0.984 . S
H706 N694 0.984 . S
H707 N694 0.985 . S
C708 C709 1.363 . S
C708 C714 1.379 . S
C708 N716 1.356 . S
C709 C708 1.363 . S
C709 C715 1.363 . S
C710 C711 1.363 1_554 S
C710 C715 1.379 . S
C710 N717 1.356 1_554 S
C711 C710 1.363 1_556 S
C711 C714 1.363 1_556 S
N712 C714 1.356 1_556 S
N712 H724 0.984 . S
N712 H725 0.985 . S
N713 C715 1.356 . S
N713 H718 0.984 . S
N713 H719 0.985 . S
C714 C708 1.379 . S
C714 C711 1.363 1_554 S
C714 N712 1.356 1_554 S
C715 C709 1.363 . S
C715 C710 1.379 . S
C715 N713 1.356 . S
N716 C708 1.356 . S
N716 H722 0.984 . S
N716 H723 0.984 . S
N717 C710 1.356 1_556 S
N717 H720 0.984 . S
N717 H721 0.985 1_556 S
H718 N713 0.984 . S
H719 N713 0.985 . S
H720 N717 0.984 . S
H721 N717 0.985 1_554 S
H722 N716 0.984 . S
H723 N716 0.984 . S
H724 N712 0.984 . S
H725 N712 0.985 . S
C726 C727 1.363 . S
C726 C732 1.379 . S
C726 N734 1.356 . S
C727 C726 1.363 . S
C727 C733 1.363 . S
C728 C729 1.363 1_554 S
C728 C733 1.379 . S
C728 N735 1.356 . S
C729 C728 1.363 1_556 S
C729 C732 1.363 1_556 S
N730 C732 1.356 1_556 S
N730 H742 0.984 . S
N730 H743 0.985 . S
N731 C733 1.356 . S
N731 H736 0.984 . S
N731 H737 0.985 . S
C732 C726 1.379 . S
C732 C729 1.363 1_554 S
C732 N730 1.356 1_554 S
C733 C727 1.363 . S
C733 C728 1.379 . S
C733 N731 1.356 . S
N734 C726 1.356 . S
N734 H740 0.984 . S
N734 H741 0.984 . S
N735 C728 1.356 . S
N735 H738 0.984 1_554 S
N735 H739 0.985 . S
H736 N731 0.984 . S
H737 N731 0.985 . S
H738 N735 0.984 1_556 S
H739 N735 0.985 . S
H740 N734 0.984 . S
H741 N734 0.984 . S
H742 N730 0.984 . S
H743 N730 0.985 . S
C744 C745 1.363 1_556 S
C744 C750 1.379 . S
C744 N752 1.356 . S
C745 C744 1.363 1_554 S
C745 C751 1.363 1_554 S
C746 C747 1.363 . S
C746 C751 1.379 . S
C746 N753 1.356 . S
C747 C746 1.363 . S
C747 C750 1.363 . S
N748 C750 1.356 . S
N748 H760 0.984 . S
N748 H761 0.985 . S
N749 C751 1.356 1_554 S
N749 H754 0.984 . S
N749 H755 0.985 . S
C750 C744 1.379 . S
C750 C747 1.363 . S
C750 N748 1.356 . S
C751 C745 1.363 1_556 S
C751 C746 1.379 . S
C751 N749 1.356 1_556 S
N752 C744 1.356 . S
N752 H758 0.984 . S
N752 H759 0.984 1_556 S
N753 C746 1.356 . S
N753 H756 0.984 . S
N753 H757 0.985 . S
H754 N749 0.984 . S
H755 N749 0.985 . S
H756 N753 0.984 . S
H757 N753 0.985 . S
H758 N752 0.984 . S
H759 N752 0.984 1_554 S
H760 N748 0.984 . S
H761 N748 0.985 . S
C762 C763 1.363 1_556 S
C762 C768 1.379 . S
C762 N770 1.356 . S
C763 C762 1.363 1_554 S
C763 C769 1.363 1_554 S
C764 C765 1.363 . S
C764 C769 1.379 . S
C764 N771 1.356 . S
C765 C764 1.363 . S
C765 C768 1.363 . S
N766 C768 1.356 . S
N766 H778 0.984 . S
N766 H779 0.985 . S
N767 C769 1.356 1_554 S
N767 H772 0.984 . S
N767 H773 0.985 . S
C768 C762 1.379 . S
C768 C765 1.363 . S
C768 N766 1.356 . S
C769 C763 1.363 1_556 S
C769 C764 1.379 . S
C769 N767 1.356 1_556 S
N770 C762 1.356 . S
N770 H776 0.984 . S
N770 H777 0.984 1_556 S
N771 C764 1.356 . S
N771 H774 0.984 . S
N771 H775 0.985 . S
H772 N767 0.984 . S
H773 N767 0.985 . S
H774 N771 0.984 . S
H775 N771 0.985 . S
H776 N770 0.984 . S
H777 N770 0.984 1_554 S
H778 N766 0.984 . S
H779 N766 0.985 . S
C780 C781 1.363 1_556 S
C780 C786 1.379 . S
C780 N788 1.356 . S
C781 C780 1.363 1_554 S
C781 C787 1.363 1_554 S
C782 C783 1.363 . S
C782 C787 1.379 . S
C782 N789 1.356 . S
C783 C782 1.363 . S
C783 C786 1.363 . S
N784 C786 1.356 . S
N784 H796 0.984 . S
N784 H797 0.985 . S
N785 C787 1.356 1_554 S
N785 H790 0.984 . S
N785 H791 0.985 . S
C786 C780 1.379 . S
C786 C783 1.363 . S
C786 N784 1.356 . S
C787 C781 1.363 1_556 S
C787 C782 1.379 . S
C787 N785 1.356 1_556 S
N788 C780 1.356 . S
N788 H794 0.984 . S
N788 H795 0.984 1_556 S
N789 C782 1.356 . S
N789 H792 0.984 . S
N789 H793 0.985 . S
H790 N785 0.984 . S
H791 N785 0.985 . S
H792 N789 0.984 . S
H793 N789 0.985 . S
H794 N788 0.984 . S
H795 N788 0.984 1_554 S
H796 N784 0.984 . S
H797 N784 0.985 . S
C798 C799 1.363 1_556 S
C798 C804 1.379 . S
C798 N806 1.356 . S
C799 C798 1.363 1_554 S
C799 C805 1.363 1_554 S
C800 C801 1.363 . S
C800 C805 1.379 . S
C800 N807 1.356 . S
C801 C800 1.363 . S
C801 C804 1.363 . S
N802 C804 1.356 . S
N802 H814 0.984 . S
N802 H815 0.985 . S
N803 C805 1.356 1_554 S
N803 H808 0.984 . S
N803 H809 0.985 . S
C804 C798 1.379 . S
C804 C801 1.363 . S
C804 N802 1.356 . S
C805 C799 1.363 1_556 S
C805 C800 1.379 . S
C805 N803 1.356 1_556 S
N806 C798 1.356 . S
N806 H812 0.984 . S
N806 H813 0.984 1_556 S
N807 C800 1.356 . S
N807 H810 0.984 . S
N807 H811 0.985 . S
H808 N803 0.984 . S
H809 N803 0.985 . S
H810 N807 0.984 . S
H811 N807 0.985 . S
H812 N806 0.984 . S
H813 N806 0.984 1_554 S
H814 N802 0.984 . S
H815 N802 0.985 . S
C816 C817 1.363 . S
C816 C822 1.379 . S
C816 N824 1.356 . S
C817 C816 1.363 . S
C817 C823 1.363 . S
C818 C819 1.363 . S
C818 C823 1.379 . S
C818 N825 1.356 . S
C819 C818 1.363 . S
C819 C822 1.363 . S
N820 C822 1.356 . S
N820 H832 0.984 . S
N820 H833 0.985 . S
N821 C823 1.356 . S
N821 H826 0.984 . S
N821 H827 0.985 . S
C822 C816 1.379 . S
C822 C819 1.363 . S
C822 N820 1.356 . S
C823 C817 1.363 . S
C823 C818 1.379 . S
C823 N821 1.356 . S
N824 C816 1.356 . S
N824 H830 0.984 . S
N824 H831 0.984 . S
N825 C818 1.356 . S
N825 H828 0.984 . S
N825 H829 0.985 . S
H826 N821 0.984 . S
H827 N821 0.985 . S
H828 N825 0.984 . S
H829 N825 0.985 . S
H830 N824 0.984 . S
H831 N824 0.984 . S
H832 N820 0.984 . S
H833 N820 0.985 . S
C834 C835 1.363 . S
C834 C840 1.379 . S
C834 N842 1.356 . S
C835 C834 1.363 . S
C835 C841 1.363 . S
C836 C837 1.363 . S
C836 C841 1.379 . S
C836 N843 1.356 . S
C837 C836 1.363 . S
C837 C840 1.363 . S
N838 C840 1.356 . S
N838 H850 0.984 . S
N838 H851 0.985 . S
N839 C841 1.356 . S
N839 H844 0.984 . S
N839 H845 0.985 . S
C840 C834 1.379 . S
C840 C837 1.363 . S
C840 N838 1.356 . S
C841 C835 1.363 . S
C841 C836 1.379 . S
C841 N839 1.356 . S
N842 C834 1.356 . S
N842 H848 0.984 . S
N842 H849 0.984 . S
N843 C836 1.356 . S
N843 H846 0.984 . S
N843 H847 0.985 . S
H844 N839 0.984 . S
H845 N839 0.985 . S
H846 N843 0.984 . S
H847 N843 0.985 . S
H848 N842 0.984 . S
H849 N842 0.984 . S
H850 N838 0.984 . S
H851 N838 0.985 . S
C852 C853 1.363 . S
C852 C858 1.379 . S
C852 N860 1.356 . S
C853 C852 1.363 . S
C853 C859 1.363 . S
C854 C855 1.363 . S
C854 C859 1.379 . S
C854 N861 1.356 . S
C855 C854 1.363 . S
C855 C858 1.363 . S
N856 C858 1.356 . S
N856 H868 0.984 . S
N856 H869 0.985 . S
N857 C859 1.356 . S
N857 H862 0.984 . S
N857 H863 0.985 . S
C858 C852 1.379 . S
C858 C855 1.363 . S
C858 N856 1.356 . S
C859 C853 1.363 . S
C859 C854 1.379 . S
C859 N857 1.356 . S
N860 C852 1.356 . S
N860 H866 0.984 . S
N860 H867 0.984 . S
N861 C854 1.356 . S
N861 H864 0.984 . S
N861 H865 0.985 . S
H862 N857 0.984 . S
H863 N857 0.985 . S
H864 N861 0.984 . S
H865 N861 0.985 . S
H866 N860 0.984 . S
H867 N860 0.984 . S
H868 N856 0.984 . S
H869 N856 0.985 . S
C870 C871 1.363 . S
C870 C876 1.379 . S
C870 N878 1.356 . S
C871 C870 1.363 . S
C871 C877 1.363 . S
C872 C873 1.363 . S
C872 C877 1.379 . S
C872 N879 1.356 . S
C873 C872 1.363 . S
C873 C876 1.363 . S
N874 C876 1.356 . S
N874 H886 0.984 . S
N874 H887 0.985 . S
N875 C877 1.356 . S
N875 H880 0.984 . S
N875 H881 0.985 . S
C876 C870 1.379 . S
C876 C873 1.363 . S
C876 N874 1.356 . S
C877 C871 1.363 . S
C877 C872 1.379 . S
C877 N875 1.356 . S
N878 C870 1.356 . S
N878 H884 0.984 . S
N878 H885 0.984 . S
N879 C872 1.356 . S
N879 H882 0.984 . S
N879 H883 0.985 . S
H880 N875 0.984 . S
H881 N875 0.985 . S
H882 N879 0.984 . S
H883 N879 0.985 . S
H884 N878 0.984 . S
H885 N878 0.984 . S
H886 N874 0.984 . S
H887 N874 0.985 . S
C888 C889 1.363 . S
C888 C894 1.379 . S
C888 N896 1.356 . S
C889 C888 1.363 . S
C889 C895 1.363 . S
C890 C891 1.363 . S
C890 C895 1.379 . S
C890 N897 1.356 . S
C891 C890 1.363 . S
C891 C894 1.363 . S
N892 C894 1.356 . S
N892 H904 0.984 . S
N892 H905 0.985 . S
N893 C895 1.356 . S
N893 H898 0.984 . S
N893 H899 0.985 . S
C894 C888 1.379 . S
C894 C891 1.363 . S
C894 N892 1.356 . S
C895 C889 1.363 . S
C895 C890 1.379 . S
C895 N893 1.356 . S
N896 C888 1.356 . S
N896 H902 0.984 . S
N896 H903 0.984 . S
N897 C890 1.356 . S
N897 H900 0.984 . S
N897 H901 0.985 . S
H898 N893 0.984 . S
H899 N893 0.985 . S
H900 N897 0.984 . S
H901 N897 0.985 . S
H902 N896 0.984 . S
H903 N896 0.984 . S
H904 N892 0.984 . S
H905 N892 0.985 . S
C906 C907 1.363 . S
C906 C912 1.379 . S
C906 N914 1.356 . S
C907 C906 1.363 . S
C907 C913 1.363 . S
C908 C909 1.363 . S
C908 C913 1.379 . S
C908 N915 1.356 . S
C909 C908 1.363 . S
C909 C912 1.363 . S
N910 C912 1.356 . S
N910 H922 0.984 . S
N910 H923 0.985 . S
N911 C913 1.356 . S
N911 H916 0.984 . S
N911 H917 0.985 . S
C912 C906 1.379 . S
C912 C909 1.363 . S
C912 N910 1.356 . S
C913 C907 1.363 . S
C913 C908 1.379 . S
C913 N911 1.356 . S
N914 C906 1.356 . S
N914 H920 0.984 . S
N914 H921 0.984 . S
N915 C908 1.356 . S
N915 H918 0.984 . S
N915 H919 0.985 . S
H916 N911 0.984 . S
H917 N911 0.985 . S
H918 N915 0.984 . S
H919 N915 0.985 . S
H920 N914 0.984 . S
H921 N914 0.984 . S
H922 N910 0.984 . S
H923 N910 0.985 . S
C924 C925 1.363 . S
C924 C930 1.379 . S
C924 N932 1.356 . S
C925 C924 1.363 . S
C925 C931 1.363 . S
C926 C927 1.363 . S
C926 C931 1.379 . S
C926 N933 1.356 . S
C927 C926 1.363 . S
C927 C930 1.363 . S
N928 C930 1.356 . S
N928 H940 0.984 . S
N928 H941 0.985 . S
N929 C931 1.356 . S
N929 H934 0.984 . S
N929 H935 0.985 . S
C930 C924 1.379 . S
C930 C927 1.363 . S
C930 N928 1.356 . S
C931 C925 1.363 . S
C931 C926 1.379 . S
C931 N929 1.356 . S
N932 C924 1.356 . S
N932 H938 0.984 . S
N932 H939 0.984 . S
N933 C926 1.356 . S
N933 H936 0.984 . S
N933 H937 0.985 . S
H934 N929 0.984 . S
H935 N929 0.985 . S
H936 N933 0.984 . S
H937 N933 0.985 . S
H938 N932 0.984 . S
H939 N932 0.984 . S
H940 N928 0.984 . S
H941 N928 0.985 . S
C942 C943 1.363 . S
C942 C948 1.379 . S
C942 N950 1.356 . S
C943 C942 1.363 . S
C943 C949 1.363 . S
C944 C945 1.363 . S
C944 C949 1.379 . S
C944 N951 1.356 . S
C945 C944 1.363 . S
C945 C948 1.363 . S
N946 C948 1.356 . S
N946 H958 0.984 . S
N946 H959 0.985 . S
N947 C949 1.356 . S
N947 H952 0.984 . S
N947 H953 0.985 . S
C948 C942 1.379 . S
C948 C945 1.363 . S
C948 N946 1.356 . S
C949 C943 1.363 . S
C949 C944 1.379 . S
C949 N947 1.356 . S
N950 C942 1.356 . S
N950 H956 0.984 . S
N950 H957 0.984 . S
N951 C944 1.356 . S
N951 H954 0.984 . S
N951 H955 0.985 . S
H952 N947 0.984 . S
H953 N947 0.985 . S
H954 N951 0.984 . S
H955 N951 0.985 . S
H956 N950 0.984 . S
H957 N950 0.984 . S
H958 N946 0.984 . S
H959 N946 0.985 . S
C960 C961 1.363 1_556 S
C960 C966 1.379 1_545 S
C960 N968 1.356 . S
C961 C960 1.363 1_554 S
C961 C967 1.363 . S
C962 C963 1.363 1_554 S
C962 C967 1.379 1_565 S
C962 N969 1.356 . S
C963 C962 1.363 1_556 S
C963 C966 1.363 . S
N964 C966 1.356 . S
N964 H976 0.984 . S
N964 H977 0.985 . S
N965 C967 1.356 . S
N965 H970 0.984 . S
N965 H971 0.985 . S
C966 C960 1.379 1_565 S
C966 C963 1.363 . S
C966 N964 1.356 . S
C967 C961 1.363 . S
C967 C962 1.379 1_545 S
C967 N965 1.356 . S
N968 C960 1.356 . S
N968 H974 0.984 . S
N968 H975 0.984 . S
N969 C962 1.356 . S
N969 H972 0.984 . S
N969 H973 0.985 . S
H970 N965 0.984 . S
H971 N965 0.985 . S
H972 N969 0.984 . S
H973 N969 0.985 . S
H974 N968 0.984 . S
H975 N968 0.984 . S
H976 N964 0.984 . S
H977 N964 0.985 . S
C978 C979 1.363 1_554 S
C978 C984 1.379 1_455 S
C978 N986 1.356 . S
C979 C978 1.363 1_556 S
C979 C985 1.363 . S
C980 C981 1.363 1_556 S
C980 C985 1.379 1_655 S
C980 N987 1.356 . S
C981 C980 1.363 1_554 S
C981 C984 1.363 . S
N982 C984 1.356 . S
N982 H994 0.984 . S
N982 H995 0.985 . S
N983 C985 1.356 . S
N983 H988 0.984 . S
N983 H989 0.985 . S
C984 C978 1.379 1_655 S
C984 C981 1.363 . S
C984 N982 1.356 . S
C985 C979 1.363 . S
C985 C980 1.379 1_455 S
C985 N983 1.356 . S
N986 C978 1.356 . S
N986 H992 0.984 . S
N986 H993 0.984 . S
N987 C980 1.356 . S
N987 H990 0.984 . S
N987 H991 0.985 . S
H988 N983 0.984 . S
H989 N983 0.985 . S
H990 N987 0.984 . S
H991 N987 0.985 . S
H992 N986 0.984 . S
H993 N986 0.984 . S
H994 N982 0.984 . S
H995 N982 0.985 . S
C996 C997 1.363 1_556 S
C996 C1002 1.379 1_565 S
C996 N1004 1.356 . S
C997 C996 1.363 1_554 S
C997 C1003 1.363 . S
C998 C999 1.363 1_554 S
C998 C1003 1.379 1_545 S
C998 N1005 1.356 . S
C999 C998 1.363 1_556 S
C999 C1002 1.363 . S
N1000 C1002 1.356 . S
N1000 H1012 0.984 . S
N1000 H1013 0.985 . S
N1001 C1003 1.356 . S
N1001 H1006 0.984 . S
N1001 H1007 0.985 . S
C1002 C996 1.379 1_545 S
C1002 C999 1.363 . S
C1002 N1000 1.356 . S
C1003 C997 1.363 . S
C1003 C998 1.379 1_565 S
C1003 N1001 1.356 . S
N1004 C996 1.356 . S
N1004 H1010 0.984 . S
N1004 H1011 0.984 . S
N1005 C998 1.356 . S
N1005 H1008 0.984 . S
N1005 H1009 0.985 . S
H1006 N1001 0.984 . S
H1007 N1001 0.985 . S
H1008 N1005 0.984 . S
H1009 N1005 0.985 . S
H1010 N1004 0.984 . S
H1011 N1004 0.984 . S
H1012 N1000 0.984 . S
H1013 N1000 0.985 . S
C1014 C1015 1.363 1_554 S
C1014 C1020 1.379 1_655 S
C1014 N1022 1.356 . S
C1015 C1014 1.363 1_556 S
C1015 C1021 1.363 . S
C1016 C1017 1.363 1_556 S
C1016 C1021 1.379 1_455 S
C1016 N1023 1.356 . S
C1017 C1016 1.363 1_554 S
C1017 C1020 1.363 . S
N1018 C1020 1.356 . S
N1018 H1030 0.984 . S
N1018 H1031 0.985 . S
N1019 C1021 1.356 . S
N1019 H1024 0.984 . S
N1019 H1025 0.985 . S
C1020 C1014 1.379 1_455 S
C1020 C1017 1.363 . S
C1020 N1018 1.356 . S
C1021 C1015 1.363 . S
C1021 C1016 1.379 1_655 S
C1021 N1019 1.356 . S
N1022 C1014 1.356 . S
N1022 H1028 0.984 . S
N1022 H1029 0.984 . S
N1023 C1016 1.356 . S
N1023 H1026 0.984 . S
N1023 H1027 0.985 . S
H1024 N1019 0.984 . S
H1025 N1019 0.985 . S
H1026 N1023 0.984 . S
H1027 N1023 0.985 . S
H1028 N1022 0.984 . S
H1029 N1022 0.984 . S
H1030 N1018 0.984 . S
H1031 N1018 0.985 . S
C1032 C1033 1.363 . S
C1032 C1038 1.379 . S
C1032 N1040 1.356 . S
C1033 C1032 1.363 . S
C1033 C1039 1.363 . S
C1034 C1035 1.363 . S
C1034 C1039 1.379 . S
C1034 N1041 1.356 . S
C1035 C1034 1.363 . S
C1035 C1038 1.363 . S
N1036 C1038 1.356 . S
N1036 H1048 0.984 . S
N1036 H1049 0.985 . S
N1037 C1039 1.356 . S
N1037 H1042 0.984 . S
N1037 H1043 0.985 . S
C1038 C1032 1.379 . S
C1038 C1035 1.363 . S
C1038 N1036 1.356 . S
C1039 C1033 1.363 . S
C1039 C1034 1.379 . S
C1039 N1037 1.356 . S
N1040 C1032 1.356 . S
N1040 H1046 0.984 . S
N1040 H1047 0.984 . S
N1041 C1034 1.356 . S
N1041 H1044 0.984 . S
N1041 H1045 0.985 . S
H1042 N1037 0.984 . S
H1043 N1037 0.985 . S
H1044 N1041 0.984 . S
H1045 N1041 0.985 . S
H1046 N1040 0.984 . S
H1047 N1040 0.984 . S
H1048 N1036 0.984 . S
H1049 N1036 0.985 . S
C1050 C1051 1.363 . S
C1050 C1056 1.379 . S
C1050 N1058 1.356 . S
C1051 C1050 1.363 . S
C1051 C1057 1.363 . S
C1052 C1053 1.363 . S
C1052 C1057 1.379 . S
C1052 N1059 1.356 . S
C1053 C1052 1.363 . S
C1053 C1056 1.363 . S
N1054 C1056 1.356 . S
N1054 H1066 0.984 . S
N1054 H1067 0.985 . S
N1055 C1057 1.356 . S
N1055 H1060 0.984 . S
N1055 H1061 0.985 . S
C1056 C1050 1.379 . S
C1056 C1053 1.363 . S
C1056 N1054 1.356 . S
C1057 C1051 1.363 . S
C1057 C1052 1.379 . S
C1057 N1055 1.356 . S
N1058 C1050 1.356 . S
N1058 H1064 0.984 . S
N1058 H1065 0.984 . S
N1059 C1052 1.356 . S
N1059 H1062 0.984 . S
N1059 H1063 0.985 . S
H1060 N1055 0.984 . S
H1061 N1055 0.985 . S
H1062 N1059 0.984 . S
H1063 N1059 0.985 . S
H1064 N1058 0.984 . S
H1065 N1058 0.984 . S
H1066 N1054 0.984 . S
H1067 N1054 0.985 . S
C1068 C1069 1.363 . S
C1068 C1074 1.379 . S
C1068 N1076 1.356 . S
C1069 C1068 1.363 . S
C1069 C1075 1.363 . S
C1070 C1071 1.363 . S
C1070 C1075 1.379 . S
C1070 N1077 1.356 . S
C1071 C1070 1.363 . S
C1071 C1074 1.363 . S
N1072 C1074 1.356 . S
N1072 H1084 0.984 . S
N1072 H1085 0.985 . S
N1073 C1075 1.356 . S
N1073 H1078 0.984 . S
N1073 H1079 0.985 . S
C1074 C1068 1.379 . S
C1074 C1071 1.363 . S
C1074 N1072 1.356 . S
C1075 C1069 1.363 . S
C1075 C1070 1.379 . S
C1075 N1073 1.356 . S
N1076 C1068 1.356 . S
N1076 H1082 0.984 . S
N1076 H1083 0.984 . S
N1077 C1070 1.356 . S
N1077 H1080 0.984 . S
N1077 H1081 0.985 . S
H1078 N1073 0.984 . S
H1079 N1073 0.985 . S
H1080 N1077 0.984 . S
H1081 N1077 0.985 . S
H1082 N1076 0.984 . S
H1083 N1076 0.984 . S
H1084 N1072 0.984 . S
H1085 N1072 0.985 . S
C1086 C1087 1.363 . S
C1086 C1092 1.379 . S
C1086 N1094 1.356 . S
C1087 C1086 1.363 . S
C1087 C1093 1.363 . S
C1088 C1089 1.363 . S
C1088 C1093 1.379 . S
C1088 N1095 1.356 . S
C1089 C1088 1.363 . S
C1089 C1092 1.363 . S
N1090 C1092 1.356 . S
N1090 H1102 0.984 . S
N1090 H1103 0.985 . S
N1091 C1093 1.356 . S
N1091 H1096 0.984 . S
N1091 H1097 0.985 . S
C1092 C1086 1.379 . S
C1092 C1089 1.363 . S
C1092 N1090 1.356 . S
C1093 C1087 1.363 . S
C1093 C1088 1.379 . S
C1093 N1091 1.356 . S
N1094 C1086 1.356 . S
N1094 H1100 0.984 . S
N1094 H1101 0.984 . S
N1095 C1088 1.356 . S
N1095 H1098 0.984 . S
N1095 H1099 0.985 . S
H1096 N1091 0.984 . S
H1097 N1091 0.985 . S
H1098 N1095 0.984 . S
H1099 N1095 0.985 . S
H1100 N1094 0.984 . S
H1101 N1094 0.984 . S
H1102 N1090 0.984 . S
H1103 N1090 0.985 . S
C1104 C1105 1.363 1_556 S
C1104 C1110 1.379 . S
C1104 N1112 1.356 . S
C1105 C1104 1.363 1_554 S
C1105 C1111 1.363 . S
C1106 C1107 1.363 1_554 S
C1106 C1111 1.379 . S
C1106 N1113 1.356 . S
C1107 C1106 1.363 1_556 S
C1107 C1110 1.363 . S
N1108 C1110 1.356 . S
N1108 H1120 0.984 . S
N1108 H1121 0.985 . S
N1109 C1111 1.356 . S
N1109 H1114 0.984 . S
N1109 H1115 0.985 . S
C1110 C1104 1.379 . S
C1110 C1107 1.363 . S
C1110 N1108 1.356 . S
C1111 C1105 1.363 . S
C1111 C1106 1.379 . S
C1111 N1109 1.356 . S
N1112 C1104 1.356 . S
N1112 H1118 0.984 . S
N1112 H1119 0.984 . S
N1113 C1106 1.356 . S
N1113 H1116 0.984 . S
N1113 H1117 0.985 . S
H1114 N1109 0.984 . S
H1115 N1109 0.985 . S
H1116 N1113 0.984 . S
H1117 N1113 0.985 . S
H1118 N1112 0.984 . S
H1119 N1112 0.984 . S
H1120 N1108 0.984 . S
H1121 N1108 0.985 . S
C1122 C1123 1.363 1_556 S
C1122 C1128 1.379 . S
C1122 N1130 1.356 . S
C1123 C1122 1.363 1_554 S
C1123 C1129 1.363 . S
C1124 C1125 1.363 1_554 S
C1124 C1129 1.379 . S
C1124 N1131 1.356 . S
C1125 C1124 1.363 1_556 S
C1125 C1128 1.363 . S
N1126 C1128 1.356 . S
N1126 H1138 0.984 . S
N1126 H1139 0.985 . S
N1127 C1129 1.356 . S
N1127 H1132 0.984 . S
N1127 H1133 0.985 . S
C1128 C1122 1.379 . S
C1128 C1125 1.363 . S
C1128 N1126 1.356 . S
C1129 C1123 1.363 . S
C1129 C1124 1.379 . S
C1129 N1127 1.356 . S
N1130 C1122 1.356 . S
N1130 H1136 0.984 . S
N1130 H1137 0.984 1_556 S
N1131 C1124 1.356 . S
N1131 H1134 0.984 1_554 S
N1131 H1135 0.985 . S
H1132 N1127 0.984 . S
H1133 N1127 0.985 . S
H1134 N1131 0.984 1_556 S
H1135 N1131 0.985 . S
H1136 N1130 0.984 . S
H1137 N1130 0.984 1_554 S
H1138 N1126 0.984 . S
H1139 N1126 0.985 . S
C1140 C1141 1.363 . S
C1140 C1146 1.379 . S
C1140 N1148 1.356 . S
C1141 C1140 1.363 . S
C1141 C1147 1.363 1_556 S
C1142 C1143 1.363 . S
C1142 C1147 1.379 . S
C1142 N1149 1.356 . S
C1143 C1142 1.363 . S
C1143 C1146 1.363 1_554 S
N1144 C1146 1.356 . S
N1144 H1156 0.984 . S
N1144 H1157 0.985 1_556 S
N1145 C1147 1.356 . S
N1145 H1150 0.984 1_554 S
N1145 H1151 0.985 . S
C1146 C1140 1.379 . S
C1146 C1143 1.363 1_556 S
C1146 N1144 1.356 . S
C1147 C1141 1.363 1_554 S
C1147 C1142 1.379 . S
C1147 N1145 1.356 . S
N1148 C1140 1.356 . S
N1148 H1154 0.984 . S
N1148 H1155 0.984 . S
N1149 C1142 1.356 . S
N1149 H1152 0.984 . S
N1149 H1153 0.985 . S
H1150 N1145 0.984 1_556 S
H1151 N1145 0.985 . S
H1152 N1149 0.984 . S
H1153 N1149 0.985 . S
H1154 N1148 0.984 . S
H1155 N1148 0.984 . S
H1156 N1144 0.984 . S
H1157 N1144 0.985 1_554 S
C1158 C1159 1.363 1_556 S
C1158 C1164 1.379 . S
C1158 N1166 1.356 . S
C1159 C1158 1.363 1_554 S
C1159 C1165 1.363 . S
C1160 C1161 1.363 1_554 S
C1160 C1165 1.379 . S
C1160 N1167 1.356 . S
C1161 C1160 1.363 1_556 S
C1161 C1164 1.363 . S
N1162 C1164 1.356 . S
N1162 H1174 0.984 . S
N1162 H1175 0.985 . S
N1163 C1165 1.356 . S
N1163 H1168 0.984 . S
N1163 H1169 0.985 . S
C1164 C1158 1.379 . S
C1164 C1161 1.363 . S
C1164 N1162 1.356 . S
C1165 C1159 1.363 . S
C1165 C1160 1.379 . S
C1165 N1163 1.356 . S
N1166 C1158 1.356 . S
N1166 H1172 0.984 . S
N1166 H1173 0.984 . S
N1167 C1160 1.356 . S
N1167 H1170 0.984 . S
N1167 H1171 0.985 . S
H1168 N1163 0.984 . S
H1169 N1163 0.985 . S
H1170 N1167 0.984 . S
H1171 N1167 0.985 . S
H1172 N1166 0.984 . S
H1173 N1166 0.984 . S
H1174 N1162 0.984 . S
H1175 N1162 0.985 . S
C1176 C1177 1.363 . S
C1176 C1182 1.379 . S
C1176 N1184 1.356 . S
C1177 C1176 1.363 . S
C1177 C1183 1.363 . S
C1178 C1179 1.363 . S
C1178 C1183 1.379 . S
C1178 N1185 1.356 . S
C1179 C1178 1.363 . S
C1179 C1182 1.363 . S
N1180 C1182 1.356 . S
N1180 H1192 0.984 . S
N1180 H1193 0.985 . S
N1181 C1183 1.356 . S
N1181 H1186 0.984 . S
N1181 H1187 0.985 . S
C1182 C1176 1.379 . S
C1182 C1179 1.363 . S
C1182 N1180 1.356 . S
C1183 C1177 1.363 . S
C1183 C1178 1.379 . S
C1183 N1181 1.356 . S
N1184 C1176 1.356 . S
N1184 H1190 0.984 . S
N1184 H1191 0.984 . S
N1185 C1178 1.356 . S
N1185 H1188 0.984 . S
N1185 H1189 0.985 . S
H1186 N1181 0.984 . S
H1187 N1181 0.985 . S
H1188 N1185 0.984 . S
H1189 N1185 0.985 . S
H1190 N1184 0.984 . S
H1191 N1184 0.984 . S
H1192 N1180 0.984 . S
H1193 N1180 0.985 . S
C1194 C1195 1.363 . S
C1194 C1200 1.379 . S
C1194 N1202 1.356 . S
C1195 C1194 1.363 . S
C1195 C1201 1.363 . S
C1196 C1197 1.363 . S
C1196 C1201 1.379 . S
C1196 N1203 1.356 . S
C1197 C1196 1.363 . S
C1197 C1200 1.363 . S
N1198 C1200 1.356 . S
N1198 H1210 0.984 . S
N1198 H1211 0.985 . S
N1199 C1201 1.356 . S
N1199 H1204 0.984 . S
N1199 H1205 0.985 . S
C1200 C1194 1.379 . S
C1200 C1197 1.363 . S
C1200 N1198 1.356 . S
C1201 C1195 1.363 . S
C1201 C1196 1.379 . S
C1201 N1199 1.356 . S
N1202 C1194 1.356 . S
N1202 H1208 0.984 . S
N1202 H1209 0.984 . S
N1203 C1196 1.356 . S
N1203 H1206 0.984 . S
N1203 H1207 0.985 . S
H1204 N1199 0.984 . S
H1205 N1199 0.985 . S
H1206 N1203 0.984 . S
H1207 N1203 0.985 . S
H1208 N1202 0.984 . S
H1209 N1202 0.984 . S
H1210 N1198 0.984 . S
H1211 N1198 0.985 . S
C1212 C1213 1.363 . S
C1212 C1218 1.379 . S
C1212 N1220 1.356 . S
C1213 C1212 1.363 . S
C1213 C1219 1.363 . S
C1214 C1215 1.363 . S
C1214 C1219 1.379 . S
C1214 N1221 1.356 . S
C1215 C1214 1.363 . S
C1215 C1218 1.363 . S
N1216 C1218 1.356 . S
N1216 H1228 0.984 . S
N1216 H1229 0.985 . S
N1217 C1219 1.356 . S
N1217 H1222 0.984 . S
N1217 H1223 0.985 . S
C1218 C1212 1.379 . S
C1218 C1215 1.363 . S
C1218 N1216 1.356 . S
C1219 C1213 1.363 . S
C1219 C1214 1.379 . S
C1219 N1217 1.356 . S
N1220 C1212 1.356 . S
N1220 H1226 0.984 . S
N1220 H1227 0.984 . S
N1221 C1214 1.356 . S
N1221 H1224 0.984 . S
N1221 H1225 0.985 . S
H1222 N1217 0.984 . S
H1223 N1217 0.985 . S
H1224 N1221 0.984 . S
H1225 N1221 0.985 . S
H1226 N1220 0.984 . S
H1227 N1220 0.984 . S
H1228 N1216 0.984 . S
H1229 N1216 0.985 . S
C1230 C1231 1.363 . S
C1230 C1236 1.379 . S
C1230 N1238 1.356 . S
C1231 C1230 1.363 . S
C1231 C1237 1.363 . S
C1232 C1233 1.363 . S
C1232 C1237 1.379 . S
C1232 N1239 1.356 . S
C1233 C1232 1.363 . S
C1233 C1236 1.363 . S
N1234 C1236 1.356 . S
N1234 H1246 0.984 . S
N1234 H1247 0.985 . S
N1235 C1237 1.356 . S
N1235 H1240 0.984 . S
N1235 H1241 0.985 . S
C1236 C1230 1.379 . S
C1236 C1233 1.363 . S
C1236 N1234 1.356 . S
C1237 C1231 1.363 . S
C1237 C1232 1.379 . S
C1237 N1235 1.356 . S
N1238 C1230 1.356 . S
N1238 H1244 0.984 . S
N1238 H1245 0.984 . S
N1239 C1232 1.356 . S
N1239 H1242 0.984 . S
N1239 H1243 0.985 . S
H1240 N1235 0.984 . S
H1241 N1235 0.985 . S
H1242 N1239 0.984 . S
H1243 N1239 0.985 . S
H1244 N1238 0.984 . S
H1245 N1238 0.984 . S
H1246 N1234 0.984 . S
H1247 N1234 0.985 . S
C529 N13 1.401 . S
C531 N2 1.400 . S
C547 N46 1.401 . S
C549 N35 1.400 . S
C565 N68 1.400 . S
C567 N79 1.401 . S
C583 N101 1.400 . S
C585 N112 1.401 . S
C601 N145 1.401 . S
C603 N134 1.400 . S
C619 N167 1.400 . S
C621 N178 1.401 . S
C637 N200 1.400 . S
C639 N211 1.401 . S
C655 N233 1.400 . S
C657 N244 1.401 . S
C673 N277 1.401 . S
C675 N266 1.400 . S
C691 N310 1.401 . S
C693 N299 1.400 . S
C709 N343 1.401 . S
C711 N332 1.400 . S
C727 N376 1.401 . S
C729 N365 1.400 . S
C745 N398 1.400 . S
C747 N409 1.401 . S
C763 N431 1.400 . S
C765 N442 1.401 . S
C781 N464 1.400 . S
C783 N475 1.401 . S
C799 N497 1.400 . S
C801 N508 1.401 . S
C817 C7 1.477 . S
C819 C502 1.477 . S
C835 C403 1.477 . S
C837 C40 1.477 . S
C853 C436 1.477 . S
C855 C73 1.477 . S
C871 C469 1.477 . S
C873 C106 1.477 . S
C889 C304 1.477 . S
C891 C139 1.477 . S
C907 C172 1.477 . S
C909 C337 1.477 . S
C925 C205 1.477 . S
C927 C370 1.477 . S
C943 C271 1.477 . S
C945 C238 1.477 . S
C961 C18 1.240 . S
C963 C150 1.240 . S
C979 C183 1.240 . S
C981 C51 1.240 . S
C997 C84 1.240 . S
C999 C216 1.240 . S
C1015 C249 1.240 . S
C1017 C117 1.240 . S
C1033 C414 1.240 . S
C1035 C282 1.240 . S
C1051 C315 1.240 . S
C1053 C447 1.240 . S
C1069 C348 1.240 . S
C1071 C480 1.240 . S
C1087 C381 1.240 . S
C1089 C513 1.240 . S
C1105 C21 1.571 . S
C1107 C186 1.571 . S
C1123 C54 1.571 . S
C1125 C219 1.571 . S
C1141 C252 1.571 . S
C1143 C87 1.571 . S
C1159 C120 1.571 . S
C1161 C153 1.571 . S
C1177 C450 1.571 . S
C1179 C285 1.571 . S
C1195 C318 1.571 . S
C1197 C483 1.571 . S
C1213 C516 1.571 . S
C1215 C351 1.571 . S
C1231 C417 1.571 . S
C1233 C384 1.571 . S
