# Generated by pormake.
# Topology pcb, (4)-cn, num edge types: 1
# Building blocks:
#     Node 0, Type 0, BuildingBlock: TATPOV_clean_sbu_0, # of connection points: 4
#     Node 1, Type 0, BuildingBlock: TATPOV_clean_sbu_0, # of connection points: 4
#     Node 2, Type 0, BuildingBlock: TATPOV_clean_sbu_0, # of connection points: 4
#     Node 3, Type 0, BuildingBlock: TATPOV_clean_sbu_0, # of connection points: 4
#     Node 4, Type 0, BuildingBlock: TATPOV_clean_sbu_0, # of connection points: 4
#     Node 5, Type 0, BuildingBlock: TATPOV_clean_sbu_0, # of connection points: 4
#     Node 6, Type 0, BuildingBlock: TATPOV_clean_sbu_0, # of connection points: 4
#     Node 7, Type 0, BuildingBlock: TATPOV_clean_sbu_0, # of connection points: 4
#     Node 8, Type 0, BuildingBlock: TATPOV_clean_sbu_0, # of connection points: 4
#     Node 9, Type 0, BuildingBlock: TATPOV_clean_sbu_0, # of connection points: 4
#     Node 10, Type 0, BuildingBlock: TATPOV_clean_sbu_0, # of connection points: 4
#     Node 11, Type 0, BuildingBlock: TATPOV_clean_sbu_0, # of connection points: 4
#     Node 12, Type 0, BuildingBlock: TATPOV_clean_sbu_0, # of connection points: 4
#     Node 13, Type 0, BuildingBlock: TATPOV_clean_sbu_0, # of connection points: 4
#     Node 14, Type 0, BuildingBlock: TATPOV_clean_sbu_0, # of connection points: 4
#     Node 15, Type 0, BuildingBlock: TATPOV_clean_sbu_0, # of connection points: 4
#     Edge 16, Type (0, 0), BuildingBlock: CIFDUS_clean_linker_0, # of connection points: 2
#     Edge 17, Type (0, 0), BuildingBlock: CIFDUS_clean_linker_0, # of connection points: 2
#     Edge 18, Type (0, 0), BuildingBlock: CIFDUS_clean_linker_0, # of connection points: 2
#     Edge 19, Type (0, 0), BuildingBlock: CIFDUS_clean_linker_0, # of connection points: 2
#     Edge 20, Type (0, 0), BuildingBlock: CIFDUS_clean_linker_0, # of connection points: 2
#     Edge 21, Type (0, 0), BuildingBlock: CIFDUS_clean_linker_0, # of connection points: 2
#     Edge 22, Type (0, 0), BuildingBlock: CIFDUS_clean_linker_0, # of connection points: 2
#     Edge 23, Type (0, 0), BuildingBlock: CIFDUS_clean_linker_0, # of connection points: 2
#     Edge 24, Type (0, 0), BuildingBlock: CIFDUS_clean_linker_0, # of connection points: 2
#     Edge 25, Type (0, 0), BuildingBlock: CIFDUS_clean_linker_0, # of connection points: 2
#     Edge 26, Type (0, 0), BuildingBlock: CIFDUS_clean_linker_0, # of connection points: 2
#     Edge 27, Type (0, 0), BuildingBlock: CIFDUS_clean_linker_0, # of connection points: 2
#     Edge 28, Type (0, 0), BuildingBlock: CIFDUS_clean_linker_0, # of connection points: 2
#     Edge 29, Type (0, 0), BuildingBlock: CIFDUS_clean_linker_0, # of connection points: 2
#     Edge 30, Type (0, 0), BuildingBlock: CIFDUS_clean_linker_0, # of connection points: 2
#     Edge 31, Type (0, 0), BuildingBlock: CIFDUS_clean_linker_0, # of connection points: 2
#     Edge 32, Type (0, 0), BuildingBlock: CIFDUS_clean_linker_0, # of connection points: 2
#     Edge 33, Type (0, 0), BuildingBlock: CIFDUS_clean_linker_0, # of connection points: 2
#     Edge 34, Type (0, 0), BuildingBlock: CIFDUS_clean_linker_0, # of connection points: 2
#     Edge 35, Type (0, 0), BuildingBlock: CIFDUS_clean_linker_0, # of connection points: 2
#     Edge 36, Type (0, 0), BuildingBlock: CIFDUS_clean_linker_0, # of connection points: 2
#     Edge 37, Type (0, 0), BuildingBlock: CIFDUS_clean_linker_0, # of connection points: 2
#     Edge 38, Type (0, 0), BuildingBlock: CIFDUS_clean_linker_0, # of connection points: 2
#     Edge 39, Type (0, 0), BuildingBlock: CIFDUS_clean_linker_0, # of connection points: 2
#     Edge 40, Type (0, 0), BuildingBlock: CIFDUS_clean_linker_0, # of connection points: 2
#     Edge 41, Type (0, 0), BuildingBlock: CIFDUS_clean_linker_0, # of connection points: 2
#     Edge 42, Type (0, 0), BuildingBlock: CIFDUS_clean_linker_0, # of connection points: 2
#     Edge 43, Type (0, 0), BuildingBlock: CIFDUS_clean_linker_0, # of connection points: 2
#     Edge 44, Type (0, 0), BuildingBlock: CIFDUS_clean_linker_0, # of connection points: 2
#     Edge 45, Type (0, 0), BuildingBlock: CIFDUS_clean_linker_0, # of connection points: 2
#     Edge 46, Type (0, 0), BuildingBlock: CIFDUS_clean_linker_0, # of connection points: 2
#     Edge 47, Type (0, 0), BuildingBlock: CIFDUS_clean_linker_0, # of connection points: 2
# Relax obj value: 0.183
# Max RMSD: 0.081
# Mean RMSD: 0.081
data_MOF--net-pcb--node1-TATPOV_clean_sbu_0--edge1-CIFDUS_clean_linker_0
_symmetry_space_group_name_H-M    P1
_symmetry_Int_Tables_number       1
_symmetry_cell_setting            triclinic
loop_
_symmetry_equiv_pos_as_xyz
'x, y, z'
_cell_length_a     41.261656
_cell_length_b     40.480828
_cell_length_c     40.425817
_cell_angle_alpha  89.738276
_cell_angle_beta   90.085739
_cell_angle_gamma 89.792348
loop_
_atom_site_label
_atom_site_type_symbol
_atom_site_fract_x
_atom_site_fract_y
_atom_site_fract_z
_atom_type_partial_charge
Zn0 Zn 0.11361 0.13071 0.17941 0.0
Zn1 Zn 0.15692 0.16707 0.20757 0.0
O2 O 0.11181 0.1878 0.21985 0.0
O3 O 0.07637 0.15144 0.20215 0.0
O4 O 0.18785 0.1965 0.23184 0.0
O5 O 0.13297 0.08969 0.19869 0.0
O6 O 0.17012 0.11992 0.22314 0.0
C7 C 0.0826 0.17784 0.21733 0.0
C8 C 0.15508 0.16396 0.13271 0.0
O9 O 0.16995 0.1725 0.15888 0.0
O10 O 0.12905 0.14756 0.13457 0.0
C11 C 0.19289 0.22555 0.22104 0.0
O12 O 0.17781 0.23554 0.19413 0.0
C13 C 0.15782 0.09179 0.21686 0.0
Zn14 Zn 0.89667 0.21023 0.10082 0.0
Zn15 Zn 0.85713 0.20626 0.1485 0.0
O16 O 0.89992 0.22741 0.16621 0.0
O17 O 0.93082 0.23667 0.1231 0.0
O18 O 0.8262 0.21531 0.18558 0.0
O19 O 0.8671 0.23176 0.06819 0.0
O20 O 0.83121 0.22134 0.1067 0.0
C21 C 0.92617 0.2386 0.15389 0.0
C22 C 0.88046 0.14221 0.12431 0.0
O23 O 0.86236 0.15645 0.1454 0.0
O24 O 0.89695 0.15944 0.10409 0.0
C25 C 0.79904 0.20111 0.18928 0.0
O26 O 0.79037 0.17798 0.16839 0.0
C27 C 0.83784 0.23063 0.07726 0.0
Zn28 Zn 0.87035 0.89106 0.07046 0.0
Zn29 Zn 0.847 0.87449 0.12508 0.0
O30 O 0.89537 0.86287 0.12988 0.0
O31 O 0.90996 0.8622 0.07768 0.0
O32 O 0.82683 0.85477 0.16607 0.0
O33 O 0.87174 0.938 0.08519 0.0
O34 O 0.84098 0.92569 0.12782 0.0
C35 C 0.91634 0.85639 0.10778 0.0
C36 C 0.81754 0.85293 0.05805 0.0
O37 O 0.8225 0.84774 0.08875 0.0
O38 O 0.83321 0.87525 0.04326 0.0
C39 C 0.8371 0.82637 0.17487 0.0
O40 O 0.86093 0.81267 0.15829 0.0
C41 C 0.85578 0.94717 0.11023 0.0
Zn42 Zn 0.14068 0.91848 0.10088 0.0
Zn43 Zn 0.16811 0.86733 0.11681 0.0
O44 O 0.12086 0.85872 0.13053 0.0
O45 O 0.10383 0.91007 0.13271 0.0
O46 O 0.19257 0.82901 0.13741 0.0
O47 O 0.13599 0.90281 0.05467 0.0
O48 O 0.17145 0.86351 0.06515 0.0
C49 C 0.09917 0.8797 0.13834 0.0
C50 C 0.19234 0.93782 0.13516 0.0
O51 O 0.18969 0.90713 0.14177 0.0
O52 O 0.17564 0.9502 0.11205 0.0
C53 C 0.19028 0.82888 0.16881 0.0
O54 O 0.17187 0.8513 0.18292 0.0
C55 C 0.15332 0.87909 0.04462 0.0
Zn56 Zn 0.09219 0.88705 0.78594 0.0
Zn57 Zn 0.13479 0.84182 0.78573 0.0
O58 O 0.09214 0.82146 0.76579 0.0
O59 O 0.05829 0.86319 0.76107 0.0
O60 O 0.16883 0.80783 0.77531 0.0
O61 O 0.11769 0.92158 0.7627 0.0
O62 O 0.15676 0.88541 0.7698 0.0
C63 C 0.06457 0.83297 0.75686 0.0
C64 C 0.11401 0.86363 0.85205 0.0
O65 O 0.13223 0.84405 0.83597 0.0
O66 O 0.09517 0.88326 0.8366 0.0
C67 C 0.17542 0.78294 0.7934 0.0
O68 O 0.15924 0.77832 0.82099 0.0
C69 C 0.14744 0.91434 0.76134 0.0
Zn70 Zn 0.15342 0.08073 0.91363 0.0
Zn71 Zn 0.1625 0.12845 0.87173 0.0
O72 O 0.11342 0.12683 0.86604 0.0
O73 O 0.10524 0.08758 0.903 0.0
O74 O 0.17965 0.16239 0.83993 0.0
O75 O 0.17284 0.10474 0.95163 0.0
O76 O 0.17335 0.14778 0.91824 0.0
C77 C 0.09411 0.10831 0.88215 0.0
C78 C 0.19015 0.0569 0.86193 0.0
O79 O 0.18454 0.08646 0.85247 0.0
O80 O 0.17998 0.04719 0.88976 0.0
C81 C 0.16596 0.18815 0.82845 0.0
O82 O 0.13643 0.19573 0.83796 0.0
C83 C 0.17735 0.13525 0.94699 0.0
Zn84 Zn 0.8335 0.0892 0.91091 0.0
Zn85 Zn 0.83796 0.12071 0.8564 0.0
O86 O 0.88681 0.12058 0.86375 0.0
O87 O 0.8831 0.09314 0.9108 0.0
O88 O 0.82741 0.14452 0.81383 0.0
O89 O 0.8138 0.04816 0.89324 0.0
O90 O 0.82432 0.07239 0.84581 0.0
C91 C 0.90035 0.10694 0.88871 0.0
C92 C 0.80455 0.14903 0.92041 0.0
O93 O 0.81611 0.15154 0.89125 0.0
O94 O 0.8064 0.12169 0.93547 0.0
C95 C 0.83101 0.17554 0.81071 0.0
O96 O 0.84533 0.19196 0.83455 0.0
C97 C 0.81528 0.04697 0.86207 0.0
Zn98 Zn 0.88322 0.80564 0.87239 0.0
Zn99 Zn 0.83726 0.78362 0.83381 0.0
O100 O 0.88069 0.76923 0.81059 0.0
O101 O 0.91806 0.78475 0.8462 0.0
O102 O 0.80213 0.76672 0.80392 0.0
O103 O 0.86532 0.78098 0.91097 0.0
O104 O 0.82452 0.76494 0.87993 0.0
C105 C 0.91038 0.77076 0.81948 0.0
C106 C 0.84294 0.85751 0.846 0.0
O107 O 0.82807 0.83324 0.83331 0.0
O108 O 0.86812 0.85282 0.86336 0.0
C109 C 0.79593 0.78216 0.77718 0.0
O110 O 0.81385 0.80767 0.76894 0.0
C111 C 0.83867 0.76599 0.90796 0.0
Zn112 Zn 0.6478 0.59317 0.5898 0.0
Zn113 Zn 0.6422 0.63434 0.63945 0.0
O114 O 0.59361 0.62879 0.6329 0.0
O115 O 0.59789 0.59378 0.59147 0.0
O116 O 0.65035 0.66427 0.67818 0.0
O117 O 0.67247 0.55885 0.61525 0.0
O118 O 0.66202 0.59084 0.65764 0.0
C119 C 0.58038 0.6103 0.61134 0.0
C120 C 0.67314 0.65394 0.57154 0.0
O121 O 0.66204 0.66046 0.60015 0.0
O122 O 0.67187 0.62476 0.56068 0.0
C123 C 0.65634 0.69488 0.67485 0.0
O124 O 0.65185 0.70902 0.64589 0.0
C125 C 0.67337 0.56398 0.64603 0.0
Zn126 Zn 0.32711 0.57315 0.60373 0.0
Zn127 Zn 0.31831 0.62508 0.64191 0.0
O128 O 0.36761 0.62739 0.63966 0.0
O129 O 0.3755 0.58456 0.60716 0.0
O130 O 0.30361 0.66398 0.66904 0.0
O131 O 0.30033 0.59132 0.56649 0.0
O132 O 0.29756 0.63645 0.59637 0.0
C133 C 0.38677 0.60843 0.62387 0.0
C134 C 0.30029 0.55376 0.66443 0.0
O135 O 0.30401 0.58451 0.66979 0.0
O136 O 0.30702 0.54197 0.63636 0.0
C137 C 0.29712 0.66262 0.69976 0.0
O138 O 0.30237 0.63502 0.71614 0.0
C139 C 0.29154 0.62108 0.5696 0.0
Zn140 Zn 0.39888 0.36268 0.71955 0.0
Zn141 Zn 0.35767 0.31744 0.71065 0.0
O142 O 0.40007 0.29666 0.73029 0.0
O143 O 0.43093 0.33735 0.74671 0.0
O144 O 0.32415 0.28231 0.71957 0.0
O145 O 0.3709 0.39722 0.74021 0.0
O146 O 0.33465 0.36072 0.72566 0.0
C147 C 0.4261 0.30669 0.74401 0.0
C148 C 0.38492 0.34228 0.64923 0.0
O149 O 0.36451 0.32197 0.66122 0.0
O150 O 0.40137 0.36055 0.66849 0.0
C151 C 0.2939 0.28842 0.72075 0.0
O152 O 0.28337 0.31806 0.71277 0.0
C153 C 0.34153 0.38939 0.73651 0.0
Zn154 Zn 0.61372 0.34279 0.65846 0.0
Zn155 Zn 0.66294 0.30746 0.67105 0.0
O156 O 0.62548 0.2893 0.70172 0.0
O157 O 0.58249 0.31603 0.68338 0.0
O158 O 0.70123 0.28022 0.68604 0.0
O159 O 0.61868 0.33474 0.61023 0.0
O160 O 0.65924 0.30059 0.61997 0.0
C161 C 0.59491 0.29442 0.70208 0.0
C162 C 0.66353 0.38194 0.68424 0.0
O163 O 0.67884 0.35484 0.68053 0.0
O164 O 0.63332 0.38312 0.67903 0.0
C165 C 0.70227 0.24894 0.68381 0.0
O166 O 0.67815 0.23346 0.66943 0.0
C167 C 0.63999 0.31491 0.59964 0.0
Zn168 Zn 0.61611 0.40226 0.3555 0.0
Zn169 Zn 0.6607 0.36237 0.34138 0.0
O170 O 0.62018 0.34718 0.31436 0.0
O171 O 0.58809 0.39032 0.31736 0.0
O172 O 0.69593 0.33259 0.32425 0.0
O173 O 0.64239 0.44272 0.35205 0.0
O174 O 0.68036 0.40959 0.33293 0.0
C175 C 0.5943 0.36216 0.30564 0.0
C176 C 0.63193 0.35783 0.40939 0.0
O177 O 0.65554 0.34981 0.39073 0.0
O178 O 0.611 0.37851 0.39922 0.0
C179 C 0.69062 0.30296 0.31552 0.0
O180 O 0.6615 0.29051 0.31938 0.0
C181 C 0.67009 0.4386 0.33956 0.0
Zn182 Zn 0.63169 0.66478 0.36245 0.0
Zn183 Zn 0.66237 0.69634 0.32311 0.0
O184 O 0.61434 0.70761 0.31067 0.0
O185 O 0.59106 0.66584 0.33595 0.0
O186 O 0.68771 0.72673 0.29367 0.0
O187 O 0.63734 0.69634 0.39998 0.0
O188 O 0.67995 0.70787 0.3701 0.0
C189 C 0.58939 0.68993 0.31608 0.0
C190 C 0.67637 0.62418 0.32932 0.0
O191 O 0.67562 0.6488 0.30953 0.0
O192 O 0.66256 0.62631 0.35716 0.0
C193 C 0.71844 0.72535 0.29269 0.0
O194 O 0.73367 0.70293 0.31052 0.0
C195 C 0.6652 0.70891 0.39776 0.0
Zn196 Zn 0.37129 0.65885 0.36983 0.0
Zn197 Zn 0.33516 0.68157 0.32903 0.0
O198 O 0.37974 0.70401 0.31853 0.0
O199 O 0.41136 0.6687 0.34461 0.0
O200 O 0.30447 0.70469 0.29738 0.0
O201 O 0.35032 0.61425 0.36511 0.0
O202 O 0.33402 0.63196 0.31638 0.0
C203 C 0.40797 0.6927 0.32487 0.0
C204 C 0.32787 0.69447 0.40345 0.0
O205 O 0.31417 0.6891 0.37569 0.0
O206 O 0.35785 0.68895 0.40643 0.0
C207 C 0.29361 0.73274 0.30614 0.0
O208 O 0.30264 0.74482 0.33481 0.0
C209 C 0.33824 0.60839 0.33699 0.0
Zn210 Zn 0.4121 0.38672 0.39504 0.0
Zn211 Zn 0.36414 0.34763 0.37906 0.0
O212 O 0.40316 0.32875 0.35234 0.0
O213 O 0.4434 0.36041 0.36868 0.0
O214 O 0.32809 0.31855 0.36298 0.0
O215 O 0.40454 0.3755 0.44298 0.0
O216 O 0.36625 0.34019 0.42982 0.0
C217 C 0.43302 0.33659 0.35166 0.0
C218 C 0.36165 0.42248 0.36394 0.0
O219 O 0.34768 0.39452 0.36594 0.0
O220 O 0.39057 0.42581 0.37367 0.0
C221 C 0.31978 0.32286 0.33297 0.0
O222 O 0.33451 0.34573 0.31545 0.0
C223 C 0.38378 0.35419 0.45166 0.0
H224 H 0.29117 0.33212 0.2733 0.0
H225 H 0.29253 0.26636 0.35766 0.0
H226 H 0.25323 0.23044 0.33047 0.0
H227 H 0.21947 0.21714 0.28217 0.0
H228 H 0.21749 0.28381 0.1985 0.0
H229 H 0.25612 0.31995 0.22607 0.0
C230 C 0.28286 0.30995 0.2858 0.0
C231 C 0.29489 0.30184 0.31738 0.0
C232 C 0.26023 0.28954 0.27012 0.0
C233 C 0.28363 0.27318 0.33334 0.0
C234 C 0.26123 0.25259 0.31778 0.0
C235 C 0.2275 0.23958 0.26997 0.0
C236 C 0.21575 0.24767 0.23824 0.0
C237 C 0.24954 0.26042 0.28607 0.0
C238 C 0.22614 0.27698 0.22291 0.0
C239 C 0.24827 0.29766 0.23863 0.0
H240 H 0.68347 0.24598 0.28076 0.0
H241 H 0.75463 0.31832 0.30971 0.0
H242 H 0.79514 0.29136 0.27514 0.0
H243 H 0.80914 0.25019 0.23353 0.0
H244 H 0.73775 0.17893 0.20262 0.0
H245 H 0.69863 0.20242 0.24139 0.0
C246 C 0.70795 0.2556 0.27985 0.0
C247 C 0.71593 0.28429 0.29761 0.0
C248 C 0.73102 0.24034 0.25941 0.0
C249 C 0.74776 0.29643 0.29611 0.0
C250 C 0.77096 0.28106 0.27631 0.0
C251 C 0.78512 0.23954 0.23542 0.0
C252 C 0.77632 0.21302 0.21495 0.0
C253 C 0.76265 0.25346 0.25732 0.0
C254 C 0.74513 0.19947 0.21793 0.0
C255 C 0.72272 0.21292 0.24007 0.0
H256 H 0.77545 0.83436 0.19718 0.0
H257 H 0.86137 0.77459 0.21012 0.0
H258 H 0.83262 0.73884 0.24892 0.0
H259 H 0.78233 0.72275 0.27677 0.0
H260 H 0.69553 0.78075 0.26162 0.0
H261 H 0.72532 0.8189 0.22608 0.0
C262 C 0.78797 0.81379 0.20887 0.0
C263 C 0.82047 0.80715 0.20086 0.0
C264 C 0.77105 0.79279 0.23049 0.0
C265 C 0.8363 0.78016 0.21585 0.0
C266 C 0.81988 0.75966 0.23798 0.0
C267 C 0.76996 0.74383 0.26584 0.0
C268 C 0.73675 0.7488 0.27175 0.0
C269 C 0.78711 0.76542 0.24506 0.0
C270 C 0.72106 0.7762 0.2573 0.0
C271 C 0.73809 0.7981 0.23703 0.0
H272 H 0.28241 0.72498 0.23987 0.0
H273 H 0.25512 0.78399 0.32415 0.0
H274 H 0.21982 0.81761 0.28927 0.0
H275 H 0.19801 0.83154 0.23504 0.0
H276 H 0.22639 0.77505 0.14951 0.0
H277 H 0.25988 0.73908 0.18471 0.0
C278 C 0.26855 0.74507 0.25058 0.0
C279 C 0.27143 0.75197 0.28458 0.0
C280 C 0.24858 0.7648 0.23018 0.0
C281 C 0.25352 0.77824 0.29806 0.0
C282 C 0.23326 0.79748 0.27814 0.0
C283 C 0.21132 0.81125 0.22399 0.0
C284 C 0.20964 0.80597 0.18968 0.0
C285 C 0.23082 0.79116 0.24419 0.0
C286 C 0.22728 0.77967 0.17586 0.0
C287 C 0.24643 0.75912 0.19598 0.0
H288 H 0.26751 0.66296 0.75991 0.0
H289 H 0.28676 0.72441 0.67463 0.0
H290 H 0.2522 0.76778 0.69715 0.0
H291 H 0.21352 0.78658 0.73884 0.0
H292 H 0.19289 0.72484 0.82354 0.0
H293 H 0.23111 0.6833 0.80344 0.0
C294 C 0.2645 0.686 0.74644 0.0
C295 C 0.27954 0.69031 0.7155 0.0
C296 C 0.24411 0.71066 0.75926 0.0
C297 C 0.27533 0.72034 0.69839 0.0
C298 C 0.2555 0.74515 0.71121 0.0
C299 C 0.21747 0.76413 0.75305 0.0
C300 C 0.2001 0.75871 0.78249 0.0
C301 C 0.23924 0.74028 0.74125 0.0
C302 C 0.20577 0.72958 0.80069 0.0
C303 C 0.22763 0.70579 0.78922 0.0
H304 H 0.2239 0.17526 0.79971 0.0
H305 H 0.14855 0.24933 0.80479 0.0
H306 H 0.18041 0.28591 0.76922 0.0
H307 H 0.23129 0.29814 0.73992 0.0
H308 H 0.30678 0.22405 0.73628 0.0
H309 H 0.27294 0.18603 0.76779 0.0
C310 C 0.2143 0.19936 0.79298 0.0
C311 C 0.18401 0.20967 0.80523 0.0
C312 C 0.23277 0.22025 0.77276 0.0
C313 C 0.17186 0.24082 0.79587 0.0
C314 C 0.19008 0.26176 0.77555 0.0
C315 C 0.24019 0.27352 0.74561 0.0
C316 C 0.27166 0.26408 0.73592 0.0
C317 C 0.22079 0.25191 0.76427 0.0
C318 C 0.28276 0.23207 0.74356 0.0
C319 C 0.26346 0.21031 0.76168 0.0
H320 H 0.79108 0.14996 0.76367 0.0
H321 H 0.83248 0.24174 0.79723 0.0
H322 H 0.79827 0.2724 0.75842 0.0
H323 H 0.75284 0.27354 0.71922 0.0
H324 H 0.71006 0.18189 0.68716 0.0
H325 H 0.74878 0.15086 0.72095 0.0
C326 C 0.79302 0.17664 0.76219 0.0
C327 C 0.81412 0.19351 0.78364 0.0
C328 C 0.77279 0.1942 0.74029 0.0
C329 C 0.81633 0.22809 0.78121 0.0
C330 C 0.79668 0.24568 0.75908 0.0
C331 C 0.75219 0.24676 0.71928 0.0
C332 C 0.72828 0.23012 0.70094 0.0
C333 C 0.7742 0.22906 0.73917 0.0
C334 C 0.72801 0.19539 0.70119 0.0
C335 C 0.75013 0.17759 0.72057 0.0
H336 H 0.75175 0.73383 0.78923 0.0
H337 H 0.77849 0.808 0.71727 0.0
H338 H 0.73462 0.79021 0.68106 0.0
H339 H 0.69144 0.75105 0.66801 0.0
H340 H 0.66584 0.67557 0.73899 0.0
H341 H 0.70602 0.69699 0.77771 0.0
C342 C 0.74794 0.74618 0.76567 0.0
C343 C 0.76864 0.77194 0.75583 0.0
C344 C 0.72273 0.73576 0.74487 0.0
C345 C 0.76311 0.78791 0.72537 0.0
C346 C 0.73796 0.77782 0.70465 0.0
C347 C 0.69416 0.73965 0.69219 0.0
C348 C 0.67579 0.71163 0.7005 0.0
C349 C 0.71794 0.75147 0.71394 0.0
C350 C 0.67977 0.6971 0.73192 0.0
C351 C 0.70288 0.7092 0.754 0.0
H352 H 0.21841 0.12869 0.99879 0.0
H353 H 0.1384 0.18679 0.96195 0.0
H354 H 0.12617 0.20547 0.01801 0.0
H355 H 0.13134 0.19498 0.07818 0.0
H356 H 0.21304 0.13919 0.11477 0.0
H357 H 0.23196 0.13017 0.05819 0.0
C358 C 0.19928 0.14665 0.00296 0.0
C359 C 0.17917 0.15622 0.97654 0.0
C360 C 0.19231 0.15706 0.03527 0.0
C361 C 0.15434 0.17936 0.98199 0.0
C362 C 0.14704 0.18963 0.01411 0.0
C363 C 0.15389 0.18191 0.07365 0.0
C364 C 0.1707 0.16744 0.10026 0.0
C365 C 0.16476 0.17713 0.04108 0.0
C366 C 0.19988 0.15058 0.09446 0.0
C367 C 0.21055 0.14523 0.06215 0.0
H368 H 0.7658 0.15365 0.97446 0.0
H369 H 0.82795 0.21125 0.91104 0.0
H370 H 0.8365 0.25091 0.95535 0.0
H371 H 0.84003 0.25791 0.01567 0.0
H372 H 0.77975 0.19864 0.07947 0.0
H373 H 0.7557 0.17208 0.03149 0.0
C374 C 0.78004 0.17568 0.96991 0.0
C375 C 0.79719 0.17888 0.94002 0.0
C376 C 0.78569 0.19785 0.99589 0.0
C377 C 0.8149 0.20789 0.93405 0.0
C378 C 0.82011 0.23046 0.95956 0.0
C379 C 0.82051 0.24032 0.01899 0.0
C380 C 0.81276 0.22919 0.05107 0.0
C381 C 0.80774 0.2241 0.99127 0.0
C382 C 0.78676 0.20716 0.05508 0.0
C383 C 0.77326 0.19155 0.02757 0.0
H384 H 0.78332 0.79473 0.92594 0.0
H385 H 0.85649 0.72639 0.95951 0.0
H386 H 0.84646 0.74222 0.01681 0.0
H387 H 0.83155 0.78858 0.05261 0.0
H388 H 0.76785 0.86461 0.01551 0.0
H389 H 0.75856 0.83296 0.9651 0.0
C390 C 0.79557 0.78192 0.94606 0.0
C391 C 0.82079 0.75975 0.93872 0.0
C392 C 0.79202 0.79372 0.97846 0.0
C393 C 0.83693 0.74351 0.96473 0.0
C394 C 0.83162 0.7531 0.99745 0.0
C395 C 0.81426 0.79719 0.03421 0.0
C396 C 0.80046 0.82877 0.03745 0.0
C397 C 0.81139 0.78021 0.00413 0.0
C398 C 0.7786 0.84025 0.01338 0.0
C399 C 0.77365 0.82232 0.98439 0.0
H400 H 0.10496 0.89569 0.00336 0.0
H401 H 0.19488 0.84106 0.00653 0.0
H402 H 0.18973 0.82937 0.94705 0.0
H403 H 0.16061 0.83776 0.89354 0.0
H404 H 0.07103 0.89343 0.8929 0.0
H405 H 0.07517 0.90148 0.95223 0.0
C406 C 0.12361 0.88122 0.9912 0.0
C407 C 0.15056 0.8697 0.00929 0.0
C408 C 0.12049 0.8748 0.95742 0.0
C409 C 0.174 0.85039 0.99313 0.0
C410 C 0.17105 0.84379 0.95914 0.0
C411 C 0.14185 0.85132 0.9065 0.0
C412 C 0.11564 0.86518 0.88865 0.0
C413 C 0.14454 0.85626 0.94092 0.0
C414 C 0.09157 0.88273 0.90583 0.0
C415 C 0.0939 0.88738 0.93982 0.0
H416 H 0.06921 0.23772 0.19206 0.0
H417 H 0.03302 0.16329 0.2586 0.0
H418 H 0.97787 0.1843 0.25152 0.0
H419 H 0.93998 0.21198 0.21376 0.0
H420 H 0.9763 0.28025 0.1407 0.0
H421 H 0.03093 0.27456 0.16333 0.0
C422 C 0.04941 0.2274 0.20635 0.0
C423 C 0.05492 0.19908 0.22575 0.0
C424 C 0.01751 0.23803 0.2001 0.0
C425 C 0.02917 0.18527 0.24369 0.0
C426 C 0.99759 0.19699 0.23922 0.0
C427 C 0.95959 0.22676 0.2038 0.0
C428 C 0.95433 0.24596 0.17521 0.0
C429 C 0.99128 0.22165 0.21556 0.0
C430 C 0.97993 0.26495 0.16247 0.0
C431 C 0.01123 0.26147 0.17523 0.0
H432 H 0.89731 0.99274 0.08725 0.0
H433 H 0.81587 0.98153 0.15311 0.0
H434 H 0.81719 0.04107 0.1649 0.0
H435 H 0.84059 0.09673 0.15427 0.0
H436 H 0.92226 0.10547 0.08799 0.0
H437 H 0.92174 0.04627 0.0788 0.0
C438 C 0.87967 0.00316 0.10418 0.0
C439 C 0.85622 0.98274 0.11893 0.0
C440 C 0.8807 0.037 0.11081 0.0
C441 C 0.83406 0.99673 0.14127 0.0
C442 C 0.83483 0.03075 0.14797 0.0
C443 C 0.85845 0.0856 0.13809 0.0
C444 C 0.88131 0.10569 0.12169 0.0
C445 C 0.85793 0.05121 0.13262 0.0
C446 C 0.90425 0.0908 0.10078 0.0
C447 C 0.90399 0.05688 0.09544 0.0
H448 H 0.95035 0.87965 0.15951 0.0
H449 H 0.95709 0.81438 0.07586 0.0
H450 H 0.0157 0.80948 0.08394 0.0
H451 H 0.06537 0.83229 0.10787 0.0
H452 H 0.0589 0.905 0.18507 0.0
H453 H 0.0 0.89806 0.18726 0.0
C454 C 0.96461 0.86357 0.14376 0.0
C455 C 0.94969 0.84742 0.11714 0.0
C456 C 0.99842 0.86256 0.14732 0.0
C457 C 0.96827 0.82709 0.09644 0.0
C458 C 0.00173 0.82441 0.10099 0.0
C459 C 0.05109 0.84565 0.12598 0.0
C460 C 0.06617 0.86893 0.14644 0.0
C461 C 0.01719 0.84323 0.12537 0.0
C462 C 0.04758 0.88682 0.16926 0.0
C463 C 0.01396 0.88304 0.17028 0.0
H464 H 0.21373 0.07496 0.18869 0.0
H465 H 0.13998 0.0394 0.25483 0.0
H466 H 0.15411 0.98232 0.24142 0.0
H467 H 0.17444 0.94551 0.19813 0.0
H468 H 0.2391 0.9835 0.12383 0.0
H469 H 0.24272 0.036 0.15321 0.0
C470 C 0.20215 0.05457 0.20153 0.0
C471 C 0.176 0.06111 0.22273 0.0
C472 C 0.20836 0.02207 0.19125 0.0
C473 C 0.16041 0.03476 0.23868 0.0
C474 C 0.16816 0.00215 0.23054 0.0
C475 C 0.19069 0.96473 0.1895 0.0
C476 C 0.20653 0.96089 0.15902 0.0
C477 C 0.19023 0.99574 0.20495 0.0
C478 C 0.22693 0.98603 0.14741 0.0
C479 C 0.22858 0.01618 0.16399 0.0
H480 H 0.92237 0.79539 0.7588 0.0
H481 H 0.95955 0.7284 0.8327 0.0
H482 H 0.01434 0.73496 0.81102 0.0
H483 H 0.05192 0.77285 0.7833 0.0
H484 H 0.01468 0.84529 0.71459 0.0
H485 H 0.96014 0.82306 0.72087 0.0
C486 C 0.94224 0.78082 0.76882 0.0
C487 C 0.93715 0.76162 0.79733 0.0
C488 C 0.97401 0.78657 0.75763 0.0
C489 C 0.96305 0.74326 0.81063 0.0
C490 C 0.99447 0.74742 0.79853 0.0
C491 C 0.03214 0.78262 0.76845 0.0
C492 C 0.0371 0.81103 0.74904 0.0
C493 C 0.00048 0.77099 0.7738 0.0
C494 C 0.01128 0.82361 0.73 0.0
C495 C 0.98 0.81112 0.73387 0.0
H496 H 0.20029 0.92047 0.79975 0.0
H497 H 0.1444 0.97131 0.72507 0.0
H498 H 0.16265 0.02449 0.74627 0.0
H499 H 0.17905 0.05465 0.79607 0.0
H500 H 0.22651 0.00236 0.87572 0.0
H501 H 0.22771 0.95203 0.84272 0.0
C502 C 0.1935 0.94314 0.78704 0.0
C503 C 0.17048 0.94211 0.7614 0.0
C504 C 0.20178 0.97356 0.80122 0.0
C505 C 0.16188 0.9716 0.7451 0.0
C506 C 0.1719 0.00203 0.7576 0.0
C507 C 0.19095 0.03261 0.80556 0.0
C508 C 0.20209 0.0319 0.83843 0.0
C509 C 0.18952 0.00321 0.78728 0.0
C510 C 0.21737 0.00324 0.85059 0.0
C511 C 0.21786 0.97441 0.83179 0.0
H512 H 0.04772 0.08212 0.92128 0.0
H513 H 0.0605 0.14223 0.83388 0.0
H514 H 0.00156 0.14761 0.82812 0.0
H515 H 0.94621 0.13477 0.84809 0.0
H516 H 0.93517 0.0756 0.93661 0.0
H517 H 0.99358 0.07056 0.94169 0.0
C518 C 0.03772 0.09632 0.90083 0.0
C519 C 0.05853 0.11154 0.87793 0.0
C520 C 0.00403 0.09961 0.89793 0.0
C521 C 0.04503 0.13017 0.85184 0.0
C522 C 0.01133 0.13327 0.84855 0.0
C523 C 0.95661 0.12088 0.86853 0.0
C524 C 0.93616 0.10557 0.89185 0.0
C525 C 0.99055 0.11807 0.87149 0.0
C526 C 0.95014 0.08771 0.91824 0.0
C527 C 0.98364 0.0847 0.92119 0.0
H528 H 0.85947 0.91048 0.80826 0.0
H529 H 0.79323 0.87745 0.88361 0.0
H530 H 0.77366 0.93402 0.8913 0.0
H531 H 0.78177 0.99336 0.88258 0.0
H532 H 0.8476 0.02688 0.80689 0.0
H533 H 0.86008 0.96971 0.79235 0.0
C534 C 0.84025 0.91579 0.82574 0.0
C535 C 0.82788 0.89032 0.84562 0.0
C536 C 0.82908 0.94837 0.82992 0.0
C537 C 0.80297 0.897 0.86818 0.0
C538 C 0.79187 0.92925 0.87261 0.0
C539 C 0.79806 0.98812 0.8622 0.0
C540 C 0.81409 0.01422 0.84619 0.0
C541 C 0.80558 0.95525 0.85445 0.0
C542 C 0.83491 0.00719 0.81961 0.0
C543 C 0.84241 0.97448 0.81156 0.0
H544 H 0.64454 0.74102 0.45241 0.0
H545 H 0.72482 0.68543 0.4131 0.0
H546 H 0.74032 0.66804 0.46878 0.0
H547 H 0.72028 0.65551 0.52492 0.0
H548 H 0.64033 0.71157 0.56438 0.0
H549 H 0.63595 0.74268 0.51272 0.0
C550 C 0.66646 0.72662 0.4563 0.0
C551 C 0.68306 0.71381 0.42886 0.0
C552 C 0.67475 0.7161 0.48835 0.0
C553 C 0.71159 0.69544 0.43393 0.0
C554 C 0.72016 0.68503 0.46577 0.0
C555 C 0.70294 0.67562 0.52266 0.0
C556 C 0.6801 0.68072 0.54786 0.0
C557 C 0.70034 0.69314 0.49272 0.0
C558 C 0.658 0.70707 0.5451 0.0
C559 C 0.65526 0.72463 0.51541 0.0
H560 H 0.30623 0.6838 0.55234 0.0
H561 H 0.25424 0.59788 0.51928 0.0
H562 H 0.25239 0.62015 0.46304 0.0
H563 H 0.27814 0.65617 0.42195 0.0
H564 H 0.33793 0.73677 0.45434 0.0
H565 H 0.32342 0.72549 0.5119 0.0
C566 C 0.29334 0.67066 0.53308 0.0
C567 C 0.2807 0.63913 0.53974 0.0
C568 C 0.29426 0.68263 0.50041 0.0
C569 C 0.26435 0.62211 0.51456 0.0
C570 C 0.26349 0.63475 0.48237 0.0
C571 C 0.28661 0.67223 0.44155 0.0
C572 C 0.30899 0.69723 0.43414 0.0
C573 C 0.28018 0.6639 0.47466 0.0
C574 C 0.32051 0.71749 0.45963 0.0
C575 C 0.31256 0.71073 0.49255 0.0
H576 H 0.42035 0.37732 0.50192 0.0
H577 H 0.33906 0.31363 0.48191 0.0
H578 H 0.33269 0.30324 0.54136 0.0
H579 H 0.3495 0.31388 0.59931 0.0
H580 H 0.43077 0.3784 0.61747 0.0
H581 H 0.43776 0.38668 0.5584 0.0
C582 C 0.4012 0.36107 0.51039 0.0
C583 C 0.38012 0.34642 0.48739 0.0
C584 C 0.39763 0.35538 0.54438 0.0
C585 C 0.35562 0.32529 0.49903 0.0
C586 C 0.35195 0.31938 0.53304 0.0
C587 C 0.36883 0.32959 0.59031 0.0
C588 C 0.38946 0.34558 0.61297 0.0
C589 C 0.37271 0.33451 0.556 0.0
C590 C 0.41438 0.36589 0.60079 0.0
C591 C 0.41846 0.37068 0.56692 0.0
H592 H 0.67854 0.33014 0.44988 0.0
H593 H 0.57645 0.35361 0.44436 0.0
H594 H 0.5694 0.33697 0.50164 0.0
H595 H 0.59274 0.32229 0.55472 0.0
H596 H 0.69487 0.30125 0.56326 0.0
H597 H 0.70127 0.30938 0.50333 0.0
C598 C 0.65473 0.33111 0.46116 0.0
C599 C 0.62818 0.34367 0.443 0.0
C600 C 0.65084 0.32196 0.49466 0.0
C601 C 0.59742 0.34465 0.45789 0.0
C602 C 0.59329 0.33502 0.49066 0.0
C603 C 0.61636 0.3189 0.54342 0.0
C604 C 0.64335 0.31159 0.56338 0.0
C605 C 0.61993 0.32464 0.50949 0.0
C606 C 0.67369 0.30681 0.54836 0.0
C607 C 0.67739 0.31184 0.51417 0.0
H608 H 0.53445 0.64419 0.64663 0.0
H609 H 0.54566 0.56914 0.57182 0.0
H610 H 0.4872 0.56236 0.56905 0.0
H611 H 0.43294 0.57684 0.58809 0.0
H612 H 0.42064 0.65212 0.66234 0.0
H613 H 0.47938 0.65968 0.66496 0.0
C614 C 0.5241 0.62639 0.62969 0.0
C615 C 0.54458 0.60718 0.60954 0.0
C616 C 0.49022 0.62259 0.62809 0.0
C617 C 0.53064 0.58431 0.58765 0.0
C618 C 0.49713 0.58034 0.58603 0.0
C619 C 0.44301 0.59495 0.60488 0.0
C620 C 0.42232 0.61378 0.62506 0.0
C621 C 0.47671 0.59922 0.6062 0.0
C622 C 0.43594 0.63726 0.6465 0.0
C623 C 0.46956 0.64157 0.64805 0.0
H624 H 0.26624 0.49669 0.66429 0.0
H625 H 0.32592 0.55808 0.7261 0.0
H626 H 0.33824 0.51084 0.76178 0.0
H627 H 0.34405 0.4503 0.76487 0.0
H628 H 0.28431 0.38908 0.70268 0.0
H629 H 0.25899 0.438 0.67872 0.0
C630 C 0.28074 0.49995 0.68644 0.0
C631 C 0.29585 0.53044 0.69216 0.0
C632 C 0.28816 0.47255 0.70649 0.0
C633 C 0.31421 0.53471 0.7211 0.0
C634 C 0.32158 0.50758 0.74132 0.0
C635 C 0.3245 0.44765 0.74712 0.0
C636 C 0.31704 0.41617 0.73464 0.0
C637 C 0.31054 0.476 0.73277 0.0
C638 C 0.29105 0.41302 0.71232 0.0
C639 C 0.27675 0.44108 0.69824 0.0
H640 H 0.54998 0.24748 0.69198 0.0
H641 H 0.58971 0.3116 0.76614 0.0
H642 H 0.5372 0.31444 0.79373 0.0
H643 H 0.47813 0.31339 0.78484 0.0
H644 H 0.43829 0.25054 0.70927 0.0
H645 H 0.49249 0.23141 0.69495 0.0
C646 C 0.54756 0.26025 0.71539 0.0
C647 C 0.57336 0.27965 0.72687 0.0
C648 C 0.5169 0.26281 0.73027 0.0
C649 C 0.57012 0.29637 0.75701 0.0
C650 C 0.53987 0.29852 0.77242 0.0
C651 C 0.48123 0.2943 0.76635 0.0
C652 C 0.45441 0.28434 0.74733 0.0
C653 C 0.51264 0.2841 0.75757 0.0
C654 C 0.45857 0.25906 0.72395 0.0
C655 C 0.48969 0.24837 0.71543 0.0
H656 H 0.71663 0.51436 0.63631 0.0
H657 H 0.64464 0.54998 0.70477 0.0
H658 H 0.6402 0.495 0.72924 0.0
H659 H 0.64642 0.43511 0.72057 0.0
H660 H 0.71874 0.39945 0.65261 0.0
H661 H 0.73416 0.45614 0.63916 0.0
C662 C 0.70096 0.5103 0.65746 0.0
C663 C 0.68037 0.53581 0.66817 0.0
C664 C 0.69823 0.4785 0.67112 0.0
C665 C 0.66055 0.5306 0.69593 0.0
C666 C 0.65773 0.49905 0.70972 0.0
C667 C 0.66651 0.43985 0.70393 0.0
C668 C 0.68099 0.41342 0.68704 0.0
C669 C 0.67488 0.47248 0.69599 0.0
C670 C 0.70721 0.41953 0.6658 0.0
C671 C 0.71575 0.45196 0.6578 0.0
H672 H 0.45219 0.3551 0.29133 0.0
H673 H 0.46826 0.28223 0.36737 0.0
H674 H 0.52409 0.2746 0.34878 0.0
H675 H 0.57082 0.30342 0.32494 0.0
H676 H 0.55528 0.38278 0.25543 0.0
H677 H 0.49714 0.37216 0.25566 0.0
C678 C 0.46744 0.33612 0.30237 0.0
C679 C 0.45653 0.31941 0.33069 0.0
C680 C 0.50008 0.33369 0.29298 0.0
C681 C 0.4763 0.29518 0.34536 0.0
C682 C 0.5084 0.29125 0.33504 0.0
C683 C 0.55485 0.31696 0.30832 0.0
C684 C 0.56697 0.34431 0.2908 0.0
C685 C 0.52119 0.31249 0.31084 0.0
C686 C 0.54627 0.3618 0.26935 0.0
C687 C 0.51294 0.35609 0.26997 0.0
H688 H 0.66918 0.47878 0.28629 0.0
H689 H 0.71195 0.46567 0.38266 0.0
H690 H 0.7246 0.52455 0.38508 0.0
H691 H 0.71064 0.58046 0.36578 0.0
H692 H 0.66639 0.59415 0.2701 0.0
H693 H 0.66785 0.53444 0.26079 0.0
C694 C 0.68282 0.48865 0.30695 0.0
C695 C 0.68985 0.46817 0.3342 0.0
C696 C 0.689 0.52275 0.30855 0.0
C697 C 0.70682 0.48106 0.36126 0.0
C698 C 0.71359 0.5148 0.36283 0.0
C699 C 0.70253 0.57037 0.34237 0.0
C700 C 0.68797 0.59138 0.31886 0.0
C701 C 0.70291 0.53607 0.33755 0.0
C702 C 0.6777 0.57834 0.28851 0.0
C703 C 0.67821 0.54417 0.28337 0.0
H704 H 0.54832 0.74073 0.32821 0.0
H705 H 0.5599 0.65207 0.27092 0.0
H706 H 0.50161 0.65009 0.26083 0.0
H707 H 0.44759 0.66534 0.28058 0.0
H708 H 0.43517 0.75126 0.34154 0.0
H709 H 0.49321 0.76332 0.33741 0.0
C710 C 0.53808 0.72202 0.3122 0.0
C711 C 0.55806 0.69662 0.30018 0.0
C712 C 0.50429 0.72027 0.30777 0.0
C713 C 0.54477 0.67194 0.28012 0.0
C714 C 0.51144 0.67063 0.27466 0.0
C715 C 0.45746 0.6876 0.29151 0.0
C716 C 0.43748 0.70748 0.3112 0.0
C717 C 0.49089 0.69346 0.29009 0.0
C718 C 0.45025 0.73594 0.32588 0.0
C719 C 0.48349 0.74251 0.32391 0.0
H720 H 0.37604 0.46321 0.31315 0.0
H721 H 0.30874 0.44884 0.39321 0.0
H722 H 0.29019 0.50616 0.38774 0.0
H723 H 0.3019 0.56255 0.36779 0.0
H724 H 0.36807 0.57666 0.28671 0.0
H725 H 0.37779 0.51701 0.28413 0.0
C726 C 0.35644 0.47241 0.32848 0.0
C727 C 0.34382 0.45226 0.35368 0.0
C728 C 0.34602 0.50531 0.32515 0.0
C729 C 0.31855 0.46408 0.37355 0.0
C730 C 0.3082 0.49688 0.37062 0.0
C731 C 0.31733 0.55229 0.34867 0.0
C732 C 0.33439 0.57365 0.32755 0.0
C733 C 0.32294 0.5181 0.3476 0.0
C734 C 0.35451 0.56046 0.30296 0.0
C735 C 0.36037 0.52644 0.30179 0.0
loop_
_geom_bond_atom_site_label_1
_geom_bond_atom_site_label_2
_geom_bond_distance
_geom_bond_site_symmetry_2
_ccdc_geom_bond_type
Zn0 O3 2.031 . S
Zn0 O5 2.049 . S
Zn0 O10 2.067 . S
Zn1 O2 1.962 . S
Zn1 O4 1.986 . S
Zn1 O6 1.996 . S
Zn1 O9 1.943 . S
O2 Zn1 1.962 . S
O2 C7 1.254 . S
O3 Zn0 2.031 . S
O3 C7 1.269 . S
O4 Zn1 1.986 . S
O4 C11 1.262 . S
O5 Zn0 2.049 . S
O5 C13 1.260 . S
O6 Zn1 1.996 . S
O6 C13 1.257 . S
C7 O2 1.254 . S
C7 O3 1.269 . S
C8 O9 1.249 . S
C8 O10 1.270 . S
O9 Zn1 1.943 . S
O9 C8 1.249 . S
O10 Zn0 2.067 . S
O10 C8 1.270 . S
C11 O4 1.262 . S
C11 O12 1.232 . S
O12 C11 1.232 . S
C13 O5 1.260 . S
C13 O6 1.257 . S
Zn14 O17 2.031 . S
Zn14 O19 2.049 . S
Zn14 O24 2.067 . S
Zn15 O16 1.962 . S
Zn15 O18 1.986 . S
Zn15 O20 1.996 . S
Zn15 O23 1.943 . S
O16 Zn15 1.962 . S
O16 C21 1.254 . S
O17 Zn14 2.031 . S
O17 C21 1.269 . S
O18 Zn15 1.986 . S
O18 C25 1.262 . S
O19 Zn14 2.049 . S
O19 C27 1.260 . S
O20 Zn15 1.996 . S
O20 C27 1.257 . S
C21 O16 1.254 . S
C21 O17 1.269 . S
C22 O23 1.249 . S
C22 O24 1.270 . S
O23 Zn15 1.943 . S
O23 C22 1.249 . S
O24 Zn14 2.067 . S
O24 C22 1.270 . S
C25 O18 1.262 . S
C25 O26 1.232 . S
O26 C25 1.232 . S
C27 O19 1.260 . S
C27 O20 1.257 . S
Zn28 O31 2.031 . S
Zn28 O33 2.049 . S
Zn28 O38 2.067 . S
Zn29 O30 1.962 . S
Zn29 O32 1.986 . S
Zn29 O34 1.996 . S
Zn29 O37 1.943 . S
O30 Zn29 1.962 . S
O30 C35 1.254 . S
O31 Zn28 2.031 . S
O31 C35 1.269 . S
O32 Zn29 1.986 . S
O32 C39 1.262 . S
O33 Zn28 2.049 . S
O33 C41 1.260 . S
O34 Zn29 1.996 . S
O34 C41 1.257 . S
C35 O30 1.254 . S
C35 O31 1.269 . S
C36 O37 1.249 . S
C36 O38 1.270 . S
O37 Zn29 1.943 . S
O37 C36 1.249 . S
O38 Zn28 2.067 . S
O38 C36 1.270 . S
C39 O32 1.262 . S
C39 O40 1.232 . S
O40 C39 1.232 . S
C41 O33 1.260 . S
C41 O34 1.257 . S
Zn42 O45 2.031 . S
Zn42 O47 2.049 . S
Zn42 O52 2.067 . S
Zn43 O44 1.962 . S
Zn43 O46 1.986 . S
Zn43 O48 1.996 . S
Zn43 O51 1.943 . S
O44 Zn43 1.962 . S
O44 C49 1.254 . S
O45 Zn42 2.031 . S
O45 C49 1.269 . S
O46 Zn43 1.986 . S
O46 C53 1.262 . S
O47 Zn42 2.049 . S
O47 C55 1.260 . S
O48 Zn43 1.996 . S
O48 C55 1.257 . S
C49 O44 1.254 . S
C49 O45 1.269 . S
C50 O51 1.249 . S
C50 O52 1.270 . S
O51 Zn43 1.943 . S
O51 C50 1.249 . S
O52 Zn42 2.067 . S
O52 C50 1.270 . S
C53 O46 1.262 . S
C53 O54 1.232 . S
O54 C53 1.232 . S
C55 O47 1.260 . S
C55 O48 1.257 . S
Zn56 O59 2.031 . S
Zn56 O61 2.049 . S
Zn56 O66 2.067 . S
Zn57 O58 1.962 . S
Zn57 O60 1.986 . S
Zn57 O62 1.996 . S
Zn57 O65 1.943 . S
O58 Zn57 1.962 . S
O58 C63 1.254 . S
O59 Zn56 2.031 . S
O59 C63 1.269 . S
O60 Zn57 1.986 . S
O60 C67 1.262 . S
O61 Zn56 2.049 . S
O61 C69 1.260 . S
O62 Zn57 1.996 . S
O62 C69 1.257 . S
C63 O58 1.254 . S
C63 O59 1.269 . S
C64 O65 1.249 . S
C64 O66 1.270 . S
O65 Zn57 1.943 . S
O65 C64 1.249 . S
O66 Zn56 2.067 . S
O66 C64 1.270 . S
C67 O60 1.262 . S
C67 O68 1.232 . S
O68 C67 1.232 . S
C69 O61 1.260 . S
C69 O62 1.257 . S
Zn70 O73 2.031 . S
Zn70 O75 2.049 . S
Zn70 O80 2.067 . S
Zn71 O72 1.962 . S
Zn71 O74 1.986 . S
Zn71 O76 1.996 . S
Zn71 O79 1.943 . S
O72 Zn71 1.962 . S
O72 C77 1.254 . S
O73 Zn70 2.031 . S
O73 C77 1.269 . S
O74 Zn71 1.986 . S
O74 C81 1.262 . S
O75 Zn70 2.049 . S
O75 C83 1.260 . S
O76 Zn71 1.996 . S
O76 C83 1.257 . S
C77 O72 1.254 . S
C77 O73 1.269 . S
C78 O79 1.249 . S
C78 O80 1.270 . S
O79 Zn71 1.943 . S
O79 C78 1.249 . S
O80 Zn70 2.067 . S
O80 C78 1.270 . S
C81 O74 1.262 . S
C81 O82 1.232 . S
O82 C81 1.232 . S
C83 O75 1.260 . S
C83 O76 1.257 . S
Zn84 O87 2.031 . S
Zn84 O89 2.049 . S
Zn84 O94 2.067 . S
Zn85 O86 1.962 . S
Zn85 O88 1.986 . S
Zn85 O90 1.996 . S
Zn85 O93 1.943 . S
O86 Zn85 1.962 . S
O86 C91 1.254 . S
O87 Zn84 2.031 . S
O87 C91 1.269 . S
O88 Zn85 1.986 . S
O88 C95 1.262 . S
O89 Zn84 2.049 . S
O89 C97 1.260 . S
O90 Zn85 1.996 . S
O90 C97 1.257 . S
C91 O86 1.254 . S
C91 O87 1.269 . S
C92 O93 1.249 . S
C92 O94 1.270 . S
O93 Zn85 1.943 . S
O93 C92 1.249 . S
O94 Zn84 2.067 . S
O94 C92 1.270 . S
C95 O88 1.262 . S
C95 O96 1.232 . S
O96 C95 1.232 . S
C97 O89 1.260 . S
C97 O90 1.257 . S
Zn98 O101 2.031 . S
Zn98 O103 2.049 . S
Zn98 O108 2.067 . S
Zn99 O100 1.962 . S
Zn99 O102 1.986 . S
Zn99 O104 1.996 . S
Zn99 O107 1.943 . S
O100 Zn99 1.962 . S
O100 C105 1.254 . S
O101 Zn98 2.031 . S
O101 C105 1.269 . S
O102 Zn99 1.986 . S
O102 C109 1.262 . S
O103 Zn98 2.049 . S
O103 C111 1.260 . S
O104 Zn99 1.996 . S
O104 C111 1.257 . S
C105 O100 1.254 . S
C105 O101 1.269 . S
C106 O107 1.249 . S
C106 O108 1.270 . S
O107 Zn99 1.943 . S
O107 C106 1.249 . S
O108 Zn98 2.067 . S
O108 C106 1.270 . S
C109 O102 1.262 . S
C109 O110 1.232 . S
O110 C109 1.232 . S
C111 O103 1.260 . S
C111 O104 1.257 . S
Zn112 O115 2.031 . S
Zn112 O117 2.049 . S
Zn112 O122 2.067 . S
Zn113 O114 1.962 . S
Zn113 O116 1.986 . S
Zn113 O118 1.996 . S
Zn113 O121 1.943 . S
O114 Zn113 1.962 . S
O114 C119 1.254 . S
O115 Zn112 2.031 . S
O115 C119 1.269 . S
O116 Zn113 1.986 . S
O116 C123 1.262 . S
O117 Zn112 2.049 . S
O117 C125 1.260 . S
O118 Zn113 1.996 . S
O118 C125 1.257 . S
C119 O114 1.254 . S
C119 O115 1.269 . S
C120 O121 1.249 . S
C120 O122 1.270 . S
O121 Zn113 1.943 . S
O121 C120 1.249 . S
O122 Zn112 2.067 . S
O122 C120 1.270 . S
C123 O116 1.262 . S
C123 O124 1.232 . S
O124 C123 1.232 . S
C125 O117 1.260 . S
C125 O118 1.257 . S
Zn126 O129 2.031 . S
Zn126 O131 2.049 . S
Zn126 O136 2.067 . S
Zn127 O128 1.962 . S
Zn127 O130 1.986 . S
Zn127 O132 1.996 . S
Zn127 O135 1.943 . S
O128 Zn127 1.962 . S
O128 C133 1.254 . S
O129 Zn126 2.031 . S
O129 C133 1.269 . S
O130 Zn127 1.986 . S
O130 C137 1.262 . S
O131 Zn126 2.049 . S
O131 C139 1.260 . S
O132 Zn127 1.996 . S
O132 C139 1.257 . S
C133 O128 1.254 . S
C133 O129 1.269 . S
C134 O135 1.249 . S
C134 O136 1.270 . S
O135 Zn127 1.943 . S
O135 C134 1.249 . S
O136 Zn126 2.067 . S
O136 C134 1.270 . S
C137 O130 1.262 . S
C137 O138 1.232 . S
O138 C137 1.232 . S
C139 O131 1.260 . S
C139 O132 1.257 . S
Zn140 O143 2.031 . S
Zn140 O145 2.049 . S
Zn140 O150 2.067 . S
Zn141 O142 1.962 . S
Zn141 O144 1.986 . S
Zn141 O146 1.996 . S
Zn141 O149 1.943 . S
O142 Zn141 1.962 . S
O142 C147 1.254 . S
O143 Zn140 2.031 . S
O143 C147 1.269 . S
O144 Zn141 1.986 . S
O144 C151 1.262 . S
O145 Zn140 2.049 . S
O145 C153 1.260 . S
O146 Zn141 1.996 . S
O146 C153 1.257 . S
C147 O142 1.254 . S
C147 O143 1.269 . S
C148 O149 1.249 . S
C148 O150 1.270 . S
O149 Zn141 1.943 . S
O149 C148 1.249 . S
O150 Zn140 2.067 . S
O150 C148 1.270 . S
C151 O144 1.262 . S
C151 O152 1.232 . S
O152 C151 1.232 . S
C153 O145 1.260 . S
C153 O146 1.257 . S
Zn154 O157 2.031 . S
Zn154 O159 2.049 . S
Zn154 O164 2.067 . S
Zn155 O156 1.962 . S
Zn155 O158 1.986 . S
Zn155 O160 1.996 . S
Zn155 O163 1.943 . S
O156 Zn155 1.962 . S
O156 C161 1.254 . S
O157 Zn154 2.031 . S
O157 C161 1.269 . S
O158 Zn155 1.986 . S
O158 C165 1.262 . S
O159 Zn154 2.049 . S
O159 C167 1.260 . S
O160 Zn155 1.996 . S
O160 C167 1.257 . S
C161 O156 1.254 . S
C161 O157 1.269 . S
C162 O163 1.249 . S
C162 O164 1.270 . S
O163 Zn155 1.943 . S
O163 C162 1.249 . S
O164 Zn154 2.067 . S
O164 C162 1.270 . S
C165 O158 1.262 . S
C165 O166 1.232 . S
O166 C165 1.232 . S
C167 O159 1.260 . S
C167 O160 1.257 . S
Zn168 O171 2.031 . S
Zn168 O173 2.049 . S
Zn168 O178 2.067 . S
Zn169 O170 1.962 . S
Zn169 O172 1.986 . S
Zn169 O174 1.996 . S
Zn169 O177 1.943 . S
O170 Zn169 1.962 . S
O170 C175 1.254 . S
O171 Zn168 2.031 . S
O171 C175 1.269 . S
O172 Zn169 1.986 . S
O172 C179 1.262 . S
O173 Zn168 2.049 . S
O173 C181 1.260 . S
O174 Zn169 1.996 . S
O174 C181 1.257 . S
C175 O170 1.254 . S
C175 O171 1.269 . S
C176 O177 1.249 . S
C176 O178 1.270 . S
O177 Zn169 1.943 . S
O177 C176 1.249 . S
O178 Zn168 2.067 . S
O178 C176 1.270 . S
C179 O172 1.262 . S
C179 O180 1.232 . S
O180 C179 1.232 . S
C181 O173 1.260 . S
C181 O174 1.257 . S
Zn182 O185 2.031 . S
Zn182 O187 2.049 . S
Zn182 O192 2.067 . S
Zn183 O184 1.962 . S
Zn183 O186 1.986 . S
Zn183 O188 1.996 . S
Zn183 O191 1.943 . S
O184 Zn183 1.962 . S
O184 C189 1.254 . S
O185 Zn182 2.031 . S
O185 C189 1.269 . S
O186 Zn183 1.986 . S
O186 C193 1.262 . S
O187 Zn182 2.049 . S
O187 C195 1.260 . S
O188 Zn183 1.996 . S
O188 C195 1.257 . S
C189 O184 1.254 . S
C189 O185 1.269 . S
C190 O191 1.249 . S
C190 O192 1.270 . S
O191 Zn183 1.943 . S
O191 C190 1.249 . S
O192 Zn182 2.067 . S
O192 C190 1.270 . S
C193 O186 1.262 . S
C193 O194 1.232 . S
O194 C193 1.232 . S
C195 O187 1.260 . S
C195 O188 1.257 . S
Zn196 O199 2.031 . S
Zn196 O201 2.049 . S
Zn196 O206 2.067 . S
Zn197 O198 1.962 . S
Zn197 O200 1.986 . S
Zn197 O202 1.996 . S
Zn197 O205 1.943 . S
O198 Zn197 1.962 . S
O198 C203 1.254 . S
O199 Zn196 2.031 . S
O199 C203 1.269 . S
O200 Zn197 1.986 . S
O200 C207 1.262 . S
O201 Zn196 2.049 . S
O201 C209 1.260 . S
O202 Zn197 1.996 . S
O202 C209 1.257 . S
C203 O198 1.254 . S
C203 O199 1.269 . S
C204 O205 1.249 . S
C204 O206 1.270 . S
O205 Zn197 1.943 . S
O205 C204 1.249 . S
O206 Zn196 2.067 . S
O206 C204 1.270 . S
C207 O200 1.262 . S
C207 O208 1.232 . S
O208 C207 1.232 . S
C209 O201 1.260 . S
C209 O202 1.257 . S
Zn210 O213 2.031 . S
Zn210 O215 2.049 . S
Zn210 O220 2.067 . S
Zn211 O212 1.962 . S
Zn211 O214 1.986 . S
Zn211 O216 1.996 . S
Zn211 O219 1.943 . S
O212 Zn211 1.962 . S
O212 C217 1.254 . S
O213 Zn210 2.031 . S
O213 C217 1.269 . S
O214 Zn211 1.986 . S
O214 C221 1.262 . S
O215 Zn210 2.049 . S
O215 C223 1.260 . S
O216 Zn211 1.996 . S
O216 C223 1.257 . S
C217 O212 1.254 . S
C217 O213 1.269 . S
C218 O219 1.249 . S
C218 O220 1.270 . S
O219 Zn211 1.943 . S
O219 C218 1.249 . S
O220 Zn210 2.067 . S
O220 C218 1.270 . S
C221 O214 1.262 . S
C221 O222 1.232 . S
O222 C221 1.232 . S
C223 O215 1.260 . S
C223 O216 1.257 . S
H224 C230 0.930 . S
H225 C233 0.930 . S
H226 C234 0.930 . S
H227 C235 0.930 . S
H228 C238 0.930 . S
H229 C239 0.930 . S
C230 H224 0.930 . S
C230 C231 1.355 . S
C230 C232 1.415 . S
C231 C230 1.355 . S
C231 C233 1.419 . S
C232 C230 1.415 . S
C232 C237 1.425 . S
C232 C239 1.409 . S
C233 H225 0.930 . S
C233 C231 1.419 . S
C233 C234 1.362 . S
C234 H226 0.930 . S
C234 C233 1.362 . S
C234 C237 1.409 . S
C235 H227 0.930 . S
C235 C236 1.355 . S
C235 C237 1.415 . S
C236 C235 1.355 . S
C236 C238 1.419 . S
C237 C232 1.425 . S
C237 C234 1.409 . S
C237 C235 1.415 . S
C238 H228 0.930 . S
C238 C236 1.419 . S
C238 C239 1.362 . S
C239 H229 0.930 . S
C239 C232 1.409 . S
C239 C238 1.362 . S
H240 C246 0.930 . S
H241 C249 0.930 . S
H242 C250 0.930 . S
H243 C251 0.930 . S
H244 C254 0.930 . S
H245 C255 0.930 . S
C246 H240 0.930 . S
C246 C247 1.355 . S
C246 C248 1.415 . S
C247 C246 1.355 . S
C247 C249 1.419 . S
C248 C246 1.415 . S
C248 C253 1.425 . S
C248 C255 1.409 . S
C249 H241 0.930 . S
C249 C247 1.419 . S
C249 C250 1.362 . S
C250 H242 0.930 . S
C250 C249 1.362 . S
C250 C253 1.409 . S
C251 H243 0.930 . S
C251 C252 1.355 . S
C251 C253 1.415 . S
C252 C251 1.355 . S
C252 C254 1.419 . S
C253 C248 1.425 . S
C253 C250 1.409 . S
C253 C251 1.415 . S
C254 H244 0.930 . S
C254 C252 1.419 . S
C254 C255 1.362 . S
C255 H245 0.930 . S
C255 C248 1.409 . S
C255 C254 1.362 . S
H256 C262 0.930 . S
H257 C265 0.930 . S
H258 C266 0.930 . S
H259 C267 0.930 . S
H260 C270 0.930 . S
H261 C271 0.930 . S
C262 H256 0.930 . S
C262 C263 1.355 . S
C262 C264 1.415 . S
C263 C262 1.355 . S
C263 C265 1.419 . S
C264 C262 1.415 . S
C264 C269 1.425 . S
C264 C271 1.409 . S
C265 H257 0.930 . S
C265 C263 1.419 . S
C265 C266 1.362 . S
C266 H258 0.930 . S
C266 C265 1.362 . S
C266 C269 1.409 . S
C267 H259 0.930 . S
C267 C268 1.355 . S
C267 C269 1.415 . S
C268 C267 1.355 . S
C268 C270 1.419 . S
C269 C264 1.425 . S
C269 C266 1.409 . S
C269 C267 1.415 . S
C270 H260 0.930 . S
C270 C268 1.419 . S
C270 C271 1.362 . S
C271 H261 0.930 . S
C271 C264 1.409 . S
C271 C270 1.362 . S
H272 C278 0.930 . S
H273 C281 0.930 . S
H274 C282 0.930 . S
H275 C283 0.930 . S
H276 C286 0.930 . S
H277 C287 0.930 . S
C278 H272 0.930 . S
C278 C279 1.355 . S
C278 C280 1.415 . S
C279 C278 1.355 . S
C279 C281 1.419 . S
C280 C278 1.415 . S
C280 C285 1.425 . S
C280 C287 1.409 . S
C281 H273 0.930 . S
C281 C279 1.419 . S
C281 C282 1.362 . S
C282 H274 0.930 . S
C282 C281 1.362 . S
C282 C285 1.409 . S
C283 H275 0.930 . S
C283 C284 1.355 . S
C283 C285 1.415 . S
C284 C283 1.355 . S
C284 C286 1.419 . S
C285 C280 1.425 . S
C285 C282 1.409 . S
C285 C283 1.415 . S
C286 H276 0.930 . S
C286 C284 1.419 . S
C286 C287 1.362 . S
C287 H277 0.930 . S
C287 C280 1.409 . S
C287 C286 1.362 . S
H288 C294 0.930 . S
H289 C297 0.930 . S
H290 C298 0.930 . S
H291 C299 0.930 . S
H292 C302 0.930 . S
H293 C303 0.930 . S
C294 H288 0.930 . S
C294 C295 1.355 . S
C294 C296 1.415 . S
C295 C294 1.355 . S
C295 C297 1.419 . S
C296 C294 1.415 . S
C296 C301 1.425 . S
C296 C303 1.409 . S
C297 H289 0.930 . S
C297 C295 1.419 . S
C297 C298 1.362 . S
C298 H290 0.930 . S
C298 C297 1.362 . S
C298 C301 1.409 . S
C299 H291 0.930 . S
C299 C300 1.355 . S
C299 C301 1.415 . S
C300 C299 1.355 . S
C300 C302 1.419 . S
C301 C296 1.425 . S
C301 C298 1.409 . S
C301 C299 1.415 . S
C302 H292 0.930 . S
C302 C300 1.419 . S
C302 C303 1.362 . S
C303 H293 0.930 . S
C303 C296 1.409 . S
C303 C302 1.362 . S
H304 C310 0.930 . S
H305 C313 0.930 . S
H306 C314 0.930 . S
H307 C315 0.930 . S
H308 C318 0.930 . S
H309 C319 0.930 . S
C310 H304 0.930 . S
C310 C311 1.355 . S
C310 C312 1.415 . S
C311 C310 1.355 . S
C311 C313 1.419 . S
C312 C310 1.415 . S
C312 C317 1.425 . S
C312 C319 1.409 . S
C313 H305 0.930 . S
C313 C311 1.419 . S
C313 C314 1.362 . S
C314 H306 0.930 . S
C314 C313 1.362 . S
C314 C317 1.409 . S
C315 H307 0.930 . S
C315 C316 1.355 . S
C315 C317 1.415 . S
C316 C315 1.355 . S
C316 C318 1.419 . S
C317 C312 1.425 . S
C317 C314 1.409 . S
C317 C315 1.415 . S
C318 H308 0.930 . S
C318 C316 1.419 . S
C318 C319 1.362 . S
C319 H309 0.930 . S
C319 C312 1.409 . S
C319 C318 1.362 . S
H320 C326 0.930 . S
H321 C329 0.930 . S
H322 C330 0.930 . S
H323 C331 0.930 . S
H324 C334 0.930 . S
H325 C335 0.930 . S
C326 H320 0.930 . S
C326 C327 1.355 . S
C326 C328 1.415 . S
C327 C326 1.355 . S
C327 C329 1.419 . S
C328 C326 1.415 . S
C328 C333 1.425 . S
C328 C335 1.409 . S
C329 H321 0.930 . S
C329 C327 1.419 . S
C329 C330 1.362 . S
C330 H322 0.930 . S
C330 C329 1.362 . S
C330 C333 1.409 . S
C331 H323 0.930 . S
C331 C332 1.355 . S
C331 C333 1.415 . S
C332 C331 1.355 . S
C332 C334 1.419 . S
C333 C328 1.425 . S
C333 C330 1.409 . S
C333 C331 1.415 . S
C334 H324 0.930 . S
C334 C332 1.419 . S
C334 C335 1.362 . S
C335 H325 0.930 . S
C335 C328 1.409 . S
C335 C334 1.362 . S
H336 C342 0.930 . S
H337 C345 0.930 . S
H338 C346 0.930 . S
H339 C347 0.930 . S
H340 C350 0.930 . S
H341 C351 0.930 . S
C342 H336 0.930 . S
C342 C343 1.355 . S
C342 C344 1.415 . S
C343 C342 1.355 . S
C343 C345 1.419 . S
C344 C342 1.415 . S
C344 C349 1.425 . S
C344 C351 1.409 . S
C345 H337 0.930 . S
C345 C343 1.419 . S
C345 C346 1.362 . S
C346 H338 0.930 . S
C346 C345 1.362 . S
C346 C349 1.409 . S
C347 H339 0.930 . S
C347 C348 1.355 . S
C347 C349 1.415 . S
C348 C347 1.355 . S
C348 C350 1.419 . S
C349 C344 1.425 . S
C349 C346 1.409 . S
C349 C347 1.415 . S
C350 H340 0.930 . S
C350 C348 1.419 . S
C350 C351 1.362 . S
C351 H341 0.930 . S
C351 C344 1.409 . S
C351 C350 1.362 . S
H352 C358 0.930 . S
H353 C361 0.930 . S
H354 C362 0.939 . S
H355 C363 0.930 . S
H356 C366 0.930 . S
H357 C367 0.930 . S
C358 H352 0.930 . S
C358 C359 1.355 . S
C358 C360 1.415 1_556 S
C359 C358 1.355 . S
C359 C361 1.419 . S
C360 C358 1.415 1_554 S
C360 C365 1.425 . S
C360 C367 1.409 . S
C361 H353 0.930 . S
C361 C359 1.419 . S
C361 C362 1.362 . S
C362 H354 0.939 . S
C362 C361 1.362 . S
C362 C365 1.409 1_556 S
C363 H355 0.930 . S
C363 C364 1.355 . S
C363 C365 1.415 . S
C364 C363 1.355 . S
C364 C366 1.419 . S
C365 C360 1.425 . S
C365 C362 1.409 1_554 S
C365 C363 1.415 . S
C366 H356 0.930 . S
C366 C364 1.419 . S
C366 C367 1.362 . S
C367 H357 0.930 . S
C367 C360 1.409 . S
C367 C366 1.362 . S
H368 C374 0.930 . S
H369 C377 0.930 . S
H370 C378 0.930 . S
H371 C379 0.930 . S
H372 C382 0.930 . S
H373 C383 0.930 1_556 S
C374 H368 0.930 . S
C374 C375 1.355 . S
C374 C376 1.415 . S
C375 C374 1.355 . S
C375 C377 1.419 . S
C376 C374 1.415 . S
C376 C381 1.425 . S
C376 C383 1.409 1_556 S
C377 H369 0.930 . S
C377 C375 1.419 . S
C377 C378 1.362 . S
C378 H370 0.930 . S
C378 C377 1.362 . S
C378 C381 1.409 . S
C379 H371 0.930 . S
C379 C380 1.355 . S
C379 C381 1.415 1_554 S
C380 C379 1.355 . S
C380 C382 1.419 . S
C381 C376 1.425 . S
C381 C378 1.409 . S
C381 C379 1.415 1_556 S
C382 H372 0.930 . S
C382 C380 1.419 . S
C382 C383 1.362 . S
C383 H373 0.930 1_554 S
C383 C376 1.409 1_554 S
C383 C382 1.362 . S
H384 C390 0.930 . S
H385 C393 0.930 . S
H386 C394 0.930 1_554 S
H387 C395 0.930 . S
H388 C398 0.930 . S
H389 C399 0.930 . S
C390 H384 0.930 . S
C390 C391 1.355 . S
C390 C392 1.415 1_556 S
C391 C390 1.355 . S
C391 C393 1.419 . S
C392 C390 1.415 1_554 S
C392 C397 1.425 . S
C392 C399 1.409 . S
C393 H385 0.930 . S
C393 C391 1.419 . S
C393 C394 1.362 . S
C394 H386 0.930 1_556 S
C394 C393 1.362 . S
C394 C397 1.409 1_556 S
C395 H387 0.930 . S
C395 C396 1.355 . S
C395 C397 1.415 . S
C396 C395 1.355 . S
C396 C398 1.419 . S
C397 C392 1.425 . S
C397 C394 1.409 1_554 S
C397 C395 1.415 . S
C398 H388 0.930 . S
C398 C396 1.419 . S
C398 C399 1.362 . S
C399 H389 0.930 . S
C399 C392 1.409 . S
C399 C398 1.362 . S
H400 C406 0.930 . S
H401 C409 0.930 . S
H402 C410 0.930 1_556 S
H403 C411 0.930 . S
H404 C414 0.930 . S
H405 C415 0.930 . S
C406 H400 0.930 . S
C406 C407 1.355 . S
C406 C408 1.415 1_554 S
C407 C406 1.355 . S
C407 C409 1.419 . S
C408 C406 1.415 1_556 S
C408 C413 1.425 . S
C408 C415 1.409 . S
C409 H401 0.930 . S
C409 C407 1.419 . S
C409 C410 1.362 . S
C410 H402 0.930 1_554 S
C410 C409 1.362 . S
C410 C413 1.409 1_554 S
C411 H403 0.930 . S
C411 C412 1.355 . S
C411 C413 1.415 . S
C412 C411 1.355 . S
C412 C414 1.419 . S
C413 C408 1.425 . S
C413 C410 1.409 1_556 S
C413 C411 1.415 . S
C414 H404 0.930 . S
C414 C412 1.419 . S
C414 C415 1.362 . S
C415 H405 0.930 . S
C415 C408 1.409 . S
C415 C414 1.362 . S
H416 C422 0.930 . S
H417 C425 0.930 . S
H418 C426 0.930 . S
H419 C427 0.930 . S
H420 C430 0.930 . S
H421 C431 0.930 . S
C422 H416 0.930 . S
C422 C423 1.355 . S
C422 C424 1.415 . S
C423 C422 1.355 . S
C423 C425 1.419 . S
C424 C422 1.415 . S
C424 C429 1.425 1_455 S
C424 C431 1.409 1_455 S
C425 H417 0.930 . S
C425 C423 1.419 . S
C425 C426 1.362 . S
C426 H418 0.930 . S
C426 C425 1.362 . S
C426 C429 1.409 1_455 S
C427 H419 0.930 . S
C427 C428 1.355 . S
C427 C429 1.415 . S
C428 C427 1.355 . S
C428 C430 1.419 . S
C429 C424 1.425 1_655 S
C429 C426 1.409 1_655 S
C429 C427 1.415 . S
C430 H420 0.930 . S
C430 C428 1.419 . S
C430 C431 1.362 . S
C431 H421 0.930 . S
C431 C424 1.409 1_655 S
C431 C430 1.362 . S
H432 C438 0.930 . S
H433 C441 0.930 . S
H434 C442 0.930 . S
H435 C443 0.930 . S
H436 C446 0.930 . S
H437 C447 0.930 . S
C438 H432 0.930 . S
C438 C439 1.355 . S
C438 C440 1.415 1_565 S
C439 C438 1.355 . S
C439 C441 1.419 . S
C440 C438 1.415 1_545 S
C440 C445 1.425 . S
C440 C447 1.409 . S
C441 H433 0.930 . S
C441 C439 1.419 . S
C441 C442 1.362 1_565 S
C442 H434 0.930 . S
C442 C441 1.362 1_545 S
C442 C445 1.409 . S
C443 H435 0.930 . S
C443 C444 1.355 . S
C443 C445 1.415 . S
C444 C443 1.355 . S
C444 C446 1.419 . S
C445 C440 1.425 . S
C445 C442 1.409 . S
C445 C443 1.415 . S
C446 H436 0.930 . S
C446 C444 1.419 . S
C446 C447 1.362 . S
C447 H437 0.930 . S
C447 C440 1.409 . S
C447 C446 1.362 . S
H448 C454 0.930 . S
H449 C457 0.930 . S
H450 C458 0.930 . S
H451 C459 0.930 . S
H452 C462 0.930 . S
H453 C463 0.930 . S
C454 H448 0.930 . S
C454 C455 1.355 . S
C454 C456 1.415 . S
C455 C454 1.355 . S
C455 C457 1.419 . S
C456 C454 1.415 . S
C456 C461 1.425 1_655 S
C456 C463 1.409 1_655 S
C457 H449 0.930 . S
C457 C455 1.419 . S
C457 C458 1.362 . S
C458 H450 0.930 . S
C458 C457 1.362 . S
C458 C461 1.409 1_655 S
C459 H451 0.930 . S
C459 C460 1.355 . S
C459 C461 1.415 . S
C460 C459 1.355 . S
C460 C462 1.419 . S
C461 C456 1.425 1_455 S
C461 C458 1.409 1_455 S
C461 C459 1.415 . S
C462 H452 0.930 . S
C462 C460 1.419 . S
C462 C463 1.362 . S
C463 H453 0.930 . S
C463 C456 1.409 1_455 S
C463 C462 1.362 . S
H464 C470 0.930 . S
H465 C473 0.930 . S
H466 C474 0.927 1_565 S
H467 C475 0.930 . S
H468 C478 0.930 . S
H469 C479 0.930 . S
C470 H464 0.930 . S
C470 C471 1.355 . S
C470 C472 1.415 1_545 S
C471 C470 1.355 . S
C471 C473 1.419 . S
C472 C470 1.415 1_565 S
C472 C477 1.425 . S
C472 C479 1.409 . S
C473 H465 0.930 . S
C473 C471 1.419 . S
C473 C474 1.362 . S
C474 H466 0.927 1_545 S
C474 C473 1.362 . S
C474 C477 1.409 1_545 S
C475 H467 0.930 . S
C475 C476 1.355 . S
C475 C477 1.415 . S
C476 C475 1.355 . S
C476 C478 1.419 . S
C477 C472 1.425 . S
C477 C474 1.409 1_565 S
C477 C475 1.415 . S
C478 H468 0.930 . S
C478 C476 1.419 . S
C478 C479 1.362 . S
C479 H469 0.930 . S
C479 C472 1.409 . S
C479 C478 1.362 . S
H480 C486 0.930 . S
H481 C489 0.930 . S
H482 C490 0.930 . S
H483 C491 0.930 . S
H484 C494 0.930 . S
H485 C495 0.930 . S
C486 H480 0.930 . S
C486 C487 1.355 . S
C486 C488 1.415 . S
C487 C486 1.355 . S
C487 C489 1.419 . S
C488 C486 1.415 . S
C488 C493 1.425 1_655 S
C488 C495 1.409 1_655 S
C489 H481 0.930 . S
C489 C487 1.419 . S
C489 C490 1.362 . S
C490 H482 0.930 . S
C490 C489 1.362 . S
C490 C493 1.409 1_655 S
C491 H483 0.930 . S
C491 C492 1.355 . S
C491 C493 1.415 . S
C492 C491 1.355 . S
C492 C494 1.419 . S
C493 C488 1.425 1_455 S
C493 C490 1.409 1_455 S
C493 C491 1.415 . S
C494 H484 0.930 . S
C494 C492 1.419 . S
C494 C495 1.362 . S
C495 H485 0.930 . S
C495 C488 1.409 1_455 S
C495 C494 1.362 . S
H496 C502 0.930 . S
H497 C505 0.930 . S
H498 C506 0.930 1_545 S
H499 C507 0.930 . S
H500 C510 0.930 . S
H501 C511 0.930 . S
C502 H496 0.930 . S
C502 C503 1.355 . S
C502 C504 1.415 1_565 S
C503 C502 1.355 . S
C503 C505 1.419 . S
C504 C502 1.415 1_545 S
C504 C509 1.425 . S
C504 C511 1.409 . S
C505 H497 0.930 . S
C505 C503 1.419 . S
C505 C506 1.362 . S
C506 H498 0.930 1_565 S
C506 C505 1.362 . S
C506 C509 1.409 1_565 S
C507 H499 0.930 . S
C507 C508 1.355 . S
C507 C509 1.415 . S
C508 C507 1.355 . S
C508 C510 1.419 . S
C509 C504 1.425 . S
C509 C506 1.409 1_545 S
C509 C507 1.415 . S
C510 H500 0.930 . S
C510 C508 1.419 . S
C510 C511 1.362 . S
C511 H501 0.930 . S
C511 C504 1.409 . S
C511 C510 1.362 . S
H512 C518 0.930 . S
H513 C521 0.930 . S
H514 C522 0.930 . S
H515 C523 0.930 . S
H516 C526 0.930 . S
H517 C527 0.930 . S
C518 H512 0.930 . S
C518 C519 1.355 . S
C518 C520 1.415 . S
C519 C518 1.355 . S
C519 C521 1.419 . S
C520 C518 1.415 . S
C520 C525 1.425 1_455 S
C520 C527 1.409 1_455 S
C521 H513 0.930 . S
C521 C519 1.419 . S
C521 C522 1.362 . S
C522 H514 0.930 . S
C522 C521 1.362 . S
C522 C525 1.409 1_455 S
C523 H515 0.930 . S
C523 C524 1.355 . S
C523 C525 1.415 . S
C524 C523 1.355 . S
C524 C526 1.419 . S
C525 C520 1.425 1_655 S
C525 C522 1.409 1_655 S
C525 C523 1.415 . S
C526 H516 0.930 . S
C526 C524 1.419 . S
C526 C527 1.362 . S
C527 H517 0.930 . S
C527 C520 1.409 1_655 S
C527 C526 1.362 . S
H528 C534 0.930 . S
H529 C537 0.930 . S
H530 C538 0.930 . S
H531 C539 0.930 . S
H532 C542 0.930 . S
H533 C543 0.930 . S
C534 H528 0.930 . S
C534 C535 1.355 . S
C534 C536 1.415 . S
C535 C534 1.355 . S
C535 C537 1.419 . S
C536 C534 1.415 . S
C536 C541 1.425 . S
C536 C543 1.409 1_565 S
C537 H529 0.930 . S
C537 C535 1.419 . S
C537 C538 1.362 . S
C538 H530 0.930 . S
C538 C537 1.362 . S
C538 C541 1.409 . S
C539 H531 0.930 . S
C539 C540 1.355 . S
C539 C541 1.415 1_545 S
C540 C539 1.355 . S
C540 C542 1.419 . S
C541 C536 1.425 . S
C541 C538 1.409 . S
C541 C539 1.415 1_565 S
C542 H532 0.930 . S
C542 C540 1.419 . S
C542 C543 1.362 . S
C543 H533 0.930 . S
C543 C536 1.409 1_545 S
C543 C542 1.362 . S
H544 C550 0.930 . S
H545 C553 0.930 . S
H546 C554 0.930 . S
H547 C555 0.930 . S
H548 C558 0.930 . S
H549 C559 0.930 . S
C550 H544 0.930 . S
C550 C551 1.355 . S
C550 C552 1.415 . S
C551 C550 1.355 . S
C551 C553 1.419 . S
C552 C550 1.415 . S
C552 C557 1.425 . S
C552 C559 1.409 . S
C553 H545 0.930 . S
C553 C551 1.419 . S
C553 C554 1.362 . S
C554 H546 0.930 . S
C554 C553 1.362 . S
C554 C557 1.409 . S
C555 H547 0.930 . S
C555 C556 1.355 . S
C555 C557 1.415 . S
C556 C555 1.355 . S
C556 C558 1.419 . S
C557 C552 1.425 . S
C557 C554 1.409 . S
C557 C555 1.415 . S
C558 H548 0.930 . S
C558 C556 1.419 . S
C558 C559 1.362 . S
C559 H549 0.930 . S
C559 C552 1.409 . S
C559 C558 1.362 . S
H560 C566 0.930 . S
H561 C569 0.930 . S
H562 C570 0.930 . S
H563 C571 0.930 . S
H564 C574 0.930 . S
H565 C575 0.930 . S
C566 H560 0.930 . S
C566 C567 1.355 . S
C566 C568 1.415 . S
C567 C566 1.355 . S
C567 C569 1.419 . S
C568 C566 1.415 . S
C568 C573 1.425 . S
C568 C575 1.409 . S
C569 H561 0.930 . S
C569 C567 1.419 . S
C569 C570 1.362 . S
C570 H562 0.930 . S
C570 C569 1.362 . S
C570 C573 1.409 . S
C571 H563 0.930 . S
C571 C572 1.355 . S
C571 C573 1.415 . S
C572 C571 1.355 . S
C572 C574 1.419 . S
C573 C568 1.425 . S
C573 C570 1.409 . S
C573 C571 1.415 . S
C574 H564 0.930 . S
C574 C572 1.419 . S
C574 C575 1.362 . S
C575 H565 0.930 . S
C575 C568 1.409 . S
C575 C574 1.362 . S
H576 C582 0.930 . S
H577 C585 0.930 . S
H578 C586 0.930 . S
H579 C587 0.930 . S
H580 C590 0.930 . S
H581 C591 0.930 . S
C582 H576 0.930 . S
C582 C583 1.355 . S
C582 C584 1.415 . S
C583 C582 1.355 . S
C583 C585 1.419 . S
C584 C582 1.415 . S
C584 C589 1.425 . S
C584 C591 1.409 . S
C585 H577 0.930 . S
C585 C583 1.419 . S
C585 C586 1.362 . S
C586 H578 0.930 . S
C586 C585 1.362 . S
C586 C589 1.409 . S
C587 H579 0.930 . S
C587 C588 1.355 . S
C587 C589 1.415 . S
C588 C587 1.355 . S
C588 C590 1.419 . S
C589 C584 1.425 . S
C589 C586 1.409 . S
C589 C587 1.415 . S
C590 H580 0.930 . S
C590 C588 1.419 . S
C590 C591 1.362 . S
C591 H581 0.930 . S
C591 C584 1.409 . S
C591 C590 1.362 . S
H592 C598 0.930 . S
H593 C601 0.930 . S
H594 C602 0.930 . S
H595 C603 0.930 . S
H596 C606 0.930 . S
H597 C607 0.930 . S
C598 H592 0.930 . S
C598 C599 1.355 . S
C598 C600 1.415 . S
C599 C598 1.355 . S
C599 C601 1.419 . S
C600 C598 1.415 . S
C600 C605 1.425 . S
C600 C607 1.409 . S
C601 H593 0.930 . S
C601 C599 1.419 . S
C601 C602 1.362 . S
C602 H594 0.930 . S
C602 C601 1.362 . S
C602 C605 1.409 . S
C603 H595 0.930 . S
C603 C604 1.355 . S
C603 C605 1.415 . S
C604 C603 1.355 . S
C604 C606 1.419 . S
C605 C600 1.425 . S
C605 C602 1.409 . S
C605 C603 1.415 . S
C606 H596 0.930 . S
C606 C604 1.419 . S
C606 C607 1.362 . S
C607 H597 0.930 . S
C607 C600 1.409 . S
C607 C606 1.362 . S
H608 C614 0.930 . S
H609 C617 0.930 . S
H610 C618 0.930 . S
H611 C619 0.930 . S
H612 C622 0.930 . S
H613 C623 0.930 . S
C614 H608 0.930 . S
C614 C615 1.355 . S
C614 C616 1.415 . S
C615 C614 1.355 . S
C615 C617 1.419 . S
C616 C614 1.415 . S
C616 C621 1.425 . S
C616 C623 1.409 . S
C617 H609 0.930 . S
C617 C615 1.419 . S
C617 C618 1.362 . S
C618 H610 0.930 . S
C618 C617 1.362 . S
C618 C621 1.409 . S
C619 H611 0.930 . S
C619 C620 1.355 . S
C619 C621 1.415 . S
C620 C619 1.355 . S
C620 C622 1.419 . S
C621 C616 1.425 . S
C621 C618 1.409 . S
C621 C619 1.415 . S
C622 H612 0.930 . S
C622 C620 1.419 . S
C622 C623 1.362 . S
C623 H613 0.930 . S
C623 C616 1.409 . S
C623 C622 1.362 . S
H624 C630 0.930 . S
H625 C633 0.930 . S
H626 C634 0.930 . S
H627 C635 0.930 . S
H628 C638 0.930 . S
H629 C639 0.930 . S
C630 H624 0.930 . S
C630 C631 1.355 . S
C630 C632 1.415 . S
C631 C630 1.355 . S
C631 C633 1.419 . S
C632 C630 1.415 . S
C632 C637 1.425 . S
C632 C639 1.409 . S
C633 H625 0.930 . S
C633 C631 1.419 . S
C633 C634 1.362 . S
C634 H626 0.930 . S
C634 C633 1.362 . S
C634 C637 1.409 . S
C635 H627 0.930 . S
C635 C636 1.355 . S
C635 C637 1.415 . S
C636 C635 1.355 . S
C636 C638 1.419 . S
C637 C632 1.425 . S
C637 C634 1.409 . S
C637 C635 1.415 . S
C638 H628 0.930 . S
C638 C636 1.419 . S
C638 C639 1.362 . S
C639 H629 0.930 . S
C639 C632 1.409 . S
C639 C638 1.362 . S
H640 C646 0.930 . S
H641 C649 0.930 . S
H642 C650 0.930 . S
H643 C651 0.930 . S
H644 C654 0.930 . S
H645 C655 0.930 . S
C646 H640 0.930 . S
C646 C647 1.355 . S
C646 C648 1.415 . S
C647 C646 1.355 . S
C647 C649 1.419 . S
C648 C646 1.415 . S
C648 C653 1.425 . S
C648 C655 1.409 . S
C649 H641 0.930 . S
C649 C647 1.419 . S
C649 C650 1.362 . S
C650 H642 0.930 . S
C650 C649 1.362 . S
C650 C653 1.409 . S
C651 H643 0.930 . S
C651 C652 1.355 . S
C651 C653 1.415 . S
C652 C651 1.355 . S
C652 C654 1.419 . S
C653 C648 1.425 . S
C653 C650 1.409 . S
C653 C651 1.415 . S
C654 H644 0.930 . S
C654 C652 1.419 . S
C654 C655 1.362 . S
C655 H645 0.930 . S
C655 C648 1.409 . S
C655 C654 1.362 . S
H656 C662 0.930 . S
H657 C665 0.930 . S
H658 C666 0.930 . S
H659 C667 0.930 . S
H660 C670 0.930 . S
H661 C671 0.930 . S
C662 H656 0.930 . S
C662 C663 1.355 . S
C662 C664 1.415 . S
C663 C662 1.355 . S
C663 C665 1.419 . S
C664 C662 1.415 . S
C664 C669 1.425 . S
C664 C671 1.409 . S
C665 H657 0.930 . S
C665 C663 1.419 . S
C665 C666 1.362 . S
C666 H658 0.930 . S
C666 C665 1.362 . S
C666 C669 1.409 . S
C667 H659 0.930 . S
C667 C668 1.355 . S
C667 C669 1.415 . S
C668 C667 1.355 . S
C668 C670 1.419 . S
C669 C664 1.425 . S
C669 C666 1.409 . S
C669 C667 1.415 . S
C670 H660 0.930 . S
C670 C668 1.419 . S
C670 C671 1.362 . S
C671 H661 0.930 . S
C671 C664 1.409 . S
C671 C670 1.362 . S
H672 C678 0.930 . S
H673 C681 0.930 . S
H674 C682 0.930 . S
H675 C683 0.930 . S
H676 C686 0.930 . S
H677 C687 0.930 . S
C678 H672 0.930 . S
C678 C679 1.355 . S
C678 C680 1.415 . S
C679 C678 1.355 . S
C679 C681 1.419 . S
C680 C678 1.415 . S
C680 C685 1.425 . S
C680 C687 1.409 . S
C681 H673 0.930 . S
C681 C679 1.419 . S
C681 C682 1.362 . S
C682 H674 0.930 . S
C682 C681 1.362 . S
C682 C685 1.409 . S
C683 H675 0.930 . S
C683 C684 1.355 . S
C683 C685 1.415 . S
C684 C683 1.355 . S
C684 C686 1.419 . S
C685 C680 1.425 . S
C685 C682 1.409 . S
C685 C683 1.415 . S
C686 H676 0.930 . S
C686 C684 1.419 . S
C686 C687 1.362 . S
C687 H677 0.930 . S
C687 C680 1.409 . S
C687 C686 1.362 . S
H688 C694 0.930 . S
H689 C697 0.930 . S
H690 C698 0.930 . S
H691 C699 0.930 . S
H692 C702 0.930 . S
H693 C703 0.930 . S
C694 H688 0.930 . S
C694 C695 1.355 . S
C694 C696 1.415 . S
C695 C694 1.355 . S
C695 C697 1.419 . S
C696 C694 1.415 . S
C696 C701 1.425 . S
C696 C703 1.409 . S
C697 H689 0.930 . S
C697 C695 1.419 . S
C697 C698 1.362 . S
C698 H690 0.930 . S
C698 C697 1.362 . S
C698 C701 1.409 . S
C699 H691 0.930 . S
C699 C700 1.355 . S
C699 C701 1.415 . S
C700 C699 1.355 . S
C700 C702 1.419 . S
C701 C696 1.425 . S
C701 C698 1.409 . S
C701 C699 1.415 . S
C702 H692 0.930 . S
C702 C700 1.419 . S
C702 C703 1.362 . S
C703 H693 0.930 . S
C703 C696 1.409 . S
C703 C702 1.362 . S
H704 C710 0.930 . S
H705 C713 0.930 . S
H706 C714 0.930 . S
H707 C715 0.930 . S
H708 C718 0.930 . S
H709 C719 0.930 . S
C710 H704 0.930 . S
C710 C711 1.355 . S
C710 C712 1.415 . S
C711 C710 1.355 . S
C711 C713 1.419 . S
C712 C710 1.415 . S
C712 C717 1.425 . S
C712 C719 1.409 . S
C713 H705 0.930 . S
C713 C711 1.419 . S
C713 C714 1.362 . S
C714 H706 0.930 . S
C714 C713 1.362 . S
C714 C717 1.409 . S
C715 H707 0.930 . S
C715 C716 1.355 . S
C715 C717 1.415 . S
C716 C715 1.355 . S
C716 C718 1.419 . S
C717 C712 1.425 . S
C717 C714 1.409 . S
C717 C715 1.415 . S
C718 H708 0.930 . S
C718 C716 1.419 . S
C718 C719 1.362 . S
C719 H709 0.930 . S
C719 C712 1.409 . S
C719 C718 1.362 . S
H720 C726 0.930 . S
H721 C729 0.930 . S
H722 C730 0.930 . S
H723 C731 0.930 . S
H724 C734 0.930 . S
H725 C735 0.930 . S
C726 H720 0.930 . S
C726 C727 1.355 . S
C726 C728 1.415 . S
C727 C726 1.355 . S
C727 C729 1.419 . S
C728 C726 1.415 . S
C728 C733 1.425 . S
C728 C735 1.409 . S
C729 H721 0.930 . S
C729 C727 1.419 . S
C729 C730 1.362 . S
C730 H722 0.930 . S
C730 C729 1.362 . S
C730 C733 1.409 . S
C731 H723 0.930 . S
C731 C732 1.355 . S
C731 C733 1.415 . S
C732 C731 1.355 . S
C732 C734 1.419 . S
C733 C728 1.425 . S
C733 C730 1.409 . S
C733 C731 1.415 . S
C734 H724 0.930 . S
C734 C732 1.419 . S
C734 C735 1.362 . S
C735 H725 0.930 . S
C735 C728 1.409 . S
C735 C734 1.362 . S
C231 C221 1.070 . S
C236 C11 1.070 . S
C247 C179 1.072 . S
C252 C25 1.067 . S
C263 C39 1.051 . S
C268 C193 1.068 . S
C279 C207 1.039 . S
C284 C53 1.051 . S
C295 C137 1.063 . S
C300 C67 1.045 . S
C311 C81 1.039 . S
C316 C151 1.044 . S
C327 C95 1.041 . S
C332 C165 1.041 . S
C343 C109 1.052 . S
C348 C123 1.069 . S
C359 C83 1.174 . S
C364 C8 1.433 . S
C375 C92 1.423 . S
C380 C27 1.264 . S
C391 C111 1.204 . S
C396 C36 1.399 . S
C407 C55 1.202 . S
C412 C64 1.401 . S
C423 C7 1.389 . S
C428 C21 1.369 . S
C439 C41 1.317 . S
C444 C22 1.375 . S
C455 C35 1.411 . S
C460 C49 1.386 . S
C471 C13 1.174 . S
C476 C50 1.427 . S
C487 C105 1.375 . S
C492 C63 1.383 . S
C503 C69 1.203 . S
C508 C78 1.400 . S
C519 C77 1.420 . S
C524 C91 1.369 . S
C535 C106 1.430 . S
C540 C97 1.174 . S
C551 C195 1.317 . S
C556 C120 1.374 . S
C567 C139 1.220 . S
C572 C204 1.438 . S
C583 C223 1.174 . S
C588 C148 1.429 . S
C599 C176 1.376 . S
C604 C167 1.318 . S
C615 C119 1.372 . S
C620 C133 1.419 . S
C631 C134 1.420 . S
C636 C153 1.271 . S
C647 C161 1.379 . S
C652 C147 1.416 . S
C663 C125 1.176 . S
C668 C162 1.436 . S
C679 C217 1.394 . S
C684 C175 1.366 . S
C695 C181 1.236 . S
C700 C190 1.434 . S
C711 C189 1.368 . S
C716 C203 1.421 . S
C727 C218 1.425 . S
C732 C209 1.175 . S
