# Generated by pormake.
# Topology crs, (6)-cn, num edge types: 1
# Building blocks:
#     Node 0, Type 0, BuildingBlock: KUMJIN_clean_sbu_0, # of connection points: 6
#     Node 1, Type 0, BuildingBlock: KUMJIN_clean_sbu_0, # of connection points: 6
#     Node 2, Type 0, BuildingBlock: KUMJIN_clean_sbu_0, # of connection points: 6
#     Node 3, Type 0, BuildingBlock: KUMJIN_clean_sbu_0, # of connection points: 6
#     Node 4, Type 0, BuildingBlock: KUMJIN_clean_sbu_0, # of connection points: 6
#     Node 5, Type 0, BuildingBlock: KUMJIN_clean_sbu_0, # of connection points: 6
#     Node 6, Type 0, BuildingBlock: KUMJIN_clean_sbu_0, # of connection points: 6
#     Node 7, Type 0, BuildingBlock: KUMJIN_clean_sbu_0, # of connection points: 6
#     Node 8, Type 0, BuildingBlock: KUMJIN_clean_sbu_0, # of connection points: 6
#     Node 9, Type 0, BuildingBlock: KUMJIN_clean_sbu_0, # of connection points: 6
#     Node 10, Type 0, BuildingBlock: KUMJIN_clean_sbu_0, # of connection points: 6
#     Node 11, Type 0, BuildingBlock: KUMJIN_clean_sbu_0, # of connection points: 6
#     Node 12, Type 0, BuildingBlock: KUMJIN_clean_sbu_0, # of connection points: 6
#     Node 13, Type 0, BuildingBlock: KUMJIN_clean_sbu_0, # of connection points: 6
#     Node 14, Type 0, BuildingBlock: KUMJIN_clean_sbu_0, # of connection points: 6
#     Node 15, Type 0, BuildingBlock: KUMJIN_clean_sbu_0, # of connection points: 6
#     Edge 16, Type (0, 0), BuildingBlock: OJICUG_clean_linker_0, # of connection points: 2
#     Edge 17, Type (0, 0), BuildingBlock: OJICUG_clean_linker_0, # of connection points: 2
#     Edge 18, Type (0, 0), BuildingBlock: OJICUG_clean_linker_0, # of connection points: 2
#     Edge 19, Type (0, 0), BuildingBlock: OJICUG_clean_linker_0, # of connection points: 2
#     Edge 20, Type (0, 0), BuildingBlock: OJICUG_clean_linker_0, # of connection points: 2
#     Edge 21, Type (0, 0), BuildingBlock: OJICUG_clean_linker_0, # of connection points: 2
#     Edge 22, Type (0, 0), BuildingBlock: OJICUG_clean_linker_0, # of connection points: 2
#     Edge 23, Type (0, 0), BuildingBlock: OJICUG_clean_linker_0, # of connection points: 2
#     Edge 24, Type (0, 0), BuildingBlock: OJICUG_clean_linker_0, # of connection points: 2
#     Edge 25, Type (0, 0), BuildingBlock: OJICUG_clean_linker_0, # of connection points: 2
#     Edge 26, Type (0, 0), BuildingBlock: OJICUG_clean_linker_0, # of connection points: 2
#     Edge 27, Type (0, 0), BuildingBlock: OJICUG_clean_linker_0, # of connection points: 2
#     Edge 28, Type (0, 0), BuildingBlock: OJICUG_clean_linker_0, # of connection points: 2
#     Edge 29, Type (0, 0), BuildingBlock: OJICUG_clean_linker_0, # of connection points: 2
#     Edge 30, Type (0, 0), BuildingBlock: OJICUG_clean_linker_0, # of connection points: 2
#     Edge 31, Type (0, 0), BuildingBlock: OJICUG_clean_linker_0, # of connection points: 2
#     Edge 32, Type (0, 0), BuildingBlock: OJICUG_clean_linker_0, # of connection points: 2
#     Edge 33, Type (0, 0), BuildingBlock: OJICUG_clean_linker_0, # of connection points: 2
#     Edge 34, Type (0, 0), BuildingBlock: OJICUG_clean_linker_0, # of connection points: 2
#     Edge 35, Type (0, 0), BuildingBlock: OJICUG_clean_linker_0, # of connection points: 2
#     Edge 36, Type (0, 0), BuildingBlock: OJICUG_clean_linker_0, # of connection points: 2
#     Edge 37, Type (0, 0), BuildingBlock: OJICUG_clean_linker_0, # of connection points: 2
#     Edge 38, Type (0, 0), BuildingBlock: OJICUG_clean_linker_0, # of connection points: 2
#     Edge 39, Type (0, 0), BuildingBlock: OJICUG_clean_linker_0, # of connection points: 2
#     Edge 40, Type (0, 0), BuildingBlock: OJICUG_clean_linker_0, # of connection points: 2
#     Edge 41, Type (0, 0), BuildingBlock: OJICUG_clean_linker_0, # of connection points: 2
#     Edge 42, Type (0, 0), BuildingBlock: OJICUG_clean_linker_0, # of connection points: 2
#     Edge 43, Type (0, 0), BuildingBlock: OJICUG_clean_linker_0, # of connection points: 2
#     Edge 44, Type (0, 0), BuildingBlock: OJICUG_clean_linker_0, # of connection points: 2
#     Edge 45, Type (0, 0), BuildingBlock: OJICUG_clean_linker_0, # of connection points: 2
#     Edge 46, Type (0, 0), BuildingBlock: OJICUG_clean_linker_0, # of connection points: 2
#     Edge 47, Type (0, 0), BuildingBlock: OJICUG_clean_linker_0, # of connection points: 2
#     Edge 48, Type (0, 0), BuildingBlock: OJICUG_clean_linker_0, # of connection points: 2
#     Edge 49, Type (0, 0), BuildingBlock: OJICUG_clean_linker_0, # of connection points: 2
#     Edge 50, Type (0, 0), BuildingBlock: OJICUG_clean_linker_0, # of connection points: 2
#     Edge 51, Type (0, 0), BuildingBlock: OJICUG_clean_linker_0, # of connection points: 2
#     Edge 52, Type (0, 0), BuildingBlock: OJICUG_clean_linker_0, # of connection points: 2
#     Edge 53, Type (0, 0), BuildingBlock: OJICUG_clean_linker_0, # of connection points: 2
#     Edge 54, Type (0, 0), BuildingBlock: OJICUG_clean_linker_0, # of connection points: 2
#     Edge 55, Type (0, 0), BuildingBlock: OJICUG_clean_linker_0, # of connection points: 2
#     Edge 56, Type (0, 0), BuildingBlock: OJICUG_clean_linker_0, # of connection points: 2
#     Edge 57, Type (0, 0), BuildingBlock: OJICUG_clean_linker_0, # of connection points: 2
#     Edge 58, Type (0, 0), BuildingBlock: OJICUG_clean_linker_0, # of connection points: 2
#     Edge 59, Type (0, 0), BuildingBlock: OJICUG_clean_linker_0, # of connection points: 2
#     Edge 60, Type (0, 0), BuildingBlock: OJICUG_clean_linker_0, # of connection points: 2
#     Edge 61, Type (0, 0), BuildingBlock: OJICUG_clean_linker_0, # of connection points: 2
#     Edge 62, Type (0, 0), BuildingBlock: OJICUG_clean_linker_0, # of connection points: 2
#     Edge 63, Type (0, 0), BuildingBlock: OJICUG_clean_linker_0, # of connection points: 2
# Relax obj value: 0.169
# Max RMSD: 0.259
# Mean RMSD: 0.201
data_MOF--net-crs--node1-KUMJIN_clean_sbu_0--edge1-OJICUG_clean_linker_0
_symmetry_space_group_name_H-M    P1
_symmetry_Int_Tables_number       1
_symmetry_cell_setting            triclinic
loop_
_symmetry_equiv_pos_as_xyz
'x, y, z'
_cell_length_a     43.94365
_cell_length_b     43.878212
_cell_length_c     32.575232
_cell_angle_alpha  70.691927
_cell_angle_beta   68.524443
_cell_angle_gamma 63.166459
loop_
_atom_site_label
_atom_site_type_symbol
_atom_site_fract_x
_atom_site_fract_y
_atom_site_fract_z
_atom_type_partial_charge
Eu0 Eu 0.96919 0.99678 0.08468 0.0
C1 C 0.03716 1.01259 0.87477 0.0
C2 C 0.08874 0.95881 0.87079 0.0
C3 C 0.0675 0.9922 0.80399 0.0
C4 C 0.06135 0.98398 0.89552 0.0
C5 C 0.04017 0.0171 0.82866 0.0
C6 C 0.09165 0.96309 0.82502 0.0
C7 C 0.99025 0.07172 0.83368 0.0
N8 N 0.01132 0.03655 0.89919 0.0
C9 C 0.98854 0.06634 0.87906 0.0
C10 C 0.01614 0.04695 0.80835 0.0
Eu11 Eu 0.01498 0.02932 0.97275 0.0
N12 N 0.05843 0.98094 0.93958 0.0
C13 C 0.0823 0.95327 0.96069 0.0
C14 C 0.11279 0.93027 0.89255 0.0
C15 C 0.10944 0.92745 0.93774 0.0
H16 H 0.9692 0.08619 0.89818 0.0
H17 H 0.12801 0.90553 0.95486 0.0
H18 H 0.11271 0.94418 0.80548 0.0
H19 H 0.97198 0.09523 0.81808 0.0
H20 H 0.08056 0.95049 0.9955 0.0
H21 H 0.85197 0.11836 0.08653 0.0
H22 H 0.13416 0.91043 0.87471 0.0
H23 H 0.01328 0.94973 0.16508 0.0
H24 H 0.89907 0.06837 0.05527 0.0
H25 H 0.01179 0.95351 0.23966 0.0
H26 H 0.07034 0.99537 0.76851 0.0
H27 H 0.84876 0.12683 0.15946 0.0
H28 H 0.87304 0.1055 0.22644 0.0
H29 H 0.01774 0.0514 0.77299 0.0
H30 H 0.91659 0.06125 0.26752 0.0
N31 N 0.9235 0.04785 0.1096 0.0
C32 C 0.89838 0.07113 0.08721 0.0
C33 C 0.86987 0.10467 0.14579 0.0
C34 C 0.8952 0.0806 0.16902 0.0
C35 C 0.87151 0.0999 0.10472 0.0
C36 C 0.92226 0.05213 0.14979 0.0
H37 H 0.96824 1.0049 0.27266 0.0
N38 N 0.97266 0.99982 0.15418 0.0
C39 C 0.9938 0.97468 0.22102 0.0
C40 C 0.94736 0.02747 0.17267 0.0
C41 C -0.00532 0.97279 0.17864 0.0
C42 C 0.96919 1.00371 0.23949 0.0
C43 C 0.94524 0.03027 0.21573 0.0
O44 O 0.96876 0.94806 0.13111 0.0
O45 O -0.00489 0.98678 1.01467 0.0
O46 O 0.96478 0.03313 0.96271 0.0
O47 O 0.93515 1.01341 0.03579 0.0
O48 O 0.00865 0.94492 0.06544 0.0
O49 O 0.91993 0.98784 0.11539 0.0
O50 O 0.0186 0.07972 0.93376 0.0
O51 O 0.98897 0.03902 0.04296 0.0
O52 O 0.02006 0.99369 0.09222 0.0
O53 O 0.05243 1.0049 1.01808 0.0
O54 O 0.97375 0.08072 0.99256 0.0
O55 O 0.06504 0.03562 0.95309 0.0
C56 C 0.01143 0.95414 0.02262 0.0
C57 C 0.92423 0.92885 0.13999 0.0
C58 C 0.90302 0.90029 0.11015 0.0
C59 C 0.9134 0.92753 0.10511 0.0
C60 C 0.90384 0.87451 0.14975 0.0
C61 C 0.92479 0.90291 0.17924 0.0
C62 C 0.91466 0.87585 0.18404 0.0
C63 C 0.93736 0.02625 0.99204 0.0
C64 C 0.9351 0.95662 0.13736 0.0
C65 C 0.91859 0.05875 0.23453 0.0
C66 C 0.89373 0.08389 0.21119 0.0
C67 C 0.97125 0.07136 0.03527 0.0
C68 C 0.07322 0.0893 0.91216 0.0
C69 C 0.08977 0.09355 0.93821 0.0
C70 C 0.10743 0.1167 0.9202 0.0
C71 C 0.10967 0.13434 0.875 0.0
C72 C 0.07503 0.10753 0.86758 0.0
C73 C 0.09364 0.12964 0.84891 0.0
C74 C 0.04922 0.99581 0.06198 0.0
C75 C 0.05197 0.06783 0.93234 0.0
H76 H 0.91293 0.9474 0.07482 0.0
H77 H 0.89619 0.85315 0.15398 0.0
H78 H 0.93309 0.90362 0.2063 0.0
H79 H 0.91521 0.85586 0.21437 0.0
H80 H 0.08766 0.08011 0.9729 0.0
H81 H 0.12232 0.1531 0.86041 0.0
H82 H 0.06184 0.10483 0.8474 0.0
H83 H 0.0948 0.14396 0.81457 0.0
Eu84 Eu 0.00312 0.27706 0.31052 0.0
C85 C 0.90552 0.25031 0.26747 0.0
C86 C 0.90605 0.19824 0.32537 0.0
C87 C 0.85117 0.24043 0.30755 0.0
C88 C 0.92414 0.21916 0.29293 0.0
C89 C 0.86911 0.26013 0.27341 0.0
C90 C 0.86952 0.2096 0.33331 0.0
C91 C 0.87107 0.30669 0.20871 0.0
N92 N 0.92287 0.27026 0.23583 0.0
C93 C 0.90698 0.29625 0.20425 0.0
C94 C 0.85174 0.28919 0.24433 0.0
Eu95 Eu 0.98304 0.25047 0.23293 0.0
N96 N 0.9595 0.20936 0.28645 0.0
C97 C 0.97822 0.17787 0.30923 0.0
C98 C 0.92496 0.16674 0.34973 0.0
C99 C 0.96125 0.15636 0.34121 0.0
H100 H 0.92193 0.30937 0.1757 0.0
H101 H 0.97626 0.13173 0.35934 0.0
H102 H 0.85535 0.19468 0.35948 0.0
H103 H 0.85847 0.32804 0.18448 0.0
H104 H 0.00623 0.16839 0.30338 0.0
H105 H 0.01735 0.39033 0.17955 0.0
H106 H 0.91182 0.15013 0.37491 0.0
H107 H 0.06019 0.21558 0.37173 0.0
H108 H 0.98857 0.34986 0.22575 0.0
H109 H 0.12015 0.20058 0.37651 0.0
H110 H 0.8231 0.24908 0.31399 0.0
H111 H 0.07585 0.38017 0.18494 0.0
H112 H 0.12407 0.34519 0.22211 0.0
H113 H 0.82381 0.29731 0.24791 0.0
H114 H 0.15326 0.29309 0.27334 0.0
N115 N 0.03018 0.31526 0.25737 0.0
C116 C 0.01402 0.34418 0.22873 0.0
C117 C 0.06338 0.3617 0.20515 0.0
C118 C 0.07987 0.33213 0.23436 0.0
C119 C 0.0304 0.36756 0.20208 0.0
C120 C 0.06286 0.30863 0.25993 0.0
H121 H 0.15353 0.23783 0.32752 0.0
N122 N 0.06187 0.25723 0.31518 0.0
C123 C 0.10925 0.22232 0.35131 0.0
C124 C 0.07918 0.27888 0.28907 0.0
C125 C 0.07567 0.23038 0.34767 0.0
C126 C 0.12789 0.24348 0.32376 0.0
C127 C 0.11251 0.27265 0.29322 0.0
O128 O 0.9924 0.27652 0.38182 0.0
O129 O 0.95893 0.26605 0.30346 0.0
O130 O 0.95104 0.30981 0.22694 0.0
O131 O 0.95359 0.32057 0.29074 0.0
O132 O 0.97247 0.24455 0.36409 0.0
O133 O 0.99132 0.32415 0.3344 0.0
O134 O 0.98159 0.25892 0.16377 0.0
O135 O 0.02214 0.26823 0.23929 0.0
O136 O 0.04056 0.21973 0.30832 0.0
O137 O 0.03236 0.20608 0.25076 0.0
O138 O 0.02922 0.26309 0.17661 0.0
O139 O 0.99105 0.2064 0.20526 0.0
C140 C 0.94931 0.2497 0.34423 0.0
C141 C 0.00968 0.3137 0.40119 0.0
C142 C 0.01978 0.34902 0.43737 0.0
C143 C 0.0009 0.34648 0.41169 0.0
C144 C 0.04848 0.31927 0.44911 0.0
C145 C 0.03636 0.28443 0.41814 0.0
C146 C 0.05631 0.2874 0.44012 0.0
C147 C 0.93922 0.32985 0.25681 0.0
C148 C 0.98997 0.30834 0.37628 0.0
C149 C 0.1287 0.29662 0.26867 0.0
C150 C 0.11231 0.3262 0.23956 0.0
C151 C 0.04349 0.26972 0.19926 0.0
C152 C 0.98893 0.21484 0.12659 0.0
C153 C 0.9812 0.18564 0.12952 0.0
C154 C 0.98172 0.17797 0.08979 0.0
C155 C 0.99115 0.19905 0.04806 0.0
C156 C -0.00218 0.23503 0.08386 0.0
C157 C -0.00119 0.22723 0.04525 0.0
C158 C 0.04969 0.19865 0.28083 0.0
C159 C 0.98637 0.22669 0.16652 0.0
H160 H 0.9789 0.36907 0.40181 0.0
H161 H 0.06413 0.32027 0.4674 0.0
H162 H 0.04139 0.25865 0.41576 0.0
H163 H 0.07733 0.26448 0.45171 0.0
H164 H 0.9737 0.17001 0.16211 0.0
H165 H 0.99244 0.1938 1.01708 0.0
H166 H 0.00395 0.25728 0.08012 0.0
H167 H 0.00541 0.24334 1.01271 0.0
Eu168 Eu 0.7338 0.24996 0.48309 0.0
C169 C 0.71428 0.29823 0.64892 0.0
C170 C 0.6711 0.35655 0.63362 0.0
C171 C 0.68791 0.33519 0.70408 0.0
C172 C 0.69572 0.32509 0.61986 0.0
C173 C 0.70914 0.30246 0.69234 0.0
C174 C 0.66905 0.36229 0.67459 0.0
C175 C 0.74827 0.24257 0.70799 0.0
N176 N 0.73731 0.26808 0.63466 0.0
C177 C 0.75451 0.24028 0.66359 0.0
C178 C 0.72607 0.27397 0.7222 0.0
Eu179 Eu 0.75588 0.2747 0.55493 0.0
N180 N 0.70104 0.31999 0.5786 0.0
C181 C 0.67799 0.34251 0.55294 0.0
C182 C 0.6493 0.3811 0.60587 0.0
C183 C 0.65185 0.37339 0.56615 0.0
H184 H 0.77459 0.21688 0.65206 0.0
H185 H 0.63423 0.39156 0.54518 0.0
H186 H 0.65202 0.38717 0.68447 0.0
H187 H 0.76183 0.22073 0.7307 0.0
H188 H 0.67982 0.33709 0.522 0.0
H189 H 0.85001 0.12614 0.50514 0.0
H190 H 0.62968 0.40543 0.61552 0.0
H191 H 0.72724 0.30367 0.3805 0.0
H192 H 0.80704 0.18249 0.52337 0.0
H193 H 0.73664 0.2953 0.30544 0.0
H194 H 0.68525 0.33957 0.73627 0.0
H195 H 0.85464 0.10946 0.43696 0.0
H196 H 0.83663 0.12693 0.36498 0.0
H197 H 0.72238 0.27598 0.7561 0.0
H198 H 0.8058 0.17356 0.31017 0.0
N199 N 0.78599 0.19858 0.46655 0.0
C200 C 0.80837 0.17622 0.49336 0.0
C201 C 0.83578 0.13466 0.44456 0.0
C202 C 0.81551 0.15888 0.41495 0.0
C203 C 0.83323 0.14399 0.483 0.0
C204 C 0.79211 0.19166 0.42596 0.0
H205 H 0.76904 0.23668 0.2873 0.0
N206 N 0.75727 0.25043 0.4045 0.0
C207 C 0.74813 0.27351 0.33007 0.0
C208 C 0.77678 0.2184 0.39406 0.0
C209 C 0.74385 0.27822 0.37256 0.0
C210 C 0.76614 0.24026 0.32007 0.0
C211 C 0.78152 0.2123 0.35182 0.0
O212 O 0.6885 0.27818 0.4539 0.0
O213 O 0.71113 0.2663 0.55072 0.0
O214 O 0.75293 0.21955 0.59229 0.0
O215 O 0.74153 0.20148 0.54164 0.0
O216 O 0.67834 0.25678 0.53188 0.0
O217 O 0.71427 0.2214 0.46251 0.0
O218 O 0.79987 0.26117 0.58192 0.0
O219 O 0.77643 0.26679 0.48174 0.0
O220 O 0.73297 0.30709 0.44858 0.0
O221 O 0.74617 0.32431 0.49794 0.0
O222 O 0.811 0.239 0.52088 0.0
O223 O 0.77078 0.31551 0.55652 0.0
C224 C 0.67975 0.26555 0.56478 0.0
C225 C 0.65503 0.24676 0.45646 0.0
C226 C 0.61891 0.21208 0.47854 0.0
C227 C 0.64955 0.21528 0.47785 0.0
C228 C 0.59376 0.24086 0.45805 0.0
C229 C 0.62967 0.27486 0.43601 0.0
C230 C 0.59914 0.27193 0.43705 0.0
C231 C 0.74761 0.19572 0.5814 0.0
C232 C 0.68891 0.24944 0.44911 0.0
C233 C 0.80204 0.17878 0.34231 0.0
C234 C 0.81936 0.15217 0.37365 0.0
C235 C 0.80926 0.24798 0.47955 0.0
C236 C 0.83113 0.29925 0.55196 0.0
C237 C 0.83117 0.33133 0.55141 0.0
C238 C 0.8631 0.33625 0.53967 0.0
C239 C 0.89495 0.30899 0.52513 0.0
C240 C 0.86321 0.27249 0.53751 0.0
C241 C 0.89484 0.27764 0.52355 0.0
C242 C 0.73788 0.33121 0.45945 0.0
C243 C 0.79784 0.29324 0.57241 0.0
H244 H 0.66958 0.19288 0.49218 0.0
H245 H 0.57069 0.23879 0.45611 0.0
H246 H 0.63401 0.29878 0.41791 0.0
H247 H 0.58013 0.29344 0.42019 0.0
H248 H 0.80623 0.35181 0.5624 0.0
H249 H 0.92026 0.3109 0.5172 0.0
H250 H 0.86405 0.24733 0.538 0.0
H251 H 0.91955 0.2567 0.51326 0.0
Eu252 Eu 0.73155 0.99998 0.73817 0.0
C253 C 0.77231 0.09963 0.77627 0.0
C254 C 0.82834 0.09107 0.71978 0.0
C255 C 0.79863 0.14323 0.75121 0.0
C256 C 0.80146 0.07866 0.74856 0.0
C257 C 0.77062 0.13232 0.7774 0.0
C258 C 0.82705 0.12302 0.72191 0.0
C259 C 0.71426 0.14084 0.8319 0.0
N260 N 0.74565 0.08833 0.80195 0.0
C261 C 0.71733 0.1081 0.83052 0.0
C262 C 0.74106 0.153 0.80532 0.0
Eu263 Eu 0.75788 0.02908 0.80598 0.0
N264 N 0.80302 0.04696 0.74836 0.0
C265 C 0.8289 0.02859 0.71649 0.0
C266 C 0.85572 0.07123 0.68921 0.0
C267 C 0.85553 0.04026 0.68692 0.0
H268 H 0.6976 0.09816 0.85407 0.0
H269 H 0.8758 0.02539 0.66205 0.0
H270 H 0.84795 0.13238 0.70094 0.0
H271 H 0.69168 0.15623 0.85451 0.0
H272 H 0.82877 1.00573 0.71157 0.0
H273 H 0.60703 1.00501 0.86741 0.0
H274 H 0.87655 0.08009 0.66637 0.0
H275 H 0.7927 0.93393 0.68585 0.0
H276 H 0.65643 0.02323 0.82639 0.0
H277 H 0.80098 0.87555 0.6825 0.0
H278 H 0.79868 0.16726 0.75335 0.0
H279 H 0.60916 0.9496 0.86089 0.0
H280 H 0.64253 0.89563 0.82928 0.0
H281 H 0.73888 0.17818 0.80703 0.0
H282 H 0.6953 0.86037 0.7805 0.0
N283 N 0.6866 0.9806 0.79219 0.0
C284 C 0.65793 0.99993 0.82083 0.0
C285 C 0.6311 0.95785 0.84181 0.0
C286 C 0.66122 0.93701 0.81477 0.0
C287 C 0.62971 0.9892 0.84536 0.0
C288 C 0.68916 0.94895 0.79034 0.0
H289 H 0.7557 0.85089 0.72942 0.0
N290 N 0.74588 0.94055 0.73969 0.0
C291 C 0.77844 0.88964 0.70637 0.0
C292 C 0.71973 0.92824 0.76405 0.0
C293 C 0.77405 0.92248 0.70927 0.0
C294 C 0.75267 0.876 0.73259 0.0
C295 C 0.72245 0.89567 0.76088 0.0
O296 O 0.74549 0.99626 0.66847 0.0
O297 O 0.74159 0.04585 0.74095 0.0
O298 O 0.69873 0.06368 0.80945 0.0
O299 O 0.68585 0.05101 0.75483 0.0
O300 O 0.76307 0.03018 0.68076 0.0
O301 O 0.68973 1.0111 0.70693 0.0
O302 O 0.73954 0.03599 0.87549 0.0
O303 O 0.7385 0.9891 0.80643 0.0
O304 O 0.78758 0.96123 0.74348 0.0
O305 O 0.80524 0.9802 0.78696 0.0
O306 O 0.75236 0.98179 0.86236 0.0
O307 O 0.79566 0.0247 0.83863 0.0
C308 C 0.75746 0.05441 0.69994 0.0
C309 C 0.70423 1.00509 0.62878 0.0
C310 C 0.66514 1.00304 0.59343 0.0
C311 C 0.67144 1.00514 0.63155 0.0
C312 C 0.69143 1.00117 0.5527 0.0
C313 C 0.73025 1.00314 0.58758 0.0
C314 C 0.72379 1.00125 0.54984 0.0
C315 C 0.67747 0.07045 0.78425 0.0
C316 C 0.7131 1.00336 0.66925 0.0
C317 C 0.69431 0.8844 0.78422 0.0
C318 C 0.66396 0.90482 0.81139 0.0
C319 C 0.7411 0.9681 0.84457 0.0
C320 C 0.77837 0.03312 0.91575 0.0
C321 C 0.81188 0.03082 0.91424 0.0
C322 C 0.81794 0.03303 0.95251 0.0
C323 C 0.79054 0.0375 0.99207 0.0
C324 C 0.75131 0.03779 0.95572 0.0
C325 C 0.75743 0.03994 0.99357 0.0
C326 C 0.81067 0.95748 0.76386 0.0
C327 C 0.77102 0.03164 0.87579 0.0
H328 H 0.65126 1.00612 0.66317 0.0
H329 H 0.68687 0.99955 0.5231 0.0
H330 H 0.75587 1.00256 0.58459 0.0
H331 H 0.74406 0.99954 0.51837 0.0
H332 H 0.83309 0.0273 0.8837 0.0
H333 H 0.79485 0.0391 1.02186 0.0
H334 H 0.7253 0.03985 0.95779 0.0
H335 H 0.73642 0.04351 0.02422 0.0
Eu336 Eu 0.50371 0.77742 0.31245 0.0
C337 C 0.41151 0.74022 0.25873 0.0
C338 C 0.41737 0.68415 0.30948 0.0
C339 C 0.36958 0.71369 0.27293 0.0
C340 C 0.43003 0.71132 0.2866 0.0
C341 C 0.38044 0.74192 0.25283 0.0
C342 C 0.38807 0.68487 0.30104 0.0
C343 C 0.37555 0.79712 0.20199 0.0
N344 N 0.42449 0.76578 0.23589 0.0
C345 C 0.40756 0.79329 0.20645 0.0
C346 C 0.36202 0.77117 0.22505 0.0
Eu347 Eu 0.4833 0.75117 0.23697 0.0
N348 N 0.46049 0.70939 0.29099 0.0
C349 C 0.47692 0.68291 0.32173 0.0
C350 C 0.43495 0.65647 0.33952 0.0
C351 C 0.46434 0.65637 0.34651 0.0
H352 H 0.4199 0.8111 0.18353 0.0
H353 H 0.47759 0.63563 0.37071 0.0
H354 H 0.38003 0.66285 0.31574 0.0
H355 H 0.36244 0.81907 0.17869 0.0
H356 H 0.49889 0.6823 0.32914 0.0
H357 H 0.51244 0.89529 0.18572 0.0
H358 H 0.42569 0.63541 0.35801 0.0
H359 H 0.56437 0.71686 0.36966 0.0
H360 H 0.48247 0.85801 0.23952 0.0
H361 H 0.62696 0.69945 0.36494 0.0
H362 H 0.34733 0.71368 0.26601 0.0
H363 H 0.57598 0.87878 0.17527 0.0
H364 H 0.63085 0.83713 0.197 0.0
H365 H 0.33798 0.77341 0.22004 0.0
H366 H 0.66176 0.78421 0.24576 0.0
N367 N 0.52839 0.81802 0.25948 0.0
C368 C 0.51015 0.84909 0.23547 0.0
C369 C 0.56288 0.86166 0.19908 0.0
C370 C 0.58123 0.83067 0.22474 0.0
C371 C 0.52712 0.871 0.20477 0.0
C372 C 0.56323 0.80902 0.2553 0.0
H373 H 0.66118 0.73309 0.30686 0.0
N374 N 0.56378 0.75776 0.31163 0.0
C375 C 0.61473 0.72123 0.34078 0.0
C376 C 0.58124 0.77828 0.28175 0.0
C377 C 0.57942 0.73086 0.34274 0.0
C378 C 0.63381 0.74037 0.30816 0.0
C379 C 0.61694 0.76962 0.27891 0.0
O380 O 0.4983 0.77413 0.38329 0.0
O381 O 0.45847 0.76772 0.30623 0.0
O382 O 0.44799 0.80946 0.23343 0.0
O383 O 0.45416 0.82171 0.29339 0.0
O384 O 0.47031 0.7479 0.36759 0.0
O385 O 0.49303 0.82333 0.33801 0.0
O386 O 0.48967 0.75546 0.16567 0.0
O387 O 0.52814 0.76165 0.24284 0.0
O388 O 0.53887 0.71875 0.31447 0.0
O389 O 0.5331 0.70674 0.25413 0.0
O390 O 0.51532 0.78236 0.18225 0.0
O391 O 0.49598 0.70547 0.20931 0.0
C392 C 0.44764 0.75256 0.34723 0.0
C393 C 0.51601 0.81196 0.40118 0.0
C394 C 0.52786 0.84742 0.43537 0.0
C395 C 0.50713 0.84452 0.41253 0.0
C396 C 0.55843 0.81836 0.44298 0.0
C397 C 0.54459 0.7832 0.41475 0.0
C398 C 0.56627 0.78666 0.43353 0.0
C399 C 0.43838 0.83056 0.261 0.0
C400 C 0.49479 0.80621 0.37878 0.0
C401 C 0.6346 0.79084 0.24797 0.0
C402 C 0.61696 0.82101 0.22073 0.0
C403 C 0.53827 0.77764 0.20213 0.0
C404 C 0.47434 0.71751 0.14441 0.0
C405 C 0.48355 0.68476 0.13329 0.0
C406 C 0.46453 0.68199 0.10787 0.0
C407 C 0.43532 0.71156 0.09706 0.0
C408 C 0.4471 0.74658 0.12824 0.0
C409 C 0.42711 0.74338 0.10652 0.0
C410 C 0.54944 0.6982 0.28568 0.0
C411 C 0.49427 0.72328 0.16875 0.0
H412 H 0.48378 0.8666 0.4055 0.0
H413 H 0.5757 0.81966 0.45852 0.0
H414 H 0.54995 0.75741 0.41216 0.0
H415 H 0.58879 0.76417 0.44227 0.0
H416 H 0.50595 0.66237 0.14251 0.0
H417 H 0.41941 0.71048 0.07922 0.0
H418 H 0.44145 0.77242 0.13129 0.0
H419 H 0.40564 0.76611 0.09564 0.0
Eu420 Eu 0.23179 0.75418 0.49562 0.0
C421 C 0.21375 0.81171 0.65258 0.0
C422 C 0.17198 0.87011 0.63422 0.0
C423 C 0.18511 0.8497 0.70702 0.0
C424 C 0.19696 0.83811 0.62169 0.0
C425 C 0.20783 0.81708 0.69574 0.0
C426 C 0.16712 0.87618 0.67632 0.0
C427 C 0.24661 0.75737 0.714 0.0
N428 N 0.23596 0.78064 0.6404 0.0
C429 C 0.25195 0.7533 0.67077 0.0
C430 C 0.22482 0.78947 0.72639 0.0
Eu431 Eu 0.25523 0.77985 0.5621 0.0
N432 N 0.20302 0.83153 0.58082 0.0
C433 C 0.17965 0.85375 0.55509 0.0
C434 C 0.15113 0.89424 0.6053 0.0
C435 C 0.15412 0.88543 0.56636 0.0
H436 H 0.27085 0.72895 0.66088 0.0
H437 H 0.13681 0.90308 0.54479 0.0
H438 H 0.1485 0.90076 0.68612 0.0
H439 H 0.26026 0.73619 0.73731 0.0
H440 H 0.18039 0.84783 0.52521 0.0
H441 H 0.35463 0.63907 0.47365 0.0
H442 H 0.13139 0.91887 0.6139 0.0
H443 H 0.19137 0.81551 0.41766 0.0
H444 H 0.30995 0.68688 0.51164 0.0
H445 H 0.19183 0.82129 0.34014 0.0
H446 H 0.1805 0.85437 0.73983 0.0
H447 H 0.35368 0.63752 0.39896 0.0
H448 H 0.32388 0.66503 0.33548 0.0
H449 H 0.22107 0.79258 0.75976 0.0
H450 H 0.28362 0.71678 0.29643 0.0
N451 N 0.28469 0.71404 0.45782 0.0
C452 C 0.3097 0.68751 0.47837 0.0
C453 C 0.33467 0.6594 0.4148 0.0
C454 C 0.30988 0.68718 0.39332 0.0
C455 C 0.33522 0.66012 0.45698 0.0
C456 C 0.28597 0.71523 0.41515 0.0
H457 H 0.2369 0.77672 0.29578 0.0
N458 N 0.23795 0.76942 0.41696 0.0
C459 C 0.21288 0.80041 0.35374 0.0
C460 C 0.26243 0.74406 0.39376 0.0
C461 C 0.21281 0.79706 0.39787 0.0
C462 C 0.23798 0.77478 0.3293 0.0
C463 C 0.26244 0.74562 0.34975 0.0
O464 O 0.18338 0.75928 0.4847 0.0
O465 O 0.21205 0.76294 0.56771 0.0
O466 O 0.25383 0.72397 0.60074 0.0
O467 O 0.2475 0.70367 0.54881 0.0
O468 O 0.1777 0.79196 0.52835 0.0
O469 O 0.2209 0.70806 0.50477 0.0
O470 O 0.30795 0.74747 0.57407 0.0
O471 O 0.28202 0.75282 0.50203 0.0
O472 O 0.23377 0.80977 0.45562 0.0
O473 O 0.24462 0.82939 0.50491 0.0
O474 O 0.29519 0.79327 0.49687 0.0
O475 O 0.27887 0.79864 0.59092 0.0
C476 C 0.17941 0.78222 0.56976 0.0
C477 C 0.18178 0.71153 0.46793 0.0
C478 C 0.15593 0.67396 0.46514 0.0
C479 C 0.1651 0.68759 0.4901 0.0
C480 C 0.16357 0.68431 0.41798 0.0
C481 C 0.18822 0.72231 0.42109 0.0
C482 C 0.17955 0.7085 0.39613 0.0
C483 C 0.25308 0.6981 0.58843 0.0
C484 C 0.19073 0.72586 0.49467 0.0
C485 C 0.28456 0.71682 0.32919 0.0
C486 C 0.30766 0.68739 0.35135 0.0
C487 C 0.30203 0.76991 0.47543 0.0
C488 C 0.34043 0.78161 0.56639 0.0
C489 C 0.33701 0.81551 0.56422 0.0
C490 C 0.36673 0.82355 0.55413 0.0
C491 C 0.40039 0.79802 0.54091 0.0
C492 C 0.37417 0.75635 0.55395 0.0
C493 C 0.40393 0.76488 0.54016 0.0
C494 C 0.23791 0.83476 0.46562 0.0
C495 C 0.30892 0.77238 0.5865 0.0
H496 H 0.15854 0.68025 0.52654 0.0
H497 H 0.15564 0.6749 0.39825 0.0
H498 H 0.19915 0.74185 0.40386 0.0
H499 H 0.18442 0.71721 0.35996 0.0
H500 H 0.31102 0.83532 0.57314 0.0
H501 H 0.42413 0.8028 0.53356 0.0
H502 H 0.37758 0.72993 0.55583 0.0
H503 H 0.42996 0.74521 0.53098 0.0
Eu504 Eu 0.23279 0.50296 0.73429 0.0
C505 C 0.26211 0.60185 0.78608 0.0
C506 C 0.31586 0.60019 0.72694 0.0
C507 C 0.27922 0.65213 0.75848 0.0
C508 C 0.29234 0.58372 0.75658 0.0
C509 C 0.25575 0.63605 0.78775 0.0
C510 C 0.30896 0.63444 0.72787 0.0
C511 C 0.20446 0.63559 0.84937 0.0
N512 N 0.23919 0.58616 0.81355 0.0
C513 C 0.21159 0.60191 0.84634 0.0
C514 C 0.22633 0.65297 0.8195 0.0
Eu515 Eu 0.25519 0.52787 0.80897 0.0
N516 N 0.29862 0.5504 0.75628 0.0
C517 C 0.32815 0.53253 0.72695 0.0
C518 C 0.34574 0.58187 0.69703 0.0
C519 C 0.35187 0.54791 0.69709 0.0
H520 H 0.19497 0.58834 0.87048 0.0
H521 H 0.37484 0.53353 0.67384 0.0
H522 H 0.32674 0.64736 0.70538 0.0
H523 H 0.18239 0.64789 0.87519 0.0
H524 H 0.33366 0.5068 0.72463 0.0
H525 H 0.11543 0.49164 0.86935 0.0
H526 H 0.36421 0.59372 0.67371 0.0
H527 H 0.29447 0.44515 0.66944 0.0
H528 H 0.15562 0.5204 0.81992 0.0
H529 H 0.30909 0.38578 0.66173 0.0
H530 H 0.27482 0.67812 0.75969 0.0
H531 H 0.12731 0.43197 0.86545 0.0
H532 H 0.16485 0.38059 0.82889 0.0
H533 H 0.22083 0.67907 0.82198 0.0
H534 H 0.21633 0.353 0.77131 0.0
N535 N 0.19125 0.47806 0.78626 0.0
C536 C 0.16157 0.49478 0.81638 0.0
C537 C 0.1454 0.44458 0.84314 0.0
C538 C 0.17537 0.42759 0.81208 0.0
C539 C 0.13853 0.47828 0.84531 0.0
C540 C 0.19841 0.44497 0.78394 0.0
H541 H 0.27135 0.3531 0.71215 0.0
N542 N 0.25096 0.44492 0.72678 0.0
C543 C 0.28669 0.39717 0.68796 0.0
C544 C 0.22875 0.4282 0.75327 0.0
C545 C 0.27857 0.4306 0.6929 0.0
C546 C 0.26526 0.37892 0.71633 0.0
C547 C 0.23558 0.39459 0.74885 0.0
O548 O 0.24123 0.51119 0.66204 0.0
O549 O 0.24103 0.54806 0.74208 0.0
O550 O 0.19753 0.56548 0.80963 0.0
O551 O 0.18522 0.55149 0.75603 0.0
O552 O 0.26617 0.53296 0.68102 0.0
O553 O 0.18983 0.51345 0.70559 0.0
O554 O 0.24519 0.52097 0.88123 0.0
O555 O 0.24654 0.48282 0.80187 0.0
O556 O 0.2903 0.46555 0.73356 0.0
O557 O 0.30194 0.47823 0.78882 0.0
O558 O 0.22071 0.49925 0.86206 0.0
O559 O 0.29755 0.51656 0.83916 0.0
C560 C 0.25876 0.55674 0.70217 0.0
C561 C 0.20817 0.49393 0.63634 0.0
C562 C 0.17458 0.4828 0.60079 0.0
C563 C 0.17548 0.49905 0.63109 0.0
C564 C 0.20633 0.46027 0.57764 0.0
C565 C 0.2395 0.4723 0.611 0.0
C566 C 0.23847 0.45501 0.58288 0.0
C567 C 0.17618 0.57109 0.7854 0.0
C568 C 0.20996 0.51352 0.66453 0.0
C569 C 0.21214 0.37796 0.77591 0.0
C570 C 0.18252 0.39404 0.80802 0.0
C571 C 0.22845 0.47477 0.84192 0.0
C572 C 0.27878 0.53667 0.90793 0.0
C573 C 0.3116 0.53062 0.9136 0.0
C574 C 0.31289 0.5463 0.94416 0.0
C575 C 0.28136 0.56893 0.96755 0.0
C576 C 0.24766 0.55877 0.93295 0.0
C577 C 0.24907 0.57518 0.9618 0.0
C578 C 0.31114 0.45901 0.7589 0.0
C579 C 0.27665 0.51745 0.87973 0.0
H580 H 0.15111 0.51669 0.64884 0.0
H581 H 0.20627 0.44721 0.55467 0.0
H582 H 0.26508 0.46916 0.61191 0.0
H583 H 0.26282 0.43818 0.56406 0.0
H584 H 0.33577 0.51274 0.89589 0.0
H585 H 0.28171 0.58148 0.99089 0.0
H586 H 0.22195 0.56293 0.93117 0.0
H587 H 0.22491 0.59222 0.98062 0.0
Eu588 Eu 0.97239 0.49686 0.58122 0.0
C589 C 0.03876 0.5075 0.37374 0.0
C590 C 0.09405 0.45766 0.3732 0.0
C591 C 0.07321 0.48418 0.30538 0.0
C592 C 0.06419 0.48267 0.39588 0.0
C593 C 0.04309 0.50843 0.32821 0.0
C594 C 0.09857 0.45882 0.32784 0.0
C595 C 0.98812 0.55815 0.33017 0.0
N596 N 0.00984 0.53069 0.39656 0.0
C597 C 0.98511 0.55646 0.37498 0.0
C598 C 0.01724 0.53403 0.30664 0.0
Eu599 Eu 0.01186 0.53162 0.46799 0.0
N600 N 0.05945 0.48246 0.43965 0.0
C601 C 0.08299 0.45678 0.46299 0.0
C602 C 0.11853 0.43205 0.39677 0.0
C603 C 0.1127 0.43136 0.442 0.0
H604 H 0.96322 0.57635 0.39213 0.0
H605 H 0.13118 0.41127 0.46078 0.0
H606 H 0.12156 0.4401 0.30985 0.0
H607 H 0.96832 0.57851 0.31356 0.0
H608 H 0.07904 0.45506 0.49814 0.0
H609 H 0.85411 0.61753 0.59525 0.0
H610 H 0.14174 0.41244 0.38053 0.0
H611 H 0.02033 0.44671 0.65609 0.0
H612 H 0.9004 0.57008 0.55863 0.0
H613 H 0.02203 0.44638 0.73107 0.0
H614 H 0.07709 0.48476 0.27035 0.0
H615 H 0.85434 0.62229 0.66853 0.0
H616 H 0.88209 0.59793 0.73273 0.0
H617 H 0.01974 0.53566 0.2717 0.0
H618 H 0.92789 0.55201 0.76915 0.0
N619 N 0.92777 0.54681 0.61042 0.0
C620 C 0.90119 0.57093 0.5908 0.0
C621 C 0.8751 0.60111 0.65252 0.0
C622 C 0.90193 0.57626 0.6729 0.0
C623 C 0.87477 0.59841 0.61132 0.0
C624 C 0.92846 0.54913 0.6507 0.0
H625 H 0.97997 0.49575 0.76882 0.0
N626 N 0.9795 0.49709 0.64973 0.0
C627 C 0.00331 0.46846 0.71435 0.0
C628 C 0.95488 0.52358 0.6709 0.0
C629 C 0.00239 0.46889 0.67177 0.0
C630 C 0.97955 0.49637 0.7355 0.0
C631 C 0.95456 0.52406 0.71424 0.0
O632 O 0.97454 0.44633 0.62454 0.0
O633 O 0.99326 0.4883 0.51022 0.0
O634 O 0.96064 0.53261 0.46401 0.0
O635 O 0.93296 0.51561 0.53898 0.0
O636 O 0.0113 0.44618 0.55845 0.0
O637 O 0.92378 0.48768 0.61795 0.0
O638 O 0.00541 0.5824 0.42423 0.0
O639 O 0.99059 0.53994 0.53892 0.0
O640 O 0.02524 0.49342 0.58398 0.0
O641 O 0.05163 0.51318 0.50937 0.0
O642 O 0.97135 0.58221 0.49152 0.0
O643 O 0.05713 0.54732 0.4352 0.0
C644 C 0.01052 0.45576 0.5167 0.0
C645 C 0.92644 0.42933 0.64302 0.0
C646 C 0.89526 0.40509 0.62258 0.0
C647 C 0.91019 0.42992 0.61254 0.0
C648 C 0.89749 0.37956 0.66243 0.0
C649 C 0.92857 0.40352 0.68235 0.0
C650 C 0.91419 0.37873 0.69194 0.0
C651 C 0.93321 0.52724 0.49564 0.0
C652 C 0.94033 0.45568 0.63658 0.0
C653 C 0.9285 0.55129 0.73591 0.0
C654 C 0.90236 0.57738 0.71523 0.0
C655 C 0.97212 0.5721 0.5332 0.0
C656 C 0.04269 0.60851 0.41987 0.0
C657 C 0.05766 0.6069 0.45235 0.0
C658 C 0.06129 0.63663 0.45392 0.0
C659 C 0.04922 0.66797 0.42339 0.0
C660 C 0.03134 0.63981 0.38931 0.0
C661 C 0.03441 0.66945 0.39129 0.0
C662 C 0.05205 0.50024 0.55238 0.0
C663 C 0.03806 0.57838 0.41689 0.0
H664 H 0.90885 0.44956 0.58178 0.0
H665 H 0.88694 0.35964 0.67031 0.0
H666 H 0.94117 0.40274 0.70593 0.0
H667 H 0.91599 0.35881 0.72229 0.0
H668 H 0.06711 0.58265 0.47557 0.0
H669 H 0.05282 0.69097 0.42285 0.0
H670 H 0.02006 0.64128 0.36383 0.0
H671 H 0.02594 0.69344 0.36732 0.0
Eu672 Eu 0.23196 0.25401 0.98602 0.0
C673 C 0.21239 0.30354 0.15206 0.0
C674 C 0.17393 0.36386 0.13495 0.0
C675 C 0.1896 0.34053 0.20642 0.0
C676 C 0.19656 0.33177 0.12184 0.0
C677 C 0.20799 0.30731 0.19541 0.0
C678 C 0.17246 0.36887 0.17617 0.0
C679 C 0.23993 0.24538 0.21355 0.0
N680 N 0.23205 0.27247 0.13884 0.0
C681 C 0.24539 0.24323 0.16938 0.0
C682 C 0.22223 0.27768 0.22622 0.0
Eu683 Eu 0.25524 0.27942 0.05918 0.0
N684 N 0.20196 0.32714 0.08033 0.0
C685 C 0.17917 0.35031 0.05463 0.0
C686 C 0.15295 0.38938 0.10672 0.0
C687 C 0.15439 0.38186 0.06739 0.0
H688 H 0.2628 0.21855 0.15954 0.0
H689 H 0.13705 0.40065 0.04635 0.0
H690 H 0.1564 0.39382 0.18618 0.0
H691 H 0.25089 0.22241 0.23723 0.0
H692 H 0.18021 0.34496 0.02403 0.0
H693 H 0.35115 0.13434 1.0039 0.0
H694 H 0.13453 0.41419 0.11595 0.0
H695 H 0.21822 0.30821 0.88724 0.0
H696 H 0.30653 0.1904 0.02312 0.0
H697 H 0.22703 0.30039 0.81192 0.0
H698 H 0.18683 0.34417 0.23911 0.0
H699 H 0.35614 0.11775 0.93529 0.0
H700 H 0.33573 0.13446 0.86494 0.0
H701 H 0.21926 0.27936 0.26001 0.0
H702 H 0.3037 0.18098 0.8111 0.0
N703 N 0.28513 0.20503 0.96722 0.0
C704 C 0.30795 0.18346 0.99353 0.0
C705 C 0.33671 0.1426 0.94348 0.0
C706 C 0.31582 0.16655 0.91438 0.0
C707 C 0.33381 0.15179 0.98231 0.0
C708 C 0.29172 0.19881 0.92613 0.0
H709 H 0.26557 0.24392 0.78942 0.0
N710 N 0.25356 0.25663 0.9072 0.0
C711 C 0.24162 0.27956 0.83446 0.0
C712 C 0.2753 0.22545 0.89508 0.0
C713 C 0.23714 0.2839 0.87722 0.0
C714 C 0.26298 0.24734 0.82216 0.0
C715 C 0.28008 0.21971 0.85268 0.0
O716 O 0.18303 0.28275 0.96413 0.0
O717 O 0.20972 0.27414 0.05103 0.0
O718 O 0.25667 0.22191 0.09 0.0
O719 O 0.23855 0.20573 0.04406 0.0
O720 O 0.18101 0.25319 0.04197 0.0
O721 O 0.21295 0.22746 0.96184 0.0
O722 O 0.29707 0.25635 0.09309 0.0
O723 O 0.27663 0.26268 0.99173 0.0
O724 O 0.23308 0.31021 0.95178 0.0
O725 O 0.24674 0.32803 1.00085 0.0
O726 O 0.31138 0.26866 1.01154 0.0
O727 O 0.27322 0.3132 0.07316 0.0
C728 C 0.18121 0.2674 0.0705 0.0
C729 C 0.15127 0.24673 0.97636 0.0
C730 C 0.12331 0.20533 0.9929 0.0
C731 C 0.15364 0.21254 0.98242 0.0
C732 C 0.09012 0.23255 1.00154 0.0
C733 C 0.11791 0.2735 0.98457 0.0
C734 C 0.0875 0.26619 0.99801 0.0
C735 C 0.24773 0.19939 0.08172 0.0
C736 C 0.18375 0.25434 0.95774 0.0
C737 C 0.30064 0.18626 0.84291 0.0
C738 C 0.31861 0.1597 0.87372 0.0
C739 C 0.30873 0.26163 0.97807 0.0
C740 C 0.3302 0.28819 0.08886 0.0
C741 C 0.33866 0.31789 0.06533 0.0
C742 C 0.36947 0.31954 0.06707 0.0
C743 C 0.39139 0.29125 0.09264 0.0
C744 C 0.35245 0.26062 0.11439 0.0
C745 C 0.38287 0.26213 0.11606 0.0
C746 C 0.23919 0.33387 0.96199 0.0
C747 C 0.29646 0.28658 0.09274 0.0
H748 H 0.17934 0.19172 0.97653 0.0
H749 H 0.06616 0.2285 1.00835 0.0
H750 H 0.11531 0.3001 0.9798 0.0
H751 H 0.06178 0.28698 1.00372 0.0
H752 H 0.32093 0.33999 0.04715 0.0
H753 H 0.41432 0.29233 0.09653 0.0
H754 H 0.34575 0.23818 0.13422 0.0
H755 H 0.39938 0.2411 0.13668 0.0
Eu756 Eu 0.23174 1.00011 0.23739 0.0
C757 C 0.27 0.10189 0.27731 0.0
C758 C 0.32924 0.09189 0.22833 0.0
C759 C 0.29561 0.14577 0.25599 0.0
C760 C 0.30095 0.08039 0.25252 0.0
C761 C 0.26717 0.1349 0.27911 0.0
C762 C 0.32646 0.12443 0.23055 0.0
C763 C 0.20994 0.14266 0.33116 0.0
N764 N 0.24337 0.09014 0.30114 0.0
C765 C 0.2145 0.10935 0.32984 0.0
C766 C 0.23633 0.15558 0.30554 0.0
Eu767 Eu 0.25758 0.03018 0.30502 0.0
N768 N 0.30331 0.04867 0.25122 0.0
C769 C 0.33205 0.02895 0.22306 0.0
C770 C 0.35951 0.07052 0.20211 0.0
C771 C 0.36062 0.03922 0.19883 0.0
H772 H 0.19538 0.09851 0.35322 0.0
H773 H 0.38335 0.0231 0.17718 0.0
H774 H 0.34808 0.13334 0.21269 0.0
H775 H 0.18668 0.15777 0.35334 0.0
H776 H 0.33338 1.00571 0.21759 0.0
H777 H 0.11574 0.9996 0.38244 0.0
H778 H 0.38168 0.07845 0.18318 0.0
H779 H 0.29318 0.93276 0.18659 0.0
H780 H 0.16159 0.02125 0.33254 0.0
H781 H 0.29943 0.87541 0.1826 0.0
H782 H 0.29435 0.17042 0.25815 0.0
H783 H 0.11563 0.94535 0.3754 0.0
H784 H 0.14368 0.89526 0.33622 0.0
H785 H 0.23318 0.181 0.30773 0.0
H786 H 0.1926 0.86305 0.28001 0.0
N787 N 0.18783 0.98066 0.29473 0.0
C788 C 0.16191 0.99823 0.32728 0.0
C789 C 0.13612 0.95482 0.35291 0.0
C790 C 0.16325 0.93617 0.32091 0.0
C791 C 0.13594 0.98556 0.35675 0.0
C792 C 0.1898 0.94921 0.29292 0.0
H793 H 0.25233 0.85286 0.22793 0.0
N794 N 0.24541 0.94101 0.23916 0.0
C795 C 0.27691 0.89002 0.20605 0.0
C796 C 0.21894 0.92925 0.26399 0.0
C797 C 0.27371 0.92224 0.20954 0.0
C798 C 0.25016 0.87754 0.2314 0.0
C799 C 0.22065 0.89727 0.26042 0.0
O800 O 0.24872 0.99426 0.1676 0.0
O801 O 0.25071 0.04055 0.23683 0.0
O802 O 0.20132 0.06819 0.29936 0.0
O803 O 0.18382 0.04828 0.25684 0.0
O804 O 0.23785 0.04697 0.18053 0.0
O805 O 0.19298 1.00486 0.20601 0.0
O806 O 0.24257 0.03626 0.37384 0.0
O807 O 0.24734 0.98411 0.30297 0.0
O808 O 0.29068 0.96557 0.23471 0.0
O809 O 0.30327 0.9788 0.28919 0.0
O810 O 0.2274 0.99903 0.36338 0.0
O811 O 0.29874 0.02 0.33693 0.0
C812 C 0.24844 0.06122 0.19844 0.0
C813 C 0.20886 0.99759 0.12854 0.0
C814 C 0.16889 0.99693 0.09294 0.0
C815 C 0.17602 0.99738 0.1315 0.0
C816 C 0.19475 0.99644 0.05178 0.0
C817 C 0.23437 0.99671 0.087 0.0
C818 C 0.2273 0.99614 0.04896 0.0
C819 C 0.17822 0.07135 0.27941 0.0
C820 C 0.21703 0.99851 0.16823 0.0
C821 C 0.19264 0.88617 0.28507 0.0
C822 C 0.16448 0.90497 0.31617 0.0
C823 C 0.23212 0.97511 0.3443 0.0
C824 C 0.2829 0.02892 0.41405 0.0
C825 C 0.31597 0.02783 0.41216 0.0
C826 C 0.32196 0.02987 0.45062 0.0
C827 C 0.29476 0.03329 0.49055 0.0
C828 C 0.25603 0.03265 0.45439 0.0
C829 C 0.26199 0.03481 0.4923 0.0
C830 C 0.31171 0.95904 0.2601 0.0
C831 C 0.27484 0.02919 0.37368 0.0
H832 H 0.15602 0.99803 0.16325 0.0
H833 H 0.1897 0.99625 1.02172 0.0
H834 H 0.25982 0.99666 0.08377 0.0
H835 H 0.24707 0.99563 1.01707 0.0
H836 H 0.33681 0.02551 0.38117 0.0
H837 H 0.29886 0.03502 0.52043 0.0
H838 H 0.23016 0.03422 0.45666 0.0
H839 H 0.2411 0.03779 0.52312 0.0
Eu840 Eu 0.50435 0.27834 0.8089 0.0
C841 C 0.41055 0.24138 0.75846 0.0
C842 C 0.41555 0.18575 0.80998 0.0
C843 C 0.36602 0.21714 0.77647 0.0
C844 C 0.42919 0.21211 0.78587 0.0
C845 C 0.37826 0.24433 0.75456 0.0
C846 C 0.38487 0.18781 0.80362 0.0
C847 C 0.3745 0.29871 0.70218 0.0
N848 N 0.42436 0.26618 0.73438 0.0
C849 C 0.4074 0.29378 0.705 0.0
C850 C 0.35987 0.2738 0.72699 0.0
Eu851 Eu 0.48364 0.25073 0.7347 0.0
N852 N 0.46054 0.20913 0.78885 0.0
C853 C 0.47719 0.18225 0.81913 0.0
C854 C 0.43335 0.15764 0.83943 0.0
C855 C 0.46384 0.15638 0.84483 0.0
H856 H 0.42023 0.31097 0.68122 0.0
H857 H 0.47728 0.13534 0.86862 0.0
H858 H 0.3761 0.16637 0.81902 0.0
H859 H 0.36135 0.32079 0.67904 0.0
H860 H 0.50002 0.18073 0.82544 0.0
H861 H 0.51018 0.39411 0.67546 0.0
H862 H 0.42337 0.13718 0.85882 0.0
H863 H 0.56833 0.21802 0.86169 0.0
H864 H 0.48917 0.34709 0.71628 0.0
H865 H 0.6261 0.20974 0.86578 0.0
H866 H 0.34238 0.21832 0.77169 0.0
H867 H 0.56155 0.39468 0.68917 0.0
H868 H 0.60697 0.36717 0.73221 0.0
H869 H 0.33497 0.27695 0.72345 0.0
H870 H 0.64061 0.31556 0.78003 0.0
N871 N 0.52718 0.32025 0.75506 0.0
C872 C 0.51092 0.34665 0.72409 0.0
C873 C 0.55242 0.37349 0.70733 0.0
C874 C 0.57003 0.34572 0.73729 0.0
C875 C 0.52334 0.37339 0.69976 0.0
C876 C 0.55755 0.31838 0.75967 0.0
H877 H 0.65031 0.25562 0.82493 0.0
N878 N 0.56335 0.26364 0.80977 0.0
C879 C 0.61277 0.2319 0.84287 0.0
C880 C 0.57622 0.28931 0.78721 0.0
C881 C 0.58059 0.23589 0.83876 0.0
C882 C 0.62616 0.25796 0.82009 0.0
C883 C 0.60743 0.28748 0.79293 0.0
O884 O 0.49816 0.27394 0.88022 0.0
O885 O 0.45946 0.26795 0.8028 0.0
O886 O 0.44708 0.30896 0.73304 0.0
O887 O 0.45546 0.32339 0.78955 0.0
O888 O 0.47113 0.2484 0.86399 0.0
O889 O 0.49176 0.32396 0.83656 0.0
O890 O 0.48967 0.25486 0.66349 0.0
O891 O 0.52854 0.26117 0.74062 0.0
O892 O 0.54116 0.22025 0.81047 0.0
O893 O 0.53284 0.20586 0.75388 0.0
O894 O 0.51659 0.28082 0.67962 0.0
O895 O 0.49576 0.20503 0.70755 0.0
C896 C 0.44867 0.25276 0.84353 0.0
C897 C 0.51458 0.31163 0.90038 0.0
C898 C 0.52664 0.34681 0.93481 0.0
C899 C 0.50604 0.34421 0.91146 0.0
C900 C 0.55697 0.31748 0.94269 0.0
C901 C 0.54242 0.28252 0.91514 0.0
C902 C 0.56424 0.28572 0.93391 0.0
C903 C 0.43821 0.33092 0.75927 0.0
C904 C 0.49381 0.30609 0.87703 0.0
C905 C 0.61815 0.31579 0.77332 0.0
C906 C 0.59926 0.34496 0.74599 0.0
C907 C 0.5392 0.27645 0.69986 0.0
C908 C 0.47322 0.21707 0.6436 0.0
C909 C 0.48223 0.18453 0.63206 0.0
C910 C 0.46203 0.18184 0.60826 0.0
C911 C 0.43177 0.21102 0.59993 0.0
C912 C 0.44515 0.24601 0.62906 0.0
C913 C 0.42386 0.24271 0.60948 0.0
C914 C 0.55011 0.19834 0.78418 0.0
C915 C 0.49388 0.22272 0.66698 0.0
H916 H 0.48303 0.36654 0.90385 0.0
H917 H 0.57444 0.31855 0.95813 0.0
H918 H 0.54726 0.25668 0.91306 0.0
H919 H 0.58643 0.26303 0.94312 0.0
H920 H 0.50534 0.16233 0.63962 0.0
H921 H 0.41494 0.20986 0.58356 0.0
H922 H 0.43988 0.27183 0.63165 0.0
H923 H 0.40166 0.26532 0.60013 0.0
Eu924 Eu 0.00421 0.77744 0.81139 0.0
C925 C 0.90501 0.75004 0.76943 0.0
C926 C 0.90659 0.69669 0.8251 0.0
C927 C 0.85157 0.73783 0.80678 0.0
C928 C 0.92408 0.71863 0.79402 0.0
C929 C 0.86882 0.75902 0.77465 0.0
C930 C 0.87033 0.70692 0.83198 0.0
C931 C 0.86977 0.80744 0.71238 0.0
N932 N 0.9218 0.77097 0.73905 0.0
C933 C 0.90549 0.79761 0.70831 0.0
C934 C 0.85104 0.78859 0.74652 0.0
Eu935 Eu 0.98235 0.75105 0.73448 0.0
N936 N 0.95933 0.7094 0.78781 0.0
C937 C 0.97844 0.67765 0.80968 0.0
C938 C 0.92589 0.66505 0.8488 0.0
C939 C 0.96201 0.65538 0.84069 0.0
H940 H 0.92008 0.8114 0.68029 0.0
H941 H 0.97738 0.63055 0.85809 0.0
H942 H 0.8568 0.69079 0.85656 0.0
H943 H 0.85695 0.82916 0.6887 0.0
H944 H 0.00644 0.66829 0.80346 0.0
H945 H 0.01694 0.89265 0.68339 0.0
H946 H 0.91321 0.6477 0.87295 0.0
H947 H 0.06413 0.71551 0.86912 0.0
H948 H 0.98562 0.85632 0.73803 0.0
H949 H 0.1275 0.6949 0.86297 0.0
H950 H 0.8238 0.74511 0.81171 0.0
H951 H 0.08108 0.87387 0.67181 0.0
H952 H 0.13643 0.82907 0.69082 0.0
H953 H 0.82329 0.79612 0.74956 0.0
H954 H 0.16684 0.77494 0.73826 0.0
N955 N 0.03125 0.8155 0.7572 0.0
C956 C 0.01351 0.84682 0.73327 0.0
C957 C 0.06732 0.85749 0.69613 0.0
C958 C 0.08522 0.82602 0.7216 0.0
C959 C 0.03123 0.86805 0.70235 0.0
C960 C 0.06626 0.80547 0.75288 0.0
H961 H 0.16379 0.72558 0.80261 0.0
N962 N 0.06492 0.75521 0.80996 0.0
C963 C 0.11581 0.71677 0.83851 0.0
C964 C 0.08355 0.77442 0.77931 0.0
C965 C 0.08004 0.72812 0.84129 0.0
C966 C 0.13605 0.73426 0.80467 0.0
C967 C 0.11986 0.76388 0.77528 0.0
O968 O -0.00144 0.77576 0.88182 0.0
O969 O 0.95998 0.76668 0.80403 0.0
O970 O 0.95079 0.81063 0.7296 0.0
O971 O 0.95422 0.82097 0.7932 0.0
O972 O 0.97057 0.74775 0.86606 0.0
O973 O 0.99255 0.82444 0.83535 0.0
O974 O 0.979 0.76065 0.66606 0.0
O975 O 0.02221 0.76873 0.73946 0.0
O976 O 0.03746 0.71892 0.81334 0.0
O977 O 0.03215 0.707 0.75216 0.0
O978 O 0.02792 0.76308 0.67719 0.0
O979 O 0.98927 0.70766 0.70611 0.0
C980 C 0.94892 0.75144 0.84472 0.0
C981 C 0.01598 0.8148 0.89732 0.0
C982 C 0.02667 0.85033 0.93263 0.0
C983 C 0.0054 0.84672 0.91135 0.0
C984 C 0.05907 0.82285 0.93641 0.0
C985 C 0.04688 0.78736 0.90666 0.0
C986 C 0.06871 0.79167 0.92425 0.0
C987 C 0.93963 0.83064 0.75939 0.0
C988 C -0.00545 0.80812 0.87629 0.0
C989 C 0.13883 0.78347 0.74272 0.0
C990 C 0.12155 0.81436 0.71598 0.0
C991 C 0.04292 0.76978 0.6988 0.0
C992 C 0.98364 0.71811 0.62838 0.0
C993 C 0.97923 0.68709 0.63043 0.0
C994 C 0.9755 0.68159 0.59178 0.0
C995 C 0.97689 0.70708 0.55203 0.0
C996 C 0.98564 0.742 0.58715 0.0
C997 C 0.98232 0.73651 0.54964 0.0
C998 C 0.04807 0.69872 0.78418 0.0
C999 C 0.98313 0.72872 0.66827 0.0
H1000 H 0.98049 0.86763 0.90758 0.0
H1001 H 0.07643 0.82483 0.95114 0.0
H1002 H 0.0539 0.76184 0.90186 0.0
H1003 H 0.09281 0.77017 0.92997 0.0
H1004 H 0.97739 0.66832 0.6618 0.0
H1005 H 0.97455 0.70385 0.52187 0.0
H1006 H 0.98922 0.76565 0.58385 0.0
H1007 H 0.98372 0.75545 0.51838 0.0
Eu1008 Eu 0.73274 0.5013 0.23496 0.0
C1009 C 0.76367 0.59864 0.29278 0.0
C1010 C 0.82137 0.59454 0.24212 0.0
C1011 C 0.78497 0.64503 0.27673 0.0
C1012 C 0.79493 0.5803 0.26471 0.0
C1013 C 0.75864 0.63118 0.29908 0.0
C1014 C 0.81608 0.62694 0.24808 0.0
C1015 C 0.70394 0.6322 0.35424 0.0
N1016 N 0.73922 0.58396 0.31608 0.0
C1017 C 0.71059 0.59953 0.34819 0.0
C1018 C 0.72795 0.64826 0.32933 0.0
Eu1019 Eu 0.75581 0.5258 0.30958 0.0
N1020 N 0.80008 0.54833 0.26043 0.0
C1021 C 0.83062 0.53028 0.23251 0.0
C1022 C 0.8529 0.57546 0.21492 0.0
C1023 C 0.85745 0.54328 0.20997 0.0
H1024 H 0.69314 0.58623 0.37022 0.0
H1025 H 0.8815 0.52859 0.18825 0.0
H1026 H 0.83626 0.63794 0.23135 0.0
H1027 H 0.68091 0.6444 0.37928 0.0
H1028 H 0.8349 0.50609 0.22623 0.0
H1029 H 0.61219 0.50097 0.37221 0.0
H1030 H 0.87376 0.58548 0.19728 0.0
H1031 H 0.79223 0.43691 0.17867 0.0
H1032 H 0.65606 0.52433 0.32231 0.0
H1033 H 0.80252 0.37736 0.17744 0.0
H1034 H 0.78197 0.66928 0.28247 0.0
H1035 H 0.61839 0.44239 0.37183 0.0
H1036 H 0.65289 0.38826 0.34107 0.0
H1037 H 0.7232 0.67324 0.33489 0.0
H1038 H 0.70447 0.3547 0.28923 0.0
N1039 N 0.68787 0.48102 0.28925 0.0
C1040 C 0.65945 0.49958 0.31906 0.0
C1041 C 0.63797 0.45288 0.34862 0.0
C1042 C 0.66715 0.43345 0.31915 0.0
C1043 C 0.6343 0.48596 0.34878 0.0
C1044 C 0.69219 0.44816 0.28961 0.0
H1045 H 0.76083 0.34966 0.22989 0.0
N1046 N 0.74658 0.44246 0.23411 0.0
C1047 C 0.78017 0.39113 0.2018 0.0
C1048 C 0.7221 0.42856 0.26128 0.0
C1049 C 0.77447 0.4248 0.20316 0.0
C1050 C 0.75644 0.37575 0.23115 0.0
C1051 C 0.72676 0.39456 0.26089 0.0
O1052 O 0.74423 0.50501 0.16306 0.0
O1053 O 0.74255 0.5455 0.24237 0.0
O1054 O 0.69892 0.5646 0.30756 0.0
O1055 O 0.68624 0.55154 0.25351 0.0
O1056 O 0.76566 0.53199 0.18114 0.0
O1057 O 0.69092 0.51258 0.20376 0.0
O1058 O 0.74494 0.51875 0.38208 0.0
O1059 O 0.74742 0.48065 0.30196 0.0
O1060 O 0.79064 0.46445 0.23234 0.0
O1061 O 0.80267 0.47676 0.28762 0.0
O1062 O 0.72172 0.49666 0.36248 0.0
O1063 O 0.79781 0.51332 0.34107 0.0
C1064 C 0.76039 0.55461 0.20278 0.0
C1065 C 0.71016 0.48881 0.13772 0.0
C1066 C 0.67605 0.47816 0.10247 0.0
C1067 C 0.67744 0.49539 0.13118 0.0
C1068 C 0.7073 0.45333 0.08213 0.0
C1069 C 0.74106 0.46467 0.11535 0.0
C1070 C 0.73947 0.44662 0.08868 0.0
C1071 C 0.67777 0.57126 0.28252 0.0
C1072 C 0.71262 0.50934 0.16396 0.0
C1073 C 0.70153 0.38044 0.28959 0.0
C1074 C 0.67198 0.3997 0.31884 0.0
C1075 C 0.72955 0.47232 0.34204 0.0
C1076 C 0.77821 0.53493 0.40879 0.0
C1077 C 0.81069 0.52883 0.41553 0.0
C1078 C 0.81152 0.54628 0.44446 0.0
C1079 C 0.77998 0.57113 0.46431 0.0
C1080 C 0.74697 0.55852 0.43148 0.0
C1081 C 0.74803 0.57712 0.45786 0.0
C1082 C 0.81183 0.45798 0.25715 0.0
C1083 C 0.77638 0.51491 0.38129 0.0
H1084 H 0.65352 0.51485 0.14668 0.0
H1085 H 0.70689 0.43945 0.06044 0.0
H1086 H 0.76679 0.46011 0.11747 0.0
H1087 H 0.76346 0.42793 0.07206 0.0
H1088 H 0.83486 0.50964 0.39995 0.0
H1089 H 0.77996 0.58549 0.48574 0.0
H1090 H 0.7214 0.56238 0.42964 0.0
H1091 H 0.72381 0.59567 0.47433 0.0
Eu1092 Eu 0.72902 0.75363 0.99009 0.0
C1093 C 0.71683 0.80081 0.15081 0.0
C1094 C 0.67931 0.8616 0.13396 0.0
C1095 C 0.69489 0.83745 0.2055 0.0
C1096 C 0.70106 0.82933 0.12063 0.0
C1097 C 0.71377 0.80455 0.19369 0.0
C1098 C 0.67747 0.86592 0.1758 0.0
C1099 C 0.74648 0.74274 0.21117 0.0
N1100 N 0.7357 0.76957 0.13783 0.0
C1101 C 0.74974 0.7404 0.16793 0.0
C1102 C 0.72935 0.77505 0.22372 0.0
Eu1103 Eu 0.75725 0.77462 0.05841 0.0
N1104 N 0.70619 0.82516 0.07877 0.0
C1105 C 0.68465 0.85015 0.05232 0.0
C1106 C 0.65922 0.88814 0.1055 0.0
C1107 C 0.66089 0.88184 0.06532 0.0
H1108 H 0.7663 0.7156 0.15811 0.0
H1109 H 0.6443 0.90162 0.04391 0.0
H1110 H 0.66159 0.89076 0.18617 0.0
H1111 H 0.75856 0.71984 0.23412 0.0
H1112 H 0.68519 0.84605 1.0213 0.0
H1113 H 0.84563 0.63121 1.00178 0.0
H1114 H 0.64143 0.913 0.11501 0.0
H1115 H 0.71412 0.81107 0.89087 0.0
H1116 H 0.80473 0.68791 1.02192 0.0
H1117 H 0.72449 0.80623 0.81367 0.0
H1118 H 0.69254 0.84085 0.23814 0.0
H1119 H 0.84715 0.61698 0.9334 0.0
H1120 H 0.82693 0.63724 0.86252 0.0
H1121 H 0.72758 0.77681 0.25698 0.0
H1122 H 0.7953 0.68589 0.81007 0.0
N1123 N 0.7812 0.70519 0.96748 0.0
C1124 C 0.80422 0.68194 0.99281 0.0
C1125 C 0.8289 0.64193 0.94235 0.0
C1126 C 0.80778 0.66725 0.91422 0.0
C1127 C 0.82807 0.64986 0.98096 0.0
C1128 C 0.78506 0.69955 0.92706 0.0
H1129 H 0.75894 0.74954 0.79051 0.0
N1130 N 0.7475 0.75816 0.91042 0.0
C1131 C 0.73682 0.78385 0.83692 0.0
C1132 C 0.76772 0.72702 0.89744 0.0
C1133 C 0.73206 0.78661 0.8806 0.0
C1134 C 0.75601 0.75163 0.82409 0.0
C1135 C 0.77177 0.72265 0.85447 0.0
O1136 O 0.68406 0.77179 0.96287 0.0
O1137 O 0.71109 0.7609 0.06333 0.0
O1138 O 0.76186 0.71614 0.08881 0.0
O1139 O 0.73346 0.70585 0.0503 0.0
O1140 O 0.67552 0.79044 0.02562 0.0
O1141 O 0.71018 0.71634 0.98696 0.0
O1142 O 0.8017 0.74965 0.08876 0.0
O1143 O 0.77717 0.75904 0.99065 0.0
O1144 O 0.73177 0.80844 0.95305 0.0
O1145 O 0.75167 0.82255 0.99862 0.0
O1146 O 0.81285 0.76413 1.01036 0.0
O1147 O 0.77591 0.80654 0.07458 0.0
C1148 C 0.67821 0.78062 0.06661 0.0
C1149 C 0.64977 0.73679 0.9879 0.0
C1150 C 0.61704 0.7002 1.0018 0.0
C1151 C 0.64898 0.70394 0.99401 0.0
C1152 C 0.58544 0.72986 1.00661 0.0
C1153 C 0.61797 0.76597 0.99245 0.0
C1154 C 0.58598 0.7623 1.00246 0.0
C1155 C 0.74862 0.69573 0.08388 0.0
C1156 C 0.68411 0.74064 0.97052 0.0
C1157 C 0.7922 0.68979 0.84276 0.0
C1158 C 0.81006 0.66204 0.8727 0.0
C1159 C 0.80935 0.75796 0.9769 0.0
C1160 C 0.83339 0.78243 0.08771 0.0
C1161 C 0.83974 0.81356 0.06668 0.0
C1162 C 0.8694 0.81664 0.06968 0.0
C1163 C 0.89226 0.7884 0.09405 0.0
C1164 C 0.85657 0.75492 0.11199 0.0
C1165 C 0.88582 0.7579 0.115 0.0
C1166 C 0.74197 0.82993 0.96098 0.0
C1167 C 0.8004 0.77945 0.09124 0.0
H1168 H 0.67365 0.68163 0.99013 0.0
H1169 H 0.56034 0.72864 1.01107 0.0
H1170 H 0.61778 0.79176 0.98708 0.0
H1171 H 0.56161 0.78499 1.00505 0.0
H1172 H 0.82119 0.83564 0.04962 0.0
H1173 H 0.91429 0.79053 0.09893 0.0
H1174 H 0.85136 0.73141 0.13005 0.0
H1175 H 0.90299 0.73688 0.13483 0.0
Eu1176 Eu 0.46997 1.00176 0.57532 0.0
C1177 C 0.5443 1.00285 0.37253 0.0
C1178 C 0.59599 0.94925 0.37607 0.0
C1179 C 0.57601 0.97492 0.30758 0.0
C1180 C 0.56819 0.97683 0.39635 0.0
C1181 C 0.54821 1.00218 0.32777 0.0
C1182 C 0.59977 0.94851 0.33168 0.0
C1183 C 0.498 0.05663 0.32477 0.0
N1184 N 0.51771 0.02912 0.39261 0.0
C1185 C 0.49535 0.05644 0.36888 0.0
C1186 C 0.52449 0.02932 0.30414 0.0
Eu1187 Eu 0.51959 0.02974 0.46417 0.0
N1188 N 0.56442 0.97843 0.43906 0.0
C1189 C 0.58743 0.95301 0.46326 0.0
C1190 C 0.61947 0.92327 0.40083 0.0
C1191 C 0.61503 0.92507 0.44467 0.0
H1192 H 0.47542 0.07828 0.38416 0.0
H1193 H 0.633 0.905 0.46415 0.0
H1194 H 0.62114 0.92768 0.31556 0.0
H1195 H 0.47996 0.07811 0.30649 0.0
H1196 H 0.58456 0.95353 0.49731 0.0
H1197 H 0.35885 0.12742 0.589 0.0
H1198 H 0.64111 0.90171 0.3864 0.0
H1199 H 0.51456 0.9455 0.65145 0.0
H1200 H 0.40605 0.0816 0.54984 0.0
H1201 H 0.51119 0.93777 0.73148 0.0
H1202 H 0.57949 0.97413 0.2732 0.0
H1203 H 0.3517 0.12339 0.6692 0.0
H1204 H 0.37213 0.09035 0.73924 0.0
H1205 H 0.52676 0.02974 0.26971 0.0
H1206 H 0.4136 0.03929 0.77768 0.0
N1207 N 0.4268 0.05103 0.60688 0.0
C1208 C 0.40379 0.07897 0.58478 0.0
C1209 C 0.37289 0.10303 0.65208 0.0
C1210 C 0.39628 0.07444 0.67473 0.0
C1211 C 0.37681 0.10538 0.60686 0.0
C1212 C 0.42345 0.04856 0.65093 0.0
H1213 H 0.46562 0.98272 0.77498 0.0
N1214 N 0.47287 0.99541 0.64898 0.0
C1215 C 0.49321 0.96115 0.71525 0.0
C1216 C 0.44712 0.01999 0.67253 0.0
C1217 C 0.49523 0.96575 0.66992 0.0
C1218 C 0.46743 0.98655 0.73968 0.0
C1219 C 0.44381 0.01626 0.71855 0.0
O1220 O 0.46505 0.95245 0.6156 0.0
O1221 O 0.49719 0.98924 0.50625 0.0
O1222 O 0.47046 0.03073 0.45453 0.0
O1223 O 0.43421 0.02777 0.52752 0.0
O1224 O 0.51016 0.94919 0.559 0.0
O1225 O 0.41927 0.99634 0.59424 0.0
O1226 O 0.52258 0.07716 0.41681 0.0
O1227 O 0.49229 0.04226 0.53291 0.0
O1228 O 0.51903 0.99927 0.58681 0.0
O1229 O 0.55368 1.00986 0.51351 0.0
O1230 O 0.48034 0.08275 0.48051 0.0
O1231 O 0.56935 0.03797 0.4385 0.0
C1232 C 0.51326 0.95669 0.51621 0.0
C1233 C 0.41038 0.94324 0.63884 0.0
C1234 C 0.37761 0.91309 0.63362 0.0
C1235 C 0.39346 0.93776 0.61449 0.0
C1236 C 0.37664 0.89584 0.67879 0.0
C1237 C 0.40996 0.92534 0.68336 0.0
C1238 C 0.39251 0.90219 0.70351 0.0
C1239 C 0.43963 0.03278 0.48346 0.0
C1240 C 0.4319 0.96435 0.61598 0.0
C1241 C 0.41667 0.04184 0.74229 0.0
C1242 C 0.39302 0.07087 0.72042 0.0
C1243 C 0.47663 0.07487 0.52348 0.0
C1244 C 0.56514 0.0972 0.41248 0.0
C1245 C 0.57767 0.09785 0.44619 0.0
C1246 C 0.58584 0.12637 0.44203 0.0
C1247 C 0.58149 0.15385 0.40443 0.0
C1248 C 0.56113 0.12486 0.37515 0.0
C1249 C 0.56926 0.15303 0.3712 0.0
C1250 C 0.54885 1.00097 0.55791 0.0
C1251 C 0.55562 0.06868 0.41432 0.0
H1252 H 0.39449 0.95102 0.57986 0.0
H1253 H 0.36534 0.87604 0.69434 0.0
H1254 H 0.42356 0.92889 0.70222 0.0
H1255 H 0.39247 0.8881 0.73778 0.0
H1256 H 0.58107 0.07661 0.47494 0.0
H1257 H 0.58752 0.17611 0.40093 0.0
H1258 H 0.55157 0.12467 0.34895 0.0
H1259 H 0.566 0.17432 0.3424 0.0
Eu1260 Eu 0.4728 0.4988 0.07843 0.0
C1261 C 0.53582 0.50706 0.87276 0.0
C1262 C 0.58868 0.45426 0.87096 0.0
C1263 C 0.56568 0.48264 0.80485 0.0
C1264 C 0.56111 0.4804 0.89403 0.0
C1265 C 0.53818 0.50854 0.82775 0.0
C1266 C 0.59078 0.45555 0.82642 0.0
C1267 C 0.48764 0.5628 0.82954 0.0
N1268 N 0.50969 0.53214 0.89533 0.0
C1269 C 0.48661 0.56053 0.87377 0.0
C1270 C 0.51343 0.5366 0.80647 0.0
Eu1271 Eu 0.51517 0.53033 0.96577 0.0
N1272 N 0.55914 0.48021 0.9368 0.0
C1273 C 0.58376 0.4543 0.95835 0.0
C1274 C 0.61374 0.42775 0.89305 0.0
C1275 C 0.61112 0.42767 0.93701 0.0
H1276 H 0.46738 0.58162 0.89087 0.0
H1277 H 0.63035 0.40722 0.95443 0.0
H1278 H 0.61197 0.43587 0.80817 0.0
H1279 H 0.46894 0.58509 0.81301 0.0
H1280 H 0.5824 0.45339 0.99238 0.0
H1281 H 0.35691 0.62152 0.08701 0.0
H1282 H 0.63527 0.40728 0.87643 0.0
H1283 H 0.52016 0.44929 0.15436 0.0
H1284 H 0.40689 0.57625 0.04938 0.0
H1285 H 0.51657 0.44592 0.23298 0.0
H1286 H 0.56797 0.48353 0.77023 0.0
H1287 H 0.34866 0.6205 0.16656 0.0
H1288 H 0.36974 0.59168 0.23657 0.0
H1289 H 0.51451 0.53869 0.77191 0.0
H1290 H 0.41335 0.5447 0.27573 0.0
N1291 N 0.42779 0.54883 0.10685 0.0
C1292 C 0.40405 0.57491 0.08412 0.0
C1293 C 0.37102 0.60041 0.15013 0.0
C1294 C 0.39544 0.57398 0.17323 0.0
C1295 C 0.37555 0.60103 0.10528 0.0
C1296 C 0.4241 0.5483 0.15039 0.0
H1297 H 0.46835 0.49095 0.27445 0.0
N1298 N 0.47633 0.49758 0.1498 0.0
C1299 C 0.49763 0.46766 0.21625 0.0
C1300 C 0.44902 0.52201 0.1724 0.0
C1301 C 0.49983 0.46994 0.17153 0.0
C1302 C 0.47033 0.49307 0.23954 0.0
C1303 C 0.4454 0.52045 0.21789 0.0
O1304 O 0.47347 0.44875 0.12193 0.0
O1305 O 0.49508 0.48825 1.00829 0.0
O1306 O 0.46363 0.53272 0.96036 0.0
O1307 O 0.43399 0.51922 0.03535 0.0
O1308 O 0.51219 0.44722 0.05833 0.0
O1309 O 0.42386 0.48942 0.10963 0.0
O1310 O 0.51514 0.58033 0.92249 0.0
O1311 O 0.49329 0.54076 0.03596 0.0
O1312 O 0.52441 0.49607 0.08395 0.0
O1313 O 0.55415 0.50958 1.00892 0.0
O1314 O 0.47664 0.58208 0.9862 0.0
O1315 O 0.56486 0.53778 0.93142 0.0
C1316 C 0.51216 0.45576 1.0164 0.0
C1317 C 0.42778 0.43068 0.13179 0.0
C1318 C 0.40641 0.40281 0.10119 0.0
C1319 C 0.41878 0.42877 0.09559 0.0
C1320 C 0.40383 0.37879 0.14228 0.0
C1321 C 0.425 0.40647 0.17244 0.0
C1322 C 0.41313 0.38061 0.1776 0.0
C1323 C 0.43529 0.52917 0.99179 0.0
C1324 C 0.43959 0.4576 0.1296 0.0
C1325 C 0.41668 0.5457 0.24072 0.0
C1326 C 0.3918 0.5724 0.21845 0.0
C1327 C 0.47661 0.57338 0.02818 0.0
C1328 C 0.56463 0.59524 0.90432 0.0
C1329 C 0.5776 0.59682 0.93685 0.0
C1330 C 0.59386 0.62063 0.92625 0.0
C1331 C 0.59626 0.64298 0.88367 0.0
C1332 C 0.56704 0.6179 0.86227 0.0
C1333 C 0.58278 0.64168 0.85204 0.0
C1334 C 0.55289 0.49931 0.05253 0.0
C1335 C 0.54946 0.56977 0.91161 0.0
H1336 H 0.42112 0.44721 0.06392 0.0
H1337 H 0.3946 0.35845 0.14694 0.0
H1338 H 0.43189 0.4077 0.20043 0.0
H1339 H 0.41101 0.362 0.20907 0.0
H1340 H 0.57532 0.57969 0.96967 0.0
H1341 H 0.60786 0.66216 0.8752 0.0
H1342 H 0.55692 0.61699 0.83711 0.0
H1343 H 0.58447 0.65921 0.81958 0.0
C1344 C 0.98868 0.08778 0.08939 0.0
C1345 C 0.96722 0.09671 0.06054 0.0
H1346 H 0.01017 0.10635 0.12188 0.0
C1347 C 0.94577 0.13195 0.04969 0.0
H1348 H 0.00545 0.06091 0.09876 0.0
C1349 C 0.94781 0.15778 0.06384 0.0
C1350 C 0.97184 0.14945 0.08879 0.0
H1351 H 0.92879 0.13987 0.02787 0.0
H1352 H 0.93236 0.1848 0.05226 0.0
C1353 C 0.99118 0.11387 0.10308 0.0
C1354 C 0.87697 0.22367 0.44638 0.0
C1355 C 0.84339 0.2481 0.44003 0.0
H1356 H 0.93385 0.20476 0.42331 0.0
C1357 C 0.84506 0.27313 0.39876 0.0
H1358 H 0.8782 0.20394 0.47698 0.0
C1359 C 0.87827 0.27373 0.36688 0.0
C1360 C 0.91186 0.24907 0.37402 0.0
H1361 H 0.82068 0.2931 0.39156 0.0
H1362 H 0.87751 0.29421 0.33705 0.0
C1363 C 0.90965 0.22419 0.41493 0.0
C1364 C 0.73892 0.1222 0.68932 0.0
C1365 C 0.75583 0.09118 0.6719 0.0
H1366 H 0.7244 0.17825 0.6763 0.0
C1367 C 0.76956 0.0958 0.62451 0.0
H1368 H 0.7261 0.12098 0.72479 0.0
C1369 C 0.76644 0.12907 0.5962 0.0
C1370 C 0.75071 0.15993 0.61343 0.0
H1371 H 0.78227 0.0734 0.60868 0.0
H1372 H 0.77673 0.13046 0.56026 0.0
C1373 C 0.73736 0.15557 0.66098 0.0
C1374 C 0.90321 0.99711 0.98472 0.0
C1375 C 0.91031 0.02727 0.97463 0.0
H1376 H 0.86825 0.97527 0.98487 0.0
C1377 C 0.8903 0.05813 0.95012 0.0
H1378 H 0.91953 0.97267 1.00151 0.0
C1379 C 0.86141 0.05948 0.93957 0.0
C1380 C 0.85272 0.02986 0.95295 0.0
H1381 H 0.89577 0.08154 0.94139 0.0
H1382 H 0.84475 0.08404 0.92327 0.0
C1383 C 0.87447 0.99841 0.97433 0.0
C1384 C 0.09579 0.96836 0.10527 0.0
C1385 C 0.07662 0.99671 0.07697 0.0
H1386 H 0.14066 0.94632 0.13309 0.0
C1387 C 0.08475 0.02671 0.06031 0.0
H1388 H 0.08958 0.94514 0.119 0.0
C1389 C 0.11343 0.02751 0.06825 0.0
C1390 C 0.13436 0.99837 0.09372 0.0
H1391 H 0.06915 0.04935 0.04023 0.0
H1392 H 0.12018 0.05041 0.05292 0.0
C1393 C 0.12471 0.96915 0.11349 0.0
C1394 C 0.00744 0.39882 0.52146 0.0
C1395 C 0.00895 0.43104 0.49499 0.0
H1396 H 0.00696 0.34957 0.52486 0.0
C1397 C 0.00763 0.4386 0.44984 0.0
H1398 H 0.00678 0.39213 0.55681 0.0
C1399 C 0.00889 0.41313 0.43067 0.0
C1400 C 0.0097 0.3801 0.45699 0.0
H1401 H 0.00637 0.46377 0.42909 0.0
H1402 H 0.01065 0.41879 0.39509 0.0
C1403 C 0.00719 0.37428 0.5031 0.0
C1404 C 0.61334 0.2966 0.59591 0.0
C1405 C 0.64639 0.27435 0.60567 0.0
H1406 H 0.55649 0.31507 0.61581 0.0
C1407 C 0.64347 0.2542 0.65055 0.0
H1408 H 0.61308 0.31186 0.56215 0.0
C1409 C 0.60965 0.25587 0.68258 0.0
C1410 C 0.57672 0.2774 0.67137 0.0
H1411 H 0.66737 0.23542 0.66026 0.0
H1412 H 0.60952 0.23875 0.71533 0.0
C1413 C 0.58011 0.29817 0.62729 0.0
C1414 C 0.7725 0.90421 0.87744 0.0
C1415 C 0.74168 0.9307 0.86514 0.0
H1416 H 0.79683 0.85366 0.91666 0.0
C1417 C 0.71072 0.92301 0.88566 0.0
H1418 H 0.79666 0.90908 0.86538 0.0
C1419 C 0.71102 0.89017 0.9143 0.0
C1420 C 0.74186 0.86415 0.92686 0.0
H1421 H 0.68561 0.94313 0.88226 0.0
H1422 H 0.6864 0.88603 0.92893 0.0
C1423 C 0.77255 0.87214 0.90769 0.0
C1424 C 0.11635 0.30172 0.10792 0.0
C1425 C 0.14929 0.27476 0.1131 0.0
H1426 H 0.0592 0.32192 0.12973 0.0
C1427 C 0.14612 0.2483 0.15237 0.0
H1428 H 0.11599 0.32185 0.07771 0.0
C1429 C 0.1126 0.24842 0.18329 0.0
C1430 C 0.07966 0.27488 0.17687 0.0
H1431 H 0.16966 0.22581 0.15768 0.0
H1432 H 0.11247 0.2261 0.2105 0.0
C1433 C 0.08299 0.30164 0.1383 0.0
C1434 C 0.71426 0.43125 0.41649 0.0
C1435 C 0.73086 0.43556 0.36967 0.0
H1436 H 0.70404 0.39678 0.48031 0.0
C1437 C 0.74993 0.40433 0.35261 0.0
H1438 H 0.69971 0.45387 0.43203 0.0
C1439 C 0.75099 0.37101 0.38064 0.0
C1440 C 0.73474 0.36699 0.42764 0.0
H1441 H 0.7647 0.40541 0.31771 0.0
H1442 H 0.76581 0.3481 0.36567 0.0
C1443 C 0.71669 0.39804 0.44468 0.0
C1444 C 0.59781 0.97099 0.5964 0.0
C1445 C 0.57492 1.00157 0.57528 0.0
H1446 H 0.64495 0.94768 0.61958 0.0
C1447 C 0.5787 0.03328 0.56709 0.0
H1448 H 0.595 0.94637 0.60322 0.0
C1449 C 0.60683 0.03411 0.57638 0.0
C1450 C 0.63126 1.00324 0.59461 0.0
H1451 H 0.56057 0.05725 0.55193 0.0
H1452 H 0.61059 0.05852 0.56713 0.0
C1453 C 0.62606 0.97181 0.60591 0.0
C1454 C 0.00722 0.93942 0.95477 0.0
C1455 C 0.01296 0.92939 0.99815 0.0
H1456 H 0.0072 0.92268 0.89918 0.0
C1457 C 0.01795 0.89474 1.02075 0.0
H1458 H 0.00157 0.96617 0.937 0.0
C1459 C 0.01886 0.87068 1.00044 0.0
C1460 C 0.01594 0.87964 0.95594 0.0
H1461 H 0.02136 0.88586 0.05458 0.0
H1462 H 0.02352 0.84417 1.01917 0.0
C1463 C 0.00939 0.91469 0.93352 0.0
C1464 C 0.14945 0.13422 0.93251 0.0
C1465 C 0.11865 0.12701 0.94948 0.0
H1466 H 0.17518 0.16499 0.93246 0.0
C1467 C 0.0949 0.1372 0.9898 0.0
H1468 H 0.16878 0.12559 0.90235 0.0
C1469 C 0.09886 0.15942 1.00814 0.0
C1470 C 0.12629 0.17205 0.98596 0.0
H1471 H 0.07124 0.13129 1.00439 0.0
H1472 H 0.0786 0.16926 0.03704 0.0
C1473 C 0.15318 0.15674 0.95033 0.0
C1474 C 0.62846 0.61992 0.32181 0.0
C1475 C 0.64395 0.60277 0.2852 0.0
H1476 H 0.58622 0.66216 0.35192 0.0
C1477 C 0.62703 0.61656 0.25016 0.0
H1478 H 0.63997 0.60974 0.35004 0.0
C1479 C 0.59634 0.64695 0.251 0.0
C1480 C 0.58118 0.66463 0.28709 0.0
H1481 H 0.63791 0.60428 0.22135 0.0
H1482 H 0.58484 0.65689 0.22268 0.0
C1483 C 0.59745 0.65025 0.32285 0.0
C1484 C 0.33665 0.86753 0.60392 0.0
C1485 C 0.36276 0.85558 0.56558 0.0
H1486 H 0.32005 0.89667 0.65457 0.0
C1487 C 0.38813 0.87083 0.5435 0.0
H1488 H 0.31633 0.85693 0.62208 0.0
C1489 C 0.39068 0.89314 0.56323 0.0
C1490 C 0.3676 0.90079 0.60508 0.0
H1491 H 0.40774 0.86342 0.51293 0.0
H1492 H 0.4128 0.90147 0.54786 0.0
C1493 C 0.33891 0.89017 0.62315 0.0
C1494 C 0.09463 0.65015 0.82378 0.0
C1495 C 0.07967 0.66485 0.78666 0.0
H1496 H 0.13655 0.60974 0.85267 0.0
C1497 C 0.09608 0.64719 0.75047 0.0
H1498 H 0.08228 0.66178 0.85316 0.0
C1499 C 0.12661 0.61661 0.75085 0.0
C1500 C 0.14228 0.60263 0.78718 0.0
H1501 H 0.0857 0.6573 0.72116 0.0
H1502 H 0.13847 0.6044 0.72185 0.0
C1503 C 0.12572 0.61985 0.82376 0.0
C1504 C 0.83964 0.38 0.58849 0.0
C1505 C 0.86394 0.36647 0.55025 0.0
H1506 H 0.83013 0.40499 0.64063 0.0
C1507 C 0.89272 0.37729 0.52825 0.0
H1508 H 0.81681 0.37308 0.6065 0.0
C1509 C 0.90068 0.39517 0.54889 0.0
C1510 C 0.87951 0.40294 0.59118 0.0
H1511 H 0.91103 0.36904 0.49743 0.0
H1512 H 0.92539 0.39915 0.53443 0.0
C1513 C 0.84724 0.3984 0.60844 0.0
C1514 C 0.36047 0.90917 0.22254 0.0
C1515 C 0.34539 0.92736 0.25804 0.0
H1516 H 0.40184 0.86558 0.19444 0.0
C1517 C 0.36228 0.91416 0.29307 0.0
H1518 H 0.34893 0.9188 0.19438 0.0
C1519 C 0.39251 0.88335 0.29333 0.0
C1520 C 0.40718 0.86457 0.25847 0.0
H1521 H 0.35168 0.92721 0.32112 0.0
H1522 H 0.404 0.87396 0.32158 0.0
C1523 C 0.39097 0.87835 0.22265 0.0
C1524 C 0.35969 0.40896 0.72151 0.0
C1525 C 0.34493 0.42743 0.75669 0.0
H1526 H 0.40086 0.36525 0.6935 0.0
C1527 C 0.36224 0.41458 0.79124 0.0
H1528 H 0.34781 0.41827 0.69373 0.0
C1529 C 0.39259 0.38387 0.79132 0.0
C1530 C 0.40691 0.36482 0.75679 0.0
H1531 H 0.35191 0.42783 0.81904 0.0
H1532 H 0.40441 0.37472 0.81922 0.0
C1533 C 0.39027 0.37823 0.72147 0.0
C1534 C 0.11167 0.80499 0.60362 0.0
C1535 C 0.1456 0.78071 0.60883 0.0
H1536 H 0.05486 0.82131 0.62655 0.0
C1537 C 0.14489 0.75411 0.64843 0.0
H1538 H 0.10985 0.82579 0.57413 0.0
C1539 C 0.11224 0.75161 0.67959 0.0
C1540 C 0.07828 0.77606 0.67378 0.0
H1541 H 0.16962 0.73414 0.65446 0.0
H1542 H 0.11373 0.72952 0.70746 0.0
C1543 C 0.07945 0.80255 0.63448 0.0
C1544 C 0.24822 0.90722 0.35591 0.0
C1545 C 0.23266 0.93847 0.37268 0.0
H1546 H 0.26075 0.85135 0.37002 0.0
C1547 C 0.21904 0.93424 0.42012 0.0
H1548 H 0.26091 0.90795 0.32047 0.0
C1549 C 0.22092 0.90133 0.44899 0.0
C1550 C 0.23533 0.87028 0.43251 0.0
H1551 H 0.20734 0.95671 0.43561 0.0
H1552 H 0.21076 0.90036 0.48488 0.0
C1553 C 0.24865 0.87418 0.3849 0.0
C1554 C -0.00538 0.61633 0.59638 0.0
C1555 C 0.9696 0.65069 0.58986 0.0
H1556 H 0.01477 0.56423 0.58472 0.0
C1557 C 0.94263 0.65682 0.57092 0.0
H1558 H 0.01613 0.61057 0.61003 0.0
C1559 C 0.94253 0.6307 0.5551 0.0
C1560 C 0.96872 0.59702 0.55879 0.0
H1561 H 0.92285 0.68281 0.56525 0.0
H1562 H 0.92267 0.63736 0.53803 0.0
C1563 C 0.99399 0.58975 0.5814 0.0
C1564 C 0.37033 0.7365 0.45123 0.0
C1565 C 0.33828 0.75891 0.43893 0.0
H1566 H 0.42742 0.71685 0.43389 0.0
C1567 C 0.34319 0.77787 0.39344 0.0
H1568 H 0.36908 0.72223 0.48561 0.0
C1569 C 0.37758 0.77472 0.36271 0.0
C1570 C 0.40959 0.75299 0.37576 0.0
H1571 H 0.32007 0.79659 0.38186 0.0
H1572 H 0.37889 0.79081 0.32924 0.0
C1573 C 0.40449 0.73368 0.42093 0.0
C1574 C 0.27825 0.10706 0.15914 0.0
C1575 C 0.24765 0.09868 0.17748 0.0
H1576 H 0.30232 0.14467 0.11789 0.0
C1577 C 0.21746 0.12444 0.16295 0.0
H1578 H 0.30319 0.08735 0.16387 0.0
C1579 C 0.21764 0.15645 0.13278 0.0
C1580 C 0.24781 0.16527 0.11606 0.0
H1581 H 0.19374 0.11901 0.1732 0.0
H1582 H 0.19394 0.17428 0.12194 0.0
C1583 C 0.27802 0.13998 0.13075 0.0
C1584 C 0.87422 0.72477 0.94094 0.0
C1585 C 0.84139 0.75117 0.93451 0.0
H1586 H 0.93127 0.70399 0.91972 0.0
C1587 C 0.84467 0.77708 0.89455 0.0
H1588 H 0.8743 0.70499 0.97151 0.0
C1589 C 0.87846 0.77674 0.86404 0.0
C1590 C 0.91123 0.75058 0.87178 0.0
H1591 H 0.82111 0.79906 0.88813 0.0
H1592 H 0.87884 0.79811 0.83546 0.0
C1593 C 0.90764 0.72451 0.911 0.0
C1594 C 0.23767 0.6246 0.69301 0.0
C1595 C 0.25852 0.59346 0.67591 0.0
H1596 H 0.22082 0.68089 0.68098 0.0
C1597 C 0.27794 0.59789 0.63023 0.0
H1598 H 0.22098 0.62332 0.72702 0.0
C1599 C 0.27643 0.6312 0.60303 0.0
C1600 C 0.25629 0.66224 0.62008 0.0
H1601 H 0.29404 0.5753 0.61478 0.0
H1602 H 0.29123 0.63261 0.56804 0.0
C1603 C 0.23729 0.65806 0.66611 0.0
C1604 C 0.37439 1.00086 0.48137 0.0
C1605 C 0.35638 0.02783 0.45091 0.0
H1606 H 0.41591 0.98134 0.51371 0.0
C1607 C 0.36861 0.05503 0.42663 0.0
H1608 H 0.36566 0.97948 0.50012 0.0
C1609 C 0.39702 0.05639 0.43533 0.0
C1610 C 0.41298 0.03067 0.46853 0.0
H1611 H 0.35497 0.07613 0.40303 0.0
H1612 H 0.40524 0.07822 0.41795 0.0
C1613 C 0.40257 1.0022 0.48975 0.0
C1614 C 0.84729 0.87874 0.07448 0.0
C1615 C 0.87409 0.8504 0.05537 0.0
H1616 H 0.83613 0.91987 0.10571 0.0
C1617 C 0.90842 0.85058 0.03664 0.0
H1618 H 0.82045 0.87974 0.08845 0.0
C1619 C 0.91737 0.87358 0.04671 0.0
C1620 C 0.89191 0.89655 0.07515 0.0
H1621 H 0.92942 0.82949 1.02066 0.0
H1622 H 0.94501 0.86925 0.03889 0.0
C1623 C 0.85625 0.90191 0.08425 0.0
C1624 C 0.64236 0.15014 0.47191 0.0
C1625 C 0.61543 0.17777 0.49239 0.0
H1626 H 0.65357 0.10863 0.44142 0.0
C1627 C 0.58192 0.17595 0.51383 0.0
H1628 H 0.66865 0.15037 0.45583 0.0
C1629 C 0.5734 0.15182 0.50563 0.0
C1630 C 0.59836 0.12967 0.4759 0.0
H1631 H 0.56095 0.19637 0.53104 0.0
H1632 H 0.54598 0.15479 0.5158 0.0
C1633 C 0.63379 0.12594 0.4639 0.0
C1634 C 0.86106 0.40866 0.21847 0.0
C1635 C 0.84581 0.42653 0.25438 0.0
H1636 H 0.90283 0.36538 0.18974 0.0
C1637 C 0.86273 0.4131 0.28938 0.0
H1638 H 0.84933 0.41837 0.19045 0.0
C1639 C 0.89307 0.38242 0.28932 0.0
C1640 C 0.90801 0.36394 0.25407 0.0
H1641 H 0.85203 0.42581 0.31776 0.0
H1642 H 0.90442 0.37288 0.31771 0.0
C1643 C 0.89184 0.37799 0.21815 0.0
C1644 C 0.07241 0.66188 0.50224 0.0
C1645 C 0.08318 0.63439 0.48077 0.0
H1646 H 0.08874 0.69593 0.51558 0.0
C1647 C 0.11885 0.61204 0.47178 0.0
H1648 H 0.04508 0.67917 0.5097 0.0
C1649 C 0.14403 0.62183 0.47456 0.0
C1650 C 0.13337 0.65355 0.48703 0.0
H1651 H 0.12779 0.59032 0.45578 0.0
H1652 H 0.1717 0.60753 0.4606 0.0
C1653 C 0.09752 0.67144 0.50557 0.0
C1654 C 0.62882 0.12038 0.82196 0.0
C1655 C 0.64368 0.10203 0.78664 0.0
H1656 H 0.58737 0.16388 0.85015 0.0
C1657 C 0.62638 0.11492 0.75205 0.0
H1658 H 0.64069 0.11099 0.84977 0.0
C1659 C 0.59597 0.14555 0.75201 0.0
C1660 C 0.58151 0.1645 0.78664 0.0
H1661 H 0.63678 0.10178 0.72414 0.0
H1662 H 0.5842 0.15471 0.72406 0.0
C1663 C 0.59812 0.15103 0.82205 0.0
C1664 C 0.78548 0.60267 0.156 0.0
C1665 C 0.75615 0.59239 0.17704 0.0
H1666 H 0.80621 0.64234 0.11341 0.0
C1667 C 0.72412 0.61698 0.16616 0.0
H1668 H 0.81119 0.58438 0.15996 0.0
C1669 C 0.72172 0.64988 0.13626 0.0
C1670 C 0.75096 0.66044 0.11665 0.0
H1671 H 0.701 0.61024 0.17947 0.0
H1672 H 0.69668 0.66721 0.12854 0.0
C1673 C 0.78275 0.63613 0.12799 0.0
C1674 C 0.87209 0.52848 0.51469 0.0
C1675 C 0.9029 0.5306 0.48187 0.0
H1676 H 0.81965 0.531 0.52846 0.0
C1677 C 0.90452 0.53502 0.4363 0.0
H1678 H 0.86997 0.5245 0.55011 0.0
C1679 C 0.87548 0.53864 0.42385 0.0
C1680 C 0.84424 0.53802 0.45673 0.0
H1681 H 0.92811 0.5358 0.41017 0.0
H1682 H 0.87704 0.54305 0.38852 0.0
C1683 C 0.84321 0.53216 0.50228 0.0
C1684 C 0.11357 0.48204 0.62315 0.0
C1685 C 0.14145 0.49033 0.59016 0.0
H1686 H 0.06387 0.47803 0.63724 0.0
C1687 C 0.13931 0.50263 0.54523 0.0
H1688 H 0.11475 0.47214 0.65795 0.0
C1689 C 0.11039 0.50581 0.53324 0.0
C1690 C 0.08277 0.49659 0.56585 0.0
H1691 H 0.16045 0.5093 0.51912 0.0
H1692 H 0.10998 0.51524 0.49817 0.0
C1693 C 0.08457 0.48507 0.61108 0.0
C1694 C 0.57791 0.80428 0.13258 0.0
C1695 C 0.57574 0.77879 0.17287 0.0
H1696 H 0.60918 0.82529 0.07102 0.0
C1697 C 0.60945 0.75394 0.17955 0.0
H1698 H 0.55366 0.82402 0.12464 0.0
C1699 C 0.64264 0.75462 0.14746 0.0
C1700 C 0.64424 0.78015 0.1066 0.0
H1701 H 0.6103 0.73309 0.20896 0.0
H1702 H 0.66705 0.73429 0.15412 0.0
C1703 C 0.61055 0.80503 0.1011 0.0
C1704 C 0.643 0.4947 0.04536 0.0
C1705 C 0.64297 0.48675 0.09084 0.0
H1706 H 0.61515 0.50466 0.99776 0.0
C1707 C 0.61252 0.48418 0.12411 0.0
H1708 H 0.666 0.49722 1.01898 0.0
C1709 C 0.58314 0.48822 0.11196 0.0
C1710 C 0.58365 0.49502 0.0663 0.0
H1711 H 0.61186 0.47796 0.15942 0.0
H1712 H 0.56023 0.48579 0.13837 0.0
C1713 C 0.6138 0.49883 0.03325 0.0
C1714 C 0.42139 0.3735 0.04018 0.0
C1715 C 0.39618 0.39872 0.06563 0.0
H1716 H 0.43196 0.32781 1.01872 0.0
C1717 C 0.36025 0.4059 0.07298 0.0
H1718 H 0.44925 0.36773 0.03368 0.0
C1719 C 0.35028 0.3825 0.0655 0.0
C1720 C 0.37636 0.35227 0.05002 0.0
H1721 H 0.34033 0.42563 0.09204 0.0
H1722 H 0.3229 0.38518 0.07867 0.0
C1723 C 0.41145 0.35035 0.03214 0.0
C1724 C 0.09807 0.15115 0.31794 0.0
C1725 C 0.08161 0.16503 0.28236 0.0
H1726 H 0.14056 0.11095 0.34558 0.0
C1727 C 0.09659 0.14659 0.24702 0.0
H1728 H 0.08696 0.16344 0.34661 0.0
C1729 C 0.1272 0.116 0.24679 0.0
C1730 C 0.14431 0.10286 0.28158 0.0
H1731 H 0.08498 0.15608 0.21886 0.0
H1732 H 0.13799 0.10308 0.21857 0.0
C1733 C 0.12901 0.12073 0.31742 0.0
C1734 C 0.21677 0.40093 0.94578 0.0
C1735 C 0.23571 0.36953 0.92953 0.0
H1736 H 0.1984 0.45691 0.93195 0.0
C1737 C 0.25177 0.3732 0.88246 0.0
H1738 H 0.20399 0.40006 0.98129 0.0
C1739 C 0.2499 0.40651 0.8537 0.0
C1740 C 0.23026 0.438 0.87013 0.0
H1741 H 0.26695 0.3501 0.86794 0.0
H1742 H 0.26442 0.40742 0.8187 0.0
C1743 C 0.2136 0.43404 0.91693 0.0
C1744 C 0.34446 0.27539 0.89286 0.0
C1745 C 0.3416 0.25332 0.93654 0.0
H1746 H 0.37828 0.2928 0.82943 0.0
C1747 C 0.37471 0.22974 0.94527 0.0
H1748 H 0.32059 0.29529 0.88414 0.0
C1749 C 0.40793 0.22875 0.91418 0.0
C1750 C 0.41122 0.25136 0.8714 0.0
H1751 H 0.37508 0.21297 0.97822 0.0
H1752 H 0.43164 0.21076 0.92493 0.0
C1753 C 0.37822 0.27423 0.86109 0.0
C1754 C 0.37703 0.52376 1.01119 0.0
C1755 C 0.40495 0.53225 0.97823 0.0
H1756 H 0.32677 0.5207 0.02586 0.0
C1757 C 0.40372 0.54244 0.93285 0.0
H1758 H 0.37715 0.51508 0.04638 0.0
C1759 C 0.37462 0.54542 0.92108 0.0
C1760 C 0.34625 0.53827 0.9545 0.0
H1761 H 0.42487 0.54864 0.90645 0.0
H1762 H 0.37368 0.55452 0.88617 0.0
C1763 C 0.34815 0.52673 0.99947 0.0
C1764 C 0.64451 0.64923 0.96377 0.0
C1765 C 0.6171 0.66771 0.99637 0.0
H1766 H 0.65889 0.61746 0.91709 0.0
C1767 C 0.58684 0.65915 1.01626 0.0
H1768 H 0.66855 0.65431 0.94772 0.0
C1769 C 0.58113 0.63831 0.99757 0.0
C1770 C 0.60596 0.62544 0.95948 0.0
H1771 H 0.56594 0.67141 0.04306 0.0
H1772 H 0.55564 0.63603 1.00926 0.0
C1773 C 0.63906 0.62792 0.94589 0.0
C1774 C 0.89321 0.88249 0.79364 0.0
C1775 C 0.90792 0.86445 0.7579 0.0
H1776 H 0.85195 0.92542 0.82327 0.0
C1777 C 0.89099 0.87859 0.72276 0.0
H1778 H 0.90516 0.8729 0.82149 0.0
C1779 C 0.85972 0.90875 0.72432 0.0
C1780 C 0.84472 0.92614 0.76065 0.0
H1781 H 0.90181 0.86652 0.69389 0.0
H1782 H 0.84764 0.91868 0.69663 0.0
C1783 C 0.86243 0.91285 0.79479 0.0
C1784 C 0.47101 0.159 0.5418 0.0
C1785 C 0.47205 0.15153 0.58695 0.0
H1786 H 0.47005 0.14213 0.48805 0.0
C1787 C 0.47689 0.11711 0.61117 0.0
H1788 H 0.46798 0.18486 0.52151 0.0
C1789 C 0.47907 0.09168 0.59102 0.0
C1790 C 0.47512 0.10038 0.54684 0.0
H1791 H 0.47781 0.11014 0.64595 0.0
H1792 H 0.4834 0.06544 0.61022 0.0
C1793 C 0.47194 0.13431 0.52251 0.0
C1794 C 0.50886 0.41229 0.93232 0.0
C1795 C 0.51719 0.37727 0.95565 0.0
H1796 H 0.49924 0.46497 0.93337 0.0
C1797 C 0.52123 0.36985 0.99939 0.0
H1798 H 0.5053 0.41936 0.89877 0.0
C1799 C 0.52011 0.39517 1.01766 0.0
C1800 C 0.51351 0.42976 0.99401 0.0
H1801 H 0.52651 0.34366 1.01941 0.0
H1802 H 0.52447 0.38733 0.0509 0.0
C1803 C 0.50636 0.43833 0.95171 0.0
C1804 C 0.51153 0.91263 0.4317 0.0
C1805 C 0.51827 0.87798 0.45596 0.0
H1806 H 0.50337 0.96504 0.4317 0.0
C1807 C 0.52119 0.87086 0.50019 0.0
H1808 H 0.50906 0.91937 0.39764 0.0
C1809 C 0.5203 0.89617 0.5183 0.0
C1810 C 0.5151 0.93042 0.49385 0.0
H1811 H 0.52558 0.84487 0.52062 0.0
H1812 H 0.5237 0.88863 0.55201 0.0
C1813 C 0.5093 0.93866 0.4508 0.0
C1814 C 0.47549 0.6321 0.0242 0.0
C1815 C 0.47691 0.59888 0.05 0.0
H1816 H 0.47331 0.68244 1.02096 0.0
C1817 C 0.48009 0.59114 0.09438 0.0
H1818 H 0.4745 0.63914 0.98943 0.0
C1819 C 0.47815 0.61706 0.11348 0.0
C1820 C 0.47466 0.65093 0.08787 0.0
H1821 H 0.48344 0.56536 0.11459 0.0
H1822 H 0.4781 0.61097 0.14853 0.0
C1823 C 0.47504 0.65716 0.04238 0.0
loop_
_geom_bond_atom_site_label_1
_geom_bond_atom_site_label_2
_geom_bond_distance
_geom_bond_site_symmetry_2
_ccdc_geom_bond_type
Eu0 N31 2.657 1_565 S
Eu0 N38 2.609 . S
Eu0 O44 2.558 . S
Eu0 O45 2.612 1_654 S
Eu0 O47 2.339 1_564 S
Eu0 O48 2.563 1_654 S
Eu0 O49 2.419 . S
Eu0 O51 2.380 1_565 S
Eu0 O52 2.432 1_655 S
Eu0 C64 2.848 . S
C1 C4 1.429 1_545 S
C1 C5 1.411 . S
C1 N8 1.377 . S
C2 C4 1.420 . S
C2 C6 1.423 . S
C2 C14 1.392 . S
C3 C5 1.420 1_565 S
C3 C6 1.351 . S
C3 H26 0.931 . S
C4 C1 1.429 1_565 S
C4 C2 1.420 . S
C4 N12 1.362 . S
C5 C1 1.411 . S
C5 C3 1.420 1_545 S
C5 C10 1.395 . S
C6 C2 1.423 . S
C6 C3 1.351 . S
C6 H18 0.930 . S
C7 C9 1.400 . S
C7 C10 1.386 . S
C7 H19 0.930 1_455 S
N8 C1 1.377 . S
N8 C9 1.321 . S
N8 Eu11 2.609 . S
C9 C7 1.400 . S
C9 N8 1.321 . S
C9 H16 0.930 1_455 S
C10 C5 1.395 . S
C10 C7 1.386 . S
C10 H29 0.930 . S
Eu11 N8 2.609 . S
Eu11 N12 2.657 1_545 S
Eu11 O45 2.380 1_545 S
Eu11 O46 2.432 1_455 S
Eu11 O50 2.558 . S
Eu11 O51 2.612 1_456 S
Eu11 O53 2.339 1_546 S
Eu11 O54 2.563 1_456 S
Eu11 O55 2.419 . S
Eu11 C75 2.848 . S
N12 C4 1.362 . S
N12 Eu11 2.657 1_565 S
N12 C13 1.334 . S
C13 N12 1.334 . S
C13 C15 1.413 . S
C13 H20 0.929 . S
C14 C2 1.392 . S
C14 C15 1.367 . S
C14 H22 0.930 . S
C15 C13 1.413 . S
C15 C14 1.367 . S
C15 H17 0.930 . S
H16 C9 0.930 1_655 S
H17 C15 0.930 . S
H18 C6 0.930 . S
H19 C7 0.930 1_655 S
H20 C13 0.929 . S
H21 C35 0.930 . S
H22 C14 0.930 . S
H23 C41 0.930 1_455 S
H24 C32 0.929 . S
H25 C39 0.930 1_455 S
H26 C3 0.931 . S
H27 C33 0.930 . S
H28 C66 0.930 . S
H29 C10 0.930 . S
H30 C65 0.931 . S
N31 Eu0 2.657 1_545 S
N31 C32 1.334 . S
N31 C36 1.362 . S
C32 H24 0.929 . S
C32 N31 1.334 . S
C32 C35 1.413 . S
C33 H27 0.930 . S
C33 C34 1.392 . S
C33 C35 1.367 . S
C34 C33 1.392 . S
C34 C36 1.420 . S
C34 C66 1.423 . S
C35 H21 0.930 . S
C35 C32 1.413 . S
C35 C33 1.367 . S
C36 N31 1.362 . S
C36 C34 1.420 . S
C36 C40 1.429 1_545 S
H37 C42 0.930 . S
N38 Eu0 2.609 . S
N38 C40 1.377 . S
N38 C41 1.321 . S
C39 H25 0.930 1_655 S
C39 C41 1.400 . S
C39 C42 1.386 . S
C40 C36 1.429 1_565 S
C40 N38 1.377 . S
C40 C43 1.411 . S
C41 H23 0.930 1_655 S
C41 N38 1.321 . S
C41 C39 1.400 . S
C42 H37 0.930 . S
C42 C39 1.386 . S
C42 C43 1.395 . S
C43 C40 1.411 . S
C43 C42 1.395 . S
C43 C65 1.420 1_565 S
O44 Eu0 2.558 . S
O44 C64 1.257 . S
O45 Eu0 2.612 1_456 S
O45 Eu11 2.380 1_565 S
O45 C56 1.276 . S
O46 Eu11 2.432 1_655 S
O46 C63 1.264 . S
O47 Eu0 2.339 1_546 S
O47 C63 1.254 . S
O48 Eu0 2.563 1_456 S
O48 C56 1.235 . S
O49 Eu0 2.419 . S
O49 C64 1.249 . S
O50 Eu11 2.558 . S
O50 C75 1.257 . S
O51 Eu0 2.380 1_545 S
O51 Eu11 2.612 1_654 S
O51 C67 1.276 . S
O52 Eu0 2.432 1_455 S
O52 C74 1.264 . S
O53 Eu11 2.339 1_564 S
O53 C74 1.254 . S
O54 Eu11 2.563 1_654 S
O54 C67 1.235 . S
O55 Eu11 2.419 . S
O55 C75 1.249 . S
C56 O45 1.276 . S
C56 O48 1.235 . S
C57 C59 1.393 . S
C57 C61 1.395 . S
C57 C64 1.492 . S
C58 C59 1.392 . S
C58 C60 1.386 . S
C59 C57 1.393 . S
C59 C58 1.392 . S
C59 H76 0.930 . S
C60 C58 1.386 . S
C60 C62 1.395 . S
C60 H77 0.930 . S
C61 C57 1.395 . S
C61 C62 1.379 . S
C61 H78 0.930 . S
C62 C60 1.395 . S
C62 C61 1.379 . S
C62 H79 0.930 . S
C63 O46 1.264 . S
C63 O47 1.254 . S
C64 Eu0 2.848 . S
C64 O44 1.257 . S
C64 O49 1.249 . S
C64 C57 1.492 . S
C65 H30 0.931 . S
C65 C43 1.420 1_545 S
C65 C66 1.351 . S
C66 H28 0.930 . S
C66 C34 1.423 . S
C66 C65 1.351 . S
C67 O51 1.276 . S
C67 O54 1.235 . S
C68 C69 1.393 . S
C68 C72 1.395 . S
C68 C75 1.492 . S
C69 C68 1.393 . S
C69 C70 1.392 . S
C69 H80 0.930 . S
C70 C69 1.392 . S
C70 C71 1.386 . S
C71 C70 1.386 . S
C71 C73 1.395 . S
C71 H81 0.930 . S
C72 C68 1.395 . S
C72 C73 1.379 . S
C72 H82 0.930 . S
C73 C71 1.395 . S
C73 C72 1.379 . S
C73 H83 0.930 . S
C74 O52 1.264 . S
C74 O53 1.254 . S
C75 Eu11 2.848 . S
C75 O50 1.257 . S
C75 O55 1.249 . S
C75 C68 1.492 . S
H76 C59 0.930 . S
H77 C60 0.930 . S
H78 C61 0.930 . S
H79 C62 0.930 . S
H80 C69 0.930 . S
H81 C71 0.930 . S
H82 C72 0.930 . S
H83 C73 0.930 . S
Eu84 N115 2.657 . S
Eu84 N122 2.609 . S
Eu84 O128 2.558 . S
Eu84 O129 2.612 1_455 S
Eu84 O131 2.339 1_455 S
Eu84 O132 2.563 1_455 S
Eu84 O133 2.419 . S
Eu84 O135 2.380 . S
Eu84 O136 2.432 . S
Eu84 C148 2.848 . S
C85 C88 1.429 . S
C85 C89 1.411 . S
C85 N92 1.377 . S
C86 C88 1.420 . S
C86 C90 1.423 . S
C86 C98 1.392 . S
C87 C89 1.420 . S
C87 C90 1.351 . S
C87 H110 0.931 . S
C88 C85 1.429 . S
C88 C86 1.420 . S
C88 N96 1.362 . S
C89 C85 1.411 . S
C89 C87 1.420 . S
C89 C94 1.395 . S
C90 C86 1.423 . S
C90 C87 1.351 . S
C90 H102 0.930 . S
C91 C93 1.400 . S
C91 C94 1.386 . S
C91 H103 0.930 . S
N92 C85 1.377 . S
N92 C93 1.321 . S
N92 Eu95 2.609 . S
C93 C91 1.400 . S
C93 N92 1.321 . S
C93 H100 0.930 . S
C94 C89 1.395 . S
C94 C91 1.386 . S
C94 H113 0.930 . S
Eu95 N92 2.609 . S
Eu95 N96 2.657 . S
Eu95 O129 2.380 . S
Eu95 O130 2.432 . S
Eu95 O134 2.558 . S
Eu95 O135 2.612 1_655 S
Eu95 O137 2.339 1_655 S
Eu95 O138 2.563 1_655 S
Eu95 O139 2.419 . S
Eu95 C159 2.848 . S
N96 C88 1.362 . S
N96 Eu95 2.657 . S
N96 C97 1.334 . S
C97 N96 1.334 . S
C97 C99 1.413 . S
C97 H104 0.929 . S
C98 C86 1.392 . S
C98 C99 1.367 . S
C98 H106 0.930 . S
C99 C97 1.413 . S
C99 C98 1.367 . S
C99 H101 0.930 . S
H100 C93 0.930 . S
H101 C99 0.930 . S
H102 C90 0.930 . S
H103 C91 0.930 . S
H104 C97 0.929 . S
H105 C119 0.930 . S
H106 C98 0.930 . S
H107 C125 0.930 . S
H108 C116 0.929 . S
H109 C123 0.930 . S
H110 C87 0.931 . S
H111 C117 0.930 . S
H112 C150 0.930 . S
H113 C94 0.930 . S
H114 C149 0.931 . S
N115 Eu84 2.657 . S
N115 C116 1.334 . S
N115 C120 1.362 . S
C116 H108 0.929 . S
C116 N115 1.334 . S
C116 C119 1.413 . S
C117 H111 0.930 . S
C117 C118 1.392 . S
C117 C119 1.367 . S
C118 C117 1.392 . S
C118 C120 1.420 . S
C118 C150 1.423 . S
C119 H105 0.930 . S
C119 C116 1.413 . S
C119 C117 1.367 . S
C120 N115 1.362 . S
C120 C118 1.420 . S
C120 C124 1.429 . S
H121 C126 0.930 . S
N122 Eu84 2.609 . S
N122 C124 1.377 . S
N122 C125 1.321 . S
C123 H109 0.930 . S
C123 C125 1.400 . S
C123 C126 1.386 . S
C124 C120 1.429 . S
C124 N122 1.377 . S
C124 C127 1.411 . S
C125 H107 0.930 . S
C125 N122 1.321 . S
C125 C123 1.400 . S
C126 H121 0.930 . S
C126 C123 1.386 . S
C126 C127 1.395 . S
C127 C124 1.411 . S
C127 C126 1.395 . S
C127 C149 1.420 . S
O128 Eu84 2.558 . S
O128 C148 1.257 . S
O129 Eu84 2.612 1_655 S
O129 Eu95 2.380 . S
O129 C140 1.276 . S
O130 Eu95 2.432 . S
O130 C147 1.264 . S
O131 Eu84 2.339 1_655 S
O131 C147 1.254 . S
O132 Eu84 2.563 1_655 S
O132 C140 1.235 . S
O133 Eu84 2.419 . S
O133 C148 1.249 . S
O134 Eu95 2.558 . S
O134 C159 1.257 . S
O135 Eu84 2.380 . S
O135 Eu95 2.612 1_455 S
O135 C151 1.276 . S
O136 Eu84 2.432 . S
O136 C158 1.264 . S
O137 Eu95 2.339 1_455 S
O137 C158 1.254 . S
O138 Eu95 2.563 1_455 S
O138 C151 1.235 . S
O139 Eu95 2.419 . S
O139 C159 1.249 . S
C140 O129 1.276 . S
C140 O132 1.235 . S
C141 C143 1.393 1_455 S
C141 C145 1.395 . S
C141 C148 1.492 . S
C142 C143 1.392 . S
C142 C144 1.386 . S
C143 C141 1.393 1_655 S
C143 C142 1.392 . S
C143 H160 0.930 . S
C144 C142 1.386 . S
C144 C146 1.395 1_655 S
C144 H161 0.930 . S
C145 C141 1.395 . S
C145 C146 1.379 . S
C145 H162 0.930 . S
C146 C144 1.395 1_455 S
C146 C145 1.379 . S
C146 H163 0.930 . S
C147 O130 1.264 . S
C147 O131 1.254 . S
C148 Eu84 2.848 . S
C148 O128 1.257 . S
C148 O133 1.249 . S
C148 C141 1.492 . S
C149 H114 0.931 . S
C149 C127 1.420 . S
C149 C150 1.351 . S
C150 H112 0.930 . S
C150 C118 1.423 . S
C150 C149 1.351 . S
C151 O135 1.276 . S
C151 O138 1.235 . S
C152 C153 1.393 1_655 S
C152 C156 1.395 . S
C152 C159 1.492 . S
C153 C152 1.393 1_455 S
C153 C154 1.392 . S
C153 H164 0.930 . S
C154 C153 1.392 . S
C154 C155 1.386 . S
C155 C154 1.386 . S
C155 C157 1.395 1_455 S
C155 H165 0.930 . S
C156 C152 1.395 . S
C156 C157 1.379 . S
C156 H166 0.930 . S
C157 C155 1.395 1_655 S
C157 C156 1.379 . S
C157 H167 0.930 . S
C158 O136 1.264 . S
C158 O137 1.254 . S
C159 Eu95 2.848 . S
C159 O134 1.257 . S
C159 O139 1.249 . S
C159 C152 1.492 . S
H160 C143 0.930 . S
H161 C144 0.930 . S
H162 C145 0.930 . S
H163 C146 0.930 . S
H164 C153 0.930 . S
H165 C155 0.930 . S
H166 C156 0.930 . S
H167 C157 0.930 . S
Eu168 N199 2.657 . S
Eu168 N206 2.609 . S
Eu168 O212 2.558 . S
Eu168 O213 2.612 . S
Eu168 O215 2.339 . S
Eu168 O216 2.563 . S
Eu168 O217 2.419 . S
Eu168 O219 2.380 . S
Eu168 O220 2.432 . S
Eu168 C232 2.848 . S
C169 C172 1.429 . S
C169 C173 1.411 . S
C169 N176 1.377 . S
C170 C172 1.420 . S
C170 C174 1.423 . S
C170 C182 1.392 . S
C171 C173 1.420 . S
C171 C174 1.351 . S
C171 H194 0.931 . S
C172 C169 1.429 . S
C172 C170 1.420 . S
C172 N180 1.362 . S
C173 C169 1.411 . S
C173 C171 1.420 . S
C173 C178 1.395 . S
C174 C170 1.423 . S
C174 C171 1.351 . S
C174 H186 0.930 . S
C175 C177 1.400 . S
C175 C178 1.386 . S
C175 H187 0.930 . S
N176 C169 1.377 . S
N176 C177 1.321 . S
N176 Eu179 2.609 . S
C177 C175 1.400 . S
C177 N176 1.321 . S
C177 H184 0.930 . S
C178 C173 1.395 . S
C178 C175 1.386 . S
C178 H197 0.930 . S
Eu179 N176 2.609 . S
Eu179 N180 2.657 . S
Eu179 O213 2.380 . S
Eu179 O214 2.432 . S
Eu179 O218 2.558 . S
Eu179 O219 2.612 . S
Eu179 O221 2.339 . S
Eu179 O222 2.563 . S
Eu179 O223 2.419 . S
Eu179 C243 2.848 . S
N180 C172 1.362 . S
N180 Eu179 2.657 . S
N180 C181 1.334 . S
C181 N180 1.334 . S
C181 C183 1.413 . S
C181 H188 0.929 . S
C182 C170 1.392 . S
C182 C183 1.367 . S
C182 H190 0.930 . S
C183 C181 1.413 . S
C183 C182 1.367 . S
C183 H185 0.930 . S
H184 C177 0.930 . S
H185 C183 0.930 . S
H186 C174 0.930 . S
H187 C175 0.930 . S
H188 C181 0.929 . S
H189 C203 0.930 . S
H190 C182 0.930 . S
H191 C209 0.930 . S
H192 C200 0.929 . S
H193 C207 0.930 . S
H194 C171 0.931 . S
H195 C201 0.930 . S
H196 C234 0.930 . S
H197 C178 0.930 . S
H198 C233 0.931 . S
N199 Eu168 2.657 . S
N199 C200 1.334 . S
N199 C204 1.362 . S
C200 H192 0.929 . S
C200 N199 1.334 . S
C200 C203 1.413 . S
C201 H195 0.930 . S
C201 C202 1.392 . S
C201 C203 1.367 . S
C202 C201 1.392 . S
C202 C204 1.420 . S
C202 C234 1.423 . S
C203 H189 0.930 . S
C203 C200 1.413 . S
C203 C201 1.367 . S
C204 N199 1.362 . S
C204 C202 1.420 . S
C204 C208 1.429 . S
H205 C210 0.930 . S
N206 Eu168 2.609 . S
N206 C208 1.377 . S
N206 C209 1.321 . S
C207 H193 0.930 . S
C207 C209 1.400 . S
C207 C210 1.386 . S
C208 C204 1.429 . S
C208 N206 1.377 . S
C208 C211 1.411 . S
C209 H191 0.930 . S
C209 N206 1.321 . S
C209 C207 1.400 . S
C210 H205 0.930 . S
C210 C207 1.386 . S
C210 C211 1.395 . S
C211 C208 1.411 . S
C211 C210 1.395 . S
C211 C233 1.420 . S
O212 Eu168 2.558 . S
O212 C232 1.257 . S
O213 Eu168 2.612 . S
O213 Eu179 2.380 . S
O213 C224 1.276 . S
O214 Eu179 2.432 . S
O214 C231 1.264 . S
O215 Eu168 2.339 . S
O215 C231 1.254 . S
O216 Eu168 2.563 . S
O216 C224 1.235 . S
O217 Eu168 2.419 . S
O217 C232 1.249 . S
O218 Eu179 2.558 . S
O218 C243 1.257 . S
O219 Eu168 2.380 . S
O219 Eu179 2.612 . S
O219 C235 1.276 . S
O220 Eu168 2.432 . S
O220 C242 1.264 . S
O221 Eu179 2.339 . S
O221 C242 1.254 . S
O222 Eu179 2.563 . S
O222 C235 1.235 . S
O223 Eu179 2.419 . S
O223 C243 1.249 . S
C224 O213 1.276 . S
C224 O216 1.235 . S
C225 C227 1.393 . S
C225 C229 1.395 . S
C225 C232 1.492 . S
C226 C227 1.392 . S
C226 C228 1.386 . S
C227 C225 1.393 . S
C227 C226 1.392 . S
C227 H244 0.930 . S
C228 C226 1.386 . S
C228 C230 1.395 . S
C228 H245 0.930 . S
C229 C225 1.395 . S
C229 C230 1.379 . S
C229 H246 0.930 . S
C230 C228 1.395 . S
C230 C229 1.379 . S
C230 H247 0.930 . S
C231 O214 1.264 . S
C231 O215 1.254 . S
C232 Eu168 2.848 . S
C232 O212 1.257 . S
C232 O217 1.249 . S
C232 C225 1.492 . S
C233 H198 0.931 . S
C233 C211 1.420 . S
C233 C234 1.351 . S
C234 H196 0.930 . S
C234 C202 1.423 . S
C234 C233 1.351 . S
C235 O219 1.276 . S
C235 O222 1.235 . S
C236 C237 1.393 . S
C236 C240 1.395 . S
C236 C243 1.492 . S
C237 C236 1.393 . S
C237 C238 1.392 . S
C237 H248 0.930 . S
C238 C237 1.392 . S
C238 C239 1.386 . S
C239 C238 1.386 . S
C239 C241 1.395 . S
C239 H249 0.930 . S
C240 C236 1.395 . S
C240 C241 1.379 . S
C240 H250 0.930 . S
C241 C239 1.395 . S
C241 C240 1.379 . S
C241 H251 0.930 . S
C242 O220 1.264 . S
C242 O221 1.254 . S
C243 Eu179 2.848 . S
C243 O218 1.257 . S
C243 O223 1.249 . S
C243 C236 1.492 . S
H244 C227 0.930 . S
H245 C228 0.930 . S
H246 C229 0.930 . S
H247 C230 0.930 . S
H248 C237 0.930 . S
H249 C239 0.930 . S
H250 C240 0.930 . S
H251 C241 0.930 . S
Eu252 N283 2.657 . S
Eu252 N290 2.609 . S
Eu252 O296 2.558 . S
Eu252 O297 2.612 1_565 S
Eu252 O299 2.339 1_565 S
Eu252 O300 2.563 1_565 S
Eu252 O301 2.419 . S
Eu252 O303 2.380 . S
Eu252 O304 2.432 . S
Eu252 C316 2.848 . S
C253 C256 1.429 . S
C253 C257 1.411 . S
C253 N260 1.377 . S
C254 C256 1.420 . S
C254 C258 1.423 . S
C254 C266 1.392 . S
C255 C257 1.420 . S
C255 C258 1.351 . S
C255 H278 0.931 . S
C256 C253 1.429 . S
C256 C254 1.420 . S
C256 N264 1.362 . S
C257 C253 1.411 . S
C257 C255 1.420 . S
C257 C262 1.395 . S
C258 C254 1.423 . S
C258 C255 1.351 . S
C258 H270 0.930 . S
C259 C261 1.400 . S
C259 C262 1.386 . S
C259 H271 0.930 . S
N260 C253 1.377 . S
N260 C261 1.321 . S
N260 Eu263 2.609 . S
C261 C259 1.400 . S
C261 N260 1.321 . S
C261 H268 0.930 . S
C262 C257 1.395 . S
C262 C259 1.386 . S
C262 H281 0.930 . S
Eu263 N260 2.609 . S
Eu263 N264 2.657 . S
Eu263 O297 2.380 . S
Eu263 O298 2.432 . S
Eu263 O302 2.558 . S
Eu263 O303 2.612 1_545 S
Eu263 O305 2.339 1_545 S
Eu263 O306 2.563 1_545 S
Eu263 O307 2.419 . S
Eu263 C327 2.848 . S
N264 C256 1.362 . S
N264 Eu263 2.657 . S
N264 C265 1.334 . S
C265 N264 1.334 . S
C265 C267 1.413 . S
C265 H272 0.929 . S
C266 C254 1.392 . S
C266 C267 1.367 . S
C266 H274 0.930 . S
C267 C265 1.413 . S
C267 C266 1.367 . S
C267 H269 0.930 . S
H268 C261 0.930 . S
H269 C267 0.930 . S
H270 C258 0.930 . S
H271 C259 0.930 . S
H272 C265 0.929 . S
H273 C287 0.930 . S
H274 C266 0.930 . S
H275 C293 0.930 . S
H276 C284 0.929 . S
H277 C291 0.930 . S
H278 C255 0.931 . S
H279 C285 0.930 . S
H280 C318 0.930 . S
H281 C262 0.930 . S
H282 C317 0.931 . S
N283 Eu252 2.657 . S
N283 C284 1.334 . S
N283 C288 1.362 . S
C284 H276 0.929 . S
C284 N283 1.334 . S
C284 C287 1.413 . S
C285 H279 0.930 . S
C285 C286 1.392 . S
C285 C287 1.367 . S
C286 C285 1.392 . S
C286 C288 1.420 . S
C286 C318 1.423 . S
C287 H273 0.930 . S
C287 C284 1.413 . S
C287 C285 1.367 . S
C288 N283 1.362 . S
C288 C286 1.420 . S
C288 C292 1.429 . S
H289 C294 0.930 . S
N290 Eu252 2.609 . S
N290 C292 1.377 . S
N290 C293 1.321 . S
C291 H277 0.930 . S
C291 C293 1.400 . S
C291 C294 1.386 . S
C292 C288 1.429 . S
C292 N290 1.377 . S
C292 C295 1.411 . S
C293 H275 0.930 . S
C293 N290 1.321 . S
C293 C291 1.400 . S
C294 H289 0.930 . S
C294 C291 1.386 . S
C294 C295 1.395 . S
C295 C292 1.411 . S
C295 C294 1.395 . S
C295 C317 1.420 . S
O296 Eu252 2.558 . S
O296 C316 1.257 . S
O297 Eu252 2.612 1_545 S
O297 Eu263 2.380 . S
O297 C308 1.276 . S
O298 Eu263 2.432 . S
O298 C315 1.264 . S
O299 Eu252 2.339 1_545 S
O299 C315 1.254 . S
O300 Eu252 2.563 1_545 S
O300 C308 1.235 . S
O301 Eu252 2.419 . S
O301 C316 1.249 . S
O302 Eu263 2.558 . S
O302 C327 1.257 . S
O303 Eu252 2.380 . S
O303 Eu263 2.612 1_565 S
O303 C319 1.276 . S
O304 Eu252 2.432 . S
O304 C326 1.264 . S
O305 Eu263 2.339 1_565 S
O305 C326 1.254 . S
O306 Eu263 2.563 1_565 S
O306 C319 1.235 . S
O307 Eu263 2.419 . S
O307 C327 1.249 . S
C308 O297 1.276 . S
C308 O300 1.235 . S
C309 C311 1.393 1_565 S
C309 C313 1.395 . S
C309 C316 1.492 . S
C310 C311 1.392 . S
C310 C312 1.357 1_545 S
C311 C309 1.393 1_545 S
C311 C310 1.392 . S
C311 H328 0.930 . S
C312 C310 1.357 1_565 S
C312 C314 1.415 . S
C312 H329 0.940 1_565 S
C313 C309 1.395 . S
C313 C314 1.379 . S
C313 H330 0.930 . S
C314 C312 1.415 . S
C314 C313 1.379 . S
C314 H331 0.930 . S
C315 O298 1.264 . S
C315 O299 1.254 . S
C316 Eu252 2.848 . S
C316 O296 1.257 . S
C316 O301 1.249 . S
C316 C309 1.492 . S
C317 H282 0.931 . S
C317 C295 1.420 . S
C317 C318 1.351 . S
C318 H280 0.930 . S
C318 C286 1.423 . S
C318 C317 1.351 . S
C319 O303 1.276 . S
C319 O306 1.235 . S
C320 C321 1.393 1_545 S
C320 C324 1.395 . S
C320 C327 1.492 . S
C321 C320 1.393 1_565 S
C321 C322 1.392 . S
C321 H332 0.930 . S
C322 C321 1.392 . S
C322 C323 1.386 1_565 S
C323 C322 1.386 1_545 S
C323 C325 1.395 . S
C323 H333 0.930 1_545 S
C324 C320 1.395 . S
C324 C325 1.379 . S
C324 H334 0.930 . S
C325 C323 1.395 . S
C325 C324 1.379 . S
C325 H335 0.930 . S
C326 O304 1.264 . S
C326 O305 1.254 . S
C327 Eu263 2.848 . S
C327 O302 1.257 . S
C327 O307 1.249 . S
C327 C320 1.492 . S
H328 C311 0.930 . S
H329 C312 0.940 1_545 S
H330 C313 0.930 . S
H331 C314 0.930 . S
H332 C321 0.930 . S
H333 C323 0.930 1_565 S
H334 C324 0.930 . S
H335 C325 0.930 . S
Eu336 N367 2.657 . S
Eu336 N374 2.609 . S
Eu336 O380 2.558 . S
Eu336 O381 2.612 . S
Eu336 O383 2.339 . S
Eu336 O384 2.563 . S
Eu336 O385 2.419 . S
Eu336 O387 2.380 . S
Eu336 O388 2.432 . S
Eu336 C400 2.848 . S
C337 C340 1.429 . S
C337 C341 1.411 . S
C337 N344 1.377 . S
C338 C340 1.420 . S
C338 C342 1.423 . S
C338 C350 1.392 . S
C339 C341 1.420 . S
C339 C342 1.351 . S
C339 H362 0.931 . S
C340 C337 1.429 . S
C340 C338 1.420 . S
C340 N348 1.362 . S
C341 C337 1.411 . S
C341 C339 1.420 . S
C341 C346 1.395 . S
C342 C338 1.423 . S
C342 C339 1.351 . S
C342 H354 0.930 . S
C343 C345 1.400 . S
C343 C346 1.386 . S
C343 H355 0.930 . S
N344 C337 1.377 . S
N344 C345 1.321 . S
N344 Eu347 2.609 . S
C345 C343 1.400 . S
C345 N344 1.321 . S
C345 H352 0.930 . S
C346 C341 1.395 . S
C346 C343 1.386 . S
C346 H365 0.930 . S
Eu347 N344 2.609 . S
Eu347 N348 2.657 . S
Eu347 O381 2.380 . S
Eu347 O382 2.432 . S
Eu347 O386 2.558 . S
Eu347 O387 2.612 . S
Eu347 O389 2.339 . S
Eu347 O390 2.563 . S
Eu347 O391 2.419 . S
Eu347 C411 2.848 . S
N348 C340 1.362 . S
N348 Eu347 2.657 . S
N348 C349 1.334 . S
C349 N348 1.334 . S
C349 C351 1.413 . S
C349 H356 0.929 . S
C350 C338 1.392 . S
C350 C351 1.367 . S
C350 H358 0.930 . S
C351 C349 1.413 . S
C351 C350 1.367 . S
C351 H353 0.930 . S
H352 C345 0.930 . S
H353 C351 0.930 . S
H354 C342 0.930 . S
H355 C343 0.930 . S
H356 C349 0.929 . S
H357 C371 0.930 . S
H358 C350 0.930 . S
H359 C377 0.930 . S
H360 C368 0.929 . S
H361 C375 0.930 . S
H362 C339 0.931 . S
H363 C369 0.930 . S
H364 C402 0.930 . S
H365 C346 0.930 . S
H366 C401 0.931 . S
N367 Eu336 2.657 . S
N367 C368 1.334 . S
N367 C372 1.362 . S
C368 H360 0.929 . S
C368 N367 1.334 . S
C368 C371 1.413 . S
C369 H363 0.930 . S
C369 C370 1.392 . S
C369 C371 1.367 . S
C370 C369 1.392 . S
C370 C372 1.420 . S
C370 C402 1.423 . S
C371 H357 0.930 . S
C371 C368 1.413 . S
C371 C369 1.367 . S
C372 N367 1.362 . S
C372 C370 1.420 . S
C372 C376 1.429 . S
H373 C378 0.930 . S
N374 Eu336 2.609 . S
N374 C376 1.377 . S
N374 C377 1.321 . S
C375 H361 0.930 . S
C375 C377 1.400 . S
C375 C378 1.386 . S
C376 C372 1.429 . S
C376 N374 1.377 . S
C376 C379 1.411 . S
C377 H359 0.930 . S
C377 N374 1.321 . S
C377 C375 1.400 . S
C378 H373 0.930 . S
C378 C375 1.386 . S
C378 C379 1.395 . S
C379 C376 1.411 . S
C379 C378 1.395 . S
C379 C401 1.420 . S
O380 Eu336 2.558 . S
O380 C400 1.257 . S
O381 Eu336 2.612 . S
O381 Eu347 2.380 . S
O381 C392 1.276 . S
O382 Eu347 2.432 . S
O382 C399 1.264 . S
O383 Eu336 2.339 . S
O383 C399 1.254 . S
O384 Eu336 2.563 . S
O384 C392 1.235 . S
O385 Eu336 2.419 . S
O385 C400 1.249 . S
O386 Eu347 2.558 . S
O386 C411 1.257 . S
O387 Eu336 2.380 . S
O387 Eu347 2.612 . S
O387 C403 1.276 . S
O388 Eu336 2.432 . S
O388 C410 1.264 . S
O389 Eu347 2.339 . S
O389 C410 1.254 . S
O390 Eu347 2.563 . S
O390 C403 1.235 . S
O391 Eu347 2.419 . S
O391 C411 1.249 . S
C392 O381 1.276 . S
C392 O384 1.235 . S
C393 C395 1.393 . S
C393 C397 1.395 . S
C393 C400 1.492 . S
C394 C395 1.392 . S
C394 C396 1.386 . S
C395 C393 1.393 . S
C395 C394 1.392 . S
C395 H412 0.930 . S
C396 C394 1.386 . S
C396 C398 1.395 . S
C396 H413 0.930 . S
C397 C393 1.395 . S
C397 C398 1.379 . S
C397 H414 0.930 . S
C398 C396 1.395 . S
C398 C397 1.379 . S
C398 H415 0.930 . S
C399 O382 1.264 . S
C399 O383 1.254 . S
C400 Eu336 2.848 . S
C400 O380 1.257 . S
C400 O385 1.249 . S
C400 C393 1.492 . S
C401 H366 0.931 . S
C401 C379 1.420 . S
C401 C402 1.351 . S
C402 H364 0.930 . S
C402 C370 1.423 . S
C402 C401 1.351 . S
C403 O387 1.276 . S
C403 O390 1.235 . S
C404 C405 1.393 . S
C404 C408 1.395 . S
C404 C411 1.492 . S
C405 C404 1.393 . S
C405 C406 1.392 . S
C405 H416 0.930 . S
C406 C405 1.392 . S
C406 C407 1.386 . S
C407 C406 1.386 . S
C407 C409 1.395 . S
C407 H417 0.930 . S
C408 C404 1.395 . S
C408 C409 1.379 . S
C408 H418 0.930 . S
C409 C407 1.395 . S
C409 C408 1.379 . S
C409 H419 0.930 . S
C410 O388 1.264 . S
C410 O389 1.254 . S
C411 Eu347 2.848 . S
C411 O386 1.257 . S
C411 O391 1.249 . S
C411 C404 1.492 . S
H412 C395 0.930 . S
H413 C396 0.930 . S
H414 C397 0.930 . S
H415 C398 0.930 . S
H416 C405 0.930 . S
H417 C407 0.930 . S
H418 C408 0.930 . S
H419 C409 0.930 . S
Eu420 N451 2.657 . S
Eu420 N458 2.609 . S
Eu420 O464 2.558 . S
Eu420 O465 2.612 . S
Eu420 O467 2.339 . S
Eu420 O468 2.563 . S
Eu420 O469 2.419 . S
Eu420 O471 2.380 . S
Eu420 O472 2.432 . S
Eu420 C484 2.848 . S
C421 C424 1.429 . S
C421 C425 1.411 . S
C421 N428 1.377 . S
C422 C424 1.420 . S
C422 C426 1.423 . S
C422 C434 1.392 . S
C423 C425 1.420 . S
C423 C426 1.351 . S
C423 H446 0.931 . S
C424 C421 1.429 . S
C424 C422 1.420 . S
C424 N432 1.362 . S
C425 C421 1.411 . S
C425 C423 1.420 . S
C425 C430 1.395 . S
C426 C422 1.423 . S
C426 C423 1.351 . S
C426 H438 0.930 . S
C427 C429 1.400 . S
C427 C430 1.386 . S
C427 H439 0.930 . S
N428 C421 1.377 . S
N428 C429 1.321 . S
N428 Eu431 2.609 . S
C429 C427 1.400 . S
C429 N428 1.321 . S
C429 H436 0.930 . S
C430 C425 1.395 . S
C430 C427 1.386 . S
C430 H449 0.930 . S
Eu431 N428 2.609 . S
Eu431 N432 2.657 . S
Eu431 O465 2.380 . S
Eu431 O466 2.432 . S
Eu431 O470 2.558 . S
Eu431 O471 2.612 . S
Eu431 O473 2.339 . S
Eu431 O474 2.563 . S
Eu431 O475 2.419 . S
Eu431 C495 2.848 . S
N432 C424 1.362 . S
N432 Eu431 2.657 . S
N432 C433 1.334 . S
C433 N432 1.334 . S
C433 C435 1.413 . S
C433 H440 0.929 . S
C434 C422 1.392 . S
C434 C435 1.367 . S
C434 H442 0.930 . S
C435 C433 1.413 . S
C435 C434 1.367 . S
C435 H437 0.930 . S
H436 C429 0.930 . S
H437 C435 0.930 . S
H438 C426 0.930 . S
H439 C427 0.930 . S
H440 C433 0.929 . S
H441 C455 0.930 . S
H442 C434 0.930 . S
H443 C461 0.930 . S
H444 C452 0.929 . S
H445 C459 0.930 . S
H446 C423 0.931 . S
H447 C453 0.930 . S
H448 C486 0.930 . S
H449 C430 0.930 . S
H450 C485 0.931 . S
N451 Eu420 2.657 . S
N451 C452 1.334 . S
N451 C456 1.362 . S
C452 H444 0.929 . S
C452 N451 1.334 . S
C452 C455 1.413 . S
C453 H447 0.930 . S
C453 C454 1.392 . S
C453 C455 1.367 . S
C454 C453 1.392 . S
C454 C456 1.420 . S
C454 C486 1.423 . S
C455 H441 0.930 . S
C455 C452 1.413 . S
C455 C453 1.367 . S
C456 N451 1.362 . S
C456 C454 1.420 . S
C456 C460 1.429 . S
H457 C462 0.930 . S
N458 Eu420 2.609 . S
N458 C460 1.377 . S
N458 C461 1.321 . S
C459 H445 0.930 . S
C459 C461 1.400 . S
C459 C462 1.386 . S
C460 C456 1.429 . S
C460 N458 1.377 . S
C460 C463 1.411 . S
C461 H443 0.930 . S
C461 N458 1.321 . S
C461 C459 1.400 . S
C462 H457 0.930 . S
C462 C459 1.386 . S
C462 C463 1.395 . S
C463 C460 1.411 . S
C463 C462 1.395 . S
C463 C485 1.420 . S
O464 Eu420 2.558 . S
O464 C484 1.257 . S
O465 Eu420 2.612 . S
O465 Eu431 2.380 . S
O465 C476 1.276 . S
O466 Eu431 2.432 . S
O466 C483 1.264 . S
O467 Eu420 2.339 . S
O467 C483 1.254 . S
O468 Eu420 2.563 . S
O468 C476 1.235 . S
O469 Eu420 2.419 . S
O469 C484 1.249 . S
O470 Eu431 2.558 . S
O470 C495 1.257 . S
O471 Eu420 2.380 . S
O471 Eu431 2.612 . S
O471 C487 1.276 . S
O472 Eu420 2.432 . S
O472 C494 1.264 . S
O473 Eu431 2.339 . S
O473 C494 1.254 . S
O474 Eu431 2.563 . S
O474 C487 1.235 . S
O475 Eu431 2.419 . S
O475 C495 1.249 . S
C476 O465 1.276 . S
C476 O468 1.235 . S
C477 C479 1.393 . S
C477 C481 1.395 . S
C477 C484 1.492 . S
C478 C479 1.392 . S
C478 C480 1.386 . S
C479 C477 1.393 . S
C479 C478 1.392 . S
C479 H496 0.930 . S
C480 C478 1.386 . S
C480 C482 1.395 . S
C480 H497 0.930 . S
C481 C477 1.395 . S
C481 C482 1.379 . S
C481 H498 0.930 . S
C482 C480 1.395 . S
C482 C481 1.379 . S
C482 H499 0.930 . S
C483 O466 1.264 . S
C483 O467 1.254 . S
C484 Eu420 2.848 . S
C484 O464 1.257 . S
C484 O469 1.249 . S
C484 C477 1.492 . S
C485 H450 0.931 . S
C485 C463 1.420 . S
C485 C486 1.351 . S
C486 H448 0.930 . S
C486 C454 1.423 . S
C486 C485 1.351 . S
C487 O471 1.276 . S
C487 O474 1.235 . S
C488 C489 1.393 . S
C488 C492 1.395 . S
C488 C495 1.492 . S
C489 C488 1.393 . S
C489 C490 1.392 . S
C489 H500 0.930 . S
C490 C489 1.392 . S
C490 C491 1.386 . S
C491 C490 1.386 . S
C491 C493 1.395 . S
C491 H501 0.930 . S
C492 C488 1.395 . S
C492 C493 1.379 . S
C492 H502 0.930 . S
C493 C491 1.395 . S
C493 C492 1.379 . S
C493 H503 0.930 . S
C494 O472 1.264 . S
C494 O473 1.254 . S
C495 Eu431 2.848 . S
C495 O470 1.257 . S
C495 O475 1.249 . S
C495 C488 1.492 . S
H496 C479 0.930 . S
H497 C480 0.930 . S
H498 C481 0.930 . S
H499 C482 0.930 . S
H500 C489 0.930 . S
H501 C491 0.930 . S
H502 C492 0.930 . S
H503 C493 0.930 . S
Eu504 N535 2.657 . S
Eu504 N542 2.609 . S
Eu504 O548 2.558 . S
Eu504 O549 2.612 . S
Eu504 O551 2.339 . S
Eu504 O552 2.563 . S
Eu504 O553 2.419 . S
Eu504 O555 2.380 . S
Eu504 O556 2.432 . S
Eu504 C568 2.848 . S
C505 C508 1.429 . S
C505 C509 1.411 . S
C505 N512 1.377 . S
C506 C508 1.420 . S
C506 C510 1.423 . S
C506 C518 1.392 . S
C507 C509 1.420 . S
C507 C510 1.351 . S
C507 H530 0.931 . S
C508 C505 1.429 . S
C508 C506 1.420 . S
C508 N516 1.362 . S
C509 C505 1.411 . S
C509 C507 1.420 . S
C509 C514 1.395 . S
C510 C506 1.423 . S
C510 C507 1.351 . S
C510 H522 0.930 . S
C511 C513 1.400 . S
C511 C514 1.386 . S
C511 H523 0.930 . S
N512 C505 1.377 . S
N512 C513 1.321 . S
N512 Eu515 2.609 . S
C513 C511 1.400 . S
C513 N512 1.321 . S
C513 H520 0.930 . S
C514 C509 1.395 . S
C514 C511 1.386 . S
C514 H533 0.930 . S
Eu515 N512 2.609 . S
Eu515 N516 2.657 . S
Eu515 O549 2.380 . S
Eu515 O550 2.432 . S
Eu515 O554 2.558 . S
Eu515 O555 2.612 . S
Eu515 O557 2.339 . S
Eu515 O558 2.563 . S
Eu515 O559 2.419 . S
Eu515 C579 2.848 . S
N516 C508 1.362 . S
N516 Eu515 2.657 . S
N516 C517 1.334 . S
C517 N516 1.334 . S
C517 C519 1.413 . S
C517 H524 0.929 . S
C518 C506 1.392 . S
C518 C519 1.367 . S
C518 H526 0.930 . S
C519 C517 1.413 . S
C519 C518 1.367 . S
C519 H521 0.930 . S
H520 C513 0.930 . S
H521 C519 0.930 . S
H522 C510 0.930 . S
H523 C511 0.930 . S
H524 C517 0.929 . S
H525 C539 0.930 . S
H526 C518 0.930 . S
H527 C545 0.930 . S
H528 C536 0.929 . S
H529 C543 0.930 . S
H530 C507 0.931 . S
H531 C537 0.930 . S
H532 C570 0.930 . S
H533 C514 0.930 . S
H534 C569 0.931 . S
N535 Eu504 2.657 . S
N535 C536 1.334 . S
N535 C540 1.362 . S
C536 H528 0.929 . S
C536 N535 1.334 . S
C536 C539 1.413 . S
C537 H531 0.930 . S
C537 C538 1.392 . S
C537 C539 1.367 . S
C538 C537 1.392 . S
C538 C540 1.420 . S
C538 C570 1.423 . S
C539 H525 0.930 . S
C539 C536 1.413 . S
C539 C537 1.367 . S
C540 N535 1.362 . S
C540 C538 1.420 . S
C540 C544 1.429 . S
H541 C546 0.930 . S
N542 Eu504 2.609 . S
N542 C544 1.377 . S
N542 C545 1.321 . S
C543 H529 0.930 . S
C543 C545 1.400 . S
C543 C546 1.386 . S
C544 C540 1.429 . S
C544 N542 1.377 . S
C544 C547 1.411 . S
C545 H527 0.930 . S
C545 N542 1.321 . S
C545 C543 1.400 . S
C546 H541 0.930 . S
C546 C543 1.386 . S
C546 C547 1.395 . S
C547 C544 1.411 . S
C547 C546 1.395 . S
C547 C569 1.420 . S
O548 Eu504 2.558 . S
O548 C568 1.257 . S
O549 Eu504 2.612 . S
O549 Eu515 2.380 . S
O549 C560 1.276 . S
O550 Eu515 2.432 . S
O550 C567 1.264 . S
O551 Eu504 2.339 . S
O551 C567 1.254 . S
O552 Eu504 2.563 . S
O552 C560 1.235 . S
O553 Eu504 2.419 . S
O553 C568 1.249 . S
O554 Eu515 2.558 . S
O554 C579 1.257 . S
O555 Eu504 2.380 . S
O555 Eu515 2.612 . S
O555 C571 1.276 . S
O556 Eu504 2.432 . S
O556 C578 1.264 . S
O557 Eu515 2.339 . S
O557 C578 1.254 . S
O558 Eu515 2.563 . S
O558 C571 1.235 . S
O559 Eu515 2.419 . S
O559 C579 1.249 . S
C560 O549 1.276 . S
C560 O552 1.235 . S
C561 C563 1.393 . S
C561 C565 1.395 . S
C561 C568 1.492 . S
C562 C563 1.392 . S
C562 C564 1.386 . S
C563 C561 1.393 . S
C563 C562 1.392 . S
C563 H580 0.930 . S
C564 C562 1.386 . S
C564 C566 1.395 . S
C564 H581 0.930 . S
C565 C561 1.395 . S
C565 C566 1.379 . S
C565 H582 0.930 . S
C566 C564 1.395 . S
C566 C565 1.379 . S
C566 H583 0.930 . S
C567 O550 1.264 . S
C567 O551 1.254 . S
C568 Eu504 2.848 . S
C568 O548 1.257 . S
C568 O553 1.249 . S
C568 C561 1.492 . S
C569 H534 0.931 . S
C569 C547 1.420 . S
C569 C570 1.351 . S
C570 H532 0.930 . S
C570 C538 1.423 . S
C570 C569 1.351 . S
C571 O555 1.276 . S
C571 O558 1.235 . S
C572 C573 1.393 . S
C572 C576 1.395 . S
C572 C579 1.492 . S
C573 C572 1.393 . S
C573 C574 1.392 . S
C573 H584 0.930 . S
C574 C573 1.392 . S
C574 C575 1.386 . S
C575 C574 1.386 . S
C575 C577 1.395 . S
C575 H585 0.930 . S
C576 C572 1.395 . S
C576 C577 1.379 . S
C576 H586 0.930 . S
C577 C575 1.395 . S
C577 C576 1.379 . S
C577 H587 0.930 . S
C578 O556 1.264 . S
C578 O557 1.254 . S
C579 Eu515 2.848 . S
C579 O554 1.257 . S
C579 O559 1.249 . S
C579 C572 1.492 . S
H580 C563 0.930 . S
H581 C564 0.930 . S
H582 C565 0.930 . S
H583 C566 0.930 . S
H584 C573 0.930 . S
H585 C575 0.930 . S
H586 C576 0.930 . S
H587 C577 0.930 . S
Eu588 N619 2.657 . S
Eu588 N626 2.609 . S
Eu588 O632 2.558 . S
Eu588 O633 2.612 1_655 S
Eu588 O635 2.339 . S
Eu588 O636 2.563 1_655 S
Eu588 O637 2.419 . S
Eu588 O639 2.380 . S
Eu588 O640 2.432 1_655 S
Eu588 C652 2.848 . S
C589 C592 1.429 . S
C589 C593 1.411 . S
C589 N596 1.377 . S
C590 C592 1.420 . S
C590 C594 1.423 . S
C590 C602 1.392 . S
C591 C593 1.420 . S
C591 C594 1.351 . S
C591 H614 0.931 . S
C592 C589 1.429 . S
C592 C590 1.420 . S
C592 N600 1.362 . S
C593 C589 1.411 . S
C593 C591 1.420 . S
C593 C598 1.395 . S
C594 C590 1.423 . S
C594 C591 1.351 . S
C594 H606 0.930 . S
C595 C597 1.400 . S
C595 C598 1.386 . S
C595 H607 0.930 1_455 S
N596 C589 1.377 . S
N596 C597 1.321 . S
N596 Eu599 2.609 . S
C597 C595 1.400 . S
C597 N596 1.321 . S
C597 H604 0.930 1_455 S
C598 C593 1.395 . S
C598 C595 1.386 . S
C598 H617 0.930 . S
Eu599 N596 2.609 . S
Eu599 N600 2.657 . S
Eu599 O633 2.380 . S
Eu599 O634 2.432 1_455 S
Eu599 O638 2.558 . S
Eu599 O639 2.612 1_455 S
Eu599 O641 2.339 . S
Eu599 O642 2.563 1_455 S
Eu599 O643 2.419 . S
Eu599 C663 2.848 . S
N600 C592 1.362 . S
N600 Eu599 2.657 . S
N600 C601 1.334 . S
C601 N600 1.334 . S
C601 C603 1.413 . S
C601 H608 0.929 . S
C602 C590 1.392 . S
C602 C603 1.367 . S
C602 H610 0.930 . S
C603 C601 1.413 . S
C603 C602 1.367 . S
C603 H605 0.930 . S
H604 C597 0.930 1_655 S
H605 C603 0.930 . S
H606 C594 0.930 . S
H607 C595 0.930 1_655 S
H608 C601 0.929 . S
H609 C623 0.930 . S
H610 C602 0.930 . S
H611 C629 0.930 1_455 S
H612 C620 0.929 . S
H613 C627 0.930 1_455 S
H614 C591 0.931 . S
H615 C621 0.930 . S
H616 C654 0.930 . S
H617 C598 0.930 . S
H618 C653 0.931 . S
N619 Eu588 2.657 . S
N619 C620 1.334 . S
N619 C624 1.362 . S
C620 H612 0.929 . S
C620 N619 1.334 . S
C620 C623 1.413 . S
C621 H615 0.930 . S
C621 C622 1.392 . S
C621 C623 1.367 . S
C622 C621 1.392 . S
C622 C624 1.420 . S
C622 C654 1.423 . S
C623 H609 0.930 . S
C623 C620 1.413 . S
C623 C621 1.367 . S
C624 N619 1.362 . S
C624 C622 1.420 . S
C624 C628 1.429 . S
H625 C630 0.930 . S
N626 Eu588 2.609 . S
N626 C628 1.377 . S
N626 C629 1.321 . S
C627 H613 0.930 1_655 S
C627 C629 1.400 . S
C627 C630 1.386 . S
C628 C624 1.429 . S
C628 N626 1.377 . S
C628 C631 1.411 . S
C629 H611 0.930 1_655 S
C629 N626 1.321 . S
C629 C627 1.400 . S
C630 H625 0.930 . S
C630 C627 1.386 . S
C630 C631 1.395 . S
C631 C628 1.411 . S
C631 C630 1.395 . S
C631 C653 1.420 . S
O632 Eu588 2.558 . S
O632 C652 1.257 . S
O633 Eu588 2.612 1_455 S
O633 Eu599 2.380 . S
O633 C644 1.276 . S
O634 Eu599 2.432 1_655 S
O634 C651 1.264 . S
O635 Eu588 2.339 . S
O635 C651 1.254 . S
O636 Eu588 2.563 1_455 S
O636 C644 1.235 . S
O637 Eu588 2.419 . S
O637 C652 1.249 . S
O638 Eu599 2.558 . S
O638 C663 1.257 . S
O639 Eu588 2.380 . S
O639 Eu599 2.612 1_655 S
O639 C655 1.276 . S
O640 Eu588 2.432 1_455 S
O640 C662 1.264 . S
O641 Eu599 2.339 . S
O641 C662 1.254 . S
O642 Eu599 2.563 1_655 S
O642 C655 1.235 . S
O643 Eu599 2.419 . S
O643 C663 1.249 . S
C644 O633 1.276 . S
C644 O636 1.235 . S
C645 C647 1.393 . S
C645 C649 1.395 . S
C645 C652 1.492 . S
C646 C647 1.392 . S
C646 C648 1.386 . S
C647 C645 1.393 . S
C647 C646 1.392 . S
C647 H664 0.930 . S
C648 C646 1.386 . S
C648 C650 1.395 . S
C648 H665 0.930 . S
C649 C645 1.395 . S
C649 C650 1.379 . S
C649 H666 0.930 . S
C650 C648 1.395 . S
C650 C649 1.379 . S
C650 H667 0.930 . S
C651 O634 1.264 . S
C651 O635 1.254 . S
C652 Eu588 2.848 . S
C652 O632 1.257 . S
C652 O637 1.249 . S
C652 C645 1.492 . S
C653 H618 0.931 . S
C653 C631 1.420 . S
C653 C654 1.351 . S
C654 H616 0.930 . S
C654 C622 1.423 . S
C654 C653 1.351 . S
C655 O639 1.276 . S
C655 O642 1.235 . S
C656 C657 1.393 . S
C656 C660 1.395 . S
C656 C663 1.492 . S
C657 C656 1.393 . S
C657 C658 1.392 . S
C657 H668 0.930 . S
C658 C657 1.392 . S
C658 C659 1.386 . S
C659 C658 1.386 . S
C659 C661 1.395 . S
C659 H669 0.930 . S
C660 C656 1.395 . S
C660 C661 1.379 . S
C660 H670 0.930 . S
C661 C659 1.395 . S
C661 C660 1.379 . S
C661 H671 0.930 . S
C662 O640 1.264 . S
C662 O641 1.254 . S
C663 Eu599 2.848 . S
C663 O638 1.257 . S
C663 O643 1.249 . S
C663 C656 1.492 . S
H664 C647 0.930 . S
H665 C648 0.930 . S
H666 C649 0.930 . S
H667 C650 0.930 . S
H668 C657 0.930 . S
H669 C659 0.930 . S
H670 C660 0.930 . S
H671 C661 0.930 . S
Eu672 N703 2.657 . S
Eu672 N710 2.609 . S
Eu672 O716 2.558 . S
Eu672 O717 2.612 1_556 S
Eu672 O719 2.339 1_556 S
Eu672 O720 2.563 1_556 S
Eu672 O721 2.419 . S
Eu672 O723 2.380 . S
Eu672 O724 2.432 . S
Eu672 C736 2.848 . S
C673 C676 1.429 . S
C673 C677 1.411 . S
C673 N680 1.377 . S
C674 C676 1.420 . S
C674 C678 1.423 . S
C674 C686 1.392 . S
C675 C677 1.420 . S
C675 C678 1.351 . S
C675 H698 0.931 . S
C676 C673 1.429 . S
C676 C674 1.420 . S
C676 N684 1.362 . S
C677 C673 1.411 . S
C677 C675 1.420 . S
C677 C682 1.395 . S
C678 C674 1.423 . S
C678 C675 1.351 . S
C678 H690 0.930 . S
C679 C681 1.400 . S
C679 C682 1.386 . S
C679 H691 0.930 . S
N680 C673 1.377 . S
N680 C681 1.321 . S
N680 Eu683 2.609 . S
C681 C679 1.400 . S
C681 N680 1.321 . S
C681 H688 0.930 . S
C682 C677 1.395 . S
C682 C679 1.386 . S
C682 H701 0.930 . S
Eu683 N680 2.609 . S
Eu683 N684 2.657 . S
Eu683 O717 2.380 . S
Eu683 O718 2.432 . S
Eu683 O722 2.558 . S
Eu683 O723 2.612 1_554 S
Eu683 O725 2.339 1_554 S
Eu683 O726 2.563 1_554 S
Eu683 O727 2.419 . S
Eu683 C747 2.848 . S
N684 C676 1.362 . S
N684 Eu683 2.657 . S
N684 C685 1.334 . S
C685 N684 1.334 . S
C685 C687 1.413 . S
C685 H692 0.929 . S
C686 C674 1.392 . S
C686 C687 1.367 . S
C686 H694 0.930 . S
C687 C685 1.413 . S
C687 C686 1.367 . S
C687 H689 0.930 . S
H688 C681 0.930 . S
H689 C687 0.930 . S
H690 C678 0.930 . S
H691 C679 0.930 . S
H692 C685 0.929 . S
H693 C707 0.930 . S
H694 C686 0.930 . S
H695 C713 0.930 . S
H696 C704 0.929 . S
H697 C711 0.930 . S
H698 C675 0.931 . S
H699 C705 0.930 . S
H700 C738 0.930 . S
H701 C682 0.930 . S
H702 C737 0.931 . S
N703 Eu672 2.657 . S
N703 C704 1.334 . S
N703 C708 1.362 . S
C704 H696 0.929 . S
C704 N703 1.334 . S
C704 C707 1.413 . S
C705 H699 0.930 . S
C705 C706 1.392 . S
C705 C707 1.367 . S
C706 C705 1.392 . S
C706 C708 1.420 . S
C706 C738 1.423 . S
C707 H693 0.930 . S
C707 C704 1.413 . S
C707 C705 1.367 . S
C708 N703 1.362 . S
C708 C706 1.420 . S
C708 C712 1.429 . S
H709 C714 0.930 . S
N710 Eu672 2.609 . S
N710 C712 1.377 . S
N710 C713 1.321 . S
C711 H697 0.930 . S
C711 C713 1.400 . S
C711 C714 1.386 . S
C712 C708 1.429 . S
C712 N710 1.377 . S
C712 C715 1.411 . S
C713 H695 0.930 . S
C713 N710 1.321 . S
C713 C711 1.400 . S
C714 H709 0.930 . S
C714 C711 1.386 . S
C714 C715 1.395 . S
C715 C712 1.411 . S
C715 C714 1.395 . S
C715 C737 1.420 . S
O716 Eu672 2.558 . S
O716 C736 1.257 . S
O717 Eu672 2.612 1_554 S
O717 Eu683 2.380 . S
O717 C728 1.276 . S
O718 Eu683 2.432 . S
O718 C735 1.264 . S
O719 Eu672 2.339 1_554 S
O719 C735 1.254 . S
O720 Eu672 2.563 1_554 S
O720 C728 1.235 . S
O721 Eu672 2.419 . S
O721 C736 1.249 . S
O722 Eu683 2.558 . S
O722 C747 1.257 . S
O723 Eu672 2.380 . S
O723 Eu683 2.612 1_556 S
O723 C739 1.276 . S
O724 Eu672 2.432 . S
O724 C746 1.264 . S
O725 Eu683 2.339 1_556 S
O725 C746 1.254 . S
O726 Eu683 2.563 1_556 S
O726 C739 1.235 . S
O727 Eu683 2.419 . S
O727 C747 1.249 . S
C728 O717 1.276 . S
C728 O720 1.235 . S
C729 C731 1.393 . S
C729 C733 1.395 . S
C729 C736 1.492 . S
C730 C731 1.392 . S
C730 C732 1.386 . S
C731 C729 1.393 . S
C731 C730 1.392 . S
C731 H748 0.930 . S
C732 C730 1.386 . S
C732 C734 1.395 . S
C732 H749 0.930 . S
C733 C729 1.395 . S
C733 C734 1.379 . S
C733 H750 0.930 . S
C734 C732 1.395 . S
C734 C733 1.379 . S
C734 H751 0.930 . S
C735 O718 1.264 . S
C735 O719 1.254 . S
C736 Eu672 2.848 . S
C736 O716 1.257 . S
C736 O721 1.249 . S
C736 C729 1.492 . S
C737 H702 0.931 . S
C737 C715 1.420 . S
C737 C738 1.351 . S
C738 H700 0.930 . S
C738 C706 1.423 . S
C738 C737 1.351 . S
C739 O723 1.276 . S
C739 O726 1.235 . S
C740 C741 1.393 . S
C740 C744 1.395 . S
C740 C747 1.492 . S
C741 C740 1.393 . S
C741 C742 1.392 . S
C741 H752 0.930 . S
C742 C741 1.392 . S
C742 C743 1.386 . S
C743 C742 1.386 . S
C743 C745 1.395 . S
C743 H753 0.930 . S
C744 C740 1.395 . S
C744 C745 1.379 . S
C744 H754 0.930 . S
C745 C743 1.395 . S
C745 C744 1.379 . S
C745 H755 0.930 . S
C746 O724 1.264 . S
C746 O725 1.254 . S
C747 Eu683 2.848 . S
C747 O722 1.257 . S
C747 O727 1.249 . S
C747 C740 1.492 . S
H748 C731 0.930 . S
H749 C732 0.930 . S
H750 C733 0.930 . S
H751 C734 0.930 . S
H752 C741 0.930 . S
H753 C743 0.930 . S
H754 C744 0.930 . S
H755 C745 0.930 . S
Eu756 N787 2.657 . S
Eu756 N794 2.609 . S
Eu756 O800 2.558 . S
Eu756 O801 2.612 1_565 S
Eu756 O803 2.339 1_565 S
Eu756 O804 2.563 1_565 S
Eu756 O805 2.419 . S
Eu756 O807 2.380 . S
Eu756 O808 2.432 . S
Eu756 C820 2.848 . S
C757 C760 1.429 . S
C757 C761 1.411 . S
C757 N764 1.377 . S
C758 C760 1.420 . S
C758 C762 1.423 . S
C758 C770 1.392 . S
C759 C761 1.420 . S
C759 C762 1.351 . S
C759 H782 0.931 . S
C760 C757 1.429 . S
C760 C758 1.420 . S
C760 N768 1.362 . S
C761 C757 1.411 . S
C761 C759 1.420 . S
C761 C766 1.395 . S
C762 C758 1.423 . S
C762 C759 1.351 . S
C762 H774 0.930 . S
C763 C765 1.400 . S
C763 C766 1.386 . S
C763 H775 0.930 . S
N764 C757 1.377 . S
N764 C765 1.321 . S
N764 Eu767 2.609 . S
C765 C763 1.400 . S
C765 N764 1.321 . S
C765 H772 0.930 . S
C766 C761 1.395 . S
C766 C763 1.386 . S
C766 H785 0.930 . S
Eu767 N764 2.609 . S
Eu767 N768 2.657 . S
Eu767 O801 2.380 . S
Eu767 O802 2.432 . S
Eu767 O806 2.558 . S
Eu767 O807 2.612 1_545 S
Eu767 O809 2.339 1_545 S
Eu767 O810 2.563 1_545 S
Eu767 O811 2.419 . S
Eu767 C831 2.848 . S
N768 C760 1.362 . S
N768 Eu767 2.657 . S
N768 C769 1.334 . S
C769 N768 1.334 . S
C769 C771 1.413 . S
C769 H776 0.929 . S
C770 C758 1.392 . S
C770 C771 1.367 . S
C770 H778 0.930 . S
C771 C769 1.413 . S
C771 C770 1.367 . S
C771 H773 0.930 . S
H772 C765 0.930 . S
H773 C771 0.930 . S
H774 C762 0.930 . S
H775 C763 0.930 . S
H776 C769 0.929 . S
H777 C791 0.930 . S
H778 C770 0.930 . S
H779 C797 0.930 . S
H780 C788 0.929 . S
H781 C795 0.930 . S
H782 C759 0.931 . S
H783 C789 0.930 . S
H784 C822 0.930 . S
H785 C766 0.930 . S
H786 C821 0.931 . S
N787 Eu756 2.657 . S
N787 C788 1.334 . S
N787 C792 1.362 . S
C788 H780 0.929 . S
C788 N787 1.334 . S
C788 C791 1.413 . S
C789 H783 0.930 . S
C789 C790 1.392 . S
C789 C791 1.367 . S
C790 C789 1.392 . S
C790 C792 1.420 . S
C790 C822 1.423 . S
C791 H777 0.930 . S
C791 C788 1.413 . S
C791 C789 1.367 . S
C792 N787 1.362 . S
C792 C790 1.420 . S
C792 C796 1.429 . S
H793 C798 0.930 . S
N794 Eu756 2.609 . S
N794 C796 1.377 . S
N794 C797 1.321 . S
C795 H781 0.930 . S
C795 C797 1.400 . S
C795 C798 1.386 . S
C796 C792 1.429 . S
C796 N794 1.377 . S
C796 C799 1.411 . S
C797 H779 0.930 . S
C797 N794 1.321 . S
C797 C795 1.400 . S
C798 H793 0.930 . S
C798 C795 1.386 . S
C798 C799 1.395 . S
C799 C796 1.411 . S
C799 C798 1.395 . S
C799 C821 1.420 . S
O800 Eu756 2.558 . S
O800 C820 1.257 . S
O801 Eu756 2.612 1_545 S
O801 Eu767 2.380 . S
O801 C812 1.276 . S
O802 Eu767 2.432 . S
O802 C819 1.264 . S
O803 Eu756 2.339 1_545 S
O803 C819 1.254 . S
O804 Eu756 2.563 1_545 S
O804 C812 1.235 . S
O805 Eu756 2.419 . S
O805 C820 1.249 . S
O806 Eu767 2.558 . S
O806 C831 1.257 . S
O807 Eu756 2.380 . S
O807 Eu767 2.612 1_565 S
O807 C823 1.276 . S
O808 Eu756 2.432 . S
O808 C830 1.264 . S
O809 Eu767 2.339 1_565 S
O809 C830 1.254 . S
O810 Eu767 2.563 1_565 S
O810 C823 1.235 . S
O811 Eu767 2.419 . S
O811 C831 1.249 . S
C812 O801 1.276 . S
C812 O804 1.235 . S
C813 C815 1.393 1_565 S
C813 C817 1.395 . S
C813 C820 1.492 . S
C814 C815 1.392 . S
C814 C816 1.357 1_545 S
C815 C813 1.393 1_545 S
C815 C814 1.392 . S
C815 H832 0.930 . S
C816 C814 1.357 1_565 S
C816 C818 1.415 . S
C816 H833 0.940 1_565 S
C817 C813 1.395 . S
C817 C818 1.379 . S
C817 H834 0.930 . S
C818 C816 1.415 . S
C818 C817 1.379 . S
C818 H835 0.930 . S
C819 O802 1.264 . S
C819 O803 1.254 . S
C820 Eu756 2.848 . S
C820 O800 1.257 . S
C820 O805 1.249 . S
C820 C813 1.492 . S
C821 H786 0.931 . S
C821 C799 1.420 . S
C821 C822 1.351 . S
C822 H784 0.930 . S
C822 C790 1.423 . S
C822 C821 1.351 . S
C823 O807 1.276 . S
C823 O810 1.235 . S
C824 C825 1.393 1_545 S
C824 C828 1.395 . S
C824 C831 1.492 . S
C825 C824 1.393 1_565 S
C825 C826 1.392 . S
C825 H836 0.930 . S
C826 C825 1.392 . S
C826 C827 1.386 1_565 S
C827 C826 1.386 1_545 S
C827 C829 1.395 . S
C827 H837 0.930 1_545 S
C828 C824 1.395 . S
C828 C829 1.379 . S
C828 H838 0.930 . S
C829 C827 1.395 . S
C829 C828 1.379 . S
C829 H839 0.930 . S
C830 O808 1.264 . S
C830 O809 1.254 . S
C831 Eu767 2.848 . S
C831 O806 1.257 . S
C831 O811 1.249 . S
C831 C824 1.492 . S
H832 C815 0.930 . S
H833 C816 0.940 1_545 S
H834 C817 0.930 . S
H835 C818 0.930 . S
H836 C825 0.930 . S
H837 C827 0.930 1_565 S
H838 C828 0.930 . S
H839 C829 0.930 . S
Eu840 N871 2.657 . S
Eu840 N878 2.609 . S
Eu840 O884 2.558 . S
Eu840 O885 2.612 . S
Eu840 O887 2.339 . S
Eu840 O888 2.563 . S
Eu840 O889 2.419 . S
Eu840 O891 2.380 . S
Eu840 O892 2.432 . S
Eu840 C904 2.848 . S
C841 C844 1.429 . S
C841 C845 1.411 . S
C841 N848 1.377 . S
C842 C844 1.420 . S
C842 C846 1.423 . S
C842 C854 1.392 . S
C843 C845 1.420 . S
C843 C846 1.351 . S
C843 H866 0.931 . S
C844 C841 1.429 . S
C844 C842 1.420 . S
C844 N852 1.362 . S
C845 C841 1.411 . S
C845 C843 1.420 . S
C845 C850 1.395 . S
C846 C842 1.423 . S
C846 C843 1.351 . S
C846 H858 0.930 . S
C847 C849 1.400 . S
C847 C850 1.386 . S
C847 H859 0.930 . S
N848 C841 1.377 . S
N848 C849 1.321 . S
N848 Eu851 2.609 . S
C849 C847 1.400 . S
C849 N848 1.321 . S
C849 H856 0.930 . S
C850 C845 1.395 . S
C850 C847 1.386 . S
C850 H869 0.930 . S
Eu851 N848 2.609 . S
Eu851 N852 2.657 . S
Eu851 O885 2.380 . S
Eu851 O886 2.432 . S
Eu851 O890 2.558 . S
Eu851 O891 2.612 . S
Eu851 O893 2.339 . S
Eu851 O894 2.563 . S
Eu851 O895 2.419 . S
Eu851 C915 2.848 . S
N852 C844 1.362 . S
N852 Eu851 2.657 . S
N852 C853 1.334 . S
C853 N852 1.334 . S
C853 C855 1.413 . S
C853 H860 0.929 . S
C854 C842 1.392 . S
C854 C855 1.367 . S
C854 H862 0.930 . S
C855 C853 1.413 . S
C855 C854 1.367 . S
C855 H857 0.930 . S
H856 C849 0.930 . S
H857 C855 0.930 . S
H858 C846 0.930 . S
H859 C847 0.930 . S
H860 C853 0.929 . S
H861 C875 0.930 . S
H862 C854 0.930 . S
H863 C881 0.930 . S
H864 C872 0.929 . S
H865 C879 0.930 . S
H866 C843 0.931 . S
H867 C873 0.930 . S
H868 C906 0.930 . S
H869 C850 0.930 . S
H870 C905 0.931 . S
N871 Eu840 2.657 . S
N871 C872 1.334 . S
N871 C876 1.362 . S
C872 H864 0.929 . S
C872 N871 1.334 . S
C872 C875 1.413 . S
C873 H867 0.930 . S
C873 C874 1.392 . S
C873 C875 1.367 . S
C874 C873 1.392 . S
C874 C876 1.420 . S
C874 C906 1.423 . S
C875 H861 0.930 . S
C875 C872 1.413 . S
C875 C873 1.367 . S
C876 N871 1.362 . S
C876 C874 1.420 . S
C876 C880 1.429 . S
H877 C882 0.930 . S
N878 Eu840 2.609 . S
N878 C880 1.377 . S
N878 C881 1.321 . S
C879 H865 0.930 . S
C879 C881 1.400 . S
C879 C882 1.386 . S
C880 C876 1.429 . S
C880 N878 1.377 . S
C880 C883 1.411 . S
C881 H863 0.930 . S
C881 N878 1.321 . S
C881 C879 1.400 . S
C882 H877 0.930 . S
C882 C879 1.386 . S
C882 C883 1.395 . S
C883 C880 1.411 . S
C883 C882 1.395 . S
C883 C905 1.420 . S
O884 Eu840 2.558 . S
O884 C904 1.257 . S
O885 Eu840 2.612 . S
O885 Eu851 2.380 . S
O885 C896 1.276 . S
O886 Eu851 2.432 . S
O886 C903 1.264 . S
O887 Eu840 2.339 . S
O887 C903 1.254 . S
O888 Eu840 2.563 . S
O888 C896 1.235 . S
O889 Eu840 2.419 . S
O889 C904 1.249 . S
O890 Eu851 2.558 . S
O890 C915 1.257 . S
O891 Eu840 2.380 . S
O891 Eu851 2.612 . S
O891 C907 1.276 . S
O892 Eu840 2.432 . S
O892 C914 1.264 . S
O893 Eu851 2.339 . S
O893 C914 1.254 . S
O894 Eu851 2.563 . S
O894 C907 1.235 . S
O895 Eu851 2.419 . S
O895 C915 1.249 . S
C896 O885 1.276 . S
C896 O888 1.235 . S
C897 C899 1.393 . S
C897 C901 1.395 . S
C897 C904 1.492 . S
C898 C899 1.392 . S
C898 C900 1.386 . S
C899 C897 1.393 . S
C899 C898 1.392 . S
C899 H916 0.930 . S
C900 C898 1.386 . S
C900 C902 1.395 . S
C900 H917 0.930 . S
C901 C897 1.395 . S
C901 C902 1.379 . S
C901 H918 0.930 . S
C902 C900 1.395 . S
C902 C901 1.379 . S
C902 H919 0.930 . S
C903 O886 1.264 . S
C903 O887 1.254 . S
C904 Eu840 2.848 . S
C904 O884 1.257 . S
C904 O889 1.249 . S
C904 C897 1.492 . S
C905 H870 0.931 . S
C905 C883 1.420 . S
C905 C906 1.351 . S
C906 H868 0.930 . S
C906 C874 1.423 . S
C906 C905 1.351 . S
C907 O891 1.276 . S
C907 O894 1.235 . S
C908 C909 1.393 . S
C908 C912 1.395 . S
C908 C915 1.492 . S
C909 C908 1.393 . S
C909 C910 1.392 . S
C909 H920 0.930 . S
C910 C909 1.392 . S
C910 C911 1.386 . S
C911 C910 1.386 . S
C911 C913 1.395 . S
C911 H921 0.930 . S
C912 C908 1.395 . S
C912 C913 1.379 . S
C912 H922 0.930 . S
C913 C911 1.395 . S
C913 C912 1.379 . S
C913 H923 0.930 . S
C914 O892 1.264 . S
C914 O893 1.254 . S
C915 Eu851 2.848 . S
C915 O890 1.257 . S
C915 O895 1.249 . S
C915 C908 1.492 . S
H916 C899 0.930 . S
H917 C900 0.930 . S
H918 C901 0.930 . S
H919 C902 0.930 . S
H920 C909 0.930 . S
H921 C911 0.930 . S
H922 C912 0.930 . S
H923 C913 0.930 . S
Eu924 N955 2.657 . S
Eu924 N962 2.609 . S
Eu924 O968 2.558 . S
Eu924 O969 2.612 1_455 S
Eu924 O971 2.339 1_455 S
Eu924 O972 2.563 1_455 S
Eu924 O973 2.419 . S
Eu924 O975 2.380 . S
Eu924 O976 2.432 . S
Eu924 C988 2.848 . S
C925 C928 1.429 . S
C925 C929 1.411 . S
C925 N932 1.377 . S
C926 C928 1.420 . S
C926 C930 1.423 . S
C926 C938 1.392 . S
C927 C929 1.420 . S
C927 C930 1.351 . S
C927 H950 0.931 . S
C928 C925 1.429 . S
C928 C926 1.420 . S
C928 N936 1.362 . S
C929 C925 1.411 . S
C929 C927 1.420 . S
C929 C934 1.395 . S
C930 C926 1.423 . S
C930 C927 1.351 . S
C930 H942 0.930 . S
C931 C933 1.400 . S
C931 C934 1.386 . S
C931 H943 0.930 . S
N932 C925 1.377 . S
N932 C933 1.321 . S
N932 Eu935 2.609 . S
C933 C931 1.400 . S
C933 N932 1.321 . S
C933 H940 0.930 . S
C934 C929 1.395 . S
C934 C931 1.386 . S
C934 H953 0.930 . S
Eu935 N932 2.609 . S
Eu935 N936 2.657 . S
Eu935 O969 2.380 . S
Eu935 O970 2.432 . S
Eu935 O974 2.558 . S
Eu935 O975 2.612 1_655 S
Eu935 O977 2.339 1_655 S
Eu935 O978 2.563 1_655 S
Eu935 O979 2.419 . S
Eu935 C999 2.848 . S
N936 C928 1.362 . S
N936 Eu935 2.657 . S
N936 C937 1.334 . S
C937 N936 1.334 . S
C937 C939 1.413 . S
C937 H944 0.929 . S
C938 C926 1.392 . S
C938 C939 1.367 . S
C938 H946 0.930 . S
C939 C937 1.413 . S
C939 C938 1.367 . S
C939 H941 0.930 . S
H940 C933 0.930 . S
H941 C939 0.930 . S
H942 C930 0.930 . S
H943 C931 0.930 . S
H944 C937 0.929 . S
H945 C959 0.930 . S
H946 C938 0.930 . S
H947 C965 0.930 . S
H948 C956 0.929 . S
H949 C963 0.930 . S
H950 C927 0.931 . S
H951 C957 0.930 . S
H952 C990 0.930 . S
H953 C934 0.930 . S
H954 C989 0.931 . S
N955 Eu924 2.657 . S
N955 C956 1.334 . S
N955 C960 1.362 . S
C956 H948 0.929 . S
C956 N955 1.334 . S
C956 C959 1.413 . S
C957 H951 0.930 . S
C957 C958 1.392 . S
C957 C959 1.367 . S
C958 C957 1.392 . S
C958 C960 1.420 . S
C958 C990 1.423 . S
C959 H945 0.930 . S
C959 C956 1.413 . S
C959 C957 1.367 . S
C960 N955 1.362 . S
C960 C958 1.420 . S
C960 C964 1.429 . S
H961 C966 0.930 . S
N962 Eu924 2.609 . S
N962 C964 1.377 . S
N962 C965 1.321 . S
C963 H949 0.930 . S
C963 C965 1.400 . S
C963 C966 1.386 . S
C964 C960 1.429 . S
C964 N962 1.377 . S
C964 C967 1.411 . S
C965 H947 0.930 . S
C965 N962 1.321 . S
C965 C963 1.400 . S
C966 H961 0.930 . S
C966 C963 1.386 . S
C966 C967 1.395 . S
C967 C964 1.411 . S
C967 C966 1.395 . S
C967 C989 1.420 . S
O968 Eu924 2.558 . S
O968 C988 1.257 . S
O969 Eu924 2.612 1_655 S
O969 Eu935 2.380 . S
O969 C980 1.276 . S
O970 Eu935 2.432 . S
O970 C987 1.264 . S
O971 Eu924 2.339 1_655 S
O971 C987 1.254 . S
O972 Eu924 2.563 1_655 S
O972 C980 1.235 . S
O973 Eu924 2.419 . S
O973 C988 1.249 . S
O974 Eu935 2.558 . S
O974 C999 1.257 . S
O975 Eu924 2.380 . S
O975 Eu935 2.612 1_455 S
O975 C991 1.276 . S
O976 Eu924 2.432 . S
O976 C998 1.264 . S
O977 Eu935 2.339 1_455 S
O977 C998 1.254 . S
O978 Eu935 2.563 1_455 S
O978 C991 1.235 . S
O979 Eu935 2.419 . S
O979 C999 1.249 . S
C980 O969 1.276 . S
C980 O972 1.235 . S
C981 C983 1.393 1_455 S
C981 C985 1.395 . S
C981 C988 1.492 . S
C982 C983 1.392 . S
C982 C984 1.386 . S
C983 C981 1.393 1_655 S
C983 C982 1.392 . S
C983 H1000 0.930 . S
C984 C982 1.386 . S
C984 C986 1.395 1_655 S
C984 H1001 0.930 . S
C985 C981 1.395 . S
C985 C986 1.379 . S
C985 H1002 0.930 . S
C986 C984 1.395 1_455 S
C986 C985 1.379 . S
C986 H1003 0.930 . S
C987 O970 1.264 . S
C987 O971 1.254 . S
C988 Eu924 2.848 . S
C988 O968 1.257 . S
C988 O973 1.249 . S
C988 C981 1.492 . S
C989 H954 0.931 . S
C989 C967 1.420 . S
C989 C990 1.351 . S
C990 H952 0.930 . S
C990 C958 1.423 . S
C990 C989 1.351 . S
C991 O975 1.276 . S
C991 O978 1.235 . S
C992 C993 1.393 1_655 S
C992 C996 1.395 . S
C992 C999 1.492 . S
C993 C992 1.393 1_455 S
C993 C994 1.392 . S
C993 H1004 0.930 . S
C994 C993 1.392 . S
C994 C995 1.386 . S
C995 C994 1.386 . S
C995 C997 1.395 1_455 S
C995 H1005 0.930 . S
C996 C992 1.395 . S
C996 C997 1.379 . S
C996 H1006 0.930 . S
C997 C995 1.395 1_655 S
C997 C996 1.379 . S
C997 H1007 0.930 . S
C998 O976 1.264 . S
C998 O977 1.254 . S
C999 Eu935 2.848 . S
C999 O974 1.257 . S
C999 O979 1.249 . S
C999 C992 1.492 . S
H1000 C983 0.930 . S
H1001 C984 0.930 . S
H1002 C985 0.930 . S
H1003 C986 0.930 . S
H1004 C993 0.930 . S
H1005 C995 0.930 . S
H1006 C996 0.930 . S
H1007 C997 0.930 . S
Eu1008 N1039 2.657 . S
Eu1008 N1046 2.609 . S
Eu1008 O1052 2.558 . S
Eu1008 O1053 2.612 . S
Eu1008 O1055 2.339 . S
Eu1008 O1056 2.563 . S
Eu1008 O1057 2.419 . S
Eu1008 O1059 2.380 . S
Eu1008 O1060 2.432 . S
Eu1008 C1072 2.848 . S
C1009 C1012 1.429 . S
C1009 C1013 1.411 . S
C1009 N1016 1.377 . S
C1010 C1012 1.420 . S
C1010 C1014 1.423 . S
C1010 C1022 1.392 . S
C1011 C1013 1.420 . S
C1011 C1014 1.351 . S
C1011 H1034 0.931 . S
C1012 C1009 1.429 . S
C1012 C1010 1.420 . S
C1012 N1020 1.362 . S
C1013 C1009 1.411 . S
C1013 C1011 1.420 . S
C1013 C1018 1.395 . S
C1014 C1010 1.423 . S
C1014 C1011 1.351 . S
C1014 H1026 0.930 . S
C1015 C1017 1.400 . S
C1015 C1018 1.386 . S
C1015 H1027 0.930 . S
N1016 C1009 1.377 . S
N1016 C1017 1.321 . S
N1016 Eu1019 2.609 . S
C1017 C1015 1.400 . S
C1017 N1016 1.321 . S
C1017 H1024 0.930 . S
C1018 C1013 1.395 . S
C1018 C1015 1.386 . S
C1018 H1037 0.930 . S
Eu1019 N1016 2.609 . S
Eu1019 N1020 2.657 . S
Eu1019 O1053 2.380 . S
Eu1019 O1054 2.432 . S
Eu1019 O1058 2.558 . S
Eu1019 O1059 2.612 . S
Eu1019 O1061 2.339 . S
Eu1019 O1062 2.563 . S
Eu1019 O1063 2.419 . S
Eu1019 C1083 2.848 . S
N1020 C1012 1.362 . S
N1020 Eu1019 2.657 . S
N1020 C1021 1.334 . S
C1021 N1020 1.334 . S
C1021 C1023 1.413 . S
C1021 H1028 0.929 . S
C1022 C1010 1.392 . S
C1022 C1023 1.367 . S
C1022 H1030 0.930 . S
C1023 C1021 1.413 . S
C1023 C1022 1.367 . S
C1023 H1025 0.930 . S
H1024 C1017 0.930 . S
H1025 C1023 0.930 . S
H1026 C1014 0.930 . S
H1027 C1015 0.930 . S
H1028 C1021 0.929 . S
H1029 C1043 0.930 . S
H1030 C1022 0.930 . S
H1031 C1049 0.930 . S
H1032 C1040 0.929 . S
H1033 C1047 0.930 . S
H1034 C1011 0.931 . S
H1035 C1041 0.930 . S
H1036 C1074 0.930 . S
H1037 C1018 0.930 . S
H1038 C1073 0.931 . S
N1039 Eu1008 2.657 . S
N1039 C1040 1.334 . S
N1039 C1044 1.362 . S
C1040 H1032 0.929 . S
C1040 N1039 1.334 . S
C1040 C1043 1.413 . S
C1041 H1035 0.930 . S
C1041 C1042 1.392 . S
C1041 C1043 1.367 . S
C1042 C1041 1.392 . S
C1042 C1044 1.420 . S
C1042 C1074 1.423 . S
C1043 H1029 0.930 . S
C1043 C1040 1.413 . S
C1043 C1041 1.367 . S
C1044 N1039 1.362 . S
C1044 C1042 1.420 . S
C1044 C1048 1.429 . S
H1045 C1050 0.930 . S
N1046 Eu1008 2.609 . S
N1046 C1048 1.377 . S
N1046 C1049 1.321 . S
C1047 H1033 0.930 . S
C1047 C1049 1.400 . S
C1047 C1050 1.386 . S
C1048 C1044 1.429 . S
C1048 N1046 1.377 . S
C1048 C1051 1.411 . S
C1049 H1031 0.930 . S
C1049 N1046 1.321 . S
C1049 C1047 1.400 . S
C1050 H1045 0.930 . S
C1050 C1047 1.386 . S
C1050 C1051 1.395 . S
C1051 C1048 1.411 . S
C1051 C1050 1.395 . S
C1051 C1073 1.420 . S
O1052 Eu1008 2.558 . S
O1052 C1072 1.257 . S
O1053 Eu1008 2.612 . S
O1053 Eu1019 2.380 . S
O1053 C1064 1.276 . S
O1054 Eu1019 2.432 . S
O1054 C1071 1.264 . S
O1055 Eu1008 2.339 . S
O1055 C1071 1.254 . S
O1056 Eu1008 2.563 . S
O1056 C1064 1.235 . S
O1057 Eu1008 2.419 . S
O1057 C1072 1.249 . S
O1058 Eu1019 2.558 . S
O1058 C1083 1.257 . S
O1059 Eu1008 2.380 . S
O1059 Eu1019 2.612 . S
O1059 C1075 1.276 . S
O1060 Eu1008 2.432 . S
O1060 C1082 1.264 . S
O1061 Eu1019 2.339 . S
O1061 C1082 1.254 . S
O1062 Eu1019 2.563 . S
O1062 C1075 1.235 . S
O1063 Eu1019 2.419 . S
O1063 C1083 1.249 . S
C1064 O1053 1.276 . S
C1064 O1056 1.235 . S
C1065 C1067 1.393 . S
C1065 C1069 1.395 . S
C1065 C1072 1.492 . S
C1066 C1067 1.392 . S
C1066 C1068 1.386 . S
C1067 C1065 1.393 . S
C1067 C1066 1.392 . S
C1067 H1084 0.930 . S
C1068 C1066 1.386 . S
C1068 C1070 1.395 . S
C1068 H1085 0.930 . S
C1069 C1065 1.395 . S
C1069 C1070 1.379 . S
C1069 H1086 0.930 . S
C1070 C1068 1.395 . S
C1070 C1069 1.379 . S
C1070 H1087 0.930 . S
C1071 O1054 1.264 . S
C1071 O1055 1.254 . S
C1072 Eu1008 2.848 . S
C1072 O1052 1.257 . S
C1072 O1057 1.249 . S
C1072 C1065 1.492 . S
C1073 H1038 0.931 . S
C1073 C1051 1.420 . S
C1073 C1074 1.351 . S
C1074 H1036 0.930 . S
C1074 C1042 1.423 . S
C1074 C1073 1.351 . S
C1075 O1059 1.276 . S
C1075 O1062 1.235 . S
C1076 C1077 1.393 . S
C1076 C1080 1.395 . S
C1076 C1083 1.492 . S
C1077 C1076 1.393 . S
C1077 C1078 1.392 . S
C1077 H1088 0.930 . S
C1078 C1077 1.392 . S
C1078 C1079 1.386 . S
C1079 C1078 1.386 . S
C1079 C1081 1.395 . S
C1079 H1089 0.930 . S
C1080 C1076 1.395 . S
C1080 C1081 1.379 . S
C1080 H1090 0.930 . S
C1081 C1079 1.395 . S
C1081 C1080 1.379 . S
C1081 H1091 0.930 . S
C1082 O1060 1.264 . S
C1082 O1061 1.254 . S
C1083 Eu1019 2.848 . S
C1083 O1058 1.257 . S
C1083 O1063 1.249 . S
C1083 C1076 1.492 . S
H1084 C1067 0.930 . S
H1085 C1068 0.930 . S
H1086 C1069 0.930 . S
H1087 C1070 0.930 . S
H1088 C1077 0.930 . S
H1089 C1079 0.930 . S
H1090 C1080 0.930 . S
H1091 C1081 0.930 . S
Eu1092 N1123 2.657 . S
Eu1092 N1130 2.609 . S
Eu1092 O1136 2.558 . S
Eu1092 O1137 2.612 1_556 S
Eu1092 O1139 2.339 1_556 S
Eu1092 O1140 2.563 1_556 S
Eu1092 O1141 2.419 . S
Eu1092 O1143 2.380 . S
Eu1092 O1144 2.432 . S
Eu1092 C1156 2.848 . S
C1093 C1096 1.429 . S
C1093 C1097 1.411 . S
C1093 N1100 1.377 . S
C1094 C1096 1.420 . S
C1094 C1098 1.423 . S
C1094 C1106 1.392 . S
C1095 C1097 1.420 . S
C1095 C1098 1.351 . S
C1095 H1118 0.931 . S
C1096 C1093 1.429 . S
C1096 C1094 1.420 . S
C1096 N1104 1.362 . S
C1097 C1093 1.411 . S
C1097 C1095 1.420 . S
C1097 C1102 1.395 . S
C1098 C1094 1.423 . S
C1098 C1095 1.351 . S
C1098 H1110 0.930 . S
C1099 C1101 1.400 . S
C1099 C1102 1.386 . S
C1099 H1111 0.930 . S
N1100 C1093 1.377 . S
N1100 C1101 1.321 . S
N1100 Eu1103 2.609 . S
C1101 C1099 1.400 . S
C1101 N1100 1.321 . S
C1101 H1108 0.930 . S
C1102 C1097 1.395 . S
C1102 C1099 1.386 . S
C1102 H1121 0.930 . S
Eu1103 N1100 2.609 . S
Eu1103 N1104 2.657 . S
Eu1103 O1137 2.380 . S
Eu1103 O1138 2.432 . S
Eu1103 O1142 2.558 . S
Eu1103 O1143 2.612 1_554 S
Eu1103 O1145 2.339 1_554 S
Eu1103 O1146 2.563 1_554 S
Eu1103 O1147 2.419 . S
Eu1103 C1167 2.848 . S
N1104 C1096 1.362 . S
N1104 Eu1103 2.657 . S
N1104 C1105 1.334 . S
C1105 N1104 1.334 . S
C1105 C1107 1.413 . S
C1105 H1112 0.929 . S
C1106 C1094 1.392 . S
C1106 C1107 1.367 . S
C1106 H1114 0.930 . S
C1107 C1105 1.413 . S
C1107 C1106 1.367 . S
C1107 H1109 0.930 . S
H1108 C1101 0.930 . S
H1109 C1107 0.930 . S
H1110 C1098 0.930 . S
H1111 C1099 0.930 . S
H1112 C1105 0.929 . S
H1113 C1127 0.930 . S
H1114 C1106 0.930 . S
H1115 C1133 0.930 . S
H1116 C1124 0.929 . S
H1117 C1131 0.930 . S
H1118 C1095 0.931 . S
H1119 C1125 0.930 . S
H1120 C1158 0.930 . S
H1121 C1102 0.930 . S
H1122 C1157 0.931 . S
N1123 Eu1092 2.657 . S
N1123 C1124 1.334 . S
N1123 C1128 1.362 . S
C1124 H1116 0.929 . S
C1124 N1123 1.334 . S
C1124 C1127 1.413 . S
C1125 H1119 0.930 . S
C1125 C1126 1.392 . S
C1125 C1127 1.367 . S
C1126 C1125 1.392 . S
C1126 C1128 1.420 . S
C1126 C1158 1.423 . S
C1127 H1113 0.930 . S
C1127 C1124 1.413 . S
C1127 C1125 1.367 . S
C1128 N1123 1.362 . S
C1128 C1126 1.420 . S
C1128 C1132 1.429 . S
H1129 C1134 0.930 . S
N1130 Eu1092 2.609 . S
N1130 C1132 1.377 . S
N1130 C1133 1.321 . S
C1131 H1117 0.930 . S
C1131 C1133 1.400 . S
C1131 C1134 1.386 . S
C1132 C1128 1.429 . S
C1132 N1130 1.377 . S
C1132 C1135 1.411 . S
C1133 H1115 0.930 . S
C1133 N1130 1.321 . S
C1133 C1131 1.400 . S
C1134 H1129 0.930 . S
C1134 C1131 1.386 . S
C1134 C1135 1.395 . S
C1135 C1132 1.411 . S
C1135 C1134 1.395 . S
C1135 C1157 1.420 . S
O1136 Eu1092 2.558 . S
O1136 C1156 1.257 . S
O1137 Eu1092 2.612 1_554 S
O1137 Eu1103 2.380 . S
O1137 C1148 1.276 . S
O1138 Eu1103 2.432 . S
O1138 C1155 1.264 . S
O1139 Eu1092 2.339 1_554 S
O1139 C1155 1.254 . S
O1140 Eu1092 2.563 1_554 S
O1140 C1148 1.235 . S
O1141 Eu1092 2.419 . S
O1141 C1156 1.249 . S
O1142 Eu1103 2.558 . S
O1142 C1167 1.257 . S
O1143 Eu1092 2.380 . S
O1143 Eu1103 2.612 1_556 S
O1143 C1159 1.276 . S
O1144 Eu1092 2.432 . S
O1144 C1166 1.264 . S
O1145 Eu1103 2.339 1_556 S
O1145 C1166 1.254 . S
O1146 Eu1103 2.563 1_556 S
O1146 C1159 1.235 . S
O1147 Eu1103 2.419 . S
O1147 C1167 1.249 . S
C1148 O1137 1.276 . S
C1148 O1140 1.235 . S
C1149 C1151 1.393 . S
C1149 C1153 1.395 . S
C1149 C1156 1.492 . S
C1150 C1151 1.392 . S
C1150 C1152 1.386 . S
C1151 C1149 1.393 . S
C1151 C1150 1.392 . S
C1151 H1168 0.930 . S
C1152 C1150 1.386 . S
C1152 C1154 1.395 . S
C1152 H1169 0.930 . S
C1153 C1149 1.395 . S
C1153 C1154 1.379 . S
C1153 H1170 0.930 . S
C1154 C1152 1.395 . S
C1154 C1153 1.379 . S
C1154 H1171 0.930 . S
C1155 O1138 1.264 . S
C1155 O1139 1.254 . S
C1156 Eu1092 2.848 . S
C1156 O1136 1.257 . S
C1156 O1141 1.249 . S
C1156 C1149 1.492 . S
C1157 H1122 0.931 . S
C1157 C1135 1.420 . S
C1157 C1158 1.351 . S
C1158 H1120 0.930 . S
C1158 C1126 1.423 . S
C1158 C1157 1.351 . S
C1159 O1143 1.276 . S
C1159 O1146 1.235 . S
C1160 C1161 1.393 . S
C1160 C1164 1.395 . S
C1160 C1167 1.492 . S
C1161 C1160 1.393 . S
C1161 C1162 1.392 . S
C1161 H1172 0.930 . S
C1162 C1161 1.392 . S
C1162 C1163 1.386 . S
C1163 C1162 1.386 . S
C1163 C1165 1.395 . S
C1163 H1173 0.930 . S
C1164 C1160 1.395 . S
C1164 C1165 1.379 . S
C1164 H1174 0.930 . S
C1165 C1163 1.395 . S
C1165 C1164 1.379 . S
C1165 H1175 0.930 . S
C1166 O1144 1.264 . S
C1166 O1145 1.254 . S
C1167 Eu1103 2.848 . S
C1167 O1142 1.257 . S
C1167 O1147 1.249 . S
C1167 C1160 1.492 . S
H1168 C1151 0.930 . S
H1169 C1152 0.930 . S
H1170 C1153 0.930 . S
H1171 C1154 0.930 . S
H1172 C1161 0.930 . S
H1173 C1163 0.930 . S
H1174 C1164 0.930 . S
H1175 C1165 0.930 . S
Eu1176 N1207 2.657 1_565 S
Eu1176 N1214 2.609 . S
Eu1176 O1220 2.558 . S
Eu1176 O1221 2.612 . S
Eu1176 O1223 2.339 1_565 S
Eu1176 O1224 2.563 . S
Eu1176 O1225 2.419 . S
Eu1176 O1227 2.380 1_565 S
Eu1176 O1228 2.432 . S
Eu1176 C1240 2.848 . S
C1177 C1180 1.429 1_545 S
C1177 C1181 1.411 . S
C1177 N1184 1.377 . S
C1178 C1180 1.420 . S
C1178 C1182 1.423 . S
C1178 C1190 1.392 . S
C1179 C1181 1.420 1_565 S
C1179 C1182 1.351 . S
C1179 H1202 0.931 . S
C1180 C1177 1.429 1_565 S
C1180 C1178 1.420 . S
C1180 N1188 1.362 . S
C1181 C1177 1.411 . S
C1181 C1179 1.420 1_545 S
C1181 C1186 1.395 . S
C1182 C1178 1.423 . S
C1182 C1179 1.351 . S
C1182 H1194 0.930 . S
C1183 C1185 1.400 . S
C1183 C1186 1.386 . S
C1183 H1195 0.930 . S
N1184 C1177 1.377 . S
N1184 C1185 1.321 . S
N1184 Eu1187 2.609 . S
C1185 C1183 1.400 . S
C1185 N1184 1.321 . S
C1185 H1192 0.930 . S
C1186 C1181 1.395 . S
C1186 C1183 1.386 . S
C1186 H1205 0.930 . S
Eu1187 N1184 2.609 . S
Eu1187 N1188 2.657 1_545 S
Eu1187 O1221 2.380 1_545 S
Eu1187 O1222 2.432 . S
Eu1187 O1226 2.558 . S
Eu1187 O1227 2.612 . S
Eu1187 O1229 2.339 1_545 S
Eu1187 O1230 2.563 . S
Eu1187 O1231 2.419 . S
Eu1187 C1251 2.848 . S
N1188 C1180 1.362 . S
N1188 Eu1187 2.657 1_565 S
N1188 C1189 1.334 . S
C1189 N1188 1.334 . S
C1189 C1191 1.413 . S
C1189 H1196 0.929 . S
C1190 C1178 1.392 . S
C1190 C1191 1.367 . S
C1190 H1198 0.930 . S
C1191 C1189 1.413 . S
C1191 C1190 1.367 . S
C1191 H1193 0.930 . S
H1192 C1185 0.930 . S
H1193 C1191 0.930 . S
H1194 C1182 0.930 . S
H1195 C1183 0.930 . S
H1196 C1189 0.929 . S
H1197 C1211 0.930 . S
H1198 C1190 0.930 . S
H1199 C1217 0.930 . S
H1200 C1208 0.929 . S
H1201 C1215 0.930 . S
H1202 C1179 0.931 . S
H1203 C1209 0.930 . S
H1204 C1242 0.930 . S
H1205 C1186 0.930 . S
H1206 C1241 0.931 . S
N1207 Eu1176 2.657 1_545 S
N1207 C1208 1.334 . S
N1207 C1212 1.362 . S
C1208 H1200 0.929 . S
C1208 N1207 1.334 . S
C1208 C1211 1.413 . S
C1209 H1203 0.930 . S
C1209 C1210 1.392 . S
C1209 C1211 1.367 . S
C1210 C1209 1.392 . S
C1210 C1212 1.420 . S
C1210 C1242 1.423 . S
C1211 H1197 0.930 . S
C1211 C1208 1.413 . S
C1211 C1209 1.367 . S
C1212 N1207 1.362 . S
C1212 C1210 1.420 . S
C1212 C1216 1.429 1_545 S
H1213 C1218 0.930 . S
N1214 Eu1176 2.609 . S
N1214 C1216 1.377 . S
N1214 C1217 1.321 . S
C1215 H1201 0.930 . S
C1215 C1217 1.400 . S
C1215 C1218 1.386 . S
C1216 C1212 1.429 1_565 S
C1216 N1214 1.377 . S
C1216 C1219 1.411 . S
C1217 H1199 0.930 . S
C1217 N1214 1.321 . S
C1217 C1215 1.400 . S
C1218 H1213 0.930 . S
C1218 C1215 1.386 . S
C1218 C1219 1.395 . S
C1219 C1216 1.411 . S
C1219 C1218 1.395 . S
C1219 C1241 1.420 1_565 S
O1220 Eu1176 2.558 . S
O1220 C1240 1.257 . S
O1221 Eu1176 2.612 . S
O1221 Eu1187 2.380 1_565 S
O1221 C1232 1.276 . S
O1222 Eu1187 2.432 . S
O1222 C1239 1.264 . S
O1223 Eu1176 2.339 1_545 S
O1223 C1239 1.254 . S
O1224 Eu1176 2.563 . S
O1224 C1232 1.235 . S
O1225 Eu1176 2.419 . S
O1225 C1240 1.249 . S
O1226 Eu1187 2.558 . S
O1226 C1251 1.257 . S
O1227 Eu1176 2.380 1_545 S
O1227 Eu1187 2.612 . S
O1227 C1243 1.276 . S
O1228 Eu1176 2.432 . S
O1228 C1250 1.264 . S
O1229 Eu1187 2.339 1_565 S
O1229 C1250 1.254 . S
O1230 Eu1187 2.563 . S
O1230 C1243 1.235 . S
O1231 Eu1187 2.419 . S
O1231 C1251 1.249 . S
C1232 O1221 1.276 . S
C1232 O1224 1.235 . S
C1233 C1235 1.393 . S
C1233 C1237 1.395 . S
C1233 C1240 1.492 . S
C1234 C1235 1.392 . S
C1234 C1236 1.386 . S
C1235 C1233 1.393 . S
C1235 C1234 1.392 . S
C1235 H1252 0.930 . S
C1236 C1234 1.386 . S
C1236 C1238 1.395 . S
C1236 H1253 0.930 . S
C1237 C1233 1.395 . S
C1237 C1238 1.379 . S
C1237 H1254 0.930 . S
C1238 C1236 1.395 . S
C1238 C1237 1.379 . S
C1238 H1255 0.930 . S
C1239 O1222 1.264 . S
C1239 O1223 1.254 . S
C1240 Eu1176 2.848 . S
C1240 O1220 1.257 . S
C1240 O1225 1.249 . S
C1240 C1233 1.492 . S
C1241 H1206 0.931 . S
C1241 C1219 1.420 1_545 S
C1241 C1242 1.351 . S
C1242 H1204 0.930 . S
C1242 C1210 1.423 . S
C1242 C1241 1.351 . S
C1243 O1227 1.276 . S
C1243 O1230 1.235 . S
C1244 C1245 1.393 . S
C1244 C1248 1.395 . S
C1244 C1251 1.492 . S
C1245 C1244 1.393 . S
C1245 C1246 1.392 . S
C1245 H1256 0.930 . S
C1246 C1245 1.392 . S
C1246 C1247 1.386 . S
C1247 C1246 1.386 . S
C1247 C1249 1.395 . S
C1247 H1257 0.930 . S
C1248 C1244 1.395 . S
C1248 C1249 1.379 . S
C1248 H1258 0.930 . S
C1249 C1247 1.395 . S
C1249 C1248 1.379 . S
C1249 H1259 0.930 . S
C1250 O1228 1.264 . S
C1250 O1229 1.254 . S
C1251 Eu1187 2.848 . S
C1251 O1226 1.257 . S
C1251 O1231 1.249 . S
C1251 C1244 1.492 . S
H1252 C1235 0.930 . S
H1253 C1236 0.930 . S
H1254 C1237 0.930 . S
H1255 C1238 0.930 . S
H1256 C1245 0.930 . S
H1257 C1247 0.930 . S
H1258 C1248 0.930 . S
H1259 C1249 0.930 . S
Eu1260 N1291 2.657 . S
Eu1260 N1298 2.609 . S
Eu1260 O1304 2.558 . S
Eu1260 O1305 2.612 1_554 S
Eu1260 O1307 2.339 1_554 S
Eu1260 O1308 2.563 1_554 S
Eu1260 O1309 2.419 . S
Eu1260 O1311 2.380 . S
Eu1260 O1312 2.432 . S
Eu1260 C1324 2.848 . S
C1261 C1264 1.429 . S
C1261 C1265 1.411 . S
C1261 N1268 1.377 . S
C1262 C1264 1.420 . S
C1262 C1266 1.423 . S
C1262 C1274 1.392 . S
C1263 C1265 1.420 . S
C1263 C1266 1.351 . S
C1263 H1286 0.931 . S
C1264 C1261 1.429 . S
C1264 C1262 1.420 . S
C1264 N1272 1.362 . S
C1265 C1261 1.411 . S
C1265 C1263 1.420 . S
C1265 C1270 1.395 . S
C1266 C1262 1.423 . S
C1266 C1263 1.351 . S
C1266 H1278 0.930 . S
C1267 C1269 1.400 . S
C1267 C1270 1.386 . S
C1267 H1279 0.930 . S
N1268 C1261 1.377 . S
N1268 C1269 1.321 . S
N1268 Eu1271 2.609 . S
C1269 C1267 1.400 . S
C1269 N1268 1.321 . S
C1269 H1276 0.930 . S
C1270 C1265 1.395 . S
C1270 C1267 1.386 . S
C1270 H1289 0.930 . S
Eu1271 N1268 2.609 . S
Eu1271 N1272 2.657 . S
Eu1271 O1305 2.380 . S
Eu1271 O1306 2.432 . S
Eu1271 O1310 2.558 . S
Eu1271 O1311 2.612 1_556 S
Eu1271 O1313 2.339 1_556 S
Eu1271 O1314 2.563 1_556 S
Eu1271 O1315 2.419 . S
Eu1271 C1335 2.848 . S
N1272 C1264 1.362 . S
N1272 Eu1271 2.657 . S
N1272 C1273 1.334 . S
C1273 N1272 1.334 . S
C1273 C1275 1.413 . S
C1273 H1280 0.929 . S
C1274 C1262 1.392 . S
C1274 C1275 1.367 . S
C1274 H1282 0.930 . S
C1275 C1273 1.413 . S
C1275 C1274 1.367 . S
C1275 H1277 0.930 . S
H1276 C1269 0.930 . S
H1277 C1275 0.930 . S
H1278 C1266 0.930 . S
H1279 C1267 0.930 . S
H1280 C1273 0.929 . S
H1281 C1295 0.930 . S
H1282 C1274 0.930 . S
H1283 C1301 0.930 . S
H1284 C1292 0.929 . S
H1285 C1299 0.930 . S
H1286 C1263 0.931 . S
H1287 C1293 0.930 . S
H1288 C1326 0.930 . S
H1289 C1270 0.930 . S
H1290 C1325 0.931 . S
N1291 Eu1260 2.657 . S
N1291 C1292 1.334 . S
N1291 C1296 1.362 . S
C1292 H1284 0.929 . S
C1292 N1291 1.334 . S
C1292 C1295 1.413 . S
C1293 H1287 0.930 . S
C1293 C1294 1.392 . S
C1293 C1295 1.367 . S
C1294 C1293 1.392 . S
C1294 C1296 1.420 . S
C1294 C1326 1.423 . S
C1295 H1281 0.930 . S
C1295 C1292 1.413 . S
C1295 C1293 1.367 . S
C1296 N1291 1.362 . S
C1296 C1294 1.420 . S
C1296 C1300 1.429 . S
H1297 C1302 0.930 . S
N1298 Eu1260 2.609 . S
N1298 C1300 1.377 . S
N1298 C1301 1.321 . S
C1299 H1285 0.930 . S
C1299 C1301 1.400 . S
C1299 C1302 1.386 . S
C1300 C1296 1.429 . S
C1300 N1298 1.377 . S
C1300 C1303 1.411 . S
C1301 H1283 0.930 . S
C1301 N1298 1.321 . S
C1301 C1299 1.400 . S
C1302 H1297 0.930 . S
C1302 C1299 1.386 . S
C1302 C1303 1.395 . S
C1303 C1300 1.411 . S
C1303 C1302 1.395 . S
C1303 C1325 1.420 . S
O1304 Eu1260 2.558 . S
O1304 C1324 1.257 . S
O1305 Eu1260 2.612 1_556 S
O1305 Eu1271 2.380 . S
O1305 C1316 1.276 . S
O1306 Eu1271 2.432 . S
O1306 C1323 1.264 . S
O1307 Eu1260 2.339 1_556 S
O1307 C1323 1.254 . S
O1308 Eu1260 2.563 1_556 S
O1308 C1316 1.235 . S
O1309 Eu1260 2.419 . S
O1309 C1324 1.249 . S
O1310 Eu1271 2.558 . S
O1310 C1335 1.257 . S
O1311 Eu1260 2.380 . S
O1311 Eu1271 2.612 1_554 S
O1311 C1327 1.276 . S
O1312 Eu1260 2.432 . S
O1312 C1334 1.264 . S
O1313 Eu1271 2.339 1_554 S
O1313 C1334 1.254 . S
O1314 Eu1271 2.563 1_554 S
O1314 C1327 1.235 . S
O1315 Eu1271 2.419 . S
O1315 C1335 1.249 . S
C1316 O1305 1.276 . S
C1316 O1308 1.235 . S
C1317 C1319 1.393 . S
C1317 C1321 1.395 . S
C1317 C1324 1.492 . S
C1318 C1319 1.392 . S
C1318 C1320 1.386 . S
C1319 C1317 1.393 . S
C1319 C1318 1.392 . S
C1319 H1336 0.930 . S
C1320 C1318 1.386 . S
C1320 C1322 1.395 . S
C1320 H1337 0.930 . S
C1321 C1317 1.395 . S
C1321 C1322 1.379 . S
C1321 H1338 0.930 . S
C1322 C1320 1.395 . S
C1322 C1321 1.379 . S
C1322 H1339 0.930 . S
C1323 O1306 1.264 . S
C1323 O1307 1.254 . S
C1324 Eu1260 2.848 . S
C1324 O1304 1.257 . S
C1324 O1309 1.249 . S
C1324 C1317 1.492 . S
C1325 H1290 0.931 . S
C1325 C1303 1.420 . S
C1325 C1326 1.351 . S
C1326 H1288 0.930 . S
C1326 C1294 1.423 . S
C1326 C1325 1.351 . S
C1327 O1311 1.276 . S
C1327 O1314 1.235 . S
C1328 C1329 1.393 . S
C1328 C1332 1.395 . S
C1328 C1335 1.492 . S
C1329 C1328 1.393 . S
C1329 C1330 1.392 . S
C1329 H1340 0.930 . S
C1330 C1329 1.392 . S
C1330 C1331 1.386 . S
C1331 C1330 1.386 . S
C1331 C1333 1.395 . S
C1331 H1341 0.930 . S
C1332 C1328 1.395 . S
C1332 C1333 1.379 . S
C1332 H1342 0.930 . S
C1333 C1331 1.395 . S
C1333 C1332 1.379 . S
C1333 H1343 0.930 . S
C1334 O1312 1.264 . S
C1334 O1313 1.254 . S
C1335 Eu1271 2.848 . S
C1335 O1310 1.257 . S
C1335 O1315 1.249 . S
C1335 C1328 1.492 . S
H1336 C1319 0.930 . S
H1337 C1320 0.930 . S
H1338 C1321 0.930 . S
H1339 C1322 0.930 . S
H1340 C1329 0.930 . S
H1341 C1331 0.930 . S
H1342 C1332 0.930 . S
H1343 C1333 0.930 . S
C1344 C1345 1.387 1_455 S
C1344 H1348 0.950 . S
C1344 C1353 1.390 . S
C1345 C1344 1.387 1_655 S
C1345 C1347 1.387 . S
H1346 C1353 0.950 . S
C1347 C1345 1.387 . S
C1347 C1349 1.390 1_655 S
C1347 H1351 0.950 . S
H1348 C1344 0.950 . S
C1349 C1347 1.390 1_455 S
C1349 C1350 1.387 . S
C1349 H1352 0.950 1_455 S
C1350 C1349 1.387 . S
C1350 C1353 1.387 . S
H1351 C1347 0.950 . S
H1352 C1349 0.950 1_655 S
C1353 C1344 1.390 . S
C1353 H1346 0.950 . S
C1353 C1350 1.387 . S
C1354 C1355 1.387 . S
C1354 H1358 0.950 . S
C1354 C1363 1.390 . S
C1355 C1354 1.387 . S
C1355 C1357 1.387 . S
H1356 C1363 0.950 . S
C1357 C1355 1.387 . S
C1357 C1359 1.390 . S
C1357 H1361 0.950 . S
H1358 C1354 0.950 . S
C1359 C1357 1.390 . S
C1359 C1360 1.387 . S
C1359 H1362 0.950 . S
C1360 C1359 1.387 . S
C1360 C1363 1.387 . S
H1361 C1357 0.950 . S
H1362 C1359 0.950 . S
C1363 C1354 1.390 . S
C1363 H1356 0.950 . S
C1363 C1360 1.387 . S
C1364 C1365 1.387 . S
C1364 H1368 0.950 . S
C1364 C1373 1.390 . S
C1365 C1364 1.387 . S
C1365 C1367 1.387 . S
H1366 C1373 0.950 . S
C1367 C1365 1.387 . S
C1367 C1369 1.390 . S
C1367 H1371 0.950 . S
H1368 C1364 0.950 . S
C1369 C1367 1.390 . S
C1369 C1370 1.387 . S
C1369 H1372 0.950 . S
C1370 C1369 1.387 . S
C1370 C1373 1.387 . S
H1371 C1367 0.950 . S
H1372 C1369 0.950 . S
C1373 C1364 1.390 . S
C1373 H1366 0.950 . S
C1373 C1370 1.387 . S
C1374 C1375 1.387 1_565 S
C1374 H1378 0.977 . S
C1374 C1383 1.390 . S
C1375 C1374 1.387 1_545 S
C1375 C1377 1.387 . S
H1376 C1383 0.950 . S
C1377 C1375 1.387 . S
C1377 C1379 1.390 1_545 S
C1377 H1381 0.950 . S
H1378 C1374 0.977 . S
C1379 C1377 1.390 1_565 S
C1379 C1380 1.387 . S
C1379 H1382 0.955 1_565 S
C1380 C1379 1.387 . S
C1380 C1383 1.387 . S
H1381 C1377 0.950 . S
H1382 C1379 0.955 1_545 S
C1383 C1374 1.390 . S
C1383 H1376 0.950 . S
C1383 C1380 1.387 . S
C1384 C1385 1.387 . S
C1384 H1388 0.950 . S
C1384 C1393 1.390 . S
C1385 C1384 1.387 . S
C1385 C1387 1.387 1_565 S
H1386 C1393 0.950 . S
C1387 C1385 1.387 1_545 S
C1387 C1389 1.390 . S
C1387 H1391 0.950 . S
H1388 C1384 0.950 . S
C1389 C1387 1.390 . S
C1389 C1390 1.387 . S
C1389 H1392 0.950 . S
C1390 C1389 1.387 . S
C1390 C1393 1.387 1_545 S
H1391 C1387 0.950 . S
H1392 C1389 0.950 . S
C1393 C1384 1.390 . S
C1393 H1386 0.950 . S
C1393 C1390 1.387 1_565 S
C1394 C1395 1.387 1_655 S
C1394 H1398 0.950 . S
C1394 C1403 1.390 . S
C1395 C1394 1.387 1_455 S
C1395 C1397 1.387 . S
H1396 C1403 0.950 . S
C1397 C1395 1.387 . S
C1397 C1399 1.390 1_455 S
C1397 H1401 0.950 . S
H1398 C1394 0.950 . S
C1399 C1397 1.390 1_655 S
C1399 C1400 1.387 . S
C1399 H1402 0.950 . S
C1400 C1399 1.387 . S
C1400 C1403 1.387 . S
H1401 C1397 0.950 . S
H1402 C1399 0.950 . S
C1403 C1394 1.390 . S
C1403 H1396 0.950 . S
C1403 C1400 1.387 . S
C1404 C1405 1.387 . S
C1404 H1408 0.950 . S
C1404 C1413 1.390 . S
C1405 C1404 1.387 . S
C1405 C1407 1.387 . S
H1406 C1413 0.950 . S
C1407 C1405 1.387 . S
C1407 C1409 1.390 . S
C1407 H1411 0.950 . S
H1408 C1404 0.950 . S
C1409 C1407 1.390 . S
C1409 C1410 1.387 . S
C1409 H1412 0.950 . S
C1410 C1409 1.387 . S
C1410 C1413 1.387 . S
H1411 C1407 0.950 . S
H1412 C1409 0.950 . S
C1413 C1404 1.390 . S
C1413 H1406 0.950 . S
C1413 C1410 1.387 . S
C1414 C1415 1.387 . S
C1414 H1418 0.950 . S
C1414 C1423 1.390 . S
C1415 C1414 1.387 . S
C1415 C1417 1.387 . S
H1416 C1423 0.950 . S
C1417 C1415 1.387 . S
C1417 C1419 1.390 . S
C1417 H1421 0.950 . S
H1418 C1414 0.950 . S
C1419 C1417 1.390 . S
C1419 C1420 1.387 . S
C1419 H1422 0.950 . S
C1420 C1419 1.387 . S
C1420 C1423 1.387 . S
H1421 C1417 0.950 . S
H1422 C1419 0.950 . S
C1423 C1414 1.390 . S
C1423 H1416 0.950 . S
C1423 C1420 1.387 . S
C1424 C1425 1.387 . S
C1424 H1428 0.950 . S
C1424 C1433 1.390 . S
C1425 C1424 1.387 . S
C1425 C1427 1.387 . S
H1426 C1433 0.950 . S
C1427 C1425 1.387 . S
C1427 C1429 1.390 . S
C1427 H1431 0.950 . S
H1428 C1424 0.950 . S
C1429 C1427 1.390 . S
C1429 C1430 1.387 . S
C1429 H1432 0.950 . S
C1430 C1429 1.387 . S
C1430 C1433 1.387 . S
H1431 C1427 0.950 . S
H1432 C1429 0.950 . S
C1433 C1424 1.390 . S
C1433 H1426 0.950 . S
C1433 C1430 1.387 . S
C1434 C1435 1.387 . S
C1434 H1438 0.950 . S
C1434 C1443 1.390 . S
C1435 C1434 1.387 . S
C1435 C1437 1.387 . S
H1436 C1443 0.950 . S
C1437 C1435 1.387 . S
C1437 C1439 1.390 . S
C1437 H1441 0.950 . S
H1438 C1434 0.950 . S
C1439 C1437 1.390 . S
C1439 C1440 1.387 . S
C1439 H1442 0.950 . S
C1440 C1439 1.387 . S
C1440 C1443 1.387 . S
H1441 C1437 0.950 . S
H1442 C1439 0.950 . S
C1443 C1434 1.390 . S
C1443 H1436 0.950 . S
C1443 C1440 1.387 . S
C1444 C1445 1.387 . S
C1444 H1448 0.950 . S
C1444 C1453 1.390 1_565 S
C1445 C1444 1.387 . S
C1445 C1447 1.387 1_565 S
H1446 C1453 0.950 1_565 S
C1447 C1445 1.387 1_545 S
C1447 C1449 1.390 . S
C1447 H1451 0.950 . S
H1448 C1444 0.950 . S
C1449 C1447 1.390 . S
C1449 C1450 1.387 . S
C1449 H1452 0.950 . S
C1450 C1449 1.387 . S
C1450 C1453 1.387 . S
H1451 C1447 0.950 . S
H1452 C1449 0.950 . S
C1453 C1444 1.390 1_545 S
C1453 H1446 0.950 1_545 S
C1453 C1450 1.387 . S
C1454 C1455 1.373 1_655 S
C1454 H1458 0.938 1_655 S
C1454 C1463 1.417 . S
C1455 C1454 1.373 1_455 S
C1455 C1457 1.387 1_455 S
H1456 C1463 0.950 . S
C1457 C1455 1.387 1_655 S
C1457 C1459 1.390 . S
C1457 H1461 0.950 1_656 S
H1458 C1454 0.938 1_455 S
C1459 C1457 1.390 . S
C1459 C1460 1.387 . S
C1459 H1462 0.950 . S
C1460 C1459 1.387 . S
C1460 C1463 1.387 . S
H1461 C1457 0.950 1_454 S
H1462 C1459 0.950 . S
C1463 C1454 1.417 . S
C1463 H1456 0.950 . S
C1463 C1460 1.387 . S
C1464 C1465 1.387 . S
C1464 H1468 0.950 . S
C1464 C1473 1.390 . S
C1465 C1464 1.387 . S
C1465 C1467 1.387 . S
H1466 C1473 0.950 . S
C1467 C1465 1.387 . S
C1467 C1469 1.390 1_556 S
C1467 H1471 0.950 . S
H1468 C1464 0.950 . S
C1469 C1467 1.390 1_554 S
C1469 C1470 1.387 1_554 S
C1469 H1472 0.950 . S
C1470 C1469 1.387 1_556 S
C1470 C1473 1.387 . S
H1471 C1467 0.950 . S
H1472 C1469 0.950 . S
C1473 C1464 1.390 . S
C1473 H1466 0.950 . S
C1473 C1470 1.387 . S
C1474 C1475 1.387 . S
C1474 H1478 0.950 . S
C1474 C1483 1.390 . S
C1475 C1474 1.387 . S
C1475 C1477 1.387 . S
H1476 C1483 0.950 . S
C1477 C1475 1.387 . S
C1477 C1479 1.390 . S
C1477 H1481 0.950 . S
H1478 C1474 0.950 . S
C1479 C1477 1.390 . S
C1479 C1480 1.387 . S
C1479 H1482 0.950 . S
C1480 C1479 1.387 . S
C1480 C1483 1.387 . S
H1481 C1477 0.950 . S
H1482 C1479 0.950 . S
C1483 C1474 1.390 . S
C1483 H1476 0.950 . S
C1483 C1480 1.387 . S
C1484 C1485 1.387 . S
C1484 H1488 0.950 . S
C1484 C1493 1.390 . S
C1485 C1484 1.387 . S
C1485 C1487 1.387 . S
H1486 C1493 0.950 . S
C1487 C1485 1.387 . S
C1487 C1489 1.390 . S
C1487 H1491 0.950 . S
H1488 C1484 0.950 . S
C1489 C1487 1.390 . S
C1489 C1490 1.387 . S
C1489 H1492 0.950 . S
C1490 C1489 1.387 . S
C1490 C1493 1.387 . S
H1491 C1487 0.950 . S
H1492 C1489 0.950 . S
C1493 C1484 1.390 . S
C1493 H1486 0.950 . S
C1493 C1490 1.387 . S
C1494 C1495 1.387 . S
C1494 H1498 0.950 . S
C1494 C1503 1.390 . S
C1495 C1494 1.387 . S
C1495 C1497 1.387 . S
H1496 C1503 0.950 . S
C1497 C1495 1.387 . S
C1497 C1499 1.390 . S
C1497 H1501 0.950 . S
H1498 C1494 0.950 . S
C1499 C1497 1.390 . S
C1499 C1500 1.387 . S
C1499 H1502 0.950 . S
C1500 C1499 1.387 . S
C1500 C1503 1.387 . S
H1501 C1497 0.950 . S
H1502 C1499 0.950 . S
C1503 C1494 1.390 . S
C1503 H1496 0.950 . S
C1503 C1500 1.387 . S
C1504 C1505 1.387 . S
C1504 H1508 0.950 . S
C1504 C1513 1.390 . S
C1505 C1504 1.387 . S
C1505 C1507 1.387 . S
H1506 C1513 0.950 . S
C1507 C1505 1.387 . S
C1507 C1509 1.390 . S
C1507 H1511 0.950 . S
H1508 C1504 0.950 . S
C1509 C1507 1.390 . S
C1509 C1510 1.387 . S
C1509 H1512 0.950 . S
C1510 C1509 1.387 . S
C1510 C1513 1.387 . S
H1511 C1507 0.950 . S
H1512 C1509 0.950 . S
C1513 C1504 1.390 . S
C1513 H1506 0.950 . S
C1513 C1510 1.387 . S
C1514 C1515 1.387 . S
C1514 H1518 0.950 . S
C1514 C1523 1.390 . S
C1515 C1514 1.387 . S
C1515 C1517 1.387 . S
H1516 C1523 0.950 . S
C1517 C1515 1.387 . S
C1517 C1519 1.390 . S
C1517 H1521 0.950 . S
H1518 C1514 0.950 . S
C1519 C1517 1.390 . S
C1519 C1520 1.387 . S
C1519 H1522 0.950 . S
C1520 C1519 1.387 . S
C1520 C1523 1.387 . S
H1521 C1517 0.950 . S
H1522 C1519 0.950 . S
C1523 C1514 1.390 . S
C1523 H1516 0.950 . S
C1523 C1520 1.387 . S
C1524 C1525 1.387 . S
C1524 H1528 0.950 . S
C1524 C1533 1.390 . S
C1525 C1524 1.387 . S
C1525 C1527 1.387 . S
H1526 C1533 0.950 . S
C1527 C1525 1.387 . S
C1527 C1529 1.390 . S
C1527 H1531 0.950 . S
H1528 C1524 0.950 . S
C1529 C1527 1.390 . S
C1529 C1530 1.387 . S
C1529 H1532 0.950 . S
C1530 C1529 1.387 . S
C1530 C1533 1.387 . S
H1531 C1527 0.950 . S
H1532 C1529 0.950 . S
C1533 C1524 1.390 . S
C1533 H1526 0.950 . S
C1533 C1530 1.387 . S
C1534 C1535 1.387 . S
C1534 H1538 0.950 . S
C1534 C1543 1.390 . S
C1535 C1534 1.387 . S
C1535 C1537 1.387 . S
H1536 C1543 0.950 . S
C1537 C1535 1.387 . S
C1537 C1539 1.390 . S
C1537 H1541 0.950 . S
H1538 C1534 0.950 . S
C1539 C1537 1.390 . S
C1539 C1540 1.387 . S
C1539 H1542 0.950 . S
C1540 C1539 1.387 . S
C1540 C1543 1.387 . S
H1541 C1537 0.950 . S
H1542 C1539 0.950 . S
C1543 C1534 1.390 . S
C1543 H1536 0.950 . S
C1543 C1540 1.387 . S
C1544 C1545 1.387 . S
C1544 H1548 0.950 . S
C1544 C1553 1.390 . S
C1545 C1544 1.387 . S
C1545 C1547 1.387 . S
H1546 C1553 0.950 . S
C1547 C1545 1.387 . S
C1547 C1549 1.390 . S
C1547 H1551 0.950 . S
H1548 C1544 0.950 . S
C1549 C1547 1.390 . S
C1549 C1550 1.387 . S
C1549 H1552 0.950 . S
C1550 C1549 1.387 . S
C1550 C1553 1.387 . S
H1551 C1547 0.950 . S
H1552 C1549 0.950 . S
C1553 C1544 1.390 . S
C1553 H1546 0.950 . S
C1553 C1550 1.387 . S
C1554 C1555 1.387 . S
C1554 H1558 0.950 . S
C1554 C1563 1.390 . S
C1555 C1554 1.387 . S
C1555 C1557 1.387 1_455 S
H1556 C1563 0.950 . S
C1557 C1555 1.387 1_655 S
C1557 C1559 1.390 . S
C1557 H1561 0.950 . S
H1558 C1554 0.950 . S
C1559 C1557 1.390 . S
C1559 C1560 1.387 . S
C1559 H1562 0.950 . S
C1560 C1559 1.387 . S
C1560 C1563 1.387 1_655 S
H1561 C1557 0.950 . S
H1562 C1559 0.950 . S
C1563 C1554 1.390 . S
C1563 H1556 0.950 . S
C1563 C1560 1.387 1_455 S
C1564 C1565 1.387 . S
C1564 H1568 0.950 . S
C1564 C1573 1.390 . S
C1565 C1564 1.387 . S
C1565 C1567 1.387 . S
H1566 C1573 0.950 . S
C1567 C1565 1.387 . S
C1567 C1569 1.390 . S
C1567 H1571 0.950 . S
H1568 C1564 0.950 . S
C1569 C1567 1.390 . S
C1569 C1570 1.387 . S
C1569 H1572 0.950 . S
C1570 C1569 1.387 . S
C1570 C1573 1.387 . S
H1571 C1567 0.950 . S
H1572 C1569 0.950 . S
C1573 C1564 1.390 . S
C1573 H1566 0.950 . S
C1573 C1570 1.387 . S
C1574 C1575 1.387 . S
C1574 H1578 0.950 . S
C1574 C1583 1.390 . S
C1575 C1574 1.387 . S
C1575 C1577 1.387 . S
H1576 C1583 0.950 . S
C1577 C1575 1.387 . S
C1577 C1579 1.390 . S
C1577 H1581 0.950 . S
H1578 C1574 0.950 . S
C1579 C1577 1.390 . S
C1579 C1580 1.387 . S
C1579 H1582 0.950 . S
C1580 C1579 1.387 . S
C1580 C1583 1.387 . S
H1581 C1577 0.950 . S
H1582 C1579 0.950 . S
C1583 C1574 1.390 . S
C1583 H1576 0.950 . S
C1583 C1580 1.387 . S
C1584 C1585 1.387 . S
C1584 H1588 0.950 . S
C1584 C1593 1.390 . S
C1585 C1584 1.387 . S
C1585 C1587 1.387 . S
H1586 C1593 0.950 . S
C1587 C1585 1.387 . S
C1587 C1589 1.390 . S
C1587 H1591 0.950 . S
H1588 C1584 0.950 . S
C1589 C1587 1.390 . S
C1589 C1590 1.387 . S
C1589 H1592 0.950 . S
C1590 C1589 1.387 . S
C1590 C1593 1.387 . S
H1591 C1587 0.950 . S
H1592 C1589 0.950 . S
C1593 C1584 1.390 . S
C1593 H1586 0.950 . S
C1593 C1590 1.387 . S
C1594 C1595 1.387 . S
C1594 H1598 0.950 . S
C1594 C1603 1.390 . S
C1595 C1594 1.387 . S
C1595 C1597 1.387 . S
H1596 C1603 0.950 . S
C1597 C1595 1.387 . S
C1597 C1599 1.390 . S
C1597 H1601 0.950 . S
H1598 C1594 0.950 . S
C1599 C1597 1.390 . S
C1599 C1600 1.387 . S
C1599 H1602 0.950 . S
C1600 C1599 1.387 . S
C1600 C1603 1.387 . S
H1601 C1597 0.950 . S
H1602 C1599 0.950 . S
C1603 C1594 1.390 . S
C1603 H1596 0.950 . S
C1603 C1600 1.387 . S
C1604 C1605 1.387 . S
C1604 H1608 0.950 . S
C1604 C1613 1.390 . S
C1605 C1604 1.387 . S
C1605 C1607 1.387 . S
H1606 C1613 0.950 . S
C1607 C1605 1.387 . S
C1607 C1609 1.390 1_565 S
C1607 H1611 0.950 . S
H1608 C1604 0.950 . S
C1609 C1607 1.390 1_545 S
C1609 C1610 1.387 . S
C1609 H1612 0.950 . S
C1610 C1609 1.387 . S
C1610 C1613 1.387 1_545 S
H1611 C1607 0.950 . S
H1612 C1609 0.950 . S
C1613 C1604 1.390 . S
C1613 H1606 0.950 . S
C1613 C1610 1.387 1_565 S
C1614 C1615 1.387 . S
C1614 H1618 0.950 1_554 S
C1614 C1623 1.390 . S
C1615 C1614 1.387 . S
C1615 C1617 1.387 . S
H1616 C1623 0.950 . S
C1617 C1615 1.387 . S
C1617 C1619 1.390 . S
C1617 H1621 0.950 . S
H1618 C1614 0.950 1_556 S
C1619 C1617 1.390 . S
C1619 C1620 1.387 . S
C1619 H1622 0.950 . S
C1620 C1619 1.387 . S
C1620 C1623 1.387 . S
H1621 C1617 0.950 . S
H1622 C1619 0.950 . S
C1623 C1614 1.390 . S
C1623 H1616 0.950 . S
C1623 C1620 1.387 . S
C1624 C1625 1.387 . S
C1624 H1628 0.950 . S
C1624 C1633 1.390 . S
C1625 C1624 1.387 . S
C1625 C1627 1.387 . S
H1626 C1633 0.950 . S
C1627 C1625 1.387 . S
C1627 C1629 1.390 . S
C1627 H1631 0.950 . S
H1628 C1624 0.950 . S
C1629 C1627 1.390 . S
C1629 C1630 1.387 . S
C1629 H1632 0.950 . S
C1630 C1629 1.387 . S
C1630 C1633 1.387 . S
H1631 C1627 0.950 . S
H1632 C1629 0.950 . S
C1633 C1624 1.390 . S
C1633 H1626 0.950 . S
C1633 C1630 1.387 . S
C1634 C1635 1.387 . S
C1634 H1638 0.950 . S
C1634 C1643 1.390 . S
C1635 C1634 1.387 . S
C1635 C1637 1.387 . S
H1636 C1643 0.950 . S
C1637 C1635 1.387 . S
C1637 C1639 1.390 . S
C1637 H1641 0.950 . S
H1638 C1634 0.950 . S
C1639 C1637 1.390 . S
C1639 C1640 1.387 . S
C1639 H1642 0.950 . S
C1640 C1639 1.387 . S
C1640 C1643 1.387 . S
H1641 C1637 0.950 . S
H1642 C1639 0.950 . S
C1643 C1634 1.390 . S
C1643 H1636 0.950 . S
C1643 C1640 1.387 . S
C1644 C1645 1.387 . S
C1644 H1648 0.950 . S
C1644 C1653 1.390 . S
C1645 C1644 1.387 . S
C1645 C1647 1.387 . S
H1646 C1653 0.950 . S
C1647 C1645 1.387 . S
C1647 C1649 1.390 . S
C1647 H1651 0.950 . S
H1648 C1644 0.950 . S
C1649 C1647 1.390 . S
C1649 C1650 1.387 . S
C1649 H1652 0.950 . S
C1650 C1649 1.387 . S
C1650 C1653 1.387 . S
H1651 C1647 0.950 . S
H1652 C1649 0.950 . S
C1653 C1644 1.390 . S
C1653 H1646 0.950 . S
C1653 C1650 1.387 . S
C1654 C1655 1.387 . S
C1654 H1658 0.950 . S
C1654 C1663 1.390 . S
C1655 C1654 1.387 . S
C1655 C1657 1.387 . S
H1656 C1663 0.950 . S
C1657 C1655 1.387 . S
C1657 C1659 1.390 . S
C1657 H1661 0.950 . S
H1658 C1654 0.950 . S
C1659 C1657 1.390 . S
C1659 C1660 1.387 . S
C1659 H1662 0.950 . S
C1660 C1659 1.387 . S
C1660 C1663 1.387 . S
H1661 C1657 0.950 . S
H1662 C1659 0.950 . S
C1663 C1654 1.390 . S
C1663 H1656 0.950 . S
C1663 C1660 1.387 . S
C1664 C1665 1.387 . S
C1664 H1668 0.950 . S
C1664 C1673 1.390 . S
C1665 C1664 1.387 . S
C1665 C1667 1.387 . S
H1666 C1673 0.950 . S
C1667 C1665 1.387 . S
C1667 C1669 1.390 . S
C1667 H1671 0.950 . S
H1668 C1664 0.950 . S
C1669 C1667 1.390 . S
C1669 C1670 1.387 . S
C1669 H1672 0.950 . S
C1670 C1669 1.387 . S
C1670 C1673 1.387 . S
H1671 C1667 0.950 . S
H1672 C1669 0.950 . S
C1673 C1664 1.390 . S
C1673 H1666 0.950 . S
C1673 C1670 1.387 . S
C1674 C1675 1.387 . S
C1674 H1678 0.950 . S
C1674 C1683 1.390 . S
C1675 C1674 1.387 . S
C1675 C1677 1.387 . S
H1676 C1683 0.950 . S
C1677 C1675 1.387 . S
C1677 C1679 1.390 . S
C1677 H1681 0.950 . S
H1678 C1674 0.950 . S
C1679 C1677 1.390 . S
C1679 C1680 1.387 . S
C1679 H1682 0.950 . S
C1680 C1679 1.387 . S
C1680 C1683 1.387 . S
H1681 C1677 0.950 . S
H1682 C1679 0.950 . S
C1683 C1674 1.390 . S
C1683 H1676 0.950 . S
C1683 C1680 1.387 . S
C1684 C1685 1.387 . S
C1684 H1688 0.950 . S
C1684 C1693 1.390 . S
C1685 C1684 1.387 . S
C1685 C1687 1.387 . S
H1686 C1693 0.950 . S
C1687 C1685 1.387 . S
C1687 C1689 1.390 . S
C1687 H1691 0.950 . S
H1688 C1684 0.950 . S
C1689 C1687 1.390 . S
C1689 C1690 1.387 . S
C1689 H1692 0.950 . S
C1690 C1689 1.387 . S
C1690 C1693 1.387 . S
H1691 C1687 0.950 . S
H1692 C1689 0.950 . S
C1693 C1684 1.390 . S
C1693 H1686 0.950 . S
C1693 C1690 1.387 . S
C1694 C1695 1.387 . S
C1694 H1698 0.950 . S
C1694 C1703 1.390 . S
C1695 C1694 1.387 . S
C1695 C1697 1.387 . S
H1696 C1703 0.950 . S
C1697 C1695 1.387 . S
C1697 C1699 1.390 . S
C1697 H1701 0.950 . S
H1698 C1694 0.950 . S
C1699 C1697 1.390 . S
C1699 C1700 1.387 . S
C1699 H1702 0.950 . S
C1700 C1699 1.387 . S
C1700 C1703 1.387 . S
H1701 C1697 0.950 . S
H1702 C1699 0.950 . S
C1703 C1694 1.390 . S
C1703 H1696 0.950 . S
C1703 C1700 1.387 . S
C1704 C1705 1.387 . S
C1704 H1708 0.950 . S
C1704 C1713 1.390 . S
C1705 C1704 1.387 . S
C1705 C1707 1.387 . S
H1706 C1713 0.950 1_556 S
C1707 C1705 1.387 . S
C1707 C1709 1.390 . S
C1707 H1711 0.950 . S
H1708 C1704 0.950 . S
C1709 C1707 1.390 . S
C1709 C1710 1.387 . S
C1709 H1712 0.950 . S
C1710 C1709 1.387 . S
C1710 C1713 1.387 . S
H1711 C1707 0.950 . S
H1712 C1709 0.950 . S
C1713 C1704 1.390 . S
C1713 H1706 0.950 1_554 S
C1713 C1710 1.387 . S
C1714 C1715 1.387 . S
C1714 H1718 0.950 . S
C1714 C1723 1.390 . S
C1715 C1714 1.387 . S
C1715 C1717 1.387 . S
H1716 C1723 0.950 . S
C1717 C1715 1.387 . S
C1717 C1719 1.390 . S
C1717 H1721 0.950 . S
H1718 C1714 0.950 . S
C1719 C1717 1.390 . S
C1719 C1720 1.387 . S
C1719 H1722 0.950 1_554 S
C1720 C1719 1.387 . S
C1720 C1723 1.387 . S
H1721 C1717 0.950 . S
H1722 C1719 0.950 1_556 S
C1723 C1714 1.390 . S
C1723 H1716 0.950 . S
C1723 C1720 1.387 . S
C1724 C1725 1.387 . S
C1724 H1728 0.950 . S
C1724 C1733 1.390 . S
C1725 C1724 1.387 . S
C1725 C1727 1.387 . S
H1726 C1733 0.950 . S
C1727 C1725 1.387 . S
C1727 C1729 1.390 . S
C1727 H1731 0.950 . S
H1728 C1724 0.950 . S
C1729 C1727 1.390 . S
C1729 C1730 1.387 . S
C1729 H1732 0.950 . S
C1730 C1729 1.387 . S
C1730 C1733 1.387 . S
H1731 C1727 0.950 . S
H1732 C1729 0.950 . S
C1733 C1724 1.390 . S
C1733 H1726 0.950 . S
C1733 C1730 1.387 . S
C1734 C1735 1.387 . S
C1734 H1738 0.950 . S
C1734 C1743 1.390 . S
C1735 C1734 1.387 . S
C1735 C1737 1.387 . S
H1736 C1743 0.950 . S
C1737 C1735 1.387 . S
C1737 C1739 1.390 . S
C1737 H1741 0.950 . S
H1738 C1734 0.950 . S
C1739 C1737 1.390 . S
C1739 C1740 1.387 . S
C1739 H1742 0.950 . S
C1740 C1739 1.387 . S
C1740 C1743 1.387 . S
H1741 C1737 0.950 . S
H1742 C1739 0.950 . S
C1743 C1734 1.390 . S
C1743 H1736 0.950 . S
C1743 C1740 1.387 . S
C1744 C1745 1.387 . S
C1744 H1748 0.950 . S
C1744 C1753 1.390 . S
C1745 C1744 1.387 . S
C1745 C1747 1.387 . S
H1746 C1753 0.950 . S
C1747 C1745 1.387 . S
C1747 C1749 1.390 . S
C1747 H1751 0.950 . S
H1748 C1744 0.950 . S
C1749 C1747 1.390 . S
C1749 C1750 1.387 . S
C1749 H1752 0.950 . S
C1750 C1749 1.387 . S
C1750 C1753 1.387 . S
H1751 C1747 0.950 . S
H1752 C1749 0.950 . S
C1753 C1744 1.390 . S
C1753 H1746 0.950 . S
C1753 C1750 1.387 . S
C1754 C1755 1.387 . S
C1754 H1758 0.950 1_556 S
C1754 C1763 1.390 . S
C1755 C1754 1.387 . S
C1755 C1757 1.387 . S
H1756 C1763 0.950 . S
C1757 C1755 1.387 . S
C1757 C1759 1.390 . S
C1757 H1761 0.950 . S
H1758 C1754 0.950 1_554 S
C1759 C1757 1.390 . S
C1759 C1760 1.387 . S
C1759 H1762 0.950 . S
C1760 C1759 1.387 . S
C1760 C1763 1.387 . S
H1761 C1757 0.950 . S
H1762 C1759 0.950 . S
C1763 C1754 1.390 . S
C1763 H1756 0.950 . S
C1763 C1760 1.387 . S
C1764 C1765 1.387 . S
C1764 H1768 0.950 . S
C1764 C1773 1.390 . S
C1765 C1764 1.387 . S
C1765 C1767 1.387 1_556 S
H1766 C1773 0.950 . S
C1767 C1765 1.387 1_554 S
C1767 C1769 1.390 1_554 S
C1767 H1771 0.950 . S
H1768 C1764 0.950 . S
C1769 C1767 1.390 1_556 S
C1769 C1770 1.387 . S
C1769 H1772 0.950 . S
C1770 C1769 1.387 . S
C1770 C1773 1.387 . S
H1771 C1767 0.950 . S
H1772 C1769 0.950 . S
C1773 C1764 1.390 . S
C1773 H1766 0.950 . S
C1773 C1770 1.387 . S
C1774 C1775 1.387 . S
C1774 H1778 0.950 . S
C1774 C1783 1.390 . S
C1775 C1774 1.387 . S
C1775 C1777 1.387 . S
H1776 C1783 0.950 . S
C1777 C1775 1.387 . S
C1777 C1779 1.390 . S
C1777 H1781 0.950 . S
H1778 C1774 0.950 . S
C1779 C1777 1.390 . S
C1779 C1780 1.387 . S
C1779 H1782 0.950 . S
C1780 C1779 1.387 . S
C1780 C1783 1.387 . S
H1781 C1777 0.950 . S
H1782 C1779 0.950 . S
C1783 C1774 1.390 . S
C1783 H1776 0.950 . S
C1783 C1780 1.387 . S
C1784 C1785 1.387 . S
C1784 H1788 0.950 . S
C1784 C1793 1.390 . S
C1785 C1784 1.387 . S
C1785 C1787 1.387 . S
H1786 C1793 0.950 . S
C1787 C1785 1.387 . S
C1787 C1789 1.390 . S
C1787 H1791 0.950 . S
H1788 C1784 0.950 . S
C1789 C1787 1.390 . S
C1789 C1790 1.387 . S
C1789 H1792 0.950 . S
C1790 C1789 1.387 . S
C1790 C1793 1.387 . S
H1791 C1787 0.950 . S
H1792 C1789 0.950 . S
C1793 C1784 1.390 . S
C1793 H1786 0.950 . S
C1793 C1790 1.387 . S
C1794 C1795 1.387 . S
C1794 H1798 0.950 . S
C1794 C1803 1.390 . S
C1795 C1794 1.387 . S
C1795 C1797 1.387 . S
H1796 C1803 0.950 . S
C1797 C1795 1.387 . S
C1797 C1799 1.390 . S
C1797 H1801 0.950 . S
H1798 C1794 0.950 . S
C1799 C1797 1.390 . S
C1799 C1800 1.387 . S
C1799 H1802 0.950 1_556 S
C1800 C1799 1.387 . S
C1800 C1803 1.387 . S
H1801 C1797 0.950 . S
H1802 C1799 0.950 1_554 S
C1803 C1794 1.390 . S
C1803 H1796 0.950 . S
C1803 C1800 1.387 . S
C1804 C1805 1.387 . S
C1804 H1808 0.950 . S
C1804 C1813 1.390 . S
C1805 C1804 1.387 . S
C1805 C1807 1.387 . S
H1806 C1813 0.950 . S
C1807 C1805 1.387 . S
C1807 C1809 1.390 . S
C1807 H1811 0.950 . S
H1808 C1804 0.950 . S
C1809 C1807 1.390 . S
C1809 C1810 1.387 . S
C1809 H1812 0.950 . S
C1810 C1809 1.387 . S
C1810 C1813 1.387 . S
H1811 C1807 0.950 . S
H1812 C1809 0.950 . S
C1813 C1804 1.390 . S
C1813 H1806 0.950 . S
C1813 C1810 1.387 . S
C1814 C1815 1.387 . S
C1814 H1818 0.950 1_554 S
C1814 C1823 1.390 . S
C1815 C1814 1.387 . S
C1815 C1817 1.387 . S
H1816 C1823 0.950 . S
C1817 C1815 1.387 . S
C1817 C1819 1.390 . S
C1817 H1821 0.950 . S
H1818 C1814 0.950 1_556 S
C1819 C1817 1.390 . S
C1819 C1820 1.387 . S
C1819 H1822 0.950 . S
C1820 C1819 1.387 . S
C1820 C1823 1.387 . S
H1821 C1817 0.950 . S
H1822 C1819 0.950 . S
C1823 C1814 1.390 . S
C1823 H1816 0.950 . S
C1823 C1820 1.387 . S
C1345 C67 1.481 . S
C1350 C154 1.279 . S
C1355 C235 2.039 . S
C1360 C140 2.162 . S
C1365 C308 2.162 . S
C1370 C231 2.151 . S
C1375 C63 1.722 . S
C1380 C322 1.260 . S
C1385 C74 1.724 . S
C1390 C814 1.262 . S
C1395 C644 1.478 . S
C1400 C142 1.279 . S
C1405 C224 2.039 . S
C1410 C907 2.162 . S
C1415 C319 2.162 . S
C1420 C1166 2.151 . S
C1425 C728 2.041 . S
C1430 C151 2.161 . S
C1435 C1075 2.161 . S
C1440 C242 2.151 . S
C1445 C1250 1.723 . S
C1450 C310 1.261 . S
C1455 C56 1.475 . S
C1460 C982 1.272 . S
C1465 C70 0.559 . S
C1470 C730 0.765 . S
C1475 C1071 1.994 . S
C1480 C410 1.991 . S
C1485 C490 0.767 . S
C1490 C1234 0.554 . S
C1495 C998 1.992 . S
C1500 C567 1.995 . S
C1505 C238 0.767 . S
C1510 C646 0.554 . S
C1515 C830 1.995 . S
C1520 C399 1.992 . S
C1525 C578 1.995 . S
C1530 C903 1.992 . S
C1535 C476 2.041 . S
C1540 C991 2.161 . S
C1545 C823 2.162 . S
C1550 C494 2.152 . S
C1555 C994 1.278 . S
C1560 C655 1.481 . S
C1565 C487 2.041 . S
C1570 C392 2.162 . S
C1575 C812 2.162 . S
C1580 C735 2.151 . S
C1585 C1159 2.039 . S
C1590 C980 2.162 . S
C1595 C560 2.162 . S
C1600 C483 2.152 . S
C1605 C826 1.261 . S
C1610 C1239 1.723 . S
C1615 C1162 0.770 . S
C1620 C58 0.557 . S
C1625 C226 0.765 . S
C1630 C1246 0.555 . S
C1635 C1082 1.995 . S
C1640 C147 1.991 . S
C1645 C658 0.557 . S
C1650 C478 0.770 . S
C1655 C315 1.995 . S
C1660 C914 1.991 . S
C1665 C1064 2.162 . S
C1670 C1155 2.151 . S
C1675 C651 1.722 . S
C1680 C1078 1.260 . S
C1685 C562 1.261 . S
C1690 C662 1.723 . S
C1695 C403 2.161 . S
C1700 C1148 2.041 . S
C1705 C1066 1.267 . S
C1710 C1334 1.723 . S
C1715 C1318 0.555 . S
C1720 C742 0.765 . S
C1725 C158 1.992 . S
C1730 C819 1.995 . S
C1735 C746 2.151 . S
C1740 C571 2.161 . S
C1745 C739 2.040 . S
C1750 C896 2.162 . S
C1755 C1323 1.723 . S
C1760 C574 1.261 . S
C1765 C1150 0.764 . S
C1770 C1330 0.558 . S
C1775 C987 1.992 . S
C1780 C326 1.995 . S
C1785 C910 1.273 . S
C1790 C1243 1.476 . S
C1795 C898 1.273 . S
C1800 C1316 1.476 . S
C1805 C394 1.273 . S
C1810 C1232 1.476 . S
C1815 C1327 1.476 . S
C1820 C406 1.273 . S
