# Generated by pormake.
# Topology zfb, (5)-cn, num edge types: 1
# Building blocks:
#     Node 0, Type 0, BuildingBlock: XOMCOT_clean_sbu_1, # of connection points: 5
#     Node 1, Type 0, BuildingBlock: XOMCOT_clean_sbu_1, # of connection points: 5
#     Node 2, Type 0, BuildingBlock: XOMCOT_clean_sbu_1, # of connection points: 5
#     Node 3, Type 0, BuildingBlock: XOMCOT_clean_sbu_1, # of connection points: 5
#     Node 4, Type 0, BuildingBlock: XOMCOT_clean_sbu_1, # of connection points: 5
#     Node 5, Type 0, BuildingBlock: XOMCOT_clean_sbu_1, # of connection points: 5
#     Node 6, Type 0, BuildingBlock: XOMCOT_clean_sbu_1, # of connection points: 5
#     Node 7, Type 0, BuildingBlock: XOMCOT_clean_sbu_1, # of connection points: 5
#     Edge 8, Type (0, 0), BuildingBlock: EYOCIG_clean_linker_4, # of connection points: 2
#     Edge 9, Type (0, 0), BuildingBlock: EYOCIG_clean_linker_4, # of connection points: 2
#     Edge 10, Type (0, 0), BuildingBlock: EYOCIG_clean_linker_4, # of connection points: 2
#     Edge 11, Type (0, 0), BuildingBlock: EYOCIG_clean_linker_4, # of connection points: 2
#     Edge 12, Type (0, 0), BuildingBlock: EYOCIG_clean_linker_4, # of connection points: 2
#     Edge 13, Type (0, 0), BuildingBlock: EYOCIG_clean_linker_4, # of connection points: 2
#     Edge 14, Type (0, 0), BuildingBlock: EYOCIG_clean_linker_4, # of connection points: 2
#     Edge 15, Type (0, 0), BuildingBlock: EYOCIG_clean_linker_4, # of connection points: 2
#     Edge 16, Type (0, 0), BuildingBlock: EYOCIG_clean_linker_4, # of connection points: 2
#     Edge 17, Type (0, 0), BuildingBlock: EYOCIG_clean_linker_4, # of connection points: 2
#     Edge 18, Type (0, 0), BuildingBlock: EYOCIG_clean_linker_4, # of connection points: 2
#     Edge 19, Type (0, 0), BuildingBlock: EYOCIG_clean_linker_4, # of connection points: 2
#     Edge 20, Type (0, 0), BuildingBlock: EYOCIG_clean_linker_4, # of connection points: 2
#     Edge 21, Type (0, 0), BuildingBlock: EYOCIG_clean_linker_4, # of connection points: 2
#     Edge 22, Type (0, 0), BuildingBlock: EYOCIG_clean_linker_4, # of connection points: 2
#     Edge 23, Type (0, 0), BuildingBlock: EYOCIG_clean_linker_4, # of connection points: 2
#     Edge 24, Type (0, 0), BuildingBlock: EYOCIG_clean_linker_4, # of connection points: 2
#     Edge 25, Type (0, 0), BuildingBlock: EYOCIG_clean_linker_4, # of connection points: 2
#     Edge 26, Type (0, 0), BuildingBlock: EYOCIG_clean_linker_4, # of connection points: 2
#     Edge 27, Type (0, 0), BuildingBlock: EYOCIG_clean_linker_4, # of connection points: 2
# Relax obj value: 0.173
# Max RMSD: 0.183
# Mean RMSD: 0.183
data_MOF--net-zfb--node1-XOMCOT_clean_sbu_1--edge1-EYOCIG_clean_linker_4
_symmetry_space_group_name_H-M    P1
_symmetry_Int_Tables_number       1
_symmetry_cell_setting            triclinic
loop_
_symmetry_equiv_pos_as_xyz
'x, y, z'
_cell_length_a     27.25508
_cell_length_b     27.225756
_cell_length_c     28.273557
_cell_angle_alpha  89.989336
_cell_angle_beta   90.062781
_cell_angle_gamma 90.152134
loop_
_atom_site_label
_atom_site_type_symbol
_atom_site_fract_x
_atom_site_fract_y
_atom_site_fract_z
_atom_type_partial_charge
C0 C 0.21088 0.36603 0.97485 0.0
C1 C 0.20172 0.36124 0.92716 0.0
N2 N 0.15293 0.36173 0.92085 0.0
N3 N 0.16794 0.36954 0.9982 0.0
C4 C 0.13306 0.3658 0.96418 0.0
H5 H 0.24655 0.36692 0.99159 0.0
Co6 Co 0.16275 0.37765 0.06351 0.0
C7 C 0.06275 0.42058 0.04508 0.0
O8 O 0.07179 0.44919 1.00899 0.0
N9 N 0.15389 0.38568 0.12949 0.0
C10 C 0.12116 0.41704 0.19526 0.0
C11 C 0.13029 0.42496 0.14831 0.0
C12 C 0.15828 0.35406 0.16623 0.0
N13 N 0.1388 0.37266 0.20624 0.0
O14 O 0.14715 0.30876 0.06877 0.0
H15 H 0.11846 0.45684 0.12857 0.0
H16 H 0.17333 0.31747 0.16344 0.0
O17 O 0.09467 0.39176 0.0615 0.0
C18 C 0.18514 0.28169 0.07136 0.0
O19 O 0.22858 0.30249 0.07263 0.0
N20 N 0.1833 0.44556 0.05776 0.0
C21 C 0.21982 0.54201 0.0558 0.0
C22 C 0.18928 0.52481 1.01966 0.0
C23 C 0.17257 0.47605 1.02059 0.0
C24 C 0.21657 0.46116 0.09089 0.0
C25 C 0.23415 0.50949 0.09133 0.0
H26 H 0.15308 0.46277 0.9901 0.0
H27 H 0.22976 0.43608 0.11764 0.0
H28 H 0.09401 0.3654 0.97073 0.0
H29 H 0.22865 0.35731 0.89931 0.0
H30 H 0.10176 0.44125 0.21916 0.0
H31 H 0.17929 0.54846 0.99038 0.0
H32 H 0.25915 0.52108 0.119 0.0
C33 C 0.58706 0.21123 0.4745 0.0
C34 C 0.59151 0.20199 0.42681 0.0
N35 N 0.59079 0.15314 0.42063 0.0
N36 N 0.58354 0.16828 0.49799 0.0
C37 C 0.58695 0.13331 0.46404 0.0
H38 H 0.58638 0.24697 0.49114 0.0
Co39 Co 0.57568 0.1633 0.56334 0.0
C40 C 0.53266 0.06291 0.54573 0.0
O41 O 0.50447 0.07137 0.50921 0.0
N42 N 0.56783 0.15471 0.62941 0.0
C43 C 0.53633 0.12242 0.69541 0.0
C44 C 0.5285 0.13116 0.64838 0.0
C45 C 0.59941 0.15945 0.66615 0.0
N46 N 0.58071 0.14025 0.70631 0.0
O47 O 0.64449 0.14804 0.56852 0.0
H48 H 0.49658 0.11917 0.62872 0.0
H49 H 0.63601 0.17456 0.66329 0.0
O50 O 0.56159 0.09507 0.56178 0.0
C51 C 0.67168 0.18612 0.57081 0.0
O52 O 0.65107 0.22958 0.57196 0.0
N53 N 0.50786 0.18349 0.55765 0.0
C54 C 0.4115 0.21947 0.55603 0.0
C55 C 0.42838 0.18864 0.52008 0.0
C56 C 0.4771 0.1722 0.52082 0.0
C57 C 0.49257 0.21704 0.59054 0.0
C58 C 0.44429 0.23435 0.59117 0.0
H59 H 0.49014 0.15252 0.49042 0.0
H60 H 0.51785 0.23062 0.61698 0.0
H61 H 0.58725 0.09423 0.47069 0.0
H62 H 0.5953 0.22892 0.39887 0.0
H63 H 0.51204 0.10315 0.71944 0.0
H64 H 0.40451 0.17824 0.49106 0.0
H65 H 0.43296 0.25959 0.61865 0.0
C66 C 0.74242 0.58804 0.97452 0.0
C67 C 0.75164 0.59276 0.92686 0.0
N68 N 0.80044 0.59273 0.92074 0.0
N69 N 0.78534 0.585 0.99806 0.0
C70 C 0.82027 0.58905 0.96418 0.0
H71 H 0.70672 0.58677 0.99111 0.0
Co72 Co 0.79035 0.57675 0.06338 0.0
C73 C 0.88998 0.53321 0.04485 0.0
O74 O 0.88099 0.50604 1.00771 0.0
N75 N 0.79894 0.56858 0.1294 0.0
C76 C 0.83108 0.53693 0.19539 0.0
C77 C 0.82234 0.5292 0.14832 0.0
C78 C 0.79426 0.60006 0.16618 0.0
N79 N 0.81338 0.58128 0.20632 0.0
O80 O 0.80626 0.64559 0.06882 0.0
H81 H 0.83422 0.49733 0.12862 0.0
H82 H 0.77925 0.63666 0.16337 0.0
O83 O 0.85835 0.56208 0.06165 0.0
C84 C 0.7683 0.67272 0.07122 0.0
O85 O 0.72482 0.65197 0.07219 0.0
N86 N 0.76949 0.50892 0.05746 0.0
C87 C 0.73302 0.41245 0.05544 0.0
C88 C 0.76349 0.42969 1.01933 0.0
C89 C 0.78019 0.47845 1.0203 0.0
C90 C 0.73622 0.4933 0.09052 0.0
C91 C 0.7187 0.44496 0.09094 0.0
H92 H 0.79963 0.49176 0.98983 0.0
H93 H 0.72305 0.51835 0.11725 0.0
H94 H 0.85929 0.58988 0.9709 0.0
H95 H 0.72473 0.59623 0.89887 0.0
H96 H 0.85025 0.5126 0.21941 0.0
H97 H 0.77346 0.40607 0.99004 0.0
H98 H 0.69374 0.43334 0.11859 0.0
C99 C 0.36567 0.74303 0.47473 0.0
C100 C 0.3609 0.75219 0.42705 0.0
N101 N 0.36146 0.80104 0.42079 0.0
N102 N 0.36924 0.78603 0.49813 0.0
C103 C 0.36556 0.82094 0.46415 0.0
H104 H 0.36657 0.70732 0.49143 0.0
Co105 Co 0.37754 0.79119 0.56342 0.0
C106 C 0.41995 0.8918 0.54564 0.0
O107 O 0.44844 0.88337 0.5094 0.0
N108 N 0.38583 0.80002 0.62942 0.0
C109 C 0.41757 0.83283 0.69513 0.0
C110 C 0.42524 0.82369 0.64816 0.0
C111 C 0.35436 0.79563 0.66622 0.0
N112 N 0.37321 0.81515 0.7062 0.0
O113 O 0.30868 0.80615 0.56885 0.0
H114 H 0.45707 0.83558 0.62836 0.0
H115 H 0.31771 0.78059 0.6635 0.0
O116 O 0.39117 0.85949 0.56162 0.0
C117 C 0.28152 0.76806 0.57124 0.0
O118 O 0.30216 0.7246 0.57239 0.0
N119 N 0.44543 0.7713 0.55744 0.0
C120 C 0.54179 0.7353 0.55508 0.0
C121 C 0.52453 0.76614 0.51925 0.0
C122 C 0.47582 0.78259 0.52038 0.0
C123 C 0.4611 0.73781 0.59027 0.0
C124 C 0.50938 0.72049 0.59051 0.0
H125 H 0.46245 0.80227 0.49007 0.0
H126 H 0.43611 0.72425 0.61692 0.0
H127 H 0.36532 0.86003 0.47073 0.0
H128 H 0.357 0.72522 0.39916 0.0
H129 H 0.44194 0.85229 0.71898 0.0
H130 H 0.54808 0.77653 0.49003 0.0
H131 H 0.52102 0.69526 0.61793 0.0
C132 C 0.71023 0.08806 0.15397 0.0
C133 C 0.70098 0.09253 0.20165 0.0
N134 N 0.65218 0.09166 0.20778 0.0
N135 N 0.66734 0.08438 0.13044 0.0
C136 C 0.63239 0.0877 0.16435 0.0
H137 H 0.74594 0.08745 0.13737 0.0
Co138 Co 0.66243 0.07636 0.0651 0.0
C139 C 0.56231 0.03302 0.0825 0.0
O140 O 0.57092 0.00465 0.11885 0.0
N141 N 0.65389 0.06839 0.99903 0.0
C142 C 0.6215 0.03696 0.93298 0.0
C143 C 0.63046 0.02898 0.97997 0.0
C144 C 0.65833 0.10015 0.9624 0.0
N145 N 0.63907 0.08151 0.92223 0.0
O146 O 0.64702 0.14522 0.05981 0.0
H147 H 0.61863 -0.00306 0.99954 0.0
H148 H 0.67325 0.13686 0.96537 0.0
O149 O 0.59431 0.06217 0.06657 0.0
C150 C 0.68497 0.17256 0.05745 0.0
O151 O 0.72846 0.15208 0.05643 0.0
N152 N 0.68274 0.00847 0.07091 0.0
C153 C 0.71912 0.91214 0.073 0.0
C154 C 0.68829 0.92914 0.10888 0.0
C155 C 0.67166 -0.02216 0.1079 0.0
C156 C 0.71622 -0.00694 0.03805 0.0
C157 C 0.73373 0.94481 0.03767 0.0
H158 H 0.65199 -0.00902 0.13825 0.0
H159 H 0.72964 0.01826 1.01148 0.0
H160 H 0.59335 0.08781 0.15766 0.0
H161 H 0.72786 0.09644 0.22962 0.0
H162 H 0.60225 0.01266 0.9089 0.0
H163 H 0.67806 0.90539 0.13803 0.0
H164 H 0.75895 0.93339 1.01022 0.0
C165 C 0.86556 0.71294 0.65365 0.0
C166 C 0.86096 0.70389 0.70138 0.0
N167 N 0.86111 0.65506 0.70773 0.0
N168 N 0.86868 0.66988 0.63033 0.0
C169 C 0.86471 0.63506 0.6644 0.0
H170 H 0.86675 0.74861 0.63688 0.0
Co171 Co 0.87687 0.66426 0.56504 0.0
C172 C 0.92119 0.5653 0.58483 0.0
O173 O 0.94826 0.57536 0.62177 0.0
N174 N 0.88482 0.65497 0.49909 0.0
C175 C 0.91598 0.622 0.43334 0.0
C176 C 0.92392 0.6311 0.48031 0.0
C177 C 0.85328 0.65954 0.46233 0.0
N178 N 0.87176 0.63992 0.42233 0.0
O179 O 0.80811 0.64821 0.55983 0.0
H180 H 0.95579 0.61926 0.50004 0.0
H181 H 0.81684 0.67489 0.46506 0.0
O182 O 0.89166 0.59613 0.56758 0.0
C183 C 0.78096 0.68616 0.55711 0.0
O184 O 0.80165 0.72969 0.55571 0.0
N185 N 0.94475 0.68529 0.57067 0.0
C186 C 0.04142 0.72115 0.57225 0.0
C187 C 0.02374 0.69194 0.60915 0.0
C188 C 0.97492 0.67559 0.60836 0.0
C189 C 0.96078 0.71756 0.53681 0.0
C190 C 0.00923 0.73469 0.53616 0.0
H191 H 0.96139 0.65712 0.63931 0.0
H192 H 0.936 0.73023 0.50959 0.0
H193 H 0.86394 0.59596 0.65789 0.0
H194 H 0.85756 0.73093 0.72924 0.0
H195 H 0.94009 0.60249 0.40944 0.0
H196 H 0.0471 0.68268 0.63887 0.0
H197 H 0.02117 0.75876 0.50789 0.0
C198 C 0.24215 0.86604 0.15334 0.0
C199 C 0.25105 0.86152 0.20109 0.0
N200 N 0.2998 0.86253 0.20768 0.0
N201 N 0.28522 0.86988 0.13021 0.0
C202 C 0.31992 0.86664 0.16444 0.0
H203 H 0.20658 0.86659 0.1364 0.0
Co204 Co 0.29062 0.87811 0.06496 0.0
C205 C 0.39099 0.92089 0.08304 0.0
O206 O 0.38247 0.9496 0.11914 0.0
N207 N 0.29963 0.88637 0.99899 0.0
C208 C 0.33232 0.91825 0.93334 0.0
C209 C 0.3232 0.92588 0.98032 0.0
C210 C 0.29526 0.85489 0.96214 0.0
N211 N 0.31471 0.87382 0.92219 0.0
O212 O 0.30589 0.80923 0.0596 0.0
H213 H 0.33497 0.95777 1.00017 0.0
H214 H 0.28023 0.81821 0.96478 0.0
O215 O 0.35876 0.89201 0.06704 0.0
C216 C 0.26796 0.78189 0.05692 0.0
O217 O 0.22448 0.80237 0.05552 0.0
N218 N 0.27048 0.94597 0.07081 0.0
C219 C 0.23417 0.04228 0.07287 0.0
C220 C 0.26505 0.02527 0.10877 0.0
C221 C 0.28165 0.97657 0.10781 0.0
C222 C 0.23699 0.96139 0.03791 0.0
C223 C 0.21949 0.00965 0.03752 0.0
H224 H 0.30136 0.96338 0.13817 0.0
H225 H 0.22356 0.93621 1.01131 0.0
H226 H 0.359 0.86672 0.15812 0.0
H227 H 0.22397 0.85749 0.22881 0.0
H228 H 0.35169 0.9427 0.90953 0.0
H229 H 0.27534 0.04901 0.13793 0.0
H230 H 0.19425 0.02109 1.01004 0.0
C231 C 0.08807 0.24105 0.65359 0.0
C232 C 0.09267 0.24995 0.70135 0.0
N233 N 0.09189 0.29875 0.70788 0.0
N234 N 0.08436 0.28417 0.63042 0.0
C235 C 0.08787 0.31889 0.66463 0.0
H236 H 0.08736 0.20545 0.63668 0.0
Co237 Co 0.07616 0.29002 0.56513 0.0
C238 C 0.03309 0.38975 0.58447 0.0
O239 O 0.0041 0.37979 0.62 0.0
N240 N 0.06811 0.29955 0.49921 0.0
C241 C 0.0368 0.3328 0.43359 0.0
C242 C 0.02914 0.32385 0.4806 0.0
C243 C 0.0993 0.29454 0.46229 0.0
N244 N 0.08071 0.31433 0.42235 0.0
O245 O 0.145 0.30557 0.56 0.0
H246 H -0.00244 0.33606 0.50049 0.0
H247 H 0.13555 0.27873 0.46486 0.0
O248 O 0.06222 0.35826 0.5678 0.0
C249 C 0.17208 0.26759 0.55728 0.0
O250 O 0.15135 0.22408 0.55573 0.0
N251 N 0.00821 0.2695 0.57066 0.0
C252 C 0.91156 0.23367 0.57211 0.0
C253 C 0.92917 0.26315 0.60887 0.0
C254 C -0.022 0.27948 0.60817 0.0
C255 C -0.00778 0.23708 0.5369 0.0
C256 C 0.94379 0.21993 0.5362 0.0
H257 H -0.00848 0.29818 0.63903 0.0
H258 H 0.01703 0.22425 0.50984 0.0
H259 H 0.08803 0.35802 0.6583 0.0
H260 H 0.09658 0.22284 0.7291 0.0
H261 H 0.01272 0.35256 0.40979 0.0
H262 H 0.90576 0.27262 0.63844 0.0
H263 H 0.93189 0.19567 0.50804 0.0
C264 C 0.20189 0.13442 0.07309 0.0
C265 C 0.21653 0.09245 0.07291 0.0
C266 C 0.18826 0.18475 0.07277 0.0
C267 C 0.18221 0.22878 0.07198 0.0
C268 C 0.81903 0.20228 0.57193 0.0
C269 C 0.86119 0.21647 0.57185 0.0
C270 C 0.76857 0.18908 0.57173 0.0
C271 C 0.72452 0.18324 0.57118 0.0
C272 C 0.75145 0.81999 0.07324 0.0
C273 C 0.73678 0.86196 0.07306 0.0
C274 C 0.76515 0.76967 0.07288 0.0
C275 C 0.77126 0.72564 0.07201 0.0
C276 C 0.13407 0.75222 0.57223 0.0
C277 C 0.09185 0.7382 0.57203 0.0
C278 C 0.1846 0.76519 0.57214 0.0
C279 C 0.22867 0.77092 0.57161 0.0
C280 C 0.70108 0.32002 0.0554 0.0
C281 C 0.71554 0.36212 0.05553 0.0
C282 C 0.68773 0.26954 0.05579 0.0
C283 C 0.6819 0.22545 0.05667 0.0
C284 C 0.63387 0.70304 0.55493 0.0
C285 C 0.59197 0.71777 0.55494 0.0
C286 C 0.68412 0.68925 0.55551 0.0
C287 C 0.7281 0.68314 0.55641 0.0
C288 C 0.25188 0.63442 0.05563 0.0
C289 C 0.23738 0.59232 0.05586 0.0
C290 C 0.26522 0.6849 0.05582 0.0
C291 C 0.27103 0.729 0.05647 0.0
C292 C 0.26895 0.26468 0.55633 0.0
C293 C 0.22494 0.27058 0.55694 0.0
C294 C 0.31929 0.25129 0.5561 0.0
C295 C 0.3613 0.2369 0.55621 0.0
C296 C -0.00601 0.4581 0.09552 0.0
C297 C 0.02609 0.4356 0.0772 0.0
C298 C 0.95719 0.49289 0.09549 0.0
C299 C 0.92578 0.51634 0.07709 0.0
C300 C 0.45832 0.95929 0.59743 0.0
C301 C 0.4354 0.92771 0.57852 0.0
C302 C 0.49355 -0.00415 0.5975 0.0
C303 C 0.51675 0.02724 0.57863 0.0
C304 C 0.45844 0.95898 0.0311 0.0
C305 C 0.42687 0.93623 0.05016 0.0
C306 C 0.49509 -0.00591 0.03081 0.0
C307 C 0.52655 0.01726 0.04963 0.0
C308 C 0.96196 0.49732 0.53552 0.0
C309 C 0.9384 0.52895 0.55338 0.0
C310 C -0.00361 0.46016 0.53545 0.0
C311 C 0.01856 0.42741 0.55315 0.0
C312 C 0.12831 0.33573 0.29045 0.0
C313 C 0.1345 0.35039 0.25069 0.0
C314 C 0.11692 0.32419 0.33783 0.0
C315 C 0.10261 0.31822 0.37773 0.0
C316 C 0.62873 0.1186 0.83806 0.0
C317 C 0.63485 0.10389 0.87782 0.0
C318 C 0.61733 0.13018 0.79069 0.0
C319 C 0.60288 0.13621 0.75083 0.0
C320 C 0.83493 0.62954 0.33805 0.0
C321 C 0.84951 0.63572 0.37785 0.0
C322 C 0.82346 0.61797 0.29068 0.0
C323 C 0.81746 0.60343 0.25085 0.0
C324 C 0.32521 0.83733 0.83783 0.0
C325 C 0.31903 0.85179 0.87764 0.0
C326 C 0.33669 0.82578 0.7905 0.0
C327 C 0.35115 0.81952 0.75071 0.0
C328 C 0.84128 0.60205 0.83795 0.0
C329 C 0.82486 0.59756 0.87732 0.0
C330 C 0.85274 0.61405 0.79062 0.0
C331 C 0.85678 0.63069 0.75127 0.0
C332 C 0.35225 0.84205 0.338 0.0
C333 C 0.35672 0.82547 0.37734 0.0
C334 C 0.34042 0.85385 0.29071 0.0
C335 C 0.32398 0.85808 0.25129 0.0
C336 C 0.1004 0.33973 0.79079 0.0
C337 C 0.09626 0.32304 0.75146 0.0
C338 C 0.11203 0.35196 0.83804 0.0
C339 C 0.12852 0.35669 0.87739 0.0
C340 C 0.61117 0.1003 0.29054 0.0
C341 C 0.62771 0.09609 0.2512 0.0
C342 C 0.59944 0.11207 0.33784 0.0
C343 C 0.59523 0.12865 0.37719 0.0
loop_
_geom_bond_atom_site_label_1
_geom_bond_atom_site_label_2
_geom_bond_distance
_geom_bond_site_symmetry_2
_ccdc_geom_bond_type
C0 C1 1.351 . S
C0 N3 1.368 . S
C0 H5 0.931 . S
C1 C0 1.351 . S
C1 N2 1.373 . S
C1 H29 0.930 . S
N2 C1 1.373 . S
N2 C4 1.340 . S
N3 C0 1.368 . S
N3 C4 1.321 . S
N3 Co6 2.135 1_556 S
C4 N2 1.340 . S
C4 N3 1.321 . S
C4 H28 0.930 . S
H5 C0 0.931 . S
Co6 N3 2.135 1_554 S
Co6 N9 2.121 . S
Co6 O14 2.055 . S
Co6 O17 2.039 . S
Co6 N20 2.140 . S
C7 O8 1.227 . S
C7 O17 1.265 . S
O8 C7 1.227 . S
N9 Co6 2.121 . S
N9 C11 1.375 . S
N9 C12 1.313 . S
C10 C11 1.338 . S
C10 N13 1.377 . S
C10 H30 0.930 . S
C11 N9 1.375 . S
C11 C10 1.338 . S
C11 H15 0.931 . S
C12 N9 1.313 . S
C12 N13 1.344 . S
C12 H16 0.930 . S
N13 C10 1.377 . S
N13 C12 1.344 . S
O14 Co6 2.055 . S
O14 C18 1.253 . S
H15 C11 0.931 . S
H16 C12 0.930 . S
O17 Co6 2.039 . S
O17 C7 1.265 . S
C18 O14 1.253 . S
C18 O19 1.227 . S
O19 C18 1.227 . S
N20 Co6 2.140 . S
N20 C23 1.346 1_554 S
N20 C24 1.345 . S
C21 C22 1.387 1_554 S
C21 C25 1.391 . S
C22 C21 1.387 1_556 S
C22 C23 1.369 . S
C22 H31 0.929 . S
C23 N20 1.346 1_556 S
C23 C22 1.369 . S
C23 H26 0.928 . S
C24 N20 1.345 . S
C24 C25 1.371 . S
C24 H27 0.931 . S
C25 C21 1.391 . S
C25 C24 1.371 . S
C25 H32 0.930 . S
H26 C23 0.928 . S
H27 C24 0.931 . S
H28 C4 0.930 . S
H29 C1 0.930 . S
H30 C10 0.930 . S
H31 C22 0.929 . S
H32 C25 0.930 . S
C33 C34 1.351 . S
C33 N36 1.368 . S
C33 H38 0.931 . S
C34 C33 1.351 . S
C34 N35 1.373 . S
C34 H62 0.930 . S
N35 C34 1.373 . S
N35 C37 1.340 . S
N36 C33 1.368 . S
N36 C37 1.321 . S
N36 Co39 2.135 . S
C37 N35 1.340 . S
C37 N36 1.321 . S
C37 H61 0.930 . S
H38 C33 0.931 . S
Co39 N36 2.135 . S
Co39 N42 2.121 . S
Co39 O47 2.055 . S
Co39 O50 2.039 . S
Co39 N53 2.140 . S
C40 O41 1.227 . S
C40 O50 1.265 . S
O41 C40 1.227 . S
N42 Co39 2.121 . S
N42 C44 1.375 . S
N42 C45 1.313 . S
C43 C44 1.338 . S
C43 N46 1.377 . S
C43 H63 0.930 . S
C44 N42 1.375 . S
C44 C43 1.338 . S
C44 H48 0.931 . S
C45 N42 1.313 . S
C45 N46 1.344 . S
C45 H49 0.930 . S
N46 C43 1.377 . S
N46 C45 1.344 . S
O47 Co39 2.055 . S
O47 C51 1.253 . S
H48 C44 0.931 . S
H49 C45 0.930 . S
O50 Co39 2.039 . S
O50 C40 1.265 . S
C51 O47 1.253 . S
C51 O52 1.227 . S
O52 C51 1.227 . S
N53 Co39 2.140 . S
N53 C56 1.346 . S
N53 C57 1.345 . S
C54 C55 1.387 . S
C54 C58 1.391 . S
C55 C54 1.387 . S
C55 C56 1.369 . S
C55 H64 0.929 . S
C56 N53 1.346 . S
C56 C55 1.369 . S
C56 H59 0.928 . S
C57 N53 1.345 . S
C57 C58 1.371 . S
C57 H60 0.931 . S
C58 C54 1.391 . S
C58 C57 1.371 . S
C58 H65 0.930 . S
H59 C56 0.928 . S
H60 C57 0.931 . S
H61 C37 0.930 . S
H62 C34 0.930 . S
H63 C43 0.930 . S
H64 C55 0.929 . S
H65 C58 0.930 . S
C66 C67 1.351 . S
C66 N69 1.368 . S
C66 H71 0.931 . S
C67 C66 1.351 . S
C67 N68 1.373 . S
C67 H95 0.930 . S
N68 C67 1.373 . S
N68 C70 1.340 . S
N69 C66 1.368 . S
N69 C70 1.321 . S
N69 Co72 2.135 1_556 S
C70 N68 1.340 . S
C70 N69 1.321 . S
C70 H94 0.930 . S
H71 C66 0.931 . S
Co72 N69 2.135 1_554 S
Co72 N75 2.121 . S
Co72 O80 2.055 . S
Co72 O83 2.039 . S
Co72 N86 2.140 . S
C73 O74 1.227 . S
C73 O83 1.265 . S
O74 C73 1.227 . S
N75 Co72 2.121 . S
N75 C77 1.375 . S
N75 C78 1.313 . S
C76 C77 1.338 . S
C76 N79 1.377 . S
C76 H96 0.930 . S
C77 N75 1.375 . S
C77 C76 1.338 . S
C77 H81 0.931 . S
C78 N75 1.313 . S
C78 N79 1.344 . S
C78 H82 0.930 . S
N79 C76 1.377 . S
N79 C78 1.344 . S
O80 Co72 2.055 . S
O80 C84 1.253 . S
H81 C77 0.931 . S
H82 C78 0.930 . S
O83 Co72 2.039 . S
O83 C73 1.265 . S
C84 O80 1.253 . S
C84 O85 1.227 . S
O85 C84 1.227 . S
N86 Co72 2.140 . S
N86 C89 1.346 1_554 S
N86 C90 1.345 . S
C87 C88 1.387 1_554 S
C87 C91 1.391 . S
C88 C87 1.387 1_556 S
C88 C89 1.369 . S
C88 H97 0.929 . S
C89 N86 1.346 1_556 S
C89 C88 1.369 . S
C89 H92 0.928 . S
C90 N86 1.345 . S
C90 C91 1.371 . S
C90 H93 0.931 . S
C91 C87 1.391 . S
C91 C90 1.371 . S
C91 H98 0.930 . S
H92 C89 0.928 . S
H93 C90 0.931 . S
H94 C70 0.930 . S
H95 C67 0.930 . S
H96 C76 0.930 . S
H97 C88 0.929 . S
H98 C91 0.930 . S
C99 C100 1.351 . S
C99 N102 1.368 . S
C99 H104 0.931 . S
C100 C99 1.351 . S
C100 N101 1.373 . S
C100 H128 0.930 . S
N101 C100 1.373 . S
N101 C103 1.340 . S
N102 C99 1.368 . S
N102 C103 1.321 . S
N102 Co105 2.135 . S
C103 N101 1.340 . S
C103 N102 1.321 . S
C103 H127 0.930 . S
H104 C99 0.931 . S
Co105 N102 2.135 . S
Co105 N108 2.121 . S
Co105 O113 2.055 . S
Co105 O116 2.039 . S
Co105 N119 2.140 . S
C106 O107 1.227 . S
C106 O116 1.265 . S
O107 C106 1.227 . S
N108 Co105 2.121 . S
N108 C110 1.375 . S
N108 C111 1.313 . S
C109 C110 1.338 . S
C109 N112 1.377 . S
C109 H129 0.930 . S
C110 N108 1.375 . S
C110 C109 1.338 . S
C110 H114 0.931 . S
C111 N108 1.313 . S
C111 N112 1.344 . S
C111 H115 0.930 . S
N112 C109 1.377 . S
N112 C111 1.344 . S
O113 Co105 2.055 . S
O113 C117 1.253 . S
H114 C110 0.931 . S
H115 C111 0.930 . S
O116 Co105 2.039 . S
O116 C106 1.265 . S
C117 O113 1.253 . S
C117 O118 1.227 . S
O118 C117 1.227 . S
N119 Co105 2.140 . S
N119 C122 1.346 . S
N119 C123 1.345 . S
C120 C121 1.387 . S
C120 C124 1.391 . S
C121 C120 1.387 . S
C121 C122 1.369 . S
C121 H130 0.929 . S
C122 N119 1.346 . S
C122 C121 1.369 . S
C122 H125 0.928 . S
C123 N119 1.345 . S
C123 C124 1.371 . S
C123 H126 0.931 . S
C124 C120 1.391 . S
C124 C123 1.371 . S
C124 H131 0.930 . S
H125 C122 0.928 . S
H126 C123 0.931 . S
H127 C103 0.930 . S
H128 C100 0.930 . S
H129 C109 0.930 . S
H130 C121 0.929 . S
H131 C124 0.930 . S
C132 C133 1.351 . S
C132 N135 1.368 . S
C132 H137 0.931 . S
C133 C132 1.351 . S
C133 N134 1.373 . S
C133 H161 0.930 . S
N134 C133 1.373 . S
N134 C136 1.340 . S
N135 C132 1.368 . S
N135 C136 1.321 . S
N135 Co138 2.135 . S
C136 N134 1.340 . S
C136 N135 1.321 . S
C136 H160 0.930 . S
H137 C132 0.931 . S
Co138 N135 2.135 . S
Co138 N141 2.121 1_554 S
Co138 O146 2.055 . S
Co138 O149 2.039 . S
Co138 N152 2.140 . S
C139 O140 1.227 . S
C139 O149 1.265 . S
O140 C139 1.227 . S
N141 Co138 2.121 1_556 S
N141 C143 1.375 . S
N141 C144 1.313 . S
C142 C143 1.338 . S
C142 N145 1.377 . S
C142 H162 0.930 . S
C143 N141 1.375 . S
C143 C142 1.338 . S
C143 H147 0.931 . S
C144 N141 1.313 . S
C144 N145 1.344 . S
C144 H148 0.930 . S
N145 C142 1.377 . S
N145 C144 1.344 . S
O146 Co138 2.055 . S
O146 C150 1.253 . S
H147 C143 0.931 . S
H148 C144 0.930 . S
O149 Co138 2.039 . S
O149 C139 1.265 . S
C150 O146 1.253 . S
C150 O151 1.227 . S
O151 C150 1.227 . S
N152 Co138 2.140 . S
N152 C155 1.346 1_545 S
N152 C156 1.345 . S
C153 C154 1.387 . S
C153 C157 1.391 . S
C154 C153 1.387 . S
C154 C155 1.369 . S
C154 H163 0.929 . S
C155 N152 1.346 1_565 S
C155 C154 1.369 . S
C155 H158 0.928 . S
C156 N152 1.345 . S
C156 C157 1.371 1_545 S
C156 H159 0.931 1_554 S
C157 C153 1.391 . S
C157 C156 1.371 1_565 S
C157 H164 0.930 1_554 S
H158 C155 0.928 . S
H159 C156 0.931 1_556 S
H160 C136 0.930 . S
H161 C133 0.930 . S
H162 C142 0.930 . S
H163 C154 0.929 . S
H164 C157 0.930 1_556 S
C165 C166 1.351 . S
C165 N168 1.368 . S
C165 H170 0.931 . S
C166 C165 1.351 . S
C166 N167 1.373 . S
C166 H194 0.930 . S
N167 C166 1.373 . S
N167 C169 1.340 . S
N168 C165 1.368 . S
N168 C169 1.321 . S
N168 Co171 2.135 . S
C169 N167 1.340 . S
C169 N168 1.321 . S
C169 H193 0.930 . S
H170 C165 0.931 . S
Co171 N168 2.135 . S
Co171 N174 2.121 . S
Co171 O179 2.055 . S
Co171 O182 2.039 . S
Co171 N185 2.140 . S
C172 O173 1.227 . S
C172 O182 1.265 . S
O173 C172 1.227 . S
N174 Co171 2.121 . S
N174 C176 1.375 . S
N174 C177 1.313 . S
C175 C176 1.338 . S
C175 N178 1.377 . S
C175 H195 0.930 . S
C176 N174 1.375 . S
C176 C175 1.338 . S
C176 H180 0.931 . S
C177 N174 1.313 . S
C177 N178 1.344 . S
C177 H181 0.930 . S
N178 C175 1.377 . S
N178 C177 1.344 . S
O179 Co171 2.055 . S
O179 C183 1.253 . S
H180 C176 0.931 . S
H181 C177 0.930 . S
O182 Co171 2.039 . S
O182 C172 1.265 . S
C183 O179 1.253 . S
C183 O184 1.227 . S
O184 C183 1.227 . S
N185 Co171 2.140 . S
N185 C188 1.346 1_655 S
N185 C189 1.345 . S
C186 C187 1.387 . S
C186 C190 1.391 . S
C187 C186 1.387 . S
C187 C188 1.369 . S
C187 H196 0.929 . S
C188 N185 1.346 1_455 S
C188 C187 1.369 . S
C188 H191 0.928 . S
C189 N185 1.345 . S
C189 C190 1.371 1_655 S
C189 H192 0.931 . S
C190 C186 1.391 . S
C190 C189 1.371 1_455 S
C190 H197 0.930 . S
H191 C188 0.928 . S
H192 C189 0.931 . S
H193 C169 0.930 . S
H194 C166 0.930 . S
H195 C175 0.930 . S
H196 C187 0.929 . S
H197 C190 0.930 . S
C198 C199 1.351 . S
C198 N201 1.368 . S
C198 H203 0.931 . S
C199 C198 1.351 . S
C199 N200 1.373 . S
C199 H227 0.930 . S
N200 C199 1.373 . S
N200 C202 1.340 . S
N201 C198 1.368 . S
N201 C202 1.321 . S
N201 Co204 2.135 . S
C202 N200 1.340 . S
C202 N201 1.321 . S
C202 H226 0.930 . S
H203 C198 0.931 . S
Co204 N201 2.135 . S
Co204 N207 2.121 1_554 S
Co204 O212 2.055 . S
Co204 O215 2.039 . S
Co204 N218 2.140 . S
C205 O206 1.227 . S
C205 O215 1.265 . S
O206 C205 1.227 . S
N207 Co204 2.121 1_556 S
N207 C209 1.375 . S
N207 C210 1.313 . S
C208 C209 1.338 . S
C208 N211 1.377 . S
C208 H228 0.930 . S
C209 N207 1.375 . S
C209 C208 1.338 . S
C209 H213 0.931 . S
C210 N207 1.313 . S
C210 N211 1.344 . S
C210 H214 0.930 . S
N211 C208 1.377 . S
N211 C210 1.344 . S
O212 Co204 2.055 . S
O212 C216 1.253 . S
H213 C209 0.931 . S
H214 C210 0.930 . S
O215 Co204 2.039 . S
O215 C205 1.265 . S
C216 O212 1.253 . S
C216 O217 1.227 . S
O217 C216 1.227 . S
N218 Co204 2.140 . S
N218 C221 1.346 1_565 S
N218 C222 1.345 . S
C219 C220 1.387 . S
C219 C223 1.391 . S
C220 C219 1.387 . S
C220 C221 1.369 . S
C220 H229 0.929 . S
C221 N218 1.346 1_545 S
C221 C220 1.369 . S
C221 H224 0.928 . S
C222 N218 1.345 . S
C222 C223 1.371 1_565 S
C222 H225 0.931 1_554 S
C223 C219 1.391 . S
C223 C222 1.371 1_545 S
C223 H230 0.930 1_554 S
H224 C221 0.928 . S
H225 C222 0.931 1_556 S
H226 C202 0.930 . S
H227 C199 0.930 . S
H228 C208 0.930 . S
H229 C220 0.929 . S
H230 C223 0.930 1_556 S
C231 C232 1.351 . S
C231 N234 1.368 . S
C231 H236 0.931 . S
C232 C231 1.351 . S
C232 N233 1.373 . S
C232 H260 0.930 . S
N233 C232 1.373 . S
N233 C235 1.340 . S
N234 C231 1.368 . S
N234 C235 1.321 . S
N234 Co237 2.135 . S
C235 N233 1.340 . S
C235 N234 1.321 . S
C235 H259 0.930 . S
H236 C231 0.931 . S
Co237 N234 2.135 . S
Co237 N240 2.121 . S
Co237 O245 2.055 . S
Co237 O248 2.039 . S
Co237 N251 2.140 . S
C238 O239 1.227 . S
C238 O248 1.265 . S
O239 C238 1.227 . S
N240 Co237 2.121 . S
N240 C242 1.375 . S
N240 C243 1.313 . S
C241 C242 1.338 . S
C241 N244 1.377 . S
C241 H261 0.930 . S
C242 N240 1.375 . S
C242 C241 1.338 . S
C242 H246 0.931 . S
C243 N240 1.313 . S
C243 N244 1.344 . S
C243 H247 0.930 . S
N244 C241 1.377 . S
N244 C243 1.344 . S
O245 Co237 2.055 . S
O245 C249 1.253 . S
H246 C242 0.931 . S
H247 C243 0.930 . S
O248 Co237 2.039 . S
O248 C238 1.265 . S
C249 O245 1.253 . S
C249 O250 1.227 . S
O250 C249 1.227 . S
N251 Co237 2.140 . S
N251 C254 1.346 1_455 S
N251 C255 1.345 . S
C252 C253 1.387 . S
C252 C256 1.391 . S
C253 C252 1.387 . S
C253 C254 1.369 . S
C253 H262 0.929 . S
C254 N251 1.346 1_655 S
C254 C253 1.369 . S
C254 H257 0.928 . S
C255 N251 1.345 . S
C255 C256 1.371 1_455 S
C255 H258 0.931 . S
C256 C252 1.391 . S
C256 C255 1.371 1_655 S
C256 H263 0.930 . S
H257 C254 0.928 . S
H258 C255 0.931 . S
H259 C235 0.930 . S
H260 C232 0.930 . S
H261 C241 0.930 . S
H262 C253 0.929 . S
H263 C256 0.930 . S
C264 C265 1.170 . S
C264 C266 1.380 . S
C265 C264 1.170 . S
C266 C264 1.380 . S
C266 C267 1.170 . S
C267 C266 1.170 . S
C268 C269 1.170 . S
C268 C270 1.380 . S
C269 C268 1.170 . S
C270 C268 1.380 . S
C270 C271 1.170 . S
C271 C270 1.170 . S
C272 C273 1.170 . S
C272 C274 1.380 . S
C273 C272 1.170 . S
C274 C272 1.380 . S
C274 C275 1.170 . S
C275 C274 1.170 . S
C276 C277 1.170 . S
C276 C278 1.380 . S
C277 C276 1.170 . S
C278 C276 1.380 . S
C278 C279 1.170 . S
C279 C278 1.170 . S
C280 C281 1.170 . S
C280 C282 1.380 . S
C281 C280 1.170 . S
C282 C280 1.380 . S
C282 C283 1.170 . S
C283 C282 1.170 . S
C284 C285 1.170 . S
C284 C286 1.380 . S
C285 C284 1.170 . S
C286 C284 1.380 . S
C286 C287 1.170 . S
C287 C286 1.170 . S
C288 C289 1.170 . S
C288 C290 1.380 . S
C289 C288 1.170 . S
C290 C288 1.380 . S
C290 C291 1.170 . S
C291 C290 1.170 . S
C292 C293 1.170 . S
C292 C294 1.380 . S
C293 C292 1.170 . S
C294 C292 1.380 . S
C294 C295 1.170 . S
C295 C294 1.170 . S
C296 C297 1.170 . S
C296 C298 1.380 1_455 S
C297 C296 1.170 . S
C298 C296 1.380 1_655 S
C298 C299 1.170 . S
C299 C298 1.170 . S
C300 C301 1.170 . S
C300 C302 1.380 1_565 S
C301 C300 1.170 . S
C302 C300 1.380 1_545 S
C302 C303 1.170 . S
C303 C302 1.170 . S
C304 C305 1.170 . S
C304 C306 1.380 1_565 S
C305 C304 1.170 . S
C306 C304 1.380 1_545 S
C306 C307 1.170 . S
C307 C306 1.170 . S
C308 C309 1.170 . S
C308 C310 1.380 1_655 S
C309 C308 1.170 . S
C310 C308 1.380 1_455 S
C310 C311 1.170 . S
C311 C310 1.170 . S
C312 C313 1.170 . S
C312 C314 1.380 . S
C313 C312 1.170 . S
C314 C312 1.380 . S
C314 C315 1.170 . S
C315 C314 1.170 . S
C316 C317 1.170 . S
C316 C318 1.380 . S
C317 C316 1.170 . S
C318 C316 1.380 . S
C318 C319 1.170 . S
C319 C318 1.170 . S
C320 C321 1.170 . S
C320 C322 1.380 . S
C321 C320 1.170 . S
C322 C320 1.380 . S
C322 C323 1.170 . S
C323 C322 1.170 . S
C324 C325 1.170 . S
C324 C326 1.380 . S
C325 C324 1.170 . S
C326 C324 1.380 . S
C326 C327 1.170 . S
C327 C326 1.170 . S
C328 C329 1.170 . S
C328 C330 1.380 . S
C329 C328 1.170 . S
C330 C328 1.380 . S
C330 C331 1.170 . S
C331 C330 1.170 . S
C332 C333 1.170 . S
C332 C334 1.380 . S
C333 C332 1.170 . S
C334 C332 1.380 . S
C334 C335 1.170 . S
C335 C334 1.170 . S
C336 C337 1.170 . S
C336 C338 1.380 . S
C337 C336 1.170 . S
C338 C336 1.380 . S
C338 C339 1.170 . S
C339 C338 1.170 . S
C340 C341 1.170 . S
C340 C342 1.380 . S
C341 C340 1.170 . S
C342 C340 1.380 . S
C342 C343 1.170 . S
C343 C342 1.170 . S
C265 C219 1.581 . S
C267 C18 1.613 . S
C269 C252 1.558 . S
C271 C51 1.633 . S
C273 C153 1.572 . S
C275 C84 1.617 . S
C277 C186 1.552 . S
C279 C117 1.634 . S
C281 C87 1.584 . S
C283 C150 1.612 . S
C285 C120 1.567 . S
C287 C183 1.619 . S
C289 C21 1.591 . S
C291 C216 1.611 . S
C293 C249 1.623 . S
C295 C54 1.579 . S
C297 C7 0.688 . S
C299 C73 0.565 . S
C301 C106 0.642 . S
C303 C40 0.603 . S
C305 C205 0.637 . S
C307 C139 0.607 . S
C309 C172 0.564 . S
C311 C238 0.705 . S
C313 N13 1.729 . S
C315 N244 1.737 . S
C317 N145 1.736 . S
C319 N46 1.744 . S
C321 N178 1.740 . S
C323 N79 1.747 . S
C325 N211 1.719 . S
C327 N112 1.718 . S
C329 N68 1.460 . S
C331 N167 1.469 . S
C333 N101 1.422 . S
C335 N200 1.437 . S
C337 N233 1.454 . S
C339 N2 1.434 . S
C341 N134 1.467 . S
C343 N35 1.468 . S
