# Generated by pormake.
# Topology mer, (4)-cn, num edge types: 1
# Building blocks:
#     Node 0, Type 0, BuildingBlock: QUQFOY_clean_sbu_1, # of connection points: 4
#     Node 1, Type 0, BuildingBlock: QUQFOY_clean_sbu_1, # of connection points: 4
#     Node 2, Type 0, BuildingBlock: QUQFOY_clean_sbu_1, # of connection points: 4
#     Node 3, Type 0, BuildingBlock: QUQFOY_clean_sbu_1, # of connection points: 4
#     Node 4, Type 0, BuildingBlock: QUQFOY_clean_sbu_1, # of connection points: 4
#     Node 5, Type 0, BuildingBlock: QUQFOY_clean_sbu_1, # of connection points: 4
#     Node 6, Type 0, BuildingBlock: QUQFOY_clean_sbu_1, # of connection points: 4
#     Node 7, Type 0, BuildingBlock: QUQFOY_clean_sbu_1, # of connection points: 4
#     Node 8, Type 0, BuildingBlock: QUQFOY_clean_sbu_1, # of connection points: 4
#     Node 9, Type 0, BuildingBlock: QUQFOY_clean_sbu_1, # of connection points: 4
#     Node 10, Type 0, BuildingBlock: QUQFOY_clean_sbu_1, # of connection points: 4
#     Node 11, Type 0, BuildingBlock: QUQFOY_clean_sbu_1, # of connection points: 4
#     Node 12, Type 0, BuildingBlock: QUQFOY_clean_sbu_1, # of connection points: 4
#     Node 13, Type 0, BuildingBlock: QUQFOY_clean_sbu_1, # of connection points: 4
#     Node 14, Type 0, BuildingBlock: QUQFOY_clean_sbu_1, # of connection points: 4
#     Node 15, Type 0, BuildingBlock: QUQFOY_clean_sbu_1, # of connection points: 4
#     Node 16, Type 0, BuildingBlock: QUQFOY_clean_sbu_1, # of connection points: 4
#     Node 17, Type 0, BuildingBlock: QUQFOY_clean_sbu_1, # of connection points: 4
#     Node 18, Type 0, BuildingBlock: QUQFOY_clean_sbu_1, # of connection points: 4
#     Node 19, Type 0, BuildingBlock: QUQFOY_clean_sbu_1, # of connection points: 4
#     Node 20, Type 0, BuildingBlock: QUQFOY_clean_sbu_1, # of connection points: 4
#     Node 21, Type 0, BuildingBlock: QUQFOY_clean_sbu_1, # of connection points: 4
#     Node 22, Type 0, BuildingBlock: QUQFOY_clean_sbu_1, # of connection points: 4
#     Node 23, Type 0, BuildingBlock: QUQFOY_clean_sbu_1, # of connection points: 4
#     Node 24, Type 0, BuildingBlock: QUQFOY_clean_sbu_1, # of connection points: 4
#     Node 25, Type 0, BuildingBlock: QUQFOY_clean_sbu_1, # of connection points: 4
#     Node 26, Type 0, BuildingBlock: QUQFOY_clean_sbu_1, # of connection points: 4
#     Node 27, Type 0, BuildingBlock: QUQFOY_clean_sbu_1, # of connection points: 4
#     Node 28, Type 0, BuildingBlock: QUQFOY_clean_sbu_1, # of connection points: 4
#     Node 29, Type 0, BuildingBlock: QUQFOY_clean_sbu_1, # of connection points: 4
#     Node 30, Type 0, BuildingBlock: QUQFOY_clean_sbu_1, # of connection points: 4
#     Node 31, Type 0, BuildingBlock: QUQFOY_clean_sbu_1, # of connection points: 4
#     Edge 32, Type (0, 0), BuildingBlock: XIVTED_clean_linker_0, # of connection points: 2
#     Edge 33, Type (0, 0), BuildingBlock: XIVTED_clean_linker_0, # of connection points: 2
#     Edge 34, Type (0, 0), BuildingBlock: XIVTED_clean_linker_0, # of connection points: 2
#     Edge 35, Type (0, 0), BuildingBlock: XIVTED_clean_linker_0, # of connection points: 2
#     Edge 36, Type (0, 0), BuildingBlock: XIVTED_clean_linker_0, # of connection points: 2
#     Edge 37, Type (0, 0), BuildingBlock: XIVTED_clean_linker_0, # of connection points: 2
#     Edge 38, Type (0, 0), BuildingBlock: XIVTED_clean_linker_0, # of connection points: 2
#     Edge 39, Type (0, 0), BuildingBlock: XIVTED_clean_linker_0, # of connection points: 2
#     Edge 40, Type (0, 0), BuildingBlock: XIVTED_clean_linker_0, # of connection points: 2
#     Edge 41, Type (0, 0), BuildingBlock: XIVTED_clean_linker_0, # of connection points: 2
#     Edge 42, Type (0, 0), BuildingBlock: XIVTED_clean_linker_0, # of connection points: 2
#     Edge 43, Type (0, 0), BuildingBlock: XIVTED_clean_linker_0, # of connection points: 2
#     Edge 44, Type (0, 0), BuildingBlock: XIVTED_clean_linker_0, # of connection points: 2
#     Edge 45, Type (0, 0), BuildingBlock: XIVTED_clean_linker_0, # of connection points: 2
#     Edge 46, Type (0, 0), BuildingBlock: XIVTED_clean_linker_0, # of connection points: 2
#     Edge 47, Type (0, 0), BuildingBlock: XIVTED_clean_linker_0, # of connection points: 2
#     Edge 48, Type (0, 0), BuildingBlock: XIVTED_clean_linker_0, # of connection points: 2
#     Edge 49, Type (0, 0), BuildingBlock: XIVTED_clean_linker_0, # of connection points: 2
#     Edge 50, Type (0, 0), BuildingBlock: XIVTED_clean_linker_0, # of connection points: 2
#     Edge 51, Type (0, 0), BuildingBlock: XIVTED_clean_linker_0, # of connection points: 2
#     Edge 52, Type (0, 0), BuildingBlock: XIVTED_clean_linker_0, # of connection points: 2
#     Edge 53, Type (0, 0), BuildingBlock: XIVTED_clean_linker_0, # of connection points: 2
#     Edge 54, Type (0, 0), BuildingBlock: XIVTED_clean_linker_0, # of connection points: 2
#     Edge 55, Type (0, 0), BuildingBlock: XIVTED_clean_linker_0, # of connection points: 2
#     Edge 56, Type (0, 0), BuildingBlock: XIVTED_clean_linker_0, # of connection points: 2
#     Edge 57, Type (0, 0), BuildingBlock: XIVTED_clean_linker_0, # of connection points: 2
#     Edge 58, Type (0, 0), BuildingBlock: XIVTED_clean_linker_0, # of connection points: 2
#     Edge 59, Type (0, 0), BuildingBlock: XIVTED_clean_linker_0, # of connection points: 2
#     Edge 60, Type (0, 0), BuildingBlock: XIVTED_clean_linker_0, # of connection points: 2
#     Edge 61, Type (0, 0), BuildingBlock: XIVTED_clean_linker_0, # of connection points: 2
#     Edge 62, Type (0, 0), BuildingBlock: XIVTED_clean_linker_0, # of connection points: 2
#     Edge 63, Type (0, 0), BuildingBlock: XIVTED_clean_linker_0, # of connection points: 2
#     Edge 64, Type (0, 0), BuildingBlock: XIVTED_clean_linker_0, # of connection points: 2
#     Edge 65, Type (0, 0), BuildingBlock: XIVTED_clean_linker_0, # of connection points: 2
#     Edge 66, Type (0, 0), BuildingBlock: XIVTED_clean_linker_0, # of connection points: 2
#     Edge 67, Type (0, 0), BuildingBlock: XIVTED_clean_linker_0, # of connection points: 2
#     Edge 68, Type (0, 0), BuildingBlock: XIVTED_clean_linker_0, # of connection points: 2
#     Edge 69, Type (0, 0), BuildingBlock: XIVTED_clean_linker_0, # of connection points: 2
#     Edge 70, Type (0, 0), BuildingBlock: XIVTED_clean_linker_0, # of connection points: 2
#     Edge 71, Type (0, 0), BuildingBlock: XIVTED_clean_linker_0, # of connection points: 2
#     Edge 72, Type (0, 0), BuildingBlock: XIVTED_clean_linker_0, # of connection points: 2
#     Edge 73, Type (0, 0), BuildingBlock: XIVTED_clean_linker_0, # of connection points: 2
#     Edge 74, Type (0, 0), BuildingBlock: XIVTED_clean_linker_0, # of connection points: 2
#     Edge 75, Type (0, 0), BuildingBlock: XIVTED_clean_linker_0, # of connection points: 2
#     Edge 76, Type (0, 0), BuildingBlock: XIVTED_clean_linker_0, # of connection points: 2
#     Edge 77, Type (0, 0), BuildingBlock: XIVTED_clean_linker_0, # of connection points: 2
#     Edge 78, Type (0, 0), BuildingBlock: XIVTED_clean_linker_0, # of connection points: 2
#     Edge 79, Type (0, 0), BuildingBlock: XIVTED_clean_linker_0, # of connection points: 2
#     Edge 80, Type (0, 0), BuildingBlock: XIVTED_clean_linker_0, # of connection points: 2
#     Edge 81, Type (0, 0), BuildingBlock: XIVTED_clean_linker_0, # of connection points: 2
#     Edge 82, Type (0, 0), BuildingBlock: XIVTED_clean_linker_0, # of connection points: 2
#     Edge 83, Type (0, 0), BuildingBlock: XIVTED_clean_linker_0, # of connection points: 2
#     Edge 84, Type (0, 0), BuildingBlock: XIVTED_clean_linker_0, # of connection points: 2
#     Edge 85, Type (0, 0), BuildingBlock: XIVTED_clean_linker_0, # of connection points: 2
#     Edge 86, Type (0, 0), BuildingBlock: XIVTED_clean_linker_0, # of connection points: 2
#     Edge 87, Type (0, 0), BuildingBlock: XIVTED_clean_linker_0, # of connection points: 2
#     Edge 88, Type (0, 0), BuildingBlock: XIVTED_clean_linker_0, # of connection points: 2
#     Edge 89, Type (0, 0), BuildingBlock: XIVTED_clean_linker_0, # of connection points: 2
#     Edge 90, Type (0, 0), BuildingBlock: XIVTED_clean_linker_0, # of connection points: 2
#     Edge 91, Type (0, 0), BuildingBlock: XIVTED_clean_linker_0, # of connection points: 2
#     Edge 92, Type (0, 0), BuildingBlock: XIVTED_clean_linker_0, # of connection points: 2
#     Edge 93, Type (0, 0), BuildingBlock: XIVTED_clean_linker_0, # of connection points: 2
#     Edge 94, Type (0, 0), BuildingBlock: XIVTED_clean_linker_0, # of connection points: 2
#     Edge 95, Type (0, 0), BuildingBlock: XIVTED_clean_linker_0, # of connection points: 2
# Relax obj value: 0.010
# Max RMSD: 0.056
# Mean RMSD: 0.056
data_MOF--net-mer--node1-QUQFOY_clean_sbu_1--edge1-XIVTED_clean_linker_0
_symmetry_space_group_name_H-M    P1
_symmetry_Int_Tables_number       1
_symmetry_cell_setting            triclinic
loop_
_symmetry_equiv_pos_as_xyz
'x, y, z'
_cell_length_a     67.958353
_cell_length_b     67.944211
_cell_length_c     54.81026
_cell_angle_alpha  90.005008
_cell_angle_beta   89.995986
_cell_angle_gamma 89.996743
loop_
_atom_site_label
_atom_site_type_symbol
_atom_site_fract_x
_atom_site_fract_y
_atom_site_fract_z
_atom_type_partial_charge
O0 O 0.15565 0.27196 0.36487 0.0
Cd1 Cd 0.1381 0.29651 0.36885 0.0
Cd2 Cd 0.10952 0.26903 0.37275 0.0
O3 O 0.13183 0.25004 0.36203 0.0
O4 O 0.15252 0.31856 0.35281 0.0
O5 O 0.12446 0.30648 0.33876 0.0
C6 C 0.13914 0.3184 0.33609 0.0
C7 C 0.07758 0.26562 0.35712 0.0
C8 C 0.15005 0.25433 0.36137 0.0
C9 C 0.11903 0.29397 0.41734 0.0
O10 O 0.1102 0.27917 0.40828 0.0
O11 O 0.13045 0.30432 0.40416 0.0
O12 O 0.08506 0.25283 0.37179 0.0
O13 O 0.0886 0.28011 0.35032 0.0
O14 O 0.73721 0.15668 0.36437 0.0
Cd15 Cd 0.71264 0.13914 0.36815 0.0
Cd16 Cd 0.74012 0.11036 0.37177 0.0
O17 O 0.75899 0.13276 0.36104 0.0
O18 O 0.69043 0.15394 0.35302 0.0
O19 O 0.70239 0.12627 0.33764 0.0
C20 C 0.69042 0.14099 0.33578 0.0
C21 C 0.74388 0.07841 0.35624 0.0
C22 C 0.75479 0.15101 0.36066 0.0
C23 C 0.7153 0.11971 0.41648 0.0
O24 O 0.73011 0.11094 0.40736 0.0
O25 O 0.70492 0.13115 0.40337 0.0
O26 O 0.75661 0.08609 0.37082 0.0
O27 O 0.72923 0.08922 0.34948 0.0
O28 O 0.85455 0.73937 0.36432 0.0
Cd29 Cd 0.87226 0.71493 0.36812 0.0
Cd30 Cd 0.90078 0.74254 0.37154 0.0
O31 O 0.87827 0.76136 0.36096 0.0
O32 O 0.8578 0.6926 0.35273 0.0
O33 O 0.88543 0.70493 0.33772 0.0
C34 C 0.87087 0.69279 0.33563 0.0
C35 C 0.93263 0.74594 0.35561 0.0
C36 C 0.86005 0.75701 0.36062 0.0
C37 C 0.89179 0.71773 0.41635 0.0
O38 O 0.90044 0.73256 0.40713 0.0
O39 O 0.88032 0.70729 0.40335 0.0
O40 O 0.92518 0.75881 0.37019 0.0
O41 O 0.9216 0.7314 0.34901 0.0
O42 O 0.27275 0.85428 0.36468 0.0
Cd43 Cd 0.29738 0.87172 0.36843 0.0
Cd44 Cd 0.26999 0.9006 0.37216 0.0
O45 O 0.25098 0.87822 0.36167 0.0
O46 O 0.31932 0.85715 0.35236 0.0
O47 O 0.30728 0.8852 0.3382 0.0
C48 C 0.31913 0.87046 0.33555 0.0
C49 C 0.26603 0.93257 0.35676 0.0
C50 C 0.25516 0.85997 0.36115 0.0
C51 C 0.29508 0.89115 0.41672 0.0
O52 O 0.28036 0.90006 0.40759 0.0
O53 O 0.30528 0.8795 0.40367 0.0
O54 O 0.25347 0.92486 0.37153 0.0
O55 O 0.28061 0.92178 0.34973 0.0
O56 O 0.15599 0.73805 0.65072 0.0
Cd57 Cd 0.13851 0.71344 0.64689 0.0
Cd58 Cd 0.10984 0.74091 0.64272 0.0
O59 O 0.13214 0.75996 0.65332 0.0
O60 O 0.15302 0.69149 0.66304 0.0
O61 O 0.12493 0.70353 0.67706 0.0
C62 C 0.13966 0.69167 0.67978 0.0
C63 C 0.07785 0.74448 0.65819 0.0
C64 C 0.15036 0.75569 0.65407 0.0
C65 C 0.11947 0.71572 0.59835 0.0
O66 O 0.11059 0.73054 0.60729 0.0
O67 O 0.13092 0.70547 0.61161 0.0
O68 O 0.08539 0.75715 0.64342 0.0
O69 O 0.08883 0.73002 0.66518 0.0
O70 O 0.27217 0.15586 0.65114 0.0
Cd71 Cd 0.2968 0.13842 0.64721 0.0
Cd72 Cd 0.26947 0.10956 0.64368 0.0
O73 O 0.25046 0.13188 0.65434 0.0
O74 O 0.31898 0.15306 0.66268 0.0
O75 O 0.30693 0.12524 0.67755 0.0
C76 C 0.31892 0.13993 0.67971 0.0
C77 C 0.26604 0.0776 0.65929 0.0
C78 C 0.25461 0.15015 0.65481 0.0
C79 C 0.29425 0.11895 0.59893 0.0
O80 O 0.27954 0.11008 0.60812 0.0
O81 O 0.30452 0.13055 0.61195 0.0
O82 O 0.25324 0.08511 0.64468 0.0
O83 O 0.28053 0.08861 0.66609 0.0
O84 O 0.85411 0.27298 0.65106 0.0
Cd85 Cd 0.87199 0.29729 0.64715 0.0
Cd86 Cd 0.90034 0.26942 0.64412 0.0
O87 O 0.87764 0.25082 0.65466 0.0
O88 O 0.8574 0.31981 0.6619 0.0
O89 O 0.88484 0.3076 0.67761 0.0
C90 C 0.87027 0.31979 0.67922 0.0
C91 C 0.93209 0.26586 0.66028 0.0
C92 C 0.85946 0.25532 0.6549 0.0
C93 C 0.89173 0.29408 0.59909 0.0
O94 O 0.90025 0.27922 0.60845 0.0
O95 O 0.88029 0.30466 0.61195 0.0
O96 O 0.92461 0.25297 0.64576 0.0
O97 O 0.92114 0.28052 0.6667 0.0
O98 O 0.73715 0.85387 0.651 0.0
Cd99 Cd 0.71245 0.87124 0.64719 0.0
Cd100 Cd 0.73978 0.90018 0.64344 0.0
O101 O 0.75883 0.8779 0.65408 0.0
O102 O 0.69034 0.85624 0.66228 0.0
O103 O 0.70206 0.884 0.67769 0.0
C104 C 0.6902 0.86918 0.67952 0.0
C105 C 0.74332 0.93213 0.65904 0.0
C106 C 0.75472 0.85963 0.65459 0.0
C107 C 0.71489 0.8907 0.59885 0.0
O108 O 0.72965 0.89957 0.60791 0.0
O109 O 0.70464 0.87917 0.61198 0.0
O110 O 0.75604 0.92459 0.64434 0.0
O111 O 0.72881 0.92117 0.66589 0.0
O112 O 0.85392 0.73784 0.6508 0.0
Cd113 Cd 0.87175 0.71351 0.64659 0.0
Cd114 Cd 0.90002 0.74159 0.64294 0.0
O115 O 0.87739 0.76012 0.65388 0.0
O116 O 0.85679 0.69105 0.66089 0.0
O117 O 0.88433 0.70263 0.67699 0.0
C118 C 0.86958 0.69065 0.67828 0.0
C119 C 0.93194 0.7454 0.65849 0.0
C120 C 0.85924 0.75553 0.65448 0.0
C121 C 0.89096 0.71683 0.59813 0.0
O122 O 0.8995 0.73176 0.60729 0.0
O123 O 0.87976 0.70619 0.61124 0.0
O124 O 0.92418 0.75821 0.64408 0.0
O125 O 0.92119 0.73066 0.66512 0.0
O126 O 0.27332 0.85353 0.65074 0.0
Cd127 Cd 0.29777 0.87123 0.6469 0.0
Cd128 Cd 0.27008 0.89975 0.64275 0.0
O129 O 0.25126 0.87725 0.65333 0.0
O130 O 0.32 0.85675 0.66247 0.0
O131 O 0.30774 0.88448 0.67727 0.0
C132 C 0.31981 0.86987 0.67949 0.0
C133 C 0.2661 0.93168 0.65827 0.0
C134 C 0.25564 0.85905 0.65408 0.0
C135 C 0.2953 0.8904 0.59838 0.0
O136 O 0.28041 0.89917 0.60731 0.0
O137 O 0.30561 0.87901 0.61164 0.0
O138 O 0.25351 0.92397 0.64353 0.0
O139 O 0.28073 0.9209 0.66519 0.0
O140 O 0.15585 0.27232 0.65148 0.0
Cd141 Cd 0.1381 0.29671 0.64737 0.0
Cd142 Cd 0.10965 0.26878 0.64405 0.0
O143 O 0.13229 0.25015 0.65469 0.0
O144 O 0.15315 0.31914 0.66159 0.0
O145 O 0.12564 0.30761 0.67782 0.0
C146 C 0.14042 0.31956 0.67905 0.0
C147 C 0.07785 0.26503 0.66001 0.0
C148 C 0.15047 0.25465 0.65517 0.0
C149 C 0.11851 0.29349 0.59913 0.0
O150 O 0.10989 0.27867 0.60841 0.0
O151 O 0.12996 0.30401 0.61206 0.0
O152 O 0.08545 0.25221 0.64548 0.0
O153 O 0.08868 0.27975 0.66651 0.0
O154 O 0.73793 0.15623 0.65035 0.0
Cd155 Cd 0.71344 0.1386 0.64647 0.0
Cd156 Cd 0.74092 0.1099 0.64306 0.0
O157 O 0.75975 0.13237 0.65375 0.0
O158 O 0.69115 0.15303 0.66196 0.0
O159 O 0.70347 0.12533 0.67682 0.0
C160 C 0.69135 0.13991 0.679 0.0
C161 C 0.7446 0.07801 0.65879 0.0
C162 C 0.75552 0.15061 0.65412 0.0
C163 C 0.71616 0.11905 0.59824 0.0
O164 O 0.73093 0.1103 0.60746 0.0
O165 O 0.7058 0.13059 0.61123 0.0
O166 O 0.75738 0.08561 0.64423 0.0
O167 O 0.72996 0.08888 0.66545 0.0
O168 O 0.85371 0.27311 0.36504 0.0
Cd169 Cd 0.87171 0.29733 0.36902 0.0
Cd170 Cd 0.89987 0.26929 0.37265 0.0
O171 O 0.87717 0.25083 0.3618 0.0
O172 O 0.85727 0.31987 0.35411 0.0
O173 O 0.88472 0.30754 0.3386 0.0
C174 C 0.8702 0.31976 0.33687 0.0
C175 C 0.93173 0.26535 0.35698 0.0
C176 C 0.85902 0.25542 0.36131 0.0
C177 C 0.89101 0.2942 0.41738 0.0
O178 O 0.89946 0.2792 0.40828 0.0
O179 O 0.87982 0.30483 0.40425 0.0
O180 O 0.92397 0.25258 0.37145 0.0
O181 O 0.92102 0.28012 0.35037 0.0
O182 O 0.73676 0.8544 0.36491 0.0
Cd183 Cd 0.71225 0.87201 0.36888 0.0
Cd184 Cd 0.73982 0.90068 0.37227 0.0
O185 O 0.75867 0.8782 0.36165 0.0
O186 O 0.68994 0.85731 0.35383 0.0
O187 O 0.70196 0.88495 0.33846 0.0
C188 C 0.68993 0.87027 0.33662 0.0
C189 C 0.74329 0.93253 0.35636 0.0
C190 C 0.75437 0.85997 0.36121 0.0
C191 C 0.71508 0.89158 0.41711 0.0
O192 O 0.72985 0.90033 0.40787 0.0
O193 O 0.7047 0.88005 0.40415 0.0
O194 O 0.75612 0.92506 0.37096 0.0
O195 O 0.72873 0.92153 0.34974 0.0
O196 O 0.15653 0.73761 0.36457 0.0
Cd197 Cd 0.13865 0.7133 0.36838 0.0
Cd198 Cd 0.11026 0.7412 0.37198 0.0
O199 O 0.13298 0.75981 0.36152 0.0
O200 O 0.15298 0.6909 0.35294 0.0
O201 O 0.12542 0.70341 0.33794 0.0
C202 C 0.13993 0.6912 0.33583 0.0
C203 C 0.07845 0.74539 0.35621 0.0
C204 C 0.15115 0.75531 0.36102 0.0
C205 C 0.11912 0.71611 0.41664 0.0
O206 O 0.1105 0.73099 0.40748 0.0
O207 O 0.13058 0.70568 0.40361 0.0
O208 O 0.08619 0.75798 0.37092 0.0
O209 O 0.08913 0.73065 0.34943 0.0
O210 O 0.27303 0.15658 0.36481 0.0
Cd211 Cd 0.2975 0.13891 0.36872 0.0
Cd212 Cd 0.2699 0.11041 0.37263 0.0
O213 O 0.25103 0.13284 0.36194 0.0
O214 O 0.31975 0.15336 0.35315 0.0
O215 O 0.30747 0.12562 0.33838 0.0
C216 C 0.31954 0.14022 0.33614 0.0
C217 C 0.26641 0.07849 0.35694 0.0
C218 C 0.25539 0.15105 0.3613 0.0
C219 C 0.29486 0.11974 0.4172 0.0
O220 O 0.28 0.111 0.40817 0.0
O221 O 0.30525 0.1311 0.404 0.0
O222 O 0.25363 0.086 0.37159 0.0
O223 O 0.28093 0.08948 0.35018 0.0
O224 O 0.65582 0.77136 0.86494 0.0
Cd225 Cd 0.63815 0.79584 0.86875 0.0
Cd226 Cd 0.60952 0.76816 0.87226 0.0
O227 O 0.63208 0.74939 0.86171 0.0
O228 O 0.65284 0.81817 0.8537 0.0
O229 O 0.62527 0.80607 0.83825 0.0
C230 C 0.63991 0.81814 0.83645 0.0
C231 C 0.57765 0.76429 0.85656 0.0
C232 C 0.65029 0.75373 0.86129 0.0
C233 C 0.61853 0.7931 0.91697 0.0
O234 O 0.60985 0.77826 0.9078 0.0
O235 O 0.63003 0.80349 0.90396 0.0
O236 O 0.58532 0.75159 0.87118 0.0
O237 O 0.58846 0.77896 0.84981 0.0
O238 O 0.23762 0.65575 0.86451 0.0
Cd239 Cd 0.21288 0.63848 0.86857 0.0
Cd240 Cd 0.2404 0.60949 0.87252 0.0
O241 O 0.25938 0.63178 0.86171 0.0
O242 O 0.19081 0.65399 0.85421 0.0
O243 O 0.20176 0.62619 0.83811 0.0
C244 C 0.19013 0.64122 0.8368 0.0
C245 C 0.2442 0.57744 0.85731 0.0
C246 C 0.25521 0.65002 0.86101 0.0
C247 C 0.21552 0.6192 0.91708 0.0
O248 O 0.23027 0.61028 0.90804 0.0
O249 O 0.20524 0.63067 0.90389 0.0
O250 O 0.25686 0.58519 0.87192 0.0
O251 O 0.2296 0.58823 0.85034 0.0
O252 O 0.35404 0.2377 0.86467 0.0
Cd253 Cd 0.37158 0.21313 0.8685 0.0
Cd254 Cd 0.40032 0.24054 0.87195 0.0
O255 O 0.37792 0.25952 0.86144 0.0
O256 O 0.35701 0.1909 0.85303 0.0
O257 O 0.38475 0.20309 0.83812 0.0
C258 C 0.37011 0.19104 0.83597 0.0
C259 C 0.4322 0.24396 0.85611 0.0
C260 C 0.35968 0.2553 0.86104 0.0
C261 C 0.39112 0.21574 0.91673 0.0
O262 O 0.39993 0.23048 0.90751 0.0
O263 O 0.37953 0.20543 0.90374 0.0
O264 O 0.42475 0.25678 0.87076 0.0
O265 O 0.42117 0.22946 0.8494 0.0
O266 O 0.77257 0.35418 0.86392 0.0
Cd267 Cd 0.79685 0.37214 0.86791 0.0
Cd268 Cd 0.76875 0.40001 0.87309 0.0
O269 O 0.75017 0.37759 0.86174 0.0
O270 O 0.8192 0.35751 0.85285 0.0
O271 O 0.80718 0.38514 0.83751 0.0
C272 C 0.81925 0.37051 0.83569 0.0
C273 C 0.76517 0.43212 0.8581 0.0
C274 C 0.75481 0.35947 0.86066 0.0
C275 C 0.79408 0.39034 0.91704 0.0
O276 O 0.77882 0.39876 0.90861 0.0
O277 O 0.80473 0.37975 0.90319 0.0
O278 O 0.75237 0.42435 0.8725 0.0
O279 O 0.77979 0.42131 0.85121 0.0
O280 O 0.65591 0.23858 0.15033 0.0
Cd281 Cd 0.63844 0.21397 0.14635 0.0
Cd282 Cd 0.60957 0.24145 0.14278 0.0
O283 O 0.63198 0.26035 0.15346 0.0
O284 O 0.65323 0.19173 0.16145 0.0
O285 O 0.62551 0.20363 0.17676 0.0
C286 C 0.64023 0.19166 0.17863 0.0
C287 C 0.57764 0.24524 0.15833 0.0
C288 C 0.65022 0.25616 0.15398 0.0
C289 C 0.61891 0.2166 0.09806 0.0
O290 O 0.61006 0.23134 0.10723 0.0
O291 O 0.6305 0.20632 0.11109 0.0
O292 O 0.5853 0.25794 0.14371 0.0
O293 O 0.58846 0.23061 0.16514 0.0
O294 O 0.77327 0.65692 0.15068 0.0
Cd295 Cd 0.79792 0.63949 0.14692 0.0
Cd296 Cd 0.7705 0.6105 0.14321 0.0
O297 O 0.75155 0.63293 0.15374 0.0
O298 O 0.82003 0.65421 0.1624 0.0
O299 O 0.80801 0.62641 0.17735 0.0
C300 C 0.81996 0.64113 0.17949 0.0
C301 C 0.76638 0.57851 0.15849 0.0
C302 C 0.75569 0.65119 0.15424 0.0
C303 C 0.7956 0.61991 0.09868 0.0
O304 O 0.78087 0.61101 0.10779 0.0
O305 O 0.80577 0.63158 0.11173 0.0
O306 O 0.75387 0.58633 0.14375 0.0
O307 O 0.781 0.58921 0.16559 0.0
O308 O 0.35454 0.77181 0.15109 0.0
Cd309 Cd 0.37189 0.7965 0.147 0.0
Cd310 Cd 0.40081 0.76899 0.14368 0.0
O311 O 0.37845 0.75001 0.1543 0.0
O312 O 0.3565 0.8187 0.16124 0.0
O313 O 0.3842 0.8076 0.17744 0.0
C314 C 0.36925 0.81933 0.17868 0.0
C315 C 0.43271 0.76563 0.15949 0.0
C316 C 0.36021 0.75422 0.15476 0.0
C317 C 0.39154 0.7936 0.09876 0.0
O318 O 0.40039 0.77892 0.10806 0.0
O319 O 0.37992 0.80393 0.11169 0.0
O320 O 0.42525 0.75277 0.14491 0.0
O321 O 0.42167 0.78016 0.16615 0.0
O322 O 0.23671 0.35388 0.15149 0.0
Cd323 Cd 0.21221 0.37148 0.14743 0.0
Cd324 Cd 0.24009 0.40014 0.14383 0.0
O325 O 0.25881 0.37754 0.15441 0.0
O326 O 0.18992 0.35625 0.16169 0.0
O327 O 0.20124 0.38385 0.17792 0.0
C328 C 0.18941 0.36898 0.17915 0.0
C329 C 0.24412 0.43205 0.15941 0.0
C330 C 0.25437 0.35935 0.15501 0.0
C331 C 0.21517 0.391 0.09912 0.0
O332 O 0.22996 0.39975 0.1083 0.0
O333 O 0.20478 0.37951 0.11213 0.0
O334 O 0.25676 0.42429 0.14478 0.0
O335 O 0.22942 0.42132 0.16623 0.0
O336 O 0.35357 0.23793 0.15085 0.0
Cd337 Cd 0.37111 0.21336 0.14693 0.0
Cd338 Cd 0.39979 0.24081 0.14292 0.0
O339 O 0.37746 0.25978 0.15363 0.0
O340 O 0.35663 0.19117 0.16257 0.0
O341 O 0.38445 0.20335 0.17721 0.0
C342 C 0.36982 0.1913 0.1795 0.0
C343 C 0.43175 0.24435 0.15847 0.0
C344 C 0.35922 0.25555 0.15432 0.0
C345 C 0.39029 0.2158 0.09844 0.0
O346 O 0.39913 0.23061 0.10742 0.0
O347 O 0.37885 0.20552 0.11166 0.0
O348 O 0.4242 0.25708 0.14378 0.0
O349 O 0.42078 0.22984 0.16534 0.0
O350 O 0.77271 0.35454 0.15197 0.0
Cd351 Cd 0.79719 0.3722 0.14798 0.0
Cd352 Cd 0.76943 0.40044 0.14279 0.0
O353 O 0.75051 0.37816 0.15374 0.0
O354 O 0.81938 0.35737 0.1631 0.0
O355 O 0.80766 0.38518 0.17832 0.0
C356 C 0.81958 0.37042 0.1802 0.0
C357 C 0.76615 0.4325 0.15809 0.0
C358 C 0.75498 0.36 0.15496 0.0
C359 C 0.79478 0.39055 0.09889 0.0
O360 O 0.77971 0.39931 0.10735 0.0
O361 O 0.80514 0.37962 0.11266 0.0
O362 O 0.75336 0.42499 0.14346 0.0
O363 O 0.78057 0.42144 0.16503 0.0
O364 O 0.65659 0.77317 0.15096 0.0
Cd365 Cd 0.63861 0.79741 0.14706 0.0
Cd366 Cd 0.61043 0.7694 0.14342 0.0
O367 O 0.63314 0.75089 0.15415 0.0
O368 O 0.65301 0.81991 0.16215 0.0
O369 O 0.62555 0.8075 0.17751 0.0
C370 C 0.64005 0.81973 0.17936 0.0
C371 C 0.57857 0.76548 0.15915 0.0
C372 C 0.65129 0.75547 0.15462 0.0
C373 C 0.61931 0.79431 0.09869 0.0
O374 O 0.61082 0.77935 0.10782 0.0
O375 O 0.63053 0.80492 0.1118 0.0
O376 O 0.5863 0.75273 0.14464 0.0
O377 O 0.58931 0.78023 0.16576 0.0
O378 O 0.23756 0.65607 0.15103 0.0
Cd379 Cd 0.2131 0.6384 0.14711 0.0
Cd380 Cd 0.24076 0.60984 0.14362 0.0
O381 O 0.25958 0.63237 0.1542 0.0
O382 O 0.19079 0.65293 0.16246 0.0
O383 O 0.20301 0.62526 0.1775 0.0
C384 C 0.19093 0.63988 0.17957 0.0
C385 C 0.24421 0.57797 0.15949 0.0
C386 C 0.2552 0.65058 0.15467 0.0
C387 C 0.21591 0.61889 0.09885 0.0
O388 O 0.23072 0.61019 0.10806 0.0
O389 O 0.2055 0.63039 0.11184 0.0
O390 O 0.25705 0.58544 0.14489 0.0
O391 O 0.22968 0.58899 0.16615 0.0
O392 O 0.3538 0.77232 0.86452 0.0
Cd393 Cd 0.37162 0.79668 0.86849 0.0
Cd394 Cd 0.39992 0.76886 0.87242 0.0
O395 O 0.37738 0.75014 0.86171 0.0
O396 O 0.35728 0.81904 0.853 0.0
O397 O 0.38495 0.80665 0.83817 0.0
C398 C 0.37041 0.81881 0.83599 0.0
C399 C 0.43181 0.76525 0.85668 0.0
C400 C 0.35921 0.75463 0.86103 0.0
C401 C 0.39076 0.79387 0.91699 0.0
O402 O 0.3994 0.77895 0.90796 0.0
O403 O 0.37947 0.80434 0.90379 0.0
O404 O 0.42426 0.75247 0.8713 0.0
O405 O 0.42088 0.77983 0.84996 0.0
O406 O 0.23694 0.35336 0.86488 0.0
Cd407 Cd 0.21244 0.37098 0.86886 0.0
Cd408 Cd 0.24005 0.39947 0.87296 0.0
O409 O 0.25899 0.37708 0.86228 0.0
O410 O 0.19038 0.35658 0.8528 0.0
O411 O 0.2025 0.38464 0.83877 0.0
C412 C 0.19057 0.36996 0.83608 0.0
C413 C 0.24359 0.43145 0.85746 0.0
C414 C 0.2546 0.35888 0.8615 0.0
C415 C 0.21492 0.38999 0.9174 0.0
O416 O 0.22977 0.39878 0.90842 0.0
O417 O 0.20459 0.37859 0.90417 0.0
O418 O 0.25631 0.4239 0.87216 0.0
O419 O 0.22911 0.42047 0.85054 0.0
O420 O 0.65637 0.23747 0.86397 0.0
Cd421 Cd 0.63886 0.21289 0.86791 0.0
Cd422 Cd 0.61005 0.24029 0.87163 0.0
O423 O 0.6324 0.25921 0.86086 0.0
O424 O 0.65343 0.19068 0.8524 0.0
O425 O 0.62563 0.20279 0.83759 0.0
C426 C 0.64029 0.19078 0.83539 0.0
C427 C 0.57807 0.24412 0.85622 0.0
C428 C 0.65065 0.25505 0.86033 0.0
C429 C 0.61956 0.21548 0.91631 0.0
O430 O 0.6107 0.23023 0.9072 0.0
O431 O 0.63105 0.20516 0.90319 0.0
O432 O 0.58579 0.2568 0.87082 0.0
O433 O 0.58885 0.22947 0.84937 0.0
O434 O 0.77364 0.6564 0.86449 0.0
Cd435 Cd 0.79825 0.63894 0.8684 0.0
Cd436 Cd 0.77074 0.61027 0.87291 0.0
O437 O 0.75168 0.63257 0.86229 0.0
O438 O 0.82015 0.65346 0.85219 0.0
O439 O 0.8082 0.62529 0.8383 0.0
C440 C 0.82002 0.64005 0.83551 0.0
C441 C 0.76692 0.57819 0.85781 0.0
C442 C 0.75598 0.65078 0.86133 0.0
C443 C 0.79612 0.62009 0.91707 0.0
O444 O 0.7813 0.61115 0.90824 0.0
O445 O 0.80629 0.63153 0.9037 0.0
O446 O 0.75439 0.58589 0.87263 0.0
O447 O 0.78137 0.58906 0.85055 0.0
H448 H 0.25989 0.19084 0.35612 0.0
H449 H 0.1444 0.2143 0.35783 0.0
H450 H 0.2153 0.1456 0.35838 0.0
H451 H 0.18991 0.25863 0.35684 0.0
H452 H 0.16979 0.18881 0.35491 0.0
H453 H 0.23415 0.21566 0.35319 0.0
C454 C 0.24468 0.18608 0.35587 0.0
C455 C 0.23979 0.16606 0.35767 0.0
C456 C 0.17418 0.20413 0.35518 0.0
C457 C 0.21009 0.19458 0.35443 0.0
C458 C 0.15969 0.2187 0.35681 0.0
C459 C 0.165 0.23867 0.35774 0.0
C460 C 0.19413 0.20955 0.35447 0.0
C461 C 0.18508 0.24346 0.35633 0.0
C462 C 0.22995 0.20031 0.3542 0.0
C463 C 0.21978 0.16086 0.3571 0.0
N464 N 0.19886 0.22903 0.35489 0.0
N465 N 0.20566 0.17503 0.3557 0.0
H466 H 0.79472 0.14509 0.35648 0.0
H467 H 0.81923 0.26039 0.35673 0.0
H468 H 0.75078 0.19099 0.35699 0.0
H469 H 0.86402 0.21532 0.3576 0.0
H470 H 0.79413 0.23493 0.35364 0.0
H471 H 0.82039 0.17029 0.35375 0.0
C472 C 0.79044 0.16043 0.35583 0.0
C473 C 0.77052 0.1659 0.35713 0.0
C474 C 0.80944 0.23056 0.35437 0.0
C475 C 0.79986 0.19483 0.35408 0.0
C476 C 0.82383 0.24513 0.35613 0.0
C477 C 0.84381 0.24002 0.35759 0.0
C478 C 0.81498 0.21065 0.35415 0.0
C479 C 0.84881 0.21996 0.3566 0.0
C480 C 0.80511 0.17482 0.35431 0.0
C481 C 0.7659 0.18603 0.35619 0.0
N482 N 0.83448 0.20601 0.3551 0.0
N483 N 0.78043 0.19972 0.35484 0.0
H484 H 0.86554 0.79704 0.35672 0.0
H485 H 0.74996 0.82013 0.35649 0.0
H486 H 0.82016 0.75256 0.35675 0.0
H487 H 0.79441 0.86552 0.35777 0.0
H488 H 0.77575 0.79537 0.35345 0.0
H489 H 0.84004 0.82243 0.35402 0.0
C490 C 0.85025 0.79258 0.35597 0.0
C491 C 0.84502 0.7726 0.35712 0.0
C492 C 0.77991 0.81074 0.35427 0.0
C493 C 0.81576 0.80161 0.35411 0.0
C494 C 0.76515 0.82493 0.356 0.0
C495 C 0.76998 0.84499 0.35755 0.0
C496 C 0.79975 0.81654 0.35418 0.0
C497 C 0.78998 0.85025 0.35669 0.0
C498 C 0.8357 0.80711 0.35447 0.0
C499 C 0.82494 0.76775 0.35606 0.0
N500 N 0.80413 0.83611 0.35522 0.0
N501 N 0.8111 0.78213 0.35473 0.0
H502 H 0.19094 0.75051 0.35626 0.0
H503 H 0.21518 0.86587 0.35745 0.0
H504 H 0.14601 0.79543 0.35792 0.0
H505 H 0.2592 0.82004 0.35701 0.0
H506 H 0.18954 0.84064 0.35459 0.0
H507 H 0.21596 0.77607 0.35344 0.0
C508 C 0.18629 0.76575 0.3559 0.0
C509 C 0.16629 0.77079 0.35749 0.0
C510 C 0.20482 0.83614 0.35497 0.0
C511 C 0.19503 0.80028 0.35437 0.0
C512 C 0.21948 0.85054 0.35656 0.0
C513 C 0.23941 0.8451 0.35762 0.0
C514 C 0.21012 0.81614 0.35443 0.0
C515 C 0.24406 0.82498 0.35639 0.0
C516 C 0.20063 0.78038 0.35429 0.0
C517 C 0.16124 0.79084 0.3568 0.0
N518 N 0.22955 0.81128 0.35498 0.0
N519 N 0.17552 0.80486 0.35545 0.0
H520 H 0.14467 0.79574 0.65727 0.0
H521 H 0.26015 0.81927 0.65944 0.0
H522 H 0.19022 0.75144 0.65878 0.0
H523 H 0.21555 0.86447 0.65673 0.0
H524 H 0.23442 0.79444 0.66233 0.0
H525 H 0.17004 0.82125 0.66013 0.0
C526 C 0.15997 0.79135 0.6584 0.0
C527 C 0.16529 0.77137 0.65763 0.0
C528 C 0.23021 0.80979 0.66123 0.0
C529 C 0.1944 0.80053 0.66083 0.0
C530 C 0.24494 0.82402 0.65958 0.0
C531 C 0.24005 0.84404 0.65768 0.0
C532 C 0.21035 0.81551 0.66087 0.0
C533 C 0.22003 0.84923 0.6581 0.0
C534 C 0.17445 0.80594 0.65999 0.0
C535 C 0.18537 0.76661 0.65916 0.0
N536 N 0.20591 0.83505 0.65949 0.0
N537 N 0.19914 0.78105 0.66057 0.0
H538 H 0.21466 0.14418 0.65876 0.0
H539 H 0.19023 0.2595 0.66006 0.0
H540 H 0.25859 0.19008 0.65898 0.0
H541 H 0.14537 0.21452 0.65835 0.0
H542 H 0.21528 0.23397 0.6629 0.0
H543 H 0.18898 0.16936 0.66176 0.0
C544 C 0.21894 0.15951 0.65963 0.0
C545 C 0.23885 0.16499 0.65845 0.0
C546 C 0.19996 0.22964 0.66203 0.0
C547 C 0.20951 0.19389 0.66182 0.0
C548 C 0.1856 0.24424 0.66042 0.0
C549 C 0.16561 0.23919 0.65879 0.0
C550 C 0.1944 0.20973 0.66193 0.0
C551 C 0.16059 0.21913 0.65949 0.0
C552 C 0.20425 0.17389 0.6613 0.0
C553 C 0.24347 0.18512 0.65967 0.0
N554 N 0.17489 0.20513 0.66084 0.0
N555 N 0.22894 0.19879 0.66117 0.0
H556 H 0.79544 0.14477 0.65857 0.0
H557 H 0.81964 0.26014 0.65909 0.0
H558 H 0.75139 0.19057 0.65781 0.0
H559 H 0.86458 0.21522 0.65852 0.0
H560 H 0.7946 0.2346 0.66178 0.0
H561 H 0.82103 0.17004 0.66163 0.0
C562 C 0.79112 0.16011 0.65923 0.0
C563 C 0.7712 0.16552 0.65777 0.0
C564 C 0.80993 0.23028 0.66119 0.0
C565 C 0.80044 0.19452 0.66121 0.0
C566 C 0.82428 0.2449 0.65967 0.0
C567 C 0.8443 0.23986 0.65841 0.0
C568 C 0.81552 0.21038 0.66137 0.0
C569 C 0.84934 0.21981 0.65937 0.0
C570 C 0.80575 0.17453 0.66094 0.0
C571 C 0.76652 0.18565 0.65873 0.0
N572 N 0.83505 0.20581 0.66064 0.0
N573 N 0.78101 0.19936 0.66027 0.0
H574 H 0.81951 0.75051 0.65956 0.0
H575 H 0.79464 0.86573 0.65844 0.0
H576 H 0.86418 0.79568 0.6577 0.0
H577 H 0.75087 0.81968 0.65872 0.0
H578 H 0.82041 0.84064 0.66136 0.0
H579 H 0.79436 0.77593 0.66252 0.0
C580 C 0.82407 0.76578 0.65991 0.0
C581 C 0.84404 0.77092 0.65821 0.0
C582 C 0.80515 0.83605 0.66093 0.0
C583 C 0.81514 0.80026 0.66149 0.0
C584 C 0.79042 0.85038 0.65931 0.0
C585 C 0.77052 0.84483 0.65817 0.0
C586 C 0.79997 0.81603 0.66144 0.0
C587 C 0.76598 0.82469 0.65938 0.0
C588 C 0.80966 0.78033 0.6616 0.0
C589 C 0.84898 0.791 0.65891 0.0
N590 N 0.78056 0.81107 0.66083 0.0
N591 N 0.83463 0.80494 0.66033 0.0
H592 H 0.64476 0.71369 0.85775 0.0
H593 H 0.76033 0.69055 0.85574 0.0
H594 H 0.69016 0.75814 0.85693 0.0
H595 H 0.71588 0.6452 0.85885 0.0
H596 H 0.7345 0.71528 0.85284 0.0
H597 H 0.67022 0.68827 0.8549 0.0
C598 C 0.66005 0.71813 0.85678 0.0
C599 C 0.6653 0.73812 0.85774 0.0
C600 C 0.73035 0.69993 0.85403 0.0
C601 C 0.69451 0.70907 0.85454 0.0
C602 C 0.74513 0.68575 0.85568 0.0
C603 C 0.74031 0.66572 0.85771 0.0
C604 C 0.71051 0.69414 0.8545 0.0
C605 C 0.72031 0.66046 0.85739 0.0
C606 C 0.67458 0.7036 0.8552 0.0
C607 C 0.68537 0.74295 0.85641 0.0
N608 N 0.70614 0.67459 0.85598 0.0
N609 N 0.69919 0.72856 0.85499 0.0
H610 H 0.29519 0.64408 0.85752 0.0
H611 H 0.31947 0.75942 0.85573 0.0
H612 H 0.25119 0.68992 0.85637 0.0
H613 H 0.36437 0.7145 0.85815 0.0
H614 H 0.29447 0.73385 0.85276 0.0
H615 H 0.32085 0.66929 0.85461 0.0
C616 C 0.29089 0.65941 0.85646 0.0
C617 C 0.27096 0.66486 0.85736 0.0
C618 C 0.30979 0.72954 0.85381 0.0
C619 C 0.30029 0.69379 0.8541 0.0
C620 C 0.32412 0.74417 0.8555 0.0
C621 C 0.3441 0.73914 0.85736 0.0
C622 C 0.31538 0.70964 0.85407 0.0
C623 C 0.34915 0.71908 0.85683 0.0
C624 C 0.30557 0.67379 0.85484 0.0
C625 C 0.26632 0.68497 0.8559 0.0
N626 N 0.33488 0.70507 0.8554 0.0
N627 N 0.28085 0.69866 0.85447 0.0
H628 H 0.36545 0.29531 0.8575 0.0
H629 H 0.25002 0.31913 0.85609 0.0
H630 H 0.31978 0.25113 0.85677 0.0
H631 H 0.29472 0.36423 0.85872 0.0
H632 H 0.27569 0.29424 0.85307 0.0
H633 H 0.34013 0.32089 0.85476 0.0
C634 C 0.35013 0.29096 0.85657 0.0
C635 C 0.34476 0.271 0.85753 0.0
C636 C 0.27993 0.30958 0.85419 0.0
C637 C 0.31572 0.30023 0.85446 0.0
C638 C 0.26524 0.32384 0.8559 0.0
C639 C 0.27017 0.34385 0.85783 0.0
C640 C 0.2998 0.31526 0.85448 0.0
C641 C 0.29021 0.349 0.85734 0.0
C642 C 0.33569 0.30559 0.85505 0.0
C643 C 0.32466 0.26629 0.85625 0.0
N644 N 0.30429 0.33478 0.85588 0.0
N645 N 0.31092 0.28077 0.85489 0.0
H646 H 0.64462 0.29498 0.85644 0.0
H647 H 0.75984 0.31976 0.85518 0.0
H648 H 0.6906 0.25112 0.85615 0.0
H649 H 0.71468 0.36441 0.85769 0.0
H650 H 0.73441 0.29461 0.85211 0.0
H651 H 0.66974 0.32071 0.85355 0.0
C652 C 0.65996 0.29073 0.85557 0.0
C653 C 0.66548 0.27082 0.8567 0.0
C654 C 0.73002 0.30991 0.8532 0.0
C655 C 0.69431 0.30023 0.85346 0.0
C656 C 0.74457 0.32432 0.85494 0.0
C657 C 0.73943 0.34428 0.85687 0.0
C658 C 0.7101 0.31539 0.85346 0.0
C659 C 0.71935 0.34922 0.85632 0.0
C660 C 0.6743 0.30544 0.85397 0.0
C661 C 0.68561 0.26624 0.85549 0.0
N662 N 0.70542 0.33487 0.85483 0.0
N663 N 0.69925 0.28081 0.85406 0.0
H664 H 0.64433 0.29614 0.1576 0.0
H665 H 0.75967 0.32029 0.16087 0.0
H666 H 0.6901 0.25207 0.15867 0.0
H667 H 0.71483 0.36522 0.15709 0.0
H668 H 0.73404 0.29533 0.16358 0.0
H669 H 0.66955 0.32177 0.1608 0.0
C670 C 0.65964 0.29182 0.1587 0.0
C671 C 0.66508 0.27188 0.15771 0.0
C672 C 0.72976 0.31064 0.16228 0.0
C673 C 0.69402 0.30117 0.16131 0.0
C674 C 0.74442 0.32495 0.16075 0.0
C675 C 0.73944 0.34493 0.15857 0.0
C676 C 0.70988 0.31625 0.16155 0.0
C677 C 0.71939 0.35001 0.15866 0.0
C678 C 0.67404 0.30648 0.16048 0.0
C679 C 0.68518 0.26722 0.15921 0.0
N680 N 0.70534 0.33575 0.15995 0.0
N681 N 0.69887 0.28172 0.16083 0.0
H682 H 0.71576 0.64517 0.15815 0.0
H683 H 0.69106 0.76044 0.15931 0.0
H684 H 0.75961 0.69115 0.15828 0.0
H685 H 0.64633 0.71533 0.15786 0.0
H686 H 0.7162 0.73498 0.16208 0.0
H687 H 0.69004 0.67031 0.16111 0.0
C688 C 0.72001 0.66052 0.15899 0.0
C689 C 0.73992 0.66602 0.15781 0.0
C690 C 0.70089 0.73061 0.16128 0.0
C691 C 0.71052 0.69488 0.16113 0.0
C692 C 0.68648 0.74517 0.15971 0.0
C693 C 0.6665 0.74006 0.15819 0.0
C694 C 0.69538 0.71068 0.16125 0.0
C695 C 0.66154 0.71998 0.15893 0.0
C696 C 0.7053 0.67487 0.16064 0.0
C697 C 0.7445 0.68616 0.15898 0.0
N698 N 0.67588 0.70603 0.16025 0.0
N699 N 0.72994 0.69981 0.16046 0.0
H700 H 0.25058 0.69037 0.15964 0.0
H701 H 0.36601 0.71421 0.15846 0.0
H702 H 0.2953 0.64525 0.15775 0.0
H703 H 0.32031 0.75837 0.15904 0.0
H704 H 0.3407 0.68864 0.1613 0.0
H705 H 0.27624 0.71527 0.16257 0.0
C706 C 0.26581 0.68565 0.15997 0.0
C707 C 0.27075 0.66563 0.15828 0.0
C708 C 0.33625 0.70393 0.16096 0.0
C709 C 0.30036 0.69425 0.16153 0.0
C710 C 0.35069 0.71856 0.15938 0.0
C711 C 0.34531 0.73851 0.15836 0.0
C712 C 0.31627 0.70929 0.16152 0.0
C713 C 0.32521 0.74322 0.15962 0.0
C714 C 0.28049 0.69993 0.16164 0.0
C715 C 0.29078 0.66049 0.15895 0.0
N716 N 0.31147 0.72874 0.16102 0.0
N717 N 0.30485 0.67472 0.16036 0.0
H718 H 0.24969 0.31958 0.16017 0.0
H719 H 0.36506 0.29554 0.15796 0.0
H720 H 0.2945 0.36459 0.15781 0.0
H721 H 0.31933 0.25143 0.15884 0.0
H722 H 0.3398 0.32114 0.16103 0.0
H723 H 0.27531 0.29462 0.1629 0.0
C724 C 0.26493 0.32426 0.16036 0.0
C725 C 0.26991 0.34426 0.15859 0.0
C726 C 0.33533 0.30585 0.1607 0.0
C727 C 0.29947 0.31558 0.1616 0.0
C728 C 0.34975 0.29121 0.15898 0.0
C729 C 0.34434 0.27126 0.15798 0.0
C730 C 0.31536 0.30052 0.16143 0.0
C731 C 0.32424 0.26658 0.1594 0.0
C732 C 0.27959 0.30995 0.16191 0.0
C733 C 0.28995 0.34936 0.15907 0.0
N734 N 0.31053 0.28107 0.16093 0.0
N735 N 0.304 0.33511 0.16037 0.0
H736 H 0.95581 0.23359 0.36257 0.0
H737 H 0.05447 0.29373 0.335 0.0
H738 H 0.95569 0.29346 0.33632 0.0
H739 H 0.05261 0.23471 0.36397 0.0
H740 H 0.01864 0.29262 0.32948 0.0
H741 H 0.99134 0.2324 0.35712 0.0
C742 C 0.96324 0.24645 0.35537 0.0
C743 C 0.95276 0.26373 0.35013 0.0
C744 C 0.02613 0.27984 0.33675 0.0
C745 C 0.99369 0.26257 0.34413 0.0
C746 C 0.04659 0.28043 0.33982 0.0
C747 C 0.05653 0.26436 0.35019 0.0
C748 C 0.01559 0.26303 0.34407 0.0
C749 C 0.04557 0.24753 0.35614 0.0
C750 C 0.98359 0.24577 0.35229 0.0
C751 C 0.9632 0.27986 0.34067 0.0
N752 N 0.02573 0.24738 0.35317 0.0
N753 N 0.98315 0.27898 0.33826 0.0
H754 H 0.77554 0.05422 0.36184 0.0
H755 H 0.7151 0.95571 0.33447 0.0
H756 H 0.71568 0.05453 0.3356 0.0
H757 H 0.77432 0.95742 0.36281 0.0
H758 H 0.71627 0.99155 0.32896 0.0
H759 H 0.77663 0.01868 0.35634 0.0
C760 C 0.76267 0.04682 0.35464 0.0
C761 C 0.74542 0.05736 0.34941 0.0
C762 C 0.72908 0.98402 0.33608 0.0
C763 C 0.74647 0.01642 0.34335 0.0
C764 C 0.72846 0.96355 0.33914 0.0
C765 C 0.74457 0.95356 0.34935 0.0
C766 C 0.74595 0.99452 0.34325 0.0
C767 C 0.76146 0.96449 0.35512 0.0
C768 C 0.76329 0.02647 0.35152 0.0
C769 C 0.72926 0.04697 0.33993 0.0
N770 N 0.76164 0.98433 0.35217 0.0
N771 N 0.73008 0.02702 0.3375 0.0
H772 H 0.05451 0.77724 0.36196 0.0
H773 H 0.95566 0.7177 0.33361 0.0
H774 H 0.05442 0.71753 0.33513 0.0
H775 H 0.95769 0.7768 0.36231 0.0
H776 H 0.99151 0.71864 0.32825 0.0
H777 H 0.01901 0.77866 0.35626 0.0
C778 C 0.04704 0.76447 0.35458 0.0
C779 C 0.05745 0.74717 0.34925 0.0
C780 C 0.98405 0.73148 0.33542 0.0
C781 C 0.01655 0.74859 0.34296 0.0
C782 C 0.96358 0.73098 0.33839 0.0
C783 C 0.95368 0.74713 0.34866 0.0
C784 C 0.99465 0.74825 0.34273 0.0
C785 C 0.9647 0.76393 0.35456 0.0
C786 C 0.02671 0.76528 0.35135 0.0
C787 C 0.04696 0.73115 0.33955 0.0
N788 N 0.98455 0.76398 0.35171 0.0
N789 N 0.02704 0.73215 0.33701 0.0
H790 H 0.23442 0.95673 0.36297 0.0
H791 H 0.29445 0.05533 0.33475 0.0
H792 H 0.29398 0.95651 0.3357 0.0
H793 H 0.2355 0.05355 0.3639 0.0
H794 H 0.2933 0.01948 0.32928 0.0
H795 H 0.23324 0.99228 0.35756 0.0
C796 C 0.24721 0.96415 0.35556 0.0
C797 C 0.2644 0.95363 0.35001 0.0
C798 C 0.28054 0.027 0.33658 0.0
C799 C 0.26325 0.99458 0.34406 0.0
C800 C 0.28116 0.04747 0.33962 0.0
C801 C 0.26512 0.05744 0.35003 0.0
C802 C 0.26374 0.01648 0.34397 0.0
C803 C 0.24829 0.04649 0.35603 0.0
C804 C 0.24654 0.9845 0.3525 0.0
C805 C 0.28044 0.96404 0.34028 0.0
N806 N 0.24812 0.02665 0.3531 0.0
N807 N 0.27958 0.984 0.33791 0.0
H808 H 0.05463 0.71658 0.68055 0.0
H809 H 0.95617 0.77701 0.65266 0.0
H810 H 0.05297 0.77541 0.65095 0.0
H811 H 0.95582 0.71722 0.67918 0.0
H812 H 0.99172 0.77805 0.65799 0.0
H813 H 0.01879 0.71786 0.68604 0.0
C814 C 0.04679 0.72987 0.67558 0.0
C815 C 0.0568 0.74584 0.66505 0.0
C816 C 0.98391 0.76473 0.6629 0.0
C817 C 0.01585 0.74736 0.67114 0.0
C818 C 0.96355 0.76414 0.65989 0.0
C819 C 0.953 0.74693 0.66524 0.0
C820 C 0.99395 0.74791 0.67111 0.0
C821 C 0.96339 0.73078 0.67474 0.0
C822 C 0.02633 0.73056 0.67863 0.0
C823 C 0.04588 0.76266 0.65891 0.0
N824 N 0.98334 0.73157 0.67709 0.0
N825 N 0.02605 0.76291 0.66187 0.0
H826 H 0.23443 0.95579 0.65227 0.0
H827 H 0.29419 0.05441 0.68123 0.0
H828 H 0.29401 0.95559 0.67946 0.0
H829 H 0.23517 0.05261 0.65229 0.0
H830 H 0.29315 0.01853 0.68639 0.0
H831 H 0.23314 0.9913 0.65798 0.0
C832 C 0.2472 0.9632 0.65972 0.0
C833 C 0.26442 0.9527 0.66516 0.0
C834 C 0.28035 0.02605 0.67921 0.0
C835 C 0.26316 0.99362 0.67148 0.0
C836 C 0.2809 0.04654 0.67635 0.0
C837 C 0.26481 0.05652 0.66608 0.0
C838 C 0.26357 0.01552 0.67178 0.0
C839 C 0.248 0.04555 0.66005 0.0
C840 C 0.24647 0.98354 0.66296 0.0
C841 C 0.28045 0.96312 0.67495 0.0
N842 N 0.2479 0.02569 0.6628 0.0
N843 N 0.27952 0.98305 0.67751 0.0
H844 H 0.05365 0.23331 0.65498 0.0
H845 H 0.95531 0.2941 0.68195 0.0
H846 H 0.05407 0.29337 0.68055 0.0
H847 H 0.95687 0.23468 0.65424 0.0
H848 H 0.99114 0.29288 0.68749 0.0
H849 H 0.01814 0.23227 0.66069 0.0
C850 C 0.04629 0.24624 0.66209 0.0
C851 C 0.05685 0.26352 0.66705 0.0
C852 C 0.98358 0.28003 0.6805 0.0
C853 C 0.01594 0.26254 0.67335 0.0
C854 C 0.96312 0.28069 0.67743 0.0
C855 C 0.9531 0.26454 0.66738 0.0
C856 C 0.99404 0.26308 0.6735 0.0
C857 C 0.96398 0.24757 0.66181 0.0
C858 C 0.02595 0.24565 0.66532 0.0
C859 C 0.0465 0.27975 0.67641 0.0
N860 N 0.98381 0.24736 0.66475 0.0
N861 N 0.02656 0.27896 0.67896 0.0
H862 H 0.77616 0.05367 0.6533 0.0
H863 H 0.71529 0.95547 0.681 0.0
H864 H 0.71629 0.05429 0.67949 0.0
H865 H 0.7744 0.95689 0.65228 0.0
H866 H 0.71663 0.99132 0.68642 0.0
H867 H 0.77708 0.01814 0.65886 0.0
C868 C 0.76325 0.04635 0.66051 0.0
C869 C 0.74605 0.05697 0.6657 0.0
C870 C 0.72938 0.98372 0.67923 0.0
C871 C 0.7469 0.01603 0.67183 0.0
C872 C 0.72866 0.96325 0.67622 0.0
C873 C 0.74469 0.95318 0.66594 0.0
C874 C 0.74628 0.99413 0.67196 0.0
C875 C 0.76161 0.96403 0.66004 0.0
C876 C 0.76377 0.026 0.66366 0.0
C877 C 0.72984 0.04667 0.67519 0.0
N878 N 0.76189 0.98387 0.66295 0.0
N879 N 0.73056 0.02672 0.67765 0.0
H880 H 0.55342 0.73268 0.86232 0.0
H881 H 0.45506 0.79324 0.83454 0.0
H882 H 0.55383 0.79244 0.8357 0.0
H883 H 0.45662 0.7342 0.86349 0.0
H884 H 0.49089 0.79194 0.82902 0.0
H885 H 0.51788 0.73164 0.85686 0.0
C886 C 0.54605 0.74554 0.85503 0.0
C887 C 0.55662 0.76274 0.84969 0.0
C888 C 0.48333 0.77919 0.83628 0.0
C889 C 0.51568 0.76176 0.84368 0.0
C890 C 0.46287 0.7799 0.83935 0.0
C891 C 0.45284 0.76387 0.84973 0.0
C892 C 0.49378 0.76233 0.84361 0.0
C893 C 0.46373 0.74699 0.85566 0.0
C894 C 0.5257 0.74495 0.85195 0.0
C895 C 0.54626 0.77889 0.84012 0.0
N896 N 0.48356 0.74673 0.8527 0.0
N897 N 0.52631 0.7781 0.83771 0.0
H898 H 0.21564 0.45465 0.83517 0.0
H899 H 0.27574 0.55321 0.86361 0.0
H900 H 0.27446 0.45638 0.86474 0.0
H901 H 0.21617 0.55351 0.83637 0.0
H902 H 0.27685 0.51766 0.85829 0.0
H903 H 0.21683 0.49051 0.8298 0.0
C904 C 0.22892 0.46251 0.84015 0.0
C905 C 0.24491 0.45252 0.85064 0.0
C906 C 0.26357 0.52545 0.85322 0.0
C907 C 0.24632 0.49349 0.8447 0.0
C908 C 0.26294 0.54581 0.85623 0.0
C909 C 0.24576 0.55635 0.85066 0.0
C910 C 0.24683 0.51539 0.84479 0.0
C911 C 0.22969 0.54595 0.84097 0.0
C912 C 0.22955 0.48298 0.83717 0.0
C913 C 0.26171 0.46346 0.8568 0.0
N914 N 0.23053 0.52599 0.83863 0.0
N915 N 0.2619 0.4833 0.85392 0.0
H916 H 0.45531 0.21576 0.83415 0.0
H917 H 0.55395 0.27582 0.862 0.0
H918 H 0.45717 0.2749 0.86276 0.0
H919 H 0.55412 0.21603 0.83545 0.0
H920 H 0.51843 0.27702 0.85647 0.0
H921 H 0.49116 0.21682 0.82873 0.0
C922 C 0.46319 0.22907 0.8389 0.0
C923 C 0.45324 0.2452 0.84916 0.0
C924 C 0.52619 0.26367 0.85159 0.0
C925 C 0.4942 0.24646 0.84316 0.0
C926 C 0.54653 0.26298 0.85472 0.0
C927 C 0.55703 0.24573 0.84941 0.0
C928 C 0.5161 0.2469 0.84331 0.0
C929 C 0.5466 0.22962 0.83985 0.0
C930 C 0.48366 0.22964 0.8359 0.0
C931 C 0.46421 0.26204 0.85502 0.0
N932 N 0.52666 0.2305 0.8374 0.0
N933 N 0.48405 0.26216 0.85213 0.0
H934 H 0.73388 0.45663 0.86477 0.0
H935 H 0.79451 0.55469 0.83528 0.0
H936 H 0.79329 0.45585 0.83701 0.0
H937 H 0.73598 0.55348 0.86578 0.0
H938 H 0.79302 0.51882 0.83015 0.0
H939 H 0.73303 0.49219 0.85946 0.0
C940 C 0.7467 0.46392 0.85728 0.0
C941 C 0.76375 0.45324 0.85155 0.0
C942 C 0.78043 0.52646 0.83768 0.0
C943 C 0.76298 0.49421 0.84568 0.0
C944 C 0.78124 0.54694 0.84053 0.0
C945 C 0.76541 0.55709 0.85119 0.0
C946 C 0.76366 0.51611 0.84551 0.0
C947 C 0.74861 0.54628 0.85769 0.0
C948 C 0.74622 0.48429 0.85428 0.0
C949 C 0.77986 0.46351 0.84174 0.0
N950 N 0.74825 0.52643 0.85492 0.0
N951 N 0.77917 0.48347 0.83939 0.0
H952 H 0.45501 0.21635 0.18059 0.0
H953 H 0.55338 0.27681 0.15247 0.0
H954 H 0.45659 0.27533 0.15146 0.0
H955 H 0.55382 0.21708 0.1792 0.0
H956 H 0.51785 0.27785 0.15795 0.0
H957 H 0.49086 0.21761 0.18599 0.0
C958 C 0.46283 0.22967 0.17571 0.0
C959 C 0.4528 0.24569 0.16533 0.0
C960 C 0.52567 0.26455 0.16288 0.0
C961 C 0.49376 0.24719 0.17131 0.0
C962 C 0.54602 0.26396 0.15978 0.0
C963 C 0.55659 0.24676 0.16516 0.0
C964 C 0.51565 0.24775 0.17119 0.0
C965 C 0.54624 0.23063 0.17476 0.0
C966 C 0.4833 0.23035 0.17871 0.0
C967 C 0.4637 0.26255 0.1593 0.0
N968 N 0.52629 0.23142 0.17718 0.0
N969 N 0.48354 0.26279 0.1622 0.0
H970 H 0.73472 0.55447 0.15197 0.0
H971 H 0.7942 0.45555 0.18044 0.0
H972 H 0.79418 0.5544 0.17958 0.0
H973 H 0.73546 0.45763 0.15067 0.0
H974 H 0.7932 0.4914 0.18587 0.0
H975 H 0.73341 0.51891 0.15718 0.0
C976 C 0.74746 0.54699 0.15941 0.0
C977 C 0.76466 0.55743 0.16512 0.0
C978 C 0.78045 0.48396 0.17844 0.0
C979 C 0.76336 0.51647 0.17086 0.0
C980 C 0.78099 0.46348 0.17542 0.0
C981 C 0.76496 0.45359 0.16486 0.0
C982 C 0.76376 0.49456 0.17088 0.0
C983 C 0.74824 0.46463 0.15865 0.0
C984 C 0.74671 0.52663 0.16236 0.0
C985 C 0.78064 0.54693 0.17488 0.0
N986 N 0.74815 0.48447 0.16158 0.0
N987 N 0.77969 0.52697 0.17715 0.0
H988 H 0.45584 0.7939 0.18129 0.0
H989 H 0.55447 0.73373 0.15365 0.0
H990 H 0.45767 0.73467 0.15295 0.0
H991 H 0.55464 0.79362 0.17984 0.0
H992 H 0.51896 0.73254 0.15925 0.0
H993 H 0.4917 0.79284 0.18668 0.0
C994 C 0.46372 0.78057 0.17659 0.0
C995 C 0.45376 0.76442 0.16642 0.0
C996 C 0.52672 0.74591 0.16403 0.0
C997 C 0.49472 0.76316 0.17239 0.0
C998 C 0.54706 0.74659 0.16087 0.0
C999 C 0.55755 0.76387 0.16605 0.0
C1000 C 0.51662 0.76271 0.17222 0.0
C1001 C 0.54712 0.78001 0.17553 0.0
C1002 C 0.48419 0.78 0.17958 0.0
C1003 C 0.46472 0.74755 0.16062 0.0
N1004 N 0.52718 0.77913 0.17802 0.0
N1005 N 0.48457 0.74743 0.1635 0.0
H1006 H 0.27585 0.4561 0.15351 0.0
H1007 H 0.21604 0.55489 0.18156 0.0
H1008 H 0.21615 0.45607 0.18032 0.0
H1009 H 0.27509 0.55293 0.1527 0.0
H1010 H 0.21707 0.51903 0.18697 0.0
H1011 H 0.27714 0.49163 0.159 0.0
C1012 C 0.26306 0.46355 0.16084 0.0
C1013 C 0.2458 0.45309 0.16624 0.0
C1014 C 0.22987 0.52651 0.17975 0.0
C1015 C 0.24707 0.49403 0.17229 0.0
C1016 C 0.22933 0.54698 0.17675 0.0
C1017 C 0.24544 0.55691 0.16643 0.0
C1018 C 0.24666 0.51594 0.17242 0.0
C1019 C 0.26225 0.54591 0.16049 0.0
C1020 C 0.26379 0.4839 0.16395 0.0
C1021 C 0.22974 0.46356 0.17586 0.0
N1022 N 0.26234 0.52606 0.16338 0.0
N1023 N 0.23067 0.4835 0.17829 0.0
H1024 H 0.14117 0.31857 0.44652 0.0
H1025 H 0.09063 0.27843 0.56861 0.0
H1026 H 0.09188 0.27853 0.4486 0.0
H1027 H 0.14078 0.31741 0.56927 0.0
H1028 H 0.08874 0.2818 0.5245 0.0
H1029 H 0.1392 0.32174 0.49108 0.0
C1030 C 0.12978 0.31066 0.45626 0.0
C1031 C 0.1168 0.2981 0.44378 0.0
C1032 C 0.1001 0.28977 0.53422 0.0
C1033 C 0.11453 0.3016 0.49469 0.0
C1034 C 0.10118 0.28784 0.55949 0.0
C1035 C 0.11602 0.29748 0.5727 0.0
C1036 C 0.11406 0.30129 0.52183 0.0
C1037 C 0.12914 0.30965 0.55982 0.0
C1038 C 0.12871 0.31243 0.4817 0.0
C1039 C 0.10235 0.28821 0.45739 0.0
N1040 N 0.12799 0.31104 0.53505 0.0
N1041 N 0.10171 0.29008 0.48203 0.0
H1042 H 0.73093 0.09104 0.56767 0.0
H1043 H 0.69072 0.14178 0.44574 0.0
H1044 H 0.69233 0.14149 0.56847 0.0
H1045 H 0.73082 0.09252 0.44766 0.0
H1046 H 0.68762 0.13978 0.4903 0.0
H1047 H 0.72744 0.08917 0.52357 0.0
C1048 C 0.72157 0.10167 0.55859 0.0
C1049 C 0.71208 0.11658 0.57183 0.0
C1050 C 0.69693 0.1293 0.48089 0.0
C1051 C 0.70814 0.11463 0.52098 0.0
C1052 C 0.69866 0.13039 0.45545 0.0
C1053 C 0.71121 0.11743 0.44292 0.0
C1054 C 0.70778 0.11511 0.49384 0.0
C1055 C 0.72114 0.10298 0.45649 0.0
C1056 C 0.71959 0.10059 0.53332 0.0
C1057 C 0.69998 0.12979 0.559 0.0
N1058 N 0.7193 0.10232 0.48113 0.0
N1059 N 0.69853 0.12864 0.53423 0.0
H1060 H 0.91963 0.73275 0.44694 0.0
H1061 H 0.86927 0.69194 0.56884 0.0
H1062 H 0.86953 0.6937 0.4461 0.0
H1063 H 0.91783 0.73287 0.56695 0.0
H1064 H 0.87133 0.68889 0.52427 0.0
H1065 H 0.92147 0.72931 0.49105 0.0
C1066 C 0.90908 0.7233 0.45602 0.0
C1067 C 0.89427 0.71367 0.44276 0.0
C1068 C 0.88164 0.69837 0.53369 0.0
C1069 C 0.89617 0.7098 0.49362 0.0
C1070 C 0.88052 0.70008 0.55913 0.0
C1071 C 0.89327 0.71284 0.57167 0.0
C1072 C 0.89566 0.70946 0.52075 0.0
C1073 C 0.90754 0.72302 0.55811 0.0
C1074 C 0.91013 0.72135 0.48128 0.0
C1075 C 0.88115 0.70146 0.45558 0.0
N1076 N 0.90825 0.72119 0.53347 0.0
N1077 N 0.88227 0.70004 0.48035 0.0
H1078 H 0.31979 0.86805 0.56933 0.0
H1079 H 0.28106 0.9196 0.44717 0.0
H1080 H 0.28033 0.91781 0.56711 0.0
H1081 H 0.3184 0.86821 0.44655 0.0
H1082 H 0.2845 0.92142 0.49127 0.0
H1083 H 0.32318 0.87005 0.52479 0.0
C1084 C 0.31206 0.87955 0.55956 0.0
C1085 C 0.29958 0.89265 0.57198 0.0
C1086 C 0.2921 0.9098 0.48156 0.0
C1087 C 0.30336 0.89497 0.5211 0.0
C1088 C 0.29014 0.90875 0.4563 0.0
C1089 C 0.29927 0.89359 0.44311 0.0
C1090 C 0.30314 0.89548 0.49396 0.0
C1091 C 0.31103 0.88011 0.45598 0.0
C1092 C 0.31395 0.88063 0.53413 0.0
C1093 C 0.28993 0.90723 0.55835 0.0
N1094 N 0.31245 0.88123 0.48076 0.0
N1095 N 0.29192 0.9079 0.53373 0.0
H1096 H 0.09092 0.73065 0.44708 0.0
H1097 H 0.1419 0.69129 0.56927 0.0
H1098 H 0.14164 0.69242 0.44649 0.0
H1099 H 0.09211 0.73072 0.56705 0.0
H1100 H 0.13998 0.688 0.52472 0.0
H1101 H 0.089 0.7272 0.49117 0.0
C1102 C 0.10159 0.72138 0.45621 0.0
C1103 C 0.1166 0.71198 0.44303 0.0
C1104 C 0.12937 0.6972 0.53406 0.0
C1105 C 0.11461 0.7081 0.49388 0.0
C1106 C 0.13041 0.69904 0.5595 0.0
C1107 C 0.11728 0.71147 0.57193 0.0
C1108 C 0.11506 0.70782 0.52103 0.0
C1109 C 0.10271 0.72114 0.55828 0.0
C1110 C 0.10049 0.71941 0.48147 0.0
C1111 C 0.12987 0.69998 0.45592 0.0
N1112 N 0.1021 0.71921 0.53365 0.0
N1113 N 0.1287 0.69857 0.48068 0.0
H1114 H 0.31939 0.14193 0.44638 0.0
H1115 H 0.27981 0.09077 0.56837 0.0
H1116 H 0.27956 0.09247 0.44841 0.0
H1117 H 0.31782 0.14167 0.56915 0.0
H1118 H 0.28328 0.08897 0.52428 0.0
H1119 H 0.32259 0.13993 0.49094 0.0
C1120 C 0.31153 0.1305 0.45611 0.0
C1121 C 0.29902 0.11748 0.44362 0.0
C1122 C 0.29101 0.10047 0.53402 0.0
C1123 C 0.30257 0.11516 0.49453 0.0
C1124 C 0.28904 0.10151 0.55928 0.0
C1125 C 0.29836 0.11653 0.57252 0.0
C1126 C 0.30227 0.11466 0.52166 0.0
C1127 C 0.3103 0.12988 0.55968 0.0
C1128 C 0.31332 0.12941 0.48155 0.0
C1129 C 0.2892 0.10298 0.45721 0.0
N1130 N 0.31174 0.12877 0.53491 0.0
N1131 N 0.29109 0.10231 0.48185 0.0
H1132 H 0.86962 0.31946 0.4465 0.0
H1133 H 0.91948 0.27863 0.56866 0.0
H1134 H 0.91775 0.27803 0.44864 0.0
H1135 H 0.86983 0.31826 0.56916 0.0
H1136 H 0.92142 0.28188 0.52454 0.0
H1137 H 0.87175 0.32272 0.49102 0.0
C1138 C 0.88079 0.31125 0.45625 0.0
C1139 C 0.89339 0.29829 0.4438 0.0
C1140 C 0.91016 0.29001 0.53423 0.0
C1141 C 0.89585 0.30191 0.49468 0.0
C1142 C 0.90905 0.28817 0.55951 0.0
C1143 C 0.89432 0.29802 0.57267 0.0
C1144 C 0.89635 0.30168 0.52181 0.0
C1145 C 0.88137 0.31033 0.55975 0.0
C1146 C 0.88195 0.31308 0.48167 0.0
C1147 C 0.90757 0.28803 0.45742 0.0
N1148 N 0.88255 0.31164 0.53498 0.0
N1149 N 0.90831 0.28997 0.48204 0.0
H1150 H 0.69032 0.86854 0.56968 0.0
H1151 H 0.7298 0.91965 0.44763 0.0
H1152 H 0.73013 0.91802 0.56764 0.0
H1153 H 0.6914 0.86905 0.44696 0.0
H1154 H 0.72645 0.92146 0.49175 0.0
H1155 H 0.68702 0.8706 0.52515 0.0
C1156 C 0.69815 0.87999 0.55995 0.0
C1157 C 0.71069 0.89299 0.57243 0.0
C1158 C 0.71861 0.91002 0.48202 0.0
C1159 C 0.70702 0.89538 0.52155 0.0
C1160 C 0.72052 0.90898 0.45675 0.0
C1161 C 0.71104 0.89404 0.44354 0.0
C1162 C 0.70727 0.89591 0.49441 0.0
C1163 C 0.69903 0.88077 0.45641 0.0
C1164 C 0.6963 0.88111 0.53453 0.0
C1165 C 0.72047 0.90752 0.55884 0.0
N1166 N 0.69766 0.88188 0.48118 0.0
N1167 N 0.71853 0.90822 0.53421 0.0
H1168 H 0.64105 0.81913 0.06937 0.0
H1169 H 0.59059 0.77827 0.94758 0.0
H1170 H 0.5923 0.77843 0.06758 0.0
H1171 H 0.64083 0.81714 0.94665 0.0
H1172 H 0.58871 0.78185 0.99167 0.0
H1173 H 0.63898 0.82216 0.02481 0.0
C1174 C 0.62975 0.81105 0.05968 0.0
C1175 C 0.61696 0.79834 0.07225 0.0
C1176 C 0.60009 0.78974 0.98189 0.0
C1177 C 0.61457 0.80169 0.02133 0.0
C1178 C 0.60117 0.7877 0.95663 0.0
C1179 C 0.61603 0.79724 0.94336 0.0
C1180 C 0.61407 0.80128 0.9942 0.0
C1181 C 0.62917 0.80945 0.95615 0.0
C1182 C 0.62863 0.81273 0.03424 0.0
C1183 C 0.60263 0.78823 0.05871 0.0
N1184 N 0.62802 0.81095 0.98091 0.0
N1185 N 0.60192 0.79002 0.03407 0.0
H1186 H 0.19106 0.64155 0.94618 0.0
H1187 H 0.23053 0.59072 0.06841 0.0
H1188 H 0.23074 0.59197 0.94842 0.0
H1189 H 0.19227 0.64143 0.06895 0.0
H1190 H 0.22714 0.5888 0.02431 0.0
H1191 H 0.18781 0.63967 0.99073 0.0
C1192 C 0.19887 0.63012 0.95596 0.0
C1193 C 0.21136 0.61703 0.94352 0.0
C1194 C 0.21933 0.60029 0.034 0.0
C1195 C 0.20776 0.61484 0.99443 0.0
C1196 C 0.22127 0.60139 0.05927 0.0
C1197 C 0.21184 0.61639 0.07243 0.0
C1198 C 0.20803 0.6144 0.02158 0.0
C1199 C 0.19986 0.62966 0.05953 0.0
C1200 C 0.19706 0.6291 0.9814 0.0
C1201 C 0.22112 0.60253 0.95718 0.0
N1202 N 0.19847 0.6285 0.03476 0.0
N1203 N 0.21921 0.60193 0.98181 0.0
H1204 H 0.36802 0.19124 0.06937 0.0
H1205 H 0.41936 0.23018 0.94719 0.0
H1206 H 0.41762 0.23089 0.06715 0.0
H1207 H 0.36839 0.19227 0.94661 0.0
H1208 H 0.42116 0.22685 0.99131 0.0
H1209 H 0.37005 0.18783 0.02484 0.0
C1210 C 0.37949 0.19902 0.0596 0.0
C1211 C 0.39254 0.21154 0.07203 0.0
C1212 C 0.40964 0.21911 0.9816 0.0
C1213 C 0.3949 0.20775 0.02115 0.0
C1214 C 0.40861 0.221 0.95633 0.0
C1215 C 0.39357 0.21167 0.94314 0.0
C1216 C 0.39543 0.20794 0.99402 0.0
C1217 C 0.3802 0.19979 0.95604 0.0
C1218 C 0.3806 0.19711 0.03418 0.0
C1219 C 0.40708 0.22125 0.05839 0.0
N1220 N 0.3813 0.19845 0.98082 0.0
N1221 N 0.40777 0.21925 0.03377 0.0
H1222 H 0.82123 0.36907 0.07165 0.0
H1223 H 0.82256 0.37103 0.9437 0.0
H1224 H 0.77818 0.41552 0.0657 0.0
H1225 H 0.77558 0.41339 0.95082 0.0
H1226 H 0.82713 0.37181 0.98778 0.0
H1227 H 0.82517 0.3695 0.0275 0.0
C1228 C 0.81281 0.37957 0.06106 0.0
C1229 C 0.79922 0.39214 0.07246 0.0
C1230 C 0.81579 0.38096 0.9799 0.0
C1231 C 0.80361 0.39283 0.02152 0.0
C1232 C 0.81328 0.38059 0.95454 0.0
C1233 C 0.79851 0.39198 0.94348 0.0
C1234 C 0.80337 0.39278 0.99435 0.0
C1235 C 0.78702 0.40417 0.95846 0.0
C1236 C 0.81505 0.37982 0.03566 0.0
C1237 C 0.7887 0.4054 0.05778 0.0
N1238 N 0.78962 0.40413 0.98301 0.0
N1239 N 0.79103 0.40527 0.03318 0.0
H1240 H 0.59077 0.23107 0.06746 0.0
H1241 H 0.64187 0.19114 0.94561 0.0
H1242 H 0.64155 0.19291 0.06835 0.0
H1243 H 0.59223 0.23075 0.94746 0.0
H1244 H 0.63991 0.18808 0.99017 0.0
H1245 H 0.58893 0.22748 0.02338 0.0
C1246 C 0.60148 0.22179 0.0584 0.0
C1247 C 0.61648 0.21245 0.07166 0.0
C1248 C 0.62934 0.19727 0.98075 0.0
C1249 C 0.61457 0.20841 0.02082 0.0
C1250 C 0.63041 0.19898 0.95531 0.0
C1251 C 0.61732 0.21139 0.94276 0.0
C1252 C 0.61505 0.20801 0.99368 0.0
C1253 C 0.60278 0.22119 0.95631 0.0
C1254 C 0.60042 0.21974 0.03314 0.0
C1255 C 0.62979 0.20044 0.05886 0.0
N1256 N 0.60214 0.21938 0.98096 0.0
N1257 N 0.62866 0.19894 0.0341 0.0
H1258 H 0.78182 0.59129 0.0683 0.0
H1259 H 0.82024 0.6429 0.94606 0.0
H1260 H 0.81884 0.64291 0.06884 0.0
H1261 H 0.78163 0.59249 0.94839 0.0
H1262 H 0.8236 0.64107 0.99061 0.0
H1263 H 0.78542 0.58936 0.02423 0.0
C1264 C 0.79086 0.60217 0.05916 0.0
C1265 C 0.79986 0.61742 0.07232 0.0
C1266 C 0.81457 0.6303 0.98129 0.0
C1267 C 0.8039 0.61541 0.02149 0.0
C1268 C 0.8127 0.63129 0.95586 0.0
C1269 C 0.80046 0.61796 0.94346 0.0
C1270 C 0.80419 0.61583 0.99435 0.0
C1271 C 0.79103 0.60325 0.95713 0.0
C1272 C 0.79291 0.60105 0.03391 0.0
C1273 C 0.81158 0.63094 0.05943 0.0
N1274 N 0.793 0.60268 0.98176 0.0
N1275 N 0.81307 0.62976 0.03467 0.0
H1276 H 0.36878 0.81863 0.94613 0.0
H1277 H 0.4196 0.77885 0.06825 0.0
H1278 H 0.41785 0.77832 0.94825 0.0
H1279 H 0.369 0.81725 0.06889 0.0
H1280 H 0.42142 0.78218 0.02413 0.0
H1281 H 0.3708 0.82187 0.99068 0.0
C1282 C 0.38013 0.81068 0.95588 0.0
C1283 C 0.39303 0.79802 0.94342 0.0
C1284 C 0.40997 0.79003 0.03385 0.0
C1285 C 0.39537 0.80162 0.99432 0.0
C1286 C 0.40893 0.78813 0.05912 0.0
C1287 C 0.39399 0.79761 0.07233 0.0
C1288 C 0.39588 0.80137 0.02146 0.0
C1289 C 0.38073 0.80962 0.05944 0.0
C1290 C 0.38123 0.81249 0.98132 0.0
C1291 C 0.40743 0.78808 0.95703 0.0
N1292 N 0.38184 0.81098 0.03467 0.0
N1293 N 0.40811 0.79 0.98167 0.0
H1294 H 0.19042 0.36773 0.94657 0.0
H1295 H 0.22975 0.4191 0.06854 0.0
H1296 H 0.23004 0.41736 0.94859 0.0
H1297 H 0.19154 0.36835 0.06934 0.0
H1298 H 0.22635 0.42085 0.02443 0.0
H1299 H 0.18711 0.3698 0.99111 0.0
C1300 C 0.19821 0.37921 0.9563 0.0
C1301 C 0.2107 0.39226 0.94381 0.0
C1302 C 0.21856 0.40939 0.03418 0.0
C1303 C 0.20702 0.39466 0.9947 0.0
C1304 C 0.22049 0.40838 0.05946 0.0
C1305 C 0.21109 0.39342 0.0727 0.0
C1306 C 0.20727 0.39522 0.02183 0.0
C1307 C 0.19912 0.3801 0.05986 0.0
C1308 C 0.19636 0.38034 0.98173 0.0
C1309 C 0.22042 0.40683 0.9574 0.0
N1310 N 0.19773 0.38117 0.03509 0.0
N1311 N 0.21848 0.40754 0.98202 0.0
H1312 H 0.1598 0.3421 0.1844 0.0
H1313 H 0.11637 0.31798 0.29469 0.0
H1314 H 0.1913 0.3871 0.22386 0.0
H1315 H 0.168 0.34523 0.32566 0.0
H1316 H 0.12397 0.33343 0.25555 0.0
H1317 H 0.14343 0.33248 0.22203 0.0
C1318 C 0.16294 0.35027 0.20092 0.0
C1319 C 0.17701 0.3654 0.20096 0.0
C1320 C 0.13371 0.33598 0.27083 0.0
C1321 C 0.15811 0.35454 0.24439 0.0
C1322 C 0.12923 0.32733 0.29332 0.0
C1323 C 0.14175 0.33002 0.31341 0.0
C1324 C 0.15094 0.3473 0.26839 0.0
C1325 C 0.15807 0.34251 0.3106 0.0
C1326 C 0.15343 0.34486 0.22248 0.0
C1327 C 0.18054 0.37538 0.22296 0.0
N1328 N 0.16227 0.35053 0.28848 0.0
N1329 N 0.17141 0.36955 0.24386 0.0
H1330 H 0.66618 0.16133 0.18515 0.0
H1331 H 0.66008 0.16693 0.32925 0.0
H1332 H 0.62184 0.195 0.22299 0.0
H1333 H 0.69392 0.12275 0.29135 0.0
H1334 H 0.64425 0.1758 0.29076 0.0
H1335 H 0.67494 0.14538 0.22359 0.0
C1336 C 0.65808 0.16516 0.20149 0.0
C1337 C 0.64336 0.17965 0.20087 0.0
C1338 C 0.65491 0.16396 0.29089 0.0
C1339 C 0.65354 0.16164 0.2451 0.0
C1340 C 0.66397 0.15888 0.31288 0.0
C1341 C 0.67848 0.14418 0.3135 0.0
C1342 C 0.66061 0.15449 0.26923 0.0
C1343 C 0.68286 0.1342 0.29173 0.0
C1344 C 0.66309 0.15603 0.22346 0.0
C1345 C 0.63331 0.18394 0.22261 0.0
N1346 N 0.67419 0.13975 0.27042 0.0
N1347 N 0.63879 0.17521 0.2439 0.0
H1348 H 0.81665 0.62206 0.22341 0.0
H1349 H 0.88997 0.69618 0.29174 0.0
H1350 H 0.84988 0.66743 0.18683 0.0
H1351 H 0.84486 0.6626 0.32832 0.0
H1352 H 0.8811 0.68006 0.2533 0.0
H1353 H 0.83261 0.63114 0.26188 0.0
C1354 C 0.82757 0.63368 0.22336 0.0
C1355 C 0.83178 0.64414 0.2019 0.0
C1356 C 0.87333 0.67604 0.26982 0.0
C1357 C 0.85004 0.65463 0.24586 0.0
C1358 C 0.87845 0.68516 0.2918 0.0
C1359 C 0.868 0.68089 0.31325 0.0
C1360 C 0.85774 0.66245 0.26931 0.0
C1361 C 0.85318 0.66649 0.31219 0.0
C1362 C 0.83659 0.63892 0.24535 0.0
C1363 C 0.84604 0.65909 0.20296 0.0
N1364 N 0.84841 0.65791 0.29057 0.0
N1365 N 0.85454 0.66398 0.22459 0.0
H1366 H 0.34221 0.84881 0.18387 0.0
H1367 H 0.31851 0.89295 0.29391 0.0
H1368 H 0.38748 0.81771 0.22333 0.0
H1369 H 0.34591 0.84151 0.32521 0.0
H1370 H 0.33377 0.88507 0.25474 0.0
H1371 H 0.33265 0.86534 0.22143 0.0
C1372 C 0.35045 0.84579 0.20037 0.0
C1373 C 0.36563 0.83179 0.20043 0.0
C1374 C 0.33639 0.87544 0.2701 0.0
C1375 C 0.35485 0.85088 0.24378 0.0
C1376 C 0.32786 0.88008 0.29261 0.0
C1377 C 0.33065 0.8677 0.31281 0.0
C1378 C 0.3477 0.85819 0.26775 0.0
C1379 C 0.34311 0.85135 0.31007 0.0
C1380 C 0.34506 0.85539 0.22188 0.0
C1381 C 0.37571 0.82841 0.22241 0.0
N1382 N 0.35103 0.84699 0.28793 0.0
N1383 N 0.36992 0.83763 0.24326 0.0
H1384 H 0.16078 0.66837 0.83151 0.0
H1385 H 0.11705 0.6923 0.72131 0.0
H1386 H 0.19183 0.62301 0.79213 0.0
H1387 H 0.16852 0.66484 0.69021 0.0
H1388 H 0.12476 0.67697 0.7605 0.0
H1389 H 0.14441 0.67803 0.79389 0.0
C1390 C 0.16382 0.66014 0.81502 0.0
C1391 C 0.17776 0.64489 0.81499 0.0
C1392 C 0.13444 0.67435 0.74517 0.0
C1393 C 0.15885 0.65579 0.77157 0.0
C1394 C 0.12989 0.68292 0.72266 0.0
C1395 C 0.14233 0.68013 0.70251 0.0
C1396 C 0.15164 0.663 0.74758 0.0
C1397 C 0.15865 0.66763 0.70531 0.0
C1398 C 0.15431 0.66558 0.79346 0.0
C1399 C 0.18116 0.63482 0.79302 0.0
N1400 N 0.1629 0.65967 0.72745 0.0
N1401 N 0.17204 0.64067 0.77213 0.0
H1402 H 0.31566 0.12072 0.72354 0.0
H1403 H 0.38922 0.19445 0.79209 0.0
H1404 H 0.3489 0.16616 0.68711 0.0
H1405 H 0.344 0.16096 0.82856 0.0
H1406 H 0.38028 0.17846 0.7536 0.0
H1407 H 0.33169 0.12965 0.76201 0.0
C1408 C 0.32659 0.13232 0.72352 0.0
C1409 C 0.33079 0.14285 0.70211 0.0
C1410 C 0.37251 0.17443 0.7701 0.0
C1411 C 0.34913 0.15316 0.74608 0.0
C1412 C 0.37767 0.18347 0.79211 0.0
C1413 C 0.3672 0.17919 0.81355 0.0
C1414 C 0.35687 0.1609 0.76955 0.0
C1415 C 0.35234 0.16485 0.81244 0.0
C1416 C 0.33566 0.13747 0.74552 0.0
C1417 C 0.34507 0.15777 0.70321 0.0
N1418 N 0.34752 0.15633 0.7908 0.0
N1419 N 0.35361 0.16257 0.72485 0.0
H1420 H 0.84448 0.35031 0.68536 0.0
H1421 H 0.84989 0.3449 0.82948 0.0
H1422 H 0.8885 0.31657 0.72368 0.0
H1423 H 0.81588 0.38875 0.79124 0.0
H1424 H 0.86602 0.33613 0.79117 0.0
H1425 H 0.83559 0.36641 0.72367 0.0
C1426 C 0.85249 0.3465 0.70177 0.0
C1427 C 0.86714 0.33192 0.70134 0.0
C1428 C 0.85526 0.34789 0.79118 0.0
C1429 C 0.85681 0.35011 0.74541 0.0
C1430 C 0.84602 0.3529 0.81308 0.0
C1431 C 0.83137 0.36746 0.81354 0.0
C1432 C 0.84959 0.35727 0.76945 0.0
C1433 C 0.82705 0.37739 0.79173 0.0
C1434 C 0.84741 0.35571 0.72367 0.0
C1435 C 0.87708 0.32767 0.72317 0.0
N1436 N 0.83588 0.3719 0.7705 0.0
N1437 N 0.87152 0.33648 0.74438 0.0
H1438 H 0.66003 0.84304 0.68593 0.0
H1439 H 0.66569 0.84864 0.83006 0.0
H1440 H 0.69347 0.88743 0.72398 0.0
H1441 H 0.62168 0.81469 0.79201 0.0
H1442 H 0.67446 0.86465 0.79165 0.0
H1443 H 0.64416 0.83404 0.72434 0.0
C1444 C 0.66382 0.8511 0.70231 0.0
C1445 C 0.67823 0.8659 0.70176 0.0
C1446 C 0.66267 0.85392 0.79173 0.0
C1447 C 0.66032 0.85545 0.74596 0.0
C1448 C 0.65766 0.84476 0.81368 0.0
C1449 C 0.64304 0.83017 0.81423 0.0
C1450 C 0.65323 0.84825 0.77004 0.0
C1451 C 0.63308 0.82581 0.79244 0.0
C1452 C 0.65474 0.84596 0.72426 0.0
C1453 C 0.68249 0.8759 0.72355 0.0
N1454 N 0.63857 0.83458 0.77118 0.0
N1455 N 0.6738 0.87029 0.74482 0.0
H1456 H 0.84297 0.66081 0.68367 0.0
H1457 H 0.81955 0.61725 0.79412 0.0
H1458 H 0.88788 0.69265 0.72287 0.0
H1459 H 0.84666 0.66904 0.82492 0.0
H1460 H 0.83479 0.62493 0.75488 0.0
H1461 H 0.83363 0.64436 0.72135 0.0
C1462 C 0.85118 0.66401 0.70014 0.0
C1463 C 0.86619 0.6782 0.7001 0.0
C1464 C 0.83735 0.63469 0.77015 0.0
C1465 C 0.85566 0.6592 0.74359 0.0
C1466 C 0.82883 0.63016 0.79269 0.0
C1467 C 0.83154 0.6427 0.81277 0.0
C1468 C 0.84857 0.65198 0.76763 0.0
C1469 C 0.84393 0.65909 0.80987 0.0
C1470 C 0.84593 0.65445 0.72173 0.0
C1471 C 0.87624 0.68179 0.72203 0.0
N1472 N 0.85183 0.66333 0.7877 0.0
N1473 N 0.87057 0.67261 0.74296 0.0
H1474 H 0.38969 0.81537 0.79222 0.0
H1475 H 0.31634 0.88909 0.7233 0.0
H1476 H 0.34444 0.849 0.82847 0.0
H1477 H 0.34989 0.84378 0.68703 0.0
H1478 H 0.33227 0.88021 0.76186 0.0
H1479 H 0.38093 0.8314 0.75369 0.0
C1480 C 0.37817 0.82639 0.79219 0.0
C1481 C 0.36764 0.83069 0.81357 0.0
C1482 C 0.33633 0.8724 0.74538 0.0
C1483 C 0.35751 0.84902 0.76953 0.0
C1484 C 0.32732 0.87753 0.72334 0.0
C1485 C 0.33163 0.86702 0.70194 0.0
C1486 C 0.34984 0.85676 0.74601 0.0
C1487 C 0.34597 0.85216 0.70312 0.0
C1488 C 0.37311 0.83545 0.77015 0.0
C1489 C 0.35282 0.84508 0.81239 0.0
N1490 N 0.35444 0.84737 0.7248 0.0
N1491 N 0.3481 0.85362 0.79073 0.0
H1492 H 0.16712 0.34932 0.68434 0.0
H1493 H 0.191 0.39276 0.7947 0.0
H1494 H 0.12223 0.3176 0.72371 0.0
H1495 H 0.16379 0.34107 0.8256 0.0
H1496 H 0.17561 0.38514 0.75553 0.0
H1497 H 0.17661 0.36574 0.72199 0.0
C1498 C 0.15894 0.34615 0.70084 0.0
C1499 C 0.1439 0.33199 0.70085 0.0
C1500 C 0.17306 0.37539 0.7708 0.0
C1501 C 0.1546 0.35095 0.74431 0.0
C1502 C 0.18166 0.37989 0.79331 0.0
C1503 C 0.17897 0.36735 0.81339 0.0
C1504 C 0.16178 0.35814 0.76832 0.0
C1505 C 0.16651 0.35101 0.81054 0.0
C1506 C 0.16428 0.35568 0.72241 0.0
C1507 C 0.13389 0.32842 0.72283 0.0
N1508 N 0.15853 0.3468 0.7884 0.0
N1509 N 0.13965 0.33758 0.74374 0.0
H1510 H 0.69483 0.12072 0.72281 0.0
H1511 H 0.62103 0.19408 0.7916 0.0
H1512 H 0.66118 0.16591 0.68648 0.0
H1513 H 0.66648 0.16077 0.82791 0.0
H1514 H 0.62992 0.17809 0.75308 0.0
H1515 H 0.67881 0.12954 0.76134 0.0
C1516 C 0.68381 0.13224 0.72282 0.0
C1517 C 0.67949 0.14273 0.70142 0.0
C1518 C 0.63776 0.1741 0.76956 0.0
C1519 C 0.66118 0.15293 0.74545 0.0
C1520 C 0.63262 0.18313 0.79159 0.0
C1521 C 0.64316 0.17891 0.81298 0.0
C1522 C 0.65345 0.16063 0.76896 0.0
C1523 C 0.65808 0.16462 0.81183 0.0
C1524 C 0.67475 0.13733 0.74485 0.0
C1525 C 0.66511 0.15755 0.70257 0.0
N1526 N 0.66287 0.15611 0.79017 0.0
N1527 N 0.65658 0.1623 0.72424 0.0
H1528 H 0.84993 0.34448 0.18651 0.0
H1529 H 0.84469 0.35049 0.33058 0.0
H1530 H 0.81646 0.38888 0.22454 0.0
H1531 H 0.88842 0.31625 0.29242 0.0
H1532 H 0.83594 0.36653 0.2922 0.0
H1533 H 0.86601 0.3357 0.22485 0.0
C1534 C 0.84617 0.3526 0.20287 0.0
C1535 C 0.83169 0.36732 0.20235 0.0
C1536 C 0.84767 0.35574 0.29225 0.0
C1537 C 0.84985 0.35712 0.24646 0.0
C1538 C 0.85267 0.34656 0.31418 0.0
C1539 C 0.86719 0.33186 0.31469 0.0
C1540 C 0.85702 0.34998 0.27053 0.0
C1541 C 0.87709 0.32745 0.29288 0.0
C1542 C 0.85538 0.34758 0.22478 0.0
C1543 C 0.8275 0.37739 0.2241 0.0
N1544 N 0.87161 0.33624 0.27163 0.0
N1545 N 0.8363 0.3719 0.24534 0.0
H1546 H 0.66558 0.85041 0.18595 0.0
H1547 H 0.65963 0.8443 0.33004 0.0
H1548 H 0.62172 0.81607 0.22372 0.0
H1549 H 0.6933 0.88868 0.29227 0.0
H1550 H 0.64379 0.83548 0.29155 0.0
H1551 H 0.67419 0.86636 0.22445 0.0
C1552 C 0.65754 0.84643 0.20228 0.0
C1553 C 0.64302 0.83174 0.20163 0.0
C1554 C 0.65441 0.84736 0.29171 0.0
C1555 C 0.65303 0.84976 0.24593 0.0
C1556 C 0.66348 0.8524 0.31371 0.0
C1557 C 0.67795 0.86714 0.31436 0.0
C1558 C 0.66007 0.85689 0.27007 0.0
C1559 C 0.68227 0.87719 0.29263 0.0
C1560 C 0.66247 0.85556 0.22429 0.0
C1561 C 0.63305 0.82727 0.22337 0.0
N1562 N 0.6736 0.87167 0.27131 0.0
N1563 N 0.63845 0.83601 0.24469 0.0
H1564 H 0.1209 0.69479 0.29192 0.0
H1565 H 0.19418 0.62072 0.22344 0.0
H1566 H 0.16582 0.66092 0.32844 0.0
H1567 H 0.16095 0.66612 0.18693 0.0
H1568 H 0.17818 0.62971 0.2619 0.0
H1569 H 0.12977 0.67875 0.25342 0.0
C1570 C 0.13237 0.68372 0.29195 0.0
C1571 C 0.14277 0.67934 0.3134 0.0
C1572 C 0.1742 0.63752 0.24539 0.0
C1573 C 0.15303 0.661 0.2694 0.0
C1574 C 0.18326 0.63232 0.2234 0.0
C1575 C 0.17906 0.64282 0.20196 0.0
C1576 C 0.16075 0.65322 0.24593 0.0
C1577 C 0.16479 0.65775 0.20305 0.0
C1578 C 0.13749 0.67465 0.26994 0.0
C1579 C 0.15753 0.66489 0.31231 0.0
N1580 N 0.15626 0.6626 0.22468 0.0
N1581 N 0.16231 0.65635 0.29067 0.0
H1582 H 0.31599 0.121 0.29235 0.0
H1583 H 0.38924 0.19466 0.22318 0.0
H1584 H 0.34962 0.16629 0.32852 0.0
H1585 H 0.34375 0.16123 0.18713 0.0
H1586 H 0.38057 0.17862 0.26174 0.0
H1587 H 0.33183 0.12989 0.25374 0.0
C1588 C 0.32698 0.13256 0.29228 0.0
C1589 C 0.33133 0.14306 0.31366 0.0
C1590 C 0.37268 0.17461 0.2453 0.0
C1591 C 0.34944 0.15334 0.26954 0.0
C1592 C 0.37768 0.18368 0.22326 0.0
C1593 C 0.36706 0.17944 0.20193 0.0
C1594 C 0.35704 0.16109 0.246 0.0
C1595 C 0.35221 0.1651 0.20316 0.0
C1596 C 0.33593 0.13769 0.2702 0.0
C1597 C 0.34567 0.15792 0.31244 0.0
N1598 N 0.34754 0.15655 0.22484 0.0
N1599 N 0.35409 0.16272 0.29074 0.0
loop_
_geom_bond_atom_site_label_1
_geom_bond_atom_site_label_2
_geom_bond_distance
_geom_bond_site_symmetry_2
_ccdc_geom_bond_type
O0 Cd1 2.223 . S
O0 C8 1.315 . S
Cd1 O0 2.223 . S
Cd1 O4 2.297 . S
Cd1 O5 2.439 . S
Cd1 O11 2.240 . S
Cd2 O3 2.240 . S
Cd2 O10 2.223 . S
Cd2 O12 2.297 . S
Cd2 O13 2.439 . S
O3 Cd2 2.240 . S
O3 C8 1.279 . S
O4 Cd1 2.297 . S
O4 C6 1.247 . S
O5 Cd1 2.439 . S
O5 C6 1.208 . S
C6 O4 1.247 . S
C6 O5 1.208 . S
C7 O12 1.247 . S
C7 O13 1.208 . S
C8 O0 1.315 . S
C8 O3 1.279 . S
C9 O10 1.315 . S
C9 O11 1.279 . S
O10 Cd2 2.223 . S
O10 C9 1.315 . S
O11 Cd1 2.240 . S
O11 C9 1.279 . S
O12 Cd2 2.297 . S
O12 C7 1.247 . S
O13 Cd2 2.439 . S
O13 C7 1.208 . S
O14 Cd15 2.223 . S
O14 C22 1.315 . S
Cd15 O14 2.223 . S
Cd15 O18 2.297 . S
Cd15 O19 2.439 . S
Cd15 O25 2.240 . S
Cd16 O17 2.240 . S
Cd16 O24 2.223 . S
Cd16 O26 2.297 . S
Cd16 O27 2.439 . S
O17 Cd16 2.240 . S
O17 C22 1.279 . S
O18 Cd15 2.297 . S
O18 C20 1.247 . S
O19 Cd15 2.439 . S
O19 C20 1.208 . S
C20 O18 1.247 . S
C20 O19 1.208 . S
C21 O26 1.247 . S
C21 O27 1.208 . S
C22 O14 1.315 . S
C22 O17 1.279 . S
C23 O24 1.315 . S
C23 O25 1.279 . S
O24 Cd16 2.223 . S
O24 C23 1.315 . S
O25 Cd15 2.240 . S
O25 C23 1.279 . S
O26 Cd16 2.297 . S
O26 C21 1.247 . S
O27 Cd16 2.439 . S
O27 C21 1.208 . S
O28 Cd29 2.223 . S
O28 C36 1.315 . S
Cd29 O28 2.223 . S
Cd29 O32 2.297 . S
Cd29 O33 2.439 . S
Cd29 O39 2.240 . S
Cd30 O31 2.240 . S
Cd30 O38 2.223 . S
Cd30 O40 2.297 . S
Cd30 O41 2.439 . S
O31 Cd30 2.240 . S
O31 C36 1.279 . S
O32 Cd29 2.297 . S
O32 C34 1.247 . S
O33 Cd29 2.439 . S
O33 C34 1.208 . S
C34 O32 1.247 . S
C34 O33 1.208 . S
C35 O40 1.247 . S
C35 O41 1.208 . S
C36 O28 1.315 . S
C36 O31 1.279 . S
C37 O38 1.315 . S
C37 O39 1.279 . S
O38 Cd30 2.223 . S
O38 C37 1.315 . S
O39 Cd29 2.240 . S
O39 C37 1.279 . S
O40 Cd30 2.297 . S
O40 C35 1.247 . S
O41 Cd30 2.439 . S
O41 C35 1.208 . S
O42 Cd43 2.223 . S
O42 C50 1.315 . S
Cd43 O42 2.223 . S
Cd43 O46 2.297 . S
Cd43 O47 2.439 . S
Cd43 O53 2.240 . S
Cd44 O45 2.240 . S
Cd44 O52 2.223 . S
Cd44 O54 2.297 . S
Cd44 O55 2.439 . S
O45 Cd44 2.240 . S
O45 C50 1.279 . S
O46 Cd43 2.297 . S
O46 C48 1.247 . S
O47 Cd43 2.439 . S
O47 C48 1.208 . S
C48 O46 1.247 . S
C48 O47 1.208 . S
C49 O54 1.247 . S
C49 O55 1.208 . S
C50 O42 1.315 . S
C50 O45 1.279 . S
C51 O52 1.315 . S
C51 O53 1.279 . S
O52 Cd44 2.223 . S
O52 C51 1.315 . S
O53 Cd43 2.240 . S
O53 C51 1.279 . S
O54 Cd44 2.297 . S
O54 C49 1.247 . S
O55 Cd44 2.439 . S
O55 C49 1.208 . S
O56 Cd57 2.223 . S
O56 C64 1.315 . S
Cd57 O56 2.223 . S
Cd57 O60 2.297 . S
Cd57 O61 2.439 . S
Cd57 O67 2.240 . S
Cd58 O59 2.240 . S
Cd58 O66 2.223 . S
Cd58 O68 2.297 . S
Cd58 O69 2.439 . S
O59 Cd58 2.240 . S
O59 C64 1.279 . S
O60 Cd57 2.297 . S
O60 C62 1.247 . S
O61 Cd57 2.439 . S
O61 C62 1.208 . S
C62 O60 1.247 . S
C62 O61 1.208 . S
C63 O68 1.247 . S
C63 O69 1.208 . S
C64 O56 1.315 . S
C64 O59 1.279 . S
C65 O66 1.315 . S
C65 O67 1.279 . S
O66 Cd58 2.223 . S
O66 C65 1.315 . S
O67 Cd57 2.240 . S
O67 C65 1.279 . S
O68 Cd58 2.297 . S
O68 C63 1.247 . S
O69 Cd58 2.439 . S
O69 C63 1.208 . S
O70 Cd71 2.223 . S
O70 C78 1.315 . S
Cd71 O70 2.223 . S
Cd71 O74 2.297 . S
Cd71 O75 2.439 . S
Cd71 O81 2.240 . S
Cd72 O73 2.240 . S
Cd72 O80 2.223 . S
Cd72 O82 2.297 . S
Cd72 O83 2.439 . S
O73 Cd72 2.240 . S
O73 C78 1.279 . S
O74 Cd71 2.297 . S
O74 C76 1.247 . S
O75 Cd71 2.439 . S
O75 C76 1.208 . S
C76 O74 1.247 . S
C76 O75 1.208 . S
C77 O82 1.247 . S
C77 O83 1.208 . S
C78 O70 1.315 . S
C78 O73 1.279 . S
C79 O80 1.315 . S
C79 O81 1.279 . S
O80 Cd72 2.223 . S
O80 C79 1.315 . S
O81 Cd71 2.240 . S
O81 C79 1.279 . S
O82 Cd72 2.297 . S
O82 C77 1.247 . S
O83 Cd72 2.439 . S
O83 C77 1.208 . S
O84 Cd85 2.223 . S
O84 C92 1.315 . S
Cd85 O84 2.223 . S
Cd85 O88 2.297 . S
Cd85 O89 2.439 . S
Cd85 O95 2.240 . S
Cd86 O87 2.240 . S
Cd86 O94 2.223 . S
Cd86 O96 2.297 . S
Cd86 O97 2.439 . S
O87 Cd86 2.240 . S
O87 C92 1.279 . S
O88 Cd85 2.297 . S
O88 C90 1.247 . S
O89 Cd85 2.439 . S
O89 C90 1.208 . S
C90 O88 1.247 . S
C90 O89 1.208 . S
C91 O96 1.247 . S
C91 O97 1.208 . S
C92 O84 1.315 . S
C92 O87 1.279 . S
C93 O94 1.315 . S
C93 O95 1.279 . S
O94 Cd86 2.223 . S
O94 C93 1.315 . S
O95 Cd85 2.240 . S
O95 C93 1.279 . S
O96 Cd86 2.297 . S
O96 C91 1.247 . S
O97 Cd86 2.439 . S
O97 C91 1.208 . S
O98 Cd99 2.223 . S
O98 C106 1.315 . S
Cd99 O98 2.223 . S
Cd99 O102 2.297 . S
Cd99 O103 2.439 . S
Cd99 O109 2.240 . S
Cd100 O101 2.240 . S
Cd100 O108 2.223 . S
Cd100 O110 2.297 . S
Cd100 O111 2.439 . S
O101 Cd100 2.240 . S
O101 C106 1.279 . S
O102 Cd99 2.297 . S
O102 C104 1.247 . S
O103 Cd99 2.439 . S
O103 C104 1.208 . S
C104 O102 1.247 . S
C104 O103 1.208 . S
C105 O110 1.247 . S
C105 O111 1.208 . S
C106 O98 1.315 . S
C106 O101 1.279 . S
C107 O108 1.315 . S
C107 O109 1.279 . S
O108 Cd100 2.223 . S
O108 C107 1.315 . S
O109 Cd99 2.240 . S
O109 C107 1.279 . S
O110 Cd100 2.297 . S
O110 C105 1.247 . S
O111 Cd100 2.439 . S
O111 C105 1.208 . S
O112 Cd113 2.223 . S
O112 C120 1.315 . S
Cd113 O112 2.223 . S
Cd113 O116 2.297 . S
Cd113 O117 2.439 . S
Cd113 O123 2.240 . S
Cd114 O115 2.240 . S
Cd114 O122 2.223 . S
Cd114 O124 2.297 . S
Cd114 O125 2.439 . S
O115 Cd114 2.240 . S
O115 C120 1.279 . S
O116 Cd113 2.297 . S
O116 C118 1.247 . S
O117 Cd113 2.439 . S
O117 C118 1.208 . S
C118 O116 1.247 . S
C118 O117 1.208 . S
C119 O124 1.247 . S
C119 O125 1.208 . S
C120 O112 1.315 . S
C120 O115 1.279 . S
C121 O122 1.315 . S
C121 O123 1.279 . S
O122 Cd114 2.223 . S
O122 C121 1.315 . S
O123 Cd113 2.240 . S
O123 C121 1.279 . S
O124 Cd114 2.297 . S
O124 C119 1.247 . S
O125 Cd114 2.439 . S
O125 C119 1.208 . S
O126 Cd127 2.223 . S
O126 C134 1.315 . S
Cd127 O126 2.223 . S
Cd127 O130 2.297 . S
Cd127 O131 2.439 . S
Cd127 O137 2.240 . S
Cd128 O129 2.240 . S
Cd128 O136 2.223 . S
Cd128 O138 2.297 . S
Cd128 O139 2.439 . S
O129 Cd128 2.240 . S
O129 C134 1.279 . S
O130 Cd127 2.297 . S
O130 C132 1.247 . S
O131 Cd127 2.439 . S
O131 C132 1.208 . S
C132 O130 1.247 . S
C132 O131 1.208 . S
C133 O138 1.247 . S
C133 O139 1.208 . S
C134 O126 1.315 . S
C134 O129 1.279 . S
C135 O136 1.315 . S
C135 O137 1.279 . S
O136 Cd128 2.223 . S
O136 C135 1.315 . S
O137 Cd127 2.240 . S
O137 C135 1.279 . S
O138 Cd128 2.297 . S
O138 C133 1.247 . S
O139 Cd128 2.439 . S
O139 C133 1.208 . S
O140 Cd141 2.223 . S
O140 C148 1.315 . S
Cd141 O140 2.223 . S
Cd141 O144 2.297 . S
Cd141 O145 2.439 . S
Cd141 O151 2.240 . S
Cd142 O143 2.240 . S
Cd142 O150 2.223 . S
Cd142 O152 2.297 . S
Cd142 O153 2.439 . S
O143 Cd142 2.240 . S
O143 C148 1.279 . S
O144 Cd141 2.297 . S
O144 C146 1.247 . S
O145 Cd141 2.439 . S
O145 C146 1.208 . S
C146 O144 1.247 . S
C146 O145 1.208 . S
C147 O152 1.247 . S
C147 O153 1.208 . S
C148 O140 1.315 . S
C148 O143 1.279 . S
C149 O150 1.315 . S
C149 O151 1.279 . S
O150 Cd142 2.223 . S
O150 C149 1.315 . S
O151 Cd141 2.240 . S
O151 C149 1.279 . S
O152 Cd142 2.297 . S
O152 C147 1.247 . S
O153 Cd142 2.439 . S
O153 C147 1.208 . S
O154 Cd155 2.223 . S
O154 C162 1.315 . S
Cd155 O154 2.223 . S
Cd155 O158 2.297 . S
Cd155 O159 2.439 . S
Cd155 O165 2.240 . S
Cd156 O157 2.240 . S
Cd156 O164 2.223 . S
Cd156 O166 2.297 . S
Cd156 O167 2.439 . S
O157 Cd156 2.240 . S
O157 C162 1.279 . S
O158 Cd155 2.297 . S
O158 C160 1.247 . S
O159 Cd155 2.439 . S
O159 C160 1.208 . S
C160 O158 1.247 . S
C160 O159 1.208 . S
C161 O166 1.247 . S
C161 O167 1.208 . S
C162 O154 1.315 . S
C162 O157 1.279 . S
C163 O164 1.315 . S
C163 O165 1.279 . S
O164 Cd156 2.223 . S
O164 C163 1.315 . S
O165 Cd155 2.240 . S
O165 C163 1.279 . S
O166 Cd156 2.297 . S
O166 C161 1.247 . S
O167 Cd156 2.439 . S
O167 C161 1.208 . S
O168 Cd169 2.223 . S
O168 C176 1.315 . S
Cd169 O168 2.223 . S
Cd169 O172 2.297 . S
Cd169 O173 2.439 . S
Cd169 O179 2.240 . S
Cd170 O171 2.240 . S
Cd170 O178 2.223 . S
Cd170 O180 2.297 . S
Cd170 O181 2.439 . S
O171 Cd170 2.240 . S
O171 C176 1.279 . S
O172 Cd169 2.297 . S
O172 C174 1.247 . S
O173 Cd169 2.439 . S
O173 C174 1.208 . S
C174 O172 1.247 . S
C174 O173 1.208 . S
C175 O180 1.247 . S
C175 O181 1.208 . S
C176 O168 1.315 . S
C176 O171 1.279 . S
C177 O178 1.315 . S
C177 O179 1.279 . S
O178 Cd170 2.223 . S
O178 C177 1.315 . S
O179 Cd169 2.240 . S
O179 C177 1.279 . S
O180 Cd170 2.297 . S
O180 C175 1.247 . S
O181 Cd170 2.439 . S
O181 C175 1.208 . S
O182 Cd183 2.223 . S
O182 C190 1.315 . S
Cd183 O182 2.223 . S
Cd183 O186 2.297 . S
Cd183 O187 2.439 . S
Cd183 O193 2.240 . S
Cd184 O185 2.240 . S
Cd184 O192 2.223 . S
Cd184 O194 2.297 . S
Cd184 O195 2.439 . S
O185 Cd184 2.240 . S
O185 C190 1.279 . S
O186 Cd183 2.297 . S
O186 C188 1.247 . S
O187 Cd183 2.439 . S
O187 C188 1.208 . S
C188 O186 1.247 . S
C188 O187 1.208 . S
C189 O194 1.247 . S
C189 O195 1.208 . S
C190 O182 1.315 . S
C190 O185 1.279 . S
C191 O192 1.315 . S
C191 O193 1.279 . S
O192 Cd184 2.223 . S
O192 C191 1.315 . S
O193 Cd183 2.240 . S
O193 C191 1.279 . S
O194 Cd184 2.297 . S
O194 C189 1.247 . S
O195 Cd184 2.439 . S
O195 C189 1.208 . S
O196 Cd197 2.223 . S
O196 C204 1.315 . S
Cd197 O196 2.223 . S
Cd197 O200 2.297 . S
Cd197 O201 2.439 . S
Cd197 O207 2.240 . S
Cd198 O199 2.240 . S
Cd198 O206 2.223 . S
Cd198 O208 2.297 . S
Cd198 O209 2.439 . S
O199 Cd198 2.240 . S
O199 C204 1.279 . S
O200 Cd197 2.297 . S
O200 C202 1.247 . S
O201 Cd197 2.439 . S
O201 C202 1.208 . S
C202 O200 1.247 . S
C202 O201 1.208 . S
C203 O208 1.247 . S
C203 O209 1.208 . S
C204 O196 1.315 . S
C204 O199 1.279 . S
C205 O206 1.315 . S
C205 O207 1.279 . S
O206 Cd198 2.223 . S
O206 C205 1.315 . S
O207 Cd197 2.240 . S
O207 C205 1.279 . S
O208 Cd198 2.297 . S
O208 C203 1.247 . S
O209 Cd198 2.439 . S
O209 C203 1.208 . S
O210 Cd211 2.223 . S
O210 C218 1.315 . S
Cd211 O210 2.223 . S
Cd211 O214 2.297 . S
Cd211 O215 2.439 . S
Cd211 O221 2.240 . S
Cd212 O213 2.240 . S
Cd212 O220 2.223 . S
Cd212 O222 2.297 . S
Cd212 O223 2.439 . S
O213 Cd212 2.240 . S
O213 C218 1.279 . S
O214 Cd211 2.297 . S
O214 C216 1.247 . S
O215 Cd211 2.439 . S
O215 C216 1.208 . S
C216 O214 1.247 . S
C216 O215 1.208 . S
C217 O222 1.247 . S
C217 O223 1.208 . S
C218 O210 1.315 . S
C218 O213 1.279 . S
C219 O220 1.315 . S
C219 O221 1.279 . S
O220 Cd212 2.223 . S
O220 C219 1.315 . S
O221 Cd211 2.240 . S
O221 C219 1.279 . S
O222 Cd212 2.297 . S
O222 C217 1.247 . S
O223 Cd212 2.439 . S
O223 C217 1.208 . S
O224 Cd225 2.223 . S
O224 C232 1.315 . S
Cd225 O224 2.223 . S
Cd225 O228 2.297 . S
Cd225 O229 2.439 . S
Cd225 O235 2.240 . S
Cd226 O227 2.240 . S
Cd226 O234 2.223 . S
Cd226 O236 2.297 . S
Cd226 O237 2.439 . S
O227 Cd226 2.240 . S
O227 C232 1.279 . S
O228 Cd225 2.297 . S
O228 C230 1.247 . S
O229 Cd225 2.439 . S
O229 C230 1.208 . S
C230 O228 1.247 . S
C230 O229 1.208 . S
C231 O236 1.247 . S
C231 O237 1.208 . S
C232 O224 1.315 . S
C232 O227 1.279 . S
C233 O234 1.315 . S
C233 O235 1.279 . S
O234 Cd226 2.223 . S
O234 C233 1.315 . S
O235 Cd225 2.240 . S
O235 C233 1.279 . S
O236 Cd226 2.297 . S
O236 C231 1.247 . S
O237 Cd226 2.439 . S
O237 C231 1.208 . S
O238 Cd239 2.223 . S
O238 C246 1.315 . S
Cd239 O238 2.223 . S
Cd239 O242 2.297 . S
Cd239 O243 2.439 . S
Cd239 O249 2.240 . S
Cd240 O241 2.240 . S
Cd240 O248 2.223 . S
Cd240 O250 2.297 . S
Cd240 O251 2.439 . S
O241 Cd240 2.240 . S
O241 C246 1.279 . S
O242 Cd239 2.297 . S
O242 C244 1.247 . S
O243 Cd239 2.439 . S
O243 C244 1.208 . S
C244 O242 1.247 . S
C244 O243 1.208 . S
C245 O250 1.247 . S
C245 O251 1.208 . S
C246 O238 1.315 . S
C246 O241 1.279 . S
C247 O248 1.315 . S
C247 O249 1.279 . S
O248 Cd240 2.223 . S
O248 C247 1.315 . S
O249 Cd239 2.240 . S
O249 C247 1.279 . S
O250 Cd240 2.297 . S
O250 C245 1.247 . S
O251 Cd240 2.439 . S
O251 C245 1.208 . S
O252 Cd253 2.223 . S
O252 C260 1.315 . S
Cd253 O252 2.223 . S
Cd253 O256 2.297 . S
Cd253 O257 2.439 . S
Cd253 O263 2.240 . S
Cd254 O255 2.240 . S
Cd254 O262 2.223 . S
Cd254 O264 2.297 . S
Cd254 O265 2.439 . S
O255 Cd254 2.240 . S
O255 C260 1.279 . S
O256 Cd253 2.297 . S
O256 C258 1.247 . S
O257 Cd253 2.439 . S
O257 C258 1.208 . S
C258 O256 1.247 . S
C258 O257 1.208 . S
C259 O264 1.247 . S
C259 O265 1.208 . S
C260 O252 1.315 . S
C260 O255 1.279 . S
C261 O262 1.315 . S
C261 O263 1.279 . S
O262 Cd254 2.223 . S
O262 C261 1.315 . S
O263 Cd253 2.240 . S
O263 C261 1.279 . S
O264 Cd254 2.297 . S
O264 C259 1.247 . S
O265 Cd254 2.439 . S
O265 C259 1.208 . S
O266 Cd267 2.223 . S
O266 C274 1.315 . S
Cd267 O266 2.223 . S
Cd267 O270 2.297 . S
Cd267 O271 2.439 . S
Cd267 O277 2.240 . S
Cd268 O269 2.240 . S
Cd268 O276 2.223 . S
Cd268 O278 2.297 . S
Cd268 O279 2.439 . S
O269 Cd268 2.240 . S
O269 C274 1.279 . S
O270 Cd267 2.297 . S
O270 C272 1.247 . S
O271 Cd267 2.439 . S
O271 C272 1.208 . S
C272 O270 1.247 . S
C272 O271 1.208 . S
C273 O278 1.247 . S
C273 O279 1.208 . S
C274 O266 1.315 . S
C274 O269 1.279 . S
C275 O276 1.315 . S
C275 O277 1.279 . S
O276 Cd268 2.223 . S
O276 C275 1.315 . S
O277 Cd267 2.240 . S
O277 C275 1.279 . S
O278 Cd268 2.297 . S
O278 C273 1.247 . S
O279 Cd268 2.439 . S
O279 C273 1.208 . S
O280 Cd281 2.223 . S
O280 C288 1.315 . S
Cd281 O280 2.223 . S
Cd281 O284 2.297 . S
Cd281 O285 2.439 . S
Cd281 O291 2.240 . S
Cd282 O283 2.240 . S
Cd282 O290 2.223 . S
Cd282 O292 2.297 . S
Cd282 O293 2.439 . S
O283 Cd282 2.240 . S
O283 C288 1.279 . S
O284 Cd281 2.297 . S
O284 C286 1.247 . S
O285 Cd281 2.439 . S
O285 C286 1.208 . S
C286 O284 1.247 . S
C286 O285 1.208 . S
C287 O292 1.247 . S
C287 O293 1.208 . S
C288 O280 1.315 . S
C288 O283 1.279 . S
C289 O290 1.315 . S
C289 O291 1.279 . S
O290 Cd282 2.223 . S
O290 C289 1.315 . S
O291 Cd281 2.240 . S
O291 C289 1.279 . S
O292 Cd282 2.297 . S
O292 C287 1.247 . S
O293 Cd282 2.439 . S
O293 C287 1.208 . S
O294 Cd295 2.223 . S
O294 C302 1.315 . S
Cd295 O294 2.223 . S
Cd295 O298 2.297 . S
Cd295 O299 2.439 . S
Cd295 O305 2.240 . S
Cd296 O297 2.240 . S
Cd296 O304 2.223 . S
Cd296 O306 2.297 . S
Cd296 O307 2.439 . S
O297 Cd296 2.240 . S
O297 C302 1.279 . S
O298 Cd295 2.297 . S
O298 C300 1.247 . S
O299 Cd295 2.439 . S
O299 C300 1.208 . S
C300 O298 1.247 . S
C300 O299 1.208 . S
C301 O306 1.247 . S
C301 O307 1.208 . S
C302 O294 1.315 . S
C302 O297 1.279 . S
C303 O304 1.315 . S
C303 O305 1.279 . S
O304 Cd296 2.223 . S
O304 C303 1.315 . S
O305 Cd295 2.240 . S
O305 C303 1.279 . S
O306 Cd296 2.297 . S
O306 C301 1.247 . S
O307 Cd296 2.439 . S
O307 C301 1.208 . S
O308 Cd309 2.223 . S
O308 C316 1.315 . S
Cd309 O308 2.223 . S
Cd309 O312 2.297 . S
Cd309 O313 2.439 . S
Cd309 O319 2.240 . S
Cd310 O311 2.240 . S
Cd310 O318 2.223 . S
Cd310 O320 2.297 . S
Cd310 O321 2.439 . S
O311 Cd310 2.240 . S
O311 C316 1.279 . S
O312 Cd309 2.297 . S
O312 C314 1.247 . S
O313 Cd309 2.439 . S
O313 C314 1.208 . S
C314 O312 1.247 . S
C314 O313 1.208 . S
C315 O320 1.247 . S
C315 O321 1.208 . S
C316 O308 1.315 . S
C316 O311 1.279 . S
C317 O318 1.315 . S
C317 O319 1.279 . S
O318 Cd310 2.223 . S
O318 C317 1.315 . S
O319 Cd309 2.240 . S
O319 C317 1.279 . S
O320 Cd310 2.297 . S
O320 C315 1.247 . S
O321 Cd310 2.439 . S
O321 C315 1.208 . S
O322 Cd323 2.223 . S
O322 C330 1.315 . S
Cd323 O322 2.223 . S
Cd323 O326 2.297 . S
Cd323 O327 2.439 . S
Cd323 O333 2.240 . S
Cd324 O325 2.240 . S
Cd324 O332 2.223 . S
Cd324 O334 2.297 . S
Cd324 O335 2.439 . S
O325 Cd324 2.240 . S
O325 C330 1.279 . S
O326 Cd323 2.297 . S
O326 C328 1.247 . S
O327 Cd323 2.439 . S
O327 C328 1.208 . S
C328 O326 1.247 . S
C328 O327 1.208 . S
C329 O334 1.247 . S
C329 O335 1.208 . S
C330 O322 1.315 . S
C330 O325 1.279 . S
C331 O332 1.315 . S
C331 O333 1.279 . S
O332 Cd324 2.223 . S
O332 C331 1.315 . S
O333 Cd323 2.240 . S
O333 C331 1.279 . S
O334 Cd324 2.297 . S
O334 C329 1.247 . S
O335 Cd324 2.439 . S
O335 C329 1.208 . S
O336 Cd337 2.223 . S
O336 C344 1.315 . S
Cd337 O336 2.223 . S
Cd337 O340 2.297 . S
Cd337 O341 2.439 . S
Cd337 O347 2.240 . S
Cd338 O339 2.240 . S
Cd338 O346 2.223 . S
Cd338 O348 2.297 . S
Cd338 O349 2.439 . S
O339 Cd338 2.240 . S
O339 C344 1.279 . S
O340 Cd337 2.297 . S
O340 C342 1.247 . S
O341 Cd337 2.439 . S
O341 C342 1.208 . S
C342 O340 1.247 . S
C342 O341 1.208 . S
C343 O348 1.247 . S
C343 O349 1.208 . S
C344 O336 1.315 . S
C344 O339 1.279 . S
C345 O346 1.315 . S
C345 O347 1.279 . S
O346 Cd338 2.223 . S
O346 C345 1.315 . S
O347 Cd337 2.240 . S
O347 C345 1.279 . S
O348 Cd338 2.297 . S
O348 C343 1.247 . S
O349 Cd338 2.439 . S
O349 C343 1.208 . S
O350 Cd351 2.223 . S
O350 C358 1.315 . S
Cd351 O350 2.223 . S
Cd351 O354 2.297 . S
Cd351 O355 2.439 . S
Cd351 O361 2.240 . S
Cd352 O353 2.240 . S
Cd352 O360 2.223 . S
Cd352 O362 2.297 . S
Cd352 O363 2.439 . S
O353 Cd352 2.240 . S
O353 C358 1.279 . S
O354 Cd351 2.297 . S
O354 C356 1.247 . S
O355 Cd351 2.439 . S
O355 C356 1.208 . S
C356 O354 1.247 . S
C356 O355 1.208 . S
C357 O362 1.247 . S
C357 O363 1.208 . S
C358 O350 1.315 . S
C358 O353 1.279 . S
C359 O360 1.315 . S
C359 O361 1.279 . S
O360 Cd352 2.223 . S
O360 C359 1.315 . S
O361 Cd351 2.240 . S
O361 C359 1.279 . S
O362 Cd352 2.297 . S
O362 C357 1.247 . S
O363 Cd352 2.439 . S
O363 C357 1.208 . S
O364 Cd365 2.223 . S
O364 C372 1.315 . S
Cd365 O364 2.223 . S
Cd365 O368 2.297 . S
Cd365 O369 2.439 . S
Cd365 O375 2.240 . S
Cd366 O367 2.240 . S
Cd366 O374 2.223 . S
Cd366 O376 2.297 . S
Cd366 O377 2.439 . S
O367 Cd366 2.240 . S
O367 C372 1.279 . S
O368 Cd365 2.297 . S
O368 C370 1.247 . S
O369 Cd365 2.439 . S
O369 C370 1.208 . S
C370 O368 1.247 . S
C370 O369 1.208 . S
C371 O376 1.247 . S
C371 O377 1.208 . S
C372 O364 1.315 . S
C372 O367 1.279 . S
C373 O374 1.315 . S
C373 O375 1.279 . S
O374 Cd366 2.223 . S
O374 C373 1.315 . S
O375 Cd365 2.240 . S
O375 C373 1.279 . S
O376 Cd366 2.297 . S
O376 C371 1.247 . S
O377 Cd366 2.439 . S
O377 C371 1.208 . S
O378 Cd379 2.223 . S
O378 C386 1.315 . S
Cd379 O378 2.223 . S
Cd379 O382 2.297 . S
Cd379 O383 2.439 . S
Cd379 O389 2.240 . S
Cd380 O381 2.240 . S
Cd380 O388 2.223 . S
Cd380 O390 2.297 . S
Cd380 O391 2.439 . S
O381 Cd380 2.240 . S
O381 C386 1.279 . S
O382 Cd379 2.297 . S
O382 C384 1.247 . S
O383 Cd379 2.439 . S
O383 C384 1.208 . S
C384 O382 1.247 . S
C384 O383 1.208 . S
C385 O390 1.247 . S
C385 O391 1.208 . S
C386 O378 1.315 . S
C386 O381 1.279 . S
C387 O388 1.315 . S
C387 O389 1.279 . S
O388 Cd380 2.223 . S
O388 C387 1.315 . S
O389 Cd379 2.240 . S
O389 C387 1.279 . S
O390 Cd380 2.297 . S
O390 C385 1.247 . S
O391 Cd380 2.439 . S
O391 C385 1.208 . S
O392 Cd393 2.223 . S
O392 C400 1.315 . S
Cd393 O392 2.223 . S
Cd393 O396 2.297 . S
Cd393 O397 2.439 . S
Cd393 O403 2.240 . S
Cd394 O395 2.240 . S
Cd394 O402 2.223 . S
Cd394 O404 2.297 . S
Cd394 O405 2.439 . S
O395 Cd394 2.240 . S
O395 C400 1.279 . S
O396 Cd393 2.297 . S
O396 C398 1.247 . S
O397 Cd393 2.439 . S
O397 C398 1.208 . S
C398 O396 1.247 . S
C398 O397 1.208 . S
C399 O404 1.247 . S
C399 O405 1.208 . S
C400 O392 1.315 . S
C400 O395 1.279 . S
C401 O402 1.315 . S
C401 O403 1.279 . S
O402 Cd394 2.223 . S
O402 C401 1.315 . S
O403 Cd393 2.240 . S
O403 C401 1.279 . S
O404 Cd394 2.297 . S
O404 C399 1.247 . S
O405 Cd394 2.439 . S
O405 C399 1.208 . S
O406 Cd407 2.223 . S
O406 C414 1.315 . S
Cd407 O406 2.223 . S
Cd407 O410 2.297 . S
Cd407 O411 2.439 . S
Cd407 O417 2.240 . S
Cd408 O409 2.240 . S
Cd408 O416 2.223 . S
Cd408 O418 2.297 . S
Cd408 O419 2.439 . S
O409 Cd408 2.240 . S
O409 C414 1.279 . S
O410 Cd407 2.297 . S
O410 C412 1.247 . S
O411 Cd407 2.439 . S
O411 C412 1.208 . S
C412 O410 1.247 . S
C412 O411 1.208 . S
C413 O418 1.247 . S
C413 O419 1.208 . S
C414 O406 1.315 . S
C414 O409 1.279 . S
C415 O416 1.315 . S
C415 O417 1.279 . S
O416 Cd408 2.223 . S
O416 C415 1.315 . S
O417 Cd407 2.240 . S
O417 C415 1.279 . S
O418 Cd408 2.297 . S
O418 C413 1.247 . S
O419 Cd408 2.439 . S
O419 C413 1.208 . S
O420 Cd421 2.223 . S
O420 C428 1.315 . S
Cd421 O420 2.223 . S
Cd421 O424 2.297 . S
Cd421 O425 2.439 . S
Cd421 O431 2.240 . S
Cd422 O423 2.240 . S
Cd422 O430 2.223 . S
Cd422 O432 2.297 . S
Cd422 O433 2.439 . S
O423 Cd422 2.240 . S
O423 C428 1.279 . S
O424 Cd421 2.297 . S
O424 C426 1.247 . S
O425 Cd421 2.439 . S
O425 C426 1.208 . S
C426 O424 1.247 . S
C426 O425 1.208 . S
C427 O432 1.247 . S
C427 O433 1.208 . S
C428 O420 1.315 . S
C428 O423 1.279 . S
C429 O430 1.315 . S
C429 O431 1.279 . S
O430 Cd422 2.223 . S
O430 C429 1.315 . S
O431 Cd421 2.240 . S
O431 C429 1.279 . S
O432 Cd422 2.297 . S
O432 C427 1.247 . S
O433 Cd422 2.439 . S
O433 C427 1.208 . S
O434 Cd435 2.223 . S
O434 C442 1.315 . S
Cd435 O434 2.223 . S
Cd435 O438 2.297 . S
Cd435 O439 2.439 . S
Cd435 O445 2.240 . S
Cd436 O437 2.240 . S
Cd436 O444 2.223 . S
Cd436 O446 2.297 . S
Cd436 O447 2.439 . S
O437 Cd436 2.240 . S
O437 C442 1.279 . S
O438 Cd435 2.297 . S
O438 C440 1.247 . S
O439 Cd435 2.439 . S
O439 C440 1.208 . S
C440 O438 1.247 . S
C440 O439 1.208 . S
C441 O446 1.247 . S
C441 O447 1.208 . S
C442 O434 1.315 . S
C442 O437 1.279 . S
C443 O444 1.315 . S
C443 O445 1.279 . S
O444 Cd436 2.223 . S
O444 C443 1.315 . S
O445 Cd435 2.240 . S
O445 C443 1.279 . S
O446 Cd436 2.297 . S
O446 C441 1.247 . S
O447 Cd436 2.439 . S
O447 C441 1.208 . S
H448 C454 0.930 . S
H449 C458 0.930 . S
H450 C463 0.929 . S
H451 C461 0.929 . S
H452 C456 0.929 . S
H453 C462 0.929 . S
C454 H448 0.930 . S
C454 C455 1.367 . S
C454 C462 1.378 . S
C455 C454 1.367 . S
C455 C463 1.433 . S
C456 H452 0.929 . S
C456 C458 1.378 . S
C456 C460 1.350 . S
C457 C460 1.463 . S
C457 C462 1.350 . S
C457 N465 1.427 . S
C458 H449 0.930 . S
C458 C456 1.378 . S
C458 C459 1.367 . S
C459 C458 1.367 . S
C459 C461 1.433 . S
C460 C456 1.350 . S
C460 C457 1.463 . S
C460 N464 1.427 . S
C461 H451 0.929 . S
C461 C459 1.433 . S
C461 N464 1.384 . S
C462 H453 0.929 . S
C462 C454 1.378 . S
C462 C457 1.350 . S
C463 H450 0.929 . S
C463 C455 1.433 . S
C463 N465 1.384 . S
N464 C460 1.427 . S
N464 C461 1.384 . S
N465 C457 1.427 . S
N465 C463 1.384 . S
H466 C472 0.930 . S
H467 C476 0.930 . S
H468 C481 0.929 . S
H469 C479 0.929 . S
H470 C474 0.929 . S
H471 C480 0.929 . S
C472 H466 0.930 . S
C472 C473 1.367 . S
C472 C480 1.378 . S
C473 C472 1.367 . S
C473 C481 1.433 . S
C474 H470 0.929 . S
C474 C476 1.378 . S
C474 C478 1.350 . S
C475 C478 1.463 . S
C475 C480 1.350 . S
C475 N483 1.427 . S
C476 H467 0.930 . S
C476 C474 1.378 . S
C476 C477 1.367 . S
C477 C476 1.367 . S
C477 C479 1.433 . S
C478 C474 1.350 . S
C478 C475 1.463 . S
C478 N482 1.427 . S
C479 H469 0.929 . S
C479 C477 1.433 . S
C479 N482 1.384 . S
C480 H471 0.929 . S
C480 C472 1.378 . S
C480 C475 1.350 . S
C481 H468 0.929 . S
C481 C473 1.433 . S
C481 N483 1.384 . S
N482 C478 1.427 . S
N482 C479 1.384 . S
N483 C475 1.427 . S
N483 C481 1.384 . S
H484 C490 0.930 . S
H485 C494 0.930 . S
H486 C499 0.929 . S
H487 C497 0.929 . S
H488 C492 0.929 . S
H489 C498 0.929 . S
C490 H484 0.930 . S
C490 C491 1.367 . S
C490 C498 1.378 . S
C491 C490 1.367 . S
C491 C499 1.433 . S
C492 H488 0.929 . S
C492 C494 1.378 . S
C492 C496 1.350 . S
C493 C496 1.463 . S
C493 C498 1.350 . S
C493 N501 1.427 . S
C494 H485 0.930 . S
C494 C492 1.378 . S
C494 C495 1.367 . S
C495 C494 1.367 . S
C495 C497 1.433 . S
C496 C492 1.350 . S
C496 C493 1.463 . S
C496 N500 1.427 . S
C497 H487 0.929 . S
C497 C495 1.433 . S
C497 N500 1.384 . S
C498 H489 0.929 . S
C498 C490 1.378 . S
C498 C493 1.350 . S
C499 H486 0.929 . S
C499 C491 1.433 . S
C499 N501 1.384 . S
N500 C496 1.427 . S
N500 C497 1.384 . S
N501 C493 1.427 . S
N501 C499 1.384 . S
H502 C508 0.930 . S
H503 C512 0.930 . S
H504 C517 0.929 . S
H505 C515 0.929 . S
H506 C510 0.929 . S
H507 C516 0.929 . S
C508 H502 0.930 . S
C508 C509 1.367 . S
C508 C516 1.378 . S
C509 C508 1.367 . S
C509 C517 1.433 . S
C510 H506 0.929 . S
C510 C512 1.378 . S
C510 C514 1.350 . S
C511 C514 1.463 . S
C511 C516 1.350 . S
C511 N519 1.427 . S
C512 H503 0.930 . S
C512 C510 1.378 . S
C512 C513 1.367 . S
C513 C512 1.367 . S
C513 C515 1.433 . S
C514 C510 1.350 . S
C514 C511 1.463 . S
C514 N518 1.427 . S
C515 H505 0.929 . S
C515 C513 1.433 . S
C515 N518 1.384 . S
C516 H507 0.929 . S
C516 C508 1.378 . S
C516 C511 1.350 . S
C517 H504 0.929 . S
C517 C509 1.433 . S
C517 N519 1.384 . S
N518 C514 1.427 . S
N518 C515 1.384 . S
N519 C511 1.427 . S
N519 C517 1.384 . S
H520 C526 0.930 . S
H521 C530 0.930 . S
H522 C535 0.929 . S
H523 C533 0.929 . S
H524 C528 0.929 . S
H525 C534 0.929 . S
C526 H520 0.930 . S
C526 C527 1.367 . S
C526 C534 1.378 . S
C527 C526 1.367 . S
C527 C535 1.433 . S
C528 H524 0.929 . S
C528 C530 1.378 . S
C528 C532 1.350 . S
C529 C532 1.463 . S
C529 C534 1.350 . S
C529 N537 1.427 . S
C530 H521 0.930 . S
C530 C528 1.378 . S
C530 C531 1.367 . S
C531 C530 1.367 . S
C531 C533 1.433 . S
C532 C528 1.350 . S
C532 C529 1.463 . S
C532 N536 1.427 . S
C533 H523 0.929 . S
C533 C531 1.433 . S
C533 N536 1.384 . S
C534 H525 0.929 . S
C534 C526 1.378 . S
C534 C529 1.350 . S
C535 H522 0.929 . S
C535 C527 1.433 . S
C535 N537 1.384 . S
N536 C532 1.427 . S
N536 C533 1.384 . S
N537 C529 1.427 . S
N537 C535 1.384 . S
H538 C544 0.930 . S
H539 C548 0.930 . S
H540 C553 0.929 . S
H541 C551 0.929 . S
H542 C546 0.929 . S
H543 C552 0.929 . S
C544 H538 0.930 . S
C544 C545 1.367 . S
C544 C552 1.378 . S
C545 C544 1.367 . S
C545 C553 1.433 . S
C546 H542 0.929 . S
C546 C548 1.378 . S
C546 C550 1.350 . S
C547 C550 1.463 . S
C547 C552 1.350 . S
C547 N555 1.427 . S
C548 H539 0.930 . S
C548 C546 1.378 . S
C548 C549 1.367 . S
C549 C548 1.367 . S
C549 C551 1.433 . S
C550 C546 1.350 . S
C550 C547 1.463 . S
C550 N554 1.427 . S
C551 H541 0.929 . S
C551 C549 1.433 . S
C551 N554 1.384 . S
C552 H543 0.929 . S
C552 C544 1.378 . S
C552 C547 1.350 . S
C553 H540 0.929 . S
C553 C545 1.433 . S
C553 N555 1.384 . S
N554 C550 1.427 . S
N554 C551 1.384 . S
N555 C547 1.427 . S
N555 C553 1.384 . S
H556 C562 0.930 . S
H557 C566 0.930 . S
H558 C571 0.929 . S
H559 C569 0.929 . S
H560 C564 0.929 . S
H561 C570 0.929 . S
C562 H556 0.930 . S
C562 C563 1.367 . S
C562 C570 1.378 . S
C563 C562 1.367 . S
C563 C571 1.433 . S
C564 H560 0.929 . S
C564 C566 1.378 . S
C564 C568 1.350 . S
C565 C568 1.463 . S
C565 C570 1.350 . S
C565 N573 1.427 . S
C566 H557 0.930 . S
C566 C564 1.378 . S
C566 C567 1.367 . S
C567 C566 1.367 . S
C567 C569 1.433 . S
C568 C564 1.350 . S
C568 C565 1.463 . S
C568 N572 1.427 . S
C569 H559 0.929 . S
C569 C567 1.433 . S
C569 N572 1.384 . S
C570 H561 0.929 . S
C570 C562 1.378 . S
C570 C565 1.350 . S
C571 H558 0.929 . S
C571 C563 1.433 . S
C571 N573 1.384 . S
N572 C568 1.427 . S
N572 C569 1.384 . S
N573 C565 1.427 . S
N573 C571 1.384 . S
H574 C580 0.930 . S
H575 C584 0.930 . S
H576 C589 0.929 . S
H577 C587 0.929 . S
H578 C582 0.929 . S
H579 C588 0.929 . S
C580 H574 0.930 . S
C580 C581 1.367 . S
C580 C588 1.378 . S
C581 C580 1.367 . S
C581 C589 1.433 . S
C582 H578 0.929 . S
C582 C584 1.378 . S
C582 C586 1.350 . S
C583 C586 1.463 . S
C583 C588 1.350 . S
C583 N591 1.427 . S
C584 H575 0.930 . S
C584 C582 1.378 . S
C584 C585 1.367 . S
C585 C584 1.367 . S
C585 C587 1.433 . S
C586 C582 1.350 . S
C586 C583 1.463 . S
C586 N590 1.427 . S
C587 H577 0.929 . S
C587 C585 1.433 . S
C587 N590 1.384 . S
C588 H579 0.929 . S
C588 C580 1.378 . S
C588 C583 1.350 . S
C589 H576 0.929 . S
C589 C581 1.433 . S
C589 N591 1.384 . S
N590 C586 1.427 . S
N590 C587 1.384 . S
N591 C583 1.427 . S
N591 C589 1.384 . S
H592 C598 0.930 . S
H593 C602 0.930 . S
H594 C607 0.929 . S
H595 C605 0.929 . S
H596 C600 0.929 . S
H597 C606 0.929 . S
C598 H592 0.930 . S
C598 C599 1.367 . S
C598 C606 1.378 . S
C599 C598 1.367 . S
C599 C607 1.433 . S
C600 H596 0.929 . S
C600 C602 1.378 . S
C600 C604 1.350 . S
C601 C604 1.463 . S
C601 C606 1.350 . S
C601 N609 1.427 . S
C602 H593 0.930 . S
C602 C600 1.378 . S
C602 C603 1.367 . S
C603 C602 1.367 . S
C603 C605 1.433 . S
C604 C600 1.350 . S
C604 C601 1.463 . S
C604 N608 1.427 . S
C605 H595 0.929 . S
C605 C603 1.433 . S
C605 N608 1.384 . S
C606 H597 0.929 . S
C606 C598 1.378 . S
C606 C601 1.350 . S
C607 H594 0.929 . S
C607 C599 1.433 . S
C607 N609 1.384 . S
N608 C604 1.427 . S
N608 C605 1.384 . S
N609 C601 1.427 . S
N609 C607 1.384 . S
H610 C616 0.930 . S
H611 C620 0.930 . S
H612 C625 0.929 . S
H613 C623 0.929 . S
H614 C618 0.929 . S
H615 C624 0.929 . S
C616 H610 0.930 . S
C616 C617 1.367 . S
C616 C624 1.378 . S
C617 C616 1.367 . S
C617 C625 1.433 . S
C618 H614 0.929 . S
C618 C620 1.378 . S
C618 C622 1.350 . S
C619 C622 1.463 . S
C619 C624 1.350 . S
C619 N627 1.427 . S
C620 H611 0.930 . S
C620 C618 1.378 . S
C620 C621 1.367 . S
C621 C620 1.367 . S
C621 C623 1.433 . S
C622 C618 1.350 . S
C622 C619 1.463 . S
C622 N626 1.427 . S
C623 H613 0.929 . S
C623 C621 1.433 . S
C623 N626 1.384 . S
C624 H615 0.929 . S
C624 C616 1.378 . S
C624 C619 1.350 . S
C625 H612 0.929 . S
C625 C617 1.433 . S
C625 N627 1.384 . S
N626 C622 1.427 . S
N626 C623 1.384 . S
N627 C619 1.427 . S
N627 C625 1.384 . S
H628 C634 0.930 . S
H629 C638 0.930 . S
H630 C643 0.929 . S
H631 C641 0.929 . S
H632 C636 0.929 . S
H633 C642 0.929 . S
C634 H628 0.930 . S
C634 C635 1.367 . S
C634 C642 1.378 . S
C635 C634 1.367 . S
C635 C643 1.433 . S
C636 H632 0.929 . S
C636 C638 1.378 . S
C636 C640 1.350 . S
C637 C640 1.463 . S
C637 C642 1.350 . S
C637 N645 1.427 . S
C638 H629 0.930 . S
C638 C636 1.378 . S
C638 C639 1.367 . S
C639 C638 1.367 . S
C639 C641 1.433 . S
C640 C636 1.350 . S
C640 C637 1.463 . S
C640 N644 1.427 . S
C641 H631 0.929 . S
C641 C639 1.433 . S
C641 N644 1.384 . S
C642 H633 0.929 . S
C642 C634 1.378 . S
C642 C637 1.350 . S
C643 H630 0.929 . S
C643 C635 1.433 . S
C643 N645 1.384 . S
N644 C640 1.427 . S
N644 C641 1.384 . S
N645 C637 1.427 . S
N645 C643 1.384 . S
H646 C652 0.930 . S
H647 C656 0.930 . S
H648 C661 0.929 . S
H649 C659 0.929 . S
H650 C654 0.929 . S
H651 C660 0.929 . S
C652 H646 0.930 . S
C652 C653 1.367 . S
C652 C660 1.378 . S
C653 C652 1.367 . S
C653 C661 1.433 . S
C654 H650 0.929 . S
C654 C656 1.378 . S
C654 C658 1.350 . S
C655 C658 1.463 . S
C655 C660 1.350 . S
C655 N663 1.427 . S
C656 H647 0.930 . S
C656 C654 1.378 . S
C656 C657 1.367 . S
C657 C656 1.367 . S
C657 C659 1.433 . S
C658 C654 1.350 . S
C658 C655 1.463 . S
C658 N662 1.427 . S
C659 H649 0.929 . S
C659 C657 1.433 . S
C659 N662 1.384 . S
C660 H651 0.929 . S
C660 C652 1.378 . S
C660 C655 1.350 . S
C661 H648 0.929 . S
C661 C653 1.433 . S
C661 N663 1.384 . S
N662 C658 1.427 . S
N662 C659 1.384 . S
N663 C655 1.427 . S
N663 C661 1.384 . S
H664 C670 0.930 . S
H665 C674 0.930 . S
H666 C679 0.929 . S
H667 C677 0.929 . S
H668 C672 0.929 . S
H669 C678 0.929 . S
C670 H664 0.930 . S
C670 C671 1.367 . S
C670 C678 1.378 . S
C671 C670 1.367 . S
C671 C679 1.433 . S
C672 H668 0.929 . S
C672 C674 1.378 . S
C672 C676 1.350 . S
C673 C676 1.463 . S
C673 C678 1.350 . S
C673 N681 1.427 . S
C674 H665 0.930 . S
C674 C672 1.378 . S
C674 C675 1.367 . S
C675 C674 1.367 . S
C675 C677 1.433 . S
C676 C672 1.350 . S
C676 C673 1.463 . S
C676 N680 1.427 . S
C677 H667 0.929 . S
C677 C675 1.433 . S
C677 N680 1.384 . S
C678 H669 0.929 . S
C678 C670 1.378 . S
C678 C673 1.350 . S
C679 H666 0.929 . S
C679 C671 1.433 . S
C679 N681 1.384 . S
N680 C676 1.427 . S
N680 C677 1.384 . S
N681 C673 1.427 . S
N681 C679 1.384 . S
H682 C688 0.930 . S
H683 C692 0.930 . S
H684 C697 0.929 . S
H685 C695 0.929 . S
H686 C690 0.929 . S
H687 C696 0.929 . S
C688 H682 0.930 . S
C688 C689 1.367 . S
C688 C696 1.378 . S
C689 C688 1.367 . S
C689 C697 1.433 . S
C690 H686 0.929 . S
C690 C692 1.378 . S
C690 C694 1.350 . S
C691 C694 1.463 . S
C691 C696 1.350 . S
C691 N699 1.427 . S
C692 H683 0.930 . S
C692 C690 1.378 . S
C692 C693 1.367 . S
C693 C692 1.367 . S
C693 C695 1.433 . S
C694 C690 1.350 . S
C694 C691 1.463 . S
C694 N698 1.427 . S
C695 H685 0.929 . S
C695 C693 1.433 . S
C695 N698 1.384 . S
C696 H687 0.929 . S
C696 C688 1.378 . S
C696 C691 1.350 . S
C697 H684 0.929 . S
C697 C689 1.433 . S
C697 N699 1.384 . S
N698 C694 1.427 . S
N698 C695 1.384 . S
N699 C691 1.427 . S
N699 C697 1.384 . S
H700 C706 0.930 . S
H701 C710 0.930 . S
H702 C715 0.929 . S
H703 C713 0.929 . S
H704 C708 0.929 . S
H705 C714 0.929 . S
C706 H700 0.930 . S
C706 C707 1.367 . S
C706 C714 1.378 . S
C707 C706 1.367 . S
C707 C715 1.433 . S
C708 H704 0.929 . S
C708 C710 1.378 . S
C708 C712 1.350 . S
C709 C712 1.463 . S
C709 C714 1.350 . S
C709 N717 1.427 . S
C710 H701 0.930 . S
C710 C708 1.378 . S
C710 C711 1.367 . S
C711 C710 1.367 . S
C711 C713 1.433 . S
C712 C708 1.350 . S
C712 C709 1.463 . S
C712 N716 1.427 . S
C713 H703 0.929 . S
C713 C711 1.433 . S
C713 N716 1.384 . S
C714 H705 0.929 . S
C714 C706 1.378 . S
C714 C709 1.350 . S
C715 H702 0.929 . S
C715 C707 1.433 . S
C715 N717 1.384 . S
N716 C712 1.427 . S
N716 C713 1.384 . S
N717 C709 1.427 . S
N717 C715 1.384 . S
H718 C724 0.930 . S
H719 C728 0.930 . S
H720 C733 0.929 . S
H721 C731 0.929 . S
H722 C726 0.929 . S
H723 C732 0.929 . S
C724 H718 0.930 . S
C724 C725 1.367 . S
C724 C732 1.378 . S
C725 C724 1.367 . S
C725 C733 1.433 . S
C726 H722 0.929 . S
C726 C728 1.378 . S
C726 C730 1.350 . S
C727 C730 1.463 . S
C727 C732 1.350 . S
C727 N735 1.427 . S
C728 H719 0.930 . S
C728 C726 1.378 . S
C728 C729 1.367 . S
C729 C728 1.367 . S
C729 C731 1.433 . S
C730 C726 1.350 . S
C730 C727 1.463 . S
C730 N734 1.427 . S
C731 H721 0.929 . S
C731 C729 1.433 . S
C731 N734 1.384 . S
C732 H723 0.929 . S
C732 C724 1.378 . S
C732 C727 1.350 . S
C733 H720 0.929 . S
C733 C725 1.433 . S
C733 N735 1.384 . S
N734 C730 1.427 . S
N734 C731 1.384 . S
N735 C727 1.427 . S
N735 C733 1.384 . S
H736 C742 0.930 . S
H737 C746 0.930 . S
H738 C751 0.929 . S
H739 C749 0.929 . S
H740 C744 0.929 . S
H741 C750 0.929 . S
C742 H736 0.930 . S
C742 C743 1.367 . S
C742 C750 1.378 . S
C743 C742 1.367 . S
C743 C751 1.433 . S
C744 H740 0.929 . S
C744 C746 1.378 . S
C744 C748 1.350 . S
C745 C748 1.463 1_655 S
C745 C750 1.350 . S
C745 N753 1.427 . S
C746 H737 0.930 . S
C746 C744 1.378 . S
C746 C747 1.367 . S
C747 C746 1.367 . S
C747 C749 1.433 . S
C748 C744 1.350 . S
C748 C745 1.463 1_455 S
C748 N752 1.427 . S
C749 H739 0.929 . S
C749 C747 1.433 . S
C749 N752 1.384 . S
C750 H741 0.929 . S
C750 C742 1.378 . S
C750 C745 1.350 . S
C751 H738 0.929 . S
C751 C743 1.433 . S
C751 N753 1.384 . S
N752 C748 1.427 . S
N752 C749 1.384 . S
N753 C745 1.427 . S
N753 C751 1.384 . S
H754 C760 0.930 . S
H755 C764 0.930 . S
H756 C769 0.929 . S
H757 C767 0.929 . S
H758 C762 0.929 . S
H759 C768 0.929 . S
C760 H754 0.930 . S
C760 C761 1.367 . S
C760 C768 1.378 . S
C761 C760 1.367 . S
C761 C769 1.433 . S
C762 H758 0.929 . S
C762 C764 1.378 . S
C762 C766 1.350 . S
C763 C766 1.463 1_545 S
C763 C768 1.350 . S
C763 N771 1.427 . S
C764 H755 0.930 . S
C764 C762 1.378 . S
C764 C765 1.367 . S
C765 C764 1.367 . S
C765 C767 1.433 . S
C766 C762 1.350 . S
C766 C763 1.463 1_565 S
C766 N770 1.427 . S
C767 H757 0.929 . S
C767 C765 1.433 . S
C767 N770 1.384 . S
C768 H759 0.929 . S
C768 C760 1.378 . S
C768 C763 1.350 . S
C769 H756 0.929 . S
C769 C761 1.433 . S
C769 N771 1.384 . S
N770 C766 1.427 . S
N770 C767 1.384 . S
N771 C763 1.427 . S
N771 C769 1.384 . S
H772 C778 0.930 . S
H773 C782 0.930 . S
H774 C787 0.929 . S
H775 C785 0.929 . S
H776 C780 0.929 . S
H777 C786 0.929 . S
C778 H772 0.930 . S
C778 C779 1.367 . S
C778 C786 1.378 . S
C779 C778 1.367 . S
C779 C787 1.433 . S
C780 H776 0.929 . S
C780 C782 1.378 . S
C780 C784 1.350 . S
C781 C784 1.463 1_455 S
C781 C786 1.350 . S
C781 N789 1.427 . S
C782 H773 0.930 . S
C782 C780 1.378 . S
C782 C783 1.367 . S
C783 C782 1.367 . S
C783 C785 1.433 . S
C784 C780 1.350 . S
C784 C781 1.463 1_655 S
C784 N788 1.427 . S
C785 H775 0.929 . S
C785 C783 1.433 . S
C785 N788 1.384 . S
C786 H777 0.929 . S
C786 C778 1.378 . S
C786 C781 1.350 . S
C787 H774 0.929 . S
C787 C779 1.433 . S
C787 N789 1.384 . S
N788 C784 1.427 . S
N788 C785 1.384 . S
N789 C781 1.427 . S
N789 C787 1.384 . S
H790 C796 0.930 . S
H791 C800 0.930 . S
H792 C805 0.929 . S
H793 C803 0.929 . S
H794 C798 0.929 . S
H795 C804 0.929 . S
C796 H790 0.930 . S
C796 C797 1.367 . S
C796 C804 1.378 . S
C797 C796 1.367 . S
C797 C805 1.433 . S
C798 H794 0.929 . S
C798 C800 1.378 . S
C798 C802 1.350 . S
C799 C802 1.463 1_565 S
C799 C804 1.350 . S
C799 N807 1.427 . S
C800 H791 0.930 . S
C800 C798 1.378 . S
C800 C801 1.367 . S
C801 C800 1.367 . S
C801 C803 1.433 . S
C802 C798 1.350 . S
C802 C799 1.463 1_545 S
C802 N806 1.427 . S
C803 H793 0.929 . S
C803 C801 1.433 . S
C803 N806 1.384 . S
C804 H795 0.929 . S
C804 C796 1.378 . S
C804 C799 1.350 . S
C805 H792 0.929 . S
C805 C797 1.433 . S
C805 N807 1.384 . S
N806 C802 1.427 . S
N806 C803 1.384 . S
N807 C799 1.427 . S
N807 C805 1.384 . S
H808 C814 0.930 . S
H809 C818 0.930 . S
H810 C823 0.929 . S
H811 C821 0.929 . S
H812 C816 0.929 . S
H813 C822 0.929 . S
C814 H808 0.930 . S
C814 C815 1.367 . S
C814 C822 1.378 . S
C815 C814 1.367 . S
C815 C823 1.433 . S
C816 H812 0.929 . S
C816 C818 1.378 . S
C816 C820 1.350 . S
C817 C820 1.463 1_455 S
C817 C822 1.350 . S
C817 N825 1.427 . S
C818 H809 0.930 . S
C818 C816 1.378 . S
C818 C819 1.367 . S
C819 C818 1.367 . S
C819 C821 1.433 . S
C820 C816 1.350 . S
C820 C817 1.463 1_655 S
C820 N824 1.427 . S
C821 H811 0.929 . S
C821 C819 1.433 . S
C821 N824 1.384 . S
C822 H813 0.929 . S
C822 C814 1.378 . S
C822 C817 1.350 . S
C823 H810 0.929 . S
C823 C815 1.433 . S
C823 N825 1.384 . S
N824 C820 1.427 . S
N824 C821 1.384 . S
N825 C817 1.427 . S
N825 C823 1.384 . S
H826 C832 0.930 . S
H827 C836 0.930 . S
H828 C841 0.929 . S
H829 C839 0.929 . S
H830 C834 0.929 . S
H831 C840 0.929 . S
C832 H826 0.930 . S
C832 C833 1.367 . S
C832 C840 1.378 . S
C833 C832 1.367 . S
C833 C841 1.433 . S
C834 H830 0.929 . S
C834 C836 1.378 . S
C834 C838 1.350 . S
C835 C838 1.463 1_565 S
C835 C840 1.350 . S
C835 N843 1.427 . S
C836 H827 0.930 . S
C836 C834 1.378 . S
C836 C837 1.367 . S
C837 C836 1.367 . S
C837 C839 1.433 . S
C838 C834 1.350 . S
C838 C835 1.463 1_545 S
C838 N842 1.427 . S
C839 H829 0.929 . S
C839 C837 1.433 . S
C839 N842 1.384 . S
C840 H831 0.929 . S
C840 C832 1.378 . S
C840 C835 1.350 . S
C841 H828 0.929 . S
C841 C833 1.433 . S
C841 N843 1.384 . S
N842 C838 1.427 . S
N842 C839 1.384 . S
N843 C835 1.427 . S
N843 C841 1.384 . S
H844 C850 0.930 . S
H845 C854 0.930 . S
H846 C859 0.929 . S
H847 C857 0.929 . S
H848 C852 0.929 . S
H849 C858 0.929 . S
C850 H844 0.930 . S
C850 C851 1.367 . S
C850 C858 1.378 . S
C851 C850 1.367 . S
C851 C859 1.433 . S
C852 H848 0.929 . S
C852 C854 1.378 . S
C852 C856 1.350 . S
C853 C856 1.463 1_455 S
C853 C858 1.350 . S
C853 N861 1.427 . S
C854 H845 0.930 . S
C854 C852 1.378 . S
C854 C855 1.367 . S
C855 C854 1.367 . S
C855 C857 1.433 . S
C856 C852 1.350 . S
C856 C853 1.463 1_655 S
C856 N860 1.427 . S
C857 H847 0.929 . S
C857 C855 1.433 . S
C857 N860 1.384 . S
C858 H849 0.929 . S
C858 C850 1.378 . S
C858 C853 1.350 . S
C859 H846 0.929 . S
C859 C851 1.433 . S
C859 N861 1.384 . S
N860 C856 1.427 . S
N860 C857 1.384 . S
N861 C853 1.427 . S
N861 C859 1.384 . S
H862 C868 0.930 . S
H863 C872 0.930 . S
H864 C877 0.929 . S
H865 C875 0.929 . S
H866 C870 0.929 . S
H867 C876 0.929 . S
C868 H862 0.930 . S
C868 C869 1.367 . S
C868 C876 1.378 . S
C869 C868 1.367 . S
C869 C877 1.433 . S
C870 H866 0.929 . S
C870 C872 1.378 . S
C870 C874 1.350 . S
C871 C874 1.463 1_545 S
C871 C876 1.350 . S
C871 N879 1.427 . S
C872 H863 0.930 . S
C872 C870 1.378 . S
C872 C873 1.367 . S
C873 C872 1.367 . S
C873 C875 1.433 . S
C874 C870 1.350 . S
C874 C871 1.463 1_565 S
C874 N878 1.427 . S
C875 H865 0.929 . S
C875 C873 1.433 . S
C875 N878 1.384 . S
C876 H867 0.929 . S
C876 C868 1.378 . S
C876 C871 1.350 . S
C877 H864 0.929 . S
C877 C869 1.433 . S
C877 N879 1.384 . S
N878 C874 1.427 . S
N878 C875 1.384 . S
N879 C871 1.427 . S
N879 C877 1.384 . S
H880 C886 0.930 . S
H881 C890 0.930 . S
H882 C895 0.929 . S
H883 C893 0.929 . S
H884 C888 0.929 . S
H885 C894 0.929 . S
C886 H880 0.930 . S
C886 C887 1.367 . S
C886 C894 1.378 . S
C887 C886 1.367 . S
C887 C895 1.433 . S
C888 H884 0.929 . S
C888 C890 1.378 . S
C888 C892 1.350 . S
C889 C892 1.463 . S
C889 C894 1.350 . S
C889 N897 1.427 . S
C890 H881 0.930 . S
C890 C888 1.378 . S
C890 C891 1.367 . S
C891 C890 1.367 . S
C891 C893 1.433 . S
C892 C888 1.350 . S
C892 C889 1.463 . S
C892 N896 1.427 . S
C893 H883 0.929 . S
C893 C891 1.433 . S
C893 N896 1.384 . S
C894 H885 0.929 . S
C894 C886 1.378 . S
C894 C889 1.350 . S
C895 H882 0.929 . S
C895 C887 1.433 . S
C895 N897 1.384 . S
N896 C892 1.427 . S
N896 C893 1.384 . S
N897 C889 1.427 . S
N897 C895 1.384 . S
H898 C904 0.930 . S
H899 C908 0.930 . S
H900 C913 0.929 . S
H901 C911 0.929 . S
H902 C906 0.929 . S
H903 C912 0.929 . S
C904 H898 0.930 . S
C904 C905 1.367 . S
C904 C912 1.378 . S
C905 C904 1.367 . S
C905 C913 1.433 . S
C906 H902 0.929 . S
C906 C908 1.378 . S
C906 C910 1.350 . S
C907 C910 1.463 . S
C907 C912 1.350 . S
C907 N915 1.427 . S
C908 H899 0.930 . S
C908 C906 1.378 . S
C908 C909 1.367 . S
C909 C908 1.367 . S
C909 C911 1.433 . S
C910 C906 1.350 . S
C910 C907 1.463 . S
C910 N914 1.427 . S
C911 H901 0.929 . S
C911 C909 1.433 . S
C911 N914 1.384 . S
C912 H903 0.929 . S
C912 C904 1.378 . S
C912 C907 1.350 . S
C913 H900 0.929 . S
C913 C905 1.433 . S
C913 N915 1.384 . S
N914 C910 1.427 . S
N914 C911 1.384 . S
N915 C907 1.427 . S
N915 C913 1.384 . S
H916 C922 0.930 . S
H917 C926 0.930 . S
H918 C931 0.929 . S
H919 C929 0.929 . S
H920 C924 0.929 . S
H921 C930 0.929 . S
C922 H916 0.930 . S
C922 C923 1.367 . S
C922 C930 1.378 . S
C923 C922 1.367 . S
C923 C931 1.433 . S
C924 H920 0.929 . S
C924 C926 1.378 . S
C924 C928 1.350 . S
C925 C928 1.463 . S
C925 C930 1.350 . S
C925 N933 1.427 . S
C926 H917 0.930 . S
C926 C924 1.378 . S
C926 C927 1.367 . S
C927 C926 1.367 . S
C927 C929 1.433 . S
C928 C924 1.350 . S
C928 C925 1.463 . S
C928 N932 1.427 . S
C929 H919 0.929 . S
C929 C927 1.433 . S
C929 N932 1.384 . S
C930 H921 0.929 . S
C930 C922 1.378 . S
C930 C925 1.350 . S
C931 H918 0.929 . S
C931 C923 1.433 . S
C931 N933 1.384 . S
N932 C928 1.427 . S
N932 C929 1.384 . S
N933 C925 1.427 . S
N933 C931 1.384 . S
H934 C940 0.930 . S
H935 C944 0.930 . S
H936 C949 0.929 . S
H937 C947 0.929 . S
H938 C942 0.929 . S
H939 C948 0.929 . S
C940 H934 0.930 . S
C940 C941 1.367 . S
C940 C948 1.378 . S
C941 C940 1.367 . S
C941 C949 1.433 . S
C942 H938 0.929 . S
C942 C944 1.378 . S
C942 C946 1.350 . S
C943 C946 1.463 . S
C943 C948 1.350 . S
C943 N951 1.427 . S
C944 H935 0.930 . S
C944 C942 1.378 . S
C944 C945 1.367 . S
C945 C944 1.367 . S
C945 C947 1.433 . S
C946 C942 1.350 . S
C946 C943 1.463 . S
C946 N950 1.427 . S
C947 H937 0.929 . S
C947 C945 1.433 . S
C947 N950 1.384 . S
C948 H939 0.929 . S
C948 C940 1.378 . S
C948 C943 1.350 . S
C949 H936 0.929 . S
C949 C941 1.433 . S
C949 N951 1.384 . S
N950 C946 1.427 . S
N950 C947 1.384 . S
N951 C943 1.427 . S
N951 C949 1.384 . S
H952 C958 0.930 . S
H953 C962 0.930 . S
H954 C967 0.929 . S
H955 C965 0.929 . S
H956 C960 0.929 . S
H957 C966 0.929 . S
C958 H952 0.930 . S
C958 C959 1.367 . S
C958 C966 1.378 . S
C959 C958 1.367 . S
C959 C967 1.433 . S
C960 H956 0.929 . S
C960 C962 1.378 . S
C960 C964 1.350 . S
C961 C964 1.463 . S
C961 C966 1.350 . S
C961 N969 1.427 . S
C962 H953 0.930 . S
C962 C960 1.378 . S
C962 C963 1.367 . S
C963 C962 1.367 . S
C963 C965 1.433 . S
C964 C960 1.350 . S
C964 C961 1.463 . S
C964 N968 1.427 . S
C965 H955 0.929 . S
C965 C963 1.433 . S
C965 N968 1.384 . S
C966 H957 0.929 . S
C966 C958 1.378 . S
C966 C961 1.350 . S
C967 H954 0.929 . S
C967 C959 1.433 . S
C967 N969 1.384 . S
N968 C964 1.427 . S
N968 C965 1.384 . S
N969 C961 1.427 . S
N969 C967 1.384 . S
H970 C976 0.930 . S
H971 C980 0.930 . S
H972 C985 0.929 . S
H973 C983 0.929 . S
H974 C978 0.929 . S
H975 C984 0.929 . S
C976 H970 0.930 . S
C976 C977 1.367 . S
C976 C984 1.378 . S
C977 C976 1.367 . S
C977 C985 1.433 . S
C978 H974 0.929 . S
C978 C980 1.378 . S
C978 C982 1.350 . S
C979 C982 1.463 . S
C979 C984 1.350 . S
C979 N987 1.427 . S
C980 H971 0.930 . S
C980 C978 1.378 . S
C980 C981 1.367 . S
C981 C980 1.367 . S
C981 C983 1.433 . S
C982 C978 1.350 . S
C982 C979 1.463 . S
C982 N986 1.427 . S
C983 H973 0.929 . S
C983 C981 1.433 . S
C983 N986 1.384 . S
C984 H975 0.929 . S
C984 C976 1.378 . S
C984 C979 1.350 . S
C985 H972 0.929 . S
C985 C977 1.433 . S
C985 N987 1.384 . S
N986 C982 1.427 . S
N986 C983 1.384 . S
N987 C979 1.427 . S
N987 C985 1.384 . S
H988 C994 0.930 . S
H989 C998 0.930 . S
H990 C1003 0.929 . S
H991 C1001 0.929 . S
H992 C996 0.929 . S
H993 C1002 0.929 . S
C994 H988 0.930 . S
C994 C995 1.367 . S
C994 C1002 1.378 . S
C995 C994 1.367 . S
C995 C1003 1.433 . S
C996 H992 0.929 . S
C996 C998 1.378 . S
C996 C1000 1.350 . S
C997 C1000 1.463 . S
C997 C1002 1.350 . S
C997 N1005 1.427 . S
C998 H989 0.930 . S
C998 C996 1.378 . S
C998 C999 1.367 . S
C999 C998 1.367 . S
C999 C1001 1.433 . S
C1000 C996 1.350 . S
C1000 C997 1.463 . S
C1000 N1004 1.427 . S
C1001 H991 0.929 . S
C1001 C999 1.433 . S
C1001 N1004 1.384 . S
C1002 H993 0.929 . S
C1002 C994 1.378 . S
C1002 C997 1.350 . S
C1003 H990 0.929 . S
C1003 C995 1.433 . S
C1003 N1005 1.384 . S
N1004 C1000 1.427 . S
N1004 C1001 1.384 . S
N1005 C997 1.427 . S
N1005 C1003 1.384 . S
H1006 C1012 0.930 . S
H1007 C1016 0.930 . S
H1008 C1021 0.929 . S
H1009 C1019 0.929 . S
H1010 C1014 0.929 . S
H1011 C1020 0.929 . S
C1012 H1006 0.930 . S
C1012 C1013 1.367 . S
C1012 C1020 1.378 . S
C1013 C1012 1.367 . S
C1013 C1021 1.433 . S
C1014 H1010 0.929 . S
C1014 C1016 1.378 . S
C1014 C1018 1.350 . S
C1015 C1018 1.463 . S
C1015 C1020 1.350 . S
C1015 N1023 1.427 . S
C1016 H1007 0.930 . S
C1016 C1014 1.378 . S
C1016 C1017 1.367 . S
C1017 C1016 1.367 . S
C1017 C1019 1.433 . S
C1018 C1014 1.350 . S
C1018 C1015 1.463 . S
C1018 N1022 1.427 . S
C1019 H1009 0.929 . S
C1019 C1017 1.433 . S
C1019 N1022 1.384 . S
C1020 H1011 0.929 . S
C1020 C1012 1.378 . S
C1020 C1015 1.350 . S
C1021 H1008 0.929 . S
C1021 C1013 1.433 . S
C1021 N1023 1.384 . S
N1022 C1018 1.427 . S
N1022 C1019 1.384 . S
N1023 C1015 1.427 . S
N1023 C1021 1.384 . S
H1024 C1030 0.930 . S
H1025 C1034 0.930 . S
H1026 C1039 0.929 . S
H1027 C1037 0.929 . S
H1028 C1032 0.929 . S
H1029 C1038 0.929 . S
C1030 H1024 0.930 . S
C1030 C1031 1.367 . S
C1030 C1038 1.378 . S
C1031 C1030 1.367 . S
C1031 C1039 1.433 . S
C1032 H1028 0.929 . S
C1032 C1034 1.378 . S
C1032 C1036 1.350 . S
C1033 C1036 1.463 . S
C1033 C1038 1.350 . S
C1033 N1041 1.427 . S
C1034 H1025 0.930 . S
C1034 C1032 1.378 . S
C1034 C1035 1.367 . S
C1035 C1034 1.367 . S
C1035 C1037 1.433 . S
C1036 C1032 1.350 . S
C1036 C1033 1.463 . S
C1036 N1040 1.427 . S
C1037 H1027 0.929 . S
C1037 C1035 1.433 . S
C1037 N1040 1.384 . S
C1038 H1029 0.929 . S
C1038 C1030 1.378 . S
C1038 C1033 1.350 . S
C1039 H1026 0.929 . S
C1039 C1031 1.433 . S
C1039 N1041 1.384 . S
N1040 C1036 1.427 . S
N1040 C1037 1.384 . S
N1041 C1033 1.427 . S
N1041 C1039 1.384 . S
H1042 C1048 0.930 . S
H1043 C1052 0.930 . S
H1044 C1057 0.929 . S
H1045 C1055 0.929 . S
H1046 C1050 0.929 . S
H1047 C1056 0.929 . S
C1048 H1042 0.930 . S
C1048 C1049 1.367 . S
C1048 C1056 1.378 . S
C1049 C1048 1.367 . S
C1049 C1057 1.433 . S
C1050 H1046 0.929 . S
C1050 C1052 1.378 . S
C1050 C1054 1.350 . S
C1051 C1054 1.463 . S
C1051 C1056 1.350 . S
C1051 N1059 1.427 . S
C1052 H1043 0.930 . S
C1052 C1050 1.378 . S
C1052 C1053 1.367 . S
C1053 C1052 1.367 . S
C1053 C1055 1.433 . S
C1054 C1050 1.350 . S
C1054 C1051 1.463 . S
C1054 N1058 1.427 . S
C1055 H1045 0.929 . S
C1055 C1053 1.433 . S
C1055 N1058 1.384 . S
C1056 H1047 0.929 . S
C1056 C1048 1.378 . S
C1056 C1051 1.350 . S
C1057 H1044 0.929 . S
C1057 C1049 1.433 . S
C1057 N1059 1.384 . S
N1058 C1054 1.427 . S
N1058 C1055 1.384 . S
N1059 C1051 1.427 . S
N1059 C1057 1.384 . S
H1060 C1066 0.930 . S
H1061 C1070 0.930 . S
H1062 C1075 0.929 . S
H1063 C1073 0.929 . S
H1064 C1068 0.929 . S
H1065 C1074 0.929 . S
C1066 H1060 0.930 . S
C1066 C1067 1.367 . S
C1066 C1074 1.378 . S
C1067 C1066 1.367 . S
C1067 C1075 1.433 . S
C1068 H1064 0.929 . S
C1068 C1070 1.378 . S
C1068 C1072 1.350 . S
C1069 C1072 1.463 . S
C1069 C1074 1.350 . S
C1069 N1077 1.427 . S
C1070 H1061 0.930 . S
C1070 C1068 1.378 . S
C1070 C1071 1.367 . S
C1071 C1070 1.367 . S
C1071 C1073 1.433 . S
C1072 C1068 1.350 . S
C1072 C1069 1.463 . S
C1072 N1076 1.427 . S
C1073 H1063 0.929 . S
C1073 C1071 1.433 . S
C1073 N1076 1.384 . S
C1074 H1065 0.929 . S
C1074 C1066 1.378 . S
C1074 C1069 1.350 . S
C1075 H1062 0.929 . S
C1075 C1067 1.433 . S
C1075 N1077 1.384 . S
N1076 C1072 1.427 . S
N1076 C1073 1.384 . S
N1077 C1069 1.427 . S
N1077 C1075 1.384 . S
H1078 C1084 0.930 . S
H1079 C1088 0.930 . S
H1080 C1093 0.929 . S
H1081 C1091 0.929 . S
H1082 C1086 0.929 . S
H1083 C1092 0.929 . S
C1084 H1078 0.930 . S
C1084 C1085 1.367 . S
C1084 C1092 1.378 . S
C1085 C1084 1.367 . S
C1085 C1093 1.433 . S
C1086 H1082 0.929 . S
C1086 C1088 1.378 . S
C1086 C1090 1.350 . S
C1087 C1090 1.463 . S
C1087 C1092 1.350 . S
C1087 N1095 1.427 . S
C1088 H1079 0.930 . S
C1088 C1086 1.378 . S
C1088 C1089 1.367 . S
C1089 C1088 1.367 . S
C1089 C1091 1.433 . S
C1090 C1086 1.350 . S
C1090 C1087 1.463 . S
C1090 N1094 1.427 . S
C1091 H1081 0.929 . S
C1091 C1089 1.433 . S
C1091 N1094 1.384 . S
C1092 H1083 0.929 . S
C1092 C1084 1.378 . S
C1092 C1087 1.350 . S
C1093 H1080 0.929 . S
C1093 C1085 1.433 . S
C1093 N1095 1.384 . S
N1094 C1090 1.427 . S
N1094 C1091 1.384 . S
N1095 C1087 1.427 . S
N1095 C1093 1.384 . S
H1096 C1102 0.930 . S
H1097 C1106 0.930 . S
H1098 C1111 0.929 . S
H1099 C1109 0.929 . S
H1100 C1104 0.929 . S
H1101 C1110 0.929 . S
C1102 H1096 0.930 . S
C1102 C1103 1.367 . S
C1102 C1110 1.378 . S
C1103 C1102 1.367 . S
C1103 C1111 1.433 . S
C1104 H1100 0.929 . S
C1104 C1106 1.378 . S
C1104 C1108 1.350 . S
C1105 C1108 1.463 . S
C1105 C1110 1.350 . S
C1105 N1113 1.427 . S
C1106 H1097 0.930 . S
C1106 C1104 1.378 . S
C1106 C1107 1.367 . S
C1107 C1106 1.367 . S
C1107 C1109 1.433 . S
C1108 C1104 1.350 . S
C1108 C1105 1.463 . S
C1108 N1112 1.427 . S
C1109 H1099 0.929 . S
C1109 C1107 1.433 . S
C1109 N1112 1.384 . S
C1110 H1101 0.929 . S
C1110 C1102 1.378 . S
C1110 C1105 1.350 . S
C1111 H1098 0.929 . S
C1111 C1103 1.433 . S
C1111 N1113 1.384 . S
N1112 C1108 1.427 . S
N1112 C1109 1.384 . S
N1113 C1105 1.427 . S
N1113 C1111 1.384 . S
H1114 C1120 0.930 . S
H1115 C1124 0.930 . S
H1116 C1129 0.929 . S
H1117 C1127 0.929 . S
H1118 C1122 0.929 . S
H1119 C1128 0.929 . S
C1120 H1114 0.930 . S
C1120 C1121 1.367 . S
C1120 C1128 1.378 . S
C1121 C1120 1.367 . S
C1121 C1129 1.433 . S
C1122 H1118 0.929 . S
C1122 C1124 1.378 . S
C1122 C1126 1.350 . S
C1123 C1126 1.463 . S
C1123 C1128 1.350 . S
C1123 N1131 1.427 . S
C1124 H1115 0.930 . S
C1124 C1122 1.378 . S
C1124 C1125 1.367 . S
C1125 C1124 1.367 . S
C1125 C1127 1.433 . S
C1126 C1122 1.350 . S
C1126 C1123 1.463 . S
C1126 N1130 1.427 . S
C1127 H1117 0.929 . S
C1127 C1125 1.433 . S
C1127 N1130 1.384 . S
C1128 H1119 0.929 . S
C1128 C1120 1.378 . S
C1128 C1123 1.350 . S
C1129 H1116 0.929 . S
C1129 C1121 1.433 . S
C1129 N1131 1.384 . S
N1130 C1126 1.427 . S
N1130 C1127 1.384 . S
N1131 C1123 1.427 . S
N1131 C1129 1.384 . S
H1132 C1138 0.930 . S
H1133 C1142 0.930 . S
H1134 C1147 0.929 . S
H1135 C1145 0.929 . S
H1136 C1140 0.929 . S
H1137 C1146 0.929 . S
C1138 H1132 0.930 . S
C1138 C1139 1.367 . S
C1138 C1146 1.378 . S
C1139 C1138 1.367 . S
C1139 C1147 1.433 . S
C1140 H1136 0.929 . S
C1140 C1142 1.378 . S
C1140 C1144 1.350 . S
C1141 C1144 1.463 . S
C1141 C1146 1.350 . S
C1141 N1149 1.427 . S
C1142 H1133 0.930 . S
C1142 C1140 1.378 . S
C1142 C1143 1.367 . S
C1143 C1142 1.367 . S
C1143 C1145 1.433 . S
C1144 C1140 1.350 . S
C1144 C1141 1.463 . S
C1144 N1148 1.427 . S
C1145 H1135 0.929 . S
C1145 C1143 1.433 . S
C1145 N1148 1.384 . S
C1146 H1137 0.929 . S
C1146 C1138 1.378 . S
C1146 C1141 1.350 . S
C1147 H1134 0.929 . S
C1147 C1139 1.433 . S
C1147 N1149 1.384 . S
N1148 C1144 1.427 . S
N1148 C1145 1.384 . S
N1149 C1141 1.427 . S
N1149 C1147 1.384 . S
H1150 C1156 0.930 . S
H1151 C1160 0.930 . S
H1152 C1165 0.929 . S
H1153 C1163 0.929 . S
H1154 C1158 0.929 . S
H1155 C1164 0.929 . S
C1156 H1150 0.930 . S
C1156 C1157 1.367 . S
C1156 C1164 1.378 . S
C1157 C1156 1.367 . S
C1157 C1165 1.433 . S
C1158 H1154 0.929 . S
C1158 C1160 1.378 . S
C1158 C1162 1.350 . S
C1159 C1162 1.463 . S
C1159 C1164 1.350 . S
C1159 N1167 1.427 . S
C1160 H1151 0.930 . S
C1160 C1158 1.378 . S
C1160 C1161 1.367 . S
C1161 C1160 1.367 . S
C1161 C1163 1.433 . S
C1162 C1158 1.350 . S
C1162 C1159 1.463 . S
C1162 N1166 1.427 . S
C1163 H1153 0.929 . S
C1163 C1161 1.433 . S
C1163 N1166 1.384 . S
C1164 H1155 0.929 . S
C1164 C1156 1.378 . S
C1164 C1159 1.350 . S
C1165 H1152 0.929 . S
C1165 C1157 1.433 . S
C1165 N1167 1.384 . S
N1166 C1162 1.427 . S
N1166 C1163 1.384 . S
N1167 C1159 1.427 . S
N1167 C1165 1.384 . S
H1168 C1174 0.930 . S
H1169 C1178 0.930 . S
H1170 C1183 0.929 . S
H1171 C1181 0.929 . S
H1172 C1176 0.929 . S
H1173 C1182 0.929 . S
C1174 H1168 0.930 . S
C1174 C1175 1.367 . S
C1174 C1182 1.378 . S
C1175 C1174 1.367 . S
C1175 C1183 1.433 . S
C1176 H1172 0.929 . S
C1176 C1178 1.378 . S
C1176 C1180 1.350 . S
C1177 C1180 1.463 1_554 S
C1177 C1182 1.350 . S
C1177 N1185 1.427 . S
C1178 H1169 0.930 . S
C1178 C1176 1.378 . S
C1178 C1179 1.367 . S
C1179 C1178 1.367 . S
C1179 C1181 1.433 . S
C1180 C1176 1.350 . S
C1180 C1177 1.463 1_556 S
C1180 N1184 1.427 . S
C1181 H1171 0.929 . S
C1181 C1179 1.433 . S
C1181 N1184 1.384 . S
C1182 H1173 0.929 . S
C1182 C1174 1.378 . S
C1182 C1177 1.350 . S
C1183 H1170 0.929 . S
C1183 C1175 1.433 . S
C1183 N1185 1.384 . S
N1184 C1180 1.427 . S
N1184 C1181 1.384 . S
N1185 C1177 1.427 . S
N1185 C1183 1.384 . S
H1186 C1192 0.930 . S
H1187 C1196 0.930 . S
H1188 C1201 0.929 . S
H1189 C1199 0.929 . S
H1190 C1194 0.929 . S
H1191 C1200 0.929 . S
C1192 H1186 0.930 . S
C1192 C1193 1.367 . S
C1192 C1200 1.378 . S
C1193 C1192 1.367 . S
C1193 C1201 1.433 . S
C1194 H1190 0.929 . S
C1194 C1196 1.378 . S
C1194 C1198 1.350 . S
C1195 C1198 1.463 1_556 S
C1195 C1200 1.350 . S
C1195 N1203 1.427 . S
C1196 H1187 0.930 . S
C1196 C1194 1.378 . S
C1196 C1197 1.367 . S
C1197 C1196 1.367 . S
C1197 C1199 1.433 . S
C1198 C1194 1.350 . S
C1198 C1195 1.463 1_554 S
C1198 N1202 1.427 . S
C1199 H1189 0.929 . S
C1199 C1197 1.433 . S
C1199 N1202 1.384 . S
C1200 H1191 0.929 . S
C1200 C1192 1.378 . S
C1200 C1195 1.350 . S
C1201 H1188 0.929 . S
C1201 C1193 1.433 . S
C1201 N1203 1.384 . S
N1202 C1198 1.427 . S
N1202 C1199 1.384 . S
N1203 C1195 1.427 . S
N1203 C1201 1.384 . S
H1204 C1210 0.930 . S
H1205 C1214 0.930 . S
H1206 C1219 0.929 . S
H1207 C1217 0.929 . S
H1208 C1212 0.929 . S
H1209 C1218 0.929 . S
C1210 H1204 0.930 . S
C1210 C1211 1.367 . S
C1210 C1218 1.378 . S
C1211 C1210 1.367 . S
C1211 C1219 1.433 . S
C1212 H1208 0.929 . S
C1212 C1214 1.378 . S
C1212 C1216 1.350 . S
C1213 C1216 1.463 1_554 S
C1213 C1218 1.350 . S
C1213 N1221 1.427 . S
C1214 H1205 0.930 . S
C1214 C1212 1.378 . S
C1214 C1215 1.367 . S
C1215 C1214 1.367 . S
C1215 C1217 1.433 . S
C1216 C1212 1.350 . S
C1216 C1213 1.463 1_556 S
C1216 N1220 1.427 . S
C1217 H1207 0.929 . S
C1217 C1215 1.433 . S
C1217 N1220 1.384 . S
C1218 H1209 0.929 . S
C1218 C1210 1.378 . S
C1218 C1213 1.350 . S
C1219 H1206 0.929 . S
C1219 C1211 1.433 . S
C1219 N1221 1.384 . S
N1220 C1216 1.427 . S
N1220 C1217 1.384 . S
N1221 C1213 1.427 . S
N1221 C1219 1.384 . S
H1222 C1228 0.930 . S
H1223 C1232 0.930 . S
H1224 C1237 0.929 . S
H1225 C1235 0.929 . S
H1226 C1230 0.929 . S
H1227 C1236 0.929 . S
C1228 H1222 0.930 . S
C1228 C1229 1.367 . S
C1228 C1236 1.378 . S
C1229 C1228 1.367 . S
C1229 C1237 1.433 . S
C1230 H1226 0.929 . S
C1230 C1232 1.378 . S
C1230 C1234 1.350 . S
C1231 C1234 1.463 1_554 S
C1231 C1236 1.350 . S
C1231 N1239 1.427 . S
C1232 H1223 0.930 . S
C1232 C1230 1.378 . S
C1232 C1233 1.367 . S
C1233 C1232 1.367 . S
C1233 C1235 1.433 . S
C1234 C1230 1.350 . S
C1234 C1231 1.463 1_556 S
C1234 N1238 1.427 . S
C1235 H1225 0.929 . S
C1235 C1233 1.433 . S
C1235 N1238 1.384 . S
C1236 H1227 0.929 . S
C1236 C1228 1.378 . S
C1236 C1231 1.350 . S
C1237 H1224 0.929 . S
C1237 C1229 1.433 . S
C1237 N1239 1.384 . S
N1238 C1234 1.427 . S
N1238 C1235 1.384 . S
N1239 C1231 1.427 . S
N1239 C1237 1.384 . S
H1240 C1246 0.930 . S
H1241 C1250 0.930 . S
H1242 C1255 0.929 . S
H1243 C1253 0.929 . S
H1244 C1248 0.929 . S
H1245 C1254 0.929 . S
C1246 H1240 0.930 . S
C1246 C1247 1.367 . S
C1246 C1254 1.378 . S
C1247 C1246 1.367 . S
C1247 C1255 1.433 . S
C1248 H1244 0.929 . S
C1248 C1250 1.378 . S
C1248 C1252 1.350 . S
C1249 C1252 1.463 1_554 S
C1249 C1254 1.350 . S
C1249 N1257 1.427 . S
C1250 H1241 0.930 . S
C1250 C1248 1.378 . S
C1250 C1251 1.367 . S
C1251 C1250 1.367 . S
C1251 C1253 1.433 . S
C1252 C1248 1.350 . S
C1252 C1249 1.463 1_556 S
C1252 N1256 1.427 . S
C1253 H1243 0.929 . S
C1253 C1251 1.433 . S
C1253 N1256 1.384 . S
C1254 H1245 0.929 . S
C1254 C1246 1.378 . S
C1254 C1249 1.350 . S
C1255 H1242 0.929 . S
C1255 C1247 1.433 . S
C1255 N1257 1.384 . S
N1256 C1252 1.427 . S
N1256 C1253 1.384 . S
N1257 C1249 1.427 . S
N1257 C1255 1.384 . S
H1258 C1264 0.930 . S
H1259 C1268 0.930 . S
H1260 C1273 0.929 . S
H1261 C1271 0.929 . S
H1262 C1266 0.929 . S
H1263 C1272 0.929 . S
C1264 H1258 0.930 . S
C1264 C1265 1.367 . S
C1264 C1272 1.378 . S
C1265 C1264 1.367 . S
C1265 C1273 1.433 . S
C1266 H1262 0.929 . S
C1266 C1268 1.378 . S
C1266 C1270 1.350 . S
C1267 C1270 1.463 1_554 S
C1267 C1272 1.350 . S
C1267 N1275 1.427 . S
C1268 H1259 0.930 . S
C1268 C1266 1.378 . S
C1268 C1269 1.367 . S
C1269 C1268 1.367 . S
C1269 C1271 1.433 . S
C1270 C1266 1.350 . S
C1270 C1267 1.463 1_556 S
C1270 N1274 1.427 . S
C1271 H1261 0.929 . S
C1271 C1269 1.433 . S
C1271 N1274 1.384 . S
C1272 H1263 0.929 . S
C1272 C1264 1.378 . S
C1272 C1267 1.350 . S
C1273 H1260 0.929 . S
C1273 C1265 1.433 . S
C1273 N1275 1.384 . S
N1274 C1270 1.427 . S
N1274 C1271 1.384 . S
N1275 C1267 1.427 . S
N1275 C1273 1.384 . S
H1276 C1282 0.930 . S
H1277 C1286 0.930 . S
H1278 C1291 0.929 . S
H1279 C1289 0.929 . S
H1280 C1284 0.929 . S
H1281 C1290 0.929 . S
C1282 H1276 0.930 . S
C1282 C1283 1.367 . S
C1282 C1290 1.378 . S
C1283 C1282 1.367 . S
C1283 C1291 1.433 . S
C1284 H1280 0.929 . S
C1284 C1286 1.378 . S
C1284 C1288 1.350 . S
C1285 C1288 1.463 1_556 S
C1285 C1290 1.350 . S
C1285 N1293 1.427 . S
C1286 H1277 0.930 . S
C1286 C1284 1.378 . S
C1286 C1287 1.367 . S
C1287 C1286 1.367 . S
C1287 C1289 1.433 . S
C1288 C1284 1.350 . S
C1288 C1285 1.463 1_554 S
C1288 N1292 1.427 . S
C1289 H1279 0.929 . S
C1289 C1287 1.433 . S
C1289 N1292 1.384 . S
C1290 H1281 0.929 . S
C1290 C1282 1.378 . S
C1290 C1285 1.350 . S
C1291 H1278 0.929 . S
C1291 C1283 1.433 . S
C1291 N1293 1.384 . S
N1292 C1288 1.427 . S
N1292 C1289 1.384 . S
N1293 C1285 1.427 . S
N1293 C1291 1.384 . S
H1294 C1300 0.930 . S
H1295 C1304 0.930 . S
H1296 C1309 0.929 . S
H1297 C1307 0.929 . S
H1298 C1302 0.929 . S
H1299 C1308 0.929 . S
C1300 H1294 0.930 . S
C1300 C1301 1.367 . S
C1300 C1308 1.378 . S
C1301 C1300 1.367 . S
C1301 C1309 1.433 . S
C1302 H1298 0.929 . S
C1302 C1304 1.378 . S
C1302 C1306 1.350 . S
C1303 C1306 1.463 1_556 S
C1303 C1308 1.350 . S
C1303 N1311 1.427 . S
C1304 H1295 0.930 . S
C1304 C1302 1.378 . S
C1304 C1305 1.367 . S
C1305 C1304 1.367 . S
C1305 C1307 1.433 . S
C1306 C1302 1.350 . S
C1306 C1303 1.463 1_554 S
C1306 N1310 1.427 . S
C1307 H1297 0.929 . S
C1307 C1305 1.433 . S
C1307 N1310 1.384 . S
C1308 H1299 0.929 . S
C1308 C1300 1.378 . S
C1308 C1303 1.350 . S
C1309 H1296 0.929 . S
C1309 C1301 1.433 . S
C1309 N1311 1.384 . S
N1310 C1306 1.427 . S
N1310 C1307 1.384 . S
N1311 C1303 1.427 . S
N1311 C1309 1.384 . S
H1312 C1318 0.930 . S
H1313 C1322 0.930 . S
H1314 C1327 0.929 . S
H1315 C1325 0.929 . S
H1316 C1320 0.929 . S
H1317 C1326 0.929 . S
C1318 H1312 0.930 . S
C1318 C1319 1.367 . S
C1318 C1326 1.378 . S
C1319 C1318 1.367 . S
C1319 C1327 1.433 . S
C1320 H1316 0.929 . S
C1320 C1322 1.378 . S
C1320 C1324 1.350 . S
C1321 C1324 1.463 . S
C1321 C1326 1.350 . S
C1321 N1329 1.427 . S
C1322 H1313 0.930 . S
C1322 C1320 1.378 . S
C1322 C1323 1.367 . S
C1323 C1322 1.367 . S
C1323 C1325 1.433 . S
C1324 C1320 1.350 . S
C1324 C1321 1.463 . S
C1324 N1328 1.427 . S
C1325 H1315 0.929 . S
C1325 C1323 1.433 . S
C1325 N1328 1.384 . S
C1326 H1317 0.929 . S
C1326 C1318 1.378 . S
C1326 C1321 1.350 . S
C1327 H1314 0.929 . S
C1327 C1319 1.433 . S
C1327 N1329 1.384 . S
N1328 C1324 1.427 . S
N1328 C1325 1.384 . S
N1329 C1321 1.427 . S
N1329 C1327 1.384 . S
H1330 C1336 0.930 . S
H1331 C1340 0.930 . S
H1332 C1345 0.929 . S
H1333 C1343 0.929 . S
H1334 C1338 0.929 . S
H1335 C1344 0.929 . S
C1336 H1330 0.930 . S
C1336 C1337 1.367 . S
C1336 C1344 1.378 . S
C1337 C1336 1.367 . S
C1337 C1345 1.433 . S
C1338 H1334 0.929 . S
C1338 C1340 1.378 . S
C1338 C1342 1.350 . S
C1339 C1342 1.463 . S
C1339 C1344 1.350 . S
C1339 N1347 1.427 . S
C1340 H1331 0.930 . S
C1340 C1338 1.378 . S
C1340 C1341 1.367 . S
C1341 C1340 1.367 . S
C1341 C1343 1.433 . S
C1342 C1338 1.350 . S
C1342 C1339 1.463 . S
C1342 N1346 1.427 . S
C1343 H1333 0.929 . S
C1343 C1341 1.433 . S
C1343 N1346 1.384 . S
C1344 H1335 0.929 . S
C1344 C1336 1.378 . S
C1344 C1339 1.350 . S
C1345 H1332 0.929 . S
C1345 C1337 1.433 . S
C1345 N1347 1.384 . S
N1346 C1342 1.427 . S
N1346 C1343 1.384 . S
N1347 C1339 1.427 . S
N1347 C1345 1.384 . S
H1348 C1354 0.930 . S
H1349 C1358 0.930 . S
H1350 C1363 0.929 . S
H1351 C1361 0.929 . S
H1352 C1356 0.929 . S
H1353 C1362 0.929 . S
C1354 H1348 0.930 . S
C1354 C1355 1.367 . S
C1354 C1362 1.378 . S
C1355 C1354 1.367 . S
C1355 C1363 1.433 . S
C1356 H1352 0.929 . S
C1356 C1358 1.378 . S
C1356 C1360 1.350 . S
C1357 C1360 1.463 . S
C1357 C1362 1.350 . S
C1357 N1365 1.427 . S
C1358 H1349 0.930 . S
C1358 C1356 1.378 . S
C1358 C1359 1.367 . S
C1359 C1358 1.367 . S
C1359 C1361 1.433 . S
C1360 C1356 1.350 . S
C1360 C1357 1.463 . S
C1360 N1364 1.427 . S
C1361 H1351 0.929 . S
C1361 C1359 1.433 . S
C1361 N1364 1.384 . S
C1362 H1353 0.929 . S
C1362 C1354 1.378 . S
C1362 C1357 1.350 . S
C1363 H1350 0.929 . S
C1363 C1355 1.433 . S
C1363 N1365 1.384 . S
N1364 C1360 1.427 . S
N1364 C1361 1.384 . S
N1365 C1357 1.427 . S
N1365 C1363 1.384 . S
H1366 C1372 0.930 . S
H1367 C1376 0.930 . S
H1368 C1381 0.929 . S
H1369 C1379 0.929 . S
H1370 C1374 0.929 . S
H1371 C1380 0.929 . S
C1372 H1366 0.930 . S
C1372 C1373 1.367 . S
C1372 C1380 1.378 . S
C1373 C1372 1.367 . S
C1373 C1381 1.433 . S
C1374 H1370 0.929 . S
C1374 C1376 1.378 . S
C1374 C1378 1.350 . S
C1375 C1378 1.463 . S
C1375 C1380 1.350 . S
C1375 N1383 1.427 . S
C1376 H1367 0.930 . S
C1376 C1374 1.378 . S
C1376 C1377 1.367 . S
C1377 C1376 1.367 . S
C1377 C1379 1.433 . S
C1378 C1374 1.350 . S
C1378 C1375 1.463 . S
C1378 N1382 1.427 . S
C1379 H1369 0.929 . S
C1379 C1377 1.433 . S
C1379 N1382 1.384 . S
C1380 H1371 0.929 . S
C1380 C1372 1.378 . S
C1380 C1375 1.350 . S
C1381 H1368 0.929 . S
C1381 C1373 1.433 . S
C1381 N1383 1.384 . S
N1382 C1378 1.427 . S
N1382 C1379 1.384 . S
N1383 C1375 1.427 . S
N1383 C1381 1.384 . S
H1384 C1390 0.930 . S
H1385 C1394 0.930 . S
H1386 C1399 0.929 . S
H1387 C1397 0.929 . S
H1388 C1392 0.929 . S
H1389 C1398 0.929 . S
C1390 H1384 0.930 . S
C1390 C1391 1.367 . S
C1390 C1398 1.378 . S
C1391 C1390 1.367 . S
C1391 C1399 1.433 . S
C1392 H1388 0.929 . S
C1392 C1394 1.378 . S
C1392 C1396 1.350 . S
C1393 C1396 1.463 . S
C1393 C1398 1.350 . S
C1393 N1401 1.427 . S
C1394 H1385 0.930 . S
C1394 C1392 1.378 . S
C1394 C1395 1.367 . S
C1395 C1394 1.367 . S
C1395 C1397 1.433 . S
C1396 C1392 1.350 . S
C1396 C1393 1.463 . S
C1396 N1400 1.427 . S
C1397 H1387 0.929 . S
C1397 C1395 1.433 . S
C1397 N1400 1.384 . S
C1398 H1389 0.929 . S
C1398 C1390 1.378 . S
C1398 C1393 1.350 . S
C1399 H1386 0.929 . S
C1399 C1391 1.433 . S
C1399 N1401 1.384 . S
N1400 C1396 1.427 . S
N1400 C1397 1.384 . S
N1401 C1393 1.427 . S
N1401 C1399 1.384 . S
H1402 C1408 0.930 . S
H1403 C1412 0.930 . S
H1404 C1417 0.929 . S
H1405 C1415 0.929 . S
H1406 C1410 0.929 . S
H1407 C1416 0.929 . S
C1408 H1402 0.930 . S
C1408 C1409 1.367 . S
C1408 C1416 1.378 . S
C1409 C1408 1.367 . S
C1409 C1417 1.433 . S
C1410 H1406 0.929 . S
C1410 C1412 1.378 . S
C1410 C1414 1.350 . S
C1411 C1414 1.463 . S
C1411 C1416 1.350 . S
C1411 N1419 1.427 . S
C1412 H1403 0.930 . S
C1412 C1410 1.378 . S
C1412 C1413 1.367 . S
C1413 C1412 1.367 . S
C1413 C1415 1.433 . S
C1414 C1410 1.350 . S
C1414 C1411 1.463 . S
C1414 N1418 1.427 . S
C1415 H1405 0.929 . S
C1415 C1413 1.433 . S
C1415 N1418 1.384 . S
C1416 H1407 0.929 . S
C1416 C1408 1.378 . S
C1416 C1411 1.350 . S
C1417 H1404 0.929 . S
C1417 C1409 1.433 . S
C1417 N1419 1.384 . S
N1418 C1414 1.427 . S
N1418 C1415 1.384 . S
N1419 C1411 1.427 . S
N1419 C1417 1.384 . S
H1420 C1426 0.930 . S
H1421 C1430 0.930 . S
H1422 C1435 0.929 . S
H1423 C1433 0.929 . S
H1424 C1428 0.929 . S
H1425 C1434 0.929 . S
C1426 H1420 0.930 . S
C1426 C1427 1.367 . S
C1426 C1434 1.378 . S
C1427 C1426 1.367 . S
C1427 C1435 1.433 . S
C1428 H1424 0.929 . S
C1428 C1430 1.378 . S
C1428 C1432 1.350 . S
C1429 C1432 1.463 . S
C1429 C1434 1.350 . S
C1429 N1437 1.427 . S
C1430 H1421 0.930 . S
C1430 C1428 1.378 . S
C1430 C1431 1.367 . S
C1431 C1430 1.367 . S
C1431 C1433 1.433 . S
C1432 C1428 1.350 . S
C1432 C1429 1.463 . S
C1432 N1436 1.427 . S
C1433 H1423 0.929 . S
C1433 C1431 1.433 . S
C1433 N1436 1.384 . S
C1434 H1425 0.929 . S
C1434 C1426 1.378 . S
C1434 C1429 1.350 . S
C1435 H1422 0.929 . S
C1435 C1427 1.433 . S
C1435 N1437 1.384 . S
N1436 C1432 1.427 . S
N1436 C1433 1.384 . S
N1437 C1429 1.427 . S
N1437 C1435 1.384 . S
H1438 C1444 0.930 . S
H1439 C1448 0.930 . S
H1440 C1453 0.929 . S
H1441 C1451 0.929 . S
H1442 C1446 0.929 . S
H1443 C1452 0.929 . S
C1444 H1438 0.930 . S
C1444 C1445 1.367 . S
C1444 C1452 1.378 . S
C1445 C1444 1.367 . S
C1445 C1453 1.433 . S
C1446 H1442 0.929 . S
C1446 C1448 1.378 . S
C1446 C1450 1.350 . S
C1447 C1450 1.463 . S
C1447 C1452 1.350 . S
C1447 N1455 1.427 . S
C1448 H1439 0.930 . S
C1448 C1446 1.378 . S
C1448 C1449 1.367 . S
C1449 C1448 1.367 . S
C1449 C1451 1.433 . S
C1450 C1446 1.350 . S
C1450 C1447 1.463 . S
C1450 N1454 1.427 . S
C1451 H1441 0.929 . S
C1451 C1449 1.433 . S
C1451 N1454 1.384 . S
C1452 H1443 0.929 . S
C1452 C1444 1.378 . S
C1452 C1447 1.350 . S
C1453 H1440 0.929 . S
C1453 C1445 1.433 . S
C1453 N1455 1.384 . S
N1454 C1450 1.427 . S
N1454 C1451 1.384 . S
N1455 C1447 1.427 . S
N1455 C1453 1.384 . S
H1456 C1462 0.930 . S
H1457 C1466 0.930 . S
H1458 C1471 0.929 . S
H1459 C1469 0.929 . S
H1460 C1464 0.929 . S
H1461 C1470 0.929 . S
C1462 H1456 0.930 . S
C1462 C1463 1.367 . S
C1462 C1470 1.378 . S
C1463 C1462 1.367 . S
C1463 C1471 1.433 . S
C1464 H1460 0.929 . S
C1464 C1466 1.378 . S
C1464 C1468 1.350 . S
C1465 C1468 1.463 . S
C1465 C1470 1.350 . S
C1465 N1473 1.427 . S
C1466 H1457 0.930 . S
C1466 C1464 1.378 . S
C1466 C1467 1.367 . S
C1467 C1466 1.367 . S
C1467 C1469 1.433 . S
C1468 C1464 1.350 . S
C1468 C1465 1.463 . S
C1468 N1472 1.427 . S
C1469 H1459 0.929 . S
C1469 C1467 1.433 . S
C1469 N1472 1.384 . S
C1470 H1461 0.929 . S
C1470 C1462 1.378 . S
C1470 C1465 1.350 . S
C1471 H1458 0.929 . S
C1471 C1463 1.433 . S
C1471 N1473 1.384 . S
N1472 C1468 1.427 . S
N1472 C1469 1.384 . S
N1473 C1465 1.427 . S
N1473 C1471 1.384 . S
H1474 C1480 0.930 . S
H1475 C1484 0.930 . S
H1476 C1489 0.929 . S
H1477 C1487 0.929 . S
H1478 C1482 0.929 . S
H1479 C1488 0.929 . S
C1480 H1474 0.930 . S
C1480 C1481 1.367 . S
C1480 C1488 1.378 . S
C1481 C1480 1.367 . S
C1481 C1489 1.433 . S
C1482 H1478 0.929 . S
C1482 C1484 1.378 . S
C1482 C1486 1.350 . S
C1483 C1486 1.463 . S
C1483 C1488 1.350 . S
C1483 N1491 1.427 . S
C1484 H1475 0.930 . S
C1484 C1482 1.378 . S
C1484 C1485 1.367 . S
C1485 C1484 1.367 . S
C1485 C1487 1.433 . S
C1486 C1482 1.350 . S
C1486 C1483 1.463 . S
C1486 N1490 1.427 . S
C1487 H1477 0.929 . S
C1487 C1485 1.433 . S
C1487 N1490 1.384 . S
C1488 H1479 0.929 . S
C1488 C1480 1.378 . S
C1488 C1483 1.350 . S
C1489 H1476 0.929 . S
C1489 C1481 1.433 . S
C1489 N1491 1.384 . S
N1490 C1486 1.427 . S
N1490 C1487 1.384 . S
N1491 C1483 1.427 . S
N1491 C1489 1.384 . S
H1492 C1498 0.930 . S
H1493 C1502 0.930 . S
H1494 C1507 0.929 . S
H1495 C1505 0.929 . S
H1496 C1500 0.929 . S
H1497 C1506 0.929 . S
C1498 H1492 0.930 . S
C1498 C1499 1.367 . S
C1498 C1506 1.378 . S
C1499 C1498 1.367 . S
C1499 C1507 1.433 . S
C1500 H1496 0.929 . S
C1500 C1502 1.378 . S
C1500 C1504 1.350 . S
C1501 C1504 1.463 . S
C1501 C1506 1.350 . S
C1501 N1509 1.427 . S
C1502 H1493 0.930 . S
C1502 C1500 1.378 . S
C1502 C1503 1.367 . S
C1503 C1502 1.367 . S
C1503 C1505 1.433 . S
C1504 C1500 1.350 . S
C1504 C1501 1.463 . S
C1504 N1508 1.427 . S
C1505 H1495 0.929 . S
C1505 C1503 1.433 . S
C1505 N1508 1.384 . S
C1506 H1497 0.929 . S
C1506 C1498 1.378 . S
C1506 C1501 1.350 . S
C1507 H1494 0.929 . S
C1507 C1499 1.433 . S
C1507 N1509 1.384 . S
N1508 C1504 1.427 . S
N1508 C1505 1.384 . S
N1509 C1501 1.427 . S
N1509 C1507 1.384 . S
H1510 C1516 0.930 . S
H1511 C1520 0.930 . S
H1512 C1525 0.929 . S
H1513 C1523 0.929 . S
H1514 C1518 0.929 . S
H1515 C1524 0.929 . S
C1516 H1510 0.930 . S
C1516 C1517 1.367 . S
C1516 C1524 1.378 . S
C1517 C1516 1.367 . S
C1517 C1525 1.433 . S
C1518 H1514 0.929 . S
C1518 C1520 1.378 . S
C1518 C1522 1.350 . S
C1519 C1522 1.463 . S
C1519 C1524 1.350 . S
C1519 N1527 1.427 . S
C1520 H1511 0.930 . S
C1520 C1518 1.378 . S
C1520 C1521 1.367 . S
C1521 C1520 1.367 . S
C1521 C1523 1.433 . S
C1522 C1518 1.350 . S
C1522 C1519 1.463 . S
C1522 N1526 1.427 . S
C1523 H1513 0.929 . S
C1523 C1521 1.433 . S
C1523 N1526 1.384 . S
C1524 H1515 0.929 . S
C1524 C1516 1.378 . S
C1524 C1519 1.350 . S
C1525 H1512 0.929 . S
C1525 C1517 1.433 . S
C1525 N1527 1.384 . S
N1526 C1522 1.427 . S
N1526 C1523 1.384 . S
N1527 C1519 1.427 . S
N1527 C1525 1.384 . S
H1528 C1534 0.930 . S
H1529 C1538 0.930 . S
H1530 C1543 0.929 . S
H1531 C1541 0.929 . S
H1532 C1536 0.929 . S
H1533 C1542 0.929 . S
C1534 H1528 0.930 . S
C1534 C1535 1.367 . S
C1534 C1542 1.378 . S
C1535 C1534 1.367 . S
C1535 C1543 1.433 . S
C1536 H1532 0.929 . S
C1536 C1538 1.378 . S
C1536 C1540 1.350 . S
C1537 C1540 1.463 . S
C1537 C1542 1.350 . S
C1537 N1545 1.427 . S
C1538 H1529 0.930 . S
C1538 C1536 1.378 . S
C1538 C1539 1.367 . S
C1539 C1538 1.367 . S
C1539 C1541 1.433 . S
C1540 C1536 1.350 . S
C1540 C1537 1.463 . S
C1540 N1544 1.427 . S
C1541 H1531 0.929 . S
C1541 C1539 1.433 . S
C1541 N1544 1.384 . S
C1542 H1533 0.929 . S
C1542 C1534 1.378 . S
C1542 C1537 1.350 . S
C1543 H1530 0.929 . S
C1543 C1535 1.433 . S
C1543 N1545 1.384 . S
N1544 C1540 1.427 . S
N1544 C1541 1.384 . S
N1545 C1537 1.427 . S
N1545 C1543 1.384 . S
H1546 C1552 0.930 . S
H1547 C1556 0.930 . S
H1548 C1561 0.929 . S
H1549 C1559 0.929 . S
H1550 C1554 0.929 . S
H1551 C1560 0.929 . S
C1552 H1546 0.930 . S
C1552 C1553 1.367 . S
C1552 C1560 1.378 . S
C1553 C1552 1.367 . S
C1553 C1561 1.433 . S
C1554 H1550 0.929 . S
C1554 C1556 1.378 . S
C1554 C1558 1.350 . S
C1555 C1558 1.463 . S
C1555 C1560 1.350 . S
C1555 N1563 1.427 . S
C1556 H1547 0.930 . S
C1556 C1554 1.378 . S
C1556 C1557 1.367 . S
C1557 C1556 1.367 . S
C1557 C1559 1.433 . S
C1558 C1554 1.350 . S
C1558 C1555 1.463 . S
C1558 N1562 1.427 . S
C1559 H1549 0.929 . S
C1559 C1557 1.433 . S
C1559 N1562 1.384 . S
C1560 H1551 0.929 . S
C1560 C1552 1.378 . S
C1560 C1555 1.350 . S
C1561 H1548 0.929 . S
C1561 C1553 1.433 . S
C1561 N1563 1.384 . S
N1562 C1558 1.427 . S
N1562 C1559 1.384 . S
N1563 C1555 1.427 . S
N1563 C1561 1.384 . S
H1564 C1570 0.930 . S
H1565 C1574 0.930 . S
H1566 C1579 0.929 . S
H1567 C1577 0.929 . S
H1568 C1572 0.929 . S
H1569 C1578 0.929 . S
C1570 H1564 0.930 . S
C1570 C1571 1.367 . S
C1570 C1578 1.378 . S
C1571 C1570 1.367 . S
C1571 C1579 1.433 . S
C1572 H1568 0.929 . S
C1572 C1574 1.378 . S
C1572 C1576 1.350 . S
C1573 C1576 1.463 . S
C1573 C1578 1.350 . S
C1573 N1581 1.427 . S
C1574 H1565 0.930 . S
C1574 C1572 1.378 . S
C1574 C1575 1.367 . S
C1575 C1574 1.367 . S
C1575 C1577 1.433 . S
C1576 C1572 1.350 . S
C1576 C1573 1.463 . S
C1576 N1580 1.427 . S
C1577 H1567 0.929 . S
C1577 C1575 1.433 . S
C1577 N1580 1.384 . S
C1578 H1569 0.929 . S
C1578 C1570 1.378 . S
C1578 C1573 1.350 . S
C1579 H1566 0.929 . S
C1579 C1571 1.433 . S
C1579 N1581 1.384 . S
N1580 C1576 1.427 . S
N1580 C1577 1.384 . S
N1581 C1573 1.427 . S
N1581 C1579 1.384 . S
H1582 C1588 0.930 . S
H1583 C1592 0.930 . S
H1584 C1597 0.929 . S
H1585 C1595 0.929 . S
H1586 C1590 0.929 . S
H1587 C1596 0.929 . S
C1588 H1582 0.930 . S
C1588 C1589 1.367 . S
C1588 C1596 1.378 . S
C1589 C1588 1.367 . S
C1589 C1597 1.433 . S
C1590 H1586 0.929 . S
C1590 C1592 1.378 . S
C1590 C1594 1.350 . S
C1591 C1594 1.463 . S
C1591 C1596 1.350 . S
C1591 N1599 1.427 . S
C1592 H1583 0.930 . S
C1592 C1590 1.378 . S
C1592 C1593 1.367 . S
C1593 C1592 1.367 . S
C1593 C1595 1.433 . S
C1594 C1590 1.350 . S
C1594 C1591 1.463 . S
C1594 N1598 1.427 . S
C1595 H1585 0.929 . S
C1595 C1593 1.433 . S
C1595 N1598 1.384 . S
C1596 H1587 0.929 . S
C1596 C1588 1.378 . S
C1596 C1591 1.350 . S
C1597 H1584 0.929 . S
C1597 C1589 1.433 . S
C1597 N1599 1.384 . S
N1598 C1594 1.427 . S
N1598 C1595 1.384 . S
N1599 C1591 1.427 . S
N1599 C1597 1.384 . S
C455 C218 1.512 . S
C459 C8 1.514 . S
C473 C22 1.512 . S
C477 C176 1.515 . S
C491 C36 1.517 . S
C495 C190 1.509 . S
C509 C204 1.514 . S
C513 C50 1.513 . S
C527 C64 1.517 . S
C531 C134 1.510 . S
C545 C78 1.512 . S
C549 C148 1.515 . S
C563 C162 1.515 . S
C567 C92 1.511 . S
C581 C120 1.515 . S
C585 C106 1.512 . S
C599 C232 1.518 . S
C603 C442 1.509 . S
C617 C246 1.518 . S
C621 C400 1.509 . S
C635 C260 1.514 . S
C639 C414 1.512 . S
C653 C428 1.515 . S
C657 C274 1.512 . S
C671 C288 1.515 . S
C675 C358 1.511 . S
C689 C302 1.515 . S
C693 C372 1.511 . S
C707 C386 1.515 . S
C711 C316 1.512 . S
C725 C330 1.509 . S
C729 C344 1.517 . S
C743 C175 1.457 . S
C747 C7 1.463 . S
C761 C21 1.459 . S
C765 C189 1.462 . S
C779 C203 1.456 . S
C783 C35 1.464 . S
C797 C49 1.459 . S
C801 C217 1.462 . S
C815 C63 1.466 . S
C819 C119 1.455 . S
C833 C133 1.456 . S
C837 C77 1.465 . S
C851 C147 1.458 . S
C855 C91 1.462 . S
C869 C161 1.455 . S
C873 C105 1.466 . S
C887 C231 1.456 . S
C891 C399 1.465 . S
C905 C413 1.465 . S
C909 C245 1.455 . S
C923 C259 1.460 . S
C927 C427 1.460 . S
C941 C273 1.458 . S
C945 C441 1.463 . S
C959 C343 1.462 . S
C963 C287 1.458 . S
C977 C301 1.461 . S
C981 C357 1.460 . S
C995 C315 1.463 . S
C999 C371 1.458 . S
C1013 C329 1.460 . S
C1017 C385 1.460 . S
C1031 C9 1.383 . S
C1035 C149 1.382 . S
C1049 C163 1.383 . S
C1053 C23 1.383 . S
C1067 C37 1.382 . S
C1071 C121 1.384 . S
C1085 C135 1.386 . S
C1089 C51 1.380 . S
C1103 C205 1.377 . S
C1107 C65 1.389 . S
C1121 C219 1.382 . S
C1125 C79 1.384 . S
C1139 C177 1.389 . S
C1143 C93 1.376 . S
C1157 C107 1.389 . S
C1161 C191 1.376 . S
C1175 C373 1.389 . S
C1179 C233 1.376 . S
C1193 C247 1.389 . S
C1197 C387 1.376 . S
C1211 C345 1.388 . S
C1215 C261 1.378 . S
C1229 C359 1.383 . S
C1233 C275 1.382 . S
C1247 C289 1.379 . S
C1251 C429 1.387 . S
C1265 C303 1.377 . S
C1269 C443 1.389 . S
C1283 C401 1.389 . S
C1287 C317 1.376 . S
C1301 C415 1.386 . S
C1305 C331 1.380 . S
C1319 C328 1.393 . S
C1323 C6 1.397 . S
C1337 C286 1.393 . S
C1341 C20 1.389 . S
C1355 C300 1.397 . S
C1359 C34 1.399 . S
C1373 C314 1.391 . S
C1377 C48 1.395 . S
C1391 C244 1.390 . S
C1395 C62 1.395 . S
C1409 C76 1.396 . S
C1413 C258 1.399 . S
C1427 C90 1.390 . S
C1431 C272 1.389 . S
C1445 C104 1.389 . S
C1449 C230 1.393 . S
C1463 C118 1.392 . S
C1467 C440 1.397 . S
C1481 C398 1.395 . S
C1485 C132 1.399 . S
C1499 C146 1.392 . S
C1503 C412 1.397 . S
C1517 C160 1.399 . S
C1521 C426 1.396 . S
C1535 C356 1.389 . S
C1539 C174 1.392 . S
C1553 C370 1.392 . S
C1557 C188 1.389 . S
C1571 C202 1.398 . S
C1575 C384 1.394 . S
C1589 C216 1.399 . S
C1593 C342 1.396 . S
