# Generated by pormake.
# Topology wir, (6)-cn, num edge types: 1
# Building blocks:
#     Node 0, Type 0, BuildingBlock: CIFDUS_clean_sbu_1, # of connection points: 6
#     Node 1, Type 0, BuildingBlock: CIFDUS_clean_sbu_1, # of connection points: 6
#     Node 2, Type 0, BuildingBlock: CIFDUS_clean_sbu_1, # of connection points: 6
#     Node 3, Type 0, BuildingBlock: CIFDUS_clean_sbu_1, # of connection points: 6
#     Node 4, Type 0, BuildingBlock: CIFDUS_clean_sbu_1, # of connection points: 6
#     Node 5, Type 0, BuildingBlock: CIFDUS_clean_sbu_1, # of connection points: 6
#     Node 6, Type 0, BuildingBlock: CIFDUS_clean_sbu_1, # of connection points: 6
#     Node 7, Type 0, BuildingBlock: CIFDUS_clean_sbu_1, # of connection points: 6
#     Node 8, Type 0, BuildingBlock: CIFDUS_clean_sbu_1, # of connection points: 6
#     Node 9, Type 0, BuildingBlock: CIFDUS_clean_sbu_1, # of connection points: 6
#     Node 10, Type 0, BuildingBlock: CIFDUS_clean_sbu_1, # of connection points: 6
#     Node 11, Type 0, BuildingBlock: CIFDUS_clean_sbu_1, # of connection points: 6
#     Node 12, Type 0, BuildingBlock: CIFDUS_clean_sbu_1, # of connection points: 6
#     Node 13, Type 0, BuildingBlock: CIFDUS_clean_sbu_1, # of connection points: 6
#     Node 14, Type 0, BuildingBlock: CIFDUS_clean_sbu_1, # of connection points: 6
#     Node 15, Type 0, BuildingBlock: CIFDUS_clean_sbu_1, # of connection points: 6
#     Node 16, Type 0, BuildingBlock: CIFDUS_clean_sbu_1, # of connection points: 6
#     Node 17, Type 0, BuildingBlock: CIFDUS_clean_sbu_1, # of connection points: 6
#     Node 18, Type 0, BuildingBlock: CIFDUS_clean_sbu_1, # of connection points: 6
#     Node 19, Type 0, BuildingBlock: CIFDUS_clean_sbu_1, # of connection points: 6
#     Node 20, Type 0, BuildingBlock: CIFDUS_clean_sbu_1, # of connection points: 6
#     Node 21, Type 0, BuildingBlock: CIFDUS_clean_sbu_1, # of connection points: 6
#     Node 22, Type 0, BuildingBlock: CIFDUS_clean_sbu_1, # of connection points: 6
#     Node 23, Type 0, BuildingBlock: CIFDUS_clean_sbu_1, # of connection points: 6
#     Node 24, Type 0, BuildingBlock: CIFDUS_clean_sbu_1, # of connection points: 6
#     Node 25, Type 0, BuildingBlock: CIFDUS_clean_sbu_1, # of connection points: 6
#     Node 26, Type 0, BuildingBlock: CIFDUS_clean_sbu_1, # of connection points: 6
#     Node 27, Type 0, BuildingBlock: CIFDUS_clean_sbu_1, # of connection points: 6
#     Node 28, Type 0, BuildingBlock: CIFDUS_clean_sbu_1, # of connection points: 6
#     Node 29, Type 0, BuildingBlock: CIFDUS_clean_sbu_1, # of connection points: 6
#     Node 30, Type 0, BuildingBlock: CIFDUS_clean_sbu_1, # of connection points: 6
#     Node 31, Type 0, BuildingBlock: CIFDUS_clean_sbu_1, # of connection points: 6
#     Edge 32, Type (0, 0), BuildingBlock: OJICUG_clean_linker_0, # of connection points: 2
#     Edge 33, Type (0, 0), BuildingBlock: OJICUG_clean_linker_0, # of connection points: 2
#     Edge 34, Type (0, 0), BuildingBlock: OJICUG_clean_linker_0, # of connection points: 2
#     Edge 35, Type (0, 0), BuildingBlock: OJICUG_clean_linker_0, # of connection points: 2
#     Edge 36, Type (0, 0), BuildingBlock: OJICUG_clean_linker_0, # of connection points: 2
#     Edge 37, Type (0, 0), BuildingBlock: OJICUG_clean_linker_0, # of connection points: 2
#     Edge 38, Type (0, 0), BuildingBlock: OJICUG_clean_linker_0, # of connection points: 2
#     Edge 39, Type (0, 0), BuildingBlock: OJICUG_clean_linker_0, # of connection points: 2
#     Edge 40, Type (0, 0), BuildingBlock: OJICUG_clean_linker_0, # of connection points: 2
#     Edge 41, Type (0, 0), BuildingBlock: OJICUG_clean_linker_0, # of connection points: 2
#     Edge 42, Type (0, 0), BuildingBlock: OJICUG_clean_linker_0, # of connection points: 2
#     Edge 43, Type (0, 0), BuildingBlock: OJICUG_clean_linker_0, # of connection points: 2
#     Edge 44, Type (0, 0), BuildingBlock: OJICUG_clean_linker_0, # of connection points: 2
#     Edge 45, Type (0, 0), BuildingBlock: OJICUG_clean_linker_0, # of connection points: 2
#     Edge 46, Type (0, 0), BuildingBlock: OJICUG_clean_linker_0, # of connection points: 2
#     Edge 47, Type (0, 0), BuildingBlock: OJICUG_clean_linker_0, # of connection points: 2
#     Edge 48, Type (0, 0), BuildingBlock: OJICUG_clean_linker_0, # of connection points: 2
#     Edge 49, Type (0, 0), BuildingBlock: OJICUG_clean_linker_0, # of connection points: 2
#     Edge 50, Type (0, 0), BuildingBlock: OJICUG_clean_linker_0, # of connection points: 2
#     Edge 51, Type (0, 0), BuildingBlock: OJICUG_clean_linker_0, # of connection points: 2
#     Edge 52, Type (0, 0), BuildingBlock: OJICUG_clean_linker_0, # of connection points: 2
#     Edge 53, Type (0, 0), BuildingBlock: OJICUG_clean_linker_0, # of connection points: 2
#     Edge 54, Type (0, 0), BuildingBlock: OJICUG_clean_linker_0, # of connection points: 2
#     Edge 55, Type (0, 0), BuildingBlock: OJICUG_clean_linker_0, # of connection points: 2
#     Edge 56, Type (0, 0), BuildingBlock: OJICUG_clean_linker_0, # of connection points: 2
#     Edge 57, Type (0, 0), BuildingBlock: OJICUG_clean_linker_0, # of connection points: 2
#     Edge 58, Type (0, 0), BuildingBlock: OJICUG_clean_linker_0, # of connection points: 2
#     Edge 59, Type (0, 0), BuildingBlock: OJICUG_clean_linker_0, # of connection points: 2
#     Edge 60, Type (0, 0), BuildingBlock: OJICUG_clean_linker_0, # of connection points: 2
#     Edge 61, Type (0, 0), BuildingBlock: OJICUG_clean_linker_0, # of connection points: 2
#     Edge 62, Type (0, 0), BuildingBlock: OJICUG_clean_linker_0, # of connection points: 2
#     Edge 63, Type (0, 0), BuildingBlock: OJICUG_clean_linker_0, # of connection points: 2
#     Edge 64, Type (0, 0), BuildingBlock: OJICUG_clean_linker_0, # of connection points: 2
#     Edge 65, Type (0, 0), BuildingBlock: OJICUG_clean_linker_0, # of connection points: 2
#     Edge 66, Type (0, 0), BuildingBlock: OJICUG_clean_linker_0, # of connection points: 2
#     Edge 67, Type (0, 0), BuildingBlock: OJICUG_clean_linker_0, # of connection points: 2
#     Edge 68, Type (0, 0), BuildingBlock: OJICUG_clean_linker_0, # of connection points: 2
#     Edge 69, Type (0, 0), BuildingBlock: OJICUG_clean_linker_0, # of connection points: 2
#     Edge 70, Type (0, 0), BuildingBlock: OJICUG_clean_linker_0, # of connection points: 2
#     Edge 71, Type (0, 0), BuildingBlock: OJICUG_clean_linker_0, # of connection points: 2
#     Edge 72, Type (0, 0), BuildingBlock: OJICUG_clean_linker_0, # of connection points: 2
#     Edge 73, Type (0, 0), BuildingBlock: OJICUG_clean_linker_0, # of connection points: 2
#     Edge 74, Type (0, 0), BuildingBlock: OJICUG_clean_linker_0, # of connection points: 2
#     Edge 75, Type (0, 0), BuildingBlock: OJICUG_clean_linker_0, # of connection points: 2
#     Edge 76, Type (0, 0), BuildingBlock: OJICUG_clean_linker_0, # of connection points: 2
#     Edge 77, Type (0, 0), BuildingBlock: OJICUG_clean_linker_0, # of connection points: 2
#     Edge 78, Type (0, 0), BuildingBlock: OJICUG_clean_linker_0, # of connection points: 2
#     Edge 79, Type (0, 0), BuildingBlock: OJICUG_clean_linker_0, # of connection points: 2
#     Edge 80, Type (0, 0), BuildingBlock: OJICUG_clean_linker_0, # of connection points: 2
#     Edge 81, Type (0, 0), BuildingBlock: OJICUG_clean_linker_0, # of connection points: 2
#     Edge 82, Type (0, 0), BuildingBlock: OJICUG_clean_linker_0, # of connection points: 2
#     Edge 83, Type (0, 0), BuildingBlock: OJICUG_clean_linker_0, # of connection points: 2
#     Edge 84, Type (0, 0), BuildingBlock: OJICUG_clean_linker_0, # of connection points: 2
#     Edge 85, Type (0, 0), BuildingBlock: OJICUG_clean_linker_0, # of connection points: 2
#     Edge 86, Type (0, 0), BuildingBlock: OJICUG_clean_linker_0, # of connection points: 2
#     Edge 87, Type (0, 0), BuildingBlock: OJICUG_clean_linker_0, # of connection points: 2
#     Edge 88, Type (0, 0), BuildingBlock: OJICUG_clean_linker_0, # of connection points: 2
#     Edge 89, Type (0, 0), BuildingBlock: OJICUG_clean_linker_0, # of connection points: 2
#     Edge 90, Type (0, 0), BuildingBlock: OJICUG_clean_linker_0, # of connection points: 2
#     Edge 91, Type (0, 0), BuildingBlock: OJICUG_clean_linker_0, # of connection points: 2
#     Edge 92, Type (0, 0), BuildingBlock: OJICUG_clean_linker_0, # of connection points: 2
#     Edge 93, Type (0, 0), BuildingBlock: OJICUG_clean_linker_0, # of connection points: 2
#     Edge 94, Type (0, 0), BuildingBlock: OJICUG_clean_linker_0, # of connection points: 2
#     Edge 95, Type (0, 0), BuildingBlock: OJICUG_clean_linker_0, # of connection points: 2
#     Edge 96, Type (0, 0), BuildingBlock: OJICUG_clean_linker_0, # of connection points: 2
#     Edge 97, Type (0, 0), BuildingBlock: OJICUG_clean_linker_0, # of connection points: 2
#     Edge 98, Type (0, 0), BuildingBlock: OJICUG_clean_linker_0, # of connection points: 2
#     Edge 99, Type (0, 0), BuildingBlock: OJICUG_clean_linker_0, # of connection points: 2
#     Edge 100, Type (0, 0), BuildingBlock: OJICUG_clean_linker_0, # of connection points: 2
#     Edge 101, Type (0, 0), BuildingBlock: OJICUG_clean_linker_0, # of connection points: 2
#     Edge 102, Type (0, 0), BuildingBlock: OJICUG_clean_linker_0, # of connection points: 2
#     Edge 103, Type (0, 0), BuildingBlock: OJICUG_clean_linker_0, # of connection points: 2
#     Edge 104, Type (0, 0), BuildingBlock: OJICUG_clean_linker_0, # of connection points: 2
#     Edge 105, Type (0, 0), BuildingBlock: OJICUG_clean_linker_0, # of connection points: 2
#     Edge 106, Type (0, 0), BuildingBlock: OJICUG_clean_linker_0, # of connection points: 2
#     Edge 107, Type (0, 0), BuildingBlock: OJICUG_clean_linker_0, # of connection points: 2
#     Edge 108, Type (0, 0), BuildingBlock: OJICUG_clean_linker_0, # of connection points: 2
#     Edge 109, Type (0, 0), BuildingBlock: OJICUG_clean_linker_0, # of connection points: 2
#     Edge 110, Type (0, 0), BuildingBlock: OJICUG_clean_linker_0, # of connection points: 2
#     Edge 111, Type (0, 0), BuildingBlock: OJICUG_clean_linker_0, # of connection points: 2
#     Edge 112, Type (0, 0), BuildingBlock: OJICUG_clean_linker_0, # of connection points: 2
#     Edge 113, Type (0, 0), BuildingBlock: OJICUG_clean_linker_0, # of connection points: 2
#     Edge 114, Type (0, 0), BuildingBlock: OJICUG_clean_linker_0, # of connection points: 2
#     Edge 115, Type (0, 0), BuildingBlock: OJICUG_clean_linker_0, # of connection points: 2
#     Edge 116, Type (0, 0), BuildingBlock: OJICUG_clean_linker_0, # of connection points: 2
#     Edge 117, Type (0, 0), BuildingBlock: OJICUG_clean_linker_0, # of connection points: 2
#     Edge 118, Type (0, 0), BuildingBlock: OJICUG_clean_linker_0, # of connection points: 2
#     Edge 119, Type (0, 0), BuildingBlock: OJICUG_clean_linker_0, # of connection points: 2
#     Edge 120, Type (0, 0), BuildingBlock: OJICUG_clean_linker_0, # of connection points: 2
#     Edge 121, Type (0, 0), BuildingBlock: OJICUG_clean_linker_0, # of connection points: 2
#     Edge 122, Type (0, 0), BuildingBlock: OJICUG_clean_linker_0, # of connection points: 2
#     Edge 123, Type (0, 0), BuildingBlock: OJICUG_clean_linker_0, # of connection points: 2
#     Edge 124, Type (0, 0), BuildingBlock: OJICUG_clean_linker_0, # of connection points: 2
#     Edge 125, Type (0, 0), BuildingBlock: OJICUG_clean_linker_0, # of connection points: 2
#     Edge 126, Type (0, 0), BuildingBlock: OJICUG_clean_linker_0, # of connection points: 2
#     Edge 127, Type (0, 0), BuildingBlock: OJICUG_clean_linker_0, # of connection points: 2
# Relax obj value: 0.204
# Max RMSD: 0.167
# Mean RMSD: 0.167
data_MOF--net-wir--node1-CIFDUS_clean_sbu_1--edge1-OJICUG_clean_linker_0
_symmetry_space_group_name_H-M    P1
_symmetry_Int_Tables_number       1
_symmetry_cell_setting            triclinic
loop_
_symmetry_equiv_pos_as_xyz
'x, y, z'
_cell_length_a     29.049149
_cell_length_b     29.102638
_cell_length_c     59.422066
_cell_angle_alpha  90.063634
_cell_angle_beta   90.233434
_cell_angle_gamma 89.968398
loop_
_atom_site_label
_atom_site_type_symbol
_atom_site_fract_x
_atom_site_fract_y
_atom_site_fract_z
_atom_type_partial_charge
O0 O 0.20746 0.12961 0.26995 0.0
Mn1 Mn 0.19778 0.17428 0.29748 0.0
O2 O 0.21267 0.06046 0.28758 0.0
Mn3 Mn 0.19183 0.07546 0.31598 0.0
O4 O 0.18387 0.20774 0.328 0.0
O5 O 0.23641 0.22479 0.27951 0.0
Mn6 Mn 0.21957 0.26118 0.30223 0.0
O7 O 0.13784 0.20484 0.28483 0.0
O8 O 0.24494 0.2476 0.32994 0.0
O9 O 0.25972 0.1485 0.31224 0.0
O10 O 0.2357 0.09466 0.33626 0.0
O11 O 0.25294 0.29997 0.28669 0.0
O12 O 0.15629 0.27271 0.30011 0.0
C13 C 0.12363 0.10297 0.31721 0.0
C14 C 0.21438 0.08543 0.26991 0.0
C15 C 0.2136 0.22734 0.34026 0.0
C16 C 0.25548 0.2645 0.27353 0.0
C17 C 0.12707 0.24626 0.29052 0.0
C18 C 0.26591 0.12319 0.32983 0.0
O19 O 0.15966 0.12497 0.31104 0.0
O20 O 0.13195 0.06142 0.32379 0.0
O21 O 0.11587 0.88782 0.53329 0.0
Mn22 Mn 0.14664 0.94675 0.54661 0.0
O23 O 0.0464 0.9054 0.54722 0.0
Mn24 Mn 0.05812 0.96812 0.5512 0.0
O25 O 0.17196 1.00797 0.56209 0.0
O26 O 0.1965 0.90789 0.55972 0.0
Mn27 Mn 0.2455 0.94088 0.56502 0.0
O28 O 0.19108 0.95816 0.51917 0.0
O29 O 0.22639 0.98347 0.58582 0.0
O30 O 0.11321 0.93067 0.57669 0.0
O31 O 0.07179 0.99061 0.57946 0.0
O32 O 0.26103 0.88148 0.57263 0.0
O33 O 0.26041 0.96307 0.53688 0.0
C34 C 0.05665 1.00656 0.52317 0.0
C35 C 0.07361 0.87706 0.53756 0.0
C36 C 0.19733 1.01359 0.57976 0.0
C37 C 0.21947 0.87242 0.56609 0.0
C38 C 0.2353 0.96533 0.51919 0.0
C39 C 0.09326 0.95929 0.58929 0.0
O40 O 0.09567 0.98607 0.52926 0.0
O41 O 1.02071 1.00403 0.53598 0.0
O42 O 0.43395 0.8659 0.78394 0.0
Mn43 Mn 0.37447 0.89625 0.79687 0.0
O44 O 0.41744 0.79623 0.79793 0.0
Mn45 Mn 0.35443 0.8068 0.80188 0.0
O46 O 0.31279 0.92123 0.81197 0.0
O47 O 0.41246 0.94693 0.80967 0.0
Mn48 Mn 0.37907 0.99585 0.81425 0.0
O49 O 0.36276 0.93951 0.76897 0.0
O50 O 0.3364 0.97715 0.83504 0.0
O51 O 0.39079 0.86376 0.82726 0.0
O52 O 0.332 0.82053 0.83005 0.0
O53 O 0.43856 1.0119 0.82186 0.0
O54 O 0.35691 1.00937 0.78586 0.0
C55 C 0.31556 0.80552 0.77378 0.0
C56 C 0.44533 0.82384 0.78827 0.0
C57 C 0.30676 0.94736 0.82927 0.0
C58 C 0.44789 0.97022 0.8158 0.0
C59 C 0.35512 0.98356 0.76845 0.0
C60 C 0.36263 0.84317 0.83984 0.0
O61 O 0.336 0.84437 0.77998 0.0
O62 O 0.3185 0.76948 0.78651 0.0
O63 O 0.45713 0.18054 0.03403 0.0
Mn64 Mn 0.42615 0.12183 0.04717 0.0
O65 O 0.52673 0.16314 0.0482 0.0
Mn66 Mn 0.51517 0.10038 0.0522 0.0
O67 O 0.40034 0.06074 0.06245 0.0
O68 O 0.37624 0.1608 0.05996 0.0
Mn69 Mn 0.3268 0.12831 0.06467 0.0
O70 O 0.38228 0.11045 0.01939 0.0
O71 O 0.34512 0.08549 0.08553 0.0
O72 O 0.45934 0.1378 0.07745 0.0
O73 O 0.50111 0.07804 0.08037 0.0
O74 O 0.31174 0.1879 0.07225 0.0
O75 O 0.31245 0.1062 0.03637 0.0
C76 C 0.51612 0.062 0.02402 0.0
C77 C 0.49941 0.19131 0.03839 0.0
C78 C 0.37421 0.05523 0.07976 0.0
C79 C 0.35358 0.19652 0.06617 0.0
C80 C 0.33806 0.10344 0.01898 0.0
C81 C 0.47929 0.10919 0.09011 0.0
O82 O 0.47738 0.08277 0.03014 0.0
O83 O 0.55211 0.06403 0.03697 0.0
O84 O 0.13843 0.86335 0.17196 0.0
Mn85 Mn 0.19733 0.89436 0.15889 0.0
O86 O 0.15599 0.79405 0.15784 0.0
Mn87 Mn 0.21882 0.80578 0.15399 0.0
O88 O 0.25844 0.92026 0.14366 0.0
O89 O 0.15835 0.94406 0.14597 0.0
Mn90 Mn 0.19054 0.9936 0.14115 0.0
O91 O 0.2085 0.93831 0.18661 0.0
O92 O 0.23355 0.97528 0.12042 0.0
O93 O 0.18145 0.86126 0.12859 0.0
O94 O 0.24129 0.81956 0.12583 0.0
O95 O 0.13056 1.00813 0.13362 0.0
O96 O 0.2126 1.00798 0.16948 0.0
C97 C 0.25754 0.80458 0.18208 0.0
C98 C 0.12766 0.82118 0.16756 0.0
C99 C 0.2639 0.94628 0.1263 0.0
C100 C 0.12229 0.96637 0.13987 0.0
C101 C 0.21528 0.98249 0.18694 0.0
C102 C 0.21014 0.84137 0.11601 0.0
O103 O 0.23683 0.84341 0.17601 0.0
O104 O 0.25498 0.76863 0.16923 0.0
O105 O 0.45781 0.88752 0.4223 0.0
Mn106 Mn 0.42698 0.94641 0.40896 0.0
O107 O 0.52729 0.90471 0.40831 0.0
Mn108 Mn 0.51571 0.96741 0.40423 0.0
O109 O 0.40159 1.00758 0.39347 0.0
O110 O 0.37678 0.90742 0.3961 0.0
Mn111 Mn 0.32807 0.94095 0.39086 0.0
O112 O 0.38294 0.9582 0.43651 0.0
O113 O 0.34712 0.98296 0.36985 0.0
O114 O 0.46017 0.92998 0.3788 0.0
O115 O 0.50204 0.9896 0.37595 0.0
O116 O 0.31168 0.88179 0.38337 0.0
O117 O 0.31352 0.96374 0.41896 0.0
C118 C 0.51717 1.00642 0.43214 0.0
C119 C 0.50003 0.87656 0.41801 0.0
C120 C 0.37617 1.0131 0.37583 0.0
C121 C 0.35321 0.87224 0.38981 0.0
C122 C 0.33879 0.96581 0.43659 0.0
C123 C 0.48042 0.9583 0.36617 0.0
O124 O 0.47815 0.98588 0.42609 0.0
O125 O 0.55317 1.00342 0.41939 0.0
O126 O 0.43498 0.20545 0.67071 0.0
Mn127 Mn 0.3749 0.17528 0.6581 0.0
O128 O 0.41697 0.27366 0.6557 0.0
Mn129 Mn 0.35359 0.26245 0.65378 0.0
O130 O 0.31265 0.14985 0.64343 0.0
O131 O 0.41307 0.12572 0.64437 0.0
Mn132 Mn 0.38003 0.07679 0.63935 0.0
O133 O 0.36534 0.13044 0.68557 0.0
O134 O 0.33636 0.09639 0.61913 0.0
O135 O 0.38843 0.20906 0.62759 0.0
O136 O 0.32749 0.24932 0.62621 0.0
O137 O 0.43927 0.06154 0.63123 0.0
O138 O 0.35933 0.06153 0.66772 0.0
C139 C 0.31791 0.26577 0.68251 0.0
C140 C 0.44587 0.24694 0.66529 0.0
C141 C 0.30625 0.12488 0.62572 0.0
C142 C 0.4485 0.10288 0.63789 0.0
C143 C 0.35817 0.0863 0.6855 0.0
C144 C 0.35843 0.22899 0.61561 0.0
O145 O 0.3366 0.2259 0.67637 0.0
O146 O 0.32074 0.30138 0.6695 0.0
O147 O 0.11548 0.18169 0.92184 0.0
Mn148 Mn 0.14565 0.1225 0.90862 0.0
O149 O 0.04565 0.16438 0.90808 0.0
Mn150 Mn 0.05716 0.10153 0.90436 0.0
O151 O 0.17077 0.06104 0.89331 0.0
O152 O 0.19509 0.16114 0.89522 0.0
Mn153 Mn 0.2442 0.12837 0.89007 0.0
O154 O 0.19068 0.11148 0.93599 0.0
O155 O 0.22487 0.08528 0.86954 0.0
O156 O 0.11147 0.1381 0.87854 0.0
O157 O 0.06979 0.07829 0.87618 0.0
O158 O 0.25917 0.1877 0.88216 0.0
O159 O 0.25978 0.10683 0.91831 0.0
C160 C 0.05594 0.06357 0.93253 0.0
C161 C 0.07321 0.19267 0.91762 0.0
C162 C 0.1961 0.05515 0.87574 0.0
C163 C 0.21769 0.19663 0.88871 0.0
C164 C 0.23493 0.10456 0.93598 0.0
C165 C 0.09119 0.10922 0.86614 0.0
O166 O 0.09508 0.08355 0.92633 0.0
O167 O 1.01977 0.06628 0.91974 0.0
O168 O 0.93501 0.86709 0.67086 0.0
Mn169 Mn 0.87504 0.89708 0.65808 0.0
O170 O 0.91713 0.79883 0.65584 0.0
Mn171 Mn 0.85375 0.8101 0.65381 0.0
O172 O 0.81307 0.92242 0.64322 0.0
O173 O 0.91312 0.94598 0.64414 0.0
Mn174 Mn 0.88115 0.99548 0.63894 0.0
O175 O 0.86545 0.94253 0.68535 0.0
O176 O 0.83702 0.9758 0.61892 0.0
O177 O 0.88877 0.86302 0.62769 0.0
O178 O 0.82788 0.82283 0.62612 0.0
O179 O 0.94101 1.00901 0.63087 0.0
O180 O 0.8608 1.01132 0.66732 0.0
C181 C 0.81795 0.80699 0.68252 0.0
C182 C 0.94599 0.8256 0.66544 0.0
C183 C 0.80688 0.94732 0.6255 0.0
C184 C 0.94918 0.9676 0.63771 0.0
C185 C 0.85902 0.9868 0.68514 0.0
C186 C 0.85878 0.84335 0.61562 0.0
O187 O 0.83659 0.84683 0.67639 0.0
O188 O 0.82087 0.77129 0.66953 0.0
O189 O 0.95728 0.18351 0.4216 0.0
Mn190 Mn 0.92667 0.12432 0.4085 0.0
O191 O 1.02678 0.16612 0.40768 0.0
Mn192 Mn 1.01532 0.10329 0.4039 0.0
O193 O 0.90126 0.06291 0.39321 0.0
O194 O 0.87673 0.16276 0.39531 0.0
Mn195 Mn 0.82735 0.13019 0.39035 0.0
O196 O 0.8825 0.11332 0.43606 0.0
O197 O 0.84606 0.087 0.36974 0.0
O198 O 0.95987 0.14004 0.37833 0.0
O199 O 1.00172 0.08035 0.37572 0.0
O200 O 0.81241 0.18979 0.38263 0.0
O201 O 0.81281 0.10865 0.41866 0.0
C202 C 1.01697 0.06508 0.43202 0.0
C203 C 0.99945 0.19444 0.41727 0.0
C204 C 0.87536 0.05703 0.37574 0.0
C205 C 0.85413 0.19847 0.38904 0.0
C206 C 0.83824 0.10644 0.43624 0.0
C207 C 0.97993 0.11135 0.36581 0.0
O208 O 0.97785 0.08535 0.42589 0.0
O209 O 0.05291 0.06773 0.41922 0.0
O210 O 0.63866 0.20464 0.1717 0.0
Mn211 Mn 0.69758 0.17376 0.15857 0.0
O212 O 0.6559 0.27407 0.15768 0.0
Mn213 Mn 0.71877 0.26262 0.15368 0.0
O214 O 0.75876 0.14804 0.14331 0.0
O215 O 0.65883 0.12388 0.14564 0.0
Mn216 Mn 0.69121 0.07444 0.14076 0.0
O217 O 0.70901 0.12986 0.18626 0.0
O218 O 0.7341 0.09292 0.12002 0.0
O219 O 0.68142 0.20681 0.1283 0.0
O220 O 0.74105 0.24877 0.12548 0.0
O221 O 0.63123 0.05972 0.13329 0.0
O222 O 0.71338 0.06017 0.16907 0.0
C223 C 0.75753 0.26369 0.18177 0.0
C224 C 0.62775 0.24681 0.1674 0.0
C225 C 0.76433 0.12202 0.12593 0.0
C226 C 0.62282 0.10144 0.1396 0.0
C227 C 0.71593 0.08568 0.18656 0.0
C228 C 0.70987 0.2269 0.11569 0.0
O229 O 0.73678 0.22494 0.17563 0.0
O230 O 0.75509 0.29965 0.16897 0.0
O231 O 0.61616 0.89138 0.92138 0.0
Mn232 Mn 0.64621 0.95066 0.90828 0.0
O233 O 0.54623 0.9085 0.90763 0.0
Mn234 Mn 0.55742 0.9714 0.90391 0.0
O235 O 0.67113 1.01222 0.89304 0.0
O236 O 0.69595 0.91241 0.89491 0.0
Mn237 Mn 0.7451 0.94513 0.88992 0.0
O238 O 0.69101 0.9617 0.93574 0.0
O239 O 0.72574 0.98821 0.86942 0.0
O240 O 0.61229 0.93494 0.87816 0.0
O241 O 0.57033 0.99459 0.87578 0.0
O242 O 0.76009 0.88563 0.88207 0.0
O243 O 0.76026 0.96669 0.91823 0.0
C244 C 0.55622 1.00921 0.9322 0.0
C245 C 0.57389 0.88033 0.91718 0.0
C246 C 0.69665 1.01818 0.87554 0.0
C247 C 0.71855 0.8768 0.88855 0.0
C248 C 0.73524 0.96873 0.93585 0.0
C249 C 0.59198 0.96374 0.86575 0.0
O250 O 0.59529 0.98918 0.92594 0.0
O251 O 0.52009 1.0068 0.91937 0.0
O252 O 0.93379 0.20755 0.78378 0.0
Mn253 Mn 0.87413 0.17733 0.79657 0.0
O254 O 0.91735 0.27725 0.79784 0.0
Mn255 Mn 0.85431 0.26685 0.80168 0.0
O256 O 0.8123 0.15243 0.81156 0.0
O257 O 0.91204 0.12645 0.80931 0.0
Mn258 Mn 0.87844 0.07761 0.81366 0.0
O259 O 0.86249 0.13429 0.76855 0.0
O260 O 0.83566 0.09613 0.83443 0.0
O261 O 0.89033 0.20962 0.82704 0.0
O262 O 0.83169 0.25315 0.82981 0.0
O263 O 0.93774 0.06123 0.82141 0.0
O264 O 0.85642 0.06431 0.7852 0.0
C265 C 0.81548 0.26833 0.77357 0.0
C266 C 0.94524 0.24956 0.78818 0.0
C267 C 0.80611 0.12608 0.82875 0.0
C268 C 0.94727 0.10295 0.81555 0.0
C269 C 0.85468 0.09029 0.76789 0.0
C270 C 0.86214 0.23029 0.8396 0.0
O271 O 0.83579 0.22938 0.77973 0.0
O272 O 0.81858 0.30436 0.78634 0.0
O273 O 0.61722 0.18505 0.53426 0.0
Mn274 Mn 0.64738 0.12524 0.54694 0.0
O275 O 0.54862 0.16787 0.54917 0.0
Mn276 Mn 0.55928 0.10461 0.55152 0.0
O277 O 0.67251 0.06331 0.56173 0.0
O278 O 0.69755 0.16321 0.5604 0.0
Mn279 Mn 0.74655 0.13 0.56524 0.0
O280 O 0.69156 0.11474 0.51932 0.0
O281 O 0.72718 0.08682 0.58561 0.0
O282 O 0.61423 0.13982 0.57743 0.0
O283 O 0.57286 0.07973 0.57927 0.0
O284 O 0.76219 0.18922 0.57329 0.0
O285 O 0.76103 0.10875 0.53684 0.0
C286 C 0.55638 0.06784 0.52297 0.0
C287 C 0.57566 0.19624 0.53953 0.0
C288 C 0.69789 0.0571 0.57934 0.0
C289 C 0.72061 0.19852 0.56688 0.0
C290 C 0.73574 0.1073 0.51919 0.0
C291 C 0.59417 0.11051 0.5896 0.0
O292 O 0.59606 0.08699 0.52914 0.0
O293 O 0.52056 0.07105 0.53584 0.0
O294 O 0.63868 0.86412 0.2845 0.0
Mn295 Mn 0.69866 0.89422 0.29721 0.0
O296 O 0.65613 0.7957 0.29947 0.0
Mn297 Mn 0.71955 0.8066 0.30168 0.0
O298 O 0.76067 0.91985 0.31204 0.0
O299 O 0.66055 0.94368 0.31084 0.0
Mn300 Mn 0.69267 0.99326 0.31563 0.0
O301 O 0.70846 0.93881 0.26967 0.0
O302 O 0.73676 0.97437 0.33582 0.0
O303 O 0.68472 0.86074 0.32768 0.0
O304 O 0.74509 0.81963 0.3294 0.0
O305 O 0.63296 1.00736 0.3237 0.0
O306 O 0.71318 1.00817 0.28719 0.0
C307 C 0.75579 0.80352 0.27307 0.0
C308 C 0.62753 0.82264 0.28981 0.0
C309 C 0.76691 0.94561 0.3295 0.0
C310 C 0.62463 0.9657 0.31726 0.0
C311 C 0.71513 0.98304 0.26956 0.0
C312 C 0.71437 0.8407 0.33981 0.0
O313 O 0.73697 0.84332 0.27921 0.0
O314 O 0.75272 0.76781 0.28601 0.0
O315 O 0.95778 0.88786 0.03343 0.0
Mn316 Mn 0.92675 0.94655 0.04672 0.0
O317 O 1.02729 0.90522 0.04768 0.0
Mn318 Mn 1.01563 0.96793 0.05183 0.0
O319 O 0.90096 1.00754 0.06218 0.0
O320 O 0.87691 0.90739 0.05942 0.0
Mn321 Mn 0.82768 0.9401 0.06442 0.0
O322 O 0.8827 0.95831 0.01904 0.0
O323 O 0.84632 0.98255 0.08544 0.0
O324 O 0.95993 0.93029 0.07695 0.0
O325 O 1.00168 0.98999 0.08009 0.0
O326 O 0.81237 0.8806 0.07183 0.0
O327 O 0.81311 0.96267 0.03627 0.0
C328 C 1.01669 1.00667 0.02383 0.0
C329 C 1.00005 0.87705 0.03783 0.0
C330 C 0.87517 1.01292 0.07962 0.0
C331 C 0.8541 0.8718 0.06562 0.0
C332 C 0.8385 0.96554 0.0188 0.0
C333 C 0.97981 0.95879 0.08971 0.0
O334 O 0.97788 0.98591 0.02982 0.0
O335 O 0.05269 1.00427 0.03675 0.0
O336 O 0.71005 0.63293 0.76962 0.0
Mn337 Mn 0.69937 0.67777 0.79703 0.0
O338 O 0.71314 0.56361 0.78718 0.0
Mn339 Mn 0.69166 0.57909 0.81539 0.0
O340 O 0.68381 0.71173 0.82711 0.0
O341 O 0.73925 0.72799 0.77957 0.0
Mn342 Mn 0.72122 0.76574 0.80153 0.0
O343 O 0.64055 0.70873 0.78365 0.0
O344 O 0.74405 0.75275 0.82981 0.0
O345 O 0.7604 0.65158 0.81254 0.0
O346 O 0.73515 0.59739 0.83605 0.0
O347 O 0.75701 0.80297 0.78637 0.0
O348 O 0.65841 0.77803 0.7976 0.0
C349 C 0.62378 0.60713 0.81648 0.0
C350 C 0.71615 0.58862 0.76957 0.0
C351 C 0.7126 0.73177 0.83968 0.0
C352 C 0.75967 0.76699 0.77355 0.0
C353 C 0.62986 0.75093 0.78794 0.0
C354 C 0.76584 0.62574 0.83001 0.0
O355 O 0.65998 0.62887 0.81023 0.0
O356 O 0.63169 0.56545 0.823 0.0
O357 O 0.61525 0.38584 0.03302 0.0
Mn358 Mn 0.64598 0.44468 0.0464 0.0
O359 O 0.54568 0.40344 0.04676 0.0
Mn360 Mn 0.55749 0.46613 0.05074 0.0
O361 O 0.6717 0.50568 0.06187 0.0
O362 O 0.69531 0.4056 0.05971 0.0
Mn363 Mn 0.74484 0.43768 0.06502 0.0
O364 O 0.69081 0.45578 0.01907 0.0
O365 O 0.72604 0.48086 0.08561 0.0
O366 O 0.61218 0.42886 0.07642 0.0
O367 O 0.5704 0.4886 0.07909 0.0
O368 O 0.75908 0.37791 0.07272 0.0
O369 O 0.76019 0.45938 0.03684 0.0
C370 C 0.55634 0.50478 0.02278 0.0
C371 C 0.573 0.37506 0.03722 0.0
C372 C 0.69733 0.51125 0.07945 0.0
C373 C 0.71742 0.36967 0.06609 0.0
C374 C 0.73515 0.46227 0.01915 0.0
C375 C 0.59197 0.45741 0.08897 0.0
O376 O 0.59536 0.48432 0.02894 0.0
O377 O 0.52019 0.50194 0.03544 0.0
O378 O 0.93172 0.36406 0.284 0.0
Mn379 Mn 0.87152 0.3942 0.29646 0.0
O380 O 0.91596 0.29382 0.29775 0.0
Mn381 Mn 0.85274 0.30339 0.30147 0.0
O382 O 0.80918 0.41871 0.31123 0.0
O383 O 0.90874 0.44595 0.30918 0.0
Mn384 Mn 0.87431 0.49436 0.31316 0.0
O385 O 0.85974 0.43668 0.26821 0.0
O386 O 0.8316 0.47583 0.33388 0.0
O387 O 0.8876 0.36228 0.327 0.0
O388 O 0.83005 0.31714 0.32958 0.0
O389 O 0.93288 0.51207 0.3213 0.0
O390 O 0.85252 0.50685 0.28464 0.0
C391 C 0.81399 0.30249 0.2733 0.0
C392 C 0.94342 0.32202 0.28825 0.0
C393 C 0.80253 0.44539 0.32829 0.0
C394 C 0.94317 0.47027 0.31585 0.0
C395 C 0.85137 0.48059 0.26741 0.0
C396 C 0.8599 0.34072 0.33944 0.0
O397 O 0.83423 0.34129 0.27974 0.0
O398 O 0.81703 0.26623 0.28588 0.0
O399 O 0.95698 0.68269 0.53392 0.0
Mn400 Mn 0.92647 0.62372 0.54713 0.0
O401 O 1.02661 0.66532 0.54798 0.0
Mn402 Mn 1.01511 0.60254 0.55186 0.0
O403 O 0.90159 0.56228 0.56244 0.0
O404 O 0.87629 0.66263 0.56007 0.0
Mn405 Mn 0.82804 0.62853 0.56525 0.0
O406 O 0.88208 0.61211 0.51955 0.0
O407 O 0.84766 0.58654 0.58621 0.0
O408 O 0.96019 0.63977 0.57735 0.0
O409 O 1.00144 0.57966 0.57994 0.0
O410 O 0.81098 0.68728 0.57292 0.0
O411 O 0.81304 0.60591 0.53711 0.0
C412 C 1.01644 0.56422 0.52378 0.0
C413 C 0.99927 0.69352 0.53823 0.0
C414 C 0.87669 0.55655 0.58014 0.0
C415 C 0.85226 0.69741 0.56649 0.0
C416 C 0.83799 0.60426 0.51946 0.0
C417 C 0.98035 0.61101 0.58987 0.0
O418 O 0.97744 0.58463 0.52984 0.0
O419 O 0.05249 0.56675 0.53666 0.0
O420 O 0.63877 0.36771 0.67103 0.0
Mn421 Mn 0.69878 0.39768 0.65851 0.0
O422 O 0.6557 0.29872 0.65635 0.0
Mn423 Mn 0.71907 0.30902 0.65383 0.0
O424 O 0.76097 0.42244 0.64386 0.0
O425 O 0.66099 0.4482 0.64523 0.0
Mn426 Mn 0.69475 0.49678 0.64061 0.0
O427 O 0.70958 0.44155 0.68631 0.0
O428 O 0.73773 0.4773 0.62016 0.0
O429 O 0.68388 0.36459 0.62797 0.0
O430 O 0.74364 0.3225 0.62609 0.0
O431 O 0.63565 0.5132 0.63257 0.0
O432 O 0.71633 0.51088 0.66906 0.0
C433 C 0.75621 0.30677 0.68237 0.0
C434 C 0.62749 0.32605 0.66596 0.0
C435 C 0.76737 0.44788 0.62637 0.0
C436 C 0.62589 0.47174 0.63877 0.0
C437 C 0.7175 0.48555 0.68662 0.0
C438 C 0.71294 0.34406 0.61579 0.0
O439 O 0.73677 0.34615 0.67611 0.0
O440 O 0.75314 0.27081 0.66955 0.0
O441 O 0.95795 0.38778 0.9219 0.0
Mn442 Mn 0.92707 0.44674 0.90872 0.0
O443 O 1.0274 0.40501 0.90789 0.0
Mn444 Mn 1.01584 0.46777 0.90392 0.0
O445 O 0.90131 0.50791 0.89339 0.0
O446 O 0.87716 0.40809 0.89569 0.0
Mn447 Mn 0.82765 0.44044 0.89071 0.0
O448 O 0.883 0.458 0.93634 0.0
O449 O 0.84613 0.48342 0.87 0.0
O450 O 0.96015 0.43066 0.87852 0.0
O451 O 1.00213 0.49016 0.87566 0.0
O452 O 0.81294 0.38064 0.88317 0.0
O453 O 0.81323 0.46237 0.91899 0.0
C454 C 1.01737 0.50635 0.93197 0.0
C455 C 1.00013 0.37683 0.91757 0.0
C456 C 0.87523 0.5136 0.87597 0.0
C457 C 0.85473 0.3722 0.88955 0.0
C458 C 0.83872 0.46486 0.93654 0.0
C459 C 0.98031 0.45899 0.86589 0.0
O460 O 0.97834 0.48588 0.92589 0.0
O461 O 0.05328 0.50371 0.91914 0.0
O462 O 0.93322 0.70455 0.17176 0.0
Mn463 Mn 0.87438 0.67397 0.15817 0.0
O464 O 0.91522 0.77392 0.15801 0.0
Mn465 Mn 0.85246 0.76153 0.15406 0.0
O466 O 0.81336 0.64826 0.14254 0.0
O467 O 0.91381 0.62539 0.14461 0.0
Mn468 Mn 0.88203 0.57593 0.13892 0.0
O469 O 0.86358 0.6283 0.1852 0.0
O470 O 0.8386 0.59512 0.11843 0.0
O471 O 0.89002 0.70846 0.12829 0.0
O472 O 0.82951 0.74909 0.12573 0.0
O473 O 0.94196 0.56233 0.13121 0.0
O474 O 0.86055 0.55955 0.16699 0.0
C475 C 0.81418 0.76299 0.18205 0.0
C476 C 0.94381 0.74681 0.16762 0.0
C477 C 0.80787 0.62317 0.12481 0.0
C478 C 0.94995 0.60372 0.13817 0.0
C479 C 0.85755 0.58397 0.18482 0.0
C480 C 0.86103 0.7283 0.11577 0.0
O481 O 0.83438 0.72382 0.176 0.0
O482 O 0.81689 0.79893 0.16926 0.0
O483 O 0.61587 0.68149 0.42181 0.0
Mn484 Mn 0.64605 0.62217 0.40863 0.0
O485 O 0.54608 0.66451 0.40783 0.0
Mn486 Mn 0.5572 0.60165 0.40394 0.0
O487 O 0.67059 0.56046 0.39331 0.0
O488 O 0.69643 0.66055 0.39564 0.0
Mn489 Mn 0.7448 0.62639 0.39067 0.0
O490 O 0.69031 0.61057 0.43626 0.0
O491 O 0.72541 0.58398 0.36982 0.0
O492 O 0.61249 0.6383 0.37841 0.0
O493 O 0.57051 0.57869 0.3758 0.0
O494 O 0.76174 0.68513 0.38289 0.0
O495 O 0.75956 0.60425 0.4189 0.0
C496 C 0.55576 0.56335 0.43202 0.0
C497 C 0.57363 0.69259 0.41752 0.0
C498 C 0.69591 0.55437 0.37576 0.0
C499 C 0.72037 0.6953 0.38921 0.0
C500 C 0.73441 0.60275 0.43648 0.0
C501 C 0.59204 0.60972 0.36589 0.0
O502 O 0.59486 0.58347 0.42593 0.0
O503 O 0.51967 0.56619 0.41918 0.0
O504 O 0.43311 0.36295 0.17242 0.0
Mn505 Mn 0.37429 0.39388 0.15904 0.0
O506 O 0.41516 0.29364 0.15849 0.0
Mn507 Mn 0.35238 0.30592 0.15456 0.0
O508 O 0.31324 0.41994 0.14354 0.0
O509 O 0.4138 0.44286 0.14586 0.0
Mn510 Mn 0.38176 0.49247 0.14074 0.0
O511 O 0.36353 0.43868 0.18647 0.0
O512 O 0.33837 0.47416 0.12005 0.0
O513 O 0.38982 0.35992 0.12895 0.0
O514 O 0.32957 0.31887 0.12627 0.0
O515 O 0.44146 0.50655 0.13297 0.0
O516 O 0.36026 0.50799 0.16893 0.0
C517 C 0.31392 0.30471 0.18253 0.0
C518 C 0.44373 0.32073 0.16814 0.0
C519 C 0.30779 0.44567 0.12605 0.0
C520 C 0.44971 0.46488 0.1394 0.0
C521 C 0.35727 0.48297 0.18653 0.0
C522 C 0.36095 0.33995 0.11639 0.0
O523 O 0.33438 0.34369 0.17651 0.0
O524 O 0.31657 0.26873 0.16972 0.0
O525 O 0.45896 0.68515 0.92222 0.0
Mn526 Mn 0.42794 0.62635 0.90888 0.0
O527 O 0.52845 0.66789 0.90822 0.0
Mn528 Mn 0.51692 0.60518 0.90406 0.0
O529 O 0.40199 0.56541 0.89336 0.0
O530 O 0.37808 0.6654 0.89603 0.0
Mn531 Mn 0.32855 0.63314 0.89097 0.0
O532 O 0.38397 0.61478 0.93648 0.0
O533 O 0.34685 0.59033 0.87009 0.0
O534 O 0.461 0.64257 0.87872 0.0
O535 O 0.50329 0.58319 0.87571 0.0
O536 O 0.31378 0.69294 0.88357 0.0
O537 O 0.31415 0.61088 0.91916 0.0
C538 C 0.51807 0.5661 0.93194 0.0
C539 C 0.50114 0.69609 0.91791 0.0
C540 C 0.37583 0.55996 0.87595 0.0
C541 C 0.35561 0.70131 0.88991 0.0
C542 C 0.33969 0.60791 0.93667 0.0
C543 C 0.48127 0.61434 0.86602 0.0
O544 O 0.47917 0.58683 0.92585 0.0
O545 O 0.55415 0.56896 0.91924 0.0
O546 O 0.1398 0.70631 0.67145 0.0
Mn547 Mn 0.19966 0.67619 0.65881 0.0
O548 O 0.15637 0.77551 0.65692 0.0
Mn549 Mn 0.2197 0.76533 0.65401 0.0
O550 O 0.2616 0.65129 0.64395 0.0
O551 O 0.16192 0.62568 0.64562 0.0
Mn552 Mn 0.195 0.57655 0.64118 0.0
O553 O 0.21076 0.63255 0.68667 0.0
O554 O 0.23826 0.5954 0.62073 0.0
O555 O 0.18432 0.70897 0.62834 0.0
O556 O 0.24354 0.75173 0.62609 0.0
O557 O 0.13552 0.56103 0.63315 0.0
O558 O 0.21641 0.56277 0.66967 0.0
C559 C 0.2574 0.76715 0.68243 0.0
C560 C 0.12841 0.74805 0.66658 0.0
C561 C 0.26778 0.62524 0.62662 0.0
C562 C 0.12646 0.60278 0.63919 0.0
C563 C 0.21821 0.58845 0.68711 0.0
C564 C 0.21302 0.72949 0.616 0.0
O565 O 0.23764 0.72798 0.67613 0.0
O566 O 0.25436 0.80318 0.66968 0.0
O567 O 0.11518 0.38922 0.42135 0.0
Mn568 Mn 0.14543 0.44849 0.4084 0.0
O569 O 0.04561 0.40704 0.4075 0.0
Mn570 Mn 0.05742 0.46996 0.40421 0.0
O571 O 0.17036 0.51023 0.39337 0.0
O572 O 0.19505 0.40972 0.39488 0.0
Mn573 Mn 0.24357 0.44346 0.38979 0.0
O574 O 0.19036 0.459 0.4358 0.0
O575 O 0.22388 0.48629 0.36927 0.0
O576 O 0.11105 0.43361 0.37825 0.0
O577 O 0.07073 0.49431 0.37638 0.0
O578 O 0.25984 0.38472 0.38163 0.0
O579 O 0.25924 0.46495 0.41807 0.0
C580 C 0.05577 0.50723 0.43253 0.0
C581 C 0.07292 0.37849 0.417 0.0
C582 C 0.19508 0.51627 0.37563 0.0
C583 C 0.21861 0.37483 0.38821 0.0
C584 C 0.2345 0.46638 0.4358 0.0
C585 C 0.09103 0.46302 0.36604 0.0
O586 O 0.09504 0.48738 0.42637 0.0
O587 O 1.01972 0.50479 0.41965 0.0
O588 O 0.43332 0.70427 0.28468 0.0
Mn589 Mn 0.37321 0.67473 0.29729 0.0
O590 O 0.41684 0.77324 0.29945 0.0
Mn591 Mn 0.35337 0.76326 0.30188 0.0
O592 O 0.31109 0.65007 0.31204 0.0
O593 O 0.41071 0.62459 0.3108 0.0
Mn594 Mn 0.37784 0.5755 0.31547 0.0
O595 O 0.3625 0.63048 0.26962 0.0
O596 O 0.33438 0.59503 0.33571 0.0
O597 O 0.38813 0.70791 0.32777 0.0
O598 O 0.32862 0.75029 0.32967 0.0
O599 O 0.43751 0.56044 0.32349 0.0
O600 O 0.35667 0.56113 0.28697 0.0
C601 C 0.31631 0.76577 0.27332 0.0
C602 C 0.44492 0.74579 0.28983 0.0
C603 C 0.30473 0.62448 0.32949 0.0
C604 C 0.44638 0.602 0.31715 0.0
C605 C 0.35513 0.58637 0.26939 0.0
C606 C 0.35909 0.72839 0.33996 0.0
O607 O 0.33539 0.72621 0.27958 0.0
O608 O 0.3197 0.80173 0.28612 0.0
O609 O 0.11658 0.6827 0.03347 0.0
Mn610 Mn 0.14743 0.62387 0.04677 0.0
O611 O 0.04713 0.6651 0.04733 0.0
Mn612 Mn 0.0591 0.6024 0.05126 0.0
O613 O 0.17314 0.56283 0.06219 0.0
O614 O 0.19685 0.66273 0.06008 0.0
Mn615 Mn 0.24649 0.6307 0.06528 0.0
O616 O 0.19215 0.61285 0.01938 0.0
O617 O 0.2278 0.5875 0.08583 0.0
O618 O 0.11376 0.63978 0.07684 0.0
O619 O 0.07246 0.57984 0.07953 0.0
O620 O 0.2606 0.69058 0.07296 0.0
O621 O 0.26164 0.60906 0.03704 0.0
C622 C 0.05765 0.564 0.0232 0.0
C623 C 0.07431 0.69343 0.0377 0.0
C624 C 0.1989 0.55724 0.07973 0.0
C625 C 0.21889 0.69875 0.06637 0.0
C626 C 0.2365 0.60641 0.01937 0.0
C627 C 0.0938 0.61119 0.08941 0.0
O628 O 0.09671 0.58442 0.0293 0.0
O629 O 1.02172 0.56654 0.03601 0.0
O630 O 0.14035 0.36477 0.78372 0.0
Mn631 Mn 0.19916 0.39578 0.79713 0.0
O632 O 0.15843 0.29557 0.79764 0.0
Mn633 Mn 0.22121 0.30804 0.80153 0.0
O634 O 0.26017 0.422 0.81266 0.0
O635 O 0.15966 0.44456 0.81046 0.0
Mn636 Mn 0.19128 0.49429 0.81579 0.0
O637 O 0.20972 0.44087 0.76983 0.0
O638 O 0.23484 0.47588 0.83638 0.0
O639 O 0.18366 0.36171 0.82716 0.0
O640 O 0.24407 0.32093 0.82983 0.0
O641 O 0.13131 0.50787 0.82345 0.0
O642 O 0.21266 0.51004 0.78761 0.0
C643 C 0.25957 0.30656 0.77353 0.0
C644 C 0.12977 0.32257 0.78801 0.0
C645 C 0.26563 0.44771 0.83019 0.0
C646 C 0.12344 0.46627 0.81677 0.0
C647 C 0.21567 0.48521 0.76992 0.0
C648 C 0.21246 0.34169 0.83972 0.0
O649 O 0.23919 0.34566 0.77954 0.0
O650 O 0.25695 0.27069 0.78638 0.0
O651 O 0.45542 0.38893 0.53452 0.0
Mn652 Mn 0.42554 0.44888 0.54708 0.0
O653 O 0.52429 0.40598 0.5495 0.0
Mn654 Mn 0.51392 0.46931 0.55183 0.0
O655 O 0.40089 0.51117 0.56175 0.0
O656 O 0.375 0.41106 0.56034 0.0
Mn657 Mn 0.32658 0.4453 0.5649 0.0
O658 O 0.38159 0.45939 0.51928 0.0
O659 O 0.3461 0.48827 0.58542 0.0
O660 O 0.45883 0.43442 0.57767 0.0
O661 O 0.50028 0.49452 0.57946 0.0
O662 O 0.30958 0.38678 0.57308 0.0
O663 O 0.31224 0.46657 0.53646 0.0
C664 C 0.51657 0.50571 0.52322 0.0
C665 C 0.49706 0.3777 0.53978 0.0
C666 C 0.37561 0.5177 0.57928 0.0
C667 C 0.35101 0.37645 0.56693 0.0
C668 C 0.33756 0.46744 0.51892 0.0
C669 C 0.47911 0.46385 0.58982 0.0
O670 O 0.47697 0.48663 0.52938 0.0
O671 O 0.55247 0.50279 0.53618 0.0
C672 C 0.23513 0.25309 0.37809 0.0
C673 C 0.20046 0.24717 0.36195 0.0
H674 H 0.26651 0.3003 0.40088 0.0
C675 C 0.16147 0.27586 0.36253 0.0
H676 H 0.26518 0.23098 0.37811 0.0
C677 C 0.16276 0.31649 0.37513 0.0
C678 C 0.20259 0.32719 0.38741 0.0
H679 H 0.13388 0.27123 0.35046 0.0
H680 H 0.13635 0.34218 0.37235 0.0
C681 C 0.2359 0.29295 0.39103 0.0
C682 C 0.0442 0.90736 0.61103 0.0
C683 C 0.07476 0.94486 0.61097 0.0
H684 H 0.97706 0.88498 0.62081 0.0
C685 C 0.07132 0.97826 0.62782 0.0
H686 H 0.04666 0.88089 0.59824 0.0
C687 C 1.03189 0.98006 0.64099 0.0
C688 C 0.99587 0.94896 0.63695 0.0
H689 H 0.09488 1.00711 0.62818 0.0
H690 H 1.02629 1.01023 0.65134 0.0
C691 C 1.00422 0.90962 0.62399 0.0
C692 C 0.34408 0.82278 0.8786 0.0
C693 C 0.37739 0.82572 0.86174 0.0
H694 H 0.31258 0.77871 0.90266 0.0
C695 C 0.41513 0.79543 0.86216 0.0
H696 H 0.31501 0.84614 0.87868 0.0
C697 C 0.41323 0.75604 0.87557 0.0
C698 C 0.37398 0.74801 0.88861 0.0
H699 H 0.44153 0.79751 0.84936 0.0
H700 H 0.43815 0.72903 0.87276 0.0
C701 C 0.34267 0.784 0.89224 0.0
C702 C 0.5675 0.1591 0.12558 0.0
C703 C 0.57597 0.11969 0.13846 0.0
H704 H 0.5252 0.18784 0.09966 0.0
C705 C 0.54008 0.08835 0.14218 0.0
H706 H 0.59447 0.18403 0.12274 0.0
C707 C 0.50079 0.09004 0.12874 0.0
C708 C 0.49736 0.12356 0.11197 0.0
H709 H 0.54572 0.05816 0.1525 0.0
H710 H 0.47742 0.06103 0.12886 0.0
C711 C 0.52765 0.16125 0.11237 0.0
C712 C 0.15832 0.79296 0.09363 0.0
C713 C 0.19586 0.82346 0.0941 0.0
H714 H 0.13592 0.72626 0.08316 0.0
C715 C 0.22943 0.82045 0.07737 0.0
H716 H 0.1317 0.7951 0.10632 0.0
C717 C 0.23135 0.78143 0.06387 0.0
C718 C 0.20021 0.74535 0.06749 0.0
H719 H 0.25834 0.84398 0.07732 0.0
H720 H 0.26163 0.77613 0.05358 0.0
C721 C 0.1607 0.75337 0.08035 0.0
C722 C 0.54177 0.97808 0.31436 0.0
C723 C 0.57795 0.94719 0.31849 0.0
H724 H 0.47864 1.00517 0.32704 0.0
C725 C 0.56995 0.90832 0.33178 0.0
H726 H 0.54716 1.00793 0.3038 0.0
C727 C 0.52997 0.90618 0.34475 0.0
C728 C 0.49909 0.94344 0.34457 0.0
H729 H 0.59733 0.88402 0.33512 0.0
H730 H 0.52774 0.88006 0.35769 0.0
C731 C 0.50236 0.97643 0.32756 0.0
C732 C 0.33389 0.29429 0.56504 0.0
C733 C 0.367 0.32885 0.56833 0.0
H734 H 0.30584 0.23198 0.57809 0.0
C735 C 0.4071 0.31879 0.58051 0.0
H736 H 0.30301 0.30121 0.55532 0.0
C737 C 0.40918 0.27832 0.59314 0.0
C738 C 0.37076 0.24898 0.59386 0.0
H739 H 0.43309 0.34489 0.5832 0.0
H740 H 0.43691 0.27438 0.60516 0.0
C741 C 0.33557 0.25445 0.57795 0.0
C742 C 0.0427 0.16105 0.84376 0.0
C743 C 0.07256 0.12301 0.84431 0.0
H744 H 0.97654 0.18487 0.83294 0.0
C745 C 0.06882 0.08917 0.82769 0.0
H746 H 0.04536 0.1878 0.85641 0.0
C747 C 1.02985 0.08797 0.81403 0.0
C748 C 0.99444 0.12008 0.81738 0.0
H749 H 0.09181 0.05982 0.82774 0.0
H750 H 1.02401 0.05776 0.80371 0.0
C751 C 1.00315 0.15942 0.83031 0.0
C752 C 0.83583 0.81873 0.57781 0.0
C753 C 0.87107 0.82411 0.59369 0.0
H754 H 0.80373 0.77232 0.55486 0.0
C755 C 0.91003 0.79549 0.59255 0.0
H756 H 0.80577 0.84079 0.57823 0.0
C757 C 0.9084 0.75539 0.57958 0.0
C758 C 0.86815 0.74506 0.56756 0.0
H759 H 0.93793 0.79961 0.60446 0.0
H760 H 0.93496 0.72969 0.58191 0.0
C761 C 0.83467 0.77936 0.56452 0.0
C762 C 1.0016 0.09185 0.32733 0.0
C763 C 0.99811 0.12554 0.34403 0.0
H764 H 0.04664 0.05967 0.30388 0.0
C765 C 1.02841 0.16322 0.34373 0.0
H766 H 0.9782 0.06285 0.32713 0.0
C767 C 0.06831 0.16096 0.33071 0.0
C768 C 0.07683 0.12136 0.31796 0.0
H769 H 1.02588 0.18994 0.3564 0.0
H770 H 0.09532 0.18587 0.3337 0.0
C771 C 0.04095 0.09001 0.3141 0.0
C772 C 0.65967 0.31504 0.08035 0.0
C773 C 0.69887 0.32304 0.06727 0.0
H774 H 0.63127 0.27338 0.10644 0.0
C775 C 0.73003 0.28698 0.06351 0.0
H776 H 0.63491 0.34217 0.08327 0.0
C777 C 0.72847 0.248 0.07701 0.0
C778 C 0.69521 0.24497 0.09389 0.0
H779 H 0.76008 0.29229 0.05307 0.0
H780 H 0.75742 0.22449 0.07681 0.0
C781 C 0.65763 0.27548 0.09362 0.0
C782 C 0.50396 0.91348 0.83005 0.0
C783 C 0.49505 0.95292 0.81726 0.0
H784 H 0.54651 0.88495 0.85594 0.0
C785 C 0.53044 0.98493 0.8138 0.0
H786 H 0.47737 0.88807 0.83272 0.0
C787 C 0.56961 0.98364 0.82731 0.0
C788 C 0.57352 0.94981 0.8439 0.0
H789 H 0.52444 1.01518 0.80356 0.0
H790 H 0.59257 1.01299 0.82734 0.0
C791 C 0.54372 0.91174 0.84334 0.0
C792 C 0.84327 0.25065 0.87834 0.0
C793 C 0.87678 0.24755 0.86158 0.0
H794 H 0.81146 0.29499 0.90224 0.0
C795 C 0.91457 0.27773 0.86211 0.0
H796 H 0.81417 0.22737 0.87834 0.0
C797 C 0.91251 0.31724 0.87546 0.0
C798 C 0.87306 0.32546 0.88835 0.0
H799 H 0.94114 0.2755 0.8494 0.0
H800 H 0.93749 0.34418 0.87271 0.0
C801 C 0.84169 0.28956 0.89193 0.0
C802 C 0.54555 0.16189 0.61207 0.0
C803 C 0.57525 0.12371 0.61145 0.0
H804 H 0.47878 0.18539 0.622 0.0
C805 C 0.5706 0.08923 0.62764 0.0
H806 H 0.5489 0.1891 0.59983 0.0
C807 C 0.53094 0.0876 0.64067 0.0
C808 C 0.49579 0.11997 0.63712 0.0
H809 H 0.59342 0.05975 0.62759 0.0
H810 H 0.52448 0.05696 0.65052 0.0
C811 C 0.50527 0.15983 0.62482 0.0
C812 C 0.66283 0.79277 0.36256 0.0
C813 C 0.70158 0.82167 0.36168 0.0
H814 H 0.638 0.727 0.37314 0.0
C815 C 0.73641 0.81662 0.37781 0.0
H816 H 0.63534 0.79646 0.35038 0.0
C817 C 0.73748 0.77735 0.39113 0.0
C818 C 0.70426 0.74287 0.38794 0.0
H819 H 0.76632 0.83885 0.37756 0.0
H820 H 0.7682 0.77054 0.401 0.0
C821 C 0.66431 0.75287 0.37563 0.0
C822 C 0.0675 0.90867 0.12547 0.0
C823 C 0.07556 0.94794 0.13855 0.0
H824 H 1.02591 0.88021 0.09918 0.0
C825 C 0.03948 0.97915 0.1422 0.0
H826 H 0.0946 0.88382 0.12267 0.0
C827 C 1.00056 0.97762 0.1285 0.0
C828 C 0.99762 0.94429 0.11159 0.0
H829 H 0.04481 1.00922 0.15267 0.0
H830 H 0.97712 1.0066 0.12861 0.0
C831 C 1.02799 0.90665 0.11201 0.0
C832 C 0.73258 0.79441 0.89144 0.0
C833 C 0.7008 0.82986 0.88743 0.0
H834 H 0.76079 0.73191 0.8786 0.0
C835 C 0.66168 0.82094 0.87429 0.0
H836 H 0.7626 0.80048 0.90192 0.0
C837 C 0.66017 0.78098 0.86122 0.0
C838 C 0.69815 0.75096 0.86126 0.0
H839 H 0.63649 0.84763 0.87116 0.0
H840 H 0.63373 0.77809 0.84837 0.0
C841 C 0.73153 0.75502 0.87816 0.0
C842 C 0.50392 0.40733 0.12451 0.0
C843 C 0.49635 0.44623 0.1379 0.0
H844 H 0.54473 0.37939 0.09792 0.0
C845 C 0.53258 0.47729 0.14157 0.0
H846 H 0.47665 0.38266 0.12163 0.0
C847 C 0.57108 0.47603 0.12773 0.0
C848 C 0.57362 0.44299 0.11069 0.0
H849 H 0.52762 0.50712 0.15224 0.0
H850 H 0.59465 0.50489 0.12796 0.0
C851 C 0.54303 0.40554 0.1109 0.0
C852 C 0.9113 0.25384 0.37487 0.0
C853 C 0.87212 0.24532 0.38787 0.0
H854 H 0.93934 0.29596 0.34886 0.0
C855 C 0.84054 0.28102 0.39165 0.0
H856 H 0.93639 0.22701 0.37195 0.0
C857 C 0.84172 0.32008 0.37819 0.0
C858 C 0.87499 0.32353 0.36134 0.0
H859 H 0.8105 0.27532 0.40204 0.0
H860 H 0.81245 0.34318 0.37836 0.0
C861 C 0.91296 0.29352 0.36165 0.0
C862 C 1.00362 0.59203 0.62828 0.0
C863 C 0.99995 0.62536 0.61143 0.0
H864 H 0.04889 0.55991 0.65185 0.0
C865 C 1.03124 0.6622 0.61116 0.0
H866 H 0.97966 0.56352 0.62881 0.0
C867 C 0.07165 0.65945 0.62391 0.0
C868 C 0.07961 0.62068 0.63729 0.0
H869 H 1.02884 0.68842 0.59826 0.0
H870 H 0.09922 0.68333 0.62041 0.0
C871 C 0.04344 0.58986 0.64134 0.0
C872 C 0.73529 0.281 0.56455 0.0
C873 C 0.70329 0.24564 0.56813 0.0
H874 H 0.76276 0.34373 0.57756 0.0
C875 C 0.66367 0.25468 0.58072 0.0
H876 H 0.76576 0.27483 0.55451 0.0
C877 C 0.66145 0.29489 0.59356 0.0
C878 C 0.6993 0.32501 0.59399 0.0
H879 H 0.63852 0.22794 0.58364 0.0
H880 H 0.63451 0.29788 0.606 0.0
C881 C 0.73349 0.32065 0.57762 0.0
C882 C 0.06885 0.4085 0.83095 0.0
C883 C 0.07683 0.44745 0.81771 0.0
H884 H 1.02713 0.38053 0.85713 0.0
C885 C 0.04064 0.4784 0.81369 0.0
H886 H 0.09609 0.3839 0.83406 0.0
C887 C 1.0016 0.47706 0.82716 0.0
C888 C 0.99861 0.44413 0.8442 0.0
H889 H 0.04594 0.50824 0.80311 0.0
H890 H 0.97801 0.50592 0.82676 0.0
C891 C 1.02921 0.40665 0.84418 0.0
C892 C 0.91122 0.81668 0.08036 0.0
C893 C 0.87203 0.82493 0.06715 0.0
H894 H 0.93938 0.77508 0.10667 0.0
C895 C 0.84034 0.78924 0.06352 0.0
H896 H 0.93635 0.84352 0.08318 0.0
C897 C 0.84151 0.75052 0.07722 0.0
C898 C 0.87502 0.74724 0.0941 0.0
H899 H 0.81028 0.79474 0.053 0.0
H900 H 0.81235 0.72731 0.07703 0.0
C901 C 0.91287 0.77736 0.09383 0.0
C902 C 0.54237 0.66149 0.34424 0.0
C903 C 0.57302 0.62406 0.34422 0.0
H904 H 0.47484 0.68369 0.33472 0.0
C905 C 0.56899 0.59048 0.32747 0.0
H906 H 0.54518 0.68803 0.35699 0.0
C907 C 0.52914 0.58857 0.31444 0.0
C908 C 0.49332 0.61988 0.31845 0.0
H909 H 0.59253 0.56158 0.32708 0.0
H910 H 0.52326 0.55839 0.30412 0.0
C911 C 0.50196 0.65911 0.33145 0.0
C912 C 0.34158 0.31799 0.07778 0.0
C913 C 0.37507 0.32117 0.09468 0.0
H914 H 0.3101 0.27381 0.0536 0.0
C915 C 0.41276 0.2908 0.09443 0.0
H916 H 0.31254 0.34139 0.07759 0.0
C917 C 0.41091 0.25139 0.08098 0.0
C918 C 0.37168 0.2433 0.06777 0.0
H919 H 0.43926 0.29301 0.10729 0.0
H920 H 0.43591 0.22443 0.08384 0.0
C921 C 0.3402 0.27917 0.06412 0.0
C922 C 0.52993 0.66672 0.84432 0.0
C923 C 0.49931 0.62928 0.84433 0.0
H924 H 0.59666 0.68945 0.83409 0.0
C925 C 0.50209 0.59646 0.82719 0.0
H926 H 0.52798 0.69274 0.85735 0.0
C927 C 0.54095 0.59517 0.81359 0.0
C928 C 0.57721 0.62603 0.8176 0.0
H929 H 0.47846 0.56766 0.82678 0.0
H930 H 0.5461 0.56538 0.80292 0.0
C931 C 0.56939 0.66491 0.83097 0.0
C932 C 0.23284 0.75112 0.57752 0.0
C933 C 0.19898 0.74746 0.59407 0.0
H934 H 0.26434 0.79581 0.55373 0.0
C935 C 0.16081 0.77721 0.59341 0.0
H936 H 0.26229 0.72825 0.57763 0.0
C937 C 0.16246 0.81668 0.58005 0.0
C938 C 0.20194 0.8254 0.56731 0.0
H939 H 0.13406 0.77465 0.60597 0.0
H940 H 0.13699 0.84328 0.58269 0.0
C941 C 0.23402 0.78998 0.56392 0.0
C942 C 0.06613 0.4822 0.32783 0.0
C943 C 0.06988 0.44913 0.34481 0.0
H944 H 1.02108 0.51357 0.30388 0.0
C945 C 0.03794 0.41296 0.34565 0.0
H946 H 0.0904 0.51041 0.32701 0.0
C947 C 0.99738 0.41582 0.33309 0.0
C948 C 0.99006 0.45347 0.31895 0.0
H949 H 0.0402 0.38716 0.35876 0.0
H950 H 0.9695 0.39255 0.33697 0.0
C951 C 1.02628 0.48415 0.31476 0.0
C952 C 0.33735 0.79004 0.39181 0.0
C953 C 0.37004 0.82493 0.3886 0.0
H954 H 0.30857 0.7286 0.37799 0.0
C955 C 0.4097 0.81553 0.3761 0.0
H956 H 0.30689 0.79641 0.40182 0.0
C957 C 0.41113 0.7759 0.36281 0.0
C958 C 0.3726 0.7467 0.36193 0.0
H959 H 0.43563 0.84173 0.37362 0.0
H960 H 0.4382 0.77279 0.35045 0.0
C961 C 0.33833 0.75104 0.37825 0.0
C962 C 1.0048 0.66144 0.12422 0.0
C963 C 0.99661 0.6224 0.13737 0.0
H964 H 0.04684 0.68957 0.0982 0.0
C965 C 1.03267 0.5913 0.14138 0.0
H966 H 0.97765 0.68613 0.1211 0.0
C967 C 0.07183 0.59267 0.128 0.0
C968 C 0.07509 0.62578 0.11105 0.0
H969 H 1.02718 0.56136 0.15187 0.0
H970 H 0.09536 0.56376 0.12839 0.0
C971 C 0.04457 0.66332 0.11108 0.0
C972 C 0.23112 0.3182 0.8782 0.0
C973 C 0.19792 0.32226 0.86122 0.0
H974 H 0.26174 0.27295 0.90215 0.0
C975 C 0.15989 0.29233 0.86109 0.0
H976 H 0.2604 0.34125 0.87869 0.0
C977 C 0.16111 0.25251 0.87423 0.0
C978 C 0.20002 0.24361 0.88753 0.0
H979 H 0.13361 0.29521 0.84817 0.0
H980 H 0.1359 0.22587 0.87106 0.0
C981 C 0.23185 0.27899 0.89157 0.0
C982 C 0.52873 0.41294 0.61208 0.0
C983 C 0.49861 0.45077 0.61162 0.0
H984 H 0.59599 0.39017 0.62181 0.0
C985 C 0.5034 0.48533 0.62784 0.0
H986 H 0.52544 0.38578 0.59974 0.0
C987 C 0.54332 0.48725 0.64083 0.0
C988 C 0.57854 0.45501 0.63731 0.0
H989 H 0.48036 0.51463 0.62785 0.0
H990 H 0.54971 0.51786 0.65077 0.0
C991 C 0.56925 0.41533 0.62478 0.0
C992 C 0.05092 0.25754 0.26987 0.0
C993 C 0.07932 0.26412 0.28883 0.0
H994 H 0.98532 0.27271 0.25429 0.0
C995 C 0.06298 0.29147 0.3066 0.0
H996 H 0.0626 0.23662 0.25594 0.0
C997 C 1.01961 0.3116 0.30564 0.0
C998 C 0.99176 0.30681 0.28656 0.0
H999 H 0.08348 0.29664 0.32164 0.0
H1000 H 1.00701 0.32918 0.32034 0.0
C1001 C 1.00728 0.27885 0.26875 0.0
C1002 C 0.06576 0.74739 0.53293 0.0
C1003 C 1.01766 0.74026 0.53364 0.0
H1004 H 0.12136 0.79601 0.53311 0.0
C1005 C 0.98855 0.77859 0.53256 0.0
H1006 H 0.08928 0.71852 0.53355 0.0
C1007 C 1.00712 0.82302 0.5325 0.0
C1008 C 0.05522 0.83019 0.53321 0.0
H1009 H 0.95152 0.77441 0.53307 0.0
H1010 H 0.9836 0.85191 0.5328 0.0
C1011 C 0.08432 0.79182 0.53257 0.0
C1012 C 0.53058 0.83538 0.78318 0.0
C1013 C 0.4924 0.80601 0.78376 0.0
H1014 H 0.60401 0.84084 0.78398 0.0
C1015 C 0.49996 0.7581 0.78271 0.0
H1016 H 0.52606 0.87229 0.78396 0.0
C1017 C 0.54462 0.73991 0.78248 0.0
C1018 C 0.58282 0.76921 0.78362 0.0
H1019 H 0.47123 0.73439 0.78294 0.0
H1020 H 0.54911 0.70297 0.78271 0.0
C1021 C 0.57526 0.81718 0.78328 0.0
C1022 C 0.56575 0.24533 0.03304 0.0
C1023 C 0.5177 0.23803 0.03373 0.0
H1024 H 0.62113 0.29419 0.03304 0.0
C1025 C 0.48842 0.27622 0.0325 0.0
H1026 H 0.58939 0.21656 0.03378 0.0
C1027 C 0.50677 0.32072 0.03228 0.0
C1028 C 0.55483 0.32808 0.03299 0.0
H1029 H 0.4514 0.2719 0.033 0.0
H1030 H 0.48313 0.34951 0.03246 0.0
C1031 C 0.58411 0.28983 0.03251 0.0
C1032 C 0.99786 0.81324 0.1728 0.0
C1033 C 0.99073 0.76523 0.17205 0.0
H1034 H 0.04654 0.86876 0.17248 0.0
C1035 C 1.02919 0.7362 0.17283 0.0
H1036 H 0.9689 0.83669 0.1724 0.0
C1037 C 0.07369 0.75475 0.17264 0.0
C1038 C 0.08081 0.80276 0.17199 0.0
H1039 H 1.02502 0.69924 0.17227 0.0
H1040 H 0.10263 0.73129 0.17211 0.0
C1041 C 0.04238 0.83179 0.17294 0.0
C1042 C 0.56639 0.82223 0.42298 0.0
C1043 C 0.51831 0.82964 0.42239 0.0
H1044 H 0.62179 0.77332 0.42235 0.0
C1045 C 0.48907 0.79142 0.42322 0.0
H1046 H 0.59002 0.85099 0.42253 0.0
C1047 C 0.50746 0.74689 0.42291 0.0
C1048 C 0.55551 0.7395 0.42208 0.0
H1049 H 0.45204 0.7958 0.42278 0.0
H1050 H 0.48381 0.71814 0.42244 0.0
C1051 C 0.58479 0.77769 0.42297 0.0
C1052 C 0.55638 0.30157 0.64685 0.0
C1053 C 0.57942 0.30997 0.6672 0.0
H1054 H 0.49707 0.27403 0.63053 0.0
C1055 C 0.5596 0.29448 0.68739 0.0
H1056 H 0.57152 0.31166 0.631 0.0
C1057 C 0.51679 0.27155 0.68707 0.0
C1058 C 0.49377 0.26383 0.66654 0.0
H1059 H 0.57756 0.2992 0.70323 0.0
H1060 H 0.50137 0.26075 0.70276 0.0
C1061 C 0.51406 0.27925 0.64655 0.0
C1062 C 0.08463 0.27779 0.92263 0.0
C1063 C 0.05522 0.23967 0.92199 0.0
H1064 H 0.09011 0.35104 0.92185 0.0
C1065 C 1.00721 0.24721 0.92288 0.0
H1066 H 0.12162 0.27328 0.92196 0.0
C1067 C 0.98898 0.29179 0.92304 0.0
C1068 C 1.01834 0.3299 0.92197 0.0
H1069 H 0.98348 0.21851 0.92259 0.0
H1070 H 0.95197 0.29628 0.9227 0.0
C1071 C 0.06639 0.32237 0.92247 0.0
C1072 C 0.05625 0.76936 0.64755 0.0
C1073 C 0.08025 0.76381 0.66784 0.0
H1074 H 0.99578 0.79384 0.6311 0.0
C1075 C 0.06119 0.78184 0.68774 0.0
H1076 H 0.07103 0.75784 0.63185 0.0
C1077 C 1.01809 0.80423 0.68721 0.0
C1078 C 0.99392 0.80872 0.66677 0.0
H1079 H 0.07999 0.7795 0.70347 0.0
H1080 H 1.00335 0.81712 0.70269 0.0
C1081 C 1.01353 0.79091 0.64707 0.0
C1082 C 0.06564 0.24885 0.42229 0.0
C1083 C 1.01759 0.24144 0.42153 0.0
H1084 H 0.12098 0.29774 0.42191 0.0
C1085 C 0.98828 0.27967 0.42216 0.0
H1086 H 0.08931 0.22009 0.42199 0.0
C1087 C 1.00661 0.3242 0.42186 0.0
C1088 C 0.05466 0.33158 0.42127 0.0
H1089 H 0.95127 0.27527 0.4216 0.0
H1090 H 0.98294 0.35295 0.42125 0.0
C1091 C 0.08396 0.29338 0.42232 0.0
C1092 C 0.57364 0.31309 0.17273 0.0
C1093 C 0.58091 0.2651 0.172 0.0
H1094 H 0.52478 0.36848 0.17259 0.0
C1095 C 0.54259 0.23597 0.17305 0.0
H1096 H 0.60249 0.33662 0.17214 0.0
C1097 C 0.49802 0.25441 0.17309 0.0
C1098 C 0.49073 0.30239 0.17243 0.0
H1099 H 0.54689 0.19901 0.17253 0.0
H1100 H 0.46913 0.23089 0.17276 0.0
C1101 C 0.52909 0.33153 0.1731 0.0
C1102 C 0.58543 0.79531 0.9226 0.0
C1103 C 0.55596 0.83339 0.92171 0.0
H1104 H 0.59105 0.72203 0.92223 0.0
C1105 C 0.50796 0.82583 0.92262 0.0
H1106 H 0.62241 0.79981 0.92193 0.0
C1107 C 0.48981 0.78124 0.92303 0.0
C1108 C 0.51923 0.74311 0.9222 0.0
H1109 H 0.48417 0.8545 0.92215 0.0
H1110 H 0.45281 0.77672 0.92268 0.0
C1111 C 0.56727 0.75071 0.92269 0.0
C1112 C 0.07526 0.25617 0.78362 0.0
C1113 C 0.08275 0.30416 0.78372 0.0
H1114 H 1.02612 0.20105 0.78444 0.0
C1115 C 0.04451 0.33339 0.78231 0.0
H1116 H 0.10402 0.23253 0.78453 0.0
C1117 C 0.99987 0.31518 0.78247 0.0
C1118 C 0.99235 0.26729 0.78374 0.0
H1119 H 0.04893 0.37035 0.78235 0.0
H1120 H 0.97109 0.33887 0.78248 0.0
C1121 C 1.03059 0.23794 0.78346 0.0
C1122 C 0.52479 0.30783 0.5587 0.0
C1123 C 0.51333 0.32978 0.53846 0.0
H1124 H 0.55467 0.24937 0.57461 0.0
C1125 C 0.52532 0.30872 0.51798 0.0
H1126 H 0.51677 0.32364 0.5747 0.0
C1127 C 0.54816 0.26591 0.51794 0.0
C1128 C 0.55932 0.24419 0.53839 0.0
H1129 H 0.51793 0.32569 0.50216 0.0
H1130 H 0.55619 0.24946 0.50207 0.0
C1131 C 0.54715 0.26558 0.55865 0.0
C1132 C 0.55814 0.794 0.30884 0.0
C1133 C 0.57945 0.80637 0.28862 0.0
H1134 H 0.49963 0.76442 0.3248 0.0
C1135 C 0.55728 0.79598 0.26814 0.0
H1136 H 0.57466 0.80097 0.32482 0.0
C1137 C 0.51414 0.77368 0.26811 0.0
C1138 C 0.4931 0.76157 0.28856 0.0
H1139 H 0.57361 0.80422 0.2523 0.0
H1140 H 0.49688 0.76684 0.25227 0.0
C1141 C 0.51546 0.77236 0.30882 0.0
C1142 C 0.06647 0.82303 0.03257 0.0
C1143 C 1.01839 0.83024 0.03331 0.0
H1144 H 0.12203 0.77432 0.03287 0.0
C1145 C 0.98925 0.79194 0.03246 0.0
H1146 H 0.09 0.85188 0.03304 0.0
C1147 C 1.00778 0.74748 0.03259 0.0
C1148 C 0.05588 0.74026 0.03326 0.0
H1149 H 0.95222 0.79619 0.03301 0.0
H1150 H 0.98425 0.71863 0.03306 0.0
C1151 C 0.085 0.77856 0.03239 0.0
C1152 C 0.26117 0.2437 0.23259 0.0
C1153 C 0.27289 0.27295 0.25043 0.0
H1154 H 0.263 0.23189 0.19713 0.0
C1155 C 0.29592 0.31453 0.24552 0.0
H1156 H 0.24259 0.21206 0.23564 0.0
C1157 C 0.30709 0.32646 0.22336 0.0
C1158 C 0.29555 0.29709 0.20553 0.0
H1159 H 0.30515 0.33826 0.25885 0.0
H1160 H 0.3258 0.35802 0.22031 0.0
C1161 C 0.27223 0.25567 0.21044 0.0
C1162 C 0.99566 0.05934 0.47286 0.0
C1163 C 1.02477 0.0471 0.4551 0.0
H1164 H 0.98402 0.05797 0.50832 0.0
C1165 C 0.06604 1.02341 0.46014 0.0
H1166 H 0.96426 0.07842 0.46969 0.0
C1167 C 0.07799 1.01236 0.48234 0.0
C1168 C 0.04888 1.02459 0.50009 0.0
H1169 H 0.08963 1.01374 0.44688 0.0
H1170 H 0.10938 0.99328 0.4855 0.0
C1171 C 1.00761 0.0483 0.49505 0.0
C1172 C 0.30937 0.82766 0.73305 0.0
C1173 C 0.29753 0.79806 0.75066 0.0
H1174 H 0.30778 0.84003 0.69764 0.0
C1175 C 0.27428 0.75672 0.74544 0.0
H1176 H 0.3281 0.85915 0.73637 0.0
C1177 C 0.26334 0.74515 0.72318 0.0
C1178 C 0.27521 0.77474 0.70557 0.0
H1179 H 0.26493 0.73278 0.75859 0.0
H1180 H 0.24464 0.71365 0.71986 0.0
C1181 C 0.29842 0.8161 0.7108 0.0
C1182 C 0.4952 0.05912 -0.01701 0.0
C1183 C 0.5239 0.04527 0.00072 0.0
H1184 H 0.48408 0.06051 0.94744 0.0
C1185 C 0.56502 1.02157 -0.00446 0.0
H1186 H 0.46396 0.07831 -0.01373 0.0
C1187 C 0.57721 1.01211 0.97323 0.0
C1188 C 0.5485 1.02596 0.9555 0.0
H1189 H 0.58832 1.01072 0.00879 0.0
H1190 H 0.60844 0.99292 0.96995 0.0
C1191 C 0.50738 0.04966 0.96068 0.0
C1192 C 0.27539 0.8151 0.24508 0.0
C1193 C 0.29844 0.77359 0.2502 0.0
H1194 H 0.24559 0.85829 0.21962 0.0
C1195 C 0.30999 0.74395 0.23253 0.0
H1196 H 0.26627 0.83907 0.25829 0.0
C1197 C 0.29888 0.75559 0.21031 0.0
C1198 C 0.27572 0.79704 0.20518 0.0
H1199 H 0.32856 0.71233 0.23576 0.0
H1200 H 0.30801 0.73159 0.19711 0.0
C1201 C 0.26421 0.82671 0.22285 0.0
C1202 C 0.57802 0.06038 0.48223 0.0
C1203 C 0.54831 0.04957 0.49994 0.0
H1204 H 0.59041 0.05708 0.44687 0.0
C1205 C 0.50665 1.02654 0.49493 0.0
H1206 H 0.60975 0.07889 0.48537 0.0
C1207 C 0.49501 1.01461 0.47279 0.0
C1208 C 0.52477 1.02532 0.45509 0.0
H1209 H 0.48262 1.01797 0.50817 0.0
H1210 H 0.46332 0.99602 0.46966 0.0
C1211 C 0.56634 0.04852 0.46009 0.0
C1212 C 0.31219 0.24507 0.72347 0.0
C1213 C 0.30043 0.27422 0.70562 0.0
H1214 H 0.31043 0.23352 0.75894 0.0
C1215 C 0.27735 0.31583 0.71053 0.0
H1216 H 0.3308 0.21341 0.72042 0.0
C1217 C 0.26624 0.32793 0.73268 0.0
C1218 C 0.27786 0.29869 0.75052 0.0
H1219 H 0.26806 0.33947 0.6972 0.0
H1220 H 0.24753 0.35952 0.73572 0.0
C1221 C 0.30117 0.2572 0.74562 0.0
C1222 C 1.00723 1.02216 0.96067 0.0
C1223 C 0.04839 0.0459 0.95567 0.0
H1224 H 0.96403 0.99245 -0.01398 0.0
C1225 C 0.07743 0.05864 0.97347 0.0
H1226 H 0.98369 1.01211 0.94737 0.0
C1227 C 0.06553 0.04806 -0.00431 0.0
C1228 C 1.02436 1.02434 0.00069 0.0
H1229 H 0.10872 0.07779 0.97033 0.0
H1230 H 0.08907 0.05809 0.009 0.0
C1231 C 0.99533 1.01159 -0.01712 0.0
C1232 C 0.80116 0.81611 0.74559 0.0
C1233 C 0.77793 0.77466 0.75054 0.0
H1234 H 0.83071 0.85969 0.72035 0.0
C1235 C 0.76636 0.74525 0.73273 0.0
H1236 H 0.81038 0.83993 0.75889 0.0
C1237 C 0.77745 0.75715 0.71057 0.0
C1238 C 0.80045 0.79872 0.70562 0.0
H1239 H 0.74769 0.71368 0.73581 0.0
H1240 H 0.76821 0.73338 0.69726 0.0
C1241 C 0.81215 0.82805 0.72344 0.0
C1242 C 0.77248 0.25418 0.2449 0.0
C1243 C 0.79636 0.29517 0.2501 0.0
H1244 H 0.74285 0.21114 0.21932 0.0
C1245 C 0.80937 0.32415 0.23245 0.0
H1246 H 0.76224 0.23071 0.2581 0.0
C1247 C 0.79894 0.31231 0.21016 0.0
C1248 C 0.77511 0.27128 0.20496 0.0
H1249 H 0.82863 0.35532 0.23577 0.0
H1250 H 0.80916 0.33577 0.19696 0.0
C1251 C 0.76209 0.24232 0.22262 0.0
C1252 C 0.76285 0.32886 0.72313 0.0
C1253 C 0.77417 0.29906 0.70548 0.0
H1254 H 0.76521 0.34146 0.75853 0.0
C1255 C 0.79716 0.25753 0.71063 0.0
H1256 H 0.74436 0.36051 0.71988 0.0
C1257 C 0.80847 0.24603 0.73285 0.0
C1258 C 0.7972 0.27584 0.75049 0.0
H1259 H 0.80613 0.23344 0.69745 0.0
H1260 H 0.82702 0.2144 0.73609 0.0
C1261 C 0.77414 0.31734 0.74535 0.0
C1262 C 0.79651 0.75362 0.24506 0.0
C1263 C 0.7734 0.79519 0.24998 0.0
H1264 H 0.82634 0.70998 0.21984 0.0
C1265 C 0.7616 0.82437 0.23215 0.0
H1266 H 0.80582 0.72996 0.25838 0.0
C1267 C 0.7726 0.81227 0.21 0.0
C1268 C 0.79592 0.7708 0.20507 0.0
H1269 H 0.74295 0.85599 0.23521 0.0
H1270 H 0.7633 0.83596 0.19668 0.0
C1271 C 0.8076 0.74155 0.2229 0.0
C1272 C 0.57831 0.51178 -0.01793 0.0
C1273 C 0.54892 0.52344 -0.0002 0.0
H1274 H 0.59052 0.51431 0.94667 0.0
C1275 C 0.50773 0.54733 -0.00521 0.0
H1276 H 0.60965 0.49259 -0.01479 0.0
C1277 C 0.49615 0.55909 0.97264 0.0
C1278 C 0.52554 0.54742 0.95491 0.0
H1279 H 0.48394 0.55659 0.00803 0.0
H1280 H 0.4648 0.57827 0.96951 0.0
C1281 C 0.56672 0.52355 0.95992 0.0
C1282 C 0.99496 0.55909 0.48289 0.0
C1283 C 1.02408 0.54646 0.50067 0.0
H1284 H 0.98327 0.55844 0.44739 0.0
C1285 C 0.06528 0.52275 0.49567 0.0
H1286 H 0.96362 0.5782 0.48604 0.0
C1287 C 0.07718 0.51212 0.47345 0.0
C1288 C 0.04807 0.52478 0.45567 0.0
H1289 H 0.08887 0.5128 0.50896 0.0
H1290 H 0.10852 0.49303 0.47029 0.0
C1291 C 1.00685 0.54846 0.46068 0.0
C1292 C 1.00862 0.52229 -0.00493 0.0
C1293 C 0.04981 0.54613 9e-05 0.0
H1294 H 0.96515 0.49234 0.9697 0.0
C1295 C 0.07863 0.55877 -0.01769 0.0
H1296 H 0.98526 0.51232 0.00836 0.0
C1297 C 0.06647 0.54801 0.96009 0.0
C1298 C 1.02527 0.52419 0.95508 0.0
H1299 H 0.10993 0.57798 -0.01454 0.0
H1300 H 0.08983 0.55797 0.9468 0.0
C1301 C 0.99646 0.51154 0.97286 0.0
C1302 C 0.56618 0.546 0.49503 0.0
C1303 C 0.52454 0.52316 0.50008 0.0
H1304 H 0.60955 0.57542 0.46966 0.0
C1305 C 0.49489 0.51151 0.48234 0.0
H1306 H 0.59018 0.5552 0.50829 0.0
C1307 C 0.50661 0.52237 0.46014 0.0
C1308 C 0.54818 0.54537 0.45509 0.0
H1309 H 0.46318 0.49309 0.48551 0.0
H1310 H 0.48258 0.5132 0.44689 0.0
C1311 C 0.57788 0.55692 0.47283 0.0
C1312 C 0.34377 0.08952 0.32904 0.0
C1313 C 0.31158 0.11701 0.34035 0.0
H1314 H 0.39198 1.03411 0.33215 0.0
C1315 C 0.31471 0.12065 0.36392 0.0
H1316 H 0.34158 0.08543 0.31094 0.0
C1317 C 0.34417 0.09164 0.37612 0.0
C1318 C 0.37025 0.05821 0.36487 0.0
H1319 H 0.28979 0.14108 0.37306 0.0
H1320 H 0.341 0.09055 0.39428 0.0
C1321 C 0.37268 0.05999 0.34124 0.0
C1322 C 0.22884 0.09048 0.62666 0.0
C1323 C 0.26045 0.11856 0.61535 0.0
H1324 H 0.18173 1.03418 0.62352 0.0
C1325 C 0.25707 0.12222 0.59179 0.0
H1326 H 0.23122 0.08635 0.64475 0.0
C1327 C 0.22815 0.09266 0.57958 0.0
C1328 C 0.20282 0.05872 0.59081 0.0
H1329 H 0.28156 0.14309 0.58265 0.0
H1330 H 0.23123 0.09167 0.56141 0.0
C1331 C 0.20048 0.06041 0.61444 0.0
C1332 C 0.23017 0.97762 0.87621 0.0
C1333 C 0.20223 1.00978 0.86506 0.0
H1334 H 0.28623 0.93025 0.87287 0.0
C1335 C 0.19844 1.00719 0.84148 0.0
H1336 H 0.23442 0.97941 0.89432 0.0
C1337 C 0.22772 0.9784 0.82914 0.0
C1338 C 0.26158 0.95245 0.84026 0.0
H1339 H 0.17772 1.03213 0.83246 0.0
H1340 H 0.22866 0.98205 0.811 0.0
C1341 C 0.26 0.94941 0.86387 0.0
C1342 C 0.34222 0.97905 0.12656 0.0
C1343 C 0.30903 0.95233 0.11539 0.0
H1344 H 0.39145 1.03343 0.12328 0.0
C1345 C 0.31094 0.94905 0.09179 0.0
H1346 H 0.34095 0.98292 0.14469 0.0
C1347 C 0.34053 0.9775 0.07948 0.0
C1348 C 0.3679 1.01014 0.09065 0.0
H1349 H 0.28518 0.92933 0.08276 0.0
H1350 H 0.33658 0.9789 0.06135 0.0
C1351 C 0.37124 1.00808 0.11425 0.0
C1352 C 0.7586 0.9494 0.59127 0.0
C1353 C 0.76128 0.953 0.61485 0.0
H1354 H 0.73299 0.97967 0.56082 0.0
C1355 C 0.7287 0.98022 0.62604 0.0
H1356 H 0.78381 0.92914 0.58223 0.0
C1357 C 0.69998 1.00974 0.61373 0.0
C1358 C 0.70306 1.01177 0.59013 0.0
H1359 H 0.73049 0.98424 0.64416 0.0
H1360 H 0.68045 0.03554 0.62276 0.0
C1361 C 0.72936 0.97841 0.57896 0.0
C1362 C 0.84431 0.97806 0.37591 0.0
C1363 C 0.86994 1.01185 0.36473 0.0
H1364 H 0.79084 0.92773 0.37272 0.0
C1365 C 0.87262 1.01002 0.34111 0.0
H1366 H 0.84096 0.97918 0.39406 0.0
C1367 C 0.84438 0.97994 0.32883 0.0
C1368 C 0.81254 0.95197 0.34005 0.0
H1369 H 0.89157 0.03616 0.33207 0.0
H1370 H 0.8423 0.98398 0.31072 0.0
C1371 C 0.81553 0.94847 0.36363 0.0
C1372 C 0.87181 0.0602 0.11409 0.0
C1373 C 0.86865 0.05804 0.09048 0.0
H1374 H 0.84128 0.0855 0.14447 0.0
C1375 C 0.84135 0.09065 0.07926 0.0
H1376 H 0.89197 1.03488 0.12316 0.0
C1377 C 0.81164 0.11915 0.09151 0.0
C1378 C 0.80955 0.11595 0.11511 0.0
H1379 H 0.83758 0.08917 0.06113 0.0
H1380 H 0.78593 0.13884 0.08243 0.0
C1381 C 0.84269 0.08931 0.12634 0.0
C1382 C 0.69844 0.06559 0.84115 0.0
C1383 C 0.7023 0.06346 0.86474 0.0
H1384 H 0.7283 0.0905 0.81057 0.0
C1385 C 0.72987 0.09611 0.87577 0.0
H1386 H 0.67802 0.04026 0.83222 0.0
C1387 C 0.75932 0.12446 0.86332 0.0
C1388 C 0.7609 0.12102 0.83971 0.0
H1389 H 0.73418 0.0947 0.89388 0.0
H1390 H 0.78534 0.14404 0.87224 0.0
C1391 C 0.72734 0.0945 0.8287 0.0
C1392 C 0.8139 0.62161 0.86433 0.0
C1393 C 0.8112 0.61864 0.84072 0.0
H1394 H 0.83956 0.59066 0.89462 0.0
C1395 C 0.84331 0.59108 0.82939 0.0
H1396 H 0.78899 0.64202 0.87348 0.0
C1397 C 0.8718 0.56103 0.84154 0.0
C1398 C 0.86911 0.55883 0.86514 0.0
H1399 H 0.84141 0.58744 0.81126 0.0
H1400 H 0.8911 0.53524 0.83238 0.0
C1401 C 0.84298 0.59211 0.87648 0.0
C1402 C 0.70134 0.55913 0.11376 0.0
C1403 C 0.70375 0.55658 0.09015 0.0
H1404 H 0.73229 0.58568 0.14389 0.0
C1405 C 0.72987 0.58954 0.07866 0.0
H1406 H 0.68199 0.53361 0.12303 0.0
C1407 C 0.75933 0.61893 0.09065 0.0
C1408 C 0.76235 0.61619 0.11425 0.0
H1409 H 0.73301 0.58782 0.06051 0.0
H1410 H 0.78425 0.63902 0.08136 0.0
C1411 C 0.73018 0.58911 0.12575 0.0
C1412 C 0.72437 0.47804 0.3284 0.0
C1413 C 0.75726 0.45033 0.3392 0.0
H1414 H 0.67679 0.53374 0.33229 0.0
C1415 C 0.75567 0.44645 0.36278 0.0
H1416 H 0.72539 0.48239 0.3103 0.0
C1417 C 0.72724 0.47554 0.37545 0.0
C1418 C 0.70059 0.50923 0.36464 0.0
H1419 H 0.78121 0.42597 0.37155 0.0
H1420 H 0.73173 0.47649 0.39356 0.0
C1421 C 0.69649 0.50763 0.34106 0.0
C1422 C 0.84574 0.48018 0.62694 0.0
C1423 C 0.81288 0.4531 0.61575 0.0
H1424 H 0.89427 0.53515 0.62366 0.0
C1425 C 0.81523 0.44943 0.59217 0.0
H1426 H 0.84417 0.48429 0.64505 0.0
C1427 C 0.84453 0.47816 0.57986 0.0
C1428 C 0.87121 0.51136 0.59103 0.0
H1429 H 0.78977 0.42935 0.58312 0.0
H1430 H 0.84072 0.47936 0.56172 0.0
C1431 C 0.8745 0.50945 0.61464 0.0
C1432 C 0.23022 0.47999 0.12647 0.0
C1433 C 0.2625 0.45245 0.11524 0.0
H1434 H 0.18243 0.53576 0.12329 0.0
C1435 C 0.26003 0.44933 0.09164 0.0
H1436 H 0.23194 0.48372 0.1446 0.0
C1437 C 0.23106 0.47874 0.07938 0.0
C1438 C 0.20483 0.51207 0.09062 0.0
H1439 H 0.28508 0.42893 0.08257 0.0
H1440 H 0.23468 0.48012 0.06125 0.0
C1441 C 0.20183 0.50995 0.11422 0.0
C1442 C 0.37165 0.51263 0.84143 0.0
C1443 C 0.36938 0.51479 0.86505 0.0
H1444 H 0.34079 0.48627 0.81124 0.0
C1445 C 0.34343 0.48152 0.87645 0.0
H1446 H 0.3908 0.53841 0.83224 0.0
C1447 C 0.31416 0.45206 0.86437 0.0
C1448 C 0.3111 0.45502 0.84078 0.0
H1449 H 0.34035 0.48296 0.8946 0.0
H1450 H 0.28944 0.43163 0.8736 0.0
C1451 C 0.34298 0.4826 0.82936 0.0
C1452 C 0.37524 0.56507 0.61368 0.0
C1453 C 0.37084 0.56305 0.59012 0.0
H1454 H 0.34596 0.58979 0.64446 0.0
C1455 C 0.34324 0.59594 0.57929 0.0
H1456 H 0.3957 0.53956 0.62246 0.0
C1457 C 0.31413 0.62431 0.59195 0.0
C1458 C 0.31289 0.62059 0.61554 0.0
H1459 H 0.33856 0.59463 0.5612 0.0
H1460 H 0.28797 0.64401 0.58319 0.0
C1461 C 0.34664 0.59396 0.62634 0.0
C1462 C 0.22777 0.59438 0.37612 0.0
C1463 C 0.20058 0.56164 0.36494 0.0
H1464 H 0.28307 0.64258 0.37287 0.0
C1465 C 0.19699 0.56396 0.34134 0.0
H1466 H 0.23181 0.59287 0.39425 0.0
C1467 C 0.22598 0.59302 0.32904 0.0
C1468 C 0.25931 0.61953 0.34023 0.0
H1469 H 0.17678 0.53862 0.3323 0.0
H1470 H 0.22726 0.58913 0.31091 0.0
C1471 C 0.25727 0.62293 0.36382 0.0
C1472 C 0.22102 1.01086 0.249 0.0
C1473 C 0.22115 0.05956 0.24866 0.0
H1474 H 0.21904 0.94823 0.22999 0.0
C1475 C 0.22472 0.08195 0.22797 0.0
H1476 H 0.21876 0.99205 0.26467 0.0
C1477 C 0.22566 0.05641 0.20808 0.0
C1478 C 0.2223 1.00782 0.20836 0.0
H1479 H 0.22543 0.11912 0.22706 0.0
H1480 H 0.2271 0.07523 0.19238 0.0
C1481 C 0.22131 0.98534 0.2291 0.0
C1482 C 0.30993 0.97344 0.49851 0.0
C1483 C 0.26114 0.97256 0.498 0.0
H1484 H 0.37281 0.97185 0.47973 0.0
C1485 C 0.23876 0.97495 0.47719 0.0
H1486 H 0.32875 0.97217 0.51426 0.0
C1487 C 0.26444 0.97556 0.45738 0.0
C1488 C 0.31318 0.97306 0.45786 0.0
H1489 H 0.20152 0.97481 0.47614 0.0
H1490 H 0.24562 0.97597 0.44161 0.0
C1491 C 0.3356 0.97336 0.47869 0.0
C1492 C 0.35402 1.01161 0.70635 0.0
C1493 C 0.35149 0.06024 0.70667 0.0
H1494 H 0.357 0.94914 0.72539 0.0
C1495 C 0.34485 0.08246 0.72724 0.0
H1496 H 0.35883 0.99294 0.69076 0.0
C1497 C 0.34298 0.05688 0.74709 0.0
C1498 C 0.34856 1.00848 0.7469 0.0
H1499 H 0.34218 0.11955 0.7281 0.0
H1500 H 0.33903 0.0756 0.76273 0.0
C1501 C 0.35279 0.98609 0.72622 0.0
C1502 C 0.30976 0.0983 0.9569 0.0
C1503 C 0.26099 0.09738 0.95719 0.0
H1504 H 0.37247 0.10095 0.976 0.0
C1505 C 0.23864 0.09279 -0.02217 0.0
H1506 H 0.32853 0.10134 0.94126 0.0
C1507 C 0.26426 0.09176 -0.00226 0.0
C1508 C 0.31285 0.0961 -0.00247 0.0
H1509 H 0.20142 0.09141 -0.02132 0.0
H1510 H 0.24547 0.08956 0.0134 0.0
C1511 C 0.33534 0.09794 0.97683 0.0
C1512 C 0.84271 0.99164 0.72661 0.0
C1513 C 0.85228 1.01329 0.7062 0.0
H1514 H 0.83394 0.99926 0.76193 0.0
C1515 C 0.85719 0.06172 0.7059 0.0
H1516 H 0.83808 0.95475 0.7274 0.0
C1517 C 0.85533 0.08751 0.72569 0.0
C1518 C 0.84817 0.06558 0.74627 0.0
H1519 H 0.86436 0.07993 0.69042 0.0
H1520 H 0.8615 0.12418 0.72494 0.0
C1521 C 0.84023 1.01753 0.74638 0.0
C1522 C 0.81007 0.09921 0.49824 0.0
C1523 C 0.76129 0.10043 0.49788 0.0
H1524 H 0.87271 0.10027 0.47928 0.0
C1525 C 0.73862 0.09847 0.47713 0.0
H1526 H 0.82909 0.10019 0.51394 0.0
C1527 C 0.76403 0.09777 0.45724 0.0
C1528 C 0.81279 0.09971 0.45758 0.0
H1529 H 0.70137 0.09891 0.4762 0.0
H1530 H 0.74502 0.09762 0.44153 0.0
C1531 C 0.83547 0.09916 0.47834 0.0
C1532 C 0.72209 0.05747 0.24862 0.0
C1533 C 0.7219 1.00876 0.24828 0.0
H1534 H 0.72032 0.12004 0.22962 0.0
C1535 C 0.72509 0.98627 0.22757 0.0
H1536 H 0.72016 0.07636 0.2643 0.0
C1537 C 0.72596 1.01174 0.20768 0.0
C1538 C 0.72293 0.06036 0.20797 0.0
H1539 H 0.72553 0.94909 0.22666 0.0
H1540 H 0.72709 0.99284 0.19198 0.0
C1541 C 0.72232 0.08291 0.22872 0.0
C1542 C 0.83552 0.9748 0.97679 0.0
C1543 C 0.81302 0.97369 -0.0025 0.0
H1544 H 0.82872 0.9752 0.94118 0.0
C1545 C 0.76431 0.97652 -0.00219 0.0
H1546 H 0.87272 0.97314 0.9759 0.0
C1547 C 0.73869 0.97695 -0.02211 0.0
C1548 C 0.76112 0.97527 0.95717 0.0
H1549 H 0.74545 0.97641 0.01349 0.0
H1550 H 0.70145 0.97697 -0.02122 0.0
C1551 C 0.8099 0.97592 0.95687 0.0
C1552 C 0.72304 0.51402 0.7487 0.0
C1553 C 0.72323 0.56272 0.74835 0.0
H1554 H 0.72097 0.45136 0.7297 0.0
C1555 C 0.72681 0.58508 0.72765 0.0
H1556 H 0.72081 0.49522 0.76437 0.0
C1557 C 0.72766 0.55951 0.70776 0.0
C1558 C 0.72423 0.51092 0.70805 0.0
H1559 H 0.7275 0.62225 0.72673 0.0
H1560 H 0.72906 0.57832 0.69207 0.0
C1561 C 0.72324 0.48847 0.7288 0.0
C1562 C 0.76451 0.47484 0.95744 0.0
C1563 C 0.81322 0.47166 0.95789 0.0
H1564 H 0.70157 0.47402 0.97619 0.0
C1565 C 0.83562 0.47058 -0.02128 0.0
H1566 H 0.74572 0.47635 0.94168 0.0
C1567 C 0.80993 0.46995 -0.00147 0.0
C1568 C 0.76113 0.46979 -0.00199 0.0
H1569 H 0.8728 0.46847 -0.02026 0.0
H1570 H 0.82871 0.46762 0.01426 0.0
C1571 C 0.7388 0.47354 0.97724 0.0
C1572 C 0.83686 0.55313 0.24582 0.0
C1573 C 0.84499 0.50508 0.24574 0.0
H1574 H 0.83514 0.6159 0.22693 0.0
C1575 C 0.85258 0.48313 0.22517 0.0
H1576 H 0.83018 0.57144 0.26134 0.0
C1577 C 0.8548 0.50892 0.20541 0.0
C1578 C 0.84993 0.55738 0.20574 0.0
H1579 H 0.85885 0.44646 0.22443 0.0
H1580 H 0.86233 0.49072 0.18995 0.0
C1581 C 0.83977 0.579 0.22611 0.0
C1582 C 0.73767 0.59582 0.4786 0.0
C1583 C 0.76008 0.59594 0.45785 0.0
H1584 H 0.74456 0.59739 0.5142 0.0
C1585 C 0.80882 0.59361 0.45755 0.0
H1586 H 0.70046 0.59723 0.4795 0.0
C1587 C 0.83451 0.59447 0.47746 0.0
C1588 C 0.81213 0.59695 0.49818 0.0
H1589 H 0.82761 0.59311 0.44185 0.0
H1590 H 0.87174 0.59469 0.47655 0.0
C1591 C 0.76335 0.59599 0.49851 0.0
C1592 C 0.34896 0.58317 0.22722 0.0
C1593 C 0.3486 0.5608 0.24799 0.0
H1594 H 0.35101 0.5763 0.19164 0.0
C1595 C 0.34599 0.51216 0.24834 0.0
H1596 H 0.35058 0.62031 0.22628 0.0
C1597 C 0.34699 0.48652 0.22848 0.0
C1598 C 0.34995 0.50884 0.20774 0.0
H1599 H 0.34509 0.49339 0.26406 0.0
H1600 H 0.34694 0.44935 0.22944 0.0
C1601 C 0.34931 0.55754 0.20734 0.0
C1602 C 0.26561 0.59684 0.95752 0.0
C1603 C 0.31431 0.60015 0.95796 0.0
H1604 H 0.20276 0.59648 0.97633 0.0
C1605 C 0.33681 0.6001 -0.02123 0.0
H1606 H 0.24675 0.59613 0.94177 0.0
C1607 C 0.31121 0.59954 -0.00139 0.0
C1608 C 0.26241 0.59963 -0.00185 0.0
H1609 H 0.37399 0.60222 -0.02022 0.0
H1610 H 0.33006 0.60106 0.01435 0.0
C1611 C 0.24 0.59695 0.97735 0.0
C1612 C 0.23001 0.51487 0.70832 0.0
C1613 C 0.22494 0.56333 0.7086 0.0
H1614 H 0.23066 0.45208 0.7272 0.0
C1615 C 0.22175 0.58566 0.72935 0.0
H1616 H 0.2332 0.49618 0.69263 0.0
C1617 C 0.22097 0.56004 0.7492 0.0
C1618 C 0.22281 0.51136 0.7488 0.0
H1619 H 0.21808 0.62266 0.73026 0.0
H1620 H 0.21696 0.57869 0.76485 0.0
C1621 C 0.22857 0.4892 0.72814 0.0
C1622 C 0.30924 0.47271 0.4568 0.0
C1623 C 0.26047 0.47309 0.45707 0.0
H1624 H 0.37194 0.47054 0.47593 0.0
C1625 C 0.23801 0.47664 0.47773 0.0
H1626 H 0.32805 0.47038 0.44114 0.0
C1627 C 0.26355 0.47745 0.49767 0.0
C1628 C 0.31221 0.474 0.49746 0.0
H1629 H 0.20077 0.47746 0.47858 0.0
H1630 H 0.24466 0.47891 0.51333 0.0
C1631 C 0.33476 0.47288 0.47675 0.0
loop_
_geom_bond_atom_site_label_1
_geom_bond_atom_site_label_2
_geom_bond_distance
_geom_bond_site_symmetry_2
_ccdc_geom_bond_type
O0 Mn1 2.163 . S
O0 C14 1.244 . S
Mn1 O0 2.163 . S
Mn1 O4 2.160 . S
Mn1 O5 2.221 . S
Mn1 O7 2.163 . S
Mn1 O9 2.160 . S
Mn1 O19 2.221 . S
O2 Mn3 2.087 . S
O2 C14 1.256 . S
Mn3 O2 2.087 . S
Mn3 O10 2.089 . S
Mn3 O19 2.290 . S
Mn3 O20 2.251 . S
O4 Mn1 2.160 . S
O4 C15 1.239 . S
O5 Mn1 2.221 . S
O5 Mn6 2.290 . S
O5 C16 1.278 . S
Mn6 O5 2.290 . S
Mn6 O8 2.089 . S
Mn6 O11 2.251 . S
Mn6 O12 2.087 . S
O7 Mn1 2.163 . S
O7 C17 1.244 . S
O8 Mn6 2.089 . S
O8 C15 1.256 . S
O9 Mn1 2.160 . S
O9 C18 1.239 . S
O10 Mn3 2.089 . S
O10 C18 1.256 . S
O11 Mn6 2.251 . S
O11 C16 1.241 . S
O12 Mn6 2.087 . S
O12 C17 1.256 . S
C13 O19 1.278 . S
C13 O20 1.241 . S
C14 O0 1.244 . S
C14 O2 1.256 . S
C15 O4 1.239 . S
C15 O8 1.256 . S
C16 O5 1.278 . S
C16 O11 1.241 . S
C17 O7 1.244 . S
C17 O12 1.256 . S
C18 O9 1.239 . S
C18 O10 1.256 . S
O19 Mn1 2.221 . S
O19 Mn3 2.290 . S
O19 C13 1.278 . S
O20 Mn3 2.251 . S
O20 C13 1.241 . S
O21 Mn22 2.163 . S
O21 C35 1.244 . S
Mn22 O21 2.163 . S
Mn22 O25 2.160 . S
Mn22 O26 2.221 . S
Mn22 O28 2.163 . S
Mn22 O30 2.160 . S
Mn22 O40 2.221 . S
O23 Mn24 2.087 1_455 S
O23 C35 1.256 . S
Mn24 O23 2.087 1_655 S
Mn24 O31 2.089 . S
Mn24 O40 2.290 1_655 S
Mn24 O41 2.251 1_655 S
O25 Mn22 2.160 . S
O25 C36 1.239 . S
O26 Mn22 2.221 . S
O26 Mn27 2.290 . S
O26 C37 1.278 . S
Mn27 O26 2.290 . S
Mn27 O29 2.089 . S
Mn27 O32 2.251 . S
Mn27 O33 2.087 . S
O28 Mn22 2.163 . S
O28 C38 1.244 . S
O29 Mn27 2.089 . S
O29 C36 1.256 . S
O30 Mn22 2.160 . S
O30 C39 1.239 . S
O31 Mn24 2.089 . S
O31 C39 1.256 1_655 S
O32 Mn27 2.251 . S
O32 C37 1.241 . S
O33 Mn27 2.087 . S
O33 C38 1.256 . S
C34 O40 1.278 . S
C34 O41 1.241 . S
C35 O21 1.244 . S
C35 O23 1.256 . S
C36 O25 1.239 . S
C36 O29 1.256 . S
C37 O26 1.278 . S
C37 O32 1.241 . S
C38 O28 1.244 . S
C38 O33 1.256 . S
C39 O30 1.239 . S
C39 O31 1.256 1_455 S
O40 Mn22 2.221 . S
O40 Mn24 2.290 1_455 S
O40 C34 1.278 . S
O41 Mn24 2.251 1_455 S
O41 C34 1.241 . S
O42 Mn43 2.163 . S
O42 C56 1.244 . S
Mn43 O42 2.163 . S
Mn43 O46 2.160 . S
Mn43 O47 2.221 . S
Mn43 O49 2.163 . S
Mn43 O51 2.160 . S
Mn43 O61 2.221 . S
O44 Mn45 2.087 . S
O44 C56 1.256 . S
Mn45 O44 2.087 . S
Mn45 O52 2.089 . S
Mn45 O61 2.290 . S
Mn45 O62 2.251 . S
O46 Mn43 2.160 . S
O46 C57 1.239 . S
O47 Mn43 2.221 . S
O47 Mn48 2.290 . S
O47 C58 1.278 . S
Mn48 O47 2.290 . S
Mn48 O50 2.089 . S
Mn48 O53 2.251 . S
Mn48 O54 2.087 . S
O49 Mn43 2.163 . S
O49 C59 1.244 . S
O50 Mn48 2.089 . S
O50 C57 1.256 . S
O51 Mn43 2.160 . S
O51 C60 1.239 . S
O52 Mn45 2.089 . S
O52 C60 1.256 . S
O53 Mn48 2.251 . S
O53 C58 1.241 . S
O54 Mn48 2.087 . S
O54 C59 1.256 . S
C55 O61 1.278 . S
C55 O62 1.241 . S
C56 O42 1.244 . S
C56 O44 1.256 . S
C57 O46 1.239 . S
C57 O50 1.256 . S
C58 O47 1.278 . S
C58 O53 1.241 . S
C59 O49 1.244 . S
C59 O54 1.256 . S
C60 O51 1.239 . S
C60 O52 1.256 . S
O61 Mn43 2.221 . S
O61 Mn45 2.290 . S
O61 C55 1.278 . S
O62 Mn45 2.251 . S
O62 C55 1.241 . S
O63 Mn64 2.163 . S
O63 C77 1.244 . S
Mn64 O63 2.163 . S
Mn64 O67 2.160 . S
Mn64 O68 2.221 . S
Mn64 O70 2.163 . S
Mn64 O72 2.160 . S
Mn64 O82 2.221 . S
O65 Mn66 2.087 . S
O65 C77 1.256 . S
Mn66 O65 2.087 . S
Mn66 O73 2.089 . S
Mn66 O82 2.290 . S
Mn66 O83 2.251 . S
O67 Mn64 2.160 . S
O67 C78 1.239 . S
O68 Mn64 2.221 . S
O68 Mn69 2.290 . S
O68 C79 1.278 . S
Mn69 O68 2.290 . S
Mn69 O71 2.089 . S
Mn69 O74 2.251 . S
Mn69 O75 2.087 . S
O70 Mn64 2.163 . S
O70 C80 1.244 . S
O71 Mn69 2.089 . S
O71 C78 1.256 . S
O72 Mn64 2.160 . S
O72 C81 1.239 . S
O73 Mn66 2.089 . S
O73 C81 1.256 . S
O74 Mn69 2.251 . S
O74 C79 1.241 . S
O75 Mn69 2.087 . S
O75 C80 1.256 . S
C76 O82 1.278 . S
C76 O83 1.241 . S
C77 O63 1.244 . S
C77 O65 1.256 . S
C78 O67 1.239 . S
C78 O71 1.256 . S
C79 O68 1.278 . S
C79 O74 1.241 . S
C80 O70 1.244 . S
C80 O75 1.256 . S
C81 O72 1.239 . S
C81 O73 1.256 . S
O82 Mn64 2.221 . S
O82 Mn66 2.290 . S
O82 C76 1.278 . S
O83 Mn66 2.251 . S
O83 C76 1.241 . S
O84 Mn85 2.163 . S
O84 C98 1.244 . S
Mn85 O84 2.163 . S
Mn85 O88 2.160 . S
Mn85 O89 2.221 . S
Mn85 O91 2.163 . S
Mn85 O93 2.160 . S
Mn85 O103 2.221 . S
O86 Mn87 2.087 . S
O86 C98 1.256 . S
Mn87 O86 2.087 . S
Mn87 O94 2.089 . S
Mn87 O103 2.290 . S
Mn87 O104 2.251 . S
O88 Mn85 2.160 . S
O88 C99 1.239 . S
O89 Mn85 2.221 . S
O89 Mn90 2.290 . S
O89 C100 1.278 . S
Mn90 O89 2.290 . S
Mn90 O92 2.089 . S
Mn90 O95 2.251 . S
Mn90 O96 2.087 . S
O91 Mn85 2.163 . S
O91 C101 1.244 . S
O92 Mn90 2.089 . S
O92 C99 1.256 . S
O93 Mn85 2.160 . S
O93 C102 1.239 . S
O94 Mn87 2.089 . S
O94 C102 1.256 . S
O95 Mn90 2.251 . S
O95 C100 1.241 . S
O96 Mn90 2.087 . S
O96 C101 1.256 . S
C97 O103 1.278 . S
C97 O104 1.241 . S
C98 O84 1.244 . S
C98 O86 1.256 . S
C99 O88 1.239 . S
C99 O92 1.256 . S
C100 O89 1.278 . S
C100 O95 1.241 . S
C101 O91 1.244 . S
C101 O96 1.256 . S
C102 O93 1.239 . S
C102 O94 1.256 . S
O103 Mn85 2.221 . S
O103 Mn87 2.290 . S
O103 C97 1.278 . S
O104 Mn87 2.251 . S
O104 C97 1.241 . S
O105 Mn106 2.163 . S
O105 C119 1.244 . S
Mn106 O105 2.163 . S
Mn106 O109 2.160 . S
Mn106 O110 2.221 . S
Mn106 O112 2.163 . S
Mn106 O114 2.160 . S
Mn106 O124 2.221 . S
O107 Mn108 2.087 . S
O107 C119 1.256 . S
Mn108 O107 2.087 . S
Mn108 O115 2.089 . S
Mn108 O124 2.290 . S
Mn108 O125 2.251 . S
O109 Mn106 2.160 . S
O109 C120 1.239 . S
O110 Mn106 2.221 . S
O110 Mn111 2.290 . S
O110 C121 1.278 . S
Mn111 O110 2.290 . S
Mn111 O113 2.089 . S
Mn111 O116 2.251 . S
Mn111 O117 2.087 . S
O112 Mn106 2.163 . S
O112 C122 1.244 . S
O113 Mn111 2.089 . S
O113 C120 1.256 . S
O114 Mn106 2.160 . S
O114 C123 1.239 . S
O115 Mn108 2.089 . S
O115 C123 1.256 . S
O116 Mn111 2.251 . S
O116 C121 1.241 . S
O117 Mn111 2.087 . S
O117 C122 1.256 . S
C118 O124 1.278 . S
C118 O125 1.241 . S
C119 O105 1.244 . S
C119 O107 1.256 . S
C120 O109 1.239 . S
C120 O113 1.256 . S
C121 O110 1.278 . S
C121 O116 1.241 . S
C122 O112 1.244 . S
C122 O117 1.256 . S
C123 O114 1.239 . S
C123 O115 1.256 . S
O124 Mn106 2.221 . S
O124 Mn108 2.290 . S
O124 C118 1.278 . S
O125 Mn108 2.251 . S
O125 C118 1.241 . S
O126 Mn127 2.163 . S
O126 C140 1.244 . S
Mn127 O126 2.163 . S
Mn127 O130 2.160 . S
Mn127 O131 2.221 . S
Mn127 O133 2.163 . S
Mn127 O135 2.160 . S
Mn127 O145 2.221 . S
O128 Mn129 2.087 . S
O128 C140 1.256 . S
Mn129 O128 2.087 . S
Mn129 O136 2.089 . S
Mn129 O145 2.290 . S
Mn129 O146 2.251 . S
O130 Mn127 2.160 . S
O130 C141 1.239 . S
O131 Mn127 2.221 . S
O131 Mn132 2.290 . S
O131 C142 1.278 . S
Mn132 O131 2.290 . S
Mn132 O134 2.089 . S
Mn132 O137 2.251 . S
Mn132 O138 2.087 . S
O133 Mn127 2.163 . S
O133 C143 1.244 . S
O134 Mn132 2.089 . S
O134 C141 1.256 . S
O135 Mn127 2.160 . S
O135 C144 1.239 . S
O136 Mn129 2.089 . S
O136 C144 1.256 . S
O137 Mn132 2.251 . S
O137 C142 1.241 . S
O138 Mn132 2.087 . S
O138 C143 1.256 . S
C139 O145 1.278 . S
C139 O146 1.241 . S
C140 O126 1.244 . S
C140 O128 1.256 . S
C141 O130 1.239 . S
C141 O134 1.256 . S
C142 O131 1.278 . S
C142 O137 1.241 . S
C143 O133 1.244 . S
C143 O138 1.256 . S
C144 O135 1.239 . S
C144 O136 1.256 . S
O145 Mn127 2.221 . S
O145 Mn129 2.290 . S
O145 C139 1.278 . S
O146 Mn129 2.251 . S
O146 C139 1.241 . S
O147 Mn148 2.163 . S
O147 C161 1.244 . S
Mn148 O147 2.163 . S
Mn148 O151 2.160 . S
Mn148 O152 2.221 . S
Mn148 O154 2.163 . S
Mn148 O156 2.160 . S
Mn148 O166 2.221 . S
O149 Mn150 2.087 1_455 S
O149 C161 1.256 . S
Mn150 O149 2.087 1_655 S
Mn150 O157 2.089 . S
Mn150 O166 2.290 1_655 S
Mn150 O167 2.251 1_655 S
O151 Mn148 2.160 . S
O151 C162 1.239 . S
O152 Mn148 2.221 . S
O152 Mn153 2.290 . S
O152 C163 1.278 . S
Mn153 O152 2.290 . S
Mn153 O155 2.089 . S
Mn153 O158 2.251 . S
Mn153 O159 2.087 . S
O154 Mn148 2.163 . S
O154 C164 1.244 . S
O155 Mn153 2.089 . S
O155 C162 1.256 . S
O156 Mn148 2.160 . S
O156 C165 1.239 . S
O157 Mn150 2.089 . S
O157 C165 1.256 1_655 S
O158 Mn153 2.251 . S
O158 C163 1.241 . S
O159 Mn153 2.087 . S
O159 C164 1.256 . S
C160 O166 1.278 . S
C160 O167 1.241 . S
C161 O147 1.244 . S
C161 O149 1.256 . S
C162 O151 1.239 . S
C162 O155 1.256 . S
C163 O152 1.278 . S
C163 O158 1.241 . S
C164 O154 1.244 . S
C164 O159 1.256 . S
C165 O156 1.239 . S
C165 O157 1.256 1_455 S
O166 Mn148 2.221 . S
O166 Mn150 2.290 1_455 S
O166 C160 1.278 . S
O167 Mn150 2.251 1_455 S
O167 C160 1.241 . S
O168 Mn169 2.163 . S
O168 C182 1.244 . S
Mn169 O168 2.163 . S
Mn169 O172 2.160 . S
Mn169 O173 2.221 . S
Mn169 O175 2.163 . S
Mn169 O177 2.160 . S
Mn169 O187 2.221 . S
O170 Mn171 2.087 . S
O170 C182 1.256 . S
Mn171 O170 2.087 . S
Mn171 O178 2.089 . S
Mn171 O187 2.290 . S
Mn171 O188 2.251 . S
O172 Mn169 2.160 . S
O172 C183 1.239 . S
O173 Mn169 2.221 . S
O173 Mn174 2.290 . S
O173 C184 1.278 . S
Mn174 O173 2.290 . S
Mn174 O176 2.089 . S
Mn174 O179 2.251 . S
Mn174 O180 2.087 . S
O175 Mn169 2.163 . S
O175 C185 1.244 . S
O176 Mn174 2.089 . S
O176 C183 1.256 . S
O177 Mn169 2.160 . S
O177 C186 1.239 . S
O178 Mn171 2.089 . S
O178 C186 1.256 . S
O179 Mn174 2.251 . S
O179 C184 1.241 . S
O180 Mn174 2.087 . S
O180 C185 1.256 . S
C181 O187 1.278 . S
C181 O188 1.241 . S
C182 O168 1.244 . S
C182 O170 1.256 . S
C183 O172 1.239 . S
C183 O176 1.256 . S
C184 O173 1.278 . S
C184 O179 1.241 . S
C185 O175 1.244 . S
C185 O180 1.256 . S
C186 O177 1.239 . S
C186 O178 1.256 . S
O187 Mn169 2.221 . S
O187 Mn171 2.290 . S
O187 C181 1.278 . S
O188 Mn171 2.251 . S
O188 C181 1.241 . S
O189 Mn190 2.163 . S
O189 C203 1.244 . S
Mn190 O189 2.163 . S
Mn190 O193 2.160 . S
Mn190 O194 2.221 . S
Mn190 O196 2.163 . S
Mn190 O198 2.160 . S
Mn190 O208 2.221 . S
O191 Mn192 2.087 1_655 S
O191 C203 1.256 . S
Mn192 O191 2.087 1_455 S
Mn192 O199 2.089 . S
Mn192 O208 2.290 1_455 S
Mn192 O209 2.251 1_455 S
O193 Mn190 2.160 . S
O193 C204 1.239 . S
O194 Mn190 2.221 . S
O194 Mn195 2.290 . S
O194 C205 1.278 . S
Mn195 O194 2.290 . S
Mn195 O197 2.089 . S
Mn195 O200 2.251 . S
Mn195 O201 2.087 . S
O196 Mn190 2.163 . S
O196 C206 1.244 . S
O197 Mn195 2.089 . S
O197 C204 1.256 . S
O198 Mn190 2.160 . S
O198 C207 1.239 . S
O199 Mn192 2.089 . S
O199 C207 1.256 1_455 S
O200 Mn195 2.251 . S
O200 C205 1.241 . S
O201 Mn195 2.087 . S
O201 C206 1.256 . S
C202 O208 1.278 . S
C202 O209 1.241 . S
C203 O189 1.244 . S
C203 O191 1.256 . S
C204 O193 1.239 . S
C204 O197 1.256 . S
C205 O194 1.278 . S
C205 O200 1.241 . S
C206 O196 1.244 . S
C206 O201 1.256 . S
C207 O198 1.239 . S
C207 O199 1.256 1_655 S
O208 Mn190 2.221 . S
O208 Mn192 2.290 1_655 S
O208 C202 1.278 . S
O209 Mn192 2.251 1_655 S
O209 C202 1.241 . S
O210 Mn211 2.163 . S
O210 C224 1.244 . S
Mn211 O210 2.163 . S
Mn211 O214 2.160 . S
Mn211 O215 2.221 . S
Mn211 O217 2.163 . S
Mn211 O219 2.160 . S
Mn211 O229 2.221 . S
O212 Mn213 2.087 . S
O212 C224 1.256 . S
Mn213 O212 2.087 . S
Mn213 O220 2.089 . S
Mn213 O229 2.290 . S
Mn213 O230 2.251 . S
O214 Mn211 2.160 . S
O214 C225 1.239 . S
O215 Mn211 2.221 . S
O215 Mn216 2.290 . S
O215 C226 1.278 . S
Mn216 O215 2.290 . S
Mn216 O218 2.089 . S
Mn216 O221 2.251 . S
Mn216 O222 2.087 . S
O217 Mn211 2.163 . S
O217 C227 1.244 . S
O218 Mn216 2.089 . S
O218 C225 1.256 . S
O219 Mn211 2.160 . S
O219 C228 1.239 . S
O220 Mn213 2.089 . S
O220 C228 1.256 . S
O221 Mn216 2.251 . S
O221 C226 1.241 . S
O222 Mn216 2.087 . S
O222 C227 1.256 . S
C223 O229 1.278 . S
C223 O230 1.241 . S
C224 O210 1.244 . S
C224 O212 1.256 . S
C225 O214 1.239 . S
C225 O218 1.256 . S
C226 O215 1.278 . S
C226 O221 1.241 . S
C227 O217 1.244 . S
C227 O222 1.256 . S
C228 O219 1.239 . S
C228 O220 1.256 . S
O229 Mn211 2.221 . S
O229 Mn213 2.290 . S
O229 C223 1.278 . S
O230 Mn213 2.251 . S
O230 C223 1.241 . S
O231 Mn232 2.163 . S
O231 C245 1.244 . S
Mn232 O231 2.163 . S
Mn232 O235 2.160 . S
Mn232 O236 2.221 . S
Mn232 O238 2.163 . S
Mn232 O240 2.160 . S
Mn232 O250 2.221 . S
O233 Mn234 2.087 . S
O233 C245 1.256 . S
Mn234 O233 2.087 . S
Mn234 O241 2.089 . S
Mn234 O250 2.290 . S
Mn234 O251 2.251 . S
O235 Mn232 2.160 . S
O235 C246 1.239 . S
O236 Mn232 2.221 . S
O236 Mn237 2.290 . S
O236 C247 1.278 . S
Mn237 O236 2.290 . S
Mn237 O239 2.089 . S
Mn237 O242 2.251 . S
Mn237 O243 2.087 . S
O238 Mn232 2.163 . S
O238 C248 1.244 . S
O239 Mn237 2.089 . S
O239 C246 1.256 . S
O240 Mn232 2.160 . S
O240 C249 1.239 . S
O241 Mn234 2.089 . S
O241 C249 1.256 . S
O242 Mn237 2.251 . S
O242 C247 1.241 . S
O243 Mn237 2.087 . S
O243 C248 1.256 . S
C244 O250 1.278 . S
C244 O251 1.241 . S
C245 O231 1.244 . S
C245 O233 1.256 . S
C246 O235 1.239 . S
C246 O239 1.256 . S
C247 O236 1.278 . S
C247 O242 1.241 . S
C248 O238 1.244 . S
C248 O243 1.256 . S
C249 O240 1.239 . S
C249 O241 1.256 . S
O250 Mn232 2.221 . S
O250 Mn234 2.290 . S
O250 C244 1.278 . S
O251 Mn234 2.251 . S
O251 C244 1.241 . S
O252 Mn253 2.163 . S
O252 C266 1.244 . S
Mn253 O252 2.163 . S
Mn253 O256 2.160 . S
Mn253 O257 2.221 . S
Mn253 O259 2.163 . S
Mn253 O261 2.160 . S
Mn253 O271 2.221 . S
O254 Mn255 2.087 . S
O254 C266 1.256 . S
Mn255 O254 2.087 . S
Mn255 O262 2.089 . S
Mn255 O271 2.290 . S
Mn255 O272 2.251 . S
O256 Mn253 2.160 . S
O256 C267 1.239 . S
O257 Mn253 2.221 . S
O257 Mn258 2.290 . S
O257 C268 1.278 . S
Mn258 O257 2.290 . S
Mn258 O260 2.089 . S
Mn258 O263 2.251 . S
Mn258 O264 2.087 . S
O259 Mn253 2.163 . S
O259 C269 1.244 . S
O260 Mn258 2.089 . S
O260 C267 1.256 . S
O261 Mn253 2.160 . S
O261 C270 1.239 . S
O262 Mn255 2.089 . S
O262 C270 1.256 . S
O263 Mn258 2.251 . S
O263 C268 1.241 . S
O264 Mn258 2.087 . S
O264 C269 1.256 . S
C265 O271 1.278 . S
C265 O272 1.241 . S
C266 O252 1.244 . S
C266 O254 1.256 . S
C267 O256 1.239 . S
C267 O260 1.256 . S
C268 O257 1.278 . S
C268 O263 1.241 . S
C269 O259 1.244 . S
C269 O264 1.256 . S
C270 O261 1.239 . S
C270 O262 1.256 . S
O271 Mn253 2.221 . S
O271 Mn255 2.290 . S
O271 C265 1.278 . S
O272 Mn255 2.251 . S
O272 C265 1.241 . S
O273 Mn274 2.163 . S
O273 C287 1.244 . S
Mn274 O273 2.163 . S
Mn274 O277 2.160 . S
Mn274 O278 2.221 . S
Mn274 O280 2.163 . S
Mn274 O282 2.160 . S
Mn274 O292 2.221 . S
O275 Mn276 2.087 . S
O275 C287 1.256 . S
Mn276 O275 2.087 . S
Mn276 O283 2.089 . S
Mn276 O292 2.290 . S
Mn276 O293 2.251 . S
O277 Mn274 2.160 . S
O277 C288 1.239 . S
O278 Mn274 2.221 . S
O278 Mn279 2.290 . S
O278 C289 1.278 . S
Mn279 O278 2.290 . S
Mn279 O281 2.089 . S
Mn279 O284 2.251 . S
Mn279 O285 2.087 . S
O280 Mn274 2.163 . S
O280 C290 1.244 . S
O281 Mn279 2.089 . S
O281 C288 1.256 . S
O282 Mn274 2.160 . S
O282 C291 1.239 . S
O283 Mn276 2.089 . S
O283 C291 1.256 . S
O284 Mn279 2.251 . S
O284 C289 1.241 . S
O285 Mn279 2.087 . S
O285 C290 1.256 . S
C286 O292 1.278 . S
C286 O293 1.241 . S
C287 O273 1.244 . S
C287 O275 1.256 . S
C288 O277 1.239 . S
C288 O281 1.256 . S
C289 O278 1.278 . S
C289 O284 1.241 . S
C290 O280 1.244 . S
C290 O285 1.256 . S
C291 O282 1.239 . S
C291 O283 1.256 . S
O292 Mn274 2.221 . S
O292 Mn276 2.290 . S
O292 C286 1.278 . S
O293 Mn276 2.251 . S
O293 C286 1.241 . S
O294 Mn295 2.163 . S
O294 C308 1.244 . S
Mn295 O294 2.163 . S
Mn295 O298 2.160 . S
Mn295 O299 2.221 . S
Mn295 O301 2.163 . S
Mn295 O303 2.160 . S
Mn295 O313 2.221 . S
O296 Mn297 2.087 . S
O296 C308 1.256 . S
Mn297 O296 2.087 . S
Mn297 O304 2.089 . S
Mn297 O313 2.290 . S
Mn297 O314 2.251 . S
O298 Mn295 2.160 . S
O298 C309 1.239 . S
O299 Mn295 2.221 . S
O299 Mn300 2.290 . S
O299 C310 1.278 . S
Mn300 O299 2.290 . S
Mn300 O302 2.089 . S
Mn300 O305 2.251 . S
Mn300 O306 2.087 . S
O301 Mn295 2.163 . S
O301 C311 1.244 . S
O302 Mn300 2.089 . S
O302 C309 1.256 . S
O303 Mn295 2.160 . S
O303 C312 1.239 . S
O304 Mn297 2.089 . S
O304 C312 1.256 . S
O305 Mn300 2.251 . S
O305 C310 1.241 . S
O306 Mn300 2.087 . S
O306 C311 1.256 . S
C307 O313 1.278 . S
C307 O314 1.241 . S
C308 O294 1.244 . S
C308 O296 1.256 . S
C309 O298 1.239 . S
C309 O302 1.256 . S
C310 O299 1.278 . S
C310 O305 1.241 . S
C311 O301 1.244 . S
C311 O306 1.256 . S
C312 O303 1.239 . S
C312 O304 1.256 . S
O313 Mn295 2.221 . S
O313 Mn297 2.290 . S
O313 C307 1.278 . S
O314 Mn297 2.251 . S
O314 C307 1.241 . S
O315 Mn316 2.163 . S
O315 C329 1.244 . S
Mn316 O315 2.163 . S
Mn316 O319 2.160 . S
Mn316 O320 2.221 . S
Mn316 O322 2.163 . S
Mn316 O324 2.160 . S
Mn316 O334 2.221 . S
O317 Mn318 2.087 1_655 S
O317 C329 1.256 . S
Mn318 O317 2.087 1_455 S
Mn318 O325 2.089 . S
Mn318 O334 2.290 1_455 S
Mn318 O335 2.251 1_455 S
O319 Mn316 2.160 . S
O319 C330 1.239 . S
O320 Mn316 2.221 . S
O320 Mn321 2.290 . S
O320 C331 1.278 . S
Mn321 O320 2.290 . S
Mn321 O323 2.089 . S
Mn321 O326 2.251 . S
Mn321 O327 2.087 . S
O322 Mn316 2.163 . S
O322 C332 1.244 . S
O323 Mn321 2.089 . S
O323 C330 1.256 . S
O324 Mn316 2.160 . S
O324 C333 1.239 . S
O325 Mn318 2.089 . S
O325 C333 1.256 1_455 S
O326 Mn321 2.251 . S
O326 C331 1.241 . S
O327 Mn321 2.087 . S
O327 C332 1.256 . S
C328 O334 1.278 . S
C328 O335 1.241 . S
C329 O315 1.244 . S
C329 O317 1.256 . S
C330 O319 1.239 . S
C330 O323 1.256 . S
C331 O320 1.278 . S
C331 O326 1.241 . S
C332 O322 1.244 . S
C332 O327 1.256 . S
C333 O324 1.239 . S
C333 O325 1.256 1_655 S
O334 Mn316 2.221 . S
O334 Mn318 2.290 1_655 S
O334 C328 1.278 . S
O335 Mn318 2.251 1_655 S
O335 C328 1.241 . S
O336 Mn337 2.163 . S
O336 C350 1.244 . S
Mn337 O336 2.163 . S
Mn337 O340 2.160 . S
Mn337 O341 2.221 . S
Mn337 O343 2.163 . S
Mn337 O345 2.160 . S
Mn337 O355 2.221 . S
O338 Mn339 2.087 . S
O338 C350 1.256 . S
Mn339 O338 2.087 . S
Mn339 O346 2.089 . S
Mn339 O355 2.290 . S
Mn339 O356 2.251 . S
O340 Mn337 2.160 . S
O340 C351 1.239 . S
O341 Mn337 2.221 . S
O341 Mn342 2.290 . S
O341 C352 1.278 . S
Mn342 O341 2.290 . S
Mn342 O344 2.089 . S
Mn342 O347 2.251 . S
Mn342 O348 2.087 . S
O343 Mn337 2.163 . S
O343 C353 1.244 . S
O344 Mn342 2.089 . S
O344 C351 1.256 . S
O345 Mn337 2.160 . S
O345 C354 1.239 . S
O346 Mn339 2.089 . S
O346 C354 1.256 . S
O347 Mn342 2.251 . S
O347 C352 1.241 . S
O348 Mn342 2.087 . S
O348 C353 1.256 . S
C349 O355 1.278 . S
C349 O356 1.241 . S
C350 O336 1.244 . S
C350 O338 1.256 . S
C351 O340 1.239 . S
C351 O344 1.256 . S
C352 O341 1.278 . S
C352 O347 1.241 . S
C353 O343 1.244 . S
C353 O348 1.256 . S
C354 O345 1.239 . S
C354 O346 1.256 . S
O355 Mn337 2.221 . S
O355 Mn339 2.290 . S
O355 C349 1.278 . S
O356 Mn339 2.251 . S
O356 C349 1.241 . S
O357 Mn358 2.163 . S
O357 C371 1.244 . S
Mn358 O357 2.163 . S
Mn358 O361 2.160 . S
Mn358 O362 2.221 . S
Mn358 O364 2.163 . S
Mn358 O366 2.160 . S
Mn358 O376 2.221 . S
O359 Mn360 2.087 . S
O359 C371 1.256 . S
Mn360 O359 2.087 . S
Mn360 O367 2.089 . S
Mn360 O376 2.290 . S
Mn360 O377 2.251 . S
O361 Mn358 2.160 . S
O361 C372 1.239 . S
O362 Mn358 2.221 . S
O362 Mn363 2.290 . S
O362 C373 1.278 . S
Mn363 O362 2.290 . S
Mn363 O365 2.089 . S
Mn363 O368 2.251 . S
Mn363 O369 2.087 . S
O364 Mn358 2.163 . S
O364 C374 1.244 . S
O365 Mn363 2.089 . S
O365 C372 1.256 . S
O366 Mn358 2.160 . S
O366 C375 1.239 . S
O367 Mn360 2.089 . S
O367 C375 1.256 . S
O368 Mn363 2.251 . S
O368 C373 1.241 . S
O369 Mn363 2.087 . S
O369 C374 1.256 . S
C370 O376 1.278 . S
C370 O377 1.241 . S
C371 O357 1.244 . S
C371 O359 1.256 . S
C372 O361 1.239 . S
C372 O365 1.256 . S
C373 O362 1.278 . S
C373 O368 1.241 . S
C374 O364 1.244 . S
C374 O369 1.256 . S
C375 O366 1.239 . S
C375 O367 1.256 . S
O376 Mn358 2.221 . S
O376 Mn360 2.290 . S
O376 C370 1.278 . S
O377 Mn360 2.251 . S
O377 C370 1.241 . S
O378 Mn379 2.163 . S
O378 C392 1.244 . S
Mn379 O378 2.163 . S
Mn379 O382 2.160 . S
Mn379 O383 2.221 . S
Mn379 O385 2.163 . S
Mn379 O387 2.160 . S
Mn379 O397 2.221 . S
O380 Mn381 2.087 . S
O380 C392 1.256 . S
Mn381 O380 2.087 . S
Mn381 O388 2.089 . S
Mn381 O397 2.290 . S
Mn381 O398 2.251 . S
O382 Mn379 2.160 . S
O382 C393 1.239 . S
O383 Mn379 2.221 . S
O383 Mn384 2.290 . S
O383 C394 1.278 . S
Mn384 O383 2.290 . S
Mn384 O386 2.089 . S
Mn384 O389 2.251 . S
Mn384 O390 2.087 . S
O385 Mn379 2.163 . S
O385 C395 1.244 . S
O386 Mn384 2.089 . S
O386 C393 1.256 . S
O387 Mn379 2.160 . S
O387 C396 1.239 . S
O388 Mn381 2.089 . S
O388 C396 1.256 . S
O389 Mn384 2.251 . S
O389 C394 1.241 . S
O390 Mn384 2.087 . S
O390 C395 1.256 . S
C391 O397 1.278 . S
C391 O398 1.241 . S
C392 O378 1.244 . S
C392 O380 1.256 . S
C393 O382 1.239 . S
C393 O386 1.256 . S
C394 O383 1.278 . S
C394 O389 1.241 . S
C395 O385 1.244 . S
C395 O390 1.256 . S
C396 O387 1.239 . S
C396 O388 1.256 . S
O397 Mn379 2.221 . S
O397 Mn381 2.290 . S
O397 C391 1.278 . S
O398 Mn381 2.251 . S
O398 C391 1.241 . S
O399 Mn400 2.163 . S
O399 C413 1.244 . S
Mn400 O399 2.163 . S
Mn400 O403 2.160 . S
Mn400 O404 2.221 . S
Mn400 O406 2.163 . S
Mn400 O408 2.160 . S
Mn400 O418 2.221 . S
O401 Mn402 2.087 1_655 S
O401 C413 1.256 . S
Mn402 O401 2.087 1_455 S
Mn402 O409 2.089 . S
Mn402 O418 2.290 1_455 S
Mn402 O419 2.251 1_455 S
O403 Mn400 2.160 . S
O403 C414 1.239 . S
O404 Mn400 2.221 . S
O404 Mn405 2.290 . S
O404 C415 1.278 . S
Mn405 O404 2.290 . S
Mn405 O407 2.089 . S
Mn405 O410 2.251 . S
Mn405 O411 2.087 . S
O406 Mn400 2.163 . S
O406 C416 1.244 . S
O407 Mn405 2.089 . S
O407 C414 1.256 . S
O408 Mn400 2.160 . S
O408 C417 1.239 . S
O409 Mn402 2.089 . S
O409 C417 1.256 1_455 S
O410 Mn405 2.251 . S
O410 C415 1.241 . S
O411 Mn405 2.087 . S
O411 C416 1.256 . S
C412 O418 1.278 . S
C412 O419 1.241 . S
C413 O399 1.244 . S
C413 O401 1.256 . S
C414 O403 1.239 . S
C414 O407 1.256 . S
C415 O404 1.278 . S
C415 O410 1.241 . S
C416 O406 1.244 . S
C416 O411 1.256 . S
C417 O408 1.239 . S
C417 O409 1.256 1_655 S
O418 Mn400 2.221 . S
O418 Mn402 2.290 1_655 S
O418 C412 1.278 . S
O419 Mn402 2.251 1_655 S
O419 C412 1.241 . S
O420 Mn421 2.163 . S
O420 C434 1.244 . S
Mn421 O420 2.163 . S
Mn421 O424 2.160 . S
Mn421 O425 2.221 . S
Mn421 O427 2.163 . S
Mn421 O429 2.160 . S
Mn421 O439 2.221 . S
O422 Mn423 2.087 . S
O422 C434 1.256 . S
Mn423 O422 2.087 . S
Mn423 O430 2.089 . S
Mn423 O439 2.290 . S
Mn423 O440 2.251 . S
O424 Mn421 2.160 . S
O424 C435 1.239 . S
O425 Mn421 2.221 . S
O425 Mn426 2.290 . S
O425 C436 1.278 . S
Mn426 O425 2.290 . S
Mn426 O428 2.089 . S
Mn426 O431 2.251 . S
Mn426 O432 2.087 . S
O427 Mn421 2.163 . S
O427 C437 1.244 . S
O428 Mn426 2.089 . S
O428 C435 1.256 . S
O429 Mn421 2.160 . S
O429 C438 1.239 . S
O430 Mn423 2.089 . S
O430 C438 1.256 . S
O431 Mn426 2.251 . S
O431 C436 1.241 . S
O432 Mn426 2.087 . S
O432 C437 1.256 . S
C433 O439 1.278 . S
C433 O440 1.241 . S
C434 O420 1.244 . S
C434 O422 1.256 . S
C435 O424 1.239 . S
C435 O428 1.256 . S
C436 O425 1.278 . S
C436 O431 1.241 . S
C437 O427 1.244 . S
C437 O432 1.256 . S
C438 O429 1.239 . S
C438 O430 1.256 . S
O439 Mn421 2.221 . S
O439 Mn423 2.290 . S
O439 C433 1.278 . S
O440 Mn423 2.251 . S
O440 C433 1.241 . S
O441 Mn442 2.163 . S
O441 C455 1.244 . S
Mn442 O441 2.163 . S
Mn442 O445 2.160 . S
Mn442 O446 2.221 . S
Mn442 O448 2.163 . S
Mn442 O450 2.160 . S
Mn442 O460 2.221 . S
O443 Mn444 2.087 1_655 S
O443 C455 1.256 . S
Mn444 O443 2.087 1_455 S
Mn444 O451 2.089 . S
Mn444 O460 2.290 1_455 S
Mn444 O461 2.251 1_455 S
O445 Mn442 2.160 . S
O445 C456 1.239 . S
O446 Mn442 2.221 . S
O446 Mn447 2.290 . S
O446 C457 1.278 . S
Mn447 O446 2.290 . S
Mn447 O449 2.089 . S
Mn447 O452 2.251 . S
Mn447 O453 2.087 . S
O448 Mn442 2.163 . S
O448 C458 1.244 . S
O449 Mn447 2.089 . S
O449 C456 1.256 . S
O450 Mn442 2.160 . S
O450 C459 1.239 . S
O451 Mn444 2.089 . S
O451 C459 1.256 1_455 S
O452 Mn447 2.251 . S
O452 C457 1.241 . S
O453 Mn447 2.087 . S
O453 C458 1.256 . S
C454 O460 1.278 . S
C454 O461 1.241 . S
C455 O441 1.244 . S
C455 O443 1.256 . S
C456 O445 1.239 . S
C456 O449 1.256 . S
C457 O446 1.278 . S
C457 O452 1.241 . S
C458 O448 1.244 . S
C458 O453 1.256 . S
C459 O450 1.239 . S
C459 O451 1.256 1_655 S
O460 Mn442 2.221 . S
O460 Mn444 2.290 1_655 S
O460 C454 1.278 . S
O461 Mn444 2.251 1_655 S
O461 C454 1.241 . S
O462 Mn463 2.163 . S
O462 C476 1.244 . S
Mn463 O462 2.163 . S
Mn463 O466 2.160 . S
Mn463 O467 2.221 . S
Mn463 O469 2.163 . S
Mn463 O471 2.160 . S
Mn463 O481 2.221 . S
O464 Mn465 2.087 . S
O464 C476 1.256 . S
Mn465 O464 2.087 . S
Mn465 O472 2.089 . S
Mn465 O481 2.290 . S
Mn465 O482 2.251 . S
O466 Mn463 2.160 . S
O466 C477 1.239 . S
O467 Mn463 2.221 . S
O467 Mn468 2.290 . S
O467 C478 1.278 . S
Mn468 O467 2.290 . S
Mn468 O470 2.089 . S
Mn468 O473 2.251 . S
Mn468 O474 2.087 . S
O469 Mn463 2.163 . S
O469 C479 1.244 . S
O470 Mn468 2.089 . S
O470 C477 1.256 . S
O471 Mn463 2.160 . S
O471 C480 1.239 . S
O472 Mn465 2.089 . S
O472 C480 1.256 . S
O473 Mn468 2.251 . S
O473 C478 1.241 . S
O474 Mn468 2.087 . S
O474 C479 1.256 . S
C475 O481 1.278 . S
C475 O482 1.241 . S
C476 O462 1.244 . S
C476 O464 1.256 . S
C477 O466 1.239 . S
C477 O470 1.256 . S
C478 O467 1.278 . S
C478 O473 1.241 . S
C479 O469 1.244 . S
C479 O474 1.256 . S
C480 O471 1.239 . S
C480 O472 1.256 . S
O481 Mn463 2.221 . S
O481 Mn465 2.290 . S
O481 C475 1.278 . S
O482 Mn465 2.251 . S
O482 C475 1.241 . S
O483 Mn484 2.163 . S
O483 C497 1.244 . S
Mn484 O483 2.163 . S
Mn484 O487 2.160 . S
Mn484 O488 2.221 . S
Mn484 O490 2.163 . S
Mn484 O492 2.160 . S
Mn484 O502 2.221 . S
O485 Mn486 2.087 . S
O485 C497 1.256 . S
Mn486 O485 2.087 . S
Mn486 O493 2.089 . S
Mn486 O502 2.290 . S
Mn486 O503 2.251 . S
O487 Mn484 2.160 . S
O487 C498 1.239 . S
O488 Mn484 2.221 . S
O488 Mn489 2.290 . S
O488 C499 1.278 . S
Mn489 O488 2.290 . S
Mn489 O491 2.089 . S
Mn489 O494 2.251 . S
Mn489 O495 2.087 . S
O490 Mn484 2.163 . S
O490 C500 1.244 . S
O491 Mn489 2.089 . S
O491 C498 1.256 . S
O492 Mn484 2.160 . S
O492 C501 1.239 . S
O493 Mn486 2.089 . S
O493 C501 1.256 . S
O494 Mn489 2.251 . S
O494 C499 1.241 . S
O495 Mn489 2.087 . S
O495 C500 1.256 . S
C496 O502 1.278 . S
C496 O503 1.241 . S
C497 O483 1.244 . S
C497 O485 1.256 . S
C498 O487 1.239 . S
C498 O491 1.256 . S
C499 O488 1.278 . S
C499 O494 1.241 . S
C500 O490 1.244 . S
C500 O495 1.256 . S
C501 O492 1.239 . S
C501 O493 1.256 . S
O502 Mn484 2.221 . S
O502 Mn486 2.290 . S
O502 C496 1.278 . S
O503 Mn486 2.251 . S
O503 C496 1.241 . S
O504 Mn505 2.163 . S
O504 C518 1.244 . S
Mn505 O504 2.163 . S
Mn505 O508 2.160 . S
Mn505 O509 2.221 . S
Mn505 O511 2.163 . S
Mn505 O513 2.160 . S
Mn505 O523 2.221 . S
O506 Mn507 2.087 . S
O506 C518 1.256 . S
Mn507 O506 2.087 . S
Mn507 O514 2.089 . S
Mn507 O523 2.290 . S
Mn507 O524 2.251 . S
O508 Mn505 2.160 . S
O508 C519 1.239 . S
O509 Mn505 2.221 . S
O509 Mn510 2.290 . S
O509 C520 1.278 . S
Mn510 O509 2.290 . S
Mn510 O512 2.089 . S
Mn510 O515 2.251 . S
Mn510 O516 2.087 . S
O511 Mn505 2.163 . S
O511 C521 1.244 . S
O512 Mn510 2.089 . S
O512 C519 1.256 . S
O513 Mn505 2.160 . S
O513 C522 1.239 . S
O514 Mn507 2.089 . S
O514 C522 1.256 . S
O515 Mn510 2.251 . S
O515 C520 1.241 . S
O516 Mn510 2.087 . S
O516 C521 1.256 . S
C517 O523 1.278 . S
C517 O524 1.241 . S
C518 O504 1.244 . S
C518 O506 1.256 . S
C519 O508 1.239 . S
C519 O512 1.256 . S
C520 O509 1.278 . S
C520 O515 1.241 . S
C521 O511 1.244 . S
C521 O516 1.256 . S
C522 O513 1.239 . S
C522 O514 1.256 . S
O523 Mn505 2.221 . S
O523 Mn507 2.290 . S
O523 C517 1.278 . S
O524 Mn507 2.251 . S
O524 C517 1.241 . S
O525 Mn526 2.163 . S
O525 C539 1.244 . S
Mn526 O525 2.163 . S
Mn526 O529 2.160 . S
Mn526 O530 2.221 . S
Mn526 O532 2.163 . S
Mn526 O534 2.160 . S
Mn526 O544 2.221 . S
O527 Mn528 2.087 . S
O527 C539 1.256 . S
Mn528 O527 2.087 . S
Mn528 O535 2.089 . S
Mn528 O544 2.290 . S
Mn528 O545 2.251 . S
O529 Mn526 2.160 . S
O529 C540 1.239 . S
O530 Mn526 2.221 . S
O530 Mn531 2.290 . S
O530 C541 1.278 . S
Mn531 O530 2.290 . S
Mn531 O533 2.089 . S
Mn531 O536 2.251 . S
Mn531 O537 2.087 . S
O532 Mn526 2.163 . S
O532 C542 1.244 . S
O533 Mn531 2.089 . S
O533 C540 1.256 . S
O534 Mn526 2.160 . S
O534 C543 1.239 . S
O535 Mn528 2.089 . S
O535 C543 1.256 . S
O536 Mn531 2.251 . S
O536 C541 1.241 . S
O537 Mn531 2.087 . S
O537 C542 1.256 . S
C538 O544 1.278 . S
C538 O545 1.241 . S
C539 O525 1.244 . S
C539 O527 1.256 . S
C540 O529 1.239 . S
C540 O533 1.256 . S
C541 O530 1.278 . S
C541 O536 1.241 . S
C542 O532 1.244 . S
C542 O537 1.256 . S
C543 O534 1.239 . S
C543 O535 1.256 . S
O544 Mn526 2.221 . S
O544 Mn528 2.290 . S
O544 C538 1.278 . S
O545 Mn528 2.251 . S
O545 C538 1.241 . S
O546 Mn547 2.163 . S
O546 C560 1.244 . S
Mn547 O546 2.163 . S
Mn547 O550 2.160 . S
Mn547 O551 2.221 . S
Mn547 O553 2.163 . S
Mn547 O555 2.160 . S
Mn547 O565 2.221 . S
O548 Mn549 2.087 . S
O548 C560 1.256 . S
Mn549 O548 2.087 . S
Mn549 O556 2.089 . S
Mn549 O565 2.290 . S
Mn549 O566 2.251 . S
O550 Mn547 2.160 . S
O550 C561 1.239 . S
O551 Mn547 2.221 . S
O551 Mn552 2.290 . S
O551 C562 1.278 . S
Mn552 O551 2.290 . S
Mn552 O554 2.089 . S
Mn552 O557 2.251 . S
Mn552 O558 2.087 . S
O553 Mn547 2.163 . S
O553 C563 1.244 . S
O554 Mn552 2.089 . S
O554 C561 1.256 . S
O555 Mn547 2.160 . S
O555 C564 1.239 . S
O556 Mn549 2.089 . S
O556 C564 1.256 . S
O557 Mn552 2.251 . S
O557 C562 1.241 . S
O558 Mn552 2.087 . S
O558 C563 1.256 . S
C559 O565 1.278 . S
C559 O566 1.241 . S
C560 O546 1.244 . S
C560 O548 1.256 . S
C561 O550 1.239 . S
C561 O554 1.256 . S
C562 O551 1.278 . S
C562 O557 1.241 . S
C563 O553 1.244 . S
C563 O558 1.256 . S
C564 O555 1.239 . S
C564 O556 1.256 . S
O565 Mn547 2.221 . S
O565 Mn549 2.290 . S
O565 C559 1.278 . S
O566 Mn549 2.251 . S
O566 C559 1.241 . S
O567 Mn568 2.163 . S
O567 C581 1.244 . S
Mn568 O567 2.163 . S
Mn568 O571 2.160 . S
Mn568 O572 2.221 . S
Mn568 O574 2.163 . S
Mn568 O576 2.160 . S
Mn568 O586 2.221 . S
O569 Mn570 2.087 1_455 S
O569 C581 1.256 . S
Mn570 O569 2.087 1_655 S
Mn570 O577 2.089 . S
Mn570 O586 2.290 1_655 S
Mn570 O587 2.251 1_655 S
O571 Mn568 2.160 . S
O571 C582 1.239 . S
O572 Mn568 2.221 . S
O572 Mn573 2.290 . S
O572 C583 1.278 . S
Mn573 O572 2.290 . S
Mn573 O575 2.089 . S
Mn573 O578 2.251 . S
Mn573 O579 2.087 . S
O574 Mn568 2.163 . S
O574 C584 1.244 . S
O575 Mn573 2.089 . S
O575 C582 1.256 . S
O576 Mn568 2.160 . S
O576 C585 1.239 . S
O577 Mn570 2.089 . S
O577 C585 1.256 1_655 S
O578 Mn573 2.251 . S
O578 C583 1.241 . S
O579 Mn573 2.087 . S
O579 C584 1.256 . S
C580 O586 1.278 . S
C580 O587 1.241 . S
C581 O567 1.244 . S
C581 O569 1.256 . S
C582 O571 1.239 . S
C582 O575 1.256 . S
C583 O572 1.278 . S
C583 O578 1.241 . S
C584 O574 1.244 . S
C584 O579 1.256 . S
C585 O576 1.239 . S
C585 O577 1.256 1_455 S
O586 Mn568 2.221 . S
O586 Mn570 2.290 1_455 S
O586 C580 1.278 . S
O587 Mn570 2.251 1_455 S
O587 C580 1.241 . S
O588 Mn589 2.163 . S
O588 C602 1.244 . S
Mn589 O588 2.163 . S
Mn589 O592 2.160 . S
Mn589 O593 2.221 . S
Mn589 O595 2.163 . S
Mn589 O597 2.160 . S
Mn589 O607 2.221 . S
O590 Mn591 2.087 . S
O590 C602 1.256 . S
Mn591 O590 2.087 . S
Mn591 O598 2.089 . S
Mn591 O607 2.290 . S
Mn591 O608 2.251 . S
O592 Mn589 2.160 . S
O592 C603 1.239 . S
O593 Mn589 2.221 . S
O593 Mn594 2.290 . S
O593 C604 1.278 . S
Mn594 O593 2.290 . S
Mn594 O596 2.089 . S
Mn594 O599 2.251 . S
Mn594 O600 2.087 . S
O595 Mn589 2.163 . S
O595 C605 1.244 . S
O596 Mn594 2.089 . S
O596 C603 1.256 . S
O597 Mn589 2.160 . S
O597 C606 1.239 . S
O598 Mn591 2.089 . S
O598 C606 1.256 . S
O599 Mn594 2.251 . S
O599 C604 1.241 . S
O600 Mn594 2.087 . S
O600 C605 1.256 . S
C601 O607 1.278 . S
C601 O608 1.241 . S
C602 O588 1.244 . S
C602 O590 1.256 . S
C603 O592 1.239 . S
C603 O596 1.256 . S
C604 O593 1.278 . S
C604 O599 1.241 . S
C605 O595 1.244 . S
C605 O600 1.256 . S
C606 O597 1.239 . S
C606 O598 1.256 . S
O607 Mn589 2.221 . S
O607 Mn591 2.290 . S
O607 C601 1.278 . S
O608 Mn591 2.251 . S
O608 C601 1.241 . S
O609 Mn610 2.163 . S
O609 C623 1.244 . S
Mn610 O609 2.163 . S
Mn610 O613 2.160 . S
Mn610 O614 2.221 . S
Mn610 O616 2.163 . S
Mn610 O618 2.160 . S
Mn610 O628 2.221 . S
O611 Mn612 2.087 1_455 S
O611 C623 1.256 . S
Mn612 O611 2.087 1_655 S
Mn612 O619 2.089 . S
Mn612 O628 2.290 1_655 S
Mn612 O629 2.251 1_655 S
O613 Mn610 2.160 . S
O613 C624 1.239 . S
O614 Mn610 2.221 . S
O614 Mn615 2.290 . S
O614 C625 1.278 . S
Mn615 O614 2.290 . S
Mn615 O617 2.089 . S
Mn615 O620 2.251 . S
Mn615 O621 2.087 . S
O616 Mn610 2.163 . S
O616 C626 1.244 . S
O617 Mn615 2.089 . S
O617 C624 1.256 . S
O618 Mn610 2.160 . S
O618 C627 1.239 . S
O619 Mn612 2.089 . S
O619 C627 1.256 1_655 S
O620 Mn615 2.251 . S
O620 C625 1.241 . S
O621 Mn615 2.087 . S
O621 C626 1.256 . S
C622 O628 1.278 . S
C622 O629 1.241 . S
C623 O609 1.244 . S
C623 O611 1.256 . S
C624 O613 1.239 . S
C624 O617 1.256 . S
C625 O614 1.278 . S
C625 O620 1.241 . S
C626 O616 1.244 . S
C626 O621 1.256 . S
C627 O618 1.239 . S
C627 O619 1.256 1_455 S
O628 Mn610 2.221 . S
O628 Mn612 2.290 1_455 S
O628 C622 1.278 . S
O629 Mn612 2.251 1_455 S
O629 C622 1.241 . S
O630 Mn631 2.163 . S
O630 C644 1.244 . S
Mn631 O630 2.163 . S
Mn631 O634 2.160 . S
Mn631 O635 2.221 . S
Mn631 O637 2.163 . S
Mn631 O639 2.160 . S
Mn631 O649 2.221 . S
O632 Mn633 2.087 . S
O632 C644 1.256 . S
Mn633 O632 2.087 . S
Mn633 O640 2.089 . S
Mn633 O649 2.290 . S
Mn633 O650 2.251 . S
O634 Mn631 2.160 . S
O634 C645 1.239 . S
O635 Mn631 2.221 . S
O635 Mn636 2.290 . S
O635 C646 1.278 . S
Mn636 O635 2.290 . S
Mn636 O638 2.089 . S
Mn636 O641 2.251 . S
Mn636 O642 2.087 . S
O637 Mn631 2.163 . S
O637 C647 1.244 . S
O638 Mn636 2.089 . S
O638 C645 1.256 . S
O639 Mn631 2.160 . S
O639 C648 1.239 . S
O640 Mn633 2.089 . S
O640 C648 1.256 . S
O641 Mn636 2.251 . S
O641 C646 1.241 . S
O642 Mn636 2.087 . S
O642 C647 1.256 . S
C643 O649 1.278 . S
C643 O650 1.241 . S
C644 O630 1.244 . S
C644 O632 1.256 . S
C645 O634 1.239 . S
C645 O638 1.256 . S
C646 O635 1.278 . S
C646 O641 1.241 . S
C647 O637 1.244 . S
C647 O642 1.256 . S
C648 O639 1.239 . S
C648 O640 1.256 . S
O649 Mn631 2.221 . S
O649 Mn633 2.290 . S
O649 C643 1.278 . S
O650 Mn633 2.251 . S
O650 C643 1.241 . S
O651 Mn652 2.163 . S
O651 C665 1.244 . S
Mn652 O651 2.163 . S
Mn652 O655 2.160 . S
Mn652 O656 2.221 . S
Mn652 O658 2.163 . S
Mn652 O660 2.160 . S
Mn652 O670 2.221 . S
O653 Mn654 2.087 . S
O653 C665 1.256 . S
Mn654 O653 2.087 . S
Mn654 O661 2.089 . S
Mn654 O670 2.290 . S
Mn654 O671 2.251 . S
O655 Mn652 2.160 . S
O655 C666 1.239 . S
O656 Mn652 2.221 . S
O656 Mn657 2.290 . S
O656 C667 1.278 . S
Mn657 O656 2.290 . S
Mn657 O659 2.089 . S
Mn657 O662 2.251 . S
Mn657 O663 2.087 . S
O658 Mn652 2.163 . S
O658 C668 1.244 . S
O659 Mn657 2.089 . S
O659 C666 1.256 . S
O660 Mn652 2.160 . S
O660 C669 1.239 . S
O661 Mn654 2.089 . S
O661 C669 1.256 . S
O662 Mn657 2.251 . S
O662 C667 1.241 . S
O663 Mn657 2.087 . S
O663 C668 1.256 . S
C664 O670 1.278 . S
C664 O671 1.241 . S
C665 O651 1.244 . S
C665 O653 1.256 . S
C666 O655 1.239 . S
C666 O659 1.256 . S
C667 O656 1.278 . S
C667 O662 1.241 . S
C668 O658 1.244 . S
C668 O663 1.256 . S
C669 O660 1.239 . S
C669 O661 1.256 . S
O670 Mn652 2.221 . S
O670 Mn654 2.290 . S
O670 C664 1.278 . S
O671 Mn654 2.251 . S
O671 C664 1.241 . S
C672 C673 1.387 . S
C672 H676 0.950 . S
C672 C681 1.390 . S
C673 C672 1.387 . S
C673 C675 1.387 . S
H674 C681 0.950 . S
C675 C673 1.387 . S
C675 C677 1.390 . S
C675 H679 0.950 . S
H676 C672 0.950 . S
C677 C675 1.390 . S
C677 C678 1.387 . S
C677 H680 0.950 . S
C678 C677 1.387 . S
C678 C681 1.387 . S
H679 C675 0.950 . S
H680 C677 0.950 . S
C681 C672 1.390 . S
C681 H674 0.950 . S
C681 C678 1.387 . S
C682 C683 1.387 1_655 S
C682 H686 0.952 . S
C682 C691 1.390 . S
C683 C682 1.387 1_455 S
C683 C685 1.387 1_455 S
H684 C691 0.950 . S
C685 C683 1.387 1_655 S
C685 C687 1.390 . S
C685 H689 0.950 . S
H686 C682 0.952 . S
C687 C685 1.390 . S
C687 C688 1.387 . S
C687 H690 0.950 . S
C688 C687 1.387 . S
C688 C691 1.387 . S
H689 C685 0.950 . S
H690 C687 0.950 . S
C691 C682 1.390 . S
C691 H684 0.950 . S
C691 C688 1.387 . S
C692 C693 1.387 . S
C692 H696 0.950 . S
C692 C701 1.390 . S
C693 C692 1.387 . S
C693 C695 1.387 . S
H694 C701 0.950 . S
C695 C693 1.387 . S
C695 C697 1.390 . S
C695 H699 0.950 . S
H696 C692 0.950 . S
C697 C695 1.390 . S
C697 C698 1.387 . S
C697 H700 0.950 . S
C698 C697 1.387 . S
C698 C701 1.387 . S
H699 C695 0.950 . S
H700 C697 0.950 . S
C701 C692 1.390 . S
C701 H694 0.950 . S
C701 C698 1.387 . S
C702 C703 1.387 . S
C702 H706 0.950 . S
C702 C711 1.390 . S
C703 C702 1.387 . S
C703 C705 1.387 . S
H704 C711 0.950 . S
C705 C703 1.387 . S
C705 C707 1.390 . S
C705 H709 0.950 . S
H706 C702 0.950 . S
C707 C705 1.390 . S
C707 C708 1.387 . S
C707 H710 0.950 . S
C708 C707 1.387 . S
C708 C711 1.387 . S
H709 C705 0.950 . S
H710 C707 0.950 . S
C711 C702 1.390 . S
C711 H704 0.950 . S
C711 C708 1.387 . S
C712 C713 1.387 . S
C712 H716 0.950 . S
C712 C721 1.390 . S
C713 C712 1.387 . S
C713 C715 1.387 . S
H714 C721 0.950 . S
C715 C713 1.387 . S
C715 C717 1.390 . S
C715 H719 0.950 . S
H716 C712 0.950 . S
C717 C715 1.390 . S
C717 C718 1.387 . S
C717 H720 0.950 . S
C718 C717 1.387 . S
C718 C721 1.387 . S
H719 C715 0.950 . S
H720 C717 0.950 . S
C721 C712 1.390 . S
C721 H714 0.950 . S
C721 C718 1.387 . S
C722 C723 1.387 . S
C722 H726 0.950 . S
C722 C731 1.390 . S
C723 C722 1.387 . S
C723 C725 1.387 . S
H724 C731 0.950 . S
C725 C723 1.387 . S
C725 C727 1.390 . S
C725 H729 0.950 . S
H726 C722 0.950 . S
C727 C725 1.390 . S
C727 C728 1.387 . S
C727 H730 0.950 . S
C728 C727 1.387 . S
C728 C731 1.387 . S
H729 C725 0.950 . S
H730 C727 0.950 . S
C731 C722 1.390 . S
C731 H724 0.950 . S
C731 C728 1.387 . S
C732 C733 1.387 . S
C732 H736 0.950 . S
C732 C741 1.390 . S
C733 C732 1.387 . S
C733 C735 1.387 . S
H734 C741 0.950 . S
C735 C733 1.387 . S
C735 C737 1.390 . S
C735 H739 0.950 . S
H736 C732 0.950 . S
C737 C735 1.390 . S
C737 C738 1.387 . S
C737 H740 0.950 . S
C738 C737 1.387 . S
C738 C741 1.387 . S
H739 C735 0.950 . S
H740 C737 0.950 . S
C741 C732 1.390 . S
C741 H734 0.950 . S
C741 C738 1.387 . S
C742 C743 1.387 1_655 S
C742 H746 0.950 . S
C742 C751 1.390 . S
C743 C742 1.387 1_455 S
C743 C745 1.387 1_455 S
H744 C751 0.950 . S
C745 C743 1.387 1_655 S
C745 C747 1.390 . S
C745 H749 0.950 . S
H746 C742 0.950 . S
C747 C745 1.390 . S
C747 C748 1.387 . S
C747 H750 0.950 . S
C748 C747 1.387 . S
C748 C751 1.387 . S
H749 C745 0.950 . S
H750 C747 0.950 . S
C751 C742 1.390 . S
C751 H744 0.950 . S
C751 C748 1.387 . S
C752 C753 1.387 . S
C752 H756 0.950 . S
C752 C761 1.390 . S
C753 C752 1.387 . S
C753 C755 1.387 . S
H754 C761 0.950 . S
C755 C753 1.387 . S
C755 C757 1.390 . S
C755 H759 0.950 . S
H756 C752 0.950 . S
C757 C755 1.390 . S
C757 C758 1.387 . S
C757 H760 0.950 . S
C758 C757 1.387 . S
C758 C761 1.387 . S
H759 C755 0.950 . S
H760 C757 0.950 . S
C761 C752 1.390 . S
C761 H754 0.950 . S
C761 C758 1.387 . S
C762 C763 1.387 1_455 S
C762 H766 0.950 1_455 S
C762 C771 1.390 . S
C763 C762 1.387 1_655 S
C763 C765 1.387 1_655 S
H764 C771 0.950 . S
C765 C763 1.387 1_455 S
C765 C767 1.390 . S
C765 H769 0.950 . S
H766 C762 0.950 1_655 S
C767 C765 1.390 . S
C767 C768 1.387 . S
C767 H770 0.950 . S
C768 C767 1.387 . S
C768 C771 1.387 . S
H769 C765 0.950 . S
H770 C767 0.950 . S
C771 C762 1.390 . S
C771 H764 0.950 . S
C771 C768 1.387 . S
C772 C773 1.387 . S
C772 H776 0.950 . S
C772 C781 1.390 . S
C773 C772 1.387 . S
C773 C775 1.387 . S
H774 C781 0.950 . S
C775 C773 1.387 . S
C775 C777 1.390 . S
C775 H779 0.950 . S
H776 C772 0.950 . S
C777 C775 1.390 . S
C777 C778 1.387 . S
C777 H780 0.950 . S
C778 C777 1.387 . S
C778 C781 1.387 . S
H779 C775 0.950 . S
H780 C777 0.950 . S
C781 C772 1.390 . S
C781 H774 0.950 . S
C781 C778 1.387 . S
C782 C783 1.387 . S
C782 H786 0.950 . S
C782 C791 1.390 . S
C783 C782 1.387 . S
C783 C785 1.387 . S
H784 C791 0.950 . S
C785 C783 1.387 . S
C785 C787 1.390 . S
C785 H789 0.950 . S
H786 C782 0.950 . S
C787 C785 1.390 . S
C787 C788 1.387 . S
C787 H790 0.950 . S
C788 C787 1.387 . S
C788 C791 1.387 . S
H789 C785 0.950 . S
H790 C787 0.950 . S
C791 C782 1.390 . S
C791 H784 0.950 . S
C791 C788 1.387 . S
C792 C793 1.387 . S
C792 H796 0.950 . S
C792 C801 1.390 . S
C793 C792 1.387 . S
C793 C795 1.387 . S
H794 C801 0.950 . S
C795 C793 1.387 . S
C795 C797 1.390 . S
C795 H799 0.950 . S
H796 C792 0.950 . S
C797 C795 1.390 . S
C797 C798 1.387 . S
C797 H800 0.950 . S
C798 C797 1.387 . S
C798 C801 1.387 . S
H799 C795 0.950 . S
H800 C797 0.950 . S
C801 C792 1.390 . S
C801 H794 0.950 . S
C801 C798 1.387 . S
C802 C803 1.387 . S
C802 H806 0.950 . S
C802 C811 1.390 . S
C803 C802 1.387 . S
C803 C805 1.387 . S
H804 C811 0.950 . S
C805 C803 1.387 . S
C805 C807 1.390 . S
C805 H809 0.950 . S
H806 C802 0.950 . S
C807 C805 1.390 . S
C807 C808 1.387 . S
C807 H810 0.950 . S
C808 C807 1.387 . S
C808 C811 1.387 . S
H809 C805 0.950 . S
H810 C807 0.950 . S
C811 C802 1.390 . S
C811 H804 0.950 . S
C811 C808 1.387 . S
C812 C813 1.387 . S
C812 H816 0.950 . S
C812 C821 1.390 . S
C813 C812 1.387 . S
C813 C815 1.387 . S
H814 C821 0.950 . S
C815 C813 1.387 . S
C815 C817 1.390 . S
C815 H819 0.950 . S
H816 C812 0.950 . S
C817 C815 1.390 . S
C817 C818 1.387 . S
C817 H820 0.950 . S
C818 C817 1.387 . S
C818 C821 1.387 . S
H819 C815 0.950 . S
H820 C817 0.950 . S
C821 C812 1.390 . S
C821 H814 0.950 . S
C821 C818 1.387 . S
C822 C823 1.387 . S
C822 H826 0.950 . S
C822 C831 1.390 . S
C823 C822 1.387 . S
C823 C825 1.387 . S
H824 C831 0.950 . S
C825 C823 1.387 . S
C825 C827 1.390 1_455 S
C825 H829 0.950 . S
H826 C822 0.950 . S
C827 C825 1.390 1_655 S
C827 C828 1.387 . S
C827 H830 0.950 . S
C828 C827 1.387 . S
C828 C831 1.387 1_655 S
H829 C825 0.950 . S
H830 C827 0.950 . S
C831 C822 1.390 . S
C831 H824 0.950 . S
C831 C828 1.387 1_455 S
C832 C833 1.387 . S
C832 H836 0.950 . S
C832 C841 1.390 . S
C833 C832 1.387 . S
C833 C835 1.387 . S
H834 C841 0.950 . S
C835 C833 1.387 . S
C835 C837 1.390 . S
C835 H839 0.950 . S
H836 C832 0.950 . S
C837 C835 1.390 . S
C837 C838 1.387 . S
C837 H840 0.950 . S
C838 C837 1.387 . S
C838 C841 1.387 . S
H839 C835 0.950 . S
H840 C837 0.950 . S
C841 C832 1.390 . S
C841 H834 0.950 . S
C841 C838 1.387 . S
C842 C843 1.387 . S
C842 H846 0.950 . S
C842 C851 1.390 . S
C843 C842 1.387 . S
C843 C845 1.387 . S
H844 C851 0.950 . S
C845 C843 1.387 . S
C845 C847 1.390 . S
C845 H849 0.950 . S
H846 C842 0.950 . S
C847 C845 1.390 . S
C847 C848 1.387 . S
C847 H850 0.950 . S
C848 C847 1.387 . S
C848 C851 1.387 . S
H849 C845 0.950 . S
H850 C847 0.950 . S
C851 C842 1.390 . S
C851 H844 0.950 . S
C851 C848 1.387 . S
C852 C853 1.387 . S
C852 H856 0.950 . S
C852 C861 1.390 . S
C853 C852 1.387 . S
C853 C855 1.387 . S
H854 C861 0.950 . S
C855 C853 1.387 . S
C855 C857 1.390 . S
C855 H859 0.950 . S
H856 C852 0.950 . S
C857 C855 1.390 . S
C857 C858 1.387 . S
C857 H860 0.950 . S
C858 C857 1.387 . S
C858 C861 1.387 . S
H859 C855 0.950 . S
H860 C857 0.950 . S
C861 C852 1.390 . S
C861 H854 0.950 . S
C861 C858 1.387 . S
C862 C863 1.387 . S
C862 H866 0.950 . S
C862 C871 1.390 1_655 S
C863 C862 1.387 . S
C863 C865 1.387 1_655 S
H864 C871 0.950 . S
C865 C863 1.387 1_455 S
C865 C867 1.390 . S
C865 H869 0.950 . S
H866 C862 0.950 . S
C867 C865 1.390 . S
C867 C868 1.387 . S
C867 H870 0.950 . S
C868 C867 1.387 . S
C868 C871 1.387 . S
H869 C865 0.950 . S
H870 C867 0.950 . S
C871 C862 1.390 1_455 S
C871 H864 0.950 . S
C871 C868 1.387 . S
C872 C873 1.387 . S
C872 H876 0.950 . S
C872 C881 1.390 . S
C873 C872 1.387 . S
C873 C875 1.387 . S
H874 C881 0.950 . S
C875 C873 1.387 . S
C875 C877 1.390 . S
C875 H879 0.950 . S
H876 C872 0.950 . S
C877 C875 1.390 . S
C877 C878 1.387 . S
C877 H880 0.950 . S
C878 C877 1.387 . S
C878 C881 1.387 . S
H879 C875 0.950 . S
H880 C877 0.950 . S
C881 C872 1.390 . S
C881 H874 0.950 . S
C881 C878 1.387 . S
C882 C883 1.387 . S
C882 H886 0.950 . S
C882 C891 1.390 . S
C883 C882 1.387 . S
C883 C885 1.387 . S
H884 C891 0.950 . S
C885 C883 1.387 . S
C885 C887 1.390 . S
C885 H889 0.950 . S
H886 C882 0.950 . S
C887 C885 1.390 . S
C887 C888 1.387 1_455 S
C887 H890 0.950 1_455 S
C888 C887 1.387 1_655 S
C888 C891 1.387 1_655 S
H889 C885 0.950 . S
H890 C887 0.950 1_655 S
C891 C882 1.390 . S
C891 H884 0.950 . S
C891 C888 1.387 1_455 S
C892 C893 1.387 . S
C892 H896 0.950 . S
C892 C901 1.390 . S
C893 C892 1.387 . S
C893 C895 1.387 . S
H894 C901 0.950 . S
C895 C893 1.387 . S
C895 C897 1.390 . S
C895 H899 0.950 . S
H896 C892 0.950 . S
C897 C895 1.390 . S
C897 C898 1.387 . S
C897 H900 0.950 . S
C898 C897 1.387 . S
C898 C901 1.387 . S
H899 C895 0.950 . S
H900 C897 0.950 . S
C901 C892 1.390 . S
C901 H894 0.950 . S
C901 C898 1.387 . S
C902 C903 1.387 . S
C902 H906 0.950 . S
C902 C911 1.390 . S
C903 C902 1.387 . S
C903 C905 1.387 . S
H904 C911 0.950 . S
C905 C903 1.387 . S
C905 C907 1.390 . S
C905 H909 0.950 . S
H906 C902 0.950 . S
C907 C905 1.390 . S
C907 C908 1.387 . S
C907 H910 0.950 . S
C908 C907 1.387 . S
C908 C911 1.387 . S
H909 C905 0.950 . S
H910 C907 0.950 . S
C911 C902 1.390 . S
C911 H904 0.950 . S
C911 C908 1.387 . S
C912 C913 1.387 . S
C912 H916 0.950 . S
C912 C921 1.390 . S
C913 C912 1.387 . S
C913 C915 1.387 . S
H914 C921 0.950 . S
C915 C913 1.387 . S
C915 C917 1.390 . S
C915 H919 0.950 . S
H916 C912 0.950 . S
C917 C915 1.390 . S
C917 C918 1.387 . S
C917 H920 0.950 . S
C918 C917 1.387 . S
C918 C921 1.387 . S
H919 C915 0.950 . S
H920 C917 0.950 . S
C921 C912 1.390 . S
C921 H914 0.950 . S
C921 C918 1.387 . S
C922 C923 1.387 . S
C922 H926 0.950 . S
C922 C931 1.390 . S
C923 C922 1.387 . S
C923 C925 1.387 . S
H924 C931 0.950 . S
C925 C923 1.387 . S
C925 C927 1.390 . S
C925 H929 0.950 . S
H926 C922 0.950 . S
C927 C925 1.390 . S
C927 C928 1.387 . S
C927 H930 0.950 . S
C928 C927 1.387 . S
C928 C931 1.387 . S
H929 C925 0.950 . S
H930 C927 0.950 . S
C931 C922 1.390 . S
C931 H924 0.950 . S
C931 C928 1.387 . S
C932 C933 1.387 . S
C932 H936 0.950 . S
C932 C941 1.390 . S
C933 C932 1.387 . S
C933 C935 1.387 . S
H934 C941 0.950 . S
C935 C933 1.387 . S
C935 C937 1.390 . S
C935 H939 0.950 . S
H936 C932 0.950 . S
C937 C935 1.390 . S
C937 C938 1.387 . S
C937 H940 0.950 . S
C938 C937 1.387 . S
C938 C941 1.387 . S
H939 C935 0.950 . S
H940 C937 0.950 . S
C941 C932 1.390 . S
C941 H934 0.950 . S
C941 C938 1.387 . S
C942 C943 1.387 1_655 S
C942 H946 0.950 . S
C942 C951 1.390 . S
C943 C942 1.387 1_455 S
C943 C945 1.387 1_455 S
H944 C951 0.950 . S
C945 C943 1.387 1_655 S
C945 C947 1.390 . S
C945 H949 0.950 . S
H946 C942 0.950 . S
C947 C945 1.390 . S
C947 C948 1.387 . S
C947 H950 0.950 . S
C948 C947 1.387 . S
C948 C951 1.387 . S
H949 C945 0.950 . S
H950 C947 0.950 . S
C951 C942 1.390 . S
C951 H944 0.950 . S
C951 C948 1.387 . S
C952 C953 1.387 . S
C952 H956 0.950 . S
C952 C961 1.390 . S
C953 C952 1.387 . S
C953 C955 1.387 . S
H954 C961 0.950 . S
C955 C953 1.387 . S
C955 C957 1.390 . S
C955 H959 0.950 . S
H956 C952 0.950 . S
C957 C955 1.390 . S
C957 C958 1.387 . S
C957 H960 0.950 . S
C958 C957 1.387 . S
C958 C961 1.387 . S
H959 C955 0.950 . S
H960 C957 0.950 . S
C961 C952 1.390 . S
C961 H954 0.950 . S
C961 C958 1.387 . S
C962 C963 1.387 . S
C962 H966 0.950 . S
C962 C971 1.390 . S
C963 C962 1.387 . S
C963 C965 1.387 . S
H964 C971 0.950 1_455 S
C965 C963 1.387 . S
C965 C967 1.390 . S
C965 H969 0.950 . S
H966 C962 0.950 . S
C967 C965 1.390 . S
C967 C968 1.387 1_655 S
C967 H970 0.950 . S
C968 C967 1.387 1_455 S
C968 C971 1.387 1_455 S
H969 C965 0.950 . S
H970 C967 0.950 . S
C971 C962 1.390 . S
C971 H964 0.950 1_655 S
C971 C968 1.387 1_655 S
C972 C973 1.387 . S
C972 H976 0.950 . S
C972 C981 1.390 . S
C973 C972 1.387 . S
C973 C975 1.387 . S
H974 C981 0.950 . S
C975 C973 1.387 . S
C975 C977 1.390 . S
C975 H979 0.950 . S
H976 C972 0.950 . S
C977 C975 1.390 . S
C977 C978 1.387 . S
C977 H980 0.950 . S
C978 C977 1.387 . S
C978 C981 1.387 . S
H979 C975 0.950 . S
H980 C977 0.950 . S
C981 C972 1.390 . S
C981 H974 0.950 . S
C981 C978 1.387 . S
C982 C983 1.387 . S
C982 H986 0.950 . S
C982 C991 1.390 . S
C983 C982 1.387 . S
C983 C985 1.387 . S
H984 C991 0.950 . S
C985 C983 1.387 . S
C985 C987 1.390 . S
C985 H989 0.950 . S
H986 C982 0.950 . S
C987 C985 1.390 . S
C987 C988 1.387 . S
C987 H990 0.950 . S
C988 C987 1.387 . S
C988 C991 1.387 . S
H989 C985 0.950 . S
H990 C987 0.950 . S
C991 C982 1.390 . S
C991 H984 0.950 . S
C991 C988 1.387 . S
C992 C993 1.387 . S
C992 H996 0.950 . S
C992 C1001 1.390 1_455 S
C993 C992 1.387 . S
C993 C995 1.387 . S
H994 C1001 0.950 . S
C995 C993 1.387 . S
C995 C997 1.390 1_455 S
C995 H999 0.950 . S
H996 C992 0.950 . S
C997 C995 1.390 1_655 S
C997 C998 1.387 . S
C997 H1000 0.950 . S
C998 C997 1.387 . S
C998 C1001 1.387 . S
H999 C995 0.950 . S
H1000 C997 0.950 . S
C1001 C992 1.390 1_655 S
C1001 H994 0.950 . S
C1001 C998 1.387 . S
C1002 C1003 1.387 . S
C1002 H1006 0.950 . S
C1002 C1011 1.390 1_655 S
C1003 C1002 1.387 . S
C1003 C1005 1.387 . S
H1004 C1011 0.950 . S
C1005 C1003 1.387 . S
C1005 C1007 1.390 1_655 S
C1005 H1009 0.950 . S
H1006 C1002 0.950 . S
C1007 C1005 1.390 1_455 S
C1007 C1008 1.387 . S
C1007 H1010 0.950 . S
C1008 C1007 1.387 . S
C1008 C1011 1.387 . S
H1009 C1005 0.950 . S
H1010 C1007 0.950 . S
C1011 C1002 1.390 1_455 S
C1011 H1004 0.950 . S
C1011 C1008 1.387 . S
C1012 C1013 1.387 . S
C1012 H1016 0.950 . S
C1012 C1021 1.390 . S
C1013 C1012 1.387 . S
C1013 C1015 1.387 . S
H1014 C1021 0.950 . S
C1015 C1013 1.387 . S
C1015 C1017 1.390 . S
C1015 H1019 0.950 . S
H1016 C1012 0.950 . S
C1017 C1015 1.390 . S
C1017 C1018 1.387 . S
C1017 H1020 0.950 . S
C1018 C1017 1.387 . S
C1018 C1021 1.387 . S
H1019 C1015 0.950 . S
H1020 C1017 0.950 . S
C1021 C1012 1.390 . S
C1021 H1014 0.950 . S
C1021 C1018 1.387 . S
C1022 C1023 1.387 . S
C1022 H1026 0.950 . S
C1022 C1031 1.390 . S
C1023 C1022 1.387 . S
C1023 C1025 1.387 . S
H1024 C1031 0.950 . S
C1025 C1023 1.387 . S
C1025 C1027 1.390 . S
C1025 H1029 0.950 . S
H1026 C1022 0.950 . S
C1027 C1025 1.390 . S
C1027 C1028 1.387 . S
C1027 H1030 0.950 . S
C1028 C1027 1.387 . S
C1028 C1031 1.387 . S
H1029 C1025 0.950 . S
H1030 C1027 0.950 . S
C1031 C1022 1.390 . S
C1031 H1024 0.950 . S
C1031 C1028 1.387 . S
C1032 C1033 1.387 . S
C1032 H1036 0.950 . S
C1032 C1041 1.390 1_655 S
C1033 C1032 1.387 . S
C1033 C1035 1.387 . S
H1034 C1041 0.950 . S
C1035 C1033 1.387 . S
C1035 C1037 1.390 1_655 S
C1035 H1039 0.950 . S
H1036 C1032 0.950 . S
C1037 C1035 1.390 1_455 S
C1037 C1038 1.387 . S
C1037 H1040 0.950 . S
C1038 C1037 1.387 . S
C1038 C1041 1.387 . S
H1039 C1035 0.950 . S
H1040 C1037 0.950 . S
C1041 C1032 1.390 1_455 S
C1041 H1034 0.950 . S
C1041 C1038 1.387 . S
C1042 C1043 1.387 . S
C1042 H1046 0.950 . S
C1042 C1051 1.390 . S
C1043 C1042 1.387 . S
C1043 C1045 1.387 . S
H1044 C1051 0.950 . S
C1045 C1043 1.387 . S
C1045 C1047 1.390 . S
C1045 H1049 0.950 . S
H1046 C1042 0.950 . S
C1047 C1045 1.390 . S
C1047 C1048 1.387 . S
C1047 H1050 0.950 . S
C1048 C1047 1.387 . S
C1048 C1051 1.387 . S
H1049 C1045 0.950 . S
H1050 C1047 0.950 . S
C1051 C1042 1.390 . S
C1051 H1044 0.950 . S
C1051 C1048 1.387 . S
C1052 C1053 1.387 . S
C1052 H1056 0.950 . S
C1052 C1061 1.390 . S
C1053 C1052 1.387 . S
C1053 C1055 1.387 . S
H1054 C1061 0.950 . S
C1055 C1053 1.387 . S
C1055 C1057 1.390 . S
C1055 H1059 0.950 . S
H1056 C1052 0.950 . S
C1057 C1055 1.390 . S
C1057 C1058 1.387 . S
C1057 H1060 0.950 . S
C1058 C1057 1.387 . S
C1058 C1061 1.387 . S
H1059 C1055 0.950 . S
H1060 C1057 0.950 . S
C1061 C1052 1.390 . S
C1061 H1054 0.950 . S
C1061 C1058 1.387 . S
C1062 C1063 1.387 . S
C1062 H1066 0.950 . S
C1062 C1071 1.390 1_455 S
C1063 C1062 1.387 . S
C1063 C1065 1.387 . S
H1064 C1071 0.950 . S
C1065 C1063 1.387 . S
C1065 C1067 1.390 1_455 S
C1065 H1069 0.950 . S
H1066 C1062 0.950 . S
C1067 C1065 1.390 1_655 S
C1067 C1068 1.387 . S
C1067 H1070 0.950 . S
C1068 C1067 1.387 . S
C1068 C1071 1.387 . S
H1069 C1065 0.950 . S
H1070 C1067 0.950 . S
C1071 C1062 1.390 1_655 S
C1071 H1064 0.950 . S
C1071 C1068 1.387 . S
C1072 C1073 1.387 . S
C1072 H1076 0.950 . S
C1072 C1081 1.390 1_455 S
C1073 C1072 1.387 . S
C1073 C1075 1.387 . S
H1074 C1081 0.950 . S
C1075 C1073 1.387 . S
C1075 C1077 1.390 1_455 S
C1075 H1079 0.950 . S
H1076 C1072 0.950 . S
C1077 C1075 1.390 1_655 S
C1077 C1078 1.387 . S
C1077 H1080 0.950 . S
C1078 C1077 1.387 . S
C1078 C1081 1.387 . S
H1079 C1075 0.950 . S
H1080 C1077 0.950 . S
C1081 C1072 1.390 1_655 S
C1081 H1074 0.950 . S
C1081 C1078 1.387 . S
C1082 C1083 1.387 . S
C1082 H1086 0.950 . S
C1082 C1091 1.390 1_655 S
C1083 C1082 1.387 . S
C1083 C1085 1.387 . S
H1084 C1091 0.950 . S
C1085 C1083 1.387 . S
C1085 C1087 1.390 1_655 S
C1085 H1089 0.950 . S
H1086 C1082 0.950 . S
C1087 C1085 1.390 1_455 S
C1087 C1088 1.387 . S
C1087 H1090 0.950 . S
C1088 C1087 1.387 . S
C1088 C1091 1.387 . S
H1089 C1085 0.950 . S
H1090 C1087 0.950 . S
C1091 C1082 1.390 1_455 S
C1091 H1084 0.950 . S
C1091 C1088 1.387 . S
C1092 C1093 1.387 . S
C1092 H1096 0.950 . S
C1092 C1101 1.390 . S
C1093 C1092 1.387 . S
C1093 C1095 1.387 . S
H1094 C1101 0.950 . S
C1095 C1093 1.387 . S
C1095 C1097 1.390 . S
C1095 H1099 0.950 . S
H1096 C1092 0.950 . S
C1097 C1095 1.390 . S
C1097 C1098 1.387 . S
C1097 H1100 0.950 . S
C1098 C1097 1.387 . S
C1098 C1101 1.387 . S
H1099 C1095 0.950 . S
H1100 C1097 0.950 . S
C1101 C1092 1.390 . S
C1101 H1094 0.950 . S
C1101 C1098 1.387 . S
C1102 C1103 1.387 . S
C1102 H1106 0.950 . S
C1102 C1111 1.390 . S
C1103 C1102 1.387 . S
C1103 C1105 1.387 . S
H1104 C1111 0.950 . S
C1105 C1103 1.387 . S
C1105 C1107 1.390 . S
C1105 H1109 0.950 . S
H1106 C1102 0.950 . S
C1107 C1105 1.390 . S
C1107 C1108 1.387 . S
C1107 H1110 0.950 . S
C1108 C1107 1.387 . S
C1108 C1111 1.387 . S
H1109 C1105 0.950 . S
H1110 C1107 0.950 . S
C1111 C1102 1.390 . S
C1111 H1104 0.950 . S
C1111 C1108 1.387 . S
C1112 C1113 1.387 . S
C1112 H1116 0.950 . S
C1112 C1121 1.390 1_455 S
C1113 C1112 1.387 . S
C1113 C1115 1.387 . S
H1114 C1121 0.950 . S
C1115 C1113 1.387 . S
C1115 C1117 1.390 1_455 S
C1115 H1119 0.950 . S
H1116 C1112 0.950 . S
C1117 C1115 1.390 1_655 S
C1117 C1118 1.387 . S
C1117 H1120 0.950 . S
C1118 C1117 1.387 . S
C1118 C1121 1.387 . S
H1119 C1115 0.950 . S
H1120 C1117 0.950 . S
C1121 C1112 1.390 1_655 S
C1121 H1114 0.950 . S
C1121 C1118 1.387 . S
C1122 C1123 1.387 . S
C1122 H1126 0.950 . S
C1122 C1131 1.390 . S
C1123 C1122 1.387 . S
C1123 C1125 1.387 . S
H1124 C1131 0.950 . S
C1125 C1123 1.387 . S
C1125 C1127 1.390 . S
C1125 H1129 0.950 . S
H1126 C1122 0.950 . S
C1127 C1125 1.390 . S
C1127 C1128 1.387 . S
C1127 H1130 0.950 . S
C1128 C1127 1.387 . S
C1128 C1131 1.387 . S
H1129 C1125 0.950 . S
H1130 C1127 0.950 . S
C1131 C1122 1.390 . S
C1131 H1124 0.950 . S
C1131 C1128 1.387 . S
C1132 C1133 1.387 . S
C1132 H1136 0.950 . S
C1132 C1141 1.390 . S
C1133 C1132 1.387 . S
C1133 C1135 1.387 . S
H1134 C1141 0.950 . S
C1135 C1133 1.387 . S
C1135 C1137 1.390 . S
C1135 H1139 0.950 . S
H1136 C1132 0.950 . S
C1137 C1135 1.390 . S
C1137 C1138 1.387 . S
C1137 H1140 0.950 . S
C1138 C1137 1.387 . S
C1138 C1141 1.387 . S
H1139 C1135 0.950 . S
H1140 C1137 0.950 . S
C1141 C1132 1.390 . S
C1141 H1134 0.950 . S
C1141 C1138 1.387 . S
C1142 C1143 1.387 . S
C1142 H1146 0.950 . S
C1142 C1151 1.390 1_655 S
C1143 C1142 1.387 . S
C1143 C1145 1.387 . S
H1144 C1151 0.950 . S
C1145 C1143 1.387 . S
C1145 C1147 1.390 1_655 S
C1145 H1149 0.950 . S
H1146 C1142 0.950 . S
C1147 C1145 1.390 1_455 S
C1147 C1148 1.387 . S
C1147 H1150 0.950 . S
C1148 C1147 1.387 . S
C1148 C1151 1.387 . S
H1149 C1145 0.950 . S
H1150 C1147 0.950 . S
C1151 C1142 1.390 1_455 S
C1151 H1144 0.950 . S
C1151 C1148 1.387 . S
C1152 C1153 1.387 . S
C1152 H1156 0.950 . S
C1152 C1161 1.390 . S
C1153 C1152 1.387 . S
C1153 C1155 1.387 . S
H1154 C1161 0.950 . S
C1155 C1153 1.387 . S
C1155 C1157 1.390 . S
C1155 H1159 0.950 . S
H1156 C1152 0.950 . S
C1157 C1155 1.390 . S
C1157 C1158 1.387 . S
C1157 H1160 0.950 . S
C1158 C1157 1.387 . S
C1158 C1161 1.387 . S
H1159 C1155 0.950 . S
H1160 C1157 0.950 . S
C1161 C1152 1.390 . S
C1161 H1154 0.950 . S
C1161 C1158 1.387 . S
C1162 C1163 1.387 . S
C1162 H1166 0.950 . S
C1162 C1171 1.390 1_655 S
C1163 C1162 1.387 . S
C1163 C1165 1.387 1_545 S
H1164 C1171 0.950 . S
C1165 C1163 1.387 1_565 S
C1165 C1167 1.390 1_655 S
C1165 H1169 0.950 . S
H1166 C1162 0.950 . S
C1167 C1165 1.390 1_455 S
C1167 C1168 1.387 . S
C1167 H1170 0.950 . S
C1168 C1167 1.387 . S
C1168 C1171 1.387 1_565 S
H1169 C1165 0.950 . S
H1170 C1167 0.950 . S
C1171 C1162 1.390 1_455 S
C1171 H1164 0.950 . S
C1171 C1168 1.387 1_545 S
C1172 C1173 1.387 . S
C1172 H1176 0.950 . S
C1172 C1181 1.390 . S
C1173 C1172 1.387 . S
C1173 C1175 1.387 . S
H1174 C1181 0.950 . S
C1175 C1173 1.387 . S
C1175 C1177 1.390 . S
C1175 H1179 0.950 . S
H1176 C1172 0.950 . S
C1177 C1175 1.390 . S
C1177 C1178 1.387 . S
C1177 H1180 0.950 . S
C1178 C1177 1.387 . S
C1178 C1181 1.387 . S
H1179 C1175 0.950 . S
H1180 C1177 0.950 . S
C1181 C1172 1.390 . S
C1181 H1174 0.950 . S
C1181 C1178 1.387 . S
C1182 C1183 1.387 1_556 S
C1182 H1186 0.950 . S
C1182 C1191 1.390 . S
C1183 C1182 1.387 1_554 S
C1183 C1185 1.387 1_545 S
H1184 C1191 0.950 . S
C1185 C1183 1.387 1_565 S
C1185 C1187 1.390 . S
C1185 H1189 0.950 . S
H1186 C1182 0.950 . S
C1187 C1185 1.390 . S
C1187 C1188 1.387 1_554 S
C1187 H1190 0.950 . S
C1188 C1187 1.387 1_556 S
C1188 C1191 1.387 1_565 S
H1189 C1185 0.950 . S
H1190 C1187 0.950 . S
C1191 C1182 1.390 . S
C1191 H1184 0.950 . S
C1191 C1188 1.387 1_545 S
C1192 C1193 1.387 . S
C1192 H1196 0.950 . S
C1192 C1201 1.390 . S
C1193 C1192 1.387 . S
C1193 C1195 1.387 . S
H1194 C1201 0.950 . S
C1195 C1193 1.387 . S
C1195 C1197 1.390 . S
C1195 H1199 0.950 . S
H1196 C1192 0.950 . S
C1197 C1195 1.390 . S
C1197 C1198 1.387 . S
C1197 H1200 0.950 . S
C1198 C1197 1.387 . S
C1198 C1201 1.387 . S
H1199 C1195 0.950 . S
H1200 C1197 0.950 . S
C1201 C1192 1.390 . S
C1201 H1194 0.950 . S
C1201 C1198 1.387 . S
C1202 C1203 1.387 1_565 S
C1202 H1206 0.950 . S
C1202 C1211 1.390 . S
C1203 C1202 1.387 1_545 S
C1203 C1205 1.387 . S
H1204 C1211 0.950 . S
C1205 C1203 1.387 . S
C1205 C1207 1.390 . S
C1205 H1209 0.950 . S
H1206 C1202 0.950 . S
C1207 C1205 1.390 . S
C1207 C1208 1.387 1_545 S
C1207 H1210 0.950 . S
C1208 C1207 1.387 1_565 S
C1208 C1211 1.387 . S
H1209 C1205 0.950 . S
H1210 C1207 0.950 . S
C1211 C1202 1.390 . S
C1211 H1204 0.950 . S
C1211 C1208 1.387 . S
C1212 C1213 1.387 . S
C1212 H1216 0.950 . S
C1212 C1221 1.390 . S
C1213 C1212 1.387 . S
C1213 C1215 1.387 . S
H1214 C1221 0.950 . S
C1215 C1213 1.387 . S
C1215 C1217 1.390 . S
C1215 H1219 0.950 . S
H1216 C1212 0.950 . S
C1217 C1215 1.390 . S
C1217 C1218 1.387 . S
C1217 H1220 0.950 . S
C1218 C1217 1.387 . S
C1218 C1221 1.387 . S
H1219 C1215 0.950 . S
H1220 C1217 0.950 . S
C1221 C1212 1.390 . S
C1221 H1214 0.950 . S
C1221 C1218 1.387 . S
C1222 C1223 1.387 1_655 S
C1222 H1226 0.950 . S
C1222 C1231 1.390 1_545 S
C1223 C1222 1.387 1_455 S
C1223 C1225 1.387 1_556 S
H1224 C1231 0.950 . S
C1225 C1223 1.387 1_554 S
C1225 C1227 1.390 1_545 S
C1225 H1229 0.950 . S
H1226 C1222 0.950 . S
C1227 C1225 1.390 1_565 S
C1227 C1228 1.387 1_455 S
C1227 H1230 0.950 . S
C1228 C1227 1.387 1_655 S
C1228 C1231 1.387 1_554 S
H1229 C1225 0.950 . S
H1230 C1227 0.950 . S
C1231 C1222 1.390 1_565 S
C1231 H1224 0.950 . S
C1231 C1228 1.387 1_556 S
C1232 C1233 1.387 . S
C1232 H1236 0.950 . S
C1232 C1241 1.390 . S
C1233 C1232 1.387 . S
C1233 C1235 1.387 . S
H1234 C1241 0.950 . S
C1235 C1233 1.387 . S
C1235 C1237 1.390 . S
C1235 H1239 0.950 . S
H1236 C1232 0.950 . S
C1237 C1235 1.390 . S
C1237 C1238 1.387 . S
C1237 H1240 0.950 . S
C1238 C1237 1.387 . S
C1238 C1241 1.387 . S
H1239 C1235 0.950 . S
H1240 C1237 0.950 . S
C1241 C1232 1.390 . S
C1241 H1234 0.950 . S
C1241 C1238 1.387 . S
C1242 C1243 1.387 . S
C1242 H1246 0.950 . S
C1242 C1251 1.390 . S
C1243 C1242 1.387 . S
C1243 C1245 1.387 . S
H1244 C1251 0.950 . S
C1245 C1243 1.387 . S
C1245 C1247 1.390 . S
C1245 H1249 0.950 . S
H1246 C1242 0.950 . S
C1247 C1245 1.390 . S
C1247 C1248 1.387 . S
C1247 H1250 0.950 . S
C1248 C1247 1.387 . S
C1248 C1251 1.387 . S
H1249 C1245 0.950 . S
H1250 C1247 0.950 . S
C1251 C1242 1.390 . S
C1251 H1244 0.950 . S
C1251 C1248 1.387 . S
C1252 C1253 1.387 . S
C1252 H1256 0.950 . S
C1252 C1261 1.390 . S
C1253 C1252 1.387 . S
C1253 C1255 1.387 . S
H1254 C1261 0.950 . S
C1255 C1253 1.387 . S
C1255 C1257 1.390 . S
C1255 H1259 0.950 . S
H1256 C1252 0.950 . S
C1257 C1255 1.390 . S
C1257 C1258 1.387 . S
C1257 H1260 0.950 . S
C1258 C1257 1.387 . S
C1258 C1261 1.387 . S
H1259 C1255 0.950 . S
H1260 C1257 0.950 . S
C1261 C1252 1.390 . S
C1261 H1254 0.950 . S
C1261 C1258 1.387 . S
C1262 C1263 1.387 . S
C1262 H1266 0.950 . S
C1262 C1271 1.390 . S
C1263 C1262 1.387 . S
C1263 C1265 1.387 . S
H1264 C1271 0.950 . S
C1265 C1263 1.387 . S
C1265 C1267 1.390 . S
C1265 H1269 0.950 . S
H1266 C1262 0.950 . S
C1267 C1265 1.390 . S
C1267 C1268 1.387 . S
C1267 H1270 0.950 . S
C1268 C1267 1.387 . S
C1268 C1271 1.387 . S
H1269 C1265 0.950 . S
H1270 C1267 0.950 . S
C1271 C1262 1.390 . S
C1271 H1264 0.950 . S
C1271 C1268 1.387 . S
C1272 C1273 1.387 1_556 S
C1272 H1276 0.950 . S
C1272 C1281 1.390 . S
C1273 C1272 1.387 1_554 S
C1273 C1275 1.387 . S
H1274 C1281 0.950 . S
C1275 C1273 1.387 . S
C1275 C1277 1.390 . S
C1275 H1279 0.950 . S
H1276 C1272 0.950 . S
C1277 C1275 1.390 . S
C1277 C1278 1.387 1_554 S
C1277 H1280 0.950 . S
C1278 C1277 1.387 1_556 S
C1278 C1281 1.387 . S
H1279 C1275 0.950 . S
H1280 C1277 0.950 . S
C1281 C1272 1.390 . S
C1281 H1274 0.950 . S
C1281 C1278 1.387 . S
C1282 C1283 1.387 . S
C1282 H1286 0.950 . S
C1282 C1291 1.390 1_655 S
C1283 C1282 1.387 . S
C1283 C1285 1.387 . S
H1284 C1291 0.950 . S
C1285 C1283 1.387 . S
C1285 C1287 1.390 1_655 S
C1285 H1289 0.950 . S
H1286 C1282 0.950 . S
C1287 C1285 1.390 1_455 S
C1287 C1288 1.387 . S
C1287 H1290 0.950 . S
C1288 C1287 1.387 . S
C1288 C1291 1.387 . S
H1289 C1285 0.950 . S
H1290 C1287 0.950 . S
C1291 C1282 1.390 1_455 S
C1291 H1284 0.950 . S
C1291 C1288 1.387 . S
C1292 C1293 1.387 . S
C1292 H1296 0.950 . S
C1292 C1301 1.390 1_454 S
C1293 C1292 1.387 . S
C1293 C1295 1.387 . S
H1294 C1301 0.950 . S
C1295 C1293 1.387 . S
C1295 C1297 1.390 1_454 S
C1295 H1299 0.950 . S
H1296 C1292 0.950 . S
C1297 C1295 1.390 1_656 S
C1297 C1298 1.387 . S
C1297 H1300 0.950 . S
C1298 C1297 1.387 . S
C1298 C1301 1.387 . S
H1299 C1295 0.950 . S
H1300 C1297 0.950 . S
C1301 C1292 1.390 1_656 S
C1301 H1294 0.950 . S
C1301 C1298 1.387 . S
C1302 C1303 1.387 . S
C1302 H1306 0.950 . S
C1302 C1311 1.390 . S
C1303 C1302 1.387 . S
C1303 C1305 1.387 . S
H1304 C1311 0.950 . S
C1305 C1303 1.387 . S
C1305 C1307 1.390 . S
C1305 H1309 0.950 . S
H1306 C1302 0.950 . S
C1307 C1305 1.390 . S
C1307 C1308 1.387 . S
C1307 H1310 0.950 . S
C1308 C1307 1.387 . S
C1308 C1311 1.387 . S
H1309 C1305 0.950 . S
H1310 C1307 0.950 . S
C1311 C1302 1.390 . S
C1311 H1304 0.950 . S
C1311 C1308 1.387 . S
C1312 C1313 1.387 . S
C1312 H1316 0.950 . S
C1312 C1321 1.390 . S
C1313 C1312 1.387 . S
C1313 C1315 1.387 . S
H1314 C1321 0.950 . S
C1315 C1313 1.387 . S
C1315 C1317 1.390 . S
C1315 H1319 0.950 . S
H1316 C1312 0.950 . S
C1317 C1315 1.390 . S
C1317 C1318 1.387 . S
C1317 H1320 0.950 . S
C1318 C1317 1.387 . S
C1318 C1321 1.387 . S
H1319 C1315 0.950 . S
H1320 C1317 0.950 . S
C1321 C1312 1.390 . S
C1321 H1314 0.950 . S
C1321 C1318 1.387 . S
C1322 C1323 1.387 . S
C1322 H1326 0.950 . S
C1322 C1331 1.390 . S
C1323 C1322 1.387 . S
C1323 C1325 1.387 . S
H1324 C1331 0.950 1_565 S
C1325 C1323 1.387 . S
C1325 C1327 1.390 . S
C1325 H1329 0.950 . S
H1326 C1322 0.950 . S
C1327 C1325 1.390 . S
C1327 C1328 1.387 . S
C1327 H1330 0.950 . S
C1328 C1327 1.387 . S
C1328 C1331 1.387 . S
H1329 C1325 0.950 . S
H1330 C1327 0.950 . S
C1331 C1322 1.390 . S
C1331 H1324 0.950 1_545 S
C1331 C1328 1.387 . S
C1332 C1333 1.387 . S
C1332 H1336 0.950 . S
C1332 C1341 1.390 . S
C1333 C1332 1.387 . S
C1333 C1335 1.387 . S
H1334 C1341 0.950 . S
C1335 C1333 1.387 . S
C1335 C1337 1.390 . S
C1335 H1339 0.950 1_565 S
H1336 C1332 0.950 . S
C1337 C1335 1.390 . S
C1337 C1338 1.387 . S
C1337 H1340 0.950 . S
C1338 C1337 1.387 . S
C1338 C1341 1.387 . S
H1339 C1335 0.950 1_545 S
H1340 C1337 0.950 . S
C1341 C1332 1.390 . S
C1341 H1334 0.950 . S
C1341 C1338 1.387 . S
C1342 C1343 1.387 . S
C1342 H1346 0.950 . S
C1342 C1351 1.397 . S
C1343 C1342 1.387 . S
C1343 C1345 1.387 . S
H1344 C1351 0.936 1_545 S
C1345 C1343 1.387 . S
C1345 C1347 1.390 . S
C1345 H1349 0.950 . S
H1346 C1342 0.950 . S
C1347 C1345 1.390 . S
C1347 C1348 1.387 . S
C1347 H1350 0.950 . S
C1348 C1347 1.387 . S
C1348 C1351 1.394 . S
H1349 C1345 0.950 . S
H1350 C1347 0.950 . S
C1351 C1342 1.397 . S
C1351 H1344 0.936 1_565 S
C1351 C1348 1.394 . S
C1352 C1353 1.387 . S
C1352 H1356 0.950 . S
C1352 C1361 1.390 . S
C1353 C1352 1.387 . S
C1353 C1355 1.387 . S
H1354 C1361 0.950 . S
C1355 C1353 1.387 . S
C1355 C1357 1.390 . S
C1355 H1359 0.950 . S
H1356 C1352 0.950 . S
C1357 C1355 1.390 . S
C1357 C1358 1.387 . S
C1357 H1360 0.950 1_565 S
C1358 C1357 1.387 . S
C1358 C1361 1.387 . S
H1359 C1355 0.950 . S
H1360 C1357 0.950 1_545 S
C1361 C1352 1.390 . S
C1361 H1354 0.950 . S
C1361 C1358 1.387 . S
C1362 C1363 1.387 . S
C1362 H1366 0.950 . S
C1362 C1371 1.390 . S
C1363 C1362 1.387 . S
C1363 C1365 1.387 . S
H1364 C1371 0.950 . S
C1365 C1363 1.387 . S
C1365 C1367 1.390 . S
C1365 H1369 0.950 1_565 S
H1366 C1362 0.950 . S
C1367 C1365 1.390 . S
C1367 C1368 1.387 . S
C1367 H1370 0.950 . S
C1368 C1367 1.387 . S
C1368 C1371 1.387 . S
H1369 C1365 0.950 1_545 S
H1370 C1367 0.950 . S
C1371 C1362 1.390 . S
C1371 H1364 0.950 . S
C1371 C1368 1.387 . S
C1372 C1373 1.387 . S
C1372 H1376 0.950 . S
C1372 C1381 1.390 . S
C1373 C1372 1.387 . S
C1373 C1375 1.387 . S
H1374 C1381 0.950 . S
C1375 C1373 1.387 . S
C1375 C1377 1.390 . S
C1375 H1379 0.950 . S
H1376 C1372 0.950 . S
C1377 C1375 1.390 . S
C1377 C1378 1.387 . S
C1377 H1380 0.950 . S
C1378 C1377 1.387 . S
C1378 C1381 1.387 . S
H1379 C1375 0.950 . S
H1380 C1377 0.950 . S
C1381 C1372 1.390 . S
C1381 H1374 0.950 . S
C1381 C1378 1.387 . S
C1382 C1383 1.401 . S
C1382 H1386 0.923 1_545 S
C1382 C1391 1.404 . S
C1383 C1382 1.401 . S
C1383 C1385 1.387 . S
H1384 C1391 0.950 . S
C1385 C1383 1.387 . S
C1385 C1387 1.390 . S
C1385 H1389 0.950 . S
H1386 C1382 0.923 1_565 S
C1387 C1385 1.390 . S
C1387 C1388 1.387 . S
C1387 H1390 0.950 . S
C1388 C1387 1.387 . S
C1388 C1391 1.387 . S
H1389 C1385 0.950 . S
H1390 C1387 0.950 . S
C1391 C1382 1.404 . S
C1391 H1384 0.950 . S
C1391 C1388 1.387 . S
C1392 C1393 1.387 . S
C1392 H1396 0.950 . S
C1392 C1401 1.390 . S
C1393 C1392 1.387 . S
C1393 C1395 1.387 . S
H1394 C1401 0.950 . S
C1395 C1393 1.387 . S
C1395 C1397 1.390 . S
C1395 H1399 0.950 . S
H1396 C1392 0.950 . S
C1397 C1395 1.390 . S
C1397 C1398 1.387 . S
C1397 H1400 0.950 . S
C1398 C1397 1.387 . S
C1398 C1401 1.387 . S
H1399 C1395 0.950 . S
H1400 C1397 0.950 . S
C1401 C1392 1.390 . S
C1401 H1394 0.950 . S
C1401 C1398 1.387 . S
C1402 C1403 1.387 . S
C1402 H1406 0.950 . S
C1402 C1411 1.390 . S
C1403 C1402 1.387 . S
C1403 C1405 1.387 . S
H1404 C1411 0.950 . S
C1405 C1403 1.387 . S
C1405 C1407 1.390 . S
C1405 H1409 0.950 . S
H1406 C1402 0.950 . S
C1407 C1405 1.390 . S
C1407 C1408 1.387 . S
C1407 H1410 0.950 . S
C1408 C1407 1.387 . S
C1408 C1411 1.387 . S
H1409 C1405 0.950 . S
H1410 C1407 0.950 . S
C1411 C1402 1.390 . S
C1411 H1404 0.950 . S
C1411 C1408 1.387 . S
C1412 C1413 1.387 . S
C1412 H1416 0.950 . S
C1412 C1421 1.390 . S
C1413 C1412 1.387 . S
C1413 C1415 1.387 . S
H1414 C1421 0.950 . S
C1415 C1413 1.387 . S
C1415 C1417 1.390 . S
C1415 H1419 0.950 . S
H1416 C1412 0.950 . S
C1417 C1415 1.390 . S
C1417 C1418 1.387 . S
C1417 H1420 0.950 . S
C1418 C1417 1.387 . S
C1418 C1421 1.387 . S
H1419 C1415 0.950 . S
H1420 C1417 0.950 . S
C1421 C1412 1.390 . S
C1421 H1414 0.950 . S
C1421 C1418 1.387 . S
C1422 C1423 1.387 . S
C1422 H1426 0.950 . S
C1422 C1431 1.390 . S
C1423 C1422 1.387 . S
C1423 C1425 1.387 . S
H1424 C1431 0.950 . S
C1425 C1423 1.387 . S
C1425 C1427 1.390 . S
C1425 H1429 0.950 . S
H1426 C1422 0.950 . S
C1427 C1425 1.390 . S
C1427 C1428 1.387 . S
C1427 H1430 0.950 . S
C1428 C1427 1.387 . S
C1428 C1431 1.387 . S
H1429 C1425 0.950 . S
H1430 C1427 0.950 . S
C1431 C1422 1.390 . S
C1431 H1424 0.950 . S
C1431 C1428 1.387 . S
C1432 C1433 1.387 . S
C1432 H1436 0.950 . S
C1432 C1441 1.390 . S
C1433 C1432 1.387 . S
C1433 C1435 1.387 . S
H1434 C1441 0.950 . S
C1435 C1433 1.387 . S
C1435 C1437 1.390 . S
C1435 H1439 0.950 . S
H1436 C1432 0.950 . S
C1437 C1435 1.390 . S
C1437 C1438 1.387 . S
C1437 H1440 0.950 . S
C1438 C1437 1.387 . S
C1438 C1441 1.387 . S
H1439 C1435 0.950 . S
H1440 C1437 0.950 . S
C1441 C1432 1.390 . S
C1441 H1434 0.950 . S
C1441 C1438 1.387 . S
C1442 C1443 1.387 . S
C1442 H1446 0.950 . S
C1442 C1451 1.390 . S
C1443 C1442 1.387 . S
C1443 C1445 1.387 . S
H1444 C1451 0.950 . S
C1445 C1443 1.387 . S
C1445 C1447 1.390 . S
C1445 H1449 0.950 . S
H1446 C1442 0.950 . S
C1447 C1445 1.390 . S
C1447 C1448 1.387 . S
C1447 H1450 0.950 . S
C1448 C1447 1.387 . S
C1448 C1451 1.387 . S
H1449 C1445 0.950 . S
H1450 C1447 0.950 . S
C1451 C1442 1.390 . S
C1451 H1444 0.950 . S
C1451 C1448 1.387 . S
C1452 C1453 1.387 . S
C1452 H1456 0.950 . S
C1452 C1461 1.390 . S
C1453 C1452 1.387 . S
C1453 C1455 1.387 . S
H1454 C1461 0.950 . S
C1455 C1453 1.387 . S
C1455 C1457 1.390 . S
C1455 H1459 0.950 . S
H1456 C1452 0.950 . S
C1457 C1455 1.390 . S
C1457 C1458 1.387 . S
C1457 H1460 0.950 . S
C1458 C1457 1.387 . S
C1458 C1461 1.387 . S
H1459 C1455 0.950 . S
H1460 C1457 0.950 . S
C1461 C1452 1.390 . S
C1461 H1454 0.950 . S
C1461 C1458 1.387 . S
C1462 C1463 1.387 . S
C1462 H1466 0.950 . S
C1462 C1471 1.390 . S
C1463 C1462 1.387 . S
C1463 C1465 1.387 . S
H1464 C1471 0.950 . S
C1465 C1463 1.387 . S
C1465 C1467 1.390 . S
C1465 H1469 0.950 . S
H1466 C1462 0.950 . S
C1467 C1465 1.390 . S
C1467 C1468 1.387 . S
C1467 H1470 0.950 . S
C1468 C1467 1.387 . S
C1468 C1471 1.387 . S
H1469 C1465 0.950 . S
H1470 C1467 0.950 . S
C1471 C1462 1.390 . S
C1471 H1464 0.950 . S
C1471 C1468 1.387 . S
C1472 C1473 1.387 . S
C1472 H1476 0.950 . S
C1472 C1481 1.390 1_545 S
C1473 C1472 1.387 . S
C1473 C1475 1.387 . S
H1474 C1481 0.950 . S
C1475 C1473 1.387 . S
C1475 C1477 1.390 1_545 S
C1475 H1479 0.950 . S
H1476 C1472 0.950 . S
C1477 C1475 1.390 1_565 S
C1477 C1478 1.387 . S
C1477 H1480 0.950 . S
C1478 C1477 1.387 . S
C1478 C1481 1.387 . S
H1479 C1475 0.950 . S
H1480 C1477 0.950 . S
C1481 C1472 1.390 1_565 S
C1481 H1474 0.950 . S
C1481 C1478 1.387 . S
C1482 C1483 1.387 . S
C1482 H1486 0.950 . S
C1482 C1491 1.390 . S
C1483 C1482 1.387 . S
C1483 C1485 1.387 . S
H1484 C1491 0.950 . S
C1485 C1483 1.387 . S
C1485 C1487 1.390 . S
C1485 H1489 0.950 . S
H1486 C1482 0.950 . S
C1487 C1485 1.390 . S
C1487 C1488 1.387 . S
C1487 H1490 0.950 . S
C1488 C1487 1.387 . S
C1488 C1491 1.387 . S
H1489 C1485 0.950 . S
H1490 C1487 0.950 . S
C1491 C1482 1.390 . S
C1491 H1484 0.950 . S
C1491 C1488 1.387 . S
C1492 C1493 1.387 . S
C1492 H1496 0.950 . S
C1492 C1501 1.390 1_545 S
C1493 C1492 1.387 . S
C1493 C1495 1.387 . S
H1494 C1501 0.950 . S
C1495 C1493 1.387 . S
C1495 C1497 1.390 1_545 S
C1495 H1499 0.950 . S
H1496 C1492 0.950 . S
C1497 C1495 1.390 1_565 S
C1497 C1498 1.387 . S
C1497 H1500 0.950 . S
C1498 C1497 1.387 . S
C1498 C1501 1.387 . S
H1499 C1495 0.950 . S
H1500 C1497 0.950 . S
C1501 C1492 1.390 1_565 S
C1501 H1494 0.950 . S
C1501 C1498 1.387 . S
C1502 C1503 1.387 . S
C1502 H1506 0.950 . S
C1502 C1511 1.390 1_556 S
C1503 C1502 1.387 . S
C1503 C1505 1.387 . S
H1504 C1511 0.950 . S
C1505 C1503 1.387 . S
C1505 C1507 1.390 1_556 S
C1505 H1509 0.950 . S
H1506 C1502 0.950 . S
C1507 C1505 1.390 1_554 S
C1507 C1508 1.387 . S
C1507 H1510 0.950 . S
C1508 C1507 1.387 . S
C1508 C1511 1.387 . S
H1509 C1505 0.950 . S
H1510 C1507 0.950 . S
C1511 C1502 1.390 1_554 S
C1511 H1504 0.950 . S
C1511 C1508 1.387 . S
C1512 C1513 1.387 . S
C1512 H1516 0.950 . S
C1512 C1521 1.390 1_565 S
C1513 C1512 1.387 . S
C1513 C1515 1.387 . S
H1514 C1521 0.950 . S
C1515 C1513 1.387 . S
C1515 C1517 1.390 1_565 S
C1515 H1519 0.950 . S
H1516 C1512 0.950 . S
C1517 C1515 1.390 1_545 S
C1517 C1518 1.387 . S
C1517 H1520 0.950 . S
C1518 C1517 1.387 . S
C1518 C1521 1.387 . S
H1519 C1515 0.950 . S
H1520 C1517 0.950 . S
C1521 C1512 1.390 1_545 S
C1521 H1514 0.950 . S
C1521 C1518 1.387 . S
C1522 C1523 1.387 . S
C1522 H1526 0.950 . S
C1522 C1531 1.390 . S
C1523 C1522 1.387 . S
C1523 C1525 1.387 . S
H1524 C1531 0.950 . S
C1525 C1523 1.387 . S
C1525 C1527 1.390 . S
C1525 H1529 0.950 . S
H1526 C1522 0.950 . S
C1527 C1525 1.390 . S
C1527 C1528 1.387 . S
C1527 H1530 0.950 . S
C1528 C1527 1.387 . S
C1528 C1531 1.387 . S
H1529 C1525 0.950 . S
H1530 C1527 0.950 . S
C1531 C1522 1.390 . S
C1531 H1524 0.950 . S
C1531 C1528 1.387 . S
C1532 C1533 1.387 . S
C1532 H1536 0.950 . S
C1532 C1541 1.390 1_565 S
C1533 C1532 1.387 . S
C1533 C1535 1.387 . S
H1534 C1541 0.950 . S
C1535 C1533 1.387 . S
C1535 C1537 1.390 1_565 S
C1535 H1539 0.950 . S
H1536 C1532 0.950 . S
C1537 C1535 1.390 1_545 S
C1537 C1538 1.387 . S
C1537 H1540 0.950 . S
C1538 C1537 1.387 . S
C1538 C1541 1.387 . S
H1539 C1535 0.950 . S
H1540 C1537 0.950 . S
C1541 C1532 1.390 1_545 S
C1541 H1534 0.950 . S
C1541 C1538 1.387 . S
C1542 C1543 1.387 . S
C1542 H1546 0.950 . S
C1542 C1551 1.390 1_554 S
C1543 C1542 1.387 . S
C1543 C1545 1.387 . S
H1544 C1551 0.950 . S
C1545 C1543 1.387 . S
C1545 C1547 1.390 1_554 S
C1545 H1549 0.950 . S
H1546 C1542 0.950 . S
C1547 C1545 1.390 1_556 S
C1547 C1548 1.387 . S
C1547 H1550 0.950 . S
C1548 C1547 1.387 . S
C1548 C1551 1.387 . S
H1549 C1545 0.950 . S
H1550 C1547 0.950 . S
C1551 C1542 1.390 1_556 S
C1551 H1544 0.950 . S
C1551 C1548 1.387 . S
C1552 C1553 1.387 . S
C1552 H1556 0.950 . S
C1552 C1561 1.390 . S
C1553 C1552 1.387 . S
C1553 C1555 1.387 . S
H1554 C1561 0.950 . S
C1555 C1553 1.387 . S
C1555 C1557 1.390 . S
C1555 H1559 0.950 . S
H1556 C1552 0.950 . S
C1557 C1555 1.390 . S
C1557 C1558 1.387 . S
C1557 H1560 0.950 . S
C1558 C1557 1.387 . S
C1558 C1561 1.387 . S
H1559 C1555 0.950 . S
H1560 C1557 0.950 . S
C1561 C1552 1.390 . S
C1561 H1554 0.950 . S
C1561 C1558 1.387 . S
C1562 C1563 1.387 . S
C1562 H1566 0.950 . S
C1562 C1571 1.390 1_556 S
C1563 C1562 1.387 . S
C1563 C1565 1.387 . S
H1564 C1571 0.950 . S
C1565 C1563 1.387 . S
C1565 C1567 1.390 1_556 S
C1565 H1569 0.950 . S
H1566 C1562 0.950 . S
C1567 C1565 1.390 1_554 S
C1567 C1568 1.387 . S
C1567 H1570 0.950 . S
C1568 C1567 1.387 . S
C1568 C1571 1.387 . S
H1569 C1565 0.950 . S
H1570 C1567 0.950 . S
C1571 C1562 1.390 1_554 S
C1571 H1564 0.950 . S
C1571 C1568 1.387 . S
C1572 C1573 1.387 . S
C1572 H1576 0.950 . S
C1572 C1581 1.390 . S
C1573 C1572 1.387 . S
C1573 C1575 1.387 . S
H1574 C1581 0.950 . S
C1575 C1573 1.387 . S
C1575 C1577 1.390 . S
C1575 H1579 0.950 . S
H1576 C1572 0.950 . S
C1577 C1575 1.390 . S
C1577 C1578 1.387 . S
C1577 H1580 0.950 . S
C1578 C1577 1.387 . S
C1578 C1581 1.387 . S
H1579 C1575 0.950 . S
H1580 C1577 0.950 . S
C1581 C1572 1.390 . S
C1581 H1574 0.950 . S
C1581 C1578 1.387 . S
C1582 C1583 1.387 . S
C1582 H1586 0.950 . S
C1582 C1591 1.390 . S
C1583 C1582 1.387 . S
C1583 C1585 1.387 . S
H1584 C1591 0.950 . S
C1585 C1583 1.387 . S
C1585 C1587 1.390 . S
C1585 H1589 0.950 . S
H1586 C1582 0.950 . S
C1587 C1585 1.390 . S
C1587 C1588 1.387 . S
C1587 H1590 0.950 . S
C1588 C1587 1.387 . S
C1588 C1591 1.387 . S
H1589 C1585 0.950 . S
H1590 C1587 0.950 . S
C1591 C1582 1.390 . S
C1591 H1584 0.950 . S
C1591 C1588 1.387 . S
C1592 C1593 1.387 . S
C1592 H1596 0.950 . S
C1592 C1601 1.390 . S
C1593 C1592 1.387 . S
C1593 C1595 1.387 . S
H1594 C1601 0.950 . S
C1595 C1593 1.387 . S
C1595 C1597 1.390 . S
C1595 H1599 0.950 . S
H1596 C1592 0.950 . S
C1597 C1595 1.390 . S
C1597 C1598 1.387 . S
C1597 H1600 0.950 . S
C1598 C1597 1.387 . S
C1598 C1601 1.387 . S
H1599 C1595 0.950 . S
H1600 C1597 0.950 . S
C1601 C1592 1.390 . S
C1601 H1594 0.950 . S
C1601 C1598 1.387 . S
C1602 C1603 1.387 . S
C1602 H1606 0.950 . S
C1602 C1611 1.390 1_556 S
C1603 C1602 1.387 . S
C1603 C1605 1.387 . S
H1604 C1611 0.950 . S
C1605 C1603 1.387 . S
C1605 C1607 1.390 1_556 S
C1605 H1609 0.950 . S
H1606 C1602 0.950 . S
C1607 C1605 1.390 1_554 S
C1607 C1608 1.387 . S
C1607 H1610 0.950 . S
C1608 C1607 1.387 . S
C1608 C1611 1.387 . S
H1609 C1605 0.950 . S
H1610 C1607 0.950 . S
C1611 C1602 1.390 1_554 S
C1611 H1604 0.950 . S
C1611 C1608 1.387 . S
C1612 C1613 1.387 . S
C1612 H1616 0.950 . S
C1612 C1621 1.390 . S
C1613 C1612 1.387 . S
C1613 C1615 1.387 . S
H1614 C1621 0.950 . S
C1615 C1613 1.387 . S
C1615 C1617 1.390 . S
C1615 H1619 0.950 . S
H1616 C1612 0.950 . S
C1617 C1615 1.390 . S
C1617 C1618 1.387 . S
C1617 H1620 0.950 . S
C1618 C1617 1.387 . S
C1618 C1621 1.387 . S
H1619 C1615 0.950 . S
H1620 C1617 0.950 . S
C1621 C1612 1.390 . S
C1621 H1614 0.950 . S
C1621 C1618 1.387 . S
C1622 C1623 1.387 . S
C1622 H1626 0.950 . S
C1622 C1631 1.390 . S
C1623 C1622 1.387 . S
C1623 C1625 1.387 . S
H1624 C1631 0.950 . S
C1625 C1623 1.387 . S
C1625 C1627 1.390 . S
C1625 H1629 0.950 . S
H1626 C1622 0.950 . S
C1627 C1625 1.390 . S
C1627 C1628 1.387 . S
C1627 H1630 0.950 . S
C1628 C1627 1.387 . S
C1628 C1631 1.387 . S
H1629 C1625 0.950 . S
H1630 C1627 0.950 . S
C1631 C1622 1.390 . S
C1631 H1624 0.950 . S
C1631 C1628 1.387 . S
C673 C15 0.756 . S
C678 C583 0.750 . S
C683 C39 0.752 . S
C688 C184 0.755 . S
C693 C60 0.757 . S
C698 C541 0.751 . S
C703 C226 0.754 . S
C708 C81 0.752 . S
C713 C102 0.757 . S
C718 C625 0.757 . S
C723 C310 0.752 . S
C728 C123 0.757 . S
C733 C667 0.750 . S
C738 C144 0.752 . S
C743 C165 0.752 . S
C748 C268 0.756 . S
C753 C186 0.754 . S
C758 C415 0.758 . S
C763 C207 0.752 . S
C768 C13 0.756 . S
C773 C373 0.750 . S
C778 C228 0.756 . S
C783 C58 0.752 . S
C788 C249 0.757 . S
C793 C270 0.753 . S
C798 C457 0.757 . S
C803 C291 0.756 . S
C808 C142 0.750 . S
C813 C312 0.752 . S
C818 C499 0.751 . S
C823 C100 0.750 . S
C828 C333 0.752 . S
C833 C247 0.755 . S
C838 C351 0.758 . S
C843 C520 0.754 . S
C848 C375 0.752 . S
C853 C205 0.758 . S
C858 C396 0.754 . S
C863 C417 0.755 . S
C868 C562 0.749 . S
C873 C289 0.750 . S
C878 C438 0.753 . S
C883 C646 0.756 . S
C888 C459 0.752 . S
C893 C331 0.758 . S
C898 C480 0.755 . S
C903 C501 0.755 . S
C908 C604 0.758 . S
C913 C522 0.753 . S
C918 C79 0.757 . S
C923 C543 0.758 . S
C928 C349 0.753 . S
C933 C564 0.757 . S
C938 C37 0.757 . S
C943 C585 0.752 . S
C948 C394 0.755 . S
C953 C121 0.756 . S
C958 C606 0.758 . S
C963 C478 0.752 . S
C968 C627 0.758 . S
C973 C648 0.752 . S
C978 C163 0.755 . S
C983 C669 0.756 . S
C988 C436 0.750 . S
C993 C17 1.412 . S
C998 C392 1.412 . S
C1003 C413 1.414 . S
C1008 C35 1.414 . S
C1013 C56 1.414 . S
C1018 C353 1.414 . S
C1023 C77 1.414 . S
C1028 C371 1.414 . S
C1033 C476 1.414 . S
C1038 C98 1.414 . S
C1043 C119 1.414 . S
C1048 C497 1.414 . S
C1053 C434 1.414 . S
C1058 C140 1.414 . S
C1063 C161 1.412 . S
C1068 C455 1.412 . S
C1073 C560 1.412 . S
C1078 C182 1.412 . S
C1083 C203 1.412 . S
C1088 C581 1.412 . S
C1093 C224 1.414 . S
C1098 C518 1.414 . S
C1103 C245 1.414 . S
C1108 C539 1.414 . S
C1113 C644 1.412 . S
C1118 C266 1.412 . S
C1123 C665 1.412 . S
C1128 C287 1.412 . S
C1133 C308 1.412 . S
C1138 C602 1.412 . S
C1143 C329 1.412 . S
C1148 C623 1.412 . S
C1153 C16 1.232 . S
C1158 C517 1.232 . S
C1163 C202 1.226 . S
C1168 C34 1.226 . S
C1173 C55 1.231 . S
C1178 C559 1.231 . S
C1183 C76 1.233 . S
C1188 C244 1.233 . S
C1193 C601 1.232 . S
C1198 C97 1.232 . S
C1203 C286 1.229 . S
C1208 C118 1.229 . S
C1213 C139 1.232 . S
C1218 C643 1.232 . S
C1223 C160 1.227 . S
C1228 C328 1.227 . S
C1233 C352 1.228 . S
C1238 C181 1.228 . S
C1243 C391 1.226 . S
C1248 C223 1.226 . S
C1253 C433 1.228 . S
C1258 C265 1.228 . S
C1263 C307 1.230 . S
C1268 C475 1.230 . S
C1273 C370 1.232 . S
C1278 C538 1.232 . S
C1283 C412 1.232 . S
C1288 C580 1.232 . S
C1293 C622 1.232 . S
C1298 C454 1.232 . S
C1303 C664 1.232 . S
C1308 C496 1.232 . S
C1313 C18 1.896 . S
C1318 C120 1.899 1_545 S
C1323 C141 1.896 . S
C1328 C36 1.899 1_545 S
C1333 C162 1.896 1_565 S
C1338 C57 1.899 . S
C1343 C99 1.896 . S
C1348 C78 1.897 1_565 S
C1353 C183 1.896 . S
C1358 C288 1.899 1_565 S
C1363 C204 1.899 1_565 S
C1368 C309 1.896 . S
C1373 C330 1.896 1_545 S
C1378 C225 1.898 . S
C1383 C246 1.898 1_545 S
C1388 C267 1.899 . S
C1393 C354 1.899 . S
C1398 C456 1.896 . S
C1403 C372 1.897 . S
C1408 C477 1.896 . S
C1413 C393 1.896 . S
C1418 C498 1.898 . S
C1423 C435 1.896 . S
C1428 C414 1.898 . S
C1433 C519 1.899 . S
C1438 C624 1.896 . S
C1443 C540 1.898 . S
C1448 C645 1.899 . S
C1453 C666 1.897 . S
C1458 C561 1.899 . S
C1463 C582 1.898 . S
C1468 C603 1.896 . S
C1473 C14 1.786 . S
C1478 C101 1.786 . S
C1483 C38 1.786 . S
C1488 C122 1.786 . S
C1493 C143 1.786 . S
C1498 C59 1.786 . S
C1503 C164 1.789 . S
C1508 C80 1.789 . S
C1513 C185 1.789 . S
C1518 C269 1.789 . S
C1523 C290 1.789 . S
C1528 C206 1.789 . S
C1533 C311 1.789 . S
C1538 C227 1.789 . S
C1543 C332 1.786 . S
C1548 C248 1.786 . S
C1553 C350 1.789 . S
C1558 C437 1.789 . S
C1563 C458 1.789 . S
C1568 C374 1.789 . S
C1573 C395 1.786 . S
C1578 C479 1.786 . S
C1583 C500 1.786 . S
C1588 C416 1.786 . S
C1593 C605 1.786 . S
C1598 C521 1.786 . S
C1603 C542 1.786 . S
C1608 C626 1.786 . S
C1613 C563 1.789 . S
C1618 C647 1.789 . S
C1623 C584 1.789 . S
C1628 C668 1.789 . S
