# Generated by pormake.
# Topology wlg, (5)-cn, num edge types: 1
# Building blocks:
#     Node 0, Type 0, BuildingBlock: XOMCOT_clean_sbu_0, # of connection points: 5
#     Node 1, Type 0, BuildingBlock: XOMCOT_clean_sbu_0, # of connection points: 5
#     Node 2, Type 0, BuildingBlock: XOMCOT_clean_sbu_0, # of connection points: 5
#     Node 3, Type 0, BuildingBlock: XOMCOT_clean_sbu_0, # of connection points: 5
#     Node 4, Type 0, BuildingBlock: XOMCOT_clean_sbu_0, # of connection points: 5
#     Node 5, Type 0, BuildingBlock: XOMCOT_clean_sbu_0, # of connection points: 5
#     Node 6, Type 0, BuildingBlock: XOMCOT_clean_sbu_0, # of connection points: 5
#     Node 7, Type 0, BuildingBlock: XOMCOT_clean_sbu_0, # of connection points: 5
#     Node 8, Type 0, BuildingBlock: XOMCOT_clean_sbu_0, # of connection points: 5
#     Node 9, Type 0, BuildingBlock: XOMCOT_clean_sbu_0, # of connection points: 5
#     Node 10, Type 0, BuildingBlock: XOMCOT_clean_sbu_0, # of connection points: 5
#     Node 11, Type 0, BuildingBlock: XOMCOT_clean_sbu_0, # of connection points: 5
#     Node 12, Type 0, BuildingBlock: XOMCOT_clean_sbu_0, # of connection points: 5
#     Node 13, Type 0, BuildingBlock: XOMCOT_clean_sbu_0, # of connection points: 5
#     Node 14, Type 0, BuildingBlock: XOMCOT_clean_sbu_0, # of connection points: 5
#     Node 15, Type 0, BuildingBlock: XOMCOT_clean_sbu_0, # of connection points: 5
#     Node 16, Type 0, BuildingBlock: XOMCOT_clean_sbu_0, # of connection points: 5
#     Node 17, Type 0, BuildingBlock: XOMCOT_clean_sbu_0, # of connection points: 5
#     Node 18, Type 0, BuildingBlock: XOMCOT_clean_sbu_0, # of connection points: 5
#     Node 19, Type 0, BuildingBlock: XOMCOT_clean_sbu_0, # of connection points: 5
#     Node 20, Type 0, BuildingBlock: XOMCOT_clean_sbu_0, # of connection points: 5
#     Node 21, Type 0, BuildingBlock: XOMCOT_clean_sbu_0, # of connection points: 5
#     Node 22, Type 0, BuildingBlock: XOMCOT_clean_sbu_0, # of connection points: 5
#     Node 23, Type 0, BuildingBlock: XOMCOT_clean_sbu_0, # of connection points: 5
#     Node 24, Type 0, BuildingBlock: XOMCOT_clean_sbu_0, # of connection points: 5
#     Node 25, Type 0, BuildingBlock: XOMCOT_clean_sbu_0, # of connection points: 5
#     Node 26, Type 0, BuildingBlock: XOMCOT_clean_sbu_0, # of connection points: 5
#     Node 27, Type 0, BuildingBlock: XOMCOT_clean_sbu_0, # of connection points: 5
#     Node 28, Type 0, BuildingBlock: XOMCOT_clean_sbu_0, # of connection points: 5
#     Node 29, Type 0, BuildingBlock: XOMCOT_clean_sbu_0, # of connection points: 5
#     Node 30, Type 0, BuildingBlock: XOMCOT_clean_sbu_0, # of connection points: 5
#     Node 31, Type 0, BuildingBlock: XOMCOT_clean_sbu_0, # of connection points: 5
#     Node 32, Type 0, BuildingBlock: XOMCOT_clean_sbu_0, # of connection points: 5
#     Node 33, Type 0, BuildingBlock: XOMCOT_clean_sbu_0, # of connection points: 5
#     Node 34, Type 0, BuildingBlock: XOMCOT_clean_sbu_0, # of connection points: 5
#     Node 35, Type 0, BuildingBlock: XOMCOT_clean_sbu_0, # of connection points: 5
#     Edge 36, Type (0, 0), BuildingBlock: TEMPAE_clean_linker_10, # of connection points: 2
#     Edge 37, Type (0, 0), BuildingBlock: TEMPAE_clean_linker_10, # of connection points: 2
#     Edge 38, Type (0, 0), BuildingBlock: TEMPAE_clean_linker_10, # of connection points: 2
#     Edge 39, Type (0, 0), BuildingBlock: TEMPAE_clean_linker_10, # of connection points: 2
#     Edge 40, Type (0, 0), BuildingBlock: TEMPAE_clean_linker_10, # of connection points: 2
#     Edge 41, Type (0, 0), BuildingBlock: TEMPAE_clean_linker_10, # of connection points: 2
#     Edge 42, Type (0, 0), BuildingBlock: TEMPAE_clean_linker_10, # of connection points: 2
#     Edge 43, Type (0, 0), BuildingBlock: TEMPAE_clean_linker_10, # of connection points: 2
#     Edge 44, Type (0, 0), BuildingBlock: TEMPAE_clean_linker_10, # of connection points: 2
#     Edge 45, Type (0, 0), BuildingBlock: TEMPAE_clean_linker_10, # of connection points: 2
#     Edge 46, Type (0, 0), BuildingBlock: TEMPAE_clean_linker_10, # of connection points: 2
#     Edge 47, Type (0, 0), BuildingBlock: TEMPAE_clean_linker_10, # of connection points: 2
#     Edge 48, Type (0, 0), BuildingBlock: TEMPAE_clean_linker_10, # of connection points: 2
#     Edge 49, Type (0, 0), BuildingBlock: TEMPAE_clean_linker_10, # of connection points: 2
#     Edge 50, Type (0, 0), BuildingBlock: TEMPAE_clean_linker_10, # of connection points: 2
#     Edge 51, Type (0, 0), BuildingBlock: TEMPAE_clean_linker_10, # of connection points: 2
#     Edge 52, Type (0, 0), BuildingBlock: TEMPAE_clean_linker_10, # of connection points: 2
#     Edge 53, Type (0, 0), BuildingBlock: TEMPAE_clean_linker_10, # of connection points: 2
#     Edge 54, Type (0, 0), BuildingBlock: TEMPAE_clean_linker_10, # of connection points: 2
#     Edge 55, Type (0, 0), BuildingBlock: TEMPAE_clean_linker_10, # of connection points: 2
#     Edge 56, Type (0, 0), BuildingBlock: TEMPAE_clean_linker_10, # of connection points: 2
#     Edge 57, Type (0, 0), BuildingBlock: TEMPAE_clean_linker_10, # of connection points: 2
#     Edge 58, Type (0, 0), BuildingBlock: TEMPAE_clean_linker_10, # of connection points: 2
#     Edge 59, Type (0, 0), BuildingBlock: TEMPAE_clean_linker_10, # of connection points: 2
#     Edge 60, Type (0, 0), BuildingBlock: TEMPAE_clean_linker_10, # of connection points: 2
#     Edge 61, Type (0, 0), BuildingBlock: TEMPAE_clean_linker_10, # of connection points: 2
#     Edge 62, Type (0, 0), BuildingBlock: TEMPAE_clean_linker_10, # of connection points: 2
#     Edge 63, Type (0, 0), BuildingBlock: TEMPAE_clean_linker_10, # of connection points: 2
#     Edge 64, Type (0, 0), BuildingBlock: TEMPAE_clean_linker_10, # of connection points: 2
#     Edge 65, Type (0, 0), BuildingBlock: TEMPAE_clean_linker_10, # of connection points: 2
#     Edge 66, Type (0, 0), BuildingBlock: TEMPAE_clean_linker_10, # of connection points: 2
#     Edge 67, Type (0, 0), BuildingBlock: TEMPAE_clean_linker_10, # of connection points: 2
#     Edge 68, Type (0, 0), BuildingBlock: TEMPAE_clean_linker_10, # of connection points: 2
#     Edge 69, Type (0, 0), BuildingBlock: TEMPAE_clean_linker_10, # of connection points: 2
#     Edge 70, Type (0, 0), BuildingBlock: TEMPAE_clean_linker_10, # of connection points: 2
#     Edge 71, Type (0, 0), BuildingBlock: TEMPAE_clean_linker_10, # of connection points: 2
#     Edge 72, Type (0, 0), BuildingBlock: TEMPAE_clean_linker_10, # of connection points: 2
#     Edge 73, Type (0, 0), BuildingBlock: TEMPAE_clean_linker_10, # of connection points: 2
#     Edge 74, Type (0, 0), BuildingBlock: TEMPAE_clean_linker_10, # of connection points: 2
#     Edge 75, Type (0, 0), BuildingBlock: TEMPAE_clean_linker_10, # of connection points: 2
#     Edge 76, Type (0, 0), BuildingBlock: TEMPAE_clean_linker_10, # of connection points: 2
#     Edge 77, Type (0, 0), BuildingBlock: TEMPAE_clean_linker_10, # of connection points: 2
#     Edge 78, Type (0, 0), BuildingBlock: TEMPAE_clean_linker_10, # of connection points: 2
#     Edge 79, Type (0, 0), BuildingBlock: TEMPAE_clean_linker_10, # of connection points: 2
#     Edge 80, Type (0, 0), BuildingBlock: TEMPAE_clean_linker_10, # of connection points: 2
#     Edge 81, Type (0, 0), BuildingBlock: TEMPAE_clean_linker_10, # of connection points: 2
#     Edge 82, Type (0, 0), BuildingBlock: TEMPAE_clean_linker_10, # of connection points: 2
#     Edge 83, Type (0, 0), BuildingBlock: TEMPAE_clean_linker_10, # of connection points: 2
#     Edge 84, Type (0, 0), BuildingBlock: TEMPAE_clean_linker_10, # of connection points: 2
#     Edge 85, Type (0, 0), BuildingBlock: TEMPAE_clean_linker_10, # of connection points: 2
#     Edge 86, Type (0, 0), BuildingBlock: TEMPAE_clean_linker_10, # of connection points: 2
#     Edge 87, Type (0, 0), BuildingBlock: TEMPAE_clean_linker_10, # of connection points: 2
#     Edge 88, Type (0, 0), BuildingBlock: TEMPAE_clean_linker_10, # of connection points: 2
#     Edge 89, Type (0, 0), BuildingBlock: TEMPAE_clean_linker_10, # of connection points: 2
#     Edge 90, Type (0, 0), BuildingBlock: TEMPAE_clean_linker_10, # of connection points: 2
#     Edge 91, Type (0, 0), BuildingBlock: TEMPAE_clean_linker_10, # of connection points: 2
#     Edge 92, Type (0, 0), BuildingBlock: TEMPAE_clean_linker_10, # of connection points: 2
#     Edge 93, Type (0, 0), BuildingBlock: TEMPAE_clean_linker_10, # of connection points: 2
#     Edge 94, Type (0, 0), BuildingBlock: TEMPAE_clean_linker_10, # of connection points: 2
#     Edge 95, Type (0, 0), BuildingBlock: TEMPAE_clean_linker_10, # of connection points: 2
#     Edge 96, Type (0, 0), BuildingBlock: TEMPAE_clean_linker_10, # of connection points: 2
#     Edge 97, Type (0, 0), BuildingBlock: TEMPAE_clean_linker_10, # of connection points: 2
#     Edge 98, Type (0, 0), BuildingBlock: TEMPAE_clean_linker_10, # of connection points: 2
#     Edge 99, Type (0, 0), BuildingBlock: TEMPAE_clean_linker_10, # of connection points: 2
#     Edge 100, Type (0, 0), BuildingBlock: TEMPAE_clean_linker_10, # of connection points: 2
#     Edge 101, Type (0, 0), BuildingBlock: TEMPAE_clean_linker_10, # of connection points: 2
#     Edge 102, Type (0, 0), BuildingBlock: TEMPAE_clean_linker_10, # of connection points: 2
#     Edge 103, Type (0, 0), BuildingBlock: TEMPAE_clean_linker_10, # of connection points: 2
#     Edge 104, Type (0, 0), BuildingBlock: TEMPAE_clean_linker_10, # of connection points: 2
#     Edge 105, Type (0, 0), BuildingBlock: TEMPAE_clean_linker_10, # of connection points: 2
#     Edge 106, Type (0, 0), BuildingBlock: TEMPAE_clean_linker_10, # of connection points: 2
#     Edge 107, Type (0, 0), BuildingBlock: TEMPAE_clean_linker_10, # of connection points: 2
#     Edge 108, Type (0, 0), BuildingBlock: TEMPAE_clean_linker_10, # of connection points: 2
#     Edge 109, Type (0, 0), BuildingBlock: TEMPAE_clean_linker_10, # of connection points: 2
#     Edge 110, Type (0, 0), BuildingBlock: TEMPAE_clean_linker_10, # of connection points: 2
#     Edge 111, Type (0, 0), BuildingBlock: TEMPAE_clean_linker_10, # of connection points: 2
#     Edge 112, Type (0, 0), BuildingBlock: TEMPAE_clean_linker_10, # of connection points: 2
#     Edge 113, Type (0, 0), BuildingBlock: TEMPAE_clean_linker_10, # of connection points: 2
#     Edge 114, Type (0, 0), BuildingBlock: TEMPAE_clean_linker_10, # of connection points: 2
#     Edge 115, Type (0, 0), BuildingBlock: TEMPAE_clean_linker_10, # of connection points: 2
#     Edge 116, Type (0, 0), BuildingBlock: TEMPAE_clean_linker_10, # of connection points: 2
#     Edge 117, Type (0, 0), BuildingBlock: TEMPAE_clean_linker_10, # of connection points: 2
#     Edge 118, Type (0, 0), BuildingBlock: TEMPAE_clean_linker_10, # of connection points: 2
#     Edge 119, Type (0, 0), BuildingBlock: TEMPAE_clean_linker_10, # of connection points: 2
#     Edge 120, Type (0, 0), BuildingBlock: TEMPAE_clean_linker_10, # of connection points: 2
#     Edge 121, Type (0, 0), BuildingBlock: TEMPAE_clean_linker_10, # of connection points: 2
#     Edge 122, Type (0, 0), BuildingBlock: TEMPAE_clean_linker_10, # of connection points: 2
#     Edge 123, Type (0, 0), BuildingBlock: TEMPAE_clean_linker_10, # of connection points: 2
#     Edge 124, Type (0, 0), BuildingBlock: TEMPAE_clean_linker_10, # of connection points: 2
#     Edge 125, Type (0, 0), BuildingBlock: TEMPAE_clean_linker_10, # of connection points: 2
# Relax obj value: 0.152
# Max RMSD: 0.141
# Mean RMSD: 0.136
data_MOF--net-wlg--node1-XOMCOT_clean_sbu_0--edge1-TEMPAE_clean_linker_10
_symmetry_space_group_name_H-M    P1
_symmetry_Int_Tables_number       1
_symmetry_cell_setting            triclinic
loop_
_symmetry_equiv_pos_as_xyz
'x, y, z'
_cell_length_a     54.780417
_cell_length_b     54.769543
_cell_length_c     77.436902
_cell_angle_alpha  90.060997
_cell_angle_beta   89.911149
_cell_angle_gamma 120.01381
loop_
_atom_site_label
_atom_site_type_symbol
_atom_site_fract_x
_atom_site_fract_y
_atom_site_fract_z
_atom_type_partial_charge
Co0 Co 1.00214 0.16711 0.15235 0.0
C1 C 0.94763 0.16651 0.1603 0.0
C2 C 0.95587 0.16452 0.13337 0.0
C3 C 0.93022 0.16273 0.13477 0.0
N4 N 0.96688 0.16669 0.14926 0.0
N5 N 0.9251 0.164 0.15159 0.0
H6 H 0.94961 0.16759 0.17422 0.0
H7 H 0.96591 0.16428 0.12142 0.0
C8 C 0.97913 0.11912 0.1229 0.0
O9 O 0.98198 0.13102 0.10775 0.0
N10 N 0.03711 0.16665 0.15414 0.0
C11 C 0.06346 0.18869 0.15564 0.0
C12 C 0.08228 0.17919 0.15298 0.0
C13 C 0.04027 0.1443 0.1507 0.0
N14 N 0.06758 0.15115 0.14974 0.0
C15 C 0.0178 0.22014 0.13858 0.0
C16 C 0.04505 0.21818 0.10901 0.0
C17 C 0.04472 0.24304 0.11313 0.0
C18 C 0.03071 0.2437 0.12799 0.0
C19 C 0.03182 0.19477 0.12018 0.0
N20 N 0.01853 0.19618 0.13476 0.0
H21 H 0.00728 0.22122 0.15012 0.0
H22 H 0.03286 0.17596 0.1174 0.0
H23 H 0.06862 0.21031 0.15761 0.0
H24 H 0.02287 0.12374 0.14793 0.0
O25 O 0.01251 0.19157 0.17241 0.0
O26 O 0.98848 0.14485 0.17311 0.0
O27 O 0.98677 0.13386 0.1366 0.0
C28 C 1.00018 0.16854 0.18154 0.0
H29 H 0.91629 0.16072 0.12427 0.0
H30 H 0.10499 0.19224 0.15297 0.0
H31 H 0.05595 0.21716 0.0976 0.0
H32 H 0.03005 0.26251 0.13153 0.0
Co33 Co 0.84032 0.83492 0.15633 0.0
C34 C 0.83541 0.77836 0.16394 0.0
C35 C 0.85204 0.79564 0.13893 0.0
C36 C 0.84958 0.76975 0.13987 0.0
N37 N 0.84345 0.80142 0.15395 0.0
N38 N 0.83876 0.75862 0.1554 0.0
H39 H 0.82605 0.77541 0.17663 0.0
H40 H 0.85835 0.80872 0.12752 0.0
C41 C 0.88978 0.87013 0.12921 0.0
O42 O 0.88107 0.88416 0.11976 0.0
N43 N 0.83858 0.86921 0.15758 0.0
C44 C 0.81574 0.8723 0.15654 0.0
C45 C 0.82472 0.90046 0.15369 0.0
C46 C 0.86095 0.89534 0.15586 0.0
N47 N 0.85318 0.91477 0.153 0.0
C48 C 0.78947 0.79433 0.14124 0.0
C49 C 0.78858 0.82414 0.11276 0.0
C50 C 0.76468 0.79788 0.11649 0.0
C51 C 0.76582 0.78273 0.13068 0.0
C52 C 0.81219 0.83512 0.12379 0.0
N53 N 0.81217 0.8203 0.13798 0.0
H54 H 0.78906 0.78269 0.15258 0.0
H55 H 0.82955 0.85602 0.12148 0.0
H56 H 0.79417 0.85511 0.15653 0.0
H57 H 0.88255 0.89985 0.1559 0.0
O58 O 0.81475 0.8195 0.1759 0.0
O59 O 0.86134 0.84514 0.17761 0.0
O60 O 0.87449 0.85385 0.14124 0.0
C61 C 0.83722 0.83173 0.18552 0.0
H62 H 0.85472 0.75953 0.12968 0.0
H63 H 0.81132 0.90931 0.15109 0.0
H64 H 0.78848 0.83663 0.10195 0.0
H65 H 0.74814 0.76223 0.13393 0.0
Co66 Co 0.17355 0.00317 0.15893 0.0
C67 C 0.22881 0.05485 0.16875 0.0
C68 C 0.21557 0.05471 0.14265 0.0
C69 C 0.24052 0.07898 0.14514 0.0
N70 N 0.20802 0.03931 0.15732 0.0
N71 N 0.24891 0.0791 0.16143 0.0
H72 H 0.22962 0.04853 0.18187 0.0
H73 H 0.20381 0.0489 0.13075 0.0
C74 C 0.13993 0.01687 0.13094 0.0
O75 O 0.12777 0.99398 0.1214 0.0
N76 N 0.13847 0.96749 0.15957 0.0
C77 C 0.1347 0.94122 0.15847 0.0
C78 C 0.10657 0.92248 0.1555 0.0
C79 C 0.11246 0.96416 0.1579 0.0
N80 N 0.09274 0.93703 0.15504 0.0
C81 C 0.20133 0.97429 0.14748 0.0
C82 C 0.20187 0.98269 0.11238 0.0
C83 C 0.21535 0.96846 0.11892 0.0
C84 C 0.21415 0.96384 0.1367 0.0
C85 C 0.18847 0.99248 0.12379 0.0
N86 N 0.18856 0.98843 0.14123 0.0
H87 H 0.20155 0.97028 0.16103 0.0
H88 H 0.17887 0.00383 0.11854 0.0
H89 H 0.15117 0.93591 0.15904 0.0
H90 H 0.10825 0.98146 0.15767 0.0
O91 O 0.18693 0.99286 0.17934 0.0
O92 O 0.16226 0.01467 0.17976 0.0
O93 O 0.15632 0.01937 0.14327 0.0
C94 C 0.17465 0.0036 0.18834 0.0
H95 H 0.25179 0.09543 0.13568 0.0
H96 H 0.09715 0.90003 0.1533 0.0
H97 H 0.20221 0.98679 0.09868 0.0
H98 H 0.22315 0.95209 0.14245 0.0
Co99 Co 0.16901 1.00126 0.3476 0.0
C100 C 0.17355 0.94998 0.33864 0.0
C101 C 0.16821 0.95471 0.36566 0.0
C102 C 0.16919 0.93052 0.36352 0.0
N103 N 0.17125 0.96729 0.35019 0.0
N104 N 0.17252 0.92755 0.34663 0.0
H105 H 0.17588 0.95348 0.32486 0.0
H106 H 0.16444 0.96195 0.37779 0.0
C107 C 0.12142 0.98913 0.3739 0.0
O108 O 0.13158 0.01467 0.38018 0.0
N109 N 0.16655 0.03525 0.34576 0.0
C110 C 0.18835 0.06189 0.34583 0.0
C111 C 0.17808 0.0801 0.34706 0.0
C112 C 0.14325 0.03773 0.34607 0.0
N113 N 0.14962 0.06495 0.34751 0.0
C114 C 0.22578 0.03294 0.35865 0.0
C115 C 0.21818 0.02768 0.39392 0.0
C116 C 0.24579 0.04059 0.38721 0.0
C117 C 0.24911 0.04406 0.36935 0.0
C118 C 0.19492 0.0174 0.38257 0.0
N119 N 0.1989 0.01934 0.36504 0.0
H120 H 0.22994 0.0355 0.34503 0.0
H121 H 0.17396 0.00681 0.38794 0.0
H122 H 0.21034 0.0679 0.34563 0.0
H123 H 0.12212 0.01982 0.34588 0.0
O124 O 0.19253 0.01269 0.32709 0.0
O125 O 0.14612 0.98632 0.32688 0.0
O126 O 0.13606 0.98291 0.36395 0.0
C127 C 0.16954 0.99922 0.31823 0.0
H128 H 0.16676 0.91567 0.37354 0.0
H129 H 0.1909 0.10272 0.34843 0.0
H130 H 0.21452 0.0247 0.4077 0.0
H131 H 0.26984 0.05497 0.36347 0.0
Co132 Co 1.00267 0.17034 0.3413 0.0
C133 C 0.05012 0.23054 0.34229 0.0
C134 C 0.06316 0.19965 0.33951 0.0
C135 C 0.08682 0.22566 0.34076 0.0
N136 N 0.04019 0.20255 0.34055 0.0
N137 N 0.07863 0.24492 0.34254 0.0
H138 H 0.03703 0.24005 0.34371 0.0
H139 H 0.06268 0.17977 0.33822 0.0
C140 C 0.02292 0.14471 0.37269 0.0
O141 O 0.01439 0.1461 0.38833 0.0
N142 N 0.96608 0.13637 0.34239 0.0
C143 C 0.93962 0.13202 0.34145 0.0
C144 C 0.92092 0.10381 0.34449 0.0
C145 C 0.96297 0.11076 0.34549 0.0
N146 N 0.93572 0.09047 0.34715 0.0
C147 C 0.97273 0.19792 0.35122 0.0
C148 C 0.99017 0.20986 0.38512 0.0
C149 C 0.97107 0.21775 0.37873 0.0
C150 C 0.96241 0.21141 0.36155 0.0
C151 C 0.99995 0.19598 0.37421 0.0
N152 N 0.99056 0.18948 0.35757 0.0
H153 H 0.96588 0.1941 0.33799 0.0
H154 H 0.01553 0.19126 0.37907 0.0
H155 H 0.93386 0.1478 0.33887 0.0
H156 H 0.98058 0.10716 0.34645 0.0
O157 O 0.99288 0.18217 0.32033 0.0
O158 O 0.01182 0.15484 0.32122 0.0
O159 O 0.01564 0.15438 0.35998 0.0
C160 C 1.00211 0.16797 0.31195 0.0
H161 H 0.10846 0.23021 0.34044 0.0
H162 H 0.89823 0.09417 0.34505 0.0
H163 H 0.99792 0.2149 0.39824 0.0
H164 H 0.94746 0.21665 0.35601 0.0
Co165 Co 0.83644 0.83648 0.34491 0.0
C166 C 0.77633 0.82542 0.34358 0.0
C167 C 0.80861 0.86798 0.33821 0.0
C168 C 0.78325 0.86713 0.33836 0.0
N169 N 0.80454 0.84201 0.34151 0.0
N170 N 0.76314 0.84051 0.34171 0.0
H171 H 0.7656 0.80332 0.34685 0.0
H172 H 0.82895 0.88666 0.33637 0.0
C173 C 0.8578 0.88484 0.37504 0.0
O174 O 0.85221 0.87573 0.39104 0.0
N175 N 0.86996 0.83406 0.34861 0.0
C176 C 0.87295 0.81208 0.35335 0.0
C177 C 0.90074 0.82228 0.35808 0.0
C178 C 0.89571 0.85699 0.35028 0.0
N179 N 0.91507 0.85069 0.35629 0.0
C180 C 0.7962 0.78048 0.3552 0.0
C181 C 0.80889 0.78476 0.38991 0.0
C182 C 0.78865 0.75816 0.38336 0.0
C183 C 0.78279 0.75655 0.36561 0.0
C184 C 0.82256 0.80821 0.37882 0.0
N185 N 0.81573 0.80609 0.36171 0.0
H186 H 0.79098 0.77808 0.34166 0.0
H187 H 0.83943 0.82756 0.38391 0.0
H188 H 0.85597 0.79047 0.35424 0.0
H189 H 0.89965 0.87803 0.34771 0.0
O190 O 0.82716 0.81335 0.32436 0.0
O191 O 0.85382 0.85982 0.32457 0.0
O192 O 0.85006 0.86719 0.36265 0.0
C193 C 0.84153 0.8365 0.31572 0.0
H194 H 0.77975 0.88473 0.33644 0.0
H195 H 0.90918 0.80968 0.36321 0.0
H196 H 0.81458 0.78758 0.40343 0.0
H197 H 0.76847 0.73676 0.35942 0.0
Co198 Co 0.00432 0.8357 0.84861 0.0
C199 C 0.05697 0.83513 0.83721 0.0
C200 C 0.04921 0.83024 0.86453 0.0
C201 C 0.07376 0.83023 0.86131 0.0
N202 N 0.03827 0.83286 0.84949 0.0
N203 N 0.07862 0.83334 0.84424 0.0
H204 H 0.05508 0.83812 0.82359 0.0
H205 H 0.04026 0.82904 0.87716 0.0
C206 C 0.01696 0.88364 0.87382 0.0
O207 O 0.99073 0.87417 0.8786 0.0
N208 N 0.97035 0.83859 0.84827 0.0
C209 C 0.94419 0.81779 0.85238 0.0
C210 C 0.92673 0.829 0.85378 0.0
C211 C 0.96801 0.86187 0.84619 0.0
N212 N 0.94174 0.85666 0.84999 0.0
C213 C 0.98143 0.77953 0.86046 0.0
C214 C 0.96973 0.78644 0.89423 0.0
C215 C 0.9625 0.75939 0.88837 0.0
C216 C 0.96862 0.75616 0.87132 0.0
C217 C 0.98226 0.80945 0.88277 0.0
N218 N 0.98768 0.80574 0.86601 0.0
H219 H 0.98654 0.77647 0.84748 0.0
H220 H 0.98759 0.82996 0.88748 0.0
H221 H 0.93844 0.79626 0.85524 0.0
H222 H 0.98575 0.88272 0.84378 0.0
O223 O 0.99067 0.81226 0.82812 0.0
O224 O 0.0178 0.85872 0.82795 0.0
O225 O 0.02399 0.86781 0.86563 0.0
C226 C 0.00401 0.8354 0.81923 0.0
H227 H 0.0874 0.82862 0.8708 0.0
H228 H 0.90513 0.81811 0.85832 0.0
H229 H 0.9655 0.78968 0.90745 0.0
H230 H 0.96373 0.73566 0.86644 0.0
Co231 Co 0.16762 0.17182 0.84727 0.0
C232 C 0.16806 0.2252 0.83638 0.0
C233 C 0.17256 0.22144 0.86364 0.0
C234 C 0.17271 0.24611 0.86082 0.0
N235 N 0.17016 0.20839 0.84841 0.0
N236 N 0.16987 0.24844 0.84379 0.0
H237 H 0.16517 0.22067 0.8227 0.0
H238 H 0.17351 0.21326 0.87616 0.0
C239 C 0.11945 0.13705 0.87292 0.0
O240 O 0.12832 0.11983 0.87773 0.0
N241 N 0.16514 0.13517 0.8469 0.0
C242 C 0.18655 0.13052 0.85052 0.0
C243 C 0.17589 0.10209 0.85274 0.0
C244 C 0.14196 0.10927 0.84584 0.0
N245 N 0.14785 0.08881 0.85005 0.0
C246 C 0.22341 0.20589 0.85925 0.0
C247 C 0.21718 0.18611 0.89268 0.0
C248 C 0.24403 0.20655 0.88685 0.0
C249 C 0.24688 0.21652 0.86998 0.0
C250 C 0.19406 0.17554 0.88131 0.0
N251 N 0.19747 0.18526 0.86471 0.0
H252 H 0.22618 0.21449 0.8464 0.0
H253 H 0.17374 0.15969 0.88591 0.0
H254 H 0.2082 0.14677 0.85256 0.0
H255 H 0.12084 0.10569 0.84395 0.0
O256 O 0.19128 0.18187 0.8268 0.0
O257 O 0.14487 0.1622 0.82642 0.0
O258 O 0.13524 0.15919 0.86413 0.0
C259 C 0.16829 0.17183 0.81777 0.0
H260 H 0.17413 0.261 0.87055 0.0
H261 H 0.18754 0.09207 0.85705 0.0
H262 H 0.21423 0.17808 0.90575 0.0
H263 H 0.26719 0.23263 0.86513 0.0
Co264 Co 0.83487 1.00147 0.84457 0.0
C265 C 0.77424 0.9542 0.84356 0.0
C266 C 0.80483 0.94203 0.83709 0.0
C267 C 0.77881 0.91826 0.83736 0.0
N268 N 0.80218 0.96462 0.841 0.0
N269 N 0.75976 0.92595 0.84139 0.0
H270 H 0.76468 0.96645 0.84744 0.0
H271 H 0.82465 0.9427 0.83485 0.0
C272 C 0.8689 0.98925 0.87106 0.0
O273 O 0.88394 0.01526 0.87665 0.0
N274 N 0.86872 0.0378 0.84798 0.0
C275 C 0.87089 0.06129 0.8551 0.0
C276 C 0.89892 0.08023 0.85813 0.0
C277 C 0.89557 0.04345 0.84591 0.0
N278 N 0.91434 0.06883 0.85254 0.0
C279 C 0.79761 0.0207 0.85536 0.0
C280 C 0.80706 0.0233 0.89049 0.0
C281 C 0.79098 0.03463 0.88381 0.0
C282 C 0.78591 0.03261 0.86606 0.0
C283 C 0.81885 0.01173 0.87919 0.0
N284 N 0.81454 0.01108 0.86174 0.0
H285 H 0.79333 0.01982 0.84173 0.0
H286 H 0.83208 0.00428 0.88451 0.0
H287 H 0.85345 0.06411 0.8588 0.0
H288 H 0.90104 0.02803 0.84147 0.0
O289 O 0.82606 0.016 0.82415 0.0
O290 O 0.85165 0.99515 0.82417 0.0
O291 O 0.8473 0.98182 0.86154 0.0
C292 C 0.83975 0.00654 0.81534 0.0
H293 H 0.77416 0.89683 0.83512 0.0
H294 H 0.90723 0.10023 0.86477 0.0
H295 H 0.81135 0.02435 0.9042 0.0
H296 H 0.77316 0.04057 0.86041 0.0
Co297 Co 0.83851 0.00338 0.65554 0.0
C298 C 0.83827 0.05578 0.66736 0.0
C299 C 0.83451 0.04926 0.6399 0.0
C300 C 0.83478 0.07388 0.64339 0.0
N301 N 0.83634 0.0376 0.65486 0.0
N302 N 0.83714 0.07787 0.66055 0.0
H303 H 0.84074 0.05329 0.68098 0.0
H304 H 0.83358 0.04066 0.62719 0.0
C305 C 0.88696 0.01671 0.63034 0.0
O306 O 0.87847 0.99059 0.62577 0.0
N307 N 0.84073 0.96912 0.65576 0.0
C308 C 0.81941 0.94283 0.65248 0.0
C309 C 0.83007 0.92482 0.65171 0.0
C310 C 0.86376 0.96646 0.65788 0.0
N311 N 0.85787 0.93973 0.65508 0.0
C312 C 0.7832 0.98355 0.64364 0.0
C313 C 0.78785 0.96595 0.61098 0.0
C314 C 0.76142 0.96088 0.61682 0.0
C315 C 0.75941 0.9702 0.63324 0.0
C316 C 0.81135 0.97921 0.62201 0.0
N317 N 0.80863 0.98738 0.63826 0.0
H318 H 0.7811 0.99076 0.65624 0.0
H319 H 0.83133 0.98231 0.6176 0.0
H320 H 0.79784 0.93729 0.64994 0.0
H321 H 0.8848 0.98407 0.65993 0.0
O322 O 0.81492 0.98991 0.67593 0.0
O323 O 0.86144 0.01616 0.67619 0.0
O324 O 0.87058 0.02301 0.6385 0.0
C325 C 0.83802 0.00278 0.68489 0.0
H326 H 0.83389 0.08814 0.63407 0.0
H327 H 0.8187 0.90285 0.6479 0.0
H328 H 0.79011 0.95906 0.59827 0.0
H329 H 0.73945 0.96706 0.63806 0.0
Co330 Co 1.00116 0.83235 0.65941 0.0
C331 C 0.95492 0.77143 0.66015 0.0
C332 C 0.94154 0.80131 0.66605 0.0
C333 C 0.91821 0.77496 0.66583 0.0
N334 N 0.96458 0.79926 0.66249 0.0
N335 N 0.92669 0.7564 0.66214 0.0
H336 H 0.96774 0.76229 0.65673 0.0
H337 H 0.94165 0.82089 0.66814 0.0
C338 C 0.98914 0.8661 0.63251 0.0
O339 O 0.01504 0.88065 0.62663 0.0
N340 N 0.03708 0.86659 0.65649 0.0
C341 C 0.06151 0.86975 0.65035 0.0
C342 C 0.07959 0.89797 0.64717 0.0
C343 C 0.04117 0.89293 0.6578 0.0
N344 N 0.0665 0.91251 0.65144 0.0
C345 C 0.02155 0.79623 0.64841 0.0
C346 C 0.02573 0.80745 0.61346 0.0
C347 C 0.03739 0.79166 0.6201 0.0
C348 C 0.03442 0.78552 0.63773 0.0
C349 C 0.01303 0.81806 0.62473 0.0
N350 N 0.01174 0.81304 0.64212 0.0
H351 H 0.02013 0.79131 0.66197 0.0
H352 H 0.00517 0.83091 0.61941 0.0
H353 H 0.06553 0.85278 0.64745 0.0
H354 H 0.02452 0.8971 0.66143 0.0
O355 O 0.01535 0.82311 0.67982 0.0
O356 O 0.99419 0.84839 0.67999 0.0
O357 O 0.98165 0.84498 0.64247 0.0
C358 C 0.00569 0.83652 0.68873 0.0
H359 H 0.89658 0.76973 0.66794 0.0
H360 H 0.10028 0.90678 0.64138 0.0
H361 H 0.02741 0.81246 0.59983 0.0
H362 H 0.04245 0.77281 0.64334 0.0
Co363 Co 0.17164 0.16541 0.6572 0.0
C364 C 0.23223 0.17966 0.66231 0.0
C365 C 0.20585 0.13866 0.65147 0.0
C366 C 0.23268 0.14338 0.6519 0.0
N367 N 0.20514 0.16138 0.65775 0.0
N368 N 0.24926 0.16906 0.65857 0.0
H369 H 0.23957 0.20036 0.66773 0.0
H370 H 0.18858 0.11996 0.6461 0.0
C371 C 0.13192 0.11758 0.63275 0.0
O372 O 0.11623 0.12736 0.62649 0.0
N373 N 0.13762 0.16817 0.6565 0.0
C374 C 0.13503 0.19001 0.65078 0.0
C375 C 0.10686 0.18085 0.64822 0.0
C376 C 0.11091 0.1466 0.65838 0.0
N377 N 0.09176 0.15341 0.6527 0.0
C378 C 0.21059 0.22102 0.64597 0.0
C379 C 0.19376 0.21681 0.61202 0.0
C380 C 0.21518 0.24314 0.61816 0.0
C381 C 0.2234 0.24473 0.63542 0.0
C382 C 0.18145 0.19319 0.62313 0.0
N383 N 0.18986 0.19556 0.63998 0.0
H384 H 0.21706 0.22364 0.65927 0.0
H385 H 0.16471 0.17341 0.61827 0.0
H386 H 0.15234 0.21063 0.64751 0.0
H387 H 0.1058 0.1254 0.66182 0.0
O388 O 0.18351 0.18856 0.67783 0.0
O389 O 0.15764 0.14216 0.67796 0.0
O390 O 0.15603 0.13405 0.63941 0.0
C391 C 0.17036 0.16554 0.68678 0.0
H392 H 0.23975 0.1293 0.64722 0.0
H393 H 0.09828 0.19297 0.64248 0.0
H394 H 0.18659 0.21444 0.59878 0.0
H395 H 0.23917 0.26451 0.64103 0.0
Co396 Co 0.66781 0.49868 0.49224 0.0
C397 C 0.61449 0.50266 0.49731 0.0
C398 C 0.6096 0.46146 0.49976 0.0
C399 C 0.58406 0.45922 0.50261 0.0
N400 N 0.62879 0.48844 0.49611 0.0
N401 N 0.58693 0.48507 0.50135 0.0
H402 H 0.62383 0.52514 0.49569 0.0
H403 H 0.61395 0.44427 0.50025 0.0
C404 C 0.63317 0.4552 0.46543 0.0
O405 O 0.61998 0.46895 0.46148 0.0
N406 N 0.70557 0.50565 0.4887 0.0
C407 C 0.72969 0.52902 0.48417 0.0
C408 C 0.74926 0.52107 0.47966 0.0
C409 C 0.71085 0.48428 0.48723 0.0
N410 N 0.73702 0.49278 0.48135 0.0
C411 C 0.67648 0.55174 0.48075 0.0
C412 C 0.69146 0.54919 0.44704 0.0
C413 C 0.69499 0.57504 0.4532 0.0
C414 C 0.68698 0.57569 0.47035 0.0
C415 C 0.68117 0.52559 0.45808 0.0
N416 N 0.67388 0.52709 0.47479 0.0
H417 H 0.67189 0.55371 0.49405 0.0
H418 H 0.68052 0.50668 0.45341 0.0
H419 H 0.73238 0.54993 0.48322 0.0
H420 H 0.69515 0.46254 0.48974 0.0
O421 O 0.67956 0.52294 0.51236 0.0
O422 O 0.665 0.47721 0.5128 0.0
O423 O 0.6548 0.46674 0.47517 0.0
C424 C 0.67368 0.50061 0.52127 0.0
H425 H 0.56477 0.43971 0.50521 0.0
H426 H 0.77019 0.53477 0.47458 0.0
H427 H 0.69711 0.54723 0.43393 0.0
H428 H 0.68998 0.59495 0.47618 0.0
Co429 Co 0.50854 0.16985 0.4913 0.0
C430 C 0.50039 0.1112 0.49699 0.0
C431 C 0.53226 0.13593 0.47838 0.0
C432 C 0.52968 0.11003 0.47889 0.0
N433 N 0.51426 0.13735 0.48979 0.0
N434 N 0.50937 0.09413 0.49024 0.0
H435 H 0.48335 0.1044 0.50621 0.0
H436 H 0.54561 0.15168 0.46919 0.0
C437 C 0.555 0.20887 0.46407 0.0
O438 O 0.54446 0.22336 0.45707 0.0
N439 N 0.5044 0.20298 0.49196 0.0
C440 C 0.48103 0.20474 0.48916 0.0
C441 C 0.48892 0.23282 0.48707 0.0
C442 C 0.52594 0.2299 0.49192 0.0
N443 N 0.51713 0.24844 0.48877 0.0
C444 C 0.4551 0.1291 0.47923 0.0
C445 C 0.45656 0.14966 0.44655 0.0
C446 C 0.43122 0.12627 0.4524 0.0
C447 C 0.43105 0.11627 0.46906 0.0
C448 C 0.4803 0.16251 0.45749 0.0
N449 N 0.4792 0.15231 0.47373 0.0
H450 H 0.45384 0.12051 0.49191 0.0
H451 H 0.49908 0.18076 0.45295 0.0
H452 H 0.46005 0.18686 0.48757 0.0
H453 H 0.5479 0.23573 0.49298 0.0
O454 O 0.48473 0.15477 0.51158 0.0
O455 O 0.531 0.18269 0.51218 0.0
O456 O 0.54124 0.18991 0.47528 0.0
C457 C 0.50755 0.16837 0.52069 0.0
H458 H 0.54133 0.10304 0.47096 0.0
H459 H 0.47528 0.24098 0.48344 0.0
H460 H 0.45811 0.15814 0.43373 0.0
H461 H 0.41221 0.09902 0.47467 0.0
Co462 Co 0.84021 0.34251 0.48856 0.0
C463 C 0.89428 0.39621 0.49708 0.0
C464 C 0.88604 0.38728 0.47003 0.0
C465 C 0.91072 0.41212 0.4716 0.0
N466 N 0.87576 0.37696 0.4859 0.0
N467 N 0.91578 0.41764 0.48849 0.0
H468 H 0.8922 0.39487 0.51095 0.0
H469 H 0.8759 0.37758 0.45797 0.0
C470 C 0.8042 0.35492 0.46266 0.0
O471 O 0.78706 0.32906 0.45744 0.0
N472 N 0.80443 0.30798 0.49007 0.0
C473 C 0.80004 0.28183 0.48718 0.0
C474 C 0.77167 0.26393 0.48462 0.0
C475 C 0.77866 0.30536 0.49027 0.0
N476 N 0.75837 0.27894 0.48621 0.0
C477 C 0.87567 0.32354 0.47581 0.0
C478 C 0.8537 0.30677 0.44308 0.0
C479 C 0.87713 0.30441 0.44804 0.0
C480 C 0.88772 0.31264 0.46474 0.0
C481 C 0.84195 0.31776 0.45478 0.0
N482 N 0.85312 0.32608 0.47092 0.0
H483 H 0.8851 0.33063 0.48836 0.0
H484 H 0.82428 0.31968 0.45074 0.0
H485 H 0.81647 0.27654 0.48563 0.0
H486 H 0.77515 0.323 0.49145 0.0
O487 O 0.85271 0.33063 0.5087 0.0
O488 O 0.83164 0.35612 0.50961 0.0
O489 O 0.82519 0.36081 0.4724 0.0
C490 C 0.84266 0.34338 0.51793 0.0
H491 H 0.92375 0.42555 0.4612 0.0
H492 H 0.76186 0.24203 0.48078 0.0
H493 H 0.84488 0.30067 0.43024 0.0
H494 H 0.90536 0.31072 0.46933 0.0
Co495 Co 0.83683 0.32957 0.67721 0.0
C496 C 0.84726 0.27994 0.67728 0.0
C497 C 0.80863 0.27185 0.6653 0.0
C498 C 0.80987 0.24756 0.66476 0.0
N499 N 0.8322 0.2925 0.67283 0.0
N500 N 0.83404 0.25267 0.67225 0.0
H501 H 0.86707 0.28993 0.68409 0.0
H502 H 0.79115 0.27401 0.6608 0.0
C503 C 0.78926 0.3151 0.70362 0.0
O504 O 0.79952 0.34023 0.71053 0.0
N505 N 0.83915 0.36553 0.68128 0.0
C506 C 0.86124 0.39014 0.68651 0.0
C507 C 0.85221 0.40938 0.68882 0.0
C508 C 0.81745 0.37045 0.6798 0.0
N509 N 0.82453 0.39678 0.68482 0.0
C510 C 0.89159 0.34377 0.6888 0.0
C511 C 0.8863 0.35477 0.72297 0.0
C512 C 0.91291 0.36083 0.71681 0.0
C513 C 0.91512 0.35467 0.69955 0.0
C514 C 0.8629 0.34309 0.71178 0.0
N515 N 0.86577 0.33807 0.6948 0.0
H516 H 0.89433 0.34012 0.67543 0.0
H517 H 0.84295 0.33927 0.7167 0.0
H518 H 0.88219 0.39368 0.68898 0.0
H519 H 0.79648 0.35452 0.67585 0.0
O520 O 0.86159 0.34502 0.65739 0.0
O521 O 0.8152 0.32552 0.65642 0.0
O522 O 0.80385 0.30916 0.69339 0.0
C523 C 0.83908 0.33703 0.64817 0.0
H524 H 0.79407 0.22746 0.65951 0.0
H525 H 0.86475 0.43056 0.69384 0.0
H526 H 0.88366 0.3592 0.73626 0.0
H527 H 0.93522 0.35921 0.69415 0.0
Co528 Co 0.67723 0.50448 0.68066 0.0
C529 C 0.73186 0.55548 0.66961 0.0
C530 C 0.72582 0.55028 0.69708 0.0
C531 C 0.7511 0.5741 0.69405 0.0
N532 N 0.71354 0.5386 0.68186 0.0
N533 N 0.75484 0.57725 0.67689 0.0
H534 H 0.72849 0.55234 0.65583 0.0
H535 H 0.7168 0.5421 0.70964 0.0
C536 C 0.69964 0.47886 0.71089 0.0
O537 O 0.69487 0.48263 0.72703 0.0
N538 N 0.64132 0.47001 0.68049 0.0
C539 C 0.61579 0.46671 0.67691 0.0
C540 C 0.59563 0.43892 0.67991 0.0
C541 C 0.63645 0.44443 0.68559 0.0
N542 N 0.60874 0.42511 0.68551 0.0
C543 C 0.66298 0.54464 0.69187 0.0
C544 C 0.64177 0.52274 0.7241 0.0
C545 C 0.64154 0.54725 0.71868 0.0
C546 C 0.6521 0.55773 0.70215 0.0
C547 C 0.65223 0.50964 0.71304 0.0
N548 N 0.66286 0.5209 0.69721 0.0
H549 H 0.67152 0.55369 0.6794 0.0
H550 H 0.6516 0.49049 0.71713 0.0
H551 H 0.61205 0.48348 0.6729 0.0
H552 H 0.65281 0.43998 0.6894 0.0
O553 O 0.66721 0.51696 0.65993 0.0
O554 O 0.68851 0.49162 0.66037 0.0
O555 O 0.69111 0.48868 0.69892 0.0
C556 C 0.67773 0.50403 0.65135 0.0
H557 H 0.76569 0.58819 0.70367 0.0
H558 H 0.57304 0.42982 0.67865 0.0
H559 H 0.63406 0.5137 0.73673 0.0
H560 H 0.65166 0.57575 0.69684 0.0
Co561 Co 0.50217 0.17295 0.68031 0.0
C562 C 0.45293 0.18068 0.67069 0.0
C563 C 0.45044 0.1655 0.69651 0.0
C564 C 0.42711 0.16774 0.69362 0.0
N565 N 0.46691 0.17354 0.68222 0.0
N566 N 0.42859 0.17712 0.67747 0.0
H567 H 0.45984 0.18763 0.65764 0.0
H568 H 0.45459 0.158 0.7084 0.0
C569 C 0.51629 0.21818 0.70901 0.0
O570 O 0.49341 0.20428 0.71834 0.0
N571 N 0.5371 0.17235 0.67926 0.0
C572 C 0.54049 0.14967 0.6797 0.0
C573 C 0.5684 0.1586 0.68325 0.0
C574 C 0.56288 0.1946 0.68221 0.0
N575 N 0.58248 0.18698 0.68509 0.0
C576 C 0.46628 0.11812 0.69212 0.0
C577 C 0.48654 0.12166 0.72512 0.0
C578 C 0.46382 0.09554 0.71941 0.0
C579 C 0.45453 0.09432 0.70241 0.0
C580 C 0.49875 0.14522 0.7139 0.0
N581 N 0.48818 0.14315 0.69766 0.0
H582 H 0.4572 0.11629 0.67953 0.0
H583 H 0.51638 0.16493 0.71825 0.0
H584 H 0.52358 0.12805 0.6786 0.0
H585 H 0.56674 0.21577 0.68311 0.0
O586 O 0.48898 0.14893 0.65998 0.0
O587 O 0.51247 0.19552 0.65934 0.0
O588 O 0.52143 0.20639 0.69641 0.0
C589 C 0.50056 0.17185 0.65088 0.0
H590 H 0.40998 0.16242 0.7026 0.0
H591 H 0.5772 0.14496 0.68492 0.0
H592 H 0.49478 0.1241 0.73807 0.0
H593 H 0.43828 0.07502 0.69666 0.0
Co594 Co 0.67663 0.17125 0.18078 0.0
C595 C 0.72898 0.16745 0.17242 0.0
C596 C 0.72696 0.18117 0.1981 0.0
C597 C 0.75093 0.17971 0.19679 0.0
N598 N 0.71309 0.17379 0.1829 0.0
N599 N 0.7522 0.17078 0.18081 0.0
H600 H 0.72332 0.15965 0.15934 0.0
H601 H 0.71966 0.18633 0.20976 0.0
C602 C 0.68681 0.21933 0.20698 0.0
O603 O 0.66134 0.20937 0.21323 0.0
N604 N 0.64047 0.16951 0.17973 0.0
C605 C 0.61478 0.14637 0.18133 0.0
C606 C 0.59495 0.15476 0.18296 0.0
C607 C 0.63586 0.19153 0.17991 0.0
N608 N 0.60837 0.18311 0.18218 0.0
C609 C 0.6631 0.11838 0.19451 0.0
C610 C 0.63933 0.12091 0.22544 0.0
C611 C 0.63838 0.09575 0.22069 0.0
C612 C 0.65078 0.09477 0.20517 0.0
C613 C 0.65171 0.14417 0.21422 0.0
N614 N 0.66295 0.14251 0.1988 0.0
H615 H 0.67226 0.11701 0.18245 0.0
H616 H 0.65119 0.16281 0.2177 0.0
H617 H 0.61094 0.12503 0.18233 0.0
H618 H 0.65242 0.21339 0.17939 0.0
O619 O 0.66632 0.14632 0.1609 0.0
O620 O 0.68763 0.19294 0.15965 0.0
O621 O 0.6925 0.20507 0.19638 0.0
C622 C 0.67675 0.16901 0.15149 0.0
H623 H 0.76616 0.1845 0.20699 0.0
H624 H 0.57272 0.14127 0.18566 0.0
H625 H 0.62981 0.12226 0.23741 0.0
H626 H 0.65039 0.07563 0.20112 0.0
Co627 Co 0.83546 0.50612 0.18276 0.0
C628 C 0.83584 0.55996 0.17381 0.0
C629 C 0.83778 0.55288 0.20093 0.0
C630 C 0.83642 0.57691 0.19914 0.0
N631 N 0.83754 0.54216 0.18516 0.0
N632 N 0.83522 0.58127 0.18221 0.0
H633 H 0.83414 0.55707 0.15995 0.0
H634 H 0.83796 0.54325 0.21308 0.0
C635 C 0.78635 0.47025 0.20819 0.0
O636 O 0.79428 0.45234 0.2131 0.0
N637 N 0.8334 0.46992 0.18126 0.0
C638 C 0.85525 0.46547 0.1835 0.0
C639 C 0.84491 0.43707 0.18559 0.0
C640 C 0.81023 0.44409 0.18089 0.0
N641 N 0.81658 0.42374 0.18429 0.0
C642 C 0.89041 0.54149 0.19533 0.0
C643 C 0.88562 0.5171 0.22729 0.0
C644 C 0.91152 0.54035 0.22236 0.0
C645 C 0.91369 0.55256 0.20624 0.0
C646 C 0.86254 0.50657 0.21589 0.0
N647 N 0.86526 0.51876 0.20008 0.0
H648 H 0.89254 0.5515 0.18299 0.0
H649 H 0.84284 0.48866 0.21972 0.0
H650 H 0.87704 0.48187 0.18478 0.0
H651 H 0.78896 0.44049 0.17994 0.0
O652 O 0.85909 0.51769 0.16221 0.0
O653 O 0.81259 0.49755 0.16212 0.0
O654 O 0.80288 0.49232 0.19957 0.0
C655 C 0.83592 0.50786 0.15332 0.0
H656 H 0.83568 0.58993 0.20943 0.0
H657 H 0.85713 0.42716 0.18888 0.0
H658 H 0.8833 0.5072 0.23974 0.0
H659 H 0.93335 0.57058 0.20206 0.0
Co660 Co 0.50313 0.32915 0.18017 0.0
C661 C 0.44469 0.27658 0.18182 0.0
C662 C 0.47738 0.26991 0.17173 0.0
C663 C 0.45313 0.24435 0.17264 0.0
N664 N 0.47246 0.29032 0.17757 0.0
N665 N 0.43269 0.24855 0.17898 0.0
H666 H 0.4335 0.28611 0.18751 0.0
H667 H 0.49773 0.27318 0.16774 0.0
C668 C 0.51255 0.29398 0.2062 0.0
O669 O 0.48573 0.28011 0.21042 0.0
N670 N 0.5352 0.36667 0.18251 0.0
C671 C 0.53646 0.39121 0.18657 0.0
C672 C 0.5642 0.41093 0.19028 0.0
C673 C 0.56198 0.37194 0.18339 0.0
N674 N 0.58012 0.39863 0.18827 0.0
C675 C 0.46058 0.33999 0.1922 0.0
C676 C 0.48238 0.36013 0.22459 0.0
C677 C 0.46003 0.36361 0.21855 0.0
C678 C 0.44854 0.35216 0.20238 0.0
C679 C 0.49354 0.34705 0.21402 0.0
N680 N 0.48294 0.33769 0.19785 0.0
H681 H 0.4523 0.33317 0.17937 0.0
H682 H 0.51193 0.34634 0.21834 0.0
H683 H 0.51843 0.39419 0.18766 0.0
H684 H 0.56781 0.35593 0.18152 0.0
O685 O 0.49022 0.34058 0.16011 0.0
O686 O 0.51978 0.32406 0.15938 0.0
O687 O 0.52221 0.31616 0.19698 0.0
C688 C 0.50531 0.3331 0.15101 0.0
H689 H 0.45066 0.2241 0.1691 0.0
H690 H 0.57193 0.43239 0.19456 0.0
H691 H 0.49215 0.36872 0.23695 0.0
H692 H 0.43078 0.35333 0.19726 0.0
Co693 Co 0.504 0.33914 0.99207 0.0
C694 C 0.49354 0.38797 0.99008 0.0
C695 C 0.52897 0.39603 0.00586 0.0
C696 C 0.52828 0.42058 0.0044 0.0
N697 N 0.50709 0.37534 0.99705 0.0
N698 N 0.50609 0.4154 0.99454 0.0
H699 H 0.47605 0.37818 0.98121 0.0
H700 H 0.54553 0.39409 0.01212 0.0
C701 C 0.55152 0.35567 0.96544 0.0
O702 O 0.54137 0.33067 0.95836 0.0
N703 N 0.50234 0.30371 0.98732 0.0
C704 C 0.47955 0.27879 0.98322 0.0
C705 C 0.48801 0.25918 0.98074 0.0
C706 C 0.52405 0.29871 0.98794 0.0
N707 N 0.51602 0.27195 0.98349 0.0
C708 C 0.44847 0.32262 0.98127 0.0
C709 C 0.4542 0.31503 0.94656 0.0
C710 C 0.4271 0.30538 0.95337 0.0
C711 C 0.42461 0.31009 0.97084 0.0
C712 C 0.47778 0.32738 0.95758 0.0
N713 N 0.47461 0.33035 0.97485 0.0
H714 H 0.44569 0.32556 0.99475 0.0
H715 H 0.49816 0.33336 0.95229 0.0
H716 H 0.45835 0.27515 0.98185 0.0
H717 H 0.54551 0.3146 0.991 0.0
O718 O 0.47976 0.32232 0.01193 0.0
O719 O 0.52623 0.34328 0.01252 0.0
O720 O 0.53667 0.36101 0.97584 0.0
C721 C 0.50253 0.33083 0.02096 0.0
H722 H 0.5434 0.44096 0.00967 0.0
H723 H 0.47486 0.23754 0.97661 0.0
H724 H 0.45698 0.31188 0.93305 0.0
H725 H 0.40417 0.30356 0.97653 0.0
Co726 Co 0.66562 0.16686 0.9922 0.0
C727 C 0.61371 0.10831 0.99183 0.0
C728 C 0.60652 0.14137 1.00063 0.0
C729 C 0.58114 0.11681 1.00031 0.0
N730 N 0.62703 0.13635 0.99514 0.0
N731 N 0.5857 0.09619 0.99481 0.0
H732 H 0.6237 0.09697 0.987 0.0
H733 H 0.60969 0.16188 0.00411 0.0
C734 C 0.63004 0.17732 0.96678 0.0
O735 O 0.61563 0.15077 0.96202 0.0
N736 N 0.70292 0.19894 0.9894 0.0
C737 C 0.7276 0.20063 0.9853 0.0
C738 C 0.74675 0.22841 0.98119 0.0
C739 C 0.70744 0.22537 0.98798 0.0
N740 N 0.73385 0.24391 0.98274 0.0
C741 C 0.67798 0.12563 0.97934 0.0
C742 C 0.69197 0.14544 0.94592 0.0
C743 C 0.69782 0.12455 0.95164 0.0
C744 C 0.6901 0.11433 0.96845 0.0
C745 C 0.68005 0.1566 0.95742 0.0
N746 N 0.67346 0.14683 0.97402 0.0
H747 H 0.67322 0.11787 0.99241 0.0
H748 H 0.67774 0.17415 0.95326 0.0
H749 H 0.73106 0.18288 0.98448 0.0
H750 H 0.69089 0.23041 0.98971 0.0
O751 O 0.67752 0.15363 0.01193 0.0
O752 O 0.66154 0.18357 0.01336 0.0
O753 O 0.65212 0.18614 0.97597 0.0
C754 C 0.67083 0.169 0.02136 0.0
H755 H 0.56082 0.11419 0.00381 0.0
H756 H 0.76822 0.23627 0.97693 0.0
H757 H 0.69789 0.15405 0.93302 0.0
H758 H 0.6941 0.09813 0.97333 0.0
Co759 Co 0.83861 0.49918 0.99362 0.0
C760 C 0.89748 0.50827 0.9912 0.0
C761 C 0.87152 0.47659 0.00962 0.0
C762 C 0.89669 0.47705 0.00845 0.0
N763 N 0.87192 0.49647 0.99907 0.0
N764 N 0.91285 0.49689 0.99694 0.0
H765 H 0.90448 0.52387 0.98106 0.0
H766 H 0.85368 0.46151 0.01712 0.0
C767 C 0.80897 0.45124 0.96692 0.0
O768 O 0.79382 0.4607 0.95946 0.0
N769 N 0.80464 0.50033 0.9883 0.0
C770 C 0.80252 0.52244 0.98261 0.0
C771 C 0.7747 0.51324 0.97876 0.0
C772 C 0.77797 0.47839 0.98866 0.0
N773 N 0.75933 0.48543 0.98235 0.0
C774 C 0.87862 0.55429 0.98264 0.0
C775 C 0.86344 0.5494 0.94828 0.0
C776 C 0.88143 0.57639 0.95511 0.0
C777 C 0.8897 0.57838 0.97237 0.0
C778 C 0.85263 0.52558 0.95912 0.0
N779 N 0.85951 0.52837 0.97627 0.0
H780 H 0.88484 0.55669 0.99603 0.0
H781 H 0.83765 0.50539 0.95387 0.0
H782 H 0.82 0.54361 0.98089 0.0
H783 H 0.77268 0.45722 0.9923 0.0
O784 O 0.84551 0.52383 0.01325 0.0
O785 O 0.82024 0.47741 0.01428 0.0
O786 O 0.82837 0.46631 0.9777 0.0
C787 C 0.83139 0.50129 0.02254 0.0
H788 H 0.90247 0.46332 0.01513 0.0
H789 H 0.76654 0.52599 0.97344 0.0
H790 H 0.85665 0.54688 0.93495 0.0
H791 H 0.90416 0.59862 0.97808 0.0
Co792 Co 0.33071 0.8327 0.82469 0.0
C793 C 0.28059 0.84223 0.82417 0.0
C794 C 0.27106 0.80127 0.83307 0.0
C795 C 0.24676 0.80262 0.83359 0.0
N796 N 0.29243 0.82602 0.82721 0.0
N797 N 0.25279 0.82822 0.82799 0.0
H798 H 0.29158 0.86356 0.81937 0.0
H799 H 0.27293 0.78315 0.83654 0.0
C800 C 0.29514 0.78855 0.79825 0.0
O801 O 0.28053 0.80094 0.7946 0.0
N802 N 0.36783 0.83729 0.82242 0.0
C803 C 0.39322 0.86077 0.82107 0.0
C804 C 0.41326 0.85278 0.81848 0.0
C805 C 0.37271 0.81563 0.82088 0.0
N806 N 0.40023 0.82427 0.81831 0.0
C807 C 0.3457 0.88774 0.8139 0.0
C808 C 0.35901 0.88428 0.77997 0.0
C809 C 0.36498 0.91077 0.78654 0.0
C810 C 0.35801 0.91192 0.80382 0.0
C811 C 0.34703 0.86033 0.79077 0.0
N812 N 0.34044 0.86231 0.80756 0.0
H813 H 0.34102 0.88986 0.82715 0.0
H814 H 0.34409 0.84061 0.78581 0.0
H815 H 0.39686 0.88207 0.82161 0.0
H816 H 0.35611 0.79387 0.82118 0.0
O817 O 0.34235 0.85615 0.8451 0.0
O818 O 0.32476 0.80996 0.84515 0.0
O819 O 0.31734 0.80116 0.80743 0.0
C820 C 0.33455 0.83328 0.85389 0.0
H821 H 0.22616 0.7861 0.83773 0.0
H822 H 0.43563 0.86696 0.81679 0.0
H823 H 0.36389 0.88203 0.76672 0.0
H824 H 0.36288 0.93161 0.80995 0.0
Co825 Co 0.17433 0.50187 0.82348 0.0
C826 C 0.16039 0.44131 0.82376 0.0
C827 C 0.20474 0.47163 0.82367 0.0
C828 C 0.20165 0.44528 0.82339 0.0
N829 N 0.17907 0.46931 0.82371 0.0
N830 N 0.17394 0.42635 0.82342 0.0
H831 H 0.13772 0.43218 0.82387 0.0
H832 H 0.22449 0.49125 0.82391 0.0
C833 C 0.22094 0.52768 0.79226 0.0
O834 O 0.21166 0.52689 0.77652 0.0
N835 N 0.17176 0.53597 0.82302 0.0
C836 C 0.15195 0.54093 0.82978 0.0
C837 C 0.15975 0.56875 0.82682 0.0
C838 C 0.19156 0.56101 0.81646 0.0
N839 N 0.18465 0.58128 0.81838 0.0
C840 C 0.11706 0.47727 0.8132 0.0
C841 C 0.12187 0.46334 0.77961 0.0
C842 C 0.0951 0.45691 0.78579 0.0
C843 C 0.09318 0.46433 0.80282 0.0
C844 C 0.14558 0.47652 0.79057 0.0
N845 N 0.14301 0.48371 0.80712 0.0
H846 H 0.11433 0.48186 0.82633 0.0
H847 H 0.16568 0.48026 0.78583 0.0
H848 H 0.13348 0.52585 0.8368 0.0
H849 H 0.21134 0.56487 0.81104 0.0
O850 O 0.1526 0.4893 0.8445 0.0
O851 O 0.19893 0.5165 0.84362 0.0
O852 O 0.20331 0.5178 0.80467 0.0
C853 C 0.17609 0.50299 0.8529 0.0
H854 H 0.21842 0.44025 0.82334 0.0
H855 H 0.14804 0.57896 0.83068 0.0
H856 H 0.12435 0.45762 0.7666 0.0
H857 H 0.07322 0.46021 0.80822 0.0
Co858 Co 0.50664 0.67594 0.82401 0.0
C859 C 0.55891 0.73036 0.83354 0.0
C860 C 0.5494 0.72589 0.80643 0.0
C861 C 0.57356 0.75112 0.80893 0.0
N862 N 0.54016 0.71264 0.82174 0.0
N863 N 0.57942 0.75389 0.82589 0.0
H864 H 0.558 0.72618 0.84724 0.0
H865 H 0.5393 0.71785 0.79412 0.0
C866 C 0.47651 0.69378 0.79383 0.0
O867 O 0.47085 0.6806 0.77893 0.0
N868 N 0.47255 0.63971 0.82531 0.0
C869 C 0.46948 0.61377 0.82537 0.0
C870 C 0.44153 0.59439 0.82224 0.0
C871 C 0.44656 0.63575 0.82249 0.0
N872 N 0.42705 0.60826 0.8202 0.0
C873 C 0.53833 0.64956 0.81461 0.0
C874 C 0.53408 0.6507 0.77917 0.0
C875 C 0.54999 0.63949 0.7863 0.0
C876 C 0.55136 0.63859 0.80432 0.0
C877 C 0.52058 0.66091 0.79006 0.0
N878 N 0.52305 0.66061 0.80764 0.0
H879 H 0.54046 0.64857 0.82834 0.0
H880 H 0.50883 0.66952 0.78418 0.0
H881 H 0.48641 0.60921 0.82672 0.0
H882 H 0.44254 0.65308 0.82145 0.0
O883 O 0.52048 0.66845 0.84515 0.0
O884 O 0.49392 0.68824 0.84408 0.0
O885 O 0.48822 0.68687 0.80558 0.0
C886 C 0.50712 0.67872 0.85343 0.0
H887 H 0.58597 0.76638 0.7991 0.0
H888 H 0.43308 0.57195 0.82082 0.0
H889 H 0.53239 0.65206 0.76532 0.0
H890 H 0.56231 0.62923 0.81065 0.0
Co891 Co 0.50227 0.66332 0.01266 0.0
C892 C 0.50407 0.61109 0.00186 0.0
C893 C 0.49978 0.61514 0.02914 0.0
C894 C 0.50067 0.591 0.0264 0.0
N895 N 0.50211 0.62797 0.01387 0.0
N896 N 0.50343 0.58847 0.00933 0.0
H897 H 0.50651 0.61536 0.98817 0.0
H898 H 0.49789 0.62307 0.04157 0.0
C899 C 0.45479 0.65072 0.03956 0.0
O900 O 0.46452 0.67636 0.04553 0.0
N901 N 0.5018 0.69836 0.01221 0.0
C902 C 0.52427 0.72451 0.01348 0.0
C903 C 0.5148 0.74332 0.01576 0.0
C904 C 0.47906 0.70171 0.01283 0.0
N905 N 0.48634 0.72885 0.01565 0.0
C906 C 0.55511 0.67637 0.02633 0.0
C907 C 0.55528 0.70495 0.05574 0.0
C908 C 0.5793 0.70305 0.05173 0.0
C909 C 0.5788 0.68823 0.03691 0.0
C910 C 0.53154 0.69212 0.0449 0.0
N911 N 0.53175 0.67818 0.0303 0.0
H912 H 0.5557 0.66598 0.01459 0.0
H913 H 0.51381 0.69466 0.04785 0.0
H914 H 0.54598 0.72936 0.01386 0.0
H915 H 0.45757 0.6844 0.01218 0.0
O916 O 0.52674 0.67593 0.99258 0.0
O917 O 0.47998 0.65154 0.99173 0.0
O918 O 0.46915 0.64499 0.02901 0.0
C919 C 0.50378 0.66434 0.9834 0.0
H920 H 0.49924 0.57625 0.0362 0.0
H921 H 0.52783 0.76559 0.01851 0.0
H922 H 0.55496 0.71645 0.06705 0.0
H923 H 0.59702 0.68665 0.03317 0.0
Co924 Co 0.34176 0.83432 0.01296 0.0
C925 C 0.39484 0.89158 0.00905 0.0
C926 C 0.40129 0.85609 0.00836 0.0
C927 C 0.42649 0.87976 0.00508 0.0
N928 N 0.38132 0.8632 0.01118 0.0
N929 N 0.42251 0.90208 0.0053 0.0
H930 H 0.38474 0.90418 0.00922 0.0
H931 H 0.39749 0.83476 0.00792 0.0
C932 C 0.3717 0.81961 0.04027 0.0
O933 O 0.38651 0.84568 0.04587 0.0
N934 N 0.30333 0.80362 0.01441 0.0
C935 C 0.28002 0.80285 0.02078 0.0
C936 C 0.2602 0.77505 0.02431 0.0
C937 C 0.29705 0.77649 0.01365 0.0
N938 N 0.2711 0.75869 0.01974 0.0
C939 C 0.33243 0.87786 0.02496 0.0
C940 C 0.31562 0.85868 0.05822 0.0
C941 C 0.31292 0.88154 0.05227 0.0
C942 C 0.32184 0.89106 0.0354 0.0
C943 C 0.3263 0.84575 0.04717 0.0
N944 N 0.33435 0.8553 0.03065 0.0
H945 H 0.33767 0.88511 0.01185 0.0
H946 H 0.32651 0.82719 0.05162 0.0
H947 H 0.27826 0.82114 0.02397 0.0
H948 H 0.31229 0.77013 0.01038 0.0
O949 O 0.33284 0.8492 0.99287 0.0
O950 O 0.34679 0.8176 0.99217 0.0
O951 O 0.35129 0.8127 0.02989 0.0
C952 C 0.3393 0.83334 0.98376 0.0
H953 H 0.44618 0.88042 0.00229 0.0
H954 H 0.24005 0.7676 0.03061 0.0
H955 H 0.30902 0.85044 0.07114 0.0
H956 H 0.31946 0.90786 0.02983 0.0
Co957 Co 0.16869 0.50675 0.01254 0.0
C958 C 0.11457 0.50325 1.0001 0.0
C959 C 0.12238 0.51041 0.02734 0.0
C960 C 0.09699 0.50835 0.02388 0.0
N961 N 0.13352 0.50714 0.01257 0.0
N962 N 0.09205 0.50382 0.00686 0.0
H963 H 0.11663 0.49932 0.98663 0.0
H964 H 0.13185 0.51344 0.03998 0.0
C965 C 0.20438 0.55421 0.03868 0.0
O966 O 0.22083 0.54443 0.04349 0.0
N967 N 0.2039 0.50635 0.01313 0.0
C968 C 0.20673 0.48397 0.01721 0.0
C969 C 0.23481 0.49307 0.01978 0.0
C970 C 0.23046 0.52844 0.01213 0.0
N971 N 0.24964 0.52106 0.01685 0.0
C972 C 0.12995 0.45253 0.02495 0.0
C973 C 0.15228 0.45603 0.05742 0.0
C974 C 0.13018 0.43006 0.05163 0.0
C975 C 0.11866 0.42863 0.03536 0.0
C976 C 0.16322 0.47963 0.04644 0.0
N977 N 0.15253 0.4774 0.03021 0.0
H978 H 0.1209 0.45084 0.01232 0.0
H979 H 0.18078 0.49911 0.05082 0.0
H980 H 0.18948 0.46277 0.01927 0.0
H981 H 0.2354 0.54994 0.00988 0.0
O982 O 0.15805 0.48242 0.99244 0.0
O983 O 0.18067 0.52915 0.99164 0.0
O984 O 0.18291 0.53973 0.02907 0.0
C985 C 0.16995 0.50539 0.98328 0.0
H986 H 0.08296 0.50977 0.03317 0.0
H987 H 0.24354 0.48039 0.02442 0.0
H988 H 0.16162 0.45779 0.07 0.0
H989 H 0.10142 0.40894 0.03055 0.0
Co990 Co 0.34136 0.50399 0.5097 0.0
C991 C 0.3913 0.49438 0.50765 0.0
C992 C 0.39915 0.5349 0.49899 0.0
C993 C 0.42405 0.53493 0.49847 0.0
N994 N 0.37842 0.50956 0.50458 0.0
N995 N 0.41911 0.50961 0.50386 0.0
H996 H 0.38117 0.47339 0.51308 0.0
H997 H 0.39666 0.5529 0.49627 0.0
C998 C 0.35483 0.55 0.53657 0.0
O999 O 0.32917 0.53889 0.5428 0.0
N1000 N 0.30525 0.50097 0.51452 0.0
C1001 C 0.28221 0.48 0.52222 0.0
C1002 C 0.26355 0.48942 0.52558 0.0
C1003 C 0.29968 0.52218 0.51253 0.0
N1004 N 0.27482 0.51613 0.51971 0.0
C1005 C 0.32489 0.44791 0.51982 0.0
C1006 C 0.32168 0.45324 0.55504 0.0
C1007 C 0.31127 0.42589 0.54814 0.0
C1008 C 0.31337 0.42388 0.53018 0.0
C1009 C 0.33255 0.47698 0.54404 0.0
N1010 N 0.33358 0.47406 0.52654 0.0
H1011 H 0.32594 0.44509 0.50613 0.0
H1012 H 0.33921 0.49736 0.54964 0.0
H1013 H 0.27955 0.45981 0.52595 0.0
H1014 H 0.315 0.54279 0.50768 0.0
O1015 O 0.32533 0.48045 0.48944 0.0
O1016 O 0.34544 0.52687 0.4895 0.0
O1017 O 0.36185 0.53592 0.52664 0.0
C1018 C 0.33361 0.50348 0.48075 0.0
H1019 H 0.44448 0.55244 0.49494 0.0
H1020 H 0.24379 0.47791 0.53248 0.0
H1021 H 0.32121 0.45644 0.5688 0.0
H1022 H 0.30529 0.40376 0.52377 0.0
Co1023 Co 0.50203 0.83759 0.51205 0.0
C1024 C 0.50249 0.8916 0.50252 0.0
C1025 C 0.50325 0.88436 0.52972 0.0
C1026 C 0.50289 0.9089 0.52769 0.0
N1027 N 0.50332 0.87347 0.51407 0.0
N1028 N 0.50241 0.91341 0.51071 0.0
H1029 H 0.50172 0.88894 0.48865 0.0
H1030 H 0.5029 0.87473 0.54196 0.0
C1031 C 0.45376 0.80109 0.53743 0.0
O1032 O 0.46278 0.784 0.5422 0.0
N1033 N 0.50059 0.8015 0.51095 0.0
C1034 C 0.52216 0.79705 0.51451 0.0
C1035 C 0.51181 0.76853 0.51608 0.0
C1036 C 0.47769 0.77552 0.50943 0.0
N1037 N 0.48392 0.75511 0.51295 0.0
C1038 C 0.55708 0.87225 0.52477 0.0
C1039 C 0.55068 0.84969 0.55746 0.0
C1040 C 0.57743 0.8708 0.55201 0.0
C1041 C 0.58039 0.88231 0.53557 0.0
C1042 C 0.52774 0.83981 0.54604 0.0
N1043 N 0.53129 0.85076 0.52976 0.0
H1044 H 0.55988 0.88179 0.51221 0.0
H1045 H 0.50752 0.82336 0.5503 0.0
H1046 H 0.54361 0.81341 0.517 0.0
H1047 H 0.45649 0.77169 0.50755 0.0
O1048 O 0.52633 0.84952 0.49185 0.0
O1049 O 0.47986 0.82846 0.49101 0.0
O1050 O 0.46905 0.82309 0.52846 0.0
C1051 C 0.50356 0.83918 0.48257 0.0
H1052 H 0.50248 0.92228 0.53786 0.0
H1053 H 0.52347 0.75848 0.52032 0.0
H1054 H 0.54771 0.84051 0.57021 0.0
H1055 H 0.6007 0.89893 0.53106 0.0
Co1056 Co 0.16979 0.66579 0.5138 0.0
C1057 C 0.11176 0.61502 0.50794 0.0
C1058 C 0.13367 0.61203 0.53004 0.0
C1059 C 0.10795 0.5885 0.5295 0.0
N1060 N 0.13671 0.62871 0.51643 0.0
N1061 N 0.09369 0.5904 0.51593 0.0
H1062 H 0.10653 0.62333 0.49677 0.0
H1063 H 0.14842 0.61681 0.54045 0.0
C1064 C 0.21062 0.65684 0.53855 0.0
O1065 O 0.22693 0.68235 0.54464 0.0
N1066 N 0.20342 0.70237 0.51212 0.0
C1067 C 0.20635 0.72753 0.51638 0.0
C1068 C 0.23455 0.74631 0.51911 0.0
C1069 C 0.22979 0.70657 0.51137 0.0
N1070 N 0.24927 0.7329 0.51634 0.0
C1071 C 0.13039 0.67803 0.52879 0.0
C1072 C 0.15841 0.70316 0.55902 0.0
C1073 C 0.13367 0.70353 0.55484 0.0
C1074 C 0.11938 0.69031 0.53972 0.0
C1075 C 0.16887 0.69054 0.54758 0.0
N1076 N 0.15516 0.67882 0.53245 0.0
H1077 H 0.11931 0.66862 0.51694 0.0
H1078 H 0.18848 0.69148 0.55052 0.0
H1079 H 0.1891 0.7313 0.51897 0.0
H1080 H 0.23418 0.68976 0.50871 0.0
O1081 O 0.15375 0.67551 0.49439 0.0
O1082 O 0.17938 0.65469 0.49237 0.0
O1083 O 0.19011 0.65144 0.52852 0.0
C1084 C 0.16558 0.66504 0.48458 0.0
H1085 H 0.1003 0.5714 0.53872 0.0
H1086 H 0.24305 0.76739 0.52426 0.0
H1087 H 0.16998 0.7133 0.57068 0.0
H1088 H 0.10017 0.69012 0.53614 0.0
Co1089 Co 0.17436 0.67715 0.32504 0.0
C1090 C 0.16388 0.72661 0.32587 0.0
C1091 C 0.20583 0.73634 0.33252 0.0
C1092 C 0.20532 0.76102 0.33203 0.0
N1093 N 0.18001 0.71466 0.3286 0.0
N1094 N 0.17908 0.75488 0.32786 0.0
H1095 H 0.1421 0.71557 0.32188 0.0
H1096 H 0.22425 0.73443 0.33489 0.0
C1097 C 0.22026 0.68831 0.29818 0.0
O1098 O 0.20899 0.66215 0.29279 0.0
N1099 N 0.17096 0.64043 0.32171 0.0
C1100 C 0.14943 0.61698 0.31472 0.0
C1101 C 0.15824 0.59776 0.31178 0.0
C1102 C 0.19194 0.63449 0.32383 0.0
N1103 N 0.18504 0.60894 0.31735 0.0
C1104 C 0.11924 0.66223 0.31415 0.0
C1105 C 0.12342 0.65114 0.27985 0.0
C1106 C 0.09664 0.64299 0.28677 0.0
C1107 C 0.09513 0.64985 0.30397 0.0
C1108 C 0.14743 0.66394 0.29058 0.0
N1109 N 0.14497 0.66843 0.30773 0.0
H1110 H 0.11685 0.66612 0.32752 0.0
H1111 H 0.16745 0.66863 0.28524 0.0
H1112 H 0.12922 0.61441 0.31112 0.0
H1113 H 0.21287 0.64978 0.32824 0.0
O1114 O 0.15015 0.6629 0.34507 0.0
O1115 O 0.19649 0.68249 0.34583 0.0
O1116 O 0.2068 0.69595 0.30823 0.0
C1117 C 0.17275 0.67147 0.35425 0.0
H1118 H 0.22295 0.78201 0.33427 0.0
H1119 H 0.14633 0.57765 0.30529 0.0
H1120 H 0.12562 0.64642 0.26655 0.0
H1121 H 0.07516 0.6449 0.30978 0.0
Co1122 Co 0.32858 0.49727 0.32101 0.0
C1123 C 0.27525 0.44528 0.33295 0.0
C1124 C 0.28035 0.44962 0.3054 0.0
C1125 C 0.25564 0.42536 0.30884 0.0
N1126 N 0.29296 0.46206 0.32041 0.0
N1127 N 0.25247 0.42271 0.32605 0.0
H1128 H 0.27883 0.44916 0.34666 0.0
H1129 H 0.28867 0.45771 0.29269 0.0
C1130 C 0.3174 0.53439 0.29617 0.0
O1131 O 0.34339 0.5507 0.29083 0.0
N1132 N 0.36413 0.53269 0.32115 0.0
C1133 C 0.3898 0.53598 0.31793 0.0
C1134 C 0.40875 0.56424 0.31584 0.0
C1135 C 0.3683 0.55913 0.32233 0.0
N1136 N 0.3951 0.57871 0.31834 0.0
C1137 C 0.34239 0.45735 0.30807 0.0
C1138 C 0.36812 0.4838 0.27754 0.0
C1139 C 0.36786 0.45887 0.28221 0.0
C1140 C 0.35431 0.44543 0.29753 0.0
C1141 C 0.35506 0.49468 0.28829 0.0
N1142 N 0.34294 0.48174 0.30356 0.0
H1143 H 0.33287 0.44707 0.32014 0.0
H1144 H 0.35585 0.51404 0.28471 0.0
H1145 H 0.39417 0.51895 0.31613 0.0
H1146 H 0.35148 0.5638 0.3243 0.0
O1147 O 0.3409 0.48585 0.34136 0.0
O1148 O 0.31731 0.50895 0.34165 0.0
O1149 O 0.31026 0.5113 0.30405 0.0
C1150 C 0.32961 0.49779 0.35034 0.0
H1151 H 0.24091 0.41078 0.29945 0.0
H1152 H 0.43055 0.57335 0.31188 0.0
H1153 H 0.3784 0.49479 0.26575 0.0
H1154 H 0.35375 0.42625 0.30165 0.0
Co1155 Co 0.50708 0.83261 0.32231 0.0
C1156 C 0.56063 0.83348 0.33326 0.0
C1157 C 0.55409 0.83237 0.30585 0.0
C1158 C 0.57904 0.83312 0.30864 0.0
N1159 N 0.54254 0.83292 0.32116 0.0
N1160 N 0.58311 0.83379 0.32577 0.0
H1161 H 0.55779 0.834 0.34706 0.0
H1162 H 0.54494 0.83158 0.29336 0.0
C1163 C 0.47071 0.78457 0.29673 0.0
O1164 O 0.45399 0.79399 0.29185 0.0
N1165 N 0.47146 0.8322 0.32266 0.0
C1166 C 0.46784 0.85419 0.31878 0.0
C1167 C 0.43954 0.84445 0.3166 0.0
C1168 C 0.44518 0.8097 0.32389 0.0
N1169 N 0.42541 0.81653 0.3197 0.0
C1170 C 0.54434 0.88721 0.31001 0.0
C1171 C 0.52169 0.88351 0.27763 0.0
C1172 C 0.54374 0.90958 0.28339 0.0
C1173 C 0.55534 0.91108 0.29964 0.0
C1174 C 0.51091 0.85991 0.28863 0.0
N1175 N 0.52191 0.86221 0.30478 0.0
H1176 H 0.55378 0.88894 0.32251 0.0
H1177 H 0.49345 0.84029 0.2843 0.0
H1178 H 0.48466 0.87552 0.31648 0.0
H1179 H 0.44077 0.78831 0.32595 0.0
O1180 O 0.51857 0.85669 0.34255 0.0
O1181 O 0.49645 0.81012 0.34326 0.0
O1182 O 0.49279 0.79989 0.30566 0.0
C1183 C 0.50747 0.8338 0.35176 0.0
H1184 H 0.59317 0.83302 0.29888 0.0
H1185 H 0.43015 0.85657 0.31203 0.0
H1186 H 0.51234 0.88165 0.26504 0.0
H1187 H 0.57269 0.93075 0.30439 0.0
C1188 C 0.06 0.10308 0.1445 0.0
C1189 C 0.07815 0.13251 0.14487 0.0
C1190 C 0.06971 0.08465 0.13981 0.0
C1191 C 0.09849 0.09566 0.1357 0.0
C1192 C 0.11692 0.12523 0.13575 0.0
C1193 C 0.10653 0.14327 0.14022 0.0
C1194 C 0.04931 0.05325 0.14004 0.0
C1195 C 0.14782 0.13777 0.13155 0.0
C1196 C 0.12882 0.04913 0.14725 0.0
C1197 C 0.1294 0.03715 0.13129 0.0
C1198 C 0.11905 0.06821 0.14872 0.0
C1199 C 0.10989 0.07612 0.1338 0.0
C1200 C 0.11069 0.06451 0.11753 0.0
C1201 C 0.12009 0.04476 0.11649 0.0
C1202 C 0.11815 0.07957 0.16638 0.0
C1203 C 0.1013 0.07268 0.10132 0.0
H1204 H 0.03817 0.09404 0.14825 0.0
H1205 H 0.12083 0.16579 0.14015 0.0
H1206 H 0.05101 0.04341 0.12791 0.0
H1207 H 0.05465 0.04348 0.15086 0.0
H1208 H 0.0271 0.04818 0.14163 0.0
H1209 H 0.15909 0.16119 0.13119 0.0
H1210 H 0.15803 0.13111 0.14138 0.0
H1211 H 0.15036 0.12985 0.11887 0.0
H1212 H 0.13554 0.04312 0.15887 0.0
H1213 H 0.12052 0.03564 0.10414 0.0
H1214 H 0.09616 0.07372 0.16966 0.0
H1215 H 0.13088 0.10293 0.1664 0.0
H1216 H 0.12626 0.0714 0.17669 0.0
H1217 H 0.07806 0.06323 0.10154 0.0
H1218 H 0.10722 0.06534 0.08949 0.0
H1219 H 0.11064 0.0959 0.10062 0.0
C1220 C 0.89616 0.95115 0.13826 0.0
C1221 C 0.87126 0.94356 0.14751 0.0
C1222 C 0.91387 0.97895 0.13268 0.0
C1223 C 0.90667 0.99983 0.13652 0.0
C1224 C 0.88147 0.9923 0.14571 0.0
C1225 C 0.86402 0.96423 0.15102 0.0
C1226 C 0.94061 0.98609 0.12303 0.0
C1227 C 0.87321 0.01401 0.15025 0.0
C1228 C 0.96426 0.0761 0.14088 0.0
C1229 C 0.96253 0.08799 0.12516 0.0
C1230 C 0.94702 0.04734 0.14438 0.0
C1231 C 0.92654 0.02993 0.13216 0.0
C1232 C 0.92463 0.04155 0.11619 0.0
C1233 C 0.94298 0.07041 0.11276 0.0
C1234 C 0.95022 0.0358 0.16143 0.0
C1235 C 0.90282 0.02364 0.10292 0.0
H1236 H 0.90178 0.9353 0.13523 0.0
H1237 H 0.84494 0.95853 0.15822 0.0
H1238 H 0.94183 0.99725 0.11083 0.0
H1239 H 0.95918 1.00053 0.13093 0.0
H1240 H 0.94209 0.96706 0.11992 0.0
H1241 H 0.85245 0.00456 0.15687 0.0
H1242 H 0.88937 0.0303 0.15883 0.0
H1243 H 0.8723 0.02486 0.13838 0.0
H1244 H 0.97865 0.08935 0.1508 0.0
H1245 H 0.94117 0.0794 0.1007 0.0
H1246 H 0.95349 0.01763 0.1592 0.0
H1247 H 0.93066 0.02804 0.16917 0.0
H1248 H 0.9682 0.05187 0.16913 0.0
H1249 H 0.90753 0.00749 0.09785 0.0
H1250 H 0.90223 0.03633 0.09192 0.0
H1251 H 0.88158 0.01228 0.10892 0.0
C1252 C 0.05186 0.90702 0.13659 0.0
C1253 C 0.06392 0.92667 0.15003 0.0
C1254 C 0.02407 0.89749 0.13114 0.0
C1255 C 0.00779 0.90745 0.1396 0.0
C1256 C 0.01988 0.92719 0.15327 0.0
C1257 C 0.04793 0.93684 0.15814 0.0
C1258 C 0.01219 0.87691 0.11631 0.0
C1259 C 1.00295 0.93755 0.16306 0.0
C1260 C 0.94072 0.90125 0.12056 0.0
C1261 C 0.91987 0.87751 0.12929 0.0
C1262 C 0.96954 0.91056 0.12316 0.0
C1263 C 0.9776 0.89605 0.13494 0.0
C1264 C 0.95663 0.87141 0.14319 0.0
C1265 C 0.92817 0.86226 0.14007 0.0
C1266 C 0.99138 0.93652 0.1138 0.0
C1267 C 0.96419 0.85544 0.156 0.0
H1268 H 0.06443 0.89955 0.1301 0.0
H1269 H 0.05728 0.95193 0.16857 0.0
H1270 H 0.99326 0.85719 0.12057 0.0
H1271 H 0.0054 0.886 0.10584 0.0
H1272 H 0.02772 0.8715 0.11097 0.0
H1273 H 0.01572 0.95352 0.17299 0.0
H1274 H 0.99423 0.94695 0.15403 0.0
H1275 H 0.98483 0.91951 0.16954 0.0
H1276 H 0.93461 0.91315 0.11222 0.0
H1277 H 0.91234 0.84367 0.14678 0.0
H1278 H 0.00674 0.93206 0.10722 0.0
H1279 H 1.00333 0.95372 0.12322 0.0
H1280 H 0.98179 0.9441 0.10408 0.0
H1281 H 0.97762 0.84813 0.14973 0.0
H1282 H 0.94529 0.83681 0.16146 0.0
H1283 H 0.97656 0.86956 0.16679 0.0
C1284 C 0.1402 0.10458 0.35032 0.0
C1285 C 0.13067 0.07554 0.35128 0.0
C1286 C 0.12272 0.11547 0.35486 0.0
C1287 C 0.09464 0.09687 0.36009 0.0
C1288 C 0.08468 0.06757 0.36106 0.0
C1289 C 0.10283 0.05729 0.35677 0.0
C1290 C 0.13431 0.14694 0.354 0.0
C1291 C 0.05472 0.04702 0.36639 0.0
C1292 C 0.05509 0.12785 0.38338 0.0
C1293 C 0.04059 0.13167 0.36969 0.0
C1294 C 0.07263 0.11633 0.38051 0.0
C1295 C 0.07533 0.10804 0.36361 0.0
C1296 C 0.06028 0.11133 0.34983 0.0
C1297 C 0.04327 0.12327 0.35301 0.0
C1298 C 0.0887 0.11357 0.39549 0.0
C1299 C 0.06246 0.1026 0.33164 0.0
H1300 H 0.16139 0.11904 0.34596 0.0
H1301 H 0.0951 0.03492 0.35792 0.0
H1302 H 0.12218 0.15177 0.34451 0.0
H1303 H 0.13198 0.15486 0.36674 0.0
H1304 H 0.15693 0.15865 0.35026 0.0
H1305 H 0.0507 0.02508 0.36751 0.0
H1306 H 0.04986 0.05335 0.37897 0.0
H1307 H 0.03991 0.04732 0.35674 0.0
H1308 H 0.05321 0.13441 0.39628 0.0
H1309 H 0.03203 0.12598 0.34238 0.0
H1310 H 0.11169 0.12676 0.39313 0.0
H1311 H 0.08392 0.09143 0.39672 0.0
H1312 H 0.08359 0.12016 0.40793 0.0
H1313 H 0.08435 0.11576 0.32682 0.0
H1314 H 0.04796 0.1048 0.3226 0.0
H1315 H 0.0576 0.08034 0.33147 0.0
C1316 C 0.89677 0.04083 0.34848 0.0
C1317 C 0.92508 0.06113 0.35149 0.0
C1318 C 0.88623 0.01232 0.35265 0.0
C1319 C 0.90447 0.00369 0.35983 0.0
C1320 C 0.93302 0.02396 0.36296 0.0
C1321 C 0.9429 0.05238 0.3589 0.0
C1322 C 0.85552 0.99139 0.34936 0.0
C1323 C 0.95324 0.01561 0.37047 0.0
C1324 C 0.87154 0.93398 0.38408 0.0
C1325 C 0.87095 0.91545 0.37135 0.0
C1326 C 0.88254 0.96276 0.38055 0.0
C1327 C 0.89365 0.97341 0.36396 0.0
C1328 C 0.89384 0.95497 0.3512 0.0
C1329 C 0.8823 0.92619 0.355 0.0
C1330 C 0.88177 0.98168 0.39449 0.0
C1331 C 0.90592 0.9656 0.33344 0.0
H1332 H 0.88279 0.04709 0.34268 0.0
H1333 H 0.96463 0.06769 0.36171 0.0
H1334 H 0.85359 0.97468 0.34042 0.0
H1335 H 0.84504 0.98094 0.36163 0.0
H1336 H 0.84409 1.00147 0.34373 0.0
H1337 H 0.97462 0.03404 0.3726 0.0
H1338 H 0.9451 0.00458 0.38297 0.0
H1339 H 0.95511 1.00066 0.36164 0.0
H1340 H 0.86278 0.92588 0.39674 0.0
H1341 H 0.88213 0.91209 0.34512 0.0
H1342 H 0.86903 0.99111 0.39009 0.0
H1343 H 0.90337 0.99932 0.39708 0.0
H1344 H 0.87267 0.97018 0.40676 0.0
H1345 H 0.89335 0.97354 0.32678 0.0
H1346 H 0.90605 0.94893 0.32532 0.0
H1347 H 0.92782 0.98351 0.3345 0.0
C1348 C 0.95396 0.89965 0.36193 0.0
C1349 C 0.94412 0.87048 0.36099 0.0
C1350 C 0.98224 0.91916 0.36577 0.0
C1351 C 1.00135 0.90947 0.3691 0.0
C1352 C 0.99149 0.88012 0.36887 0.0
C1353 C 0.96317 0.86107 0.36469 0.0
C1354 C 0.9919 0.95029 0.36557 0.0
C1355 C 0.01109 0.86887 0.37262 0.0
C1356 C 0.07821 0.95758 0.3574 0.0
C1357 C 0.09057 0.96941 0.37339 0.0
C1358 C 0.04931 0.93841 0.3559 0.0
C1359 C 0.03215 0.93012 0.37085 0.0
C1360 C 0.04445 0.94181 0.38711 0.0
C1361 C 0.07353 0.9618 0.38815 0.0
C1362 C 0.03715 0.92715 0.33824 0.0
C1363 C 0.02694 0.93316 0.40338 0.0
H1364 H 0.93977 0.90759 0.35956 0.0
H1365 H 0.95623 0.83881 0.36404 0.0
H1366 H 1.00307 0.96039 0.37772 0.0
H1367 H 0.00705 0.96064 0.35482 0.0
H1368 H 0.97411 0.95437 0.36391 0.0
H1369 H 0.9998 0.84547 0.37315 0.0
H1370 H 0.02756 0.87599 0.36247 0.0
H1371 H 0.02198 0.87734 0.38512 0.0
H1372 H 0.09123 0.96366 0.34589 0.0
H1373 H 0.08303 0.97086 0.40051 0.0
H1374 H 0.0202 0.93199 0.33528 0.0
H1375 H 0.02754 0.90388 0.33799 0.0
H1376 H 0.0533 0.93623 0.32786 0.0
H1377 H 0.0127 0.9421 0.40332 0.0
H1378 H 0.04022 0.94066 0.41518 0.0
H1379 H 0.01351 0.90987 0.40403 0.0
C1380 C 0.90909 0.97985 0.87357 0.0
C1381 C 0.87997 0.96949 0.87233 0.0
C1382 C 0.92039 0.96198 0.87109 0.0
C1383 C 0.90212 0.93302 0.86745 0.0
C1384 C 0.8726 0.92217 0.86717 0.0
C1385 C 0.86192 0.94054 0.86952 0.0
C1386 C 0.95197 0.9744 0.8715 0.0
C1387 C 0.85231 0.89133 0.86374 0.0
C1388 C 0.93005 0.89289 0.84149 0.0
C1389 C 0.9336 0.87708 0.85436 0.0
C1390 C 0.91995 0.9113 0.84559 0.0
C1391 C 0.91383 0.91431 0.86304 0.0
C1392 C 0.91811 0.89877 0.87611 0.0
C1393 C 0.92778 0.88022 0.87158 0.0
C1394 C 0.91514 0.92701 0.83122 0.0
C1395 C 0.91227 0.90157 0.89485 0.0
H1396 H 0.92324 1.00224 0.87548 0.0
H1397 H 0.8394 0.93236 0.86857 0.0
H1398 H 0.95768 0.96211 0.88032 0.0
H1399 H 0.95963 0.97319 0.85842 0.0
H1400 H 0.96315 0.99679 0.87571 0.0
H1401 H 0.82996 0.8862 0.86408 0.0
H1402 H 0.85668 0.88535 0.85089 0.0
H1403 H 0.85524 0.8782 0.87349 0.0
H1404 H 0.93442 0.89015 0.8282 0.0
H1405 H 0.93073 0.86795 0.88147 0.0
H1406 H 0.92734 0.95003 0.83371 0.0
H1407 H 0.89252 0.92084 0.83076 0.0
H1408 H 0.92133 0.9227 0.8184 0.0
H1409 H 0.92646 0.92351 0.89926 0.0
H1410 H 0.91542 0.88702 0.90333 0.0
H1411 H 0.89031 0.8972 0.89646 0.0
C1412 C 0.02918 0.93371 0.8797 0.0
C1413 C 0.0375 0.91447 0.87427 0.0
C1414 C 0.04681 0.96292 0.87724 0.0
C1415 C 0.07324 0.97313 0.86896 0.0
C1416 C 0.08227 0.95395 0.86416 0.0
C1417 C 0.06444 0.92497 0.86699 0.0
C1418 C 0.03668 0.98275 0.8829 0.0
C1419 C 0.11033 0.96391 0.85535 0.0
C1420 C 0.10586 0.04258 0.84422 0.0
C1421 C 0.12808 0.06031 0.8551 0.0
C1422 C 0.08755 0.0142 0.84869 0.0
C1423 C 0.09113 0.00367 0.86465 0.0
C1424 C 0.11288 0.02197 0.876 0.0
C1425 C 0.13122 0.04998 0.87101 0.0
C1426 C 0.06501 0.99525 0.83606 0.0
C1427 C 0.11689 0.01193 0.89336 0.0
H1428 H 0.00844 0.92592 0.8853 0.0
H1429 H 0.07122 0.91042 0.86276 0.0
H1430 H 0.05316 1.00031 0.89064 0.0
H1431 H 0.03256 0.9922 0.8714 0.0
H1432 H 0.01702 0.97188 0.89068 0.0
H1433 H 0.11413 0.94627 0.85227 0.0
H1434 H 0.11124 0.97501 0.84317 0.0
H1435 H 0.1277 0.9792 0.86372 0.0
H1436 H 0.10348 0.05071 0.83197 0.0
H1437 H 0.14808 0.06398 0.87959 0.0
H1438 H 0.04398 0.98548 0.84232 0.0
H1439 H 0.06865 0.97788 0.83202 0.0
H1440 H 0.06465 0.00678 0.82436 0.0
H1441 H 0.09751 0.00443 0.90124 0.0
H1442 H 0.13497 0.02878 0.90061 0.0
H1443 H 0.12045 0.99383 0.89169 0.0
C1444 C 0.06885 0.09979 0.87775 0.0
C1445 C 0.08892 0.12791 0.87397 0.0
C1446 C 0.03984 0.08963 0.87544 0.0
C1447 C 0.03066 0.10799 0.86915 0.0
C1448 C 0.05068 0.13669 0.86613 0.0
C1449 C 0.07947 0.14631 0.86864 0.0
C1450 C 0.01914 0.05894 0.87901 0.0
C1451 C 0.04181 0.15703 0.85951 0.0
C1452 C 0.96126 0.07652 0.84445 0.0
C1453 C 0.94343 0.07853 0.85662 0.0
C1454 C 0.9897 0.08603 0.84836 0.0
C1455 C 1.00031 0.09706 0.86501 0.0
C1456 C 0.9821 0.09844 0.87747 0.0
C1457 C 0.95398 0.0894 0.87307 0.0
C1458 C 0.00855 0.08475 0.83458 0.0
C1459 C 0.99226 0.10926 0.89549 0.0
H1460 H 0.07583 0.08531 0.88175 0.0
H1461 H 0.09471 0.1681 0.86573 0.0
H1462 H 1.00168 0.05689 0.88731 0.0
H1463 H 0.00965 0.0479 0.86669 0.0
H1464 H 0.02926 0.04811 0.8854 0.0
H1465 H 0.05997 0.17872 0.85787 0.0
H1466 H 0.03102 0.14962 0.84688 0.0
H1467 H 0.02654 0.15786 0.86857 0.0
H1468 H 0.95301 0.06803 0.83178 0.0
H1469 H 0.93999 0.0903 0.88263 0.0
H1470 H 0.01771 0.07185 0.83912 0.0
H1471 H 0.02635 0.10627 0.83195 0.0
H1472 H 0.99709 0.07563 0.8223 0.0
H1473 H 0.99912 0.09562 0.90195 0.0
H1474 H 0.97565 0.1097 0.90352 0.0
H1475 H 0.0108 0.13085 0.89498 0.0
C1476 C 0.94086 0.85993 0.63191 0.0
C1477 C 0.97015 0.87797 0.63168 0.0
C1478 C 0.92247 0.87046 0.63468 0.0
C1479 C 0.93369 0.89965 0.63777 0.0
C1480 C 0.96326 0.91806 0.6371 0.0
C1481 C 0.98113 0.90703 0.63387 0.0
C1482 C 0.89106 0.85023 0.63477 0.0
C1483 C 0.97612 0.94919 0.64074 0.0
C1484 C 0.88546 0.9307 0.63375 0.0
C1485 C 0.87778 0.9309 0.65097 0.0
C1486 C 0.9038 0.92077 0.62925 0.0
C1487 C 0.91458 0.91074 0.64234 0.0
C1488 C 0.90687 0.91107 0.65982 0.0
C1489 C 0.8885 0.92119 0.66392 0.0
C1490 C 0.91132 0.92066 0.61051 0.0
C1491 C 0.91766 0.90033 0.67415 0.0
H1492 H 0.93236 0.83742 0.6304 0.0
H1493 H 0.00379 0.92095 0.63417 0.0
H1494 H 0.88201 0.85081 0.64749 0.0
H1495 H 0.88074 0.85669 0.62491 0.0
H1496 H 0.88575 0.82818 0.63208 0.0
H1497 H 0.99929 0.96091 0.63865 0.0
H1498 H 0.96644 0.95849 0.63239 0.0
H1499 H 0.9718 0.95227 0.65434 0.0
H1500 H 0.87678 0.93807 0.62382 0.0
H1501 H 0.88214 0.92121 0.67717 0.0
H1502 H 0.90458 0.8988 0.60634 0.0
H1503 H 0.93451 0.93327 0.60878 0.0
H1504 H 0.90129 0.92937 0.60193 0.0
H1505 H 0.90948 0.87741 0.67241 0.0
H1506 H 0.91116 0.90373 0.68711 0.0
H1507 H 0.94101 0.91098 0.67368 0.0
C1508 C 0.09528 0.95572 0.63406 0.0
C1509 C 0.07495 0.94135 0.64696 0.0
C1510 C 0.10331 0.98355 0.62941 0.0
C1511 C 0.09065 0.99742 0.63778 0.0
C1512 C 0.06938 0.98275 0.65029 0.0
C1513 C 0.06199 0.95508 0.65483 0.0
C1514 C 0.12622 0.99841 0.61609 0.0
C1515 C 0.05508 0.99665 0.65937 0.0
C1516 C 0.13201 0.07604 0.64564 0.0
C1517 C 0.12167 0.08679 0.63295 0.0
C1518 C 0.12327 0.04733 0.64658 0.0
C1519 C 0.10208 0.02825 0.63527 0.0
C1520 C 0.0908 0.03862 0.62265 0.0
C1521 C 0.10092 0.06789 0.62152 0.0
C1522 C 0.13625 0.03738 0.66009 0.0
C1523 C 0.06792 0.01878 0.6105 0.0
H1524 H 0.10502 0.94533 0.6275 0.0
H1525 H 0.04634 0.94443 0.6648 0.0
H1526 H 0.12083 0.01067 0.60703 0.0
H1527 H 0.14612 0.01351 0.62268 0.0
H1528 H 0.13008 0.98341 0.60853 0.0
H1529 H 0.03688 0.9815 0.66734 0.0
H1530 H 0.07042 0.01371 0.6679 0.0
H1531 H 0.04753 0.00647 0.64981 0.0
H1532 H 0.14632 0.08995 0.65539 0.0
H1533 H 0.09244 0.07591 0.61186 0.0
H1534 H 0.14382 0.02399 0.65406 0.0
H1535 H 0.12013 0.02433 0.66985 0.0
H1536 H 0.15426 0.0552 0.66681 0.0
H1537 H 0.07628 0.00847 0.60189 0.0
H1538 H 0.05973 0.02982 0.60239 0.0
H1539 H 0.05013 1.00183 0.61788 0.0
C1540 C 0.93758 0.03145 0.62373 0.0
C1541 C 0.9175 0.03834 0.62962 0.0
C1542 C 0.96667 0.05025 0.62591 0.0
C1543 C 0.97592 0.07635 0.63443 0.0
C1544 C 0.95582 0.08392 0.63968 0.0
C1545 C 0.927 0.06502 0.63707 0.0
C1546 C 0.98741 0.04162 0.61971 0.0
C1547 C 0.96467 0.11152 0.6488 0.0
C1548 C 0.0457 0.11113 0.65888 0.0
C1549 C 0.06282 0.13393 0.64812 0.0
C1550 C 0.01751 0.09197 0.65445 0.0
C1551 C 0.00637 0.09532 0.63867 0.0
C1552 C 0.02391 0.1178 0.6275 0.0
C1553 C 0.0518 0.13691 0.63241 0.0
C1554 C 0.99944 0.06854 0.66685 0.0
C1555 C 0.01325 0.1216 0.61031 0.0
H1556 H 0.93059 0.01096 0.61798 0.0
H1557 H 0.91182 0.07075 0.64165 0.0
H1558 H 0.00501 0.05914 0.61256 0.0
H1559 H 0.99666 0.03668 0.63098 0.0
H1560 H 0.9773 0.02275 0.61122 0.0
H1561 H 0.94646 0.11434 0.652 0.0
H1562 H 0.97589 0.11253 0.66094 0.0
H1563 H 0.97956 0.12943 0.6406 0.0
H1564 H 0.05425 0.10867 0.67093 0.0
H1565 H 0.06522 0.15399 0.62379 0.0
H1566 H 0.99078 0.04781 0.66033 0.0
H1567 H 0.98126 0.07074 0.67108 0.0
H1568 H 0.01134 0.06855 0.67846 0.0
H1569 H 0.00658 0.10257 0.60222 0.0
H1570 H 0.02948 0.14029 0.60316 0.0
H1571 H 0.99448 0.12398 0.61222 0.0
C1572 C 0.72891 0.44687 0.47054 0.0
C1573 C 0.74766 0.4745 0.47614 0.0
C1574 C 0.73831 0.42796 0.4666 0.0
C1575 C 0.76732 0.43688 0.46806 0.0
C1576 C 0.78658 0.46509 0.47295 0.0
C1577 C 0.77651 0.48358 0.47694 0.0
C1578 C 0.71697 0.39805 0.46161 0.0
C1579 C 0.81771 0.47545 0.47447 0.0
C1580 C 0.78671 0.38143 0.47938 0.0
C1581 C 0.79395 0.37518 0.46327 0.0
C1582 C 0.77774 0.40118 0.48101 0.0
C1583 C 0.77694 0.41591 0.46622 0.0
C1584 C 0.78467 0.41001 0.44989 0.0
C1585 C 0.7927 0.38929 0.44855 0.0
C1586 C 0.76901 0.40617 0.49859 0.0
C1587 C 0.78439 0.4255 0.43386 0.0
H1588 H 0.70668 0.43983 0.46935 0.0
H1589 H 0.79107 0.50485 0.48121 0.0
H1590 H 0.72354 0.39197 0.44956 0.0
H1591 H 0.71576 0.38338 0.4719 0.0
H1592 H 0.69557 0.39511 0.45967 0.0
H1593 H 0.8301 0.49835 0.47744 0.0
H1594 H 0.82141 0.46372 0.48484 0.0
H1595 H 0.82568 0.47139 0.46224 0.0
H1596 H 0.78801 0.37075 0.49081 0.0
H1597 H 0.79861 0.38462 0.43614 0.0
H1598 H 0.74701 0.40203 0.49811 0.0
H1599 H 0.78265 0.42851 0.50245 0.0
H1600 H 0.77033 0.39251 0.50872 0.0
H1601 H 0.76228 0.41797 0.42996 0.0
H1602 H 0.79547 0.42209 0.4229 0.0
H1603 H 0.79445 0.44847 0.4364 0.0
C1604 C 0.63144 0.40906 0.46998 0.0
C1605 C 0.61841 0.42391 0.46386 0.0
C1606 C 0.61595 0.3798 0.47277 0.0
C1607 C 0.58671 0.36483 0.46914 0.0
C1608 C 0.5739 0.37929 0.46169 0.0
C1609 C 0.58987 0.40864 0.45917 0.0
C1610 C 0.6306 0.36522 0.48047 0.0
C1611 C 0.54289 0.36404 0.45737 0.0
C1612 C 0.54716 0.28453 0.46757 0.0
C1613 C 0.53463 0.27751 0.48395 0.0
C1614 C 0.5645 0.3128 0.46262 0.0
C1615 C 0.56911 0.3346 0.4743 0.0
C1616 C 0.55641 0.32752 0.49091 0.0
C1617 C 0.53928 0.299 0.49552 0.0
C1618 C 0.57763 0.31931 0.44484 0.0
C1619 C 0.56101 0.35009 0.50382 0.0
H1620 H 0.65353 0.42053 0.47351 0.0
H1621 H 0.57953 0.41978 0.45443 0.0
H1622 H 0.62109 0.35601 0.49318 0.0
H1623 H 0.6277 0.3476 0.47202 0.0
H1624 H 0.65355 0.3798 0.4823 0.0
H1625 H 0.53674 0.37757 0.45007 0.0
H1626 H 0.53721 0.34487 0.44963 0.0
H1627 H 0.53037 0.3571 0.46948 0.0
H1628 H 0.54302 0.26785 0.45855 0.0
H1629 H 0.52953 0.29338 0.50817 0.0
H1630 H 0.6009 0.33219 0.44589 0.0
H1631 H 0.57044 0.33192 0.43749 0.0
H1632 H 0.57222 0.29991 0.43739 0.0
H1633 H 0.58377 0.36288 0.50696 0.0
H1634 H 0.54907 0.34113 0.51599 0.0
H1635 H 0.55448 0.36457 0.4982 0.0
C1636 C 0.71535 0.28246 0.48816 0.0
C1637 C 0.73029 0.27069 0.48052 0.0
C1638 C 0.68793 0.27453 0.48277 0.0
C1639 C 0.67529 0.25452 0.4693 0.0
C1640 C 0.69081 0.24365 0.46096 0.0
C1641 C 0.71809 0.25178 0.46671 0.0
C1642 C 0.67193 0.28635 0.49215 0.0
C1643 C 0.67818 0.22254 0.44643 0.0
C1644 C 0.59697 0.20681 0.47439 0.0
C1645 C 0.58569 0.21885 0.46315 0.0
C1646 C 0.62593 0.21771 0.47597 0.0
C1647 C 0.64454 0.24148 0.4661 0.0
C1648 C 0.63362 0.25321 0.45417 0.0
C1649 C 0.60421 0.24184 0.4529 0.0
C1650 C 0.63657 0.2045 0.48891 0.0
C1651 C 0.65296 0.2784 0.44328 0.0
H1652 H 0.72484 0.29726 0.49872 0.0
H1653 H 0.72992 0.24335 0.46036 0.0
H1654 H 0.6618 0.29384 0.48281 0.0
H1655 H 0.65493 0.26947 0.50003 0.0
H1656 H 0.68577 0.30408 0.50084 0.0
H1657 H 0.69394 0.21831 0.44015 0.0
H1658 H 0.66076 0.20234 0.45148 0.0
H1659 H 0.66904 0.23027 0.43652 0.0
H1660 H 0.58328 0.18951 0.48276 0.0
H1661 H 0.59583 0.25145 0.44429 0.0
H1662 H 0.64864 0.21995 0.49922 0.0
H1663 H 0.65106 0.19863 0.48255 0.0
H1664 H 0.6192 0.18532 0.49505 0.0
H1665 H 0.66296 0.29753 0.45152 0.0
H1666 H 0.64144 0.28194 0.43268 0.0
H1667 H 0.67011 0.27574 0.43762 0.0
C1668 C 0.8157 0.43678 0.68671 0.0
C1669 C 0.80569 0.40772 0.68763 0.0
C1670 C 0.79792 0.44784 0.69018 0.0
C1671 C 0.76939 0.42943 0.69479 0.0
C1672 C 0.75907 0.40003 0.69565 0.0
C1673 C 0.77729 0.38955 0.69202 0.0
C1674 C 0.80979 0.47931 0.68912 0.0
C1675 C 0.72885 0.37964 0.70056 0.0
C1676 C 0.7317 0.4608 0.71985 0.0
C1677 C 0.71665 0.46529 0.70678 0.0
C1678 C 0.74872 0.44896 0.71616 0.0
C1679 C 0.75055 0.44106 0.69899 0.0
C1680 C 0.73494 0.44496 0.68579 0.0
C1681 C 0.71834 0.45719 0.68982 0.0
C1682 C 0.76508 0.44526 0.73061 0.0
C1683 C 0.73607 0.43654 0.66736 0.0
H1684 H 0.83749 0.4509 0.6832 0.0
H1685 H 0.76942 0.36711 0.69307 0.0
H1686 H 0.79707 0.48414 0.68009 0.0
H1687 H 0.8086 0.48758 0.70199 0.0
H1688 H 0.83209 0.49064 0.68472 0.0
H1689 H 0.72431 0.35747 0.70109 0.0
H1690 H 0.72402 0.38534 0.71336 0.0
H1691 H 0.71441 0.38097 0.69107 0.0
H1692 H 0.7306 0.46701 0.73299 0.0
H1693 H 0.70667 0.46038 0.67965 0.0
H1694 H 0.788 0.45776 0.72784 0.0
H1695 H 0.75947 0.42284 0.73154 0.0
H1696 H 0.76101 0.45202 0.74331 0.0
H1697 H 0.75781 0.44943 0.66225 0.0
H1698 H 0.72141 0.43937 0.6588 0.0
H1699 H 0.73071 0.41415 0.6668 0.0
C1700 C 0.60741 0.38871 0.70493 0.0
C1701 C 0.59592 0.39618 0.6911 0.0
C1702 C 0.59539 0.36054 0.71036 0.0
C1703 C 0.57166 0.33921 0.70152 0.0
C1704 C 0.5599 0.34671 0.68761 0.0
C1705 C 0.572 0.37513 0.6827 0.0
C1706 C 0.60844 0.35356 0.72534 0.0
C1707 C 0.53498 0.32461 0.67757 0.0
C1708 C 0.55787 0.26418 0.69988 0.0
C1709 C 0.53361 0.24957 0.71018 0.0
C1710 C 0.57111 0.29344 0.69752 0.0
C1711 C 0.56019 0.30886 0.70592 0.0
C1712 C 0.53705 0.29474 0.71739 0.0
C1713 C 0.52399 0.26524 0.71938 0.0
C1714 C 0.5957 0.30751 0.68514 0.0
C1715 C 0.52536 0.31066 0.72696 0.0
H1716 H 0.6257 0.40501 0.71161 0.0
H1717 H 0.56326 0.38084 0.67193 0.0
H1718 H 0.59196 0.33988 0.73477 0.0
H1719 H 0.61862 0.34169 0.72062 0.0
H1720 H 0.62458 0.37278 0.73212 0.0
H1721 H 0.52814 0.33395 0.66725 0.0
H1722 H 0.54048 0.30959 0.67155 0.0
H1723 H 0.51694 0.31233 0.68641 0.0
H1724 H 0.56588 0.25267 0.69287 0.0
H1725 H 0.50541 0.25437 0.72745 0.0
H1726 H 0.61394 0.32554 0.6915 0.0
H1727 H 0.58974 0.31603 0.67393 0.0
H1728 H 0.60249 0.29275 0.68027 0.0
H1729 H 0.54223 0.32773 0.73478 0.0
H1730 H 0.50761 0.29677 0.73563 0.0
H1731 H 0.51784 0.32081 0.71763 0.0
C1732 C 0.62389 0.23474 0.68972 0.0
C1733 C 0.61137 0.2052 0.69066 0.0
C1734 C 0.65197 0.25265 0.69472 0.0
C1735 C 0.66835 0.24091 0.70051 0.0
C1736 C 0.65571 0.21131 0.70223 0.0
C1737 C 0.62742 0.19385 0.69736 0.0
C1738 C 0.66454 0.28415 0.69286 0.0
C1739 C 0.67242 0.19802 0.70859 0.0
C1740 C 0.74559 0.28114 0.68841 0.0
C1741 C 0.75849 0.29533 0.70376 0.0
C1742 C 0.71641 0.26343 0.68733 0.0
C1743 C 0.6995 0.25917 0.70208 0.0
C1744 C 0.71237 0.27297 0.71779 0.0
C1745 C 0.74178 0.29142 0.71836 0.0
C1746 C 0.70363 0.24974 0.6702 0.0
C1747 C 0.69511 0.26869 0.73387 0.0
H1748 H 0.61218 0.24418 0.68463 0.0
H1749 H 0.61813 0.17128 0.69867 0.0
H1750 H 0.67651 0.29521 0.70463 0.0
H1751 H 0.67957 0.2918 0.68187 0.0
H1752 H 0.64819 0.29011 0.69052 0.0
H1753 H 0.65903 0.17491 0.71054 0.0
H1754 H 0.68917 0.20182 0.6991 0.0
H1755 H 0.683 0.20786 0.72096 0.0
H1756 H 0.75831 0.28466 0.67695 0.0
H1757 H 0.7517 0.30252 0.73019 0.0
H1758 H 0.68868 0.25654 0.66582 0.0
H1759 H 0.69153 0.22647 0.67164 0.0
H1760 H 0.71981 0.25515 0.65998 0.0
H1761 H 0.68377 0.28065 0.73269 0.0
H1762 H 0.7085 0.27614 0.74563 0.0
H1763 H 0.67904 0.24612 0.73556 0.0
C1764 C 0.55741 0.29364 0.20061 0.0
C1765 C 0.52992 0.28011 0.20744 0.0
C1766 C 0.57194 0.27893 0.19779 0.0
C1767 C 0.5589 0.25002 0.20216 0.0
C1768 C 0.53217 0.23682 0.21036 0.0
C1769 C 0.51791 0.25196 0.21282 0.0
C1770 C 0.60046 0.29392 0.1891 0.0
C1771 C 0.51809 0.2063 0.21581 0.0
C1772 C 0.57751 0.20261 0.17604 0.0
C1773 C 0.59672 0.20055 0.18691 0.0
C1774 C 0.56537 0.21898 0.18077 0.0
C1775 C 0.57219 0.23309 0.19694 0.0
C1776 C 0.5915 0.23083 0.20802 0.0
C1777 C 0.60365 0.21471 0.20279 0.0
C1778 C 0.54522 0.22119 0.16846 0.0
C1779 C 0.59935 0.24535 0.22537 0.0
H1780 H 0.56712 0.31546 0.19656 0.0
H1781 H 0.4968 0.2413 0.21819 0.0
H1782 H 0.61594 0.29065 0.19645 0.0
H1783 H 0.59883 0.28496 0.17601 0.0
H1784 H 0.60871 0.31695 0.18783 0.0
H1785 H 0.49814 0.1996 0.22298 0.0
H1786 H 0.51334 0.19266 0.20426 0.0
H1787 H 0.53252 0.20275 0.22411 0.0
H1788 H 0.5722 0.19148 0.16382 0.0
H1789 H 0.61802 0.21255 0.21132 0.0
H1790 H 0.55293 0.24365 0.16531 0.0
H1791 H 0.52424 0.21273 0.17465 0.0
H1792 H 0.54264 0.20948 0.15625 0.0
H1793 H 0.61273 0.26843 0.22347 0.0
H1794 H 0.61123 0.23806 0.23345 0.0
H1795 H 0.58024 0.24165 0.23254 0.0
C1796 C 0.80397 0.38369 0.20381 0.0
C1797 C 0.79721 0.39539 0.18978 0.0
C1798 C 0.78555 0.35605 0.20932 0.0
C1799 C 0.75996 0.3395 0.20034 0.0
C1800 C 0.75256 0.35153 0.18653 0.0
C1801 C 0.77119 0.37949 0.18154 0.0
C1802 C 0.79404 0.34431 0.22431 0.0
C1803 C 0.72558 0.33445 0.17651 0.0
C1804 C 0.73208 0.26102 0.19773 0.0
C1805 C 0.70757 0.24996 0.20795 0.0
C1806 C 0.74936 0.29007 0.19537 0.0
C1807 C 0.7427 0.30879 0.20393 0.0
C1808 C 0.7192 0.29802 0.21523 0.0
C1809 C 0.70166 0.26864 0.21697 0.0
C1810 C 0.77398 0.30061 0.183 0.0
C1811 C 0.71235 0.31751 0.22521 0.0
H1812 H 0.82372 0.39626 0.21057 0.0
H1813 H 0.76589 0.38868 0.17082 0.0
H1814 H 0.77579 0.33152 0.2329 0.0
H1815 H 0.80168 0.33031 0.21935 0.0
H1816 H 0.8112 0.36128 0.23207 0.0
H1817 H 0.72225 0.34732 0.16673 0.0
H1818 H 0.72613 0.31679 0.16983 0.0
H1819 H 0.70725 0.32506 0.18542 0.0
H1820 H 0.73714 0.24694 0.19076 0.0
H1821 H 0.68293 0.26035 0.22496 0.0
H1822 H 0.7939 0.31515 0.18974 0.0
H1823 H 0.77131 0.31266 0.17238 0.0
H1824 H 0.77615 0.28319 0.17725 0.0
H1825 H 0.73036 0.33136 0.23369 0.0
H1826 H 0.69316 0.30582 0.23331 0.0
H1827 H 0.70914 0.33142 0.21622 0.0
C1828 C 0.73586 0.43708 0.21694 0.0
C1829 C 0.75596 0.46208 0.20886 0.0
C1830 C 0.70676 0.42716 0.21517 0.0
C1831 C 0.69749 0.44223 0.20475 0.0
C1832 C 0.71767 0.46795 0.19706 0.0
C1833 C 0.74652 0.4777 0.19939 0.0
C1834 C 0.68595 0.39995 0.22389 0.0
C1835 C 0.70882 0.48451 0.18564 0.0
C1836 C 0.62596 0.40179 0.18267 0.0
C1837 C 0.60959 0.41004 0.19229 0.0
C1838 C 0.65445 0.41191 0.18668 0.0
C1839 C 0.66686 0.4304 0.20088 0.0
C1840 C 0.6503 0.43851 0.2108 0.0
C1841 C 0.62195 0.42843 0.20629 0.0
C1842 C 0.67139 0.40316 0.1755 0.0
C1843 C 0.66245 0.45754 0.22631 0.0
H1844 H 0.7428 0.4248 0.22425 0.0
H1845 H 0.76168 0.49703 0.19301 0.0
H1846 H 0.66918 0.40226 0.23044 0.0
H1847 H 0.67559 0.38309 0.21406 0.0
H1848 H 0.69628 0.39307 0.23353 0.0
H1849 H 0.72709 0.50437 0.18083 0.0
H1850 H 0.69694 0.47148 0.17435 0.0
H1851 H 0.69452 0.48981 0.19278 0.0
H1852 H 0.6165 0.38766 0.17181 0.0
H1853 H 0.60921 0.43439 0.21398 0.0
H1854 H 0.68017 0.39257 0.18347 0.0
H1855 H 0.68947 0.4221 0.16968 0.0
H1856 H 0.6586 0.38862 0.16496 0.0
H1857 H 0.66939 0.44735 0.23599 0.0
H1858 H 0.64699 0.46231 0.23249 0.0
H1859 H 0.68131 0.47768 0.22252 0.0
C1860 C 0.55884 0.27572 0.97051 0.0
C1861 C 0.53403 0.2604 0.98015 0.0
C1862 C 0.57587 0.26408 0.96638 0.0
C1863 C 0.56824 0.23679 0.97248 0.0
C1864 C 0.54344 0.22153 0.98252 0.0
C1865 C 0.52638 0.23335 0.98597 0.0
C1866 C 0.60164 0.28072 0.95522 0.0
C1867 C 0.53522 0.19295 0.98995 0.0
C1868 C 0.59552 0.19026 0.95435 0.0
C1869 C 0.61691 0.19533 0.96616 0.0
C1870 C 0.5807 0.20509 0.95552 0.0
C1871 C 0.58671 0.22453 0.9692 0.0
C1872 C 0.60888 0.23034 0.98079 0.0
C1873 C 0.62397 0.21608 0.97893 0.0
C1874 C 0.55797 0.19926 0.94249 0.0
C1875 C 0.6157 0.25047 0.99576 0.0
H1876 H 0.56448 0.29653 0.96584 0.0
H1877 H 0.50726 0.22173 0.9935 0.0
H1878 H 0.62071 0.28306 0.96174 0.0
H1879 H 0.59917 0.26915 0.94298 0.0
H1880 H 0.6052 0.30206 0.95208 0.0
H1881 H 0.51545 0.184 0.99762 0.0
H1882 H 0.53232 0.17798 0.97943 0.0
H1883 H 0.55236 0.19464 0.9984 0.0
H1884 H 0.59005 0.1744 0.94442 0.0
H1885 H 0.6403 0.22009 0.98825 0.0
H1886 H 0.56067 0.21938 0.93735 0.0
H1887 H 0.53701 0.18798 0.94883 0.0
H1888 H 0.55813 0.18624 0.93153 0.0
H1889 H 0.62205 0.27188 0.99092 0.0
H1890 H 0.63297 0.25188 0.00398 0.0
H1891 H 0.59671 0.24359 0.00394 0.0
C1892 C 0.76837 0.28796 0.96771 0.0
C1893 C 0.74445 0.27324 0.97825 0.0
C1894 C 0.77874 0.31643 0.96337 0.0
C1895 C 0.76489 0.33062 0.96966 0.0
C1896 C 0.74019 0.31569 0.97976 0.0
C1897 C 0.73048 0.28741 0.98404 0.0
C1898 C 0.80508 0.3316 0.95251 0.0
C1899 C 0.72456 0.3299 0.98661 0.0
C1900 C 0.80835 0.40884 0.97913 0.0
C1901 C 0.80001 0.42079 0.96597 0.0
C1902 C 0.79736 0.37968 0.98023 0.0
C1903 C 0.77801 0.36177 0.96763 0.0
C1904 C 0.77028 0.37364 0.95388 0.0
C1905 C 0.78117 0.40304 0.95331 0.0
C1906 C 0.80555 0.36795 0.9954 0.0
C1907 C 0.75023 0.35527 0.93996 0.0
H1908 H 0.77912 0.27734 0.96282 0.0
H1909 H 0.7122 0.27671 0.99232 0.0
H1910 H 0.80198 0.34343 0.94194 0.0
H1911 H 0.82272 0.34717 0.96062 0.0
H1912 H 0.8113 0.31689 0.94681 0.0
H1913 H 0.70448 0.31481 0.9931 0.0
H1914 H 0.73803 0.34651 0.99602 0.0
H1915 H 0.71974 0.34035 0.97596 0.0
H1916 H 0.8226 0.42219 0.98914 0.0
H1917 H 0.77463 0.41207 0.94312 0.0
H1918 H 0.81429 0.3547 0.99079 0.0
H1919 H 0.78659 0.35427 0.00327 0.0
H1920 H 0.82141 0.38479 0.00387 0.0
H1921 H 0.7597 0.3445 0.93278 0.0
H1922 H 0.74522 0.36755 0.93065 0.0
H1923 H 0.73029 0.33861 0.94577 0.0
C1924 C 0.71703 0.47257 0.96462 0.0
C1925 C 0.72995 0.46658 0.97834 0.0
C1926 C 0.68851 0.4545 0.96054 0.0
C1927 C 0.67233 0.42989 0.97051 0.0
C1928 C 0.68537 0.42337 0.98413 0.0
C1929 C 0.71401 0.44172 0.98784 0.0
C1930 C 0.67556 0.46211 0.9458 0.0
C1931 C 0.66886 0.39736 0.99511 0.0
C1932 C 0.59352 0.4011 0.97458 0.0
C1933 C 0.58223 0.37651 0.96445 0.0
C1934 C 0.62271 0.41875 0.97641 0.0
C1935 C 0.64133 0.41215 0.96761 0.0
C1936 C 0.63021 0.38818 0.95668 0.0
C1937 C 0.60078 0.37054 0.95529 0.0
C1938 C 0.63359 0.44386 0.98838 0.0
C1939 C 0.6494 0.38088 0.94672 0.0
H1940 H 0.72929 0.49134 0.95693 0.0
H1941 H 0.72377 0.43692 0.99845 0.0
H1942 H 0.66345 0.44365 0.93724 0.0
H1943 H 0.66058 0.46835 0.95098 0.0
H1944 H 0.69169 0.47984 0.93795 0.0
H1945 H 0.68225 0.39488 0.00491 0.0
H1946 H 0.65155 0.39846 0.00186 0.0
H1947 H 0.65903 0.37827 0.98683 0.0
H1948 H 0.57954 0.40605 0.98175 0.0
H1949 H 0.59236 0.35165 0.94745 0.0
H1950 H 0.64807 0.46348 0.98132 0.0
H1951 H 0.64583 0.44154 0.99902 0.0
H1952 H 0.61633 0.44631 0.99411 0.0
H1953 H 0.66275 0.39836 0.93776 0.0
H1954 H 0.63749 0.36116 0.93911 0.0
H1955 H 0.66379 0.37838 0.95567 0.0
C1956 C 0.43862 0.81714 0.8069 0.0
C1957 C 0.41232 0.80642 0.81508 0.0
C1958 C 0.45006 0.79973 0.80323 0.0
C1959 C 0.43479 0.77077 0.80768 0.0
C1960 C 0.40821 0.75974 0.81584 0.0
C1961 C 0.39748 0.77768 0.81959 0.0
C1962 C 0.47839 0.81226 0.7944 0.0
C1963 C 0.39106 0.72893 0.82066 0.0
C1964 C 0.45072 0.71871 0.78486 0.0
C1965 C 0.46686 0.71434 0.79725 0.0
C1966 C 0.44047 0.73724 0.78798 0.0
C1967 C 0.44655 0.75193 0.80387 0.0
C1968 C 0.46317 0.74797 0.81634 0.0
C1969 C 0.47313 0.72924 0.81288 0.0
C1970 C 0.42266 0.74068 0.77439 0.0
C1971 C 0.47021 0.76334 0.8334 0.0
H1972 H 0.45016 0.83907 0.80308 0.0
H1973 H 0.37742 0.76902 0.82616 0.0
H1974 H 0.49296 0.80811 0.80213 0.0
H1975 H 0.47599 0.80212 0.78162 0.0
H1976 H 0.48817 0.83538 0.79246 0.0
H1977 H 0.36996 0.72326 0.82588 0.0
H1978 H 0.38812 0.71548 0.80924 0.0
H1979 H 0.40251 0.72387 0.83054 0.0
H1980 H 0.44572 0.70733 0.77273 0.0
H1981 H 0.48572 0.72617 0.82248 0.0
H1982 H 0.43194 0.76324 0.77089 0.0
H1983 H 0.40124 0.73352 0.77958 0.0
H1984 H 0.42064 0.72847 0.76248 0.0
H1985 H 0.48145 0.78645 0.83116 0.0
H1986 H 0.48357 0.75817 0.84166 0.0
H1987 H 0.45052 0.75784 0.84052 0.0
C1988 C 0.25668 0.74156 0.78735 0.0
C1989 C 0.2824 0.75753 0.79599 0.0
C1990 C 0.24182 0.71191 0.78837 0.0
C1991 C 0.25256 0.69801 0.79864 0.0
C1992 C 0.27941 0.71388 0.80636 0.0
C1993 C 0.29412 0.74331 0.80474 0.0
C1994 C 0.21381 0.69557 0.77932 0.0
C1995 C 0.29179 0.7 0.81739 0.0
C1996 C 0.19964 0.6316 0.82231 0.0
C1997 C 0.20119 0.6104 0.81309 0.0
C1998 C 0.21608 0.66007 0.8176 0.0
C1999 C 0.23441 0.66763 0.80317 0.0
C2000 C 0.236 0.64634 0.79371 0.0
C2001 C 0.21939 0.618 0.79879 0.0
C2002 C 0.21424 0.68215 0.82833 0.0
C2003 C 0.25491 0.65339 0.7781 0.0
H2004 H 0.24756 0.75223 0.78039 0.0
H2005 H 0.31406 0.75521 0.81135 0.0
H2006 H 0.21233 0.677 0.77255 0.0
H2007 H 0.19655 0.68762 0.78898 0.0
H2008 H 0.21045 0.70876 0.76979 0.0
H2009 H 0.31339 0.71523 0.82198 0.0
H2010 H 0.27811 0.69003 0.82882 0.0
H2011 H 0.29264 0.68306 0.81003 0.0
H2012 H 0.18602 0.62599 0.83351 0.0
H2013 H 0.22043 0.60171 0.79142 0.0
H2014 H 0.20769 0.69444 0.82011 0.0
H2015 H 0.2353 0.69716 0.83371 0.0
H2016 H 0.19903 0.67281 0.83918 0.0
H2017 H 0.24656 0.66075 0.76751 0.0
H2018 H 0.25628 0.63493 0.77342 0.0
H2019 H 0.27649 0.67077 0.78102 0.0
C2020 C 0.26222 0.54606 0.81242 0.0
C2021 C 0.25161 0.54004 0.79553 0.0
C2022 C 0.29102 0.55692 0.81574 0.0
C2023 C 0.30987 0.56244 0.80182 0.0
C2024 C 0.29942 0.55693 0.78469 0.0
C2025 C 0.27041 0.54574 0.78176 0.0
C2026 C 0.30132 0.56249 0.83419 0.0
C2027 C 0.31881 0.56253 0.76949 0.0
C2028 C 0.38695 0.61459 0.81111 0.0
C2029 C 0.3978 0.59673 0.81503 0.0
C2030 C 0.35865 0.60375 0.80635 0.0
C2031 C 0.34052 0.57424 0.8053 0.0
C2032 C 0.35133 0.55604 0.80862 0.0
C2033 C 0.37966 0.56743 0.81357 0.0
C2034 C 0.34803 0.62394 0.80275 0.0
C2035 C 0.33279 0.52441 0.80745 0.0
H2036 H 0.24799 0.5423 0.82312 0.0
H2037 H 0.26245 0.54122 0.76865 0.0
H2038 H 0.31209 0.55043 0.83728 0.0
H2039 H 0.31699 0.58518 0.83588 0.0
H2040 H 0.28391 0.55657 0.84359 0.0
H2041 H 0.30759 0.55835 0.75694 0.0
H2042 H 0.33624 0.58475 0.76965 0.0
H2043 H 0.32849 0.54898 0.77039 0.0
H2044 H 0.40031 0.6372 0.81178 0.0
H2045 H 0.38729 0.55313 0.81645 0.0
H2046 H 0.33176 0.62084 0.81243 0.0
H2047 H 0.3379 0.61961 0.78986 0.0
H2048 H 0.36514 0.64634 0.80319 0.0
H2049 H 0.31804 0.51679 0.81858 0.0
H2050 H 0.34525 0.51347 0.80761 0.0
H2051 H 0.31991 0.51834 0.7955 0.0
C2052 C 0.40371 0.8036 0.05301 0.0
C2053 C 0.38391 0.80079 0.04058 0.0
C2054 C 0.41852 0.78883 0.05127 0.0
C2055 C 0.4144 0.7722 0.03633 0.0
C2056 C 0.3935 0.76831 0.02422 0.0
C2057 C 0.37808 0.78203 0.02673 0.0
C2058 C 0.43938 0.79196 0.065 0.0
C2059 C 0.38873 0.75124 0.00793 0.0
C2060 C 0.47597 0.76767 0.01758 0.0
C2061 C 0.46806 0.73949 0.02076 0.0
C2062 C 0.45907 0.77875 0.02306 0.0
C2063 C 0.43374 0.76132 0.03218 0.0
C2064 C 0.42575 0.73292 0.03563 0.0
C2065 C 0.44292 0.72231 0.02979 0.0
C2066 C 0.4679 0.8089 0.0186 0.0
C2067 C 0.3993 0.71382 0.04568 0.0
H2068 H 0.40808 0.81777 0.06383 0.0
H2069 H 0.36284 0.7796 0.01699 0.0
H2070 H 0.43751 0.77125 0.0679 0.0
H2071 H 0.46113 0.80618 0.06029 0.0
H2072 H 0.43626 0.80092 0.07713 0.0
H2073 H 0.37136 0.75003 0.9999 0.0
H2074 H 0.4083 0.76087 1.00005 0.0
H2075 H 0.38366 0.72949 0.01117 0.0
H2076 H 0.49524 0.78095 0.01051 0.0
H2077 H 0.43684 0.70066 0.03258 0.0
H2078 H 0.4697 0.82094 0.03052 0.0
H2079 H 0.45161 0.8094 0.01035 0.0
H2080 H 0.48841 0.81975 0.01168 0.0
H2081 H 0.40222 0.72083 0.05935 0.0
H2082 H 0.39423 0.69151 0.0453 0.0
H2083 H 0.38095 0.71494 0.04063 0.0
C2084 C 0.19492 0.59435 0.03786 0.0
C2085 C 0.21396 0.58466 0.04066 0.0
C2086 C 0.20433 0.62322 0.03601 0.0
C2087 C 0.23355 0.64299 0.03687 0.0
C2088 C 0.25276 0.63351 0.04062 0.0
C2089 C 0.24272 0.60445 0.04254 0.0
C2090 C 0.18312 0.63242 0.03215 0.0
C2091 C 0.28405 0.65393 0.04184 0.0
C2092 C 0.25949 0.71085 0.01124 0.0
C2093 C 0.26067 0.72957 0.02396 0.0
C2094 C 0.25074 0.68264 0.01529 0.0
C2095 C 0.24396 0.67322 0.03261 0.0
C2096 C 0.24603 0.69241 0.0456 0.0
C2097 C 0.25392 0.72026 0.04106 0.0
C2098 C 0.24848 0.66284 1.00098 0.0
C2099 C 0.23975 0.68354 0.06427 0.0
H2100 H 0.17265 0.57922 0.03641 0.0
H2101 H 0.25763 0.59718 0.04452 0.0
H2102 H 0.18577 0.64922 0.04125 0.0
H2103 H 0.18672 0.64138 0.01893 0.0
H2104 H 0.16105 0.6147 0.03305 0.0
H2105 H 0.29607 0.64335 0.04555 0.0
H2106 H 0.29212 0.66453 0.02922 0.0
H2107 H 0.28821 0.67059 0.05146 0.0
H2108 H 0.26515 0.71834 0.99809 0.0
H2109 H 0.25559 0.73507 0.05092 0.0
H2110 H 0.22648 0.64506 1.00011 0.0
H2111 H 0.2621 0.65371 0.00386 0.0
H2112 H 0.25469 0.67352 0.98823 0.0
H2113 H 0.21666 0.66998 0.06602 0.0
H2114 H 0.24729 0.70196 0.07307 0.0
H2115 H 0.24969 0.67102 0.06813 0.0
C2116 C 0.41372 0.60304 0.0331 0.0
C2117 C 0.42419 0.62964 0.0409 0.0
C2118 C 0.38473 0.58504 0.03056 0.0
C2119 C 0.36551 0.59349 0.03623 0.0
C2120 C 0.37567 0.61925 0.04532 0.0
C2121 C 0.40492 0.63713 0.04745 0.0
C2122 C 0.37483 0.55765 0.02095 0.0
C2123 C 0.35573 0.62851 0.05211 0.0
C2124 C 0.29625 0.56287 0.01155 0.0
C2125 C 0.27841 0.53981 0.02189 0.0
C2126 C 0.32458 0.58079 0.0162 0.0
C2127 C 0.33502 0.57592 0.03181 0.0
C2128 C 0.31666 0.5533 0.04265 0.0
C2129 C 0.2887 0.53534 0.03744 0.0
C2130 C 0.34355 0.60444 0.00418 0.0
C2131 C 0.32661 0.54764 0.05956 0.0
H2132 H 0.42829 0.59678 0.02813 0.0
H2133 H 0.41266 0.65748 0.05359 0.0
H2134 H 0.35865 0.53973 0.02861 0.0
H2135 H 0.36484 0.55817 0.0086 0.0
H2136 H 0.39235 0.55358 0.01805 0.0
H2137 H 0.3662 0.64612 0.06149 0.0
H2138 H 0.34774 0.63562 0.04119 0.0
H2139 H 0.33726 0.61071 0.05849 0.0
H2140 H 0.28818 0.56634 0.9996 0.0
H2141 H 0.2747 0.51786 0.04565 0.0
H2142 H 0.36102 0.60128 0.99967 0.0
H2143 H 0.35316 0.62488 0.01113 0.0
H2144 H 0.33208 0.60574 0.99272 0.0
H2145 H 0.33957 0.53767 0.05698 0.0
H2146 H 0.30868 0.53327 0.06798 0.0
H2147 H 0.33998 0.56757 0.06667 0.0
C2148 C 0.20266 0.60901 0.53102 0.0
C2149 C 0.21943 0.63515 0.53925 0.0
C2150 C 0.2122 0.58983 0.52863 0.0
C2151 C 0.23902 0.59645 0.53492 0.0
C2152 C 0.2556 0.62213 0.54395 0.0
C2153 C 0.24569 0.64129 0.54592 0.0
C2154 C 0.19395 0.56292 0.51871 0.0
C2155 C 0.28427 0.62984 0.55092 0.0
C2156 C 0.25061 0.53377 0.53864 0.0
C2157 C 0.2656 0.53609 0.52343 0.0
C2158 C 0.24269 0.5538 0.54283 0.0
C2159 C 0.24972 0.57666 0.5315 0.0
C2160 C 0.2651 0.5793 0.51621 0.0
C2161 C 0.27289 0.55903 0.51239 0.0
C2162 C 0.22654 0.55036 0.55932 0.0
C2163 C 0.27261 0.60305 0.50361 0.0
H2164 H 0.18236 0.60385 0.52573 0.0
H2165 H 0.25893 0.66142 0.55215 0.0
H2166 H 0.20518 0.56238 0.5069 0.0
H2167 H 0.1897 0.54435 0.52664 0.0
H2168 H 0.17345 0.56078 0.51481 0.0
H2169 H 0.2931 0.64883 0.55931 0.0
H2170 H 0.28315 0.61203 0.5584 0.0
H2171 H 0.29902 0.63415 0.54001 0.0
H2172 H 0.24547 0.51653 0.54745 0.0
H2173 H 0.28439 0.56091 0.50061 0.0
H2174 H 0.20502 0.54621 0.55622 0.0
H2175 H 0.23707 0.57012 0.56699 0.0
H2176 H 0.22465 0.53275 0.5674 0.0
H2177 H 0.25309 0.60037 0.49751 0.0
H2178 H 0.287 0.60373 0.49325 0.0
H2179 H 0.28279 0.62364 0.5104 0.0
C2180 C 0.4031 0.59199 0.53398 0.0
C2181 C 0.37429 0.58089 0.53741 0.0
C2182 C 0.42101 0.62095 0.53113 0.0
C2183 C 0.40983 0.63933 0.53156 0.0
C2184 C 0.38103 0.62846 0.53575 0.0
C2185 C 0.36361 0.59938 0.53871 0.0
C2186 C 0.45168 0.6317 0.52698 0.0
C2187 C 0.36827 0.64733 0.53625 0.0
C2188 C 0.46214 0.71796 0.53486 0.0
C2189 C 0.4643 0.72649 0.51761 0.0
C2190 C 0.44399 0.6898 0.53968 0.0
C2191 C 0.42802 0.66965 0.52685 0.0
C2192 C 0.43005 0.67834 0.50938 0.0
C2193 C 0.448 0.70681 0.50501 0.0
C2194 C 0.44218 0.68156 0.55843 0.0
C2195 C 0.41387 0.65744 0.49525 0.0
H2196 H 0.41147 0.57781 0.53292 0.0
H2197 H 0.34128 0.59094 0.54103 0.0
H2198 H 0.45676 0.64155 0.51398 0.0
H2199 H 0.46528 0.64821 0.53639 0.0
H2200 H 0.45708 0.61467 0.52724 0.0
H2201 H 0.34618 0.63607 0.54101 0.0
H2202 H 0.38092 0.66583 0.54468 0.0
H2203 H 0.36852 0.65546 0.52309 0.0
H2204 H 0.47478 0.73346 0.54454 0.0
H2205 H 0.44997 0.71364 0.4917 0.0
H2206 H 0.44975 0.66633 0.56001 0.0
H2207 H 0.41992 0.67092 0.56285 0.0
H2208 H 0.45489 0.70003 0.56691 0.0
H2209 H 0.42121 0.64193 0.49416 0.0
H2210 H 0.41658 0.66781 0.48252 0.0
H2211 H 0.39108 0.64551 0.49846 0.0
C2212 C 0.29741 0.7714 0.52345 0.0
C2213 C 0.27819 0.74254 0.52127 0.0
C2214 C 0.32536 0.781 0.52855 0.0
C2215 C 0.33458 0.76133 0.53126 0.0
C2216 C 0.3152 0.73215 0.52958 0.0
C2217 C 0.28732 0.72314 0.52467 0.0
C2218 C 0.34531 0.81231 0.53034 0.0
C2219 C 0.32414 0.71044 0.5324 0.0
C2220 C 0.41087 0.78672 0.52027 0.0
C2221 C 0.4232 0.79032 0.53659 0.0
C2222 C 0.38205 0.77693 0.51847 0.0
C2223 C 0.36515 0.77132 0.53339 0.0
C2224 C 0.37751 0.77511 0.55 0.0
C2225 C 0.40651 0.78425 0.55141 0.0
C2226 C 0.36967 0.77246 0.50053 0.0
C2227 C 0.36031 0.7702 0.56618 0.0
H2228 H 0.29082 0.78666 0.52086 0.0
H2229 H 0.27282 0.70076 0.52352 0.0
H2230 H 0.35828 0.81696 0.54218 0.0
H2231 H 0.35991 0.81995 0.51914 0.0
H2232 H 0.33393 0.82434 0.53082 0.0
H2233 H 0.30637 0.68851 0.53088 0.0
H2234 H 0.34092 0.71385 0.52304 0.0
H2235 H 0.33309 0.71274 0.54553 0.0
H2236 H 0.42386 0.79137 0.50881 0.0
H2237 H 0.41622 0.78733 0.56401 0.0
H2238 H 0.36043 0.78621 0.49849 0.0
H2239 H 0.35241 0.75031 0.49903 0.0
H2240 H 0.38562 0.77709 0.49028 0.0
H2241 H 0.35307 0.78583 0.56684 0.0
H2242 H 0.37254 0.77217 0.57805 0.0
H2243 H 0.34121 0.74898 0.56594 0.0
C2244 C 0.26954 0.52779 0.30255 0.0
C2245 C 0.29718 0.54512 0.29644 0.0
C2246 C 0.25142 0.53856 0.30561 0.0
C2247 C 0.26094 0.56739 0.30238 0.0
C2248 C 0.28846 0.58485 0.29572 0.0
C2249 C 0.30625 0.57354 0.29285 0.0
C2250 C 0.2223 0.51921 0.31278 0.0
C2251 C 0.29941 0.6157 0.29207 0.0
C2252 C 0.20386 0.58721 0.29744 0.0
C2253 C 0.20415 0.59871 0.31368 0.0
C2254 C 0.22274 0.57771 0.29344 0.0
C2255 C 0.24204 0.57916 0.30611 0.0
C2256 C 0.24251 0.59092 0.32253 0.0
C2257 C 0.22379 0.60089 0.32603 0.0
C2258 C 0.22197 0.56603 0.27565 0.0
C2259 C 0.26225 0.59228 0.33656 0.0
H2260 H 0.26224 0.50584 0.30545 0.0
H2261 H 0.32762 0.58726 0.28837 0.0
H2262 H 0.21961 0.52759 0.32525 0.0
H2263 H 0.2061 0.51827 0.3038 0.0
H2264 H 0.21826 0.49743 0.3149 0.0
H2265 H 0.32067 0.62609 0.28603 0.0
H2266 H 0.28469 0.61818 0.28339 0.0
H2267 H 0.30061 0.62688 0.30427 0.0
H2268 H 0.18911 0.58613 0.28774 0.0
H2269 H 0.22402 0.60985 0.33855 0.0
H2270 H 0.21578 0.54345 0.27661 0.0
H2271 H 0.24326 0.57728 0.26972 0.0
H2272 H 0.2069 0.56792 0.26695 0.0
H2273 H 0.25642 0.57057 0.34054 0.0
H2274 H 0.26153 0.60394 0.34812 0.0
H2275 H 0.28424 0.6026 0.3317 0.0
C2276 C 0.43464 0.73469 0.28863 0.0
C2277 C 0.46099 0.75388 0.2957 0.0
C2278 C 0.42325 0.70538 0.29054 0.0
C2279 C 0.43831 0.69506 0.30004 0.0
C2280 C 0.46543 0.71426 0.3065 0.0
C2281 C 0.47655 0.74329 0.30406 0.0
C2282 C 0.39463 0.68553 0.28298 0.0
C2283 C 0.48221 0.70424 0.31676 0.0
C2284 C 0.39841 0.62472 0.32357 0.0
C2285 C 0.40515 0.60762 0.31356 0.0
C2286 C 0.40866 0.65312 0.31914 0.0
C2287 C 0.42538 0.66441 0.30407 0.0
C2288 C 0.43129 0.64683 0.29357 0.0
C2289 C 0.42132 0.61874 0.29853 0.0
C2290 C 0.40237 0.6713 0.33089 0.0
C2291 C 0.44815 0.65767 0.27711 0.0
H2292 H 0.42243 0.74254 0.28212 0.0
H2293 H 0.49699 0.75777 0.30954 0.0
H2294 H 0.39507 0.66814 0.27589 0.0
H2295 H 0.37893 0.67587 0.29353 0.0
H2296 H 0.3874 0.6965 0.27406 0.0
H2297 H 0.50298 0.72189 0.32094 0.0
H2298 H 0.47014 0.69267 0.32841 0.0
H2299 H 0.48583 0.68936 0.30894 0.0
H2300 H 0.38577 0.61602 0.3351 0.0
H2301 H 0.42585 0.60527 0.29051 0.0
H2302 H 0.39178 0.68076 0.32355 0.0
H2303 H 0.42238 0.68891 0.33601 0.0
H2304 H 0.38871 0.65924 0.34195 0.0
H2305 H 0.43726 0.66491 0.26816 0.0
H2306 H 0.45113 0.64135 0.27047 0.0
H2307 H 0.46919 0.67612 0.27988 0.0
C2308 C 0.26949 0.69775 0.29325 0.0
C2309 C 0.25097 0.70805 0.29616 0.0
C2310 C 0.29878 0.71529 0.29533 0.0
C2311 C 0.30974 0.74375 0.30042 0.0
C2312 C 0.2913 0.7547 0.30223 0.0
C2313 C 0.26219 0.73675 0.30004 0.0
C2314 C 0.31779 0.70291 0.29307 0.0
C2315 C 0.30212 0.78501 0.30739 0.0
C2316 C 0.37732 0.77922 0.3269 0.0
C2317 C 0.39679 0.79737 0.31476 0.0
C2318 C 0.3489 0.76155 0.32236 0.0
C2319 C 0.34008 0.76155 0.30513 0.0
C2320 C 0.36004 0.77932 0.2927 0.0
C2321 C 0.38813 0.79723 0.29772 0.0
C2322 C 0.32816 0.74346 0.33611 0.0
C2323 C 0.35173 0.77949 0.27414 0.0
H2324 H 0.26105 0.67559 0.29037 0.0
H2325 H 0.24806 0.74494 0.30217 0.0
H2326 H 0.33589 0.7166 0.2846 0.0
H2327 H 0.3265 0.70181 0.30578 0.0
H2328 H 0.30646 0.68136 0.28746 0.0
H2329 H 0.28505 0.79035 0.30797 0.0
H2330 H 0.31233 0.78907 0.32025 0.0
H2331 H 0.31834 0.7994 0.29807 0.0
H2332 H 0.38424 0.77954 0.34004 0.0
H2333 H 0.40351 0.81113 0.28834 0.0
H2334 H 0.31744 0.72097 0.33219 0.0
H2335 H 0.31166 0.74941 0.33763 0.0
H2336 H 0.33845 0.74566 0.34882 0.0
H2337 H 0.34368 0.75825 0.26841 0.0
H2338 H 0.36966 0.79508 0.26618 0.0
H2339 H 0.33442 0.78441 0.27344 0.0
C2340 C 0.01428 0.1549 0.2834 0.0
C2341 C 1.00163 0.16747 0.29282 0.0
C2342 C 0.01426 0.15516 0.26523 0.0
C2343 C 1.00113 0.16814 0.25633 0.0
C2344 C 0.9882 0.18071 0.26581 0.0
C2345 C 0.98865 0.18025 0.28391 0.0
C2346 C 0.02849 0.14178 0.25554 0.0
C2347 C 0.97359 0.19438 0.25687 0.0
C2348 C 0.02139 0.19175 0.20971 0.0
C2349 C 0.99993 0.16904 0.20062 0.0
C2350 C 0.02226 0.19158 0.22785 0.0
C2351 C 1.00073 0.16848 0.23708 0.0
C2352 C 0.97861 0.14585 0.22793 0.0
C2353 C 0.97871 0.14622 0.20979 0.0
C2354 C 0.04632 0.21598 0.23714 0.0
C2355 C 0.95484 0.12124 0.23728 0.0
H2356 H 0.02441 0.14509 0.29021 0.0
H2357 H 0.9787 0.18994 0.29109 0.0
H2358 H 0.01316 0.125 0.24686 0.0
H2359 H 0.04559 0.1578 0.2473 0.0
H2360 H 0.03762 0.13245 0.26435 0.0
H2361 H 0.96599 0.20465 0.26611 0.0
H2362 H 0.98806 0.21047 0.24751 0.0
H2363 H 0.95528 0.17825 0.24945 0.0
H2364 H 0.03794 0.20932 0.20263 0.0
H2365 H 0.96199 0.12871 0.20277 0.0
H2366 H 0.05743 0.20817 0.24546 0.0
H2367 H 0.03806 0.22645 0.24571 0.0
H2368 H 0.0618 0.23194 0.22807 0.0
H2369 H 0.96328 0.10997 0.2449 0.0
H2370 H 0.93854 0.10602 0.22828 0.0
H2371 H 0.94463 0.1289 0.2465 0.0
C2372 C 0.85901 0.83073 0.28712 0.0
C2373 C 0.84066 0.83622 0.29672 0.0
C2374 C 0.85708 0.82877 0.26899 0.0
C2375 C 0.83617 0.83221 0.26036 0.0
C2376 C 0.81727 0.83729 0.27016 0.0
C2377 C 0.81976 0.83922 0.28825 0.0
C2378 C 0.8775 0.82316 0.25906 0.0
C2379 C 0.79443 0.84068 0.26154 0.0
C2380 C 0.85258 0.85663 0.21367 0.0
C2381 C 0.83569 0.83165 0.20455 0.0
C2382 C 0.85208 0.85723 0.23179 0.0
C2383 C 0.83509 0.83197 0.24106 0.0
C2384 C 0.81783 0.80664 0.23186 0.0
C2385 C 0.81801 0.80689 0.21366 0.0
C2386 C 0.86985 0.8849 0.24102 0.0
C2387 C 0.79999 0.77908 0.24117 0.0
H2388 H 0.87481 0.82791 0.2938 0.0
H2389 H 0.8052 0.84284 0.29583 0.0
H2390 H 0.86579 0.80447 0.25061 0.0
H2391 H 0.8908 0.84139 0.25059 0.0
H2392 H 0.8915 0.81948 0.26771 0.0
H2393 H 0.78189 0.8452 0.27096 0.0
H2394 H 0.80388 0.85806 0.25196 0.0
H2395 H 0.77995 0.82113 0.2544 0.0
H2396 H 0.86597 0.87585 0.20657 0.0
H2397 H 0.80508 0.78754 0.20656 0.0
H2398 H 0.88595 0.8837 0.24907 0.0
H2399 H 0.85645 0.88923 0.24982 0.0
H2400 H 0.88073 0.90287 0.23192 0.0
H2401 H 0.81393 0.77213 0.24709 0.0
H2402 H 0.78508 0.76222 0.23233 0.0
H2403 H 0.78782 0.78166 0.25177 0.0
C2404 C 0.1503 0.99776 0.21645 0.0
C2405 C 0.17448 0.00286 0.20734 0.0
C2406 C 0.14944 0.996 0.23455 0.0
C2407 C 0.17369 1.00047 0.24372 0.0
C2408 C 0.19831 0.00596 0.23452 0.0
C2409 C 0.19822 0.00657 0.21638 0.0
C2410 C 0.12258 0.98938 0.24386 0.0
C2411 C 0.2247 0.0112 0.24382 0.0
C2412 C 0.18 0.0246 0.29034 0.0
C2413 C 0.17027 0.99923 0.29928 0.0
C2414 C 0.18121 0.02529 0.27223 0.0
C2415 C 0.17341 1.00012 0.26295 0.0
C2416 C 0.16443 0.97457 0.27206 0.0
C2417 C 0.16239 0.97433 0.29016 0.0
C2418 C 0.19054 0.05286 0.26301 0.0
C2419 C 0.15665 0.94743 0.26272 0.0
H2420 H 0.13183 0.9945 0.20938 0.0
H2421 H 0.21691 0.01052 0.20927 0.0
H2422 H 0.11563 0.97058 0.25221 0.0
H2423 H 0.12643 0.00725 0.25238 0.0
H2424 H 0.10523 0.98526 0.2348 0.0
H2425 H 0.24251 0.0167 0.2348 0.0
H2426 H 0.23122 0.0286 0.25327 0.0
H2427 H 0.22045 0.99209 0.25117 0.0
H2428 H 0.18618 0.04382 0.29753 0.0
H2429 H 0.15511 0.95478 0.29718 0.0
H2430 H 0.17336 0.05091 0.25451 0.0
H2431 H 0.20897 0.05808 0.25463 0.0
H2432 H 0.19631 0.0706 0.27213 0.0
H2433 H 0.13628 0.93983 0.25595 0.0
H2434 H 0.15454 0.93067 0.27171 0.0
H2435 H 0.17272 0.95088 0.25281 0.0
C2436 C 1.00033 0.85492 0.71728 0.0
C2437 C 0.00603 0.83647 0.70786 0.0
C2438 C 0.99977 0.85438 0.73544 0.0
C2439 C 0.00473 0.83471 0.74439 0.0
C2440 C 0.01028 0.81588 0.73492 0.0
C2441 C 0.01099 0.81708 0.71678 0.0
C2442 C 0.9939 0.87488 0.74505 0.0
C2443 C 0.01517 0.79424 0.74391 0.0
C2444 C 0.029 0.85258 0.79107 0.0
C2445 C 0.00418 0.83502 0.80017 0.0
C2446 C 0.02966 0.85198 0.77293 0.0
C2447 C 0.0046 0.83426 0.76368 0.0
C2448 C 0.97941 0.8166 0.77286 0.0
C2449 C 0.97964 0.81684 0.79103 0.0
C2450 C 0.0572 0.87017 0.76367 0.0
C2451 C 0.9521 0.79789 0.76352 0.0
H2452 H 0.99641 0.86989 0.71045 0.0
H2453 H 0.01499 0.80246 0.70957 0.0
H2454 H 0.97532 0.86324 0.75361 0.0
H2455 H 0.01212 0.88864 0.75341 0.0
H2456 H 0.98988 0.88843 0.7362 0.0
H2457 H 0.02141 0.78268 0.73476 0.0
H2458 H 0.03182 0.80449 0.75387 0.0
H2459 H 0.99559 0.7787 0.75062 0.0
H2460 H 0.04808 0.86634 0.79817 0.0
H2461 H 0.96042 0.80333 0.79811 0.0
H2462 H 0.05537 0.88556 0.75526 0.0
H2463 H 0.06221 0.85689 0.75521 0.0
H2464 H 0.07502 0.8819 0.77276 0.0
H2465 H 0.94579 0.81112 0.75604 0.0
H2466 H 0.93471 0.78441 0.77253 0.0
H2467 H 0.95487 0.78412 0.75417 0.0
C2468 C 0.18913 0.16738 0.79 0.0
C2469 C 0.16887 0.17136 0.79863 0.0
C2470 C 0.18957 0.1661 0.77184 0.0
C2471 C 0.16989 0.16991 0.76203 0.0
C2472 C 0.14989 0.17475 0.77073 0.0
C2473 C 0.14928 0.17487 0.78892 0.0
C2474 C 0.211 0.1605 0.76319 0.0
C2475 C 0.12919 0.1799 0.76083 0.0
C2476 C 0.18708 0.19186 0.71478 0.0
C2477 C 0.17023 0.16634 0.70602 0.0
C2478 C 0.18727 0.19332 0.73293 0.0
C2479 C 0.17011 0.16867 0.74268 0.0
C2480 C 0.1531 0.14282 0.73392 0.0
C2481 C 0.15342 0.14194 0.71572 0.0
C2482 C 0.20577 0.22132 0.74167 0.0
C2483 C 0.13464 0.11603 0.7438 0.0
H2484 H 0.20427 0.16458 0.79748 0.0
H2485 H 0.1338 0.17829 0.79557 0.0
H2486 H 0.20037 0.14245 0.75414 0.0
H2487 H 0.22587 0.17916 0.75549 0.0
H2488 H 0.22332 0.15581 0.77266 0.0
H2489 H 0.11614 0.185 0.76946 0.0
H2490 H 0.1406 0.19757 0.75161 0.0
H2491 H 0.11499 0.16092 0.75315 0.0
H2492 H 0.20027 0.21084 0.70743 0.0
H2493 H 0.14035 0.12215 0.7091 0.0
H2494 H 0.22126 0.21983 0.75016 0.0
H2495 H 0.19276 0.22689 0.74999 0.0
H2496 H 0.21745 0.23864 0.73225 0.0
H2497 H 0.14787 0.11114 0.75236 0.0
H2498 H 0.1223 0.09774 0.73513 0.0
H2499 H 0.11978 0.11883 0.75218 0.0
C2500 C 0.84689 0.98905 0.787 0.0
C2501 C 0.83957 0.0065 0.79622 0.0
C2502 C 0.84521 0.98753 0.76889 0.0
C2503 C 0.83655 0.00429 0.75976 0.0
C2504 C 0.82906 0.02191 0.76901 0.0
C2505 C 0.83044 0.02262 0.78714 0.0
C2506 C 0.85267 0.96795 0.75953 0.0
C2507 C 0.81955 0.03996 0.75977 0.0
C2508 C 0.86168 0.02192 0.71326 0.0
C2509 C 0.8375 0.00317 0.70401 0.0
C2510 C 0.86142 0.02281 0.73138 0.0
C2511 C 0.8365 0.00423 0.7405 0.0
C2512 C 0.81193 0.98536 0.73121 0.0
C2513 C 0.81271 0.98513 0.71307 0.0
C2514 C 0.88785 0.04367 0.74079 0.0
C2515 C 0.785 0.96493 0.74039 0.0
H2516 H 0.85345 0.97614 0.79396 0.0
H2517 H 0.82446 0.03592 0.79421 0.0
H2518 H 0.83491 0.95335 0.75113 0.0
H2519 H 0.87118 0.98033 0.75104 0.0
H2520 H 0.85764 0.95527 0.76854 0.0
H2521 H 0.8158 0.05353 0.7688 0.0
H2522 H 0.8356 0.05362 0.75013 0.0
H2523 H 0.79974 0.02632 0.75264 0.0
H2524 H 0.88081 0.03612 0.70633 0.0
H2525 H 0.79394 0.97055 0.70598 0.0
H2526 H 0.89515 0.03228 0.74926 0.0
H2527 H 0.88332 0.05735 0.74921 0.0
H2528 H 0.90521 0.05727 0.73181 0.0
H2529 H 0.78781 0.94834 0.74671 0.0
H2530 H 0.76683 0.95458 0.73139 0.0
H2531 H 0.77984 0.97576 0.75066 0.0
C2532 C 0.64897 0.49037 0.54943 0.0
C2533 C 0.67426 0.50134 0.54019 0.0
C2534 C 0.64902 0.4915 0.56755 0.0
C2535 C 0.675 0.50345 0.57655 0.0
C2536 C 0.7006 0.51472 0.56714 0.0
C2537 C 0.69992 0.51376 0.54901 0.0
C2538 C 0.62133 0.48002 0.57704 0.0
C2539 C 0.72869 0.52753 0.57624 0.0
C2540 C 0.67784 0.52637 0.62327 0.0
C2541 C 0.67752 0.50399 0.63226 0.0
C2542 C 0.67722 0.52662 0.60513 0.0
C2543 C 0.67545 0.50354 0.5958 0.0
C2544 C 0.67459 0.48065 0.60487 0.0
C2545 C 0.67604 0.48134 0.62301 0.0
C2546 C 0.67858 0.55161 0.59597 0.0
C2547 C 0.67185 0.4553 0.59541 0.0
H2548 H 0.62919 0.48122 0.54243 0.0
H2549 H 0.7194 0.52239 0.54171 0.0
H2550 H 0.61892 0.46369 0.58645 0.0
H2551 H 0.62098 0.49716 0.58447 0.0
H2552 H 0.60297 0.47067 0.56814 0.0
H2553 H 0.74668 0.5362 0.56704 0.0
H2554 H 0.73117 0.5447 0.58497 0.0
H2555 H 0.72961 0.51132 0.58435 0.0
H2556 H 0.67899 0.54395 0.63043 0.0
H2557 H 0.67534 0.46383 0.62997 0.0
H2558 H 0.65904 0.54474 0.5884 0.0
H2559 H 0.69646 0.56074 0.58672 0.0
H2560 H 0.68114 0.56841 0.6051 0.0
H2561 H 0.65218 0.44538 0.58766 0.0
H2562 H 0.67143 0.43923 0.60433 0.0
H2563 H 0.6897 0.46193 0.58628 0.0
C2564 C 0.48598 0.17996 0.62193 0.0
C2565 C 0.50119 0.17087 0.63189 0.0
C2566 C 0.48611 0.17855 0.6038 0.0
C2567 C 0.50255 0.1686 0.59549 0.0
C2568 C 0.5181 0.15955 0.60559 0.0
C2569 C 0.51689 0.16041 0.62371 0.0
C2570 C 0.46858 0.1876 0.59354 0.0
C2571 C 0.53631 0.14933 0.59727 0.0
C2572 C 0.48587 0.14457 0.54863 0.0
C2573 C 0.50668 0.16813 0.53977 0.0
C2574 C 0.48456 0.14419 0.56677 0.0
C2575 C 0.50402 0.1683 0.57623 0.0
C2576 C 0.52491 0.19225 0.56728 0.0
C2577 C 0.52623 0.19172 0.54916 0.0
C2578 C 0.46234 0.11803 0.57581 0.0
C2579 C 0.54564 0.21859 0.57683 0.0
H2580 H 0.47364 0.18778 0.62831 0.0
H2581 H 0.52866 0.15342 0.63151 0.0
H2582 H 0.48218 0.20468 0.58443 0.0
H2583 H 0.45282 0.16964 0.58572 0.0
H2584 H 0.45727 0.19518 0.60194 0.0
H2585 H 0.54653 0.14237 0.60694 0.0
H2586 H 0.52349 0.13151 0.58841 0.0
H2587 H 0.55301 0.16649 0.5894 0.0
H2588 H 0.47082 0.12624 0.54136 0.0
H2589 H 0.54214 0.21008 0.5423 0.0
H2590 H 0.44821 0.12305 0.58338 0.0
H2591 H 0.47244 0.11032 0.58505 0.0
H2592 H 0.44937 0.10077 0.56661 0.0
H2593 H 0.53411 0.22707 0.5842 0.0
H2594 H 0.56079 0.2353 0.568 0.0
H2595 H 0.55764 0.21354 0.5863 0.0
C2596 C 0.82384 0.34683 0.61991 0.0
C2597 C 0.84039 0.33854 0.62916 0.0
C2598 C 0.82485 0.34804 0.60176 0.0
C2599 C 0.8419 0.33959 0.59268 0.0
C2600 C 0.85816 0.33055 0.60204 0.0
C2601 C 0.85763 0.33069 0.62019 0.0
C2602 C 0.80775 0.35847 0.5923 0.0
C2603 C 0.87607 0.32069 0.59292 0.0
C2604 C 0.82325 0.31795 0.5456 0.0
C2605 C 0.84279 0.34243 0.53694 0.0
C2606 C 0.82279 0.31665 0.56375 0.0
C2607 C 0.84269 0.34029 0.57339 0.0
C2608 C 0.86293 0.36483 0.56459 0.0
C2609 C 0.86249 0.36572 0.54645 0.0
C2610 C 0.80095 0.29006 0.5726 0.0
C2611 C 0.88481 0.3903 0.57432 0.0
H2612 H 0.81052 0.35289 0.6269 0.0
H2613 H 0.87013 0.32388 0.6274 0.0
H2614 H 0.82174 0.37657 0.58392 0.0
H2615 H 0.79213 0.34158 0.5838 0.0
H2616 H 0.79638 0.3652 0.60127 0.0
H2617 H 0.88491 0.31142 0.602 0.0
H2618 H 0.86351 0.30469 0.58298 0.0
H2619 H 0.89378 0.33873 0.58619 0.0
H2620 H 0.80809 0.29993 0.53815 0.0
H2621 H 0.87768 0.3846 0.53972 0.0
H2622 H 0.78744 0.29481 0.58102 0.0
H2623 H 0.81145 0.28169 0.58101 0.0
H2624 H 0.78725 0.27342 0.56325 0.0
H2625 H 0.8743 0.39971 0.58183 0.0
H2626 H 0.9006 0.40665 0.56557 0.0
H2627 H 0.89604 0.38407 0.58367 0.0
C2628 C 0.68228 0.15001 0.12329 0.0
C2629 C 0.67533 0.16775 0.13246 0.0
C2630 C 0.68173 0.1494 0.10512 0.0
C2631 C 0.67299 0.16614 0.09599 0.0
C2632 C 0.66502 0.18334 0.10531 0.0
C2633 C 0.66686 0.18438 0.12342 0.0
C2634 C 0.69117 0.13141 0.09569 0.0
C2635 C 0.65434 0.20049 0.09615 0.0
C2636 C 0.69558 0.18772 0.04931 0.0
C2637 C 0.67163 0.16816 0.0403 0.0
C2638 C 0.69648 0.18696 0.06745 0.0
C2639 C 0.67273 0.16627 0.0767 0.0
C2640 C 0.64849 0.1464 0.0675 0.0
C2641 C 0.64832 0.1475 0.04936 0.0
C2642 C 0.72279 0.20836 0.07671 0.0
C2643 C 0.6227 0.12404 0.07678 0.0
H2644 H 0.68892 0.13723 0.13034 0.0
H2645 H 0.66109 0.19778 0.13057 0.0
H2646 H 0.67441 0.11667 0.08678 0.0
H2647 H 0.70999 0.14506 0.08771 0.0
H2648 H 0.69655 0.119 0.10467 0.0
H2649 H 0.64803 0.21199 0.10531 0.0
H2650 H 0.67088 0.21603 0.08742 0.0
H2651 H 0.63588 0.18647 0.08803 0.0
H2652 H 0.71358 0.20358 0.04217 0.0
H2653 H 0.62988 0.13232 0.04223 0.0
H2654 H 0.7307 0.19747 0.08516 0.0
H2655 H 0.71787 0.22173 0.08514 0.0
H2656 H 0.73983 0.22225 0.06763 0.0
H2657 H 0.62773 0.10896 0.08314 0.0
H2658 H 0.60468 0.11206 0.06787 0.0
H2659 H 0.61611 0.13372 0.08704 0.0
C2660 C 0.85643 0.50522 0.12492 0.0
C2661 C 0.83597 0.50805 0.13418 0.0
C2662 C 0.85584 0.50393 0.10675 0.0
C2663 C 0.83486 0.50656 0.0976 0.0
C2664 C 0.81464 0.51021 0.10694 0.0
C2665 C 0.81514 0.51042 0.1251 0.0
C2666 C 0.87754 0.49955 0.09738 0.0
C2667 C 0.79241 0.51387 0.09772 0.0
C2668 C 0.84751 0.52853 0.05022 0.0
C2669 C 0.83101 0.50273 0.0417 0.0
C2670 C 0.84914 0.53006 0.06835 0.0
C2671 C 0.83378 0.50521 0.07829 0.0
C2672 C 0.817 0.47911 0.06975 0.0
C2673 C 0.81587 0.47817 0.05158 0.0
C2674 C 0.86744 0.55829 0.07687 0.0
C2675 C 0.80054 0.45207 0.07982 0.0
H2676 H 0.87247 0.50322 0.13192 0.0
H2677 H 0.79943 0.51284 0.13223 0.0
H2678 H 0.86711 0.48184 0.08808 0.0
H2679 H 0.89174 0.51873 0.08986 0.0
H2680 H 0.89054 0.49502 0.10638 0.0
H2681 H 0.77907 0.51784 0.10681 0.0
H2682 H 0.80253 0.53177 0.08853 0.0
H2683 H 0.77863 0.49468 0.09008 0.0
H2684 H 0.8596 0.54758 0.0427 0.0
H2685 H 0.80331 0.45811 0.04512 0.0
H2686 H 0.88405 0.55762 0.08468 0.0
H2687 H 0.85459 0.56313 0.08582 0.0
H2688 H 0.87776 0.57569 0.06734 0.0
H2689 H 0.81519 0.44817 0.08765 0.0
H2690 H 0.78816 0.43358 0.0713 0.0
H2691 H 0.78587 0.45391 0.08891 0.0
C2692 C 0.47682 0.32274 0.04895 0.0
C2693 C 0.5016 0.329 0.04003 0.0
C2694 C 0.47614 0.32303 0.06708 0.0
C2695 C 0.50081 0.32962 0.07651 0.0
C2696 C 0.52575 0.33553 0.06756 0.0
C2697 C 0.52588 0.33527 0.04942 0.0
C2698 C 0.44917 0.31685 0.0761 0.0
C2699 C 0.55241 0.34238 0.07716 0.0
C2700 C 0.50865 0.3562 0.12273 0.0
C2701 C 0.50399 0.3324 0.13206 0.0
C2702 C 0.50765 0.35564 0.10459 0.0
C2703 C 0.50072 0.33031 0.09574 0.0
C2704 C 0.49481 0.30589 0.10525 0.0
C2705 C 0.49708 0.30739 0.12332 0.0
C2706 C 0.51453 0.38224 0.09492 0.0
C2707 C 0.48599 0.27816 0.09635 0.0
H2708 H 0.45806 0.31823 0.04176 0.0
H2709 H 0.54509 0.34017 0.04259 0.0
H2710 H 0.44392 0.30102 0.08647 0.0
H2711 H 0.45197 0.33637 0.08227 0.0
H2712 H 0.43108 0.30894 0.06704 0.0
H2713 H 0.57014 0.34688 0.0683 0.0
H2714 H 0.55879 0.36098 0.08561 0.0
H2715 H 0.54856 0.32445 0.08561 0.0
H2716 H 0.5138 0.37544 0.12962 0.0
H2717 H 0.49284 0.28883 0.13068 0.0
H2718 H 0.4964 0.37861 0.08675 0.0
H2719 H 0.53271 0.38814 0.08616 0.0
H2720 H 0.51976 0.40022 0.10373 0.0
H2721 H 0.46684 0.27192 0.08847 0.0
H2722 H 0.48141 0.26096 0.10566 0.0
H2723 H 0.50284 0.28041 0.08741 0.0
C2724 C 0.31947 0.80922 0.88244 0.0
C2725 C 0.3359 0.83385 0.87291 0.0
C2726 C 0.31986 0.80974 0.90055 0.0
C2727 C 0.33755 0.83537 0.90928 0.0
C2728 C 0.35427 0.8603 0.89969 0.0
C2729 C 0.35306 0.85927 0.88159 0.0
C2730 C 0.30116 0.78291 0.91037 0.0
C2731 C 0.37382 0.88793 0.90851 0.0
C2732 C 0.32126 0.84158 0.95619 0.0
C2733 C 0.33899 0.834 0.96477 0.0
C2734 C 0.32062 0.84222 0.9381 0.0
C2735 C 0.33873 0.83589 0.92844 0.0
C2736 C 0.35733 0.82912 0.9371 0.0
C2737 C 0.35692 0.82782 0.95519 0.0
C2738 C 0.30026 0.84921 0.92934 0.0
C2739 C 0.37759 0.82317 0.92724 0.0
H2740 H 0.30591 0.78962 0.87574 0.0
H2741 H 0.36583 0.87835 0.87422 0.0
H2742 H 0.31421 0.77725 0.91854 0.0
H2743 H 0.28697 0.78615 0.91913 0.0
H2744 H 0.28808 0.76491 0.90166 0.0
H2745 H 0.38359 0.90581 0.89925 0.0
H2746 H 0.36234 0.89278 0.9185 0.0
H2747 H 0.39086 0.88628 0.91515 0.0
H2748 H 0.30746 0.84644 0.96364 0.0
H2749 H 0.37099 0.82245 0.96187 0.0
H2750 H 0.28538 0.83118 0.9212 0.0
H2751 H 0.31182 0.86762 0.92066 0.0
H2752 H 0.28791 0.85403 0.93874 0.0
H2753 H 0.36564 0.80363 0.91952 0.0
H2754 H 0.39226 0.82057 0.93592 0.0
H2755 H 0.39017 0.84059 0.91807 0.0
C2756 C 0.15165 0.48346 0.88101 0.0
C2757 C 0.17617 0.50261 0.87206 0.0
C2758 C 0.15066 0.48293 0.89913 0.0
C2759 C 0.17468 0.50229 0.90862 0.0
C2760 C 0.19963 0.52146 0.89969 0.0
C2761 C 0.20013 0.52131 0.8815 0.0
C2762 C 0.12363 0.46205 0.90806 0.0
C2763 C 0.22573 0.54229 0.90937 0.0
C2764 C 0.16489 0.52198 0.95427 0.0
C2765 C 0.17104 0.50449 0.96428 0.0
C2766 C 0.16542 0.52103 0.93614 0.0
C2767 C 0.17345 0.503 0.92787 0.0
C2768 C 0.18005 0.48554 0.93802 0.0
C2769 C 0.1782 0.4861 0.95612 0.0
C2770 C 0.15711 0.5391 0.92582 0.0
C2771 C 0.18898 0.46625 0.92977 0.0
H2772 H 0.13304 0.46879 0.87382 0.0
H2773 H 0.21913 0.53613 0.87468 0.0
H2774 H 0.12789 0.45059 0.91834 0.0
H2775 H 0.11408 0.4735 0.91435 0.0
H2776 H 0.10802 0.44637 0.89893 0.0
H2777 H 0.24356 0.55552 0.90057 0.0
H2778 H 0.22106 0.55633 0.91731 0.0
H2779 H 0.23237 0.5309 0.91833 0.0
H2780 H 0.159 0.53592 0.96064 0.0
H2781 H 0.18301 0.47262 0.96393 0.0
H2782 H 0.13917 0.5256 0.91721 0.0
H2783 H 0.1749 0.55381 0.91748 0.0
H2784 H 0.15089 0.55157 0.9342 0.0
H2785 H 0.1711 0.44946 0.9224 0.0
H2786 H 0.19599 0.45612 0.93947 0.0
H2787 H 0.20644 0.47817 0.92049 0.0
C2788 C 0.49967 0.64382 0.95406 0.0
C2789 C 0.50465 0.66676 0.96446 0.0
C2790 C 0.50045 0.64604 0.93594 0.0
C2791 C 0.5057 0.67163 0.92812 0.0
C2792 C 0.51049 0.69476 0.93869 0.0
C2793 C 0.51014 0.6921 0.95676 0.0
C2794 C 0.49586 0.62107 0.92521 0.0
C2795 C 0.51586 0.72227 0.9309 0.0
C2796 C 0.53161 0.68515 0.88155 0.0
C2797 C 0.50701 0.67891 0.8725 0.0
C2798 C 0.53164 0.68346 0.89966 0.0
C2799 C 0.50618 0.67426 0.9089 0.0
C2800 C 0.48118 0.66762 0.89975 0.0
C2801 C 0.48201 0.67049 0.88166 0.0
C2802 C 0.55888 0.69134 0.90887 0.0
C2803 C 0.45343 0.65678 0.90905 0.0
H2804 H 0.49538 0.62422 0.96007 0.0
H2805 H 0.5138 0.70973 0.96491 0.0
H2806 H 0.47884 0.61565 0.91564 0.0
H2807 H 0.51534 0.62651 0.91788 0.0
H2808 H 0.49026 0.60217 0.93324 0.0
H2809 H 0.5195 0.73832 0.94089 0.0
H2810 H 0.53452 0.73084 0.92227 0.0
H2811 H 0.49758 0.71867 0.92289 0.0
H2812 H 0.55094 0.6915 0.87442 0.0
H2813 H 0.46287 0.66506 0.87461 0.0
H2814 H 0.55695 0.67271 0.91577 0.0
H2815 H 0.56336 0.70779 0.91872 0.0
H2816 H 0.57709 0.69935 0.89987 0.0
H2817 H 0.44799 0.63692 0.91592 0.0
H2818 H 0.43593 0.65265 0.9001 0.0
H2819 H 0.45516 0.67225 0.91893 0.0
C2820 C 0.30926 0.4816 0.45305 0.0
C2821 C 0.33246 0.50313 0.46173 0.0
C2822 C 0.30858 0.48031 0.43491 0.0
C2823 C 0.33218 0.50037 0.4253 0.0
C2824 C 0.356 0.5217 0.43411 0.0
C2825 C 0.35561 0.52315 0.45222 0.0
C2826 C 0.28259 0.45754 0.42604 0.0
C2827 C 0.38197 0.54286 0.42442 0.0
C2828 C 0.34006 0.48283 0.37869 0.0
C2829 C 0.33035 0.49836 0.36949 0.0
C2830 C 0.34074 0.48319 0.39686 0.0
C2831 C 0.33161 0.49959 0.40603 0.0
C2832 C 0.32191 0.51538 0.39678 0.0
C2833 C 0.32133 0.51451 0.37865 0.0
C2834 C 0.35131 0.46612 0.40622 0.0
C2835 C 0.31201 0.53312 0.40607 0.0
H2836 H 0.29149 0.46597 0.46046 0.0
H2837 H 0.37384 0.5394 0.459 0.0
H2838 H 0.27465 0.46707 0.41654 0.0
H2839 H 0.28792 0.44334 0.41881 0.0
H2840 H 0.26541 0.44469 0.43533 0.0
H2841 H 0.39955 0.55656 0.43324 0.0
H2842 H 0.38927 0.53183 0.41559 0.0
H2843 H 0.37685 0.55641 0.41635 0.0
H2844 H 0.34702 0.47024 0.3717 0.0
H2845 H 0.31389 0.52665 0.37164 0.0
H2846 H 0.33452 0.45039 0.41474 0.0
H2847 H 0.3694 0.4801 0.4146 0.0
H2848 H 0.35806 0.45483 0.3972 0.0
H2849 H 0.29409 0.51959 0.41471 0.0
H2850 H 0.30521 0.54428 0.39701 0.0
H2851 H 0.32918 0.54902 0.4143 0.0
C2852 C 0.52971 0.84548 0.45481 0.0
C2853 C 0.50463 0.83915 0.46339 0.0
C2854 C 0.53089 0.84467 0.43667 0.0
C2855 C 0.50652 0.83785 0.42681 0.0
C2856 C 0.48125 0.83183 0.43542 0.0
C2857 C 0.48054 0.83232 0.45358 0.0
C2858 C 0.55822 0.85106 0.42808 0.0
C2859 C 0.4549 0.82482 0.42541 0.0
C2860 C 0.51543 0.86025 0.37954 0.0
C2861 C 0.50762 0.83482 0.37093 0.0
C2862 C 0.51523 0.86156 0.39768 0.0
C2863 C 0.50736 0.83692 0.40752 0.0
C2864 C 0.4999 0.81127 0.39889 0.0
C2865 C 0.49994 0.81049 0.38072 0.0
C2866 C 0.52314 0.88928 0.40631 0.0
C2867 C 0.49199 0.78467 0.40887 0.0
H2868 H 0.54841 0.8507 0.46228 0.0
H2869 H 0.46111 0.82748 0.4601 0.0
H2870 H 0.5546 0.83399 0.41891 0.0
H2871 H 0.56659 0.87083 0.42051 0.0
H2872 H 0.57448 0.85353 0.43757 0.0
H2873 H 0.43727 0.82169 0.43397 0.0
H2874 H 0.45932 0.84199 0.41614 0.0
H2875 H 0.44805 0.8053 0.41777 0.0
H2876 H 0.52139 0.87915 0.37208 0.0
H2877 H 0.49411 0.79082 0.37418 0.0
H2878 H 0.54162 0.89573 0.41484 0.0
H2879 H 0.5055 0.88689 0.41456 0.0
H2880 H 0.52834 0.90641 0.39682 0.0
H2881 H 0.5098 0.78801 0.41727 0.0
H2882 H 0.48651 0.7664 0.40026 0.0
H2883 H 0.47374 0.77939 0.41742 0.0
C2884 C 0.19537 0.68718 0.38331 0.0
C2885 C 0.1713 0.67053 0.37334 0.0
C2886 C 0.19374 0.68753 0.40143 0.0
C2887 C 0.16755 0.67039 0.40978 0.0
C2888 C 0.14317 0.65367 0.39974 0.0
C2889 C 0.14531 0.65412 0.38166 0.0
C2890 C 0.22008 0.70617 0.41165 0.0
C2891 C 0.11484 0.63513 0.4081 0.0
C2892 C 0.17076 0.6479 0.45571 0.0
C2893 C 0.16448 0.66561 0.46549 0.0
C2894 C 0.1713 0.64896 0.4376 0.0
C2895 C 0.16596 0.66861 0.42901 0.0
C2896 C 0.15932 0.68641 0.4388 0.0
C2897 C 0.15846 0.68456 0.45694 0.0
C2898 C 0.17772 0.62909 0.42766 0.0
C2899 C 0.15403 0.70805 0.43018 0.0
H2900 H 0.21541 0.7003 0.37693 0.0
H2901 H 0.12656 0.64141 0.37401 0.0
H2902 H 0.21629 0.71986 0.42052 0.0
H2903 H 0.22568 0.69297 0.41971 0.0
H2904 H 0.23832 0.71974 0.4032 0.0
H2905 H 0.09806 0.6229 0.39848 0.0
H2906 H 0.1162 0.62015 0.41715 0.0
H2907 H 0.10858 0.64823 0.41577 0.0
H2908 H 0.17527 0.63309 0.46224 0.0
H2909 H 0.15385 0.69849 0.46445 0.0
H2910 H 0.19726 0.64131 0.41996 0.0
H2911 H 0.16039 0.61647 0.41845 0.0
H2912 H 0.18049 0.61443 0.43625 0.0
H2913 H 0.17414 0.72514 0.42479 0.0
H2914 H 0.1455 0.71756 0.43934 0.0
H2915 H 0.13909 0.69855 0.41926 0.0
C2916 C 0.10122 0.39739 0.07541 0.0
C2917 C 0.1201 0.40379 0.06168 0.0
C2918 C 0.0891 0.37094 0.08365 0.0
C2919 C 0.09637 0.35069 0.0781 0.0
C2920 C 0.1159 0.35744 0.06441 0.0
C2921 C 0.12732 0.38382 0.05627 0.0
C2922 C 0.06812 0.36447 0.09804 0.0
C2923 C 0.12435 0.33661 0.05814 0.0
C2924 C 0.08452 0.29191 0.10918 0.0
C2925 C 0.05967 0.2691 0.10275 0.0
C2926 C 0.09681 0.31848 0.10119 0.0
C2927 C 0.08368 0.32242 0.08656 0.0
C2928 C 0.05862 0.29927 0.07993 0.0
C2929 C 0.04691 0.27283 0.08813 0.0
C2930 C 0.12359 0.34246 0.1086 0.0
C2931 C 0.04365 0.30266 0.06457 0.0
H2932 H 0.09534 0.41276 0.07935 0.0
H2933 H 0.1417 0.38878 0.04549 0.0
H2934 H 0.04768 0.34565 0.09465 0.0
H2935 H 0.07568 0.35941 0.11005 0.0
H2936 H 0.0645 0.38235 0.10069 0.0
H2937 H 0.14098 0.34569 0.04805 0.0
H2938 H 0.13219 0.32938 0.06909 0.0
H2939 H 0.1057 0.31775 0.05273 0.0
H2940 H 0.09394 0.28907 0.12075 0.0
H2941 H 0.02724 0.25533 0.0835 0.0
H2942 H 0.11983 0.35963 0.1129 0.0
H2943 H 0.14021 0.35137 0.09851 0.0
H2944 H 0.13156 0.33574 0.11974 0.0
H2945 H 0.03579 0.31722 0.06794 0.0
H2946 H 0.02549 0.28226 0.06032 0.0
H2947 H 0.05845 0.31217 0.05358 0.0
C2948 C 0.61915 0.70268 0.06731 0.0
C2949 C 0.60549 0.71739 0.06224 0.0
C2950 C 0.64521 0.71639 0.07592 0.0
C2951 C 0.65821 0.74569 0.07932 0.0
C2952 C 0.64441 0.76061 0.07432 0.0
C2953 C 0.61811 0.74624 0.06595 0.0
C2954 C 0.65883 0.69951 0.08133 0.0
C2955 C 0.65771 0.7919 0.07749 0.0
C2956 C 0.71212 0.77515 0.11558 0.0
C2957 C 0.73782 0.78651 0.1066 0.0
C2958 C 0.68622 0.76214 0.10685 0.0
C2959 C 0.68581 0.76048 0.08862 0.0
C2960 C 0.71168 0.77248 0.0794 0.0
C2961 C 0.73741 0.78544 0.08851 0.0
C2962 C 0.65924 0.74971 0.11721 0.0
C2963 C 0.71214 0.77095 0.05996 0.0
H2964 H 0.6094 0.68034 0.06448 0.0
H2965 H 0.60783 0.75777 0.06179 0.0
H2966 H 0.67984 0.70822 0.07516 0.0
H2967 H 0.66218 0.70111 0.09551 0.0
H2968 H 0.6459 0.67688 0.07781 0.0
H2969 H 0.64386 0.80025 0.07338 0.0
H2970 H 0.66266 0.79663 0.0914 0.0
H2971 H 0.67791 0.80326 0.0703 0.0
H2972 H 0.71227 0.77627 0.12956 0.0
H2973 H 0.75716 0.79395 0.08152 0.0
H2974 H 0.6464 0.72673 0.11468 0.0
H2975 H 0.64651 0.75934 0.1132 0.0
H2976 H 0.66319 0.75297 0.13132 0.0
H2977 H 0.70325 0.74868 0.05588 0.0
H2978 H 0.73382 0.78343 0.05464 0.0
H2979 H 0.69878 0.77875 0.05421 0.0
C2980 C 0.22043 0.94547 0.0918 0.0
C2981 C 0.2309 0.95829 0.10788 0.0
C2982 C 0.23366 0.93314 0.08246 0.0
C2983 C 0.25759 0.93317 0.08949 0.0
C2984 C 0.26857 0.94665 0.1055 0.0
C2985 C 0.2555 0.95945 0.11426 0.0
C2986 C 0.22167 0.91956 0.06523 0.0
C2987 C 0.29392 0.94714 0.11357 0.0
C2988 C 0.27683 0.87869 0.07391 0.0
C2989 C 0.29973 0.89485 0.06286 0.0
C2990 C 0.26294 0.89084 0.08269 0.0
C2991 C 0.27167 0.9197 0.08009 0.0
C2992 C 0.29485 0.93614 0.06912 0.0
C2993 C 0.30883 0.92371 0.06094 0.0
C2994 C 0.23882 0.87277 0.09468 0.0
C2995 C 0.30464 0.96685 0.06575 0.0
H2996 H 0.20145 0.94433 0.08675 0.0
H2997 H 0.26439 0.97004 0.1264 0.0
H2998 H 0.23861 0.92707 0.05536 0.0
H2999 H 0.21231 0.89639 0.06633 0.0
H3000 H 0.20511 0.92406 0.06065 0.0
H3001 H 0.29903 0.95733 0.12649 0.0
H3002 H 0.29003 0.92531 0.11495 0.0
H3003 H 0.3126 0.9587 0.10509 0.0
H3004 H 0.26929 0.85637 0.07542 0.0
H3005 H 0.32688 0.93673 0.05285 0.0
H3006 H 0.2191 0.87128 0.08979 0.0
H3007 H 0.24286 0.8826 0.10768 0.0
H3008 H 0.23549 0.85111 0.096 0.0
H3009 H 0.28735 0.96875 0.05964 0.0
H3010 H 0.32339 0.97691 0.05716 0.0
H3011 H 0.30992 0.97876 0.07807 0.0
C3012 C 0.27491 0.06415 0.41387 0.0
C3013 C 0.27151 0.05016 0.39811 0.0
C3014 C 0.30066 0.07593 0.42294 0.0
C3015 C 0.32365 0.0741 0.41594 0.0
C3016 C 0.32 0.05925 0.40033 0.0
C3017 C 0.29394 0.04705 0.39185 0.0
C3018 C 0.30346 0.09086 0.43983 0.0
C3019 C 0.34386 0.05678 0.39232 0.0
C3020 C 0.39816 0.12831 0.43028 0.0
C3021 C 0.40463 0.11261 0.44186 0.0
C3022 C 0.37211 0.11595 0.42156 0.0
C3023 C 0.35154 0.08747 0.42489 0.0
C3024 C 0.35801 0.07141 0.43631 0.0
C3025 C 0.38457 0.0839 0.44426 0.0
C3026 C 0.3665 0.13343 0.40883 0.0
C3027 C 0.3366 0.04114 0.44051 0.0
H3028 H 0.2578 0.06667 0.41885 0.0
H3029 H 0.29134 0.03547 0.38 0.0
H3030 H 0.31193 0.08278 0.44994 0.0
H3031 H 0.31864 0.11371 0.43831 0.0
H3032 H 0.28301 0.08821 0.44434 0.0
H3033 H 0.33787 0.04546 0.37976 0.0
H3034 H 0.36235 0.07809 0.39022 0.0
H3035 H 0.3506 0.04538 0.40117 0.0
H3036 H 0.41312 0.15045 0.42827 0.0
H3037 H 0.38938 0.07098 0.45256 0.0
H3038 H 0.34866 0.13588 0.41344 0.0
H3039 H 0.36032 0.12254 0.39615 0.0
H3040 H 0.38517 0.15471 0.40693 0.0
H3041 H 0.31801 0.0403 0.44685 0.0
H3042 H 0.34524 0.03122 0.44923 0.0
H3043 H 0.32903 0.0284 0.42854 0.0
C3044 C 0.87518 0.26923 0.42633 0.0
C3045 C 0.89104 0.29356 0.43628 0.0
C3046 C 0.88845 0.25716 0.41686 0.0
C3047 C 0.9182 0.26962 0.41749 0.0
C3048 C 0.9343 0.29464 0.42708 0.0
C3049 C 0.92057 0.30642 0.43618 0.0
C3050 C 0.87057 0.23068 0.40657 0.0
C3051 C 0.96605 0.30871 0.42802 0.0
C3052 C 0.95102 0.22439 0.40651 0.0
C3053 C 0.95992 0.23264 0.38945 0.0
C3054 C 0.93755 0.23639 0.41588 0.0
C3055 C 0.93269 0.25688 0.40792 0.0
C3056 C 0.94227 0.26576 0.39088 0.0
C3057 C 0.95605 0.25383 0.38197 0.0
C3058 C 0.92809 0.22681 0.43417 0.0
C3059 C 0.9374 0.28741 0.38187 0.0
H3060 H 0.85238 0.25909 0.42643 0.0
H3061 H 0.93303 0.32559 0.44354 0.0
H3062 H 0.87895 0.23294 0.39325 0.0
H3063 H 0.8713 0.21273 0.41266 0.0
H3064 H 0.84822 0.22545 0.40583 0.0
H3065 H 0.97545 0.32803 0.43615 0.0
H3066 H 0.9722 0.29382 0.43344 0.0
H3067 H 0.97526 0.31452 0.41488 0.0
H3068 H 0.95377 0.20796 0.41237 0.0
H3069 H 0.96344 0.26086 0.36893 0.0
H3070 H 0.9048 0.21665 0.43501 0.0
H3071 H 0.93708 0.24523 0.443 0.0
H3072 H 0.93447 0.2116 0.43875 0.0
H3073 H 0.91442 0.27944 0.38084 0.0
H3074 H 0.94667 0.29243 0.36869 0.0
H3075 H 0.94663 0.30718 0.38951 0.0
C3076 C 0.7875 0.72893 0.4093 0.0
C3077 C 0.77441 0.73198 0.39447 0.0
C3078 C 0.77469 0.70393 0.4192 0.0
C3079 C 0.74861 0.68074 0.41385 0.0
C3080 C 0.73524 0.6836 0.39899 0.0
C3081 C 0.74781 0.70922 0.38985 0.0
C3082 C 0.78928 0.70228 0.4353 0.0
C3083 C 0.70766 0.65941 0.39259 0.0
C3084 C 0.72855 0.60678 0.42979 0.0
C3085 C 0.70798 0.60157 0.44242 0.0
C3086 C 0.74175 0.63224 0.42035 0.0
C3087 C 0.73495 0.65357 0.42384 0.0
C3088 C 0.71433 0.64857 0.43653 0.0
C3089 C 0.70082 0.62263 0.44534 0.0
C3090 C 0.76303 0.63633 0.4066 0.0
C3091 C 0.70695 0.67091 0.44112 0.0
H3092 H 0.80807 0.74583 0.41313 0.0
H3093 H 0.73655 0.71118 0.37897 0.0
H3094 H 0.77419 0.69383 0.44625 0.0
H3095 H 0.79746 0.68766 0.43312 0.0
H3096 H 0.8072 0.72318 0.43905 0.0
H3097 H 0.70085 0.66435 0.38021 0.0
H3098 H 0.70964 0.64038 0.39071 0.0
H3099 H 0.69088 0.65405 0.40235 0.0
H3100 H 0.73482 0.5912 0.42744 0.0
H3101 H 0.68455 0.61899 0.45463 0.0
H3102 H 0.78406 0.65406 0.41021 0.0
H3103 H 0.7571 0.64194 0.39414 0.0
H3104 H 0.76478 0.61716 0.40466 0.0
H3105 H 0.72576 0.68951 0.44663 0.0
H3106 H 0.6895 0.66331 0.45067 0.0
H3107 H 0.70077 0.67817 0.42942 0.0
C3108 C 0.9648 0.72901 0.91165 0.0
C3109 C 0.94882 0.73423 0.89969 0.0
C3110 C 0.95301 0.70326 0.92066 0.0
C3111 C 0.92448 0.68236 0.91775 0.0
C3112 C 0.90806 0.68805 0.90604 0.0
C3113 C 0.92054 0.71379 0.89702 0.0
C3114 C 0.97135 0.69804 0.93288 0.0
C3115 C 0.87743 0.66678 0.90288 0.0
C3116 C 0.90209 0.60573 0.92822 0.0
C3117 C 0.89077 0.60269 0.94485 0.0
C3118 C 0.91289 0.63143 0.91918 0.0
C3119 C 0.91194 0.65451 0.92683 0.0
C3120 C 0.89955 0.65114 0.94335 0.0
C3121 C 0.88933 0.62542 0.95217 0.0
C3122 C 0.926 0.63415 0.90162 0.0
C3123 C 0.89761 0.67489 0.95192 0.0
H3124 H 0.98681 0.74469 0.91346 0.0
H3125 H 0.90832 0.71781 0.88762 0.0
H3126 H 0.96141 0.69216 0.94583 0.0
H3127 H 0.9735 0.68008 0.92811 0.0
H3128 H 0.99274 0.71677 0.93423 0.0
H3129 H 0.86742 0.67468 0.89368 0.0
H3130 H 0.87545 0.64701 0.89765 0.0
H3131 H 0.8656 0.66142 0.91524 0.0
H3132 H 0.90334 0.58831 0.92251 0.0
H3133 H 0.8802 0.6231 0.96491 0.0
H3134 H 0.94862 0.65061 0.90204 0.0
H3135 H 0.91569 0.64094 0.89195 0.0
H3136 H 0.92432 0.61405 0.8972 0.0
H3137 H 0.91903 0.6919 0.95554 0.0
H3138 H 0.88434 0.66785 0.96375 0.0
H3139 H 0.88873 0.68413 0.94287 0.0
C3140 C 0.27327 0.23578 0.91173 0.0
C3141 C 0.26947 0.21773 0.8979 0.0
C3142 C 0.29909 0.24966 0.92067 0.0
C3143 C 0.32143 0.24501 0.91581 0.0
C3144 C 0.31722 0.226 0.90219 0.0
C3145 C 0.29142 0.21286 0.89328 0.0
C3146 C 0.3028 0.27002 0.93495 0.0
C3147 C 0.34008 0.21976 0.8969 0.0
C3148 C 0.39706 0.30031 0.92753 0.0
C3149 C 0.40111 0.28924 0.94286 0.0
C3150 C 0.37125 0.28614 0.91857 0.0
C3151 C 0.34921 0.26003 0.92492 0.0
C3152 C 0.35368 0.24835 0.94006 0.0
C3153 C 0.37941 0.26321 0.94892 0.0
C3154 C 0.36727 0.29948 0.90258 0.0
C3155 C 0.3311 0.2204 0.94715 0.0
H3156 H 0.25642 0.23987 0.91509 0.0
H3157 H 0.28846 0.199 0.8825 0.0
H3158 H 0.30943 0.26414 0.94703 0.0
H3159 H 0.31974 0.29154 0.93139 0.0
H3160 H 0.28317 0.27064 0.93754 0.0
H3161 H 0.33326 0.20405 0.88628 0.0
H3162 H 0.35905 0.23942 0.8926 0.0
H3163 H 0.34638 0.2116 0.90813 0.0
H3164 H 0.41372 0.32051 0.9229 0.0
H3165 H 0.38256 0.2545 0.96071 0.0
H3166 H 0.34988 0.30401 0.9047 0.0
H3167 H 0.36114 0.28469 0.89151 0.0
H3168 H 0.38663 0.31943 0.89905 0.0
H3169 H 0.31343 0.22268 0.95228 0.0
H3170 H 0.33912 0.21259 0.95771 0.0
H3171 H 0.32247 0.20427 0.93678 0.0
C3172 C 0.73879 0.11704 0.94688 0.0
C3173 C 0.71336 0.11423 0.94084 0.0
C3174 C 0.75273 0.10527 0.93784 0.0
C3175 C 0.74068 0.08968 0.92252 0.0
C3176 C 0.71516 0.08712 0.91623 0.0
C3177 C 0.70195 0.09967 0.92538 0.0
C3178 C 0.78029 0.10938 0.94475 0.0
C3179 C 0.70132 0.07036 0.90013 0.0
C3180 C 0.78605 0.0767 0.89048 0.0
C3181 C 0.77996 0.04934 0.89482 0.0
C3182 C 0.77394 0.09026 0.89959 0.0
C3183 C 0.75468 0.07592 0.91318 0.0
C3184 C 0.74874 0.04837 0.91777 0.0
C3185 C 0.7617 0.03554 0.90866 0.0
C3186 C 0.7815 0.11983 0.8945 0.0
C3187 C 0.72816 0.03218 0.93204 0.0
H3188 H 0.74769 0.12839 0.95882 0.0
H3189 H 0.68216 0.09722 0.92079 0.0
H3190 H 0.77838 0.08864 0.94759 0.0
H3191 H 0.79706 0.11984 0.93485 0.0
H3192 H 0.78704 0.12233 0.9567 0.0
H3193 H 0.68219 0.0713 0.89652 0.0
H3194 H 0.71633 0.07828 0.88914 0.0
H3195 H 0.69527 0.04798 0.90219 0.0
H3196 H 0.80025 0.08747 0.87981 0.0
H3197 H 0.75675 0.01431 0.91194 0.0
H3198 H 0.78916 0.13394 0.90593 0.0
H3199 H 0.76251 0.11993 0.88965 0.0
H3200 H 0.79801 0.12866 0.88432 0.0
H3201 H 0.73561 0.04386 0.9444 0.0
H3202 H 0.72529 0.01077 0.93378 0.0
H3203 H 0.70736 0.03011 0.92916 0.0
C3204 C 0.60786 0.89897 0.57671 0.0
C3205 C 0.60279 0.88059 0.56288 0.0
C3206 C 0.6338 0.91147 0.58552 0.0
C3207 C 0.65491 0.90513 0.58042 0.0
C3208 C 0.64937 0.88584 0.56675 0.0
C3209 C 0.62348 0.87403 0.55804 0.0
C3210 C 0.63897 0.93219 0.59986 0.0
C3211 C 0.67098 0.878 0.56116 0.0
C3212 C 0.73179 0.95713 0.59125 0.0
C3213 C 0.73546 0.94535 0.60637 0.0
C3214 C 0.70564 0.94428 0.58266 0.0
C3215 C 0.6829 0.91883 0.58922 0.0
C3216 C 0.68692 0.90647 0.6042 0.0
C3217 C 0.71304 0.92007 0.6127 0.0
C3218 C 0.70208 0.95836 0.56689 0.0
C3219 C 0.66345 0.87925 0.61152 0.0
H3220 H 0.59194 0.90434 0.58021 0.0
H3221 H 0.61949 0.85996 0.54721 0.0
H3222 H 0.6458 0.92603 0.61175 0.0
H3223 H 0.65624 0.9534 0.59608 0.0
H3224 H 0.61991 0.93366 0.60288 0.0
H3225 H 0.66308 0.86208 0.55063 0.0
H3226 H 0.69035 0.89705 0.55661 0.0
H3227 H 0.67702 0.86944 0.5723 0.0
H3228 H 0.74902 0.97694 0.58656 0.0
H3229 H 0.7159 0.91114 0.6245 0.0
H3230 H 0.68564 0.96413 0.56939 0.0
H3231 H 0.69483 0.94358 0.55579 0.0
H3232 H 0.72194 0.97771 0.56321 0.0
H3233 H 0.64674 0.88287 0.61688 0.0
H3234 H 0.67096 0.87073 0.62197 0.0
H3235 H 0.6537 0.86309 0.60123 0.0
C3236 C 0.04171 0.76627 0.59415 0.0
C3237 C 0.05343 0.78207 0.6092 0.0
C3238 C 0.05565 0.75449 0.58502 0.0
C3239 C 0.08208 0.75896 0.59098 0.0
C3240 C 0.09448 0.77595 0.60575 0.0
C3241 C 0.07996 0.78711 0.61471 0.0
C3242 C 0.04163 0.73642 0.56938 0.0
C3243 C 0.12291 0.78193 0.61228 0.0
C3244 C 0.1048 0.70553 0.57923 0.0
C3245 C 0.12306 0.71886 0.56536 0.0
C3246 C 0.09137 0.71838 0.58771 0.0
C3247 C 0.09642 0.74522 0.58216 0.0
C3248 C 0.11537 0.75893 0.56831 0.0
C3249 C 0.12825 0.74545 0.55999 0.0
C3250 C 0.07129 0.70298 0.60235 0.0
C3251 C 0.1215 0.78751 0.56198 0.0
H3252 H 0.02116 0.7622 0.58991 0.0
H3253 H 0.08925 0.79962 0.62623 0.0
H3254 H 0.05625 0.74393 0.55819 0.0
H3255 H 0.0363 0.71439 0.57204 0.0
H3256 H 0.02202 0.73643 0.56576 0.0
H3257 H 0.13014 0.7964 0.62356 0.0
H3258 H 0.1219 0.76192 0.6161 0.0
H3259 H 0.13887 0.79146 0.60185 0.0
H3260 H 0.1004 0.6847 0.58311 0.0
H3261 H 0.14198 0.75543 0.549 0.0
H3262 H 0.04996 0.69927 0.59912 0.0
H3263 H 0.07826 0.71606 0.61423 0.0
H3264 H 0.06974 0.68236 0.60516 0.0
H3265 H 0.10252 0.78549 0.5555 0.0
H3266 H 0.13931 0.79682 0.55265 0.0
H3267 H 0.12655 0.80229 0.57296 0.0
C3268 C 0.21317 0.27572 0.59562 0.0
C3269 C 0.22889 0.26923 0.60716 0.0
C3270 C 0.22582 0.30135 0.58632 0.0
C3271 C 0.25488 0.32117 0.58862 0.0
C3272 C 0.27082 0.31463 0.60017 0.0
C3273 C 0.25778 0.28881 0.60909 0.0
C3274 C 0.20807 0.30725 0.57401 0.0
C3275 C 0.30168 0.33515 0.60332 0.0
C3276 C 0.29744 0.37481 0.5536 0.0
C3277 C 0.29767 0.39948 0.55914 0.0
C3278 C 0.2828 0.34923 0.5627 0.0
C3279 C 0.26911 0.34813 0.57842 0.0
C3280 C 0.27013 0.37303 0.5846 0.0
C3281 C 0.28383 0.39812 0.57477 0.0
C3282 C 0.28199 0.32323 0.55541 0.0
C3283 C 0.25655 0.37316 0.60154 0.0
H3284 H 0.19082 0.26104 0.59414 0.0
H3285 H 0.27037 0.28398 0.6177 0.0
H3286 H 0.20806 0.3267 0.578 0.0
H3287 H 0.21724 0.31095 0.56084 0.0
H3288 H 0.18591 0.28964 0.57348 0.0
H3289 H 0.31117 0.32693 0.61268 0.0
H3290 H 0.31363 0.34 0.59103 0.0
H3291 H 0.30428 0.35529 0.60837 0.0
H3292 H 0.30878 0.37523 0.54206 0.0
H3293 H 0.28325 0.41652 0.57931 0.0
H3294 H 0.25984 0.30577 0.5544 0.0
H3295 H 0.29314 0.3161 0.5642 0.0
H3296 H 0.2919 0.327 0.54243 0.0
H3297 H 0.23329 0.3609 0.60019 0.0
H3298 H 0.26266 0.39486 0.60578 0.0
H3299 H 0.26246 0.36295 0.6118 0.0
C3300 C 0.0436 0.42134 0.78269 0.0
C3301 C 0.06888 0.44206 0.7751 0.0
C3302 C 0.01806 0.40859 0.77353 0.0
C3303 C 0.01756 0.41629 0.75615 0.0
C3304 C 0.04306 0.43679 0.74824 0.0
C3305 C 0.0684 0.44942 0.7578 0.0
C3306 C 0.99156 0.38677 0.7825 0.0
C3307 C 0.04346 0.44574 0.72977 0.0
C3308 C 0.9572 0.36346 0.72785 0.0
C3309 C 0.9387 0.3742 0.72785 0.0
C3310 C 0.98282 0.37695 0.73695 0.0
C3311 C 0.99047 0.4021 0.74619 0.0
C3312 C 0.97181 0.41302 0.74634 0.0
C3313 C 0.94605 0.39883 0.73728 0.0
C3314 C 1.0018 0.36433 0.73659 0.0
C3315 C 0.97916 0.43981 0.75595 0.0
H3316 H 0.04375 0.41503 0.79593 0.0
H3317 H 0.08768 0.46557 0.75185 0.0
H3318 H 0.97505 0.39283 0.78179 0.0
H3319 H 0.98319 0.36614 0.77588 0.0
H3320 H 0.99524 0.38408 0.79629 0.0
H3321 H 0.06517 0.4605 0.72513 0.0
H3322 H 0.03379 0.42704 0.72116 0.0
H3323 H 0.03071 0.45627 0.72864 0.0
H3324 H 0.95158 0.34437 0.72065 0.0
H3325 H 0.93204 0.40745 0.73715 0.0
H3326 H 0.00552 0.35957 0.74993 0.0
H3327 H 0.02261 0.37972 0.73107 0.0
H3328 H 0.99278 0.34462 0.72885 0.0
H3329 H 0.98116 0.43689 0.76995 0.0
H3330 H 0.96304 0.44625 0.75418 0.0
H3331 H 0.99984 0.45721 0.75148 0.0
C3332 C 0.60782 0.54665 0.74144 0.0
C3333 C 0.62987 0.56174 0.72963 0.0
C3334 C 0.59563 0.55997 0.75077 0.0
C3335 C 0.60481 0.58882 0.74775 0.0
C3336 C 0.62715 0.60424 0.73605 0.0
C3337 C 0.63991 0.59081 0.7276 0.0
C3338 C 0.57265 0.54306 0.76371 0.0
C3339 C 0.63742 0.63493 0.73224 0.0
C3340 C 0.55366 0.61433 0.7598 0.0
C3341 C 0.56505 0.62846 0.77545 0.0
C3342 C 0.56675 0.60193 0.75043 0.0
C3343 C 0.59142 0.60306 0.75704 0.0
C3344 C 0.60341 0.6179 0.77254 0.0
C3345 C 0.59043 0.6308 0.78132 0.0
C3346 C 0.55398 0.58732 0.73356 0.0
C3347 C 0.62935 0.61924 0.78029 0.0
H3348 H 0.59955 0.52426 0.7432 0.0
H3349 H 0.65771 0.60331 0.71923 0.0
H3350 H 0.57725 0.55449 0.7762 0.0
H3351 H 0.5523 0.54019 0.75894 0.0
H3352 H 0.5702 0.52193 0.76605 0.0
H3353 H 0.65357 0.64337 0.72184 0.0
H3354 H 0.61946 0.63766 0.72828 0.0
H3355 H 0.64666 0.64778 0.74403 0.0
H3356 H 0.53412 0.61226 0.75507 0.0
H3357 H 0.60012 0.64245 0.79304 0.0
H3358 H 0.54621 0.56441 0.73481 0.0
H3359 H 0.57023 0.59553 0.72323 0.0
H3360 H 0.53615 0.5902 0.72949 0.0
H3361 H 0.62403 0.59789 0.78477 0.0
H3362 H 0.63765 0.63394 0.79145 0.0
H3363 H 0.64634 0.62594 0.77053 0.0
C3364 C 0.37414 0.95972 0.77972 0.0
C3365 C 0.37925 0.93746 0.77607 0.0
C3366 C 0.3894 0.98605 0.77159 0.0
C3367 C 0.4092 0.99006 0.75857 0.0
C3368 C 0.41365 0.96744 0.75417 0.0
C3369 C 0.39911 0.94167 0.76319 0.0
C3370 C 0.38418 0.00958 0.777 0.0
C3371 C 0.4337 0.97039 0.73986 0.0
C3372 C 0.42188 0.04785 0.72669 0.0
C3373 C 0.44966 0.06932 0.73045 0.0
C3374 C 0.40933 0.02166 0.73506 0.0
C3375 C 0.42358 0.01726 0.74881 0.0
C3376 C 0.45074 0.03928 0.75362 0.0
C3377 C 0.46374 0.0647 0.74413 0.0
C3378 C 0.3808 0.99856 0.72897 0.0
C3379 C 0.46589 0.03609 0.76894 0.0
H3380 H 0.35818 0.95678 0.78907 0.0
H3381 H 0.40365 0.92501 0.76025 0.0
H3382 H 0.40445 0.02954 0.77877 0.0
H3383 H 0.37222 0.01325 0.76679 0.0
H3384 H 0.37193 0.00465 0.78921 0.0
H3385 H 0.43258 0.95004 0.73677 0.0
H3386 H 0.42893 0.97856 0.72799 0.0
H3387 H 0.45562 0.9858 0.74369 0.0
H3388 H 0.40957 0.05112 0.71703 0.0
H3389 H 0.48502 0.08073 0.74741 0.0
H3390 H 0.36458 0.99444 0.73889 0.0
H3391 H 0.38114 0.97866 0.72701 0.0
H3392 H 0.37426 0.00408 0.71669 0.0
H3393 H 0.45273 0.0317 0.78071 0.0
H3394 H 0.48666 0.05527 0.77123 0.0
H3395 H 0.46919 0.0179 0.767 0.0
C3396 C 0.6365 0.06383 0.2443 0.0
C3397 C 0.62296 0.06974 0.23102 0.0
C3398 C 0.62299 0.03757 0.25277 0.0
C3399 C 0.59533 0.01686 0.24775 0.0
C3400 C 0.58149 0.0231 0.23451 0.0
C3401 C 0.59555 0.04943 0.22623 0.0
C3402 C 0.63858 0.03173 0.26673 0.0
C3403 C 0.55193 1.00183 0.22893 0.0
C3404 C 0.56967 0.93956 0.25789 0.0
C3405 C 0.55444 0.93579 0.27315 0.0
C3406 C 0.58313 0.96587 0.24947 0.0
C3407 C 0.58083 0.98868 0.25634 0.0
C3408 C 0.56471 0.98456 0.27149 0.0
C3409 C 0.55199 0.95827 0.2798 0.0
C3410 C 0.60047 0.96951 0.2335 0.0
C3411 C 0.56146 0.00813 0.27918 0.0
H3412 H 0.6579 0.07948 0.24774 0.0
H3413 H 0.58534 0.05404 0.21577 0.0
H3414 H 0.6258 0.02476 0.27873 0.0
H3415 H 0.6421 0.01433 0.26258 0.0
H3416 H 0.65932 0.05052 0.26973 0.0
H3417 H 0.544 0.0101 0.21859 0.0
H3418 H 0.55134 0.98245 0.22414 0.0
H3419 H 0.5374 0.99568 0.24015 0.0
H3420 H 0.57192 0.92226 0.25295 0.0
H3421 H 0.54039 0.95533 0.29171 0.0
H3422 H 0.62278 0.98574 0.2359 0.0
H3423 H 0.5929 0.97708 0.2226 0.0
H3424 H 0.59966 0.9496 0.22959 0.0
H3425 H 0.58208 0.02475 0.28426 0.0
H3426 H 0.54587 1.00068 0.28989 0.0
H3427 H 0.55475 0.01798 0.26915 0.0
C3428 C 0.94372 0.57595 0.24376 0.0
C3429 C 0.93675 0.55223 0.23356 0.0
C3430 C 0.96976 0.5902 0.25242 0.0
C3431 C 0.98942 0.58067 0.25063 0.0
C3432 C 0.98215 0.55637 0.24052 0.0
C3433 C 0.9559 0.54247 0.23208 0.0
C3434 C 0.97651 0.61588 0.26311 0.0
C3435 C 1.00232 0.54537 0.23836 0.0
C3436 C 0.0671 0.63318 0.25981 0.0
C3437 C 0.06995 0.62616 0.27681 0.0
C3438 C 0.04109 0.61842 0.25105 0.0
C3439 C 0.01746 0.59598 0.25945 0.0
C3440 C 0.0205 0.58836 0.27642 0.0
C3441 C 0.0466 0.60345 0.28484 0.0
C3442 C 0.03873 0.6272 0.23296 0.0
C3443 C 0.996 0.56464 0.28589 0.0
H3444 H 0.92906 0.58376 0.24458 0.0
H3445 H 0.95063 0.52442 0.2239 0.0
H3446 H 0.98273 0.61354 0.27636 0.0
H3447 H 0.99465 0.63478 0.25732 0.0
H3448 H 0.95838 0.61959 0.26399 0.0
H3449 H 0.99352 0.52628 0.23006 0.0
H3450 H 0.02233 0.56191 0.23254 0.0
H3451 H 0.00754 0.54013 0.25116 0.0
H3452 H 0.08494 0.65072 0.25354 0.0
H3453 H 0.04869 0.59751 0.29786 0.0
H3454 H 0.02334 0.63476 0.23274 0.0
H3455 H 0.0307 0.60885 0.2241 0.0
H3456 H 0.05925 0.64423 0.22795 0.0
H3457 H 0.97969 0.57056 0.28845 0.0
H3458 H 1.00243 0.5597 0.29841 0.0
H3459 H 0.98608 0.54528 0.27785 0.0
C3460 C 0.44672 0.37878 0.24637 0.0
C3461 C 0.44925 0.38007 0.2283 0.0
C3462 C 0.43498 0.39303 0.25526 0.0
C3463 C 0.42519 0.4087 0.24589 0.0
C3464 C 0.42838 0.41069 0.22773 0.0
C3465 C 0.44063 0.39675 0.21924 0.0
C3466 C 0.43249 0.39079 0.27467 0.0
C3467 C 0.41833 0.42713 0.21716 0.0
C3468 C 0.3673 0.41882 0.26621 0.0
C3469 C 0.38225 0.44697 0.27171 0.0
C3470 C 0.38096 0.40629 0.25765 0.0
C3471 C 0.41049 0.42204 0.25488 0.0
C3472 C 0.42567 0.45059 0.26035 0.0
C3473 C 0.41132 0.46277 0.26856 0.0
C3474 C 0.36373 0.37612 0.25161 0.0
C3475 C 0.45721 0.46802 0.25806 0.0
H3476 H 0.45324 0.36606 0.25357 0.0
H3477 H 0.44329 0.39886 0.20536 0.0
H3478 H 0.4414 0.41208 0.28051 0.0
H3479 H 0.40993 0.37862 0.27841 0.0
H3480 H 0.44349 0.38021 0.28021 0.0
H3481 H 0.42194 0.42628 0.20311 0.0
H3482 H 0.39546 0.41865 0.21936 0.0
H3483 H 0.4294 0.44952 0.2213 0.0
H3484 H 0.34483 0.40654 0.26867 0.0
H3485 H 0.42301 0.48438 0.27309 0.0
H3486 H 0.37087 0.36288 0.25827 0.0
H3487 H 0.3669 0.37482 0.23755 0.0
H3488 H 0.34084 0.36715 0.25411 0.0
H3489 H 0.46757 0.45978 0.2667 0.0
H3490 H 0.46542 0.49061 0.26118 0.0
H3491 H 0.46334 0.46643 0.24463 0.0
C3492 C 0.90086 0.18687 0.16433 0.0
C3493 C 0.89999 0.16259 0.15797 0.0
C3494 C 0.87585 0.18757 0.16693 0.0
C3495 C 0.84957 0.16322 0.16326 0.0
C3496 C 0.84873 0.13844 0.1572 0.0
C3497 C 0.87404 0.13854 0.15451 0.0
C3498 C 0.87754 0.21441 0.17333 0.0
C3499 C 0.82116 0.11204 0.15327 0.0
C3500 C 0.78618 0.15547 0.18729 0.0
C3501 C 0.77391 0.16512 0.17518 0.0
C3502 C 0.81069 0.1547 0.1835 0.0
C3503 C 0.82287 0.16296 0.16694 0.0
C3504 C 0.80966 0.17102 0.15419 0.0
C3505 C 0.78527 0.17216 0.15851 0.0
C3506 C 0.82407 0.14599 0.19745 0.0
C3507 C 0.82193 0.17958 0.13629 0.0
H3508 H 0.92114 0.20562 0.16644 0.0
H3509 H 0.87378 0.12009 0.14919 0.0
H3510 H 0.86631 0.22114 0.16431 0.0
H3511 H 0.86694 0.21063 0.18607 0.0
H3512 H 0.89965 0.23188 0.17468 0.0
H3513 H 0.82424 0.09455 0.14868 0.0
H3514 H 0.80769 0.10492 0.16499 0.0
H3515 H 0.80953 0.11657 0.14323 0.0
H3516 H 0.777 0.1493 0.20005 0.0
H3517 H 0.77585 0.1797 0.14918 0.0
H3518 H 0.84552 0.16368 0.20035 0.0
H3519 H 0.82637 0.12801 0.19295 0.0
H3520 H 0.8116 0.13978 0.2096 0.0
H3521 H 0.84161 0.20035 0.13692 0.0
H3522 H 0.80712 0.1813 0.12727 0.0
H3523 H 0.82753 0.1642 0.13098 0.0
C3524 C 0.80665 0.60329 0.17828 0.0
C3525 C 0.83202 0.60363 0.17547 0.0
C3526 C 0.80485 0.62766 0.1759 0.0
C3527 C 0.82917 0.65282 0.1707 0.0
C3528 C 0.85474 0.65301 0.16745 0.0
C3529 C 0.85582 0.62824 0.16989 0.0
C3530 C 0.77723 0.62666 0.17933 0.0
C3531 C 0.88112 0.67954 0.16193 0.0
C3532 C 0.82197 0.70944 0.14788 0.0
C3533 C 0.83134 0.73059 0.16051 0.0
C3534 C 0.82045 0.68372 0.15121 0.0
C3535 C 0.82762 0.67867 0.16778 0.0
C3536 C 0.83487 0.69898 0.18108 0.0
C3537 C 0.83676 0.72495 0.17724 0.0
C3538 C 0.81294 0.66273 0.13665 0.0
C3539 C 0.84186 0.69377 0.19905 0.0
H3540 H 0.78862 0.58417 0.18308 0.0
H3541 H 0.87554 0.62835 0.16835 0.0
H3542 H 0.78021 0.64264 0.18918 0.0
H3543 H 0.76973 0.63194 0.16738 0.0
H3544 H 0.76061 0.6056 0.1839 0.0
H3545 H 0.89899 0.67584 0.15946 0.0
H3546 H 0.87701 0.68817 0.15003 0.0
H3547 H 0.88748 0.69585 0.17214 0.0
H3548 H 0.81704 0.71357 0.13505 0.0
H3549 H 0.8439 0.74132 0.18698 0.0
H3550 H 0.79552 0.64173 0.1406 0.0
H3551 H 0.83139 0.66029 0.13353 0.0
H3552 H 0.80653 0.66937 0.12475 0.0
H3553 H 0.82413 0.67395 0.20429 0.0
H3554 H 0.8462 0.71132 0.20803 0.0
H3555 H 0.86063 0.69109 0.19864 0.0
C3556 C 0.39913 0.20231 0.19082 0.0
C3557 C 0.4042 0.2267 0.18199 0.0
C3558 C 0.37237 0.1781 0.19075 0.0
C3559 C 0.35035 0.17821 0.18131 0.0
C3560 C 0.35492 0.20346 0.1733 0.0
C3561 C 0.38188 0.22759 0.17388 0.0
C3562 C 0.36841 0.15174 0.19949 0.0
C3563 C 0.33207 0.2043 0.16291 0.0
C3564 C 0.29946 0.11065 0.15845 0.0
C3565 C 0.27499 0.1009 0.16838 0.0
C3566 C 0.32416 0.13549 0.16272 0.0
C3567 C 0.32442 0.15104 0.1774 0.0
C3568 C 0.30006 0.1407 0.18796 0.0
C3569 C 0.27549 0.11552 0.18333 0.0
C3570 C 0.34959 0.14561 0.15108 0.0
C3571 C 0.29973 0.15667 0.20375 0.0
H3572 H 0.41658 0.20184 0.19708 0.0
H3573 H 0.38607 0.24646 0.16692 0.0
H3574 H 0.34825 0.14122 0.20676 0.0
H3575 H 0.36748 0.13666 0.18957 0.0
H3576 H 0.38595 0.15629 0.2085 0.0
H3577 H 0.33803 0.2261 0.15899 0.0
H3578 H 0.32782 0.19135 0.15107 0.0
H3579 H 0.31216 0.19514 0.17042 0.0
H3580 H 0.2988 0.0992 0.14686 0.0
H3581 H 0.25632 0.10806 0.1908 0.0
H3582 H 0.36816 0.1489 0.15866 0.0
H3583 H 0.35484 0.16618 0.14526 0.0
H3584 H 0.34604 0.13049 0.14048 0.0
H3585 H 0.31609 0.15868 0.21299 0.0
H3586 H 0.27894 0.14616 0.21036 0.0
H3587 H 0.30497 0.17834 0.2001 0.0
C3588 C 0.19136 0.89573 0.34699 0.0
C3589 C 0.17352 0.90404 0.33943 0.0
C3590 C 0.18914 0.86987 0.3429 0.0
C3591 C 0.16836 0.85177 0.33097 0.0
C3592 C 0.15081 0.86046 0.32283 0.0
C3593 C 0.15372 0.88674 0.32712 0.0
C3594 C 0.20845 0.86158 0.35182 0.0
C3595 C 0.12824 0.84149 0.31024 0.0
C3596 C 0.18539 0.79758 0.314 0.0
C3597 C 0.1705 0.77538 0.32558 0.0
C3598 C 0.18288 0.82177 0.31456 0.0
C3599 C 0.16539 0.82385 0.32723 0.0
C3600 C 0.14868 0.80053 0.33814 0.0
C3601 C 0.15136 0.77637 0.33709 0.0
C3602 C 0.20092 0.84609 0.30268 0.0
C3603 C 0.1301 0.80205 0.35201 0.0
H3604 H 0.20644 0.90926 0.35662 0.0
H3605 H 0.13957 0.89311 0.32163 0.0
H3606 H 0.19581 0.84225 0.3596 0.0
H3607 H 0.22032 0.85674 0.34211 0.0
H3608 H 0.22381 0.87844 0.36049 0.0
H3609 H 0.11773 0.85214 0.30411 0.0
H3610 H 0.13736 0.8343 0.29998 0.0
H3611 H 0.11206 0.82241 0.31708 0.0
H3612 H 0.20029 0.7966 0.3052 0.0
H3613 H 0.14029 0.75925 0.34619 0.0
H3614 H 0.2182 0.8633 0.3102 0.0
H3615 H 0.18831 0.85473 0.29688 0.0
H3616 H 0.21044 0.8398 0.29214 0.0
H3617 H 0.14342 0.81476 0.36298 0.0
H3618 H 0.11456 0.78079 0.35694 0.0
H3619 H 0.11862 0.81253 0.34713 0.0
C3620 C 0.22456 0.37253 0.33221 0.0
C3621 C 0.22897 0.39975 0.33448 0.0
C3622 C 0.1985 0.34882 0.33611 0.0
C3623 C 0.17616 0.35255 0.34219 0.0
C3624 C 0.18104 0.38011 0.34542 0.0
C3625 C 0.20756 0.4035 0.34153 0.0
C3626 C 0.19437 0.31987 0.33255 0.0
C3627 C 0.15779 0.38486 0.35195 0.0
C3628 C 0.10487 0.2915 0.32939 0.0
C3629 C 0.09777 0.27454 0.34409 0.0
C3630 C 0.12956 0.31798 0.32896 0.0
C3631 C 0.14732 0.32762 0.34368 0.0
C3632 C 0.13895 0.31138 0.35901 0.0
C3633 C 0.11435 0.28484 0.35895 0.0
C3634 C 0.13786 0.33442 0.31226 0.0
C3635 C 0.15719 0.3208 0.37496 0.0
H3636 H 0.24118 0.36994 0.32645 0.0
H3637 H 0.21101 0.4247 0.34288 0.0
H3638 H 0.18433 0.30574 0.34377 0.0
H3639 H 0.18009 0.3104 0.32132 0.0
H3640 H 0.21458 0.32056 0.32965 0.0
H3641 H 0.16539 0.40745 0.3547 0.0
H3642 H 0.14073 0.37736 0.34219 0.0
H3643 H 0.14844 0.37246 0.36389 0.0
H3644 H 0.0923 0.28299 0.31781 0.0
H3645 H 0.10898 0.27123 0.37015 0.0
H3646 H 0.15584 0.33345 0.30638 0.0
H3647 H 0.14486 0.35694 0.31469 0.0
H3648 H 0.12025 0.3259 0.30282 0.0
H3649 H 0.17555 0.31774 0.37297 0.0
H3650 H 0.14548 0.30859 0.38655 0.0
H3651 H 0.16547 0.34355 0.37747 0.0
C3652 C 0.72487 0.84124 0.35736 0.0
C3653 C 0.73389 0.83154 0.3434 0.0
C3654 C 0.6984 0.83935 0.35719 0.0
C3655 C 0.6809 0.82795 0.34253 0.0
C3656 C 0.6894 0.81673 0.32877 0.0
C3657 C 0.71589 0.81862 0.32942 0.0
C3658 C 0.69008 0.85146 0.3721 0.0
C3659 C 0.6717 0.80499 0.3127 0.0
C3660 C 0.60468 0.81133 0.34225 0.0
C3661 C 0.60728 0.83484 0.33351 0.0
C3662 C 0.62863 0.80907 0.34582 0.0
C3663 C 0.65556 0.83096 0.34058 0.0
C3664 C 0.65824 0.85542 0.33255 0.0
C3665 C 0.634 0.85695 0.32907 0.0
C3666 C 0.62503 0.78265 0.35426 0.0
C3667 C 0.68654 0.87933 0.32681 0.0
H3668 H 0.73931 0.85174 0.36796 0.0
H3669 H 0.72346 0.8119 0.31849 0.0
H3670 H 0.6905 0.87103 0.3679 0.0
H3671 H 0.66825 0.8364 0.37634 0.0
H3672 H 0.70449 0.85659 0.3833 0.0
H3673 H 0.67915 0.79338 0.30448 0.0
H3674 H 0.64927 0.79062 0.3161 0.0
H3675 H 0.67275 0.82257 0.305 0.0
H3676 H 0.58381 0.79401 0.34523 0.0
H3677 H 0.63563 0.87482 0.32205 0.0
H3678 H 0.63915 0.78815 0.36562 0.0
H3679 H 0.63116 0.77113 0.34503 0.0
H3680 H 0.60296 0.76835 0.35847 0.0
H3681 H 0.70112 0.88763 0.33798 0.0
H3682 H 0.68491 0.89696 0.32094 0.0
H3683 H 0.69611 0.87156 0.3172 0.0
C3684 C 0.22433 0.84487 0.84255 0.0
C3685 C 0.23293 0.83794 0.82722 0.0
C3686 C 0.20023 0.84765 0.84301 0.0
C3687 C 0.18418 0.84294 0.82775 0.0
C3688 C 0.19385 0.83759 0.81199 0.0
C3689 C 0.21819 0.83509 0.81193 0.0
C3690 C 0.1908 0.85338 0.86011 0.0
C3691 C 0.17737 0.83248 0.79549 0.0
C3692 C 0.10616 0.81106 0.83693 0.0
C3693 C 0.10272 0.83463 0.83609 0.0
C3694 C 0.13223 0.81322 0.83328 0.0
C3695 C 0.15558 0.83982 0.8289 0.0
C3696 C 0.15181 0.8635 0.82719 0.0
C3697 C 0.12528 0.86059 0.83081 0.0
C3698 C 0.13518 0.78738 0.83525 0.0
C3699 C 0.17619 0.89224 0.82279 0.0
H3700 H 0.23565 0.84651 0.85436 0.0
H3701 H 0.22474 0.82918 0.8002 0.0
H3702 H 0.18411 0.86933 0.85865 0.0
H3703 H 0.17238 0.83369 0.86492 0.0
H3704 H 0.20773 0.86093 0.87 0.0
H3705 H 0.18911 0.83146 0.78406 0.0
H3706 H 0.15715 0.81227 0.79647 0.0
H3707 H 0.17217 0.84941 0.79343 0.0
H3708 H 0.08869 0.79121 0.84138 0.0
H3709 H 0.12262 0.87891 0.83065 0.0
H3710 H 0.14884 0.7901 0.8465 0.0
H3711 H 0.1454 0.78451 0.82366 0.0
H3712 H 0.11451 0.76791 0.83724 0.0
H3713 H 0.19059 0.90066 0.83404 0.0
H3714 H 0.16905 0.9074 0.81946 0.0
H3715 H 0.18851 0.89089 0.81182 0.0
C3716 C 0.14273 0.26744 0.8299 0.0
C3717 C 0.16841 0.2714 0.83611 0.0
C3718 C 0.13921 0.29071 0.82645 0.0
C3719 C 0.16206 0.31836 0.82917 0.0
C3720 C 0.18841 0.3223 0.83475 0.0
C3721 C 0.19113 0.29871 0.83828 0.0
C3722 C 0.11082 0.28577 0.82063 0.0
C3723 C 0.21338 0.35135 0.83784 0.0
C3724 C 0.16801 0.38409 0.80921 0.0
C3725 C 0.16282 0.39654 0.82347 0.0
C3726 C 0.16583 0.35755 0.81053 0.0
C3727 C 0.1586 0.34337 0.8266 0.0
C3728 C 0.15158 0.35513 0.84078 0.0
C3729 C 0.1537 0.38166 0.83899 0.0
C3730 C 0.17374 0.34593 0.79518 0.0
C3731 C 0.14403 0.34079 0.85818 0.0
H3732 H 0.12503 0.24618 0.82875 0.0
H3733 H 0.21072 0.30145 0.84348 0.0
H3734 H 0.10249 0.2949 0.83018 0.0
H3735 H 0.11298 0.29662 0.80816 0.0
H3736 H 0.09523 0.26299 0.81907 0.0
H3737 H 0.23289 0.35072 0.84081 0.0
H3738 H 0.21735 0.36492 0.82634 0.0
H3739 H 0.20881 0.36145 0.84884 0.0
H3740 H 0.17572 0.39614 0.79737 0.0
H3741 H 0.15049 0.39183 0.85008 0.0
H3742 H 0.15789 0.32339 0.79315 0.0
H3743 H 0.1943 0.34721 0.79766 0.0
H3744 H 0.1756 0.35778 0.78315 0.0
H3745 H 0.12677 0.31863 0.8568 0.0
H3746 H 0.13739 0.35175 0.86752 0.0
H3747 H 0.16251 0.34026 0.8636 0.0
C3748 C 0.72147 0.88775 0.8575 0.0
C3749 C 0.73034 0.90665 0.84365 0.0
C3750 C 0.69463 0.8636 0.85756 0.0
C3751 C 0.67661 0.85813 0.84323 0.0
C3752 C 0.68483 0.87831 0.82977 0.0
C3753 C 0.71171 0.90247 0.83019 0.0
C3754 C 0.68669 0.84275 0.87217 0.0
C3755 C 0.66634 0.8732 0.8142 0.0
C3756 C 0.63038 0.78276 0.8284 0.0
C3757 C 0.60362 0.77734 0.8334 0.0
C3758 C 0.65442 0.8086 0.83216 0.0
C3759 C 0.65145 0.82968 0.84096 0.0
C3760 C 0.62447 0.82384 0.84666 0.0
C3761 C 0.60075 0.79753 0.84286 0.0
C3762 C 0.68277 0.81383 0.82589 0.0
C3763 C 0.62057 0.84581 0.85605 0.0
H3764 H 0.73631 0.89102 0.86772 0.0
H3765 H 0.71907 0.91697 0.81938 0.0
H3766 H 0.66452 0.83467 0.87619 0.0
H3767 H 0.68851 0.82444 0.86774 0.0
H3768 H 0.70062 0.8522 0.88356 0.0
H3769 H 0.67433 0.89222 0.8059 0.0
H3770 H 0.66547 0.85582 0.80635 0.0
H3771 H 0.64447 0.86662 0.81826 0.0
H3772 H 0.6322 0.76707 0.82084 0.0
H3773 H 0.57982 0.79329 0.84634 0.0
H3774 H 0.69808 0.82112 0.8367 0.0
H3775 H 0.69116 0.83074 0.81598 0.0
H3776 H 0.68157 0.79466 0.82015 0.0
H3777 H 0.63337 0.85231 0.86803 0.0
H3778 H 0.59818 0.83802 0.8595 0.0
H3779 H 0.62819 0.8649 0.84789 0.0
C3780 C 0.81496 0.10443 0.67016 0.0
C3781 C 0.83904 0.10192 0.66903 0.0
C3782 C 0.81707 0.13051 0.67366 0.0
C3783 C 0.84408 0.15467 0.67583 0.0
C3784 C 0.86837 0.15178 0.67582 0.0
C3785 C 0.86553 0.12528 0.67241 0.0
C3786 C 0.79061 0.13259 0.6735 0.0
C3787 C 0.89746 0.17704 0.678 0.0
C3788 C 0.84638 0.22029 0.65864 0.0
C3789 C 0.84309 0.23238 0.6737 0.0
C3790 C 0.8485 0.19589 0.65927 0.0
C3791 C 0.84693 0.18312 0.67545 0.0
C3792 C 0.84522 0.19621 0.69084 0.0
C3793 C 0.84336 0.22088 0.68978 0.0
C3794 C 0.85036 0.18276 0.64251 0.0
C3795 C 0.84323 0.18307 0.70827 0.0
H3796 H 0.79464 0.08626 0.66714 0.0
H3797 H 0.88409 0.12317 0.67109 0.0
H3798 H 0.7904 0.14534 0.68458 0.0
H3799 H 0.79 0.14333 0.6615 0.0
H3800 H 0.77124 0.11151 0.67401 0.0
H3801 H 0.91394 0.17095 0.679 0.0
H3802 H 0.90248 0.19139 0.66678 0.0
H3803 H 0.89824 0.18907 0.68972 0.0
H3804 H 0.84579 0.22924 0.64627 0.0
H3805 H 0.84023 0.23011 0.70136 0.0
H3806 H 0.83023 0.16289 0.64022 0.0
H3807 H 0.86735 0.17738 0.64318 0.0
H3808 H 0.85447 0.19695 0.63129 0.0
H3809 H 0.82208 0.16407 0.70974 0.0
H3810 H 0.84638 0.19784 0.719 0.0
H3811 H 0.85904 0.17615 0.70941 0.0
C3812 C 0.89206 0.71637 0.64537 0.0
C3813 C 0.90816 0.72678 0.66038 0.0
C3814 C 0.86803 0.68944 0.6451 0.0
C3815 C 0.85991 0.67297 0.66033 0.0
C3816 C 0.87739 0.68275 0.67516 0.0
C3817 C 0.90142 0.70966 0.67497 0.0
C3818 C 0.85 0.67978 0.62906 0.0
C3819 C 0.86938 0.66596 0.69173 0.0
C3820 C 0.78268 0.62752 0.67128 0.0
C3821 C 0.77853 0.60044 0.66884 0.0
C3822 C 0.80876 0.65136 0.66773 0.0
C3823 C 0.83128 0.64788 0.66173 0.0
C3824 C 0.82673 0.62047 0.6584 0.0
C3825 C 0.80021 0.59693 0.66198 0.0
C3826 C 0.81268 0.68018 0.67151 0.0
C3827 C 0.85026 0.61605 0.65199 0.0
H3828 H 0.89723 0.73013 0.63426 0.0
H3829 H 0.91375 0.71828 0.68662 0.0
H3830 H 0.84274 0.65728 0.62633 0.0
H3831 H 0.83099 0.68172 0.63111 0.0
H3832 H 0.86149 0.69258 0.61759 0.0
H3833 H 0.8867 0.67506 0.70137 0.0
H3834 H 0.85062 0.66562 0.69745 0.0
H3835 H 0.86364 0.64381 0.68915 0.0
H3836 H 0.76583 0.62985 0.67692 0.0
H3837 H 0.79688 0.5758 0.66052 0.0
H3838 H 0.8218 0.69417 0.66013 0.0
H3839 H 0.82769 0.69 0.68237 0.0
H3840 H 0.79255 0.67923 0.67501 0.0
H3841 H 0.85877 0.62758 0.63967 0.0
H3842 H 0.84319 0.59341 0.6499 0.0
H3843 H 0.86782 0.62479 0.66144 0.0
C3844 C 0.40972 0.20629 0.66651 0.0
C3845 C 0.40645 0.17965 0.6695 0.0
C3846 C 0.38607 0.20935 0.66353 0.0
C3847 C 0.3588 0.18515 0.66357 0.0
C3848 C 0.35573 0.15806 0.66561 0.0
C3849 C 0.37965 0.15572 0.66857 0.0
C3850 C 0.39006 0.2385 0.66138 0.0
C3851 C 0.3271 0.13163 0.66555 0.0
C3852 C 0.29213 0.18593 0.67579 0.0
C3853 C 0.27924 0.18176 0.65967 0.0
C3854 C 0.31913 0.18905 0.67721 0.0
C3855 C 0.33323 0.18788 0.66211 0.0
C3856 C 0.32103 0.18579 0.64572 0.0
C3857 C 0.29419 0.18287 0.64472 0.0
C3858 C 0.33138 0.19102 0.69494 0.0
C3859 C 0.3351 0.18403 0.62936 0.0
H3860 H 0.4305 0.22474 0.66768 0.0
H3861 H 0.37741 0.13525 0.6712 0.0
H3862 H 0.37864 0.23935 0.64979 0.0
H3863 H 0.381 0.2436 0.67271 0.0
H3864 H 0.41265 0.25487 0.66019 0.0
H3865 H 0.32855 0.1122 0.66694 0.0
H3866 H 0.3141 0.13237 0.67632 0.0
H3867 H 0.31587 0.13021 0.65336 0.0
H3868 H 0.28015 0.18435 0.6873 0.0
H3869 H 0.28377 0.17915 0.63232 0.0
H3870 H 0.35391 0.2077 0.69525 0.0
H3871 H 0.33026 0.17074 0.69814 0.0
H3872 H 0.31981 0.19557 0.70507 0.0
H3873 H 0.35737 0.20132 0.62891 0.0
H3874 H 0.32412 0.18514 0.61759 0.0
H3875 H 0.33522 0.16383 0.62912 0.0
C3876 C 0.44672 0.48975 0.49222 0.0
C3877 C 0.44066 0.50247 0.5059 0.0
C3878 C 0.47178 0.48872 0.49201 0.0
C3879 C 0.49111 0.50077 0.50585 0.0
C3880 C 0.4847 0.51318 0.5199 0.0
C3881 C 0.45953 0.51402 0.51968 0.0
C3882 C 0.47785 0.47527 0.47681 0.0
C3883 C 0.50486 0.5265 0.53481 0.0
C3884 C 0.54013 0.47204 0.51307 0.0
C3885 C 0.56445 0.49125 0.50395 0.0
C3886 C 0.51635 0.47512 0.51388 0.0
C3887 C 0.51715 0.49876 0.50607 0.0
C3888 C 0.54223 0.51947 0.49793 0.0
C3889 C 0.56554 0.51528 0.49675 0.0
C3890 C 0.49001 0.45248 0.52261 0.0
C3891 C 0.54412 0.5455 0.48998 0.0
H3892 H 0.43238 0.48181 0.48135 0.0
H3893 H 0.455 0.52471 0.52991 0.0
H3894 H 0.49746 0.49108 0.47025 0.0
H3895 H 0.48132 0.45802 0.48134 0.0
H3896 H 0.46044 0.46653 0.46723 0.0
H3897 H 0.49565 0.53312 0.54535 0.0
H3898 H 0.51107 0.51163 0.54018 0.0
H3899 H 0.52437 0.5453 0.53015 0.0
H3900 H 0.5393 0.45406 0.5194 0.0
H3901 H 0.5842 0.53037 0.48979 0.0
H3902 H 0.4724 0.44308 0.5132 0.0
H3903 H 0.48362 0.46179 0.5332 0.0
H3904 H 0.49289 0.43534 0.52806 0.0
H3905 H 0.53143 0.53965 0.47796 0.0
H3906 H 0.56619 0.56158 0.48674 0.0
H3907 H 0.53535 0.55509 0.49888 0.0
C3908 C 0.49915 0.0486 0.47842 0.0
C3909 C 0.49932 0.06457 0.49267 0.0
C3910 C 0.49755 0.02254 0.48055 0.0
C3911 C 0.49449 0.01132 0.49732 0.0
C3912 C 0.49173 0.02596 0.51167 0.0
C3913 C 0.49452 0.05274 0.50919 0.0
C3914 C 0.50137 0.00814 0.46495 0.0
C3915 C 0.48771 0.01426 0.52973 0.0
C3916 C 0.47509 0.9344 0.50016 0.0
C3917 C 0.50126 0.93698 0.50383 0.0
C3918 C 0.47244 0.95845 0.49813 0.0
C3919 C 0.49662 0.98555 0.49978 0.0
C3920 C 0.52327 0.98811 0.50297 0.0
C3921 C 0.52517 0.96372 0.50507 0.0
C3922 C 0.44368 0.95494 0.49493 0.0
C3923 C 0.54968 0.01658 0.50449 0.0
H3924 H 0.50219 0.05748 0.46558 0.0
H3925 H 0.49468 0.06505 0.5202 0.0
H3926 H 0.52103 0.00717 0.46637 0.0
H3927 H 0.48367 0.98615 0.46394 0.0
H3928 H 0.5027 0.01933 0.45272 0.0
H3929 H 0.48033 0.02502 0.53873 0.0
H3930 H 0.47231 0.9913 0.52984 0.0
H3931 H 0.50807 0.01724 0.53459 0.0
H3932 H 0.45655 0.91357 0.49986 0.0
H3933 H 0.54514 0.96538 0.50846 0.0
H3934 H 0.44374 0.96548 0.4827 0.0
H3935 H 0.43836 0.96525 0.50546 0.0
H3936 H 0.42695 0.93241 0.49419 0.0
H3937 H 0.55353 0.02832 0.49218 0.0
H3938 H 0.56855 0.01482 0.50755 0.0
H3939 H 0.54706 0.02925 0.51474 0.0
C3940 C 0.9662 0.44625 0.4927 0.0
C3941 C 0.93928 0.44251 0.49506 0.0
C3942 C 0.99015 0.47256 0.4954 0.0
C3943 C 0.98683 0.49568 0.50024 0.0
C3944 C 0.95953 0.49191 0.50265 0.0
C3945 C 0.93594 0.46513 0.50012 0.0
C3946 C 0.01892 0.47561 0.49301 0.0
C3947 C 0.95531 0.51632 0.50732 0.0
C3948 C 0.04752 0.55206 0.52522 0.0
C3949 C 0.06484 0.56998 0.51203 0.0
C3950 C 0.02185 0.52809 0.52154 0.0
C3951 C 0.01206 0.52298 0.50436 0.0
C3952 C 0.02777 0.54262 0.49119 0.0
C3953 C 0.05442 0.56576 0.49512 0.0
C3954 C 0.00629 0.50723 0.53588 0.0
C3955 C 0.01727 0.53845 0.47283 0.0
H3956 H 0.96829 0.42861 0.48825 0.0
H3957 H 0.91486 0.46206 0.50124 0.0
H3958 H 0.03068 0.49131 0.48277 0.0
H3959 H 0.03126 0.48346 0.50512 0.0
H3960 H 0.01767 0.45538 0.4894 0.0
H3961 H 0.93267 0.50977 0.50876 0.0
H3962 H 0.9663 0.52616 0.51958 0.0
H3963 H 0.96472 0.53274 0.49714 0.0
H3964 H 0.05459 0.55595 0.53848 0.0
H3965 H 0.06745 0.5797 0.4849 0.0
H3966 H 0.00508 0.48682 0.53288 0.0
H3967 H 0.98437 0.50312 0.53693 0.0
H3968 H 0.01674 0.51466 0.54861 0.0
H3969 H 0.02249 0.52372 0.46615 0.0
H3970 H 0.02735 0.55867 0.46557 0.0
H3971 H 0.99404 0.52921 0.47239 0.0
C3972 C 0.51725 0.458 0.97847 0.0
C3973 C 0.49901 0.43611 0.98941 0.0
C3974 C 0.51584 0.48279 0.97725 0.0
C3975 C 0.49619 0.48578 0.98759 0.0
C3976 C 0.47604 0.46259 0.99746 0.0
C3977 C 0.47766 0.43785 0.99817 0.0
C3978 C 0.53745 0.50683 0.96643 0.0
C3979 C 0.45494 0.46499 0.00884 0.0
C3980 C 0.52109 0.55555 0.00983 0.0
C3981 C 0.50529 0.56571 0.00154 0.0
C3982 C 0.51901 0.53006 0.00494 0.0
C3983 C 0.50076 0.51438 0.99124 0.0
C3984 C 0.48605 0.52538 0.98205 0.0
C3985 C 0.48855 0.55114 0.98732 0.0
C3986 C 0.53517 0.51923 0.01513 0.0
C3987 C 0.46687 0.5094 0.9672 0.0
H3988 H 0.53387 0.45643 0.97187 0.0
H3989 H 0.46394 0.42087 0.00678 0.0
H3990 H 0.52801 0.51823 0.95999 0.0
H3991 H 0.55471 0.52209 0.97488 0.0
H3992 H 0.54677 0.49934 0.95645 0.0
H3993 H 0.4383 0.44409 0.01363 0.0
H3994 H 0.466 0.47845 0.02016 0.0
H3995 H 0.44478 0.47515 0.00177 0.0
H3996 H 0.53424 0.56714 0.02071 0.0
H3997 H 0.47628 0.55909 0.981 0.0
H3998 H 0.54819 0.51437 0.00636 0.0
H3999 H 0.52019 0.49939 0.02184 0.0
H4000 H 0.54924 0.53462 0.02496 0.0
H4001 H 0.4789 0.50543 0.95713 0.0
H4002 H 0.45715 0.52098 0.96128 0.0
H4003 H 0.44983 0.48854 0.97169 0.0
C4004 C 0.5415 0.06019 0.98194 0.0
C4005 C 0.56423 0.06729 0.99303 0.0
C4006 C 0.51759 0.03317 0.98226 0.0
C4007 C 0.51616 0.01318 0.99439 0.0
C4008 C 0.53954 0.02009 0.00528 0.0
C4009 C 0.56348 0.04709 0.00434 0.0
C4010 C 0.49348 0.0265 0.97014 0.0
C4011 C 0.5388 0.99937 0.01841 0.0
C4012 C 0.44524 0.95358 0.00989 0.0
C4013 C 0.44374 0.93053 1.00108 0.0
C4014 C 0.46833 0.98091 0.00743 0.0
C4015 C 0.49021 0.98509 0.99586 0.0
C4016 C 0.48794 0.96208 0.98628 0.0
C4017 C 0.46472 0.93517 0.98896 0.0
C4018 C 0.46992 0.00509 0.01771 0.0
C4019 C 0.51043 0.96573 0.97354 0.0
H4020 H 0.54223 0.07617 0.97336 0.0
H4021 H 0.58099 0.05303 0.01309 0.0
H4022 H 0.48575 0.00563 0.96396 0.0
H4023 H 0.47566 0.02552 0.97755 0.0
H4024 H 0.49961 0.04268 0.95986 0.0
H4025 H 0.55894 0.0078 0.02562 0.0
H4026 H 0.52152 0.99406 0.02779 0.0
H4027 H 0.53434 0.97948 0.01193 0.0
H4028 H 0.42905 0.95003 0.01924 0.0
H4029 H 0.46321 0.9175 0.98177 0.0
H4030 H 0.47323 0.0225 0.00895 0.0
H4031 H 0.48825 0.01353 0.02659 0.0
H4032 H 0.45054 0.99867 0.02544 0.0
H4033 H 0.51297 0.98126 0.96349 0.0
H4034 H 0.50543 0.94561 0.96711 0.0
H4035 H 0.531 0.97417 0.98022 0.0
C4036 C 0.06766 0.51846 0.98629 0.0
C4037 C 0.06672 0.49942 0.99867 0.0
C4038 C 0.0431 0.51928 0.982 0.0
C4039 C 0.01733 0.50064 0.99036 0.0
C4040 C 0.01608 0.4799 0.00182 0.0
C4041 C 0.04081 0.47959 0.00579 0.0
C4042 C 0.0452 0.5415 0.96964 0.0
C4043 C 0.98914 0.45955 0.01105 0.0
C4044 C 0.96318 0.52104 0.00284 0.0
C4045 C 0.94069 0.5035 0.99212 0.0
C4046 C 0.98915 0.52197 0.00149 0.0
C4047 C 0.99253 0.5048 0.9891 0.0
C4048 C 0.97037 0.48852 0.97741 0.0
C4049 C 0.94453 0.48792 0.97916 0.0
C4050 C 0.01199 0.53931 0.01441 0.0
C4051 C 0.97324 0.47013 0.96398 0.0
H4052 H 0.08787 0.53402 0.98101 0.0
H4053 H 0.04038 0.46502 0.01542 0.0
H4054 H 0.02714 0.53246 0.96054 0.0
H4055 H 0.0444 0.55848 0.977 0.0
H4056 H 0.06515 0.55104 0.96212 0.0
H4057 H 0.99131 0.44342 0.0185 0.0
H4058 H 0.98309 0.47133 0.02013 0.0
H4059 H 0.97167 0.44862 0.00167 0.0
H4060 H 0.95971 0.53251 0.01306 0.0
H4061 H 0.92673 0.47396 0.97115 0.0
H4062 H 0.03264 0.55173 0.00784 0.0
H4063 H 0.01397 0.52505 0.02375 0.0
H4064 H 0.00737 0.554 0.02173 0.0
H4065 H 0.99337 0.48226 0.95682 0.0
H4066 H 0.95551 0.46145 0.95462 0.0
H4067 H 0.9737 0.45227 0.9704 0.0
loop_
_geom_bond_atom_site_label_1
_geom_bond_atom_site_label_2
_geom_bond_distance
_geom_bond_site_symmetry_2
_ccdc_geom_bond_type
Co0 N4 2.148 . S
Co0 N10 2.128 1_655 S
Co0 N20 2.194 1_655 S
Co0 O25 2.351 1_655 S
Co0 O26 2.155 . S
Co0 O27 2.096 . S
C1 N4 1.301 . S
C1 N5 1.328 . S
C1 H6 0.930 . S
C2 C3 1.333 . S
C2 N4 1.317 . S
C2 H7 0.930 . S
C3 C2 1.333 . S
C3 N5 1.350 . S
C3 H29 0.931 . S
N4 Co0 2.148 . S
N4 C1 1.301 . S
N4 C2 1.317 . S
N5 C1 1.328 . S
N5 C3 1.350 . S
H6 C1 0.930 . S
H7 C2 0.930 . S
C8 O9 1.224 . S
C8 O27 1.247 . S
O9 C8 1.224 . S
N10 Co0 2.128 1_455 S
N10 C11 1.355 . S
N10 C13 1.311 . S
C11 N10 1.355 . S
C11 C12 1.363 . S
C11 H23 0.929 . S
C12 C11 1.363 . S
C12 N14 1.375 . S
C12 H30 0.931 . S
C13 N10 1.311 . S
C13 N14 1.347 . S
C13 H24 0.929 . S
N14 C12 1.375 . S
N14 C13 1.347 . S
C15 C18 1.365 . S
C15 N20 1.328 . S
C15 H21 0.929 . S
C16 C17 1.362 . S
C16 C19 1.378 . S
C16 H31 0.929 . S
C17 C16 1.362 . S
C17 C18 1.366 . S
C18 C15 1.365 . S
C18 C17 1.366 . S
C18 H32 0.930 . S
C19 C16 1.378 . S
C19 N20 1.315 . S
C19 H22 0.931 . S
N20 Co0 2.194 1_455 S
N20 C15 1.328 . S
N20 C19 1.315 . S
H21 C15 0.929 . S
H22 C19 0.931 . S
H23 C11 0.929 . S
H24 C13 0.929 . S
O25 Co0 2.351 1_455 S
O25 C28 1.244 . S
O26 Co0 2.155 . S
O26 C28 1.240 1_655 S
O27 Co0 2.096 . S
O27 C8 1.247 . S
C28 O25 1.244 . S
C28 O26 1.240 1_455 S
H29 C3 0.931 . S
H30 C12 0.931 . S
H31 C16 0.929 . S
H32 C18 0.930 . S
Co33 N37 2.148 . S
Co33 N43 2.128 . S
Co33 N53 2.194 . S
Co33 O58 2.351 . S
Co33 O59 2.155 . S
Co33 O60 2.096 . S
C34 N37 1.301 . S
C34 N38 1.328 . S
C34 H39 0.930 . S
C35 C36 1.333 . S
C35 N37 1.317 . S
C35 H40 0.930 . S
C36 C35 1.333 . S
C36 N38 1.350 . S
C36 H62 0.931 . S
N37 Co33 2.148 . S
N37 C34 1.301 . S
N37 C35 1.317 . S
N38 C34 1.328 . S
N38 C36 1.350 . S
H39 C34 0.930 . S
H40 C35 0.930 . S
C41 O42 1.224 . S
C41 O60 1.247 . S
O42 C41 1.224 . S
N43 Co33 2.128 . S
N43 C44 1.355 . S
N43 C46 1.311 . S
C44 N43 1.355 . S
C44 C45 1.363 . S
C44 H56 0.929 . S
C45 C44 1.363 . S
C45 N47 1.375 . S
C45 H63 0.931 . S
C46 N43 1.311 . S
C46 N47 1.347 . S
C46 H57 0.929 . S
N47 C45 1.375 . S
N47 C46 1.347 . S
C48 C51 1.365 . S
C48 N53 1.328 . S
C48 H54 0.929 . S
C49 C50 1.362 . S
C49 C52 1.378 . S
C49 H64 0.929 . S
C50 C49 1.362 . S
C50 C51 1.366 . S
C51 C48 1.365 . S
C51 C50 1.366 . S
C51 H65 0.930 . S
C52 C49 1.378 . S
C52 N53 1.315 . S
C52 H55 0.930 . S
N53 Co33 2.194 . S
N53 C48 1.328 . S
N53 C52 1.315 . S
H54 C48 0.929 . S
H55 C52 0.930 . S
H56 C44 0.929 . S
H57 C46 0.929 . S
O58 Co33 2.351 . S
O58 C61 1.244 . S
O59 Co33 2.155 . S
O59 C61 1.240 . S
O60 Co33 2.096 . S
O60 C41 1.247 . S
C61 O58 1.244 . S
C61 O59 1.240 . S
H62 C36 0.931 . S
H63 C45 0.931 . S
H64 C49 0.929 . S
H65 C51 0.930 . S
Co66 N70 2.148 . S
Co66 N76 2.128 1_545 S
Co66 N86 2.194 1_545 S
Co66 O91 2.351 1_545 S
Co66 O92 2.155 . S
Co66 O93 2.096 . S
C67 N70 1.301 . S
C67 N71 1.328 . S
C67 H72 0.930 . S
C68 C69 1.333 . S
C68 N70 1.317 . S
C68 H73 0.930 . S
C69 C68 1.333 . S
C69 N71 1.350 . S
C69 H95 0.931 . S
N70 Co66 2.148 . S
N70 C67 1.301 . S
N70 C68 1.317 . S
N71 C67 1.328 . S
N71 C69 1.350 . S
H72 C67 0.930 . S
H73 C68 0.930 . S
C74 O75 1.224 . S
C74 O93 1.247 . S
O75 C74 1.224 . S
N76 Co66 2.128 1_565 S
N76 C77 1.355 . S
N76 C79 1.311 . S
C77 N76 1.355 . S
C77 C78 1.363 . S
C77 H89 0.929 . S
C78 C77 1.363 . S
C78 N80 1.375 . S
C78 H96 0.931 . S
C79 N76 1.311 . S
C79 N80 1.347 . S
C79 H90 0.929 . S
N80 C78 1.375 . S
N80 C79 1.347 . S
C81 C84 1.365 . S
C81 N86 1.328 . S
C81 H87 0.929 . S
C82 C83 1.362 . S
C82 C85 1.378 . S
C82 H97 0.929 . S
C83 C82 1.362 . S
C83 C84 1.366 . S
C84 C81 1.365 . S
C84 C83 1.366 . S
C84 H98 0.930 . S
C85 C82 1.378 . S
C85 N86 1.315 . S
C85 H88 0.962 . S
N86 Co66 2.194 1_565 S
N86 C81 1.328 . S
N86 C85 1.315 . S
H87 C81 0.929 . S
H88 C85 0.962 . S
H89 C77 0.929 . S
H90 C79 0.929 . S
O91 Co66 2.351 1_565 S
O91 C94 1.244 . S
O92 Co66 2.155 . S
O92 C94 1.240 1_545 S
O93 Co66 2.096 . S
O93 C74 1.247 . S
C94 O91 1.244 . S
C94 O92 1.240 1_565 S
H95 C69 0.931 . S
H96 C78 0.931 . S
H97 C82 0.929 . S
H98 C84 0.930 . S
Co99 N103 2.148 . S
Co99 N109 2.128 1_565 S
Co99 N119 2.194 1_565 S
Co99 O124 2.351 1_565 S
Co99 O125 2.155 . S
Co99 O126 2.096 . S
C100 N103 1.301 . S
C100 N104 1.328 . S
C100 H105 0.930 . S
C101 C102 1.333 . S
C101 N103 1.317 . S
C101 H106 0.930 . S
C102 C101 1.333 . S
C102 N104 1.350 . S
C102 H128 0.931 . S
N103 Co99 2.148 . S
N103 C100 1.301 . S
N103 C101 1.317 . S
N104 C100 1.328 . S
N104 C102 1.350 . S
H105 C100 0.930 . S
H106 C101 0.930 . S
C107 O108 1.224 . S
C107 O126 1.247 . S
O108 C107 1.224 . S
N109 Co99 2.128 1_545 S
N109 C110 1.355 . S
N109 C112 1.311 . S
C110 N109 1.355 . S
C110 C111 1.363 . S
C110 H122 0.929 . S
C111 C110 1.363 . S
C111 N113 1.375 . S
C111 H129 0.931 . S
C112 N109 1.311 . S
C112 N113 1.347 . S
C112 H123 0.929 . S
N113 C111 1.375 . S
N113 C112 1.347 . S
C114 C117 1.365 . S
C114 N119 1.328 . S
C114 H120 0.929 . S
C115 C116 1.362 . S
C115 C118 1.378 . S
C115 H130 0.929 . S
C116 C115 1.362 . S
C116 C117 1.366 . S
C117 C114 1.365 . S
C117 C116 1.366 . S
C117 H131 0.930 . S
C118 C115 1.378 . S
C118 N119 1.315 . S
C118 H121 0.931 . S
N119 Co99 2.194 1_545 S
N119 C114 1.328 . S
N119 C118 1.315 . S
H120 C114 0.929 . S
H121 C118 0.931 . S
H122 C110 0.929 . S
H123 C112 0.929 . S
O124 Co99 2.351 1_545 S
O124 C127 1.244 . S
O125 Co99 2.155 . S
O125 C127 1.240 1_565 S
O126 Co99 2.096 . S
O126 C107 1.247 . S
C127 O124 1.244 . S
C127 O125 1.240 1_545 S
H128 C102 0.931 . S
H129 C111 0.931 . S
H130 C115 0.929 . S
H131 C117 0.930 . S
Co132 N136 2.148 . S
Co132 N142 2.128 1_455 S
Co132 N152 2.194 1_455 S
Co132 O157 2.351 1_455 S
Co132 O158 2.155 . S
Co132 O159 2.096 . S
C133 N136 1.301 . S
C133 N137 1.328 . S
C133 H138 0.930 . S
C134 C135 1.333 . S
C134 N136 1.317 . S
C134 H139 0.930 . S
C135 C134 1.333 . S
C135 N137 1.350 . S
C135 H161 0.931 . S
N136 Co132 2.148 . S
N136 C133 1.301 . S
N136 C134 1.317 . S
N137 C133 1.328 . S
N137 C135 1.350 . S
H138 C133 0.930 . S
H139 C134 0.930 . S
C140 O141 1.224 . S
C140 O159 1.247 . S
O141 C140 1.224 . S
N142 Co132 2.128 1_655 S
N142 C143 1.355 . S
N142 C145 1.311 . S
C143 N142 1.355 . S
C143 C144 1.363 . S
C143 H155 0.929 . S
C144 C143 1.363 . S
C144 N146 1.375 . S
C144 H162 0.931 . S
C145 N142 1.311 . S
C145 N146 1.347 . S
C145 H156 0.929 . S
N146 C144 1.375 . S
N146 C145 1.347 . S
C147 C150 1.365 . S
C147 N152 1.328 . S
C147 H153 0.929 . S
C148 C149 1.362 . S
C148 C151 1.378 . S
C148 H163 0.929 . S
C149 C148 1.362 . S
C149 C150 1.366 . S
C150 C147 1.365 . S
C150 C149 1.366 . S
C150 H164 0.930 . S
C151 C148 1.378 . S
C151 N152 1.315 . S
C151 H154 0.962 . S
N152 Co132 2.194 1_655 S
N152 C147 1.328 . S
N152 C151 1.315 . S
H153 C147 0.929 . S
H154 C151 0.962 . S
H155 C143 0.929 . S
H156 C145 0.929 . S
O157 Co132 2.351 1_655 S
O157 C160 1.244 . S
O158 Co132 2.155 . S
O158 C160 1.240 1_455 S
O159 Co132 2.096 . S
O159 C140 1.247 . S
C160 O157 1.244 . S
C160 O158 1.240 1_655 S
H161 C135 0.931 . S
H162 C144 0.931 . S
H163 C148 0.929 . S
H164 C150 0.930 . S
Co165 N169 2.148 . S
Co165 N175 2.128 . S
Co165 N185 2.194 . S
Co165 O190 2.351 . S
Co165 O191 2.155 . S
Co165 O192 2.096 . S
C166 N169 1.301 . S
C166 N170 1.328 . S
C166 H171 0.930 . S
C167 C168 1.333 . S
C167 N169 1.317 . S
C167 H172 0.930 . S
C168 C167 1.333 . S
C168 N170 1.350 . S
C168 H194 0.931 . S
N169 Co165 2.148 . S
N169 C166 1.301 . S
N169 C167 1.317 . S
N170 C166 1.328 . S
N170 C168 1.350 . S
H171 C166 0.930 . S
H172 C167 0.930 . S
C173 O174 1.224 . S
C173 O192 1.247 . S
O174 C173 1.224 . S
N175 Co165 2.128 . S
N175 C176 1.355 . S
N175 C178 1.311 . S
C176 N175 1.355 . S
C176 C177 1.363 . S
C176 H188 0.929 . S
C177 C176 1.363 . S
C177 N179 1.375 . S
C177 H195 0.931 . S
C178 N175 1.311 . S
C178 N179 1.347 . S
C178 H189 0.929 . S
N179 C177 1.375 . S
N179 C178 1.347 . S
C180 C183 1.365 . S
C180 N185 1.328 . S
C180 H186 0.929 . S
C181 C182 1.362 . S
C181 C184 1.378 . S
C181 H196 0.929 . S
C182 C181 1.362 . S
C182 C183 1.366 . S
C183 C180 1.365 . S
C183 C182 1.366 . S
C183 H197 0.930 . S
C184 C181 1.378 . S
C184 N185 1.315 . S
C184 H187 0.930 . S
N185 Co165 2.194 . S
N185 C180 1.328 . S
N185 C184 1.315 . S
H186 C180 0.929 . S
H187 C184 0.930 . S
H188 C176 0.929 . S
H189 C178 0.929 . S
O190 Co165 2.351 . S
O190 C193 1.244 . S
O191 Co165 2.155 . S
O191 C193 1.240 . S
O192 Co165 2.096 . S
O192 C173 1.247 . S
C193 O190 1.244 . S
C193 O191 1.240 . S
H194 C168 0.931 . S
H195 C177 0.931 . S
H196 C181 0.929 . S
H197 C183 0.930 . S
Co198 N202 2.148 . S
Co198 N208 2.128 1_455 S
Co198 N218 2.194 1_455 S
Co198 O223 2.351 1_455 S
Co198 O224 2.155 . S
Co198 O225 2.096 . S
C199 N202 1.301 . S
C199 N203 1.328 . S
C199 H204 0.930 . S
C200 C201 1.333 . S
C200 N202 1.317 . S
C200 H205 0.930 . S
C201 C200 1.333 . S
C201 N203 1.350 . S
C201 H227 0.931 . S
N202 Co198 2.148 . S
N202 C199 1.301 . S
N202 C200 1.317 . S
N203 C199 1.328 . S
N203 C201 1.350 . S
H204 C199 0.930 . S
H205 C200 0.930 . S
C206 O207 1.224 . S
C206 O225 1.247 . S
O207 C206 1.224 . S
N208 Co198 2.128 1_655 S
N208 C209 1.355 . S
N208 C211 1.311 . S
C209 N208 1.355 . S
C209 C210 1.363 . S
C209 H221 0.929 . S
C210 C209 1.363 . S
C210 N212 1.375 . S
C210 H228 0.931 . S
C211 N208 1.311 . S
C211 N212 1.347 . S
C211 H222 0.929 . S
N212 C210 1.375 . S
N212 C211 1.347 . S
C213 C216 1.365 . S
C213 N218 1.328 . S
C213 H219 0.929 . S
C214 C215 1.362 . S
C214 C217 1.378 . S
C214 H229 0.929 . S
C215 C214 1.362 . S
C215 C216 1.366 . S
C216 C213 1.365 . S
C216 C215 1.366 . S
C216 H230 0.930 . S
C217 C214 1.378 . S
C217 N218 1.315 . S
C217 H220 0.931 . S
N218 Co198 2.194 1_655 S
N218 C213 1.328 . S
N218 C217 1.315 . S
H219 C213 0.929 . S
H220 C217 0.931 . S
H221 C209 0.929 . S
H222 C211 0.929 . S
O223 Co198 2.351 1_655 S
O223 C226 1.244 . S
O224 Co198 2.155 . S
O224 C226 1.240 1_455 S
O225 Co198 2.096 . S
O225 C206 1.247 . S
C226 O223 1.244 . S
C226 O224 1.240 1_655 S
H227 C201 0.931 . S
H228 C210 0.931 . S
H229 C214 0.929 . S
H230 C216 0.930 . S
Co231 N235 2.148 . S
Co231 N241 2.128 . S
Co231 N251 2.194 . S
Co231 O256 2.351 . S
Co231 O257 2.155 . S
Co231 O258 2.096 . S
C232 N235 1.301 . S
C232 N236 1.328 . S
C232 H237 0.930 . S
C233 C234 1.333 . S
C233 N235 1.317 . S
C233 H238 0.930 . S
C234 C233 1.333 . S
C234 N236 1.350 . S
C234 H260 0.931 . S
N235 Co231 2.148 . S
N235 C232 1.301 . S
N235 C233 1.317 . S
N236 C232 1.328 . S
N236 C234 1.350 . S
H237 C232 0.930 . S
H238 C233 0.930 . S
C239 O240 1.224 . S
C239 O258 1.247 . S
O240 C239 1.224 . S
N241 Co231 2.128 . S
N241 C242 1.355 . S
N241 C244 1.311 . S
C242 N241 1.355 . S
C242 C243 1.363 . S
C242 H254 0.929 . S
C243 C242 1.363 . S
C243 N245 1.375 . S
C243 H261 0.931 . S
C244 N241 1.311 . S
C244 N245 1.347 . S
C244 H255 0.929 . S
N245 C243 1.375 . S
N245 C244 1.347 . S
C246 C249 1.365 . S
C246 N251 1.328 . S
C246 H252 0.929 . S
C247 C248 1.362 . S
C247 C250 1.378 . S
C247 H262 0.929 . S
C248 C247 1.362 . S
C248 C249 1.366 . S
C249 C246 1.365 . S
C249 C248 1.366 . S
C249 H263 0.930 . S
C250 C247 1.378 . S
C250 N251 1.315 . S
C250 H253 0.930 . S
N251 Co231 2.194 . S
N251 C246 1.328 . S
N251 C250 1.315 . S
H252 C246 0.929 . S
H253 C250 0.930 . S
H254 C242 0.929 . S
H255 C244 0.929 . S
O256 Co231 2.351 . S
O256 C259 1.244 . S
O257 Co231 2.155 . S
O257 C259 1.240 . S
O258 Co231 2.096 . S
O258 C239 1.247 . S
C259 O256 1.244 . S
C259 O257 1.240 . S
H260 C234 0.931 . S
H261 C243 0.931 . S
H262 C247 0.929 . S
H263 C249 0.930 . S
Co264 N268 2.148 . S
Co264 N274 2.128 1_565 S
Co264 N284 2.194 1_565 S
Co264 O289 2.351 1_565 S
Co264 O290 2.155 . S
Co264 O291 2.096 . S
C265 N268 1.301 . S
C265 N269 1.328 . S
C265 H270 0.930 . S
C266 C267 1.333 . S
C266 N268 1.317 . S
C266 H271 0.930 . S
C267 C266 1.333 . S
C267 N269 1.350 . S
C267 H293 0.931 . S
N268 Co264 2.148 . S
N268 C265 1.301 . S
N268 C266 1.317 . S
N269 C265 1.328 . S
N269 C267 1.350 . S
H270 C265 0.930 . S
H271 C266 0.930 . S
C272 O273 1.224 . S
C272 O291 1.247 . S
O273 C272 1.224 . S
N274 Co264 2.128 1_545 S
N274 C275 1.355 . S
N274 C277 1.311 . S
C275 N274 1.355 . S
C275 C276 1.363 . S
C275 H287 0.929 . S
C276 C275 1.363 . S
C276 N278 1.375 . S
C276 H294 0.931 . S
C277 N274 1.311 . S
C277 N278 1.347 . S
C277 H288 0.929 . S
N278 C276 1.375 . S
N278 C277 1.347 . S
C279 C282 1.365 . S
C279 N284 1.328 . S
C279 H285 0.929 . S
C280 C281 1.362 . S
C280 C283 1.378 . S
C280 H295 0.929 . S
C281 C280 1.362 . S
C281 C282 1.366 . S
C282 C279 1.365 . S
C282 C281 1.366 . S
C282 H296 0.930 . S
C283 C280 1.378 . S
C283 N284 1.315 . S
C283 H286 0.962 . S
N284 Co264 2.194 1_545 S
N284 C279 1.328 . S
N284 C283 1.315 . S
H285 C279 0.929 . S
H286 C283 0.962 . S
H287 C275 0.929 . S
H288 C277 0.929 . S
O289 Co264 2.351 1_545 S
O289 C292 1.244 . S
O290 Co264 2.155 . S
O290 C292 1.240 1_565 S
O291 Co264 2.096 . S
O291 C272 1.247 . S
C292 O289 1.244 . S
C292 O290 1.240 1_545 S
H293 C267 0.931 . S
H294 C276 0.931 . S
H295 C280 0.929 . S
H296 C282 0.930 . S
Co297 N301 2.148 . S
Co297 N307 2.128 1_545 S
Co297 N317 2.194 1_545 S
Co297 O322 2.351 1_545 S
Co297 O323 2.155 . S
Co297 O324 2.096 . S
C298 N301 1.301 . S
C298 N302 1.328 . S
C298 H303 0.930 . S
C299 C300 1.333 . S
C299 N301 1.317 . S
C299 H304 0.930 . S
C300 C299 1.333 . S
C300 N302 1.350 . S
C300 H326 0.931 . S
N301 Co297 2.148 . S
N301 C298 1.301 . S
N301 C299 1.317 . S
N302 C298 1.328 . S
N302 C300 1.350 . S
H303 C298 0.930 . S
H304 C299 0.930 . S
C305 O306 1.224 . S
C305 O324 1.247 . S
O306 C305 1.224 . S
N307 Co297 2.128 1_565 S
N307 C308 1.355 . S
N307 C310 1.311 . S
C308 N307 1.355 . S
C308 C309 1.363 . S
C308 H320 0.929 . S
C309 C308 1.363 . S
C309 N311 1.375 . S
C309 H327 0.931 . S
C310 N307 1.311 . S
C310 N311 1.347 . S
C310 H321 0.929 . S
N311 C309 1.375 . S
N311 C310 1.347 . S
C312 C315 1.365 . S
C312 N317 1.328 . S
C312 H318 0.929 . S
C313 C314 1.362 . S
C313 C316 1.378 . S
C313 H328 0.929 . S
C314 C313 1.362 . S
C314 C315 1.366 . S
C315 C312 1.365 . S
C315 C314 1.366 . S
C315 H329 0.930 . S
C316 C313 1.378 . S
C316 N317 1.315 . S
C316 H319 0.931 . S
N317 Co297 2.194 1_565 S
N317 C312 1.328 . S
N317 C316 1.315 . S
H318 C312 0.929 . S
H319 C316 0.931 . S
H320 C308 0.929 . S
H321 C310 0.929 . S
O322 Co297 2.351 1_565 S
O322 C325 1.244 . S
O323 Co297 2.155 . S
O323 C325 1.240 1_545 S
O324 Co297 2.096 . S
O324 C305 1.247 . S
C325 O322 1.244 . S
C325 O323 1.240 1_565 S
H326 C300 0.931 . S
H327 C309 0.931 . S
H328 C313 0.929 . S
H329 C315 0.930 . S
Co330 N334 2.148 . S
Co330 N340 2.128 1_655 S
Co330 N350 2.194 1_655 S
Co330 O355 2.351 1_655 S
Co330 O356 2.155 . S
Co330 O357 2.096 . S
C331 N334 1.301 . S
C331 N335 1.328 . S
C331 H336 0.930 . S
C332 C333 1.333 . S
C332 N334 1.317 . S
C332 H337 0.930 . S
C333 C332 1.333 . S
C333 N335 1.350 . S
C333 H359 0.931 . S
N334 Co330 2.148 . S
N334 C331 1.301 . S
N334 C332 1.317 . S
N335 C331 1.328 . S
N335 C333 1.350 . S
H336 C331 0.930 . S
H337 C332 0.930 . S
C338 O339 1.224 . S
C338 O357 1.247 . S
O339 C338 1.224 . S
N340 Co330 2.128 1_455 S
N340 C341 1.355 . S
N340 C343 1.311 . S
C341 N340 1.355 . S
C341 C342 1.363 . S
C341 H353 0.929 . S
C342 C341 1.363 . S
C342 N344 1.375 . S
C342 H360 0.931 . S
C343 N340 1.311 . S
C343 N344 1.347 . S
C343 H354 0.929 . S
N344 C342 1.375 . S
N344 C343 1.347 . S
C345 C348 1.365 . S
C345 N350 1.328 . S
C345 H351 0.929 . S
C346 C347 1.362 . S
C346 C349 1.378 . S
C346 H361 0.929 . S
C347 C346 1.362 . S
C347 C348 1.366 . S
C348 C345 1.365 . S
C348 C347 1.366 . S
C348 H362 0.930 . S
C349 C346 1.378 . S
C349 N350 1.315 . S
C349 H352 0.962 . S
N350 Co330 2.194 1_455 S
N350 C345 1.328 . S
N350 C349 1.315 . S
H351 C345 0.929 . S
H352 C349 0.962 . S
H353 C341 0.929 . S
H354 C343 0.929 . S
O355 Co330 2.351 1_455 S
O355 C358 1.244 . S
O356 Co330 2.155 . S
O356 C358 1.240 1_655 S
O357 Co330 2.096 . S
O357 C338 1.247 . S
C358 O355 1.244 . S
C358 O356 1.240 1_455 S
H359 C333 0.931 . S
H360 C342 0.931 . S
H361 C346 0.929 . S
H362 C348 0.930 . S
Co363 N367 2.148 . S
Co363 N373 2.128 . S
Co363 N383 2.194 . S
Co363 O388 2.351 . S
Co363 O389 2.155 . S
Co363 O390 2.096 . S
C364 N367 1.301 . S
C364 N368 1.328 . S
C364 H369 0.930 . S
C365 C366 1.333 . S
C365 N367 1.317 . S
C365 H370 0.930 . S
C366 C365 1.333 . S
C366 N368 1.350 . S
C366 H392 0.931 . S
N367 Co363 2.148 . S
N367 C364 1.301 . S
N367 C365 1.317 . S
N368 C364 1.328 . S
N368 C366 1.350 . S
H369 C364 0.930 . S
H370 C365 0.930 . S
C371 O372 1.224 . S
C371 O390 1.247 . S
O372 C371 1.224 . S
N373 Co363 2.128 . S
N373 C374 1.355 . S
N373 C376 1.311 . S
C374 N373 1.355 . S
C374 C375 1.363 . S
C374 H386 0.929 . S
C375 C374 1.363 . S
C375 N377 1.375 . S
C375 H393 0.931 . S
C376 N373 1.311 . S
C376 N377 1.347 . S
C376 H387 0.929 . S
N377 C375 1.375 . S
N377 C376 1.347 . S
C378 C381 1.365 . S
C378 N383 1.328 . S
C378 H384 0.929 . S
C379 C380 1.362 . S
C379 C382 1.378 . S
C379 H394 0.929 . S
C380 C379 1.362 . S
C380 C381 1.366 . S
C381 C378 1.365 . S
C381 C380 1.366 . S
C381 H395 0.930 . S
C382 C379 1.378 . S
C382 N383 1.315 . S
C382 H385 0.930 . S
N383 Co363 2.194 . S
N383 C378 1.328 . S
N383 C382 1.315 . S
H384 C378 0.929 . S
H385 C382 0.930 . S
H386 C374 0.929 . S
H387 C376 0.929 . S
O388 Co363 2.351 . S
O388 C391 1.244 . S
O389 Co363 2.155 . S
O389 C391 1.240 . S
O390 Co363 2.096 . S
O390 C371 1.247 . S
C391 O388 1.244 . S
C391 O389 1.240 . S
H392 C366 0.931 . S
H393 C375 0.931 . S
H394 C379 0.929 . S
H395 C381 0.930 . S
Co396 N400 2.148 . S
Co396 N406 2.128 . S
Co396 N416 2.194 . S
Co396 O421 2.351 . S
Co396 O422 2.155 . S
Co396 O423 2.096 . S
C397 N400 1.301 . S
C397 N401 1.328 . S
C397 H402 0.930 . S
C398 C399 1.333 . S
C398 N400 1.317 . S
C398 H403 0.930 . S
C399 C398 1.333 . S
C399 N401 1.350 . S
C399 H425 0.931 . S
N400 Co396 2.148 . S
N400 C397 1.301 . S
N400 C398 1.317 . S
N401 C397 1.328 . S
N401 C399 1.350 . S
H402 C397 0.930 . S
H403 C398 0.930 . S
C404 O405 1.224 . S
C404 O423 1.247 . S
O405 C404 1.224 . S
N406 Co396 2.128 . S
N406 C407 1.355 . S
N406 C409 1.311 . S
C407 N406 1.355 . S
C407 C408 1.363 . S
C407 H419 0.929 . S
C408 C407 1.363 . S
C408 N410 1.375 . S
C408 H426 0.931 . S
C409 N406 1.311 . S
C409 N410 1.347 . S
C409 H420 0.929 . S
N410 C408 1.375 . S
N410 C409 1.347 . S
C411 C414 1.365 . S
C411 N416 1.328 . S
C411 H417 0.929 . S
C412 C413 1.362 . S
C412 C415 1.378 . S
C412 H427 0.929 . S
C413 C412 1.362 . S
C413 C414 1.366 . S
C414 C411 1.365 . S
C414 C413 1.366 . S
C414 H428 0.930 . S
C415 C412 1.378 . S
C415 N416 1.315 . S
C415 H418 0.930 . S
N416 Co396 2.194 . S
N416 C411 1.328 . S
N416 C415 1.315 . S
H417 C411 0.929 . S
H418 C415 0.930 . S
H419 C407 0.929 . S
H420 C409 0.929 . S
O421 Co396 2.351 . S
O421 C424 1.244 . S
O422 Co396 2.155 . S
O422 C424 1.240 . S
O423 Co396 2.096 . S
O423 C404 1.247 . S
C424 O421 1.244 . S
C424 O422 1.240 . S
H425 C399 0.931 . S
H426 C408 0.931 . S
H427 C412 0.929 . S
H428 C414 0.930 . S
Co429 N433 2.148 . S
Co429 N439 2.128 . S
Co429 N449 2.194 . S
Co429 O454 2.351 . S
Co429 O455 2.155 . S
Co429 O456 2.096 . S
C430 N433 1.301 . S
C430 N434 1.328 . S
C430 H435 0.930 . S
C431 C432 1.333 . S
C431 N433 1.317 . S
C431 H436 0.930 . S
C432 C431 1.333 . S
C432 N434 1.350 . S
C432 H458 0.931 . S
N433 Co429 2.148 . S
N433 C430 1.301 . S
N433 C431 1.317 . S
N434 C430 1.328 . S
N434 C432 1.350 . S
H435 C430 0.930 . S
H436 C431 0.930 . S
C437 O438 1.224 . S
C437 O456 1.247 . S
O438 C437 1.224 . S
N439 Co429 2.128 . S
N439 C440 1.355 . S
N439 C442 1.311 . S
C440 N439 1.355 . S
C440 C441 1.363 . S
C440 H452 0.929 . S
C441 C440 1.363 . S
C441 N443 1.375 . S
C441 H459 0.931 . S
C442 N439 1.311 . S
C442 N443 1.347 . S
C442 H453 0.929 . S
N443 C441 1.375 . S
N443 C442 1.347 . S
C444 C447 1.365 . S
C444 N449 1.328 . S
C444 H450 0.929 . S
C445 C446 1.362 . S
C445 C448 1.378 . S
C445 H460 0.929 . S
C446 C445 1.362 . S
C446 C447 1.366 . S
C447 C444 1.365 . S
C447 C446 1.366 . S
C447 H461 0.930 . S
C448 C445 1.378 . S
C448 N449 1.315 . S
C448 H451 0.930 . S
N449 Co429 2.194 . S
N449 C444 1.328 . S
N449 C448 1.315 . S
H450 C444 0.929 . S
H451 C448 0.930 . S
H452 C440 0.929 . S
H453 C442 0.929 . S
O454 Co429 2.351 . S
O454 C457 1.244 . S
O455 Co429 2.155 . S
O455 C457 1.240 . S
O456 Co429 2.096 . S
O456 C437 1.247 . S
C457 O454 1.244 . S
C457 O455 1.240 . S
H458 C432 0.931 . S
H459 C441 0.931 . S
H460 C445 0.929 . S
H461 C447 0.930 . S
Co462 N466 2.148 . S
Co462 N472 2.128 . S
Co462 N482 2.194 . S
Co462 O487 2.351 . S
Co462 O488 2.155 . S
Co462 O489 2.096 . S
C463 N466 1.301 . S
C463 N467 1.328 . S
C463 H468 0.930 . S
C464 C465 1.333 . S
C464 N466 1.317 . S
C464 H469 0.930 . S
C465 C464 1.333 . S
C465 N467 1.350 . S
C465 H491 0.931 . S
N466 Co462 2.148 . S
N466 C463 1.301 . S
N466 C464 1.317 . S
N467 C463 1.328 . S
N467 C465 1.350 . S
H468 C463 0.930 . S
H469 C464 0.930 . S
C470 O471 1.224 . S
C470 O489 1.247 . S
O471 C470 1.224 . S
N472 Co462 2.128 . S
N472 C473 1.355 . S
N472 C475 1.311 . S
C473 N472 1.355 . S
C473 C474 1.363 . S
C473 H485 0.929 . S
C474 C473 1.363 . S
C474 N476 1.375 . S
C474 H492 0.931 . S
C475 N472 1.311 . S
C475 N476 1.347 . S
C475 H486 0.929 . S
N476 C474 1.375 . S
N476 C475 1.347 . S
C477 C480 1.365 . S
C477 N482 1.328 . S
C477 H483 0.929 . S
C478 C479 1.362 . S
C478 C481 1.378 . S
C478 H493 0.929 . S
C479 C478 1.362 . S
C479 C480 1.366 . S
C480 C477 1.365 . S
C480 C479 1.366 . S
C480 H494 0.930 . S
C481 C478 1.378 . S
C481 N482 1.315 . S
C481 H484 0.930 . S
N482 Co462 2.194 . S
N482 C477 1.328 . S
N482 C481 1.315 . S
H483 C477 0.929 . S
H484 C481 0.930 . S
H485 C473 0.929 . S
H486 C475 0.929 . S
O487 Co462 2.351 . S
O487 C490 1.244 . S
O488 Co462 2.155 . S
O488 C490 1.240 . S
O489 Co462 2.096 . S
O489 C470 1.247 . S
C490 O487 1.244 . S
C490 O488 1.240 . S
H491 C465 0.931 . S
H492 C474 0.931 . S
H493 C478 0.929 . S
H494 C480 0.930 . S
Co495 N499 2.148 . S
Co495 N505 2.128 . S
Co495 N515 2.194 . S
Co495 O520 2.351 . S
Co495 O521 2.155 . S
Co495 O522 2.096 . S
C496 N499 1.301 . S
C496 N500 1.328 . S
C496 H501 0.930 . S
C497 C498 1.333 . S
C497 N499 1.317 . S
C497 H502 0.930 . S
C498 C497 1.333 . S
C498 N500 1.350 . S
C498 H524 0.931 . S
N499 Co495 2.148 . S
N499 C496 1.301 . S
N499 C497 1.317 . S
N500 C496 1.328 . S
N500 C498 1.350 . S
H501 C496 0.930 . S
H502 C497 0.930 . S
C503 O504 1.224 . S
C503 O522 1.247 . S
O504 C503 1.224 . S
N505 Co495 2.128 . S
N505 C506 1.355 . S
N505 C508 1.311 . S
C506 N505 1.355 . S
C506 C507 1.363 . S
C506 H518 0.929 . S
C507 C506 1.363 . S
C507 N509 1.375 . S
C507 H525 0.931 . S
C508 N505 1.311 . S
C508 N509 1.347 . S
C508 H519 0.929 . S
N509 C507 1.375 . S
N509 C508 1.347 . S
C510 C513 1.365 . S
C510 N515 1.328 . S
C510 H516 0.929 . S
C511 C512 1.362 . S
C511 C514 1.378 . S
C511 H526 0.929 . S
C512 C511 1.362 . S
C512 C513 1.366 . S
C513 C510 1.365 . S
C513 C512 1.366 . S
C513 H527 0.930 . S
C514 C511 1.378 . S
C514 N515 1.315 . S
C514 H517 0.930 . S
N515 Co495 2.194 . S
N515 C510 1.328 . S
N515 C514 1.315 . S
H516 C510 0.929 . S
H517 C514 0.930 . S
H518 C506 0.929 . S
H519 C508 0.929 . S
O520 Co495 2.351 . S
O520 C523 1.244 . S
O521 Co495 2.155 . S
O521 C523 1.240 . S
O522 Co495 2.096 . S
O522 C503 1.247 . S
C523 O520 1.244 . S
C523 O521 1.240 . S
H524 C498 0.931 . S
H525 C507 0.931 . S
H526 C511 0.929 . S
H527 C513 0.930 . S
Co528 N532 2.148 . S
Co528 N538 2.128 . S
Co528 N548 2.194 . S
Co528 O553 2.351 . S
Co528 O554 2.155 . S
Co528 O555 2.096 . S
C529 N532 1.301 . S
C529 N533 1.328 . S
C529 H534 0.930 . S
C530 C531 1.333 . S
C530 N532 1.317 . S
C530 H535 0.930 . S
C531 C530 1.333 . S
C531 N533 1.350 . S
C531 H557 0.931 . S
N532 Co528 2.148 . S
N532 C529 1.301 . S
N532 C530 1.317 . S
N533 C529 1.328 . S
N533 C531 1.350 . S
H534 C529 0.930 . S
H535 C530 0.930 . S
C536 O537 1.224 . S
C536 O555 1.247 . S
O537 C536 1.224 . S
N538 Co528 2.128 . S
N538 C539 1.355 . S
N538 C541 1.311 . S
C539 N538 1.355 . S
C539 C540 1.363 . S
C539 H551 0.929 . S
C540 C539 1.363 . S
C540 N542 1.375 . S
C540 H558 0.931 . S
C541 N538 1.311 . S
C541 N542 1.347 . S
C541 H552 0.929 . S
N542 C540 1.375 . S
N542 C541 1.347 . S
C543 C546 1.365 . S
C543 N548 1.328 . S
C543 H549 0.929 . S
C544 C545 1.362 . S
C544 C547 1.378 . S
C544 H559 0.929 . S
C545 C544 1.362 . S
C545 C546 1.366 . S
C546 C543 1.365 . S
C546 C545 1.366 . S
C546 H560 0.930 . S
C547 C544 1.378 . S
C547 N548 1.315 . S
C547 H550 0.930 . S
N548 Co528 2.194 . S
N548 C543 1.328 . S
N548 C547 1.315 . S
H549 C543 0.929 . S
H550 C547 0.930 . S
H551 C539 0.929 . S
H552 C541 0.929 . S
O553 Co528 2.351 . S
O553 C556 1.244 . S
O554 Co528 2.155 . S
O554 C556 1.240 . S
O555 Co528 2.096 . S
O555 C536 1.247 . S
C556 O553 1.244 . S
C556 O554 1.240 . S
H557 C531 0.931 . S
H558 C540 0.931 . S
H559 C544 0.929 . S
H560 C546 0.930 . S
Co561 N565 2.148 . S
Co561 N571 2.128 . S
Co561 N581 2.194 . S
Co561 O586 2.351 . S
Co561 O587 2.155 . S
Co561 O588 2.096 . S
C562 N565 1.301 . S
C562 N566 1.328 . S
C562 H567 0.930 . S
C563 C564 1.333 . S
C563 N565 1.317 . S
C563 H568 0.930 . S
C564 C563 1.333 . S
C564 N566 1.350 . S
C564 H590 0.931 . S
N565 Co561 2.148 . S
N565 C562 1.301 . S
N565 C563 1.317 . S
N566 C562 1.328 . S
N566 C564 1.350 . S
H567 C562 0.930 . S
H568 C563 0.930 . S
C569 O570 1.224 . S
C569 O588 1.247 . S
O570 C569 1.224 . S
N571 Co561 2.128 . S
N571 C572 1.355 . S
N571 C574 1.311 . S
C572 N571 1.355 . S
C572 C573 1.363 . S
C572 H584 0.929 . S
C573 C572 1.363 . S
C573 N575 1.375 . S
C573 H591 0.931 . S
C574 N571 1.311 . S
C574 N575 1.347 . S
C574 H585 0.929 . S
N575 C573 1.375 . S
N575 C574 1.347 . S
C576 C579 1.365 . S
C576 N581 1.328 . S
C576 H582 0.929 . S
C577 C578 1.362 . S
C577 C580 1.378 . S
C577 H592 0.929 . S
C578 C577 1.362 . S
C578 C579 1.366 . S
C579 C576 1.365 . S
C579 C578 1.366 . S
C579 H593 0.930 . S
C580 C577 1.378 . S
C580 N581 1.315 . S
C580 H583 0.930 . S
N581 Co561 2.194 . S
N581 C576 1.328 . S
N581 C580 1.315 . S
H582 C576 0.929 . S
H583 C580 0.930 . S
H584 C572 0.929 . S
H585 C574 0.929 . S
O586 Co561 2.351 . S
O586 C589 1.244 . S
O587 Co561 2.155 . S
O587 C589 1.240 . S
O588 Co561 2.096 . S
O588 C569 1.247 . S
C589 O586 1.244 . S
C589 O587 1.240 . S
H590 C564 0.931 . S
H591 C573 0.931 . S
H592 C577 0.929 . S
H593 C579 0.930 . S
Co594 N598 2.148 . S
Co594 N604 2.128 . S
Co594 N614 2.194 . S
Co594 O619 2.351 . S
Co594 O620 2.155 . S
Co594 O621 2.096 . S
C595 N598 1.301 . S
C595 N599 1.328 . S
C595 H600 0.930 . S
C596 C597 1.333 . S
C596 N598 1.317 . S
C596 H601 0.930 . S
C597 C596 1.333 . S
C597 N599 1.350 . S
C597 H623 0.931 . S
N598 Co594 2.148 . S
N598 C595 1.301 . S
N598 C596 1.317 . S
N599 C595 1.328 . S
N599 C597 1.350 . S
H600 C595 0.930 . S
H601 C596 0.930 . S
C602 O603 1.224 . S
C602 O621 1.247 . S
O603 C602 1.224 . S
N604 Co594 2.128 . S
N604 C605 1.355 . S
N604 C607 1.311 . S
C605 N604 1.355 . S
C605 C606 1.363 . S
C605 H617 0.929 . S
C606 C605 1.363 . S
C606 N608 1.375 . S
C606 H624 0.931 . S
C607 N604 1.311 . S
C607 N608 1.347 . S
C607 H618 0.929 . S
N608 C606 1.375 . S
N608 C607 1.347 . S
C609 C612 1.365 . S
C609 N614 1.328 . S
C609 H615 0.929 . S
C610 C611 1.362 . S
C610 C613 1.378 . S
C610 H625 0.929 . S
C611 C610 1.362 . S
C611 C612 1.366 . S
C612 C609 1.365 . S
C612 C611 1.366 . S
C612 H626 0.930 . S
C613 C610 1.378 . S
C613 N614 1.315 . S
C613 H616 0.930 . S
N614 Co594 2.194 . S
N614 C609 1.328 . S
N614 C613 1.315 . S
H615 C609 0.929 . S
H616 C613 0.930 . S
H617 C605 0.929 . S
H618 C607 0.929 . S
O619 Co594 2.351 . S
O619 C622 1.244 . S
O620 Co594 2.155 . S
O620 C622 1.240 . S
O621 Co594 2.096 . S
O621 C602 1.247 . S
C622 O619 1.244 . S
C622 O620 1.240 . S
H623 C597 0.931 . S
H624 C606 0.931 . S
H625 C610 0.929 . S
H626 C612 0.930 . S
Co627 N631 2.148 . S
Co627 N637 2.128 . S
Co627 N647 2.194 . S
Co627 O652 2.351 . S
Co627 O653 2.155 . S
Co627 O654 2.096 . S
C628 N631 1.301 . S
C628 N632 1.328 . S
C628 H633 0.930 . S
C629 C630 1.333 . S
C629 N631 1.317 . S
C629 H634 0.930 . S
C630 C629 1.333 . S
C630 N632 1.350 . S
C630 H656 0.931 . S
N631 Co627 2.148 . S
N631 C628 1.301 . S
N631 C629 1.317 . S
N632 C628 1.328 . S
N632 C630 1.350 . S
H633 C628 0.930 . S
H634 C629 0.930 . S
C635 O636 1.224 . S
C635 O654 1.247 . S
O636 C635 1.224 . S
N637 Co627 2.128 . S
N637 C638 1.355 . S
N637 C640 1.311 . S
C638 N637 1.355 . S
C638 C639 1.363 . S
C638 H650 0.929 . S
C639 C638 1.363 . S
C639 N641 1.375 . S
C639 H657 0.931 . S
C640 N637 1.311 . S
C640 N641 1.347 . S
C640 H651 0.929 . S
N641 C639 1.375 . S
N641 C640 1.347 . S
C642 C645 1.365 . S
C642 N647 1.328 . S
C642 H648 0.929 . S
C643 C644 1.362 . S
C643 C646 1.378 . S
C643 H658 0.929 . S
C644 C643 1.362 . S
C644 C645 1.366 . S
C645 C642 1.365 . S
C645 C644 1.366 . S
C645 H659 0.930 . S
C646 C643 1.378 . S
C646 N647 1.315 . S
C646 H649 0.930 . S
N647 Co627 2.194 . S
N647 C642 1.328 . S
N647 C646 1.315 . S
H648 C642 0.929 . S
H649 C646 0.930 . S
H650 C638 0.929 . S
H651 C640 0.929 . S
O652 Co627 2.351 . S
O652 C655 1.244 . S
O653 Co627 2.155 . S
O653 C655 1.240 . S
O654 Co627 2.096 . S
O654 C635 1.247 . S
C655 O652 1.244 . S
C655 O653 1.240 . S
H656 C630 0.931 . S
H657 C639 0.931 . S
H658 C643 0.929 . S
H659 C645 0.930 . S
Co660 N664 2.148 . S
Co660 N670 2.128 . S
Co660 N680 2.194 . S
Co660 O685 2.351 . S
Co660 O686 2.155 . S
Co660 O687 2.096 . S
C661 N664 1.301 . S
C661 N665 1.328 . S
C661 H666 0.930 . S
C662 C663 1.333 . S
C662 N664 1.317 . S
C662 H667 0.930 . S
C663 C662 1.333 . S
C663 N665 1.350 . S
C663 H689 0.931 . S
N664 Co660 2.148 . S
N664 C661 1.301 . S
N664 C662 1.317 . S
N665 C661 1.328 . S
N665 C663 1.350 . S
H666 C661 0.930 . S
H667 C662 0.930 . S
C668 O669 1.224 . S
C668 O687 1.247 . S
O669 C668 1.224 . S
N670 Co660 2.128 . S
N670 C671 1.355 . S
N670 C673 1.311 . S
C671 N670 1.355 . S
C671 C672 1.363 . S
C671 H683 0.929 . S
C672 C671 1.363 . S
C672 N674 1.375 . S
C672 H690 0.931 . S
C673 N670 1.311 . S
C673 N674 1.347 . S
C673 H684 0.929 . S
N674 C672 1.375 . S
N674 C673 1.347 . S
C675 C678 1.365 . S
C675 N680 1.328 . S
C675 H681 0.929 . S
C676 C677 1.362 . S
C676 C679 1.378 . S
C676 H691 0.929 . S
C677 C676 1.362 . S
C677 C678 1.366 . S
C678 C675 1.365 . S
C678 C677 1.366 . S
C678 H692 0.930 . S
C679 C676 1.378 . S
C679 N680 1.315 . S
C679 H682 0.930 . S
N680 Co660 2.194 . S
N680 C675 1.328 . S
N680 C679 1.315 . S
H681 C675 0.929 . S
H682 C679 0.930 . S
H683 C671 0.929 . S
H684 C673 0.929 . S
O685 Co660 2.351 . S
O685 C688 1.244 . S
O686 Co660 2.155 . S
O686 C688 1.240 . S
O687 Co660 2.096 . S
O687 C668 1.247 . S
C688 O685 1.244 . S
C688 O686 1.240 . S
H689 C663 0.931 . S
H690 C672 0.931 . S
H691 C676 0.929 . S
H692 C678 0.930 . S
Co693 N697 2.148 . S
Co693 N703 2.128 . S
Co693 N713 2.194 . S
Co693 O718 2.351 1_556 S
Co693 O719 2.155 1_556 S
Co693 O720 2.096 . S
C694 N697 1.301 . S
C694 N698 1.328 . S
C694 H699 0.930 . S
C695 C696 1.333 . S
C695 N697 1.317 . S
C695 H700 0.930 . S
C696 C695 1.333 . S
C696 N698 1.350 . S
C696 H722 0.931 . S
N697 Co693 2.148 . S
N697 C694 1.301 . S
N697 C695 1.317 . S
N698 C694 1.328 . S
N698 C696 1.350 . S
H699 C694 0.930 . S
H700 C695 0.930 . S
C701 O702 1.224 . S
C701 O720 1.247 . S
O702 C701 1.224 . S
N703 Co693 2.128 . S
N703 C704 1.355 . S
N703 C706 1.311 . S
C704 N703 1.355 . S
C704 C705 1.363 . S
C704 H716 0.929 . S
C705 C704 1.363 . S
C705 N707 1.375 . S
C705 H723 0.931 . S
C706 N703 1.311 . S
C706 N707 1.347 . S
C706 H717 0.929 . S
N707 C705 1.375 . S
N707 C706 1.347 . S
C708 C711 1.365 . S
C708 N713 1.328 . S
C708 H714 0.929 . S
C709 C710 1.362 . S
C709 C712 1.378 . S
C709 H724 0.929 . S
C710 C709 1.362 . S
C710 C711 1.366 . S
C711 C708 1.365 . S
C711 C710 1.366 . S
C711 H725 0.930 . S
C712 C709 1.378 . S
C712 N713 1.315 . S
C712 H715 0.930 . S
N713 Co693 2.194 . S
N713 C708 1.328 . S
N713 C712 1.315 . S
H714 C708 0.929 . S
H715 C712 0.930 . S
H716 C704 0.929 . S
H717 C706 0.929 . S
O718 Co693 2.351 1_554 S
O718 C721 1.244 . S
O719 Co693 2.155 1_554 S
O719 C721 1.240 . S
O720 Co693 2.096 . S
O720 C701 1.247 . S
C721 O718 1.244 . S
C721 O719 1.240 . S
H722 C696 0.931 . S
H723 C705 0.931 . S
H724 C709 0.929 . S
H725 C711 0.930 . S
Co726 N730 2.148 . S
Co726 N736 2.128 . S
Co726 N746 2.194 . S
Co726 O751 2.351 1_556 S
Co726 O752 2.155 1_556 S
Co726 O753 2.096 . S
C727 N730 1.301 . S
C727 N731 1.328 . S
C727 H732 0.930 . S
C728 C729 1.333 . S
C728 N730 1.317 . S
C728 H733 0.930 . S
C729 C728 1.333 . S
C729 N731 1.350 . S
C729 H755 0.931 . S
N730 Co726 2.148 . S
N730 C727 1.301 . S
N730 C728 1.317 . S
N731 C727 1.328 . S
N731 C729 1.350 . S
H732 C727 0.930 . S
H733 C728 0.930 . S
C734 O735 1.224 . S
C734 O753 1.247 . S
O735 C734 1.224 . S
N736 Co726 2.128 . S
N736 C737 1.355 . S
N736 C739 1.311 . S
C737 N736 1.355 . S
C737 C738 1.363 . S
C737 H749 0.929 . S
C738 C737 1.363 . S
C738 N740 1.375 . S
C738 H756 0.931 . S
C739 N736 1.311 . S
C739 N740 1.347 . S
C739 H750 0.929 . S
N740 C738 1.375 . S
N740 C739 1.347 . S
C741 C744 1.365 . S
C741 N746 1.328 . S
C741 H747 0.929 . S
C742 C743 1.362 . S
C742 C745 1.378 . S
C742 H757 0.929 . S
C743 C742 1.362 . S
C743 C744 1.366 . S
C744 C741 1.365 . S
C744 C743 1.366 . S
C744 H758 0.930 . S
C745 C742 1.378 . S
C745 N746 1.315 . S
C745 H748 0.930 . S
N746 Co726 2.194 . S
N746 C741 1.328 . S
N746 C745 1.315 . S
H747 C741 0.929 . S
H748 C745 0.930 . S
H749 C737 0.929 . S
H750 C739 0.929 . S
O751 Co726 2.351 1_554 S
O751 C754 1.244 . S
O752 Co726 2.155 1_554 S
O752 C754 1.240 . S
O753 Co726 2.096 . S
O753 C734 1.247 . S
C754 O751 1.244 . S
C754 O752 1.240 . S
H755 C729 0.931 . S
H756 C738 0.931 . S
H757 C742 0.929 . S
H758 C744 0.930 . S
Co759 N763 2.148 . S
Co759 N769 2.128 . S
Co759 N779 2.194 . S
Co759 O784 2.351 1_556 S
Co759 O785 2.155 1_556 S
Co759 O786 2.096 . S
C760 N763 1.301 . S
C760 N764 1.328 . S
C760 H765 0.930 . S
C761 C762 1.333 . S
C761 N763 1.317 . S
C761 H766 0.930 . S
C762 C761 1.333 . S
C762 N764 1.350 . S
C762 H788 0.931 . S
N763 Co759 2.148 . S
N763 C760 1.301 . S
N763 C761 1.317 . S
N764 C760 1.328 . S
N764 C762 1.350 . S
H765 C760 0.930 . S
H766 C761 0.930 . S
C767 O768 1.224 . S
C767 O786 1.247 . S
O768 C767 1.224 . S
N769 Co759 2.128 . S
N769 C770 1.355 . S
N769 C772 1.311 . S
C770 N769 1.355 . S
C770 C771 1.363 . S
C770 H782 0.929 . S
C771 C770 1.363 . S
C771 N773 1.375 . S
C771 H789 0.931 . S
C772 N769 1.311 . S
C772 N773 1.347 . S
C772 H783 0.929 . S
N773 C771 1.375 . S
N773 C772 1.347 . S
C774 C777 1.365 . S
C774 N779 1.328 . S
C774 H780 0.929 . S
C775 C776 1.362 . S
C775 C778 1.378 . S
C775 H790 0.929 . S
C776 C775 1.362 . S
C776 C777 1.366 . S
C777 C774 1.365 . S
C777 C776 1.366 . S
C777 H791 0.930 . S
C778 C775 1.378 . S
C778 N779 1.315 . S
C778 H781 0.930 . S
N779 Co759 2.194 . S
N779 C774 1.328 . S
N779 C778 1.315 . S
H780 C774 0.929 . S
H781 C778 0.930 . S
H782 C770 0.929 . S
H783 C772 0.929 . S
O784 Co759 2.351 1_554 S
O784 C787 1.244 . S
O785 Co759 2.155 1_554 S
O785 C787 1.240 . S
O786 Co759 2.096 . S
O786 C767 1.247 . S
C787 O784 1.244 . S
C787 O785 1.240 . S
H788 C762 0.931 . S
H789 C771 0.931 . S
H790 C775 0.929 . S
H791 C777 0.930 . S
Co792 N796 2.148 . S
Co792 N802 2.128 . S
Co792 N812 2.194 . S
Co792 O817 2.351 . S
Co792 O818 2.155 . S
Co792 O819 2.096 . S
C793 N796 1.301 . S
C793 N797 1.328 . S
C793 H798 0.930 . S
C794 C795 1.333 . S
C794 N796 1.317 . S
C794 H799 0.930 . S
C795 C794 1.333 . S
C795 N797 1.350 . S
C795 H821 0.931 . S
N796 Co792 2.148 . S
N796 C793 1.301 . S
N796 C794 1.317 . S
N797 C793 1.328 . S
N797 C795 1.350 . S
H798 C793 0.930 . S
H799 C794 0.930 . S
C800 O801 1.224 . S
C800 O819 1.247 . S
O801 C800 1.224 . S
N802 Co792 2.128 . S
N802 C803 1.355 . S
N802 C805 1.311 . S
C803 N802 1.355 . S
C803 C804 1.363 . S
C803 H815 0.929 . S
C804 C803 1.363 . S
C804 N806 1.375 . S
C804 H822 0.931 . S
C805 N802 1.311 . S
C805 N806 1.347 . S
C805 H816 0.929 . S
N806 C804 1.375 . S
N806 C805 1.347 . S
C807 C810 1.365 . S
C807 N812 1.328 . S
C807 H813 0.929 . S
C808 C809 1.362 . S
C808 C811 1.378 . S
C808 H823 0.929 . S
C809 C808 1.362 . S
C809 C810 1.366 . S
C810 C807 1.365 . S
C810 C809 1.366 . S
C810 H824 0.930 . S
C811 C808 1.378 . S
C811 N812 1.315 . S
C811 H814 0.930 . S
N812 Co792 2.194 . S
N812 C807 1.328 . S
N812 C811 1.315 . S
H813 C807 0.929 . S
H814 C811 0.930 . S
H815 C803 0.929 . S
H816 C805 0.929 . S
O817 Co792 2.351 . S
O817 C820 1.244 . S
O818 Co792 2.155 . S
O818 C820 1.240 . S
O819 Co792 2.096 . S
O819 C800 1.247 . S
C820 O817 1.244 . S
C820 O818 1.240 . S
H821 C795 0.931 . S
H822 C804 0.931 . S
H823 C808 0.929 . S
H824 C810 0.930 . S
Co825 N829 2.148 . S
Co825 N835 2.128 . S
Co825 N845 2.194 . S
Co825 O850 2.351 . S
Co825 O851 2.155 . S
Co825 O852 2.096 . S
C826 N829 1.301 . S
C826 N830 1.328 . S
C826 H831 0.930 . S
C827 C828 1.333 . S
C827 N829 1.317 . S
C827 H832 0.930 . S
C828 C827 1.333 . S
C828 N830 1.350 . S
C828 H854 0.931 . S
N829 Co825 2.148 . S
N829 C826 1.301 . S
N829 C827 1.317 . S
N830 C826 1.328 . S
N830 C828 1.350 . S
H831 C826 0.930 . S
H832 C827 0.930 . S
C833 O834 1.224 . S
C833 O852 1.247 . S
O834 C833 1.224 . S
N835 Co825 2.128 . S
N835 C836 1.355 . S
N835 C838 1.311 . S
C836 N835 1.355 . S
C836 C837 1.363 . S
C836 H848 0.929 . S
C837 C836 1.363 . S
C837 N839 1.375 . S
C837 H855 0.931 . S
C838 N835 1.311 . S
C838 N839 1.347 . S
C838 H849 0.929 . S
N839 C837 1.375 . S
N839 C838 1.347 . S
C840 C843 1.365 . S
C840 N845 1.328 . S
C840 H846 0.929 . S
C841 C842 1.362 . S
C841 C844 1.378 . S
C841 H856 0.929 . S
C842 C841 1.362 . S
C842 C843 1.366 . S
C843 C840 1.365 . S
C843 C842 1.366 . S
C843 H857 0.930 . S
C844 C841 1.378 . S
C844 N845 1.315 . S
C844 H847 0.930 . S
N845 Co825 2.194 . S
N845 C840 1.328 . S
N845 C844 1.315 . S
H846 C840 0.929 . S
H847 C844 0.930 . S
H848 C836 0.929 . S
H849 C838 0.929 . S
O850 Co825 2.351 . S
O850 C853 1.244 . S
O851 Co825 2.155 . S
O851 C853 1.240 . S
O852 Co825 2.096 . S
O852 C833 1.247 . S
C853 O850 1.244 . S
C853 O851 1.240 . S
H854 C828 0.931 . S
H855 C837 0.931 . S
H856 C841 0.929 . S
H857 C843 0.930 . S
Co858 N862 2.148 . S
Co858 N868 2.128 . S
Co858 N878 2.194 . S
Co858 O883 2.351 . S
Co858 O884 2.155 . S
Co858 O885 2.096 . S
C859 N862 1.301 . S
C859 N863 1.328 . S
C859 H864 0.930 . S
C860 C861 1.333 . S
C860 N862 1.317 . S
C860 H865 0.930 . S
C861 C860 1.333 . S
C861 N863 1.350 . S
C861 H887 0.931 . S
N862 Co858 2.148 . S
N862 C859 1.301 . S
N862 C860 1.317 . S
N863 C859 1.328 . S
N863 C861 1.350 . S
H864 C859 0.930 . S
H865 C860 0.930 . S
C866 O867 1.224 . S
C866 O885 1.247 . S
O867 C866 1.224 . S
N868 Co858 2.128 . S
N868 C869 1.355 . S
N868 C871 1.311 . S
C869 N868 1.355 . S
C869 C870 1.363 . S
C869 H881 0.929 . S
C870 C869 1.363 . S
C870 N872 1.375 . S
C870 H888 0.931 . S
C871 N868 1.311 . S
C871 N872 1.347 . S
C871 H882 0.929 . S
N872 C870 1.375 . S
N872 C871 1.347 . S
C873 C876 1.365 . S
C873 N878 1.328 . S
C873 H879 0.929 . S
C874 C875 1.362 . S
C874 C877 1.378 . S
C874 H889 0.929 . S
C875 C874 1.362 . S
C875 C876 1.366 . S
C876 C873 1.365 . S
C876 C875 1.366 . S
C876 H890 0.930 . S
C877 C874 1.378 . S
C877 N878 1.315 . S
C877 H880 0.930 . S
N878 Co858 2.194 . S
N878 C873 1.328 . S
N878 C877 1.315 . S
H879 C873 0.929 . S
H880 C877 0.930 . S
H881 C869 0.929 . S
H882 C871 0.929 . S
O883 Co858 2.351 . S
O883 C886 1.244 . S
O884 Co858 2.155 . S
O884 C886 1.240 . S
O885 Co858 2.096 . S
O885 C866 1.247 . S
C886 O883 1.244 . S
C886 O884 1.240 . S
H887 C861 0.931 . S
H888 C870 0.931 . S
H889 C874 0.929 . S
H890 C876 0.930 . S
Co891 N895 2.148 . S
Co891 N901 2.128 . S
Co891 N911 2.194 . S
Co891 O916 2.351 1_554 S
Co891 O917 2.155 1_554 S
Co891 O918 2.096 . S
C892 N895 1.301 . S
C892 N896 1.328 . S
C892 H897 0.930 . S
C893 C894 1.333 . S
C893 N895 1.317 . S
C893 H898 0.930 . S
C894 C893 1.333 . S
C894 N896 1.350 . S
C894 H920 0.931 . S
N895 Co891 2.148 . S
N895 C892 1.301 . S
N895 C893 1.317 . S
N896 C892 1.328 . S
N896 C894 1.350 . S
H897 C892 0.930 . S
H898 C893 0.930 . S
C899 O900 1.224 . S
C899 O918 1.247 . S
O900 C899 1.224 . S
N901 Co891 2.128 . S
N901 C902 1.355 . S
N901 C904 1.311 . S
C902 N901 1.355 . S
C902 C903 1.363 . S
C902 H914 0.929 . S
C903 C902 1.363 . S
C903 N905 1.375 . S
C903 H921 0.931 . S
C904 N901 1.311 . S
C904 N905 1.347 . S
C904 H915 0.929 . S
N905 C903 1.375 . S
N905 C904 1.347 . S
C906 C909 1.365 . S
C906 N911 1.328 . S
C906 H912 0.929 . S
C907 C908 1.362 . S
C907 C910 1.378 . S
C907 H922 0.929 . S
C908 C907 1.362 . S
C908 C909 1.366 . S
C909 C906 1.365 . S
C909 C908 1.366 . S
C909 H923 0.930 . S
C910 C907 1.378 . S
C910 N911 1.315 . S
C910 H913 0.930 . S
N911 Co891 2.194 . S
N911 C906 1.328 . S
N911 C910 1.315 . S
H912 C906 0.929 . S
H913 C910 0.930 . S
H914 C902 0.929 . S
H915 C904 0.929 . S
O916 Co891 2.351 1_556 S
O916 C919 1.244 . S
O917 Co891 2.155 1_556 S
O917 C919 1.240 . S
O918 Co891 2.096 . S
O918 C899 1.247 . S
C919 O916 1.244 . S
C919 O917 1.240 . S
H920 C894 0.931 . S
H921 C903 0.931 . S
H922 C907 0.929 . S
H923 C909 0.930 . S
Co924 N928 2.148 . S
Co924 N934 2.128 . S
Co924 N944 2.194 . S
Co924 O949 2.351 1_554 S
Co924 O950 2.155 1_554 S
Co924 O951 2.096 . S
C925 N928 1.301 . S
C925 N929 1.328 . S
C925 H930 0.930 . S
C926 C927 1.333 . S
C926 N928 1.317 . S
C926 H931 0.930 . S
C927 C926 1.333 . S
C927 N929 1.350 . S
C927 H953 0.931 . S
N928 Co924 2.148 . S
N928 C925 1.301 . S
N928 C926 1.317 . S
N929 C925 1.328 . S
N929 C927 1.350 . S
H930 C925 0.930 . S
H931 C926 0.930 . S
C932 O933 1.224 . S
C932 O951 1.247 . S
O933 C932 1.224 . S
N934 Co924 2.128 . S
N934 C935 1.355 . S
N934 C937 1.311 . S
C935 N934 1.355 . S
C935 C936 1.363 . S
C935 H947 0.929 . S
C936 C935 1.363 . S
C936 N938 1.375 . S
C936 H954 0.931 . S
C937 N934 1.311 . S
C937 N938 1.347 . S
C937 H948 0.929 . S
N938 C936 1.375 . S
N938 C937 1.347 . S
C939 C942 1.365 . S
C939 N944 1.328 . S
C939 H945 0.929 . S
C940 C941 1.362 . S
C940 C943 1.378 . S
C940 H955 0.929 . S
C941 C940 1.362 . S
C941 C942 1.366 . S
C942 C939 1.365 . S
C942 C941 1.366 . S
C942 H956 0.930 . S
C943 C940 1.378 . S
C943 N944 1.315 . S
C943 H946 0.930 . S
N944 Co924 2.194 . S
N944 C939 1.328 . S
N944 C943 1.315 . S
H945 C939 0.929 . S
H946 C943 0.930 . S
H947 C935 0.929 . S
H948 C937 0.929 . S
O949 Co924 2.351 1_556 S
O949 C952 1.244 . S
O950 Co924 2.155 1_556 S
O950 C952 1.240 . S
O951 Co924 2.096 . S
O951 C932 1.247 . S
C952 O949 1.244 . S
C952 O950 1.240 . S
H953 C927 0.931 . S
H954 C936 0.931 . S
H955 C940 0.929 . S
H956 C942 0.930 . S
Co957 N961 2.148 . S
Co957 N967 2.128 . S
Co957 N977 2.194 . S
Co957 O982 2.351 1_554 S
Co957 O983 2.155 1_554 S
Co957 O984 2.096 . S
C958 N961 1.301 . S
C958 N962 1.328 . S
C958 H963 0.930 . S
C959 C960 1.333 . S
C959 N961 1.317 . S
C959 H964 0.930 . S
C960 C959 1.333 . S
C960 N962 1.350 . S
C960 H986 0.931 . S
N961 Co957 2.148 . S
N961 C958 1.301 . S
N961 C959 1.317 . S
N962 C958 1.328 . S
N962 C960 1.350 . S
H963 C958 0.930 . S
H964 C959 0.930 . S
C965 O966 1.224 . S
C965 O984 1.247 . S
O966 C965 1.224 . S
N967 Co957 2.128 . S
N967 C968 1.355 . S
N967 C970 1.311 . S
C968 N967 1.355 . S
C968 C969 1.363 . S
C968 H980 0.929 . S
C969 C968 1.363 . S
C969 N971 1.375 . S
C969 H987 0.931 . S
C970 N967 1.311 . S
C970 N971 1.347 . S
C970 H981 0.929 . S
N971 C969 1.375 . S
N971 C970 1.347 . S
C972 C975 1.365 . S
C972 N977 1.328 . S
C972 H978 0.929 . S
C973 C974 1.362 . S
C973 C976 1.378 . S
C973 H988 0.929 . S
C974 C973 1.362 . S
C974 C975 1.366 . S
C975 C972 1.365 . S
C975 C974 1.366 . S
C975 H989 0.930 . S
C976 C973 1.378 . S
C976 N977 1.315 . S
C976 H979 0.930 . S
N977 Co957 2.194 . S
N977 C972 1.328 . S
N977 C976 1.315 . S
H978 C972 0.929 . S
H979 C976 0.930 . S
H980 C968 0.929 . S
H981 C970 0.929 . S
O982 Co957 2.351 1_556 S
O982 C985 1.244 . S
O983 Co957 2.155 1_556 S
O983 C985 1.240 . S
O984 Co957 2.096 . S
O984 C965 1.247 . S
C985 O982 1.244 . S
C985 O983 1.240 . S
H986 C960 0.931 . S
H987 C969 0.931 . S
H988 C973 0.929 . S
H989 C975 0.930 . S
Co990 N994 2.148 . S
Co990 N1000 2.128 . S
Co990 N1010 2.194 . S
Co990 O1015 2.351 . S
Co990 O1016 2.155 . S
Co990 O1017 2.096 . S
C991 N994 1.301 . S
C991 N995 1.328 . S
C991 H996 0.930 . S
C992 C993 1.333 . S
C992 N994 1.317 . S
C992 H997 0.930 . S
C993 C992 1.333 . S
C993 N995 1.350 . S
C993 H1019 0.931 . S
N994 Co990 2.148 . S
N994 C991 1.301 . S
N994 C992 1.317 . S
N995 C991 1.328 . S
N995 C993 1.350 . S
H996 C991 0.930 . S
H997 C992 0.930 . S
C998 O999 1.224 . S
C998 O1017 1.247 . S
O999 C998 1.224 . S
N1000 Co990 2.128 . S
N1000 C1001 1.355 . S
N1000 C1003 1.311 . S
C1001 N1000 1.355 . S
C1001 C1002 1.363 . S
C1001 H1013 0.929 . S
C1002 C1001 1.363 . S
C1002 N1004 1.375 . S
C1002 H1020 0.931 . S
C1003 N1000 1.311 . S
C1003 N1004 1.347 . S
C1003 H1014 0.929 . S
N1004 C1002 1.375 . S
N1004 C1003 1.347 . S
C1005 C1008 1.365 . S
C1005 N1010 1.328 . S
C1005 H1011 0.929 . S
C1006 C1007 1.362 . S
C1006 C1009 1.378 . S
C1006 H1021 0.929 . S
C1007 C1006 1.362 . S
C1007 C1008 1.366 . S
C1008 C1005 1.365 . S
C1008 C1007 1.366 . S
C1008 H1022 0.930 . S
C1009 C1006 1.378 . S
C1009 N1010 1.315 . S
C1009 H1012 0.930 . S
N1010 Co990 2.194 . S
N1010 C1005 1.328 . S
N1010 C1009 1.315 . S
H1011 C1005 0.929 . S
H1012 C1009 0.930 . S
H1013 C1001 0.929 . S
H1014 C1003 0.929 . S
O1015 Co990 2.351 . S
O1015 C1018 1.244 . S
O1016 Co990 2.155 . S
O1016 C1018 1.240 . S
O1017 Co990 2.096 . S
O1017 C998 1.247 . S
C1018 O1015 1.244 . S
C1018 O1016 1.240 . S
H1019 C993 0.931 . S
H1020 C1002 0.931 . S
H1021 C1006 0.929 . S
H1022 C1008 0.930 . S
Co1023 N1027 2.148 . S
Co1023 N1033 2.128 . S
Co1023 N1043 2.194 . S
Co1023 O1048 2.351 . S
Co1023 O1049 2.155 . S
Co1023 O1050 2.096 . S
C1024 N1027 1.301 . S
C1024 N1028 1.328 . S
C1024 H1029 0.930 . S
C1025 C1026 1.333 . S
C1025 N1027 1.317 . S
C1025 H1030 0.930 . S
C1026 C1025 1.333 . S
C1026 N1028 1.350 . S
C1026 H1052 0.931 . S
N1027 Co1023 2.148 . S
N1027 C1024 1.301 . S
N1027 C1025 1.317 . S
N1028 C1024 1.328 . S
N1028 C1026 1.350 . S
H1029 C1024 0.930 . S
H1030 C1025 0.930 . S
C1031 O1032 1.224 . S
C1031 O1050 1.247 . S
O1032 C1031 1.224 . S
N1033 Co1023 2.128 . S
N1033 C1034 1.355 . S
N1033 C1036 1.311 . S
C1034 N1033 1.355 . S
C1034 C1035 1.363 . S
C1034 H1046 0.929 . S
C1035 C1034 1.363 . S
C1035 N1037 1.375 . S
C1035 H1053 0.931 . S
C1036 N1033 1.311 . S
C1036 N1037 1.347 . S
C1036 H1047 0.929 . S
N1037 C1035 1.375 . S
N1037 C1036 1.347 . S
C1038 C1041 1.365 . S
C1038 N1043 1.328 . S
C1038 H1044 0.929 . S
C1039 C1040 1.362 . S
C1039 C1042 1.378 . S
C1039 H1054 0.929 . S
C1040 C1039 1.362 . S
C1040 C1041 1.366 . S
C1041 C1038 1.365 . S
C1041 C1040 1.366 . S
C1041 H1055 0.930 . S
C1042 C1039 1.378 . S
C1042 N1043 1.315 . S
C1042 H1045 0.930 . S
N1043 Co1023 2.194 . S
N1043 C1038 1.328 . S
N1043 C1042 1.315 . S
H1044 C1038 0.929 . S
H1045 C1042 0.930 . S
H1046 C1034 0.929 . S
H1047 C1036 0.929 . S
O1048 Co1023 2.351 . S
O1048 C1051 1.244 . S
O1049 Co1023 2.155 . S
O1049 C1051 1.240 . S
O1050 Co1023 2.096 . S
O1050 C1031 1.247 . S
C1051 O1048 1.244 . S
C1051 O1049 1.240 . S
H1052 C1026 0.931 . S
H1053 C1035 0.931 . S
H1054 C1039 0.929 . S
H1055 C1041 0.930 . S
Co1056 N1060 2.148 . S
Co1056 N1066 2.128 . S
Co1056 N1076 2.194 . S
Co1056 O1081 2.351 . S
Co1056 O1082 2.155 . S
Co1056 O1083 2.096 . S
C1057 N1060 1.301 . S
C1057 N1061 1.328 . S
C1057 H1062 0.930 . S
C1058 C1059 1.333 . S
C1058 N1060 1.317 . S
C1058 H1063 0.930 . S
C1059 C1058 1.333 . S
C1059 N1061 1.350 . S
C1059 H1085 0.931 . S
N1060 Co1056 2.148 . S
N1060 C1057 1.301 . S
N1060 C1058 1.317 . S
N1061 C1057 1.328 . S
N1061 C1059 1.350 . S
H1062 C1057 0.930 . S
H1063 C1058 0.930 . S
C1064 O1065 1.224 . S
C1064 O1083 1.247 . S
O1065 C1064 1.224 . S
N1066 Co1056 2.128 . S
N1066 C1067 1.355 . S
N1066 C1069 1.311 . S
C1067 N1066 1.355 . S
C1067 C1068 1.363 . S
C1067 H1079 0.929 . S
C1068 C1067 1.363 . S
C1068 N1070 1.375 . S
C1068 H1086 0.931 . S
C1069 N1066 1.311 . S
C1069 N1070 1.347 . S
C1069 H1080 0.929 . S
N1070 C1068 1.375 . S
N1070 C1069 1.347 . S
C1071 C1074 1.365 . S
C1071 N1076 1.328 . S
C1071 H1077 0.929 . S
C1072 C1073 1.362 . S
C1072 C1075 1.378 . S
C1072 H1087 0.929 . S
C1073 C1072 1.362 . S
C1073 C1074 1.366 . S
C1074 C1071 1.365 . S
C1074 C1073 1.366 . S
C1074 H1088 0.930 . S
C1075 C1072 1.378 . S
C1075 N1076 1.315 . S
C1075 H1078 0.930 . S
N1076 Co1056 2.194 . S
N1076 C1071 1.328 . S
N1076 C1075 1.315 . S
H1077 C1071 0.929 . S
H1078 C1075 0.930 . S
H1079 C1067 0.929 . S
H1080 C1069 0.929 . S
O1081 Co1056 2.351 . S
O1081 C1084 1.244 . S
O1082 Co1056 2.155 . S
O1082 C1084 1.240 . S
O1083 Co1056 2.096 . S
O1083 C1064 1.247 . S
C1084 O1081 1.244 . S
C1084 O1082 1.240 . S
H1085 C1059 0.931 . S
H1086 C1068 0.931 . S
H1087 C1072 0.929 . S
H1088 C1074 0.930 . S
Co1089 N1093 2.148 . S
Co1089 N1099 2.128 . S
Co1089 N1109 2.194 . S
Co1089 O1114 2.351 . S
Co1089 O1115 2.155 . S
Co1089 O1116 2.096 . S
C1090 N1093 1.301 . S
C1090 N1094 1.328 . S
C1090 H1095 0.930 . S
C1091 C1092 1.333 . S
C1091 N1093 1.317 . S
C1091 H1096 0.930 . S
C1092 C1091 1.333 . S
C1092 N1094 1.350 . S
C1092 H1118 0.931 . S
N1093 Co1089 2.148 . S
N1093 C1090 1.301 . S
N1093 C1091 1.317 . S
N1094 C1090 1.328 . S
N1094 C1092 1.350 . S
H1095 C1090 0.930 . S
H1096 C1091 0.930 . S
C1097 O1098 1.224 . S
C1097 O1116 1.247 . S
O1098 C1097 1.224 . S
N1099 Co1089 2.128 . S
N1099 C1100 1.355 . S
N1099 C1102 1.311 . S
C1100 N1099 1.355 . S
C1100 C1101 1.363 . S
C1100 H1112 0.929 . S
C1101 C1100 1.363 . S
C1101 N1103 1.375 . S
C1101 H1119 0.931 . S
C1102 N1099 1.311 . S
C1102 N1103 1.347 . S
C1102 H1113 0.929 . S
N1103 C1101 1.375 . S
N1103 C1102 1.347 . S
C1104 C1107 1.365 . S
C1104 N1109 1.328 . S
C1104 H1110 0.929 . S
C1105 C1106 1.362 . S
C1105 C1108 1.378 . S
C1105 H1120 0.929 . S
C1106 C1105 1.362 . S
C1106 C1107 1.366 . S
C1107 C1104 1.365 . S
C1107 C1106 1.366 . S
C1107 H1121 0.930 . S
C1108 C1105 1.378 . S
C1108 N1109 1.315 . S
C1108 H1111 0.930 . S
N1109 Co1089 2.194 . S
N1109 C1104 1.328 . S
N1109 C1108 1.315 . S
H1110 C1104 0.929 . S
H1111 C1108 0.930 . S
H1112 C1100 0.929 . S
H1113 C1102 0.929 . S
O1114 Co1089 2.351 . S
O1114 C1117 1.244 . S
O1115 Co1089 2.155 . S
O1115 C1117 1.240 . S
O1116 Co1089 2.096 . S
O1116 C1097 1.247 . S
C1117 O1114 1.244 . S
C1117 O1115 1.240 . S
H1118 C1092 0.931 . S
H1119 C1101 0.931 . S
H1120 C1105 0.929 . S
H1121 C1107 0.930 . S
Co1122 N1126 2.148 . S
Co1122 N1132 2.128 . S
Co1122 N1142 2.194 . S
Co1122 O1147 2.351 . S
Co1122 O1148 2.155 . S
Co1122 O1149 2.096 . S
C1123 N1126 1.301 . S
C1123 N1127 1.328 . S
C1123 H1128 0.930 . S
C1124 C1125 1.333 . S
C1124 N1126 1.317 . S
C1124 H1129 0.930 . S
C1125 C1124 1.333 . S
C1125 N1127 1.350 . S
C1125 H1151 0.931 . S
N1126 Co1122 2.148 . S
N1126 C1123 1.301 . S
N1126 C1124 1.317 . S
N1127 C1123 1.328 . S
N1127 C1125 1.350 . S
H1128 C1123 0.930 . S
H1129 C1124 0.930 . S
C1130 O1131 1.224 . S
C1130 O1149 1.247 . S
O1131 C1130 1.224 . S
N1132 Co1122 2.128 . S
N1132 C1133 1.355 . S
N1132 C1135 1.311 . S
C1133 N1132 1.355 . S
C1133 C1134 1.363 . S
C1133 H1145 0.929 . S
C1134 C1133 1.363 . S
C1134 N1136 1.375 . S
C1134 H1152 0.931 . S
C1135 N1132 1.311 . S
C1135 N1136 1.347 . S
C1135 H1146 0.929 . S
N1136 C1134 1.375 . S
N1136 C1135 1.347 . S
C1137 C1140 1.365 . S
C1137 N1142 1.328 . S
C1137 H1143 0.929 . S
C1138 C1139 1.362 . S
C1138 C1141 1.378 . S
C1138 H1153 0.929 . S
C1139 C1138 1.362 . S
C1139 C1140 1.366 . S
C1140 C1137 1.365 . S
C1140 C1139 1.366 . S
C1140 H1154 0.930 . S
C1141 C1138 1.378 . S
C1141 N1142 1.315 . S
C1141 H1144 0.930 . S
N1142 Co1122 2.194 . S
N1142 C1137 1.328 . S
N1142 C1141 1.315 . S
H1143 C1137 0.929 . S
H1144 C1141 0.930 . S
H1145 C1133 0.929 . S
H1146 C1135 0.929 . S
O1147 Co1122 2.351 . S
O1147 C1150 1.244 . S
O1148 Co1122 2.155 . S
O1148 C1150 1.240 . S
O1149 Co1122 2.096 . S
O1149 C1130 1.247 . S
C1150 O1147 1.244 . S
C1150 O1148 1.240 . S
H1151 C1125 0.931 . S
H1152 C1134 0.931 . S
H1153 C1138 0.929 . S
H1154 C1140 0.930 . S
Co1155 N1159 2.148 . S
Co1155 N1165 2.128 . S
Co1155 N1175 2.194 . S
Co1155 O1180 2.351 . S
Co1155 O1181 2.155 . S
Co1155 O1182 2.096 . S
C1156 N1159 1.301 . S
C1156 N1160 1.328 . S
C1156 H1161 0.930 . S
C1157 C1158 1.333 . S
C1157 N1159 1.317 . S
C1157 H1162 0.930 . S
C1158 C1157 1.333 . S
C1158 N1160 1.350 . S
C1158 H1184 0.931 . S
N1159 Co1155 2.148 . S
N1159 C1156 1.301 . S
N1159 C1157 1.317 . S
N1160 C1156 1.328 . S
N1160 C1158 1.350 . S
H1161 C1156 0.930 . S
H1162 C1157 0.930 . S
C1163 O1164 1.224 . S
C1163 O1182 1.247 . S
O1164 C1163 1.224 . S
N1165 Co1155 2.128 . S
N1165 C1166 1.355 . S
N1165 C1168 1.311 . S
C1166 N1165 1.355 . S
C1166 C1167 1.363 . S
C1166 H1178 0.929 . S
C1167 C1166 1.363 . S
C1167 N1169 1.375 . S
C1167 H1185 0.931 . S
C1168 N1165 1.311 . S
C1168 N1169 1.347 . S
C1168 H1179 0.929 . S
N1169 C1167 1.375 . S
N1169 C1168 1.347 . S
C1170 C1173 1.365 . S
C1170 N1175 1.328 . S
C1170 H1176 0.929 . S
C1171 C1172 1.362 . S
C1171 C1174 1.378 . S
C1171 H1186 0.929 . S
C1172 C1171 1.362 . S
C1172 C1173 1.366 . S
C1173 C1170 1.365 . S
C1173 C1172 1.366 . S
C1173 H1187 0.930 . S
C1174 C1171 1.378 . S
C1174 N1175 1.315 . S
C1174 H1177 0.930 . S
N1175 Co1155 2.194 . S
N1175 C1170 1.328 . S
N1175 C1174 1.315 . S
H1176 C1170 0.929 . S
H1177 C1174 0.930 . S
H1178 C1166 0.929 . S
H1179 C1168 0.929 . S
O1180 Co1155 2.351 . S
O1180 C1183 1.244 . S
O1181 Co1155 2.155 . S
O1181 C1183 1.240 . S
O1182 Co1155 2.096 . S
O1182 C1163 1.247 . S
C1183 O1180 1.244 . S
C1183 O1181 1.240 . S
H1184 C1158 0.931 . S
H1185 C1167 0.931 . S
H1186 C1171 0.929 . S
H1187 C1173 0.930 . S
C1188 C1189 1.391 . S
C1188 C1190 1.394 . S
C1188 H1204 0.931 . S
C1189 C1188 1.391 . S
C1189 C1193 1.376 . S
C1190 C1188 1.394 . S
C1190 C1191 1.369 . S
C1190 C1194 1.531 . S
C1191 C1190 1.369 . S
C1191 C1192 1.410 . S
C1191 C1199 1.503 . S
C1192 C1191 1.410 . S
C1192 C1193 1.392 . S
C1192 C1195 1.511 . S
C1193 C1189 1.376 . S
C1193 C1192 1.392 . S
C1193 H1205 0.929 . S
C1194 C1190 1.531 . S
C1194 H1206 0.960 . S
C1194 H1207 0.962 . S
C1194 H1208 0.960 . S
C1195 C1192 1.511 . S
C1195 H1209 0.961 . S
C1195 H1210 0.961 . S
C1195 H1211 0.961 . S
C1196 C1197 1.370 . S
C1196 C1198 1.363 . S
C1196 H1212 0.931 . S
C1197 C1196 1.370 . S
C1197 C1201 1.408 . S
C1198 C1196 1.363 . S
C1198 C1199 1.370 . S
C1198 C1202 1.524 . S
C1199 C1191 1.503 . S
C1199 C1198 1.370 . S
C1199 C1200 1.403 . S
C1200 C1199 1.403 . S
C1200 C1201 1.404 . S
C1200 C1203 1.539 . S
C1201 C1197 1.408 . S
C1201 C1200 1.404 . S
C1201 H1213 0.930 . S
C1202 C1198 1.524 . S
C1202 H1214 0.956 . S
C1202 H1215 0.961 . S
C1202 H1216 0.961 . S
C1203 C1200 1.539 . S
C1203 H1217 0.958 . S
C1203 H1218 0.961 . S
C1203 H1219 0.960 . S
H1204 C1188 0.931 . S
H1205 C1193 0.929 . S
H1206 C1194 0.960 . S
H1207 C1194 0.962 . S
H1208 C1194 0.960 . S
H1209 C1195 0.961 . S
H1210 C1195 0.961 . S
H1211 C1195 0.961 . S
H1212 C1196 0.931 . S
H1213 C1201 0.930 . S
H1214 C1202 0.956 . S
H1215 C1202 0.961 . S
H1216 C1202 0.961 . S
H1217 C1203 0.958 . S
H1218 C1203 0.961 . S
H1219 C1203 0.960 . S
C1220 C1221 1.391 . S
C1220 C1222 1.394 . S
C1220 H1236 0.931 . S
C1221 C1220 1.391 . S
C1221 C1225 1.376 . S
C1222 C1220 1.394 . S
C1222 C1223 1.369 . S
C1222 C1226 1.531 . S
C1223 C1222 1.369 . S
C1223 C1224 1.410 . S
C1223 C1231 1.503 1_565 S
C1224 C1223 1.410 . S
C1224 C1225 1.392 . S
C1224 C1227 1.511 1_565 S
C1225 C1221 1.376 . S
C1225 C1224 1.392 . S
C1225 H1237 0.929 . S
C1226 C1222 1.531 . S
C1226 H1238 0.960 1_565 S
C1226 H1239 0.962 . S
C1226 H1240 0.960 . S
C1227 C1224 1.511 1_545 S
C1227 H1241 0.961 1_545 S
C1227 H1242 0.961 . S
C1227 H1243 0.961 . S
C1228 C1229 1.370 . S
C1228 C1230 1.363 . S
C1228 H1244 0.931 . S
C1229 C1228 1.370 . S
C1229 C1233 1.408 . S
C1230 C1228 1.363 . S
C1230 C1231 1.370 . S
C1230 C1234 1.524 . S
C1231 C1223 1.503 1_545 S
C1231 C1230 1.370 . S
C1231 C1232 1.403 . S
C1232 C1231 1.403 . S
C1232 C1233 1.404 . S
C1232 C1235 1.539 . S
C1233 C1229 1.408 . S
C1233 C1232 1.404 . S
C1233 H1245 0.930 . S
C1234 C1230 1.524 . S
C1234 H1246 0.956 . S
C1234 H1247 0.961 . S
C1234 H1248 0.961 . S
C1235 C1232 1.539 . S
C1235 H1249 0.958 . S
C1235 H1250 0.961 . S
C1235 H1251 0.960 . S
H1236 C1220 0.931 . S
H1237 C1225 0.929 . S
H1238 C1226 0.960 1_545 S
H1239 C1226 0.962 . S
H1240 C1226 0.960 . S
H1241 C1227 0.961 1_565 S
H1242 C1227 0.961 . S
H1243 C1227 0.961 . S
H1244 C1228 0.931 . S
H1245 C1233 0.930 . S
H1246 C1234 0.956 . S
H1247 C1234 0.961 . S
H1248 C1234 0.961 . S
H1249 C1235 0.958 . S
H1250 C1235 0.961 . S
H1251 C1235 0.960 . S
C1252 C1253 1.391 . S
C1252 C1254 1.394 . S
C1252 H1268 0.931 . S
C1253 C1252 1.391 . S
C1253 C1257 1.376 . S
C1254 C1252 1.394 . S
C1254 C1255 1.369 . S
C1254 C1258 1.531 . S
C1255 C1254 1.369 . S
C1255 C1256 1.410 . S
C1255 C1263 1.503 1_455 S
C1256 C1255 1.410 . S
C1256 C1257 1.392 . S
C1256 C1259 1.511 . S
C1257 C1253 1.376 . S
C1257 C1256 1.392 . S
C1257 H1269 0.929 . S
C1258 C1254 1.531 . S
C1258 H1270 0.960 1_455 S
C1258 H1271 0.962 . S
C1258 H1272 0.960 . S
C1259 C1256 1.511 . S
C1259 H1273 0.961 . S
C1259 H1274 0.961 1_455 S
C1259 H1275 0.961 1_455 S
C1260 C1261 1.370 . S
C1260 C1262 1.363 . S
C1260 H1276 0.931 . S
C1261 C1260 1.370 . S
C1261 C1265 1.408 . S
C1262 C1260 1.363 . S
C1262 C1263 1.370 . S
C1262 C1266 1.524 . S
C1263 C1255 1.503 1_655 S
C1263 C1262 1.370 . S
C1263 C1264 1.403 . S
C1264 C1263 1.403 . S
C1264 C1265 1.404 . S
C1264 C1267 1.539 . S
C1265 C1261 1.408 . S
C1265 C1264 1.404 . S
C1265 H1277 0.930 . S
C1266 C1262 1.524 . S
C1266 H1278 0.956 . S
C1266 H1279 0.961 . S
C1266 H1280 0.961 . S
C1267 C1264 1.539 . S
C1267 H1281 0.958 . S
C1267 H1282 0.961 . S
C1267 H1283 0.960 . S
H1268 C1252 0.931 . S
H1269 C1257 0.929 . S
H1270 C1258 0.960 1_655 S
H1271 C1258 0.962 . S
H1272 C1258 0.960 . S
H1273 C1259 0.961 . S
H1274 C1259 0.961 1_655 S
H1275 C1259 0.961 1_655 S
H1276 C1260 0.931 . S
H1277 C1265 0.930 . S
H1278 C1266 0.956 . S
H1279 C1266 0.961 . S
H1280 C1266 0.961 . S
H1281 C1267 0.958 . S
H1282 C1267 0.961 . S
H1283 C1267 0.960 . S
C1284 C1285 1.391 . S
C1284 C1286 1.394 . S
C1284 H1300 0.931 . S
C1285 C1284 1.391 . S
C1285 C1289 1.376 . S
C1286 C1284 1.394 . S
C1286 C1287 1.369 . S
C1286 C1290 1.531 . S
C1287 C1286 1.369 . S
C1287 C1288 1.410 . S
C1287 C1295 1.503 . S
C1288 C1287 1.410 . S
C1288 C1289 1.392 . S
C1288 C1291 1.511 . S
C1289 C1285 1.376 . S
C1289 C1288 1.392 . S
C1289 H1301 0.929 . S
C1290 C1286 1.531 . S
C1290 H1302 0.960 . S
C1290 H1303 0.962 . S
C1290 H1304 0.960 . S
C1291 C1288 1.511 . S
C1291 H1305 0.961 . S
C1291 H1306 0.961 . S
C1291 H1307 0.961 . S
C1292 C1293 1.370 . S
C1292 C1294 1.363 . S
C1292 H1308 0.931 . S
C1293 C1292 1.370 . S
C1293 C1297 1.408 . S
C1294 C1292 1.363 . S
C1294 C1295 1.370 . S
C1294 C1298 1.524 . S
C1295 C1287 1.503 . S
C1295 C1294 1.370 . S
C1295 C1296 1.403 . S
C1296 C1295 1.403 . S
C1296 C1297 1.404 . S
C1296 C1299 1.539 . S
C1297 C1293 1.408 . S
C1297 C1296 1.404 . S
C1297 H1309 0.930 . S
C1298 C1294 1.524 . S
C1298 H1310 0.956 . S
C1298 H1311 0.961 . S
C1298 H1312 0.961 . S
C1299 C1296 1.539 . S
C1299 H1313 0.958 . S
C1299 H1314 0.961 . S
C1299 H1315 0.960 . S
H1300 C1284 0.931 . S
H1301 C1289 0.929 . S
H1302 C1290 0.960 . S
H1303 C1290 0.962 . S
H1304 C1290 0.960 . S
H1305 C1291 0.961 . S
H1306 C1291 0.961 . S
H1307 C1291 0.961 . S
H1308 C1292 0.931 . S
H1309 C1297 0.930 . S
H1310 C1298 0.956 . S
H1311 C1298 0.961 . S
H1312 C1298 0.961 . S
H1313 C1299 0.958 . S
H1314 C1299 0.961 . S
H1315 C1299 0.960 . S
C1316 C1317 1.391 . S
C1316 C1318 1.394 . S
C1316 H1332 0.931 . S
C1317 C1316 1.391 . S
C1317 C1321 1.376 . S
C1318 C1316 1.394 . S
C1318 C1319 1.369 . S
C1318 C1322 1.531 1_545 S
C1319 C1318 1.369 . S
C1319 C1320 1.410 . S
C1319 C1327 1.503 1_545 S
C1320 C1319 1.410 . S
C1320 C1321 1.392 . S
C1320 C1323 1.511 . S
C1321 C1317 1.376 . S
C1321 C1320 1.392 . S
C1321 H1333 0.929 . S
C1322 C1318 1.531 1_565 S
C1322 H1334 0.960 . S
C1322 H1335 0.962 . S
C1322 H1336 0.960 1_565 S
C1323 C1320 1.511 . S
C1323 H1337 0.961 . S
C1323 H1338 0.961 1_545 S
C1323 H1339 0.961 . S
C1324 C1325 1.370 . S
C1324 C1326 1.363 . S
C1324 H1340 0.931 . S
C1325 C1324 1.370 . S
C1325 C1329 1.408 . S
C1326 C1324 1.363 . S
C1326 C1327 1.370 . S
C1326 C1330 1.524 . S
C1327 C1319 1.503 1_565 S
C1327 C1326 1.370 . S
C1327 C1328 1.403 . S
C1328 C1327 1.403 . S
C1328 C1329 1.404 . S
C1328 C1331 1.539 . S
C1329 C1325 1.408 . S
C1329 C1328 1.404 . S
C1329 H1341 0.930 . S
C1330 C1326 1.524 . S
C1330 H1342 0.956 . S
C1330 H1343 0.961 . S
C1330 H1344 0.961 . S
C1331 C1328 1.539 . S
C1331 H1345 0.958 . S
C1331 H1346 0.961 . S
C1331 H1347 0.960 . S
H1332 C1316 0.931 . S
H1333 C1321 0.929 . S
H1334 C1322 0.960 . S
H1335 C1322 0.962 . S
H1336 C1322 0.960 1_545 S
H1337 C1323 0.961 . S
H1338 C1323 0.961 1_565 S
H1339 C1323 0.961 . S
H1340 C1324 0.931 . S
H1341 C1329 0.930 . S
H1342 C1330 0.956 . S
H1343 C1330 0.961 . S
H1344 C1330 0.961 . S
H1345 C1331 0.958 . S
H1346 C1331 0.961 . S
H1347 C1331 0.960 . S
C1348 C1349 1.391 . S
C1348 C1350 1.394 . S
C1348 H1364 0.931 . S
C1349 C1348 1.391 . S
C1349 C1353 1.376 . S
C1350 C1348 1.394 . S
C1350 C1351 1.369 . S
C1350 C1354 1.531 . S
C1351 C1350 1.369 . S
C1351 C1352 1.410 . S
C1351 C1359 1.503 1_655 S
C1352 C1351 1.410 . S
C1352 C1353 1.392 . S
C1352 C1355 1.544 . S
C1353 C1349 1.376 . S
C1353 C1352 1.392 . S
C1353 H1365 0.929 . S
C1354 C1350 1.531 . S
C1354 H1366 0.960 1_655 S
C1354 H1367 0.962 . S
C1354 H1368 0.960 . S
C1355 C1352 1.544 . S
C1355 H1369 0.961 . S
C1355 H1370 0.934 1_655 S
C1355 H1371 0.956 1_655 S
C1356 C1357 1.370 . S
C1356 C1358 1.363 . S
C1356 H1372 0.931 . S
C1357 C1356 1.370 . S
C1357 C1361 1.408 . S
C1358 C1356 1.363 . S
C1358 C1359 1.370 . S
C1358 C1362 1.524 . S
C1359 C1351 1.503 1_455 S
C1359 C1358 1.370 . S
C1359 C1360 1.403 . S
C1360 C1359 1.403 . S
C1360 C1361 1.404 . S
C1360 C1363 1.539 . S
C1361 C1357 1.408 . S
C1361 C1360 1.404 . S
C1361 H1373 0.930 . S
C1362 C1358 1.524 . S
C1362 H1374 0.956 . S
C1362 H1375 0.961 . S
C1362 H1376 0.961 . S
C1363 C1360 1.539 . S
C1363 H1377 0.958 . S
C1363 H1378 0.961 . S
C1363 H1379 0.960 . S
H1364 C1348 0.931 . S
H1365 C1353 0.929 . S
H1366 C1354 0.960 1_455 S
H1367 C1354 0.962 . S
H1368 C1354 0.960 . S
H1369 C1355 0.961 . S
H1370 C1355 0.934 1_455 S
H1371 C1355 0.956 1_455 S
H1372 C1356 0.931 . S
H1373 C1361 0.930 . S
H1374 C1362 0.956 . S
H1375 C1362 0.961 . S
H1376 C1362 0.961 . S
H1377 C1363 0.958 . S
H1378 C1363 0.961 . S
H1379 C1363 0.960 . S
C1380 C1381 1.391 . S
C1380 C1382 1.394 . S
C1380 H1396 0.931 . S
C1381 C1380 1.391 . S
C1381 C1385 1.376 . S
C1382 C1380 1.394 . S
C1382 C1383 1.369 . S
C1382 C1386 1.531 . S
C1383 C1382 1.369 . S
C1383 C1384 1.410 . S
C1383 C1391 1.503 . S
C1384 C1383 1.410 . S
C1384 C1385 1.392 . S
C1384 C1387 1.511 . S
C1385 C1381 1.376 . S
C1385 C1384 1.392 . S
C1385 H1397 0.929 . S
C1386 C1382 1.531 . S
C1386 H1398 0.960 . S
C1386 H1399 0.962 . S
C1386 H1400 0.960 . S
C1387 C1384 1.511 . S
C1387 H1401 0.961 . S
C1387 H1402 0.961 . S
C1387 H1403 0.961 . S
C1388 C1389 1.370 . S
C1388 C1390 1.363 . S
C1388 H1404 0.931 . S
C1389 C1388 1.370 . S
C1389 C1393 1.408 . S
C1390 C1388 1.363 . S
C1390 C1391 1.370 . S
C1390 C1394 1.524 . S
C1391 C1383 1.503 . S
C1391 C1390 1.370 . S
C1391 C1392 1.403 . S
C1392 C1391 1.403 . S
C1392 C1393 1.404 . S
C1392 C1395 1.539 . S
C1393 C1389 1.408 . S
C1393 C1392 1.404 . S
C1393 H1405 0.930 . S
C1394 C1390 1.524 . S
C1394 H1406 0.956 . S
C1394 H1407 0.961 . S
C1394 H1408 0.961 . S
C1395 C1392 1.539 . S
C1395 H1409 0.958 . S
C1395 H1410 0.961 . S
C1395 H1411 0.960 . S
H1396 C1380 0.931 . S
H1397 C1385 0.929 . S
H1398 C1386 0.960 . S
H1399 C1386 0.962 . S
H1400 C1386 0.960 . S
H1401 C1387 0.961 . S
H1402 C1387 0.961 . S
H1403 C1387 0.961 . S
H1404 C1388 0.931 . S
H1405 C1393 0.930 . S
H1406 C1394 0.956 . S
H1407 C1394 0.961 . S
H1408 C1394 0.961 . S
H1409 C1395 0.958 . S
H1410 C1395 0.961 . S
H1411 C1395 0.960 . S
C1412 C1413 1.391 . S
C1412 C1414 1.394 . S
C1412 H1428 0.931 . S
C1413 C1412 1.391 . S
C1413 C1417 1.376 . S
C1414 C1412 1.394 . S
C1414 C1415 1.369 . S
C1414 C1418 1.531 . S
C1415 C1414 1.369 . S
C1415 C1416 1.410 . S
C1415 C1423 1.503 1_565 S
C1416 C1415 1.410 . S
C1416 C1417 1.392 . S
C1416 C1419 1.511 . S
C1417 C1413 1.376 . S
C1417 C1416 1.392 . S
C1417 H1429 0.929 . S
C1418 C1414 1.531 . S
C1418 H1430 0.987 . S
C1418 H1431 0.962 . S
C1418 H1432 0.960 . S
C1419 C1416 1.511 . S
C1419 H1433 0.961 . S
C1419 H1434 0.961 . S
C1419 H1435 0.961 . S
C1420 C1421 1.370 . S
C1420 C1422 1.363 . S
C1420 H1436 0.931 . S
C1421 C1420 1.370 . S
C1421 C1425 1.408 . S
C1422 C1420 1.363 . S
C1422 C1423 1.370 . S
C1422 C1426 1.524 1_545 S
C1423 C1415 1.503 1_545 S
C1423 C1422 1.370 . S
C1423 C1424 1.403 . S
C1424 C1423 1.403 . S
C1424 C1425 1.404 . S
C1424 C1427 1.539 . S
C1425 C1421 1.408 . S
C1425 C1424 1.404 . S
C1425 H1437 0.930 . S
C1426 C1422 1.524 1_565 S
C1426 H1438 0.956 . S
C1426 H1439 0.961 . S
C1426 H1440 0.961 1_565 S
C1427 C1424 1.539 . S
C1427 H1441 0.958 . S
C1427 H1442 0.961 . S
C1427 H1443 0.960 1_545 S
H1428 C1412 0.931 . S
H1429 C1417 0.929 . S
H1430 C1418 0.987 . S
H1431 C1418 0.962 . S
H1432 C1418 0.960 . S
H1433 C1419 0.961 . S
H1434 C1419 0.961 . S
H1435 C1419 0.961 . S
H1436 C1420 0.931 . S
H1437 C1425 0.930 . S
H1438 C1426 0.956 . S
H1439 C1426 0.961 . S
H1440 C1426 0.961 1_545 S
H1441 C1427 0.958 . S
H1442 C1427 0.961 . S
H1443 C1427 0.960 1_565 S
C1444 C1445 1.391 . S
C1444 C1446 1.394 . S
C1444 H1460 0.931 . S
C1445 C1444 1.391 . S
C1445 C1449 1.376 . S
C1446 C1444 1.394 . S
C1446 C1447 1.369 . S
C1446 C1450 1.531 . S
C1447 C1446 1.369 . S
C1447 C1448 1.410 . S
C1447 C1455 1.503 1_455 S
C1448 C1447 1.410 . S
C1448 C1449 1.392 . S
C1448 C1451 1.511 . S
C1449 C1445 1.376 . S
C1449 C1448 1.392 . S
C1449 H1461 0.929 . S
C1450 C1446 1.531 . S
C1450 H1462 0.962 1_455 S
C1450 H1463 0.962 . S
C1450 H1464 0.960 . S
C1451 C1448 1.511 . S
C1451 H1465 0.961 . S
C1451 H1466 0.961 . S
C1451 H1467 0.961 . S
C1452 C1453 1.370 . S
C1452 C1454 1.363 . S
C1452 H1468 0.931 . S
C1453 C1452 1.370 . S
C1453 C1457 1.408 . S
C1454 C1452 1.363 . S
C1454 C1455 1.370 . S
C1454 C1458 1.524 1_655 S
C1455 C1447 1.503 1_655 S
C1455 C1454 1.370 . S
C1455 C1456 1.403 . S
C1456 C1455 1.403 . S
C1456 C1457 1.404 . S
C1456 C1459 1.539 . S
C1457 C1453 1.408 . S
C1457 C1456 1.404 . S
C1457 H1469 0.930 . S
C1458 C1454 1.524 1_455 S
C1458 H1470 0.956 . S
C1458 H1471 0.961 . S
C1458 H1472 0.961 1_455 S
C1459 C1456 1.539 . S
C1459 H1473 0.958 . S
C1459 H1474 0.961 . S
C1459 H1475 0.960 1_655 S
H1460 C1444 0.931 . S
H1461 C1449 0.929 . S
H1462 C1450 0.962 1_655 S
H1463 C1450 0.962 . S
H1464 C1450 0.960 . S
H1465 C1451 0.961 . S
H1466 C1451 0.961 . S
H1467 C1451 0.961 . S
H1468 C1452 0.931 . S
H1469 C1457 0.930 . S
H1470 C1458 0.956 . S
H1471 C1458 0.961 . S
H1472 C1458 0.961 1_655 S
H1473 C1459 0.958 . S
H1474 C1459 0.961 . S
H1475 C1459 0.960 1_455 S
C1476 C1477 1.391 . S
C1476 C1478 1.394 . S
C1476 H1492 0.931 . S
C1477 C1476 1.391 . S
C1477 C1481 1.376 . S
C1478 C1476 1.394 . S
C1478 C1479 1.369 . S
C1478 C1482 1.531 . S
C1479 C1478 1.369 . S
C1479 C1480 1.410 . S
C1479 C1487 1.503 . S
C1480 C1479 1.410 . S
C1480 C1481 1.392 . S
C1480 C1483 1.511 . S
C1481 C1477 1.376 . S
C1481 C1480 1.392 . S
C1481 H1493 0.929 . S
C1482 C1478 1.531 . S
C1482 H1494 0.960 . S
C1482 H1495 0.962 . S
C1482 H1496 0.960 . S
C1483 C1480 1.511 . S
C1483 H1497 0.961 . S
C1483 H1498 0.961 . S
C1483 H1499 0.961 . S
C1484 C1485 1.370 . S
C1484 C1486 1.363 . S
C1484 H1500 0.931 . S
C1485 C1484 1.370 . S
C1485 C1489 1.408 . S
C1486 C1484 1.363 . S
C1486 C1487 1.370 . S
C1486 C1490 1.524 . S
C1487 C1479 1.503 . S
C1487 C1486 1.370 . S
C1487 C1488 1.403 . S
C1488 C1487 1.403 . S
C1488 C1489 1.404 . S
C1488 C1491 1.539 . S
C1489 C1485 1.408 . S
C1489 C1488 1.404 . S
C1489 H1501 0.930 . S
C1490 C1486 1.524 . S
C1490 H1502 0.956 . S
C1490 H1503 0.961 . S
C1490 H1504 0.961 . S
C1491 C1488 1.539 . S
C1491 H1505 0.958 . S
C1491 H1506 0.961 . S
C1491 H1507 0.960 . S
H1492 C1476 0.931 . S
H1493 C1481 0.929 . S
H1494 C1482 0.960 . S
H1495 C1482 0.962 . S
H1496 C1482 0.960 . S
H1497 C1483 0.961 . S
H1498 C1483 0.961 . S
H1499 C1483 0.961 . S
H1500 C1484 0.931 . S
H1501 C1489 0.930 . S
H1502 C1490 0.956 . S
H1503 C1490 0.961 . S
H1504 C1490 0.961 . S
H1505 C1491 0.958 . S
H1506 C1491 0.961 . S
H1507 C1491 0.960 . S
C1508 C1509 1.391 . S
C1508 C1510 1.394 . S
C1508 H1524 0.931 . S
C1509 C1508 1.391 . S
C1509 C1513 1.376 . S
C1510 C1508 1.394 . S
C1510 C1511 1.369 . S
C1510 C1514 1.531 . S
C1511 C1510 1.369 . S
C1511 C1512 1.410 . S
C1511 C1519 1.503 1_565 S
C1512 C1511 1.410 . S
C1512 C1513 1.392 . S
C1512 C1515 1.511 . S
C1513 C1509 1.376 . S
C1513 C1512 1.392 . S
C1513 H1525 0.929 . S
C1514 C1510 1.531 . S
C1514 H1526 0.960 1_565 S
C1514 H1527 0.967 1_565 S
C1514 H1528 0.960 . S
C1515 C1512 1.511 . S
C1515 H1529 0.961 . S
C1515 H1530 0.961 1_565 S
C1515 H1531 0.961 . S
C1516 C1517 1.370 . S
C1516 C1518 1.363 . S
C1516 H1532 0.931 . S
C1517 C1516 1.370 . S
C1517 C1521 1.408 . S
C1518 C1516 1.363 . S
C1518 C1519 1.370 . S
C1518 C1522 1.524 . S
C1519 C1511 1.503 1_545 S
C1519 C1518 1.370 . S
C1519 C1520 1.403 . S
C1520 C1519 1.403 . S
C1520 C1521 1.404 . S
C1520 C1523 1.539 . S
C1521 C1517 1.408 . S
C1521 C1520 1.404 . S
C1521 H1533 0.930 . S
C1522 C1518 1.524 . S
C1522 H1534 0.956 . S
C1522 H1535 0.961 . S
C1522 H1536 0.961 . S
C1523 C1520 1.539 . S
C1523 H1537 0.958 . S
C1523 H1538 0.961 . S
C1523 H1539 0.960 . S
H1524 C1508 0.931 . S
H1525 C1513 0.929 . S
H1526 C1514 0.960 1_545 S
H1527 C1514 0.967 1_545 S
H1528 C1514 0.960 . S
H1529 C1515 0.961 . S
H1530 C1515 0.961 1_545 S
H1531 C1515 0.961 . S
H1532 C1516 0.931 . S
H1533 C1521 0.930 . S
H1534 C1522 0.956 . S
H1535 C1522 0.961 . S
H1536 C1522 0.961 . S
H1537 C1523 0.958 . S
H1538 C1523 0.961 . S
H1539 C1523 0.960 . S
C1540 C1541 1.391 . S
C1540 C1542 1.394 . S
C1540 H1556 0.931 . S
C1541 C1540 1.391 . S
C1541 C1545 1.376 . S
C1542 C1540 1.394 . S
C1542 C1543 1.369 . S
C1542 C1546 1.531 . S
C1543 C1542 1.369 . S
C1543 C1544 1.410 . S
C1543 C1551 1.503 1_655 S
C1544 C1543 1.410 . S
C1544 C1545 1.392 . S
C1544 C1547 1.511 . S
C1545 C1541 1.376 . S
C1545 C1544 1.392 . S
C1545 H1557 0.929 . S
C1546 C1542 1.531 . S
C1546 H1558 0.985 . S
C1546 H1559 0.962 . S
C1546 H1560 0.960 . S
C1547 C1544 1.511 . S
C1547 H1561 0.961 . S
C1547 H1562 0.961 . S
C1547 H1563 0.961 . S
C1548 C1549 1.370 . S
C1548 C1550 1.363 . S
C1548 H1564 0.931 . S
C1549 C1548 1.370 . S
C1549 C1553 1.408 . S
C1550 C1548 1.363 . S
C1550 C1551 1.370 . S
C1550 C1554 1.524 1_455 S
C1551 C1543 1.503 1_455 S
C1551 C1550 1.370 . S
C1551 C1552 1.403 . S
C1552 C1551 1.403 . S
C1552 C1553 1.404 . S
C1552 C1555 1.539 . S
C1553 C1549 1.408 . S
C1553 C1552 1.404 . S
C1553 H1565 0.930 . S
C1554 C1550 1.524 1_655 S
C1554 H1566 0.956 . S
C1554 H1567 0.961 . S
C1554 H1568 0.961 1_655 S
C1555 C1552 1.539 . S
C1555 H1569 0.958 . S
C1555 H1570 0.961 . S
C1555 H1571 0.960 1_455 S
H1556 C1540 0.931 . S
H1557 C1545 0.929 . S
H1558 C1546 0.985 . S
H1559 C1546 0.962 . S
H1560 C1546 0.960 . S
H1561 C1547 0.961 . S
H1562 C1547 0.961 . S
H1563 C1547 0.961 . S
H1564 C1548 0.931 . S
H1565 C1553 0.930 . S
H1566 C1554 0.956 . S
H1567 C1554 0.961 . S
H1568 C1554 0.961 1_455 S
H1569 C1555 0.958 . S
H1570 C1555 0.961 . S
H1571 C1555 0.960 1_655 S
C1572 C1573 1.391 . S
C1572 C1574 1.394 . S
C1572 H1588 0.931 . S
C1573 C1572 1.391 . S
C1573 C1577 1.376 . S
C1574 C1572 1.394 . S
C1574 C1575 1.369 . S
C1574 C1578 1.531 . S
C1575 C1574 1.369 . S
C1575 C1576 1.410 . S
C1575 C1583 1.503 . S
C1576 C1575 1.410 . S
C1576 C1577 1.392 . S
C1576 C1579 1.511 . S
C1577 C1573 1.376 . S
C1577 C1576 1.392 . S
C1577 H1589 0.929 . S
C1578 C1574 1.531 . S
C1578 H1590 0.960 . S
C1578 H1591 0.962 . S
C1578 H1592 0.960 . S
C1579 C1576 1.511 . S
C1579 H1593 0.961 . S
C1579 H1594 0.961 . S
C1579 H1595 0.961 . S
C1580 C1581 1.370 . S
C1580 C1582 1.363 . S
C1580 H1596 0.931 . S
C1581 C1580 1.370 . S
C1581 C1585 1.408 . S
C1582 C1580 1.363 . S
C1582 C1583 1.370 . S
C1582 C1586 1.524 . S
C1583 C1575 1.503 . S
C1583 C1582 1.370 . S
C1583 C1584 1.403 . S
C1584 C1583 1.403 . S
C1584 C1585 1.404 . S
C1584 C1587 1.539 . S
C1585 C1581 1.408 . S
C1585 C1584 1.404 . S
C1585 H1597 0.930 . S
C1586 C1582 1.524 . S
C1586 H1598 0.956 . S
C1586 H1599 0.961 . S
C1586 H1600 0.961 . S
C1587 C1584 1.539 . S
C1587 H1601 0.958 . S
C1587 H1602 0.961 . S
C1587 H1603 0.960 . S
H1588 C1572 0.931 . S
H1589 C1577 0.929 . S
H1590 C1578 0.960 . S
H1591 C1578 0.962 . S
H1592 C1578 0.960 . S
H1593 C1579 0.961 . S
H1594 C1579 0.961 . S
H1595 C1579 0.961 . S
H1596 C1580 0.931 . S
H1597 C1585 0.930 . S
H1598 C1586 0.956 . S
H1599 C1586 0.961 . S
H1600 C1586 0.961 . S
H1601 C1587 0.958 . S
H1602 C1587 0.961 . S
H1603 C1587 0.960 . S
C1604 C1605 1.391 . S
C1604 C1606 1.394 . S
C1604 H1620 0.931 . S
C1605 C1604 1.391 . S
C1605 C1609 1.376 . S
C1606 C1604 1.394 . S
C1606 C1607 1.369 . S
C1606 C1610 1.531 . S
C1607 C1606 1.369 . S
C1607 C1608 1.410 . S
C1607 C1615 1.503 . S
C1608 C1607 1.410 . S
C1608 C1609 1.392 . S
C1608 C1611 1.511 . S
C1609 C1605 1.376 . S
C1609 C1608 1.392 . S
C1609 H1621 0.929 . S
C1610 C1606 1.531 . S
C1610 H1622 0.960 . S
C1610 H1623 0.962 . S
C1610 H1624 0.960 . S
C1611 C1608 1.511 . S
C1611 H1625 0.961 . S
C1611 H1626 0.961 . S
C1611 H1627 0.961 . S
C1612 C1613 1.370 . S
C1612 C1614 1.363 . S
C1612 H1628 0.931 . S
C1613 C1612 1.370 . S
C1613 C1617 1.408 . S
C1614 C1612 1.363 . S
C1614 C1615 1.370 . S
C1614 C1618 1.524 . S
C1615 C1607 1.503 . S
C1615 C1614 1.370 . S
C1615 C1616 1.403 . S
C1616 C1615 1.403 . S
C1616 C1617 1.404 . S
C1616 C1619 1.539 . S
C1617 C1613 1.408 . S
C1617 C1616 1.404 . S
C1617 H1629 0.930 . S
C1618 C1614 1.524 . S
C1618 H1630 0.956 . S
C1618 H1631 0.961 . S
C1618 H1632 0.961 . S
C1619 C1616 1.539 . S
C1619 H1633 0.958 . S
C1619 H1634 0.961 . S
C1619 H1635 0.960 . S
H1620 C1604 0.931 . S
H1621 C1609 0.929 . S
H1622 C1610 0.960 . S
H1623 C1610 0.962 . S
H1624 C1610 0.960 . S
H1625 C1611 0.961 . S
H1626 C1611 0.961 . S
H1627 C1611 0.961 . S
H1628 C1612 0.931 . S
H1629 C1617 0.930 . S
H1630 C1618 0.956 . S
H1631 C1618 0.961 . S
H1632 C1618 0.961 . S
H1633 C1619 0.958 . S
H1634 C1619 0.961 . S
H1635 C1619 0.960 . S
C1636 C1637 1.391 . S
C1636 C1638 1.394 . S
C1636 H1652 0.931 . S
C1637 C1636 1.391 . S
C1637 C1641 1.376 . S
C1638 C1636 1.394 . S
C1638 C1639 1.369 . S
C1638 C1642 1.531 . S
C1639 C1638 1.369 . S
C1639 C1640 1.410 . S
C1639 C1647 1.503 . S
C1640 C1639 1.410 . S
C1640 C1641 1.392 . S
C1640 C1643 1.511 . S
C1641 C1637 1.376 . S
C1641 C1640 1.392 . S
C1641 H1653 0.929 . S
C1642 C1638 1.531 . S
C1642 H1654 0.960 . S
C1642 H1655 0.962 . S
C1642 H1656 0.960 . S
C1643 C1640 1.511 . S
C1643 H1657 0.961 . S
C1643 H1658 0.961 . S
C1643 H1659 0.961 . S
C1644 C1645 1.370 . S
C1644 C1646 1.363 . S
C1644 H1660 0.931 . S
C1645 C1644 1.370 . S
C1645 C1649 1.408 . S
C1646 C1644 1.363 . S
C1646 C1647 1.370 . S
C1646 C1650 1.524 . S
C1647 C1639 1.503 . S
C1647 C1646 1.370 . S
C1647 C1648 1.403 . S
C1648 C1647 1.403 . S
C1648 C1649 1.404 . S
C1648 C1651 1.539 . S
C1649 C1645 1.408 . S
C1649 C1648 1.404 . S
C1649 H1661 0.930 . S
C1650 C1646 1.524 . S
C1650 H1662 0.956 . S
C1650 H1663 0.961 . S
C1650 H1664 0.961 . S
C1651 C1648 1.539 . S
C1651 H1665 0.958 . S
C1651 H1666 0.961 . S
C1651 H1667 0.960 . S
H1652 C1636 0.931 . S
H1653 C1641 0.929 . S
H1654 C1642 0.960 . S
H1655 C1642 0.962 . S
H1656 C1642 0.960 . S
H1657 C1643 0.961 . S
H1658 C1643 0.961 . S
H1659 C1643 0.961 . S
H1660 C1644 0.931 . S
H1661 C1649 0.930 . S
H1662 C1650 0.956 . S
H1663 C1650 0.961 . S
H1664 C1650 0.961 . S
H1665 C1651 0.958 . S
H1666 C1651 0.961 . S
H1667 C1651 0.960 . S
C1668 C1669 1.391 . S
C1668 C1670 1.394 . S
C1668 H1684 0.931 . S
C1669 C1668 1.391 . S
C1669 C1673 1.376 . S
C1670 C1668 1.394 . S
C1670 C1671 1.369 . S
C1670 C1674 1.531 . S
C1671 C1670 1.369 . S
C1671 C1672 1.410 . S
C1671 C1679 1.503 . S
C1672 C1671 1.410 . S
C1672 C1673 1.392 . S
C1672 C1675 1.511 . S
C1673 C1669 1.376 . S
C1673 C1672 1.392 . S
C1673 H1685 0.929 . S
C1674 C1670 1.531 . S
C1674 H1686 0.960 . S
C1674 H1687 0.962 . S
C1674 H1688 0.960 . S
C1675 C1672 1.511 . S
C1675 H1689 0.961 . S
C1675 H1690 0.961 . S
C1675 H1691 0.961 . S
C1676 C1677 1.370 . S
C1676 C1678 1.363 . S
C1676 H1692 0.931 . S
C1677 C1676 1.370 . S
C1677 C1681 1.408 . S
C1678 C1676 1.363 . S
C1678 C1679 1.370 . S
C1678 C1682 1.524 . S
C1679 C1671 1.503 . S
C1679 C1678 1.370 . S
C1679 C1680 1.403 . S
C1680 C1679 1.403 . S
C1680 C1681 1.404 . S
C1680 C1683 1.539 . S
C1681 C1677 1.408 . S
C1681 C1680 1.404 . S
C1681 H1693 0.930 . S
C1682 C1678 1.524 . S
C1682 H1694 0.956 . S
C1682 H1695 0.961 . S
C1682 H1696 0.961 . S
C1683 C1680 1.539 . S
C1683 H1697 0.958 . S
C1683 H1698 0.961 . S
C1683 H1699 0.960 . S
H1684 C1668 0.931 . S
H1685 C1673 0.929 . S
H1686 C1674 0.960 . S
H1687 C1674 0.962 . S
H1688 C1674 0.960 . S
H1689 C1675 0.961 . S
H1690 C1675 0.961 . S
H1691 C1675 0.961 . S
H1692 C1676 0.931 . S
H1693 C1681 0.930 . S
H1694 C1682 0.956 . S
H1695 C1682 0.961 . S
H1696 C1682 0.961 . S
H1697 C1683 0.958 . S
H1698 C1683 0.961 . S
H1699 C1683 0.960 . S
C1700 C1701 1.391 . S
C1700 C1702 1.394 . S
C1700 H1716 0.931 . S
C1701 C1700 1.391 . S
C1701 C1705 1.376 . S
C1702 C1700 1.394 . S
C1702 C1703 1.369 . S
C1702 C1706 1.531 . S
C1703 C1702 1.369 . S
C1703 C1704 1.410 . S
C1703 C1711 1.503 . S
C1704 C1703 1.410 . S
C1704 C1705 1.392 . S
C1704 C1707 1.511 . S
C1705 C1701 1.376 . S
C1705 C1704 1.392 . S
C1705 H1717 0.929 . S
C1706 C1702 1.531 . S
C1706 H1718 0.960 . S
C1706 H1719 0.962 . S
C1706 H1720 0.960 . S
C1707 C1704 1.511 . S
C1707 H1721 0.961 . S
C1707 H1722 0.961 . S
C1707 H1723 0.961 . S
C1708 C1709 1.370 . S
C1708 C1710 1.363 . S
C1708 H1724 0.931 . S
C1709 C1708 1.370 . S
C1709 C1713 1.408 . S
C1710 C1708 1.363 . S
C1710 C1711 1.370 . S
C1710 C1714 1.524 . S
C1711 C1703 1.503 . S
C1711 C1710 1.370 . S
C1711 C1712 1.403 . S
C1712 C1711 1.403 . S
C1712 C1713 1.404 . S
C1712 C1715 1.539 . S
C1713 C1709 1.408 . S
C1713 C1712 1.404 . S
C1713 H1725 0.930 . S
C1714 C1710 1.524 . S
C1714 H1726 0.956 . S
C1714 H1727 0.961 . S
C1714 H1728 0.961 . S
C1715 C1712 1.539 . S
C1715 H1729 0.958 . S
C1715 H1730 0.961 . S
C1715 H1731 0.960 . S
H1716 C1700 0.931 . S
H1717 C1705 0.929 . S
H1718 C1706 0.960 . S
H1719 C1706 0.962 . S
H1720 C1706 0.960 . S
H1721 C1707 0.961 . S
H1722 C1707 0.961 . S
H1723 C1707 0.961 . S
H1724 C1708 0.931 . S
H1725 C1713 0.930 . S
H1726 C1714 0.956 . S
H1727 C1714 0.961 . S
H1728 C1714 0.961 . S
H1729 C1715 0.958 . S
H1730 C1715 0.961 . S
H1731 C1715 0.960 . S
C1732 C1733 1.391 . S
C1732 C1734 1.394 . S
C1732 H1748 0.931 . S
C1733 C1732 1.391 . S
C1733 C1737 1.376 . S
C1734 C1732 1.394 . S
C1734 C1735 1.369 . S
C1734 C1738 1.531 . S
C1735 C1734 1.369 . S
C1735 C1736 1.410 . S
C1735 C1743 1.503 . S
C1736 C1735 1.410 . S
C1736 C1737 1.392 . S
C1736 C1739 1.511 . S
C1737 C1733 1.376 . S
C1737 C1736 1.392 . S
C1737 H1749 0.929 . S
C1738 C1734 1.531 . S
C1738 H1750 0.960 . S
C1738 H1751 0.962 . S
C1738 H1752 0.960 . S
C1739 C1736 1.511 . S
C1739 H1753 0.961 . S
C1739 H1754 0.961 . S
C1739 H1755 0.961 . S
C1740 C1741 1.370 . S
C1740 C1742 1.363 . S
C1740 H1756 0.931 . S
C1741 C1740 1.370 . S
C1741 C1745 1.408 . S
C1742 C1740 1.363 . S
C1742 C1743 1.370 . S
C1742 C1746 1.524 . S
C1743 C1735 1.503 . S
C1743 C1742 1.370 . S
C1743 C1744 1.403 . S
C1744 C1743 1.403 . S
C1744 C1745 1.404 . S
C1744 C1747 1.539 . S
C1745 C1741 1.408 . S
C1745 C1744 1.404 . S
C1745 H1757 0.930 . S
C1746 C1742 1.524 . S
C1746 H1758 0.956 . S
C1746 H1759 0.961 . S
C1746 H1760 0.961 . S
C1747 C1744 1.539 . S
C1747 H1761 0.958 . S
C1747 H1762 0.961 . S
C1747 H1763 0.960 . S
H1748 C1732 0.931 . S
H1749 C1737 0.929 . S
H1750 C1738 0.960 . S
H1751 C1738 0.962 . S
H1752 C1738 0.960 . S
H1753 C1739 0.961 . S
H1754 C1739 0.961 . S
H1755 C1739 0.961 . S
H1756 C1740 0.931 . S
H1757 C1745 0.930 . S
H1758 C1746 0.956 . S
H1759 C1746 0.961 . S
H1760 C1746 0.961 . S
H1761 C1747 0.958 . S
H1762 C1747 0.961 . S
H1763 C1747 0.960 . S
C1764 C1765 1.391 . S
C1764 C1766 1.394 . S
C1764 H1780 0.931 . S
C1765 C1764 1.391 . S
C1765 C1769 1.376 . S
C1766 C1764 1.394 . S
C1766 C1767 1.369 . S
C1766 C1770 1.531 . S
C1767 C1766 1.369 . S
C1767 C1768 1.410 . S
C1767 C1775 1.503 . S
C1768 C1767 1.410 . S
C1768 C1769 1.392 . S
C1768 C1771 1.511 . S
C1769 C1765 1.376 . S
C1769 C1768 1.392 . S
C1769 H1781 0.929 . S
C1770 C1766 1.531 . S
C1770 H1782 0.960 . S
C1770 H1783 0.962 . S
C1770 H1784 0.960 . S
C1771 C1768 1.511 . S
C1771 H1785 0.961 . S
C1771 H1786 0.961 . S
C1771 H1787 0.961 . S
C1772 C1773 1.370 . S
C1772 C1774 1.363 . S
C1772 H1788 0.931 . S
C1773 C1772 1.370 . S
C1773 C1777 1.408 . S
C1774 C1772 1.363 . S
C1774 C1775 1.370 . S
C1774 C1778 1.524 . S
C1775 C1767 1.503 . S
C1775 C1774 1.370 . S
C1775 C1776 1.403 . S
C1776 C1775 1.403 . S
C1776 C1777 1.404 . S
C1776 C1779 1.539 . S
C1777 C1773 1.408 . S
C1777 C1776 1.404 . S
C1777 H1789 0.930 . S
C1778 C1774 1.524 . S
C1778 H1790 0.956 . S
C1778 H1791 0.961 . S
C1778 H1792 0.961 . S
C1779 C1776 1.539 . S
C1779 H1793 0.958 . S
C1779 H1794 0.961 . S
C1779 H1795 0.960 . S
H1780 C1764 0.931 . S
H1781 C1769 0.929 . S
H1782 C1770 0.960 . S
H1783 C1770 0.962 . S
H1784 C1770 0.960 . S
H1785 C1771 0.961 . S
H1786 C1771 0.961 . S
H1787 C1771 0.961 . S
H1788 C1772 0.931 . S
H1789 C1777 0.930 . S
H1790 C1778 0.956 . S
H1791 C1778 0.961 . S
H1792 C1778 0.961 . S
H1793 C1779 0.958 . S
H1794 C1779 0.961 . S
H1795 C1779 0.960 . S
C1796 C1797 1.391 . S
C1796 C1798 1.394 . S
C1796 H1812 0.931 . S
C1797 C1796 1.391 . S
C1797 C1801 1.376 . S
C1798 C1796 1.394 . S
C1798 C1799 1.369 . S
C1798 C1802 1.531 . S
C1799 C1798 1.369 . S
C1799 C1800 1.410 . S
C1799 C1807 1.503 . S
C1800 C1799 1.410 . S
C1800 C1801 1.392 . S
C1800 C1803 1.511 . S
C1801 C1797 1.376 . S
C1801 C1800 1.392 . S
C1801 H1813 0.929 . S
C1802 C1798 1.531 . S
C1802 H1814 0.960 . S
C1802 H1815 0.962 . S
C1802 H1816 0.960 . S
C1803 C1800 1.511 . S
C1803 H1817 0.961 . S
C1803 H1818 0.961 . S
C1803 H1819 0.961 . S
C1804 C1805 1.370 . S
C1804 C1806 1.363 . S
C1804 H1820 0.931 . S
C1805 C1804 1.370 . S
C1805 C1809 1.408 . S
C1806 C1804 1.363 . S
C1806 C1807 1.370 . S
C1806 C1810 1.524 . S
C1807 C1799 1.503 . S
C1807 C1806 1.370 . S
C1807 C1808 1.403 . S
C1808 C1807 1.403 . S
C1808 C1809 1.404 . S
C1808 C1811 1.539 . S
C1809 C1805 1.408 . S
C1809 C1808 1.404 . S
C1809 H1821 0.930 . S
C1810 C1806 1.524 . S
C1810 H1822 0.956 . S
C1810 H1823 0.961 . S
C1810 H1824 0.961 . S
C1811 C1808 1.539 . S
C1811 H1825 0.958 . S
C1811 H1826 0.961 . S
C1811 H1827 0.960 . S
H1812 C1796 0.931 . S
H1813 C1801 0.929 . S
H1814 C1802 0.960 . S
H1815 C1802 0.962 . S
H1816 C1802 0.960 . S
H1817 C1803 0.961 . S
H1818 C1803 0.961 . S
H1819 C1803 0.961 . S
H1820 C1804 0.931 . S
H1821 C1809 0.930 . S
H1822 C1810 0.956 . S
H1823 C1810 0.961 . S
H1824 C1810 0.961 . S
H1825 C1811 0.958 . S
H1826 C1811 0.961 . S
H1827 C1811 0.960 . S
C1828 C1829 1.391 . S
C1828 C1830 1.394 . S
C1828 H1844 0.931 . S
C1829 C1828 1.391 . S
C1829 C1833 1.376 . S
C1830 C1828 1.394 . S
C1830 C1831 1.369 . S
C1830 C1834 1.531 . S
C1831 C1830 1.369 . S
C1831 C1832 1.410 . S
C1831 C1839 1.503 . S
C1832 C1831 1.410 . S
C1832 C1833 1.392 . S
C1832 C1835 1.511 . S
C1833 C1829 1.376 . S
C1833 C1832 1.392 . S
C1833 H1845 0.929 . S
C1834 C1830 1.531 . S
C1834 H1846 0.960 . S
C1834 H1847 0.962 . S
C1834 H1848 0.960 . S
C1835 C1832 1.511 . S
C1835 H1849 0.961 . S
C1835 H1850 0.961 . S
C1835 H1851 0.961 . S
C1836 C1837 1.370 . S
C1836 C1838 1.363 . S
C1836 H1852 0.931 . S
C1837 C1836 1.370 . S
C1837 C1841 1.408 . S
C1838 C1836 1.363 . S
C1838 C1839 1.370 . S
C1838 C1842 1.524 . S
C1839 C1831 1.503 . S
C1839 C1838 1.370 . S
C1839 C1840 1.403 . S
C1840 C1839 1.403 . S
C1840 C1841 1.404 . S
C1840 C1843 1.539 . S
C1841 C1837 1.408 . S
C1841 C1840 1.404 . S
C1841 H1853 0.930 . S
C1842 C1838 1.524 . S
C1842 H1854 0.956 . S
C1842 H1855 0.961 . S
C1842 H1856 0.961 . S
C1843 C1840 1.539 . S
C1843 H1857 0.958 . S
C1843 H1858 0.961 . S
C1843 H1859 0.960 . S
H1844 C1828 0.931 . S
H1845 C1833 0.929 . S
H1846 C1834 0.960 . S
H1847 C1834 0.962 . S
H1848 C1834 0.960 . S
H1849 C1835 0.961 . S
H1850 C1835 0.961 . S
H1851 C1835 0.961 . S
H1852 C1836 0.931 . S
H1853 C1841 0.930 . S
H1854 C1842 0.956 . S
H1855 C1842 0.961 . S
H1856 C1842 0.961 . S
H1857 C1843 0.958 . S
H1858 C1843 0.961 . S
H1859 C1843 0.960 . S
C1860 C1861 1.391 . S
C1860 C1862 1.394 . S
C1860 H1876 0.931 . S
C1861 C1860 1.391 . S
C1861 C1865 1.376 . S
C1862 C1860 1.394 . S
C1862 C1863 1.369 . S
C1862 C1866 1.531 . S
C1863 C1862 1.369 . S
C1863 C1864 1.410 . S
C1863 C1871 1.503 . S
C1864 C1863 1.410 . S
C1864 C1865 1.392 . S
C1864 C1867 1.511 . S
C1865 C1861 1.376 . S
C1865 C1864 1.392 . S
C1865 H1877 0.929 . S
C1866 C1862 1.531 . S
C1866 H1878 0.960 . S
C1866 H1879 0.962 . S
C1866 H1880 0.960 . S
C1867 C1864 1.511 . S
C1867 H1881 0.961 . S
C1867 H1882 0.961 . S
C1867 H1883 0.961 1_556 S
C1868 C1869 1.370 . S
C1868 C1870 1.363 . S
C1868 H1884 0.931 . S
C1869 C1868 1.370 . S
C1869 C1873 1.408 . S
C1870 C1868 1.363 . S
C1870 C1871 1.370 . S
C1870 C1874 1.524 . S
C1871 C1863 1.503 . S
C1871 C1870 1.370 . S
C1871 C1872 1.403 . S
C1872 C1871 1.403 . S
C1872 C1873 1.404 . S
C1872 C1875 1.539 . S
C1873 C1869 1.408 . S
C1873 C1872 1.404 . S
C1873 H1885 0.930 . S
C1874 C1870 1.524 . S
C1874 H1886 0.956 . S
C1874 H1887 0.961 . S
C1874 H1888 0.961 . S
C1875 C1872 1.539 . S
C1875 H1889 0.958 . S
C1875 H1890 0.961 1_556 S
C1875 H1891 0.947 1_556 S
H1876 C1860 0.931 . S
H1877 C1865 0.929 . S
H1878 C1866 0.960 . S
H1879 C1866 0.962 . S
H1880 C1866 0.960 . S
H1881 C1867 0.961 . S
H1882 C1867 0.961 . S
H1883 C1867 0.961 1_554 S
H1884 C1868 0.931 . S
H1885 C1873 0.930 . S
H1886 C1874 0.956 . S
H1887 C1874 0.961 . S
H1888 C1874 0.961 . S
H1889 C1875 0.958 . S
H1890 C1875 0.961 1_554 S
H1891 C1875 0.947 1_554 S
C1892 C1893 1.391 . S
C1892 C1894 1.394 . S
C1892 H1908 0.931 . S
C1893 C1892 1.391 . S
C1893 C1897 1.376 . S
C1894 C1892 1.394 . S
C1894 C1895 1.369 . S
C1894 C1898 1.531 . S
C1895 C1894 1.369 . S
C1895 C1896 1.410 . S
C1895 C1903 1.503 . S
C1896 C1895 1.410 . S
C1896 C1897 1.392 . S
C1896 C1899 1.511 . S
C1897 C1893 1.376 . S
C1897 C1896 1.392 . S
C1897 H1909 0.929 . S
C1898 C1894 1.531 . S
C1898 H1910 0.960 . S
C1898 H1911 0.962 . S
C1898 H1912 0.960 . S
C1899 C1896 1.511 . S
C1899 H1913 0.961 . S
C1899 H1914 0.961 . S
C1899 H1915 0.961 . S
C1900 C1901 1.370 . S
C1900 C1902 1.363 . S
C1900 H1916 0.931 . S
C1901 C1900 1.370 . S
C1901 C1905 1.408 . S
C1902 C1900 1.363 . S
C1902 C1903 1.370 . S
C1902 C1906 1.524 . S
C1903 C1895 1.503 . S
C1903 C1902 1.370 . S
C1903 C1904 1.403 . S
C1904 C1903 1.403 . S
C1904 C1905 1.404 . S
C1904 C1907 1.539 . S
C1905 C1901 1.408 . S
C1905 C1904 1.404 . S
C1905 H1917 0.930 . S
C1906 C1902 1.524 . S
C1906 H1918 0.956 . S
C1906 H1919 0.961 . S
C1906 H1920 0.961 1_556 S
C1907 C1904 1.539 . S
C1907 H1921 0.958 . S
C1907 H1922 0.961 . S
C1907 H1923 0.960 . S
H1908 C1892 0.931 . S
H1909 C1897 0.929 . S
H1910 C1898 0.960 . S
H1911 C1898 0.962 . S
H1912 C1898 0.960 . S
H1913 C1899 0.961 . S
H1914 C1899 0.961 . S
H1915 C1899 0.961 . S
H1916 C1900 0.931 . S
H1917 C1905 0.930 . S
H1918 C1906 0.956 . S
H1919 C1906 0.961 . S
H1920 C1906 0.961 1_554 S
H1921 C1907 0.958 . S
H1922 C1907 0.961 . S
H1923 C1907 0.960 . S
C1924 C1925 1.391 . S
C1924 C1926 1.394 . S
C1924 H1940 0.931 . S
C1925 C1924 1.391 . S
C1925 C1929 1.376 . S
C1926 C1924 1.394 . S
C1926 C1927 1.369 . S
C1926 C1930 1.531 . S
C1927 C1926 1.369 . S
C1927 C1928 1.410 . S
C1927 C1935 1.503 . S
C1928 C1927 1.410 . S
C1928 C1929 1.392 . S
C1928 C1931 1.511 . S
C1929 C1925 1.376 . S
C1929 C1928 1.392 . S
C1929 H1941 0.929 . S
C1930 C1926 1.531 . S
C1930 H1942 0.960 . S
C1930 H1943 0.962 . S
C1930 H1944 0.960 . S
C1931 C1928 1.511 . S
C1931 H1945 0.961 1_556 S
C1931 H1946 0.961 . S
C1931 H1947 0.961 . S
C1932 C1933 1.370 . S
C1932 C1934 1.363 . S
C1932 H1948 0.931 . S
C1933 C1932 1.370 . S
C1933 C1937 1.408 . S
C1934 C1932 1.363 . S
C1934 C1935 1.370 . S
C1934 C1938 1.524 . S
C1935 C1927 1.503 . S
C1935 C1934 1.370 . S
C1935 C1936 1.403 . S
C1936 C1935 1.403 . S
C1936 C1937 1.404 . S
C1936 C1939 1.539 . S
C1937 C1933 1.408 . S
C1937 C1936 1.404 . S
C1937 H1949 0.930 . S
C1938 C1934 1.524 . S
C1938 H1950 0.956 . S
C1938 H1951 0.961 . S
C1938 H1952 0.961 . S
C1939 C1936 1.539 . S
C1939 H1953 0.958 . S
C1939 H1954 0.961 . S
C1939 H1955 0.960 . S
H1940 C1924 0.931 . S
H1941 C1929 0.929 . S
H1942 C1930 0.960 . S
H1943 C1930 0.962 . S
H1944 C1930 0.960 . S
H1945 C1931 0.961 1_554 S
H1946 C1931 0.961 . S
H1947 C1931 0.961 . S
H1948 C1932 0.931 . S
H1949 C1937 0.930 . S
H1950 C1938 0.956 . S
H1951 C1938 0.961 . S
H1952 C1938 0.961 . S
H1953 C1939 0.958 . S
H1954 C1939 0.961 . S
H1955 C1939 0.960 . S
C1956 C1957 1.391 . S
C1956 C1958 1.394 . S
C1956 H1972 0.931 . S
C1957 C1956 1.391 . S
C1957 C1961 1.376 . S
C1958 C1956 1.394 . S
C1958 C1959 1.369 . S
C1958 C1962 1.531 . S
C1959 C1958 1.369 . S
C1959 C1960 1.410 . S
C1959 C1967 1.503 . S
C1960 C1959 1.410 . S
C1960 C1961 1.392 . S
C1960 C1963 1.511 . S
C1961 C1957 1.376 . S
C1961 C1960 1.392 . S
C1961 H1973 0.929 . S
C1962 C1958 1.531 . S
C1962 H1974 0.960 . S
C1962 H1975 0.962 . S
C1962 H1976 0.960 . S
C1963 C1960 1.511 . S
C1963 H1977 0.961 . S
C1963 H1978 0.961 . S
C1963 H1979 0.961 . S
C1964 C1965 1.370 . S
C1964 C1966 1.363 . S
C1964 H1980 0.931 . S
C1965 C1964 1.370 . S
C1965 C1969 1.408 . S
C1966 C1964 1.363 . S
C1966 C1967 1.370 . S
C1966 C1970 1.524 . S
C1967 C1959 1.503 . S
C1967 C1966 1.370 . S
C1967 C1968 1.403 . S
C1968 C1967 1.403 . S
C1968 C1969 1.404 . S
C1968 C1971 1.539 . S
C1969 C1965 1.408 . S
C1969 C1968 1.404 . S
C1969 H1981 0.930 . S
C1970 C1966 1.524 . S
C1970 H1982 0.956 . S
C1970 H1983 0.961 . S
C1970 H1984 0.961 . S
C1971 C1968 1.539 . S
C1971 H1985 0.958 . S
C1971 H1986 0.961 . S
C1971 H1987 0.960 . S
H1972 C1956 0.931 . S
H1973 C1961 0.929 . S
H1974 C1962 0.960 . S
H1975 C1962 0.962 . S
H1976 C1962 0.960 . S
H1977 C1963 0.961 . S
H1978 C1963 0.961 . S
H1979 C1963 0.961 . S
H1980 C1964 0.931 . S
H1981 C1969 0.930 . S
H1982 C1970 0.956 . S
H1983 C1970 0.961 . S
H1984 C1970 0.961 . S
H1985 C1971 0.958 . S
H1986 C1971 0.961 . S
H1987 C1971 0.960 . S
C1988 C1989 1.391 . S
C1988 C1990 1.394 . S
C1988 H2004 0.931 . S
C1989 C1988 1.391 . S
C1989 C1993 1.376 . S
C1990 C1988 1.394 . S
C1990 C1991 1.369 . S
C1990 C1994 1.531 . S
C1991 C1990 1.369 . S
C1991 C1992 1.410 . S
C1991 C1999 1.503 . S
C1992 C1991 1.410 . S
C1992 C1993 1.392 . S
C1992 C1995 1.511 . S
C1993 C1989 1.376 . S
C1993 C1992 1.392 . S
C1993 H2005 0.929 . S
C1994 C1990 1.531 . S
C1994 H2006 0.960 . S
C1994 H2007 0.962 . S
C1994 H2008 0.960 . S
C1995 C1992 1.511 . S
C1995 H2009 0.961 . S
C1995 H2010 0.961 . S
C1995 H2011 0.961 . S
C1996 C1997 1.370 . S
C1996 C1998 1.363 . S
C1996 H2012 0.931 . S
C1997 C1996 1.370 . S
C1997 C2001 1.408 . S
C1998 C1996 1.363 . S
C1998 C1999 1.370 . S
C1998 C2002 1.524 . S
C1999 C1991 1.503 . S
C1999 C1998 1.370 . S
C1999 C2000 1.403 . S
C2000 C1999 1.403 . S
C2000 C2001 1.404 . S
C2000 C2003 1.539 . S
C2001 C1997 1.408 . S
C2001 C2000 1.404 . S
C2001 H2013 0.930 . S
C2002 C1998 1.524 . S
C2002 H2014 0.956 . S
C2002 H2015 0.961 . S
C2002 H2016 0.961 . S
C2003 C2000 1.539 . S
C2003 H2017 0.958 . S
C2003 H2018 0.961 . S
C2003 H2019 0.960 . S
H2004 C1988 0.931 . S
H2005 C1993 0.929 . S
H2006 C1994 0.960 . S
H2007 C1994 0.962 . S
H2008 C1994 0.960 . S
H2009 C1995 0.961 . S
H2010 C1995 0.961 . S
H2011 C1995 0.961 . S
H2012 C1996 0.931 . S
H2013 C2001 0.930 . S
H2014 C2002 0.956 . S
H2015 C2002 0.961 . S
H2016 C2002 0.961 . S
H2017 C2003 0.958 . S
H2018 C2003 0.961 . S
H2019 C2003 0.960 . S
C2020 C2021 1.391 . S
C2020 C2022 1.394 . S
C2020 H2036 0.931 . S
C2021 C2020 1.391 . S
C2021 C2025 1.376 . S
C2022 C2020 1.394 . S
C2022 C2023 1.369 . S
C2022 C2026 1.531 . S
C2023 C2022 1.369 . S
C2023 C2024 1.410 . S
C2023 C2031 1.503 . S
C2024 C2023 1.410 . S
C2024 C2025 1.392 . S
C2024 C2027 1.511 . S
C2025 C2021 1.376 . S
C2025 C2024 1.392 . S
C2025 H2037 0.929 . S
C2026 C2022 1.531 . S
C2026 H2038 0.960 . S
C2026 H2039 0.962 . S
C2026 H2040 0.960 . S
C2027 C2024 1.511 . S
C2027 H2041 0.961 . S
C2027 H2042 0.961 . S
C2027 H2043 0.961 . S
C2028 C2029 1.370 . S
C2028 C2030 1.363 . S
C2028 H2044 0.931 . S
C2029 C2028 1.370 . S
C2029 C2033 1.408 . S
C2030 C2028 1.363 . S
C2030 C2031 1.370 . S
C2030 C2034 1.524 . S
C2031 C2023 1.503 . S
C2031 C2030 1.370 . S
C2031 C2032 1.403 . S
C2032 C2031 1.403 . S
C2032 C2033 1.404 . S
C2032 C2035 1.539 . S
C2033 C2029 1.408 . S
C2033 C2032 1.404 . S
C2033 H2045 0.930 . S
C2034 C2030 1.524 . S
C2034 H2046 0.956 . S
C2034 H2047 0.961 . S
C2034 H2048 0.961 . S
C2035 C2032 1.539 . S
C2035 H2049 0.958 . S
C2035 H2050 0.961 . S
C2035 H2051 0.960 . S
H2036 C2020 0.931 . S
H2037 C2025 0.929 . S
H2038 C2026 0.960 . S
H2039 C2026 0.962 . S
H2040 C2026 0.960 . S
H2041 C2027 0.961 . S
H2042 C2027 0.961 . S
H2043 C2027 0.961 . S
H2044 C2028 0.931 . S
H2045 C2033 0.930 . S
H2046 C2034 0.956 . S
H2047 C2034 0.961 . S
H2048 C2034 0.961 . S
H2049 C2035 0.958 . S
H2050 C2035 0.961 . S
H2051 C2035 0.960 . S
C2052 C2053 1.391 . S
C2052 C2054 1.394 . S
C2052 H2068 0.931 . S
C2053 C2052 1.391 . S
C2053 C2057 1.376 . S
C2054 C2052 1.394 . S
C2054 C2055 1.369 . S
C2054 C2058 1.531 . S
C2055 C2054 1.369 . S
C2055 C2056 1.410 . S
C2055 C2063 1.503 . S
C2056 C2055 1.410 . S
C2056 C2057 1.392 . S
C2056 C2059 1.511 . S
C2057 C2053 1.376 . S
C2057 C2056 1.392 . S
C2057 H2069 0.929 . S
C2058 C2054 1.531 . S
C2058 H2070 0.960 . S
C2058 H2071 0.962 . S
C2058 H2072 0.960 . S
C2059 C2056 1.511 . S
C2059 H2073 0.961 1_554 S
C2059 H2074 0.961 . S
C2059 H2075 0.961 . S
C2060 C2061 1.370 . S
C2060 C2062 1.363 . S
C2060 H2076 0.931 . S
C2061 C2060 1.370 . S
C2061 C2065 1.408 . S
C2062 C2060 1.363 . S
C2062 C2063 1.370 . S
C2062 C2066 1.524 . S
C2063 C2055 1.503 . S
C2063 C2062 1.370 . S
C2063 C2064 1.403 . S
C2064 C2063 1.403 . S
C2064 C2065 1.404 . S
C2064 C2067 1.539 . S
C2065 C2061 1.408 . S
C2065 C2064 1.404 . S
C2065 H2077 0.930 . S
C2066 C2062 1.524 . S
C2066 H2078 0.956 . S
C2066 H2079 0.961 . S
C2066 H2080 0.961 . S
C2067 C2064 1.539 . S
C2067 H2081 0.958 . S
C2067 H2082 0.961 . S
C2067 H2083 0.960 . S
H2068 C2052 0.931 . S
H2069 C2057 0.929 . S
H2070 C2058 0.960 . S
H2071 C2058 0.962 . S
H2072 C2058 0.960 . S
H2073 C2059 0.961 1_556 S
H2074 C2059 0.961 . S
H2075 C2059 0.961 . S
H2076 C2060 0.931 . S
H2077 C2065 0.930 . S
H2078 C2066 0.956 . S
H2079 C2066 0.961 . S
H2080 C2066 0.961 . S
H2081 C2067 0.958 . S
H2082 C2067 0.961 . S
H2083 C2067 0.960 . S
C2084 C2085 1.391 . S
C2084 C2086 1.394 . S
C2084 H2100 0.931 . S
C2085 C2084 1.391 . S
C2085 C2089 1.376 . S
C2086 C2084 1.394 . S
C2086 C2087 1.369 . S
C2086 C2090 1.531 . S
C2087 C2086 1.369 . S
C2087 C2088 1.410 . S
C2087 C2095 1.503 . S
C2088 C2087 1.410 . S
C2088 C2089 1.392 . S
C2088 C2091 1.511 . S
C2089 C2085 1.376 . S
C2089 C2088 1.392 . S
C2089 H2101 0.929 . S
C2090 C2086 1.531 . S
C2090 H2102 0.960 . S
C2090 H2103 0.962 . S
C2090 H2104 0.960 . S
C2091 C2088 1.511 . S
C2091 H2105 0.961 . S
C2091 H2106 0.961 . S
C2091 H2107 0.961 . S
C2092 C2093 1.370 . S
C2092 C2094 1.363 . S
C2092 H2108 0.931 . S
C2093 C2092 1.370 . S
C2093 C2097 1.408 . S
C2094 C2092 1.363 . S
C2094 C2095 1.370 . S
C2094 C2098 1.524 . S
C2095 C2087 1.503 . S
C2095 C2094 1.370 . S
C2095 C2096 1.403 . S
C2096 C2095 1.403 . S
C2096 C2097 1.404 . S
C2096 C2099 1.539 . S
C2097 C2093 1.408 . S
C2097 C2096 1.404 . S
C2097 H2109 0.930 . S
C2098 C2094 1.524 . S
C2098 H2110 0.957 . S
C2098 H2111 0.961 . S
C2098 H2112 0.961 1_554 S
C2099 C2096 1.539 . S
C2099 H2113 0.958 . S
C2099 H2114 0.961 . S
C2099 H2115 0.960 . S
H2100 C2084 0.931 . S
H2101 C2089 0.929 . S
H2102 C2090 0.960 . S
H2103 C2090 0.962 . S
H2104 C2090 0.960 . S
H2105 C2091 0.961 . S
H2106 C2091 0.961 . S
H2107 C2091 0.961 . S
H2108 C2092 0.931 . S
H2109 C2097 0.930 . S
H2110 C2098 0.957 . S
H2111 C2098 0.961 . S
H2112 C2098 0.961 1_556 S
H2113 C2099 0.958 . S
H2114 C2099 0.961 . S
H2115 C2099 0.960 . S
C2116 C2117 1.391 . S
C2116 C2118 1.394 . S
C2116 H2132 0.931 . S
C2117 C2116 1.391 . S
C2117 C2121 1.376 . S
C2118 C2116 1.394 . S
C2118 C2119 1.369 . S
C2118 C2122 1.531 . S
C2119 C2118 1.369 . S
C2119 C2120 1.410 . S
C2119 C2127 1.503 . S
C2120 C2119 1.410 . S
C2120 C2121 1.392 . S
C2120 C2123 1.511 . S
C2121 C2117 1.376 . S
C2121 C2120 1.392 . S
C2121 H2133 0.929 . S
C2122 C2118 1.531 . S
C2122 H2134 0.960 . S
C2122 H2135 0.962 . S
C2122 H2136 0.960 . S
C2123 C2120 1.511 . S
C2123 H2137 0.961 . S
C2123 H2138 0.961 . S
C2123 H2139 0.961 . S
C2124 C2125 1.370 . S
C2124 C2126 1.363 . S
C2124 H2140 0.931 . S
C2125 C2124 1.370 . S
C2125 C2129 1.408 . S
C2126 C2124 1.363 . S
C2126 C2127 1.370 . S
C2126 C2130 1.524 . S
C2127 C2119 1.503 . S
C2127 C2126 1.370 . S
C2127 C2128 1.403 . S
C2128 C2127 1.403 . S
C2128 C2129 1.404 . S
C2128 C2131 1.539 . S
C2129 C2125 1.408 . S
C2129 C2128 1.404 . S
C2129 H2141 0.930 . S
C2130 C2126 1.524 . S
C2130 H2142 0.932 1_554 S
C2130 H2143 0.961 . S
C2130 H2144 0.961 1_554 S
C2131 C2128 1.539 . S
C2131 H2145 0.958 . S
C2131 H2146 0.961 . S
C2131 H2147 0.960 . S
H2132 C2116 0.931 . S
H2133 C2121 0.929 . S
H2134 C2122 0.960 . S
H2135 C2122 0.962 . S
H2136 C2122 0.960 . S
H2137 C2123 0.961 . S
H2138 C2123 0.961 . S
H2139 C2123 0.961 . S
H2140 C2124 0.931 . S
H2141 C2129 0.930 . S
H2142 C2130 0.932 1_556 S
H2143 C2130 0.961 . S
H2144 C2130 0.961 1_556 S
H2145 C2131 0.958 . S
H2146 C2131 0.961 . S
H2147 C2131 0.960 . S
C2148 C2149 1.391 . S
C2148 C2150 1.394 . S
C2148 H2164 0.931 . S
C2149 C2148 1.391 . S
C2149 C2153 1.376 . S
C2150 C2148 1.394 . S
C2150 C2151 1.369 . S
C2150 C2154 1.531 . S
C2151 C2150 1.369 . S
C2151 C2152 1.410 . S
C2151 C2159 1.503 . S
C2152 C2151 1.410 . S
C2152 C2153 1.392 . S
C2152 C2155 1.511 . S
C2153 C2149 1.376 . S
C2153 C2152 1.392 . S
C2153 H2165 0.929 . S
C2154 C2150 1.531 . S
C2154 H2166 0.960 . S
C2154 H2167 0.962 . S
C2154 H2168 0.960 . S
C2155 C2152 1.511 . S
C2155 H2169 0.961 . S
C2155 H2170 0.961 . S
C2155 H2171 0.961 . S
C2156 C2157 1.370 . S
C2156 C2158 1.363 . S
C2156 H2172 0.931 . S
C2157 C2156 1.370 . S
C2157 C2161 1.408 . S
C2158 C2156 1.363 . S
C2158 C2159 1.370 . S
C2158 C2162 1.524 . S
C2159 C2151 1.503 . S
C2159 C2158 1.370 . S
C2159 C2160 1.403 . S
C2160 C2159 1.403 . S
C2160 C2161 1.404 . S
C2160 C2163 1.539 . S
C2161 C2157 1.408 . S
C2161 C2160 1.404 . S
C2161 H2173 0.930 . S
C2162 C2158 1.524 . S
C2162 H2174 0.956 . S
C2162 H2175 0.961 . S
C2162 H2176 0.961 . S
C2163 C2160 1.539 . S
C2163 H2177 0.958 . S
C2163 H2178 0.961 . S
C2163 H2179 0.960 . S
H2164 C2148 0.931 . S
H2165 C2153 0.929 . S
H2166 C2154 0.960 . S
H2167 C2154 0.962 . S
H2168 C2154 0.960 . S
H2169 C2155 0.961 . S
H2170 C2155 0.961 . S
H2171 C2155 0.961 . S
H2172 C2156 0.931 . S
H2173 C2161 0.930 . S
H2174 C2162 0.956 . S
H2175 C2162 0.961 . S
H2176 C2162 0.961 . S
H2177 C2163 0.958 . S
H2178 C2163 0.961 . S
H2179 C2163 0.960 . S
C2180 C2181 1.391 . S
C2180 C2182 1.394 . S
C2180 H2196 0.931 . S
C2181 C2180 1.391 . S
C2181 C2185 1.376 . S
C2182 C2180 1.394 . S
C2182 C2183 1.369 . S
C2182 C2186 1.531 . S
C2183 C2182 1.369 . S
C2183 C2184 1.410 . S
C2183 C2191 1.503 . S
C2184 C2183 1.410 . S
C2184 C2185 1.392 . S
C2184 C2187 1.511 . S
C2185 C2181 1.376 . S
C2185 C2184 1.392 . S
C2185 H2197 0.929 . S
C2186 C2182 1.531 . S
C2186 H2198 0.960 . S
C2186 H2199 0.962 . S
C2186 H2200 0.960 . S
C2187 C2184 1.511 . S
C2187 H2201 0.961 . S
C2187 H2202 0.961 . S
C2187 H2203 0.961 . S
C2188 C2189 1.370 . S
C2188 C2190 1.363 . S
C2188 H2204 0.931 . S
C2189 C2188 1.370 . S
C2189 C2193 1.408 . S
C2190 C2188 1.363 . S
C2190 C2191 1.370 . S
C2190 C2194 1.524 . S
C2191 C2183 1.503 . S
C2191 C2190 1.370 . S
C2191 C2192 1.403 . S
C2192 C2191 1.403 . S
C2192 C2193 1.404 . S
C2192 C2195 1.539 . S
C2193 C2189 1.408 . S
C2193 C2192 1.404 . S
C2193 H2205 0.930 . S
C2194 C2190 1.524 . S
C2194 H2206 0.956 . S
C2194 H2207 0.961 . S
C2194 H2208 0.961 . S
C2195 C2192 1.539 . S
C2195 H2209 0.958 . S
C2195 H2210 0.961 . S
C2195 H2211 0.960 . S
H2196 C2180 0.931 . S
H2197 C2185 0.929 . S
H2198 C2186 0.960 . S
H2199 C2186 0.962 . S
H2200 C2186 0.960 . S
H2201 C2187 0.961 . S
H2202 C2187 0.961 . S
H2203 C2187 0.961 . S
H2204 C2188 0.931 . S
H2205 C2193 0.930 . S
H2206 C2194 0.956 . S
H2207 C2194 0.961 . S
H2208 C2194 0.961 . S
H2209 C2195 0.958 . S
H2210 C2195 0.961 . S
H2211 C2195 0.960 . S
C2212 C2213 1.391 . S
C2212 C2214 1.394 . S
C2212 H2228 0.931 . S
C2213 C2212 1.391 . S
C2213 C2217 1.376 . S
C2214 C2212 1.394 . S
C2214 C2215 1.369 . S
C2214 C2218 1.531 . S
C2215 C2214 1.369 . S
C2215 C2216 1.410 . S
C2215 C2223 1.503 . S
C2216 C2215 1.410 . S
C2216 C2217 1.392 . S
C2216 C2219 1.511 . S
C2217 C2213 1.376 . S
C2217 C2216 1.392 . S
C2217 H2229 0.929 . S
C2218 C2214 1.531 . S
C2218 H2230 0.960 . S
C2218 H2231 0.962 . S
C2218 H2232 0.960 . S
C2219 C2216 1.511 . S
C2219 H2233 0.961 . S
C2219 H2234 0.961 . S
C2219 H2235 0.961 . S
C2220 C2221 1.370 . S
C2220 C2222 1.363 . S
C2220 H2236 0.931 . S
C2221 C2220 1.370 . S
C2221 C2225 1.408 . S
C2222 C2220 1.363 . S
C2222 C2223 1.370 . S
C2222 C2226 1.524 . S
C2223 C2215 1.503 . S
C2223 C2222 1.370 . S
C2223 C2224 1.403 . S
C2224 C2223 1.403 . S
C2224 C2225 1.404 . S
C2224 C2227 1.539 . S
C2225 C2221 1.408 . S
C2225 C2224 1.404 . S
C2225 H2237 0.930 . S
C2226 C2222 1.524 . S
C2226 H2238 0.956 . S
C2226 H2239 0.961 . S
C2226 H2240 0.961 . S
C2227 C2224 1.539 . S
C2227 H2241 0.958 . S
C2227 H2242 0.961 . S
C2227 H2243 0.960 . S
H2228 C2212 0.931 . S
H2229 C2217 0.929 . S
H2230 C2218 0.960 . S
H2231 C2218 0.962 . S
H2232 C2218 0.960 . S
H2233 C2219 0.961 . S
H2234 C2219 0.961 . S
H2235 C2219 0.961 . S
H2236 C2220 0.931 . S
H2237 C2225 0.930 . S
H2238 C2226 0.956 . S
H2239 C2226 0.961 . S
H2240 C2226 0.961 . S
H2241 C2227 0.958 . S
H2242 C2227 0.961 . S
H2243 C2227 0.960 . S
C2244 C2245 1.391 . S
C2244 C2246 1.394 . S
C2244 H2260 0.931 . S
C2245 C2244 1.391 . S
C2245 C2249 1.376 . S
C2246 C2244 1.394 . S
C2246 C2247 1.369 . S
C2246 C2250 1.531 . S
C2247 C2246 1.369 . S
C2247 C2248 1.410 . S
C2247 C2255 1.503 . S
C2248 C2247 1.410 . S
C2248 C2249 1.392 . S
C2248 C2251 1.511 . S
C2249 C2245 1.376 . S
C2249 C2248 1.392 . S
C2249 H2261 0.929 . S
C2250 C2246 1.531 . S
C2250 H2262 0.960 . S
C2250 H2263 0.962 . S
C2250 H2264 0.960 . S
C2251 C2248 1.511 . S
C2251 H2265 0.961 . S
C2251 H2266 0.961 . S
C2251 H2267 0.961 . S
C2252 C2253 1.370 . S
C2252 C2254 1.363 . S
C2252 H2268 0.931 . S
C2253 C2252 1.370 . S
C2253 C2257 1.408 . S
C2254 C2252 1.363 . S
C2254 C2255 1.370 . S
C2254 C2258 1.524 . S
C2255 C2247 1.503 . S
C2255 C2254 1.370 . S
C2255 C2256 1.403 . S
C2256 C2255 1.403 . S
C2256 C2257 1.404 . S
C2256 C2259 1.539 . S
C2257 C2253 1.408 . S
C2257 C2256 1.404 . S
C2257 H2269 0.930 . S
C2258 C2254 1.524 . S
C2258 H2270 0.956 . S
C2258 H2271 0.961 . S
C2258 H2272 0.961 . S
C2259 C2256 1.539 . S
C2259 H2273 0.958 . S
C2259 H2274 0.961 . S
C2259 H2275 0.960 . S
H2260 C2244 0.931 . S
H2261 C2249 0.929 . S
H2262 C2250 0.960 . S
H2263 C2250 0.962 . S
H2264 C2250 0.960 . S
H2265 C2251 0.961 . S
H2266 C2251 0.961 . S
H2267 C2251 0.961 . S
H2268 C2252 0.931 . S
H2269 C2257 0.930 . S
H2270 C2258 0.956 . S
H2271 C2258 0.961 . S
H2272 C2258 0.961 . S
H2273 C2259 0.958 . S
H2274 C2259 0.961 . S
H2275 C2259 0.960 . S
C2276 C2277 1.391 . S
C2276 C2278 1.394 . S
C2276 H2292 0.931 . S
C2277 C2276 1.391 . S
C2277 C2281 1.376 . S
C2278 C2276 1.394 . S
C2278 C2279 1.369 . S
C2278 C2282 1.531 . S
C2279 C2278 1.369 . S
C2279 C2280 1.410 . S
C2279 C2287 1.503 . S
C2280 C2279 1.410 . S
C2280 C2281 1.392 . S
C2280 C2283 1.511 . S
C2281 C2277 1.376 . S
C2281 C2280 1.392 . S
C2281 H2293 0.929 . S
C2282 C2278 1.531 . S
C2282 H2294 0.960 . S
C2282 H2295 0.962 . S
C2282 H2296 0.960 . S
C2283 C2280 1.511 . S
C2283 H2297 0.961 . S
C2283 H2298 0.961 . S
C2283 H2299 0.961 . S
C2284 C2285 1.370 . S
C2284 C2286 1.363 . S
C2284 H2300 0.931 . S
C2285 C2284 1.370 . S
C2285 C2289 1.408 . S
C2286 C2284 1.363 . S
C2286 C2287 1.370 . S
C2286 C2290 1.524 . S
C2287 C2279 1.503 . S
C2287 C2286 1.370 . S
C2287 C2288 1.403 . S
C2288 C2287 1.403 . S
C2288 C2289 1.404 . S
C2288 C2291 1.539 . S
C2289 C2285 1.408 . S
C2289 C2288 1.404 . S
C2289 H2301 0.930 . S
C2290 C2286 1.524 . S
C2290 H2302 0.956 . S
C2290 H2303 0.961 . S
C2290 H2304 0.961 . S
C2291 C2288 1.539 . S
C2291 H2305 0.958 . S
C2291 H2306 0.961 . S
C2291 H2307 0.960 . S
H2292 C2276 0.931 . S
H2293 C2281 0.929 . S
H2294 C2282 0.960 . S
H2295 C2282 0.962 . S
H2296 C2282 0.960 . S
H2297 C2283 0.961 . S
H2298 C2283 0.961 . S
H2299 C2283 0.961 . S
H2300 C2284 0.931 . S
H2301 C2289 0.930 . S
H2302 C2290 0.956 . S
H2303 C2290 0.961 . S
H2304 C2290 0.961 . S
H2305 C2291 0.958 . S
H2306 C2291 0.961 . S
H2307 C2291 0.960 . S
C2308 C2309 1.391 . S
C2308 C2310 1.394 . S
C2308 H2324 0.931 . S
C2309 C2308 1.391 . S
C2309 C2313 1.376 . S
C2310 C2308 1.394 . S
C2310 C2311 1.369 . S
C2310 C2314 1.531 . S
C2311 C2310 1.369 . S
C2311 C2312 1.410 . S
C2311 C2319 1.503 . S
C2312 C2311 1.410 . S
C2312 C2313 1.392 . S
C2312 C2315 1.511 . S
C2313 C2309 1.376 . S
C2313 C2312 1.392 . S
C2313 H2325 0.929 . S
C2314 C2310 1.531 . S
C2314 H2326 0.960 . S
C2314 H2327 0.962 . S
C2314 H2328 0.960 . S
C2315 C2312 1.511 . S
C2315 H2329 0.961 . S
C2315 H2330 0.961 . S
C2315 H2331 0.961 . S
C2316 C2317 1.370 . S
C2316 C2318 1.363 . S
C2316 H2332 0.931 . S
C2317 C2316 1.370 . S
C2317 C2321 1.408 . S
C2318 C2316 1.363 . S
C2318 C2319 1.370 . S
C2318 C2322 1.524 . S
C2319 C2311 1.503 . S
C2319 C2318 1.370 . S
C2319 C2320 1.403 . S
C2320 C2319 1.403 . S
C2320 C2321 1.404 . S
C2320 C2323 1.539 . S
C2321 C2317 1.408 . S
C2321 C2320 1.404 . S
C2321 H2333 0.930 . S
C2322 C2318 1.524 . S
C2322 H2334 0.956 . S
C2322 H2335 0.961 . S
C2322 H2336 0.961 . S
C2323 C2320 1.539 . S
C2323 H2337 0.958 . S
C2323 H2338 0.961 . S
C2323 H2339 0.960 . S
H2324 C2308 0.931 . S
H2325 C2313 0.929 . S
H2326 C2314 0.960 . S
H2327 C2314 0.962 . S
H2328 C2314 0.960 . S
H2329 C2315 0.961 . S
H2330 C2315 0.961 . S
H2331 C2315 0.961 . S
H2332 C2316 0.931 . S
H2333 C2321 0.930 . S
H2334 C2322 0.956 . S
H2335 C2322 0.961 . S
H2336 C2322 0.961 . S
H2337 C2323 0.958 . S
H2338 C2323 0.961 . S
H2339 C2323 0.960 . S
C2340 C2341 1.391 1_455 S
C2340 C2342 1.394 . S
C2340 H2356 0.931 . S
C2341 C2340 1.391 1_655 S
C2341 C2345 1.376 . S
C2342 C2340 1.394 . S
C2342 C2343 1.369 1_455 S
C2342 C2346 1.531 . S
C2343 C2342 1.369 1_655 S
C2343 C2344 1.410 . S
C2343 C2351 1.503 . S
C2344 C2343 1.410 . S
C2344 C2345 1.392 . S
C2344 C2347 1.511 . S
C2345 C2341 1.376 . S
C2345 C2344 1.392 . S
C2345 H2357 0.929 . S
C2346 C2342 1.531 . S
C2346 H2358 0.960 . S
C2346 H2359 0.962 . S
C2346 H2360 0.960 . S
C2347 C2344 1.511 . S
C2347 H2361 0.961 . S
C2347 H2362 0.961 . S
C2347 H2363 0.961 . S
C2348 C2349 1.370 . S
C2348 C2350 1.363 . S
C2348 H2364 0.931 . S
C2349 C2348 1.370 . S
C2349 C2353 1.408 1_455 S
C2350 C2348 1.363 . S
C2350 C2351 1.370 1_455 S
C2350 C2354 1.524 . S
C2351 C2343 1.503 . S
C2351 C2350 1.370 1_655 S
C2351 C2352 1.403 . S
C2352 C2351 1.403 . S
C2352 C2353 1.404 . S
C2352 C2355 1.539 . S
C2353 C2349 1.408 1_655 S
C2353 C2352 1.404 . S
C2353 H2365 0.930 . S
C2354 C2350 1.524 . S
C2354 H2366 0.956 . S
C2354 H2367 0.961 . S
C2354 H2368 0.961 . S
C2355 C2352 1.539 . S
C2355 H2369 0.958 . S
C2355 H2370 0.961 . S
C2355 H2371 0.960 . S
H2356 C2340 0.931 . S
H2357 C2345 0.929 . S
H2358 C2346 0.960 . S
H2359 C2346 0.962 . S
H2360 C2346 0.960 . S
H2361 C2347 0.961 . S
H2362 C2347 0.961 . S
H2363 C2347 0.961 . S
H2364 C2348 0.931 . S
H2365 C2353 0.930 . S
H2366 C2354 0.956 . S
H2367 C2354 0.961 . S
H2368 C2354 0.961 . S
H2369 C2355 0.958 . S
H2370 C2355 0.961 . S
H2371 C2355 0.960 . S
C2372 C2373 1.391 . S
C2372 C2374 1.394 . S
C2372 H2388 0.931 . S
C2373 C2372 1.391 . S
C2373 C2377 1.376 . S
C2374 C2372 1.394 . S
C2374 C2375 1.369 . S
C2374 C2378 1.531 . S
C2375 C2374 1.369 . S
C2375 C2376 1.410 . S
C2375 C2383 1.503 . S
C2376 C2375 1.410 . S
C2376 C2377 1.392 . S
C2376 C2379 1.511 . S
C2377 C2373 1.376 . S
C2377 C2376 1.392 . S
C2377 H2389 0.929 . S
C2378 C2374 1.531 . S
C2378 H2390 0.960 . S
C2378 H2391 0.962 . S
C2378 H2392 0.960 . S
C2379 C2376 1.511 . S
C2379 H2393 0.961 . S
C2379 H2394 0.961 . S
C2379 H2395 0.961 . S
C2380 C2381 1.370 . S
C2380 C2382 1.363 . S
C2380 H2396 0.931 . S
C2381 C2380 1.370 . S
C2381 C2385 1.408 . S
C2382 C2380 1.363 . S
C2382 C2383 1.370 . S
C2382 C2386 1.524 . S
C2383 C2375 1.503 . S
C2383 C2382 1.370 . S
C2383 C2384 1.403 . S
C2384 C2383 1.403 . S
C2384 C2385 1.404 . S
C2384 C2387 1.539 . S
C2385 C2381 1.408 . S
C2385 C2384 1.404 . S
C2385 H2397 0.930 . S
C2386 C2382 1.524 . S
C2386 H2398 0.956 . S
C2386 H2399 0.961 . S
C2386 H2400 0.961 . S
C2387 C2384 1.539 . S
C2387 H2401 0.958 . S
C2387 H2402 0.961 . S
C2387 H2403 0.960 . S
H2388 C2372 0.931 . S
H2389 C2377 0.929 . S
H2390 C2378 0.960 . S
H2391 C2378 0.962 . S
H2392 C2378 0.960 . S
H2393 C2379 0.961 . S
H2394 C2379 0.961 . S
H2395 C2379 0.961 . S
H2396 C2380 0.931 . S
H2397 C2385 0.930 . S
H2398 C2386 0.956 . S
H2399 C2386 0.961 . S
H2400 C2386 0.961 . S
H2401 C2387 0.958 . S
H2402 C2387 0.961 . S
H2403 C2387 0.960 . S
C2404 C2405 1.391 . S
C2404 C2406 1.394 . S
C2404 H2420 0.931 . S
C2405 C2404 1.391 . S
C2405 C2409 1.376 1_565 S
C2406 C2404 1.394 . S
C2406 C2407 1.369 . S
C2406 C2410 1.531 . S
C2407 C2406 1.369 . S
C2407 C2408 1.410 1_565 S
C2407 C2415 1.503 . S
C2408 C2407 1.410 1_545 S
C2408 C2409 1.392 . S
C2408 C2411 1.511 . S
C2409 C2405 1.376 1_545 S
C2409 C2408 1.392 . S
C2409 H2421 0.929 . S
C2410 C2406 1.531 . S
C2410 H2422 0.960 . S
C2410 H2423 0.962 . S
C2410 H2424 0.960 . S
C2411 C2408 1.511 . S
C2411 H2425 0.961 . S
C2411 H2426 0.961 . S
C2411 H2427 0.961 1_545 S
C2412 C2413 1.370 . S
C2412 C2414 1.363 . S
C2412 H2428 0.931 . S
C2413 C2412 1.370 . S
C2413 C2417 1.408 1_545 S
C2414 C2412 1.363 . S
C2414 C2415 1.370 1_545 S
C2414 C2418 1.524 . S
C2415 C2407 1.503 . S
C2415 C2414 1.370 1_565 S
C2415 C2416 1.403 . S
C2416 C2415 1.403 . S
C2416 C2417 1.404 . S
C2416 C2419 1.539 . S
C2417 C2413 1.408 1_565 S
C2417 C2416 1.404 . S
C2417 H2429 0.930 . S
C2418 C2414 1.524 . S
C2418 H2430 0.956 . S
C2418 H2431 0.961 . S
C2418 H2432 0.961 . S
C2419 C2416 1.539 . S
C2419 H2433 0.958 . S
C2419 H2434 0.961 . S
C2419 H2435 0.960 . S
H2420 C2404 0.931 . S
H2421 C2409 0.929 . S
H2422 C2410 0.960 . S
H2423 C2410 0.962 . S
H2424 C2410 0.960 . S
H2425 C2411 0.961 . S
H2426 C2411 0.961 . S
H2427 C2411 0.961 1_565 S
H2428 C2412 0.931 . S
H2429 C2417 0.930 . S
H2430 C2418 0.956 . S
H2431 C2418 0.961 . S
H2432 C2418 0.961 . S
H2433 C2419 0.958 . S
H2434 C2419 0.961 . S
H2435 C2419 0.960 . S
C2436 C2437 1.391 1_655 S
C2436 C2438 1.394 . S
C2436 H2452 0.920 . S
C2437 C2436 1.391 1_455 S
C2437 C2441 1.376 1_455 S
C2438 C2436 1.394 . S
C2438 C2439 1.369 . S
C2438 C2442 1.531 . S
C2439 C2438 1.369 . S
C2439 C2440 1.410 . S
C2439 C2447 1.503 . S
C2440 C2439 1.410 . S
C2440 C2441 1.392 . S
C2440 C2443 1.511 . S
C2441 C2437 1.376 1_655 S
C2441 C2440 1.392 . S
C2441 H2453 0.929 1_655 S
C2442 C2438 1.531 . S
C2442 H2454 0.960 . S
C2442 H2455 0.962 1_655 S
C2442 H2456 0.960 . S
C2443 C2440 1.511 . S
C2443 H2457 0.961 1_655 S
C2443 H2458 0.961 1_655 S
C2443 H2459 0.961 . S
C2444 C2445 1.370 1_455 S
C2444 C2446 1.363 . S
C2444 H2460 0.931 . S
C2445 C2444 1.370 1_655 S
C2445 C2449 1.408 . S
C2446 C2444 1.363 . S
C2446 C2447 1.370 1_455 S
C2446 C2450 1.524 . S
C2447 C2439 1.503 . S
C2447 C2446 1.370 1_655 S
C2447 C2448 1.403 . S
C2448 C2447 1.403 . S
C2448 C2449 1.404 . S
C2448 C2451 1.539 . S
C2449 C2445 1.408 . S
C2449 C2448 1.404 . S
C2449 H2461 0.930 . S
C2450 C2446 1.524 . S
C2450 H2462 0.956 . S
C2450 H2463 0.961 . S
C2450 H2464 0.961 . S
C2451 C2448 1.539 . S
C2451 H2465 0.958 . S
C2451 H2466 0.961 . S
C2451 H2467 0.960 . S
H2452 C2436 0.920 . S
H2453 C2441 0.929 1_455 S
H2454 C2442 0.960 . S
H2455 C2442 0.962 1_455 S
H2456 C2442 0.960 . S
H2457 C2443 0.961 1_455 S
H2458 C2443 0.961 1_455 S
H2459 C2443 0.961 . S
H2460 C2444 0.931 . S
H2461 C2449 0.930 . S
H2462 C2450 0.956 . S
H2463 C2450 0.961 . S
H2464 C2450 0.961 . S
H2465 C2451 0.958 . S
H2466 C2451 0.961 . S
H2467 C2451 0.960 . S
C2468 C2469 1.391 . S
C2468 C2470 1.394 . S
C2468 H2484 0.931 . S
C2469 C2468 1.391 . S
C2469 C2473 1.376 . S
C2470 C2468 1.394 . S
C2470 C2471 1.369 . S
C2470 C2474 1.531 . S
C2471 C2470 1.369 . S
C2471 C2472 1.410 . S
C2471 C2479 1.503 . S
C2472 C2471 1.410 . S
C2472 C2473 1.392 . S
C2472 C2475 1.511 . S
C2473 C2469 1.376 . S
C2473 C2472 1.392 . S
C2473 H2485 0.929 . S
C2474 C2470 1.531 . S
C2474 H2486 0.960 . S
C2474 H2487 0.962 . S
C2474 H2488 0.960 . S
C2475 C2472 1.511 . S
C2475 H2489 0.961 . S
C2475 H2490 0.961 . S
C2475 H2491 0.961 . S
C2476 C2477 1.370 . S
C2476 C2478 1.363 . S
C2476 H2492 0.931 . S
C2477 C2476 1.370 . S
C2477 C2481 1.408 . S
C2478 C2476 1.363 . S
C2478 C2479 1.370 . S
C2478 C2482 1.524 . S
C2479 C2471 1.503 . S
C2479 C2478 1.370 . S
C2479 C2480 1.403 . S
C2480 C2479 1.403 . S
C2480 C2481 1.404 . S
C2480 C2483 1.539 . S
C2481 C2477 1.408 . S
C2481 C2480 1.404 . S
C2481 H2493 0.930 . S
C2482 C2478 1.524 . S
C2482 H2494 0.956 . S
C2482 H2495 0.961 . S
C2482 H2496 0.961 . S
C2483 C2480 1.539 . S
C2483 H2497 0.958 . S
C2483 H2498 0.961 . S
C2483 H2499 0.960 . S
H2484 C2468 0.931 . S
H2485 C2473 0.929 . S
H2486 C2474 0.960 . S
H2487 C2474 0.962 . S
H2488 C2474 0.960 . S
H2489 C2475 0.961 . S
H2490 C2475 0.961 . S
H2491 C2475 0.961 . S
H2492 C2476 0.931 . S
H2493 C2481 0.930 . S
H2494 C2482 0.956 . S
H2495 C2482 0.961 . S
H2496 C2482 0.961 . S
H2497 C2483 0.958 . S
H2498 C2483 0.961 . S
H2499 C2483 0.960 . S
C2500 C2501 1.391 1_565 S
C2500 C2502 1.394 . S
C2500 H2516 0.931 . S
C2501 C2500 1.391 1_545 S
C2501 C2505 1.376 . S
C2502 C2500 1.394 . S
C2502 C2503 1.369 . S
C2502 C2506 1.531 . S
C2503 C2502 1.369 . S
C2503 C2504 1.410 1_565 S
C2503 C2511 1.503 . S
C2504 C2503 1.410 1_545 S
C2504 C2505 1.392 . S
C2504 C2507 1.511 . S
C2505 C2501 1.376 . S
C2505 C2504 1.392 . S
C2505 H2517 0.929 . S
C2506 C2502 1.531 . S
C2506 H2518 0.960 . S
C2506 H2519 0.962 . S
C2506 H2520 0.960 . S
C2507 C2504 1.511 . S
C2507 H2521 0.961 . S
C2507 H2522 0.961 . S
C2507 H2523 0.961 . S
C2508 C2509 1.370 1_545 S
C2508 C2510 1.363 . S
C2508 H2524 0.931 . S
C2509 C2508 1.370 1_565 S
C2509 C2513 1.408 . S
C2510 C2508 1.363 . S
C2510 C2511 1.370 1_545 S
C2510 C2514 1.524 . S
C2511 C2503 1.503 . S
C2511 C2510 1.370 1_565 S
C2511 C2512 1.403 . S
C2512 C2511 1.403 . S
C2512 C2513 1.404 . S
C2512 C2515 1.539 . S
C2513 C2509 1.408 . S
C2513 C2512 1.404 . S
C2513 H2525 0.930 . S
C2514 C2510 1.524 . S
C2514 H2526 0.956 . S
C2514 H2527 0.961 . S
C2514 H2528 0.961 . S
C2515 C2512 1.539 . S
C2515 H2529 0.958 . S
C2515 H2530 0.961 . S
C2515 H2531 0.960 . S
H2516 C2500 0.931 . S
H2517 C2505 0.929 . S
H2518 C2506 0.960 . S
H2519 C2506 0.962 . S
H2520 C2506 0.960 . S
H2521 C2507 0.961 . S
H2522 C2507 0.961 . S
H2523 C2507 0.961 . S
H2524 C2508 0.931 . S
H2525 C2513 0.930 . S
H2526 C2514 0.956 . S
H2527 C2514 0.961 . S
H2528 C2514 0.961 . S
H2529 C2515 0.958 . S
H2530 C2515 0.961 . S
H2531 C2515 0.960 . S
C2532 C2533 1.391 . S
C2532 C2534 1.394 . S
C2532 H2548 0.931 . S
C2533 C2532 1.391 . S
C2533 C2537 1.376 . S
C2534 C2532 1.394 . S
C2534 C2535 1.369 . S
C2534 C2538 1.531 . S
C2535 C2534 1.369 . S
C2535 C2536 1.410 . S
C2535 C2543 1.503 . S
C2536 C2535 1.410 . S
C2536 C2537 1.392 . S
C2536 C2539 1.511 . S
C2537 C2533 1.376 . S
C2537 C2536 1.392 . S
C2537 H2549 0.929 . S
C2538 C2534 1.531 . S
C2538 H2550 0.960 . S
C2538 H2551 0.962 . S
C2538 H2552 0.960 . S
C2539 C2536 1.511 . S
C2539 H2553 0.961 . S
C2539 H2554 0.961 . S
C2539 H2555 0.961 . S
C2540 C2541 1.370 . S
C2540 C2542 1.363 . S
C2540 H2556 0.931 . S
C2541 C2540 1.370 . S
C2541 C2545 1.408 . S
C2542 C2540 1.363 . S
C2542 C2543 1.370 . S
C2542 C2546 1.524 . S
C2543 C2535 1.503 . S
C2543 C2542 1.370 . S
C2543 C2544 1.403 . S
C2544 C2543 1.403 . S
C2544 C2545 1.404 . S
C2544 C2547 1.539 . S
C2545 C2541 1.408 . S
C2545 C2544 1.404 . S
C2545 H2557 0.930 . S
C2546 C2542 1.524 . S
C2546 H2558 0.956 . S
C2546 H2559 0.961 . S
C2546 H2560 0.961 . S
C2547 C2544 1.539 . S
C2547 H2561 0.958 . S
C2547 H2562 0.961 . S
C2547 H2563 0.960 . S
H2548 C2532 0.931 . S
H2549 C2537 0.929 . S
H2550 C2538 0.960 . S
H2551 C2538 0.962 . S
H2552 C2538 0.960 . S
H2553 C2539 0.961 . S
H2554 C2539 0.961 . S
H2555 C2539 0.961 . S
H2556 C2540 0.931 . S
H2557 C2545 0.930 . S
H2558 C2546 0.956 . S
H2559 C2546 0.961 . S
H2560 C2546 0.961 . S
H2561 C2547 0.958 . S
H2562 C2547 0.961 . S
H2563 C2547 0.960 . S
C2564 C2565 1.391 . S
C2564 C2566 1.394 . S
C2564 H2580 0.931 . S
C2565 C2564 1.391 . S
C2565 C2569 1.376 . S
C2566 C2564 1.394 . S
C2566 C2567 1.369 . S
C2566 C2570 1.531 . S
C2567 C2566 1.369 . S
C2567 C2568 1.410 . S
C2567 C2575 1.503 . S
C2568 C2567 1.410 . S
C2568 C2569 1.392 . S
C2568 C2571 1.511 . S
C2569 C2565 1.376 . S
C2569 C2568 1.392 . S
C2569 H2581 0.929 . S
C2570 C2566 1.531 . S
C2570 H2582 0.960 . S
C2570 H2583 0.962 . S
C2570 H2584 0.960 . S
C2571 C2568 1.511 . S
C2571 H2585 0.961 . S
C2571 H2586 0.961 . S
C2571 H2587 0.961 . S
C2572 C2573 1.370 . S
C2572 C2574 1.363 . S
C2572 H2588 0.931 . S
C2573 C2572 1.370 . S
C2573 C2577 1.408 . S
C2574 C2572 1.363 . S
C2574 C2575 1.370 . S
C2574 C2578 1.524 . S
C2575 C2567 1.503 . S
C2575 C2574 1.370 . S
C2575 C2576 1.403 . S
C2576 C2575 1.403 . S
C2576 C2577 1.404 . S
C2576 C2579 1.539 . S
C2577 C2573 1.408 . S
C2577 C2576 1.404 . S
C2577 H2589 0.930 . S
C2578 C2574 1.524 . S
C2578 H2590 0.956 . S
C2578 H2591 0.961 . S
C2578 H2592 0.961 . S
C2579 C2576 1.539 . S
C2579 H2593 0.958 . S
C2579 H2594 0.961 . S
C2579 H2595 0.960 . S
H2580 C2564 0.931 . S
H2581 C2569 0.929 . S
H2582 C2570 0.960 . S
H2583 C2570 0.962 . S
H2584 C2570 0.960 . S
H2585 C2571 0.961 . S
H2586 C2571 0.961 . S
H2587 C2571 0.961 . S
H2588 C2572 0.931 . S
H2589 C2577 0.930 . S
H2590 C2578 0.956 . S
H2591 C2578 0.961 . S
H2592 C2578 0.961 . S
H2593 C2579 0.958 . S
H2594 C2579 0.961 . S
H2595 C2579 0.960 . S
C2596 C2597 1.391 . S
C2596 C2598 1.394 . S
C2596 H2612 0.931 . S
C2597 C2596 1.391 . S
C2597 C2601 1.376 . S
C2598 C2596 1.394 . S
C2598 C2599 1.369 . S
C2598 C2602 1.531 . S
C2599 C2598 1.369 . S
C2599 C2600 1.410 . S
C2599 C2607 1.503 . S
C2600 C2599 1.410 . S
C2600 C2601 1.392 . S
C2600 C2603 1.511 . S
C2601 C2597 1.376 . S
C2601 C2600 1.392 . S
C2601 H2613 0.929 . S
C2602 C2598 1.531 . S
C2602 H2614 0.960 . S
C2602 H2615 0.962 . S
C2602 H2616 0.960 . S
C2603 C2600 1.511 . S
C2603 H2617 0.961 . S
C2603 H2618 0.961 . S
C2603 H2619 0.961 . S
C2604 C2605 1.370 . S
C2604 C2606 1.363 . S
C2604 H2620 0.931 . S
C2605 C2604 1.370 . S
C2605 C2609 1.408 . S
C2606 C2604 1.363 . S
C2606 C2607 1.370 . S
C2606 C2610 1.524 . S
C2607 C2599 1.503 . S
C2607 C2606 1.370 . S
C2607 C2608 1.403 . S
C2608 C2607 1.403 . S
C2608 C2609 1.404 . S
C2608 C2611 1.539 . S
C2609 C2605 1.408 . S
C2609 C2608 1.404 . S
C2609 H2621 0.930 . S
C2610 C2606 1.524 . S
C2610 H2622 0.956 . S
C2610 H2623 0.961 . S
C2610 H2624 0.961 . S
C2611 C2608 1.539 . S
C2611 H2625 0.958 . S
C2611 H2626 0.961 . S
C2611 H2627 0.960 . S
H2612 C2596 0.931 . S
H2613 C2601 0.929 . S
H2614 C2602 0.960 . S
H2615 C2602 0.962 . S
H2616 C2602 0.960 . S
H2617 C2603 0.961 . S
H2618 C2603 0.961 . S
H2619 C2603 0.961 . S
H2620 C2604 0.931 . S
H2621 C2609 0.930 . S
H2622 C2610 0.956 . S
H2623 C2610 0.961 . S
H2624 C2610 0.961 . S
H2625 C2611 0.958 . S
H2626 C2611 0.961 . S
H2627 C2611 0.960 . S
C2628 C2629 1.391 . S
C2628 C2630 1.394 . S
C2628 H2644 0.931 . S
C2629 C2628 1.391 . S
C2629 C2633 1.376 . S
C2630 C2628 1.394 . S
C2630 C2631 1.369 . S
C2630 C2634 1.531 . S
C2631 C2630 1.369 . S
C2631 C2632 1.410 . S
C2631 C2639 1.503 . S
C2632 C2631 1.410 . S
C2632 C2633 1.392 . S
C2632 C2635 1.511 . S
C2633 C2629 1.376 . S
C2633 C2632 1.392 . S
C2633 H2645 0.929 . S
C2634 C2630 1.531 . S
C2634 H2646 0.960 . S
C2634 H2647 0.962 . S
C2634 H2648 0.960 . S
C2635 C2632 1.511 . S
C2635 H2649 0.961 . S
C2635 H2650 0.961 . S
C2635 H2651 0.961 . S
C2636 C2637 1.370 . S
C2636 C2638 1.363 . S
C2636 H2652 0.931 . S
C2637 C2636 1.370 . S
C2637 C2641 1.408 . S
C2638 C2636 1.363 . S
C2638 C2639 1.370 . S
C2638 C2642 1.524 . S
C2639 C2631 1.503 . S
C2639 C2638 1.370 . S
C2639 C2640 1.403 . S
C2640 C2639 1.403 . S
C2640 C2641 1.404 . S
C2640 C2643 1.539 . S
C2641 C2637 1.408 . S
C2641 C2640 1.404 . S
C2641 H2653 0.930 . S
C2642 C2638 1.524 . S
C2642 H2654 0.956 . S
C2642 H2655 0.961 . S
C2642 H2656 0.961 . S
C2643 C2640 1.539 . S
C2643 H2657 0.958 . S
C2643 H2658 0.961 . S
C2643 H2659 0.960 . S
H2644 C2628 0.931 . S
H2645 C2633 0.929 . S
H2646 C2634 0.960 . S
H2647 C2634 0.962 . S
H2648 C2634 0.960 . S
H2649 C2635 0.961 . S
H2650 C2635 0.961 . S
H2651 C2635 0.961 . S
H2652 C2636 0.931 . S
H2653 C2641 0.930 . S
H2654 C2642 0.956 . S
H2655 C2642 0.961 . S
H2656 C2642 0.961 . S
H2657 C2643 0.958 . S
H2658 C2643 0.961 . S
H2659 C2643 0.960 . S
C2660 C2661 1.391 . S
C2660 C2662 1.394 . S
C2660 H2676 0.931 . S
C2661 C2660 1.391 . S
C2661 C2665 1.376 . S
C2662 C2660 1.394 . S
C2662 C2663 1.369 . S
C2662 C2666 1.531 . S
C2663 C2662 1.369 . S
C2663 C2664 1.410 . S
C2663 C2671 1.503 . S
C2664 C2663 1.410 . S
C2664 C2665 1.392 . S
C2664 C2667 1.511 . S
C2665 C2661 1.376 . S
C2665 C2664 1.392 . S
C2665 H2677 0.929 . S
C2666 C2662 1.531 . S
C2666 H2678 0.960 . S
C2666 H2679 0.962 . S
C2666 H2680 0.960 . S
C2667 C2664 1.511 . S
C2667 H2681 0.961 . S
C2667 H2682 0.961 . S
C2667 H2683 0.961 . S
C2668 C2669 1.370 . S
C2668 C2670 1.363 . S
C2668 H2684 0.931 . S
C2669 C2668 1.370 . S
C2669 C2673 1.408 . S
C2670 C2668 1.363 . S
C2670 C2671 1.370 . S
C2670 C2674 1.524 . S
C2671 C2663 1.503 . S
C2671 C2670 1.370 . S
C2671 C2672 1.403 . S
C2672 C2671 1.403 . S
C2672 C2673 1.404 . S
C2672 C2675 1.539 . S
C2673 C2669 1.408 . S
C2673 C2672 1.404 . S
C2673 H2685 0.930 . S
C2674 C2670 1.524 . S
C2674 H2686 0.956 . S
C2674 H2687 0.961 . S
C2674 H2688 0.961 . S
C2675 C2672 1.539 . S
C2675 H2689 0.958 . S
C2675 H2690 0.961 . S
C2675 H2691 0.960 . S
H2676 C2660 0.931 . S
H2677 C2665 0.929 . S
H2678 C2666 0.960 . S
H2679 C2666 0.962 . S
H2680 C2666 0.960 . S
H2681 C2667 0.961 . S
H2682 C2667 0.961 . S
H2683 C2667 0.961 . S
H2684 C2668 0.931 . S
H2685 C2673 0.930 . S
H2686 C2674 0.956 . S
H2687 C2674 0.961 . S
H2688 C2674 0.961 . S
H2689 C2675 0.958 . S
H2690 C2675 0.961 . S
H2691 C2675 0.960 . S
C2692 C2693 1.391 . S
C2692 C2694 1.394 . S
C2692 H2708 0.931 . S
C2693 C2692 1.391 . S
C2693 C2697 1.376 . S
C2694 C2692 1.394 . S
C2694 C2695 1.369 . S
C2694 C2698 1.531 . S
C2695 C2694 1.369 . S
C2695 C2696 1.410 . S
C2695 C2703 1.503 . S
C2696 C2695 1.410 . S
C2696 C2697 1.392 . S
C2696 C2699 1.511 . S
C2697 C2693 1.376 . S
C2697 C2696 1.392 . S
C2697 H2709 0.929 . S
C2698 C2694 1.531 . S
C2698 H2710 0.960 . S
C2698 H2711 0.962 . S
C2698 H2712 0.960 . S
C2699 C2696 1.511 . S
C2699 H2713 0.961 . S
C2699 H2714 0.961 . S
C2699 H2715 0.961 . S
C2700 C2701 1.370 . S
C2700 C2702 1.363 . S
C2700 H2716 0.931 . S
C2701 C2700 1.370 . S
C2701 C2705 1.408 . S
C2702 C2700 1.363 . S
C2702 C2703 1.370 . S
C2702 C2706 1.524 . S
C2703 C2695 1.503 . S
C2703 C2702 1.370 . S
C2703 C2704 1.403 . S
C2704 C2703 1.403 . S
C2704 C2705 1.404 . S
C2704 C2707 1.539 . S
C2705 C2701 1.408 . S
C2705 C2704 1.404 . S
C2705 H2717 0.930 . S
C2706 C2702 1.524 . S
C2706 H2718 0.956 . S
C2706 H2719 0.961 . S
C2706 H2720 0.961 . S
C2707 C2704 1.539 . S
C2707 H2721 0.958 . S
C2707 H2722 0.961 . S
C2707 H2723 0.960 . S
H2708 C2692 0.931 . S
H2709 C2697 0.929 . S
H2710 C2698 0.960 . S
H2711 C2698 0.962 . S
H2712 C2698 0.960 . S
H2713 C2699 0.961 . S
H2714 C2699 0.961 . S
H2715 C2699 0.961 . S
H2716 C2700 0.931 . S
H2717 C2705 0.930 . S
H2718 C2706 0.956 . S
H2719 C2706 0.961 . S
H2720 C2706 0.961 . S
H2721 C2707 0.958 . S
H2722 C2707 0.961 . S
H2723 C2707 0.960 . S
C2724 C2725 1.391 . S
C2724 C2726 1.394 . S
C2724 H2740 0.931 . S
C2725 C2724 1.391 . S
C2725 C2729 1.376 . S
C2726 C2724 1.394 . S
C2726 C2727 1.369 . S
C2726 C2730 1.531 . S
C2727 C2726 1.369 . S
C2727 C2728 1.410 . S
C2727 C2735 1.503 . S
C2728 C2727 1.410 . S
C2728 C2729 1.392 . S
C2728 C2731 1.511 . S
C2729 C2725 1.376 . S
C2729 C2728 1.392 . S
C2729 H2741 0.929 . S
C2730 C2726 1.531 . S
C2730 H2742 0.960 . S
C2730 H2743 0.962 . S
C2730 H2744 0.960 . S
C2731 C2728 1.511 . S
C2731 H2745 0.961 . S
C2731 H2746 0.961 . S
C2731 H2747 0.961 . S
C2732 C2733 1.370 . S
C2732 C2734 1.363 . S
C2732 H2748 0.931 . S
C2733 C2732 1.370 . S
C2733 C2737 1.408 . S
C2734 C2732 1.363 . S
C2734 C2735 1.370 . S
C2734 C2738 1.524 . S
C2735 C2727 1.503 . S
C2735 C2734 1.370 . S
C2735 C2736 1.403 . S
C2736 C2735 1.403 . S
C2736 C2737 1.404 . S
C2736 C2739 1.539 . S
C2737 C2733 1.408 . S
C2737 C2736 1.404 . S
C2737 H2749 0.930 . S
C2738 C2734 1.524 . S
C2738 H2750 0.956 . S
C2738 H2751 0.961 . S
C2738 H2752 0.961 . S
C2739 C2736 1.539 . S
C2739 H2753 0.958 . S
C2739 H2754 0.961 . S
C2739 H2755 0.960 . S
H2740 C2724 0.931 . S
H2741 C2729 0.929 . S
H2742 C2730 0.960 . S
H2743 C2730 0.962 . S
H2744 C2730 0.960 . S
H2745 C2731 0.961 . S
H2746 C2731 0.961 . S
H2747 C2731 0.961 . S
H2748 C2732 0.931 . S
H2749 C2737 0.930 . S
H2750 C2738 0.956 . S
H2751 C2738 0.961 . S
H2752 C2738 0.961 . S
H2753 C2739 0.958 . S
H2754 C2739 0.961 . S
H2755 C2739 0.960 . S
C2756 C2757 1.391 . S
C2756 C2758 1.394 . S
C2756 H2772 0.931 . S
C2757 C2756 1.391 . S
C2757 C2761 1.376 . S
C2758 C2756 1.394 . S
C2758 C2759 1.369 . S
C2758 C2762 1.531 . S
C2759 C2758 1.369 . S
C2759 C2760 1.410 . S
C2759 C2767 1.503 . S
C2760 C2759 1.410 . S
C2760 C2761 1.392 . S
C2760 C2763 1.511 . S
C2761 C2757 1.376 . S
C2761 C2760 1.392 . S
C2761 H2773 0.929 . S
C2762 C2758 1.531 . S
C2762 H2774 0.960 . S
C2762 H2775 0.962 . S
C2762 H2776 0.960 . S
C2763 C2760 1.511 . S
C2763 H2777 0.961 . S
C2763 H2778 0.961 . S
C2763 H2779 0.961 . S
C2764 C2765 1.370 . S
C2764 C2766 1.363 . S
C2764 H2780 0.931 . S
C2765 C2764 1.370 . S
C2765 C2769 1.408 . S
C2766 C2764 1.363 . S
C2766 C2767 1.370 . S
C2766 C2770 1.524 . S
C2767 C2759 1.503 . S
C2767 C2766 1.370 . S
C2767 C2768 1.403 . S
C2768 C2767 1.403 . S
C2768 C2769 1.404 . S
C2768 C2771 1.539 . S
C2769 C2765 1.408 . S
C2769 C2768 1.404 . S
C2769 H2781 0.930 . S
C2770 C2766 1.524 . S
C2770 H2782 0.956 . S
C2770 H2783 0.961 . S
C2770 H2784 0.961 . S
C2771 C2768 1.539 . S
C2771 H2785 0.958 . S
C2771 H2786 0.961 . S
C2771 H2787 0.960 . S
H2772 C2756 0.931 . S
H2773 C2761 0.929 . S
H2774 C2762 0.960 . S
H2775 C2762 0.962 . S
H2776 C2762 0.960 . S
H2777 C2763 0.961 . S
H2778 C2763 0.961 . S
H2779 C2763 0.961 . S
H2780 C2764 0.931 . S
H2781 C2769 0.930 . S
H2782 C2770 0.956 . S
H2783 C2770 0.961 . S
H2784 C2770 0.961 . S
H2785 C2771 0.958 . S
H2786 C2771 0.961 . S
H2787 C2771 0.960 . S
C2788 C2789 1.391 . S
C2788 C2790 1.394 . S
C2788 H2804 0.931 . S
C2789 C2788 1.391 . S
C2789 C2793 1.376 . S
C2790 C2788 1.394 . S
C2790 C2791 1.369 . S
C2790 C2794 1.531 . S
C2791 C2790 1.369 . S
C2791 C2792 1.410 . S
C2791 C2799 1.503 . S
C2792 C2791 1.410 . S
C2792 C2793 1.392 . S
C2792 C2795 1.511 . S
C2793 C2789 1.376 . S
C2793 C2792 1.392 . S
C2793 H2805 0.929 . S
C2794 C2790 1.531 . S
C2794 H2806 0.960 . S
C2794 H2807 0.962 . S
C2794 H2808 0.960 . S
C2795 C2792 1.511 . S
C2795 H2809 0.961 . S
C2795 H2810 0.961 . S
C2795 H2811 0.961 . S
C2796 C2797 1.370 . S
C2796 C2798 1.363 . S
C2796 H2812 0.931 . S
C2797 C2796 1.370 . S
C2797 C2801 1.408 . S
C2798 C2796 1.363 . S
C2798 C2799 1.370 . S
C2798 C2802 1.524 . S
C2799 C2791 1.503 . S
C2799 C2798 1.370 . S
C2799 C2800 1.403 . S
C2800 C2799 1.403 . S
C2800 C2801 1.404 . S
C2800 C2803 1.539 . S
C2801 C2797 1.408 . S
C2801 C2800 1.404 . S
C2801 H2813 0.930 . S
C2802 C2798 1.524 . S
C2802 H2814 0.956 . S
C2802 H2815 0.961 . S
C2802 H2816 0.961 . S
C2803 C2800 1.539 . S
C2803 H2817 0.958 . S
C2803 H2818 0.961 . S
C2803 H2819 0.960 . S
H2804 C2788 0.931 . S
H2805 C2793 0.929 . S
H2806 C2794 0.960 . S
H2807 C2794 0.962 . S
H2808 C2794 0.960 . S
H2809 C2795 0.961 . S
H2810 C2795 0.961 . S
H2811 C2795 0.961 . S
H2812 C2796 0.931 . S
H2813 C2801 0.930 . S
H2814 C2802 0.956 . S
H2815 C2802 0.961 . S
H2816 C2802 0.961 . S
H2817 C2803 0.958 . S
H2818 C2803 0.961 . S
H2819 C2803 0.960 . S
C2820 C2821 1.391 . S
C2820 C2822 1.394 . S
C2820 H2836 0.931 . S
C2821 C2820 1.391 . S
C2821 C2825 1.376 . S
C2822 C2820 1.394 . S
C2822 C2823 1.369 . S
C2822 C2826 1.531 . S
C2823 C2822 1.369 . S
C2823 C2824 1.410 . S
C2823 C2831 1.503 . S
C2824 C2823 1.410 . S
C2824 C2825 1.392 . S
C2824 C2827 1.511 . S
C2825 C2821 1.376 . S
C2825 C2824 1.392 . S
C2825 H2837 0.929 . S
C2826 C2822 1.531 . S
C2826 H2838 0.960 . S
C2826 H2839 0.962 . S
C2826 H2840 0.960 . S
C2827 C2824 1.511 . S
C2827 H2841 0.961 . S
C2827 H2842 0.961 . S
C2827 H2843 0.961 . S
C2828 C2829 1.370 . S
C2828 C2830 1.363 . S
C2828 H2844 0.931 . S
C2829 C2828 1.370 . S
C2829 C2833 1.408 . S
C2830 C2828 1.363 . S
C2830 C2831 1.370 . S
C2830 C2834 1.524 . S
C2831 C2823 1.503 . S
C2831 C2830 1.370 . S
C2831 C2832 1.403 . S
C2832 C2831 1.403 . S
C2832 C2833 1.404 . S
C2832 C2835 1.539 . S
C2833 C2829 1.408 . S
C2833 C2832 1.404 . S
C2833 H2845 0.930 . S
C2834 C2830 1.524 . S
C2834 H2846 0.956 . S
C2834 H2847 0.961 . S
C2834 H2848 0.961 . S
C2835 C2832 1.539 . S
C2835 H2849 0.958 . S
C2835 H2850 0.961 . S
C2835 H2851 0.960 . S
H2836 C2820 0.931 . S
H2837 C2825 0.929 . S
H2838 C2826 0.960 . S
H2839 C2826 0.962 . S
H2840 C2826 0.960 . S
H2841 C2827 0.961 . S
H2842 C2827 0.961 . S
H2843 C2827 0.961 . S
H2844 C2828 0.931 . S
H2845 C2833 0.930 . S
H2846 C2834 0.956 . S
H2847 C2834 0.961 . S
H2848 C2834 0.961 . S
H2849 C2835 0.958 . S
H2850 C2835 0.961 . S
H2851 C2835 0.960 . S
C2852 C2853 1.391 . S
C2852 C2854 1.394 . S
C2852 H2868 0.931 . S
C2853 C2852 1.391 . S
C2853 C2857 1.376 . S
C2854 C2852 1.394 . S
C2854 C2855 1.369 . S
C2854 C2858 1.531 . S
C2855 C2854 1.369 . S
C2855 C2856 1.410 . S
C2855 C2863 1.503 . S
C2856 C2855 1.410 . S
C2856 C2857 1.392 . S
C2856 C2859 1.511 . S
C2857 C2853 1.376 . S
C2857 C2856 1.392 . S
C2857 H2869 0.929 . S
C2858 C2854 1.531 . S
C2858 H2870 0.960 . S
C2858 H2871 0.962 . S
C2858 H2872 0.960 . S
C2859 C2856 1.511 . S
C2859 H2873 0.961 . S
C2859 H2874 0.961 . S
C2859 H2875 0.961 . S
C2860 C2861 1.370 . S
C2860 C2862 1.363 . S
C2860 H2876 0.931 . S
C2861 C2860 1.370 . S
C2861 C2865 1.408 . S
C2862 C2860 1.363 . S
C2862 C2863 1.370 . S
C2862 C2866 1.524 . S
C2863 C2855 1.503 . S
C2863 C2862 1.370 . S
C2863 C2864 1.403 . S
C2864 C2863 1.403 . S
C2864 C2865 1.404 . S
C2864 C2867 1.539 . S
C2865 C2861 1.408 . S
C2865 C2864 1.404 . S
C2865 H2877 0.930 . S
C2866 C2862 1.524 . S
C2866 H2878 0.956 . S
C2866 H2879 0.961 . S
C2866 H2880 0.961 . S
C2867 C2864 1.539 . S
C2867 H2881 0.958 . S
C2867 H2882 0.961 . S
C2867 H2883 0.960 . S
H2868 C2852 0.931 . S
H2869 C2857 0.929 . S
H2870 C2858 0.960 . S
H2871 C2858 0.962 . S
H2872 C2858 0.960 . S
H2873 C2859 0.961 . S
H2874 C2859 0.961 . S
H2875 C2859 0.961 . S
H2876 C2860 0.931 . S
H2877 C2865 0.930 . S
H2878 C2866 0.956 . S
H2879 C2866 0.961 . S
H2880 C2866 0.961 . S
H2881 C2867 0.958 . S
H2882 C2867 0.961 . S
H2883 C2867 0.960 . S
C2884 C2885 1.391 . S
C2884 C2886 1.394 . S
C2884 H2900 0.931 . S
C2885 C2884 1.391 . S
C2885 C2889 1.376 . S
C2886 C2884 1.394 . S
C2886 C2887 1.369 . S
C2886 C2890 1.531 . S
C2887 C2886 1.369 . S
C2887 C2888 1.410 . S
C2887 C2895 1.503 . S
C2888 C2887 1.410 . S
C2888 C2889 1.392 . S
C2888 C2891 1.511 . S
C2889 C2885 1.376 . S
C2889 C2888 1.392 . S
C2889 H2901 0.929 . S
C2890 C2886 1.531 . S
C2890 H2902 0.960 . S
C2890 H2903 0.962 . S
C2890 H2904 0.960 . S
C2891 C2888 1.511 . S
C2891 H2905 0.961 . S
C2891 H2906 0.961 . S
C2891 H2907 0.961 . S
C2892 C2893 1.370 . S
C2892 C2894 1.363 . S
C2892 H2908 0.931 . S
C2893 C2892 1.370 . S
C2893 C2897 1.408 . S
C2894 C2892 1.363 . S
C2894 C2895 1.370 . S
C2894 C2898 1.524 . S
C2895 C2887 1.503 . S
C2895 C2894 1.370 . S
C2895 C2896 1.403 . S
C2896 C2895 1.403 . S
C2896 C2897 1.404 . S
C2896 C2899 1.539 . S
C2897 C2893 1.408 . S
C2897 C2896 1.404 . S
C2897 H2909 0.930 . S
C2898 C2894 1.524 . S
C2898 H2910 0.956 . S
C2898 H2911 0.961 . S
C2898 H2912 0.961 . S
C2899 C2896 1.539 . S
C2899 H2913 0.958 . S
C2899 H2914 0.961 . S
C2899 H2915 0.960 . S
H2900 C2884 0.931 . S
H2901 C2889 0.929 . S
H2902 C2890 0.960 . S
H2903 C2890 0.962 . S
H2904 C2890 0.960 . S
H2905 C2891 0.961 . S
H2906 C2891 0.961 . S
H2907 C2891 0.961 . S
H2908 C2892 0.931 . S
H2909 C2897 0.930 . S
H2910 C2898 0.956 . S
H2911 C2898 0.961 . S
H2912 C2898 0.961 . S
H2913 C2899 0.958 . S
H2914 C2899 0.961 . S
H2915 C2899 0.960 . S
C2916 C2917 1.391 . S
C2916 C2918 1.394 . S
C2916 H2932 0.931 . S
C2917 C2916 1.391 . S
C2917 C2921 1.376 . S
C2918 C2916 1.394 . S
C2918 C2919 1.369 . S
C2918 C2922 1.531 . S
C2919 C2918 1.369 . S
C2919 C2920 1.410 . S
C2919 C2927 1.503 . S
C2920 C2919 1.410 . S
C2920 C2921 1.392 . S
C2920 C2923 1.511 . S
C2921 C2917 1.376 . S
C2921 C2920 1.392 . S
C2921 H2933 0.929 . S
C2922 C2918 1.531 . S
C2922 H2934 0.960 . S
C2922 H2935 0.962 . S
C2922 H2936 0.960 . S
C2923 C2920 1.511 . S
C2923 H2937 0.961 . S
C2923 H2938 0.961 . S
C2923 H2939 0.961 . S
C2924 C2925 1.370 . S
C2924 C2926 1.363 . S
C2924 H2940 0.931 . S
C2925 C2924 1.370 . S
C2925 C2929 1.408 . S
C2926 C2924 1.363 . S
C2926 C2927 1.370 . S
C2926 C2930 1.524 . S
C2927 C2919 1.503 . S
C2927 C2926 1.370 . S
C2927 C2928 1.403 . S
C2928 C2927 1.403 . S
C2928 C2929 1.404 . S
C2928 C2931 1.539 . S
C2929 C2925 1.408 . S
C2929 C2928 1.404 . S
C2929 H2941 0.930 . S
C2930 C2926 1.524 . S
C2930 H2942 0.956 . S
C2930 H2943 0.961 . S
C2930 H2944 0.961 . S
C2931 C2928 1.539 . S
C2931 H2945 0.958 . S
C2931 H2946 0.961 . S
C2931 H2947 0.960 . S
H2932 C2916 0.931 . S
H2933 C2921 0.929 . S
H2934 C2922 0.960 . S
H2935 C2922 0.962 . S
H2936 C2922 0.960 . S
H2937 C2923 0.961 . S
H2938 C2923 0.961 . S
H2939 C2923 0.961 . S
H2940 C2924 0.931 . S
H2941 C2929 0.930 . S
H2942 C2930 0.956 . S
H2943 C2930 0.961 . S
H2944 C2930 0.961 . S
H2945 C2931 0.958 . S
H2946 C2931 0.961 . S
H2947 C2931 0.960 . S
C2948 C2949 1.391 . S
C2948 C2950 1.394 . S
C2948 H2964 0.931 . S
C2949 C2948 1.391 . S
C2949 C2953 1.376 . S
C2950 C2948 1.394 . S
C2950 C2951 1.369 . S
C2950 C2954 1.531 . S
C2951 C2950 1.369 . S
C2951 C2952 1.410 . S
C2951 C2959 1.503 . S
C2952 C2951 1.410 . S
C2952 C2953 1.392 . S
C2952 C2955 1.511 . S
C2953 C2949 1.376 . S
C2953 C2952 1.392 . S
C2953 H2965 0.929 . S
C2954 C2950 1.531 . S
C2954 H2966 0.960 . S
C2954 H2967 0.962 . S
C2954 H2968 0.960 . S
C2955 C2952 1.511 . S
C2955 H2969 0.961 . S
C2955 H2970 0.961 . S
C2955 H2971 0.961 . S
C2956 C2957 1.370 . S
C2956 C2958 1.363 . S
C2956 H2972 0.931 . S
C2957 C2956 1.370 . S
C2957 C2961 1.408 . S
C2958 C2956 1.363 . S
C2958 C2959 1.370 . S
C2958 C2962 1.524 . S
C2959 C2951 1.503 . S
C2959 C2958 1.370 . S
C2959 C2960 1.403 . S
C2960 C2959 1.403 . S
C2960 C2961 1.404 . S
C2960 C2963 1.539 . S
C2961 C2957 1.408 . S
C2961 C2960 1.404 . S
C2961 H2973 0.930 . S
C2962 C2958 1.524 . S
C2962 H2974 0.956 . S
C2962 H2975 0.961 . S
C2962 H2976 0.961 . S
C2963 C2960 1.539 . S
C2963 H2977 0.958 . S
C2963 H2978 0.961 . S
C2963 H2979 0.960 . S
H2964 C2948 0.931 . S
H2965 C2953 0.929 . S
H2966 C2954 0.960 . S
H2967 C2954 0.962 . S
H2968 C2954 0.960 . S
H2969 C2955 0.961 . S
H2970 C2955 0.961 . S
H2971 C2955 0.961 . S
H2972 C2956 0.931 . S
H2973 C2961 0.930 . S
H2974 C2962 0.956 . S
H2975 C2962 0.961 . S
H2976 C2962 0.961 . S
H2977 C2963 0.958 . S
H2978 C2963 0.961 . S
H2979 C2963 0.960 . S
C2980 C2981 1.391 . S
C2980 C2982 1.394 . S
C2980 H2996 0.931 . S
C2981 C2980 1.391 . S
C2981 C2985 1.376 . S
C2982 C2980 1.394 . S
C2982 C2983 1.369 . S
C2982 C2986 1.531 . S
C2983 C2982 1.369 . S
C2983 C2984 1.410 . S
C2983 C2991 1.503 . S
C2984 C2983 1.410 . S
C2984 C2985 1.392 . S
C2984 C2987 1.511 . S
C2985 C2981 1.376 . S
C2985 C2984 1.392 . S
C2985 H2997 0.929 . S
C2986 C2982 1.531 . S
C2986 H2998 0.960 . S
C2986 H2999 0.962 . S
C2986 H3000 0.960 . S
C2987 C2984 1.511 . S
C2987 H3001 0.961 . S
C2987 H3002 0.961 . S
C2987 H3003 0.961 . S
C2988 C2989 1.370 . S
C2988 C2990 1.363 . S
C2988 H3004 0.931 . S
C2989 C2988 1.370 . S
C2989 C2993 1.408 . S
C2990 C2988 1.363 . S
C2990 C2991 1.370 . S
C2990 C2994 1.524 . S
C2991 C2983 1.503 . S
C2991 C2990 1.370 . S
C2991 C2992 1.403 . S
C2992 C2991 1.403 . S
C2992 C2993 1.404 . S
C2992 C2995 1.539 . S
C2993 C2989 1.408 . S
C2993 C2992 1.404 . S
C2993 H3005 0.930 . S
C2994 C2990 1.524 . S
C2994 H3006 0.956 . S
C2994 H3007 0.961 . S
C2994 H3008 0.961 . S
C2995 C2992 1.539 . S
C2995 H3009 0.958 . S
C2995 H3010 0.961 . S
C2995 H3011 0.960 . S
H2996 C2980 0.931 . S
H2997 C2985 0.929 . S
H2998 C2986 0.960 . S
H2999 C2986 0.962 . S
H3000 C2986 0.960 . S
H3001 C2987 0.961 . S
H3002 C2987 0.961 . S
H3003 C2987 0.961 . S
H3004 C2988 0.931 . S
H3005 C2993 0.930 . S
H3006 C2994 0.956 . S
H3007 C2994 0.961 . S
H3008 C2994 0.961 . S
H3009 C2995 0.958 . S
H3010 C2995 0.961 . S
H3011 C2995 0.960 . S
C3012 C3013 1.391 . S
C3012 C3014 1.394 . S
C3012 H3028 0.931 . S
C3013 C3012 1.391 . S
C3013 C3017 1.376 . S
C3014 C3012 1.394 . S
C3014 C3015 1.369 . S
C3014 C3018 1.531 . S
C3015 C3014 1.369 . S
C3015 C3016 1.410 . S
C3015 C3023 1.503 . S
C3016 C3015 1.410 . S
C3016 C3017 1.392 . S
C3016 C3019 1.511 . S
C3017 C3013 1.376 . S
C3017 C3016 1.392 . S
C3017 H3029 0.929 . S
C3018 C3014 1.531 . S
C3018 H3030 0.960 . S
C3018 H3031 0.962 . S
C3018 H3032 0.960 . S
C3019 C3016 1.511 . S
C3019 H3033 0.961 . S
C3019 H3034 0.961 . S
C3019 H3035 0.961 . S
C3020 C3021 1.370 . S
C3020 C3022 1.363 . S
C3020 H3036 0.931 . S
C3021 C3020 1.370 . S
C3021 C3025 1.408 . S
C3022 C3020 1.363 . S
C3022 C3023 1.370 . S
C3022 C3026 1.524 . S
C3023 C3015 1.503 . S
C3023 C3022 1.370 . S
C3023 C3024 1.403 . S
C3024 C3023 1.403 . S
C3024 C3025 1.404 . S
C3024 C3027 1.539 . S
C3025 C3021 1.408 . S
C3025 C3024 1.404 . S
C3025 H3037 0.930 . S
C3026 C3022 1.524 . S
C3026 H3038 0.956 . S
C3026 H3039 0.961 . S
C3026 H3040 0.961 . S
C3027 C3024 1.539 . S
C3027 H3041 0.958 . S
C3027 H3042 0.961 . S
C3027 H3043 0.960 . S
H3028 C3012 0.931 . S
H3029 C3017 0.929 . S
H3030 C3018 0.960 . S
H3031 C3018 0.962 . S
H3032 C3018 0.960 . S
H3033 C3019 0.961 . S
H3034 C3019 0.961 . S
H3035 C3019 0.961 . S
H3036 C3020 0.931 . S
H3037 C3025 0.930 . S
H3038 C3026 0.956 . S
H3039 C3026 0.961 . S
H3040 C3026 0.961 . S
H3041 C3027 0.958 . S
H3042 C3027 0.961 . S
H3043 C3027 0.960 . S
C3044 C3045 1.391 . S
C3044 C3046 1.394 . S
C3044 H3060 0.931 . S
C3045 C3044 1.391 . S
C3045 C3049 1.376 . S
C3046 C3044 1.394 . S
C3046 C3047 1.369 . S
C3046 C3050 1.531 . S
C3047 C3046 1.369 . S
C3047 C3048 1.410 . S
C3047 C3055 1.503 . S
C3048 C3047 1.410 . S
C3048 C3049 1.392 . S
C3048 C3051 1.511 . S
C3049 C3045 1.376 . S
C3049 C3048 1.392 . S
C3049 H3061 0.929 . S
C3050 C3046 1.531 . S
C3050 H3062 0.960 . S
C3050 H3063 0.962 . S
C3050 H3064 0.960 . S
C3051 C3048 1.511 . S
C3051 H3065 0.961 . S
C3051 H3066 0.961 . S
C3051 H3067 0.961 . S
C3052 C3053 1.370 . S
C3052 C3054 1.363 . S
C3052 H3068 0.931 . S
C3053 C3052 1.370 . S
C3053 C3057 1.408 . S
C3054 C3052 1.363 . S
C3054 C3055 1.370 . S
C3054 C3058 1.524 . S
C3055 C3047 1.503 . S
C3055 C3054 1.370 . S
C3055 C3056 1.403 . S
C3056 C3055 1.403 . S
C3056 C3057 1.404 . S
C3056 C3059 1.539 . S
C3057 C3053 1.408 . S
C3057 C3056 1.404 . S
C3057 H3069 0.930 . S
C3058 C3054 1.524 . S
C3058 H3070 0.956 . S
C3058 H3071 0.961 . S
C3058 H3072 0.961 . S
C3059 C3056 1.539 . S
C3059 H3073 0.958 . S
C3059 H3074 0.961 . S
C3059 H3075 0.960 . S
H3060 C3044 0.931 . S
H3061 C3049 0.929 . S
H3062 C3050 0.960 . S
H3063 C3050 0.962 . S
H3064 C3050 0.960 . S
H3065 C3051 0.961 . S
H3066 C3051 0.961 . S
H3067 C3051 0.961 . S
H3068 C3052 0.931 . S
H3069 C3057 0.930 . S
H3070 C3058 0.956 . S
H3071 C3058 0.961 . S
H3072 C3058 0.961 . S
H3073 C3059 0.958 . S
H3074 C3059 0.961 . S
H3075 C3059 0.960 . S
C3076 C3077 1.391 . S
C3076 C3078 1.394 . S
C3076 H3092 0.931 . S
C3077 C3076 1.391 . S
C3077 C3081 1.376 . S
C3078 C3076 1.394 . S
C3078 C3079 1.369 . S
C3078 C3082 1.531 . S
C3079 C3078 1.369 . S
C3079 C3080 1.410 . S
C3079 C3087 1.503 . S
C3080 C3079 1.410 . S
C3080 C3081 1.392 . S
C3080 C3083 1.511 . S
C3081 C3077 1.376 . S
C3081 C3080 1.392 . S
C3081 H3093 0.929 . S
C3082 C3078 1.531 . S
C3082 H3094 0.960 . S
C3082 H3095 0.962 . S
C3082 H3096 0.960 . S
C3083 C3080 1.511 . S
C3083 H3097 0.961 . S
C3083 H3098 0.961 . S
C3083 H3099 0.961 . S
C3084 C3085 1.370 . S
C3084 C3086 1.363 . S
C3084 H3100 0.931 . S
C3085 C3084 1.370 . S
C3085 C3089 1.408 . S
C3086 C3084 1.363 . S
C3086 C3087 1.370 . S
C3086 C3090 1.524 . S
C3087 C3079 1.503 . S
C3087 C3086 1.370 . S
C3087 C3088 1.403 . S
C3088 C3087 1.403 . S
C3088 C3089 1.404 . S
C3088 C3091 1.539 . S
C3089 C3085 1.408 . S
C3089 C3088 1.404 . S
C3089 H3101 0.930 . S
C3090 C3086 1.524 . S
C3090 H3102 0.956 . S
C3090 H3103 0.961 . S
C3090 H3104 0.961 . S
C3091 C3088 1.539 . S
C3091 H3105 0.958 . S
C3091 H3106 0.961 . S
C3091 H3107 0.960 . S
H3092 C3076 0.931 . S
H3093 C3081 0.929 . S
H3094 C3082 0.960 . S
H3095 C3082 0.962 . S
H3096 C3082 0.960 . S
H3097 C3083 0.961 . S
H3098 C3083 0.961 . S
H3099 C3083 0.961 . S
H3100 C3084 0.931 . S
H3101 C3089 0.930 . S
H3102 C3090 0.956 . S
H3103 C3090 0.961 . S
H3104 C3090 0.961 . S
H3105 C3091 0.958 . S
H3106 C3091 0.961 . S
H3107 C3091 0.960 . S
C3108 C3109 1.391 . S
C3108 C3110 1.394 . S
C3108 H3124 0.931 . S
C3109 C3108 1.391 . S
C3109 C3113 1.376 . S
C3110 C3108 1.394 . S
C3110 C3111 1.369 . S
C3110 C3114 1.531 . S
C3111 C3110 1.369 . S
C3111 C3112 1.410 . S
C3111 C3119 1.503 . S
C3112 C3111 1.410 . S
C3112 C3113 1.392 . S
C3112 C3115 1.511 . S
C3113 C3109 1.376 . S
C3113 C3112 1.392 . S
C3113 H3125 0.929 . S
C3114 C3110 1.531 . S
C3114 H3126 0.960 . S
C3114 H3127 0.962 . S
C3114 H3128 0.960 . S
C3115 C3112 1.511 . S
C3115 H3129 0.961 . S
C3115 H3130 0.961 . S
C3115 H3131 0.961 . S
C3116 C3117 1.370 . S
C3116 C3118 1.363 . S
C3116 H3132 0.931 . S
C3117 C3116 1.370 . S
C3117 C3121 1.408 . S
C3118 C3116 1.363 . S
C3118 C3119 1.370 . S
C3118 C3122 1.524 . S
C3119 C3111 1.503 . S
C3119 C3118 1.370 . S
C3119 C3120 1.403 . S
C3120 C3119 1.403 . S
C3120 C3121 1.404 . S
C3120 C3123 1.539 . S
C3121 C3117 1.408 . S
C3121 C3120 1.404 . S
C3121 H3133 0.930 . S
C3122 C3118 1.524 . S
C3122 H3134 0.956 . S
C3122 H3135 0.961 . S
C3122 H3136 0.961 . S
C3123 C3120 1.539 . S
C3123 H3137 0.958 . S
C3123 H3138 0.961 . S
C3123 H3139 0.960 . S
H3124 C3108 0.931 . S
H3125 C3113 0.929 . S
H3126 C3114 0.960 . S
H3127 C3114 0.962 . S
H3128 C3114 0.960 . S
H3129 C3115 0.961 . S
H3130 C3115 0.961 . S
H3131 C3115 0.961 . S
H3132 C3116 0.931 . S
H3133 C3121 0.930 . S
H3134 C3122 0.956 . S
H3135 C3122 0.961 . S
H3136 C3122 0.961 . S
H3137 C3123 0.958 . S
H3138 C3123 0.961 . S
H3139 C3123 0.960 . S
C3140 C3141 1.391 . S
C3140 C3142 1.394 . S
C3140 H3156 0.931 . S
C3141 C3140 1.391 . S
C3141 C3145 1.376 . S
C3142 C3140 1.394 . S
C3142 C3143 1.369 . S
C3142 C3146 1.531 . S
C3143 C3142 1.369 . S
C3143 C3144 1.410 . S
C3143 C3151 1.503 . S
C3144 C3143 1.410 . S
C3144 C3145 1.392 . S
C3144 C3147 1.511 . S
C3145 C3141 1.376 . S
C3145 C3144 1.392 . S
C3145 H3157 0.929 . S
C3146 C3142 1.531 . S
C3146 H3158 0.960 . S
C3146 H3159 0.962 . S
C3146 H3160 0.960 . S
C3147 C3144 1.511 . S
C3147 H3161 0.961 . S
C3147 H3162 0.961 . S
C3147 H3163 0.961 . S
C3148 C3149 1.370 . S
C3148 C3150 1.363 . S
C3148 H3164 0.931 . S
C3149 C3148 1.370 . S
C3149 C3153 1.408 . S
C3150 C3148 1.363 . S
C3150 C3151 1.370 . S
C3150 C3154 1.524 . S
C3151 C3143 1.503 . S
C3151 C3150 1.370 . S
C3151 C3152 1.403 . S
C3152 C3151 1.403 . S
C3152 C3153 1.404 . S
C3152 C3155 1.539 . S
C3153 C3149 1.408 . S
C3153 C3152 1.404 . S
C3153 H3165 0.930 . S
C3154 C3150 1.524 . S
C3154 H3166 0.956 . S
C3154 H3167 0.961 . S
C3154 H3168 0.961 . S
C3155 C3152 1.539 . S
C3155 H3169 0.958 . S
C3155 H3170 0.961 . S
C3155 H3171 0.960 . S
H3156 C3140 0.931 . S
H3157 C3145 0.929 . S
H3158 C3146 0.960 . S
H3159 C3146 0.962 . S
H3160 C3146 0.960 . S
H3161 C3147 0.961 . S
H3162 C3147 0.961 . S
H3163 C3147 0.961 . S
H3164 C3148 0.931 . S
H3165 C3153 0.930 . S
H3166 C3154 0.956 . S
H3167 C3154 0.961 . S
H3168 C3154 0.961 . S
H3169 C3155 0.958 . S
H3170 C3155 0.961 . S
H3171 C3155 0.960 . S
C3172 C3173 1.391 . S
C3172 C3174 1.394 . S
C3172 H3188 0.931 . S
C3173 C3172 1.391 . S
C3173 C3177 1.376 . S
C3174 C3172 1.394 . S
C3174 C3175 1.369 . S
C3174 C3178 1.531 . S
C3175 C3174 1.369 . S
C3175 C3176 1.410 . S
C3175 C3183 1.503 . S
C3176 C3175 1.410 . S
C3176 C3177 1.392 . S
C3176 C3179 1.511 . S
C3177 C3173 1.376 . S
C3177 C3176 1.392 . S
C3177 H3189 0.929 . S
C3178 C3174 1.531 . S
C3178 H3190 0.960 . S
C3178 H3191 0.962 . S
C3178 H3192 0.960 . S
C3179 C3176 1.511 . S
C3179 H3193 0.961 . S
C3179 H3194 0.961 . S
C3179 H3195 0.961 . S
C3180 C3181 1.370 . S
C3180 C3182 1.363 . S
C3180 H3196 0.931 . S
C3181 C3180 1.370 . S
C3181 C3185 1.408 . S
C3182 C3180 1.363 . S
C3182 C3183 1.370 . S
C3182 C3186 1.524 . S
C3183 C3175 1.503 . S
C3183 C3182 1.370 . S
C3183 C3184 1.403 . S
C3184 C3183 1.403 . S
C3184 C3185 1.404 . S
C3184 C3187 1.539 . S
C3185 C3181 1.408 . S
C3185 C3184 1.404 . S
C3185 H3197 0.930 . S
C3186 C3182 1.524 . S
C3186 H3198 0.956 . S
C3186 H3199 0.961 . S
C3186 H3200 0.961 . S
C3187 C3184 1.539 . S
C3187 H3201 0.958 . S
C3187 H3202 0.961 . S
C3187 H3203 0.960 . S
H3188 C3172 0.931 . S
H3189 C3177 0.929 . S
H3190 C3178 0.960 . S
H3191 C3178 0.962 . S
H3192 C3178 0.960 . S
H3193 C3179 0.961 . S
H3194 C3179 0.961 . S
H3195 C3179 0.961 . S
H3196 C3180 0.931 . S
H3197 C3185 0.930 . S
H3198 C3186 0.956 . S
H3199 C3186 0.961 . S
H3200 C3186 0.961 . S
H3201 C3187 0.958 . S
H3202 C3187 0.961 . S
H3203 C3187 0.960 . S
C3204 C3205 1.391 . S
C3204 C3206 1.394 . S
C3204 H3220 0.931 . S
C3205 C3204 1.391 . S
C3205 C3209 1.376 . S
C3206 C3204 1.394 . S
C3206 C3207 1.369 . S
C3206 C3210 1.531 . S
C3207 C3206 1.369 . S
C3207 C3208 1.410 . S
C3207 C3215 1.503 . S
C3208 C3207 1.410 . S
C3208 C3209 1.392 . S
C3208 C3211 1.511 . S
C3209 C3205 1.376 . S
C3209 C3208 1.392 . S
C3209 H3221 0.929 . S
C3210 C3206 1.531 . S
C3210 H3222 0.960 . S
C3210 H3223 0.962 . S
C3210 H3224 0.960 . S
C3211 C3208 1.511 . S
C3211 H3225 0.961 . S
C3211 H3226 0.961 . S
C3211 H3227 0.961 . S
C3212 C3213 1.370 . S
C3212 C3214 1.363 . S
C3212 H3228 0.931 . S
C3213 C3212 1.370 . S
C3213 C3217 1.408 . S
C3214 C3212 1.363 . S
C3214 C3215 1.370 . S
C3214 C3218 1.524 . S
C3215 C3207 1.503 . S
C3215 C3214 1.370 . S
C3215 C3216 1.403 . S
C3216 C3215 1.403 . S
C3216 C3217 1.404 . S
C3216 C3219 1.539 . S
C3217 C3213 1.408 . S
C3217 C3216 1.404 . S
C3217 H3229 0.930 . S
C3218 C3214 1.524 . S
C3218 H3230 0.956 . S
C3218 H3231 0.961 . S
C3218 H3232 0.961 . S
C3219 C3216 1.539 . S
C3219 H3233 0.958 . S
C3219 H3234 0.961 . S
C3219 H3235 0.960 . S
H3220 C3204 0.931 . S
H3221 C3209 0.929 . S
H3222 C3210 0.960 . S
H3223 C3210 0.962 . S
H3224 C3210 0.960 . S
H3225 C3211 0.961 . S
H3226 C3211 0.961 . S
H3227 C3211 0.961 . S
H3228 C3212 0.931 . S
H3229 C3217 0.930 . S
H3230 C3218 0.956 . S
H3231 C3218 0.961 . S
H3232 C3218 0.961 . S
H3233 C3219 0.958 . S
H3234 C3219 0.961 . S
H3235 C3219 0.960 . S
C3236 C3237 1.391 . S
C3236 C3238 1.394 . S
C3236 H3252 0.931 . S
C3237 C3236 1.391 . S
C3237 C3241 1.376 . S
C3238 C3236 1.394 . S
C3238 C3239 1.369 . S
C3238 C3242 1.531 . S
C3239 C3238 1.369 . S
C3239 C3240 1.410 . S
C3239 C3247 1.503 . S
C3240 C3239 1.410 . S
C3240 C3241 1.392 . S
C3240 C3243 1.511 . S
C3241 C3237 1.376 . S
C3241 C3240 1.392 . S
C3241 H3253 0.929 . S
C3242 C3238 1.531 . S
C3242 H3254 0.960 . S
C3242 H3255 0.962 . S
C3242 H3256 0.960 . S
C3243 C3240 1.511 . S
C3243 H3257 0.961 . S
C3243 H3258 0.961 . S
C3243 H3259 0.961 . S
C3244 C3245 1.370 . S
C3244 C3246 1.363 . S
C3244 H3260 0.931 . S
C3245 C3244 1.370 . S
C3245 C3249 1.408 . S
C3246 C3244 1.363 . S
C3246 C3247 1.370 . S
C3246 C3250 1.524 . S
C3247 C3239 1.503 . S
C3247 C3246 1.370 . S
C3247 C3248 1.403 . S
C3248 C3247 1.403 . S
C3248 C3249 1.404 . S
C3248 C3251 1.539 . S
C3249 C3245 1.408 . S
C3249 C3248 1.404 . S
C3249 H3261 0.930 . S
C3250 C3246 1.524 . S
C3250 H3262 0.956 . S
C3250 H3263 0.961 . S
C3250 H3264 0.961 . S
C3251 C3248 1.539 . S
C3251 H3265 0.958 . S
C3251 H3266 0.961 . S
C3251 H3267 0.960 . S
H3252 C3236 0.931 . S
H3253 C3241 0.929 . S
H3254 C3242 0.960 . S
H3255 C3242 0.962 . S
H3256 C3242 0.960 . S
H3257 C3243 0.961 . S
H3258 C3243 0.961 . S
H3259 C3243 0.961 . S
H3260 C3244 0.931 . S
H3261 C3249 0.930 . S
H3262 C3250 0.956 . S
H3263 C3250 0.961 . S
H3264 C3250 0.961 . S
H3265 C3251 0.958 . S
H3266 C3251 0.961 . S
H3267 C3251 0.960 . S
C3268 C3269 1.391 . S
C3268 C3270 1.394 . S
C3268 H3284 0.931 . S
C3269 C3268 1.391 . S
C3269 C3273 1.376 . S
C3270 C3268 1.394 . S
C3270 C3271 1.369 . S
C3270 C3274 1.531 . S
C3271 C3270 1.369 . S
C3271 C3272 1.410 . S
C3271 C3279 1.503 . S
C3272 C3271 1.410 . S
C3272 C3273 1.392 . S
C3272 C3275 1.511 . S
C3273 C3269 1.376 . S
C3273 C3272 1.392 . S
C3273 H3285 0.929 . S
C3274 C3270 1.531 . S
C3274 H3286 0.960 . S
C3274 H3287 0.962 . S
C3274 H3288 0.960 . S
C3275 C3272 1.511 . S
C3275 H3289 0.961 . S
C3275 H3290 0.961 . S
C3275 H3291 0.961 . S
C3276 C3277 1.370 . S
C3276 C3278 1.363 . S
C3276 H3292 0.931 . S
C3277 C3276 1.370 . S
C3277 C3281 1.408 . S
C3278 C3276 1.363 . S
C3278 C3279 1.370 . S
C3278 C3282 1.524 . S
C3279 C3271 1.503 . S
C3279 C3278 1.370 . S
C3279 C3280 1.403 . S
C3280 C3279 1.403 . S
C3280 C3281 1.404 . S
C3280 C3283 1.539 . S
C3281 C3277 1.408 . S
C3281 C3280 1.404 . S
C3281 H3293 0.930 . S
C3282 C3278 1.524 . S
C3282 H3294 0.956 . S
C3282 H3295 0.961 . S
C3282 H3296 0.961 . S
C3283 C3280 1.539 . S
C3283 H3297 0.958 . S
C3283 H3298 0.961 . S
C3283 H3299 0.960 . S
H3284 C3268 0.931 . S
H3285 C3273 0.929 . S
H3286 C3274 0.960 . S
H3287 C3274 0.962 . S
H3288 C3274 0.960 . S
H3289 C3275 0.961 . S
H3290 C3275 0.961 . S
H3291 C3275 0.961 . S
H3292 C3276 0.931 . S
H3293 C3281 0.930 . S
H3294 C3282 0.956 . S
H3295 C3282 0.961 . S
H3296 C3282 0.961 . S
H3297 C3283 0.958 . S
H3298 C3283 0.961 . S
H3299 C3283 0.960 . S
C3300 C3301 1.391 . S
C3300 C3302 1.394 . S
C3300 H3316 0.931 . S
C3301 C3300 1.391 . S
C3301 C3305 1.376 . S
C3302 C3300 1.394 . S
C3302 C3303 1.369 . S
C3302 C3306 1.531 1_455 S
C3303 C3302 1.369 . S
C3303 C3304 1.410 . S
C3303 C3311 1.503 1_455 S
C3304 C3303 1.410 . S
C3304 C3305 1.392 . S
C3304 C3307 1.511 . S
C3305 C3301 1.376 . S
C3305 C3304 1.392 . S
C3305 H3317 0.929 . S
C3306 C3302 1.531 1_655 S
C3306 H3318 0.960 . S
C3306 H3319 0.962 . S
C3306 H3320 0.960 1_655 S
C3307 C3304 1.511 . S
C3307 H3321 0.961 . S
C3307 H3322 0.961 . S
C3307 H3323 0.961 . S
C3308 C3309 1.370 . S
C3308 C3310 1.363 . S
C3308 H3324 0.931 . S
C3309 C3308 1.370 . S
C3309 C3313 1.408 . S
C3310 C3308 1.363 . S
C3310 C3311 1.370 . S
C3310 C3314 1.524 . S
C3311 C3303 1.503 1_655 S
C3311 C3310 1.370 . S
C3311 C3312 1.403 . S
C3312 C3311 1.403 . S
C3312 C3313 1.404 . S
C3312 C3315 1.539 . S
C3313 C3309 1.408 . S
C3313 C3312 1.404 . S
C3313 H3325 0.930 . S
C3314 C3310 1.524 . S
C3314 H3326 0.956 . S
C3314 H3327 0.961 1_655 S
C3314 H3328 0.961 . S
C3315 C3312 1.539 . S
C3315 H3329 0.958 . S
C3315 H3330 0.961 . S
C3315 H3331 0.960 . S
H3316 C3300 0.931 . S
H3317 C3305 0.929 . S
H3318 C3306 0.960 . S
H3319 C3306 0.962 . S
H3320 C3306 0.960 1_455 S
H3321 C3307 0.961 . S
H3322 C3307 0.961 . S
H3323 C3307 0.961 . S
H3324 C3308 0.931 . S
H3325 C3313 0.930 . S
H3326 C3314 0.956 . S
H3327 C3314 0.961 1_455 S
H3328 C3314 0.961 . S
H3329 C3315 0.958 . S
H3330 C3315 0.961 . S
H3331 C3315 0.960 . S
C3332 C3333 1.391 . S
C3332 C3334 1.394 . S
C3332 H3348 0.931 . S
C3333 C3332 1.391 . S
C3333 C3337 1.376 . S
C3334 C3332 1.394 . S
C3334 C3335 1.369 . S
C3334 C3338 1.531 . S
C3335 C3334 1.369 . S
C3335 C3336 1.410 . S
C3335 C3343 1.503 . S
C3336 C3335 1.410 . S
C3336 C3337 1.392 . S
C3336 C3339 1.511 . S
C3337 C3333 1.376 . S
C3337 C3336 1.392 . S
C3337 H3349 0.929 . S
C3338 C3334 1.531 . S
C3338 H3350 0.960 . S
C3338 H3351 0.962 . S
C3338 H3352 0.960 . S
C3339 C3336 1.511 . S
C3339 H3353 0.961 . S
C3339 H3354 0.961 . S
C3339 H3355 0.961 . S
C3340 C3341 1.370 . S
C3340 C3342 1.363 . S
C3340 H3356 0.931 . S
C3341 C3340 1.370 . S
C3341 C3345 1.408 . S
C3342 C3340 1.363 . S
C3342 C3343 1.370 . S
C3342 C3346 1.524 . S
C3343 C3335 1.503 . S
C3343 C3342 1.370 . S
C3343 C3344 1.403 . S
C3344 C3343 1.403 . S
C3344 C3345 1.404 . S
C3344 C3347 1.539 . S
C3345 C3341 1.408 . S
C3345 C3344 1.404 . S
C3345 H3357 0.930 . S
C3346 C3342 1.524 . S
C3346 H3358 0.956 . S
C3346 H3359 0.961 . S
C3346 H3360 0.961 . S
C3347 C3344 1.539 . S
C3347 H3361 0.958 . S
C3347 H3362 0.961 . S
C3347 H3363 0.960 . S
H3348 C3332 0.931 . S
H3349 C3337 0.929 . S
H3350 C3338 0.960 . S
H3351 C3338 0.962 . S
H3352 C3338 0.960 . S
H3353 C3339 0.961 . S
H3354 C3339 0.961 . S
H3355 C3339 0.961 . S
H3356 C3340 0.931 . S
H3357 C3345 0.930 . S
H3358 C3346 0.956 . S
H3359 C3346 0.961 . S
H3360 C3346 0.961 . S
H3361 C3347 0.958 . S
H3362 C3347 0.961 . S
H3363 C3347 0.960 . S
C3364 C3365 1.391 . S
C3364 C3366 1.394 . S
C3364 H3380 0.931 . S
C3365 C3364 1.391 . S
C3365 C3369 1.376 . S
C3366 C3364 1.394 . S
C3366 C3367 1.369 . S
C3366 C3370 1.563 . S
C3367 C3366 1.369 . S
C3367 C3368 1.410 . S
C3367 C3375 1.503 1_565 S
C3368 C3367 1.410 . S
C3368 C3369 1.392 . S
C3368 C3371 1.511 . S
C3369 C3365 1.376 . S
C3369 C3368 1.392 . S
C3369 H3381 0.929 . S
C3370 C3366 1.563 . S
C3370 H3382 0.940 1_565 S
C3370 H3383 0.942 1_565 S
C3370 H3384 0.966 . S
C3371 C3368 1.511 . S
C3371 H3385 0.961 . S
C3371 H3386 0.961 . S
C3371 H3387 0.961 . S
C3372 C3373 1.370 . S
C3372 C3374 1.363 . S
C3372 H3388 0.931 . S
C3373 C3372 1.370 . S
C3373 C3377 1.408 . S
C3374 C3372 1.363 . S
C3374 C3375 1.370 . S
C3374 C3378 1.523 . S
C3375 C3367 1.503 1_545 S
C3375 C3374 1.370 . S
C3375 C3376 1.403 . S
C3376 C3375 1.403 . S
C3376 C3377 1.404 . S
C3376 C3379 1.539 . S
C3377 C3373 1.408 . S
C3377 C3376 1.404 . S
C3377 H3389 0.930 . S
C3378 C3374 1.523 . S
C3378 H3390 0.956 1_545 S
C3378 H3391 0.965 1_545 S
C3378 H3392 0.958 . S
C3379 C3376 1.539 . S
C3379 H3393 0.958 . S
C3379 H3394 0.961 . S
C3379 H3395 0.960 . S
H3380 C3364 0.931 . S
H3381 C3369 0.929 . S
H3382 C3370 0.940 1_545 S
H3383 C3370 0.942 1_545 S
H3384 C3370 0.966 . S
H3385 C3371 0.961 . S
H3386 C3371 0.961 . S
H3387 C3371 0.961 . S
H3388 C3372 0.931 . S
H3389 C3377 0.930 . S
H3390 C3378 0.956 1_565 S
H3391 C3378 0.965 1_565 S
H3392 C3378 0.958 . S
H3393 C3379 0.958 . S
H3394 C3379 0.961 . S
H3395 C3379 0.960 . S
C3396 C3397 1.391 . S
C3396 C3398 1.394 . S
C3396 H3412 0.931 . S
C3397 C3396 1.391 . S
C3397 C3401 1.376 . S
C3398 C3396 1.394 . S
C3398 C3399 1.369 . S
C3398 C3402 1.531 . S
C3399 C3398 1.369 . S
C3399 C3400 1.410 . S
C3399 C3407 1.503 1_545 S
C3400 C3399 1.410 . S
C3400 C3401 1.392 . S
C3400 C3403 1.511 . S
C3401 C3397 1.376 . S
C3401 C3400 1.392 . S
C3401 H3413 0.929 . S
C3402 C3398 1.531 . S
C3402 H3414 0.960 . S
C3402 H3415 0.962 . S
C3402 H3416 0.960 . S
C3403 C3400 1.511 . S
C3403 H3417 0.961 . S
C3403 H3418 0.961 1_545 S
C3403 H3419 0.961 . S
C3404 C3405 1.370 . S
C3404 C3406 1.363 . S
C3404 H3420 0.931 . S
C3405 C3404 1.370 . S
C3405 C3409 1.408 . S
C3406 C3404 1.363 . S
C3406 C3407 1.370 . S
C3406 C3410 1.524 . S
C3407 C3399 1.503 1_565 S
C3407 C3406 1.370 . S
C3407 C3408 1.403 . S
C3408 C3407 1.403 . S
C3408 C3409 1.404 . S
C3408 C3411 1.539 . S
C3409 C3405 1.408 . S
C3409 C3408 1.404 . S
C3409 H3421 0.930 . S
C3410 C3406 1.524 . S
C3410 H3422 0.956 . S
C3410 H3423 0.961 . S
C3410 H3424 0.961 . S
C3411 C3408 1.539 . S
C3411 H3425 0.958 1_565 S
C3411 H3426 0.961 . S
C3411 H3427 0.960 1_565 S
H3412 C3396 0.931 . S
H3413 C3401 0.929 . S
H3414 C3402 0.960 . S
H3415 C3402 0.962 . S
H3416 C3402 0.960 . S
H3417 C3403 0.961 . S
H3418 C3403 0.961 1_565 S
H3419 C3403 0.961 . S
H3420 C3404 0.931 . S
H3421 C3409 0.930 . S
H3422 C3410 0.956 . S
H3423 C3410 0.961 . S
H3424 C3410 0.961 . S
H3425 C3411 0.958 1_545 S
H3426 C3411 0.961 . S
H3427 C3411 0.960 1_545 S
C3428 C3429 1.391 . S
C3428 C3430 1.394 . S
C3428 H3444 0.931 . S
C3429 C3428 1.391 . S
C3429 C3433 1.376 . S
C3430 C3428 1.394 . S
C3430 C3431 1.369 . S
C3430 C3434 1.531 . S
C3431 C3430 1.369 . S
C3431 C3432 1.410 . S
C3431 C3439 1.503 1_655 S
C3432 C3431 1.410 . S
C3432 C3433 1.392 . S
C3432 C3435 1.511 . S
C3433 C3429 1.376 . S
C3433 C3432 1.392 . S
C3433 H3445 0.929 . S
C3434 C3430 1.531 . S
C3434 H3446 0.960 . S
C3434 H3447 0.962 . S
C3434 H3448 0.960 . S
C3435 C3432 1.511 . S
C3435 H3449 0.961 . S
C3435 H3450 0.961 1_655 S
C3435 H3451 0.961 . S
C3436 C3437 1.370 . S
C3436 C3438 1.363 . S
C3436 H3452 0.931 . S
C3437 C3436 1.370 . S
C3437 C3441 1.408 . S
C3438 C3436 1.363 . S
C3438 C3439 1.370 . S
C3438 C3442 1.524 . S
C3439 C3431 1.503 1_455 S
C3439 C3438 1.370 . S
C3439 C3440 1.403 . S
C3440 C3439 1.403 . S
C3440 C3441 1.404 . S
C3440 C3443 1.546 . S
C3441 C3437 1.408 . S
C3441 C3440 1.404 . S
C3441 H3453 0.930 . S
C3442 C3438 1.524 . S
C3442 H3454 0.956 . S
C3442 H3455 0.961 . S
C3442 H3456 0.961 . S
C3443 C3440 1.546 . S
C3443 H3457 0.946 1_455 S
C3443 H3458 0.976 . S
C3443 H3459 0.951 1_455 S
H3444 C3428 0.931 . S
H3445 C3433 0.929 . S
H3446 C3434 0.960 . S
H3447 C3434 0.962 . S
H3448 C3434 0.960 . S
H3449 C3435 0.961 . S
H3450 C3435 0.961 1_455 S
H3451 C3435 0.961 . S
H3452 C3436 0.931 . S
H3453 C3441 0.930 . S
H3454 C3442 0.956 . S
H3455 C3442 0.961 . S
H3456 C3442 0.961 . S
H3457 C3443 0.946 1_655 S
H3458 C3443 0.976 . S
H3459 C3443 0.951 1_655 S
C3460 C3461 1.391 . S
C3460 C3462 1.394 . S
C3460 H3476 0.931 . S
C3461 C3460 1.391 . S
C3461 C3465 1.376 . S
C3462 C3460 1.394 . S
C3462 C3463 1.369 . S
C3462 C3466 1.531 . S
C3463 C3462 1.369 . S
C3463 C3464 1.410 . S
C3463 C3471 1.503 . S
C3464 C3463 1.410 . S
C3464 C3465 1.392 . S
C3464 C3467 1.511 . S
C3465 C3461 1.376 . S
C3465 C3464 1.392 . S
C3465 H3477 0.929 . S
C3466 C3462 1.531 . S
C3466 H3478 0.960 . S
C3466 H3479 0.962 . S
C3466 H3480 0.960 . S
C3467 C3464 1.511 . S
C3467 H3481 0.961 . S
C3467 H3482 0.961 . S
C3467 H3483 0.961 . S
C3468 C3469 1.370 . S
C3468 C3470 1.363 . S
C3468 H3484 0.931 . S
C3469 C3468 1.370 . S
C3469 C3473 1.408 . S
C3470 C3468 1.363 . S
C3470 C3471 1.370 . S
C3470 C3474 1.524 . S
C3471 C3463 1.503 . S
C3471 C3470 1.370 . S
C3471 C3472 1.403 . S
C3472 C3471 1.403 . S
C3472 C3473 1.404 . S
C3472 C3475 1.539 . S
C3473 C3469 1.408 . S
C3473 C3472 1.404 . S
C3473 H3485 0.930 . S
C3474 C3470 1.524 . S
C3474 H3486 0.956 . S
C3474 H3487 0.961 . S
C3474 H3488 0.961 . S
C3475 C3472 1.539 . S
C3475 H3489 0.958 . S
C3475 H3490 0.961 . S
C3475 H3491 0.960 . S
H3476 C3460 0.931 . S
H3477 C3465 0.929 . S
H3478 C3466 0.960 . S
H3479 C3466 0.962 . S
H3480 C3466 0.960 . S
H3481 C3467 0.961 . S
H3482 C3467 0.961 . S
H3483 C3467 0.961 . S
H3484 C3468 0.931 . S
H3485 C3473 0.930 . S
H3486 C3474 0.956 . S
H3487 C3474 0.961 . S
H3488 C3474 0.961 . S
H3489 C3475 0.958 . S
H3490 C3475 0.961 . S
H3491 C3475 0.960 . S
C3492 C3493 1.391 . S
C3492 C3494 1.394 . S
C3492 H3508 0.931 . S
C3493 C3492 1.391 . S
C3493 C3497 1.376 . S
C3494 C3492 1.394 . S
C3494 C3495 1.369 . S
C3494 C3498 1.531 . S
C3495 C3494 1.369 . S
C3495 C3496 1.410 . S
C3495 C3503 1.503 . S
C3496 C3495 1.410 . S
C3496 C3497 1.392 . S
C3496 C3499 1.511 . S
C3497 C3493 1.376 . S
C3497 C3496 1.392 . S
C3497 H3509 0.929 . S
C3498 C3494 1.531 . S
C3498 H3510 0.960 . S
C3498 H3511 0.962 . S
C3498 H3512 0.960 . S
C3499 C3496 1.511 . S
C3499 H3513 0.961 . S
C3499 H3514 0.961 . S
C3499 H3515 0.961 . S
C3500 C3501 1.370 . S
C3500 C3502 1.363 . S
C3500 H3516 0.931 . S
C3501 C3500 1.370 . S
C3501 C3505 1.408 . S
C3502 C3500 1.363 . S
C3502 C3503 1.370 . S
C3502 C3506 1.524 . S
C3503 C3495 1.503 . S
C3503 C3502 1.370 . S
C3503 C3504 1.403 . S
C3504 C3503 1.403 . S
C3504 C3505 1.404 . S
C3504 C3507 1.539 . S
C3505 C3501 1.408 . S
C3505 C3504 1.404 . S
C3505 H3517 0.930 . S
C3506 C3502 1.524 . S
C3506 H3518 0.956 . S
C3506 H3519 0.961 . S
C3506 H3520 0.961 . S
C3507 C3504 1.539 . S
C3507 H3521 0.958 . S
C3507 H3522 0.961 . S
C3507 H3523 0.960 . S
H3508 C3492 0.931 . S
H3509 C3497 0.929 . S
H3510 C3498 0.960 . S
H3511 C3498 0.962 . S
H3512 C3498 0.960 . S
H3513 C3499 0.961 . S
H3514 C3499 0.961 . S
H3515 C3499 0.961 . S
H3516 C3500 0.931 . S
H3517 C3505 0.930 . S
H3518 C3506 0.956 . S
H3519 C3506 0.961 . S
H3520 C3506 0.961 . S
H3521 C3507 0.958 . S
H3522 C3507 0.961 . S
H3523 C3507 0.960 . S
C3524 C3525 1.391 . S
C3524 C3526 1.394 . S
C3524 H3540 0.931 . S
C3525 C3524 1.391 . S
C3525 C3529 1.376 . S
C3526 C3524 1.394 . S
C3526 C3527 1.369 . S
C3526 C3530 1.531 . S
C3527 C3526 1.369 . S
C3527 C3528 1.410 . S
C3527 C3535 1.503 . S
C3528 C3527 1.410 . S
C3528 C3529 1.392 . S
C3528 C3531 1.511 . S
C3529 C3525 1.376 . S
C3529 C3528 1.392 . S
C3529 H3541 0.929 . S
C3530 C3526 1.531 . S
C3530 H3542 0.960 . S
C3530 H3543 0.962 . S
C3530 H3544 0.960 . S
C3531 C3528 1.511 . S
C3531 H3545 0.961 . S
C3531 H3546 0.961 . S
C3531 H3547 0.961 . S
C3532 C3533 1.370 . S
C3532 C3534 1.363 . S
C3532 H3548 0.931 . S
C3533 C3532 1.370 . S
C3533 C3537 1.408 . S
C3534 C3532 1.363 . S
C3534 C3535 1.370 . S
C3534 C3538 1.524 . S
C3535 C3527 1.503 . S
C3535 C3534 1.370 . S
C3535 C3536 1.403 . S
C3536 C3535 1.403 . S
C3536 C3537 1.404 . S
C3536 C3539 1.539 . S
C3537 C3533 1.408 . S
C3537 C3536 1.404 . S
C3537 H3549 0.930 . S
C3538 C3534 1.524 . S
C3538 H3550 0.956 . S
C3538 H3551 0.961 . S
C3538 H3552 0.961 . S
C3539 C3536 1.539 . S
C3539 H3553 0.958 . S
C3539 H3554 0.961 . S
C3539 H3555 0.960 . S
H3540 C3524 0.931 . S
H3541 C3529 0.929 . S
H3542 C3530 0.960 . S
H3543 C3530 0.962 . S
H3544 C3530 0.960 . S
H3545 C3531 0.961 . S
H3546 C3531 0.961 . S
H3547 C3531 0.961 . S
H3548 C3532 0.931 . S
H3549 C3537 0.930 . S
H3550 C3538 0.956 . S
H3551 C3538 0.961 . S
H3552 C3538 0.961 . S
H3553 C3539 0.958 . S
H3554 C3539 0.961 . S
H3555 C3539 0.960 . S
C3556 C3557 1.391 . S
C3556 C3558 1.394 . S
C3556 H3572 0.931 . S
C3557 C3556 1.391 . S
C3557 C3561 1.376 . S
C3558 C3556 1.394 . S
C3558 C3559 1.369 . S
C3558 C3562 1.531 . S
C3559 C3558 1.369 . S
C3559 C3560 1.410 . S
C3559 C3567 1.503 . S
C3560 C3559 1.410 . S
C3560 C3561 1.392 . S
C3560 C3563 1.511 . S
C3561 C3557 1.376 . S
C3561 C3560 1.392 . S
C3561 H3573 0.929 . S
C3562 C3558 1.531 . S
C3562 H3574 0.960 . S
C3562 H3575 0.962 . S
C3562 H3576 0.960 . S
C3563 C3560 1.511 . S
C3563 H3577 0.961 . S
C3563 H3578 0.961 . S
C3563 H3579 0.961 . S
C3564 C3565 1.370 . S
C3564 C3566 1.363 . S
C3564 H3580 0.931 . S
C3565 C3564 1.370 . S
C3565 C3569 1.408 . S
C3566 C3564 1.363 . S
C3566 C3567 1.370 . S
C3566 C3570 1.524 . S
C3567 C3559 1.503 . S
C3567 C3566 1.370 . S
C3567 C3568 1.403 . S
C3568 C3567 1.403 . S
C3568 C3569 1.404 . S
C3568 C3571 1.539 . S
C3569 C3565 1.408 . S
C3569 C3568 1.404 . S
C3569 H3581 0.930 . S
C3570 C3566 1.524 . S
C3570 H3582 0.956 . S
C3570 H3583 0.961 . S
C3570 H3584 0.961 . S
C3571 C3568 1.539 . S
C3571 H3585 0.958 . S
C3571 H3586 0.961 . S
C3571 H3587 0.960 . S
H3572 C3556 0.931 . S
H3573 C3561 0.929 . S
H3574 C3562 0.960 . S
H3575 C3562 0.962 . S
H3576 C3562 0.960 . S
H3577 C3563 0.961 . S
H3578 C3563 0.961 . S
H3579 C3563 0.961 . S
H3580 C3564 0.931 . S
H3581 C3569 0.930 . S
H3582 C3570 0.956 . S
H3583 C3570 0.961 . S
H3584 C3570 0.961 . S
H3585 C3571 0.958 . S
H3586 C3571 0.961 . S
H3587 C3571 0.960 . S
C3588 C3589 1.391 . S
C3588 C3590 1.394 . S
C3588 H3604 0.931 . S
C3589 C3588 1.391 . S
C3589 C3593 1.376 . S
C3590 C3588 1.394 . S
C3590 C3591 1.369 . S
C3590 C3594 1.531 . S
C3591 C3590 1.369 . S
C3591 C3592 1.410 . S
C3591 C3599 1.503 . S
C3592 C3591 1.410 . S
C3592 C3593 1.392 . S
C3592 C3595 1.511 . S
C3593 C3589 1.376 . S
C3593 C3592 1.392 . S
C3593 H3605 0.929 . S
C3594 C3590 1.531 . S
C3594 H3606 0.960 . S
C3594 H3607 0.962 . S
C3594 H3608 0.960 . S
C3595 C3592 1.511 . S
C3595 H3609 0.961 . S
C3595 H3610 0.961 . S
C3595 H3611 0.961 . S
C3596 C3597 1.370 . S
C3596 C3598 1.363 . S
C3596 H3612 0.931 . S
C3597 C3596 1.370 . S
C3597 C3601 1.408 . S
C3598 C3596 1.363 . S
C3598 C3599 1.370 . S
C3598 C3602 1.524 . S
C3599 C3591 1.503 . S
C3599 C3598 1.370 . S
C3599 C3600 1.403 . S
C3600 C3599 1.403 . S
C3600 C3601 1.404 . S
C3600 C3603 1.539 . S
C3601 C3597 1.408 . S
C3601 C3600 1.404 . S
C3601 H3613 0.930 . S
C3602 C3598 1.524 . S
C3602 H3614 0.956 . S
C3602 H3615 0.961 . S
C3602 H3616 0.961 . S
C3603 C3600 1.539 . S
C3603 H3617 0.958 . S
C3603 H3618 0.961 . S
C3603 H3619 0.960 . S
H3604 C3588 0.931 . S
H3605 C3593 0.929 . S
H3606 C3594 0.960 . S
H3607 C3594 0.962 . S
H3608 C3594 0.960 . S
H3609 C3595 0.961 . S
H3610 C3595 0.961 . S
H3611 C3595 0.961 . S
H3612 C3596 0.931 . S
H3613 C3601 0.930 . S
H3614 C3602 0.956 . S
H3615 C3602 0.961 . S
H3616 C3602 0.961 . S
H3617 C3603 0.958 . S
H3618 C3603 0.961 . S
H3619 C3603 0.960 . S
C3620 C3621 1.391 . S
C3620 C3622 1.394 . S
C3620 H3636 0.931 . S
C3621 C3620 1.391 . S
C3621 C3625 1.376 . S
C3622 C3620 1.394 . S
C3622 C3623 1.369 . S
C3622 C3626 1.531 . S
C3623 C3622 1.369 . S
C3623 C3624 1.410 . S
C3623 C3631 1.503 . S
C3624 C3623 1.410 . S
C3624 C3625 1.392 . S
C3624 C3627 1.511 . S
C3625 C3621 1.376 . S
C3625 C3624 1.392 . S
C3625 H3637 0.929 . S
C3626 C3622 1.531 . S
C3626 H3638 0.960 . S
C3626 H3639 0.962 . S
C3626 H3640 0.960 . S
C3627 C3624 1.511 . S
C3627 H3641 0.961 . S
C3627 H3642 0.961 . S
C3627 H3643 0.961 . S
C3628 C3629 1.370 . S
C3628 C3630 1.363 . S
C3628 H3644 0.931 . S
C3629 C3628 1.370 . S
C3629 C3633 1.408 . S
C3630 C3628 1.363 . S
C3630 C3631 1.370 . S
C3630 C3634 1.524 . S
C3631 C3623 1.503 . S
C3631 C3630 1.370 . S
C3631 C3632 1.403 . S
C3632 C3631 1.403 . S
C3632 C3633 1.404 . S
C3632 C3635 1.539 . S
C3633 C3629 1.408 . S
C3633 C3632 1.404 . S
C3633 H3645 0.930 . S
C3634 C3630 1.524 . S
C3634 H3646 0.956 . S
C3634 H3647 0.961 . S
C3634 H3648 0.961 . S
C3635 C3632 1.539 . S
C3635 H3649 0.958 . S
C3635 H3650 0.961 . S
C3635 H3651 0.960 . S
H3636 C3620 0.931 . S
H3637 C3625 0.929 . S
H3638 C3626 0.960 . S
H3639 C3626 0.962 . S
H3640 C3626 0.960 . S
H3641 C3627 0.961 . S
H3642 C3627 0.961 . S
H3643 C3627 0.961 . S
H3644 C3628 0.931 . S
H3645 C3633 0.930 . S
H3646 C3634 0.956 . S
H3647 C3634 0.961 . S
H3648 C3634 0.961 . S
H3649 C3635 0.958 . S
H3650 C3635 0.961 . S
H3651 C3635 0.960 . S
C3652 C3653 1.391 . S
C3652 C3654 1.394 . S
C3652 H3668 0.931 . S
C3653 C3652 1.391 . S
C3653 C3657 1.376 . S
C3654 C3652 1.394 . S
C3654 C3655 1.369 . S
C3654 C3658 1.531 . S
C3655 C3654 1.369 . S
C3655 C3656 1.410 . S
C3655 C3663 1.503 . S
C3656 C3655 1.410 . S
C3656 C3657 1.392 . S
C3656 C3659 1.511 . S
C3657 C3653 1.376 . S
C3657 C3656 1.392 . S
C3657 H3669 0.929 . S
C3658 C3654 1.531 . S
C3658 H3670 0.960 . S
C3658 H3671 0.962 . S
C3658 H3672 0.960 . S
C3659 C3656 1.511 . S
C3659 H3673 0.961 . S
C3659 H3674 0.961 . S
C3659 H3675 0.961 . S
C3660 C3661 1.370 . S
C3660 C3662 1.363 . S
C3660 H3676 0.931 . S
C3661 C3660 1.370 . S
C3661 C3665 1.408 . S
C3662 C3660 1.363 . S
C3662 C3663 1.370 . S
C3662 C3666 1.524 . S
C3663 C3655 1.503 . S
C3663 C3662 1.370 . S
C3663 C3664 1.403 . S
C3664 C3663 1.403 . S
C3664 C3665 1.404 . S
C3664 C3667 1.539 . S
C3665 C3661 1.408 . S
C3665 C3664 1.404 . S
C3665 H3677 0.930 . S
C3666 C3662 1.524 . S
C3666 H3678 0.956 . S
C3666 H3679 0.961 . S
C3666 H3680 0.961 . S
C3667 C3664 1.539 . S
C3667 H3681 0.958 . S
C3667 H3682 0.961 . S
C3667 H3683 0.960 . S
H3668 C3652 0.931 . S
H3669 C3657 0.929 . S
H3670 C3658 0.960 . S
H3671 C3658 0.962 . S
H3672 C3658 0.960 . S
H3673 C3659 0.961 . S
H3674 C3659 0.961 . S
H3675 C3659 0.961 . S
H3676 C3660 0.931 . S
H3677 C3665 0.930 . S
H3678 C3666 0.956 . S
H3679 C3666 0.961 . S
H3680 C3666 0.961 . S
H3681 C3667 0.958 . S
H3682 C3667 0.961 . S
H3683 C3667 0.960 . S
C3684 C3685 1.391 . S
C3684 C3686 1.394 . S
C3684 H3700 0.931 . S
C3685 C3684 1.391 . S
C3685 C3689 1.376 . S
C3686 C3684 1.394 . S
C3686 C3687 1.369 . S
C3686 C3690 1.531 . S
C3687 C3686 1.369 . S
C3687 C3688 1.410 . S
C3687 C3695 1.503 . S
C3688 C3687 1.410 . S
C3688 C3689 1.392 . S
C3688 C3691 1.511 . S
C3689 C3685 1.376 . S
C3689 C3688 1.392 . S
C3689 H3701 0.929 . S
C3690 C3686 1.531 . S
C3690 H3702 0.960 . S
C3690 H3703 0.962 . S
C3690 H3704 0.960 . S
C3691 C3688 1.511 . S
C3691 H3705 0.961 . S
C3691 H3706 0.961 . S
C3691 H3707 0.961 . S
C3692 C3693 1.370 . S
C3692 C3694 1.363 . S
C3692 H3708 0.931 . S
C3693 C3692 1.370 . S
C3693 C3697 1.408 . S
C3694 C3692 1.363 . S
C3694 C3695 1.370 . S
C3694 C3698 1.524 . S
C3695 C3687 1.503 . S
C3695 C3694 1.370 . S
C3695 C3696 1.403 . S
C3696 C3695 1.403 . S
C3696 C3697 1.404 . S
C3696 C3699 1.539 . S
C3697 C3693 1.408 . S
C3697 C3696 1.404 . S
C3697 H3709 0.930 . S
C3698 C3694 1.524 . S
C3698 H3710 0.956 . S
C3698 H3711 0.961 . S
C3698 H3712 0.961 . S
C3699 C3696 1.539 . S
C3699 H3713 0.958 . S
C3699 H3714 0.961 . S
C3699 H3715 0.960 . S
H3700 C3684 0.931 . S
H3701 C3689 0.929 . S
H3702 C3690 0.960 . S
H3703 C3690 0.962 . S
H3704 C3690 0.960 . S
H3705 C3691 0.961 . S
H3706 C3691 0.961 . S
H3707 C3691 0.961 . S
H3708 C3692 0.931 . S
H3709 C3697 0.930 . S
H3710 C3698 0.956 . S
H3711 C3698 0.961 . S
H3712 C3698 0.961 . S
H3713 C3699 0.958 . S
H3714 C3699 0.961 . S
H3715 C3699 0.960 . S
C3716 C3717 1.391 . S
C3716 C3718 1.394 . S
C3716 H3732 0.931 . S
C3717 C3716 1.391 . S
C3717 C3721 1.376 . S
C3718 C3716 1.394 . S
C3718 C3719 1.369 . S
C3718 C3722 1.531 . S
C3719 C3718 1.369 . S
C3719 C3720 1.410 . S
C3719 C3727 1.503 . S
C3720 C3719 1.410 . S
C3720 C3721 1.392 . S
C3720 C3723 1.511 . S
C3721 C3717 1.376 . S
C3721 C3720 1.392 . S
C3721 H3733 0.929 . S
C3722 C3718 1.531 . S
C3722 H3734 0.960 . S
C3722 H3735 0.962 . S
C3722 H3736 0.960 . S
C3723 C3720 1.511 . S
C3723 H3737 0.961 . S
C3723 H3738 0.961 . S
C3723 H3739 0.961 . S
C3724 C3725 1.370 . S
C3724 C3726 1.363 . S
C3724 H3740 0.931 . S
C3725 C3724 1.370 . S
C3725 C3729 1.408 . S
C3726 C3724 1.363 . S
C3726 C3727 1.370 . S
C3726 C3730 1.524 . S
C3727 C3719 1.503 . S
C3727 C3726 1.370 . S
C3727 C3728 1.403 . S
C3728 C3727 1.403 . S
C3728 C3729 1.404 . S
C3728 C3731 1.539 . S
C3729 C3725 1.408 . S
C3729 C3728 1.404 . S
C3729 H3741 0.930 . S
C3730 C3726 1.524 . S
C3730 H3742 0.956 . S
C3730 H3743 0.961 . S
C3730 H3744 0.961 . S
C3731 C3728 1.539 . S
C3731 H3745 0.958 . S
C3731 H3746 0.961 . S
C3731 H3747 0.960 . S
H3732 C3716 0.931 . S
H3733 C3721 0.929 . S
H3734 C3722 0.960 . S
H3735 C3722 0.962 . S
H3736 C3722 0.960 . S
H3737 C3723 0.961 . S
H3738 C3723 0.961 . S
H3739 C3723 0.961 . S
H3740 C3724 0.931 . S
H3741 C3729 0.930 . S
H3742 C3730 0.956 . S
H3743 C3730 0.961 . S
H3744 C3730 0.961 . S
H3745 C3731 0.958 . S
H3746 C3731 0.961 . S
H3747 C3731 0.960 . S
C3748 C3749 1.391 . S
C3748 C3750 1.394 . S
C3748 H3764 0.931 . S
C3749 C3748 1.391 . S
C3749 C3753 1.376 . S
C3750 C3748 1.394 . S
C3750 C3751 1.369 . S
C3750 C3754 1.531 . S
C3751 C3750 1.369 . S
C3751 C3752 1.410 . S
C3751 C3759 1.503 . S
C3752 C3751 1.410 . S
C3752 C3753 1.392 . S
C3752 C3755 1.511 . S
C3753 C3749 1.376 . S
C3753 C3752 1.392 . S
C3753 H3765 0.929 . S
C3754 C3750 1.531 . S
C3754 H3766 0.960 . S
C3754 H3767 0.962 . S
C3754 H3768 0.960 . S
C3755 C3752 1.511 . S
C3755 H3769 0.961 . S
C3755 H3770 0.961 . S
C3755 H3771 0.961 . S
C3756 C3757 1.370 . S
C3756 C3758 1.363 . S
C3756 H3772 0.931 . S
C3757 C3756 1.370 . S
C3757 C3761 1.408 . S
C3758 C3756 1.363 . S
C3758 C3759 1.370 . S
C3758 C3762 1.524 . S
C3759 C3751 1.503 . S
C3759 C3758 1.370 . S
C3759 C3760 1.403 . S
C3760 C3759 1.403 . S
C3760 C3761 1.404 . S
C3760 C3763 1.539 . S
C3761 C3757 1.408 . S
C3761 C3760 1.404 . S
C3761 H3773 0.930 . S
C3762 C3758 1.524 . S
C3762 H3774 0.956 . S
C3762 H3775 0.961 . S
C3762 H3776 0.961 . S
C3763 C3760 1.539 . S
C3763 H3777 0.958 . S
C3763 H3778 0.961 . S
C3763 H3779 0.960 . S
H3764 C3748 0.931 . S
H3765 C3753 0.929 . S
H3766 C3754 0.960 . S
H3767 C3754 0.962 . S
H3768 C3754 0.960 . S
H3769 C3755 0.961 . S
H3770 C3755 0.961 . S
H3771 C3755 0.961 . S
H3772 C3756 0.931 . S
H3773 C3761 0.930 . S
H3774 C3762 0.956 . S
H3775 C3762 0.961 . S
H3776 C3762 0.961 . S
H3777 C3763 0.958 . S
H3778 C3763 0.961 . S
H3779 C3763 0.960 . S
C3780 C3781 1.391 . S
C3780 C3782 1.394 . S
C3780 H3796 0.931 . S
C3781 C3780 1.391 . S
C3781 C3785 1.376 . S
C3782 C3780 1.394 . S
C3782 C3783 1.369 . S
C3782 C3786 1.531 . S
C3783 C3782 1.369 . S
C3783 C3784 1.410 . S
C3783 C3791 1.503 . S
C3784 C3783 1.410 . S
C3784 C3785 1.392 . S
C3784 C3787 1.511 . S
C3785 C3781 1.376 . S
C3785 C3784 1.392 . S
C3785 H3797 0.929 . S
C3786 C3782 1.531 . S
C3786 H3798 0.960 . S
C3786 H3799 0.962 . S
C3786 H3800 0.960 . S
C3787 C3784 1.511 . S
C3787 H3801 0.961 . S
C3787 H3802 0.961 . S
C3787 H3803 0.961 . S
C3788 C3789 1.370 . S
C3788 C3790 1.363 . S
C3788 H3804 0.931 . S
C3789 C3788 1.370 . S
C3789 C3793 1.408 . S
C3790 C3788 1.363 . S
C3790 C3791 1.370 . S
C3790 C3794 1.524 . S
C3791 C3783 1.503 . S
C3791 C3790 1.370 . S
C3791 C3792 1.403 . S
C3792 C3791 1.403 . S
C3792 C3793 1.404 . S
C3792 C3795 1.539 . S
C3793 C3789 1.408 . S
C3793 C3792 1.404 . S
C3793 H3805 0.930 . S
C3794 C3790 1.524 . S
C3794 H3806 0.956 . S
C3794 H3807 0.961 . S
C3794 H3808 0.961 . S
C3795 C3792 1.539 . S
C3795 H3809 0.958 . S
C3795 H3810 0.961 . S
C3795 H3811 0.960 . S
H3796 C3780 0.931 . S
H3797 C3785 0.929 . S
H3798 C3786 0.960 . S
H3799 C3786 0.962 . S
H3800 C3786 0.960 . S
H3801 C3787 0.961 . S
H3802 C3787 0.961 . S
H3803 C3787 0.961 . S
H3804 C3788 0.931 . S
H3805 C3793 0.930 . S
H3806 C3794 0.956 . S
H3807 C3794 0.961 . S
H3808 C3794 0.961 . S
H3809 C3795 0.958 . S
H3810 C3795 0.961 . S
H3811 C3795 0.960 . S
C3812 C3813 1.391 . S
C3812 C3814 1.394 . S
C3812 H3828 0.931 . S
C3813 C3812 1.391 . S
C3813 C3817 1.376 . S
C3814 C3812 1.394 . S
C3814 C3815 1.369 . S
C3814 C3818 1.531 . S
C3815 C3814 1.369 . S
C3815 C3816 1.410 . S
C3815 C3823 1.503 . S
C3816 C3815 1.410 . S
C3816 C3817 1.392 . S
C3816 C3819 1.511 . S
C3817 C3813 1.376 . S
C3817 C3816 1.392 . S
C3817 H3829 0.929 . S
C3818 C3814 1.531 . S
C3818 H3830 0.960 . S
C3818 H3831 0.962 . S
C3818 H3832 0.960 . S
C3819 C3816 1.511 . S
C3819 H3833 0.961 . S
C3819 H3834 0.961 . S
C3819 H3835 0.961 . S
C3820 C3821 1.370 . S
C3820 C3822 1.363 . S
C3820 H3836 0.931 . S
C3821 C3820 1.370 . S
C3821 C3825 1.408 . S
C3822 C3820 1.363 . S
C3822 C3823 1.370 . S
C3822 C3826 1.524 . S
C3823 C3815 1.503 . S
C3823 C3822 1.370 . S
C3823 C3824 1.403 . S
C3824 C3823 1.403 . S
C3824 C3825 1.404 . S
C3824 C3827 1.539 . S
C3825 C3821 1.408 . S
C3825 C3824 1.404 . S
C3825 H3837 0.930 . S
C3826 C3822 1.524 . S
C3826 H3838 0.956 . S
C3826 H3839 0.961 . S
C3826 H3840 0.961 . S
C3827 C3824 1.539 . S
C3827 H3841 0.958 . S
C3827 H3842 0.961 . S
C3827 H3843 0.960 . S
H3828 C3812 0.931 . S
H3829 C3817 0.929 . S
H3830 C3818 0.960 . S
H3831 C3818 0.962 . S
H3832 C3818 0.960 . S
H3833 C3819 0.961 . S
H3834 C3819 0.961 . S
H3835 C3819 0.961 . S
H3836 C3820 0.931 . S
H3837 C3825 0.930 . S
H3838 C3826 0.956 . S
H3839 C3826 0.961 . S
H3840 C3826 0.961 . S
H3841 C3827 0.958 . S
H3842 C3827 0.961 . S
H3843 C3827 0.960 . S
C3844 C3845 1.391 . S
C3844 C3846 1.394 . S
C3844 H3860 0.931 . S
C3845 C3844 1.391 . S
C3845 C3849 1.376 . S
C3846 C3844 1.394 . S
C3846 C3847 1.369 . S
C3846 C3850 1.531 . S
C3847 C3846 1.369 . S
C3847 C3848 1.410 . S
C3847 C3855 1.503 . S
C3848 C3847 1.410 . S
C3848 C3849 1.392 . S
C3848 C3851 1.511 . S
C3849 C3845 1.376 . S
C3849 C3848 1.392 . S
C3849 H3861 0.929 . S
C3850 C3846 1.531 . S
C3850 H3862 0.960 . S
C3850 H3863 0.962 . S
C3850 H3864 0.960 . S
C3851 C3848 1.511 . S
C3851 H3865 0.961 . S
C3851 H3866 0.961 . S
C3851 H3867 0.961 . S
C3852 C3853 1.370 . S
C3852 C3854 1.363 . S
C3852 H3868 0.931 . S
C3853 C3852 1.370 . S
C3853 C3857 1.408 . S
C3854 C3852 1.363 . S
C3854 C3855 1.370 . S
C3854 C3858 1.524 . S
C3855 C3847 1.503 . S
C3855 C3854 1.370 . S
C3855 C3856 1.403 . S
C3856 C3855 1.403 . S
C3856 C3857 1.404 . S
C3856 C3859 1.539 . S
C3857 C3853 1.408 . S
C3857 C3856 1.404 . S
C3857 H3869 0.930 . S
C3858 C3854 1.524 . S
C3858 H3870 0.956 . S
C3858 H3871 0.961 . S
C3858 H3872 0.961 . S
C3859 C3856 1.539 . S
C3859 H3873 0.958 . S
C3859 H3874 0.961 . S
C3859 H3875 0.960 . S
H3860 C3844 0.931 . S
H3861 C3849 0.929 . S
H3862 C3850 0.960 . S
H3863 C3850 0.962 . S
H3864 C3850 0.960 . S
H3865 C3851 0.961 . S
H3866 C3851 0.961 . S
H3867 C3851 0.961 . S
H3868 C3852 0.931 . S
H3869 C3857 0.930 . S
H3870 C3858 0.956 . S
H3871 C3858 0.961 . S
H3872 C3858 0.961 . S
H3873 C3859 0.958 . S
H3874 C3859 0.961 . S
H3875 C3859 0.960 . S
C3876 C3877 1.391 . S
C3876 C3878 1.394 . S
C3876 H3892 0.931 . S
C3877 C3876 1.391 . S
C3877 C3881 1.376 . S
C3878 C3876 1.394 . S
C3878 C3879 1.369 . S
C3878 C3882 1.531 . S
C3879 C3878 1.369 . S
C3879 C3880 1.410 . S
C3879 C3887 1.503 . S
C3880 C3879 1.410 . S
C3880 C3881 1.392 . S
C3880 C3883 1.511 . S
C3881 C3877 1.376 . S
C3881 C3880 1.392 . S
C3881 H3893 0.929 . S
C3882 C3878 1.531 . S
C3882 H3894 0.960 . S
C3882 H3895 0.962 . S
C3882 H3896 0.960 . S
C3883 C3880 1.511 . S
C3883 H3897 0.961 . S
C3883 H3898 0.961 . S
C3883 H3899 0.961 . S
C3884 C3885 1.370 . S
C3884 C3886 1.363 . S
C3884 H3900 0.931 . S
C3885 C3884 1.370 . S
C3885 C3889 1.408 . S
C3886 C3884 1.363 . S
C3886 C3887 1.370 . S
C3886 C3890 1.524 . S
C3887 C3879 1.503 . S
C3887 C3886 1.370 . S
C3887 C3888 1.403 . S
C3888 C3887 1.403 . S
C3888 C3889 1.404 . S
C3888 C3891 1.539 . S
C3889 C3885 1.408 . S
C3889 C3888 1.404 . S
C3889 H3901 0.930 . S
C3890 C3886 1.524 . S
C3890 H3902 0.956 . S
C3890 H3903 0.961 . S
C3890 H3904 0.961 . S
C3891 C3888 1.539 . S
C3891 H3905 0.958 . S
C3891 H3906 0.961 . S
C3891 H3907 0.960 . S
H3892 C3876 0.931 . S
H3893 C3881 0.929 . S
H3894 C3882 0.960 . S
H3895 C3882 0.962 . S
H3896 C3882 0.960 . S
H3897 C3883 0.961 . S
H3898 C3883 0.961 . S
H3899 C3883 0.961 . S
H3900 C3884 0.931 . S
H3901 C3889 0.930 . S
H3902 C3890 0.956 . S
H3903 C3890 0.961 . S
H3904 C3890 0.961 . S
H3905 C3891 0.958 . S
H3906 C3891 0.961 . S
H3907 C3891 0.960 . S
C3908 C3909 1.391 . S
C3908 C3910 1.394 . S
C3908 H3924 0.931 . S
C3909 C3908 1.391 . S
C3909 C3913 1.376 . S
C3910 C3908 1.394 . S
C3910 C3911 1.369 . S
C3910 C3914 1.531 . S
C3911 C3910 1.369 . S
C3911 C3912 1.410 . S
C3911 C3919 1.503 1_545 S
C3912 C3911 1.410 . S
C3912 C3913 1.392 . S
C3912 C3915 1.511 . S
C3913 C3909 1.376 . S
C3913 C3912 1.392 . S
C3913 H3925 0.929 . S
C3914 C3910 1.531 . S
C3914 H3926 0.960 . S
C3914 H3927 0.955 1_545 S
C3914 H3928 0.960 . S
C3915 C3912 1.511 . S
C3915 H3929 0.961 . S
C3915 H3930 0.961 1_545 S
C3915 H3931 0.961 . S
C3916 C3917 1.370 . S
C3916 C3918 1.363 . S
C3916 H3932 0.931 . S
C3917 C3916 1.370 . S
C3917 C3921 1.408 . S
C3918 C3916 1.363 . S
C3918 C3919 1.370 . S
C3918 C3922 1.524 . S
C3919 C3911 1.503 1_565 S
C3919 C3918 1.370 . S
C3919 C3920 1.403 . S
C3920 C3919 1.403 . S
C3920 C3921 1.404 . S
C3920 C3923 1.539 1_565 S
C3921 C3917 1.408 . S
C3921 C3920 1.404 . S
C3921 H3933 0.930 . S
C3922 C3918 1.524 . S
C3922 H3934 0.956 . S
C3922 H3935 0.961 . S
C3922 H3936 0.961 . S
C3923 C3920 1.539 1_545 S
C3923 H3937 0.958 . S
C3923 H3938 0.961 . S
C3923 H3939 0.960 . S
H3924 C3908 0.931 . S
H3925 C3913 0.929 . S
H3926 C3914 0.960 . S
H3927 C3914 0.955 1_565 S
H3928 C3914 0.960 . S
H3929 C3915 0.961 . S
H3930 C3915 0.961 1_565 S
H3931 C3915 0.961 . S
H3932 C3916 0.931 . S
H3933 C3921 0.930 . S
H3934 C3922 0.956 . S
H3935 C3922 0.961 . S
H3936 C3922 0.961 . S
H3937 C3923 0.958 . S
H3938 C3923 0.961 . S
H3939 C3923 0.960 . S
C3940 C3941 1.391 . S
C3940 C3942 1.394 . S
C3940 H3956 0.931 . S
C3941 C3940 1.391 . S
C3941 C3945 1.376 . S
C3942 C3940 1.394 . S
C3942 C3943 1.369 . S
C3942 C3946 1.531 1_655 S
C3943 C3942 1.369 . S
C3943 C3944 1.410 . S
C3943 C3951 1.503 1_655 S
C3944 C3943 1.410 . S
C3944 C3945 1.392 . S
C3944 C3947 1.511 . S
C3945 C3941 1.376 . S
C3945 C3944 1.392 . S
C3945 H3957 0.929 . S
C3946 C3942 1.531 1_455 S
C3946 H3958 0.960 . S
C3946 H3959 0.962 . S
C3946 H3960 0.960 . S
C3947 C3944 1.511 . S
C3947 H3961 0.961 . S
C3947 H3962 0.961 . S
C3947 H3963 0.961 . S
C3948 C3949 1.370 . S
C3948 C3950 1.363 . S
C3948 H3964 0.931 . S
C3949 C3948 1.370 . S
C3949 C3953 1.408 . S
C3950 C3948 1.363 . S
C3950 C3951 1.370 . S
C3950 C3954 1.524 . S
C3951 C3943 1.503 1_455 S
C3951 C3950 1.370 . S
C3951 C3952 1.403 . S
C3952 C3951 1.403 . S
C3952 C3953 1.404 . S
C3952 C3955 1.539 . S
C3953 C3949 1.408 . S
C3953 C3952 1.404 . S
C3953 H3965 0.930 . S
C3954 C3950 1.524 . S
C3954 H3966 0.956 . S
C3954 H3967 0.961 1_455 S
C3954 H3968 0.961 . S
C3955 C3952 1.539 . S
C3955 H3969 0.958 . S
C3955 H3970 0.961 . S
C3955 H3971 0.960 1_455 S
H3956 C3940 0.931 . S
H3957 C3945 0.929 . S
H3958 C3946 0.960 . S
H3959 C3946 0.962 . S
H3960 C3946 0.960 . S
H3961 C3947 0.961 . S
H3962 C3947 0.961 . S
H3963 C3947 0.961 . S
H3964 C3948 0.931 . S
H3965 C3953 0.930 . S
H3966 C3954 0.956 . S
H3967 C3954 0.961 1_655 S
H3968 C3954 0.961 . S
H3969 C3955 0.958 . S
H3970 C3955 0.961 . S
H3971 C3955 0.960 1_655 S
C3972 C3973 1.391 . S
C3972 C3974 1.394 . S
C3972 H3988 0.931 . S
C3973 C3972 1.391 . S
C3973 C3977 1.376 1_556 S
C3974 C3972 1.394 . S
C3974 C3975 1.369 . S
C3974 C3978 1.531 . S
C3975 C3974 1.369 . S
C3975 C3976 1.410 1_556 S
C3975 C3983 1.515 . S
C3976 C3975 1.410 1_554 S
C3976 C3977 1.392 . S
C3976 C3979 1.511 . S
C3977 C3973 1.376 1_554 S
C3977 C3976 1.392 . S
C3977 H3989 0.929 . S
C3978 C3974 1.531 . S
C3978 H3990 0.960 . S
C3978 H3991 0.962 . S
C3978 H3992 0.960 . S
C3979 C3976 1.511 . S
C3979 H3993 0.961 . S
C3979 H3994 0.961 . S
C3979 H3995 0.961 . S
C3980 C3981 1.370 . S
C3980 C3982 1.363 . S
C3980 H3996 0.931 . S
C3981 C3980 1.370 . S
C3981 C3985 1.408 1_554 S
C3982 C3980 1.363 . S
C3982 C3983 1.331 1_554 S
C3982 C3986 1.524 . S
C3983 C3975 1.515 . S
C3983 C3982 1.331 1_556 S
C3983 C3984 1.433 . S
C3984 C3983 1.433 . S
C3984 C3985 1.404 . S
C3984 C3987 1.539 . S
C3985 C3981 1.408 1_556 S
C3985 C3984 1.404 . S
C3985 H3997 0.930 . S
C3986 C3982 1.524 . S
C3986 H3998 0.956 . S
C3986 H3999 0.961 . S
C3986 H4000 0.961 . S
C3987 C3984 1.539 . S
C3987 H4001 0.958 . S
C3987 H4002 0.961 . S
C3987 H4003 0.960 . S
H3988 C3972 0.931 . S
H3989 C3977 0.929 . S
H3990 C3978 0.960 . S
H3991 C3978 0.962 . S
H3992 C3978 0.960 . S
H3993 C3979 0.961 . S
H3994 C3979 0.961 . S
H3995 C3979 0.961 . S
H3996 C3980 0.931 . S
H3997 C3985 0.930 . S
H3998 C3986 0.956 . S
H3999 C3986 0.961 . S
H4000 C3986 0.961 . S
H4001 C3987 0.958 . S
H4002 C3987 0.961 . S
H4003 C3987 0.960 . S
C4004 C4005 1.391 . S
C4004 C4006 1.394 . S
C4004 H4020 0.931 . S
C4005 C4004 1.391 . S
C4005 C4009 1.376 1_556 S
C4006 C4004 1.394 . S
C4006 C4007 1.369 . S
C4006 C4010 1.531 . S
C4007 C4006 1.369 . S
C4007 C4008 1.410 1_556 S
C4007 C4015 1.502 1_545 S
C4008 C4007 1.410 1_554 S
C4008 C4009 1.392 . S
C4008 C4011 1.511 1_545 S
C4009 C4005 1.376 1_554 S
C4009 C4008 1.392 . S
C4009 H4021 0.929 . S
C4010 C4006 1.531 . S
C4010 H4022 0.995 . S
C4010 H4023 0.962 . S
C4010 H4024 0.960 . S
C4011 C4008 1.511 1_565 S
C4011 H4025 0.961 1_565 S
C4011 H4026 0.961 . S
C4011 H4027 0.961 . S
C4012 C4013 1.370 . S
C4012 C4014 1.363 . S
C4012 H4028 0.931 . S
C4013 C4012 1.370 . S
C4013 C4017 1.408 1_554 S
C4014 C4012 1.363 . S
C4014 C4015 1.373 1_554 S
C4014 C4018 1.524 1_565 S
C4015 C4007 1.502 1_565 S
C4015 C4014 1.373 1_556 S
C4015 C4016 1.401 . S
C4016 C4015 1.401 . S
C4016 C4017 1.404 . S
C4016 C4019 1.539 . S
C4017 C4013 1.408 1_556 S
C4017 C4016 1.404 . S
C4017 H4029 0.930 . S
C4018 C4014 1.524 1_545 S
C4018 H4030 0.956 . S
C4018 H4031 0.961 . S
C4018 H4032 0.961 . S
C4019 C4016 1.539 . S
C4019 H4033 0.958 . S
C4019 H4034 0.961 . S
C4019 H4035 0.960 . S
H4020 C4004 0.931 . S
H4021 C4009 0.929 . S
H4022 C4010 0.995 . S
H4023 C4010 0.962 . S
H4024 C4010 0.960 . S
H4025 C4011 0.961 1_545 S
H4026 C4011 0.961 . S
H4027 C4011 0.961 . S
H4028 C4012 0.931 . S
H4029 C4017 0.930 . S
H4030 C4018 0.956 . S
H4031 C4018 0.961 . S
H4032 C4018 0.961 . S
H4033 C4019 0.958 . S
H4034 C4019 0.961 . S
H4035 C4019 0.960 . S
C4036 C4037 1.391 1_556 S
C4036 C4038 1.394 . S
C4036 H4052 0.931 . S
C4037 C4036 1.391 1_554 S
C4037 C4041 1.376 . S
C4038 C4036 1.394 . S
C4038 C4039 1.369 . S
C4038 C4042 1.531 . S
C4039 C4038 1.369 . S
C4039 C4040 1.410 1_556 S
C4039 C4047 1.503 1_455 S
C4040 C4039 1.410 1_554 S
C4040 C4041 1.392 . S
C4040 C4043 1.511 1_455 S
C4041 C4037 1.376 . S
C4041 C4040 1.392 . S
C4041 H4053 0.929 . S
C4042 C4038 1.531 . S
C4042 H4054 0.960 . S
C4042 H4055 0.962 . S
C4042 H4056 0.960 . S
C4043 C4040 1.511 1_655 S
C4043 H4057 0.961 . S
C4043 H4058 0.961 . S
C4043 H4059 0.961 . S
C4044 C4045 1.370 1_554 S
C4044 C4046 1.363 . S
C4044 H4060 0.931 . S
C4045 C4044 1.370 1_556 S
C4045 C4049 1.408 . S
C4046 C4044 1.363 . S
C4046 C4047 1.370 1_554 S
C4046 C4050 1.524 1_655 S
C4047 C4039 1.503 1_655 S
C4047 C4046 1.370 1_556 S
C4047 C4048 1.403 . S
C4048 C4047 1.403 . S
C4048 C4049 1.404 . S
C4048 C4051 1.539 . S
C4049 C4045 1.408 . S
C4049 C4048 1.404 . S
C4049 H4061 0.930 . S
C4050 C4046 1.524 1_455 S
C4050 H4062 0.956 . S
C4050 H4063 0.961 . S
C4050 H4064 0.961 1_455 S
C4051 C4048 1.539 . S
C4051 H4065 0.958 . S
C4051 H4066 0.961 . S
C4051 H4067 0.960 . S
H4052 C4036 0.931 . S
H4053 C4041 0.929 . S
H4054 C4042 0.960 . S
H4055 C4042 0.962 . S
H4056 C4042 0.960 . S
H4057 C4043 0.961 . S
H4058 C4043 0.961 . S
H4059 C4043 0.961 . S
H4060 C4044 0.931 . S
H4061 C4049 0.930 . S
H4062 C4050 0.956 . S
H4063 C4050 0.961 . S
H4064 C4050 0.961 1_655 S
H4065 C4051 0.958 . S
H4066 C4051 0.961 . S
H4067 C4051 0.960 . S
C1189 N14 1.238 . S
C1197 C74 1.222 . S
C1221 N47 1.269 . S
C1229 C8 1.252 . S
C1253 N80 1.143 . S
C1261 C41 1.121 . S
C1285 N113 1.218 . S
C1293 C140 1.200 . S
C1317 N146 1.140 . S
C1325 C173 1.121 . S
C1349 N179 1.272 . S
C1357 C107 1.256 . S
C1381 C272 1.236 . S
C1389 N212 1.236 . S
C1413 C206 1.265 . S
C1421 N245 1.269 . S
C1445 C239 1.158 . S
C1453 N278 1.155 . S
C1477 C338 1.178 . S
C1485 N311 1.228 . S
C1509 N344 1.155 . S
C1517 C371 1.139 . S
C1541 C305 1.265 . S
C1549 N377 1.269 . S
C1573 N410 1.181 . S
C1581 C470 1.168 . S
C1605 C404 1.148 . S
C1613 N443 1.196 . S
C1637 N476 1.182 . S
C1645 C437 1.167 . S
C1669 N509 1.208 . S
C1677 C536 1.188 . S
C1701 N542 1.212 . S
C1709 C569 1.196 . S
C1733 N575 1.192 . S
C1741 C503 1.178 . S
C1765 C668 1.223 . S
C1773 N608 1.224 . S
C1797 N641 1.191 . S
C1805 C602 1.172 . S
C1829 C635 1.211 . S
C1837 N674 1.214 . S
C1861 N707 1.165 . S
C1869 C734 1.146 . S
C1893 N740 1.184 . S
C1901 C767 1.168 . S
C1925 N773 1.205 . S
C1933 C701 1.186 . S
C1957 N806 1.207 . S
C1965 C866 1.188 . S
C1989 C800 1.186 . S
C1997 N839 1.188 . S
C2021 C833 1.186 . S
C2029 N872 1.211 . S
C2053 C932 1.167 . S
C2061 N905 1.177 . S
C2085 C965 1.184 . S
C2093 N938 1.180 . S
C2117 C899 1.203 . S
C2125 N971 1.203 . S
C2149 C1064 1.128 . S
C2157 N1004 1.172 . S
C2181 C998 1.147 . S
C2189 N1037 1.196 . S
C2213 N1070 1.183 . S
C2221 C1031 1.170 . S
C2245 C1130 1.168 . S
C2253 N1103 1.217 . S
C2277 C1163 1.213 . S
C2285 N1136 1.214 . S
C2309 C1097 1.192 . S
C2317 N1169 1.187 . S
C2341 C160 1.654 . S
C2349 C28 1.657 . S
C2373 C193 1.730 . S
C2381 C61 1.727 . S
C2405 C94 1.665 . S
C2413 C127 1.662 . S
C2437 C358 1.648 . S
C2445 C226 1.665 . S
C2469 C259 1.706 . S
C2477 C391 1.717 . S
C2501 C292 1.658 . S
C2509 C325 1.667 . S
C2533 C424 1.711 . S
C2541 C556 1.724 . S
C2565 C589 1.711 . S
C2573 C457 1.723 . S
C2597 C523 1.728 . S
C2605 C490 1.728 . S
C2629 C622 1.728 . S
C2637 C754 1.726 . S
C2661 C655 1.712 . S
C2669 C787 1.722 . S
C2693 C721 1.725 . S
C2701 C688 1.727 . S
C2725 C820 1.713 . S
C2733 C952 1.721 . S
C2757 C853 1.722 . S
C2765 C985 1.728 . S
C2789 C919 1.711 . S
C2797 C886 1.725 . S
C2821 C1018 1.712 . S
C2829 C1150 1.724 . S
C2853 C1051 1.716 . S
C2861 C1183 1.723 . S
C2885 C1117 1.727 . S
C2893 C1084 1.730 . S
C2917 C974 1.554 . S
C2925 C17 1.580 . S
C2949 C908 1.590 . S
C2957 C50 1.626 . S
C2981 C83 1.536 . S
C2989 C941 1.527 . S
C3013 C116 1.576 . S
C3021 C446 1.573 . S
C3045 C479 1.554 . S
C3053 C149 1.522 . S
C3077 C182 1.622 . S
C3085 C413 1.610 . S
C3109 C215 1.595 . S
C3117 C776 1.574 . S
C3141 C248 1.635 . S
C3149 C710 1.614 . S
C3173 C743 1.513 . S
C3181 C281 1.533 . S
C3205 C1040 1.597 . S
C3213 C314 1.571 . S
C3237 C347 1.555 . S
C3245 C1073 1.530 . S
C3269 C380 1.595 . S
C3277 C1007 1.627 . S
C3301 C842 1.643 . S
C3309 C512 1.650 . S
C3333 C545 1.687 . S
C3341 C875 1.667 . S
C3365 C809 1.629 . S
C3373 C578 1.654 . S
C3397 C611 1.664 . S
C3405 C1172 1.641 . S
C3429 C644 1.664 . S
C3437 C1106 1.641 . S
C3461 C677 1.681 . S
C3469 C1139 1.679 . S
C3493 N5 1.258 . S
C3501 N599 1.263 . S
C3525 N632 1.129 . S
C3533 N38 1.121 . S
C3557 N665 1.225 . S
C3565 N71 1.198 . S
C3589 N104 1.218 . S
C3597 N1094 1.278 . S
C3621 N1127 1.228 . S
C3629 N137 1.202 . S
C3653 N170 1.079 . S
C3661 N1160 1.144 . S
C3685 N797 1.296 . S
C3693 N203 1.243 . S
C3717 N236 1.102 . S
C3725 N830 1.134 . S
C3749 N269 1.242 . S
C3757 N863 1.193 . S
C3781 N302 1.261 . S
C3789 N500 1.261 . S
C3813 N335 1.247 . S
C3821 N533 1.192 . S
C3845 N566 1.139 . S
C3853 N368 1.116 . S
C3877 N995 1.108 . S
C3885 N401 1.173 . S
C3909 N434 1.164 . S
C3917 N1028 1.227 . S
C3941 N467 1.126 . S
C3949 N1061 1.166 . S
C3973 N698 1.173 . S
C3981 N896 1.142 . S
C4005 N731 1.183 . S
C4013 N929 1.137 . S
C4037 N962 1.244 . S
C4045 N764 1.193 . S
