# Generated by pormake.
# Topology gme, (4)-cn, num edge types: 1
# Building blocks:
#     Node 0, Type 0, BuildingBlock: TATPOV_clean_sbu_0, # of connection points: 4
#     Node 1, Type 0, BuildingBlock: TATPOV_clean_sbu_0, # of connection points: 4
#     Node 2, Type 0, BuildingBlock: TATPOV_clean_sbu_0, # of connection points: 4
#     Node 3, Type 0, BuildingBlock: TATPOV_clean_sbu_0, # of connection points: 4
#     Node 4, Type 0, BuildingBlock: TATPOV_clean_sbu_0, # of connection points: 4
#     Node 5, Type 0, BuildingBlock: TATPOV_clean_sbu_0, # of connection points: 4
#     Node 6, Type 0, BuildingBlock: TATPOV_clean_sbu_0, # of connection points: 4
#     Node 7, Type 0, BuildingBlock: TATPOV_clean_sbu_0, # of connection points: 4
#     Node 8, Type 0, BuildingBlock: TATPOV_clean_sbu_0, # of connection points: 4
#     Node 9, Type 0, BuildingBlock: TATPOV_clean_sbu_0, # of connection points: 4
#     Node 10, Type 0, BuildingBlock: TATPOV_clean_sbu_0, # of connection points: 4
#     Node 11, Type 0, BuildingBlock: TATPOV_clean_sbu_0, # of connection points: 4
#     Node 12, Type 0, BuildingBlock: TATPOV_clean_sbu_0, # of connection points: 4
#     Node 13, Type 0, BuildingBlock: TATPOV_clean_sbu_0, # of connection points: 4
#     Node 14, Type 0, BuildingBlock: TATPOV_clean_sbu_0, # of connection points: 4
#     Node 15, Type 0, BuildingBlock: TATPOV_clean_sbu_0, # of connection points: 4
#     Node 16, Type 0, BuildingBlock: TATPOV_clean_sbu_0, # of connection points: 4
#     Node 17, Type 0, BuildingBlock: TATPOV_clean_sbu_0, # of connection points: 4
#     Node 18, Type 0, BuildingBlock: TATPOV_clean_sbu_0, # of connection points: 4
#     Node 19, Type 0, BuildingBlock: TATPOV_clean_sbu_0, # of connection points: 4
#     Node 20, Type 0, BuildingBlock: TATPOV_clean_sbu_0, # of connection points: 4
#     Node 21, Type 0, BuildingBlock: TATPOV_clean_sbu_0, # of connection points: 4
#     Node 22, Type 0, BuildingBlock: TATPOV_clean_sbu_0, # of connection points: 4
#     Node 23, Type 0, BuildingBlock: TATPOV_clean_sbu_0, # of connection points: 4
#     Edge 24, Type (0, 0), BuildingBlock: MIFKUJ_clean_linker_0, # of connection points: 2
#     Edge 25, Type (0, 0), BuildingBlock: MIFKUJ_clean_linker_0, # of connection points: 2
#     Edge 26, Type (0, 0), BuildingBlock: MIFKUJ_clean_linker_0, # of connection points: 2
#     Edge 27, Type (0, 0), BuildingBlock: MIFKUJ_clean_linker_0, # of connection points: 2
#     Edge 28, Type (0, 0), BuildingBlock: MIFKUJ_clean_linker_0, # of connection points: 2
#     Edge 29, Type (0, 0), BuildingBlock: MIFKUJ_clean_linker_0, # of connection points: 2
#     Edge 30, Type (0, 0), BuildingBlock: MIFKUJ_clean_linker_0, # of connection points: 2
#     Edge 31, Type (0, 0), BuildingBlock: MIFKUJ_clean_linker_0, # of connection points: 2
#     Edge 32, Type (0, 0), BuildingBlock: MIFKUJ_clean_linker_0, # of connection points: 2
#     Edge 33, Type (0, 0), BuildingBlock: MIFKUJ_clean_linker_0, # of connection points: 2
#     Edge 34, Type (0, 0), BuildingBlock: MIFKUJ_clean_linker_0, # of connection points: 2
#     Edge 35, Type (0, 0), BuildingBlock: MIFKUJ_clean_linker_0, # of connection points: 2
#     Edge 36, Type (0, 0), BuildingBlock: MIFKUJ_clean_linker_0, # of connection points: 2
#     Edge 37, Type (0, 0), BuildingBlock: MIFKUJ_clean_linker_0, # of connection points: 2
#     Edge 38, Type (0, 0), BuildingBlock: MIFKUJ_clean_linker_0, # of connection points: 2
#     Edge 39, Type (0, 0), BuildingBlock: MIFKUJ_clean_linker_0, # of connection points: 2
#     Edge 40, Type (0, 0), BuildingBlock: MIFKUJ_clean_linker_0, # of connection points: 2
#     Edge 41, Type (0, 0), BuildingBlock: MIFKUJ_clean_linker_0, # of connection points: 2
#     Edge 42, Type (0, 0), BuildingBlock: MIFKUJ_clean_linker_0, # of connection points: 2
#     Edge 43, Type (0, 0), BuildingBlock: MIFKUJ_clean_linker_0, # of connection points: 2
#     Edge 44, Type (0, 0), BuildingBlock: MIFKUJ_clean_linker_0, # of connection points: 2
#     Edge 45, Type (0, 0), BuildingBlock: MIFKUJ_clean_linker_0, # of connection points: 2
#     Edge 46, Type (0, 0), BuildingBlock: MIFKUJ_clean_linker_0, # of connection points: 2
#     Edge 47, Type (0, 0), BuildingBlock: MIFKUJ_clean_linker_0, # of connection points: 2
#     Edge 48, Type (0, 0), BuildingBlock: MIFKUJ_clean_linker_0, # of connection points: 2
#     Edge 49, Type (0, 0), BuildingBlock: MIFKUJ_clean_linker_0, # of connection points: 2
#     Edge 50, Type (0, 0), BuildingBlock: MIFKUJ_clean_linker_0, # of connection points: 2
#     Edge 51, Type (0, 0), BuildingBlock: MIFKUJ_clean_linker_0, # of connection points: 2
#     Edge 52, Type (0, 0), BuildingBlock: MIFKUJ_clean_linker_0, # of connection points: 2
#     Edge 53, Type (0, 0), BuildingBlock: MIFKUJ_clean_linker_0, # of connection points: 2
#     Edge 54, Type (0, 0), BuildingBlock: MIFKUJ_clean_linker_0, # of connection points: 2
#     Edge 55, Type (0, 0), BuildingBlock: MIFKUJ_clean_linker_0, # of connection points: 2
#     Edge 56, Type (0, 0), BuildingBlock: MIFKUJ_clean_linker_0, # of connection points: 2
#     Edge 57, Type (0, 0), BuildingBlock: MIFKUJ_clean_linker_0, # of connection points: 2
#     Edge 58, Type (0, 0), BuildingBlock: MIFKUJ_clean_linker_0, # of connection points: 2
#     Edge 59, Type (0, 0), BuildingBlock: MIFKUJ_clean_linker_0, # of connection points: 2
#     Edge 60, Type (0, 0), BuildingBlock: MIFKUJ_clean_linker_0, # of connection points: 2
#     Edge 61, Type (0, 0), BuildingBlock: MIFKUJ_clean_linker_0, # of connection points: 2
#     Edge 62, Type (0, 0), BuildingBlock: MIFKUJ_clean_linker_0, # of connection points: 2
#     Edge 63, Type (0, 0), BuildingBlock: MIFKUJ_clean_linker_0, # of connection points: 2
#     Edge 64, Type (0, 0), BuildingBlock: MIFKUJ_clean_linker_0, # of connection points: 2
#     Edge 65, Type (0, 0), BuildingBlock: MIFKUJ_clean_linker_0, # of connection points: 2
#     Edge 66, Type (0, 0), BuildingBlock: MIFKUJ_clean_linker_0, # of connection points: 2
#     Edge 67, Type (0, 0), BuildingBlock: MIFKUJ_clean_linker_0, # of connection points: 2
#     Edge 68, Type (0, 0), BuildingBlock: MIFKUJ_clean_linker_0, # of connection points: 2
#     Edge 69, Type (0, 0), BuildingBlock: MIFKUJ_clean_linker_0, # of connection points: 2
#     Edge 70, Type (0, 0), BuildingBlock: MIFKUJ_clean_linker_0, # of connection points: 2
#     Edge 71, Type (0, 0), BuildingBlock: MIFKUJ_clean_linker_0, # of connection points: 2
# Relax obj value: 0.146
# Max RMSD: 0.132
# Mean RMSD: 0.132
data_MOF--net-gme--node1-TATPOV_clean_sbu_0--edge1-MIFKUJ_clean_linker_0
_symmetry_space_group_name_H-M    P1
_symmetry_Int_Tables_number       1
_symmetry_cell_setting            triclinic
loop_
_symmetry_equiv_pos_as_xyz
'x, y, z'
_cell_length_a     82.645307
_cell_length_b     82.632148
_cell_length_c     64.045437
_cell_angle_alpha  90.183168
_cell_angle_beta   90.006165
_cell_angle_gamma 119.9471
loop_
_atom_site_label
_atom_site_type_symbol
_atom_site_fract_x
_atom_site_fract_y
_atom_site_fract_z
_atom_type_partial_charge
Zn0 Zn 0.42547 0.06756 0.09824 0.0
Zn1 Zn 0.42322 0.09459 0.08965 0.0
O2 O 0.40275 0.07589 0.07148 0.0
O3 O 0.42044 0.06341 0.06766 0.0
O4 O 0.42246 0.11753 0.08569 0.0
O5 O 0.4056 0.0587 0.12006 0.0
O6 O 0.41816 0.08921 0.12006 0.0
C7 C 0.40727 0.06567 0.06127 0.0
C8 C 0.45895 0.0956 0.09168 0.0
O9 O 0.44897 0.09966 0.08019 0.0
O10 O 0.45159 0.08483 0.10701 0.0
C11 C 0.42554 0.12494 0.06784 0.0
O12 O 0.42986 0.11764 0.05206 0.0
C13 C 0.40901 0.07363 0.12924 0.0
Zn14 Zn 0.36119 0.41879 0.59952 0.0
Zn15 Zn 0.32213 0.42517 0.5906 0.0
O16 O 0.31769 0.40634 0.56745 0.0
O17 O 0.34604 0.42098 0.57749 0.0
O18 O 0.30007 0.42727 0.59054 0.0
O19 O 0.34778 0.41103 0.62744 0.0
O20 O 0.32524 0.41743 0.61952 0.0
C21 C 0.33358 0.40792 0.56696 0.0
C22 C 0.361 0.45678 0.5857 0.0
O23 O 0.34361 0.4513 0.5851 0.0
O24 O 0.36712 0.44569 0.59015 0.0
C25 C 0.29408 0.42822 0.57268 0.0
O26 O 0.303 0.42806 0.55578 0.0
C27 C 0.33346 0.41219 0.63237 0.0
Zn28 Zn 0.93783 0.36423 0.09502 0.0
Zn29 Zn 0.89237 0.32417 0.08651 0.0
O30 O 0.90677 0.32026 0.0631 0.0
O31 O 0.92038 0.34856 0.07332 0.0
O32 O 0.86922 0.30094 0.08732 0.0
O33 O 0.93279 0.35113 0.12313 0.0
O34 O 0.90386 0.32864 0.11517 0.0
C35 C 0.92104 0.33618 0.06265 0.0
C36 C 0.89849 0.36223 0.08155 0.0
O37 O 0.88673 0.34482 0.08093 0.0
O38 O 0.91575 0.36867 0.08596 0.0
C39 C 0.86038 0.29637 0.07023 0.0
O40 O 0.86637 0.3079 0.05431 0.0
C41 C 0.91716 0.33712 0.1282 0.0
Zn42 Zn 0.55951 0.92289 0.60287 0.0
Zn43 Zn 0.55918 0.89481 0.59062 0.0
O44 O 0.57952 0.91285 0.5719 0.0
O45 O 0.56526 0.92925 0.57271 0.0
O46 O 0.55646 0.87025 0.58604 0.0
O47 O 0.57965 0.92946 0.6241 0.0
O48 O 0.56446 0.89894 0.62144 0.0
C49 C 0.57596 0.92464 0.56369 0.0
C50 C 0.52507 0.89529 0.59451 0.0
O51 O 0.53442 0.89169 0.58156 0.0
O52 O 0.53304 0.90438 0.61086 0.0
C53 C 0.56098 0.86539 0.56931 0.0
O54 O 0.56786 0.87707 0.5536 0.0
C55 C 0.57421 0.91364 0.63217 0.0
Zn56 Zn 0.62166 0.57077 0.09734 0.0
Zn57 Zn 0.66242 0.5634 0.08711 0.0
O58 O 0.66529 0.57943 0.06156 0.0
O59 O 0.64168 0.57349 0.07991 0.0
O60 O 0.68562 0.56319 0.08827 0.0
O61 O 0.63564 0.57907 0.12488 0.0
O62 O 0.65758 0.572 0.11568 0.0
C63 C 0.65083 0.58061 0.06368 0.0
C64 C 0.6244 0.53366 0.08215 0.0
O65 O 0.64137 0.53759 0.08157 0.0
O66 O 0.61987 0.54575 0.08753 0.0
C67 C 0.69091 0.56034 0.07079 0.0
O68 O 0.67988 0.55593 0.05443 0.0
C69 C 0.64989 0.57747 0.1292 0.0
Zn70 Zn 0.04776 0.62791 0.59814 0.0
Zn71 Zn 0.09231 0.66469 0.59065 0.0
O72 O 0.07646 0.66852 0.56965 0.0
O73 O 0.06427 0.63882 0.57342 0.0
O74 O 0.11632 0.68765 0.58944 0.0
O75 O 0.05258 0.6416 0.62561 0.0
O76 O 0.08272 0.6617 0.61986 0.0
C77 C 0.06405 0.65226 0.56479 0.0
C78 C 0.08544 0.62634 0.58771 0.0
O79 O 0.09738 0.64345 0.58456 0.0
O80 O 0.06846 0.62106 0.59217 0.0
C81 C 0.12259 0.69325 0.57127 0.0
O82 O 0.11354 0.68342 0.55478 0.0
C83 C 0.06866 0.65395 0.63194 0.0
Zn84 Zn 0.92158 0.56248 0.37955 0.0
Zn85 Zn 0.89336 0.56425 0.39 0.0
O86 O 0.91213 0.58444 0.40918 0.0
O87 O 0.92123 0.56402 0.41032 0.0
O88 O 0.8701 0.56442 0.39382 0.0
O89 O 0.92887 0.58315 0.35844 0.0
O90 O 0.89848 0.57018 0.36026 0.0
C91 C 0.92105 0.57779 0.41831 0.0
C92 C 0.8938 0.52841 0.38601 0.0
O93 O 0.88828 0.53781 0.39663 0.0
O94 O 0.9057 0.53613 0.37158 0.0
C95 C 0.86192 0.56098 0.41124 0.0
O96 O 0.86874 0.55679 0.42752 0.0
C97 C 0.91349 0.57924 0.35005 0.0
Zn98 Zn 0.35242 0.92273 0.88262 0.0
Zn99 Zn 0.32287 0.89516 0.89139 0.0
O100 O 0.32089 0.91382 0.90909 0.0
O101 O 0.3512 0.92772 0.91312 0.0
O102 O 0.29897 0.87257 0.89549 0.0
O103 O 0.34104 0.93051 0.86007 0.0
O104 O 0.32358 0.89995 0.86084 0.0
C105 C 0.33536 0.92419 0.9196 0.0
C106 C 0.35674 0.89355 0.88984 0.0
O107 O 0.34301 0.88984 0.90165 0.0
O108 O 0.35989 0.90412 0.87439 0.0
C109 C 0.29454 0.86535 0.91341 0.0
O110 O 0.30637 0.8723 0.92905 0.0
C111 C 0.33008 0.91525 0.85101 0.0
Zn112 Zn 0.42121 0.35884 0.38214 0.0
Zn113 Zn 0.42455 0.32693 0.3905 0.0
O114 O 0.40568 0.32404 0.41186 0.0
O115 O 0.40347 0.34907 0.40497 0.0
O116 O 0.42663 0.30442 0.39321 0.0
O117 O 0.41235 0.34958 0.35403 0.0
O118 O 0.41744 0.32626 0.3603 0.0
C119 C 0.39871 0.33438 0.41526 0.0
C120 C 0.45727 0.36463 0.39601 0.0
O121 O 0.45017 0.34715 0.39785 0.0
O122 O 0.44813 0.37196 0.389 0.0
C123 C 0.42391 0.29585 0.41036 0.0
O124 O 0.4195 0.30191 0.42719 0.0
C125 C 0.41268 0.3352 0.348 0.0
Zn126 Zn 0.04725 0.41684 0.8857 0.0
Zn127 Zn 0.09024 0.42446 0.89152 0.0
O128 O 0.07424 0.404 0.91126 0.0
O129 O 0.06158 0.42151 0.91264 0.0
O130 O 0.11405 0.42523 0.89256 0.0
O131 O 0.05214 0.40919 0.85743 0.0
O132 O 0.08219 0.41852 0.86211 0.0
C133 C 0.06292 0.40805 0.91952 0.0
C134 C 0.08294 0.45575 0.89677 0.0
O135 O 0.09495 0.45049 0.89877 0.0
O136 O 0.06596 0.44431 0.89217 0.0
C137 C 0.12209 0.42788 0.91005 0.0
O138 O 0.11502 0.43139 0.92666 0.0
C139 C 0.06783 0.41232 0.8506 0.0
Zn140 Zn 0.63228 0.06812 0.3787 0.0
Zn141 Zn 0.66184 0.09407 0.39062 0.0
O142 O 0.66136 0.0742 0.40883 0.0
O143 O 0.63145 0.06417 0.40917 0.0
O144 O 0.6862 0.1161 0.39494 0.0
O145 O 0.64433 0.05888 0.35844 0.0
O146 O 0.66224 0.08924 0.36055 0.0
C147 C 0.64549 0.06429 0.41701 0.0
C148 C 0.62817 0.09687 0.38545 0.0
O149 O 0.64135 0.10011 0.39805 0.0
O150 O 0.62586 0.08708 0.36934 0.0
C151 C 0.69057 0.12576 0.41146 0.0
O152 O 0.67835 0.12137 0.42656 0.0
C153 C 0.65581 0.07424 0.35011 0.0
Zn154 Zn 0.57035 0.62912 0.88744 0.0
Zn155 Zn 0.56205 0.66327 0.89178 0.0
O156 O 0.58227 0.66735 0.91195 0.0
O157 O 0.56402 0.63746 0.91472 0.0
O158 O 0.56012 0.68572 0.89282 0.0
O159 O 0.57809 0.64118 0.85901 0.0
O160 O 0.56853 0.66179 0.86269 0.0
C161 C 0.57657 0.65256 0.9223 0.0
C162 C 0.53092 0.62479 0.89655 0.0
O163 O 0.53597 0.64201 0.89822 0.0
O164 O 0.54263 0.61941 0.89282 0.0
C165 C 0.55935 0.69224 0.91043 0.0
O166 O 0.55979 0.68378 0.92757 0.0
C167 C 0.57499 0.6536 0.85168 0.0
Zn168 Zn 0.5668 0.94249 0.8837 0.0
Zn169 Zn 0.5591 0.89341 0.89429 0.0
O170 O 0.57578 0.90707 0.9192 0.0
O171 O 0.56879 0.92423 0.90106 0.0
O172 O 0.55853 0.87 0.89251 0.0
O173 O 0.57482 0.93638 0.85612 0.0
O174 O 0.56741 0.90737 0.86593 0.0
C175 C 0.57678 0.92261 0.91689 0.0
C176 C 0.53034 0.90164 0.89914 0.0
O177 O 0.53331 0.88805 0.9007 0.0
O178 O 0.54347 0.91755 0.89336 0.0
C179 C 0.55706 0.86226 0.90997 0.0
O180 O 0.55528 0.86992 0.92719 0.0
C181 C 0.57283 0.92027 0.85217 0.0
Zn182 Zn 0.62227 0.56919 0.38193 0.0
Zn183 Zn 0.66389 0.56461 0.39114 0.0
O184 O 0.66701 0.58151 0.4163 0.0
O185 O 0.64174 0.57165 0.39976 0.0
O186 O 0.68696 0.56425 0.39113 0.0
O187 O 0.63629 0.57777 0.35412 0.0
O188 O 0.65977 0.57269 0.36229 0.0
C189 C 0.65149 0.5807 0.415 0.0
C190 C 0.62509 0.53285 0.39662 0.0
O191 O 0.64254 0.53845 0.39643 0.0
O192 O 0.61842 0.54341 0.39197 0.0
C193 C 0.69068 0.56027 0.40887 0.0
O194 O 0.67868 0.55545 0.42428 0.0
C195 C 0.6511 0.57736 0.34926 0.0
Zn196 Zn 0.04467 0.62178 0.88338 0.0
Zn197 Zn 0.09329 0.66453 0.89446 0.0
O198 O 0.07929 0.66746 0.91878 0.0
O199 O 0.0618 0.64329 0.90064 0.0
O200 O 0.11599 0.68842 0.89307 0.0
O201 O 0.05076 0.63553 0.85562 0.0
O202 O 0.07942 0.65804 0.86566 0.0
C203 C 0.06363 0.65306 0.91646 0.0
C204 C 0.08599 0.62808 0.89954 0.0
O205 O 0.0995 0.64459 0.90201 0.0
O206 O 0.07033 0.62571 0.89342 0.0
C207 C 0.12393 0.69361 0.91066 0.0
O208 O 0.11763 0.68242 0.92683 0.0
C209 C 0.06663 0.64996 0.85174 0.0
Zn210 Zn 0.42443 0.06521 0.37886 0.0
Zn211 Zn 0.42388 0.09361 0.38887 0.0
O212 O 0.40302 0.07575 0.40731 0.0
O213 O 0.41747 0.05954 0.40882 0.0
O214 O 0.42634 0.11818 0.3928 0.0
O215 O 0.40508 0.05817 0.35683 0.0
O216 O 0.4187 0.08874 0.35821 0.0
C217 C 0.40616 0.06403 0.41644 0.0
C218 C 0.45858 0.09323 0.38728 0.0
O219 O 0.4487 0.09726 0.3989 0.0
O220 O 0.45117 0.08284 0.37158 0.0
C221 C 0.4232 0.12332 0.41021 0.0
O222 O 0.41787 0.11195 0.42626 0.0
C223 C 0.40906 0.0735 0.3484 0.0
Zn224 Zn 0.35999 0.41663 0.88547 0.0
Zn225 Zn 0.32244 0.4257 0.8933 0.0
O226 O 0.3177 0.40662 0.91531 0.0
O227 O 0.34705 0.42107 0.90887 0.0
O228 O 0.29931 0.42605 0.89232 0.0
O229 O 0.34718 0.40925 0.85727 0.0
O230 O 0.32674 0.41867 0.86453 0.0
C231 C 0.33322 0.4075 0.91714 0.0
C232 C 0.36036 0.45588 0.89791 0.0
O233 O 0.34341 0.45165 0.90017 0.0
O234 O 0.36469 0.44347 0.89316 0.0
C235 C 0.29393 0.42854 0.90991 0.0
O236 O 0.30479 0.43244 0.92635 0.0
C237 C 0.33439 0.41266 0.85182 0.0
Zn238 Zn 0.92375 0.35488 0.37844 0.0
Zn239 Zn 0.89426 0.32572 0.38984 0.0
O240 O 0.91224 0.32311 0.40813 0.0
O241 O 0.93097 0.35355 0.40719 0.0
O242 O 0.87114 0.30206 0.39401 0.0
O243 O 0.92844 0.34159 0.35543 0.0
O244 O 0.898 0.32577 0.35906 0.0
C245 C 0.92529 0.33797 0.4159 0.0
C246 C 0.89521 0.36132 0.38933 0.0
O247 O 0.8899 0.34653 0.39986 0.0
O248 O 0.90681 0.36538 0.37463 0.0
C249 C 0.86225 0.29779 0.41104 0.0
O250 O 0.86788 0.30976 0.42663 0.0
C251 C 0.91243 0.33106 0.34786 0.0
Zn252 Zn 0.04419 0.4191 0.59926 0.0
Zn253 Zn 0.0918 0.42563 0.58943 0.0
O254 O 0.07854 0.40832 0.56484 0.0
O255 O 0.06118 0.41496 0.58304 0.0
O256 O 0.11592 0.42748 0.59098 0.0
O257 O 0.05024 0.41277 0.62759 0.0
O258 O 0.07881 0.41826 0.61835 0.0
C259 C 0.06318 0.40774 0.56686 0.0
C260 C 0.08353 0.45579 0.58479 0.0
O261 O 0.09592 0.45105 0.5827 0.0
O262 O 0.06687 0.44428 0.59042 0.0
C263 C 0.1236 0.4288 0.57349 0.0
O264 O 0.11549 0.42958 0.55618 0.0
C265 C 0.06581 0.41371 0.63184 0.0
Zn266 Zn 0.63146 0.06487 0.09928 0.0
Zn267 Zn 0.66093 0.0931 0.08861 0.0
O268 O 0.66334 0.07467 0.07092 0.0
O269 O 0.6327 0.05832 0.0699 0.0
O270 O 0.68474 0.1159 0.08464 0.0
O271 O 0.644 0.05873 0.12194 0.0
O272 O 0.66066 0.08917 0.11923 0.0
C273 C 0.6484 0.06285 0.06209 0.0
C274 C 0.6262 0.09376 0.08917 0.0
O275 O 0.64047 0.09785 0.07812 0.0
O276 O 0.62239 0.0829 0.10454 0.0
C277 C 0.68922 0.12471 0.06758 0.0
O278 O 0.67734 0.11909 0.05193 0.0
C279 C 0.65489 0.07446 0.12999 0.0
Zn280 Zn 0.5614 0.63322 0.60123 0.0
Zn281 Zn 0.56158 0.66335 0.59183 0.0
O282 O 0.58227 0.66724 0.57278 0.0
O283 O 0.57175 0.63692 0.5726 0.0
O284 O 0.55881 0.68549 0.58864 0.0
O285 O 0.57762 0.64363 0.62599 0.0
O286 O 0.56702 0.66321 0.62246 0.0
C287 C 0.5815 0.65291 0.56466 0.0
C288 C 0.52676 0.62752 0.59127 0.0
O289 O 0.53671 0.6426 0.58151 0.0
O290 O 0.53395 0.62203 0.60489 0.0
C291 C 0.56124 0.69335 0.57106 0.0
O292 O 0.56593 0.68692 0.55475 0.0
C293 C 0.57471 0.65611 0.63341 0.0
Zn294 Zn 0.92877 0.56516 0.09732 0.0
Zn295 Zn 0.89445 0.5634 0.08834 0.0
O296 O 0.90975 0.58067 0.06579 0.0
O297 O 0.9367 0.58281 0.07419 0.0
O298 O 0.87132 0.56398 0.08649 0.0
O299 O 0.92931 0.57453 0.12576 0.0
O300 O 0.90193 0.57143 0.118 0.0
C301 C 0.92703 0.58729 0.0629 0.0
C302 C 0.89714 0.52941 0.08356 0.0
O303 O 0.88724 0.53707 0.08182 0.0
O304 O 0.91377 0.53814 0.09022 0.0
C305 C 0.86282 0.56121 0.06928 0.0
O306 O 0.86921 0.55711 0.05249 0.0
C307 C 0.91513 0.57562 0.13086 0.0
Zn308 Zn 0.35212 0.92048 0.6003 0.0
Zn309 Zn 0.32241 0.89385 0.59052 0.0
O310 O 0.32159 0.91281 0.57152 0.0
O311 O 0.35106 0.92158 0.56884 0.0
O312 O 0.2991 0.87082 0.58694 0.0
O313 O 0.34093 0.93046 0.62082 0.0
O314 O 0.32245 0.90004 0.62046 0.0
C315 C 0.33695 0.92198 0.56205 0.0
C316 C 0.35594 0.89177 0.59671 0.0
O317 O 0.34315 0.88813 0.58341 0.0
O318 O 0.35705 0.9013 0.61259 0.0
C319 C 0.29302 0.86464 0.56889 0.0
O320 O 0.30255 0.87347 0.55222 0.0
C321 C 0.32948 0.91554 0.63008 0.0
Zn322 Zn 0.42538 0.35468 0.09643 0.0
Zn323 Zn 0.42424 0.32573 0.08754 0.0
O324 O 0.40295 0.32332 0.0699 0.0
O325 O 0.42185 0.35297 0.06537 0.0
O326 O 0.42414 0.30233 0.08425 0.0
O327 O 0.40544 0.34221 0.11853 0.0
O328 O 0.42 0.3262 0.1178 0.0
C329 C 0.40774 0.33802 0.05959 0.0
C330 C 0.45938 0.36111 0.09006 0.0
O331 O 0.44985 0.34672 0.07877 0.0
O332 O 0.45166 0.36481 0.10491 0.0
C333 C 0.42614 0.29675 0.0666 0.0
O334 O 0.42878 0.30689 0.04985 0.0
C335 C 0.4105 0.33189 0.12765 0.0
H336 H 0.38631 0.08016 0.32397 0.0
H337 H 0.38956 0.08548 0.28606 0.0
H338 H 0.43651 0.07607 0.28569 0.0
H339 H 0.43317 0.07074 0.32344 0.0
H340 H 0.44199 0.10496 0.25948 0.0
H341 H 0.3958 0.04159 0.27488 0.0
H342 H 0.36763 0.01625 0.29145 0.0
H343 H 0.33374 0.03505 0.26103 0.0
H344 H 0.36175 0.06077 0.24459 0.0
H345 H 0.43263 0.07014 0.15451 0.0
H346 H 0.4369 0.07726 0.19196 0.0
H347 H 0.39051 0.08751 0.19099 0.0
H348 H 0.3864 0.08053 0.15341 0.0
H349 H 0.38661 0.06065 0.21804 0.0
H350 H 0.43513 0.12395 0.20059 0.0
H351 H 0.46446 0.14834 0.1848 0.0
H352 H 0.49531 0.12725 0.21757 0.0
H353 H 0.46621 0.10272 0.23358 0.0
C354 C 0.39708 0.07902 0.31558 0.0
C355 C 0.40909 0.07446 0.32597 0.0
C356 C 0.39913 0.0823 0.29418 0.0
C357 C 0.41323 0.08106 0.28326 0.0
C358 C 0.4256 0.07708 0.29393 0.0
C359 C 0.42344 0.07366 0.31524 0.0
C360 C 0.41372 0.0818 0.26041 0.0
C361 C 0.42998 0.09532 0.25025 0.0
C362 C 0.39797 0.06898 0.24875 0.0
C363 C 0.381 0.05333 0.25863 0.0
C364 C 0.38239 0.04047 0.27186 0.0
C365 C 0.36642 0.026 0.28123 0.0
C366 C 0.34891 0.02406 0.27734 0.0
C367 C 0.34732 0.03658 0.26406 0.0
C368 C 0.36325 0.05112 0.25471 0.0
C369 C 0.42317 0.07357 0.16255 0.0
C370 C 0.40874 0.07415 0.15172 0.0
C371 C 0.42596 0.07816 0.18364 0.0
C372 C 0.41422 0.0832 0.19401 0.0
C373 C 0.39983 0.08386 0.18305 0.0
C374 C 0.39719 0.07948 0.16189 0.0
C375 C 0.41461 0.08425 0.21685 0.0
C376 C 0.39857 0.07066 0.22712 0.0
C377 C 0.43075 0.09673 0.22838 0.0
C378 C 0.44833 0.1113 0.21822 0.0
C379 C 0.44812 0.12437 0.20431 0.0
C380 C 0.46475 0.1383 0.19538 0.0
C381 C 0.48174 0.13933 0.20015 0.0
C382 C 0.48215 0.12645 0.21389 0.0
C383 C 0.46559 0.11257 0.22295 0.0
H384 H 0.49456 0.1501 0.19323 0.0
H385 H 0.33657 0.01285 0.28457 0.0
H386 H 0.30978 0.38385 0.65808 0.0
H387 H 0.30548 0.38662 0.69573 0.0
H388 H 0.34428 0.44594 0.69277 0.0
H389 H 0.34864 0.44307 0.65542 0.0
H390 H 0.35445 0.42885 0.72111 0.0
H391 H 0.29858 0.43066 0.70449 0.0
H392 H 0.26796 0.42006 0.68782 0.0
H393 H 0.24538 0.36745 0.71936 0.0
H394 H 0.27586 0.3777 0.7362 0.0
H395 H 0.34945 0.44349 0.82849 0.0
H396 H 0.34558 0.44561 0.79083 0.0
H397 H 0.30752 0.3861 0.78832 0.0
H398 H 0.31143 0.38406 0.82617 0.0
H399 H 0.29649 0.4057 0.76274 0.0
H400 H 0.35255 0.40358 0.77852 0.0
H401 H 0.38334 0.41361 0.79436 0.0
H402 H 0.4063 0.46623 0.7628 0.0
H403 H 0.37556 0.45671 0.74707 0.0
C404 C 0.31721 0.3974 0.66562 0.0
C405 C 0.32982 0.41319 0.65438 0.0
C406 C 0.31461 0.39905 0.68692 0.0
C407 C 0.32458 0.4165 0.69697 0.0
C408 C 0.3365 0.43238 0.68531 0.0
C409 C 0.33908 0.43071 0.66413 0.0
C410 C 0.32466 0.41777 0.71997 0.0
C411 C 0.34185 0.4242 0.73026 0.0
C412 C 0.30806 0.41117 0.7317 0.0
C413 C 0.28961 0.40494 0.72156 0.0
C414 C 0.28713 0.41679 0.7078 0.0
C415 C 0.26976 0.41086 0.69835 0.0
C416 C 0.25473 0.39308 0.7025 0.0
C417 C 0.25702 0.38123 0.71617 0.0
C418 C 0.27433 0.38712 0.72573 0.0
C419 C 0.34021 0.43094 0.81979 0.0
C420 C 0.33104 0.41355 0.82971 0.0
C421 C 0.33797 0.43215 0.79842 0.0
C422 C 0.32656 0.41595 0.7868 0.0
C423 C 0.31651 0.39871 0.79705 0.0
C424 C 0.31884 0.39749 0.81848 0.0
C425 C 0.32629 0.41678 0.76381 0.0
C426 C 0.30912 0.41066 0.75356 0.0
C427 C 0.34295 0.42364 0.75203 0.0
C428 C 0.36154 0.4295 0.76181 0.0
C429 C 0.36406 0.4174 0.77514 0.0
C430 C 0.38155 0.42298 0.78407 0.0
C431 C 0.39675 0.44057 0.77965 0.0
C432 C 0.3945 0.45262 0.76627 0.0
C433 C 0.37703 0.44713 0.75735 0.0
H434 H 0.41027 0.44484 0.78653 0.0
H435 H 0.24133 0.38851 0.69516 0.0
H436 H 0.94012 0.33606 0.15785 0.0
H437 H 0.93402 0.3317 0.19541 0.0
H438 H 0.8791 0.32449 0.1857 0.0
H439 H 0.8851 0.32866 0.14808 0.0
H440 H 0.89972 0.35063 0.21691 0.0
H441 H 0.88146 0.28626 0.2002 0.0
H442 H 0.88503 0.26098 0.18422 0.0
H443 H 0.93681 0.28014 0.21696 0.0
H444 H 0.93358 0.30551 0.23309 0.0
H445 H 0.88257 0.32616 0.32569 0.0
H446 H 0.88005 0.32675 0.28784 0.0
H447 H 0.93492 0.33303 0.28156 0.0
H448 H 0.93759 0.33246 0.31959 0.0
H449 H 0.90801 0.3047 0.25844 0.0
H450 H 0.92803 0.36907 0.27475 0.0
H451 H 0.92621 0.39501 0.29153 0.0
H452 H 0.8742 0.37832 0.26046 0.0
H453 H 0.87547 0.35203 0.24374 0.0
C454 C 0.92668 0.33325 0.16376 0.0
C455 C 0.91303 0.33252 0.15027 0.0
C456 C 0.92317 0.33071 0.1851 0.0
C457 C 0.90606 0.32763 0.19318 0.0
C458 C 0.89231 0.32672 0.17967 0.0
C459 C 0.89571 0.32895 0.15827 0.0
C460 C 0.90321 0.3264 0.21591 0.0
C461 C 0.90112 0.34039 0.22612 0.0
C462 C 0.90535 0.31316 0.22765 0.0
C463 C 0.9073 0.29787 0.21778 0.0
C464 C 0.89365 0.28514 0.2039 0.0
C465 C 0.89559 0.27076 0.19486 0.0
C466 C 0.91115 0.26897 0.19955 0.0
C467 C 0.92476 0.28152 0.21335 0.0
C468 C 0.92284 0.29586 0.2225 0.0
C469 C 0.894 0.32739 0.31622 0.0
C470 C 0.91021 0.32903 0.32536 0.0
C471 C 0.89264 0.32807 0.2947 0.0
C472 C 0.9074 0.33023 0.28215 0.0
C473 C 0.92349 0.33155 0.29121 0.0
C474 C 0.92494 0.33105 0.31278 0.0
C475 C 0.90546 0.3294 0.25944 0.0
C476 C 0.90635 0.31483 0.2493 0.0
C477 C 0.90249 0.34231 0.24795 0.0
C478 C 0.90172 0.35828 0.25812 0.0
C479 C 0.91606 0.37073 0.27164 0.0
C480 C 0.91516 0.38557 0.28113 0.0
C481 C 0.90008 0.38828 0.27713 0.0
C482 C 0.88587 0.37619 0.26359 0.0
C483 C 0.88669 0.3613 0.25409 0.0
H484 H 0.89941 0.39976 0.28446 0.0
H485 H 0.91264 0.25786 0.19251 0.0
H486 H 0.54939 0.88452 0.65517 0.0
H487 H 0.54678 0.88264 0.69299 0.0
H488 H 0.59572 0.93732 0.69832 0.0
H489 H 0.5984 0.9394 0.66013 0.0
H490 H 0.59717 0.91061 0.72193 0.0
H491 H 0.55303 0.93079 0.70629 0.0
H492 H 0.5254 0.92921 0.68962 0.0
H493 H 0.48985 0.87729 0.72041 0.0
H494 H 0.51729 0.87831 0.73702 0.0
H495 H 0.59798 0.94218 0.82295 0.0
H496 H 0.59656 0.93576 0.78551 0.0
H497 H 0.54821 0.88133 0.79498 0.0
H498 H 0.54971 0.88769 0.83258 0.0
H499 H 0.54301 0.90202 0.76389 0.0
H500 H 0.58871 0.88341 0.78009 0.0
H501 H 0.61737 0.88675 0.79623 0.0
H502 H 0.65039 0.93843 0.76378 0.0
H503 H 0.62199 0.93545 0.74751 0.0
C504 C 0.55979 0.89607 0.66437 0.0
C505 C 0.57433 0.912 0.65484 0.0
C506 C 0.55804 0.89507 0.68594 0.0
C507 C 0.57089 0.90991 0.69829 0.0
C508 C 0.58559 0.9258 0.68887 0.0
C509 C 0.58722 0.92691 0.6672 0.0
C510 C 0.56998 0.90818 0.72112 0.0
C511 C 0.5854 0.9089 0.73116 0.0
C512 C 0.55412 0.90511 0.73277 0.0
C513 C 0.53741 0.90451 0.72277 0.0
C514 C 0.53938 0.91889 0.70936 0.0
C515 C 0.52371 0.91813 0.69994 0.0
C516 C 0.50588 0.90313 0.70389 0.0
C517 C 0.50368 0.88889 0.71733 0.0
C518 C 0.51931 0.88957 0.72677 0.0
C519 C 0.58731 0.92873 0.81704 0.0
C520 C 0.574 0.91542 0.83046 0.0
C521 C 0.58651 0.92503 0.79574 0.0
C522 C 0.5723 0.90804 0.78755 0.0
C523 C 0.55929 0.89447 0.80105 0.0
C524 C 0.56027 0.89807 0.82246 0.0
C525 C 0.57063 0.9053 0.76471 0.0
C526 C 0.55463 0.90346 0.75459 0.0
C527 C 0.586 0.90753 0.75281 0.0
C528 C 0.60315 0.90921 0.76259 0.0
C529 C 0.60207 0.89552 0.77645 0.0
C530 C 0.61829 0.89734 0.7856 0.0
C531 C 0.63569 0.9128 0.78104 0.0
C532 C 0.63692 0.92644 0.76727 0.0
C533 C 0.62077 0.92466 0.75803 0.0
H534 H 0.6482 0.9142 0.78817 0.0
H535 H 0.49379 0.90257 0.6966 0.0
H536 H 0.66627 0.55906 0.32927 0.0
H537 H 0.66919 0.55661 0.29154 0.0
H538 H 0.65046 0.59627 0.28153 0.0
H539 H 0.64704 0.59839 0.31925 0.0
H540 H 0.62991 0.56378 0.25978 0.0
H541 H 0.69493 0.60712 0.27488 0.0
H542 H 0.72553 0.61769 0.29142 0.0
H543 H 0.72906 0.57288 0.26188 0.0
H544 H 0.69822 0.56171 0.2455 0.0
H545 H 0.64664 0.5983 0.1601 0.0
H546 H 0.64917 0.59468 0.19759 0.0
H547 H 0.66673 0.55434 0.18564 0.0
H548 H 0.66466 0.55825 0.14799 0.0
H549 H 0.68625 0.57864 0.21819 0.0
H550 H 0.62143 0.53718 0.20071 0.0
H551 H 0.59073 0.52764 0.18471 0.0
H552 H 0.58773 0.57106 0.21834 0.0
H553 H 0.61834 0.58085 0.23455 0.0
C554 C 0.66322 0.56761 0.31903 0.0
C555 C 0.65635 0.57889 0.32711 0.0
C556 C 0.66484 0.56613 0.29749 0.0
C557 C 0.6599 0.57615 0.28377 0.0
C558 C 0.65413 0.58826 0.2919 0.0
C559 C 0.65226 0.58955 0.3134 0.0
C560 C 0.65937 0.57317 0.26092 0.0
C561 C 0.64224 0.5671 0.25065 0.0
C562 C 0.67535 0.57665 0.24925 0.0
C563 C 0.69398 0.58334 0.25921 0.0
C564 C 0.70205 0.59931 0.27212 0.0
C565 C 0.71949 0.60546 0.28144 0.0
C566 C 0.7292 0.59591 0.27779 0.0
C567 C 0.72149 0.58022 0.26476 0.0
C568 C 0.70401 0.57396 0.25547 0.0
C569 C 0.65136 0.58892 0.16547 0.0
C570 C 0.65527 0.57844 0.15122 0.0
C571 C 0.6526 0.5867 0.18684 0.0
C572 C 0.65749 0.57376 0.19434 0.0
C573 C 0.66266 0.56419 0.18014 0.0
C574 C 0.66162 0.56657 0.15868 0.0
C575 C 0.65707 0.57047 0.21706 0.0
C576 C 0.67386 0.57497 0.22736 0.0
C577 C 0.64079 0.56566 0.22886 0.0
C578 C 0.62231 0.5598 0.21886 0.0
C579 C 0.61428 0.54476 0.20464 0.0
C580 C 0.59684 0.53926 0.19557 0.0
C581 C 0.58729 0.54874 0.2005 0.0
C582 C 0.59512 0.5637 0.21455 0.0
C583 C 0.61248 0.56917 0.22376 0.0
H584 H 0.57384 0.54449 0.19345 0.0
H585 H 0.7427 0.60071 0.28498 0.0
H586 H 0.09948 0.65993 0.65292 0.0
H587 H 0.10419 0.66222 0.69075 0.0
H588 H 0.04981 0.65667 0.69912 0.0
H589 H 0.04497 0.6542 0.66123 0.0
H590 H 0.07679 0.68521 0.72157 0.0
H591 H 0.05707 0.62086 0.70583 0.0
H592 H 0.05873 0.59467 0.68953 0.0
H593 H 0.11095 0.61174 0.7203 0.0
H594 H 0.10986 0.63831 0.7365 0.0
H595 H 0.04433 0.65276 0.82251 0.0
H596 H 0.05075 0.65828 0.78512 0.0
H597 H 0.10551 0.66504 0.79457 0.0
H598 H 0.09917 0.65973 0.83209 0.0
H599 H 0.08531 0.63949 0.7632 0.0
H600 H 0.10275 0.70357 0.78017 0.0
H601 H 0.09853 0.72835 0.79643 0.0
H602 H 0.04674 0.70856 0.76352 0.0
H603 H 0.05063 0.6837 0.74706 0.0
C604 C 0.08866 0.65948 0.66287 0.0
C605 C 0.07193 0.65711 0.65435 0.0
C606 C 0.09129 0.66056 0.68441 0.0
C607 C 0.07728 0.65944 0.69763 0.0
C608 C 0.06073 0.65748 0.68907 0.0
C609 C 0.05798 0.65612 0.66755 0.0
C610 C 0.07985 0.66081 0.72046 0.0
C611 C 0.07862 0.6752 0.7307 0.0
C612 C 0.0828 0.64795 0.73212 0.0
C613 C 0.08355 0.63192 0.72215 0.0
C614 C 0.06908 0.61926 0.70892 0.0
C615 C 0.06988 0.60427 0.69973 0.0
C616 C 0.08498 0.60159 0.70379 0.0
C617 C 0.09929 0.61386 0.7171 0.0
C618 C 0.09859 0.62891 0.72629 0.0
C619 C 0.05784 0.65579 0.8166 0.0
C620 C 0.07129 0.65591 0.83 0.0
C621 C 0.06155 0.65899 0.79532 0.0
C622 C 0.07866 0.66216 0.78712 0.0
C623 C 0.09229 0.66272 0.80062 0.0
C624 C 0.0887 0.65983 0.82199 0.0
C625 C 0.08153 0.66352 0.76428 0.0
C626 C 0.08392 0.64974 0.75401 0.0
C627 C 0.0793 0.67669 0.75246 0.0
C628 C 0.07698 0.69172 0.7624 0.0
C629 C 0.09043 0.70446 0.77646 0.0
C630 C 0.08811 0.71856 0.78567 0.0
C631 C 0.07237 0.72003 0.78101 0.0
C632 C 0.05894 0.70744 0.76708 0.0
C633 C 0.06124 0.69339 0.75775 0.0
H634 H 0.07059 0.73092 0.78819 0.0
H635 H 0.08556 0.58998 0.69669 0.0
H636 H 0.94159 0.59408 0.16051 0.0
H637 H 0.93649 0.59058 0.1982 0.0
H638 H 0.87696 0.55779 0.1881 0.0
H639 H 0.88189 0.56171 0.15046 0.0
H640 H 0.88641 0.5828 0.21936 0.0
H641 H 0.89982 0.53414 0.20119 0.0
H642 H 0.91682 0.51991 0.1848 0.0
H643 H 0.96653 0.55784 0.21834 0.0
H644 H 0.94989 0.5723 0.23493 0.0
H645 H 0.8815 0.56402 0.32778 0.0
H646 H 0.87809 0.56018 0.29036 0.0
H647 H 0.93795 0.59238 0.28315 0.0
H648 H 0.9417 0.59568 0.32122 0.0
H649 H 0.92169 0.55973 0.26041 0.0
H650 H 0.9101 0.61045 0.2756 0.0
H651 H 0.89434 0.62598 0.29169 0.0
H652 H 0.84279 0.58665 0.26219 0.0
H653 H 0.8581 0.5705 0.24634 0.0
C654 C 0.92743 0.58646 0.16641 0.0
C655 C 0.91215 0.57789 0.15279 0.0
C656 C 0.92455 0.58421 0.18779 0.0
C657 C 0.90643 0.57319 0.19564 0.0
C658 C 0.89105 0.56593 0.18214 0.0
C659 C 0.8939 0.5684 0.16075 0.0
C660 C 0.90373 0.57013 0.21813 0.0
C661 C 0.8937 0.57733 0.22843 0.0
C662 C 0.91344 0.56303 0.2296 0.0
C663 C 0.92355 0.55437 0.21933 0.0
C664 C 0.9144 0.53952 0.20501 0.0
C665 C 0.92397 0.53137 0.19572 0.0
C666 C 0.94274 0.53796 0.20052 0.0
C667 C 0.95197 0.5527 0.21465 0.0
C668 C 0.94245 0.56083 0.22407 0.0
C669 C 0.89404 0.57061 0.31835 0.0
C670 C 0.91193 0.58032 0.32743 0.0
C671 C 0.89198 0.56827 0.29695 0.0
C672 C 0.90773 0.57608 0.28417 0.0
C673 C 0.92566 0.58624 0.29299 0.0
C674 C 0.92778 0.58832 0.3146 0.0
C675 C 0.90542 0.57356 0.26153 0.0
C676 C 0.91412 0.56487 0.25132 0.0
C677 C 0.8946 0.57944 0.25011 0.0
C678 C 0.88524 0.589 0.26003 0.0
C679 C 0.89533 0.60488 0.27278 0.0
C680 C 0.88648 0.61384 0.28183 0.0
C681 C 0.86755 0.60726 0.27804 0.0
C682 C 0.85744 0.59169 0.26519 0.0
C683 C 0.8662 0.5826 0.2562 0.0
H684 H 0.86075 0.61426 0.28499 0.0
H685 H 0.95012 0.53166 0.19331 0.0
H686 H 0.3538 0.94026 0.82277 0.0
H687 H 0.35243 0.93624 0.78493 0.0
H688 H 0.30082 0.88384 0.79063 0.0
H689 H 0.30238 0.88753 0.8286 0.0
H690 H 0.32461 0.88227 0.76134 0.0
H691 H 0.29899 0.92211 0.77815 0.0
H692 H 0.29922 0.94898 0.79541 0.0
H693 H 0.34956 0.98665 0.763 0.0
H694 H 0.34976 0.96005 0.74571 0.0
H695 H 0.30294 0.88762 0.65301 0.0
H696 H 0.30314 0.88327 0.69058 0.0
H697 H 0.35411 0.93633 0.6959 0.0
H698 H 0.35404 0.9408 0.65815 0.0
H699 H 0.32629 0.9337 0.71991 0.0
H700 H 0.35301 0.8945 0.70378 0.0
H701 H 0.35494 0.86811 0.68844 0.0
H702 H 0.30428 0.82931 0.71952 0.0
H703 H 0.3019 0.85545 0.73492 0.0
C704 C 0.34199 0.92809 0.81592 0.0
C705 C 0.32791 0.91443 0.82841 0.0
C706 C 0.34134 0.92568 0.7944 0.0
C707 C 0.32636 0.90987 0.78512 0.0
C708 C 0.31242 0.89613 0.79759 0.0
C709 C 0.31319 0.89841 0.81915 0.0
C710 C 0.32481 0.90847 0.76229 0.0
C711 C 0.32473 0.89331 0.75211 0.0
C712 C 0.32493 0.92297 0.7506 0.0
C713 C 0.3244 0.93903 0.76061 0.0
C714 C 0.31012 0.93611 0.77472 0.0
C715 C 0.31019 0.95131 0.78452 0.0
C716 C 0.3244 0.96951 0.78031 0.0
C717 C 0.33854 0.97255 0.76623 0.0
C718 C 0.33854 0.95742 0.75638 0.0
C719 C 0.3141 0.89847 0.66223 0.0
C720 C 0.32819 0.9148 0.65283 0.0
C721 C 0.31439 0.89574 0.68358 0.0
C722 C 0.32873 0.90934 0.69587 0.0
C723 C 0.34296 0.92563 0.68652 0.0
C724 C 0.34269 0.92838 0.66511 0.0
C725 C 0.32731 0.90812 0.71872 0.0
C726 C 0.32621 0.92257 0.72896 0.0
C727 C 0.32608 0.89292 0.73026 0.0
C728 C 0.32713 0.87707 0.72031 0.0
C729 C 0.34211 0.88037 0.70713 0.0
C730 C 0.34334 0.86542 0.69849 0.0
C731 C 0.32971 0.84704 0.70293 0.0
C732 C 0.31482 0.84356 0.71605 0.0
C733 C 0.31354 0.85845 0.72476 0.0
H734 H 0.33071 0.83552 0.69627 0.0
H735 H 0.32445 0.98124 0.78794 0.0
H736 H 0.42365 0.31358 0.32706 0.0
H737 H 0.426 0.3118 0.2891 0.0
H738 H 0.40094 0.34643 0.28133 0.0
H739 H 0.398 0.3478 0.31891 0.0
H740 H 0.38453 0.31548 0.25871 0.0
H741 H 0.44791 0.36423 0.27541 0.0
H742 H 0.47907 0.37775 0.29171 0.0
H743 H 0.4884 0.33706 0.26062 0.0
H744 H 0.45724 0.32319 0.2442 0.0
H745 H 0.3985 0.34843 0.1561 0.0
H746 H 0.40107 0.34765 0.19414 0.0
H747 H 0.42334 0.31046 0.18807 0.0
H748 H 0.42082 0.31104 0.15035 0.0
H749 H 0.44271 0.33886 0.21744 0.0
H750 H 0.3782 0.29151 0.20034 0.0
H751 H 0.34716 0.28014 0.18432 0.0
H752 H 0.34117 0.32207 0.21748 0.0
H753 H 0.37214 0.3337 0.23366 0.0
C754 C 0.41832 0.32049 0.31718 0.0
C755 C 0.41074 0.33092 0.32578 0.0
C756 C 0.42004 0.31977 0.29563 0.0
C757 C 0.41407 0.32937 0.28267 0.0
C758 C 0.40585 0.33916 0.29125 0.0
C759 C 0.40402 0.33978 0.31265 0.0
C760 C 0.4145 0.32794 0.25997 0.0
C761 C 0.39729 0.32072 0.24968 0.0
C762 C 0.43124 0.33426 0.24851 0.0
C763 C 0.45 0.34245 0.25874 0.0
C764 C 0.45648 0.358 0.2722 0.0
C765 C 0.47421 0.36579 0.28141 0.0
C766 C 0.48569 0.35823 0.27726 0.0
C767 C 0.47949 0.34289 0.26385 0.0
C768 C 0.46179 0.33508 0.25456 0.0
C769 C 0.40363 0.33986 0.16291 0.0
C770 C 0.40921 0.32961 0.15032 0.0
C771 C 0.4053 0.3396 0.18453 0.0
C772 C 0.41238 0.32896 0.19369 0.0
C773 C 0.41794 0.31878 0.18117 0.0
C774 C 0.41623 0.31897 0.15966 0.0
C775 C 0.41282 0.32747 0.21643 0.0
C776 C 0.43006 0.33362 0.22661 0.0
C777 C 0.3962 0.32056 0.22805 0.0
C778 C 0.37755 0.31353 0.21815 0.0
C779 C 0.3703 0.29836 0.20414 0.0
C780 C 0.35269 0.29184 0.19506 0.0
C781 C 0.34221 0.30039 0.19986 0.0
C782 C 0.34929 0.31545 0.21378 0.0
C783 C 0.36683 0.32197 0.22295 0.0
H784 H 0.3286 0.29533 0.19282 0.0
H785 H 0.49938 0.36428 0.28439 0.0
H786 H 0.07304 0.44143 0.65835 0.0
H787 H 0.08123 0.44353 0.69531 0.0
H788 H 0.07916 0.39034 0.69089 0.0
H789 H 0.07101 0.38837 0.65361 0.0
H790 H 0.05566 0.39073 0.71983 0.0
H791 H 0.12124 0.43145 0.70292 0.0
H792 H 0.14832 0.45865 0.68697 0.0
H793 H 0.13481 0.49571 0.71977 0.0
H794 H 0.10766 0.46878 0.73594 0.0
H795 H 0.07076 0.38684 0.82669 0.0
H796 H 0.07704 0.38915 0.78896 0.0
H797 H 0.07918 0.44246 0.78771 0.0
H798 H 0.07297 0.44009 0.82535 0.0
H799 H 0.10518 0.44222 0.76177 0.0
H800 H 0.04003 0.40426 0.77683 0.0
H801 H 0.01205 0.37868 0.79341 0.0
H802 H 0.02227 0.33834 0.76289 0.0
H803 H 0.05057 0.36368 0.74644 0.0
C804 C 0.07443 0.43026 0.66537 0.0
C805 C 0.07092 0.41449 0.65367 0.0
C806 C 0.07945 0.43163 0.6863 0.0
C807 C 0.08089 0.41714 0.69581 0.0
C808 C 0.07817 0.40169 0.68377 0.0
C809 C 0.07334 0.40044 0.66267 0.0
C810 C 0.08192 0.41665 0.71879 0.0
C811 C 0.06677 0.40172 0.72901 0.0
C812 C 0.09595 0.43165 0.7306 0.0
C813 C 0.11227 0.44798 0.72062 0.0
C814 C 0.12395 0.44538 0.70665 0.0
C815 C 0.13937 0.46078 0.69762 0.0
C816 C 0.14328 0.4789 0.70234 0.0
C817 C 0.1318 0.48167 0.71614 0.0
C818 C 0.11642 0.46633 0.72531 0.0
C819 C 0.07247 0.39891 0.81817 0.0
C820 C 0.07073 0.41295 0.82829 0.0
C821 C 0.07623 0.40034 0.79683 0.0
C822 C 0.07827 0.41585 0.78558 0.0
C823 C 0.07752 0.43036 0.7961 0.0
C824 C 0.07368 0.42886 0.81738 0.0
C825 C 0.07923 0.41601 0.7626 0.0
C826 C 0.09439 0.43102 0.75248 0.0
C827 C 0.06497 0.40135 0.75075 0.0
C828 C 0.04767 0.38598 0.76052 0.0
C829 C 0.03646 0.38996 0.77377 0.0
C830 C 0.0205 0.37548 0.78315 0.0
C831 C 0.01541 0.35689 0.77926 0.0
C832 C 0.02625 0.35275 0.76593 0.0
C833 C 0.04226 0.36718 0.75657 0.0
H834 H 0.00306 0.34571 0.7865 0.0
H835 H 0.1552 0.49077 0.69533 0.0
H836 H 0.64334 0.04597 0.32136 0.0
H837 H 0.64399 0.04951 0.28338 0.0
H838 H 0.67214 0.10947 0.29035 0.0
H839 H 0.67156 0.10621 0.32795 0.0
H840 H 0.64384 0.0962 0.26095 0.0
H841 H 0.69842 0.09069 0.2777 0.0
H842 H 0.715 0.07603 0.29403 0.0
H843 H 0.67963 0.02485 0.2613 0.0
H844 H 0.66285 0.03916 0.24481 0.0
H845 H 0.67055 0.10662 0.15235 0.0
H846 H 0.67035 0.10971 0.19011 0.0
H847 H 0.64353 0.04979 0.19629 0.0
H848 H 0.64373 0.04647 0.15843 0.0
H849 H 0.67489 0.06876 0.21931 0.0
H850 H 0.61949 0.07272 0.20312 0.0
H851 H 0.60151 0.08585 0.1869 0.0
H852 H 0.63588 0.13813 0.21806 0.0
H853 H 0.65425 0.12541 0.23434 0.0
C854 C 0.64989 0.05987 0.31474 0.0
C855 C 0.65781 0.07579 0.32751 0.0
C856 C 0.65012 0.06188 0.29319 0.0
C857 C 0.65832 0.07978 0.28435 0.0
C858 C 0.66588 0.09561 0.29705 0.0
C859 C 0.66574 0.09365 0.31849 0.0
C860 C 0.65979 0.08197 0.26173 0.0
C861 C 0.65078 0.09045 0.25169 0.0
C862 C 0.66904 0.07453 0.25008 0.0
C863 C 0.67933 0.06601 0.26002 0.0
C864 C 0.69414 0.07629 0.27403 0.0
C865 C 0.7036 0.06805 0.28329 0.0
C866 C 0.69837 0.04952 0.2787 0.0
C867 C 0.68371 0.03921 0.26481 0.0
C868 C 0.67426 0.0474 0.25545 0.0
C869 C 0.66477 0.09408 0.16174 0.0
C870 C 0.65722 0.07627 0.15255 0.0
C871 C 0.66439 0.09591 0.18322 0.0
C872 C 0.65662 0.07997 0.1957 0.0
C873 C 0.64938 0.0622 0.18665 0.0
C874 C 0.64971 0.06033 0.16515 0.0
C875 C 0.65785 0.08178 0.21835 0.0
C876 C 0.66795 0.07459 0.22845 0.0
C877 C 0.64945 0.0903 0.22987 0.0
C878 C 0.6385 0.09813 0.21978 0.0
C879 C 0.62341 0.08709 0.20635 0.0
C880 C 0.61307 0.09445 0.19719 0.0
C881 C 0.61759 0.11283 0.20138 0.0
C882 C 0.63241 0.12389 0.21479 0.0
C883 C 0.64278 0.1166 0.22401 0.0
H884 H 0.60957 0.11848 0.19429 0.0
H885 H 0.70568 0.04316 0.2859 0.0
H886 H 0.55332 0.62916 0.66002 0.0
H887 H 0.5492 0.63272 0.69723 0.0
H888 H 0.59039 0.69138 0.69351 0.0
H889 H 0.59428 0.68778 0.65602 0.0
H890 H 0.59826 0.67199 0.72191 0.0
H891 H 0.54433 0.67797 0.70407 0.0
H892 H 0.51401 0.66853 0.68724 0.0
H893 H 0.48906 0.61637 0.71999 0.0
H894 H 0.51921 0.62546 0.73704 0.0
H895 H 0.59494 0.6852 0.82952 0.0
H896 H 0.59159 0.68913 0.79204 0.0
H897 H 0.54907 0.63096 0.7874 0.0
H898 H 0.55259 0.62708 0.82475 0.0
H899 H 0.54077 0.65299 0.76315 0.0
H900 H 0.5925 0.64379 0.77813 0.0
H901 H 0.62222 0.64979 0.79385 0.0
H902 H 0.65089 0.7032 0.76377 0.0
H903 H 0.62125 0.69779 0.74832 0.0
C904 C 0.56161 0.64273 0.66734 0.0
C905 C 0.57453 0.65814 0.65576 0.0
C906 C 0.5589 0.64485 0.68833 0.0
C907 C 0.56925 0.66237 0.6979 0.0
C908 C 0.58211 0.67783 0.68619 0.0
C909 C 0.5846 0.67575 0.66506 0.0
C910 C 0.56907 0.66371 0.72069 0.0
C911 C 0.58584 0.66841 0.731 0.0
C912 C 0.55245 0.65794 0.73218 0.0
C913 C 0.53417 0.65242 0.72184 0.0
C914 C 0.53243 0.66445 0.70763 0.0
C915 C 0.51523 0.65917 0.69809 0.0
C916 C 0.49962 0.64186 0.70253 0.0
C917 C 0.50115 0.6298 0.71658 0.0
C918 C 0.51829 0.63505 0.72626 0.0
C919 C 0.58515 0.6733 0.82027 0.0
C920 C 0.57467 0.65568 0.82934 0.0
C921 C 0.58302 0.67557 0.79912 0.0
C922 C 0.57027 0.66024 0.78706 0.0
C923 C 0.55907 0.64286 0.79649 0.0
C924 C 0.56138 0.64056 0.81756 0.0
C925 C 0.57013 0.66175 0.76425 0.0
C926 C 0.55329 0.65718 0.75402 0.0
C927 C 0.58658 0.66713 0.75262 0.0
C928 C 0.60447 0.67051 0.76232 0.0
C929 C 0.60505 0.65696 0.77511 0.0
C930 C 0.62192 0.66024 0.78395 0.0
C931 C 0.63842 0.6769 0.77989 0.0
C932 C 0.63808 0.69032 0.76698 0.0
C933 C 0.62123 0.68717 0.75822 0.0
H934 H 0.65147 0.67939 0.78667 0.0
H935 H 0.48635 0.6378 0.69511 0.0
H936 H 0.39486 0.12828 0.06898 0.0
H937 H 0.39398 0.15748 0.07098 0.0
H938 H 0.45409 0.18897 0.06575 0.0
H939 H 0.45487 0.15967 0.06366 0.0
H940 H 0.4409 0.2023 0.0969 0.0
H941 H 0.42727 0.18359 0.02448 0.0
H942 H 0.41042 0.16292 -0.00524 0.0
H943 H 0.35991 0.16142 0.01382 0.0
H944 H 0.37636 0.18186 0.04386 0.0
H945 H 0.45524 0.29076 0.0644 0.0
H946 H 0.45402 0.26064 0.06873 0.0
H947 H 0.39389 0.23296 0.07293 0.0
H948 H 0.3952 0.26308 0.0686 0.0
H949 H 0.40545 0.21686 0.04505 0.0
H950 H 0.4194 0.23673 0.11688 0.0
H951 H 0.43629 0.25734 0.14667 0.0
H952 H 0.48638 0.25761 0.12847 0.0
H953 H 0.46983 0.237 0.09857 0.0
C954 C 0.40777 0.14151 0.06779 0.0
C955 C 0.42489 0.14205 0.06557 0.0
C956 C 0.4073 0.15808 0.0691 0.0
C957 C 0.42397 0.17531 0.06834 0.0
C958 C 0.4411 0.17577 0.06625 0.0
C959 C 0.44154 0.15917 0.06473 0.0
C960 C 0.42349 0.19285 0.06935 0.0
C961 C 0.43332 0.20566 0.08551 0.0
C962 C 0.4131 0.19675 0.0547 0.0
C963 C 0.40306 0.18413 0.03669 0.0
C964 C 0.41252 0.17869 0.02252 0.0
C965 C 0.40304 0.16705 0.00555 0.0
C966 C 0.38409 0.16081 0.00244 0.0
C967 C 0.37458 0.16623 0.01627 0.0
C968 C 0.38399 0.17785 0.03328 0.0
C969 C 0.44182 0.27811 0.06585 0.0
C970 C 0.42527 0.27883 0.06555 0.0
C971 C 0.44114 0.26108 0.06878 0.0
C972 C 0.42388 0.24469 0.07148 0.0
C973 C 0.40732 0.2455 0.07102 0.0
C974 C 0.40804 0.26254 0.06824 0.0
C975 C 0.42297 0.22648 0.07248 0.0
C976 C 0.41288 0.21348 0.05665 0.0
C977 C 0.43315 0.22251 0.08741 0.0
C978 C 0.44334 0.23537 0.10525 0.0
C979 C 0.43405 0.2413 0.11908 0.0
C980 C 0.44357 0.25293 0.13607 0.0
C981 C 0.46241 0.25882 0.13943 0.0
C982 C 0.47178 0.25305 0.12585 0.0
C983 C 0.46232 0.24133 0.10891 0.0
H984 H 0.46973 0.26782 0.15256 0.0
H985 H 0.3768 0.15184 -0.01071 0.0
H986 H 0.13516 0.41417 0.54279 0.0
H987 H 0.16342 0.41146 0.5434 0.0
H988 H 0.17811 0.43872 0.60367 0.0
H989 H 0.15016 0.44157 0.60307 0.0
H990 H 0.20569 0.45468 0.57545 0.0
H991 H 0.16291 0.39334 0.6012 0.0
H992 H 0.13468 0.36214 0.60131 0.0
H993 H 0.15173 0.34853 0.5437 0.0
H994 H 0.17999 0.37971 0.54311 0.0
H995 H 0.2807 0.44209 0.6015 0.0
H996 H 0.25054 0.44056 0.60118 0.0
H997 H 0.23831 0.41356 0.54077 0.0
H998 H 0.26859 0.41472 0.54118 0.0
H999 H 0.20911 0.3966 0.56902 0.0
H1000 H 0.2524 0.45911 0.54429 0.0
H1001 H 0.28037 0.49047 0.54558 0.0
H1002 H 0.26181 0.50186 0.6035 0.0
H1003 H 0.23382 0.47048 0.60273 0.0
C1004 C 0.14457 0.41966 0.55603 0.0
C1005 C 0.14078 0.42814 0.57285 0.0
C1006 C 0.16041 0.41785 0.55652 0.0
C1007 C 0.17249 0.42467 0.57374 0.0
C1008 C 0.16872 0.43324 0.59041 0.0
C1009 C 0.1529 0.43493 0.59 0.0
C1010 C 0.19006 0.42458 0.57356 0.0
C1011 C 0.20651 0.44199 0.57431 0.0
C1012 C 0.19072 0.40789 0.5717 0.0
C1013 C 0.17356 0.38904 0.57199 0.0
C1014 C 0.16058 0.38379 0.58843 0.0
C1015 C 0.14458 0.36606 0.58862 0.0
C1016 C 0.14138 0.35337 0.57249 0.0
C1017 C 0.15421 0.35837 0.55618 0.0
C1018 C 0.17024 0.37607 0.55594 0.0
C1019 C 0.27159 0.4359 0.58812 0.0
C1020 C 0.2768 0.42862 0.57129 0.0
C1021 C 0.25448 0.43507 0.58795 0.0
C1022 C 0.2425 0.42716 0.57086 0.0
C1023 C 0.2476 0.41981 0.55399 0.0
C1024 C 0.26483 0.42066 0.55413 0.0
C1025 C 0.22467 0.42672 0.57074 0.0
C1026 C 0.20822 0.40925 0.57007 0.0
C1027 C 0.22394 0.44336 0.57292 0.0
C1028 C 0.241 0.46229 0.57351 0.0
C1029 C 0.25434 0.46821 0.55741 0.0
C1030 C 0.2702 0.48603 0.55803 0.0
C1031 C 0.27289 0.49815 0.57462 0.0
C1032 C 0.25972 0.49246 0.59065 0.0
C1033 C 0.24384 0.47466 0.59011 0.0
H1034 H 0.28514 0.51193 0.57505 0.0
H1035 H 0.129 0.33968 0.57265 0.0
H1036 H 0.82804 0.28775 0.05045 0.0
H1037 H 0.79876 0.25772 0.05218 0.0
H1038 H 0.82648 0.23456 0.08828 0.0
H1039 H 0.85559 0.26445 0.08665 0.0
H1040 H 0.80575 0.21209 0.05674 0.0
H1041 H 0.79796 0.2455 0.1136 0.0
H1042 H 0.79718 0.27162 0.13145 0.0
H1043 H 0.75404 0.26619 0.08981 0.0
H1044 H 0.75458 0.24008 0.07164 0.0
H1045 H 0.72124 0.12992 0.08474 0.0
H1046 H 0.75127 0.15896 0.08604 0.0
H1047 H 0.72816 0.18634 0.04934 0.0
H1048 H 0.69801 0.15715 0.0479 0.0
H1049 H 0.74716 0.20638 0.08475 0.0
H1050 H 0.75625 0.17324 0.02742 0.0
H1051 H 0.75801 0.14761 0.00976 0.0
H1052 H 0.80021 0.15325 0.053 0.0
H1053 H 0.79852 0.17874 0.07115 0.0
C1054 C 0.8278 0.27612 0.0585 0.0
C1055 C 0.84372 0.27818 0.06862 0.0
C1056 C 0.81115 0.25917 0.05974 0.0
C1057 C 0.81052 0.24424 0.07082 0.0
C1058 C 0.82673 0.2461 0.07999 0.0
C1059 C 0.84326 0.26305 0.07899 0.0
C1060 C 0.79311 0.22633 0.07197 0.0
C1061 C 0.79296 0.21069 0.06318 0.0
C1062 C 0.7766 0.22488 0.08027 0.0
C1063 C 0.7764 0.24083 0.09111 0.0
C1064 C 0.7884 0.24994 0.10812 0.0
C1065 C 0.78795 0.26473 0.11836 0.0
C1066 C 0.77559 0.27058 0.11175 0.0
C1067 C 0.76361 0.26164 0.09492 0.0
C1068 C 0.76394 0.2468 0.08469 0.0
C1069 C 0.72269 0.14211 0.07676 0.0
C1070 C 0.70753 0.14147 0.06611 0.0
C1071 C 0.73977 0.15861 0.07752 0.0
C1072 C 0.74183 0.17466 0.06773 0.0
C1073 C 0.72673 0.174 0.05693 0.0
C1074 C 0.70967 0.15738 0.05592 0.0
C1075 C 0.7597 0.19224 0.06898 0.0
C1076 C 0.75997 0.20776 0.07845 0.0
C1077 C 0.77642 0.19358 0.06146 0.0
C1078 C 0.77703 0.17778 0.05088 0.0
C1079 C 0.76572 0.16886 0.03338 0.0
C1080 C 0.76676 0.15439 0.02321 0.0
C1081 C 0.77916 0.14875 0.0303 0.0
C1082 C 0.79057 0.15759 0.04756 0.0
C1083 C 0.78957 0.17205 0.05779 0.0
H1084 H 0.77998 0.13758 0.02238 0.0
H1085 H 0.77527 0.28201 0.11967 0.0
H1086 H 0.53563 0.70008 0.58905 0.0
H1087 H 0.53579 0.7298 0.58991 0.0
H1088 H 0.58559 0.75503 0.55201 0.0
H1089 H 0.58527 0.72517 0.55089 0.0
H1090 H 0.58784 0.77666 0.58659 0.0
H1091 H 0.54499 0.7432 0.53023 0.0
H1092 H 0.51748 0.71721 0.5132 0.0
H1093 H 0.48136 0.72308 0.55691 0.0
H1094 H 0.50867 0.74897 0.57441 0.0
H1095 H 0.58584 0.85743 0.55093 0.0
H1096 H 0.58685 0.82837 0.55445 0.0
H1097 H 0.53654 0.80468 0.59145 0.0
H1098 H 0.53554 0.83362 0.58805 0.0
H1099 H 0.53464 0.78234 0.55961 0.0
H1100 H 0.57699 0.81618 0.61564 0.0
H1101 H 0.60428 0.84212 0.63311 0.0
H1102 H 0.64101 0.83612 0.59048 0.0
H1103 H 0.61396 0.81017 0.5727 0.0
C1104 C 0.54645 0.71196 0.58073 0.0
C1105 C 0.56034 0.7105 0.56974 0.0
C1106 C 0.54656 0.72886 0.58126 0.0
C1107 C 0.56068 0.74451 0.57097 0.0
C1108 C 0.57458 0.74304 0.55999 0.0
C1109 C 0.57428 0.72603 0.55916 0.0
C1110 C 0.56083 0.76239 0.57159 0.0
C1111 C 0.57635 0.77805 0.58049 0.0
C1112 C 0.54548 0.76382 0.56416 0.0
C1113 C 0.52897 0.74794 0.55384 0.0
C1114 C 0.53121 0.73883 0.53639 0.0
C1115 C 0.51563 0.72414 0.5266 0.0
C1116 C 0.49768 0.71845 0.534 0.0
C1117 C 0.49528 0.72747 0.55121 0.0
C1118 C 0.51081 0.74217 0.56106 0.0
C1119 C 0.57492 0.84589 0.55957 0.0
C1120 C 0.56053 0.84752 0.56907 0.0
C1121 C 0.57569 0.82951 0.5619 0.0
C1122 C 0.56193 0.8146 0.5735 0.0
C1123 C 0.54737 0.81615 0.58264 0.0
C1124 C 0.54673 0.83256 0.58055 0.0
C1125 C 0.56169 0.79671 0.57443 0.0
C1126 C 0.54612 0.78099 0.56584 0.0
C1127 C 0.57696 0.79528 0.58221 0.0
C1128 C 0.59334 0.81126 0.59265 0.0
C1129 C 0.59086 0.82049 0.60984 0.0
C1130 C 0.60631 0.83516 0.61987 0.0
C1131 C 0.62437 0.8408 0.61289 0.0
C1132 C 0.62702 0.83175 0.59588 0.0
C1133 C 0.61162 0.81701 0.58585 0.0
H1134 H 0.6363 0.85214 0.62066 0.0
H1135 H 0.48565 0.70711 0.52639 0.0
H1136 H 0.72 0.57987 0.09686 0.0
H1137 H 0.75024 0.58156 0.09603 0.0
H1138 H 0.73424 0.54836 0.03959 0.0
H1139 H 0.70363 0.54632 0.04053 0.0
H1140 H 0.74746 0.53488 0.07016 0.0
H1141 H 0.76515 0.59449 0.0383 0.0
H1142 H 0.7678 0.62551 0.03611 0.0
H1143 H 0.80018 0.64246 0.09256 0.0
H1144 H 0.79753 0.61143 0.09528 0.0
H1145 H 0.8346 0.54574 0.04065 0.0
H1146 H 0.80517 0.54618 0.04183 0.0
H1147 H 0.82355 0.5798 0.09789 0.0
H1148 H 0.8529 0.57958 0.09673 0.0
H1149 H 0.80904 0.59312 0.06988 0.0
H1150 H 0.79164 0.53422 0.10219 0.0
H1151 H 0.78791 0.50282 0.10609 0.0
H1152 H 0.75453 0.48447 0.0504 0.0
H1153 H 0.75813 0.51576 0.04608 0.0
C1154 C 0.72295 0.57298 0.08424 0.0
C1155 C 0.7095 0.56266 0.06896 0.0
C1156 C 0.74024 0.5741 0.0837 0.0
C1157 C 0.74432 0.56511 0.06774 0.0
C1158 C 0.73116 0.55535 0.05201 0.0
C1159 C 0.71381 0.55424 0.05252 0.0
C1160 C 0.76192 0.56495 0.06825 0.0
C1161 C 0.76098 0.54756 0.06972 0.0
C1162 C 0.77934 0.58168 0.06871 0.0
C1163 C 0.78102 0.60049 0.06707 0.0
C1164 C 0.77272 0.60475 0.05035 0.0
C1165 C 0.77425 0.62237 0.049 0.0
C1166 C 0.78413 0.63594 0.0642 0.0
C1167 C 0.79253 0.63193 0.08079 0.0
C1168 C 0.79104 0.61433 0.08223 0.0
C1169 C 0.83235 0.5533 0.0531 0.0
C1170 C 0.84581 0.56244 0.06871 0.0
C1171 C 0.81555 0.55338 0.05389 0.0
C1172 C 0.81219 0.5627 0.0702 0.0
C1173 C 0.82589 0.57236 0.08536 0.0
C1174 C 0.84258 0.5722 0.08466 0.0
C1175 C 0.79463 0.56299 0.07101 0.0
C1176 C 0.79554 0.58043 0.07019 0.0
C1177 C 0.77717 0.54629 0.0713 0.0
C1178 C 0.77535 0.52749 0.07367 0.0
C1179 C 0.78367 0.52356 0.09065 0.0
C1180 C 0.7815 0.50574 0.09298 0.0
C1181 C 0.77104 0.49168 0.07847 0.0
C1182 C 0.76266 0.49538 0.06162 0.0
C1183 C 0.76472 0.51315 0.05925 0.0
H1184 H 0.76939 0.47791 0.0803 0.0
H1185 H 0.78531 0.64956 0.06312 0.0
H1186 H 0.25887 0.86007 0.56183 0.0
H1187 H 0.22901 0.83093 0.56639 0.0
H1188 H 0.25894 0.8017 0.57981 0.0
H1189 H 0.28863 0.83073 0.57498 0.0
H1190 H 0.23369 0.7853 0.55002 0.0
H1191 H 0.23512 0.80959 0.61917 0.0
H1192 H 0.23694 0.83195 0.64602 0.0
H1193 H 0.18871 0.83103 0.61981 0.0
H1194 H 0.18656 0.80868 0.59278 0.0
H1195 H 0.15699 0.69856 0.57658 0.0
H1196 H 0.18605 0.72863 0.57815 0.0
H1197 H 0.15551 0.7571 0.56396 0.0
H1198 H 0.12631 0.72684 0.56274 0.0
H1199 H 0.18073 0.77399 0.59588 0.0
H1200 H 0.18006 0.75043 0.52637 0.0
H1201 H 0.17802 0.72765 0.49999 0.0
H1202 H 0.22557 0.72787 0.52722 0.0
H1203 H 0.2278 0.75048 0.55392 0.0
C1204 C 0.25888 0.84724 0.56526 0.0
C1205 C 0.27568 0.84715 0.56738 0.0
C1206 C 0.24197 0.83083 0.5684 0.0
C1207 C 0.24189 0.81434 0.57378 0.0
C1208 C 0.2588 0.81437 0.57581 0.0
C1209 C 0.27564 0.83074 0.57269 0.0
C1210 C 0.22424 0.79655 0.57455 0.0
C1211 C 0.22222 0.78269 0.56032 0.0
C1212 C 0.20921 0.79361 0.58765 0.0
C1213 C 0.21081 0.80754 0.60369 0.0
C1214 C 0.225 0.81428 0.61896 0.0
C1215 C 0.22603 0.8269 0.6343 0.0
C1216 C 0.21298 0.83295 0.63458 0.0
C1217 C 0.19883 0.82635 0.61957 0.0
C1218 C 0.19766 0.81366 0.60427 0.0
C1219 C 0.15667 0.71128 0.57345 0.0
C1220 C 0.13985 0.71072 0.56908 0.0
C1221 C 0.17312 0.72835 0.57447 0.0
C1222 C 0.17283 0.74496 0.57096 0.0
C1223 C 0.15591 0.74436 0.56662 0.0
C1224 C 0.13941 0.72722 0.56562 0.0
C1225 C 0.19037 0.76288 0.57138 0.0
C1226 C 0.19232 0.77669 0.58573 0.0
C1227 C 0.20544 0.7659 0.5584 0.0
C1228 C 0.20399 0.75209 0.54233 0.0
C1229 C 0.18999 0.74551 0.52687 0.0
C1230 C 0.18883 0.73265 0.51181 0.0
C1231 C 0.20163 0.72629 0.51195 0.0
C1232 C 0.21565 0.73279 0.52713 0.0
C1233 C 0.21688 0.74566 0.54222 0.0
H1234 H 0.20072 0.71636 0.50028 0.0
H1235 H 0.21382 0.84272 0.64644 0.0
H1236 H 0.82685 0.53192 0.41471 0.0
H1237 H 0.7979 0.53315 0.41071 0.0
H1238 H 0.83027 0.59316 0.40485 0.0
H1239 H 0.85912 0.59186 0.40874 0.0
H1240 H 0.80299 0.58207 0.43335 0.0
H1241 H 0.80821 0.56714 0.36159 0.0
H1242 H 0.81152 0.54984 0.33196 0.0
H1243 H 0.76193 0.50004 0.351 0.0
H1244 H 0.75829 0.517 0.38074 0.0
H1245 H 0.72423 0.59133 0.40791 0.0
H1246 H 0.75456 0.59273 0.40694 0.0
H1247 H 0.72681 0.53278 0.41401 0.0
H1248 H 0.69648 0.53148 0.41509 0.0
H1249 H 0.75259 0.54588 0.38201 0.0
H1250 H 0.74796 0.56044 0.45422 0.0
H1251 H 0.74408 0.5778 0.48333 0.0
H1252 H 0.79279 0.62807 0.46352 0.0
H1253 H 0.79682 0.61111 0.43404 0.0
C1254 C 0.82761 0.54533 0.41297 0.0
C1255 C 0.84487 0.56185 0.41255 0.0
C1256 C 0.81122 0.546 0.41023 0.0
C1257 C 0.81209 0.56322 0.40713 0.0
C1258 C 0.82942 0.57976 0.40703 0.0
C1259 C 0.84576 0.57905 0.40955 0.0
C1260 C 0.79483 0.56416 0.40616 0.0
C1261 C 0.79208 0.57446 0.42188 0.0
C1262 C 0.78061 0.5538 0.39135 0.0
C1263 C 0.78309 0.54337 0.37365 0.0
C1264 C 0.7981 0.55246 0.35962 0.0
C1265 C 0.79999 0.54272 0.34271 0.0
C1266 C 0.78698 0.52384 0.33963 0.0
C1267 C 0.77202 0.51467 0.3534 0.0
C1268 C 0.77 0.52436 0.37026 0.0
C1269 C 0.72481 0.57859 0.40968 0.0
C1270 C 0.70845 0.56133 0.41187 0.0
C1271 C 0.74197 0.57936 0.409 0.0
C1272 C 0.74276 0.56284 0.41043 0.0
C1273 C 0.72633 0.54561 0.4129 0.0
C1274 C 0.70918 0.54488 0.41381 0.0
C1275 C 0.76077 0.56352 0.40939 0.0
C1276 C 0.76363 0.5536 0.39329 0.0
C1277 C 0.77512 0.57417 0.42388 0.0
C1278 C 0.77259 0.58448 0.44167 0.0
C1279 C 0.75775 0.57524 0.45589 0.0
C1280 C 0.75554 0.58501 0.47252 0.0
C1281 C 0.76815 0.60404 0.47525 0.0
C1282 C 0.78301 0.61333 0.46137 0.0
C1283 C 0.78527 0.60363 0.44469 0.0
H1284 H 0.76644 0.61156 0.48814 0.0
H1285 H 0.78848 0.51634 0.32657 0.0
H1286 H 0.12683 0.72753 0.91128 0.0
H1287 H 0.15594 0.75774 0.90923 0.0
H1288 H 0.18757 0.72896 0.90931 0.0
H1289 H 0.15857 0.699 0.91229 0.0
H1290 H 0.20037 0.7558 0.93658 0.0
H1291 H 0.18158 0.74905 0.86403 0.0
H1292 H 0.16077 0.74464 0.83428 0.0
H1293 H 0.16 0.79447 0.85146 0.0
H1294 H 0.18076 0.79919 0.88138 0.0
H1295 H 0.28949 0.83073 0.91513 0.0
H1296 H 0.25967 0.80151 0.91218 0.0
H1297 H 0.23036 0.83259 0.91234 0.0
H1298 H 0.2604 0.86189 0.91428 0.0
H1299 H 0.21582 0.80509 0.88369 0.0
H1300 H 0.23378 0.81078 0.95676 0.0
H1301 H 0.25398 0.81441 0.98687 0.0
H1302 H 0.2551 0.76501 0.96841 0.0
H1303 H 0.23506 0.76116 0.93807 0.0
C1304 C 0.14012 0.72789 0.91114 0.0
C1305 C 0.14089 0.71137 0.91218 0.0
C1306 C 0.15659 0.74497 0.90959 0.0
C1307 C 0.17377 0.74544 0.90862 0.0
C1308 C 0.17438 0.72879 0.90987 0.0
C1309 C 0.15797 0.7118 0.91181 0.0
C1310 C 0.19133 0.76332 0.90847 0.0
C1311 C 0.20391 0.76647 0.9248 0.0
C1312 C 0.1954 0.7773 0.89333 0.0
C1313 C 0.18271 0.7744 0.87521 0.0
C1314 C 0.17689 0.75902 0.86161 0.0
C1315 C 0.16513 0.75649 0.84464 0.0
C1316 C 0.15903 0.76924 0.841 0.0
C1317 C 0.16473 0.78459 0.85429 0.0
C1318 C 0.17655 0.78723 0.87123 0.0
C1319 C 0.2766 0.83116 0.915 0.0
C1320 C 0.27688 0.8482 0.9156 0.0
C1321 C 0.25966 0.8146 0.91312 0.0
C1322 C 0.24285 0.81494 0.91238 0.0
C1323 C 0.2432 0.83208 0.91297 0.0
C1324 C 0.26021 0.84869 0.91443 0.0
C1325 C 0.22491 0.79733 0.91167 0.0
C1326 C 0.21224 0.79431 0.89531 0.0
C1327 C 0.22064 0.78328 0.92673 0.0
C1328 C 0.23301 0.78579 0.94494 0.0
C1329 C 0.23845 0.80078 0.95899 0.0
C1330 C 0.24985 0.80285 0.97615 0.0
C1331 C 0.25586 0.78998 0.97952 0.0
C1332 C 0.25046 0.77499 0.96577 0.0
C1333 C 0.23906 0.77285 0.9486 0.0
H1334 H 0.26498 0.79236 -0.01186 0.0
H1335 H 0.14993 0.76726 0.8279 0.0
H1336 H 0.44675 0.15453 0.3891 0.0
H1337 H 0.44638 0.18389 0.38804 0.0
H1338 H 0.40104 0.16195 0.43236 0.0
H1339 H 0.40138 0.13242 0.43347 0.0
H1340 H 0.39513 0.17927 0.39843 0.0
H1341 H 0.44414 0.19171 0.44805 0.0
H1342 H 0.47336 0.19401 0.46084 0.0
H1343 H 0.50413 0.23326 0.41246 0.0
H1344 H 0.47506 0.231 0.39914 0.0
H1345 H 0.4013 0.26448 0.43232 0.0
H1346 H 0.40004 0.23423 0.42963 0.0
H1347 H 0.44566 0.25782 0.38567 0.0
H1348 H 0.44685 0.28793 0.38819 0.0
H1349 H 0.45113 0.2395 0.41728 0.0
H1350 H 0.4028 0.22793 0.36784 0.0
H1351 H 0.3738 0.22577 0.35441 0.0
H1352 H 0.3421 0.18572 0.40174 0.0
H1353 H 0.3709 0.18768 0.41555 0.0
C1354 C 0.43683 0.15608 0.39875 0.0
C1355 C 0.42417 0.14142 0.41149 0.0
C1356 C 0.43663 0.17278 0.39812 0.0
C1357 C 0.42374 0.17502 0.4102 0.0
C1358 C 0.4111 0.1604 0.42299 0.0
C1359 C 0.41144 0.14371 0.4238 0.0
C1360 C 0.42359 0.19273 0.40952 0.0
C1361 C 0.40725 0.19246 0.40279 0.0
C1362 C 0.43973 0.20987 0.41458 0.0
C1363 C 0.45729 0.21101 0.42242 0.0
C1364 C 0.45708 0.20067 0.43996 0.0
C1365 C 0.47365 0.20201 0.44735 0.0
C1366 C 0.49059 0.21373 0.43744 0.0
C1367 C 0.491 0.22415 0.42011 0.0
C1368 C 0.47447 0.22285 0.41264 0.0
C1369 C 0.41112 0.26315 0.42226 0.0
C1370 C 0.4242 0.27835 0.4105 0.0
C1371 C 0.4102 0.24589 0.42048 0.0
C1372 C 0.42254 0.24382 0.40717 0.0
C1373 C 0.43589 0.25916 0.3958 0.0
C1374 C 0.43662 0.2763 0.39734 0.0
C1375 C 0.42261 0.22608 0.40645 0.0
C1376 C 0.439 0.22634 0.41283 0.0
C1377 C 0.40654 0.20901 0.40099 0.0
C1378 C 0.38914 0.20809 0.39291 0.0
C1379 C 0.38969 0.21879 0.37554 0.0
C1380 C 0.37325 0.21754 0.36779 0.0
C1381 C 0.35612 0.20565 0.37724 0.0
C1382 C 0.35538 0.19494 0.39443 0.0
C1383 C 0.37176 0.19608 0.4022 0.0
H1384 H 0.34343 0.2047 0.37123 0.0
H1385 H 0.50339 0.21477 0.44321 0.0
H1386 H 0.28301 0.44657 0.93687 0.0
H1387 H 0.25285 0.44544 0.93695 0.0
H1388 H 0.23329 0.40427 0.88747 0.0
H1389 H 0.26362 0.40592 0.8868 0.0
H1390 H 0.22594 0.43129 0.87888 0.0
H1391 H 0.21833 0.39192 0.93779 0.0
H1392 H 0.22661 0.38333 0.97136 0.0
H1393 H 0.22582 0.42993 -0.00307 0.0
H1394 H 0.21734 0.43816 0.9682 0.0
H1395 H 0.13084 0.40635 0.88634 0.0
H1396 H 0.16036 0.40638 0.88585 0.0
H1397 H 0.18129 0.4474 0.93547 0.0
H1398 H 0.15142 0.44695 0.93647 0.0
H1399 H 0.1879 0.4201 0.94274 0.0
H1400 H 0.19475 0.45898 0.88279 0.0
H1401 H 0.18691 0.46725 0.84876 0.0
H1402 H 0.18896 0.4215 0.81961 0.0
H1403 H 0.19673 0.41285 0.85346 0.0
C1404 C 0.27216 0.43719 0.9262 0.0
C1405 C 0.2755 0.42652 0.91167 0.0
C1406 C 0.25502 0.43652 0.92626 0.0
C1407 C 0.24095 0.42473 0.91223 0.0
C1408 C 0.24409 0.41354 0.89825 0.0
C1409 C 0.26132 0.41447 0.89793 0.0
C1410 C 0.22312 0.4245 0.91172 0.0
C1411 C 0.21739 0.4286 0.8927 0.0
C1412 C 0.21242 0.42128 0.93002 0.0
C1413 C 0.21733 0.41583 0.95032 0.0
C1414 C 0.21996 0.40027 0.95154 0.0
C1415 C 0.2246 0.3953 0.97058 0.0
C1416 C 0.22661 0.40572 0.9886 0.0
C1417 C 0.22393 0.42111 0.98763 0.0
C1418 C 0.21926 0.42612 0.96865 0.0
C1419 C 0.14179 0.41537 0.89713 0.0
C1420 C 0.13915 0.42686 0.91127 0.0
C1421 C 0.15863 0.4155 0.89669 0.0
C1422 C 0.17311 0.42734 0.91014 0.0
C1423 C 0.17028 0.43839 0.92476 0.0
C1424 C 0.15327 0.43804 0.92544 0.0
C1425 C 0.19075 0.42719 0.90999 0.0
C1426 C 0.19641 0.42286 0.92887 0.0
C1427 C 0.20125 0.43007 0.89147 0.0
C1428 C 0.19616 0.4351 0.87093 0.0
C1429 C 0.19336 0.45053 0.86921 0.0
C1430 C 0.18899 0.45535 0.84989 0.0
C1431 C 0.18738 0.44488 0.83204 0.0
C1432 C 0.19019 0.4296 0.83345 0.0
C1433 C 0.19463 0.42476 0.85272 0.0
H1434 H 0.18401 0.44863 0.81714 0.0
H1435 H 0.23054 0.40261 -0.00138 0.0
H1436 H 0.69831 0.15996 0.42519 0.0
H1437 H 0.72813 0.18923 0.42151 0.0
H1438 H 0.75304 0.15874 0.39492 0.0
H1439 H 0.72326 0.12959 0.39835 0.0
H1440 H 0.77375 0.18219 0.42605 0.0
H1441 H 0.74445 0.18561 0.36269 0.0
H1442 H 0.72001 0.18526 0.34021 0.0
H1443 H 0.72304 0.2313 0.37469 0.0
H1444 H 0.74749 0.23196 0.3974 0.0
H1445 H 0.85819 0.26485 0.3984 0.0
H1446 H 0.82918 0.23471 0.39688 0.0
H1447 H 0.79933 0.25999 0.42427 0.0
H1448 H 0.8285 0.29016 0.42607 0.0
H1449 H 0.7818 0.23839 0.38907 0.0
H1450 H 0.81054 0.23388 0.45311 0.0
H1451 H 0.83473 0.23369 0.47548 0.0
H1452 H 0.83209 0.18852 0.43953 0.0
H1453 H 0.80808 0.18859 0.4167 0.0
C1454 C 0.71027 0.15959 0.41886 0.0
C1455 C 0.70875 0.14273 0.41221 0.0
C1456 C 0.72712 0.17624 0.41641 0.0
C1457 C 0.74259 0.17609 0.40757 0.0
C1458 C 0.74115 0.15911 0.40151 0.0
C1459 C 0.72428 0.14254 0.40365 0.0
C1460 C 0.76069 0.19346 0.40625 0.0
C1461 C 0.77567 0.19441 0.41765 0.0
C1462 C 0.76284 0.20933 0.39545 0.0
C1463 C 0.74777 0.20872 0.38195 0.0
C1464 C 0.73982 0.19557 0.36563 0.0
C1465 C 0.726 0.19537 0.35276 0.0
C1466 C 0.71994 0.20822 0.35604 0.0
C1467 C 0.72774 0.22134 0.37215 0.0
C1468 C 0.74162 0.22168 0.38499 0.0
C1469 C 0.84544 0.26383 0.40435 0.0
C1470 C 0.84539 0.27956 0.41257 0.0
C1471 C 0.82895 0.2467 0.40343 0.0
C1472 C 0.81221 0.2452 0.41053 0.0
C1473 C 0.81219 0.26095 0.41879 0.0
C1474 C 0.82878 0.27804 0.42004 0.0
C1475 C 0.79468 0.22718 0.40929 0.0
C1476 C 0.77989 0.2261 0.3973 0.0
C1477 C 0.79268 0.21111 0.41948 0.0
C1478 C 0.80762 0.21143 0.43293 0.0
C1479 C 0.81528 0.22407 0.44975 0.0
C1480 C 0.82893 0.22393 0.46258 0.0
C1481 C 0.835 0.21114 0.45889 0.0
C1482 C 0.82742 0.19845 0.44235 0.0
C1483 C 0.81378 0.19854 0.42945 0.0
H1484 H 0.84551 0.21103 0.46887 0.0
H1485 H 0.70925 0.20803 0.3461 0.0
H1486 H 0.56847 0.71624 0.94332 0.0
H1487 H 0.56962 0.74642 0.94337 0.0
H1488 H 0.55029 0.73735 0.87946 0.0
H1489 H 0.54955 0.70752 0.87911 0.0
H1490 H 0.57891 0.77156 0.88465 0.0
H1491 H 0.52089 0.731 0.91926 0.0
H1492 H 0.49993 0.70825 0.9453 0.0
H1493 H 0.53014 0.74779 -0.00997 0.0
H1494 H 0.55111 0.76998 0.969 0.0
H1495 H 0.54919 0.83767 0.87868 0.0
H1496 H 0.55254 0.81008 0.87894 0.0
H1497 H 0.5724 0.82207 0.94265 0.0
H1498 H 0.56848 0.84957 0.94269 0.0
H1499 H 0.54495 0.78723 0.93747 0.0
H1500 H 0.60243 0.82862 0.90098 0.0
H1501 H 0.6219 0.85093 0.87375 0.0
H1502 H 0.59092 0.81045 0.8262 0.0
H1503 H 0.57117 0.78787 0.85311 0.0
C1504 C 0.56432 0.72066 0.92939 0.0
C1505 C 0.55889 0.70965 0.91125 0.0
C1506 C 0.56501 0.73783 0.92942 0.0
C1507 C 0.55991 0.74389 0.91145 0.0
C1508 C 0.55433 0.73283 0.89341 0.0
C1509 C 0.55385 0.71582 0.89329 0.0
C1510 C 0.56048 0.76187 0.91135 0.0
C1511 C 0.57142 0.77504 0.89606 0.0
C1512 C 0.55072 0.76613 0.92649 0.0
C1513 C 0.53783 0.75221 0.94211 0.0
C1514 C 0.52314 0.73465 0.93567 0.0
C1515 C 0.51114 0.72172 0.95039 0.0
C1516 C 0.51357 0.72616 0.97165 0.0
C1517 C 0.52796 0.74359 0.97823 0.0
C1518 C 0.53999 0.75658 0.96358 0.0
C1519 C 0.55433 0.83443 0.89271 0.0
C1520 C 0.55853 0.84552 0.9107 0.0
C1521 C 0.55645 0.81886 0.89274 0.0
C1522 C 0.56312 0.81444 0.91063 0.0
C1523 C 0.5674 0.82552 0.92866 0.0
C1524 C 0.56501 0.84101 0.92874 0.0
C1525 C 0.56372 0.7971 0.91112 0.0
C1526 C 0.55272 0.7839 0.92627 0.0
C1527 C 0.57322 0.79278 0.89565 0.0
C1528 C 0.58518 0.80647 0.87922 0.0
C1529 C 0.59965 0.82446 0.88473 0.0
C1530 C 0.61079 0.83716 0.86932 0.0
C1531 C 0.60765 0.83212 0.84825 0.0
C1532 C 0.59337 0.81434 0.84254 0.0
C1533 C 0.58223 0.80155 0.85789 0.0
H1534 H 0.61627 0.84196 0.83638 0.0
H1535 H 0.50429 0.71614 0.98299 0.0
H1536 H 0.33628 0.91913 0.96086 0.0
H1537 H 0.349 0.94486 0.98624 0.0
H1538 H 0.34916 0.98206 0.93886 0.0
H1539 H 0.33632 0.95631 0.91365 0.0
H1540 H 0.38335 -0.00669 0.96026 0.0
H1541 H 0.31688 0.96697 0.97408 0.0
H1542 H 0.28578 0.94049 0.98253 0.0
H1543 H 0.30737 0.93272 0.03542 0.0
H1544 H 0.33872 0.959 0.02717 0.0
H1545 H 0.39942 0.07072 0.02126 0.0
H1546 H 0.38706 0.04565 -0.00528 0.0
H1547 H 0.37802 0.00545 0.04294 0.0
H1548 H 0.38846 0.02982 0.06913 0.0
H1549 H 0.35017 0.99596 0.01989 0.0
H1550 H 0.41652 0.02225 0.0081 0.0
H1551 H 0.44845 0.0475 -1e-05 0.0
H1552 H 0.42934 0.05532 0.94545 0.0
H1553 H 0.3973 0.03012 0.95315 0.0
C1554 C 0.33826 0.93263 0.95633 0.0
C1555 C 0.33509 0.936 0.9358 0.0
C1556 C 0.34584 0.94729 0.97053 0.0
C1557 C 0.35019 0.96522 0.96408 0.0
C1558 C 0.346 0.96827 0.94384 0.0
C1559 C 0.33825 0.95358 0.92974 0.0
C1560 C 0.35856 0.98074 0.97872 0.0
C1561 C 0.37609 -0.00657 0.97433 0.0
C1562 C 0.34933 0.98099 -0.00758 0.0
C1563 C 0.33039 0.96525 -0.00245 0.0
C1564 C 0.31498 0.95937 0.98847 0.0
C1565 C 0.29762 0.94516 -0.01144 0.0
C1566 C 0.29477 0.93528 0.00714 0.0
C1567 C 0.3096 0.94037 0.02102 0.0
C1568 C 0.32733 0.95532 0.01631 0.0
C1569 C 0.39391 0.05634 0.02601 0.0
C1570 C 0.39457 0.05183 0.04689 0.0
C1571 C 0.38751 0.04225 0.01096 0.0
C1572 C 0.38232 0.02397 0.01695 0.0
C1573 C 0.38217 0.01955 0.03805 0.0
C1574 C 0.38776 0.03332 0.05297 0.0
C1575 C 0.37518 0.00878 0.00179 0.0
C1576 C 0.35775 0.99602 0.00602 0.0
C1577 C 0.38479 0.00849 0.98825 0.0
C1578 C 0.40416 0.02397 0.98369 0.0
C1579 C 0.41912 0.0296 -0.00658 0.0
C1580 C 0.43729 0.04388 -0.01115 0.0
C1581 C 0.44075 0.05268 0.97459 0.0
C1582 C 0.4264 0.04793 0.96013 0.0
C1583 C 0.40823 0.0336 0.96457 0.0
H1584 H 0.45478 0.06372 0.97111 0.0
H1585 H 0.28107 0.9237 0.01079 0.0
H1586 H 0.41241 0.34001 0.45387 0.0
H1587 H 0.40377 0.35632 0.47957 0.0
H1588 H 0.35475 0.3435 0.44318 0.0
H1589 H 0.36367 0.32762 0.41729 0.0
H1590 H 0.37566 0.38139 0.45501 0.0
H1591 H 0.35181 0.31888 0.48317 0.0
H1592 H 0.35557 0.29263 0.49509 0.0
H1593 H 0.39281 0.32707 0.5436 0.0
H1594 H 0.38979 0.35378 0.53153 0.0
H1595 H 0.31681 0.39244 0.52977 0.0
H1596 H 0.32987 0.38148 0.5023 0.0
H1597 H 0.37586 0.39216 0.54301 0.0
H1598 H 0.36264 0.40217 0.57042 0.0
H1599 H 0.35953 0.35856 0.52777 0.0
H1600 H 0.38248 0.42107 0.50146 0.0
H1601 H 0.38068 0.44821 0.48847 0.0
H1602 H 0.34593 0.41528 0.43759 0.0
H1603 H 0.34744 0.38789 0.45028 0.0
C1604 C 0.39924 0.33978 0.4521 0.0
C1605 C 0.38846 0.33252 0.43399 0.0
C1606 C 0.39472 0.34963 0.46627 0.0
C1607 C 0.37894 0.35141 0.46275 0.0
C1608 C 0.36719 0.34251 0.44573 0.0
C1609 C 0.37182 0.33284 0.4315 0.0
C1610 C 0.37368 0.36122 0.47774 0.0
C1611 C 0.37206 0.37655 0.47097 0.0
C1612 C 0.36947 0.35481 0.49846 0.0
C1613 C 0.37077 0.33848 0.50622 0.0
C1614 C 0.36096 0.32095 0.49625 0.0
C1615 C 0.36298 0.30598 0.50302 0.0
C1616 C 0.37448 0.3082 0.52004 0.0
C1617 C 0.38396 0.32539 0.53036 0.0
C1618 C 0.38213 0.34048 0.52353 0.0
C1619 C 0.32947 0.392 0.53287 0.0
C1620 C 0.33878 0.39804 0.55209 0.0
C1621 C 0.33712 0.38625 0.5171 0.0
C1622 C 0.35403 0.38659 0.52061 0.0
C1623 C 0.36295 0.39215 0.54 0.0
C1624 C 0.35528 0.39764 0.55569 0.0
C1625 C 0.36142 0.3789 0.50529 0.0
C1626 C 0.36338 0.36379 0.51196 0.0
C1627 C 0.36601 0.38571 0.48463 0.0
C1628 C 0.36489 0.40224 0.47705 0.0
C1629 C 0.37429 0.41951 0.48762 0.0
C1630 C 0.37339 0.435 0.48025 0.0
C1631 C 0.36314 0.43346 0.46226 0.0
C1632 C 0.35385 0.41646 0.45155 0.0
C1633 C 0.35477 0.40095 0.4588 0.0
H1634 H 0.36244 0.44543 0.45662 0.0
H1635 H 0.376 0.29658 0.52528 0.0
H1636 H 0.03232 0.37397 0.91645 0.0
H1637 H 0.00592 0.36197 0.94091 0.0
H1638 H 0.03839 0.40887 0.98196 0.0
H1639 H 0.06471 0.42036 0.95795 0.0
H1640 H 0.02336 0.37778 -0.00272 0.0
H1641 H 0.00339 0.40762 0.95266 0.0
H1642 H -0.00481 0.41532 0.91848 0.0
H1643 H 0.95385 0.35854 0.91092 0.0
H1644 H 0.96175 0.35043 0.94501 0.0
H1645 H 0.95566 0.36611 0.06602 0.0
H1646 H 0.97986 0.37779 0.03968 0.0
H1647 H 0.94628 0.32925 0.00132 0.0
H1648 H 0.92141 0.31764 0.02764 0.0
H1649 H 0.9611 0.36172 0.98384 0.0
H1650 H 0.9825 0.33278 0.0293 0.0
H1651 H 0.99071 0.32676 0.06433 0.0
H1652 H 0.03047 0.3844 0.07019 0.0
H1653 H 0.02239 0.39086 0.03529 0.0
C1654 C 0.03393 0.38107 0.93121 0.0
C1655 C 0.05053 0.39749 0.93609 0.0
C1656 C 0.01878 0.37465 0.94472 0.0
C1657 C 0.02025 0.38481 0.96291 0.0
C1658 C 0.03707 0.40095 0.9679 0.0
C1659 C 0.05216 0.40722 0.95457 0.0
C1660 C 0.00498 0.37764 0.97795 0.0
C1661 C 0.0093 0.37467 -0.00656 0.0
C1662 C 0.98924 0.37345 0.97243 0.0
C1663 C 0.98459 0.37833 0.95152 0.0
C1664 C -0.00791 0.3967 0.94368 0.0
C1665 C 0.98997 0.40117 0.92431 0.0
C1666 C 0.9753 0.38742 0.91251 0.0
C1667 C 0.96522 0.36919 0.92007 0.0
C1668 C 0.96975 0.36466 0.93947 0.0
C1669 C 0.95347 0.35776 0.05215 0.0
C1670 C 0.93675 0.34097 0.04881 0.0
C1671 C 0.96729 0.36448 0.0371 0.0
C1672 C 0.96477 0.35432 0.01869 0.0
C1673 C 0.94833 0.33723 0.01551 0.0
C1674 C 0.93435 0.3305 0.03061 0.0
C1675 C 0.97956 0.36168 0.00297 0.0
C1676 C 0.97518 0.36483 0.9875 0.0
C1677 C -0.0046 0.36629 0.00846 0.0
C1678 C 0.00046 0.36234 0.02956 0.0
C1679 C 0.99349 0.34422 0.03806 0.0
C1680 C -0.0044 0.34072 0.05793 0.0
C1681 C 0.00982 0.35519 0.0695 0.0
C1682 C 0.01945 0.37319 0.06121 0.0
C1683 C 0.01486 0.37677 0.04136 0.0
H1684 H 0.01339 0.35245 0.08484 0.0
H1685 H 0.97174 0.39089 0.89755 0.0
H1686 H 0.61201 0.03577 0.42678 0.0
H1687 H 0.60433 0.01303 0.45354 0.0
H1688 H 0.66258 0.03754 0.4701 0.0
H1689 H 0.67082 0.06106 0.4423 0.0
H1690 H 0.64252 -0.00136 0.46548 0.0
H1691 H 0.63423 0.04555 0.50124 0.0
H1692 H 0.62311 0.06812 0.50476 0.0
H1693 H 0.56639 0.02375 0.49871 0.0
H1694 H 0.5771 0.00087 0.49493 0.0
H1695 H 0.61299 0.94341 0.55601 0.0
H1696 H 0.62795 0.96897 0.53079 0.0
H1697 H 0.57393 0.95417 0.50516 0.0
H1698 H 0.55901 0.92876 0.53038 0.0
H1699 H 0.59472 0.99141 0.51822 0.0
H1700 H 0.60071 0.94571 0.47865 0.0
H1701 H 0.6093 0.92141 0.47336 0.0
H1702 H 0.66718 0.96216 0.48192 0.0
H1703 H 0.65891 0.98663 0.48798 0.0
C1704 C 0.62336 0.03672 0.4362 0.0
C1705 C 0.642 0.05063 0.43308 0.0
C1706 C 0.61884 0.02368 0.45155 0.0
C1707 C 0.6328 0.02437 0.4643 0.0
C1708 C 0.65166 0.03747 0.46066 0.0
C1709 C 0.65632 0.05073 0.44493 0.0
C1710 C 0.62711 0.0102 0.48033 0.0
C1711 C 0.6325 -0.00326 0.47754 0.0
C1712 C 0.61318 0.00757 0.49504 0.0
C1713 C 0.60656 0.02138 0.49783 0.0
C1714 C 0.61938 0.04055 0.5006 0.0
C1715 C 0.61313 0.05343 0.50265 0.0
C1716 C 0.59406 0.04738 0.50198 0.0
C1717 C 0.58117 0.02842 0.49929 0.0
C1718 C 0.58733 0.01547 0.49727 0.0
C1719 C 0.60451 0.94519 0.54434 0.0
C1720 C 0.58504 0.93444 0.54485 0.0
C1721 C 0.61295 0.95985 0.53027 0.0
C1722 C 0.60187 0.96347 0.5166 0.0
C1723 C 0.58252 0.95163 0.51593 0.0
C1724 C 0.57412 0.93705 0.52999 0.0
C1725 C 0.61043 0.98005 0.50352 0.0
C1726 C 0.60521 0.99367 0.50663 0.0
C1727 C 0.62413 0.98267 0.4887 0.0
C1728 C 0.62915 0.96802 0.48416 0.0
C1729 C 0.61526 0.94949 0.47966 0.0
C1730 C 0.62007 0.93566 0.47652 0.0
C1731 C 0.63876 0.94022 0.47742 0.0
C1732 C 0.65269 0.95863 0.48132 0.0
C1733 C 0.64795 0.97249 0.48464 0.0
H1734 H 0.64247 0.9295 0.47502 0.0
H1735 H 0.58927 0.05736 0.50355 0.0
H1736 H 0.61733 0.57897 0.06203 0.0
H1737 H 0.60614 0.59151 0.0349 0.0
H1738 H 0.6594 0.61481 0.00369 0.0
H1739 H 0.67088 0.60245 0.0311 0.0
H1740 H 0.64698 0.6393 0.00797 0.0
H1741 H 0.62132 0.57488 0.9883 0.0
H1742 H 0.6038 0.54049 0.99067 0.0
H1743 H 0.55415 0.54246 0.00104 0.0
H1744 H 0.57136 0.57687 -0.00115 0.0
H1745 H 0.61313 0.66259 0.92205 0.0
H1746 H 0.62722 0.6497 0.94572 0.0
H1747 H 0.57647 0.62356 0.98208 0.0
H1748 H 0.56247 0.63624 0.95844 0.0
H1749 H 0.58859 0.59936 0.97227 0.0
H1750 H 0.61293 0.66219 -0.00536 0.0
H1751 H 0.62887 0.6965 -0.00786 0.0
H1752 H 0.67936 0.69729 0.97905 0.0
H1753 H 0.66362 0.6629 0.98096 0.0
C1754 C 0.62673 0.5869 0.04951 0.0
C1755 C 0.64492 0.5897 0.04848 0.0
C1756 C 0.62022 0.59379 0.03389 0.0
C1757 C 0.6318 0.60352 0.01709 0.0
C1758 C 0.65021 0.60697 0.01642 0.0
C1759 C 0.65675 0.60002 0.03205 0.0
C1760 C 0.62501 0.61123 0.00103 0.0
C1761 C 0.63452 0.63073 -0.00123 0.0
C1762 C 0.60836 0.59984 -0.01028 0.0
C1763 C 0.59792 0.57898 -0.00877 0.0
C1764 C 0.60664 0.56786 0.99227 0.0
C1765 C 0.59705 0.54909 -0.01115 0.0
C1766 C 0.57805 0.53967 -0.00628 0.0
C1767 C 0.56888 0.54977 -0.00273 0.0
C1768 C 0.5787 0.56929 -0.00403 0.0
C1769 C 0.60545 0.65483 0.93569 0.0
C1770 C 0.58712 0.65087 0.93916 0.0
C1771 C 0.61326 0.64718 0.94885 0.0
C1772 C 0.60275 0.63571 0.96549 0.0
C1773 C 0.58467 0.63233 0.96924 0.0
C1774 C 0.5769 0.6399 0.95613 0.0
C1775 C 0.61062 0.62737 0.97931 0.0
C1776 C 0.60123 0.60782 0.98124 0.0
C1777 C 0.62717 0.63867 0.99064 0.0
C1778 C 0.63684 0.65949 0.99005 0.0
C1779 C 0.62746 0.6698 -0.00997 0.0
C1780 C 0.63647 0.68928 -0.01128 0.0
C1781 C 0.65494 0.69869 0.98771 0.0
C1782 C 0.66478 0.68939 0.9834 0.0
C1783 C 0.65582 0.66989 0.98459 0.0
H1784 H 0.66188 0.71376 0.98671 0.0
H1785 H 0.57043 0.52458 -0.0053 0.0
H1786 H 0.05215 0.62363 0.53851 0.0
H1787 H 0.02719 0.61343 0.51312 0.0
H1788 H 0.02099 0.66106 0.52819 0.0
H1789 H 0.046 0.67119 0.55449 0.0
H1790 H 0.99039 0.62713 0.52799 0.0
H1791 H 0.04288 0.6601 0.48249 0.0
H1792 H 0.07314 0.66653 0.46787 0.0
H1793 H 0.04893 0.60933 0.44846 0.0
H1794 H 0.01851 0.6025 0.46301 0.0
H1795 H 0.92907 0.6101 0.43985 0.0
H1796 H 0.95484 0.62623 0.46529 0.0
H1797 H 0.96939 0.58312 0.45736 0.0
H1798 H 0.94465 0.56731 0.43302 0.0
H1799 H -0.00383 0.61691 0.45332 0.0
H1800 H 0.94601 0.5815 0.49794 0.0
H1801 H 0.91466 0.57123 0.51228 0.0
H1802 H 0.93296 0.62681 0.53442 0.0
H1803 H 0.96437 0.63751 0.51997 0.0
C1804 C 0.04559 0.63205 0.53625 0.0
C1805 C 0.05089 0.64824 0.54808 0.0
C1806 C 0.03147 0.62626 0.52174 0.0
C1807 C 0.02269 0.63676 0.51869 0.0
C1808 C 0.02798 0.65305 0.53037 0.0
C1809 C 0.04222 0.65889 0.54508 0.0
C1810 C 0.0074 0.63009 0.50383 0.0
C1811 C 0.99217 0.62528 0.51153 0.0
C1812 C 0.00994 0.62674 0.48275 0.0
C1813 C 0.02836 0.63078 0.47401 0.0
C1814 C 0.04401 0.64885 0.47522 0.0
C1815 C 0.06119 0.65258 0.46689 0.0
C1816 C 0.06297 0.63835 0.45727 0.0
C1817 C 0.04754 0.62035 0.45591 0.0
C1818 C 0.0303 0.61656 0.46415 0.0
C1819 C 0.9377 0.60411 0.44387 0.0
C1820 C 0.93471 0.58742 0.43468 0.0
C1821 C 0.9523 0.61325 0.45817 0.0
C1822 C 0.96373 0.60565 0.46292 0.0
C1823 C 0.96065 0.5891 0.45374 0.0
C1824 C 0.94629 0.58005 0.43988 0.0
C1825 C 0.97929 0.61466 0.47729 0.0
C1826 C -0.00553 0.61929 0.46965 0.0
C1827 C 0.97653 0.61704 0.49853 0.0
C1828 C 0.95758 0.61042 0.50756 0.0
C1829 C 0.94334 0.5916 0.50568 0.0
C1830 C 0.92554 0.58568 0.51388 0.0
C1831 C 0.92179 0.59837 0.52417 0.0
C1832 C 0.93586 0.61699 0.5264 0.0
C1833 C 0.95368 0.62299 0.51822 0.0
H1834 H 0.90802 0.59379 0.53047 0.0
H1835 H 0.07628 0.64127 0.45086 0.0
H1836 H 0.57238 0.95255 0.92063 0.0
H1837 H 0.58623 0.9771 0.9467 0.0
H1838 H 0.61685 0.952 0.97233 0.0
H1839 H 0.60239 0.92673 0.94639 0.0
H1840 H 0.60018 0.96296 -0.00224 0.0
H1841 H 0.63893 0.99082 0.94088 0.0
H1842 H 0.64565 -0.0013 0.90427 0.0
H1843 H 0.61834 0.0309 0.91196 0.0
H1844 H 0.61112 0.02061 0.94859 0.0
H1845 H 0.66208 0.03955 0.05756 0.0
H1846 H 0.64879 0.01341 0.03261 0.0
H1847 H 0.61906 0.03747 0.00216 0.0
H1848 H 0.63302 0.0638 0.02626 0.0
H1849 H 0.63448 0.02594 0.98044 0.0
H1850 H 0.59564 -0.0002 0.03632 0.0
H1851 H 0.58735 0.99235 0.07289 0.0
H1852 H 0.61254 0.95797 0.06824 0.0
H1853 H 0.6212 0.9677 0.03164 0.0
C1854 C 0.58228 0.95238 0.93158 0.0
C1855 C 0.58656 0.93798 0.93147 0.0
C1856 C 0.5901 0.96635 0.94648 0.0
C1857 C 0.60267 0.96636 0.96111 0.0
C1858 C 0.60714 0.95208 0.96101 0.0
C1859 C 0.59903 0.93784 0.94622 0.0
C1860 C 0.61097 0.98138 0.97648 0.0
C1861 C 0.60811 0.97752 -0.00682 0.0
C1862 C 0.62028 -0.00236 0.96998 0.0
C1863 C 0.62421 0.00347 0.94757 0.0
C1864 C 0.634 -0.00259 0.93475 0.0
C1865 C 0.63806 0.00338 0.91398 0.0
C1866 C 0.63242 0.01543 0.90577 0.0
C1867 C 0.62271 0.02156 0.91832 0.0
C1868 C 0.61866 0.01569 0.93911 0.0
C1869 C 0.65348 0.03957 0.0448 0.0
C1870 C 0.64845 0.05335 0.04341 0.0
C1871 C 0.64541 0.02445 0.03117 0.0
C1872 C 0.63243 0.02332 0.01631 0.0
C1873 C 0.6288 0.03804 0.01388 0.0
C1874 C 0.63707 0.0532 0.0272 0.0
C1875 C 0.62391 0.00769 0.00182 0.0
C1876 C 0.62659 0.01142 0.98521 0.0
C1877 C 0.61419 0.99145 0.00855 0.0
C1878 C 0.60942 0.98598 0.03106 0.0
C1879 C 0.5998 0.99282 0.04309 0.0
C1880 C 0.59483 0.9871 0.06385 0.0
C1881 C 0.59943 0.97456 0.07291 0.0
C1882 C 0.60897 0.96768 0.06122 0.0
C1883 C 0.61386 0.97325 0.04042 0.0
H1884 H 0.59559 0.97017 0.08893 0.0
H1885 H 0.6356 0.02003 0.88973 0.0
H1886 H 0.67025 0.6016 0.44896 0.0
H1887 H 0.65769 0.61341 0.47592 0.0
H1888 H 0.60629 0.592 0.44101 0.0
H1889 H 0.61871 0.58062 0.41409 0.0
H1890 H 0.61991 0.62696 0.45153 0.0
H1891 H 0.60787 0.57007 0.48536 0.0
H1892 H 0.61514 0.54688 0.50013 0.0
H1893 H 0.65271 0.58754 0.54417 0.0
H1894 H 0.64577 0.61104 0.52964 0.0
H1895 H 0.56632 0.64156 0.52718 0.0
H1896 H 0.57799 0.6277 0.50195 0.0
H1897 H 0.63006 0.65082 0.53594 0.0
H1898 H 0.61791 0.66401 0.5618 0.0
H1899 H 0.61473 0.61298 0.52729 0.0
H1900 H 0.62643 0.66976 0.49159 0.0
H1901 H 0.61664 0.69134 0.47772 0.0
H1902 H 0.57768 0.64843 0.43658 0.0
H1903 H 0.58691 0.62641 0.45056 0.0
C1904 C 0.65636 0.59964 0.44701 0.0
C1905 C 0.64542 0.59021 0.42953 0.0
C1906 C 0.64912 0.60606 0.46252 0.0
C1907 C 0.63094 0.60305 0.46057 0.0
C1908 C 0.62027 0.59415 0.44283 0.0
C1909 C 0.62749 0.58787 0.42735 0.0
C1910 C 0.62361 0.61096 0.47577 0.0
C1911 C 0.61854 0.6237 0.46807 0.0
C1912 C 0.62218 0.60672 0.49733 0.0
C1913 C 0.62646 0.5925 0.50614 0.0
C1914 C 0.61782 0.57417 0.49806 0.0
C1915 C 0.62184 0.56092 0.50646 0.0
C1916 C 0.63444 0.56575 0.52302 0.0
C1917 C 0.64297 0.58381 0.53131 0.0
C1918 C 0.63896 0.5971 0.52302 0.0
C1919 C 0.58059 0.64442 0.52857 0.0
C1920 C 0.59148 0.65396 0.54594 0.0
C1921 C 0.58706 0.63619 0.51453 0.0
C1922 C 0.60476 0.63815 0.51738 0.0
C1923 C 0.61628 0.64909 0.53378 0.0
C1924 C 0.60965 0.65708 0.54805 0.0
C1925 C 0.61135 0.62905 0.50289 0.0
C1926 C 0.61614 0.61608 0.51072 0.0
C1927 C 0.61236 0.63282 0.48132 0.0
C1928 C 0.60729 0.64634 0.47229 0.0
C1929 C 0.61571 0.66486 0.47967 0.0
C1930 C 0.61023 0.67718 0.4718 0.0
C1931 C 0.59651 0.67125 0.45631 0.0
C1932 C 0.58828 0.653 0.44861 0.0
C1933 C 0.59364 0.64058 0.4565 0.0
H1934 H 0.59229 0.6808 0.45026 0.0
H1935 H 0.63756 0.55551 0.52945 0.0
H1936 H 0.95739 0.62049 0.06329 0.0
H1937 H 0.98181 0.6289 0.03763 0.0
H1938 H 0.9424 0.58634 -0.00429 0.0
H1939 H 0.91819 0.57647 0.02278 0.0
H1940 H 0.97644 0.58692 -0.00233 0.0
H1941 H 0.95467 0.63088 -0.01119 0.0
H1942 H 0.94481 0.65216 0.00366 0.0
H1943 H -0.00263 0.68725 0.02833 0.0
H1944 H 0.00747 0.66596 0.01404 0.0
H1945 H 0.02764 0.62584 0.91175 0.0
H1946 H 0.00381 0.61313 0.93873 0.0
H1947 H 0.04217 0.65425 0.98252 0.0
H1948 H 0.06621 0.6672 0.95544 0.0
H1949 H 0.00894 0.65254 0.98033 0.0
H1950 H 0.03124 0.60907 0.98737 0.0
H1951 H 0.04035 0.58641 0.97513 0.0
H1952 H 0.98705 0.54995 0.95336 0.0
H1953 H 0.97758 0.57242 0.9653 0.0
C1954 C 0.95378 0.61352 0.04822 0.0
C1955 C 0.93614 0.59807 0.0447 0.0
C1956 C 0.96776 0.61797 0.03383 0.0
C1957 C 0.9638 0.60817 0.01489 0.0
C1958 C 0.94562 0.59386 0.0104 0.0
C1959 C 0.9317 0.58878 0.02538 0.0
C1960 C 0.9787 0.61408 -0.00052 0.0
C1961 C 0.98407 0.6013 -0.00755 0.0
C1962 C 0.9887 0.63299 -0.00663 0.0
C1963 C 0.98314 0.64681 0.00025 0.0
C1964 C 0.96473 0.64319 -0.00271 0.0
C1965 C 0.95906 0.6552 0.00573 0.0
C1966 C 0.97173 0.67105 0.01692 0.0
C1967 C 0.99012 0.67498 0.01961 0.0
C1968 C -0.0067 0.66296 0.01131 0.0
C1969 C 0.03102 0.63216 0.92712 0.0
C1970 C 0.04875 0.64729 0.9317 0.0
C1971 C 0.0175 0.62474 0.94253 0.0
C1972 C 0.02159 0.63239 0.96264 0.0
C1973 C 0.03906 0.64798 0.96709 0.0
C1974 C 0.05261 0.65547 0.95163 0.0
C1975 C 0.0068 0.62546 0.97825 0.0
C1976 C 0.00139 0.6381 0.98539 0.0
C1977 C -0.00321 0.6064 0.98413 0.0
C1978 C 0.00243 0.59261 0.97715 0.0
C1979 C 0.02089 0.59629 0.97986 0.0
C1980 C 0.02612 0.58344 0.973 0.0
C1981 C 0.01303 0.56677 0.96343 0.0
C1982 C -0.00535 0.56287 0.96078 0.0
C1983 C 0.99187 0.57565 0.96766 0.0
H1984 H 0.01711 0.55687 0.9581 0.0
H1985 H 0.9673 0.6803 0.0235 0.0
H1986 H 0.31441 0.92391 0.53125 0.0
H1987 H 0.32463 0.94975 0.5059 0.0
H1988 H 0.37808 0.97935 0.53716 0.0
H1989 H 0.36783 0.95494 0.56257 0.0
H1990 H 0.36591 -0.00108 0.52916 0.0
H1991 H 0.37275 0.95431 0.49246 0.0
H1992 H 0.36258 0.92315 0.47738 0.0
H1993 H 0.32418 0.92875 0.43712 0.0
H1994 H 0.33399 0.95989 0.45202 0.0
H1995 H 0.42162 0.06441 0.45288 0.0
H1996 H 0.40811 0.03884 0.47783 0.0
H1997 H 0.35517 0.0151 0.44551 0.0
H1998 H 0.36911 0.04049 0.41984 0.0
H1999 H 0.36709 0.99189 0.45278 0.0
H2000 H 0.36222 0.03782 0.49183 0.0
H2001 H 0.37544 0.0695 0.50669 0.0
H2002 H 0.41402 0.06094 0.54329 0.0
H2003 H 0.40122 0.02927 0.5284 0.0
C2004 C 0.32817 0.93612 0.53265 0.0
C2005 C 0.34065 0.93728 0.54818 0.0
C2006 C 0.33406 0.95063 0.51817 0.0
C2007 C 0.35229 0.96602 0.51943 0.0
C2008 C 0.36409 0.96745 0.53575 0.0
C2009 C 0.35821 0.95339 0.55016 0.0
C2010 C 0.35933 0.98127 0.50438 0.0
C2011 C 0.36619 -0.00319 0.51246 0.0
C2012 C 0.35981 0.97829 0.48269 0.0
C2013 C 0.35397 0.95946 0.47359 0.0
C2014 C 0.36202 0.94887 0.48051 0.0
C2015 C 0.35636 0.9312 0.47194 0.0
C2016 C 0.34269 0.92394 0.45636 0.0
C2017 C 0.33474 0.93437 0.44922 0.0
C2018 C 0.34039 0.95206 0.4577 0.0
C2019 C 0.40689 0.05412 0.45171 0.0
C2020 C 0.39619 0.05428 0.4349 0.0
C2021 C 0.39929 0.03944 0.46569 0.0
C2022 C 0.38072 0.02515 0.46333 0.0
C2023 C 0.36958 0.02604 0.44736 0.0
C2024 C 0.37731 0.04069 0.43315 0.0
C2025 C 0.37304 0.00932 0.47766 0.0
C2026 C 0.36653 0.9938 0.46948 0.0
C2027 C 0.37335 0.01224 0.4994 0.0
C2028 C 0.38079 0.03116 0.50888 0.0
C2029 C 0.37357 0.0427 0.50299 0.0
C2030 C 0.381 0.06067 0.51141 0.0
C2031 C 0.39558 0.06724 0.5259 0.0
C2032 C 0.40273 0.05583 0.53205 0.0
C2033 C 0.39537 0.03785 0.52364 0.0
H2034 H 0.40131 0.08115 0.53239 0.0
H2035 H 0.3383 0.91028 0.44978 0.0
H2036 H 0.39834 0.36375 0.0655 0.0
H2037 H 0.38568 0.37544 0.03969 0.0
H2038 H 0.37365 0.32875 -0.00078 0.0
H2039 H 0.38876 0.31801 0.02466 0.0
H2040 H 0.39057 0.36099 0.98342 0.0
H2041 H 0.33983 0.33236 0.02851 0.0
H2042 H 0.32633 0.32654 0.06389 0.0
H2043 H 0.34227 0.38433 0.07006 0.0
H2044 H 0.35619 0.39064 0.03484 0.0
H2045 H 0.33166 0.37427 0.91476 0.0
H2046 H 0.34517 0.36227 0.94037 0.0
H2047 H 0.35867 0.40943 0.98067 0.0
H2048 H 0.34469 0.421 0.95537 0.0
H2049 H 0.3427 0.37855 -0.00339 0.0
H2050 H 0.39278 0.40786 0.95249 0.0
H2051 H 0.4088 0.41553 0.91841 0.0
H2052 H 0.39584 0.3587 0.91089 0.0
H2053 H 0.37964 0.35059 0.94484 0.0
C2054 C 0.39277 0.35579 0.05119 0.0
C2055 C 0.39467 0.34022 0.04668 0.0
C2056 C 0.38547 0.36245 0.03653 0.0
C2057 C 0.37859 0.35283 0.01772 0.0
C2058 C 0.37903 0.3363 0.01376 0.0
C2059 C 0.38723 0.32999 0.02829 0.0
C2060 C 0.37159 0.36073 0.00217 0.0
C2061 C 0.37972 0.36432 0.987 0.0
C2062 C 0.35823 0.36595 0.00773 0.0
C2063 C 0.34911 0.36199 0.02883 0.0
C2064 C 0.34051 0.34387 0.03736 0.0
C2065 C 0.3328 0.34049 0.05745 0.0
C2066 C 0.33342 0.35505 0.06921 0.0
C2067 C 0.34176 0.37304 0.06091 0.0
C2068 C 0.34954 0.37653 0.04085 0.0
C2069 C 0.33701 0.38161 0.92943 0.0
C2070 C 0.3368 0.39807 0.93374 0.0
C2071 C 0.34508 0.37509 0.94371 0.0
C2072 C 0.35318 0.38525 0.96208 0.0
C2073 C 0.35254 0.40153 0.96648 0.0
C2074 C 0.34435 0.40792 0.95232 0.0
C2075 C 0.36105 0.3781 0.97747 0.0
C2076 C 0.3534 0.37506 -0.00716 0.0
C2077 C 0.37495 0.37359 0.97209 0.0
C2078 C 0.38476 0.37853 0.95136 0.0
C2079 C 0.39318 0.39692 0.94355 0.0
C2080 C 0.40238 0.40138 0.92423 0.0
C2081 C 0.40331 0.38761 0.91247 0.0
C2082 C 0.39512 0.36937 0.92002 0.0
C2083 C 0.38597 0.36485 0.93935 0.0
H2084 H 0.4104 0.39107 0.89755 0.0
H2085 H 0.32745 0.35239 0.08472 0.0
H2086 H 0.0373 0.41757 0.55979 0.0
H2087 H 0.01279 0.40474 0.53348 0.0
H2088 H 0.03151 0.36694 0.51301 0.0
H2089 H 0.05671 0.38033 0.53904 0.0
H2090 H 0.02411 0.38376 0.48067 0.0
H2091 H -0.00668 0.35158 0.54551 0.0
H2092 H 0.98526 0.34857 0.58207 0.0
H2093 H 0.95821 0.3801 0.56815 0.0
H2094 H 0.96867 0.38337 0.53154 0.0
H2095 H 0.94584 0.3216 0.42404 0.0
H2096 H 0.97167 0.33489 0.44935 0.0
H2097 H 0.95144 0.37037 0.47378 0.0
H2098 H 0.92521 0.35624 0.44972 0.0
H2099 H 0.96065 0.35613 0.503 0.0
H2100 H 0.98995 0.38861 0.43886 0.0
H2101 H -0.00229 0.39296 0.40207 0.0
H2102 H 0.02684 0.36301 0.41331 0.0
H2103 H 0.01683 0.35854 0.45016 0.0
C2104 C 0.03608 0.40642 0.54977 0.0
C2105 C 0.04852 0.39961 0.5514 0.0
C2106 C 0.02217 0.39918 0.53481 0.0
C2107 C 0.02032 0.38476 0.52175 0.0
C2108 C 0.03287 0.37807 0.52316 0.0
C2109 C 0.04708 0.38559 0.53794 0.0
C2110 C 0.00511 0.37666 0.5067 0.0
C2111 C 0.00959 0.37745 0.48537 0.0
C2112 C 0.98896 0.36924 0.51328 0.0
C2113 C 0.98325 0.36787 0.53569 0.0
C2114 C 0.98783 0.35805 0.55026 0.0
C2115 C 0.98175 0.35623 0.571 0.0
C2116 C 0.97109 0.36416 0.57744 0.0
C2117 C 0.96647 0.37396 0.56316 0.0
C2118 C 0.97245 0.37577 0.5424 0.0
C2119 C 0.94651 0.33148 0.43568 0.0
C2120 C 0.93391 0.33808 0.4353 0.0
C2121 C 0.96149 0.33951 0.44947 0.0
C2122 C 0.96372 0.35411 0.46259 0.0
C2123 C 0.95003 0.35934 0.46342 0.0
C2124 C 0.93491 0.351 0.45012 0.0
C2125 C 0.97947 0.36297 0.47685 0.0
C2126 C 0.97513 0.36247 0.49811 0.0
C2127 C -0.00434 0.37092 0.47005 0.0
C2128 C 0.00115 0.37305 0.44743 0.0
C2129 C -0.00415 0.38277 0.43349 0.0
C2130 C 0.00175 0.38536 0.4126 0.0
C2131 C 0.01289 0.37823 0.40534 0.0
C2132 C 0.0182 0.36854 0.41894 0.0
C2133 C 0.01248 0.36603 0.43986 0.0
H2134 H 0.01741 0.38024 0.38922 0.0
H2135 H 0.96639 0.3627 0.59346 0.0
H2136 H 0.46222 0.06679 0.07852 0.0
H2137 H 0.49132 0.06656 0.07266 0.0
H2138 H 0.52242 0.12644 0.08102 0.0
H2139 H 0.49308 0.12665 0.08676 0.0
H2140 H 0.53627 0.11438 0.05012 0.0
H2141 H 0.51519 0.09731 0.12156 0.0
H2142 H 0.49422 0.07913 0.15038 0.0
H2143 H 0.49473 0.03006 0.12933 0.0
H2144 H 0.51556 0.04784 0.10023 0.0
H2145 H 0.62375 0.12535 0.08472 0.0
H2146 H 0.59458 0.12578 0.07836 0.0
H2147 H 0.56532 0.06605 0.06868 0.0
H2148 H 0.59425 0.06566 0.07504 0.0
H2149 H 0.55002 0.07691 0.09987 0.0
H2150 H 0.56999 0.09308 0.02853 0.0
H2151 H 0.59163 0.11103 9e-05 0.0
H2152 H 0.59313 0.16097 0.02173 0.0
H2153 H 0.57158 0.14335 0.05041 0.0
C2154 C 0.47532 0.07992 0.07864 0.0
C2155 C 0.47579 0.09674 0.08339 0.0
C2156 C 0.49182 0.07974 0.07549 0.0
C2157 C 0.50889 0.09639 0.0772 0.0
C2158 C 0.50926 0.11344 0.08005 0.0
C2159 C 0.49265 0.11362 0.08318 0.0
C2160 C 0.52637 0.09592 0.07667 0.0
C2161 C 0.53942 0.10636 0.06112 0.0
C2162 C 0.52995 0.08492 0.0909 0.0
C2163 C 0.51689 0.07399 0.10836 0.0
C2164 C 0.5107 0.0826 0.12285 0.0
C2165 C 0.49886 0.07236 0.13934 0.0
C2166 C 0.49309 0.05344 0.14166 0.0
C2167 C 0.49918 0.04472 0.12752 0.0
C2168 C 0.51103 0.0549 0.11102 0.0
C2169 C 0.61116 0.11251 0.08059 0.0
C2170 C 0.61089 0.09546 0.08055 0.0
C2171 C 0.59459 0.11271 0.07702 0.0
C2172 C 0.57787 0.09588 0.07333 0.0
C2173 C 0.57807 0.0791 0.07171 0.0
C2174 C 0.59453 0.07892 0.07524 0.0
C2175 C 0.55989 0.09543 0.07332 0.0
C2176 C 0.54677 0.08482 0.08883 0.0
C2177 C 0.55616 0.10616 0.0591 0.0
C2178 C 0.56923 0.11687 0.0418 0.0
C2179 C 0.57503 0.10791 0.02735 0.0
C2180 C 0.58725 0.11803 0.01113 0.0
C2181 C 0.59378 0.13714 0.00913 0.0
C2182 C 0.58806 0.14616 0.0233 0.0
C2183 C 0.5758 0.1361 0.03952 0.0
H2184 H 0.60324 0.14494 -0.00342 0.0
H2185 H 0.48398 0.04557 0.15442 0.0
H2186 H 0.49333 0.62346 0.60218 0.0
H2187 H 0.46335 0.59446 0.59782 0.0
H2188 H 0.49053 0.57134 0.56043 0.0
H2189 H 0.52017 0.60054 0.56413 0.0
H2190 H 0.4577 0.56131 0.54565 0.0
H2191 H 0.48281 0.56114 0.61305 0.0
H2192 H 0.49596 0.57234 0.64822 0.0
H2193 H 0.44622 0.57273 0.66643 0.0
H2194 H 0.43272 0.56157 0.63139 0.0
H2195 H 0.39062 0.46694 0.56122 0.0
H2196 H 0.41782 0.49788 0.55851 0.0
H2197 H 0.38979 0.52067 0.59489 0.0
H2198 H 0.36246 0.48913 0.59828 0.0
H2199 H 0.42369 0.53032 0.61053 0.0
H2200 H 0.39948 0.53009 0.54091 0.0
H2201 H 0.3874 0.51713 0.50589 0.0
H2202 H 0.4376 0.51582 0.49245 0.0
H2203 H 0.44998 0.52869 0.52743 0.0
C2204 C 0.49258 0.61239 0.59237 0.0
C2205 C 0.50866 0.61389 0.58338 0.0
C2206 C 0.47569 0.5958 0.59025 0.0
C2207 C 0.47503 0.58065 0.5795 0.0
C2208 C 0.49089 0.58283 0.56904 0.0
C2209 C 0.50766 0.59948 0.57093 0.0
C2210 C 0.45784 0.56247 0.57932 0.0
C2211 C 0.45031 0.55439 0.55981 0.0
C2212 C 0.44847 0.55365 0.59804 0.0
C2213 C 0.45676 0.56064 0.61931 0.0
C2214 C 0.47469 0.56375 0.62445 0.0
C2215 C 0.4822 0.57003 0.64444 0.0
C2216 C 0.47196 0.5733 0.65954 0.0
C2217 C 0.45416 0.57021 0.65472 0.0
C2218 C 0.44654 0.56384 0.6348 0.0
C2219 C 0.39013 0.47864 0.56824 0.0
C2220 C 0.37472 0.47584 0.58009 0.0
C2221 C 0.4056 0.49631 0.56658 0.0
C2222 C 0.40574 0.51154 0.57639 0.0
C2223 C 0.38984 0.509 0.5872 0.0
C2224 C 0.37425 0.49114 0.58895 0.0
C2225 C 0.42317 0.52963 0.57679 0.0
C2226 C 0.43098 0.53742 0.5964 0.0
C2227 C 0.43306 0.53802 0.55821 0.0
C2228 C 0.42563 0.5303 0.53696 0.0
C2229 C 0.40792 0.52696 0.53056 0.0
C2230 C 0.40104 0.51966 0.51067 0.0
C2231 C 0.41171 0.51563 0.49696 0.0
C2232 C 0.42934 0.51895 0.50308 0.0
C2233 C 0.43632 0.52631 0.52293 0.0
H2234 H 0.40634 0.50996 0.48161 0.0
H2235 H 0.4778 0.57819 0.67495 0.0
H2236 H 0.90989 0.38645 0.04988 0.0
H2237 H 0.90853 0.41536 0.04914 0.0
H2238 H 0.87472 0.39816 0.10495 0.0
H2239 H 0.87564 0.36896 0.10526 0.0
H2240 H 0.86191 0.41199 0.07668 0.0
H2241 H 0.92194 0.43013 0.10741 0.0
H2242 H 0.95352 0.43417 0.11034 0.0
H2243 H 0.97027 0.46727 0.05464 0.0
H2244 H 0.93878 0.46338 0.05126 0.0
H2245 H 0.8738 0.49945 0.10593 0.0
H2246 H 0.87269 0.46939 0.10352 0.0
H2247 H 0.90463 0.487 0.04638 0.0
H2248 H 0.90622 0.51734 0.04926 0.0
H2249 H 0.91978 0.47391 0.07562 0.0
H2250 H 0.85962 0.45497 0.0447 0.0
H2251 H 0.82891 0.45313 0.04371 0.0
H2252 H 0.81347 0.42214 0.10096 0.0
H2253 H 0.84421 0.42404 0.10248 0.0
C2254 C 0.90168 0.38869 0.06151 0.0
C2255 C 0.89269 0.37573 0.07748 0.0
C2256 C 0.90127 0.40526 0.06138 0.0
C2257 C 0.8921 0.40902 0.07742 0.0
C2258 C 0.88209 0.39549 0.09265 0.0
C2259 C 0.88231 0.37878 0.09262 0.0
C2260 C 0.89205 0.42665 0.07759 0.0
C2261 C 0.87457 0.42554 0.07674 0.0
C2262 C 0.90876 0.44421 0.07715 0.0
C2263 C 0.92778 0.44625 0.07895 0.0
C2264 C 0.93226 0.43811 0.09564 0.0
C2265 C 0.95021 0.44045 0.09743 0.0
C2266 C 0.96388 0.45092 0.08265 0.0
C2267 C 0.95966 0.45914 0.06607 0.0
C2268 C 0.94176 0.4569 0.06425 0.0
C2269 C 0.87978 0.49646 0.09242 0.0
C2270 C 0.88987 0.51023 0.07762 0.0
C2271 C 0.87942 0.47953 0.09119 0.0
C2272 C 0.88875 0.47623 0.07486 0.0
C2273 C 0.89755 0.48951 0.05914 0.0
C2274 C 0.89808 0.50653 0.06053 0.0
C2275 C 0.88964 0.45903 0.07461 0.0
C2276 C 0.90723 0.46028 0.0755 0.0
C2277 C 0.87312 0.44154 0.07509 0.0
C2278 C 0.85427 0.43969 0.07373 0.0
C2279 C 0.8497 0.44779 0.05711 0.0
C2280 C 0.83229 0.44676 0.05647 0.0
C2281 C 0.81925 0.43753 0.07227 0.0
C2282 C 0.82358 0.42927 0.08872 0.0
C2283 C 0.84098 0.43028 0.08946 0.0
H2284 H 0.8058 0.43677 0.07176 0.0
H2285 H 0.97774 0.4527 0.08406 0.0
H2286 H 0.35944 0.86691 0.57163 0.0
H2287 H 0.3889 0.86837 0.56165 0.0
H2288 H 0.41988 0.92018 0.5958 0.0
H2289 H 0.39093 0.91892 0.60546 0.0
H2290 H 0.43789 0.92097 0.56162 0.0
H2291 H 0.40646 0.87931 0.61862 0.0
H2292 H 0.38099 0.85253 0.63701 0.0
H2293 H 0.38454 0.81472 0.59368 0.0
H2294 H 0.40978 0.84127 0.57472 0.0
H2295 H 0.51536 0.92078 0.60419 0.0
H2296 H 0.48728 0.92102 0.59441 0.0
H2297 H 0.46891 0.87046 0.55846 0.0
H2298 H 0.49742 0.86998 0.56871 0.0
H2299 H 0.44396 0.86774 0.58754 0.0
H2300 H 0.48012 0.91371 0.53355 0.0
H2301 H 0.50736 0.94261 0.52065 0.0
H2302 H 0.49752 0.97476 0.56641 0.0
H2303 H 0.4702 0.94609 0.57955 0.0
C2304 C 0.3726 0.87853 0.5769 0.0
C2305 C 0.37302 0.89227 0.59006 0.0
C2306 C 0.3893 0.87945 0.57112 0.0
C2307 C 0.40639 0.89418 0.57843 0.0
C2308 C 0.40679 0.90862 0.59023 0.0
C2309 C 0.39023 0.90766 0.59606 0.0
C2310 C 0.42374 0.89368 0.57585 0.0
C2311 C 0.43927 0.9093 0.56708 0.0
C2312 C 0.42533 0.87847 0.58344 0.0
C2313 C 0.40991 0.86241 0.59494 0.0
C2314 C 0.40169 0.86532 0.6128 0.0
C2315 C 0.38729 0.85015 0.62339 0.0
C2316 C 0.38109 0.83193 0.61647 0.0
C2317 C 0.3893 0.82884 0.59899 0.0
C2318 C 0.40365 0.84396 0.5883 0.0
C2319 C 0.50533 0.90962 0.59426 0.0
C2320 C 0.50809 0.89495 0.58778 0.0
C2321 C 0.4895 0.91006 0.58825 0.0
C2322 C 0.4762 0.89592 0.57548 0.0
C2323 C 0.47921 0.88157 0.56821 0.0
C2324 C 0.49527 0.88119 0.57418 0.0
C2325 C 0.45805 0.89478 0.57275 0.0
C2326 C 0.44242 0.87905 0.58118 0.0
C2327 C 0.4566 0.91023 0.56567 0.0
C2328 C 0.47301 0.92764 0.55753 0.0
C2329 C 0.48375 0.92692 0.54088 0.0
C2330 C 0.49921 0.94329 0.5335 0.0
C2331 C 0.50416 0.96052 0.54269 0.0
C2332 C 0.49364 0.96142 0.55925 0.0
C2333 C 0.4781 0.94512 0.56659 0.0
H2334 H 0.51614 0.97314 0.537 0.0
H2335 H 0.36999 0.82022 0.62468 0.0
H2336 H 0.59002 0.52402 0.06865 0.0
H2337 H 0.56276 0.49297 0.06797 0.0
H2338 H 0.59681 0.46923 0.08604 0.0
H2339 H 0.62455 0.50069 0.08682 0.0
H2340 H 0.57079 0.45 0.05374 0.0
H2341 H 0.57136 0.47396 0.12293 0.0
H2342 H 0.5729 0.49645 0.14943 0.0
H2343 H 0.52427 0.49451 0.12296 0.0
H2344 H 0.52245 0.4721 0.09622 0.0
H2345 H 0.4936 0.3642 0.08843 0.0
H2346 H 0.52302 0.39322 0.08169 0.0
H2347 H 0.49218 0.42131 0.06714 0.0
H2348 H 0.46292 0.39245 0.07415 0.0
H2349 H 0.51714 0.43791 0.0989 0.0
H2350 H 0.51656 0.41596 0.02949 0.0
H2351 H 0.51356 0.39315 0.00263 0.0
H2352 H 0.56082 0.39186 0.02848 0.0
H2353 H 0.56403 0.41456 0.05563 0.0
C2354 C 0.59178 0.5122 0.07233 0.0
C2355 C 0.60923 0.51468 0.07813 0.0
C2356 C 0.5762 0.49453 0.07207 0.0
C2357 C 0.57781 0.47906 0.07763 0.0
C2358 C 0.59541 0.48121 0.08208 0.0
C2359 C 0.61117 0.49905 0.08234 0.0
C2360 C 0.56089 0.4607 0.07838 0.0
C2361 C 0.55914 0.44713 0.06387 0.0
C2362 C 0.54564 0.45755 0.09125 0.0
C2363 C 0.54687 0.47136 0.10733 0.0
C2364 C 0.56107 0.47842 0.1226 0.0
C2365 C 0.56196 0.49113 0.13774 0.0
C2366 C 0.54872 0.49694 0.13785 0.0
C2367 C 0.53453 0.49001 0.12287 0.0
C2368 C 0.53354 0.47725 0.10774 0.0
C2369 C 0.49325 0.37649 0.08321 0.0
C2370 C 0.47641 0.37649 0.08195 0.0
C2371 C 0.50991 0.39295 0.07934 0.0
C2372 C 0.50961 0.40929 0.07407 0.0
C2373 C 0.49258 0.40881 0.07131 0.0
C2374 C 0.47601 0.39243 0.07527 0.0
C2375 C 0.52702 0.42728 0.07412 0.0
C2376 C 0.52882 0.44077 0.08882 0.0
C2377 C 0.54221 0.43046 0.0613 0.0
C2378 C 0.54047 0.41692 0.04475 0.0
C2379 C 0.52626 0.41074 0.02955 0.0
C2380 C 0.52454 0.39785 0.01423 0.0
C2381 C 0.53697 0.39103 0.01387 0.0
C2382 C 0.55119 0.39716 0.02877 0.0
C2383 C 0.553 0.41008 0.0441 0.0
H2384 H 0.5356 0.38104 0.00203 0.0
H2385 H 0.54944 0.50677 0.14955 0.0
H2386 H 0.10644 0.48259 0.55668 0.0
H2387 H 0.1103 0.51409 0.55361 0.0
H2388 H 0.07598 0.50378 0.60832 0.0
H2389 H 0.07192 0.47271 0.61118 0.0
H2390 H 0.06329 0.51457 0.5762 0.0
H2391 H 0.12164 0.53238 0.61 0.0
H2392 H 0.15266 0.53552 0.61494 0.0
H2393 H 0.17202 0.56747 0.55854 0.0
H2394 H 0.14099 0.56422 0.55301 0.0
H2395 H 0.07434 0.59756 0.6133 0.0
H2396 H 0.07609 0.56945 0.60747 0.0
H2397 H 0.10834 0.59345 0.55151 0.0
H2398 H 0.10674 0.62216 0.55754 0.0
H2399 H 0.12184 0.57585 0.57658 0.0
H2400 H 0.06149 0.55934 0.54653 0.0
H2401 H 0.03008 0.55595 0.54528 0.0
H2402 H 0.01444 0.52222 0.6005 0.0
H2403 H 0.04571 0.52537 0.6021 0.0
C2404 C 0.10003 0.48731 0.56812 0.0
C2405 C 0.08859 0.47533 0.58387 0.0
C2406 C 0.10221 0.50516 0.56638 0.0
C2407 C 0.09318 0.51101 0.5806 0.0
C2408 C 0.08277 0.49935 0.59703 0.0
C2409 C 0.08047 0.48166 0.59863 0.0
C2410 C 0.09339 0.52873 0.57792 0.0
C2411 C 0.07607 0.52801 0.57629 0.0
C2412 C 0.11016 0.54609 0.57769 0.0
C2413 C 0.1288 0.54775 0.58086 0.0
C2414 C 0.13239 0.53984 0.59846 0.0
C2415 C 0.15002 0.54169 0.60141 0.0
C2416 C 0.16428 0.55161 0.58701 0.0
C2417 C 0.16094 0.55973 0.56965 0.0
C2418 C 0.14333 0.55787 0.56659 0.0
C2419 C 0.082 0.59692 0.59988 0.0
C2420 C 0.09028 0.61175 0.58574 0.0
C2421 C 0.08276 0.58081 0.59642 0.0
C2422 C 0.09167 0.57919 0.57864 0.0
C2423 C 0.10105 0.59444 0.56507 0.0
C2424 C 0.10036 0.6108 0.56863 0.0
C2425 C 0.09178 0.5617 0.57524 0.0
C2426 C 0.1091 0.5624 0.57585 0.0
C2427 C 0.07494 0.54429 0.57515 0.0
C2428 C 0.05608 0.54265 0.57444 0.0
C2429 C 0.05141 0.55129 0.55848 0.0
C2430 C 0.03358 0.54935 0.55768 0.0
C2431 C 0.02027 0.53888 0.5728 0.0
C2432 C 0.02474 0.5303 0.58876 0.0
C2433 C 0.0425 0.5321 0.58957 0.0
H2434 H 0.00651 0.53741 0.57214 0.0
H2435 H 0.17791 0.55306 0.58934 0.0
H2436 H 0.86219 0.49462 0.3902 0.0
H2437 H 0.86123 0.46507 0.39835 0.0
H2438 H 0.92065 0.4952 0.41004 0.0
H2439 H 0.9216 0.52452 0.40167 0.0
H2440 H 0.91007 0.46908 0.37836 0.0
H2441 H 0.89321 0.47281 0.44921 0.0
H2442 H 0.87528 0.47648 0.47779 0.0
H2443 H 0.82528 0.42833 0.45592 0.0
H2444 H 0.84287 0.42442 0.42709 0.0
H2445 H 0.92214 0.39383 0.40388 0.0
H2446 H 0.92053 0.42235 0.40813 0.0
H2447 H 0.86116 0.39123 0.3963 0.0
H2448 H 0.8628 0.36243 0.39203 0.0
H2449 H 0.87162 0.4178 0.4275 0.0
H2450 H 0.89032 0.41392 0.35665 0.0
H2451 H 0.9092 0.41156 0.32821 0.0
H2452 H 0.95753 0.46122 0.35033 0.0
H2453 H 0.93905 0.46387 0.37899 0.0
C2454 C 0.87485 0.49481 0.39499 0.0
C2455 C 0.892 0.51141 0.39476 0.0
C2456 C 0.87434 0.47809 0.39972 0.0
C2457 C 0.89095 0.47809 0.40444 0.0
C2458 C 0.90778 0.495 0.40614 0.0
C2459 C 0.90831 0.51161 0.40132 0.0
C2460 C 0.89123 0.46049 0.40463 0.0
C2461 C 0.90195 0.45792 0.38929 0.0
C2462 C 0.88012 0.44597 0.41859 0.0
C2463 C 0.86937 0.44843 0.4358 0.0
C2464 C 0.87836 0.4631 0.45035 0.0
C2465 C 0.86826 0.46519 0.46665 0.0
C2466 C 0.84914 0.45268 0.46864 0.0
C2467 C 0.84009 0.43802 0.45435 0.0
C2468 C 0.85013 0.43584 0.43804 0.0
C2469 C 0.90869 0.39308 0.40266 0.0
C2470 C 0.89262 0.37631 0.39727 0.0
C2471 C 0.90784 0.40931 0.40487 0.0
C2472 C 0.89089 0.40886 0.40165 0.0
C2473 C 0.87442 0.39174 0.39834 0.0
C2474 C 0.87529 0.37538 0.3961 0.0
C2475 C 0.89058 0.42641 0.40138 0.0
C2476 C 0.87979 0.42896 0.41659 0.0
C2477 C 0.90183 0.44099 0.38733 0.0
C2478 C 0.91322 0.43897 0.3703 0.0
C2479 C 0.90502 0.42423 0.35567 0.0
C2480 C 0.91566 0.42289 0.3394 0.0
C2481 C 0.93457 0.4362 0.33749 0.0
C2482 C 0.94289 0.45089 0.35183 0.0
C2483 C 0.93231 0.45234 0.36808 0.0
H2484 H 0.94274 0.43514 0.32491 0.0
H2485 H 0.84136 0.45432 0.48126 0.0
H2486 H 0.52146 0.92884 0.90202 0.0
H2487 H 0.4906 0.92524 0.90487 0.0
H2488 H 0.4661 0.86529 0.90682 0.0
H2489 H 0.49723 0.86877 0.90318 0.0
H2490 H 0.4485 0.87619 0.87969 0.0
H2491 H 0.4687 0.8911 0.95267 0.0
H2492 H 0.49074 0.90987 0.98066 0.0
H2493 H 0.48984 0.95864 0.95949 0.0
H2494 H 0.46775 0.94017 0.93141 0.0
H2495 H 0.3589 0.86241 0.89898 0.0
H2496 H 0.38809 0.86205 0.90563 0.0
H2497 H 0.4189 0.92239 0.90453 0.0
H2498 H 0.38998 0.92271 0.89846 0.0
H2499 H 0.43259 0.90966 0.93303 0.0
H2500 H 0.41531 0.89834 0.86057 0.0
H2501 H 0.39554 0.88288 0.82977 0.0
H2502 H 0.39336 0.8315 0.84606 0.0
H2503 H 0.41303 0.84659 0.87704 0.0
C2504 C 0.50955 0.91487 0.9032 0.0
C2505 C 0.51171 0.89908 0.9025 0.0
C2506 C 0.49194 0.91285 0.90502 0.0
C2507 C 0.47619 0.89504 0.90657 0.0
C2508 C 0.47821 0.87917 0.90592 0.0
C2509 C 0.49593 0.88117 0.90395 0.0
C2510 C 0.45759 0.89318 0.9076 0.0
C2511 C 0.44475 0.88306 0.89163 0.0
C2512 C 0.45333 0.90304 0.92271 0.0
C2513 C 0.46654 0.91419 0.93985 0.0
C2514 C 0.47322 0.90583 0.95394 0.0
C2515 C 0.4857 0.91642 0.96987 0.0
C2516 C 0.49169 0.93544 0.97185 0.0
C2517 C 0.48516 0.9439 0.95797 0.0
C2518 C 0.47258 0.93335 0.9421 0.0
C2519 C 0.3719 0.87547 0.90072 0.0
C2520 C 0.37257 0.89253 0.89786 0.0
C2521 C 0.38847 0.87531 0.90432 0.0
C2522 C 0.40556 0.8922 0.90498 0.0
C2523 C 0.40586 0.90924 0.90386 0.0
C2524 C 0.38942 0.90939 0.90033 0.0
C2525 C 0.42331 0.89226 0.90544 0.0
C2526 C 0.43612 0.90236 0.9214 0.0
C2527 C 0.42775 0.88283 0.88998 0.0
C2528 C 0.41554 0.87359 0.87138 0.0
C2529 C 0.41049 0.8837 0.85774 0.0
C2530 C 0.39933 0.87501 0.84017 0.0
C2531 C 0.39315 0.8562 0.83598 0.0
C2532 C 0.39814 0.84607 0.84932 0.0
C2533 C 0.40932 0.85469 0.86688 0.0
H2534 H 0.38454 0.84951 0.8224 0.0
H2535 H 0.50138 0.94361 0.98413 0.0
H2536 H 0.46854 0.38992 0.42648 0.0
H2537 H 0.49866 0.41888 0.42674 0.0
H2538 H 0.51818 0.397 0.37756 0.0
H2539 H 0.48797 0.36791 0.37742 0.0
H2540 H 0.54308 0.41426 0.40825 0.0
H2541 H 0.503 0.42712 0.36493 0.0
H2542 H 0.47559 0.42991 0.35525 0.0
H2543 H 0.48711 0.46843 0.40574 0.0
H2544 H 0.51457 0.46588 0.4158 0.0
H2545 H 0.62077 0.50147 0.37775 0.0
H2546 H 0.59242 0.47067 0.37942 0.0
H2547 H 0.57058 0.49083 0.42793 0.0
H2548 H 0.59864 0.52161 0.42592 0.0
H2549 H 0.54602 0.47485 0.39547 0.0
H2550 H 0.58464 0.46043 0.43966 0.0
H2551 H 0.612 0.45755 0.44927 0.0
H2552 H 0.60175 0.42097 0.39702 0.0
H2553 H 0.57447 0.42381 0.38694 0.0
C2554 C 0.4796 0.39114 0.41634 0.0
C2555 C 0.47632 0.37709 0.4019 0.0
C2556 C 0.49648 0.40772 0.41613 0.0
C2557 C 0.51007 0.41017 0.40151 0.0
C2558 C 0.50748 0.39533 0.38855 0.0
C2559 C 0.49055 0.37869 0.38878 0.0
C2560 C 0.52746 0.42792 0.40058 0.0
C2561 C 0.54381 0.42751 0.40507 0.0
C2562 C 0.52792 0.44506 0.39698 0.0
C2563 C 0.51089 0.44616 0.39128 0.0
C2564 C 0.49962 0.43605 0.37414 0.0
C2565 C 0.48409 0.43766 0.3685 0.0
C2566 C 0.47959 0.44932 0.37989 0.0
C2567 C 0.49061 0.4594 0.39692 0.0
C2568 C 0.5062 0.45792 0.40256 0.0
C2569 C 0.61017 0.49901 0.38924 0.0
C2570 C 0.61165 0.51362 0.40177 0.0
C2571 C 0.59398 0.48159 0.39005 0.0
C2572 C 0.57944 0.4787 0.40365 0.0
C2573 C 0.5816 0.49296 0.41719 0.0
C2574 C 0.59764 0.51036 0.41623 0.0
C2575 C 0.56164 0.46108 0.40316 0.0
C2576 C 0.54522 0.46155 0.39847 0.0
C2577 C 0.56094 0.44389 0.40655 0.0
C2578 C 0.57764 0.44254 0.41238 0.0
C2579 C 0.58834 0.45195 0.43008 0.0
C2580 C 0.60381 0.45027 0.43565 0.0
C2581 C 0.60865 0.43914 0.42372 0.0
C2582 C 0.59802 0.42963 0.40622 0.0
C2583 C 0.58255 0.43126 0.40057 0.0
H2584 H 0.62061 0.43784 0.42808 0.0
H2585 H 0.4676 0.45055 0.3755 0.0
H2586 H 0.10592 0.48206 0.92584 0.0
H2587 H 0.10971 0.51355 0.93021 0.0
H2588 H 0.07385 0.5034 0.87685 0.0
H2589 H 0.07067 0.47293 0.87212 0.0
H2590 H 0.10421 0.53536 0.87375 0.0
H2591 H 0.05811 0.50018 0.92621 0.0
H2592 H 0.04481 0.48132 0.95796 0.0
H2593 H 0.08695 0.52632 -0.00923 0.0
H2594 H 0.10035 0.54468 0.9639 0.0
H2595 H 0.06983 0.5973 0.87538 0.0
H2596 H 0.07373 0.57002 0.87728 0.0
H2597 H 0.11247 0.59518 0.9285 0.0
H2598 H 0.10854 0.62279 0.92661 0.0
H2599 H 0.0855 0.55816 0.93575 0.0
H2600 H 0.12913 0.5933 0.87913 0.0
H2601 H 0.13851 0.61013 0.84557 0.0
H2602 H 0.09485 0.56237 0.81403 0.0
H2603 H 0.08521 0.5452 0.84736 0.0
C2604 C 0.09924 0.48689 0.91494 0.0
C2605 C 0.08801 0.47529 0.89867 0.0
C2606 C 0.10112 0.5046 0.91762 0.0
C2607 C 0.09185 0.51059 0.90396 0.0
C2608 C 0.08106 0.49901 0.88757 0.0
C2609 C 0.07929 0.48164 0.88486 0.0
C2610 C 0.09394 0.52929 0.90542 0.0
C2611 C 0.10012 0.54037 0.88732 0.0
C2612 C 0.08864 0.53563 0.92333 0.0
C2613 C 0.08056 0.52385 0.94245 0.0
C2614 C 0.06469 0.50585 0.94114 0.0
C2615 C 0.05699 0.49511 0.95916 0.0
C2616 C 0.06491 0.50219 0.9787 0.0
C2617 C 0.08052 0.52006 0.98028 0.0
C2618 C 0.08826 0.53086 0.96232 0.0
C2619 C 0.07913 0.59699 0.88709 0.0
C2620 C 0.08879 0.61197 0.90098 0.0
C2621 C 0.08149 0.5815 0.88803 0.0
C2622 C 0.09354 0.58072 0.90288 0.0
C2623 C 0.10319 0.59565 0.91687 0.0
C2624 C 0.10099 0.61134 0.91576 0.0
C2625 C 0.09549 0.56398 0.90395 0.0
C2626 C 0.08997 0.55326 0.92242 0.0
C2627 C 0.10068 0.55749 0.88611 0.0
C2628 C 0.10637 0.56796 0.86591 0.0
C2629 C 0.12145 0.5864 0.86508 0.0
C2630 C 0.12686 0.59598 0.84605 0.0
C2631 C 0.11727 0.58734 0.82768 0.0
C2632 C 0.10228 0.56906 0.82826 0.0
C2633 C 0.09689 0.55936 0.84722 0.0
H2634 H 0.12147 0.59479 0.81301 0.0
H2635 H 0.05894 0.49389 0.9926 0.0
H2636 H 0.59477 0.06673 0.39166 0.0
H2637 H 0.56547 0.06607 0.39904 0.0
H2638 H 0.5953 0.12622 0.40436 0.0
H2639 H 0.62491 0.12684 0.39733 0.0
H2640 H 0.56641 0.10916 0.43222 0.0
H2641 H 0.57708 0.10545 0.35818 0.0
H2642 H 0.58258 0.09274 0.32574 0.0
H2643 H 0.53165 0.04102 0.33507 0.0
H2644 H 0.52589 0.05327 0.3677 0.0
H2645 H 0.49113 0.12411 0.39959 0.0
H2646 H 0.52055 0.12455 0.40751 0.0
H2647 H 0.49197 0.06441 0.4023 0.0
H2648 H 0.463 0.06401 0.39416 0.0
H2649 H 0.52031 0.08168 0.37459 0.0
H2650 H 0.50948 0.08391 0.44808 0.0
H2651 H 0.50277 0.09587 0.48033 0.0
H2652 H 0.55248 0.14886 0.47166 0.0
H2653 H 0.55944 0.13729 0.43925 0.0
C2654 C 0.59503 0.07978 0.39466 0.0
C2655 C 0.61173 0.09695 0.39327 0.0
C2656 C 0.57838 0.07936 0.39886 0.0
C2657 C 0.5783 0.09614 0.4014 0.0
C2658 C 0.59522 0.11319 0.402 0.0
C2659 C 0.612 0.11359 0.39798 0.0
C2660 C 0.56048 0.09592 0.4019 0.0
C2661 C 0.55635 0.10334 0.41957 0.0
C2662 C 0.5474 0.08788 0.38534 0.0
C2663 C 0.55116 0.08029 0.36573 0.0
C2664 C 0.56714 0.09129 0.35351 0.0
C2665 C 0.57027 0.08417 0.335 0.0
C2666 C 0.5575 0.06606 0.32837 0.0
C2667 C 0.54156 0.05504 0.34023 0.0
C2668 C 0.53834 0.06208 0.35874 0.0
C2669 C 0.49124 0.11108 0.4006 0.0
C2670 C 0.47529 0.0941 0.39565 0.0
C2671 C 0.50787 0.11129 0.4052 0.0
C2672 C 0.50831 0.0945 0.40514 0.0
C2673 C 0.49186 0.07747 0.40214 0.0
C2674 C 0.47544 0.07728 0.39739 0.0
C2675 C 0.52614 0.0947 0.40505 0.0
C2676 C 0.53032 0.08739 0.3873 0.0
C2677 C 0.53915 0.10266 0.42152 0.0
C2678 C 0.53491 0.10975 0.44103 0.0
C2679 C 0.51891 0.09817 0.45292 0.0
C2680 C 0.51509 0.10487 0.47129 0.0
C2681 C 0.52717 0.12313 0.47802 0.0
C2682 C 0.54312 0.13472 0.46643 0.0
C2683 C 0.54704 0.12808 0.44807 0.0
H2684 H 0.52419 0.12828 0.49223 0.0
H2685 H 0.55994 0.06061 0.31406 0.0
H2686 H 0.50356 0.62351 0.92259 0.0
H2687 H 0.47195 0.59615 0.9272 0.0
H2688 H 0.48435 0.56619 0.88037 0.0
H2689 H 0.51488 0.59306 0.87524 0.0
H2690 H 0.45297 0.56535 0.87256 0.0
H2691 H 0.4849 0.55734 0.93111 0.0
H2692 H 0.50195 0.56464 0.96456 0.0
H2693 H 0.45624 0.56515 -0.00888 0.0
H2694 H 0.43861 0.55732 0.96248 0.0
H2695 H 0.39259 0.47052 0.8772 0.0
H2696 H 0.41927 0.5016 0.88032 0.0
H2697 H 0.38957 0.51629 0.92501 0.0
H2698 H 0.36245 0.4844 0.92236 0.0
H2699 H 0.42652 0.52761 0.93656 0.0
H2700 H 0.39468 0.53243 0.87401 0.0
H2701 H 0.37982 0.52284 0.83929 0.0
H2702 H 0.42939 0.52563 0.81456 0.0
H2703 H 0.4446 0.53527 0.84909 0.0
C2704 C 0.49924 0.6111 0.91318 0.0
C2705 C 0.51147 0.6102 0.89862 0.0
C2706 C 0.48146 0.5955 0.91604 0.0
C2707 C 0.47606 0.5792 0.90427 0.0
C2708 C 0.48832 0.57862 0.88965 0.0
C2709 C 0.50573 0.59399 0.88672 0.0
C2710 C 0.45721 0.56294 0.90543 0.0
C2711 C 0.44714 0.55711 0.88659 0.0
C2712 C 0.44982 0.55243 0.92391 0.0
C2713 C 0.46052 0.55715 0.94404 0.0
C2714 C 0.47847 0.55913 0.945 0.0
C2715 C 0.48817 0.56313 0.964 0.0
C2716 C 0.48007 0.56509 0.98227 0.0
C2717 C 0.46221 0.56296 0.9816 0.0
C2718 C 0.45245 0.55893 0.96265 0.0
C2719 C 0.39167 0.4803 0.88777 0.0
C2720 C 0.37556 0.47515 0.8996 0.0
C2721 C 0.40688 0.4981 0.88938 0.0
C2722 C 0.40617 0.51125 0.90256 0.0
C2723 C 0.39016 0.50625 0.91459 0.0
C2724 C 0.37474 0.48821 0.91298 0.0
C2725 C 0.42252 0.53006 0.90365 0.0
C2726 C 0.43218 0.53623 0.92278 0.0
C2727 C 0.43005 0.54062 0.88524 0.0
C2728 C 0.42079 0.53457 0.8643 0.0
C2729 C 0.40241 0.53093 0.86122 0.0
C2730 C 0.39394 0.52552 0.84153 0.0
C2731 C 0.40365 0.52362 0.82473 0.0
C2732 C 0.42188 0.52714 0.82756 0.0
C2733 C 0.43046 0.53266 0.84719 0.0
H2734 H 0.39706 0.51943 0.80954 0.0
H2735 H 0.48791 0.56894 -0.00774 0.0
loop_
_geom_bond_atom_site_label_1
_geom_bond_atom_site_label_2
_geom_bond_distance
_geom_bond_site_symmetry_2
_ccdc_geom_bond_type
Zn0 O3 2.031 . S
Zn0 O5 2.049 . S
Zn0 O10 2.067 . S
Zn1 O2 1.962 . S
Zn1 O4 1.986 . S
Zn1 O6 1.996 . S
Zn1 O9 1.943 . S
O2 Zn1 1.962 . S
O2 C7 1.254 . S
O3 Zn0 2.031 . S
O3 C7 1.269 . S
O4 Zn1 1.986 . S
O4 C11 1.262 . S
O5 Zn0 2.049 . S
O5 C13 1.260 . S
O6 Zn1 1.996 . S
O6 C13 1.257 . S
C7 O2 1.254 . S
C7 O3 1.269 . S
C8 O9 1.249 . S
C8 O10 1.270 . S
O9 Zn1 1.943 . S
O9 C8 1.249 . S
O10 Zn0 2.067 . S
O10 C8 1.270 . S
C11 O4 1.262 . S
C11 O12 1.232 . S
O12 C11 1.232 . S
C13 O5 1.260 . S
C13 O6 1.257 . S
Zn14 O17 2.031 . S
Zn14 O19 2.049 . S
Zn14 O24 2.067 . S
Zn15 O16 1.962 . S
Zn15 O18 1.986 . S
Zn15 O20 1.996 . S
Zn15 O23 1.943 . S
O16 Zn15 1.962 . S
O16 C21 1.254 . S
O17 Zn14 2.031 . S
O17 C21 1.269 . S
O18 Zn15 1.986 . S
O18 C25 1.262 . S
O19 Zn14 2.049 . S
O19 C27 1.260 . S
O20 Zn15 1.996 . S
O20 C27 1.257 . S
C21 O16 1.254 . S
C21 O17 1.269 . S
C22 O23 1.249 . S
C22 O24 1.270 . S
O23 Zn15 1.943 . S
O23 C22 1.249 . S
O24 Zn14 2.067 . S
O24 C22 1.270 . S
C25 O18 1.262 . S
C25 O26 1.232 . S
O26 C25 1.232 . S
C27 O19 1.260 . S
C27 O20 1.257 . S
Zn28 O31 2.031 . S
Zn28 O33 2.049 . S
Zn28 O38 2.067 . S
Zn29 O30 1.962 . S
Zn29 O32 1.986 . S
Zn29 O34 1.996 . S
Zn29 O37 1.943 . S
O30 Zn29 1.962 . S
O30 C35 1.254 . S
O31 Zn28 2.031 . S
O31 C35 1.269 . S
O32 Zn29 1.986 . S
O32 C39 1.262 . S
O33 Zn28 2.049 . S
O33 C41 1.260 . S
O34 Zn29 1.996 . S
O34 C41 1.257 . S
C35 O30 1.254 . S
C35 O31 1.269 . S
C36 O37 1.249 . S
C36 O38 1.270 . S
O37 Zn29 1.943 . S
O37 C36 1.249 . S
O38 Zn28 2.067 . S
O38 C36 1.270 . S
C39 O32 1.262 . S
C39 O40 1.232 . S
O40 C39 1.232 . S
C41 O33 1.260 . S
C41 O34 1.257 . S
Zn42 O45 2.031 . S
Zn42 O47 2.049 . S
Zn42 O52 2.067 . S
Zn43 O44 1.962 . S
Zn43 O46 1.986 . S
Zn43 O48 1.996 . S
Zn43 O51 1.943 . S
O44 Zn43 1.962 . S
O44 C49 1.254 . S
O45 Zn42 2.031 . S
O45 C49 1.269 . S
O46 Zn43 1.986 . S
O46 C53 1.262 . S
O47 Zn42 2.049 . S
O47 C55 1.260 . S
O48 Zn43 1.996 . S
O48 C55 1.257 . S
C49 O44 1.254 . S
C49 O45 1.269 . S
C50 O51 1.249 . S
C50 O52 1.270 . S
O51 Zn43 1.943 . S
O51 C50 1.249 . S
O52 Zn42 2.067 . S
O52 C50 1.270 . S
C53 O46 1.262 . S
C53 O54 1.232 . S
O54 C53 1.232 . S
C55 O47 1.260 . S
C55 O48 1.257 . S
Zn56 O59 2.031 . S
Zn56 O61 2.049 . S
Zn56 O66 2.067 . S
Zn57 O58 1.962 . S
Zn57 O60 1.986 . S
Zn57 O62 1.996 . S
Zn57 O65 1.943 . S
O58 Zn57 1.962 . S
O58 C63 1.254 . S
O59 Zn56 2.031 . S
O59 C63 1.269 . S
O60 Zn57 1.986 . S
O60 C67 1.262 . S
O61 Zn56 2.049 . S
O61 C69 1.260 . S
O62 Zn57 1.996 . S
O62 C69 1.257 . S
C63 O58 1.254 . S
C63 O59 1.269 . S
C64 O65 1.249 . S
C64 O66 1.270 . S
O65 Zn57 1.943 . S
O65 C64 1.249 . S
O66 Zn56 2.067 . S
O66 C64 1.270 . S
C67 O60 1.262 . S
C67 O68 1.232 . S
O68 C67 1.232 . S
C69 O61 1.260 . S
C69 O62 1.257 . S
Zn70 O73 2.031 . S
Zn70 O75 2.049 . S
Zn70 O80 2.067 . S
Zn71 O72 1.962 . S
Zn71 O74 1.986 . S
Zn71 O76 1.996 . S
Zn71 O79 1.943 . S
O72 Zn71 1.962 . S
O72 C77 1.254 . S
O73 Zn70 2.031 . S
O73 C77 1.269 . S
O74 Zn71 1.986 . S
O74 C81 1.262 . S
O75 Zn70 2.049 . S
O75 C83 1.260 . S
O76 Zn71 1.996 . S
O76 C83 1.257 . S
C77 O72 1.254 . S
C77 O73 1.269 . S
C78 O79 1.249 . S
C78 O80 1.270 . S
O79 Zn71 1.943 . S
O79 C78 1.249 . S
O80 Zn70 2.067 . S
O80 C78 1.270 . S
C81 O74 1.262 . S
C81 O82 1.232 . S
O82 C81 1.232 . S
C83 O75 1.260 . S
C83 O76 1.257 . S
Zn84 O87 2.031 . S
Zn84 O89 2.049 . S
Zn84 O94 2.067 . S
Zn85 O86 1.962 . S
Zn85 O88 1.986 . S
Zn85 O90 1.996 . S
Zn85 O93 1.943 . S
O86 Zn85 1.962 . S
O86 C91 1.254 . S
O87 Zn84 2.031 . S
O87 C91 1.269 . S
O88 Zn85 1.986 . S
O88 C95 1.262 . S
O89 Zn84 2.049 . S
O89 C97 1.260 . S
O90 Zn85 1.996 . S
O90 C97 1.257 . S
C91 O86 1.254 . S
C91 O87 1.269 . S
C92 O93 1.249 . S
C92 O94 1.270 . S
O93 Zn85 1.943 . S
O93 C92 1.249 . S
O94 Zn84 2.067 . S
O94 C92 1.270 . S
C95 O88 1.262 . S
C95 O96 1.232 . S
O96 C95 1.232 . S
C97 O89 1.260 . S
C97 O90 1.257 . S
Zn98 O101 2.031 . S
Zn98 O103 2.049 . S
Zn98 O108 2.067 . S
Zn99 O100 1.962 . S
Zn99 O102 1.986 . S
Zn99 O104 1.996 . S
Zn99 O107 1.943 . S
O100 Zn99 1.962 . S
O100 C105 1.254 . S
O101 Zn98 2.031 . S
O101 C105 1.269 . S
O102 Zn99 1.986 . S
O102 C109 1.262 . S
O103 Zn98 2.049 . S
O103 C111 1.260 . S
O104 Zn99 1.996 . S
O104 C111 1.257 . S
C105 O100 1.254 . S
C105 O101 1.269 . S
C106 O107 1.249 . S
C106 O108 1.270 . S
O107 Zn99 1.943 . S
O107 C106 1.249 . S
O108 Zn98 2.067 . S
O108 C106 1.270 . S
C109 O102 1.262 . S
C109 O110 1.232 . S
O110 C109 1.232 . S
C111 O103 1.260 . S
C111 O104 1.257 . S
Zn112 O115 2.031 . S
Zn112 O117 2.049 . S
Zn112 O122 2.067 . S
Zn113 O114 1.962 . S
Zn113 O116 1.986 . S
Zn113 O118 1.996 . S
Zn113 O121 1.943 . S
O114 Zn113 1.962 . S
O114 C119 1.254 . S
O115 Zn112 2.031 . S
O115 C119 1.269 . S
O116 Zn113 1.986 . S
O116 C123 1.262 . S
O117 Zn112 2.049 . S
O117 C125 1.260 . S
O118 Zn113 1.996 . S
O118 C125 1.257 . S
C119 O114 1.254 . S
C119 O115 1.269 . S
C120 O121 1.249 . S
C120 O122 1.270 . S
O121 Zn113 1.943 . S
O121 C120 1.249 . S
O122 Zn112 2.067 . S
O122 C120 1.270 . S
C123 O116 1.262 . S
C123 O124 1.232 . S
O124 C123 1.232 . S
C125 O117 1.260 . S
C125 O118 1.257 . S
Zn126 O129 2.031 . S
Zn126 O131 2.049 . S
Zn126 O136 2.067 . S
Zn127 O128 1.962 . S
Zn127 O130 1.986 . S
Zn127 O132 1.996 . S
Zn127 O135 1.943 . S
O128 Zn127 1.962 . S
O128 C133 1.254 . S
O129 Zn126 2.031 . S
O129 C133 1.269 . S
O130 Zn127 1.986 . S
O130 C137 1.262 . S
O131 Zn126 2.049 . S
O131 C139 1.260 . S
O132 Zn127 1.996 . S
O132 C139 1.257 . S
C133 O128 1.254 . S
C133 O129 1.269 . S
C134 O135 1.249 . S
C134 O136 1.270 . S
O135 Zn127 1.943 . S
O135 C134 1.249 . S
O136 Zn126 2.067 . S
O136 C134 1.270 . S
C137 O130 1.262 . S
C137 O138 1.232 . S
O138 C137 1.232 . S
C139 O131 1.260 . S
C139 O132 1.257 . S
Zn140 O143 2.031 . S
Zn140 O145 2.049 . S
Zn140 O150 2.067 . S
Zn141 O142 1.962 . S
Zn141 O144 1.986 . S
Zn141 O146 1.996 . S
Zn141 O149 1.943 . S
O142 Zn141 1.962 . S
O142 C147 1.254 . S
O143 Zn140 2.031 . S
O143 C147 1.269 . S
O144 Zn141 1.986 . S
O144 C151 1.262 . S
O145 Zn140 2.049 . S
O145 C153 1.260 . S
O146 Zn141 1.996 . S
O146 C153 1.257 . S
C147 O142 1.254 . S
C147 O143 1.269 . S
C148 O149 1.249 . S
C148 O150 1.270 . S
O149 Zn141 1.943 . S
O149 C148 1.249 . S
O150 Zn140 2.067 . S
O150 C148 1.270 . S
C151 O144 1.262 . S
C151 O152 1.232 . S
O152 C151 1.232 . S
C153 O145 1.260 . S
C153 O146 1.257 . S
Zn154 O157 2.031 . S
Zn154 O159 2.049 . S
Zn154 O164 2.067 . S
Zn155 O156 1.962 . S
Zn155 O158 1.986 . S
Zn155 O160 1.996 . S
Zn155 O163 1.943 . S
O156 Zn155 1.962 . S
O156 C161 1.254 . S
O157 Zn154 2.031 . S
O157 C161 1.269 . S
O158 Zn155 1.986 . S
O158 C165 1.262 . S
O159 Zn154 2.049 . S
O159 C167 1.260 . S
O160 Zn155 1.996 . S
O160 C167 1.257 . S
C161 O156 1.254 . S
C161 O157 1.269 . S
C162 O163 1.249 . S
C162 O164 1.270 . S
O163 Zn155 1.943 . S
O163 C162 1.249 . S
O164 Zn154 2.067 . S
O164 C162 1.270 . S
C165 O158 1.262 . S
C165 O166 1.232 . S
O166 C165 1.232 . S
C167 O159 1.260 . S
C167 O160 1.257 . S
Zn168 O171 2.031 . S
Zn168 O173 2.049 . S
Zn168 O178 2.067 . S
Zn169 O170 1.962 . S
Zn169 O172 1.986 . S
Zn169 O174 1.996 . S
Zn169 O177 1.943 . S
O170 Zn169 1.962 . S
O170 C175 1.254 . S
O171 Zn168 2.031 . S
O171 C175 1.269 . S
O172 Zn169 1.986 . S
O172 C179 1.262 . S
O173 Zn168 2.049 . S
O173 C181 1.260 . S
O174 Zn169 1.996 . S
O174 C181 1.257 . S
C175 O170 1.254 . S
C175 O171 1.269 . S
C176 O177 1.249 . S
C176 O178 1.270 . S
O177 Zn169 1.943 . S
O177 C176 1.249 . S
O178 Zn168 2.067 . S
O178 C176 1.270 . S
C179 O172 1.262 . S
C179 O180 1.232 . S
O180 C179 1.232 . S
C181 O173 1.260 . S
C181 O174 1.257 . S
Zn182 O185 2.031 . S
Zn182 O187 2.049 . S
Zn182 O192 2.067 . S
Zn183 O184 1.962 . S
Zn183 O186 1.986 . S
Zn183 O188 1.996 . S
Zn183 O191 1.943 . S
O184 Zn183 1.962 . S
O184 C189 1.254 . S
O185 Zn182 2.031 . S
O185 C189 1.269 . S
O186 Zn183 1.986 . S
O186 C193 1.262 . S
O187 Zn182 2.049 . S
O187 C195 1.260 . S
O188 Zn183 1.996 . S
O188 C195 1.257 . S
C189 O184 1.254 . S
C189 O185 1.269 . S
C190 O191 1.249 . S
C190 O192 1.270 . S
O191 Zn183 1.943 . S
O191 C190 1.249 . S
O192 Zn182 2.067 . S
O192 C190 1.270 . S
C193 O186 1.262 . S
C193 O194 1.232 . S
O194 C193 1.232 . S
C195 O187 1.260 . S
C195 O188 1.257 . S
Zn196 O199 2.031 . S
Zn196 O201 2.049 . S
Zn196 O206 2.067 . S
Zn197 O198 1.962 . S
Zn197 O200 1.986 . S
Zn197 O202 1.996 . S
Zn197 O205 1.943 . S
O198 Zn197 1.962 . S
O198 C203 1.254 . S
O199 Zn196 2.031 . S
O199 C203 1.269 . S
O200 Zn197 1.986 . S
O200 C207 1.262 . S
O201 Zn196 2.049 . S
O201 C209 1.260 . S
O202 Zn197 1.996 . S
O202 C209 1.257 . S
C203 O198 1.254 . S
C203 O199 1.269 . S
C204 O205 1.249 . S
C204 O206 1.270 . S
O205 Zn197 1.943 . S
O205 C204 1.249 . S
O206 Zn196 2.067 . S
O206 C204 1.270 . S
C207 O200 1.262 . S
C207 O208 1.232 . S
O208 C207 1.232 . S
C209 O201 1.260 . S
C209 O202 1.257 . S
Zn210 O213 2.031 . S
Zn210 O215 2.049 . S
Zn210 O220 2.067 . S
Zn211 O212 1.962 . S
Zn211 O214 1.986 . S
Zn211 O216 1.996 . S
Zn211 O219 1.943 . S
O212 Zn211 1.962 . S
O212 C217 1.254 . S
O213 Zn210 2.031 . S
O213 C217 1.269 . S
O214 Zn211 1.986 . S
O214 C221 1.262 . S
O215 Zn210 2.049 . S
O215 C223 1.260 . S
O216 Zn211 1.996 . S
O216 C223 1.257 . S
C217 O212 1.254 . S
C217 O213 1.269 . S
C218 O219 1.249 . S
C218 O220 1.270 . S
O219 Zn211 1.943 . S
O219 C218 1.249 . S
O220 Zn210 2.067 . S
O220 C218 1.270 . S
C221 O214 1.262 . S
C221 O222 1.232 . S
O222 C221 1.232 . S
C223 O215 1.260 . S
C223 O216 1.257 . S
Zn224 O227 2.031 . S
Zn224 O229 2.049 . S
Zn224 O234 2.067 . S
Zn225 O226 1.962 . S
Zn225 O228 1.986 . S
Zn225 O230 1.996 . S
Zn225 O233 1.943 . S
O226 Zn225 1.962 . S
O226 C231 1.254 . S
O227 Zn224 2.031 . S
O227 C231 1.269 . S
O228 Zn225 1.986 . S
O228 C235 1.262 . S
O229 Zn224 2.049 . S
O229 C237 1.260 . S
O230 Zn225 1.996 . S
O230 C237 1.257 . S
C231 O226 1.254 . S
C231 O227 1.269 . S
C232 O233 1.249 . S
C232 O234 1.270 . S
O233 Zn225 1.943 . S
O233 C232 1.249 . S
O234 Zn224 2.067 . S
O234 C232 1.270 . S
C235 O228 1.262 . S
C235 O236 1.232 . S
O236 C235 1.232 . S
C237 O229 1.260 . S
C237 O230 1.257 . S
Zn238 O241 2.031 . S
Zn238 O243 2.049 . S
Zn238 O248 2.067 . S
Zn239 O240 1.962 . S
Zn239 O242 1.986 . S
Zn239 O244 1.996 . S
Zn239 O247 1.943 . S
O240 Zn239 1.962 . S
O240 C245 1.254 . S
O241 Zn238 2.031 . S
O241 C245 1.269 . S
O242 Zn239 1.986 . S
O242 C249 1.262 . S
O243 Zn238 2.049 . S
O243 C251 1.260 . S
O244 Zn239 1.996 . S
O244 C251 1.257 . S
C245 O240 1.254 . S
C245 O241 1.269 . S
C246 O247 1.249 . S
C246 O248 1.270 . S
O247 Zn239 1.943 . S
O247 C246 1.249 . S
O248 Zn238 2.067 . S
O248 C246 1.270 . S
C249 O242 1.262 . S
C249 O250 1.232 . S
O250 C249 1.232 . S
C251 O243 1.260 . S
C251 O244 1.257 . S
Zn252 O255 2.031 . S
Zn252 O257 2.049 . S
Zn252 O262 2.067 . S
Zn253 O254 1.962 . S
Zn253 O256 1.986 . S
Zn253 O258 1.996 . S
Zn253 O261 1.943 . S
O254 Zn253 1.962 . S
O254 C259 1.254 . S
O255 Zn252 2.031 . S
O255 C259 1.269 . S
O256 Zn253 1.986 . S
O256 C263 1.262 . S
O257 Zn252 2.049 . S
O257 C265 1.260 . S
O258 Zn253 1.996 . S
O258 C265 1.257 . S
C259 O254 1.254 . S
C259 O255 1.269 . S
C260 O261 1.249 . S
C260 O262 1.270 . S
O261 Zn253 1.943 . S
O261 C260 1.249 . S
O262 Zn252 2.067 . S
O262 C260 1.270 . S
C263 O256 1.262 . S
C263 O264 1.232 . S
O264 C263 1.232 . S
C265 O257 1.260 . S
C265 O258 1.257 . S
Zn266 O269 2.031 . S
Zn266 O271 2.049 . S
Zn266 O276 2.067 . S
Zn267 O268 1.962 . S
Zn267 O270 1.986 . S
Zn267 O272 1.996 . S
Zn267 O275 1.943 . S
O268 Zn267 1.962 . S
O268 C273 1.254 . S
O269 Zn266 2.031 . S
O269 C273 1.269 . S
O270 Zn267 1.986 . S
O270 C277 1.262 . S
O271 Zn266 2.049 . S
O271 C279 1.260 . S
O272 Zn267 1.996 . S
O272 C279 1.257 . S
C273 O268 1.254 . S
C273 O269 1.269 . S
C274 O275 1.249 . S
C274 O276 1.270 . S
O275 Zn267 1.943 . S
O275 C274 1.249 . S
O276 Zn266 2.067 . S
O276 C274 1.270 . S
C277 O270 1.262 . S
C277 O278 1.232 . S
O278 C277 1.232 . S
C279 O271 1.260 . S
C279 O272 1.257 . S
Zn280 O283 2.031 . S
Zn280 O285 2.049 . S
Zn280 O290 2.067 . S
Zn281 O282 1.962 . S
Zn281 O284 1.986 . S
Zn281 O286 1.996 . S
Zn281 O289 1.943 . S
O282 Zn281 1.962 . S
O282 C287 1.254 . S
O283 Zn280 2.031 . S
O283 C287 1.269 . S
O284 Zn281 1.986 . S
O284 C291 1.262 . S
O285 Zn280 2.049 . S
O285 C293 1.260 . S
O286 Zn281 1.996 . S
O286 C293 1.257 . S
C287 O282 1.254 . S
C287 O283 1.269 . S
C288 O289 1.249 . S
C288 O290 1.270 . S
O289 Zn281 1.943 . S
O289 C288 1.249 . S
O290 Zn280 2.067 . S
O290 C288 1.270 . S
C291 O284 1.262 . S
C291 O292 1.232 . S
O292 C291 1.232 . S
C293 O285 1.260 . S
C293 O286 1.257 . S
Zn294 O297 2.031 . S
Zn294 O299 2.049 . S
Zn294 O304 2.067 . S
Zn295 O296 1.962 . S
Zn295 O298 1.986 . S
Zn295 O300 1.996 . S
Zn295 O303 1.943 . S
O296 Zn295 1.962 . S
O296 C301 1.254 . S
O297 Zn294 2.031 . S
O297 C301 1.269 . S
O298 Zn295 1.986 . S
O298 C305 1.262 . S
O299 Zn294 2.049 . S
O299 C307 1.260 . S
O300 Zn295 1.996 . S
O300 C307 1.257 . S
C301 O296 1.254 . S
C301 O297 1.269 . S
C302 O303 1.249 . S
C302 O304 1.270 . S
O303 Zn295 1.943 . S
O303 C302 1.249 . S
O304 Zn294 2.067 . S
O304 C302 1.270 . S
C305 O298 1.262 . S
C305 O306 1.232 . S
O306 C305 1.232 . S
C307 O299 1.260 . S
C307 O300 1.257 . S
Zn308 O311 2.031 . S
Zn308 O313 2.049 . S
Zn308 O318 2.067 . S
Zn309 O310 1.962 . S
Zn309 O312 1.986 . S
Zn309 O314 1.996 . S
Zn309 O317 1.943 . S
O310 Zn309 1.962 . S
O310 C315 1.254 . S
O311 Zn308 2.031 . S
O311 C315 1.269 . S
O312 Zn309 1.986 . S
O312 C319 1.262 . S
O313 Zn308 2.049 . S
O313 C321 1.260 . S
O314 Zn309 1.996 . S
O314 C321 1.257 . S
C315 O310 1.254 . S
C315 O311 1.269 . S
C316 O317 1.249 . S
C316 O318 1.270 . S
O317 Zn309 1.943 . S
O317 C316 1.249 . S
O318 Zn308 2.067 . S
O318 C316 1.270 . S
C319 O312 1.262 . S
C319 O320 1.232 . S
O320 C319 1.232 . S
C321 O313 1.260 . S
C321 O314 1.257 . S
Zn322 O325 2.031 . S
Zn322 O327 2.049 . S
Zn322 O332 2.067 . S
Zn323 O324 1.962 . S
Zn323 O326 1.986 . S
Zn323 O328 1.996 . S
Zn323 O331 1.943 . S
O324 Zn323 1.962 . S
O324 C329 1.254 . S
O325 Zn322 2.031 . S
O325 C329 1.269 . S
O326 Zn323 1.986 . S
O326 C333 1.262 . S
O327 Zn322 2.049 . S
O327 C335 1.260 . S
O328 Zn323 1.996 . S
O328 C335 1.257 . S
C329 O324 1.254 . S
C329 O325 1.269 . S
C330 O331 1.249 . S
C330 O332 1.270 . S
O331 Zn323 1.943 . S
O331 C330 1.249 . S
O332 Zn322 2.067 . S
O332 C330 1.270 . S
C333 O326 1.262 . S
C333 O334 1.232 . S
O334 C333 1.232 . S
C335 O327 1.260 . S
C335 O328 1.257 . S
H336 C354 0.951 . S
H337 C356 0.951 . S
H338 C358 0.950 . S
H339 C359 0.950 . S
H340 C361 0.950 . S
H341 C364 0.950 . S
H342 C365 0.950 . S
H343 C367 0.950 . S
H344 C368 0.950 . S
H345 C369 0.951 . S
H346 C371 0.951 . S
H347 C373 0.950 . S
H348 C374 0.950 . S
H349 C376 0.950 . S
H350 C379 0.950 . S
H351 C380 0.950 . S
H352 C382 0.950 . S
H353 C383 0.950 . S
C354 H336 0.951 . S
C354 C355 1.366 . S
C354 C356 1.388 . S
C355 C354 1.366 . S
C355 C359 1.385 . S
C356 H337 0.951 . S
C356 C354 1.388 . S
C356 C357 1.366 . S
C357 C356 1.366 . S
C357 C358 1.414 . S
C357 C360 1.499 . S
C358 H338 0.950 . S
C358 C357 1.414 . S
C358 C359 1.374 . S
C359 H339 0.950 . S
C359 C355 1.385 . S
C359 C358 1.374 . S
C360 C357 1.499 . S
C360 C361 1.373 . S
C360 C362 1.389 . S
C361 H340 0.950 . S
C361 C360 1.373 . S
C361 C377 1.377 . S
C362 C360 1.389 . S
C362 C363 1.524 . S
C362 C376 1.377 . S
C363 C362 1.524 . S
C363 C364 1.397 . S
C363 C368 1.363 . S
C364 H341 0.950 . S
C364 C363 1.397 . S
C364 C365 1.334 . S
C365 H342 0.950 . S
C365 C364 1.334 . S
C365 C366 1.287 . S
C366 C365 1.287 . S
C366 C367 1.524 . S
C366 H385 0.913 . S
C367 H343 0.950 . S
C367 C366 1.524 . S
C367 C368 1.415 . S
C368 H344 0.950 . S
C368 C363 1.363 . S
C368 C367 1.415 . S
C369 H345 0.951 . S
C369 C370 1.366 . S
C369 C371 1.388 . S
C370 C369 1.366 . S
C370 C374 1.385 . S
C371 H346 0.951 . S
C371 C369 1.388 . S
C371 C372 1.366 . S
C372 C371 1.366 . S
C372 C373 1.414 . S
C372 C375 1.499 . S
C373 H347 0.950 . S
C373 C372 1.414 . S
C373 C374 1.374 . S
C374 H348 0.950 . S
C374 C370 1.385 . S
C374 C373 1.374 . S
C375 C372 1.499 . S
C375 C376 1.373 . S
C375 C377 1.389 . S
C376 H349 0.950 . S
C376 C362 1.377 . S
C376 C375 1.373 . S
C377 C361 1.377 . S
C377 C375 1.389 . S
C377 C378 1.524 . S
C378 C377 1.524 . S
C378 C379 1.397 . S
C378 C383 1.363 . S
C379 H350 0.950 . S
C379 C378 1.397 . S
C379 C380 1.334 . S
C380 H351 0.950 . S
C380 C379 1.334 . S
C380 C381 1.287 . S
C381 C380 1.287 . S
C381 C382 1.524 . S
C381 H384 0.999 . S
C382 H352 0.950 . S
C382 C381 1.524 . S
C382 C383 1.415 . S
C383 H353 0.950 . S
C383 C378 1.363 . S
C383 C382 1.415 . S
H384 C381 0.999 . S
H385 C366 0.913 . S
H386 C404 0.951 . S
H387 C406 0.951 . S
H388 C408 0.950 . S
H389 C409 0.950 . S
H390 C411 0.950 . S
H391 C414 0.950 . S
H392 C415 0.950 . S
H393 C417 0.950 . S
H394 C418 0.950 . S
H395 C419 0.951 . S
H396 C421 0.951 . S
H397 C423 0.950 . S
H398 C424 0.950 . S
H399 C426 0.950 . S
H400 C429 0.950 . S
H401 C430 0.950 . S
H402 C432 0.950 . S
H403 C433 0.950 . S
C404 H386 0.951 . S
C404 C405 1.366 . S
C404 C406 1.388 . S
C405 C404 1.366 . S
C405 C409 1.385 . S
C406 H387 0.951 . S
C406 C404 1.388 . S
C406 C407 1.366 . S
C407 C406 1.366 . S
C407 C408 1.414 . S
C407 C410 1.499 . S
C408 H388 0.950 . S
C408 C407 1.414 . S
C408 C409 1.374 . S
C409 H389 0.950 . S
C409 C405 1.385 . S
C409 C408 1.374 . S
C410 C407 1.499 . S
C410 C411 1.373 . S
C410 C412 1.389 . S
C411 H390 0.950 . S
C411 C410 1.373 . S
C411 C427 1.377 . S
C412 C410 1.389 . S
C412 C413 1.524 . S
C412 C426 1.377 . S
C413 C412 1.524 . S
C413 C414 1.397 . S
C413 C418 1.363 . S
C414 H391 0.950 . S
C414 C413 1.397 . S
C414 C415 1.334 . S
C415 H392 0.950 . S
C415 C414 1.334 . S
C415 C416 1.287 . S
C416 C415 1.287 . S
C416 C417 1.524 . S
C416 H435 0.913 . S
C417 H393 0.950 . S
C417 C416 1.524 . S
C417 C418 1.415 . S
C418 H394 0.950 . S
C418 C413 1.363 . S
C418 C417 1.415 . S
C419 H395 0.951 . S
C419 C420 1.366 . S
C419 C421 1.388 . S
C420 C419 1.366 . S
C420 C424 1.385 . S
C421 H396 0.951 . S
C421 C419 1.388 . S
C421 C422 1.366 . S
C422 C421 1.366 . S
C422 C423 1.414 . S
C422 C425 1.499 . S
C423 H397 0.950 . S
C423 C422 1.414 . S
C423 C424 1.374 . S
C424 H398 0.950 . S
C424 C420 1.385 . S
C424 C423 1.374 . S
C425 C422 1.499 . S
C425 C426 1.373 . S
C425 C427 1.389 . S
C426 H399 0.950 . S
C426 C412 1.377 . S
C426 C425 1.373 . S
C427 C411 1.377 . S
C427 C425 1.389 . S
C427 C428 1.524 . S
C428 C427 1.524 . S
C428 C429 1.397 . S
C428 C433 1.363 . S
C429 H400 0.950 . S
C429 C428 1.397 . S
C429 C430 1.334 . S
C430 H401 0.950 . S
C430 C429 1.334 . S
C430 C431 1.287 . S
C431 C430 1.287 . S
C431 C432 1.524 . S
C431 H434 0.999 . S
C432 H402 0.950 . S
C432 C431 1.524 . S
C432 C433 1.415 . S
C433 H403 0.950 . S
C433 C428 1.363 . S
C433 C432 1.415 . S
H434 C431 0.999 . S
H435 C416 0.913 . S
H436 C454 0.951 . S
H437 C456 0.951 . S
H438 C458 0.950 . S
H439 C459 0.950 . S
H440 C461 0.950 . S
H441 C464 0.950 . S
H442 C465 0.950 . S
H443 C467 0.950 . S
H444 C468 0.950 . S
H445 C469 0.951 . S
H446 C471 0.951 . S
H447 C473 0.950 . S
H448 C474 0.950 . S
H449 C476 0.950 . S
H450 C479 0.950 . S
H451 C480 0.950 . S
H452 C482 0.950 . S
H453 C483 0.950 . S
C454 H436 0.951 . S
C454 C455 1.366 . S
C454 C456 1.388 . S
C455 C454 1.366 . S
C455 C459 1.385 . S
C456 H437 0.951 . S
C456 C454 1.388 . S
C456 C457 1.366 . S
C457 C456 1.366 . S
C457 C458 1.414 . S
C457 C460 1.499 . S
C458 H438 0.950 . S
C458 C457 1.414 . S
C458 C459 1.374 . S
C459 H439 0.950 . S
C459 C455 1.385 . S
C459 C458 1.374 . S
C460 C457 1.499 . S
C460 C461 1.373 . S
C460 C462 1.389 . S
C461 H440 0.950 . S
C461 C460 1.373 . S
C461 C477 1.377 . S
C462 C460 1.389 . S
C462 C463 1.524 . S
C462 C476 1.377 . S
C463 C462 1.524 . S
C463 C464 1.397 . S
C463 C468 1.363 . S
C464 H441 0.950 . S
C464 C463 1.397 . S
C464 C465 1.334 . S
C465 H442 0.950 . S
C465 C464 1.334 . S
C465 C466 1.287 . S
C466 C465 1.287 . S
C466 C467 1.524 . S
C466 H485 0.913 . S
C467 H443 0.950 . S
C467 C466 1.524 . S
C467 C468 1.415 . S
C468 H444 0.950 . S
C468 C463 1.363 . S
C468 C467 1.415 . S
C469 H445 0.951 . S
C469 C470 1.366 . S
C469 C471 1.388 . S
C470 C469 1.366 . S
C470 C474 1.385 . S
C471 H446 0.951 . S
C471 C469 1.388 . S
C471 C472 1.366 . S
C472 C471 1.366 . S
C472 C473 1.414 . S
C472 C475 1.499 . S
C473 H447 0.950 . S
C473 C472 1.414 . S
C473 C474 1.374 . S
C474 H448 0.950 . S
C474 C470 1.385 . S
C474 C473 1.374 . S
C475 C472 1.499 . S
C475 C476 1.373 . S
C475 C477 1.389 . S
C476 H449 0.950 . S
C476 C462 1.377 . S
C476 C475 1.373 . S
C477 C461 1.377 . S
C477 C475 1.389 . S
C477 C478 1.524 . S
C478 C477 1.524 . S
C478 C479 1.397 . S
C478 C483 1.363 . S
C479 H450 0.950 . S
C479 C478 1.397 . S
C479 C480 1.334 . S
C480 H451 0.950 . S
C480 C479 1.334 . S
C480 C481 1.287 . S
C481 C480 1.287 . S
C481 C482 1.524 . S
C481 H484 0.999 . S
C482 H452 0.950 . S
C482 C481 1.524 . S
C482 C483 1.415 . S
C483 H453 0.950 . S
C483 C478 1.363 . S
C483 C482 1.415 . S
H484 C481 0.999 . S
H485 C466 0.913 . S
H486 C504 0.951 . S
H487 C506 0.951 . S
H488 C508 0.950 . S
H489 C509 0.950 . S
H490 C511 0.950 . S
H491 C514 0.950 . S
H492 C515 0.950 . S
H493 C517 0.950 . S
H494 C518 0.950 . S
H495 C519 0.951 . S
H496 C521 0.951 . S
H497 C523 0.950 . S
H498 C524 0.950 . S
H499 C526 0.950 . S
H500 C529 0.950 . S
H501 C530 0.950 . S
H502 C532 0.950 . S
H503 C533 0.950 . S
C504 H486 0.951 . S
C504 C505 1.366 . S
C504 C506 1.388 . S
C505 C504 1.366 . S
C505 C509 1.385 . S
C506 H487 0.951 . S
C506 C504 1.388 . S
C506 C507 1.366 . S
C507 C506 1.366 . S
C507 C508 1.414 . S
C507 C510 1.499 . S
C508 H488 0.950 . S
C508 C507 1.414 . S
C508 C509 1.374 . S
C509 H489 0.950 . S
C509 C505 1.385 . S
C509 C508 1.374 . S
C510 C507 1.499 . S
C510 C511 1.373 . S
C510 C512 1.389 . S
C511 H490 0.950 . S
C511 C510 1.373 . S
C511 C527 1.377 . S
C512 C510 1.389 . S
C512 C513 1.524 . S
C512 C526 1.377 . S
C513 C512 1.524 . S
C513 C514 1.397 . S
C513 C518 1.363 . S
C514 H491 0.950 . S
C514 C513 1.397 . S
C514 C515 1.334 . S
C515 H492 0.950 . S
C515 C514 1.334 . S
C515 C516 1.287 . S
C516 C515 1.287 . S
C516 C517 1.524 . S
C516 H535 0.913 . S
C517 H493 0.950 . S
C517 C516 1.524 . S
C517 C518 1.415 . S
C518 H494 0.950 . S
C518 C513 1.363 . S
C518 C517 1.415 . S
C519 H495 0.951 . S
C519 C520 1.366 . S
C519 C521 1.388 . S
C520 C519 1.366 . S
C520 C524 1.385 . S
C521 H496 0.951 . S
C521 C519 1.388 . S
C521 C522 1.366 . S
C522 C521 1.366 . S
C522 C523 1.414 . S
C522 C525 1.499 . S
C523 H497 0.950 . S
C523 C522 1.414 . S
C523 C524 1.374 . S
C524 H498 0.950 . S
C524 C520 1.385 . S
C524 C523 1.374 . S
C525 C522 1.499 . S
C525 C526 1.373 . S
C525 C527 1.389 . S
C526 H499 0.950 . S
C526 C512 1.377 . S
C526 C525 1.373 . S
C527 C511 1.377 . S
C527 C525 1.389 . S
C527 C528 1.524 . S
C528 C527 1.524 . S
C528 C529 1.397 . S
C528 C533 1.363 . S
C529 H500 0.950 . S
C529 C528 1.397 . S
C529 C530 1.334 . S
C530 H501 0.950 . S
C530 C529 1.334 . S
C530 C531 1.287 . S
C531 C530 1.287 . S
C531 C532 1.524 . S
C531 H534 0.999 . S
C532 H502 0.950 . S
C532 C531 1.524 . S
C532 C533 1.415 . S
C533 H503 0.950 . S
C533 C528 1.363 . S
C533 C532 1.415 . S
H534 C531 0.999 . S
H535 C516 0.913 . S
H536 C554 0.951 . S
H537 C556 0.951 . S
H538 C558 0.950 . S
H539 C559 0.950 . S
H540 C561 0.950 . S
H541 C564 0.950 . S
H542 C565 0.950 . S
H543 C567 0.950 . S
H544 C568 0.950 . S
H545 C569 0.951 . S
H546 C571 0.951 . S
H547 C573 0.950 . S
H548 C574 0.950 . S
H549 C576 0.950 . S
H550 C579 0.950 . S
H551 C580 0.950 . S
H552 C582 0.950 . S
H553 C583 0.950 . S
C554 H536 0.951 . S
C554 C555 1.366 . S
C554 C556 1.388 . S
C555 C554 1.366 . S
C555 C559 1.385 . S
C556 H537 0.951 . S
C556 C554 1.388 . S
C556 C557 1.366 . S
C557 C556 1.366 . S
C557 C558 1.414 . S
C557 C560 1.499 . S
C558 H538 0.950 . S
C558 C557 1.414 . S
C558 C559 1.374 . S
C559 H539 0.950 . S
C559 C555 1.385 . S
C559 C558 1.374 . S
C560 C557 1.499 . S
C560 C561 1.373 . S
C560 C562 1.389 . S
C561 H540 0.950 . S
C561 C560 1.373 . S
C561 C577 1.377 . S
C562 C560 1.389 . S
C562 C563 1.524 . S
C562 C576 1.377 . S
C563 C562 1.524 . S
C563 C564 1.397 . S
C563 C568 1.363 . S
C564 H541 0.950 . S
C564 C563 1.397 . S
C564 C565 1.334 . S
C565 H542 0.950 . S
C565 C564 1.334 . S
C565 C566 1.287 . S
C566 C565 1.287 . S
C566 C567 1.524 . S
C566 H585 0.913 . S
C567 H543 0.950 . S
C567 C566 1.524 . S
C567 C568 1.415 . S
C568 H544 0.950 . S
C568 C563 1.363 . S
C568 C567 1.415 . S
C569 H545 0.951 . S
C569 C570 1.366 . S
C569 C571 1.388 . S
C570 C569 1.366 . S
C570 C574 1.385 . S
C571 H546 0.951 . S
C571 C569 1.388 . S
C571 C572 1.366 . S
C572 C571 1.366 . S
C572 C573 1.414 . S
C572 C575 1.499 . S
C573 H547 0.950 . S
C573 C572 1.414 . S
C573 C574 1.374 . S
C574 H548 0.950 . S
C574 C570 1.385 . S
C574 C573 1.374 . S
C575 C572 1.499 . S
C575 C576 1.373 . S
C575 C577 1.389 . S
C576 H549 0.950 . S
C576 C562 1.377 . S
C576 C575 1.373 . S
C577 C561 1.377 . S
C577 C575 1.389 . S
C577 C578 1.524 . S
C578 C577 1.524 . S
C578 C579 1.397 . S
C578 C583 1.363 . S
C579 H550 0.950 . S
C579 C578 1.397 . S
C579 C580 1.334 . S
C580 H551 0.950 . S
C580 C579 1.334 . S
C580 C581 1.287 . S
C581 C580 1.287 . S
C581 C582 1.524 . S
C581 H584 0.999 . S
C582 H552 0.950 . S
C582 C581 1.524 . S
C582 C583 1.415 . S
C583 H553 0.950 . S
C583 C578 1.363 . S
C583 C582 1.415 . S
H584 C581 0.999 . S
H585 C566 0.913 . S
H586 C604 0.951 . S
H587 C606 0.951 . S
H588 C608 0.950 . S
H589 C609 0.950 . S
H590 C611 0.950 . S
H591 C614 0.950 . S
H592 C615 0.950 . S
H593 C617 0.950 . S
H594 C618 0.950 . S
H595 C619 0.951 . S
H596 C621 0.951 . S
H597 C623 0.950 . S
H598 C624 0.950 . S
H599 C626 0.950 . S
H600 C629 0.950 . S
H601 C630 0.950 . S
H602 C632 0.950 . S
H603 C633 0.950 . S
C604 H586 0.951 . S
C604 C605 1.366 . S
C604 C606 1.388 . S
C605 C604 1.366 . S
C605 C609 1.385 . S
C606 H587 0.951 . S
C606 C604 1.388 . S
C606 C607 1.366 . S
C607 C606 1.366 . S
C607 C608 1.414 . S
C607 C610 1.499 . S
C608 H588 0.950 . S
C608 C607 1.414 . S
C608 C609 1.374 . S
C609 H589 0.950 . S
C609 C605 1.385 . S
C609 C608 1.374 . S
C610 C607 1.499 . S
C610 C611 1.373 . S
C610 C612 1.389 . S
C611 H590 0.950 . S
C611 C610 1.373 . S
C611 C627 1.377 . S
C612 C610 1.389 . S
C612 C613 1.524 . S
C612 C626 1.377 . S
C613 C612 1.524 . S
C613 C614 1.397 . S
C613 C618 1.363 . S
C614 H591 0.950 . S
C614 C613 1.397 . S
C614 C615 1.334 . S
C615 H592 0.950 . S
C615 C614 1.334 . S
C615 C616 1.287 . S
C616 C615 1.287 . S
C616 C617 1.524 . S
C616 H635 0.913 . S
C617 H593 0.950 . S
C617 C616 1.524 . S
C617 C618 1.415 . S
C618 H594 0.950 . S
C618 C613 1.363 . S
C618 C617 1.415 . S
C619 H595 0.951 . S
C619 C620 1.366 . S
C619 C621 1.388 . S
C620 C619 1.366 . S
C620 C624 1.385 . S
C621 H596 0.951 . S
C621 C619 1.388 . S
C621 C622 1.366 . S
C622 C621 1.366 . S
C622 C623 1.414 . S
C622 C625 1.499 . S
C623 H597 0.950 . S
C623 C622 1.414 . S
C623 C624 1.374 . S
C624 H598 0.950 . S
C624 C620 1.385 . S
C624 C623 1.374 . S
C625 C622 1.499 . S
C625 C626 1.373 . S
C625 C627 1.389 . S
C626 H599 0.950 . S
C626 C612 1.377 . S
C626 C625 1.373 . S
C627 C611 1.377 . S
C627 C625 1.389 . S
C627 C628 1.524 . S
C628 C627 1.524 . S
C628 C629 1.397 . S
C628 C633 1.363 . S
C629 H600 0.950 . S
C629 C628 1.397 . S
C629 C630 1.334 . S
C630 H601 0.950 . S
C630 C629 1.334 . S
C630 C631 1.287 . S
C631 C630 1.287 . S
C631 C632 1.524 . S
C631 H634 0.999 . S
C632 H602 0.950 . S
C632 C631 1.524 . S
C632 C633 1.415 . S
C633 H603 0.950 . S
C633 C628 1.363 . S
C633 C632 1.415 . S
H634 C631 0.999 . S
H635 C616 0.913 . S
H636 C654 0.951 . S
H637 C656 0.951 . S
H638 C658 0.950 . S
H639 C659 0.950 . S
H640 C661 0.950 . S
H641 C664 0.950 . S
H642 C665 0.950 . S
H643 C667 0.950 . S
H644 C668 0.950 . S
H645 C669 0.951 . S
H646 C671 0.951 . S
H647 C673 0.950 . S
H648 C674 0.950 . S
H649 C676 0.950 . S
H650 C679 0.950 . S
H651 C680 0.950 . S
H652 C682 0.950 . S
H653 C683 0.950 . S
C654 H636 0.951 . S
C654 C655 1.366 . S
C654 C656 1.388 . S
C655 C654 1.366 . S
C655 C659 1.385 . S
C656 H637 0.951 . S
C656 C654 1.388 . S
C656 C657 1.366 . S
C657 C656 1.366 . S
C657 C658 1.414 . S
C657 C660 1.499 . S
C658 H638 0.950 . S
C658 C657 1.414 . S
C658 C659 1.374 . S
C659 H639 0.950 . S
C659 C655 1.385 . S
C659 C658 1.374 . S
C660 C657 1.499 . S
C660 C661 1.373 . S
C660 C662 1.389 . S
C661 H640 0.950 . S
C661 C660 1.373 . S
C661 C677 1.377 . S
C662 C660 1.389 . S
C662 C663 1.524 . S
C662 C676 1.377 . S
C663 C662 1.524 . S
C663 C664 1.397 . S
C663 C668 1.363 . S
C664 H641 0.950 . S
C664 C663 1.397 . S
C664 C665 1.334 . S
C665 H642 0.950 . S
C665 C664 1.334 . S
C665 C666 1.287 . S
C666 C665 1.287 . S
C666 C667 1.524 . S
C666 H685 0.913 . S
C667 H643 0.950 . S
C667 C666 1.524 . S
C667 C668 1.415 . S
C668 H644 0.950 . S
C668 C663 1.363 . S
C668 C667 1.415 . S
C669 H645 0.951 . S
C669 C670 1.366 . S
C669 C671 1.388 . S
C670 C669 1.366 . S
C670 C674 1.385 . S
C671 H646 0.951 . S
C671 C669 1.388 . S
C671 C672 1.366 . S
C672 C671 1.366 . S
C672 C673 1.414 . S
C672 C675 1.499 . S
C673 H647 0.950 . S
C673 C672 1.414 . S
C673 C674 1.374 . S
C674 H648 0.950 . S
C674 C670 1.385 . S
C674 C673 1.374 . S
C675 C672 1.499 . S
C675 C676 1.373 . S
C675 C677 1.389 . S
C676 H649 0.950 . S
C676 C662 1.377 . S
C676 C675 1.373 . S
C677 C661 1.377 . S
C677 C675 1.389 . S
C677 C678 1.524 . S
C678 C677 1.524 . S
C678 C679 1.397 . S
C678 C683 1.363 . S
C679 H650 0.950 . S
C679 C678 1.397 . S
C679 C680 1.334 . S
C680 H651 0.950 . S
C680 C679 1.334 . S
C680 C681 1.287 . S
C681 C680 1.287 . S
C681 C682 1.524 . S
C681 H684 0.999 . S
C682 H652 0.950 . S
C682 C681 1.524 . S
C682 C683 1.415 . S
C683 H653 0.950 . S
C683 C678 1.363 . S
C683 C682 1.415 . S
H684 C681 0.999 . S
H685 C666 0.913 . S
H686 C704 0.951 . S
H687 C706 0.951 . S
H688 C708 0.950 . S
H689 C709 0.950 . S
H690 C711 0.950 . S
H691 C714 0.950 . S
H692 C715 0.950 . S
H693 C717 0.950 . S
H694 C718 0.950 . S
H695 C719 0.951 . S
H696 C721 0.951 . S
H697 C723 0.950 . S
H698 C724 0.950 . S
H699 C726 0.950 . S
H700 C729 0.950 . S
H701 C730 0.950 . S
H702 C732 0.950 . S
H703 C733 0.950 . S
C704 H686 0.951 . S
C704 C705 1.366 . S
C704 C706 1.388 . S
C705 C704 1.366 . S
C705 C709 1.385 . S
C706 H687 0.951 . S
C706 C704 1.388 . S
C706 C707 1.366 . S
C707 C706 1.366 . S
C707 C708 1.414 . S
C707 C710 1.499 . S
C708 H688 0.950 . S
C708 C707 1.414 . S
C708 C709 1.374 . S
C709 H689 0.950 . S
C709 C705 1.385 . S
C709 C708 1.374 . S
C710 C707 1.499 . S
C710 C711 1.373 . S
C710 C712 1.389 . S
C711 H690 0.950 . S
C711 C710 1.373 . S
C711 C727 1.377 . S
C712 C710 1.389 . S
C712 C713 1.524 . S
C712 C726 1.377 . S
C713 C712 1.524 . S
C713 C714 1.397 . S
C713 C718 1.363 . S
C714 H691 0.950 . S
C714 C713 1.397 . S
C714 C715 1.334 . S
C715 H692 0.950 . S
C715 C714 1.334 . S
C715 C716 1.287 . S
C716 C715 1.287 . S
C716 C717 1.524 . S
C716 H735 0.913 . S
C717 H693 0.950 . S
C717 C716 1.524 . S
C717 C718 1.415 . S
C718 H694 0.950 . S
C718 C713 1.363 . S
C718 C717 1.415 . S
C719 H695 0.951 . S
C719 C720 1.366 . S
C719 C721 1.388 . S
C720 C719 1.366 . S
C720 C724 1.385 . S
C721 H696 0.951 . S
C721 C719 1.388 . S
C721 C722 1.366 . S
C722 C721 1.366 . S
C722 C723 1.414 . S
C722 C725 1.499 . S
C723 H697 0.950 . S
C723 C722 1.414 . S
C723 C724 1.374 . S
C724 H698 0.950 . S
C724 C720 1.385 . S
C724 C723 1.374 . S
C725 C722 1.499 . S
C725 C726 1.373 . S
C725 C727 1.389 . S
C726 H699 0.950 . S
C726 C712 1.377 . S
C726 C725 1.373 . S
C727 C711 1.377 . S
C727 C725 1.389 . S
C727 C728 1.524 . S
C728 C727 1.524 . S
C728 C729 1.397 . S
C728 C733 1.363 . S
C729 H700 0.950 . S
C729 C728 1.397 . S
C729 C730 1.334 . S
C730 H701 0.950 . S
C730 C729 1.334 . S
C730 C731 1.287 . S
C731 C730 1.287 . S
C731 C732 1.524 . S
C731 H734 0.999 . S
C732 H702 0.950 . S
C732 C731 1.524 . S
C732 C733 1.415 . S
C733 H703 0.950 . S
C733 C728 1.363 . S
C733 C732 1.415 . S
H734 C731 0.999 . S
H735 C716 0.913 . S
H736 C754 0.951 . S
H737 C756 0.951 . S
H738 C758 0.950 . S
H739 C759 0.950 . S
H740 C761 0.950 . S
H741 C764 0.950 . S
H742 C765 0.950 . S
H743 C767 0.950 . S
H744 C768 0.950 . S
H745 C769 0.951 . S
H746 C771 0.951 . S
H747 C773 0.950 . S
H748 C774 0.950 . S
H749 C776 0.950 . S
H750 C779 0.950 . S
H751 C780 0.950 . S
H752 C782 0.950 . S
H753 C783 0.950 . S
C754 H736 0.951 . S
C754 C755 1.366 . S
C754 C756 1.388 . S
C755 C754 1.366 . S
C755 C759 1.385 . S
C756 H737 0.951 . S
C756 C754 1.388 . S
C756 C757 1.366 . S
C757 C756 1.366 . S
C757 C758 1.414 . S
C757 C760 1.499 . S
C758 H738 0.950 . S
C758 C757 1.414 . S
C758 C759 1.374 . S
C759 H739 0.950 . S
C759 C755 1.385 . S
C759 C758 1.374 . S
C760 C757 1.499 . S
C760 C761 1.373 . S
C760 C762 1.389 . S
C761 H740 0.950 . S
C761 C760 1.373 . S
C761 C777 1.377 . S
C762 C760 1.389 . S
C762 C763 1.524 . S
C762 C776 1.377 . S
C763 C762 1.524 . S
C763 C764 1.397 . S
C763 C768 1.363 . S
C764 H741 0.950 . S
C764 C763 1.397 . S
C764 C765 1.334 . S
C765 H742 0.950 . S
C765 C764 1.334 . S
C765 C766 1.287 . S
C766 C765 1.287 . S
C766 C767 1.524 . S
C766 H785 0.913 . S
C767 H743 0.950 . S
C767 C766 1.524 . S
C767 C768 1.415 . S
C768 H744 0.950 . S
C768 C763 1.363 . S
C768 C767 1.415 . S
C769 H745 0.951 . S
C769 C770 1.366 . S
C769 C771 1.388 . S
C770 C769 1.366 . S
C770 C774 1.385 . S
C771 H746 0.951 . S
C771 C769 1.388 . S
C771 C772 1.366 . S
C772 C771 1.366 . S
C772 C773 1.414 . S
C772 C775 1.499 . S
C773 H747 0.950 . S
C773 C772 1.414 . S
C773 C774 1.374 . S
C774 H748 0.950 . S
C774 C770 1.385 . S
C774 C773 1.374 . S
C775 C772 1.499 . S
C775 C776 1.373 . S
C775 C777 1.389 . S
C776 H749 0.950 . S
C776 C762 1.377 . S
C776 C775 1.373 . S
C777 C761 1.377 . S
C777 C775 1.389 . S
C777 C778 1.524 . S
C778 C777 1.524 . S
C778 C779 1.397 . S
C778 C783 1.363 . S
C779 H750 0.950 . S
C779 C778 1.397 . S
C779 C780 1.334 . S
C780 H751 0.950 . S
C780 C779 1.334 . S
C780 C781 1.287 . S
C781 C780 1.287 . S
C781 C782 1.524 . S
C781 H784 0.999 . S
C782 H752 0.950 . S
C782 C781 1.524 . S
C782 C783 1.415 . S
C783 H753 0.950 . S
C783 C778 1.363 . S
C783 C782 1.415 . S
H784 C781 0.999 . S
H785 C766 0.913 . S
H786 C804 0.951 . S
H787 C806 0.951 . S
H788 C808 0.950 . S
H789 C809 0.950 . S
H790 C811 0.950 . S
H791 C814 0.950 . S
H792 C815 0.950 . S
H793 C817 0.950 . S
H794 C818 0.950 . S
H795 C819 0.951 . S
H796 C821 0.951 . S
H797 C823 0.950 . S
H798 C824 0.950 . S
H799 C826 0.950 . S
H800 C829 0.950 . S
H801 C830 0.950 . S
H802 C832 0.950 . S
H803 C833 0.950 . S
C804 H786 0.951 . S
C804 C805 1.366 . S
C804 C806 1.388 . S
C805 C804 1.366 . S
C805 C809 1.385 . S
C806 H787 0.951 . S
C806 C804 1.388 . S
C806 C807 1.366 . S
C807 C806 1.366 . S
C807 C808 1.414 . S
C807 C810 1.499 . S
C808 H788 0.950 . S
C808 C807 1.414 . S
C808 C809 1.374 . S
C809 H789 0.950 . S
C809 C805 1.385 . S
C809 C808 1.374 . S
C810 C807 1.499 . S
C810 C811 1.373 . S
C810 C812 1.389 . S
C811 H790 0.950 . S
C811 C810 1.373 . S
C811 C827 1.377 . S
C812 C810 1.389 . S
C812 C813 1.524 . S
C812 C826 1.377 . S
C813 C812 1.524 . S
C813 C814 1.397 . S
C813 C818 1.363 . S
C814 H791 0.950 . S
C814 C813 1.397 . S
C814 C815 1.334 . S
C815 H792 0.950 . S
C815 C814 1.334 . S
C815 C816 1.287 . S
C816 C815 1.287 . S
C816 C817 1.524 . S
C816 H835 0.913 . S
C817 H793 0.950 . S
C817 C816 1.524 . S
C817 C818 1.415 . S
C818 H794 0.950 . S
C818 C813 1.363 . S
C818 C817 1.415 . S
C819 H795 0.951 . S
C819 C820 1.366 . S
C819 C821 1.388 . S
C820 C819 1.366 . S
C820 C824 1.385 . S
C821 H796 0.951 . S
C821 C819 1.388 . S
C821 C822 1.366 . S
C822 C821 1.366 . S
C822 C823 1.414 . S
C822 C825 1.499 . S
C823 H797 0.950 . S
C823 C822 1.414 . S
C823 C824 1.374 . S
C824 H798 0.950 . S
C824 C820 1.385 . S
C824 C823 1.374 . S
C825 C822 1.499 . S
C825 C826 1.373 . S
C825 C827 1.389 . S
C826 H799 0.950 . S
C826 C812 1.377 . S
C826 C825 1.373 . S
C827 C811 1.377 . S
C827 C825 1.389 . S
C827 C828 1.524 . S
C828 C827 1.524 . S
C828 C829 1.397 . S
C828 C833 1.363 . S
C829 H800 0.950 . S
C829 C828 1.397 . S
C829 C830 1.334 . S
C830 H801 0.950 . S
C830 C829 1.334 . S
C830 C831 1.287 . S
C831 C830 1.287 . S
C831 C832 1.524 . S
C831 H834 0.999 . S
C832 H802 0.950 . S
C832 C831 1.524 . S
C832 C833 1.415 . S
C833 H803 0.950 . S
C833 C828 1.363 . S
C833 C832 1.415 . S
H834 C831 0.999 . S
H835 C816 0.913 . S
H836 C854 0.951 . S
H837 C856 0.951 . S
H838 C858 0.950 . S
H839 C859 0.950 . S
H840 C861 0.950 . S
H841 C864 0.950 . S
H842 C865 0.950 . S
H843 C867 0.950 . S
H844 C868 0.950 . S
H845 C869 0.951 . S
H846 C871 0.951 . S
H847 C873 0.950 . S
H848 C874 0.950 . S
H849 C876 0.950 . S
H850 C879 0.950 . S
H851 C880 0.950 . S
H852 C882 0.950 . S
H853 C883 0.950 . S
C854 H836 0.951 . S
C854 C855 1.366 . S
C854 C856 1.388 . S
C855 C854 1.366 . S
C855 C859 1.385 . S
C856 H837 0.951 . S
C856 C854 1.388 . S
C856 C857 1.366 . S
C857 C856 1.366 . S
C857 C858 1.414 . S
C857 C860 1.499 . S
C858 H838 0.950 . S
C858 C857 1.414 . S
C858 C859 1.374 . S
C859 H839 0.950 . S
C859 C855 1.385 . S
C859 C858 1.374 . S
C860 C857 1.499 . S
C860 C861 1.373 . S
C860 C862 1.389 . S
C861 H840 0.950 . S
C861 C860 1.373 . S
C861 C877 1.377 . S
C862 C860 1.389 . S
C862 C863 1.524 . S
C862 C876 1.377 . S
C863 C862 1.524 . S
C863 C864 1.397 . S
C863 C868 1.363 . S
C864 H841 0.950 . S
C864 C863 1.397 . S
C864 C865 1.334 . S
C865 H842 0.950 . S
C865 C864 1.334 . S
C865 C866 1.287 . S
C866 C865 1.287 . S
C866 C867 1.524 . S
C866 H885 0.913 . S
C867 H843 0.950 . S
C867 C866 1.524 . S
C867 C868 1.415 . S
C868 H844 0.950 . S
C868 C863 1.363 . S
C868 C867 1.415 . S
C869 H845 0.951 . S
C869 C870 1.366 . S
C869 C871 1.388 . S
C870 C869 1.366 . S
C870 C874 1.385 . S
C871 H846 0.951 . S
C871 C869 1.388 . S
C871 C872 1.366 . S
C872 C871 1.366 . S
C872 C873 1.414 . S
C872 C875 1.499 . S
C873 H847 0.950 . S
C873 C872 1.414 . S
C873 C874 1.374 . S
C874 H848 0.950 . S
C874 C870 1.385 . S
C874 C873 1.374 . S
C875 C872 1.499 . S
C875 C876 1.373 . S
C875 C877 1.389 . S
C876 H849 0.950 . S
C876 C862 1.377 . S
C876 C875 1.373 . S
C877 C861 1.377 . S
C877 C875 1.389 . S
C877 C878 1.524 . S
C878 C877 1.524 . S
C878 C879 1.397 . S
C878 C883 1.363 . S
C879 H850 0.950 . S
C879 C878 1.397 . S
C879 C880 1.334 . S
C880 H851 0.950 . S
C880 C879 1.334 . S
C880 C881 1.287 . S
C881 C880 1.287 . S
C881 C882 1.524 . S
C881 H884 0.999 . S
C882 H852 0.950 . S
C882 C881 1.524 . S
C882 C883 1.415 . S
C883 H853 0.950 . S
C883 C878 1.363 . S
C883 C882 1.415 . S
H884 C881 0.999 . S
H885 C866 0.913 . S
H886 C904 0.951 . S
H887 C906 0.951 . S
H888 C908 0.950 . S
H889 C909 0.950 . S
H890 C911 0.950 . S
H891 C914 0.950 . S
H892 C915 0.950 . S
H893 C917 0.950 . S
H894 C918 0.950 . S
H895 C919 0.951 . S
H896 C921 0.951 . S
H897 C923 0.950 . S
H898 C924 0.950 . S
H899 C926 0.950 . S
H900 C929 0.950 . S
H901 C930 0.950 . S
H902 C932 0.950 . S
H903 C933 0.950 . S
C904 H886 0.951 . S
C904 C905 1.366 . S
C904 C906 1.388 . S
C905 C904 1.366 . S
C905 C909 1.385 . S
C906 H887 0.951 . S
C906 C904 1.388 . S
C906 C907 1.366 . S
C907 C906 1.366 . S
C907 C908 1.414 . S
C907 C910 1.499 . S
C908 H888 0.950 . S
C908 C907 1.414 . S
C908 C909 1.374 . S
C909 H889 0.950 . S
C909 C905 1.385 . S
C909 C908 1.374 . S
C910 C907 1.499 . S
C910 C911 1.373 . S
C910 C912 1.389 . S
C911 H890 0.950 . S
C911 C910 1.373 . S
C911 C927 1.377 . S
C912 C910 1.389 . S
C912 C913 1.524 . S
C912 C926 1.377 . S
C913 C912 1.524 . S
C913 C914 1.397 . S
C913 C918 1.363 . S
C914 H891 0.950 . S
C914 C913 1.397 . S
C914 C915 1.334 . S
C915 H892 0.950 . S
C915 C914 1.334 . S
C915 C916 1.287 . S
C916 C915 1.287 . S
C916 C917 1.524 . S
C916 H935 0.913 . S
C917 H893 0.950 . S
C917 C916 1.524 . S
C917 C918 1.415 . S
C918 H894 0.950 . S
C918 C913 1.363 . S
C918 C917 1.415 . S
C919 H895 0.951 . S
C919 C920 1.366 . S
C919 C921 1.388 . S
C920 C919 1.366 . S
C920 C924 1.385 . S
C921 H896 0.951 . S
C921 C919 1.388 . S
C921 C922 1.366 . S
C922 C921 1.366 . S
C922 C923 1.414 . S
C922 C925 1.499 . S
C923 H897 0.950 . S
C923 C922 1.414 . S
C923 C924 1.374 . S
C924 H898 0.950 . S
C924 C920 1.385 . S
C924 C923 1.374 . S
C925 C922 1.499 . S
C925 C926 1.373 . S
C925 C927 1.389 . S
C926 H899 0.950 . S
C926 C912 1.377 . S
C926 C925 1.373 . S
C927 C911 1.377 . S
C927 C925 1.389 . S
C927 C928 1.524 . S
C928 C927 1.524 . S
C928 C929 1.397 . S
C928 C933 1.363 . S
C929 H900 0.950 . S
C929 C928 1.397 . S
C929 C930 1.334 . S
C930 H901 0.950 . S
C930 C929 1.334 . S
C930 C931 1.287 . S
C931 C930 1.287 . S
C931 C932 1.524 . S
C931 H934 0.999 . S
C932 H902 0.950 . S
C932 C931 1.524 . S
C932 C933 1.415 . S
C933 H903 0.950 . S
C933 C928 1.363 . S
C933 C932 1.415 . S
H934 C931 0.999 . S
H935 C916 0.913 . S
H936 C954 0.951 . S
H937 C956 0.951 . S
H938 C958 0.950 . S
H939 C959 0.950 . S
H940 C961 0.950 . S
H941 C964 0.950 . S
H942 C965 0.950 . S
H943 C967 0.950 . S
H944 C968 0.950 . S
H945 C969 0.951 . S
H946 C971 0.951 . S
H947 C973 0.950 . S
H948 C974 0.950 . S
H949 C976 0.950 . S
H950 C979 0.950 . S
H951 C980 0.950 . S
H952 C982 0.950 . S
H953 C983 0.950 . S
C954 H936 0.951 . S
C954 C955 1.366 . S
C954 C956 1.388 . S
C955 C954 1.366 . S
C955 C959 1.385 . S
C956 H937 0.951 . S
C956 C954 1.388 . S
C956 C957 1.366 . S
C957 C956 1.366 . S
C957 C958 1.414 . S
C957 C960 1.499 . S
C958 H938 0.950 . S
C958 C957 1.414 . S
C958 C959 1.374 . S
C959 H939 0.950 . S
C959 C955 1.385 . S
C959 C958 1.374 . S
C960 C957 1.499 . S
C960 C961 1.373 . S
C960 C962 1.389 . S
C961 H940 0.950 . S
C961 C960 1.373 . S
C961 C977 1.377 . S
C962 C960 1.389 . S
C962 C963 1.524 . S
C962 C976 1.377 . S
C963 C962 1.524 . S
C963 C964 1.397 . S
C963 C968 1.363 . S
C964 H941 0.950 . S
C964 C963 1.397 . S
C964 C965 1.334 . S
C965 H942 0.950 . S
C965 C964 1.334 . S
C965 C966 1.287 . S
C966 C965 1.287 . S
C966 C967 1.524 . S
C966 H985 0.913 . S
C967 H943 0.950 . S
C967 C966 1.524 . S
C967 C968 1.415 . S
C968 H944 0.950 . S
C968 C963 1.363 . S
C968 C967 1.415 . S
C969 H945 0.951 . S
C969 C970 1.366 . S
C969 C971 1.388 . S
C970 C969 1.366 . S
C970 C974 1.385 . S
C971 H946 0.951 . S
C971 C969 1.388 . S
C971 C972 1.366 . S
C972 C971 1.366 . S
C972 C973 1.414 . S
C972 C975 1.499 . S
C973 H947 0.950 . S
C973 C972 1.414 . S
C973 C974 1.374 . S
C974 H948 0.950 . S
C974 C970 1.385 . S
C974 C973 1.374 . S
C975 C972 1.499 . S
C975 C976 1.373 . S
C975 C977 1.389 . S
C976 H949 0.950 . S
C976 C962 1.377 . S
C976 C975 1.373 . S
C977 C961 1.377 . S
C977 C975 1.389 . S
C977 C978 1.524 . S
C978 C977 1.524 . S
C978 C979 1.397 . S
C978 C983 1.363 . S
C979 H950 0.950 . S
C979 C978 1.397 . S
C979 C980 1.334 . S
C980 H951 0.950 . S
C980 C979 1.334 . S
C980 C981 1.287 . S
C981 C980 1.287 . S
C981 C982 1.524 . S
C981 H984 0.999 . S
C982 H952 0.950 . S
C982 C981 1.524 . S
C982 C983 1.415 . S
C983 H953 0.950 . S
C983 C978 1.363 . S
C983 C982 1.415 . S
H984 C981 0.999 . S
H985 C966 0.913 . S
H986 C1004 0.951 . S
H987 C1006 0.951 . S
H988 C1008 0.950 . S
H989 C1009 0.950 . S
H990 C1011 0.950 . S
H991 C1014 0.950 . S
H992 C1015 0.950 . S
H993 C1017 0.950 . S
H994 C1018 0.950 . S
H995 C1019 0.951 . S
H996 C1021 0.951 . S
H997 C1023 0.950 . S
H998 C1024 0.950 . S
H999 C1026 0.950 . S
H1000 C1029 0.950 . S
H1001 C1030 0.950 . S
H1002 C1032 0.950 . S
H1003 C1033 0.950 . S
C1004 H986 0.951 . S
C1004 C1005 1.366 . S
C1004 C1006 1.388 . S
C1005 C1004 1.366 . S
C1005 C1009 1.385 . S
C1006 H987 0.951 . S
C1006 C1004 1.388 . S
C1006 C1007 1.366 . S
C1007 C1006 1.366 . S
C1007 C1008 1.414 . S
C1007 C1010 1.499 . S
C1008 H988 0.950 . S
C1008 C1007 1.414 . S
C1008 C1009 1.374 . S
C1009 H989 0.950 . S
C1009 C1005 1.385 . S
C1009 C1008 1.374 . S
C1010 C1007 1.499 . S
C1010 C1011 1.373 . S
C1010 C1012 1.389 . S
C1011 H990 0.950 . S
C1011 C1010 1.373 . S
C1011 C1027 1.377 . S
C1012 C1010 1.389 . S
C1012 C1013 1.524 . S
C1012 C1026 1.377 . S
C1013 C1012 1.524 . S
C1013 C1014 1.397 . S
C1013 C1018 1.363 . S
C1014 H991 0.950 . S
C1014 C1013 1.397 . S
C1014 C1015 1.334 . S
C1015 H992 0.950 . S
C1015 C1014 1.334 . S
C1015 C1016 1.287 . S
C1016 C1015 1.287 . S
C1016 C1017 1.524 . S
C1016 H1035 0.913 . S
C1017 H993 0.950 . S
C1017 C1016 1.524 . S
C1017 C1018 1.415 . S
C1018 H994 0.950 . S
C1018 C1013 1.363 . S
C1018 C1017 1.415 . S
C1019 H995 0.951 . S
C1019 C1020 1.366 . S
C1019 C1021 1.388 . S
C1020 C1019 1.366 . S
C1020 C1024 1.385 . S
C1021 H996 0.951 . S
C1021 C1019 1.388 . S
C1021 C1022 1.366 . S
C1022 C1021 1.366 . S
C1022 C1023 1.414 . S
C1022 C1025 1.499 . S
C1023 H997 0.950 . S
C1023 C1022 1.414 . S
C1023 C1024 1.374 . S
C1024 H998 0.950 . S
C1024 C1020 1.385 . S
C1024 C1023 1.374 . S
C1025 C1022 1.499 . S
C1025 C1026 1.373 . S
C1025 C1027 1.389 . S
C1026 H999 0.950 . S
C1026 C1012 1.377 . S
C1026 C1025 1.373 . S
C1027 C1011 1.377 . S
C1027 C1025 1.389 . S
C1027 C1028 1.524 . S
C1028 C1027 1.524 . S
C1028 C1029 1.397 . S
C1028 C1033 1.363 . S
C1029 H1000 0.950 . S
C1029 C1028 1.397 . S
C1029 C1030 1.334 . S
C1030 H1001 0.950 . S
C1030 C1029 1.334 . S
C1030 C1031 1.287 . S
C1031 C1030 1.287 . S
C1031 C1032 1.524 . S
C1031 H1034 0.999 . S
C1032 H1002 0.950 . S
C1032 C1031 1.524 . S
C1032 C1033 1.415 . S
C1033 H1003 0.950 . S
C1033 C1028 1.363 . S
C1033 C1032 1.415 . S
H1034 C1031 0.999 . S
H1035 C1016 0.913 . S
H1036 C1054 0.951 . S
H1037 C1056 0.951 . S
H1038 C1058 0.950 . S
H1039 C1059 0.950 . S
H1040 C1061 0.950 . S
H1041 C1064 0.950 . S
H1042 C1065 0.950 . S
H1043 C1067 0.950 . S
H1044 C1068 0.950 . S
H1045 C1069 0.951 . S
H1046 C1071 0.951 . S
H1047 C1073 0.950 . S
H1048 C1074 0.950 . S
H1049 C1076 0.950 . S
H1050 C1079 0.950 . S
H1051 C1080 0.950 . S
H1052 C1082 0.950 . S
H1053 C1083 0.950 . S
C1054 H1036 0.951 . S
C1054 C1055 1.366 . S
C1054 C1056 1.388 . S
C1055 C1054 1.366 . S
C1055 C1059 1.385 . S
C1056 H1037 0.951 . S
C1056 C1054 1.388 . S
C1056 C1057 1.366 . S
C1057 C1056 1.366 . S
C1057 C1058 1.414 . S
C1057 C1060 1.499 . S
C1058 H1038 0.950 . S
C1058 C1057 1.414 . S
C1058 C1059 1.374 . S
C1059 H1039 0.950 . S
C1059 C1055 1.385 . S
C1059 C1058 1.374 . S
C1060 C1057 1.499 . S
C1060 C1061 1.373 . S
C1060 C1062 1.389 . S
C1061 H1040 0.950 . S
C1061 C1060 1.373 . S
C1061 C1077 1.377 . S
C1062 C1060 1.389 . S
C1062 C1063 1.524 . S
C1062 C1076 1.377 . S
C1063 C1062 1.524 . S
C1063 C1064 1.397 . S
C1063 C1068 1.363 . S
C1064 H1041 0.950 . S
C1064 C1063 1.397 . S
C1064 C1065 1.334 . S
C1065 H1042 0.950 . S
C1065 C1064 1.334 . S
C1065 C1066 1.287 . S
C1066 C1065 1.287 . S
C1066 C1067 1.524 . S
C1066 H1085 0.913 . S
C1067 H1043 0.950 . S
C1067 C1066 1.524 . S
C1067 C1068 1.415 . S
C1068 H1044 0.950 . S
C1068 C1063 1.363 . S
C1068 C1067 1.415 . S
C1069 H1045 0.951 . S
C1069 C1070 1.366 . S
C1069 C1071 1.388 . S
C1070 C1069 1.366 . S
C1070 C1074 1.385 . S
C1071 H1046 0.951 . S
C1071 C1069 1.388 . S
C1071 C1072 1.366 . S
C1072 C1071 1.366 . S
C1072 C1073 1.414 . S
C1072 C1075 1.499 . S
C1073 H1047 0.950 . S
C1073 C1072 1.414 . S
C1073 C1074 1.374 . S
C1074 H1048 0.950 . S
C1074 C1070 1.385 . S
C1074 C1073 1.374 . S
C1075 C1072 1.499 . S
C1075 C1076 1.373 . S
C1075 C1077 1.389 . S
C1076 H1049 0.950 . S
C1076 C1062 1.377 . S
C1076 C1075 1.373 . S
C1077 C1061 1.377 . S
C1077 C1075 1.389 . S
C1077 C1078 1.524 . S
C1078 C1077 1.524 . S
C1078 C1079 1.397 . S
C1078 C1083 1.363 . S
C1079 H1050 0.950 . S
C1079 C1078 1.397 . S
C1079 C1080 1.334 . S
C1080 H1051 0.950 . S
C1080 C1079 1.334 . S
C1080 C1081 1.287 . S
C1081 C1080 1.287 . S
C1081 C1082 1.524 . S
C1081 H1084 0.999 . S
C1082 H1052 0.950 . S
C1082 C1081 1.524 . S
C1082 C1083 1.415 . S
C1083 H1053 0.950 . S
C1083 C1078 1.363 . S
C1083 C1082 1.415 . S
H1084 C1081 0.999 . S
H1085 C1066 0.913 . S
H1086 C1104 0.951 . S
H1087 C1106 0.951 . S
H1088 C1108 0.950 . S
H1089 C1109 0.950 . S
H1090 C1111 0.950 . S
H1091 C1114 0.950 . S
H1092 C1115 0.950 . S
H1093 C1117 0.950 . S
H1094 C1118 0.950 . S
H1095 C1119 0.951 . S
H1096 C1121 0.951 . S
H1097 C1123 0.950 . S
H1098 C1124 0.950 . S
H1099 C1126 0.950 . S
H1100 C1129 0.950 . S
H1101 C1130 0.950 . S
H1102 C1132 0.950 . S
H1103 C1133 0.950 . S
C1104 H1086 0.951 . S
C1104 C1105 1.366 . S
C1104 C1106 1.388 . S
C1105 C1104 1.366 . S
C1105 C1109 1.385 . S
C1106 H1087 0.951 . S
C1106 C1104 1.388 . S
C1106 C1107 1.366 . S
C1107 C1106 1.366 . S
C1107 C1108 1.414 . S
C1107 C1110 1.499 . S
C1108 H1088 0.950 . S
C1108 C1107 1.414 . S
C1108 C1109 1.374 . S
C1109 H1089 0.950 . S
C1109 C1105 1.385 . S
C1109 C1108 1.374 . S
C1110 C1107 1.499 . S
C1110 C1111 1.373 . S
C1110 C1112 1.389 . S
C1111 H1090 0.950 . S
C1111 C1110 1.373 . S
C1111 C1127 1.377 . S
C1112 C1110 1.389 . S
C1112 C1113 1.524 . S
C1112 C1126 1.377 . S
C1113 C1112 1.524 . S
C1113 C1114 1.397 . S
C1113 C1118 1.363 . S
C1114 H1091 0.950 . S
C1114 C1113 1.397 . S
C1114 C1115 1.334 . S
C1115 H1092 0.950 . S
C1115 C1114 1.334 . S
C1115 C1116 1.287 . S
C1116 C1115 1.287 . S
C1116 C1117 1.524 . S
C1116 H1135 0.913 . S
C1117 H1093 0.950 . S
C1117 C1116 1.524 . S
C1117 C1118 1.415 . S
C1118 H1094 0.950 . S
C1118 C1113 1.363 . S
C1118 C1117 1.415 . S
C1119 H1095 0.951 . S
C1119 C1120 1.366 . S
C1119 C1121 1.388 . S
C1120 C1119 1.366 . S
C1120 C1124 1.385 . S
C1121 H1096 0.951 . S
C1121 C1119 1.388 . S
C1121 C1122 1.366 . S
C1122 C1121 1.366 . S
C1122 C1123 1.414 . S
C1122 C1125 1.499 . S
C1123 H1097 0.950 . S
C1123 C1122 1.414 . S
C1123 C1124 1.374 . S
C1124 H1098 0.950 . S
C1124 C1120 1.385 . S
C1124 C1123 1.374 . S
C1125 C1122 1.499 . S
C1125 C1126 1.373 . S
C1125 C1127 1.389 . S
C1126 H1099 0.950 . S
C1126 C1112 1.377 . S
C1126 C1125 1.373 . S
C1127 C1111 1.377 . S
C1127 C1125 1.389 . S
C1127 C1128 1.524 . S
C1128 C1127 1.524 . S
C1128 C1129 1.397 . S
C1128 C1133 1.363 . S
C1129 H1100 0.950 . S
C1129 C1128 1.397 . S
C1129 C1130 1.334 . S
C1130 H1101 0.950 . S
C1130 C1129 1.334 . S
C1130 C1131 1.287 . S
C1131 C1130 1.287 . S
C1131 C1132 1.524 . S
C1131 H1134 0.999 . S
C1132 H1102 0.950 . S
C1132 C1131 1.524 . S
C1132 C1133 1.415 . S
C1133 H1103 0.950 . S
C1133 C1128 1.363 . S
C1133 C1132 1.415 . S
H1134 C1131 0.999 . S
H1135 C1116 0.913 . S
H1136 C1154 0.951 . S
H1137 C1156 0.951 . S
H1138 C1158 0.950 . S
H1139 C1159 0.950 . S
H1140 C1161 0.950 . S
H1141 C1164 0.950 . S
H1142 C1165 0.950 . S
H1143 C1167 0.950 . S
H1144 C1168 0.950 . S
H1145 C1169 0.951 . S
H1146 C1171 0.951 . S
H1147 C1173 0.950 . S
H1148 C1174 0.950 . S
H1149 C1176 0.950 . S
H1150 C1179 0.950 . S
H1151 C1180 0.950 . S
H1152 C1182 0.950 . S
H1153 C1183 0.950 . S
C1154 H1136 0.951 . S
C1154 C1155 1.366 . S
C1154 C1156 1.388 . S
C1155 C1154 1.366 . S
C1155 C1159 1.385 . S
C1156 H1137 0.951 . S
C1156 C1154 1.388 . S
C1156 C1157 1.366 . S
C1157 C1156 1.366 . S
C1157 C1158 1.414 . S
C1157 C1160 1.499 . S
C1158 H1138 0.950 . S
C1158 C1157 1.414 . S
C1158 C1159 1.374 . S
C1159 H1139 0.950 . S
C1159 C1155 1.385 . S
C1159 C1158 1.374 . S
C1160 C1157 1.499 . S
C1160 C1161 1.373 . S
C1160 C1162 1.389 . S
C1161 H1140 0.950 . S
C1161 C1160 1.373 . S
C1161 C1177 1.377 . S
C1162 C1160 1.389 . S
C1162 C1163 1.524 . S
C1162 C1176 1.377 . S
C1163 C1162 1.524 . S
C1163 C1164 1.397 . S
C1163 C1168 1.363 . S
C1164 H1141 0.950 . S
C1164 C1163 1.397 . S
C1164 C1165 1.334 . S
C1165 H1142 0.950 . S
C1165 C1164 1.334 . S
C1165 C1166 1.287 . S
C1166 C1165 1.287 . S
C1166 C1167 1.524 . S
C1166 H1185 0.913 . S
C1167 H1143 0.950 . S
C1167 C1166 1.524 . S
C1167 C1168 1.415 . S
C1168 H1144 0.950 . S
C1168 C1163 1.363 . S
C1168 C1167 1.415 . S
C1169 H1145 0.951 . S
C1169 C1170 1.366 . S
C1169 C1171 1.388 . S
C1170 C1169 1.366 . S
C1170 C1174 1.385 . S
C1171 H1146 0.951 . S
C1171 C1169 1.388 . S
C1171 C1172 1.366 . S
C1172 C1171 1.366 . S
C1172 C1173 1.414 . S
C1172 C1175 1.499 . S
C1173 H1147 0.950 . S
C1173 C1172 1.414 . S
C1173 C1174 1.374 . S
C1174 H1148 0.950 . S
C1174 C1170 1.385 . S
C1174 C1173 1.374 . S
C1175 C1172 1.499 . S
C1175 C1176 1.373 . S
C1175 C1177 1.389 . S
C1176 H1149 0.950 . S
C1176 C1162 1.377 . S
C1176 C1175 1.373 . S
C1177 C1161 1.377 . S
C1177 C1175 1.389 . S
C1177 C1178 1.524 . S
C1178 C1177 1.524 . S
C1178 C1179 1.397 . S
C1178 C1183 1.363 . S
C1179 H1150 0.950 . S
C1179 C1178 1.397 . S
C1179 C1180 1.334 . S
C1180 H1151 0.950 . S
C1180 C1179 1.334 . S
C1180 C1181 1.287 . S
C1181 C1180 1.287 . S
C1181 C1182 1.524 . S
C1181 H1184 0.999 . S
C1182 H1152 0.950 . S
C1182 C1181 1.524 . S
C1182 C1183 1.415 . S
C1183 H1153 0.950 . S
C1183 C1178 1.363 . S
C1183 C1182 1.415 . S
H1184 C1181 0.999 . S
H1185 C1166 0.913 . S
H1186 C1204 0.951 . S
H1187 C1206 0.951 . S
H1188 C1208 0.950 . S
H1189 C1209 0.950 . S
H1190 C1211 0.950 . S
H1191 C1214 0.950 . S
H1192 C1215 0.950 . S
H1193 C1217 0.950 . S
H1194 C1218 0.950 . S
H1195 C1219 0.951 . S
H1196 C1221 0.951 . S
H1197 C1223 0.950 . S
H1198 C1224 0.950 . S
H1199 C1226 0.950 . S
H1200 C1229 0.950 . S
H1201 C1230 0.950 . S
H1202 C1232 0.950 . S
H1203 C1233 0.950 . S
C1204 H1186 0.951 . S
C1204 C1205 1.366 . S
C1204 C1206 1.388 . S
C1205 C1204 1.366 . S
C1205 C1209 1.385 . S
C1206 H1187 0.951 . S
C1206 C1204 1.388 . S
C1206 C1207 1.366 . S
C1207 C1206 1.366 . S
C1207 C1208 1.414 . S
C1207 C1210 1.499 . S
C1208 H1188 0.950 . S
C1208 C1207 1.414 . S
C1208 C1209 1.374 . S
C1209 H1189 0.950 . S
C1209 C1205 1.385 . S
C1209 C1208 1.374 . S
C1210 C1207 1.499 . S
C1210 C1211 1.373 . S
C1210 C1212 1.389 . S
C1211 H1190 0.950 . S
C1211 C1210 1.373 . S
C1211 C1227 1.377 . S
C1212 C1210 1.389 . S
C1212 C1213 1.524 . S
C1212 C1226 1.377 . S
C1213 C1212 1.524 . S
C1213 C1214 1.397 . S
C1213 C1218 1.363 . S
C1214 H1191 0.950 . S
C1214 C1213 1.397 . S
C1214 C1215 1.334 . S
C1215 H1192 0.950 . S
C1215 C1214 1.334 . S
C1215 C1216 1.287 . S
C1216 C1215 1.287 . S
C1216 C1217 1.524 . S
C1216 H1235 0.913 . S
C1217 H1193 0.950 . S
C1217 C1216 1.524 . S
C1217 C1218 1.415 . S
C1218 H1194 0.950 . S
C1218 C1213 1.363 . S
C1218 C1217 1.415 . S
C1219 H1195 0.951 . S
C1219 C1220 1.366 . S
C1219 C1221 1.388 . S
C1220 C1219 1.366 . S
C1220 C1224 1.385 . S
C1221 H1196 0.951 . S
C1221 C1219 1.388 . S
C1221 C1222 1.366 . S
C1222 C1221 1.366 . S
C1222 C1223 1.414 . S
C1222 C1225 1.499 . S
C1223 H1197 0.950 . S
C1223 C1222 1.414 . S
C1223 C1224 1.374 . S
C1224 H1198 0.950 . S
C1224 C1220 1.385 . S
C1224 C1223 1.374 . S
C1225 C1222 1.499 . S
C1225 C1226 1.373 . S
C1225 C1227 1.389 . S
C1226 H1199 0.950 . S
C1226 C1212 1.377 . S
C1226 C1225 1.373 . S
C1227 C1211 1.377 . S
C1227 C1225 1.389 . S
C1227 C1228 1.524 . S
C1228 C1227 1.524 . S
C1228 C1229 1.397 . S
C1228 C1233 1.363 . S
C1229 H1200 0.950 . S
C1229 C1228 1.397 . S
C1229 C1230 1.334 . S
C1230 H1201 0.950 . S
C1230 C1229 1.334 . S
C1230 C1231 1.287 . S
C1231 C1230 1.287 . S
C1231 C1232 1.524 . S
C1231 H1234 0.999 . S
C1232 H1202 0.950 . S
C1232 C1231 1.524 . S
C1232 C1233 1.415 . S
C1233 H1203 0.950 . S
C1233 C1228 1.363 . S
C1233 C1232 1.415 . S
H1234 C1231 0.999 . S
H1235 C1216 0.913 . S
H1236 C1254 0.951 . S
H1237 C1256 0.951 . S
H1238 C1258 0.950 . S
H1239 C1259 0.950 . S
H1240 C1261 0.950 . S
H1241 C1264 0.950 . S
H1242 C1265 0.950 . S
H1243 C1267 0.950 . S
H1244 C1268 0.950 . S
H1245 C1269 0.951 . S
H1246 C1271 0.951 . S
H1247 C1273 0.950 . S
H1248 C1274 0.950 . S
H1249 C1276 0.950 . S
H1250 C1279 0.950 . S
H1251 C1280 0.950 . S
H1252 C1282 0.950 . S
H1253 C1283 0.950 . S
C1254 H1236 0.951 . S
C1254 C1255 1.366 . S
C1254 C1256 1.388 . S
C1255 C1254 1.366 . S
C1255 C1259 1.385 . S
C1256 H1237 0.951 . S
C1256 C1254 1.388 . S
C1256 C1257 1.366 . S
C1257 C1256 1.366 . S
C1257 C1258 1.414 . S
C1257 C1260 1.499 . S
C1258 H1238 0.950 . S
C1258 C1257 1.414 . S
C1258 C1259 1.374 . S
C1259 H1239 0.950 . S
C1259 C1255 1.385 . S
C1259 C1258 1.374 . S
C1260 C1257 1.499 . S
C1260 C1261 1.373 . S
C1260 C1262 1.389 . S
C1261 H1240 0.950 . S
C1261 C1260 1.373 . S
C1261 C1277 1.377 . S
C1262 C1260 1.389 . S
C1262 C1263 1.524 . S
C1262 C1276 1.377 . S
C1263 C1262 1.524 . S
C1263 C1264 1.397 . S
C1263 C1268 1.363 . S
C1264 H1241 0.950 . S
C1264 C1263 1.397 . S
C1264 C1265 1.334 . S
C1265 H1242 0.950 . S
C1265 C1264 1.334 . S
C1265 C1266 1.287 . S
C1266 C1265 1.287 . S
C1266 C1267 1.524 . S
C1266 H1285 0.913 . S
C1267 H1243 0.950 . S
C1267 C1266 1.524 . S
C1267 C1268 1.415 . S
C1268 H1244 0.950 . S
C1268 C1263 1.363 . S
C1268 C1267 1.415 . S
C1269 H1245 0.951 . S
C1269 C1270 1.366 . S
C1269 C1271 1.388 . S
C1270 C1269 1.366 . S
C1270 C1274 1.385 . S
C1271 H1246 0.951 . S
C1271 C1269 1.388 . S
C1271 C1272 1.366 . S
C1272 C1271 1.366 . S
C1272 C1273 1.414 . S
C1272 C1275 1.499 . S
C1273 H1247 0.950 . S
C1273 C1272 1.414 . S
C1273 C1274 1.374 . S
C1274 H1248 0.950 . S
C1274 C1270 1.385 . S
C1274 C1273 1.374 . S
C1275 C1272 1.499 . S
C1275 C1276 1.373 . S
C1275 C1277 1.389 . S
C1276 H1249 0.950 . S
C1276 C1262 1.377 . S
C1276 C1275 1.373 . S
C1277 C1261 1.377 . S
C1277 C1275 1.389 . S
C1277 C1278 1.524 . S
C1278 C1277 1.524 . S
C1278 C1279 1.397 . S
C1278 C1283 1.363 . S
C1279 H1250 0.950 . S
C1279 C1278 1.397 . S
C1279 C1280 1.334 . S
C1280 H1251 0.950 . S
C1280 C1279 1.334 . S
C1280 C1281 1.287 . S
C1281 C1280 1.287 . S
C1281 C1282 1.524 . S
C1281 H1284 0.999 . S
C1282 H1252 0.950 . S
C1282 C1281 1.524 . S
C1282 C1283 1.415 . S
C1283 H1253 0.950 . S
C1283 C1278 1.363 . S
C1283 C1282 1.415 . S
H1284 C1281 0.999 . S
H1285 C1266 0.913 . S
H1286 C1304 0.951 . S
H1287 C1306 0.951 . S
H1288 C1308 0.950 . S
H1289 C1309 0.950 . S
H1290 C1311 0.950 . S
H1291 C1314 0.950 . S
H1292 C1315 0.950 . S
H1293 C1317 0.950 . S
H1294 C1318 0.950 . S
H1295 C1319 0.951 . S
H1296 C1321 0.951 . S
H1297 C1323 0.950 . S
H1298 C1324 0.950 . S
H1299 C1326 0.950 . S
H1300 C1329 0.950 . S
H1301 C1330 0.950 . S
H1302 C1332 0.950 . S
H1303 C1333 0.950 . S
C1304 H1286 0.951 . S
C1304 C1305 1.366 . S
C1304 C1306 1.388 . S
C1305 C1304 1.366 . S
C1305 C1309 1.385 . S
C1306 H1287 0.951 . S
C1306 C1304 1.388 . S
C1306 C1307 1.366 . S
C1307 C1306 1.366 . S
C1307 C1308 1.414 . S
C1307 C1310 1.499 . S
C1308 H1288 0.950 . S
C1308 C1307 1.414 . S
C1308 C1309 1.374 . S
C1309 H1289 0.950 . S
C1309 C1305 1.385 . S
C1309 C1308 1.374 . S
C1310 C1307 1.499 . S
C1310 C1311 1.373 . S
C1310 C1312 1.389 . S
C1311 H1290 0.950 . S
C1311 C1310 1.373 . S
C1311 C1327 1.377 . S
C1312 C1310 1.389 . S
C1312 C1313 1.524 . S
C1312 C1326 1.377 . S
C1313 C1312 1.524 . S
C1313 C1314 1.397 . S
C1313 C1318 1.363 . S
C1314 H1291 0.950 . S
C1314 C1313 1.397 . S
C1314 C1315 1.334 . S
C1315 H1292 0.950 . S
C1315 C1314 1.334 . S
C1315 C1316 1.287 . S
C1316 C1315 1.287 . S
C1316 C1317 1.524 . S
C1316 H1335 0.913 . S
C1317 H1293 0.950 . S
C1317 C1316 1.524 . S
C1317 C1318 1.415 . S
C1318 H1294 0.950 . S
C1318 C1313 1.363 . S
C1318 C1317 1.415 . S
C1319 H1295 0.951 . S
C1319 C1320 1.366 . S
C1319 C1321 1.388 . S
C1320 C1319 1.366 . S
C1320 C1324 1.385 . S
C1321 H1296 0.951 . S
C1321 C1319 1.388 . S
C1321 C1322 1.366 . S
C1322 C1321 1.366 . S
C1322 C1323 1.414 . S
C1322 C1325 1.499 . S
C1323 H1297 0.950 . S
C1323 C1322 1.414 . S
C1323 C1324 1.374 . S
C1324 H1298 0.950 . S
C1324 C1320 1.385 . S
C1324 C1323 1.374 . S
C1325 C1322 1.499 . S
C1325 C1326 1.373 . S
C1325 C1327 1.389 . S
C1326 H1299 0.950 . S
C1326 C1312 1.377 . S
C1326 C1325 1.373 . S
C1327 C1311 1.377 . S
C1327 C1325 1.389 . S
C1327 C1328 1.524 . S
C1328 C1327 1.524 . S
C1328 C1329 1.397 . S
C1328 C1333 1.363 . S
C1329 H1300 0.950 . S
C1329 C1328 1.397 . S
C1329 C1330 1.334 . S
C1330 H1301 0.950 . S
C1330 C1329 1.334 . S
C1330 C1331 1.287 . S
C1331 C1330 1.287 . S
C1331 C1332 1.524 . S
C1331 H1334 0.999 . S
C1332 H1302 0.950 . S
C1332 C1331 1.524 . S
C1332 C1333 1.415 . S
C1333 H1303 0.950 . S
C1333 C1328 1.363 . S
C1333 C1332 1.415 . S
H1334 C1331 0.999 . S
H1335 C1316 0.913 . S
H1336 C1354 0.951 . S
H1337 C1356 0.951 . S
H1338 C1358 0.950 . S
H1339 C1359 0.950 . S
H1340 C1361 0.950 . S
H1341 C1364 0.950 . S
H1342 C1365 0.950 . S
H1343 C1367 0.950 . S
H1344 C1368 0.950 . S
H1345 C1369 0.951 . S
H1346 C1371 0.951 . S
H1347 C1373 0.950 . S
H1348 C1374 0.950 . S
H1349 C1376 0.950 . S
H1350 C1379 0.950 . S
H1351 C1380 0.950 . S
H1352 C1382 0.950 . S
H1353 C1383 0.950 . S
C1354 H1336 0.951 . S
C1354 C1355 1.366 . S
C1354 C1356 1.388 . S
C1355 C1354 1.366 . S
C1355 C1359 1.385 . S
C1356 H1337 0.951 . S
C1356 C1354 1.388 . S
C1356 C1357 1.366 . S
C1357 C1356 1.366 . S
C1357 C1358 1.414 . S
C1357 C1360 1.499 . S
C1358 H1338 0.950 . S
C1358 C1357 1.414 . S
C1358 C1359 1.374 . S
C1359 H1339 0.950 . S
C1359 C1355 1.385 . S
C1359 C1358 1.374 . S
C1360 C1357 1.499 . S
C1360 C1361 1.373 . S
C1360 C1362 1.389 . S
C1361 H1340 0.950 . S
C1361 C1360 1.373 . S
C1361 C1377 1.377 . S
C1362 C1360 1.389 . S
C1362 C1363 1.524 . S
C1362 C1376 1.377 . S
C1363 C1362 1.524 . S
C1363 C1364 1.397 . S
C1363 C1368 1.363 . S
C1364 H1341 0.950 . S
C1364 C1363 1.397 . S
C1364 C1365 1.334 . S
C1365 H1342 0.950 . S
C1365 C1364 1.334 . S
C1365 C1366 1.287 . S
C1366 C1365 1.287 . S
C1366 C1367 1.524 . S
C1366 H1385 0.913 . S
C1367 H1343 0.950 . S
C1367 C1366 1.524 . S
C1367 C1368 1.415 . S
C1368 H1344 0.950 . S
C1368 C1363 1.363 . S
C1368 C1367 1.415 . S
C1369 H1345 0.951 . S
C1369 C1370 1.366 . S
C1369 C1371 1.388 . S
C1370 C1369 1.366 . S
C1370 C1374 1.385 . S
C1371 H1346 0.951 . S
C1371 C1369 1.388 . S
C1371 C1372 1.366 . S
C1372 C1371 1.366 . S
C1372 C1373 1.414 . S
C1372 C1375 1.499 . S
C1373 H1347 0.950 . S
C1373 C1372 1.414 . S
C1373 C1374 1.374 . S
C1374 H1348 0.950 . S
C1374 C1370 1.385 . S
C1374 C1373 1.374 . S
C1375 C1372 1.499 . S
C1375 C1376 1.373 . S
C1375 C1377 1.389 . S
C1376 H1349 0.950 . S
C1376 C1362 1.377 . S
C1376 C1375 1.373 . S
C1377 C1361 1.377 . S
C1377 C1375 1.389 . S
C1377 C1378 1.524 . S
C1378 C1377 1.524 . S
C1378 C1379 1.397 . S
C1378 C1383 1.363 . S
C1379 H1350 0.950 . S
C1379 C1378 1.397 . S
C1379 C1380 1.334 . S
C1380 H1351 0.950 . S
C1380 C1379 1.334 . S
C1380 C1381 1.287 . S
C1381 C1380 1.287 . S
C1381 C1382 1.524 . S
C1381 H1384 0.999 . S
C1382 H1352 0.950 . S
C1382 C1381 1.524 . S
C1382 C1383 1.415 . S
C1383 H1353 0.950 . S
C1383 C1378 1.363 . S
C1383 C1382 1.415 . S
H1384 C1381 0.999 . S
H1385 C1366 0.913 . S
H1386 C1404 0.951 . S
H1387 C1406 0.951 . S
H1388 C1408 0.950 . S
H1389 C1409 0.950 . S
H1390 C1411 0.950 . S
H1391 C1414 0.950 . S
H1392 C1415 0.950 . S
H1393 C1417 0.950 1_554 S
H1394 C1418 0.950 . S
H1395 C1419 0.951 . S
H1396 C1421 0.951 . S
H1397 C1423 0.950 . S
H1398 C1424 0.950 . S
H1399 C1426 0.950 . S
H1400 C1429 0.950 . S
H1401 C1430 0.950 . S
H1402 C1432 0.950 . S
H1403 C1433 0.950 . S
C1404 H1386 0.951 . S
C1404 C1405 1.366 . S
C1404 C1406 1.388 . S
C1405 C1404 1.366 . S
C1405 C1409 1.385 . S
C1406 H1387 0.951 . S
C1406 C1404 1.388 . S
C1406 C1407 1.366 . S
C1407 C1406 1.366 . S
C1407 C1408 1.414 . S
C1407 C1410 1.499 . S
C1408 H1388 0.950 . S
C1408 C1407 1.414 . S
C1408 C1409 1.374 . S
C1409 H1389 0.950 . S
C1409 C1405 1.385 . S
C1409 C1408 1.374 . S
C1410 C1407 1.499 . S
C1410 C1411 1.373 . S
C1410 C1412 1.389 . S
C1411 H1390 0.950 . S
C1411 C1410 1.373 . S
C1411 C1427 1.377 . S
C1412 C1410 1.389 . S
C1412 C1413 1.524 . S
C1412 C1426 1.377 . S
C1413 C1412 1.524 . S
C1413 C1414 1.397 . S
C1413 C1418 1.363 . S
C1414 H1391 0.950 . S
C1414 C1413 1.397 . S
C1414 C1415 1.334 . S
C1415 H1392 0.950 . S
C1415 C1414 1.334 . S
C1415 C1416 1.287 . S
C1416 C1415 1.287 . S
C1416 C1417 1.524 . S
C1416 H1435 0.913 1_556 S
C1417 H1393 0.950 1_556 S
C1417 C1416 1.524 . S
C1417 C1418 1.415 . S
C1418 H1394 0.950 . S
C1418 C1413 1.363 . S
C1418 C1417 1.415 . S
C1419 H1395 0.951 . S
C1419 C1420 1.366 . S
C1419 C1421 1.388 . S
C1420 C1419 1.366 . S
C1420 C1424 1.385 . S
C1421 H1396 0.951 . S
C1421 C1419 1.388 . S
C1421 C1422 1.366 . S
C1422 C1421 1.366 . S
C1422 C1423 1.414 . S
C1422 C1425 1.499 . S
C1423 H1397 0.950 . S
C1423 C1422 1.414 . S
C1423 C1424 1.374 . S
C1424 H1398 0.950 . S
C1424 C1420 1.385 . S
C1424 C1423 1.374 . S
C1425 C1422 1.499 . S
C1425 C1426 1.373 . S
C1425 C1427 1.389 . S
C1426 H1399 0.950 . S
C1426 C1412 1.377 . S
C1426 C1425 1.373 . S
C1427 C1411 1.377 . S
C1427 C1425 1.389 . S
C1427 C1428 1.524 . S
C1428 C1427 1.524 . S
C1428 C1429 1.397 . S
C1428 C1433 1.363 . S
C1429 H1400 0.950 . S
C1429 C1428 1.397 . S
C1429 C1430 1.334 . S
C1430 H1401 0.950 . S
C1430 C1429 1.334 . S
C1430 C1431 1.287 . S
C1431 C1430 1.287 . S
C1431 C1432 1.524 . S
C1431 H1434 0.999 . S
C1432 H1402 0.950 . S
C1432 C1431 1.524 . S
C1432 C1433 1.415 . S
C1433 H1403 0.950 . S
C1433 C1428 1.363 . S
C1433 C1432 1.415 . S
H1434 C1431 0.999 . S
H1435 C1416 0.913 1_554 S
H1436 C1454 0.951 . S
H1437 C1456 0.951 . S
H1438 C1458 0.950 . S
H1439 C1459 0.950 . S
H1440 C1461 0.950 . S
H1441 C1464 0.950 . S
H1442 C1465 0.950 . S
H1443 C1467 0.950 . S
H1444 C1468 0.950 . S
H1445 C1469 0.951 . S
H1446 C1471 0.951 . S
H1447 C1473 0.950 . S
H1448 C1474 0.950 . S
H1449 C1476 0.950 . S
H1450 C1479 0.950 . S
H1451 C1480 0.950 . S
H1452 C1482 0.950 . S
H1453 C1483 0.950 . S
C1454 H1436 0.951 . S
C1454 C1455 1.366 . S
C1454 C1456 1.388 . S
C1455 C1454 1.366 . S
C1455 C1459 1.385 . S
C1456 H1437 0.951 . S
C1456 C1454 1.388 . S
C1456 C1457 1.366 . S
C1457 C1456 1.366 . S
C1457 C1458 1.414 . S
C1457 C1460 1.499 . S
C1458 H1438 0.950 . S
C1458 C1457 1.414 . S
C1458 C1459 1.374 . S
C1459 H1439 0.950 . S
C1459 C1455 1.385 . S
C1459 C1458 1.374 . S
C1460 C1457 1.499 . S
C1460 C1461 1.373 . S
C1460 C1462 1.389 . S
C1461 H1440 0.950 . S
C1461 C1460 1.373 . S
C1461 C1477 1.377 . S
C1462 C1460 1.389 . S
C1462 C1463 1.524 . S
C1462 C1476 1.377 . S
C1463 C1462 1.524 . S
C1463 C1464 1.397 . S
C1463 C1468 1.363 . S
C1464 H1441 0.950 . S
C1464 C1463 1.397 . S
C1464 C1465 1.334 . S
C1465 H1442 0.950 . S
C1465 C1464 1.334 . S
C1465 C1466 1.287 . S
C1466 C1465 1.287 . S
C1466 C1467 1.524 . S
C1466 H1485 0.913 . S
C1467 H1443 0.950 . S
C1467 C1466 1.524 . S
C1467 C1468 1.415 . S
C1468 H1444 0.950 . S
C1468 C1463 1.363 . S
C1468 C1467 1.415 . S
C1469 H1445 0.951 . S
C1469 C1470 1.366 . S
C1469 C1471 1.388 . S
C1470 C1469 1.366 . S
C1470 C1474 1.385 . S
C1471 H1446 0.951 . S
C1471 C1469 1.388 . S
C1471 C1472 1.366 . S
C1472 C1471 1.366 . S
C1472 C1473 1.414 . S
C1472 C1475 1.499 . S
C1473 H1447 0.950 . S
C1473 C1472 1.414 . S
C1473 C1474 1.374 . S
C1474 H1448 0.950 . S
C1474 C1470 1.385 . S
C1474 C1473 1.374 . S
C1475 C1472 1.499 . S
C1475 C1476 1.373 . S
C1475 C1477 1.389 . S
C1476 H1449 0.950 . S
C1476 C1462 1.377 . S
C1476 C1475 1.373 . S
C1477 C1461 1.377 . S
C1477 C1475 1.389 . S
C1477 C1478 1.524 . S
C1478 C1477 1.524 . S
C1478 C1479 1.397 . S
C1478 C1483 1.363 . S
C1479 H1450 0.950 . S
C1479 C1478 1.397 . S
C1479 C1480 1.334 . S
C1480 H1451 0.950 . S
C1480 C1479 1.334 . S
C1480 C1481 1.287 . S
C1481 C1480 1.287 . S
C1481 C1482 1.524 . S
C1481 H1484 0.999 . S
C1482 H1452 0.950 . S
C1482 C1481 1.524 . S
C1482 C1483 1.415 . S
C1483 H1453 0.950 . S
C1483 C1478 1.363 . S
C1483 C1482 1.415 . S
H1484 C1481 0.999 . S
H1485 C1466 0.913 . S
H1486 C1504 0.951 . S
H1487 C1506 0.951 . S
H1488 C1508 0.950 . S
H1489 C1509 0.950 . S
H1490 C1511 0.950 . S
H1491 C1514 0.950 . S
H1492 C1515 0.950 . S
H1493 C1517 0.950 1_554 S
H1494 C1518 0.950 . S
H1495 C1519 0.951 . S
H1496 C1521 0.951 . S
H1497 C1523 0.950 . S
H1498 C1524 0.950 . S
H1499 C1526 0.950 . S
H1500 C1529 0.950 . S
H1501 C1530 0.950 . S
H1502 C1532 0.950 . S
H1503 C1533 0.950 . S
C1504 H1486 0.951 . S
C1504 C1505 1.366 . S
C1504 C1506 1.388 . S
C1505 C1504 1.366 . S
C1505 C1509 1.385 . S
C1506 H1487 0.951 . S
C1506 C1504 1.388 . S
C1506 C1507 1.366 . S
C1507 C1506 1.366 . S
C1507 C1508 1.414 . S
C1507 C1510 1.499 . S
C1508 H1488 0.950 . S
C1508 C1507 1.414 . S
C1508 C1509 1.374 . S
C1509 H1489 0.950 . S
C1509 C1505 1.385 . S
C1509 C1508 1.374 . S
C1510 C1507 1.499 . S
C1510 C1511 1.373 . S
C1510 C1512 1.389 . S
C1511 H1490 0.950 . S
C1511 C1510 1.373 . S
C1511 C1527 1.377 . S
C1512 C1510 1.389 . S
C1512 C1513 1.524 . S
C1512 C1526 1.377 . S
C1513 C1512 1.524 . S
C1513 C1514 1.397 . S
C1513 C1518 1.363 . S
C1514 H1491 0.950 . S
C1514 C1513 1.397 . S
C1514 C1515 1.334 . S
C1515 H1492 0.950 . S
C1515 C1514 1.334 . S
C1515 C1516 1.287 . S
C1516 C1515 1.287 . S
C1516 C1517 1.524 . S
C1516 H1535 0.913 . S
C1517 H1493 0.950 1_556 S
C1517 C1516 1.524 . S
C1517 C1518 1.415 . S
C1518 H1494 0.950 . S
C1518 C1513 1.363 . S
C1518 C1517 1.415 . S
C1519 H1495 0.951 . S
C1519 C1520 1.366 . S
C1519 C1521 1.388 . S
C1520 C1519 1.366 . S
C1520 C1524 1.385 . S
C1521 H1496 0.951 . S
C1521 C1519 1.388 . S
C1521 C1522 1.366 . S
C1522 C1521 1.366 . S
C1522 C1523 1.414 . S
C1522 C1525 1.499 . S
C1523 H1497 0.950 . S
C1523 C1522 1.414 . S
C1523 C1524 1.374 . S
C1524 H1498 0.950 . S
C1524 C1520 1.385 . S
C1524 C1523 1.374 . S
C1525 C1522 1.499 . S
C1525 C1526 1.373 . S
C1525 C1527 1.389 . S
C1526 H1499 0.950 . S
C1526 C1512 1.377 . S
C1526 C1525 1.373 . S
C1527 C1511 1.377 . S
C1527 C1525 1.389 . S
C1527 C1528 1.524 . S
C1528 C1527 1.524 . S
C1528 C1529 1.397 . S
C1528 C1533 1.363 . S
C1529 H1500 0.950 . S
C1529 C1528 1.397 . S
C1529 C1530 1.334 . S
C1530 H1501 0.950 . S
C1530 C1529 1.334 . S
C1530 C1531 1.287 . S
C1531 C1530 1.287 . S
C1531 C1532 1.524 . S
C1531 H1534 0.999 . S
C1532 H1502 0.950 . S
C1532 C1531 1.524 . S
C1532 C1533 1.415 . S
C1533 H1503 0.950 . S
C1533 C1528 1.363 . S
C1533 C1532 1.415 . S
H1534 C1531 0.999 . S
H1535 C1516 0.913 . S
H1536 C1554 0.951 . S
H1537 C1556 0.951 . S
H1538 C1558 0.950 . S
H1539 C1559 0.950 . S
H1540 C1561 0.950 . S
H1541 C1564 0.950 . S
H1542 C1565 0.972 . S
H1543 C1567 0.950 . S
H1544 C1568 0.950 . S
H1545 C1569 0.951 . S
H1546 C1571 0.951 . S
H1547 C1573 0.950 . S
H1548 C1574 0.950 . S
H1549 C1576 0.950 . S
H1550 C1579 0.950 . S
H1551 C1580 0.972 . S
H1552 C1582 0.950 . S
H1553 C1583 0.950 . S
C1554 H1536 0.951 . S
C1554 C1555 1.366 . S
C1554 C1556 1.388 . S
C1555 C1554 1.366 . S
C1555 C1559 1.385 . S
C1556 H1537 0.951 . S
C1556 C1554 1.388 . S
C1556 C1557 1.366 . S
C1557 C1556 1.366 . S
C1557 C1558 1.414 . S
C1557 C1560 1.499 . S
C1558 H1538 0.950 . S
C1558 C1557 1.414 . S
C1558 C1559 1.374 . S
C1559 H1539 0.950 . S
C1559 C1555 1.385 . S
C1559 C1558 1.374 . S
C1560 C1557 1.499 . S
C1560 C1561 1.373 1_565 S
C1560 C1562 1.389 1_556 S
C1561 H1540 0.950 . S
C1561 C1560 1.373 1_545 S
C1561 C1577 1.377 . S
C1562 C1560 1.389 1_554 S
C1562 C1563 1.524 . S
C1562 C1576 1.377 . S
C1563 C1562 1.524 . S
C1563 C1564 1.397 1_554 S
C1563 C1568 1.363 . S
C1564 H1541 0.950 . S
C1564 C1563 1.397 1_556 S
C1564 C1565 1.340 . S
C1565 H1542 0.972 . S
C1565 C1564 1.340 . S
C1565 C1566 1.259 1_556 S
C1566 C1565 1.259 1_554 S
C1566 C1567 1.524 . S
C1566 H1585 0.913 . S
C1567 H1543 0.950 . S
C1567 C1566 1.524 . S
C1567 C1568 1.415 . S
C1568 H1544 0.950 . S
C1568 C1563 1.363 . S
C1568 C1567 1.415 . S
C1569 H1545 0.951 . S
C1569 C1570 1.366 . S
C1569 C1571 1.388 . S
C1570 C1569 1.366 . S
C1570 C1574 1.385 . S
C1571 H1546 0.951 . S
C1571 C1569 1.388 . S
C1571 C1572 1.366 . S
C1572 C1571 1.366 . S
C1572 C1573 1.414 . S
C1572 C1575 1.499 . S
C1573 H1547 0.950 . S
C1573 C1572 1.414 . S
C1573 C1574 1.374 . S
C1574 H1548 0.950 . S
C1574 C1570 1.385 . S
C1574 C1573 1.374 . S
C1575 C1572 1.499 . S
C1575 C1576 1.373 1_545 S
C1575 C1577 1.389 1_554 S
C1576 H1549 0.950 . S
C1576 C1562 1.377 . S
C1576 C1575 1.373 1_565 S
C1577 C1561 1.377 . S
C1577 C1575 1.389 1_556 S
C1577 C1578 1.524 . S
C1578 C1577 1.524 . S
C1578 C1579 1.397 1_556 S
C1578 C1583 1.363 . S
C1579 H1550 0.950 . S
C1579 C1578 1.397 1_554 S
C1579 C1580 1.340 . S
C1580 H1551 0.972 . S
C1580 C1579 1.340 . S
C1580 C1581 1.259 1_554 S
C1581 C1580 1.259 1_556 S
C1581 C1582 1.524 . S
C1581 H1584 0.999 . S
C1582 H1552 0.950 . S
C1582 C1581 1.524 . S
C1582 C1583 1.415 . S
C1583 H1553 0.950 . S
C1583 C1578 1.363 . S
C1583 C1582 1.415 . S
H1584 C1581 0.999 . S
H1585 C1566 0.913 . S
H1586 C1604 0.951 . S
H1587 C1606 0.951 . S
H1588 C1608 0.950 . S
H1589 C1609 0.950 . S
H1590 C1611 0.950 . S
H1591 C1614 0.950 . S
H1592 C1615 0.950 . S
H1593 C1617 0.950 . S
H1594 C1618 0.950 . S
H1595 C1619 0.951 . S
H1596 C1621 0.951 . S
H1597 C1623 0.950 . S
H1598 C1624 0.950 . S
H1599 C1626 0.950 . S
H1600 C1629 0.950 . S
H1601 C1630 0.950 . S
H1602 C1632 0.950 . S
H1603 C1633 0.950 . S
C1604 H1586 0.951 . S
C1604 C1605 1.366 . S
C1604 C1606 1.388 . S
C1605 C1604 1.366 . S
C1605 C1609 1.385 . S
C1606 H1587 0.951 . S
C1606 C1604 1.388 . S
C1606 C1607 1.366 . S
C1607 C1606 1.366 . S
C1607 C1608 1.414 . S
C1607 C1610 1.499 . S
C1608 H1588 0.950 . S
C1608 C1607 1.414 . S
C1608 C1609 1.374 . S
C1609 H1589 0.950 . S
C1609 C1605 1.385 . S
C1609 C1608 1.374 . S
C1610 C1607 1.499 . S
C1610 C1611 1.373 . S
C1610 C1612 1.389 . S
C1611 H1590 0.950 . S
C1611 C1610 1.373 . S
C1611 C1627 1.377 . S
C1612 C1610 1.389 . S
C1612 C1613 1.524 . S
C1612 C1626 1.377 . S
C1613 C1612 1.524 . S
C1613 C1614 1.397 . S
C1613 C1618 1.363 . S
C1614 H1591 0.950 . S
C1614 C1613 1.397 . S
C1614 C1615 1.334 . S
C1615 H1592 0.950 . S
C1615 C1614 1.334 . S
C1615 C1616 1.287 . S
C1616 C1615 1.287 . S
C1616 C1617 1.524 . S
C1616 H1635 0.913 . S
C1617 H1593 0.950 . S
C1617 C1616 1.524 . S
C1617 C1618 1.415 . S
C1618 H1594 0.950 . S
C1618 C1613 1.363 . S
C1618 C1617 1.415 . S
C1619 H1595 0.951 . S
C1619 C1620 1.366 . S
C1619 C1621 1.388 . S
C1620 C1619 1.366 . S
C1620 C1624 1.385 . S
C1621 H1596 0.951 . S
C1621 C1619 1.388 . S
C1621 C1622 1.366 . S
C1622 C1621 1.366 . S
C1622 C1623 1.414 . S
C1622 C1625 1.499 . S
C1623 H1597 0.950 . S
C1623 C1622 1.414 . S
C1623 C1624 1.374 . S
C1624 H1598 0.950 . S
C1624 C1620 1.385 . S
C1624 C1623 1.374 . S
C1625 C1622 1.499 . S
C1625 C1626 1.373 . S
C1625 C1627 1.389 . S
C1626 H1599 0.950 . S
C1626 C1612 1.377 . S
C1626 C1625 1.373 . S
C1627 C1611 1.377 . S
C1627 C1625 1.389 . S
C1627 C1628 1.524 . S
C1628 C1627 1.524 . S
C1628 C1629 1.397 . S
C1628 C1633 1.363 . S
C1629 H1600 0.950 . S
C1629 C1628 1.397 . S
C1629 C1630 1.334 . S
C1630 H1601 0.950 . S
C1630 C1629 1.334 . S
C1630 C1631 1.287 . S
C1631 C1630 1.287 . S
C1631 C1632 1.524 . S
C1631 H1634 0.999 . S
C1632 H1602 0.950 . S
C1632 C1631 1.524 . S
C1632 C1633 1.415 . S
C1633 H1603 0.950 . S
C1633 C1628 1.363 . S
C1633 C1632 1.415 . S
H1634 C1631 0.999 . S
H1635 C1616 0.913 . S
H1636 C1654 0.951 . S
H1637 C1656 0.951 . S
H1638 C1658 0.950 . S
H1639 C1659 0.950 . S
H1640 C1661 0.950 . S
H1641 C1664 0.954 . S
H1642 C1665 0.950 1_455 S
H1643 C1667 0.950 . S
H1644 C1668 0.950 . S
H1645 C1669 0.951 . S
H1646 C1671 0.951 . S
H1647 C1673 0.950 . S
H1648 C1674 0.950 . S
H1649 C1676 0.950 . S
H1650 C1679 0.955 . S
H1651 C1680 0.950 1_655 S
H1652 C1682 0.950 . S
H1653 C1683 0.950 . S
C1654 H1636 0.951 . S
C1654 C1655 1.366 . S
C1654 C1656 1.388 . S
C1655 C1654 1.366 . S
C1655 C1659 1.385 . S
C1656 H1637 0.951 . S
C1656 C1654 1.388 . S
C1656 C1657 1.366 . S
C1657 C1656 1.366 . S
C1657 C1658 1.414 . S
C1657 C1660 1.499 . S
C1658 H1638 0.950 . S
C1658 C1657 1.414 . S
C1658 C1659 1.374 . S
C1659 H1639 0.950 . S
C1659 C1655 1.385 . S
C1659 C1658 1.374 . S
C1660 C1657 1.499 . S
C1660 C1661 1.373 1_556 S
C1660 C1662 1.389 1_455 S
C1661 H1640 0.950 . S
C1661 C1660 1.373 1_554 S
C1661 C1677 1.377 . S
C1662 C1660 1.389 1_655 S
C1662 C1663 1.524 . S
C1662 C1676 1.377 . S
C1663 C1662 1.524 . S
C1663 C1664 1.397 1_655 S
C1663 C1668 1.363 . S
C1664 H1641 0.954 . S
C1664 C1663 1.397 1_455 S
C1664 C1665 1.330 1_455 S
C1665 H1642 0.950 1_655 S
C1665 C1664 1.330 1_655 S
C1665 C1666 1.287 . S
C1666 C1665 1.287 . S
C1666 C1667 1.524 . S
C1666 H1685 0.913 . S
C1667 H1643 0.950 . S
C1667 C1666 1.524 . S
C1667 C1668 1.415 . S
C1668 H1644 0.950 . S
C1668 C1663 1.363 . S
C1668 C1667 1.415 . S
C1669 H1645 0.951 . S
C1669 C1670 1.366 . S
C1669 C1671 1.388 . S
C1670 C1669 1.366 . S
C1670 C1674 1.385 . S
C1671 H1646 0.951 . S
C1671 C1669 1.388 . S
C1671 C1672 1.366 . S
C1672 C1671 1.366 . S
C1672 C1673 1.414 . S
C1672 C1675 1.499 . S
C1673 H1647 0.950 . S
C1673 C1672 1.414 . S
C1673 C1674 1.374 . S
C1674 H1648 0.950 . S
C1674 C1670 1.385 . S
C1674 C1673 1.374 . S
C1675 C1672 1.499 . S
C1675 C1676 1.373 1_554 S
C1675 C1677 1.389 1_655 S
C1676 H1649 0.950 . S
C1676 C1662 1.377 . S
C1676 C1675 1.373 1_556 S
C1677 C1661 1.377 . S
C1677 C1675 1.389 1_455 S
C1677 C1678 1.524 . S
C1678 C1677 1.524 . S
C1678 C1679 1.397 1_455 S
C1678 C1683 1.363 . S
C1679 H1650 0.955 . S
C1679 C1678 1.397 1_655 S
C1679 C1680 1.329 1_655 S
C1680 H1651 0.950 1_455 S
C1680 C1679 1.329 1_455 S
C1680 C1681 1.287 . S
C1681 C1680 1.287 . S
C1681 C1682 1.524 . S
C1681 H1684 0.999 . S
C1682 H1652 0.950 . S
C1682 C1681 1.524 . S
C1682 C1683 1.415 . S
C1683 H1653 0.950 . S
C1683 C1678 1.363 . S
C1683 C1682 1.415 . S
H1684 C1681 0.999 . S
H1685 C1666 0.913 . S
H1686 C1704 0.951 . S
H1687 C1706 0.951 . S
H1688 C1708 0.950 . S
H1689 C1709 0.950 . S
H1690 C1711 0.950 . S
H1691 C1714 0.950 . S
H1692 C1715 0.950 . S
H1693 C1717 0.950 . S
H1694 C1718 0.950 . S
H1695 C1719 0.951 . S
H1696 C1721 0.951 . S
H1697 C1723 0.950 . S
H1698 C1724 0.950 . S
H1699 C1726 0.950 . S
H1700 C1729 0.950 . S
H1701 C1730 0.950 . S
H1702 C1732 0.950 . S
H1703 C1733 0.950 . S
C1704 H1686 0.951 . S
C1704 C1705 1.366 . S
C1704 C1706 1.388 . S
C1705 C1704 1.366 . S
C1705 C1709 1.385 . S
C1706 H1687 0.951 . S
C1706 C1704 1.388 . S
C1706 C1707 1.366 . S
C1707 C1706 1.366 . S
C1707 C1708 1.414 . S
C1707 C1710 1.499 . S
C1708 H1688 0.950 . S
C1708 C1707 1.414 . S
C1708 C1709 1.374 . S
C1709 H1689 0.950 . S
C1709 C1705 1.385 . S
C1709 C1708 1.374 . S
C1710 C1707 1.499 . S
C1710 C1711 1.373 . S
C1710 C1712 1.389 . S
C1711 H1690 0.950 . S
C1711 C1710 1.373 . S
C1711 C1727 1.377 1_545 S
C1712 C1710 1.389 . S
C1712 C1713 1.524 . S
C1712 C1726 1.377 1_545 S
C1713 C1712 1.524 . S
C1713 C1714 1.397 . S
C1713 C1718 1.363 . S
C1714 H1691 0.950 . S
C1714 C1713 1.397 . S
C1714 C1715 1.334 . S
C1715 H1692 0.950 . S
C1715 C1714 1.334 . S
C1715 C1716 1.287 . S
C1716 C1715 1.287 . S
C1716 C1717 1.524 . S
C1716 H1735 0.913 . S
C1717 H1693 0.950 . S
C1717 C1716 1.524 . S
C1717 C1718 1.415 . S
C1718 H1694 0.950 . S
C1718 C1713 1.363 . S
C1718 C1717 1.415 . S
C1719 H1695 0.951 . S
C1719 C1720 1.366 . S
C1719 C1721 1.388 . S
C1720 C1719 1.366 . S
C1720 C1724 1.385 . S
C1721 H1696 0.951 . S
C1721 C1719 1.388 . S
C1721 C1722 1.366 . S
C1722 C1721 1.366 . S
C1722 C1723 1.414 . S
C1722 C1725 1.499 . S
C1723 H1697 0.950 . S
C1723 C1722 1.414 . S
C1723 C1724 1.374 . S
C1724 H1698 0.950 . S
C1724 C1720 1.385 . S
C1724 C1723 1.374 . S
C1725 C1722 1.499 . S
C1725 C1726 1.373 . S
C1725 C1727 1.389 . S
C1726 H1699 0.950 . S
C1726 C1712 1.377 1_565 S
C1726 C1725 1.373 . S
C1727 C1711 1.377 1_565 S
C1727 C1725 1.389 . S
C1727 C1728 1.524 . S
C1728 C1727 1.524 . S
C1728 C1729 1.397 . S
C1728 C1733 1.363 . S
C1729 H1700 0.950 . S
C1729 C1728 1.397 . S
C1729 C1730 1.334 . S
C1730 H1701 0.950 . S
C1730 C1729 1.334 . S
C1730 C1731 1.287 . S
C1731 C1730 1.287 . S
C1731 C1732 1.524 . S
C1731 H1734 0.999 . S
C1732 H1702 0.950 . S
C1732 C1731 1.524 . S
C1732 C1733 1.415 . S
C1733 H1703 0.950 . S
C1733 C1728 1.363 . S
C1733 C1732 1.415 . S
H1734 C1731 0.999 . S
H1735 C1716 0.913 . S
H1736 C1754 0.951 . S
H1737 C1756 0.951 . S
H1738 C1758 0.950 . S
H1739 C1759 0.950 . S
H1740 C1761 0.950 . S
H1741 C1764 0.947 1_556 S
H1742 C1765 0.947 1_556 S
H1743 C1767 0.950 . S
H1744 C1768 0.950 . S
H1745 C1769 0.951 . S
H1746 C1771 0.951 . S
H1747 C1773 0.950 . S
H1748 C1774 0.950 . S
H1749 C1776 0.950 . S
H1750 C1779 0.947 1_554 S
H1751 C1780 0.946 1_554 S
H1752 C1782 0.950 . S
H1753 C1783 0.950 . S
C1754 H1736 0.951 . S
C1754 C1755 1.366 . S
C1754 C1756 1.388 . S
C1755 C1754 1.366 . S
C1755 C1759 1.385 . S
C1756 H1737 0.951 . S
C1756 C1754 1.388 . S
C1756 C1757 1.366 . S
C1757 C1756 1.366 . S
C1757 C1758 1.414 . S
C1757 C1760 1.499 . S
C1758 H1738 0.950 . S
C1758 C1757 1.414 . S
C1758 C1759 1.374 . S
C1759 H1739 0.950 . S
C1759 C1755 1.385 . S
C1759 C1758 1.374 . S
C1760 C1757 1.499 . S
C1760 C1761 1.373 . S
C1760 C1762 1.389 . S
C1761 H1740 0.950 . S
C1761 C1760 1.373 . S
C1761 C1777 1.377 1_554 S
C1762 C1760 1.389 . S
C1762 C1763 1.524 . S
C1762 C1776 1.377 1_554 S
C1763 C1762 1.524 . S
C1763 C1764 1.399 . S
C1763 C1768 1.363 . S
C1764 H1741 0.947 1_554 S
C1764 C1763 1.399 . S
C1764 C1765 1.334 . S
C1765 H1742 0.947 1_554 S
C1765 C1764 1.334 . S
C1765 C1766 1.292 . S
C1766 C1765 1.292 . S
C1766 C1767 1.524 . S
C1766 H1785 0.913 . S
C1767 H1743 0.950 . S
C1767 C1766 1.524 . S
C1767 C1768 1.415 . S
C1768 H1744 0.950 . S
C1768 C1763 1.363 . S
C1768 C1767 1.415 . S
C1769 H1745 0.951 . S
C1769 C1770 1.366 . S
C1769 C1771 1.388 . S
C1770 C1769 1.366 . S
C1770 C1774 1.385 . S
C1771 H1746 0.951 . S
C1771 C1769 1.388 . S
C1771 C1772 1.366 . S
C1772 C1771 1.366 . S
C1772 C1773 1.414 . S
C1772 C1775 1.499 . S
C1773 H1747 0.950 . S
C1773 C1772 1.414 . S
C1773 C1774 1.374 . S
C1774 H1748 0.950 . S
C1774 C1770 1.385 . S
C1774 C1773 1.374 . S
C1775 C1772 1.499 . S
C1775 C1776 1.373 . S
C1775 C1777 1.389 . S
C1776 H1749 0.950 . S
C1776 C1762 1.377 1_556 S
C1776 C1775 1.373 . S
C1777 C1761 1.377 1_556 S
C1777 C1775 1.389 . S
C1777 C1778 1.524 . S
C1778 C1777 1.524 . S
C1778 C1779 1.399 . S
C1778 C1783 1.363 . S
C1779 H1750 0.947 1_556 S
C1779 C1778 1.399 . S
C1779 C1780 1.334 . S
C1780 H1751 0.946 1_556 S
C1780 C1779 1.334 . S
C1780 C1781 1.292 . S
C1781 C1780 1.292 . S
C1781 C1782 1.524 . S
C1781 H1784 0.999 . S
C1782 H1752 0.950 . S
C1782 C1781 1.524 . S
C1782 C1783 1.415 . S
C1783 H1753 0.950 . S
C1783 C1778 1.363 . S
C1783 C1782 1.415 . S
H1784 C1781 0.999 . S
H1785 C1766 0.913 . S
H1786 C1804 0.951 . S
H1787 C1806 0.951 . S
H1788 C1808 0.950 . S
H1789 C1809 0.950 . S
H1790 C1811 0.950 . S
H1791 C1814 0.950 . S
H1792 C1815 0.950 . S
H1793 C1817 0.950 . S
H1794 C1818 0.950 . S
H1795 C1819 0.951 . S
H1796 C1821 0.951 . S
H1797 C1823 0.950 . S
H1798 C1824 0.950 . S
H1799 C1826 0.950 . S
H1800 C1829 0.950 . S
H1801 C1830 0.950 . S
H1802 C1832 0.950 . S
H1803 C1833 0.950 . S
C1804 H1786 0.951 . S
C1804 C1805 1.366 . S
C1804 C1806 1.388 . S
C1805 C1804 1.366 . S
C1805 C1809 1.385 . S
C1806 H1787 0.951 . S
C1806 C1804 1.388 . S
C1806 C1807 1.366 . S
C1807 C1806 1.366 . S
C1807 C1808 1.414 . S
C1807 C1810 1.499 . S
C1808 H1788 0.950 . S
C1808 C1807 1.414 . S
C1808 C1809 1.374 . S
C1809 H1789 0.950 . S
C1809 C1805 1.385 . S
C1809 C1808 1.374 . S
C1810 C1807 1.499 . S
C1810 C1811 1.373 1_455 S
C1810 C1812 1.389 . S
C1811 H1790 0.950 . S
C1811 C1810 1.373 1_655 S
C1811 C1827 1.377 . S
C1812 C1810 1.389 . S
C1812 C1813 1.524 . S
C1812 C1826 1.377 . S
C1813 C1812 1.524 . S
C1813 C1814 1.397 . S
C1813 C1818 1.363 . S
C1814 H1791 0.950 . S
C1814 C1813 1.397 . S
C1814 C1815 1.334 . S
C1815 H1792 0.950 . S
C1815 C1814 1.334 . S
C1815 C1816 1.287 . S
C1816 C1815 1.287 . S
C1816 C1817 1.524 . S
C1816 H1835 0.913 . S
C1817 H1793 0.950 . S
C1817 C1816 1.524 . S
C1817 C1818 1.415 . S
C1818 H1794 0.950 . S
C1818 C1813 1.363 . S
C1818 C1817 1.415 . S
C1819 H1795 0.951 . S
C1819 C1820 1.366 . S
C1819 C1821 1.388 . S
C1820 C1819 1.366 . S
C1820 C1824 1.385 . S
C1821 H1796 0.951 . S
C1821 C1819 1.388 . S
C1821 C1822 1.366 . S
C1822 C1821 1.366 . S
C1822 C1823 1.414 . S
C1822 C1825 1.499 . S
C1823 H1797 0.950 . S
C1823 C1822 1.414 . S
C1823 C1824 1.374 . S
C1824 H1798 0.950 . S
C1824 C1820 1.385 . S
C1824 C1823 1.374 . S
C1825 C1822 1.499 . S
C1825 C1826 1.373 1_655 S
C1825 C1827 1.389 . S
C1826 H1799 0.950 . S
C1826 C1812 1.377 . S
C1826 C1825 1.373 1_455 S
C1827 C1811 1.377 . S
C1827 C1825 1.389 . S
C1827 C1828 1.524 . S
C1828 C1827 1.524 . S
C1828 C1829 1.397 . S
C1828 C1833 1.363 . S
C1829 H1800 0.950 . S
C1829 C1828 1.397 . S
C1829 C1830 1.334 . S
C1830 H1801 0.950 . S
C1830 C1829 1.334 . S
C1830 C1831 1.287 . S
C1831 C1830 1.287 . S
C1831 C1832 1.524 . S
C1831 H1834 0.999 . S
C1832 H1802 0.950 . S
C1832 C1831 1.524 . S
C1832 C1833 1.415 . S
C1833 H1803 0.950 . S
C1833 C1828 1.363 . S
C1833 C1832 1.415 . S
H1834 C1831 0.999 . S
H1835 C1816 0.913 . S
H1836 C1854 0.951 . S
H1837 C1856 0.951 . S
H1838 C1858 0.950 . S
H1839 C1859 0.950 . S
H1840 C1861 0.950 . S
H1841 C1864 0.950 1_565 S
H1842 C1865 0.950 . S
H1843 C1867 0.950 . S
H1844 C1868 0.950 . S
H1845 C1869 0.951 . S
H1846 C1871 0.951 . S
H1847 C1873 0.950 . S
H1848 C1874 0.950 . S
H1849 C1876 0.950 . S
H1850 C1879 0.950 1_545 S
H1851 C1880 0.950 . S
H1852 C1882 0.950 . S
H1853 C1883 0.950 . S
C1854 H1836 0.951 . S
C1854 C1855 1.366 . S
C1854 C1856 1.388 . S
C1855 C1854 1.366 . S
C1855 C1859 1.385 . S
C1856 H1837 0.951 . S
C1856 C1854 1.388 . S
C1856 C1857 1.366 . S
C1857 C1856 1.366 . S
C1857 C1858 1.414 . S
C1857 C1860 1.499 . S
C1858 H1838 0.950 . S
C1858 C1857 1.414 . S
C1858 C1859 1.374 . S
C1859 H1839 0.950 . S
C1859 C1855 1.385 . S
C1859 C1858 1.374 . S
C1860 C1857 1.499 . S
C1860 C1861 1.373 1_556 S
C1860 C1862 1.389 1_565 S
C1861 H1840 0.950 . S
C1861 C1860 1.373 1_554 S
C1861 C1877 1.377 . S
C1862 C1860 1.389 1_545 S
C1862 C1863 1.524 . S
C1862 C1876 1.377 . S
C1863 C1862 1.524 . S
C1863 C1864 1.397 . S
C1863 C1868 1.363 . S
C1864 H1841 0.950 1_545 S
C1864 C1863 1.397 . S
C1864 C1865 1.334 . S
C1865 H1842 0.950 . S
C1865 C1864 1.334 . S
C1865 C1866 1.287 . S
C1866 C1865 1.287 . S
C1866 C1867 1.524 . S
C1866 H1885 0.913 . S
C1867 H1843 0.950 . S
C1867 C1866 1.524 . S
C1867 C1868 1.415 . S
C1868 H1844 0.950 . S
C1868 C1863 1.363 . S
C1868 C1867 1.415 . S
C1869 H1845 0.951 . S
C1869 C1870 1.366 . S
C1869 C1871 1.388 . S
C1870 C1869 1.366 . S
C1870 C1874 1.385 . S
C1871 H1846 0.951 . S
C1871 C1869 1.388 . S
C1871 C1872 1.366 . S
C1872 C1871 1.366 . S
C1872 C1873 1.414 . S
C1872 C1875 1.499 . S
C1873 H1847 0.950 . S
C1873 C1872 1.414 . S
C1873 C1874 1.374 . S
C1874 H1848 0.950 . S
C1874 C1870 1.385 . S
C1874 C1873 1.374 . S
C1875 C1872 1.499 . S
C1875 C1876 1.373 1_554 S
C1875 C1877 1.389 1_545 S
C1876 H1849 0.950 . S
C1876 C1862 1.377 . S
C1876 C1875 1.373 1_556 S
C1877 C1861 1.377 . S
C1877 C1875 1.389 1_565 S
C1877 C1878 1.524 . S
C1878 C1877 1.524 . S
C1878 C1879 1.397 . S
C1878 C1883 1.363 . S
C1879 H1850 0.950 1_565 S
C1879 C1878 1.397 . S
C1879 C1880 1.334 . S
C1880 H1851 0.950 . S
C1880 C1879 1.334 . S
C1880 C1881 1.287 . S
C1881 C1880 1.287 . S
C1881 C1882 1.524 . S
C1881 H1884 0.999 . S
C1882 H1852 0.950 . S
C1882 C1881 1.524 . S
C1882 C1883 1.415 . S
C1883 H1853 0.950 . S
C1883 C1878 1.363 . S
C1883 C1882 1.415 . S
H1884 C1881 0.999 . S
H1885 C1866 0.913 . S
H1886 C1904 0.951 . S
H1887 C1906 0.951 . S
H1888 C1908 0.950 . S
H1889 C1909 0.950 . S
H1890 C1911 0.950 . S
H1891 C1914 0.950 . S
H1892 C1915 0.950 . S
H1893 C1917 0.950 . S
H1894 C1918 0.950 . S
H1895 C1919 0.951 . S
H1896 C1921 0.951 . S
H1897 C1923 0.950 . S
H1898 C1924 0.950 . S
H1899 C1926 0.950 . S
H1900 C1929 0.950 . S
H1901 C1930 0.950 . S
H1902 C1932 0.950 . S
H1903 C1933 0.950 . S
C1904 H1886 0.951 . S
C1904 C1905 1.366 . S
C1904 C1906 1.388 . S
C1905 C1904 1.366 . S
C1905 C1909 1.385 . S
C1906 H1887 0.951 . S
C1906 C1904 1.388 . S
C1906 C1907 1.366 . S
C1907 C1906 1.366 . S
C1907 C1908 1.414 . S
C1907 C1910 1.499 . S
C1908 H1888 0.950 . S
C1908 C1907 1.414 . S
C1908 C1909 1.374 . S
C1909 H1889 0.950 . S
C1909 C1905 1.385 . S
C1909 C1908 1.374 . S
C1910 C1907 1.499 . S
C1910 C1911 1.373 . S
C1910 C1912 1.389 . S
C1911 H1890 0.950 . S
C1911 C1910 1.373 . S
C1911 C1927 1.377 . S
C1912 C1910 1.389 . S
C1912 C1913 1.524 . S
C1912 C1926 1.377 . S
C1913 C1912 1.524 . S
C1913 C1914 1.397 . S
C1913 C1918 1.363 . S
C1914 H1891 0.950 . S
C1914 C1913 1.397 . S
C1914 C1915 1.334 . S
C1915 H1892 0.950 . S
C1915 C1914 1.334 . S
C1915 C1916 1.287 . S
C1916 C1915 1.287 . S
C1916 C1917 1.524 . S
C1916 H1935 0.913 . S
C1917 H1893 0.950 . S
C1917 C1916 1.524 . S
C1917 C1918 1.415 . S
C1918 H1894 0.950 . S
C1918 C1913 1.363 . S
C1918 C1917 1.415 . S
C1919 H1895 0.951 . S
C1919 C1920 1.366 . S
C1919 C1921 1.388 . S
C1920 C1919 1.366 . S
C1920 C1924 1.385 . S
C1921 H1896 0.951 . S
C1921 C1919 1.388 . S
C1921 C1922 1.366 . S
C1922 C1921 1.366 . S
C1922 C1923 1.414 . S
C1922 C1925 1.499 . S
C1923 H1897 0.950 . S
C1923 C1922 1.414 . S
C1923 C1924 1.374 . S
C1924 H1898 0.950 . S
C1924 C1920 1.385 . S
C1924 C1923 1.374 . S
C1925 C1922 1.499 . S
C1925 C1926 1.373 . S
C1925 C1927 1.389 . S
C1926 H1899 0.950 . S
C1926 C1912 1.377 . S
C1926 C1925 1.373 . S
C1927 C1911 1.377 . S
C1927 C1925 1.389 . S
C1927 C1928 1.524 . S
C1928 C1927 1.524 . S
C1928 C1929 1.397 . S
C1928 C1933 1.363 . S
C1929 H1900 0.950 . S
C1929 C1928 1.397 . S
C1929 C1930 1.334 . S
C1930 H1901 0.950 . S
C1930 C1929 1.334 . S
C1930 C1931 1.287 . S
C1931 C1930 1.287 . S
C1931 C1932 1.524 . S
C1931 H1934 0.999 . S
C1932 H1902 0.950 . S
C1932 C1931 1.524 . S
C1932 C1933 1.415 . S
C1933 H1903 0.950 . S
C1933 C1928 1.363 . S
C1933 C1932 1.415 . S
H1934 C1931 0.999 . S
H1935 C1916 0.913 . S
H1936 C1954 0.951 . S
H1937 C1956 0.951 . S
H1938 C1958 0.950 . S
H1939 C1959 0.950 . S
H1940 C1961 0.950 . S
H1941 C1964 0.950 . S
H1942 C1965 0.950 . S
H1943 C1967 0.950 1_455 S
H1944 C1968 0.950 . S
H1945 C1969 0.951 . S
H1946 C1971 0.951 . S
H1947 C1973 0.950 . S
H1948 C1974 0.950 . S
H1949 C1976 0.950 . S
H1950 C1979 0.950 . S
H1951 C1980 0.950 . S
H1952 C1982 0.950 1_655 S
H1953 C1983 0.950 . S
C1954 H1936 0.951 . S
C1954 C1955 1.366 . S
C1954 C1956 1.388 . S
C1955 C1954 1.366 . S
C1955 C1959 1.385 . S
C1956 H1937 0.951 . S
C1956 C1954 1.388 . S
C1956 C1957 1.366 . S
C1957 C1956 1.366 . S
C1957 C1958 1.414 . S
C1957 C1960 1.499 . S
C1958 H1938 0.950 . S
C1958 C1957 1.414 . S
C1958 C1959 1.374 . S
C1959 H1939 0.950 . S
C1959 C1955 1.385 . S
C1959 C1958 1.374 . S
C1960 C1957 1.499 . S
C1960 C1961 1.373 . S
C1960 C1962 1.389 . S
C1961 H1940 0.950 . S
C1961 C1960 1.373 . S
C1961 C1977 1.377 1_654 S
C1962 C1960 1.389 . S
C1962 C1963 1.524 . S
C1962 C1976 1.377 1_654 S
C1963 C1962 1.524 . S
C1963 C1964 1.397 . S
C1963 C1968 1.363 1_655 S
C1964 H1941 0.950 . S
C1964 C1963 1.397 . S
C1964 C1965 1.334 . S
C1965 H1942 0.950 . S
C1965 C1964 1.334 . S
C1965 C1966 1.287 . S
C1966 C1965 1.287 . S
C1966 C1967 1.524 . S
C1966 H1985 0.913 . S
C1967 H1943 0.950 1_655 S
C1967 C1966 1.524 . S
C1967 C1968 1.415 1_655 S
C1968 H1944 0.950 . S
C1968 C1963 1.363 1_455 S
C1968 C1967 1.415 1_455 S
C1969 H1945 0.951 . S
C1969 C1970 1.366 . S
C1969 C1971 1.388 . S
C1970 C1969 1.366 . S
C1970 C1974 1.385 . S
C1971 H1946 0.951 . S
C1971 C1969 1.388 . S
C1971 C1972 1.366 . S
C1972 C1971 1.366 . S
C1972 C1973 1.414 . S
C1972 C1975 1.499 . S
C1973 H1947 0.950 . S
C1973 C1972 1.414 . S
C1973 C1974 1.374 . S
C1974 H1948 0.950 . S
C1974 C1970 1.385 . S
C1974 C1973 1.374 . S
C1975 C1972 1.499 . S
C1975 C1976 1.373 . S
C1975 C1977 1.389 . S
C1976 H1949 0.950 . S
C1976 C1962 1.377 1_456 S
C1976 C1975 1.373 . S
C1977 C1961 1.377 1_456 S
C1977 C1975 1.389 . S
C1977 C1978 1.524 . S
C1978 C1977 1.524 . S
C1978 C1979 1.397 . S
C1978 C1983 1.363 1_455 S
C1979 H1950 0.950 . S
C1979 C1978 1.397 . S
C1979 C1980 1.334 . S
C1980 H1951 0.950 . S
C1980 C1979 1.334 . S
C1980 C1981 1.287 . S
C1981 C1980 1.287 . S
C1981 C1982 1.524 . S
C1981 H1984 0.999 . S
C1982 H1952 0.950 1_455 S
C1982 C1981 1.524 . S
C1982 C1983 1.415 1_455 S
C1983 H1953 0.950 . S
C1983 C1978 1.363 1_655 S
C1983 C1982 1.415 1_655 S
H1984 C1981 0.999 . S
H1985 C1966 0.913 . S
H1986 C2004 0.951 . S
H1987 C2006 0.951 . S
H1988 C2008 0.950 . S
H1989 C2009 0.950 . S
H1990 C2011 0.950 . S
H1991 C2014 0.950 . S
H1992 C2015 0.950 . S
H1993 C2017 0.950 . S
H1994 C2018 0.950 . S
H1995 C2019 0.951 . S
H1996 C2021 0.951 . S
H1997 C2023 0.950 . S
H1998 C2024 0.950 . S
H1999 C2026 0.950 . S
H2000 C2029 0.950 . S
H2001 C2030 0.950 . S
H2002 C2032 0.950 . S
H2003 C2033 0.950 . S
C2004 H1986 0.951 . S
C2004 C2005 1.366 . S
C2004 C2006 1.388 . S
C2005 C2004 1.366 . S
C2005 C2009 1.385 . S
C2006 H1987 0.951 . S
C2006 C2004 1.388 . S
C2006 C2007 1.366 . S
C2007 C2006 1.366 . S
C2007 C2008 1.414 . S
C2007 C2010 1.499 . S
C2008 H1988 0.950 . S
C2008 C2007 1.414 . S
C2008 C2009 1.374 . S
C2009 H1989 0.950 . S
C2009 C2005 1.385 . S
C2009 C2008 1.374 . S
C2010 C2007 1.499 . S
C2010 C2011 1.373 1_565 S
C2010 C2012 1.389 . S
C2011 H1990 0.950 . S
C2011 C2010 1.373 1_545 S
C2011 C2027 1.377 . S
C2012 C2010 1.389 . S
C2012 C2013 1.524 . S
C2012 C2026 1.377 . S
C2013 C2012 1.524 . S
C2013 C2014 1.397 . S
C2013 C2018 1.363 . S
C2014 H1991 0.950 . S
C2014 C2013 1.397 . S
C2014 C2015 1.334 . S
C2015 H1992 0.950 . S
C2015 C2014 1.334 . S
C2015 C2016 1.287 . S
C2016 C2015 1.287 . S
C2016 C2017 1.524 . S
C2016 H2035 0.913 . S
C2017 H1993 0.950 . S
C2017 C2016 1.524 . S
C2017 C2018 1.415 . S
C2018 H1994 0.950 . S
C2018 C2013 1.363 . S
C2018 C2017 1.415 . S
C2019 H1995 0.951 . S
C2019 C2020 1.366 . S
C2019 C2021 1.388 . S
C2020 C2019 1.366 . S
C2020 C2024 1.385 . S
C2021 H1996 0.951 . S
C2021 C2019 1.388 . S
C2021 C2022 1.366 . S
C2022 C2021 1.366 . S
C2022 C2023 1.414 . S
C2022 C2025 1.499 . S
C2023 H1997 0.950 . S
C2023 C2022 1.414 . S
C2023 C2024 1.374 . S
C2024 H1998 0.950 . S
C2024 C2020 1.385 . S
C2024 C2023 1.374 . S
C2025 C2022 1.499 . S
C2025 C2026 1.373 1_545 S
C2025 C2027 1.389 . S
C2026 H1999 0.950 . S
C2026 C2012 1.377 . S
C2026 C2025 1.373 1_565 S
C2027 C2011 1.377 . S
C2027 C2025 1.389 . S
C2027 C2028 1.524 . S
C2028 C2027 1.524 . S
C2028 C2029 1.397 . S
C2028 C2033 1.363 . S
C2029 H2000 0.950 . S
C2029 C2028 1.397 . S
C2029 C2030 1.334 . S
C2030 H2001 0.950 . S
C2030 C2029 1.334 . S
C2030 C2031 1.287 . S
C2031 C2030 1.287 . S
C2031 C2032 1.524 . S
C2031 H2034 0.999 . S
C2032 H2002 0.950 . S
C2032 C2031 1.524 . S
C2032 C2033 1.415 . S
C2033 H2003 0.950 . S
C2033 C2028 1.363 . S
C2033 C2032 1.415 . S
H2034 C2031 0.999 . S
H2035 C2016 0.913 . S
H2036 C2054 0.951 . S
H2037 C2056 0.951 . S
H2038 C2058 0.950 . S
H2039 C2059 0.950 . S
H2040 C2061 0.950 . S
H2041 C2064 0.950 . S
H2042 C2065 0.950 . S
H2043 C2067 0.950 . S
H2044 C2068 0.950 . S
H2045 C2069 0.951 . S
H2046 C2071 0.951 . S
H2047 C2073 0.950 . S
H2048 C2074 0.950 . S
H2049 C2076 0.950 . S
H2050 C2079 0.950 . S
H2051 C2080 0.950 . S
H2052 C2082 0.950 . S
H2053 C2083 0.950 . S
C2054 H2036 0.951 . S
C2054 C2055 1.366 . S
C2054 C2056 1.388 . S
C2055 C2054 1.366 . S
C2055 C2059 1.385 . S
C2056 H2037 0.951 . S
C2056 C2054 1.388 . S
C2056 C2057 1.366 . S
C2057 C2056 1.366 . S
C2057 C2058 1.414 . S
C2057 C2060 1.499 . S
C2058 H2038 0.950 . S
C2058 C2057 1.414 . S
C2058 C2059 1.374 . S
C2059 H2039 0.950 . S
C2059 C2055 1.385 . S
C2059 C2058 1.374 . S
C2060 C2057 1.499 . S
C2060 C2061 1.373 1_554 S
C2060 C2062 1.389 . S
C2061 H2040 0.950 . S
C2061 C2060 1.373 1_556 S
C2061 C2077 1.377 . S
C2062 C2060 1.389 . S
C2062 C2063 1.524 . S
C2062 C2076 1.377 . S
C2063 C2062 1.524 . S
C2063 C2064 1.397 . S
C2063 C2068 1.363 . S
C2064 H2041 0.950 . S
C2064 C2063 1.397 . S
C2064 C2065 1.334 . S
C2065 H2042 0.950 . S
C2065 C2064 1.334 . S
C2065 C2066 1.287 . S
C2066 C2065 1.287 . S
C2066 C2067 1.524 . S
C2066 H2085 0.913 . S
C2067 H2043 0.950 . S
C2067 C2066 1.524 . S
C2067 C2068 1.415 . S
C2068 H2044 0.950 . S
C2068 C2063 1.363 . S
C2068 C2067 1.415 . S
C2069 H2045 0.951 . S
C2069 C2070 1.366 . S
C2069 C2071 1.388 . S
C2070 C2069 1.366 . S
C2070 C2074 1.385 . S
C2071 H2046 0.951 . S
C2071 C2069 1.388 . S
C2071 C2072 1.366 . S
C2072 C2071 1.366 . S
C2072 C2073 1.414 . S
C2072 C2075 1.499 . S
C2073 H2047 0.950 . S
C2073 C2072 1.414 . S
C2073 C2074 1.374 . S
C2074 H2048 0.950 . S
C2074 C2070 1.385 . S
C2074 C2073 1.374 . S
C2075 C2072 1.499 . S
C2075 C2076 1.373 1_556 S
C2075 C2077 1.389 . S
C2076 H2049 0.950 . S
C2076 C2062 1.377 . S
C2076 C2075 1.373 1_554 S
C2077 C2061 1.377 . S
C2077 C2075 1.389 . S
C2077 C2078 1.524 . S
C2078 C2077 1.524 . S
C2078 C2079 1.397 . S
C2078 C2083 1.363 . S
C2079 H2050 0.950 . S
C2079 C2078 1.397 . S
C2079 C2080 1.334 . S
C2080 H2051 0.950 . S
C2080 C2079 1.334 . S
C2080 C2081 1.287 . S
C2081 C2080 1.287 . S
C2081 C2082 1.524 . S
C2081 H2084 0.999 . S
C2082 H2052 0.950 . S
C2082 C2081 1.524 . S
C2082 C2083 1.415 . S
C2083 H2053 0.950 . S
C2083 C2078 1.363 . S
C2083 C2082 1.415 . S
H2084 C2081 0.999 . S
H2085 C2066 0.913 . S
H2086 C2104 0.951 . S
H2087 C2106 0.951 . S
H2088 C2108 0.950 . S
H2089 C2109 0.950 . S
H2090 C2111 0.950 . S
H2091 C2114 0.898 1_455 S
H2092 C2115 0.950 . S
H2093 C2117 0.950 . S
H2094 C2118 0.950 . S
H2095 C2119 0.951 . S
H2096 C2121 0.951 . S
H2097 C2123 0.950 . S
H2098 C2124 0.950 . S
H2099 C2126 0.950 . S
H2100 C2129 0.898 1_655 S
H2101 C2130 0.950 . S
H2102 C2132 0.950 . S
H2103 C2133 0.950 . S
C2104 H2086 0.951 . S
C2104 C2105 1.366 . S
C2104 C2106 1.388 . S
C2105 C2104 1.366 . S
C2105 C2109 1.385 . S
C2106 H2087 0.951 . S
C2106 C2104 1.388 . S
C2106 C2107 1.366 . S
C2107 C2106 1.366 . S
C2107 C2108 1.414 . S
C2107 C2110 1.499 . S
C2108 H2088 0.950 . S
C2108 C2107 1.414 . S
C2108 C2109 1.374 . S
C2109 H2089 0.950 . S
C2109 C2105 1.385 . S
C2109 C2108 1.374 . S
C2110 C2107 1.499 . S
C2110 C2111 1.373 . S
C2110 C2112 1.389 1_455 S
C2111 H2090 0.950 . S
C2111 C2110 1.373 . S
C2111 C2127 1.377 . S
C2112 C2110 1.389 1_655 S
C2112 C2113 1.524 . S
C2112 C2126 1.377 . S
C2113 C2112 1.524 . S
C2113 C2114 1.397 . S
C2113 C2118 1.363 . S
C2114 H2091 0.898 1_655 S
C2114 C2113 1.397 . S
C2114 C2115 1.334 . S
C2115 H2092 0.950 . S
C2115 C2114 1.334 . S
C2115 C2116 1.287 . S
C2116 C2115 1.287 . S
C2116 C2117 1.524 . S
C2116 H2135 0.913 . S
C2117 H2093 0.950 . S
C2117 C2116 1.524 . S
C2117 C2118 1.415 . S
C2118 H2094 0.950 . S
C2118 C2113 1.363 . S
C2118 C2117 1.415 . S
C2119 H2095 0.951 . S
C2119 C2120 1.366 . S
C2119 C2121 1.388 . S
C2120 C2119 1.366 . S
C2120 C2124 1.385 . S
C2121 H2096 0.951 . S
C2121 C2119 1.388 . S
C2121 C2122 1.366 . S
C2122 C2121 1.366 . S
C2122 C2123 1.414 . S
C2122 C2125 1.499 . S
C2123 H2097 0.950 . S
C2123 C2122 1.414 . S
C2123 C2124 1.374 . S
C2124 H2098 0.950 . S
C2124 C2120 1.385 . S
C2124 C2123 1.374 . S
C2125 C2122 1.499 . S
C2125 C2126 1.373 . S
C2125 C2127 1.389 1_655 S
C2126 H2099 0.950 . S
C2126 C2112 1.377 . S
C2126 C2125 1.373 . S
C2127 C2111 1.377 . S
C2127 C2125 1.389 1_455 S
C2127 C2128 1.524 . S
C2128 C2127 1.524 . S
C2128 C2129 1.397 . S
C2128 C2133 1.363 . S
C2129 H2100 0.898 1_455 S
C2129 C2128 1.397 . S
C2129 C2130 1.334 . S
C2130 H2101 0.950 . S
C2130 C2129 1.334 . S
C2130 C2131 1.287 . S
C2131 C2130 1.287 . S
C2131 C2132 1.524 . S
C2131 H2134 0.999 . S
C2132 H2102 0.950 . S
C2132 C2131 1.524 . S
C2132 C2133 1.415 . S
C2133 H2103 0.950 . S
C2133 C2128 1.363 . S
C2133 C2132 1.415 . S
H2134 C2131 0.999 . S
H2135 C2116 0.913 . S
H2136 C2154 0.951 . S
H2137 C2156 0.951 . S
H2138 C2158 0.950 . S
H2139 C2159 0.950 . S
H2140 C2161 0.950 . S
H2141 C2164 0.950 . S
H2142 C2165 0.950 . S
H2143 C2167 0.950 . S
H2144 C2168 0.950 . S
H2145 C2169 0.951 . S
H2146 C2171 0.951 . S
H2147 C2173 0.950 . S
H2148 C2174 0.950 . S
H2149 C2176 0.950 . S
H2150 C2179 0.950 . S
H2151 C2180 0.950 . S
H2152 C2182 0.950 . S
H2153 C2183 0.950 . S
C2154 H2136 0.951 . S
C2154 C2155 1.366 . S
C2154 C2156 1.388 . S
C2155 C2154 1.366 . S
C2155 C2159 1.385 . S
C2156 H2137 0.951 . S
C2156 C2154 1.388 . S
C2156 C2157 1.366 . S
C2157 C2156 1.366 . S
C2157 C2158 1.414 . S
C2157 C2160 1.499 . S
C2158 H2138 0.950 . S
C2158 C2157 1.414 . S
C2158 C2159 1.374 . S
C2159 H2139 0.950 . S
C2159 C2155 1.385 . S
C2159 C2158 1.374 . S
C2160 C2157 1.499 . S
C2160 C2161 1.373 . S
C2160 C2162 1.389 . S
C2161 H2140 0.950 . S
C2161 C2160 1.373 . S
C2161 C2177 1.377 . S
C2162 C2160 1.389 . S
C2162 C2163 1.524 . S
C2162 C2176 1.377 . S
C2163 C2162 1.524 . S
C2163 C2164 1.397 . S
C2163 C2168 1.363 . S
C2164 H2141 0.950 . S
C2164 C2163 1.397 . S
C2164 C2165 1.334 . S
C2165 H2142 0.950 . S
C2165 C2164 1.334 . S
C2165 C2166 1.287 . S
C2166 C2165 1.287 . S
C2166 C2167 1.524 . S
C2166 H2185 0.913 . S
C2167 H2143 0.950 . S
C2167 C2166 1.524 . S
C2167 C2168 1.415 . S
C2168 H2144 0.950 . S
C2168 C2163 1.363 . S
C2168 C2167 1.415 . S
C2169 H2145 0.951 . S
C2169 C2170 1.366 . S
C2169 C2171 1.388 . S
C2170 C2169 1.366 . S
C2170 C2174 1.385 . S
C2171 H2146 0.951 . S
C2171 C2169 1.388 . S
C2171 C2172 1.366 . S
C2172 C2171 1.366 . S
C2172 C2173 1.414 . S
C2172 C2175 1.499 . S
C2173 H2147 0.950 . S
C2173 C2172 1.414 . S
C2173 C2174 1.374 . S
C2174 H2148 0.950 . S
C2174 C2170 1.385 . S
C2174 C2173 1.374 . S
C2175 C2172 1.499 . S
C2175 C2176 1.373 . S
C2175 C2177 1.389 . S
C2176 H2149 0.950 . S
C2176 C2162 1.377 . S
C2176 C2175 1.373 . S
C2177 C2161 1.377 . S
C2177 C2175 1.389 . S
C2177 C2178 1.524 . S
C2178 C2177 1.524 . S
C2178 C2179 1.397 . S
C2178 C2183 1.363 . S
C2179 H2150 0.950 . S
C2179 C2178 1.397 . S
C2179 C2180 1.334 . S
C2180 H2151 0.950 . S
C2180 C2179 1.334 . S
C2180 C2181 1.287 . S
C2181 C2180 1.287 . S
C2181 C2182 1.524 . S
C2181 H2184 0.999 . S
C2182 H2152 0.950 . S
C2182 C2181 1.524 . S
C2182 C2183 1.415 . S
C2183 H2153 0.950 . S
C2183 C2178 1.363 . S
C2183 C2182 1.415 . S
H2184 C2181 0.999 . S
H2185 C2166 0.913 . S
H2186 C2204 0.951 . S
H2187 C2206 0.951 . S
H2188 C2208 0.950 . S
H2189 C2209 0.950 . S
H2190 C2211 0.950 . S
H2191 C2214 0.950 . S
H2192 C2215 0.950 . S
H2193 C2217 0.950 . S
H2194 C2218 0.950 . S
H2195 C2219 0.951 . S
H2196 C2221 0.951 . S
H2197 C2223 0.950 . S
H2198 C2224 0.950 . S
H2199 C2226 0.950 . S
H2200 C2229 0.950 . S
H2201 C2230 0.950 . S
H2202 C2232 0.950 . S
H2203 C2233 0.950 . S
C2204 H2186 0.951 . S
C2204 C2205 1.366 . S
C2204 C2206 1.388 . S
C2205 C2204 1.366 . S
C2205 C2209 1.385 . S
C2206 H2187 0.951 . S
C2206 C2204 1.388 . S
C2206 C2207 1.366 . S
C2207 C2206 1.366 . S
C2207 C2208 1.414 . S
C2207 C2210 1.499 . S
C2208 H2188 0.950 . S
C2208 C2207 1.414 . S
C2208 C2209 1.374 . S
C2209 H2189 0.950 . S
C2209 C2205 1.385 . S
C2209 C2208 1.374 . S
C2210 C2207 1.499 . S
C2210 C2211 1.373 . S
C2210 C2212 1.389 . S
C2211 H2190 0.950 . S
C2211 C2210 1.373 . S
C2211 C2227 1.377 . S
C2212 C2210 1.389 . S
C2212 C2213 1.524 . S
C2212 C2226 1.377 . S
C2213 C2212 1.524 . S
C2213 C2214 1.397 . S
C2213 C2218 1.363 . S
C2214 H2191 0.950 . S
C2214 C2213 1.397 . S
C2214 C2215 1.334 . S
C2215 H2192 0.950 . S
C2215 C2214 1.334 . S
C2215 C2216 1.287 . S
C2216 C2215 1.287 . S
C2216 C2217 1.524 . S
C2216 H2235 0.913 . S
C2217 H2193 0.950 . S
C2217 C2216 1.524 . S
C2217 C2218 1.415 . S
C2218 H2194 0.950 . S
C2218 C2213 1.363 . S
C2218 C2217 1.415 . S
C2219 H2195 0.951 . S
C2219 C2220 1.366 . S
C2219 C2221 1.388 . S
C2220 C2219 1.366 . S
C2220 C2224 1.385 . S
C2221 H2196 0.951 . S
C2221 C2219 1.388 . S
C2221 C2222 1.366 . S
C2222 C2221 1.366 . S
C2222 C2223 1.414 . S
C2222 C2225 1.499 . S
C2223 H2197 0.950 . S
C2223 C2222 1.414 . S
C2223 C2224 1.374 . S
C2224 H2198 0.950 . S
C2224 C2220 1.385 . S
C2224 C2223 1.374 . S
C2225 C2222 1.499 . S
C2225 C2226 1.373 . S
C2225 C2227 1.389 . S
C2226 H2199 0.950 . S
C2226 C2212 1.377 . S
C2226 C2225 1.373 . S
C2227 C2211 1.377 . S
C2227 C2225 1.389 . S
C2227 C2228 1.524 . S
C2228 C2227 1.524 . S
C2228 C2229 1.397 . S
C2228 C2233 1.363 . S
C2229 H2200 0.950 . S
C2229 C2228 1.397 . S
C2229 C2230 1.334 . S
C2230 H2201 0.950 . S
C2230 C2229 1.334 . S
C2230 C2231 1.287 . S
C2231 C2230 1.287 . S
C2231 C2232 1.524 . S
C2231 H2234 0.999 . S
C2232 H2202 0.950 . S
C2232 C2231 1.524 . S
C2232 C2233 1.415 . S
C2233 H2203 0.950 . S
C2233 C2228 1.363 . S
C2233 C2232 1.415 . S
H2234 C2231 0.999 . S
H2235 C2216 0.913 . S
H2236 C2254 0.951 . S
H2237 C2256 0.951 . S
H2238 C2258 0.950 . S
H2239 C2259 0.950 . S
H2240 C2261 0.950 . S
H2241 C2264 0.950 . S
H2242 C2265 0.950 . S
H2243 C2267 0.950 . S
H2244 C2268 0.950 . S
H2245 C2269 0.951 . S
H2246 C2271 0.951 . S
H2247 C2273 0.950 . S
H2248 C2274 0.950 . S
H2249 C2276 0.950 . S
H2250 C2279 0.950 . S
H2251 C2280 0.950 . S
H2252 C2282 0.950 . S
H2253 C2283 0.950 . S
C2254 H2236 0.951 . S
C2254 C2255 1.366 . S
C2254 C2256 1.388 . S
C2255 C2254 1.366 . S
C2255 C2259 1.385 . S
C2256 H2237 0.951 . S
C2256 C2254 1.388 . S
C2256 C2257 1.366 . S
C2257 C2256 1.366 . S
C2257 C2258 1.414 . S
C2257 C2260 1.499 . S
C2258 H2238 0.950 . S
C2258 C2257 1.414 . S
C2258 C2259 1.374 . S
C2259 H2239 0.950 . S
C2259 C2255 1.385 . S
C2259 C2258 1.374 . S
C2260 C2257 1.499 . S
C2260 C2261 1.373 . S
C2260 C2262 1.389 . S
C2261 H2240 0.950 . S
C2261 C2260 1.373 . S
C2261 C2277 1.377 . S
C2262 C2260 1.389 . S
C2262 C2263 1.524 . S
C2262 C2276 1.377 . S
C2263 C2262 1.524 . S
C2263 C2264 1.397 . S
C2263 C2268 1.363 . S
C2264 H2241 0.950 . S
C2264 C2263 1.397 . S
C2264 C2265 1.334 . S
C2265 H2242 0.950 . S
C2265 C2264 1.334 . S
C2265 C2266 1.287 . S
C2266 C2265 1.287 . S
C2266 C2267 1.524 . S
C2266 H2285 0.913 . S
C2267 H2243 0.950 . S
C2267 C2266 1.524 . S
C2267 C2268 1.415 . S
C2268 H2244 0.950 . S
C2268 C2263 1.363 . S
C2268 C2267 1.415 . S
C2269 H2245 0.951 . S
C2269 C2270 1.366 . S
C2269 C2271 1.388 . S
C2270 C2269 1.366 . S
C2270 C2274 1.385 . S
C2271 H2246 0.951 . S
C2271 C2269 1.388 . S
C2271 C2272 1.366 . S
C2272 C2271 1.366 . S
C2272 C2273 1.414 . S
C2272 C2275 1.499 . S
C2273 H2247 0.950 . S
C2273 C2272 1.414 . S
C2273 C2274 1.374 . S
C2274 H2248 0.950 . S
C2274 C2270 1.385 . S
C2274 C2273 1.374 . S
C2275 C2272 1.499 . S
C2275 C2276 1.373 . S
C2275 C2277 1.389 . S
C2276 H2249 0.950 . S
C2276 C2262 1.377 . S
C2276 C2275 1.373 . S
C2277 C2261 1.377 . S
C2277 C2275 1.389 . S
C2277 C2278 1.524 . S
C2278 C2277 1.524 . S
C2278 C2279 1.397 . S
C2278 C2283 1.363 . S
C2279 H2250 0.950 . S
C2279 C2278 1.397 . S
C2279 C2280 1.334 . S
C2280 H2251 0.950 . S
C2280 C2279 1.334 . S
C2280 C2281 1.287 . S
C2281 C2280 1.287 . S
C2281 C2282 1.524 . S
C2281 H2284 0.999 . S
C2282 H2252 0.950 . S
C2282 C2281 1.524 . S
C2282 C2283 1.415 . S
C2283 H2253 0.950 . S
C2283 C2278 1.363 . S
C2283 C2282 1.415 . S
H2284 C2281 0.999 . S
H2285 C2266 0.913 . S
H2286 C2304 0.951 . S
H2287 C2306 0.951 . S
H2288 C2308 0.950 . S
H2289 C2309 0.950 . S
H2290 C2311 0.950 . S
H2291 C2314 0.950 . S
H2292 C2315 0.950 . S
H2293 C2317 0.950 . S
H2294 C2318 0.950 . S
H2295 C2319 0.951 . S
H2296 C2321 0.951 . S
H2297 C2323 0.950 . S
H2298 C2324 0.950 . S
H2299 C2326 0.950 . S
H2300 C2329 0.950 . S
H2301 C2330 0.950 . S
H2302 C2332 0.950 . S
H2303 C2333 0.950 . S
C2304 H2286 0.951 . S
C2304 C2305 1.366 . S
C2304 C2306 1.388 . S
C2305 C2304 1.366 . S
C2305 C2309 1.385 . S
C2306 H2287 0.951 . S
C2306 C2304 1.388 . S
C2306 C2307 1.366 . S
C2307 C2306 1.366 . S
C2307 C2308 1.414 . S
C2307 C2310 1.499 . S
C2308 H2288 0.950 . S
C2308 C2307 1.414 . S
C2308 C2309 1.374 . S
C2309 H2289 0.950 . S
C2309 C2305 1.385 . S
C2309 C2308 1.374 . S
C2310 C2307 1.499 . S
C2310 C2311 1.373 . S
C2310 C2312 1.389 . S
C2311 H2290 0.950 . S
C2311 C2310 1.373 . S
C2311 C2327 1.377 . S
C2312 C2310 1.389 . S
C2312 C2313 1.524 . S
C2312 C2326 1.377 . S
C2313 C2312 1.524 . S
C2313 C2314 1.397 . S
C2313 C2318 1.363 . S
C2314 H2291 0.950 . S
C2314 C2313 1.397 . S
C2314 C2315 1.334 . S
C2315 H2292 0.950 . S
C2315 C2314 1.334 . S
C2315 C2316 1.287 . S
C2316 C2315 1.287 . S
C2316 C2317 1.524 . S
C2316 H2335 0.913 . S
C2317 H2293 0.950 . S
C2317 C2316 1.524 . S
C2317 C2318 1.415 . S
C2318 H2294 0.950 . S
C2318 C2313 1.363 . S
C2318 C2317 1.415 . S
C2319 H2295 0.951 . S
C2319 C2320 1.366 . S
C2319 C2321 1.388 . S
C2320 C2319 1.366 . S
C2320 C2324 1.385 . S
C2321 H2296 0.951 . S
C2321 C2319 1.388 . S
C2321 C2322 1.366 . S
C2322 C2321 1.366 . S
C2322 C2323 1.414 . S
C2322 C2325 1.499 . S
C2323 H2297 0.950 . S
C2323 C2322 1.414 . S
C2323 C2324 1.374 . S
C2324 H2298 0.950 . S
C2324 C2320 1.385 . S
C2324 C2323 1.374 . S
C2325 C2322 1.499 . S
C2325 C2326 1.373 . S
C2325 C2327 1.389 . S
C2326 H2299 0.950 . S
C2326 C2312 1.377 . S
C2326 C2325 1.373 . S
C2327 C2311 1.377 . S
C2327 C2325 1.389 . S
C2327 C2328 1.524 . S
C2328 C2327 1.524 . S
C2328 C2329 1.397 . S
C2328 C2333 1.363 . S
C2329 H2300 0.950 . S
C2329 C2328 1.397 . S
C2329 C2330 1.334 . S
C2330 H2301 0.950 . S
C2330 C2329 1.334 . S
C2330 C2331 1.287 . S
C2331 C2330 1.287 . S
C2331 C2332 1.524 . S
C2331 H2334 0.999 . S
C2332 H2302 0.950 . S
C2332 C2331 1.524 . S
C2332 C2333 1.415 . S
C2333 H2303 0.950 . S
C2333 C2328 1.363 . S
C2333 C2332 1.415 . S
H2334 C2331 0.999 . S
H2335 C2316 0.913 . S
H2336 C2354 0.951 . S
H2337 C2356 0.951 . S
H2338 C2358 0.950 . S
H2339 C2359 0.950 . S
H2340 C2361 0.950 . S
H2341 C2364 0.950 . S
H2342 C2365 0.950 . S
H2343 C2367 0.950 . S
H2344 C2368 0.950 . S
H2345 C2369 0.951 . S
H2346 C2371 0.951 . S
H2347 C2373 0.950 . S
H2348 C2374 0.950 . S
H2349 C2376 0.950 . S
H2350 C2379 0.950 . S
H2351 C2380 0.950 . S
H2352 C2382 0.950 . S
H2353 C2383 0.950 . S
C2354 H2336 0.951 . S
C2354 C2355 1.366 . S
C2354 C2356 1.388 . S
C2355 C2354 1.366 . S
C2355 C2359 1.385 . S
C2356 H2337 0.951 . S
C2356 C2354 1.388 . S
C2356 C2357 1.366 . S
C2357 C2356 1.366 . S
C2357 C2358 1.414 . S
C2357 C2360 1.499 . S
C2358 H2338 0.950 . S
C2358 C2357 1.414 . S
C2358 C2359 1.374 . S
C2359 H2339 0.950 . S
C2359 C2355 1.385 . S
C2359 C2358 1.374 . S
C2360 C2357 1.499 . S
C2360 C2361 1.373 . S
C2360 C2362 1.389 . S
C2361 H2340 0.950 . S
C2361 C2360 1.373 . S
C2361 C2377 1.377 . S
C2362 C2360 1.389 . S
C2362 C2363 1.524 . S
C2362 C2376 1.377 . S
C2363 C2362 1.524 . S
C2363 C2364 1.397 . S
C2363 C2368 1.363 . S
C2364 H2341 0.950 . S
C2364 C2363 1.397 . S
C2364 C2365 1.334 . S
C2365 H2342 0.950 . S
C2365 C2364 1.334 . S
C2365 C2366 1.287 . S
C2366 C2365 1.287 . S
C2366 C2367 1.524 . S
C2366 H2385 0.913 . S
C2367 H2343 0.950 . S
C2367 C2366 1.524 . S
C2367 C2368 1.415 . S
C2368 H2344 0.950 . S
C2368 C2363 1.363 . S
C2368 C2367 1.415 . S
C2369 H2345 0.951 . S
C2369 C2370 1.366 . S
C2369 C2371 1.388 . S
C2370 C2369 1.366 . S
C2370 C2374 1.385 . S
C2371 H2346 0.951 . S
C2371 C2369 1.388 . S
C2371 C2372 1.366 . S
C2372 C2371 1.366 . S
C2372 C2373 1.414 . S
C2372 C2375 1.499 . S
C2373 H2347 0.950 . S
C2373 C2372 1.414 . S
C2373 C2374 1.374 . S
C2374 H2348 0.950 . S
C2374 C2370 1.385 . S
C2374 C2373 1.374 . S
C2375 C2372 1.499 . S
C2375 C2376 1.373 . S
C2375 C2377 1.389 . S
C2376 H2349 0.950 . S
C2376 C2362 1.377 . S
C2376 C2375 1.373 . S
C2377 C2361 1.377 . S
C2377 C2375 1.389 . S
C2377 C2378 1.524 . S
C2378 C2377 1.524 . S
C2378 C2379 1.397 . S
C2378 C2383 1.363 . S
C2379 H2350 0.950 . S
C2379 C2378 1.397 . S
C2379 C2380 1.334 . S
C2380 H2351 0.950 . S
C2380 C2379 1.334 . S
C2380 C2381 1.287 . S
C2381 C2380 1.287 . S
C2381 C2382 1.524 . S
C2381 H2384 0.999 . S
C2382 H2352 0.950 . S
C2382 C2381 1.524 . S
C2382 C2383 1.415 . S
C2383 H2353 0.950 . S
C2383 C2378 1.363 . S
C2383 C2382 1.415 . S
H2384 C2381 0.999 . S
H2385 C2366 0.913 . S
H2386 C2404 0.951 . S
H2387 C2406 0.951 . S
H2388 C2408 0.950 . S
H2389 C2409 0.950 . S
H2390 C2411 0.950 . S
H2391 C2414 0.950 . S
H2392 C2415 0.950 . S
H2393 C2417 0.950 . S
H2394 C2418 0.950 . S
H2395 C2419 0.951 . S
H2396 C2421 0.951 . S
H2397 C2423 0.950 . S
H2398 C2424 0.950 . S
H2399 C2426 0.950 . S
H2400 C2429 0.950 . S
H2401 C2430 0.950 . S
H2402 C2432 0.950 . S
H2403 C2433 0.950 . S
C2404 H2386 0.951 . S
C2404 C2405 1.366 . S
C2404 C2406 1.388 . S
C2405 C2404 1.366 . S
C2405 C2409 1.385 . S
C2406 H2387 0.951 . S
C2406 C2404 1.388 . S
C2406 C2407 1.366 . S
C2407 C2406 1.366 . S
C2407 C2408 1.414 . S
C2407 C2410 1.499 . S
C2408 H2388 0.950 . S
C2408 C2407 1.414 . S
C2408 C2409 1.374 . S
C2409 H2389 0.950 . S
C2409 C2405 1.385 . S
C2409 C2408 1.374 . S
C2410 C2407 1.499 . S
C2410 C2411 1.373 . S
C2410 C2412 1.389 . S
C2411 H2390 0.950 . S
C2411 C2410 1.373 . S
C2411 C2427 1.377 . S
C2412 C2410 1.389 . S
C2412 C2413 1.524 . S
C2412 C2426 1.377 . S
C2413 C2412 1.524 . S
C2413 C2414 1.397 . S
C2413 C2418 1.363 . S
C2414 H2391 0.950 . S
C2414 C2413 1.397 . S
C2414 C2415 1.334 . S
C2415 H2392 0.950 . S
C2415 C2414 1.334 . S
C2415 C2416 1.287 . S
C2416 C2415 1.287 . S
C2416 C2417 1.524 . S
C2416 H2435 0.913 . S
C2417 H2393 0.950 . S
C2417 C2416 1.524 . S
C2417 C2418 1.415 . S
C2418 H2394 0.950 . S
C2418 C2413 1.363 . S
C2418 C2417 1.415 . S
C2419 H2395 0.951 . S
C2419 C2420 1.366 . S
C2419 C2421 1.388 . S
C2420 C2419 1.366 . S
C2420 C2424 1.385 . S
C2421 H2396 0.951 . S
C2421 C2419 1.388 . S
C2421 C2422 1.366 . S
C2422 C2421 1.366 . S
C2422 C2423 1.414 . S
C2422 C2425 1.499 . S
C2423 H2397 0.950 . S
C2423 C2422 1.414 . S
C2423 C2424 1.374 . S
C2424 H2398 0.950 . S
C2424 C2420 1.385 . S
C2424 C2423 1.374 . S
C2425 C2422 1.499 . S
C2425 C2426 1.373 . S
C2425 C2427 1.389 . S
C2426 H2399 0.950 . S
C2426 C2412 1.377 . S
C2426 C2425 1.373 . S
C2427 C2411 1.377 . S
C2427 C2425 1.389 . S
C2427 C2428 1.524 . S
C2428 C2427 1.524 . S
C2428 C2429 1.397 . S
C2428 C2433 1.363 . S
C2429 H2400 0.950 . S
C2429 C2428 1.397 . S
C2429 C2430 1.334 . S
C2430 H2401 0.950 . S
C2430 C2429 1.334 . S
C2430 C2431 1.287 . S
C2431 C2430 1.287 . S
C2431 C2432 1.524 . S
C2431 H2434 0.999 . S
C2432 H2402 0.950 . S
C2432 C2431 1.524 . S
C2432 C2433 1.415 . S
C2433 H2403 0.950 . S
C2433 C2428 1.363 . S
C2433 C2432 1.415 . S
H2434 C2431 0.999 . S
H2435 C2416 0.913 . S
H2436 C2454 0.951 . S
H2437 C2456 0.951 . S
H2438 C2458 0.950 . S
H2439 C2459 0.950 . S
H2440 C2461 0.950 . S
H2441 C2464 0.950 . S
H2442 C2465 0.950 . S
H2443 C2467 0.950 . S
H2444 C2468 0.950 . S
H2445 C2469 0.951 . S
H2446 C2471 0.951 . S
H2447 C2473 0.950 . S
H2448 C2474 0.950 . S
H2449 C2476 0.950 . S
H2450 C2479 0.950 . S
H2451 C2480 0.950 . S
H2452 C2482 0.950 . S
H2453 C2483 0.950 . S
C2454 H2436 0.951 . S
C2454 C2455 1.366 . S
C2454 C2456 1.388 . S
C2455 C2454 1.366 . S
C2455 C2459 1.385 . S
C2456 H2437 0.951 . S
C2456 C2454 1.388 . S
C2456 C2457 1.366 . S
C2457 C2456 1.366 . S
C2457 C2458 1.414 . S
C2457 C2460 1.499 . S
C2458 H2438 0.950 . S
C2458 C2457 1.414 . S
C2458 C2459 1.374 . S
C2459 H2439 0.950 . S
C2459 C2455 1.385 . S
C2459 C2458 1.374 . S
C2460 C2457 1.499 . S
C2460 C2461 1.373 . S
C2460 C2462 1.389 . S
C2461 H2440 0.950 . S
C2461 C2460 1.373 . S
C2461 C2477 1.377 . S
C2462 C2460 1.389 . S
C2462 C2463 1.524 . S
C2462 C2476 1.377 . S
C2463 C2462 1.524 . S
C2463 C2464 1.397 . S
C2463 C2468 1.363 . S
C2464 H2441 0.950 . S
C2464 C2463 1.397 . S
C2464 C2465 1.334 . S
C2465 H2442 0.950 . S
C2465 C2464 1.334 . S
C2465 C2466 1.287 . S
C2466 C2465 1.287 . S
C2466 C2467 1.524 . S
C2466 H2485 0.913 . S
C2467 H2443 0.950 . S
C2467 C2466 1.524 . S
C2467 C2468 1.415 . S
C2468 H2444 0.950 . S
C2468 C2463 1.363 . S
C2468 C2467 1.415 . S
C2469 H2445 0.951 . S
C2469 C2470 1.366 . S
C2469 C2471 1.388 . S
C2470 C2469 1.366 . S
C2470 C2474 1.385 . S
C2471 H2446 0.951 . S
C2471 C2469 1.388 . S
C2471 C2472 1.366 . S
C2472 C2471 1.366 . S
C2472 C2473 1.414 . S
C2472 C2475 1.499 . S
C2473 H2447 0.950 . S
C2473 C2472 1.414 . S
C2473 C2474 1.374 . S
C2474 H2448 0.950 . S
C2474 C2470 1.385 . S
C2474 C2473 1.374 . S
C2475 C2472 1.499 . S
C2475 C2476 1.373 . S
C2475 C2477 1.389 . S
C2476 H2449 0.950 . S
C2476 C2462 1.377 . S
C2476 C2475 1.373 . S
C2477 C2461 1.377 . S
C2477 C2475 1.389 . S
C2477 C2478 1.524 . S
C2478 C2477 1.524 . S
C2478 C2479 1.397 . S
C2478 C2483 1.363 . S
C2479 H2450 0.950 . S
C2479 C2478 1.397 . S
C2479 C2480 1.334 . S
C2480 H2451 0.950 . S
C2480 C2479 1.334 . S
C2480 C2481 1.287 . S
C2481 C2480 1.287 . S
C2481 C2482 1.524 . S
C2481 H2484 0.999 . S
C2482 H2452 0.950 . S
C2482 C2481 1.524 . S
C2482 C2483 1.415 . S
C2483 H2453 0.950 . S
C2483 C2478 1.363 . S
C2483 C2482 1.415 . S
H2484 C2481 0.999 . S
H2485 C2466 0.913 . S
H2486 C2504 0.951 . S
H2487 C2506 0.951 . S
H2488 C2508 0.950 . S
H2489 C2509 0.950 . S
H2490 C2511 0.950 . S
H2491 C2514 0.950 . S
H2492 C2515 0.950 . S
H2493 C2517 0.950 . S
H2494 C2518 0.950 . S
H2495 C2519 0.951 . S
H2496 C2521 0.951 . S
H2497 C2523 0.950 . S
H2498 C2524 0.950 . S
H2499 C2526 0.950 . S
H2500 C2529 0.950 . S
H2501 C2530 0.950 . S
H2502 C2532 0.950 . S
H2503 C2533 0.950 . S
C2504 H2486 0.951 . S
C2504 C2505 1.366 . S
C2504 C2506 1.388 . S
C2505 C2504 1.366 . S
C2505 C2509 1.385 . S
C2506 H2487 0.951 . S
C2506 C2504 1.388 . S
C2506 C2507 1.366 . S
C2507 C2506 1.366 . S
C2507 C2508 1.414 . S
C2507 C2510 1.499 . S
C2508 H2488 0.950 . S
C2508 C2507 1.414 . S
C2508 C2509 1.374 . S
C2509 H2489 0.950 . S
C2509 C2505 1.385 . S
C2509 C2508 1.374 . S
C2510 C2507 1.499 . S
C2510 C2511 1.373 . S
C2510 C2512 1.389 . S
C2511 H2490 0.950 . S
C2511 C2510 1.373 . S
C2511 C2527 1.377 . S
C2512 C2510 1.389 . S
C2512 C2513 1.524 . S
C2512 C2526 1.377 . S
C2513 C2512 1.524 . S
C2513 C2514 1.397 . S
C2513 C2518 1.363 . S
C2514 H2491 0.950 . S
C2514 C2513 1.397 . S
C2514 C2515 1.334 . S
C2515 H2492 0.950 . S
C2515 C2514 1.334 . S
C2515 C2516 1.287 . S
C2516 C2515 1.287 . S
C2516 C2517 1.524 . S
C2516 H2535 0.913 . S
C2517 H2493 0.950 . S
C2517 C2516 1.524 . S
C2517 C2518 1.415 . S
C2518 H2494 0.950 . S
C2518 C2513 1.363 . S
C2518 C2517 1.415 . S
C2519 H2495 0.951 . S
C2519 C2520 1.366 . S
C2519 C2521 1.388 . S
C2520 C2519 1.366 . S
C2520 C2524 1.385 . S
C2521 H2496 0.951 . S
C2521 C2519 1.388 . S
C2521 C2522 1.366 . S
C2522 C2521 1.366 . S
C2522 C2523 1.414 . S
C2522 C2525 1.499 . S
C2523 H2497 0.950 . S
C2523 C2522 1.414 . S
C2523 C2524 1.374 . S
C2524 H2498 0.950 . S
C2524 C2520 1.385 . S
C2524 C2523 1.374 . S
C2525 C2522 1.499 . S
C2525 C2526 1.373 . S
C2525 C2527 1.389 . S
C2526 H2499 0.950 . S
C2526 C2512 1.377 . S
C2526 C2525 1.373 . S
C2527 C2511 1.377 . S
C2527 C2525 1.389 . S
C2527 C2528 1.524 . S
C2528 C2527 1.524 . S
C2528 C2529 1.397 . S
C2528 C2533 1.363 . S
C2529 H2500 0.950 . S
C2529 C2528 1.397 . S
C2529 C2530 1.334 . S
C2530 H2501 0.950 . S
C2530 C2529 1.334 . S
C2530 C2531 1.287 . S
C2531 C2530 1.287 . S
C2531 C2532 1.524 . S
C2531 H2534 0.999 . S
C2532 H2502 0.950 . S
C2532 C2531 1.524 . S
C2532 C2533 1.415 . S
C2533 H2503 0.950 . S
C2533 C2528 1.363 . S
C2533 C2532 1.415 . S
H2534 C2531 0.999 . S
H2535 C2516 0.913 . S
H2536 C2554 0.951 . S
H2537 C2556 0.951 . S
H2538 C2558 0.950 . S
H2539 C2559 0.950 . S
H2540 C2561 0.950 . S
H2541 C2564 0.950 . S
H2542 C2565 0.950 . S
H2543 C2567 0.950 . S
H2544 C2568 0.950 . S
H2545 C2569 0.951 . S
H2546 C2571 0.951 . S
H2547 C2573 0.950 . S
H2548 C2574 0.950 . S
H2549 C2576 0.950 . S
H2550 C2579 0.950 . S
H2551 C2580 0.950 . S
H2552 C2582 0.950 . S
H2553 C2583 0.950 . S
C2554 H2536 0.951 . S
C2554 C2555 1.366 . S
C2554 C2556 1.388 . S
C2555 C2554 1.366 . S
C2555 C2559 1.385 . S
C2556 H2537 0.951 . S
C2556 C2554 1.388 . S
C2556 C2557 1.366 . S
C2557 C2556 1.366 . S
C2557 C2558 1.414 . S
C2557 C2560 1.499 . S
C2558 H2538 0.950 . S
C2558 C2557 1.414 . S
C2558 C2559 1.374 . S
C2559 H2539 0.950 . S
C2559 C2555 1.385 . S
C2559 C2558 1.374 . S
C2560 C2557 1.499 . S
C2560 C2561 1.373 . S
C2560 C2562 1.389 . S
C2561 H2540 0.950 . S
C2561 C2560 1.373 . S
C2561 C2577 1.377 . S
C2562 C2560 1.389 . S
C2562 C2563 1.524 . S
C2562 C2576 1.377 . S
C2563 C2562 1.524 . S
C2563 C2564 1.397 . S
C2563 C2568 1.363 . S
C2564 H2541 0.950 . S
C2564 C2563 1.397 . S
C2564 C2565 1.334 . S
C2565 H2542 0.950 . S
C2565 C2564 1.334 . S
C2565 C2566 1.287 . S
C2566 C2565 1.287 . S
C2566 C2567 1.524 . S
C2566 H2585 0.913 . S
C2567 H2543 0.950 . S
C2567 C2566 1.524 . S
C2567 C2568 1.415 . S
C2568 H2544 0.950 . S
C2568 C2563 1.363 . S
C2568 C2567 1.415 . S
C2569 H2545 0.951 . S
C2569 C2570 1.366 . S
C2569 C2571 1.388 . S
C2570 C2569 1.366 . S
C2570 C2574 1.385 . S
C2571 H2546 0.951 . S
C2571 C2569 1.388 . S
C2571 C2572 1.366 . S
C2572 C2571 1.366 . S
C2572 C2573 1.414 . S
C2572 C2575 1.499 . S
C2573 H2547 0.950 . S
C2573 C2572 1.414 . S
C2573 C2574 1.374 . S
C2574 H2548 0.950 . S
C2574 C2570 1.385 . S
C2574 C2573 1.374 . S
C2575 C2572 1.499 . S
C2575 C2576 1.373 . S
C2575 C2577 1.389 . S
C2576 H2549 0.950 . S
C2576 C2562 1.377 . S
C2576 C2575 1.373 . S
C2577 C2561 1.377 . S
C2577 C2575 1.389 . S
C2577 C2578 1.524 . S
C2578 C2577 1.524 . S
C2578 C2579 1.397 . S
C2578 C2583 1.363 . S
C2579 H2550 0.950 . S
C2579 C2578 1.397 . S
C2579 C2580 1.334 . S
C2580 H2551 0.950 . S
C2580 C2579 1.334 . S
C2580 C2581 1.287 . S
C2581 C2580 1.287 . S
C2581 C2582 1.524 . S
C2581 H2584 0.999 . S
C2582 H2552 0.950 . S
C2582 C2581 1.524 . S
C2582 C2583 1.415 . S
C2583 H2553 0.950 . S
C2583 C2578 1.363 . S
C2583 C2582 1.415 . S
H2584 C2581 0.999 . S
H2585 C2566 0.913 . S
H2586 C2604 0.951 . S
H2587 C2606 0.951 . S
H2588 C2608 0.950 . S
H2589 C2609 0.950 . S
H2590 C2611 0.950 . S
H2591 C2614 0.950 . S
H2592 C2615 0.950 . S
H2593 C2617 0.950 1_554 S
H2594 C2618 0.950 . S
H2595 C2619 0.951 . S
H2596 C2621 0.951 . S
H2597 C2623 0.950 . S
H2598 C2624 0.950 . S
H2599 C2626 0.950 . S
H2600 C2629 0.950 . S
H2601 C2630 0.950 . S
H2602 C2632 0.950 . S
H2603 C2633 0.950 . S
C2604 H2586 0.951 . S
C2604 C2605 1.366 . S
C2604 C2606 1.388 . S
C2605 C2604 1.366 . S
C2605 C2609 1.385 . S
C2606 H2587 0.951 . S
C2606 C2604 1.388 . S
C2606 C2607 1.366 . S
C2607 C2606 1.366 . S
C2607 C2608 1.414 . S
C2607 C2610 1.499 . S
C2608 H2588 0.950 . S
C2608 C2607 1.414 . S
C2608 C2609 1.374 . S
C2609 H2589 0.950 . S
C2609 C2605 1.385 . S
C2609 C2608 1.374 . S
C2610 C2607 1.499 . S
C2610 C2611 1.373 . S
C2610 C2612 1.389 . S
C2611 H2590 0.950 . S
C2611 C2610 1.373 . S
C2611 C2627 1.377 . S
C2612 C2610 1.389 . S
C2612 C2613 1.524 . S
C2612 C2626 1.377 . S
C2613 C2612 1.524 . S
C2613 C2614 1.397 . S
C2613 C2618 1.363 . S
C2614 H2591 0.950 . S
C2614 C2613 1.397 . S
C2614 C2615 1.334 . S
C2615 H2592 0.950 . S
C2615 C2614 1.334 . S
C2615 C2616 1.287 . S
C2616 C2615 1.287 . S
C2616 C2617 1.524 . S
C2616 H2635 0.913 . S
C2617 H2593 0.950 1_556 S
C2617 C2616 1.524 . S
C2617 C2618 1.415 . S
C2618 H2594 0.950 . S
C2618 C2613 1.363 . S
C2618 C2617 1.415 . S
C2619 H2595 0.951 . S
C2619 C2620 1.366 . S
C2619 C2621 1.388 . S
C2620 C2619 1.366 . S
C2620 C2624 1.385 . S
C2621 H2596 0.951 . S
C2621 C2619 1.388 . S
C2621 C2622 1.366 . S
C2622 C2621 1.366 . S
C2622 C2623 1.414 . S
C2622 C2625 1.499 . S
C2623 H2597 0.950 . S
C2623 C2622 1.414 . S
C2623 C2624 1.374 . S
C2624 H2598 0.950 . S
C2624 C2620 1.385 . S
C2624 C2623 1.374 . S
C2625 C2622 1.499 . S
C2625 C2626 1.373 . S
C2625 C2627 1.389 . S
C2626 H2599 0.950 . S
C2626 C2612 1.377 . S
C2626 C2625 1.373 . S
C2627 C2611 1.377 . S
C2627 C2625 1.389 . S
C2627 C2628 1.524 . S
C2628 C2627 1.524 . S
C2628 C2629 1.397 . S
C2628 C2633 1.363 . S
C2629 H2600 0.950 . S
C2629 C2628 1.397 . S
C2629 C2630 1.334 . S
C2630 H2601 0.950 . S
C2630 C2629 1.334 . S
C2630 C2631 1.287 . S
C2631 C2630 1.287 . S
C2631 C2632 1.524 . S
C2631 H2634 0.999 . S
C2632 H2602 0.950 . S
C2632 C2631 1.524 . S
C2632 C2633 1.415 . S
C2633 H2603 0.950 . S
C2633 C2628 1.363 . S
C2633 C2632 1.415 . S
H2634 C2631 0.999 . S
H2635 C2616 0.913 . S
H2636 C2654 0.951 . S
H2637 C2656 0.951 . S
H2638 C2658 0.950 . S
H2639 C2659 0.950 . S
H2640 C2661 0.950 . S
H2641 C2664 0.950 . S
H2642 C2665 0.950 . S
H2643 C2667 0.950 . S
H2644 C2668 0.950 . S
H2645 C2669 0.951 . S
H2646 C2671 0.951 . S
H2647 C2673 0.950 . S
H2648 C2674 0.950 . S
H2649 C2676 0.950 . S
H2650 C2679 0.950 . S
H2651 C2680 0.950 . S
H2652 C2682 0.950 . S
H2653 C2683 0.950 . S
C2654 H2636 0.951 . S
C2654 C2655 1.366 . S
C2654 C2656 1.388 . S
C2655 C2654 1.366 . S
C2655 C2659 1.385 . S
C2656 H2637 0.951 . S
C2656 C2654 1.388 . S
C2656 C2657 1.366 . S
C2657 C2656 1.366 . S
C2657 C2658 1.414 . S
C2657 C2660 1.499 . S
C2658 H2638 0.950 . S
C2658 C2657 1.414 . S
C2658 C2659 1.374 . S
C2659 H2639 0.950 . S
C2659 C2655 1.385 . S
C2659 C2658 1.374 . S
C2660 C2657 1.499 . S
C2660 C2661 1.373 . S
C2660 C2662 1.389 . S
C2661 H2640 0.950 . S
C2661 C2660 1.373 . S
C2661 C2677 1.377 . S
C2662 C2660 1.389 . S
C2662 C2663 1.524 . S
C2662 C2676 1.377 . S
C2663 C2662 1.524 . S
C2663 C2664 1.397 . S
C2663 C2668 1.363 . S
C2664 H2641 0.950 . S
C2664 C2663 1.397 . S
C2664 C2665 1.334 . S
C2665 H2642 0.950 . S
C2665 C2664 1.334 . S
C2665 C2666 1.287 . S
C2666 C2665 1.287 . S
C2666 C2667 1.524 . S
C2666 H2685 0.913 . S
C2667 H2643 0.950 . S
C2667 C2666 1.524 . S
C2667 C2668 1.415 . S
C2668 H2644 0.950 . S
C2668 C2663 1.363 . S
C2668 C2667 1.415 . S
C2669 H2645 0.951 . S
C2669 C2670 1.366 . S
C2669 C2671 1.388 . S
C2670 C2669 1.366 . S
C2670 C2674 1.385 . S
C2671 H2646 0.951 . S
C2671 C2669 1.388 . S
C2671 C2672 1.366 . S
C2672 C2671 1.366 . S
C2672 C2673 1.414 . S
C2672 C2675 1.499 . S
C2673 H2647 0.950 . S
C2673 C2672 1.414 . S
C2673 C2674 1.374 . S
C2674 H2648 0.950 . S
C2674 C2670 1.385 . S
C2674 C2673 1.374 . S
C2675 C2672 1.499 . S
C2675 C2676 1.373 . S
C2675 C2677 1.389 . S
C2676 H2649 0.950 . S
C2676 C2662 1.377 . S
C2676 C2675 1.373 . S
C2677 C2661 1.377 . S
C2677 C2675 1.389 . S
C2677 C2678 1.524 . S
C2678 C2677 1.524 . S
C2678 C2679 1.397 . S
C2678 C2683 1.363 . S
C2679 H2650 0.950 . S
C2679 C2678 1.397 . S
C2679 C2680 1.334 . S
C2680 H2651 0.950 . S
C2680 C2679 1.334 . S
C2680 C2681 1.287 . S
C2681 C2680 1.287 . S
C2681 C2682 1.524 . S
C2681 H2684 0.999 . S
C2682 H2652 0.950 . S
C2682 C2681 1.524 . S
C2682 C2683 1.415 . S
C2683 H2653 0.950 . S
C2683 C2678 1.363 . S
C2683 C2682 1.415 . S
H2684 C2681 0.999 . S
H2685 C2666 0.913 . S
H2686 C2704 0.951 . S
H2687 C2706 0.951 . S
H2688 C2708 0.950 . S
H2689 C2709 0.950 . S
H2690 C2711 0.950 . S
H2691 C2714 0.950 . S
H2692 C2715 0.950 . S
H2693 C2717 0.950 1_554 S
H2694 C2718 0.950 . S
H2695 C2719 0.951 . S
H2696 C2721 0.951 . S
H2697 C2723 0.950 . S
H2698 C2724 0.950 . S
H2699 C2726 0.950 . S
H2700 C2729 0.950 . S
H2701 C2730 0.950 . S
H2702 C2732 0.950 . S
H2703 C2733 0.950 . S
C2704 H2686 0.951 . S
C2704 C2705 1.366 . S
C2704 C2706 1.388 . S
C2705 C2704 1.366 . S
C2705 C2709 1.385 . S
C2706 H2687 0.951 . S
C2706 C2704 1.388 . S
C2706 C2707 1.366 . S
C2707 C2706 1.366 . S
C2707 C2708 1.414 . S
C2707 C2710 1.499 . S
C2708 H2688 0.950 . S
C2708 C2707 1.414 . S
C2708 C2709 1.374 . S
C2709 H2689 0.950 . S
C2709 C2705 1.385 . S
C2709 C2708 1.374 . S
C2710 C2707 1.499 . S
C2710 C2711 1.373 . S
C2710 C2712 1.389 . S
C2711 H2690 0.950 . S
C2711 C2710 1.373 . S
C2711 C2727 1.377 . S
C2712 C2710 1.389 . S
C2712 C2713 1.524 . S
C2712 C2726 1.377 . S
C2713 C2712 1.524 . S
C2713 C2714 1.397 . S
C2713 C2718 1.363 . S
C2714 H2691 0.950 . S
C2714 C2713 1.397 . S
C2714 C2715 1.334 . S
C2715 H2692 0.950 . S
C2715 C2714 1.334 . S
C2715 C2716 1.287 . S
C2716 C2715 1.287 . S
C2716 C2717 1.524 . S
C2716 H2735 0.904 1_556 S
C2717 H2693 0.950 1_556 S
C2717 C2716 1.524 . S
C2717 C2718 1.415 . S
C2718 H2694 0.950 . S
C2718 C2713 1.363 . S
C2718 C2717 1.415 . S
C2719 H2695 0.951 . S
C2719 C2720 1.366 . S
C2719 C2721 1.388 . S
C2720 C2719 1.366 . S
C2720 C2724 1.385 . S
C2721 H2696 0.951 . S
C2721 C2719 1.388 . S
C2721 C2722 1.366 . S
C2722 C2721 1.366 . S
C2722 C2723 1.414 . S
C2722 C2725 1.499 . S
C2723 H2697 0.950 . S
C2723 C2722 1.414 . S
C2723 C2724 1.374 . S
C2724 H2698 0.950 . S
C2724 C2720 1.385 . S
C2724 C2723 1.374 . S
C2725 C2722 1.499 . S
C2725 C2726 1.373 . S
C2725 C2727 1.389 . S
C2726 H2699 0.950 . S
C2726 C2712 1.377 . S
C2726 C2725 1.373 . S
C2727 C2711 1.377 . S
C2727 C2725 1.389 . S
C2727 C2728 1.524 . S
C2728 C2727 1.524 . S
C2728 C2729 1.397 . S
C2728 C2733 1.363 . S
C2729 H2700 0.950 . S
C2729 C2728 1.397 . S
C2729 C2730 1.334 . S
C2730 H2701 0.950 . S
C2730 C2729 1.334 . S
C2730 C2731 1.287 . S
C2731 C2730 1.287 . S
C2731 C2732 1.524 . S
C2731 H2734 0.999 . S
C2732 H2702 0.950 . S
C2732 C2731 1.524 . S
C2732 C2733 1.415 . S
C2733 H2703 0.950 . S
C2733 C2728 1.363 . S
C2733 C2732 1.415 . S
H2734 C2731 0.999 . S
H2735 C2716 0.904 1_554 S
C355 C223 1.288 . S
C370 C13 1.287 . S
C405 C27 1.287 . S
C420 C237 1.288 . S
C455 C41 1.287 . S
C470 C251 1.288 . S
C505 C55 1.288 . S
C520 C181 1.287 . S
C555 C195 1.287 . S
C570 C69 1.288 . S
C605 C83 1.288 . S
C620 C209 1.287 . S
C655 C307 1.288 . S
C670 C97 1.287 . S
C705 C111 1.288 . S
C720 C321 1.288 . S
C755 C125 1.288 . S
C770 C335 1.287 . S
C805 C265 1.287 . S
C820 C139 1.288 . S
C855 C153 1.287 . S
C870 C279 1.288 . S
C905 C293 1.287 . S
C920 C167 1.288 . S
C955 C11 1.233 . S
C970 C333 1.233 . S
C1005 C263 1.233 . S
C1020 C25 1.233 . S
C1055 C39 1.234 . S
C1070 C277 1.233 . S
C1105 C291 1.233 . S
C1120 C53 1.233 . S
C1155 C67 1.234 . S
C1170 C305 1.233 . S
C1205 C319 1.234 . S
C1220 C81 1.233 . S
C1255 C95 1.233 . S
C1270 C193 1.233 . S
C1305 C207 1.234 . S
C1320 C109 1.233 . S
C1355 C221 1.233 . S
C1370 C123 1.233 . S
C1405 C235 1.233 . S
C1420 C137 1.234 . S
C1455 C151 1.234 . S
C1470 C249 1.233 . S
C1505 C165 1.233 . S
C1520 C179 1.233 . S
C1555 C105 0.897 . S
C1570 C7 0.898 . S
C1605 C119 0.897 . S
C1620 C21 0.897 . S
C1655 C133 0.898 . S
C1670 C35 0.897 . S
C1705 C147 0.897 . S
C1720 C49 0.897 . S
C1755 C63 0.897 . S
C1770 C161 0.897 . S
C1805 C77 0.897 . S
C1820 C91 0.897 . S
C1855 C175 0.898 . S
C1870 C273 0.898 . S
C1905 C189 0.897 . S
C1920 C287 0.897 . S
C1955 C301 0.897 . S
C1970 C203 0.898 . S
C2005 C315 0.897 . S
C2020 C217 0.897 . S
C2055 C329 0.897 . S
C2070 C231 0.898 . S
C2105 C259 0.898 . S
C2120 C245 0.898 . S
C2155 C8 1.415 . S
C2170 C274 1.414 . S
C2205 C288 1.415 . S
C2220 C22 1.414 . S
C2255 C36 1.415 . S
C2270 C302 1.414 . S
C2305 C316 1.415 . S
C2320 C50 1.414 . S
C2355 C64 1.415 . S
C2370 C330 1.414 . S
C2405 C260 1.415 . S
C2420 C78 1.415 . S
C2455 C92 1.414 . S
C2470 C246 1.415 . S
C2505 C176 1.414 . S
C2520 C106 1.415 . S
C2555 C120 1.415 . S
C2570 C190 1.414 . S
C2605 C134 1.414 . S
C2620 C204 1.415 . S
C2655 C148 1.415 . S
C2670 C218 1.414 . S
C2705 C162 1.414 . S
C2720 C232 1.415 . S
