# Generated by pormake.
# Topology zfu, (5)-cn, num edge types: 1
# Building blocks:
#     Node 0, Type 0, BuildingBlock: BEQFEK_clean_sbu_0, # of connection points: 5
#     Node 1, Type 0, BuildingBlock: BEQFEK_clean_sbu_0, # of connection points: 5
#     Node 2, Type 0, BuildingBlock: BEQFEK_clean_sbu_0, # of connection points: 5
#     Node 3, Type 0, BuildingBlock: BEQFEK_clean_sbu_0, # of connection points: 5
#     Node 4, Type 0, BuildingBlock: BEQFEK_clean_sbu_0, # of connection points: 5
#     Node 5, Type 0, BuildingBlock: BEQFEK_clean_sbu_0, # of connection points: 5
#     Node 6, Type 0, BuildingBlock: BEQFEK_clean_sbu_0, # of connection points: 5
#     Node 7, Type 0, BuildingBlock: BEQFEK_clean_sbu_0, # of connection points: 5
#     Edge 8, Type (0, 0), BuildingBlock: EYOCIG_clean_linker_4, # of connection points: 2
#     Edge 9, Type (0, 0), BuildingBlock: EYOCIG_clean_linker_4, # of connection points: 2
#     Edge 10, Type (0, 0), BuildingBlock: EYOCIG_clean_linker_4, # of connection points: 2
#     Edge 11, Type (0, 0), BuildingBlock: EYOCIG_clean_linker_4, # of connection points: 2
#     Edge 12, Type (0, 0), BuildingBlock: EYOCIG_clean_linker_4, # of connection points: 2
#     Edge 13, Type (0, 0), BuildingBlock: EYOCIG_clean_linker_4, # of connection points: 2
#     Edge 14, Type (0, 0), BuildingBlock: EYOCIG_clean_linker_4, # of connection points: 2
#     Edge 15, Type (0, 0), BuildingBlock: EYOCIG_clean_linker_4, # of connection points: 2
#     Edge 16, Type (0, 0), BuildingBlock: EYOCIG_clean_linker_4, # of connection points: 2
#     Edge 17, Type (0, 0), BuildingBlock: EYOCIG_clean_linker_4, # of connection points: 2
#     Edge 18, Type (0, 0), BuildingBlock: EYOCIG_clean_linker_4, # of connection points: 2
#     Edge 19, Type (0, 0), BuildingBlock: EYOCIG_clean_linker_4, # of connection points: 2
#     Edge 20, Type (0, 0), BuildingBlock: EYOCIG_clean_linker_4, # of connection points: 2
#     Edge 21, Type (0, 0), BuildingBlock: EYOCIG_clean_linker_4, # of connection points: 2
#     Edge 22, Type (0, 0), BuildingBlock: EYOCIG_clean_linker_4, # of connection points: 2
#     Edge 23, Type (0, 0), BuildingBlock: EYOCIG_clean_linker_4, # of connection points: 2
#     Edge 24, Type (0, 0), BuildingBlock: EYOCIG_clean_linker_4, # of connection points: 2
#     Edge 25, Type (0, 0), BuildingBlock: EYOCIG_clean_linker_4, # of connection points: 2
#     Edge 26, Type (0, 0), BuildingBlock: EYOCIG_clean_linker_4, # of connection points: 2
#     Edge 27, Type (0, 0), BuildingBlock: EYOCIG_clean_linker_4, # of connection points: 2
# Relax obj value: 0.068
# Max RMSD: 0.103
# Mean RMSD: 0.103
data_MOF--net-zfu--node1-BEQFEK_clean_sbu_0--edge1-EYOCIG_clean_linker_4
_symmetry_space_group_name_H-M    P1
_symmetry_Int_Tables_number       1
_symmetry_cell_setting            triclinic
loop_
_symmetry_equiv_pos_as_xyz
'x, y, z'
_cell_length_a     33.990484
_cell_length_b     33.996574
_cell_length_c     21.665849
_cell_angle_alpha  89.993583
_cell_angle_beta   90.009824
_cell_angle_gamma 90.015999
loop_
_atom_site_label
_atom_site_type_symbol
_atom_site_fract_x
_atom_site_fract_y
_atom_site_fract_z
_atom_type_partial_charge
Co0 Co 0.44621 0.69661 0.07908 0.0
Co1 Co 0.39587 0.77412 0.06345 0.0
C2 C 0.47954 0.777 0.105 0.0
O3 O 0.4824 0.73978 0.10219 0.0
O4 O 0.44805 0.79495 0.09031 0.0
C5 C 0.51102 0.64911 0.04639 0.0
O6 O 0.52233 0.68188 0.01978 0.0
C7 C 0.37197 0.84957 0.00789 0.0
C8 C 0.30846 0.85141 0.02939 0.0
C9 C 0.33814 0.87151 0.99934 0.0
N10 N 0.36274 0.81748 0.04125 0.0
N11 N 0.32476 0.81897 0.05438 0.0
C12 C 0.41211 0.85816 0.98316 0.0
H13 H 0.42892 0.83045 0.97703 0.0
H14 H 0.4102 0.87432 0.93872 0.0
H15 H 0.42805 0.87694 0.01679 0.0
C16 C 0.41469 0.68218 0.95408 0.0
N17 N 0.42047 0.7059 1.00309 0.0
N18 N 0.39993 0.73843 0.99567 0.0
C19 C 0.38078 0.73644 0.94112 0.0
C20 C 0.38948 0.7008 0.91346 0.0
C21 C 0.42983 0.64098 0.94926 0.0
H22 H 0.42541 0.62545 0.99375 0.0
H23 H 0.46183 0.64187 0.9394 0.0
H24 H 0.41493 0.62444 0.91177 0.0
O25 O 0.40658 0.69136 0.14501 0.0
O26 O 0.37127 0.7464 0.1352 0.0
H27 H 0.32815 0.77007 0.95258 0.0
H28 H 0.33904 0.75771 0.8733 0.0
C29 C 0.35205 0.7664 0.91826 0.0
H30 H 0.36726 0.79499 0.91259 0.0
H31 H 0.30977 0.79735 0.07922 0.0
O32 O 0.47835 0.64782 0.07475 0.0
C33 C 0.37871 0.71387 0.16208 0.0
Co34 Co 0.81512 0.94645 0.32857 0.0
Co35 Co 0.73754 0.89615 0.31324 0.0
C36 C 0.7348 0.97976 0.35502 0.0
O37 O 0.77202 0.98262 0.35201 0.0
O38 O 0.7168 0.94829 0.34034 0.0
C39 C 0.86262 0.01126 0.2958 0.0
O40 O 0.8298 0.02262 0.26939 0.0
C41 C 0.662 0.87231 0.25792 0.0
C42 C 0.6601 0.80881 0.27947 0.0
C43 C 0.64 0.8385 0.24943 0.0
N44 N 0.69412 0.86305 0.29122 0.0
N45 N 0.69259 0.82509 0.30438 0.0
C46 C 0.65345 0.91245 0.23319 0.0
H47 H 0.68119 0.92922 0.22698 0.0
H48 H 0.63724 0.91055 0.18879 0.0
H49 H 0.63473 0.92841 0.26685 0.0
C50 C 0.82927 0.91509 0.2034 0.0
N51 N 0.80565 0.92082 0.25254 0.0
N52 N 0.77311 0.90026 0.24527 0.0
C53 C 0.77498 0.88115 0.1907 0.0
C54 C 0.81057 0.88989 0.16285 0.0
C55 C 0.87047 0.93026 0.19837 0.0
H56 H 0.88611 0.92578 0.24275 0.0
H57 H 0.86955 0.96227 0.18863 0.0
H58 H 0.88691 0.91544 0.16072 0.0
O59 O 0.82049 0.90674 0.39438 0.0
O60 O 0.76539 0.87147 0.38477 0.0
H61 H 0.74135 0.82852 0.20239 0.0
H62 H 0.75362 0.83934 0.12305 0.0
C63 C 0.74499 0.85238 0.168 0.0
H64 H 0.71638 0.86757 0.16237 0.0
H65 H 0.71421 0.81009 0.32918 0.0
O66 O 0.86394 0.97857 0.32407 0.0
C67 C 0.79799 0.87887 0.41151 0.0
Co68 Co 0.56541 0.31511 0.57869 0.0
Co69 Co 0.61577 0.23756 0.56369 0.0
C70 C 0.53203 0.23478 0.60485 0.0
O71 O 0.52915 0.27199 0.60182 0.0
O72 O 0.56356 0.21682 0.59043 0.0
C73 C 0.50075 0.36267 0.54534 0.0
O74 O 0.48951 0.32992 0.51859 0.0
C75 C 0.63962 0.16206 0.50832 0.0
C76 C 0.70304 0.15997 0.53043 0.0
C77 C 0.6734 0.14 0.50006 0.0
N78 N 0.64886 0.1941 0.54181 0.0
N79 N 0.68677 0.19245 0.55531 0.0
C80 C 0.59954 0.15365 0.48318 0.0
H81 H 0.58279 0.18141 0.47719 0.0
H82 H 0.60157 0.13768 0.4386 0.0
H83 H 0.58347 0.13474 0.51648 0.0
C84 C 0.59719 0.32932 0.45382 0.0
N85 N 0.59129 0.30568 0.50288 0.0
N86 N 0.61186 0.27314 0.49574 0.0
C87 C 0.63114 0.27505 0.44131 0.0
C88 C 0.62249 0.31065 0.41344 0.0
C89 C 0.58208 0.37053 0.44873 0.0
H90 H 0.58636 0.38611 0.49321 0.0
H91 H 0.55012 0.36964 0.43858 0.0
H92 H 0.59711 0.38702 0.41132 0.0
O93 O 0.60493 0.32043 0.64479 0.0
O94 O 0.64028 0.26539 0.63541 0.0
H95 H 0.68368 0.24138 0.45343 0.0
H96 H 0.67321 0.2538 0.37402 0.0
C97 C 0.65997 0.24509 0.4188 0.0
H98 H 0.64477 0.21651 0.41289 0.0
H99 H 0.70175 0.21399 0.58032 0.0
O100 O 0.53331 0.36391 0.57402 0.0
C101 C 0.63278 0.29796 0.66211 0.0
Co102 Co 0.19651 0.06546 0.82828 0.0
Co103 Co 0.27416 0.11565 0.81328 0.0
C104 C 0.27676 0.03197 0.85473 0.0
O105 O 0.23954 0.02917 0.85164 0.0
O106 O 0.29481 0.06345 0.84022 0.0
C107 C 0.14894 1.00088 0.79489 0.0
O108 O 0.1817 0.98968 0.76816 0.0
C109 C 0.34966 0.13947 0.75794 0.0
C110 C 0.35182 0.20287 0.78006 0.0
C111 C 0.37175 0.17324 0.74966 0.0
N112 N 0.31765 0.1487 0.79147 0.0
N113 N 0.31933 0.18661 0.80498 0.0
C114 C 0.35802 0.09941 0.73276 0.0
H115 H 0.33024 0.08266 0.72689 0.0
H116 H 0.37391 0.10146 0.6881 0.0
H117 H 0.377 0.08334 0.76596 0.0
C118 C 0.18245 0.09708 0.70323 0.0
N119 N 0.20604 0.09122 0.75238 0.0
N120 N 0.23863 0.11173 0.74524 0.0
C121 C 0.23681 0.13094 0.69073 0.0
C122 C 0.20122 0.12231 0.6628 0.0
C123 C 0.14122 0.08202 0.69809 0.0
H124 H 0.12561 0.08632 0.74253 0.0
H125 H 0.14205 0.05007 0.68794 0.0
H126 H 0.12478 0.09707 0.66064 0.0
O127 O 0.19117 0.10505 0.89424 0.0
O128 O 0.24631 0.14026 0.88486 0.0
H129 H 0.27064 0.18341 0.7028 0.0
H130 H 0.25817 0.17296 0.62341 0.0
C131 C 0.26685 0.1597 0.66819 0.0
H132 H 0.29539 0.14444 0.66227 0.0
H133 H 0.29781 0.20158 0.83001 0.0
O134 O 0.14768 0.03341 0.8236 0.0
C135 C 0.21369 0.13286 0.91151 0.0
Co136 Co 0.94621 0.81528 0.7422 0.0
Co137 Co 0.89596 0.7377 0.75776 0.0
C138 C 0.97967 0.73495 0.71638 0.0
O139 O 0.98249 0.77218 0.71919 0.0
O140 O 0.94818 0.71696 0.73101 0.0
C141 C 0.01087 0.86288 0.77509 0.0
O142 O 0.02213 0.83016 0.80188 0.0
C143 C 0.87216 0.66227 0.81343 0.0
C144 C 0.80871 0.66016 0.79153 0.0
C145 C 0.83838 0.64021 0.82184 0.0
N146 N 0.8629 0.69428 0.7799 0.0
N147 N 0.82496 0.69263 0.76654 0.0
C148 C 0.91228 0.65387 0.83842 0.0
H149 H 0.92899 0.68166 0.8445 0.0
H150 H 0.91032 0.63781 0.88294 0.0
H151 H 0.92834 0.63507 0.80499 0.0
C152 C 0.91457 0.82971 0.86712 0.0
N153 N 0.92042 0.80598 0.81815 0.0
N154 N 0.89991 0.77343 0.82553 0.0
C155 C 0.8807 0.77541 0.88002 0.0
C156 C 0.88934 0.81107 0.90769 0.0
C157 C 0.92965 0.87095 0.87195 0.0
H158 H 0.92529 0.88644 0.82741 0.0
H159 H 0.96163 0.87013 0.88198 0.0
H160 H 0.91467 0.88748 0.90933 0.0
O161 O 0.90663 0.82043 0.67618 0.0
O162 O 0.87136 0.76535 0.68594 0.0
H163 H 0.82816 0.74163 0.86834 0.0
H164 H 0.83882 0.75415 0.94764 0.0
C165 C 0.85196 0.74542 0.9028 0.0
H166 H 0.86721 0.71687 0.9087 0.0
H167 H 0.80996 0.71415 0.74153 0.0
O168 O 0.97827 0.86411 0.74653 0.0
C169 C 0.87879 0.79789 0.65905 0.0
Co170 Co 0.69658 0.44651 0.99299 0.0
Co171 Co 0.77413 0.39616 0.00787 0.0
C172 C 0.77691 0.47985 0.96653 0.0
O173 O 0.73969 0.48273 0.96965 0.0
O174 O 0.79489 0.44834 0.98097 0.0
C175 C 0.64911 0.51119 0.02643 0.0
O176 O 0.6819 0.52241 0.05308 0.0
C177 C 0.84966 0.3722 0.06305 0.0
C178 C 0.85161 0.30879 0.04097 0.0
C179 C 0.87167 0.33839 0.07129 0.0
N180 N 0.81757 0.36303 0.02962 0.0
N181 N 0.81913 0.32511 0.01614 0.0
C182 C 0.85817 0.41225 0.08818 0.0
H183 H 0.83045 0.42911 0.09397 0.0
H184 H 0.87401 0.41017 0.13287 0.0
H185 H 0.87724 0.42822 0.055 0.0
C186 C 0.68255 0.41487 0.11803 0.0
N187 N 0.70611 0.42071 0.06885 0.0
N188 N 0.73866 0.40014 0.07594 0.0
C189 C 0.73683 0.38091 0.13043 0.0
C190 C 0.70128 0.38959 0.15841 0.0
C191 C 0.64136 0.43002 0.12325 0.0
H192 H 0.6257 0.42574 0.07884 0.0
H193 H 0.64229 0.46197 0.13336 0.0
H194 H 0.62492 0.41502 0.16074 0.0
O195 O 0.69111 0.40695 0.92699 0.0
O196 O 0.74618 0.37163 0.9363 0.0
H197 H 0.77048 0.32835 0.11829 0.0
H198 H 0.75816 0.33886 0.19772 0.0
C199 C 0.76682 0.35208 0.15289 0.0
H200 H 0.79541 0.36727 0.15872 0.0
H201 H 0.79753 0.31017 0.99118 0.0
O202 O 0.6478 0.47864 0.99777 0.0
C203 C 0.71356 0.37909 0.90969 0.0
Co204 Co 0.06547 0.19666 0.24228 0.0
Co205 Co 0.11577 0.27426 0.25735 0.0
C206 C 0.03206 0.27695 0.21601 0.0
O207 O 0.02921 0.23973 0.21904 0.0
O208 O 0.06356 0.29495 0.23051 0.0
C209 C 1.00081 0.14916 0.27569 0.0
O210 O 0.98967 0.18192 0.30247 0.0
C211 C 0.13961 0.34974 0.31275 0.0
C212 C 0.20303 0.35189 0.2907 0.0
C213 C 0.17339 0.37182 0.32107 0.0
N214 N 0.14885 0.31773 0.27924 0.0
N215 N 0.18677 0.3194 0.26576 0.0
C216 C 0.09953 0.35811 0.33787 0.0
H217 H 0.08281 0.33032 0.3439 0.0
H218 H 0.10154 0.37411 0.38242 0.0
H219 H 0.08343 0.37697 0.30453 0.0
C220 C 0.09719 0.18248 0.36722 0.0
N221 N 0.09131 0.20612 0.31814 0.0
N222 N 0.11185 0.23868 0.32532 0.0
C223 C 0.13111 0.23679 0.37978 0.0
C224 C 0.12247 0.20119 0.40764 0.0
C225 C 0.08211 0.14126 0.37228 0.0
H226 H 0.08636 0.1257 0.32778 0.0
H227 H 0.05016 0.1421 0.38248 0.0
H228 H 0.09718 0.12477 0.40964 0.0
O229 O 0.10502 0.19135 0.17625 0.0
O230 O 0.14032 0.24644 0.18568 0.0
H231 H 0.18363 0.27054 0.36773 0.0
H232 H 0.17316 0.25809 0.44712 0.0
C233 C 0.15992 0.26679 0.40233 0.0
H234 H 0.14469 0.29534 0.40825 0.0
H235 H 0.20176 0.29788 0.24075 0.0
O236 O 0.03333 0.14787 0.24694 0.0
C237 C 0.13285 0.21385 0.15898 0.0
Co238 Co 0.31514 0.56538 0.49257 0.0
Co239 Co 0.23754 0.61562 0.50807 0.0
C240 C 0.23478 0.53202 0.4663 0.0
O241 O 0.27201 0.52919 0.46924 0.0
O242 O 0.21678 0.56347 0.481 0.0
C243 C 0.36273 0.50065 0.52542 0.0
O244 O 0.32997 0.48932 0.55205 0.0
C245 C 0.16204 0.6395 0.56353 0.0
C246 C 0.16021 0.70299 0.54195 0.0
C247 C 0.14009 0.67333 0.57203 0.0
N248 N 0.19414 0.64872 0.53018 0.0
N249 N 0.19265 0.68669 0.517 0.0
C250 C 0.15344 0.59938 0.58831 0.0
H251 H 0.18113 0.58246 0.59407 0.0
H252 H 0.13753 0.60133 0.63295 0.0
H253 H 0.1344 0.58354 0.55492 0.0
C254 C 0.32942 0.5968 0.61766 0.0
N255 N 0.30575 0.59103 0.56859 0.0
N256 N 0.27318 0.61152 0.57595 0.0
C257 C 0.27509 0.63062 0.63054 0.0
C258 C 0.31073 0.62194 0.65828 0.0
C259 C 0.37066 0.58173 0.62257 0.0
H260 H 0.3862 0.58616 0.5781 0.0
H261 H 0.36982 0.54974 0.63248 0.0
H262 H 0.38715 0.59666 0.66007 0.0
O263 O 0.32043 0.60507 0.42674 0.0
O264 O 0.26533 0.64031 0.43645 0.0
H265 H 0.2414 0.68319 0.61903 0.0
H266 H 0.25374 0.67231 0.69833 0.0
C267 C 0.24508 0.6593 0.65335 0.0
H268 H 0.21651 0.64405 0.65898 0.0
H269 H 0.21427 0.70167 0.49216 0.0
O270 O 0.36397 0.53329 0.49699 0.0
C271 C 0.2979 0.63293 0.40965 0.0
C272 C 0.58809 0.55891 0.0338 0.0
C273 C 0.61513 0.53617 0.02921 0.0
C274 C 0.5588 0.58813 0.0394 0.0
C275 C 0.536 0.61513 0.04384 0.0
C276 C 0.95296 0.08821 0.28298 0.0
C277 C 0.97577 0.11521 0.27841 0.0
C278 C 0.92368 0.05898 0.2886 0.0
C279 C 0.89663 0.03621 0.29312 0.0
C280 C 0.45303 0.42369 0.5381 0.0
C281 C 0.47579 0.39666 0.54265 0.0
C282 C 0.42378 0.45295 0.53251 0.0
C283 C 0.39674 0.47571 0.52802 0.0
C284 C 0.05863 0.9239 0.78207 0.0
C285 C 0.03585 0.89687 0.77763 0.0
C286 C 0.08791 0.95314 0.78762 0.0
C287 C 0.11496 0.9759 0.79217 0.0
C288 C 0.32171 0.6729 0.31233 0.0
C289 C 0.30932 0.65572 0.35692 0.0
C290 C 0.33884 0.69007 0.2595 0.0
C291 C 0.35596 0.70246 0.21486 0.0
C292 C 0.82185 0.83887 0.50876 0.0
C293 C 0.80945 0.85607 0.4642 0.0
C294 C 0.83896 0.82166 0.56158 0.0
C295 C 0.85606 0.80926 0.60624 0.0
C296 C 0.68959 0.3392 0.81238 0.0
C297 C 0.70201 0.35637 0.85696 0.0
C298 C 0.67249 0.32196 0.75958 0.0
C299 C 0.65544 0.30948 0.71493 0.0
C300 C 0.1898 0.17276 0.0088 0.0
C301 C 0.20221 0.1556 0.96423 0.0
C302 C 0.17266 0.18995 0.06159 0.0
C303 C 0.15555 0.20238 0.10621 0.0
C304 C 0.34109 0.65348 0.75925 0.0
C305 C 0.32703 0.63926 0.71332 0.0
C306 C 0.35794 0.67035 0.81256 0.0
C307 C 0.37217 0.68444 0.85846 0.0
C308 C 0.84087 0.85836 0.06184 0.0
C309 C 0.82684 0.87257 0.10779 0.0
C310 C 0.85772 0.84149 0.00854 0.0
C311 C 0.87198 0.82741 0.96266 0.0
C312 C 0.67107 0.3579 0.25934 0.0
C313 C 0.68508 0.37218 0.21343 0.0
C314 C 0.65421 0.34099 0.31261 0.0
C315 C 0.63992 0.32692 0.35847 0.0
C316 C 0.15416 0.17088 0.50853 0.0
C317 C 0.13989 0.18493 0.46264 0.0
C318 C 0.17101 0.15399 0.56183 0.0
C319 C 0.18502 0.13972 0.60776 0.0
C320 C 0.32548 0.93645 0.93512 0.0
C321 C 0.33307 0.90691 0.96367 0.0
C322 C 0.31266 0.97066 0.90391 0.0
C323 C 0.29822 0.99964 0.88105 0.0
C324 C 0.54081 0.81306 0.15405 0.0
C325 C 0.51183 0.79858 0.13123 0.0
C326 C 0.57504 0.82589 0.18525 0.0
C327 C 0.60459 0.83346 0.21378 0.0
C328 C 0.69884 0.04095 0.4044 0.0
C329 C 0.71329 0.01201 0.38144 0.0
C330 C 0.68603 0.07513 0.43571 0.0
C331 C 0.67846 0.10464 0.4643 0.0
C332 C 0.47077 0.19875 0.65394 0.0
C333 C 0.49973 0.21324 0.63112 0.0
C334 C 0.43658 0.1859 0.68521 0.0
C335 C 0.40708 0.17831 0.71385 0.0
C336 C 0.82577 0.57532 0.88617 0.0
C337 C 0.83335 0.60484 0.85759 0.0
C338 C 0.81293 0.54111 0.9174 0.0
C339 C 0.79844 0.51215 0.94023 0.0
C340 C 0.97077 0.31288 0.16684 0.0
C341 C 0.99975 0.29844 0.18969 0.0
C342 C 0.93656 0.32568 0.13558 0.0
C343 C 0.90704 0.33327 0.107 0.0
C344 C 0.19881 0.47082 0.41691 0.0
C345 C 0.21326 0.49976 0.43988 0.0
C346 C 0.18601 0.43665 0.38555 0.0
C347 C 0.17844 0.40716 0.35689 0.0
C348 C 0.07518 0.68605 0.63625 0.0
C349 C 0.1047 0.67842 0.60771 0.0
C350 C 0.04097 0.69892 0.66742 0.0
C351 C 0.01199 0.71342 0.6902 0.0
loop_
_geom_bond_atom_site_label_1
_geom_bond_atom_site_label_2
_geom_bond_distance
_geom_bond_site_symmetry_2
_ccdc_geom_bond_type
Co0 O3 1.970 . S
Co0 N17 1.989 1_554 S
Co0 O25 1.967 . S
Co0 O32 1.920 . S
Co1 O4 1.966 . S
Co1 N10 2.022 . S
Co1 N18 1.993 1_554 S
Co1 O26 1.941 . S
C2 O3 1.258 . S
C2 O4 1.263 . S
O3 Co0 1.970 . S
O3 C2 1.258 . S
O4 Co1 1.966 . S
O4 C2 1.263 . S
C5 O6 1.235 . S
C5 O32 1.289 . S
O6 C5 1.235 . S
C7 C9 1.400 . S
C7 N10 1.351 . S
C7 C12 1.501 . S
C8 C9 1.387 . S
C8 N11 1.341 . S
C9 C7 1.400 . S
C9 C8 1.387 . S
N10 Co1 2.022 . S
N10 C7 1.351 . S
N10 N11 1.365 . S
N11 C8 1.341 . S
N11 N10 1.365 . S
N11 H31 0.862 . S
C12 C7 1.501 . S
C12 H13 0.961 . S
C12 H14 0.961 1_554 S
C12 H15 0.960 . S
H13 C12 0.961 . S
H14 C12 0.961 1_556 S
H15 C12 0.960 . S
C16 N17 1.342 . S
C16 C20 1.401 . S
C16 C21 1.499 . S
N17 Co0 1.989 1_556 S
N17 C16 1.342 . S
N17 N18 1.388 . S
N18 Co1 1.993 1_556 S
N18 N17 1.388 . S
N18 C19 1.346 . S
C19 N18 1.346 . S
C19 C20 1.396 . S
C19 C29 1.510 . S
C20 C16 1.401 . S
C20 C19 1.396 . S
C21 C16 1.499 . S
C21 H22 0.959 . S
C21 H23 0.960 . S
C21 H24 0.961 . S
H22 C21 0.959 . S
H23 C21 0.960 . S
H24 C21 0.961 . S
O25 Co0 1.967 . S
O25 C33 1.258 . S
O26 Co1 1.941 . S
O26 C33 1.266 . S
H27 C29 0.959 . S
H28 C29 0.961 . S
C29 C19 1.510 . S
C29 H27 0.959 . S
C29 H28 0.961 . S
C29 H30 0.960 . S
H30 C29 0.960 . S
H31 N11 0.862 . S
O32 Co0 1.920 . S
O32 C5 1.289 . S
C33 O25 1.258 . S
C33 O26 1.266 . S
Co34 O37 1.970 . S
Co34 N51 1.989 . S
Co34 O59 1.967 . S
Co34 O66 1.920 . S
Co35 O38 1.966 . S
Co35 N44 2.022 . S
Co35 N52 1.993 . S
Co35 O60 1.941 . S
C36 O37 1.258 . S
C36 O38 1.263 . S
O37 Co34 1.970 . S
O37 C36 1.258 . S
O38 Co35 1.966 . S
O38 C36 1.263 . S
C39 O40 1.243 . S
C39 O66 1.271 1_545 S
O40 C39 1.243 . S
C41 C43 1.400 . S
C41 N44 1.351 . S
C41 C46 1.501 . S
C42 C43 1.387 . S
C42 N45 1.341 . S
C43 C41 1.400 . S
C43 C42 1.387 . S
N44 Co35 2.022 . S
N44 C41 1.351 . S
N44 N45 1.365 . S
N45 C42 1.341 . S
N45 N44 1.365 . S
N45 H65 0.862 . S
C46 C41 1.501 . S
C46 H47 0.961 . S
C46 H48 0.961 . S
C46 H49 0.960 . S
H47 C46 0.961 . S
H48 C46 0.961 . S
H49 C46 0.960 . S
C50 N51 1.342 . S
C50 C54 1.401 . S
C50 C55 1.499 . S
N51 Co34 1.989 . S
N51 C50 1.342 . S
N51 N52 1.388 . S
N52 Co35 1.993 . S
N52 N51 1.388 . S
N52 C53 1.346 . S
C53 N52 1.346 . S
C53 C54 1.396 . S
C53 C63 1.510 . S
C54 C50 1.401 . S
C54 C53 1.396 . S
C55 C50 1.499 . S
C55 H56 0.959 . S
C55 H57 0.960 . S
C55 H58 0.961 . S
H56 C55 0.959 . S
H57 C55 0.960 . S
H58 C55 0.961 . S
O59 Co34 1.967 . S
O59 C67 1.258 . S
O60 Co35 1.941 . S
O60 C67 1.266 . S
H61 C63 0.959 . S
H62 C63 0.961 . S
C63 C53 1.510 . S
C63 H61 0.959 . S
C63 H62 0.961 . S
C63 H64 0.960 . S
H64 C63 0.960 . S
H65 N45 0.862 . S
O66 Co34 1.920 . S
O66 C39 1.271 1_565 S
C67 O59 1.258 . S
C67 O60 1.266 . S
Co68 O71 1.970 . S
Co68 N85 1.989 . S
Co68 O93 1.967 . S
Co68 O100 1.920 . S
Co69 O72 1.966 . S
Co69 N78 2.022 . S
Co69 N86 1.993 . S
Co69 O94 1.941 . S
C70 O71 1.258 . S
C70 O72 1.263 . S
O71 Co68 1.970 . S
O71 C70 1.258 . S
O72 Co69 1.966 . S
O72 C70 1.263 . S
C73 O74 1.235 . S
C73 O100 1.289 . S
O74 C73 1.235 . S
C75 C77 1.400 . S
C75 N78 1.351 . S
C75 C80 1.501 . S
C76 C77 1.387 . S
C76 N79 1.341 . S
C77 C75 1.400 . S
C77 C76 1.387 . S
N78 Co69 2.022 . S
N78 C75 1.351 . S
N78 N79 1.365 . S
N79 C76 1.341 . S
N79 N78 1.365 . S
N79 H99 0.862 . S
C80 C75 1.501 . S
C80 H81 0.961 . S
C80 H82 0.961 . S
C80 H83 0.960 . S
H81 C80 0.961 . S
H82 C80 0.961 . S
H83 C80 0.960 . S
C84 N85 1.342 . S
C84 C88 1.401 . S
C84 C89 1.499 . S
N85 Co68 1.989 . S
N85 C84 1.342 . S
N85 N86 1.388 . S
N86 Co69 1.993 . S
N86 N85 1.388 . S
N86 C87 1.346 . S
C87 N86 1.346 . S
C87 C88 1.396 . S
C87 C97 1.510 . S
C88 C84 1.401 . S
C88 C87 1.396 . S
C89 C84 1.499 . S
C89 H90 0.959 . S
C89 H91 0.960 . S
C89 H92 0.961 . S
H90 C89 0.959 . S
H91 C89 0.960 . S
H92 C89 0.961 . S
O93 Co68 1.967 . S
O93 C101 1.258 . S
O94 Co69 1.941 . S
O94 C101 1.266 . S
H95 C97 0.959 . S
H96 C97 0.961 . S
C97 C87 1.510 . S
C97 H95 0.959 . S
C97 H96 0.961 . S
C97 H98 0.960 . S
H98 C97 0.960 . S
H99 N79 0.862 . S
O100 Co68 1.920 . S
O100 C73 1.289 . S
C101 O93 1.258 . S
C101 O94 1.266 . S
Co102 O105 1.970 . S
Co102 N119 1.989 . S
Co102 O127 1.967 . S
Co102 O134 1.920 . S
Co103 O106 1.966 . S
Co103 N112 2.022 . S
Co103 N120 1.993 . S
Co103 O128 1.941 . S
C104 O105 1.258 . S
C104 O106 1.263 . S
O105 Co102 1.970 . S
O105 C104 1.258 . S
O106 Co103 1.966 . S
O106 C104 1.263 . S
C107 O108 1.243 . S
C107 O134 1.272 1_565 S
O108 C107 1.243 . S
C109 C111 1.400 . S
C109 N112 1.351 . S
C109 C114 1.501 . S
C110 C111 1.387 . S
C110 N113 1.341 . S
C111 C109 1.400 . S
C111 C110 1.387 . S
N112 Co103 2.022 . S
N112 C109 1.351 . S
N112 N113 1.365 . S
N113 C110 1.341 . S
N113 N112 1.365 . S
N113 H133 0.862 . S
C114 C109 1.501 . S
C114 H115 0.961 . S
C114 H116 0.961 . S
C114 H117 0.960 . S
H115 C114 0.961 . S
H116 C114 0.961 . S
H117 C114 0.960 . S
C118 N119 1.342 . S
C118 C122 1.401 . S
C118 C123 1.499 . S
N119 Co102 1.989 . S
N119 C118 1.342 . S
N119 N120 1.388 . S
N120 Co103 1.993 . S
N120 N119 1.388 . S
N120 C121 1.346 . S
C121 N120 1.346 . S
C121 C122 1.396 . S
C121 C131 1.510 . S
C122 C118 1.401 . S
C122 C121 1.396 . S
C123 C118 1.499 . S
C123 H124 0.959 . S
C123 H125 0.960 . S
C123 H126 0.961 . S
H124 C123 0.959 . S
H125 C123 0.960 . S
H126 C123 0.961 . S
O127 Co102 1.967 . S
O127 C135 1.258 . S
O128 Co103 1.941 . S
O128 C135 1.266 . S
H129 C131 0.959 . S
H130 C131 0.961 . S
C131 C121 1.510 . S
C131 H129 0.959 . S
C131 H130 0.961 . S
C131 H132 0.960 . S
H132 C131 0.960 . S
H133 N113 0.862 . S
O134 Co102 1.920 . S
O134 C107 1.272 1_545 S
C135 O127 1.258 . S
C135 O128 1.266 . S
Co136 O139 1.970 . S
Co136 N153 1.989 . S
Co136 O161 1.967 . S
Co136 O168 1.920 . S
Co137 O140 1.966 . S
Co137 N146 2.022 . S
Co137 N154 1.993 . S
Co137 O162 1.941 . S
C138 O139 1.258 . S
C138 O140 1.263 . S
O139 Co136 1.970 . S
O139 C138 1.258 . S
O140 Co137 1.966 . S
O140 C138 1.263 . S
C141 O142 1.243 . S
C141 O168 1.272 1_455 S
O142 C141 1.243 . S
C143 C145 1.400 . S
C143 N146 1.351 . S
C143 C148 1.501 . S
C144 C145 1.387 . S
C144 N147 1.341 . S
C145 C143 1.400 . S
C145 C144 1.387 . S
N146 Co137 2.022 . S
N146 C143 1.351 . S
N146 N147 1.365 . S
N147 C144 1.341 . S
N147 N146 1.365 . S
N147 H167 0.862 . S
C148 C143 1.501 . S
C148 H149 0.961 . S
C148 H150 0.961 . S
C148 H151 0.960 . S
H149 C148 0.961 . S
H150 C148 0.961 . S
H151 C148 0.960 . S
C152 N153 1.342 . S
C152 C156 1.401 . S
C152 C157 1.499 . S
N153 Co136 1.989 . S
N153 C152 1.342 . S
N153 N154 1.388 . S
N154 Co137 1.993 . S
N154 N153 1.388 . S
N154 C155 1.346 . S
C155 N154 1.346 . S
C155 C156 1.396 . S
C155 C165 1.510 . S
C156 C152 1.401 . S
C156 C155 1.396 . S
C157 C152 1.499 . S
C157 H158 0.959 . S
C157 H159 0.960 . S
C157 H160 0.961 . S
H158 C157 0.959 . S
H159 C157 0.960 . S
H160 C157 0.961 . S
O161 Co136 1.967 . S
O161 C169 1.258 . S
O162 Co137 1.941 . S
O162 C169 1.266 . S
H163 C165 0.959 . S
H164 C165 0.961 . S
C165 C155 1.510 . S
C165 H163 0.959 . S
C165 H164 0.961 . S
C165 H166 0.960 . S
H166 C165 0.960 . S
H167 N147 0.862 . S
O168 Co136 1.920 . S
O168 C141 1.272 1_655 S
C169 O161 1.258 . S
C169 O162 1.266 . S
Co170 O173 1.970 . S
Co170 N187 1.989 1_556 S
Co170 O195 1.967 . S
Co170 O202 1.920 . S
Co171 O174 1.966 . S
Co171 N180 2.022 1_556 S
Co171 N188 1.993 1_556 S
Co171 O196 1.941 . S
C172 O173 1.258 . S
C172 O174 1.263 . S
O173 Co170 1.970 . S
O173 C172 1.258 . S
O174 Co171 1.966 . S
O174 C172 1.263 . S
C175 O176 1.235 . S
C175 O202 1.289 1_554 S
O176 C175 1.235 . S
C177 C179 1.400 . S
C177 N180 1.351 . S
C177 C182 1.501 . S
C178 C179 1.387 . S
C178 N181 1.341 . S
C179 C177 1.400 . S
C179 C178 1.387 . S
N180 Co171 2.022 1_554 S
N180 C177 1.351 . S
N180 N181 1.365 . S
N181 C178 1.341 . S
N181 N180 1.365 . S
N181 H201 0.862 . S
C182 C177 1.501 . S
C182 H183 0.961 . S
C182 H184 0.961 . S
C182 H185 0.960 . S
H183 C182 0.961 . S
H184 C182 0.961 . S
H185 C182 0.960 . S
C186 N187 1.342 . S
C186 C190 1.401 . S
C186 C191 1.499 . S
N187 Co170 1.989 1_554 S
N187 C186 1.342 . S
N187 N188 1.388 . S
N188 Co171 1.993 1_554 S
N188 N187 1.388 . S
N188 C189 1.346 . S
C189 N188 1.346 . S
C189 C190 1.396 . S
C189 C199 1.510 . S
C190 C186 1.401 . S
C190 C189 1.396 . S
C191 C186 1.499 . S
C191 H192 0.959 . S
C191 H193 0.960 . S
C191 H194 0.961 . S
H192 C191 0.959 . S
H193 C191 0.960 . S
H194 C191 0.961 . S
O195 Co170 1.967 . S
O195 C203 1.258 . S
O196 Co171 1.941 . S
O196 C203 1.266 . S
H197 C199 0.959 . S
H198 C199 0.961 . S
C199 C189 1.510 . S
C199 H197 0.959 . S
C199 H198 0.961 . S
C199 H200 0.960 . S
H200 C199 0.960 . S
H201 N181 0.862 . S
O202 Co170 1.920 . S
O202 C175 1.289 1_556 S
C203 O195 1.258 . S
C203 O196 1.266 . S
Co204 O207 1.970 . S
Co204 N221 1.989 . S
Co204 O229 1.967 . S
Co204 O236 1.920 . S
Co205 O208 1.966 . S
Co205 N214 2.022 . S
Co205 N222 1.993 . S
Co205 O230 1.941 . S
C206 O207 1.258 . S
C206 O208 1.263 . S
O207 Co204 1.970 . S
O207 C206 1.258 . S
O208 Co205 1.966 . S
O208 C206 1.263 . S
C209 O210 1.243 . S
C209 O236 1.271 1_655 S
O210 C209 1.243 . S
C211 C213 1.400 . S
C211 N214 1.351 . S
C211 C216 1.501 . S
C212 C213 1.387 . S
C212 N215 1.341 . S
C213 C211 1.400 . S
C213 C212 1.387 . S
N214 Co205 2.022 . S
N214 C211 1.351 . S
N214 N215 1.365 . S
N215 C212 1.341 . S
N215 N214 1.365 . S
N215 H235 0.862 . S
C216 C211 1.501 . S
C216 H217 0.961 . S
C216 H218 0.961 . S
C216 H219 0.960 . S
H217 C216 0.961 . S
H218 C216 0.961 . S
H219 C216 0.960 . S
C220 N221 1.342 . S
C220 C224 1.401 . S
C220 C225 1.499 . S
N221 Co204 1.989 . S
N221 C220 1.342 . S
N221 N222 1.388 . S
N222 Co205 1.993 . S
N222 N221 1.388 . S
N222 C223 1.346 . S
C223 N222 1.346 . S
C223 C224 1.396 . S
C223 C233 1.510 . S
C224 C220 1.401 . S
C224 C223 1.396 . S
C225 C220 1.499 . S
C225 H226 0.959 . S
C225 H227 0.960 . S
C225 H228 0.961 . S
H226 C225 0.959 . S
H227 C225 0.960 . S
H228 C225 0.961 . S
O229 Co204 1.967 . S
O229 C237 1.258 . S
O230 Co205 1.941 . S
O230 C237 1.266 . S
H231 C233 0.959 . S
H232 C233 0.961 . S
C233 C223 1.510 . S
C233 H231 0.959 . S
C233 H232 0.961 . S
C233 H234 0.960 . S
H234 C233 0.960 . S
H235 N215 0.862 . S
O236 Co204 1.920 . S
O236 C209 1.271 1_455 S
C237 O229 1.258 . S
C237 O230 1.266 . S
Co238 O241 1.970 . S
Co238 N255 1.989 . S
Co238 O263 1.967 . S
Co238 O270 1.920 . S
Co239 O242 1.966 . S
Co239 N248 2.022 . S
Co239 N256 1.993 . S
Co239 O264 1.941 . S
C240 O241 1.258 . S
C240 O242 1.263 . S
O241 Co238 1.970 . S
O241 C240 1.258 . S
O242 Co239 1.966 . S
O242 C240 1.263 . S
C243 O244 1.235 . S
C243 O270 1.289 . S
O244 C243 1.235 . S
C245 C247 1.400 . S
C245 N248 1.351 . S
C245 C250 1.501 . S
C246 C247 1.387 . S
C246 N249 1.341 . S
C247 C245 1.400 . S
C247 C246 1.387 . S
N248 Co239 2.022 . S
N248 C245 1.351 . S
N248 N249 1.365 . S
N249 C246 1.341 . S
N249 N248 1.365 . S
N249 H269 0.862 . S
C250 C245 1.501 . S
C250 H251 0.961 . S
C250 H252 0.961 . S
C250 H253 0.960 . S
H251 C250 0.961 . S
H252 C250 0.961 . S
H253 C250 0.960 . S
C254 N255 1.342 . S
C254 C258 1.401 . S
C254 C259 1.499 . S
N255 Co238 1.989 . S
N255 C254 1.342 . S
N255 N256 1.388 . S
N256 Co239 1.993 . S
N256 N255 1.388 . S
N256 C257 1.346 . S
C257 N256 1.346 . S
C257 C258 1.396 . S
C257 C267 1.510 . S
C258 C254 1.401 . S
C258 C257 1.396 . S
C259 C254 1.499 . S
C259 H260 0.959 . S
C259 H261 0.960 . S
C259 H262 0.961 . S
H260 C259 0.959 . S
H261 C259 0.960 . S
H262 C259 0.961 . S
O263 Co238 1.967 . S
O263 C271 1.258 . S
O264 Co239 1.941 . S
O264 C271 1.266 . S
H265 C267 0.959 . S
H266 C267 0.961 . S
C267 C257 1.510 . S
C267 H265 0.959 . S
C267 H266 0.961 . S
C267 H268 0.960 . S
H268 C267 0.960 . S
H269 N249 0.862 . S
O270 Co238 1.920 . S
O270 C243 1.289 . S
C271 O263 1.258 . S
C271 O264 1.266 . S
C272 C273 1.170 . S
C272 C274 1.380 . S
C273 C272 1.170 . S
C274 C272 1.380 . S
C274 C275 1.170 . S
C275 C274 1.170 . S
C276 C277 1.170 . S
C276 C278 1.380 . S
C277 C276 1.170 . S
C278 C276 1.380 . S
C278 C279 1.170 . S
C279 C278 1.170 . S
C280 C281 1.170 . S
C280 C282 1.380 . S
C281 C280 1.170 . S
C282 C280 1.380 . S
C282 C283 1.170 . S
C283 C282 1.170 . S
C284 C285 1.170 . S
C284 C286 1.380 . S
C285 C284 1.170 . S
C286 C284 1.380 . S
C286 C287 1.170 . S
C287 C286 1.170 . S
C288 C289 1.170 . S
C288 C290 1.380 . S
C289 C288 1.170 . S
C290 C288 1.380 . S
C290 C291 1.170 . S
C291 C290 1.170 . S
C292 C293 1.170 . S
C292 C294 1.380 . S
C293 C292 1.170 . S
C294 C292 1.380 . S
C294 C295 1.170 . S
C295 C294 1.170 . S
C296 C297 1.170 . S
C296 C298 1.380 . S
C297 C296 1.170 . S
C298 C296 1.380 . S
C298 C299 1.170 . S
C299 C298 1.170 . S
C300 C301 1.170 1_554 S
C300 C302 1.380 . S
C301 C300 1.170 1_556 S
C302 C300 1.380 . S
C302 C303 1.170 . S
C303 C302 1.170 . S
C304 C305 1.170 . S
C304 C306 1.380 . S
C305 C304 1.170 . S
C306 C304 1.380 . S
C306 C307 1.170 . S
C307 C306 1.170 . S
C308 C309 1.170 . S
C308 C310 1.380 . S
C309 C308 1.170 . S
C310 C308 1.380 . S
C310 C311 1.170 1_554 S
C311 C310 1.170 1_556 S
C312 C313 1.170 . S
C312 C314 1.380 . S
C313 C312 1.170 . S
C314 C312 1.380 . S
C314 C315 1.170 . S
C315 C314 1.170 . S
C316 C317 1.170 . S
C316 C318 1.380 . S
C317 C316 1.170 . S
C318 C316 1.380 . S
C318 C319 1.170 . S
C319 C318 1.170 . S
C320 C321 1.170 . S
C320 C322 1.380 . S
C321 C320 1.170 . S
C322 C320 1.380 . S
C322 C323 1.170 . S
C323 C322 1.170 . S
C324 C325 1.170 . S
C324 C326 1.380 . S
C325 C324 1.170 . S
C326 C324 1.380 . S
C326 C327 1.170 . S
C327 C326 1.170 . S
C328 C329 1.170 . S
C328 C330 1.380 . S
C329 C328 1.170 . S
C330 C328 1.380 . S
C330 C331 1.170 . S
C331 C330 1.170 . S
C332 C333 1.170 . S
C332 C334 1.380 . S
C333 C332 1.170 . S
C334 C332 1.380 . S
C334 C335 1.170 . S
C335 C334 1.170 . S
C336 C337 1.170 . S
C336 C338 1.380 . S
C337 C336 1.170 . S
C338 C336 1.380 . S
C338 C339 1.170 . S
C339 C338 1.170 . S
C340 C341 1.170 . S
C340 C342 1.380 . S
C341 C340 1.170 . S
C342 C340 1.380 . S
C342 C343 1.170 . S
C343 C342 1.170 . S
C344 C345 1.170 . S
C344 C346 1.380 . S
C345 C344 1.170 . S
C346 C344 1.380 . S
C346 C347 1.170 . S
C347 C346 1.170 . S
C348 C349 1.170 . S
C348 C350 1.380 . S
C349 C348 1.170 . S
C350 C348 1.380 . S
C350 C351 1.170 . S
C351 C350 1.170 . S
C273 C175 1.382 . S
C275 C5 1.416 . S
C277 C209 1.395 . S
C279 C39 1.421 . S
C281 C73 1.409 . S
C283 C243 1.408 . S
C285 C141 1.431 . S
C287 C107 1.403 . S
C289 C271 1.493 . S
C291 C33 1.496 . S
C293 C67 1.490 . S
C295 C169 1.501 . S
C297 C203 1.492 . S
C299 C101 1.500 . S
C301 C135 1.491 . S
C303 C237 1.500 . S
C305 C258 1.426 . S
C307 C20 1.430 . S
C309 C54 1.426 . S
C311 C156 1.432 . S
C313 C190 1.427 . S
C315 C88 1.433 . S
C317 C224 1.433 . S
C319 C122 1.429 . S
C321 C9 1.643 1_556 S
C323 C104 1.641 1_565 S
C325 C2 1.646 . S
C327 C43 1.650 . S
C329 C36 1.649 1_545 S
C331 C77 1.653 . S
C333 C70 1.660 . S
C335 C111 1.649 . S
C337 C145 1.643 . S
C339 C172 1.658 . S
C341 C206 1.641 1_655 S
C343 C179 1.643 . S
C345 C240 1.652 . S
C347 C213 1.655 . S
C349 C247 1.640 . S
C351 C138 1.640 1_455 S
