# Generated by pormake.
# Topology wje, (4)-cn, num edge types: 1
# Building blocks:
#     Node 0, Type 0, BuildingBlock: CEKHIL_clean_sbu_0, # of connection points: 4
#     Node 1, Type 0, BuildingBlock: CEKHIL_clean_sbu_0, # of connection points: 4
#     Node 2, Type 0, BuildingBlock: CEKHIL_clean_sbu_0, # of connection points: 4
#     Node 3, Type 0, BuildingBlock: CEKHIL_clean_sbu_0, # of connection points: 4
#     Node 4, Type 0, BuildingBlock: CEKHIL_clean_sbu_0, # of connection points: 4
#     Node 5, Type 0, BuildingBlock: CEKHIL_clean_sbu_0, # of connection points: 4
#     Node 6, Type 0, BuildingBlock: CEKHIL_clean_sbu_0, # of connection points: 4
#     Node 7, Type 0, BuildingBlock: CEKHIL_clean_sbu_0, # of connection points: 4
#     Node 8, Type 0, BuildingBlock: CEKHIL_clean_sbu_0, # of connection points: 4
#     Node 9, Type 0, BuildingBlock: CEKHIL_clean_sbu_0, # of connection points: 4
#     Node 10, Type 0, BuildingBlock: CEKHIL_clean_sbu_0, # of connection points: 4
#     Node 11, Type 0, BuildingBlock: CEKHIL_clean_sbu_0, # of connection points: 4
#     Edge 12, Type (0, 0), BuildingBlock: ZUJKAS_clean_linker_0, # of connection points: 2
#     Edge 13, Type (0, 0), BuildingBlock: ZUJKAS_clean_linker_0, # of connection points: 2
#     Edge 14, Type (0, 0), BuildingBlock: ZUJKAS_clean_linker_0, # of connection points: 2
#     Edge 15, Type (0, 0), BuildingBlock: ZUJKAS_clean_linker_0, # of connection points: 2
#     Edge 16, Type (0, 0), BuildingBlock: ZUJKAS_clean_linker_0, # of connection points: 2
#     Edge 17, Type (0, 0), BuildingBlock: ZUJKAS_clean_linker_0, # of connection points: 2
#     Edge 18, Type (0, 0), BuildingBlock: ZUJKAS_clean_linker_0, # of connection points: 2
#     Edge 19, Type (0, 0), BuildingBlock: ZUJKAS_clean_linker_0, # of connection points: 2
#     Edge 20, Type (0, 0), BuildingBlock: ZUJKAS_clean_linker_0, # of connection points: 2
#     Edge 21, Type (0, 0), BuildingBlock: ZUJKAS_clean_linker_0, # of connection points: 2
#     Edge 22, Type (0, 0), BuildingBlock: ZUJKAS_clean_linker_0, # of connection points: 2
#     Edge 23, Type (0, 0), BuildingBlock: ZUJKAS_clean_linker_0, # of connection points: 2
#     Edge 24, Type (0, 0), BuildingBlock: ZUJKAS_clean_linker_0, # of connection points: 2
#     Edge 25, Type (0, 0), BuildingBlock: ZUJKAS_clean_linker_0, # of connection points: 2
#     Edge 26, Type (0, 0), BuildingBlock: ZUJKAS_clean_linker_0, # of connection points: 2
#     Edge 27, Type (0, 0), BuildingBlock: ZUJKAS_clean_linker_0, # of connection points: 2
#     Edge 28, Type (0, 0), BuildingBlock: ZUJKAS_clean_linker_0, # of connection points: 2
#     Edge 29, Type (0, 0), BuildingBlock: ZUJKAS_clean_linker_0, # of connection points: 2
#     Edge 30, Type (0, 0), BuildingBlock: ZUJKAS_clean_linker_0, # of connection points: 2
#     Edge 31, Type (0, 0), BuildingBlock: ZUJKAS_clean_linker_0, # of connection points: 2
#     Edge 32, Type (0, 0), BuildingBlock: ZUJKAS_clean_linker_0, # of connection points: 2
#     Edge 33, Type (0, 0), BuildingBlock: ZUJKAS_clean_linker_0, # of connection points: 2
#     Edge 34, Type (0, 0), BuildingBlock: ZUJKAS_clean_linker_0, # of connection points: 2
#     Edge 35, Type (0, 0), BuildingBlock: ZUJKAS_clean_linker_0, # of connection points: 2
# Relax obj value: 0.166
# Max RMSD: 0.099
# Mean RMSD: 0.099
data_MOF--net-wje--node1-CEKHIL_clean_sbu_0--edge1-ZUJKAS_clean_linker_0
_symmetry_space_group_name_H-M    P1
_symmetry_Int_Tables_number       1
_symmetry_cell_setting            triclinic
loop_
_symmetry_equiv_pos_as_xyz
'x, y, z'
_cell_length_a     51.146618
_cell_length_b     51.141079
_cell_length_c     49.101776
_cell_angle_alpha  89.986381
_cell_angle_beta   89.987636
_cell_angle_gamma 120.00985
loop_
_atom_site_label
_atom_site_type_symbol
_atom_site_fract_x
_atom_site_fract_y
_atom_site_fract_z
_atom_type_partial_charge
Co0 Co 0.31993 0.02789 0.30165 0.0
O1 O 0.32186 0.04059 0.26443 0.0
O2 O 0.34319 0.07205 0.29873 0.0
C3 C 0.2698 0.99469 0.30211 0.0
O4 O 0.32098 0.02147 0.34308 0.0
Co5 Co 0.30022 0.96 0.31127 0.0
O6 O 0.30028 0.97126 0.34991 0.0
C7 C 0.36071 0.00167 0.28994 0.0
C8 C 0.33741 0.06824 0.2727 0.0
C9 C 0.31142 0.99816 0.35893 0.0
O10 O 0.35744 0.02445 0.29587 0.0
O11 O 0.33929 0.97423 0.2915 0.0
O12 O 0.27965 0.02323 0.30604 0.0
O13 O 0.29008 0.98807 0.29516 0.0
Co14 Co 0.29322 0.31969 0.63361 0.0
O15 O 0.28392 0.32342 0.5963 0.0
O16 O 0.27397 0.34449 0.63094 0.0
C17 C 0.27392 0.26918 0.63261 0.0
O18 O 0.29911 0.3189 0.67524 0.0
Co19 Co 0.33789 0.29594 0.64456 0.0
O20 O 0.32152 0.29101 0.68196 0.0
C21 C 0.36138 0.35848 0.62539 0.0
C22 C 0.27233 0.33934 0.60481 0.0
C23 C 0.30808 0.30458 0.69102 0.0
O24 O 0.33527 0.35614 0.62903 0.0
O25 O 0.36602 0.33622 0.62807 0.0
O26 O 0.25629 0.28025 0.63663 0.0
O27 O 0.30146 0.28867 0.62659 0.0
Co28 Co 0.9723 0.29513 0.96696 0.0
O29 O 0.95881 0.28379 0.93001 0.0
O30 O 0.92817 0.27519 0.9647 0.0
C31 C 0.00432 0.27685 0.9671 0.0
O32 O 0.9795 0.30318 0.00829 0.0
Co33 Co 0.04064 0.34167 0.97597 0.0
O34 O 0.02994 0.33024 0.01464 0.0
C35 C 0.00014 0.36256 0.95543 0.0
C36 C 0.93137 0.2724 0.93868 0.0
C37 C 0.00306 0.31572 0.02395 0.0
O38 O 0.97688 0.33652 0.9606 0.0
O39 O 0.02733 0.36791 0.95749 0.0
O40 O 0.97578 0.2589 0.97181 0.0
O41 O 0.01165 0.30385 0.95983 0.0
Co42 Co 0.67756 0.97011 0.30383 0.0
O43 O 0.67466 0.95703 0.26666 0.0
O44 O 0.65424 0.92591 0.30136 0.0
C45 C 0.72769 0.00319 0.30318 0.0
O46 O 0.67773 0.97713 0.3453 0.0
Co47 Co 0.69753 0.03811 0.31287 0.0
O48 O 0.69962 0.02754 0.35135 0.0
C49 C 0.63659 0.99621 0.29274 0.0
C50 C 0.65939 0.92947 0.27522 0.0
C51 C 0.6885 0.0008 0.36081 0.0
O52 O 0.63994 0.97352 0.29884 0.0
O53 O 0.65803 0.02367 0.29381 0.0
O54 O 0.71786 0.97468 0.30729 0.0
O55 O 0.70729 0.00981 0.29667 0.0
Co56 Co 0.70649 0.68057 0.63507 0.0
O57 O 0.71481 0.67642 0.59754 0.0
O58 O 0.72459 0.65478 0.6318 0.0
C59 C 0.72713 0.73114 0.63345 0.0
O60 O 0.70167 0.68155 0.67686 0.0
Co61 Co 0.6644 0.70671 0.64813 0.0
O62 O 0.68279 0.71234 0.6847 0.0
C63 C 0.63769 0.643 0.63061 0.0
C64 C 0.72599 0.66001 0.60568 0.0
C65 C 0.69489 0.69726 0.69311 0.0
O66 O 0.66386 0.64491 0.63122 0.0
O67 O 0.63391 0.6656 0.63482 0.0
O68 O 0.74414 0.71939 0.63765 0.0
O69 O 0.69921 0.7123 0.62819 0.0
Co70 Co 0.0269 0.70846 0.96641 0.0
O71 O 0.04109 0.71824 0.92946 0.0
O72 O 0.07097 0.72743 0.96485 0.0
C73 C 0.99613 0.7281 0.96403 0.0
O74 O 0.01913 0.70216 0.00785 0.0
Co75 Co 0.95827 0.66448 0.97634 0.0
O76 O 0.96885 0.68083 0.01383 0.0
C77 C 0.99715 0.64044 0.95791 0.0
C78 C 0.06831 0.72956 0.93864 0.0
C79 C 0.99567 0.69371 0.02327 0.0
O80 O 0.02106 0.66637 0.9618 0.0
O81 O 0.97032 0.6361 0.96024 0.0
O82 O 0.0246 0.74551 0.96933 0.0
O83 O 0.988 0.70053 0.95816 0.0
Co84 Co 0.96894 0.6774 0.37468 0.0
O85 O 0.95624 0.67535 0.4119 0.0
O86 O 0.92475 0.65468 0.37752 0.0
C87 C 0.00262 0.72742 0.37459 0.0
O88 O 0.9755 0.67666 0.33322 0.0
Co89 Co 0.03661 0.69623 0.36529 0.0
O90 O 0.02573 0.69731 0.32671 0.0
C91 C 0.9942 0.63573 0.38613 0.0
C92 C 0.92859 0.66027 0.40358 0.0
C93 C 0.99893 0.68646 0.3175 0.0
O94 O 0.97172 0.63947 0.38017 0.0
O95 O 0.02178 0.65686 0.38474 0.0
O96 O 0.97416 0.71792 0.37063 0.0
O97 O 0.00889 0.70685 0.38138 0.0
Co98 Co 0.29367 0.97473 0.71061 0.0
O99 O 0.28512 0.96256 0.74818 0.0
O100 O 0.27425 0.93076 0.71404 0.0
C101 C 0.27492 0.00641 0.71158 0.0
O102 O 0.2985 0.98023 0.66885 0.0
Co103 Co 0.3384 0.04269 0.69767 0.0
O104 O 0.32024 0.03029 0.66094 0.0
C105 C 0.36187 0.00385 0.71753 0.0
C106 C 0.27317 0.93484 0.74015 0.0
C107 C 0.30661 0.00301 0.65261 0.0
O108 O 0.33564 0.98006 0.71453 0.0
O109 O 0.36664 0.03073 0.71425 0.0
O110 O 0.25691 0.97764 0.70816 0.0
O111 O 0.30255 0.01429 0.71692 0.0
Co112 Co 0.32014 0.2942 0.04328 0.0
O113 O 0.32294 0.28372 0.0804 0.0
O114 O 0.3455 0.27554 0.04593 0.0
C115 C 0.26958 0.27408 0.04383 0.0
O116 O 0.32054 0.30145 1.00176 0.0
Co117 Co 0.2952 0.33795 0.03289 0.0
O118 O 0.29431 0.32553 0.9946 0.0
C119 C 0.35795 0.36243 0.05211 0.0
C120 C 0.33951 0.27286 0.07195 0.0
C121 C 0.3082 0.31237 0.98571 0.0
O122 O 0.35598 0.33638 0.04921 0.0
O123 O 0.33548 0.36663 0.04886 0.0
O124 O 0.28109 0.257 0.03888 0.0
O125 O 0.28854 0.30153 0.05046 0.0
Co126 Co 0.02667 0.31941 0.37603 0.0
O127 O 0.03946 0.32223 0.41334 0.0
O128 O 0.07078 0.34325 0.3789 0.0
C129 C 0.99419 0.26914 0.3765 0.0
O130 O 0.02026 0.3194 0.33447 0.0
Co131 Co 0.95867 0.29806 0.36531 0.0
O132 O 0.96986 0.29335 0.32768 0.0
C133 C 0.99917 0.35942 0.38585 0.0
C134 C 0.06708 0.33776 0.40498 0.0
C135 C 0.99688 0.30604 0.31866 0.0
O136 O 0.02242 0.35656 0.38096 0.0
O137 O 0.97193 0.33771 0.38372 0.0
O138 O 0.0228 0.2794 0.37257 0.0
O139 O 0.98703 0.28922 0.38277 0.0
Co140 Co 0.70694 0.02582 0.71238 0.0
O141 O 0.71474 0.0393 0.74964 0.0
O142 O 0.72552 0.06984 0.71446 0.0
C143 C 0.72697 0.99539 0.71553 0.0
O144 O 0.70269 0.01881 0.67071 0.0
Co145 Co 0.66426 0.95718 0.7009 0.0
O146 O 0.68274 0.96874 0.66427 0.0
C147 C 0.63811 0.99545 0.71571 0.0
C148 C 0.72637 0.06668 0.74075 0.0
C149 C 0.69542 0.99568 0.65513 0.0
O150 O 0.66445 0.01949 0.71511 0.0
O151 O 0.634 0.96881 0.7125 0.0
O152 O 0.74434 0.02406 0.71105 0.0
O153 O 0.69909 0.98687 0.72043 0.0
Co154 Co 0.67868 0.70536 0.04475 0.0
O155 O 0.67712 0.71656 0.08188 0.0
O156 O 0.65343 0.72409 0.04795 0.0
C157 C 0.72918 0.72515 0.04347 0.0
O158 O 0.67699 0.69733 1.00332 0.0
Co159 Co 0.70246 0.66061 0.03442 0.0
O160 O 0.70115 0.67118 0.99584 0.0
C161 C 0.64131 0.63779 0.05658 0.0
C162 C 0.66018 0.72716 0.07381 0.0
C163 C 0.68793 0.68511 0.98717 0.0
O164 O 0.64294 0.6634 0.05173 0.0
O165 O 0.66373 0.63346 0.05371 0.0
O166 O 0.71765 0.74236 0.03917 0.0
O167 O 0.71034 0.69795 0.05094 0.0
H168 H 0.34458 0.0664 0.21816 0.0
H169 H 0.35289 0.10454 0.18416 0.0
H170 H 0.35662 0.16447 0.24779 0.0
H171 H 0.34943 0.12647 0.28217 0.0
H172 H 0.31698 0.12487 0.17193 0.0
H173 H 0.4261 0.22328 0.20249 0.0
H174 H 0.41266 0.18613 0.2166 0.0
H175 H 0.39884 0.20993 0.2295 0.0
C176 C 0.34777 0.08794 0.22502 0.0
C177 C 0.34642 0.0934 0.25293 0.0
C178 C 0.35245 0.10977 0.20548 0.0
C179 C 0.35565 0.13767 0.21318 0.0
C180 C 0.355 0.14352 0.24117 0.0
H181 H 0.34139 0.27694 0.12712 0.0
H182 H 0.34847 0.24515 0.15993 0.0
C183 C 0.35076 0.12172 0.26088 0.0
C184 C 0.35718 0.15924 0.19167 0.0
H185 H 0.3971 0.2326 0.16972 0.0
C186 C 0.33476 0.14833 0.17135 0.0
C187 C 0.38028 0.18998 0.19071 0.0
C188 C 0.406 0.20298 0.21083 0.0
C189 C 0.3344 0.1672 0.15066 0.0
C190 C 0.3572 0.19798 0.14995 0.0
C191 C 0.37971 0.20897 0.17013 0.0
C192 C 0.35657 0.21939 0.12961 0.0
C193 C 0.30901 0.15428 0.13017 0.0
C194 C 0.35975 0.21626 0.10149 0.0
C195 C 0.35592 0.23471 0.0825 0.0
C196 C 0.34862 0.25644 0.09134 0.0
C197 C 0.34684 0.26034 0.11955 0.0
C198 C 0.35093 0.24218 0.13841 0.0
H199 H 0.29037 0.13167 0.13634 0.0
H200 H 0.29969 0.1696 0.12738 0.0
H201 H 0.31781 0.15195 0.1102 0.0
H202 H 0.36444 0.19904 0.09419 0.0
H203 H 0.35735 0.23106 0.06096 0.0
H204 H 0.22395 0.34788 0.61424 0.0
H205 H 0.19239 0.35374 0.57965 0.0
H206 H 0.25326 0.35796 0.51677 0.0
H207 H 0.28387 0.3509 0.5509 0.0
H208 H 0.19929 0.39446 0.54086 0.0
H209 H 0.17604 0.28846 0.48972 0.0
H210 H 0.19475 0.29967 0.52225 0.0
H211 H 0.2156 0.31542 0.49122 0.0
C212 C 0.23078 0.35053 0.59307 0.0
C213 C 0.25623 0.34862 0.58528 0.0
C214 C 0.21267 0.35374 0.57327 0.0
C215 C 0.21982 0.35533 0.54537 0.0
C216 C 0.24651 0.35568 0.53793 0.0
H217 H 0.12673 0.35539 0.39442 0.0
H218 H 0.16585 0.36319 0.42789 0.0
C219 C 0.26422 0.35195 0.55756 0.0
C220 C 0.19903 0.3555 0.52394 0.0
H221 H 0.15963 0.31844 0.46669 0.0
C222 C 0.1906 0.37778 0.5247 0.0
C223 C 0.18743 0.33369 0.50275 0.0
C224 C 0.19365 0.30779 0.50154 0.0
C225 C 0.17138 0.37907 0.5048 0.0
C226 C 0.16007 0.35743 0.48356 0.0
C227 C 0.16861 0.3353 0.4827 0.0
C228 C 0.13762 0.35587 0.46318 0.0
C229 C 0.16349 0.40376 0.50654 0.0
C230 C 0.10881 0.34932 0.47177 0.0
C231 C 0.08652 0.34471 0.45277 0.0
C232 C 0.09239 0.34656 0.42459 0.0
C233 C 0.12154 0.35406 0.41593 0.0
C234 C 0.14386 0.3584 0.43506 0.0
H235 H 0.18005 0.42303 0.5191 0.0
H236 H 0.16248 0.41223 0.48596 0.0
H237 H 0.14094 0.39461 0.51616 0.0
H238 H 0.10317 0.34668 0.49324 0.0
H239 H 0.06432 0.3389 0.46022 0.0
H240 H 0.77421 0.12387 0.73111 0.0
H241 H 0.80526 0.16171 0.76559 0.0
H242 H 0.74445 0.10505 0.82851 0.0
H243 H 0.71425 0.06701 0.79449 0.0
H244 H 0.79728 0.19533 0.80449 0.0
H245 H 0.82243 0.11365 0.85529 0.0
H246 H 0.80385 0.10608 0.82269 0.0
H247 H 0.78275 0.10051 0.85362 0.0
C248 C 0.76724 0.11979 0.75225 0.0
C249 C 0.74195 0.09232 0.7601 0.0
C250 C 0.78507 0.14136 0.77199 0.0
C251 C 0.7778 0.1359 0.79987 0.0
C252 C 0.75124 0.10944 0.80735 0.0
H253 H 0.87196 0.23032 0.95013 0.0
H254 H 0.83235 0.19857 0.91717 0.0
C255 C 0.73378 0.08779 0.78779 0.0
C256 C 0.79843 0.15701 0.82125 0.0
H257 H 0.83863 0.16005 0.87813 0.0
C258 C 0.80633 0.18758 0.82055 0.0
C259 C 0.81046 0.14709 0.8423 0.0
C260 C 0.80471 0.11513 0.84343 0.0
C261 C 0.82551 0.20826 0.84037 0.0
C262 C 0.83732 0.19823 0.86143 0.0
C263 C 0.82926 0.16768 0.86226 0.0
C264 C 0.85996 0.21938 0.88152 0.0
C265 C 0.83285 0.24068 0.83873 0.0
C266 C 0.88855 0.2417 0.87253 0.0
C267 C 0.91112 0.25959 0.89123 0.0
C268 C 0.90573 0.25574 0.91948 0.0
C269 C 0.87677 0.23405 0.92855 0.0
C270 C 0.85417 0.21583 0.90972 0.0
H271 H 0.81596 0.24304 0.82636 0.0
H272 H 0.83389 0.25006 0.85935 0.0
H273 H 0.85526 0.25438 0.82895 0.0
H274 H 0.89383 0.24457 0.85099 0.0
H275 H 0.93316 0.27601 0.88348 0.0
H276 H 0.64084 0.76789 0.06333 0.0
H277 H 0.63324 0.79935 0.09682 0.0
H278 H 0.65227 0.75496 0.16207 0.0
H279 H 0.65992 0.72377 0.12901 0.0
H280 H 0.60197 0.7655 0.17227 0.0
H281 H 0.70713 0.86812 0.13859 0.0
H282 H 0.67983 0.84711 0.11258 0.0
H283 H 0.69891 0.83048 0.1298 0.0
C284 C 0.64289 0.76452 0.08483 0.0
C285 C 0.65117 0.74344 0.09345 0.0
C286 C 0.63873 0.78263 0.10395 0.0
C287 C 0.64254 0.77978 0.132 0.0
C288 C 0.64928 0.75768 0.14061 0.0
H289 H 0.64858 0.87165 0.28476 0.0
H290 H 0.64174 0.83382 0.25035 0.0
C291 C 0.65371 0.73988 0.1216 0.0
C292 C 0.64139 0.8008 0.15244 0.0
H293 H 0.68019 0.87394 0.17447 0.0
C294 C 0.61893 0.78928 0.17269 0.0
C295 C 0.66364 0.83176 0.15313 0.0
C296 C 0.68893 0.84524 0.13255 0.0
C297 C 0.6179 0.80794 0.19333 0.0
C298 C 0.64046 0.83888 0.19427 0.0
C299 C 0.66282 0.85031 0.17389 0.0
C300 C 0.64148 0.86013 0.21584 0.0
C301 C 0.59228 0.79439 0.21356 0.0
C302 C 0.64373 0.88765 0.20819 0.0
C303 C 0.64815 0.90937 0.22774 0.0
C304 C 0.65021 0.90418 0.25559 0.0
C305 C 0.64669 0.87617 0.26352 0.0
C306 C 0.64268 0.85447 0.2438 0.0
H307 H 0.57247 0.77376 0.20532 0.0
H308 H 0.59985 0.78784 0.23221 0.0
H309 H 0.58503 0.81078 0.21935 0.0
H310 H 0.64283 0.89271 0.1869 0.0
H311 H 0.6507 0.93067 0.22091 0.0
H312 H 0.87075 0.64963 0.39418 0.0
H313 H 0.83325 0.64369 0.42879 0.0
H314 H 0.89242 0.64533 0.49212 0.0
H315 H 0.93001 0.65223 0.45801 0.0
H316 H 0.80155 0.60321 0.46949 0.0
H317 H 0.88059 0.7138 0.51584 0.0
H318 H 0.88822 0.70192 0.4837 0.0
H319 H 0.89575 0.68889 0.51523 0.0
C320 C 0.87552 0.64834 0.41547 0.0
C321 C 0.90351 0.65177 0.42335 0.0
C322 C 0.85413 0.64504 0.43527 0.0
C323 C 0.86031 0.64496 0.46324 0.0
C324 C 0.88743 0.64636 0.47085 0.0
H325 H 0.76955 0.64437 0.61545 0.0
H326 H 0.80061 0.63712 0.58128 0.0
C327 C 0.90885 0.65006 0.45123 0.0
C328 C 0.83913 0.64442 0.4846 0.0
H329 H 0.83571 0.68247 0.54065 0.0
C330 C 0.80902 0.62061 0.48496 0.0
C331 C 0.84868 0.66717 0.50488 0.0
C332 C 0.87997 0.69454 0.50479 0.0
C333 C 0.78854 0.61869 0.50522 0.0
C334 C 0.7983 0.6412 0.52565 0.0
C335 C 0.82833 0.66495 0.52529 0.0
C336 C 0.77733 0.64184 0.54648 0.0
C337 C 0.75667 0.5924 0.50481 0.0
C338 C 0.75373 0.6466 0.53838 0.0
C339 C 0.7362 0.65094 0.55779 0.0
C340 C 0.74168 0.65051 0.58585 0.0
C341 C 0.76452 0.64451 0.59404 0.0
C342 C 0.78237 0.64052 0.57452 0.0
H343 H 0.75477 0.57337 0.49238 0.0
H344 H 0.7486 0.58415 0.52577 0.0
H345 H 0.74156 0.59982 0.4958 0.0
H346 H 0.74965 0.64823 0.51697 0.0
H347 H 0.71888 0.6556 0.55073 0.0
H348 H 0.28072 0.93781 0.79501 0.0
H349 H 0.25075 0.89971 0.829 0.0
H350 H 0.19835 0.83765 0.76509 0.0
H351 H 0.22914 0.87569 0.73076 0.0
H352 H 0.19299 0.87729 0.83866 0.0
H353 H 0.21104 0.7819 0.81365 0.0
H354 H 0.23417 0.81915 0.79948 0.0
H355 H 0.19763 0.79388 0.78519 0.0
C356 C 0.26321 0.91584 0.7881 0.0
C357 C 0.25739 0.9098 0.76011 0.0
C358 C 0.24598 0.89403 0.80763 0.0
C359 C 0.22228 0.86556 0.79982 0.0
C360 C 0.21689 0.85911 0.7718 0.0
H361 H 0.06814 0.72424 0.88359 0.0
H362 H 0.10772 0.75629 0.85139 0.0
C363 C 0.23446 0.88093 0.75212 0.0
C364 C 0.20195 0.84395 0.82112 0.0
H365 H 0.17082 0.77134 0.84461 0.0
C366 C 0.18849 0.85424 0.84009 0.0
C367 C 0.19586 0.81375 0.82313 0.0
C368 C 0.21066 0.80156 0.80445 0.0
C369 C 0.16879 0.8352 0.86045 0.0
C370 C 0.1624 0.80495 0.86221 0.0
C371 C 0.17587 0.79458 0.84339 0.0
C372 C 0.14011 0.78337 0.88227 0.0
C373 C 0.15415 0.84732 0.87943 0.0
C374 C 0.14542 0.78721 0.91052 0.0
C375 C 0.12277 0.76861 0.92915 0.0
C376 C 0.09435 0.74605 0.9198 0.0
C377 C 0.08971 0.74148 0.89152 0.0
C378 C 0.11236 0.75977 0.87302 0.0
H379 H 0.1574 0.86944 0.87251 0.0
H380 H 0.12956 0.83111 0.88121 0.0
H381 H 0.16422 0.85037 0.90002 0.0
H382 H 0.16679 0.80512 0.91815 0.0
H383 H 0.12702 0.77281 0.95076 0.0
H384 H 0.41386 0.03923 0.31545 0.0
H385 H 0.46115 0.03842 0.31138 0.0
H386 H 0.42287 0.97376 0.24588 0.0
H387 H 0.37505 0.97317 0.2512 0.0
H388 H 0.44688 0.95451 0.27955 0.0
H389 H 0.53074 0.07446 0.26156 0.0
H390 H 0.51025 0.07015 0.29238 0.0
H391 H 0.4907 0.0606 0.26016 0.0
C392 C 0.41592 0.02551 0.29971 0.0
C393 C 0.39096 0.00641 0.28351 0.0
C394 C 0.443 0.02509 0.29732 0.0
C395 C 0.44589 0.00628 0.27807 0.0
C396 C 0.42131 0.98841 0.26093 0.0
H397 H 0.62143 0.02154 0.25171 0.0
H398 H 0.57357 0.02068 0.24555 0.0
C399 C 0.39406 0.98824 0.26382 0.0
C400 C 0.47331 0.0031 0.27733 0.0
H401 H 0.55034 0.04296 0.27649 0.0
C402 C 0.4695 0.9739 0.27849 0.0
C403 C 0.50291 0.02822 0.27564 0.0
C404 C 0.50888 0.06006 0.27206 0.0
C405 C 0.49428 0.96914 0.27837 0.0
C406 C 0.52391 0.99434 0.27832 0.0
C407 C 0.52771 0.02353 0.27678 0.0
C408 C 0.55138 0.99128 0.27996 0.0
C409 C 0.48821 0.93707 0.2777 0.0
C410 C 0.55477 0.97431 0.30083 0.0
C411 C 0.58183 0.97393 0.30372 0.0
C412 C 0.6063 0.99132 0.28637 0.0
C413 C 0.60277 0.00777 0.26521 0.0
C414 C 0.57549 0.00746 0.26184 0.0
H415 H 0.46607 0.92166 0.26807 0.0
H416 H 0.50605 0.93531 0.26636 0.0
H417 H 0.48738 0.92907 0.29886 0.0
H418 H 0.53703 0.9624 0.31566 0.0
H419 H 0.58428 0.96164 0.32057 0.0
H420 H 0.57923 0.6294 0.63675 0.0
H421 H 0.53352 0.5809 0.63144 0.0
H422 H 0.58656 0.54031 0.60825 0.0
H423 H 0.63304 0.58909 0.61426 0.0
H424 H 0.50919 0.54442 0.5881 0.0
H425 H 0.53538 0.48501 0.669 0.0
H426 H 0.55708 0.52539 0.6645 0.0
H427 H 0.56313 0.50085 0.64242 0.0
C428 C 0.58142 0.61029 0.63046 0.0
C429 C 0.61002 0.61325 0.62607 0.0
C430 C 0.5551 0.58247 0.6274 0.0
C431 C 0.55652 0.55682 0.61981 0.0
C432 C 0.58491 0.55967 0.61472 0.0
H433 H 0.41548 0.36965 0.60483 0.0
H434 H 0.46191 0.41807 0.60076 0.0
C435 C 0.61147 0.5876 0.61802 0.0
C436 C 0.52806 0.52729 0.6176 0.0
H437 H 0.49033 0.45611 0.64429 0.0
C438 C 0.50509 0.52507 0.60034 0.0
C439 C 0.52262 0.5021 0.6337 0.0
C440 C 0.5457 0.50341 0.65365 0.0
C441 C 0.47695 0.49838 0.59867 0.0
C442 C 0.47151 0.47331 0.61487 0.0
C443 C 0.49457 0.47538 0.63187 0.0
C444 C 0.4422 0.44453 0.61458 0.0
C445 C 0.4534 0.49713 0.57938 0.0
C446 C 0.41539 0.4433 0.62323 0.0
C447 C 0.38853 0.41546 0.62552 0.0
C448 C 0.3882 0.3884 0.61949 0.0
C449 C 0.4149 0.38997 0.6099 0.0
C450 C 0.44154 0.41767 0.60753 0.0
H451 H 0.46349 0.51516 0.56368 0.0
H452 H 0.44122 0.47488 0.56903 0.0
H453 H 0.43665 0.50035 0.59108 0.0
H454 H 0.41548 0.46372 0.62921 0.0
H455 H 0.36846 0.41506 0.63313 0.0
H456 H 0.95496 0.58774 0.93464 0.0
H457 H 0.95609 0.54085 0.93023 0.0
H458 H 0.04617 0.58438 0.96341 0.0
H459 H 0.04526 0.63178 0.96804 0.0
H460 H 0.99746 0.52692 0.90263 0.0
H461 H 0.99424 0.51103 0.01496 0.0
H462 H 0.98524 0.53742 0.99909 0.0
H463 H 0.02387 0.54654 1.00213 0.0
C464 C 0.9752 0.58754 0.9408 0.0
C465 C -6e-05 0.61349 0.95197 0.0
C466 C 0.97579 0.56068 0.93818 0.0
C467 C 0.001 0.55902 0.94686 0.0
C468 C 0.02633 0.58514 0.95692 0.0
H469 H 0.03942 0.41395 0.92849 0.0
H470 H 0.03734 0.4604 0.92427 0.0
C471 C 0.02587 0.61224 0.95937 0.0
C472 C -0.0001 0.52949 0.94639 0.0
H473 H 0.99661 0.47423 0.98778 0.0
C474 C 0.99739 0.51541 0.92121 0.0
C475 C 0.99917 0.51431 0.97071 0.0
C476 C 0.00053 0.52787 0.99832 0.0
C477 C 0.99468 0.48671 0.91971 0.0
C478 C 0.99457 0.47181 0.94401 0.0
C479 C 0.99665 0.48571 0.96918 0.0
C480 C 0.99381 0.44245 0.9438 0.0
C481 C 0.99164 0.47237 0.89219 0.0
C482 C 0.9698 0.41675 0.95594 0.0
C483 C 0.97081 0.38994 0.95827 0.0
C484 C 0.99614 0.38866 0.94895 0.0
C485 C 0.0196 0.41418 0.93595 0.0
C486 C 0.01842 0.44075 0.9334 0.0
H487 H 0.9848 0.48317 0.87624 0.0
H488 H 0.01373 0.47492 0.88621 0.0
H489 H 0.97483 0.44786 0.89287 0.0
H490 H 0.95065 0.41769 0.96421 0.0
H491 H 0.95251 0.37079 0.96856 0.0
H492 H 0.95949 0.58383 0.35797 0.0
H493 H 0.95986 0.53635 0.36248 0.0
H494 H 0.01751 0.57167 0.43305 0.0
H495 H 0.01883 0.61983 0.42725 0.0
H496 H 0.03984 0.54862 0.40226 0.0
H497 H 0.91839 0.46462 0.4089 0.0
H498 H 0.92618 0.48641 0.37836 0.0
H499 H 0.93212 0.50459 0.41109 0.0
C500 C 0.97153 0.58105 0.37485 0.0
C501 C 0.98889 0.60527 0.39243 0.0
C502 C 0.97168 0.55385 0.37751 0.0
C503 C 0.98836 0.55005 0.39838 0.0
C504 C 0.00449 0.57391 0.41675 0.0
H505 H 0.96914 0.37261 0.42392 0.0
H506 H 0.96942 0.4202 0.42985 0.0
C507 C 0.00505 0.60134 0.4136 0.0
C508 C 0.99126 0.52244 0.39971 0.0
H509 H 0.95118 0.44546 0.39684 0.0
C510 C 0.02035 0.52606 0.40148 0.0
C511 C 0.96598 0.49286 0.39903 0.0
C512 C 0.93394 0.4869 0.39955 0.0
C513 C 0.02489 0.50114 0.40217 0.0
C514 C -0.00027 0.47164 0.39975 0.0
C515 C 0.97061 0.468 0.39842 0.0
C516 C 0.0028 0.44414 0.39848 0.0
C517 C 0.0566 0.50687 0.4061 0.0
C518 C 0.0221 0.44177 0.37943 0.0
C519 C 0.0227 0.41479 0.3767 0.0
C520 C 0.00326 0.38942 0.39233 0.0
C521 C 0.98445 0.39194 0.41172 0.0
C522 C 0.98446 0.41908 0.41497 0.0
H523 H 0.07081 0.52839 0.41716 0.0
H524 H 0.0568 0.4883 0.41762 0.0
H525 H 0.06713 0.50884 0.38588 0.0
H526 H 0.0358 0.46032 0.36583 0.0
H527 H 0.03692 0.4132 0.36121 0.0
H528 H 0.58008 0.95216 0.70521 0.0
H529 H 0.53448 0.95528 0.70966 0.0
H530 H 0.58698 0.04683 0.73875 0.0
H531 H 0.63343 0.04421 0.73363 0.0
H532 H 0.5087 0.96425 0.75373 0.0
H533 H 0.53841 0.05607 0.67842 0.0
H534 H 0.5598 0.03692 0.68172 0.0
H535 H 0.56496 0.06564 0.70575 0.0
C536 C 0.58216 0.97307 0.7126 0.0
C537 C 0.61058 0.998 0.71905 0.0
C538 C 0.55591 0.97476 0.71514 0.0
C539 C 0.55723 0.00134 0.72427 0.0
C540 C 0.58546 0.02625 0.73112 0.0
H541 H 0.41517 0.04617 0.73972 0.0
H542 H 0.46169 0.04439 0.74417 0.0
C543 C 0.61197 0.02469 0.72832 0.0
C544 C 0.52878 0.0024 0.72649 0.0
H545 H 0.49217 0.03778 0.70165 0.0
C546 C 0.50511 0.9804 0.74241 0.0
C547 C 0.52404 0.02337 0.71162 0.0
C548 C 0.548 0.04668 0.69321 0.0
C549 C 0.47691 0.97881 0.74388 0.0
C550 C 0.47211 0.99959 0.72879 0.0
C551 C 0.49589 0.02186 0.71322 0.0
C552 C 0.4427 0.99887 0.72876 0.0
C553 C 0.45264 0.95511 0.76176 0.0
C554 C 0.41625 0.97358 0.71909 0.0
C555 C 0.38934 0.97441 0.71669 0.0
C556 C 0.38863 0.00075 0.72353 0.0
C557 C 0.41494 0.02559 0.73404 0.0
C558 C 0.44162 0.02465 0.73661 0.0
H559 H 0.46225 0.94656 0.77737 0.0
H560 H 0.43955 0.96412 0.77222 0.0
H561 H 0.43682 0.93571 0.74897 0.0
H562 H 0.41667 0.95361 0.71243 0.0
H563 H 0.36957 0.95501 0.70831 0.0
H564 H 0.4124 0.366 0.06466 0.0
H565 H 0.46124 0.41209 0.07227 0.0
H566 H 0.41941 0.46625 0.05915 0.0
H567 H 0.37103 0.42104 0.05233 0.0
H568 H 0.4932 0.45808 0.03723 0.0
H569 H 0.46548 0.50403 0.12756 0.0
H570 H 0.44158 0.46569 0.1161 0.0
H571 H 0.43908 0.49627 0.1005 0.0
C572 C 0.41357 0.38773 0.06378 0.0
C573 C 0.38762 0.38965 0.05808 0.0
C574 C 0.44148 0.41404 0.06813 0.0
C575 C 0.44387 0.44265 0.06692 0.0
C576 C 0.41804 0.44451 0.06112 0.0
H577 H 0.58409 0.62929 0.04969 0.0
H578 H 0.53611 0.58162 0.05469 0.0
C579 C 0.3903 0.41843 0.057 0.0
C580 C 0.47352 0.47085 0.06968 0.0
H581 H 0.50889 0.53948 0.10164 0.0
C582 C 0.49679 0.47567 0.05161 0.0
C583 C 0.47818 0.49393 0.08837 0.0
C584 C 0.45483 0.4896 0.1094 0.0
C585 C 0.52409 0.50328 0.05102 0.0
C586 C 0.52836 0.5266 0.06915 0.0
C587 C 0.50541 0.52165 0.0876 0.0
C588 C 0.55672 0.55618 0.0692 0.0
C589 C 0.54785 0.50763 0.03042 0.0
C590 C 0.5839 0.55785 0.07676 0.0
C591 C 0.61117 0.58488 0.07398 0.0
C592 C 0.61187 0.61093 0.06365 0.0
C593 C 0.58437 0.60969 0.05769 0.0
C594 C 0.55697 0.58247 0.06045 0.0
H595 H 0.53866 0.49007 0.01427 0.0
H596 H 0.55768 0.5302 0.02067 0.0
H597 H 0.56636 0.50629 0.0409 0.0
H598 H 0.58411 0.53797 0.08406 0.0
H599 H 0.63185 0.58506 0.07915 0.0
H600 H 0.06269 0.75254 0.38463 0.0
H601 H 0.10283 0.80347 0.3733 0.0
H602 H 0.03705 0.82417 0.34051 0.0
H603 H 0.99652 0.77296 0.35181 0.0
H604 H 0.08666 0.83822 0.30553 0.0
H605 H 0.12507 0.88513 0.40891 0.0
H606 H 0.12185 0.8488 0.40434 0.0
H607 H 0.0886 0.85227 0.40252 0.0
C608 C 0.05669 0.768 0.37527 0.0
C609 C 0.02648 0.75881 0.36913 0.0
C610 C 0.07963 0.79716 0.36898 0.0
C611 C 0.07283 0.81769 0.35647 0.0
C612 C 0.04267 0.8087 0.35042 0.0
H613 H 0.22509 0.00108 0.32644 0.0
H614 H 0.17396 0.9607 0.3383 0.0
C615 C 0.0196 0.7795 0.35688 0.0
C616 C 0.09765 0.84771 0.34805 0.0
H617 H 0.16035 0.91002 0.37237 0.0
C618 C 0.10247 0.85422 0.32014 0.0
C619 C 0.11801 0.86869 0.36717 0.0
C620 C 0.11301 0.86356 0.39743 0.0
C621 C 0.12824 0.88029 0.31077 0.0
C622 C 0.14975 0.9001 0.32983 0.0
C623 C 0.14393 0.89462 0.35779 0.0
C624 C 0.17967 0.92489 0.32119 0.0
C625 C 0.13268 0.886 0.28053 0.0
C626 C 0.19971 0.91801 0.30783 0.0
C627 C 0.2288 0.94085 0.30123 0.0
C628 C 0.23841 0.97104 0.30787 0.0
C629 C 0.2182 0.97802 0.32095 0.0
C630 C 0.18907 0.95503 0.32775 0.0
H631 H 0.11085 0.87427 0.26942 0.0
H632 H 0.14392 0.91054 0.27596 0.0
H633 H 0.14721 0.87727 0.27272 0.0
H634 H 0.19308 0.89482 0.30307 0.0
H635 H 0.24389 0.93478 0.29122 0.0
H636 H 0.30489 0.24033 0.62072 0.0
H637 H 0.29217 0.18923 0.63364 0.0
H638 H 0.20978 0.17515 0.67097 0.0
H639 H 0.22239 0.22656 0.65801 0.0
H640 H 0.2466 0.16173 0.70482 0.0
H641 H 0.22761 0.10597 0.60438 0.0
H642 H 0.26177 0.14192 0.60557 0.0
H643 H 0.22592 0.1401 0.60946 0.0
C644 C 0.28384 0.22623 0.63132 0.0
C645 C 0.26461 0.23738 0.63834 0.0
C646 C 0.27651 0.19697 0.63853 0.0
C647 C 0.24983 0.1783 0.65289 0.0
C648 C 0.23031 0.18917 0.65963 0.0
H649 H 0.22153 0.99732 0.69008 0.0
H650 H 0.2087 0.03618 0.67795 0.0
C651 C 0.23753 0.21846 0.6522 0.0
C652 C 0.24408 0.14858 0.6628 0.0
H653 H 0.24124 0.08382 0.6412 0.0
C654 C 0.24473 0.14435 0.69097 0.0
C655 C 0.24126 0.12582 0.6447 0.0
C656 C 0.23878 0.12849 0.61434 0.0
C657 C 0.24485 0.11889 0.70142 0.0
C658 C 0.24462 0.09738 0.68319 0.0
C659 C 0.2417 0.1005 0.65514 0.0
C660 C 0.25083 0.07349 0.69248 0.0
C661 C 0.24622 0.11574 0.73186 0.0
C662 C 0.27875 0.08168 0.70452 0.0
C663 C 0.28613 0.0597 0.71132 0.0
C664 C 0.26577 0.02907 0.70612 0.0
C665 C 0.23757 0.02076 0.69445 0.0
C666 C 0.23024 0.04288 0.6875 0.0
H667 H 0.2365 0.1279 0.74284 0.0
H668 H 0.23396 0.09165 0.73814 0.0
H669 H 0.27017 0.12575 0.73819 0.0
H670 H 0.29524 0.10523 0.70795 0.0
H671 H 0.30807 0.06681 0.7202 0.0
H672 H 0.23449 0.28712 0.07532 0.0
H673 H 0.18375 0.27769 0.06516 0.0
H674 H 0.18352 0.2328 0.99058 0.0
H675 H 0.23359 0.24048 1.00185 0.0
H676 H 0.17193 0.302 0.02605 0.0
H677 H 0.09857 0.17882 0.01288 0.0
H678 H 0.13563 0.19514 0.02797 0.0
H679 H 0.13128 0.19322 0.99148 0.0
C680 C 0.22313 0.27443 0.05719 0.0
C681 C 0.23764 0.26436 0.0394 0.0
C682 C 0.1942 0.26909 0.05135 0.0
C683 C 0.17958 0.25434 0.02716 0.0
C684 C 0.19381 0.24343 0.00973 0.0
H685 H 0.06037 0.30177 0.94548 0.0
H686 H 0.10127 0.29302 0.95915 0.0
C687 C 0.2225 0.24799 0.01605 0.0
C688 C 0.15158 0.25415 0.01874 0.0
H689 H 0.0804 0.21006 0.99337 0.0
C690 C 0.15183 0.28173 0.01927 0.0
C691 C 0.12515 0.22774 0.01007 0.0
C692 C 0.1225 0.19703 0.01085 0.0
C693 C 0.12675 0.28381 0.01106 0.0
C694 C 0.10106 0.25785 1.00074 0.0
C695 C 0.10036 0.23005 1.00079 0.0
C696 C 0.07498 0.25956 0.98975 0.0
C697 C 0.12799 0.31382 0.01395 0.0
C698 C 0.04608 0.24218 1.00113 0.0
C699 C 0.0224 0.24662 0.99281 0.0
C700 C 0.02751 0.26871 0.97323 0.0
C701 C 0.056 0.28489 0.96089 0.0
C702 C 0.07939 0.28002 0.96878 0.0
H703 H 0.14446 0.32809 0.02983 0.0
H704 H 0.13539 0.32627 0.99437 0.0
H705 H 0.10555 0.31079 0.01933 0.0
H706 H 0.04216 0.22611 0.01721 0.0
H707 H 0.0006 0.23388 1.00263 0.0
H708 H 0.93441 0.24211 0.38821 0.0
H709 H 0.89494 0.19119 0.37606 0.0
H710 H 0.96147 0.174 0.33933 0.0
H711 H 0.00137 0.22522 0.35153 0.0
H712 H 0.91041 0.16066 0.30574 0.0
H713 H 0.87565 0.1084 0.40785 0.0
H714 H 0.87832 0.14472 0.40563 0.0
H715 H 0.91174 0.14183 0.40155 0.0
C716 C 0.94073 0.2274 0.37785 0.0
C717 C 0.97095 0.23758 0.37086 0.0
C718 C 0.91818 0.19825 0.37108 0.0
C719 C 0.92538 0.17874 0.35716 0.0
C720 C 0.95557 0.18869 0.35032 0.0
H721 H 0.77317 0.99629 0.32493 0.0
H722 H 0.82462 0.03637 0.33608 0.0
C723 C 0.97827 0.21787 0.35732 0.0
C724 C 0.90082 0.14891 0.34813 0.0
H725 H 0.83933 0.08502 0.3718 0.0
C726 C 0.89519 0.1438 0.32012 0.0
C727 C 0.88124 0.12684 0.36694 0.0
C728 C 0.88716 0.13053 0.39718 0.0
C729 C 0.86928 0.11805 0.3105 0.0
C730 C 0.84847 0.09715 0.32942 0.0
C731 C 0.85519 0.10124 0.35733 0.0
C732 C 0.81837 0.0726 0.32092 0.0
C733 C 0.86397 0.11385 0.2802 0.0
C734 C 0.7979 0.07979 0.30888 0.0
C735 C 0.76862 0.0571 0.30265 0.0
C736 C 0.75923 0.02676 0.30841 0.0
C737 C 0.77986 0.01949 0.32016 0.0
C738 C 0.80919 0.0423 0.32654 0.0
H739 H 0.88551 0.12602 0.26868 0.0
H740 H 0.85244 0.08957 0.27459 0.0
H741 H 0.84941 0.12313 0.27384 0.0
H742 H 0.80433 0.1031 0.30494 0.0
H743 H 0.75321 0.06341 0.29369 0.0
H744 H 0.71334 0.76693 0.60374 0.0
H745 H 0.72372 0.81774 0.61515 0.0
H746 H 0.77115 0.81654 0.68749 0.0
H747 H 0.76251 0.76646 0.67491 0.0
H748 H 0.70125 0.82943 0.65579 0.0
H749 H 0.82497 0.90163 0.6656 0.0
H750 H 0.80776 0.86476 0.65002 0.0
H751 H 0.81109 0.86862 0.68653 0.0
C752 C 0.7268 0.77802 0.62159 0.0
C753 C 0.73735 0.76312 0.63838 0.0
C754 C 0.73267 0.80697 0.62817 0.0
C755 C 0.74844 0.82122 0.65211 0.0
C756 C 0.75976 0.80657 0.66851 0.0
H757 H 0.70477 0.94045 0.73881 0.0
H758 H 0.71391 0.89986 0.72481 0.0
C759 C 0.75466 0.77788 0.66144 0.0
C760 C 0.7493 0.84926 0.66149 0.0
H761 H 0.7949 0.92 0.68722 0.0
C762 C 0.72188 0.84932 0.6623 0.0
C763 C 0.77617 0.87541 0.66984 0.0
C764 C 0.80668 0.87774 0.66768 0.0
C765 C 0.72043 0.87444 0.67149 0.0
C766 C 0.74691 0.89983 0.68145 0.0
C767 C 0.77453 0.90024 0.6801 0.0
C768 C 0.74592 0.92599 0.69318 0.0
C769 C 0.69051 0.87359 0.66997 0.0
C770 C 0.76257 0.95477 0.68139 0.0
C771 C 0.75797 0.97828 0.68992 0.0
C772 C 0.73643 0.97307 0.71009 0.0
C773 C 0.72127 0.94486 0.72301 0.0
C774 C 0.72634 0.92166 0.71493 0.0
H775 H 0.6754 0.85718 0.65443 0.0
H776 H 0.67893 0.86638 0.68996 0.0
H777 H 0.69362 0.89615 0.66493 0.0
H778 H 0.77793 0.95862 0.66468 0.0
H779 H 0.76983 -0.00013 0.67959 0.0
H780 H 0.76554 0.7657 1.00492 0.0
H781 H 0.81467 0.77376 0.98918 0.0
H782 H 0.81266 0.71362 0.05186 0.0
H783 H 0.76319 0.70447 0.06669 0.0
H784 H 0.87091 0.7933 0.01087 0.0
H785 H 0.817 0.67235 0.9836 0.0
H786 H 0.79539 0.68994 0.99324 0.0
H787 H 0.81181 0.67737 0.01891 0.0
C788 C 0.77589 0.7546 0.01551 0.0
C789 C 0.76057 0.73417 0.03673 0.0
C790 C 0.80387 0.75919 0.00653 0.0
C791 C 0.81688 0.74364 0.01891 0.0
C792 C 0.80258 0.72512 0.0415 0.0
H793 H 0.99488 0.76481 1.00363 0.0
H794 H 0.9525 0.77259 0.01455 0.0
C795 C 0.77444 0.72003 0.05005 0.0
C796 C 0.84421 0.74492 0.00728 0.0
H797 H 0.87073 0.69955 0.98476 0.0
C798 C 0.87092 0.77289 1.00487 0.0
C799 C 0.84393 0.71835 0.99879 0.0
C800 C 0.8154 0.68787 0.99847 0.0
C801 C 0.89768 0.77484 0.99508 0.0
C802 C 0.89783 0.74798 0.98832 0.0
C803 C 0.87083 0.72018 0.99008 0.0
C804 C 0.92546 0.74755 0.97975 0.0
C805 C 0.92529 0.80562 0.99176 0.0
C806 C 0.92445 0.7308 0.95669 0.0
C807 C 0.9481 0.72548 0.95108 0.0
C808 C 0.97358 0.7375 0.96797 0.0
C809 C 0.97558 0.75575 0.9901 0.0
C810 C 0.95145 0.76036 0.99622 0.0
H811 H 0.91898 0.82325 0.98847 0.0
H812 H 0.93901 0.8115 0.01063 0.0
H813 H 0.93945 0.80614 0.97439 0.0
H814 H 0.90472 0.72069 0.94366 0.0
H815 H 0.94616 0.71134 0.93389 0.0
H816 H 0.31336 0.04392 0.3908 0.0
H817 H 0.31217 0.04559 0.441 0.0
H818 H 0.31196 0.96131 0.44517 0.0
H819 H 0.31322 0.95949 0.39577 0.0
H820 H 0.26633 0.99963 0.47648 0.0
H821 H 0.38017 0.01644 0.4979 0.0
H822 H 0.3698 0.02438 0.46506 0.0
H823 H 0.35835 0.98619 0.47457 0.0
C824 C 0.3135 0.02603 0.40247 0.0
C825 C 0.31336 0.00159 0.38916 0.0
C826 C 0.31266 0.0269 0.43113 0.0
C827 C 0.31226 0.00368 0.4469 0.0
C828 C 0.31268 0.97969 0.43357 0.0
H829 H 0.30339 0.95734 0.62002 0.0
H830 H 0.30224 0.95557 0.56984 0.0
C831 C 0.31323 0.97865 0.40519 0.0
C832 C 0.31015 0.00341 0.47721 0.0
H833 H 0.346 0.00119 0.53527 0.0
C834 C 0.28388 0.00029 0.48936 0.0
C835 C 0.33285 0.00384 0.49404 0.0
C836 C 0.36202 0.00816 0.48231 0.0
C837 C 0.27947 0.99703 0.51776 0.0
C838 C 0.30214 0.99736 0.53459 0.0
C839 C 0.32845 0.00059 0.52242 0.0
C840 C 0.29996 0.99646 0.56493 0.0
C841 C 0.25025 0.99258 0.52947 0.0
C842 C 0.29878 0.01977 0.57886 0.0
C843 C 0.29952 0.02083 0.60729 0.0
C844 C 0.3015 0.99862 0.62269 0.0
C845 C 0.3016 0.97462 0.60882 0.0
C846 C 0.30114 0.97372 0.58015 0.0
H847 H 0.23208 0.98409 0.51389 0.0
H848 H 0.24256 0.97647 0.54681 0.0
H849 H 0.25377 0.01455 0.53705 0.0
H850 H 0.29836 0.03783 0.5677 0.0
H851 H 0.29932 0.03963 0.61726 0.0
H852 H 0.30039 0.34705 0.94828 0.0
H853 H 0.30035 0.344 0.89896 0.0
H854 H 0.32074 0.27195 0.90405 0.0
H855 H 0.32068 0.27471 0.95421 0.0
H856 H 0.34638 0.35115 0.86307 0.0
H857 H 0.2445 0.23712 0.85478 0.0
H858 H 0.25417 0.25906 0.88574 0.0
H859 H 0.27439 0.24015 0.87625 0.0
C860 C 0.30487 0.33041 0.93913 0.0
C861 C 0.31028 0.31089 0.95545 0.0
C862 C 0.30492 0.32882 0.91076 0.0
C863 C 0.31013 0.30753 0.89767 0.0
C864 C 0.3162 0.2883 0.91369 0.0
H865 H 0.3099 0.26505 0.72699 0.0
H866 H 0.30965 0.26643 0.77644 0.0
C867 C 0.31638 0.29003 0.94236 0.0
C868 C 0.30898 0.30589 0.86729 0.0
H869 H 0.26824 0.26132 0.81376 0.0
C870 C 0.32934 0.33148 0.85227 0.0
C871 C 0.28662 0.28033 0.85317 0.0
C872 C 0.26346 0.25262 0.86819 0.0
C873 C 0.32822 0.33207 0.82362 0.0
C874 C 0.30563 0.30662 0.80948 0.0
C875 C 0.28538 0.28096 0.82452 0.0
C876 C 0.30385 0.30542 0.77907 0.0
C877 C 0.35175 0.35969 0.80874 0.0
C878 C 0.29979 0.32643 0.76371 0.0
C879 C 0.29995 0.32576 0.73503 0.0
C880 C 0.30421 0.30408 0.7212 0.0
C881 C 0.30697 0.2824 0.73678 0.0
C882 C 0.30674 0.28304 0.76521 0.0
H883 H 0.37153 0.37397 0.82188 0.0
H884 H 0.35977 0.35325 0.79028 0.0
H885 H 0.34169 0.37352 0.80222 0.0
H886 H 0.29683 0.34354 0.7739 0.0
H887 H 0.29766 0.34271 0.72376 0.0
H888 H 0.95565 0.26641 0.28278 0.0
H889 H 0.95755 0.26745 0.23329 0.0
H890 H 0.04683 0.3456 0.23586 0.0
H891 H 0.04526 0.34448 0.28598 0.0
H892 H 0.96203 0.31204 0.20011 0.0
H893 H 0.05764 0.29217 0.18092 0.0
H894 H 0.03955 0.2857 0.21376 0.0
H895 H 0.06645 0.32342 0.2031 0.0
C896 C 0.97592 0.28376 0.27296 0.0
C897 C 0.0003 0.3055 0.28851 0.0
C898 C 0.97691 0.28429 0.24453 0.0
C899 C 0.00231 0.3065 0.23066 0.0
C900 C 0.02712 0.3279 0.24602 0.0
H901 H 0.04506 0.35229 0.06096 0.0
H902 H 0.04291 0.34912 0.11031 0.0
C903 C 0.02621 0.32729 0.2747 0.0
C904 C 0.00181 0.30771 0.20025 0.0
H905 H 0.03755 0.30431 0.14264 0.0
C906 C 0.97852 0.31025 0.18754 0.0
C907 C 0.02319 0.30528 0.18376 0.0
C908 C 0.04798 0.30121 0.196 0.0
C909 C 0.97638 0.31107 0.15898 0.0
C910 C 0.99781 0.30871 0.14248 0.0
C911 C 0.02103 0.30603 0.1552 0.0
C912 C 0.99772 0.31064 0.11207 0.0
C913 C 0.9517 0.31535 0.1468 0.0
C914 C 0.97283 0.29016 0.09623 0.0
C915 C 0.97386 0.29205 0.06758 0.0
C916 C -3e-05 0.31419 0.05425 0.0
C917 C 0.02459 0.33473 0.07032 0.0
C918 C 0.02346 0.33297 0.09871 0.0
H919 H 0.94203 0.3243 0.16195 0.0
H920 H 0.96024 0.33104 0.12916 0.0
H921 H 0.93321 0.29324 0.13953 0.0
H922 H 0.95286 0.27233 0.10597 0.0
H923 H 0.95462 0.27572 0.05591 0.0
H924 H 0.69724 0.04389 0.39802 0.0
H925 H 0.7002 0.04223 0.44719 0.0
H926 H 0.68263 0.95067 0.44281 0.0
H927 H 0.67923 0.95195 0.39276 0.0
H928 H 0.65011 0.95982 0.48422 0.0
H929 H 0.77067 0.04806 0.49012 0.0
H930 H 0.74851 0.06015 0.47137 0.0
H931 H 0.75288 0.02956 0.45861 0.0
C932 C 0.69407 0.02327 0.40726 0.0
C933 C 0.68835 0.99811 0.39114 0.0
C934 C 0.69596 0.02249 0.43557 0.0
C935 C 0.6925 0.99669 0.44879 0.0
C936 C 0.68577 0.97104 0.43303 0.0
H937 H 0.69668 0.95536 0.6198 0.0
H938 H 0.69691 0.95644 0.57027 0.0
C939 C 0.68376 0.97174 0.40443 0.0
C940 C 0.69543 0.9968 0.47907 0.0
H941 H 0.74285 0.03588 0.53183 0.0
C942 C 0.6705 0.97623 0.4946 0.0
C943 C 0.72199 0.01835 0.49274 0.0
C944 C 0.75013 0.04009 0.47736 0.0
C945 C 0.67112 0.97715 0.52328 0.0
C946 C 0.69751 0.99899 0.5369 0.0
C947 C 0.72253 0.01938 0.52142 0.0
C948 C 0.69982 -3e-05 0.56721 0.0
C949 C 0.64325 0.95511 0.53881 0.0
C950 C 0.70282 0.02481 0.58219 0.0
C951 C 0.70279 0.02437 0.61088 0.0
C952 C 0.69984 0.99908 0.62501 0.0
C953 C 0.69846 0.97505 0.60975 0.0
C954 C 0.69848 0.97552 0.58131 0.0
H955 H 0.62282 0.94494 0.52569 0.0
H956 H 0.64642 0.93657 0.54676 0.0
H957 H 0.63928 0.96631 0.55642 0.0
H958 H 0.7042 0.0441 0.57171 0.0
H959 H 0.70391 0.04324 0.62191 0.0
H960 H 0.68617 0.64483 0.95021 0.0
H961 H 0.68769 0.64832 0.90074 0.0
H962 H 0.6859 0.73156 0.90543 0.0
H963 H 0.68441 0.72824 0.95559 0.0
H964 H 0.6475 0.65192 0.86315 0.0
H965 H 0.76241 0.75305 0.85912 0.0
H966 H 0.74753 0.73038 0.88947 0.0
H967 H 0.73512 0.75626 0.87981 0.0
C968 C 0.68593 0.6639 0.94085 0.0
C969 C 0.68539 0.68641 0.95699 0.0
C970 C 0.68675 0.66579 0.91245 0.0
C971 C 0.68739 0.69039 0.89927 0.0
C972 C 0.68588 0.71255 0.91517 0.0
H973 H 0.70231 0.7407 0.72921 0.0
H974 H 0.70159 0.7384 0.77877 0.0
C975 C 0.68475 0.71051 0.94381 0.0
C976 C 0.69013 0.69261 0.86897 0.0
H977 H 0.73794 0.73351 0.81714 0.0
C978 C 0.66725 0.66979 0.85308 0.0
C979 C 0.71601 0.71577 0.8558 0.0
C980 C 0.74185 0.7402 0.87182 0.0
C981 C 0.66929 0.66975 0.82446 0.0
C982 C 0.69529 0.6928 0.81127 0.0
C983 C 0.71813 0.71568 0.82718 0.0
C984 C 0.69828 0.69463 0.78094 0.0
C985 C 0.6432 0.64546 0.80857 0.0
C986 C 0.69778 0.67122 0.76537 0.0
C987 C 0.69829 0.67249 0.73671 0.0
C988 C 0.6992 0.69716 0.72314 0.0
C989 C 0.70123 0.72114 0.73891 0.0
C990 C 0.70088 0.71993 0.76735 0.0
H991 H 0.62232 0.63383 0.82106 0.0
H992 H 0.63841 0.65504 0.7902 0.0
H993 H 0.64904 0.62831 0.80179 0.0
H994 H 0.69645 0.65172 0.77537 0.0
H995 H 0.69671 0.65366 0.72524 0.0
H996 H 0.95135 0.68054 0.28563 0.0
H997 H 0.94947 0.68176 0.23545 0.0
H998 H 0.038 0.69136 0.23105 0.0
H999 H 0.04005 0.69 0.28036 0.0
H1000 H 0.99187 0.72938 0.19958 0.0
H1001 H 0.98811 0.62105 0.17872 0.0
H1002 H 0.97894 0.63009 0.21162 0.0
H1003 H 0.01772 0.64528 0.20167 0.0
C1004 C 0.97021 0.68255 0.27392 0.0
C1005 C 0.99581 0.68517 0.2872 0.0
C1006 C 0.96919 0.68338 0.24526 0.0
C1007 C 0.99349 0.6863 0.22942 0.0
C1008 C 0.01878 0.68859 0.24269 0.0
H1009 H 0.04221 0.70012 0.05662 0.0
H1010 H 0.04303 0.70053 0.10679 0.0
C1011 C 0.01993 0.688 0.27107 0.0
C1012 C 0.99341 0.68811 0.19908 0.0
H1013 H 0.00032 0.65475 0.1412 0.0
C1014 C 0.99338 0.71289 0.18679 0.0
C1015 C 0.9958 0.66683 0.18235 0.0
C1016 C 0.99488 0.63916 0.19419 0.0
C1017 C 0.9963 0.71729 0.15837 0.0
C1018 C 0.99884 0.69607 0.14165 0.0
C1019 C 0.99871 0.67121 0.15395 0.0
C1020 C -0.00019 0.69823 0.11129 0.0
C1021 C 0.99739 0.74505 0.14656 0.0
C1022 C 0.97543 0.69695 0.09709 0.0
C1023 C 0.97491 0.69667 0.06864 0.0
C1024 C 0.99873 0.69754 0.05344 0.0
C1025 C 0.02361 0.69963 0.06762 0.0
C1026 C 0.02401 0.69971 0.09629 0.0
H1027 H 0.0042 0.76313 0.16207 0.0
H1028 H 0.01337 0.75411 0.12916 0.0
H1029 H 0.97459 0.73905 0.13907 0.0
H1030 H 0.95625 0.69526 0.10804 0.0
H1031 H 0.95538 0.69516 0.05851 0.0
loop_
_geom_bond_atom_site_label_1
_geom_bond_atom_site_label_2
_geom_bond_distance
_geom_bond_site_symmetry_2
_ccdc_geom_bond_type
Co0 O1 2.216 . S
Co0 O2 2.091 . S
Co0 O4 2.004 . S
Co0 O10 2.021 . S
Co0 O12 2.137 1_545 S
Co0 O13 2.244 1_545 S
O1 Co0 2.216 . S
O1 C8 1.247 . S
O2 Co0 2.091 . S
O2 C8 1.261 . S
C3 O12 1.247 . S
C3 O13 1.272 . S
O4 Co0 2.004 . S
O4 C9 1.259 . S
Co5 O6 2.061 . S
Co5 O11 2.052 . S
Co5 O13 2.135 . S
O6 Co5 2.061 . S
O6 C9 1.235 1_565 S
C7 O10 1.238 . S
C7 O11 1.241 1_545 S
C8 O1 1.247 . S
C8 O2 1.261 . S
C9 O4 1.259 . S
C9 O6 1.235 1_545 S
O10 Co0 2.021 . S
O10 C7 1.238 . S
O11 Co5 2.052 . S
O11 C7 1.241 1_565 S
O12 Co0 2.137 1_565 S
O12 C3 1.247 . S
O13 Co0 2.244 1_565 S
O13 C3 1.272 . S
O13 Co5 2.135 . S
Co14 O15 2.216 . S
Co14 O16 2.091 . S
Co14 O18 2.004 . S
Co14 O24 2.021 . S
Co14 O26 2.137 . S
Co14 O27 2.244 . S
O15 Co14 2.216 . S
O15 C22 1.247 . S
O16 Co14 2.091 . S
O16 C22 1.261 . S
C17 O26 1.247 . S
C17 O27 1.272 . S
O18 Co14 2.004 . S
O18 C23 1.259 . S
Co19 O20 2.061 . S
Co19 O25 2.052 . S
Co19 O27 2.135 . S
O20 Co19 2.061 . S
O20 C23 1.235 . S
C21 O24 1.238 . S
C21 O25 1.241 . S
C22 O15 1.247 . S
C22 O16 1.261 . S
C23 O18 1.259 . S
C23 O20 1.235 . S
O24 Co14 2.021 . S
O24 C21 1.238 . S
O25 Co19 2.052 . S
O25 C21 1.241 . S
O26 Co14 2.137 . S
O26 C17 1.247 . S
O27 Co14 2.244 . S
O27 C17 1.272 . S
O27 Co19 2.135 . S
Co28 O29 2.216 . S
Co28 O30 2.091 . S
Co28 O32 2.004 1_556 S
Co28 O38 2.021 . S
Co28 O40 2.137 1_655 S
Co28 O41 2.244 1_655 S
O29 Co28 2.216 . S
O29 C36 1.247 . S
O30 Co28 2.091 . S
O30 C36 1.261 . S
C31 O40 1.247 . S
C31 O41 1.272 . S
O32 Co28 2.004 1_554 S
O32 C37 1.259 . S
Co33 O34 2.061 . S
Co33 O39 2.052 1_554 S
Co33 O41 2.135 1_554 S
O34 Co33 2.061 . S
O34 C37 1.235 1_455 S
C35 O38 1.238 . S
C35 O39 1.241 1_655 S
C36 O29 1.247 . S
C36 O30 1.261 . S
C37 O32 1.259 . S
C37 O34 1.235 1_655 S
O38 Co28 2.021 . S
O38 C35 1.238 . S
O39 Co33 2.052 1_556 S
O39 C35 1.241 1_455 S
O40 Co28 2.137 1_455 S
O40 C31 1.247 . S
O41 Co28 2.244 1_455 S
O41 C31 1.272 . S
O41 Co33 2.135 1_556 S
Co42 O43 2.216 . S
Co42 O44 2.091 . S
Co42 O46 2.004 . S
Co42 O52 2.021 . S
Co42 O54 2.137 1_565 S
Co42 O55 2.244 1_565 S
O43 Co42 2.216 . S
O43 C50 1.247 . S
O44 Co42 2.091 . S
O44 C50 1.261 . S
C45 O54 1.247 . S
C45 O55 1.272 . S
O46 Co42 2.004 . S
O46 C51 1.259 . S
Co47 O48 2.061 . S
Co47 O53 2.052 . S
Co47 O55 2.135 . S
O48 Co47 2.061 . S
O48 C51 1.235 1_545 S
C49 O52 1.238 . S
C49 O53 1.241 1_565 S
C50 O43 1.247 . S
C50 O44 1.261 . S
C51 O46 1.259 . S
C51 O48 1.235 1_565 S
O52 Co42 2.021 . S
O52 C49 1.238 . S
O53 Co47 2.052 . S
O53 C49 1.241 1_545 S
O54 Co42 2.137 1_545 S
O54 C45 1.247 . S
O55 Co42 2.244 1_545 S
O55 C45 1.272 . S
O55 Co47 2.135 . S
Co56 O57 2.216 . S
Co56 O58 2.091 . S
Co56 O60 2.004 . S
Co56 O66 2.021 . S
Co56 O68 2.137 . S
Co56 O69 2.244 . S
O57 Co56 2.216 . S
O57 C64 1.247 . S
O58 Co56 2.091 . S
O58 C64 1.261 . S
C59 O68 1.247 . S
C59 O69 1.272 . S
O60 Co56 2.004 . S
O60 C65 1.259 . S
Co61 O62 2.061 . S
Co61 O67 2.052 . S
Co61 O69 2.135 . S
O62 Co61 2.061 . S
O62 C65 1.235 . S
C63 O66 1.238 . S
C63 O67 1.241 . S
C64 O57 1.247 . S
C64 O58 1.261 . S
C65 O60 1.259 . S
C65 O62 1.235 . S
O66 Co56 2.021 . S
O66 C63 1.238 . S
O67 Co61 2.052 . S
O67 C63 1.241 . S
O68 Co56 2.137 . S
O68 C59 1.247 . S
O69 Co56 2.244 . S
O69 C59 1.272 . S
O69 Co61 2.135 . S
Co70 O71 2.216 . S
Co70 O72 2.091 . S
Co70 O74 2.004 1_556 S
Co70 O80 2.021 . S
Co70 O82 2.137 1_455 S
Co70 O83 2.244 1_455 S
O71 Co70 2.216 . S
O71 C78 1.247 . S
O72 Co70 2.091 . S
O72 C78 1.261 . S
C73 O82 1.247 . S
C73 O83 1.272 . S
O74 Co70 2.004 1_554 S
O74 C79 1.259 . S
Co75 O76 2.061 . S
Co75 O81 2.052 1_554 S
Co75 O83 2.135 1_554 S
O76 Co75 2.061 . S
O76 C79 1.235 1_655 S
C77 O80 1.238 . S
C77 O81 1.241 1_455 S
C78 O71 1.247 . S
C78 O72 1.261 . S
C79 O74 1.259 . S
C79 O76 1.235 1_455 S
O80 Co70 2.021 . S
O80 C77 1.238 . S
O81 Co75 2.052 1_556 S
O81 C77 1.241 1_655 S
O82 Co70 2.137 1_655 S
O82 C73 1.247 . S
O83 Co70 2.244 1_655 S
O83 C73 1.272 . S
O83 Co75 2.135 1_556 S
Co84 O85 2.216 . S
Co84 O86 2.091 . S
Co84 O88 2.004 . S
Co84 O94 2.021 . S
Co84 O96 2.137 1_655 S
Co84 O97 2.244 1_655 S
O85 Co84 2.216 . S
O85 C92 1.247 . S
O86 Co84 2.091 . S
O86 C92 1.261 . S
C87 O96 1.247 . S
C87 O97 1.272 . S
O88 Co84 2.004 . S
O88 C93 1.259 . S
Co89 O90 2.061 . S
Co89 O95 2.052 . S
Co89 O97 2.135 . S
O90 Co89 2.061 . S
O90 C93 1.235 1_455 S
C91 O94 1.238 . S
C91 O95 1.241 1_655 S
C92 O85 1.247 . S
C92 O86 1.261 . S
C93 O88 1.259 . S
C93 O90 1.235 1_655 S
O94 Co84 2.021 . S
O94 C91 1.238 . S
O95 Co89 2.052 . S
O95 C91 1.241 1_455 S
O96 Co84 2.137 1_455 S
O96 C87 1.247 . S
O97 Co84 2.244 1_455 S
O97 C87 1.272 . S
O97 Co89 2.135 . S
Co98 O99 2.216 . S
Co98 O100 2.091 . S
Co98 O102 2.004 . S
Co98 O108 2.021 . S
Co98 O110 2.137 1_565 S
Co98 O111 2.244 1_565 S
O99 Co98 2.216 . S
O99 C106 1.247 . S
O100 Co98 2.091 . S
O100 C106 1.261 . S
C101 O110 1.247 . S
C101 O111 1.272 . S
O102 Co98 2.004 . S
O102 C107 1.259 . S
Co103 O104 2.061 . S
Co103 O109 2.052 . S
Co103 O111 2.135 . S
O104 Co103 2.061 . S
O104 C107 1.235 1_545 S
C105 O108 1.238 . S
C105 O109 1.241 1_565 S
C106 O99 1.247 . S
C106 O100 1.261 . S
C107 O102 1.259 . S
C107 O104 1.235 1_565 S
O108 Co98 2.021 . S
O108 C105 1.238 . S
O109 Co103 2.052 . S
O109 C105 1.241 1_545 S
O110 Co98 2.137 1_545 S
O110 C101 1.247 . S
O111 Co98 2.244 1_545 S
O111 C101 1.272 . S
O111 Co103 2.135 . S
Co112 O113 2.216 . S
Co112 O114 2.091 . S
Co112 O116 2.004 1_554 S
Co112 O122 2.021 . S
Co112 O124 2.137 . S
Co112 O125 2.244 . S
O113 Co112 2.216 . S
O113 C120 1.247 . S
O114 Co112 2.091 . S
O114 C120 1.261 . S
C115 O124 1.247 . S
C115 O125 1.272 . S
O116 Co112 2.004 1_556 S
O116 C121 1.259 . S
Co117 O118 2.061 . S
Co117 O123 2.052 1_556 S
Co117 O125 2.135 1_556 S
O118 Co117 2.061 . S
O118 C121 1.235 . S
C119 O122 1.238 . S
C119 O123 1.241 . S
C120 O113 1.247 . S
C120 O114 1.261 . S
C121 O116 1.259 . S
C121 O118 1.235 . S
O122 Co112 2.021 . S
O122 C119 1.238 . S
O123 Co117 2.052 1_554 S
O123 C119 1.241 . S
O124 Co112 2.137 . S
O124 C115 1.247 . S
O125 Co112 2.244 . S
O125 C115 1.272 . S
O125 Co117 2.135 1_554 S
Co126 O127 2.216 . S
Co126 O128 2.091 . S
Co126 O130 2.004 . S
Co126 O136 2.021 . S
Co126 O138 2.137 1_455 S
Co126 O139 2.244 1_455 S
O127 Co126 2.216 . S
O127 C134 1.247 . S
O128 Co126 2.091 . S
O128 C134 1.261 . S
C129 O138 1.247 . S
C129 O139 1.272 . S
O130 Co126 2.004 . S
O130 C135 1.259 . S
Co131 O132 2.061 . S
Co131 O137 2.052 . S
Co131 O139 2.135 . S
O132 Co131 2.061 . S
O132 C135 1.235 1_655 S
C133 O136 1.238 . S
C133 O137 1.241 1_455 S
C134 O127 1.247 . S
C134 O128 1.261 . S
C135 O130 1.259 . S
C135 O132 1.235 1_455 S
O136 Co126 2.021 . S
O136 C133 1.238 . S
O137 Co131 2.052 . S
O137 C133 1.241 1_655 S
O138 Co126 2.137 1_655 S
O138 C129 1.247 . S
O139 Co126 2.244 1_655 S
O139 C129 1.272 . S
O139 Co131 2.135 . S
Co140 O141 2.216 . S
Co140 O142 2.091 . S
Co140 O144 2.004 . S
Co140 O150 2.021 . S
Co140 O152 2.137 1_545 S
Co140 O153 2.244 1_545 S
O141 Co140 2.216 . S
O141 C148 1.247 . S
O142 Co140 2.091 . S
O142 C148 1.261 . S
C143 O152 1.247 . S
C143 O153 1.272 . S
O144 Co140 2.004 . S
O144 C149 1.259 . S
Co145 O146 2.061 . S
Co145 O151 2.052 . S
Co145 O153 2.135 . S
O146 Co145 2.061 . S
O146 C149 1.235 1_565 S
C147 O150 1.238 . S
C147 O151 1.241 1_545 S
C148 O141 1.247 . S
C148 O142 1.261 . S
C149 O144 1.259 . S
C149 O146 1.235 1_545 S
O150 Co140 2.021 . S
O150 C147 1.238 . S
O151 Co145 2.052 . S
O151 C147 1.241 1_565 S
O152 Co140 2.137 1_565 S
O152 C143 1.247 . S
O153 Co140 2.244 1_565 S
O153 C143 1.272 . S
O153 Co145 2.135 . S
Co154 O155 2.216 . S
Co154 O156 2.091 . S
Co154 O158 2.004 1_554 S
Co154 O164 2.021 . S
Co154 O166 2.137 . S
Co154 O167 2.244 . S
O155 Co154 2.216 . S
O155 C162 1.247 . S
O156 Co154 2.091 . S
O156 C162 1.261 . S
C157 O166 1.247 . S
C157 O167 1.272 . S
O158 Co154 2.004 1_556 S
O158 C163 1.259 . S
Co159 O160 2.061 . S
Co159 O165 2.052 1_556 S
Co159 O167 2.135 1_556 S
O160 Co159 2.061 . S
O160 C163 1.235 . S
C161 O164 1.238 . S
C161 O165 1.241 . S
C162 O155 1.247 . S
C162 O156 1.261 . S
C163 O158 1.259 . S
C163 O160 1.235 . S
O164 Co154 2.021 . S
O164 C161 1.238 . S
O165 Co159 2.052 1_554 S
O165 C161 1.241 . S
O166 Co154 2.137 . S
O166 C157 1.247 . S
O167 Co154 2.244 . S
O167 C157 1.272 . S
O167 Co159 2.135 1_554 S
H168 C176 0.929 . S
H169 C178 0.930 . S
H170 C180 0.930 . S
H171 C183 0.929 . S
H172 C186 0.930 . S
H173 C188 0.960 . S
H174 C188 0.960 . S
H175 C188 0.960 . S
C176 H168 0.929 . S
C176 C177 1.377 . S
C176 C178 1.384 . S
C177 C176 1.377 . S
C177 C183 1.390 . S
C178 H169 0.930 . S
C178 C176 1.384 . S
C178 C179 1.372 . S
C179 C178 1.372 . S
C179 C180 1.400 . S
C179 C184 1.490 . S
C180 H170 0.930 . S
C180 C179 1.400 . S
C180 C183 1.386 . S
H181 C197 0.930 . S
H182 C198 0.931 . S
C183 H171 0.929 . S
C183 C177 1.390 . S
C183 C180 1.386 . S
C184 C179 1.490 . S
C184 C186 1.395 . S
C184 C187 1.403 . S
H185 C191 0.930 . S
C186 H172 0.930 . S
C186 C184 1.395 . S
C186 C189 1.403 . S
C187 C184 1.403 . S
C187 C188 1.524 . S
C187 C191 1.400 . S
C188 H173 0.960 . S
C188 H174 0.960 . S
C188 H175 0.960 . S
C188 C187 1.524 . S
C189 C186 1.403 . S
C189 C190 1.392 . S
C189 C193 1.495 . S
C190 C189 1.392 . S
C190 C191 1.385 . S
C190 C192 1.478 . S
C191 H185 0.930 . S
C191 C187 1.400 . S
C191 C190 1.385 . S
C192 C190 1.478 . S
C192 C194 1.381 . S
C192 C198 1.383 . S
C193 C189 1.495 . S
C193 H199 0.959 . S
C193 H200 0.961 . S
C193 H201 0.960 . S
C194 C192 1.381 . S
C194 C195 1.394 . S
C194 H202 0.930 . S
C195 C194 1.394 . S
C195 C196 1.383 . S
C195 H203 0.929 . S
C196 C195 1.383 . S
C196 C197 1.377 . S
C197 H181 0.930 . S
C197 C196 1.377 . S
C197 C198 1.379 . S
C198 H182 0.931 . S
C198 C192 1.383 . S
C198 C197 1.379 . S
H199 C193 0.959 . S
H200 C193 0.961 . S
H201 C193 0.960 . S
H202 C194 0.930 . S
H203 C195 0.929 . S
H204 C212 0.929 . S
H205 C214 0.930 . S
H206 C216 0.930 . S
H207 C219 0.929 . S
H208 C222 0.930 . S
H209 C224 0.960 . S
H210 C224 0.960 . S
H211 C224 0.960 . S
C212 H204 0.929 . S
C212 C213 1.377 . S
C212 C214 1.384 . S
C213 C212 1.377 . S
C213 C219 1.390 . S
C214 H205 0.930 . S
C214 C212 1.384 . S
C214 C215 1.372 . S
C215 C214 1.372 . S
C215 C216 1.400 . S
C215 C220 1.490 . S
C216 H206 0.930 . S
C216 C215 1.400 . S
C216 C219 1.386 . S
H217 C233 0.930 . S
H218 C234 0.931 . S
C219 H207 0.929 . S
C219 C213 1.390 . S
C219 C216 1.386 . S
C220 C215 1.490 . S
C220 C222 1.395 . S
C220 C223 1.403 . S
H221 C227 0.930 . S
C222 H208 0.930 . S
C222 C220 1.395 . S
C222 C225 1.403 . S
C223 C220 1.403 . S
C223 C224 1.524 . S
C223 C227 1.400 . S
C224 H209 0.960 . S
C224 H210 0.960 . S
C224 H211 0.960 . S
C224 C223 1.524 . S
C225 C222 1.403 . S
C225 C226 1.392 . S
C225 C229 1.495 . S
C226 C225 1.392 . S
C226 C227 1.385 . S
C226 C228 1.478 . S
C227 H221 0.930 . S
C227 C223 1.400 . S
C227 C226 1.385 . S
C228 C226 1.478 . S
C228 C230 1.381 . S
C228 C234 1.383 . S
C229 C225 1.495 . S
C229 H235 0.959 . S
C229 H236 0.961 . S
C229 H237 0.960 . S
C230 C228 1.381 . S
C230 C231 1.394 . S
C230 H238 0.930 . S
C231 C230 1.394 . S
C231 C232 1.383 . S
C231 H239 0.929 . S
C232 C231 1.383 . S
C232 C233 1.377 . S
C233 H217 0.930 . S
C233 C232 1.377 . S
C233 C234 1.379 . S
C234 H218 0.931 . S
C234 C228 1.383 . S
C234 C233 1.379 . S
H235 C229 0.959 . S
H236 C229 0.961 . S
H237 C229 0.960 . S
H238 C230 0.930 . S
H239 C231 0.929 . S
H240 C248 0.929 . S
H241 C250 0.930 . S
H242 C252 0.930 . S
H243 C255 0.929 . S
H244 C258 0.930 . S
H245 C260 0.960 . S
H246 C260 0.960 . S
H247 C260 0.960 . S
C248 H240 0.929 . S
C248 C249 1.377 . S
C248 C250 1.384 . S
C249 C248 1.377 . S
C249 C255 1.390 . S
C250 H241 0.930 . S
C250 C248 1.384 . S
C250 C251 1.372 . S
C251 C250 1.372 . S
C251 C252 1.400 . S
C251 C256 1.490 . S
C252 H242 0.930 . S
C252 C251 1.400 . S
C252 C255 1.386 . S
H253 C269 0.930 . S
H254 C270 0.931 . S
C255 H243 0.929 . S
C255 C249 1.390 . S
C255 C252 1.386 . S
C256 C251 1.490 . S
C256 C258 1.395 . S
C256 C259 1.403 . S
H257 C263 0.930 . S
C258 H244 0.930 . S
C258 C256 1.395 . S
C258 C261 1.403 . S
C259 C256 1.403 . S
C259 C260 1.524 . S
C259 C263 1.400 . S
C260 H245 0.960 . S
C260 H246 0.960 . S
C260 H247 0.960 . S
C260 C259 1.524 . S
C261 C258 1.403 . S
C261 C262 1.392 . S
C261 C265 1.495 . S
C262 C261 1.392 . S
C262 C263 1.385 . S
C262 C264 1.478 . S
C263 H257 0.930 . S
C263 C259 1.400 . S
C263 C262 1.385 . S
C264 C262 1.478 . S
C264 C266 1.381 . S
C264 C270 1.383 . S
C265 C261 1.495 . S
C265 H271 0.959 . S
C265 H272 0.961 . S
C265 H273 0.960 . S
C266 C264 1.381 . S
C266 C267 1.394 . S
C266 H274 0.930 . S
C267 C266 1.394 . S
C267 C268 1.383 . S
C267 H275 0.929 . S
C268 C267 1.383 . S
C268 C269 1.377 . S
C269 H253 0.930 . S
C269 C268 1.377 . S
C269 C270 1.379 . S
C270 H254 0.931 . S
C270 C264 1.383 . S
C270 C269 1.379 . S
H271 C265 0.959 . S
H272 C265 0.961 . S
H273 C265 0.960 . S
H274 C266 0.930 . S
H275 C267 0.929 . S
H276 C284 0.929 . S
H277 C286 0.930 . S
H278 C288 0.930 . S
H279 C291 0.929 . S
H280 C294 0.930 . S
H281 C296 0.960 . S
H282 C296 0.960 . S
H283 C296 0.960 . S
C284 H276 0.929 . S
C284 C285 1.377 . S
C284 C286 1.384 . S
C285 C284 1.377 . S
C285 C291 1.390 . S
C286 H277 0.930 . S
C286 C284 1.384 . S
C286 C287 1.372 . S
C287 C286 1.372 . S
C287 C288 1.400 . S
C287 C292 1.490 . S
C288 H278 0.930 . S
C288 C287 1.400 . S
C288 C291 1.386 . S
H289 C305 0.930 . S
H290 C306 0.931 . S
C291 H279 0.929 . S
C291 C285 1.390 . S
C291 C288 1.386 . S
C292 C287 1.490 . S
C292 C294 1.395 . S
C292 C295 1.403 . S
H293 C299 0.930 . S
C294 H280 0.930 . S
C294 C292 1.395 . S
C294 C297 1.403 . S
C295 C292 1.403 . S
C295 C296 1.524 . S
C295 C299 1.400 . S
C296 H281 0.960 . S
C296 H282 0.960 . S
C296 H283 0.960 . S
C296 C295 1.524 . S
C297 C294 1.403 . S
C297 C298 1.392 . S
C297 C301 1.495 . S
C298 C297 1.392 . S
C298 C299 1.385 . S
C298 C300 1.478 . S
C299 H293 0.930 . S
C299 C295 1.400 . S
C299 C298 1.385 . S
C300 C298 1.478 . S
C300 C302 1.381 . S
C300 C306 1.383 . S
C301 C297 1.495 . S
C301 H307 0.959 . S
C301 H308 0.961 . S
C301 H309 0.960 . S
C302 C300 1.381 . S
C302 C303 1.394 . S
C302 H310 0.930 . S
C303 C302 1.394 . S
C303 C304 1.383 . S
C303 H311 0.929 . S
C304 C303 1.383 . S
C304 C305 1.377 . S
C305 H289 0.930 . S
C305 C304 1.377 . S
C305 C306 1.379 . S
C306 H290 0.931 . S
C306 C300 1.383 . S
C306 C305 1.379 . S
H307 C301 0.959 . S
H308 C301 0.961 . S
H309 C301 0.960 . S
H310 C302 0.930 . S
H311 C303 0.929 . S
H312 C320 0.929 . S
H313 C322 0.930 . S
H314 C324 0.930 . S
H315 C327 0.929 . S
H316 C330 0.930 . S
H317 C332 0.960 . S
H318 C332 0.960 . S
H319 C332 0.960 . S
C320 H312 0.929 . S
C320 C321 1.377 . S
C320 C322 1.384 . S
C321 C320 1.377 . S
C321 C327 1.390 . S
C322 H313 0.930 . S
C322 C320 1.384 . S
C322 C323 1.372 . S
C323 C322 1.372 . S
C323 C324 1.400 . S
C323 C328 1.490 . S
C324 H314 0.930 . S
C324 C323 1.400 . S
C324 C327 1.386 . S
H325 C341 0.930 . S
H326 C342 0.931 . S
C327 H315 0.929 . S
C327 C321 1.390 . S
C327 C324 1.386 . S
C328 C323 1.490 . S
C328 C330 1.395 . S
C328 C331 1.403 . S
H329 C335 0.930 . S
C330 H316 0.930 . S
C330 C328 1.395 . S
C330 C333 1.403 . S
C331 C328 1.403 . S
C331 C332 1.524 . S
C331 C335 1.400 . S
C332 H317 0.960 . S
C332 H318 0.960 . S
C332 H319 0.960 . S
C332 C331 1.524 . S
C333 C330 1.403 . S
C333 C334 1.392 . S
C333 C337 1.495 . S
C334 C333 1.392 . S
C334 C335 1.385 . S
C334 C336 1.478 . S
C335 H329 0.930 . S
C335 C331 1.400 . S
C335 C334 1.385 . S
C336 C334 1.478 . S
C336 C338 1.381 . S
C336 C342 1.383 . S
C337 C333 1.495 . S
C337 H343 0.959 . S
C337 H344 0.961 . S
C337 H345 0.960 . S
C338 C336 1.381 . S
C338 C339 1.394 . S
C338 H346 0.930 . S
C339 C338 1.394 . S
C339 C340 1.383 . S
C339 H347 0.929 . S
C340 C339 1.383 . S
C340 C341 1.377 . S
C341 H325 0.930 . S
C341 C340 1.377 . S
C341 C342 1.379 . S
C342 H326 0.931 . S
C342 C336 1.383 . S
C342 C341 1.379 . S
H343 C337 0.959 . S
H344 C337 0.961 . S
H345 C337 0.960 . S
H346 C338 0.930 . S
H347 C339 0.929 . S
H348 C356 0.929 . S
H349 C358 0.930 . S
H350 C360 0.930 . S
H351 C363 0.929 . S
H352 C366 0.930 . S
H353 C368 0.960 . S
H354 C368 0.960 . S
H355 C368 0.960 . S
C356 H348 0.929 . S
C356 C357 1.377 . S
C356 C358 1.384 . S
C357 C356 1.377 . S
C357 C363 1.390 . S
C358 H349 0.930 . S
C358 C356 1.384 . S
C358 C359 1.372 . S
C359 C358 1.372 . S
C359 C360 1.400 . S
C359 C364 1.490 . S
C360 H350 0.930 . S
C360 C359 1.400 . S
C360 C363 1.386 . S
H361 C377 0.930 . S
H362 C378 0.931 . S
C363 H351 0.929 . S
C363 C357 1.390 . S
C363 C360 1.386 . S
C364 C359 1.490 . S
C364 C366 1.395 . S
C364 C367 1.403 . S
H365 C371 0.930 . S
C366 H352 0.930 . S
C366 C364 1.395 . S
C366 C369 1.403 . S
C367 C364 1.403 . S
C367 C368 1.524 . S
C367 C371 1.400 . S
C368 H353 0.960 . S
C368 H354 0.960 . S
C368 H355 0.960 . S
C368 C367 1.524 . S
C369 C366 1.403 . S
C369 C370 1.392 . S
C369 C373 1.495 . S
C370 C369 1.392 . S
C370 C371 1.385 . S
C370 C372 1.478 . S
C371 H365 0.930 . S
C371 C367 1.400 . S
C371 C370 1.385 . S
C372 C370 1.478 . S
C372 C374 1.381 . S
C372 C378 1.383 . S
C373 C369 1.495 . S
C373 H379 0.959 . S
C373 H380 0.961 . S
C373 H381 0.960 . S
C374 C372 1.381 . S
C374 C375 1.394 . S
C374 H382 0.930 . S
C375 C374 1.394 . S
C375 C376 1.383 . S
C375 H383 0.929 . S
C376 C375 1.383 . S
C376 C377 1.377 . S
C377 H361 0.930 . S
C377 C376 1.377 . S
C377 C378 1.379 . S
C378 H362 0.931 . S
C378 C372 1.383 . S
C378 C377 1.379 . S
H379 C373 0.959 . S
H380 C373 0.961 . S
H381 C373 0.960 . S
H382 C374 0.930 . S
H383 C375 0.929 . S
H384 C392 0.929 . S
H385 C394 0.930 . S
H386 C396 0.930 . S
H387 C399 0.929 . S
H388 C402 0.930 . S
H389 C404 0.960 . S
H390 C404 0.960 . S
H391 C404 0.960 . S
C392 H384 0.929 . S
C392 C393 1.377 . S
C392 C394 1.384 . S
C393 C392 1.377 . S
C393 C399 1.390 . S
C394 H385 0.930 . S
C394 C392 1.384 . S
C394 C395 1.372 . S
C395 C394 1.372 . S
C395 C396 1.400 . S
C395 C400 1.490 . S
C396 H386 0.930 . S
C396 C395 1.400 . S
C396 C399 1.386 . S
H397 C413 0.930 . S
H398 C414 0.931 . S
C399 H387 0.929 . S
C399 C393 1.390 . S
C399 C396 1.386 . S
C400 C395 1.490 . S
C400 C402 1.395 1_545 S
C400 C403 1.403 . S
H401 C407 0.930 . S
C402 H388 0.930 . S
C402 C400 1.395 1_565 S
C402 C405 1.403 . S
C403 C400 1.403 . S
C403 C404 1.524 . S
C403 C407 1.400 . S
C404 H389 0.960 . S
C404 H390 0.960 . S
C404 H391 0.960 . S
C404 C403 1.524 . S
C405 C402 1.403 . S
C405 C406 1.392 . S
C405 C409 1.495 . S
C406 C405 1.392 . S
C406 C407 1.385 1_565 S
C406 C408 1.478 . S
C407 H401 0.930 . S
C407 C403 1.400 . S
C407 C406 1.385 1_545 S
C408 C406 1.478 . S
C408 C410 1.381 . S
C408 C414 1.383 . S
C409 C405 1.495 . S
C409 H415 0.959 . S
C409 H416 0.961 . S
C409 H417 0.960 . S
C410 C408 1.381 . S
C410 C411 1.394 . S
C410 H418 0.930 . S
C411 C410 1.394 . S
C411 C412 1.383 . S
C411 H419 0.929 . S
C412 C411 1.383 . S
C412 C413 1.377 . S
C413 H397 0.930 . S
C413 C412 1.377 . S
C413 C414 1.379 . S
C414 H398 0.931 . S
C414 C408 1.383 . S
C414 C413 1.379 . S
H415 C409 0.959 . S
H416 C409 0.961 . S
H417 C409 0.960 . S
H418 C410 0.930 . S
H419 C411 0.929 . S
H420 C428 0.929 . S
H421 C430 0.930 . S
H422 C432 0.930 . S
H423 C435 0.929 . S
H424 C438 0.930 . S
H425 C440 0.960 . S
H426 C440 0.960 . S
H427 C440 0.960 . S
C428 H420 0.929 . S
C428 C429 1.377 . S
C428 C430 1.384 . S
C429 C428 1.377 . S
C429 C435 1.390 . S
C430 H421 0.930 . S
C430 C428 1.384 . S
C430 C431 1.372 . S
C431 C430 1.372 . S
C431 C432 1.400 . S
C431 C436 1.490 . S
C432 H422 0.930 . S
C432 C431 1.400 . S
C432 C435 1.386 . S
H433 C449 0.930 . S
H434 C450 0.931 . S
C435 H423 0.929 . S
C435 C429 1.390 . S
C435 C432 1.386 . S
C436 C431 1.490 . S
C436 C438 1.395 . S
C436 C439 1.403 . S
H437 C443 0.930 . S
C438 H424 0.930 . S
C438 C436 1.395 . S
C438 C441 1.403 . S
C439 C436 1.403 . S
C439 C440 1.524 . S
C439 C443 1.400 . S
C440 H425 0.960 . S
C440 H426 0.960 . S
C440 H427 0.960 . S
C440 C439 1.524 . S
C441 C438 1.403 . S
C441 C442 1.392 . S
C441 C445 1.495 . S
C442 C441 1.392 . S
C442 C443 1.385 . S
C442 C444 1.478 . S
C443 H437 0.930 . S
C443 C439 1.400 . S
C443 C442 1.385 . S
C444 C442 1.478 . S
C444 C446 1.381 . S
C444 C450 1.383 . S
C445 C441 1.495 . S
C445 H451 0.959 . S
C445 H452 0.961 . S
C445 H453 0.960 . S
C446 C444 1.381 . S
C446 C447 1.394 . S
C446 H454 0.930 . S
C447 C446 1.394 . S
C447 C448 1.383 . S
C447 H455 0.929 . S
C448 C447 1.383 . S
C448 C449 1.377 . S
C449 H433 0.930 . S
C449 C448 1.377 . S
C449 C450 1.379 . S
C450 H434 0.931 . S
C450 C444 1.383 . S
C450 C449 1.379 . S
H451 C445 0.959 . S
H452 C445 0.961 . S
H453 C445 0.960 . S
H454 C446 0.930 . S
H455 C447 0.929 . S
H456 C464 0.929 . S
H457 C466 0.930 . S
H458 C468 0.930 . S
H459 C471 0.929 . S
H460 C474 0.930 . S
H461 C476 0.960 . S
H462 C476 0.960 . S
H463 C476 0.960 . S
C464 H456 0.929 . S
C464 C465 1.377 1_655 S
C464 C466 1.384 . S
C465 C464 1.377 1_455 S
C465 C471 1.390 . S
C466 H457 0.930 . S
C466 C464 1.384 . S
C466 C467 1.372 1_655 S
C467 C466 1.372 1_455 S
C467 C468 1.400 . S
C467 C472 1.490 . S
C468 H458 0.930 . S
C468 C467 1.400 . S
C468 C471 1.386 . S
H469 C485 0.930 . S
H470 C486 0.931 . S
C471 H459 0.929 . S
C471 C465 1.390 . S
C471 C468 1.386 . S
C472 C467 1.490 . S
C472 C474 1.395 1_455 S
C472 C475 1.403 . S
H473 C479 0.930 1_554 S
C474 H460 0.930 . S
C474 C472 1.395 1_655 S
C474 C477 1.403 . S
C475 C472 1.403 . S
C475 C476 1.524 1_556 S
C475 C479 1.400 . S
C476 H461 0.960 . S
C476 H462 0.960 . S
C476 H463 0.960 . S
C476 C475 1.524 1_554 S
C477 C474 1.403 . S
C477 C478 1.392 . S
C477 C481 1.495 . S
C478 C477 1.392 . S
C478 C479 1.385 1_655 S
C478 C480 1.478 . S
C479 H473 0.930 1_556 S
C479 C475 1.400 . S
C479 C478 1.385 1_455 S
C480 C478 1.478 . S
C480 C482 1.381 . S
C480 C486 1.383 1_655 S
C481 C477 1.495 . S
C481 H487 0.959 . S
C481 H488 0.961 . S
C481 H489 0.960 . S
C482 C480 1.381 . S
C482 C483 1.394 . S
C482 H490 0.930 . S
C483 C482 1.394 . S
C483 C484 1.383 . S
C483 H491 0.929 . S
C484 C483 1.383 . S
C484 C485 1.377 1_655 S
C485 H469 0.930 . S
C485 C484 1.377 1_455 S
C485 C486 1.379 . S
C486 H470 0.931 . S
C486 C480 1.383 1_455 S
C486 C485 1.379 . S
H487 C481 0.959 . S
H488 C481 0.961 . S
H489 C481 0.960 . S
H490 C482 0.930 . S
H491 C483 0.929 . S
H492 C500 0.929 . S
H493 C502 0.930 . S
H494 C504 0.930 . S
H495 C507 0.929 . S
H496 C510 0.930 . S
H497 C512 0.960 . S
H498 C512 0.960 . S
H499 C512 0.960 . S
C500 H492 0.929 . S
C500 C501 1.377 1_455 S
C500 C502 1.384 . S
C501 C500 1.377 1_655 S
C501 C507 1.390 . S
C502 H493 0.930 . S
C502 C500 1.384 . S
C502 C503 1.372 1_455 S
C503 C502 1.372 1_655 S
C503 C504 1.400 . S
C503 C508 1.490 . S
C504 H494 0.930 . S
C504 C503 1.400 . S
C504 C507 1.386 . S
H505 C521 0.927 1_655 S
H506 C522 0.931 . S
C507 H495 0.929 . S
C507 C501 1.390 . S
C507 C504 1.386 . S
C508 C503 1.490 . S
C508 C510 1.395 1_655 S
C508 C511 1.403 . S
H509 C515 0.930 . S
C510 H496 0.930 . S
C510 C508 1.395 1_455 S
C510 C513 1.403 . S
C511 C508 1.403 . S
C511 C512 1.524 . S
C511 C515 1.400 . S
C512 H497 0.960 . S
C512 H498 0.960 . S
C512 H499 0.960 . S
C512 C511 1.524 . S
C513 C510 1.403 . S
C513 C514 1.392 . S
C513 C517 1.495 . S
C514 C513 1.392 . S
C514 C515 1.385 1_455 S
C514 C516 1.478 . S
C515 H509 0.930 . S
C515 C511 1.400 . S
C515 C514 1.385 1_655 S
C516 C514 1.478 . S
C516 C518 1.381 . S
C516 C522 1.383 1_455 S
C517 C513 1.495 . S
C517 H523 0.959 . S
C517 H524 0.961 . S
C517 H525 0.960 . S
C518 C516 1.381 . S
C518 C519 1.394 . S
C518 H526 0.930 . S
C519 C518 1.394 . S
C519 C520 1.383 . S
C519 H527 0.929 . S
C520 C519 1.383 . S
C520 C521 1.387 . S
C521 H505 0.927 1_455 S
C521 C520 1.387 . S
C521 C522 1.372 1_455 S
C522 H506 0.931 . S
C522 C516 1.383 1_655 S
C522 C521 1.372 1_655 S
H523 C517 0.959 . S
H524 C517 0.961 . S
H525 C517 0.960 . S
H526 C518 0.930 . S
H527 C519 0.929 . S
H528 C536 0.929 1_565 S
H529 C538 0.930 . S
H530 C540 0.930 . S
H531 C543 0.929 . S
H532 C546 0.930 . S
H533 C548 0.960 . S
H534 C548 0.960 . S
H535 C548 0.960 . S
C536 H528 0.929 1_545 S
C536 C537 1.377 . S
C536 C538 1.384 1_545 S
C537 C536 1.377 . S
C537 C543 1.390 . S
C538 H529 0.930 . S
C538 C536 1.384 1_565 S
C538 C539 1.372 1_565 S
C539 C538 1.372 1_545 S
C539 C540 1.400 . S
C539 C544 1.490 . S
C540 H530 0.930 . S
C540 C539 1.400 . S
C540 C543 1.386 . S
H541 C557 0.939 . S
H542 C558 0.931 1_545 S
C543 H531 0.929 . S
C543 C537 1.390 . S
C543 C540 1.386 . S
C544 C539 1.490 . S
C544 C546 1.395 1_545 S
C544 C547 1.403 . S
H545 C551 0.930 . S
C546 H532 0.930 . S
C546 C544 1.395 1_565 S
C546 C549 1.403 . S
C547 C544 1.403 . S
C547 C548 1.524 . S
C547 C551 1.400 . S
C548 H533 0.960 . S
C548 H534 0.960 . S
C548 H535 0.960 . S
C548 C547 1.524 . S
C549 C546 1.403 . S
C549 C550 1.392 . S
C549 C553 1.495 . S
C550 C549 1.392 . S
C550 C551 1.385 1_565 S
C550 C552 1.478 . S
C551 H545 0.930 . S
C551 C547 1.400 . S
C551 C550 1.385 1_545 S
C552 C550 1.478 . S
C552 C554 1.381 . S
C552 C558 1.383 . S
C553 C549 1.495 . S
C553 H559 0.959 . S
C553 H560 0.961 . S
C553 H561 0.960 . S
C554 C552 1.381 . S
C554 C555 1.394 . S
C554 H562 0.930 . S
C555 C554 1.394 . S
C555 C556 1.383 . S
C555 H563 0.929 . S
C556 C555 1.383 . S
C556 C557 1.377 . S
C557 H541 0.939 . S
C557 C556 1.377 . S
C557 C558 1.379 . S
C558 H542 0.931 1_565 S
C558 C552 1.383 . S
C558 C557 1.379 . S
H559 C553 0.959 . S
H560 C553 0.961 . S
H561 C553 0.960 . S
H562 C554 0.930 . S
H563 C555 0.929 . S
H564 C572 0.929 . S
H565 C574 0.930 . S
H566 C576 0.930 1_556 S
H567 C579 0.929 1_556 S
H568 C582 0.930 . S
H569 C584 0.960 . S
H570 C584 0.960 . S
H571 C584 0.960 . S
C572 H564 0.929 . S
C572 C573 1.377 . S
C572 C574 1.384 . S
C573 C572 1.377 . S
C573 C579 1.390 . S
C574 H565 0.930 . S
C574 C572 1.384 . S
C574 C575 1.372 . S
C575 C574 1.372 . S
C575 C576 1.400 . S
C575 C580 1.490 . S
C576 H566 0.930 1_554 S
C576 C575 1.400 . S
C576 C579 1.386 . S
H577 C593 0.930 1_556 S
H578 C594 0.931 1_556 S
C579 H567 0.929 1_554 S
C579 C573 1.390 . S
C579 C576 1.386 . S
C580 C575 1.490 . S
C580 C582 1.395 . S
C580 C583 1.403 . S
H581 C587 0.930 . S
C582 H568 0.930 . S
C582 C580 1.395 . S
C582 C585 1.403 . S
C583 C580 1.403 . S
C583 C584 1.524 . S
C583 C587 1.400 . S
C584 H569 0.960 . S
C584 H570 0.960 . S
C584 H571 0.960 . S
C584 C583 1.524 . S
C585 C582 1.403 . S
C585 C586 1.392 . S
C585 C589 1.495 . S
C586 C585 1.392 . S
C586 C587 1.385 . S
C586 C588 1.478 . S
C587 H581 0.930 . S
C587 C583 1.400 . S
C587 C586 1.385 . S
C588 C586 1.478 . S
C588 C590 1.381 . S
C588 C594 1.383 . S
C589 C585 1.495 . S
C589 H595 0.959 . S
C589 H596 0.961 . S
C589 H597 0.960 . S
C590 C588 1.381 . S
C590 C591 1.394 . S
C590 H598 0.930 . S
C591 C590 1.394 . S
C591 C592 1.383 . S
C591 H599 0.929 . S
C592 C591 1.383 . S
C592 C593 1.377 . S
C593 H577 0.930 1_554 S
C593 C592 1.377 . S
C593 C594 1.379 . S
C594 H578 0.931 1_554 S
C594 C588 1.383 . S
C594 C593 1.379 . S
H595 C589 0.959 . S
H596 C589 0.961 . S
H597 C589 0.960 . S
H598 C590 0.930 . S
H599 C591 0.929 . S
H600 C608 0.929 . S
H601 C610 0.930 . S
H602 C612 0.930 . S
H603 C615 0.929 . S
H604 C618 0.930 . S
H605 C620 0.960 . S
H606 C620 0.960 . S
H607 C620 0.960 . S
C608 H600 0.929 . S
C608 C609 1.377 . S
C608 C610 1.384 . S
C609 C608 1.377 . S
C609 C615 1.390 . S
C610 H601 0.930 . S
C610 C608 1.384 . S
C610 C611 1.372 . S
C611 C610 1.372 . S
C611 C612 1.400 . S
C611 C616 1.490 . S
C612 H602 0.930 . S
C612 C611 1.400 . S
C612 C615 1.386 . S
H613 C629 0.930 . S
H614 C630 0.931 . S
C615 H603 0.929 . S
C615 C609 1.390 . S
C615 C612 1.386 . S
C616 C611 1.490 . S
C616 C618 1.395 . S
C616 C619 1.403 . S
H617 C623 0.930 . S
C618 H604 0.930 . S
C618 C616 1.395 . S
C618 C621 1.403 . S
C619 C616 1.403 . S
C619 C620 1.524 . S
C619 C623 1.400 . S
C620 H605 0.960 . S
C620 H606 0.960 . S
C620 H607 0.960 . S
C620 C619 1.524 . S
C621 C618 1.403 . S
C621 C622 1.392 . S
C621 C625 1.495 . S
C622 C621 1.392 . S
C622 C623 1.385 . S
C622 C624 1.478 . S
C623 H617 0.930 . S
C623 C619 1.400 . S
C623 C622 1.385 . S
C624 C622 1.478 . S
C624 C626 1.381 . S
C624 C630 1.383 . S
C625 C621 1.495 . S
C625 H631 0.959 . S
C625 H632 0.961 . S
C625 H633 0.960 . S
C626 C624 1.381 . S
C626 C627 1.394 . S
C626 H634 0.930 . S
C627 C626 1.394 . S
C627 C628 1.383 . S
C627 H635 0.929 . S
C628 C627 1.383 . S
C628 C629 1.377 . S
C629 H613 0.930 . S
C629 C628 1.377 . S
C629 C630 1.379 . S
C630 H614 0.931 . S
C630 C624 1.383 . S
C630 C629 1.379 . S
H631 C625 0.959 . S
H632 C625 0.961 . S
H633 C625 0.960 . S
H634 C626 0.930 . S
H635 C627 0.929 . S
H636 C644 0.929 . S
H637 C646 0.930 . S
H638 C648 0.930 . S
H639 C651 0.929 . S
H640 C654 0.930 . S
H641 C656 0.960 . S
H642 C656 0.960 . S
H643 C656 0.960 . S
C644 H636 0.929 . S
C644 C645 1.377 . S
C644 C646 1.384 . S
C645 C644 1.377 . S
C645 C651 1.390 . S
C646 H637 0.930 . S
C646 C644 1.384 . S
C646 C647 1.372 . S
C647 C646 1.372 . S
C647 C648 1.400 . S
C647 C652 1.490 . S
C648 H638 0.930 . S
C648 C647 1.400 . S
C648 C651 1.386 . S
H649 C665 0.930 . S
H650 C666 0.931 . S
C651 H639 0.929 . S
C651 C645 1.390 . S
C651 C648 1.386 . S
C652 C647 1.490 . S
C652 C654 1.395 . S
C652 C655 1.403 . S
H653 C659 0.930 . S
C654 H640 0.930 . S
C654 C652 1.395 . S
C654 C657 1.403 . S
C655 C652 1.403 . S
C655 C656 1.524 . S
C655 C659 1.400 . S
C656 H641 0.960 . S
C656 H642 0.960 . S
C656 H643 0.960 . S
C656 C655 1.524 . S
C657 C654 1.403 . S
C657 C658 1.392 . S
C657 C661 1.495 . S
C658 C657 1.392 . S
C658 C659 1.385 . S
C658 C660 1.478 . S
C659 H653 0.930 . S
C659 C655 1.400 . S
C659 C658 1.385 . S
C660 C658 1.478 . S
C660 C662 1.381 . S
C660 C666 1.383 . S
C661 C657 1.495 . S
C661 H667 0.959 . S
C661 H668 0.961 . S
C661 H669 0.960 . S
C662 C660 1.381 . S
C662 C663 1.394 . S
C662 H670 0.930 . S
C663 C662 1.394 . S
C663 C664 1.383 . S
C663 H671 0.929 . S
C664 C663 1.383 . S
C664 C665 1.377 . S
C665 H649 0.930 . S
C665 C664 1.377 . S
C665 C666 1.379 . S
C666 H650 0.931 . S
C666 C660 1.383 . S
C666 C665 1.379 . S
H667 C661 0.959 . S
H668 C661 0.961 . S
H669 C661 0.960 . S
H670 C662 0.930 . S
H671 C663 0.929 . S
H672 C680 0.929 . S
H673 C682 0.930 . S
H674 C684 0.930 . S
H675 C687 0.929 . S
H676 C690 0.930 . S
H677 C692 0.960 . S
H678 C692 0.953 1_554 S
H679 C692 0.960 . S
C680 H672 0.929 . S
C680 C681 1.377 . S
C680 C682 1.384 . S
C681 C680 1.377 . S
C681 C687 1.390 1_554 S
C682 H673 0.930 . S
C682 C680 1.384 . S
C682 C683 1.372 . S
C683 C682 1.372 . S
C683 C684 1.400 1_554 S
C683 C688 1.490 . S
C684 H674 0.930 . S
C684 C683 1.400 1_556 S
C684 C687 1.386 . S
H685 C701 0.930 . S
H686 C702 0.931 . S
C687 H675 0.929 . S
C687 C681 1.390 1_556 S
C687 C684 1.386 . S
C688 C683 1.490 . S
C688 C690 1.395 . S
C688 C691 1.403 1_554 S
H689 C695 0.930 . S
C690 H676 0.930 . S
C690 C688 1.395 . S
C690 C693 1.403 . S
C691 C688 1.403 1_556 S
C691 C692 1.524 . S
C691 C695 1.400 . S
C692 H677 0.960 . S
C692 H678 0.953 1_556 S
C692 H679 0.960 . S
C692 C691 1.524 . S
C693 C690 1.403 . S
C693 C694 1.392 1_554 S
C693 C697 1.495 . S
C694 C693 1.392 1_556 S
C694 C695 1.385 . S
C694 C696 1.478 . S
C695 H689 0.930 . S
C695 C691 1.400 . S
C695 C694 1.385 . S
C696 C694 1.478 . S
C696 C698 1.381 1_556 S
C696 C702 1.383 . S
C697 C693 1.495 . S
C697 H703 0.959 . S
C697 H704 0.961 . S
C697 H705 0.960 . S
C698 C696 1.381 1_554 S
C698 C699 1.394 . S
C698 H706 0.930 . S
C699 C698 1.394 . S
C699 C700 1.383 1_554 S
C699 H707 0.929 . S
C700 C699 1.383 1_556 S
C700 C701 1.377 . S
C701 H685 0.930 . S
C701 C700 1.377 . S
C701 C702 1.379 . S
C702 H686 0.931 . S
C702 C696 1.383 . S
C702 C701 1.379 . S
H703 C697 0.959 . S
H704 C697 0.961 . S
H705 C697 0.960 . S
H706 C698 0.930 . S
H707 C699 0.929 . S
H708 C716 0.929 . S
H709 C718 0.930 . S
H710 C720 0.930 . S
H711 C723 0.929 . S
H712 C726 0.930 . S
H713 C728 0.960 . S
H714 C728 0.960 . S
H715 C728 0.960 . S
C716 H708 0.929 . S
C716 C717 1.377 . S
C716 C718 1.384 . S
C717 C716 1.377 . S
C717 C723 1.390 . S
C718 H709 0.930 . S
C718 C716 1.384 . S
C718 C719 1.372 . S
C719 C718 1.372 . S
C719 C720 1.400 . S
C719 C724 1.490 . S
C720 H710 0.930 . S
C720 C719 1.400 . S
C720 C723 1.386 . S
H721 C737 0.930 . S
H722 C738 0.931 . S
C723 H711 0.929 . S
C723 C717 1.390 . S
C723 C720 1.386 . S
C724 C719 1.490 . S
C724 C726 1.395 . S
C724 C727 1.403 . S
H725 C731 0.930 . S
C726 H712 0.930 . S
C726 C724 1.395 . S
C726 C729 1.403 . S
C727 C724 1.403 . S
C727 C728 1.524 . S
C727 C731 1.400 . S
C728 H713 0.960 . S
C728 H714 0.960 . S
C728 H715 0.960 . S
C728 C727 1.524 . S
C729 C726 1.403 . S
C729 C730 1.392 . S
C729 C733 1.495 . S
C730 C729 1.392 . S
C730 C731 1.385 . S
C730 C732 1.478 . S
C731 H725 0.930 . S
C731 C727 1.400 . S
C731 C730 1.385 . S
C732 C730 1.478 . S
C732 C734 1.381 . S
C732 C738 1.383 . S
C733 C729 1.495 . S
C733 H739 0.959 . S
C733 H740 0.961 . S
C733 H741 0.960 . S
C734 C732 1.381 . S
C734 C735 1.394 . S
C734 H742 0.930 . S
C735 C734 1.394 . S
C735 C736 1.383 . S
C735 H743 0.929 . S
C736 C735 1.383 . S
C736 C737 1.377 . S
C737 H721 0.930 . S
C737 C736 1.377 . S
C737 C738 1.379 . S
C738 H722 0.931 . S
C738 C732 1.383 . S
C738 C737 1.379 . S
H739 C733 0.959 . S
H740 C733 0.961 . S
H741 C733 0.960 . S
H742 C734 0.930 . S
H743 C735 0.929 . S
H744 C752 0.929 . S
H745 C754 0.930 . S
H746 C756 0.930 . S
H747 C759 0.929 . S
H748 C762 0.930 . S
H749 C764 0.960 . S
H750 C764 0.960 . S
H751 C764 0.960 . S
C752 H744 0.929 . S
C752 C753 1.377 . S
C752 C754 1.384 . S
C753 C752 1.377 . S
C753 C759 1.390 . S
C754 H745 0.930 . S
C754 C752 1.384 . S
C754 C755 1.372 . S
C755 C754 1.372 . S
C755 C756 1.400 . S
C755 C760 1.490 . S
C756 H746 0.930 . S
C756 C755 1.400 . S
C756 C759 1.386 . S
H757 C773 0.930 . S
H758 C774 0.931 . S
C759 H747 0.929 . S
C759 C753 1.390 . S
C759 C756 1.386 . S
C760 C755 1.490 . S
C760 C762 1.395 . S
C760 C763 1.403 . S
H761 C767 0.930 . S
C762 H748 0.930 . S
C762 C760 1.395 . S
C762 C765 1.403 . S
C763 C760 1.403 . S
C763 C764 1.524 . S
C763 C767 1.400 . S
C764 H749 0.960 . S
C764 H750 0.960 . S
C764 H751 0.960 . S
C764 C763 1.524 . S
C765 C762 1.403 . S
C765 C766 1.392 . S
C765 C769 1.495 . S
C766 C765 1.392 . S
C766 C767 1.385 . S
C766 C768 1.478 . S
C767 H761 0.930 . S
C767 C763 1.400 . S
C767 C766 1.385 . S
C768 C766 1.478 . S
C768 C770 1.381 . S
C768 C774 1.383 . S
C769 C765 1.495 . S
C769 H775 0.959 . S
C769 H776 0.961 . S
C769 H777 0.960 . S
C770 C768 1.381 . S
C770 C771 1.394 . S
C770 H778 0.930 . S
C771 C770 1.394 . S
C771 C772 1.383 . S
C771 H779 0.929 . S
C772 C771 1.383 . S
C772 C773 1.377 . S
C773 H757 0.930 . S
C773 C772 1.377 . S
C773 C774 1.379 . S
C774 H758 0.931 . S
C774 C768 1.383 . S
C774 C773 1.379 . S
H775 C769 0.959 . S
H776 C769 0.961 . S
H777 C769 0.960 . S
H778 C770 0.930 . S
H779 C771 0.929 . S
H780 C788 0.929 . S
H781 C790 0.930 . S
H782 C792 0.930 . S
H783 C795 0.929 . S
H784 C798 0.930 . S
H785 C800 0.960 . S
H786 C800 0.960 . S
H787 C800 0.960 . S
C788 H780 0.929 . S
C788 C789 1.377 1_556 S
C788 C790 1.384 . S
C789 C788 1.377 1_554 S
C789 C795 1.390 . S
C790 H781 0.930 . S
C790 C788 1.384 . S
C790 C791 1.372 1_556 S
C791 C790 1.372 1_554 S
C791 C792 1.400 . S
C791 C796 1.490 . S
C792 H782 0.930 . S
C792 C791 1.400 . S
C792 C795 1.386 . S
H793 C809 0.922 1_554 S
H794 C810 0.931 . S
C795 H783 0.929 . S
C795 C789 1.390 . S
C795 C792 1.386 . S
C796 C791 1.490 . S
C796 C798 1.395 1_554 S
C796 C799 1.403 . S
H797 C803 0.930 . S
C798 H784 0.930 . S
C798 C796 1.395 1_556 S
C798 C801 1.403 . S
C799 C796 1.403 . S
C799 C800 1.524 . S
C799 C803 1.400 . S
C800 H785 0.960 . S
C800 H786 0.960 . S
C800 H787 0.960 . S
C800 C799 1.524 . S
C801 C798 1.403 . S
C801 C802 1.392 . S
C801 C805 1.495 . S
C802 C801 1.392 . S
C802 C803 1.385 1_556 S
C802 C804 1.478 . S
C803 H797 0.930 . S
C803 C799 1.400 . S
C803 C802 1.385 1_554 S
C804 C802 1.478 . S
C804 C806 1.381 . S
C804 C810 1.383 1_556 S
C805 C801 1.495 . S
C805 H811 0.959 . S
C805 H812 0.961 . S
C805 H813 0.960 . S
C806 C804 1.381 . S
C806 C807 1.394 . S
C806 H814 0.930 . S
C807 C806 1.394 . S
C807 C808 1.383 . S
C807 H815 0.929 . S
C808 C807 1.383 . S
C808 C809 1.386 . S
C809 H793 0.922 1_556 S
C809 C808 1.386 . S
C809 C810 1.378 1_556 S
C810 H794 0.931 . S
C810 C804 1.383 1_554 S
C810 C809 1.378 1_554 S
H811 C805 0.959 . S
H812 C805 0.961 . S
H813 C805 0.960 . S
H814 C806 0.930 . S
H815 C807 0.929 . S
H816 C824 0.929 . S
H817 C826 0.930 . S
H818 C828 0.930 . S
H819 C831 0.929 . S
H820 C834 0.930 . S
H821 C836 0.960 . S
H822 C836 0.960 . S
H823 C836 0.960 . S
C824 H816 0.929 . S
C824 C825 1.377 . S
C824 C826 1.384 . S
C825 C824 1.377 . S
C825 C831 1.390 . S
C826 H817 0.930 . S
C826 C824 1.384 . S
C826 C827 1.372 . S
C827 C826 1.372 . S
C827 C828 1.400 . S
C827 C832 1.490 . S
C828 H818 0.930 . S
C828 C827 1.400 . S
C828 C831 1.386 . S
H829 C845 0.930 . S
H830 C846 0.931 . S
C831 H819 0.929 . S
C831 C825 1.390 . S
C831 C828 1.386 . S
C832 C827 1.490 . S
C832 C834 1.395 1_545 S
C832 C835 1.403 . S
H833 C839 0.930 . S
C834 H820 0.930 . S
C834 C832 1.395 1_565 S
C834 C837 1.403 . S
C835 C832 1.403 . S
C835 C836 1.524 . S
C835 C839 1.400 . S
C836 H821 0.960 . S
C836 H822 0.960 . S
C836 H823 0.960 . S
C836 C835 1.524 . S
C837 C834 1.403 . S
C837 C838 1.392 . S
C837 C841 1.495 . S
C838 C837 1.392 . S
C838 C839 1.385 1_565 S
C838 C840 1.478 . S
C839 H833 0.930 . S
C839 C835 1.400 . S
C839 C838 1.385 1_545 S
C840 C838 1.478 . S
C840 C842 1.381 . S
C840 C846 1.383 . S
C841 C837 1.495 . S
C841 H847 0.959 . S
C841 H848 0.961 . S
C841 H849 0.960 . S
C842 C840 1.381 . S
C842 C843 1.394 . S
C842 H850 0.930 . S
C843 C842 1.394 . S
C843 C844 1.383 . S
C843 H851 0.929 . S
C844 C843 1.383 . S
C844 C845 1.377 . S
C845 H829 0.930 . S
C845 C844 1.377 . S
C845 C846 1.379 . S
C846 H830 0.931 . S
C846 C840 1.383 . S
C846 C845 1.379 . S
H847 C841 0.959 . S
H848 C841 0.961 . S
H849 C841 0.960 . S
H850 C842 0.930 . S
H851 C843 0.929 . S
H852 C860 0.929 . S
H853 C862 0.930 . S
H854 C864 0.930 . S
H855 C867 0.929 . S
H856 C870 0.930 . S
H857 C872 0.960 . S
H858 C872 0.960 . S
H859 C872 0.960 . S
C860 H852 0.929 . S
C860 C861 1.377 . S
C860 C862 1.384 . S
C861 C860 1.377 . S
C861 C867 1.390 . S
C862 H853 0.930 . S
C862 C860 1.384 . S
C862 C863 1.372 . S
C863 C862 1.372 . S
C863 C864 1.400 . S
C863 C868 1.490 . S
C864 H854 0.930 . S
C864 C863 1.400 . S
C864 C867 1.386 . S
H865 C881 0.930 . S
H866 C882 0.931 . S
C867 H855 0.929 . S
C867 C861 1.390 . S
C867 C864 1.386 . S
C868 C863 1.490 . S
C868 C870 1.395 . S
C868 C871 1.403 . S
H869 C875 0.930 . S
C870 H856 0.930 . S
C870 C868 1.395 . S
C870 C873 1.403 . S
C871 C868 1.403 . S
C871 C872 1.524 . S
C871 C875 1.400 . S
C872 H857 0.960 . S
C872 H858 0.960 . S
C872 H859 0.960 . S
C872 C871 1.524 . S
C873 C870 1.403 . S
C873 C874 1.392 . S
C873 C877 1.495 . S
C874 C873 1.392 . S
C874 C875 1.385 . S
C874 C876 1.478 . S
C875 H869 0.930 . S
C875 C871 1.400 . S
C875 C874 1.385 . S
C876 C874 1.478 . S
C876 C878 1.381 . S
C876 C882 1.383 . S
C877 C873 1.495 . S
C877 H883 0.959 . S
C877 H884 0.961 . S
C877 H885 0.960 . S
C878 C876 1.381 . S
C878 C879 1.394 . S
C878 H886 0.930 . S
C879 C878 1.394 . S
C879 C880 1.383 . S
C879 H887 0.929 . S
C880 C879 1.383 . S
C880 C881 1.377 . S
C881 H865 0.930 . S
C881 C880 1.377 . S
C881 C882 1.379 . S
C882 H866 0.931 . S
C882 C876 1.383 . S
C882 C881 1.379 . S
H883 C877 0.959 . S
H884 C877 0.961 . S
H885 C877 0.960 . S
H886 C878 0.930 . S
H887 C879 0.929 . S
H888 C896 0.929 . S
H889 C898 0.930 . S
H890 C900 0.930 . S
H891 C903 0.929 . S
H892 C906 0.930 . S
H893 C908 0.960 . S
H894 C908 0.960 . S
H895 C908 0.960 . S
C896 H888 0.929 . S
C896 C897 1.377 1_655 S
C896 C898 1.384 . S
C897 C896 1.377 1_455 S
C897 C903 1.390 . S
C898 H889 0.930 . S
C898 C896 1.384 . S
C898 C899 1.372 1_655 S
C899 C898 1.372 1_455 S
C899 C900 1.400 . S
C899 C904 1.490 . S
C900 H890 0.930 . S
C900 C899 1.400 . S
C900 C903 1.386 . S
H901 C917 0.930 1_455 S
H902 C918 0.931 1_455 S
C903 H891 0.929 . S
C903 C897 1.390 . S
C903 C900 1.386 . S
C904 C899 1.490 . S
C904 C906 1.395 1_455 S
C904 C907 1.403 . S
H905 C911 0.930 . S
C906 H892 0.930 . S
C906 C904 1.395 1_655 S
C906 C909 1.403 . S
C907 C904 1.403 . S
C907 C908 1.524 . S
C907 C911 1.400 . S
C908 H893 0.960 . S
C908 H894 0.960 . S
C908 H895 0.960 . S
C908 C907 1.524 . S
C909 C906 1.403 . S
C909 C910 1.392 . S
C909 C913 1.495 . S
C910 C909 1.392 . S
C910 C911 1.385 1_655 S
C910 C912 1.478 . S
C911 H905 0.930 . S
C911 C907 1.400 . S
C911 C910 1.385 1_455 S
C912 C910 1.478 . S
C912 C914 1.381 . S
C912 C918 1.383 . S
C913 C909 1.495 . S
C913 H919 0.959 . S
C913 H920 0.961 . S
C913 H921 0.960 . S
C914 C912 1.381 . S
C914 C915 1.394 . S
C914 H922 0.930 . S
C915 C914 1.394 . S
C915 C916 1.383 . S
C915 H923 0.929 . S
C916 C915 1.383 . S
C916 C917 1.377 . S
C917 H901 0.930 1_655 S
C917 C916 1.377 . S
C917 C918 1.379 . S
C918 H902 0.931 1_655 S
C918 C912 1.383 . S
C918 C917 1.379 . S
H919 C913 0.959 . S
H920 C913 0.961 . S
H921 C913 0.960 . S
H922 C914 0.930 . S
H923 C915 0.929 . S
H924 C932 0.929 . S
H925 C934 0.930 . S
H926 C936 0.930 . S
H927 C939 0.929 . S
H928 C942 0.930 . S
H929 C944 0.960 . S
H930 C944 0.960 . S
H931 C944 0.960 . S
C932 H924 0.929 . S
C932 C933 1.377 . S
C932 C934 1.384 . S
C933 C932 1.377 . S
C933 C939 1.390 . S
C934 H925 0.930 . S
C934 C932 1.384 . S
C934 C935 1.372 . S
C935 C934 1.372 . S
C935 C936 1.400 . S
C935 C940 1.490 . S
C936 H926 0.930 . S
C936 C935 1.400 . S
C936 C939 1.386 . S
H937 C953 0.930 . S
H938 C954 0.953 . S
C939 H927 0.929 . S
C939 C933 1.390 . S
C939 C936 1.386 . S
C940 C935 1.490 . S
C940 C942 1.395 . S
C940 C943 1.403 1_565 S
H941 C947 0.930 . S
C942 H928 0.930 . S
C942 C940 1.395 . S
C942 C945 1.403 . S
C943 C940 1.403 1_545 S
C943 C944 1.524 . S
C943 C947 1.400 . S
C944 H929 0.960 . S
C944 H930 0.960 . S
C944 H931 0.960 . S
C944 C943 1.524 . S
C945 C942 1.403 . S
C945 C946 1.376 1_565 S
C945 C949 1.495 . S
C946 C945 1.376 1_545 S
C946 C947 1.398 . S
C946 C948 1.483 . S
C947 H941 0.930 . S
C947 C943 1.400 . S
C947 C946 1.398 . S
C948 C946 1.483 . S
C948 C950 1.381 . S
C948 C954 1.383 . S
C949 C945 1.495 . S
C949 H955 0.959 . S
C949 H956 0.961 . S
C949 H957 0.960 . S
C950 C948 1.381 . S
C950 C951 1.394 . S
C950 H958 0.930 . S
C951 C950 1.394 . S
C951 C952 1.383 . S
C951 H959 0.929 . S
C952 C951 1.383 . S
C952 C953 1.377 . S
C953 H937 0.930 . S
C953 C952 1.377 . S
C953 C954 1.379 . S
C954 H938 0.953 . S
C954 C948 1.383 . S
C954 C953 1.379 . S
H955 C949 0.959 . S
H956 C949 0.961 . S
H957 C949 0.960 . S
H958 C950 0.930 . S
H959 C951 0.929 . S
H960 C968 0.929 . S
H961 C970 0.930 . S
H962 C972 0.930 . S
H963 C975 0.929 . S
H964 C978 0.930 . S
H965 C980 0.960 . S
H966 C980 0.960 . S
H967 C980 0.960 . S
C968 H960 0.929 . S
C968 C969 1.377 . S
C968 C970 1.384 . S
C969 C968 1.377 . S
C969 C975 1.390 . S
C970 H961 0.930 . S
C970 C968 1.384 . S
C970 C971 1.372 . S
C971 C970 1.372 . S
C971 C972 1.400 . S
C971 C976 1.490 . S
C972 H962 0.930 . S
C972 C971 1.400 . S
C972 C975 1.386 . S
H973 C989 0.930 . S
H974 C990 0.931 . S
C975 H963 0.929 . S
C975 C969 1.390 . S
C975 C972 1.386 . S
C976 C971 1.490 . S
C976 C978 1.395 . S
C976 C979 1.403 . S
H977 C983 0.930 . S
C978 H964 0.930 . S
C978 C976 1.395 . S
C978 C981 1.403 . S
C979 C976 1.403 . S
C979 C980 1.524 . S
C979 C983 1.400 . S
C980 H965 0.960 . S
C980 H966 0.960 . S
C980 H967 0.960 . S
C980 C979 1.524 . S
C981 C978 1.403 . S
C981 C982 1.392 . S
C981 C985 1.495 . S
C982 C981 1.392 . S
C982 C983 1.385 . S
C982 C984 1.478 . S
C983 H977 0.930 . S
C983 C979 1.400 . S
C983 C982 1.385 . S
C984 C982 1.478 . S
C984 C986 1.381 . S
C984 C990 1.383 . S
C985 C981 1.495 . S
C985 H991 0.959 . S
C985 H992 0.961 . S
C985 H993 0.960 . S
C986 C984 1.381 . S
C986 C987 1.394 . S
C986 H994 0.930 . S
C987 C986 1.394 . S
C987 C988 1.383 . S
C987 H995 0.929 . S
C988 C987 1.383 . S
C988 C989 1.377 . S
C989 H973 0.930 . S
C989 C988 1.377 . S
C989 C990 1.379 . S
C990 H974 0.931 . S
C990 C984 1.383 . S
C990 C989 1.379 . S
H991 C985 0.959 . S
H992 C985 0.961 . S
H993 C985 0.960 . S
H994 C986 0.930 . S
H995 C987 0.929 . S
H996 C1004 0.929 . S
H997 C1006 0.930 . S
H998 C1008 0.930 . S
H999 C1011 0.929 1_455 S
H1000 C1014 0.930 . S
H1001 C1016 0.960 . S
H1002 C1016 0.960 . S
H1003 C1016 0.960 . S
C1004 H996 0.929 . S
C1004 C1005 1.377 . S
C1004 C1006 1.384 . S
C1005 C1004 1.377 . S
C1005 C1011 1.390 . S
C1006 H997 0.930 . S
C1006 C1004 1.384 . S
C1006 C1007 1.372 . S
C1007 C1006 1.372 . S
C1007 C1008 1.400 1_655 S
C1007 C1012 1.490 . S
C1008 H998 0.930 . S
C1008 C1007 1.400 1_455 S
C1008 C1011 1.386 1_455 S
H1009 C1025 0.930 . S
H1010 C1026 0.931 . S
C1011 H999 0.929 1_655 S
C1011 C1005 1.390 . S
C1011 C1008 1.386 1_655 S
C1012 C1007 1.490 . S
C1012 C1014 1.395 1_655 S
C1012 C1015 1.403 . S
H1013 C1019 0.930 . S
C1014 H1000 0.930 . S
C1014 C1012 1.395 1_455 S
C1014 C1017 1.403 . S
C1015 C1012 1.403 . S
C1015 C1016 1.524 . S
C1015 C1019 1.400 . S
C1016 H1001 0.960 . S
C1016 H1002 0.960 . S
C1016 H1003 0.960 . S
C1016 C1015 1.524 . S
C1017 C1014 1.403 . S
C1017 C1018 1.392 . S
C1017 C1021 1.495 . S
C1018 C1017 1.392 . S
C1018 C1019 1.385 1_455 S
C1018 C1020 1.478 . S
C1019 H1013 0.930 . S
C1019 C1015 1.400 . S
C1019 C1018 1.385 1_655 S
C1020 C1018 1.478 . S
C1020 C1022 1.381 1_455 S
C1020 C1026 1.383 . S
C1021 C1017 1.495 . S
C1021 H1027 0.959 . S
C1021 H1028 0.961 . S
C1021 H1029 0.960 . S
C1022 C1020 1.381 1_655 S
C1022 C1023 1.395 . S
C1022 H1030 0.930 . S
C1023 C1022 1.395 . S
C1023 C1024 1.377 1_655 S
C1023 H1031 0.934 . S
C1024 C1023 1.377 1_455 S
C1024 C1025 1.377 . S
C1025 H1009 0.930 . S
C1025 C1024 1.377 . S
C1025 C1026 1.379 . S
C1026 H1010 0.931 . S
C1026 C1020 1.383 . S
C1026 C1025 1.379 . S
H1027 C1021 0.959 . S
H1028 C1021 0.961 . S
H1029 C1021 0.960 . S
H1030 C1022 0.930 . S
H1031 C1023 0.934 . S
C177 C8 1.876 . S
C196 C120 1.867 . S
C213 C22 1.876 . S
C232 C134 1.876 . S
C249 C148 1.876 . S
C268 C36 1.876 . S
C285 C162 1.875 . S
C304 C50 1.871 . S
C321 C92 1.875 . S
C340 C64 1.877 . S
C357 C106 1.877 . S
C376 C78 1.869 . S
C393 C7 1.527 . S
C412 C49 1.539 . S
C429 C63 1.523 . S
C448 C21 1.552 . S
C465 C77 1.520 . S
C484 C35 1.545 . S
C501 C91 1.522 . S
C520 C133 1.552 . S
C537 C147 1.524 . S
C556 C105 1.549 . S
C573 C119 1.528 . S
C592 C161 1.496 . S
C609 C87 0.645 . S
C628 C3 0.679 . S
C645 C17 0.649 . S
C664 C101 0.666 . S
C681 C115 0.647 . S
C700 C31 0.627 . S
C717 C129 0.646 . S
C736 C45 0.678 . S
C753 C59 0.647 . S
C772 C143 0.631 . S
C789 C157 0.637 . S
C808 C73 0.660 . S
C825 C9 0.891 . S
C844 C107 0.920 . S
C861 C121 0.873 . S
C880 C23 0.855 . S
C897 C135 0.884 . S
C916 C37 0.914 . S
C933 C51 0.873 . S
C952 C149 0.838 . S
C969 C163 0.873 . S
C988 C65 0.839 . S
C1005 C93 0.890 . S
C1024 C79 0.905 . S
