# Generated by pormake.
# Topology fee, (5)-cn, num edge types: 1
# Building blocks:
#     Node 0, Type 0, BuildingBlock: XOMCOT_clean_sbu_0, # of connection points: 5
#     Node 1, Type 0, BuildingBlock: XOMCOT_clean_sbu_0, # of connection points: 5
#     Node 2, Type 0, BuildingBlock: XOMCOT_clean_sbu_0, # of connection points: 5
#     Node 3, Type 0, BuildingBlock: XOMCOT_clean_sbu_0, # of connection points: 5
#     Edge 4, Type (0, 0), BuildingBlock: FUNLAD_clean_linker_0, # of connection points: 2
#     Edge 5, Type (0, 0), BuildingBlock: FUNLAD_clean_linker_0, # of connection points: 2
#     Edge 6, Type (0, 0), BuildingBlock: FUNLAD_clean_linker_0, # of connection points: 2
#     Edge 7, Type (0, 0), BuildingBlock: FUNLAD_clean_linker_0, # of connection points: 2
#     Edge 8, Type (0, 0), BuildingBlock: FUNLAD_clean_linker_0, # of connection points: 2
#     Edge 9, Type (0, 0), BuildingBlock: FUNLAD_clean_linker_0, # of connection points: 2
#     Edge 10, Type (0, 0), BuildingBlock: FUNLAD_clean_linker_0, # of connection points: 2
#     Edge 11, Type (0, 0), BuildingBlock: FUNLAD_clean_linker_0, # of connection points: 2
#     Edge 12, Type (0, 0), BuildingBlock: FUNLAD_clean_linker_0, # of connection points: 2
#     Edge 13, Type (0, 0), BuildingBlock: FUNLAD_clean_linker_0, # of connection points: 2
# Relax obj value: 0.155
# Max RMSD: 0.169
# Mean RMSD: 0.152
data_MOF--net-fee--node1-XOMCOT_clean_sbu_0--edge1-FUNLAD_clean_linker_0
_symmetry_space_group_name_H-M    P1
_symmetry_Int_Tables_number       1
_symmetry_cell_setting            triclinic
loop_
_symmetry_equiv_pos_as_xyz
'x, y, z'
_cell_length_a     44.292233
_cell_length_b     44.245588
_cell_length_c     20.152769
_cell_angle_alpha  96.121149
_cell_angle_beta   96.557559
_cell_angle_gamma 89.727269
loop_
_atom_site_label
_atom_site_type_symbol
_atom_site_fract_x
_atom_site_fract_y
_atom_site_fract_z
_atom_type_partial_charge
Co0 Co 0.18546 0.5381 0.09843 0.0
C1 C 0.18941 0.54282 0.24781 0.0
C2 C 0.20211 0.58435 0.21165 0.0
C3 C 0.20322 0.58905 0.28037 0.0
N4 N 0.19356 0.55539 0.19118 0.0
N5 N 0.19506 0.56305 0.30329 0.0
H6 H 0.18138 0.51977 0.24801 0.0
H7 H 0.2065 0.60121 0.17882 0.0
C8 C 0.24195 0.56139 0.04687 0.0
O9 O 0.24832 0.53415 0.01947 0.0
N10 N 0.17652 0.52135 1.00402 0.0
C11 C 0.15799 0.49747 0.98051 0.0
C12 C 0.15639 0.49311 0.91175 0.0
C13 C 0.18454 0.53212 0.94785 0.0
N14 N 0.17323 0.51476 0.89107 0.0
C15 C 0.20481 0.47637 0.10232 0.0
C16 C 0.26501 0.48867 0.14921 0.0
C17 C 0.25602 0.45851 0.1278 0.0
C18 C 0.22523 0.45243 0.10666 0.0
C19 C 0.24356 0.51197 0.14495 0.0
N20 N 0.21444 0.50582 0.11639 0.0
H21 H 0.18124 0.47106 0.08704 0.0
H22 H 0.2507 0.53507 0.16219 0.0
H23 H 0.14544 0.48441 1.01059 0.0
H24 H 0.19793 0.55242 0.94787 0.0
O25 O 0.14934 0.51892 0.11988 0.0
O26 O 0.1512 0.56502 0.08664 0.0
O27 O 0.21787 0.56593 0.07575 0.0
C28 C 0.13511 0.54362 0.10566 0.0
H29 H 0.20938 0.61019 0.31097 0.0
H30 H 0.14308 0.47578 0.87932 0.0
H31 H 0.28839 0.49422 0.16838 0.0
H32 H 0.21707 0.42943 0.0913 0.0
Co33 Co 0.45481 0.19179 0.07149 0.0
C34 C 0.45399 0.19604 0.21794 0.0
C35 C 0.41038 0.20597 0.16693 0.0
C36 C 0.40802 0.20763 0.23467 0.0
N37 N 0.43921 0.19892 0.15683 0.0
N38 N 0.43543 0.20129 0.26653 0.0
H39 H 0.47773 0.19006 0.22642 0.0
H40 H 0.39216 0.20891 0.12769 0.0
C41 C 0.43231 0.2476 1.00847 0.0
O42 O 0.4591 0.25081 0.98782 0.0
N43 N 0.46965 0.1836 0.98407 0.0
C44 C 0.49405 0.16696 0.96871 0.0
C45 C 0.49466 0.16396 0.90036 0.0
C46 C 0.45482 0.18871 0.92401 0.0
N47 N 0.47002 0.17781 0.8723 0.0
C48 C 0.51652 0.21418 0.09741 0.0
C49 C 0.50205 0.27365 0.13738 0.0
C50 C 0.53147 0.26701 0.12113 0.0
C51 C 0.53904 0.23657 0.10472 0.0
C52 C 0.4802 0.25042 0.1291 0.0
N53 N 0.48697 0.22173 0.10278 0.0
H54 H 0.52283 0.19093 0.08578 0.0
H55 H 0.45729 0.25601 0.13939 0.0
H56 H 0.50967 0.15617 1.00381 0.0
H57 H 0.43264 0.19898 0.91783 0.0
O58 O 0.4749 0.15585 0.10022 0.0
O59 O 0.42803 0.157 0.04789 0.0
O60 O 0.42668 0.22449 0.0383 0.0
C61 C 0.4501 0.1412 0.0751 0.0
H62 H 0.38748 0.21206 0.25835 0.0
H63 H 0.51182 0.15219 0.87357 0.0
H64 H 0.49544 0.29676 0.15224 0.0
H65 H 0.56198 0.23025 0.09558 0.0
Co66 Co 0.80544 0.52929 0.11923 0.0
C67 C 0.8028 0.53487 0.97262 0.0
C68 C 0.79399 0.5771 0.0299 0.0
C69 C 0.79354 0.58209 0.96366 0.0
N70 N 0.79968 0.54753 0.03555 0.0
N71 N 0.79924 0.55562 0.92749 0.0
H72 H 0.80851 0.51126 0.96066 0.0
H73 H 0.79105 0.59407 0.07133 0.0
C74 C 0.75003 0.55276 0.18098 0.0
O75 O 0.74476 0.52532 0.19658 0.0
N76 N 0.8123 0.51165 0.20508 0.0
C77 C 0.82833 0.48631 0.21671 0.0
C78 C 0.82971 0.48211 0.28347 0.0
C79 C 0.80589 0.52348 0.26686 0.0
N80 N 0.81541 0.50535 0.31509 0.0
C81 C 0.78077 0.46892 0.08418 0.0
C82 C 0.72251 0.48618 0.04031 0.0
C83 C 0.72804 0.45557 0.04947 0.0
C84 C 0.75795 0.44688 0.06879 0.0
C85 C 0.7462 0.50746 0.05587 0.0
N86 N 0.77424 0.49902 0.08329 0.0
H87 H 0.80358 0.46165 0.0977 0.0
H88 H 0.74155 0.531 0.04907 0.0
H89 H 0.8396 0.4722 0.18015 0.0
H90 H 0.79486 0.54503 0.27688 0.0
O91 O 0.84029 0.50812 0.08948 0.0
O92 O 0.84162 0.55402 0.14617 0.0
O93 O 0.77407 0.55821 0.15453 0.0
C94 C 0.85628 0.53169 0.11699 0.0
H95 H 0.78944 0.60372 0.94386 0.0
H96 H 0.84126 0.4638 0.30731 0.0
H97 H 0.7 0.49372 0.02264 0.0
H98 H 0.76359 0.42341 0.07476 0.0
Co99 Co 0.46838 0.8142 0.11372 0.0
C100 C 0.4669 0.81122 0.96678 0.0
C101 C 0.42312 0.802 0.99663 0.0
C102 C 0.4204 0.80089 0.92776 0.0
N103 N 0.45225 0.80829 0.02071 0.0
N104 N 0.44792 0.80674 0.90913 0.0
H105 H 0.49084 0.81666 0.96988 0.0
H106 H 0.40498 0.7992 0.02712 0.0
C107 C 0.44512 0.75799 0.16664 0.0
O108 O 0.47103 0.75516 0.20426 0.0
N109 N 0.48394 0.82071 0.20812 0.0
C110 C 0.5112 0.8322 0.23597 0.0
C111 C 0.51184 0.83523 0.30465 0.0
C112 C 0.46797 0.81825 0.26045 0.0
N113 N 0.48467 0.82631 0.32 0.0
C114 C 0.53038 0.79831 0.09929 0.0
C115 C 0.52162 0.7362 0.07678 0.0
C116 C 0.55142 0.74763 0.09248 0.0
C117 C 0.55556 0.77927 0.09942 0.0
C118 C 0.49709 0.75627 0.07591 0.0
N119 N 0.50169 0.78664 0.09459 0.0
H120 H 0.53414 0.82254 0.1048 0.0
H121 H 0.47445 0.74708 0.06237 0.0
H122 H 0.52922 0.83915 0.2092 0.0
H123 H 0.44435 0.81132 0.25495 0.0
O124 O 0.48665 0.85213 0.09886 0.0
O125 O 0.44034 0.84722 0.12845 0.0
O126 O 0.44118 0.77996 0.13029 0.0
C127 C 0.46141 0.8649 0.11358 0.0
H128 H 0.39957 0.79707 0.89422 0.0
H129 H 0.53091 0.84335 0.34042 0.0
H130 H 0.51704 0.71202 0.06807 0.0
H131 H 0.57808 0.78936 0.10656 0.0
C132 C 0.18344 0.54647 0.80126 0.0
C133 C 0.17808 0.51789 0.82237 0.0
C134 C 0.18727 0.54919 0.73394 0.0
C135 C 0.18594 0.52329 0.68631 0.0
C136 C 0.18139 0.49475 0.70805 0.0
C137 C 0.17733 0.49208 0.77493 0.0
C138 C 0.18991 0.52481 0.61413 0.0
C139 C 0.18318 0.54954 0.58157 0.0
C140 C 0.18631 0.55161 0.50899 0.0
C141 C 0.18322 0.5803 0.48525 0.0
C142 C 0.18587 0.5839 0.41814 0.0
C143 C 0.19165 0.55886 0.37231 0.0
H144 H 0.19361 0.50364 0.47798 0.0
C145 C 0.19426 0.52997 0.39543 0.0
C146 C 0.19164 0.52633 0.46292 0.0
H147 H 0.19875 0.5102 0.3616 0.0
H148 H 0.18423 0.56678 0.83648 0.0
H149 H 0.19166 0.57153 0.71984 0.0
H150 H 0.18065 0.47436 0.67293 0.0
H151 H 0.17389 0.46964 0.78965 0.0
H152 H 0.19771 0.5043 0.58709 0.0
H153 H 0.17473 0.56959 0.6093 0.0
H154 H 0.17879 0.60019 0.5189 0.0
H155 H 0.18304 0.60641 0.40216 0.0
C156 C 0.47335 0.16056 0.75253 0.0
C157 C 0.4619 0.18083 0.80203 0.0
C158 C 0.46677 0.16446 0.6846 0.0
C159 C 0.44863 0.1888 0.6647 0.0
C160 C 0.43638 0.20846 0.71383 0.0
C161 C 0.44311 0.20468 0.78181 0.0
C162 C 0.4416 0.19402 0.5932 0.0
C163 C 0.46092 0.1867 0.54711 0.0
C164 C 0.45438 0.19171 0.4752 0.0
C165 C 0.47078 0.17504 0.42821 0.0
C166 C 0.46494 0.17848 0.35988 0.0
C167 C 0.4426 0.19879 0.33713 0.0
H168 H 0.42036 0.22704 0.48701 0.0
C169 C 0.42676 0.21609 0.38421 0.0
C170 C 0.43267 0.21277 0.45254 0.0
H171 H 0.40993 0.23243 0.36823 0.0
H172 H 0.48726 0.14152 0.7661 0.0
H173 H 0.47563 0.14814 0.64792 0.0
H174 H 0.42212 0.22723 0.69969 0.0
H175 H 0.43413 0.22091 0.81846 0.0
H176 H 0.42016 0.20489 0.57927 0.0
H177 H 0.48243 0.17608 0.56217 0.0
H178 H 0.48782 0.15887 0.44426 0.0
H179 H 0.47737 0.16467 0.32477 0.0
C180 C 0.79694 0.52274 0.81892 0.0
C181 C 0.80217 0.5513 0.85629 0.0
C182 C 0.79916 0.51899 0.74958 0.0
C183 C 0.80666 0.54384 0.71586 0.0
C184 C 0.81233 0.57216 0.7537 0.0
C185 C 0.81009 0.57588 0.82269 0.0
C186 C 0.80955 0.54154 0.64217 0.0
C187 C 0.8002 0.51755 0.59757 0.0
C188 C 0.80399 0.51555 0.52453 0.0
C189 C 0.80526 0.48667 0.48878 0.0
C190 C 0.80895 0.48347 0.42046 0.0
C191 C 0.81107 0.50912 0.38553 0.0
H192 H 0.8038 0.56404 0.5146 0.0
C193 C 0.80903 0.53813 0.42069 0.0
C194 C 0.8056 0.54136 0.4895 0.0
H195 H 0.81051 0.55834 0.39529 0.0
H196 H 0.79075 0.50333 0.84305 0.0
H197 H 0.7952 0.49653 0.72337 0.0
H198 H 0.81848 0.59169 0.72976 0.0
H199 H 0.81494 0.59809 0.84973 0.0
H200 H 0.82007 0.56074 0.62416 0.0
H201 H 0.79017 0.49791 0.61473 0.0
H202 H 0.80369 0.46638 0.51399 0.0
H203 H 0.80979 0.46078 0.39474 0.0
C204 C 0.43777 0.79297 0.78671 0.0
C205 C 0.45497 0.80917 0.84191 0.0
C206 C 0.4438 0.79607 0.72128 0.0
C207 C 0.46706 0.81573 0.70959 0.0
C208 C 0.48472 0.83132 0.76487 0.0
C209 C 0.47872 0.82816 0.83033 0.0
C210 C 0.47408 0.82013 0.64093 0.0
C211 C 0.454 0.81467 0.58544 0.0
C212 C 0.46152 0.81897 0.51719 0.0
C213 C 0.44637 0.80114 0.46169 0.0
C214 C 0.45357 0.80386 0.39687 0.0
C215 C 0.47587 0.82475 0.38619 0.0
H216 H 0.49435 0.85565 0.54749 0.0
C217 C 0.49023 0.84337 0.44156 0.0
C218 C 0.4831 0.84059 0.50633 0.0
H219 H 0.50692 0.86023 0.43491 0.0
H220 H 0.41982 0.7776 0.79409 0.0
H221 H 0.43042 0.78265 0.68045 0.0
H222 H 0.50296 0.84639 0.75738 0.0
H223 H 0.49225 0.84113 0.8717 0.0
H224 H 0.49666 0.82857 0.63651 0.0
H225 H 0.43145 0.80603 0.58917 0.0
H226 H 0.42943 0.78453 0.46865 0.0
H227 H 0.44223 0.78902 0.35545 0.0
C228 C 0.90707 0.55799 0.14414 0.0
C229 C 0.88956 0.53249 0.11549 0.0
C230 C 0.93866 0.5581 0.14313 0.0
C231 C 0.95327 0.53265 0.11321 0.0
C232 C 0.93563 0.50726 0.08485 0.0
C233 C 0.90419 0.5072 0.08569 0.0
C234 C 0.98678 0.53085 0.11275 0.0
C235 C 0.00562 0.55512 0.12014 0.0
C236 C 0.03899 0.55207 0.11806 0.0
C237 C 0.05534 0.57571 0.09687 0.0
C238 C 0.08662 0.57312 0.09293 0.0
C239 C 0.1022 0.54691 0.1107 0.0
H240 H 0.04337 0.50797 0.15661 0.0
C241 C 0.08601 0.5236 0.13353 0.0
C242 C 0.05483 0.52619 0.13752 0.0
H243 H 0.09743 0.50329 0.14849 0.0
H244 H 0.89642 0.57775 0.16782 0.0
H245 H 0.95147 0.57783 0.16707 0.0
H246 H 0.94622 0.48727 0.06187 0.0
H247 H 0.8914 0.48713 0.06332 0.0
H248 H 0.99608 0.50829 0.10259 0.0
H249 H 0.99635 0.57791 0.12398 0.0
H250 H 0.04379 0.59604 0.08233 0.0
H251 H 0.09853 0.59156 0.07558 0.0
C252 C 0.47312 0.91447 0.07328 0.0
C253 C 0.4571 0.89797 0.11389 0.0
C254 C 0.46949 0.94591 0.07421 0.0
C255 C 0.45024 0.96148 0.11687 0.0
C256 C 0.43449 0.94502 0.158 0.0
C257 C 0.43748 0.91344 0.15571 0.0
C258 C 0.44775 0.99504 0.12189 0.0
C259 C 0.44643 0.01052 0.0677 0.0
C260 C 0.44589 0.04418 0.07288 0.0
C261 C 0.42839 0.05876 0.02335 0.0
C262 C 0.42888 0.09047 0.02534 0.0
C263 C 0.4477 0.10801 0.0757 0.0
H264 H 0.47839 0.05114 0.16229 0.0
C265 C 0.46528 0.09342 0.12516 0.0
C266 C 0.46417 0.06181 0.12419 0.0
H267 H 0.48001 0.10646 0.16447 0.0
H268 H 0.4884 0.90305 0.04062 0.0
H269 H 0.48239 0.95812 0.04294 0.0
H270 H 0.41976 0.95661 0.19171 0.0
H271 H 0.42505 0.90123 0.18786 0.0
H272 H 0.44608 0.00718 0.17114 0.0
H273 H 0.44496 0.99816 0.01781 0.0
H274 H 0.41435 0.04559 0.98301 0.0
H275 H 0.41531 0.10118 0.9863 0.0
C276 C 0.38283 0.27076 0.03521 0.0
C277 C 0.41064 0.27323 1.00878 0.0
C278 C 0.3642 0.29607 0.04443 0.0
C279 C 0.37303 0.32456 0.02767 0.0
C280 C 0.39995 0.32663 0.99772 0.0
C281 C 0.41866 0.30129 0.98865 0.0
C282 C 0.35466 0.35241 0.04035 0.0
C283 C 0.33653 0.35624 0.09001 0.0
C284 C 0.31746 0.38355 0.10269 0.0
C285 C 0.29133 0.38059 0.13499 0.0
C286 C 0.27192 0.40519 0.14528 0.0
C287 C 0.27843 0.4335 0.12434 0.0
H288 H 0.34509 0.41573 0.06115 0.0
C289 C 0.30531 0.43694 0.09492 0.0
C290 C 0.32465 0.41222 0.08408 0.0
H291 H 0.31088 0.45848 0.07814 0.0
H292 H 0.37569 0.2494 0.05033 0.0
H293 H 0.34297 0.29315 0.06482 0.0
H294 H 0.40705 0.34816 0.98327 0.0
H295 H 0.43986 0.304 0.96787 0.0
H296 H 0.35677 0.37039 1.00847 0.0
H297 H 0.33473 0.33825 0.12204 0.0
H298 H 0.28546 0.35892 0.15078 0.0
H299 H 0.25155 0.40195 0.16884 0.0
C300 C 0.67561 0.44071 0.07037 0.0
C301 C 0.70282 0.43305 0.04308 0.0
C302 C 0.65331 0.41859 0.0719 0.0
C303 C 0.65786 0.38822 0.04645 0.0
C304 C 0.6844 0.38097 0.01626 0.0
C305 C 0.70666 0.40305 0.01475 0.0
C306 C 0.63574 0.36339 0.05011 0.0
C307 C 0.61489 0.36463 0.09427 0.0
C308 C 0.5938 0.33909 0.10019 0.0
C309 C 0.57784 0.34017 0.15691 0.0
C310 C 0.55775 0.31676 0.16447 0.0
C311 C 0.55338 0.29162 0.11558 0.0
H312 H 0.59953 0.31249 1.00493 0.0
C313 C 0.56909 0.29059 0.05868 0.0
C314 C 0.58883 0.31407 0.0507 0.0
H315 H 0.56552 0.27189 0.01922 0.0
H316 H 0.67198 0.46361 0.09277 0.0
H317 H 0.63275 0.42547 0.0934 0.0
H318 H 0.68832 0.35791 0.99518 0.0
H319 H 0.72711 0.39651 0.99227 0.0
H320 H 0.63837 0.34262 0.01768 0.0
H321 H 0.61399 0.38463 0.13012 0.0
H322 H 0.58095 0.35919 0.19567 0.0
H323 H 0.54583 0.31821 0.20872 0.0
C324 C 0.57868 0.69783 0.07008 0.0
C325 C 0.5778 0.72707 0.10499 0.0
C326 C 0.60287 0.67826 0.08503 0.0
C327 C 0.6268 0.68757 0.13506 0.0
C328 C 0.62629 0.71691 0.16877 0.0
C329 C 0.602 0.73629 0.15454 0.0
C330 C 0.65312 0.66773 0.15175 0.0
C331 C 0.65092 0.63721 0.14742 0.0
C332 C 0.67728 0.61716 0.16297 0.0
C333 C 0.67194 0.58796 0.18063 0.0
C334 C 0.69586 0.56755 0.19024 0.0
C335 C 0.72564 0.57578 0.18146 0.0
H336 H 0.71233 0.64775 0.14131 0.0
C337 C 0.73115 0.60531 0.16566 0.0
C338 C 0.70727 0.62576 0.15639 0.0
H339 H 0.75379 0.61235 0.15822 0.0
H340 H 0.56085 0.69007 0.03074 0.0
H341 H 0.60302 0.6561 0.05655 0.0
H342 H 0.64451 0.7247 0.20728 0.0
H343 H 0.60197 0.75831 0.18364 0.0
H344 H 0.67454 0.67887 0.17163 0.0
H345 H 0.62877 0.62641 0.13387 0.0
H346 H 0.64908 0.58069 0.18577 0.0
H347 H 0.69074 0.54492 0.20187 0.0
C348 C 0.39511 0.73589 0.11386 0.0
C349 C 0.42198 0.73333 0.15731 0.0
C350 C 0.37429 0.71185 0.09966 0.0
C351 C 0.37956 0.68464 0.12932 0.0
C352 C 0.40626 0.68216 0.17332 0.0
C353 C 0.42721 0.70627 0.18741 0.0
C354 C 0.35831 0.65816 0.11349 0.0
C355 C 0.3287 0.66084 0.09057 0.0
C356 C 0.30702 0.6348 0.07591 0.0
C357 C 0.27607 0.64044 0.08008 0.0
C358 C 0.25489 0.61667 0.06862 0.0
C359 C 0.2641 0.58668 0.05159 0.0
H360 H 0.33975 0.59984 0.05099 0.0
C361 C 0.29489 0.58109 0.04455 0.0
C362 C 0.31621 0.60492 0.05677 0.0
H363 H 0.30268 0.55822 0.03148 0.0
H364 H 0.39036 0.75627 0.08933 0.0
H365 H 0.35461 0.71455 0.06386 0.0
H366 H 0.41104 0.66142 0.19659 0.0
H367 H 0.44776 0.70344 0.22078 0.0
H368 H 0.36714 0.636 0.12391 0.0
H369 H 0.31918 0.68329 0.08628 0.0
H370 H 0.26827 0.66326 0.09379 0.0
H371 H 0.2313 0.6218 0.07404 0.0
loop_
_geom_bond_atom_site_label_1
_geom_bond_atom_site_label_2
_geom_bond_distance
_geom_bond_site_symmetry_2
_ccdc_geom_bond_type
Co0 N4 2.148 . S
Co0 N10 2.128 1_554 S
Co0 N20 2.194 . S
Co0 O25 2.351 . S
Co0 O26 2.155 . S
Co0 O27 2.096 . S
C1 N4 1.301 . S
C1 N5 1.328 . S
C1 H6 0.930 . S
C2 C3 1.333 . S
C2 N4 1.317 . S
C2 H7 0.930 . S
C3 C2 1.333 . S
C3 N5 1.350 . S
C3 H29 0.931 . S
N4 Co0 2.148 . S
N4 C1 1.301 . S
N4 C2 1.317 . S
N5 C1 1.328 . S
N5 C3 1.350 . S
H6 C1 0.930 . S
H7 C2 0.930 . S
C8 O9 1.224 . S
C8 O27 1.247 . S
O9 C8 1.224 . S
N10 Co0 2.128 1_556 S
N10 C11 1.355 . S
N10 C13 1.311 . S
C11 N10 1.355 . S
C11 C12 1.363 . S
C11 H23 0.929 . S
C12 C11 1.363 . S
C12 N14 1.375 . S
C12 H30 0.931 . S
C13 N10 1.311 . S
C13 N14 1.347 . S
C13 H24 0.929 . S
N14 C12 1.375 . S
N14 C13 1.347 . S
C15 C18 1.365 . S
C15 N20 1.328 . S
C15 H21 0.929 . S
C16 C17 1.362 . S
C16 C19 1.378 . S
C16 H31 0.929 . S
C17 C16 1.362 . S
C17 C18 1.366 . S
C18 C15 1.365 . S
C18 C17 1.366 . S
C18 H32 0.930 . S
C19 C16 1.378 . S
C19 N20 1.315 . S
C19 H22 0.930 . S
N20 Co0 2.194 . S
N20 C15 1.328 . S
N20 C19 1.315 . S
H21 C15 0.929 . S
H22 C19 0.930 . S
H23 C11 0.929 . S
H24 C13 0.929 . S
O25 Co0 2.351 . S
O25 C28 1.244 . S
O26 Co0 2.155 . S
O26 C28 1.240 . S
O27 Co0 2.096 . S
O27 C8 1.247 . S
C28 O25 1.244 . S
C28 O26 1.240 . S
H29 C3 0.931 . S
H30 C12 0.931 . S
H31 C16 0.929 . S
H32 C18 0.930 . S
Co33 N37 2.148 . S
Co33 N43 2.128 1_554 S
Co33 N53 2.194 . S
Co33 O58 2.351 . S
Co33 O59 2.155 . S
Co33 O60 2.096 . S
C34 N37 1.301 . S
C34 N38 1.328 . S
C34 H39 0.930 . S
C35 C36 1.333 . S
C35 N37 1.317 . S
C35 H40 0.930 . S
C36 C35 1.333 . S
C36 N38 1.350 . S
C36 H62 0.931 . S
N37 Co33 2.148 . S
N37 C34 1.301 . S
N37 C35 1.317 . S
N38 C34 1.328 . S
N38 C36 1.350 . S
H39 C34 0.930 . S
H40 C35 0.930 . S
C41 O42 1.224 . S
C41 O60 1.247 . S
O42 C41 1.224 . S
N43 Co33 2.128 1_556 S
N43 C44 1.355 . S
N43 C46 1.311 . S
C44 N43 1.355 . S
C44 C45 1.363 . S
C44 H56 0.929 . S
C45 C44 1.363 . S
C45 N47 1.375 . S
C45 H63 0.931 . S
C46 N43 1.311 . S
C46 N47 1.347 . S
C46 H57 0.929 . S
N47 C45 1.375 . S
N47 C46 1.347 . S
C48 C51 1.365 . S
C48 N53 1.328 . S
C48 H54 0.929 . S
C49 C50 1.362 . S
C49 C52 1.378 . S
C49 H64 0.929 . S
C50 C49 1.362 . S
C50 C51 1.366 . S
C51 C48 1.365 . S
C51 C50 1.366 . S
C51 H65 0.930 . S
C52 C49 1.378 . S
C52 N53 1.315 . S
C52 H55 0.930 . S
N53 Co33 2.194 . S
N53 C48 1.328 . S
N53 C52 1.315 . S
H54 C48 0.929 . S
H55 C52 0.930 . S
H56 C44 0.929 . S
H57 C46 0.929 . S
O58 Co33 2.351 . S
O58 C61 1.244 . S
O59 Co33 2.155 . S
O59 C61 1.240 . S
O60 Co33 2.096 . S
O60 C41 1.247 . S
C61 O58 1.244 . S
C61 O59 1.240 . S
H62 C36 0.931 . S
H63 C45 0.931 . S
H64 C49 0.929 . S
H65 C51 0.930 . S
Co66 N70 2.148 . S
Co66 N76 2.128 . S
Co66 N86 2.194 . S
Co66 O91 2.351 . S
Co66 O92 2.155 . S
Co66 O93 2.096 . S
C67 N70 1.301 1_556 S
C67 N71 1.328 . S
C67 H72 0.930 . S
C68 C69 1.333 . S
C68 N70 1.317 1_556 S
C68 H73 0.930 1_556 S
C69 C68 1.333 . S
C69 N71 1.350 . S
C69 H95 0.931 . S
N70 Co66 2.148 . S
N70 C67 1.301 1_554 S
N70 C68 1.317 1_554 S
N71 C67 1.328 . S
N71 C69 1.350 . S
H72 C67 0.930 . S
H73 C68 0.930 1_554 S
C74 O75 1.224 . S
C74 O93 1.247 . S
O75 C74 1.224 . S
N76 Co66 2.128 . S
N76 C77 1.355 . S
N76 C79 1.311 . S
C77 N76 1.355 . S
C77 C78 1.363 . S
C77 H89 0.929 . S
C78 C77 1.363 . S
C78 N80 1.375 . S
C78 H96 0.931 . S
C79 N76 1.311 . S
C79 N80 1.347 . S
C79 H90 0.929 . S
N80 C78 1.375 . S
N80 C79 1.347 . S
C81 C84 1.365 . S
C81 N86 1.328 . S
C81 H87 0.929 . S
C82 C83 1.362 . S
C82 C85 1.378 . S
C82 H97 0.929 . S
C83 C82 1.362 . S
C83 C84 1.366 . S
C84 C81 1.365 . S
C84 C83 1.366 . S
C84 H98 0.930 . S
C85 C82 1.378 . S
C85 N86 1.315 . S
C85 H88 0.930 . S
N86 Co66 2.194 . S
N86 C81 1.328 . S
N86 C85 1.315 . S
H87 C81 0.929 . S
H88 C85 0.930 . S
H89 C77 0.929 . S
H90 C79 0.929 . S
O91 Co66 2.351 . S
O91 C94 1.244 . S
O92 Co66 2.155 . S
O92 C94 1.240 . S
O93 Co66 2.096 . S
O93 C74 1.247 . S
C94 O91 1.244 . S
C94 O92 1.240 . S
H95 C69 0.931 . S
H96 C78 0.931 . S
H97 C82 0.929 . S
H98 C84 0.930 . S
Co99 N103 2.148 . S
Co99 N109 2.128 . S
Co99 N119 2.194 . S
Co99 O124 2.351 . S
Co99 O125 2.155 . S
Co99 O126 2.096 . S
C100 N103 1.301 1_556 S
C100 N104 1.328 . S
C100 H105 0.930 . S
C101 C102 1.333 . S
C101 N103 1.317 1_556 S
C101 H106 0.930 . S
C102 C101 1.333 . S
C102 N104 1.350 . S
C102 H128 0.931 . S
N103 Co99 2.148 . S
N103 C100 1.301 1_554 S
N103 C101 1.317 1_554 S
N104 C100 1.328 . S
N104 C102 1.350 . S
H105 C100 0.930 . S
H106 C101 0.930 . S
C107 O108 1.224 . S
C107 O126 1.247 . S
O108 C107 1.224 . S
N109 Co99 2.128 . S
N109 C110 1.355 . S
N109 C112 1.311 . S
C110 N109 1.355 . S
C110 C111 1.363 . S
C110 H122 0.929 . S
C111 C110 1.363 . S
C111 N113 1.375 . S
C111 H129 0.931 . S
C112 N109 1.311 . S
C112 N113 1.347 . S
C112 H123 0.929 . S
N113 C111 1.375 . S
N113 C112 1.347 . S
C114 C117 1.365 . S
C114 N119 1.328 . S
C114 H120 0.929 . S
C115 C116 1.362 . S
C115 C118 1.378 . S
C115 H130 0.929 . S
C116 C115 1.362 . S
C116 C117 1.366 . S
C117 C114 1.365 . S
C117 C116 1.366 . S
C117 H131 0.930 . S
C118 C115 1.378 . S
C118 N119 1.315 . S
C118 H121 0.930 . S
N119 Co99 2.194 . S
N119 C114 1.328 . S
N119 C118 1.315 . S
H120 C114 0.929 . S
H121 C118 0.930 . S
H122 C110 0.929 . S
H123 C112 0.929 . S
O124 Co99 2.351 . S
O124 C127 1.244 . S
O125 Co99 2.155 . S
O125 C127 1.240 . S
O126 Co99 2.096 . S
O126 C107 1.247 . S
C127 O124 1.244 . S
C127 O125 1.240 . S
H128 C102 0.931 . S
H129 C111 0.931 . S
H130 C115 0.929 . S
H131 C117 0.930 . S
C132 C133 1.386 . S
C132 C134 1.383 . S
C132 H148 0.951 . S
C133 C132 1.386 . S
C133 C137 1.383 . S
C134 C132 1.383 . S
C134 C135 1.402 . S
C134 H149 0.951 . S
C135 C134 1.402 . S
C135 C136 1.375 . S
C135 C138 1.481 . S
C136 C135 1.375 . S
C136 C137 1.367 . S
C136 H150 0.951 . S
C137 C133 1.383 . S
C137 C136 1.367 . S
C137 H151 0.950 . S
C138 C135 1.481 . S
C138 C139 1.297 . S
C138 H152 0.950 . S
C139 C138 1.297 . S
C139 C140 1.479 . S
C139 H153 0.950 . S
C140 C139 1.479 . S
C140 C141 1.375 . S
C140 C146 1.404 . S
C141 C140 1.375 . S
C141 C142 1.369 . S
C141 H154 0.950 . S
C142 C141 1.369 . S
C142 C143 1.392 . S
C142 H155 0.951 . S
C143 C142 1.392 . S
C143 C145 1.384 . S
H144 C146 0.949 . S
C145 C143 1.384 . S
C145 C146 1.385 . S
C145 H147 0.950 . S
C146 C140 1.404 . S
C146 H144 0.949 . S
C146 C145 1.385 . S
H147 C145 0.950 . S
H148 C132 0.951 . S
H149 C134 0.951 . S
H150 C136 0.951 . S
H151 C137 0.950 . S
H152 C138 0.950 . S
H153 C139 0.950 . S
H154 C141 0.950 . S
H155 C142 0.951 . S
C156 C157 1.386 . S
C156 C158 1.383 . S
C156 H172 0.951 . S
C157 C156 1.386 . S
C157 C161 1.383 . S
C158 C156 1.383 . S
C158 C159 1.402 . S
C158 H173 0.951 . S
C159 C158 1.402 . S
C159 C160 1.375 . S
C159 C162 1.481 . S
C160 C159 1.375 . S
C160 C161 1.367 . S
C160 H174 0.951 . S
C161 C157 1.383 . S
C161 C160 1.367 . S
C161 H175 0.950 . S
C162 C159 1.481 . S
C162 C163 1.297 . S
C162 H176 0.950 . S
C163 C162 1.297 . S
C163 C164 1.479 . S
C163 H177 0.950 . S
C164 C163 1.479 . S
C164 C165 1.375 . S
C164 C170 1.404 . S
C165 C164 1.375 . S
C165 C166 1.369 . S
C165 H178 0.950 . S
C166 C165 1.369 . S
C166 C167 1.392 . S
C166 H179 0.951 . S
C167 C166 1.392 . S
C167 C169 1.384 . S
H168 C170 0.949 . S
C169 C167 1.384 . S
C169 C170 1.385 . S
C169 H171 0.950 . S
C170 C164 1.404 . S
C170 H168 0.949 . S
C170 C169 1.385 . S
H171 C169 0.950 . S
H172 C156 0.951 . S
H173 C158 0.951 . S
H174 C160 0.951 . S
H175 C161 0.950 . S
H176 C162 0.950 . S
H177 C163 0.950 . S
H178 C165 0.950 . S
H179 C166 0.951 . S
C180 C181 1.386 . S
C180 C182 1.383 . S
C180 H196 0.951 . S
C181 C180 1.386 . S
C181 C185 1.383 . S
C182 C180 1.383 . S
C182 C183 1.402 . S
C182 H197 0.951 . S
C183 C182 1.402 . S
C183 C184 1.375 . S
C183 C186 1.481 . S
C184 C183 1.375 . S
C184 C185 1.367 . S
C184 H198 0.951 . S
C185 C181 1.383 . S
C185 C184 1.367 . S
C185 H199 0.950 . S
C186 C183 1.481 . S
C186 C187 1.297 . S
C186 H200 0.950 . S
C187 C186 1.297 . S
C187 C188 1.479 . S
C187 H201 0.950 . S
C188 C187 1.479 . S
C188 C189 1.375 . S
C188 C194 1.404 . S
C189 C188 1.375 . S
C189 C190 1.369 . S
C189 H202 0.950 . S
C190 C189 1.369 . S
C190 C191 1.392 . S
C190 H203 0.951 . S
C191 C190 1.392 . S
C191 C193 1.384 . S
H192 C194 0.949 . S
C193 C191 1.384 . S
C193 C194 1.385 . S
C193 H195 0.950 . S
C194 C188 1.404 . S
C194 H192 0.949 . S
C194 C193 1.385 . S
H195 C193 0.950 . S
H196 C180 0.951 . S
H197 C182 0.951 . S
H198 C184 0.951 . S
H199 C185 0.950 . S
H200 C186 0.950 . S
H201 C187 0.950 . S
H202 C189 0.950 . S
H203 C190 0.951 . S
C204 C205 1.386 . S
C204 C206 1.383 . S
C204 H220 0.951 . S
C205 C204 1.386 . S
C205 C209 1.383 . S
C206 C204 1.383 . S
C206 C207 1.402 . S
C206 H221 0.951 . S
C207 C206 1.402 . S
C207 C208 1.375 . S
C207 C210 1.481 . S
C208 C207 1.375 . S
C208 C209 1.367 . S
C208 H222 0.951 . S
C209 C205 1.383 . S
C209 C208 1.367 . S
C209 H223 0.950 . S
C210 C207 1.481 . S
C210 C211 1.297 . S
C210 H224 0.950 . S
C211 C210 1.297 . S
C211 C212 1.479 . S
C211 H225 0.950 . S
C212 C211 1.479 . S
C212 C213 1.375 . S
C212 C218 1.404 . S
C213 C212 1.375 . S
C213 C214 1.369 . S
C213 H226 0.950 . S
C214 C213 1.369 . S
C214 C215 1.392 . S
C214 H227 0.951 . S
C215 C214 1.392 . S
C215 C217 1.384 . S
H216 C218 0.949 . S
C217 C215 1.384 . S
C217 C218 1.385 . S
C217 H219 0.950 . S
C218 C212 1.404 . S
C218 H216 0.949 . S
C218 C217 1.385 . S
H219 C217 0.950 . S
H220 C204 0.951 . S
H221 C206 0.951 . S
H222 C208 0.951 . S
H223 C209 0.950 . S
H224 C210 0.950 . S
H225 C211 0.950 . S
H226 C213 0.950 . S
H227 C214 0.951 . S
C228 C229 1.386 . S
C228 C230 1.383 . S
C228 H244 0.951 . S
C229 C228 1.386 . S
C229 C233 1.383 . S
C230 C228 1.383 . S
C230 C231 1.402 . S
C230 H245 0.951 . S
C231 C230 1.402 . S
C231 C232 1.375 . S
C231 C234 1.481 . S
C232 C231 1.375 . S
C232 C233 1.367 . S
C232 H246 0.951 . S
C233 C229 1.383 . S
C233 C232 1.367 . S
C233 H247 0.950 . S
C234 C231 1.481 . S
C234 C235 1.297 1_655 S
C234 H248 0.950 . S
C235 C234 1.297 1_455 S
C235 C236 1.479 . S
C235 H249 0.946 1_455 S
C236 C235 1.479 . S
C236 C237 1.375 . S
C236 C242 1.404 . S
C237 C236 1.375 . S
C237 C238 1.369 . S
C237 H250 0.950 . S
C238 C237 1.369 . S
C238 C239 1.392 . S
C238 H251 0.951 . S
C239 C238 1.392 . S
C239 C241 1.384 . S
H240 C242 0.949 . S
C241 C239 1.384 . S
C241 C242 1.385 . S
C241 H243 0.950 . S
C242 C236 1.404 . S
C242 H240 0.949 . S
C242 C241 1.385 . S
H243 C241 0.950 . S
H244 C228 0.951 . S
H245 C230 0.951 . S
H246 C232 0.951 . S
H247 C233 0.950 . S
H248 C234 0.950 . S
H249 C235 0.946 1_655 S
H250 C237 0.950 . S
H251 C238 0.951 . S
C252 C253 1.386 . S
C252 C254 1.383 . S
C252 H268 0.951 . S
C253 C252 1.386 . S
C253 C257 1.383 . S
C254 C252 1.383 . S
C254 C255 1.402 . S
C254 H269 0.951 . S
C255 C254 1.402 . S
C255 C256 1.375 . S
C255 C258 1.481 1_565 S
C256 C255 1.375 . S
C256 C257 1.367 . S
C256 H270 0.951 . S
C257 C253 1.383 . S
C257 C256 1.367 . S
C257 H271 0.950 . S
C258 C255 1.481 1_545 S
C258 C259 1.297 . S
C258 H272 0.950 . S
C259 C258 1.297 . S
C259 C260 1.479 . S
C259 H273 0.950 . S
C260 C259 1.479 . S
C260 C261 1.375 . S
C260 C266 1.404 . S
C261 C260 1.375 . S
C261 C262 1.369 . S
C261 H274 0.950 1_554 S
C262 C261 1.369 . S
C262 C263 1.392 . S
C262 H275 0.951 1_554 S
C263 C262 1.392 . S
C263 C265 1.384 . S
H264 C266 0.949 . S
C265 C263 1.384 . S
C265 C266 1.385 . S
C265 H267 0.950 . S
C266 C260 1.404 . S
C266 H264 0.949 . S
C266 C265 1.385 . S
H267 C265 0.950 . S
H268 C252 0.951 . S
H269 C254 0.951 . S
H270 C256 0.951 . S
H271 C257 0.950 . S
H272 C258 0.950 . S
H273 C259 0.950 . S
H274 C261 0.950 1_556 S
H275 C262 0.951 1_556 S
C276 C277 1.386 . S
C276 C278 1.383 . S
C276 H292 0.951 . S
C277 C276 1.386 . S
C277 C281 1.383 1_554 S
C278 C276 1.383 . S
C278 C279 1.402 . S
C278 H293 0.951 . S
C279 C278 1.402 . S
C279 C280 1.375 1_554 S
C279 C282 1.481 . S
C280 C279 1.375 1_556 S
C280 C281 1.367 . S
C280 H294 0.951 . S
C281 C277 1.383 1_556 S
C281 C280 1.367 . S
C281 H295 0.950 . S
C282 C279 1.481 . S
C282 C283 1.297 . S
C282 H296 0.950 1_554 S
C283 C282 1.297 . S
C283 C284 1.479 . S
C283 H297 0.950 . S
C284 C283 1.479 . S
C284 C285 1.375 . S
C284 C290 1.404 . S
C285 C284 1.375 . S
C285 C286 1.369 . S
C285 H298 0.950 . S
C286 C285 1.369 . S
C286 C287 1.392 . S
C286 H299 0.951 . S
C287 C286 1.392 . S
C287 C289 1.384 . S
H288 C290 0.949 1_556 S
C289 C287 1.384 . S
C289 C290 1.385 . S
C289 H291 0.950 1_554 S
C290 C284 1.404 . S
C290 H288 0.949 1_554 S
C290 C289 1.385 . S
H291 C289 0.950 1_556 S
H292 C276 0.951 . S
H293 C278 0.951 . S
H294 C280 0.951 . S
H295 C281 0.950 . S
H296 C282 0.950 1_556 S
H297 C283 0.950 . S
H298 C285 0.950 . S
H299 C286 0.951 . S
C300 C301 1.386 . S
C300 C302 1.383 . S
C300 H316 0.951 . S
C301 C300 1.386 . S
C301 C305 1.383 . S
C302 C300 1.383 . S
C302 C303 1.402 . S
C302 H317 0.951 . S
C303 C302 1.402 . S
C303 C304 1.375 . S
C303 C306 1.481 . S
C304 C303 1.375 . S
C304 C305 1.367 . S
C304 H318 0.951 . S
C305 C301 1.383 . S
C305 C304 1.367 . S
C305 H319 0.950 . S
C306 C303 1.481 . S
C306 C307 1.297 . S
C306 H320 0.950 . S
C307 C306 1.297 . S
C307 C308 1.479 . S
C307 H321 0.950 . S
C308 C307 1.479 . S
C308 C309 1.375 . S
C308 C314 1.404 . S
C309 C308 1.375 . S
C309 C310 1.369 . S
C309 H322 0.950 . S
C310 C309 1.369 . S
C310 C311 1.392 . S
C310 H323 0.951 . S
C311 C310 1.392 . S
C311 C313 1.384 . S
H312 C314 0.949 1_556 S
C313 C311 1.384 . S
C313 C314 1.385 . S
C313 H315 0.959 . S
C314 C308 1.404 . S
C314 H312 0.949 1_554 S
C314 C313 1.385 . S
H315 C313 0.959 . S
H316 C300 0.951 . S
H317 C302 0.951 . S
H318 C304 0.951 . S
H319 C305 0.950 . S
H320 C306 0.950 . S
H321 C307 0.950 . S
H322 C309 0.950 . S
H323 C310 0.951 . S
C324 C325 1.386 . S
C324 C326 1.383 . S
C324 H340 0.951 . S
C325 C324 1.386 . S
C325 C329 1.383 . S
C326 C324 1.383 . S
C326 C327 1.402 . S
C326 H341 0.951 . S
C327 C326 1.402 . S
C327 C328 1.375 . S
C327 C330 1.481 . S
C328 C327 1.375 . S
C328 C329 1.367 . S
C328 H342 0.951 . S
C329 C325 1.383 . S
C329 C328 1.367 . S
C329 H343 0.950 . S
C330 C327 1.481 . S
C330 C331 1.297 . S
C330 H344 0.950 . S
C331 C330 1.297 . S
C331 C332 1.479 . S
C331 H345 0.950 . S
C332 C331 1.479 . S
C332 C333 1.375 . S
C332 C338 1.404 . S
C333 C332 1.375 . S
C333 C334 1.369 . S
C333 H346 0.950 . S
C334 C333 1.369 . S
C334 C335 1.392 . S
C334 H347 0.951 . S
C335 C334 1.392 . S
C335 C337 1.384 . S
H336 C338 0.949 . S
C337 C335 1.384 . S
C337 C338 1.385 . S
C337 H339 0.950 . S
C338 C332 1.404 . S
C338 H336 0.949 . S
C338 C337 1.385 . S
H339 C337 0.950 . S
H340 C324 0.951 . S
H341 C326 0.951 . S
H342 C328 0.951 . S
H343 C329 0.950 . S
H344 C330 0.950 . S
H345 C331 0.950 . S
H346 C333 0.950 . S
H347 C334 0.951 . S
C348 C349 1.386 . S
C348 C350 1.383 . S
C348 H364 0.951 . S
C349 C348 1.386 . S
C349 C353 1.383 . S
C350 C348 1.383 . S
C350 C351 1.402 . S
C350 H365 0.951 . S
C351 C350 1.402 . S
C351 C352 1.375 . S
C351 C354 1.481 . S
C352 C351 1.375 . S
C352 C353 1.367 . S
C352 H366 0.951 . S
C353 C349 1.383 . S
C353 C352 1.367 . S
C353 H367 0.950 . S
C354 C351 1.481 . S
C354 C355 1.297 . S
C354 H368 0.950 . S
C355 C354 1.297 . S
C355 C356 1.479 . S
C355 H369 0.950 . S
C356 C355 1.479 . S
C356 C357 1.375 . S
C356 C362 1.404 . S
C357 C356 1.375 . S
C357 C358 1.369 . S
C357 H370 0.950 . S
C358 C357 1.369 . S
C358 C359 1.392 . S
C358 H371 0.951 . S
C359 C358 1.392 . S
C359 C361 1.384 . S
H360 C362 0.949 . S
C361 C359 1.384 . S
C361 C362 1.385 . S
C361 H363 0.950 . S
C362 C356 1.404 . S
C362 H360 0.949 . S
C362 C361 1.385 . S
H363 C361 0.950 . S
H364 C348 0.951 . S
H365 C350 0.951 . S
H366 C352 0.951 . S
H367 C353 0.950 . S
H368 C354 0.950 . S
H369 C355 0.950 . S
H370 C357 0.950 . S
H371 C358 0.951 . S
C133 N14 1.427 . S
C143 N5 1.425 . S
C157 N47 1.483 . S
C167 N38 1.429 . S
C181 N71 1.433 . S
C191 N80 1.456 . S
C205 N104 1.467 . S
C215 N113 1.452 . S
C229 C94 0.914 . S
C239 C28 0.907 . S
C253 C127 0.908 . S
C263 C61 0.902 . S
C277 C41 1.425 . S
C287 C17 1.429 . S
C301 C83 1.195 . S
C311 C50 1.167 . S
C325 C116 1.463 . S
C335 C74 1.415 . S
C349 C107 1.737 . S
C359 C8 1.758 . S
