# Generated by pormake.
# Topology wkj, (6)-cn, num edge types: 1
# Building blocks:
#     Node 0, Type 0, BuildingBlock: INOVEN_clean_sbu_0, # of connection points: 6
#     Node 1, Type 0, BuildingBlock: INOVEN_clean_sbu_0, # of connection points: 6
#     Node 2, Type 0, BuildingBlock: INOVEN_clean_sbu_0, # of connection points: 6
#     Node 3, Type 0, BuildingBlock: INOVEN_clean_sbu_0, # of connection points: 6
#     Node 4, Type 0, BuildingBlock: INOVEN_clean_sbu_0, # of connection points: 6
#     Node 5, Type 0, BuildingBlock: INOVEN_clean_sbu_0, # of connection points: 6
#     Node 6, Type 0, BuildingBlock: INOVEN_clean_sbu_0, # of connection points: 6
#     Node 7, Type 0, BuildingBlock: INOVEN_clean_sbu_0, # of connection points: 6
#     Node 8, Type 0, BuildingBlock: INOVEN_clean_sbu_0, # of connection points: 6
#     Node 9, Type 0, BuildingBlock: INOVEN_clean_sbu_0, # of connection points: 6
#     Node 10, Type 0, BuildingBlock: INOVEN_clean_sbu_0, # of connection points: 6
#     Node 11, Type 0, BuildingBlock: INOVEN_clean_sbu_0, # of connection points: 6
#     Edge 12, Type (0, 0), BuildingBlock: KIFKEQ_clean_linker_1, # of connection points: 2
#     Edge 13, Type (0, 0), BuildingBlock: KIFKEQ_clean_linker_1, # of connection points: 2
#     Edge 14, Type (0, 0), BuildingBlock: KIFKEQ_clean_linker_1, # of connection points: 2
#     Edge 15, Type (0, 0), BuildingBlock: KIFKEQ_clean_linker_1, # of connection points: 2
#     Edge 16, Type (0, 0), BuildingBlock: KIFKEQ_clean_linker_1, # of connection points: 2
#     Edge 17, Type (0, 0), BuildingBlock: KIFKEQ_clean_linker_1, # of connection points: 2
#     Edge 18, Type (0, 0), BuildingBlock: KIFKEQ_clean_linker_1, # of connection points: 2
#     Edge 19, Type (0, 0), BuildingBlock: KIFKEQ_clean_linker_1, # of connection points: 2
#     Edge 20, Type (0, 0), BuildingBlock: KIFKEQ_clean_linker_1, # of connection points: 2
#     Edge 21, Type (0, 0), BuildingBlock: KIFKEQ_clean_linker_1, # of connection points: 2
#     Edge 22, Type (0, 0), BuildingBlock: KIFKEQ_clean_linker_1, # of connection points: 2
#     Edge 23, Type (0, 0), BuildingBlock: KIFKEQ_clean_linker_1, # of connection points: 2
#     Edge 24, Type (0, 0), BuildingBlock: KIFKEQ_clean_linker_1, # of connection points: 2
#     Edge 25, Type (0, 0), BuildingBlock: KIFKEQ_clean_linker_1, # of connection points: 2
#     Edge 26, Type (0, 0), BuildingBlock: KIFKEQ_clean_linker_1, # of connection points: 2
#     Edge 27, Type (0, 0), BuildingBlock: KIFKEQ_clean_linker_1, # of connection points: 2
#     Edge 28, Type (0, 0), BuildingBlock: KIFKEQ_clean_linker_1, # of connection points: 2
#     Edge 29, Type (0, 0), BuildingBlock: KIFKEQ_clean_linker_1, # of connection points: 2
#     Edge 30, Type (0, 0), BuildingBlock: KIFKEQ_clean_linker_1, # of connection points: 2
#     Edge 31, Type (0, 0), BuildingBlock: KIFKEQ_clean_linker_1, # of connection points: 2
#     Edge 32, Type (0, 0), BuildingBlock: KIFKEQ_clean_linker_1, # of connection points: 2
#     Edge 33, Type (0, 0), BuildingBlock: KIFKEQ_clean_linker_1, # of connection points: 2
#     Edge 34, Type (0, 0), BuildingBlock: KIFKEQ_clean_linker_1, # of connection points: 2
#     Edge 35, Type (0, 0), BuildingBlock: KIFKEQ_clean_linker_1, # of connection points: 2
#     Edge 36, Type (0, 0), BuildingBlock: KIFKEQ_clean_linker_1, # of connection points: 2
#     Edge 37, Type (0, 0), BuildingBlock: KIFKEQ_clean_linker_1, # of connection points: 2
#     Edge 38, Type (0, 0), BuildingBlock: KIFKEQ_clean_linker_1, # of connection points: 2
#     Edge 39, Type (0, 0), BuildingBlock: KIFKEQ_clean_linker_1, # of connection points: 2
#     Edge 40, Type (0, 0), BuildingBlock: KIFKEQ_clean_linker_1, # of connection points: 2
#     Edge 41, Type (0, 0), BuildingBlock: KIFKEQ_clean_linker_1, # of connection points: 2
#     Edge 42, Type (0, 0), BuildingBlock: KIFKEQ_clean_linker_1, # of connection points: 2
#     Edge 43, Type (0, 0), BuildingBlock: KIFKEQ_clean_linker_1, # of connection points: 2
#     Edge 44, Type (0, 0), BuildingBlock: KIFKEQ_clean_linker_1, # of connection points: 2
#     Edge 45, Type (0, 0), BuildingBlock: KIFKEQ_clean_linker_1, # of connection points: 2
#     Edge 46, Type (0, 0), BuildingBlock: KIFKEQ_clean_linker_1, # of connection points: 2
#     Edge 47, Type (0, 0), BuildingBlock: KIFKEQ_clean_linker_1, # of connection points: 2
# Relax obj value: 0.705
# Max RMSD: 0.170
# Mean RMSD: 0.170
data_MOF--net-wkj--node1-INOVEN_clean_sbu_0--edge1-KIFKEQ_clean_linker_1
_symmetry_space_group_name_H-M    P1
_symmetry_Int_Tables_number       1
_symmetry_cell_setting            triclinic
loop_
_symmetry_equiv_pos_as_xyz
'x, y, z'
_cell_length_a     49.35702
_cell_length_b     49.362434
_cell_length_c     30.638261
_cell_angle_alpha  90.077627
_cell_angle_beta   89.868826
_cell_angle_gamma 120.10473
loop_
_atom_site_label
_atom_site_type_symbol
_atom_site_fract_x
_atom_site_fract_y
_atom_site_fract_z
_atom_type_partial_charge
Gd0 Gd 0.45538 0.08441 0.35991 0.0
Gd1 Gd 0.51498 0.09377 0.34631 0.0
C2 C 0.50564 0.10499 0.44803 0.0
C3 C 0.40019 0.07309 0.38424 0.0
C4 C 0.38354 0.07047 0.42494 0.0
C5 C 0.35342 0.0666 0.42359 0.0
C6 C 0.39714 0.07095 0.46516 0.0
C7 C 0.34967 0.06154 0.50257 0.0
C8 C 0.38037 0.06653 0.50366 0.0
C9 C 0.33653 0.0621 0.46218 0.0
C10 C 0.49078 0.139 0.31462 0.0
C11 C 0.46411 0.05362 0.26703 0.0
C12 C 0.57227 0.11723 0.31951 0.0
C13 C 0.59107 0.14035 0.28607 0.0
C14 C 0.57638 0.14611 0.25116 0.0
C15 C 0.62323 0.1603 0.29297 0.0
C16 C 0.62555 0.1928 0.23184 0.0
C17 C 0.6404 0.1863 0.266 0.0
C18 C 0.5935 0.17195 0.22411 0.0
C19 C 0.47849 0.04047 0.39259 0.0
O20 O 0.47703 0.09753 0.43256 0.0
O21 O 0.52606 0.10624 0.41887 0.0
O22 O 0.42316 0.10093 0.37482 0.0
O23 O 0.40727 0.05131 0.3772 0.0
O24 O 0.46366 0.11643 0.30259 0.0
O25 O 0.49959 0.12977 0.34767 0.0
O26 O 0.49427 0.07086 0.27816 0.0
O27 O 0.4434 0.05359 0.2956 0.0
O28 O 0.54952 0.09005 0.30634 0.0
O29 O 0.56379 0.1289 0.35133 0.0
O30 O 0.50843 0.05807 0.39711 0.0
O31 O 0.46981 0.04983 0.36032 0.0
H32 H 0.34272 0.06635 0.39263 0.0
H33 H 0.42034 0.07382 0.46672 0.0
H34 H 0.39096 0.06553 0.5341 0.0
H35 H 0.31299 0.05838 0.46037 0.0
H36 H 0.55145 0.13128 0.24573 0.0
H37 H 0.63478 0.1565 0.32036 0.0
H38 H 0.66498 0.2019 0.27289 0.0
H39 H 0.58147 0.1758 0.19742 0.0
Gd40 Gd 0.37188 0.47163 0.71015 0.0
Gd41 Gd 0.4233 0.52976 0.69385 0.0
C42 C 0.40638 0.52336 0.79667 0.0
C43 C 0.32576 0.41749 0.73353 0.0
C44 C 0.31215 0.39616 0.77038 0.0
C45 C 0.28781 0.36556 0.76255 0.0
C46 C 0.324 0.40531 0.81261 0.0
C47 C 0.28838 0.35249 0.83866 0.0
C48 C 0.31211 0.3836 0.84661 0.0
C49 C 0.276 0.3438 0.79645 0.0
C50 C 0.35414 0.5071 0.66264 0.0
C51 C 0.4084 0.47675 0.6157 0.0
C52 C 0.45596 0.58543 0.66172 0.0
C53 C 0.4489 0.59977 0.6247 0.0
C54 C 0.43158 0.58106 0.58937 0.0
C55 C 0.45378 0.63026 0.62854 0.0
C56 C 0.42157 0.62199 0.56441 0.0
C57 C 0.44033 0.6414 0.59843 0.0
C58 C 0.41822 0.59212 0.55945 0.0
C59 C 0.43889 0.49272 0.74047 0.0
O60 O 0.38437 0.49441 0.7827 0.0
O61 O 0.42456 0.54304 0.76605 0.0
O62 O 0.32459 0.44329 0.73486 0.0
O63 O 0.35251 0.4218 0.71909 0.0
O64 O 0.34851 0.47944 0.65221 0.0
O65 O 0.37225 0.51614 0.6956 0.0
O66 O 0.42413 0.50697 0.62689 0.0
O67 O 0.38693 0.45729 0.64448 0.0
O68 O 0.46189 0.56292 0.65302 0.0
O69 O 0.43647 0.57857 0.69417 0.0
O70 O 0.45256 0.52291 0.74425 0.0
O71 O 0.42031 0.48399 0.70883 0.0
H72 H 0.27848 0.35828 0.72993 0.0
H73 H 0.34295 0.42887 0.81898 0.0
H74 H 0.32251 0.3908 0.87868 0.0
H75 H 0.25772 0.32004 0.78951 0.0
H76 H 0.42703 0.55731 0.58596 0.0
H77 H 0.46659 0.64483 0.65609 0.0
H78 H 0.44341 0.66455 0.60289 0.0
H79 H 0.40459 0.5769 0.53287 0.0
Gd80 Gd 0.90353 0.36683 1.04547 0.0
Gd81 Gd 0.90222 0.42118 1.03202 0.0
C82 C 0.89024 0.40273 0.13412 0.0
C83 C 0.90439 0.31682 1.06812 0.0
C84 C 0.91156 0.30349 1.10584 0.0
C85 C 0.91845 0.27948 1.09943 0.0
C86 C 0.91336 0.31564 0.14772 0.0
C87 C 0.93111 0.28124 0.17625 0.0
C88 C 0.92297 0.30451 0.18272 0.0
C89 C 0.92825 0.26844 0.13441 0.0
C90 C 0.85278 0.35451 0.99493 0.0
C91 C 0.9385 0.4066 0.95473 0.0
C92 C 0.88059 0.45809 1.0165 0.0
C93 C 0.84723 0.44841 1.01377 0.0
C94 C 0.83737 0.46208 0.98226 0.0
C95 C 0.82513 0.41987 1.03296 0.0
C96 C 0.78609 0.41476 0.9805 0.0
C97 C 0.79471 0.40318 1.0165 0.0
C98 C 0.80687 0.44545 0.96591 0.0
C99 C 0.95912 0.43128 1.06373 0.0
O100 O 0.8954 0.37964 1.11948 0.0
O101 O 0.88982 0.42162 1.10395 0.0
O102 O 0.8795 0.31968 1.07119 0.0
O103 O 0.92833 0.34123 1.05044 0.0
O104 O 0.87471 0.34893 0.98405 0.0
O105 O 0.86153 0.371 1.02952 0.0
O106 O 0.92178 0.42012 0.96396 0.0
O107 O 0.93844 0.38695 0.98508 0.0
O108 O 0.88959 0.44602 0.98572 0.0
O109 O 0.89103 0.45622 1.05483 0.0
O110 O 0.95627 0.44949 1.03568 0.0
O111 O 0.93212 0.41119 1.07409 0.0
H112 H 0.91714 0.26993 1.06713 0.0
H113 H 0.90833 0.33438 0.15308 0.0
H114 H 0.92557 0.3153 0.21442 0.0
H115 H 0.93439 0.25052 1.12858 0.0
H116 H 0.85412 0.4839 0.9668 0.0
H117 H 0.83228 0.40874 1.05718 0.0
H118 H 0.77915 0.37974 1.02861 0.0
H119 H 0.80108 0.45504 0.93803 0.0
Gd120 Gd 0.52538 0.90961 0.35608 0.0
Gd121 Gd 0.46696 0.90113 0.34581 0.0
C122 C 0.47557 0.8871 0.44498 0.0
C123 C 0.58076 0.91993 0.37732 0.0
C124 C 0.59745 0.91996 0.41662 0.0
C125 C 0.62843 0.92632 0.41352 0.0
C126 C 0.58284 0.91426 0.45742 0.0
C127 C 0.63102 0.92387 0.49251 0.0
C128 C 0.59945 0.91619 0.49504 0.0
C129 C 0.64518 0.92831 0.45127 0.0
C130 C 0.48844 0.85378 0.3149 0.0
C131 C 0.51695 0.94542 0.26835 0.0
C132 C 0.41131 0.87465 0.31371 0.0
C133 C 0.38929 0.84081 0.31175 0.0
C134 C 0.36769 0.82856 0.27755 0.0
C135 C 0.3959 0.82069 0.33609 0.0
C136 C 0.36617 0.77866 0.28467 0.0
C137 C 0.38438 0.78977 0.32266 0.0
C138 C 0.35595 0.79754 0.2643 0.0
C139 C 0.5031 0.95393 0.39186 0.0
O140 O 0.50485 0.89737 0.42943 0.0
O141 O 0.45419 0.88288 0.41571 0.0
O142 O 0.55787 0.89274 0.36542 0.0
O143 O 0.57345 0.94186 0.37477 0.0
O144 O 0.51445 0.87632 0.29951 0.0
O145 O 0.48103 0.864 0.34848 0.0
O146 O 0.4885 0.93455 0.28554 0.0
O147 O 0.53616 0.9382 0.28986 0.0
O148 O 0.43635 0.88331 0.2899 0.0
O149 O 0.41784 0.88743 0.35249 0.0
O150 O 0.47306 0.93639 0.39651 0.0
O151 O 0.51211 0.94517 0.35897 0.0
H152 H 0.63988 0.93053 0.38203 0.0
H153 H 0.55892 0.90929 0.46032 0.0
H154 H 0.58797 0.91336 0.52625 0.0
H155 H 0.6694 0.93422 0.44832 0.0
H156 H 0.36258 0.84378 0.25814 0.0
H157 H 0.41276 0.82977 0.36245 0.0
H158 H 0.39254 0.77576 0.33904 0.0
H159 H 0.34214 0.78981 0.2347 0.0
Gd160 Gd 0.62104 0.52507 0.70912 0.0
Gd161 Gd 0.56996 0.46701 0.69229 0.0
C162 C 0.586 0.47287 0.79505 0.0
C163 C 0.66688 0.57898 0.73383 0.0
C164 C 0.67989 0.59905 0.77202 0.0
C165 C 0.70515 0.62948 0.76646 0.0
C166 C 0.66659 0.58882 0.81339 0.0
C167 C 0.70254 0.64036 0.84308 0.0
C168 C 0.6779 0.60935 0.84876 0.0
C169 C 0.71642 0.65007 0.80176 0.0
C170 C 0.63944 0.49004 0.66142 0.0
C171 C 0.58435 0.52038 0.61518 0.0
C172 C 0.53832 0.41155 0.65935 0.0
C173 C 0.54677 0.39792 0.62273 0.0
C174 C 0.56261 0.41654 0.58651 0.0
C175 C 0.5451 0.36883 0.62797 0.0
C176 C 0.57779 0.37879 0.56372 0.0
C177 C 0.5604 0.35923 0.59853 0.0
C178 C 0.5778 0.407 0.55724 0.0
C179 C 0.55377 0.50364 0.73912 0.0
O180 O 0.60821 0.50181 0.78134 0.0
O181 O 0.56795 0.45336 0.76429 0.0
O182 O 0.6684 0.55338 0.7333 0.0
O183 O 0.64005 0.57469 0.71992 0.0
O184 O 0.64485 0.51764 0.65105 0.0
O185 O 0.6211 0.4808 0.69426 0.0
O186 O 0.56913 0.49005 0.62572 0.0
O187 O 0.60559 0.53979 0.64422 0.0
O188 O 0.53222 0.4339 0.65039 0.0
O189 O 0.55688 0.41822 0.69279 0.0
O190 O 0.54011 0.47342 0.74254 0.0
O191 O 0.57259 0.51255 0.70766 0.0
H192 H 0.71563 0.63757 0.73454 0.0
H193 H 0.64695 0.56536 0.81801 0.0
H194 H 0.66635 0.60139 0.88007 0.0
H195 H 0.73544 0.67377 0.79656 0.0
H196 H 0.56467 0.43925 0.58189 0.0
H197 H 0.53346 0.35438 0.65617 0.0
H198 H 0.55983 0.3373 0.60413 0.0
H199 H 0.59023 0.42217 0.52997 0.0
Gd200 Gd 0.08985 0.62068 1.04823 0.0
Gd201 Gd 0.08989 0.5675 1.0305 0.0
C202 C 0.09987 0.58455 0.13544 0.0
C203 C 0.07809 0.66617 1.05662 0.0
C204 C 0.06072 0.67591 1.08553 0.0
C205 C 0.0761 0.70612 1.10357 0.0
C206 C 0.02906 0.65549 1.0955 0.0
C207 C 0.02891 0.69474 0.14328 0.0
C208 C 0.01328 0.66489 1.12396 0.0
C209 C 0.06037 0.71542 0.13248 0.0
C210 C 0.14959 0.63748 1.02459 0.0
C211 C 0.05669 0.58159 0.95191 0.0
C212 C 0.11327 0.53156 1.01769 0.0
C213 C 0.14434 0.54073 0.99928 0.0
C214 C 0.14712 0.52356 0.96486 0.0
C215 C 0.1705 0.56956 1.01113 0.0
C216 C 0.19983 0.56643 0.94959 0.0
C217 C 0.19802 0.58219 0.98665 0.0
C218 C 0.17471 0.53627 0.94022 0.0
C219 C 0.03319 0.55673 1.06407 0.0
O220 O 0.09163 0.60558 1.12235 0.0
O221 O 0.10335 0.56834 1.10349 0.0
O222 O 0.10276 0.66689 1.07307 0.0
O223 O 0.06158 0.64145 1.03253 0.0
O224 O 0.14141 0.64678 1.05875 0.0
O225 O 0.12478 0.61665 1.00525 0.0
O226 O 0.06691 0.56278 0.96442 0.0
O227 O 0.06277 0.60548 0.97915 0.0
O228 O 0.09355 0.53287 0.99071 0.0
O229 O 0.11343 0.54369 1.05551 0.0
O230 O 0.03595 0.53892 1.03518 0.0
O231 O 0.06012 0.57623 1.07564 0.0
H232 H 0.10047 0.72227 1.09599 0.0
H233 H 0.01664 0.63201 1.08213 0.0
H234 H 0.98923 0.6482 0.13247 0.0
H235 H 0.07294 0.73849 0.14712 0.0
H236 H 0.12721 0.50141 0.95504 0.0
H237 H 0.16908 0.58349 1.03744 0.0
H238 H 0.21702 0.60537 0.99476 0.0
H239 H 0.17525 0.5237 0.91153 0.0
Gd240 Gd 0.89778 0.52304 0.55374 0.0
Gd241 Gd 0.88782 0.46396 0.57192 0.0
C242 C 0.88114 0.47063 0.46871 0.0
C243 C 0.90939 0.57777 0.52719 0.0
C244 C 0.91377 0.59551 0.48715 0.0
C245 C 0.9164 0.62507 0.48974 0.0
C246 C 0.91574 0.58354 0.4466 0.0
C247 C 0.92434 0.6314 0.41137 0.0
C248 C 0.92101 0.60137 0.40895 0.0
C249 C 0.9217 0.64296 0.4521 0.0
C250 C 0.84295 0.48937 0.59919 0.0
C251 C 0.92685 0.51687 0.64918 0.0
C252 C 0.86142 0.40846 0.6055 0.0
C253 C 0.83426 0.39355 0.63513 0.0
C254 C 0.83331 0.37418 0.66918 0.0
C255 C 0.81018 0.40077 0.63155 0.0
C256 C 0.78623 0.37208 0.69823 0.0
C257 C 0.78634 0.39001 0.66262 0.0
C258 C 0.80942 0.36345 0.7005 0.0
C259 C 0.94312 0.49975 0.52931 0.0
O260 O 0.88781 0.49955 0.48205 0.0
O261 O 0.87825 0.45076 0.4997 0.0
O262 O 0.88127 0.55438 0.53411 0.0
O263 O 0.93113 0.57104 0.53647 0.0
O264 O 0.86564 0.51667 0.61013 0.0
O265 O 0.85201 0.47952 0.56696 0.0
O266 O 0.91114 0.48656 0.63868 0.0
O267 O 0.92648 0.53676 0.61971 0.0
O268 O 0.88686 0.43195 0.62165 0.0
O269 O 0.8553 0.41427 0.56641 0.0
O270 O 0.926 0.4696 0.52556 0.0
O271 O 0.93223 0.5088 0.55928 0.0
H272 H 0.91476 0.63448 0.52098 0.0
H273 H 0.91377 0.56071 0.4442 0.0
H274 H 0.92355 0.59205 0.37816 0.0
H275 H 0.92402 0.66591 0.4549 0.0
H276 H 0.85172 0.36847 0.67259 0.0
H277 H 0.81037 0.41575 0.60561 0.0
H278 H 0.76875 0.39691 0.65982 0.0
H279 H 0.81026 0.35007 0.72792 0.0
Gd280 Gd 0.37197 0.8862 0.87046 0.0
Gd281 Gd 0.42072 0.87607 0.89487 0.0
C282 C 0.40826 0.87533 0.78488 0.0
C283 C 0.33258 0.90583 0.85924 0.0
C284 C 0.32319 0.92052 0.82586 0.0
C285 C 0.30399 0.93277 0.83745 0.0
C286 C 0.3331 0.92236 0.78259 0.0
C287 C 0.30432 0.94852 0.76238 0.0
C288 C 0.32367 0.93621 0.75103 0.0
C289 C 0.29467 0.94682 0.80591 0.0
C290 C 0.34756 0.82521 0.89536 0.0
C291 C 0.40649 0.91327 0.97108 0.0
C292 C 0.44889 0.84516 0.91182 0.0
C293 C 0.44626 0.82598 0.95 0.0
C294 C 0.44078 0.83455 0.99133 0.0
C295 C 0.44292 0.79619 0.94413 0.0
C296 C 0.42477 0.78258 1.01884 0.0
C297 C 0.4323 0.77454 0.97853 0.0
C298 C 0.43019 0.81304 1.02543 0.0
C299 C 0.4392 0.93434 0.86612 0.0
O300 O 0.38771 0.88425 0.79755 0.0
O301 O 0.42329 0.87003 0.81759 0.0
O302 O 0.32604 0.87721 0.85131 0.0
O303 O 0.3605 0.92313 0.87559 0.0
O304 O 0.34128 0.83486 0.85976 0.0
O305 O 0.36945 0.84887 0.91548 0.0
O306 O 0.42172 0.89795 0.96242 0.0
O307 O 0.38635 0.91182 0.94024 0.0
O308 O 0.46198 0.87544 0.91799 0.0
O309 O 0.42315 0.83372 0.88889 0.0
O310 O 0.45209 0.92935 0.89982 0.0
O311 O 0.41966 0.90893 0.8504 0.0
H312 H 0.29625 0.9315 0.87089 0.0
H313 H 0.34819 0.91323 0.77333 0.0
H314 H 0.33204 0.93786 0.71788 0.0
H315 H 0.27985 0.95621 0.81545 0.0
H316 H 0.44272 0.85716 0.99662 0.0
H317 H 0.44659 0.78901 0.91227 0.0
H318 H 0.42813 0.75109 0.97291 0.0
H319 H 0.42459 0.81965 1.05646 0.0
Gd320 Gd 0.46371 0.36884 0.21822 0.0
Gd321 Gd 0.52231 0.41751 0.23302 0.0
C322 C 0.5149 0.3997 0.13143 0.0
C323 C 0.40871 0.3241 0.19501 0.0
C324 C 0.38854 0.31077 0.157 0.0
C325 C 0.35808 0.28561 0.16285 0.0
C326 C 0.39895 0.32332 1.11534 0.0
C327 C 0.34757 0.28678 1.08578 0.0
C328 C 0.37859 0.31137 1.07992 0.0
C329 C 0.33765 0.27368 1.12747 0.0
C330 C 0.49839 0.34783 0.26088 0.0
C331 C 0.47033 0.40752 0.31095 0.0
C332 C 0.57795 0.44804 0.26577 0.0
C333 C 0.60161 0.4385 0.26903 0.0
C334 C 0.6252 0.45246 0.30041 0.0
C335 C 0.59612 0.4107 0.2486 0.0
C336 C 0.63159 0.40663 0.29941 0.0
C337 C 0.61117 0.39492 0.26354 0.0
C338 C 0.64035 0.43676 0.31527 0.0
C339 C 0.48755 0.43687 0.18921 0.0
O340 O 0.48489 0.38173 0.14517 0.0
O341 O 0.53598 0.41342 0.16263 0.0
O342 O 0.4335 0.3212 0.19628 0.0
O343 O 0.41437 0.35173 0.20741 0.0
O344 O 0.47213 0.34453 0.27451 0.0
O345 O 0.5073 0.3662 0.2281 0.0
O346 O 0.4999 0.42428 0.29697 0.0
O347 O 0.45069 0.38398 0.28489 0.0
O348 O 0.55289 0.4307 0.28899 0.0
O349 O 0.57136 0.45334 0.22663 0.0
O350 O 0.51749 0.449 0.18476 0.0
O351 O 0.47792 0.41792 0.22054 0.0
H352 H 0.34987 0.27565 0.19498 0.0
H353 H 0.42245 0.34283 1.11047 0.0
H354 H 0.38672 0.32237 1.04834 0.0
H355 H 0.31393 0.25472 0.13284 0.0
H356 H 0.62961 0.47382 0.3166 0.0
H357 H 0.57784 0.39953 0.2243 0.0
H358 H 0.60415 0.37194 0.25043 0.0
H359 H 0.65584 0.44649 0.34304 0.0
Gd360 Gd 0.09578 0.46737 0.55562 0.0
Gd361 Gd 0.10187 0.52472 0.57107 0.0
C362 C 0.1103 0.5176 0.46898 0.0
C363 C 0.08824 0.41359 0.53157 0.0
C364 C 0.07986 0.39296 0.49374 0.0
C365 C 0.07445 0.36248 0.49942 0.0
C366 C 0.0759 0.40277 0.45262 0.0
C367 C 0.05939 0.35093 0.42338 0.0
C368 C 0.06579 0.3819 0.41761 0.0
C369 C 0.06421 0.34153 0.46448 0.0
C370 C 0.15013 0.50425 0.60029 0.0
C371 C 0.06414 0.47267 0.64943 0.0
C372 C 0.12577 0.58024 0.60403 0.0
C373 C 0.15775 0.59923 0.62094 0.0
C374 C 0.16353 0.61893 0.65684 0.0
C375 C 0.18106 0.59274 0.60695 0.0
C376 C 0.21284 0.62022 0.66979 0.0
C377 C 0.20841 0.60315 0.6312 0.0
C378 C 0.19104 0.62959 0.68097 0.0
C379 C 0.04741 0.48662 0.52855 0.0
O380 O 0.10287 0.48865 0.48297 0.0
O381 O 0.11451 0.53816 0.49959 0.0
O382 O 0.11499 0.43968 0.52966 0.0
O383 O 0.0659 0.4173 0.5479 0.0
O384 O 0.12846 0.47673 0.61213 0.0
O385 O 0.14023 0.51253 0.56743 0.0
O386 O 0.07558 0.50208 0.63604 0.0
O387 O 0.06844 0.45361 0.62274 0.0
O388 O 0.10824 0.55487 0.62639 0.0
O389 O 0.12343 0.575 0.56216 0.0
O390 O 0.06305 0.51683 0.52502 0.0
O391 O 0.05877 0.4784 0.55881 0.0
H392 H 0.07748 0.35468 0.53114 0.0
H393 H 0.07984 0.42624 0.44791 0.0
H394 H 0.0617 0.38962 0.3865 0.0
H395 H 0.0595 0.31786 0.46974 0.0
H396 H 0.14571 0.62393 0.66831 0.0
H397 H 0.17703 0.57744 0.57935 0.0
H398 H 0.22478 0.5956 0.62188 0.0
H399 H 0.19362 0.64238 0.71089 0.0
Gd400 Gd 0.60075 0.10036 0.87486 0.0
Gd401 Gd 0.57845 0.13572 0.89575 0.0
C402 C 0.57426 0.12032 0.78814 0.0
C403 C 0.62925 0.07105 0.85011 0.0
C404 C 0.63531 0.05322 0.81743 0.0
C405 C 0.65276 0.03925 0.8299 0.0
C406 C 0.62688 0.05252 0.77371 0.0
C407 C 0.65477 0.02506 0.75467 0.0
C408 C 0.63646 0.03841 0.74251 0.0
C409 C 0.66244 0.02524 0.79879 0.0
C410 C 0.64536 0.1566 0.91386 0.0
C411 C 0.57414 0.08396 0.97164 0.0
C412 C 0.57295 0.18464 0.91147 0.0
C413 C 0.59515 0.21728 0.92331 0.0
C414 C 0.58648 0.23153 0.95562 0.0
C415 C 0.62649 0.23186 0.9095 0.0
C416 C 0.64139 0.26899 0.96936 0.0
C417 C 0.64948 0.25789 0.93208 0.0
C418 C 0.60941 0.25735 0.97838 0.0
C419 C 0.52728 0.08181 0.88457 0.0
O420 O 0.58874 0.10517 0.80182 0.0
O421 O 0.56683 0.13424 0.81992 0.0
O422 O 0.6391 0.10039 0.84116 0.0
O423 O 0.60259 0.05728 0.87114 0.0
O424 O 0.63624 0.1291 0.92952 0.0
O425 O 0.62789 0.15294 0.88215 0.0
O426 O 0.57863 0.11308 0.96571 0.0
O427 O 0.57707 0.07087 0.9358 0.0
O428 O 0.56957 0.16422 0.94091 0.0
O429 O 0.57524 0.17564 0.87241 0.0
O430 O 0.53292 0.09855 0.91926 0.0
O431 O 0.55173 0.09079 0.86149 0.0
H432 H 0.6597 0.03998 0.86362 0.0
H433 H 0.61351 0.06338 0.76366 0.0
H434 H 0.62962 0.03802 0.70885 0.0
H435 H 0.67661 0.01533 0.80909 0.0
H436 H 0.56234 0.22076 0.96642 0.0
H437 H 0.63355 0.22149 0.884 0.0
H438 H 0.67384 0.26694 0.92364 0.0
H439 H 0.60211 0.26526 1.00667 0.0
Gd440 Gd 0.52398 0.62872 0.2221 0.0
Gd441 Gd 0.46653 0.57837 0.236 0.0
C442 C 0.47392 0.59591 0.13442 0.0
C443 C 0.57834 0.67475 0.19895 0.0
C444 C 0.59915 0.68669 0.16124 0.0
C445 C 0.63018 0.71065 0.16726 0.0
C446 C 0.58885 0.67365 1.11979 0.0
C447 C 0.64123 0.70735 1.09087 0.0
C448 C 0.60974 0.68398 1.08478 0.0
C449 C 0.65117 0.7209 0.1323 0.0
C450 C 0.48726 0.64767 0.26435 0.0
C451 C 0.51839 0.58932 0.31397 0.0
C452 C 0.41083 0.54713 0.26826 0.0
C453 C 0.38781 0.55756 0.27121 0.0
C454 C 0.3654 0.54591 0.30451 0.0
C455 C 0.39375 0.58486 0.24885 0.0
C456 C 0.362 0.59343 0.30145 0.0
C457 C 0.38083 0.60267 0.26382 0.0
C458 C 0.35228 0.56359 0.3193 0.0
C459 C 0.5034 0.56144 0.19224 0.0
O460 O 0.50349 0.61534 0.14872 0.0
O461 O 0.45281 0.58099 0.16525 0.0
O462 O 0.55248 0.6757 0.19666 0.0
O463 O 0.5741 0.64857 0.21538 0.0
O464 O 0.51398 0.65231 0.27801 0.0
O465 O 0.47924 0.62922 0.23165 0.0
O466 O 0.48924 0.57128 0.29917 0.0
O467 O 0.53723 0.61406 0.28901 0.0
O468 O 0.4357 0.56388 0.29202 0.0
O469 O 0.41774 0.542 0.22912 0.0
O470 O 0.47331 0.54793 0.18781 0.0
O471 O 0.51211 0.58032 0.22361 0.0
H472 H 0.63836 0.7209 0.19924 0.0
H473 H 0.56495 0.65499 1.1148 0.0
H474 H 0.60158 0.67266 1.0534 0.0
H475 H 0.67527 0.73892 0.1378 0.0
H476 H 0.36069 0.52501 0.32226 0.0
H477 H 0.41113 0.59429 0.22306 0.0
H478 H 0.38859 0.62541 0.24927 0.0
H479 H 0.33792 0.55576 0.34846 0.0
H480 H 0.47997 0.16289 0.24022 0.0
H481 H 0.52014 0.19158 0.3683 0.0
H482 H 0.48704 0.215 0.22726 0.0
H483 H 0.52677 0.24379 0.35573 0.0
H484 H 0.52186 0.32016 0.20427 0.0
H485 H 0.52447 0.2722 0.21628 0.0
H486 H 0.49304 0.26784 0.34883 0.0
H487 H 0.48987 0.31512 0.33645 0.0
C488 C 0.49083 0.18048 0.26548 0.0
C489 C 0.49965 0.17268 0.30525 0.0
C490 C 0.49494 0.2106 0.25798 0.0
C491 C 0.50743 0.23415 0.29034 0.0
C492 C 0.51686 0.22654 0.32991 0.0
C493 C 0.51332 0.19651 0.33706 0.0
C494 C 0.51611 0.30935 0.23624 0.0
C495 C 0.50581 0.32195 0.2694 0.0
C496 C 0.51728 0.28149 0.24309 0.0
C497 C 0.50882 0.26553 0.28364 0.0
C498 C 0.49999 0.27914 0.31726 0.0
C499 C 0.49818 0.30649 0.31012 0.0
H500 H 0.3227 0.49858 0.58607 0.0
H501 H 0.32872 0.53444 0.71605 0.0
H502 H 0.27704 0.5041 0.57129 0.0
H503 H 0.28256 0.53968 0.70158 0.0
H504 H 0.20264 0.53211 0.54623 0.0
H505 H 0.25461 0.53858 0.56056 0.0
H506 H 0.22574 0.5045 0.69173 0.0
H507 H 0.17402 0.49766 0.67706 0.0
C508 C 0.31469 0.50832 0.61131 0.0
C509 C 0.32986 0.51628 0.65218 0.0
C510 C 0.28832 0.51152 0.60279 0.0
C511 C 0.27551 0.52221 0.63514 0.0
C512 C 0.29128 0.5311 0.67574 0.0
C513 C 0.31812 0.52843 0.68399 0.0
C514 C 0.20761 0.52666 0.57841 0.0
C515 C 0.18389 0.51444 0.61048 0.0
C516 C 0.23744 0.53004 0.5866 0.0
C517 C 0.24481 0.52188 0.62739 0.0
C518 C 0.22149 0.51129 0.66003 0.0
C519 C 0.19161 0.50734 0.65157 0.0
H520 H 0.80034 0.3227 1.04853 0.0
H521 H 0.83006 0.32934 0.91486 0.0
H522 H 0.75005 0.27606 1.03015 0.0
H523 H 0.77995 0.2834 0.89617 0.0
H524 H 0.67715 0.21134 0.86679 0.0
H525 H 0.72424 0.2604 0.88645 0.0
H526 H 0.72745 0.22046 1.01011 0.0
H527 H 0.68006 0.17129 0.9902 0.0
C528 C 0.79588 0.31482 1.01495 0.0
C529 C 0.81944 0.33032 0.98315 0.0
C530 C 0.76702 0.28765 1.00438 0.0
C531 C 0.7604 0.27528 0.96148 0.0
C532 C 0.78355 0.29184 0.92948 0.0
C533 C 0.8125 0.31849 0.9402 0.0
C534 C 0.68773 0.21297 0.89832 0.0
C535 C 0.67438 0.18702 0.92681 0.0
C536 C 0.71512 0.24123 0.90956 0.0
C537 C 0.73028 0.24498 0.95007 0.0
C538 C 0.71668 0.21903 0.9788 0.0
C539 C 0.68942 0.19057 0.96726 0.0
H540 H 0.4945 0.6805 0.33955 0.0
H541 H 0.46133 0.67299 0.2078 0.0
H542 H 0.48913 0.72657 0.35152 0.0
H543 H 0.4564 0.7197 0.2194 0.0
H544 H 0.49747 0.82863 0.24032 0.0
H545 H 0.49135 0.77685 0.22838 0.0
H546 H 0.45532 0.75003 0.35913 0.0
H547 H 0.46111 0.80204 0.37077 0.0
C548 C 0.48547 0.68831 0.31322 0.0
C549 C 0.47828 0.67255 0.27269 0.0
C550 C 0.48236 0.71498 0.32013 0.0
C551 C 0.47257 0.72765 0.28648 0.0
C552 C 0.46437 0.71124 0.24622 0.0
C553 C 0.46689 0.68407 0.23959 0.0
C554 C 0.48767 0.81156 0.2664 0.0
C555 C 0.47977 0.81996 0.30655 0.0
C556 C 0.4841 0.78159 0.25947 0.0
C557 C 0.47301 0.75869 0.29271 0.0
C558 C 0.46427 0.76679 0.33263 0.0
C559 C 0.46733 0.79671 0.33929 0.0
H560 H 0.67074 0.4977 0.58452 0.0
H561 H 0.66572 0.46409 0.71555 0.0
H562 H 0.71646 0.49208 0.56979 0.0
H563 H 0.71197 0.45892 0.7012 0.0
H564 H 0.82013 0.49927 0.67514 0.0
H565 H 0.76896 0.49397 0.68979 0.0
H566 H 0.73865 0.45697 0.56026 0.0
H567 H 0.79002 0.46184 0.54598 0.0
C568 C 0.679 0.48849 0.61005 0.0
C569 C 0.66403 0.48111 0.65116 0.0
C570 C 0.70542 0.48525 0.60156 0.0
C571 C 0.71855 0.47518 0.6342 0.0
C572 C 0.70304 0.467 0.67511 0.0
C573 C 0.67613 0.46963 0.6833 0.0
C574 C 0.80236 0.48932 0.65001 0.0
C575 C 0.8095 0.48081 0.60942 0.0
C576 C 0.77278 0.48625 0.65846 0.0
C577 C 0.74915 0.47517 0.62631 0.0
C578 C 0.75602 0.46587 0.58595 0.0
C579 C 0.78552 0.46834 0.57781 0.0
H580 H 0.34146 0.80017 0.97994 0.0
H581 H 0.29549 0.77963 0.85496 0.0
H582 H 0.29722 0.75213 1.0096 0.0
H583 H 0.25102 0.7333 0.88439 0.0
H584 H 0.17226 0.6421 0.93852 0.0
H585 H 0.22199 0.68358 0.90835 0.0
H586 H 0.24793 0.72668 1.0358 0.0
H587 H 0.19982 0.68474 1.06552 0.0
C588 C 0.32204 0.78549 0.95867 0.0
C589 C 0.32245 0.79439 0.9149 0.0
C590 C 0.29612 0.75779 0.97581 0.0
C591 C 0.26935 0.73802 0.95003 0.0
C592 C 0.27058 0.7468 0.90595 0.0
C593 C 0.29644 0.77403 0.88889 0.0
C594 C 0.18888 0.66013 0.96015 0.0
C595 C 0.18142 0.65974 1.00463 0.0
C596 C 0.21757 0.68452 0.94274 0.0
C597 C 0.23982 0.70971 0.969 0.0
C598 C 0.23248 0.70827 1.01376 0.0
C599 C 0.20425 0.6839 1.03104 0.0
H600 H 0.64854 0.31503 1.02762 0.0
H601 H 0.68476 0.2541 0.9953 0.0
H602 H 0.66201 0.3142 1.10396 0.0
H603 H 0.69709 0.25231 1.07018 0.0
H604 H 0.60549 0.23179 0.20215 0.0
H605 H 0.62823 0.26994 0.14443 0.0
H606 H 0.7097 0.25863 0.14342 0.0
H607 H 0.68552 0.21847 0.19959 0.0
C608 C 0.66075 0.3027 1.03635 0.0
C609 C 0.66409 0.28331 1.00578 0.0
C610 C 0.66823 0.30196 1.08021 0.0
C611 C 0.67869 0.28149 1.09381 0.0
C612 C 0.6884 0.26783 1.06161 0.0
C613 C 0.68134 0.26894 1.01791 0.0
C614 C 0.62837 0.23757 0.18983 0.0
C615 C 0.64302 0.22107 0.20405 0.0
C616 C 0.6419 0.26015 0.1572 0.0
C617 C 0.67065 0.26702 0.13812 0.0
C618 C 0.68715 0.25335 0.1564 0.0
C619 C 0.67334 0.23038 0.18879 0.0
H620 H 0.31261 0.58989 0.3487 0.0
H621 H 0.41062 0.65124 0.32038 0.0
H622 H 0.31984 0.61443 0.42002 0.0
H623 H 0.41847 0.67389 0.39151 0.0
H624 H 0.36125 0.58797 0.53735 0.0
H625 H 0.33877 0.59736 0.47381 0.0
H626 H 0.42042 0.68987 0.46106 0.0
H627 H 0.44388 0.67897 0.52371 0.0
C628 C 0.3354 0.60947 0.35698 0.0
C629 C 0.36137 0.61739 0.33004 0.0
C630 C 0.33975 0.62331 0.39816 0.0
C631 C 0.37028 0.64409 0.41334 0.0
C632 C 0.39469 0.65703 0.38234 0.0
C633 C 0.39017 0.64387 0.34084 0.0
C634 C 0.37426 0.61047 0.52122 0.0
C635 C 0.40498 0.63203 0.53396 0.0
C636 C 0.36108 0.61628 0.4849 0.0
C637 C 0.37825 0.64402 0.46045 0.0
C638 C 0.407 0.66764 0.47764 0.0
C639 C 0.42044 0.66155 0.51383 0.0
H640 H 0.77474 0.3573 0.95494 0.0
H641 H 0.74185 0.4227 0.93667 0.0
H642 H 0.75493 0.33489 0.8846 0.0
H643 H 0.7199 0.39878 0.86624 0.0
H644 H 0.75316 0.31875 0.7478 0.0
H645 H 0.73013 0.31545 0.81965 0.0
H646 H 0.75149 0.41152 0.80623 0.0
H647 H 0.77281 0.41401 0.73497 0.0
C648 C 0.76159 0.36576 0.93695 0.0
C649 C 0.76115 0.39278 0.95045 0.0
C650 C 0.75002 0.35274 0.89605 0.0
C651 C 0.73749 0.36632 0.86813 0.0
C652 C 0.73112 0.38895 0.88577 0.0
C653 C 0.74338 0.4025 0.92637 0.0
C654 C 0.75199 0.33874 0.75999 0.0
C655 C 0.76544 0.36685 0.7362 0.0
C656 C 0.73884 0.33693 0.80121 0.0
C657 C 0.73971 0.36349 0.81984 0.0
C658 C 0.75002 0.39035 0.79361 0.0
C659 C 0.76262 0.39195 0.75235 0.0
H660 H 0.36569 0.76144 1.04516 0.0
H661 H 0.44612 0.75136 1.0694 0.0
H662 H 0.34333 0.73737 1.11421 0.0
H663 H 0.42312 0.72536 0.13889 0.0
H664 H 0.31721 0.73006 0.24063 0.0
H665 H 0.324 0.7066 0.17446 0.0
H666 H 0.42296 0.74926 0.20253 0.0
H667 H 0.41553 0.77035 0.26902 0.0
C668 C 0.37792 0.75272 1.06485 0.0
C669 C 0.4079 0.75898 1.05295 0.0
C670 C 0.36495 0.73847 1.10458 0.0
C671 C 0.38183 0.73023 0.13351 0.0
C672 C 0.40991 0.73241 1.11835 0.0
C673 C 0.42306 0.74705 1.07845 0.0
C674 C 0.34001 0.73289 0.23362 0.0
C675 C 0.36608 0.75314 0.25894 0.0
C676 C 0.34408 0.71976 0.19542 0.0
C677 C 0.37446 0.72797 0.1812 0.0
C678 C 0.39925 0.74294 0.21119 0.0
C679 C 0.395 0.75526 0.24985 0.0
H680 H 0.68425 0.41619 0.34409 0.0
H681 H 0.58707 0.3476 0.32235 0.0
H682 H 0.68132 0.39401 0.41611 0.0
H683 H 0.58346 0.32691 0.3939 0.0
H684 H 0.63714 0.4169 0.5347 0.0
H685 H 0.66082 0.40915 0.47088 0.0
H686 H 0.58551 0.31273 0.46341 0.0
H687 H 0.56057 0.32173 0.52619 0.0
C688 C 0.66265 0.39559 0.35393 0.0
C689 C 0.63546 0.38483 0.32862 0.0
C690 C 0.66077 0.38303 0.39548 0.0
C691 C 0.63145 0.36048 0.41257 0.0
C692 C 0.60631 0.3451 0.38317 0.0
C693 C 0.60837 0.35713 0.34141 0.0
C694 C 0.62582 0.39391 0.51968 0.0
C695 C 0.59616 0.37049 0.53379 0.0
C696 C 0.63977 0.38911 0.48323 0.0
C697 C 0.62441 0.36059 0.46008 0.0
C698 C 0.59733 0.3355 0.47894 0.0
C699 C 0.58307 0.34053 0.51519 0.0
H700 H 0.2195 0.62517 0.9206 0.0
H701 H 0.23397 0.54675 0.90135 0.0
H702 H 0.24345 0.64658 0.8516 0.0
H703 H 0.26019 0.56923 0.83214 0.0
H704 H 0.25399 0.67006 0.72036 0.0
H705 H 0.27358 0.66561 0.79144 0.0
H706 H 0.23725 0.56681 0.76746 0.0
H707 H 0.22018 0.57209 0.6964 0.0
C708 C 0.22929 0.61325 0.90248 0.0
C709 C 0.22397 0.58377 0.91579 0.0
C710 C 0.24338 0.6257 0.86243 0.0
C711 C 0.25277 0.60907 0.83474 0.0
C712 C 0.25192 0.58202 0.85143 0.0
C713 C 0.2371 0.56916 0.89126 0.0
C714 C 0.2516 0.64782 0.72982 0.0
C715 C 0.23473 0.62123 0.70355 0.0
C716 C 0.26249 0.64508 0.77076 0.0
C717 C 0.25539 0.61543 0.78674 0.0
C718 C 0.24294 0.59005 0.75731 0.0
C719 C 0.23291 0.59301 0.71607 0.0
H720 H 0.37048 0.93486 1.0183 0.0
H721 H 0.45989 0.94027 1.02616 0.0
H722 H 0.38244 0.96637 1.08564 0.0
H723 H 0.47242 0.97276 1.09216 0.0
H724 H 0.50015 0.0562 0.19379 0.0
H725 H 0.48676 0.02387 1.12727 0.0
H726 H 0.39058 0.97309 0.16804 0.0
H727 H 0.40439 0.00475 0.23546 0.0
C728 C 0.39286 0.94259 1.03385 0.0
C729 C 0.4137 0.93371 1.01469 0.0
C730 C 0.3999 0.9611 1.07355 0.0
C731 C 0.42886 0.9733 1.09678 0.0
C732 C 0.44985 0.96482 1.07706 0.0
C733 C 0.44242 0.94555 1.03824 0.0
C734 C 0.47614 0.03773 0.18956 0.0
C735 C 0.4541 0.03363 0.22276 0.0
C736 C 0.46819 0.0188 0.15034 0.0
C737 C 0.43722 0.99438 0.14014 0.0
C738 C 0.41482 0.99094 0.17269 0.0
C739 C 0.42292 0.00959 0.2124 0.0
H740 H 0.50492 0.45571 0.37169 0.0
H741 H 0.41082 0.37968 0.35569 0.0
H742 H 0.49006 0.46956 0.44017 0.0
H743 H 0.39569 0.39428 0.42487 0.0
H744 H 0.37718 0.41743 0.57084 0.0
H745 H 0.38998 0.40073 0.50166 0.0
H746 H 0.47064 0.4924 0.48724 0.0
H747 H 0.45771 0.50894 0.55523 0.0
C748 C 0.48081 0.44177 0.38217 0.0
C749 C 0.45964 0.41615 0.35563 0.0
C750 C 0.47195 0.45024 0.42267 0.0
C751 C 0.44113 0.43415 0.44084 0.0
C752 C 0.41982 0.40818 0.41436 0.0
C753 C 0.42867 0.39962 0.37348 0.0
C754 C 0.39774 0.43435 0.55314 0.0
C755 C 0.41596 0.46515 0.57094 0.0
C756 C 0.40528 0.42456 0.51224 0.0
C757 C 0.432 0.44455 0.4859 0.0
C758 C 0.45009 0.47519 0.50427 0.0
C759 C 0.44236 0.48508 0.54455 0.0
H760 H 0.04309 0.4165 0.69915 0.0
H761 H 0.04211 0.50297 0.70467 0.0
H762 H 0.01476 0.40048 0.76928 0.0
H763 H 0.0138 0.48711 0.77376 0.0
H764 H 0.94253 0.4468 0.88749 0.0
H765 H 0.97028 0.46014 0.81804 0.0
H766 H 0.00694 0.39956 0.84721 0.0
H767 H 0.97812 0.38538 0.91716 0.0
C768 C 0.03696 0.43237 0.71485 0.0
C769 C 0.0457 0.46151 0.69422 0.0
C770 C 0.02046 0.42306 0.75614 0.0
C771 C 0.01093 0.44193 0.77966 0.0
C772 C 0.01961 0.47094 0.75856 0.0
C773 C 0.03644 0.48039 0.71786 0.0
C774 C 0.95645 0.43607 0.87981 0.0
C775 C 0.95727 0.41465 0.91013 0.0
C776 C 0.97311 0.44424 0.83902 0.0
C777 C 0.99227 0.43193 0.82479 0.0
C778 C 0.99294 0.41017 0.85497 0.0
C779 C 0.97615 0.40191 0.89614 0.0
H780 H 0.54471 0.94162 0.18832 0.0
H781 H 0.51334 -0.00045 0.24862 0.0
H782 H 0.5579 0.97333 1.12158 0.0
H783 H 0.5293 0.03297 0.18364 0.0
H784 H 0.56322 0.09838 1.05947 0.0
H785 H 0.55151 0.06769 1.12719 0.0
H786 H 0.55511 0.99422 1.05628 0.0
H787 H 0.56695 0.02491 0.98952 0.0
C788 C 0.54065 0.96123 0.18799 0.0
C789 C 0.52725 0.96683 0.22579 0.0
C790 C 0.54825 0.97992 0.14855 0.0
C791 C 0.5441 0.00653 0.14393 0.0
C792 C 0.53202 0.0127 0.18274 0.0
C793 C 0.52309 0.99325 0.22137 0.0
C794 C 0.56166 0.07574 1.05785 0.0
C795 C 0.56653 0.06523 1.01672 0.0
C796 C 0.55466 0.05747 1.09776 0.0
C797 C 0.55204 0.02716 1.1001 0.0
C798 C 0.55693 0.01692 1.05874 0.0
C799 C 0.56378 0.03504 1.01909 0.0
H800 H 0.53892 0.48664 0.55075 0.0
H801 H 0.61078 0.5815 0.57536 0.0
H802 H 0.5255 0.50305 0.48349 0.0
H803 H 0.59693 0.59817 0.50713 0.0
H804 H 0.57523 0.62235 0.36425 0.0
H805 H 0.5912 0.60793 0.43253 0.0
H806 H 0.50353 0.52142 0.43492 0.0
H807 H 0.48775 0.53574 0.36777 0.0
C808 C 0.55212 0.51122 0.54231 0.0
C809 C 0.5764 0.53209 0.57092 0.0
C810 C 0.54396 0.521 0.50244 0.0
C811 C 0.55918 0.55256 0.48686 0.0
C812 C 0.5838 0.57356 0.51547 0.0
C813 C 0.59195 0.56378 0.5558 0.0
C814 C 0.55906 0.6001 0.37906 0.0
C815 C 0.52961 0.58068 0.35813 0.0
C816 C 0.56841 0.5916 0.41949 0.0
C817 C 0.54929 0.56274 0.44228 0.0
C818 C 0.52003 0.54357 0.42078 0.0
C819 C 0.51058 0.55213 0.38094 0.0
H820 H 0.03515 0.52962 0.89675 0.0
H821 H 0.03344 0.6157 0.90278 0.0
H822 H 0.00605 0.51606 0.82878 0.0
H823 H 0.00384 0.60198 0.8336 0.0
H824 H 0.96317 0.57775 0.68791 0.0
H825 H 0.99271 0.59375 0.75696 0.0
H826 H 0.9635 0.49746 0.78377 0.0
H827 H 0.93474 0.4818 0.71521 0.0
C828 C 0.0287 0.54604 0.88395 0.0
C829 C 0.03764 0.5742 0.90751 0.0
C830 C 0.01128 0.53789 0.84381 0.0
C831 C 0.0013 0.55723 0.82305 0.0
C832 C 0.01043 0.5857 0.84644 0.0
C833 C 0.02773 0.59378 0.88721 0.0
C834 C 0.96289 0.55972 0.70828 0.0
C835 C 0.94569 0.52797 0.69381 0.0
C836 C 0.98017 0.56907 0.74898 0.0
C837 C 0.98187 0.54747 0.7784 0.0
C838 C 0.96443 0.51579 0.76366 0.0
C839 C 0.94716 0.50647 0.7233 0.0
H840 H 0.4601 0.05253 0.47514 0.0
H841 H 0.44616 0.9756 0.39452 0.0
H842 H 0.48123 0.03471 0.53286 0.0
H843 H 0.45331 0.95111 0.45987 0.0
H844 H 0.53552 0.01879 0.39429 0.0
H845 H 0.52861 0.0433 0.45992 0.0
H846 H 0.50029 0.95949 0.53251 0.0
H847 H 0.52003 0.94092 0.47399 0.0
C848 C 0.4611 0.03166 0.46976 0.0
C849 C 0.45825 0.01898 0.4276 0.0
C850 C 0.471 0.02022 0.50424 0.0
C851 C 0.47461 0.99431 0.49648 0.0
C852 C 0.45587 0.97409 0.46273 0.0
C853 C 0.45094 0.98767 0.42555 0.0
C854 C 0.53068 0.00664 0.42525 0.0
C855 C 0.52312 0.97525 0.42704 0.0
C856 C 0.52593 0.02027 0.46265 0.0
C857 C 0.50724 8e-05 0.49651 0.0
C858 C 0.51063 0.97402 0.50394 0.0
C859 C 0.51997 0.9623 0.46905 0.0
H860 H 0.46669 0.45617 0.73761 0.0
H861 H 0.41279 0.47833 0.82561 0.0
H862 H 0.49888 0.45869 0.79967 0.0
H863 H 0.45273 0.49352 0.88111 0.0
H864 H 0.5802 0.51826 0.82409 0.0
H865 H 0.54053 0.50301 0.88024 0.0
H866 H 0.49394 0.53775 0.8001 0.0
H867 H 0.5256 0.53989 0.73717 0.0
C868 C 0.46132 0.46146 0.76971 0.0
C869 C 0.44017 0.4723 0.7749 0.0
C870 C 0.48008 0.46347 0.80534 0.0
C871 C 0.48199 0.48272 0.84081 0.0
C872 C 0.45448 0.48272 0.85124 0.0
C873 C 0.43274 0.47619 0.81807 0.0
C874 C 0.5601 0.52015 0.81687 0.0
C875 C 0.55239 0.52389 0.77385 0.0
C876 C 0.53856 0.51369 0.85044 0.0
C877 C 0.51105 0.51375 0.84059 0.0
C878 C 0.51271 0.53287 0.80517 0.0
C879 C 0.53117 0.53468 0.76913 0.0
H880 H 0.95319 0.40792 0.14663 0.0
H881 H 0.02178 0.47967 1.06244 0.0
H882 H 0.96733 0.44597 0.2047 0.0
H883 H 0.04214 0.51418 1.12576 0.0
H884 H 0.03584 0.5806 0.14614 0.0
H885 H 0.01982 0.54266 0.20478 0.0
H886 H 0.94792 0.47423 1.12263 0.0
H887 H 0.97053 0.50861 1.05954 0.0
C888 C 0.97278 0.43123 0.1412 0.0
C889 C 0.98321 0.4426 1.09842 0.0
C890 C 0.9816 0.45274 0.17543 0.0
C891 C 0.00174 0.48438 0.16592 0.0
C892 C 0.02284 0.49063 0.13082 0.0
C893 C 0.01143 0.47095 1.09421 0.0
C894 C 0.01667 0.5572 0.14012 0.0
C895 C 0.00786 0.54568 1.09707 0.0
C896 C 0.00667 0.53579 0.17458 0.0
C897 C 0.98682 0.50414 0.16485 0.0
C898 C 0.96701 0.49779 1.12823 0.0
C899 C 0.97975 0.51738 1.09175 0.0
H900 H 0.05734 0.47024 0.44352 0.0
H901 H 0.98282 0.45133 0.53279 0.0
H902 H 0.0337 0.4873 0.38877 0.0
H903 H 0.95333 0.45475 0.47108 0.0
H904 H 0.00783 0.53456 0.53302 0.0
H905 H 0.03785 0.53246 0.4705 0.0
H906 H 0.95767 0.49964 0.38852 0.0
H907 H 0.93372 0.51621 0.44382 0.0
C908 C 0.03583 0.46925 0.4515 0.0
C909 C 0.025 0.46593 0.49487 0.0
C910 C 0.02113 0.47677 0.41874 0.0
C911 C 0.99416 0.47769 0.42955 0.0
C912 C 0.97664 0.45879 0.46518 0.0
C913 C 0.99323 0.45619 0.50053 0.0
C914 C -0.00253 0.52978 0.50078 0.0
C915 C 0.96567 0.51985 0.49518 0.0
C916 C 0.01434 0.52788 0.46508 0.0
C917 C -0.00298 0.50906 0.42934 0.0
C918 C 0.96998 0.5098 0.41874 0.0
C919 C 0.955 0.51682 0.45181 0.0
H920 H 0.44236 0.97615 0.9269 0.0
H921 H 0.41891 0.9476 0.79269 0.0
H922 H 0.43107 0.01787 0.91527 0.0
H923 H 0.40842 0.99005 0.78011 0.0
H924 H 0.47854 0.08851 0.91515 0.0
H925 H 0.42596 0.0637 0.8847 0.0
H926 H 0.45778 0.03893 0.77012 0.0
H927 H 0.51035 0.06146 0.80022 0.0
C928 C 0.4354 0.97934 0.89468 0.0
C929 C 0.43423 0.96071 0.85973 0.0
C930 C 0.42789 0.00266 0.88793 0.0
C931 C 0.4219 0.00936 0.84514 0.0
C932 C 0.41472 0.9867 0.8127 0.0
C933 C 0.42195 0.96321 0.81949 0.0
C934 C 0.47442 0.07722 0.88359 0.0
C935 C 0.4974 0.07256 0.86283 0.0
C936 C 0.44459 0.06437 0.86511 0.0
C937 C 0.43745 0.04276 0.83117 0.0
C938 C 0.46226 0.05009 0.80182 0.0
C939 C 0.49219 0.06201 0.81942 0.0
H940 H 0.51776 0.58533 1.1066 0.0
H941 H 0.53878 0.53273 0.19808 0.0
H942 H 0.49992 0.54321 1.0541 0.0
H943 H 0.53287 0.49708 0.13913 0.0
H944 H 0.45146 0.46485 0.19638 0.0
H945 H 0.45652 0.50122 0.13895 0.0
H946 H 0.492 0.4588 1.05108 0.0
H947 H 0.47666 0.41662 1.10246 0.0
C948 C 0.51958 0.56539 1.11525 0.0
C949 C 0.52383 0.55921 0.15882 0.0
C950 C 0.51123 0.54215 1.0838 0.0
C951 C 0.51072 0.5147 1.09578 0.0
C952 C 0.52958 0.5166 0.13166 0.0
C953 C 0.53347 0.53731 0.16557 0.0
C954 C 0.45732 0.46127 0.1636 0.0
C955 C 0.46802 0.44029 0.15565 0.0
C956 C 0.46061 0.48232 0.13053 0.0
C957 C 0.47998 0.48559 1.09449 0.0
C958 C 0.48032 0.45882 1.08107 0.0
C959 C 0.47317 0.43542 1.11181 0.0
H960 H 0.28283 0.9281 0.68041 0.0
H961 H 0.30696 0.00502 0.7689 0.0
H962 H 0.28139 0.9592 0.62031 0.0
H963 H 0.30443 0.03612 0.70875 0.0
H964 H 0.36741 0.08615 0.58441 0.0
H965 H 0.34314 0.05963 0.65214 0.0
H966 H 0.26369 0.98901 0.58021 0.0
H967 H 0.28888 0.01477 0.51213 0.0
C968 C 0.28693 0.95142 0.68713 0.0
C969 C 0.29587 0.9645 0.72891 0.0
C970 C 0.28564 0.96916 0.65279 0.0
C971 C 0.29328 0.00041 0.65959 0.0
C972 C 0.2989 0.01229 0.7024 0.0
C973 C 0.30022 0.99446 0.73684 0.0
C974 C 0.34439 0.0654 0.58317 0.0
C975 C 0.33058 0.05192 0.54297 0.0
C976 C 0.3302 0.05036 0.6221 0.0
C977 C 0.30183 0.02166 0.62147 0.0
C978 C 0.28593 0.01068 0.58161 0.0
C979 C 0.30028 0.02561 0.54259 0.0
H980 H 0.28824 0.27744 1.0889 0.0
H981 H 0.3561 0.27639 1.00071 0.0
H982 H 0.25768 0.27797 1.02692 0.0
H983 H 0.32633 0.2781 0.93891 0.0
H984 H 0.28188 0.29444 0.83171 0.0
H985 H 0.2812 0.26173 0.89174 0.0
H986 H 0.27556 0.32521 0.98375 0.0
H987 H 0.27521 0.35715 0.92383 0.0
C988 C 0.29603 0.27614 1.05629 0.0
C989 C 0.32498 0.27777 1.04947 0.0
C990 C 0.2786 0.27661 1.02081 0.0
C991 C 0.28997 0.27888 0.97811 0.0
C992 C 0.31684 0.27639 0.97135 0.0
C993 C 0.3342 0.27584 1.00678 0.0
C994 C 0.27914 0.30062 0.8647 0.0
C995 C 0.27938 0.32872 0.87334 0.0
C996 C 0.27889 0.28196 0.89905 0.0
C997 C 0.27898 0.2912 0.94246 0.0
C998 C 0.27542 0.31729 0.95072 0.0
C999 C 0.27567 0.33591 0.91643 0.0
H1000 H 0.98387 0.27673 0.17158 0.0
H1001 H 0.91304 0.26947 0.26155 0.0
H1002 H 0.01676 0.27979 0.23276 0.0
H1003 H 0.94621 0.2736 0.32258 0.0
H1004 H 0.07601 0.35855 0.33747 0.0
H1005 H 0.04392 0.32693 0.27707 0.0
H1006 H 0.97746 0.25935 0.36819 0.0
H1007 H 0.00923 0.2917 0.42879 0.0
C1008 C 0.97482 0.2746 0.2044 0.0
C1009 C 0.94627 0.27366 0.21198 0.0
C1010 C 0.99376 0.27655 0.23942 0.0
C1011 C 0.98443 0.27769 0.28242 0.0
C1012 C 0.95416 0.27278 0.28989 0.0
C1013 C 0.93525 0.2708 0.25492 0.0
C1014 C 0.05494 0.33655 0.34453 0.0
C1015 C 0.0447 0.32796 0.38767 0.0
C1016 C 0.03671 0.31815 0.30993 0.0
C1017 C 0.00786 0.29083 0.31791 0.0
C1018 C -0.00063 0.2805 0.36113 0.0
C1019 C 0.01766 0.29895 0.39578 0.0
H1020 H 0.65647 0.9705 0.76028 0.0
H1021 H 0.67808 0.04793 0.67398 0.0
H1022 H 0.66681 0.9437 0.70124 0.0
H1023 H 0.68667 0.02072 0.61471 0.0
H1024 H 0.69004 0.97316 0.50623 0.0
H1025 H 0.71113 -0.003 0.57665 0.0
H1026 H 0.63406 0.91782 0.64092 0.0
H1027 H 0.61433 0.89316 0.57081 0.0
C1028 C 0.66403 0.98207 0.72895 0.0
C1029 C 0.66557 0.01089 0.72129 0.0
C1030 C 0.66986 0.96667 0.6951 0.0
C1031 C 0.67708 0.97972 0.65298 0.0
C1032 C 0.6814 0.00989 0.64665 0.0
C1033 C 0.67579 0.0253 0.68045 0.0
C1034 C 0.67854 0.96005 0.53544 0.0
C1035 C 0.64975 0.93189 0.53307 0.0
C1036 C 0.69048 0.97391 0.57588 0.0
C1037 C 0.67346 0.96008 0.61426 0.0
C1038 C 0.64763 0.92949 0.6121 0.0
C1039 C 0.636 0.91543 0.57175 0.0
H1040 H 0.69872 0.71236 1.09582 0.0
H1041 H 0.63485 0.71817 1.00535 0.0
H1042 H 0.72935 0.71009 1.03484 0.0
H1043 H 0.66472 0.7149 0.94454 0.0
H1044 H 0.71142 0.69944 0.83857 0.0
H1045 H 0.71121 0.731 0.89968 0.0
H1046 H 0.71062 0.66333 0.98966 0.0
H1047 H 0.71188 0.63247 0.92872 0.0
C1048 C 0.69187 0.71428 1.06292 0.0
C1049 C 0.66402 0.71468 1.05514 0.0
C1050 C 0.70932 0.71282 1.02804 0.0
C1051 C 0.69912 0.71167 0.98496 0.0
C1052 C 0.67333 0.71581 0.97731 0.0
C1053 C 0.65592 0.71727 1.01213 0.0
C1054 C 0.7126 0.69203 0.87143 0.0
C1055 C 0.71092 0.66315 0.87906 0.0
C1056 C 0.71232 0.71003 0.90639 0.0
C1057 C 0.71027 0.69936 0.9494 0.0
C1058 C 0.71229 0.67232 0.95694 0.0
C1059 C 0.71258 0.65436 0.92204 0.0
H1060 H 0.9699 0.68672 0.14447 0.0
H1061 H 0.05286 0.71824 0.22309 0.0
H1062 H 0.93989 0.68333 0.2098 0.0
H1063 H 0.0231 0.71415 0.28809 0.0
H1064 H 0.90058 0.61416 0.32927 0.0
H1065 H 0.9238 0.64244 0.26227 0.0
H1066 H 0.9905 0.72271 0.33701 0.0
H1067 H 0.96808 0.69358 0.40426 0.0
C1068 C 0.98187 0.69381 0.17557 0.0
C1069 C 0.01345 0.70203 0.17902 0.0
C1070 C 0.96473 0.69184 0.21294 0.0
C1071 C 0.97885 0.69759 0.25431 0.0
C1072 C 0.01137 0.70959 0.25686 0.0
C1073 C 0.02853 0.71185 0.21949 0.0
C1074 C 0.91985 0.63804 0.33138 0.0
C1075 C 0.9331 0.6513 0.37187 0.0
C1076 C 0.93291 0.65455 0.29293 0.0
C1077 C 0.95944 0.68475 0.29421 0.0
C1078 C 0.97044 0.69928 0.33494 0.0
C1079 C 0.95745 0.68265 0.37348 0.0
H1080 H 0.47433 0.10836 0.5262 0.0
H1081 H 0.55825 0.10841 0.48889 0.0
H1082 H 0.48959 0.11214 0.60362 0.0
H1083 H 0.57338 0.11195 0.56535 0.0
H1084 H 0.59033 0.09842 0.71218 0.0
H1085 H 0.57419 0.09507 0.63589 0.0
H1086 H 0.51678 0.13457 0.67077 0.0
H1087 H 0.53325 0.13801 0.74737 0.0
C1088 C 0.49622 0.10936 0.53379 0.0
C1089 C 0.51474 0.10834 0.49862 0.0
C1090 C 0.50528 0.1116 0.57939 0.0
C1091 C 0.53336 0.11247 0.5938 0.0
C1092 C 0.55154 0.11117 0.55838 0.0
C1093 C 0.54272 0.10935 0.51307 0.0
C1094 C 0.57436 0.10669 0.70419 0.0
C1095 C 0.56388 0.11886 0.73844 0.0
C1096 C 0.56488 0.10484 0.65909 0.0
C1097 C 0.54364 0.11456 0.64404 0.0
C1098 C 0.53285 0.12642 0.67854 0.0
C1099 C 0.5427 0.12865 0.72368 0.0
H1100 H 0.45601 0.57834 0.83321 0.0
H1101 H 0.37718 0.49262 0.8782 0.0
H1102 H 0.47146 0.59523 0.90839 0.0
H1103 H 0.39269 0.50935 0.95417 0.0
H1104 H 0.41727 0.54881 1.09757 0.0
H1105 H 0.40138 0.53205 1.02233 0.0
H1106 H 0.49193 0.60383 0.97752 0.0
H1107 H 0.50759 0.62067 1.05331 0.0
C1108 C 0.44145 0.56273 0.85886 0.0
C1109 C 0.41458 0.53366 0.84681 0.0
C1110 C 0.45076 0.57263 0.90349 0.0
C1111 C 0.43406 0.55447 0.94076 0.0
C1112 C 0.40702 0.52526 0.92869 0.0
C1113 C 0.39776 0.51526 0.88379 0.0
C1114 C 0.43412 0.56156 1.07206 0.0
C1115 C 0.46418 0.58691 1.08428 0.0
C1116 C 0.4248 0.55145 1.02745 0.0
C1117 C 0.44461 0.56579 0.99045 0.0
C1118 C 0.47477 0.59135 1.00272 0.0
C1119 C 0.48415 0.60138 1.04754 0.0
H1120 H 0.88193 0.45045 0.16935 0.0
H1121 H 0.89426 0.37529 0.21574 0.0
H1122 H 0.8795 0.46593 0.24395 0.0
H1123 H 0.89215 0.39096 0.29142 0.0
H1124 H 0.87593 0.41546 0.43367 0.0
H1125 H 0.8779 0.39939 0.35898 0.0
H1126 H 0.88967 0.48683 0.31199 0.0
H1127 H 0.88726 0.50258 0.38727 0.0
C1128 C 0.88407 0.43676 0.19527 0.0
C1129 C 0.888 0.41085 0.18391 0.0
C1130 C 0.88286 0.44609 0.23954 0.0
C1131 C 0.8855 0.43043 0.277 0.0
C1132 C 0.88953 0.40439 0.26564 0.0
C1133 C 0.89081 0.39505 0.22101 0.0
C1134 C 0.87865 0.43152 0.40775 0.0
C1135 C 0.88095 0.46069 0.41905 0.0
C1136 C 0.8801 0.42212 0.36352 0.0
C1137 C 0.88399 0.44104 0.32618 0.0
C1138 C 0.88628 0.47036 0.33756 0.0
C1139 C 0.88487 0.47979 0.38202 0.0
H1140 H 0.50981 0.89103 0.52344 0.0
H1141 H 0.41993 0.87673 0.48514 0.0
H1142 H 0.49471 0.88824 0.60073 0.0
H1143 H 0.40475 0.87381 0.56151 0.0
H1144 H 0.38423 0.88672 0.70698 0.0
H1145 H 0.4 0.88924 0.63053 0.0
H1146 H 0.47158 0.86878 0.6693 0.0
H1147 H 0.45567 0.86641 0.74585 0.0
C1148 C 0.48662 0.88699 0.53084 0.0
C1149 C 0.46646 0.88386 0.49548 0.0
C1150 C 0.47763 0.88533 0.57637 0.0
C1151 C 0.44787 0.88074 0.59045 0.0
C1152 C 0.42794 0.87769 0.5548 0.0
C1153 C 0.4368 0.87911 0.50957 0.0
C1154 C 0.40329 0.88252 0.69976 0.0
C1155 C 0.41799 0.87606 0.73505 0.0
C1156 C 0.4126 0.88389 0.65461 0.0
C1157 C 0.43766 0.8792 0.64061 0.0
C1158 C 0.45246 0.87291 0.67616 0.0
C1159 C 0.44297 0.87131 0.72131 0.0
H1160 H 0.61503 0.50299 0.87685 0.0
H1161 H 0.53553 0.41824 0.83086 0.0
H1162 H 0.59878 0.48603 0.95265 0.0
H1163 H 0.51934 0.40117 0.90583 0.0
H1164 H 0.48147 0.37656 1.05013 0.0
H1165 H 0.49802 0.39357 0.97459 0.0
H1166 H 0.5896 0.46209 1.02029 0.0
H1167 H 0.57285 0.44515 1.09535 0.0
C1168 C 0.59416 0.48052 0.88219 0.0
C1169 C 0.57737 0.46244 0.84503 0.0
C1170 C 0.58447 0.4704 0.92695 0.0
C1171 C 0.557 0.44142 0.93861 0.0
C1172 C 0.54034 0.42359 0.90117 0.0
C1173 C 0.55009 0.43359 0.8567 0.0
C1174 C 0.50533 0.39512 1.0446 0.0
C1175 C 0.52531 0.40866 1.08149 0.0
C1176 C 0.51522 0.40525 0.99996 0.0
C1177 C 0.54594 0.42998 0.98808 0.0
C1178 C 0.56578 0.44337 1.02521 0.0
C1179 C 0.55595 0.43316 1.06966 0.0
H1180 H 0.11475 0.57216 0.43361 0.0
H1181 H 0.10402 0.48503 0.38794 0.0
H1182 H 0.11225 0.5876 0.35886 0.0
H1183 H 0.10116 0.50025 0.31246 0.0
H1184 H 0.11142 0.53845 0.16955 0.0
H1185 H 0.11404 0.52289 0.2443 0.0
H1186 H 0.09423 0.59315 0.29235 0.0
H1187 H 0.09191 0.60881 0.21694 0.0
C1188 C 0.11204 0.55597 0.40783 0.0
C1189 C 0.11004 0.52699 0.4193 0.0
C1190 C 0.11025 0.56497 0.36362 0.0
C1191 C 0.10638 0.54585 0.32652 0.0
C1192 C 0.10448 0.51676 0.33799 0.0
C1193 C 0.10613 0.50767 0.38248 0.0
C1194 C 0.10768 0.55099 0.19571 0.0
C1195 C 0.1017 0.57561 0.18479 0.0
C1196 C 0.10902 0.54165 0.23992 0.0
C1197 C 0.10454 0.55614 0.27746 0.0
C1198 C 0.09841 0.5808 0.26644 0.0
C1199 C 0.09694 0.59008 0.222 0.0
loop_
_geom_bond_atom_site_label_1
_geom_bond_atom_site_label_2
_geom_bond_distance
_geom_bond_site_symmetry_2
_ccdc_geom_bond_type
Gd0 C3 2.818 . S
Gd0 O20 2.377 . S
Gd0 O22 2.448 . S
Gd0 O23 2.506 . S
Gd0 O24 2.435 . S
Gd0 O25 2.717 . S
Gd0 O27 2.395 . S
Gd0 O31 2.327 . S
Gd1 C12 2.818 . S
Gd1 O21 2.395 . S
Gd1 O25 2.327 . S
Gd1 O26 2.377 . S
Gd1 O28 2.448 . S
Gd1 O29 2.506 . S
Gd1 O30 2.435 . S
Gd1 O31 2.717 . S
C2 O20 1.240 . S
C2 O21 1.240 . S
C3 Gd0 2.818 . S
C3 C4 1.510 . S
C3 O22 1.249 . S
C3 O23 1.252 . S
C4 C3 1.510 . S
C4 C5 1.404 . S
C4 C6 1.352 . S
C5 C4 1.404 . S
C5 C9 1.389 . S
C5 H32 0.930 . S
C6 C4 1.352 . S
C6 C8 1.374 . S
C6 H33 0.931 . S
C7 C8 1.359 . S
C7 C9 1.364 . S
C8 C6 1.374 . S
C8 C7 1.359 . S
C8 H34 0.931 . S
C9 C5 1.389 . S
C9 C7 1.364 . S
C9 H35 0.931 . S
C10 O24 1.256 . S
C10 O25 1.257 . S
C11 O26 1.240 . S
C11 O27 1.240 . S
C12 Gd1 2.818 . S
C12 C13 1.510 . S
C12 O28 1.249 . S
C12 O29 1.252 . S
C13 C12 1.510 . S
C13 C14 1.404 . S
C13 C15 1.352 . S
C14 C13 1.404 . S
C14 C18 1.389 . S
C14 H36 0.930 . S
C15 C13 1.352 . S
C15 C17 1.374 . S
C15 H37 0.931 . S
C16 C17 1.359 . S
C16 C18 1.364 . S
C17 C15 1.374 . S
C17 C16 1.359 . S
C17 H38 0.931 . S
C18 C14 1.389 . S
C18 C16 1.364 . S
C18 H39 0.931 . S
C19 O30 1.256 . S
C19 O31 1.257 . S
O20 Gd0 2.377 . S
O20 C2 1.240 . S
O21 Gd1 2.395 . S
O21 C2 1.240 . S
O22 Gd0 2.448 . S
O22 C3 1.249 . S
O23 Gd0 2.506 . S
O23 C3 1.252 . S
O24 Gd0 2.435 . S
O24 C10 1.256 . S
O25 Gd0 2.717 . S
O25 Gd1 2.327 . S
O25 C10 1.257 . S
O26 Gd1 2.377 . S
O26 C11 1.240 . S
O27 Gd0 2.395 . S
O27 C11 1.240 . S
O28 Gd1 2.448 . S
O28 C12 1.249 . S
O29 Gd1 2.506 . S
O29 C12 1.252 . S
O30 Gd1 2.435 . S
O30 C19 1.256 . S
O31 Gd0 2.327 . S
O31 Gd1 2.717 . S
O31 C19 1.257 . S
H32 C5 0.930 . S
H33 C6 0.931 . S
H34 C8 0.931 . S
H35 C9 0.931 . S
H36 C14 0.930 . S
H37 C15 0.931 . S
H38 C17 0.931 . S
H39 C18 0.931 . S
Gd40 C43 2.818 . S
Gd40 O60 2.377 . S
Gd40 O62 2.448 . S
Gd40 O63 2.506 . S
Gd40 O64 2.435 . S
Gd40 O65 2.717 . S
Gd40 O67 2.395 . S
Gd40 O71 2.327 . S
Gd41 C52 2.818 . S
Gd41 O61 2.395 . S
Gd41 O65 2.327 . S
Gd41 O66 2.377 . S
Gd41 O68 2.448 . S
Gd41 O69 2.506 . S
Gd41 O70 2.435 . S
Gd41 O71 2.717 . S
C42 O60 1.240 . S
C42 O61 1.240 . S
C43 Gd40 2.818 . S
C43 C44 1.510 . S
C43 O62 1.249 . S
C43 O63 1.252 . S
C44 C43 1.510 . S
C44 C45 1.404 . S
C44 C46 1.352 . S
C45 C44 1.404 . S
C45 C49 1.389 . S
C45 H72 0.930 . S
C46 C44 1.352 . S
C46 C48 1.374 . S
C46 H73 0.931 . S
C47 C48 1.359 . S
C47 C49 1.364 . S
C48 C46 1.374 . S
C48 C47 1.359 . S
C48 H74 0.931 . S
C49 C45 1.389 . S
C49 C47 1.364 . S
C49 H75 0.931 . S
C50 O64 1.256 . S
C50 O65 1.257 . S
C51 O66 1.240 . S
C51 O67 1.240 . S
C52 Gd41 2.818 . S
C52 C53 1.510 . S
C52 O68 1.249 . S
C52 O69 1.252 . S
C53 C52 1.510 . S
C53 C54 1.404 . S
C53 C55 1.352 . S
C54 C53 1.404 . S
C54 C58 1.389 . S
C54 H76 0.930 . S
C55 C53 1.352 . S
C55 C57 1.374 . S
C55 H77 0.931 . S
C56 C57 1.359 . S
C56 C58 1.364 . S
C57 C55 1.374 . S
C57 C56 1.359 . S
C57 H78 0.931 . S
C58 C54 1.389 . S
C58 C56 1.364 . S
C58 H79 0.931 . S
C59 O70 1.256 . S
C59 O71 1.257 . S
O60 Gd40 2.377 . S
O60 C42 1.240 . S
O61 Gd41 2.395 . S
O61 C42 1.240 . S
O62 Gd40 2.448 . S
O62 C43 1.249 . S
O63 Gd40 2.506 . S
O63 C43 1.252 . S
O64 Gd40 2.435 . S
O64 C50 1.256 . S
O65 Gd40 2.717 . S
O65 Gd41 2.327 . S
O65 C50 1.257 . S
O66 Gd41 2.377 . S
O66 C51 1.240 . S
O67 Gd40 2.395 . S
O67 C51 1.240 . S
O68 Gd41 2.448 . S
O68 C52 1.249 . S
O69 Gd41 2.506 . S
O69 C52 1.252 . S
O70 Gd41 2.435 . S
O70 C59 1.256 . S
O71 Gd40 2.327 . S
O71 Gd41 2.717 . S
O71 C59 1.257 . S
H72 C45 0.930 . S
H73 C46 0.931 . S
H74 C48 0.931 . S
H75 C49 0.931 . S
H76 C54 0.930 . S
H77 C55 0.931 . S
H78 C57 0.931 . S
H79 C58 0.931 . S
Gd80 C83 2.818 1_556 S
Gd80 O100 2.377 . S
Gd80 O102 2.448 . S
Gd80 O103 2.506 . S
Gd80 O104 2.435 . S
Gd80 O105 2.717 . S
Gd80 O107 2.395 . S
Gd80 O111 2.327 . S
Gd81 C92 2.818 . S
Gd81 O101 2.395 . S
Gd81 O105 2.327 . S
Gd81 O106 2.377 . S
Gd81 O108 2.448 . S
Gd81 O109 2.506 . S
Gd81 O110 2.435 . S
Gd81 O111 2.717 . S
C82 O100 1.240 . S
C82 O101 1.240 . S
C83 Gd80 2.818 1_554 S
C83 C84 1.510 . S
C83 O102 1.249 1_554 S
C83 O103 1.252 1_554 S
C84 C83 1.510 . S
C84 C85 1.404 . S
C84 C86 1.352 . S
C85 C84 1.404 . S
C85 C89 1.389 . S
C85 H112 0.930 . S
C86 C84 1.352 . S
C86 C88 1.374 . S
C86 H113 0.931 . S
C87 C88 1.359 . S
C87 C89 1.364 . S
C88 C86 1.374 . S
C88 C87 1.359 . S
C88 H114 0.931 . S
C89 C85 1.389 . S
C89 C87 1.364 . S
C89 H115 0.931 . S
C90 O104 1.256 . S
C90 O105 1.257 . S
C91 O106 1.240 . S
C91 O107 1.240 . S
C92 Gd81 2.818 . S
C92 C93 1.510 . S
C92 O108 1.249 . S
C92 O109 1.252 . S
C93 C92 1.510 . S
C93 C94 1.404 . S
C93 C95 1.352 . S
C94 C93 1.404 . S
C94 C98 1.389 . S
C94 H116 0.930 . S
C95 C93 1.352 . S
C95 C97 1.374 . S
C95 H117 0.931 . S
C96 C97 1.359 . S
C96 C98 1.364 . S
C97 C95 1.374 . S
C97 C96 1.359 . S
C97 H118 0.931 . S
C98 C94 1.389 . S
C98 C96 1.364 . S
C98 H119 0.931 . S
C99 O110 1.256 . S
C99 O111 1.257 . S
O100 Gd80 2.377 . S
O100 C82 1.240 . S
O101 Gd81 2.395 . S
O101 C82 1.240 . S
O102 Gd80 2.448 . S
O102 C83 1.249 1_556 S
O103 Gd80 2.506 . S
O103 C83 1.252 1_556 S
O104 Gd80 2.435 . S
O104 C90 1.256 . S
O105 Gd80 2.717 . S
O105 Gd81 2.327 . S
O105 C90 1.257 . S
O106 Gd81 2.377 . S
O106 C91 1.240 . S
O107 Gd80 2.395 . S
O107 C91 1.240 . S
O108 Gd81 2.448 . S
O108 C92 1.249 . S
O109 Gd81 2.506 . S
O109 C92 1.252 . S
O110 Gd81 2.435 . S
O110 C99 1.256 . S
O111 Gd80 2.327 . S
O111 Gd81 2.717 . S
O111 C99 1.257 . S
H112 C85 0.930 . S
H113 C86 0.931 . S
H114 C88 0.931 . S
H115 C89 0.931 . S
H116 C94 0.930 . S
H117 C95 0.931 . S
H118 C97 0.931 . S
H119 C98 0.931 . S
Gd120 C123 2.818 . S
Gd120 O140 2.377 . S
Gd120 O142 2.448 . S
Gd120 O143 2.506 . S
Gd120 O144 2.435 . S
Gd120 O145 2.717 . S
Gd120 O147 2.395 . S
Gd120 O151 2.327 . S
Gd121 C132 2.818 . S
Gd121 O141 2.395 . S
Gd121 O145 2.327 . S
Gd121 O146 2.377 . S
Gd121 O148 2.448 . S
Gd121 O149 2.506 . S
Gd121 O150 2.435 . S
Gd121 O151 2.717 . S
C122 O140 1.240 . S
C122 O141 1.240 . S
C123 Gd120 2.818 . S
C123 C124 1.510 . S
C123 O142 1.249 . S
C123 O143 1.252 . S
C124 C123 1.510 . S
C124 C125 1.404 . S
C124 C126 1.352 . S
C125 C124 1.404 . S
C125 C129 1.389 . S
C125 H152 0.930 . S
C126 C124 1.352 . S
C126 C128 1.374 . S
C126 H153 0.931 . S
C127 C128 1.359 . S
C127 C129 1.364 . S
C128 C126 1.374 . S
C128 C127 1.359 . S
C128 H154 0.931 . S
C129 C125 1.389 . S
C129 C127 1.364 . S
C129 H155 0.931 . S
C130 O144 1.256 . S
C130 O145 1.257 . S
C131 O146 1.240 . S
C131 O147 1.240 . S
C132 Gd121 2.818 . S
C132 C133 1.510 . S
C132 O148 1.249 . S
C132 O149 1.252 . S
C133 C132 1.510 . S
C133 C134 1.404 . S
C133 C135 1.352 . S
C134 C133 1.404 . S
C134 C138 1.389 . S
C134 H156 0.930 . S
C135 C133 1.352 . S
C135 C137 1.374 . S
C135 H157 0.931 . S
C136 C137 1.359 . S
C136 C138 1.364 . S
C137 C135 1.374 . S
C137 C136 1.359 . S
C137 H158 0.931 . S
C138 C134 1.389 . S
C138 C136 1.364 . S
C138 H159 0.931 . S
C139 O150 1.256 . S
C139 O151 1.257 . S
O140 Gd120 2.377 . S
O140 C122 1.240 . S
O141 Gd121 2.395 . S
O141 C122 1.240 . S
O142 Gd120 2.448 . S
O142 C123 1.249 . S
O143 Gd120 2.506 . S
O143 C123 1.252 . S
O144 Gd120 2.435 . S
O144 C130 1.256 . S
O145 Gd120 2.717 . S
O145 Gd121 2.327 . S
O145 C130 1.257 . S
O146 Gd121 2.377 . S
O146 C131 1.240 . S
O147 Gd120 2.395 . S
O147 C131 1.240 . S
O148 Gd121 2.448 . S
O148 C132 1.249 . S
O149 Gd121 2.506 . S
O149 C132 1.252 . S
O150 Gd121 2.435 . S
O150 C139 1.256 . S
O151 Gd120 2.327 . S
O151 Gd121 2.717 . S
O151 C139 1.257 . S
H152 C125 0.930 . S
H153 C126 0.931 . S
H154 C128 0.931 . S
H155 C129 0.931 . S
H156 C134 0.930 . S
H157 C135 0.931 . S
H158 C137 0.931 . S
H159 C138 0.931 . S
Gd160 C163 2.818 . S
Gd160 O180 2.377 . S
Gd160 O182 2.448 . S
Gd160 O183 2.506 . S
Gd160 O184 2.435 . S
Gd160 O185 2.717 . S
Gd160 O187 2.395 . S
Gd160 O191 2.327 . S
Gd161 C172 2.818 . S
Gd161 O181 2.395 . S
Gd161 O185 2.327 . S
Gd161 O186 2.377 . S
Gd161 O188 2.448 . S
Gd161 O189 2.506 . S
Gd161 O190 2.435 . S
Gd161 O191 2.717 . S
C162 O180 1.240 . S
C162 O181 1.240 . S
C163 Gd160 2.818 . S
C163 C164 1.510 . S
C163 O182 1.249 . S
C163 O183 1.252 . S
C164 C163 1.510 . S
C164 C165 1.404 . S
C164 C166 1.352 . S
C165 C164 1.404 . S
C165 C169 1.389 . S
C165 H192 0.930 . S
C166 C164 1.352 . S
C166 C168 1.374 . S
C166 H193 0.931 . S
C167 C168 1.359 . S
C167 C169 1.364 . S
C168 C166 1.374 . S
C168 C167 1.359 . S
C168 H194 0.931 . S
C169 C165 1.389 . S
C169 C167 1.364 . S
C169 H195 0.931 . S
C170 O184 1.256 . S
C170 O185 1.257 . S
C171 O186 1.240 . S
C171 O187 1.240 . S
C172 Gd161 2.818 . S
C172 C173 1.510 . S
C172 O188 1.249 . S
C172 O189 1.252 . S
C173 C172 1.510 . S
C173 C174 1.404 . S
C173 C175 1.352 . S
C174 C173 1.404 . S
C174 C178 1.389 . S
C174 H196 0.930 . S
C175 C173 1.352 . S
C175 C177 1.374 . S
C175 H197 0.931 . S
C176 C177 1.359 . S
C176 C178 1.364 . S
C177 C175 1.374 . S
C177 C176 1.359 . S
C177 H198 0.931 . S
C178 C174 1.389 . S
C178 C176 1.364 . S
C178 H199 0.931 . S
C179 O190 1.256 . S
C179 O191 1.257 . S
O180 Gd160 2.377 . S
O180 C162 1.240 . S
O181 Gd161 2.395 . S
O181 C162 1.240 . S
O182 Gd160 2.448 . S
O182 C163 1.249 . S
O183 Gd160 2.506 . S
O183 C163 1.252 . S
O184 Gd160 2.435 . S
O184 C170 1.256 . S
O185 Gd160 2.717 . S
O185 Gd161 2.327 . S
O185 C170 1.257 . S
O186 Gd161 2.377 . S
O186 C171 1.240 . S
O187 Gd160 2.395 . S
O187 C171 1.240 . S
O188 Gd161 2.448 . S
O188 C172 1.249 . S
O189 Gd161 2.506 . S
O189 C172 1.252 . S
O190 Gd161 2.435 . S
O190 C179 1.256 . S
O191 Gd160 2.327 . S
O191 Gd161 2.717 . S
O191 C179 1.257 . S
H192 C165 0.930 . S
H193 C166 0.931 . S
H194 C168 0.931 . S
H195 C169 0.931 . S
H196 C174 0.930 . S
H197 C175 0.931 . S
H198 C177 0.931 . S
H199 C178 0.931 . S
Gd200 C203 2.818 1_556 S
Gd200 O220 2.377 . S
Gd200 O222 2.448 . S
Gd200 O223 2.506 . S
Gd200 O224 2.435 . S
Gd200 O225 2.717 . S
Gd200 O227 2.395 . S
Gd200 O231 2.327 . S
Gd201 C212 2.818 . S
Gd201 O221 2.395 . S
Gd201 O225 2.327 . S
Gd201 O226 2.377 . S
Gd201 O228 2.448 . S
Gd201 O229 2.506 . S
Gd201 O230 2.435 . S
Gd201 O231 2.717 . S
C202 O220 1.240 . S
C202 O221 1.240 . S
C203 Gd200 2.818 1_554 S
C203 C204 1.510 . S
C203 O222 1.249 1_554 S
C203 O223 1.252 1_554 S
C204 C203 1.510 . S
C204 C205 1.404 . S
C204 C206 1.352 . S
C205 C204 1.404 . S
C205 C209 1.389 . S
C205 H232 0.930 . S
C206 C204 1.352 . S
C206 C208 1.374 . S
C206 H233 0.931 . S
C207 C208 1.359 . S
C207 C209 1.364 . S
C208 C206 1.374 . S
C208 C207 1.359 . S
C208 H234 0.931 . S
C209 C205 1.389 . S
C209 C207 1.364 . S
C209 H235 0.931 . S
C210 O224 1.256 . S
C210 O225 1.257 . S
C211 O226 1.240 . S
C211 O227 1.240 . S
C212 Gd201 2.818 . S
C212 C213 1.510 . S
C212 O228 1.249 . S
C212 O229 1.252 . S
C213 C212 1.510 . S
C213 C214 1.404 . S
C213 C215 1.352 . S
C214 C213 1.404 . S
C214 C218 1.389 . S
C214 H236 0.930 . S
C215 C213 1.352 . S
C215 C217 1.374 . S
C215 H237 0.931 . S
C216 C217 1.359 . S
C216 C218 1.364 . S
C217 C215 1.374 . S
C217 C216 1.359 . S
C217 H238 0.931 . S
C218 C214 1.389 . S
C218 C216 1.364 . S
C218 H239 0.931 . S
C219 O230 1.256 . S
C219 O231 1.257 . S
O220 Gd200 2.377 . S
O220 C202 1.240 . S
O221 Gd201 2.395 . S
O221 C202 1.240 . S
O222 Gd200 2.448 . S
O222 C203 1.249 1_556 S
O223 Gd200 2.506 . S
O223 C203 1.252 1_556 S
O224 Gd200 2.435 . S
O224 C210 1.256 . S
O225 Gd200 2.717 . S
O225 Gd201 2.327 . S
O225 C210 1.257 . S
O226 Gd201 2.377 . S
O226 C211 1.240 . S
O227 Gd200 2.395 . S
O227 C211 1.240 . S
O228 Gd201 2.448 . S
O228 C212 1.249 . S
O229 Gd201 2.506 . S
O229 C212 1.252 . S
O230 Gd201 2.435 . S
O230 C219 1.256 . S
O231 Gd200 2.327 . S
O231 Gd201 2.717 . S
O231 C219 1.257 . S
H232 C205 0.930 . S
H233 C206 0.931 . S
H234 C208 0.931 . S
H235 C209 0.931 . S
H236 C214 0.930 . S
H237 C215 0.931 . S
H238 C217 0.931 . S
H239 C218 0.931 . S
Gd240 C243 2.818 . S
Gd240 O260 2.377 . S
Gd240 O262 2.448 . S
Gd240 O263 2.506 . S
Gd240 O264 2.435 . S
Gd240 O265 2.717 . S
Gd240 O267 2.395 . S
Gd240 O271 2.327 . S
Gd241 C252 2.818 . S
Gd241 O261 2.395 . S
Gd241 O265 2.327 . S
Gd241 O266 2.377 . S
Gd241 O268 2.448 . S
Gd241 O269 2.506 . S
Gd241 O270 2.435 . S
Gd241 O271 2.717 . S
C242 O260 1.240 . S
C242 O261 1.240 . S
C243 Gd240 2.818 . S
C243 C244 1.510 . S
C243 O262 1.249 . S
C243 O263 1.252 . S
C244 C243 1.510 . S
C244 C245 1.404 . S
C244 C246 1.352 . S
C245 C244 1.404 . S
C245 C249 1.389 . S
C245 H272 0.930 . S
C246 C244 1.352 . S
C246 C248 1.374 . S
C246 H273 0.931 . S
C247 C248 1.359 . S
C247 C249 1.364 . S
C248 C246 1.374 . S
C248 C247 1.359 . S
C248 H274 0.931 . S
C249 C245 1.389 . S
C249 C247 1.364 . S
C249 H275 0.931 . S
C250 O264 1.256 . S
C250 O265 1.257 . S
C251 O266 1.240 . S
C251 O267 1.240 . S
C252 Gd241 2.818 . S
C252 C253 1.510 . S
C252 O268 1.249 . S
C252 O269 1.252 . S
C253 C252 1.510 . S
C253 C254 1.404 . S
C253 C255 1.352 . S
C254 C253 1.404 . S
C254 C258 1.389 . S
C254 H276 0.930 . S
C255 C253 1.352 . S
C255 C257 1.374 . S
C255 H277 0.931 . S
C256 C257 1.359 . S
C256 C258 1.364 . S
C257 C255 1.374 . S
C257 C256 1.359 . S
C257 H278 0.931 . S
C258 C254 1.389 . S
C258 C256 1.364 . S
C258 H279 0.931 . S
C259 O270 1.256 . S
C259 O271 1.257 . S
O260 Gd240 2.377 . S
O260 C242 1.240 . S
O261 Gd241 2.395 . S
O261 C242 1.240 . S
O262 Gd240 2.448 . S
O262 C243 1.249 . S
O263 Gd240 2.506 . S
O263 C243 1.252 . S
O264 Gd240 2.435 . S
O264 C250 1.256 . S
O265 Gd240 2.717 . S
O265 Gd241 2.327 . S
O265 C250 1.257 . S
O266 Gd241 2.377 . S
O266 C251 1.240 . S
O267 Gd240 2.395 . S
O267 C251 1.240 . S
O268 Gd241 2.448 . S
O268 C252 1.249 . S
O269 Gd241 2.506 . S
O269 C252 1.252 . S
O270 Gd241 2.435 . S
O270 C259 1.256 . S
O271 Gd240 2.327 . S
O271 Gd241 2.717 . S
O271 C259 1.257 . S
H272 C245 0.930 . S
H273 C246 0.931 . S
H274 C248 0.931 . S
H275 C249 0.931 . S
H276 C254 0.930 . S
H277 C255 0.931 . S
H278 C257 0.931 . S
H279 C258 0.931 . S
Gd280 C283 2.818 . S
Gd280 O300 2.377 . S
Gd280 O302 2.448 . S
Gd280 O303 2.506 . S
Gd280 O304 2.435 . S
Gd280 O305 2.717 . S
Gd280 O307 2.395 . S
Gd280 O311 2.327 . S
Gd281 C292 2.818 . S
Gd281 O301 2.395 . S
Gd281 O305 2.327 . S
Gd281 O306 2.377 . S
Gd281 O308 2.448 . S
Gd281 O309 2.506 . S
Gd281 O310 2.435 . S
Gd281 O311 2.717 . S
C282 O300 1.240 . S
C282 O301 1.240 . S
C283 Gd280 2.818 . S
C283 C284 1.510 . S
C283 O302 1.249 . S
C283 O303 1.252 . S
C284 C283 1.510 . S
C284 C285 1.404 . S
C284 C286 1.352 . S
C285 C284 1.404 . S
C285 C289 1.389 . S
C285 H312 0.930 . S
C286 C284 1.352 . S
C286 C288 1.374 . S
C286 H313 0.931 . S
C287 C288 1.359 . S
C287 C289 1.364 . S
C288 C286 1.374 . S
C288 C287 1.359 . S
C288 H314 0.931 . S
C289 C285 1.389 . S
C289 C287 1.364 . S
C289 H315 0.931 . S
C290 O304 1.256 . S
C290 O305 1.257 . S
C291 O306 1.240 . S
C291 O307 1.240 . S
C292 Gd281 2.818 . S
C292 C293 1.510 . S
C292 O308 1.249 . S
C292 O309 1.252 . S
C293 C292 1.510 . S
C293 C294 1.404 . S
C293 C295 1.352 . S
C294 C293 1.404 . S
C294 C298 1.389 . S
C294 H316 0.930 . S
C295 C293 1.352 . S
C295 C297 1.374 . S
C295 H317 0.931 . S
C296 C297 1.359 . S
C296 C298 1.364 . S
C297 C295 1.374 . S
C297 C296 1.359 . S
C297 H318 0.931 . S
C298 C294 1.389 . S
C298 C296 1.364 . S
C298 H319 0.931 . S
C299 O310 1.256 . S
C299 O311 1.257 . S
O300 Gd280 2.377 . S
O300 C282 1.240 . S
O301 Gd281 2.395 . S
O301 C282 1.240 . S
O302 Gd280 2.448 . S
O302 C283 1.249 . S
O303 Gd280 2.506 . S
O303 C283 1.252 . S
O304 Gd280 2.435 . S
O304 C290 1.256 . S
O305 Gd280 2.717 . S
O305 Gd281 2.327 . S
O305 C290 1.257 . S
O306 Gd281 2.377 . S
O306 C291 1.240 . S
O307 Gd280 2.395 . S
O307 C291 1.240 . S
O308 Gd281 2.448 . S
O308 C292 1.249 . S
O309 Gd281 2.506 . S
O309 C292 1.252 . S
O310 Gd281 2.435 . S
O310 C299 1.256 . S
O311 Gd280 2.327 . S
O311 Gd281 2.717 . S
O311 C299 1.257 . S
H312 C285 0.930 . S
H313 C286 0.931 . S
H314 C288 0.931 . S
H315 C289 0.931 . S
H316 C294 0.930 . S
H317 C295 0.931 . S
H318 C297 0.931 . S
H319 C298 0.931 . S
Gd320 C323 2.818 1_554 S
Gd320 O340 2.377 . S
Gd320 O342 2.448 . S
Gd320 O343 2.506 . S
Gd320 O344 2.435 . S
Gd320 O345 2.717 . S
Gd320 O347 2.395 . S
Gd320 O351 2.327 . S
Gd321 C332 2.818 . S
Gd321 O341 2.395 . S
Gd321 O345 2.327 . S
Gd321 O346 2.377 . S
Gd321 O348 2.448 . S
Gd321 O349 2.506 . S
Gd321 O350 2.435 . S
Gd321 O351 2.717 . S
C322 O340 1.240 . S
C322 O341 1.240 . S
C323 Gd320 2.818 1_556 S
C323 C324 1.510 . S
C323 O342 1.249 1_556 S
C323 O343 1.252 1_556 S
C324 C323 1.510 . S
C324 C325 1.404 . S
C324 C326 1.352 . S
C325 C324 1.404 . S
C325 C329 1.389 . S
C325 H352 0.930 . S
C326 C324 1.352 . S
C326 C328 1.374 . S
C326 H353 0.931 . S
C327 C328 1.359 . S
C327 C329 1.364 . S
C328 C326 1.374 . S
C328 C327 1.359 . S
C328 H354 0.931 . S
C329 C325 1.389 . S
C329 C327 1.364 . S
C329 H355 0.931 . S
C330 O344 1.256 . S
C330 O345 1.257 . S
C331 O346 1.240 . S
C331 O347 1.240 . S
C332 Gd321 2.818 . S
C332 C333 1.510 . S
C332 O348 1.249 . S
C332 O349 1.252 . S
C333 C332 1.510 . S
C333 C334 1.404 . S
C333 C335 1.352 . S
C334 C333 1.404 . S
C334 C338 1.389 . S
C334 H356 0.930 . S
C335 C333 1.352 . S
C335 C337 1.374 . S
C335 H357 0.931 . S
C336 C337 1.359 . S
C336 C338 1.364 . S
C337 C335 1.374 . S
C337 C336 1.359 . S
C337 H358 0.931 . S
C338 C334 1.389 . S
C338 C336 1.364 . S
C338 H359 0.931 . S
C339 O350 1.256 . S
C339 O351 1.257 . S
O340 Gd320 2.377 . S
O340 C322 1.240 . S
O341 Gd321 2.395 . S
O341 C322 1.240 . S
O342 Gd320 2.448 . S
O342 C323 1.249 1_554 S
O343 Gd320 2.506 . S
O343 C323 1.252 1_554 S
O344 Gd320 2.435 . S
O344 C330 1.256 . S
O345 Gd320 2.717 . S
O345 Gd321 2.327 . S
O345 C330 1.257 . S
O346 Gd321 2.377 . S
O346 C331 1.240 . S
O347 Gd320 2.395 . S
O347 C331 1.240 . S
O348 Gd321 2.448 . S
O348 C332 1.249 . S
O349 Gd321 2.506 . S
O349 C332 1.252 . S
O350 Gd321 2.435 . S
O350 C339 1.256 . S
O351 Gd320 2.327 . S
O351 Gd321 2.717 . S
O351 C339 1.257 . S
H352 C325 0.930 . S
H353 C326 0.931 . S
H354 C328 0.931 . S
H355 C329 0.931 . S
H356 C334 0.930 . S
H357 C335 0.931 . S
H358 C337 0.931 . S
H359 C338 0.931 . S
Gd360 C363 2.818 . S
Gd360 O380 2.377 . S
Gd360 O382 2.448 . S
Gd360 O383 2.506 . S
Gd360 O384 2.435 . S
Gd360 O385 2.717 . S
Gd360 O387 2.395 . S
Gd360 O391 2.327 . S
Gd361 C372 2.818 . S
Gd361 O381 2.395 . S
Gd361 O385 2.327 . S
Gd361 O386 2.377 . S
Gd361 O388 2.448 . S
Gd361 O389 2.506 . S
Gd361 O390 2.435 . S
Gd361 O391 2.717 . S
C362 O380 1.240 . S
C362 O381 1.240 . S
C363 Gd360 2.818 . S
C363 C364 1.510 . S
C363 O382 1.249 . S
C363 O383 1.252 . S
C364 C363 1.510 . S
C364 C365 1.404 . S
C364 C366 1.352 . S
C365 C364 1.404 . S
C365 C369 1.389 . S
C365 H392 0.930 . S
C366 C364 1.352 . S
C366 C368 1.374 . S
C366 H393 0.931 . S
C367 C368 1.359 . S
C367 C369 1.364 . S
C368 C366 1.374 . S
C368 C367 1.359 . S
C368 H394 0.931 . S
C369 C365 1.389 . S
C369 C367 1.364 . S
C369 H395 0.931 . S
C370 O384 1.256 . S
C370 O385 1.257 . S
C371 O386 1.240 . S
C371 O387 1.240 . S
C372 Gd361 2.818 . S
C372 C373 1.510 . S
C372 O388 1.249 . S
C372 O389 1.252 . S
C373 C372 1.510 . S
C373 C374 1.404 . S
C373 C375 1.352 . S
C374 C373 1.404 . S
C374 C378 1.389 . S
C374 H396 0.930 . S
C375 C373 1.352 . S
C375 C377 1.374 . S
C375 H397 0.931 . S
C376 C377 1.359 . S
C376 C378 1.364 . S
C377 C375 1.374 . S
C377 C376 1.359 . S
C377 H398 0.931 . S
C378 C374 1.389 . S
C378 C376 1.364 . S
C378 H399 0.931 . S
C379 O390 1.256 . S
C379 O391 1.257 . S
O380 Gd360 2.377 . S
O380 C362 1.240 . S
O381 Gd361 2.395 . S
O381 C362 1.240 . S
O382 Gd360 2.448 . S
O382 C363 1.249 . S
O383 Gd360 2.506 . S
O383 C363 1.252 . S
O384 Gd360 2.435 . S
O384 C370 1.256 . S
O385 Gd360 2.717 . S
O385 Gd361 2.327 . S
O385 C370 1.257 . S
O386 Gd361 2.377 . S
O386 C371 1.240 . S
O387 Gd360 2.395 . S
O387 C371 1.240 . S
O388 Gd361 2.448 . S
O388 C372 1.249 . S
O389 Gd361 2.506 . S
O389 C372 1.252 . S
O390 Gd361 2.435 . S
O390 C379 1.256 . S
O391 Gd360 2.327 . S
O391 Gd361 2.717 . S
O391 C379 1.257 . S
H392 C365 0.930 . S
H393 C366 0.931 . S
H394 C368 0.931 . S
H395 C369 0.931 . S
H396 C374 0.930 . S
H397 C375 0.931 . S
H398 C377 0.931 . S
H399 C378 0.931 . S
Gd400 C403 2.818 . S
Gd400 O420 2.377 . S
Gd400 O422 2.448 . S
Gd400 O423 2.506 . S
Gd400 O424 2.435 . S
Gd400 O425 2.717 . S
Gd400 O427 2.395 . S
Gd400 O431 2.327 . S
Gd401 C412 2.818 . S
Gd401 O421 2.395 . S
Gd401 O425 2.327 . S
Gd401 O426 2.377 . S
Gd401 O428 2.448 . S
Gd401 O429 2.506 . S
Gd401 O430 2.435 . S
Gd401 O431 2.717 . S
C402 O420 1.240 . S
C402 O421 1.240 . S
C403 Gd400 2.818 . S
C403 C404 1.510 . S
C403 O422 1.249 . S
C403 O423 1.252 . S
C404 C403 1.510 . S
C404 C405 1.404 . S
C404 C406 1.352 . S
C405 C404 1.404 . S
C405 C409 1.389 . S
C405 H432 0.930 . S
C406 C404 1.352 . S
C406 C408 1.374 . S
C406 H433 0.931 . S
C407 C408 1.359 . S
C407 C409 1.364 . S
C408 C406 1.374 . S
C408 C407 1.359 . S
C408 H434 0.931 . S
C409 C405 1.389 . S
C409 C407 1.364 . S
C409 H435 0.931 . S
C410 O424 1.256 . S
C410 O425 1.257 . S
C411 O426 1.240 . S
C411 O427 1.240 . S
C412 Gd401 2.818 . S
C412 C413 1.510 . S
C412 O428 1.249 . S
C412 O429 1.252 . S
C413 C412 1.510 . S
C413 C414 1.404 . S
C413 C415 1.352 . S
C414 C413 1.404 . S
C414 C418 1.389 . S
C414 H436 0.930 . S
C415 C413 1.352 . S
C415 C417 1.374 . S
C415 H437 0.931 . S
C416 C417 1.359 . S
C416 C418 1.364 . S
C417 C415 1.374 . S
C417 C416 1.359 . S
C417 H438 0.931 . S
C418 C414 1.389 . S
C418 C416 1.364 . S
C418 H439 0.931 . S
C419 O430 1.256 . S
C419 O431 1.257 . S
O420 Gd400 2.377 . S
O420 C402 1.240 . S
O421 Gd401 2.395 . S
O421 C402 1.240 . S
O422 Gd400 2.448 . S
O422 C403 1.249 . S
O423 Gd400 2.506 . S
O423 C403 1.252 . S
O424 Gd400 2.435 . S
O424 C410 1.256 . S
O425 Gd400 2.717 . S
O425 Gd401 2.327 . S
O425 C410 1.257 . S
O426 Gd401 2.377 . S
O426 C411 1.240 . S
O427 Gd400 2.395 . S
O427 C411 1.240 . S
O428 Gd401 2.448 . S
O428 C412 1.249 . S
O429 Gd401 2.506 . S
O429 C412 1.252 . S
O430 Gd401 2.435 . S
O430 C419 1.256 . S
O431 Gd400 2.327 . S
O431 Gd401 2.717 . S
O431 C419 1.257 . S
H432 C405 0.930 . S
H433 C406 0.931 . S
H434 C408 0.931 . S
H435 C409 0.931 . S
H436 C414 0.930 . S
H437 C415 0.931 . S
H438 C417 0.931 . S
H439 C418 0.931 . S
Gd440 C443 2.818 1_554 S
Gd440 O460 2.377 . S
Gd440 O462 2.448 . S
Gd440 O463 2.506 . S
Gd440 O464 2.435 . S
Gd440 O465 2.717 . S
Gd440 O467 2.395 . S
Gd440 O471 2.327 . S
Gd441 C452 2.818 . S
Gd441 O461 2.395 . S
Gd441 O465 2.327 . S
Gd441 O466 2.377 . S
Gd441 O468 2.448 . S
Gd441 O469 2.506 . S
Gd441 O470 2.435 . S
Gd441 O471 2.717 . S
C442 O460 1.240 . S
C442 O461 1.240 . S
C443 Gd440 2.818 1_556 S
C443 C444 1.510 . S
C443 O462 1.249 1_556 S
C443 O463 1.252 1_556 S
C444 C443 1.510 . S
C444 C445 1.404 . S
C444 C446 1.352 . S
C445 C444 1.404 . S
C445 C449 1.389 . S
C445 H472 0.930 . S
C446 C444 1.352 . S
C446 C448 1.374 . S
C446 H473 0.931 . S
C447 C448 1.359 . S
C447 C449 1.364 . S
C448 C446 1.374 . S
C448 C447 1.359 . S
C448 H474 0.931 . S
C449 C445 1.389 . S
C449 C447 1.364 . S
C449 H475 0.931 . S
C450 O464 1.256 . S
C450 O465 1.257 . S
C451 O466 1.240 . S
C451 O467 1.240 . S
C452 Gd441 2.818 . S
C452 C453 1.510 . S
C452 O468 1.249 . S
C452 O469 1.252 . S
C453 C452 1.510 . S
C453 C454 1.404 . S
C453 C455 1.352 . S
C454 C453 1.404 . S
C454 C458 1.389 . S
C454 H476 0.930 . S
C455 C453 1.352 . S
C455 C457 1.374 . S
C455 H477 0.931 . S
C456 C457 1.359 . S
C456 C458 1.364 . S
C457 C455 1.374 . S
C457 C456 1.359 . S
C457 H478 0.931 . S
C458 C454 1.389 . S
C458 C456 1.364 . S
C458 H479 0.931 . S
C459 O470 1.256 . S
C459 O471 1.257 . S
O460 Gd440 2.377 . S
O460 C442 1.240 . S
O461 Gd441 2.395 . S
O461 C442 1.240 . S
O462 Gd440 2.448 . S
O462 C443 1.249 1_554 S
O463 Gd440 2.506 . S
O463 C443 1.252 1_554 S
O464 Gd440 2.435 . S
O464 C450 1.256 . S
O465 Gd440 2.717 . S
O465 Gd441 2.327 . S
O465 C450 1.257 . S
O466 Gd441 2.377 . S
O466 C451 1.240 . S
O467 Gd440 2.395 . S
O467 C451 1.240 . S
O468 Gd441 2.448 . S
O468 C452 1.249 . S
O469 Gd441 2.506 . S
O469 C452 1.252 . S
O470 Gd441 2.435 . S
O470 C459 1.256 . S
O471 Gd440 2.327 . S
O471 Gd441 2.717 . S
O471 C459 1.257 . S
H472 C445 0.930 . S
H473 C446 0.931 . S
H474 C448 0.931 . S
H475 C449 0.931 . S
H476 C454 0.930 . S
H477 C455 0.931 . S
H478 C457 0.931 . S
H479 C458 0.931 . S
H480 C488 0.950 . S
H481 C493 0.950 . S
H482 C490 0.950 . S
H483 C492 0.950 . S
H484 C494 0.950 . S
H485 C496 0.950 . S
H486 C498 0.950 . S
H487 C499 0.950 . S
C488 H480 0.950 . S
C488 C489 1.386 . S
C488 C490 1.391 . S
C489 C488 1.386 . S
C489 C493 1.393 . S
C490 H482 0.950 . S
C490 C488 1.391 . S
C490 C491 1.400 . S
C491 C490 1.400 . S
C491 C492 1.398 . S
C491 C497 1.491 . S
C492 H483 0.950 . S
C492 C491 1.398 . S
C492 C493 1.391 . S
C493 H481 0.950 . S
C493 C489 1.393 . S
C493 C492 1.391 . S
C494 H484 0.950 . S
C494 C495 1.386 . S
C494 C496 1.391 . S
C495 C494 1.386 . S
C495 C499 1.393 . S
C496 H485 0.950 . S
C496 C494 1.391 . S
C496 C497 1.400 . S
C497 C491 1.491 . S
C497 C496 1.400 . S
C497 C498 1.398 . S
C498 H486 0.950 . S
C498 C497 1.398 . S
C498 C499 1.391 . S
C499 H487 0.950 . S
C499 C495 1.393 . S
C499 C498 1.391 . S
H500 C508 0.950 . S
H501 C513 0.950 . S
H502 C510 0.950 . S
H503 C512 0.950 . S
H504 C514 0.950 . S
H505 C516 0.950 . S
H506 C518 0.950 . S
H507 C519 0.950 . S
C508 H500 0.950 . S
C508 C509 1.386 . S
C508 C510 1.391 . S
C509 C508 1.386 . S
C509 C513 1.393 . S
C510 H502 0.950 . S
C510 C508 1.391 . S
C510 C511 1.400 . S
C511 C510 1.400 . S
C511 C512 1.398 . S
C511 C517 1.491 . S
C512 H503 0.950 . S
C512 C511 1.398 . S
C512 C513 1.391 . S
C513 H501 0.950 . S
C513 C509 1.393 . S
C513 C512 1.391 . S
C514 H504 0.950 . S
C514 C515 1.386 . S
C514 C516 1.391 . S
C515 C514 1.386 . S
C515 C519 1.393 . S
C516 H505 0.950 . S
C516 C514 1.391 . S
C516 C517 1.400 . S
C517 C511 1.491 . S
C517 C516 1.400 . S
C517 C518 1.398 . S
C518 H506 0.950 . S
C518 C517 1.398 . S
C518 C519 1.391 . S
C519 H507 0.950 . S
C519 C515 1.393 . S
C519 C518 1.391 . S
H520 C528 0.950 . S
H521 C533 0.950 . S
H522 C530 0.950 . S
H523 C532 0.950 . S
H524 C534 0.950 . S
H525 C536 0.950 . S
H526 C538 0.950 . S
H527 C539 0.950 . S
C528 H520 0.950 . S
C528 C529 1.386 . S
C528 C530 1.391 . S
C529 C528 1.386 . S
C529 C533 1.393 . S
C530 H522 0.950 . S
C530 C528 1.391 . S
C530 C531 1.400 . S
C531 C530 1.400 . S
C531 C532 1.398 . S
C531 C537 1.491 . S
C532 H523 0.950 . S
C532 C531 1.398 . S
C532 C533 1.391 . S
C533 H521 0.950 . S
C533 C529 1.393 . S
C533 C532 1.391 . S
C534 H524 0.950 . S
C534 C535 1.386 . S
C534 C536 1.391 . S
C535 C534 1.386 . S
C535 C539 1.393 . S
C536 H525 0.950 . S
C536 C534 1.391 . S
C536 C537 1.400 . S
C537 C531 1.491 . S
C537 C536 1.400 . S
C537 C538 1.398 . S
C538 H526 0.950 . S
C538 C537 1.398 . S
C538 C539 1.391 . S
C539 H527 0.950 . S
C539 C535 1.393 . S
C539 C538 1.391 . S
H540 C548 0.950 . S
H541 C553 0.950 . S
H542 C550 0.950 . S
H543 C552 0.950 . S
H544 C554 0.950 . S
H545 C556 0.950 . S
H546 C558 0.950 . S
H547 C559 0.950 . S
C548 H540 0.950 . S
C548 C549 1.386 . S
C548 C550 1.391 . S
C549 C548 1.386 . S
C549 C553 1.393 . S
C550 H542 0.950 . S
C550 C548 1.391 . S
C550 C551 1.400 . S
C551 C550 1.400 . S
C551 C552 1.398 . S
C551 C557 1.491 . S
C552 H543 0.950 . S
C552 C551 1.398 . S
C552 C553 1.391 . S
C553 H541 0.950 . S
C553 C549 1.393 . S
C553 C552 1.391 . S
C554 H544 0.950 . S
C554 C555 1.386 . S
C554 C556 1.391 . S
C555 C554 1.386 . S
C555 C559 1.393 . S
C556 H545 0.950 . S
C556 C554 1.391 . S
C556 C557 1.400 . S
C557 C551 1.491 . S
C557 C556 1.400 . S
C557 C558 1.398 . S
C558 H546 0.950 . S
C558 C557 1.398 . S
C558 C559 1.391 . S
C559 H547 0.950 . S
C559 C555 1.393 . S
C559 C558 1.391 . S
H560 C568 0.950 . S
H561 C573 0.950 . S
H562 C570 0.950 . S
H563 C572 0.950 . S
H564 C574 0.950 . S
H565 C576 0.950 . S
H566 C578 0.950 . S
H567 C579 0.950 . S
C568 H560 0.950 . S
C568 C569 1.386 . S
C568 C570 1.391 . S
C569 C568 1.386 . S
C569 C573 1.393 . S
C570 H562 0.950 . S
C570 C568 1.391 . S
C570 C571 1.400 . S
C571 C570 1.400 . S
C571 C572 1.398 . S
C571 C577 1.491 . S
C572 H563 0.950 . S
C572 C571 1.398 . S
C572 C573 1.391 . S
C573 H561 0.950 . S
C573 C569 1.393 . S
C573 C572 1.391 . S
C574 H564 0.950 . S
C574 C575 1.386 . S
C574 C576 1.391 . S
C575 C574 1.386 . S
C575 C579 1.393 . S
C576 H565 0.950 . S
C576 C574 1.391 . S
C576 C577 1.400 . S
C577 C571 1.491 . S
C577 C576 1.400 . S
C577 C578 1.398 . S
C578 H566 0.950 . S
C578 C577 1.398 . S
C578 C579 1.391 . S
C579 H567 0.950 . S
C579 C575 1.393 . S
C579 C578 1.391 . S
H580 C588 0.950 . S
H581 C593 0.950 . S
H582 C590 0.950 . S
H583 C592 0.950 . S
H584 C594 0.950 . S
H585 C596 0.950 . S
H586 C598 0.950 . S
H587 C599 0.950 . S
C588 H580 0.950 . S
C588 C589 1.386 . S
C588 C590 1.391 . S
C589 C588 1.386 . S
C589 C593 1.393 . S
C590 H582 0.950 . S
C590 C588 1.391 . S
C590 C591 1.400 . S
C591 C590 1.400 . S
C591 C592 1.398 . S
C591 C597 1.491 . S
C592 H583 0.950 . S
C592 C591 1.398 . S
C592 C593 1.391 . S
C593 H581 0.950 . S
C593 C589 1.393 . S
C593 C592 1.391 . S
C594 H584 0.950 . S
C594 C595 1.386 . S
C594 C596 1.391 . S
C595 C594 1.386 . S
C595 C599 1.393 . S
C596 H585 0.950 . S
C596 C594 1.391 . S
C596 C597 1.400 . S
C597 C591 1.491 . S
C597 C596 1.400 . S
C597 C598 1.398 . S
C598 H586 0.950 . S
C598 C597 1.398 . S
C598 C599 1.391 . S
C599 H587 0.950 . S
C599 C595 1.393 . S
C599 C598 1.391 . S
H600 C608 0.950 . S
H601 C613 0.950 . S
H602 C610 0.950 1_554 S
H603 C612 0.950 . S
H604 C614 0.950 . S
H605 C616 0.950 1_556 S
H606 C618 0.950 . S
H607 C619 0.950 . S
C608 H600 0.950 . S
C608 C609 1.386 . S
C608 C610 1.391 . S
C609 C608 1.386 . S
C609 C613 1.393 . S
C610 H602 0.950 1_556 S
C610 C608 1.391 . S
C610 C611 1.400 . S
C611 C610 1.400 . S
C611 C612 1.398 . S
C611 C617 1.491 1_556 S
C612 H603 0.950 . S
C612 C611 1.398 . S
C612 C613 1.391 . S
C613 H601 0.950 . S
C613 C609 1.393 . S
C613 C612 1.391 . S
C614 H604 0.950 . S
C614 C615 1.386 . S
C614 C616 1.391 . S
C615 C614 1.386 . S
C615 C619 1.393 . S
C616 H605 0.950 1_554 S
C616 C614 1.391 . S
C616 C617 1.400 . S
C617 C611 1.491 1_554 S
C617 C616 1.400 . S
C617 C618 1.398 . S
C618 H606 0.950 . S
C618 C617 1.398 . S
C618 C619 1.391 . S
C619 H607 0.950 . S
C619 C615 1.393 . S
C619 C618 1.391 . S
H620 C628 0.950 . S
H621 C633 0.950 . S
H622 C630 0.950 . S
H623 C632 0.950 . S
H624 C634 0.950 . S
H625 C636 0.950 . S
H626 C638 0.950 . S
H627 C639 0.950 . S
C628 H620 0.950 . S
C628 C629 1.386 . S
C628 C630 1.391 . S
C629 C628 1.386 . S
C629 C633 1.393 . S
C630 H622 0.950 . S
C630 C628 1.391 . S
C630 C631 1.400 . S
C631 C630 1.400 . S
C631 C632 1.398 . S
C631 C637 1.491 . S
C632 H623 0.950 . S
C632 C631 1.398 . S
C632 C633 1.391 . S
C633 H621 0.950 . S
C633 C629 1.393 . S
C633 C632 1.391 . S
C634 H624 0.950 . S
C634 C635 1.386 . S
C634 C636 1.391 . S
C635 C634 1.386 . S
C635 C639 1.393 . S
C636 H625 0.950 . S
C636 C634 1.391 . S
C636 C637 1.400 . S
C637 C631 1.491 . S
C637 C636 1.400 . S
C637 C638 1.398 . S
C638 H626 0.950 . S
C638 C637 1.398 . S
C638 C639 1.391 . S
C639 H627 0.950 . S
C639 C635 1.393 . S
C639 C638 1.391 . S
H640 C648 0.950 . S
H641 C653 0.950 . S
H642 C650 0.950 . S
H643 C652 0.950 . S
H644 C654 0.950 . S
H645 C656 0.950 . S
H646 C658 0.950 . S
H647 C659 0.950 . S
C648 H640 0.950 . S
C648 C649 1.386 . S
C648 C650 1.391 . S
C649 C648 1.386 . S
C649 C653 1.393 . S
C650 H642 0.950 . S
C650 C648 1.391 . S
C650 C651 1.400 . S
C651 C650 1.400 . S
C651 C652 1.398 . S
C651 C657 1.491 . S
C652 H643 0.950 . S
C652 C651 1.398 . S
C652 C653 1.391 . S
C653 H641 0.950 . S
C653 C649 1.393 . S
C653 C652 1.391 . S
C654 H644 0.950 . S
C654 C655 1.386 . S
C654 C656 1.391 . S
C655 C654 1.386 . S
C655 C659 1.393 . S
C656 H645 0.950 . S
C656 C654 1.391 . S
C656 C657 1.400 . S
C657 C651 1.491 . S
C657 C656 1.400 . S
C657 C658 1.398 . S
C658 H646 0.950 . S
C658 C657 1.398 . S
C658 C659 1.391 . S
C659 H647 0.950 . S
C659 C655 1.393 . S
C659 C658 1.391 . S
H660 C668 0.950 . S
H661 C673 0.950 . S
H662 C670 0.950 . S
H663 C672 0.950 1_554 S
H664 C674 0.950 . S
H665 C676 0.950 . S
H666 C678 0.950 1_556 S
H667 C679 0.950 . S
C668 H660 0.950 . S
C668 C669 1.386 . S
C668 C670 1.391 . S
C669 C668 1.386 . S
C669 C673 1.393 . S
C670 H662 0.950 . S
C670 C668 1.391 . S
C670 C671 1.400 . S
C671 C670 1.400 . S
C671 C672 1.398 . S
C671 C677 1.491 1_556 S
C672 H663 0.950 1_556 S
C672 C671 1.398 . S
C672 C673 1.391 . S
C673 H661 0.950 . S
C673 C669 1.393 . S
C673 C672 1.391 . S
C674 H664 0.950 . S
C674 C675 1.386 . S
C674 C676 1.391 . S
C675 C674 1.386 . S
C675 C679 1.393 . S
C676 H665 0.950 . S
C676 C674 1.391 . S
C676 C677 1.400 . S
C677 C671 1.491 1_554 S
C677 C676 1.400 . S
C677 C678 1.398 . S
C678 H666 0.950 1_554 S
C678 C677 1.398 . S
C678 C679 1.391 . S
C679 H667 0.950 . S
C679 C675 1.393 . S
C679 C678 1.391 . S
H680 C688 0.950 . S
H681 C693 0.950 . S
H682 C690 0.950 . S
H683 C692 0.950 . S
H684 C694 0.950 . S
H685 C696 0.950 . S
H686 C698 0.950 . S
H687 C699 0.950 . S
C688 H680 0.950 . S
C688 C689 1.386 . S
C688 C690 1.391 . S
C689 C688 1.386 . S
C689 C693 1.393 . S
C690 H682 0.950 . S
C690 C688 1.391 . S
C690 C691 1.400 . S
C691 C690 1.400 . S
C691 C692 1.398 . S
C691 C697 1.491 . S
C692 H683 0.950 . S
C692 C691 1.398 . S
C692 C693 1.391 . S
C693 H681 0.950 . S
C693 C689 1.393 . S
C693 C692 1.391 . S
C694 H684 0.950 . S
C694 C695 1.386 . S
C694 C696 1.391 . S
C695 C694 1.386 . S
C695 C699 1.393 . S
C696 H685 0.950 . S
C696 C694 1.391 . S
C696 C697 1.400 . S
C697 C691 1.491 . S
C697 C696 1.400 . S
C697 C698 1.398 . S
C698 H686 0.950 . S
C698 C697 1.398 . S
C698 C699 1.391 . S
C699 H687 0.950 . S
C699 C695 1.393 . S
C699 C698 1.391 . S
H700 C708 0.950 . S
H701 C713 0.950 . S
H702 C710 0.950 . S
H703 C712 0.950 . S
H704 C714 0.950 . S
H705 C716 0.950 . S
H706 C718 0.950 . S
H707 C719 0.950 . S
C708 H700 0.950 . S
C708 C709 1.386 . S
C708 C710 1.391 . S
C709 C708 1.386 . S
C709 C713 1.393 . S
C710 H702 0.950 . S
C710 C708 1.391 . S
C710 C711 1.400 . S
C711 C710 1.400 . S
C711 C712 1.398 . S
C711 C717 1.491 . S
C712 H703 0.950 . S
C712 C711 1.398 . S
C712 C713 1.391 . S
C713 H701 0.950 . S
C713 C709 1.393 . S
C713 C712 1.391 . S
C714 H704 0.950 . S
C714 C715 1.386 . S
C714 C716 1.391 . S
C715 C714 1.386 . S
C715 C719 1.393 . S
C716 H705 0.950 . S
C716 C714 1.391 . S
C716 C717 1.400 . S
C717 C711 1.491 . S
C717 C716 1.400 . S
C717 C718 1.398 . S
C718 H706 0.950 . S
C718 C717 1.398 . S
C718 C719 1.391 . S
C719 H707 0.950 . S
C719 C715 1.393 . S
C719 C718 1.391 . S
H720 C728 0.950 . S
H721 C733 0.950 1_545 S
H722 C730 0.950 1_554 S
H723 C732 0.950 . S
H724 C734 0.950 . S
H725 C736 0.950 1_556 S
H726 C738 0.950 . S
H727 C739 0.950 1_565 S
C728 H720 0.950 . S
C728 C729 1.386 . S
C728 C730 1.391 . S
C729 C728 1.386 . S
C729 C733 1.393 . S
C730 H722 0.950 1_556 S
C730 C728 1.391 . S
C730 C731 1.400 . S
C731 C730 1.400 . S
C731 C732 1.398 1_565 S
C731 C737 1.491 1_566 S
C732 H723 0.950 . S
C732 C731 1.398 1_545 S
C732 C733 1.391 1_545 S
C733 H721 0.950 1_565 S
C733 C729 1.393 . S
C733 C732 1.391 1_565 S
C734 H724 0.950 . S
C734 C735 1.386 . S
C734 C736 1.391 . S
C735 C734 1.386 . S
C735 C739 1.393 . S
C736 H725 0.950 1_554 S
C736 C734 1.391 . S
C736 C737 1.400 . S
C737 C731 1.491 1_544 S
C737 C736 1.400 . S
C737 C738 1.398 1_545 S
C738 H726 0.950 . S
C738 C737 1.398 1_565 S
C738 C739 1.391 1_565 S
C739 H727 0.950 1_545 S
C739 C735 1.393 . S
C739 C738 1.391 1_545 S
H740 C748 0.950 . S
H741 C753 0.950 . S
H742 C750 0.950 . S
H743 C752 0.950 . S
H744 C754 0.950 . S
H745 C756 0.950 . S
H746 C758 0.950 . S
H747 C759 0.950 . S
C748 H740 0.950 . S
C748 C749 1.386 . S
C748 C750 1.391 . S
C749 C748 1.386 . S
C749 C753 1.393 . S
C750 H742 0.950 . S
C750 C748 1.391 . S
C750 C751 1.400 . S
C751 C750 1.400 . S
C751 C752 1.398 . S
C751 C757 1.491 . S
C752 H743 0.950 . S
C752 C751 1.398 . S
C752 C753 1.391 . S
C753 H741 0.950 . S
C753 C749 1.393 . S
C753 C752 1.391 . S
C754 H744 0.950 . S
C754 C755 1.386 . S
C754 C756 1.391 . S
C755 C754 1.386 . S
C755 C759 1.393 . S
C756 H745 0.950 . S
C756 C754 1.391 . S
C756 C757 1.400 . S
C757 C751 1.491 . S
C757 C756 1.400 . S
C757 C758 1.398 . S
C758 H746 0.950 . S
C758 C757 1.398 . S
C758 C759 1.391 . S
C759 H747 0.950 . S
C759 C755 1.393 . S
C759 C758 1.391 . S
H760 C768 0.950 . S
H761 C773 0.950 . S
H762 C770 0.950 . S
H763 C772 0.918 1_655 S
H764 C774 0.950 . S
H765 C776 0.950 . S
H766 C778 0.919 1_455 S
H767 C779 0.950 . S
C768 H760 0.950 . S
C768 C769 1.386 . S
C768 C770 1.391 . S
C769 C768 1.386 . S
C769 C773 1.393 . S
C770 H762 0.950 . S
C770 C768 1.391 . S
C770 C771 1.400 . S
C771 C770 1.400 . S
C771 C772 1.416 . S
C771 C777 1.491 1_455 S
C772 H763 0.918 1_455 S
C772 C771 1.416 . S
C772 C773 1.404 . S
C773 H761 0.950 . S
C773 C769 1.393 . S
C773 C772 1.404 . S
C774 H764 0.950 . S
C774 C775 1.386 . S
C774 C776 1.391 . S
C775 C774 1.386 . S
C775 C779 1.393 . S
C776 H765 0.950 . S
C776 C774 1.391 . S
C776 C777 1.400 . S
C777 C771 1.491 1_655 S
C777 C776 1.400 . S
C777 C778 1.416 . S
C778 H766 0.919 1_655 S
C778 C777 1.416 . S
C778 C779 1.404 . S
C779 H767 0.950 . S
C779 C775 1.393 . S
C779 C778 1.404 . S
H780 C788 0.950 . S
H781 C793 0.950 . S
H782 C790 0.950 . S
H783 C792 0.950 . S
H784 C794 0.950 . S
H785 C796 0.950 . S
H786 C798 0.950 . S
H787 C799 0.950 . S
C788 H780 0.950 . S
C788 C789 1.386 . S
C788 C790 1.391 . S
C789 C788 1.386 . S
C789 C793 1.393 . S
C790 H782 0.950 . S
C790 C788 1.391 . S
C790 C791 1.400 . S
C791 C790 1.400 . S
C791 C792 1.398 1_565 S
C791 C797 1.491 1_564 S
C792 H783 0.950 . S
C792 C791 1.398 1_545 S
C792 C793 1.391 1_545 S
C793 H781 0.950 . S
C793 C789 1.393 . S
C793 C792 1.391 1_565 S
C794 H784 0.950 . S
C794 C795 1.386 . S
C794 C796 1.391 . S
C795 C794 1.386 . S
C795 C799 1.393 . S
C796 H785 0.950 . S
C796 C794 1.391 . S
C796 C797 1.400 . S
C797 C791 1.491 1_546 S
C797 C796 1.400 . S
C797 C798 1.398 1_545 S
C798 H786 0.950 . S
C798 C797 1.398 1_565 S
C798 C799 1.391 1_565 S
C799 H787 0.950 . S
C799 C795 1.393 . S
C799 C798 1.391 1_545 S
H800 C808 0.950 . S
H801 C813 0.950 . S
H802 C810 0.950 . S
H803 C812 0.950 . S
H804 C814 0.950 . S
H805 C816 0.950 . S
H806 C818 0.950 . S
H807 C819 0.950 . S
C808 H800 0.950 . S
C808 C809 1.386 . S
C808 C810 1.391 . S
C809 C808 1.386 . S
C809 C813 1.393 . S
C810 H802 0.950 . S
C810 C808 1.391 . S
C810 C811 1.400 . S
C811 C810 1.400 . S
C811 C812 1.398 . S
C811 C817 1.491 . S
C812 H803 0.950 . S
C812 C811 1.398 . S
C812 C813 1.391 . S
C813 H801 0.950 . S
C813 C809 1.393 . S
C813 C812 1.391 . S
C814 H804 0.950 . S
C814 C815 1.386 . S
C814 C816 1.391 . S
C815 C814 1.386 . S
C815 C819 1.393 . S
C816 H805 0.950 . S
C816 C814 1.391 . S
C816 C817 1.400 . S
C817 C811 1.491 . S
C817 C816 1.400 . S
C817 C818 1.398 . S
C818 H806 0.950 . S
C818 C817 1.398 . S
C818 C819 1.391 . S
C819 H807 0.950 . S
C819 C815 1.393 . S
C819 C818 1.391 . S
H820 C828 0.950 . S
H821 C833 0.950 . S
H822 C830 0.950 . S
H823 C832 0.950 1_655 S
H824 C834 0.950 . S
H825 C836 0.950 . S
H826 C838 0.950 1_455 S
H827 C839 0.950 . S
C828 H820 0.950 . S
C828 C829 1.386 . S
C828 C830 1.391 . S
C829 C828 1.386 . S
C829 C833 1.393 . S
C830 H822 0.950 . S
C830 C828 1.391 . S
C830 C831 1.400 . S
C831 C830 1.400 . S
C831 C832 1.398 . S
C831 C837 1.491 1_455 S
C832 H823 0.950 1_455 S
C832 C831 1.398 . S
C832 C833 1.391 . S
C833 H821 0.950 . S
C833 C829 1.393 . S
C833 C832 1.391 . S
C834 H824 0.950 . S
C834 C835 1.386 . S
C834 C836 1.391 . S
C835 C834 1.386 . S
C835 C839 1.393 . S
C836 H825 0.950 . S
C836 C834 1.391 . S
C836 C837 1.400 . S
C837 C831 1.491 1_655 S
C837 C836 1.400 . S
C837 C838 1.398 . S
C838 H826 0.950 1_655 S
C838 C837 1.398 . S
C838 C839 1.391 . S
C839 H827 0.950 . S
C839 C835 1.393 . S
C839 C838 1.391 . S
H840 C848 0.950 . S
H841 C853 0.950 . S
H842 C850 0.950 . S
H843 C852 0.950 1_565 S
H844 C854 0.950 . S
H845 C856 0.950 . S
H846 C858 0.950 1_545 S
H847 C859 0.950 . S
C848 H840 0.950 . S
C848 C849 1.386 . S
C848 C850 1.391 . S
C849 C848 1.386 . S
C849 C853 1.393 . S
C850 H842 0.950 . S
C850 C848 1.391 . S
C850 C851 1.400 . S
C851 C850 1.400 . S
C851 C852 1.398 . S
C851 C857 1.491 1_545 S
C852 H843 0.950 1_545 S
C852 C851 1.398 . S
C852 C853 1.391 . S
C853 H841 0.950 . S
C853 C849 1.393 . S
C853 C852 1.391 . S
C854 H844 0.950 . S
C854 C855 1.386 . S
C854 C856 1.391 . S
C855 C854 1.386 . S
C855 C859 1.393 . S
C856 H845 0.950 . S
C856 C854 1.391 . S
C856 C857 1.400 . S
C857 C851 1.491 1_565 S
C857 C856 1.400 . S
C857 C858 1.398 . S
C858 H846 0.950 1_565 S
C858 C857 1.398 . S
C858 C859 1.391 . S
C859 H847 0.950 . S
C859 C855 1.393 . S
C859 C858 1.391 . S
H860 C868 0.950 . S
H861 C873 0.950 . S
H862 C870 0.950 . S
H863 C872 0.950 . S
H864 C874 0.950 . S
H865 C876 0.950 . S
H866 C878 0.950 . S
H867 C879 0.950 . S
C868 H860 0.950 . S
C868 C869 1.386 . S
C868 C870 1.391 . S
C869 C868 1.386 . S
C869 C873 1.393 . S
C870 H862 0.950 . S
C870 C868 1.391 . S
C870 C871 1.400 . S
C871 C870 1.400 . S
C871 C872 1.398 . S
C871 C877 1.491 . S
C872 H863 0.950 . S
C872 C871 1.398 . S
C872 C873 1.391 . S
C873 H861 0.950 . S
C873 C869 1.393 . S
C873 C872 1.391 . S
C874 H864 0.950 . S
C874 C875 1.386 . S
C874 C876 1.391 . S
C875 C874 1.386 . S
C875 C879 1.393 . S
C876 H865 0.950 . S
C876 C874 1.391 . S
C876 C877 1.400 . S
C877 C871 1.491 . S
C877 C876 1.400 . S
C877 C878 1.398 . S
C878 H866 0.950 . S
C878 C877 1.398 . S
C878 C879 1.391 . S
C879 H867 0.950 . S
C879 C875 1.393 . S
C879 C878 1.391 . S
H880 C888 0.950 . S
H881 C893 0.950 . S
H882 C890 0.950 . S
H883 C892 0.950 1_455 S
H884 C894 0.950 . S
H885 C896 0.950 . S
H886 C898 0.950 1_655 S
H887 C899 0.950 . S
C888 H880 0.950 . S
C888 C889 1.386 . S
C888 C890 1.391 . S
C889 C888 1.386 . S
C889 C893 1.393 . S
C890 H882 0.950 . S
C890 C888 1.391 . S
C890 C891 1.400 . S
C891 C890 1.400 . S
C891 C892 1.398 . S
C891 C897 1.491 1_655 S
C892 H883 0.950 1_655 S
C892 C891 1.398 . S
C892 C893 1.391 . S
C893 H881 0.950 . S
C893 C889 1.393 . S
C893 C892 1.391 . S
C894 H884 0.950 . S
C894 C895 1.386 . S
C894 C896 1.391 . S
C895 C894 1.386 . S
C895 C899 1.393 . S
C896 H885 0.950 . S
C896 C894 1.391 . S
C896 C897 1.400 . S
C897 C891 1.491 1_455 S
C897 C896 1.400 . S
C897 C898 1.398 . S
C898 H886 0.950 1_455 S
C898 C897 1.398 . S
C898 C899 1.391 . S
C899 H887 0.950 . S
C899 C895 1.393 . S
C899 C898 1.391 . S
H900 C908 0.950 . S
H901 C913 0.950 . S
H902 C910 0.950 . S
H903 C912 0.950 1_655 S
H904 C914 0.950 . S
H905 C916 0.950 . S
H906 C918 0.950 1_455 S
H907 C919 0.950 . S
C908 H900 0.950 . S
C908 C909 1.386 . S
C908 C910 1.391 . S
C909 C908 1.386 . S
C909 C913 1.393 . S
C910 H902 0.950 . S
C910 C908 1.391 . S
C910 C911 1.400 . S
C911 C910 1.400 . S
C911 C912 1.398 . S
C911 C917 1.491 1_455 S
C912 H903 0.950 1_455 S
C912 C911 1.398 . S
C912 C913 1.391 . S
C913 H901 0.950 . S
C913 C909 1.393 . S
C913 C912 1.391 . S
C914 H904 0.950 . S
C914 C915 1.386 . S
C914 C916 1.391 . S
C915 C914 1.386 . S
C915 C919 1.393 . S
C916 H905 0.950 . S
C916 C914 1.391 . S
C916 C917 1.400 . S
C917 C911 1.491 1_655 S
C917 C916 1.400 . S
C917 C918 1.398 . S
C918 H906 0.950 1_655 S
C918 C917 1.398 . S
C918 C919 1.391 . S
C919 H907 0.950 . S
C919 C915 1.393 . S
C919 C918 1.391 . S
H920 C928 0.950 . S
H921 C933 0.950 . S
H922 C930 0.950 1_545 S
H923 C932 0.950 . S
H924 C934 0.950 . S
H925 C936 0.950 1_565 S
H926 C938 0.950 . S
H927 C939 0.950 . S
C928 H920 0.950 . S
C928 C929 1.386 . S
C928 C930 1.391 . S
C929 C928 1.386 . S
C929 C933 1.393 . S
C930 H922 0.950 1_565 S
C930 C928 1.391 . S
C930 C931 1.400 . S
C931 C930 1.400 . S
C931 C932 1.398 . S
C931 C937 1.491 1_565 S
C932 H923 0.950 . S
C932 C931 1.398 . S
C932 C933 1.391 . S
C933 H921 0.950 . S
C933 C929 1.393 . S
C933 C932 1.391 . S
C934 H924 0.950 . S
C934 C935 1.386 . S
C934 C936 1.391 . S
C935 C934 1.386 . S
C935 C939 1.393 . S
C936 H925 0.950 1_545 S
C936 C934 1.391 . S
C936 C937 1.400 . S
C937 C931 1.491 1_545 S
C937 C936 1.400 . S
C937 C938 1.398 . S
C938 H926 0.950 . S
C938 C937 1.398 . S
C938 C939 1.391 . S
C939 H927 0.950 . S
C939 C935 1.393 . S
C939 C938 1.391 . S
H940 C948 0.950 . S
H941 C953 0.950 . S
H942 C950 0.950 . S
H943 C952 0.950 . S
H944 C954 0.950 . S
H945 C956 0.950 . S
H946 C958 0.950 . S
H947 C959 0.950 . S
C948 H940 0.950 . S
C948 C949 1.386 . S
C948 C950 1.391 . S
C949 C948 1.386 . S
C949 C953 1.393 . S
C950 H942 0.950 . S
C950 C948 1.391 . S
C950 C951 1.400 . S
C951 C950 1.400 . S
C951 C952 1.398 . S
C951 C957 1.491 . S
C952 H943 0.950 . S
C952 C951 1.398 . S
C952 C953 1.391 . S
C953 H941 0.950 . S
C953 C949 1.393 . S
C953 C952 1.391 . S
C954 H944 0.950 . S
C954 C955 1.386 . S
C954 C956 1.391 . S
C955 C954 1.386 . S
C955 C959 1.393 . S
C956 H945 0.950 . S
C956 C954 1.391 . S
C956 C957 1.400 . S
C957 C951 1.491 . S
C957 C956 1.400 . S
C957 C958 1.398 . S
C958 H946 0.950 . S
C958 C957 1.398 . S
C958 C959 1.391 . S
C959 H947 0.950 . S
C959 C955 1.393 . S
C959 C958 1.391 . S
H960 C968 0.950 . S
H961 C973 0.950 . S
H962 C970 0.950 . S
H963 C972 0.933 1_545 S
H964 C974 0.950 . S
H965 C976 0.950 . S
H966 C978 0.933 1_565 S
H967 C979 0.950 . S
C968 H960 0.950 . S
C968 C969 1.386 . S
C968 C970 1.391 . S
C969 C968 1.386 . S
C969 C973 1.393 . S
C970 H962 0.950 . S
C970 C968 1.391 . S
C970 C971 1.400 . S
C971 C970 1.400 . S
C971 C972 1.398 . S
C971 C977 1.491 1_565 S
C972 H963 0.933 1_565 S
C972 C971 1.398 . S
C972 C973 1.391 . S
C973 H961 0.950 . S
C973 C969 1.393 . S
C973 C972 1.391 . S
C974 H964 0.950 . S
C974 C975 1.386 . S
C974 C976 1.391 . S
C975 C974 1.386 . S
C975 C979 1.393 . S
C976 H965 0.950 . S
C976 C974 1.391 . S
C976 C977 1.400 . S
C977 C971 1.491 1_545 S
C977 C976 1.400 . S
C977 C978 1.398 . S
C978 H966 0.933 1_545 S
C978 C977 1.398 . S
C978 C979 1.391 . S
C979 H967 0.950 . S
C979 C975 1.393 . S
C979 C978 1.391 . S
H980 C988 0.950 . S
H981 C993 0.950 . S
H982 C990 0.950 . S
H983 C992 0.950 . S
H984 C994 0.950 . S
H985 C996 0.950 . S
H986 C998 0.950 . S
H987 C999 0.950 . S
C988 H980 0.950 . S
C988 C989 1.386 . S
C988 C990 1.391 . S
C989 C988 1.386 . S
C989 C993 1.393 . S
C990 H982 0.950 . S
C990 C988 1.391 . S
C990 C991 1.400 . S
C991 C990 1.400 . S
C991 C992 1.398 . S
C991 C997 1.491 . S
C992 H983 0.950 . S
C992 C991 1.398 . S
C992 C993 1.391 . S
C993 H981 0.950 . S
C993 C989 1.393 . S
C993 C992 1.391 . S
C994 H984 0.950 . S
C994 C995 1.386 . S
C994 C996 1.391 . S
C995 C994 1.386 . S
C995 C999 1.393 . S
C996 H985 0.950 . S
C996 C994 1.391 . S
C996 C997 1.400 . S
C997 C991 1.491 . S
C997 C996 1.400 . S
C997 C998 1.398 . S
C998 H986 0.950 . S
C998 C997 1.398 . S
C998 C999 1.391 . S
C999 H987 0.950 . S
C999 C995 1.393 . S
C999 C998 1.391 . S
H1000 C1008 0.950 . S
H1001 C1013 0.950 . S
H1002 C1010 0.950 . S
H1003 C1012 0.950 . S
H1004 C1014 0.950 . S
H1005 C1016 0.950 . S
H1006 C1018 0.950 . S
H1007 C1019 0.950 . S
C1008 H1000 0.950 . S
C1008 C1009 1.386 . S
C1008 C1010 1.391 . S
C1009 C1008 1.386 . S
C1009 C1013 1.393 . S
C1010 H1002 0.950 . S
C1010 C1008 1.391 . S
C1010 C1011 1.400 . S
C1011 C1010 1.400 . S
C1011 C1012 1.398 . S
C1011 C1017 1.491 1_655 S
C1012 H1003 0.950 . S
C1012 C1011 1.398 . S
C1012 C1013 1.391 . S
C1013 H1001 0.950 . S
C1013 C1009 1.393 . S
C1013 C1012 1.391 . S
C1014 H1004 0.950 . S
C1014 C1015 1.386 . S
C1014 C1016 1.391 . S
C1015 C1014 1.386 . S
C1015 C1019 1.393 . S
C1016 H1005 0.950 . S
C1016 C1014 1.391 . S
C1016 C1017 1.400 . S
C1017 C1011 1.491 1_455 S
C1017 C1016 1.400 . S
C1017 C1018 1.398 . S
C1018 H1006 0.950 . S
C1018 C1017 1.398 . S
C1018 C1019 1.391 . S
C1019 H1007 0.950 . S
C1019 C1015 1.393 . S
C1019 C1018 1.391 . S
H1020 C1028 0.950 . S
H1021 C1033 0.950 . S
H1022 C1030 0.950 1_565 S
H1023 C1032 0.950 . S
H1024 C1034 0.950 . S
H1025 C1036 0.950 1_545 S
H1026 C1038 0.950 . S
H1027 C1039 0.950 . S
C1028 H1020 0.950 . S
C1028 C1029 1.386 . S
C1028 C1030 1.391 . S
C1029 C1028 1.386 . S
C1029 C1033 1.393 . S
C1030 H1022 0.950 1_545 S
C1030 C1028 1.391 . S
C1030 C1031 1.400 . S
C1031 C1030 1.400 . S
C1031 C1032 1.398 . S
C1031 C1037 1.491 1_545 S
C1032 H1023 0.950 . S
C1032 C1031 1.398 . S
C1032 C1033 1.391 . S
C1033 H1021 0.950 . S
C1033 C1029 1.393 . S
C1033 C1032 1.391 . S
C1034 H1024 0.950 . S
C1034 C1035 1.386 . S
C1034 C1036 1.391 . S
C1035 C1034 1.386 . S
C1035 C1039 1.393 . S
C1036 H1025 0.950 1_565 S
C1036 C1034 1.391 . S
C1036 C1037 1.400 . S
C1037 C1031 1.491 1_565 S
C1037 C1036 1.400 . S
C1037 C1038 1.398 . S
C1038 H1026 0.950 . S
C1038 C1037 1.398 . S
C1038 C1039 1.391 . S
C1039 H1027 0.950 . S
C1039 C1035 1.393 . S
C1039 C1038 1.391 . S
H1040 C1048 0.950 . S
H1041 C1053 0.950 . S
H1042 C1050 0.950 . S
H1043 C1052 0.950 . S
H1044 C1054 0.950 . S
H1045 C1056 0.950 . S
H1046 C1058 0.950 . S
H1047 C1059 0.950 . S
C1048 H1040 0.950 . S
C1048 C1049 1.386 . S
C1048 C1050 1.391 . S
C1049 C1048 1.386 . S
C1049 C1053 1.393 . S
C1050 H1042 0.950 . S
C1050 C1048 1.391 . S
C1050 C1051 1.400 . S
C1051 C1050 1.400 . S
C1051 C1052 1.398 . S
C1051 C1057 1.491 . S
C1052 H1043 0.950 . S
C1052 C1051 1.398 . S
C1052 C1053 1.391 . S
C1053 H1041 0.950 . S
C1053 C1049 1.393 . S
C1053 C1052 1.391 . S
C1054 H1044 0.950 . S
C1054 C1055 1.386 . S
C1054 C1056 1.391 . S
C1055 C1054 1.386 . S
C1055 C1059 1.393 . S
C1056 H1045 0.950 . S
C1056 C1054 1.391 . S
C1056 C1057 1.400 . S
C1057 C1051 1.491 . S
C1057 C1056 1.400 . S
C1057 C1058 1.398 . S
C1058 H1046 0.950 . S
C1058 C1057 1.398 . S
C1058 C1059 1.391 . S
C1059 H1047 0.950 . S
C1059 C1055 1.393 . S
C1059 C1058 1.391 . S
H1060 C1068 0.950 . S
H1061 C1073 0.950 . S
H1062 C1070 0.950 . S
H1063 C1072 0.950 . S
H1064 C1074 0.950 . S
H1065 C1076 0.950 . S
H1066 C1078 0.950 . S
H1067 C1079 0.950 . S
C1068 H1060 0.950 . S
C1068 C1069 1.386 . S
C1068 C1070 1.391 . S
C1069 C1068 1.386 . S
C1069 C1073 1.393 . S
C1070 H1062 0.950 . S
C1070 C1068 1.391 . S
C1070 C1071 1.400 . S
C1071 C1070 1.400 . S
C1071 C1072 1.398 . S
C1071 C1077 1.491 1_455 S
C1072 H1063 0.950 . S
C1072 C1071 1.398 . S
C1072 C1073 1.391 . S
C1073 H1061 0.950 . S
C1073 C1069 1.393 . S
C1073 C1072 1.391 . S
C1074 H1064 0.950 . S
C1074 C1075 1.386 . S
C1074 C1076 1.391 . S
C1075 C1074 1.386 . S
C1075 C1079 1.393 . S
C1076 H1065 0.950 . S
C1076 C1074 1.391 . S
C1076 C1077 1.400 . S
C1077 C1071 1.491 1_655 S
C1077 C1076 1.400 . S
C1077 C1078 1.398 . S
C1078 H1066 0.950 . S
C1078 C1077 1.398 . S
C1078 C1079 1.391 . S
C1079 H1067 0.950 . S
C1079 C1075 1.393 . S
C1079 C1078 1.391 . S
H1080 C1088 0.950 . S
H1081 C1093 0.950 . S
H1082 C1090 0.950 . S
H1083 C1092 0.950 . S
H1084 C1094 0.950 . S
H1085 C1096 0.950 . S
H1086 C1098 0.950 . S
H1087 C1099 0.950 . S
C1088 H1080 0.950 . S
C1088 C1089 1.386 . S
C1088 C1090 1.391 . S
C1089 C1088 1.386 . S
C1089 C1093 1.393 . S
C1090 H1082 0.950 . S
C1090 C1088 1.391 . S
C1090 C1091 1.400 . S
C1091 C1090 1.400 . S
C1091 C1092 1.398 . S
C1091 C1097 1.491 . S
C1092 H1083 0.950 . S
C1092 C1091 1.398 . S
C1092 C1093 1.391 . S
C1093 H1081 0.950 . S
C1093 C1089 1.393 . S
C1093 C1092 1.391 . S
C1094 H1084 0.950 . S
C1094 C1095 1.386 . S
C1094 C1096 1.391 . S
C1095 C1094 1.386 . S
C1095 C1099 1.393 . S
C1096 H1085 0.950 . S
C1096 C1094 1.391 . S
C1096 C1097 1.400 . S
C1097 C1091 1.491 . S
C1097 C1096 1.400 . S
C1097 C1098 1.398 . S
C1098 H1086 0.950 . S
C1098 C1097 1.398 . S
C1098 C1099 1.391 . S
C1099 H1087 0.950 . S
C1099 C1095 1.393 . S
C1099 C1098 1.391 . S
H1100 C1108 0.950 . S
H1101 C1113 0.950 . S
H1102 C1110 0.950 . S
H1103 C1112 0.950 . S
H1104 C1114 0.950 . S
H1105 C1116 0.950 . S
H1106 C1118 0.950 . S
H1107 C1119 0.950 . S
C1108 H1100 0.950 . S
C1108 C1109 1.386 . S
C1108 C1110 1.391 . S
C1109 C1108 1.386 . S
C1109 C1113 1.393 . S
C1110 H1102 0.950 . S
C1110 C1108 1.391 . S
C1110 C1111 1.400 . S
C1111 C1110 1.400 . S
C1111 C1112 1.398 . S
C1111 C1117 1.491 . S
C1112 H1103 0.950 . S
C1112 C1111 1.398 . S
C1112 C1113 1.391 . S
C1113 H1101 0.950 . S
C1113 C1109 1.393 . S
C1113 C1112 1.391 . S
C1114 H1104 0.950 . S
C1114 C1115 1.386 . S
C1114 C1116 1.391 . S
C1115 C1114 1.386 . S
C1115 C1119 1.393 . S
C1116 H1105 0.950 . S
C1116 C1114 1.391 . S
C1116 C1117 1.400 . S
C1117 C1111 1.491 . S
C1117 C1116 1.400 . S
C1117 C1118 1.398 . S
C1118 H1106 0.950 . S
C1118 C1117 1.398 . S
C1118 C1119 1.391 . S
C1119 H1107 0.950 . S
C1119 C1115 1.393 . S
C1119 C1118 1.391 . S
H1120 C1128 0.950 . S
H1121 C1133 0.950 . S
H1122 C1130 0.950 . S
H1123 C1132 0.950 . S
H1124 C1134 0.950 . S
H1125 C1136 0.950 . S
H1126 C1138 0.950 . S
H1127 C1139 0.950 . S
C1128 H1120 0.950 . S
C1128 C1129 1.386 . S
C1128 C1130 1.391 . S
C1129 C1128 1.386 . S
C1129 C1133 1.393 . S
C1130 H1122 0.950 . S
C1130 C1128 1.391 . S
C1130 C1131 1.400 . S
C1131 C1130 1.400 . S
C1131 C1132 1.398 . S
C1131 C1137 1.491 . S
C1132 H1123 0.950 . S
C1132 C1131 1.398 . S
C1132 C1133 1.391 . S
C1133 H1121 0.950 . S
C1133 C1129 1.393 . S
C1133 C1132 1.391 . S
C1134 H1124 0.950 . S
C1134 C1135 1.386 . S
C1134 C1136 1.391 . S
C1135 C1134 1.386 . S
C1135 C1139 1.393 . S
C1136 H1125 0.950 . S
C1136 C1134 1.391 . S
C1136 C1137 1.400 . S
C1137 C1131 1.491 . S
C1137 C1136 1.400 . S
C1137 C1138 1.398 . S
C1138 H1126 0.950 . S
C1138 C1137 1.398 . S
C1138 C1139 1.391 . S
C1139 H1127 0.950 . S
C1139 C1135 1.393 . S
C1139 C1138 1.391 . S
H1140 C1148 0.950 . S
H1141 C1153 0.950 . S
H1142 C1150 0.950 . S
H1143 C1152 0.950 . S
H1144 C1154 0.950 . S
H1145 C1156 0.950 . S
H1146 C1158 0.950 . S
H1147 C1159 0.950 . S
C1148 H1140 0.950 . S
C1148 C1149 1.386 . S
C1148 C1150 1.391 . S
C1149 C1148 1.386 . S
C1149 C1153 1.393 . S
C1150 H1142 0.950 . S
C1150 C1148 1.391 . S
C1150 C1151 1.400 . S
C1151 C1150 1.400 . S
C1151 C1152 1.398 . S
C1151 C1157 1.491 . S
C1152 H1143 0.950 . S
C1152 C1151 1.398 . S
C1152 C1153 1.391 . S
C1153 H1141 0.950 . S
C1153 C1149 1.393 . S
C1153 C1152 1.391 . S
C1154 H1144 0.950 . S
C1154 C1155 1.386 . S
C1154 C1156 1.391 . S
C1155 C1154 1.386 . S
C1155 C1159 1.393 . S
C1156 H1145 0.950 . S
C1156 C1154 1.391 . S
C1156 C1157 1.400 . S
C1157 C1151 1.491 . S
C1157 C1156 1.400 . S
C1157 C1158 1.398 . S
C1158 H1146 0.950 . S
C1158 C1157 1.398 . S
C1158 C1159 1.391 . S
C1159 H1147 0.950 . S
C1159 C1155 1.393 . S
C1159 C1158 1.391 . S
H1160 C1168 0.950 . S
H1161 C1173 0.950 . S
H1162 C1170 0.950 . S
H1163 C1172 0.950 . S
H1164 C1174 0.950 . S
H1165 C1176 0.950 . S
H1166 C1178 0.950 . S
H1167 C1179 0.950 . S
C1168 H1160 0.950 . S
C1168 C1169 1.386 . S
C1168 C1170 1.391 . S
C1169 C1168 1.386 . S
C1169 C1173 1.393 . S
C1170 H1162 0.950 . S
C1170 C1168 1.391 . S
C1170 C1171 1.400 . S
C1171 C1170 1.400 . S
C1171 C1172 1.398 . S
C1171 C1177 1.491 . S
C1172 H1163 0.950 . S
C1172 C1171 1.398 . S
C1172 C1173 1.391 . S
C1173 H1161 0.950 . S
C1173 C1169 1.393 . S
C1173 C1172 1.391 . S
C1174 H1164 0.950 . S
C1174 C1175 1.386 . S
C1174 C1176 1.391 . S
C1175 C1174 1.386 . S
C1175 C1179 1.393 . S
C1176 H1165 0.950 . S
C1176 C1174 1.391 . S
C1176 C1177 1.400 . S
C1177 C1171 1.491 . S
C1177 C1176 1.400 . S
C1177 C1178 1.398 . S
C1178 H1166 0.950 . S
C1178 C1177 1.398 . S
C1178 C1179 1.391 . S
C1179 H1167 0.950 . S
C1179 C1175 1.393 . S
C1179 C1178 1.391 . S
H1180 C1188 0.950 . S
H1181 C1193 0.950 . S
H1182 C1190 0.950 . S
H1183 C1192 0.950 . S
H1184 C1194 0.950 . S
H1185 C1196 0.950 . S
H1186 C1198 0.950 . S
H1187 C1199 0.950 . S
C1188 H1180 0.950 . S
C1188 C1189 1.386 . S
C1188 C1190 1.391 . S
C1189 C1188 1.386 . S
C1189 C1193 1.393 . S
C1190 H1182 0.950 . S
C1190 C1188 1.391 . S
C1190 C1191 1.400 . S
C1191 C1190 1.400 . S
C1191 C1192 1.398 . S
C1191 C1197 1.491 . S
C1192 H1183 0.950 . S
C1192 C1191 1.398 . S
C1192 C1193 1.391 . S
C1193 H1181 0.950 . S
C1193 C1189 1.393 . S
C1193 C1192 1.391 . S
C1194 H1184 0.950 . S
C1194 C1195 1.386 . S
C1194 C1196 1.391 . S
C1195 C1194 1.386 . S
C1195 C1199 1.393 . S
C1196 H1185 0.950 . S
C1196 C1194 1.391 . S
C1196 C1197 1.400 . S
C1197 C1191 1.491 . S
C1197 C1196 1.400 . S
C1197 C1198 1.398 . S
C1198 H1186 0.950 . S
C1198 C1197 1.398 . S
C1198 C1199 1.391 . S
C1199 H1187 0.950 . S
C1199 C1195 1.393 . S
C1199 C1198 1.391 . S
C489 C10 1.078 . S
C495 C330 1.086 . S
C509 C50 1.083 . S
C515 C370 1.083 . S
C529 C90 1.079 . S
C535 C410 1.064 . S
C549 C450 1.063 . S
C555 C130 1.079 . S
C569 C170 1.074 . S
C575 C250 1.086 . S
C589 C290 1.062 . S
C595 C210 1.068 . S
C609 C416 1.435 . S
C615 C16 1.426 . S
C629 C456 1.435 . S
C635 C56 1.427 . S
C649 C96 1.447 . S
C655 C256 1.438 . S
C669 C296 1.441 . S
C675 C136 1.448 . S
C689 C336 1.428 . S
C695 C176 1.426 . S
C709 C216 1.448 . S
C715 C376 1.444 . S
C729 C291 4.323 . S
C735 C11 4.328 . S
C749 C331 4.325 . S
C755 C51 4.323 . S
C769 C371 4.325 . S
C775 C91 4.330 . S
C789 C131 4.325 . S
C795 C411 4.330 . S
C809 C171 4.325 . S
C815 C451 4.323 . S
C829 C211 4.323 . S
C835 C251 4.324 . S
C849 C19 0.546 . S
C855 C139 0.525 . S
C869 C59 0.457 . S
C875 C179 0.473 . S
C889 C99 0.520 . S
C895 C219 0.464 . S
C909 C379 0.546 . S
C915 C259 0.523 . S
C929 C299 0.461 . S
C935 C419 0.515 . S
C949 C459 0.517 . S
C955 C339 0.547 . S
C969 C287 0.793 . S
C975 C7 0.768 . S
C989 C327 0.731 . S
C995 C47 0.755 . S
C1009 C87 0.735 . S
C1015 C367 0.732 . S
C1029 C407 0.746 . S
C1035 C127 0.779 . S
C1049 C447 0.749 . S
C1055 C167 0.782 . S
C1069 C207 0.744 . S
C1075 C247 0.729 . S
C1089 C2 4.661 . S
C1095 C402 4.661 . S
C1109 C42 4.663 . S
C1115 C442 4.660 1_556 S
C1129 C82 4.663 1_554 S
C1135 C242 4.660 . S
C1149 C122 4.660 . S
C1155 C282 4.661 . S
C1169 C162 4.661 . S
C1175 C322 4.663 1_556 S
C1189 C362 4.662 . S
C1195 C202 4.660 1_554 S
