# Generated by pormake.
# Topology upb, (4)-cn, num edge types: 1
# Building blocks:
#     Node 0, Type 0, BuildingBlock: QUQFOY_clean_sbu_1, # of connection points: 4
#     Node 1, Type 0, BuildingBlock: QUQFOY_clean_sbu_1, # of connection points: 4
#     Node 2, Type 0, BuildingBlock: QUQFOY_clean_sbu_1, # of connection points: 4
#     Node 3, Type 0, BuildingBlock: QUQFOY_clean_sbu_1, # of connection points: 4
#     Node 4, Type 0, BuildingBlock: QUQFOY_clean_sbu_1, # of connection points: 4
#     Node 5, Type 0, BuildingBlock: QUQFOY_clean_sbu_1, # of connection points: 4
#     Node 6, Type 0, BuildingBlock: QUQFOY_clean_sbu_1, # of connection points: 4
#     Node 7, Type 0, BuildingBlock: QUQFOY_clean_sbu_1, # of connection points: 4
#     Node 8, Type 0, BuildingBlock: QUQFOY_clean_sbu_1, # of connection points: 4
#     Node 9, Type 0, BuildingBlock: QUQFOY_clean_sbu_1, # of connection points: 4
#     Node 10, Type 0, BuildingBlock: QUQFOY_clean_sbu_1, # of connection points: 4
#     Node 11, Type 0, BuildingBlock: QUQFOY_clean_sbu_1, # of connection points: 4
#     Node 12, Type 0, BuildingBlock: QUQFOY_clean_sbu_1, # of connection points: 4
#     Node 13, Type 0, BuildingBlock: QUQFOY_clean_sbu_1, # of connection points: 4
#     Node 14, Type 0, BuildingBlock: QUQFOY_clean_sbu_1, # of connection points: 4
#     Node 15, Type 0, BuildingBlock: QUQFOY_clean_sbu_1, # of connection points: 4
#     Edge 16, Type (0, 0), BuildingBlock: UVAHIK_clean_linker_0, # of connection points: 2
#     Edge 17, Type (0, 0), BuildingBlock: UVAHIK_clean_linker_0, # of connection points: 2
#     Edge 18, Type (0, 0), BuildingBlock: UVAHIK_clean_linker_0, # of connection points: 2
#     Edge 19, Type (0, 0), BuildingBlock: UVAHIK_clean_linker_0, # of connection points: 2
#     Edge 20, Type (0, 0), BuildingBlock: UVAHIK_clean_linker_0, # of connection points: 2
#     Edge 21, Type (0, 0), BuildingBlock: UVAHIK_clean_linker_0, # of connection points: 2
#     Edge 22, Type (0, 0), BuildingBlock: UVAHIK_clean_linker_0, # of connection points: 2
#     Edge 23, Type (0, 0), BuildingBlock: UVAHIK_clean_linker_0, # of connection points: 2
#     Edge 24, Type (0, 0), BuildingBlock: UVAHIK_clean_linker_0, # of connection points: 2
#     Edge 25, Type (0, 0), BuildingBlock: UVAHIK_clean_linker_0, # of connection points: 2
#     Edge 26, Type (0, 0), BuildingBlock: UVAHIK_clean_linker_0, # of connection points: 2
#     Edge 27, Type (0, 0), BuildingBlock: UVAHIK_clean_linker_0, # of connection points: 2
#     Edge 28, Type (0, 0), BuildingBlock: UVAHIK_clean_linker_0, # of connection points: 2
#     Edge 29, Type (0, 0), BuildingBlock: UVAHIK_clean_linker_0, # of connection points: 2
#     Edge 30, Type (0, 0), BuildingBlock: UVAHIK_clean_linker_0, # of connection points: 2
#     Edge 31, Type (0, 0), BuildingBlock: UVAHIK_clean_linker_0, # of connection points: 2
#     Edge 32, Type (0, 0), BuildingBlock: UVAHIK_clean_linker_0, # of connection points: 2
#     Edge 33, Type (0, 0), BuildingBlock: UVAHIK_clean_linker_0, # of connection points: 2
#     Edge 34, Type (0, 0), BuildingBlock: UVAHIK_clean_linker_0, # of connection points: 2
#     Edge 35, Type (0, 0), BuildingBlock: UVAHIK_clean_linker_0, # of connection points: 2
#     Edge 36, Type (0, 0), BuildingBlock: UVAHIK_clean_linker_0, # of connection points: 2
#     Edge 37, Type (0, 0), BuildingBlock: UVAHIK_clean_linker_0, # of connection points: 2
#     Edge 38, Type (0, 0), BuildingBlock: UVAHIK_clean_linker_0, # of connection points: 2
#     Edge 39, Type (0, 0), BuildingBlock: UVAHIK_clean_linker_0, # of connection points: 2
#     Edge 40, Type (0, 0), BuildingBlock: UVAHIK_clean_linker_0, # of connection points: 2
#     Edge 41, Type (0, 0), BuildingBlock: UVAHIK_clean_linker_0, # of connection points: 2
#     Edge 42, Type (0, 0), BuildingBlock: UVAHIK_clean_linker_0, # of connection points: 2
#     Edge 43, Type (0, 0), BuildingBlock: UVAHIK_clean_linker_0, # of connection points: 2
#     Edge 44, Type (0, 0), BuildingBlock: UVAHIK_clean_linker_0, # of connection points: 2
#     Edge 45, Type (0, 0), BuildingBlock: UVAHIK_clean_linker_0, # of connection points: 2
#     Edge 46, Type (0, 0), BuildingBlock: UVAHIK_clean_linker_0, # of connection points: 2
#     Edge 47, Type (0, 0), BuildingBlock: UVAHIK_clean_linker_0, # of connection points: 2
# Relax obj value: 0.227
# Max RMSD: 0.128
# Mean RMSD: 0.128
data_MOF--net-upb--node1-QUQFOY_clean_sbu_1--edge1-UVAHIK_clean_linker_0
_symmetry_space_group_name_H-M    P1
_symmetry_Int_Tables_number       1
_symmetry_cell_setting            triclinic
loop_
_symmetry_equiv_pos_as_xyz
'x, y, z'
_cell_length_a     57.625946
_cell_length_b     57.62059
_cell_length_c     54.109025
_cell_angle_alpha  89.995877
_cell_angle_beta   89.997726
_cell_angle_gamma 89.99507
loop_
_atom_site_label
_atom_site_type_symbol
_atom_site_fract_x
_atom_site_fract_y
_atom_site_fract_z
_atom_type_partial_charge
O0 O 0.06484 0.21484 0.28376 0.0
Cd1 Cd 0.04064 0.2411 0.2833 0.0
Cd2 Cd 0.03706 0.23124 0.33421 0.0
O3 O 0.06573 0.21148 0.3244 0.0
O4 O 0.04917 0.26365 0.25701 0.0
O5 O 0.05062 0.27176 0.29707 0.0
C6 C 0.05424 0.2781 0.27445 0.0
C7 C 0.03335 0.24063 0.37639 0.0
C8 C 0.07344 0.2059 0.30317 0.0
C9 C 0.9951 0.22401 0.29932 0.0
O10 O 0.00484 0.2226 0.32032 0.0
O11 O 0.00616 0.23178 0.28079 0.0
O12 O 0.03207 0.21968 0.36843 0.0
O13 O 0.03801 0.25664 0.36046 0.0
O14 O 0.78823 0.0669 0.28311 0.0
Cd15 Cd 0.76295 0.04167 0.28333 0.0
Cd16 Cd 0.7728 0.03963 0.33382 0.0
O17 O 0.7905 0.06951 0.32373 0.0
O18 O 0.73982 0.04895 0.25721 0.0
O19 O 0.73214 0.05079 0.29736 0.0
C20 C 0.72543 0.05386 0.27477 0.0
C21 C 0.76276 0.03596 0.37582 0.0
C22 C 0.79614 0.07676 0.30234 0.0
C23 C 0.78273 0.99754 0.30001 0.0
O24 O 0.78407 0.00792 0.32067 0.0
O25 O 0.77365 0.00757 0.28149 0.0
O26 O 0.78393 0.03613 0.36842 0.0
O27 O 0.74682 0.0391 0.35941 0.0
O28 O 0.93823 0.78798 0.28112 0.0
Cd29 Cd 0.96238 0.7617 0.28151 0.0
Cd30 Cd 0.9657 0.77128 0.33193 0.0
O31 O 0.93732 0.79127 0.32173 0.0
O32 O 0.95345 0.73752 0.25708 0.0
O33 O 0.95269 0.73208 0.29769 0.0
C34 C 0.94866 0.72427 0.27568 0.0
C35 C 0.96731 0.76135 0.37409 0.0
C36 C 0.92962 0.79692 0.30052 0.0
C37 C 0.00801 0.7784 0.29776 0.0
O38 O 0.99826 0.77973 0.31878 0.0
O39 O 0.99689 0.7709 0.27914 0.0
O40 O 0.96933 0.78237 0.36653 0.0
O41 O 0.9637 0.74552 0.35768 0.0
O42 O 0.2145 0.93576 0.28213 0.0
Cd43 Cd 0.23978 0.96097 0.28289 0.0
Cd44 Cd 0.22991 0.96251 0.33306 0.0
O45 O 0.21249 0.93256 0.32272 0.0
O46 O 0.26428 0.9532 0.25837 0.0
O47 O 0.2697 0.95208 0.29898 0.0
C48 C 0.27763 0.9485 0.27692 0.0
C49 C 0.23995 0.966 0.37505 0.0
C50 C 0.20677 0.92556 0.30126 0.0
C51 C 0.21989 0.00489 0.29964 0.0
O52 O 0.21847 0.99424 0.32015 0.0
O53 O 0.22913 0.99511 0.28104 0.0
O54 O 0.21877 0.96568 0.36768 0.0
O55 O 0.2559 0.96309 0.35861 0.0
O56 O 0.06711 0.788 0.71819 0.0
Cd57 Cd 0.04208 0.76253 0.71825 0.0
Cd58 Cd 0.03956 0.77223 0.66761 0.0
O59 O 0.06924 0.79033 0.67753 0.0
O60 O 0.04975 0.73942 0.74427 0.0
O61 O 0.0513 0.7318 0.7041 0.0
C62 C 0.05461 0.72508 0.72665 0.0
C63 C 0.03586 0.7625 0.62553 0.0
C64 C 0.07667 0.79604 0.69883 0.0
C65 C 0.99757 0.78167 0.70178 0.0
O66 O 0.00776 0.78293 0.681 0.0
O67 O 0.00789 0.77295 0.72032 0.0
O68 O 0.03573 0.7836 0.63315 0.0
O69 O 0.03929 0.74646 0.64176 0.0
O70 O 0.21522 0.06514 0.71898 0.0
Cd71 Cd 0.24124 0.04068 0.71857 0.0
Cd72 Cd 0.23174 0.03824 0.66787 0.0
O73 O 0.21245 0.06699 0.67836 0.0
O74 O 0.2643 0.04848 0.7446 0.0
O75 O 0.27171 0.05072 0.70442 0.0
C76 C 0.27846 0.05386 0.72698 0.0
C77 C 0.24174 0.03669 0.62572 0.0
C78 C 0.20669 0.07434 0.69967 0.0
C79 C 0.22363 0.99561 0.70132 0.0
O80 O 0.22233 0.00576 0.68051 0.0
O81 O 0.23159 0.00623 0.72006 0.0
O82 O 0.22065 0.03525 0.6332 0.0
O83 O 0.25762 0.03974 0.64221 0.0
O84 O 0.93711 0.21426 0.72046 0.0
Cd85 Cd 0.9619 0.23994 0.71947 0.0
Cd86 Cd 0.96371 0.23047 0.66933 0.0
O87 O 0.93451 0.21191 0.67988 0.0
O88 O 0.95397 0.26438 0.74401 0.0
O89 O 0.95247 0.26971 0.7034 0.0
C90 C 0.94898 0.27764 0.72547 0.0
C91 C 0.96503 0.24147 0.62747 0.0
C92 C 0.92739 0.20612 0.70126 0.0
C93 C 0.0064 0.22123 0.70222 0.0
O94 O 0.99599 0.21991 0.68157 0.0
O95 O 0.99621 0.2298 0.72094 0.0
O96 O 0.96593 0.22015 0.63432 0.0
O97 O 0.96272 0.25702 0.64446 0.0
O98 O 0.78818 0.93716 0.71955 0.0
Cd99 Cd 0.76216 0.9616 0.71892 0.0
Cd100 Cd 0.77198 0.96453 0.66871 0.0
O101 O 0.79138 0.93576 0.67895 0.0
O102 O 0.73786 0.95302 0.74336 0.0
O103 O 0.73247 0.95209 0.70275 0.0
C104 C 0.7246 0.94821 0.72477 0.0
C105 C 0.76165 0.96626 0.62667 0.0
C106 C 0.79695 0.9282 0.70024 0.0
C107 C 0.77995 0.00682 0.70264 0.0
O108 O 0.78137 0.9969 0.68171 0.0
O109 O 0.77182 0.996 0.72118 0.0
O110 O 0.7828 0.96776 0.63396 0.0
O111 O 0.74591 0.9631 0.64329 0.0
O112 O 0.56626 0.71417 0.78221 0.0
Cd113 Cd 0.54135 0.73976 0.78191 0.0
Cd114 Cd 0.53849 0.73014 0.83265 0.0
O115 O 0.56808 0.71181 0.82288 0.0
O116 O 0.54926 0.76274 0.75584 0.0
O117 O 0.55064 0.77049 0.79599 0.0
C118 C 0.55411 0.77712 0.77343 0.0
C119 C 0.53465 0.7398 0.87474 0.0
C120 C 0.57563 0.70607 0.80164 0.0
C121 C 0.49663 0.72093 0.79819 0.0
O122 O 0.50668 0.71971 0.81905 0.0
O123 O 0.50713 0.72947 0.77966 0.0
O124 O 0.53437 0.71872 0.86706 0.0
O125 O 0.5383 0.75585 0.85857 0.0
O126 O 0.288 0.56456 0.78058 0.0
Cd127 Cd 0.26199 0.54011 0.78133 0.0
Cd128 Cd 0.27176 0.53744 0.83161 0.0
O129 O 0.29108 0.56621 0.82118 0.0
O130 O 0.23768 0.54858 0.75686 0.0
O131 O 0.23231 0.54968 0.79748 0.0
C132 C 0.22443 0.55347 0.77544 0.0
C133 C 0.26154 0.53588 0.87369 0.0
C134 C 0.29669 0.57365 0.79986 0.0
C135 C 0.27972 0.49497 0.7979 0.0
O136 O 0.28112 0.50501 0.81877 0.0
O137 O 0.27164 0.5057 0.77928 0.0
O138 O 0.28268 0.53438 0.86634 0.0
O139 O 0.24576 0.53895 0.85711 0.0
O140 O 0.43715 0.28777 0.78161 0.0
Cd141 Cd 0.46203 0.26218 0.78271 0.0
Cd142 Cd 0.4637 0.27179 0.8328 0.0
O143 O 0.4344 0.29016 0.82218 0.0
O144 O 0.45423 0.23772 0.75816 0.0
O145 O 0.45266 0.2324 0.79876 0.0
C146 C 0.44923 0.22445 0.77669 0.0
C147 C 0.46508 0.26083 0.87467 0.0
C148 C 0.42732 0.29589 0.80076 0.0
C149 C 0.50641 0.28113 0.79997 0.0
O150 O 0.49593 0.28249 0.82059 0.0
O151 O 0.49631 0.27242 0.78127 0.0
O152 O 0.46585 0.28215 0.8678 0.0
O153 O 0.46284 0.24526 0.8577 0.0
O154 O 0.71514 0.43725 0.78288 0.0
Cd155 Cd 0.74111 0.46176 0.78323 0.0
Cd156 Cd 0.73161 0.46431 0.83387 0.0
O157 O 0.71242 0.43546 0.8235 0.0
O158 O 0.76419 0.45393 0.75722 0.0
O159 O 0.77159 0.45179 0.79741 0.0
C160 C 0.77835 0.44859 0.77485 0.0
C161 C 0.74175 0.46596 0.87597 0.0
C162 C 0.70666 0.42806 0.80221 0.0
C163 C 0.72327 0.5068 0.80033 0.0
O164 O 0.72197 0.49669 0.82115 0.0
O165 O 0.73136 0.49619 0.78164 0.0
O166 O 0.72062 0.46729 0.86857 0.0
O167 O 0.75758 0.46298 0.85942 0.0
O168 O 0.56626 0.28727 0.21786 0.0
Cd169 Cd 0.54167 0.26138 0.2178 0.0
Cd170 Cd 0.53863 0.27135 0.16734 0.0
O171 O 0.56775 0.29039 0.17723 0.0
O172 O 0.55033 0.23737 0.24251 0.0
O173 O 0.55081 0.2314 0.20199 0.0
C174 C 0.55482 0.22381 0.22409 0.0
C175 C 0.53487 0.26174 0.12524 0.0
C176 C 0.57532 0.29591 0.19853 0.0
C177 C 0.49661 0.2794 0.20196 0.0
O178 O 0.50657 0.2808 0.18107 0.0
O179 O 0.50734 0.27118 0.22049 0.0
O180 O 0.53408 0.28279 0.13301 0.0
O181 O 0.53907 0.24575 0.14132 0.0
O182 O 0.71419 0.56634 0.2198 0.0
Cd183 Cd 0.73975 0.54139 0.21974 0.0
Cd184 Cd 0.73038 0.53926 0.169 0.0
O185 O 0.7122 0.56884 0.17914 0.0
O186 O 0.76298 0.54903 0.24563 0.0
O187 O 0.77033 0.55078 0.2054 0.0
C188 C 0.77718 0.55403 0.22792 0.0
C189 C 0.74018 0.53585 0.12692 0.0
C190 C 0.70632 0.57608 0.20047 0.0
C191 C 0.72105 0.49691 0.20275 0.0
O192 O 0.71986 0.50728 0.18207 0.0
O193 O 0.72952 0.50714 0.22148 0.0
O194 O 0.71906 0.53563 0.13451 0.0
O195 O 0.75618 0.53925 0.1432 0.0
O196 O 0.43776 0.71469 0.21951 0.0
Cd197 Cd 0.46202 0.74089 0.21922 0.0
Cd198 Cd 0.4649 0.73133 0.1685 0.0
O199 O 0.43639 0.71162 0.17889 0.0
O200 O 0.45396 0.76386 0.24526 0.0
O201 O 0.45186 0.77133 0.20508 0.0
C202 C 0.4486 0.77803 0.22765 0.0
C203 C 0.46639 0.74131 0.12633 0.0
C204 C 0.42889 0.70591 0.20016 0.0
C205 C 0.50737 0.72368 0.20226 0.0
O206 O 0.49743 0.72236 0.18134 0.0
O207 O 0.49651 0.73145 0.22093 0.0
O208 O 0.46815 0.72024 0.13385 0.0
O209 O 0.4631 0.75716 0.1428 0.0
O210 O 0.28861 0.43577 0.21747 0.0
Cd211 Cd 0.26307 0.46072 0.21701 0.0
Cd212 Cd 0.27325 0.46314 0.16682 0.0
O213 O 0.29139 0.43352 0.17687 0.0
O214 O 0.23887 0.45255 0.24172 0.0
O215 O 0.23306 0.45175 0.20117 0.0
C216 C 0.22536 0.44796 0.22328 0.0
C217 C 0.26332 0.46681 0.12479 0.0
C218 C 0.2969 0.42618 0.19826 0.0
C219 C 0.28239 0.50519 0.20098 0.0
O220 O 0.28391 0.49495 0.18025 0.0
O221 O 0.2734 0.49492 0.21941 0.0
O222 O 0.28446 0.46699 0.1323 0.0
O223 O 0.24737 0.46334 0.14111 0.0
C224 C 0.09879 0.17933 0.27798 0.0
C225 C 0.09178 0.18793 0.30116 0.0
C226 C 0.1147 0.16102 0.27637 0.0
C227 C 0.13591 0.1118 0.31329 0.0
H228 H 0.18526 0.10809 0.26469 0.0
C229 C 0.20399 0.04049 0.3195 0.0
C230 C 0.20946 0.02831 0.29776 0.0
C231 C 0.19154 0.06118 0.31851 0.0
C232 C 0.17142 0.10882 0.2782 0.0
H233 H 0.09687 0.18467 0.34076 0.0
H234 H 0.12467 0.15306 0.33791 0.0
H235 H 0.15989 0.14225 0.26569 0.0
H236 H 0.20718 0.029 0.25778 0.0
H237 H 0.18504 0.06534 0.25605 0.0
H238 H 0.14714 0.07852 0.32579 0.0
C239 C 0.11754 0.16013 0.32098 0.0
C240 C 0.15691 0.12836 0.27879 0.0
C241 C 0.10167 0.17836 0.32261 0.0
C242 C 0.2032 0.03798 0.27485 0.0
C243 C 0.19056 0.05879 0.27386 0.0
C244 C 0.15032 0.09239 0.3127 0.0
C245 C 0.12389 0.15092 0.29789 0.0
C246 C 0.13916 0.13015 0.29656 0.0
C247 C 0.18406 0.07024 0.29577 0.0
C248 C 0.16844 0.09076 0.2954 0.0
H249 H 0.09154 0.18632 0.26108 0.0
H250 H 0.11915 0.15424 0.25831 0.0
H251 H 0.12203 0.11232 0.32677 0.0
H252 H 0.20885 0.03374 0.33746 0.0
H253 H 0.18736 0.06988 0.33569 0.0
C254 C 0.95737 0.21246 0.31803 0.0
C255 C 0.97118 0.21499 0.2968 0.0
C256 C 0.93628 0.2007 0.31693 0.0
C257 C 0.89122 0.17629 0.27569 0.0
H258 H 0.88446 0.13217 0.32935 0.0
C259 C 0.82306 0.10159 0.27706 0.0
C260 C 0.81307 0.09602 0.30003 0.0
C261 C 0.84067 0.11827 0.27545 0.0
C262 C 0.88583 0.14462 0.31442 0.0
H263 H 0.97301 0.20841 0.25741 0.0
H264 H 0.93604 0.18741 0.25553 0.0
H265 H 0.91786 0.15773 0.3284 0.0
H266 H 0.81284 0.10459 0.33908 0.0
H267 H 0.84315 0.1338 0.33621 0.0
H268 H 0.8591 0.16278 0.26164 0.0
C269 C 0.94156 0.19473 0.273 0.0
C270 C 0.90503 0.1593 0.31387 0.0
C271 C 0.96273 0.20672 0.27407 0.0
C272 C 0.82034 0.10822 0.32114 0.0
C273 C 0.83781 0.12491 0.31951 0.0
C274 C 0.87188 0.16152 0.27626 0.0
C275 C 0.92851 0.19095 0.29462 0.0
C276 C 0.9079 0.17544 0.29464 0.0
C277 C 0.8486 0.12974 0.29677 0.0
C278 C 0.86891 0.14563 0.29577 0.0
H279 H 0.96321 0.21896 0.33576 0.0
H280 H 0.92635 0.19865 0.33378 0.0
H281 H 0.89294 0.18858 0.26066 0.0
H282 H 0.81784 0.09253 0.26041 0.0
H283 H 0.84869 0.12149 0.25767 0.0
C284 C 0.7986 0.96165 0.31934 0.0
C285 C 0.79315 0.97413 0.2978 0.0
C286 C 0.81106 0.94097 0.31801 0.0
C287 C 0.83142 0.89405 0.27682 0.0
H288 H 0.88075 0.88994 0.3254 0.0
C289 C 0.90443 0.82384 0.27556 0.0
C290 C 0.91128 0.81489 0.29863 0.0
C291 C 0.88847 0.84214 0.27416 0.0
C292 C 0.86689 0.89064 0.3119 0.0
H293 H 0.79545 0.97403 0.25781 0.0
H294 H 0.81763 0.93776 0.25549 0.0
H295 H 0.85547 0.92362 0.32505 0.0
H296 H 0.90585 0.81744 0.33824 0.0
H297 H 0.87799 0.849 0.33576 0.0
H298 H 0.84315 0.86091 0.26364 0.0
C299 C 0.81207 0.94404 0.2734 0.0
C300 C 0.85237 0.90997 0.31169 0.0
C301 C 0.79942 0.9648 0.27473 0.0
C302 C 0.90118 0.82405 0.32017 0.0
C303 C 0.88527 0.84225 0.31876 0.0
C304 C 0.84603 0.87459 0.27703 0.0
C305 C 0.81858 0.93227 0.29512 0.0
C306 C 0.83427 0.91181 0.29439 0.0
C307 C 0.87908 0.85184 0.29581 0.0
C308 C 0.86375 0.87257 0.29479 0.0
H309 H 0.79372 0.96814 0.3374 0.0
H310 H 0.81525 0.93202 0.33504 0.0
H311 H 0.81759 0.89496 0.2633 0.0
H312 H 0.91184 0.81716 0.2586 0.0
H313 H 0.88411 0.84921 0.25621 0.0
C314 C 0.0459 0.78946 0.31644 0.0
C315 C 0.03198 0.78728 0.29526 0.0
C316 C 0.06707 0.80108 0.31537 0.0
C317 C 0.11192 0.82597 0.27407 0.0
H318 H 0.11926 0.86923 0.32842 0.0
C319 C 0.17973 0.90099 0.27584 0.0
C320 C 0.18999 0.90621 0.29877 0.0
C321 C 0.16222 0.88421 0.27416 0.0
C322 C 0.11773 0.85702 0.3133 0.0
H323 H 0.03 0.79434 0.25597 0.0
H324 H 0.06706 0.81514 0.25416 0.0
H325 H 0.08588 0.84367 0.32746 0.0
H326 H 0.19085 0.89689 0.33762 0.0
H327 H 0.16071 0.86752 0.33462 0.0
H328 H 0.14383 0.83977 0.25982 0.0
C329 C 0.0616 0.80763 0.27156 0.0
C330 C 0.09855 0.84233 0.31274 0.0
C331 C 0.04037 0.79575 0.2726 0.0
C332 C 0.18312 0.89355 0.31973 0.0
C333 C 0.16575 0.87676 0.31802 0.0
C334 C 0.13124 0.84076 0.27464 0.0
C335 C 0.07478 0.81106 0.29316 0.0
C336 C 0.09545 0.8265 0.29325 0.0
C337 C 0.15468 0.87229 0.29537 0.0
C338 C 0.13441 0.85634 0.29438 0.0
H339 H 0.04009 0.78278 0.33412 0.0
H340 H 0.0771 0.80286 0.3322 0.0
H341 H 0.11003 0.81393 0.25883 0.0
H342 H 0.18464 0.9104 0.25932 0.0
H343 H 0.15396 0.88126 0.25646 0.0
C344 C 0.10176 0.82294 0.72386 0.0
C345 C 0.09577 0.81316 0.7009 0.0
C346 C 0.11831 0.84068 0.72529 0.0
C347 C 0.14334 0.8866 0.68637 0.0
H348 H 0.18883 0.89303 0.73876 0.0
C349 C 0.2109 0.95851 0.68197 0.0
C350 C 0.21427 0.97178 0.70346 0.0
C351 C 0.19906 0.93746 0.68297 0.0
C352 C 0.1761 0.89152 0.72413 0.0
H353 H 0.10345 0.81351 0.66163 0.0
H354 H 0.13241 0.84408 0.66418 0.0
H355 H 0.16315 0.8591 0.73801 0.0
H356 H 0.20901 0.9727 0.74311 0.0
H357 H 0.18787 0.93583 0.74482 0.0
H358 H 0.15588 0.91893 0.67257 0.0
C359 C 0.12396 0.83845 0.68102 0.0
C360 C 0.16141 0.87212 0.72369 0.0
C361 C 0.10741 0.82082 0.67958 0.0
C362 C 0.20667 0.96285 0.72625 0.0
C363 C 0.1946 0.94173 0.72722 0.0
C364 C 0.15793 0.90587 0.6868 0.0
C365 C 0.12922 0.84897 0.70378 0.0
C366 C 0.14498 0.86939 0.70467 0.0
C367 C 0.19006 0.92919 0.70543 0.0
C368 C 0.17463 0.90851 0.70553 0.0
H369 H 0.09315 0.81741 0.74065 0.0
H370 H 0.12188 0.8485 0.74308 0.0
H371 H 0.13048 0.88539 0.67183 0.0
H372 H 0.21686 0.96472 0.66417 0.0
H373 H 0.19641 0.92792 0.66595 0.0
C374 C 0.17972 0.09927 0.72486 0.0
C375 C 0.18904 0.09296 0.70177 0.0
C376 C 0.16163 0.11546 0.72638 0.0
C377 C 0.11418 0.1387 0.68829 0.0
H378 H 0.10906 0.1862 0.73879 0.0
C379 C 0.04274 0.20672 0.68263 0.0
C380 C 0.03001 0.21126 0.70424 0.0
C381 C 0.06358 0.19451 0.68368 0.0
C382 C 0.1102 0.17289 0.72471 0.0
H383 H 0.1874 0.09962 0.66232 0.0
H384 H 0.15621 0.12789 0.66503 0.0
H385 H 0.14303 0.16057 0.73811 0.0
H386 H 0.02983 0.20762 0.74412 0.0
H387 H 0.06635 0.18585 0.74594 0.0
H388 H 0.08146 0.15066 0.67494 0.0
C389 C 0.16251 0.12 0.68192 0.0
C390 C 0.12962 0.15823 0.72432 0.0
C391 C 0.18049 0.10385 0.68039 0.0
C392 C 0.03926 0.20437 0.72715 0.0
C393 C 0.06017 0.19194 0.72819 0.0
C394 C 0.09488 0.15326 0.68868 0.0
C395 C 0.15252 0.12563 0.70485 0.0
C396 C 0.13191 0.14113 0.70591 0.0
C397 C 0.07219 0.18631 0.70635 0.0
C398 C 0.09274 0.1707 0.70669 0.0
H399 H 0.18593 0.09124 0.7417 0.0
H400 H 0.15424 0.11935 0.74431 0.0
H401 H 0.11507 0.12532 0.67426 0.0
H402 H 0.03631 0.2121 0.66471 0.0
H403 H 0.07272 0.19101 0.66659 0.0
C404 C 0.89661 0.18122 0.68232 0.0
C405 C 0.90844 0.18885 0.70353 0.0
C406 C 0.88018 0.1635 0.68387 0.0
C407 C 0.84314 0.12958 0.72661 0.0
H408 H 0.84836 0.08311 0.6751 0.0
C409 C 0.79709 0.03913 0.72809 0.0
C410 C 0.78942 0.03057 0.70516 0.0
C411 C 0.80936 0.06012 0.72937 0.0
C412 C 0.8464 0.09607 0.68945 0.0
H413 H 0.91154 0.18442 0.74323 0.0
H414 H 0.88295 0.15316 0.74584 0.0
H415 H 0.87393 0.11652 0.67459 0.0
H416 H 0.78687 0.03819 0.66599 0.0
H417 H 0.80766 0.07477 0.66832 0.0
H418 H 0.81561 0.10871 0.74154 0.0
C419 C 0.88632 0.16108 0.72805 0.0
C420 C 0.86109 0.11526 0.68915 0.0
C421 C 0.90276 0.17892 0.72652 0.0
C422 C 0.79289 0.0441 0.68388 0.0
C423 C 0.80492 0.06503 0.68519 0.0
C424 C 0.82834 0.11025 0.72691 0.0
C425 C 0.87522 0.15284 0.70663 0.0
C426 C 0.85953 0.13237 0.70756 0.0
C427 C 0.81402 0.07291 0.70777 0.0
C428 C 0.82968 0.09341 0.70815 0.0
H429 H 0.90031 0.18864 0.66437 0.0
H430 H 0.87157 0.15791 0.6671 0.0
H431 H 0.84148 0.14251 0.74102 0.0
H432 H 0.79468 0.02907 0.7448 0.0
H433 H 0.81616 0.06573 0.74705 0.0
C434 C 0.82389 0.90323 0.72543 0.0
C435 C 0.81469 0.90966 0.70232 0.0
C436 C 0.84209 0.88717 0.72695 0.0
C437 C 0.88998 0.8646 0.68901 0.0
H438 H 0.89507 0.81662 0.73901 0.0
C439 C 0.9612 0.79649 0.68256 0.0
C440 C 0.97404 0.79177 0.70406 0.0
C441 C 0.94042 0.80878 0.68383 0.0
C442 C 0.89395 0.83007 0.72508 0.0
H443 H 0.81667 0.90333 0.66283 0.0
H444 H 0.84804 0.87528 0.66554 0.0
H445 H 0.86098 0.84212 0.73843 0.0
H446 H 0.97446 0.79517 0.74396 0.0
H447 H 0.93801 0.81706 0.74616 0.0
H448 H 0.92279 0.85289 0.67568 0.0
C449 C 0.84157 0.88299 0.68245 0.0
C450 C 0.87446 0.84465 0.72474 0.0
C451 C 0.82348 0.89901 0.68092 0.0
C452 C 0.96496 0.79856 0.72707 0.0
C453 C 0.94409 0.81106 0.72833 0.0
C454 C 0.90933 0.85012 0.68934 0.0
C455 C 0.85144 0.87725 0.70541 0.0
C456 C 0.87216 0.86191 0.70649 0.0
C457 C 0.93197 0.81687 0.70661 0.0
C458 C 0.91146 0.83249 0.70715 0.0
H459 H 0.8175 0.91108 0.74229 0.0
H460 H 0.84938 0.88318 0.7449 0.0
H461 H 0.88909 0.87811 0.67511 0.0
H462 H 0.9675 0.79119 0.66456 0.0
H463 H 0.93121 0.81243 0.66682 0.0
C464 C 0.60607 0.68106 0.82112 0.0
C465 C 0.59467 0.68885 0.79971 0.0
C466 C 0.62258 0.6634 0.81978 0.0
C467 C 0.66049 0.62994 0.77738 0.0
H468 H 0.65457 0.58295 0.82827 0.0
C469 C 0.70628 0.53943 0.77521 0.0
C470 C 0.71373 0.53056 0.79808 0.0
C471 C 0.69406 0.56046 0.77411 0.0
C472 C 0.65673 0.59606 0.8141 0.0
H473 H 0.59243 0.68477 0.7599 0.0
H474 H 0.62113 0.65362 0.75766 0.0
H475 H 0.62904 0.6164 0.82881 0.0
H476 H 0.71588 0.53764 0.8374 0.0
H477 H 0.69515 0.57427 0.8354 0.0
H478 H 0.68815 0.60918 0.76258 0.0
C479 C 0.61738 0.66137 0.77545 0.0
C480 C 0.64206 0.61527 0.81442 0.0
C481 C 0.60086 0.67915 0.77677 0.0
C482 C 0.71004 0.54379 0.81953 0.0
C483 C 0.69804 0.56476 0.81841 0.0
C484 C 0.67525 0.6106 0.77706 0.0
C485 C 0.62806 0.65296 0.79703 0.0
C486 C 0.64385 0.63256 0.79622 0.0
C487 C 0.68921 0.57297 0.79585 0.0
C488 C 0.67365 0.59355 0.79558 0.0
H489 H 0.60195 0.68831 0.83906 0.0
H490 H 0.63086 0.65767 0.83669 0.0
H491 H 0.66235 0.64301 0.76314 0.0
H492 H 0.70887 0.52961 0.75837 0.0
H493 H 0.68746 0.56633 0.75644 0.0
C494 C 0.46001 0.70655 0.81722 0.0
C495 C 0.47308 0.71092 0.7958 0.0
C496 C 0.43925 0.69423 0.81593 0.0
C497 C 0.39326 0.67209 0.77457 0.0
H498 H 0.38825 0.62473 0.82524 0.0
C499 C 0.32368 0.5985 0.77459 0.0
C500 C 0.31435 0.59226 0.7977 0.0
C501 C 0.34178 0.61466 0.77303 0.0
C502 C 0.38918 0.63805 0.81115 0.0
H503 H 0.47391 0.7069 0.75597 0.0
H504 H 0.43749 0.68497 0.75373 0.0
H505 H 0.42178 0.65017 0.82464 0.0
H506 H 0.31596 0.59905 0.83712 0.0
H507 H 0.34715 0.62729 0.83434 0.0
H508 H 0.36051 0.65964 0.76106 0.0
C509 C 0.44337 0.69126 0.77152 0.0
C510 C 0.40844 0.65265 0.81079 0.0
C511 C 0.46422 0.70378 0.7728 0.0
C512 C 0.32289 0.60321 0.81904 0.0
C513 C 0.34088 0.61934 0.81747 0.0
C514 C 0.37387 0.65739 0.77493 0.0
C515 C 0.43105 0.68577 0.79321 0.0
C516 C 0.41062 0.67004 0.79271 0.0
C517 C 0.3509 0.6249 0.79453 0.0
C518 C 0.37152 0.64037 0.79343 0.0
H519 H 0.46613 0.71212 0.8352 0.0
H520 H 0.42986 0.69084 0.8329 0.0
H521 H 0.39444 0.68534 0.76043 0.0
H522 H 0.31748 0.59042 0.75777 0.0
H523 H 0.34919 0.61849 0.75509 0.0
C524 C 0.29239 0.45771 0.81692 0.0
C525 C 0.28912 0.47118 0.79555 0.0
C526 C 0.30436 0.43674 0.81579 0.0
C527 C 0.32805 0.39136 0.77441 0.0
H528 H 0.37322 0.38517 0.82715 0.0
C529 C 0.40268 0.32295 0.77537 0.0
C530 C 0.40829 0.31306 0.79838 0.0
C531 C 0.38615 0.34071 0.77373 0.0
C532 C 0.3605 0.38641 0.81248 0.0
H533 H 0.29468 0.47253 0.75596 0.0
H534 H 0.31607 0.43579 0.75404 0.0
H535 H 0.34763 0.41856 0.82638 0.0
H536 H 0.39994 0.3132 0.8375 0.0
H537 H 0.37104 0.34378 0.83459 0.0
H538 H 0.34134 0.35911 0.76044 0.0
C539 C 0.30915 0.44148 0.77163 0.0
C540 C 0.34579 0.40558 0.81203 0.0
C541 C 0.29693 0.46252 0.77273 0.0
C542 C 0.39629 0.32061 0.81952 0.0
C543 C 0.37977 0.33824 0.81787 0.0
C544 C 0.34287 0.37205 0.77486 0.0
C545 C 0.31361 0.42876 0.79332 0.0
C546 C 0.32923 0.40822 0.79316 0.0
C547 C 0.37489 0.34888 0.79508 0.0
C548 C 0.35911 0.36928 0.79406 0.0
H549 H 0.28625 0.46371 0.83473 0.0
H550 H 0.30693 0.42705 0.83273 0.0
H551 H 0.31545 0.39288 0.75966 0.0
H552 H 0.41158 0.3175 0.75871 0.0
H553 H 0.38285 0.34862 0.75592 0.0
C554 C 0.68046 0.3986 0.82158 0.0
C555 C 0.68903 0.40941 0.80016 0.0
C556 C 0.66247 0.38246 0.8201 0.0
C557 C 0.62964 0.34406 0.77786 0.0
H558 H 0.58136 0.35197 0.82704 0.0
C559 C 0.5393 0.29791 0.77505 0.0
C560 C 0.52999 0.29116 0.79797 0.0
C561 C 0.5602 0.31035 0.774 0.0
C562 C 0.59481 0.34927 0.81336 0.0
H563 H 0.68597 0.41097 0.76022 0.0
H564 H 0.65429 0.38285 0.7577 0.0
H565 H 0.61499 0.37727 0.82766 0.0
H566 H 0.53614 0.29059 0.83754 0.0
H567 H 0.57253 0.31171 0.83564 0.0
H568 H 0.6091 0.31602 0.76351 0.0
C569 C 0.66166 0.38682 0.77562 0.0
C570 C 0.61412 0.36381 0.81372 0.0
C571 C 0.67975 0.40301 0.77709 0.0
C572 C 0.54263 0.29586 0.8196 0.0
C573 C 0.56346 0.30809 0.81854 0.0
C574 C 0.6102 0.32941 0.77751 0.0
C575 C 0.65251 0.37674 0.79718 0.0
C576 C 0.63189 0.36126 0.79616 0.0
C577 C 0.57214 0.31614 0.79584 0.0
C578 C 0.5927 0.33173 0.79545 0.0
H579 H 0.68734 0.4029 0.83964 0.0
H580 H 0.65615 0.37464 0.83702 0.0
H581 H 0.64309 0.34163 0.76412 0.0
H582 H 0.52995 0.29453 0.75807 0.0
H583 H 0.56644 0.31633 0.75622 0.0
C584 C 0.70705 0.46048 0.183 0.0
C585 C 0.7112 0.47325 0.20467 0.0
C586 C 0.69501 0.43954 0.18387 0.0
C587 C 0.67342 0.39264 0.22444 0.0
H588 H 0.62631 0.38759 0.17351 0.0
C589 C 0.60032 0.32268 0.22383 0.0
C590 C 0.59399 0.31351 0.20068 0.0
C591 C 0.61647 0.34078 0.22546 0.0
C592 C 0.63957 0.38852 0.18766 0.0
H593 H 0.70707 0.47339 0.24449 0.0
H594 H 0.6856 0.43666 0.246 0.0
H595 H 0.65134 0.42141 0.17461 0.0
H596 H 0.60062 0.31538 0.16125 0.0
H597 H 0.62887 0.34658 0.16414 0.0
H598 H 0.66129 0.35962 0.23754 0.0
C599 C 0.69186 0.44291 0.22834 0.0
C600 C 0.65395 0.40795 0.1883 0.0
C601 C 0.70411 0.46394 0.22748 0.0
C602 C 0.60486 0.32218 0.17935 0.0
C603 C 0.621 0.34017 0.18099 0.0
C604 C 0.65895 0.37308 0.22379 0.0
C605 C 0.68661 0.43086 0.20642 0.0
C606 C 0.6712 0.41017 0.20651 0.0
C607 C 0.62662 0.35005 0.20399 0.0
C608 C 0.64201 0.37073 0.20522 0.0
H609 H 0.7126 0.46696 0.16515 0.0
H610 H 0.6918 0.43038 0.16673 0.0
H611 H 0.68659 0.39383 0.23865 0.0
H612 H 0.59231 0.31638 0.24064 0.0
H613 H 0.62034 0.34808 0.24344 0.0
C614 C 0.53988 0.70656 0.22741 0.0
C615 C 0.53124 0.71447 0.20462 0.0
C616 C 0.56099 0.69449 0.2285 0.0
C617 C 0.59722 0.65832 0.18799 0.0
H618 H 0.64326 0.6624 0.24006 0.0
C619 C 0.68196 0.60721 0.18132 0.0
C620 C 0.68925 0.59523 0.20257 0.0
C621 C 0.66443 0.62386 0.18275 0.0
C622 C 0.63045 0.66098 0.22549 0.0
H623 H 0.53883 0.71768 0.16549 0.0
H624 H 0.57564 0.69724 0.16749 0.0
H625 H 0.60951 0.68832 0.2407 0.0
H626 H 0.68444 0.59208 0.24221 0.0
H627 H 0.65351 0.62101 0.2446 0.0
H628 H 0.61771 0.63093 0.17289 0.0
C629 C 0.56587 0.69964 0.1844 0.0
C630 C 0.61115 0.67581 0.22586 0.0
C631 C 0.54481 0.71147 0.18329 0.0
C632 C 0.6792 0.60096 0.22546 0.0
C633 C 0.66155 0.61762 0.22688 0.0
C634 C 0.61639 0.64359 0.18763 0.0
C635 C 0.57382 0.69027 0.20683 0.0
C636 C 0.59443 0.67474 0.20697 0.0
C637 C 0.65364 0.6289 0.20542 0.0
C638 C 0.63334 0.64481 0.20624 0.0
H639 H 0.52978 0.70861 0.24416 0.0
H640 H 0.56664 0.68747 0.24607 0.0
H641 H 0.58436 0.65657 0.17352 0.0
H642 H 0.68949 0.60345 0.16343 0.0
H643 H 0.6591 0.6326 0.16595 0.0
C644 C 0.4039 0.67893 0.22528 0.0
C645 C 0.41049 0.68802 0.20218 0.0
C646 C 0.38793 0.66065 0.22678 0.0
C647 C 0.36588 0.6124 0.18899 0.0
H648 H 0.31724 0.6077 0.2383 0.0
C649 C 0.2976 0.54145 0.18188 0.0
C650 C 0.29255 0.52869 0.20335 0.0
C651 C 0.30997 0.56217 0.18326 0.0
C652 C 0.33088 0.60872 0.22457 0.0
H653 H 0.40457 0.68572 0.16264 0.0
H654 H 0.37669 0.65419 0.16528 0.0
H655 H 0.34278 0.64176 0.23784 0.0
H656 H 0.29544 0.52836 0.24329 0.0
H657 H 0.31747 0.56472 0.24569 0.0
H658 H 0.3543 0.57951 0.17573 0.0
C659 C 0.38419 0.66083 0.18222 0.0
C660 C 0.34549 0.62819 0.2243 0.0
C661 C 0.40011 0.67901 0.18073 0.0
C662 C 0.29909 0.5378 0.22643 0.0
C663 C 0.31167 0.55862 0.2278 0.0
C664 C 0.35138 0.59306 0.18926 0.0
C665 C 0.37827 0.6511 0.2052 0.0
C666 C 0.36297 0.63035 0.20628 0.0
C667 C 0.31781 0.57064 0.20612 0.0
C668 C 0.33351 0.59109 0.20681 0.0
H669 H 0.41154 0.68549 0.24219 0.0
H670 H 0.3838 0.65347 0.24474 0.0
H671 H 0.37956 0.6132 0.17528 0.0
H672 H 0.2925 0.53513 0.16382 0.0
H673 H 0.31388 0.57131 0.16627 0.0
C674 C 0.32204 0.39547 0.17947 0.0
C675 C 0.31411 0.40717 0.20063 0.0
C676 C 0.33977 0.37905 0.18121 0.0
C677 C 0.3733 0.34203 0.22444 0.0
H678 H 0.42038 0.34745 0.17359 0.0
C679 C 0.46412 0.29663 0.22714 0.0
C680 C 0.47282 0.28882 0.20433 0.0
C681 C 0.44306 0.30881 0.22819 0.0
C682 C 0.40726 0.34545 0.18776 0.0
H683 H 0.31796 0.41004 0.24042 0.0
H684 H 0.34922 0.38151 0.24336 0.0
H685 H 0.38681 0.37281 0.17253 0.0
H686 H 0.4654 0.28592 0.16514 0.0
H687 H 0.42874 0.30658 0.16707 0.0
H688 H 0.39419 0.31469 0.23975 0.0
C689 C 0.34155 0.38494 0.22546 0.0
C690 C 0.38797 0.36 0.18714 0.0
C691 C 0.3237 0.40137 0.22373 0.0
C692 C 0.45938 0.29206 0.18295 0.0
C693 C 0.4384 0.30401 0.18402 0.0
C694 C 0.39273 0.32738 0.22507 0.0
C695 C 0.35012 0.37398 0.20411 0.0
C696 C 0.37063 0.35836 0.2053 0.0
C697 C 0.43037 0.31324 0.20647 0.0
C698 C 0.40979 0.3288 0.20655 0.0
H699 H 0.31488 0.39929 0.16142 0.0
H700 H 0.34561 0.37055 0.16447 0.0
H701 H 0.3602 0.3403 0.23867 0.0
H702 H 0.47412 0.29439 0.24392 0.0
H703 H 0.43731 0.31572 0.24577 0.0
C704 C 0.06811 0.30761 0.24389 0.0
C705 C 0.06556 0.30052 0.26859 0.0
C706 C 0.08132 0.32718 0.23799 0.0
C707 C 0.11045 0.37927 0.26455 0.0
H708 H 0.1529 0.37016 0.2098 0.0
C709 C 0.19494 0.43186 0.25155 0.0
C710 C 0.20252 0.43681 0.22742 0.0
C711 C 0.17501 0.41855 0.25552 0.0
C712 C 0.14089 0.37324 0.22485 0.0
H713 H 0.07403 0.30903 0.30657 0.0
H714 H 0.09742 0.34294 0.29626 0.0
H715 H 0.12383 0.34084 0.21878 0.0
H716 H 0.19435 0.43274 0.18853 0.0
H717 H 0.15943 0.40967 0.19547 0.0
H718 H 0.12813 0.41144 0.27099 0.0
C719 C 0.08897 0.33358 0.28143 0.0
C720 C 0.12417 0.35639 0.23002 0.0
C721 C 0.07562 0.31405 0.28735 0.0
C722 C 0.18906 0.42914 0.20735 0.0
C723 C 0.16913 0.41579 0.21133 0.0
C724 C 0.12725 0.39614 0.2594 0.0
C725 C 0.09244 0.34005 0.25662 0.0
C726 C 0.10891 0.35902 0.25012 0.0
C727 C 0.16219 0.40985 0.23545 0.0
C728 C 0.14287 0.39318 0.23966 0.0
H729 H 0.0604 0.2977 0.229 0.0
H730 H 0.08322 0.33193 0.21873 0.0
H731 H 0.09877 0.38201 0.27996 0.0
H732 H 0.20488 0.43752 0.26743 0.0
H733 H 0.1703 0.41415 0.27432 0.0
C734 C 0.68925 0.07475 0.28782 0.0
C735 C 0.7027 0.0646 0.26904 0.0
C736 C 0.66952 0.0878 0.28194 0.0
C737 C 0.64614 0.12231 0.23035 0.0
H738 H 0.59156 0.12677 0.27198 0.0
C739 C 0.57343 0.18741 0.20815 0.0
C740 C 0.56604 0.201 0.22822 0.0
C741 C 0.58674 0.16743 0.21208 0.0
C742 C 0.60672 0.12574 0.2602 0.0
H743 H 0.70514 0.05891 0.2295 0.0
H744 H 0.67054 0.08122 0.21931 0.0
H745 H 0.62101 0.09741 0.28086 0.0
H746 H 0.56579 0.20359 0.26823 0.0
H747 H 0.58909 0.16895 0.27504 0.0
H748 H 0.63223 0.15092 0.21004 0.0
C749 C 0.67552 0.07961 0.23854 0.0
C750 C 0.62361 0.10894 0.2653 0.0
C751 C 0.69529 0.06669 0.2444 0.0
C752 C 0.57124 0.19354 0.25234 0.0
C753 C 0.5845 0.17357 0.25626 0.0
C754 C 0.62928 0.13904 0.22524 0.0
C755 C 0.66277 0.09089 0.25716 0.0
C756 C 0.6437 0.10724 0.25064 0.0
C757 C 0.5929 0.16059 0.23616 0.0
C758 C 0.60952 0.1412 0.2403 0.0
H759 H 0.69452 0.0735 0.30699 0.0
H760 H 0.66025 0.09638 0.29676 0.0
H761 H 0.66156 0.12184 0.21893 0.0
H762 H 0.56963 0.1926 0.18934 0.0
H763 H 0.59263 0.15761 0.1962 0.0
C764 C 0.80738 0.56742 0.25794 0.0
C765 C 0.79985 0.565 0.23337 0.0
C766 C 0.82712 0.5805 0.26351 0.0
C767 C 0.87885 0.60952 0.23604 0.0
H768 H 0.87056 0.65213 0.2908 0.0
C769 C 0.93179 0.69394 0.24782 0.0
C770 C 0.93714 0.70157 0.27183 0.0
C771 C 0.91832 0.67406 0.24416 0.0
C772 C 0.87342 0.64008 0.27574 0.0
H773 H 0.80779 0.5735 0.19526 0.0
H774 H 0.84201 0.59663 0.20497 0.0
H775 H 0.84113 0.62302 0.28243 0.0
H776 H 0.93356 0.69359 0.31082 0.0
H777 H 0.91022 0.65876 0.30442 0.0
H778 H 0.91092 0.62718 0.22899 0.0
C779 C 0.83285 0.5882 0.21996 0.0
C780 C 0.8565 0.62334 0.27092 0.0
C781 C 0.81315 0.575 0.21438 0.0
C782 C 0.92965 0.68826 0.29208 0.0
C783 C 0.91615 0.66837 0.28842 0.0
C784 C 0.8958 0.62634 0.24085 0.0
C785 C 0.83973 0.5916 0.24465 0.0
C786 C 0.85883 0.60803 0.25083 0.0
C787 C 0.90986 0.66135 0.26443 0.0
C788 C 0.89312 0.64202 0.26057 0.0
H789 H 0.79765 0.55977 0.27301 0.0
H790 H 0.8322 0.58235 0.28268 0.0
H791 H 0.88136 0.5978 0.22062 0.0
H792 H 0.93729 0.70377 0.2318 0.0
H793 H 0.91364 0.66929 0.22545 0.0
C794 C 0.30823 0.93237 0.2489 0.0
C795 C 0.30051 0.93738 0.27296 0.0
C796 C 0.32816 0.919 0.2451 0.0
C797 C 0.362 0.8737 0.27621 0.0
H798 H 0.40434 0.88202 0.22121 0.0
C799 C 0.43478 0.80784 0.25792 0.0
C800 C 0.43732 0.80052 0.23329 0.0
C801 C 0.42158 0.82746 0.26363 0.0
C802 C 0.3926 0.87941 0.23659 0.0
H803 H 0.30844 0.93338 0.31192 0.0
H804 H 0.34336 0.91024 0.30528 0.0
H805 H 0.37503 0.91159 0.22986 0.0
H806 H 0.42885 0.80872 0.19523 0.0
H807 H 0.40551 0.84276 0.2052 0.0
H808 H 0.37897 0.8413 0.28258 0.0
C809 C 0.33377 0.91634 0.28934 0.0
C810 C 0.37583 0.89636 0.24156 0.0
C811 C 0.31384 0.92974 0.29314 0.0
C812 C 0.42726 0.8139 0.21439 0.0
C813 C 0.41395 0.8335 0.22012 0.0
C814 C 0.3787 0.85677 0.27123 0.0
C815 C 0.34084 0.91032 0.26529 0.0
C816 C 0.36013 0.89356 0.26125 0.0
C817 C 0.41048 0.84019 0.24486 0.0
C818 C 0.39404 0.85925 0.25117 0.0
H819 H 0.29839 0.93801 0.23293 0.0
H820 H 0.33297 0.91455 0.22634 0.0
H821 H 0.34994 0.87073 0.29123 0.0
H822 H 0.44246 0.79804 0.27291 0.0
H823 H 0.41967 0.83239 0.28284 0.0
C824 C 0.19401 0.57004 0.74749 0.0
C825 C 0.20169 0.56489 0.77153 0.0
C826 C 0.17414 0.58352 0.74374 0.0
C827 C 0.14037 0.62878 0.77501 0.0
H828 H 0.09801 0.62066 0.72 0.0
C829 C 0.06796 0.695 0.75685 0.0
C830 C 0.06552 0.70239 0.73223 0.0
C831 C 0.08097 0.67525 0.76253 0.0
C832 C 0.10975 0.62322 0.73539 0.0
H833 H 0.19378 0.56878 0.8105 0.0
H834 H 0.15897 0.59212 0.80396 0.0
H835 H 0.12728 0.59103 0.72856 0.0
H836 H 0.07391 0.69418 0.69416 0.0
H837 H 0.09693 0.65992 0.70407 0.0
H838 H 0.12346 0.66119 0.78148 0.0
C839 C 0.16854 0.58604 0.78799 0.0
C840 C 0.1265 0.60623 0.74031 0.0
C841 C 0.18841 0.57254 0.79174 0.0
C842 C 0.07543 0.68894 0.71332 0.0
C843 C 0.08856 0.66921 0.71901 0.0
C844 C 0.1237 0.64574 0.77009 0.0
C845 C 0.16149 0.59217 0.76396 0.0
C846 C 0.14221 0.60896 0.75999 0.0
C847 C 0.09198 0.66247 0.74374 0.0
C848 C 0.10835 0.64334 0.75003 0.0
H849 H 0.20381 0.56441 0.7315 0.0
H850 H 0.16935 0.58806 0.725 0.0
H851 H 0.15245 0.63169 0.79003 0.0
H852 H 0.06037 0.70486 0.77186 0.0
H853 H 0.08284 0.67028 0.78173 0.0
C854 C 0.43024 0.18831 0.7928 0.0
C855 C 0.43798 0.20164 0.77266 0.0
C856 C 0.4168 0.16842 0.78894 0.0
C857 C 0.39684 0.12648 0.74102 0.0
H858 H 0.34179 0.12323 0.78204 0.0
C859 C 0.31436 0.07516 0.71375 0.0
C860 C 0.301 0.06505 0.73263 0.0
C861 C 0.33397 0.08843 0.7195 0.0
C862 C 0.35726 0.12353 0.77068 0.0
H863 H 0.43868 0.20382 0.73264 0.0
H864 H 0.41513 0.16933 0.72594 0.0
H865 H 0.37121 0.15225 0.79076 0.0
H866 H 0.29857 0.05976 0.77224 0.0
H867 H 0.33294 0.08249 0.78219 0.0
H868 H 0.3825 0.09802 0.72059 0.0
C869 C 0.41956 0.17409 0.74472 0.0
C870 C 0.37418 0.14022 0.77571 0.0
C871 C 0.43299 0.19397 0.74857 0.0
C872 C 0.30835 0.06748 0.75725 0.0
C873 C 0.32799 0.08065 0.76299 0.0
C874 C 0.37989 0.10972 0.736 0.0
C875 C 0.41081 0.1614 0.76486 0.0
C876 C 0.39404 0.14213 0.76076 0.0
C877 C 0.34069 0.09181 0.74424 0.0
C878 C 0.35974 0.10824 0.75059 0.0
H879 H 0.43387 0.19367 0.81159 0.0
H880 H 0.41065 0.15882 0.80485 0.0
H881 H 0.41207 0.1273 0.72933 0.0
H882 H 0.30914 0.07365 0.69459 0.0
H883 H 0.34321 0.09692 0.70459 0.0
C884 C 0.93267 0.30812 0.75356 0.0
C885 C 0.93769 0.30044 0.72948 0.0
C886 C 0.91924 0.328 0.75739 0.0
C887 C 0.8739 0.36191 0.72636 0.0
H888 H 0.8823 0.40419 0.7814 0.0
C889 C 0.80823 0.43484 0.74462 0.0
C890 C 0.80087 0.43736 0.76924 0.0
C891 C 0.82784 0.42161 0.73893 0.0
C892 C 0.87967 0.39246 0.76601 0.0
H893 H 0.9336 0.30839 0.69054 0.0
H894 H 0.91037 0.34324 0.69724 0.0
H895 H 0.91181 0.37482 0.77272 0.0
H896 H 0.809 0.42884 0.80731 0.0
H897 H 0.84302 0.40546 0.79737 0.0
H898 H 0.84155 0.37897 0.71998 0.0
C899 C 0.91651 0.33364 0.71317 0.0
C900 C 0.89658 0.37566 0.76102 0.0
C901 C 0.92995 0.31375 0.70933 0.0
C902 C 0.81421 0.42727 0.78815 0.0
C903 C 0.8338 0.41393 0.78244 0.0
C904 C 0.85702 0.37865 0.73134 0.0
C905 C 0.91051 0.34068 0.73724 0.0
C906 C 0.89375 0.35998 0.74131 0.0
C907 C 0.84051 0.41047 0.75771 0.0
C908 C 0.85952 0.39397 0.7514 0.0
H909 H 0.93836 0.29828 0.7695 0.0
H910 H 0.9148 0.33278 0.77617 0.0
H911 H 0.87092 0.34986 0.71133 0.0
H912 H 0.79846 0.44255 0.72962 0.0
H913 H 0.83278 0.41971 0.71973 0.0
C914 C 0.6886 0.92914 0.70842 0.0
C915 C 0.70185 0.93679 0.72865 0.0
C916 C 0.66871 0.91566 0.71214 0.0
C917 C 0.62653 0.89564 0.75974 0.0
H918 H 0.62344 0.84061 0.71867 0.0
C919 C 0.57504 0.81319 0.78674 0.0
C920 C 0.56515 0.79973 0.76782 0.0
C921 C 0.58828 0.83284 0.78104 0.0
C922 C 0.62369 0.85608 0.73003 0.0
H923 H 0.70392 0.93728 0.76868 0.0
H924 H 0.66942 0.91368 0.77513 0.0
H925 H 0.65254 0.87002 0.71015 0.0
H926 H 0.56017 0.79717 0.72817 0.0
H927 H 0.58282 0.83162 0.7183 0.0
H928 H 0.59794 0.88133 0.77998 0.0
C929 C 0.67425 0.9182 0.7564 0.0
C930 C 0.64043 0.87298 0.72513 0.0
C931 C 0.69413 0.93165 0.75268 0.0
C932 C 0.56773 0.80703 0.74319 0.0
C933 C 0.58086 0.82671 0.73751 0.0
C934 C 0.60972 0.87871 0.76464 0.0
C935 C 0.66161 0.90956 0.73616 0.0
C936 C 0.64229 0.89282 0.74011 0.0
C937 C 0.59184 0.8395 0.7563 0.0
C938 C 0.6083 0.85856 0.75004 0.0
H939 H 0.694 0.93288 0.68967 0.0
H940 H 0.65916 0.90958 0.69616 0.0
H941 H 0.62732 0.91085 0.77146 0.0
H942 H 0.57341 0.80801 0.8059 0.0
H943 H 0.59662 0.84214 0.79599 0.0
C944 C 0.02731 0.26866 0.41172 0.0
C945 C 0.02762 0.24581 0.40251 0.0
C946 C 0.0193 0.27318 0.43578 0.0
C947 C 0.97942 0.2491 0.48132 0.0
H948 H 0.01536 0.27965 0.53241 0.0
C949 C 0.96552 0.22982 0.58322 0.0
C950 C 0.96772 0.24741 0.60102 0.0
C951 C 0.97025 0.23425 0.55843 0.0
C952 C 0.00487 0.27156 0.51822 0.0
H953 H 0.02061 0.20979 0.4117 0.0
H954 H 0.00657 0.21772 0.4531 0.0
H955 H 0.02979 0.27907 0.48972 0.0
H956 H 0.9761 0.28369 0.60668 0.0
H957 H 0.98452 0.29151 0.56293 0.0
H958 H 0.9548 0.24103 0.50957 0.0
C959 C 0.01232 0.23213 0.44178 0.0
C960 C 0.01317 0.27118 0.49384 0.0
C961 C 0.02051 0.22761 0.41806 0.0
C962 C 0.97417 0.26982 0.59333 0.0
C963 C 0.97914 0.27424 0.56837 0.0
C964 C 0.97108 0.24961 0.5055 0.0
C965 C 0.0112 0.25495 0.45073 0.0
C966 C 1.00089 0.25918 0.47542 0.0
C967 C 0.9774 0.2564 0.55069 0.0
C968 C 0.98413 0.26003 0.52443 0.0
H969 H 0.03268 0.28305 0.40018 0.0
H970 H 0.01868 0.29092 0.44236 0.0
H971 H 0.96943 0.24009 0.46734 0.0
H972 H 0.9606 0.21236 0.58851 0.0
H973 H 0.96909 0.22 0.54543 0.0
C974 C 0.73348 0.97437 0.59204 0.0
C975 C 0.75608 0.96918 0.60014 0.0
C976 C 0.72924 0.97943 0.56706 0.0
C977 C 0.75559 0.9736 0.50469 0.0
H978 H 0.72239 0.03021 0.48862 0.0
C979 C 0.77574 0.02504 0.41813 0.0
C980 C 0.7574 0.03025 0.40192 0.0
C981 C 0.77132 0.0167 0.44181 0.0
C982 C 0.73135 0.01416 0.49283 0.0
H983 H 0.79175 0.96448 0.58831 0.0
H984 H 0.78444 0.97316 0.54524 0.0
H985 H 0.72202 0.0155 0.53122 0.0
H986 H 0.71995 0.0319 0.3984 0.0
H987 H 0.71222 0.01765 0.44052 0.0
H988 H 0.76594 0.97289 0.46674 0.0
C989 C 0.76989 0.97323 0.55792 0.0
C990 C 0.7311 0.0057 0.51715 0.0
C991 C 0.77413 0.9684 0.58272 0.0
C992 C 0.73444 0.02801 0.41046 0.0
C993 C 0.73 0.01986 0.43448 0.0
C994 C 0.75597 0.98212 0.48059 0.0
C995 C 0.74748 0.97905 0.54976 0.0
C996 C 0.74393 0.98576 0.52348 0.0
C997 C 0.74847 0.01356 0.45006 0.0
C998 C 0.74452 0.00287 0.4746 0.0
H999 H 0.71925 0.97521 0.60509 0.0
H1000 H 0.71177 0.98378 0.5613 0.0
H1001 H 0.76519 0.95791 0.50883 0.0
H1002 H 0.79365 0.02667 0.4123 0.0
H1003 H 0.78587 0.01234 0.45363 0.0
C1004 C 0.02798 0.73439 0.59069 0.0
C1005 C 0.03022 0.75731 0.59938 0.0
C1006 C 0.0199 0.73011 0.56662 0.0
C1007 C 0.98263 0.7567 0.52027 0.0
H1008 H 0.01557 0.7217 0.47013 0.0
C1009 C 0.96978 0.77426 0.41787 0.0
C1010 C 0.97012 0.75601 0.40068 0.0
C1011 C 0.97448 0.77017 0.44273 0.0
C1012 C 0.0059 0.73109 0.48406 0.0
H1013 H 0.02673 0.79362 0.58923 0.0
H1014 H 0.01257 0.78611 0.54779 0.0
H1015 H 0.03006 0.72207 0.51281 0.0
H1016 H 0.97525 0.71898 0.39619 0.0
H1017 H 0.9836 0.71177 0.44008 0.0
H1018 H 0.95879 0.76622 0.49179 0.0
C1019 C 0.01684 0.77148 0.55953 0.0
C1020 C 0.01423 0.73134 0.50843 0.0
C1021 C 0.02509 0.77575 0.58328 0.0
C1022 C 0.97476 0.73337 0.40906 0.0
C1023 C 0.97969 0.72928 0.4341 0.0
C1024 C 0.97425 0.75633 0.49611 0.0
C1025 C 0.01368 0.74868 0.55112 0.0
C1026 C 0.00311 0.74486 0.52649 0.0
C1027 C 0.97973 0.74771 0.45117 0.0
C1028 C 0.98626 0.74427 0.47751 0.0
H1029 H 0.03181 0.71983 0.60266 0.0
H1030 H 0.01769 0.71236 0.56046 0.0
H1031 H 0.97351 0.76693 0.53398 0.0
H1032 H 0.96629 0.79191 0.41206 0.0
H1033 H 0.97474 0.78485 0.45524 0.0
C1034 C 0.22887 0.03426 0.58192 0.0
C1035 C 0.24709 0.03373 0.59914 0.0
C1036 C 0.23291 0.0293 0.5571 0.0
C1037 C 0.27177 0.99702 0.51616 0.0
H1038 H 0.23592 0.02888 0.46586 0.0
C1039 C 0.26824 0.97434 0.40959 0.0
C1040 C 0.24529 0.97166 0.40116 0.0
C1041 C 0.27262 0.98256 0.43358 0.0
C1042 C 0.24616 0.01991 0.47969 0.0
H1043 H 0.28402 0.02807 0.60372 0.0
H1044 H 0.29116 0.01934 0.55992 0.0
H1045 H 0.23677 0.04414 0.50783 0.0
H1046 H 0.20902 0.97451 0.41171 0.0
H1047 H 0.2167 0.98897 0.45302 0.0
H1048 H 0.28071 0.97251 0.48771 0.0
C1049 C 0.27371 0.02355 0.56583 0.0
C1050 C 0.24661 0.02859 0.50372 0.0
C1051 C 0.26966 0.02871 0.59083 0.0
C1052 C 0.22692 0.97648 0.41747 0.0
C1053 C 0.23128 0.98489 0.44113 0.0
C1054 C 0.27148 0.9884 0.49191 0.0
C1055 C 0.25529 0.02364 0.54874 0.0
C1056 C 0.25866 0.01678 0.52248 0.0
C1057 C 0.2541 0.9885 0.44926 0.0
C1058 C 0.25796 0.99935 0.47373 0.0
H1059 H 0.21127 0.03804 0.58767 0.0
H1060 H 0.21824 0.02915 0.54459 0.0
H1061 H 0.28116 0.98747 0.5302 0.0
H1062 H 0.28275 0.97076 0.39746 0.0
H1063 H 0.29038 0.98513 0.43953 0.0
C1064 C 0.52348 0.72655 0.91688 0.0
C1065 C 0.52896 0.74497 0.90088 0.0
C1066 C 0.51526 0.73086 0.94064 0.0
C1067 C 0.51335 0.7709 0.99191 0.0
H1068 H 0.45751 0.73671 0.00862 0.0
C1069 C 0.47411 0.76923 0.09138 0.0
C1070 C 0.46917 0.74665 0.09974 0.0
C1071 C 0.47903 0.77329 0.06633 0.0
C1072 C 0.47309 0.74641 0.00428 0.0
H1073 H 0.53119 0.78244 0.8978 0.0
H1074 H 0.51712 0.78996 0.94002 0.0
H1075 H 0.47212 0.73589 0.96639 0.0
H1076 H 0.46479 0.71083 0.08831 0.0
H1077 H 0.47322 0.71783 0.04511 0.0
H1078 H 0.5149 0.78046 0.03022 0.0
C1079 C 0.51903 0.7722 0.93377 0.0
C1080 C 0.48141 0.74597 0.9801 0.0
C1081 C 0.52708 0.76789 0.90969 0.0
C1082 C 0.46851 0.72844 0.08251 0.0
C1083 C 0.4732 0.73249 0.05764 0.0
C1084 C 0.50507 0.77121 0.01629 0.0
C1085 C 0.51249 0.75367 0.94917 0.0
C1086 C 0.50202 0.75755 0.97384 0.0
C1087 C 0.47876 0.75488 0.04923 0.0
C1088 C 0.48528 0.75828 0.02288 0.0
H1089 H 0.52484 0.70868 0.91085 0.0
H1090 H 0.51075 0.71625 0.9523 0.0
H1091 H 0.52929 0.77997 0.98751 0.0
H1092 H 0.47485 0.78359 0.10427 0.0
H1093 H 0.48318 0.79075 0.06037 0.0
C1094 C 0.27414 0.53396 0.91761 0.0
C1095 C 0.25606 0.53303 0.90024 0.0
C1096 C 0.26999 0.52918 0.94244 0.0
C1097 C 0.23148 0.49661 0.9834 0.0
H1098 H 0.26619 0.52977 0.03364 0.0
C1099 C 0.23501 0.4744 0.09005 0.0
C1100 C 0.25798 0.47248 0.09869 0.0
C1101 C 0.23054 0.48248 0.06602 0.0
C1102 C 0.25627 0.52043 0.01984 0.0
H1103 H 0.21924 0.52682 0.89542 0.0
H1104 H 0.21191 0.51833 0.93926 0.0
H1105 H 0.26529 0.54461 0.9915 0.0
H1106 H 0.2942 0.47659 0.08846 0.0
H1107 H 0.28637 0.49079 0.04709 0.0
H1108 H 0.22296 0.47212 0.01202 0.0
C1109 C 0.22934 0.52275 0.93344 0.0
C1110 C 0.25579 0.52888 0.99571 0.0
C1111 C 0.2335 0.52776 0.90842 0.0
C1112 C 0.2763 0.47797 0.08255 0.0
C1113 C 0.27184 0.48623 0.05885 0.0
C1114 C 0.23182 0.48821 0.00775 0.0
C1115 C 0.24763 0.52326 0.95068 0.0
C1116 C 0.24417 0.51661 0.97698 0.0
C1117 C 0.24898 0.48905 0.0505 0.0
C1118 C 0.24495 0.49963 0.02592 0.0
H1119 H 0.29173 0.53795 0.91196 0.0
H1120 H 0.28456 0.52936 0.95508 0.0
H1121 H 0.22244 0.48671 0.96938 0.0
H1122 H 0.22054 0.47029 0.10205 0.0
H1123 H 0.21275 0.48443 0.0599 0.0
C1124 C 0.52819 0.23358 0.09017 0.0
C1125 C 0.52906 0.25649 0.09915 0.0
C1126 C 0.52005 0.22905 0.06617 0.0
C1127 C 0.48045 0.25349 0.02073 0.0
H1128 H 0.51564 0.22233 0.96946 0.0
C1129 C 0.46589 0.27257 0.91889 0.0
C1130 C 0.46788 0.25493 0.90112 0.0
C1131 C 0.47075 0.26816 0.94366 0.0
C1132 C 0.50535 0.2306 0.9837 0.0
H1133 H 0.52295 0.2926 0.08961 0.0
H1134 H 0.50865 0.28465 0.04832 0.0
H1135 H 0.53037 0.22286 0.01203 0.0
H1136 H 0.47601 0.21858 0.89549 0.0
H1137 H 0.48463 0.2108 0.93919 0.0
H1138 H 0.45571 0.26176 0.99267 0.0
C1139 C 0.51408 0.27021 0.05977 0.0
C1140 C 0.51383 0.23094 0.00801 0.0
C1141 C 0.52242 0.27473 0.08342 0.0
C1142 C 0.47423 0.2325 0.90881 0.0
C1143 C 0.47932 0.22809 0.93376 0.0
C1144 C 0.47192 0.253 0.99662 0.0
C1145 C 0.51236 0.24735 0.05106 0.0
C1146 C 0.50183 0.24315 0.02648 0.0
C1147 C 0.47781 0.24597 0.9514 0.0
C1148 C 0.4847 0.24236 0.97762 0.0
H1149 H 0.5332 0.21916 0.10185 0.0
H1150 H 0.51896 0.21128 0.05977 0.0
H1151 H 0.47068 0.26269 0.03476 0.0
H1152 H 0.46104 0.29004 0.9136 0.0
H1153 H 0.46977 0.28244 0.95662 0.0
C1154 C 0.76971 0.47421 0.91074 0.0
C1155 C 0.74717 0.46893 0.90252 0.0
C1156 C 0.7738 0.47935 0.93573 0.0
C1157 C 0.74712 0.47368 0.99796 0.0
H1158 H 0.78034 0.53028 0.01402 0.0
C1159 C 0.72704 0.52497 0.08466 0.0
C1160 C 0.74542 0.53027 0.10078 0.0
C1161 C 0.73139 0.51669 0.06095 0.0
C1162 C 0.77136 0.51424 0.00981 0.0
H1163 H 0.71145 0.46415 0.91416 0.0
H1164 H 0.71851 0.47299 0.95724 0.0
H1165 H 0.78082 0.51549 0.97146 0.0
H1166 H 0.78289 0.53213 0.10409 0.0
H1167 H 0.7905 0.51796 0.06193 0.0
H1168 H 0.73667 0.47304 0.03588 0.0
C1169 C 0.73312 0.47306 0.94465 0.0
C1170 C 0.77168 0.50573 0.98552 0.0
C1171 C 0.72904 0.46813 0.91984 0.0
C1172 C 0.76836 0.52818 0.09211 0.0
C1173 C 0.77273 0.52007 0.06806 0.0
C1174 C 0.74667 0.48225 0.02204 0.0
C1175 C 0.75547 0.47898 0.95291 0.0
C1176 C 0.75887 0.48578 0.97919 0.0
C1177 C 0.75422 0.51367 0.05258 0.0
C1178 C 0.75814 0.50299 0.02802 0.0
H1179 H 0.78401 0.47506 0.89777 0.0
H1180 H 0.79123 0.48377 0.94157 0.0
H1181 H 0.73753 0.45799 0.99383 0.0
H1182 H 0.70915 0.52649 0.0906 0.0
H1183 H 0.71681 0.51226 0.04921 0.0
loop_
_geom_bond_atom_site_label_1
_geom_bond_atom_site_label_2
_geom_bond_distance
_geom_bond_site_symmetry_2
_ccdc_geom_bond_type
O0 Cd1 2.223 . S
O0 C8 1.315 . S
Cd1 O0 2.223 . S
Cd1 O4 2.297 . S
Cd1 O5 2.439 . S
Cd1 O11 2.240 . S
Cd2 O3 2.240 . S
Cd2 O10 2.223 . S
Cd2 O12 2.297 . S
Cd2 O13 2.439 . S
O3 Cd2 2.240 . S
O3 C8 1.279 . S
O4 Cd1 2.297 . S
O4 C6 1.247 . S
O5 Cd1 2.439 . S
O5 C6 1.208 . S
C6 O4 1.247 . S
C6 O5 1.208 . S
C7 O12 1.247 . S
C7 O13 1.208 . S
C8 O0 1.315 . S
C8 O3 1.279 . S
C9 O10 1.315 . S
C9 O11 1.279 . S
O10 Cd2 2.223 . S
O10 C9 1.315 . S
O11 Cd1 2.240 . S
O11 C9 1.279 . S
O12 Cd2 2.297 . S
O12 C7 1.247 . S
O13 Cd2 2.439 . S
O13 C7 1.208 . S
O14 Cd15 2.223 . S
O14 C22 1.315 . S
Cd15 O14 2.223 . S
Cd15 O18 2.297 . S
Cd15 O19 2.439 . S
Cd15 O25 2.240 . S
Cd16 O17 2.240 . S
Cd16 O24 2.223 . S
Cd16 O26 2.297 . S
Cd16 O27 2.439 . S
O17 Cd16 2.240 . S
O17 C22 1.279 . S
O18 Cd15 2.297 . S
O18 C20 1.247 . S
O19 Cd15 2.439 . S
O19 C20 1.208 . S
C20 O18 1.247 . S
C20 O19 1.208 . S
C21 O26 1.247 . S
C21 O27 1.208 . S
C22 O14 1.315 . S
C22 O17 1.279 . S
C23 O24 1.315 . S
C23 O25 1.279 . S
O24 Cd16 2.223 . S
O24 C23 1.315 . S
O25 Cd15 2.240 . S
O25 C23 1.279 . S
O26 Cd16 2.297 . S
O26 C21 1.247 . S
O27 Cd16 2.439 . S
O27 C21 1.208 . S
O28 Cd29 2.223 . S
O28 C36 1.315 . S
Cd29 O28 2.223 . S
Cd29 O32 2.297 . S
Cd29 O33 2.439 . S
Cd29 O39 2.240 . S
Cd30 O31 2.240 . S
Cd30 O38 2.223 . S
Cd30 O40 2.297 . S
Cd30 O41 2.439 . S
O31 Cd30 2.240 . S
O31 C36 1.279 . S
O32 Cd29 2.297 . S
O32 C34 1.247 . S
O33 Cd29 2.439 . S
O33 C34 1.208 . S
C34 O32 1.247 . S
C34 O33 1.208 . S
C35 O40 1.247 . S
C35 O41 1.208 . S
C36 O28 1.315 . S
C36 O31 1.279 . S
C37 O38 1.315 . S
C37 O39 1.279 . S
O38 Cd30 2.223 . S
O38 C37 1.315 . S
O39 Cd29 2.240 . S
O39 C37 1.279 . S
O40 Cd30 2.297 . S
O40 C35 1.247 . S
O41 Cd30 2.439 . S
O41 C35 1.208 . S
O42 Cd43 2.223 . S
O42 C50 1.315 . S
Cd43 O42 2.223 . S
Cd43 O46 2.297 . S
Cd43 O47 2.439 . S
Cd43 O53 2.240 . S
Cd44 O45 2.240 . S
Cd44 O52 2.223 . S
Cd44 O54 2.297 . S
Cd44 O55 2.439 . S
O45 Cd44 2.240 . S
O45 C50 1.279 . S
O46 Cd43 2.297 . S
O46 C48 1.247 . S
O47 Cd43 2.439 . S
O47 C48 1.208 . S
C48 O46 1.247 . S
C48 O47 1.208 . S
C49 O54 1.247 . S
C49 O55 1.208 . S
C50 O42 1.315 . S
C50 O45 1.279 . S
C51 O52 1.315 . S
C51 O53 1.279 . S
O52 Cd44 2.223 . S
O52 C51 1.315 . S
O53 Cd43 2.240 . S
O53 C51 1.279 . S
O54 Cd44 2.297 . S
O54 C49 1.247 . S
O55 Cd44 2.439 . S
O55 C49 1.208 . S
O56 Cd57 2.223 . S
O56 C64 1.315 . S
Cd57 O56 2.223 . S
Cd57 O60 2.297 . S
Cd57 O61 2.439 . S
Cd57 O67 2.240 . S
Cd58 O59 2.240 . S
Cd58 O66 2.223 . S
Cd58 O68 2.297 . S
Cd58 O69 2.439 . S
O59 Cd58 2.240 . S
O59 C64 1.279 . S
O60 Cd57 2.297 . S
O60 C62 1.247 . S
O61 Cd57 2.439 . S
O61 C62 1.208 . S
C62 O60 1.247 . S
C62 O61 1.208 . S
C63 O68 1.247 . S
C63 O69 1.208 . S
C64 O56 1.315 . S
C64 O59 1.279 . S
C65 O66 1.315 . S
C65 O67 1.279 . S
O66 Cd58 2.223 . S
O66 C65 1.315 . S
O67 Cd57 2.240 . S
O67 C65 1.279 . S
O68 Cd58 2.297 . S
O68 C63 1.247 . S
O69 Cd58 2.439 . S
O69 C63 1.208 . S
O70 Cd71 2.223 . S
O70 C78 1.315 . S
Cd71 O70 2.223 . S
Cd71 O74 2.297 . S
Cd71 O75 2.439 . S
Cd71 O81 2.240 . S
Cd72 O73 2.240 . S
Cd72 O80 2.223 . S
Cd72 O82 2.297 . S
Cd72 O83 2.439 . S
O73 Cd72 2.240 . S
O73 C78 1.279 . S
O74 Cd71 2.297 . S
O74 C76 1.247 . S
O75 Cd71 2.439 . S
O75 C76 1.208 . S
C76 O74 1.247 . S
C76 O75 1.208 . S
C77 O82 1.247 . S
C77 O83 1.208 . S
C78 O70 1.315 . S
C78 O73 1.279 . S
C79 O80 1.315 . S
C79 O81 1.279 . S
O80 Cd72 2.223 . S
O80 C79 1.315 . S
O81 Cd71 2.240 . S
O81 C79 1.279 . S
O82 Cd72 2.297 . S
O82 C77 1.247 . S
O83 Cd72 2.439 . S
O83 C77 1.208 . S
O84 Cd85 2.223 . S
O84 C92 1.315 . S
Cd85 O84 2.223 . S
Cd85 O88 2.297 . S
Cd85 O89 2.439 . S
Cd85 O95 2.240 . S
Cd86 O87 2.240 . S
Cd86 O94 2.223 . S
Cd86 O96 2.297 . S
Cd86 O97 2.439 . S
O87 Cd86 2.240 . S
O87 C92 1.279 . S
O88 Cd85 2.297 . S
O88 C90 1.247 . S
O89 Cd85 2.439 . S
O89 C90 1.208 . S
C90 O88 1.247 . S
C90 O89 1.208 . S
C91 O96 1.247 . S
C91 O97 1.208 . S
C92 O84 1.315 . S
C92 O87 1.279 . S
C93 O94 1.315 . S
C93 O95 1.279 . S
O94 Cd86 2.223 . S
O94 C93 1.315 . S
O95 Cd85 2.240 . S
O95 C93 1.279 . S
O96 Cd86 2.297 . S
O96 C91 1.247 . S
O97 Cd86 2.439 . S
O97 C91 1.208 . S
O98 Cd99 2.223 . S
O98 C106 1.315 . S
Cd99 O98 2.223 . S
Cd99 O102 2.297 . S
Cd99 O103 2.439 . S
Cd99 O109 2.240 . S
Cd100 O101 2.240 . S
Cd100 O108 2.223 . S
Cd100 O110 2.297 . S
Cd100 O111 2.439 . S
O101 Cd100 2.240 . S
O101 C106 1.279 . S
O102 Cd99 2.297 . S
O102 C104 1.247 . S
O103 Cd99 2.439 . S
O103 C104 1.208 . S
C104 O102 1.247 . S
C104 O103 1.208 . S
C105 O110 1.247 . S
C105 O111 1.208 . S
C106 O98 1.315 . S
C106 O101 1.279 . S
C107 O108 1.315 . S
C107 O109 1.279 . S
O108 Cd100 2.223 . S
O108 C107 1.315 . S
O109 Cd99 2.240 . S
O109 C107 1.279 . S
O110 Cd100 2.297 . S
O110 C105 1.247 . S
O111 Cd100 2.439 . S
O111 C105 1.208 . S
O112 Cd113 2.223 . S
O112 C120 1.315 . S
Cd113 O112 2.223 . S
Cd113 O116 2.297 . S
Cd113 O117 2.439 . S
Cd113 O123 2.240 . S
Cd114 O115 2.240 . S
Cd114 O122 2.223 . S
Cd114 O124 2.297 . S
Cd114 O125 2.439 . S
O115 Cd114 2.240 . S
O115 C120 1.279 . S
O116 Cd113 2.297 . S
O116 C118 1.247 . S
O117 Cd113 2.439 . S
O117 C118 1.208 . S
C118 O116 1.247 . S
C118 O117 1.208 . S
C119 O124 1.247 . S
C119 O125 1.208 . S
C120 O112 1.315 . S
C120 O115 1.279 . S
C121 O122 1.315 . S
C121 O123 1.279 . S
O122 Cd114 2.223 . S
O122 C121 1.315 . S
O123 Cd113 2.240 . S
O123 C121 1.279 . S
O124 Cd114 2.297 . S
O124 C119 1.247 . S
O125 Cd114 2.439 . S
O125 C119 1.208 . S
O126 Cd127 2.223 . S
O126 C134 1.315 . S
Cd127 O126 2.223 . S
Cd127 O130 2.297 . S
Cd127 O131 2.439 . S
Cd127 O137 2.240 . S
Cd128 O129 2.240 . S
Cd128 O136 2.223 . S
Cd128 O138 2.297 . S
Cd128 O139 2.439 . S
O129 Cd128 2.240 . S
O129 C134 1.279 . S
O130 Cd127 2.297 . S
O130 C132 1.247 . S
O131 Cd127 2.439 . S
O131 C132 1.208 . S
C132 O130 1.247 . S
C132 O131 1.208 . S
C133 O138 1.247 . S
C133 O139 1.208 . S
C134 O126 1.315 . S
C134 O129 1.279 . S
C135 O136 1.315 . S
C135 O137 1.279 . S
O136 Cd128 2.223 . S
O136 C135 1.315 . S
O137 Cd127 2.240 . S
O137 C135 1.279 . S
O138 Cd128 2.297 . S
O138 C133 1.247 . S
O139 Cd128 2.439 . S
O139 C133 1.208 . S
O140 Cd141 2.223 . S
O140 C148 1.315 . S
Cd141 O140 2.223 . S
Cd141 O144 2.297 . S
Cd141 O145 2.439 . S
Cd141 O151 2.240 . S
Cd142 O143 2.240 . S
Cd142 O150 2.223 . S
Cd142 O152 2.297 . S
Cd142 O153 2.439 . S
O143 Cd142 2.240 . S
O143 C148 1.279 . S
O144 Cd141 2.297 . S
O144 C146 1.247 . S
O145 Cd141 2.439 . S
O145 C146 1.208 . S
C146 O144 1.247 . S
C146 O145 1.208 . S
C147 O152 1.247 . S
C147 O153 1.208 . S
C148 O140 1.315 . S
C148 O143 1.279 . S
C149 O150 1.315 . S
C149 O151 1.279 . S
O150 Cd142 2.223 . S
O150 C149 1.315 . S
O151 Cd141 2.240 . S
O151 C149 1.279 . S
O152 Cd142 2.297 . S
O152 C147 1.247 . S
O153 Cd142 2.439 . S
O153 C147 1.208 . S
O154 Cd155 2.223 . S
O154 C162 1.315 . S
Cd155 O154 2.223 . S
Cd155 O158 2.297 . S
Cd155 O159 2.439 . S
Cd155 O165 2.240 . S
Cd156 O157 2.240 . S
Cd156 O164 2.223 . S
Cd156 O166 2.297 . S
Cd156 O167 2.439 . S
O157 Cd156 2.240 . S
O157 C162 1.279 . S
O158 Cd155 2.297 . S
O158 C160 1.247 . S
O159 Cd155 2.439 . S
O159 C160 1.208 . S
C160 O158 1.247 . S
C160 O159 1.208 . S
C161 O166 1.247 . S
C161 O167 1.208 . S
C162 O154 1.315 . S
C162 O157 1.279 . S
C163 O164 1.315 . S
C163 O165 1.279 . S
O164 Cd156 2.223 . S
O164 C163 1.315 . S
O165 Cd155 2.240 . S
O165 C163 1.279 . S
O166 Cd156 2.297 . S
O166 C161 1.247 . S
O167 Cd156 2.439 . S
O167 C161 1.208 . S
O168 Cd169 2.223 . S
O168 C176 1.315 . S
Cd169 O168 2.223 . S
Cd169 O172 2.297 . S
Cd169 O173 2.439 . S
Cd169 O179 2.240 . S
Cd170 O171 2.240 . S
Cd170 O178 2.223 . S
Cd170 O180 2.297 . S
Cd170 O181 2.439 . S
O171 Cd170 2.240 . S
O171 C176 1.279 . S
O172 Cd169 2.297 . S
O172 C174 1.247 . S
O173 Cd169 2.439 . S
O173 C174 1.208 . S
C174 O172 1.247 . S
C174 O173 1.208 . S
C175 O180 1.247 . S
C175 O181 1.208 . S
C176 O168 1.315 . S
C176 O171 1.279 . S
C177 O178 1.315 . S
C177 O179 1.279 . S
O178 Cd170 2.223 . S
O178 C177 1.315 . S
O179 Cd169 2.240 . S
O179 C177 1.279 . S
O180 Cd170 2.297 . S
O180 C175 1.247 . S
O181 Cd170 2.439 . S
O181 C175 1.208 . S
O182 Cd183 2.223 . S
O182 C190 1.315 . S
Cd183 O182 2.223 . S
Cd183 O186 2.297 . S
Cd183 O187 2.439 . S
Cd183 O193 2.240 . S
Cd184 O185 2.240 . S
Cd184 O192 2.223 . S
Cd184 O194 2.297 . S
Cd184 O195 2.439 . S
O185 Cd184 2.240 . S
O185 C190 1.279 . S
O186 Cd183 2.297 . S
O186 C188 1.247 . S
O187 Cd183 2.439 . S
O187 C188 1.208 . S
C188 O186 1.247 . S
C188 O187 1.208 . S
C189 O194 1.247 . S
C189 O195 1.208 . S
C190 O182 1.315 . S
C190 O185 1.279 . S
C191 O192 1.315 . S
C191 O193 1.279 . S
O192 Cd184 2.223 . S
O192 C191 1.315 . S
O193 Cd183 2.240 . S
O193 C191 1.279 . S
O194 Cd184 2.297 . S
O194 C189 1.247 . S
O195 Cd184 2.439 . S
O195 C189 1.208 . S
O196 Cd197 2.223 . S
O196 C204 1.315 . S
Cd197 O196 2.223 . S
Cd197 O200 2.297 . S
Cd197 O201 2.439 . S
Cd197 O207 2.240 . S
Cd198 O199 2.240 . S
Cd198 O206 2.223 . S
Cd198 O208 2.297 . S
Cd198 O209 2.439 . S
O199 Cd198 2.240 . S
O199 C204 1.279 . S
O200 Cd197 2.297 . S
O200 C202 1.247 . S
O201 Cd197 2.439 . S
O201 C202 1.208 . S
C202 O200 1.247 . S
C202 O201 1.208 . S
C203 O208 1.247 . S
C203 O209 1.208 . S
C204 O196 1.315 . S
C204 O199 1.279 . S
C205 O206 1.315 . S
C205 O207 1.279 . S
O206 Cd198 2.223 . S
O206 C205 1.315 . S
O207 Cd197 2.240 . S
O207 C205 1.279 . S
O208 Cd198 2.297 . S
O208 C203 1.247 . S
O209 Cd198 2.439 . S
O209 C203 1.208 . S
O210 Cd211 2.223 . S
O210 C218 1.315 . S
Cd211 O210 2.223 . S
Cd211 O214 2.297 . S
Cd211 O215 2.439 . S
Cd211 O221 2.240 . S
Cd212 O213 2.240 . S
Cd212 O220 2.223 . S
Cd212 O222 2.297 . S
Cd212 O223 2.439 . S
O213 Cd212 2.240 . S
O213 C218 1.279 . S
O214 Cd211 2.297 . S
O214 C216 1.247 . S
O215 Cd211 2.439 . S
O215 C216 1.208 . S
C216 O214 1.247 . S
C216 O215 1.208 . S
C217 O222 1.247 . S
C217 O223 1.208 . S
C218 O210 1.315 . S
C218 O213 1.279 . S
C219 O220 1.315 . S
C219 O221 1.279 . S
O220 Cd212 2.223 . S
O220 C219 1.315 . S
O221 Cd211 2.240 . S
O221 C219 1.279 . S
O222 Cd212 2.297 . S
O222 C217 1.247 . S
O223 Cd212 2.439 . S
O223 C217 1.208 . S
C224 C225 1.349 . S
C224 C226 1.327 . S
C224 H249 0.950 . S
C225 C224 1.349 . S
C225 C241 1.349 . S
C226 C224 1.327 . S
C226 C245 1.429 . S
C226 H250 0.950 . S
C227 C244 1.574 . S
C227 C246 1.368 . S
C227 H251 0.949 . S
H228 C232 0.949 . S
C229 C230 1.349 . S
C229 C231 1.327 . S
C229 H252 0.950 . S
C230 C229 1.349 . S
C230 C242 1.349 . S
C231 C229 1.327 . S
C231 C247 1.429 . S
C231 H253 0.950 . S
C232 H228 0.949 . S
C232 C240 1.574 . S
C232 C248 1.368 . S
H233 C241 0.950 . S
H234 C239 0.950 . S
H235 C240 0.949 . S
H236 C242 0.950 . S
H237 C243 0.950 . S
H238 C244 0.949 . S
C239 H234 0.950 . S
C239 C241 1.327 . S
C239 C245 1.429 . S
C240 C232 1.574 . S
C240 H235 0.949 . S
C240 C246 1.368 . S
C241 C225 1.349 . S
C241 H233 0.950 . S
C241 C239 1.327 . S
C242 C230 1.349 . S
C242 H236 0.950 . S
C242 C243 1.327 . S
C243 H237 0.950 . S
C243 C242 1.327 . S
C243 C247 1.429 . S
C244 C227 1.574 . S
C244 H238 0.949 . S
C244 C248 1.368 . S
C245 C226 1.429 . S
C245 C239 1.429 . S
C245 C246 1.523 . S
C246 C227 1.368 . S
C246 C240 1.368 . S
C246 C245 1.523 . S
C247 C231 1.429 . S
C247 C243 1.429 . S
C247 C248 1.523 . S
C248 C232 1.368 . S
C248 C244 1.368 . S
C248 C247 1.523 . S
H249 C224 0.950 . S
H250 C226 0.950 . S
H251 C227 0.949 . S
H252 C229 0.950 . S
H253 C231 0.950 . S
C254 C255 1.349 . S
C254 C256 1.327 . S
C254 H279 0.950 . S
C255 C254 1.349 . S
C255 C271 1.349 . S
C256 C254 1.327 . S
C256 C275 1.429 . S
C256 H280 0.950 . S
C257 C274 1.574 . S
C257 C276 1.368 . S
C257 H281 0.949 . S
H258 C262 0.949 . S
C259 C260 1.349 . S
C259 C261 1.327 . S
C259 H282 0.950 . S
C260 C259 1.349 . S
C260 C272 1.349 . S
C261 C259 1.327 . S
C261 C277 1.429 . S
C261 H283 0.950 . S
C262 H258 0.949 . S
C262 C270 1.574 . S
C262 C278 1.368 . S
H263 C271 0.950 . S
H264 C269 0.950 . S
H265 C270 0.949 . S
H266 C272 0.950 . S
H267 C273 0.950 . S
H268 C274 0.949 . S
C269 H264 0.950 . S
C269 C271 1.327 . S
C269 C275 1.429 . S
C270 C262 1.574 . S
C270 H265 0.949 . S
C270 C276 1.368 . S
C271 C255 1.349 . S
C271 H263 0.950 . S
C271 C269 1.327 . S
C272 C260 1.349 . S
C272 H266 0.950 . S
C272 C273 1.327 . S
C273 H267 0.950 . S
C273 C272 1.327 . S
C273 C277 1.429 . S
C274 C257 1.574 . S
C274 H268 0.949 . S
C274 C278 1.368 . S
C275 C256 1.429 . S
C275 C269 1.429 . S
C275 C276 1.523 . S
C276 C257 1.368 . S
C276 C270 1.368 . S
C276 C275 1.523 . S
C277 C261 1.429 . S
C277 C273 1.429 . S
C277 C278 1.523 . S
C278 C262 1.368 . S
C278 C274 1.368 . S
C278 C277 1.523 . S
H279 C254 0.950 . S
H280 C256 0.950 . S
H281 C257 0.949 . S
H282 C259 0.950 . S
H283 C261 0.950 . S
C284 C285 1.349 . S
C284 C286 1.327 . S
C284 H309 0.950 . S
C285 C284 1.349 . S
C285 C301 1.349 . S
C286 C284 1.327 . S
C286 C305 1.429 . S
C286 H310 0.950 . S
C287 C304 1.574 . S
C287 C306 1.368 . S
C287 H311 0.949 . S
H288 C292 0.949 . S
C289 C290 1.349 . S
C289 C291 1.327 . S
C289 H312 0.950 . S
C290 C289 1.349 . S
C290 C302 1.349 . S
C291 C289 1.327 . S
C291 C307 1.429 . S
C291 H313 0.950 . S
C292 H288 0.949 . S
C292 C300 1.574 . S
C292 C308 1.368 . S
H293 C301 0.950 . S
H294 C299 0.950 . S
H295 C300 0.949 . S
H296 C302 0.950 . S
H297 C303 0.950 . S
H298 C304 0.949 . S
C299 H294 0.950 . S
C299 C301 1.327 . S
C299 C305 1.429 . S
C300 C292 1.574 . S
C300 H295 0.949 . S
C300 C306 1.368 . S
C301 C285 1.349 . S
C301 H293 0.950 . S
C301 C299 1.327 . S
C302 C290 1.349 . S
C302 H296 0.950 . S
C302 C303 1.327 . S
C303 H297 0.950 . S
C303 C302 1.327 . S
C303 C307 1.429 . S
C304 C287 1.574 . S
C304 H298 0.949 . S
C304 C308 1.368 . S
C305 C286 1.429 . S
C305 C299 1.429 . S
C305 C306 1.523 . S
C306 C287 1.368 . S
C306 C300 1.368 . S
C306 C305 1.523 . S
C307 C291 1.429 . S
C307 C303 1.429 . S
C307 C308 1.523 . S
C308 C292 1.368 . S
C308 C304 1.368 . S
C308 C307 1.523 . S
H309 C284 0.950 . S
H310 C286 0.950 . S
H311 C287 0.949 . S
H312 C289 0.950 . S
H313 C291 0.950 . S
C314 C315 1.349 . S
C314 C316 1.327 . S
C314 H339 0.950 . S
C315 C314 1.349 . S
C315 C331 1.349 . S
C316 C314 1.327 . S
C316 C335 1.429 . S
C316 H340 0.950 . S
C317 C334 1.574 . S
C317 C336 1.368 . S
C317 H341 0.949 . S
H318 C322 0.949 . S
C319 C320 1.349 . S
C319 C321 1.327 . S
C319 H342 0.950 . S
C320 C319 1.349 . S
C320 C332 1.349 . S
C321 C319 1.327 . S
C321 C337 1.429 . S
C321 H343 0.950 . S
C322 H318 0.949 . S
C322 C330 1.574 . S
C322 C338 1.368 . S
H323 C331 0.950 . S
H324 C329 0.950 . S
H325 C330 0.949 . S
H326 C332 0.950 . S
H327 C333 0.950 . S
H328 C334 0.949 . S
C329 H324 0.950 . S
C329 C331 1.327 . S
C329 C335 1.429 . S
C330 C322 1.574 . S
C330 H325 0.949 . S
C330 C336 1.368 . S
C331 C315 1.349 . S
C331 H323 0.950 . S
C331 C329 1.327 . S
C332 C320 1.349 . S
C332 H326 0.950 . S
C332 C333 1.327 . S
C333 H327 0.950 . S
C333 C332 1.327 . S
C333 C337 1.429 . S
C334 C317 1.574 . S
C334 H328 0.949 . S
C334 C338 1.368 . S
C335 C316 1.429 . S
C335 C329 1.429 . S
C335 C336 1.523 . S
C336 C317 1.368 . S
C336 C330 1.368 . S
C336 C335 1.523 . S
C337 C321 1.429 . S
C337 C333 1.429 . S
C337 C338 1.523 . S
C338 C322 1.368 . S
C338 C334 1.368 . S
C338 C337 1.523 . S
H339 C314 0.950 . S
H340 C316 0.950 . S
H341 C317 0.949 . S
H342 C319 0.950 . S
H343 C321 0.950 . S
C344 C345 1.349 . S
C344 C346 1.327 . S
C344 H369 0.950 . S
C345 C344 1.349 . S
C345 C361 1.349 . S
C346 C344 1.327 . S
C346 C365 1.429 . S
C346 H370 0.950 . S
C347 C364 1.574 . S
C347 C366 1.368 . S
C347 H371 0.949 . S
H348 C352 0.949 . S
C349 C350 1.349 . S
C349 C351 1.327 . S
C349 H372 0.950 . S
C350 C349 1.349 . S
C350 C362 1.349 . S
C351 C349 1.327 . S
C351 C367 1.429 . S
C351 H373 0.950 . S
C352 H348 0.949 . S
C352 C360 1.574 . S
C352 C368 1.368 . S
H353 C361 0.950 . S
H354 C359 0.950 . S
H355 C360 0.949 . S
H356 C362 0.950 . S
H357 C363 0.950 . S
H358 C364 0.949 . S
C359 H354 0.950 . S
C359 C361 1.327 . S
C359 C365 1.429 . S
C360 C352 1.574 . S
C360 H355 0.949 . S
C360 C366 1.368 . S
C361 C345 1.349 . S
C361 H353 0.950 . S
C361 C359 1.327 . S
C362 C350 1.349 . S
C362 H356 0.950 . S
C362 C363 1.327 . S
C363 H357 0.950 . S
C363 C362 1.327 . S
C363 C367 1.429 . S
C364 C347 1.574 . S
C364 H358 0.949 . S
C364 C368 1.368 . S
C365 C346 1.429 . S
C365 C359 1.429 . S
C365 C366 1.523 . S
C366 C347 1.368 . S
C366 C360 1.368 . S
C366 C365 1.523 . S
C367 C351 1.429 . S
C367 C363 1.429 . S
C367 C368 1.523 . S
C368 C352 1.368 . S
C368 C364 1.368 . S
C368 C367 1.523 . S
H369 C344 0.950 . S
H370 C346 0.950 . S
H371 C347 0.949 . S
H372 C349 0.950 . S
H373 C351 0.950 . S
C374 C375 1.349 . S
C374 C376 1.327 . S
C374 H399 0.950 . S
C375 C374 1.349 . S
C375 C391 1.349 . S
C376 C374 1.327 . S
C376 C395 1.429 . S
C376 H400 0.950 . S
C377 C394 1.574 . S
C377 C396 1.368 . S
C377 H401 0.949 . S
H378 C382 0.949 . S
C379 C380 1.349 . S
C379 C381 1.327 . S
C379 H402 0.950 . S
C380 C379 1.349 . S
C380 C392 1.349 . S
C381 C379 1.327 . S
C381 C397 1.429 . S
C381 H403 0.950 . S
C382 H378 0.949 . S
C382 C390 1.574 . S
C382 C398 1.368 . S
H383 C391 0.950 . S
H384 C389 0.950 . S
H385 C390 0.949 . S
H386 C392 0.950 . S
H387 C393 0.950 . S
H388 C394 0.949 . S
C389 H384 0.950 . S
C389 C391 1.327 . S
C389 C395 1.429 . S
C390 C382 1.574 . S
C390 H385 0.949 . S
C390 C396 1.368 . S
C391 C375 1.349 . S
C391 H383 0.950 . S
C391 C389 1.327 . S
C392 C380 1.349 . S
C392 H386 0.950 . S
C392 C393 1.327 . S
C393 H387 0.950 . S
C393 C392 1.327 . S
C393 C397 1.429 . S
C394 C377 1.574 . S
C394 H388 0.949 . S
C394 C398 1.368 . S
C395 C376 1.429 . S
C395 C389 1.429 . S
C395 C396 1.523 . S
C396 C377 1.368 . S
C396 C390 1.368 . S
C396 C395 1.523 . S
C397 C381 1.429 . S
C397 C393 1.429 . S
C397 C398 1.523 . S
C398 C382 1.368 . S
C398 C394 1.368 . S
C398 C397 1.523 . S
H399 C374 0.950 . S
H400 C376 0.950 . S
H401 C377 0.949 . S
H402 C379 0.950 . S
H403 C381 0.950 . S
C404 C405 1.349 . S
C404 C406 1.327 . S
C404 H429 0.950 . S
C405 C404 1.349 . S
C405 C421 1.349 . S
C406 C404 1.327 . S
C406 C425 1.429 . S
C406 H430 0.950 . S
C407 C424 1.574 . S
C407 C426 1.368 . S
C407 H431 0.949 . S
H408 C412 0.949 . S
C409 C410 1.349 . S
C409 C411 1.327 . S
C409 H432 0.950 . S
C410 C409 1.349 . S
C410 C422 1.349 . S
C411 C409 1.327 . S
C411 C427 1.429 . S
C411 H433 0.950 . S
C412 H408 0.949 . S
C412 C420 1.574 . S
C412 C428 1.368 . S
H413 C421 0.950 . S
H414 C419 0.950 . S
H415 C420 0.949 . S
H416 C422 0.950 . S
H417 C423 0.950 . S
H418 C424 0.949 . S
C419 H414 0.950 . S
C419 C421 1.327 . S
C419 C425 1.429 . S
C420 C412 1.574 . S
C420 H415 0.949 . S
C420 C426 1.368 . S
C421 C405 1.349 . S
C421 H413 0.950 . S
C421 C419 1.327 . S
C422 C410 1.349 . S
C422 H416 0.950 . S
C422 C423 1.327 . S
C423 H417 0.950 . S
C423 C422 1.327 . S
C423 C427 1.429 . S
C424 C407 1.574 . S
C424 H418 0.949 . S
C424 C428 1.368 . S
C425 C406 1.429 . S
C425 C419 1.429 . S
C425 C426 1.523 . S
C426 C407 1.368 . S
C426 C420 1.368 . S
C426 C425 1.523 . S
C427 C411 1.429 . S
C427 C423 1.429 . S
C427 C428 1.523 . S
C428 C412 1.368 . S
C428 C424 1.368 . S
C428 C427 1.523 . S
H429 C404 0.950 . S
H430 C406 0.950 . S
H431 C407 0.949 . S
H432 C409 0.950 . S
H433 C411 0.950 . S
C434 C435 1.349 . S
C434 C436 1.327 . S
C434 H459 0.950 . S
C435 C434 1.349 . S
C435 C451 1.349 . S
C436 C434 1.327 . S
C436 C455 1.429 . S
C436 H460 0.950 . S
C437 C454 1.574 . S
C437 C456 1.368 . S
C437 H461 0.949 . S
H438 C442 0.949 . S
C439 C440 1.349 . S
C439 C441 1.327 . S
C439 H462 0.950 . S
C440 C439 1.349 . S
C440 C452 1.349 . S
C441 C439 1.327 . S
C441 C457 1.429 . S
C441 H463 0.950 . S
C442 H438 0.949 . S
C442 C450 1.574 . S
C442 C458 1.368 . S
H443 C451 0.950 . S
H444 C449 0.950 . S
H445 C450 0.949 . S
H446 C452 0.950 . S
H447 C453 0.950 . S
H448 C454 0.949 . S
C449 H444 0.950 . S
C449 C451 1.327 . S
C449 C455 1.429 . S
C450 C442 1.574 . S
C450 H445 0.949 . S
C450 C456 1.368 . S
C451 C435 1.349 . S
C451 H443 0.950 . S
C451 C449 1.327 . S
C452 C440 1.349 . S
C452 H446 0.950 . S
C452 C453 1.327 . S
C453 H447 0.950 . S
C453 C452 1.327 . S
C453 C457 1.429 . S
C454 C437 1.574 . S
C454 H448 0.949 . S
C454 C458 1.368 . S
C455 C436 1.429 . S
C455 C449 1.429 . S
C455 C456 1.523 . S
C456 C437 1.368 . S
C456 C450 1.368 . S
C456 C455 1.523 . S
C457 C441 1.429 . S
C457 C453 1.429 . S
C457 C458 1.523 . S
C458 C442 1.368 . S
C458 C454 1.368 . S
C458 C457 1.523 . S
H459 C434 0.950 . S
H460 C436 0.950 . S
H461 C437 0.949 . S
H462 C439 0.950 . S
H463 C441 0.950 . S
C464 C465 1.349 . S
C464 C466 1.327 . S
C464 H489 0.950 . S
C465 C464 1.349 . S
C465 C481 1.349 . S
C466 C464 1.327 . S
C466 C485 1.429 . S
C466 H490 0.950 . S
C467 C484 1.574 . S
C467 C486 1.368 . S
C467 H491 0.949 . S
H468 C472 0.949 . S
C469 C470 1.349 . S
C469 C471 1.327 . S
C469 H492 0.950 . S
C470 C469 1.349 . S
C470 C482 1.349 . S
C471 C469 1.327 . S
C471 C487 1.429 . S
C471 H493 0.950 . S
C472 H468 0.949 . S
C472 C480 1.574 . S
C472 C488 1.368 . S
H473 C481 0.950 . S
H474 C479 0.950 . S
H475 C480 0.949 . S
H476 C482 0.950 . S
H477 C483 0.950 . S
H478 C484 0.949 . S
C479 H474 0.950 . S
C479 C481 1.327 . S
C479 C485 1.429 . S
C480 C472 1.574 . S
C480 H475 0.949 . S
C480 C486 1.368 . S
C481 C465 1.349 . S
C481 H473 0.950 . S
C481 C479 1.327 . S
C482 C470 1.349 . S
C482 H476 0.950 . S
C482 C483 1.327 . S
C483 H477 0.950 . S
C483 C482 1.327 . S
C483 C487 1.429 . S
C484 C467 1.574 . S
C484 H478 0.949 . S
C484 C488 1.368 . S
C485 C466 1.429 . S
C485 C479 1.429 . S
C485 C486 1.523 . S
C486 C467 1.368 . S
C486 C480 1.368 . S
C486 C485 1.523 . S
C487 C471 1.429 . S
C487 C483 1.429 . S
C487 C488 1.523 . S
C488 C472 1.368 . S
C488 C484 1.368 . S
C488 C487 1.523 . S
H489 C464 0.950 . S
H490 C466 0.950 . S
H491 C467 0.949 . S
H492 C469 0.950 . S
H493 C471 0.950 . S
C494 C495 1.349 . S
C494 C496 1.327 . S
C494 H519 0.950 . S
C495 C494 1.349 . S
C495 C511 1.349 . S
C496 C494 1.327 . S
C496 C515 1.429 . S
C496 H520 0.950 . S
C497 C514 1.574 . S
C497 C516 1.368 . S
C497 H521 0.949 . S
H498 C502 0.949 . S
C499 C500 1.349 . S
C499 C501 1.327 . S
C499 H522 0.950 . S
C500 C499 1.349 . S
C500 C512 1.349 . S
C501 C499 1.327 . S
C501 C517 1.429 . S
C501 H523 0.950 . S
C502 H498 0.949 . S
C502 C510 1.574 . S
C502 C518 1.368 . S
H503 C511 0.950 . S
H504 C509 0.950 . S
H505 C510 0.949 . S
H506 C512 0.950 . S
H507 C513 0.950 . S
H508 C514 0.949 . S
C509 H504 0.950 . S
C509 C511 1.327 . S
C509 C515 1.429 . S
C510 C502 1.574 . S
C510 H505 0.949 . S
C510 C516 1.368 . S
C511 C495 1.349 . S
C511 H503 0.950 . S
C511 C509 1.327 . S
C512 C500 1.349 . S
C512 H506 0.950 . S
C512 C513 1.327 . S
C513 H507 0.950 . S
C513 C512 1.327 . S
C513 C517 1.429 . S
C514 C497 1.574 . S
C514 H508 0.949 . S
C514 C518 1.368 . S
C515 C496 1.429 . S
C515 C509 1.429 . S
C515 C516 1.523 . S
C516 C497 1.368 . S
C516 C510 1.368 . S
C516 C515 1.523 . S
C517 C501 1.429 . S
C517 C513 1.429 . S
C517 C518 1.523 . S
C518 C502 1.368 . S
C518 C514 1.368 . S
C518 C517 1.523 . S
H519 C494 0.950 . S
H520 C496 0.950 . S
H521 C497 0.949 . S
H522 C499 0.950 . S
H523 C501 0.950 . S
C524 C525 1.349 . S
C524 C526 1.327 . S
C524 H549 0.950 . S
C525 C524 1.349 . S
C525 C541 1.349 . S
C526 C524 1.327 . S
C526 C545 1.429 . S
C526 H550 0.950 . S
C527 C544 1.574 . S
C527 C546 1.368 . S
C527 H551 0.949 . S
H528 C532 0.949 . S
C529 C530 1.349 . S
C529 C531 1.327 . S
C529 H552 0.950 . S
C530 C529 1.349 . S
C530 C542 1.349 . S
C531 C529 1.327 . S
C531 C547 1.429 . S
C531 H553 0.950 . S
C532 H528 0.949 . S
C532 C540 1.574 . S
C532 C548 1.368 . S
H533 C541 0.950 . S
H534 C539 0.950 . S
H535 C540 0.949 . S
H536 C542 0.950 . S
H537 C543 0.950 . S
H538 C544 0.949 . S
C539 H534 0.950 . S
C539 C541 1.327 . S
C539 C545 1.429 . S
C540 C532 1.574 . S
C540 H535 0.949 . S
C540 C546 1.368 . S
C541 C525 1.349 . S
C541 H533 0.950 . S
C541 C539 1.327 . S
C542 C530 1.349 . S
C542 H536 0.950 . S
C542 C543 1.327 . S
C543 H537 0.950 . S
C543 C542 1.327 . S
C543 C547 1.429 . S
C544 C527 1.574 . S
C544 H538 0.949 . S
C544 C548 1.368 . S
C545 C526 1.429 . S
C545 C539 1.429 . S
C545 C546 1.523 . S
C546 C527 1.368 . S
C546 C540 1.368 . S
C546 C545 1.523 . S
C547 C531 1.429 . S
C547 C543 1.429 . S
C547 C548 1.523 . S
C548 C532 1.368 . S
C548 C544 1.368 . S
C548 C547 1.523 . S
H549 C524 0.950 . S
H550 C526 0.950 . S
H551 C527 0.949 . S
H552 C529 0.950 . S
H553 C531 0.950 . S
C554 C555 1.349 . S
C554 C556 1.327 . S
C554 H579 0.950 . S
C555 C554 1.349 . S
C555 C571 1.349 . S
C556 C554 1.327 . S
C556 C575 1.429 . S
C556 H580 0.950 . S
C557 C574 1.574 . S
C557 C576 1.368 . S
C557 H581 0.949 . S
H558 C562 0.949 . S
C559 C560 1.349 . S
C559 C561 1.327 . S
C559 H582 0.950 . S
C560 C559 1.349 . S
C560 C572 1.349 . S
C561 C559 1.327 . S
C561 C577 1.429 . S
C561 H583 0.950 . S
C562 H558 0.949 . S
C562 C570 1.574 . S
C562 C578 1.368 . S
H563 C571 0.950 . S
H564 C569 0.950 . S
H565 C570 0.949 . S
H566 C572 0.950 . S
H567 C573 0.950 . S
H568 C574 0.949 . S
C569 H564 0.950 . S
C569 C571 1.327 . S
C569 C575 1.429 . S
C570 C562 1.574 . S
C570 H565 0.949 . S
C570 C576 1.368 . S
C571 C555 1.349 . S
C571 H563 0.950 . S
C571 C569 1.327 . S
C572 C560 1.349 . S
C572 H566 0.950 . S
C572 C573 1.327 . S
C573 H567 0.950 . S
C573 C572 1.327 . S
C573 C577 1.429 . S
C574 C557 1.574 . S
C574 H568 0.949 . S
C574 C578 1.368 . S
C575 C556 1.429 . S
C575 C569 1.429 . S
C575 C576 1.523 . S
C576 C557 1.368 . S
C576 C570 1.368 . S
C576 C575 1.523 . S
C577 C561 1.429 . S
C577 C573 1.429 . S
C577 C578 1.523 . S
C578 C562 1.368 . S
C578 C574 1.368 . S
C578 C577 1.523 . S
H579 C554 0.950 . S
H580 C556 0.950 . S
H581 C557 0.949 . S
H582 C559 0.950 . S
H583 C561 0.950 . S
C584 C585 1.349 . S
C584 C586 1.327 . S
C584 H609 0.950 . S
C585 C584 1.349 . S
C585 C601 1.349 . S
C586 C584 1.327 . S
C586 C605 1.429 . S
C586 H610 0.950 . S
C587 C604 1.574 . S
C587 C606 1.368 . S
C587 H611 0.949 . S
H588 C592 0.949 . S
C589 C590 1.349 . S
C589 C591 1.327 . S
C589 H612 0.950 . S
C590 C589 1.349 . S
C590 C602 1.349 . S
C591 C589 1.327 . S
C591 C607 1.429 . S
C591 H613 0.950 . S
C592 H588 0.949 . S
C592 C600 1.574 . S
C592 C608 1.368 . S
H593 C601 0.950 . S
H594 C599 0.950 . S
H595 C600 0.949 . S
H596 C602 0.950 . S
H597 C603 0.950 . S
H598 C604 0.949 . S
C599 H594 0.950 . S
C599 C601 1.327 . S
C599 C605 1.429 . S
C600 C592 1.574 . S
C600 H595 0.949 . S
C600 C606 1.368 . S
C601 C585 1.349 . S
C601 H593 0.950 . S
C601 C599 1.327 . S
C602 C590 1.349 . S
C602 H596 0.950 . S
C602 C603 1.327 . S
C603 H597 0.950 . S
C603 C602 1.327 . S
C603 C607 1.429 . S
C604 C587 1.574 . S
C604 H598 0.949 . S
C604 C608 1.368 . S
C605 C586 1.429 . S
C605 C599 1.429 . S
C605 C606 1.523 . S
C606 C587 1.368 . S
C606 C600 1.368 . S
C606 C605 1.523 . S
C607 C591 1.429 . S
C607 C603 1.429 . S
C607 C608 1.523 . S
C608 C592 1.368 . S
C608 C604 1.368 . S
C608 C607 1.523 . S
H609 C584 0.950 . S
H610 C586 0.950 . S
H611 C587 0.949 . S
H612 C589 0.950 . S
H613 C591 0.950 . S
C614 C615 1.349 . S
C614 C616 1.327 . S
C614 H639 0.950 . S
C615 C614 1.349 . S
C615 C631 1.349 . S
C616 C614 1.327 . S
C616 C635 1.429 . S
C616 H640 0.950 . S
C617 C634 1.574 . S
C617 C636 1.368 . S
C617 H641 0.949 . S
H618 C622 0.949 . S
C619 C620 1.349 . S
C619 C621 1.327 . S
C619 H642 0.950 . S
C620 C619 1.349 . S
C620 C632 1.349 . S
C621 C619 1.327 . S
C621 C637 1.429 . S
C621 H643 0.950 . S
C622 H618 0.949 . S
C622 C630 1.574 . S
C622 C638 1.368 . S
H623 C631 0.950 . S
H624 C629 0.950 . S
H625 C630 0.949 . S
H626 C632 0.950 . S
H627 C633 0.950 . S
H628 C634 0.949 . S
C629 H624 0.950 . S
C629 C631 1.327 . S
C629 C635 1.429 . S
C630 C622 1.574 . S
C630 H625 0.949 . S
C630 C636 1.368 . S
C631 C615 1.349 . S
C631 H623 0.950 . S
C631 C629 1.327 . S
C632 C620 1.349 . S
C632 H626 0.950 . S
C632 C633 1.327 . S
C633 H627 0.950 . S
C633 C632 1.327 . S
C633 C637 1.429 . S
C634 C617 1.574 . S
C634 H628 0.949 . S
C634 C638 1.368 . S
C635 C616 1.429 . S
C635 C629 1.429 . S
C635 C636 1.523 . S
C636 C617 1.368 . S
C636 C630 1.368 . S
C636 C635 1.523 . S
C637 C621 1.429 . S
C637 C633 1.429 . S
C637 C638 1.523 . S
C638 C622 1.368 . S
C638 C634 1.368 . S
C638 C637 1.523 . S
H639 C614 0.950 . S
H640 C616 0.950 . S
H641 C617 0.949 . S
H642 C619 0.950 . S
H643 C621 0.950 . S
C644 C645 1.349 . S
C644 C646 1.327 . S
C644 H669 0.950 . S
C645 C644 1.349 . S
C645 C661 1.349 . S
C646 C644 1.327 . S
C646 C665 1.429 . S
C646 H670 0.950 . S
C647 C664 1.574 . S
C647 C666 1.368 . S
C647 H671 0.949 . S
H648 C652 0.949 . S
C649 C650 1.349 . S
C649 C651 1.327 . S
C649 H672 0.950 . S
C650 C649 1.349 . S
C650 C662 1.349 . S
C651 C649 1.327 . S
C651 C667 1.429 . S
C651 H673 0.950 . S
C652 H648 0.949 . S
C652 C660 1.574 . S
C652 C668 1.368 . S
H653 C661 0.950 . S
H654 C659 0.950 . S
H655 C660 0.949 . S
H656 C662 0.950 . S
H657 C663 0.950 . S
H658 C664 0.949 . S
C659 H654 0.950 . S
C659 C661 1.327 . S
C659 C665 1.429 . S
C660 C652 1.574 . S
C660 H655 0.949 . S
C660 C666 1.368 . S
C661 C645 1.349 . S
C661 H653 0.950 . S
C661 C659 1.327 . S
C662 C650 1.349 . S
C662 H656 0.950 . S
C662 C663 1.327 . S
C663 H657 0.950 . S
C663 C662 1.327 . S
C663 C667 1.429 . S
C664 C647 1.574 . S
C664 H658 0.949 . S
C664 C668 1.368 . S
C665 C646 1.429 . S
C665 C659 1.429 . S
C665 C666 1.523 . S
C666 C647 1.368 . S
C666 C660 1.368 . S
C666 C665 1.523 . S
C667 C651 1.429 . S
C667 C663 1.429 . S
C667 C668 1.523 . S
C668 C652 1.368 . S
C668 C664 1.368 . S
C668 C667 1.523 . S
H669 C644 0.950 . S
H670 C646 0.950 . S
H671 C647 0.949 . S
H672 C649 0.950 . S
H673 C651 0.950 . S
C674 C675 1.349 . S
C674 C676 1.327 . S
C674 H699 0.950 . S
C675 C674 1.349 . S
C675 C691 1.349 . S
C676 C674 1.327 . S
C676 C695 1.429 . S
C676 H700 0.950 . S
C677 C694 1.574 . S
C677 C696 1.368 . S
C677 H701 0.949 . S
H678 C682 0.949 . S
C679 C680 1.349 . S
C679 C681 1.327 . S
C679 H702 0.950 . S
C680 C679 1.349 . S
C680 C692 1.349 . S
C681 C679 1.327 . S
C681 C697 1.429 . S
C681 H703 0.950 . S
C682 H678 0.949 . S
C682 C690 1.574 . S
C682 C698 1.368 . S
H683 C691 0.950 . S
H684 C689 0.950 . S
H685 C690 0.949 . S
H686 C692 0.950 . S
H687 C693 0.950 . S
H688 C694 0.949 . S
C689 H684 0.950 . S
C689 C691 1.327 . S
C689 C695 1.429 . S
C690 C682 1.574 . S
C690 H685 0.949 . S
C690 C696 1.368 . S
C691 C675 1.349 . S
C691 H683 0.950 . S
C691 C689 1.327 . S
C692 C680 1.349 . S
C692 H686 0.950 . S
C692 C693 1.327 . S
C693 H687 0.950 . S
C693 C692 1.327 . S
C693 C697 1.429 . S
C694 C677 1.574 . S
C694 H688 0.949 . S
C694 C698 1.368 . S
C695 C676 1.429 . S
C695 C689 1.429 . S
C695 C696 1.523 . S
C696 C677 1.368 . S
C696 C690 1.368 . S
C696 C695 1.523 . S
C697 C681 1.429 . S
C697 C693 1.429 . S
C697 C698 1.523 . S
C698 C682 1.368 . S
C698 C694 1.368 . S
C698 C697 1.523 . S
H699 C674 0.950 . S
H700 C676 0.950 . S
H701 C677 0.949 . S
H702 C679 0.950 . S
H703 C681 0.950 . S
C704 C705 1.349 . S
C704 C706 1.327 . S
C704 H729 0.950 . S
C705 C704 1.349 . S
C705 C721 1.349 . S
C706 C704 1.327 . S
C706 C725 1.429 . S
C706 H730 0.950 . S
C707 C724 1.574 . S
C707 C726 1.368 . S
C707 H731 0.949 . S
H708 C712 0.949 . S
C709 C710 1.349 . S
C709 C711 1.327 . S
C709 H732 0.950 . S
C710 C709 1.349 . S
C710 C722 1.349 . S
C711 C709 1.327 . S
C711 C727 1.429 . S
C711 H733 0.950 . S
C712 H708 0.949 . S
C712 C720 1.574 . S
C712 C728 1.368 . S
H713 C721 0.950 . S
H714 C719 0.950 . S
H715 C720 0.949 . S
H716 C722 0.950 . S
H717 C723 0.950 . S
H718 C724 0.949 . S
C719 H714 0.950 . S
C719 C721 1.327 . S
C719 C725 1.429 . S
C720 C712 1.574 . S
C720 H715 0.949 . S
C720 C726 1.368 . S
C721 C705 1.349 . S
C721 H713 0.950 . S
C721 C719 1.327 . S
C722 C710 1.349 . S
C722 H716 0.950 . S
C722 C723 1.327 . S
C723 H717 0.950 . S
C723 C722 1.327 . S
C723 C727 1.429 . S
C724 C707 1.574 . S
C724 H718 0.949 . S
C724 C728 1.368 . S
C725 C706 1.429 . S
C725 C719 1.429 . S
C725 C726 1.523 . S
C726 C707 1.368 . S
C726 C720 1.368 . S
C726 C725 1.523 . S
C727 C711 1.429 . S
C727 C723 1.429 . S
C727 C728 1.523 . S
C728 C712 1.368 . S
C728 C724 1.368 . S
C728 C727 1.523 . S
H729 C704 0.950 . S
H730 C706 0.950 . S
H731 C707 0.949 . S
H732 C709 0.950 . S
H733 C711 0.950 . S
C734 C735 1.349 . S
C734 C736 1.327 . S
C734 H759 0.950 . S
C735 C734 1.349 . S
C735 C751 1.349 . S
C736 C734 1.327 . S
C736 C755 1.429 . S
C736 H760 0.950 . S
C737 C754 1.574 . S
C737 C756 1.368 . S
C737 H761 0.949 . S
H738 C742 0.949 . S
C739 C740 1.349 . S
C739 C741 1.327 . S
C739 H762 0.950 . S
C740 C739 1.349 . S
C740 C752 1.349 . S
C741 C739 1.327 . S
C741 C757 1.429 . S
C741 H763 0.950 . S
C742 H738 0.949 . S
C742 C750 1.574 . S
C742 C758 1.368 . S
H743 C751 0.950 . S
H744 C749 0.950 . S
H745 C750 0.949 . S
H746 C752 0.950 . S
H747 C753 0.950 . S
H748 C754 0.949 . S
C749 H744 0.950 . S
C749 C751 1.327 . S
C749 C755 1.429 . S
C750 C742 1.574 . S
C750 H745 0.949 . S
C750 C756 1.368 . S
C751 C735 1.349 . S
C751 H743 0.950 . S
C751 C749 1.327 . S
C752 C740 1.349 . S
C752 H746 0.950 . S
C752 C753 1.327 . S
C753 H747 0.950 . S
C753 C752 1.327 . S
C753 C757 1.429 . S
C754 C737 1.574 . S
C754 H748 0.949 . S
C754 C758 1.368 . S
C755 C736 1.429 . S
C755 C749 1.429 . S
C755 C756 1.523 . S
C756 C737 1.368 . S
C756 C750 1.368 . S
C756 C755 1.523 . S
C757 C741 1.429 . S
C757 C753 1.429 . S
C757 C758 1.523 . S
C758 C742 1.368 . S
C758 C754 1.368 . S
C758 C757 1.523 . S
H759 C734 0.950 . S
H760 C736 0.950 . S
H761 C737 0.949 . S
H762 C739 0.950 . S
H763 C741 0.950 . S
C764 C765 1.349 . S
C764 C766 1.327 . S
C764 H789 0.950 . S
C765 C764 1.349 . S
C765 C781 1.349 . S
C766 C764 1.327 . S
C766 C785 1.429 . S
C766 H790 0.950 . S
C767 C784 1.574 . S
C767 C786 1.368 . S
C767 H791 0.949 . S
H768 C772 0.949 . S
C769 C770 1.349 . S
C769 C771 1.327 . S
C769 H792 0.950 . S
C770 C769 1.349 . S
C770 C782 1.349 . S
C771 C769 1.327 . S
C771 C787 1.429 . S
C771 H793 0.950 . S
C772 H768 0.949 . S
C772 C780 1.574 . S
C772 C788 1.368 . S
H773 C781 0.950 . S
H774 C779 0.950 . S
H775 C780 0.949 . S
H776 C782 0.950 . S
H777 C783 0.950 . S
H778 C784 0.949 . S
C779 H774 0.950 . S
C779 C781 1.327 . S
C779 C785 1.429 . S
C780 C772 1.574 . S
C780 H775 0.949 . S
C780 C786 1.368 . S
C781 C765 1.349 . S
C781 H773 0.950 . S
C781 C779 1.327 . S
C782 C770 1.349 . S
C782 H776 0.950 . S
C782 C783 1.327 . S
C783 H777 0.950 . S
C783 C782 1.327 . S
C783 C787 1.429 . S
C784 C767 1.574 . S
C784 H778 0.949 . S
C784 C788 1.368 . S
C785 C766 1.429 . S
C785 C779 1.429 . S
C785 C786 1.523 . S
C786 C767 1.368 . S
C786 C780 1.368 . S
C786 C785 1.523 . S
C787 C771 1.429 . S
C787 C783 1.429 . S
C787 C788 1.523 . S
C788 C772 1.368 . S
C788 C784 1.368 . S
C788 C787 1.523 . S
H789 C764 0.950 . S
H790 C766 0.950 . S
H791 C767 0.949 . S
H792 C769 0.950 . S
H793 C771 0.950 . S
C794 C795 1.349 . S
C794 C796 1.327 . S
C794 H819 0.950 . S
C795 C794 1.349 . S
C795 C811 1.349 . S
C796 C794 1.327 . S
C796 C815 1.429 . S
C796 H820 0.950 . S
C797 C814 1.574 . S
C797 C816 1.368 . S
C797 H821 0.949 . S
H798 C802 0.949 . S
C799 C800 1.349 . S
C799 C801 1.327 . S
C799 H822 0.950 . S
C800 C799 1.349 . S
C800 C812 1.349 . S
C801 C799 1.327 . S
C801 C817 1.429 . S
C801 H823 0.950 . S
C802 H798 0.949 . S
C802 C810 1.574 . S
C802 C818 1.368 . S
H803 C811 0.950 . S
H804 C809 0.950 . S
H805 C810 0.949 . S
H806 C812 0.950 . S
H807 C813 0.950 . S
H808 C814 0.949 . S
C809 H804 0.950 . S
C809 C811 1.327 . S
C809 C815 1.429 . S
C810 C802 1.574 . S
C810 H805 0.949 . S
C810 C816 1.368 . S
C811 C795 1.349 . S
C811 H803 0.950 . S
C811 C809 1.327 . S
C812 C800 1.349 . S
C812 H806 0.950 . S
C812 C813 1.327 . S
C813 H807 0.950 . S
C813 C812 1.327 . S
C813 C817 1.429 . S
C814 C797 1.574 . S
C814 H808 0.949 . S
C814 C818 1.368 . S
C815 C796 1.429 . S
C815 C809 1.429 . S
C815 C816 1.523 . S
C816 C797 1.368 . S
C816 C810 1.368 . S
C816 C815 1.523 . S
C817 C801 1.429 . S
C817 C813 1.429 . S
C817 C818 1.523 . S
C818 C802 1.368 . S
C818 C814 1.368 . S
C818 C817 1.523 . S
H819 C794 0.950 . S
H820 C796 0.950 . S
H821 C797 0.949 . S
H822 C799 0.950 . S
H823 C801 0.950 . S
C824 C825 1.349 . S
C824 C826 1.327 . S
C824 H849 0.950 . S
C825 C824 1.349 . S
C825 C841 1.349 . S
C826 C824 1.327 . S
C826 C845 1.429 . S
C826 H850 0.950 . S
C827 C844 1.574 . S
C827 C846 1.368 . S
C827 H851 0.949 . S
H828 C832 0.949 . S
C829 C830 1.349 . S
C829 C831 1.327 . S
C829 H852 0.950 . S
C830 C829 1.349 . S
C830 C842 1.349 . S
C831 C829 1.327 . S
C831 C847 1.429 . S
C831 H853 0.950 . S
C832 H828 0.949 . S
C832 C840 1.574 . S
C832 C848 1.368 . S
H833 C841 0.950 . S
H834 C839 0.950 . S
H835 C840 0.949 . S
H836 C842 0.950 . S
H837 C843 0.950 . S
H838 C844 0.949 . S
C839 H834 0.950 . S
C839 C841 1.327 . S
C839 C845 1.429 . S
C840 C832 1.574 . S
C840 H835 0.949 . S
C840 C846 1.368 . S
C841 C825 1.349 . S
C841 H833 0.950 . S
C841 C839 1.327 . S
C842 C830 1.349 . S
C842 H836 0.950 . S
C842 C843 1.327 . S
C843 H837 0.950 . S
C843 C842 1.327 . S
C843 C847 1.429 . S
C844 C827 1.574 . S
C844 H838 0.949 . S
C844 C848 1.368 . S
C845 C826 1.429 . S
C845 C839 1.429 . S
C845 C846 1.523 . S
C846 C827 1.368 . S
C846 C840 1.368 . S
C846 C845 1.523 . S
C847 C831 1.429 . S
C847 C843 1.429 . S
C847 C848 1.523 . S
C848 C832 1.368 . S
C848 C844 1.368 . S
C848 C847 1.523 . S
H849 C824 0.950 . S
H850 C826 0.950 . S
H851 C827 0.949 . S
H852 C829 0.950 . S
H853 C831 0.950 . S
C854 C855 1.349 . S
C854 C856 1.327 . S
C854 H879 0.950 . S
C855 C854 1.349 . S
C855 C871 1.349 . S
C856 C854 1.327 . S
C856 C875 1.429 . S
C856 H880 0.950 . S
C857 C874 1.574 . S
C857 C876 1.368 . S
C857 H881 0.949 . S
H858 C862 0.949 . S
C859 C860 1.349 . S
C859 C861 1.327 . S
C859 H882 0.950 . S
C860 C859 1.349 . S
C860 C872 1.349 . S
C861 C859 1.327 . S
C861 C877 1.429 . S
C861 H883 0.950 . S
C862 H858 0.949 . S
C862 C870 1.574 . S
C862 C878 1.368 . S
H863 C871 0.950 . S
H864 C869 0.950 . S
H865 C870 0.949 . S
H866 C872 0.950 . S
H867 C873 0.950 . S
H868 C874 0.949 . S
C869 H864 0.950 . S
C869 C871 1.327 . S
C869 C875 1.429 . S
C870 C862 1.574 . S
C870 H865 0.949 . S
C870 C876 1.368 . S
C871 C855 1.349 . S
C871 H863 0.950 . S
C871 C869 1.327 . S
C872 C860 1.349 . S
C872 H866 0.950 . S
C872 C873 1.327 . S
C873 H867 0.950 . S
C873 C872 1.327 . S
C873 C877 1.429 . S
C874 C857 1.574 . S
C874 H868 0.949 . S
C874 C878 1.368 . S
C875 C856 1.429 . S
C875 C869 1.429 . S
C875 C876 1.523 . S
C876 C857 1.368 . S
C876 C870 1.368 . S
C876 C875 1.523 . S
C877 C861 1.429 . S
C877 C873 1.429 . S
C877 C878 1.523 . S
C878 C862 1.368 . S
C878 C874 1.368 . S
C878 C877 1.523 . S
H879 C854 0.950 . S
H880 C856 0.950 . S
H881 C857 0.949 . S
H882 C859 0.950 . S
H883 C861 0.950 . S
C884 C885 1.349 . S
C884 C886 1.327 . S
C884 H909 0.950 . S
C885 C884 1.349 . S
C885 C901 1.349 . S
C886 C884 1.327 . S
C886 C905 1.429 . S
C886 H910 0.950 . S
C887 C904 1.574 . S
C887 C906 1.368 . S
C887 H911 0.949 . S
H888 C892 0.949 . S
C889 C890 1.349 . S
C889 C891 1.327 . S
C889 H912 0.950 . S
C890 C889 1.349 . S
C890 C902 1.349 . S
C891 C889 1.327 . S
C891 C907 1.429 . S
C891 H913 0.950 . S
C892 H888 0.949 . S
C892 C900 1.574 . S
C892 C908 1.368 . S
H893 C901 0.950 . S
H894 C899 0.950 . S
H895 C900 0.949 . S
H896 C902 0.950 . S
H897 C903 0.950 . S
H898 C904 0.949 . S
C899 H894 0.950 . S
C899 C901 1.327 . S
C899 C905 1.429 . S
C900 C892 1.574 . S
C900 H895 0.949 . S
C900 C906 1.368 . S
C901 C885 1.349 . S
C901 H893 0.950 . S
C901 C899 1.327 . S
C902 C890 1.349 . S
C902 H896 0.950 . S
C902 C903 1.327 . S
C903 H897 0.950 . S
C903 C902 1.327 . S
C903 C907 1.429 . S
C904 C887 1.574 . S
C904 H898 0.949 . S
C904 C908 1.368 . S
C905 C886 1.429 . S
C905 C899 1.429 . S
C905 C906 1.523 . S
C906 C887 1.368 . S
C906 C900 1.368 . S
C906 C905 1.523 . S
C907 C891 1.429 . S
C907 C903 1.429 . S
C907 C908 1.523 . S
C908 C892 1.368 . S
C908 C904 1.368 . S
C908 C907 1.523 . S
H909 C884 0.950 . S
H910 C886 0.950 . S
H911 C887 0.949 . S
H912 C889 0.950 . S
H913 C891 0.950 . S
C914 C915 1.349 . S
C914 C916 1.327 . S
C914 H939 0.950 . S
C915 C914 1.349 . S
C915 C931 1.349 . S
C916 C914 1.327 . S
C916 C935 1.429 . S
C916 H940 0.950 . S
C917 C934 1.574 . S
C917 C936 1.368 . S
C917 H941 0.949 . S
H918 C922 0.949 . S
C919 C920 1.349 . S
C919 C921 1.327 . S
C919 H942 0.950 . S
C920 C919 1.349 . S
C920 C932 1.349 . S
C921 C919 1.327 . S
C921 C937 1.429 . S
C921 H943 0.950 . S
C922 H918 0.949 . S
C922 C930 1.574 . S
C922 C938 1.368 . S
H923 C931 0.950 . S
H924 C929 0.950 . S
H925 C930 0.949 . S
H926 C932 0.950 . S
H927 C933 0.950 . S
H928 C934 0.949 . S
C929 H924 0.950 . S
C929 C931 1.327 . S
C929 C935 1.429 . S
C930 C922 1.574 . S
C930 H925 0.949 . S
C930 C936 1.368 . S
C931 C915 1.349 . S
C931 H923 0.950 . S
C931 C929 1.327 . S
C932 C920 1.349 . S
C932 H926 0.950 . S
C932 C933 1.327 . S
C933 H927 0.950 . S
C933 C932 1.327 . S
C933 C937 1.429 . S
C934 C917 1.574 . S
C934 H928 0.949 . S
C934 C938 1.368 . S
C935 C916 1.429 . S
C935 C929 1.429 . S
C935 C936 1.523 . S
C936 C917 1.368 . S
C936 C930 1.368 . S
C936 C935 1.523 . S
C937 C921 1.429 . S
C937 C933 1.429 . S
C937 C938 1.523 . S
C938 C922 1.368 . S
C938 C934 1.368 . S
C938 C937 1.523 . S
H939 C914 0.950 . S
H940 C916 0.950 . S
H941 C917 0.949 . S
H942 C919 0.950 . S
H943 C921 0.950 . S
C944 C945 1.349 1_655 S
C944 C946 1.327 . S
C944 H969 0.950 . S
C945 C944 1.349 1_455 S
C945 C961 1.349 . S
C946 C944 1.327 . S
C946 C965 1.429 1_655 S
C946 H970 0.950 . S
C947 C964 1.574 . S
C947 C966 1.368 . S
C947 H971 0.949 . S
H948 C952 0.949 . S
C949 C950 1.349 1_455 S
C949 C951 1.327 . S
C949 H972 0.950 . S
C950 C949 1.349 1_655 S
C950 C962 1.349 . S
C951 C949 1.327 . S
C951 C967 1.429 1_455 S
C951 H973 0.950 . S
C952 H948 0.949 . S
C952 C960 1.574 . S
C952 C968 1.368 . S
H953 C961 0.950 . S
H954 C959 0.950 . S
H955 C960 0.949 . S
H956 C962 0.950 . S
H957 C963 0.950 . S
H958 C964 0.949 . S
C959 H954 0.950 . S
C959 C961 1.327 . S
C959 C965 1.429 . S
C960 C952 1.574 . S
C960 H955 0.949 . S
C960 C966 1.368 1_655 S
C961 C945 1.349 . S
C961 H953 0.950 . S
C961 C959 1.327 . S
C962 C950 1.349 . S
C962 H956 0.950 . S
C962 C963 1.327 . S
C963 H957 0.950 . S
C963 C962 1.327 . S
C963 C967 1.429 . S
C964 C947 1.574 . S
C964 H958 0.949 . S
C964 C968 1.368 1_455 S
C965 C946 1.429 1_455 S
C965 C959 1.429 . S
C965 C966 1.523 . S
C966 C947 1.368 . S
C966 C960 1.368 1_455 S
C966 C965 1.523 . S
C967 C951 1.429 1_655 S
C967 C963 1.429 . S
C967 C968 1.523 . S
C968 C952 1.368 . S
C968 C964 1.368 1_655 S
C968 C967 1.523 . S
H969 C944 0.950 . S
H970 C946 0.950 . S
H971 C947 0.949 . S
H972 C949 0.950 . S
H973 C951 0.950 . S
C974 C975 1.349 . S
C974 C976 1.327 . S
C974 H999 0.950 . S
C975 C974 1.349 . S
C975 C991 1.349 1_565 S
C976 C974 1.327 . S
C976 C995 1.429 . S
C976 H1000 0.950 . S
C977 C994 1.574 . S
C977 C996 1.368 1_545 S
C977 H1001 0.949 . S
H978 C982 0.949 . S
C979 C980 1.349 . S
C979 C981 1.327 . S
C979 H1002 0.950 . S
C980 C979 1.349 . S
C980 C992 1.349 1_545 S
C981 C979 1.327 . S
C981 C997 1.429 . S
C981 H1003 0.950 . S
C982 H978 0.949 . S
C982 C990 1.574 . S
C982 C998 1.368 1_565 S
H983 C991 0.950 . S
H984 C989 0.950 . S
H985 C990 0.949 . S
H986 C992 0.950 . S
H987 C993 0.950 . S
H988 C994 0.949 . S
C989 H984 0.950 . S
C989 C991 1.327 . S
C989 C995 1.429 1_545 S
C990 C982 1.574 . S
C990 H985 0.949 . S
C990 C996 1.368 . S
C991 C975 1.349 1_545 S
C991 H983 0.950 . S
C991 C989 1.327 . S
C992 C980 1.349 1_565 S
C992 H986 0.950 . S
C992 C993 1.327 . S
C993 H987 0.950 . S
C993 C992 1.327 . S
C993 C997 1.429 1_565 S
C994 C977 1.574 . S
C994 H988 0.949 . S
C994 C998 1.368 . S
C995 C976 1.429 . S
C995 C989 1.429 1_565 S
C995 C996 1.523 . S
C996 C977 1.368 1_565 S
C996 C990 1.368 . S
C996 C995 1.523 . S
C997 C981 1.429 . S
C997 C993 1.429 1_545 S
C997 C998 1.523 . S
C998 C982 1.368 1_545 S
C998 C994 1.368 . S
C998 C997 1.523 . S
H999 C974 0.950 . S
H1000 C976 0.950 . S
H1001 C977 0.949 . S
H1002 C979 0.950 . S
H1003 C981 0.950 . S
C1004 C1005 1.349 1_655 S
C1004 C1006 1.327 . S
C1004 H1029 0.950 . S
C1005 C1004 1.349 1_455 S
C1005 C1021 1.349 . S
C1006 C1004 1.327 . S
C1006 C1025 1.429 1_655 S
C1006 H1030 0.950 . S
C1007 C1024 1.574 . S
C1007 C1026 1.368 . S
C1007 H1031 0.949 . S
H1008 C1012 0.949 . S
C1009 C1010 1.349 1_455 S
C1009 C1011 1.327 . S
C1009 H1032 0.950 . S
C1010 C1009 1.349 1_655 S
C1010 C1022 1.349 . S
C1011 C1009 1.327 . S
C1011 C1027 1.429 1_455 S
C1011 H1033 0.950 . S
C1012 H1008 0.949 . S
C1012 C1020 1.574 . S
C1012 C1028 1.368 . S
H1013 C1021 0.950 . S
H1014 C1019 0.950 . S
H1015 C1020 0.949 . S
H1016 C1022 0.950 . S
H1017 C1023 0.950 . S
H1018 C1024 0.949 . S
C1019 H1014 0.950 . S
C1019 C1021 1.327 . S
C1019 C1025 1.429 . S
C1020 C1012 1.574 . S
C1020 H1015 0.949 . S
C1020 C1026 1.368 1_655 S
C1021 C1005 1.349 . S
C1021 H1013 0.950 . S
C1021 C1019 1.327 . S
C1022 C1010 1.349 . S
C1022 H1016 0.950 . S
C1022 C1023 1.327 . S
C1023 H1017 0.950 . S
C1023 C1022 1.327 . S
C1023 C1027 1.429 . S
C1024 C1007 1.574 . S
C1024 H1018 0.949 . S
C1024 C1028 1.368 1_455 S
C1025 C1006 1.429 1_455 S
C1025 C1019 1.429 . S
C1025 C1026 1.523 . S
C1026 C1007 1.368 . S
C1026 C1020 1.368 1_455 S
C1026 C1025 1.523 . S
C1027 C1011 1.429 1_655 S
C1027 C1023 1.429 . S
C1027 C1028 1.523 . S
C1028 C1012 1.368 . S
C1028 C1024 1.368 1_655 S
C1028 C1027 1.523 . S
H1029 C1004 0.950 . S
H1030 C1006 0.950 . S
H1031 C1007 0.949 . S
H1032 C1009 0.950 . S
H1033 C1011 0.950 . S
C1034 C1035 1.349 1_565 S
C1034 C1036 1.327 . S
C1034 H1059 0.950 . S
C1035 C1034 1.349 1_545 S
C1035 C1051 1.349 . S
C1036 C1034 1.327 . S
C1036 C1055 1.429 1_565 S
C1036 H1060 0.950 . S
C1037 C1054 1.574 . S
C1037 C1056 1.368 . S
C1037 H1061 0.949 . S
H1038 C1042 0.949 . S
C1039 C1040 1.349 1_545 S
C1039 C1041 1.327 . S
C1039 H1062 0.950 . S
C1040 C1039 1.349 1_565 S
C1040 C1052 1.349 . S
C1041 C1039 1.327 . S
C1041 C1057 1.429 1_545 S
C1041 H1063 0.950 . S
C1042 H1038 0.949 . S
C1042 C1050 1.574 . S
C1042 C1058 1.368 . S
H1043 C1051 0.950 . S
H1044 C1049 0.950 . S
H1045 C1050 0.949 . S
H1046 C1052 0.950 . S
H1047 C1053 0.950 . S
H1048 C1054 0.949 . S
C1049 H1044 0.950 . S
C1049 C1051 1.327 . S
C1049 C1055 1.429 . S
C1050 C1042 1.574 . S
C1050 H1045 0.949 . S
C1050 C1056 1.368 1_565 S
C1051 C1035 1.349 . S
C1051 H1043 0.950 . S
C1051 C1049 1.327 . S
C1052 C1040 1.349 . S
C1052 H1046 0.950 . S
C1052 C1053 1.327 . S
C1053 H1047 0.950 . S
C1053 C1052 1.327 . S
C1053 C1057 1.429 . S
C1054 C1037 1.574 . S
C1054 H1048 0.949 . S
C1054 C1058 1.368 1_545 S
C1055 C1036 1.429 1_545 S
C1055 C1049 1.429 . S
C1055 C1056 1.523 . S
C1056 C1037 1.368 . S
C1056 C1050 1.368 1_545 S
C1056 C1055 1.523 . S
C1057 C1041 1.429 1_565 S
C1057 C1053 1.429 . S
C1057 C1058 1.523 . S
C1058 C1042 1.368 . S
C1058 C1054 1.368 1_565 S
C1058 C1057 1.523 . S
H1059 C1034 0.950 . S
H1060 C1036 0.950 . S
H1061 C1037 0.949 . S
H1062 C1039 0.950 . S
H1063 C1041 0.950 . S
C1064 C1065 1.349 . S
C1064 C1066 1.327 . S
C1064 H1089 0.950 . S
C1065 C1064 1.349 . S
C1065 C1081 1.349 . S
C1066 C1064 1.327 . S
C1066 C1085 1.429 . S
C1066 H1090 0.950 . S
C1067 C1084 1.574 1_556 S
C1067 C1086 1.368 . S
C1067 H1091 0.949 . S
H1068 C1072 0.949 . S
C1069 C1070 1.349 . S
C1069 C1071 1.327 . S
C1069 H1092 0.950 . S
C1070 C1069 1.349 . S
C1070 C1082 1.349 . S
C1071 C1069 1.327 . S
C1071 C1087 1.429 . S
C1071 H1093 0.950 . S
C1072 H1068 0.949 . S
C1072 C1080 1.574 1_554 S
C1072 C1088 1.368 . S
H1073 C1081 0.950 . S
H1074 C1079 0.950 . S
H1075 C1080 0.949 . S
H1076 C1082 0.950 . S
H1077 C1083 0.950 . S
H1078 C1084 0.949 . S
C1079 H1074 0.950 . S
C1079 C1081 1.327 . S
C1079 C1085 1.429 . S
C1080 C1072 1.574 1_556 S
C1080 H1075 0.949 . S
C1080 C1086 1.368 . S
C1081 C1065 1.349 . S
C1081 H1073 0.950 . S
C1081 C1079 1.327 . S
C1082 C1070 1.349 . S
C1082 H1076 0.950 . S
C1082 C1083 1.327 . S
C1083 H1077 0.950 . S
C1083 C1082 1.327 . S
C1083 C1087 1.429 . S
C1084 C1067 1.574 1_554 S
C1084 H1078 0.949 . S
C1084 C1088 1.368 . S
C1085 C1066 1.429 . S
C1085 C1079 1.429 . S
C1085 C1086 1.523 . S
C1086 C1067 1.368 . S
C1086 C1080 1.368 . S
C1086 C1085 1.523 . S
C1087 C1071 1.429 . S
C1087 C1083 1.429 . S
C1087 C1088 1.523 . S
C1088 C1072 1.368 . S
C1088 C1084 1.368 . S
C1088 C1087 1.523 . S
H1089 C1064 0.950 . S
H1090 C1066 0.950 . S
H1091 C1067 0.949 . S
H1092 C1069 0.950 . S
H1093 C1071 0.950 . S
C1094 C1095 1.349 . S
C1094 C1096 1.327 . S
C1094 H1119 0.950 . S
C1095 C1094 1.349 . S
C1095 C1111 1.349 . S
C1096 C1094 1.327 . S
C1096 C1115 1.429 . S
C1096 H1120 0.950 . S
C1097 C1114 1.574 1_556 S
C1097 C1116 1.368 . S
C1097 H1121 0.949 . S
H1098 C1102 0.949 . S
C1099 C1100 1.349 . S
C1099 C1101 1.327 . S
C1099 H1122 0.950 . S
C1100 C1099 1.349 . S
C1100 C1112 1.349 . S
C1101 C1099 1.327 . S
C1101 C1117 1.429 . S
C1101 H1123 0.950 . S
C1102 H1098 0.949 . S
C1102 C1110 1.574 1_554 S
C1102 C1118 1.368 . S
H1103 C1111 0.950 . S
H1104 C1109 0.950 . S
H1105 C1110 0.949 . S
H1106 C1112 0.950 . S
H1107 C1113 0.950 . S
H1108 C1114 0.949 . S
C1109 H1104 0.950 . S
C1109 C1111 1.327 . S
C1109 C1115 1.429 . S
C1110 C1102 1.574 1_556 S
C1110 H1105 0.949 . S
C1110 C1116 1.368 . S
C1111 C1095 1.349 . S
C1111 H1103 0.950 . S
C1111 C1109 1.327 . S
C1112 C1100 1.349 . S
C1112 H1106 0.950 . S
C1112 C1113 1.327 . S
C1113 H1107 0.950 . S
C1113 C1112 1.327 . S
C1113 C1117 1.429 . S
C1114 C1097 1.574 1_554 S
C1114 H1108 0.949 . S
C1114 C1118 1.368 . S
C1115 C1096 1.429 . S
C1115 C1109 1.429 . S
C1115 C1116 1.523 . S
C1116 C1097 1.368 . S
C1116 C1110 1.368 . S
C1116 C1115 1.523 . S
C1117 C1101 1.429 . S
C1117 C1113 1.429 . S
C1117 C1118 1.523 . S
C1118 C1102 1.368 . S
C1118 C1114 1.368 . S
C1118 C1117 1.523 . S
H1119 C1094 0.950 . S
H1120 C1096 0.950 . S
H1121 C1097 0.949 . S
H1122 C1099 0.950 . S
H1123 C1101 0.950 . S
C1124 C1125 1.349 . S
C1124 C1126 1.327 . S
C1124 H1149 0.950 . S
C1125 C1124 1.349 . S
C1125 C1141 1.349 . S
C1126 C1124 1.327 . S
C1126 C1145 1.429 . S
C1126 H1150 0.950 . S
C1127 C1144 1.574 1_554 S
C1127 C1146 1.368 . S
C1127 H1151 0.949 . S
H1128 C1132 0.949 . S
C1129 C1130 1.349 . S
C1129 C1131 1.327 . S
C1129 H1152 0.950 . S
C1130 C1129 1.349 . S
C1130 C1142 1.349 . S
C1131 C1129 1.327 . S
C1131 C1147 1.429 . S
C1131 H1153 0.950 . S
C1132 H1128 0.949 . S
C1132 C1140 1.574 1_556 S
C1132 C1148 1.368 . S
H1133 C1141 0.950 . S
H1134 C1139 0.950 . S
H1135 C1140 0.949 . S
H1136 C1142 0.950 . S
H1137 C1143 0.950 . S
H1138 C1144 0.949 . S
C1139 H1134 0.950 . S
C1139 C1141 1.327 . S
C1139 C1145 1.429 . S
C1140 C1132 1.574 1_554 S
C1140 H1135 0.949 . S
C1140 C1146 1.368 . S
C1141 C1125 1.349 . S
C1141 H1133 0.950 . S
C1141 C1139 1.327 . S
C1142 C1130 1.349 . S
C1142 H1136 0.950 . S
C1142 C1143 1.327 . S
C1143 H1137 0.950 . S
C1143 C1142 1.327 . S
C1143 C1147 1.429 . S
C1144 C1127 1.574 1_556 S
C1144 H1138 0.949 . S
C1144 C1148 1.368 . S
C1145 C1126 1.429 . S
C1145 C1139 1.429 . S
C1145 C1146 1.523 . S
C1146 C1127 1.368 . S
C1146 C1140 1.368 . S
C1146 C1145 1.523 . S
C1147 C1131 1.429 . S
C1147 C1143 1.429 . S
C1147 C1148 1.523 . S
C1148 C1132 1.368 . S
C1148 C1144 1.368 . S
C1148 C1147 1.523 . S
H1149 C1124 0.950 . S
H1150 C1126 0.950 . S
H1151 C1127 0.949 . S
H1152 C1129 0.950 . S
H1153 C1131 0.950 . S
C1154 C1155 1.349 . S
C1154 C1156 1.327 . S
C1154 H1179 0.950 . S
C1155 C1154 1.349 . S
C1155 C1171 1.349 . S
C1156 C1154 1.327 . S
C1156 C1175 1.429 . S
C1156 H1180 0.950 . S
C1157 C1174 1.574 1_556 S
C1157 C1176 1.368 . S
C1157 H1181 0.949 . S
H1158 C1162 0.949 . S
C1159 C1160 1.349 . S
C1159 C1161 1.327 . S
C1159 H1182 0.950 . S
C1160 C1159 1.349 . S
C1160 C1172 1.349 . S
C1161 C1159 1.327 . S
C1161 C1177 1.429 . S
C1161 H1183 0.950 . S
C1162 H1158 0.949 . S
C1162 C1170 1.574 1_554 S
C1162 C1178 1.368 . S
H1163 C1171 0.950 . S
H1164 C1169 0.950 . S
H1165 C1170 0.949 . S
H1166 C1172 0.950 . S
H1167 C1173 0.950 . S
H1168 C1174 0.949 . S
C1169 H1164 0.950 . S
C1169 C1171 1.327 . S
C1169 C1175 1.429 . S
C1170 C1162 1.574 1_556 S
C1170 H1165 0.949 . S
C1170 C1176 1.368 . S
C1171 C1155 1.349 . S
C1171 H1163 0.950 . S
C1171 C1169 1.327 . S
C1172 C1160 1.349 . S
C1172 H1166 0.950 . S
C1172 C1173 1.327 . S
C1173 H1167 0.950 . S
C1173 C1172 1.327 . S
C1173 C1177 1.429 . S
C1174 C1157 1.574 1_554 S
C1174 H1168 0.949 . S
C1174 C1178 1.368 . S
C1175 C1156 1.429 . S
C1175 C1169 1.429 . S
C1175 C1176 1.523 . S
C1176 C1157 1.368 . S
C1176 C1170 1.368 . S
C1176 C1175 1.523 . S
C1177 C1161 1.429 . S
C1177 C1173 1.429 . S
C1177 C1178 1.523 . S
C1178 C1162 1.368 . S
C1178 C1174 1.368 . S
C1178 C1177 1.523 . S
H1179 C1154 0.950 . S
H1180 C1156 0.950 . S
H1181 C1157 0.949 . S
H1182 C1159 0.950 . S
H1183 C1161 0.950 . S
C225 C8 1.532 . S
C230 C51 1.473 1_545 S
C255 C9 1.472 1_655 S
C260 C22 1.532 . S
C285 C23 1.472 1_565 S
C290 C36 1.532 . S
C315 C37 1.472 1_455 S
C320 C50 1.532 . S
C345 C64 1.532 . S
C350 C79 1.472 1_565 S
C375 C78 1.532 . S
C380 C93 1.472 1_455 S
C405 C92 1.532 . S
C410 C107 1.472 1_545 S
C435 C106 1.532 . S
C440 C65 1.473 1_655 S
C465 C120 1.532 . S
C470 C163 1.473 . S
C495 C121 1.472 . S
C500 C134 1.532 . S
C525 C135 1.472 . S
C530 C148 1.532 . S
C555 C162 1.532 . S
C560 C149 1.473 . S
C585 C191 1.473 . S
C590 C176 1.532 . S
C615 C205 1.472 . S
C620 C190 1.532 . S
C645 C204 1.532 . S
C650 C219 1.472 . S
C675 C218 1.532 . S
C680 C177 1.473 . S
C705 C6 1.159 . S
C710 C216 1.159 . S
C735 C20 1.159 . S
C740 C174 1.159 . S
C765 C188 1.159 . S
C770 C34 1.159 . S
C795 C48 1.159 . S
C800 C202 1.159 . S
C825 C132 1.159 . S
C830 C62 1.159 . S
C855 C146 1.159 . S
C860 C76 1.159 . S
C885 C90 1.159 . S
C890 C160 1.159 . S
C915 C104 1.159 . S
C920 C118 1.159 . S
C945 C7 1.598 . S
C950 C91 1.598 . S
C975 C105 1.598 . S
C980 C21 1.598 . S
C1005 C63 1.598 . S
C1010 C35 1.598 . S
C1035 C77 1.598 . S
C1040 C49 1.598 . S
C1065 C119 1.598 . S
C1070 C203 1.598 . S
C1095 C133 1.598 . S
C1100 C217 1.598 . S
C1125 C175 1.598 . S
C1130 C147 1.598 . S
C1155 C161 1.598 . S
C1160 C189 1.598 . S
