# Generated by pormake.
# Topology uon, (4)-cn, num edge types: 1
# Building blocks:
#     Node 0, Type 0, BuildingBlock: ICAMEG_clean_sbu_1, # of connection points: 4
#     Node 1, Type 0, BuildingBlock: ICAMEG_clean_sbu_1, # of connection points: 4
#     Node 2, Type 0, BuildingBlock: ICAMEG_clean_sbu_1, # of connection points: 4
#     Node 3, Type 0, BuildingBlock: ICAMEG_clean_sbu_1, # of connection points: 4
#     Node 4, Type 0, BuildingBlock: ICAMEG_clean_sbu_1, # of connection points: 4
#     Node 5, Type 0, BuildingBlock: ICAMEG_clean_sbu_1, # of connection points: 4
#     Edge 6, Type (0, 0), BuildingBlock: XIVTED_clean_linker_0, # of connection points: 2
#     Edge 7, Type (0, 0), BuildingBlock: XIVTED_clean_linker_0, # of connection points: 2
#     Edge 8, Type (0, 0), BuildingBlock: XIVTED_clean_linker_0, # of connection points: 2
#     Edge 9, Type (0, 0), BuildingBlock: XIVTED_clean_linker_0, # of connection points: 2
#     Edge 10, Type (0, 0), BuildingBlock: XIVTED_clean_linker_0, # of connection points: 2
#     Edge 11, Type (0, 0), BuildingBlock: XIVTED_clean_linker_0, # of connection points: 2
#     Edge 12, Type (0, 0), BuildingBlock: XIVTED_clean_linker_0, # of connection points: 2
#     Edge 13, Type (0, 0), BuildingBlock: XIVTED_clean_linker_0, # of connection points: 2
#     Edge 14, Type (0, 0), BuildingBlock: XIVTED_clean_linker_0, # of connection points: 2
#     Edge 15, Type (0, 0), BuildingBlock: XIVTED_clean_linker_0, # of connection points: 2
#     Edge 16, Type (0, 0), BuildingBlock: XIVTED_clean_linker_0, # of connection points: 2
#     Edge 17, Type (0, 0), BuildingBlock: XIVTED_clean_linker_0, # of connection points: 2
# Relax obj value: 0.158
# Max RMSD: 0.297
# Mean RMSD: 0.272
data_MOF--net-uon--node1-ICAMEG_clean_sbu_1--edge1-XIVTED_clean_linker_0
_symmetry_space_group_name_H-M    P1
_symmetry_Int_Tables_number       1
_symmetry_cell_setting            triclinic
loop_
_symmetry_equiv_pos_as_xyz
'x, y, z'
_cell_length_a     36.83065
_cell_length_b     36.816094
_cell_length_c     17.158073
_cell_angle_alpha  89.637808
_cell_angle_beta   90.37018
_cell_angle_gamma 120.01181
loop_
_atom_site_label
_atom_site_type_symbol
_atom_site_fract_x
_atom_site_fract_y
_atom_site_fract_z
_atom_type_partial_charge
Co0 Co 0.16829 0.41843 0.98905 0.0
Co1 Co 0.24097 0.43934 0.13497 0.0
O2 O 0.2184 0.42103 0.03112 0.0
C3 C 0.23309 0.44899 0.86207 0.0
O4 O 0.24096 0.41866 0.87593 0.0
C5 C 0.22931 0.35353 0.12492 0.0
O6 O 0.1888 0.33873 0.11855 0.0
O7 O 0.18453 0.40262 0.18168 0.0
O8 O 0.13697 0.39165 0.08732 0.0
H9 H 0.24366 0.48882 0.40827 0.0
H10 H 0.20757 0.3626 0.95986 0.0
O11 O 0.20155 0.44876 0.89313 0.0
H12 H 0.05728 0.27209 0.90948 0.0
H13 H 0.07018 0.40809 0.77307 0.0
H14 H 0.10177 0.43251 0.05395 0.0
H15 H 0.08386 0.34325 0.95664 0.0
H16 H 0.13131 0.40675 0.82957 0.0
O17 O 0.25404 0.39249 0.1376 0.0
H18 H 0.21544 0.46762 0.2751 0.0
H19 H 0.31541 0.44648 0.21834 0.0
H20 H 0.03997 0.43343 0.00013 0.0
H21 H 0.18219 0.29225 0.91197 0.0
H22 H 0.02384 0.42111 0.85879 0.0
H23 H 0.10641 0.24591 0.88482 0.0
O24 O 0.18601 0.47507 0.03023 0.0
H25 H 0.35733 0.47587 0.944 0.0
H26 H 0.30751 0.52866 0.15754 0.0
H27 H 0.37409 0.57676 0.09195 0.0
H28 H 0.39925 0.5505 0.98393 0.0
H29 H 0.291 0.42886 0.01116 0.0
H30 H 0.3446 0.46719 0.35106 0.0
H31 H 0.30871 0.48869 0.44694 0.0
O32 O 0.22933 0.487 0.13146 0.0
C33 C 0.14674 0.38752 0.15737 0.0
C34 C 0.25966 0.47965 0.36694 0.0
C35 C 0.31628 0.46745 0.33486 0.0
N36 N 0.26397 0.45619 0.23896 0.0
C37 C 0.2439 0.46774 0.29143 0.0
C38 C 0.29958 0.45569 0.25989 0.0
C39 C 0.29614 0.47953 0.38862 0.0
C40 C 0.17524 0.34514 0.94269 0.0
N41 N 0.14876 0.3611 0.94965 0.0
C42 C 0.16068 0.30404 0.91785 0.0
C43 C 0.11818 0.27794 0.90338 0.0
C44 C 0.0907 0.29274 0.9166 0.0
C45 C 0.10643 0.33402 0.94148 0.0
C46 C 0.07683 0.41337 0.83481 0.0
C47 C 0.09465 0.42658 0.99256 0.0
C48 C 0.11153 0.41291 0.86703 0.0
N49 N 0.11965 0.41876 0.94525 0.0
C50 C 0.05977 0.42741 0.96232 0.0
C51 C 0.05078 0.42059 0.88295 0.0
C52 C 0.20877 0.4978 0.08607 0.0
C53 C 0.34677 0.48766 0.99114 0.0
C54 C 0.31839 0.51689 0.11102 0.0
C55 C 0.35612 0.54429 0.07406 0.0
C56 C 0.37024 0.52954 0.0135 0.0
N57 N 0.29541 0.4759 0.0885 0.0
C58 C 0.30928 0.46114 0.02963 0.0
Co59 Co 0.79412 0.24349 0.5767 0.0
Co60 Co 0.87886 0.26356 0.69368 0.0
O61 O 0.85306 0.275 0.60429 0.0
C62 C 0.81003 0.32923 0.60229 0.0
O63 O 0.83412 0.33163 0.66101 0.0
C64 C 0.91784 0.25268 0.55392 0.0
O65 O 0.87933 0.22671 0.53121 0.0
O66 O 0.84628 0.2015 0.6763 0.0
O67 O 0.7925 0.18952 0.59729 0.0
H68 H 0.88376 0.19225 0.94127 0.0
H69 H 0.85411 0.30825 0.46828 0.0
O70 O 0.79351 0.29696 0.55853 0.0
H71 H 0.79191 0.17559 0.32164 0.0
H72 H 0.66695 0.21321 0.41703 0.0
H73 H 0.71934 0.16964 0.64354 0.0
H74 H 0.7692 0.17714 0.456 0.0
H75 H 0.74211 0.2517 0.45174 0.0
O76 O 0.92447 0.26914 0.62158 0.0
H77 H 0.84934 0.20499 0.82888 0.0
H78 H 0.96747 0.3003 0.74544 0.0
H79 H 0.64403 0.13005 0.61058 0.0
H80 H 0.87771 0.30819 0.33396 0.0
H81 H 0.61739 0.1518 0.49657 0.0
H82 H 0.84662 0.24146 0.25988 0.0
O83 O 0.77805 0.24415 0.68575 0.0
H84 H 0.9689 0.41528 0.61805 0.0
H85 H 0.89494 0.31694 0.83372 0.0
H86 H 0.93377 0.39303 0.85918 0.0
H87 H 0.97122 0.44275 0.75094 0.0
H88 H 0.92938 0.33902 0.59496 0.0
H89 H 0.00312 0.28887 0.85698 0.0
H90 H 0.96121 0.23445 0.95593 0.0
O91 O 0.83284 0.25793 0.7647 0.0
C92 C 0.81278 0.17685 0.63901 0.0
C93 C 0.90236 0.21606 0.89861 0.0
C94 C 0.96939 0.27019 0.85123 0.0
N95 N 0.90636 0.25351 0.78104 0.0
C96 C 0.88304 0.22344 0.83496 0.0
C97 C 0.94902 0.2765 0.78814 0.0
C98 C 0.94583 0.23972 0.90677 0.0
C99 C 0.84014 0.2792 0.436 0.0
N100 N 0.81014 0.24281 0.46959 0.0
C101 C 0.85374 0.27931 0.36014 0.0
C102 C 0.83632 0.24185 0.31865 0.0
C103 C 0.80564 0.20487 0.35329 0.0
C104 C 0.79291 0.20593 0.42934 0.0
C105 C 0.6782 0.20333 0.46665 0.0
C106 C 0.70804 0.17906 0.59344 0.0
C107 C 0.7207 0.22501 0.4866 0.0
N108 N 0.73514 0.21257 0.54897 0.0
C109 C 0.66534 0.15662 0.57524 0.0
C110 C 0.65041 0.16887 0.51132 0.0
C111 C 0.79518 0.24983 0.75262 0.0
C112 C 0.95281 0.39392 0.66574 0.0
C113 C 0.91099 0.33839 0.78622 0.0
C114 C 0.93299 0.38143 0.80103 0.0
C115 C 0.95403 0.40932 0.74028 0.0
N116 N 0.91009 0.3235 0.71303 0.0
C117 C 0.93052 0.35066 0.6531 0.0
Co118 Co 0.58145 0.7497 0.65496 0.0
Co119 Co 0.56103 0.80221 0.79863 0.0
O120 O 0.57978 0.79783 0.69561 0.0
C121 C 0.55182 0.78507 0.52728 0.0
O122 O 0.58179 0.82317 0.5425 0.0
C123 C 0.64769 0.875 0.7908 0.0
O124 O 0.66168 0.84866 0.7842 0.0
O125 O 0.59625 0.78101 0.84705 0.0
O126 O 0.60747 0.74443 0.75418 0.0
H127 H 0.50865 0.75459 0.07083 0.0
H128 H 0.63869 0.84466 0.62371 0.0
O129 O 0.55203 0.75346 0.55793 0.0
H130 H 0.7272 0.78237 0.57894 0.0
H131 H 0.59086 0.66117 0.4419 0.0
H132 H 0.56546 0.66839 0.72175 0.0
H133 H 0.65576 0.73886 0.62579 0.0
H134 H 0.59328 0.7242 0.49661 0.0
O135 O 0.60881 0.86151 0.80221 0.0
H136 H 0.53046 0.74764 0.93866 0.0
H137 H 0.55519 0.87021 0.88043 0.0
H138 H 0.56345 0.60509 0.66973 0.0
H139 H 0.70929 0.88857 0.57592 0.0
H140 H 0.5763 0.60127 0.52891 0.0
H141 H 0.75465 0.85785 0.55165 0.0
O142 O 0.52436 0.71141 0.69552 0.0
H143 H 0.5293 0.88606 0.6058 0.0
H144 H 0.47214 0.7814 0.81778 0.0
H145 H 0.42602 0.80226 0.75039 0.0
H146 H 0.45449 0.85475 0.64319 0.0
H147 H 0.57429 0.8643 0.67466 0.0
H148 H 0.53393 0.87864 0.01215 0.0
H149 H 0.51031 0.82048 0.10827 0.0
O150 O 0.51257 0.7436 0.79449 0.0
C151 C 0.61117 0.75811 0.82398 0.0
C152 C 0.51875 0.7801 0.02939 0.0
C153 C 0.53299 0.84975 0.99649 0.0
N154 N 0.54373 0.80835 0.90181 0.0
C155 C 0.53101 0.7763 0.95443 0.0
C156 C 0.54507 0.84484 0.92207 0.0
C157 C 0.51973 0.8171 0.05038 0.0
C158 C 0.65569 0.82925 0.60766 0.0
N159 N 0.63907 0.78673 0.61609 0.0
C160 C 0.69695 0.85518 0.58295 0.0
C161 C 0.72251 0.83807 0.5701 0.0
C162 C 0.70701 0.7957 0.58482 0.0
C163 C 0.66559 0.77078 0.60954 0.0
C164 C 0.58537 0.66255 0.50342 0.0
C165 C 0.57159 0.66717 0.66059 0.0
C166 C 0.58643 0.69803 0.53463 0.0
N167 N 0.58028 0.70029 0.61259 0.0
C168 C 0.57015 0.63114 0.63136 0.0
C169 C 0.57726 0.62896 0.55229 0.0
C170 C 0.50149 0.7121 0.75015 0.0
C171 C 0.51654 0.86323 0.65255 0.0
C172 C 0.48485 0.80445 0.77155 0.0
C173 C 0.45857 0.81614 0.73358 0.0
C174 C 0.47456 0.84562 0.67348 0.0
N175 N 0.52596 0.8217 0.75042 0.0
C176 C 0.54192 0.85089 0.69198 0.0
Co177 Co 0.75501 0.54644 0.24642 0.0
Co178 Co 0.73713 0.61263 0.3617 0.0
O179 O 0.72428 0.57467 0.2735 0.0
C180 C 0.66889 0.4769 0.27283 0.0
O181 O 0.66653 0.49826 0.33158 0.0
C182 C 0.74592 0.66153 0.22035 0.0
O183 O 0.77073 0.6481 0.19558 0.0
O184 O 0.79881 0.64167 0.34141 0.0
O185 O 0.80949 0.59837 0.26562 0.0
H186 H 0.81241 0.69026 0.60452 0.0
H187 H 0.6904 0.54247 0.13786 0.0
O188 O 0.70116 0.49279 0.22918 0.0
H189 H 0.82243 0.61032 0.98919 0.0
H190 H 0.78291 0.44789 0.08964 0.0
H191 H 0.82829 0.54425 0.31373 0.0
H192 H 0.82109 0.58688 0.12475 0.0
H193 H 0.74559 0.48572 0.12288 0.0
O194 O 0.73108 0.65249 0.28927 0.0
H195 H 0.79745 0.64201 0.49414 0.0
H196 H 0.70189 0.66559 0.41337 0.0
H197 H 0.8667 0.50734 0.28221 0.0
H198 H 0.69024 0.56527 0.0023 0.0
H199 H 0.84404 0.45874 0.16944 0.0
H200 H 0.75664 0.59954 0.92715 0.0
O201 O 0.7543 0.52966 0.35587 0.0
H202 H 0.58472 0.5518 0.29242 0.0
H203 H 0.6855 0.57677 0.5045 0.0
H204 H 0.60982 0.54068 0.53342 0.0
H205 H 0.55889 0.52812 0.42698 0.0
H206 H 0.6606 0.58749 0.26593 0.0
H207 H 0.71565 0.7139 0.52282 0.0
H208 H 0.77129 0.72653 0.61943 0.0
O209 O 0.74323 0.57252 0.4336 0.0
C210 C 0.82285 0.632 0.30482 0.0
C211 C 0.78805 0.68498 0.5629 0.0
C212 C 0.73384 0.69836 0.51698 0.0
N213 N 0.74866 0.6508 0.44777 0.0
C214 C 0.7794 0.65764 0.50041 0.0
C215 C 0.72621 0.67099 0.45505 0.0
C216 C 0.765 0.70536 0.57119 0.0
C217 C 0.71931 0.557 0.10517 0.0
N218 N 0.75563 0.5631 0.13885 0.0
C219 C 0.71907 0.56998 0.02859 0.0
C220 C 0.75635 0.58927 0.9865 0.0
C221 C 0.79328 0.59535 0.0213 0.0
C222 C 0.79235 0.58206 0.09806 0.0
C223 C 0.79319 0.46911 0.13872 0.0
C224 C 0.81847 0.52345 0.26413 0.0
C225 C 0.77218 0.4906 0.15783 0.0
N226 N 0.7851 0.51758 0.21955 0.0
C227 C 0.84025 0.50251 0.24676 0.0
C228 C 0.82748 0.47521 0.18353 0.0
C229 C 0.74988 0.54203 0.4224 0.0
C230 C 0.60663 0.5572 0.33933 0.0
C231 C 0.66351 0.57123 0.45779 0.0
C232 C 0.62071 0.55086 0.47455 0.0
C233 C 0.59214 0.54385 0.41481 0.0
N234 N 0.6775 0.58447 0.3837 0.0
C235 C 0.64966 0.57754 0.32475 0.0
Co236 Co 0.25221 0.8351 0.31066 0.0
Co237 Co 0.20082 0.7615 0.45496 0.0
O238 O 0.20484 0.78465 0.35165 0.0
C239 C 0.21861 0.77008 0.18415 0.0
O240 O 0.18051 0.76325 0.19338 0.0
C241 C 0.12674 0.77331 0.44574 0.0
O242 O 0.15235 0.81381 0.43853 0.0
O243 O 0.22091 0.81777 0.50256 0.0
O244 O 0.25624 0.86615 0.40886 0.0
H245 H 0.24868 0.75728 0.72799 0.0
H246 H 0.157 0.79491 0.27928 0.0
O247 O 0.24978 0.80191 0.21535 0.0
H248 H 0.21556 0.94508 0.22804 0.0
H249 H 0.33962 0.93364 0.09599 0.0
H250 H 0.33236 0.90233 0.37724 0.0
H251 H 0.26063 0.91918 0.27698 0.0
H252 H 0.27744 0.87208 0.15146 0.0
O253 O 0.14108 0.7486 0.45787 0.0
H254 H 0.25517 0.78627 0.59542 0.0
H255 H 0.1338 0.68658 0.53701 0.0
H256 H 0.39477 0.96455 0.32445 0.0
H257 H 0.11153 0.81968 0.22989 0.0
H258 H 0.39861 0.98052 0.18293 0.0
H259 H 0.14035 0.89536 0.20221 0.0
O260 O 0.29162 0.81798 0.3531 0.0
H261 H 0.1202 0.64654 0.26116 0.0
H262 H 0.22337 0.69458 0.47583 0.0
H263 H 0.20481 0.62863 0.40801 0.0
H264 H 0.15313 0.60439 0.29937 0.0
H265 H 0.13972 0.71231 0.33035 0.0
H266 H 0.12585 0.65662 0.6691 0.0
H267 H 0.18364 0.69198 0.7655 0.0
O268 O 0.25983 0.77289 0.45151 0.0
C269 C 0.24286 0.85579 0.47887 0.0
C270 C 0.22334 0.74151 0.68642 0.0
C271 C 0.15437 0.68505 0.6534 0.0
N272 N 0.19503 0.73793 0.55849 0.0
C273 C 0.22688 0.75771 0.61126 0.0
C274 C 0.15901 0.70219 0.57879 0.0
C275 C 0.18682 0.7049 0.70746 0.0
C276 C 0.17161 0.82728 0.2622 0.0
N277 N 0.214 0.85408 0.26983 0.0
C278 C 0.14479 0.84145 0.23637 0.0
C279 C 0.16083 0.8839 0.22157 0.0
C280 C 0.20305 0.9117 0.23545 0.0
C281 C 0.2289 0.89635 0.26134 0.0
C282 C 0.33822 0.92705 0.15782 0.0
C283 C 0.33356 0.90938 0.31576 0.0
C284 C 0.30323 0.89212 0.18946 0.0
N285 N 0.30094 0.88407 0.26776 0.0
C286 C 0.3691 0.94451 0.28611 0.0
C287 C 0.37129 0.95341 0.20664 0.0
C288 C 0.29137 0.79432 0.40771 0.0
C289 C 0.14267 0.6567 0.30855 0.0
C290 C 0.2006 0.68409 0.42907 0.0
C291 C 0.19022 0.64671 0.39085 0.0
C292 C 0.16119 0.6331 0.32995 0.0
N293 N 0.18254 0.70726 0.40737 0.0
C294 C 0.15373 0.69386 0.34822 0.0
Co295 Co 0.45384 0.21088 0.90475 0.0
Co296 Co 0.38719 0.1248 0.01679 0.0
O297 O 0.42547 0.15146 0.92949 0.0
C298 C 0.52314 0.19376 0.92994 0.0
O299 O 0.5016 0.16968 0.98854 0.0
C300 C 0.33912 0.08575 0.87418 0.0
O301 O 0.3522 0.12416 0.84975 0.0
O302 O 0.35767 0.15714 0.99691 0.0
O303 O 0.40187 0.21316 0.92517 0.0
H304 H 0.30751 0.11778 0.25872 0.0
H305 H 0.45801 0.15212 0.79322 0.0
O306 O 0.50752 0.21082 0.88665 0.0
H307 H 0.3902 0.21868 0.64911 0.0
H308 H 0.55264 0.33984 0.75195 0.0
H309 H 0.45601 0.2853 0.97536 0.0
H310 H 0.41351 0.23852 0.7852 0.0
H311 H 0.51477 0.26416 0.7826 0.0
O312 O 0.34808 0.0795 0.94314 0.0
H313 H 0.35608 0.15313 0.14939 0.0
H314 H 0.33531 0.03577 0.06638 0.0
H315 H 0.49296 0.36114 0.94646 0.0
H316 H 0.43534 0.13143 0.65708 0.0
H317 H 0.54169 0.38886 0.83403 0.0
H318 H 0.40109 0.16476 0.58422 0.0
O319 O 0.4704 0.22517 0.01461 0.0
H320 H 0.45069 0.0362 0.94586 0.0
H321 H 0.42311 0.10806 0.15941 0.0
H322 H 0.46068 0.06968 0.18745 0.0
H323 H 0.47457 0.03329 0.08028 0.0
H324 H 0.41365 0.07531 0.92019 0.0
H325 H 0.2868 0.9992 0.17486 0.0
H326 H 0.27256 0.04025 0.27204 0.0
O327 O 0.42642 0.17028 0.0902 0.0
C328 C 0.36779 0.19186 0.96281 0.0
C329 C 0.31348 0.09955 0.21683 0.0
C330 C 0.30174 0.03297 0.16969 0.0
N331 N 0.34869 0.09656 0.10194 0.0
C332 C 0.34099 0.1194 0.15491 0.0
C333 C 0.32922 0.05386 0.10833 0.0
C334 C 0.29385 0.05604 0.22423 0.0
C335 C 0.44349 0.16702 0.76153 0.0
N336 N 0.43733 0.19666 0.79678 0.0
C337 C 0.43058 0.15508 0.68462 0.0
C338 C 0.4113 0.17375 0.64381 0.0
C339 C 0.40516 0.20399 0.68021 0.0
C340 C 0.41837 0.21506 0.75726 0.0
C341 C 0.53136 0.32812 0.8009 0.0
C342 C 0.47688 0.29708 0.92592 0.0
C343 C 0.50986 0.28532 0.81855 0.0
N344 N 0.4828 0.27029 0.88007 0.0
C345 C 0.49784 0.34008 0.91002 0.0
C346 C 0.52521 0.35561 0.84699 0.0
C347 C 0.45722 0.20748 0.0805 0.0
C348 C 0.44472 0.05184 0.99309 0.0
C349 C 0.42922 0.09249 0.11237 0.0
C350 C 0.45044 0.07074 0.12863 0.0
C351 C 0.45819 0.05029 0.06848 0.0
N352 N 0.41597 0.09375 0.03832 0.0
C353 C 0.42358 0.07388 0.97898 0.0
H354 H 0.18856 0.26756 0.11211 0.0
H355 H 0.38258 0.2685 0.91101 0.0
H356 H 0.31054 0.37833 0.08894 0.0
H357 H 0.2933 0.16059 0.0436 0.0
H358 H 0.3468 0.30576 0.9506 0.0
H359 H 0.2185 0.22487 0.06663 0.0
C360 C 0.22161 0.28286 0.09808 0.0
C361 C 0.24712 0.32659 0.10469 0.0
C362 C 0.33487 0.2738 0.97049 0.0
C363 C 0.28094 0.27823 0.05074 0.0
C364 C 0.3551 0.25227 0.94754 0.0
C365 C 0.34137 0.21135 0.97477 0.0
C366 C 0.30016 0.25426 0.02014 0.0
C367 C 0.30521 0.19214 0.02151 0.0
C368 C 0.23855 0.2585 0.07204 0.0
C369 C 0.28968 0.34477 0.08523 0.0
N370 N 0.28588 0.21385 0.04304 0.0
N371 N 0.3051 0.32057 0.05845 0.0
H372 H 0.91275 0.22547 0.40461 0.0
H373 H 0.06216 0.34307 0.12816 0.0
H374 H 0.001 0.31313 0.57114 0.0
H375 H 0.15243 0.37897 0.31563 0.0
H376 H 0.00592 0.30698 0.22203 0.0
H377 H 0.96704 0.25387 0.30569 0.0
C378 C 0.94363 0.25071 0.42053 0.0
C379 C 0.95217 0.26714 0.49636 0.0
C380 C 0.03799 0.32187 0.24267 0.0
C381 C 0.01445 0.30102 0.38186 0.0
C382 C 0.07024 0.34297 0.18896 0.0
C383 C 0.11226 0.36398 0.21371 0.0
C384 C 0.04764 0.32161 0.32204 0.0
C385 C 0.12058 0.36298 0.2936 0.0
C386 C 0.97457 0.26735 0.36345 0.0
C387 C 0.99295 0.2996 0.5134 0.0
N388 N 0.08856 0.3424 0.34491 0.0
N389 N 0.02257 0.31557 0.45647 0.0
H390 H 0.73905 0.11497 0.57801 0.0
H391 H 0.73389 0.91917 0.78305 0.0
H392 H 0.84207 0.13359 0.72693 0.0
H393 H 0.62476 0.93287 0.75423 0.0
H394 H 0.77821 0.99253 0.74064 0.0
H395 H 0.70146 0.04136 0.61519 0.0
C396 C 0.75417 0.10362 0.61769 0.0
C397 C 0.79369 0.13091 0.65027 0.0
C398 C 0.74456 0.97927 0.74417 0.0
C399 C 0.75045 0.04619 0.69267 0.0
C400 C 0.7193 0.9376 0.76839 0.0
C401 C 0.67556 0.91991 0.77243 0.0
C402 C 0.7257 0.00274 0.722 0.0
C403 C 0.65828 0.94512 0.75239 0.0
C404 C 0.73246 0.06154 0.63915 0.0
C405 C 0.81158 0.11383 0.70078 0.0
N406 N 0.68334 0.98505 0.72728 0.0
N407 N 0.7897 0.07245 0.72082 0.0
H408 H 0.69556 0.69523 0.24917 0.0
H409 H 0.65884 0.72116 0.79764 0.0
H410 H 0.76017 0.67234 0.06359 0.0
H411 H 0.61572 0.76935 0.98236 0.0
H412 H 0.6948 0.70147 0.89466 0.0
H413 H 0.66507 0.72167 0.15276 0.0
C414 C 0.70368 0.69616 0.18833 0.0
C415 C 0.73047 0.68155 0.1645 0.0
C416 C 0.67764 0.71656 0.91388 0.0
C417 C 0.69526 0.71119 0.05383 0.0
C418 C 0.65696 0.72769 0.8585 0.0
C419 C 0.6341 0.74691 0.88172 0.0
C420 C 0.67517 0.72429 0.99322 0.0
C421 C 0.63298 0.75468 0.96156 0.0
C422 C 0.68623 0.7112 0.13331 0.0
C423 C 0.73977 0.68336 0.08479 0.0
N424 N 0.653 0.74313 0.01439 0.0
N425 N 0.72194 0.69756 0.03234 0.0
H426 H 0.88377 0.61809 0.24682 0.0
H427 H 0.08102 0.81374 0.43721 0.0
H428 H 0.86735 0.70639 0.38561 0.0
H429 H 0.06996 0.692 0.41125 0.0
H430 H 0.00717 0.78313 0.39701 0.0
H431 H 0.95784 0.65489 0.28064 0.0
C432 C 0.89569 0.64555 0.28358 0.0
C433 C 0.86891 0.65874 0.31424 0.0
C434 C 0.02111 0.76331 0.40063 0.0
C435 C 0.95417 0.7011 0.3529 0.0
C436 C 0.06307 0.78063 0.42359 0.0
C437 C 0.08164 0.75534 0.42795 0.0
C438 C 0.99812 0.72079 0.3801 0.0
C439 C 0.05701 0.71269 0.40923 0.0
C440 C 0.93805 0.66637 0.30317 0.0
C441 C 0.88669 0.6949 0.36103 0.0
N442 N 0.01671 0.6969 0.38545 0.0
N443 N 0.9283 0.71481 0.37927 0.0
H444 H 0.30533 0.00149 0.90307 0.0
H445 H 0.27868 0.94049 0.45171 0.0
H446 H 0.32871 0.09001 0.71706 0.0
H447 H 0.23175 0.84861 0.63739 0.0
H448 H 0.29828 0.99583 0.54824 0.0
H449 H 0.27879 0.94499 0.80693 0.0
C450 C 0.30451 0.009 0.84217 0.0
C451 C 0.31926 0.05058 0.81819 0.0
C452 C 0.28348 0.96353 0.56778 0.0
C453 C 0.28944 0.98614 0.70773 0.0
C454 C 0.27236 0.93187 0.51266 0.0
C455 C 0.25357 0.88971 0.53627 0.0
C456 C 0.27616 0.95311 0.64729 0.0
C457 C 0.24609 0.88059 0.61624 0.0
C458 C 0.28939 0.97673 0.78728 0.0
C459 C 0.31756 0.05844 0.73838 0.0
N460 N 0.25763 0.91201 0.6688 0.0
N461 N 0.30326 0.02661 0.68605 0.0
H462 H 0.2811 0.75273 0.21961 0.0
H463 H 0.16311 0.52812 0.01286 0.0
H464 H 0.16607 0.70623 0.08833 0.0
H465 H 0.26162 0.56233 0.18356 0.0
H466 H 0.16932 0.59666 0.02827 0.0
H467 H 0.28073 0.68724 0.19307 0.0
C468 C 0.25637 0.72924 0.18345 0.0
C469 C 0.22367 0.73506 0.15562 0.0
C470 C 0.18962 0.58924 0.06238 0.0
C471 C 0.22272 0.65985 0.12633 0.0
C472 C 0.18611 0.55 0.05367 0.0
C473 C 0.21186 0.53922 0.09707 0.0
C474 C 0.21926 0.6183 0.11455 0.0
C475 C 0.24102 0.56911 0.14902 0.0
C476 C 0.25591 0.69165 0.16922 0.0
C477 C 0.19196 0.70313 0.11065 0.0
N478 N 0.24397 0.60732 0.15622 0.0
N479 N 0.19221 0.66691 0.09763 0.0
H480 H 0.58428 0.26111 0.85206 0.0
H481 H 0.74646 0.18277 0.84434 0.0
H482 H 0.5624 0.1517 0.98363 0.0
H483 H 0.78014 0.31087 0.79794 0.0
H484 H 0.68148 0.17112 0.90583 0.0
H485 H 0.65718 0.27967 0.83516 0.0
C486 C 0.59481 0.24087 0.87719 0.0
C487 C 0.56713 0.20454 0.91855 0.0
C488 C 0.70381 0.20221 0.88487 0.0
C489 C 0.65084 0.22578 0.89977 0.0
C490 C 0.74113 0.20899 0.85097 0.0
C491 C 0.76872 0.24797 0.8174 0.0
C492 C 0.6939 0.23445 0.88302 0.0
C493 C 0.75983 0.28058 0.82443 0.0
C494 C 0.63661 0.25176 0.86833 0.0
C495 C 0.58271 0.17987 0.95091 0.0
N496 N 0.72274 0.27287 0.85502 0.0
N497 N 0.62348 0.19063 0.93995 0.0
H498 H 0.43808 0.70207 0.84785 0.0
H499 H 0.29496 0.45784 0.76411 0.0
H500 H 0.46924 0.63583 0.67821 0.0
H501 H 0.24983 0.52943 0.88656 0.0
H502 H 0.35877 0.52297 0.73097 0.0
H503 H 0.36935 0.63922 0.86452 0.0
C504 C 0.43055 0.67442 0.81402 0.0
C505 C 0.45969 0.67435 0.76165 0.0
C506 C 0.33465 0.52456 0.76399 0.0
C507 C 0.38096 0.6023 0.7805 0.0
C508 C 0.2981 0.48737 0.78256 0.0
C509 C 0.26695 0.4882 0.82779 0.0
C510 C 0.34048 0.56289 0.79196 0.0
C511 C 0.27283 0.52735 0.85077 0.0
C512 C 0.39118 0.63861 0.82331 0.0
C513 C 0.44796 0.6375 0.71934 0.0
N514 N 0.30919 0.56313 0.83352 0.0
N515 N 0.40968 0.60299 0.73004 0.0
H516 H 0.81703 0.56148 0.51499 0.0
H517 H 0.74171 0.32198 0.52613 0.0
H518 H 0.68937 0.46591 0.46969 0.0
H519 H 0.85107 0.41019 0.6561 0.0
H520 H 0.72179 0.37544 0.51004 0.0
H521 H 0.82939 0.50877 0.57883 0.0
C522 C 0.79106 0.52981 0.52235 0.0
C523 C 0.75205 0.51784 0.48819 0.0
C524 C 0.74997 0.38312 0.54272 0.0
C525 C 0.76634 0.45733 0.55665 0.0
C526 C 0.76165 0.35272 0.55106 0.0
C527 C 0.7984 0.36188 0.5916 0.0
C528 C 0.77561 0.42332 0.5738 0.0
C529 C 0.82263 0.40202 0.6239 0.0
C530 C 0.79823 0.49963 0.55764 0.0
C531 C 0.71971 0.47626 0.4964 0.0
N532 N 0.81113 0.43156 0.61335 0.0
N533 N 0.7278 0.44725 0.52835 0.0
H534 H 0.3681 0.8414 0.33886 0.0
H535 H 0.47164 0.7197 0.54653 0.0
H536 H 0.30186 0.73947 0.50201 0.0
H537 H 0.54293 0.83987 0.43255 0.0
H538 H 0.40695 0.71944 0.51173 0.0
H539 H 0.43037 0.83496 0.35651 0.0
C540 C 0.36654 0.81761 0.37839 0.0
C541 C 0.32956 0.79103 0.41925 0.0
C542 C 0.43674 0.74555 0.4934 0.0
C543 C 0.40096 0.78332 0.43909 0.0
C544 C 0.47367 0.74548 0.51233 0.0
C545 C 0.51276 0.77986 0.4922 0.0
C546 C 0.43896 0.78004 0.45352 0.0
C547 C 0.51347 0.81275 0.44921 0.0
C548 C 0.40218 0.81396 0.38834 0.0
C549 C 0.32963 0.76078 0.46953 0.0
N550 N 0.47716 0.81213 0.43166 0.0
N551 N 0.36477 0.75773 0.47799 0.0
H552 H 0.43703 0.2544 0.17214 0.0
H553 H 0.67672 0.41611 0.19903 0.0
H554 H 0.53239 0.22174 0.1317 0.0
H555 H 0.58709 0.43697 0.32258 0.0
H556 H 0.62305 0.34319 0.17998 0.0
H557 H 0.489 0.3181 0.23978 0.0
C558 C 0.46843 0.25963 0.1813 0.0
C559 C 0.48061 0.23286 0.1475 0.0
C560 C 0.61507 0.3635 0.21192 0.0
C561 C 0.54035 0.30615 0.22045 0.0
C562 C 0.64561 0.40532 0.22198 0.0
C563 C 0.63613 0.43274 0.26146 0.0
C564 C 0.57437 0.34898 0.24013 0.0
C565 C 0.59552 0.41683 0.29125 0.0
C566 C 0.49821 0.29621 0.21881 0.0
C567 C 0.52187 0.24152 0.15808 0.0
N568 N 0.56583 0.37604 0.27893 0.0
N569 N 0.55053 0.2779 0.19225 0.0
loop_
_geom_bond_atom_site_label_1
_geom_bond_atom_site_label_2
_geom_bond_distance
_geom_bond_site_symmetry_2
_ccdc_geom_bond_type
Co0 O2 2.143 . S
Co0 O8 2.074 1_556 S
Co0 O11 2.093 . S
Co0 O24 2.097 1_556 S
Co0 N41 2.151 . S
Co0 N49 2.214 . S
Co1 O2 2.160 1_554 S
Co1 O7 2.058 . S
Co1 O17 2.057 . S
Co1 O32 2.037 . S
Co1 N36 2.145 . S
Co1 N57 2.257 . S
O2 Co0 2.143 . S
O2 Co1 2.160 1_556 S
C3 O4 1.278 . S
C3 O11 1.224 . S
O4 C3 1.278 . S
C5 O6 1.245 1_554 S
C5 O17 1.232 . S
O6 C5 1.245 1_556 S
O7 Co1 2.058 . S
O7 C33 1.269 . S
O8 Co0 2.074 1_554 S
O8 C33 1.257 . S
H9 C34 0.930 . S
H10 C40 0.930 . S
O11 Co0 2.093 . S
O11 C3 1.224 . S
H12 C44 0.929 . S
H13 C46 0.930 . S
H14 C47 0.930 . S
H15 C45 0.929 . S
H16 C48 0.928 . S
O17 Co1 2.057 . S
O17 C5 1.232 . S
H18 C37 0.929 . S
H19 C38 0.929 . S
H20 C50 0.931 . S
H21 C42 0.929 . S
H22 C51 0.930 . S
H23 C43 0.931 . S
O24 Co0 2.097 1_554 S
O24 C52 1.214 . S
H25 C53 0.929 . S
H26 C54 0.929 . S
H27 C55 0.930 . S
H28 C56 0.929 . S
H29 C58 0.930 . S
H30 C35 0.930 . S
H31 C39 0.930 . S
O32 Co1 2.037 . S
O32 C52 1.234 . S
C33 O7 1.269 . S
C33 O8 1.257 . S
C34 H9 0.930 . S
C34 C37 1.388 . S
C34 C39 1.418 . S
C35 H30 0.930 . S
C35 C38 1.404 . S
C35 C39 1.353 . S
N36 Co1 2.145 . S
N36 C37 1.397 . S
N36 C38 1.334 . S
C37 H18 0.929 . S
C37 C34 1.388 . S
C37 N36 1.397 . S
C38 H19 0.929 . S
C38 C35 1.404 . S
C38 N36 1.334 . S
C39 H31 0.930 . S
C39 C34 1.418 . S
C39 C35 1.353 . S
C40 H10 0.930 . S
C40 N41 1.330 . S
C40 C42 1.446 . S
N41 Co0 2.151 . S
N41 C40 1.330 . S
N41 C45 1.418 . S
C42 H21 0.929 . S
C42 C40 1.446 . S
C42 C43 1.332 . S
C43 H23 0.931 . S
C43 C42 1.332 . S
C43 C44 1.267 . S
C44 H12 0.929 . S
C44 C43 1.267 . S
C44 C45 1.251 . S
C45 H15 0.929 . S
C45 N41 1.418 . S
C45 C44 1.251 . S
C46 H13 0.930 . S
C46 C48 1.406 . S
C46 C51 1.261 . S
C47 H14 0.930 . S
C47 N49 1.325 . S
C47 C50 1.357 . S
C48 H16 0.928 . S
C48 C46 1.406 . S
C48 N49 1.261 . S
N49 Co0 2.214 . S
N49 C47 1.325 . S
N49 C48 1.261 . S
C50 H20 0.931 . S
C50 C47 1.357 . S
C50 C51 1.312 . S
C51 H22 0.930 . S
C51 C46 1.261 . S
C51 C50 1.312 . S
C52 O24 1.214 . S
C52 O32 1.234 . S
C53 H25 0.929 . S
C53 C56 1.391 . S
C53 C58 1.391 . S
C54 H26 0.929 . S
C54 C55 1.390 . S
C54 N57 1.391 . S
C55 H27 0.930 . S
C55 C54 1.390 . S
C55 C56 1.392 . S
C56 H28 0.929 . S
C56 C53 1.391 . S
C56 C55 1.392 . S
N57 Co1 2.257 . S
N57 C54 1.391 . S
N57 C58 1.388 . S
C58 H29 0.930 . S
C58 C53 1.391 . S
C58 N57 1.388 . S
Co59 O61 2.143 . S
Co59 O67 2.074 . S
Co59 O70 2.093 . S
Co59 O83 2.097 . S
Co59 N100 2.151 . S
Co59 N108 2.214 . S
Co60 O61 2.160 . S
Co60 O66 2.058 . S
Co60 O76 2.057 . S
Co60 O91 2.037 . S
Co60 N95 2.145 . S
Co60 N116 2.257 . S
O61 Co59 2.143 . S
O61 Co60 2.160 . S
C62 O63 1.278 . S
C62 O70 1.224 . S
O63 C62 1.278 . S
C64 O65 1.245 . S
C64 O76 1.232 . S
O65 C64 1.245 . S
O66 Co60 2.058 . S
O66 C92 1.269 . S
O67 Co59 2.074 . S
O67 C92 1.257 . S
H68 C93 0.930 1_554 S
H69 C99 0.930 . S
O70 Co59 2.093 . S
O70 C62 1.224 . S
H71 C103 0.929 . S
H72 C105 0.930 . S
H73 C106 0.930 . S
H74 C104 0.929 . S
H75 C107 0.928 . S
O76 Co60 2.057 . S
O76 C64 1.232 . S
H77 C96 0.929 . S
H78 C97 0.929 . S
H79 C109 0.931 . S
H80 C101 0.929 . S
H81 C110 0.930 . S
H82 C102 0.931 . S
O83 Co59 2.097 . S
O83 C111 1.214 . S
H84 C112 0.929 . S
H85 C113 0.929 . S
H86 C114 0.930 . S
H87 C115 0.929 . S
H88 C117 0.930 . S
H89 C94 0.930 1_455 S
H90 C98 0.930 1_554 S
O91 Co60 2.037 . S
O91 C111 1.234 . S
C92 O66 1.269 . S
C92 O67 1.257 . S
C93 H68 0.930 1_556 S
C93 C96 1.388 . S
C93 C98 1.418 . S
C94 H89 0.930 1_655 S
C94 C97 1.404 . S
C94 C98 1.353 . S
N95 Co60 2.145 . S
N95 C96 1.397 . S
N95 C97 1.334 . S
C96 H77 0.929 . S
C96 C93 1.388 . S
C96 N95 1.397 . S
C97 H78 0.929 . S
C97 C94 1.404 . S
C97 N95 1.334 . S
C98 H90 0.930 1_556 S
C98 C93 1.418 . S
C98 C94 1.353 . S
C99 H69 0.930 . S
C99 N100 1.330 . S
C99 C101 1.446 . S
N100 Co59 2.151 . S
N100 C99 1.330 . S
N100 C104 1.418 . S
C101 H80 0.929 . S
C101 C99 1.446 . S
C101 C102 1.332 . S
C102 H82 0.931 . S
C102 C101 1.332 . S
C102 C103 1.267 . S
C103 H71 0.929 . S
C103 C102 1.267 . S
C103 C104 1.251 . S
C104 H74 0.929 . S
C104 N100 1.418 . S
C104 C103 1.251 . S
C105 H72 0.930 . S
C105 C107 1.406 . S
C105 C110 1.261 . S
C106 H73 0.930 . S
C106 N108 1.325 . S
C106 C109 1.357 . S
C107 H75 0.928 . S
C107 C105 1.406 . S
C107 N108 1.261 . S
N108 Co59 2.214 . S
N108 C106 1.325 . S
N108 C107 1.261 . S
C109 H79 0.931 . S
C109 C106 1.357 . S
C109 C110 1.312 . S
C110 H81 0.930 . S
C110 C105 1.261 . S
C110 C109 1.312 . S
C111 O83 1.214 . S
C111 O91 1.234 . S
C112 H84 0.929 . S
C112 C115 1.391 . S
C112 C117 1.391 . S
C113 H85 0.929 . S
C113 C114 1.390 . S
C113 N116 1.391 . S
C114 H86 0.930 . S
C114 C113 1.390 . S
C114 C115 1.392 . S
C115 H87 0.929 . S
C115 C112 1.391 . S
C115 C114 1.392 . S
N116 Co60 2.257 . S
N116 C113 1.391 . S
N116 C117 1.388 . S
C117 H88 0.930 . S
C117 C112 1.391 . S
C117 N116 1.388 . S
Co118 O120 2.143 . S
Co118 O126 2.074 . S
Co118 O129 2.093 . S
Co118 O142 2.097 . S
Co118 N159 2.151 . S
Co118 N167 2.214 . S
Co119 O120 2.160 . S
Co119 O125 2.058 . S
Co119 O135 2.057 . S
Co119 O150 2.037 . S
Co119 N154 2.145 . S
Co119 N175 2.257 . S
O120 Co118 2.143 . S
O120 Co119 2.160 . S
C121 O122 1.278 . S
C121 O129 1.224 . S
O122 C121 1.278 . S
C123 O124 1.245 . S
C123 O135 1.232 . S
O124 C123 1.245 . S
O125 Co119 2.058 . S
O125 C151 1.269 . S
O126 Co118 2.074 . S
O126 C151 1.257 . S
H127 C152 0.930 1_554 S
H128 C158 0.930 . S
O129 Co118 2.093 . S
O129 C121 1.224 . S
H130 C162 0.929 . S
H131 C164 0.930 . S
H132 C165 0.930 . S
H133 C163 0.929 . S
H134 C166 0.928 . S
O135 Co119 2.057 . S
O135 C123 1.232 . S
H136 C155 0.929 . S
H137 C156 0.929 . S
H138 C168 0.931 . S
H139 C160 0.929 . S
H140 C169 0.930 . S
H141 C161 0.931 . S
O142 Co118 2.097 . S
O142 C170 1.214 . S
H143 C171 0.929 . S
H144 C172 0.929 . S
H145 C173 0.930 . S
H146 C174 0.929 . S
H147 C176 0.930 . S
H148 C153 0.930 . S
H149 C157 0.930 . S
O150 Co119 2.037 . S
O150 C170 1.234 . S
C151 O125 1.269 . S
C151 O126 1.257 . S
C152 H127 0.930 1_556 S
C152 C155 1.388 . S
C152 C157 1.418 1_556 S
C153 H148 0.930 . S
C153 C156 1.404 . S
C153 C157 1.353 1_556 S
N154 Co119 2.145 . S
N154 C155 1.397 . S
N154 C156 1.334 . S
C155 H136 0.929 . S
C155 C152 1.388 . S
C155 N154 1.397 . S
C156 H137 0.929 . S
C156 C153 1.404 . S
C156 N154 1.334 . S
C157 H149 0.930 . S
C157 C152 1.418 1_554 S
C157 C153 1.353 1_554 S
C158 H128 0.930 . S
C158 N159 1.330 . S
C158 C160 1.446 . S
N159 Co118 2.151 . S
N159 C158 1.330 . S
N159 C163 1.418 . S
C160 H139 0.929 . S
C160 C158 1.446 . S
C160 C161 1.332 . S
C161 H141 0.931 . S
C161 C160 1.332 . S
C161 C162 1.267 . S
C162 H130 0.929 . S
C162 C161 1.267 . S
C162 C163 1.251 . S
C163 H133 0.929 . S
C163 N159 1.418 . S
C163 C162 1.251 . S
C164 H131 0.930 . S
C164 C166 1.406 . S
C164 C169 1.261 . S
C165 H132 0.930 . S
C165 N167 1.325 . S
C165 C168 1.357 . S
C166 H134 0.928 . S
C166 C164 1.406 . S
C166 N167 1.261 . S
N167 Co118 2.214 . S
N167 C165 1.325 . S
N167 C166 1.261 . S
C168 H138 0.931 . S
C168 C165 1.357 . S
C168 C169 1.312 . S
C169 H140 0.930 . S
C169 C164 1.261 . S
C169 C168 1.312 . S
C170 O142 1.214 . S
C170 O150 1.234 . S
C171 H143 0.929 . S
C171 C174 1.391 . S
C171 C176 1.391 . S
C172 H144 0.929 . S
C172 C173 1.390 . S
C172 N175 1.391 . S
C173 H145 0.930 . S
C173 C172 1.390 . S
C173 C174 1.392 . S
C174 H146 0.929 . S
C174 C171 1.391 . S
C174 C173 1.392 . S
N175 Co119 2.257 . S
N175 C172 1.391 . S
N175 C176 1.388 . S
C176 H147 0.930 . S
C176 C171 1.391 . S
C176 N175 1.388 . S
Co177 O179 2.143 . S
Co177 O185 2.074 . S
Co177 O188 2.093 . S
Co177 O201 2.097 . S
Co177 N218 2.151 . S
Co177 N226 2.214 . S
Co178 O179 2.160 . S
Co178 O184 2.058 . S
Co178 O194 2.057 . S
Co178 O209 2.037 . S
Co178 N213 2.145 . S
Co178 N234 2.257 . S
O179 Co177 2.143 . S
O179 Co178 2.160 . S
C180 O181 1.278 . S
C180 O188 1.224 . S
O181 C180 1.278 . S
C182 O183 1.245 . S
C182 O194 1.232 . S
O183 C182 1.245 . S
O184 Co178 2.058 . S
O184 C210 1.269 . S
O185 Co177 2.074 . S
O185 C210 1.257 . S
H186 C211 0.930 . S
H187 C217 0.930 . S
O188 Co177 2.093 . S
O188 C180 1.224 . S
H189 C221 0.929 . S
H190 C223 0.930 . S
H191 C224 0.930 . S
H192 C222 0.929 . S
H193 C225 0.928 . S
O194 Co178 2.057 . S
O194 C182 1.232 . S
H195 C214 0.929 . S
H196 C215 0.929 . S
H197 C227 0.931 . S
H198 C219 0.929 . S
H199 C228 0.930 . S
H200 C220 0.931 1_556 S
O201 Co177 2.097 . S
O201 C229 1.214 . S
H202 C230 0.929 . S
H203 C231 0.929 . S
H204 C232 0.930 . S
H205 C233 0.929 . S
H206 C235 0.930 . S
H207 C212 0.930 . S
H208 C216 0.930 . S
O209 Co178 2.037 . S
O209 C229 1.234 . S
C210 O184 1.269 . S
C210 O185 1.257 . S
C211 H186 0.930 . S
C211 C214 1.388 . S
C211 C216 1.418 . S
C212 H207 0.930 . S
C212 C215 1.404 . S
C212 C216 1.353 . S
N213 Co178 2.145 . S
N213 C214 1.397 . S
N213 C215 1.334 . S
C214 H195 0.929 . S
C214 C211 1.388 . S
C214 N213 1.397 . S
C215 H196 0.929 . S
C215 C212 1.404 . S
C215 N213 1.334 . S
C216 H208 0.930 . S
C216 C211 1.418 . S
C216 C212 1.353 . S
C217 H187 0.930 . S
C217 N218 1.330 . S
C217 C219 1.446 . S
N218 Co177 2.151 . S
N218 C217 1.330 . S
N218 C222 1.418 . S
C219 H198 0.929 . S
C219 C217 1.446 . S
C219 C220 1.332 . S
C220 H200 0.931 1_554 S
C220 C219 1.332 . S
C220 C221 1.267 . S
C221 H189 0.929 . S
C221 C220 1.267 . S
C221 C222 1.251 . S
C222 H192 0.929 . S
C222 N218 1.418 . S
C222 C221 1.251 . S
C223 H190 0.930 . S
C223 C225 1.406 . S
C223 C228 1.261 . S
C224 H191 0.930 . S
C224 N226 1.325 . S
C224 C227 1.357 . S
C225 H193 0.928 . S
C225 C223 1.406 . S
C225 N226 1.261 . S
N226 Co177 2.214 . S
N226 C224 1.325 . S
N226 C225 1.261 . S
C227 H197 0.931 . S
C227 C224 1.357 . S
C227 C228 1.312 . S
C228 H199 0.930 . S
C228 C223 1.261 . S
C228 C227 1.312 . S
C229 O201 1.214 . S
C229 O209 1.234 . S
C230 H202 0.929 . S
C230 C233 1.391 . S
C230 C235 1.391 . S
C231 H203 0.929 . S
C231 C232 1.390 . S
C231 N234 1.391 . S
C232 H204 0.930 . S
C232 C231 1.390 . S
C232 C233 1.392 . S
C233 H205 0.929 . S
C233 C230 1.391 . S
C233 C232 1.392 . S
N234 Co178 2.257 . S
N234 C231 1.391 . S
N234 C235 1.388 . S
C235 H206 0.930 . S
C235 C230 1.391 . S
C235 N234 1.388 . S
Co236 O238 2.143 . S
Co236 O244 2.074 . S
Co236 O247 2.093 . S
Co236 O260 2.097 . S
Co236 N277 2.151 . S
Co236 N285 2.214 . S
Co237 O238 2.160 . S
Co237 O243 2.058 . S
Co237 O253 2.057 . S
Co237 O268 2.037 . S
Co237 N272 2.145 . S
Co237 N293 2.257 . S
O238 Co236 2.143 . S
O238 Co237 2.160 . S
C239 O240 1.278 . S
C239 O247 1.224 . S
O240 C239 1.278 . S
C241 O242 1.245 . S
C241 O253 1.232 . S
O242 C241 1.245 . S
O243 Co237 2.058 . S
O243 C269 1.269 . S
O244 Co236 2.074 . S
O244 C269 1.257 . S
H245 C270 0.930 . S
H246 C276 0.930 . S
O247 Co236 2.093 . S
O247 C239 1.224 . S
H248 C280 0.929 . S
H249 C282 0.930 . S
H250 C283 0.930 . S
H251 C281 0.929 . S
H252 C284 0.928 . S
O253 Co237 2.057 . S
O253 C241 1.232 . S
H254 C273 0.929 . S
H255 C274 0.929 . S
H256 C286 0.931 . S
H257 C278 0.929 1_556 S
H258 C287 0.930 . S
H259 C279 0.931 1_556 S
O260 Co236 2.097 . S
O260 C288 1.214 . S
H261 C289 0.929 . S
H262 C290 0.929 . S
H263 C291 0.930 . S
H264 C292 0.929 . S
H265 C294 0.930 . S
H266 C271 0.930 . S
H267 C275 0.930 . S
O268 Co237 2.037 . S
O268 C288 1.234 . S
C269 O243 1.269 . S
C269 O244 1.257 . S
C270 H245 0.930 . S
C270 C273 1.388 . S
C270 C275 1.418 . S
C271 H266 0.930 . S
C271 C274 1.404 . S
C271 C275 1.353 . S
N272 Co237 2.145 . S
N272 C273 1.397 . S
N272 C274 1.334 . S
C273 H254 0.929 . S
C273 C270 1.388 . S
C273 N272 1.397 . S
C274 H255 0.929 . S
C274 C271 1.404 . S
C274 N272 1.334 . S
C275 H267 0.930 . S
C275 C270 1.418 . S
C275 C271 1.353 . S
C276 H246 0.930 . S
C276 N277 1.330 . S
C276 C278 1.446 . S
N277 Co236 2.151 . S
N277 C276 1.330 . S
N277 C281 1.418 . S
C278 H257 0.929 1_554 S
C278 C276 1.446 . S
C278 C279 1.332 . S
C279 H259 0.931 1_554 S
C279 C278 1.332 . S
C279 C280 1.267 . S
C280 H248 0.929 . S
C280 C279 1.267 . S
C280 C281 1.251 . S
C281 H251 0.929 . S
C281 N277 1.418 . S
C281 C280 1.251 . S
C282 H249 0.930 . S
C282 C284 1.406 . S
C282 C287 1.261 . S
C283 H250 0.930 . S
C283 N285 1.325 . S
C283 C286 1.357 . S
C284 H252 0.928 . S
C284 C282 1.406 . S
C284 N285 1.261 . S
N285 Co236 2.214 . S
N285 C283 1.325 . S
N285 C284 1.261 . S
C286 H256 0.931 . S
C286 C283 1.357 . S
C286 C287 1.312 . S
C287 H258 0.930 . S
C287 C282 1.261 . S
C287 C286 1.312 . S
C288 O260 1.214 . S
C288 O268 1.234 . S
C289 H261 0.929 . S
C289 C292 1.391 . S
C289 C294 1.391 . S
C290 H262 0.929 . S
C290 C291 1.390 . S
C290 N293 1.391 . S
C291 H263 0.930 . S
C291 C290 1.390 . S
C291 C292 1.392 . S
C292 H264 0.929 . S
C292 C289 1.391 . S
C292 C291 1.392 . S
N293 Co237 2.257 . S
N293 C290 1.391 . S
N293 C294 1.388 . S
C294 H265 0.930 . S
C294 C289 1.391 . S
C294 N293 1.388 . S
Co295 O297 2.143 . S
Co295 O303 2.074 . S
Co295 O306 2.093 . S
Co295 O319 2.097 1_556 S
Co295 N336 2.151 . S
Co295 N344 2.214 . S
Co296 O297 2.160 1_554 S
Co296 O302 2.058 . S
Co296 O312 2.057 . S
Co296 O327 2.037 . S
Co296 N331 2.145 . S
Co296 N352 2.257 . S
O297 Co295 2.143 . S
O297 Co296 2.160 1_556 S
C298 O299 1.278 . S
C298 O306 1.224 . S
O299 C298 1.278 . S
C300 O301 1.245 . S
C300 O312 1.232 1_556 S
O301 C300 1.245 . S
O302 Co296 2.058 . S
O302 C328 1.269 1_554 S
O303 Co295 2.074 . S
O303 C328 1.257 . S
H304 C329 0.930 . S
H305 C335 0.930 . S
O306 Co295 2.093 . S
O306 C298 1.224 . S
H307 C339 0.929 . S
H308 C341 0.930 . S
H309 C342 0.930 . S
H310 C340 0.929 . S
H311 C343 0.928 . S
O312 Co296 2.057 . S
O312 C300 1.232 1_554 S
H313 C332 0.929 . S
H314 C333 0.929 . S
H315 C345 0.931 . S
H316 C337 0.929 . S
H317 C346 0.930 . S
H318 C338 0.931 . S
O319 Co295 2.097 1_554 S
O319 C347 1.214 . S
H320 C348 0.929 . S
H321 C349 0.929 . S
H322 C350 0.930 . S
H323 C351 0.929 . S
H324 C353 0.930 . S
H325 C330 0.930 1_565 S
H326 C334 0.930 . S
O327 Co296 2.037 . S
O327 C347 1.234 . S
C328 O302 1.269 1_556 S
C328 O303 1.257 . S
C329 H304 0.930 . S
C329 C332 1.388 . S
C329 C334 1.418 . S
C330 H325 0.930 1_545 S
C330 C333 1.404 . S
C330 C334 1.353 . S
N331 Co296 2.145 . S
N331 C332 1.397 . S
N331 C333 1.334 . S
C332 H313 0.929 . S
C332 C329 1.388 . S
C332 N331 1.397 . S
C333 H314 0.929 . S
C333 C330 1.404 . S
C333 N331 1.334 . S
C334 H326 0.930 . S
C334 C329 1.418 . S
C334 C330 1.353 . S
C335 H305 0.930 . S
C335 N336 1.330 . S
C335 C337 1.446 . S
N336 Co295 2.151 . S
N336 C335 1.330 . S
N336 C340 1.418 . S
C337 H316 0.929 . S
C337 C335 1.446 . S
C337 C338 1.332 . S
C338 H318 0.931 . S
C338 C337 1.332 . S
C338 C339 1.267 . S
C339 H307 0.929 . S
C339 C338 1.267 . S
C339 C340 1.251 . S
C340 H310 0.929 . S
C340 N336 1.418 . S
C340 C339 1.251 . S
C341 H308 0.930 . S
C341 C343 1.406 . S
C341 C346 1.261 . S
C342 H309 0.930 . S
C342 N344 1.325 1_554 S
C342 C345 1.357 . S
C343 H311 0.928 . S
C343 C341 1.406 . S
C343 N344 1.261 . S
N344 Co295 2.214 . S
N344 C342 1.325 1_556 S
N344 C343 1.261 . S
C345 H315 0.931 . S
C345 C342 1.357 . S
C345 C346 1.312 1_554 S
C346 H317 0.930 . S
C346 C341 1.261 . S
C346 C345 1.312 1_556 S
C347 O319 1.214 . S
C347 O327 1.234 . S
C348 H320 0.929 . S
C348 C351 1.391 . S
C348 C353 1.391 . S
C349 H321 0.929 . S
C349 C350 1.390 . S
C349 N352 1.391 . S
C350 H322 0.930 . S
C350 C349 1.390 . S
C350 C351 1.392 . S
C351 H323 0.929 . S
C351 C348 1.391 . S
C351 C350 1.392 . S
N352 Co296 2.257 . S
N352 C349 1.391 . S
N352 C353 1.388 . S
C353 H324 0.930 . S
C353 C348 1.391 . S
C353 N352 1.388 . S
H354 C360 0.930 . S
H355 C364 0.930 . S
H356 C369 0.929 . S
H357 C367 0.929 . S
H358 C362 0.929 . S
H359 C368 0.929 . S
C360 H354 0.930 . S
C360 C361 1.367 . S
C360 C368 1.378 . S
C361 C360 1.367 . S
C361 C369 1.433 1_554 S
C362 H358 0.929 . S
C362 C364 1.378 . S
C362 C366 1.350 1_556 S
C363 C366 1.463 . S
C363 C368 1.350 . S
C363 N371 1.427 1_554 S
C364 H355 0.930 . S
C364 C362 1.378 . S
C364 C365 1.367 . S
C365 C364 1.367 . S
C365 C367 1.433 1_556 S
C366 C362 1.350 1_554 S
C366 C363 1.463 . S
C366 N370 1.427 . S
C367 H357 0.929 . S
C367 C365 1.433 1_554 S
C367 N370 1.384 . S
C368 H359 0.929 . S
C368 C360 1.378 . S
C368 C363 1.350 . S
C369 H356 0.929 . S
C369 C361 1.433 1_556 S
C369 N371 1.384 . S
N370 C366 1.427 . S
N370 C367 1.384 . S
N371 C363 1.427 1_556 S
N371 C369 1.384 . S
H372 C378 0.930 . S
H373 C382 0.930 . S
H374 C387 0.929 . S
H375 C385 0.929 . S
H376 C380 0.929 . S
H377 C386 0.929 . S
C378 H372 0.930 . S
C378 C379 1.367 . S
C378 C386 1.378 . S
C379 C378 1.367 . S
C379 C387 1.433 1_655 S
C380 H376 0.929 . S
C380 C382 1.378 . S
C380 C384 1.350 . S
C381 C384 1.463 . S
C381 C386 1.350 1_455 S
C381 N389 1.427 . S
C382 H373 0.930 . S
C382 C380 1.378 . S
C382 C383 1.367 . S
C383 C382 1.367 . S
C383 C385 1.433 . S
C384 C380 1.350 . S
C384 C381 1.463 . S
C384 N388 1.427 . S
C385 H375 0.929 . S
C385 C383 1.433 . S
C385 N388 1.384 . S
C386 H377 0.929 . S
C386 C378 1.378 . S
C386 C381 1.350 1_655 S
C387 H374 0.929 . S
C387 C379 1.433 1_455 S
C387 N389 1.384 . S
N388 C384 1.427 . S
N388 C385 1.384 . S
N389 C381 1.427 . S
N389 C387 1.384 . S
H390 C396 0.930 . S
H391 C400 0.930 . S
H392 C405 0.929 . S
H393 C403 0.929 . S
H394 C398 0.929 1_545 S
H395 C404 0.929 . S
C396 H390 0.930 . S
C396 C397 1.367 . S
C396 C404 1.378 . S
C397 C396 1.367 . S
C397 C405 1.433 . S
C398 H394 0.929 1_565 S
C398 C400 1.378 . S
C398 C402 1.350 1_565 S
C399 C402 1.463 . S
C399 C404 1.350 . S
C399 N407 1.427 . S
C400 H391 0.930 . S
C400 C398 1.378 . S
C400 C401 1.367 . S
C401 C400 1.367 . S
C401 C403 1.433 . S
C402 C398 1.350 1_545 S
C402 C399 1.463 . S
C402 N406 1.427 1_545 S
C403 H393 0.929 . S
C403 C401 1.433 . S
C403 N406 1.384 . S
C404 H395 0.929 . S
C404 C396 1.378 . S
C404 C399 1.350 . S
C405 H392 0.929 . S
C405 C397 1.433 . S
C405 N407 1.384 . S
N406 C402 1.427 1_565 S
N406 C403 1.384 . S
N407 C399 1.427 . S
N407 C405 1.384 . S
H408 C414 0.930 . S
H409 C418 0.930 . S
H410 C423 0.929 . S
H411 C421 0.929 . S
H412 C416 0.929 . S
H413 C422 0.929 . S
C414 H408 0.930 . S
C414 C415 1.367 . S
C414 C422 1.378 . S
C415 C414 1.367 . S
C415 C423 1.433 . S
C416 H412 0.929 . S
C416 C418 1.378 . S
C416 C420 1.350 . S
C417 C420 1.463 1_554 S
C417 C422 1.350 . S
C417 N425 1.427 . S
C418 H409 0.930 . S
C418 C416 1.378 . S
C418 C419 1.367 . S
C419 C418 1.367 . S
C419 C421 1.433 . S
C420 C416 1.350 . S
C420 C417 1.463 1_556 S
C420 N424 1.427 . S
C421 H411 0.929 . S
C421 C419 1.433 . S
C421 N424 1.384 . S
C422 H413 0.929 . S
C422 C414 1.378 . S
C422 C417 1.350 . S
C423 H410 0.929 . S
C423 C415 1.433 . S
C423 N425 1.384 . S
N424 C420 1.427 . S
N424 C421 1.384 . S
N425 C417 1.427 . S
N425 C423 1.384 . S
H426 C432 0.930 . S
H427 C436 0.930 . S
H428 C441 0.929 . S
H429 C439 0.929 . S
H430 C434 0.929 1_655 S
H431 C440 0.929 . S
C432 H426 0.930 . S
C432 C433 1.367 . S
C432 C440 1.378 . S
C433 C432 1.367 . S
C433 C441 1.433 . S
C434 H430 0.929 1_455 S
C434 C436 1.378 . S
C434 C438 1.350 1_455 S
C435 C438 1.463 . S
C435 C440 1.350 . S
C435 N443 1.427 . S
C436 H427 0.930 . S
C436 C434 1.378 . S
C436 C437 1.367 . S
C437 C436 1.367 . S
C437 C439 1.433 . S
C438 C434 1.350 1_655 S
C438 C435 1.463 . S
C438 N442 1.427 1_655 S
C439 H429 0.929 . S
C439 C437 1.433 . S
C439 N442 1.384 . S
C440 H431 0.929 . S
C440 C432 1.378 . S
C440 C435 1.350 . S
C441 H428 0.929 . S
C441 C433 1.433 . S
C441 N443 1.384 . S
N442 C438 1.427 1_455 S
N442 C439 1.384 . S
N443 C435 1.427 . S
N443 C441 1.384 . S
H444 C450 0.930 . S
H445 C454 0.930 . S
H446 C459 0.929 . S
H447 C457 0.929 . S
H448 C452 0.929 1_545 S
H449 C458 0.929 . S
C450 H444 0.930 . S
C450 C451 1.367 1_565 S
C450 C458 1.378 . S
C451 C450 1.367 1_545 S
C451 C459 1.433 . S
C452 H448 0.929 1_565 S
C452 C454 1.378 . S
C452 C456 1.350 . S
C453 C456 1.463 . S
C453 C458 1.350 . S
C453 N461 1.427 1_565 S
C454 H445 0.930 . S
C454 C452 1.378 . S
C454 C455 1.367 . S
C455 C454 1.367 . S
C455 C457 1.433 . S
C456 C452 1.350 . S
C456 C453 1.463 . S
C456 N460 1.427 . S
C457 H447 0.929 . S
C457 C455 1.433 . S
C457 N460 1.384 . S
C458 H449 0.929 . S
C458 C450 1.378 . S
C458 C453 1.350 . S
C459 H446 0.929 . S
C459 C451 1.433 . S
C459 N461 1.384 . S
N460 C456 1.427 . S
N460 C457 1.384 . S
N461 C453 1.427 1_545 S
N461 C459 1.384 . S
H462 C468 0.930 . S
H463 C472 0.930 . S
H464 C477 0.929 . S
H465 C475 0.929 . S
H466 C470 0.929 . S
H467 C476 0.929 . S
C468 H462 0.930 . S
C468 C469 1.367 . S
C468 C476 1.378 . S
C469 C468 1.367 . S
C469 C477 1.433 . S
C470 H466 0.929 . S
C470 C472 1.378 . S
C470 C474 1.350 . S
C471 C474 1.463 . S
C471 C476 1.350 . S
C471 N479 1.427 . S
C472 H463 0.930 . S
C472 C470 1.378 . S
C472 C473 1.367 . S
C473 C472 1.367 . S
C473 C475 1.433 . S
C474 C470 1.350 . S
C474 C471 1.463 . S
C474 N478 1.427 . S
C475 H465 0.929 . S
C475 C473 1.433 . S
C475 N478 1.384 . S
C476 H467 0.929 . S
C476 C468 1.378 . S
C476 C471 1.350 . S
C477 H464 0.929 . S
C477 C469 1.433 . S
C477 N479 1.384 . S
N478 C474 1.427 . S
N478 C475 1.384 . S
N479 C471 1.427 . S
N479 C477 1.384 . S
H480 C486 0.930 . S
H481 C490 0.930 . S
H482 C495 0.929 . S
H483 C493 0.929 . S
H484 C488 0.929 . S
H485 C494 0.929 . S
C486 H480 0.930 . S
C486 C487 1.367 . S
C486 C494 1.378 . S
C487 C486 1.367 . S
C487 C495 1.433 . S
C488 H484 0.929 . S
C488 C490 1.378 . S
C488 C492 1.350 . S
C489 C492 1.463 . S
C489 C494 1.350 . S
C489 N497 1.427 . S
C490 H481 0.930 . S
C490 C488 1.378 . S
C490 C491 1.367 . S
C491 C490 1.367 . S
C491 C493 1.433 . S
C492 C488 1.350 . S
C492 C489 1.463 . S
C492 N496 1.427 . S
C493 H483 0.929 . S
C493 C491 1.433 . S
C493 N496 1.384 . S
C494 H485 0.929 . S
C494 C486 1.378 . S
C494 C489 1.350 . S
C495 H482 0.929 . S
C495 C487 1.433 . S
C495 N497 1.384 . S
N496 C492 1.427 . S
N496 C493 1.384 . S
N497 C489 1.427 . S
N497 C495 1.384 . S
H498 C504 0.930 . S
H499 C508 0.930 . S
H500 C513 0.929 . S
H501 C511 0.929 . S
H502 C506 0.929 . S
H503 C512 0.929 . S
C504 H498 0.930 . S
C504 C505 1.367 . S
C504 C512 1.378 . S
C505 C504 1.367 . S
C505 C513 1.433 . S
C506 H502 0.929 . S
C506 C508 1.378 . S
C506 C510 1.350 . S
C507 C510 1.463 . S
C507 C512 1.350 . S
C507 N515 1.427 . S
C508 H499 0.930 . S
C508 C506 1.378 . S
C508 C509 1.367 . S
C509 C508 1.367 . S
C509 C511 1.433 . S
C510 C506 1.350 . S
C510 C507 1.463 . S
C510 N514 1.427 . S
C511 H501 0.929 . S
C511 C509 1.433 . S
C511 N514 1.384 . S
C512 H503 0.929 . S
C512 C504 1.378 . S
C512 C507 1.350 . S
C513 H500 0.929 . S
C513 C505 1.433 . S
C513 N515 1.384 . S
N514 C510 1.427 . S
N514 C511 1.384 . S
N515 C507 1.427 . S
N515 C513 1.384 . S
H516 C522 0.930 . S
H517 C526 0.930 . S
H518 C531 0.929 . S
H519 C529 0.929 . S
H520 C524 0.929 . S
H521 C530 0.929 . S
C522 H516 0.930 . S
C522 C523 1.367 . S
C522 C530 1.378 . S
C523 C522 1.367 . S
C523 C531 1.433 . S
C524 H520 0.929 . S
C524 C526 1.378 . S
C524 C528 1.350 . S
C525 C528 1.463 . S
C525 C530 1.350 . S
C525 N533 1.427 . S
C526 H517 0.930 . S
C526 C524 1.378 . S
C526 C527 1.367 . S
C527 C526 1.367 . S
C527 C529 1.433 . S
C528 C524 1.350 . S
C528 C525 1.463 . S
C528 N532 1.427 . S
C529 H519 0.929 . S
C529 C527 1.433 . S
C529 N532 1.384 . S
C530 H521 0.929 . S
C530 C522 1.378 . S
C530 C525 1.350 . S
C531 H518 0.929 . S
C531 C523 1.433 . S
C531 N533 1.384 . S
N532 C528 1.427 . S
N532 C529 1.384 . S
N533 C525 1.427 . S
N533 C531 1.384 . S
H534 C540 0.930 . S
H535 C544 0.930 . S
H536 C549 0.929 . S
H537 C547 0.929 . S
H538 C542 0.929 . S
H539 C548 0.929 . S
C540 H534 0.930 . S
C540 C541 1.367 . S
C540 C548 1.378 . S
C541 C540 1.367 . S
C541 C549 1.433 . S
C542 H538 0.929 . S
C542 C544 1.378 . S
C542 C546 1.350 . S
C543 C546 1.463 . S
C543 C548 1.350 . S
C543 N551 1.427 . S
C544 H535 0.930 . S
C544 C542 1.378 . S
C544 C545 1.367 . S
C545 C544 1.367 . S
C545 C547 1.433 . S
C546 C542 1.350 . S
C546 C543 1.463 . S
C546 N550 1.427 . S
C547 H537 0.929 . S
C547 C545 1.433 . S
C547 N550 1.384 . S
C548 H539 0.929 . S
C548 C540 1.378 . S
C548 C543 1.350 . S
C549 H536 0.929 . S
C549 C541 1.433 . S
C549 N551 1.384 . S
N550 C546 1.427 . S
N550 C547 1.384 . S
N551 C543 1.427 . S
N551 C549 1.384 . S
H552 C558 0.930 . S
H553 C562 0.930 . S
H554 C567 0.929 . S
H555 C565 0.929 . S
H556 C560 0.929 . S
H557 C566 0.929 . S
C558 H552 0.930 . S
C558 C559 1.367 . S
C558 C566 1.378 . S
C559 C558 1.367 . S
C559 C567 1.433 . S
C560 H556 0.929 . S
C560 C562 1.378 . S
C560 C564 1.350 . S
C561 C564 1.463 . S
C561 C566 1.350 . S
C561 N569 1.427 . S
C562 H553 0.930 . S
C562 C560 1.378 . S
C562 C563 1.367 . S
C563 C562 1.367 . S
C563 C565 1.433 . S
C564 C560 1.350 . S
C564 C561 1.463 . S
C564 N568 1.427 . S
C565 H555 0.929 . S
C565 C563 1.433 . S
C565 N568 1.384 . S
C566 H557 0.929 . S
C566 C558 1.378 . S
C566 C561 1.350 . S
C567 H554 0.929 . S
C567 C559 1.433 . S
C567 N569 1.384 . S
N568 C564 1.427 . S
N568 C565 1.384 . S
N569 C561 1.427 . S
N569 C567 1.384 . S
C361 C5 1.379 . S
C365 C328 1.375 . S
C379 C64 2.182 . S
C383 C33 2.180 . S
C397 C92 1.416 . S
C401 C123 1.421 . S
C415 C182 2.193 . S
C419 C151 2.186 . S
C433 C210 1.423 . S
C437 C241 1.426 . S
C451 C300 2.208 . S
C455 C269 2.183 . S
C469 C239 1.494 . S
C473 C52 1.649 . S
C487 C298 1.605 . S
C491 C111 1.507 . S
C505 C170 1.653 . S
C509 C3 1.515 . S
C523 C229 1.541 . S
C527 C62 1.631 . S
C541 C288 1.640 . S
C545 C121 1.491 . S
C559 C347 1.549 . S
C563 C180 1.642 . S
