# Generated by pormake.
# Topology ukp, (4)-cn, num edge types: 1
# Building blocks:
#     Node 0, Type 0, BuildingBlock: ESEHIV_clean_sbu_0, # of connection points: 4
#     Node 1, Type 0, BuildingBlock: ESEHIV_clean_sbu_0, # of connection points: 4
#     Node 2, Type 0, BuildingBlock: ESEHIV_clean_sbu_0, # of connection points: 4
#     Node 3, Type 0, BuildingBlock: ESEHIV_clean_sbu_0, # of connection points: 4
#     Node 4, Type 0, BuildingBlock: ESEHIV_clean_sbu_0, # of connection points: 4
#     Node 5, Type 0, BuildingBlock: ESEHIV_clean_sbu_0, # of connection points: 4
#     Node 6, Type 0, BuildingBlock: ESEHIV_clean_sbu_0, # of connection points: 4
#     Node 7, Type 0, BuildingBlock: ESEHIV_clean_sbu_0, # of connection points: 4
#     Node 8, Type 0, BuildingBlock: ESEHIV_clean_sbu_0, # of connection points: 4
#     Node 9, Type 0, BuildingBlock: ESEHIV_clean_sbu_0, # of connection points: 4
#     Node 10, Type 0, BuildingBlock: ESEHIV_clean_sbu_0, # of connection points: 4
#     Node 11, Type 0, BuildingBlock: ESEHIV_clean_sbu_0, # of connection points: 4
#     Node 12, Type 0, BuildingBlock: ESEHIV_clean_sbu_0, # of connection points: 4
#     Node 13, Type 0, BuildingBlock: ESEHIV_clean_sbu_0, # of connection points: 4
#     Node 14, Type 0, BuildingBlock: ESEHIV_clean_sbu_0, # of connection points: 4
#     Node 15, Type 0, BuildingBlock: ESEHIV_clean_sbu_0, # of connection points: 4
#     Node 16, Type 0, BuildingBlock: ESEHIV_clean_sbu_0, # of connection points: 4
#     Node 17, Type 0, BuildingBlock: ESEHIV_clean_sbu_0, # of connection points: 4
#     Node 18, Type 0, BuildingBlock: ESEHIV_clean_sbu_0, # of connection points: 4
#     Node 19, Type 0, BuildingBlock: ESEHIV_clean_sbu_0, # of connection points: 4
#     Node 20, Type 0, BuildingBlock: ESEHIV_clean_sbu_0, # of connection points: 4
#     Node 21, Type 0, BuildingBlock: ESEHIV_clean_sbu_0, # of connection points: 4
#     Node 22, Type 0, BuildingBlock: ESEHIV_clean_sbu_0, # of connection points: 4
#     Node 23, Type 0, BuildingBlock: ESEHIV_clean_sbu_0, # of connection points: 4
#     Node 24, Type 0, BuildingBlock: ESEHIV_clean_sbu_0, # of connection points: 4
#     Node 25, Type 0, BuildingBlock: ESEHIV_clean_sbu_0, # of connection points: 4
#     Node 26, Type 0, BuildingBlock: ESEHIV_clean_sbu_0, # of connection points: 4
#     Node 27, Type 0, BuildingBlock: ESEHIV_clean_sbu_0, # of connection points: 4
#     Node 28, Type 0, BuildingBlock: ESEHIV_clean_sbu_0, # of connection points: 4
#     Node 29, Type 0, BuildingBlock: ESEHIV_clean_sbu_0, # of connection points: 4
#     Node 30, Type 0, BuildingBlock: ESEHIV_clean_sbu_0, # of connection points: 4
#     Node 31, Type 0, BuildingBlock: ESEHIV_clean_sbu_0, # of connection points: 4
#     Node 32, Type 0, BuildingBlock: ESEHIV_clean_sbu_0, # of connection points: 4
#     Node 33, Type 0, BuildingBlock: ESEHIV_clean_sbu_0, # of connection points: 4
#     Node 34, Type 0, BuildingBlock: ESEHIV_clean_sbu_0, # of connection points: 4
#     Node 35, Type 0, BuildingBlock: ESEHIV_clean_sbu_0, # of connection points: 4
#     Node 36, Type 0, BuildingBlock: ESEHIV_clean_sbu_0, # of connection points: 4
#     Node 37, Type 0, BuildingBlock: ESEHIV_clean_sbu_0, # of connection points: 4
#     Node 38, Type 0, BuildingBlock: ESEHIV_clean_sbu_0, # of connection points: 4
#     Node 39, Type 0, BuildingBlock: ESEHIV_clean_sbu_0, # of connection points: 4
#     Node 40, Type 0, BuildingBlock: ESEHIV_clean_sbu_0, # of connection points: 4
#     Node 41, Type 0, BuildingBlock: ESEHIV_clean_sbu_0, # of connection points: 4
#     Node 42, Type 0, BuildingBlock: ESEHIV_clean_sbu_0, # of connection points: 4
#     Node 43, Type 0, BuildingBlock: ESEHIV_clean_sbu_0, # of connection points: 4
#     Node 44, Type 0, BuildingBlock: ESEHIV_clean_sbu_0, # of connection points: 4
#     Node 45, Type 0, BuildingBlock: ESEHIV_clean_sbu_0, # of connection points: 4
#     Node 46, Type 0, BuildingBlock: ESEHIV_clean_sbu_0, # of connection points: 4
#     Node 47, Type 0, BuildingBlock: ESEHIV_clean_sbu_0, # of connection points: 4
#     Edge 48, Type (0, 0), BuildingBlock: KIFKEQ_clean_linker_1, # of connection points: 2
#     Edge 49, Type (0, 0), BuildingBlock: KIFKEQ_clean_linker_1, # of connection points: 2
#     Edge 50, Type (0, 0), BuildingBlock: KIFKEQ_clean_linker_1, # of connection points: 2
#     Edge 51, Type (0, 0), BuildingBlock: KIFKEQ_clean_linker_1, # of connection points: 2
#     Edge 52, Type (0, 0), BuildingBlock: KIFKEQ_clean_linker_1, # of connection points: 2
#     Edge 53, Type (0, 0), BuildingBlock: KIFKEQ_clean_linker_1, # of connection points: 2
#     Edge 54, Type (0, 0), BuildingBlock: KIFKEQ_clean_linker_1, # of connection points: 2
#     Edge 55, Type (0, 0), BuildingBlock: KIFKEQ_clean_linker_1, # of connection points: 2
#     Edge 56, Type (0, 0), BuildingBlock: KIFKEQ_clean_linker_1, # of connection points: 2
#     Edge 57, Type (0, 0), BuildingBlock: KIFKEQ_clean_linker_1, # of connection points: 2
#     Edge 58, Type (0, 0), BuildingBlock: KIFKEQ_clean_linker_1, # of connection points: 2
#     Edge 59, Type (0, 0), BuildingBlock: KIFKEQ_clean_linker_1, # of connection points: 2
#     Edge 60, Type (0, 0), BuildingBlock: KIFKEQ_clean_linker_1, # of connection points: 2
#     Edge 61, Type (0, 0), BuildingBlock: KIFKEQ_clean_linker_1, # of connection points: 2
#     Edge 62, Type (0, 0), BuildingBlock: KIFKEQ_clean_linker_1, # of connection points: 2
#     Edge 63, Type (0, 0), BuildingBlock: KIFKEQ_clean_linker_1, # of connection points: 2
#     Edge 64, Type (0, 0), BuildingBlock: KIFKEQ_clean_linker_1, # of connection points: 2
#     Edge 65, Type (0, 0), BuildingBlock: KIFKEQ_clean_linker_1, # of connection points: 2
#     Edge 66, Type (0, 0), BuildingBlock: KIFKEQ_clean_linker_1, # of connection points: 2
#     Edge 67, Type (0, 0), BuildingBlock: KIFKEQ_clean_linker_1, # of connection points: 2
#     Edge 68, Type (0, 0), BuildingBlock: KIFKEQ_clean_linker_1, # of connection points: 2
#     Edge 69, Type (0, 0), BuildingBlock: KIFKEQ_clean_linker_1, # of connection points: 2
#     Edge 70, Type (0, 0), BuildingBlock: KIFKEQ_clean_linker_1, # of connection points: 2
#     Edge 71, Type (0, 0), BuildingBlock: KIFKEQ_clean_linker_1, # of connection points: 2
#     Edge 72, Type (0, 0), BuildingBlock: KIFKEQ_clean_linker_1, # of connection points: 2
#     Edge 73, Type (0, 0), BuildingBlock: KIFKEQ_clean_linker_1, # of connection points: 2
#     Edge 74, Type (0, 0), BuildingBlock: KIFKEQ_clean_linker_1, # of connection points: 2
#     Edge 75, Type (0, 0), BuildingBlock: KIFKEQ_clean_linker_1, # of connection points: 2
#     Edge 76, Type (0, 0), BuildingBlock: KIFKEQ_clean_linker_1, # of connection points: 2
#     Edge 77, Type (0, 0), BuildingBlock: KIFKEQ_clean_linker_1, # of connection points: 2
#     Edge 78, Type (0, 0), BuildingBlock: KIFKEQ_clean_linker_1, # of connection points: 2
#     Edge 79, Type (0, 0), BuildingBlock: KIFKEQ_clean_linker_1, # of connection points: 2
#     Edge 80, Type (0, 0), BuildingBlock: KIFKEQ_clean_linker_1, # of connection points: 2
#     Edge 81, Type (0, 0), BuildingBlock: KIFKEQ_clean_linker_1, # of connection points: 2
#     Edge 82, Type (0, 0), BuildingBlock: KIFKEQ_clean_linker_1, # of connection points: 2
#     Edge 83, Type (0, 0), BuildingBlock: KIFKEQ_clean_linker_1, # of connection points: 2
#     Edge 84, Type (0, 0), BuildingBlock: KIFKEQ_clean_linker_1, # of connection points: 2
#     Edge 85, Type (0, 0), BuildingBlock: KIFKEQ_clean_linker_1, # of connection points: 2
#     Edge 86, Type (0, 0), BuildingBlock: KIFKEQ_clean_linker_1, # of connection points: 2
#     Edge 87, Type (0, 0), BuildingBlock: KIFKEQ_clean_linker_1, # of connection points: 2
#     Edge 88, Type (0, 0), BuildingBlock: KIFKEQ_clean_linker_1, # of connection points: 2
#     Edge 89, Type (0, 0), BuildingBlock: KIFKEQ_clean_linker_1, # of connection points: 2
#     Edge 90, Type (0, 0), BuildingBlock: KIFKEQ_clean_linker_1, # of connection points: 2
#     Edge 91, Type (0, 0), BuildingBlock: KIFKEQ_clean_linker_1, # of connection points: 2
#     Edge 92, Type (0, 0), BuildingBlock: KIFKEQ_clean_linker_1, # of connection points: 2
#     Edge 93, Type (0, 0), BuildingBlock: KIFKEQ_clean_linker_1, # of connection points: 2
#     Edge 94, Type (0, 0), BuildingBlock: KIFKEQ_clean_linker_1, # of connection points: 2
#     Edge 95, Type (0, 0), BuildingBlock: KIFKEQ_clean_linker_1, # of connection points: 2
#     Edge 96, Type (0, 0), BuildingBlock: KIFKEQ_clean_linker_1, # of connection points: 2
#     Edge 97, Type (0, 0), BuildingBlock: KIFKEQ_clean_linker_1, # of connection points: 2
#     Edge 98, Type (0, 0), BuildingBlock: KIFKEQ_clean_linker_1, # of connection points: 2
#     Edge 99, Type (0, 0), BuildingBlock: KIFKEQ_clean_linker_1, # of connection points: 2
#     Edge 100, Type (0, 0), BuildingBlock: KIFKEQ_clean_linker_1, # of connection points: 2
#     Edge 101, Type (0, 0), BuildingBlock: KIFKEQ_clean_linker_1, # of connection points: 2
#     Edge 102, Type (0, 0), BuildingBlock: KIFKEQ_clean_linker_1, # of connection points: 2
#     Edge 103, Type (0, 0), BuildingBlock: KIFKEQ_clean_linker_1, # of connection points: 2
#     Edge 104, Type (0, 0), BuildingBlock: KIFKEQ_clean_linker_1, # of connection points: 2
#     Edge 105, Type (0, 0), BuildingBlock: KIFKEQ_clean_linker_1, # of connection points: 2
#     Edge 106, Type (0, 0), BuildingBlock: KIFKEQ_clean_linker_1, # of connection points: 2
#     Edge 107, Type (0, 0), BuildingBlock: KIFKEQ_clean_linker_1, # of connection points: 2
#     Edge 108, Type (0, 0), BuildingBlock: KIFKEQ_clean_linker_1, # of connection points: 2
#     Edge 109, Type (0, 0), BuildingBlock: KIFKEQ_clean_linker_1, # of connection points: 2
#     Edge 110, Type (0, 0), BuildingBlock: KIFKEQ_clean_linker_1, # of connection points: 2
#     Edge 111, Type (0, 0), BuildingBlock: KIFKEQ_clean_linker_1, # of connection points: 2
#     Edge 112, Type (0, 0), BuildingBlock: KIFKEQ_clean_linker_1, # of connection points: 2
#     Edge 113, Type (0, 0), BuildingBlock: KIFKEQ_clean_linker_1, # of connection points: 2
#     Edge 114, Type (0, 0), BuildingBlock: KIFKEQ_clean_linker_1, # of connection points: 2
#     Edge 115, Type (0, 0), BuildingBlock: KIFKEQ_clean_linker_1, # of connection points: 2
#     Edge 116, Type (0, 0), BuildingBlock: KIFKEQ_clean_linker_1, # of connection points: 2
#     Edge 117, Type (0, 0), BuildingBlock: KIFKEQ_clean_linker_1, # of connection points: 2
#     Edge 118, Type (0, 0), BuildingBlock: KIFKEQ_clean_linker_1, # of connection points: 2
#     Edge 119, Type (0, 0), BuildingBlock: KIFKEQ_clean_linker_1, # of connection points: 2
#     Edge 120, Type (0, 0), BuildingBlock: KIFKEQ_clean_linker_1, # of connection points: 2
#     Edge 121, Type (0, 0), BuildingBlock: KIFKEQ_clean_linker_1, # of connection points: 2
#     Edge 122, Type (0, 0), BuildingBlock: KIFKEQ_clean_linker_1, # of connection points: 2
#     Edge 123, Type (0, 0), BuildingBlock: KIFKEQ_clean_linker_1, # of connection points: 2
#     Edge 124, Type (0, 0), BuildingBlock: KIFKEQ_clean_linker_1, # of connection points: 2
#     Edge 125, Type (0, 0), BuildingBlock: KIFKEQ_clean_linker_1, # of connection points: 2
#     Edge 126, Type (0, 0), BuildingBlock: KIFKEQ_clean_linker_1, # of connection points: 2
#     Edge 127, Type (0, 0), BuildingBlock: KIFKEQ_clean_linker_1, # of connection points: 2
#     Edge 128, Type (0, 0), BuildingBlock: KIFKEQ_clean_linker_1, # of connection points: 2
#     Edge 129, Type (0, 0), BuildingBlock: KIFKEQ_clean_linker_1, # of connection points: 2
#     Edge 130, Type (0, 0), BuildingBlock: KIFKEQ_clean_linker_1, # of connection points: 2
#     Edge 131, Type (0, 0), BuildingBlock: KIFKEQ_clean_linker_1, # of connection points: 2
#     Edge 132, Type (0, 0), BuildingBlock: KIFKEQ_clean_linker_1, # of connection points: 2
#     Edge 133, Type (0, 0), BuildingBlock: KIFKEQ_clean_linker_1, # of connection points: 2
#     Edge 134, Type (0, 0), BuildingBlock: KIFKEQ_clean_linker_1, # of connection points: 2
#     Edge 135, Type (0, 0), BuildingBlock: KIFKEQ_clean_linker_1, # of connection points: 2
#     Edge 136, Type (0, 0), BuildingBlock: KIFKEQ_clean_linker_1, # of connection points: 2
#     Edge 137, Type (0, 0), BuildingBlock: KIFKEQ_clean_linker_1, # of connection points: 2
#     Edge 138, Type (0, 0), BuildingBlock: KIFKEQ_clean_linker_1, # of connection points: 2
#     Edge 139, Type (0, 0), BuildingBlock: KIFKEQ_clean_linker_1, # of connection points: 2
#     Edge 140, Type (0, 0), BuildingBlock: KIFKEQ_clean_linker_1, # of connection points: 2
#     Edge 141, Type (0, 0), BuildingBlock: KIFKEQ_clean_linker_1, # of connection points: 2
#     Edge 142, Type (0, 0), BuildingBlock: KIFKEQ_clean_linker_1, # of connection points: 2
#     Edge 143, Type (0, 0), BuildingBlock: KIFKEQ_clean_linker_1, # of connection points: 2
# Relax obj value: 0.108
# Max RMSD: 0.157
# Mean RMSD: 0.157
data_MOF--net-ukp--node1-ESEHIV_clean_sbu_0--edge1-KIFKEQ_clean_linker_1
_symmetry_space_group_name_H-M    P1
_symmetry_Int_Tables_number       1
_symmetry_cell_setting            triclinic
loop_
_symmetry_equiv_pos_as_xyz
'x, y, z'
_cell_length_a     70.830759
_cell_length_b     70.800658
_cell_length_c     70.711568
_cell_angle_alpha  89.920802
_cell_angle_beta   89.957479
_cell_angle_gamma 90.004424
loop_
_atom_site_label
_atom_site_type_symbol
_atom_site_fract_x
_atom_site_fract_y
_atom_site_fract_z
_atom_type_partial_charge
Cu0 Cu 0.22144 0.29209 0.40547 0.0
N1 N 0.20995 0.29375 0.38163 0.0
N2 N 0.21015 0.30542 0.35202 0.0
C3 C 0.22015 0.29677 0.3658 0.0
C4 C 0.19263 0.30741 0.35934 0.0
C5 C 0.19258 0.3003 0.3776 0.0
O6 O 0.24691 0.28275 0.40087 0.0
C7 C 0.2203 0.3227 0.43268 0.0
O8 O 0.22154 0.30968 0.44586 0.0
H9 H 0.23523 0.29482 0.36522 0.0
H10 H 0.18134 0.30183 0.38785 0.0
N11 N 0.21078 0.27484 0.4229 0.0
N12 N 0.19382 0.25445 0.4406 0.0
C13 C 0.1938 0.26623 0.42531 0.0
C14 C 0.22162 0.26827 0.43701 0.0
C15 C 0.21136 0.25603 0.4479 0.0
C16 C 0.26047 0.2919 0.39339 0.0
O17 O 0.25843 0.31003 0.38995 0.0
H18 H 0.18188 0.26835 0.41598 0.0
H19 H 0.23616 0.27235 0.43932 0.0
O20 O 0.22093 0.31786 0.41535 0.0
H21 H 0.18106 0.31483 0.35265 0.0
H22 H 0.21655 0.24907 0.46049 0.0
Cu23 Cu 0.97962 0.95497 0.6428 0.0
N24 N 0.96692 0.9496 0.62021 0.0
N25 N 0.94957 0.95449 0.59416 0.0
C26 C 0.961 0.96233 0.60731 0.0
C27 C 0.94839 0.93606 0.59901 0.0
C28 C 0.95896 0.93314 0.61511 0.0
O29 O 0.99291 0.97886 0.63853 0.0
C30 C 0.94562 0.96679 0.65956 0.0
O31 O 0.9463 0.97948 0.646 0.0
H32 H 0.9645 0.97719 0.60801 0.0
H33 H 0.95999 0.92014 0.6231 0.0
N34 N 0.99675 0.93544 0.64879 0.0
N35 N 0.01824 0.91724 0.6635 0.0
C36 C 1.00688 0.93264 0.66478 0.0
C37 C 1.00181 0.92133 0.63713 0.0
C38 C 0.01494 0.91015 0.64609 0.0
C39 C 1.00796 0.97844 0.62862 0.0
O40 O 0.01453 0.962 0.62312 0.0
H41 H 1.00627 0.94194 0.6769 0.0
H42 H 0.99653 0.91943 0.62292 0.0
O43 O 0.95976 0.95592 0.6619 0.0
H44 H 0.93969 0.92561 0.59204 0.0
H45 H 0.02151 0.89768 0.64017 0.0
Cu46 Cu 0.31698 0.73263 0.89467 0.0
N47 N 0.32059 0.72274 0.87029 0.0
N48 N 0.31367 0.70816 0.84308 0.0
C49 C 0.30685 0.71776 0.85809 0.0
C50 C 0.33251 0.70736 0.84572 0.0
C51 C 0.33672 0.71623 0.86259 0.0
O52 O 0.29405 0.74813 0.89359 0.0
C53 C 0.30865 0.69544 0.90735 0.0
O54 O 0.29895 0.69479 0.89157 0.0
H55 H 0.29201 0.72025 0.86063 0.0
H56 H 0.35043 0.71694 0.86928 0.0
N57 N 0.33726 0.74861 0.90101 0.0
N58 N 0.35709 0.76753 0.91699 0.0
C59 C 0.34179 0.75604 0.91803 0.0
C60 C 0.34998 0.75579 0.88883 0.0
C61 C 0.36221 0.76733 0.89859 0.0
C62 C 0.27727 0.7418 0.89222 0.0
O63 O 0.27424 0.72362 0.8942 0.0
H64 H 0.334 0.75311 0.93087 0.0
H65 H 0.35013 0.75316 0.87378 0.0
O66 O 0.31656 0.71094 0.91208 0.0
H67 H 0.34236 0.69985 0.83676 0.0
H68 H 0.37363 0.77542 0.89244 0.0
Cu69 Cu 0.54703 0.0675 0.14109 0.0
N70 N 0.55909 0.07088 0.11765 0.0
N71 N 0.57537 0.06393 0.09141 0.0
C72 C 0.56594 0.05704 0.10652 0.0
C73 C 0.57421 0.08288 0.09292 0.0
C74 C 0.56428 0.08713 0.1092 0.0
O75 O 0.53145 0.04482 0.13891 0.0
C76 C 0.58257 0.0591 0.15822 0.0
O77 O 0.58553 0.0492 0.14283 0.0
H78 H 0.56447 0.04216 0.10965 0.0
H79 H 0.56158 0.10108 0.11479 0.0
N80 N 0.53066 0.08777 0.1462 0.0
N81 N 0.51121 0.10763 0.16148 0.0
C82 C 0.52328 0.09286 0.16308 0.0
C83 C 0.5229 0.0996 0.13351 0.0
C84 C 0.51101 0.11186 0.14285 0.0
C85 C 0.53752 0.0279 0.13836 0.0
O86 O 0.55541 0.02455 0.1418 0.0
H87 H 0.52665 0.08576 0.17621 0.0
H88 H 0.52534 0.09906 0.11843 0.0
O89 O 0.56657 0.06699 0.16068 0.0
H90 H 0.58079 0.09292 0.08341 0.0
H91 H 0.50241 0.12265 0.13627 0.0
Cu92 Cu 0.20347 0.73211 0.13203 0.0
N93 N 0.19976 0.72054 0.15569 0.0
N94 N 0.20625 0.70489 0.18255 0.0
C95 C 0.2132 0.71555 0.16824 0.0
C96 C 0.18758 0.70338 0.17889 0.0
C97 C 0.18367 0.71292 0.16233 0.0
O98 O 0.22642 0.74744 0.13368 0.0
C99 C 0.21103 0.69581 0.11652 0.0
O100 O 0.22058 0.6934 0.13224 0.0
H101 H 0.22798 0.71873 0.16628 0.0
H102 H 0.17018 0.71361 0.15521 0.0
N103 N 0.1833 0.74859 0.12669 0.0
N104 N 0.1643 0.7694 0.11206 0.0
C105 C 0.1793 0.75762 0.1103 0.0
C106 C 0.1704 0.75483 0.13916 0.0
C107 C 0.15869 0.76754 0.13023 0.0
C108 C 0.2431 0.74098 0.13549 0.0
O109 O 0.24598 0.72273 0.13397 0.0
H110 H 0.18761 0.75605 0.09755 0.0
H111 H 0.16976 0.75071 0.15388 0.0
O112 O 0.20363 0.71189 0.11311 0.0
H113 H 0.17745 0.69555 0.18725 0.0
H114 H 0.14698 0.77491 0.13672 0.0
Cu115 Cu 0.54021 0.95719 0.38004 0.0
N116 N 0.55135 0.95276 0.40363 0.0
N117 N 0.56777 0.95884 0.43002 0.0
C118 C 0.55857 0.96622 0.41497 0.0
C119 C 0.56612 0.93992 0.42804 0.0
C120 C 0.55605 0.93623 0.41174 0.0
O121 O 0.52911 0.98239 0.38225 0.0
C122 C 0.57455 0.96728 0.36311 0.0
O123 O 0.57306 0.98161 0.37481 0.0
H124 H 0.55783 0.98113 0.41169 0.0
H125 H 0.55288 0.92247 0.4059 0.0
N126 N 0.52172 0.93877 0.37484 0.0
N127 N 0.49966 0.92124 0.36031 0.0
C128 C 0.51396 0.93378 0.35808 0.0
C129 C 0.51213 0.92892 0.38798 0.0
C130 C 0.49858 0.91816 0.37912 0.0
C131 C 0.51142 0.98565 0.38182 0.0
O132 O 0.49979 0.97202 0.37707 0.0
H133 H 0.51813 0.93985 0.34465 0.0
H134 H 0.51446 0.92994 0.40306 0.0
O135 O 0.56085 0.95571 0.36189 0.0
H136 H 0.57198 0.92944 0.43751 0.0
H137 H 0.48852 0.90895 0.38605 0.0
Cu138 Cu 0.32101 0.29481 0.63218 0.0
N139 N 0.32509 0.30625 0.65578 0.0
N140 N 0.31876 0.32228 0.68241 0.0
C141 C 0.31169 0.31154 0.66826 0.0
C142 C 0.33746 0.32347 0.67877 0.0
C143 C 0.34128 0.31368 0.66235 0.0
O144 O 0.29813 0.2795 0.63438 0.0
C145 C 0.31268 0.3311 0.61706 0.0
O146 O 0.30392 0.33346 0.63324 0.0
H147 H 0.29686 0.30864 0.66625 0.0
H148 H 0.35476 0.31278 0.65521 0.0
N149 N 0.34116 0.27856 0.62623 0.0
N150 N 0.36056 0.25902 0.61047 0.0
C151 C 0.3452 0.2704 0.60943 0.0
C152 C 0.35429 0.27203 0.63829 0.0
C153 C 0.36626 0.26008 0.62866 0.0
C154 C 0.2815 0.2862 0.63573 0.0
O155 O 0.27882 0.30438 0.6333 0.0
H156 H 0.337 0.27278 0.59674 0.0
H157 H 0.35494 0.27544 0.65318 0.0
O158 O 0.32006 0.31509 0.61332 0.0
H159 H 0.34766 0.3313 0.687 0.0
H160 H 0.37793 0.25235 0.6348 0.0
Cu161 Cu 0.98572 0.07022 0.88205 0.0
N162 N 0.97434 0.07384 0.90574 0.0
N163 N 0.95795 0.06738 0.93213 0.0
C164 C 0.96653 0.06026 0.91661 0.0
C165 C 0.9605 0.08626 0.93093 0.0
C166 C 0.97055 0.09018 0.91465 0.0
O167 O 1.00014 0.04687 0.88367 0.0
C168 C 0.9574 0.08559 0.85986 0.0
O169 O 0.9646 0.10108 0.8671 0.0
H170 H 0.96654 0.0455 0.91283 0.0
H171 H 0.97442 0.10402 0.90944 0.0
N172 N 1.00294 0.08978 0.87674 0.0
N173 N 0.02292 0.10949 0.86179 0.0
C174 C 1.00949 0.09595 0.85984 0.0
C175 C 0.01262 0.0996 0.88977 0.0
C176 C 0.02483 0.1117 0.88069 0.0
C177 C 0.99299 0.0304 0.88441 0.0
O178 O 0.97475 0.0283 0.88176 0.0
H179 H 1.0046 0.09042 0.84646 0.0
H180 H 1.01127 0.09769 0.90488 0.0
O181 O 0.96513 0.06981 0.86376 0.0
H182 H 0.9554 0.09656 0.941 0.0
H183 H 0.03482 0.12091 0.88765 0.0
Cu184 Cu 0.4034 0.20743 0.29196 0.0
N185 N 0.38063 0.20465 0.3051 0.0
N186 N 0.35583 0.21323 0.32276 0.0
C187 C 0.36991 0.2191 0.31128 0.0
C188 C 0.35769 0.19426 0.32366 0.0
C189 C 0.37309 0.18903 0.31287 0.0
O190 O 0.40079 0.23094 0.27776 0.0
C191 C 0.42225 0.2181 0.32567 0.0
O192 O 0.4094 0.23147 0.32631 0.0
H193 H 0.37284 0.23372 0.30791 0.0
H194 H 0.3789 0.17497 0.31154 0.0
N195 N 0.40793 0.18703 0.27552 0.0
N196 N 0.42245 0.16722 0.25543 0.0
C197 C 0.42404 0.18305 0.26608 0.0
C198 C 0.39573 0.17332 0.27063 0.0
C199 C 0.4046 0.16113 0.25831 0.0
C200 C 0.39061 0.2305 0.2629 0.0
O201 O 0.38413 0.21415 0.25702 0.0
H202 H 0.4367 0.19154 0.26715 0.0
H203 H 0.38128 0.17239 0.27547 0.0
O204 O 0.42307 0.20749 0.31116 0.0
H205 H 0.34917 0.18491 0.33228 0.0
H206 H 0.3982 0.14895 0.25168 0.0
Cu207 Cu 0.06376 0.14272 0.53932 0.0
N208 N 0.06925 0.11785 0.54635 0.0
N209 N 0.0655 0.0895 0.55999 0.0
C210 C 0.05858 0.10718 0.55802 0.0
C211 C 0.0812 0.0891 0.54911 0.0
C212 C 0.08349 0.10661 0.54076 0.0
O213 O 0.03769 0.14117 0.53062 0.0
C214 C 0.06734 0.175 0.56499 0.0
O215 O 0.06662 0.1864 0.55036 0.0
H216 H 0.04569 0.11221 0.56453 0.0
H217 H 0.09464 0.11078 0.53115 0.0
N218 N 0.07975 0.15049 0.51928 0.0
N219 N 0.09814 0.16703 0.49928 0.0
C220 C 0.09069 0.16604 0.51695 0.0
C221 C 0.08075 0.14128 0.50267 0.0
C222 C 0.09192 0.1514 0.49037 0.0
C223 C 0.03136 0.14784 0.51514 0.0
O224 O 0.042 0.15921 0.50503 0.0
H225 H 0.09278 0.17666 0.5277 0.0
H226 H 0.07333 0.1283 0.49957 0.0
O227 O 0.06618 0.15723 0.56261 0.0
H228 H 0.09045 0.07706 0.54736 0.0
H229 H 0.0952 0.14754 0.47593 0.0
Cu230 Cu 0.13297 0.82413 0.79285 0.0
N231 N 0.15519 0.8281 0.80665 0.0
N232 N 0.18009 0.8213 0.82495 0.0
C233 C 0.1649 0.81442 0.81569 0.0
C234 C 0.1799 0.84008 0.82166 0.0
C235 C 0.16442 0.84426 0.81052 0.0
O236 O 0.13791 0.80189 0.77745 0.0
C237 C 0.1071 0.83663 0.81948 0.0
O238 O 0.11341 0.8529 0.81314 0.0
H239 H 0.16092 0.79967 0.81542 0.0
H240 H 0.16007 0.85814 0.80589 0.0
N241 N 0.12783 0.84426 0.7761 0.0
N242 N 0.11329 0.8632 0.7551 0.0
C243 C 0.1113 0.84878 0.76761 0.0
C244 C 0.14064 0.85615 0.76866 0.0
C245 C 0.13178 0.86785 0.75588 0.0
C246 C 0.13603 0.7847 0.78236 0.0
O247 O 0.12826 0.7806 0.79873 0.0
H248 H 0.09827 0.84118 0.77006 0.0
H249 H 0.15556 0.85597 0.77184 0.0
O250 O 0.11302 0.82148 0.81176 0.0
H251 H 0.18996 0.85012 0.82727 0.0
H252 H 0.13856 0.87881 0.74765 0.0
Cu253 Cu 0.4572 0.87894 0.04421 0.0
N254 N 0.45317 0.90222 0.05623 0.0
N255 N 0.45949 0.92873 0.07241 0.0
C256 C 0.46658 0.91457 0.06171 0.0
C257 C 0.44076 0.92519 0.07345 0.0
C258 C 0.43695 0.90884 0.06356 0.0
O259 O 0.47994 0.88163 0.02866 0.0
C260 C 0.46537 0.86275 0.08022 0.0
O261 O 0.47481 0.87848 0.08291 0.0
H262 H 0.48142 0.91254 0.05883 0.0
H263 H 0.42341 0.90186 0.0624 0.0
N264 N 0.4369 0.87341 0.02798 0.0
N265 N 0.41692 0.85799 1.00876 0.0
C266 C 0.43232 0.85664 0.02007 0.0
C267 C 0.42409 0.88576 0.02134 0.0
C268 C 0.41177 0.87634 1.00959 0.0
C269 C 0.49673 0.88303 0.03497 0.0
O270 O 0.49989 0.8802 0.05304 0.0
H271 H 0.44012 0.84375 0.02262 0.0
H272 H 0.42387 0.90067 0.0246 0.0
O273 O 0.45795 0.85964 0.06409 0.0
H274 H 0.43052 0.93351 0.08115 0.0
H275 H 0.40022 0.88269 1.00186 0.0
Cu276 Cu 0.38875 0.82341 0.2314 0.0
N277 N 0.36696 0.82793 0.2171 0.0
N278 N 0.34174 0.82146 0.19917 0.0
C279 C 0.35678 0.81437 0.20849 0.0
C280 C 0.34237 0.84028 0.20216 0.0
C281 C 0.35803 0.84425 0.21315 0.0
O282 O 0.38258 0.80088 0.24588 0.0
C283 C 0.40955 0.81073 0.1993 0.0
O284 O 0.39632 0.7978 0.19802 0.0
H285 H 0.36018 0.79948 0.2093 0.0
H286 H 0.36257 0.85803 0.21789 0.0
N287 N 0.39331 0.84318 0.24853 0.0
N288 N 0.40766 0.86295 0.26885 0.0
C289 C 0.40998 0.84924 0.25563 0.0
C290 C 0.38003 0.85325 0.25758 0.0
C291 C 0.38875 0.86539 0.27001 0.0
C292 C 0.39099 0.78511 0.24763 0.0
O293 O 0.40736 0.7824 0.23933 0.0
H294 H 0.42345 0.84349 0.25132 0.0
H295 H 0.36499 0.8515 0.25565 0.0
O296 O 0.40968 0.82171 0.21356 0.0
H297 H 0.33242 0.85045 0.19656 0.0
H298 H 0.38151 0.8748 0.27962 0.0
Cu299 Cu 0.45467 0.14395 0.48135 0.0
N300 N 0.44899 0.12153 0.46854 0.0
N301 N 0.45305 0.09525 0.45142 0.0
C302 C 0.46157 0.10922 0.46126 0.0
C303 C 0.43439 0.09896 0.45262 0.0
C304 C 0.43195 0.11522 0.46306 0.0
O305 O 0.47854 0.13968 0.49448 0.0
C306 C 0.46693 0.16241 0.44799 0.0
O307 O 0.47947 0.14874 0.44756 0.0
H308 H 0.47668 0.11065 0.46296 0.0
H309 H 0.41871 0.12226 0.46597 0.0
N310 N 0.43544 0.15003 0.49876 0.0
N311 N 0.41661 0.16596 0.51873 0.0
C312 C 0.43166 0.16689 0.50689 0.0
C313 C 0.42243 0.13807 0.50576 0.0
C314 C 0.41086 0.14779 0.518 0.0
C315 C 0.47835 0.12877 0.50884 0.0
O316 O 0.46211 0.12192 0.51465 0.0
H317 H 0.4397 0.17958 0.50404 0.0
H318 H 0.42157 0.12321 0.5024 0.0
O319 O 0.45586 0.16361 0.46214 0.0
H320 H 0.42331 0.0909 0.44585 0.0
H321 H 0.39933 0.14177 0.52605 0.0
Cu322 Cu 0.13124 0.20607 0.72887 0.0
N323 N 0.15488 0.20249 0.71738 0.0
N324 N 0.1814 0.209 0.70142 0.0
C325 C 0.16612 0.21614 0.71028 0.0
C326 C 0.17991 0.19009 0.70318 0.0
C327 C 0.16345 0.18611 0.71291 0.0
O328 O 0.13304 0.22923 0.74391 0.0
C329 C 0.11477 0.21417 0.69292 0.0
O330 O 0.12961 0.22502 0.69067 0.0
H331 H 0.16298 0.23104 0.71122 0.0
H332 H 0.15784 0.17223 0.71599 0.0
N333 N 0.1264 0.18636 0.74608 0.0
N334 N 0.11225 0.16807 0.76782 0.0
C335 C 0.10982 0.18125 0.75411 0.0
C336 C 0.13964 0.17604 0.75498 0.0
C337 C 0.131 0.16477 0.7683 0.0
C338 C 0.13435 0.24604 0.7376 0.0
O339 O 0.13182 0.24924 0.71951 0.0
H340 H 0.09642 0.18775 0.75068 0.0
H341 H 0.15466 0.1772 0.75251 0.0
O342 O 0.1123 0.2056 0.70862 0.0
H343 H 0.18957 0.17988 0.69718 0.0
H344 H 0.13806 0.15518 0.77791 0.0
Cu345 Cu 0.07046 0.88094 0.98 0.0
N346 N 0.07539 0.90285 0.96602 0.0
N347 N 0.06915 0.92843 0.94836 0.0
C348 C 0.06211 0.91517 0.96021 0.0
C349 C 0.08772 0.92425 0.9468 0.0
C350 C 0.09149 0.90843 0.95761 0.0
O351 O 0.0483 0.88743 0.99495 0.0
C352 C 0.05614 0.86306 0.94751 0.0
O353 O 0.04367 0.87677 0.94835 0.0
H354 H 0.04736 0.91376 0.96391 0.0
H355 H 0.10487 0.90116 0.95877 0.0
N356 N 0.09065 0.8754 0.99636 0.0
N357 N 0.10948 0.86103 0.0175 0.0
C358 C 0.09407 0.85939 1.00626 0.0
C359 C 0.10436 0.88749 1.00149 0.0
C360 C 0.11596 0.87871 0.01441 0.0
C361 C 0.03244 0.87921 0.99679 0.0
O362 O 0.0295 0.86288 0.98851 0.0
H363 H 0.0851 0.84702 1.00564 0.0
H364 H 0.10566 0.90184 0.99641 0.0
O365 O 0.06766 0.86103 0.96119 0.0
H366 H 0.09786 0.93182 0.93822 0.0
H367 H 0.12822 0.88496 0.02104 0.0
Cu368 Cu 0.28631 0.38592 0.21046 0.0
N369 N 0.29918 0.36375 0.2037 0.0
N370 N 0.31827 0.33858 0.20621 0.0
C371 C 0.309 0.35245 0.21551 0.0
C372 C 0.31408 0.34134 0.18777 0.0
C373 C 0.30244 0.35689 0.18628 0.0
O374 O 0.27194 0.38015 0.23343 0.0
C375 C 0.31372 0.41059 0.19758 0.0
O376 O 0.30676 0.40445 0.18151 0.0
H377 H 0.30989 0.3548 0.23055 0.0
H378 H 0.29716 0.36305 0.17332 0.0
N379 N 0.26892 0.3928 0.19142 0.0
N380 N 0.24975 0.4093 0.17221 0.0
C381 C 0.26219 0.4101 0.18677 0.0
C382 C 0.2602 0.38074 0.17961 0.0
C383 C 0.24853 0.39081 0.16775 0.0
C384 C 0.27916 0.37741 0.2497 0.0
O385 O 0.29722 0.38079 0.25222 0.0
H386 H 0.26644 0.42298 0.19381 0.0
H387 H 0.26204 0.36558 0.17976 0.0
O388 O 0.30612 0.40504 0.21298 0.0
H389 H 0.31912 0.33287 0.17609 0.0
H390 H 0.23947 0.38489 0.15695 0.0
Cu391 Cu 0.79369 0.1324 0.82173 0.0
N392 N 0.80495 0.15583 0.82705 0.0
N393 N 0.82065 0.18295 0.82252 0.0
C394 C 0.81033 0.16908 0.8144 0.0
C395 C 0.82157 0.17834 0.84102 0.0
C396 C 0.81203 0.16157 0.84373 0.0
O397 O 0.77819 0.13603 0.79907 0.0
C398 C 0.8299 0.11874 0.81168 0.0
O399 O 0.8308 0.13492 0.80266 0.0
H400 H 0.80745 0.16812 0.79941 0.0
H401 H 0.81112 0.15363 0.85678 0.0
N402 N 0.77739 0.12552 0.8417 0.0
N403 N 0.75669 0.10989 0.86009 0.0
C404 C 0.76856 0.10887 0.84505 0.0
C405 C 0.77087 0.13735 0.85506 0.0
C406 C 0.75827 0.12782 0.86639 0.0
C407 C 0.78407 0.13674 0.78205 0.0
O408 O 0.80174 0.13262 0.77836 0.0
H409 H 0.7703 0.0965 0.83624 0.0
H410 H 0.77466 0.15209 0.85623 0.0
O411 O 0.8145 0.11415 0.81989 0.0
H412 H 0.82949 0.18595 0.85164 0.0
H413 H 0.75073 0.13375 0.8783 0.0
Cu414 Cu 0.14032 0.54083 0.07433 0.0
N415 N 0.11758 0.55313 0.07985 0.0
N416 N 0.09134 0.57024 0.07551 0.0
C417 C 0.10575 0.56095 0.06712 0.0
C418 C 0.09423 0.5681 0.09427 0.0
C419 C 0.11047 0.55766 0.09689 0.0
O420 O 0.13661 0.52935 0.04943 0.0
C421 C 0.15853 0.57506 0.06438 0.0
O422 O 0.14543 0.57582 0.05125 0.0
H423 H 0.10786 0.56002 0.05199 0.0
H424 H 0.11693 0.55409 0.11028 0.0
N425 N 0.14579 0.52263 0.09306 0.0
N426 N 0.16104 0.50249 0.1123 0.0
C427 C 0.16267 0.51509 0.09792 0.0
C428 C 0.13314 0.51441 0.10463 0.0
C429 C 0.14245 0.50209 0.11649 0.0
C430 C 0.13608 0.51158 0.04664 0.0
O431 O 0.14046 0.50007 0.06054 0.0
H432 H 0.17585 0.51887 0.09115 0.0
H433 H 0.11811 0.51707 0.10437 0.0
O434 O 0.15962 0.56041 0.0748 0.0
H435 H 0.08562 0.57422 0.10533 0.0
H436 H 0.13593 0.49321 0.12712 0.0
Cu437 Cu 0.73062 0.89149 0.32229 0.0
N438 N 0.71882 0.8683 0.3275 0.0
N439 N 0.70239 0.84153 0.32348 0.0
C440 C 0.71082 0.8564 0.31494 0.0
C441 C 0.70525 0.84418 0.34217 0.0
C442 C 0.71527 0.86072 0.34459 0.0
O443 O 0.74435 0.88864 0.29858 0.0
C444 C 0.70312 0.91549 0.33697 0.0
O445 O 0.71038 0.90922 0.35288 0.0
H446 H 0.71112 0.85859 0.29983 0.0
H447 H 0.71933 0.867 0.35792 0.0
N448 N 0.74842 0.897 0.34128 0.0
N449 N 0.76853 0.91172 0.36095 0.0
C450 C 0.75496 0.91383 0.34755 0.0
C451 C 0.75828 0.8839 0.35084 0.0
C452 C 0.77058 0.89284 0.36291 0.0
C453 C 0.73651 0.88659 0.28253 0.0
O454 O 0.71812 0.88851 0.2811 0.0
H455 H 0.7499 0.92728 0.34234 0.0
H456 H 0.75689 0.86882 0.34886 0.0
O457 O 0.71051 0.91027 0.32139 0.0
H458 H 0.69999 0.83514 0.35335 0.0
H459 H 0.78067 0.88583 0.37201 0.0
Cu460 Cu 0.8828 0.98077 0.06954 0.0
N461 N 0.90483 0.96669 0.07391 0.0
N462 N 0.92997 0.9484 0.06797 0.0
C463 C 0.91793 0.96153 0.06104 0.0
C464 C 0.92431 0.9454 0.08597 0.0
C465 C 0.90882 0.95663 0.08955 0.0
O466 O 0.88719 0.99668 0.04732 0.0
C467 C 0.86456 0.94638 0.05982 0.0
O468 O 0.88032 0.943 0.05066 0.0
H469 H 0.91784 0.96631 0.04651 0.0
H470 H 0.90045 0.95676 0.10235 0.0
N471 N 0.87791 0.99675 0.09024 0.0
N472 N 0.86405 0.01747 0.1099 0.0
C473 C 0.8621 1.00675 0.09414 0.0
C474 C 0.89019 1.00124 0.10401 0.0
C475 C 0.88174 0.01392 0.1161 0.0
C476 C 0.88816 0.99084 0.03032 0.0
O477 O 0.88407 0.97316 0.02659 0.0
H478 H 0.84963 1.00654 0.0853 0.0
H479 H 0.90443 0.99584 0.10506 0.0
O480 O 0.86221 0.96244 0.06765 0.0
H481 H 0.93058 0.9354 0.09571 0.0
H482 H 0.88818 0.02003 0.12855 0.0
Cu483 Cu 0.22907 0.63428 0.7046 0.0
N484 N 0.21634 0.65696 0.69945 0.0
N485 N 0.19902 0.68273 0.70557 0.0
C486 C 0.21337 0.67155 0.71138 0.0
C487 C 0.19291 0.67505 0.68924 0.0
C488 C 0.20356 0.65919 0.68554 0.0
O489 O 0.24464 0.63822 0.72693 0.0
C490 C 0.20653 0.60017 0.70195 0.0
O491 O 0.22084 0.5923 0.69316 0.0
H492 H 0.22036 0.67304 0.72489 0.0
H493 H 0.20109 0.64909 0.67436 0.0
N494 N 0.24419 0.62715 0.6838 0.0
N495 N 0.26531 0.6126 0.66506 0.0
C496 C 0.25699 0.61301 0.68235 0.0
C497 C 0.24451 0.63591 0.66691 0.0
C498 C 0.25741 0.62702 0.6554 0.0
C499 C 0.23714 0.64168 0.74292 0.0
O500 O 0.21869 0.64064 0.7446 0.0
H501 H 0.26031 0.60341 0.6938 0.0
H502 H 0.23599 0.64802 0.66321 0.0
O503 O 0.20833 0.61668 0.70879 0.0
H504 H 0.1809 0.67993 0.68114 0.0
H505 H 0.26057 0.63082 0.6409 0.0
Cu506 Cu 0.14262 0.48208 0.4523 0.0
N507 N 0.11982 0.46952 0.44709 0.0
N508 N 0.09316 0.45308 0.45182 0.0
C509 C 0.10653 0.46418 0.45972 0.0
C510 C 0.09811 0.45161 0.43344 0.0
C511 C 0.11458 0.46165 0.43061 0.0
O512 O 0.13836 0.49761 0.47479 0.0
C513 C 0.15862 0.4466 0.46197 0.0
O514 O 0.14196 0.44374 0.46958 0.0
H515 H 0.10703 0.46781 0.47455 0.0
H516 H 0.12263 0.46246 0.41763 0.0
N517 N 0.14873 0.49841 0.43214 0.0
N518 N 0.16378 0.51913 0.41331 0.0
C519 C 0.1652 0.5074 0.42843 0.0
C520 C 0.1366 0.50462 0.41891 0.0
C521 C 0.14577 0.51728 0.40732 0.0
C522 C 0.13618 0.49123 0.49151 0.0
O523 O 0.13902 0.47321 0.49479 0.0
H524 H 0.17775 0.50586 0.43703 0.0
H525 H 0.12192 0.50053 0.41798 0.0
O526 O 0.16229 0.46269 0.45467 0.0
H527 H 0.09092 0.44309 0.42299 0.0
H528 H 0.13957 0.52464 0.39542 0.0
Cu529 Cu 0.38223 0.54027 0.95591 0.0
N530 N 0.40583 0.55122 0.95071 0.0
N531 N 0.43293 0.56709 0.95456 0.0
C532 C 0.41727 0.56019 0.96303 0.0
C533 C 0.43126 0.56229 0.93617 0.0
C534 C 0.41451 0.55262 0.93383 0.0
O535 O 0.38441 0.52724 0.98008 0.0
C536 C 0.36006 0.5683 0.93983 0.0
O537 O 0.3672 0.56073 0.92445 0.0
H538 H 0.41426 0.56159 0.97793 0.0
H539 H 0.40892 0.54724 0.92067 0.0
N540 N 0.37656 0.52187 0.93753 0.0
N541 N 0.36173 0.50124 0.91846 0.0
C542 C 0.35971 0.51575 0.93086 0.0
C543 C 0.38953 0.51076 0.92927 0.0
C544 C 0.38054 0.49817 0.91757 0.0
C545 C 0.38643 0.53541 0.99596 0.0
O546 O 0.38487 0.55387 0.99693 0.0
H547 H 0.34632 0.52172 0.93514 0.0
H548 H 0.40454 0.51146 0.93199 0.0
O549 O 0.364 0.5609 0.95577 0.0
H550 H 0.44121 0.56588 0.92511 0.0
H551 H 0.38742 0.48714 0.90955 0.0
Cu552 Cu 0.70369 0.78762 0.89283 0.0
N553 N 0.69938 0.80189 0.87092 0.0
N554 N 0.70627 0.81979 0.84562 0.0
C555 C 0.71298 0.80784 0.85897 0.0
C556 C 0.68759 0.82124 0.84935 0.0
C557 C 0.68342 0.81027 0.86498 0.0
O558 O 0.72582 0.7725 0.88678 0.0
C559 C 0.71651 0.8205 0.91174 0.0
O560 O 0.72832 0.82174 0.89747 0.0
H561 H 0.7277 0.80416 0.8607 0.0
H562 H 0.66985 0.80897 0.87187 0.0
N563 N 0.68327 0.77138 0.89807 0.0
N564 N 0.66386 0.75084 0.91263 0.0
C565 C 0.67938 0.76196 0.91429 0.0
C566 C 0.66976 0.76611 0.88583 0.0
C567 C 0.65782 0.75354 0.89471 0.0
C568 C 0.74211 0.77227 0.89432 0.0
O569 O 0.74537 0.78235 0.90956 0.0
H570 H 0.68805 0.76287 0.92685 0.0
H571 H 0.66879 0.7709 0.87133 0.0
O572 O 0.70619 0.80583 0.9133 0.0
H573 H 0.67763 0.82983 0.84158 0.0
H574 H 0.64559 0.74694 0.88838 0.0
Cu575 Cu 0.47565 0.45705 0.15051 0.0
N576 N 0.46434 0.45366 0.12673 0.0
N577 N 0.44912 0.46052 0.09984 0.0
C578 C 0.45857 0.46744 0.11489 0.0
C579 C 0.44914 0.4416 0.10216 0.0
C580 C 0.45841 0.43743 0.11882 0.0
O581 O 0.49111 0.47998 0.14845 0.0
C582 C 0.43941 0.46508 0.1658 0.0
O583 O 0.43805 0.47578 0.1507 0.0
H584 H 0.46078 0.48232 0.11749 0.0
H585 H 0.46011 0.42358 0.12507 0.0
N586 N 0.4924 0.43695 0.15539 0.0
N587 N 0.51388 0.41811 0.1692 0.0
C588 C 0.50088 0.43193 0.17182 0.0
C589 C 0.50029 0.4259 0.1421 0.0
C590 C 0.51342 0.41431 0.15051 0.0
C591 C 0.48523 0.49693 0.14697 0.0
O592 O 0.46729 0.50059 0.1498 0.0
H593 H 0.49826 0.43888 0.18519 0.0
H594 H 0.49722 0.42671 0.12714 0.0
O595 O 0.45506 0.4568 0.16921 0.0
H596 H 0.44219 0.43159 0.09293 0.0
H597 H 0.52226 0.40411 0.14334 0.0
Cu598 Cu 0.82019 0.23295 0.39387 0.0
N599 N 0.8257 0.21999 0.37148 0.0
N600 N 0.82161 0.20238 0.34547 0.0
C601 C 0.8131 0.21196 0.35968 0.0
C602 C 0.84032 0.20458 0.34859 0.0
C603 C 0.84277 0.2153 0.36464 0.0
O604 O 0.79631 0.24609 0.38963 0.0
C605 C 0.83381 0.20621 0.41943 0.0
O606 O 0.84998 0.21335 0.41378 0.0
H607 H 0.798 0.21272 0.36187 0.0
H608 H 0.85607 0.21911 0.37108 0.0
N609 N 0.83947 0.25054 0.39935 0.0
N610 N 0.85928 0.27054 0.41405 0.0
C611 C 0.84463 0.25832 0.41605 0.0
C612 C 0.85114 0.25819 0.38644 0.0
C613 C 0.86324 0.27044 0.39535 0.0
C614 C 0.79621 0.25942 0.37748 0.0
O615 O 0.81214 0.26407 0.36919 0.0
H616 H 0.83787 0.25494 0.42936 0.0
H617 H 0.85071 0.25525 0.37145 0.0
O618 O 0.81853 0.21346 0.4133 0.0
H619 H 0.85154 0.19887 0.33994 0.0
H620 H 0.87387 0.27894 0.38839 0.0
Cu621 Cu 0.04333 0.57022 0.6419 0.0
N622 N 0.05376 0.57472 0.61784 0.0
N623 N 0.06872 0.56881 0.59047 0.0
C624 C 0.05826 0.56157 0.60479 0.0
C625 C 0.07046 0.58737 0.59458 0.0
C626 C 0.06134 0.59092 0.61144 0.0
O627 O 0.02747 0.54773 0.63977 0.0
C628 C 0.08011 0.56072 0.65457 0.0
O629 O 0.08124 0.55296 0.63777 0.0
H630 H 0.05517 0.54673 0.60658 0.0
H631 H 0.06109 0.60419 0.619 0.0
N632 N 0.02775 0.5906 0.64893 0.0
N633 N 1.00891 0.61012 0.66545 0.0
C634 C 0.02007 0.59454 0.66601 0.0
C635 C 0.0211 0.604 0.63721 0.0
C636 C 1.0096 0.61602 0.64729 0.0
C637 C 0.03372 0.53092 0.63847 0.0
O638 O 0.05183 0.52778 0.64074 0.0
H639 H 0.02258 0.5861 0.67853 0.0
H640 H 0.02405 0.60476 0.62223 0.0
O641 O 0.06448 0.56806 0.65976 0.0
H642 H 0.07831 0.59763 0.58639 0.0
H643 H 1.00187 0.62785 0.64146 0.0
Cu644 Cu 0.70475 0.23214 0.63255 0.0
N645 N 0.70082 0.22036 0.65604 0.0
N646 N 0.70709 0.20439 0.68275 0.0
C647 C 0.71431 0.2143 0.66805 0.0
C648 C 0.68822 0.20448 0.67991 0.0
C649 C 0.68442 0.21426 0.66344 0.0
O650 O 0.72771 0.2473 0.63502 0.0
C651 C 0.71263 0.19614 0.61633 0.0
O652 O 0.72239 0.19348 0.63187 0.0
H653 H 0.72921 0.21629 0.66546 0.0
H654 H 0.67072 0.21628 0.657 0.0
N655 N 0.68486 0.24898 0.6273 0.0
N656 N 0.66606 0.26989 0.61262 0.0
C657 C 0.67969 0.25661 0.61052 0.0
C658 C 0.67409 0.25765 0.64033 0.0
C659 C 0.66253 0.27049 0.63137 0.0
C660 C 0.74454 0.24104 0.63594 0.0
O661 O 0.74774 0.22308 0.63268 0.0
H662 H 0.68637 0.25315 0.5972 0.0
H663 H 0.67502 0.25525 0.65541 0.0
O664 O 0.70505 0.21222 0.61334 0.0
H665 H 0.67782 0.19771 0.68885 0.0
H666 H 0.65249 0.2798 0.63818 0.0
Cu667 Cu 0.04074 0.45474 0.88511 0.0
N668 N 0.05191 0.44953 0.90865 0.0
N669 N 0.06737 0.45357 0.93601 0.0
C670 C 0.05837 0.4621 0.92146 0.0
C671 C 0.06633 0.4349 0.93229 0.0
C672 C 0.0569 0.43248 0.9154 0.0
O673 O 0.02664 0.47836 0.88763 0.0
C674 C 0.07725 0.46156 0.86975 0.0
O675 O 0.08005 0.47031 0.88585 0.0
H676 H 0.05689 0.47721 0.91993 0.0
H677 H 0.05439 0.41923 0.90822 0.0
N678 N 0.02311 0.4357 0.87927 0.0
N679 N 1.00178 0.41772 0.8642 0.0
C680 C 0.01564 0.43081 0.86234 0.0
C681 C 0.01372 0.42529 0.89213 0.0
C682 C 1.00065 0.41424 0.88294 0.0
C683 C 0.03385 0.49469 0.88979 0.0
O684 O 0.05218 0.49682 0.88818 0.0
H685 H 0.01969 0.4373 0.84907 0.0
H686 H 0.01584 0.42612 0.90725 0.0
O687 O 0.06096 0.45474 0.86617 0.0
H688 H 0.07264 0.42382 0.94074 0.0
H689 H 0.99084 0.40456 0.88959 0.0
Cu690 Cu 0.8165 0.7937 0.13108 0.0
N691 N 0.81971 0.80581 0.15447 0.0
N692 N 0.81251 0.82175 0.18083 0.0
C693 C 0.80579 0.81176 0.16605 0.0
C694 C 0.83142 0.82195 0.1786 0.0
C695 C 0.83581 0.81225 0.16225 0.0
O696 O 0.79398 0.77793 0.13332 0.0
C697 C 0.80799 0.82939 0.11429 0.0
O698 O 0.79813 0.83219 0.12976 0.0
H699 H 0.79096 0.80928 0.16341 0.0
H700 H 0.84969 0.81063 0.1561 0.0
N701 N 0.83706 0.77765 0.12596 0.0
N702 N 0.85718 0.75833 0.11087 0.0
C703 C 0.84166 0.76942 0.10934 0.0
C704 C 0.84998 0.7714 0.13842 0.0
C705 C 0.86241 0.75961 0.12918 0.0
C706 C 0.77703 0.7839 0.13354 0.0
O707 O 0.77364 0.80173 0.12974 0.0
H708 H 0.83376 0.77154 0.09641 0.0
H709 H 0.85017 0.77487 0.1533 0.0
O710 O 0.8158 0.81337 0.11162 0.0
H711 H 0.84129 0.82933 0.18765 0.0
H712 H 0.87407 0.75212 0.13562 0.0
Cu713 Cu 0.48086 0.57298 0.38654 0.0
N714 N 0.46936 0.57865 0.40977 0.0
N715 N 0.45292 0.5743 0.43651 0.0
C716 C 0.46437 0.56632 0.42346 0.0
C717 C 0.45072 0.59237 0.43087 0.0
C718 C 0.46066 0.59493 0.4143 0.0
O719 O 0.49564 0.55 0.39008 0.0
C720 C 0.45765 0.57404 0.35234 0.0
O721 O 0.47252 0.57971 0.34281 0.0
H722 H 0.46836 0.5516 0.42348 0.0
H723 H 0.46053 0.60745 0.40552 0.0
N724 N 0.49688 0.59304 0.37918 0.0
N725 N 0.51814 0.61118 0.36403 0.0
C726 C 0.5078 0.59505 0.36356 0.0
C727 C 0.50065 0.60832 0.38982 0.0
C728 C 0.51356 0.6195 0.38056 0.0
C729 C 0.48788 0.53405 0.39304 0.0
O730 O 0.46943 0.53263 0.39167 0.0
H731 H 0.50863 0.58465 0.3524 0.0
H732 H 0.49478 0.61103 0.40365 0.0
O733 O 0.45927 0.56982 0.36975 0.0
H734 H 0.44155 0.60264 0.43751 0.0
H735 H 0.51916 0.63275 0.38569 0.0
Cu736 Cu 0.89487 0.70519 0.79507 0.0
N737 N 0.87229 0.69949 0.80757 0.0
N738 N 0.84647 0.70426 0.8252 0.0
C739 C 0.85901 0.712 0.81303 0.0
C740 C 0.85201 0.68614 0.82733 0.0
C741 C 0.86795 0.68326 0.81648 0.0
O742 O 0.89072 0.72927 0.78206 0.0
C743 C 0.91101 0.71778 0.82896 0.0
O744 O 0.89745 0.73038 0.82771 0.0
H745 H 0.85935 0.72682 0.80924 0.0
H746 H 0.87639 0.67054 0.81594 0.0
N747 N 0.90131 0.68564 0.77819 0.0
N748 N 0.91725 0.66648 0.75853 0.0
C749 C 0.91808 0.68195 0.76981 0.0
C750 C 0.88952 0.67214 0.77196 0.0
C751 C 0.89923 0.66038 0.7599 0.0
C752 C 0.88616 0.72999 0.76463 0.0
O753 O 0.88609 0.71436 0.75466 0.0
H754 H 0.93063 0.69037 0.77209 0.0
H755 H 0.87477 0.67104 0.77579 0.0
O756 O 0.91359 0.70651 0.81517 0.0
H757 H 0.84538 0.67586 0.83652 0.0
H758 H 0.89329 0.64845 0.75242 0.0
Cu759 Cu 0.56867 0.64 0.04508 0.0
N760 N 0.57208 0.61681 0.0575 0.0
N761 N 0.56474 0.59146 0.07518 0.0
C762 C 0.55811 0.6058 0.06437 0.0
C763 C 0.58372 0.59356 0.07492 0.0
C764 C 0.58816 0.60922 0.06414 0.0
O765 O 0.54448 0.6378 0.03191 0.0
C766 C 0.5568 0.65782 0.07858 0.0
O767 O 0.54278 0.64576 0.07715 0.0
H768 H 0.54331 0.60895 0.06229 0.0
H769 H 0.60209 0.6151 0.06198 0.0
N770 N 0.5886 0.64506 0.02802 0.0
N771 N 0.60735 0.65919 1.00655 0.0
C772 C 0.59256 0.66126 0.01859 0.0
C773 C 0.60136 0.63244 0.02179 0.0
C774 C 0.61288 0.64105 1.00867 0.0
C775 C 0.54367 0.63321 0.01449 0.0
O776 O 0.55937 0.63202 1.0047 0.0
H777 H 0.58437 0.67407 0.02007 0.0
H778 H 0.60197 0.61782 0.02615 0.0
O779 O 0.56874 0.65883 0.06514 0.0
H780 H 0.59375 0.58471 0.0823 0.0
H781 H 0.62442 0.63436 1.00122 0.0
Cu782 Cu 0.6311 0.31793 0.29202 0.0
N783 N 0.65457 0.32355 0.30292 0.0
N784 N 0.68176 0.3199 0.31877 0.0
C785 C 0.66605 0.31138 0.31204 0.0
C786 C 0.67998 0.33822 0.31366 0.0
C787 C 0.66322 0.34042 0.30399 0.0
O788 O 0.63432 0.29424 0.27832 0.0
C789 C 0.60907 0.33299 0.32059 0.0
O790 O 0.6161 0.34851 0.31319 0.0
H791 H 0.66274 0.29663 0.31399 0.0
H792 H 0.65768 0.35345 0.29823 0.0
N793 N 0.62474 0.33658 0.27405 0.0
N794 N 0.60925 0.3563 0.25449 0.0
C795 C 0.60773 0.34364 0.26888 0.0
C796 C 0.63729 0.34484 0.26244 0.0
C797 C 0.6279 0.35693 0.25049 0.0
C798 C 0.63664 0.27806 0.28583 0.0
O799 O 0.63445 0.27613 0.30418 0.0
H800 H 0.59457 0.33951 0.27547 0.0
H801 H 0.65228 0.34192 0.2624 0.0
O802 O 0.61304 0.31722 0.31289 0.0
H803 H 0.69009 0.3493 0.3165 0.0
H804 H 0.63438 0.36509 0.23928 0.0
Cu805 Cu 0.95609 0.38319 0.54299 0.0
N806 N 0.95088 0.40612 0.55496 0.0
N807 N 0.95616 0.43195 0.57235 0.0
C808 C 0.96337 0.41561 0.56569 0.0
C809 C 0.93837 0.43276 0.56554 0.0
C810 C 0.93511 0.41672 0.5549 0.0
O811 O 0.98113 0.38694 0.53194 0.0
C812 C 0.93974 0.35966 0.57005 0.0
O813 O 0.9243 0.36657 0.56241 0.0
H814 H 0.97764 0.41077 0.56821 0.0
H815 H 0.92219 0.4131 0.54762 0.0
N816 N 0.9382 0.37812 0.52396 0.0
N817 N 0.92037 0.36345 0.50226 0.0
C818 C 0.9317 0.36132 0.51755 0.0
C819 C 0.93064 0.39118 0.5124 0.0
C820 C 0.91968 0.38223 0.49908 0.0
C821 C 0.9854 0.3838 0.51472 0.0
O822 O 0.97321 0.37513 0.50376 0.0
H823 H 0.93587 0.34783 0.52342 0.0
H824 H 0.93343 0.40617 0.51323 0.0
O825 O 0.95565 0.36422 0.56299 0.0
H826 H 0.9284 0.44404 0.56817 0.0
H827 H 0.91202 0.38904 0.48771 0.0
Cu828 Cu 0.89262 0.31971 0.733 0.0
N829 N 0.86921 0.3239 0.72146 0.0
N830 N 0.84301 0.31749 0.70489 0.0
C831 C 0.85806 0.3103 0.7142 0.0
C832 C 0.84479 0.33643 0.70651 0.0
C833 C 0.86097 0.34033 0.71668 0.0
O834 O 0.89014 0.2947 0.74453 0.0
C835 C 0.90985 0.30924 0.69888 0.0
O836 O 0.89805 0.295 0.70037 0.0
H837 H 0.86144 0.29543 0.71506 0.0
H838 H 0.8666 0.35415 0.71991 0.0
N839 N 0.89744 0.33849 0.75124 0.0
N840 N 0.91159 0.35803 0.77192 0.0
C841 C 0.91407 0.3449 0.75815 0.0
C842 C 0.88406 0.3478 0.76096 0.0
C843 C 0.89265 0.35975 0.77362 0.0
C844 C 0.89068 0.29159 0.76228 0.0
O845 O 0.89594 0.3052 0.77372 0.0
H846 H 0.92765 0.3399 0.75324 0.0
H847 H 0.86904 0.34569 0.75923 0.0
O848 O 0.91102 0.3209 0.71253 0.0
H849 H 0.83524 0.3468 0.7006 0.0
H850 H 0.88534 0.36859 0.78372 0.0
Cu851 Cu 0.95658 0.64438 0.98489 0.0
N852 N 0.95198 0.62132 0.97288 0.0
N853 N 0.95796 0.59542 0.95577 0.0
C854 C 0.9652 0.6112 0.96366 0.0
C855 C 0.93942 0.59563 0.96019 0.0
C856 C 0.93574 0.61172 0.97062 0.0
O857 O 0.98123 0.64113 0.99693 0.0
C858 C 0.94087 0.66768 0.95742 0.0
O859 O 0.92535 0.66063 0.96478 0.0
H860 H 0.97989 0.61534 0.96284 0.0
H861 H 0.92213 0.61621 0.9759 0.0
N862 N 0.93768 0.64989 1.00288 0.0
N863 N 0.9183 0.66538 0.02266 0.0
C864 C 0.93225 0.66693 1.00961 0.0
C865 C 0.92694 0.63721 1.01212 0.0
C866 C 0.91497 0.64666 0.0242 0.0
C867 C 0.98385 0.64133 0.01477 0.0
O868 O 0.96994 0.64637 0.02595 0.0
H869 H 0.93838 0.68015 1.00498 0.0
H870 H 0.92796 0.62207 1.01043 0.0
O871 O 0.95669 0.66318 0.96471 0.0
H872 H 0.92918 0.58517 0.95583 0.0
H873 H 0.90495 0.64018 0.03377 0.0
Cu874 Cu 0.63074 0.70483 0.23339 0.0
N875 N 0.6535 0.70077 0.22062 0.0
N876 N 0.67896 0.70735 0.20296 0.0
C877 C 0.66414 0.71443 0.21272 0.0
C878 C 0.67749 0.6884 0.20485 0.0
C879 C 0.66174 0.6844 0.21566 0.0
O880 O 0.63377 0.72945 0.24563 0.0
C881 C 0.60632 0.68891 0.2069 0.0
O882 O 0.61288 0.67333 0.21457 0.0
H883 H 0.66058 0.72927 0.21357 0.0
H884 H 0.65644 0.67053 0.21928 0.0
N885 N 0.62633 0.68557 0.25131 0.0
N886 N 0.61252 0.66652 0.27266 0.0
C887 C 0.60994 0.68046 0.25974 0.0
C888 C 0.63962 0.67447 0.2591 0.0
C889 C 0.6312 0.66274 0.27216 0.0
C890 C 0.63431 0.73176 0.2635 0.0
O891 O 0.63036 0.71747 0.27466 0.0
H892 H 0.59655 0.68723 0.25685 0.0
H893 H 0.6545 0.67509 0.25575 0.0
O894 O 0.61145 0.70476 0.21371 0.0
H895 H 0.68699 0.67809 0.19878 0.0
H896 H 0.63839 0.65225 0.28065 0.0
Cu897 Cu 0.56585 0.38043 0.48425 0.0
N898 N 0.56925 0.40456 0.47361 0.0
N899 N 0.56255 0.43168 0.45869 0.0
C900 C 0.55552 0.41636 0.46766 0.0
C901 C 0.58148 0.42961 0.45928 0.0
C902 C 0.58555 0.41282 0.46837 0.0
O903 O 0.54287 0.38182 0.49967 0.0
C904 C 0.55777 0.36624 0.44758 0.0
O905 O 0.54748 0.3816 0.44652 0.0
H906 H 0.54062 0.41351 0.46933 0.0
H907 H 0.59941 0.40672 0.4704 0.0
N908 N 0.58593 0.37516 0.50091 0.0
N909 N 0.606 0.36063 0.52088 0.0
C910 C 0.59213 0.35841 0.50778 0.0
C911 C 0.59606 0.38834 0.51001 0.0
C912 C 0.60836 0.37954 0.52219 0.0
C913 C 0.52601 0.38322 0.49354 0.0
O914 O 0.52269 0.38089 0.47545 0.0
H915 H 0.58634 0.34495 0.50347 0.0
H916 H 0.59418 0.40341 0.50836 0.0
O917 O 0.56599 0.3623 0.46316 0.0
H918 H 0.5916 0.43907 0.45278 0.0
H919 H 0.61778 0.38674 0.53181 0.0
Cu920 Cu 0.79091 0.89061 0.70562 0.0
N921 N 0.80254 0.86731 0.70056 0.0
N922 N 0.81865 0.84035 0.70466 0.0
C923 C 0.81135 0.85587 0.71305 0.0
C924 C 0.81431 0.84214 0.68616 0.0
C925 C 0.80451 0.8588 0.68367 0.0
O926 O 0.77687 0.88763 0.72918 0.0
C927 C 0.81854 0.91397 0.69042 0.0
O928 O 0.81135 0.90697 0.67481 0.0
H929 H 0.8123 0.85877 0.72801 0.0
H930 H 0.79937 0.86442 0.67041 0.0
N931 N 0.77305 0.89618 0.68664 0.0
N932 N 0.75289 0.91096 0.667 0.0
C933 C 0.76688 0.91303 0.67996 0.0
C934 C 0.76247 0.88314 0.67782 0.0
C935 C 0.75017 0.89211 0.66576 0.0
C936 C 0.78408 0.88556 0.74554 0.0
O937 O 0.80238 0.88765 0.7477 0.0
H938 H 0.77246 0.92646 0.68463 0.0
H939 H 0.76333 0.8681 0.68037 0.0
O940 O 0.81113 0.90938 0.70621 0.0
H941 H 0.81829 0.83233 0.67513 0.0
H942 H 0.73957 0.88516 0.65723 0.0
Cu943 Cu 0.29514 0.63292 0.3205 0.0
N944 N 0.30717 0.65595 0.32581 0.0
N945 N 0.32395 0.68225 0.32043 0.0
C946 C 0.31126 0.66986 0.31338 0.0
C947 C 0.32769 0.67608 0.33811 0.0
C948 C 0.3174 0.65987 0.34135 0.0
O949 O 0.27916 0.63698 0.29827 0.0
C950 C 0.33114 0.61907 0.3101 0.0
O951 O 0.33255 0.63582 0.30228 0.0
H952 H 0.30636 0.66992 0.2989 0.0
H953 H 0.31827 0.65086 0.35368 0.0
N954 N 0.27949 0.62612 0.34098 0.0
N955 N 0.25876 0.61101 0.35975 0.0
C956 C 0.26937 0.61012 0.34378 0.0
C957 C 0.27516 0.63736 0.35567 0.0
C958 C 0.2625 0.62815 0.36721 0.0
C959 C 0.28519 0.63883 0.28139 0.0
O960 O 0.30311 0.63585 0.27779 0.0
H961 H 0.26932 0.59836 0.33402 0.0
H962 H 0.28056 0.6515 0.35768 0.0
O963 O 0.31547 0.61424 0.31763 0.0
H964 H 0.33778 0.68234 0.34773 0.0
H965 H 0.25646 0.63372 0.38011 0.0
Cu966 Cu 0.64225 0.04157 0.56929 0.0
N967 N 0.6191 0.05332 0.57458 0.0
N968 N 0.59197 0.06921 0.57047 0.0
C969 C 0.60642 0.05998 0.56199 0.0
C970 C 0.59574 0.06803 0.58919 0.0
C971 C 0.61244 0.05835 0.59164 0.0
O972 O 0.63887 0.02713 0.54596 0.0
C973 C 0.65833 0.07766 0.56179 0.0
O974 O 0.64252 0.08051 0.55254 0.0
H975 H 0.60824 0.05867 0.54688 0.0
H976 H 0.61946 0.05552 0.60492 0.0
N977 N 0.64786 0.02406 0.58855 0.0
N978 N 0.66264 1.00269 0.60677 0.0
C979 C 0.66467 0.0164 0.59351 0.0
C980 C 0.63492 0.01494 0.59907 0.0
C981 C 0.64393 1.00185 0.61028 0.0
C982 C 0.63722 0.03386 0.52933 0.0
O983 O 0.64015 0.05195 0.5265 0.0
H984 H 0.67795 0.02018 0.58695 0.0
H985 H 0.61985 0.01726 0.59821 0.0
O986 O 0.66153 0.06143 0.56896 0.0
H987 H 0.58721 0.07385 0.60045 0.0
H988 H 0.63717 0.99221 0.62006 0.0
Cu989 Cu 0.23126 0.39205 0.82057 0.0
N990 N 0.2194 0.36852 0.82382 0.0
N991 N 0.20286 0.3425 0.81679 0.0
C992 C 0.21203 0.35775 0.80994 0.0
C993 C 0.20474 0.34349 0.83574 0.0
C994 C 0.21483 0.35964 0.84004 0.0
O995 O 0.24648 0.39019 0.79757 0.0
C996 C 0.19549 0.40905 0.81293 0.0
O997 O 0.19278 0.39416 0.80226 0.0
H998 H 0.21296 0.36126 0.79509 0.0
H999 H 0.21806 0.36485 0.85404 0.0
N1000 N 0.24819 0.39673 0.84052 0.0
N1001 N 0.26938 0.411 0.85928 0.0
C1002 C 0.25598 0.41335 0.84582 0.0
C1003 C 0.25692 0.38351 0.85103 0.0
C1004 C 0.26991 0.39222 0.86258 0.0
C1005 C 0.24036 0.38946 0.78065 0.0
O1006 O 0.22243 0.39268 0.77733 0.0
H1007 H 0.25256 0.42675 0.83927 0.0
H1008 H 0.25453 0.36847 0.84986 0.0
O1009 O 0.21148 0.41139 0.8209 0.0
H1010 H 0.19855 0.33373 0.84578 0.0
H1011 H 0.27929 0.3852 0.87241 0.0
Cu1012 Cu 0.38274 0.48503 0.57392 0.0
N1013 N 0.40562 0.47246 0.5782 0.0
N1014 N 0.43086 0.45445 0.57195 0.0
C1015 C 0.41497 0.46239 0.56502 0.0
C1016 C 0.43161 0.45983 0.59024 0.0
C1017 C 0.41594 0.47085 0.5941 0.0
O1018 O 0.38557 0.49594 0.54875 0.0
C1019 C 0.36217 0.45225 0.56386 0.0
O1020 O 0.37324 0.45233 0.54895 0.0
H1021 H 0.41028 0.46107 0.55052 0.0
H1022 H 0.41227 0.47707 0.60756 0.0
N1023 N 0.37841 0.50396 0.59213 0.0
N1024 N 0.36411 0.52576 0.61025 0.0
C1025 C 0.36173 0.51113 0.59811 0.0
C1026 C 0.39172 0.5143 0.60084 0.0
C1027 C 0.38301 0.52766 0.612 0.0
C1028 C 0.38291 0.51325 0.54464 0.0
O1029 O 0.37525 0.52452 0.55723 0.0
H1030 H 0.34817 0.50622 0.59306 0.0
H1031 H 0.40676 0.51255 0.59885 0.0
O1032 O 0.36312 0.4659 0.57554 0.0
H1033 H 0.44248 0.45579 0.60021 0.0
H1034 H 0.39013 0.53807 0.62062 0.0
Cu1035 Cu 0.73476 0.12981 0.20647 0.0
N1036 N 0.72201 0.15272 0.20286 0.0
N1037 N 0.70462 0.17825 0.20986 0.0
C1038 C 0.71538 0.16401 0.2167 0.0
C1039 C 0.70464 0.17581 0.1909 0.0
C1040 C 0.71528 0.16004 0.18666 0.0
O1041 O 0.74772 0.13207 0.23072 0.0
C1042 C 0.70068 0.11098 0.21588 0.0
O1043 O 0.6994 0.124 0.22904 0.0
H1044 H 0.71764 0.16119 0.23157 0.0
H1045 H 0.71741 0.15396 0.1728 0.0
N1046 N 0.75224 0.12519 0.18686 0.0
N1047 N 0.77348 0.11103 0.16797 0.0
C1048 C 0.76147 0.10896 0.18278 0.0
C1049 C 0.75854 0.13786 0.17414 0.0
C1050 C 0.77157 0.12923 0.16255 0.0
C1051 C 0.76253 0.14228 0.23124 0.0
O1052 O 0.76902 0.14945 0.21537 0.0
H1053 H 0.75972 0.09604 0.1908 0.0
H1054 H 0.75416 0.15247 0.17351 0.0
O1055 O 0.71554 0.1102 0.20576 0.0
H1056 H 0.69727 0.18457 0.18077 0.0
H1057 H 0.779 0.13589 0.15095 0.0
Cu1058 Cu 0.64635 0.97659 0.95347 0.0
N1059 N 0.62307 0.96435 0.94973 0.0
N1060 N 0.59654 0.9482 0.95631 0.0
C1061 C 0.61044 0.9594 0.96316 0.0
C1062 C 0.60055 0.94628 0.93771 0.0
C1063 C 0.6169 0.95612 0.93376 0.0
O1064 O 0.64395 0.99202 0.97631 0.0
C1065 C 0.66266 0.9408 0.96181 0.0
O1066 O 0.64677 0.93801 0.97094 0.0
H1067 H 0.61206 0.96305 0.97789 0.0
H1068 H 0.62421 0.95661 0.92033 0.0
N1069 N 0.65154 0.99299 0.9331 0.0
N1070 N 0.66571 0.01408 0.91398 0.0
C1071 C 0.66756 1.00276 0.92937 0.0
C1072 C 0.63925 0.99828 0.91962 0.0
C1073 C 0.64789 1.01116 0.90785 0.0
C1074 C 0.64222 0.98543 0.99299 0.0
O1075 O 0.64445 0.96726 0.99586 0.0
H1076 H 0.68007 1.00201 0.93811 0.0
H1077 H 0.62483 0.9934 0.91859 0.0
O1078 O 0.66578 0.95687 0.95423 0.0
H1079 H 0.59259 0.93798 0.92767 0.0
H1080 H 0.64145 0.01789 0.89571 0.0
Cu1081 Cu 0.87765 0.04445 0.45718 0.0
N1082 N 0.89984 0.05719 0.45074 0.0
N1083 N 0.92515 0.07582 0.45432 0.0
C1084 C 0.91146 0.06578 0.4631 0.0
C1085 C 0.92203 0.07325 0.43565 0.0
C1086 C 0.90636 0.06183 0.43349 0.0
O1087 O 0.88258 0.03372 0.48214 0.0
C1088 C 0.8592 0.07716 0.46909 0.0
O1089 O 0.87137 0.07565 0.48303 0.0
H1090 H 0.90963 0.06492 0.47827 0.0
H1091 H 0.8998 0.05775 0.42031 0.0
N1092 N 0.87265 0.02539 0.43938 0.0
N1093 N 0.85845 1.0032 0.42179 0.0
C1094 C 0.85598 0.01791 0.43379 0.0
C1095 C 0.88598 0.01519 0.43051 0.0
C1096 C 0.87732 1.00156 0.4197 0.0
C1097 C 0.87867 0.0169 0.4872 0.0
O1098 O 0.86866 1.00613 0.47591 0.0
H1099 H 0.84241 0.02265 0.439 0.0
H1100 H 0.90102 0.01728 0.43214 0.0
O1101 O 0.85821 0.06384 0.45705 0.0
H1102 H 0.93001 0.07972 0.42431 0.0
H1103 H 0.88442 0.99111 0.41108 0.0
H1104 H 0.12484 0.18794 0.51714 0.0
H1105 H 0.09845 0.17921 0.46291 0.0
H1106 H 0.14681 0.21046 0.50264 0.0
H1107 H 0.12036 0.2017 0.44841 0.0
H1108 H 0.15567 0.25648 0.43394 0.0
H1109 H 0.13092 0.23679 0.44833 0.0
H1110 H 0.17336 0.20569 0.47901 0.0
H1111 H 0.1978 0.22442 0.4644 0.0
C1112 C 0.12356 0.19102 0.5022 0.0
C1113 C 0.11002 0.18161 0.49117 0.0
C1114 C 0.1362 0.20384 0.49384 0.0
C1115 C 0.13542 0.20781 0.47431 0.0
C1116 C 0.12132 0.19905 0.46347 0.0
C1117 C 0.10888 0.18601 0.47176 0.0
C1118 C 0.15974 0.24536 0.44362 0.0
C1119 C 0.1789 0.24247 0.44815 0.0
C1120 C 0.14553 0.23412 0.45194 0.0
C1121 C 0.15014 0.2199 0.46514 0.0
C1122 C 0.16924 0.21682 0.46933 0.0
C1123 C 0.18334 0.22775 0.46088 0.0
H1124 H 0.11943 0.88062 0.72142 0.0
H1125 H 0.07505 0.86414 0.75995 0.0
H1126 H 0.09625 0.89445 0.70034 0.0
H1127 H 0.05156 0.8776 0.73832 0.0
H1128 H 0.01713 0.92081 0.70193 0.0
H1129 H 0.03976 0.90794 0.72483 0.0
H1130 H 0.07204 0.88389 0.67899 0.0
H1131 H 0.04998 0.89708 0.65634 0.0
C1132 C 0.10472 0.88 0.7255 0.0
C1133 C 0.09922 0.87124 0.74253 0.0
C1134 C 0.09134 0.88778 0.71323 0.0
C1135 C 0.07196 0.88709 0.7175 0.0
C1136 C 0.06637 0.87851 0.73461 0.0
C1137 C 0.07983 0.87061 0.74693 0.0
C1138 C 0.02915 0.91291 0.69677 0.0
C1139 C 0.03163 0.90999 0.67723 0.0
C1140 C 0.04203 0.90535 0.70991 0.0
C1141 C 0.05781 0.89487 0.7038 0.0
C1142 C 0.06023 0.89204 0.68427 0.0
C1143 C 0.04739 0.89947 0.67122 0.0
H1144 H 0.38051 0.85661 0.9968 0.0
H1145 H 0.43316 0.82596 0.99492 0.0
H1146 H 0.36618 0.83342 0.9759 0.0
H1147 H 0.41861 0.80233 0.97445 0.0
H1148 H 0.39351 0.77929 0.91874 0.0
H1149 H 0.40774 0.79995 0.9422 0.0
H1150 H 0.35514 0.80118 0.9731 0.0
H1151 H 0.34069 0.78092 0.94917 0.0
C1152 C 0.38905 0.84488 0.99201 0.0
C1153 C 0.4081 0.84334 0.99747 0.0
C1154 C 0.38072 0.8314 0.98016 0.0
C1155 C 0.3912 0.81595 0.97336 0.0
C1156 C 0.41014 0.81414 0.97919 0.0
C1157 C 0.41846 0.82762 0.99111 0.0
C1158 C 0.38491 0.78398 0.93049 0.0
C1159 C 0.36584 0.77853 0.93188 0.0
C1160 C 0.39318 0.79568 0.94412 0.0
C1161 C 0.38263 0.80235 0.95959 0.0
C1162 C 0.36367 0.79653 0.96127 0.0
C1163 C 0.3554 0.78473 0.94764 0.0
H1164 H 0.45238 0.18443 0.23838 0.0
H1165 H 0.42462 0.13048 0.24459 0.0
H1166 H 0.47529 0.17014 0.21692 0.0
H1167 H 0.44705 0.11638 0.2227 0.0
H1168 H 0.49966 0.09225 0.19489 0.0
H1169 H 0.47959 0.10687 0.21882 0.0
H1170 H 0.47665 0.1577 0.18513 0.0
H1171 H 0.49719 0.14334 0.16159 0.0
C1172 C 0.45119 0.16951 0.23528 0.0
C1173 C 0.43651 0.15869 0.24321 0.0
C1174 C 0.46424 0.16133 0.22279 0.0
C1175 C 0.46304 0.14207 0.21795 0.0
C1176 C 0.44859 0.13119 0.22619 0.0
C1177 C 0.43553 0.13937 0.23861 0.0
C1178 C 0.49497 0.10663 0.1927 0.0
C1179 C 0.50003 0.11652 0.17618 0.0
C1180 C 0.48326 0.11497 0.20635 0.0
C1181 C 0.47636 0.13348 0.20393 0.0
C1182 C 0.48179 0.1435 0.18762 0.0
C1183 C 0.49343 0.13516 0.17396 0.0
H1184 H 0.14571 0.80226 0.11852 0.0
H1185 H 0.16482 0.76562 0.07368 0.0
H1186 H 0.13195 0.82353 0.09537 0.0
H1187 H 0.15135 0.78736 0.05027 0.0
H1188 H 0.10727 0.82261 0.01575 0.0
H1189 H 0.12053 0.79981 0.03827 0.0
H1190 H 0.14265 0.8458 0.0716 0.0
H1191 H 0.12914 0.86837 0.04955 0.0
C1192 C 0.14693 0.79865 0.10372 0.0
C1193 C 0.15638 0.78211 0.09805 0.0
C1194 C 0.13918 0.81101 0.09037 0.0
C1195 C 0.14058 0.80726 0.0709 0.0
C1196 C 0.14989 0.79064 0.06515 0.0
C1197 C 0.15779 0.77827 0.07856 0.0
C1198 C 0.11485 0.82782 0.02796 0.0
C1199 C 0.11712 0.84738 0.03076 0.0
C1200 C 0.12262 0.81475 0.04077 0.0
C1201 C 0.13266 0.82093 0.05681 0.0
C1202 C 0.13486 0.84048 0.05956 0.0
C1203 C 0.12725 0.85347 0.04674 0.0
H1204 H 0.50809 0.91196 0.32392 0.0
H1205 H 0.46257 0.91333 0.36444 0.0
H1206 H 0.48659 0.89823 0.30032 0.0
H1207 H 0.44127 0.89973 0.34111 0.0
H1208 H 0.40369 0.89529 0.28937 0.0
H1209 H 0.4265 0.9097 0.31044 0.0
H1210 H 0.46757 0.86738 0.29531 0.0
H1211 H 0.44452 0.85243 0.27442 0.0
C1212 C 0.4935 0.90943 0.32774 0.0
C1213 C 0.48707 0.91368 0.34608 0.0
C1214 C 0.48124 0.90144 0.3143 0.0
C1215 C 0.46219 0.8979 0.31881 0.0
C1216 C 0.45579 0.9024 0.33709 0.0
C1217 C 0.46806 0.91006 0.35053 0.0
C1218 C 0.41745 0.88881 0.29052 0.0
C1219 C 0.42193 0.87235 0.28026 0.0
C1220 C 0.43062 0.89721 0.30262 0.0
C1221 C 0.44882 0.88961 0.30473 0.0
C1222 C 0.45369 0.87364 0.29395 0.0
C1223 C 0.4404 0.86506 0.28194 0.0
H1224 H 0.39675 0.24646 0.60831 0.0
H1225 H 0.34332 0.24509 0.57898 0.0
H1226 H 0.41016 0.22509 0.58499 0.0
H1227 H 0.35697 0.22419 0.55519 0.0
H1228 H 0.38055 0.16826 0.5316 0.0
H1229 H 0.36726 0.19189 0.55266 0.0
H1230 H 0.42041 0.22179 0.55261 0.0
H1231 H 0.43395 0.19766 0.53198 0.0
C1232 C 0.38784 0.24168 0.59685 0.0
C1233 C 0.36884 0.24743 0.59573 0.0
C1234 C 0.39564 0.22956 0.58329 0.0
C1235 C 0.38469 0.22279 0.56816 0.0
C1236 C 0.3658 0.2289 0.56676 0.0
C1237 C 0.358 0.24108 0.58033 0.0
C1238 C 0.38948 0.1798 0.53611 0.0
C1239 C 0.40844 0.18086 0.53018 0.0
C1240 C 0.38175 0.19354 0.54804 0.0
C1241 C 0.39272 0.20881 0.55444 0.0
C1242 C 0.41157 0.21013 0.54818 0.0
C1243 C 0.41931 0.19637 0.53617 0.0
H1244 H 0.11728 0.15925 0.80465 0.0
H1245 H 0.07559 0.15943 0.76022 0.0
H1246 H 0.09435 0.14559 0.8264 0.0
H1247 H 0.05239 0.14559 0.78218 0.0
H1248 H 0.02736 0.09918 0.82469 0.0
H1249 H 0.04771 0.11419 0.80108 0.0
H1250 H 0.06404 0.15625 0.84196 0.0
H1251 H 0.0435 0.14182 0.8653 0.0
C1252 C 0.10321 0.15629 0.79949 0.0
C1253 C 0.0983 0.16038 0.78066 0.0
C1254 C 0.09 0.14859 0.81202 0.0
C1255 C 0.07152 0.14452 0.80605 0.0
C1256 C 0.06655 0.14848 0.78718 0.0
C1257 C 0.07976 0.15652 0.77466 0.0
C1258 C 0.03503 0.11177 0.82864 0.0
C1259 C 0.03388 0.11897 0.8472 0.0
C1260 C 0.04672 0.12038 0.81504 0.0
C1261 C 0.05768 0.13627 0.81971 0.0
C1262 C 0.05607 0.14381 0.838 0.0
C1263 C 0.04428 0.1354 0.85146 0.0
H1264 H 0.23798 0.41133 0.13582 0.0
H1265 H 0.23766 0.44194 0.18852 0.0
H1266 H 0.21807 0.43548 0.12149 0.0
H1267 H 0.21788 0.4664 0.17406 0.0
H1268 H 0.16187 0.48989 0.1485 0.0
H1269 H 0.18502 0.46887 0.16291 0.0
H1270 H 0.21695 0.46857 0.11088 0.0
H1271 H 0.19349 0.48944 0.09634 0.0
C1272 C 0.23374 0.42328 0.14434 0.0
C1273 C 0.23931 0.42457 0.16341 0.0
C1274 C 0.22245 0.43727 0.13604 0.0
C1275 C 0.21627 0.45291 0.14659 0.0
C1276 C 0.22222 0.45446 0.16555 0.0
C1277 C 0.2337 0.44052 0.17381 0.0
C1278 C 0.17383 0.48537 0.14011 0.0
C1279 C 0.17569 0.49126 0.12118 0.0
C1280 C 0.18725 0.47346 0.14846 0.0
C1281 C 0.20288 0.46693 0.13808 0.0
C1282 C 0.205 0.47316 0.11926 0.0
C1283 C 0.19164 0.48526 0.11095 0.0
H1284 H 0.76091 0.07158 0.85879 0.0
H1285 H 0.72342 0.11554 0.87819 0.0
H1286 H 0.73936 0.04768 0.87178 0.0
H1287 H 0.70236 0.09196 0.89144 0.0
H1288 H 0.65817 0.04601 0.89411 0.0
H1289 H 0.68053 0.06812 0.88046 0.0
H1290 H 0.72679 0.03511 0.90253 0.0
H1291 H 0.70418 0.01247 0.91591 0.0
C1292 C 0.74811 0.07616 0.86577 0.0
C1293 C 0.744 0.09555 0.86745 0.0
C1294 C 0.73584 0.06247 0.87339 0.0
C1295 C 0.71905 0.06785 0.88266 0.0
C1296 C 0.71501 0.08722 0.88424 0.0
C1297 C 0.72725 0.10082 0.87678 0.0
C1298 C 0.67307 0.04325 0.89595 0.0
C1299 C 0.67928 0.02732 0.90613 0.0
C1300 C 0.68596 0.05612 0.88824 0.0
C1301 C 0.70552 0.05352 0.89043 0.0
C1302 C 0.71183 0.03751 0.90045 0.0
C1303 C 0.69886 0.02462 0.9083 0.0
H1304 H 0.77448 0.9484 0.35017 0.0
H1305 H 0.78725 0.9081 0.39428 0.0
H1306 H 0.79497 0.97158 0.36567 0.0
H1307 H 0.80785 0.93096 0.40931 0.0
H1308 H 0.86207 0.96592 0.41461 0.0
H1309 H 0.83896 0.94493 0.40029 0.0
H1310 H 0.79932 0.99106 0.39632 0.0
H1311 H 0.82275 1.01228 0.41074 0.0
C1312 C 0.78143 0.94448 0.36321 0.0
C1313 C 0.77937 0.92613 0.3707 0.0
C1314 C 0.7932 0.9578 0.3721 0.0
C1315 C 0.80326 0.95304 0.38859 0.0
C1316 C 0.80063 0.93498 0.39642 0.0
C1317 C 0.78882 0.9218 0.38769 0.0
C1318 C 0.84848 0.97166 0.41064 0.0
C1319 C 0.84431 0.99082 0.41378 0.0
C1320 C 0.83515 0.95957 0.40255 0.0
C1321 C 0.81725 0.96628 0.39719 0.0
C1322 C 0.81301 0.98547 0.40022 0.0
C1323 C 0.82635 0.99758 0.4086 0.0
H1324 H 0.8256 0.01628 0.10788 0.0
H1325 H 0.8719 0.04862 0.13076 0.0
H1326 H 0.80319 0.03855 0.12206 0.0
H1327 H 0.84969 0.07042 0.14519 0.0
H1328 H 0.8066 0.11774 0.14991 0.0
H1329 H 0.82772 0.09485 0.13551 0.0
H1330 H 0.79092 0.04957 0.15329 0.0
H1331 H 0.76938 0.07272 0.16742 0.0
C1332 C 0.83102 0.02811 0.11588 0.0
C1333 C 0.85062 0.03057 0.11814 0.0
C1334 C 0.81816 0.04078 0.12419 0.0
C1335 C 0.82459 0.05635 0.13478 0.0
C1336 C 0.84418 0.05875 0.13699 0.0
C1337 C 0.85697 0.04608 0.12884 0.0
C1338 C 0.80285 0.10295 0.15065 0.0
C1339 C 0.78617 0.09716 0.15983 0.0
C1340 C 0.81512 0.08975 0.14253 0.0
C1341 C 0.81112 0.0703 0.14325 0.0
C1342 C 0.7944 0.06444 0.15233 0.0
C1343 C 0.78213 0.0777 0.16062 0.0
H1344 H 0.27127 0.57594 0.67535 0.0
H1345 H 0.29205 0.6201 0.63872 0.0
H1346 H 0.2951 0.55427 0.66253 0.0
H1347 H 0.3154 0.59855 0.62573 0.0
H1348 H 0.36792 0.56232 0.62108 0.0
H1349 H 0.34422 0.5826 0.63535 0.0
H1350 H 0.30356 0.53727 0.63259 0.0
H1351 H 0.32762 0.51666 0.61859 0.0
C1352 C 0.28095 0.58106 0.66466 0.0
C1353 C 0.27968 0.59979 0.65807 0.0
C1354 C 0.29448 0.56859 0.65715 0.0
C1355 C 0.30722 0.57463 0.64308 0.0
C1356 C 0.30599 0.59341 0.63667 0.0
C1357 C 0.29243 0.60576 0.64402 0.0
C1358 C 0.35403 0.55652 0.62366 0.0
C1359 C 0.34978 0.53775 0.61867 0.0
C1360 C 0.34032 0.56827 0.6317 0.0
C1361 C 0.3219 0.56165 0.63509 0.0
C1362 C 0.31763 0.54281 0.63031 0.0
C1363 C 0.33137 0.53104 0.6221 0.0
H1364 H 0.25984 0.57268 0.35602 0.0
H1365 H 0.2272 0.61811 0.38018 0.0
H1366 H 0.23727 0.54973 0.36905 0.0
H1367 H 0.20507 0.59541 0.39335 0.0
H1368 H 0.15759 0.5524 0.39538 0.0
H1369 H 0.18086 0.57372 0.38186 0.0
H1370 H 0.22562 0.53668 0.40033 0.0
H1371 H 0.20206 0.51496 0.41368 0.0
C1372 C 0.24787 0.57778 0.36404 0.0
C1373 C 0.24541 0.59728 0.36706 0.0
C1374 C 0.23504 0.56463 0.37167 0.0
C1375 C 0.2193 0.5707 0.38225 0.0
C1376 C 0.21688 0.59019 0.38515 0.0
C1377 C 0.22973 0.60325 0.37772 0.0
C1378 C 0.17235 0.54863 0.39646 0.0
C1379 C 0.17788 0.53186 0.40562 0.0
C1380 C 0.18576 0.561 0.38883 0.0
C1381 C 0.20517 0.55699 0.39002 0.0
C1382 C 0.21078 0.54015 0.39904 0.0
C1383 C 0.1973 0.52779 0.40686 0.0
H1384 H 0.36595 0.47987 0.88684 0.0
H1385 H 0.32432 0.49781 0.92775 0.0
H1386 H 0.3429 0.4591 0.87237 0.0
H1387 H 0.30096 0.47715 0.91272 0.0
H1388 H 0.26149 0.44783 0.86704 0.0
H1389 H 0.28294 0.47132 0.88104 0.0
H1390 H 0.32699 0.42929 0.88352 0.0
H1391 H 0.30577 0.40609 0.86966 0.0
C1392 C 0.35192 0.47942 0.89285 0.0
C1393 C 0.34726 0.49036 0.90882 0.0
C1394 C 0.33863 0.4675 0.88443 0.0
C1395 C 0.32014 0.46626 0.89152 0.0
C1396 C 0.31509 0.47781 0.9069 0.0
C1397 C 0.32851 0.48968 0.91551 0.0
C1398 C 0.27578 0.4437 0.87054 0.0
C1399 C 0.28188 0.42506 0.86728 0.0
C1400 C 0.288 0.45709 0.87868 0.0
C1401 C 0.3067 0.4522 0.88335 0.0
C1402 C 0.31275 0.43359 0.87996 0.0
C1403 C 0.30052 0.42022 0.87215 0.0
H1404 H 0.60743 0.69762 1.0096 0.0
H1405 H 0.62516 0.65192 0.97337 0.0
H1406 H 0.62108 0.72041 0.98727 0.0
H1407 H 0.63908 0.67443 0.95151 0.0
H1408 H 0.64328 0.71922 0.9059 0.0
H1409 H 0.62912 0.69801 0.92889 0.0
H1410 H 0.65191 0.73166 0.97433 0.0
H1411 H 0.6658 0.75336 0.95111 0.0
C1412 C 0.61418 0.69242 0.99691 0.0
C1413 C 0.61518 0.67287 0.99339 0.0
C1414 C 0.62219 0.70547 0.98418 0.0
C1415 C 0.63119 0.69931 0.96751 0.0
C1416 C 0.63211 0.67977 0.96405 0.0
C1417 C 0.62426 0.66679 0.97676 0.0
C1418 C 0.64518 0.7223 0.92076 0.0
C1419 C 0.65571 0.73813 0.92655 0.0
C1420 C 0.63718 0.70995 0.93401 0.0
C1421 C 0.63939 0.713 0.95354 0.0
C1422 C 0.64979 0.72891 0.95942 0.0
C1423 C 0.65793 0.74126 0.94609 0.0
H1424 H 0.613 0.38839 0.23369 0.0
H1425 H 0.57155 0.34778 0.25268 0.0
H1426 H 0.58926 0.40378 0.21435 0.0
H1427 H 0.54751 0.36372 0.23347 0.0
H1428 H 0.50747 0.41042 0.20642 0.0
H1429 H 0.52971 0.3959 0.22894 0.0
H1430 H 0.57198 0.39336 0.18503 0.0
H1431 H 0.54998 0.40769 0.16281 0.0
C1432 C 0.59885 0.38265 0.23377 0.0
C1433 C 0.59444 0.36648 0.24455 0.0
C1434 C 0.58517 0.3916 0.22269 0.0
C1435 C 0.56653 0.38486 0.22216 0.0
C1436 C 0.56175 0.36929 0.23361 0.0
C1437 C 0.57556 0.36015 0.24463 0.0
C1438 C 0.52155 0.40682 0.20169 0.0
C1439 C 0.52692 0.41015 0.18281 0.0
C1440 C 0.53422 0.39839 0.21451 0.0
C1441 C 0.55264 0.39351 0.20879 0.0
C1442 C 0.55798 0.39707 0.18996 0.0
C1443 C 0.5453 0.40516 0.17716 0.0
H1444 H 0.9156 0.36448 0.4644 0.0
H1445 H 0.90612 0.32952 0.51351 0.0
H1446 H 0.90091 0.34068 0.44442 0.0
H1447 H 0.89124 0.30543 0.49332 0.0
H1448 H 0.84603 0.28074 0.44897 0.0
H1449 H 0.86129 0.30201 0.47165 0.0
H1450 H 0.90908 0.30747 0.43422 0.0
H1451 H 0.89432 0.28605 0.41196 0.0
C1452 C 0.91029 0.35171 0.47096 0.0
C1453 C 0.91199 0.34894 0.49057 0.0
C1454 C 0.90198 0.33799 0.45947 0.0
C1455 C 0.89493 0.32112 0.46726 0.0
C1456 C 0.89647 0.31831 0.48691 0.0
C1457 C 0.9051 0.33201 0.49844 0.0
C1458 C 0.8599 0.28623 0.44568 0.0
C1459 C 0.86869 0.28186 0.42834 0.0
C1460 C 0.86864 0.29843 0.45871 0.0
C1461 C 0.88628 0.30664 0.45461 0.0
C1462 C 0.89533 0.3017 0.43765 0.0
C1463 C 0.88675 0.28944 0.4248 0.0
H1464 H 0.94867 0.68386 0.74451 0.0
H1465 H 0.91973 0.63021 0.74621 0.0
H1466 H 0.97261 0.67021 0.72376 0.0
H1467 H 0.9431 0.61684 0.72495 0.0
H1468 H 0.99554 0.59284 0.69726 0.0
H1469 H 0.97511 0.60653 0.72147 0.0
H1470 H 0.97581 0.65984 0.69171 0.0
H1471 H 0.99674 0.64642 0.66806 0.0
C1472 C 0.94743 0.66915 0.74058 0.0
C1473 C 0.93208 0.65825 0.74699 0.0
C1474 C 0.96109 0.66134 0.72849 0.0
C1475 C 0.95983 0.64239 0.7225 0.0
C1476 C 0.94474 0.6314 0.72933 0.0
C1477 C 0.93111 0.63919 0.74137 0.0
C1478 C 0.99159 0.60755 0.69603 0.0
C1479 C 0.99774 0.61841 0.68052 0.0
C1480 C 0.97967 0.61538 0.70984 0.0
C1481 C 0.97362 0.63432 0.70857 0.0
C1482 C 0.98023 0.64529 0.69335 0.0
C1483 C 0.9921 0.63747 0.67957 0.0
H1484 H 0.59584 0.32361 0.52643 0.0
H1485 H 0.6385 0.36475 0.5411 0.0
H1486 H 0.61107 0.30067 0.54741 0.0
H1487 H 0.65305 0.34214 0.56229 0.0
H1488 H 0.65615 0.30647 0.61685 0.0
H1489 H 0.64202 0.32733 0.59334 0.0
H1490 H 0.64327 0.28228 0.55233 0.0
H1491 H 0.65766 0.26125 0.57607 0.0
C1492 C 0.60846 0.32783 0.53392 0.0
C1493 C 0.6156 0.34636 0.53216 0.0
C1494 C 0.61719 0.31461 0.54597 0.0
C1495 C 0.63313 0.31966 0.55672 0.0
C1496 C 0.64059 0.3379 0.5545 0.0
C1497 C 0.63209 0.35096 0.54233 0.0
C1498 C 0.65337 0.30095 0.60286 0.0
C1499 C 0.658 0.28217 0.59836 0.0
C1500 C 0.64538 0.31295 0.58933 0.0
C1501 C 0.64153 0.30649 0.57094 0.0
C1502 C 0.64599 0.28765 0.5664 0.0
C1503 C 0.65435 0.27567 0.57992 0.0
H1504 H 0.94865 0.34823 0.77733 0.0
H1505 H 0.90705 0.39029 0.79234 0.0
H1506 H 0.97143 0.36356 0.79836 0.0
H1507 H 0.92953 0.40505 0.81352 0.0
H1508 H 0.9649 0.40876 0.86789 0.0
H1509 H 0.94418 0.39483 0.84425 0.0
H1510 H 0.98983 0.39502 0.80381 0.0
H1511 H 1.01077 0.40912 0.82774 0.0
C1512 C 0.94433 0.36077 0.78489 0.0
C1513 C 0.92573 0.36771 0.78324 0.0
C1514 C 0.95744 0.36957 0.79698 0.0
C1515 C 0.95223 0.3854 0.80782 0.0
C1516 C 0.93391 0.39267 0.80567 0.0
C1517 C 0.92093 0.38407 0.79352 0.0
C1518 C 0.97059 0.4058 0.854 0.0
C1519 C 0.98953 0.41001 0.84975 0.0
C1520 C 0.95865 0.39794 0.84038 0.0
C1521 C 0.96531 0.39382 0.8221 0.0
C1522 C 0.98429 0.39793 0.81778 0.0
C1523 C 0.99623 0.40613 0.83141 0.0
H1524 H 0.894 0.74801 0.1088 0.0
H1525 H 0.84053 0.7423 0.08015 0.0
H1526 H 0.90856 0.72671 0.08601 0.0
H1527 H 0.85521 0.72124 0.05703 0.0
H1528 H 0.88268 0.66524 0.0367 0.0
H1529 H 0.86792 0.68904 0.0567 0.0
H1530 H 0.91814 0.7234 0.05279 0.0
H1531 H 0.93308 0.69929 0.03303 0.0
C1532 C 0.88534 0.74227 0.09758 0.0
C1533 C 0.86602 0.74679 0.09645 0.0
C1534 C 0.89376 0.73019 0.08436 0.0
C1535 C 0.88308 0.72217 0.06966 0.0
C1536 C 0.86384 0.727 0.06827 0.0
C1537 C 0.85544 0.73922 0.08143 0.0
C1538 C 0.89061 0.67785 0.04009 0.0
C1539 C 0.90916 0.68024 0.03334 0.0
C1540 C 0.88205 0.69163 0.05142 0.0
C1541 C 0.89182 0.70817 0.05644 0.0
C1542 C 0.91025 0.71076 0.04937 0.0
C1543 C 0.91877 0.69702 0.03789 0.0
H1544 H 0.54877 0.63291 0.3711 0.0
H1545 H 0.51852 0.60539 0.32591 0.0
H1546 H 0.57086 0.64611 0.34841 0.0
H1547 H 0.54116 0.61833 0.30298 0.0
H1548 H 0.57454 0.66321 0.2671 0.0
H1549 H 0.5514 0.64903 0.28868 0.0
H1550 H 0.59615 0.63587 0.32796 0.0
H1551 H 0.61896 0.65041 0.30688 0.0
C1552 C 0.54679 0.62967 0.35628 0.0
C1553 C 0.53174 0.61813 0.35037 0.0
C1554 C 0.55964 0.63711 0.34324 0.0
C1555 C 0.55788 0.63328 0.32381 0.0
C1556 C 0.54286 0.62169 0.31781 0.0
C1557 C 0.53 0.61411 0.33096 0.0
C1558 C 0.5794 0.65739 0.28039 0.0
C1559 C 0.59869 0.65801 0.28518 0.0
C1560 C 0.56616 0.64906 0.29267 0.0
C1561 C 0.57187 0.64133 0.31012 0.0
C1562 C 0.59116 0.64186 0.31478 0.0
C1563 C 0.60433 0.65006 0.30253 0.0
H1564 H 0.74848 0.94819 0.6766 0.0
H1565 H 0.73283 0.90688 0.6345 0.0
H1566 H 0.72801 0.97144 0.66109 0.0
H1567 H 0.71223 0.92981 0.61954 0.0
H1568 H 0.65843 0.96592 0.61599 0.0
H1569 H 0.68176 0.94489 0.62998 0.0
H1570 H 0.72282 0.98992 0.62942 0.0
H1571 H 0.69918 1.01117 0.61525 0.0
C1572 C 0.7409 0.94405 0.664 0.0
C1573 C 0.74215 0.92541 0.65711 0.0
C1574 C 0.72915 0.95741 0.65511 0.0
C1575 C 0.71827 0.9524 0.63923 0.0
C1576 C 0.7201 0.93404 0.63196 0.0
C1577 C 0.73191 0.92082 0.64067 0.0
C1578 C 0.67239 0.97141 0.61888 0.0
C1579 C 0.6769 0.99026 0.61454 0.0
C1580 C 0.68583 0.95929 0.62678 0.0
C1581 C 0.70419 0.96569 0.6308 0.0
C1582 C 0.70878 0.98459 0.62657 0.0
C1583 C 0.69532 0.9967 0.61833 0.0
H1584 H 0.24098 0.37027 0.25044 0.0
H1585 H 0.29187 0.36298 0.28328 0.0
H1586 H 0.22321 0.35244 0.27421 0.0
H1587 H 0.27414 0.34523 0.30692 0.0
H1588 H 0.24234 0.29597 0.33336 0.0
H1589 H 0.25827 0.31397 0.30873 0.0
H1590 H 0.21234 0.35398 0.30802 0.0
H1591 H 0.19648 0.33622 0.33302 0.0
C1592 C 0.24836 0.36503 0.26279 0.0
C1593 C 0.2679 0.36808 0.26489 0.0
C1594 C 0.23815 0.35483 0.27643 0.0
C1595 C 0.24727 0.34722 0.29239 0.0
C1596 C 0.26672 0.35061 0.29465 0.0
C1597 C 0.27686 0.36096 0.28115 0.0
C1598 C 0.23557 0.3086 0.32804 0.0
C1599 C 0.21816 0.31467 0.33551 0.0
C1600 C 0.24476 0.31896 0.31388 0.0
C1601 C 0.23674 0.3356 0.30657 0.0
C1602 C 0.21891 0.34121 0.31331 0.0
C1603 C 0.20976 0.33093 0.32763 0.0
H1604 H 0.906 0.03261 0.50965 0.0
H1605 H 0.87157 0.98261 0.5037 0.0
H1606 H 0.9229 0.01784 0.53576 0.0
H1607 H 0.8881 0.96804 0.53018 0.0
H1608 H 0.93637 0.93904 0.56167 0.0
H1609 H 0.91835 0.95462 0.53687 0.0
H1610 H 0.92107 1.00709 0.56785 0.0
H1611 H 0.93921 0.99151 0.59261 0.0
C1612 C 0.9018 0.01859 0.51412 0.0
C1613 C 0.88746 1.00877 0.50449 0.0
C1614 C 0.91149 1.01011 0.52916 0.0
C1615 C 0.90703 0.99164 0.53505 0.0
C1616 C 0.89223 0.98211 0.52581 0.0
C1617 C 0.88262 0.99054 0.5107 0.0
C1618 C 0.93305 0.95387 0.56327 0.0
C1619 C 0.93931 0.96396 0.5792 0.0
C1620 C 0.92263 0.96282 0.54904 0.0
C1621 C 0.9181 0.98214 0.55034 0.0
C1622 C 0.92446 0.99227 0.56622 0.0
C1623 C 0.93493 0.98331 0.58045 0.0
H1624 H 0.32308 0.70273 0.8064 0.0
H1625 H 0.28 0.69084 0.84784 0.0
H1626 H 0.3048 0.68592 0.78245 0.0
H1627 H 0.26207 0.67337 0.82436 0.0
H1628 H 0.2246 0.66079 0.77392 0.0
H1629 H 0.24319 0.67675 0.79785 0.0
H1630 H 0.29444 0.6565 0.77148 0.0
H1631 H 0.27568 0.64128 0.7469 0.0
C1632 C 0.30974 0.69638 0.81038 0.0
C1633 C 0.30287 0.6983 0.82891 0.0
C1634 C 0.29929 0.68661 0.79671 0.0
C1635 C 0.28183 0.67822 0.80134 0.0
C1636 C 0.27517 0.67996 0.82003 0.0
C1637 C 0.28547 0.68998 0.83357 0.0
C1638 C 0.23984 0.65958 0.77331 0.0
C1639 C 0.24864 0.64972 0.75849 0.0
C1640 C 0.25057 0.66871 0.78713 0.0
C1641 C 0.27044 0.66801 0.78674 0.0
C1642 C 0.27922 0.65772 0.77213 0.0
C1643 C 0.26846 0.64881 0.75811 0.0
H1644 H 0.64081 0.02417 0.99456 0.0
H1645 H 0.62587 0.97402 0.02599 0.0
H1646 H 0.62598 0.0437 0.0188 0.0
H1647 H 0.61024 0.99327 0.0496 0.0
H1648 H 0.59536 0.03204 0.09758 0.0
H1649 H 0.61336 0.01393 0.07458 0.0
H1650 H 0.5968 0.05325 0.03075 0.0
H1651 H 0.57955 0.07179 0.05419 0.0
C1652 C 0.6344 0.01732 1.00667 0.0
C1653 C 0.63463 0.99754 1.00837 0.0
C1654 C 0.6257 0.0285 0.02052 0.0
C1655 C 0.61674 0.02017 0.03627 0.0
C1656 C 0.61725 1.00035 0.03798 0.0
C1657 C 0.62619 0.98923 0.02433 0.0
C1658 C 0.59555 0.03674 0.08301 0.0
C1659 C 0.58594 0.05325 0.07764 0.0
C1660 C 0.60584 0.02633 0.06974 0.0
C1661 C 0.60653 0.03192 0.05062 0.0
C1662 C 0.59695 0.04857 0.04532 0.0
C1663 C 0.58692 0.05918 0.05871 0.0
H1664 H 0.19532 0.67465 0.20395 0.0
H1665 H 0.24162 0.71347 0.19501 0.0
H1666 H 0.21381 0.65806 0.22773 0.0
H1667 H 0.26013 0.6966 0.21855 0.0
H1668 H 0.29506 0.64962 0.24559 0.0
H1669 H 0.27555 0.6654 0.22203 0.0
H1670 H 0.22769 0.66249 0.25977 0.0
H1671 H 0.24722 0.64657 0.28342 0.0
C1672 C 0.20932 0.67983 0.2071 0.0
C1673 C 0.21689 0.69547 0.19732 0.0
C1674 C 0.21996 0.67023 0.22076 0.0
C1675 C 0.23851 0.67589 0.22494 0.0
C1676 C 0.24601 0.69164 0.21541 0.0
C1677 C 0.23534 0.70133 0.20186 0.0
C1678 C 0.28034 0.65216 0.24885 0.0
C1679 C 0.27274 0.64682 0.26645 0.0
C1680 C 0.26919 0.66137 0.23538 0.0
C1681 C 0.2501 0.66538 0.23907 0.0
C1682 C 0.24232 0.65954 0.25644 0.0
C1683 C 0.25353 0.65044 0.27001 0.0
H1684 H 0.62834 0.04456 0.49319 0.0
H1685 H 0.62777 0.99628 0.53062 0.0
H1686 H 0.61232 0.02604 0.46901 0.0
H1687 H 0.61149 0.97785 0.5065 0.0
H1688 H 0.59663 0.94578 0.45189 0.0
H1689 H 0.6147 0.96338 0.47531 0.0
H1690 H 0.58094 0.01291 0.46408 0.0
H1691 H 0.56282 0.99535 0.44078 0.0
C1692 C 0.62496 0.02995 0.49623 0.0
C1693 C 0.62933 0.02197 0.51392 0.0
C1694 C 0.61561 0.01937 0.4824 0.0
C1695 C 0.61042 1.00049 0.48584 0.0
C1696 C 0.61537 0.9923 0.50329 0.0
C1697 C 0.62468 1.00291 0.51716 0.0
C1698 C 0.5929 0.96035 0.45451 0.0
C1699 C 0.57822 0.96909 0.44431 0.0
C1700 C 0.60332 0.97048 0.46796 0.0
C1701 C 0.59939 0.98962 0.47153 0.0
C1702 C 0.58464 0.9983 0.46144 0.0
C1703 C 0.5742 0.98819 0.44805 0.0
H1704 H 0.28321 0.31443 0.6949 0.0
H1705 H 0.32992 0.3529 0.70302 0.0
H1706 H 0.26477 0.33207 0.7179 0.0
H1707 H 0.3115 0.37026 0.72627 0.0
H1708 H 0.27837 0.38217 0.78213 0.0
H1709 H 0.29771 0.36629 0.75837 0.0
H1710 H 0.24961 0.36351 0.721 0.0
H1711 H 0.23024 0.37928 0.74474 0.0
C1712 C 0.28959 0.32666 0.70145 0.0
C1713 C 0.30814 0.33218 0.69687 0.0
C1714 C 0.27896 0.3368 0.71468 0.0
C1715 C 0.2866 0.35267 0.72384 0.0
C1716 C 0.30523 0.35802 0.71958 0.0
C1717 C 0.31584 0.34797 0.70623 0.0
C1718 C 0.27196 0.37839 0.76876 0.0
C1719 C 0.25271 0.38197 0.7654 0.0
C1720 C 0.28307 0.36931 0.75512 0.0
C1721 C 0.27516 0.36346 0.73785 0.0
C1722 C 0.25607 0.36756 0.73427 0.0
C1723 C 0.245 0.37677 0.74783 0.0
H1724 H 0.89982 0.02771 0.03327 0.0
H1725 H 0.89531 0.98173 0.99342 0.0
H1726 H 0.91622 0.04662 1.00949 0.0
H1727 H 0.91146 1.00071 0.96963 0.0
H1728 H 0.96155 0.03022 0.94118 0.0
H1729 H 0.94344 0.01245 0.96437 0.0
H1730 H 0.91249 0.06289 0.97901 0.0
H1731 H 0.93051 0.08072 0.95563 0.0
C1732 C 0.90209 0.02171 0.01938 0.0
C1733 C 0.89629 1.00314 0.01532 0.0
C1734 C 0.91146 0.03259 1.00571 0.0
C1735 C 0.91533 0.02514 0.98768 0.0
C1736 C 0.90902 1.00678 0.98347 0.0
C1737 C 0.89961 0.99594 0.99709 0.0
C1738 C 0.95078 0.03755 0.94915 0.0
C1739 C 0.94751 0.05697 0.94636 0.0
C1740 C 0.94036 0.02732 0.96249 0.0
C1741 C 0.92639 0.03619 0.9735 0.0
C1742 C 0.92325 0.05564 0.9709 0.0
C1743 C 0.93364 0.06589 0.95749 0.0
H1744 H 0.36115 0.24934 0.33462 0.0
H1745 H 0.32088 0.20358 0.33507 0.0
H1746 H 0.33941 0.26872 0.35293 0.0
H1747 H 0.29899 0.22301 0.3532 0.0
H1748 H 0.27043 0.2552 0.40013 0.0
H1749 H 0.29421 0.2365 0.38377 0.0
H1750 H 0.31012 0.28546 0.35086 0.0
H1751 H 0.28666 0.30429 0.36762 0.0
C1752 C 0.34756 0.24347 0.33842 0.0
C1753 C 0.34276 0.22487 0.3333 0.0
C1754 C 0.33507 0.2546 0.34897 0.0
C1755 C 0.31742 0.24747 0.35465 0.0
C1756 C 0.3126 0.22889 0.34944 0.0
C1757 C 0.32512 0.21774 0.33896 0.0
C1758 C 0.27918 0.26205 0.38958 0.0
C1759 C 0.27659 0.28126 0.38519 0.0
C1760 C 0.29271 0.25127 0.38005 0.0
C1761 C 0.30397 0.25935 0.36577 0.0
C1762 C 0.30184 0.27875 0.36186 0.0
C1763 C 0.28836 0.28958 0.37149 0.0
H1764 H 0.99286 0.01418 0.62561 0.0
H1765 H 0.04364 0.9822 0.61498 0.0
H1766 H 1.00685 0.04154 0.60971 0.0
H1767 H 0.05783 1.00951 0.59977 0.0
H1768 H 0.06883 0.052 0.55306 0.0
H1769 H 0.05515 0.0261 0.57101 0.0
H1770 H 0.03023 0.06601 0.60989 0.0
H1771 H 0.04373 0.092 0.59159 0.0
C1772 C 1.00714 0.01311 0.62023 0.0
C1773 C 0.01707 0.99596 0.62145 0.0
C1774 C 0.0152 0.02881 0.61111 0.0
C1775 C 0.03343 0.02774 0.60313 0.0
C1776 C 0.0436 1.0108 0.60522 0.0
C1777 C 0.0355 0.99513 0.61413 0.0
C1778 C 0.06059 0.05528 0.56552 0.0
C1779 C 0.05747 0.07413 0.57087 0.0
C1780 C 0.05273 0.04038 0.5759 0.0
C1781 C 0.04164 0.04384 0.59208 0.0
C1782 C 0.03848 0.06273 0.59742 0.0
C1783 C 0.04626 0.07767 0.58693 0.0
H1784 H 0.17296 0.79074 0.8468 0.0
H1785 H 0.21752 0.82803 0.82858 0.0
H1786 H 0.19553 0.77253 0.86532 0.0
H1787 H 0.24042 0.80942 0.84637 0.0
H1788 H 0.27665 0.78055 0.89019 0.0
H1789 H 0.25255 0.8005 0.87572 0.0
H1790 H 0.21971 0.75077 0.86243 0.0
H1791 H 0.24324 0.73112 0.87768 0.0
C1792 C 0.18766 0.79492 0.84663 0.0
C1793 C 0.19348 0.81077 0.83616 0.0
C1794 C 0.20068 0.78444 0.85721 0.0
C1795 C 0.21997 0.78931 0.85736 0.0
C1796 C 0.22571 0.80533 0.84697 0.0
C1797 C 0.2126 0.81599 0.83665 0.0
C1798 C 0.26412 0.77395 0.88443 0.0
C1799 C 0.26189 0.75423 0.88516 0.0
C1800 C 0.25035 0.78538 0.87592 0.0
C1801 C 0.23409 0.77736 0.86768 0.0
C1802 C 0.23176 0.75763 0.86884 0.0
C1803 C 0.24537 0.74627 0.87756 0.0
H1804 H 0.49956 0.02939 0.13072 0.0
H1805 H 0.54764 0.99186 0.12883 0.0
H1806 H 0.48028 1.00538 0.11519 0.0
H1807 H 0.52832 0.96791 0.11339 0.0
H1808 H 0.49505 0.9411 0.06451 0.0
H1809 H 0.51336 0.96439 0.08184 0.0
H1810 H 0.46646 0.97331 0.11978 0.0
H1811 H 0.44816 0.94974 0.10273 0.0
C1812 C 0.50597 0.01595 0.12722 0.0
C1813 C 0.52519 0.0126 0.13099 0.0
C1814 C 0.49489 1.00217 0.11835 0.0
C1815 C 0.50281 0.9848 0.11288 0.0
C1816 C 0.52187 0.98126 0.11715 0.0
C1817 C 0.5329 0.99495 0.12616 0.0
C1818 C 0.48861 0.94782 0.07663 0.0
C1819 C 0.47005 0.94329 0.08217 0.0
C1820 C 0.49916 0.96122 0.08659 0.0
C1821 C 0.49143 0.97062 0.10228 0.0
C1822 C 0.47279 0.96642 0.10766 0.0
C1823 C 0.46226 0.95289 0.09779 0.0
H1824 H 0.3482 0.79041 0.17799 0.0
H1825 H 0.30435 0.82873 0.19568 0.0
H1826 H 0.32516 0.7719 0.16045 0.0
H1827 H 0.28096 0.80984 0.17883 0.0
H1828 H 0.24401 0.77976 0.13626 0.0
H1829 H 0.26835 0.79999 0.14986 0.0
H1830 H 0.30081 0.75046 0.16487 0.0
H1831 H 0.277 0.73049 0.1505 0.0
C1832 C 0.33355 0.79477 0.17824 0.0
C1833 C 0.32807 0.81095 0.18831 0.0
C1834 C 0.32027 0.78411 0.16823 0.0
C1835 C 0.30103 0.78915 0.16827 0.0
C1836 C 0.29562 0.80558 0.17815 0.0
C1837 C 0.309 0.81641 0.18792 0.0
C1838 C 0.25649 0.77324 0.14223 0.0
C1839 C 0.25856 0.75349 0.14221 0.0
C1840 C 0.27041 0.78484 0.15023 0.0
C1841 C 0.28665 0.77697 0.15864 0.0
C1842 C 0.28878 0.75719 0.15827 0.0
C1843 C 0.27501 0.74565 0.15006 0.0
H1844 H 0.52996 0.01278 0.40234 0.0
H1845 H 0.4753 0.99888 0.37919 0.0
H1846 H 0.51616 0.03975 0.41872 0.0
H1847 H 0.46162 0.02615 0.39501 0.0
H1848 H 0.43859 0.06064 0.44412 0.0
H1849 H 0.45315 0.03528 0.42607 0.0
H1850 H 0.5022 0.0703 0.41641 0.0
H1851 H 0.48767 0.09555 0.43483 0.0
C1852 C 0.51507 0.01571 0.40041 0.0
C1853 C 0.50372 1.00359 0.38952 0.0
C1854 C 0.50714 0.03122 0.40981 0.0
C1855 C 0.48768 0.03508 0.40844 0.0
C1856 C 0.47654 0.02341 0.39682 0.0
C1857 C 0.48444 1.00783 0.38757 0.0
C1858 C 0.45243 0.06297 0.43806 0.0
C1859 C 0.46193 0.08015 0.44094 0.0
C1860 C 0.46079 0.04844 0.42761 0.0
C1861 C 0.47885 0.05071 0.41958 0.0
C1862 C 0.4884 0.0679 0.42253 0.0
C1863 C 0.48006 0.08241 0.43312 0.0
H1864 H 0.17574 0.2403 0.68033 0.0
H1865 H 0.21865 0.20108 0.69842 0.0
H1866 H 0.19919 0.25806 0.66251 0.0
H1867 H 0.2425 0.21928 0.68132 0.0
H1868 H 0.27978 0.24751 0.63762 0.0
H1869 H 0.25512 0.22821 0.65208 0.0
H1870 H 0.22406 0.27887 0.66618 0.0
H1871 H 0.24813 0.29788 0.65093 0.0
C1872 C 0.1903 0.23564 0.68067 0.0
C1873 C 0.19541 0.2194 0.69088 0.0
C1874 C 0.20381 0.24585 0.67049 0.0
C1875 C 0.22291 0.24029 0.6705 0.0
C1876 C 0.22795 0.2239 0.68065 0.0
C1877 C 0.21433 0.21349 0.69058 0.0
C1878 C 0.26753 0.25445 0.64359 0.0
C1879 C 0.2659 0.27423 0.64303 0.0
C1880 C 0.25344 0.2434 0.65207 0.0
C1881 C 0.23751 0.25188 0.66047 0.0
C1882 C 0.23584 0.27168 0.6596 0.0
C1883 C 0.24975 0.28267 0.65088 0.0
H1884 H 0.03463 0.94264 0.95758 0.0
H1885 H 0.07959 0.94755 0.91647 0.0
H1886 H 0.01651 0.96623 0.94044 0.0
H1887 H 0.06148 0.97144 0.89955 0.0
H1888 H 0.03134 0.02928 0.8893 0.0
H1889 H 0.04999 1.00427 0.90399 0.0
H1890 H 0.99977 0.97019 0.90991 0.0
H1891 H 0.98107 0.99522 0.89531 0.0
C1892 C 0.04066 0.94858 0.94484 0.0
C1893 C 0.05865 0.94297 0.93847 0.0
C1894 C 0.03021 0.96215 0.93498 0.0
C1895 C 0.03748 0.97064 0.91854 0.0
C1896 C 0.05552 0.96527 0.91225 0.0
C1897 C 0.06595 0.95157 0.92203 0.0
C1898 C 0.02429 0.01636 0.89351 0.0
C1899 C 1.00467 0.01431 0.89117 0.0
C1900 C 0.03501 1.002 0.9019 0.0
C1901 C 0.02635 0.98529 0.90828 0.0
C1902 C 1.00683 0.983 0.9054 0.0
C1903 C 0.99614 0.9973 0.89687 0.0
H1904 H 0.34536 0.31809 0.18808 0.0
H1905 H 0.31939 0.32641 0.24278 0.0
H1906 H 0.36531 0.29348 0.20141 0.0
H1907 H 0.3396 0.30199 0.25609 0.0
H1908 H 0.3889 0.26639 0.27763 0.0
H1909 H 0.37309 0.29391 0.26373 0.0
H1910 H 0.3603 0.26132 0.21378 0.0
H1911 H 0.37607 0.23404 0.22753 0.0
C1912 C 0.3438 0.31471 0.20291 0.0
C1913 C 0.33056 0.3243 0.21425 0.0
C1914 C 0.35534 0.30061 0.21058 0.0
C1915 C 0.35408 0.29576 0.22983 0.0
C1916 C 0.34115 0.30557 0.24128 0.0
C1917 C 0.32951 0.31959 0.23359 0.0
C1918 C 0.38304 0.26526 0.26353 0.0
C1919 C 0.38371 0.24803 0.25369 0.0
C1920 C 0.37382 0.28095 0.25565 0.0
C1921 C 0.36533 0.27978 0.23768 0.0
C1922 C 0.3668 0.26278 0.22756 0.0
C1923 C 0.37579 0.2471 0.23549 0.0
H1924 H 0.82893 0.21726 0.83705 0.0
H1925 H 0.8352 0.18311 0.78697 0.0
H1926 H 0.84675 0.24259 0.82202 0.0
H1927 H 0.85348 0.20821 0.77199 0.0
H1928 H 0.86884 0.26519 0.74426 0.0
H1929 H 0.85195 0.23873 0.75844 0.0
H1930 H 0.87737 0.25142 0.81251 0.0
H1931 H 0.89365 0.27828 0.79844 0.0
C1932 C 0.83423 0.21514 0.82285 0.0
C1933 C 0.83059 0.19818 0.81322 0.0
C1934 C 0.84458 0.22962 0.81423 0.0
C1935 C 0.85179 0.22749 0.79578 0.0
C1936 C 0.848 0.21054 0.78609 0.0
C1937 C 0.83748 0.19611 0.79468 0.0
C1938 C 0.87102 0.26218 0.75912 0.0
C1939 C 0.88256 0.27393 0.77023 0.0
C1940 C 0.86133 0.24695 0.76729 0.0
C1941 C 0.86305 0.24296 0.78673 0.0
C1942 C 0.87526 0.25428 0.79761 0.0
C1943 C 0.88479 0.2696 0.7895 0.0
H1944 H 1.01179 0.62132 0.99683 0.0
H1945 H 0.9954 0.64271 0.0516 0.0
H1946 H 0.0382 0.60461 1.0113 0.0
H1947 H 0.02211 0.62654 0.06599 0.0
H1948 H 0.05612 0.5769 0.08889 0.0
H1949 H 0.03122 0.59527 0.07391 0.0
H1950 H 0.06812 0.60688 0.02661 0.0
H1951 H 0.09291 0.58819 0.04154 0.0
C1952 C 0.01403 0.62277 1.01191 0.0
C1953 C 1.00139 0.63329 0.02305 0.0
C1954 C 0.02923 0.6132 0.02023 0.0
C1955 C 0.03225 0.61399 0.0399 0.0
C1956 C 0.02002 0.62519 0.05089 0.0
C1957 C 1.00477 0.63463 0.04259 0.0
C1958 C 0.05896 0.58346 0.07536 0.0
C1959 C 0.07654 0.58103 0.06645 0.0
C1960 C 0.04469 0.59409 0.06676 0.0
C1961 C 0.04761 0.60273 0.04904 0.0
C1962 C 0.06522 0.60027 0.04011 0.0
C1963 C 0.07947 0.58952 0.04868 0.0
H1964 H 0.65274 0.76068 0.24532 0.0
H1965 H 0.63345 0.74283 0.30047 0.0
H1966 H 0.66869 0.78764 0.25964 0.0
H1967 H 0.64886 0.77004 0.31472 0.0
H1968 H 0.69753 0.8059 0.33667 0.0
H1969 H 0.67989 0.78039 0.3219 0.0
H1970 H 0.6655 0.8173 0.27537 0.0
H1971 H 0.68344 0.84272 0.29008 0.0
C1972 C 0.65158 0.76271 0.26046 0.0
C1973 C 0.64188 0.74952 0.27174 0.0
C1974 C 0.66072 0.77821 0.26869 0.0
C1975 C 0.6603 0.78098 0.28842 0.0
C1976 C 0.64991 0.76817 0.29956 0.0
C1977 C 0.6409 0.75262 0.29135 0.0
C1978 C 0.69051 0.80862 0.32336 0.0
C1979 C 0.69195 0.8264 0.3146 0.0
C1980 C 0.6803 0.79399 0.31488 0.0
C1981 C 0.67111 0.79673 0.29743 0.0
C1982 C 0.67256 0.81453 0.28866 0.0
C1983 C 0.68288 0.82915 0.29711 0.0
H1984 H 0.03227 0.91544 1.00995 0.0
H1985 H 0.99786 0.86509 1.00771 0.0
H1986 H 1.0073 0.93184 0.02691 0.0
H1987 H 0.97272 0.88168 0.02475 0.0
H1988 H 0.94193 0.91245 0.07401 0.0
H1989 H 0.96642 0.89541 0.05673 0.0
H1990 H 0.9751 0.94411 0.02096 0.0
H1991 H 0.95079 0.96127 0.03846 0.0
C1992 C 0.01939 0.90781 0.0131 0.0
C1993 C 0.01713 0.88888 1.00747 0.0
C1994 C 1.005 0.91731 0.02272 0.0
C1995 C 0.98797 0.90812 0.02714 0.0
C1996 C 0.98572 0.88913 0.02168 0.0
C1997 C 1.0001 0.87964 1.01185 0.0
C1998 C 0.94916 0.91959 0.06257 0.0
C1999 C 0.94447 0.93831 0.05772 0.0
C2000 C 0.96305 0.90973 0.05251 0.0
C2001 C 0.97274 0.91838 0.03747 0.0
C2002 C 0.96803 0.93708 0.03259 0.0
C2003 C 0.954 0.94688 0.04253 0.0
H2004 H 0.16149 0.68915 0.70862 0.0
H2005 H 0.21585 0.7094 0.7271 0.0
H2006 H 0.14589 0.71368 0.72733 0.0
H2007 H 0.20022 0.73423 0.74564 0.0
H2008 H 0.16341 0.78853 0.75544 0.0
H2009 H 0.17878 0.7637 0.73706 0.0
H2010 H 0.14343 0.72189 0.76388 0.0
H2011 H 0.12823 0.74671 0.78268 0.0
C2012 C 0.1701 0.69898 0.71654 0.0
C2013 C 0.1899 0.69747 0.71629 0.0
C2014 C 0.16116 0.7129 0.72737 0.0
C2015 C 0.17184 0.72586 0.73791 0.0
C2016 C 0.19166 0.72447 0.73756 0.0
C2017 C 0.20059 0.71027 0.72704 0.0
C2018 C 0.15881 0.77406 0.75738 0.0
C2019 C 0.14453 0.76961 0.7705 0.0
C2020 C 0.16773 0.75985 0.74694 0.0
C2021 C 0.16234 0.74089 0.74908 0.0
C2022 C 0.14782 0.73642 0.76191 0.0
C2023 C 0.13915 0.75061 0.77268 0.0
H2024 H 1.00993 0.40889 0.5311 0.0
H2025 H 0.99996 0.37824 0.4793 0.0
H2026 H 0.03608 0.42555 0.51616 0.0
H2027 H 0.02649 0.39444 0.46452 0.0
H2028 H 0.05971 0.44221 0.43682 0.0
H2029 H 0.03451 0.42469 0.45245 0.0
H2030 H 0.06727 0.42337 0.50396 0.0
H2031 H 0.09227 0.44118 0.48836 0.0
C2032 C 0.01352 0.40544 0.51662 0.0
C2033 C 1.00276 0.39225 0.5064 0.0
C2034 C 0.0286 0.415 0.50803 0.0
C2035 C 0.03339 0.41153 0.48902 0.0
C2036 C 0.023 0.39783 0.47903 0.0
C2037 C 1.00787 0.38837 0.48758 0.0
C2038 C 0.06154 0.43813 0.45146 0.0
C2039 C 0.07801 0.44317 0.46131 0.0
C2040 C 0.04711 0.42798 0.46044 0.0
C2041 C 0.04881 0.42245 0.4795 0.0
C2042 C 0.06528 0.42758 0.48937 0.0
C2043 C 0.07966 0.43784 0.48042 0.0
H2044 H 0.43077 0.59026 0.98507 0.0
H2045 H 0.46961 0.56776 0.94384 0.0
H2046 H 0.45639 0.60819 0.99952 0.0
H2047 H 0.49531 0.58522 0.95844 0.0
H2048 H 0.53549 0.63015 0.97701 0.0
H2049 H 0.50796 0.61561 0.96254 0.0
H2050 H 0.48424 0.6055 0.01799 0.0
H2051 H 0.51157 0.62079 0.0324 0.0
C2052 C 0.44482 0.58901 0.9792 0.0
C2053 C 0.44812 0.5776 0.96325 0.0
C2054 C 0.45956 0.59929 0.98749 0.0
C2055 C 0.47801 0.59832 0.98015 0.0
C2056 C 0.48126 0.58675 0.96427 0.0
C2057 C 0.46652 0.57664 0.9559 0.0
C2058 C 0.52427 0.62506 0.98611 0.0
C2059 C 0.52576 0.62659 1.00586 0.0
C2060 C 0.50852 0.61653 0.97781 0.0
C2061 C 0.49392 0.60901 0.98904 0.0
C2062 C 0.49508 0.61121 1.00882 0.0
C2063 C 0.51078 0.61998 0.01713 0.0
H2064 H 0.69633 0.85192 0.82672 0.0
H2065 H 0.74105 0.81071 0.83193 0.0
H2066 H 0.71489 0.86905 0.80331 0.0
H2067 H 0.75962 0.82802 0.80874 0.0
H2068 H 0.79569 0.87321 0.78041 0.0
H2069 H 0.7767 0.85808 0.80494 0.0
H2070 H 0.72675 0.86551 0.77077 0.0
H2071 H 0.74567 0.88079 0.7463 0.0
C2072 C 0.71001 0.84637 0.82284 0.0
C2073 C 0.7171 0.82984 0.83139 0.0
C2074 C 0.7207 0.85628 0.80941 0.0
C2075 C 0.73881 0.85 0.8042 0.0
C2076 C 0.74588 0.83347 0.81266 0.0
C2077 C 0.73517 0.82351 0.82601 0.0
C2078 C 0.78062 0.87184 0.7782 0.0
C2079 C 0.77225 0.8782 0.76133 0.0
C2080 C 0.76975 0.863 0.79222 0.0
C2081 C 0.7502 0.86042 0.78978 0.0
C2082 C 0.74173 0.86737 0.77319 0.0
C2083 C 0.75261 0.87609 0.75912 0.0
H2084 H 0.43162 0.49424 0.10387 0.0
H2085 H 0.44454 0.45086 0.06314 0.0
H2086 H 0.41477 0.51205 0.07972 0.0
H2087 H 0.42838 0.46894 0.03863 0.0
H2088 H 0.38525 0.49714 1.00128 0.0
H2089 H 0.39925 0.47893 0.02695 0.0
H2090 H 0.41856 0.53072 0.05291 0.0
H2091 H 0.40374 0.54883 0.02775 0.0
C2092 C 0.43107 0.48865 0.08964 0.0
C2093 C 0.43948 0.47119 0.08538 0.0
C2094 C 0.42143 0.49888 0.07573 0.0
C2095 C 0.42015 0.49205 0.05707 0.0
C2096 C 0.42866 0.47455 0.05285 0.0
C2097 C 0.43806 0.4642 0.06686 0.0
C2098 C 0.39228 0.50462 1.01263 0.0
C2099 C 0.39334 0.52444 1.01247 0.0
C2100 C 0.40051 0.49417 0.02728 0.0
C2101 C 0.41029 0.50324 0.04204 0.0
C2102 C 0.41096 0.52314 0.04204 0.0
C2103 C 0.40248 0.53359 0.02753 0.0
H2104 H 0.78522 0.2051 0.33304 0.0
H2105 H 0.83758 0.17523 0.32336 0.0
H2106 H 0.77079 0.18804 0.30685 0.0
H2107 H 0.8232 0.15858 0.29703 0.0
H2108 H 0.79818 0.15536 0.23639 0.0
H2109 H 0.81208 0.1682 0.26509 0.0
H2110 H 0.76095 0.1554 0.29582 0.0
H2111 H 0.74694 0.14242 0.26688 0.0
C2112 C 0.79365 0.1948 0.32555 0.0
C2113 C 0.81272 0.19178 0.33037 0.0
C2114 C 0.78532 0.18499 0.31051 0.0
C2115 C 0.79587 0.17201 0.2998 0.0
C2116 C 0.81476 0.16868 0.30484 0.0
C2117 C 0.82304 0.17835 0.31994 0.0
C2118 C 0.78996 0.15504 0.24931 0.0
C2119 C 0.77146 0.14786 0.24935 0.0
C2120 C 0.79797 0.16234 0.2658 0.0
C2121 C 0.78761 0.16287 0.28274 0.0
C2122 C 0.76922 0.15531 0.28294 0.0
C2123 C 0.76127 0.14772 0.26643 0.0
H2124 H 0.09921 0.57994 0.56957 0.0
H2125 H 0.06002 0.53373 0.57728 0.0
H2126 H 0.11604 0.56171 0.54582 0.0
H2127 H 0.07712 0.51546 0.55371 0.0
H2128 H 0.1244 0.48067 0.52682 0.0
H2129 H 0.10814 0.49983 0.55036 0.0
H2130 H 0.11229 0.54843 0.51364 0.0
H2131 H 0.12869 0.52928 0.49005 0.0
C2132 C 0.09398 0.56602 0.56614 0.0
C2133 C 0.07818 0.55839 0.57557 0.0
C2134 C 0.10373 0.55552 0.55248 0.0
C2135 C 0.09805 0.53706 0.54795 0.0
C2136 C 0.08211 0.52951 0.55711 0.0
C2137 C 0.07227 0.54004 0.57067 0.0
C2138 C 0.12203 0.49548 0.52379 0.0
C2139 C 0.12788 0.5034 0.5065 0.0
C2140 C 0.11254 0.50643 0.53725 0.0
C2141 C 0.10875 0.52563 0.53383 0.0
C2142 C 0.11506 0.53371 0.51677 0.0
C2143 C 0.12445 0.52271 0.50323 0.0
H2144 H 0.69476 0.17544 0.70513 0.0
H2145 H 0.74337 0.21065 0.69387 0.0
H2146 H 0.71275 0.1582 0.72887 0.0
H2147 H 0.76134 0.19316 0.71736 0.0
H2148 H 0.79384 0.14532 0.7456 0.0
H2149 H 0.7748 0.16125 0.72173 0.0
H2150 H 0.7276 0.16268 0.76037 0.0
H2151 H 0.74663 0.14661 0.78431 0.0
C2152 C 0.70918 0.17968 0.70775 0.0
C2153 C 0.71753 0.1945 0.69737 0.0
C2154 C 0.71953 0.1697 0.72138 0.0
C2155 C 0.73853 0.17418 0.72492 0.0
C2156 C 0.74683 0.18909 0.71473 0.0
C2157 C 0.73647 0.19915 0.70121 0.0
C2158 C 0.77935 0.14883 0.74899 0.0
C2159 C 0.77181 0.1447 0.76694 0.0
C2160 C 0.76847 0.15812 0.73533 0.0
C2161 C 0.74973 0.16341 0.73918 0.0
C2162 C 0.74196 0.15872 0.7569 0.0
C2163 C 0.7529 0.14954 0.77064 0.0
H2164 H 0.08453 0.4879 0.93596 0.0
H2165 H 0.07301 0.43939 0.97112 0.0
H2166 H 0.10243 0.50227 0.96165 0.0
H2167 H 0.0905 0.45382 0.99696 0.0
H2168 H 0.1372 0.47507 0.03429 0.0
H2169 H 0.12134 0.46149 1.00699 0.0
H2170 H 0.10001 0.51667 0.9919 0.0
H2171 H 0.11647 0.53034 0.0189 0.0
C2172 C 0.08561 0.4804 0.94926 0.0
C2173 C 0.07734 0.46246 0.95146 0.0
C2174 C 0.0959 0.48864 0.96404 0.0
C2175 C 0.09809 0.47921 0.98144 0.0
C2176 C 0.08956 0.46137 0.98366 0.0
C2177 C 0.07942 0.45309 0.96886 0.0
C2178 C 0.12931 0.48435 0.02503 0.0
C2179 C 0.1281 0.50379 0.02884 0.0
C2180 C 0.12003 0.47652 1.00943 0.0
C2181 C 0.10909 0.48788 0.99729 0.0
C2182 C 0.10839 0.50746 1.00078 0.0
C2183 C 0.11783 0.51532 0.01632 0.0
H2184 H 0.72347 0.86871 0.25093 0.0
H2185 H 0.77486 0.88744 0.27779 0.0
H2186 H 0.74183 0.85333 0.22632 0.0
H2187 H 0.79334 0.87292 0.25262 0.0
H2188 H 0.82184 0.82716 0.21749 0.0
H2189 H 0.80352 0.84377 0.24149 0.0
H2190 H 0.76072 0.85636 0.19971 0.0
H2191 H 0.77876 0.83899 0.17612 0.0
C2192 C 0.73871 0.8699 0.25134 0.0
C2193 C 0.74769 0.87928 0.26635 0.0
C2194 C 0.74931 0.86111 0.23714 0.0
C2195 C 0.7692 0.8617 0.23739 0.0
C2196 C 0.77811 0.87171 0.2521 0.0
C2197 C 0.76751 0.88023 0.26647 0.0
C2198 C 0.80851 0.83351 0.21352 0.0
C2199 C 0.80167 0.83165 0.19498 0.0
C2200 C 0.79802 0.84317 0.22723 0.0
C2201 C 0.78053 0.85154 0.22267 0.0
C2202 C 0.77387 0.84983 0.20398 0.0
C2203 C 0.78422 0.83989 0.19038 0.0
H2204 H 0.3775 0.54852 0.52971 0.0
H2205 H 0.40745 0.49627 0.52003 0.0
H2206 H 0.39379 0.56283 0.50293 0.0
H2207 H 0.42427 0.51075 0.49374 0.0
H2208 H 0.44103 0.53787 0.43767 0.0
H2209 H 0.42272 0.5227 0.4626 0.0
H2210 H 0.42401 0.57447 0.49493 0.0
H2211 H 0.4419 0.58968 0.4697 0.0
C2212 C 0.38749 0.54005 0.52181 0.0
C2213 C 0.39117 0.52126 0.52707 0.0
C2214 C 0.397 0.54832 0.50654 0.0
C2215 C 0.41059 0.53807 0.49624 0.0
C2216 C 0.4138 0.51907 0.50116 0.0
C2217 C 0.40416 0.51075 0.51631 0.0
C2218 C 0.43756 0.54594 0.45018 0.0
C2219 C 0.44295 0.56499 0.45171 0.0
C2220 C 0.42702 0.53724 0.46451 0.0
C2221 C 0.42173 0.54733 0.48083 0.0
C2222 C 0.4274 0.56633 0.48243 0.0
C2223 C 0.43777 0.57506 0.46802 0.0
H2224 H 0.74212 0.75788 0.85857 0.0
H2225 H 0.77718 0.76302 0.90828 0.0
H2226 H 0.76758 0.74157 0.84218 0.0
H2227 H 0.80273 0.74647 0.89175 0.0
H2228 H 0.83433 0.69718 0.8609 0.0
H2229 H 0.8093 0.71363 0.87812 0.0
H2230 H 0.80008 0.74984 0.82984 0.0
H2231 H 0.82509 0.73333 0.81261 0.0
C2232 C 0.75523 0.75544 0.86607 0.0
C2233 C 0.75758 0.76174 0.8848 0.0
C2234 C 0.76987 0.7462 0.85659 0.0
C2235 C 0.78718 0.74279 0.86563 0.0
C2236 C 0.7895 0.74882 0.88445 0.0
C2237 C 0.7749 0.75834 0.89389 0.0
C2238 C 0.82687 0.70856 0.85393 0.0
C2239 C 0.83161 0.71388 0.83533 0.0
C2240 C 0.81268 0.71811 0.86386 0.0
C2241 C 0.8027 0.73302 0.85534 0.0
C2242 C 0.80742 0.73832 0.83674 0.0
C2243 C 0.8218 0.72895 0.82691 0.0
H2244 H 0.47589 0.53304 0.13663 0.0
H2245 H 0.52299 0.49432 0.13843 0.0
H2246 H 0.4954 0.55604 0.11996 0.0
H2247 H 0.54246 0.51731 0.12158 0.0
H2248 H 0.57627 0.57065 0.10561 0.0
H2249 H 0.55762 0.54845 0.12412 0.0
H2250 H 0.50944 0.55919 0.08836 0.0
H2251 H 0.52807 0.58123 0.06966 0.0
C2252 C 0.49046 0.52948 0.13367 0.0
C2253 C 0.49781 0.51176 0.13889 0.0
C2254 C 0.50161 0.54263 0.12393 0.0
C2255 C 0.52047 0.53848 0.11922 0.0
C2256 C 0.52804 0.52104 0.12505 0.0
C2257 C 0.51684 0.50783 0.1347 0.0
C2258 C 0.56178 0.5682 0.10148 0.0
C2259 C 0.55378 0.57791 0.08601 0.0
C2260 C 0.55105 0.55544 0.11219 0.0
C2261 C 0.53197 0.55207 0.10784 0.0
C2262 C 0.52398 0.56168 0.09236 0.0
C2263 C 0.53473 0.57436 0.08158 0.0
H2264 H 0.70818 0.33752 0.34051 0.0
H2265 H 0.69071 0.28243 0.32079 0.0
H2266 H 0.73488 0.32316 0.35667 0.0
H2267 H 0.71726 0.26815 0.33731 0.0
H2268 H 0.75955 0.24742 0.38239 0.0
H2269 H 0.73083 0.26218 0.36978 0.0
H2270 H 0.7644 0.30741 0.3463 0.0
H2271 H 0.79287 0.2928 0.35879 0.0
C2272 C 0.70996 0.32238 0.33953 0.0
C2273 C 0.6972 0.31126 0.3291 0.0
C2274 C 0.72528 0.31414 0.3489 0.0
C2275 C 0.72822 0.29452 0.34826 0.0
C2276 C 0.71526 0.28329 0.33829 0.0
C2277 C 0.69999 0.29154 0.32878 0.0
C2278 C 0.76072 0.26063 0.37474 0.0
C2279 C 0.77849 0.26891 0.37157 0.0
C2280 C 0.74431 0.269 0.3674 0.0
C2281 C 0.74534 0.28596 0.35702 0.0
C2282 C 0.76307 0.29447 0.35438 0.0
C2283 C 0.77942 0.28601 0.36148 0.0
H2284 H 0.99525 0.53162 0.63372 0.0
H2285 H 0.04393 0.49545 0.62731 0.0
H2286 H 0.97535 0.50727 0.61965 0.0
H2287 H 0.0243 0.47149 0.61266 0.0
H2288 H 0.98308 0.42534 0.59866 0.0
H2289 H 1.00059 0.44865 0.6169 0.0
H2290 H 0.96899 0.49338 0.58984 0.0
H2291 H 0.95115 0.46991 0.57205 0.0
C2292 C 1.0017 0.51844 0.62941 0.0
C2293 C 0.02121 0.51552 0.63166 0.0
C2294 C 0.9903 0.50451 0.62117 0.0
C2295 C 0.99816 0.48737 0.61485 0.0
C2296 C 0.01761 0.48432 0.61757 0.0
C2297 C 0.02895 0.49816 0.62594 0.0
C2298 C 0.97988 0.44016 0.59664 0.0
C2299 C 0.96581 0.44578 0.58381 0.0
C2300 C 0.98995 0.45356 0.60707 0.0
C2301 C 0.98639 0.473 0.6048 0.0
C2302 C 0.972 0.47857 0.59223 0.0
C2303 C 0.96178 0.46512 0.58194 0.0
H2304 H 0.83284 0.28076 0.70973 0.0
H2305 H 0.82081 0.33034 0.67614 0.0
H2306 H 0.80979 0.26292 0.69161 0.0
H2307 H 0.7976 0.31245 0.6581 0.0
H2308 H 0.74269 0.27854 0.64556 0.0
H2309 H 0.76664 0.29735 0.66165 0.0
H2310 H 0.80498 0.24996 0.65998 0.0
H2311 H 0.78099 0.23106 0.64413 0.0
C2312 C 0.82543 0.28787 0.69841 0.0
C2313 C 0.82885 0.30706 0.69444 0.0
C2314 C 0.81218 0.27759 0.68797 0.0
C2315 C 0.80189 0.28619 0.67329 0.0
C2316 C 0.80513 0.30541 0.66942 0.0
C2317 C 0.81845 0.3157 0.67983 0.0
C2318 C 0.7563 0.27218 0.64842 0.0
C2319 C 0.75984 0.25323 0.64359 0.0
C2320 C 0.77007 0.28301 0.65761 0.0
C2321 C 0.7877 0.27514 0.66229 0.0
C2322 C 0.79144 0.25638 0.6569 0.0
C2323 C 0.77772 0.24558 0.64765 0.0
H2324 H 0.98794 0.60132 0.93274 0.0
H2325 H 0.95069 0.55791 0.95377 0.0
H2326 H 1.00542 0.57778 0.91475 0.0
H2327 H 0.96847 0.53414 0.9363 0.0
H2328 H 0.99521 0.49656 0.89217 0.0
H2329 H 0.97617 0.52146 0.90646 0.0
H2330 H 0.02694 0.55302 0.91878 0.0
H2331 H 0.04578 0.52857 0.90384 0.0
C2332 C 0.98359 0.58669 0.93364 0.0
C2333 C 0.96799 0.58147 0.94477 0.0
C2334 C 0.99364 0.57314 0.92334 0.0
C2335 C 0.98851 0.55393 0.92407 0.0
C2336 C 0.97272 0.54878 0.93507 0.0
C2337 C 0.96253 0.5624 0.94519 0.0
C2338 C 1.00227 0.50895 0.89771 0.0
C2339 C 0.02204 0.51055 0.89683 0.0
C2340 C 0.99135 0.52318 0.90608 0.0
C2341 C 0.99994 0.5393 0.91397 0.0
C2342 C 0.01971 0.54103 0.91265 0.0
C2343 C 0.03058 0.52691 0.90411 0.0
H2344 H 0.70106 0.69442 0.17415 0.0
H2345 H 0.68863 0.7443 0.20705 0.0
H2346 H 0.72412 0.71229 0.15583 0.0
H2347 H 0.71148 0.76212 0.18859 0.0
H2348 H 0.7403 0.79353 0.14076 0.0
H2349 H 0.71623 0.77458 0.15653 0.0
H2350 H 0.75507 0.72768 0.15971 0.0
H2351 H 0.77913 0.74655 0.14374 0.0
C2352 C 0.70327 0.70913 0.17761 0.0
C2353 C 0.69283 0.71785 0.19215 0.0
C2354 C 0.71649 0.7194 0.16703 0.0
C2355 C 0.71958 0.73868 0.17064 0.0
C2356 C 0.7092 0.74739 0.18517 0.0
C2357 C 0.69606 0.73712 0.1958 0.0
C2358 C 0.74366 0.7791 0.14458 0.0
C2359 C 0.76171 0.77162 0.14103 0.0
C2360 C 0.72989 0.76828 0.15378 0.0
C2361 C 0.73377 0.74967 0.15958 0.0
C2362 C 0.75156 0.74193 0.15535 0.0
C2363 C 0.76538 0.75278 0.14622 0.0
H2364 H 0.47476 0.5023 0.41061 0.0
H2365 H 0.5264 0.52988 0.39351 0.0
H2366 H 0.49288 0.47772 0.42623 0.0
H2367 H 0.54469 0.50474 0.40839 0.0
H2368 H 0.57192 0.46852 0.45454 0.0
H2369 H 0.5541 0.49288 0.43783 0.0
H2370 H 0.51199 0.45133 0.4227 0.0
H2371 H 0.5295 0.42735 0.44005 0.0
C2372 C 0.49002 0.50292 0.40985 0.0
C2373 C 0.49911 0.51809 0.40079 0.0
C2374 C 0.50048 0.48872 0.41879 0.0
C2375 C 0.52037 0.48912 0.4187 0.0
C2376 C 0.52944 0.50407 0.40915 0.0
C2377 C 0.51895 0.51843 0.40042 0.0
C2378 C 0.55885 0.46467 0.44762 0.0
C2379 C 0.55204 0.44608 0.44877 0.0
C2380 C 0.54865 0.4786 0.43791 0.0
C2381 C 0.53148 0.47421 0.42883 0.0
C2382 C 0.52487 0.45546 0.42981 0.0
C2383 C 0.53493 0.44164 0.43975 0.0
H2384 H 0.84113 0.84236 0.73571 0.0
H2385 H 0.81972 0.80375 0.69374 0.0
H2386 H 0.85906 0.81672 0.75024 0.0
H2387 H 0.83712 0.77803 0.70843 0.0
H2388 H 0.88254 0.73824 0.72716 0.0
H2389 H 0.86744 0.76556 0.71281 0.0
H2390 H 0.85675 0.78865 0.76837 0.0
H2391 H 0.87263 0.76155 0.78266 0.0
C2392 C 0.8401 0.82835 0.72969 0.0
C2393 C 0.82903 0.82514 0.7135 0.0
C2394 C 0.85037 0.8136 0.73805 0.0
C2395 C 0.84972 0.7952 0.73051 0.0
C2396 C 0.83843 0.79203 0.71442 0.0
C2397 C 0.82834 0.80679 0.70599 0.0
C2398 C 0.87717 0.74926 0.73631 0.0
C2399 C 0.87876 0.74767 0.75606 0.0
C2400 C 0.86831 0.76489 0.72809 0.0
C2401 C 0.86053 0.7793 0.73937 0.0
C2402 C 0.86268 0.77799 0.75915 0.0
C2403 C 0.87177 0.76241 0.76738 0.0
H2404 H 0.3101 0.70342 0.29167 0.0
H2405 H 0.35991 0.69451 0.32568 0.0
H2406 H 0.3267 0.72786 0.27375 0.0
H2407 H 0.37639 0.71913 0.308 0.0
H2408 H 0.40533 0.75045 0.25805 0.0
H2409 H 0.38919 0.72533 0.2756 0.0
H2410 H 0.3392 0.76002 0.27926 0.0
H2411 H 0.35514 0.78495 0.26178 0.0
C2412 C 0.32457 0.70669 0.29533 0.0
C2413 C 0.3336 0.69708 0.31019 0.0
C2414 C 0.33406 0.72077 0.28515 0.0
C2415 C 0.35289 0.72546 0.28945 0.0
C2416 C 0.36196 0.71576 0.30422 0.0
C2417 C 0.35241 0.70181 0.31452 0.0
C2418 C 0.39091 0.75271 0.26262 0.0
C2419 C 0.38158 0.76975 0.2585 0.0
C2420 C 0.38168 0.73835 0.27274 0.0
C2421 C 0.36287 0.74065 0.27878 0.0
C2422 C 0.35359 0.75768 0.27462 0.0
C2423 C 0.36282 0.77205 0.26469 0.0
H2424 H 0.4819 0.11346 0.54391 0.0
H2425 H 0.51459 0.12937 0.49483 0.0
H2426 H 0.51006 0.10025 0.55857 0.0
H2427 H 0.54296 0.11599 0.5096 0.0
H2428 H 0.58049 0.06666 0.53362 0.0
H2429 H 0.55419 0.08303 0.51874 0.0
H2430 H 0.54122 0.1104 0.57164 0.0
H2431 H 0.56766 0.09449 0.58654 0.0
C2432 C 0.49516 0.1143 0.53631 0.0
C2433 C 0.496 0.12248 0.5182 0.0
C2434 C 0.51133 0.10678 0.54476 0.0
C2435 C 0.52874 0.10703 0.53524 0.0
C2436 C 0.5297 0.11547 0.51723 0.0
C2437 C 0.51351 0.12326 0.50884 0.0
C2438 C 0.57228 0.07631 0.54213 0.0
C2439 C 0.57638 0.07902 0.56146 0.0
C2440 C 0.55716 0.08574 0.53352 0.0
C2441 C 0.5456 0.09799 0.54401 0.0
C2442 C 0.54973 0.10088 0.56321 0.0
C2443 C 0.56494 0.09162 0.57179 0.0
H2444 H 0.19902 0.3051 0.82371 0.0
H2445 H 0.18162 0.34959 0.7859 0.0
H2446 H 0.18117 0.28222 0.80508 0.0
H2447 H 0.16302 0.32714 0.76774 0.0
H2448 H 0.14966 0.27967 0.72667 0.0
H2449 H 0.16555 0.30288 0.74616 0.0
H2450 H 0.15174 0.27044 0.79616 0.0
H2451 H 0.13666 0.24662 0.77636 0.0
C2452 C 0.19116 0.30998 0.81152 0.0
C2453 C 0.19188 0.32906 0.80613 0.0
C2454 C 0.18079 0.29691 0.80086 0.0
C2455 C 0.1706 0.30268 0.78473 0.0
C2456 C 0.17101 0.32195 0.77971 0.0
C2457 C 0.18164 0.3349 0.79016 0.0
C2458 C 0.1498 0.27757 0.74185 0.0
C2459 C 0.14187 0.26125 0.74993 0.0
C2460 C 0.1589 0.29099 0.75312 0.0
C2461 C 0.16007 0.28867 0.77287 0.0
C2462 C 0.15153 0.27261 0.78101 0.0
C2463 C 0.14268 0.25901 0.76967 0.0
H2464 H 0.42284 0.42983 0.54385 0.0
H2465 H 0.46869 0.45203 0.57718 0.0
H2466 H 0.44497 0.4104 0.5261 0.0
H2467 H 0.49108 0.43314 0.55903 0.0
H2468 H 0.52671 0.38758 0.53214 0.0
H2469 H 0.50318 0.40303 0.55204 0.0
H2470 H 0.4682 0.41253 0.50286 0.0
H2471 H 0.49125 0.39641 0.48328 0.0
C2472 C 0.43771 0.43067 0.54727 0.0
C2473 C 0.44402 0.44257 0.56185 0.0
C2474 C 0.45047 0.41954 0.53705 0.0
C2475 C 0.46996 0.42019 0.54093 0.0
C2476 C 0.4762 0.43194 0.55575 0.0
C2477 C 0.46338 0.44288 0.56614 0.0
C2478 C 0.51384 0.39271 0.52565 0.0
C2479 C 0.5109 0.39071 0.50609 0.0
C2480 C 0.5004 0.40178 0.53704 0.0
C2481 C 0.48373 0.40926 0.52914 0.0
C2482 C 0.48063 0.40676 0.50963 0.0
C2483 C 0.49396 0.39753 0.49831 0.0
H2484 H 0.64317 0.27739 0.24764 0.0
H2485 H 0.6482 0.2431 0.29796 0.0
H2486 H 0.65907 0.25296 0.22935 0.0
H2487 H 0.66386 0.21851 0.27956 0.0
H2488 H 0.71183 0.19037 0.24564 0.0
H2489 H 0.69412 0.21356 0.26386 0.0
H2490 H 0.65588 0.22118 0.21694 0.0
H2491 H 0.6735 0.19796 0.19875 0.0
C2492 C 0.64743 0.26453 0.25477 0.0
C2493 C 0.64441 0.26227 0.27432 0.0
C2494 C 0.65651 0.25046 0.24424 0.0
C2495 C 0.66288 0.23377 0.25297 0.0
C2496 C 0.65942 0.2313 0.27242 0.0
C2497 C 0.65027 0.24534 0.28295 0.0
C2498 C 0.69956 0.19683 0.23922 0.0
C2499 C 0.69421 0.19221 0.22063 0.0
C2500 C 0.68935 0.21015 0.24972 0.0
C2501 C 0.67351 0.21926 0.24191 0.0
C2502 C 0.66814 0.21465 0.22333 0.0
C2503 C 0.67832 0.20131 0.21285 0.0
H2504 H 0.49569 0.88989 0.99674 0.0
H2505 H 0.53227 0.89394 0.04543 0.0
H2506 H 0.5197 0.90545 0.97738 0.0
H2507 H 0.55622 0.90939 0.02606 0.0
H2508 H 0.58359 0.9571 0.99153 0.0
H2509 H 0.56002 0.94029 1.01005 0.0
H2510 H 0.55192 0.90097 0.9642 0.0
H2511 H 0.57572 0.91749 0.9457 0.0
C2512 C 0.50892 0.89388 1.00328 0.0
C2513 C 0.512 0.89065 0.02267 0.0
C2514 C 0.5227 0.90279 0.99216 0.0
C2515 C 0.53983 0.90883 1.0002 0.0
C2516 C 0.54308 0.90519 0.01948 0.0
C2517 C 0.52938 0.89616 0.03055 0.0
C2518 C 0.57698 0.9448 0.98535 0.0
C2519 C 0.58182 0.93872 0.96702 0.0
C2520 C 0.56341 0.93514 0.99604 0.0
C2521 C 0.55414 0.9192 0.98867 0.0
C2522 C 0.55866 0.91329 0.97025 0.0
C2523 C 0.57235 0.92286 0.9596 0.0
H2524 H 1.00644 0.12332 0.53176 0.0
H2525 H 0.01629 0.15438 0.48004 0.0
H2526 H 0.97996 0.10713 0.51699 0.0
H2527 H 0.98959 0.13832 0.46534 0.0
H2528 H 0.95873 0.08684 0.43928 0.0
H2529 H 0.9829 0.10622 0.45422 0.0
H2530 H 0.94822 0.11105 0.50422 0.0
H2531 H 0.92401 0.09181 0.48929 0.0
C2532 C 1.00277 0.12695 0.51734 0.0
C2533 C 0.0136 0.14011 0.50708 0.0
C2534 C 0.98752 0.11768 0.50887 0.0
C2535 C 0.98273 0.12128 0.48991 0.0
C2536 C 0.99309 0.13498 0.47987 0.0
C2537 C 1.0083 0.14432 0.48837 0.0
C2538 C 0.95613 0.09218 0.45337 0.0
C2539 C 0.9394 0.08757 0.46307 0.0
C2540 C 0.97 0.10335 0.46194 0.0
C2541 C 0.96753 0.1102 0.48045 0.0
C2542 C 0.95072 0.10579 0.49007 0.0
C2543 C 0.93683 0.09467 0.48149 0.0
H2544 H 0.157 0.41297 0.48049 0.0
H2545 H 0.18957 0.44318 0.43858 0.0
H2546 H 0.17508 0.38455 0.47426 0.0
H2547 H 0.20803 0.41455 0.43247 0.0
H2548 H 0.21348 0.35265 0.40897 0.0
H2549 H 0.20191 0.38394 0.41746 0.0
H2550 H 0.20539 0.36916 0.47663 0.0
H2551 H 0.21662 0.33774 0.46816 0.0
C2552 C 0.16827 0.41365 0.47015 0.0
C2553 C 0.17174 0.43036 0.45996 0.0
C2554 C 0.17876 0.39732 0.46665 0.0
C2555 C 0.19301 0.39718 0.4528 0.0
C2556 C 0.19702 0.4141 0.4431 0.0
C2557 C 0.18656 0.43056 0.4467 0.0
C2558 C 0.21204 0.35614 0.42381 0.0
C2559 C 0.21578 0.34255 0.43787 0.0
C2560 C 0.2055 0.37416 0.42869 0.0
C2561 C 0.20253 0.37905 0.44774 0.0
C2562 C 0.2072 0.36577 0.46181 0.0
C2563 C 0.21374 0.34776 0.45694 0.0
H2564 H 0.93715 0.93799 0.68435 0.0
H2565 H 0.91236 0.98598 0.65589 0.0
H2566 H 0.90579 0.928 0.69479 0.0
H2567 H 0.88115 0.97605 0.66642 0.0
H2568 H 0.8314 0.93368 0.66012 0.0
H2569 H 0.86186 0.94899 0.65615 0.0
H2570 H 0.87644 0.93507 0.71379 0.0
H2571 H 0.84562 0.91963 0.7178 0.0
C2572 C 0.9251 0.94666 0.68069 0.0
C2573 C 0.9273 0.96267 0.66905 0.0
C2574 C 0.9071 0.94095 0.68673 0.0
C2575 C 0.89091 0.95108 0.68122 0.0
C2576 C 0.89328 0.96775 0.67065 0.0
C2577 C 0.91123 0.97349 0.66468 0.0
C2578 C 0.84095 0.93412 0.67208 0.0
C2579 C 0.83608 0.92541 0.68927 0.0
C2580 C 0.85841 0.94301 0.66983 0.0
C2581 C 0.87163 0.94328 0.68465 0.0
C2582 C 0.8666 0.93502 0.70207 0.0
C2583 C 0.84891 0.92632 0.70442 0.0
H2584 H 0.33683 0.6877 0.93312 0.0
H2585 H 0.28979 0.66222 0.90387 0.0
H2586 H 0.34687 0.65637 0.94401 0.0
H2587 H 0.29967 0.6312 0.91482 0.0
H2588 H 0.34202 0.58189 0.90886 0.0
H2589 H 0.32735 0.61261 0.90464 0.0
H2590 H 0.3393 0.6265 0.96286 0.0
H2591 H 0.35412 0.59539 0.96713 0.0
C2592 C 0.32835 0.67552 0.92944 0.0
C2593 C 0.31267 0.67744 0.91739 0.0
C2594 C 0.33409 0.65757 0.93569 0.0
C2595 C 0.32425 0.64126 0.92999 0.0
C2596 C 0.30778 0.64342 0.91914 0.0
C2597 C 0.30208 0.66125 0.91292 0.0
C2598 C 0.34132 0.59135 0.92087 0.0
C2599 C 0.34923 0.58617 0.93833 0.0
C2600 C 0.3328 0.60896 0.91848 0.0
C2601 C 0.3321 0.62202 0.93343 0.0
C2602 C 0.33969 0.61677 0.95106 0.0
C2603 C 0.34803 0.59892 0.95354 0.0
H2604 H 0.6668 0.10873 0.23452 0.0
H2605 H 0.69619 0.08782 0.18528 0.0
H2606 H 0.63788 0.09343 0.22376 0.0
H2607 H 0.66728 0.07316 0.17419 0.0
H2608 H 0.61587 0.03999 0.16092 0.0
H2609 H 0.64426 0.0495 0.1778 0.0
H2610 H 0.61465 0.09802 0.20006 0.0
H2611 H 0.58606 0.08802 0.18375 0.0
C2612 C 0.66715 0.10071 0.22149 0.0
C2613 C 0.68383 0.09959 0.21073 0.0
C2614 C 0.6505 0.09206 0.21523 0.0
C2615 C 0.65008 0.08215 0.19799 0.0
C2616 C 0.667 0.08041 0.18766 0.0
C2617 C 0.68365 0.08893 0.19398 0.0
C2618 C 0.61533 0.05251 0.1697 0.0
C2619 C 0.59873 0.06333 0.17086 0.0
C2620 C 0.63168 0.05806 0.17928 0.0
C2621 C 0.63196 0.07474 0.19008 0.0
C2622 C 0.61502 0.08501 0.19204 0.0
C2623 C 0.59858 0.07932 0.18262 0.0
H2624 H 0.18199 0.69136 0.09124 0.0
H2625 H 0.22968 0.66217 0.11554 0.0
H2626 H 0.1716 0.66204 0.07648 0.0
H2627 H 0.2198 0.63305 0.10022 0.0
H2628 H 0.18147 0.58094 0.09494 0.0
H2629 H 0.19607 0.61035 0.10483 0.0
H2630 H 0.17583 0.63762 0.05401 0.0
H2631 H 0.16059 0.60825 0.04447 0.0
C2632 C 0.19054 0.6788 0.09301 0.0
C2633 C 0.20656 0.67907 0.10472 0.0
C2634 C 0.18461 0.66193 0.0845 0.0
C2635 C 0.19468 0.64498 0.08733 0.0
C2636 C 0.21137 0.64563 0.09809 0.0
C2637 C 0.21715 0.66241 0.10677 0.0
C2638 C 0.18034 0.59312 0.08572 0.0
C2639 C 0.16974 0.59221 0.06896 0.0
C2640 C 0.18883 0.61005 0.09136 0.0
C2641 C 0.18711 0.62654 0.0803 0.0
C2642 C 0.17719 0.62538 0.0631 0.0
C2643 C 0.16857 0.60845 0.05753 0.0
H2644 H 0.68952 0.93607 0.36634 0.0
H2645 H 0.67634 0.9195 0.30911 0.0
H2646 H 0.65866 0.95088 0.36927 0.0
H2647 H 0.64517 0.93437 0.3121 0.0
H2648 H 0.58408 0.93697 0.34076 0.0
H2649 H 0.61584 0.92704 0.3315 0.0
H2650 H 0.63899 0.9773 0.357 0.0
H2651 H 0.6074 0.98723 0.3663 0.0
C2652 C 0.68011 0.93584 0.35427 0.0
C2653 C 0.68537 0.92658 0.33751 0.0
C2654 C 0.66244 0.94442 0.35592 0.0
C2655 C 0.64943 0.9438 0.34092 0.0
C2656 C 0.65485 0.935 0.32393 0.0
C2657 C 0.67273 0.92662 0.32218 0.0
C2658 C 0.5959 0.9461 0.34406 0.0
C2659 C 0.59317 0.96279 0.35449 0.0
C2660 C 0.6141 0.94043 0.33868 0.0
C2661 C 0.62996 0.95127 0.34372 0.0
C2662 C 0.62709 0.9685 0.35316 0.0
C2663 C 0.60894 0.97422 0.35841 0.0
H2664 H 0.34132 0.44558 0.59575 0.0
H2665 H 0.35823 0.41986 0.54302 0.0
H2666 H 0.32703 0.41601 0.60568 0.0
H2667 H 0.34338 0.39029 0.55275 0.0
H2668 H 0.34016 0.33581 0.59007 0.0
H2669 H 0.34948 0.36533 0.57485 0.0
H2670 H 0.30244 0.39376 0.60141 0.0
H2671 H 0.29359 0.36444 0.61707 0.0
C2672 C 0.34165 0.43372 0.58608 0.0
C2673 C 0.35105 0.4351 0.56863 0.0
C2674 C 0.33334 0.41672 0.59175 0.0
C2675 C 0.33409 0.40064 0.58007 0.0
C2676 C 0.34278 0.40226 0.56225 0.0
C2677 C 0.35117 0.41929 0.5566 0.0
C2678 C 0.33161 0.34829 0.59235 0.0
C2679 C 0.31628 0.34783 0.60496 0.0
C2680 C 0.33692 0.36525 0.58358 0.0
C2681 C 0.3269 0.38208 0.58711 0.0
C2682 C 0.3108 0.38123 0.59873 0.0
C2683 C 0.30562 0.36437 0.60761 0.0
H2684 H 0.93028 0.05816 0.8548 0.0
H2685 H 0.9438 0.11604 0.84108 0.0
H2686 H 0.89893 0.06222 0.84043 0.0
H2687 H 0.91287 0.12005 0.82685 0.0
H2688 H 0.86224 0.12113 0.7912 0.0
H2689 H 0.89339 0.10962 0.79995 0.0
H2690 H 0.86948 0.08135 0.8485 0.0
H2691 H 0.83804 0.09276 0.83958 0.0
C2692 C 0.92671 0.0716 0.8484 0.0
C2693 C 0.9395 0.08679 0.84906 0.0
C2694 C 0.90873 0.07396 0.84032 0.0
C2695 C 0.90341 0.09144 0.83245 0.0
C2696 C 0.91656 0.10632 0.83253 0.0
C2697 C 0.93429 0.10405 0.84079 0.0
C2698 C 0.86351 0.11212 0.80353 0.0
C2699 C 0.84768 0.1081 0.81485 0.0
C2700 C 0.8814 0.10558 0.80858 0.0
C2701 C 0.88398 0.09488 0.82512 0.0
C2702 C 0.86796 0.08954 0.83565 0.0
C2703 C 0.84994 0.09608 0.83055 0.0
H2704 H 0.43821 0.1875 0.4415 0.0
H2705 H 0.48812 0.16384 0.41561 0.0
H2706 H 0.43031 0.20314 0.41191 0.0
H2707 H 0.48054 0.17999 0.3861 0.0
H2708 H 0.44489 0.18729 0.3316 0.0
H2709 H 0.45803 0.17641 0.36143 0.0
H2710 H 0.43736 0.22677 0.389 0.0
H2711 H 0.42367 0.23738 0.3592 0.0
C2712 C 0.44774 0.18596 0.42961 0.0
C2713 C 0.46372 0.17425 0.43092 0.0
C2714 C 0.44325 0.19504 0.4126 0.0
C2715 C 0.45469 0.19275 0.39646 0.0
C2716 C 0.47119 0.1818 0.39809 0.0
C2717 C 0.47562 0.17263 0.41508 0.0
C2718 C 0.44341 0.19622 0.34394 0.0
C2719 C 0.43305 0.21314 0.34299 0.0
C2720 C 0.45104 0.19 0.36111 0.0
C2721 C 0.44863 0.20059 0.37778 0.0
C2722 C 0.43917 0.21804 0.37658 0.0
C2723 C 0.43145 0.22421 0.35942 0.0
H2724 H 0.05554 0.16015 0.59856 0.0
H2725 H 0.08731 0.20644 0.57487 0.0
H2726 H 0.06302 0.17097 0.63032 0.0
H2727 H 0.09615 0.21656 0.60647 0.0
H2728 H 0.10446 0.2381 0.6647 0.0
H2729 H 0.08963 0.23013 0.63472 0.0
H2730 H 0.08607 0.1717 0.65255 0.0
H2731 H 0.0995 0.18022 0.68301 0.0
C2732 C 0.0642 0.17265 0.6002 0.0
C2733 C 0.07085 0.18245 0.58424 0.0
C2734 C 0.06869 0.1788 0.61846 0.0
C2735 C 0.08043 0.19462 0.62129 0.0
C2736 C 0.08677 0.20458 0.60517 0.0
C2737 C 0.08182 0.19871 0.58692 0.0
C2738 C 0.10003 0.22365 0.6623 0.0
C2739 C 0.10306 0.20979 0.67618 0.0
C2740 C 0.09177 0.21896 0.64496 0.0
C2741 C 0.08687 0.20012 0.64077 0.0
C2742 C 0.08929 0.18641 0.65509 0.0
C2743 C 0.09707 0.19125 0.67265 0.0
H2744 H 0.08528 0.8392 0.93799 0.0
H2745 H 0.03511 0.86541 0.9152 0.0
H2746 H 0.09441 0.82927 0.90621 0.0
H2747 H 0.04415 0.85529 0.88356 0.0
H2748 H 0.08484 0.86484 0.83265 0.0
H2749 H 0.06961 0.86714 0.86335 0.0
H2750 H 0.0879 0.81054 0.87694 0.0
H2751 H 0.1033 0.80825 0.8459 0.0
C2752 C 0.07593 0.84241 0.92631 0.0
C2753 C 0.05959 0.85337 0.92916 0.0
C2754 C 0.08115 0.83665 0.90806 0.0
C2755 C 0.07017 0.84174 0.89228 0.0
C2756 C 0.05312 0.85144 0.89535 0.0
C2757 C 0.04789 0.85716 0.91355 0.0
C2758 C 0.08533 0.85272 0.84201 0.0
C2759 C 0.09532 0.83638 0.83684 0.0
C2760 C 0.07649 0.854 0.85962 0.0
C2761 C 0.07753 0.83904 0.87268 0.0
C2762 C 0.08692 0.82236 0.86725 0.0
C2763 C 0.0956 0.82098 0.84943 0.0
H2764 H 0.43654 0.83715 0.08402 0.0
H2765 H 0.48363 0.86143 0.11413 0.0
H2766 H 0.42577 0.82206 0.11309 0.0
H2767 H 0.47337 0.84577 0.14303 0.0
H2768 H 0.43339 0.84074 0.19421 0.0
H2769 H 0.44916 0.85031 0.16526 0.0
H2770 H 0.42948 0.79958 0.13763 0.0
H2771 H 0.41308 0.79033 0.16655 0.0
C2772 C 0.44489 0.83884 0.09673 0.0
C2773 C 0.46083 0.85066 0.09679 0.0
C2774 C 0.43875 0.83013 0.11346 0.0
C2775 C 0.44852 0.83287 0.13061 0.0
C2776 C 0.46518 0.8437 0.13028 0.0
C2777 C 0.47117 0.85257 0.11364 0.0
C2778 C 0.43267 0.83144 0.18208 0.0
C2779 C 0.42182 0.81483 0.18272 0.0
C2780 C 0.44182 0.8369 0.1654 0.0
C2781 C 0.44054 0.82582 0.14892 0.0
C2782 C 0.4305 0.80868 0.14988 0.0
C2783 C 0.42122 0.80328 0.16655 0.0
H2784 H 0.43244 0.43456 0.18909 0.0
H2785 H 0.40642 0.48468 0.16601 0.0
H2786 H 0.40153 0.42381 0.20044 0.0
H2787 H 0.37581 0.47415 0.17753 0.0
H2788 H 0.32566 0.43327 0.16919 0.0
H2789 H 0.35614 0.4485 0.16559 0.0
H2790 H 0.37264 0.42877 0.22098 0.0
H2791 H 0.34171 0.41332 0.22459 0.0
C2792 C 0.42025 0.44354 0.18692 0.0
C2793 C 0.42187 0.46035 0.17639 0.0
C2794 C 0.40252 0.43739 0.19344 0.0
C2795 C 0.38611 0.44796 0.18959 0.0
C2796 C 0.38807 0.46546 0.18038 0.0
C2797 C 0.40567 0.47154 0.17384 0.0
C2798 C 0.33562 0.43242 0.18078 0.0
C2799 C 0.33123 0.42211 0.19718 0.0
C2800 C 0.35312 0.44126 0.17875 0.0
C2801 C 0.3669 0.43992 0.19301 0.0
C2802 C 0.36238 0.43001 0.20971 0.0
C2803 C 0.34462 0.42133 0.21185 0.0
H2804 H 0.83913 0.94313 0.08883 0.0
H2805 H 0.86125 0.91325 0.04048 0.0
H2806 H 0.82289 0.91463 0.0991 0.0
H2807 H 0.8443 0.88492 0.05019 0.0
H2808 H 0.83711 0.83291 0.08904 0.0
H2809 H 0.84772 0.86158 0.07334 0.0
H2810 H 0.79946 0.89163 0.09564 0.0
H2811 H 0.78938 0.86308 0.11204 0.0
C2812 C 0.84005 0.93062 0.08007 0.0
C2813 C 0.85163 0.93042 0.06394 0.0
C2814 C 0.83067 0.91421 0.08593 0.0
C2815 C 0.83242 0.89724 0.07565 0.0
C2816 C 0.84299 0.89749 0.05878 0.0
C2817 C 0.85257 0.91382 0.05309 0.0
C2818 C 0.82858 0.84555 0.09031 0.0
C2819 C 0.8125 0.84574 0.10194 0.0
C2820 C 0.83462 0.86206 0.08122 0.0
C2821 C 0.8246 0.87914 0.08332 0.0
C2822 C 0.80784 0.87895 0.09403 0.0
C2823 C 0.80195 0.8625 0.10332 0.0
H2824 H 0.19727 0.56375 0.69275 0.0
H2825 H 0.17249 0.61738 0.70786 0.0
H2826 H 0.16596 0.55131 0.68573 0.0
H2827 H 0.14139 0.60537 0.69995 0.0
H2828 H 0.08504 0.57904 0.68867 0.0
H2829 H 0.11496 0.58577 0.70458 0.0
H2830 H 0.14475 0.55506 0.66097 0.0
H2831 H 0.11514 0.54773 0.64579 0.0
C2832 C 0.18512 0.57283 0.69475 0.0
C2833 C 0.18744 0.59161 0.70067 0.0
C2834 C 0.16713 0.56576 0.69058 0.0
C2835 C 0.15103 0.5774 0.69187 0.0
C2836 C 0.15331 0.59585 0.6989 0.0
C2837 C 0.17125 0.60281 0.70336 0.0
C2838 C 0.09798 0.57343 0.68275 0.0
C2839 C 0.09765 0.56298 0.66586 0.0
C2840 C 0.11518 0.57741 0.69177 0.0
C2841 C 0.13244 0.57111 0.68405 0.0
C2842 C 0.13188 0.55995 0.66762 0.0
C2843 C 0.11478 0.55587 0.65875 0.0
H2844 H 0.66511 0.90813 0.982 0.0
H2845 H 0.68797 0.93614 0.93281 0.0
H2846 H 0.68143 0.87918 0.97324 0.0
H2847 H 0.70367 0.90695 0.92349 0.0
H2848 H 0.73622 0.85379 0.91297 0.0
H2849 H 0.72667 0.88327 0.92799 0.0
H2850 H 0.67723 0.85547 0.95067 0.0
H2851 H 0.68717 0.82599 0.93633 0.0
C2852 C 0.67379 0.90814 0.96938 0.0
C2853 C 0.67513 0.9244 0.95803 0.0
C2854 C 0.68304 0.89146 0.96425 0.0
C2855 C 0.69365 0.89048 0.94744 0.0
C2856 C 0.6958 0.9071 0.93662 0.0
C2857 C 0.68675 0.92389 0.94193 0.0
C2858 C 0.72351 0.8539 0.9215 0.0
C2859 C 0.71243 0.83751 0.92335 0.0
C2860 C 0.71792 0.87088 0.92998 0.0
C2861 C 0.70102 0.87195 0.94042 0.0
C2862 C 0.69045 0.85528 0.94299 0.0
C2863 C 0.69613 0.83829 0.93467 0.0
H2864 H 0.80573 0.17955 0.42232 0.0
H2865 H 0.86217 0.19253 0.44135 0.0
H2866 H 0.80808 0.14822 0.43702 0.0
H2867 H 0.86448 0.1615 0.45596 0.0
H2868 H 0.86119 0.10923 0.49043 0.0
H2869 H 0.85168 0.14102 0.48134 0.0
H2870 H 0.82751 0.11921 0.42978 0.0
H2871 H 0.83695 0.08728 0.43889 0.0
C2872 C 0.81846 0.17588 0.42997 0.0
C2873 C 0.83379 0.18849 0.43063 0.0
C2874 C 0.81985 0.1579 0.43825 0.0
C2875 C 0.83647 0.15235 0.44763 0.0
C2876 C 0.8514 0.16537 0.44904 0.0
C2877 C 0.85011 0.18315 0.44057 0.0
C2878 C 0.85351 0.1111 0.47732 0.0
C2879 C 0.85007 0.09568 0.46527 0.0
C2880 C 0.84813 0.12937 0.47208 0.0
C2881 C 0.83908 0.13269 0.45472 0.0
C2882 C 0.83439 0.11713 0.44329 0.0
C2883 C 0.83987 0.09881 0.44849 0.0
H2884 H 0.73145 0.16259 0.61427 0.0
H2885 H 0.68324 0.19213 0.5915 0.0
H2886 H 0.72157 0.13385 0.5982 0.0
H2887 H 0.67278 0.16324 0.57614 0.0
H2888 H 0.66029 0.1113 0.54308 0.0
H2889 H 0.67631 0.14002 0.55306 0.0
H2890 H 0.6987 0.11036 0.60162 0.0
H2891 H 0.68338 0.08147 0.59104 0.0
C2892 C 0.7188 0.16298 0.60568 0.0
C2893 C 0.70809 0.17964 0.60423 0.0
C2894 C 0.71301 0.14642 0.59659 0.0
C2895 C 0.69618 0.14598 0.58602 0.0
C2896 C 0.68594 0.16294 0.58391 0.0
C2897 C 0.69189 0.17958 0.59279 0.0
C2898 C 0.66895 0.11084 0.55569 0.0
C2899 C 0.67049 0.09411 0.56631 0.0
C2900 C 0.67801 0.1274 0.56154 0.0
C2901 C 0.68863 0.12776 0.57836 0.0
C2902 C 0.69087 0.11072 0.58848 0.0
C2903 C 0.68202 0.09408 0.58246 0.0
H2904 H 0.08102 0.43332 0.84355 0.0
H2905 H 0.11094 0.4801 0.86863 0.0
H2906 H 0.10987 0.42334 0.8277 0.0
H2907 H 0.13962 0.47073 0.85214 0.0
H2908 H 0.19155 0.43239 0.84353 0.0
H2909 H 0.16272 0.44734 0.85473 0.0
H2910 H 0.13332 0.42792 0.80483 0.0
H2911 H 0.16201 0.41226 0.79413 0.0
C2912 C 0.09365 0.44178 0.84526 0.0
C2913 C 0.09372 0.45739 0.85748 0.0
C2914 C 0.11026 0.4361 0.83611 0.0
C2915 C 0.1273 0.44607 0.83875 0.0
C2916 C 0.12699 0.46238 0.8501 0.0
C2917 C 0.11046 0.46787 0.85945 0.0
C2918 C 0.17902 0.43161 0.83479 0.0
C2919 C 0.17906 0.42101 0.81802 0.0
C2920 C 0.16241 0.44025 0.84118 0.0
C2921 C 0.14547 0.43873 0.83082 0.0
C2922 C 0.14589 0.42904 0.81346 0.0
C2923 C 0.16242 0.42019 0.80722 0.0
H2924 H 0.36591 0.62631 0.2955 0.0
H2925 H 0.33613 0.58637 0.33083 0.0
H2926 H 0.39561 0.61175 0.30381 0.0
H2927 H 0.36612 0.57108 0.33863 0.0
H2928 H 0.4236 0.5709 0.37033 0.0
H2929 H 0.39254 0.57798 0.35774 0.0
H2930 H 0.41691 0.58661 0.30233 0.0
H2931 H 0.44822 0.58034 0.31521 0.0
C2932 C 0.36564 0.61409 0.30473 0.0
C2933 C 0.34859 0.60768 0.31268 0.0
C2934 C 0.38279 0.60558 0.3094 0.0
C2935 C 0.38345 0.59024 0.32204 0.0
C2936 C 0.36625 0.58308 0.32912 0.0
C2937 C 0.349 0.59172 0.32452 0.0
C2938 C 0.42235 0.57404 0.35538 0.0
C2939 C 0.4385 0.57531 0.34384 0.0
C2940 C 0.40441 0.57799 0.3481 0.0
C2941 C 0.40209 0.58312 0.32901 0.0
C2942 C 0.41814 0.58317 0.3172 0.0
C2943 C 0.43612 0.57944 0.32455 0.0
H2944 H 0.96845 0.67376 0.93065 0.0
H2945 H 0.9103 0.68645 0.94388 0.0
H2946 H 0.96458 0.68873 0.89956 0.0
H2947 H 0.90646 0.70129 0.9131 0.0
H2948 H 0.90628 0.73747 0.86181 0.0
H2949 H 0.91644 0.72834 0.89343 0.0
H2950 H 0.94626 0.68056 0.87013 0.0
H2951 H 0.9362 0.68974 0.83837 0.0
C2952 C 0.95497 0.68005 0.92708 0.0
C2953 C 0.93966 0.67888 0.93971 0.0
C2954 C 0.95272 0.68849 0.90923 0.0
C2955 C 0.93521 0.6962 0.90383 0.0
C2956 C 0.9202 0.69571 0.91685 0.0
C2957 C 0.92237 0.68709 0.93449 0.0
C2958 C 0.91531 0.72522 0.86333 0.0
C2959 C 0.92021 0.71421 0.84752 0.0
C2960 C 0.92106 0.71994 0.8815 0.0
C2961 C 0.93193 0.70357 0.88435 0.0
C2962 C 0.93795 0.69329 0.86843 0.0
C2963 C 0.93213 0.69853 0.85022 0.0
H2964 H 0.53634 0.65502 0.11124 0.0
H2965 H 0.58621 0.68138 0.08789 0.0
H2966 H 0.54544 0.66553 0.14273 0.0
H2967 H 0.59532 0.69184 0.11952 0.0
H2968 H 0.60184 0.71591 0.17927 0.0
H2969 H 0.58724 0.71172 0.14808 0.0
H2970 H 0.57167 0.65473 0.1633 0.0
H2971 H 0.58619 0.65886 0.19419 0.0
C2972 C 0.54907 0.66335 0.11274 0.0
C2973 C 0.56065 0.66715 0.09701 0.0
C2974 C 0.55433 0.6693 0.13084 0.0
C2975 C 0.57122 0.67932 0.13368 0.0
C2976 C 0.58217 0.68422 0.11781 0.0
C2977 C 0.57698 0.67816 0.09967 0.0
C2978 C 0.59496 0.70263 0.17605 0.0
C2979 C 0.5952 0.68769 0.18918 0.0
C2980 C 0.58674 0.70019 0.15815 0.0
C2981 C 0.57832 0.68289 0.15319 0.0
C2982 C 0.57784 0.66831 0.1667 0.0
C2983 C 0.58625 0.67064 0.1844 0.0
H2984 H 0.58969 0.36323 0.33367 0.0
H2985 H 0.60455 0.30592 0.3483 0.0
H2986 H 0.57517 0.36742 0.3645 0.0
H2987 H 0.58992 0.31018 0.37958 0.0
H2988 H 0.58702 0.34156 0.44018 0.0
H2989 H 0.59707 0.3302 0.40899 0.0
H2990 H 0.54814 0.35632 0.38371 0.0
H2991 H 0.53824 0.36773 0.41458 0.0
C2992 C 0.58961 0.35141 0.34341 0.0
C2993 C 0.59825 0.33425 0.33851 0.0
C2994 C 0.5812 0.35378 0.3611 0.0
C2995 C 0.58133 0.33912 0.37453 0.0
C2996 C 0.58964 0.32175 0.36956 0.0
C2997 C 0.59786 0.31927 0.35162 0.0
C2998 C 0.57818 0.34445 0.42802 0.0
C2999 C 0.56198 0.3558 0.42984 0.0
C3000 C 0.58393 0.33792 0.41015 0.0
C3001 C 0.57358 0.34265 0.39382 0.0
C3002 C 0.55664 0.35276 0.39594 0.0
C3003 C 0.55093 0.35925 0.41368 0.0
H3004 H 0.93308 0.33897 0.68948 0.0
H3005 H 0.90634 0.28945 0.66594 0.0
H3006 H 0.94301 0.34858 0.65775 0.0
H3007 H 0.91624 0.29908 0.63438 0.0
H3008 H 0.90928 0.34043 0.58335 0.0
H3009 H 0.9052 0.32597 0.61435 0.0
H3010 H 0.96268 0.34027 0.62873 0.0
H3011 H 0.96683 0.35475 0.59744 0.0
C3012 C 0.92964 0.32993 0.67763 0.0
C3013 C 0.91872 0.31353 0.68029 0.0
C3014 C 0.93539 0.33542 0.65944 0.0
C3015 C 0.93022 0.3247 0.64352 0.0
C3016 C 0.92022 0.30778 0.64632 0.0
C3017 C 0.91461 0.30223 0.66447 0.0
C3018 C 0.92116 0.34024 0.59298 0.0
C3019 C 0.93837 0.34875 0.58793 0.0
C3020 C 0.91885 0.33187 0.61074 0.0
C3021 C 0.93361 0.33198 0.62403 0.0
C3022 C 0.95102 0.34005 0.61882 0.0
C3023 C 0.95343 0.3482 0.60087 0.0
loop_
_geom_bond_atom_site_label_1
_geom_bond_atom_site_label_2
_geom_bond_distance
_geom_bond_site_symmetry_2
_ccdc_geom_bond_type
Cu0 N1 1.999 . S
Cu0 O6 1.974 . S
Cu0 N11 1.985 . S
Cu0 O20 1.959 . S
N1 Cu0 1.999 . S
N1 C3 1.263 . S
N1 C5 1.389 . S
N2 C3 1.358 . S
N2 C4 1.400 . S
C3 N1 1.263 . S
C3 N2 1.358 . S
C3 H9 0.930 . S
C4 N2 1.400 . S
C4 C5 1.351 . S
C4 H21 0.930 . S
C5 N1 1.389 . S
C5 C4 1.351 . S
C5 H10 0.930 . S
O6 Cu0 1.974 . S
O6 C16 1.282 . S
C7 O8 1.261 . S
C7 O20 1.251 . S
O8 C7 1.261 . S
H9 C3 0.930 . S
H10 C5 0.930 . S
N11 Cu0 1.985 . S
N11 C13 1.335 . S
N11 C14 1.390 . S
N12 C13 1.345 . S
N12 C15 1.336 . S
C13 N11 1.335 . S
C13 N12 1.345 . S
C13 H18 0.930 . S
C14 N11 1.390 . S
C14 C15 1.346 . S
C14 H19 0.930 . S
C15 N12 1.336 . S
C15 C14 1.346 . S
C15 H22 0.929 . S
C16 O6 1.282 . S
C16 O17 1.216 . S
O17 C16 1.216 . S
H18 C13 0.930 . S
H19 C14 0.930 . S
O20 Cu0 1.959 . S
O20 C7 1.251 . S
H21 C4 0.930 . S
H22 C15 0.929 . S
Cu23 N24 1.999 . S
Cu23 O29 1.974 . S
Cu23 N34 1.985 . S
Cu23 O43 1.959 . S
N24 Cu23 1.999 . S
N24 C26 1.263 . S
N24 C28 1.389 . S
N25 C26 1.358 . S
N25 C27 1.400 . S
C26 N24 1.263 . S
C26 N25 1.358 . S
C26 H32 0.930 . S
C27 N25 1.400 . S
C27 C28 1.351 . S
C27 H44 0.930 . S
C28 N24 1.389 . S
C28 C27 1.351 . S
C28 H33 0.930 . S
O29 Cu23 1.974 . S
O29 C39 1.282 . S
C30 O31 1.261 . S
C30 O43 1.251 . S
O31 C30 1.261 . S
H32 C26 0.930 . S
H33 C28 0.930 . S
N34 Cu23 1.985 . S
N34 C36 1.335 . S
N34 C37 1.390 . S
N35 C36 1.345 . S
N35 C38 1.336 1_655 S
C36 N34 1.335 . S
C36 N35 1.345 . S
C36 H41 0.930 . S
C37 N34 1.390 . S
C37 C38 1.346 1_655 S
C37 H42 0.930 1_655 S
C38 N35 1.336 1_455 S
C38 C37 1.346 1_455 S
C38 H45 0.929 . S
C39 O29 1.282 . S
C39 O40 1.216 . S
O40 C39 1.216 . S
H41 C36 0.930 . S
H42 C37 0.930 1_455 S
O43 Cu23 1.959 . S
O43 C30 1.251 . S
H44 C27 0.930 . S
H45 C38 0.929 . S
Cu46 N47 1.999 . S
Cu46 O52 1.974 . S
Cu46 N57 1.985 . S
Cu46 O66 1.959 . S
N47 Cu46 1.999 . S
N47 C49 1.263 . S
N47 C51 1.389 . S
N48 C49 1.358 . S
N48 C50 1.400 . S
C49 N47 1.263 . S
C49 N48 1.358 . S
C49 H55 0.930 . S
C50 N48 1.400 . S
C50 C51 1.351 . S
C50 H67 0.930 . S
C51 N47 1.389 . S
C51 C50 1.351 . S
C51 H56 0.930 . S
O52 Cu46 1.974 . S
O52 C62 1.282 . S
C53 O54 1.261 . S
C53 O66 1.251 . S
O54 C53 1.261 . S
H55 C49 0.930 . S
H56 C51 0.930 . S
N57 Cu46 1.985 . S
N57 C59 1.335 . S
N57 C60 1.390 . S
N58 C59 1.345 . S
N58 C61 1.336 . S
C59 N57 1.335 . S
C59 N58 1.345 . S
C59 H64 0.930 . S
C60 N57 1.390 . S
C60 C61 1.346 . S
C60 H65 0.930 . S
C61 N58 1.336 . S
C61 C60 1.346 . S
C61 H68 0.929 . S
C62 O52 1.282 . S
C62 O63 1.216 . S
O63 C62 1.216 . S
H64 C59 0.930 . S
H65 C60 0.930 . S
O66 Cu46 1.959 . S
O66 C53 1.251 . S
H67 C50 0.930 . S
H68 C61 0.929 . S
Cu69 N70 1.999 . S
Cu69 O75 1.974 . S
Cu69 N80 1.985 . S
Cu69 O89 1.959 . S
N70 Cu69 1.999 . S
N70 C72 1.263 . S
N70 C74 1.389 . S
N71 C72 1.358 . S
N71 C73 1.400 . S
C72 N70 1.263 . S
C72 N71 1.358 . S
C72 H78 0.930 . S
C73 N71 1.400 . S
C73 C74 1.351 . S
C73 H90 0.930 . S
C74 N70 1.389 . S
C74 C73 1.351 . S
C74 H79 0.930 . S
O75 Cu69 1.974 . S
O75 C85 1.282 . S
C76 O77 1.261 . S
C76 O89 1.251 . S
O77 C76 1.261 . S
H78 C72 0.930 . S
H79 C74 0.930 . S
N80 Cu69 1.985 . S
N80 C82 1.335 . S
N80 C83 1.390 . S
N81 C82 1.345 . S
N81 C84 1.336 . S
C82 N80 1.335 . S
C82 N81 1.345 . S
C82 H87 0.930 . S
C83 N80 1.390 . S
C83 C84 1.346 . S
C83 H88 0.930 . S
C84 N81 1.336 . S
C84 C83 1.346 . S
C84 H91 0.929 . S
C85 O75 1.282 . S
C85 O86 1.216 . S
O86 C85 1.216 . S
H87 C82 0.930 . S
H88 C83 0.930 . S
O89 Cu69 1.959 . S
O89 C76 1.251 . S
H90 C73 0.930 . S
H91 C84 0.929 . S
Cu92 N93 1.999 . S
Cu92 O98 1.974 . S
Cu92 N103 1.985 . S
Cu92 O112 1.959 . S
N93 Cu92 1.999 . S
N93 C95 1.263 . S
N93 C97 1.389 . S
N94 C95 1.358 . S
N94 C96 1.400 . S
C95 N93 1.263 . S
C95 N94 1.358 . S
C95 H101 0.930 . S
C96 N94 1.400 . S
C96 C97 1.351 . S
C96 H113 0.930 . S
C97 N93 1.389 . S
C97 C96 1.351 . S
C97 H102 0.930 . S
O98 Cu92 1.974 . S
O98 C108 1.282 . S
C99 O100 1.261 . S
C99 O112 1.251 . S
O100 C99 1.261 . S
H101 C95 0.930 . S
H102 C97 0.930 . S
N103 Cu92 1.985 . S
N103 C105 1.335 . S
N103 C106 1.390 . S
N104 C105 1.345 . S
N104 C107 1.336 . S
C105 N103 1.335 . S
C105 N104 1.345 . S
C105 H110 0.930 . S
C106 N103 1.390 . S
C106 C107 1.346 . S
C106 H111 0.930 . S
C107 N104 1.336 . S
C107 C106 1.346 . S
C107 H114 0.929 . S
C108 O98 1.282 . S
C108 O109 1.216 . S
O109 C108 1.216 . S
H110 C105 0.930 . S
H111 C106 0.930 . S
O112 Cu92 1.959 . S
O112 C99 1.251 . S
H113 C96 0.930 . S
H114 C107 0.929 . S
Cu115 N116 1.999 . S
Cu115 O121 1.974 . S
Cu115 N126 1.985 . S
Cu115 O135 1.959 . S
N116 Cu115 1.999 . S
N116 C118 1.263 . S
N116 C120 1.389 . S
N117 C118 1.358 . S
N117 C119 1.400 . S
C118 N116 1.263 . S
C118 N117 1.358 . S
C118 H124 0.930 . S
C119 N117 1.400 . S
C119 C120 1.351 . S
C119 H136 0.930 . S
C120 N116 1.389 . S
C120 C119 1.351 . S
C120 H125 0.930 . S
O121 Cu115 1.974 . S
O121 C131 1.282 . S
C122 O123 1.261 . S
C122 O135 1.251 . S
O123 C122 1.261 . S
H124 C118 0.930 . S
H125 C120 0.930 . S
N126 Cu115 1.985 . S
N126 C128 1.335 . S
N126 C129 1.390 . S
N127 C128 1.345 . S
N127 C130 1.336 . S
C128 N126 1.335 . S
C128 N127 1.345 . S
C128 H133 0.930 . S
C129 N126 1.390 . S
C129 C130 1.346 . S
C129 H134 0.930 . S
C130 N127 1.336 . S
C130 C129 1.346 . S
C130 H137 0.929 . S
C131 O121 1.282 . S
C131 O132 1.216 . S
O132 C131 1.216 . S
H133 C128 0.930 . S
H134 C129 0.930 . S
O135 Cu115 1.959 . S
O135 C122 1.251 . S
H136 C119 0.930 . S
H137 C130 0.929 . S
Cu138 N139 1.999 . S
Cu138 O144 1.974 . S
Cu138 N149 1.985 . S
Cu138 O158 1.959 . S
N139 Cu138 1.999 . S
N139 C141 1.263 . S
N139 C143 1.389 . S
N140 C141 1.358 . S
N140 C142 1.400 . S
C141 N139 1.263 . S
C141 N140 1.358 . S
C141 H147 0.930 . S
C142 N140 1.400 . S
C142 C143 1.351 . S
C142 H159 0.930 . S
C143 N139 1.389 . S
C143 C142 1.351 . S
C143 H148 0.930 . S
O144 Cu138 1.974 . S
O144 C154 1.282 . S
C145 O146 1.261 . S
C145 O158 1.251 . S
O146 C145 1.261 . S
H147 C141 0.930 . S
H148 C143 0.930 . S
N149 Cu138 1.985 . S
N149 C151 1.335 . S
N149 C152 1.390 . S
N150 C151 1.345 . S
N150 C153 1.336 . S
C151 N149 1.335 . S
C151 N150 1.345 . S
C151 H156 0.930 . S
C152 N149 1.390 . S
C152 C153 1.346 . S
C152 H157 0.930 . S
C153 N150 1.336 . S
C153 C152 1.346 . S
C153 H160 0.929 . S
C154 O144 1.282 . S
C154 O155 1.216 . S
O155 C154 1.216 . S
H156 C151 0.930 . S
H157 C152 0.930 . S
O158 Cu138 1.959 . S
O158 C145 1.251 . S
H159 C142 0.930 . S
H160 C153 0.929 . S
Cu161 N162 1.999 . S
Cu161 O167 1.974 . S
Cu161 N172 1.985 . S
Cu161 O181 1.959 . S
N162 Cu161 1.999 . S
N162 C164 1.263 . S
N162 C166 1.389 . S
N163 C164 1.358 . S
N163 C165 1.400 . S
C164 N162 1.263 . S
C164 N163 1.358 . S
C164 H170 0.930 . S
C165 N163 1.400 . S
C165 C166 1.351 . S
C165 H182 0.930 . S
C166 N162 1.389 . S
C166 C165 1.351 . S
C166 H171 0.930 . S
O167 Cu161 1.974 . S
O167 C177 1.282 . S
C168 O169 1.261 . S
C168 O181 1.251 . S
O169 C168 1.261 . S
H170 C164 0.930 . S
H171 C166 0.930 . S
N172 Cu161 1.985 . S
N172 C174 1.335 . S
N172 C175 1.390 . S
N173 C174 1.345 . S
N173 C176 1.336 1_655 S
C174 N172 1.335 . S
C174 N173 1.345 . S
C174 H179 0.930 . S
C175 N172 1.390 . S
C175 C176 1.346 1_655 S
C175 H180 0.930 1_655 S
C176 N173 1.336 1_455 S
C176 C175 1.346 1_455 S
C176 H183 0.929 . S
C177 O167 1.282 . S
C177 O178 1.216 . S
O178 C177 1.216 . S
H179 C174 0.930 . S
H180 C175 0.930 1_455 S
O181 Cu161 1.959 . S
O181 C168 1.251 . S
H182 C165 0.930 . S
H183 C176 0.929 . S
Cu184 N185 1.999 . S
Cu184 O190 1.974 . S
Cu184 N195 1.985 . S
Cu184 O204 1.959 . S
N185 Cu184 1.999 . S
N185 C187 1.263 . S
N185 C189 1.389 . S
N186 C187 1.358 . S
N186 C188 1.400 . S
C187 N185 1.263 . S
C187 N186 1.358 . S
C187 H193 0.930 . S
C188 N186 1.400 . S
C188 C189 1.351 . S
C188 H205 0.930 . S
C189 N185 1.389 . S
C189 C188 1.351 . S
C189 H194 0.930 . S
O190 Cu184 1.974 . S
O190 C200 1.282 . S
C191 O192 1.261 . S
C191 O204 1.251 . S
O192 C191 1.261 . S
H193 C187 0.930 . S
H194 C189 0.930 . S
N195 Cu184 1.985 . S
N195 C197 1.335 . S
N195 C198 1.390 . S
N196 C197 1.345 . S
N196 C199 1.336 . S
C197 N195 1.335 . S
C197 N196 1.345 . S
C197 H202 0.930 . S
C198 N195 1.390 . S
C198 C199 1.346 . S
C198 H203 0.930 . S
C199 N196 1.336 . S
C199 C198 1.346 . S
C199 H206 0.929 . S
C200 O190 1.282 . S
C200 O201 1.216 . S
O201 C200 1.216 . S
H202 C197 0.930 . S
H203 C198 0.930 . S
O204 Cu184 1.959 . S
O204 C191 1.251 . S
H205 C188 0.930 . S
H206 C199 0.929 . S
Cu207 N208 1.999 . S
Cu207 O213 1.974 . S
Cu207 N218 1.985 . S
Cu207 O227 1.959 . S
N208 Cu207 1.999 . S
N208 C210 1.263 . S
N208 C212 1.389 . S
N209 C210 1.358 . S
N209 C211 1.400 . S
C210 N208 1.263 . S
C210 N209 1.358 . S
C210 H216 0.930 . S
C211 N209 1.400 . S
C211 C212 1.351 . S
C211 H228 0.930 . S
C212 N208 1.389 . S
C212 C211 1.351 . S
C212 H217 0.930 . S
O213 Cu207 1.974 . S
O213 C223 1.282 . S
C214 O215 1.261 . S
C214 O227 1.251 . S
O215 C214 1.261 . S
H216 C210 0.930 . S
H217 C212 0.930 . S
N218 Cu207 1.985 . S
N218 C220 1.335 . S
N218 C221 1.390 . S
N219 C220 1.345 . S
N219 C222 1.336 . S
C220 N218 1.335 . S
C220 N219 1.345 . S
C220 H225 0.930 . S
C221 N218 1.390 . S
C221 C222 1.346 . S
C221 H226 0.930 . S
C222 N219 1.336 . S
C222 C221 1.346 . S
C222 H229 0.929 . S
C223 O213 1.282 . S
C223 O224 1.216 . S
O224 C223 1.216 . S
H225 C220 0.930 . S
H226 C221 0.930 . S
O227 Cu207 1.959 . S
O227 C214 1.251 . S
H228 C211 0.930 . S
H229 C222 0.929 . S
Cu230 N231 1.999 . S
Cu230 O236 1.974 . S
Cu230 N241 1.985 . S
Cu230 O250 1.959 . S
N231 Cu230 1.999 . S
N231 C233 1.263 . S
N231 C235 1.389 . S
N232 C233 1.358 . S
N232 C234 1.400 . S
C233 N231 1.263 . S
C233 N232 1.358 . S
C233 H239 0.930 . S
C234 N232 1.400 . S
C234 C235 1.351 . S
C234 H251 0.930 . S
C235 N231 1.389 . S
C235 C234 1.351 . S
C235 H240 0.930 . S
O236 Cu230 1.974 . S
O236 C246 1.282 . S
C237 O238 1.261 . S
C237 O250 1.251 . S
O238 C237 1.261 . S
H239 C233 0.930 . S
H240 C235 0.930 . S
N241 Cu230 1.985 . S
N241 C243 1.335 . S
N241 C244 1.390 . S
N242 C243 1.345 . S
N242 C245 1.336 . S
C243 N241 1.335 . S
C243 N242 1.345 . S
C243 H248 0.930 . S
C244 N241 1.390 . S
C244 C245 1.346 . S
C244 H249 0.930 . S
C245 N242 1.336 . S
C245 C244 1.346 . S
C245 H252 0.929 . S
C246 O236 1.282 . S
C246 O247 1.216 . S
O247 C246 1.216 . S
H248 C243 0.930 . S
H249 C244 0.930 . S
O250 Cu230 1.959 . S
O250 C237 1.251 . S
H251 C234 0.930 . S
H252 C245 0.929 . S
Cu253 N254 1.999 . S
Cu253 O259 1.974 . S
Cu253 N264 1.985 . S
Cu253 O273 1.959 . S
N254 Cu253 1.999 . S
N254 C256 1.263 . S
N254 C258 1.389 . S
N255 C256 1.358 . S
N255 C257 1.400 . S
C256 N254 1.263 . S
C256 N255 1.358 . S
C256 H262 0.930 . S
C257 N255 1.400 . S
C257 C258 1.351 . S
C257 H274 0.930 . S
C258 N254 1.389 . S
C258 C257 1.351 . S
C258 H263 0.930 . S
O259 Cu253 1.974 . S
O259 C269 1.282 . S
C260 O261 1.261 . S
C260 O273 1.251 . S
O261 C260 1.261 . S
H262 C256 0.930 . S
H263 C258 0.930 . S
N264 Cu253 1.985 . S
N264 C266 1.335 . S
N264 C267 1.390 . S
N265 C266 1.345 . S
N265 C268 1.336 1_554 S
C266 N264 1.335 . S
C266 N265 1.345 . S
C266 H271 0.930 . S
C267 N264 1.390 . S
C267 C268 1.346 1_554 S
C267 H272 0.930 1_554 S
C268 N265 1.336 1_556 S
C268 C267 1.346 1_556 S
C268 H275 0.929 . S
C269 O259 1.282 . S
C269 O270 1.216 . S
O270 C269 1.216 . S
H271 C266 0.930 . S
H272 C267 0.930 1_556 S
O273 Cu253 1.959 . S
O273 C260 1.251 . S
H274 C257 0.930 . S
H275 C268 0.929 . S
Cu276 N277 1.999 . S
Cu276 O282 1.974 . S
Cu276 N287 1.985 . S
Cu276 O296 1.959 . S
N277 Cu276 1.999 . S
N277 C279 1.263 . S
N277 C281 1.389 . S
N278 C279 1.358 . S
N278 C280 1.400 . S
C279 N277 1.263 . S
C279 N278 1.358 . S
C279 H285 0.930 . S
C280 N278 1.400 . S
C280 C281 1.351 . S
C280 H297 0.930 . S
C281 N277 1.389 . S
C281 C280 1.351 . S
C281 H286 0.930 . S
O282 Cu276 1.974 . S
O282 C292 1.282 . S
C283 O284 1.261 . S
C283 O296 1.251 . S
O284 C283 1.261 . S
H285 C279 0.930 . S
H286 C281 0.930 . S
N287 Cu276 1.985 . S
N287 C289 1.335 . S
N287 C290 1.390 . S
N288 C289 1.345 . S
N288 C291 1.336 . S
C289 N287 1.335 . S
C289 N288 1.345 . S
C289 H294 0.930 . S
C290 N287 1.390 . S
C290 C291 1.346 . S
C290 H295 0.930 . S
C291 N288 1.336 . S
C291 C290 1.346 . S
C291 H298 0.929 . S
C292 O282 1.282 . S
C292 O293 1.216 . S
O293 C292 1.216 . S
H294 C289 0.930 . S
H295 C290 0.930 . S
O296 Cu276 1.959 . S
O296 C283 1.251 . S
H297 C280 0.930 . S
H298 C291 0.929 . S
Cu299 N300 1.999 . S
Cu299 O305 1.974 . S
Cu299 N310 1.985 . S
Cu299 O319 1.959 . S
N300 Cu299 1.999 . S
N300 C302 1.263 . S
N300 C304 1.389 . S
N301 C302 1.358 . S
N301 C303 1.400 . S
C302 N300 1.263 . S
C302 N301 1.358 . S
C302 H308 0.930 . S
C303 N301 1.400 . S
C303 C304 1.351 . S
C303 H320 0.930 . S
C304 N300 1.389 . S
C304 C303 1.351 . S
C304 H309 0.930 . S
O305 Cu299 1.974 . S
O305 C315 1.282 . S
C306 O307 1.261 . S
C306 O319 1.251 . S
O307 C306 1.261 . S
H308 C302 0.930 . S
H309 C304 0.930 . S
N310 Cu299 1.985 . S
N310 C312 1.335 . S
N310 C313 1.390 . S
N311 C312 1.345 . S
N311 C314 1.336 . S
C312 N310 1.335 . S
C312 N311 1.345 . S
C312 H317 0.930 . S
C313 N310 1.390 . S
C313 C314 1.346 . S
C313 H318 0.930 . S
C314 N311 1.336 . S
C314 C313 1.346 . S
C314 H321 0.929 . S
C315 O305 1.282 . S
C315 O316 1.216 . S
O316 C315 1.216 . S
H317 C312 0.930 . S
H318 C313 0.930 . S
O319 Cu299 1.959 . S
O319 C306 1.251 . S
H320 C303 0.930 . S
H321 C314 0.929 . S
Cu322 N323 1.999 . S
Cu322 O328 1.974 . S
Cu322 N333 1.985 . S
Cu322 O342 1.959 . S
N323 Cu322 1.999 . S
N323 C325 1.263 . S
N323 C327 1.389 . S
N324 C325 1.358 . S
N324 C326 1.400 . S
C325 N323 1.263 . S
C325 N324 1.358 . S
C325 H331 0.930 . S
C326 N324 1.400 . S
C326 C327 1.351 . S
C326 H343 0.930 . S
C327 N323 1.389 . S
C327 C326 1.351 . S
C327 H332 0.930 . S
O328 Cu322 1.974 . S
O328 C338 1.282 . S
C329 O330 1.261 . S
C329 O342 1.251 . S
O330 C329 1.261 . S
H331 C325 0.930 . S
H332 C327 0.930 . S
N333 Cu322 1.985 . S
N333 C335 1.335 . S
N333 C336 1.390 . S
N334 C335 1.345 . S
N334 C337 1.336 . S
C335 N333 1.335 . S
C335 N334 1.345 . S
C335 H340 0.930 . S
C336 N333 1.390 . S
C336 C337 1.346 . S
C336 H341 0.930 . S
C337 N334 1.336 . S
C337 C336 1.346 . S
C337 H344 0.929 . S
C338 O328 1.282 . S
C338 O339 1.216 . S
O339 C338 1.216 . S
H340 C335 0.930 . S
H341 C336 0.930 . S
O342 Cu322 1.959 . S
O342 C329 1.251 . S
H343 C326 0.930 . S
H344 C337 0.929 . S
Cu345 N346 1.999 . S
Cu345 O351 1.974 . S
Cu345 N356 1.985 . S
Cu345 O365 1.959 . S
N346 Cu345 1.999 . S
N346 C348 1.263 . S
N346 C350 1.389 . S
N347 C348 1.358 . S
N347 C349 1.400 . S
C348 N346 1.263 . S
C348 N347 1.358 . S
C348 H354 0.930 . S
C349 N347 1.400 . S
C349 C350 1.351 . S
C349 H366 0.930 . S
C350 N346 1.389 . S
C350 C349 1.351 . S
C350 H355 0.930 . S
O351 Cu345 1.974 . S
O351 C361 1.282 . S
C352 O353 1.261 . S
C352 O365 1.251 . S
O353 C352 1.261 . S
H354 C348 0.930 . S
H355 C350 0.930 . S
N356 Cu345 1.985 . S
N356 C358 1.335 . S
N356 C359 1.390 . S
N357 C358 1.345 . S
N357 C360 1.336 1_556 S
C358 N356 1.335 . S
C358 N357 1.345 . S
C358 H363 0.930 . S
C359 N356 1.390 . S
C359 C360 1.346 1_556 S
C359 H364 0.930 1_556 S
C360 N357 1.336 1_554 S
C360 C359 1.346 1_554 S
C360 H367 0.929 . S
C361 O351 1.282 . S
C361 O362 1.216 . S
O362 C361 1.216 . S
H363 C358 0.930 . S
H364 C359 0.930 1_554 S
O365 Cu345 1.959 . S
O365 C352 1.251 . S
H366 C349 0.930 . S
H367 C360 0.929 . S
Cu368 N369 1.999 . S
Cu368 O374 1.974 . S
Cu368 N379 1.985 . S
Cu368 O388 1.959 . S
N369 Cu368 1.999 . S
N369 C371 1.263 . S
N369 C373 1.389 . S
N370 C371 1.358 . S
N370 C372 1.400 . S
C371 N369 1.263 . S
C371 N370 1.358 . S
C371 H377 0.930 . S
C372 N370 1.400 . S
C372 C373 1.351 . S
C372 H389 0.930 . S
C373 N369 1.389 . S
C373 C372 1.351 . S
C373 H378 0.930 . S
O374 Cu368 1.974 . S
O374 C384 1.282 . S
C375 O376 1.261 . S
C375 O388 1.251 . S
O376 C375 1.261 . S
H377 C371 0.930 . S
H378 C373 0.930 . S
N379 Cu368 1.985 . S
N379 C381 1.335 . S
N379 C382 1.390 . S
N380 C381 1.345 . S
N380 C383 1.336 . S
C381 N379 1.335 . S
C381 N380 1.345 . S
C381 H386 0.930 . S
C382 N379 1.390 . S
C382 C383 1.346 . S
C382 H387 0.930 . S
C383 N380 1.336 . S
C383 C382 1.346 . S
C383 H390 0.929 . S
C384 O374 1.282 . S
C384 O385 1.216 . S
O385 C384 1.216 . S
H386 C381 0.930 . S
H387 C382 0.930 . S
O388 Cu368 1.959 . S
O388 C375 1.251 . S
H389 C372 0.930 . S
H390 C383 0.929 . S
Cu391 N392 1.999 . S
Cu391 O397 1.974 . S
Cu391 N402 1.985 . S
Cu391 O411 1.959 . S
N392 Cu391 1.999 . S
N392 C394 1.263 . S
N392 C396 1.389 . S
N393 C394 1.358 . S
N393 C395 1.400 . S
C394 N392 1.263 . S
C394 N393 1.358 . S
C394 H400 0.930 . S
C395 N393 1.400 . S
C395 C396 1.351 . S
C395 H412 0.930 . S
C396 N392 1.389 . S
C396 C395 1.351 . S
C396 H401 0.930 . S
O397 Cu391 1.974 . S
O397 C407 1.282 . S
C398 O399 1.261 . S
C398 O411 1.251 . S
O399 C398 1.261 . S
H400 C394 0.930 . S
H401 C396 0.930 . S
N402 Cu391 1.985 . S
N402 C404 1.335 . S
N402 C405 1.390 . S
N403 C404 1.345 . S
N403 C406 1.336 . S
C404 N402 1.335 . S
C404 N403 1.345 . S
C404 H409 0.930 . S
C405 N402 1.390 . S
C405 C406 1.346 . S
C405 H410 0.930 . S
C406 N403 1.336 . S
C406 C405 1.346 . S
C406 H413 0.929 . S
C407 O397 1.282 . S
C407 O408 1.216 . S
O408 C407 1.216 . S
H409 C404 0.930 . S
H410 C405 0.930 . S
O411 Cu391 1.959 . S
O411 C398 1.251 . S
H412 C395 0.930 . S
H413 C406 0.929 . S
Cu414 N415 1.999 . S
Cu414 O420 1.974 . S
Cu414 N425 1.985 . S
Cu414 O434 1.959 . S
N415 Cu414 1.999 . S
N415 C417 1.263 . S
N415 C419 1.389 . S
N416 C417 1.358 . S
N416 C418 1.400 . S
C417 N415 1.263 . S
C417 N416 1.358 . S
C417 H423 0.930 . S
C418 N416 1.400 . S
C418 C419 1.351 . S
C418 H435 0.930 . S
C419 N415 1.389 . S
C419 C418 1.351 . S
C419 H424 0.930 . S
O420 Cu414 1.974 . S
O420 C430 1.282 . S
C421 O422 1.261 . S
C421 O434 1.251 . S
O422 C421 1.261 . S
H423 C417 0.930 . S
H424 C419 0.930 . S
N425 Cu414 1.985 . S
N425 C427 1.335 . S
N425 C428 1.390 . S
N426 C427 1.345 . S
N426 C429 1.336 . S
C427 N425 1.335 . S
C427 N426 1.345 . S
C427 H432 0.930 . S
C428 N425 1.390 . S
C428 C429 1.346 . S
C428 H433 0.930 . S
C429 N426 1.336 . S
C429 C428 1.346 . S
C429 H436 0.929 . S
C430 O420 1.282 . S
C430 O431 1.216 . S
O431 C430 1.216 . S
H432 C427 0.930 . S
H433 C428 0.930 . S
O434 Cu414 1.959 . S
O434 C421 1.251 . S
H435 C418 0.930 . S
H436 C429 0.929 . S
Cu437 N438 1.999 . S
Cu437 O443 1.974 . S
Cu437 N448 1.985 . S
Cu437 O457 1.959 . S
N438 Cu437 1.999 . S
N438 C440 1.263 . S
N438 C442 1.389 . S
N439 C440 1.358 . S
N439 C441 1.400 . S
C440 N438 1.263 . S
C440 N439 1.358 . S
C440 H446 0.930 . S
C441 N439 1.400 . S
C441 C442 1.351 . S
C441 H458 0.930 . S
C442 N438 1.389 . S
C442 C441 1.351 . S
C442 H447 0.930 . S
O443 Cu437 1.974 . S
O443 C453 1.282 . S
C444 O445 1.261 . S
C444 O457 1.251 . S
O445 C444 1.261 . S
H446 C440 0.930 . S
H447 C442 0.930 . S
N448 Cu437 1.985 . S
N448 C450 1.335 . S
N448 C451 1.390 . S
N449 C450 1.345 . S
N449 C452 1.336 . S
C450 N448 1.335 . S
C450 N449 1.345 . S
C450 H455 0.930 . S
C451 N448 1.390 . S
C451 C452 1.346 . S
C451 H456 0.930 . S
C452 N449 1.336 . S
C452 C451 1.346 . S
C452 H459 0.929 . S
C453 O443 1.282 . S
C453 O454 1.216 . S
O454 C453 1.216 . S
H455 C450 0.930 . S
H456 C451 0.930 . S
O457 Cu437 1.959 . S
O457 C444 1.251 . S
H458 C441 0.930 . S
H459 C452 0.929 . S
Cu460 N461 1.999 . S
Cu460 O466 1.974 . S
Cu460 N471 1.985 . S
Cu460 O480 1.959 . S
N461 Cu460 1.999 . S
N461 C463 1.263 . S
N461 C465 1.389 . S
N462 C463 1.358 . S
N462 C464 1.400 . S
C463 N461 1.263 . S
C463 N462 1.358 . S
C463 H469 0.930 . S
C464 N462 1.400 . S
C464 C465 1.351 . S
C464 H481 0.930 . S
C465 N461 1.389 . S
C465 C464 1.351 . S
C465 H470 0.930 . S
O466 Cu460 1.974 . S
O466 C476 1.282 . S
C467 O468 1.261 . S
C467 O480 1.251 . S
O468 C467 1.261 . S
H469 C463 0.930 . S
H470 C465 0.930 . S
N471 Cu460 1.985 . S
N471 C473 1.335 . S
N471 C474 1.390 . S
N472 C473 1.345 . S
N472 C475 1.336 1_565 S
C473 N471 1.335 . S
C473 N472 1.345 . S
C473 H478 0.930 . S
C474 N471 1.390 . S
C474 C475 1.346 1_565 S
C474 H479 0.930 1_565 S
C475 N472 1.336 1_545 S
C475 C474 1.346 1_545 S
C475 H482 0.929 . S
C476 O466 1.282 . S
C476 O477 1.216 . S
O477 C476 1.216 . S
H478 C473 0.930 . S
H479 C474 0.930 1_545 S
O480 Cu460 1.959 . S
O480 C467 1.251 . S
H481 C464 0.930 . S
H482 C475 0.929 . S
Cu483 N484 1.999 . S
Cu483 O489 1.974 . S
Cu483 N494 1.985 . S
Cu483 O503 1.959 . S
N484 Cu483 1.999 . S
N484 C486 1.263 . S
N484 C488 1.389 . S
N485 C486 1.358 . S
N485 C487 1.400 . S
C486 N484 1.263 . S
C486 N485 1.358 . S
C486 H492 0.930 . S
C487 N485 1.400 . S
C487 C488 1.351 . S
C487 H504 0.930 . S
C488 N484 1.389 . S
C488 C487 1.351 . S
C488 H493 0.930 . S
O489 Cu483 1.974 . S
O489 C499 1.282 . S
C490 O491 1.261 . S
C490 O503 1.251 . S
O491 C490 1.261 . S
H492 C486 0.930 . S
H493 C488 0.930 . S
N494 Cu483 1.985 . S
N494 C496 1.335 . S
N494 C497 1.390 . S
N495 C496 1.345 . S
N495 C498 1.336 . S
C496 N494 1.335 . S
C496 N495 1.345 . S
C496 H501 0.930 . S
C497 N494 1.390 . S
C497 C498 1.346 . S
C497 H502 0.930 . S
C498 N495 1.336 . S
C498 C497 1.346 . S
C498 H505 0.929 . S
C499 O489 1.282 . S
C499 O500 1.216 . S
O500 C499 1.216 . S
H501 C496 0.930 . S
H502 C497 0.930 . S
O503 Cu483 1.959 . S
O503 C490 1.251 . S
H504 C487 0.930 . S
H505 C498 0.929 . S
Cu506 N507 1.999 . S
Cu506 O512 1.974 . S
Cu506 N517 1.985 . S
Cu506 O526 1.959 . S
N507 Cu506 1.999 . S
N507 C509 1.263 . S
N507 C511 1.389 . S
N508 C509 1.358 . S
N508 C510 1.400 . S
C509 N507 1.263 . S
C509 N508 1.358 . S
C509 H515 0.930 . S
C510 N508 1.400 . S
C510 C511 1.351 . S
C510 H527 0.930 . S
C511 N507 1.389 . S
C511 C510 1.351 . S
C511 H516 0.930 . S
O512 Cu506 1.974 . S
O512 C522 1.282 . S
C513 O514 1.261 . S
C513 O526 1.251 . S
O514 C513 1.261 . S
H515 C509 0.930 . S
H516 C511 0.930 . S
N517 Cu506 1.985 . S
N517 C519 1.335 . S
N517 C520 1.390 . S
N518 C519 1.345 . S
N518 C521 1.336 . S
C519 N517 1.335 . S
C519 N518 1.345 . S
C519 H524 0.930 . S
C520 N517 1.390 . S
C520 C521 1.346 . S
C520 H525 0.930 . S
C521 N518 1.336 . S
C521 C520 1.346 . S
C521 H528 0.929 . S
C522 O512 1.282 . S
C522 O523 1.216 . S
O523 C522 1.216 . S
H524 C519 0.930 . S
H525 C520 0.930 . S
O526 Cu506 1.959 . S
O526 C513 1.251 . S
H527 C510 0.930 . S
H528 C521 0.929 . S
Cu529 N530 1.999 . S
Cu529 O535 1.974 . S
Cu529 N540 1.985 . S
Cu529 O549 1.959 . S
N530 Cu529 1.999 . S
N530 C532 1.263 . S
N530 C534 1.389 . S
N531 C532 1.358 . S
N531 C533 1.400 . S
C532 N530 1.263 . S
C532 N531 1.358 . S
C532 H538 0.930 . S
C533 N531 1.400 . S
C533 C534 1.351 . S
C533 H550 0.930 . S
C534 N530 1.389 . S
C534 C533 1.351 . S
C534 H539 0.930 . S
O535 Cu529 1.974 . S
O535 C545 1.282 . S
C536 O537 1.261 . S
C536 O549 1.251 . S
O537 C536 1.261 . S
H538 C532 0.930 . S
H539 C534 0.930 . S
N540 Cu529 1.985 . S
N540 C542 1.335 . S
N540 C543 1.390 . S
N541 C542 1.345 . S
N541 C544 1.336 . S
C542 N540 1.335 . S
C542 N541 1.345 . S
C542 H547 0.930 . S
C543 N540 1.390 . S
C543 C544 1.346 . S
C543 H548 0.930 . S
C544 N541 1.336 . S
C544 C543 1.346 . S
C544 H551 0.929 . S
C545 O535 1.282 . S
C545 O546 1.216 . S
O546 C545 1.216 . S
H547 C542 0.930 . S
H548 C543 0.930 . S
O549 Cu529 1.959 . S
O549 C536 1.251 . S
H550 C533 0.930 . S
H551 C544 0.929 . S
Cu552 N553 1.999 . S
Cu552 O558 1.974 . S
Cu552 N563 1.985 . S
Cu552 O572 1.959 . S
N553 Cu552 1.999 . S
N553 C555 1.263 . S
N553 C557 1.389 . S
N554 C555 1.358 . S
N554 C556 1.400 . S
C555 N553 1.263 . S
C555 N554 1.358 . S
C555 H561 0.930 . S
C556 N554 1.400 . S
C556 C557 1.351 . S
C556 H573 0.930 . S
C557 N553 1.389 . S
C557 C556 1.351 . S
C557 H562 0.930 . S
O558 Cu552 1.974 . S
O558 C568 1.282 . S
C559 O560 1.261 . S
C559 O572 1.251 . S
O560 C559 1.261 . S
H561 C555 0.930 . S
H562 C557 0.930 . S
N563 Cu552 1.985 . S
N563 C565 1.335 . S
N563 C566 1.390 . S
N564 C565 1.345 . S
N564 C567 1.336 . S
C565 N563 1.335 . S
C565 N564 1.345 . S
C565 H570 0.930 . S
C566 N563 1.390 . S
C566 C567 1.346 . S
C566 H571 0.930 . S
C567 N564 1.336 . S
C567 C566 1.346 . S
C567 H574 0.929 . S
C568 O558 1.282 . S
C568 O569 1.216 . S
O569 C568 1.216 . S
H570 C565 0.930 . S
H571 C566 0.930 . S
O572 Cu552 1.959 . S
O572 C559 1.251 . S
H573 C556 0.930 . S
H574 C567 0.929 . S
Cu575 N576 1.999 . S
Cu575 O581 1.974 . S
Cu575 N586 1.985 . S
Cu575 O595 1.959 . S
N576 Cu575 1.999 . S
N576 C578 1.263 . S
N576 C580 1.389 . S
N577 C578 1.358 . S
N577 C579 1.400 . S
C578 N576 1.263 . S
C578 N577 1.358 . S
C578 H584 0.930 . S
C579 N577 1.400 . S
C579 C580 1.351 . S
C579 H596 0.930 . S
C580 N576 1.389 . S
C580 C579 1.351 . S
C580 H585 0.930 . S
O581 Cu575 1.974 . S
O581 C591 1.282 . S
C582 O583 1.261 . S
C582 O595 1.251 . S
O583 C582 1.261 . S
H584 C578 0.930 . S
H585 C580 0.930 . S
N586 Cu575 1.985 . S
N586 C588 1.335 . S
N586 C589 1.390 . S
N587 C588 1.345 . S
N587 C590 1.336 . S
C588 N586 1.335 . S
C588 N587 1.345 . S
C588 H593 0.930 . S
C589 N586 1.390 . S
C589 C590 1.346 . S
C589 H594 0.930 . S
C590 N587 1.336 . S
C590 C589 1.346 . S
C590 H597 0.929 . S
C591 O581 1.282 . S
C591 O592 1.216 . S
O592 C591 1.216 . S
H593 C588 0.930 . S
H594 C589 0.930 . S
O595 Cu575 1.959 . S
O595 C582 1.251 . S
H596 C579 0.930 . S
H597 C590 0.929 . S
Cu598 N599 1.999 . S
Cu598 O604 1.974 . S
Cu598 N609 1.985 . S
Cu598 O618 1.959 . S
N599 Cu598 1.999 . S
N599 C601 1.263 . S
N599 C603 1.389 . S
N600 C601 1.358 . S
N600 C602 1.400 . S
C601 N599 1.263 . S
C601 N600 1.358 . S
C601 H607 0.930 . S
C602 N600 1.400 . S
C602 C603 1.351 . S
C602 H619 0.930 . S
C603 N599 1.389 . S
C603 C602 1.351 . S
C603 H608 0.930 . S
O604 Cu598 1.974 . S
O604 C614 1.282 . S
C605 O606 1.261 . S
C605 O618 1.251 . S
O606 C605 1.261 . S
H607 C601 0.930 . S
H608 C603 0.930 . S
N609 Cu598 1.985 . S
N609 C611 1.335 . S
N609 C612 1.390 . S
N610 C611 1.345 . S
N610 C613 1.336 . S
C611 N609 1.335 . S
C611 N610 1.345 . S
C611 H616 0.930 . S
C612 N609 1.390 . S
C612 C613 1.346 . S
C612 H617 0.930 . S
C613 N610 1.336 . S
C613 C612 1.346 . S
C613 H620 0.929 . S
C614 O604 1.282 . S
C614 O615 1.216 . S
O615 C614 1.216 . S
H616 C611 0.930 . S
H617 C612 0.930 . S
O618 Cu598 1.959 . S
O618 C605 1.251 . S
H619 C602 0.930 . S
H620 C613 0.929 . S
Cu621 N622 1.999 . S
Cu621 O627 1.974 . S
Cu621 N632 1.985 . S
Cu621 O641 1.959 . S
N622 Cu621 1.999 . S
N622 C624 1.263 . S
N622 C626 1.389 . S
N623 C624 1.358 . S
N623 C625 1.400 . S
C624 N622 1.263 . S
C624 N623 1.358 . S
C624 H630 0.930 . S
C625 N623 1.400 . S
C625 C626 1.351 . S
C625 H642 0.930 . S
C626 N622 1.389 . S
C626 C625 1.351 . S
C626 H631 0.930 . S
O627 Cu621 1.974 . S
O627 C637 1.282 . S
C628 O629 1.261 . S
C628 O641 1.251 . S
O629 C628 1.261 . S
H630 C624 0.930 . S
H631 C626 0.930 . S
N632 Cu621 1.985 . S
N632 C634 1.335 . S
N632 C635 1.390 . S
N633 C634 1.345 . S
N633 C636 1.336 1_455 S
C634 N632 1.335 . S
C634 N633 1.345 . S
C634 H639 0.930 . S
C635 N632 1.390 . S
C635 C636 1.346 1_455 S
C635 H640 0.930 1_455 S
C636 N633 1.336 1_655 S
C636 C635 1.346 1_655 S
C636 H643 0.929 . S
C637 O627 1.282 . S
C637 O638 1.216 . S
O638 C637 1.216 . S
H639 C634 0.930 . S
H640 C635 0.930 1_655 S
O641 Cu621 1.959 . S
O641 C628 1.251 . S
H642 C625 0.930 . S
H643 C636 0.929 . S
Cu644 N645 1.999 . S
Cu644 O650 1.974 . S
Cu644 N655 1.985 . S
Cu644 O664 1.959 . S
N645 Cu644 1.999 . S
N645 C647 1.263 . S
N645 C649 1.389 . S
N646 C647 1.358 . S
N646 C648 1.400 . S
C647 N645 1.263 . S
C647 N646 1.358 . S
C647 H653 0.930 . S
C648 N646 1.400 . S
C648 C649 1.351 . S
C648 H665 0.930 . S
C649 N645 1.389 . S
C649 C648 1.351 . S
C649 H654 0.930 . S
O650 Cu644 1.974 . S
O650 C660 1.282 . S
C651 O652 1.261 . S
C651 O664 1.251 . S
O652 C651 1.261 . S
H653 C647 0.930 . S
H654 C649 0.930 . S
N655 Cu644 1.985 . S
N655 C657 1.335 . S
N655 C658 1.390 . S
N656 C657 1.345 . S
N656 C659 1.336 . S
C657 N655 1.335 . S
C657 N656 1.345 . S
C657 H662 0.930 . S
C658 N655 1.390 . S
C658 C659 1.346 . S
C658 H663 0.930 . S
C659 N656 1.336 . S
C659 C658 1.346 . S
C659 H666 0.929 . S
C660 O650 1.282 . S
C660 O661 1.216 . S
O661 C660 1.216 . S
H662 C657 0.930 . S
H663 C658 0.930 . S
O664 Cu644 1.959 . S
O664 C651 1.251 . S
H665 C648 0.930 . S
H666 C659 0.929 . S
Cu667 N668 1.999 . S
Cu667 O673 1.974 . S
Cu667 N678 1.985 . S
Cu667 O687 1.959 . S
N668 Cu667 1.999 . S
N668 C670 1.263 . S
N668 C672 1.389 . S
N669 C670 1.358 . S
N669 C671 1.400 . S
C670 N668 1.263 . S
C670 N669 1.358 . S
C670 H676 0.930 . S
C671 N669 1.400 . S
C671 C672 1.351 . S
C671 H688 0.930 . S
C672 N668 1.389 . S
C672 C671 1.351 . S
C672 H677 0.930 . S
O673 Cu667 1.974 . S
O673 C683 1.282 . S
C674 O675 1.261 . S
C674 O687 1.251 . S
O675 C674 1.261 . S
H676 C670 0.930 . S
H677 C672 0.930 . S
N678 Cu667 1.985 . S
N678 C680 1.335 . S
N678 C681 1.390 . S
N679 C680 1.345 . S
N679 C682 1.336 1_455 S
C680 N678 1.335 . S
C680 N679 1.345 . S
C680 H685 0.930 . S
C681 N678 1.390 . S
C681 C682 1.346 1_455 S
C681 H686 0.930 1_455 S
C682 N679 1.336 1_655 S
C682 C681 1.346 1_655 S
C682 H689 0.929 . S
C683 O673 1.282 . S
C683 O684 1.216 . S
O684 C683 1.216 . S
H685 C680 0.930 . S
H686 C681 0.930 1_655 S
O687 Cu667 1.959 . S
O687 C674 1.251 . S
H688 C671 0.930 . S
H689 C682 0.929 . S
Cu690 N691 1.999 . S
Cu690 O696 1.974 . S
Cu690 N701 1.985 . S
Cu690 O710 1.959 . S
N691 Cu690 1.999 . S
N691 C693 1.263 . S
N691 C695 1.389 . S
N692 C693 1.358 . S
N692 C694 1.400 . S
C693 N691 1.263 . S
C693 N692 1.358 . S
C693 H699 0.930 . S
C694 N692 1.400 . S
C694 C695 1.351 . S
C694 H711 0.930 . S
C695 N691 1.389 . S
C695 C694 1.351 . S
C695 H700 0.930 . S
O696 Cu690 1.974 . S
O696 C706 1.282 . S
C697 O698 1.261 . S
C697 O710 1.251 . S
O698 C697 1.261 . S
H699 C693 0.930 . S
H700 C695 0.930 . S
N701 Cu690 1.985 . S
N701 C703 1.335 . S
N701 C704 1.390 . S
N702 C703 1.345 . S
N702 C705 1.336 . S
C703 N701 1.335 . S
C703 N702 1.345 . S
C703 H708 0.930 . S
C704 N701 1.390 . S
C704 C705 1.346 . S
C704 H709 0.930 . S
C705 N702 1.336 . S
C705 C704 1.346 . S
C705 H712 0.929 . S
C706 O696 1.282 . S
C706 O707 1.216 . S
O707 C706 1.216 . S
H708 C703 0.930 . S
H709 C704 0.930 . S
O710 Cu690 1.959 . S
O710 C697 1.251 . S
H711 C694 0.930 . S
H712 C705 0.929 . S
Cu713 N714 1.999 . S
Cu713 O719 1.974 . S
Cu713 N724 1.985 . S
Cu713 O733 1.959 . S
N714 Cu713 1.999 . S
N714 C716 1.263 . S
N714 C718 1.389 . S
N715 C716 1.358 . S
N715 C717 1.400 . S
C716 N714 1.263 . S
C716 N715 1.358 . S
C716 H722 0.930 . S
C717 N715 1.400 . S
C717 C718 1.351 . S
C717 H734 0.930 . S
C718 N714 1.389 . S
C718 C717 1.351 . S
C718 H723 0.930 . S
O719 Cu713 1.974 . S
O719 C729 1.282 . S
C720 O721 1.261 . S
C720 O733 1.251 . S
O721 C720 1.261 . S
H722 C716 0.930 . S
H723 C718 0.930 . S
N724 Cu713 1.985 . S
N724 C726 1.335 . S
N724 C727 1.390 . S
N725 C726 1.345 . S
N725 C728 1.336 . S
C726 N724 1.335 . S
C726 N725 1.345 . S
C726 H731 0.930 . S
C727 N724 1.390 . S
C727 C728 1.346 . S
C727 H732 0.930 . S
C728 N725 1.336 . S
C728 C727 1.346 . S
C728 H735 0.929 . S
C729 O719 1.282 . S
C729 O730 1.216 . S
O730 C729 1.216 . S
H731 C726 0.930 . S
H732 C727 0.930 . S
O733 Cu713 1.959 . S
O733 C720 1.251 . S
H734 C717 0.930 . S
H735 C728 0.929 . S
Cu736 N737 1.999 . S
Cu736 O742 1.974 . S
Cu736 N747 1.985 . S
Cu736 O756 1.959 . S
N737 Cu736 1.999 . S
N737 C739 1.263 . S
N737 C741 1.389 . S
N738 C739 1.358 . S
N738 C740 1.400 . S
C739 N737 1.263 . S
C739 N738 1.358 . S
C739 H745 0.930 . S
C740 N738 1.400 . S
C740 C741 1.351 . S
C740 H757 0.930 . S
C741 N737 1.389 . S
C741 C740 1.351 . S
C741 H746 0.930 . S
O742 Cu736 1.974 . S
O742 C752 1.282 . S
C743 O744 1.261 . S
C743 O756 1.251 . S
O744 C743 1.261 . S
H745 C739 0.930 . S
H746 C741 0.930 . S
N747 Cu736 1.985 . S
N747 C749 1.335 . S
N747 C750 1.390 . S
N748 C749 1.345 . S
N748 C751 1.336 . S
C749 N747 1.335 . S
C749 N748 1.345 . S
C749 H754 0.930 . S
C750 N747 1.390 . S
C750 C751 1.346 . S
C750 H755 0.930 . S
C751 N748 1.336 . S
C751 C750 1.346 . S
C751 H758 0.929 . S
C752 O742 1.282 . S
C752 O753 1.216 . S
O753 C752 1.216 . S
H754 C749 0.930 . S
H755 C750 0.930 . S
O756 Cu736 1.959 . S
O756 C743 1.251 . S
H757 C740 0.930 . S
H758 C751 0.929 . S
Cu759 N760 1.999 . S
Cu759 O765 1.974 . S
Cu759 N770 1.985 . S
Cu759 O779 1.959 . S
N760 Cu759 1.999 . S
N760 C762 1.263 . S
N760 C764 1.389 . S
N761 C762 1.358 . S
N761 C763 1.400 . S
C762 N760 1.263 . S
C762 N761 1.358 . S
C762 H768 0.930 . S
C763 N761 1.400 . S
C763 C764 1.351 . S
C763 H780 0.930 . S
C764 N760 1.389 . S
C764 C763 1.351 . S
C764 H769 0.930 . S
O765 Cu759 1.974 . S
O765 C775 1.282 . S
C766 O767 1.261 . S
C766 O779 1.251 . S
O767 C766 1.261 . S
H768 C762 0.930 . S
H769 C764 0.930 . S
N770 Cu759 1.985 . S
N770 C772 1.335 . S
N770 C773 1.390 . S
N771 C772 1.345 . S
N771 C774 1.336 1_554 S
C772 N770 1.335 . S
C772 N771 1.345 . S
C772 H777 0.930 . S
C773 N770 1.390 . S
C773 C774 1.346 1_554 S
C773 H778 0.930 1_554 S
C774 N771 1.336 1_556 S
C774 C773 1.346 1_556 S
C774 H781 0.929 . S
C775 O765 1.282 . S
C775 O776 1.216 . S
O776 C775 1.216 . S
H777 C772 0.930 . S
H778 C773 0.930 1_556 S
O779 Cu759 1.959 . S
O779 C766 1.251 . S
H780 C763 0.930 . S
H781 C774 0.929 . S
Cu782 N783 1.999 . S
Cu782 O788 1.974 . S
Cu782 N793 1.985 . S
Cu782 O802 1.959 . S
N783 Cu782 1.999 . S
N783 C785 1.263 . S
N783 C787 1.389 . S
N784 C785 1.358 . S
N784 C786 1.400 . S
C785 N783 1.263 . S
C785 N784 1.358 . S
C785 H791 0.930 . S
C786 N784 1.400 . S
C786 C787 1.351 . S
C786 H803 0.930 . S
C787 N783 1.389 . S
C787 C786 1.351 . S
C787 H792 0.930 . S
O788 Cu782 1.974 . S
O788 C798 1.282 . S
C789 O790 1.261 . S
C789 O802 1.251 . S
O790 C789 1.261 . S
H791 C785 0.930 . S
H792 C787 0.930 . S
N793 Cu782 1.985 . S
N793 C795 1.335 . S
N793 C796 1.390 . S
N794 C795 1.345 . S
N794 C797 1.336 . S
C795 N793 1.335 . S
C795 N794 1.345 . S
C795 H800 0.930 . S
C796 N793 1.390 . S
C796 C797 1.346 . S
C796 H801 0.930 . S
C797 N794 1.336 . S
C797 C796 1.346 . S
C797 H804 0.929 . S
C798 O788 1.282 . S
C798 O799 1.216 . S
O799 C798 1.216 . S
H800 C795 0.930 . S
H801 C796 0.930 . S
O802 Cu782 1.959 . S
O802 C789 1.251 . S
H803 C786 0.930 . S
H804 C797 0.929 . S
Cu805 N806 1.999 . S
Cu805 O811 1.974 . S
Cu805 N816 1.985 . S
Cu805 O825 1.959 . S
N806 Cu805 1.999 . S
N806 C808 1.263 . S
N806 C810 1.389 . S
N807 C808 1.358 . S
N807 C809 1.400 . S
C808 N806 1.263 . S
C808 N807 1.358 . S
C808 H814 0.930 . S
C809 N807 1.400 . S
C809 C810 1.351 . S
C809 H826 0.930 . S
C810 N806 1.389 . S
C810 C809 1.351 . S
C810 H815 0.930 . S
O811 Cu805 1.974 . S
O811 C821 1.282 . S
C812 O813 1.261 . S
C812 O825 1.251 . S
O813 C812 1.261 . S
H814 C808 0.930 . S
H815 C810 0.930 . S
N816 Cu805 1.985 . S
N816 C818 1.335 . S
N816 C819 1.390 . S
N817 C818 1.345 . S
N817 C820 1.336 . S
C818 N816 1.335 . S
C818 N817 1.345 . S
C818 H823 0.930 . S
C819 N816 1.390 . S
C819 C820 1.346 . S
C819 H824 0.930 . S
C820 N817 1.336 . S
C820 C819 1.346 . S
C820 H827 0.929 . S
C821 O811 1.282 . S
C821 O822 1.216 . S
O822 C821 1.216 . S
H823 C818 0.930 . S
H824 C819 0.930 . S
O825 Cu805 1.959 . S
O825 C812 1.251 . S
H826 C809 0.930 . S
H827 C820 0.929 . S
Cu828 N829 1.999 . S
Cu828 O834 1.974 . S
Cu828 N839 1.985 . S
Cu828 O848 1.959 . S
N829 Cu828 1.999 . S
N829 C831 1.263 . S
N829 C833 1.389 . S
N830 C831 1.358 . S
N830 C832 1.400 . S
C831 N829 1.263 . S
C831 N830 1.358 . S
C831 H837 0.930 . S
C832 N830 1.400 . S
C832 C833 1.351 . S
C832 H849 0.930 . S
C833 N829 1.389 . S
C833 C832 1.351 . S
C833 H838 0.930 . S
O834 Cu828 1.974 . S
O834 C844 1.282 . S
C835 O836 1.261 . S
C835 O848 1.251 . S
O836 C835 1.261 . S
H837 C831 0.930 . S
H838 C833 0.930 . S
N839 Cu828 1.985 . S
N839 C841 1.335 . S
N839 C842 1.390 . S
N840 C841 1.345 . S
N840 C843 1.336 . S
C841 N839 1.335 . S
C841 N840 1.345 . S
C841 H846 0.930 . S
C842 N839 1.390 . S
C842 C843 1.346 . S
C842 H847 0.930 . S
C843 N840 1.336 . S
C843 C842 1.346 . S
C843 H850 0.929 . S
C844 O834 1.282 . S
C844 O845 1.216 . S
O845 C844 1.216 . S
H846 C841 0.930 . S
H847 C842 0.930 . S
O848 Cu828 1.959 . S
O848 C835 1.251 . S
H849 C832 0.930 . S
H850 C843 0.929 . S
Cu851 N852 1.999 . S
Cu851 O857 1.974 . S
Cu851 N862 1.985 . S
Cu851 O871 1.959 . S
N852 Cu851 1.999 . S
N852 C854 1.263 . S
N852 C856 1.389 . S
N853 C854 1.358 . S
N853 C855 1.400 . S
C854 N852 1.263 . S
C854 N853 1.358 . S
C854 H860 0.930 . S
C855 N853 1.400 . S
C855 C856 1.351 . S
C855 H872 0.930 . S
C856 N852 1.389 . S
C856 C855 1.351 . S
C856 H861 0.930 . S
O857 Cu851 1.974 . S
O857 C867 1.282 . S
C858 O859 1.261 . S
C858 O871 1.251 . S
O859 C858 1.261 . S
H860 C854 0.930 . S
H861 C856 0.930 . S
N862 Cu851 1.985 . S
N862 C864 1.335 . S
N862 C865 1.390 . S
N863 C864 1.345 . S
N863 C866 1.336 1_556 S
C864 N862 1.335 . S
C864 N863 1.345 . S
C864 H869 0.930 . S
C865 N862 1.390 . S
C865 C866 1.346 1_556 S
C865 H870 0.930 1_556 S
C866 N863 1.336 1_554 S
C866 C865 1.346 1_554 S
C866 H873 0.929 . S
C867 O857 1.282 . S
C867 O868 1.216 . S
O868 C867 1.216 . S
H869 C864 0.930 . S
H870 C865 0.930 1_554 S
O871 Cu851 1.959 . S
O871 C858 1.251 . S
H872 C855 0.930 . S
H873 C866 0.929 . S
Cu874 N875 1.999 . S
Cu874 O880 1.974 . S
Cu874 N885 1.985 . S
Cu874 O894 1.959 . S
N875 Cu874 1.999 . S
N875 C877 1.263 . S
N875 C879 1.389 . S
N876 C877 1.358 . S
N876 C878 1.400 . S
C877 N875 1.263 . S
C877 N876 1.358 . S
C877 H883 0.930 . S
C878 N876 1.400 . S
C878 C879 1.351 . S
C878 H895 0.930 . S
C879 N875 1.389 . S
C879 C878 1.351 . S
C879 H884 0.930 . S
O880 Cu874 1.974 . S
O880 C890 1.282 . S
C881 O882 1.261 . S
C881 O894 1.251 . S
O882 C881 1.261 . S
H883 C877 0.930 . S
H884 C879 0.930 . S
N885 Cu874 1.985 . S
N885 C887 1.335 . S
N885 C888 1.390 . S
N886 C887 1.345 . S
N886 C889 1.336 . S
C887 N885 1.335 . S
C887 N886 1.345 . S
C887 H892 0.930 . S
C888 N885 1.390 . S
C888 C889 1.346 . S
C888 H893 0.930 . S
C889 N886 1.336 . S
C889 C888 1.346 . S
C889 H896 0.929 . S
C890 O880 1.282 . S
C890 O891 1.216 . S
O891 C890 1.216 . S
H892 C887 0.930 . S
H893 C888 0.930 . S
O894 Cu874 1.959 . S
O894 C881 1.251 . S
H895 C878 0.930 . S
H896 C889 0.929 . S
Cu897 N898 1.999 . S
Cu897 O903 1.974 . S
Cu897 N908 1.985 . S
Cu897 O917 1.959 . S
N898 Cu897 1.999 . S
N898 C900 1.263 . S
N898 C902 1.389 . S
N899 C900 1.358 . S
N899 C901 1.400 . S
C900 N898 1.263 . S
C900 N899 1.358 . S
C900 H906 0.930 . S
C901 N899 1.400 . S
C901 C902 1.351 . S
C901 H918 0.930 . S
C902 N898 1.389 . S
C902 C901 1.351 . S
C902 H907 0.930 . S
O903 Cu897 1.974 . S
O903 C913 1.282 . S
C904 O905 1.261 . S
C904 O917 1.251 . S
O905 C904 1.261 . S
H906 C900 0.930 . S
H907 C902 0.930 . S
N908 Cu897 1.985 . S
N908 C910 1.335 . S
N908 C911 1.390 . S
N909 C910 1.345 . S
N909 C912 1.336 . S
C910 N908 1.335 . S
C910 N909 1.345 . S
C910 H915 0.930 . S
C911 N908 1.390 . S
C911 C912 1.346 . S
C911 H916 0.930 . S
C912 N909 1.336 . S
C912 C911 1.346 . S
C912 H919 0.929 . S
C913 O903 1.282 . S
C913 O914 1.216 . S
O914 C913 1.216 . S
H915 C910 0.930 . S
H916 C911 0.930 . S
O917 Cu897 1.959 . S
O917 C904 1.251 . S
H918 C901 0.930 . S
H919 C912 0.929 . S
Cu920 N921 1.999 . S
Cu920 O926 1.974 . S
Cu920 N931 1.985 . S
Cu920 O940 1.959 . S
N921 Cu920 1.999 . S
N921 C923 1.263 . S
N921 C925 1.389 . S
N922 C923 1.358 . S
N922 C924 1.400 . S
C923 N921 1.263 . S
C923 N922 1.358 . S
C923 H929 0.930 . S
C924 N922 1.400 . S
C924 C925 1.351 . S
C924 H941 0.930 . S
C925 N921 1.389 . S
C925 C924 1.351 . S
C925 H930 0.930 . S
O926 Cu920 1.974 . S
O926 C936 1.282 . S
C927 O928 1.261 . S
C927 O940 1.251 . S
O928 C927 1.261 . S
H929 C923 0.930 . S
H930 C925 0.930 . S
N931 Cu920 1.985 . S
N931 C933 1.335 . S
N931 C934 1.390 . S
N932 C933 1.345 . S
N932 C935 1.336 . S
C933 N931 1.335 . S
C933 N932 1.345 . S
C933 H938 0.930 . S
C934 N931 1.390 . S
C934 C935 1.346 . S
C934 H939 0.930 . S
C935 N932 1.336 . S
C935 C934 1.346 . S
C935 H942 0.929 . S
C936 O926 1.282 . S
C936 O937 1.216 . S
O937 C936 1.216 . S
H938 C933 0.930 . S
H939 C934 0.930 . S
O940 Cu920 1.959 . S
O940 C927 1.251 . S
H941 C924 0.930 . S
H942 C935 0.929 . S
Cu943 N944 1.999 . S
Cu943 O949 1.974 . S
Cu943 N954 1.985 . S
Cu943 O963 1.959 . S
N944 Cu943 1.999 . S
N944 C946 1.263 . S
N944 C948 1.389 . S
N945 C946 1.358 . S
N945 C947 1.400 . S
C946 N944 1.263 . S
C946 N945 1.358 . S
C946 H952 0.930 . S
C947 N945 1.400 . S
C947 C948 1.351 . S
C947 H964 0.930 . S
C948 N944 1.389 . S
C948 C947 1.351 . S
C948 H953 0.930 . S
O949 Cu943 1.974 . S
O949 C959 1.282 . S
C950 O951 1.261 . S
C950 O963 1.251 . S
O951 C950 1.261 . S
H952 C946 0.930 . S
H953 C948 0.930 . S
N954 Cu943 1.985 . S
N954 C956 1.335 . S
N954 C957 1.390 . S
N955 C956 1.345 . S
N955 C958 1.336 . S
C956 N954 1.335 . S
C956 N955 1.345 . S
C956 H961 0.930 . S
C957 N954 1.390 . S
C957 C958 1.346 . S
C957 H962 0.930 . S
C958 N955 1.336 . S
C958 C957 1.346 . S
C958 H965 0.929 . S
C959 O949 1.282 . S
C959 O960 1.216 . S
O960 C959 1.216 . S
H961 C956 0.930 . S
H962 C957 0.930 . S
O963 Cu943 1.959 . S
O963 C950 1.251 . S
H964 C947 0.930 . S
H965 C958 0.929 . S
Cu966 N967 1.999 . S
Cu966 O972 1.974 . S
Cu966 N977 1.985 . S
Cu966 O986 1.959 . S
N967 Cu966 1.999 . S
N967 C969 1.263 . S
N967 C971 1.389 . S
N968 C969 1.358 . S
N968 C970 1.400 . S
C969 N967 1.263 . S
C969 N968 1.358 . S
C969 H975 0.930 . S
C970 N968 1.400 . S
C970 C971 1.351 . S
C970 H987 0.930 . S
C971 N967 1.389 . S
C971 C970 1.351 . S
C971 H976 0.930 . S
O972 Cu966 1.974 . S
O972 C982 1.282 . S
C973 O974 1.261 . S
C973 O986 1.251 . S
O974 C973 1.261 . S
H975 C969 0.930 . S
H976 C971 0.930 . S
N977 Cu966 1.985 . S
N977 C979 1.335 . S
N977 C980 1.390 . S
N978 C979 1.345 . S
N978 C981 1.336 1_545 S
C979 N977 1.335 . S
C979 N978 1.345 . S
C979 H984 0.930 . S
C980 N977 1.390 . S
C980 C981 1.346 1_545 S
C980 H985 0.930 1_545 S
C981 N978 1.336 1_565 S
C981 C980 1.346 1_565 S
C981 H988 0.929 . S
C982 O972 1.282 . S
C982 O983 1.216 . S
O983 C982 1.216 . S
H984 C979 0.930 . S
H985 C980 0.930 1_565 S
O986 Cu966 1.959 . S
O986 C973 1.251 . S
H987 C970 0.930 . S
H988 C981 0.929 . S
Cu989 N990 1.999 . S
Cu989 O995 1.974 . S
Cu989 N1000 1.985 . S
Cu989 O1009 1.959 . S
N990 Cu989 1.999 . S
N990 C992 1.263 . S
N990 C994 1.389 . S
N991 C992 1.358 . S
N991 C993 1.400 . S
C992 N990 1.263 . S
C992 N991 1.358 . S
C992 H998 0.930 . S
C993 N991 1.400 . S
C993 C994 1.351 . S
C993 H1010 0.930 . S
C994 N990 1.389 . S
C994 C993 1.351 . S
C994 H999 0.930 . S
O995 Cu989 1.974 . S
O995 C1005 1.282 . S
C996 O997 1.261 . S
C996 O1009 1.251 . S
O997 C996 1.261 . S
H998 C992 0.930 . S
H999 C994 0.930 . S
N1000 Cu989 1.985 . S
N1000 C1002 1.335 . S
N1000 C1003 1.390 . S
N1001 C1002 1.345 . S
N1001 C1004 1.336 . S
C1002 N1000 1.335 . S
C1002 N1001 1.345 . S
C1002 H1007 0.930 . S
C1003 N1000 1.390 . S
C1003 C1004 1.346 . S
C1003 H1008 0.930 . S
C1004 N1001 1.336 . S
C1004 C1003 1.346 . S
C1004 H1011 0.929 . S
C1005 O995 1.282 . S
C1005 O1006 1.216 . S
O1006 C1005 1.216 . S
H1007 C1002 0.930 . S
H1008 C1003 0.930 . S
O1009 Cu989 1.959 . S
O1009 C996 1.251 . S
H1010 C993 0.930 . S
H1011 C1004 0.929 . S
Cu1012 N1013 1.999 . S
Cu1012 O1018 1.974 . S
Cu1012 N1023 1.985 . S
Cu1012 O1032 1.959 . S
N1013 Cu1012 1.999 . S
N1013 C1015 1.263 . S
N1013 C1017 1.389 . S
N1014 C1015 1.358 . S
N1014 C1016 1.400 . S
C1015 N1013 1.263 . S
C1015 N1014 1.358 . S
C1015 H1021 0.930 . S
C1016 N1014 1.400 . S
C1016 C1017 1.351 . S
C1016 H1033 0.930 . S
C1017 N1013 1.389 . S
C1017 C1016 1.351 . S
C1017 H1022 0.930 . S
O1018 Cu1012 1.974 . S
O1018 C1028 1.282 . S
C1019 O1020 1.261 . S
C1019 O1032 1.251 . S
O1020 C1019 1.261 . S
H1021 C1015 0.930 . S
H1022 C1017 0.930 . S
N1023 Cu1012 1.985 . S
N1023 C1025 1.335 . S
N1023 C1026 1.390 . S
N1024 C1025 1.345 . S
N1024 C1027 1.336 . S
C1025 N1023 1.335 . S
C1025 N1024 1.345 . S
C1025 H1030 0.930 . S
C1026 N1023 1.390 . S
C1026 C1027 1.346 . S
C1026 H1031 0.930 . S
C1027 N1024 1.336 . S
C1027 C1026 1.346 . S
C1027 H1034 0.929 . S
C1028 O1018 1.282 . S
C1028 O1029 1.216 . S
O1029 C1028 1.216 . S
H1030 C1025 0.930 . S
H1031 C1026 0.930 . S
O1032 Cu1012 1.959 . S
O1032 C1019 1.251 . S
H1033 C1016 0.930 . S
H1034 C1027 0.929 . S
Cu1035 N1036 1.999 . S
Cu1035 O1041 1.974 . S
Cu1035 N1046 1.985 . S
Cu1035 O1055 1.959 . S
N1036 Cu1035 1.999 . S
N1036 C1038 1.263 . S
N1036 C1040 1.389 . S
N1037 C1038 1.358 . S
N1037 C1039 1.400 . S
C1038 N1036 1.263 . S
C1038 N1037 1.358 . S
C1038 H1044 0.930 . S
C1039 N1037 1.400 . S
C1039 C1040 1.351 . S
C1039 H1056 0.930 . S
C1040 N1036 1.389 . S
C1040 C1039 1.351 . S
C1040 H1045 0.930 . S
O1041 Cu1035 1.974 . S
O1041 C1051 1.282 . S
C1042 O1043 1.261 . S
C1042 O1055 1.251 . S
O1043 C1042 1.261 . S
H1044 C1038 0.930 . S
H1045 C1040 0.930 . S
N1046 Cu1035 1.985 . S
N1046 C1048 1.335 . S
N1046 C1049 1.390 . S
N1047 C1048 1.345 . S
N1047 C1050 1.336 . S
C1048 N1046 1.335 . S
C1048 N1047 1.345 . S
C1048 H1053 0.930 . S
C1049 N1046 1.390 . S
C1049 C1050 1.346 . S
C1049 H1054 0.930 . S
C1050 N1047 1.336 . S
C1050 C1049 1.346 . S
C1050 H1057 0.929 . S
C1051 O1041 1.282 . S
C1051 O1052 1.216 . S
O1052 C1051 1.216 . S
H1053 C1048 0.930 . S
H1054 C1049 0.930 . S
O1055 Cu1035 1.959 . S
O1055 C1042 1.251 . S
H1056 C1039 0.930 . S
H1057 C1050 0.929 . S
Cu1058 N1059 1.999 . S
Cu1058 O1064 1.974 . S
Cu1058 N1069 1.985 . S
Cu1058 O1078 1.959 . S
N1059 Cu1058 1.999 . S
N1059 C1061 1.263 . S
N1059 C1063 1.389 . S
N1060 C1061 1.358 . S
N1060 C1062 1.400 . S
C1061 N1059 1.263 . S
C1061 N1060 1.358 . S
C1061 H1067 0.930 . S
C1062 N1060 1.400 . S
C1062 C1063 1.351 . S
C1062 H1079 0.930 . S
C1063 N1059 1.389 . S
C1063 C1062 1.351 . S
C1063 H1068 0.930 . S
O1064 Cu1058 1.974 . S
O1064 C1074 1.282 . S
C1065 O1066 1.261 . S
C1065 O1078 1.251 . S
O1066 C1065 1.261 . S
H1067 C1061 0.930 . S
H1068 C1063 0.930 . S
N1069 Cu1058 1.985 . S
N1069 C1071 1.335 . S
N1069 C1072 1.390 . S
N1070 C1071 1.345 . S
N1070 C1073 1.336 1_565 S
C1071 N1069 1.335 . S
C1071 N1070 1.345 . S
C1071 H1076 0.930 . S
C1072 N1069 1.390 . S
C1072 C1073 1.346 1_565 S
C1072 H1077 0.930 1_565 S
C1073 N1070 1.336 1_545 S
C1073 C1072 1.346 1_545 S
C1073 H1080 0.929 . S
C1074 O1064 1.282 . S
C1074 O1075 1.216 . S
O1075 C1074 1.216 . S
H1076 C1071 0.930 . S
H1077 C1072 0.930 1_545 S
O1078 Cu1058 1.959 . S
O1078 C1065 1.251 . S
H1079 C1062 0.930 . S
H1080 C1073 0.929 . S
Cu1081 N1082 1.999 . S
Cu1081 O1087 1.974 . S
Cu1081 N1092 1.985 . S
Cu1081 O1101 1.959 . S
N1082 Cu1081 1.999 . S
N1082 C1084 1.263 . S
N1082 C1086 1.389 . S
N1083 C1084 1.358 . S
N1083 C1085 1.400 . S
C1084 N1082 1.263 . S
C1084 N1083 1.358 . S
C1084 H1090 0.930 . S
C1085 N1083 1.400 . S
C1085 C1086 1.351 . S
C1085 H1102 0.930 . S
C1086 N1082 1.389 . S
C1086 C1085 1.351 . S
C1086 H1091 0.930 . S
O1087 Cu1081 1.974 . S
O1087 C1097 1.282 . S
C1088 O1089 1.261 . S
C1088 O1101 1.251 . S
O1089 C1088 1.261 . S
H1090 C1084 0.930 . S
H1091 C1086 0.930 . S
N1092 Cu1081 1.985 . S
N1092 C1094 1.335 . S
N1092 C1095 1.390 . S
N1093 C1094 1.345 . S
N1093 C1096 1.336 1_545 S
C1094 N1092 1.335 . S
C1094 N1093 1.345 . S
C1094 H1099 0.930 . S
C1095 N1092 1.390 . S
C1095 C1096 1.346 1_545 S
C1095 H1100 0.930 1_545 S
C1096 N1093 1.336 1_565 S
C1096 C1095 1.346 1_565 S
C1096 H1103 0.929 . S
C1097 O1087 1.282 . S
C1097 O1098 1.216 . S
O1098 C1097 1.216 . S
H1099 C1094 0.930 . S
H1100 C1095 0.930 1_565 S
O1101 Cu1081 1.959 . S
O1101 C1088 1.251 . S
H1102 C1085 0.930 . S
H1103 C1096 0.929 . S
H1104 C1112 0.950 . S
H1105 C1117 0.950 . S
H1106 C1114 0.950 . S
H1107 C1116 0.950 . S
H1108 C1118 0.950 . S
H1109 C1120 0.950 . S
H1110 C1122 0.950 . S
H1111 C1123 0.950 . S
C1112 H1104 0.950 . S
C1112 C1113 1.386 . S
C1112 C1114 1.391 . S
C1113 C1112 1.386 . S
C1113 C1117 1.393 . S
C1114 H1106 0.950 . S
C1114 C1112 1.391 . S
C1114 C1115 1.400 . S
C1115 C1114 1.400 . S
C1115 C1116 1.398 . S
C1115 C1121 1.491 . S
C1116 H1107 0.950 . S
C1116 C1115 1.398 . S
C1116 C1117 1.391 . S
C1117 H1105 0.950 . S
C1117 C1113 1.393 . S
C1117 C1116 1.391 . S
C1118 H1108 0.950 . S
C1118 C1119 1.386 . S
C1118 C1120 1.391 . S
C1119 C1118 1.386 . S
C1119 C1123 1.393 . S
C1120 H1109 0.950 . S
C1120 C1118 1.391 . S
C1120 C1121 1.400 . S
C1121 C1115 1.491 . S
C1121 C1120 1.400 . S
C1121 C1122 1.398 . S
C1122 H1110 0.950 . S
C1122 C1121 1.398 . S
C1122 C1123 1.391 . S
C1123 H1111 0.950 . S
C1123 C1119 1.393 . S
C1123 C1122 1.391 . S
H1124 C1132 0.950 . S
H1125 C1137 0.950 . S
H1126 C1134 0.950 . S
H1127 C1136 0.950 . S
H1128 C1138 0.950 1_655 S
H1129 C1140 0.950 . S
H1130 C1142 0.950 . S
H1131 C1143 0.950 . S
C1132 H1124 0.950 . S
C1132 C1133 1.386 . S
C1132 C1134 1.391 . S
C1133 C1132 1.386 . S
C1133 C1137 1.393 . S
C1134 H1126 0.950 . S
C1134 C1132 1.391 . S
C1134 C1135 1.400 . S
C1135 C1134 1.400 . S
C1135 C1136 1.398 . S
C1135 C1141 1.491 . S
C1136 H1127 0.950 . S
C1136 C1135 1.398 . S
C1136 C1137 1.391 . S
C1137 H1125 0.950 . S
C1137 C1133 1.393 . S
C1137 C1136 1.391 . S
C1138 H1128 0.950 1_455 S
C1138 C1139 1.386 . S
C1138 C1140 1.391 . S
C1139 C1138 1.386 . S
C1139 C1143 1.393 . S
C1140 H1129 0.950 . S
C1140 C1138 1.391 . S
C1140 C1141 1.400 . S
C1141 C1135 1.491 . S
C1141 C1140 1.400 . S
C1141 C1142 1.398 . S
C1142 H1130 0.950 . S
C1142 C1141 1.398 . S
C1142 C1143 1.391 . S
C1143 H1131 0.950 . S
C1143 C1139 1.393 . S
C1143 C1142 1.391 . S
H1144 C1152 0.950 . S
H1145 C1157 0.950 . S
H1146 C1154 0.950 . S
H1147 C1156 0.950 . S
H1148 C1158 0.950 . S
H1149 C1160 0.950 . S
H1150 C1162 0.950 . S
H1151 C1163 0.950 . S
C1152 H1144 0.950 . S
C1152 C1153 1.386 . S
C1152 C1154 1.391 . S
C1153 C1152 1.386 . S
C1153 C1157 1.393 . S
C1154 H1146 0.950 . S
C1154 C1152 1.391 . S
C1154 C1155 1.400 . S
C1155 C1154 1.400 . S
C1155 C1156 1.398 . S
C1155 C1161 1.491 . S
C1156 H1147 0.950 . S
C1156 C1155 1.398 . S
C1156 C1157 1.391 . S
C1157 H1145 0.950 . S
C1157 C1153 1.393 . S
C1157 C1156 1.391 . S
C1158 H1148 0.950 . S
C1158 C1159 1.386 . S
C1158 C1160 1.391 . S
C1159 C1158 1.386 . S
C1159 C1163 1.393 . S
C1160 H1149 0.950 . S
C1160 C1158 1.391 . S
C1160 C1161 1.400 . S
C1161 C1155 1.491 . S
C1161 C1160 1.400 . S
C1161 C1162 1.398 . S
C1162 H1150 0.950 . S
C1162 C1161 1.398 . S
C1162 C1163 1.391 . S
C1163 H1151 0.950 . S
C1163 C1159 1.393 . S
C1163 C1162 1.391 . S
H1164 C1172 0.950 . S
H1165 C1177 0.950 . S
H1166 C1174 0.950 . S
H1167 C1176 0.950 . S
H1168 C1178 0.950 . S
H1169 C1180 0.950 . S
H1170 C1182 0.950 . S
H1171 C1183 0.950 . S
C1172 H1164 0.950 . S
C1172 C1173 1.386 . S
C1172 C1174 1.391 . S
C1173 C1172 1.386 . S
C1173 C1177 1.393 . S
C1174 H1166 0.950 . S
C1174 C1172 1.391 . S
C1174 C1175 1.400 . S
C1175 C1174 1.400 . S
C1175 C1176 1.398 . S
C1175 C1181 1.491 . S
C1176 H1167 0.950 . S
C1176 C1175 1.398 . S
C1176 C1177 1.391 . S
C1177 H1165 0.950 . S
C1177 C1173 1.393 . S
C1177 C1176 1.391 . S
C1178 H1168 0.950 . S
C1178 C1179 1.386 . S
C1178 C1180 1.391 . S
C1179 C1178 1.386 . S
C1179 C1183 1.393 . S
C1180 H1169 0.950 . S
C1180 C1178 1.391 . S
C1180 C1181 1.400 . S
C1181 C1175 1.491 . S
C1181 C1180 1.400 . S
C1181 C1182 1.398 . S
C1182 H1170 0.950 . S
C1182 C1181 1.398 . S
C1182 C1183 1.391 . S
C1183 H1171 0.950 . S
C1183 C1179 1.393 . S
C1183 C1182 1.391 . S
H1184 C1192 0.950 . S
H1185 C1197 0.950 . S
H1186 C1194 0.950 . S
H1187 C1196 0.950 . S
H1188 C1198 0.950 1_556 S
H1189 C1200 0.950 . S
H1190 C1202 0.950 . S
H1191 C1203 0.950 . S
C1192 H1184 0.950 . S
C1192 C1193 1.386 . S
C1192 C1194 1.391 . S
C1193 C1192 1.386 . S
C1193 C1197 1.393 . S
C1194 H1186 0.950 . S
C1194 C1192 1.391 . S
C1194 C1195 1.400 . S
C1195 C1194 1.400 . S
C1195 C1196 1.398 . S
C1195 C1201 1.491 . S
C1196 H1187 0.950 . S
C1196 C1195 1.398 . S
C1196 C1197 1.391 . S
C1197 H1185 0.950 . S
C1197 C1193 1.393 . S
C1197 C1196 1.391 . S
C1198 H1188 0.950 1_554 S
C1198 C1199 1.386 . S
C1198 C1200 1.391 . S
C1199 C1198 1.386 . S
C1199 C1203 1.393 . S
C1200 H1189 0.950 . S
C1200 C1198 1.391 . S
C1200 C1201 1.400 . S
C1201 C1195 1.491 . S
C1201 C1200 1.400 . S
C1201 C1202 1.398 . S
C1202 H1190 0.950 . S
C1202 C1201 1.398 . S
C1202 C1203 1.391 . S
C1203 H1191 0.950 . S
C1203 C1199 1.393 . S
C1203 C1202 1.391 . S
H1204 C1212 0.950 . S
H1205 C1217 0.950 . S
H1206 C1214 0.950 . S
H1207 C1216 0.950 . S
H1208 C1218 0.950 . S
H1209 C1220 0.950 . S
H1210 C1222 0.950 . S
H1211 C1223 0.950 . S
C1212 H1204 0.950 . S
C1212 C1213 1.386 . S
C1212 C1214 1.391 . S
C1213 C1212 1.386 . S
C1213 C1217 1.393 . S
C1214 H1206 0.950 . S
C1214 C1212 1.391 . S
C1214 C1215 1.400 . S
C1215 C1214 1.400 . S
C1215 C1216 1.398 . S
C1215 C1221 1.491 . S
C1216 H1207 0.950 . S
C1216 C1215 1.398 . S
C1216 C1217 1.391 . S
C1217 H1205 0.950 . S
C1217 C1213 1.393 . S
C1217 C1216 1.391 . S
C1218 H1208 0.950 . S
C1218 C1219 1.386 . S
C1218 C1220 1.391 . S
C1219 C1218 1.386 . S
C1219 C1223 1.393 . S
C1220 H1209 0.950 . S
C1220 C1218 1.391 . S
C1220 C1221 1.400 . S
C1221 C1215 1.491 . S
C1221 C1220 1.400 . S
C1221 C1222 1.398 . S
C1222 H1210 0.950 . S
C1222 C1221 1.398 . S
C1222 C1223 1.391 . S
C1223 H1211 0.950 . S
C1223 C1219 1.393 . S
C1223 C1222 1.391 . S
H1224 C1232 0.950 . S
H1225 C1237 0.950 . S
H1226 C1234 0.950 . S
H1227 C1236 0.950 . S
H1228 C1238 0.950 . S
H1229 C1240 0.950 . S
H1230 C1242 0.950 . S
H1231 C1243 0.950 . S
C1232 H1224 0.950 . S
C1232 C1233 1.386 . S
C1232 C1234 1.391 . S
C1233 C1232 1.386 . S
C1233 C1237 1.393 . S
C1234 H1226 0.950 . S
C1234 C1232 1.391 . S
C1234 C1235 1.400 . S
C1235 C1234 1.400 . S
C1235 C1236 1.398 . S
C1235 C1241 1.491 . S
C1236 H1227 0.950 . S
C1236 C1235 1.398 . S
C1236 C1237 1.391 . S
C1237 H1225 0.950 . S
C1237 C1233 1.393 . S
C1237 C1236 1.391 . S
C1238 H1228 0.950 . S
C1238 C1239 1.386 . S
C1238 C1240 1.391 . S
C1239 C1238 1.386 . S
C1239 C1243 1.393 . S
C1240 H1229 0.950 . S
C1240 C1238 1.391 . S
C1240 C1241 1.400 . S
C1241 C1235 1.491 . S
C1241 C1240 1.400 . S
C1241 C1242 1.398 . S
C1242 H1230 0.950 . S
C1242 C1241 1.398 . S
C1242 C1243 1.391 . S
C1243 H1231 0.950 . S
C1243 C1239 1.393 . S
C1243 C1242 1.391 . S
H1244 C1252 0.950 . S
H1245 C1257 0.950 . S
H1246 C1254 0.950 . S
H1247 C1256 0.950 . S
H1248 C1258 0.950 1_655 S
H1249 C1260 0.950 . S
H1250 C1262 0.950 . S
H1251 C1263 0.950 . S
C1252 H1244 0.950 . S
C1252 C1253 1.386 . S
C1252 C1254 1.391 . S
C1253 C1252 1.386 . S
C1253 C1257 1.393 . S
C1254 H1246 0.950 . S
C1254 C1252 1.391 . S
C1254 C1255 1.400 . S
C1255 C1254 1.400 . S
C1255 C1256 1.398 . S
C1255 C1261 1.491 . S
C1256 H1247 0.950 . S
C1256 C1255 1.398 . S
C1256 C1257 1.391 . S
C1257 H1245 0.950 . S
C1257 C1253 1.393 . S
C1257 C1256 1.391 . S
C1258 H1248 0.950 1_455 S
C1258 C1259 1.386 . S
C1258 C1260 1.391 . S
C1259 C1258 1.386 . S
C1259 C1263 1.393 . S
C1260 H1249 0.950 . S
C1260 C1258 1.391 . S
C1260 C1261 1.400 . S
C1261 C1255 1.491 . S
C1261 C1260 1.400 . S
C1261 C1262 1.398 . S
C1262 H1250 0.950 . S
C1262 C1261 1.398 . S
C1262 C1263 1.391 . S
C1263 H1251 0.950 . S
C1263 C1259 1.393 . S
C1263 C1262 1.391 . S
H1264 C1272 0.950 . S
H1265 C1277 0.950 . S
H1266 C1274 0.950 . S
H1267 C1276 0.950 . S
H1268 C1278 0.950 . S
H1269 C1280 0.950 . S
H1270 C1282 0.950 . S
H1271 C1283 0.950 . S
C1272 H1264 0.950 . S
C1272 C1273 1.386 . S
C1272 C1274 1.391 . S
C1273 C1272 1.386 . S
C1273 C1277 1.393 . S
C1274 H1266 0.950 . S
C1274 C1272 1.391 . S
C1274 C1275 1.400 . S
C1275 C1274 1.400 . S
C1275 C1276 1.398 . S
C1275 C1281 1.491 . S
C1276 H1267 0.950 . S
C1276 C1275 1.398 . S
C1276 C1277 1.391 . S
C1277 H1265 0.950 . S
C1277 C1273 1.393 . S
C1277 C1276 1.391 . S
C1278 H1268 0.950 . S
C1278 C1279 1.386 . S
C1278 C1280 1.391 . S
C1279 C1278 1.386 . S
C1279 C1283 1.393 . S
C1280 H1269 0.950 . S
C1280 C1278 1.391 . S
C1280 C1281 1.400 . S
C1281 C1275 1.491 . S
C1281 C1280 1.400 . S
C1281 C1282 1.398 . S
C1282 H1270 0.950 . S
C1282 C1281 1.398 . S
C1282 C1283 1.391 . S
C1283 H1271 0.950 . S
C1283 C1279 1.393 . S
C1283 C1282 1.391 . S
H1284 C1292 0.950 . S
H1285 C1297 0.950 . S
H1286 C1294 0.950 . S
H1287 C1296 0.950 . S
H1288 C1298 0.950 . S
H1289 C1300 0.950 . S
H1290 C1302 0.950 . S
H1291 C1303 0.950 1_565 S
C1292 H1284 0.950 . S
C1292 C1293 1.386 . S
C1292 C1294 1.391 . S
C1293 C1292 1.386 . S
C1293 C1297 1.393 . S
C1294 H1286 0.950 . S
C1294 C1292 1.391 . S
C1294 C1295 1.400 . S
C1295 C1294 1.400 . S
C1295 C1296 1.398 . S
C1295 C1301 1.491 . S
C1296 H1287 0.950 . S
C1296 C1295 1.398 . S
C1296 C1297 1.391 . S
C1297 H1285 0.950 . S
C1297 C1293 1.393 . S
C1297 C1296 1.391 . S
C1298 H1288 0.950 . S
C1298 C1299 1.386 . S
C1298 C1300 1.391 . S
C1299 C1298 1.386 . S
C1299 C1303 1.393 . S
C1300 H1289 0.950 . S
C1300 C1298 1.391 . S
C1300 C1301 1.400 . S
C1301 C1295 1.491 . S
C1301 C1300 1.400 . S
C1301 C1302 1.398 . S
C1302 H1290 0.950 . S
C1302 C1301 1.398 . S
C1302 C1303 1.391 . S
C1303 H1291 0.950 1_545 S
C1303 C1299 1.393 . S
C1303 C1302 1.391 . S
H1304 C1312 0.950 . S
H1305 C1317 0.950 . S
H1306 C1314 0.950 . S
H1307 C1316 0.950 . S
H1308 C1318 0.950 . S
H1309 C1320 0.950 . S
H1310 C1322 0.950 . S
H1311 C1323 0.950 1_545 S
C1312 H1304 0.950 . S
C1312 C1313 1.386 . S
C1312 C1314 1.391 . S
C1313 C1312 1.386 . S
C1313 C1317 1.393 . S
C1314 H1306 0.950 . S
C1314 C1312 1.391 . S
C1314 C1315 1.400 . S
C1315 C1314 1.400 . S
C1315 C1316 1.398 . S
C1315 C1321 1.491 . S
C1316 H1307 0.950 . S
C1316 C1315 1.398 . S
C1316 C1317 1.391 . S
C1317 H1305 0.950 . S
C1317 C1313 1.393 . S
C1317 C1316 1.391 . S
C1318 H1308 0.950 . S
C1318 C1319 1.386 . S
C1318 C1320 1.391 . S
C1319 C1318 1.386 . S
C1319 C1323 1.393 . S
C1320 H1309 0.950 . S
C1320 C1318 1.391 . S
C1320 C1321 1.400 . S
C1321 C1315 1.491 . S
C1321 C1320 1.400 . S
C1321 C1322 1.398 . S
C1322 H1310 0.950 . S
C1322 C1321 1.398 . S
C1322 C1323 1.391 . S
C1323 H1311 0.950 1_565 S
C1323 C1319 1.393 . S
C1323 C1322 1.391 . S
H1324 C1332 0.950 . S
H1325 C1337 0.950 . S
H1326 C1334 0.950 . S
H1327 C1336 0.950 . S
H1328 C1338 0.950 . S
H1329 C1340 0.950 . S
H1330 C1342 0.950 . S
H1331 C1343 0.950 . S
C1332 H1324 0.950 . S
C1332 C1333 1.386 . S
C1332 C1334 1.391 . S
C1333 C1332 1.386 . S
C1333 C1337 1.393 . S
C1334 H1326 0.950 . S
C1334 C1332 1.391 . S
C1334 C1335 1.400 . S
C1335 C1334 1.400 . S
C1335 C1336 1.398 . S
C1335 C1341 1.491 . S
C1336 H1327 0.950 . S
C1336 C1335 1.398 . S
C1336 C1337 1.391 . S
C1337 H1325 0.950 . S
C1337 C1333 1.393 . S
C1337 C1336 1.391 . S
C1338 H1328 0.950 . S
C1338 C1339 1.386 . S
C1338 C1340 1.391 . S
C1339 C1338 1.386 . S
C1339 C1343 1.393 . S
C1340 H1329 0.950 . S
C1340 C1338 1.391 . S
C1340 C1341 1.400 . S
C1341 C1335 1.491 . S
C1341 C1340 1.400 . S
C1341 C1342 1.398 . S
C1342 H1330 0.950 . S
C1342 C1341 1.398 . S
C1342 C1343 1.391 . S
C1343 H1331 0.950 . S
C1343 C1339 1.393 . S
C1343 C1342 1.391 . S
H1344 C1352 0.950 . S
H1345 C1357 0.950 . S
H1346 C1354 0.950 . S
H1347 C1356 0.950 . S
H1348 C1358 0.950 . S
H1349 C1360 0.950 . S
H1350 C1362 0.950 . S
H1351 C1363 0.950 . S
C1352 H1344 0.950 . S
C1352 C1353 1.386 . S
C1352 C1354 1.391 . S
C1353 C1352 1.386 . S
C1353 C1357 1.393 . S
C1354 H1346 0.950 . S
C1354 C1352 1.391 . S
C1354 C1355 1.400 . S
C1355 C1354 1.400 . S
C1355 C1356 1.398 . S
C1355 C1361 1.491 . S
C1356 H1347 0.950 . S
C1356 C1355 1.398 . S
C1356 C1357 1.391 . S
C1357 H1345 0.950 . S
C1357 C1353 1.393 . S
C1357 C1356 1.391 . S
C1358 H1348 0.950 . S
C1358 C1359 1.386 . S
C1358 C1360 1.391 . S
C1359 C1358 1.386 . S
C1359 C1363 1.393 . S
C1360 H1349 0.950 . S
C1360 C1358 1.391 . S
C1360 C1361 1.400 . S
C1361 C1355 1.491 . S
C1361 C1360 1.400 . S
C1361 C1362 1.398 . S
C1362 H1350 0.950 . S
C1362 C1361 1.398 . S
C1362 C1363 1.391 . S
C1363 H1351 0.950 . S
C1363 C1359 1.393 . S
C1363 C1362 1.391 . S
H1364 C1372 0.950 . S
H1365 C1377 0.950 . S
H1366 C1374 0.950 . S
H1367 C1376 0.950 . S
H1368 C1378 0.950 . S
H1369 C1380 0.950 . S
H1370 C1382 0.950 . S
H1371 C1383 0.950 . S
C1372 H1364 0.950 . S
C1372 C1373 1.386 . S
C1372 C1374 1.391 . S
C1373 C1372 1.386 . S
C1373 C1377 1.393 . S
C1374 H1366 0.950 . S
C1374 C1372 1.391 . S
C1374 C1375 1.400 . S
C1375 C1374 1.400 . S
C1375 C1376 1.398 . S
C1375 C1381 1.491 . S
C1376 H1367 0.950 . S
C1376 C1375 1.398 . S
C1376 C1377 1.391 . S
C1377 H1365 0.950 . S
C1377 C1373 1.393 . S
C1377 C1376 1.391 . S
C1378 H1368 0.950 . S
C1378 C1379 1.386 . S
C1378 C1380 1.391 . S
C1379 C1378 1.386 . S
C1379 C1383 1.393 . S
C1380 H1369 0.950 . S
C1380 C1378 1.391 . S
C1380 C1381 1.400 . S
C1381 C1375 1.491 . S
C1381 C1380 1.400 . S
C1381 C1382 1.398 . S
C1382 H1370 0.950 . S
C1382 C1381 1.398 . S
C1382 C1383 1.391 . S
C1383 H1371 0.950 . S
C1383 C1379 1.393 . S
C1383 C1382 1.391 . S
H1384 C1392 0.950 . S
H1385 C1397 0.950 . S
H1386 C1394 0.950 . S
H1387 C1396 0.950 . S
H1388 C1398 0.950 . S
H1389 C1400 0.950 . S
H1390 C1402 0.950 . S
H1391 C1403 0.950 . S
C1392 H1384 0.950 . S
C1392 C1393 1.386 . S
C1392 C1394 1.391 . S
C1393 C1392 1.386 . S
C1393 C1397 1.393 . S
C1394 H1386 0.950 . S
C1394 C1392 1.391 . S
C1394 C1395 1.400 . S
C1395 C1394 1.400 . S
C1395 C1396 1.398 . S
C1395 C1401 1.491 . S
C1396 H1387 0.950 . S
C1396 C1395 1.398 . S
C1396 C1397 1.391 . S
C1397 H1385 0.950 . S
C1397 C1393 1.393 . S
C1397 C1396 1.391 . S
C1398 H1388 0.950 . S
C1398 C1399 1.386 . S
C1398 C1400 1.391 . S
C1399 C1398 1.386 . S
C1399 C1403 1.393 . S
C1400 H1389 0.950 . S
C1400 C1398 1.391 . S
C1400 C1401 1.400 . S
C1401 C1395 1.491 . S
C1401 C1400 1.400 . S
C1401 C1402 1.398 . S
C1402 H1390 0.950 . S
C1402 C1401 1.398 . S
C1402 C1403 1.391 . S
C1403 H1391 0.950 . S
C1403 C1399 1.393 . S
C1403 C1402 1.391 . S
H1404 C1412 0.950 1_554 S
H1405 C1417 0.950 . S
H1406 C1414 0.950 . S
H1407 C1416 0.950 . S
H1408 C1418 0.950 . S
H1409 C1420 0.950 . S
H1410 C1422 0.950 . S
H1411 C1423 0.950 . S
C1412 H1404 0.950 1_556 S
C1412 C1413 1.386 . S
C1412 C1414 1.391 . S
C1413 C1412 1.386 . S
C1413 C1417 1.393 . S
C1414 H1406 0.950 . S
C1414 C1412 1.391 . S
C1414 C1415 1.400 . S
C1415 C1414 1.400 . S
C1415 C1416 1.398 . S
C1415 C1421 1.491 . S
C1416 H1407 0.950 . S
C1416 C1415 1.398 . S
C1416 C1417 1.391 . S
C1417 H1405 0.950 . S
C1417 C1413 1.393 . S
C1417 C1416 1.391 . S
C1418 H1408 0.950 . S
C1418 C1419 1.386 . S
C1418 C1420 1.391 . S
C1419 C1418 1.386 . S
C1419 C1423 1.393 . S
C1420 H1409 0.950 . S
C1420 C1418 1.391 . S
C1420 C1421 1.400 . S
C1421 C1415 1.491 . S
C1421 C1420 1.400 . S
C1421 C1422 1.398 . S
C1422 H1410 0.950 . S
C1422 C1421 1.398 . S
C1422 C1423 1.391 . S
C1423 H1411 0.950 . S
C1423 C1419 1.393 . S
C1423 C1422 1.391 . S
H1424 C1432 0.950 . S
H1425 C1437 0.950 . S
H1426 C1434 0.950 . S
H1427 C1436 0.950 . S
H1428 C1438 0.950 . S
H1429 C1440 0.950 . S
H1430 C1442 0.950 . S
H1431 C1443 0.950 . S
C1432 H1424 0.950 . S
C1432 C1433 1.386 . S
C1432 C1434 1.391 . S
C1433 C1432 1.386 . S
C1433 C1437 1.393 . S
C1434 H1426 0.950 . S
C1434 C1432 1.391 . S
C1434 C1435 1.400 . S
C1435 C1434 1.400 . S
C1435 C1436 1.398 . S
C1435 C1441 1.491 . S
C1436 H1427 0.950 . S
C1436 C1435 1.398 . S
C1436 C1437 1.391 . S
C1437 H1425 0.950 . S
C1437 C1433 1.393 . S
C1437 C1436 1.391 . S
C1438 H1428 0.950 . S
C1438 C1439 1.386 . S
C1438 C1440 1.391 . S
C1439 C1438 1.386 . S
C1439 C1443 1.393 . S
C1440 H1429 0.950 . S
C1440 C1438 1.391 . S
C1440 C1441 1.400 . S
C1441 C1435 1.491 . S
C1441 C1440 1.400 . S
C1441 C1442 1.398 . S
C1442 H1430 0.950 . S
C1442 C1441 1.398 . S
C1442 C1443 1.391 . S
C1443 H1431 0.950 . S
C1443 C1439 1.393 . S
C1443 C1442 1.391 . S
H1444 C1452 0.950 . S
H1445 C1457 0.950 . S
H1446 C1454 0.950 . S
H1447 C1456 0.950 . S
H1448 C1458 0.950 . S
H1449 C1460 0.950 . S
H1450 C1462 0.950 . S
H1451 C1463 0.950 . S
C1452 H1444 0.950 . S
C1452 C1453 1.386 . S
C1452 C1454 1.391 . S
C1453 C1452 1.386 . S
C1453 C1457 1.393 . S
C1454 H1446 0.950 . S
C1454 C1452 1.391 . S
C1454 C1455 1.400 . S
C1455 C1454 1.400 . S
C1455 C1456 1.398 . S
C1455 C1461 1.491 . S
C1456 H1447 0.950 . S
C1456 C1455 1.398 . S
C1456 C1457 1.391 . S
C1457 H1445 0.950 . S
C1457 C1453 1.393 . S
C1457 C1456 1.391 . S
C1458 H1448 0.950 . S
C1458 C1459 1.386 . S
C1458 C1460 1.391 . S
C1459 C1458 1.386 . S
C1459 C1463 1.393 . S
C1460 H1449 0.950 . S
C1460 C1458 1.391 . S
C1460 C1461 1.400 . S
C1461 C1455 1.491 . S
C1461 C1460 1.400 . S
C1461 C1462 1.398 . S
C1462 H1450 0.950 . S
C1462 C1461 1.398 . S
C1462 C1463 1.391 . S
C1463 H1451 0.950 . S
C1463 C1459 1.393 . S
C1463 C1462 1.391 . S
H1464 C1472 0.950 . S
H1465 C1477 0.950 . S
H1466 C1474 0.950 . S
H1467 C1476 0.950 . S
H1468 C1478 0.950 . S
H1469 C1480 0.950 . S
H1470 C1482 0.950 . S
H1471 C1483 0.950 . S
C1472 H1464 0.950 . S
C1472 C1473 1.386 . S
C1472 C1474 1.391 . S
C1473 C1472 1.386 . S
C1473 C1477 1.393 . S
C1474 H1466 0.950 . S
C1474 C1472 1.391 . S
C1474 C1475 1.400 . S
C1475 C1474 1.400 . S
C1475 C1476 1.398 . S
C1475 C1481 1.491 . S
C1476 H1467 0.950 . S
C1476 C1475 1.398 . S
C1476 C1477 1.391 . S
C1477 H1465 0.950 . S
C1477 C1473 1.393 . S
C1477 C1476 1.391 . S
C1478 H1468 0.950 . S
C1478 C1479 1.386 . S
C1478 C1480 1.391 . S
C1479 C1478 1.386 . S
C1479 C1483 1.393 . S
C1480 H1469 0.950 . S
C1480 C1478 1.391 . S
C1480 C1481 1.400 . S
C1481 C1475 1.491 . S
C1481 C1480 1.400 . S
C1481 C1482 1.398 . S
C1482 H1470 0.950 . S
C1482 C1481 1.398 . S
C1482 C1483 1.391 . S
C1483 H1471 0.950 . S
C1483 C1479 1.393 . S
C1483 C1482 1.391 . S
H1484 C1492 0.950 . S
H1485 C1497 0.950 . S
H1486 C1494 0.950 . S
H1487 C1496 0.950 . S
H1488 C1498 0.950 . S
H1489 C1500 0.950 . S
H1490 C1502 0.950 . S
H1491 C1503 0.950 . S
C1492 H1484 0.950 . S
C1492 C1493 1.386 . S
C1492 C1494 1.391 . S
C1493 C1492 1.386 . S
C1493 C1497 1.393 . S
C1494 H1486 0.950 . S
C1494 C1492 1.391 . S
C1494 C1495 1.400 . S
C1495 C1494 1.400 . S
C1495 C1496 1.398 . S
C1495 C1501 1.491 . S
C1496 H1487 0.950 . S
C1496 C1495 1.398 . S
C1496 C1497 1.391 . S
C1497 H1485 0.950 . S
C1497 C1493 1.393 . S
C1497 C1496 1.391 . S
C1498 H1488 0.950 . S
C1498 C1499 1.386 . S
C1498 C1500 1.391 . S
C1499 C1498 1.386 . S
C1499 C1503 1.393 . S
C1500 H1489 0.950 . S
C1500 C1498 1.391 . S
C1500 C1501 1.400 . S
C1501 C1495 1.491 . S
C1501 C1500 1.400 . S
C1501 C1502 1.398 . S
C1502 H1490 0.950 . S
C1502 C1501 1.398 . S
C1502 C1503 1.391 . S
C1503 H1491 0.950 . S
C1503 C1499 1.393 . S
C1503 C1502 1.391 . S
H1504 C1512 0.950 . S
H1505 C1517 0.950 . S
H1506 C1514 0.950 . S
H1507 C1516 0.950 . S
H1508 C1518 0.950 . S
H1509 C1520 0.950 . S
H1510 C1522 0.950 . S
H1511 C1523 0.950 1_455 S
C1512 H1504 0.950 . S
C1512 C1513 1.386 . S
C1512 C1514 1.391 . S
C1513 C1512 1.386 . S
C1513 C1517 1.393 . S
C1514 H1506 0.950 . S
C1514 C1512 1.391 . S
C1514 C1515 1.400 . S
C1515 C1514 1.400 . S
C1515 C1516 1.398 . S
C1515 C1521 1.491 . S
C1516 H1507 0.950 . S
C1516 C1515 1.398 . S
C1516 C1517 1.391 . S
C1517 H1505 0.950 . S
C1517 C1513 1.393 . S
C1517 C1516 1.391 . S
C1518 H1508 0.950 . S
C1518 C1519 1.386 . S
C1518 C1520 1.391 . S
C1519 C1518 1.386 . S
C1519 C1523 1.393 . S
C1520 H1509 0.950 . S
C1520 C1518 1.391 . S
C1520 C1521 1.400 . S
C1521 C1515 1.491 . S
C1521 C1520 1.400 . S
C1521 C1522 1.398 . S
C1522 H1510 0.950 . S
C1522 C1521 1.398 . S
C1522 C1523 1.391 . S
C1523 H1511 0.950 1_655 S
C1523 C1519 1.393 . S
C1523 C1522 1.391 . S
H1524 C1532 0.950 . S
H1525 C1537 0.950 . S
H1526 C1534 0.950 . S
H1527 C1536 0.950 . S
H1528 C1538 0.950 . S
H1529 C1540 0.950 . S
H1530 C1542 0.950 . S
H1531 C1543 0.950 . S
C1532 H1524 0.950 . S
C1532 C1533 1.386 . S
C1532 C1534 1.391 . S
C1533 C1532 1.386 . S
C1533 C1537 1.393 . S
C1534 H1526 0.950 . S
C1534 C1532 1.391 . S
C1534 C1535 1.400 . S
C1535 C1534 1.400 . S
C1535 C1536 1.398 . S
C1535 C1541 1.491 . S
C1536 H1527 0.950 . S
C1536 C1535 1.398 . S
C1536 C1537 1.391 . S
C1537 H1525 0.950 . S
C1537 C1533 1.393 . S
C1537 C1536 1.391 . S
C1538 H1528 0.950 . S
C1538 C1539 1.386 . S
C1538 C1540 1.391 . S
C1539 C1538 1.386 . S
C1539 C1543 1.393 . S
C1540 H1529 0.950 . S
C1540 C1538 1.391 . S
C1540 C1541 1.400 . S
C1541 C1535 1.491 . S
C1541 C1540 1.400 . S
C1541 C1542 1.398 . S
C1542 H1530 0.950 . S
C1542 C1541 1.398 . S
C1542 C1543 1.391 . S
C1543 H1531 0.950 . S
C1543 C1539 1.393 . S
C1543 C1542 1.391 . S
H1544 C1552 0.950 . S
H1545 C1557 0.950 . S
H1546 C1554 0.950 . S
H1547 C1556 0.950 . S
H1548 C1558 0.950 . S
H1549 C1560 0.950 . S
H1550 C1562 0.950 . S
H1551 C1563 0.950 . S
C1552 H1544 0.950 . S
C1552 C1553 1.386 . S
C1552 C1554 1.391 . S
C1553 C1552 1.386 . S
C1553 C1557 1.393 . S
C1554 H1546 0.950 . S
C1554 C1552 1.391 . S
C1554 C1555 1.400 . S
C1555 C1554 1.400 . S
C1555 C1556 1.398 . S
C1555 C1561 1.491 . S
C1556 H1547 0.950 . S
C1556 C1555 1.398 . S
C1556 C1557 1.391 . S
C1557 H1545 0.950 . S
C1557 C1553 1.393 . S
C1557 C1556 1.391 . S
C1558 H1548 0.950 . S
C1558 C1559 1.386 . S
C1558 C1560 1.391 . S
C1559 C1558 1.386 . S
C1559 C1563 1.393 . S
C1560 H1549 0.950 . S
C1560 C1558 1.391 . S
C1560 C1561 1.400 . S
C1561 C1555 1.491 . S
C1561 C1560 1.400 . S
C1561 C1562 1.398 . S
C1562 H1550 0.950 . S
C1562 C1561 1.398 . S
C1562 C1563 1.391 . S
C1563 H1551 0.950 . S
C1563 C1559 1.393 . S
C1563 C1562 1.391 . S
H1564 C1572 0.950 . S
H1565 C1577 0.950 . S
H1566 C1574 0.950 . S
H1567 C1576 0.950 . S
H1568 C1578 0.950 . S
H1569 C1580 0.950 . S
H1570 C1582 0.950 . S
H1571 C1583 0.950 1_545 S
C1572 H1564 0.950 . S
C1572 C1573 1.386 . S
C1572 C1574 1.391 . S
C1573 C1572 1.386 . S
C1573 C1577 1.393 . S
C1574 H1566 0.950 . S
C1574 C1572 1.391 . S
C1574 C1575 1.400 . S
C1575 C1574 1.400 . S
C1575 C1576 1.398 . S
C1575 C1581 1.491 . S
C1576 H1567 0.950 . S
C1576 C1575 1.398 . S
C1576 C1577 1.391 . S
C1577 H1565 0.950 . S
C1577 C1573 1.393 . S
C1577 C1576 1.391 . S
C1578 H1568 0.950 . S
C1578 C1579 1.386 . S
C1578 C1580 1.391 . S
C1579 C1578 1.386 . S
C1579 C1583 1.393 . S
C1580 H1569 0.950 . S
C1580 C1578 1.391 . S
C1580 C1581 1.400 . S
C1581 C1575 1.491 . S
C1581 C1580 1.400 . S
C1581 C1582 1.398 . S
C1582 H1570 0.950 . S
C1582 C1581 1.398 . S
C1582 C1583 1.391 . S
C1583 H1571 0.950 1_565 S
C1583 C1579 1.393 . S
C1583 C1582 1.391 . S
H1584 C1592 0.950 . S
H1585 C1597 0.950 . S
H1586 C1594 0.950 . S
H1587 C1596 0.950 . S
H1588 C1598 0.950 . S
H1589 C1600 0.950 . S
H1590 C1602 0.950 . S
H1591 C1603 0.950 . S
C1592 H1584 0.950 . S
C1592 C1593 1.386 . S
C1592 C1594 1.391 . S
C1593 C1592 1.386 . S
C1593 C1597 1.393 . S
C1594 H1586 0.950 . S
C1594 C1592 1.391 . S
C1594 C1595 1.400 . S
C1595 C1594 1.400 . S
C1595 C1596 1.398 . S
C1595 C1601 1.491 . S
C1596 H1587 0.950 . S
C1596 C1595 1.398 . S
C1596 C1597 1.391 . S
C1597 H1585 0.950 . S
C1597 C1593 1.393 . S
C1597 C1596 1.391 . S
C1598 H1588 0.950 . S
C1598 C1599 1.386 . S
C1598 C1600 1.391 . S
C1599 C1598 1.386 . S
C1599 C1603 1.393 . S
C1600 H1589 0.950 . S
C1600 C1598 1.391 . S
C1600 C1601 1.400 . S
C1601 C1595 1.491 . S
C1601 C1600 1.400 . S
C1601 C1602 1.398 . S
C1602 H1590 0.950 . S
C1602 C1601 1.398 . S
C1602 C1603 1.391 . S
C1603 H1591 0.950 . S
C1603 C1599 1.393 . S
C1603 C1602 1.391 . S
H1604 C1612 0.951 . S
H1605 C1617 0.950 . S
H1606 C1614 0.950 . S
H1607 C1616 0.950 . S
H1608 C1618 0.950 . S
H1609 C1620 0.950 . S
H1610 C1622 0.950 . S
H1611 C1623 0.950 . S
C1612 H1604 0.951 . S
C1612 C1613 1.390 . S
C1612 C1614 1.386 1_545 S
C1613 C1612 1.390 . S
C1613 C1617 1.393 . S
C1614 H1606 0.950 . S
C1614 C1612 1.386 1_565 S
C1614 C1615 1.400 . S
C1615 C1614 1.400 . S
C1615 C1616 1.398 . S
C1615 C1621 1.491 . S
C1616 H1607 0.950 . S
C1616 C1615 1.398 . S
C1616 C1617 1.391 1_565 S
C1617 H1605 0.950 . S
C1617 C1613 1.393 . S
C1617 C1616 1.391 1_545 S
C1618 H1608 0.950 . S
C1618 C1619 1.386 . S
C1618 C1620 1.391 . S
C1619 C1618 1.386 . S
C1619 C1623 1.393 . S
C1620 H1609 0.950 . S
C1620 C1618 1.391 . S
C1620 C1621 1.400 . S
C1621 C1615 1.491 . S
C1621 C1620 1.400 . S
C1621 C1622 1.398 . S
C1622 H1610 0.950 . S
C1622 C1621 1.398 . S
C1622 C1623 1.391 . S
C1623 H1611 0.950 . S
C1623 C1619 1.393 . S
C1623 C1622 1.391 . S
H1624 C1632 0.950 . S
H1625 C1637 0.950 . S
H1626 C1634 0.950 . S
H1627 C1636 0.950 . S
H1628 C1638 0.950 . S
H1629 C1640 0.950 . S
H1630 C1642 0.950 . S
H1631 C1643 0.950 . S
C1632 H1624 0.950 . S
C1632 C1633 1.386 . S
C1632 C1634 1.391 . S
C1633 C1632 1.386 . S
C1633 C1637 1.393 . S
C1634 H1626 0.950 . S
C1634 C1632 1.391 . S
C1634 C1635 1.400 . S
C1635 C1634 1.400 . S
C1635 C1636 1.398 . S
C1635 C1641 1.491 . S
C1636 H1627 0.950 . S
C1636 C1635 1.398 . S
C1636 C1637 1.391 . S
C1637 H1625 0.950 . S
C1637 C1633 1.393 . S
C1637 C1636 1.391 . S
C1638 H1628 0.950 . S
C1638 C1639 1.386 . S
C1638 C1640 1.391 . S
C1639 C1638 1.386 . S
C1639 C1643 1.393 . S
C1640 H1629 0.950 . S
C1640 C1638 1.391 . S
C1640 C1641 1.400 . S
C1641 C1635 1.491 . S
C1641 C1640 1.400 . S
C1641 C1642 1.398 . S
C1642 H1630 0.950 . S
C1642 C1641 1.398 . S
C1642 C1643 1.391 . S
C1643 H1631 0.950 . S
C1643 C1639 1.393 . S
C1643 C1642 1.391 . S
H1644 C1652 0.950 . S
H1645 C1657 0.950 . S
H1646 C1654 0.950 . S
H1647 C1656 0.950 . S
H1648 C1658 0.950 . S
H1649 C1660 0.971 . S
H1650 C1662 0.950 . S
H1651 C1663 0.950 . S
C1652 H1644 0.950 . S
C1652 C1653 1.386 1_545 S
C1652 C1654 1.391 . S
C1653 C1652 1.386 1_565 S
C1653 C1657 1.393 . S
C1654 H1646 0.950 . S
C1654 C1652 1.391 . S
C1654 C1655 1.400 1_556 S
C1655 C1654 1.400 1_554 S
C1655 C1656 1.398 1_545 S
C1655 C1661 1.491 . S
C1656 H1647 0.950 . S
C1656 C1655 1.398 1_565 S
C1656 C1657 1.391 1_554 S
C1657 H1645 0.950 . S
C1657 C1653 1.393 . S
C1657 C1656 1.391 1_556 S
C1658 H1648 0.950 . S
C1658 C1659 1.386 . S
C1658 C1660 1.391 . S
C1659 C1658 1.386 . S
C1659 C1663 1.393 . S
C1660 H1649 0.971 . S
C1660 C1658 1.391 . S
C1660 C1661 1.400 . S
C1661 C1655 1.491 . S
C1661 C1660 1.400 . S
C1661 C1662 1.398 . S
C1662 H1650 0.950 . S
C1662 C1661 1.398 . S
C1662 C1663 1.391 . S
C1663 H1651 0.950 . S
C1663 C1659 1.393 . S
C1663 C1662 1.391 . S
H1664 C1672 0.950 . S
H1665 C1677 0.950 . S
H1666 C1674 0.950 . S
H1667 C1676 0.950 . S
H1668 C1678 0.950 . S
H1669 C1680 0.950 . S
H1670 C1682 0.950 . S
H1671 C1683 0.950 . S
C1672 H1664 0.950 . S
C1672 C1673 1.386 . S
C1672 C1674 1.391 . S
C1673 C1672 1.386 . S
C1673 C1677 1.393 . S
C1674 H1666 0.950 . S
C1674 C1672 1.391 . S
C1674 C1675 1.400 . S
C1675 C1674 1.400 . S
C1675 C1676 1.398 . S
C1675 C1681 1.491 . S
C1676 H1667 0.950 . S
C1676 C1675 1.398 . S
C1676 C1677 1.391 . S
C1677 H1665 0.950 . S
C1677 C1673 1.393 . S
C1677 C1676 1.391 . S
C1678 H1668 0.950 . S
C1678 C1679 1.386 . S
C1678 C1680 1.391 . S
C1679 C1678 1.386 . S
C1679 C1683 1.393 . S
C1680 H1669 0.950 . S
C1680 C1678 1.391 . S
C1680 C1681 1.400 . S
C1681 C1675 1.491 . S
C1681 C1680 1.400 . S
C1681 C1682 1.398 . S
C1682 H1670 0.950 . S
C1682 C1681 1.398 . S
C1682 C1683 1.391 . S
C1683 H1671 0.950 . S
C1683 C1679 1.393 . S
C1683 C1682 1.391 . S
H1684 C1692 0.950 . S
H1685 C1697 0.950 . S
H1686 C1694 0.950 . S
H1687 C1696 0.950 . S
H1688 C1698 0.950 . S
H1689 C1700 0.950 . S
H1690 C1702 0.958 . S
H1691 C1703 0.950 . S
C1692 H1684 0.950 . S
C1692 C1693 1.386 . S
C1692 C1694 1.391 . S
C1693 C1692 1.386 . S
C1693 C1697 1.393 1_545 S
C1694 H1686 0.950 . S
C1694 C1692 1.391 . S
C1694 C1695 1.400 1_545 S
C1695 C1694 1.400 1_565 S
C1695 C1696 1.398 . S
C1695 C1701 1.491 . S
C1696 H1687 0.950 . S
C1696 C1695 1.398 . S
C1696 C1697 1.391 . S
C1697 H1685 0.950 . S
C1697 C1693 1.393 1_565 S
C1697 C1696 1.391 . S
C1698 H1688 0.950 . S
C1698 C1699 1.386 . S
C1698 C1700 1.391 . S
C1699 C1698 1.386 . S
C1699 C1703 1.393 . S
C1700 H1689 0.950 . S
C1700 C1698 1.391 . S
C1700 C1701 1.400 . S
C1701 C1695 1.491 . S
C1701 C1700 1.400 . S
C1701 C1702 1.398 . S
C1702 H1690 0.958 . S
C1702 C1701 1.398 . S
C1702 C1703 1.391 . S
C1703 H1691 0.950 . S
C1703 C1699 1.393 . S
C1703 C1702 1.391 . S
H1704 C1712 0.950 . S
H1705 C1717 0.950 . S
H1706 C1714 0.950 . S
H1707 C1716 0.950 . S
H1708 C1718 0.950 . S
H1709 C1720 0.950 . S
H1710 C1722 0.950 . S
H1711 C1723 0.950 . S
C1712 H1704 0.950 . S
C1712 C1713 1.386 . S
C1712 C1714 1.391 . S
C1713 C1712 1.386 . S
C1713 C1717 1.393 . S
C1714 H1706 0.950 . S
C1714 C1712 1.391 . S
C1714 C1715 1.400 . S
C1715 C1714 1.400 . S
C1715 C1716 1.398 . S
C1715 C1721 1.491 . S
C1716 H1707 0.950 . S
C1716 C1715 1.398 . S
C1716 C1717 1.391 . S
C1717 H1705 0.950 . S
C1717 C1713 1.393 . S
C1717 C1716 1.391 . S
C1718 H1708 0.950 . S
C1718 C1719 1.386 . S
C1718 C1720 1.391 . S
C1719 C1718 1.386 . S
C1719 C1723 1.393 . S
C1720 H1709 0.950 . S
C1720 C1718 1.391 . S
C1720 C1721 1.400 . S
C1721 C1715 1.491 . S
C1721 C1720 1.400 . S
C1721 C1722 1.398 . S
C1722 H1710 0.950 . S
C1722 C1721 1.398 . S
C1722 C1723 1.391 . S
C1723 H1711 0.950 . S
C1723 C1719 1.393 . S
C1723 C1722 1.391 . S
H1724 C1732 0.950 . S
H1725 C1737 0.950 . S
H1726 C1734 0.950 1_556 S
H1727 C1736 0.950 . S
H1728 C1738 0.950 . S
H1729 C1740 0.950 1_565 S
H1730 C1742 0.950 . S
H1731 C1743 0.950 . S
C1732 H1724 0.950 . S
C1732 C1733 1.386 1_545 S
C1732 C1734 1.391 . S
C1733 C1732 1.386 1_565 S
C1733 C1737 1.393 . S
C1734 H1726 0.950 1_554 S
C1734 C1732 1.391 . S
C1734 C1735 1.400 1_554 S
C1735 C1734 1.400 1_556 S
C1735 C1736 1.398 1_545 S
C1735 C1741 1.491 . S
C1736 H1727 0.950 . S
C1736 C1735 1.398 1_565 S
C1736 C1737 1.391 1_556 S
C1737 H1725 0.950 . S
C1737 C1733 1.393 . S
C1737 C1736 1.391 1_554 S
C1738 H1728 0.950 . S
C1738 C1739 1.386 . S
C1738 C1740 1.391 . S
C1739 C1738 1.386 . S
C1739 C1743 1.393 . S
C1740 H1729 0.950 1_545 S
C1740 C1738 1.391 . S
C1740 C1741 1.400 . S
C1741 C1735 1.491 . S
C1741 C1740 1.400 . S
C1741 C1742 1.398 . S
C1742 H1730 0.950 . S
C1742 C1741 1.398 . S
C1742 C1743 1.391 . S
C1743 H1731 0.950 . S
C1743 C1739 1.393 . S
C1743 C1742 1.391 . S
H1744 C1752 0.950 . S
H1745 C1757 0.950 . S
H1746 C1754 0.950 . S
H1747 C1756 0.950 . S
H1748 C1758 0.950 . S
H1749 C1760 0.950 . S
H1750 C1762 0.950 . S
H1751 C1763 0.950 . S
C1752 H1744 0.950 . S
C1752 C1753 1.386 . S
C1752 C1754 1.391 . S
C1753 C1752 1.386 . S
C1753 C1757 1.393 . S
C1754 H1746 0.950 . S
C1754 C1752 1.391 . S
C1754 C1755 1.400 . S
C1755 C1754 1.400 . S
C1755 C1756 1.398 . S
C1755 C1761 1.491 . S
C1756 H1747 0.950 . S
C1756 C1755 1.398 . S
C1756 C1757 1.391 . S
C1757 H1745 0.950 . S
C1757 C1753 1.393 . S
C1757 C1756 1.391 . S
C1758 H1748 0.950 . S
C1758 C1759 1.386 . S
C1758 C1760 1.391 . S
C1759 C1758 1.386 . S
C1759 C1763 1.393 . S
C1760 H1749 0.950 . S
C1760 C1758 1.391 . S
C1760 C1761 1.400 . S
C1761 C1755 1.491 . S
C1761 C1760 1.400 . S
C1761 C1762 1.398 . S
C1762 H1750 0.950 . S
C1762 C1761 1.398 . S
C1762 C1763 1.391 . S
C1763 H1751 0.950 . S
C1763 C1759 1.393 . S
C1763 C1762 1.391 . S
H1764 C1772 0.950 . S
H1765 C1777 0.950 . S
H1766 C1774 0.942 1_545 S
H1767 C1776 0.950 . S
H1768 C1778 0.950 . S
H1769 C1780 0.950 . S
H1770 C1782 0.950 . S
H1771 C1783 0.950 . S
C1772 H1764 0.950 . S
C1772 C1773 1.386 . S
C1772 C1774 1.433 1_655 S
C1773 C1772 1.386 . S
C1773 C1777 1.371 1_655 S
C1774 H1766 0.942 1_565 S
C1774 C1772 1.433 1_455 S
C1774 C1775 1.368 1_565 S
C1775 C1774 1.368 1_545 S
C1775 C1776 1.398 . S
C1775 C1781 1.491 . S
C1776 H1767 0.950 . S
C1776 C1775 1.398 . S
C1776 C1777 1.415 1_545 S
C1777 H1765 0.950 . S
C1777 C1773 1.371 1_455 S
C1777 C1776 1.415 1_565 S
C1778 H1768 0.950 . S
C1778 C1779 1.386 . S
C1778 C1780 1.391 . S
C1779 C1778 1.386 . S
C1779 C1783 1.393 . S
C1780 H1769 0.950 . S
C1780 C1778 1.391 . S
C1780 C1781 1.400 . S
C1781 C1775 1.491 . S
C1781 C1780 1.400 . S
C1781 C1782 1.398 . S
C1782 H1770 0.950 . S
C1782 C1781 1.398 . S
C1782 C1783 1.391 . S
C1783 H1771 0.950 . S
C1783 C1779 1.393 . S
C1783 C1782 1.391 . S
H1784 C1792 0.950 . S
H1785 C1797 0.950 . S
H1786 C1794 0.950 . S
H1787 C1796 0.950 . S
H1788 C1798 0.950 . S
H1789 C1800 0.950 . S
H1790 C1802 0.950 . S
H1791 C1803 0.950 . S
C1792 H1784 0.950 . S
C1792 C1793 1.386 . S
C1792 C1794 1.391 . S
C1793 C1792 1.386 . S
C1793 C1797 1.393 . S
C1794 H1786 0.950 . S
C1794 C1792 1.391 . S
C1794 C1795 1.400 . S
C1795 C1794 1.400 . S
C1795 C1796 1.398 . S
C1795 C1801 1.491 . S
C1796 H1787 0.950 . S
C1796 C1795 1.398 . S
C1796 C1797 1.391 . S
C1797 H1785 0.950 . S
C1797 C1793 1.393 . S
C1797 C1796 1.391 . S
C1798 H1788 0.950 . S
C1798 C1799 1.386 . S
C1798 C1800 1.391 . S
C1799 C1798 1.386 . S
C1799 C1803 1.393 . S
C1800 H1789 0.950 . S
C1800 C1798 1.391 . S
C1800 C1801 1.400 . S
C1801 C1795 1.491 . S
C1801 C1800 1.400 . S
C1801 C1802 1.398 . S
C1802 H1790 0.950 . S
C1802 C1801 1.398 . S
C1802 C1803 1.391 . S
C1803 H1791 0.950 . S
C1803 C1799 1.393 . S
C1803 C1802 1.391 . S
H1804 C1812 0.950 . S
H1805 C1817 0.950 . S
H1806 C1814 0.950 . S
H1807 C1816 0.950 . S
H1808 C1818 0.950 . S
H1809 C1820 0.950 . S
H1810 C1822 0.950 . S
H1811 C1823 0.950 . S
C1812 H1804 0.950 . S
C1812 C1813 1.386 . S
C1812 C1814 1.391 1_545 S
C1813 C1812 1.386 . S
C1813 C1817 1.393 . S
C1814 H1806 0.950 . S
C1814 C1812 1.391 1_565 S
C1814 C1815 1.400 . S
C1815 C1814 1.400 . S
C1815 C1816 1.398 . S
C1815 C1821 1.491 . S
C1816 H1807 0.950 . S
C1816 C1815 1.398 . S
C1816 C1817 1.391 1_565 S
C1817 H1805 0.950 . S
C1817 C1813 1.393 . S
C1817 C1816 1.391 1_545 S
C1818 H1808 0.950 . S
C1818 C1819 1.386 . S
C1818 C1820 1.391 . S
C1819 C1818 1.386 . S
C1819 C1823 1.393 . S
C1820 H1809 0.950 . S
C1820 C1818 1.391 . S
C1820 C1821 1.400 . S
C1821 C1815 1.491 . S
C1821 C1820 1.400 . S
C1821 C1822 1.398 . S
C1822 H1810 0.950 . S
C1822 C1821 1.398 . S
C1822 C1823 1.391 . S
C1823 H1811 0.950 . S
C1823 C1819 1.393 . S
C1823 C1822 1.391 . S
H1824 C1832 0.950 . S
H1825 C1837 0.950 . S
H1826 C1834 0.950 . S
H1827 C1836 0.950 . S
H1828 C1838 0.950 . S
H1829 C1840 0.950 . S
H1830 C1842 0.950 . S
H1831 C1843 0.950 . S
C1832 H1824 0.950 . S
C1832 C1833 1.386 . S
C1832 C1834 1.391 . S
C1833 C1832 1.386 . S
C1833 C1837 1.393 . S
C1834 H1826 0.950 . S
C1834 C1832 1.391 . S
C1834 C1835 1.400 . S
C1835 C1834 1.400 . S
C1835 C1836 1.398 . S
C1835 C1841 1.491 . S
C1836 H1827 0.950 . S
C1836 C1835 1.398 . S
C1836 C1837 1.391 . S
C1837 H1825 0.950 . S
C1837 C1833 1.393 . S
C1837 C1836 1.391 . S
C1838 H1828 0.950 . S
C1838 C1839 1.386 . S
C1838 C1840 1.391 . S
C1839 C1838 1.386 . S
C1839 C1843 1.393 . S
C1840 H1829 0.950 . S
C1840 C1838 1.391 . S
C1840 C1841 1.400 . S
C1841 C1835 1.491 . S
C1841 C1840 1.400 . S
C1841 C1842 1.398 . S
C1842 H1830 0.950 . S
C1842 C1841 1.398 . S
C1842 C1843 1.391 . S
C1843 H1831 0.950 . S
C1843 C1839 1.393 . S
C1843 C1842 1.391 . S
H1844 C1852 0.950 . S
H1845 C1857 0.950 . S
H1846 C1854 0.950 . S
H1847 C1856 0.950 . S
H1848 C1858 0.950 . S
H1849 C1860 0.950 . S
H1850 C1862 0.950 . S
H1851 C1863 0.950 . S
C1852 H1844 0.950 . S
C1852 C1853 1.386 . S
C1852 C1854 1.391 . S
C1853 C1852 1.386 . S
C1853 C1857 1.393 . S
C1854 H1846 0.950 . S
C1854 C1852 1.391 . S
C1854 C1855 1.400 1_565 S
C1855 C1854 1.400 1_545 S
C1855 C1856 1.398 . S
C1855 C1861 1.491 . S
C1856 H1847 0.950 . S
C1856 C1855 1.398 . S
C1856 C1857 1.391 1_545 S
C1857 H1845 0.950 . S
C1857 C1853 1.393 . S
C1857 C1856 1.391 1_565 S
C1858 H1848 0.950 . S
C1858 C1859 1.386 . S
C1858 C1860 1.391 . S
C1859 C1858 1.386 . S
C1859 C1863 1.393 . S
C1860 H1849 0.950 . S
C1860 C1858 1.391 . S
C1860 C1861 1.400 . S
C1861 C1855 1.491 . S
C1861 C1860 1.400 . S
C1861 C1862 1.398 . S
C1862 H1850 0.950 . S
C1862 C1861 1.398 . S
C1862 C1863 1.391 . S
C1863 H1851 0.950 . S
C1863 C1859 1.393 . S
C1863 C1862 1.391 . S
H1864 C1872 0.950 . S
H1865 C1877 0.950 . S
H1866 C1874 0.950 . S
H1867 C1876 0.950 . S
H1868 C1878 0.950 . S
H1869 C1880 0.950 . S
H1870 C1882 0.950 . S
H1871 C1883 0.950 . S
C1872 H1864 0.950 . S
C1872 C1873 1.386 . S
C1872 C1874 1.391 . S
C1873 C1872 1.386 . S
C1873 C1877 1.393 . S
C1874 H1866 0.950 . S
C1874 C1872 1.391 . S
C1874 C1875 1.400 . S
C1875 C1874 1.400 . S
C1875 C1876 1.398 . S
C1875 C1881 1.491 . S
C1876 H1867 0.950 . S
C1876 C1875 1.398 . S
C1876 C1877 1.391 . S
C1877 H1865 0.950 . S
C1877 C1873 1.393 . S
C1877 C1876 1.391 . S
C1878 H1868 0.950 . S
C1878 C1879 1.386 . S
C1878 C1880 1.391 . S
C1879 C1878 1.386 . S
C1879 C1883 1.393 . S
C1880 H1869 0.950 . S
C1880 C1878 1.391 . S
C1880 C1881 1.400 . S
C1881 C1875 1.491 . S
C1881 C1880 1.400 . S
C1881 C1882 1.398 . S
C1882 H1870 0.950 . S
C1882 C1881 1.398 . S
C1882 C1883 1.391 . S
C1883 H1871 0.950 . S
C1883 C1879 1.393 . S
C1883 C1882 1.391 . S
H1884 C1892 0.950 . S
H1885 C1897 0.950 . S
H1886 C1894 0.950 1_655 S
H1887 C1896 0.950 . S
H1888 C1898 0.950 . S
H1889 C1900 0.950 . S
H1890 C1902 0.950 . S
H1891 C1903 0.950 . S
C1892 H1884 0.950 . S
C1892 C1893 1.386 . S
C1892 C1894 1.391 . S
C1893 C1892 1.386 . S
C1893 C1897 1.393 . S
C1894 H1886 0.950 1_455 S
C1894 C1892 1.391 . S
C1894 C1895 1.400 . S
C1895 C1894 1.400 . S
C1895 C1896 1.398 . S
C1895 C1901 1.491 . S
C1896 H1887 0.950 . S
C1896 C1895 1.398 . S
C1896 C1897 1.391 . S
C1897 H1885 0.950 . S
C1897 C1893 1.393 . S
C1897 C1896 1.391 . S
C1898 H1888 0.950 . S
C1898 C1899 1.386 1_455 S
C1898 C1900 1.391 1_545 S
C1899 C1898 1.386 1_655 S
C1899 C1903 1.393 . S
C1900 H1889 0.950 . S
C1900 C1898 1.391 1_565 S
C1900 C1901 1.400 . S
C1901 C1895 1.491 . S
C1901 C1900 1.400 . S
C1901 C1902 1.398 1_455 S
C1902 H1890 0.950 . S
C1902 C1901 1.398 1_655 S
C1902 C1903 1.391 1_565 S
C1903 H1891 0.950 . S
C1903 C1899 1.393 . S
C1903 C1902 1.391 1_545 S
H1904 C1912 0.950 . S
H1905 C1917 0.950 . S
H1906 C1914 0.950 . S
H1907 C1916 0.950 . S
H1908 C1918 0.950 . S
H1909 C1920 0.950 . S
H1910 C1922 0.950 . S
H1911 C1923 0.950 . S
C1912 H1904 0.950 . S
C1912 C1913 1.386 . S
C1912 C1914 1.391 . S
C1913 C1912 1.386 . S
C1913 C1917 1.393 . S
C1914 H1906 0.950 . S
C1914 C1912 1.391 . S
C1914 C1915 1.400 . S
C1915 C1914 1.400 . S
C1915 C1916 1.398 . S
C1915 C1921 1.491 . S
C1916 H1907 0.950 . S
C1916 C1915 1.398 . S
C1916 C1917 1.391 . S
C1917 H1905 0.950 . S
C1917 C1913 1.393 . S
C1917 C1916 1.391 . S
C1918 H1908 0.950 . S
C1918 C1919 1.386 . S
C1918 C1920 1.391 . S
C1919 C1918 1.386 . S
C1919 C1923 1.393 . S
C1920 H1909 0.950 . S
C1920 C1918 1.391 . S
C1920 C1921 1.400 . S
C1921 C1915 1.491 . S
C1921 C1920 1.400 . S
C1921 C1922 1.398 . S
C1922 H1910 0.950 . S
C1922 C1921 1.398 . S
C1922 C1923 1.391 . S
C1923 H1911 0.950 . S
C1923 C1919 1.393 . S
C1923 C1922 1.391 . S
H1924 C1932 0.950 . S
H1925 C1937 0.950 . S
H1926 C1934 0.950 . S
H1927 C1936 0.950 . S
H1928 C1938 0.950 . S
H1929 C1940 0.950 . S
H1930 C1942 0.950 . S
H1931 C1943 0.950 . S
C1932 H1924 0.950 . S
C1932 C1933 1.386 . S
C1932 C1934 1.391 . S
C1933 C1932 1.386 . S
C1933 C1937 1.393 . S
C1934 H1926 0.950 . S
C1934 C1932 1.391 . S
C1934 C1935 1.400 . S
C1935 C1934 1.400 . S
C1935 C1936 1.398 . S
C1935 C1941 1.491 . S
C1936 H1927 0.950 . S
C1936 C1935 1.398 . S
C1936 C1937 1.391 . S
C1937 H1925 0.950 . S
C1937 C1933 1.393 . S
C1937 C1936 1.391 . S
C1938 H1928 0.950 . S
C1938 C1939 1.386 . S
C1938 C1940 1.391 . S
C1939 C1938 1.386 . S
C1939 C1943 1.393 . S
C1940 H1929 0.950 . S
C1940 C1938 1.391 . S
C1940 C1941 1.400 . S
C1941 C1935 1.491 . S
C1941 C1940 1.400 . S
C1941 C1942 1.398 . S
C1942 H1930 0.950 . S
C1942 C1941 1.398 . S
C1942 C1943 1.391 . S
C1943 H1931 0.950 . S
C1943 C1939 1.393 . S
C1943 C1942 1.391 . S
H1944 C1952 0.950 . S
H1945 C1957 0.950 . S
H1946 C1954 0.964 . S
H1947 C1956 0.950 . S
H1948 C1958 0.950 . S
H1949 C1960 0.950 . S
H1950 C1962 0.950 . S
H1951 C1963 0.950 . S
C1952 H1944 0.950 . S
C1952 C1953 1.386 . S
C1952 C1954 1.348 1_655 S
C1953 C1952 1.386 . S
C1953 C1957 1.393 1_556 S
C1954 H1946 0.964 . S
C1954 C1952 1.348 1_455 S
C1954 C1955 1.431 1_556 S
C1955 C1954 1.431 1_554 S
C1955 C1956 1.398 . S
C1955 C1961 1.491 . S
C1956 H1947 0.950 . S
C1956 C1955 1.398 . S
C1956 C1957 1.391 1_455 S
C1957 H1945 0.950 . S
C1957 C1953 1.393 1_554 S
C1957 C1956 1.391 1_655 S
C1958 H1948 0.950 . S
C1958 C1959 1.386 . S
C1958 C1960 1.391 . S
C1959 C1958 1.386 . S
C1959 C1963 1.393 . S
C1960 H1949 0.950 . S
C1960 C1958 1.391 . S
C1960 C1961 1.400 . S
C1961 C1955 1.491 . S
C1961 C1960 1.400 . S
C1961 C1962 1.398 . S
C1962 H1950 0.950 . S
C1962 C1961 1.398 . S
C1962 C1963 1.391 . S
C1963 H1951 0.950 . S
C1963 C1959 1.393 . S
C1963 C1962 1.391 . S
H1964 C1972 0.950 . S
H1965 C1977 0.950 . S
H1966 C1974 0.950 . S
H1967 C1976 0.950 . S
H1968 C1978 0.950 . S
H1969 C1980 0.950 . S
H1970 C1982 0.950 . S
H1971 C1983 0.950 . S
C1972 H1964 0.950 . S
C1972 C1973 1.386 . S
C1972 C1974 1.391 . S
C1973 C1972 1.386 . S
C1973 C1977 1.393 . S
C1974 H1966 0.950 . S
C1974 C1972 1.391 . S
C1974 C1975 1.400 . S
C1975 C1974 1.400 . S
C1975 C1976 1.398 . S
C1975 C1981 1.491 . S
C1976 H1967 0.950 . S
C1976 C1975 1.398 . S
C1976 C1977 1.391 . S
C1977 H1965 0.950 . S
C1977 C1973 1.393 . S
C1977 C1976 1.391 . S
C1978 H1968 0.950 . S
C1978 C1979 1.386 . S
C1978 C1980 1.391 . S
C1979 C1978 1.386 . S
C1979 C1983 1.393 . S
C1980 H1969 0.950 . S
C1980 C1978 1.391 . S
C1980 C1981 1.400 . S
C1981 C1975 1.491 . S
C1981 C1980 1.400 . S
C1981 C1982 1.398 . S
C1982 H1970 0.950 . S
C1982 C1981 1.398 . S
C1982 C1983 1.391 . S
C1983 H1971 0.950 . S
C1983 C1979 1.393 . S
C1983 C1982 1.391 . S
H1984 C1992 0.950 . S
H1985 C1997 0.950 . S
H1986 C1994 0.950 . S
H1987 C1996 0.950 . S
H1988 C1998 0.950 . S
H1989 C2000 0.950 . S
H1990 C2002 0.950 . S
H1991 C2003 0.950 . S
C1992 H1984 0.950 . S
C1992 C1993 1.386 1_554 S
C1992 C1994 1.391 . S
C1993 C1992 1.386 1_556 S
C1993 C1997 1.393 . S
C1994 H1986 0.950 . S
C1994 C1992 1.391 . S
C1994 C1995 1.400 1_455 S
C1995 C1994 1.400 1_655 S
C1995 C1996 1.398 1_554 S
C1995 C2001 1.491 . S
C1996 H1987 0.950 . S
C1996 C1995 1.398 1_556 S
C1996 C1997 1.391 1_655 S
C1997 H1985 0.950 . S
C1997 C1993 1.393 . S
C1997 C1996 1.391 1_455 S
C1998 H1988 0.950 . S
C1998 C1999 1.386 . S
C1998 C2000 1.391 . S
C1999 C1998 1.386 . S
C1999 C2003 1.393 . S
C2000 H1989 0.950 . S
C2000 C1998 1.391 . S
C2000 C2001 1.400 . S
C2001 C1995 1.491 . S
C2001 C2000 1.400 . S
C2001 C2002 1.398 . S
C2002 H1990 0.950 . S
C2002 C2001 1.398 . S
C2002 C2003 1.391 . S
C2003 H1991 0.950 . S
C2003 C1999 1.393 . S
C2003 C2002 1.391 . S
H2004 C2012 0.950 . S
H2005 C2017 0.950 . S
H2006 C2014 0.950 . S
H2007 C2016 0.950 . S
H2008 C2018 0.950 . S
H2009 C2020 0.950 . S
H2010 C2022 0.950 . S
H2011 C2023 0.950 . S
C2012 H2004 0.950 . S
C2012 C2013 1.386 . S
C2012 C2014 1.391 . S
C2013 C2012 1.386 . S
C2013 C2017 1.393 . S
C2014 H2006 0.950 . S
C2014 C2012 1.391 . S
C2014 C2015 1.400 . S
C2015 C2014 1.400 . S
C2015 C2016 1.398 . S
C2015 C2021 1.491 . S
C2016 H2007 0.950 . S
C2016 C2015 1.398 . S
C2016 C2017 1.391 . S
C2017 H2005 0.950 . S
C2017 C2013 1.393 . S
C2017 C2016 1.391 . S
C2018 H2008 0.950 . S
C2018 C2019 1.386 . S
C2018 C2020 1.391 . S
C2019 C2018 1.386 . S
C2019 C2023 1.393 . S
C2020 H2009 0.950 . S
C2020 C2018 1.391 . S
C2020 C2021 1.400 . S
C2021 C2015 1.491 . S
C2021 C2020 1.400 . S
C2021 C2022 1.398 . S
C2022 H2010 0.950 . S
C2022 C2021 1.398 . S
C2022 C2023 1.391 . S
C2023 H2011 0.950 . S
C2023 C2019 1.393 . S
C2023 C2022 1.391 . S
H2024 C2032 0.950 . S
H2025 C2037 0.950 . S
H2026 C2034 0.949 1_455 S
H2027 C2036 0.950 . S
H2028 C2038 0.950 . S
H2029 C2040 0.950 . S
H2030 C2042 0.950 . S
H2031 C2043 0.950 . S
C2032 H2024 0.950 . S
C2032 C2033 1.386 . S
C2032 C2034 1.391 . S
C2033 C2032 1.386 . S
C2033 C2037 1.393 . S
C2034 H2026 0.949 1_655 S
C2034 C2032 1.391 . S
C2034 C2035 1.400 1_655 S
C2035 C2034 1.400 1_455 S
C2035 C2036 1.398 . S
C2035 C2041 1.491 . S
C2036 H2027 0.950 . S
C2036 C2035 1.398 . S
C2036 C2037 1.391 1_455 S
C2037 H2025 0.950 . S
C2037 C2033 1.393 . S
C2037 C2036 1.391 1_655 S
C2038 H2028 0.950 . S
C2038 C2039 1.386 . S
C2038 C2040 1.391 . S
C2039 C2038 1.386 . S
C2039 C2043 1.393 . S
C2040 H2029 0.950 . S
C2040 C2038 1.391 . S
C2040 C2041 1.400 . S
C2041 C2035 1.491 . S
C2041 C2040 1.400 . S
C2041 C2042 1.398 . S
C2042 H2030 0.950 . S
C2042 C2041 1.398 . S
C2042 C2043 1.391 . S
C2043 H2031 0.950 . S
C2043 C2039 1.393 . S
C2043 C2042 1.391 . S
H2044 C2052 0.950 . S
H2045 C2057 0.950 . S
H2046 C2054 0.950 . S
H2047 C2056 0.950 . S
H2048 C2058 0.949 . S
H2049 C2060 0.950 . S
H2050 C2062 0.953 . S
H2051 C2063 0.950 . S
C2052 H2044 0.950 . S
C2052 C2053 1.386 . S
C2052 C2054 1.391 . S
C2053 C2052 1.386 . S
C2053 C2057 1.393 . S
C2054 H2046 0.950 . S
C2054 C2052 1.391 . S
C2054 C2055 1.400 . S
C2055 C2054 1.400 . S
C2055 C2056 1.398 . S
C2055 C2061 1.491 . S
C2056 H2047 0.950 . S
C2056 C2055 1.398 . S
C2056 C2057 1.391 . S
C2057 H2045 0.950 . S
C2057 C2053 1.393 . S
C2057 C2056 1.391 . S
C2058 H2048 0.949 . S
C2058 C2059 1.375 1_556 S
C2058 C2060 1.403 . S
C2059 C2058 1.375 1_554 S
C2059 C2063 1.393 . S
C2060 H2049 0.950 . S
C2060 C2058 1.403 . S
C2060 C2061 1.400 . S
C2061 C2055 1.491 . S
C2061 C2060 1.400 . S
C2061 C2062 1.398 . S
C2062 H2050 0.953 . S
C2062 C2061 1.398 . S
C2062 C2063 1.391 1_556 S
C2063 H2051 0.950 . S
C2063 C2059 1.393 . S
C2063 C2062 1.391 1_554 S
H2064 C2072 0.950 . S
H2065 C2077 0.950 . S
H2066 C2074 0.950 . S
H2067 C2076 0.950 . S
H2068 C2078 0.950 . S
H2069 C2080 0.950 . S
H2070 C2082 0.950 . S
H2071 C2083 0.950 . S
C2072 H2064 0.950 . S
C2072 C2073 1.386 . S
C2072 C2074 1.391 . S
C2073 C2072 1.386 . S
C2073 C2077 1.393 . S
C2074 H2066 0.950 . S
C2074 C2072 1.391 . S
C2074 C2075 1.400 . S
C2075 C2074 1.400 . S
C2075 C2076 1.398 . S
C2075 C2081 1.491 . S
C2076 H2067 0.950 . S
C2076 C2075 1.398 . S
C2076 C2077 1.391 . S
C2077 H2065 0.950 . S
C2077 C2073 1.393 . S
C2077 C2076 1.391 . S
C2078 H2068 0.950 . S
C2078 C2079 1.386 . S
C2078 C2080 1.391 . S
C2079 C2078 1.386 . S
C2079 C2083 1.393 . S
C2080 H2069 0.950 . S
C2080 C2078 1.391 . S
C2080 C2081 1.400 . S
C2081 C2075 1.491 . S
C2081 C2080 1.400 . S
C2081 C2082 1.398 . S
C2082 H2070 0.950 . S
C2082 C2081 1.398 . S
C2082 C2083 1.391 . S
C2083 H2071 0.950 . S
C2083 C2079 1.393 . S
C2083 C2082 1.391 . S
H2084 C2092 0.950 . S
H2085 C2097 0.950 . S
H2086 C2094 0.950 . S
H2087 C2096 0.950 . S
H2088 C2098 0.950 . S
H2089 C2100 0.950 . S
H2090 C2102 0.950 . S
H2091 C2103 0.950 . S
C2092 H2084 0.950 . S
C2092 C2093 1.386 . S
C2092 C2094 1.391 . S
C2093 C2092 1.386 . S
C2093 C2097 1.393 . S
C2094 H2086 0.950 . S
C2094 C2092 1.391 . S
C2094 C2095 1.400 . S
C2095 C2094 1.400 . S
C2095 C2096 1.398 . S
C2095 C2101 1.491 . S
C2096 H2087 0.950 . S
C2096 C2095 1.398 . S
C2096 C2097 1.391 . S
C2097 H2085 0.950 . S
C2097 C2093 1.393 . S
C2097 C2096 1.391 . S
C2098 H2088 0.950 . S
C2098 C2099 1.386 . S
C2098 C2100 1.391 . S
C2099 C2098 1.386 . S
C2099 C2103 1.393 . S
C2100 H2089 0.950 . S
C2100 C2098 1.391 . S
C2100 C2101 1.400 1_556 S
C2101 C2095 1.491 . S
C2101 C2100 1.400 1_554 S
C2101 C2102 1.398 . S
C2102 H2090 0.950 . S
C2102 C2101 1.398 . S
C2102 C2103 1.391 1_554 S
C2103 H2091 0.950 . S
C2103 C2099 1.393 . S
C2103 C2102 1.391 1_556 S
H2104 C2112 0.950 . S
H2105 C2117 0.950 . S
H2106 C2114 0.950 . S
H2107 C2116 0.950 . S
H2108 C2118 0.950 . S
H2109 C2120 0.950 . S
H2110 C2122 0.950 . S
H2111 C2123 0.950 . S
C2112 H2104 0.950 . S
C2112 C2113 1.386 . S
C2112 C2114 1.391 . S
C2113 C2112 1.386 . S
C2113 C2117 1.393 . S
C2114 H2106 0.950 . S
C2114 C2112 1.391 . S
C2114 C2115 1.400 . S
C2115 C2114 1.400 . S
C2115 C2116 1.398 . S
C2115 C2121 1.491 . S
C2116 H2107 0.950 . S
C2116 C2115 1.398 . S
C2116 C2117 1.391 . S
C2117 H2105 0.950 . S
C2117 C2113 1.393 . S
C2117 C2116 1.391 . S
C2118 H2108 0.950 . S
C2118 C2119 1.386 . S
C2118 C2120 1.391 . S
C2119 C2118 1.386 . S
C2119 C2123 1.393 . S
C2120 H2109 0.950 . S
C2120 C2118 1.391 . S
C2120 C2121 1.400 . S
C2121 C2115 1.491 . S
C2121 C2120 1.400 . S
C2121 C2122 1.398 . S
C2122 H2110 0.950 . S
C2122 C2121 1.398 . S
C2122 C2123 1.391 . S
C2123 H2111 0.950 . S
C2123 C2119 1.393 . S
C2123 C2122 1.391 . S
H2124 C2132 0.950 . S
H2125 C2137 0.950 . S
H2126 C2134 0.950 . S
H2127 C2136 0.950 . S
H2128 C2138 0.950 . S
H2129 C2140 0.950 . S
H2130 C2142 0.950 . S
H2131 C2143 0.950 . S
C2132 H2124 0.950 . S
C2132 C2133 1.386 . S
C2132 C2134 1.391 . S
C2133 C2132 1.386 . S
C2133 C2137 1.393 . S
C2134 H2126 0.950 . S
C2134 C2132 1.391 . S
C2134 C2135 1.400 . S
C2135 C2134 1.400 . S
C2135 C2136 1.398 . S
C2135 C2141 1.491 . S
C2136 H2127 0.950 . S
C2136 C2135 1.398 . S
C2136 C2137 1.391 . S
C2137 H2125 0.950 . S
C2137 C2133 1.393 . S
C2137 C2136 1.391 . S
C2138 H2128 0.950 . S
C2138 C2139 1.386 . S
C2138 C2140 1.391 . S
C2139 C2138 1.386 . S
C2139 C2143 1.393 . S
C2140 H2129 0.950 . S
C2140 C2138 1.391 . S
C2140 C2141 1.400 . S
C2141 C2135 1.491 . S
C2141 C2140 1.400 . S
C2141 C2142 1.398 . S
C2142 H2130 0.950 . S
C2142 C2141 1.398 . S
C2142 C2143 1.391 . S
C2143 H2131 0.950 . S
C2143 C2139 1.393 . S
C2143 C2142 1.391 . S
H2144 C2152 0.950 . S
H2145 C2157 0.950 . S
H2146 C2154 0.950 . S
H2147 C2156 0.950 . S
H2148 C2158 0.950 . S
H2149 C2160 0.950 . S
H2150 C2162 0.950 . S
H2151 C2163 0.950 . S
C2152 H2144 0.950 . S
C2152 C2153 1.386 . S
C2152 C2154 1.391 . S
C2153 C2152 1.386 . S
C2153 C2157 1.393 . S
C2154 H2146 0.950 . S
C2154 C2152 1.391 . S
C2154 C2155 1.400 . S
C2155 C2154 1.400 . S
C2155 C2156 1.398 . S
C2155 C2161 1.491 . S
C2156 H2147 0.950 . S
C2156 C2155 1.398 . S
C2156 C2157 1.391 . S
C2157 H2145 0.950 . S
C2157 C2153 1.393 . S
C2157 C2156 1.391 . S
C2158 H2148 0.950 . S
C2158 C2159 1.386 . S
C2158 C2160 1.391 . S
C2159 C2158 1.386 . S
C2159 C2163 1.393 . S
C2160 H2149 0.950 . S
C2160 C2158 1.391 . S
C2160 C2161 1.400 . S
C2161 C2155 1.491 . S
C2161 C2160 1.400 . S
C2161 C2162 1.398 . S
C2162 H2150 0.950 . S
C2162 C2161 1.398 . S
C2162 C2163 1.391 . S
C2163 H2151 0.950 . S
C2163 C2159 1.393 . S
C2163 C2162 1.391 . S
H2164 C2172 0.950 . S
H2165 C2177 0.950 . S
H2166 C2174 0.950 . S
H2167 C2176 0.950 . S
H2168 C2178 0.950 . S
H2169 C2180 0.950 . S
H2170 C2182 0.940 1_556 S
H2171 C2183 0.950 . S
C2172 H2164 0.950 . S
C2172 C2173 1.386 . S
C2172 C2174 1.391 . S
C2173 C2172 1.386 . S
C2173 C2177 1.393 . S
C2174 H2166 0.950 . S
C2174 C2172 1.391 . S
C2174 C2175 1.400 . S
C2175 C2174 1.400 . S
C2175 C2176 1.398 . S
C2175 C2181 1.491 . S
C2176 H2167 0.950 . S
C2176 C2175 1.398 . S
C2176 C2177 1.391 . S
C2177 H2165 0.950 . S
C2177 C2173 1.393 . S
C2177 C2176 1.391 . S
C2178 H2168 0.950 . S
C2178 C2179 1.386 . S
C2178 C2180 1.391 1_554 S
C2179 C2178 1.386 . S
C2179 C2183 1.393 . S
C2180 H2169 0.950 . S
C2180 C2178 1.391 1_556 S
C2180 C2181 1.400 . S
C2181 C2175 1.491 . S
C2181 C2180 1.400 . S
C2181 C2182 1.357 1_556 S
C2182 H2170 0.940 1_554 S
C2182 C2181 1.357 1_554 S
C2182 C2183 1.444 . S
C2183 H2171 0.950 . S
C2183 C2179 1.393 . S
C2183 C2182 1.444 . S
H2184 C2192 0.950 . S
H2185 C2197 0.950 . S
H2186 C2194 0.950 . S
H2187 C2196 0.950 . S
H2188 C2198 0.950 . S
H2189 C2200 0.950 . S
H2190 C2202 0.950 . S
H2191 C2203 0.950 . S
C2192 H2184 0.950 . S
C2192 C2193 1.386 . S
C2192 C2194 1.391 . S
C2193 C2192 1.386 . S
C2193 C2197 1.393 . S
C2194 H2186 0.950 . S
C2194 C2192 1.391 . S
C2194 C2195 1.400 . S
C2195 C2194 1.400 . S
C2195 C2196 1.398 . S
C2195 C2201 1.491 . S
C2196 H2187 0.950 . S
C2196 C2195 1.398 . S
C2196 C2197 1.391 . S
C2197 H2185 0.950 . S
C2197 C2193 1.393 . S
C2197 C2196 1.391 . S
C2198 H2188 0.950 . S
C2198 C2199 1.386 . S
C2198 C2200 1.391 . S
C2199 C2198 1.386 . S
C2199 C2203 1.393 . S
C2200 H2189 0.950 . S
C2200 C2198 1.391 . S
C2200 C2201 1.400 . S
C2201 C2195 1.491 . S
C2201 C2200 1.400 . S
C2201 C2202 1.398 . S
C2202 H2190 0.950 . S
C2202 C2201 1.398 . S
C2202 C2203 1.391 . S
C2203 H2191 0.950 . S
C2203 C2199 1.393 . S
C2203 C2202 1.391 . S
H2204 C2212 0.950 . S
H2205 C2217 0.950 . S
H2206 C2214 0.950 . S
H2207 C2216 0.950 . S
H2208 C2218 0.950 . S
H2209 C2220 0.950 . S
H2210 C2222 0.950 . S
H2211 C2223 0.950 . S
C2212 H2204 0.950 . S
C2212 C2213 1.386 . S
C2212 C2214 1.391 . S
C2213 C2212 1.386 . S
C2213 C2217 1.393 . S
C2214 H2206 0.950 . S
C2214 C2212 1.391 . S
C2214 C2215 1.400 . S
C2215 C2214 1.400 . S
C2215 C2216 1.398 . S
C2215 C2221 1.491 . S
C2216 H2207 0.950 . S
C2216 C2215 1.398 . S
C2216 C2217 1.391 . S
C2217 H2205 0.950 . S
C2217 C2213 1.393 . S
C2217 C2216 1.391 . S
C2218 H2208 0.950 . S
C2218 C2219 1.386 . S
C2218 C2220 1.391 . S
C2219 C2218 1.386 . S
C2219 C2223 1.393 . S
C2220 H2209 0.950 . S
C2220 C2218 1.391 . S
C2220 C2221 1.400 . S
C2221 C2215 1.491 . S
C2221 C2220 1.400 . S
C2221 C2222 1.398 . S
C2222 H2210 0.950 . S
C2222 C2221 1.398 . S
C2222 C2223 1.391 . S
C2223 H2211 0.950 . S
C2223 C2219 1.393 . S
C2223 C2222 1.391 . S
H2224 C2232 0.950 . S
H2225 C2237 0.950 . S
H2226 C2234 0.950 . S
H2227 C2236 0.950 . S
H2228 C2238 0.950 . S
H2229 C2240 0.950 . S
H2230 C2242 0.950 . S
H2231 C2243 0.950 . S
C2232 H2224 0.950 . S
C2232 C2233 1.386 . S
C2232 C2234 1.391 . S
C2233 C2232 1.386 . S
C2233 C2237 1.393 . S
C2234 H2226 0.950 . S
C2234 C2232 1.391 . S
C2234 C2235 1.400 . S
C2235 C2234 1.400 . S
C2235 C2236 1.398 . S
C2235 C2241 1.491 . S
C2236 H2227 0.950 . S
C2236 C2235 1.398 . S
C2236 C2237 1.391 . S
C2237 H2225 0.950 . S
C2237 C2233 1.393 . S
C2237 C2236 1.391 . S
C2238 H2228 0.950 . S
C2238 C2239 1.386 . S
C2238 C2240 1.391 . S
C2239 C2238 1.386 . S
C2239 C2243 1.393 . S
C2240 H2229 0.950 . S
C2240 C2238 1.391 . S
C2240 C2241 1.400 . S
C2241 C2235 1.491 . S
C2241 C2240 1.400 . S
C2241 C2242 1.398 . S
C2242 H2230 0.950 . S
C2242 C2241 1.398 . S
C2242 C2243 1.391 . S
C2243 H2231 0.950 . S
C2243 C2239 1.393 . S
C2243 C2242 1.391 . S
H2244 C2252 0.950 . S
H2245 C2257 0.950 . S
H2246 C2254 0.950 . S
H2247 C2256 0.950 . S
H2248 C2258 0.950 . S
H2249 C2260 0.950 . S
H2250 C2262 0.950 . S
H2251 C2263 0.950 . S
C2252 H2244 0.950 . S
C2252 C2253 1.386 . S
C2252 C2254 1.391 . S
C2253 C2252 1.386 . S
C2253 C2257 1.393 . S
C2254 H2246 0.950 . S
C2254 C2252 1.391 . S
C2254 C2255 1.400 . S
C2255 C2254 1.400 . S
C2255 C2256 1.398 . S
C2255 C2261 1.491 . S
C2256 H2247 0.950 . S
C2256 C2255 1.398 . S
C2256 C2257 1.391 . S
C2257 H2245 0.950 . S
C2257 C2253 1.393 . S
C2257 C2256 1.391 . S
C2258 H2248 0.950 . S
C2258 C2259 1.386 . S
C2258 C2260 1.391 . S
C2259 C2258 1.386 . S
C2259 C2263 1.393 . S
C2260 H2249 0.950 . S
C2260 C2258 1.391 . S
C2260 C2261 1.400 . S
C2261 C2255 1.491 . S
C2261 C2260 1.400 . S
C2261 C2262 1.398 . S
C2262 H2250 0.950 . S
C2262 C2261 1.398 . S
C2262 C2263 1.391 . S
C2263 H2251 0.950 . S
C2263 C2259 1.393 . S
C2263 C2262 1.391 . S
H2264 C2272 0.950 . S
H2265 C2277 0.950 . S
H2266 C2274 0.950 . S
H2267 C2276 0.950 . S
H2268 C2278 0.950 . S
H2269 C2280 0.950 . S
H2270 C2282 0.950 . S
H2271 C2283 0.950 . S
C2272 H2264 0.950 . S
C2272 C2273 1.386 . S
C2272 C2274 1.391 . S
C2273 C2272 1.386 . S
C2273 C2277 1.393 . S
C2274 H2266 0.950 . S
C2274 C2272 1.391 . S
C2274 C2275 1.400 . S
C2275 C2274 1.400 . S
C2275 C2276 1.398 . S
C2275 C2281 1.491 . S
C2276 H2267 0.950 . S
C2276 C2275 1.398 . S
C2276 C2277 1.391 . S
C2277 H2265 0.950 . S
C2277 C2273 1.393 . S
C2277 C2276 1.391 . S
C2278 H2268 0.950 . S
C2278 C2279 1.386 . S
C2278 C2280 1.391 . S
C2279 C2278 1.386 . S
C2279 C2283 1.393 . S
C2280 H2269 0.950 . S
C2280 C2278 1.391 . S
C2280 C2281 1.400 . S
C2281 C2275 1.491 . S
C2281 C2280 1.400 . S
C2281 C2282 1.398 . S
C2282 H2270 0.950 . S
C2282 C2281 1.398 . S
C2282 C2283 1.391 . S
C2283 H2271 0.950 . S
C2283 C2279 1.393 . S
C2283 C2282 1.391 . S
H2284 C2292 0.950 . S
H2285 C2297 0.950 . S
H2286 C2294 0.950 . S
H2287 C2296 0.950 . S
H2288 C2298 0.950 . S
H2289 C2300 0.950 1_455 S
H2290 C2302 0.950 . S
H2291 C2303 0.950 . S
C2292 H2284 0.950 . S
C2292 C2293 1.386 1_655 S
C2292 C2294 1.391 . S
C2293 C2292 1.386 1_455 S
C2293 C2297 1.393 . S
C2294 H2286 0.950 . S
C2294 C2292 1.391 . S
C2294 C2295 1.400 . S
C2295 C2294 1.400 . S
C2295 C2296 1.398 1_655 S
C2295 C2301 1.491 . S
C2296 H2287 0.950 . S
C2296 C2295 1.398 1_455 S
C2296 C2297 1.391 . S
C2297 H2285 0.950 . S
C2297 C2293 1.393 . S
C2297 C2296 1.391 . S
C2298 H2288 0.950 . S
C2298 C2299 1.386 . S
C2298 C2300 1.391 . S
C2299 C2298 1.386 . S
C2299 C2303 1.393 . S
C2300 H2289 0.950 1_655 S
C2300 C2298 1.391 . S
C2300 C2301 1.400 . S
C2301 C2295 1.491 . S
C2301 C2300 1.400 . S
C2301 C2302 1.398 . S
C2302 H2290 0.950 . S
C2302 C2301 1.398 . S
C2302 C2303 1.391 . S
C2303 H2291 0.950 . S
C2303 C2299 1.393 . S
C2303 C2302 1.391 . S
H2304 C2312 0.950 . S
H2305 C2317 0.950 . S
H2306 C2314 0.950 . S
H2307 C2316 0.950 . S
H2308 C2318 0.950 . S
H2309 C2320 0.950 . S
H2310 C2322 0.950 . S
H2311 C2323 0.950 . S
C2312 H2304 0.950 . S
C2312 C2313 1.386 . S
C2312 C2314 1.391 . S
C2313 C2312 1.386 . S
C2313 C2317 1.393 . S
C2314 H2306 0.950 . S
C2314 C2312 1.391 . S
C2314 C2315 1.400 . S
C2315 C2314 1.400 . S
C2315 C2316 1.398 . S
C2315 C2321 1.491 . S
C2316 H2307 0.950 . S
C2316 C2315 1.398 . S
C2316 C2317 1.391 . S
C2317 H2305 0.950 . S
C2317 C2313 1.393 . S
C2317 C2316 1.391 . S
C2318 H2308 0.950 . S
C2318 C2319 1.386 . S
C2318 C2320 1.391 . S
C2319 C2318 1.386 . S
C2319 C2323 1.393 . S
C2320 H2309 0.950 . S
C2320 C2318 1.391 . S
C2320 C2321 1.400 . S
C2321 C2315 1.491 . S
C2321 C2320 1.400 . S
C2321 C2322 1.398 . S
C2322 H2310 0.950 . S
C2322 C2321 1.398 . S
C2322 C2323 1.391 . S
C2323 H2311 0.950 . S
C2323 C2319 1.393 . S
C2323 C2322 1.391 . S
H2324 C2332 0.950 . S
H2325 C2337 0.950 . S
H2326 C2334 0.950 1_455 S
H2327 C2336 0.950 . S
H2328 C2338 0.950 . S
H2329 C2340 0.950 . S
H2330 C2342 0.950 . S
H2331 C2343 0.950 . S
C2332 H2324 0.950 . S
C2332 C2333 1.386 . S
C2332 C2334 1.391 . S
C2333 C2332 1.386 . S
C2333 C2337 1.393 . S
C2334 H2326 0.950 1_655 S
C2334 C2332 1.391 . S
C2334 C2335 1.400 . S
C2335 C2334 1.400 . S
C2335 C2336 1.398 . S
C2335 C2341 1.491 . S
C2336 H2327 0.950 . S
C2336 C2335 1.398 . S
C2336 C2337 1.391 . S
C2337 H2325 0.950 . S
C2337 C2333 1.393 . S
C2337 C2336 1.391 . S
C2338 H2328 0.950 . S
C2338 C2339 1.386 1_655 S
C2338 C2340 1.391 . S
C2339 C2338 1.386 1_455 S
C2339 C2343 1.393 . S
C2340 H2329 0.950 . S
C2340 C2338 1.391 . S
C2340 C2341 1.400 . S
C2341 C2335 1.491 . S
C2341 C2340 1.400 . S
C2341 C2342 1.398 1_655 S
C2342 H2330 0.950 . S
C2342 C2341 1.398 1_455 S
C2342 C2343 1.391 . S
C2343 H2331 0.950 . S
C2343 C2339 1.393 . S
C2343 C2342 1.391 . S
H2344 C2352 0.950 . S
H2345 C2357 0.950 . S
H2346 C2354 0.950 . S
H2347 C2356 0.950 . S
H2348 C2358 0.950 . S
H2349 C2360 0.950 . S
H2350 C2362 0.950 . S
H2351 C2363 0.950 . S
C2352 H2344 0.950 . S
C2352 C2353 1.386 . S
C2352 C2354 1.391 . S
C2353 C2352 1.386 . S
C2353 C2357 1.393 . S
C2354 H2346 0.950 . S
C2354 C2352 1.391 . S
C2354 C2355 1.400 . S
C2355 C2354 1.400 . S
C2355 C2356 1.398 . S
C2355 C2361 1.491 . S
C2356 H2347 0.950 . S
C2356 C2355 1.398 . S
C2356 C2357 1.391 . S
C2357 H2345 0.950 . S
C2357 C2353 1.393 . S
C2357 C2356 1.391 . S
C2358 H2348 0.950 . S
C2358 C2359 1.386 . S
C2358 C2360 1.391 . S
C2359 C2358 1.386 . S
C2359 C2363 1.393 . S
C2360 H2349 0.950 . S
C2360 C2358 1.391 . S
C2360 C2361 1.400 . S
C2361 C2355 1.491 . S
C2361 C2360 1.400 . S
C2361 C2362 1.398 . S
C2362 H2350 0.950 . S
C2362 C2361 1.398 . S
C2362 C2363 1.391 . S
C2363 H2351 0.950 . S
C2363 C2359 1.393 . S
C2363 C2362 1.391 . S
H2364 C2372 0.950 . S
H2365 C2377 0.950 . S
H2366 C2374 0.950 . S
H2367 C2376 0.950 . S
H2368 C2378 0.950 . S
H2369 C2380 0.950 . S
H2370 C2382 0.950 . S
H2371 C2383 0.950 . S
C2372 H2364 0.950 . S
C2372 C2373 1.386 . S
C2372 C2374 1.391 . S
C2373 C2372 1.386 . S
C2373 C2377 1.393 . S
C2374 H2366 0.950 . S
C2374 C2372 1.391 . S
C2374 C2375 1.400 . S
C2375 C2374 1.400 . S
C2375 C2376 1.398 . S
C2375 C2381 1.491 . S
C2376 H2367 0.950 . S
C2376 C2375 1.398 . S
C2376 C2377 1.391 . S
C2377 H2365 0.950 . S
C2377 C2373 1.393 . S
C2377 C2376 1.391 . S
C2378 H2368 0.950 . S
C2378 C2379 1.386 . S
C2378 C2380 1.391 . S
C2379 C2378 1.386 . S
C2379 C2383 1.393 . S
C2380 H2369 0.950 . S
C2380 C2378 1.391 . S
C2380 C2381 1.400 . S
C2381 C2375 1.491 . S
C2381 C2380 1.400 . S
C2381 C2382 1.398 . S
C2382 H2370 0.950 . S
C2382 C2381 1.398 . S
C2382 C2383 1.391 . S
C2383 H2371 0.950 . S
C2383 C2379 1.393 . S
C2383 C2382 1.391 . S
H2384 C2392 0.950 . S
H2385 C2397 0.950 . S
H2386 C2394 0.950 . S
H2387 C2396 0.950 . S
H2388 C2398 0.950 . S
H2389 C2400 0.950 . S
H2390 C2402 0.950 . S
H2391 C2403 0.950 . S
C2392 H2384 0.950 . S
C2392 C2393 1.386 . S
C2392 C2394 1.391 . S
C2393 C2392 1.386 . S
C2393 C2397 1.393 . S
C2394 H2386 0.950 . S
C2394 C2392 1.391 . S
C2394 C2395 1.400 . S
C2395 C2394 1.400 . S
C2395 C2396 1.398 . S
C2395 C2401 1.491 . S
C2396 H2387 0.950 . S
C2396 C2395 1.398 . S
C2396 C2397 1.391 . S
C2397 H2385 0.950 . S
C2397 C2393 1.393 . S
C2397 C2396 1.391 . S
C2398 H2388 0.950 . S
C2398 C2399 1.386 . S
C2398 C2400 1.391 . S
C2399 C2398 1.386 . S
C2399 C2403 1.393 . S
C2400 H2389 0.950 . S
C2400 C2398 1.391 . S
C2400 C2401 1.400 . S
C2401 C2395 1.491 . S
C2401 C2400 1.400 . S
C2401 C2402 1.398 . S
C2402 H2390 0.950 . S
C2402 C2401 1.398 . S
C2402 C2403 1.391 . S
C2403 H2391 0.950 . S
C2403 C2399 1.393 . S
C2403 C2402 1.391 . S
H2404 C2412 0.950 . S
H2405 C2417 0.950 . S
H2406 C2414 0.950 . S
H2407 C2416 0.950 . S
H2408 C2418 0.950 . S
H2409 C2420 0.950 . S
H2410 C2422 0.950 . S
H2411 C2423 0.950 . S
C2412 H2404 0.950 . S
C2412 C2413 1.386 . S
C2412 C2414 1.391 . S
C2413 C2412 1.386 . S
C2413 C2417 1.393 . S
C2414 H2406 0.950 . S
C2414 C2412 1.391 . S
C2414 C2415 1.400 . S
C2415 C2414 1.400 . S
C2415 C2416 1.398 . S
C2415 C2421 1.491 . S
C2416 H2407 0.950 . S
C2416 C2415 1.398 . S
C2416 C2417 1.391 . S
C2417 H2405 0.950 . S
C2417 C2413 1.393 . S
C2417 C2416 1.391 . S
C2418 H2408 0.950 . S
C2418 C2419 1.386 . S
C2418 C2420 1.391 . S
C2419 C2418 1.386 . S
C2419 C2423 1.393 . S
C2420 H2409 0.950 . S
C2420 C2418 1.391 . S
C2420 C2421 1.400 . S
C2421 C2415 1.491 . S
C2421 C2420 1.400 . S
C2421 C2422 1.398 . S
C2422 H2410 0.950 . S
C2422 C2421 1.398 . S
C2422 C2423 1.391 . S
C2423 H2411 0.950 . S
C2423 C2419 1.393 . S
C2423 C2422 1.391 . S
H2424 C2432 0.950 . S
H2425 C2437 0.950 . S
H2426 C2434 0.950 . S
H2427 C2436 0.950 . S
H2428 C2438 0.950 . S
H2429 C2440 0.950 . S
H2430 C2442 0.950 . S
H2431 C2443 0.950 . S
C2432 H2424 0.950 . S
C2432 C2433 1.386 . S
C2432 C2434 1.391 . S
C2433 C2432 1.386 . S
C2433 C2437 1.393 . S
C2434 H2426 0.950 . S
C2434 C2432 1.391 . S
C2434 C2435 1.400 . S
C2435 C2434 1.400 . S
C2435 C2436 1.398 . S
C2435 C2441 1.491 . S
C2436 H2427 0.950 . S
C2436 C2435 1.398 . S
C2436 C2437 1.391 . S
C2437 H2425 0.950 . S
C2437 C2433 1.393 . S
C2437 C2436 1.391 . S
C2438 H2428 0.950 . S
C2438 C2439 1.386 . S
C2438 C2440 1.391 . S
C2439 C2438 1.386 . S
C2439 C2443 1.393 . S
C2440 H2429 0.950 . S
C2440 C2438 1.391 . S
C2440 C2441 1.400 . S
C2441 C2435 1.491 . S
C2441 C2440 1.400 . S
C2441 C2442 1.398 . S
C2442 H2430 0.950 . S
C2442 C2441 1.398 . S
C2442 C2443 1.391 . S
C2443 H2431 0.950 . S
C2443 C2439 1.393 . S
C2443 C2442 1.391 . S
H2444 C2452 0.950 . S
H2445 C2457 0.950 . S
H2446 C2454 0.950 . S
H2447 C2456 0.950 . S
H2448 C2458 0.950 . S
H2449 C2460 0.950 . S
H2450 C2462 0.950 . S
H2451 C2463 0.950 . S
C2452 H2444 0.950 . S
C2452 C2453 1.386 . S
C2452 C2454 1.391 . S
C2453 C2452 1.386 . S
C2453 C2457 1.393 . S
C2454 H2446 0.950 . S
C2454 C2452 1.391 . S
C2454 C2455 1.400 . S
C2455 C2454 1.400 . S
C2455 C2456 1.398 . S
C2455 C2461 1.491 . S
C2456 H2447 0.950 . S
C2456 C2455 1.398 . S
C2456 C2457 1.391 . S
C2457 H2445 0.950 . S
C2457 C2453 1.393 . S
C2457 C2456 1.391 . S
C2458 H2448 0.950 . S
C2458 C2459 1.386 . S
C2458 C2460 1.391 . S
C2459 C2458 1.386 . S
C2459 C2463 1.393 . S
C2460 H2449 0.950 . S
C2460 C2458 1.391 . S
C2460 C2461 1.400 . S
C2461 C2455 1.491 . S
C2461 C2460 1.400 . S
C2461 C2462 1.398 . S
C2462 H2450 0.950 . S
C2462 C2461 1.398 . S
C2462 C2463 1.391 . S
C2463 H2451 0.950 . S
C2463 C2459 1.393 . S
C2463 C2462 1.391 . S
H2464 C2472 0.950 . S
H2465 C2477 0.950 . S
H2466 C2474 0.950 . S
H2467 C2476 0.950 . S
H2468 C2478 0.950 . S
H2469 C2480 0.950 . S
H2470 C2482 0.950 . S
H2471 C2483 0.950 . S
C2472 H2464 0.950 . S
C2472 C2473 1.386 . S
C2472 C2474 1.391 . S
C2473 C2472 1.386 . S
C2473 C2477 1.393 . S
C2474 H2466 0.950 . S
C2474 C2472 1.391 . S
C2474 C2475 1.400 . S
C2475 C2474 1.400 . S
C2475 C2476 1.398 . S
C2475 C2481 1.491 . S
C2476 H2467 0.950 . S
C2476 C2475 1.398 . S
C2476 C2477 1.391 . S
C2477 H2465 0.950 . S
C2477 C2473 1.393 . S
C2477 C2476 1.391 . S
C2478 H2468 0.950 . S
C2478 C2479 1.386 . S
C2478 C2480 1.391 . S
C2479 C2478 1.386 . S
C2479 C2483 1.393 . S
C2480 H2469 0.950 . S
C2480 C2478 1.391 . S
C2480 C2481 1.400 . S
C2481 C2475 1.491 . S
C2481 C2480 1.400 . S
C2481 C2482 1.398 . S
C2482 H2470 0.950 . S
C2482 C2481 1.398 . S
C2482 C2483 1.391 . S
C2483 H2471 0.950 . S
C2483 C2479 1.393 . S
C2483 C2482 1.391 . S
H2484 C2492 0.950 . S
H2485 C2497 0.950 . S
H2486 C2494 0.950 . S
H2487 C2496 0.950 . S
H2488 C2498 0.950 . S
H2489 C2500 0.950 . S
H2490 C2502 0.950 . S
H2491 C2503 0.950 . S
C2492 H2484 0.950 . S
C2492 C2493 1.386 . S
C2492 C2494 1.391 . S
C2493 C2492 1.386 . S
C2493 C2497 1.393 . S
C2494 H2486 0.950 . S
C2494 C2492 1.391 . S
C2494 C2495 1.400 . S
C2495 C2494 1.400 . S
C2495 C2496 1.398 . S
C2495 C2501 1.491 . S
C2496 H2487 0.950 . S
C2496 C2495 1.398 . S
C2496 C2497 1.391 . S
C2497 H2485 0.950 . S
C2497 C2493 1.393 . S
C2497 C2496 1.391 . S
C2498 H2488 0.950 . S
C2498 C2499 1.386 . S
C2498 C2500 1.391 . S
C2499 C2498 1.386 . S
C2499 C2503 1.393 . S
C2500 H2489 0.950 . S
C2500 C2498 1.391 . S
C2500 C2501 1.400 . S
C2501 C2495 1.491 . S
C2501 C2500 1.400 . S
C2501 C2502 1.398 . S
C2502 H2490 0.950 . S
C2502 C2501 1.398 . S
C2502 C2503 1.391 . S
C2503 H2491 0.950 . S
C2503 C2499 1.393 . S
C2503 C2502 1.391 . S
H2504 C2512 0.950 . S
H2505 C2517 0.950 . S
H2506 C2514 0.950 . S
H2507 C2516 0.950 . S
H2508 C2518 0.950 . S
H2509 C2520 0.950 1_554 S
H2510 C2522 0.950 . S
H2511 C2523 0.950 . S
C2512 H2504 0.950 . S
C2512 C2513 1.386 1_556 S
C2512 C2514 1.391 . S
C2513 C2512 1.386 1_554 S
C2513 C2517 1.393 . S
C2514 H2506 0.950 . S
C2514 C2512 1.391 . S
C2514 C2515 1.400 . S
C2515 C2514 1.400 . S
C2515 C2516 1.398 1_556 S
C2515 C2521 1.491 . S
C2516 H2507 0.950 . S
C2516 C2515 1.398 1_554 S
C2516 C2517 1.391 . S
C2517 H2505 0.950 . S
C2517 C2513 1.393 . S
C2517 C2516 1.391 . S
C2518 H2508 0.950 . S
C2518 C2519 1.386 . S
C2518 C2520 1.391 . S
C2519 C2518 1.386 . S
C2519 C2523 1.393 . S
C2520 H2509 0.950 1_556 S
C2520 C2518 1.391 . S
C2520 C2521 1.400 . S
C2521 C2515 1.491 . S
C2521 C2520 1.400 . S
C2521 C2522 1.398 . S
C2522 H2510 0.950 . S
C2522 C2521 1.398 . S
C2522 C2523 1.391 . S
C2523 H2511 0.950 . S
C2523 C2519 1.393 . S
C2523 C2522 1.391 . S
H2524 C2532 0.950 . S
H2525 C2537 0.950 . S
H2526 C2534 0.950 . S
H2527 C2536 0.950 . S
H2528 C2538 0.950 . S
H2529 C2540 0.950 . S
H2530 C2542 0.950 . S
H2531 C2543 0.950 . S
C2532 H2524 0.950 . S
C2532 C2533 1.386 . S
C2532 C2534 1.391 . S
C2533 C2532 1.386 . S
C2533 C2537 1.393 . S
C2534 H2526 0.950 . S
C2534 C2532 1.391 . S
C2534 C2535 1.400 1_455 S
C2535 C2534 1.400 1_655 S
C2535 C2536 1.398 . S
C2535 C2541 1.491 . S
C2536 H2527 0.950 . S
C2536 C2535 1.398 . S
C2536 C2537 1.391 1_655 S
C2537 H2525 0.950 . S
C2537 C2533 1.393 . S
C2537 C2536 1.391 1_455 S
C2538 H2528 0.950 . S
C2538 C2539 1.386 . S
C2538 C2540 1.391 . S
C2539 C2538 1.386 . S
C2539 C2543 1.393 . S
C2540 H2529 0.950 . S
C2540 C2538 1.391 . S
C2540 C2541 1.400 . S
C2541 C2535 1.491 . S
C2541 C2540 1.400 . S
C2541 C2542 1.398 . S
C2542 H2530 0.950 . S
C2542 C2541 1.398 . S
C2542 C2543 1.391 . S
C2543 H2531 0.950 . S
C2543 C2539 1.393 . S
C2543 C2542 1.391 . S
H2544 C2552 0.950 . S
H2545 C2557 0.950 . S
H2546 C2554 0.950 . S
H2547 C2556 0.950 . S
H2548 C2558 0.950 . S
H2549 C2560 0.950 . S
H2550 C2562 0.950 . S
H2551 C2563 0.950 . S
C2552 H2544 0.950 . S
C2552 C2553 1.386 . S
C2552 C2554 1.391 . S
C2553 C2552 1.386 . S
C2553 C2557 1.393 . S
C2554 H2546 0.950 . S
C2554 C2552 1.391 . S
C2554 C2555 1.400 . S
C2555 C2554 1.400 . S
C2555 C2556 1.398 . S
C2555 C2561 1.491 . S
C2556 H2547 0.950 . S
C2556 C2555 1.398 . S
C2556 C2557 1.391 . S
C2557 H2545 0.950 . S
C2557 C2553 1.393 . S
C2557 C2556 1.391 . S
C2558 H2548 0.950 . S
C2558 C2559 1.386 . S
C2558 C2560 1.391 . S
C2559 C2558 1.386 . S
C2559 C2563 1.393 . S
C2560 H2549 0.950 . S
C2560 C2558 1.391 . S
C2560 C2561 1.400 . S
C2561 C2555 1.491 . S
C2561 C2560 1.400 . S
C2561 C2562 1.398 . S
C2562 H2550 0.950 . S
C2562 C2561 1.398 . S
C2562 C2563 1.391 . S
C2563 H2551 0.950 . S
C2563 C2559 1.393 . S
C2563 C2562 1.391 . S
H2564 C2572 0.950 . S
H2565 C2577 0.950 . S
H2566 C2574 0.950 . S
H2567 C2576 0.950 . S
H2568 C2578 0.950 . S
H2569 C2580 0.950 . S
H2570 C2582 0.950 . S
H2571 C2583 0.950 . S
C2572 H2564 0.950 . S
C2572 C2573 1.386 . S
C2572 C2574 1.391 . S
C2573 C2572 1.386 . S
C2573 C2577 1.393 . S
C2574 H2566 0.950 . S
C2574 C2572 1.391 . S
C2574 C2575 1.400 . S
C2575 C2574 1.400 . S
C2575 C2576 1.398 . S
C2575 C2581 1.491 . S
C2576 H2567 0.950 . S
C2576 C2575 1.398 . S
C2576 C2577 1.391 . S
C2577 H2565 0.950 . S
C2577 C2573 1.393 . S
C2577 C2576 1.391 . S
C2578 H2568 0.950 . S
C2578 C2579 1.386 . S
C2578 C2580 1.391 . S
C2579 C2578 1.386 . S
C2579 C2583 1.393 . S
C2580 H2569 0.950 . S
C2580 C2578 1.391 . S
C2580 C2581 1.400 . S
C2581 C2575 1.491 . S
C2581 C2580 1.400 . S
C2581 C2582 1.398 . S
C2582 H2570 0.950 . S
C2582 C2581 1.398 . S
C2582 C2583 1.391 . S
C2583 H2571 0.950 . S
C2583 C2579 1.393 . S
C2583 C2582 1.391 . S
H2584 C2592 0.950 . S
H2585 C2597 0.950 . S
H2586 C2594 0.950 . S
H2587 C2596 0.950 . S
H2588 C2598 0.950 . S
H2589 C2600 0.950 . S
H2590 C2602 0.950 . S
H2591 C2603 0.950 . S
C2592 H2584 0.950 . S
C2592 C2593 1.386 . S
C2592 C2594 1.391 . S
C2593 C2592 1.386 . S
C2593 C2597 1.393 . S
C2594 H2586 0.950 . S
C2594 C2592 1.391 . S
C2594 C2595 1.400 . S
C2595 C2594 1.400 . S
C2595 C2596 1.398 . S
C2595 C2601 1.491 . S
C2596 H2587 0.950 . S
C2596 C2595 1.398 . S
C2596 C2597 1.391 . S
C2597 H2585 0.950 . S
C2597 C2593 1.393 . S
C2597 C2596 1.391 . S
C2598 H2588 0.950 . S
C2598 C2599 1.386 . S
C2598 C2600 1.391 . S
C2599 C2598 1.386 . S
C2599 C2603 1.393 . S
C2600 H2589 0.950 . S
C2600 C2598 1.391 . S
C2600 C2601 1.400 . S
C2601 C2595 1.491 . S
C2601 C2600 1.400 . S
C2601 C2602 1.398 . S
C2602 H2590 0.950 . S
C2602 C2601 1.398 . S
C2602 C2603 1.391 . S
C2603 H2591 0.950 . S
C2603 C2599 1.393 . S
C2603 C2602 1.391 . S
H2604 C2612 0.950 . S
H2605 C2617 0.950 . S
H2606 C2614 0.950 . S
H2607 C2616 0.950 . S
H2608 C2618 0.950 . S
H2609 C2620 0.950 . S
H2610 C2622 0.950 . S
H2611 C2623 0.950 . S
C2612 H2604 0.950 . S
C2612 C2613 1.386 . S
C2612 C2614 1.391 . S
C2613 C2612 1.386 . S
C2613 C2617 1.393 . S
C2614 H2606 0.950 . S
C2614 C2612 1.391 . S
C2614 C2615 1.400 . S
C2615 C2614 1.400 . S
C2615 C2616 1.398 . S
C2615 C2621 1.491 . S
C2616 H2607 0.950 . S
C2616 C2615 1.398 . S
C2616 C2617 1.391 . S
C2617 H2605 0.950 . S
C2617 C2613 1.393 . S
C2617 C2616 1.391 . S
C2618 H2608 0.950 . S
C2618 C2619 1.386 . S
C2618 C2620 1.391 . S
C2619 C2618 1.386 . S
C2619 C2623 1.393 . S
C2620 H2609 0.950 . S
C2620 C2618 1.391 . S
C2620 C2621 1.400 . S
C2621 C2615 1.491 . S
C2621 C2620 1.400 . S
C2621 C2622 1.398 . S
C2622 H2610 0.950 . S
C2622 C2621 1.398 . S
C2622 C2623 1.391 . S
C2623 H2611 0.950 . S
C2623 C2619 1.393 . S
C2623 C2622 1.391 . S
H2624 C2632 0.950 . S
H2625 C2637 0.950 . S
H2626 C2634 0.950 . S
H2627 C2636 0.950 . S
H2628 C2638 0.950 . S
H2629 C2640 0.950 . S
H2630 C2642 0.950 . S
H2631 C2643 0.950 . S
C2632 H2624 0.950 . S
C2632 C2633 1.386 . S
C2632 C2634 1.391 . S
C2633 C2632 1.386 . S
C2633 C2637 1.393 . S
C2634 H2626 0.950 . S
C2634 C2632 1.391 . S
C2634 C2635 1.400 . S
C2635 C2634 1.400 . S
C2635 C2636 1.398 . S
C2635 C2641 1.491 . S
C2636 H2627 0.950 . S
C2636 C2635 1.398 . S
C2636 C2637 1.391 . S
C2637 H2625 0.950 . S
C2637 C2633 1.393 . S
C2637 C2636 1.391 . S
C2638 H2628 0.950 . S
C2638 C2639 1.386 . S
C2638 C2640 1.391 . S
C2639 C2638 1.386 . S
C2639 C2643 1.393 . S
C2640 H2629 0.950 . S
C2640 C2638 1.391 . S
C2640 C2641 1.400 . S
C2641 C2635 1.491 . S
C2641 C2640 1.400 . S
C2641 C2642 1.398 . S
C2642 H2630 0.950 . S
C2642 C2641 1.398 . S
C2642 C2643 1.391 . S
C2643 H2631 0.950 . S
C2643 C2639 1.393 . S
C2643 C2642 1.391 . S
H2644 C2652 0.950 . S
H2645 C2657 0.950 . S
H2646 C2654 0.950 . S
H2647 C2656 0.950 . S
H2648 C2658 0.950 . S
H2649 C2660 0.950 . S
H2650 C2662 0.950 . S
H2651 C2663 0.950 . S
C2652 H2644 0.950 . S
C2652 C2653 1.386 . S
C2652 C2654 1.391 . S
C2653 C2652 1.386 . S
C2653 C2657 1.393 . S
C2654 H2646 0.950 . S
C2654 C2652 1.391 . S
C2654 C2655 1.400 . S
C2655 C2654 1.400 . S
C2655 C2656 1.398 . S
C2655 C2661 1.491 . S
C2656 H2647 0.950 . S
C2656 C2655 1.398 . S
C2656 C2657 1.391 . S
C2657 H2645 0.950 . S
C2657 C2653 1.393 . S
C2657 C2656 1.391 . S
C2658 H2648 0.950 . S
C2658 C2659 1.386 . S
C2658 C2660 1.391 . S
C2659 C2658 1.386 . S
C2659 C2663 1.393 . S
C2660 H2649 0.950 . S
C2660 C2658 1.391 . S
C2660 C2661 1.400 . S
C2661 C2655 1.491 . S
C2661 C2660 1.400 . S
C2661 C2662 1.398 . S
C2662 H2650 0.950 . S
C2662 C2661 1.398 . S
C2662 C2663 1.391 . S
C2663 H2651 0.950 . S
C2663 C2659 1.393 . S
C2663 C2662 1.391 . S
H2664 C2672 0.950 . S
H2665 C2677 0.950 . S
H2666 C2674 0.950 . S
H2667 C2676 0.950 . S
H2668 C2678 0.950 . S
H2669 C2680 0.950 . S
H2670 C2682 0.950 . S
H2671 C2683 0.950 . S
C2672 H2664 0.950 . S
C2672 C2673 1.386 . S
C2672 C2674 1.391 . S
C2673 C2672 1.386 . S
C2673 C2677 1.393 . S
C2674 H2666 0.950 . S
C2674 C2672 1.391 . S
C2674 C2675 1.400 . S
C2675 C2674 1.400 . S
C2675 C2676 1.398 . S
C2675 C2681 1.491 . S
C2676 H2667 0.950 . S
C2676 C2675 1.398 . S
C2676 C2677 1.391 . S
C2677 H2665 0.950 . S
C2677 C2673 1.393 . S
C2677 C2676 1.391 . S
C2678 H2668 0.950 . S
C2678 C2679 1.386 . S
C2678 C2680 1.391 . S
C2679 C2678 1.386 . S
C2679 C2683 1.393 . S
C2680 H2669 0.950 . S
C2680 C2678 1.391 . S
C2680 C2681 1.400 . S
C2681 C2675 1.491 . S
C2681 C2680 1.400 . S
C2681 C2682 1.398 . S
C2682 H2670 0.950 . S
C2682 C2681 1.398 . S
C2682 C2683 1.391 . S
C2683 H2671 0.950 . S
C2683 C2679 1.393 . S
C2683 C2682 1.391 . S
H2684 C2692 0.950 . S
H2685 C2697 0.950 . S
H2686 C2694 0.950 . S
H2687 C2696 0.950 . S
H2688 C2698 0.950 . S
H2689 C2700 0.950 . S
H2690 C2702 0.950 . S
H2691 C2703 0.950 . S
C2692 H2684 0.950 . S
C2692 C2693 1.386 . S
C2692 C2694 1.391 . S
C2693 C2692 1.386 . S
C2693 C2697 1.393 . S
C2694 H2686 0.950 . S
C2694 C2692 1.391 . S
C2694 C2695 1.400 . S
C2695 C2694 1.400 . S
C2695 C2696 1.398 . S
C2695 C2701 1.491 . S
C2696 H2687 0.950 . S
C2696 C2695 1.398 . S
C2696 C2697 1.391 . S
C2697 H2685 0.950 . S
C2697 C2693 1.393 . S
C2697 C2696 1.391 . S
C2698 H2688 0.950 . S
C2698 C2699 1.386 . S
C2698 C2700 1.391 . S
C2699 C2698 1.386 . S
C2699 C2703 1.393 . S
C2700 H2689 0.950 . S
C2700 C2698 1.391 . S
C2700 C2701 1.400 . S
C2701 C2695 1.491 . S
C2701 C2700 1.400 . S
C2701 C2702 1.398 . S
C2702 H2690 0.950 . S
C2702 C2701 1.398 . S
C2702 C2703 1.391 . S
C2703 H2691 0.950 . S
C2703 C2699 1.393 . S
C2703 C2702 1.391 . S
H2704 C2712 0.950 . S
H2705 C2717 0.950 . S
H2706 C2714 0.950 . S
H2707 C2716 0.950 . S
H2708 C2718 0.950 . S
H2709 C2720 0.950 . S
H2710 C2722 0.950 . S
H2711 C2723 0.950 . S
C2712 H2704 0.950 . S
C2712 C2713 1.386 . S
C2712 C2714 1.391 . S
C2713 C2712 1.386 . S
C2713 C2717 1.393 . S
C2714 H2706 0.950 . S
C2714 C2712 1.391 . S
C2714 C2715 1.400 . S
C2715 C2714 1.400 . S
C2715 C2716 1.398 . S
C2715 C2721 1.491 . S
C2716 H2707 0.950 . S
C2716 C2715 1.398 . S
C2716 C2717 1.391 . S
C2717 H2705 0.950 . S
C2717 C2713 1.393 . S
C2717 C2716 1.391 . S
C2718 H2708 0.950 . S
C2718 C2719 1.386 . S
C2718 C2720 1.391 . S
C2719 C2718 1.386 . S
C2719 C2723 1.393 . S
C2720 H2709 0.950 . S
C2720 C2718 1.391 . S
C2720 C2721 1.400 . S
C2721 C2715 1.491 . S
C2721 C2720 1.400 . S
C2721 C2722 1.398 . S
C2722 H2710 0.950 . S
C2722 C2721 1.398 . S
C2722 C2723 1.391 . S
C2723 H2711 0.950 . S
C2723 C2719 1.393 . S
C2723 C2722 1.391 . S
H2724 C2732 0.950 . S
H2725 C2737 0.950 . S
H2726 C2734 0.950 . S
H2727 C2736 0.950 . S
H2728 C2738 0.950 . S
H2729 C2740 0.950 . S
H2730 C2742 0.950 . S
H2731 C2743 0.950 . S
C2732 H2724 0.950 . S
C2732 C2733 1.386 . S
C2732 C2734 1.391 . S
C2733 C2732 1.386 . S
C2733 C2737 1.393 . S
C2734 H2726 0.950 . S
C2734 C2732 1.391 . S
C2734 C2735 1.400 . S
C2735 C2734 1.400 . S
C2735 C2736 1.398 . S
C2735 C2741 1.491 . S
C2736 H2727 0.950 . S
C2736 C2735 1.398 . S
C2736 C2737 1.391 . S
C2737 H2725 0.950 . S
C2737 C2733 1.393 . S
C2737 C2736 1.391 . S
C2738 H2728 0.950 . S
C2738 C2739 1.386 . S
C2738 C2740 1.391 . S
C2739 C2738 1.386 . S
C2739 C2743 1.393 . S
C2740 H2729 0.950 . S
C2740 C2738 1.391 . S
C2740 C2741 1.400 . S
C2741 C2735 1.491 . S
C2741 C2740 1.400 . S
C2741 C2742 1.398 . S
C2742 H2730 0.950 . S
C2742 C2741 1.398 . S
C2742 C2743 1.391 . S
C2743 H2731 0.950 . S
C2743 C2739 1.393 . S
C2743 C2742 1.391 . S
H2744 C2752 0.950 . S
H2745 C2757 0.950 . S
H2746 C2754 0.950 . S
H2747 C2756 0.950 . S
H2748 C2758 0.950 . S
H2749 C2760 0.950 . S
H2750 C2762 0.950 . S
H2751 C2763 0.950 . S
C2752 H2744 0.950 . S
C2752 C2753 1.386 . S
C2752 C2754 1.391 . S
C2753 C2752 1.386 . S
C2753 C2757 1.393 . S
C2754 H2746 0.950 . S
C2754 C2752 1.391 . S
C2754 C2755 1.400 . S
C2755 C2754 1.400 . S
C2755 C2756 1.398 . S
C2755 C2761 1.491 . S
C2756 H2747 0.950 . S
C2756 C2755 1.398 . S
C2756 C2757 1.391 . S
C2757 H2745 0.950 . S
C2757 C2753 1.393 . S
C2757 C2756 1.391 . S
C2758 H2748 0.950 . S
C2758 C2759 1.386 . S
C2758 C2760 1.391 . S
C2759 C2758 1.386 . S
C2759 C2763 1.393 . S
C2760 H2749 0.950 . S
C2760 C2758 1.391 . S
C2760 C2761 1.400 . S
C2761 C2755 1.491 . S
C2761 C2760 1.400 . S
C2761 C2762 1.398 . S
C2762 H2750 0.950 . S
C2762 C2761 1.398 . S
C2762 C2763 1.391 . S
C2763 H2751 0.950 . S
C2763 C2759 1.393 . S
C2763 C2762 1.391 . S
H2764 C2772 0.950 . S
H2765 C2777 0.950 . S
H2766 C2774 0.950 . S
H2767 C2776 0.950 . S
H2768 C2778 0.950 . S
H2769 C2780 0.950 . S
H2770 C2782 0.950 . S
H2771 C2783 0.950 . S
C2772 H2764 0.950 . S
C2772 C2773 1.386 . S
C2772 C2774 1.391 . S
C2773 C2772 1.386 . S
C2773 C2777 1.393 . S
C2774 H2766 0.950 . S
C2774 C2772 1.391 . S
C2774 C2775 1.400 . S
C2775 C2774 1.400 . S
C2775 C2776 1.398 . S
C2775 C2781 1.491 . S
C2776 H2767 0.950 . S
C2776 C2775 1.398 . S
C2776 C2777 1.391 . S
C2777 H2765 0.950 . S
C2777 C2773 1.393 . S
C2777 C2776 1.391 . S
C2778 H2768 0.950 . S
C2778 C2779 1.386 . S
C2778 C2780 1.391 . S
C2779 C2778 1.386 . S
C2779 C2783 1.393 . S
C2780 H2769 0.950 . S
C2780 C2778 1.391 . S
C2780 C2781 1.400 . S
C2781 C2775 1.491 . S
C2781 C2780 1.400 . S
C2781 C2782 1.398 . S
C2782 H2770 0.950 . S
C2782 C2781 1.398 . S
C2782 C2783 1.391 . S
C2783 H2771 0.950 . S
C2783 C2779 1.393 . S
C2783 C2782 1.391 . S
H2784 C2792 0.950 . S
H2785 C2797 0.950 . S
H2786 C2794 0.950 . S
H2787 C2796 0.950 . S
H2788 C2798 0.950 . S
H2789 C2800 0.950 . S
H2790 C2802 0.950 . S
H2791 C2803 0.950 . S
C2792 H2784 0.950 . S
C2792 C2793 1.386 . S
C2792 C2794 1.391 . S
C2793 C2792 1.386 . S
C2793 C2797 1.393 . S
C2794 H2786 0.950 . S
C2794 C2792 1.391 . S
C2794 C2795 1.400 . S
C2795 C2794 1.400 . S
C2795 C2796 1.398 . S
C2795 C2801 1.491 . S
C2796 H2787 0.950 . S
C2796 C2795 1.398 . S
C2796 C2797 1.391 . S
C2797 H2785 0.950 . S
C2797 C2793 1.393 . S
C2797 C2796 1.391 . S
C2798 H2788 0.950 . S
C2798 C2799 1.386 . S
C2798 C2800 1.391 . S
C2799 C2798 1.386 . S
C2799 C2803 1.393 . S
C2800 H2789 0.950 . S
C2800 C2798 1.391 . S
C2800 C2801 1.400 . S
C2801 C2795 1.491 . S
C2801 C2800 1.400 . S
C2801 C2802 1.398 . S
C2802 H2790 0.950 . S
C2802 C2801 1.398 . S
C2802 C2803 1.391 . S
C2803 H2791 0.950 . S
C2803 C2799 1.393 . S
C2803 C2802 1.391 . S
H2804 C2812 0.950 . S
H2805 C2817 0.950 . S
H2806 C2814 0.950 . S
H2807 C2816 0.950 . S
H2808 C2818 0.950 . S
H2809 C2820 0.950 . S
H2810 C2822 0.950 . S
H2811 C2823 0.950 . S
C2812 H2804 0.950 . S
C2812 C2813 1.386 . S
C2812 C2814 1.391 . S
C2813 C2812 1.386 . S
C2813 C2817 1.393 . S
C2814 H2806 0.950 . S
C2814 C2812 1.391 . S
C2814 C2815 1.400 . S
C2815 C2814 1.400 . S
C2815 C2816 1.398 . S
C2815 C2821 1.491 . S
C2816 H2807 0.950 . S
C2816 C2815 1.398 . S
C2816 C2817 1.391 . S
C2817 H2805 0.950 . S
C2817 C2813 1.393 . S
C2817 C2816 1.391 . S
C2818 H2808 0.950 . S
C2818 C2819 1.386 . S
C2818 C2820 1.391 . S
C2819 C2818 1.386 . S
C2819 C2823 1.393 . S
C2820 H2809 0.950 . S
C2820 C2818 1.391 . S
C2820 C2821 1.400 . S
C2821 C2815 1.491 . S
C2821 C2820 1.400 . S
C2821 C2822 1.398 . S
C2822 H2810 0.950 . S
C2822 C2821 1.398 . S
C2822 C2823 1.391 . S
C2823 H2811 0.950 . S
C2823 C2819 1.393 . S
C2823 C2822 1.391 . S
H2824 C2832 0.950 . S
H2825 C2837 0.950 . S
H2826 C2834 0.950 . S
H2827 C2836 0.950 . S
H2828 C2838 0.950 . S
H2829 C2840 0.950 . S
H2830 C2842 0.950 . S
H2831 C2843 0.950 . S
C2832 H2824 0.950 . S
C2832 C2833 1.386 . S
C2832 C2834 1.391 . S
C2833 C2832 1.386 . S
C2833 C2837 1.393 . S
C2834 H2826 0.950 . S
C2834 C2832 1.391 . S
C2834 C2835 1.400 . S
C2835 C2834 1.400 . S
C2835 C2836 1.398 . S
C2835 C2841 1.491 . S
C2836 H2827 0.950 . S
C2836 C2835 1.398 . S
C2836 C2837 1.391 . S
C2837 H2825 0.950 . S
C2837 C2833 1.393 . S
C2837 C2836 1.391 . S
C2838 H2828 0.950 . S
C2838 C2839 1.386 . S
C2838 C2840 1.391 . S
C2839 C2838 1.386 . S
C2839 C2843 1.393 . S
C2840 H2829 0.950 . S
C2840 C2838 1.391 . S
C2840 C2841 1.400 . S
C2841 C2835 1.491 . S
C2841 C2840 1.400 . S
C2841 C2842 1.398 . S
C2842 H2830 0.950 . S
C2842 C2841 1.398 . S
C2842 C2843 1.391 . S
C2843 H2831 0.950 . S
C2843 C2839 1.393 . S
C2843 C2842 1.391 . S
H2844 C2852 0.950 . S
H2845 C2857 0.950 . S
H2846 C2854 0.950 . S
H2847 C2856 0.950 . S
H2848 C2858 0.950 . S
H2849 C2860 0.950 . S
H2850 C2862 0.950 . S
H2851 C2863 0.950 . S
C2852 H2844 0.950 . S
C2852 C2853 1.386 . S
C2852 C2854 1.391 . S
C2853 C2852 1.386 . S
C2853 C2857 1.393 . S
C2854 H2846 0.950 . S
C2854 C2852 1.391 . S
C2854 C2855 1.400 . S
C2855 C2854 1.400 . S
C2855 C2856 1.398 . S
C2855 C2861 1.491 . S
C2856 H2847 0.950 . S
C2856 C2855 1.398 . S
C2856 C2857 1.391 . S
C2857 H2845 0.950 . S
C2857 C2853 1.393 . S
C2857 C2856 1.391 . S
C2858 H2848 0.950 . S
C2858 C2859 1.386 . S
C2858 C2860 1.391 . S
C2859 C2858 1.386 . S
C2859 C2863 1.393 . S
C2860 H2849 0.950 . S
C2860 C2858 1.391 . S
C2860 C2861 1.400 . S
C2861 C2855 1.491 . S
C2861 C2860 1.400 . S
C2861 C2862 1.398 . S
C2862 H2850 0.950 . S
C2862 C2861 1.398 . S
C2862 C2863 1.391 . S
C2863 H2851 0.950 . S
C2863 C2859 1.393 . S
C2863 C2862 1.391 . S
H2864 C2872 0.950 . S
H2865 C2877 0.950 . S
H2866 C2874 0.950 . S
H2867 C2876 0.950 . S
H2868 C2878 0.950 . S
H2869 C2880 0.950 . S
H2870 C2882 0.950 . S
H2871 C2883 0.950 . S
C2872 H2864 0.950 . S
C2872 C2873 1.386 . S
C2872 C2874 1.391 . S
C2873 C2872 1.386 . S
C2873 C2877 1.393 . S
C2874 H2866 0.950 . S
C2874 C2872 1.391 . S
C2874 C2875 1.400 . S
C2875 C2874 1.400 . S
C2875 C2876 1.398 . S
C2875 C2881 1.491 . S
C2876 H2867 0.950 . S
C2876 C2875 1.398 . S
C2876 C2877 1.391 . S
C2877 H2865 0.950 . S
C2877 C2873 1.393 . S
C2877 C2876 1.391 . S
C2878 H2868 0.950 . S
C2878 C2879 1.386 . S
C2878 C2880 1.391 . S
C2879 C2878 1.386 . S
C2879 C2883 1.393 . S
C2880 H2869 0.950 . S
C2880 C2878 1.391 . S
C2880 C2881 1.400 . S
C2881 C2875 1.491 . S
C2881 C2880 1.400 . S
C2881 C2882 1.398 . S
C2882 H2870 0.950 . S
C2882 C2881 1.398 . S
C2882 C2883 1.391 . S
C2883 H2871 0.950 . S
C2883 C2879 1.393 . S
C2883 C2882 1.391 . S
H2884 C2892 0.950 . S
H2885 C2897 0.950 . S
H2886 C2894 0.950 . S
H2887 C2896 0.950 . S
H2888 C2898 0.950 . S
H2889 C2900 0.950 . S
H2890 C2902 0.950 . S
H2891 C2903 0.950 . S
C2892 H2884 0.950 . S
C2892 C2893 1.386 . S
C2892 C2894 1.391 . S
C2893 C2892 1.386 . S
C2893 C2897 1.393 . S
C2894 H2886 0.950 . S
C2894 C2892 1.391 . S
C2894 C2895 1.400 . S
C2895 C2894 1.400 . S
C2895 C2896 1.398 . S
C2895 C2901 1.491 . S
C2896 H2887 0.950 . S
C2896 C2895 1.398 . S
C2896 C2897 1.391 . S
C2897 H2885 0.950 . S
C2897 C2893 1.393 . S
C2897 C2896 1.391 . S
C2898 H2888 0.950 . S
C2898 C2899 1.386 . S
C2898 C2900 1.391 . S
C2899 C2898 1.386 . S
C2899 C2903 1.393 . S
C2900 H2889 0.950 . S
C2900 C2898 1.391 . S
C2900 C2901 1.400 . S
C2901 C2895 1.491 . S
C2901 C2900 1.400 . S
C2901 C2902 1.398 . S
C2902 H2890 0.950 . S
C2902 C2901 1.398 . S
C2902 C2903 1.391 . S
C2903 H2891 0.950 . S
C2903 C2899 1.393 . S
C2903 C2902 1.391 . S
H2904 C2912 0.950 . S
H2905 C2917 0.950 . S
H2906 C2914 0.950 . S
H2907 C2916 0.950 . S
H2908 C2918 0.950 . S
H2909 C2920 0.950 . S
H2910 C2922 0.950 . S
H2911 C2923 0.950 . S
C2912 H2904 0.950 . S
C2912 C2913 1.386 . S
C2912 C2914 1.391 . S
C2913 C2912 1.386 . S
C2913 C2917 1.393 . S
C2914 H2906 0.950 . S
C2914 C2912 1.391 . S
C2914 C2915 1.400 . S
C2915 C2914 1.400 . S
C2915 C2916 1.398 . S
C2915 C2921 1.491 . S
C2916 H2907 0.950 . S
C2916 C2915 1.398 . S
C2916 C2917 1.391 . S
C2917 H2905 0.950 . S
C2917 C2913 1.393 . S
C2917 C2916 1.391 . S
C2918 H2908 0.950 . S
C2918 C2919 1.386 . S
C2918 C2920 1.391 . S
C2919 C2918 1.386 . S
C2919 C2923 1.393 . S
C2920 H2909 0.950 . S
C2920 C2918 1.391 . S
C2920 C2921 1.400 . S
C2921 C2915 1.491 . S
C2921 C2920 1.400 . S
C2921 C2922 1.398 . S
C2922 H2910 0.950 . S
C2922 C2921 1.398 . S
C2922 C2923 1.391 . S
C2923 H2911 0.950 . S
C2923 C2919 1.393 . S
C2923 C2922 1.391 . S
H2924 C2932 0.950 . S
H2925 C2937 0.950 . S
H2926 C2934 0.950 . S
H2927 C2936 0.950 . S
H2928 C2938 0.950 . S
H2929 C2940 0.950 . S
H2930 C2942 0.950 . S
H2931 C2943 0.950 . S
C2932 H2924 0.950 . S
C2932 C2933 1.386 . S
C2932 C2934 1.391 . S
C2933 C2932 1.386 . S
C2933 C2937 1.393 . S
C2934 H2926 0.950 . S
C2934 C2932 1.391 . S
C2934 C2935 1.400 . S
C2935 C2934 1.400 . S
C2935 C2936 1.398 . S
C2935 C2941 1.491 . S
C2936 H2927 0.950 . S
C2936 C2935 1.398 . S
C2936 C2937 1.391 . S
C2937 H2925 0.950 . S
C2937 C2933 1.393 . S
C2937 C2936 1.391 . S
C2938 H2928 0.950 . S
C2938 C2939 1.386 . S
C2938 C2940 1.391 . S
C2939 C2938 1.386 . S
C2939 C2943 1.393 . S
C2940 H2929 0.950 . S
C2940 C2938 1.391 . S
C2940 C2941 1.400 . S
C2941 C2935 1.491 . S
C2941 C2940 1.400 . S
C2941 C2942 1.398 . S
C2942 H2930 0.950 . S
C2942 C2941 1.398 . S
C2942 C2943 1.391 . S
C2943 H2931 0.950 . S
C2943 C2939 1.393 . S
C2943 C2942 1.391 . S
H2944 C2952 0.950 . S
H2945 C2957 0.950 . S
H2946 C2954 0.950 . S
H2947 C2956 0.950 . S
H2948 C2958 0.950 . S
H2949 C2960 0.950 . S
H2950 C2962 0.950 . S
H2951 C2963 0.950 . S
C2952 H2944 0.950 . S
C2952 C2953 1.386 . S
C2952 C2954 1.391 . S
C2953 C2952 1.386 . S
C2953 C2957 1.393 . S
C2954 H2946 0.950 . S
C2954 C2952 1.391 . S
C2954 C2955 1.400 . S
C2955 C2954 1.400 . S
C2955 C2956 1.398 . S
C2955 C2961 1.491 . S
C2956 H2947 0.950 . S
C2956 C2955 1.398 . S
C2956 C2957 1.391 . S
C2957 H2945 0.950 . S
C2957 C2953 1.393 . S
C2957 C2956 1.391 . S
C2958 H2948 0.950 . S
C2958 C2959 1.386 . S
C2958 C2960 1.391 . S
C2959 C2958 1.386 . S
C2959 C2963 1.393 . S
C2960 H2949 0.950 . S
C2960 C2958 1.391 . S
C2960 C2961 1.400 . S
C2961 C2955 1.491 . S
C2961 C2960 1.400 . S
C2961 C2962 1.398 . S
C2962 H2950 0.950 . S
C2962 C2961 1.398 . S
C2962 C2963 1.391 . S
C2963 H2951 0.950 . S
C2963 C2959 1.393 . S
C2963 C2962 1.391 . S
H2964 C2972 0.950 . S
H2965 C2977 0.950 . S
H2966 C2974 0.950 . S
H2967 C2976 0.950 . S
H2968 C2978 0.950 . S
H2969 C2980 0.950 . S
H2970 C2982 0.950 . S
H2971 C2983 0.950 . S
C2972 H2964 0.950 . S
C2972 C2973 1.386 . S
C2972 C2974 1.391 . S
C2973 C2972 1.386 . S
C2973 C2977 1.393 . S
C2974 H2966 0.950 . S
C2974 C2972 1.391 . S
C2974 C2975 1.400 . S
C2975 C2974 1.400 . S
C2975 C2976 1.398 . S
C2975 C2981 1.491 . S
C2976 H2967 0.950 . S
C2976 C2975 1.398 . S
C2976 C2977 1.391 . S
C2977 H2965 0.950 . S
C2977 C2973 1.393 . S
C2977 C2976 1.391 . S
C2978 H2968 0.950 . S
C2978 C2979 1.386 . S
C2978 C2980 1.391 . S
C2979 C2978 1.386 . S
C2979 C2983 1.393 . S
C2980 H2969 0.950 . S
C2980 C2978 1.391 . S
C2980 C2981 1.400 . S
C2981 C2975 1.491 . S
C2981 C2980 1.400 . S
C2981 C2982 1.398 . S
C2982 H2970 0.950 . S
C2982 C2981 1.398 . S
C2982 C2983 1.391 . S
C2983 H2971 0.950 . S
C2983 C2979 1.393 . S
C2983 C2982 1.391 . S
H2984 C2992 0.950 . S
H2985 C2997 0.950 . S
H2986 C2994 0.950 . S
H2987 C2996 0.950 . S
H2988 C2998 0.950 . S
H2989 C3000 0.950 . S
H2990 C3002 0.950 . S
H2991 C3003 0.950 . S
C2992 H2984 0.950 . S
C2992 C2993 1.386 . S
C2992 C2994 1.391 . S
C2993 C2992 1.386 . S
C2993 C2997 1.393 . S
C2994 H2986 0.950 . S
C2994 C2992 1.391 . S
C2994 C2995 1.400 . S
C2995 C2994 1.400 . S
C2995 C2996 1.398 . S
C2995 C3001 1.491 . S
C2996 H2987 0.950 . S
C2996 C2995 1.398 . S
C2996 C2997 1.391 . S
C2997 H2985 0.950 . S
C2997 C2993 1.393 . S
C2997 C2996 1.391 . S
C2998 H2988 0.950 . S
C2998 C2999 1.386 . S
C2998 C3000 1.391 . S
C2999 C2998 1.386 . S
C2999 C3003 1.393 . S
C3000 H2989 0.950 . S
C3000 C2998 1.391 . S
C3000 C3001 1.400 . S
C3001 C2995 1.491 . S
C3001 C3000 1.400 . S
C3001 C3002 1.398 . S
C3002 H2990 0.950 . S
C3002 C3001 1.398 . S
C3002 C3003 1.391 . S
C3003 H2991 0.950 . S
C3003 C2999 1.393 . S
C3003 C3002 1.391 . S
H3004 C3012 0.950 . S
H3005 C3017 0.950 . S
H3006 C3014 0.950 . S
H3007 C3016 0.950 . S
H3008 C3018 0.950 . S
H3009 C3020 0.950 . S
H3010 C3022 0.950 . S
H3011 C3023 0.950 . S
C3012 H3004 0.950 . S
C3012 C3013 1.386 . S
C3012 C3014 1.391 . S
C3013 C3012 1.386 . S
C3013 C3017 1.393 . S
C3014 H3006 0.950 . S
C3014 C3012 1.391 . S
C3014 C3015 1.400 . S
C3015 C3014 1.400 . S
C3015 C3016 1.398 . S
C3015 C3021 1.491 . S
C3016 H3007 0.950 . S
C3016 C3015 1.398 . S
C3016 C3017 1.391 . S
C3017 H3005 0.950 . S
C3017 C3013 1.393 . S
C3017 C3016 1.391 . S
C3018 H3008 0.950 . S
C3018 C3019 1.386 . S
C3018 C3020 1.391 . S
C3019 C3018 1.386 . S
C3019 C3023 1.393 . S
C3020 H3009 0.950 . S
C3020 C3018 1.391 . S
C3020 C3021 1.400 . S
C3021 C3015 1.491 . S
C3021 C3020 1.400 . S
C3021 C3022 1.398 . S
C3022 H3010 0.950 . S
C3022 C3021 1.398 . S
C3022 C3023 1.391 . S
C3023 H3011 0.950 . S
C3023 C3019 1.393 . S
C3023 C3022 1.391 . S
C1113 N219 2.161 . S
C1119 N12 2.172 . S
C1133 N242 2.168 . S
C1139 N35 2.161 1_455 S
C1153 N265 2.162 1_556 S
C1159 N58 2.174 . S
C1173 N196 2.177 . S
C1179 N81 2.165 . S
C1193 N104 2.161 . S
C1199 N357 2.171 1_554 S
C1213 N127 2.170 . S
C1219 N288 2.179 . S
C1233 N150 2.163 . S
C1239 N311 2.175 . S
C1253 N334 2.164 . S
C1259 N173 2.163 1_455 S
C1273 N380 2.164 . S
C1279 N426 2.176 . S
C1293 N403 2.173 . S
C1299 N1070 2.178 1_545 S
C1313 N449 2.177 . S
C1319 N1093 2.175 1_565 S
C1333 N472 2.179 1_545 S
C1339 N1047 2.169 . S
C1353 N495 2.168 . S
C1359 N1024 2.179 . S
C1373 N955 2.173 . S
C1379 N518 2.178 . S
C1393 N541 2.162 . S
C1399 N1001 2.166 . S
C1413 N771 2.176 1_556 S
C1419 N564 2.176 . S
C1433 N794 2.161 . S
C1439 N587 2.170 . S
C1453 N817 2.172 . S
C1459 N610 2.161 . S
C1473 N748 2.176 . S
C1479 N633 2.164 1_655 S
C1493 N909 2.179 . S
C1499 N656 2.170 . S
C1513 N840 2.176 . S
C1519 N679 2.176 1_655 S
C1533 N702 2.164 . S
C1539 N863 2.176 1_554 S
C1553 N725 2.161 . S
C1559 N886 2.169 . S
C1573 N932 2.177 . S
C1579 N978 2.175 1_565 S
C1593 C384 1.058 . S
C1599 N2 1.048 . S
C1613 C1097 1.032 . S
C1619 N25 1.019 . S
C1633 N48 1.034 . S
C1639 C499 1.050 . S
C1653 C1074 1.041 . S
C1659 N71 1.024 . S
C1673 N94 1.050 . S
C1679 C959 1.059 . S
C1693 C982 1.027 . S
C1699 N117 1.024 . S
C1713 N140 1.021 . S
C1719 C1005 1.027 . S
C1733 C476 1.054 . S
C1739 N163 1.039 . S
C1753 N186 1.046 . S
C1759 C16 1.041 . S
C1773 C39 1.028 . S
C1779 N209 1.019 . S
C1793 N232 1.040 . S
C1799 C62 1.035 . S
C1813 C85 1.059 . S
C1819 N255 1.051 . S
C1833 N278 1.028 . S
C1839 C108 1.028 . S
C1853 C131 1.031 . S
C1859 N301 1.019 . S
C1873 N324 1.041 . S
C1879 C154 1.036 . S
C1893 N347 1.023 . S
C1899 C177 1.026 . S
C1913 N370 1.054 . S
C1919 C200 1.055 . S
C1933 N393 1.054 . S
C1939 C844 1.054 . S
C1953 C867 1.027 . S
C1959 N416 1.020 . S
C1973 C890 1.030 . S
C1979 N439 1.019 . S
C1993 C361 1.035 . S
C1999 N462 1.020 . S
C2013 N485 1.047 . S
C2019 C246 1.042 . S
C2033 C821 1.029 . S
C2039 N508 1.019 . S
C2053 N531 1.019 . S
C2059 C775 1.031 . S
C2073 N554 1.051 . S
C2079 C936 1.059 . S
C2093 N577 1.033 . S
C2099 C545 1.031 . S
C2113 N600 1.019 . S
C2119 C1051 1.028 . S
C2133 N623 1.047 . S
C2139 C522 1.058 . S
C2153 N646 1.048 . S
C2159 C407 1.058 . S
C2173 N669 1.019 . S
C2179 C430 1.031 . S
C2193 C453 1.048 . S
C2199 N692 1.052 . S
C2213 C1028 1.058 . S
C2219 N715 1.054 . S
C2233 C568 1.031 . S
C2239 N738 1.019 . S
C2253 C591 1.030 . S
C2259 N761 1.032 . S
C2273 N784 1.054 . S
C2279 C614 1.057 . S
C2293 C637 1.048 . S
C2299 N807 1.031 . S
C2313 N830 1.027 . S
C2319 C660 1.027 . S
C2333 N853 1.038 . S
C2339 C683 1.034 . S
C2353 N876 1.053 . S
C2359 C706 1.058 . S
C2373 C729 1.042 . S
C2379 N899 1.047 . S
C2393 N922 1.019 . S
C2399 C752 1.032 . S
C2413 N945 1.023 . S
C2419 C292 1.040 . S
C2433 C315 1.059 . S
C2439 N968 1.052 . S
C2453 N991 1.036 . S
C2459 C338 1.052 . S
C2473 N1014 1.030 . S
C2479 C913 1.029 . S
C2493 C798 1.058 . S
C2499 N1037 1.047 . S
C2513 C269 1.058 . S
C2519 N1060 1.048 . S
C2533 C223 1.034 . S
C2539 N1083 1.020 . S
C2553 C513 1.386 . S
C2559 C7 1.380 . S
C2573 C30 1.399 . S
C2579 C927 1.406 . S
C2593 C53 1.401 . S
C2599 C536 1.407 . S
C2613 C1042 1.393 . S
C2619 C76 1.385 . S
C2633 C99 1.394 . S
C2639 C421 1.402 . S
C2653 C444 1.379 . S
C2659 C122 1.380 . S
C2673 C1019 1.398 . S
C2679 C145 1.405 . S
C2693 C168 1.408 . S
C2699 C398 1.405 . S
C2713 C306 1.383 . S
C2719 C191 1.390 . S
C2733 C214 1.408 . S
C2739 C329 1.405 . S
C2753 C352 1.402 . S
C2759 C237 1.407 . S
C2773 C260 1.387 . S
C2779 C283 1.395 . S
C2793 C582 1.405 . S
C2799 C375 1.408 . S
C2813 C467 1.385 . S
C2819 C697 1.393 . S
C2833 C490 1.379 . S
C2839 C628 1.384 . S
C2853 C1065 1.397 . S
C2859 C559 1.389 . S
C2873 C605 1.408 . S
C2879 C1088 1.405 . S
C2893 C651 1.399 . S
C2899 C973 1.391 . S
C2913 C674 1.392 . S
C2919 C996 1.400 . S
C2933 C950 1.387 . S
C2939 C720 1.381 . S
C2953 C858 1.408 . S
C2959 C743 1.405 . S
C2973 C766 1.384 . S
C2979 C881 1.379 . S
C2993 C789 1.380 . S
C2999 C904 1.379 . S
C3013 C835 1.403 . S
C3019 C812 1.408 . S
