# Generated by pormake.
# Topology ske, (6)-cn, num edge types: 1
# Building blocks:
#     Node 0, Type 0, BuildingBlock: HISSIN_clean_sbu_0, # of connection points: 6
#     Node 1, Type 0, BuildingBlock: HISSIN_clean_sbu_0, # of connection points: 6
#     Node 2, Type 0, BuildingBlock: HISSIN_clean_sbu_0, # of connection points: 6
#     Node 3, Type 0, BuildingBlock: HISSIN_clean_sbu_0, # of connection points: 6
#     Node 4, Type 0, BuildingBlock: HISSIN_clean_sbu_0, # of connection points: 6
#     Node 5, Type 0, BuildingBlock: HISSIN_clean_sbu_0, # of connection points: 6
#     Node 6, Type 0, BuildingBlock: HISSIN_clean_sbu_0, # of connection points: 6
#     Node 7, Type 0, BuildingBlock: HISSIN_clean_sbu_0, # of connection points: 6
#     Edge 8, Type (0, 0), BuildingBlock: UVAHIK_clean_linker_0, # of connection points: 2
#     Edge 9, Type (0, 0), BuildingBlock: UVAHIK_clean_linker_0, # of connection points: 2
#     Edge 10, Type (0, 0), BuildingBlock: UVAHIK_clean_linker_0, # of connection points: 2
#     Edge 11, Type (0, 0), BuildingBlock: UVAHIK_clean_linker_0, # of connection points: 2
#     Edge 12, Type (0, 0), BuildingBlock: UVAHIK_clean_linker_0, # of connection points: 2
#     Edge 13, Type (0, 0), BuildingBlock: UVAHIK_clean_linker_0, # of connection points: 2
#     Edge 14, Type (0, 0), BuildingBlock: UVAHIK_clean_linker_0, # of connection points: 2
#     Edge 15, Type (0, 0), BuildingBlock: UVAHIK_clean_linker_0, # of connection points: 2
#     Edge 16, Type (0, 0), BuildingBlock: UVAHIK_clean_linker_0, # of connection points: 2
#     Edge 17, Type (0, 0), BuildingBlock: UVAHIK_clean_linker_0, # of connection points: 2
#     Edge 18, Type (0, 0), BuildingBlock: UVAHIK_clean_linker_0, # of connection points: 2
#     Edge 19, Type (0, 0), BuildingBlock: UVAHIK_clean_linker_0, # of connection points: 2
#     Edge 20, Type (0, 0), BuildingBlock: UVAHIK_clean_linker_0, # of connection points: 2
#     Edge 21, Type (0, 0), BuildingBlock: UVAHIK_clean_linker_0, # of connection points: 2
#     Edge 22, Type (0, 0), BuildingBlock: UVAHIK_clean_linker_0, # of connection points: 2
#     Edge 23, Type (0, 0), BuildingBlock: UVAHIK_clean_linker_0, # of connection points: 2
#     Edge 24, Type (0, 0), BuildingBlock: UVAHIK_clean_linker_0, # of connection points: 2
#     Edge 25, Type (0, 0), BuildingBlock: UVAHIK_clean_linker_0, # of connection points: 2
#     Edge 26, Type (0, 0), BuildingBlock: UVAHIK_clean_linker_0, # of connection points: 2
#     Edge 27, Type (0, 0), BuildingBlock: UVAHIK_clean_linker_0, # of connection points: 2
#     Edge 28, Type (0, 0), BuildingBlock: UVAHIK_clean_linker_0, # of connection points: 2
#     Edge 29, Type (0, 0), BuildingBlock: UVAHIK_clean_linker_0, # of connection points: 2
#     Edge 30, Type (0, 0), BuildingBlock: UVAHIK_clean_linker_0, # of connection points: 2
#     Edge 31, Type (0, 0), BuildingBlock: UVAHIK_clean_linker_0, # of connection points: 2
# Relax obj value: 0.189
# Max RMSD: 0.197
# Mean RMSD: 0.191
data_MOF--net-ske--node1-HISSIN_clean_sbu_0--edge1-UVAHIK_clean_linker_0
_symmetry_space_group_name_H-M    P1
_symmetry_Int_Tables_number       1
_symmetry_cell_setting            triclinic
loop_
_symmetry_equiv_pos_as_xyz
'x, y, z'
_cell_length_a     121.51353
_cell_length_b     39.17474
_cell_length_c     19.978263
_cell_angle_alpha  89.871941
_cell_angle_beta   89.970255
_cell_angle_gamma 97.922789
loop_
_atom_site_label
_atom_site_type_symbol
_atom_site_fract_x
_atom_site_fract_y
_atom_site_fract_z
_atom_type_partial_charge
Eu0 Eu 0.11812 0.25124 0.53598 0.0
Eu1 Eu 0.1459 0.25443 0.53252 0.0
C2 C 0.13431 0.32124 0.53464 0.0
C3 C 0.08558 0.24259 0.5092 0.0
C4 C 0.08262 0.26103 0.45305 0.0
C5 C 0.06637 0.21533 0.51839 0.0
C6 C 0.07159 0.25721 0.43081 0.0
C7 C 0.07739 0.21918 0.54062 0.0
C8 C 0.06326 0.23497 0.46431 0.0
C9 C 0.09657 0.25088 0.54175 0.0
O10 O 0.14184 0.26247 0.64101 0.0
O11 O 0.12311 0.24178 0.64216 0.0
C12 C 0.13252 0.25201 0.6732 0.0
O13 O 0.12199 0.19887 0.50719 0.0
O14 O 0.16228 0.28382 0.54803 0.0
O15 O 0.1609 0.23194 0.50798 0.0
O16 O 0.13846 0.20122 0.56405 0.0
C17 C 0.12969 0.18355 0.53617 0.0
O18 O 0.12276 0.25976 0.42727 0.0
O19 O 0.14027 0.24314 0.42661 0.0
O20 O 0.14131 0.30549 0.50064 0.0
O21 O 0.10157 0.22562 0.56382 0.0
O22 O 0.10351 0.27657 0.51834 0.0
O23 O 0.12616 0.3036 0.56798 0.0
C24 C 0.17777 0.25339 0.56599 0.0
C25 C 0.18138 0.22081 0.56915 0.0
C26 C 0.19501 0.27824 0.61994 0.0
C27 C 0.19174 0.21708 0.59683 0.0
C28 C 0.18467 0.28195 0.59227 0.0
C29 C 0.19876 0.24585 0.62169 0.0
C30 C 0.16761 0.25881 0.52861 0.0
C31 C 0.13146 0.25122 0.39532 0.0
H32 H 0.08873 0.27938 0.42779 0.0
H33 H 0.0602 0.19827 0.54596 0.0
H34 H 0.06952 0.27236 0.38838 0.0
H35 H 0.07939 0.20499 0.58456 0.0
H36 H 0.17633 0.1983 0.54874 0.0
H37 H 0.20024 0.30106 0.63757 0.0
H38 H 0.19431 0.19169 0.59805 0.0
H39 H 0.18225 0.30751 0.58944 0.0
Eu40 Eu 0.89052 0.24662 0.49398 0.0
Eu41 Eu 0.86265 0.2403 0.49055 0.0
C42 C 0.87527 0.17454 0.49153 0.0
C43 C 0.92285 0.24401 0.47365 0.0
C44 C 0.92847 0.21973 0.50631 0.0
C45 C 0.93917 0.25981 0.40341 0.0
C46 C 0.93938 0.21599 0.48873 0.0
C47 C 0.92824 0.26357 0.42108 0.0
C48 C 0.94498 0.23658 0.43817 0.0
C49 C 0.91221 0.25212 0.50179 0.0
O50 O 0.86719 0.25158 0.59834 0.0
O51 O 0.88471 0.23531 0.59981 0.0
C52 C 0.8759 0.24357 0.63079 0.0
O53 O 0.88547 0.29728 0.52369 0.0
O54 O 0.84611 0.21114 0.47406 0.0
O55 O 0.84785 0.26551 0.49883 0.0
O56 O 0.87017 0.29304 0.45709 0.0
C57 C 0.87807 0.31175 0.49044 0.0
O58 O 0.8863 0.25301 0.38499 0.0
O59 O 0.86764 0.23089 0.38442 0.0
O60 O 0.86738 0.18895 0.52049 0.0
O61 O 0.90694 0.27455 0.47119 0.0
O62 O 0.90548 0.2272 0.52947 0.0
O63 O 0.88377 0.19306 0.46255 0.0
C64 C 0.83069 0.23157 0.52873 0.0
C65 C 0.82849 0.25509 0.57842 0.0
C66 C 0.81199 0.20104 0.54401 0.0
C67 C 0.81808 0.25198 0.6096 0.0
C68 C 0.82239 0.20424 0.51264 0.0
C69 C 0.80961 0.22529 0.59192 0.0
C70 C 0.84097 0.23745 0.48786 0.0
C71 C 0.87701 0.24175 0.35311 0.0
H72 H 0.92462 0.20469 0.5478 0.0
H73 H 0.94317 0.27575 0.36358 0.0
H74 H 0.9436 0.19819 0.51732 0.0
H75 H 0.92419 0.28273 0.3952 0.0
H76 H 0.83466 0.27665 0.59172 0.0
H77 H 0.80575 0.17982 0.52988 0.0
H78 H 0.81654 0.27141 0.6456 0.0
H79 H 0.82382 0.18588 0.47422 0.0
Eu80 Eu 0.1478 0.76212 0.50234 0.0
Eu81 Eu 0.11992 0.74579 0.49854 0.0
C82 C 0.13509 0.68593 0.50603 0.0
C83 C 0.17994 0.77165 0.47104 0.0
C84 C 0.1824 0.73921 0.45069 0.0
C85 C 0.19844 0.79724 0.43614 0.0
C86 C 0.19288 0.73581 0.4241 0.0
C87 C 0.188 0.80061 0.4627 0.0
C88 C 0.20109 0.76474 0.41752 0.0
C89 C 0.16949 0.77585 0.50604 0.0
O90 O 0.12388 0.7571 0.60722 0.0
O91 O 0.14253 0.7509 0.60916 0.0
C92 C 0.13313 0.75409 0.63977 0.0
O93 O 0.14077 0.80944 0.53426 0.0
O94 O 0.10424 0.71191 0.47976 0.0
O95 O 0.10417 0.76584 0.50492 0.0
O96 O 0.12566 0.80024 0.46645 0.0
C97 C 0.13273 0.82111 0.50165 0.0
O98 O 0.14312 0.76724 0.3938 0.0
O99 O 0.12556 0.73623 0.39382 0.0
O100 O 0.12644 0.69765 0.53225 0.0
O101 O 0.16313 0.79639 0.47916 0.0
O102 O 0.16383 0.74864 0.53356 0.0
O103 O 0.14303 0.70648 0.47592 0.0
C104 C 0.08733 0.7281 0.52473 0.0
C105 C 0.08457 0.74624 0.5816 0.0
C106 C 0.06802 0.70192 0.51612 0.0
C107 C 0.07356 0.74296 0.6043 0.0
C108 C 0.07901 0.70524 0.49344 0.0
C109 C 0.06509 0.72154 0.57057 0.0
C110 C 0.0982 0.73643 0.49095 0.0
C111 C 0.1344 0.75133 0.36209 0.0
H112 H 0.17635 0.71639 0.45674 0.0
H113 H 0.20447 0.82016 0.43066 0.0
H114 H 0.19465 0.71036 0.41074 0.0
H115 H 0.1863 0.82586 0.47816 0.0
H116 H 0.09082 0.76406 0.60682 0.0
H117 H 0.06173 0.68544 0.48846 0.0
H118 H 0.07164 0.758 0.64708 0.0
H119 H 0.0809 0.69126 0.4491 0.0
Eu120 Eu 0.86514 0.74078 0.54768 0.0
Eu121 Eu 0.89307 0.74898 0.54407 0.0
C122 C 0.88007 0.813 0.54986 0.0
C123 C 0.83312 0.73043 0.51082 0.0
C124 C 0.83132 0.75168 0.45618 0.0
C125 C 0.81398 0.70264 0.5014 0.0
C126 C 0.82087 0.74898 0.4256 0.0
C127 C 0.82441 0.70549 0.53222 0.0
C128 C 0.812 0.72494 0.44879 0.0
C129 C 0.84344 0.73657 0.55111 0.0
O130 O 0.88872 0.75388 0.65322 0.0
O131 O 0.8702 0.73031 0.65332 0.0
C132 C 0.8795 0.74162 0.68488 0.0
O133 O 0.87023 0.69045 0.51503 0.0
O134 O 0.90943 0.77655 0.56998 0.0
O135 O 0.90813 0.73165 0.50537 0.0
O136 O 0.88665 0.69457 0.57251 0.0
C137 C 0.87824 0.6761 0.5428 0.0
O138 O 0.86958 0.75331 0.44 0.0
O139 O 0.88735 0.73892 0.43785 0.0
O140 O 0.88769 0.79962 0.51644 0.0
O141 O 0.84875 0.71052 0.56406 0.0
O142 O 0.85014 0.76504 0.54023 0.0
O143 O 0.87236 0.79333 0.58307 0.0
C144 C 0.92538 0.74627 0.56323 0.0
C145 C 0.93061 0.7211 0.53062 0.0
C146 C 0.94199 0.76065 0.6315 0.0
C147 C 0.94146 0.71619 0.54729 0.0
C148 C 0.93112 0.7656 0.61471 0.0
C149 C 0.9474 0.73645 0.59687 0.0
C150 C 0.91479 0.75549 0.53628 0.0
C151 C 0.87841 0.7465 0.40725 0.0
H152 H 0.83787 0.77117 0.43838 0.0
H153 H 0.80732 0.68405 0.5209 0.0
H154 H 0.81968 0.76619 0.38455 0.0
H155 H 0.82554 0.68903 0.57463 0.0
H156 H 0.92651 0.70619 0.4899 0.0
H157 H 0.94625 0.7764 0.67059 0.0
H158 H 0.94537 0.69768 0.51879 0.0
H159 H 0.92739 0.78546 0.64043 0.0
Eu160 Eu 0.62216 0.7463 0.09293 0.0
Eu161 Eu 0.64982 0.7482 0.08909 0.0
C162 C 0.63847 0.81595 0.07999 0.0
C163 C 0.58951 0.74542 0.07185 0.0
C164 C 0.58568 0.77399 0.04142 0.0
C165 C 0.57062 0.71485 0.06753 0.0
C166 C 0.57443 0.77332 0.02589 0.0
C167 C 0.58189 0.71558 0.08343 0.0
C168 C 0.56671 0.74412 0.04051 0.0
C169 C 0.60078 0.74908 0.1019 0.0
O170 O 0.64565 0.75793 0.19679 0.0
O171 O 0.62719 0.73474 0.19792 0.0
C172 C 0.63647 0.7462 0.22915 0.0
O173 O 0.62541 0.69346 0.06106 0.0
O174 O 0.66627 0.77769 0.10271 0.0
O175 O 0.66476 0.72453 0.06942 0.0
O176 O 0.64225 0.6937 0.11319 0.0
C177 C 0.63333 0.67707 0.08467 0.0
O178 O 0.62645 0.7525 0.98327 0.0
O179 O 0.64433 0.73839 0.98242 0.0
O180 O 0.64565 0.79889 0.05073 0.0
O181 O 0.60529 0.72165 0.11706 0.0
O182 O 0.60809 0.77477 0.08262 0.0
O183 O 0.63058 0.79968 0.11748 0.0
C184 C 0.68158 0.74773 0.1249 0.0
C185 C 0.68197 0.72052 0.17039 0.0
C186 C 0.70108 0.76758 0.14685 0.0
C187 C 0.69191 0.71682 0.20369 0.0
C188 C 0.6912 0.7712 0.11374 0.0
C189 C 0.70161 0.74033 0.19219 0.0
C190 C 0.67151 0.75203 0.0863 0.0
C191 C 0.63531 0.74507 0.95134 0.0
H192 H 0.59127 0.79757 0.03245 0.0
H193 H 0.56488 0.69204 0.0799 0.0
H194 H 0.57172 0.79613 1.00426 0.0
H195 H 0.58452 0.69334 0.10784 0.0
H196 H 0.67463 0.7021 0.17989 0.0
H197 H 0.70839 0.78581 0.13571 0.0
H198 H 0.692 0.69572 0.23871 0.0
H199 H 0.6911 0.79224 0.0785 0.0
Eu200 Eu 0.39207 0.73058 0.09239 0.0
Eu201 Eu 0.36423 0.72328 0.08808 0.0
C202 C 0.37692 0.65837 0.08102 0.0
C203 C 0.42489 0.73528 0.0729 0.0
C204 C 0.43041 0.70619 0.0674 0.0
C205 C 0.44212 0.77139 0.04203 0.0
C206 C 0.44167 0.7096 0.05072 0.0
C207 C 0.43082 0.76795 0.05908 0.0
C208 C 0.44776 0.74228 0.03905 0.0
C209 C 0.41359 0.73098 0.1024 0.0
O210 O 0.36868 0.71569 0.19628 0.0
O211 O 0.38681 0.74199 0.19677 0.0
C212 C 0.37768 0.72921 0.22829 0.0
O213 O 0.38791 0.78274 0.06121 0.0
O214 O 0.34825 0.69195 0.10821 0.0
O215 O 0.34872 0.74248 0.06249 0.0
O216 O 0.37051 0.77901 0.10874 0.0
C217 C 0.37932 0.79711 0.08167 0.0
O218 O 0.38803 0.72391 0.98257 0.0
O219 O 0.36957 0.73274 0.98105 0.0
O220 O 0.3694 0.67381 0.05101 0.0
O221 O 0.40866 0.75792 0.11433 0.0
O222 O 0.40665 0.70405 0.08514 0.0
O223 O 0.38456 0.67616 0.11795 0.0
C224 C 0.33233 0.72041 0.12409 0.0
C225 C 0.33003 0.75326 0.14303 0.0
C226 C 0.31406 0.69573 0.16468 0.0
C227 C 0.31976 0.7573 0.17174 0.0
C228 C 0.3243 0.69172 0.13611 0.0
C229 C 0.31156 0.72862 0.1817 0.0
C230 C 0.34247 0.71541 0.0864 0.0
C231 C 0.37889 0.72866 0.95036 0.0
H232 H 0.42612 0.68074 0.07902 0.0
H233 H 0.44649 0.79693 0.03249 0.0
H234 H 0.4457 0.68662 0.05025 0.0
H235 H 0.42683 0.79093 0.06348 0.0
H236 H 0.33604 0.77592 0.13413 0.0
H237 H 0.30804 0.67301 0.17272 0.0
H238 H 0.31809 0.78302 0.18386 0.0
H239 H 0.32584 0.66614 0.12175 0.0
Eu240 Eu 0.64736 0.25204 0.94474 0.0
Eu241 Eu 0.61957 0.23748 0.94248 0.0
C242 C 0.63452 0.17529 0.94318 0.0
C243 C 0.67941 0.25936 0.91185 0.0
C244 C 0.68031 0.22966 0.87406 0.0
C245 C 0.69892 0.27951 0.89095 0.0
C246 C 0.69054 0.22481 0.84544 0.0
C247 C 0.68875 0.28435 0.91924 0.0
C248 C 0.70001 0.24947 0.85454 0.0
C249 C 0.66911 0.26443 0.94723 0.0
O250 O 0.62382 0.25203 0.04951 0.0
O251 O 0.6419 0.24032 0.05144 0.0
C252 C 0.63279 0.24638 0.08231 0.0
O253 O 0.64147 0.30094 0.98029 0.0
O254 O 0.60373 0.21162 0.98168 0.0
O255 O 0.60401 0.24324 0.89222 0.0
O256 O 0.62404 0.29514 0.9336 0.0
C257 C 0.63261 0.31412 0.96118 0.0
O258 O 0.64232 0.2599 0.83781 0.0
O259 O 0.62544 0.22565 0.83904 0.0
O260 O 0.62566 0.18712 0.9662 0.0
O261 O 0.66285 0.28515 0.92003 0.0
O262 O 0.66333 0.23754 0.97497 0.0
O263 O 0.64295 0.19594 0.91795 0.0
C264 C 0.58715 0.23522 0.95566 0.0
C265 C 0.58465 0.26861 0.94304 0.0
C266 C 0.56817 0.21832 0.99395 0.0
C267 C 0.57391 0.27658 0.95479 0.0
C268 C 0.57887 0.21039 0.98215 0.0
C269 C 0.56549 0.25133 0.97936 0.0
C270 C 0.59786 0.22438 0.93568 0.0
C271 C 0.63385 0.2426 0.80631 0.0
H272 H 0.67319 0.21002 0.86772 0.0
H273 H 0.70598 0.29932 0.89787 0.0
H274 H 0.6911 0.20134 0.81789 0.0
H275 H 0.68821 0.30748 0.94803 0.0
H276 H 0.59088 0.2883 0.92258 0.0
H277 H 0.56189 0.19807 1.01194 0.0
H278 H 0.57217 0.30238 0.94381 0.0
H279 H 0.58057 0.18437 0.99161 0.0
Eu280 Eu 0.36378 0.22425 0.94086 0.0
Eu281 Eu 0.39147 0.23064 0.93659 0.0
C282 C 0.3791 0.29739 0.9474 0.0
C283 C 0.33204 0.2229 0.90249 0.0
C284 C 0.32865 0.25568 0.89656 0.0
C285 C 0.31497 0.1981 0.84672 0.0
C286 C 0.31845 0.25953 0.86679 0.0
C287 C 0.32513 0.19426 0.87657 0.0
C288 C 0.3114 0.2307 0.84245 0.0
C289 C 0.34202 0.21745 0.94171 0.0
O290 O 0.38741 0.22492 0.04669 0.0
O291 O 0.36896 0.23371 0.04798 0.0
C292 C 0.37827 0.22972 0.0788 0.0
O293 O 0.36896 0.17491 0.97987 0.0
O294 O 0.40763 0.25629 0.90293 0.0
O295 O 0.4065 0.20723 0.95526 0.0
O296 O 0.38396 0.17624 0.91165 0.0
C297 C 0.37635 0.15898 0.94974 0.0
O298 O 0.3681 0.21529 0.83313 0.0
O299 O 0.38617 0.24184 0.83206 0.0
O300 O 0.38735 0.28224 0.97031 0.0
O301 O 0.34771 0.19345 0.92159 0.0
O302 O 0.34837 0.24436 0.96527 0.0
O303 O 0.37045 0.27969 0.91798 0.0
C304 C 0.42433 0.24238 0.9547 0.0
C305 C 0.43007 0.21691 0.98222 0.0
C306 C 0.44147 0.28279 0.95879 0.0
C307 C 0.44142 0.22405 0.99655 0.0
C308 C 0.4301 0.27564 0.94445 0.0
C309 C 0.44734 0.25682 0.98332 0.0
C310 C 0.41304 0.2324 0.92692 0.0
C311 C 0.37708 0.22875 0.80074 0.0
H312 H 0.33372 0.27829 0.91639 0.0
H313 H 0.3097 0.17526 0.82945 0.0
H314 H 0.31602 0.28507 0.86361 0.0
H315 H 0.32742 0.1686 0.88133 0.0
H316 H 0.42592 0.19087 0.98958 0.0
H317 H 0.44573 0.30845 0.94889 0.0
H318 H 0.44567 0.20327 1.01456 0.0
H319 H 0.42597 0.2958 0.92272 0.0
C320 C 0.2146 0.26159 0.70224 0.0
C321 C 0.21015 0.2426 0.64648 0.0
C322 C 0.22551 0.26006 0.72314 0.0
C323 C 0.25251 0.2383 0.66222 0.0
H324 H 0.25972 0.23762 0.85118 0.0
C325 C 0.29575 0.21478 0.7606 0.0
C326 C 0.30012 0.23415 0.8161 0.0
C327 C 0.28489 0.21639 0.73868 0.0
C328 C 0.25788 0.23823 0.79819 0.0
H329 H 0.21378 0.20692 0.56926 0.0
H330 H 0.2327 0.20364 0.60664 0.0
H331 H 0.24052 0.23829 0.81655 0.0
H332 H 0.29644 0.27065 0.89162 0.0
H333 H 0.27761 0.27395 0.85266 0.0
H334 H 0.26988 0.23815 0.64394 0.0
C335 C 0.22778 0.22009 0.63373 0.0
C336 C 0.24686 0.23858 0.7783 0.0
C337 C 0.21687 0.22161 0.61284 0.0
C338 C 0.29341 0.25565 0.84831 0.0
C339 C 0.28255 0.25719 0.8265 0.0
C340 C 0.26354 0.23791 0.68212 0.0
C341 C 0.23228 0.2395 0.68887 0.0
C342 C 0.24402 0.23866 0.71005 0.0
C343 C 0.2781 0.23733 0.77182 0.0
C344 C 0.26637 0.23793 0.75038 0.0
H345 H 0.20964 0.27777 0.72976 0.0
H346 H 0.22871 0.2756 0.76543 0.0
H347 H 0.25067 0.23893 0.60923 0.0
H348 H 0.30071 0.19821 0.7342 0.0
H349 H 0.28172 0.20057 0.69669 0.0
C350 C 0.71224 0.23068 0.76327 0.0
C351 C 0.71108 0.24384 0.82796 0.0
C352 C 0.72276 0.22683 0.73799 0.0
C353 C 0.75271 0.2584 0.76449 0.0
H354 H 0.75736 0.18047 0.65386 0.0
C355 C 0.79667 0.23296 0.68793 0.0
C356 C 0.79821 0.2239 0.62079 0.0
C357 C 0.78599 0.23374 0.71365 0.0
C358 C 0.75618 0.20254 0.68426 0.0
H359 H 0.72007 0.26174 0.9178 0.0
H360 H 0.73832 0.25479 0.87423 0.0
H361 H 0.73882 0.18489 0.69734 0.0
H362 H 0.78958 0.20835 0.52834 0.0
H363 H 0.77099 0.2093 0.57347 0.0
H364 H 0.77005 0.27601 0.75163 0.0
C365 C 0.73116 0.24829 0.84215 0.0
C366 C 0.74554 0.20512 0.70909 0.0
C367 C 0.72067 0.25225 0.86723 0.0
C368 C 0.78875 0.21489 0.58055 0.0
C369 C 0.77806 0.21552 0.60638 0.0
C370 C 0.76333 0.25575 0.73992 0.0
C371 C 0.73238 0.23591 0.77693 0.0
C372 C 0.74366 0.23306 0.74971 0.0
C373 C 0.77655 0.22534 0.67303 0.0
C374 C 0.76522 0.22777 0.69958 0.0
H375 H 0.70503 0.22418 0.73154 0.0
H376 H 0.72338 0.21752 0.68732 0.0
H377 H 0.75156 0.28067 0.79438 0.0
H378 H 0.80373 0.23948 0.72078 0.0
H379 H 0.78512 0.24086 0.76554 0.0
C380 C 0.29077 0.71389 0.1785 0.0
C381 C 0.30028 0.73291 0.20698 0.0
C382 C 0.28015 0.71779 0.2015 0.0
C383 C 0.26519 0.74759 0.34663 0.0
H384 H 0.24132 0.74935 0.21841 0.0
C385 C 0.22188 0.77997 0.42329 0.0
C386 C 0.21248 0.76105 0.39329 0.0
C387 C 0.23259 0.77669 0.40087 0.0
C388 C 0.24785 0.74849 0.255 0.0
H389 H 0.30603 0.77095 0.28235 0.0
H390 H 0.28744 0.77809 0.32206 0.0
H391 H 0.25998 0.74389 0.17898 0.0
H392 H 0.20706 0.72381 0.31588 0.0
H393 H 0.22576 0.7176 0.27752 0.0
H394 H 0.25305 0.75208 0.42268 0.0
C395 C 0.28824 0.75988 0.28223 0.0
C396 C 0.25856 0.7454 0.23236 0.0
C397 C 0.29888 0.75605 0.25903 0.0
C398 C 0.2141 0.7386 0.34045 0.0
C399 C 0.22482 0.73533 0.31796 0.0
C400 C 0.25446 0.75065 0.3693 0.0
C401 C 0.27873 0.74083 0.25363 0.0
C402 C 0.26737 0.74482 0.27787 0.0
C403 C 0.23421 0.75437 0.34785 0.0
C404 C 0.24564 0.75107 0.32378 0.0
H405 H 0.29151 0.69618 0.13772 0.0
H406 H 0.27305 0.70242 0.17877 0.0
H407 H 0.27173 0.74673 0.38315 0.0
H408 H 0.22098 0.79715 0.46473 0.0
H409 H 0.2396 0.79201 0.42467 0.0
C410 C 0.71942 0.7657 0.24804 0.0
C411 C 0.71233 0.73647 0.22596 0.0
C412 C 0.72983 0.76261 0.27533 0.0
C413 C 0.7513 0.70395 0.27998 0.0
H414 H 0.76344 0.7646 0.42282 0.0
C415 C 0.79367 0.6934 0.40894 0.0
C416 C 0.80059 0.72461 0.42128 0.0
C417 C 0.78276 0.69339 0.38613 0.0
C418 C 0.76021 0.74766 0.38253 0.0
H419 H 0.71061 0.68085 0.21682 0.0
H420 H 0.72868 0.67532 0.26608 0.0
H421 H 0.74453 0.76663 0.38426 0.0
H422 H 0.8014 0.78026 0.41951 0.0
H423 H 0.78246 0.78021 0.37932 0.0
H424 H 0.76703 0.68495 0.27867 0.0
C425 C 0.72624 0.70078 0.26115 0.0
C426 C 0.74935 0.74883 0.36033 0.0
C427 C 0.71581 0.7039 0.23367 0.0
C428 C 0.79635 0.75576 0.40978 0.0
C429 C 0.78544 0.75573 0.38752 0.0
C430 C 0.76216 0.70265 0.3025 0.0
C431 C 0.73344 0.73015 0.28174 0.0
C432 C 0.74478 0.7273 0.30817 0.0
C433 C 0.77848 0.72457 0.3758 0.0
C434 C 0.76679 0.72479 0.35351 0.0
H435 H 0.71696 0.79117 0.2438 0.0
H436 H 0.73515 0.78587 0.28989 0.0
H437 H 0.74814 0.6873 0.23913 0.0
H438 H 0.79669 0.66897 0.41693 0.0
H439 H 0.7776 0.66893 0.37789 0.0
C440 C 0.1225 0.87041 0.4741 0.0
C441 C 0.13141 0.85782 0.50621 0.0
C442 C 0.1211 0.90501 0.47993 0.0
C443 C 0.1289 0.98139 0.58535 0.0
H444 H 0.12271 0.03231 0.42617 0.0
C445 C 0.13641 0.12881 0.5706 0.0
C446 C 0.12854 0.14563 0.53702 0.0
C447 C 0.13554 0.093 0.57006 0.0
C448 C 0.12425 0.01829 0.47122 0.0
H449 H 0.14588 0.87155 0.56933 0.0
H450 H 0.14351 0.93202 0.57869 0.0
H451 H 0.12354 0.9706 0.41847 0.0
H452 H 0.11346 0.13812 0.47744 0.0
H453 H 0.11195 0.07537 0.47662 0.0
H454 H 0.12984 0.02923 0.63779 0.0
C455 C 0.13751 0.91503 0.5499 0.0
C456 C 0.12474 0.98301 0.46681 0.0
C457 C 0.13891 0.88046 0.54408 0.0
C458 C 0.11968 0.12591 0.50362 0.0
C459 C 0.11883 0.09003 0.50291 0.0
C460 C 0.12843 0.01664 0.58973 0.0
C461 C 0.12858 0.9276 0.51802 0.0
C462 C 0.12725 0.96438 0.52362 0.0
C463 C 0.12679 0.0733 0.53584 0.0
C464 C 0.12628 0.03549 0.53249 0.0
H465 H 0.11654 0.85353 0.44481 0.0
H466 H 0.1141 0.914 0.45529 0.0
H467 H 0.13064 0.96748 0.63017 0.0
H468 H 0.14334 0.14325 0.59684 0.0
H469 H 0.14187 0.08076 0.59509 0.0
C470 C 0.87011 0.36508 0.46017 0.0
C471 C 0.87839 0.34939 0.49234 0.0
C472 C 0.87015 0.40058 0.46434 0.0
C473 C 0.88817 0.48147 0.49923 0.0
H474 H 0.86045 0.51573 0.53992 0.0
C475 C 0.88642 0.62262 0.5689 0.0
C476 C 0.87799 0.63851 0.53878 0.0
C477 C 0.88638 0.58719 0.56337 0.0
C478 C 0.86822 0.50653 0.52784 0.0
H479 H 0.89331 0.35853 0.55321 0.0
H480 H 0.89332 0.42058 0.56068 0.0
H481 H 0.86069 0.45389 0.52809 0.0
H482 H 0.86286 0.62976 0.47983 0.0
H483 H 0.86288 0.56785 0.46968 0.0
H484 H 0.8957 0.53409 0.49892 0.0
C485 C 0.88686 0.40541 0.53187 0.0
C486 C 0.86835 0.47121 0.52105 0.0
C487 C 0.88682 0.3699 0.52784 0.0
C488 C 0.86946 0.61825 0.5037 0.0
C489 C 0.86943 0.5828 0.49813 0.0
C490 C 0.88803 0.51679 0.50593 0.0
C491 C 0.87849 0.42099 0.50059 0.0
C492 C 0.87833 0.4584 0.50677 0.0
C493 C 0.87793 0.56701 0.52758 0.0
C494 C 0.87806 0.52961 0.52042 0.0
H495 H 0.86353 0.34996 0.43227 0.0
H496 H 0.86368 0.41208 0.43906 0.0
H497 H 0.89594 0.47223 0.48737 0.0
H498 H 0.89308 0.63751 0.59657 0.0
H499 H 0.89295 0.57555 0.58739 0.0
C500 C 0.88762 0.87187 0.50927 0.0
C501 C 0.87976 0.85037 0.54724 0.0
C502 C 0.88687 0.90693 0.50347 0.0
C503 C 0.87477 0.97766 0.58244 0.0
H504 H 0.87872 0.01961 0.40643 0.0
C505 C 0.86654 0.11638 0.53025 0.0
C506 C 0.87489 0.13687 0.49385 0.0
C507 C 0.86658 0.08088 0.53514 0.0
C508 C 0.87766 0.00825 0.45589 0.0
H509 H 0.8651 0.84876 0.61006 0.0
H510 H 0.86378 0.90993 0.59945 0.0
H511 H 0.88027 0.95859 0.42023 0.0
H512 H 0.88965 0.13622 0.43267 0.0
H513 H 0.88972 0.07439 0.44166 0.0
H514 H 0.87221 0.02738 0.61813 0.0
C515 C 0.87055 0.89972 0.57467 0.0
C516 C 0.87858 0.97343 0.46382 0.0
C517 C 0.87129 0.86468 0.58047 0.0
C518 C 0.88311 0.12114 0.4612 0.0
C519 C 0.88312 0.08571 0.46596 0.0
C520 C 0.87384 0.01249 0.5745 0.0
C521 C 0.87826 0.92107 0.53556 0.0
C522 C 0.87721 0.95789 0.52723 0.0
C523 C 0.87493 0.06533 0.50348 0.0
C524 C 0.87535 0.0281 0.51123 0.0
H525 H 0.89426 0.8616 0.48329 0.0
H526 H 0.89302 0.92298 0.47382 0.0
H527 H 0.87378 0.96636 0.63199 0.0
H528 H 0.86008 0.12775 0.55578 0.0
H529 H 0.8601 0.06561 0.56378 0.0
C530 C 0.12802 0.62671 0.54689 0.0
C531 C 0.13603 0.64895 0.51142 0.0
C532 C 0.12895 0.59177 0.55247 0.0
C533 C 0.14112 0.52291 0.4698 0.0
H534 H 0.13483 0.47496 0.63853 0.0
C535 C 0.14451 0.37857 0.50165 0.0
C536 C 0.13561 0.35915 0.53544 0.0
C537 C 0.14561 0.41448 0.50169 0.0
C538 C 0.13655 0.48801 0.59103 0.0
H539 H 0.15136 0.65208 0.45429 0.0
H540 H 0.15295 0.59093 0.46412 0.0
H541 H 0.13479 0.53717 0.63291 0.0
H542 H 0.12095 0.36201 0.59623 0.0
H543 H 0.1228 0.4246 0.59545 0.0
H544 H 0.14265 0.4737 0.42754 0.0
C545 C 0.14593 0.60059 0.48718 0.0
C546 C 0.13653 0.52353 0.58784 0.0
C547 C 0.14502 0.63558 0.48176 0.0
C548 C 0.12791 0.37626 0.56981 0.0
C549 C 0.12901 0.41212 0.5698 0.0
C550 C 0.14112 0.48736 0.47294 0.0
C551 C 0.1379 0.5784 0.52256 0.0
C552 C 0.13867 0.5412 0.52699 0.0
C553 C 0.13784 0.43157 0.53552 0.0
C554 C 0.13868 0.46952 0.53338 0.0
H555 H 0.121 0.63622 0.57035 0.0
H556 H 0.12257 0.5751 0.57928 0.0
H557 H 0.14268 0.53588 0.4221 0.0
H558 H 0.15061 0.3661 0.47498 0.0
H559 H 0.15256 0.42888 0.47543 0.0
C560 C 0.62305 0.62056 0.04574 0.0
C561 C 0.6324 0.63913 0.07675 0.0
C562 C 0.62244 0.58503 0.03535 0.0
C563 C 0.63464 0.5079 0.09064 0.0
H564 H 0.62367 0.47019 0.92017 0.0
C565 C 0.64103 0.37161 1.00567 0.0
C566 C 0.63214 0.35123 0.9737 0.0
C567 C 0.64056 0.40636 0.01914 0.0
C568 C 0.62663 0.48022 0.96834 0.0
H569 H 0.64839 0.63466 0.12182 0.0
H570 H 0.64736 0.57295 0.10315 0.0
H571 H 0.62368 0.53133 0.94315 0.0
H572 H 0.61577 0.35165 0.93049 0.0
H573 H 0.61495 0.41238 0.95422 0.0
H574 H 0.6377 0.45689 0.11556 0.0
C575 C 0.64043 0.58573 0.08759 0.0
C576 C 0.62662 0.51528 0.98158 0.0
C577 C 0.64104 0.62122 0.09801 0.0
C578 C 0.62278 0.36657 0.95505 0.0
C579 C 0.62233 0.40143 0.96841 0.0
C580 C 0.63466 0.47289 0.07737 0.0
C581 C 0.63115 0.56721 0.05574 0.0
C582 C 0.63071 0.52962 0.0427 0.0
C583 C 0.63119 0.42168 1.00093 0.0
C584 C 0.63074 0.45868 1.01585 0.0
H585 H 0.61622 0.63347 0.02888 0.0
H586 H 0.61511 0.57151 1.0115 0.0
H587 H 0.63766 0.51792 0.1387 0.0
H588 H 0.64838 0.36077 0.02062 0.0
H589 H 0.6476 0.42133 0.04328 0.0
C590 C 0.38924 0.85716 0.06514 0.0
C591 C 0.37928 0.8345 0.07116 0.0
C592 C 0.38907 0.89237 0.05362 0.0
C593 C 0.3699 0.95974 0.05651 0.0
H594 H 0.39347 0.01149 0.95257 0.0
C595 C 0.38146 0.10149 0.91644 0.0
C596 C 0.37653 0.12185 0.96238 0.0
C597 C 0.38177 0.0665 0.92943 0.0
C598 C 0.38671 -0.00256 0.98084 0.0
H599 H 0.36132 0.83079 0.06832 0.0
H600 H 0.36098 0.89141 0.04502 0.0
H601 H 0.39386 0.95073 0.97379 0.0
H602 H 0.36833 0.12184 0.05867 0.0
H603 H 0.36936 0.06163 0.08307 0.0
H604 H 0.36235 0.00574 0.05996 0.0
C605 C 0.36897 0.88266 0.05193 0.0
C606 C 0.38705 0.96251 0.99424 0.0
C607 C 0.36915 0.84769 0.06492 0.0
C608 C 0.37204 0.10666 0.02182 0.0
C609 C 0.37257 0.07194 0.03557 0.0
C610 C 0.36943 -0.00558 0.04192 0.0
C611 C 0.37892 0.90565 0.04632 0.0
C612 C 0.37866 0.9431 0.03243 0.0
C613 C 0.3774 0.0512 0.98947 0.0
C614 C 0.37785 0.01392 1.00412 0.0
H615 H 0.39718 0.84774 0.07005 0.0
H616 H 0.39692 0.90915 0.05103 0.0
H617 H 0.36336 0.94612 0.08715 0.0
H618 H 0.38494 0.11251 0.87001 0.0
H619 H 0.38535 0.05146 0.8919 0.0
C620 C 0.38802 0.3541 0.99353 0.0
C621 C 0.37931 0.33498 0.95769 0.0
C622 C 0.38789 0.3891 1.00669 0.0
C623 C 0.36865 0.45434 0.01817 0.0
H624 H 0.39571 0.51951 1.01073 0.0
C625 C 0.36858 0.60154 0.03328 0.0
C626 C 0.37699 0.62091 0.07097 0.0
C627 C 0.36887 0.56656 0.02104 0.0
C628 C 0.3881 0.50157 1.01382 0.0
H629 H 0.36374 0.33803 0.9063 0.0
H630 H 0.36362 0.3991 0.92835 0.0
H631 H 0.39632 0.45906 0.98411 0.0
H632 H 0.39226 0.61851 0.12597 0.0
H633 H 0.39271 0.55735 0.10491 0.0
H634 H 0.36043 0.49688 0.04755 0.0
C635 C 0.37046 0.38689 0.94735 0.0
C636 C 0.38845 0.4669 0.9985 0.0
C637 C 0.37057 0.35188 0.93426 0.0
C638 C 0.38564 0.60437 0.09676 0.0
C639 C 0.38595 0.56936 0.08428 0.0
C640 C 0.3683 0.489 0.03334 0.0
C641 C 0.37906 0.40588 0.98428 0.0
C642 C 0.37872 0.44284 1.00034 0.0
C643 C 0.37759 0.55008 0.046 0.0
C644 C 0.37802 0.51306 0.03123 0.0
H645 H 0.39487 0.34193 1.01256 0.0
H646 H 0.39459 0.40279 0.03588 0.0
H647 H 0.36103 0.43644 0.02137 0.0
H648 H 0.3618 0.61345 1.0125 0.0
H649 H 0.36237 0.55259 0.99072 0.0
C650 C 0.64459 0.12372 0.92849 0.0
C651 C 0.63514 0.13786 0.9495 0.0
C652 C 0.64528 0.08864 0.93829 0.0
C653 C 0.6279 0.00493 0.97563 0.0
H654 H 0.65558 0.97762 0.0386 0.0
C655 C 0.63008 0.87075 0.08862 0.0
C656 C 0.63881 0.85334 0.06704 0.0
C657 C 0.62999 0.90543 0.07239 0.0
C658 C 0.64783 0.98482 0.02042 0.0
H659 H 0.61895 0.12595 0.99667 0.0
H660 H 0.62024 0.06543 1.01449 0.0
H661 H 0.65471 0.03796 1.01088 0.0
H662 H 0.65443 0.85903 1.01282 0.0
H663 H 0.6543 0.91969 0.9849 0.0
H664 H 0.62096 0.95194 0.98634 0.0
C665 C 0.62705 0.08113 0.98944 0.0
C666 C 0.64733 0.01937 1.00429 0.0
C667 C 0.62635 0.11603 0.97954 0.0
C668 C 0.64758 0.87166 0.03023 0.0
C669 C 0.64753 0.90645 1.01441 0.0
C670 C 0.62838 0.9705 0.99212 0.0
C671 C 0.63654 0.06696 0.9693 0.0
C672 C 0.63732 0.02991 0.98236 0.0
C673 C 0.63866 0.92359 0.03458 0.0
C674 C 0.63831 0.9601 1.01533 0.0
H675 H 0.65151 0.13977 0.90511 0.0
H676 H 0.65266 0.0785 0.92145 0.0
H677 H 0.62011 0.01195 0.95757 0.0
H678 H 0.62319 0.85745 0.11705 0.0
H679 H 0.62312 0.91807 0.08947 0.0
C680 C 0.12163 0.25274 0.2849 0.0
C681 C 0.13145 0.25096 0.32113 0.0
C682 C 0.12172 0.25256 0.21485 0.0
C683 C 0.14017 0.27232 0.07023 0.0
H684 H 0.11765 0.21253 0.97277 0.0
C685 C 0.14255 0.25519 0.78343 0.0
C686 C 0.13254 0.25181 0.74736 0.0
C687 C 0.14247 0.25479 0.85347 0.0
C688 C 0.12392 0.22977 0.99907 0.0
H689 H 0.14909 0.2478 0.31191 0.0
H690 H 0.14923 0.24778 0.18998 0.0
H691 H 0.11723 0.21301 0.09477 0.0
H692 H 0.11458 0.2459 0.75675 0.0
H693 H 0.11444 0.24616 0.8783 0.0
H694 H 0.14676 0.28965 0.9749 0.0
C695 C 0.14147 0.24934 0.21579 0.0
C696 C 0.12368 0.22995 0.06902 0.0
C697 C 0.14136 0.24913 0.2857 0.0
C698 C 0.12245 0.24825 0.78289 0.0
C699 C 0.12237 0.24819 0.85278 0.0
C700 C 0.14035 0.27242 1.00027 0.0
C701 C 0.13166 0.25102 0.17961 0.0
C702 C 0.13182 0.25116 0.10533 0.0
C703 C 0.13237 0.25133 0.88909 0.0
C704 C 0.13223 0.25111 0.9637 0.0
H705 H 0.11385 0.25413 0.31058 0.0
H706 H 0.11404 0.25413 0.18821 0.0
H707 H 0.14648 0.28924 0.09693 0.0
H708 H 0.15046 0.25776 0.75762 0.0
H709 H 0.15033 0.25674 0.87964 0.0
C710 C 0.86688 0.23759 0.24364 0.0
C711 C 0.87699 0.24166 0.27891 0.0
C712 C 0.86677 0.23801 0.17374 0.0
C713 C 0.88458 0.26456 0.02613 0.0
H714 H 0.86174 0.20472 0.93095 0.0
C715 C 0.88581 0.24249 0.74052 0.0
C716 C 0.87588 0.24375 0.70498 0.0
C717 C 0.88589 0.24271 0.81043 0.0
C718 C 0.86811 0.22179 0.95689 0.0
H719 H 0.89492 0.24896 0.26811 0.0
H720 H 0.89473 0.24871 0.14609 0.0
H721 H 0.86218 0.20335 0.0529 0.0
H722 H 0.85822 0.24608 0.7153 0.0
H723 H 0.85836 0.24607 0.83772 0.0
H724 H 0.89062 0.28236 0.92966 0.0
C725 C 0.88687 0.24602 0.17247 0.0
C726 C 0.86836 0.22111 0.02684 0.0
C727 C 0.88699 0.24596 0.24253 0.0
C728 C 0.86602 0.24513 0.74109 0.0
C729 C 0.86608 0.24494 0.81116 0.0
C730 C 0.8844 0.26496 0.95616 0.0
C731 C 0.87675 0.24214 0.13712 0.0
C732 C 0.87658 0.24255 0.06247 0.0
C733 C 0.87602 0.24383 0.84651 0.0
C734 C 0.87614 0.24364 0.92082 0.0
H735 H 0.85902 0.23455 0.27 0.0
H736 H 0.85882 0.23562 0.14848 0.0
H737 H 0.89092 0.2819 0.05168 0.0
H738 H 0.89357 0.2415 0.71438 0.0
H739 H 0.89366 0.24151 0.83631 0.0
C740 C 0.12443 0.74096 0.25275 0.0
C741 C 0.13437 0.7509 0.28789 0.0
C742 C 0.12426 0.74133 0.18283 0.0
C743 C 0.14051 0.77795 0.03551 0.0
H744 H 0.12118 0.70763 0.93931 0.0
C745 C 0.14313 0.75886 0.74963 0.0
C746 C 0.13306 0.75424 0.71398 0.0
C747 C 0.14318 0.75888 0.81954 0.0
C748 C 0.12654 0.72761 0.96555 0.0
H749 H 0.152 0.76848 0.27687 0.0
H750 H 0.15179 0.76821 0.15487 0.0
H751 H 0.12174 0.70597 0.06127 0.0
H752 H 0.11511 0.74587 0.72411 0.0
H753 H 0.11521 0.74552 0.84657 0.0
H754 H 0.14546 0.79907 0.93936 0.0
C755 C 0.14404 0.76093 0.18135 0.0
C756 C 0.12685 0.72674 0.0355 0.0
C757 C 0.14418 0.76088 0.25139 0.0
C758 C 0.12302 0.74956 0.74999 0.0
C759 C 0.12307 0.74917 0.82007 0.0
C760 C 0.14027 0.77859 0.96556 0.0
C761 C 0.13406 0.75131 0.14611 0.0
C762 C 0.13383 0.75195 0.07147 0.0
C763 C 0.13315 0.7539 0.85553 0.0
C764 C 0.13327 0.75346 0.92985 0.0
H765 H 0.11669 0.73339 0.2792 0.0
H766 H 0.11639 0.73435 0.15767 0.0
H767 H 0.14582 0.79818 0.06135 0.0
H768 H 0.15103 0.76263 0.72359 0.0
H769 H 0.15108 0.76227 0.84549 0.0
C770 C 0.8693 0.73604 0.79434 0.0
C771 C 0.87943 0.74126 0.75911 0.0
C772 C 0.86916 0.73673 0.86426 0.0
C773 C 0.88603 0.72511 1.01242 0.0
H774 H 0.86587 0.77818 0.10333 0.0
C775 C 0.88834 0.7468 0.29739 0.0
C776 C 0.87837 0.74684 0.33304 0.0
C777 C 0.88839 0.74647 0.2275 0.0
C778 C 0.87144 0.7628 0.0789 0.0
H779 H 0.89735 0.75087 0.77004 0.0
H780 H 0.89707 0.75164 0.89236 0.0
H781 H 0.86611 0.77636 0.98131 0.0
H782 H 0.86059 0.74658 0.32295 0.0
H783 H 0.86061 0.74511 0.20088 0.0
H784 H 0.89123 0.7109 0.10955 0.0
C785 C 0.88926 0.74708 0.8656 0.0
C786 C 0.8716 0.76189 1.00892 0.0
C787 C 0.88941 0.74679 0.79555 0.0
C788 C 0.86843 0.74673 0.29704 0.0
C789 C 0.86846 0.74606 0.22696 0.0
C790 C 0.8858 0.72572 0.08237 0.0
C791 C 0.87912 0.74228 0.90065 0.0
C792 C 0.87893 0.74313 0.97496 0.0
C793 C 0.87844 0.74581 0.19125 0.0
C794 C 0.87853 0.74472 0.11662 0.0
H795 H 0.86145 0.73181 0.76796 0.0
H796 H 0.86123 0.73261 0.88992 0.0
H797 H 0.89166 0.71004 0.98762 0.0
H798 H 0.89618 0.74723 0.32344 0.0
H799 H 0.89627 0.74706 0.20193 0.0
C800 C 0.62637 0.7408 0.33879 0.0
C801 C 0.63647 0.74604 0.30333 0.0
C802 C 0.62627 0.74087 0.40869 0.0
C803 C 0.64315 0.72681 0.55535 0.0
H804 H 0.62307 0.77877 0.64976 0.0
C805 C 0.64527 0.74451 0.84168 0.0
C806 C 0.63528 0.74467 0.87715 0.0
C807 C 0.64537 0.74464 0.77178 0.0
C808 C 0.62861 0.76368 0.62431 0.0
H809 H 0.6544 0.7552 0.31377 0.0
H810 H 0.65422 0.75494 0.43619 0.0
H811 H 0.62338 0.77905 0.52773 0.0
H812 H 0.61752 0.74465 0.86674 0.0
H813 H 0.61763 0.74392 0.74472 0.0
H814 H 0.64824 0.7108 0.6515 0.0
C815 C 0.64638 0.75082 0.40957 0.0
C816 C 0.62882 0.76399 0.55434 0.0
C817 C 0.64648 0.75115 0.33951 0.0
C818 C 0.62537 0.74474 0.841 0.0
C819 C 0.62545 0.74452 0.77094 0.0
C820 C 0.64287 0.7262 0.6253 0.0
C821 C 0.63627 0.74581 0.44485 0.0
C822 C 0.63611 0.74563 0.51914 0.0
C823 C 0.63546 0.74456 0.73539 0.0
C824 C 0.63562 0.74473 0.66077 0.0
H825 H 0.6185 0.73686 0.31259 0.0
H826 H 0.61836 0.73661 0.43452 0.0
H827 H 0.64875 0.71202 0.52952 0.0
H828 H 0.65309 0.74478 0.86785 0.0
H829 H 0.65327 0.74534 0.74634 0.0
C830 C 0.38896 0.7316 0.84006 0.0
C831 C 0.37895 0.72897 0.87618 0.0
C832 C 0.3889 0.73192 0.76999 0.0
C833 C 0.37115 0.70529 0.62529 0.0
H834 H 0.39116 0.77353 0.5279 0.0
C835 C 0.36775 0.72225 0.33889 0.0
C836 C 0.37769 0.72968 0.30247 0.0
C837 C 0.36786 0.72256 0.40894 0.0
C838 C 0.38561 0.75397 0.55418 0.0
H839 H 0.36099 0.72437 0.86675 0.0
H840 H 0.36091 0.72468 0.74493 0.0
H841 H 0.39169 0.77262 0.6499 0.0
H842 H 0.39557 0.74291 0.3113 0.0
H843 H 0.3958 0.74256 0.43282 0.0
H844 H 0.36519 0.68616 0.52995 0.0
C845 C 0.36881 0.72646 0.77077 0.0
C846 C 0.38591 0.75353 0.62412 0.0
C847 C 0.36887 0.72651 0.84065 0.0
C848 C 0.38774 0.73734 0.33768 0.0
C849 C 0.38787 0.73734 0.40757 0.0
C850 C 0.37092 0.7055 0.55534 0.0
C851 C 0.37881 0.7292 0.73468 0.0
C852 C 0.37866 0.72926 0.6604 0.0
C853 C 0.37794 0.73001 0.44421 0.0
C854 C 0.37813 0.7299 0.51881 0.0
H855 H 0.39687 0.73359 0.86583 0.0
H856 H 0.39673 0.73383 0.7434 0.0
H857 H 0.36555 0.68601 0.65195 0.0
H858 H 0.35985 0.71645 0.31335 0.0
H859 H 0.36003 0.71732 0.43539 0.0
C860 C 0.64276 0.24993 0.19245 0.0
C861 C 0.63272 0.24671 0.15663 0.0
C862 C 0.64278 0.24971 0.26245 0.0
C863 C 0.62477 0.25911 0.41114 0.0
H864 H 0.64756 0.21714 0.50372 0.0
C865 C 0.62379 0.23208 0.69694 0.0
C866 C 0.63374 0.24229 0.73197 0.0
C867 C 0.62359 0.23262 0.62689 0.0
C868 C 0.64119 0.22916 0.47856 0.0
H869 H 0.61479 0.24059 0.16658 0.0
H870 H 0.61479 0.23906 0.28858 0.0
H871 H 0.64719 0.21761 0.38181 0.0
H872 H 0.65131 0.26063 0.72055 0.0
H873 H 0.65098 0.26096 0.59818 0.0
H874 H 0.61864 0.26976 0.50851 0.0
C875 C 0.62269 0.24266 0.26274 0.0
C876 C 0.64099 0.22961 0.40853 0.0
C877 C 0.62268 0.24336 0.1926 0.0
C878 C 0.6435 0.25266 0.6952 0.0
C879 C 0.64333 0.2527 0.62511 0.0
C880 C 0.62489 0.25823 0.48122 0.0
C881 C 0.63275 0.24577 0.29876 0.0
C882 C 0.63282 0.24479 0.37367 0.0
C883 C 0.63336 0.24288 0.59018 0.0
C884 C 0.63314 0.24341 0.5157 0.0
H885 H 0.65066 0.25292 0.1664 0.0
H886 H 0.65071 0.25298 0.288 0.0
H887 H 0.61846 0.27157 0.38648 0.0
H888 H 0.6161 0.22405 0.72363 0.0
H889 H 0.61579 0.22465 0.60137 0.0
C890 C 0.38832 0.2328 0.18904 0.0
C891 C 0.37831 0.23016 0.15297 0.0
C892 C 0.38824 0.23313 0.25909 0.0
C893 C 0.37021 0.24695 0.40457 0.0
H894 H 0.3912 0.19981 0.50251 0.0
C895 C 0.36713 0.22158 0.69034 0.0
C896 C 0.37708 0.22903 0.72658 0.0
C897 C 0.36724 0.22197 0.62028 0.0
C898 C 0.38534 0.21328 0.47579 0.0
H899 H 0.36036 0.22528 0.16242 0.0
H900 H 0.36022 0.22493 0.28389 0.0
H901 H 0.39154 0.20007 0.38048 0.0
H902 H 0.39497 0.24249 0.71748 0.0
H903 H 0.39513 0.24286 0.59558 0.0
H904 H 0.36389 0.25956 0.50023 0.0
C905 C 0.36816 0.22768 0.25838 0.0
C906 C 0.38556 0.21358 0.40584 0.0
C907 C 0.36824 0.22768 0.18851 0.0
C908 C 0.38714 0.2367 0.69123 0.0
C909 C 0.38725 0.23671 0.62134 0.0
C910 C 0.36992 0.24636 0.47451 0.0
C911 C 0.37815 0.23049 0.29468 0.0
C912 C 0.378 0.23045 0.36926 0.0
C913 C 0.37731 0.2294 0.58511 0.0
C914 C 0.3775 0.22959 0.51084 0.0
H915 H 0.39622 0.23495 0.16323 0.0
H916 H 0.39611 0.23585 0.28528 0.0
H917 H 0.36439 0.26075 0.37824 0.0
H918 H 0.35924 0.21562 0.71601 0.0
H919 H 0.35946 0.216 0.59359 0.0
C920 C 0.04703 0.26507 0.4324 0.0
C921 C 0.0513 0.23426 0.44682 0.0
C922 C 0.03564 0.2651 0.42256 0.0
C923 C 0.00906 0.20885 0.38757 0.0
H924 H 0.99609 0.28158 0.47674 0.0
C925 C 0.96157 0.20449 0.42912 0.0
C926 C 0.95706 0.23568 0.42586 0.0
C927 C 0.97306 0.20422 0.42431 0.0
C928 C 0.99957 0.26137 0.45055 0.0
H929 H 0.04689 0.17905 0.4592 0.0
H930 H 0.02699 0.17918 0.44295 0.0
H931 H 0.01607 0.28126 0.4811 0.0
H932 H 0.9612 0.291 0.41329 0.0
H933 H 0.98112 0.29041 0.40311 0.0
H934 H 0.99248 0.1888 0.35765 0.0
C935 C 0.03248 0.20333 0.43893 0.0
C936 C 0.01105 0.26118 0.4531 0.0
C937 C 0.04389 0.2033 0.4489 0.0
C938 C 0.96432 0.26643 0.41536 0.0
C939 C 0.97579 0.26616 0.41048 0.0
C940 C 0.99754 0.20907 0.38493 0.0
C941 C 0.02818 0.23433 0.42684 0.0
C942 C 0.01596 0.23488 0.42185 0.0
C943 C 0.98034 0.23514 0.41612 0.0
C944 C 0.99264 0.23529 0.4166 0.0
H945 H 0.05244 0.28946 0.43109 0.0
H946 H 0.03264 0.28938 0.41239 0.0
H947 H 0.01256 0.18842 0.36231 0.0
H948 H 0.95624 0.18026 0.43639 0.0
H949 H 0.97625 0.17986 0.42927 0.0
C950 C 0.96704 0.76411 0.61811 0.0
C951 C 0.95942 0.73409 0.6084 0.0
C952 C 0.97845 0.76241 0.62258 0.0
C953 C 0.99933 0.70229 0.64835 0.0
H954 H 0.01868 0.77282 0.55224 0.0
C955 C 0.04545 0.69161 0.58531 0.0
C956 C 0.05315 0.72191 0.58792 0.0
C957 C 0.03409 0.69278 0.59491 0.0
C958 C 0.01343 0.75318 0.5802 0.0
H959 H 0.95788 0.67849 0.59872 0.0
H960 H 0.97777 0.67562 0.605 0.0
H961 H 0.99882 0.77546 0.55631 0.0
H962 H 0.05487 0.77714 0.60414 0.0
H963 H 0.03515 0.77904 0.62213 0.0
H964 H 0.014 0.67975 0.67116 0.0
C965 C 0.97492 0.7005 0.60972 0.0
C966 C 1.00201 0.7547 0.58259 0.0
C967 C 0.9635 0.70219 0.60537 0.0
C968 C 0.04922 0.75322 0.60247 0.0
C969 C 0.03788 0.75439 0.6119 0.0
C970 C 0.01078 0.70073 0.64581 0.0
C971 C 0.98256 0.73067 0.61724 0.0
C972 C 0.99479 0.72928 0.61661 0.0
C973 C 0.03013 0.72431 0.60708 0.0
C974 C 0.01797 0.72616 0.61162 0.0
H975 H 0.96426 0.78918 0.61997 0.0
H976 H 0.98406 0.78612 0.62946 0.0
H977 H 0.99404 0.68249 0.67568 0.0
H978 H 0.04819 0.66701 0.57485 0.0
H979 H 0.02836 0.66913 0.59052 0.0
C980 C 0.54747 0.71716 1.00632 0.0
C981 C 0.55457 0.74529 0.03272 0.0
C982 C 0.53599 0.71808 1.00195 0.0
C983 C 0.51366 0.75939 0.07859 0.0
H984 H 0.4968 0.72876 0.92 0.0
C985 C 0.46714 0.77317 0.05786 0.0
C986 C 0.46005 0.74582 0.02855 0.0
C987 C 0.47869 0.77463 0.05375 0.0
C988 C 0.50134 0.73704 0.96503 0.0
H989 H 0.55514 0.79628 0.07578 0.0
H990 H 0.5352 0.79786 0.06807 0.0
H991 H 0.51682 0.72735 0.92242 0.0
H992 H 0.45972 0.69943 0.96898 0.0
H993 H 0.47979 0.70129 0.96393 0.0
H994 H 0.49825 0.76832 0.12211 0.0
C995 C 0.53849 0.77512 0.05063 0.0
C996 C 0.51283 0.73628 0.9663 0.0
C997 C 0.54994 0.77435 0.05436 0.0
C998 C 0.46488 0.7206 0.99315 0.0
C999 C 0.47644 0.72191 0.9895 0.0
C1000 C 0.50218 0.75987 0.0776 0.0
C1001 C 0.53136 0.74695 0.02472 0.0
C1002 C 0.51913 0.74752 0.02305 0.0
C1003 C 0.48352 0.74866 0.02065 0.0
C1004 C 0.49583 0.74877 0.02078 0.0
H1005 H 0.55078 0.69445 0.98903 0.0
H1006 H 0.53072 0.69586 0.98215 0.0
H1007 H 0.51824 0.76773 0.1235 0.0
H1008 H 0.46378 0.79292 0.08608 0.0
H1009 H 0.48385 0.79601 0.07728 0.0
C1010 C 0.46506 0.24815 0.0428 0.0
C1011 C 0.45969 0.26286 0.98984 0.0
C1012 C 0.47667 0.25115 0.04515 0.0
C1013 C 0.50116 0.26541 0.93383 0.0
H1014 H 0.51772 0.2772 0.09991 0.0
C1015 C 0.54902 0.27743 0.9367 0.0
C1016 C 0.5538 0.25851 0.98615 0.0
C1017 C 0.53776 0.28151 0.93977 0.0
C1018 C 0.51321 0.27364 0.05315 0.0
H1019 H 0.46241 0.29286 0.89842 0.0
H1020 H 0.4826 0.29873 0.90336 0.0
H1021 H 0.49766 0.27798 0.10083 0.0
H1022 H 0.55053 0.23034 0.07926 0.0
H1023 H 0.53089 0.23688 0.08395 0.0
H1024 H 0.51663 0.26054 0.8862 0.0
C1025 C 0.47784 0.28448 0.9427 0.0
C1026 C 0.5017 0.27409 0.05369 0.0
C1027 C 0.46624 0.28151 0.94038 0.0
C1028 C 0.5471 0.24471 0.03987 0.0
C1029 C 0.53585 0.24879 0.04295 0.0
C1030 C 0.51264 0.26494 0.9333 0.0
C1031 C 0.4832 0.26888 0.99451 0.0
C1032 C 0.49552 0.2698 0.99405 0.0
C1033 C 0.53099 0.26678 0.99238 0.0
C1034 C 0.51882 0.26886 0.99297 0.0
H1035 H 0.46029 0.23389 0.08208 0.0
H1036 H 0.48051 0.2386 0.08556 0.0
H1037 H 0.49665 0.26139 0.88713 0.0
H1038 H 0.55387 0.28815 0.89427 0.0
H1039 H 0.53434 0.29594 0.90045 0.0
loop_
_geom_bond_atom_site_label_1
_geom_bond_atom_site_label_2
_geom_bond_distance
_geom_bond_site_symmetry_2
_ccdc_geom_bond_type
Eu0 C9 2.828 . S
Eu0 O11 2.392 . S
Eu0 O13 2.418 . S
Eu0 O18 2.373 . S
Eu0 O21 2.488 . S
Eu0 O22 2.471 . S
Eu0 O23 2.349 . S
Eu1 O10 2.373 . S
Eu1 O14 2.488 . S
Eu1 O15 2.471 . S
Eu1 O16 2.349 . S
Eu1 O19 2.392 . S
Eu1 O20 2.418 . S
Eu1 C30 2.828 . S
C2 O20 1.244 . S
C2 O23 1.265 . S
C3 C4 1.379 . S
C3 C7 1.373 . S
C3 C9 1.505 . S
C4 C3 1.379 . S
C4 C6 1.369 . S
C4 H32 0.930 . S
C5 C7 1.383 . S
C5 C8 1.382 . S
C5 H33 0.930 . S
C6 C4 1.369 . S
C6 C8 1.392 . S
C6 H34 0.930 . S
C7 C3 1.373 . S
C7 C5 1.383 . S
C7 H35 0.931 . S
C8 C5 1.382 . S
C8 C6 1.392 . S
C9 Eu0 2.828 . S
C9 C3 1.505 . S
C9 O21 1.249 . S
C9 O22 1.244 . S
O10 Eu1 2.373 . S
O10 C12 1.258 . S
O11 Eu0 2.392 . S
O11 C12 1.242 . S
C12 O10 1.258 . S
C12 O11 1.242 . S
O13 Eu0 2.418 . S
O13 C17 1.244 . S
O14 Eu1 2.488 . S
O14 C30 1.249 . S
O15 Eu1 2.471 . S
O15 C30 1.244 . S
O16 Eu1 2.349 . S
O16 C17 1.265 . S
C17 O13 1.244 . S
C17 O16 1.265 . S
O18 Eu0 2.373 . S
O18 C31 1.258 . S
O19 Eu1 2.392 . S
O19 C31 1.242 . S
O20 Eu1 2.418 . S
O20 C2 1.244 . S
O21 Eu0 2.488 . S
O21 C9 1.249 . S
O22 Eu0 2.471 . S
O22 C9 1.244 . S
O23 Eu0 2.349 . S
O23 C2 1.265 . S
C24 C25 1.379 . S
C24 C28 1.373 . S
C24 C30 1.505 . S
C25 C24 1.379 . S
C25 C27 1.369 . S
C25 H36 0.930 . S
C26 C28 1.383 . S
C26 C29 1.382 . S
C26 H37 0.930 . S
C27 C25 1.369 . S
C27 C29 1.392 . S
C27 H38 0.930 . S
C28 C24 1.373 . S
C28 C26 1.383 . S
C28 H39 0.931 . S
C29 C26 1.382 . S
C29 C27 1.392 . S
C30 Eu1 2.828 . S
C30 O14 1.249 . S
C30 O15 1.244 . S
C30 C24 1.505 . S
C31 O18 1.258 . S
C31 O19 1.242 . S
H32 C4 0.930 . S
H33 C5 0.930 . S
H34 C6 0.930 . S
H35 C7 0.931 . S
H36 C25 0.930 . S
H37 C26 0.930 . S
H38 C27 0.930 . S
H39 C28 0.931 . S
Eu40 C49 2.828 . S
Eu40 O51 2.392 . S
Eu40 O53 2.418 . S
Eu40 O58 2.373 . S
Eu40 O61 2.488 . S
Eu40 O62 2.471 . S
Eu40 O63 2.349 . S
Eu41 O50 2.373 . S
Eu41 O54 2.488 . S
Eu41 O55 2.471 . S
Eu41 O56 2.349 . S
Eu41 O59 2.392 . S
Eu41 O60 2.418 . S
Eu41 C70 2.828 . S
C42 O60 1.244 . S
C42 O63 1.265 . S
C43 C44 1.379 . S
C43 C47 1.373 . S
C43 C49 1.505 . S
C44 C43 1.379 . S
C44 C46 1.369 . S
C44 H72 0.930 . S
C45 C47 1.383 . S
C45 C48 1.382 . S
C45 H73 0.930 . S
C46 C44 1.369 . S
C46 C48 1.392 . S
C46 H74 0.930 . S
C47 C43 1.373 . S
C47 C45 1.383 . S
C47 H75 0.931 . S
C48 C45 1.382 . S
C48 C46 1.392 . S
C49 Eu40 2.828 . S
C49 C43 1.505 . S
C49 O61 1.249 . S
C49 O62 1.244 . S
O50 Eu41 2.373 . S
O50 C52 1.258 . S
O51 Eu40 2.392 . S
O51 C52 1.242 . S
C52 O50 1.258 . S
C52 O51 1.242 . S
O53 Eu40 2.418 . S
O53 C57 1.244 . S
O54 Eu41 2.488 . S
O54 C70 1.249 . S
O55 Eu41 2.471 . S
O55 C70 1.244 . S
O56 Eu41 2.349 . S
O56 C57 1.265 . S
C57 O53 1.244 . S
C57 O56 1.265 . S
O58 Eu40 2.373 . S
O58 C71 1.258 . S
O59 Eu41 2.392 . S
O59 C71 1.242 . S
O60 Eu41 2.418 . S
O60 C42 1.244 . S
O61 Eu40 2.488 . S
O61 C49 1.249 . S
O62 Eu40 2.471 . S
O62 C49 1.244 . S
O63 Eu40 2.349 . S
O63 C42 1.265 . S
C64 C65 1.379 . S
C64 C68 1.373 . S
C64 C70 1.505 . S
C65 C64 1.379 . S
C65 C67 1.369 . S
C65 H76 0.930 . S
C66 C68 1.383 . S
C66 C69 1.382 . S
C66 H77 0.930 . S
C67 C65 1.369 . S
C67 C69 1.392 . S
C67 H78 0.930 . S
C68 C64 1.373 . S
C68 C66 1.383 . S
C68 H79 0.931 . S
C69 C66 1.382 . S
C69 C67 1.392 . S
C70 Eu41 2.828 . S
C70 O54 1.249 . S
C70 O55 1.244 . S
C70 C64 1.505 . S
C71 O58 1.258 . S
C71 O59 1.242 . S
H72 C44 0.930 . S
H73 C45 0.930 . S
H74 C46 0.930 . S
H75 C47 0.931 . S
H76 C65 0.930 . S
H77 C66 0.930 . S
H78 C67 0.930 . S
H79 C68 0.931 . S
Eu80 C89 2.828 . S
Eu80 O91 2.392 . S
Eu80 O93 2.418 . S
Eu80 O98 2.373 . S
Eu80 O101 2.488 . S
Eu80 O102 2.471 . S
Eu80 O103 2.349 . S
Eu81 O90 2.373 . S
Eu81 O94 2.488 . S
Eu81 O95 2.471 . S
Eu81 O96 2.349 . S
Eu81 O99 2.392 . S
Eu81 O100 2.418 . S
Eu81 C110 2.828 . S
C82 O100 1.244 . S
C82 O103 1.265 . S
C83 C84 1.379 . S
C83 C87 1.373 . S
C83 C89 1.505 . S
C84 C83 1.379 . S
C84 C86 1.369 . S
C84 H112 0.930 . S
C85 C87 1.383 . S
C85 C88 1.382 . S
C85 H113 0.930 . S
C86 C84 1.369 . S
C86 C88 1.392 . S
C86 H114 0.930 . S
C87 C83 1.373 . S
C87 C85 1.383 . S
C87 H115 0.931 . S
C88 C85 1.382 . S
C88 C86 1.392 . S
C89 Eu80 2.828 . S
C89 C83 1.505 . S
C89 O101 1.249 . S
C89 O102 1.244 . S
O90 Eu81 2.373 . S
O90 C92 1.258 . S
O91 Eu80 2.392 . S
O91 C92 1.242 . S
C92 O90 1.258 . S
C92 O91 1.242 . S
O93 Eu80 2.418 . S
O93 C97 1.244 . S
O94 Eu81 2.488 . S
O94 C110 1.249 . S
O95 Eu81 2.471 . S
O95 C110 1.244 . S
O96 Eu81 2.349 . S
O96 C97 1.265 . S
C97 O93 1.244 . S
C97 O96 1.265 . S
O98 Eu80 2.373 . S
O98 C111 1.258 . S
O99 Eu81 2.392 . S
O99 C111 1.242 . S
O100 Eu81 2.418 . S
O100 C82 1.244 . S
O101 Eu80 2.488 . S
O101 C89 1.249 . S
O102 Eu80 2.471 . S
O102 C89 1.244 . S
O103 Eu80 2.349 . S
O103 C82 1.265 . S
C104 C105 1.379 . S
C104 C108 1.373 . S
C104 C110 1.505 . S
C105 C104 1.379 . S
C105 C107 1.369 . S
C105 H116 0.930 . S
C106 C108 1.383 . S
C106 C109 1.382 . S
C106 H117 0.930 . S
C107 C105 1.369 . S
C107 C109 1.392 . S
C107 H118 0.930 . S
C108 C104 1.373 . S
C108 C106 1.383 . S
C108 H119 0.931 . S
C109 C106 1.382 . S
C109 C107 1.392 . S
C110 Eu81 2.828 . S
C110 O94 1.249 . S
C110 O95 1.244 . S
C110 C104 1.505 . S
C111 O98 1.258 . S
C111 O99 1.242 . S
H112 C84 0.930 . S
H113 C85 0.930 . S
H114 C86 0.930 . S
H115 C87 0.931 . S
H116 C105 0.930 . S
H117 C106 0.930 . S
H118 C107 0.930 . S
H119 C108 0.931 . S
Eu120 C129 2.828 . S
Eu120 O131 2.392 . S
Eu120 O133 2.418 . S
Eu120 O138 2.373 . S
Eu120 O141 2.488 . S
Eu120 O142 2.471 . S
Eu120 O143 2.349 . S
Eu121 O130 2.373 . S
Eu121 O134 2.488 . S
Eu121 O135 2.471 . S
Eu121 O136 2.349 . S
Eu121 O139 2.392 . S
Eu121 O140 2.418 . S
Eu121 C150 2.828 . S
C122 O140 1.244 . S
C122 O143 1.265 . S
C123 C124 1.379 . S
C123 C127 1.373 . S
C123 C129 1.505 . S
C124 C123 1.379 . S
C124 C126 1.369 . S
C124 H152 0.930 . S
C125 C127 1.383 . S
C125 C128 1.382 . S
C125 H153 0.930 . S
C126 C124 1.369 . S
C126 C128 1.392 . S
C126 H154 0.930 . S
C127 C123 1.373 . S
C127 C125 1.383 . S
C127 H155 0.931 . S
C128 C125 1.382 . S
C128 C126 1.392 . S
C129 Eu120 2.828 . S
C129 C123 1.505 . S
C129 O141 1.249 . S
C129 O142 1.244 . S
O130 Eu121 2.373 . S
O130 C132 1.258 . S
O131 Eu120 2.392 . S
O131 C132 1.242 . S
C132 O130 1.258 . S
C132 O131 1.242 . S
O133 Eu120 2.418 . S
O133 C137 1.244 . S
O134 Eu121 2.488 . S
O134 C150 1.249 . S
O135 Eu121 2.471 . S
O135 C150 1.244 . S
O136 Eu121 2.349 . S
O136 C137 1.265 . S
C137 O133 1.244 . S
C137 O136 1.265 . S
O138 Eu120 2.373 . S
O138 C151 1.258 . S
O139 Eu121 2.392 . S
O139 C151 1.242 . S
O140 Eu121 2.418 . S
O140 C122 1.244 . S
O141 Eu120 2.488 . S
O141 C129 1.249 . S
O142 Eu120 2.471 . S
O142 C129 1.244 . S
O143 Eu120 2.349 . S
O143 C122 1.265 . S
C144 C145 1.379 . S
C144 C148 1.373 . S
C144 C150 1.505 . S
C145 C144 1.379 . S
C145 C147 1.369 . S
C145 H156 0.930 . S
C146 C148 1.383 . S
C146 C149 1.382 . S
C146 H157 0.930 . S
C147 C145 1.369 . S
C147 C149 1.392 . S
C147 H158 0.930 . S
C148 C144 1.373 . S
C148 C146 1.383 . S
C148 H159 0.931 . S
C149 C146 1.382 . S
C149 C147 1.392 . S
C150 Eu121 2.828 . S
C150 O134 1.249 . S
C150 O135 1.244 . S
C150 C144 1.505 . S
C151 O138 1.258 . S
C151 O139 1.242 . S
H152 C124 0.930 . S
H153 C125 0.930 . S
H154 C126 0.930 . S
H155 C127 0.931 . S
H156 C145 0.930 . S
H157 C146 0.930 . S
H158 C147 0.930 . S
H159 C148 0.931 . S
Eu160 C169 2.828 1_554 S
Eu160 O171 2.392 . S
Eu160 O173 2.418 . S
Eu160 O178 2.373 1_554 S
Eu160 O181 2.488 1_554 S
Eu160 O182 2.471 1_554 S
Eu160 O183 2.351 . S
Eu161 O170 2.373 1_556 S
Eu161 O174 2.488 1_556 S
Eu161 O175 2.471 1_556 S
Eu161 O176 2.351 . S
Eu161 O179 2.392 . S
Eu161 O180 2.418 . S
Eu161 C190 2.828 1_556 S
C162 O180 1.244 1_554 S
C162 O183 1.265 . S
C163 C164 1.379 . S
C163 C167 1.373 . S
C163 C169 1.505 . S
C164 C163 1.379 . S
C164 C166 1.369 . S
C164 H192 0.930 . S
C165 C167 1.383 . S
C165 C168 1.382 . S
C165 H193 0.930 . S
C166 C164 1.369 . S
C166 C168 1.392 . S
C166 H194 0.930 . S
C167 C163 1.373 . S
C167 C165 1.383 . S
C167 H195 0.931 . S
C168 C165 1.382 . S
C168 C166 1.392 . S
C169 Eu160 2.828 1_556 S
C169 C163 1.505 . S
C169 O181 1.249 . S
C169 O182 1.244 . S
O170 Eu161 2.373 1_554 S
O170 C172 1.258 . S
O171 Eu160 2.392 . S
O171 C172 1.242 . S
C172 O170 1.258 . S
C172 O171 1.242 . S
O173 Eu160 2.418 . S
O173 C177 1.244 1_554 S
O174 Eu161 2.488 1_554 S
O174 C190 1.249 . S
O175 Eu161 2.471 1_554 S
O175 C190 1.244 . S
O176 Eu161 2.351 . S
O176 C177 1.265 . S
C177 O173 1.244 1_556 S
C177 O176 1.265 . S
O178 Eu160 2.373 1_556 S
O178 C191 1.258 . S
O179 Eu161 2.392 . S
O179 C191 1.242 . S
O180 Eu161 2.418 . S
O180 C162 1.244 1_556 S
O181 Eu160 2.488 1_556 S
O181 C169 1.249 . S
O182 Eu160 2.471 1_556 S
O182 C169 1.244 . S
O183 Eu160 2.351 . S
O183 C162 1.265 . S
C184 C185 1.379 . S
C184 C188 1.373 . S
C184 C190 1.505 . S
C185 C184 1.379 . S
C185 C187 1.369 . S
C185 H196 0.930 . S
C186 C188 1.383 . S
C186 C189 1.382 . S
C186 H197 0.930 . S
C187 C185 1.369 . S
C187 C189 1.392 . S
C187 H198 0.930 . S
C188 C184 1.373 . S
C188 C186 1.383 . S
C188 H199 0.931 . S
C189 C186 1.382 . S
C189 C187 1.392 . S
C190 Eu161 2.828 1_554 S
C190 O174 1.249 . S
C190 O175 1.244 . S
C190 C184 1.505 . S
C191 O178 1.258 . S
C191 O179 1.242 . S
H192 C164 0.930 . S
H193 C165 0.930 . S
H194 C166 0.930 . S
H195 C167 0.931 . S
H196 C185 0.930 . S
H197 C186 0.930 . S
H198 C187 0.930 . S
H199 C188 0.931 . S
Eu200 C209 2.828 1_554 S
Eu200 O211 2.392 . S
Eu200 O213 2.418 . S
Eu200 O218 2.373 1_554 S
Eu200 O221 2.488 1_554 S
Eu200 O222 2.471 1_554 S
Eu200 O223 2.351 . S
Eu201 O210 2.373 1_556 S
Eu201 O214 2.488 1_556 S
Eu201 O215 2.471 1_556 S
Eu201 O216 2.351 . S
Eu201 O219 2.392 . S
Eu201 O220 2.418 . S
Eu201 C230 2.828 1_556 S
C202 O220 1.244 1_554 S
C202 O223 1.265 . S
C203 C204 1.379 . S
C203 C207 1.373 . S
C203 C209 1.505 . S
C204 C203 1.379 . S
C204 C206 1.369 . S
C204 H232 0.930 . S
C205 C207 1.383 . S
C205 C208 1.382 . S
C205 H233 0.930 . S
C206 C204 1.369 . S
C206 C208 1.392 . S
C206 H234 0.930 . S
C207 C203 1.373 . S
C207 C205 1.383 . S
C207 H235 0.931 . S
C208 C205 1.382 . S
C208 C206 1.392 . S
C209 Eu200 2.828 1_556 S
C209 C203 1.505 . S
C209 O221 1.249 . S
C209 O222 1.244 . S
O210 Eu201 2.373 1_554 S
O210 C212 1.258 . S
O211 Eu200 2.392 . S
O211 C212 1.242 . S
C212 O210 1.258 . S
C212 O211 1.242 . S
O213 Eu200 2.418 . S
O213 C217 1.244 1_554 S
O214 Eu201 2.488 1_554 S
O214 C230 1.249 . S
O215 Eu201 2.471 1_554 S
O215 C230 1.244 . S
O216 Eu201 2.351 . S
O216 C217 1.265 . S
C217 O213 1.244 1_556 S
C217 O216 1.265 . S
O218 Eu200 2.373 1_556 S
O218 C231 1.258 . S
O219 Eu201 2.392 . S
O219 C231 1.242 . S
O220 Eu201 2.418 . S
O220 C202 1.244 1_556 S
O221 Eu200 2.488 1_556 S
O221 C209 1.249 . S
O222 Eu200 2.471 1_556 S
O222 C209 1.244 . S
O223 Eu200 2.351 . S
O223 C202 1.265 . S
C224 C225 1.379 . S
C224 C228 1.373 . S
C224 C230 1.505 . S
C225 C224 1.379 . S
C225 C227 1.369 . S
C225 H236 0.930 . S
C226 C228 1.383 . S
C226 C229 1.382 . S
C226 H237 0.930 . S
C227 C225 1.369 . S
C227 C229 1.392 . S
C227 H238 0.930 . S
C228 C224 1.373 . S
C228 C226 1.383 . S
C228 H239 0.931 . S
C229 C226 1.382 . S
C229 C227 1.392 . S
C230 Eu201 2.828 1_554 S
C230 O214 1.249 . S
C230 O215 1.244 . S
C230 C224 1.505 . S
C231 O218 1.258 . S
C231 O219 1.242 . S
H232 C204 0.930 . S
H233 C205 0.930 . S
H234 C206 0.930 . S
H235 C207 0.931 . S
H236 C225 0.930 . S
H237 C226 0.930 . S
H238 C227 0.930 . S
H239 C228 0.931 . S
Eu240 C249 2.828 1_554 S
Eu240 O251 2.392 . S
Eu240 O253 2.418 . S
Eu240 O258 2.373 1_554 S
Eu240 O261 2.488 1_554 S
Eu240 O262 2.471 1_554 S
Eu240 O263 2.351 . S
Eu241 O250 2.373 1_556 S
Eu241 O254 2.488 1_556 S
Eu241 O255 2.471 1_556 S
Eu241 O256 2.351 . S
Eu241 O259 2.392 . S
Eu241 O260 2.418 . S
Eu241 C270 2.828 1_556 S
C242 O260 1.244 1_554 S
C242 O263 1.265 . S
C243 C244 1.379 . S
C243 C247 1.373 . S
C243 C249 1.505 . S
C244 C243 1.379 . S
C244 C246 1.369 . S
C244 H272 0.930 . S
C245 C247 1.383 . S
C245 C248 1.382 . S
C245 H273 0.930 . S
C246 C244 1.369 . S
C246 C248 1.392 . S
C246 H274 0.930 . S
C247 C243 1.373 . S
C247 C245 1.383 . S
C247 H275 0.931 . S
C248 C245 1.382 . S
C248 C246 1.392 . S
C249 Eu240 2.828 1_556 S
C249 C243 1.505 . S
C249 O261 1.249 . S
C249 O262 1.244 . S
O250 Eu241 2.373 1_554 S
O250 C252 1.258 . S
O251 Eu240 2.392 . S
O251 C252 1.242 . S
C252 O250 1.258 . S
C252 O251 1.242 . S
O253 Eu240 2.418 . S
O253 C257 1.244 1_554 S
O254 Eu241 2.488 1_554 S
O254 C270 1.249 . S
O255 Eu241 2.471 1_554 S
O255 C270 1.244 . S
O256 Eu241 2.351 . S
O256 C257 1.265 . S
C257 O253 1.244 1_556 S
C257 O256 1.265 . S
O258 Eu240 2.373 1_556 S
O258 C271 1.258 . S
O259 Eu241 2.392 . S
O259 C271 1.242 . S
O260 Eu241 2.418 . S
O260 C242 1.244 1_556 S
O261 Eu240 2.488 1_556 S
O261 C249 1.249 . S
O262 Eu240 2.471 1_556 S
O262 C249 1.244 . S
O263 Eu240 2.351 . S
O263 C242 1.265 . S
C264 C265 1.379 . S
C264 C268 1.373 . S
C264 C270 1.505 . S
C265 C264 1.379 . S
C265 C267 1.369 . S
C265 H276 0.930 . S
C266 C268 1.383 . S
C266 C269 1.382 . S
C266 H277 0.930 . S
C267 C265 1.369 . S
C267 C269 1.392 . S
C267 H278 0.930 . S
C268 C264 1.373 . S
C268 C266 1.383 . S
C268 H279 0.931 . S
C269 C266 1.382 . S
C269 C267 1.392 . S
C270 Eu241 2.828 1_554 S
C270 O254 1.249 . S
C270 O255 1.244 . S
C270 C264 1.505 . S
C271 O258 1.258 . S
C271 O259 1.242 . S
H272 C244 0.930 . S
H273 C245 0.930 . S
H274 C246 0.930 . S
H275 C247 0.931 . S
H276 C265 0.930 . S
H277 C266 0.930 . S
H278 C267 0.930 . S
H279 C268 0.931 . S
Eu280 C289 2.828 1_554 S
Eu280 O291 2.392 . S
Eu280 O293 2.418 . S
Eu280 O298 2.373 1_554 S
Eu280 O301 2.488 1_554 S
Eu280 O302 2.471 1_554 S
Eu280 O303 2.351 . S
Eu281 O290 2.373 1_556 S
Eu281 O294 2.488 1_556 S
Eu281 O295 2.471 1_556 S
Eu281 O296 2.351 . S
Eu281 O299 2.392 . S
Eu281 O300 2.418 . S
Eu281 C310 2.828 1_556 S
C282 O300 1.244 1_554 S
C282 O303 1.265 . S
C283 C284 1.379 . S
C283 C287 1.373 . S
C283 C289 1.505 . S
C284 C283 1.379 . S
C284 C286 1.369 . S
C284 H312 0.930 . S
C285 C287 1.383 . S
C285 C288 1.382 . S
C285 H313 0.930 . S
C286 C284 1.369 . S
C286 C288 1.392 . S
C286 H314 0.930 . S
C287 C283 1.373 . S
C287 C285 1.383 . S
C287 H315 0.931 . S
C288 C285 1.382 . S
C288 C286 1.392 . S
C289 Eu280 2.828 1_556 S
C289 C283 1.505 . S
C289 O301 1.249 . S
C289 O302 1.244 . S
O290 Eu281 2.373 1_554 S
O290 C292 1.258 . S
O291 Eu280 2.392 . S
O291 C292 1.242 . S
C292 O290 1.258 . S
C292 O291 1.242 . S
O293 Eu280 2.418 . S
O293 C297 1.244 1_554 S
O294 Eu281 2.488 1_554 S
O294 C310 1.249 . S
O295 Eu281 2.471 1_554 S
O295 C310 1.244 . S
O296 Eu281 2.351 . S
O296 C297 1.265 . S
C297 O293 1.244 1_556 S
C297 O296 1.265 . S
O298 Eu280 2.373 1_556 S
O298 C311 1.258 . S
O299 Eu281 2.392 . S
O299 C311 1.242 . S
O300 Eu281 2.418 . S
O300 C282 1.244 1_556 S
O301 Eu280 2.488 1_556 S
O301 C289 1.249 . S
O302 Eu280 2.471 1_556 S
O302 C289 1.244 . S
O303 Eu280 2.351 . S
O303 C282 1.265 . S
C304 C305 1.379 . S
C304 C308 1.373 . S
C304 C310 1.505 . S
C305 C304 1.379 . S
C305 C307 1.369 . S
C305 H316 0.930 . S
C306 C308 1.383 . S
C306 C309 1.382 . S
C306 H317 0.930 . S
C307 C305 1.369 . S
C307 C309 1.392 . S
C307 H318 0.930 . S
C308 C304 1.373 . S
C308 C306 1.383 . S
C308 H319 0.931 . S
C309 C306 1.382 . S
C309 C307 1.392 . S
C310 Eu281 2.828 1_554 S
C310 O294 1.249 . S
C310 O295 1.244 . S
C310 C304 1.505 . S
C311 O298 1.258 . S
C311 O299 1.242 . S
H312 C284 0.930 . S
H313 C285 0.930 . S
H314 C286 0.930 . S
H315 C287 0.931 . S
H316 C305 0.930 . S
H317 C306 0.930 . S
H318 C307 0.930 . S
H319 C308 0.931 . S
C320 C321 1.349 . S
C320 C322 1.327 . S
C320 H345 0.950 . S
C321 C320 1.349 . S
C321 C337 1.349 . S
C322 C320 1.327 . S
C322 C341 1.429 . S
C322 H346 0.950 . S
C323 C340 1.574 . S
C323 C342 1.368 . S
C323 H347 0.949 . S
H324 C328 0.949 . S
C325 C326 1.349 . S
C325 C327 1.327 . S
C325 H348 0.950 . S
C326 C325 1.349 . S
C326 C338 1.349 . S
C327 C325 1.327 . S
C327 C343 1.429 . S
C327 H349 0.950 . S
C328 H324 0.949 . S
C328 C336 1.574 . S
C328 C344 1.368 . S
H329 C337 0.950 . S
H330 C335 0.950 . S
H331 C336 0.949 . S
H332 C338 0.950 . S
H333 C339 0.950 . S
H334 C340 0.949 . S
C335 H330 0.950 . S
C335 C337 1.327 . S
C335 C341 1.429 . S
C336 C328 1.574 . S
C336 H331 0.949 . S
C336 C342 1.368 . S
C337 C321 1.349 . S
C337 H329 0.950 . S
C337 C335 1.327 . S
C338 C326 1.349 . S
C338 H332 0.950 . S
C338 C339 1.327 . S
C339 H333 0.950 . S
C339 C338 1.327 . S
C339 C343 1.429 . S
C340 C323 1.574 . S
C340 H334 0.949 . S
C340 C344 1.368 . S
C341 C322 1.429 . S
C341 C335 1.429 . S
C341 C342 1.523 . S
C342 C323 1.368 . S
C342 C336 1.368 . S
C342 C341 1.523 . S
C343 C327 1.429 . S
C343 C339 1.429 . S
C343 C344 1.523 . S
C344 C328 1.368 . S
C344 C340 1.368 . S
C344 C343 1.523 . S
H345 C320 0.950 . S
H346 C322 0.950 . S
H347 C323 0.949 . S
H348 C325 0.950 . S
H349 C327 0.950 . S
C350 C351 1.349 . S
C350 C352 1.327 . S
C350 H375 0.950 . S
C351 C350 1.349 . S
C351 C367 1.349 . S
C352 C350 1.327 . S
C352 C371 1.429 . S
C352 H376 0.950 . S
C353 C370 1.574 . S
C353 C372 1.368 . S
C353 H377 0.949 . S
H354 C358 0.949 . S
C355 C356 1.349 . S
C355 C357 1.327 . S
C355 H378 0.950 . S
C356 C355 1.349 . S
C356 C368 1.349 . S
C357 C355 1.327 . S
C357 C373 1.429 . S
C357 H379 0.950 . S
C358 H354 0.949 . S
C358 C366 1.574 . S
C358 C374 1.368 . S
H359 C367 0.950 . S
H360 C365 0.950 . S
H361 C366 0.949 . S
H362 C368 0.950 . S
H363 C369 0.950 . S
H364 C370 0.949 . S
C365 H360 0.950 . S
C365 C367 1.327 . S
C365 C371 1.429 . S
C366 C358 1.574 . S
C366 H361 0.949 . S
C366 C372 1.368 . S
C367 C351 1.349 . S
C367 H359 0.950 . S
C367 C365 1.327 . S
C368 C356 1.349 . S
C368 H362 0.950 . S
C368 C369 1.327 . S
C369 H363 0.950 . S
C369 C368 1.327 . S
C369 C373 1.429 . S
C370 C353 1.574 . S
C370 H364 0.949 . S
C370 C374 1.368 . S
C371 C352 1.429 . S
C371 C365 1.429 . S
C371 C372 1.523 . S
C372 C353 1.368 . S
C372 C366 1.368 . S
C372 C371 1.523 . S
C373 C357 1.429 . S
C373 C369 1.429 . S
C373 C374 1.523 . S
C374 C358 1.368 . S
C374 C370 1.368 . S
C374 C373 1.523 . S
H375 C350 0.950 . S
H376 C352 0.950 . S
H377 C353 0.949 . S
H378 C355 0.950 . S
H379 C357 0.950 . S
C380 C381 1.349 . S
C380 C382 1.327 . S
C380 H405 0.950 . S
C381 C380 1.349 . S
C381 C397 1.349 . S
C382 C380 1.327 . S
C382 C401 1.429 . S
C382 H406 0.950 . S
C383 C400 1.574 . S
C383 C402 1.368 . S
C383 H407 0.949 . S
H384 C388 0.949 . S
C385 C386 1.349 . S
C385 C387 1.327 . S
C385 H408 0.950 . S
C386 C385 1.349 . S
C386 C398 1.349 . S
C387 C385 1.327 . S
C387 C403 1.429 . S
C387 H409 0.950 . S
C388 H384 0.949 . S
C388 C396 1.574 . S
C388 C404 1.368 . S
H389 C397 0.950 . S
H390 C395 0.950 . S
H391 C396 0.949 . S
H392 C398 0.950 . S
H393 C399 0.950 . S
H394 C400 0.949 . S
C395 H390 0.950 . S
C395 C397 1.327 . S
C395 C401 1.429 . S
C396 C388 1.574 . S
C396 H391 0.949 . S
C396 C402 1.368 . S
C397 C381 1.349 . S
C397 H389 0.950 . S
C397 C395 1.327 . S
C398 C386 1.349 . S
C398 H392 0.950 . S
C398 C399 1.327 . S
C399 H393 0.950 . S
C399 C398 1.327 . S
C399 C403 1.429 . S
C400 C383 1.574 . S
C400 H394 0.949 . S
C400 C404 1.368 . S
C401 C382 1.429 . S
C401 C395 1.429 . S
C401 C402 1.523 . S
C402 C383 1.368 . S
C402 C396 1.368 . S
C402 C401 1.523 . S
C403 C387 1.429 . S
C403 C399 1.429 . S
C403 C404 1.523 . S
C404 C388 1.368 . S
C404 C400 1.368 . S
C404 C403 1.523 . S
H405 C380 0.950 . S
H406 C382 0.950 . S
H407 C383 0.949 . S
H408 C385 0.950 . S
H409 C387 0.950 . S
C410 C411 1.349 . S
C410 C412 1.327 . S
C410 H435 0.950 . S
C411 C410 1.349 . S
C411 C427 1.349 . S
C412 C410 1.327 . S
C412 C431 1.429 . S
C412 H436 0.950 . S
C413 C430 1.574 . S
C413 C432 1.368 . S
C413 H437 0.949 . S
H414 C418 0.949 . S
C415 C416 1.349 . S
C415 C417 1.327 . S
C415 H438 0.950 . S
C416 C415 1.349 . S
C416 C428 1.349 . S
C417 C415 1.327 . S
C417 C433 1.429 . S
C417 H439 0.950 . S
C418 H414 0.949 . S
C418 C426 1.574 . S
C418 C434 1.368 . S
H419 C427 0.950 . S
H420 C425 0.950 . S
H421 C426 0.949 . S
H422 C428 0.950 . S
H423 C429 0.950 . S
H424 C430 0.949 . S
C425 H420 0.950 . S
C425 C427 1.327 . S
C425 C431 1.429 . S
C426 C418 1.574 . S
C426 H421 0.949 . S
C426 C432 1.368 . S
C427 C411 1.349 . S
C427 H419 0.950 . S
C427 C425 1.327 . S
C428 C416 1.349 . S
C428 H422 0.950 . S
C428 C429 1.327 . S
C429 H423 0.950 . S
C429 C428 1.327 . S
C429 C433 1.429 . S
C430 C413 1.574 . S
C430 H424 0.949 . S
C430 C434 1.368 . S
C431 C412 1.429 . S
C431 C425 1.429 . S
C431 C432 1.523 . S
C432 C413 1.368 . S
C432 C426 1.368 . S
C432 C431 1.523 . S
C433 C417 1.429 . S
C433 C429 1.429 . S
C433 C434 1.523 . S
C434 C418 1.368 . S
C434 C430 1.368 . S
C434 C433 1.523 . S
H435 C410 0.950 . S
H436 C412 0.950 . S
H437 C413 0.949 . S
H438 C415 0.950 . S
H439 C417 0.950 . S
C440 C441 1.349 . S
C440 C442 1.327 . S
C440 H465 0.950 . S
C441 C440 1.349 . S
C441 C457 1.349 . S
C442 C440 1.327 . S
C442 C461 1.429 . S
C442 H466 0.950 . S
C443 C460 1.574 1_565 S
C443 C462 1.368 . S
C443 H467 0.949 . S
H444 C448 0.949 . S
C445 C446 1.349 . S
C445 C447 1.327 . S
C445 H468 0.950 . S
C446 C445 1.349 . S
C446 C458 1.349 . S
C447 C445 1.327 . S
C447 C463 1.429 . S
C447 H469 0.950 . S
C448 H444 0.949 . S
C448 C456 1.574 1_545 S
C448 C464 1.368 . S
H449 C457 0.950 . S
H450 C455 0.950 . S
H451 C456 0.949 . S
H452 C458 0.950 . S
H453 C459 0.950 . S
H454 C460 0.949 . S
C455 H450 0.950 . S
C455 C457 1.327 . S
C455 C461 1.429 . S
C456 C448 1.574 1_565 S
C456 H451 0.949 . S
C456 C462 1.368 . S
C457 C441 1.349 . S
C457 H449 0.950 . S
C457 C455 1.327 . S
C458 C446 1.349 . S
C458 H452 0.950 . S
C458 C459 1.327 . S
C459 H453 0.950 . S
C459 C458 1.327 . S
C459 C463 1.429 . S
C460 C443 1.574 1_545 S
C460 H454 0.949 . S
C460 C464 1.368 . S
C461 C442 1.429 . S
C461 C455 1.429 . S
C461 C462 1.523 . S
C462 C443 1.368 . S
C462 C456 1.368 . S
C462 C461 1.523 . S
C463 C447 1.429 . S
C463 C459 1.429 . S
C463 C464 1.523 . S
C464 C448 1.368 . S
C464 C460 1.368 . S
C464 C463 1.523 . S
H465 C440 0.950 . S
H466 C442 0.950 . S
H467 C443 0.949 . S
H468 C445 0.950 . S
H469 C447 0.950 . S
C470 C471 1.349 . S
C470 C472 1.327 . S
C470 H495 0.950 . S
C471 C470 1.349 . S
C471 C487 1.349 . S
C472 C470 1.327 . S
C472 C491 1.429 . S
C472 H496 0.950 . S
C473 C490 1.574 . S
C473 C492 1.368 . S
C473 H497 0.949 . S
H474 C478 0.949 . S
C475 C476 1.349 . S
C475 C477 1.327 . S
C475 H498 0.950 . S
C476 C475 1.349 . S
C476 C488 1.349 . S
C477 C475 1.327 . S
C477 C493 1.429 . S
C477 H499 0.950 . S
C478 H474 0.949 . S
C478 C486 1.574 . S
C478 C494 1.368 . S
H479 C487 0.950 . S
H480 C485 0.950 . S
H481 C486 0.949 . S
H482 C488 0.950 . S
H483 C489 0.950 . S
H484 C490 0.949 . S
C485 H480 0.950 . S
C485 C487 1.327 . S
C485 C491 1.429 . S
C486 C478 1.574 . S
C486 H481 0.949 . S
C486 C492 1.368 . S
C487 C471 1.349 . S
C487 H479 0.950 . S
C487 C485 1.327 . S
C488 C476 1.349 . S
C488 H482 0.950 . S
C488 C489 1.327 . S
C489 H483 0.950 . S
C489 C488 1.327 . S
C489 C493 1.429 . S
C490 C473 1.574 . S
C490 H484 0.949 . S
C490 C494 1.368 . S
C491 C472 1.429 . S
C491 C485 1.429 . S
C491 C492 1.523 . S
C492 C473 1.368 . S
C492 C486 1.368 . S
C492 C491 1.523 . S
C493 C477 1.429 . S
C493 C489 1.429 . S
C493 C494 1.523 . S
C494 C478 1.368 . S
C494 C490 1.368 . S
C494 C493 1.523 . S
H495 C470 0.950 . S
H496 C472 0.950 . S
H497 C473 0.949 . S
H498 C475 0.950 . S
H499 C477 0.950 . S
C500 C501 1.349 . S
C500 C502 1.327 . S
C500 H525 0.950 . S
C501 C500 1.349 . S
C501 C517 1.349 . S
C502 C500 1.327 . S
C502 C521 1.429 . S
C502 H526 0.950 . S
C503 C520 1.574 1_565 S
C503 C522 1.368 . S
C503 H527 0.949 . S
H504 C508 0.949 . S
C505 C506 1.349 . S
C505 C507 1.327 . S
C505 H528 0.950 . S
C506 C505 1.349 . S
C506 C518 1.349 . S
C507 C505 1.327 . S
C507 C523 1.429 . S
C507 H529 0.950 . S
C508 H504 0.949 . S
C508 C516 1.574 1_545 S
C508 C524 1.368 . S
H509 C517 0.950 . S
H510 C515 0.950 . S
H511 C516 0.949 . S
H512 C518 0.950 . S
H513 C519 0.950 . S
H514 C520 0.949 . S
C515 H510 0.950 . S
C515 C517 1.327 . S
C515 C521 1.429 . S
C516 C508 1.574 1_565 S
C516 H511 0.949 . S
C516 C522 1.368 . S
C517 C501 1.349 . S
C517 H509 0.950 . S
C517 C515 1.327 . S
C518 C506 1.349 . S
C518 H512 0.950 . S
C518 C519 1.327 . S
C519 H513 0.950 . S
C519 C518 1.327 . S
C519 C523 1.429 . S
C520 C503 1.574 1_545 S
C520 H514 0.949 . S
C520 C524 1.368 . S
C521 C502 1.429 . S
C521 C515 1.429 . S
C521 C522 1.523 . S
C522 C503 1.368 . S
C522 C516 1.368 . S
C522 C521 1.523 . S
C523 C507 1.429 . S
C523 C519 1.429 . S
C523 C524 1.523 . S
C524 C508 1.368 . S
C524 C520 1.368 . S
C524 C523 1.523 . S
H525 C500 0.950 . S
H526 C502 0.950 . S
H527 C503 0.949 . S
H528 C505 0.950 . S
H529 C507 0.950 . S
C530 C531 1.349 . S
C530 C532 1.327 . S
C530 H555 0.950 . S
C531 C530 1.349 . S
C531 C547 1.349 . S
C532 C530 1.327 . S
C532 C551 1.429 . S
C532 H556 0.950 . S
C533 C550 1.574 . S
C533 C552 1.368 . S
C533 H557 0.949 . S
H534 C538 0.949 . S
C535 C536 1.349 . S
C535 C537 1.327 . S
C535 H558 0.950 . S
C536 C535 1.349 . S
C536 C548 1.349 . S
C537 C535 1.327 . S
C537 C553 1.429 . S
C537 H559 0.950 . S
C538 H534 0.949 . S
C538 C546 1.574 . S
C538 C554 1.368 . S
H539 C547 0.950 . S
H540 C545 0.950 . S
H541 C546 0.949 . S
H542 C548 0.950 . S
H543 C549 0.950 . S
H544 C550 0.949 . S
C545 H540 0.950 . S
C545 C547 1.327 . S
C545 C551 1.429 . S
C546 C538 1.574 . S
C546 H541 0.949 . S
C546 C552 1.368 . S
C547 C531 1.349 . S
C547 H539 0.950 . S
C547 C545 1.327 . S
C548 C536 1.349 . S
C548 H542 0.950 . S
C548 C549 1.327 . S
C549 H543 0.950 . S
C549 C548 1.327 . S
C549 C553 1.429 . S
C550 C533 1.574 . S
C550 H544 0.949 . S
C550 C554 1.368 . S
C551 C532 1.429 . S
C551 C545 1.429 . S
C551 C552 1.523 . S
C552 C533 1.368 . S
C552 C546 1.368 . S
C552 C551 1.523 . S
C553 C537 1.429 . S
C553 C549 1.429 . S
C553 C554 1.523 . S
C554 C538 1.368 . S
C554 C550 1.368 . S
C554 C553 1.523 . S
H555 C530 0.950 . S
H556 C532 0.950 . S
H557 C533 0.949 . S
H558 C535 0.950 . S
H559 C537 0.950 . S
C560 C561 1.349 1_554 S
C560 C562 1.327 . S
C560 H585 0.950 . S
C561 C560 1.349 1_556 S
C561 C577 1.349 . S
C562 C560 1.327 . S
C562 C581 1.429 1_554 S
C562 H586 0.950 . S
C563 C580 1.574 . S
C563 C582 1.368 . S
C563 H587 0.949 . S
H564 C568 0.949 . S
C565 C566 1.349 . S
C565 C567 1.327 . S
C565 H588 0.950 . S
C566 C565 1.349 . S
C566 C578 1.349 1_556 S
C567 C565 1.327 . S
C567 C583 1.429 . S
C567 H589 0.950 . S
C568 H564 0.949 . S
C568 C576 1.574 . S
C568 C584 1.368 1_554 S
H569 C577 0.950 . S
H570 C575 0.950 . S
H571 C576 0.949 . S
H572 C578 0.950 . S
H573 C579 0.950 . S
H574 C580 0.949 . S
C575 H570 0.950 . S
C575 C577 1.327 . S
C575 C581 1.429 . S
C576 C568 1.574 . S
C576 H571 0.949 . S
C576 C582 1.368 1_554 S
C577 C561 1.349 . S
C577 H569 0.950 . S
C577 C575 1.327 . S
C578 C566 1.349 1_554 S
C578 H572 0.950 . S
C578 C579 1.327 . S
C579 H573 0.950 . S
C579 C578 1.327 . S
C579 C583 1.429 1_554 S
C580 C563 1.574 . S
C580 H574 0.949 . S
C580 C584 1.368 . S
C581 C562 1.429 1_556 S
C581 C575 1.429 . S
C581 C582 1.523 . S
C582 C563 1.368 . S
C582 C576 1.368 1_556 S
C582 C581 1.523 . S
C583 C567 1.429 . S
C583 C579 1.429 1_556 S
C583 C584 1.523 . S
C584 C568 1.368 1_556 S
C584 C580 1.368 . S
C584 C583 1.523 . S
H585 C560 0.950 . S
H586 C562 0.950 . S
H587 C563 0.949 . S
H588 C565 0.950 . S
H589 C567 0.950 . S
C590 C591 1.349 1_554 S
C590 C592 1.327 . S
C590 H615 0.950 . S
C591 C590 1.349 1_556 S
C591 C607 1.349 . S
C592 C590 1.327 . S
C592 C611 1.429 1_554 S
C592 H616 0.950 . S
C593 C610 1.574 1_565 S
C593 C612 1.368 . S
C593 H617 0.949 . S
H594 C598 0.949 . S
C595 C596 1.349 . S
C595 C597 1.327 . S
C595 H618 0.950 . S
C596 C595 1.349 . S
C596 C608 1.349 1_556 S
C597 C595 1.327 . S
C597 C613 1.429 . S
C597 H619 0.950 . S
C598 H594 0.949 . S
C598 C606 1.574 1_545 S
C598 C614 1.368 1_554 S
H599 C607 0.950 . S
H600 C605 0.950 . S
H601 C606 0.949 . S
H602 C608 0.950 . S
H603 C609 0.950 . S
H604 C610 0.949 . S
C605 H600 0.950 . S
C605 C607 1.327 . S
C605 C611 1.429 . S
C606 C598 1.574 1_565 S
C606 H601 0.949 . S
C606 C612 1.368 1_554 S
C607 C591 1.349 . S
C607 H599 0.950 . S
C607 C605 1.327 . S
C608 C596 1.349 1_554 S
C608 H602 0.950 . S
C608 C609 1.327 . S
C609 H603 0.950 . S
C609 C608 1.327 . S
C609 C613 1.429 1_554 S
C610 C593 1.574 1_545 S
C610 H604 0.949 . S
C610 C614 1.368 . S
C611 C592 1.429 1_556 S
C611 C605 1.429 . S
C611 C612 1.523 . S
C612 C593 1.368 . S
C612 C606 1.368 1_556 S
C612 C611 1.523 . S
C613 C597 1.429 . S
C613 C609 1.429 1_556 S
C613 C614 1.523 . S
C614 C598 1.368 1_556 S
C614 C610 1.368 . S
C614 C613 1.523 . S
H615 C590 0.950 . S
H616 C592 0.950 . S
H617 C593 0.949 . S
H618 C595 0.950 . S
H619 C597 0.950 . S
C620 C621 1.349 . S
C620 C622 1.327 . S
C620 H645 0.950 . S
C621 C620 1.349 . S
C621 C637 1.349 1_554 S
C622 C620 1.327 . S
C622 C641 1.429 . S
C622 H646 0.950 . S
C623 C640 1.574 . S
C623 C642 1.368 1_556 S
C623 H647 0.949 . S
H624 C628 0.949 . S
C625 C626 1.349 1_556 S
C625 C627 1.327 . S
C625 H648 0.950 . S
C626 C625 1.349 1_554 S
C626 C638 1.349 . S
C627 C625 1.327 . S
C627 C643 1.429 1_556 S
C627 H649 0.950 . S
C628 H624 0.949 . S
C628 C636 1.574 . S
C628 C644 1.368 . S
H629 C637 0.950 . S
H630 C635 0.950 . S
H631 C636 0.949 . S
H632 C638 0.950 . S
H633 C639 0.950 . S
H634 C640 0.949 . S
C635 H630 0.950 . S
C635 C637 1.327 . S
C635 C641 1.429 1_556 S
C636 C628 1.574 . S
C636 H631 0.949 . S
C636 C642 1.368 . S
C637 C621 1.349 1_556 S
C637 H629 0.950 . S
C637 C635 1.327 . S
C638 C626 1.349 . S
C638 H632 0.950 . S
C638 C639 1.327 . S
C639 H633 0.950 . S
C639 C638 1.327 . S
C639 C643 1.429 . S
C640 C623 1.574 . S
C640 H634 0.949 . S
C640 C644 1.368 1_556 S
C641 C622 1.429 . S
C641 C635 1.429 1_554 S
C641 C642 1.523 . S
C642 C623 1.368 1_554 S
C642 C636 1.368 . S
C642 C641 1.523 . S
C643 C627 1.429 1_554 S
C643 C639 1.429 . S
C643 C644 1.523 . S
C644 C628 1.368 . S
C644 C640 1.368 1_554 S
C644 C643 1.523 . S
H645 C620 0.950 . S
H646 C622 0.950 . S
H647 C623 0.949 . S
H648 C625 0.950 . S
H649 C627 0.950 . S
C650 C651 1.349 1_556 S
C650 C652 1.327 . S
C650 H675 0.950 . S
C651 C650 1.349 1_554 S
C651 C667 1.349 . S
C652 C650 1.327 . S
C652 C671 1.429 1_556 S
C652 H676 0.950 . S
C653 C670 1.574 1_545 S
C653 C672 1.368 . S
C653 H677 0.949 . S
H654 C658 0.949 . S
C655 C656 1.349 . S
C655 C657 1.327 . S
C655 H678 0.950 . S
C656 C655 1.349 . S
C656 C668 1.349 1_554 S
C657 C655 1.327 . S
C657 C673 1.429 . S
C657 H679 0.950 . S
C658 H654 0.949 . S
C658 C666 1.574 1_565 S
C658 C674 1.368 1_556 S
H659 C667 0.950 . S
H660 C665 0.950 . S
H661 C666 0.949 . S
H662 C668 0.950 . S
H663 C669 0.950 . S
H664 C670 0.949 . S
C665 H660 0.950 . S
C665 C667 1.327 . S
C665 C671 1.429 . S
C666 C658 1.574 1_545 S
C666 H661 0.949 . S
C666 C672 1.368 1_556 S
C667 C651 1.349 . S
C667 H659 0.950 . S
C667 C665 1.327 . S
C668 C656 1.349 1_556 S
C668 H662 0.950 . S
C668 C669 1.327 . S
C669 H663 0.950 . S
C669 C668 1.327 . S
C669 C673 1.429 1_556 S
C670 C653 1.574 1_565 S
C670 H664 0.949 . S
C670 C674 1.368 . S
C671 C652 1.429 1_554 S
C671 C665 1.429 . S
C671 C672 1.523 . S
C672 C653 1.368 . S
C672 C666 1.368 1_554 S
C672 C671 1.523 . S
C673 C657 1.429 . S
C673 C669 1.429 1_554 S
C673 C674 1.523 . S
C674 C658 1.368 1_554 S
C674 C670 1.368 . S
C674 C673 1.523 . S
H675 C650 0.950 . S
H676 C652 0.950 . S
H677 C653 0.949 . S
H678 C655 0.950 . S
H679 C657 0.950 . S
C680 C681 1.349 . S
C680 C682 1.327 . S
C680 H705 0.950 . S
C681 C680 1.349 . S
C681 C697 1.349 . S
C682 C680 1.327 . S
C682 C701 1.429 . S
C682 H706 0.950 . S
C683 C700 1.574 . S
C683 C702 1.368 1_556 S
C683 H707 0.949 1_556 S
H684 C688 0.949 . S
C685 C686 1.349 . S
C685 C687 1.327 . S
C685 H708 0.950 . S
C686 C685 1.349 . S
C686 C698 1.349 . S
C687 C685 1.327 . S
C687 C703 1.429 . S
C687 H709 0.950 . S
C688 H684 0.949 . S
C688 C696 1.574 . S
C688 C704 1.368 . S
H689 C697 0.950 . S
H690 C695 0.950 . S
H691 C696 0.949 1_554 S
H692 C698 0.950 . S
H693 C699 0.950 . S
H694 C700 0.949 . S
C695 H690 0.950 . S
C695 C697 1.327 . S
C695 C701 1.429 . S
C696 C688 1.574 . S
C696 H691 0.949 1_556 S
C696 C702 1.368 1_556 S
C697 C681 1.349 . S
C697 H689 0.950 . S
C697 C695 1.327 . S
C698 C686 1.349 . S
C698 H692 0.950 . S
C698 C699 1.327 . S
C699 H693 0.950 . S
C699 C698 1.327 . S
C699 C703 1.429 . S
C700 C683 1.574 . S
C700 H694 0.949 . S
C700 C704 1.368 . S
C701 C682 1.429 . S
C701 C695 1.429 . S
C701 C702 1.523 . S
C702 C683 1.368 1_554 S
C702 C696 1.368 1_554 S
C702 C701 1.523 . S
C703 C687 1.429 . S
C703 C699 1.429 . S
C703 C704 1.523 . S
C704 C688 1.368 . S
C704 C700 1.368 . S
C704 C703 1.523 . S
H705 C680 0.950 . S
H706 C682 0.950 . S
H707 C683 0.949 1_554 S
H708 C685 0.950 . S
H709 C687 0.950 . S
C710 C711 1.349 . S
C710 C712 1.327 . S
C710 H735 0.950 . S
C711 C710 1.349 . S
C711 C727 1.349 . S
C712 C710 1.327 . S
C712 C731 1.429 . S
C712 H736 0.950 . S
C713 C730 1.574 . S
C713 C732 1.368 1_556 S
C713 H737 0.949 1_556 S
H714 C718 0.949 . S
C715 C716 1.349 . S
C715 C717 1.327 . S
C715 H738 0.950 . S
C716 C715 1.349 . S
C716 C728 1.349 . S
C717 C715 1.327 . S
C717 C733 1.429 . S
C717 H739 0.950 . S
C718 H714 0.949 . S
C718 C726 1.574 . S
C718 C734 1.368 . S
H719 C727 0.950 . S
H720 C725 0.950 . S
H721 C726 0.949 1_554 S
H722 C728 0.950 . S
H723 C729 0.950 . S
H724 C730 0.949 . S
C725 H720 0.950 . S
C725 C727 1.327 . S
C725 C731 1.429 . S
C726 C718 1.574 . S
C726 H721 0.949 1_556 S
C726 C732 1.368 1_556 S
C727 C711 1.349 . S
C727 H719 0.950 . S
C727 C725 1.327 . S
C728 C716 1.349 . S
C728 H722 0.950 . S
C728 C729 1.327 . S
C729 H723 0.950 . S
C729 C728 1.327 . S
C729 C733 1.429 . S
C730 C713 1.574 . S
C730 H724 0.949 . S
C730 C734 1.368 . S
C731 C712 1.429 . S
C731 C725 1.429 . S
C731 C732 1.523 . S
C732 C713 1.368 1_554 S
C732 C726 1.368 1_554 S
C732 C731 1.523 . S
C733 C717 1.429 . S
C733 C729 1.429 . S
C733 C734 1.523 . S
C734 C718 1.368 . S
C734 C730 1.368 . S
C734 C733 1.523 . S
H735 C710 0.950 . S
H736 C712 0.950 . S
H737 C713 0.949 1_554 S
H738 C715 0.950 . S
H739 C717 0.950 . S
C740 C741 1.349 . S
C740 C742 1.327 . S
C740 H765 0.950 . S
C741 C740 1.349 . S
C741 C757 1.349 . S
C742 C740 1.327 . S
C742 C761 1.429 . S
C742 H766 0.950 . S
C743 C760 1.574 . S
C743 C762 1.368 . S
C743 H767 0.949 . S
H744 C748 0.949 1_556 S
C745 C746 1.349 . S
C745 C747 1.327 . S
C745 H768 0.950 . S
C746 C745 1.349 . S
C746 C758 1.349 . S
C747 C745 1.327 . S
C747 C763 1.429 . S
C747 H769 0.950 . S
C748 H744 0.949 1_554 S
C748 C756 1.574 . S
C748 C764 1.368 1_554 S
H749 C757 0.950 . S
H750 C755 0.950 . S
H751 C756 0.949 . S
H752 C758 0.950 . S
H753 C759 0.950 . S
H754 C760 0.949 1_556 S
C755 H750 0.950 . S
C755 C757 1.327 . S
C755 C761 1.429 . S
C756 C748 1.574 . S
C756 H751 0.949 . S
C756 C762 1.368 . S
C757 C741 1.349 . S
C757 H749 0.950 . S
C757 C755 1.327 . S
C758 C746 1.349 . S
C758 H752 0.950 . S
C758 C759 1.327 . S
C759 H753 0.950 . S
C759 C758 1.327 . S
C759 C763 1.429 . S
C760 C743 1.574 . S
C760 H754 0.949 1_554 S
C760 C764 1.368 1_554 S
C761 C742 1.429 . S
C761 C755 1.429 . S
C761 C762 1.523 . S
C762 C743 1.368 . S
C762 C756 1.368 . S
C762 C761 1.523 . S
C763 C747 1.429 . S
C763 C759 1.429 . S
C763 C764 1.523 . S
C764 C748 1.368 1_556 S
C764 C760 1.368 1_556 S
C764 C763 1.523 . S
H765 C740 0.950 . S
H766 C742 0.950 . S
H767 C743 0.949 . S
H768 C745 0.950 . S
H769 C747 0.950 . S
C770 C771 1.349 . S
C770 C772 1.327 . S
C770 H795 0.950 . S
C771 C770 1.349 . S
C771 C787 1.349 . S
C772 C770 1.327 . S
C772 C791 1.429 . S
C772 H796 0.950 . S
C773 C790 1.574 . S
C773 C792 1.368 1_554 S
C773 H797 0.949 1_554 S
H774 C778 0.949 . S
C775 C776 1.349 . S
C775 C777 1.327 . S
C775 H798 0.950 . S
C776 C775 1.349 . S
C776 C788 1.349 . S
C777 C775 1.327 . S
C777 C793 1.429 . S
C777 H799 0.950 . S
C778 H774 0.949 . S
C778 C786 1.574 . S
C778 C794 1.368 . S
H779 C787 0.950 . S
H780 C785 0.950 . S
H781 C786 0.949 1_556 S
H782 C788 0.950 . S
H783 C789 0.950 . S
H784 C790 0.949 . S
C785 H780 0.950 . S
C785 C787 1.327 . S
C785 C791 1.429 . S
C786 C778 1.574 . S
C786 H781 0.949 1_554 S
C786 C792 1.368 1_554 S
C787 C771 1.349 . S
C787 H779 0.950 . S
C787 C785 1.327 . S
C788 C776 1.349 . S
C788 H782 0.950 . S
C788 C789 1.327 . S
C789 H783 0.950 . S
C789 C788 1.327 . S
C789 C793 1.429 . S
C790 C773 1.574 . S
C790 H784 0.949 . S
C790 C794 1.368 . S
C791 C772 1.429 . S
C791 C785 1.429 . S
C791 C792 1.523 . S
C792 C773 1.368 1_556 S
C792 C786 1.368 1_556 S
C792 C791 1.523 . S
C793 C777 1.429 . S
C793 C789 1.429 . S
C793 C794 1.523 . S
C794 C778 1.368 . S
C794 C790 1.368 . S
C794 C793 1.523 . S
H795 C770 0.950 . S
H796 C772 0.950 . S
H797 C773 0.949 1_556 S
H798 C775 0.950 . S
H799 C777 0.950 . S
C800 C801 1.349 . S
C800 C802 1.327 . S
C800 H825 0.950 . S
C801 C800 1.349 . S
C801 C817 1.349 . S
C802 C800 1.327 . S
C802 C821 1.429 . S
C802 H826 0.950 . S
C803 C820 1.574 . S
C803 C822 1.368 . S
C803 H827 0.949 . S
H804 C808 0.949 . S
C805 C806 1.349 . S
C805 C807 1.327 . S
C805 H828 0.950 . S
C806 C805 1.349 . S
C806 C818 1.349 . S
C807 C805 1.327 . S
C807 C823 1.429 . S
C807 H829 0.950 . S
C808 H804 0.949 . S
C808 C816 1.574 . S
C808 C824 1.368 . S
H809 C817 0.950 . S
H810 C815 0.950 . S
H811 C816 0.949 . S
H812 C818 0.950 . S
H813 C819 0.950 . S
H814 C820 0.949 . S
C815 H810 0.950 . S
C815 C817 1.327 . S
C815 C821 1.429 . S
C816 C808 1.574 . S
C816 H811 0.949 . S
C816 C822 1.368 . S
C817 C801 1.349 . S
C817 H809 0.950 . S
C817 C815 1.327 . S
C818 C806 1.349 . S
C818 H812 0.950 . S
C818 C819 1.327 . S
C819 H813 0.950 . S
C819 C818 1.327 . S
C819 C823 1.429 . S
C820 C803 1.574 . S
C820 H814 0.949 . S
C820 C824 1.368 . S
C821 C802 1.429 . S
C821 C815 1.429 . S
C821 C822 1.523 . S
C822 C803 1.368 . S
C822 C816 1.368 . S
C822 C821 1.523 . S
C823 C807 1.429 . S
C823 C819 1.429 . S
C823 C824 1.523 . S
C824 C808 1.368 . S
C824 C820 1.368 . S
C824 C823 1.523 . S
H825 C800 0.950 . S
H826 C802 0.950 . S
H827 C803 0.949 . S
H828 C805 0.950 . S
H829 C807 0.950 . S
C830 C831 1.349 . S
C830 C832 1.327 . S
C830 H855 0.950 . S
C831 C830 1.349 . S
C831 C847 1.349 . S
C832 C830 1.327 . S
C832 C851 1.429 . S
C832 H856 0.950 . S
C833 C850 1.574 . S
C833 C852 1.368 . S
C833 H857 0.949 . S
H834 C838 0.949 . S
C835 C836 1.349 . S
C835 C837 1.327 . S
C835 H858 0.950 . S
C836 C835 1.349 . S
C836 C848 1.349 . S
C837 C835 1.327 . S
C837 C853 1.429 . S
C837 H859 0.950 . S
C838 H834 0.949 . S
C838 C846 1.574 . S
C838 C854 1.368 . S
H839 C847 0.950 . S
H840 C845 0.950 . S
H841 C846 0.949 . S
H842 C848 0.950 . S
H843 C849 0.950 . S
H844 C850 0.949 . S
C845 H840 0.950 . S
C845 C847 1.327 . S
C845 C851 1.429 . S
C846 C838 1.574 . S
C846 H841 0.949 . S
C846 C852 1.368 . S
C847 C831 1.349 . S
C847 H839 0.950 . S
C847 C845 1.327 . S
C848 C836 1.349 . S
C848 H842 0.950 . S
C848 C849 1.327 . S
C849 H843 0.950 . S
C849 C848 1.327 . S
C849 C853 1.429 . S
C850 C833 1.574 . S
C850 H844 0.949 . S
C850 C854 1.368 . S
C851 C832 1.429 . S
C851 C845 1.429 . S
C851 C852 1.523 . S
C852 C833 1.368 . S
C852 C846 1.368 . S
C852 C851 1.523 . S
C853 C837 1.429 . S
C853 C849 1.429 . S
C853 C854 1.523 . S
C854 C838 1.368 . S
C854 C850 1.368 . S
C854 C853 1.523 . S
H855 C830 0.950 . S
H856 C832 0.950 . S
H857 C833 0.949 . S
H858 C835 0.950 . S
H859 C837 0.950 . S
C860 C861 1.349 . S
C860 C862 1.327 . S
C860 H885 0.950 . S
C861 C860 1.349 . S
C861 C877 1.349 . S
C862 C860 1.327 . S
C862 C881 1.429 . S
C862 H886 0.950 . S
C863 C880 1.574 . S
C863 C882 1.368 . S
C863 H887 0.949 . S
H864 C868 0.949 . S
C865 C866 1.349 . S
C865 C867 1.327 . S
C865 H888 0.950 . S
C866 C865 1.349 . S
C866 C878 1.349 . S
C867 C865 1.327 . S
C867 C883 1.429 . S
C867 H889 0.950 . S
C868 H864 0.949 . S
C868 C876 1.574 . S
C868 C884 1.368 . S
H869 C877 0.950 . S
H870 C875 0.950 . S
H871 C876 0.949 . S
H872 C878 0.950 . S
H873 C879 0.950 . S
H874 C880 0.949 . S
C875 H870 0.950 . S
C875 C877 1.327 . S
C875 C881 1.429 . S
C876 C868 1.574 . S
C876 H871 0.949 . S
C876 C882 1.368 . S
C877 C861 1.349 . S
C877 H869 0.950 . S
C877 C875 1.327 . S
C878 C866 1.349 . S
C878 H872 0.950 . S
C878 C879 1.327 . S
C879 H873 0.950 . S
C879 C878 1.327 . S
C879 C883 1.429 . S
C880 C863 1.574 . S
C880 H874 0.949 . S
C880 C884 1.368 . S
C881 C862 1.429 . S
C881 C875 1.429 . S
C881 C882 1.523 . S
C882 C863 1.368 . S
C882 C876 1.368 . S
C882 C881 1.523 . S
C883 C867 1.429 . S
C883 C879 1.429 . S
C883 C884 1.523 . S
C884 C868 1.368 . S
C884 C880 1.368 . S
C884 C883 1.523 . S
H885 C860 0.950 . S
H886 C862 0.950 . S
H887 C863 0.949 . S
H888 C865 0.950 . S
H889 C867 0.950 . S
C890 C891 1.349 . S
C890 C892 1.327 . S
C890 H915 0.950 . S
C891 C890 1.349 . S
C891 C907 1.349 . S
C892 C890 1.327 . S
C892 C911 1.429 . S
C892 H916 0.950 . S
C893 C910 1.574 . S
C893 C912 1.368 . S
C893 H917 0.949 . S
H894 C898 0.949 . S
C895 C896 1.349 . S
C895 C897 1.327 . S
C895 H918 0.950 . S
C896 C895 1.349 . S
C896 C908 1.349 . S
C897 C895 1.327 . S
C897 C913 1.429 . S
C897 H919 0.950 . S
C898 H894 0.949 . S
C898 C906 1.574 . S
C898 C914 1.368 . S
H899 C907 0.950 . S
H900 C905 0.950 . S
H901 C906 0.949 . S
H902 C908 0.950 . S
H903 C909 0.950 . S
H904 C910 0.949 . S
C905 H900 0.950 . S
C905 C907 1.327 . S
C905 C911 1.429 . S
C906 C898 1.574 . S
C906 H901 0.949 . S
C906 C912 1.368 . S
C907 C891 1.349 . S
C907 H899 0.950 . S
C907 C905 1.327 . S
C908 C896 1.349 . S
C908 H902 0.950 . S
C908 C909 1.327 . S
C909 H903 0.950 . S
C909 C908 1.327 . S
C909 C913 1.429 . S
C910 C893 1.574 . S
C910 H904 0.949 . S
C910 C914 1.368 . S
C911 C892 1.429 . S
C911 C905 1.429 . S
C911 C912 1.523 . S
C912 C893 1.368 . S
C912 C906 1.368 . S
C912 C911 1.523 . S
C913 C897 1.429 . S
C913 C909 1.429 . S
C913 C914 1.523 . S
C914 C898 1.368 . S
C914 C910 1.368 . S
C914 C913 1.523 . S
H915 C890 0.950 . S
H916 C892 0.950 . S
H917 C893 0.949 . S
H918 C895 0.950 . S
H919 C897 0.950 . S
C920 C921 1.349 . S
C920 C922 1.327 . S
C920 H945 0.950 . S
C921 C920 1.349 . S
C921 C937 1.349 . S
C922 C920 1.327 . S
C922 C941 1.429 . S
C922 H946 0.950 . S
C923 C940 1.574 1_455 S
C923 C942 1.368 . S
C923 H947 0.949 . S
H924 C928 0.949 . S
C925 C926 1.349 . S
C925 C927 1.327 . S
C925 H948 0.950 . S
C926 C925 1.349 . S
C926 C938 1.349 . S
C927 C925 1.327 . S
C927 C943 1.429 . S
C927 H949 0.950 . S
C928 H924 0.949 . S
C928 C936 1.574 1_655 S
C928 C944 1.368 . S
H929 C937 0.950 . S
H930 C935 0.950 . S
H931 C936 0.949 . S
H932 C938 0.950 . S
H933 C939 0.950 . S
H934 C940 0.949 . S
C935 H930 0.950 . S
C935 C937 1.327 . S
C935 C941 1.429 . S
C936 C928 1.574 1_455 S
C936 H931 0.949 . S
C936 C942 1.368 . S
C937 C921 1.349 . S
C937 H929 0.950 . S
C937 C935 1.327 . S
C938 C926 1.349 . S
C938 H932 0.950 . S
C938 C939 1.327 . S
C939 H933 0.950 . S
C939 C938 1.327 . S
C939 C943 1.429 . S
C940 C923 1.574 1_655 S
C940 H934 0.949 . S
C940 C944 1.368 . S
C941 C922 1.429 . S
C941 C935 1.429 . S
C941 C942 1.523 . S
C942 C923 1.368 . S
C942 C936 1.368 . S
C942 C941 1.523 . S
C943 C927 1.429 . S
C943 C939 1.429 . S
C943 C944 1.523 . S
C944 C928 1.368 . S
C944 C940 1.368 . S
C944 C943 1.523 . S
H945 C920 0.950 . S
H946 C922 0.950 . S
H947 C923 0.949 . S
H948 C925 0.950 . S
H949 C927 0.950 . S
C950 C951 1.349 . S
C950 C952 1.327 . S
C950 H975 0.950 . S
C951 C950 1.349 . S
C951 C967 1.349 . S
C952 C950 1.327 . S
C952 C971 1.429 . S
C952 H976 0.950 . S
C953 C970 1.574 1_655 S
C953 C972 1.368 . S
C953 H977 0.949 . S
H954 C958 0.949 . S
C955 C956 1.349 . S
C955 C957 1.327 . S
C955 H978 0.950 . S
C956 C955 1.349 . S
C956 C968 1.349 . S
C957 C955 1.327 . S
C957 C973 1.429 . S
C957 H979 0.950 . S
C958 H954 0.949 . S
C958 C966 1.574 1_455 S
C958 C974 1.368 . S
H959 C967 0.950 . S
H960 C965 0.950 . S
H961 C966 0.949 . S
H962 C968 0.950 . S
H963 C969 0.950 . S
H964 C970 0.949 . S
C965 H960 0.950 . S
C965 C967 1.327 . S
C965 C971 1.429 . S
C966 C958 1.574 1_655 S
C966 H961 0.949 . S
C966 C972 1.368 . S
C967 C951 1.349 . S
C967 H959 0.950 . S
C967 C965 1.327 . S
C968 C956 1.349 . S
C968 H962 0.950 . S
C968 C969 1.327 . S
C969 H963 0.950 . S
C969 C968 1.327 . S
C969 C973 1.429 . S
C970 C953 1.574 1_455 S
C970 H964 0.949 . S
C970 C974 1.368 . S
C971 C952 1.429 . S
C971 C965 1.429 . S
C971 C972 1.523 . S
C972 C953 1.368 . S
C972 C966 1.368 . S
C972 C971 1.523 . S
C973 C957 1.429 . S
C973 C969 1.429 . S
C973 C974 1.523 . S
C974 C958 1.368 . S
C974 C970 1.368 . S
C974 C973 1.523 . S
H975 C950 0.950 . S
H976 C952 0.950 . S
H977 C953 0.949 . S
H978 C955 0.950 . S
H979 C957 0.950 . S
C980 C981 1.349 . S
C980 C982 1.327 . S
C980 H1005 0.950 . S
C981 C980 1.349 . S
C981 C997 1.349 . S
C982 C980 1.327 . S
C982 C1001 1.429 . S
C982 H1006 0.950 . S
C983 C1000 1.574 . S
C983 C1002 1.368 . S
C983 H1007 0.949 . S
H984 C988 0.949 . S
C985 C986 1.349 . S
C985 C987 1.327 . S
C985 H1008 0.950 . S
C986 C985 1.349 . S
C986 C998 1.349 . S
C987 C985 1.327 . S
C987 C1003 1.429 . S
C987 H1009 0.950 . S
C988 H984 0.949 . S
C988 C996 1.574 . S
C988 C1004 1.368 . S
H989 C997 0.950 . S
H990 C995 0.950 . S
H991 C996 0.949 . S
H992 C998 0.950 . S
H993 C999 0.950 . S
H994 C1000 0.949 . S
C995 H990 0.950 . S
C995 C997 1.327 . S
C995 C1001 1.429 . S
C996 C988 1.574 . S
C996 H991 0.949 . S
C996 C1002 1.368 . S
C997 C981 1.349 . S
C997 H989 0.950 . S
C997 C995 1.327 . S
C998 C986 1.349 . S
C998 H992 0.950 . S
C998 C999 1.327 . S
C999 H993 0.950 . S
C999 C998 1.327 . S
C999 C1003 1.429 . S
C1000 C983 1.574 . S
C1000 H994 0.949 . S
C1000 C1004 1.368 . S
C1001 C982 1.429 . S
C1001 C995 1.429 . S
C1001 C1002 1.523 . S
C1002 C983 1.368 . S
C1002 C996 1.368 . S
C1002 C1001 1.523 . S
C1003 C987 1.429 . S
C1003 C999 1.429 . S
C1003 C1004 1.523 . S
C1004 C988 1.368 . S
C1004 C1000 1.368 . S
C1004 C1003 1.523 . S
H1005 C980 0.950 . S
H1006 C982 0.950 . S
H1007 C983 0.949 . S
H1008 C985 0.950 . S
H1009 C987 0.950 . S
C1010 C1011 1.349 . S
C1010 C1012 1.327 . S
C1010 H1035 0.950 . S
C1011 C1010 1.349 . S
C1011 C1027 1.349 . S
C1012 C1010 1.327 . S
C1012 C1031 1.429 . S
C1012 H1036 0.950 . S
C1013 C1030 1.574 . S
C1013 C1032 1.368 . S
C1013 H1037 0.949 . S
H1014 C1018 0.949 . S
C1015 C1016 1.349 . S
C1015 C1017 1.327 . S
C1015 H1038 0.950 . S
C1016 C1015 1.349 . S
C1016 C1028 1.349 . S
C1017 C1015 1.327 . S
C1017 C1033 1.429 . S
C1017 H1039 0.950 . S
C1018 H1014 0.949 . S
C1018 C1026 1.574 . S
C1018 C1034 1.368 . S
H1019 C1027 0.950 . S
H1020 C1025 0.950 . S
H1021 C1026 0.949 . S
H1022 C1028 0.950 . S
H1023 C1029 0.950 . S
H1024 C1030 0.949 . S
C1025 H1020 0.950 . S
C1025 C1027 1.327 . S
C1025 C1031 1.429 . S
C1026 C1018 1.574 . S
C1026 H1021 0.949 . S
C1026 C1032 1.368 . S
C1027 C1011 1.349 . S
C1027 H1019 0.950 . S
C1027 C1025 1.327 . S
C1028 C1016 1.349 . S
C1028 H1022 0.950 . S
C1028 C1029 1.327 . S
C1029 H1023 0.950 . S
C1029 C1028 1.327 . S
C1029 C1033 1.429 . S
C1030 C1013 1.574 . S
C1030 H1024 0.949 . S
C1030 C1034 1.368 . S
C1031 C1012 1.429 . S
C1031 C1025 1.429 . S
C1031 C1032 1.523 . S
C1032 C1013 1.368 . S
C1032 C1026 1.368 . S
C1032 C1031 1.523 . S
C1033 C1017 1.429 . S
C1033 C1029 1.429 . S
C1033 C1034 1.523 . S
C1034 C1018 1.368 . S
C1034 C1030 1.368 . S
C1034 C1033 1.523 . S
H1035 C1010 0.950 . S
H1036 C1012 0.950 . S
H1037 C1013 0.949 . S
H1038 C1015 0.950 . S
H1039 C1017 0.950 . S
C321 C29 1.686 . S
C326 C288 1.686 . S
C351 C248 1.686 . S
C356 C69 1.686 . S
C381 C229 1.686 . S
C386 C88 1.686 . S
C411 C189 1.686 . S
C416 C128 1.686 . S
C441 C97 1.544 . S
C446 C17 1.533 . S
C471 C57 1.533 . S
C476 C137 1.544 . S
C501 C122 1.533 . S
C506 C42 1.544 . S
C531 C82 1.533 . S
C536 C2 1.544 . S
C561 C177 1.454 . S
C566 C257 1.454 . S
C591 C217 1.454 . S
C596 C297 1.454 . S
C621 C282 1.454 . S
C626 C202 1.454 . S
C651 C242 1.454 . S
C656 C162 1.454 . S
C681 C31 2.057 . S
C686 C12 2.057 . S
C711 C71 2.057 . S
C716 C52 2.057 . S
C741 C111 2.057 . S
C746 C92 2.057 . S
C771 C132 2.057 . S
C776 C151 2.057 . S
C801 C172 2.057 . S
C806 C191 2.057 . S
C831 C231 2.057 . S
C836 C212 2.057 . S
C861 C252 2.057 . S
C866 C271 2.057 . S
C891 C292 2.057 . S
C896 C311 2.057 . S
C921 C8 2.313 . S
C926 C48 2.313 . S
C951 C149 2.313 . S
C956 C109 2.313 . S
C981 C168 2.314 . S
C986 C208 2.314 . S
C1011 C309 2.314 . S
C1016 C269 2.314 . S
