# Generated by pormake.
# Topology cha, (4)-cn, num edge types: 1
# Building blocks:
#     Node 0, Type 0, BuildingBlock: CEKHIL_clean_sbu_0, # of connection points: 4
#     Node 1, Type 0, BuildingBlock: CEKHIL_clean_sbu_0, # of connection points: 4
#     Node 2, Type 0, BuildingBlock: CEKHIL_clean_sbu_0, # of connection points: 4
#     Node 3, Type 0, BuildingBlock: CEKHIL_clean_sbu_0, # of connection points: 4
#     Node 4, Type 0, BuildingBlock: CEKHIL_clean_sbu_0, # of connection points: 4
#     Node 5, Type 0, BuildingBlock: CEKHIL_clean_sbu_0, # of connection points: 4
#     Node 6, Type 0, BuildingBlock: CEKHIL_clean_sbu_0, # of connection points: 4
#     Node 7, Type 0, BuildingBlock: CEKHIL_clean_sbu_0, # of connection points: 4
#     Node 8, Type 0, BuildingBlock: CEKHIL_clean_sbu_0, # of connection points: 4
#     Node 9, Type 0, BuildingBlock: CEKHIL_clean_sbu_0, # of connection points: 4
#     Node 10, Type 0, BuildingBlock: CEKHIL_clean_sbu_0, # of connection points: 4
#     Node 11, Type 0, BuildingBlock: CEKHIL_clean_sbu_0, # of connection points: 4
#     Node 12, Type 0, BuildingBlock: CEKHIL_clean_sbu_0, # of connection points: 4
#     Node 13, Type 0, BuildingBlock: CEKHIL_clean_sbu_0, # of connection points: 4
#     Node 14, Type 0, BuildingBlock: CEKHIL_clean_sbu_0, # of connection points: 4
#     Node 15, Type 0, BuildingBlock: CEKHIL_clean_sbu_0, # of connection points: 4
#     Node 16, Type 0, BuildingBlock: CEKHIL_clean_sbu_0, # of connection points: 4
#     Node 17, Type 0, BuildingBlock: CEKHIL_clean_sbu_0, # of connection points: 4
#     Node 18, Type 0, BuildingBlock: CEKHIL_clean_sbu_0, # of connection points: 4
#     Node 19, Type 0, BuildingBlock: CEKHIL_clean_sbu_0, # of connection points: 4
#     Node 20, Type 0, BuildingBlock: CEKHIL_clean_sbu_0, # of connection points: 4
#     Node 21, Type 0, BuildingBlock: CEKHIL_clean_sbu_0, # of connection points: 4
#     Node 22, Type 0, BuildingBlock: CEKHIL_clean_sbu_0, # of connection points: 4
#     Node 23, Type 0, BuildingBlock: CEKHIL_clean_sbu_0, # of connection points: 4
#     Node 24, Type 0, BuildingBlock: CEKHIL_clean_sbu_0, # of connection points: 4
#     Node 25, Type 0, BuildingBlock: CEKHIL_clean_sbu_0, # of connection points: 4
#     Node 26, Type 0, BuildingBlock: CEKHIL_clean_sbu_0, # of connection points: 4
#     Node 27, Type 0, BuildingBlock: CEKHIL_clean_sbu_0, # of connection points: 4
#     Node 28, Type 0, BuildingBlock: CEKHIL_clean_sbu_0, # of connection points: 4
#     Node 29, Type 0, BuildingBlock: CEKHIL_clean_sbu_0, # of connection points: 4
#     Node 30, Type 0, BuildingBlock: CEKHIL_clean_sbu_0, # of connection points: 4
#     Node 31, Type 0, BuildingBlock: CEKHIL_clean_sbu_0, # of connection points: 4
#     Node 32, Type 0, BuildingBlock: CEKHIL_clean_sbu_0, # of connection points: 4
#     Node 33, Type 0, BuildingBlock: CEKHIL_clean_sbu_0, # of connection points: 4
#     Node 34, Type 0, BuildingBlock: CEKHIL_clean_sbu_0, # of connection points: 4
#     Node 35, Type 0, BuildingBlock: CEKHIL_clean_sbu_0, # of connection points: 4
#     Edge 36, Type (0, 0), BuildingBlock: XIVTED_clean_linker_0, # of connection points: 2
#     Edge 37, Type (0, 0), BuildingBlock: XIVTED_clean_linker_0, # of connection points: 2
#     Edge 38, Type (0, 0), BuildingBlock: XIVTED_clean_linker_0, # of connection points: 2
#     Edge 39, Type (0, 0), BuildingBlock: XIVTED_clean_linker_0, # of connection points: 2
#     Edge 40, Type (0, 0), BuildingBlock: XIVTED_clean_linker_0, # of connection points: 2
#     Edge 41, Type (0, 0), BuildingBlock: XIVTED_clean_linker_0, # of connection points: 2
#     Edge 42, Type (0, 0), BuildingBlock: XIVTED_clean_linker_0, # of connection points: 2
#     Edge 43, Type (0, 0), BuildingBlock: XIVTED_clean_linker_0, # of connection points: 2
#     Edge 44, Type (0, 0), BuildingBlock: XIVTED_clean_linker_0, # of connection points: 2
#     Edge 45, Type (0, 0), BuildingBlock: XIVTED_clean_linker_0, # of connection points: 2
#     Edge 46, Type (0, 0), BuildingBlock: XIVTED_clean_linker_0, # of connection points: 2
#     Edge 47, Type (0, 0), BuildingBlock: XIVTED_clean_linker_0, # of connection points: 2
#     Edge 48, Type (0, 0), BuildingBlock: XIVTED_clean_linker_0, # of connection points: 2
#     Edge 49, Type (0, 0), BuildingBlock: XIVTED_clean_linker_0, # of connection points: 2
#     Edge 50, Type (0, 0), BuildingBlock: XIVTED_clean_linker_0, # of connection points: 2
#     Edge 51, Type (0, 0), BuildingBlock: XIVTED_clean_linker_0, # of connection points: 2
#     Edge 52, Type (0, 0), BuildingBlock: XIVTED_clean_linker_0, # of connection points: 2
#     Edge 53, Type (0, 0), BuildingBlock: XIVTED_clean_linker_0, # of connection points: 2
#     Edge 54, Type (0, 0), BuildingBlock: XIVTED_clean_linker_0, # of connection points: 2
#     Edge 55, Type (0, 0), BuildingBlock: XIVTED_clean_linker_0, # of connection points: 2
#     Edge 56, Type (0, 0), BuildingBlock: XIVTED_clean_linker_0, # of connection points: 2
#     Edge 57, Type (0, 0), BuildingBlock: XIVTED_clean_linker_0, # of connection points: 2
#     Edge 58, Type (0, 0), BuildingBlock: XIVTED_clean_linker_0, # of connection points: 2
#     Edge 59, Type (0, 0), BuildingBlock: XIVTED_clean_linker_0, # of connection points: 2
#     Edge 60, Type (0, 0), BuildingBlock: XIVTED_clean_linker_0, # of connection points: 2
#     Edge 61, Type (0, 0), BuildingBlock: XIVTED_clean_linker_0, # of connection points: 2
#     Edge 62, Type (0, 0), BuildingBlock: XIVTED_clean_linker_0, # of connection points: 2
#     Edge 63, Type (0, 0), BuildingBlock: XIVTED_clean_linker_0, # of connection points: 2
#     Edge 64, Type (0, 0), BuildingBlock: XIVTED_clean_linker_0, # of connection points: 2
#     Edge 65, Type (0, 0), BuildingBlock: XIVTED_clean_linker_0, # of connection points: 2
#     Edge 66, Type (0, 0), BuildingBlock: XIVTED_clean_linker_0, # of connection points: 2
#     Edge 67, Type (0, 0), BuildingBlock: XIVTED_clean_linker_0, # of connection points: 2
#     Edge 68, Type (0, 0), BuildingBlock: XIVTED_clean_linker_0, # of connection points: 2
#     Edge 69, Type (0, 0), BuildingBlock: XIVTED_clean_linker_0, # of connection points: 2
#     Edge 70, Type (0, 0), BuildingBlock: XIVTED_clean_linker_0, # of connection points: 2
#     Edge 71, Type (0, 0), BuildingBlock: XIVTED_clean_linker_0, # of connection points: 2
#     Edge 72, Type (0, 0), BuildingBlock: XIVTED_clean_linker_0, # of connection points: 2
#     Edge 73, Type (0, 0), BuildingBlock: XIVTED_clean_linker_0, # of connection points: 2
#     Edge 74, Type (0, 0), BuildingBlock: XIVTED_clean_linker_0, # of connection points: 2
#     Edge 75, Type (0, 0), BuildingBlock: XIVTED_clean_linker_0, # of connection points: 2
#     Edge 76, Type (0, 0), BuildingBlock: XIVTED_clean_linker_0, # of connection points: 2
#     Edge 77, Type (0, 0), BuildingBlock: XIVTED_clean_linker_0, # of connection points: 2
#     Edge 78, Type (0, 0), BuildingBlock: XIVTED_clean_linker_0, # of connection points: 2
#     Edge 79, Type (0, 0), BuildingBlock: XIVTED_clean_linker_0, # of connection points: 2
#     Edge 80, Type (0, 0), BuildingBlock: XIVTED_clean_linker_0, # of connection points: 2
#     Edge 81, Type (0, 0), BuildingBlock: XIVTED_clean_linker_0, # of connection points: 2
#     Edge 82, Type (0, 0), BuildingBlock: XIVTED_clean_linker_0, # of connection points: 2
#     Edge 83, Type (0, 0), BuildingBlock: XIVTED_clean_linker_0, # of connection points: 2
#     Edge 84, Type (0, 0), BuildingBlock: XIVTED_clean_linker_0, # of connection points: 2
#     Edge 85, Type (0, 0), BuildingBlock: XIVTED_clean_linker_0, # of connection points: 2
#     Edge 86, Type (0, 0), BuildingBlock: XIVTED_clean_linker_0, # of connection points: 2
#     Edge 87, Type (0, 0), BuildingBlock: XIVTED_clean_linker_0, # of connection points: 2
#     Edge 88, Type (0, 0), BuildingBlock: XIVTED_clean_linker_0, # of connection points: 2
#     Edge 89, Type (0, 0), BuildingBlock: XIVTED_clean_linker_0, # of connection points: 2
#     Edge 90, Type (0, 0), BuildingBlock: XIVTED_clean_linker_0, # of connection points: 2
#     Edge 91, Type (0, 0), BuildingBlock: XIVTED_clean_linker_0, # of connection points: 2
#     Edge 92, Type (0, 0), BuildingBlock: XIVTED_clean_linker_0, # of connection points: 2
#     Edge 93, Type (0, 0), BuildingBlock: XIVTED_clean_linker_0, # of connection points: 2
#     Edge 94, Type (0, 0), BuildingBlock: XIVTED_clean_linker_0, # of connection points: 2
#     Edge 95, Type (0, 0), BuildingBlock: XIVTED_clean_linker_0, # of connection points: 2
#     Edge 96, Type (0, 0), BuildingBlock: XIVTED_clean_linker_0, # of connection points: 2
#     Edge 97, Type (0, 0), BuildingBlock: XIVTED_clean_linker_0, # of connection points: 2
#     Edge 98, Type (0, 0), BuildingBlock: XIVTED_clean_linker_0, # of connection points: 2
#     Edge 99, Type (0, 0), BuildingBlock: XIVTED_clean_linker_0, # of connection points: 2
#     Edge 100, Type (0, 0), BuildingBlock: XIVTED_clean_linker_0, # of connection points: 2
#     Edge 101, Type (0, 0), BuildingBlock: XIVTED_clean_linker_0, # of connection points: 2
#     Edge 102, Type (0, 0), BuildingBlock: XIVTED_clean_linker_0, # of connection points: 2
#     Edge 103, Type (0, 0), BuildingBlock: XIVTED_clean_linker_0, # of connection points: 2
#     Edge 104, Type (0, 0), BuildingBlock: XIVTED_clean_linker_0, # of connection points: 2
#     Edge 105, Type (0, 0), BuildingBlock: XIVTED_clean_linker_0, # of connection points: 2
#     Edge 106, Type (0, 0), BuildingBlock: XIVTED_clean_linker_0, # of connection points: 2
#     Edge 107, Type (0, 0), BuildingBlock: XIVTED_clean_linker_0, # of connection points: 2
# Relax obj value: 0.071
# Max RMSD: 0.095
# Mean RMSD: 0.095
data_MOF--net-cha--node1-CEKHIL_clean_sbu_0--edge1-XIVTED_clean_linker_0
_symmetry_space_group_name_H-M    P1
_symmetry_Int_Tables_number       1
_symmetry_cell_setting            triclinic
loop_
_symmetry_equiv_pos_as_xyz
'x, y, z'
_cell_length_a     53.910487
_cell_length_b     53.89887
_cell_length_c     85.201753
_cell_angle_alpha  89.998127
_cell_angle_beta   90.001425
_cell_angle_gamma 119.96157
loop_
_atom_site_label
_atom_site_type_symbol
_atom_site_fract_x
_atom_site_fract_y
_atom_site_fract_z
_atom_type_partial_charge
Co0 Co 0.03629 0.30777 0.09188 0.0
O1 O 0.03411 0.29838 0.11378 0.0
O2 O 0.01576 0.32318 0.10324 0.0
C3 C 0.08324 0.32204 0.08938 0.0
O4 O 0.03532 0.32212 0.06967 0.0
Co5 Co 0.05313 0.27619 0.06712 0.0
O6 O 0.06108 0.30977 0.05408 0.0
C7 C 0.99399 0.24806 0.07987 0.0
C8 C 0.02048 0.31227 0.11576 0.0
C9 C 0.0482 0.32378 0.0566 0.0
O10 O -0.00057 0.27067 0.08771 0.0
O11 O 0.01286 0.24579 0.07184 0.0
O12 O 0.07558 0.3397 0.09488 0.0
O13 O 0.06272 0.29636 0.0868 0.0
Co14 Co 0.7527 0.76044 0.09212 0.0
O15 O 0.76148 0.76669 0.11414 0.0
O16 O 0.73745 0.72404 0.10298 0.0
C17 C 0.73785 0.79279 0.09009 0.0
O18 O 0.73894 0.74596 0.06972 0.0
Co19 Co 0.78402 0.80995 0.06795 0.0
O20 O 0.75109 0.78445 0.05449 0.0
C21 C 0.81305 0.77965 0.08056 0.0
C22 C 0.74779 0.73908 0.11573 0.0
C23 C 0.73735 0.75749 0.05675 0.0
O24 O 0.79027 0.76155 0.08799 0.0
O25 O 0.815 0.80101 0.0729 0.0
O26 O 0.72033 0.76717 0.09522 0.0
O27 O 0.76368 0.79837 0.08755 0.0
Co28 Co 0.29818 0.01902 0.09204 0.0
O29 O 0.29179 0.01898 0.11423 0.0
O30 O 0.33443 0.04074 0.10291 0.0
C31 C 0.26788 0.97173 0.08862 0.0
O32 O 0.31277 0.02261 0.06943 0.0
Co33 Co 0.24761 0.0014 0.0686 0.0
O34 O 0.27426 0.99809 0.05387 0.0
C35 C 0.27359 0.0575 0.08471 0.0
C36 C 0.31935 0.0342 0.11576 0.0
C37 C 0.3012 0.01105 0.05617 0.0
O38 O 0.29457 0.05448 0.08957 0.0
O39 O 0.25187 0.03779 0.07743 0.0
O40 O 0.29371 0.98052 0.09365 0.0
O41 O 0.26085 0.99119 0.08715 0.0
Co42 Co 0.30817 0.03842 0.9144 0.0
O43 O 0.29891 0.03542 0.89246 0.0
O44 O 0.32353 0.01735 0.90356 0.0
C45 C 0.32266 0.0855 0.91623 0.0
O46 O 0.32239 0.03833 0.93675 0.0
Co47 Co 0.27662 0.05646 0.93851 0.0
O48 O 0.31019 0.06496 0.95171 0.0
C49 C 0.24822 0.99689 0.92639 0.0
C50 C 0.31279 0.02169 0.89085 0.0
C51 C 0.32416 0.05193 0.94956 0.0
O52 O 0.27093 0.00183 0.9188 0.0
O53 O 0.24602 0.01618 0.93401 0.0
O54 O 0.34025 0.07752 0.91104 0.0
O55 O 0.29692 0.06518 0.91889 0.0
Co56 Co 0.01854 0.29749 0.91518 0.0
O57 O 0.02077 0.29052 0.89323 0.0
O58 O 0.0398 0.33352 0.90403 0.0
C59 C 0.97134 0.26553 0.91746 0.0
O60 O 0.01963 0.31268 0.93743 0.0
Co61 Co 0.00046 0.24861 0.93975 0.0
O62 O 0.99346 0.27468 0.95301 0.0
C63 C 0.05952 0.27813 0.92686 0.0
C64 C 0.03491 0.31808 0.89142 0.0
C65 C 0.00671 0.30157 0.9505 0.0
O66 O 0.05486 0.29617 0.91936 0.0
O67 O 0.04016 0.257 0.93467 0.0
O68 O 0.97956 0.29104 0.91209 0.0
O69 O 0.99147 0.25978 0.92007 0.0
Co70 Co 0.7599 0.75138 0.91469 0.0
O71 O 0.76669 0.76021 0.89272 0.0
O72 O 0.72376 0.73596 0.90354 0.0
C73 C 0.79235 0.73679 0.91714 0.0
O74 O 0.74505 0.73769 0.93704 0.0
Co75 Co 0.809 0.78346 0.939 0.0
O76 O 0.78346 0.75055 0.95248 0.0
C77 C 0.7784 0.8118 0.92593 0.0
C78 C 0.73915 0.74646 0.89091 0.0
C79 C 0.75654 0.73649 0.95011 0.0
O80 O 0.76056 0.78877 0.91861 0.0
O81 O 0.79984 0.81419 0.9337 0.0
O82 O 0.76689 0.71915 0.91185 0.0
O83 O 0.79776 0.76261 0.91954 0.0
Co84 Co 0.02069 0.75099 0.91504 0.0
O85 O 0.02267 0.7598 0.89304 0.0
O86 O 0.04135 0.73553 0.90387 0.0
C87 C 0.97369 0.73648 0.9176 0.0
O88 O 0.02191 0.73719 0.93736 0.0
Co89 Co 0.0038 0.78305 0.93948 0.0
O90 O 0.99669 0.75022 0.95296 0.0
C91 C 0.0626 0.81138 0.92629 0.0
C92 C 0.03646 0.74602 0.89124 0.0
C93 C 0.00939 0.73602 0.95048 0.0
O94 O 0.05742 0.78836 0.91895 0.0
O95 O 0.04358 0.81376 0.9341 0.0
O96 O 0.98143 0.71882 0.91222 0.0
O97 O 0.99412 0.76228 0.92 0.0
Co98 Co 0.30623 0.29801 0.91423 0.0
O99 O 0.29742 0.2913 0.89225 0.0
O100 O 0.32107 0.33419 0.90318 0.0
C101 C 0.32169 0.26622 0.91656 0.0
O102 O 0.31986 0.31279 0.93659 0.0
Co103 Co 0.27477 0.24839 0.93838 0.0
O104 O 0.30735 0.27432 0.95194 0.0
C105 C 0.24545 0.27805 0.92538 0.0
C106 C 0.31078 0.31887 0.89051 0.0
C107 C 0.32122 0.30125 0.94961 0.0
O108 O 0.26844 0.29649 0.91825 0.0
O109 O 0.24347 0.25661 0.93296 0.0
O110 O 0.33895 0.29177 0.91126 0.0
O111 O 0.29572 0.26029 0.91898 0.0
Co112 Co 0.75713 0.0377 0.91534 0.0
O113 O 0.76448 0.03562 0.89343 0.0
O114 O 0.72129 0.01694 0.90391 0.0
C115 C 0.78947 0.08477 0.91786 0.0
O116 O 0.74161 0.03658 0.93754 0.0
Co117 Co 0.80553 0.05501 0.94019 0.0
O118 O 0.77952 0.06237 0.95325 0.0
C119 C 0.77536 0.99595 0.92728 0.0
C120 C 0.73698 0.02182 0.8914 0.0
C121 C 0.75268 0.04942 0.95064 0.0
O122 O 0.75783 0.00104 0.91953 0.0
O123 O 0.7964 0.01504 0.93525 0.0
O124 O 0.76417 0.07693 0.9123 0.0
O125 O 0.79484 0.0644 0.92048 0.0
Co126 Co 0.74876 0.0201 0.09218 0.0
O127 O 0.75814 0.02238 0.11411 0.0
O128 O 0.73287 0.04019 0.10357 0.0
C129 C 0.73515 0.97328 0.08967 0.0
O130 O 0.73428 0.02085 0.06996 0.0
Co131 Co 0.78095 0.00394 0.06745 0.0
O132 O 0.74743 0.99578 0.0543 0.0
C133 C 0.8085 0.06289 0.08045 0.0
C134 C 0.74389 0.03565 0.11609 0.0
C135 C 0.73295 0.00815 0.05687 0.0
O136 O 0.78561 0.05726 0.08807 0.0
O137 O 0.81112 0.04413 0.07251 0.0
O138 O 0.71723 0.98057 0.09518 0.0
O139 O 0.76069 0.99406 0.08709 0.0
Co140 Co 0.04014 0.76016 0.09224 0.0
O141 O 0.03853 0.76718 0.11423 0.0
O142 O 0.01876 0.72415 0.10341 0.0
C143 C 0.08738 0.79163 0.0896 0.0
O144 O 0.03838 0.74503 0.0699 0.0
Co145 Co 0.058 0.80942 0.06792 0.0
O146 O 0.06422 0.78318 0.05434 0.0
C147 C -0.00064 0.78035 0.0813 0.0
C148 C 0.0241 0.73964 0.11604 0.0
C149 C 0.05099 0.75627 0.05677 0.0
O150 O 0.00396 0.76194 0.08843 0.0
O151 O 0.01869 0.80161 0.07356 0.0
O152 O 0.07899 0.76608 0.09496 0.0
O153 O 0.06742 0.79775 0.0873 0.0
Co154 Co 0.29506 0.30519 0.09208 0.0
O155 O 0.28849 0.2985 0.11424 0.0
O156 O 0.33127 0.3205 0.10309 0.0
C157 C 0.26379 0.321 0.08862 0.0
O158 O 0.30975 0.31668 0.06952 0.0
Co159 Co 0.24506 0.27144 0.06846 0.0
O160 O 0.27119 0.30214 0.05393 0.0
C161 C 0.27245 0.24251 0.08442 0.0
C162 C 0.31607 0.3115 0.11588 0.0
C163 C 0.2981 0.31659 0.05626 0.0
O164 O 0.29273 0.26671 0.08953 0.0
O165 O 0.25059 0.23991 0.07701 0.0
O166 O 0.28944 0.33849 0.09373 0.0
O167 O 0.25749 0.29472 0.0871 0.0
Co168 Co 0.70488 0.64311 0.42599 0.0
O169 O 0.70557 0.63702 0.44814 0.0
O170 O 0.68481 0.65924 0.43719 0.0
C171 C 0.75163 0.65796 0.422 0.0
O172 O 0.70102 0.65392 0.40337 0.0
Co173 Co 0.71929 0.60759 0.40257 0.0
O174 O 0.72387 0.63798 0.38777 0.0
C175 C 0.66399 0.58028 0.41947 0.0
C176 C 0.69124 0.65026 0.44992 0.0
C177 C 0.71193 0.65297 0.39004 0.0
O178 O 0.66831 0.60492 0.42403 0.0
O179 O 0.68275 0.57687 0.41206 0.0
O180 O 0.74413 0.67601 0.42706 0.0
O181 O 0.73126 0.63181 0.42084 0.0
Co182 Co 0.41971 0.0944 0.42582 0.0
O183 O 0.42853 0.10032 0.44783 0.0
O184 O 0.40306 0.05785 0.43665 0.0
C185 C 0.40668 0.1281 0.42372 0.0
O186 O 0.40568 0.08043 0.40339 0.0
Co187 Co 0.45296 0.14373 0.40179 0.0
O188 O 0.41926 0.11958 0.38848 0.0
C189 C 0.47925 0.11059 0.41399 0.0
C190 C 0.41386 0.07273 0.44941 0.0
C191 C 0.40454 0.09262 0.39058 0.0
O192 O 0.45636 0.09364 0.42169 0.0
O193 O 0.48232 0.13231 0.40623 0.0
O194 O 0.38843 0.10274 0.42888 0.0
O195 O 0.43222 0.1327 0.42128 0.0
Co196 Co 0.96447 0.35164 0.42611 0.0
O197 O 0.95841 0.35155 0.44834 0.0
O198 O 0.00094 0.37245 0.43692 0.0
C199 C 0.9331 0.30461 0.42258 0.0
O200 O 0.9786 0.35503 0.4034 0.0
Co201 Co 0.91381 0.33572 0.40299 0.0
O202 O 0.93958 0.33135 0.38808 0.0
C203 C 0.94137 0.39158 0.41937 0.0
C204 C 0.98601 0.36618 0.44981 0.0
C205 C 0.96655 0.34364 0.39019 0.0
O206 O 0.96204 0.3878 0.42393 0.0
O207 O 0.91924 0.37235 0.41215 0.0
O208 O 0.95886 0.31267 0.42748 0.0
O209 O 0.9268 0.32463 0.42132 0.0
Co210 Co 0.9719 0.36916 0.24787 0.0
O211 O 0.96276 0.36684 0.22594 0.0
O212 O 0.9875 0.3486 0.23668 0.0
C213 C 0.98615 0.41611 0.25023 0.0
O214 O 0.986 0.36848 0.2702 0.0
Co215 Co 0.93965 0.38605 0.27219 0.0
O216 O 0.973 0.39415 0.28547 0.0
C217 C 0.91174 0.32701 0.25936 0.0
C218 C 0.97673 0.35326 0.22408 0.0
C219 C 0.98735 0.38156 0.28315 0.0
O220 O 0.93474 0.33231 0.25197 0.0
O221 O 0.90919 0.34601 0.26709 0.0
O222 O 0.00386 0.40845 0.24485 0.0
O223 O 0.96042 0.39562 0.25272 0.0
Co224 Co 0.68644 0.6332 0.24772 0.0
O225 O 0.68907 0.62686 0.22572 0.0
O226 O 0.70737 0.66955 0.2368 0.0
C227 C 0.63939 0.60068 0.2499 0.0
O228 O 0.687 0.6477 0.2701 0.0
Co229 Co 0.66895 0.58372 0.27188 0.0
O230 O 0.66123 0.60905 0.28534 0.0
C231 C 0.72826 0.61489 0.25946 0.0
C232 C 0.7029 0.65445 0.22409 0.0
C233 C 0.674 0.63599 0.28307 0.0
O234 O 0.72312 0.63255 0.2519 0.0
O235 O 0.70915 0.59342 0.26717 0.0
O236 O 0.64724 0.62616 0.24462 0.0
O237 O 0.65977 0.59525 0.25239 0.0
Co238 Co 0.42662 0.08438 0.24752 0.0
O239 O 0.43263 0.09026 0.22529 0.0
O240 O 0.39013 0.06888 0.23676 0.0
C241 C 0.4578 0.06847 0.25104 0.0
O242 O 0.41252 0.0738 0.27023 0.0
Co243 Co 0.47738 0.11892 0.2706 0.0
O244 O 0.4515 0.08896 0.28557 0.0
C245 C 0.44989 0.14743 0.25433 0.0
C246 C 0.40503 0.07742 0.22386 0.0
C247 C 0.42453 0.07445 0.28345 0.0
O248 O 0.42924 0.12305 0.24968 0.0
O249 O 0.47197 0.15023 0.26157 0.0
O250 O 0.432 0.05089 0.24617 0.0
O251 O 0.46425 0.09483 0.25229 0.0
Co252 Co 0.68496 0.08103 0.24857 0.0
O253 O 0.68696 0.09035 0.22665 0.0
O254 O 0.70561 0.0658 0.23714 0.0
C255 C 0.63794 0.0665 0.25113 0.0
O256 O 0.68618 0.06678 0.27078 0.0
Co257 Co 0.66787 0.11232 0.27339 0.0
O258 O 0.66046 0.07898 0.2865 0.0
C259 C 0.72691 0.14091 0.26047 0.0
C260 C 0.70073 0.0766 0.22463 0.0
C261 C 0.67347 0.06512 0.28391 0.0
O262 O 0.72169 0.1183 0.25268 0.0
O263 O 0.70793 0.14299 0.26849 0.0
O264 O 0.64571 0.04894 0.24562 0.0
O265 O 0.65837 0.09222 0.2537 0.0
Co266 Co 0.97308 0.63113 0.24736 0.0
O267 O 0.96433 0.62502 0.22538 0.0
O268 O 0.9891 0.66762 0.2365 0.0
C269 C 0.98697 0.59809 0.24945 0.0
O270 O 0.98677 0.64515 0.26983 0.0
Co271 Co 0.94023 0.58138 0.27124 0.0
O272 O 0.97351 0.60601 0.28472 0.0
C273 C 0.91287 0.61327 0.25868 0.0
C274 C 0.97846 0.6526 0.22377 0.0
C275 C 0.98788 0.633 0.28267 0.0
O276 O 0.93599 0.631 0.2514 0.0
O277 O 0.91007 0.59149 0.26626 0.0
O278 O 0.00493 0.6236 0.24434 0.0
O279 O 0.96126 0.59301 0.25186 0.0
Co280 Co 0.42744 0.37265 0.24661 0.0
O281 O 0.43319 0.37228 0.2244 0.0
O282 O 0.39079 0.35126 0.23598 0.0
C283 C 0.45847 0.41985 0.24971 0.0
O284 O 0.41385 0.36974 0.26941 0.0
Co285 Co 0.4789 0.38975 0.26933 0.0
O286 O 0.45333 0.39431 0.28431 0.0
C287 C 0.45139 0.33346 0.25343 0.0
C288 C 0.4056 0.35741 0.22304 0.0
C289 C 0.42628 0.38167 0.28246 0.0
O290 O 0.43039 0.33681 0.249 0.0
O291 O 0.47365 0.35305 0.26038 0.0
O292 O 0.43254 0.41139 0.24498 0.0
O293 O 0.46508 0.40007 0.25106 0.0
Co294 Co 0.41715 0.35454 0.42647 0.0
O295 O 0.42272 0.35447 0.44871 0.0
O296 O 0.40057 0.37474 0.43715 0.0
C297 C 0.40259 0.30773 0.42305 0.0
O298 O 0.40686 0.35763 0.40361 0.0
Co299 Co 0.45346 0.33957 0.40392 0.0
O300 O 0.42339 0.3344 0.38874 0.0
C301 C 0.48016 0.3951 0.42058 0.0
C302 C 0.40925 0.36862 0.4501 0.0
C303 C 0.40818 0.34622 0.39053 0.0
O304 O 0.45537 0.39113 0.42453 0.0
O305 O 0.48378 0.37604 0.41366 0.0
O306 O 0.38432 0.31525 0.42769 0.0
O307 O 0.42871 0.32815 0.42196 0.0
Co308 Co 0.70568 0.09048 0.42541 0.0
O309 O 0.70402 0.09785 0.44734 0.0
O310 O 0.68521 0.05463 0.43688 0.0
C311 C 0.75264 0.12294 0.42264 0.0
O312 O 0.70413 0.07503 0.40316 0.0
Co313 Co 0.72216 0.1389 0.4007 0.0
O314 O 0.72943 0.11304 0.38743 0.0
C315 C 0.66342 0.10843 0.41399 0.0
C316 C 0.69025 0.07036 0.44938 0.0
C317 C 0.71661 0.08618 0.38999 0.0
O318 O 0.66886 0.09098 0.42156 0.0
O319 O 0.68223 0.12959 0.40596 0.0
O320 O 0.74497 0.09763 0.42813 0.0
O321 O 0.73215 0.12823 0.42023 0.0
Co322 Co 0.96182 0.6385 0.42575 0.0
O323 O 0.95543 0.6328 0.44797 0.0
O324 O 0.99813 0.65431 0.43674 0.0
C325 C 0.93051 0.65414 0.42182 0.0
O326 O 0.97624 0.64896 0.40308 0.0
Co327 Co 0.91144 0.6034 0.40254 0.0
O328 O 0.93736 0.63341 0.3876 0.0
C329 C 0.93884 0.5754 0.41938 0.0
C330 C 0.983 0.64583 0.44957 0.0
C331 C 0.96431 0.64815 0.3898 0.0
O332 O 0.95948 0.59992 0.42385 0.0
O333 O 0.91672 0.57234 0.41206 0.0
O334 O 0.95619 0.67186 0.4268 0.0
O335 O 0.92421 0.6278 0.42074 0.0
Co336 Co 0.37141 0.97629 0.75851 0.0
O337 O 0.36903 0.96719 0.78046 0.0
O338 O 0.35107 0.99212 0.76962 0.0
C339 C 0.41826 0.99007 0.75616 0.0
O340 O 0.37064 0.99042 0.73623 0.0
Co341 Co 0.38787 0.94408 0.734 0.0
O342 O 0.39583 0.97734 0.72066 0.0
C343 C 0.32887 0.9164 0.74691 0.0
C344 C 0.35554 0.98127 0.78224 0.0
C345 C 0.38326 0.99166 0.72314 0.0
O346 O 0.33442 0.93933 0.75444 0.0
O347 O 0.34768 0.91378 0.73903 0.0
O348 O 0.41082 0.00799 0.76149 0.0
O349 O 0.39759 0.96444 0.75362 0.0
Co350 Co 0.0849 0.42743 0.76033 0.0
O351 O 0.09389 0.43341 0.7823 0.0
O352 O 0.06882 0.39088 0.77113 0.0
C353 C 0.07128 0.4607 0.75842 0.0
O354 O 0.07095 0.41351 0.73788 0.0
Co355 Co 0.1177 0.47716 0.73644 0.0
O356 O 0.08434 0.45266 0.72298 0.0
C357 C 0.14484 0.44487 0.7487 0.0
C358 C 0.07965 0.40582 0.78387 0.0
C359 C 0.06988 0.42567 0.72503 0.0
O360 O 0.12181 0.42731 0.7561 0.0
O361 O 0.1477 0.4667 0.74115 0.0
O362 O 0.05326 0.4352 0.76352 0.0
O363 O 0.0969 0.46562 0.7559 0.0
Co364 Co 0.63247 0.68729 0.75911 0.0
O365 O 0.62569 0.68949 0.78107 0.0
O366 O 0.66861 0.70777 0.77028 0.0
C367 C 0.5997 0.64036 0.75672 0.0
O368 O 0.64731 0.68823 0.73678 0.0
Co369 Co 0.58355 0.6706 0.73473 0.0
O370 O 0.60891 0.66278 0.72134 0.0
C371 C 0.61466 0.72962 0.74764 0.0
C372 C 0.65323 0.70309 0.78289 0.0
C373 C 0.63582 0.67551 0.72372 0.0
O374 O 0.63219 0.72418 0.75511 0.0
O375 O 0.59324 0.71073 0.7398 0.0
O376 O 0.62511 0.64796 0.76202 0.0
O377 O 0.59454 0.66092 0.75425 0.0
Co378 Co 0.63854 0.70384 0.58192 0.0
O379 O 0.62963 0.70177 0.55995 0.0
O380 O 0.65472 0.68391 0.57068 0.0
C381 C 0.65213 0.75064 0.58442 0.0
O382 O 0.65258 0.70291 0.60421 0.0
Co383 Co 0.60611 0.71995 0.60648 0.0
O384 O 0.63949 0.72812 0.61976 0.0
C385 C 0.57867 0.66101 0.59342 0.0
C386 C 0.64403 0.68863 0.55807 0.0
C387 C 0.65384 0.71559 0.61729 0.0
O388 O 0.60161 0.66667 0.58584 0.0
O389 O 0.57601 0.67974 0.60136 0.0
O390 O 0.67015 0.74333 0.5791 0.0
O391 O 0.62652 0.72987 0.58688 0.0
Co392 Co 0.35268 0.96797 0.58171 0.0
O393 O 0.35495 0.96119 0.55973 0.0
O394 O 0.37301 0.00408 0.57055 0.0
C395 C 0.3058 0.93503 0.58423 0.0
O396 O 0.35362 0.98301 0.60398 0.0
Co397 Co 0.33623 0.91942 0.60633 0.0
O398 O 0.32841 0.94488 0.61962 0.0
C399 C 0.39537 0.95097 0.59363 0.0
C400 C 0.36847 0.98876 0.55793 0.0
C401 C 0.34104 0.97174 0.6171 0.0
O402 O 0.38971 0.96798 0.58577 0.0
O403 O 0.37664 0.92974 0.60164 0.0
O404 O 0.31324 0.96032 0.57879 0.0
O405 O 0.32645 0.93001 0.58671 0.0
Co406 Co 0.09316 0.41854 0.58171 0.0
O407 O 0.09927 0.42398 0.55946 0.0
O408 O 0.05673 0.403 0.57087 0.0
C409 C 0.12413 0.40245 0.58551 0.0
O410 O 0.07897 0.40842 0.60444 0.0
Co411 Co 0.14395 0.45329 0.60476 0.0
O412 O 0.11788 0.42379 0.61987 0.0
C413 C 0.11696 0.48179 0.588 0.0
C414 C 0.07168 0.41119 0.55798 0.0
C415 C 0.0909 0.40932 0.61774 0.0
O416 O 0.09606 0.45738 0.58358 0.0
O417 O 0.13902 0.48456 0.59525 0.0
O418 O 0.09832 0.38488 0.58065 0.0
O419 O 0.13072 0.42887 0.58658 0.0
Co420 Co 0.35147 0.41532 0.58251 0.0
O421 O 0.35361 0.42436 0.56053 0.0
O422 O 0.37179 0.39958 0.57131 0.0
C423 C 0.30457 0.40126 0.58502 0.0
O424 O 0.35247 0.40116 0.60475 0.0
Co425 Co 0.33484 0.4471 0.60722 0.0
O426 O 0.32673 0.41354 0.62033 0.0
C427 C 0.39394 0.47506 0.59439 0.0
C428 C 0.36707 0.41026 0.5587 0.0
C429 C 0.33956 0.39949 0.6178 0.0
O430 O 0.38842 0.45242 0.58655 0.0
O431 O 0.37514 0.47738 0.60245 0.0
O432 O 0.31212 0.38347 0.57961 0.0
O433 O 0.32515 0.42695 0.58752 0.0
Co434 Co 0.64007 0.96683 0.58208 0.0
O435 O 0.6308 0.95962 0.56016 0.0
O436 O 0.65645 0.00272 0.5706 0.0
C437 C 0.6531 0.93323 0.5848 0.0
O438 O 0.65452 0.98213 0.60429 0.0
Co439 Co 0.60735 0.91889 0.60693 0.0
O440 O 0.64111 0.94394 0.61999 0.0
C441 C 0.58051 0.95084 0.59371 0.0
C442 C 0.64538 0.9871 0.5581 0.0
C443 C 0.65579 0.97075 0.61739 0.0
O444 O 0.60346 0.96773 0.58603 0.0
O445 O 0.5776 0.92949 0.60178 0.0
O446 O 0.67129 0.95831 0.57926 0.0
O447 O 0.62765 0.92882 0.58729 0.0
Co448 Co 0.09324 0.70657 0.58068 0.0
O449 O 0.09949 0.7065 0.55849 0.0
O450 O 0.05684 0.68573 0.56978 0.0
C451 C 0.12465 0.75363 0.58406 0.0
O452 O 0.07895 0.70333 0.60334 0.0
Co453 Co 0.14366 0.72271 0.60397 0.0
O454 O 0.11784 0.7274 0.61871 0.0
C455 C 0.1161 0.66657 0.58785 0.0
C456 C 0.07191 0.69193 0.55694 0.0
C457 C 0.09087 0.71491 0.61655 0.0
O458 O 0.0956 0.67041 0.58304 0.0
O459 O 0.13813 0.68582 0.59514 0.0
O460 O 0.0989 0.74553 0.57915 0.0
O461 O 0.13089 0.73359 0.58548 0.0
Co462 Co 0.08376 0.68903 0.75881 0.0
O463 O 0.09299 0.69207 0.78078 0.0
O464 O 0.06765 0.70937 0.76975 0.0
C465 C 0.07032 0.64221 0.75686 0.0
O466 O 0.06945 0.68898 0.73644 0.0
Co467 Co 0.1162 0.67215 0.73462 0.0
O468 O 0.08251 0.6631 0.7214 0.0
C469 C 0.14328 0.73169 0.74673 0.0
C470 C 0.07861 0.70527 0.78244 0.0
C471 C 0.0681 0.67565 0.72358 0.0
O472 O 0.12054 0.72613 0.75448 0.0
O473 O 0.14598 0.71279 0.73899 0.0
O474 O 0.05229 0.64958 0.76209 0.0
O475 O 0.09586 0.66295 0.75423 0.0
Co476 Co 0.37137 0.42538 0.75872 0.0
O477 O 0.36892 0.43254 0.78062 0.0
O478 O 0.35105 0.38946 0.77006 0.0
C479 C 0.41821 0.45839 0.75626 0.0
O480 O 0.37066 0.40999 0.73657 0.0
Co481 Co 0.38788 0.47345 0.73379 0.0
O482 O 0.39616 0.44793 0.72085 0.0
C483 C 0.32876 0.44226 0.74654 0.0
C484 C 0.35547 0.40501 0.78257 0.0
C485 C 0.38352 0.42111 0.72349 0.0
O486 O 0.33435 0.42525 0.75445 0.0
O487 O 0.34753 0.46337 0.73847 0.0
O488 O 0.41081 0.43319 0.76183 0.0
O489 O 0.39752 0.46327 0.75358 0.0
Co490 Co 0.6328 0.97516 0.75889 0.0
O491 O 0.62561 0.96553 0.78078 0.0
O492 O 0.66871 0.99086 0.77031 0.0
C493 C 0.59966 0.98888 0.75644 0.0
O494 O 0.64813 0.98987 0.7367 0.0
Co495 Co 0.58465 0.94348 0.734 0.0
O496 O 0.61002 0.97734 0.72109 0.0
C497 C 0.61612 0.91573 0.74668 0.0
C498 C 0.65311 0.97972 0.78281 0.0
C499 C 0.63686 0.99158 0.72366 0.0
O500 O 0.63309 0.93831 0.75461 0.0
O501 O 0.59495 0.91335 0.73865 0.0
O502 O 0.62484 0.00671 0.762 0.0
O503 O 0.59488 0.96335 0.75377 0.0
H504 H 0.13273 0.36563 0.10236 0.0
H505 H 0.22232 0.29813 0.06655 0.0
H506 H 0.10174 0.29641 0.06892 0.0
H507 H 0.2565 0.36298 0.10254 0.0
H508 H 0.18198 0.30577 0.06345 0.0
H509 H 0.18133 0.37275 0.09922 0.0
C510 C 0.13625 0.35236 0.09415 0.0
C511 C 0.11317 0.33011 0.08606 0.0
C512 C 0.19835 0.31866 0.07194 0.0
C513 C 0.16823 0.33813 0.08237 0.0
C514 C 0.22149 0.31431 0.07368 0.0
C515 C 0.24253 0.32968 0.08496 0.0
C516 C 0.19568 0.33801 0.08185 0.0
C517 C 0.24054 0.35063 0.09376 0.0
C518 C 0.16389 0.35636 0.0924 0.0
C519 C 0.11877 0.31351 0.07558 0.0
N520 N 0.2171 0.35381 0.09226 0.0
N521 N 0.1456 0.31773 0.07414 0.0
H522 H 0.75899 0.95518 0.06786 0.0
H523 H 0.69403 0.798 0.1034 0.0
H524 H 0.69462 0.92376 0.10413 0.0
H525 H 0.76316 0.83748 0.06999 0.0
H526 H 0.68646 0.83931 0.10071 0.0
H527 H 0.75263 0.90769 0.06498 0.0
C528 C 0.74323 0.93813 0.07513 0.0
C529 C 0.72759 0.94348 0.08639 0.0
C530 C 0.70294 0.83858 0.09381 0.0
C531 C 0.72066 0.88878 0.08349 0.0
C532 C 0.70719 0.81503 0.0953 0.0
C533 C 0.72951 0.81457 0.08707 0.0
C534 C 0.721 0.86143 0.0839 0.0
C535 C 0.74599 0.83709 0.07674 0.0
C536 C 0.7396 0.9109 0.0735 0.0
C537 C 0.70718 0.92044 0.09535 0.0
N538 N 0.74152 0.85958 0.07554 0.0
N539 N 0.70466 0.89406 0.09393 0.0
H540 H 0.13627 0.79697 0.10309 0.0
H541 H 0.22793 0.95232 0.0657 0.0
H542 H 0.10684 0.83472 0.06844 0.0
H543 H 0.26025 0.923 0.10336 0.0
H544 H 0.18788 0.90422 0.06259 0.0
H545 H 0.18525 0.83777 0.09987 0.0
C546 C 0.14023 0.81348 0.09459 0.0
C547 C 0.11749 0.81277 0.08619 0.0
C548 C 0.20379 0.90801 0.07145 0.0
C549 C 0.17295 0.85901 0.0824 0.0
C550 C 0.22679 0.93557 0.07318 0.0
C551 C 0.24719 0.94166 0.08492 0.0
C552 C 0.20057 0.88638 0.08185 0.0
C553 C 0.24479 0.91905 0.0942 0.0
C554 C 0.16808 0.83674 0.09279 0.0
C555 C 0.12361 0.8346 0.07534 0.0
N556 N 0.22143 0.89238 0.09271 0.0
N557 N 0.15063 0.85683 0.07386 0.0
H558 H 0.36571 0.13445 0.90249 0.0
H559 H 0.30041 0.22546 0.93908 0.0
H560 H 0.29796 0.10481 0.93678 0.0
H561 H 0.36239 0.25815 0.90159 0.0
H562 H 0.30838 0.18538 0.9421 0.0
H563 H 0.37303 0.18323 0.90525 0.0
C564 C 0.35282 0.13832 0.9108 0.0
C565 C 0.33092 0.11556 0.91926 0.0
C566 C 0.32056 0.20135 0.93328 0.0
C567 C 0.33918 0.17078 0.92253 0.0
C568 C 0.31602 0.22437 0.93158 0.0
C569 C 0.33049 0.24493 0.91993 0.0
C570 C 0.33912 0.19825 0.92295 0.0
C571 C 0.35073 0.24256 0.91067 0.0
C572 C 0.35693 0.16604 0.91234 0.0
C573 C 0.31479 0.12157 0.92985 0.0
N574 N 0.35406 0.21919 0.91214 0.0
N575 N 0.31913 0.14846 0.9311 0.0
H576 H 0.92259 0.25988 0.90358 0.0
H577 H 0.83049 0.10375 0.94023 0.0
H578 H 0.95169 0.22184 0.93824 0.0
H579 H 0.79815 0.1338 0.90291 0.0
H580 H 0.87105 0.15153 0.94317 0.0
H581 H 0.87373 0.21862 0.9063 0.0
C582 C 0.91858 0.24319 0.91197 0.0
C583 C 0.94121 0.24399 0.92054 0.0
C584 C 0.85506 0.14796 0.9344 0.0
C585 C 0.88589 0.19721 0.92373 0.0
C586 C 0.83177 0.12056 0.93274 0.0
C587 C 0.81115 0.11475 0.92117 0.0
C588 C 0.85832 0.16977 0.92413 0.0
C589 C 0.81377 0.1375 0.91193 0.0
C590 C 0.89081 0.21967 0.91348 0.0
C591 C 0.93502 0.22192 0.93122 0.0
N592 N 0.83735 0.16404 0.91339 0.0
N593 N 0.90808 0.19944 0.93242 0.0
H594 H 0.79802 0.69319 0.90393 0.0
H595 H 0.9551 0.75954 0.93961 0.0
H596 H 0.8367 0.76225 0.93744 0.0
H597 H 0.92441 0.69543 0.9032 0.0
H598 H 0.90733 0.75238 0.94262 0.0
H599 H 0.83952 0.68599 0.90677 0.0
C600 C 0.81492 0.7064 0.9121 0.0
C601 C 0.8142 0.72862 0.9203 0.0
C602 C 0.91076 0.73957 0.93404 0.0
C603 C 0.86126 0.72053 0.92362 0.0
C604 C 0.93816 0.74366 0.93234 0.0
C605 C 0.94378 0.72834 0.92099 0.0
C606 C 0.88877 0.72051 0.92403 0.0
C607 C 0.92087 0.70776 0.91204 0.0
C608 C 0.83857 0.70237 0.91366 0.0
C609 C 0.83654 0.74517 0.9307 0.0
N610 N 0.89433 0.7048 0.91352 0.0
N611 N 0.85915 0.74091 0.93197 0.0
H612 H 0.80186 0.70236 0.43375 0.0
H613 H 0.88778 0.62912 0.40053 0.0
H614 H 0.76878 0.63096 0.4017 0.0
H615 H 0.92455 0.69806 0.43416 0.0
H616 H 0.84786 0.63729 0.3969 0.0
H617 H 0.85002 0.70848 0.43046 0.0
C618 C 0.80486 0.68844 0.42577 0.0
C619 C 0.78132 0.66584 0.41817 0.0
C620 C 0.86471 0.65095 0.40497 0.0
C621 C 0.83587 0.67262 0.41437 0.0
C622 C 0.8876 0.64628 0.40703 0.0
C623 C 0.90926 0.66268 0.41781 0.0
C624 C 0.86294 0.67175 0.41407 0.0
C625 C 0.9081 0.68487 0.42578 0.0
C626 C 0.83225 0.69185 0.42395 0.0
C627 C 0.78622 0.64835 0.40798 0.0
N628 N 0.88492 0.68842 0.42399 0.0
N629 N 0.81282 0.65197 0.4065 0.0
H630 H 0.35869 0.25766 0.4353 0.0
H631 H 0.43362 0.17243 0.40349 0.0
H632 H 0.42977 0.29038 0.40305 0.0
H633 H 0.36302 0.13462 0.43608 0.0
H634 H 0.42577 0.21246 0.39991 0.0
H635 H 0.35332 0.20966 0.43266 0.0
C636 C 0.37269 0.2546 0.4274 0.0
C637 C 0.39499 0.278 0.41956 0.0
C638 C 0.41171 0.19541 0.40777 0.0
C639 C 0.38909 0.2237 0.41652 0.0
C640 C 0.41623 0.17243 0.40982 0.0
C641 C 0.39918 0.15034 0.42025 0.0
C642 C 0.39038 0.19685 0.4165 0.0
C643 C 0.37674 0.1514 0.42799 0.0
C644 C 0.36972 0.22732 0.42596 0.0
C645 C 0.4126 0.27305 0.40951 0.0
N646 N 0.37327 0.17463 0.42619 0.0
N647 N 0.40941 0.24658 0.4084 0.0
H648 H 0.89124 0.28653 0.40075 0.0
H649 H 0.80214 0.12877 0.43558 0.0
H650 H 0.92601 0.255 0.43597 0.0
H651 H 0.7711 0.16713 0.40224 0.0
H652 H 0.85068 0.17037 0.43259 0.0
H653 H 0.85093 0.23865 0.39744 0.0
C654 C 0.89055 0.26937 0.40767 0.0
C655 C 0.91177 0.27476 0.41878 0.0
C656 C 0.83325 0.16933 0.42575 0.0
C657 C 0.86493 0.21964 0.41544 0.0
C658 C 0.80565 0.14562 0.42742 0.0
C659 C 0.78257 0.14479 0.41932 0.0
C660 C 0.83756 0.192 0.41582 0.0
C661 C 0.78814 0.16707 0.4089 0.0
C662 C 0.86742 0.24192 0.4058 0.0
C663 C 0.90993 0.25162 0.4273 0.0
N664 N 0.81494 0.18976 0.40756 0.0
N665 N 0.8865 0.22502 0.4257 0.0
H666 H 0.96256 0.43472 0.27192 0.0
H667 H 0.03072 0.59225 0.23661 0.0
H668 H 0.02762 0.46537 0.23603 0.0
H669 H 0.96054 0.55334 0.26942 0.0
H670 H 0.03755 0.55053 0.23954 0.0
H671 H 0.96994 0.48257 0.27488 0.0
C672 C 0.97868 0.45167 0.26475 0.0
C673 C 0.99422 0.44602 0.25356 0.0
C674 C 0.021 0.55148 0.24627 0.0
C675 C 0.0023 0.50112 0.25654 0.0
C676 C 0.01717 0.57525 0.24463 0.0
C677 C 0.99477 0.57598 0.25261 0.0
C678 C 0.00246 0.5287 0.25607 0.0
C679 C 0.97779 0.55352 0.26286 0.0
C680 C 0.9829 0.47911 0.26642 0.0
C681 C 0.01511 0.46894 0.24473 0.0
N682 N 0.98188 0.53081 0.2642 0.0
N683 N 0.01819 0.49553 0.24618 0.0
H684 H 0.62073 0.5591 0.27196 0.0
H685 H 0.46364 0.46891 0.23656 0.0
H686 H 0.59008 0.59276 0.23563 0.0
H687 H 0.50197 0.43892 0.27052 0.0
H688 H 0.50501 0.51767 0.23941 0.0
H689 H 0.57284 0.51904 0.27527 0.0
C690 C 0.60378 0.55821 0.26476 0.0
C691 C 0.60945 0.57908 0.25336 0.0
C692 C 0.50398 0.50043 0.24643 0.0
C693 C 0.55423 0.53242 0.25674 0.0
C694 C 0.48039 0.47273 0.24487 0.0
C695 C 0.47969 0.44989 0.25316 0.0
C696 C 0.5266 0.50505 0.25648 0.0
C697 C 0.50184 0.45579 0.26372 0.0
C698 C 0.5763 0.53521 0.26664 0.0
C699 C 0.5865 0.57694 0.24451 0.0
N700 N 0.5244 0.48267 0.26498 0.0
N701 N 0.55985 0.55359 0.24615 0.0
H702 H 0.49952 0.09181 0.27296 0.0
H703 H 0.58858 0.02335 0.23776 0.0
H704 H 0.46477 0.02599 0.2375 0.0
H705 H 0.61923 0.09163 0.27178 0.0
H706 H 0.54006 0.01653 0.24068 0.0
H707 H 0.53967 0.08395 0.27627 0.0
C708 C 0.50019 0.07538 0.26599 0.0
C709 C 0.47902 0.05977 0.25481 0.0
C710 C 0.55739 0.03263 0.24768 0.0
C711 C 0.52568 0.05116 0.25815 0.0
C712 C 0.58499 0.03646 0.24606 0.0
C713 C 0.60796 0.05838 0.25437 0.0
C714 C 0.55299 0.05074 0.25778 0.0
C715 C 0.60228 0.07479 0.26495 0.0
C716 C 0.52322 0.07089 0.26785 0.0
C717 C 0.48082 0.03852 0.24622 0.0
N718 N 0.5755 0.07077 0.26625 0.0
N719 N 0.50417 0.03519 0.24782 0.0
H720 H 0.4677 0.03341 0.76933 0.0
H721 H 0.55715 0.96447 0.73497 0.0
H722 H 0.43671 0.96356 0.7363 0.0
H723 H 0.59154 0.03043 0.77039 0.0
H724 H 0.5165 0.97153 0.73189 0.0
H725 H 0.5161 0.03976 0.7668 0.0
C726 C 0.4712 0.01983 0.76134 0.0
C727 C 0.44817 0.99767 0.75318 0.0
C728 C 0.53294 0.98474 0.74027 0.0
C729 C 0.50299 0.00476 0.7502 0.0
C730 C 0.55628 0.9807 0.74202 0.0
C731 C 0.57755 0.99661 0.7531 0.0
C732 C 0.53033 0.0044 0.74994 0.0
C733 C 0.57543 0.01763 0.76176 0.0
C734 C 0.49871 0.02338 0.75994 0.0
C735 C 0.45372 0.98063 0.743 0.0
N736 N 0.55185 0.02059 0.76022 0.0
N737 N 0.48043 0.98442 0.7419 0.0
H738 H 0.02721 0.46631 0.77104 0.0
H739 H 0.09475 0.62381 0.73559 0.0
H740 H 0.09829 0.50595 0.73882 0.0
H741 H 0.0292 0.59286 0.77122 0.0
H742 H 0.08818 0.57623 0.73298 0.0
H743 H 0.02025 0.50795 0.76805 0.0
C744 C 0.04096 0.48347 0.76314 0.0
C745 C 0.0636 0.48293 0.75532 0.0
C746 C 0.07495 0.57956 0.74131 0.0
C747 C 0.05575 0.53011 0.75181 0.0
C748 C 0.0787 0.60685 0.74278 0.0
C749 C 0.06278 0.61236 0.75378 0.0
C750 C 0.0556 0.55753 0.7512 0.0
C751 C 0.042 0.58941 0.76265 0.0
C752 C 0.03704 0.50719 0.76148 0.0
C753 C 0.08083 0.5056 0.74525 0.0
N754 N 0.03935 0.56296 0.76139 0.0
N755 N 0.07664 0.52824 0.74387 0.0
H756 H 0.43647 0.50052 0.73455 0.0
H757 H 0.59406 0.59096 0.76973 0.0
H758 H 0.46768 0.4668 0.77056 0.0
H759 H 0.55487 0.62175 0.73677 0.0
H760 H 0.55241 0.54238 0.76697 0.0
H761 H 0.4841 0.54134 0.73163 0.0
C762 C 0.45349 0.50157 0.74176 0.0
C763 C 0.44805 0.48046 0.75297 0.0
C764 C 0.55327 0.55977 0.76018 0.0
C765 C 0.50292 0.52787 0.74999 0.0
C766 C 0.577 0.58739 0.76171 0.0
C767 C 0.57765 0.61041 0.75363 0.0
C768 C 0.53041 0.55537 0.75039 0.0
C769 C 0.5551 0.60476 0.74341 0.0
C770 C 0.4808 0.525 0.7401 0.0
C771 C 0.47107 0.48279 0.76183 0.0
N772 N 0.53242 0.57794 0.74217 0.0
N773 N 0.49753 0.50647 0.76038 0.0
H774 H 0.69638 0.80035 0.57205 0.0
H775 H 0.62733 0.89016 0.60586 0.0
H776 H 0.62459 0.76871 0.60378 0.0
H777 H 0.69478 0.92487 0.5713 0.0
H778 H 0.63357 0.84894 0.60883 0.0
H779 H 0.70306 0.84884 0.57485 0.0
C780 C 0.68241 0.80371 0.57981 0.0
C781 C 0.65965 0.78049 0.58753 0.0
C782 C 0.64728 0.86558 0.60067 0.0
C783 C 0.66714 0.83543 0.59081 0.0
C784 C 0.64372 0.88922 0.59898 0.0
C785 C 0.66029 0.91075 0.58816 0.0
C786 C 0.66716 0.86295 0.5912 0.0
C787 C 0.68148 0.90856 0.57972 0.0
C788 C 0.68616 0.83128 0.58136 0.0
C789 C 0.64214 0.78587 0.59743 0.0
N790 N 0.684 0.88472 0.58119 0.0
N791 N 0.64615 0.81265 0.59869 0.0
H792 H 0.12983 0.803 0.57135 0.0
H793 H 0.28777 0.89287 0.60592 0.0
H794 H 0.16879 0.77224 0.60446 0.0
H795 H 0.25611 0.92696 0.57038 0.0
H796 H 0.24005 0.85238 0.6092 0.0
H797 H 0.17138 0.85162 0.5742 0.0
C798 C 0.14678 0.80661 0.57946 0.0
C799 C 0.14617 0.7836 0.58752 0.0
C800 C 0.24326 0.86873 0.60075 0.0
C801 C 0.19333 0.83864 0.59082 0.0
C802 C 0.27064 0.89197 0.59889 0.0
C803 C 0.27597 0.91309 0.58771 0.0
C804 C 0.22096 0.86604 0.59108 0.0
C805 C 0.25281 0.91095 0.57907 0.0
C806 C 0.17048 0.83425 0.58103 0.0
C807 C 0.16859 0.78926 0.59784 0.0
N808 N 0.22627 0.88744 0.58071 0.0
N809 N 0.19126 0.81609 0.59909 0.0
H810 H 0.25494 0.35736 0.57234 0.0
H811 H 0.16571 0.42577 0.6075 0.0
H812 H 0.28628 0.42747 0.60521 0.0
H813 H 0.13114 0.35997 0.57203 0.0
H814 H 0.20607 0.41818 0.61072 0.0
H815 H 0.20636 0.3503 0.57551 0.0
C816 C 0.2515 0.37085 0.58043 0.0
C817 C 0.27467 0.39331 0.58835 0.0
C818 C 0.18961 0.40507 0.60232 0.0
C819 C 0.21963 0.38536 0.59207 0.0
C820 C 0.16645 0.40939 0.60052 0.0
C821 C 0.1453 0.39373 0.58934 0.0
C822 C 0.19218 0.38546 0.59257 0.0
C823 C 0.14718 0.37254 0.58073 0.0
C824 C 0.22387 0.36688 0.5822 0.0
C825 C 0.26918 0.41019 0.59869 0.0
N826 N 0.17064 0.36939 0.58228 0.0
N827 N 0.24236 0.40599 0.60015 0.0
H828 H 0.03034 0.29346 0.14352 0.0
H829 H 0.9577 0.3626 0.19629 0.0
H830 H 0.99141 0.34003 0.12438 0.0
H831 H 0.00554 0.32514 0.21556 0.0
H832 H 0.96663 0.35119 0.16995 0.0
H833 H 0.01827 0.30161 0.16989 0.0
C834 C 0.01911 0.30531 0.14484 0.0
C835 C 0.01192 0.31614 0.13169 0.0
C836 C 0.97513 0.34537 0.17992 0.0
C837 C 0.99805 0.32558 0.16197 0.0
C838 C 0.96999 0.35182 0.195 0.0
C839 C 0.98096 0.34487 0.20819 0.0
C840 C 0.99133 0.33177 0.17792 0.0
C841 C 0.99671 0.33092 0.20574 0.0
C842 C 0.01228 0.30999 0.15994 0.0
C843 C 0.99739 0.33132 0.13417 0.0
N844 N 0.00147 0.32487 0.1909 0.0
N845 N 0.99097 0.33562 0.14902 0.0
H846 H 0.71947 0.6819 0.12351 0.0
H847 H 0.7325 0.7116 0.21629 0.0
H848 H 0.76548 0.76636 0.14394 0.0
H849 H 0.69373 0.62706 0.19594 0.0
H850 H 0.74518 0.73216 0.18986 0.0
H851 H 0.71019 0.66128 0.14996 0.0
C852 C 0.72776 0.69609 0.13354 0.0
C853 C 0.74322 0.72588 0.13149 0.0
C854 C 0.73401 0.7091 0.19119 0.0
C855 C 0.73255 0.70251 0.1618 0.0
C856 C 0.72678 0.69738 0.20628 0.0
C857 C 0.712 0.66758 0.20834 0.0
C858 C 0.72628 0.69089 0.17806 0.0
C859 C 0.70511 0.65016 0.19493 0.0
C860 C 0.72245 0.68433 0.14864 0.0
C861 C 0.75342 0.74325 0.14493 0.0
N862 N 0.71218 0.66205 0.18039 0.0
N863 N 0.74781 0.73134 0.15948 0.0
H864 H 0.37649 0.06485 0.12338 0.0
H865 H 0.34776 0.04993 0.21632 0.0
H866 H 0.29214 0.02271 0.14406 0.0
H867 H 0.43201 0.09348 0.19553 0.0
H868 H 0.32683 0.0408 0.18994 0.0
H869 H 0.39728 0.07673 0.14976 0.0
C870 C 0.36236 0.05821 0.13345 0.0
C871 C 0.33255 0.04272 0.13151 0.0
C872 C 0.34991 0.05244 0.19117 0.0
C873 C 0.35613 0.05612 0.16173 0.0
C874 C 0.36184 0.05766 0.20622 0.0
C875 C 0.39166 0.07242 0.20813 0.0
C876 C 0.36794 0.06203 0.17794 0.0
C877 C 0.40889 0.08195 0.19463 0.0
C878 C 0.37421 0.06496 0.14852 0.0
C879 C 0.31525 0.03465 0.14499 0.0
N880 N 0.3968 0.07654 0.18014 0.0
N881 N 0.32727 0.04136 0.15951 0.0
H882 H 0.34143 0.99318 0.88292 0.0
H883 H 0.3262 0.00896 0.7903 0.0
H884 H 0.2941 0.03053 0.86281 0.0
H885 H 0.36523 0.96308 0.81025 0.0
H886 H 0.31405 0.01695 0.81683 0.0
H887 H 0.35021 0.98163 0.8564 0.0
C888 C 0.33275 0.99878 0.87295 0.0
C889 C 0.31707 0.01288 0.87509 0.0
C890 C 0.32516 0.00501 0.81539 0.0
C891 C 0.32716 -5e-05 0.84473 0.0
C892 C 0.33209 0.00046 0.80025 0.0
C893 C 0.34678 0.98538 0.79806 0.0
C894 C 0.33312 0.99454 0.82844 0.0
C895 C 0.35391 0.97485 0.81138 0.0
C896 C 0.33777 0.99222 0.85781 0.0
C897 C 0.30635 0.01968 0.86173 0.0
N898 N 0.34713 0.97973 0.82598 0.0
N899 N 0.3117 0.01329 0.84715 0.0
H900 H 0.09915 0.43319 0.81188 0.0
H901 H 0.02471 0.29001 0.86343 0.0
H902 H 0.05015 0.34865 0.79185 0.0
H903 H 0.06495 0.37502 0.88325 0.0
H904 H 0.0371 0.31088 0.8372 0.0
H905 H 0.09011 0.41202 0.838 0.0
C906 C 0.08658 0.41011 0.81295 0.0
C907 C 0.07531 0.39265 0.79962 0.0
C908 C 0.04331 0.325 0.84727 0.0
C909 C 0.06482 0.36823 0.82964 0.0
C910 C 0.03631 0.31311 0.86228 0.0
C911 C 0.04375 0.33082 0.87558 0.0
C912 C 0.05797 0.35487 0.84548 0.0
C913 C 0.05875 0.36057 0.87334 0.0
C914 C 0.08138 0.39804 0.82791 0.0
C915 C 0.05921 0.36291 0.80179 0.0
N916 N 0.06532 0.37166 0.85857 0.0
N917 N 0.05439 0.35163 0.81653 0.0
H918 H 0.62504 0.69374 0.81076 0.0
H919 H 0.76735 0.76486 0.86302 0.0
H920 H 0.71017 0.73168 0.79126 0.0
H921 H 0.68221 0.71837 0.88255 0.0
H922 H 0.74679 0.75607 0.83674 0.0
H923 H 0.64561 0.70574 0.83703 0.0
C924 C 0.64812 0.70474 0.81198 0.0
C925 C 0.66593 0.71166 0.79876 0.0
C926 C 0.73256 0.74784 0.84675 0.0
C927 C 0.68965 0.72545 0.82894 0.0
C928 C 0.74428 0.75289 0.8618 0.0
C929 C 0.72646 0.74226 0.87504 0.0
C930 C 0.70274 0.73207 0.84485 0.0
C931 C 0.69674 0.72693 0.87268 0.0
C932 C 0.65983 0.71153 0.82703 0.0
C933 C 0.69564 0.72591 0.80111 0.0
N934 N 0.68582 0.72225 0.85787 0.0
N935 N 0.70657 0.73229 0.81592 0.0
H936 H 0.0662 0.71876 0.8831 0.0
H937 H 0.04923 0.73302 0.79046 0.0
H938 H 0.0259 0.76345 0.8632 0.0
H939 H 0.0976 0.69674 0.81047 0.0
H940 H 0.04045 0.74451 0.81701 0.0
H941 H 0.07797 0.71049 0.85654 0.0
C942 C 0.05995 0.72694 0.87316 0.0
C943 C 0.04502 0.74178 0.87538 0.0
C944 C 0.05311 0.73415 0.81557 0.0
C945 C 0.05825 0.73229 0.84495 0.0
C946 C 0.05812 0.72762 0.80041 0.0
C947 C 0.07413 0.71387 0.79823 0.0
C948 C 0.06406 0.72675 0.82863 0.0
C949 C 0.08511 0.70733 0.81157 0.0
C950 C 0.06666 0.72222 0.85799 0.0
C951 C 0.03743 0.75188 0.86206 0.0
N952 N 0.07978 0.7137 0.82617 0.0
N953 N 0.04401 0.74685 0.84744 0.0
H954 H 0.36461 0.43335 0.81041 0.0
H955 H 0.29244 0.29084 0.86258 0.0
H956 H 0.32664 0.34816 0.79098 0.0
H957 H 0.33881 0.37589 0.88226 0.0
H958 H 0.3015 0.31156 0.83633 0.0
H959 H 0.35214 0.41278 0.8367 0.0
C960 C 0.35351 0.41027 0.81166 0.0
C961 C 0.34672 0.39243 0.79845 0.0
C962 C 0.30963 0.32574 0.84637 0.0
C963 C 0.33239 0.36872 0.82862 0.0
C964 C 0.30442 0.31393 0.8614 0.0
C965 C 0.31496 0.33167 0.87467 0.0
C966 C 0.32549 0.35558 0.84452 0.0
C967 C 0.33032 0.36142 0.87237 0.0
C968 C 0.34645 0.39855 0.82671 0.0
C969 C 0.33234 0.36271 0.80082 0.0
N970 N 0.33518 0.37244 0.85758 0.0
N971 N 0.3257 0.35179 0.81562 0.0
H972 H 0.76576 0.03193 0.86367 0.0
H973 H 0.62444 0.96033 0.81053 0.0
H974 H 0.68022 0.9928 0.88267 0.0
H975 H 0.70987 0.00838 0.79153 0.0
H976 H 0.64454 0.9688 0.83693 0.0
H977 H 0.74572 0.02026 0.83725 0.0
C978 C 0.74271 0.02073 0.8623 0.0
C979 C 0.72463 0.01338 0.87544 0.0
C980 C 0.65893 0.97744 0.82701 0.0
C981 C 0.7015 -2e-05 0.84509 0.0
C982 C 0.64748 0.97257 0.81189 0.0
C983 C 0.66551 0.98373 0.79876 0.0
C984 C 0.68869 0.99355 0.8291 0.0
C985 C 0.69518 -0.00059 0.8013 0.0
C986 C 0.73129 0.01413 0.84718 0.0
C987 C 0.69495 0.9989 0.8729 0.0
N988 N 0.70584 0.00389 0.81617 0.0
N989 N 0.68432 0.99271 0.85802 0.0
H990 H 0.76313 0.02628 0.14384 0.0
H991 H 0.69057 0.09522 0.19689 0.0
H992 H 0.71494 0.06353 0.12478 0.0
H993 H 0.72992 0.04898 0.21593 0.0
H994 H 0.70246 0.08702 0.17049 0.0
H995 H 0.75433 0.03765 0.17024 0.0
C996 C 0.75079 0.037 0.14519 0.0
C997 C 0.73969 0.04391 0.13204 0.0
C998 C 0.70859 0.07872 0.18042 0.0
C999 C 0.72949 0.05697 0.16237 0.0
C1000 C 0.70186 0.08344 0.19554 0.0
C1001 C 0.70921 0.07271 0.20868 0.0
C1002 C 0.72288 0.0632 0.17835 0.0
C1003 C 0.72381 0.05761 0.20615 0.0
C1004 C 0.74573 0.04343 0.1603 0.0
C1005 C 0.72388 0.05778 0.13456 0.0
N1006 N 0.73013 0.05326 0.19129 0.0
N1007 N 0.71921 0.06381 0.14943 0.0
H1008 H 0.03481 0.76787 0.14399 0.0
H1009 H 0.9591 0.62506 0.1958 0.0
H1010 H 0.99358 0.68273 0.1243 0.0
H1011 H 0.00819 0.70971 0.21568 0.0
H1012 H 0.96845 0.64605 0.16962 0.0
H1013 H 0.02225 0.74717 0.17025 0.0
C1014 C 0.02298 0.74477 0.14517 0.0
C1015 C 0.01529 0.72698 0.1319 0.0
C1016 C 0.97713 0.66008 0.17968 0.0
C1017 C 0.00085 0.70313 0.16203 0.0
C1018 C 0.97176 0.64813 0.19468 0.0
C1019 C 0.98296 0.66567 0.20798 0.0
C1020 C 0.99382 0.68987 0.1779 0.0
C1021 C -0.00083 0.69539 0.20576 0.0
C1022 C 0.01586 0.73299 0.1602 0.0
C1023 C -3e-05 0.69724 0.13419 0.0
N1024 N 0.00417 0.70656 0.19099 0.0
N1025 N 0.9933 0.68625 0.14897 0.0
H1026 H 0.28852 0.29511 0.14407 0.0
H1027 H 0.43267 0.36779 0.1948 0.0
H1028 H 0.37314 0.33899 0.12376 0.0
H1029 H 0.34827 0.32758 0.21539 0.0
H1030 H 0.41111 0.35533 0.16879 0.0
H1031 H 0.30986 0.30469 0.1702 0.0
C1032 C 0.31163 0.30669 0.1451 0.0
C1033 C 0.32909 0.31633 0.13168 0.0
C1034 C 0.39725 0.34914 0.17897 0.0
C1035 C 0.35368 0.32743 0.16167 0.0
C1036 C 0.40954 0.35623 0.19387 0.0
C1037 C 0.39223 0.34877 0.20733 0.0
C1038 C 0.36734 0.33444 0.17743 0.0
C1039 C 0.36241 0.33377 0.20534 0.0
C1040 C 0.32379 0.31217 0.16005 0.0
C1041 C 0.35888 0.33119 0.13376 0.0
N1042 N 0.35091 0.32715 0.19066 0.0
N1043 N 0.37022 0.33634 0.14847 0.0
H1044 H 0.62494 0.6977 0.53019 0.0
H1045 H 0.70397 0.63468 0.47788 0.0
H1046 H 0.67463 0.6624 0.54962 0.0
H1047 H 0.66012 0.67609 0.45828 0.0
H1048 H 0.69133 0.6425 0.50413 0.0
H1049 H 0.63529 0.68758 0.50385 0.0
C1050 C 0.63792 0.68766 0.52893 0.0
C1051 C 0.64898 0.68092 0.54216 0.0
C1052 C 0.68442 0.64987 0.49412 0.0
C1053 C 0.66101 0.66935 0.51192 0.0
C1054 C 0.69161 0.6454 0.47908 0.0
C1055 C 0.68312 0.65479 0.46582 0.0
C1056 C 0.66852 0.66381 0.49601 0.0
C1057 C 0.66714 0.66854 0.46816 0.0
C1058 C 0.64388 0.68195 0.51385 0.0
C1059 C 0.66566 0.66795 0.53977 0.0
N1060 N 0.66037 0.67265 0.48297 0.0
N1061 N 0.67122 0.66265 0.52494 0.0
H1062 H 0.38377 0.01556 0.45722 0.0
H1063 H 0.39833 0.04576 0.54994 0.0
H1064 H 0.4323 0.09987 0.47758 0.0
H1065 H 0.35832 0.96098 0.52983 0.0
H1066 H 0.41081 0.06604 0.52346 0.0
H1067 H 0.37403 0.99499 0.4837 0.0
C1068 C 0.3925 0.02972 0.46724 0.0
C1069 C 0.40883 0.05947 0.46517 0.0
C1070 C 0.3994 0.04299 0.52485 0.0
C1071 C 0.39765 0.03616 0.49549 0.0
C1072 C 0.39227 0.03143 0.53997 0.0
C1073 C 0.37725 0.00165 0.54211 0.0
C1074 C 0.3913 0.02464 0.51176 0.0
C1075 C 0.36992 0.98408 0.52875 0.0
C1076 C 0.38693 0.01798 0.48235 0.0
C1077 C 0.41958 0.0768 0.47859 0.0
N1078 N 0.37691 0.99582 0.51417 0.0
N1079 N 0.4137 0.06492 0.49314 0.0
H1080 H 0.04325 0.39606 0.4574 0.0
H1081 H 0.01446 0.38369 0.55035 0.0
H1082 H 0.95894 0.35521 0.47813 0.0
H1083 H 0.09878 0.42626 0.52963 0.0
H1084 H 0.99362 0.37384 0.52395 0.0
H1085 H 0.0641 0.40817 0.48378 0.0
C1086 C 0.02914 0.38972 0.46748 0.0
C1087 C -0.00067 0.37457 0.46555 0.0
C1088 C 0.01669 0.38542 0.52519 0.0
C1089 C 0.02297 0.38826 0.49576 0.0
C1090 C 0.02857 0.39105 0.54027 0.0
C1091 C 0.05839 0.40578 0.54221 0.0
C1092 C 0.03476 0.39453 0.51197 0.0
C1093 C 0.07567 0.4148 0.52871 0.0
C1094 C 0.04103 0.39662 0.48255 0.0
C1095 C 0.98206 0.36688 0.47904 0.0
N1096 N 0.06362 0.40899 0.5142 0.0
N1097 N 0.99411 0.37375 0.49354 0.0
H1098 H 0.39532 0.38156 0.55059 0.0
H1099 H 0.38148 0.39823 0.45782 0.0
H1100 H 0.3573 0.42839 0.53064 0.0
H1101 H 0.42487 0.35707 0.47833 0.0
H1102 H 0.37237 0.40974 0.48433 0.0
H1103 H 0.40652 0.37263 0.52407 0.0
C1104 C 0.38946 0.39008 0.54064 0.0
C1105 C 0.37534 0.40572 0.54284 0.0
C1106 C 0.38396 0.39826 0.48299 0.0
C1107 C 0.38792 0.39546 0.51243 0.0
C1108 C 0.38915 0.3917 0.46787 0.0
C1109 C 0.40392 0.37665 0.46585 0.0
C1110 C 0.39356 0.38962 0.49615 0.0
C1111 C 0.41337 0.36869 0.4793 0.0
C1112 C 0.39582 0.38496 0.52549 0.0
C1113 C 0.36821 0.41621 0.52951 0.0
N1114 N 0.40797 0.3752 0.49383 0.0
N1115 N 0.37447 0.41081 0.51489 0.0
H1116 H 0.62624 0.95833 0.53039 0.0
H1117 H 0.70075 0.09932 0.47706 0.0
H1118 H 0.67505 0.0438 0.54928 0.0
H1119 H 0.66069 0.01362 0.45818 0.0
H1120 H 0.68855 0.07943 0.50348 0.0
H1121 H 0.63563 0.97827 0.50394 0.0
C1122 C 0.63884 0.98135 0.52899 0.0
C1123 C 0.64994 -0.00056 0.54211 0.0
C1124 C 0.68235 0.06493 0.49358 0.0
C1125 C 0.66082 0.02243 0.51172 0.0
C1126 C 0.68926 0.07626 0.47846 0.0
C1127 C 0.68177 0.05809 0.46535 0.0
C1128 C 0.66773 0.03514 0.49571 0.0
C1129 C 0.66691 0.02842 0.46793 0.0
C1130 C 0.64424 0.99271 0.51385 0.0
C1131 C 0.6661 0.02906 0.53952 0.0
N1132 N 0.66041 0.01787 0.48281 0.0
N1133 N 0.67109 0.03963 0.52462 0.0
H1134 H 0.95547 0.63012 0.47777 0.0
H1135 H 0.09935 0.7028 0.52875 0.0
H1136 H 0.04013 0.67357 0.45748 0.0
H1137 H 0.01473 0.66231 0.54908 0.0
H1138 H 0.07803 0.6906 0.50266 0.0
H1139 H 0.97675 0.64002 0.5039 0.0
C1140 C 0.97859 0.64169 0.4788 0.0
C1141 C 0.99607 0.65109 0.46539 0.0
C1142 C 0.06408 0.6843 0.5128 0.0
C1143 C 0.0206 0.66254 0.49539 0.0
C1144 C 0.07623 0.69124 0.52774 0.0
C1145 C 0.05878 0.6836 0.54116 0.0
C1146 C 0.03419 0.66958 0.51118 0.0
C1147 C 0.02899 0.66863 0.53908 0.0
C1148 C 0.99072 0.64735 0.49376 0.0
C1149 C 0.02585 0.66595 0.46748 0.0
N1150 N 0.01763 0.66215 0.52437 0.0
N1151 N 0.03718 0.67127 0.4822 0.0
H1152 H -0.00088 0.32286 0.04746 0.0
H1153 H 0.0558 0.34991 0.95946 0.0
H1154 H 0.08675 0.35419 0.03371 0.0
H1155 H 0.96832 0.29363 0.97345 0.0
H1156 H 0.06681 0.36903 0.98628 0.0
H1157 H 0.98809 0.33011 0.02049 0.0
C1158 C 0.0163 0.33243 0.03894 0.0
C1159 C 0.04378 0.33755 0.04272 0.0
C1160 C 0.045 0.35316 0.98333 0.0
C1161 C 0.03129 0.34547 0.0119 0.0
C1162 C 0.03865 0.34244 0.96799 0.0
C1163 C 0.01122 0.31988 0.96434 0.0
C1164 C 0.02368 0.34131 0.99497 0.0
C1165 C 0.98985 0.31078 0.97589 0.0
C1166 C 0.00994 0.33629 0.02351 0.0
C1167 C 0.06519 0.34964 0.03119 0.0
N1168 N 0.99662 0.32116 0.99075 0.0
N1169 N 0.0584 0.35272 0.01623 0.0
H1170 H 0.70871 0.73781 0.95952 0.0
H1171 H 0.73796 0.70922 0.04739 0.0
H1172 H 0.76499 0.70624 0.97298 0.0
H1173 H 0.70746 0.76635 0.03383 0.0
H1174 H 0.73009 0.69077 0.02044 0.0
H1175 H 0.6907 0.73058 0.98656 0.0
C1176 C 0.71637 0.7282 0.96799 0.0
C1177 C 0.73862 0.72296 0.96411 0.0
C1178 C 0.72425 0.70669 0.0235 0.0
C1179 C 0.71849 0.71503 0.99499 0.0
C1180 C 0.72849 0.71702 0.03892 0.0
C1181 C 0.72373 0.73961 0.04275 0.0
C1182 C 0.71502 0.71894 0.01195 0.0
C1183 C 0.71174 0.74916 0.03127 0.0
C1184 C 0.70631 0.72435 0.98346 0.0
C1185 C 0.74804 0.71085 0.97559 0.0
N1186 N 0.70824 0.73913 0.01633 0.0
N1187 N 0.73829 0.70774 0.99057 0.0
H1188 H 0.35528 0.09194 0.97165 0.0
H1189 H 0.29402 0.97196 0.03395 0.0
H1190 H 0.32266 0.00321 0.95993 0.0
H1191 H 0.3477 0.06083 0.04617 0.0
H1192 H 0.31328 0.98252 0.00733 0.0
H1193 H 0.36261 0.08188 0.99865 0.0
C1194 C 0.35063 0.0705 0.97467 0.0
C1195 C 0.33802 0.04828 0.96362 0.0
C1196 C 0.32156 -0.00035 0.01589 0.0
C1197 C 0.34527 0.03632 0.99466 0.0
C1198 C 0.3106 0.99358 0.03111 0.0
C1199 C 0.31911 0.01563 0.04217 0.0
C1200 C 0.34051 0.02816 0.01155 0.0
C1201 C 0.34058 0.04325 0.03795 0.0
C1202 C 0.35469 0.06471 0.99012 0.0
C1203 C 0.33237 0.02092 0.96811 0.0
N1204 N 0.34999 0.04891 0.02283 0.0
N1205 N 0.33526 0.01552 0.98341 0.0
H1206 H 0.05824 0.7364 0.95959 0.0
H1207 H 0.00153 0.70851 0.04763 0.0
H1208 H 0.97083 0.70606 0.97344 0.0
H1209 H 0.08924 0.76407 0.03378 0.0
H1210 H 0.99034 0.69 0.0207 0.0
H1211 H 0.06911 0.72865 0.98652 0.0
C1212 C 0.04107 0.72696 0.96812 0.0
C1213 C 0.01371 0.72223 0.96439 0.0
C1214 C 0.01223 0.70557 0.0237 0.0
C1215 C 0.026 0.7137 0.99514 0.0
C1216 C 0.01867 0.71592 0.0391 0.0
C1217 C 0.04625 0.73812 0.04284 0.0
C1218 C 0.03359 0.71742 0.01207 0.0
C1219 C 0.06761 0.74719 0.03129 0.0
C1220 C 0.04733 0.7228 0.98352 0.0
C1221 C 0.99231 0.7103 0.97593 0.0
N1222 N 0.06075 0.73717 0.01636 0.0
N1223 N -0.001 0.7069 0.99085 0.0
H1224 H 0.34661 0.31641 0.0469 0.0
H1225 H 0.31923 0.34853 0.95942 0.0
H1226 H 0.28907 0.34646 0.0335 0.0
H1227 H 0.35216 0.29304 0.97213 0.0
H1228 H 0.32597 0.36563 0.98662 0.0
H1229 H 0.36584 0.3256 0.02006 0.0
C1230 C 0.33885 0.326 0.03849 0.0
C1231 C 0.31598 0.33031 0.04229 0.0
C1232 C 0.33262 0.35042 0.98333 0.0
C1233 C 0.33756 0.34061 0.01168 0.0
C1234 C 0.32905 0.34089 0.96776 0.0
C1235 C 0.33476 0.31907 0.96363 0.0
C1236 C 0.34207 0.33808 0.9947 0.0
C1237 C 0.34716 0.30965 0.97494 0.0
C1238 C 0.34964 0.33103 0.02315 0.0
C1239 C 0.30647 0.3425 0.03092 0.0
N1240 N 0.34992 0.31882 0.99003 0.0
N1241 N 0.31698 0.34682 0.01607 0.0
H1242 H 0.75931 0.08878 0.97265 0.0
H1243 H 0.70119 0.96838 0.03482 0.0
H1244 H 0.70613 -0.00025 0.96061 0.0
H1245 H 0.73424 0.05701 0.04691 0.0
H1246 H 0.69277 0.9786 0.00806 0.0
H1247 H 0.74093 0.07807 0.99945 0.0
C1248 C 0.74293 0.06711 0.97554 0.0
C1249 C 0.73441 0.04506 0.96447 0.0
C1250 C 0.70104 0.99572 0.01663 0.0
C1251 C 0.71411 0.03235 0.99532 0.0
C1252 C 0.70571 0.98983 0.03195 0.0
C1253 C 0.71867 0.01195 0.04303 0.0
C1254 C 0.7102 0.02413 0.01222 0.0
C1255 C 0.7242 0.03936 0.03871 0.0
C1256 C 0.73252 0.06094 0.99089 0.0
C1257 C 0.71324 0.01736 0.96881 0.0
N1258 N 0.7207 0.04486 0.02352 0.0
N1259 N 0.70441 0.01163 0.98402 0.0
H1260 H 0.72278 0.68368 0.29293 0.0
H1261 H 0.66304 0.65211 0.38045 0.0
H1262 H 0.63464 0.62706 0.3056 0.0
H1263 H 0.75076 0.6826 0.36724 0.0
H1264 H 0.6529 0.66049 0.35345 0.0
H1265 H 0.73281 0.7009 0.32013 0.0
C1266 C 0.70529 0.6758 0.30127 0.0
C1267 C 0.67794 0.65366 0.29711 0.0
C1268 C 0.67457 0.66621 0.35661 0.0
C1269 C 0.68929 0.67284 0.32818 0.0
C1270 C 0.6804 0.66166 0.37203 0.0
C1271 C 0.70767 0.66637 0.37596 0.0
C1272 C 0.69626 0.67571 0.34518 0.0
C1273 C 0.72936 0.67841 0.36459 0.0
C1274 C 0.71107 0.6854 0.31682 0.0
C1275 C 0.6561 0.64393 0.30842 0.0
N1276 N 0.72311 0.68228 0.34966 0.0
N1277 N 0.66234 0.65321 0.3235 0.0
H1278 H 0.37389 0.10262 0.36869 0.0
H1279 H 0.43251 0.04289 0.30555 0.0
H1280 H 0.40497 0.04501 0.37992 0.0
H1281 H 0.37834 0.07784 0.29393 0.0
H1282 H 0.41413 0.03455 0.33237 0.0
H1283 H 0.36593 0.08541 0.34164 0.0
C1284 C 0.37806 0.08555 0.36555 0.0
C1285 C 0.39038 0.07542 0.37648 0.0
C1286 C 0.40554 0.04326 0.3239 0.0
C1287 C 0.38242 0.05639 0.34538 0.0
C1288 C 0.416 0.04793 0.30856 0.0
C1289 C 0.40706 0.06127 0.2976 0.0
C1290 C 0.3867 0.05286 0.32844 0.0
C1291 C 0.38573 0.06749 0.30206 0.0
C1292 C 0.37363 0.07579 0.35007 0.0
C1293 C 0.39546 0.05339 0.37184 0.0
N1294 N 0.37683 0.06396 0.31728 0.0
N1295 N 0.39223 0.04518 0.35651 0.0
H1296 H 0.95801 0.30373 0.36822 0.0
H1297 H 0.0195 0.42192 0.30482 0.0
H1298 H 0.01323 0.39273 0.37963 0.0
H1299 H 0.98512 0.33266 0.29381 0.0
H1300 H 0.0271 0.41236 0.33188 0.0
H1301 H 0.97647 0.31327 0.34142 0.0
C1302 C 0.97476 0.32515 0.36516 0.0
C1303 C 0.98396 0.34754 0.37606 0.0
C1304 C 0.01873 0.39495 0.32349 0.0
C1305 C 0.00445 0.35893 0.34523 0.0
C1306 C 0.01454 0.40046 0.308 0.0
C1307 C 0.00141 0.37798 0.29714 0.0
C1308 C 0.00891 0.36659 0.32826 0.0
C1309 C 0.99529 0.35058 0.30184 0.0
C1310 C 0.98526 0.33064 0.34984 0.0
C1311 C 0.0056 0.3749 0.37155 0.0
N1312 N 0.99833 0.34548 0.31718 0.0
N1313 N 0.01457 0.38 0.35634 0.0
H1314 H 0.66731 0.03806 0.38106 0.0
H1315 H 0.72274 0.0661 0.29277 0.0
H1316 H 0.75471 0.09412 0.36687 0.0
H1317 H 0.63535 0.03484 0.307 0.0
H1318 H 0.73415 0.05866 0.31963 0.0
H1319 H 0.65585 0.01944 0.35416 0.0
C1320 C 0.68434 0.04555 0.37246 0.0
C1321 C 0.71189 0.06791 0.3761 0.0
C1322 C 0.71227 0.05255 0.31674 0.0
C1323 C 0.69892 0.0471 0.34536 0.0
C1324 C 0.70569 0.05652 0.30137 0.0
C1325 C 0.67816 0.05144 0.29776 0.0
C1326 C 0.69109 0.04328 0.32845 0.0
C1327 C 0.65694 0.03935 0.30939 0.0
C1328 C 0.67775 0.03514 0.35707 0.0
C1329 C 0.73311 0.07709 0.36446 0.0
N1330 N 0.66394 0.03613 0.32428 0.0
N1331 N 0.72609 0.06702 0.34955 0.0
H1332 H 0.95588 0.67937 0.36769 0.0
H1333 H 0.01903 0.62385 0.30463 0.0
H1334 H 0.01125 0.64591 0.3795 0.0
H1335 H 0.98567 0.67959 0.29348 0.0
H1336 H 0.02577 0.64033 0.33181 0.0
H1337 H 0.97495 0.68865 0.34101 0.0
C1338 C 0.97277 0.67483 0.36475 0.0
C1339 C 0.98187 0.66165 0.37572 0.0
C1340 C 0.01783 0.64971 0.32337 0.0
C1341 C 0.00308 0.67118 0.34503 0.0
C1342 C 0.01412 0.6404 0.30782 0.0
C1343 C 0.00151 0.65018 0.29687 0.0
C1344 C 0.00805 0.66831 0.3281 0.0
C1345 C 0.99545 0.67151 0.30158 0.0
C1346 C 0.98363 0.68005 0.3495 0.0
C1347 C 0.00371 0.65611 0.37136 0.0
N1348 N 0.998 0.67927 0.31696 0.0
N1349 N 0.01304 0.66018 0.35621 0.0
H1350 H 0.37755 0.30558 0.36877 0.0
H1351 H 0.43504 0.42205 0.30418 0.0
H1352 H 0.41046 0.39483 0.37919 0.0
H1353 H 0.38054 0.33252 0.2937 0.0
H1354 H 0.41793 0.41304 0.33125 0.0
H1355 H 0.36949 0.31428 0.34162 0.0
C1356 C 0.38218 0.32687 0.36541 0.0
C1357 C 0.39487 0.34958 0.37616 0.0
C1358 C 0.40899 0.39543 0.32299 0.0
C1359 C 0.38679 0.36 0.34494 0.0
C1360 C 0.41871 0.40061 0.3075 0.0
C1361 C 0.40933 0.37794 0.29677 0.0
C1362 C 0.39043 0.36719 0.32791 0.0
C1363 C 0.38826 0.35058 0.30164 0.0
C1364 C 0.37768 0.33188 0.34989 0.0
C1365 C 0.40059 0.37675 0.37125 0.0
N1366 N 0.38007 0.3458 0.31698 0.0
N1367 N 0.39723 0.38139 0.35587 0.0
H1368 H 0.33462 0.99192 0.7143 0.0
H1369 H 0.39014 0.01998 0.62603 0.0
H1370 H 0.42159 0.02114 0.69997 0.0
H1371 H 0.30281 0.96352 0.6402 0.0
H1372 H 0.40153 0.03847 0.65296 0.0
H1373 H 0.3235 -0.00016 0.68747 0.0
C1374 C 0.35166 0.00115 0.70568 0.0
C1375 C 0.37895 0.00551 0.70925 0.0
C1376 C 0.37966 0.02273 0.65003 0.0
C1377 C 0.36636 0.01428 0.67862 0.0
C1378 C 0.37309 0.01238 0.63463 0.0
C1379 C 0.3456 0.98993 0.63099 0.0
C1380 C 0.3585 0.01063 0.66174 0.0
C1381 C 0.32437 0.98061 0.64263 0.0
C1382 C 0.34525 0.00541 0.69034 0.0
C1383 C 0.40018 0.01718 0.69761 0.0
N1384 N 0.33136 0.99064 0.65754 0.0
N1385 N 0.39333 0.02072 0.68275 0.0
H1386 H 0.07003 0.37761 0.7149 0.0
H1387 H 0.0435 0.41132 0.62744 0.0
H1388 H 0.04037 0.43593 0.70248 0.0
H1389 H 0.09965 0.37942 0.64058 0.0
H1390 H 0.02499 0.40309 0.65444 0.0
H1391 H 0.06292 0.36091 0.6876 0.0
C1392 C 0.06085 0.386 0.70659 0.0
C1393 C 0.05614 0.40844 0.71086 0.0
C1394 C 0.04071 0.39705 0.65126 0.0
C1395 C 0.0484 0.38984 0.67968 0.0
C1396 C 0.05109 0.40152 0.63584 0.0
C1397 C 0.07334 0.39634 0.6319 0.0
C1398 C 0.05256 0.38712 0.66267 0.0
C1399 C 0.08269 0.38397 0.64325 0.0
C1400 C 0.05708 0.37669 0.69098 0.0
C1401 C 0.04457 0.41881 0.69958 0.0
N1402 N 0.07256 0.38016 0.65817 0.0
N1403 N 0.04156 0.40979 0.68445 0.0
H1404 H 0.68367 0.72459 0.71434 0.0
H1405 H 0.654 0.66702 0.62644 0.0
H1406 H 0.62734 0.63683 0.70084 0.0
H1407 H 0.68378 0.7544 0.64017 0.0
H1408 H 0.66231 0.65647 0.65332 0.0
H1409 H 0.70157 0.73543 0.68728 0.0
C1410 C 0.67598 0.70735 0.70585 0.0
C1411 C 0.65374 0.67987 0.70973 0.0
C1412 C 0.66791 0.67818 0.6503 0.0
C1413 C 0.67374 0.69214 0.67883 0.0
C1414 C 0.66343 0.68426 0.63493 0.0
C1415 C 0.66785 0.71151 0.63118 0.0
C1416 C 0.67705 0.69958 0.66188 0.0
C1417 C 0.67977 0.733 0.64267 0.0
C1418 C 0.68598 0.71359 0.69038 0.0
C1419 C 0.64428 0.65838 0.69824 0.0
N1420 N 0.68352 0.72649 0.65757 0.0
N1421 N 0.65397 0.66505 0.68324 0.0
H1422 H 0.42256 0.42855 0.70107 0.0
H1423 H 0.30058 0.3682 0.64031 0.0
H1424 H 0.33434 0.37345 0.71408 0.0
H1425 H 0.38872 0.40091 0.62723 0.0
H1426 H 0.31176 0.36013 0.66693 0.0
H1427 H 0.41134 0.40955 0.67441 0.0
C1428 C 0.40099 0.41165 0.69842 0.0
C1429 C 0.37926 0.40277 0.70972 0.0
C1430 C 0.32856 0.36824 0.65817 0.0
C1431 C 0.36595 0.38172 0.67905 0.0
C1432 C 0.32212 0.37275 0.64294 0.0
C1433 C 0.34385 0.38554 0.63164 0.0
C1434 C 0.35711 0.37744 0.66225 0.0
C1435 C 0.37137 0.39105 0.63562 0.0
C1436 C 0.39453 0.40087 0.68316 0.0
C1437 C 0.3517 0.38089 0.7057 0.0
N1438 N 0.37743 0.38775 0.65074 0.0
N1439 N 0.34562 0.3717 0.69056 0.0
H1440 H 0.62948 0.02403 0.70178 0.0
H1441 H 0.68776 0.96272 0.63929 0.0
H1442 H 0.68381 0.98932 0.71356 0.0
H1443 H 0.65457 0.01831 0.62742 0.0
H1444 H 0.69641 0.98134 0.66606 0.0
H1445 H 0.6477 0.032 0.67493 0.0
C1446 C 0.64608 0.01907 0.69882 0.0
C1447 C 0.65497 0.00576 0.70983 0.0
C1448 C 0.68807 0.99021 0.65754 0.0
C1449 C 0.67509 0.01369 0.67894 0.0
C1450 C 0.68327 0.97965 0.64221 0.0
C1451 C 0.6702 0.98882 0.6312 0.0
C1452 C 0.67891 0.00944 0.66201 0.0
C1453 C 0.66469 0.01069 0.63557 0.0
C1454 C 0.6564 0.02348 0.68345 0.0
C1455 C 0.6764 -0.00035 0.70541 0.0
N1456 N 0.66831 0.01968 0.65077 0.0
N1457 N 0.68514 0.00289 0.69017 0.0
H1458 H 0.03685 0.63543 0.70162 0.0
H1459 H 0.09917 0.75443 0.63874 0.0
H1460 H 0.06994 0.72438 0.71296 0.0
H1461 H 0.04405 0.66565 0.62683 0.0
H1462 H 0.08025 0.74443 0.66545 0.0
H1463 H 0.02986 0.64527 0.6745 0.0
C1464 C 0.04164 0.65687 0.69849 0.0
C1465 C 0.05425 0.6792 0.70947 0.0
C1466 C 0.07159 0.72721 0.65694 0.0
C1467 C 0.04744 0.69091 0.6783 0.0
C1468 C 0.08236 0.73296 0.64166 0.0
C1469 C 0.0733 0.71077 0.63065 0.0
C1470 C 0.05228 0.69885 0.66138 0.0
C1471 C 0.05157 0.68334 0.635 0.0
C1472 C 0.0378 0.66254 0.68297 0.0
C1473 C 0.06016 0.70657 0.70484 0.0
N1474 N 0.04234 0.67798 0.65016 0.0
N1475 N 0.05748 0.71185 0.68948 0.0
H1476 H 0.82245 0.10712 0.10156 0.0
H1477 H 0.97056 0.20746 0.05728 0.0
H1478 H 0.85099 0.0861 0.05883 0.0
H1479 H 0.95011 0.23228 0.10144 0.0
H1480 H 0.92379 0.16493 0.05701 0.0
H1481 H 0.86605 0.15475 0.10121 0.0
C1482 C 0.8377 0.11256 0.09208 0.0
C1483 C 0.83324 0.09244 0.08032 0.0
C1484 C 0.92931 0.17954 0.06681 0.0
C1485 C 0.88272 0.14657 0.07982 0.0
C1486 C 0.95618 0.20393 0.06698 0.0
C1487 C 0.96448 0.2233 0.07952 0.0
C1488 C 0.91035 0.17401 0.07935 0.0
C1489 C 0.94458 0.21778 0.09158 0.0
C1490 C 0.86254 0.13966 0.09191 0.0
C1491 C 0.85363 0.10062 0.0683 0.0
N1492 N 0.91843 0.1934 0.0913 0.0
N1493 N 0.87735 0.12686 0.06841 0.0
H1494 H 0.95286 0.74562 0.10025 0.0
H1495 H 0.85647 0.80204 0.05948 0.0
H1496 H 0.97942 0.80732 0.06256 0.0
H1497 H 0.8277 0.74873 0.10087 0.0
H1498 H 0.89981 0.79929 0.05951 0.0
H1499 H 0.90551 0.74221 0.09999 0.0
C1500 C 0.94877 0.75834 0.09192 0.0
C1501 C 0.9703 0.77695 0.08149 0.0
C1502 C 0.88417 0.78814 0.06865 0.0
C1503 C 0.91642 0.77299 0.08108 0.0
C1504 C 0.85928 0.78974 0.06865 0.0
C1505 C 0.8385 0.77595 0.08034 0.0
C1506 C 0.88877 0.77276 0.08048 0.0
C1507 C 0.84325 0.75982 0.09169 0.0
C1508 C 0.92181 0.7564 0.0918 0.0
C1509 C 0.96378 0.79289 0.07095 0.0
N1510 N 0.86808 0.75885 0.09157 0.0
N1511 N 0.93759 0.79051 0.07105 0.0
H1512 H 0.22824 0.06633 0.08418 0.0
H1513 H 0.31929 0.23699 0.09241 0.0
H1514 H 0.31978 0.11112 0.09124 0.0
H1515 H 0.22885 0.18755 0.08221 0.0
H1516 H 0.32048 0.19203 0.09465 0.0
H1517 H 0.2286 0.11126 0.0863 0.0
C1518 C 0.24852 0.08569 0.08619 0.0
C1519 C 0.27409 0.08493 0.08731 0.0
C1520 C 0.30042 0.19117 0.09201 0.0
C1521 C 0.27469 0.13704 0.08969 0.0
C1522 C 0.2997 0.21677 0.09076 0.0
C1523 C 0.274 0.21609 0.08693 0.0
C1524 C 0.27521 0.16486 0.08954 0.0
C1525 C 0.24927 0.18929 0.08495 0.0
C1526 C 0.2487 0.11147 0.08743 0.0
C1527 C 0.29958 0.11076 0.09023 0.0
N1528 N 0.25056 0.16492 0.08623 0.0
N1529 N 0.29931 0.1359 0.09116 0.0
H1530 H 0.20635 0.97494 0.94836 0.0
H1531 H 0.10787 0.82408 0.90615 0.0
H1532 H 0.23306 0.95185 0.90568 0.0
H1533 H 0.08435 0.8561 0.94661 0.0
H1534 H 0.15538 0.8678 0.90638 0.0
H1535 H 0.16346 0.92847 0.94869 0.0
C1536 C 0.20317 0.96004 0.93899 0.0
C1537 C 0.22319 0.96753 0.92684 0.0
C1538 C 0.13974 0.86504 0.9152 0.0
C1539 C 0.17349 0.91371 0.92709 0.0
C1540 C 0.11269 0.84013 0.9151 0.0
C1541 C 0.09194 0.83652 0.92627 0.0
C1542 C 0.14596 0.88617 0.92665 0.0
C1543 C 0.09937 0.85798 0.9376 0.0
C1544 C 0.17857 0.93334 0.9392 0.0
C1545 C 0.21807 0.94698 0.91522 0.0
N1546 N 0.12559 0.88172 0.93746 0.0
N1547 N 0.19349 0.92099 0.91553 0.0
H1548 H 0.23313 0.31241 0.90641 0.0
H1549 H 0.08039 0.25473 0.94747 0.0
H1550 H 0.19928 0.25171 0.94461 0.0
H1551 H 0.1051 0.30963 0.90671 0.0
H1552 H 0.12656 0.25768 0.9473 0.0
H1553 H 0.18902 0.31555 0.90686 0.0
C1554 C 0.21658 0.29988 0.9149 0.0
C1555 C 0.21987 0.28157 0.92539 0.0
C1556 C 0.1221 0.26915 0.93833 0.0
C1557 C 0.16976 0.28519 0.92601 0.0
C1558 C 0.09555 0.26743 0.9384 0.0
C1559 C 0.08861 0.28165 0.92695 0.0
C1560 C 0.14217 0.28509 0.92666 0.0
C1561 C 0.10953 0.29821 0.91572 0.0
C1562 C 0.19146 0.30165 0.91513 0.0
C1563 C 0.19775 0.26586 0.93614 0.0
N1564 N 0.13539 0.29931 0.91576 0.0
N1565 N 0.17382 0.26805 0.93613 0.0
H1566 H 0.74511 0.82405 0.90609 0.0
H1567 H 0.7944 0.9734 0.9494 0.0
H1568 H 0.80173 0.8568 0.94607 0.0
H1569 H 0.74703 0.95171 0.9059 0.0
H1570 H 0.79161 0.92725 0.94935 0.0
H1571 H 0.74059 0.86739 0.90658 0.0
C1572 C 0.75644 0.8402 0.91498 0.0
C1573 C 0.77405 0.83687 0.92596 0.0
C1574 C 0.78176 0.93238 0.93975 0.0
C1575 C 0.76881 0.88606 0.92664 0.0
C1576 C 0.78338 0.95888 0.93977 0.0
C1577 C 0.77133 0.96669 0.9275 0.0
C1578 C 0.76815 0.91326 0.92731 0.0
C1579 C 0.75677 0.94659 0.91555 0.0
C1580 C 0.75389 0.86488 0.91523 0.0
C1581 C 0.78821 0.85844 0.93722 0.0
N1582 N 0.75581 0.92079 0.91565 0.0
N1583 N 0.78527 0.88194 0.93723 0.0
H1584 H 0.53376 0.40434 0.42532 0.0
H1585 H 0.61119 0.57549 0.42503 0.0
H1586 H 0.4859 0.44886 0.42348 0.0
H1587 H 0.65353 0.52568 0.42137 0.0
H1588 H 0.56514 0.53069 0.42815 0.0
H1589 H 0.57769 0.44981 0.428 0.0
C1590 C 0.5325 0.42378 0.42552 0.0
C1591 C 0.50617 0.42283 0.4239 0.0
C1592 C 0.58461 0.52973 0.42678 0.0
C1593 C 0.55679 0.47543 0.4268 0.0
C1594 C 0.61085 0.55522 0.42504 0.0
C1595 C 0.63618 0.55428 0.42272 0.0
C1596 C 0.58394 0.50332 0.42637 0.0
C1597 C 0.63455 0.52749 0.42286 0.0
C1598 C 0.55767 0.44984 0.42706 0.0
C1599 C 0.50583 0.44871 0.42459 0.0
N1600 N 0.60897 0.50323 0.42458 0.0
N1601 N 0.53089 0.47411 0.42578 0.0
H1602 H 0.61929 0.07822 0.43514 0.0
H1603 H 0.51831 0.12523 0.39079 0.0
H1604 H 0.64037 0.12842 0.39265 0.0
H1605 H 0.49523 0.08306 0.43584 0.0
H1606 H 0.56055 0.1204 0.39037 0.0
H1607 H 0.57169 0.07429 0.43491 0.0
C1608 C 0.61388 0.08822 0.42574 0.0
C1609 C 0.63399 0.10398 0.414 0.0
C1610 C 0.54638 0.1121 0.4004 0.0
C1611 C 0.57987 0.09939 0.41361 0.0
C1612 C 0.52217 0.11491 0.40065 0.0
C1613 C 0.50344 0.10497 0.41349 0.0
C1614 C 0.55238 0.09951 0.41318 0.0
C1615 C 0.50926 0.09117 0.42575 0.0
C1616 C 0.5868 0.08601 0.42564 0.0
C1617 C 0.62586 0.11644 0.40209 0.0
N1618 N 0.53351 0.08913 0.4254 0.0
N1619 N 0.5996 0.11391 0.40225 0.0
H1620 H 0.98868 0.44466 0.42548 0.0
H1621 H 0.89417 0.52119 0.42166 0.0
H1622 H 0.89685 0.40166 0.42001 0.0
H1623 H 0.98641 0.56955 0.42432 0.0
H1624 H 0.89567 0.47722 0.42433 0.0
H1625 H 0.98926 0.49048 0.42808 0.0
C1626 C 0.96868 0.44479 0.42498 0.0
C1627 C 0.94272 0.41932 0.4223 0.0
C1628 C 0.91569 0.49736 0.42438 0.0
C1629 C 0.94322 0.47135 0.42533 0.0
C1630 C 0.91483 0.52256 0.42283 0.0
C1631 C 0.94023 0.5491 0.42252 0.0
C1632 C 0.94218 0.49839 0.42547 0.0
C1633 C 0.96633 0.54949 0.42441 0.0
C1634 C 0.96904 0.47092 0.42642 0.0
C1635 C 0.91744 0.42073 0.42179 0.0
N1636 N 0.96669 0.52443 0.42562 0.0
N1637 N 0.91839 0.4462 0.42321 0.0
H1638 H 0.74977 0.18223 0.28271 0.0
H1639 H 0.89872 0.28194 0.23901 0.0
H1640 H 0.77103 0.15662 0.23905 0.0
H1641 H 0.86788 0.30482 0.2802 0.0
H1642 H 0.85522 0.23425 0.23946 0.0
H1643 H 0.79621 0.22518 0.28279 0.0
C1644 C 0.76426 0.18567 0.27307 0.0
C1645 C 0.75626 0.16595 0.26072 0.0
C1646 C 0.85819 0.24979 0.24839 0.0
C1647 C 0.81002 0.21572 0.26068 0.0
C1648 C 0.88297 0.27693 0.24817 0.0
C1649 C 0.88682 0.29755 0.25948 0.0
C1650 C 0.83745 0.24334 0.2601 0.0
C1651 C 0.86578 0.2899 0.27109 0.0
C1652 C 0.79093 0.2103 0.27313 0.0
C1653 C 0.77631 0.17138 0.24875 0.0
N1654 N 0.84215 0.26358 0.27105 0.0
N1655 N 0.80227 0.19599 0.24893 0.0
H1656 H 0.90013 0.64557 0.23837 0.0
H1657 H 0.75098 0.59648 0.2818 0.0
H1658 H 0.8691 0.59192 0.27956 0.0
H1659 H 0.77262 0.64361 0.23823 0.0
H1660 H 0.79748 0.60007 0.28204 0.0
H1661 H 0.85676 0.65003 0.2388 0.0
C1662 C 0.88437 0.63493 0.24753 0.0
C1663 C 0.8881 0.61806 0.25883 0.0
C1664 C 0.79228 0.60971 0.27237 0.0
C1665 C 0.8389 0.62321 0.25945 0.0
C1666 C 0.76557 0.60761 0.27222 0.0
C1667 C 0.75767 0.61937 0.25984 0.0
C1668 C 0.81148 0.62346 0.25997 0.0
C1669 C 0.77784 0.6341 0.24795 0.0
C1670 C 0.85967 0.63744 0.24775 0.0
C1671 C 0.86706 0.60479 0.27045 0.0
N1672 N 0.80383 0.63549 0.2482 0.0
N1673 N 0.84351 0.60762 0.27041 0.0
H1674 H 0.4963 0.32407 0.25211 0.0
H1675 H 0.40271 0.15311 0.24758 0.0
H1676 H 0.40415 0.27986 0.24839 0.0
H1677 H 0.49421 0.20215 0.2545 0.0
H1678 H 0.40197 0.19825 0.24497 0.0
H1679 H 0.49514 0.27873 0.24986 0.0
C1680 C 0.47573 0.30475 0.2508 0.0
C1681 C 0.45025 0.30578 0.25068 0.0
C1682 C 0.42216 0.19898 0.24696 0.0
C1683 C 0.4487 0.25325 0.24818 0.0
C1684 C 0.42262 0.17328 0.24842 0.0
C1685 C 0.44852 0.17383 0.25147 0.0
C1686 C 0.44782 0.22525 0.24843 0.0
C1687 C 0.47366 0.20056 0.25241 0.0
C1688 C 0.47507 0.27875 0.24948 0.0
C1689 C 0.42429 0.28 0.24863 0.0
N1690 N 0.47262 0.22503 0.25095 0.0
N1691 N 0.42413 0.25465 0.24763 0.0
H1692 H 0.28443 0.90336 0.76768 0.0
H1693 H 0.18273 0.75536 0.72363 0.0
H1694 H 0.30585 0.87303 0.72576 0.0
H1695 H 0.15954 0.77552 0.76837 0.0
H1696 H 0.22541 0.80208 0.72322 0.0
H1697 H 0.23656 0.86014 0.76734 0.0
C1698 C 0.27905 0.88779 0.75838 0.0
C1699 C 0.29932 0.89166 0.74683 0.0
C1700 C 0.21111 0.7965 0.73317 0.0
C1701 C 0.24488 0.84263 0.74633 0.0
C1702 C 0.18665 0.76969 0.73342 0.0
C1703 C 0.16776 0.76131 0.74619 0.0
C1704 C 0.21718 0.81528 0.74586 0.0
C1705 C 0.17369 0.78112 0.75835 0.0
C1706 C 0.2518 0.86316 0.75822 0.0
C1707 C 0.2912 0.87086 0.73505 0.0
N1708 N 0.19816 0.80719 0.758 0.0
N1709 N 0.26477 0.84738 0.73515 0.0
H1710 H 0.30484 0.45868 0.72384 0.0
H1711 H 0.15791 0.41283 0.76901 0.0
H1712 H 0.2854 0.41493 0.76845 0.0
H1713 H 0.18778 0.46523 0.72732 0.0
H1714 H 0.20095 0.40783 0.76819 0.0
H1715 H 0.25828 0.45506 0.72391 0.0
C1716 C 0.29071 0.44827 0.73371 0.0
C1717 C 0.29926 0.43751 0.74629 0.0
C1718 C 0.19786 0.42027 0.75922 0.0
C1719 C 0.24546 0.43343 0.74651 0.0
C1720 C 0.17334 0.42308 0.75966 0.0
C1721 C 0.1694 0.43977 0.74833 0.0
C1722 C 0.21822 0.43398 0.74726 0.0
C1723 C 0.19002 0.45253 0.73646 0.0
C1724 C 0.26399 0.44616 0.73373 0.0
C1725 C 0.27968 0.42366 0.75856 0.0
N1726 N 0.2134 0.4494 0.73629 0.0
N1727 N 0.2537 0.42229 0.75847 0.0
H1728 H 0.64635 0.77435 0.7682 0.0
H1729 H 0.60011 0.87587 0.72377 0.0
H1730 H 0.59373 0.75229 0.72661 0.0
H1731 H 0.64335 0.89939 0.76853 0.0
H1732 H 0.60383 0.83298 0.72361 0.0
H1733 H 0.65098 0.82225 0.76773 0.0
C1734 C 0.63595 0.77959 0.75895 0.0
C1735 C 0.61935 0.75914 0.74753 0.0
C1736 C 0.61259 0.8474 0.73352 0.0
C1737 C 0.62474 0.81361 0.74687 0.0
C1738 C 0.61043 0.87198 0.73362 0.0
C1739 C 0.621 0.89105 0.74631 0.0
C1740 C 0.6252 0.84137 0.74628 0.0
C1741 C 0.63475 0.88512 0.75856 0.0
C1742 C 0.63856 0.80685 0.75871 0.0
C1743 C 0.60639 0.76708 0.73581 0.0
N1744 N 0.63619 0.86054 0.75834 0.0
N1745 N 0.60934 0.79352 0.73582 0.0
H1746 H 0.5651 0.61665 0.57244 0.0
H1747 H 0.41769 0.51529 0.61713 0.0
H1748 H 0.53588 0.63783 0.61487 0.0
H1749 H 0.43749 0.49124 0.57254 0.0
H1750 H 0.46429 0.55806 0.61726 0.0
H1751 H 0.52175 0.56882 0.57287 0.0
C1752 C 0.54975 0.61122 0.58187 0.0
C1753 C 0.55396 0.63142 0.59353 0.0
C1754 C 0.45867 0.54357 0.60739 0.0
C1755 C 0.50479 0.57705 0.59413 0.0
C1756 C 0.4319 0.51904 0.6073 0.0
C1757 C 0.42344 0.49984 0.59468 0.0
C1758 C 0.47736 0.54941 0.59469 0.0
C1759 C 0.44314 0.50562 0.58246 0.0
C1760 C 0.52505 0.584 0.58208 0.0
C1761 C 0.53344 0.62325 0.60547 0.0
N1762 N 0.46918 0.53014 0.58267 0.0
N1763 N 0.50989 0.59688 0.60542 0.0
H1764 H 0.41948 0.93578 0.61677 0.0
H1765 H 0.5664 0.98014 0.57201 0.0
H1766 H 0.4388 0.97789 0.57169 0.0
H1767 H 0.53883 0.93352 0.61568 0.0
H1768 H 0.52302 0.98461 0.57218 0.0
H1769 H 0.46638 0.94026 0.61722 0.0
C1770 C 0.43366 0.94599 0.60691 0.0
C1771 C 0.42499 0.95605 0.59406 0.0
C1772 C 0.5267 0.97359 0.58173 0.0
C1773 C 0.47924 0.96115 0.59441 0.0
C1774 C 0.55142 0.9711 0.58167 0.0
C1775 C 0.55605 0.95609 0.59374 0.0
C1776 C 0.50683 0.96123 0.59405 0.0
C1777 C 0.53602 0.94484 0.60597 0.0
C1778 C 0.4606 0.94863 0.60717 0.0
C1779 C 0.44462 0.96969 0.58178 0.0
N1780 N 0.51241 0.94758 0.60576 0.0
N1781 N 0.47083 0.97156 0.58216 0.0
H1782 H 0.06888 0.6138 0.58108 0.0
H1783 H 0.162 0.5359 0.58621 0.0
H1784 H 0.16029 0.65593 0.5883 0.0
H1785 H 0.06982 0.48825 0.58271 0.0
H1786 H 0.161 0.58013 0.58365 0.0
H1787 H 0.06799 0.56782 0.57861 0.0
C1788 C 0.08873 0.61345 0.58201 0.0
C1789 C 0.11465 0.63873 0.58511 0.0
C1790 C 0.14089 0.56009 0.58339 0.0
C1791 C 0.11378 0.5865 0.58223 0.0
C1792 C 0.14146 0.53473 0.58488 0.0
C1793 C 0.11592 0.5083 0.58492 0.0
C1794 C 0.11456 0.55933 0.58208 0.0
C1795 C 0.09001 0.5082 0.58282 0.0
C1796 C 0.08819 0.58723 0.58063 0.0
C1797 C 0.13972 0.63703 0.58617 0.0
N1798 N 0.08994 0.53342 0.58166 0.0
N1799 N 0.13861 0.61146 0.58479 0.0
loop_
_geom_bond_atom_site_label_1
_geom_bond_atom_site_label_2
_geom_bond_distance
_geom_bond_site_symmetry_2
_ccdc_geom_bond_type
Co0 O1 2.216 . S
Co0 O2 2.091 . S
Co0 O4 2.004 . S
Co0 O10 2.021 1_455 S
Co0 O12 2.137 . S
Co0 O13 2.244 . S
O1 Co0 2.216 . S
O1 C8 1.247 . S
O2 Co0 2.091 . S
O2 C8 1.261 . S
C3 O12 1.247 . S
C3 O13 1.272 . S
O4 Co0 2.004 . S
O4 C9 1.259 . S
Co5 O6 2.061 . S
Co5 O11 2.052 1_455 S
Co5 O13 2.135 . S
O6 Co5 2.061 . S
O6 C9 1.235 . S
C7 O10 1.238 . S
C7 O11 1.241 . S
C8 O1 1.247 . S
C8 O2 1.261 . S
C9 O4 1.259 . S
C9 O6 1.235 . S
O10 Co0 2.021 1_655 S
O10 C7 1.238 . S
O11 Co5 2.052 1_655 S
O11 C7 1.241 . S
O12 Co0 2.137 . S
O12 C3 1.247 . S
O13 Co0 2.244 . S
O13 C3 1.272 . S
O13 Co5 2.135 . S
Co14 O15 2.216 . S
Co14 O16 2.091 . S
Co14 O18 2.004 . S
Co14 O24 2.021 . S
Co14 O26 2.137 . S
Co14 O27 2.244 . S
O15 Co14 2.216 . S
O15 C22 1.247 . S
O16 Co14 2.091 . S
O16 C22 1.261 . S
C17 O26 1.247 . S
C17 O27 1.272 . S
O18 Co14 2.004 . S
O18 C23 1.259 . S
Co19 O20 2.061 . S
Co19 O25 2.052 . S
Co19 O27 2.135 . S
O20 Co19 2.061 . S
O20 C23 1.235 . S
C21 O24 1.238 . S
C21 O25 1.241 . S
C22 O15 1.247 . S
C22 O16 1.261 . S
C23 O18 1.259 . S
C23 O20 1.235 . S
O24 Co14 2.021 . S
O24 C21 1.238 . S
O25 Co19 2.052 . S
O25 C21 1.241 . S
O26 Co14 2.137 . S
O26 C17 1.247 . S
O27 Co14 2.244 . S
O27 C17 1.272 . S
O27 Co19 2.135 . S
Co28 O29 2.216 . S
Co28 O30 2.091 . S
Co28 O32 2.004 . S
Co28 O38 2.021 . S
Co28 O40 2.137 1_545 S
Co28 O41 2.244 . S
O29 Co28 2.216 . S
O29 C36 1.247 . S
O30 Co28 2.091 . S
O30 C36 1.261 . S
C31 O40 1.247 . S
C31 O41 1.272 1_565 S
O32 Co28 2.004 . S
O32 C37 1.259 . S
Co33 O34 2.061 . S
Co33 O39 2.052 . S
Co33 O41 2.135 . S
O34 Co33 2.061 . S
O34 C37 1.235 . S
C35 O38 1.238 . S
C35 O39 1.241 . S
C36 O29 1.247 . S
C36 O30 1.261 . S
C37 O32 1.259 . S
C37 O34 1.235 . S
O38 Co28 2.021 . S
O38 C35 1.238 . S
O39 Co33 2.052 . S
O39 C35 1.241 . S
O40 Co28 2.137 1_565 S
O40 C31 1.247 . S
O41 Co28 2.244 . S
O41 C31 1.272 1_545 S
O41 Co33 2.135 . S
Co42 O43 2.216 . S
Co42 O44 2.091 . S
Co42 O46 2.004 . S
Co42 O52 2.021 1_545 S
Co42 O54 2.137 . S
Co42 O55 2.244 . S
O43 Co42 2.216 . S
O43 C50 1.247 . S
O44 Co42 2.091 . S
O44 C50 1.261 . S
C45 O54 1.247 . S
C45 O55 1.272 . S
O46 Co42 2.004 . S
O46 C51 1.259 . S
Co47 O48 2.061 . S
Co47 O53 2.052 1_545 S
Co47 O55 2.135 . S
O48 Co47 2.061 . S
O48 C51 1.235 . S
C49 O52 1.238 . S
C49 O53 1.241 . S
C50 O43 1.247 . S
C50 O44 1.261 . S
C51 O46 1.259 . S
C51 O48 1.235 . S
O52 Co42 2.021 1_565 S
O52 C49 1.238 . S
O53 Co47 2.052 1_565 S
O53 C49 1.241 . S
O54 Co42 2.137 . S
O54 C45 1.247 . S
O55 Co42 2.244 . S
O55 C45 1.272 . S
O55 Co47 2.135 . S
Co56 O57 2.216 . S
Co56 O58 2.091 . S
Co56 O60 2.004 . S
Co56 O66 2.021 . S
Co56 O68 2.137 1_455 S
Co56 O69 2.244 . S
O57 Co56 2.216 . S
O57 C64 1.247 . S
O58 Co56 2.091 . S
O58 C64 1.261 . S
C59 O68 1.247 . S
C59 O69 1.272 1_655 S
O60 Co56 2.004 . S
O60 C65 1.259 . S
Co61 O62 2.061 . S
Co61 O67 2.052 . S
Co61 O69 2.135 . S
O62 Co61 2.061 . S
O62 C65 1.235 . S
C63 O66 1.238 . S
C63 O67 1.241 . S
C64 O57 1.247 . S
C64 O58 1.261 . S
C65 O60 1.259 . S
C65 O62 1.235 . S
O66 Co56 2.021 . S
O66 C63 1.238 . S
O67 Co61 2.052 . S
O67 C63 1.241 . S
O68 Co56 2.137 1_655 S
O68 C59 1.247 . S
O69 Co56 2.244 . S
O69 C59 1.272 1_455 S
O69 Co61 2.135 . S
Co70 O71 2.216 . S
Co70 O72 2.091 . S
Co70 O74 2.004 . S
Co70 O80 2.021 . S
Co70 O82 2.137 . S
Co70 O83 2.244 . S
O71 Co70 2.216 . S
O71 C78 1.247 . S
O72 Co70 2.091 . S
O72 C78 1.261 . S
C73 O82 1.247 . S
C73 O83 1.272 . S
O74 Co70 2.004 . S
O74 C79 1.259 . S
Co75 O76 2.061 . S
Co75 O81 2.052 . S
Co75 O83 2.135 . S
O76 Co75 2.061 . S
O76 C79 1.235 . S
C77 O80 1.238 . S
C77 O81 1.241 . S
C78 O71 1.247 . S
C78 O72 1.261 . S
C79 O74 1.259 . S
C79 O76 1.235 . S
O80 Co70 2.021 . S
O80 C77 1.238 . S
O81 Co75 2.052 . S
O81 C77 1.241 . S
O82 Co70 2.137 . S
O82 C73 1.247 . S
O83 Co70 2.244 . S
O83 C73 1.272 . S
O83 Co75 2.135 . S
Co84 O85 2.216 . S
Co84 O86 2.091 . S
Co84 O88 2.004 . S
Co84 O94 2.021 . S
Co84 O96 2.137 1_455 S
Co84 O97 2.244 . S
O85 Co84 2.216 . S
O85 C92 1.247 . S
O86 Co84 2.091 . S
O86 C92 1.261 . S
C87 O96 1.247 . S
C87 O97 1.272 1_655 S
O88 Co84 2.004 . S
O88 C93 1.259 . S
Co89 O90 2.061 . S
Co89 O95 2.052 . S
Co89 O97 2.135 . S
O90 Co89 2.061 . S
O90 C93 1.235 . S
C91 O94 1.238 . S
C91 O95 1.241 . S
C92 O85 1.247 . S
C92 O86 1.261 . S
C93 O88 1.259 . S
C93 O90 1.235 . S
O94 Co84 2.021 . S
O94 C91 1.238 . S
O95 Co89 2.052 . S
O95 C91 1.241 . S
O96 Co84 2.137 1_655 S
O96 C87 1.247 . S
O97 Co84 2.244 . S
O97 C87 1.272 1_455 S
O97 Co89 2.135 . S
Co98 O99 2.216 . S
Co98 O100 2.091 . S
Co98 O102 2.004 . S
Co98 O108 2.021 . S
Co98 O110 2.137 . S
Co98 O111 2.244 . S
O99 Co98 2.216 . S
O99 C106 1.247 . S
O100 Co98 2.091 . S
O100 C106 1.261 . S
C101 O110 1.247 . S
C101 O111 1.272 . S
O102 Co98 2.004 . S
O102 C107 1.259 . S
Co103 O104 2.061 . S
Co103 O109 2.052 . S
Co103 O111 2.135 . S
O104 Co103 2.061 . S
O104 C107 1.235 . S
C105 O108 1.238 . S
C105 O109 1.241 . S
C106 O99 1.247 . S
C106 O100 1.261 . S
C107 O102 1.259 . S
C107 O104 1.235 . S
O108 Co98 2.021 . S
O108 C105 1.238 . S
O109 Co103 2.052 . S
O109 C105 1.241 . S
O110 Co98 2.137 . S
O110 C101 1.247 . S
O111 Co98 2.244 . S
O111 C101 1.272 . S
O111 Co103 2.135 . S
Co112 O113 2.216 . S
Co112 O114 2.091 . S
Co112 O116 2.004 . S
Co112 O122 2.021 1_545 S
Co112 O124 2.137 . S
Co112 O125 2.244 . S
O113 Co112 2.216 . S
O113 C120 1.247 . S
O114 Co112 2.091 . S
O114 C120 1.261 . S
C115 O124 1.247 . S
C115 O125 1.272 . S
O116 Co112 2.004 . S
O116 C121 1.259 . S
Co117 O118 2.061 . S
Co117 O123 2.052 1_545 S
Co117 O125 2.135 . S
O118 Co117 2.061 . S
O118 C121 1.235 . S
C119 O122 1.238 . S
C119 O123 1.241 . S
C120 O113 1.247 . S
C120 O114 1.261 . S
C121 O116 1.259 . S
C121 O118 1.235 . S
O122 Co112 2.021 1_565 S
O122 C119 1.238 . S
O123 Co117 2.052 1_565 S
O123 C119 1.241 . S
O124 Co112 2.137 . S
O124 C115 1.247 . S
O125 Co112 2.244 . S
O125 C115 1.272 . S
O125 Co117 2.135 . S
Co126 O127 2.216 . S
Co126 O128 2.091 . S
Co126 O130 2.004 . S
Co126 O136 2.021 . S
Co126 O138 2.137 1_545 S
Co126 O139 2.244 . S
O127 Co126 2.216 . S
O127 C134 1.247 . S
O128 Co126 2.091 . S
O128 C134 1.261 . S
C129 O138 1.247 . S
C129 O139 1.272 1_565 S
O130 Co126 2.004 . S
O130 C135 1.259 . S
Co131 O132 2.061 . S
Co131 O137 2.052 . S
Co131 O139 2.135 . S
O132 Co131 2.061 . S
O132 C135 1.235 . S
C133 O136 1.238 . S
C133 O137 1.241 . S
C134 O127 1.247 . S
C134 O128 1.261 . S
C135 O130 1.259 . S
C135 O132 1.235 . S
O136 Co126 2.021 . S
O136 C133 1.238 . S
O137 Co131 2.052 . S
O137 C133 1.241 . S
O138 Co126 2.137 1_565 S
O138 C129 1.247 . S
O139 Co126 2.244 . S
O139 C129 1.272 1_545 S
O139 Co131 2.135 . S
Co140 O141 2.216 . S
Co140 O142 2.091 . S
Co140 O144 2.004 . S
Co140 O150 2.021 1_455 S
Co140 O152 2.137 . S
Co140 O153 2.244 . S
O141 Co140 2.216 . S
O141 C148 1.247 . S
O142 Co140 2.091 . S
O142 C148 1.261 . S
C143 O152 1.247 . S
C143 O153 1.272 . S
O144 Co140 2.004 . S
O144 C149 1.259 . S
Co145 O146 2.061 . S
Co145 O151 2.052 1_455 S
Co145 O153 2.135 . S
O146 Co145 2.061 . S
O146 C149 1.235 . S
C147 O150 1.238 . S
C147 O151 1.241 . S
C148 O141 1.247 . S
C148 O142 1.261 . S
C149 O144 1.259 . S
C149 O146 1.235 . S
O150 Co140 2.021 1_655 S
O150 C147 1.238 . S
O151 Co145 2.052 1_655 S
O151 C147 1.241 . S
O152 Co140 2.137 . S
O152 C143 1.247 . S
O153 Co140 2.244 . S
O153 C143 1.272 . S
O153 Co145 2.135 . S
Co154 O155 2.216 . S
Co154 O156 2.091 . S
Co154 O158 2.004 . S
Co154 O164 2.021 . S
Co154 O166 2.137 . S
Co154 O167 2.244 . S
O155 Co154 2.216 . S
O155 C162 1.247 . S
O156 Co154 2.091 . S
O156 C162 1.261 . S
C157 O166 1.247 . S
C157 O167 1.272 . S
O158 Co154 2.004 . S
O158 C163 1.259 . S
Co159 O160 2.061 . S
Co159 O165 2.052 . S
Co159 O167 2.135 . S
O160 Co159 2.061 . S
O160 C163 1.235 . S
C161 O164 1.238 . S
C161 O165 1.241 . S
C162 O155 1.247 . S
C162 O156 1.261 . S
C163 O158 1.259 . S
C163 O160 1.235 . S
O164 Co154 2.021 . S
O164 C161 1.238 . S
O165 Co159 2.052 . S
O165 C161 1.241 . S
O166 Co154 2.137 . S
O166 C157 1.247 . S
O167 Co154 2.244 . S
O167 C157 1.272 . S
O167 Co159 2.135 . S
Co168 O169 2.216 . S
Co168 O170 2.091 . S
Co168 O172 2.004 . S
Co168 O178 2.021 . S
Co168 O180 2.137 . S
Co168 O181 2.244 . S
O169 Co168 2.216 . S
O169 C176 1.247 . S
O170 Co168 2.091 . S
O170 C176 1.261 . S
C171 O180 1.247 . S
C171 O181 1.272 . S
O172 Co168 2.004 . S
O172 C177 1.259 . S
Co173 O174 2.061 . S
Co173 O179 2.052 . S
Co173 O181 2.135 . S
O174 Co173 2.061 . S
O174 C177 1.235 . S
C175 O178 1.238 . S
C175 O179 1.241 . S
C176 O169 1.247 . S
C176 O170 1.261 . S
C177 O172 1.259 . S
C177 O174 1.235 . S
O178 Co168 2.021 . S
O178 C175 1.238 . S
O179 Co173 2.052 . S
O179 C175 1.241 . S
O180 Co168 2.137 . S
O180 C171 1.247 . S
O181 Co168 2.244 . S
O181 C171 1.272 . S
O181 Co173 2.135 . S
Co182 O183 2.216 . S
Co182 O184 2.091 . S
Co182 O186 2.004 . S
Co182 O192 2.021 . S
Co182 O194 2.137 . S
Co182 O195 2.244 . S
O183 Co182 2.216 . S
O183 C190 1.247 . S
O184 Co182 2.091 . S
O184 C190 1.261 . S
C185 O194 1.247 . S
C185 O195 1.272 . S
O186 Co182 2.004 . S
O186 C191 1.259 . S
Co187 O188 2.061 . S
Co187 O193 2.052 . S
Co187 O195 2.135 . S
O188 Co187 2.061 . S
O188 C191 1.235 . S
C189 O192 1.238 . S
C189 O193 1.241 . S
C190 O183 1.247 . S
C190 O184 1.261 . S
C191 O186 1.259 . S
C191 O188 1.235 . S
O192 Co182 2.021 . S
O192 C189 1.238 . S
O193 Co187 2.052 . S
O193 C189 1.241 . S
O194 Co182 2.137 . S
O194 C185 1.247 . S
O195 Co182 2.244 . S
O195 C185 1.272 . S
O195 Co187 2.135 . S
Co196 O197 2.216 . S
Co196 O198 2.091 1_655 S
Co196 O200 2.004 . S
Co196 O206 2.021 . S
Co196 O208 2.137 . S
Co196 O209 2.244 . S
O197 Co196 2.216 . S
O197 C204 1.247 1_655 S
O198 Co196 2.091 1_455 S
O198 C204 1.261 . S
C199 O208 1.247 . S
C199 O209 1.272 . S
O200 Co196 2.004 . S
O200 C205 1.259 . S
Co201 O202 2.061 . S
Co201 O207 2.052 . S
Co201 O209 2.135 . S
O202 Co201 2.061 . S
O202 C205 1.235 . S
C203 O206 1.238 . S
C203 O207 1.241 . S
C204 O197 1.247 1_455 S
C204 O198 1.261 . S
C205 O200 1.259 . S
C205 O202 1.235 . S
O206 Co196 2.021 . S
O206 C203 1.238 . S
O207 Co201 2.052 . S
O207 C203 1.241 . S
O208 Co196 2.137 . S
O208 C199 1.247 . S
O209 Co196 2.244 . S
O209 C199 1.272 . S
O209 Co201 2.135 . S
Co210 O211 2.216 . S
Co210 O212 2.091 1_655 S
Co210 O214 2.004 1_655 S
Co210 O220 2.021 . S
Co210 O222 2.137 1_655 S
Co210 O223 2.244 . S
O211 Co210 2.216 . S
O211 C218 1.247 1_655 S
O212 Co210 2.091 1_455 S
O212 C218 1.261 . S
C213 O222 1.247 1_655 S
C213 O223 1.272 . S
O214 Co210 2.004 1_455 S
O214 C219 1.259 1_455 S
Co215 O216 2.061 . S
Co215 O221 2.052 . S
Co215 O223 2.135 . S
O216 Co215 2.061 . S
O216 C219 1.235 . S
C217 O220 1.238 . S
C217 O221 1.241 . S
C218 O211 1.247 1_455 S
C218 O212 1.261 . S
C219 O214 1.259 1_655 S
C219 O216 1.235 . S
O220 Co210 2.021 . S
O220 C217 1.238 . S
O221 Co215 2.052 . S
O221 C217 1.241 . S
O222 Co210 2.137 1_455 S
O222 C213 1.247 1_455 S
O223 Co210 2.244 . S
O223 C213 1.272 . S
O223 Co215 2.135 . S
Co224 O225 2.216 . S
Co224 O226 2.091 . S
Co224 O228 2.004 . S
Co224 O234 2.021 . S
Co224 O236 2.137 . S
Co224 O237 2.244 . S
O225 Co224 2.216 . S
O225 C232 1.247 . S
O226 Co224 2.091 . S
O226 C232 1.261 . S
C227 O236 1.247 . S
C227 O237 1.272 . S
O228 Co224 2.004 . S
O228 C233 1.259 . S
Co229 O230 2.061 . S
Co229 O235 2.052 . S
Co229 O237 2.135 . S
O230 Co229 2.061 . S
O230 C233 1.235 . S
C231 O234 1.238 . S
C231 O235 1.241 . S
C232 O225 1.247 . S
C232 O226 1.261 . S
C233 O228 1.259 . S
C233 O230 1.235 . S
O234 Co224 2.021 . S
O234 C231 1.238 . S
O235 Co229 2.052 . S
O235 C231 1.241 . S
O236 Co224 2.137 . S
O236 C227 1.247 . S
O237 Co224 2.244 . S
O237 C227 1.272 . S
O237 Co229 2.135 . S
Co238 O239 2.216 . S
Co238 O240 2.091 . S
Co238 O242 2.004 . S
Co238 O248 2.021 . S
Co238 O250 2.137 . S
Co238 O251 2.244 . S
O239 Co238 2.216 . S
O239 C246 1.247 . S
O240 Co238 2.091 . S
O240 C246 1.261 . S
C241 O250 1.247 . S
C241 O251 1.272 . S
O242 Co238 2.004 . S
O242 C247 1.259 . S
Co243 O244 2.061 . S
Co243 O249 2.052 . S
Co243 O251 2.135 . S
O244 Co243 2.061 . S
O244 C247 1.235 . S
C245 O248 1.238 . S
C245 O249 1.241 . S
C246 O239 1.247 . S
C246 O240 1.261 . S
C247 O242 1.259 . S
C247 O244 1.235 . S
O248 Co238 2.021 . S
O248 C245 1.238 . S
O249 Co243 2.052 . S
O249 C245 1.241 . S
O250 Co238 2.137 . S
O250 C241 1.247 . S
O251 Co238 2.244 . S
O251 C241 1.272 . S
O251 Co243 2.135 . S
Co252 O253 2.216 . S
Co252 O254 2.091 . S
Co252 O256 2.004 . S
Co252 O262 2.021 . S
Co252 O264 2.137 . S
Co252 O265 2.244 . S
O253 Co252 2.216 . S
O253 C260 1.247 . S
O254 Co252 2.091 . S
O254 C260 1.261 . S
C255 O264 1.247 . S
C255 O265 1.272 . S
O256 Co252 2.004 . S
O256 C261 1.259 . S
Co257 O258 2.061 . S
Co257 O263 2.052 . S
Co257 O265 2.135 . S
O258 Co257 2.061 . S
O258 C261 1.235 . S
C259 O262 1.238 . S
C259 O263 1.241 . S
C260 O253 1.247 . S
C260 O254 1.261 . S
C261 O256 1.259 . S
C261 O258 1.235 . S
O262 Co252 2.021 . S
O262 C259 1.238 . S
O263 Co257 2.052 . S
O263 C259 1.241 . S
O264 Co252 2.137 . S
O264 C255 1.247 . S
O265 Co252 2.244 . S
O265 C255 1.272 . S
O265 Co257 2.135 . S
Co266 O267 2.216 . S
Co266 O268 2.091 1_655 S
Co266 O270 2.004 1_655 S
Co266 O276 2.021 . S
Co266 O278 2.137 1_655 S
Co266 O279 2.244 . S
O267 Co266 2.216 . S
O267 C274 1.247 1_655 S
O268 Co266 2.091 1_455 S
O268 C274 1.261 . S
C269 O278 1.247 1_655 S
C269 O279 1.272 . S
O270 Co266 2.004 1_455 S
O270 C275 1.259 1_455 S
Co271 O272 2.061 . S
Co271 O277 2.052 . S
Co271 O279 2.135 . S
O272 Co271 2.061 . S
O272 C275 1.235 . S
C273 O276 1.238 . S
C273 O277 1.241 . S
C274 O267 1.247 1_455 S
C274 O268 1.261 . S
C275 O270 1.259 1_655 S
C275 O272 1.235 . S
O276 Co266 2.021 . S
O276 C273 1.238 . S
O277 Co271 2.052 . S
O277 C273 1.241 . S
O278 Co266 2.137 1_455 S
O278 C269 1.247 1_455 S
O279 Co266 2.244 . S
O279 C269 1.272 . S
O279 Co271 2.135 . S
Co280 O281 2.216 . S
Co280 O282 2.091 . S
Co280 O284 2.004 . S
Co280 O290 2.021 . S
Co280 O292 2.137 . S
Co280 O293 2.244 . S
O281 Co280 2.216 . S
O281 C288 1.247 . S
O282 Co280 2.091 . S
O282 C288 1.261 . S
C283 O292 1.247 . S
C283 O293 1.272 . S
O284 Co280 2.004 . S
O284 C289 1.259 . S
Co285 O286 2.061 . S
Co285 O291 2.052 . S
Co285 O293 2.135 . S
O286 Co285 2.061 . S
O286 C289 1.235 . S
C287 O290 1.238 . S
C287 O291 1.241 . S
C288 O281 1.247 . S
C288 O282 1.261 . S
C289 O284 1.259 . S
C289 O286 1.235 . S
O290 Co280 2.021 . S
O290 C287 1.238 . S
O291 Co285 2.052 . S
O291 C287 1.241 . S
O292 Co280 2.137 . S
O292 C283 1.247 . S
O293 Co280 2.244 . S
O293 C283 1.272 . S
O293 Co285 2.135 . S
Co294 O295 2.216 . S
Co294 O296 2.091 . S
Co294 O298 2.004 . S
Co294 O304 2.021 . S
Co294 O306 2.137 . S
Co294 O307 2.244 . S
O295 Co294 2.216 . S
O295 C302 1.247 . S
O296 Co294 2.091 . S
O296 C302 1.261 . S
C297 O306 1.247 . S
C297 O307 1.272 . S
O298 Co294 2.004 . S
O298 C303 1.259 . S
Co299 O300 2.061 . S
Co299 O305 2.052 . S
Co299 O307 2.135 . S
O300 Co299 2.061 . S
O300 C303 1.235 . S
C301 O304 1.238 . S
C301 O305 1.241 . S
C302 O295 1.247 . S
C302 O296 1.261 . S
C303 O298 1.259 . S
C303 O300 1.235 . S
O304 Co294 2.021 . S
O304 C301 1.238 . S
O305 Co299 2.052 . S
O305 C301 1.241 . S
O306 Co294 2.137 . S
O306 C297 1.247 . S
O307 Co294 2.244 . S
O307 C297 1.272 . S
O307 Co299 2.135 . S
Co308 O309 2.216 . S
Co308 O310 2.091 . S
Co308 O312 2.004 . S
Co308 O318 2.021 . S
Co308 O320 2.137 . S
Co308 O321 2.244 . S
O309 Co308 2.216 . S
O309 C316 1.247 . S
O310 Co308 2.091 . S
O310 C316 1.261 . S
C311 O320 1.247 . S
C311 O321 1.272 . S
O312 Co308 2.004 . S
O312 C317 1.259 . S
Co313 O314 2.061 . S
Co313 O319 2.052 . S
Co313 O321 2.135 . S
O314 Co313 2.061 . S
O314 C317 1.235 . S
C315 O318 1.238 . S
C315 O319 1.241 . S
C316 O309 1.247 . S
C316 O310 1.261 . S
C317 O312 1.259 . S
C317 O314 1.235 . S
O318 Co308 2.021 . S
O318 C315 1.238 . S
O319 Co313 2.052 . S
O319 C315 1.241 . S
O320 Co308 2.137 . S
O320 C311 1.247 . S
O321 Co308 2.244 . S
O321 C311 1.272 . S
O321 Co313 2.135 . S
Co322 O323 2.216 . S
Co322 O324 2.091 1_655 S
Co322 O326 2.004 . S
Co322 O332 2.021 . S
Co322 O334 2.137 . S
Co322 O335 2.244 . S
O323 Co322 2.216 . S
O323 C330 1.247 1_655 S
O324 Co322 2.091 1_455 S
O324 C330 1.261 . S
C325 O334 1.247 . S
C325 O335 1.272 . S
O326 Co322 2.004 . S
O326 C331 1.259 . S
Co327 O328 2.061 . S
Co327 O333 2.052 . S
Co327 O335 2.135 . S
O328 Co327 2.061 . S
O328 C331 1.235 . S
C329 O332 1.238 . S
C329 O333 1.241 . S
C330 O323 1.247 1_455 S
C330 O324 1.261 . S
C331 O326 1.259 . S
C331 O328 1.235 . S
O332 Co322 2.021 . S
O332 C329 1.238 . S
O333 Co327 2.052 . S
O333 C329 1.241 . S
O334 Co322 2.137 . S
O334 C325 1.247 . S
O335 Co322 2.244 . S
O335 C325 1.272 . S
O335 Co327 2.135 . S
Co336 O337 2.216 . S
Co336 O338 2.091 1_565 S
Co336 O340 2.004 1_565 S
Co336 O346 2.021 . S
Co336 O348 2.137 1_565 S
Co336 O349 2.244 . S
O337 Co336 2.216 . S
O337 C344 1.247 1_565 S
O338 Co336 2.091 1_545 S
O338 C344 1.261 . S
C339 O348 1.247 1_565 S
C339 O349 1.272 . S
O340 Co336 2.004 1_545 S
O340 C345 1.259 1_545 S
Co341 O342 2.061 . S
Co341 O347 2.052 . S
Co341 O349 2.135 . S
O342 Co341 2.061 . S
O342 C345 1.235 . S
C343 O346 1.238 . S
C343 O347 1.241 . S
C344 O337 1.247 1_545 S
C344 O338 1.261 . S
C345 O340 1.259 1_565 S
C345 O342 1.235 . S
O346 Co336 2.021 . S
O346 C343 1.238 . S
O347 Co341 2.052 . S
O347 C343 1.241 . S
O348 Co336 2.137 1_545 S
O348 C339 1.247 1_545 S
O349 Co336 2.244 . S
O349 C339 1.272 . S
O349 Co341 2.135 . S
Co350 O351 2.216 . S
Co350 O352 2.091 . S
Co350 O354 2.004 . S
Co350 O360 2.021 . S
Co350 O362 2.137 . S
Co350 O363 2.244 . S
O351 Co350 2.216 . S
O351 C358 1.247 . S
O352 Co350 2.091 . S
O352 C358 1.261 . S
C353 O362 1.247 . S
C353 O363 1.272 . S
O354 Co350 2.004 . S
O354 C359 1.259 . S
Co355 O356 2.061 . S
Co355 O361 2.052 . S
Co355 O363 2.135 . S
O356 Co355 2.061 . S
O356 C359 1.235 . S
C357 O360 1.238 . S
C357 O361 1.241 . S
C358 O351 1.247 . S
C358 O352 1.261 . S
C359 O354 1.259 . S
C359 O356 1.235 . S
O360 Co350 2.021 . S
O360 C357 1.238 . S
O361 Co355 2.052 . S
O361 C357 1.241 . S
O362 Co350 2.137 . S
O362 C353 1.247 . S
O363 Co350 2.244 . S
O363 C353 1.272 . S
O363 Co355 2.135 . S
Co364 O365 2.216 . S
Co364 O366 2.091 . S
Co364 O368 2.004 . S
Co364 O374 2.021 . S
Co364 O376 2.137 . S
Co364 O377 2.244 . S
O365 Co364 2.216 . S
O365 C372 1.247 . S
O366 Co364 2.091 . S
O366 C372 1.261 . S
C367 O376 1.247 . S
C367 O377 1.272 . S
O368 Co364 2.004 . S
O368 C373 1.259 . S
Co369 O370 2.061 . S
Co369 O375 2.052 . S
Co369 O377 2.135 . S
O370 Co369 2.061 . S
O370 C373 1.235 . S
C371 O374 1.238 . S
C371 O375 1.241 . S
C372 O365 1.247 . S
C372 O366 1.261 . S
C373 O368 1.259 . S
C373 O370 1.235 . S
O374 Co364 2.021 . S
O374 C371 1.238 . S
O375 Co369 2.052 . S
O375 C371 1.241 . S
O376 Co364 2.137 . S
O376 C367 1.247 . S
O377 Co364 2.244 . S
O377 C367 1.272 . S
O377 Co369 2.135 . S
Co378 O379 2.216 . S
Co378 O380 2.091 . S
Co378 O382 2.004 . S
Co378 O388 2.021 . S
Co378 O390 2.137 . S
Co378 O391 2.244 . S
O379 Co378 2.216 . S
O379 C386 1.247 . S
O380 Co378 2.091 . S
O380 C386 1.261 . S
C381 O390 1.247 . S
C381 O391 1.272 . S
O382 Co378 2.004 . S
O382 C387 1.259 . S
Co383 O384 2.061 . S
Co383 O389 2.052 . S
Co383 O391 2.135 . S
O384 Co383 2.061 . S
O384 C387 1.235 . S
C385 O388 1.238 . S
C385 O389 1.241 . S
C386 O379 1.247 . S
C386 O380 1.261 . S
C387 O382 1.259 . S
C387 O384 1.235 . S
O388 Co378 2.021 . S
O388 C385 1.238 . S
O389 Co383 2.052 . S
O389 C385 1.241 . S
O390 Co378 2.137 . S
O390 C381 1.247 . S
O391 Co378 2.244 . S
O391 C381 1.272 . S
O391 Co383 2.135 . S
Co392 O393 2.216 . S
Co392 O394 2.091 1_565 S
Co392 O396 2.004 . S
Co392 O402 2.021 . S
Co392 O404 2.137 . S
Co392 O405 2.244 . S
O393 Co392 2.216 . S
O393 C400 1.247 1_565 S
O394 Co392 2.091 1_545 S
O394 C400 1.261 . S
C395 O404 1.247 . S
C395 O405 1.272 . S
O396 Co392 2.004 . S
O396 C401 1.259 . S
Co397 O398 2.061 . S
Co397 O403 2.052 . S
Co397 O405 2.135 . S
O398 Co397 2.061 . S
O398 C401 1.235 . S
C399 O402 1.238 . S
C399 O403 1.241 . S
C400 O393 1.247 1_545 S
C400 O394 1.261 . S
C401 O396 1.259 . S
C401 O398 1.235 . S
O402 Co392 2.021 . S
O402 C399 1.238 . S
O403 Co397 2.052 . S
O403 C399 1.241 . S
O404 Co392 2.137 . S
O404 C395 1.247 . S
O405 Co392 2.244 . S
O405 C395 1.272 . S
O405 Co397 2.135 . S
Co406 O407 2.216 . S
Co406 O408 2.091 . S
Co406 O410 2.004 . S
Co406 O416 2.021 . S
Co406 O418 2.137 . S
Co406 O419 2.244 . S
O407 Co406 2.216 . S
O407 C414 1.247 . S
O408 Co406 2.091 . S
O408 C414 1.261 . S
C409 O418 1.247 . S
C409 O419 1.272 . S
O410 Co406 2.004 . S
O410 C415 1.259 . S
Co411 O412 2.061 . S
Co411 O417 2.052 . S
Co411 O419 2.135 . S
O412 Co411 2.061 . S
O412 C415 1.235 . S
C413 O416 1.238 . S
C413 O417 1.241 . S
C414 O407 1.247 . S
C414 O408 1.261 . S
C415 O410 1.259 . S
C415 O412 1.235 . S
O416 Co406 2.021 . S
O416 C413 1.238 . S
O417 Co411 2.052 . S
O417 C413 1.241 . S
O418 Co406 2.137 . S
O418 C409 1.247 . S
O419 Co406 2.244 . S
O419 C409 1.272 . S
O419 Co411 2.135 . S
Co420 O421 2.216 . S
Co420 O422 2.091 . S
Co420 O424 2.004 . S
Co420 O430 2.021 . S
Co420 O432 2.137 . S
Co420 O433 2.244 . S
O421 Co420 2.216 . S
O421 C428 1.247 . S
O422 Co420 2.091 . S
O422 C428 1.261 . S
C423 O432 1.247 . S
C423 O433 1.272 . S
O424 Co420 2.004 . S
O424 C429 1.259 . S
Co425 O426 2.061 . S
Co425 O431 2.052 . S
Co425 O433 2.135 . S
O426 Co425 2.061 . S
O426 C429 1.235 . S
C427 O430 1.238 . S
C427 O431 1.241 . S
C428 O421 1.247 . S
C428 O422 1.261 . S
C429 O424 1.259 . S
C429 O426 1.235 . S
O430 Co420 2.021 . S
O430 C427 1.238 . S
O431 Co425 2.052 . S
O431 C427 1.241 . S
O432 Co420 2.137 . S
O432 C423 1.247 . S
O433 Co420 2.244 . S
O433 C423 1.272 . S
O433 Co425 2.135 . S
Co434 O435 2.216 . S
Co434 O436 2.091 1_565 S
Co434 O438 2.004 . S
Co434 O444 2.021 . S
Co434 O446 2.137 . S
Co434 O447 2.244 . S
O435 Co434 2.216 . S
O435 C442 1.247 1_565 S
O436 Co434 2.091 1_545 S
O436 C442 1.261 . S
C437 O446 1.247 . S
C437 O447 1.272 . S
O438 Co434 2.004 . S
O438 C443 1.259 . S
Co439 O440 2.061 . S
Co439 O445 2.052 . S
Co439 O447 2.135 . S
O440 Co439 2.061 . S
O440 C443 1.235 . S
C441 O444 1.238 . S
C441 O445 1.241 . S
C442 O435 1.247 1_545 S
C442 O436 1.261 . S
C443 O438 1.259 . S
C443 O440 1.235 . S
O444 Co434 2.021 . S
O444 C441 1.238 . S
O445 Co439 2.052 . S
O445 C441 1.241 . S
O446 Co434 2.137 . S
O446 C437 1.247 . S
O447 Co434 2.244 . S
O447 C437 1.272 . S
O447 Co439 2.135 . S
Co448 O449 2.216 . S
Co448 O450 2.091 . S
Co448 O452 2.004 . S
Co448 O458 2.021 . S
Co448 O460 2.137 . S
Co448 O461 2.244 . S
O449 Co448 2.216 . S
O449 C456 1.247 . S
O450 Co448 2.091 . S
O450 C456 1.261 . S
C451 O460 1.247 . S
C451 O461 1.272 . S
O452 Co448 2.004 . S
O452 C457 1.259 . S
Co453 O454 2.061 . S
Co453 O459 2.052 . S
Co453 O461 2.135 . S
O454 Co453 2.061 . S
O454 C457 1.235 . S
C455 O458 1.238 . S
C455 O459 1.241 . S
C456 O449 1.247 . S
C456 O450 1.261 . S
C457 O452 1.259 . S
C457 O454 1.235 . S
O458 Co448 2.021 . S
O458 C455 1.238 . S
O459 Co453 2.052 . S
O459 C455 1.241 . S
O460 Co448 2.137 . S
O460 C451 1.247 . S
O461 Co448 2.244 . S
O461 C451 1.272 . S
O461 Co453 2.135 . S
Co462 O463 2.216 . S
Co462 O464 2.091 . S
Co462 O466 2.004 . S
Co462 O472 2.021 . S
Co462 O474 2.137 . S
Co462 O475 2.244 . S
O463 Co462 2.216 . S
O463 C470 1.247 . S
O464 Co462 2.091 . S
O464 C470 1.261 . S
C465 O474 1.247 . S
C465 O475 1.272 . S
O466 Co462 2.004 . S
O466 C471 1.259 . S
Co467 O468 2.061 . S
Co467 O473 2.052 . S
Co467 O475 2.135 . S
O468 Co467 2.061 . S
O468 C471 1.235 . S
C469 O472 1.238 . S
C469 O473 1.241 . S
C470 O463 1.247 . S
C470 O464 1.261 . S
C471 O466 1.259 . S
C471 O468 1.235 . S
O472 Co462 2.021 . S
O472 C469 1.238 . S
O473 Co467 2.052 . S
O473 C469 1.241 . S
O474 Co462 2.137 . S
O474 C465 1.247 . S
O475 Co462 2.244 . S
O475 C465 1.272 . S
O475 Co467 2.135 . S
Co476 O477 2.216 . S
Co476 O478 2.091 . S
Co476 O480 2.004 . S
Co476 O486 2.021 . S
Co476 O488 2.137 . S
Co476 O489 2.244 . S
O477 Co476 2.216 . S
O477 C484 1.247 . S
O478 Co476 2.091 . S
O478 C484 1.261 . S
C479 O488 1.247 . S
C479 O489 1.272 . S
O480 Co476 2.004 . S
O480 C485 1.259 . S
Co481 O482 2.061 . S
Co481 O487 2.052 . S
Co481 O489 2.135 . S
O482 Co481 2.061 . S
O482 C485 1.235 . S
C483 O486 1.238 . S
C483 O487 1.241 . S
C484 O477 1.247 . S
C484 O478 1.261 . S
C485 O480 1.259 . S
C485 O482 1.235 . S
O486 Co476 2.021 . S
O486 C483 1.238 . S
O487 Co481 2.052 . S
O487 C483 1.241 . S
O488 Co476 2.137 . S
O488 C479 1.247 . S
O489 Co476 2.244 . S
O489 C479 1.272 . S
O489 Co481 2.135 . S
Co490 O491 2.216 . S
Co490 O492 2.091 1_565 S
Co490 O494 2.004 1_565 S
Co490 O500 2.021 . S
Co490 O502 2.137 1_565 S
Co490 O503 2.244 . S
O491 Co490 2.216 . S
O491 C498 1.247 1_565 S
O492 Co490 2.091 1_545 S
O492 C498 1.261 . S
C493 O502 1.247 1_565 S
C493 O503 1.272 . S
O494 Co490 2.004 1_545 S
O494 C499 1.259 1_545 S
Co495 O496 2.061 . S
Co495 O501 2.052 . S
Co495 O503 2.135 . S
O496 Co495 2.061 . S
O496 C499 1.235 . S
C497 O500 1.238 . S
C497 O501 1.241 . S
C498 O491 1.247 1_545 S
C498 O492 1.261 . S
C499 O494 1.259 1_565 S
C499 O496 1.235 . S
O500 Co490 2.021 . S
O500 C497 1.238 . S
O501 Co495 2.052 . S
O501 C497 1.241 . S
O502 Co490 2.137 1_545 S
O502 C493 1.247 1_545 S
O503 Co490 2.244 . S
O503 C493 1.272 . S
O503 Co495 2.135 . S
H504 C510 0.930 . S
H505 C514 0.930 . S
H506 C519 0.929 . S
H507 C517 0.929 . S
H508 C512 0.929 . S
H509 C518 0.929 . S
C510 H504 0.930 . S
C510 C511 1.367 . S
C510 C518 1.378 . S
C511 C510 1.367 . S
C511 C519 1.433 . S
C512 H508 0.929 . S
C512 C514 1.378 . S
C512 C516 1.350 . S
C513 C516 1.463 . S
C513 C518 1.350 . S
C513 N521 1.427 . S
C514 H505 0.930 . S
C514 C512 1.378 . S
C514 C515 1.367 . S
C515 C514 1.367 . S
C515 C517 1.433 . S
C516 C512 1.350 . S
C516 C513 1.463 . S
C516 N520 1.427 . S
C517 H507 0.929 . S
C517 C515 1.433 . S
C517 N520 1.384 . S
C518 H509 0.929 . S
C518 C510 1.378 . S
C518 C513 1.350 . S
C519 H506 0.929 . S
C519 C511 1.433 . S
C519 N521 1.384 . S
N520 C516 1.427 . S
N520 C517 1.384 . S
N521 C513 1.427 . S
N521 C519 1.384 . S
H522 C528 0.930 . S
H523 C532 0.930 . S
H524 C537 0.929 . S
H525 C535 0.929 . S
H526 C530 0.929 . S
H527 C536 0.929 . S
C528 H522 0.930 . S
C528 C529 1.367 . S
C528 C536 1.378 . S
C529 C528 1.367 . S
C529 C537 1.433 . S
C530 H526 0.929 . S
C530 C532 1.378 . S
C530 C534 1.350 . S
C531 C534 1.463 . S
C531 C536 1.350 . S
C531 N539 1.427 . S
C532 H523 0.930 . S
C532 C530 1.378 . S
C532 C533 1.367 . S
C533 C532 1.367 . S
C533 C535 1.433 . S
C534 C530 1.350 . S
C534 C531 1.463 . S
C534 N538 1.427 . S
C535 H525 0.929 . S
C535 C533 1.433 . S
C535 N538 1.384 . S
C536 H527 0.929 . S
C536 C528 1.378 . S
C536 C531 1.350 . S
C537 H524 0.929 . S
C537 C529 1.433 . S
C537 N539 1.384 . S
N538 C534 1.427 . S
N538 C535 1.384 . S
N539 C531 1.427 . S
N539 C537 1.384 . S
H540 C546 0.930 . S
H541 C550 0.930 . S
H542 C555 0.929 . S
H543 C553 0.929 . S
H544 C548 0.929 . S
H545 C554 0.929 . S
C546 H540 0.930 . S
C546 C547 1.367 . S
C546 C554 1.378 . S
C547 C546 1.367 . S
C547 C555 1.433 . S
C548 H544 0.929 . S
C548 C550 1.378 . S
C548 C552 1.350 . S
C549 C552 1.463 . S
C549 C554 1.350 . S
C549 N557 1.427 . S
C550 H541 0.930 . S
C550 C548 1.378 . S
C550 C551 1.367 . S
C551 C550 1.367 . S
C551 C553 1.433 . S
C552 C548 1.350 . S
C552 C549 1.463 . S
C552 N556 1.427 . S
C553 H543 0.929 . S
C553 C551 1.433 . S
C553 N556 1.384 . S
C554 H545 0.929 . S
C554 C546 1.378 . S
C554 C549 1.350 . S
C555 H542 0.929 . S
C555 C547 1.433 . S
C555 N557 1.384 . S
N556 C552 1.427 . S
N556 C553 1.384 . S
N557 C549 1.427 . S
N557 C555 1.384 . S
H558 C564 0.930 . S
H559 C568 0.930 . S
H560 C573 0.929 . S
H561 C571 0.929 . S
H562 C566 0.929 . S
H563 C572 0.929 . S
C564 H558 0.930 . S
C564 C565 1.367 . S
C564 C572 1.378 . S
C565 C564 1.367 . S
C565 C573 1.433 . S
C566 H562 0.929 . S
C566 C568 1.378 . S
C566 C570 1.350 . S
C567 C570 1.463 . S
C567 C572 1.350 . S
C567 N575 1.427 . S
C568 H559 0.930 . S
C568 C566 1.378 . S
C568 C569 1.367 . S
C569 C568 1.367 . S
C569 C571 1.433 . S
C570 C566 1.350 . S
C570 C567 1.463 . S
C570 N574 1.427 . S
C571 H561 0.929 . S
C571 C569 1.433 . S
C571 N574 1.384 . S
C572 H563 0.929 . S
C572 C564 1.378 . S
C572 C567 1.350 . S
C573 H560 0.929 . S
C573 C565 1.433 . S
C573 N575 1.384 . S
N574 C570 1.427 . S
N574 C571 1.384 . S
N575 C567 1.427 . S
N575 C573 1.384 . S
H576 C582 0.930 . S
H577 C586 0.930 . S
H578 C591 0.929 . S
H579 C589 0.929 . S
H580 C584 0.929 . S
H581 C590 0.929 . S
C582 H576 0.930 . S
C582 C583 1.367 . S
C582 C590 1.378 . S
C583 C582 1.367 . S
C583 C591 1.433 . S
C584 H580 0.929 . S
C584 C586 1.378 . S
C584 C588 1.350 . S
C585 C588 1.463 . S
C585 C590 1.350 . S
C585 N593 1.427 . S
C586 H577 0.930 . S
C586 C584 1.378 . S
C586 C587 1.367 . S
C587 C586 1.367 . S
C587 C589 1.433 . S
C588 C584 1.350 . S
C588 C585 1.463 . S
C588 N592 1.427 . S
C589 H579 0.929 . S
C589 C587 1.433 . S
C589 N592 1.384 . S
C590 H581 0.929 . S
C590 C582 1.378 . S
C590 C585 1.350 . S
C591 H578 0.929 . S
C591 C583 1.433 . S
C591 N593 1.384 . S
N592 C588 1.427 . S
N592 C589 1.384 . S
N593 C585 1.427 . S
N593 C591 1.384 . S
H594 C600 0.930 . S
H595 C604 0.930 . S
H596 C609 0.929 . S
H597 C607 0.929 . S
H598 C602 0.929 . S
H599 C608 0.929 . S
C600 H594 0.930 . S
C600 C601 1.367 . S
C600 C608 1.378 . S
C601 C600 1.367 . S
C601 C609 1.433 . S
C602 H598 0.929 . S
C602 C604 1.378 . S
C602 C606 1.350 . S
C603 C606 1.463 . S
C603 C608 1.350 . S
C603 N611 1.427 . S
C604 H595 0.930 . S
C604 C602 1.378 . S
C604 C605 1.367 . S
C605 C604 1.367 . S
C605 C607 1.433 . S
C606 C602 1.350 . S
C606 C603 1.463 . S
C606 N610 1.427 . S
C607 H597 0.929 . S
C607 C605 1.433 . S
C607 N610 1.384 . S
C608 H599 0.929 . S
C608 C600 1.378 . S
C608 C603 1.350 . S
C609 H596 0.929 . S
C609 C601 1.433 . S
C609 N611 1.384 . S
N610 C606 1.427 . S
N610 C607 1.384 . S
N611 C603 1.427 . S
N611 C609 1.384 . S
H612 C618 0.930 . S
H613 C622 0.930 . S
H614 C627 0.929 . S
H615 C625 0.929 . S
H616 C620 0.929 . S
H617 C626 0.929 . S
C618 H612 0.930 . S
C618 C619 1.367 . S
C618 C626 1.378 . S
C619 C618 1.367 . S
C619 C627 1.433 . S
C620 H616 0.929 . S
C620 C622 1.378 . S
C620 C624 1.350 . S
C621 C624 1.463 . S
C621 C626 1.350 . S
C621 N629 1.427 . S
C622 H613 0.930 . S
C622 C620 1.378 . S
C622 C623 1.367 . S
C623 C622 1.367 . S
C623 C625 1.433 . S
C624 C620 1.350 . S
C624 C621 1.463 . S
C624 N628 1.427 . S
C625 H615 0.929 . S
C625 C623 1.433 . S
C625 N628 1.384 . S
C626 H617 0.929 . S
C626 C618 1.378 . S
C626 C621 1.350 . S
C627 H614 0.929 . S
C627 C619 1.433 . S
C627 N629 1.384 . S
N628 C624 1.427 . S
N628 C625 1.384 . S
N629 C621 1.427 . S
N629 C627 1.384 . S
H630 C636 0.930 . S
H631 C640 0.930 . S
H632 C645 0.929 . S
H633 C643 0.929 . S
H634 C638 0.929 . S
H635 C644 0.929 . S
C636 H630 0.930 . S
C636 C637 1.367 . S
C636 C644 1.378 . S
C637 C636 1.367 . S
C637 C645 1.433 . S
C638 H634 0.929 . S
C638 C640 1.378 . S
C638 C642 1.350 . S
C639 C642 1.463 . S
C639 C644 1.350 . S
C639 N647 1.427 . S
C640 H631 0.930 . S
C640 C638 1.378 . S
C640 C641 1.367 . S
C641 C640 1.367 . S
C641 C643 1.433 . S
C642 C638 1.350 . S
C642 C639 1.463 . S
C642 N646 1.427 . S
C643 H633 0.929 . S
C643 C641 1.433 . S
C643 N646 1.384 . S
C644 H635 0.929 . S
C644 C636 1.378 . S
C644 C639 1.350 . S
C645 H632 0.929 . S
C645 C637 1.433 . S
C645 N647 1.384 . S
N646 C642 1.427 . S
N646 C643 1.384 . S
N647 C639 1.427 . S
N647 C645 1.384 . S
H648 C654 0.930 . S
H649 C658 0.930 . S
H650 C663 0.929 . S
H651 C661 0.929 . S
H652 C656 0.929 . S
H653 C662 0.929 . S
C654 H648 0.930 . S
C654 C655 1.367 . S
C654 C662 1.378 . S
C655 C654 1.367 . S
C655 C663 1.433 . S
C656 H652 0.929 . S
C656 C658 1.378 . S
C656 C660 1.350 . S
C657 C660 1.463 . S
C657 C662 1.350 . S
C657 N665 1.427 . S
C658 H649 0.930 . S
C658 C656 1.378 . S
C658 C659 1.367 . S
C659 C658 1.367 . S
C659 C661 1.433 . S
C660 C656 1.350 . S
C660 C657 1.463 . S
C660 N664 1.427 . S
C661 H651 0.929 . S
C661 C659 1.433 . S
C661 N664 1.384 . S
C662 H653 0.929 . S
C662 C654 1.378 . S
C662 C657 1.350 . S
C663 H650 0.929 . S
C663 C655 1.433 . S
C663 N665 1.384 . S
N664 C660 1.427 . S
N664 C661 1.384 . S
N665 C657 1.427 . S
N665 C663 1.384 . S
H666 C672 0.930 . S
H667 C676 0.930 . S
H668 C681 0.929 . S
H669 C679 0.929 . S
H670 C674 0.929 . S
H671 C680 0.929 . S
C672 H666 0.930 . S
C672 C673 1.367 . S
C672 C680 1.378 . S
C673 C672 1.367 . S
C673 C681 1.433 1_655 S
C674 H670 0.929 . S
C674 C676 1.378 . S
C674 C678 1.350 1_455 S
C675 C678 1.463 . S
C675 C680 1.350 . S
C675 N683 1.427 1_655 S
C676 H667 0.930 . S
C676 C674 1.378 . S
C676 C677 1.367 1_455 S
C677 C676 1.367 1_655 S
C677 C679 1.433 . S
C678 C674 1.350 1_655 S
C678 C675 1.463 . S
C678 N682 1.427 . S
C679 H669 0.929 . S
C679 C677 1.433 . S
C679 N682 1.384 . S
C680 H671 0.929 . S
C680 C672 1.378 . S
C680 C675 1.350 . S
C681 H668 0.929 . S
C681 C673 1.433 1_455 S
C681 N683 1.384 . S
N682 C678 1.427 . S
N682 C679 1.384 . S
N683 C675 1.427 1_455 S
N683 C681 1.384 . S
H684 C690 0.930 . S
H685 C694 0.930 . S
H686 C699 0.929 . S
H687 C697 0.929 . S
H688 C692 0.929 . S
H689 C698 0.929 . S
C690 H684 0.930 . S
C690 C691 1.367 . S
C690 C698 1.378 . S
C691 C690 1.367 . S
C691 C699 1.433 . S
C692 H688 0.929 . S
C692 C694 1.378 . S
C692 C696 1.350 . S
C693 C696 1.463 . S
C693 C698 1.350 . S
C693 N701 1.427 . S
C694 H685 0.930 . S
C694 C692 1.378 . S
C694 C695 1.367 . S
C695 C694 1.367 . S
C695 C697 1.433 . S
C696 C692 1.350 . S
C696 C693 1.463 . S
C696 N700 1.427 . S
C697 H687 0.929 . S
C697 C695 1.433 . S
C697 N700 1.384 . S
C698 H689 0.929 . S
C698 C690 1.378 . S
C698 C693 1.350 . S
C699 H686 0.929 . S
C699 C691 1.433 . S
C699 N701 1.384 . S
N700 C696 1.427 . S
N700 C697 1.384 . S
N701 C693 1.427 . S
N701 C699 1.384 . S
H702 C708 0.930 . S
H703 C712 0.930 . S
H704 C717 0.929 . S
H705 C715 0.929 . S
H706 C710 0.929 . S
H707 C716 0.929 . S
C708 H702 0.930 . S
C708 C709 1.367 . S
C708 C716 1.378 . S
C709 C708 1.367 . S
C709 C717 1.433 . S
C710 H706 0.929 . S
C710 C712 1.378 . S
C710 C714 1.350 . S
C711 C714 1.463 . S
C711 C716 1.350 . S
C711 N719 1.427 . S
C712 H703 0.930 . S
C712 C710 1.378 . S
C712 C713 1.367 . S
C713 C712 1.367 . S
C713 C715 1.433 . S
C714 C710 1.350 . S
C714 C711 1.463 . S
C714 N718 1.427 . S
C715 H705 0.929 . S
C715 C713 1.433 . S
C715 N718 1.384 . S
C716 H707 0.929 . S
C716 C708 1.378 . S
C716 C711 1.350 . S
C717 H704 0.929 . S
C717 C709 1.433 . S
C717 N719 1.384 . S
N718 C714 1.427 . S
N718 C715 1.384 . S
N719 C711 1.427 . S
N719 C717 1.384 . S
H720 C726 0.930 . S
H721 C730 0.930 . S
H722 C735 0.929 . S
H723 C733 0.929 . S
H724 C728 0.929 . S
H725 C734 0.929 . S
C726 H720 0.930 . S
C726 C727 1.367 1_545 S
C726 C734 1.378 . S
C727 C726 1.367 1_565 S
C727 C735 1.433 . S
C728 H724 0.929 . S
C728 C730 1.378 . S
C728 C732 1.350 . S
C729 C732 1.463 . S
C729 C734 1.350 1_565 S
C729 N737 1.427 . S
C730 H721 0.930 . S
C730 C728 1.378 . S
C730 C731 1.367 . S
C731 C730 1.367 . S
C731 C733 1.433 1_565 S
C732 C728 1.350 . S
C732 C729 1.463 . S
C732 N736 1.427 1_565 S
C733 H723 0.929 . S
C733 C731 1.433 1_545 S
C733 N736 1.384 . S
C734 H725 0.929 . S
C734 C726 1.378 . S
C734 C729 1.350 1_545 S
C735 H722 0.929 . S
C735 C727 1.433 . S
C735 N737 1.384 . S
N736 C732 1.427 1_545 S
N736 C733 1.384 . S
N737 C729 1.427 . S
N737 C735 1.384 . S
H738 C744 0.930 . S
H739 C748 0.930 . S
H740 C753 0.929 . S
H741 C751 0.929 . S
H742 C746 0.929 . S
H743 C752 0.929 . S
C744 H738 0.930 . S
C744 C745 1.367 . S
C744 C752 1.378 . S
C745 C744 1.367 . S
C745 C753 1.433 . S
C746 H742 0.929 . S
C746 C748 1.378 . S
C746 C750 1.350 . S
C747 C750 1.463 . S
C747 C752 1.350 . S
C747 N755 1.427 . S
C748 H739 0.930 . S
C748 C746 1.378 . S
C748 C749 1.367 . S
C749 C748 1.367 . S
C749 C751 1.433 . S
C750 C746 1.350 . S
C750 C747 1.463 . S
C750 N754 1.427 . S
C751 H741 0.929 . S
C751 C749 1.433 . S
C751 N754 1.384 . S
C752 H743 0.929 . S
C752 C744 1.378 . S
C752 C747 1.350 . S
C753 H740 0.929 . S
C753 C745 1.433 . S
C753 N755 1.384 . S
N754 C750 1.427 . S
N754 C751 1.384 . S
N755 C747 1.427 . S
N755 C753 1.384 . S
H756 C762 0.930 . S
H757 C766 0.930 . S
H758 C771 0.929 . S
H759 C769 0.929 . S
H760 C764 0.929 . S
H761 C770 0.929 . S
C762 H756 0.930 . S
C762 C763 1.367 . S
C762 C770 1.378 . S
C763 C762 1.367 . S
C763 C771 1.433 . S
C764 H760 0.929 . S
C764 C766 1.378 . S
C764 C768 1.350 . S
C765 C768 1.463 . S
C765 C770 1.350 . S
C765 N773 1.427 . S
C766 H757 0.930 . S
C766 C764 1.378 . S
C766 C767 1.367 . S
C767 C766 1.367 . S
C767 C769 1.433 . S
C768 C764 1.350 . S
C768 C765 1.463 . S
C768 N772 1.427 . S
C769 H759 0.929 . S
C769 C767 1.433 . S
C769 N772 1.384 . S
C770 H761 0.929 . S
C770 C762 1.378 . S
C770 C765 1.350 . S
C771 H758 0.929 . S
C771 C763 1.433 . S
C771 N773 1.384 . S
N772 C768 1.427 . S
N772 C769 1.384 . S
N773 C765 1.427 . S
N773 C771 1.384 . S
H774 C780 0.930 . S
H775 C784 0.930 . S
H776 C789 0.929 . S
H777 C787 0.929 . S
H778 C782 0.929 . S
H779 C788 0.929 . S
C780 H774 0.930 . S
C780 C781 1.367 . S
C780 C788 1.378 . S
C781 C780 1.367 . S
C781 C789 1.433 . S
C782 H778 0.929 . S
C782 C784 1.378 . S
C782 C786 1.350 . S
C783 C786 1.463 . S
C783 C788 1.350 . S
C783 N791 1.427 . S
C784 H775 0.930 . S
C784 C782 1.378 . S
C784 C785 1.367 . S
C785 C784 1.367 . S
C785 C787 1.433 . S
C786 C782 1.350 . S
C786 C783 1.463 . S
C786 N790 1.427 . S
C787 H777 0.929 . S
C787 C785 1.433 . S
C787 N790 1.384 . S
C788 H779 0.929 . S
C788 C780 1.378 . S
C788 C783 1.350 . S
C789 H776 0.929 . S
C789 C781 1.433 . S
C789 N791 1.384 . S
N790 C786 1.427 . S
N790 C787 1.384 . S
N791 C783 1.427 . S
N791 C789 1.384 . S
H792 C798 0.930 . S
H793 C802 0.930 . S
H794 C807 0.929 . S
H795 C805 0.929 . S
H796 C800 0.929 . S
H797 C806 0.929 . S
C798 H792 0.930 . S
C798 C799 1.367 . S
C798 C806 1.378 . S
C799 C798 1.367 . S
C799 C807 1.433 . S
C800 H796 0.929 . S
C800 C802 1.378 . S
C800 C804 1.350 . S
C801 C804 1.463 . S
C801 C806 1.350 . S
C801 N809 1.427 . S
C802 H793 0.930 . S
C802 C800 1.378 . S
C802 C803 1.367 . S
C803 C802 1.367 . S
C803 C805 1.433 . S
C804 C800 1.350 . S
C804 C801 1.463 . S
C804 N808 1.427 . S
C805 H795 0.929 . S
C805 C803 1.433 . S
C805 N808 1.384 . S
C806 H797 0.929 . S
C806 C798 1.378 . S
C806 C801 1.350 . S
C807 H794 0.929 . S
C807 C799 1.433 . S
C807 N809 1.384 . S
N808 C804 1.427 . S
N808 C805 1.384 . S
N809 C801 1.427 . S
N809 C807 1.384 . S
H810 C816 0.930 . S
H811 C820 0.930 . S
H812 C825 0.929 . S
H813 C823 0.929 . S
H814 C818 0.929 . S
H815 C824 0.929 . S
C816 H810 0.930 . S
C816 C817 1.367 . S
C816 C824 1.378 . S
C817 C816 1.367 . S
C817 C825 1.433 . S
C818 H814 0.929 . S
C818 C820 1.378 . S
C818 C822 1.350 . S
C819 C822 1.463 . S
C819 C824 1.350 . S
C819 N827 1.427 . S
C820 H811 0.930 . S
C820 C818 1.378 . S
C820 C821 1.367 . S
C821 C820 1.367 . S
C821 C823 1.433 . S
C822 C818 1.350 . S
C822 C819 1.463 . S
C822 N826 1.427 . S
C823 H813 0.929 . S
C823 C821 1.433 . S
C823 N826 1.384 . S
C824 H815 0.929 . S
C824 C816 1.378 . S
C824 C819 1.350 . S
C825 H812 0.929 . S
C825 C817 1.433 . S
C825 N827 1.384 . S
N826 C822 1.427 . S
N826 C823 1.384 . S
N827 C819 1.427 . S
N827 C825 1.384 . S
H828 C834 0.930 . S
H829 C838 0.930 . S
H830 C843 0.929 . S
H831 C841 0.929 . S
H832 C836 0.929 . S
H833 C842 0.929 . S
C834 H828 0.930 . S
C834 C835 1.367 . S
C834 C842 1.378 . S
C835 C834 1.367 . S
C835 C843 1.433 . S
C836 H832 0.929 . S
C836 C838 1.378 . S
C836 C840 1.350 . S
C837 C840 1.463 . S
C837 C842 1.350 . S
C837 N845 1.427 . S
C838 H829 0.930 . S
C838 C836 1.378 . S
C838 C839 1.367 . S
C839 C838 1.367 . S
C839 C841 1.433 . S
C840 C836 1.350 . S
C840 C837 1.463 . S
C840 N844 1.427 . S
C841 H831 0.929 . S
C841 C839 1.433 . S
C841 N844 1.384 . S
C842 H833 0.929 . S
C842 C834 1.378 . S
C842 C837 1.350 . S
C843 H830 0.929 . S
C843 C835 1.433 . S
C843 N845 1.384 . S
N844 C840 1.427 . S
N844 C841 1.384 . S
N845 C837 1.427 . S
N845 C843 1.384 . S
H846 C852 0.930 . S
H847 C856 0.930 . S
H848 C861 0.929 . S
H849 C859 0.929 . S
H850 C854 0.929 . S
H851 C860 0.929 . S
C852 H846 0.930 . S
C852 C853 1.367 . S
C852 C860 1.378 . S
C853 C852 1.367 . S
C853 C861 1.433 . S
C854 H850 0.929 . S
C854 C856 1.378 . S
C854 C858 1.350 . S
C855 C858 1.463 . S
C855 C860 1.350 . S
C855 N863 1.427 . S
C856 H847 0.930 . S
C856 C854 1.378 . S
C856 C857 1.367 . S
C857 C856 1.367 . S
C857 C859 1.433 . S
C858 C854 1.350 . S
C858 C855 1.463 . S
C858 N862 1.427 . S
C859 H849 0.929 . S
C859 C857 1.433 . S
C859 N862 1.384 . S
C860 H851 0.929 . S
C860 C852 1.378 . S
C860 C855 1.350 . S
C861 H848 0.929 . S
C861 C853 1.433 . S
C861 N863 1.384 . S
N862 C858 1.427 . S
N862 C859 1.384 . S
N863 C855 1.427 . S
N863 C861 1.384 . S
H864 C870 0.930 1_565 S
H865 C874 0.930 . S
H866 C879 0.929 . S
H867 C877 0.929 . S
H868 C872 0.929 . S
H869 C878 0.929 . S
C870 H864 0.930 1_545 S
C870 C871 1.367 . S
C870 C878 1.378 . S
C871 C870 1.367 . S
C871 C879 1.433 . S
C872 H868 0.929 . S
C872 C874 1.378 . S
C872 C876 1.350 . S
C873 C876 1.463 . S
C873 C878 1.350 . S
C873 N881 1.427 . S
C874 H865 0.930 . S
C874 C872 1.378 . S
C874 C875 1.367 . S
C875 C874 1.367 . S
C875 C877 1.433 . S
C876 C872 1.350 . S
C876 C873 1.463 . S
C876 N880 1.427 . S
C877 H867 0.929 . S
C877 C875 1.433 . S
C877 N880 1.384 . S
C878 H869 0.929 . S
C878 C870 1.378 . S
C878 C873 1.350 . S
C879 H866 0.929 . S
C879 C871 1.433 . S
C879 N881 1.384 . S
N880 C876 1.427 . S
N880 C877 1.384 . S
N881 C873 1.427 . S
N881 C879 1.384 . S
H882 C888 0.930 . S
H883 C892 0.930 . S
H884 C897 0.929 . S
H885 C895 0.929 . S
H886 C890 0.929 . S
H887 C896 0.929 . S
C888 H882 0.930 . S
C888 C889 1.367 . S
C888 C896 1.378 . S
C889 C888 1.367 . S
C889 C897 1.433 1_545 S
C890 H886 0.929 . S
C890 C892 1.378 . S
C890 C894 1.350 1_565 S
C891 C894 1.463 . S
C891 C896 1.350 . S
C891 N899 1.427 1_545 S
C892 H883 0.930 . S
C892 C890 1.378 . S
C892 C893 1.367 1_565 S
C893 C892 1.367 1_545 S
C893 C895 1.433 . S
C894 C890 1.350 1_545 S
C894 C891 1.463 . S
C894 N898 1.427 . S
C895 H885 0.929 . S
C895 C893 1.433 . S
C895 N898 1.384 . S
C896 H887 0.929 . S
C896 C888 1.378 . S
C896 C891 1.350 . S
C897 H884 0.929 . S
C897 C889 1.433 1_565 S
C897 N899 1.384 . S
N898 C894 1.427 . S
N898 C895 1.384 . S
N899 C891 1.427 1_565 S
N899 C897 1.384 . S
H900 C906 0.930 . S
H901 C910 0.930 . S
H902 C915 0.929 . S
H903 C913 0.929 . S
H904 C908 0.929 . S
H905 C914 0.929 . S
C906 H900 0.930 . S
C906 C907 1.367 . S
C906 C914 1.378 . S
C907 C906 1.367 . S
C907 C915 1.433 . S
C908 H904 0.929 . S
C908 C910 1.378 . S
C908 C912 1.350 . S
C909 C912 1.463 . S
C909 C914 1.350 . S
C909 N917 1.427 . S
C910 H901 0.930 . S
C910 C908 1.378 . S
C910 C911 1.367 . S
C911 C910 1.367 . S
C911 C913 1.433 . S
C912 C908 1.350 . S
C912 C909 1.463 . S
C912 N916 1.427 . S
C913 H903 0.929 . S
C913 C911 1.433 . S
C913 N916 1.384 . S
C914 H905 0.929 . S
C914 C906 1.378 . S
C914 C909 1.350 . S
C915 H902 0.929 . S
C915 C907 1.433 . S
C915 N917 1.384 . S
N916 C912 1.427 . S
N916 C913 1.384 . S
N917 C909 1.427 . S
N917 C915 1.384 . S
H918 C924 0.930 . S
H919 C928 0.930 . S
H920 C933 0.929 . S
H921 C931 0.929 . S
H922 C926 0.929 . S
H923 C932 0.929 . S
C924 H918 0.930 . S
C924 C925 1.367 . S
C924 C932 1.378 . S
C925 C924 1.367 . S
C925 C933 1.433 . S
C926 H922 0.929 . S
C926 C928 1.378 . S
C926 C930 1.350 . S
C927 C930 1.463 . S
C927 C932 1.350 . S
C927 N935 1.427 . S
C928 H919 0.930 . S
C928 C926 1.378 . S
C928 C929 1.367 . S
C929 C928 1.367 . S
C929 C931 1.433 . S
C930 C926 1.350 . S
C930 C927 1.463 . S
C930 N934 1.427 . S
C931 H921 0.929 . S
C931 C929 1.433 . S
C931 N934 1.384 . S
C932 H923 0.929 . S
C932 C924 1.378 . S
C932 C927 1.350 . S
C933 H920 0.929 . S
C933 C925 1.433 . S
C933 N935 1.384 . S
N934 C930 1.427 . S
N934 C931 1.384 . S
N935 C927 1.427 . S
N935 C933 1.384 . S
H936 C942 0.930 . S
H937 C946 0.930 . S
H938 C951 0.929 1_655 S
H939 C949 0.929 . S
H940 C944 0.929 . S
H941 C950 0.929 . S
C942 H936 0.930 . S
C942 C943 1.367 . S
C942 C950 1.378 . S
C943 C942 1.367 . S
C943 C951 1.433 . S
C944 H940 0.929 . S
C944 C946 1.378 . S
C944 C948 1.350 . S
C945 C948 1.463 . S
C945 C950 1.350 . S
C945 N953 1.427 . S
C946 H937 0.930 . S
C946 C944 1.378 . S
C946 C947 1.367 . S
C947 C946 1.367 . S
C947 C949 1.433 . S
C948 C944 1.350 . S
C948 C945 1.463 . S
C948 N952 1.427 . S
C949 H939 0.929 . S
C949 C947 1.433 . S
C949 N952 1.384 . S
C950 H941 0.929 . S
C950 C942 1.378 . S
C950 C945 1.350 . S
C951 H938 0.929 1_455 S
C951 C943 1.433 . S
C951 N953 1.384 . S
N952 C948 1.427 . S
N952 C949 1.384 . S
N953 C945 1.427 . S
N953 C951 1.384 . S
H954 C960 0.930 . S
H955 C964 0.930 . S
H956 C969 0.929 . S
H957 C967 0.929 . S
H958 C962 0.929 . S
H959 C968 0.929 . S
C960 H954 0.930 . S
C960 C961 1.367 . S
C960 C968 1.378 . S
C961 C960 1.367 . S
C961 C969 1.433 . S
C962 H958 0.929 . S
C962 C964 1.378 . S
C962 C966 1.350 . S
C963 C966 1.463 . S
C963 C968 1.350 . S
C963 N971 1.427 . S
C964 H955 0.930 . S
C964 C962 1.378 . S
C964 C965 1.367 . S
C965 C964 1.367 . S
C965 C967 1.433 . S
C966 C962 1.350 . S
C966 C963 1.463 . S
C966 N970 1.427 . S
C967 H957 0.929 . S
C967 C965 1.433 . S
C967 N970 1.384 . S
C968 H959 0.929 . S
C968 C960 1.378 . S
C968 C963 1.350 . S
C969 H956 0.929 . S
C969 C961 1.433 . S
C969 N971 1.384 . S
N970 C966 1.427 . S
N970 C967 1.384 . S
N971 C963 1.427 . S
N971 C969 1.384 . S
H972 C978 0.930 . S
H973 C982 0.930 . S
H974 C987 0.929 1_565 S
H975 C985 0.929 . S
H976 C980 0.929 . S
H977 C986 0.929 . S
C978 H972 0.930 . S
C978 C979 1.367 . S
C978 C986 1.378 . S
C979 C978 1.367 . S
C979 C987 1.433 . S
C980 H976 0.929 . S
C980 C982 1.378 . S
C980 C984 1.350 1_565 S
C981 C984 1.463 . S
C981 C986 1.350 . S
C981 N989 1.435 . S
C982 H973 0.930 . S
C982 C980 1.378 . S
C982 C983 1.367 1_565 S
C983 C982 1.367 1_545 S
C983 C985 1.433 . S
C984 C980 1.350 1_545 S
C984 C981 1.463 . S
C984 N988 1.427 . S
C985 H975 0.929 . S
C985 C983 1.433 . S
C985 N988 1.384 . S
C986 H977 0.929 . S
C986 C978 1.378 . S
C986 C981 1.350 . S
C987 H974 0.929 1_545 S
C987 C979 1.433 . S
C987 N989 1.384 . S
N988 C984 1.427 . S
N988 C985 1.384 . S
N989 C981 1.435 . S
N989 C987 1.384 . S
H990 C996 0.930 . S
H991 C1000 0.930 . S
H992 C1005 0.929 . S
H993 C1003 0.929 . S
H994 C998 0.929 . S
H995 C1004 0.929 . S
C996 H990 0.930 . S
C996 C997 1.367 . S
C996 C1004 1.378 . S
C997 C996 1.367 . S
C997 C1005 1.433 . S
C998 H994 0.929 . S
C998 C1000 1.378 . S
C998 C1002 1.350 . S
C999 C1002 1.463 . S
C999 C1004 1.350 . S
C999 N1007 1.427 . S
C1000 H991 0.930 . S
C1000 C998 1.378 . S
C1000 C1001 1.367 . S
C1001 C1000 1.367 . S
C1001 C1003 1.433 . S
C1002 C998 1.350 . S
C1002 C999 1.463 . S
C1002 N1006 1.427 . S
C1003 H993 0.929 . S
C1003 C1001 1.433 . S
C1003 N1006 1.384 . S
C1004 H995 0.929 . S
C1004 C996 1.378 . S
C1004 C999 1.350 . S
C1005 H992 0.929 . S
C1005 C997 1.433 . S
C1005 N1007 1.384 . S
N1006 C1002 1.427 . S
N1006 C1003 1.384 . S
N1007 C999 1.427 . S
N1007 C1005 1.384 . S
H1008 C1014 0.930 1_655 S
H1009 C1018 0.930 . S
H1010 C1023 0.929 . S
H1011 C1021 0.929 . S
H1012 C1016 0.929 . S
H1013 C1022 0.929 1_655 S
C1014 H1008 0.930 1_455 S
C1014 C1015 1.367 . S
C1014 C1022 1.378 . S
C1015 C1014 1.367 . S
C1015 C1023 1.433 . S
C1016 H1012 0.929 . S
C1016 C1018 1.378 . S
C1016 C1020 1.350 . S
C1017 C1020 1.463 . S
C1017 C1022 1.350 . S
C1017 N1025 1.427 . S
C1018 H1009 0.930 . S
C1018 C1016 1.378 . S
C1018 C1019 1.367 . S
C1019 C1018 1.367 . S
C1019 C1021 1.433 1_455 S
C1020 C1016 1.350 . S
C1020 C1017 1.463 . S
C1020 N1024 1.427 1_455 S
C1021 H1011 0.929 . S
C1021 C1019 1.433 1_655 S
C1021 N1024 1.384 . S
C1022 H1013 0.929 1_455 S
C1022 C1014 1.378 . S
C1022 C1017 1.350 . S
C1023 H1010 0.929 . S
C1023 C1015 1.433 . S
C1023 N1025 1.384 . S
N1024 C1020 1.427 1_655 S
N1024 C1021 1.384 . S
N1025 C1017 1.427 . S
N1025 C1023 1.384 . S
H1026 C1032 0.930 . S
H1027 C1036 0.930 . S
H1028 C1041 0.929 . S
H1029 C1039 0.929 . S
H1030 C1034 0.929 . S
H1031 C1040 0.929 . S
C1032 H1026 0.930 . S
C1032 C1033 1.367 . S
C1032 C1040 1.378 . S
C1033 C1032 1.367 . S
C1033 C1041 1.433 . S
C1034 H1030 0.929 . S
C1034 C1036 1.378 . S
C1034 C1038 1.350 . S
C1035 C1038 1.463 . S
C1035 C1040 1.350 . S
C1035 N1043 1.427 . S
C1036 H1027 0.930 . S
C1036 C1034 1.378 . S
C1036 C1037 1.367 . S
C1037 C1036 1.367 . S
C1037 C1039 1.433 . S
C1038 C1034 1.350 . S
C1038 C1035 1.463 . S
C1038 N1042 1.427 . S
C1039 H1029 0.929 . S
C1039 C1037 1.433 . S
C1039 N1042 1.384 . S
C1040 H1031 0.929 . S
C1040 C1032 1.378 . S
C1040 C1035 1.350 . S
C1041 H1028 0.929 . S
C1041 C1033 1.433 . S
C1041 N1043 1.384 . S
N1042 C1038 1.427 . S
N1042 C1039 1.384 . S
N1043 C1035 1.427 . S
N1043 C1041 1.384 . S
H1044 C1050 0.930 . S
H1045 C1054 0.930 . S
H1046 C1059 0.929 . S
H1047 C1057 0.929 . S
H1048 C1052 0.929 . S
H1049 C1058 0.929 . S
C1050 H1044 0.930 . S
C1050 C1051 1.367 . S
C1050 C1058 1.378 . S
C1051 C1050 1.367 . S
C1051 C1059 1.433 . S
C1052 H1048 0.929 . S
C1052 C1054 1.378 . S
C1052 C1056 1.350 . S
C1053 C1056 1.463 . S
C1053 C1058 1.350 . S
C1053 N1061 1.427 . S
C1054 H1045 0.930 . S
C1054 C1052 1.378 . S
C1054 C1055 1.367 . S
C1055 C1054 1.367 . S
C1055 C1057 1.433 . S
C1056 C1052 1.350 . S
C1056 C1053 1.463 . S
C1056 N1060 1.427 . S
C1057 H1047 0.929 . S
C1057 C1055 1.433 . S
C1057 N1060 1.384 . S
C1058 H1049 0.929 . S
C1058 C1050 1.378 . S
C1058 C1053 1.350 . S
C1059 H1046 0.929 . S
C1059 C1051 1.433 . S
C1059 N1061 1.384 . S
N1060 C1056 1.427 . S
N1060 C1057 1.384 . S
N1061 C1053 1.427 . S
N1061 C1059 1.384 . S
H1062 C1068 0.930 . S
H1063 C1072 0.930 . S
H1064 C1077 0.929 . S
H1065 C1075 0.929 . S
H1066 C1070 0.929 . S
H1067 C1076 0.929 . S
C1068 H1062 0.930 . S
C1068 C1069 1.367 . S
C1068 C1076 1.378 . S
C1069 C1068 1.367 . S
C1069 C1077 1.433 . S
C1070 H1066 0.929 . S
C1070 C1072 1.378 . S
C1070 C1074 1.350 . S
C1071 C1074 1.463 . S
C1071 C1076 1.350 . S
C1071 N1079 1.427 . S
C1072 H1063 0.930 . S
C1072 C1070 1.378 . S
C1072 C1073 1.367 . S
C1073 C1072 1.367 . S
C1073 C1075 1.433 1_545 S
C1074 C1070 1.350 . S
C1074 C1071 1.463 . S
C1074 N1078 1.427 . S
C1075 H1065 0.929 . S
C1075 C1073 1.433 1_565 S
C1075 N1078 1.384 1_565 S
C1076 H1067 0.929 . S
C1076 C1068 1.378 . S
C1076 C1071 1.350 . S
C1077 H1064 0.929 . S
C1077 C1069 1.433 . S
C1077 N1079 1.384 . S
N1078 C1074 1.427 . S
N1078 C1075 1.384 1_545 S
N1079 C1071 1.427 . S
N1079 C1077 1.384 . S
H1080 C1086 0.930 . S
H1081 C1090 0.930 . S
H1082 C1095 0.929 . S
H1083 C1093 0.929 . S
H1084 C1088 0.929 . S
H1085 C1094 0.929 . S
C1086 H1080 0.930 . S
C1086 C1087 1.367 . S
C1086 C1094 1.378 . S
C1087 C1086 1.367 . S
C1087 C1095 1.433 . S
C1088 H1084 0.929 . S
C1088 C1090 1.378 . S
C1088 C1092 1.350 . S
C1089 C1092 1.463 . S
C1089 C1094 1.350 . S
C1089 N1097 1.427 . S
C1090 H1081 0.930 . S
C1090 C1088 1.378 . S
C1090 C1091 1.367 . S
C1091 C1090 1.367 . S
C1091 C1093 1.433 . S
C1092 C1088 1.350 . S
C1092 C1089 1.463 . S
C1092 N1096 1.427 . S
C1093 H1083 0.929 . S
C1093 C1091 1.433 . S
C1093 N1096 1.384 . S
C1094 H1085 0.929 . S
C1094 C1086 1.378 . S
C1094 C1089 1.350 . S
C1095 H1082 0.929 . S
C1095 C1087 1.433 . S
C1095 N1097 1.384 . S
N1096 C1092 1.427 . S
N1096 C1093 1.384 . S
N1097 C1089 1.427 . S
N1097 C1095 1.384 . S
H1098 C1104 0.930 . S
H1099 C1108 0.930 . S
H1100 C1113 0.929 . S
H1101 C1111 0.929 . S
H1102 C1106 0.929 . S
H1103 C1112 0.929 . S
C1104 H1098 0.930 . S
C1104 C1105 1.367 . S
C1104 C1112 1.378 . S
C1105 C1104 1.367 . S
C1105 C1113 1.433 . S
C1106 H1102 0.929 . S
C1106 C1108 1.378 . S
C1106 C1110 1.350 . S
C1107 C1110 1.463 . S
C1107 C1112 1.350 . S
C1107 N1115 1.427 . S
C1108 H1099 0.930 . S
C1108 C1106 1.378 . S
C1108 C1109 1.367 . S
C1109 C1108 1.367 . S
C1109 C1111 1.433 . S
C1110 C1106 1.350 . S
C1110 C1107 1.463 . S
C1110 N1114 1.427 . S
C1111 H1101 0.929 . S
C1111 C1109 1.433 . S
C1111 N1114 1.384 . S
C1112 H1103 0.929 . S
C1112 C1104 1.378 . S
C1112 C1107 1.350 . S
C1113 H1100 0.929 . S
C1113 C1105 1.433 . S
C1113 N1115 1.384 . S
N1114 C1110 1.427 . S
N1114 C1111 1.384 . S
N1115 C1107 1.427 . S
N1115 C1113 1.384 . S
H1116 C1122 0.930 1_565 S
H1117 C1126 0.930 . S
H1118 C1131 0.929 . S
H1119 C1129 0.929 . S
H1120 C1124 0.929 . S
H1121 C1130 0.929 . S
C1122 H1116 0.930 1_545 S
C1122 C1123 1.367 . S
C1122 C1130 1.378 . S
C1123 C1122 1.367 . S
C1123 C1131 1.433 . S
C1124 H1120 0.929 . S
C1124 C1126 1.378 . S
C1124 C1128 1.350 . S
C1125 C1128 1.463 . S
C1125 C1130 1.350 . S
C1125 N1133 1.427 . S
C1126 H1117 0.930 . S
C1126 C1124 1.378 . S
C1126 C1127 1.367 . S
C1127 C1126 1.367 . S
C1127 C1129 1.433 . S
C1128 C1124 1.350 . S
C1128 C1125 1.463 . S
C1128 N1132 1.427 . S
C1129 H1119 0.929 . S
C1129 C1127 1.433 . S
C1129 N1132 1.384 . S
C1130 H1121 0.929 . S
C1130 C1122 1.378 . S
C1130 C1125 1.350 . S
C1131 H1118 0.929 . S
C1131 C1123 1.433 . S
C1131 N1133 1.384 . S
N1132 C1128 1.427 . S
N1132 C1129 1.384 . S
N1133 C1125 1.427 . S
N1133 C1131 1.384 . S
H1134 C1140 0.930 . S
H1135 C1144 0.930 . S
H1136 C1149 0.929 . S
H1137 C1147 0.929 . S
H1138 C1142 0.929 . S
H1139 C1148 0.929 . S
C1140 H1134 0.930 . S
C1140 C1141 1.367 . S
C1140 C1148 1.378 . S
C1141 C1140 1.367 . S
C1141 C1149 1.433 . S
C1142 H1138 0.929 . S
C1142 C1144 1.378 . S
C1142 C1146 1.350 . S
C1143 C1146 1.463 . S
C1143 C1148 1.350 . S
C1143 N1151 1.427 . S
C1144 H1135 0.930 . S
C1144 C1142 1.378 . S
C1144 C1145 1.367 . S
C1145 C1144 1.367 . S
C1145 C1147 1.433 . S
C1146 C1142 1.350 . S
C1146 C1143 1.463 . S
C1146 N1150 1.427 . S
C1147 H1137 0.929 . S
C1147 C1145 1.433 . S
C1147 N1150 1.384 . S
C1148 H1139 0.929 . S
C1148 C1140 1.378 . S
C1148 C1143 1.350 . S
C1149 H1136 0.929 . S
C1149 C1141 1.433 . S
C1149 N1151 1.384 . S
N1150 C1146 1.427 . S
N1150 C1147 1.384 . S
N1151 C1143 1.427 . S
N1151 C1149 1.384 . S
H1152 C1158 0.930 1_655 S
H1153 C1162 0.930 . S
H1154 C1167 0.929 . S
H1155 C1165 0.929 1_655 S
H1156 C1160 0.929 . S
H1157 C1166 0.929 1_655 S
C1158 H1152 0.930 1_455 S
C1158 C1159 1.367 . S
C1158 C1166 1.378 . S
C1159 C1158 1.367 . S
C1159 C1167 1.433 . S
C1160 H1156 0.929 . S
C1160 C1162 1.378 . S
C1160 C1164 1.350 . S
C1161 C1164 1.463 1_554 S
C1161 C1166 1.350 . S
C1161 N1169 1.427 . S
C1162 H1153 0.930 . S
C1162 C1160 1.378 . S
C1162 C1163 1.367 . S
C1163 C1162 1.367 . S
C1163 C1165 1.433 . S
C1164 C1160 1.350 . S
C1164 C1161 1.463 1_556 S
C1164 N1168 1.427 . S
C1165 H1155 0.929 1_455 S
C1165 C1163 1.433 . S
C1165 N1168 1.384 . S
C1166 H1157 0.929 1_455 S
C1166 C1158 1.378 . S
C1166 C1161 1.350 . S
C1167 H1154 0.929 . S
C1167 C1159 1.433 . S
C1167 N1169 1.384 . S
N1168 C1164 1.427 . S
N1168 C1165 1.384 . S
N1169 C1161 1.427 . S
N1169 C1167 1.384 . S
H1170 C1176 0.930 . S
H1171 C1180 0.930 . S
H1172 C1185 0.929 . S
H1173 C1183 0.929 . S
H1174 C1178 0.929 . S
H1175 C1184 0.929 . S
C1176 H1170 0.930 . S
C1176 C1177 1.367 . S
C1176 C1184 1.378 . S
C1177 C1176 1.367 . S
C1177 C1185 1.433 . S
C1178 H1174 0.929 . S
C1178 C1180 1.378 . S
C1178 C1182 1.350 . S
C1179 C1182 1.463 1_556 S
C1179 C1184 1.350 . S
C1179 N1187 1.427 . S
C1180 H1171 0.930 . S
C1180 C1178 1.378 . S
C1180 C1181 1.367 . S
C1181 C1180 1.367 . S
C1181 C1183 1.433 . S
C1182 C1178 1.350 . S
C1182 C1179 1.463 1_554 S
C1182 N1186 1.427 . S
C1183 H1173 0.929 . S
C1183 C1181 1.433 . S
C1183 N1186 1.384 . S
C1184 H1175 0.929 . S
C1184 C1176 1.378 . S
C1184 C1179 1.350 . S
C1185 H1172 0.929 . S
C1185 C1177 1.433 . S
C1185 N1187 1.384 . S
N1186 C1182 1.427 . S
N1186 C1183 1.384 . S
N1187 C1179 1.427 . S
N1187 C1185 1.384 . S
H1188 C1194 0.930 . S
H1189 C1198 0.930 . S
H1190 C1203 0.929 . S
H1191 C1201 0.929 . S
H1192 C1196 0.929 . S
H1193 C1202 0.929 . S
C1194 H1188 0.930 . S
C1194 C1195 1.367 . S
C1194 C1202 1.378 . S
C1195 C1194 1.367 . S
C1195 C1203 1.433 . S
C1196 H1192 0.929 . S
C1196 C1198 1.378 . S
C1196 C1200 1.350 . S
C1197 C1200 1.463 1_556 S
C1197 C1202 1.350 . S
C1197 N1205 1.427 . S
C1198 H1189 0.930 . S
C1198 C1196 1.378 . S
C1198 C1199 1.367 . S
C1199 C1198 1.367 . S
C1199 C1201 1.433 . S
C1200 C1196 1.350 . S
C1200 C1197 1.463 1_554 S
C1200 N1204 1.427 . S
C1201 H1191 0.929 . S
C1201 C1199 1.433 . S
C1201 N1204 1.384 . S
C1202 H1193 0.929 . S
C1202 C1194 1.378 . S
C1202 C1197 1.350 . S
C1203 H1190 0.929 . S
C1203 C1195 1.433 . S
C1203 N1205 1.384 . S
N1204 C1200 1.427 . S
N1204 C1201 1.384 . S
N1205 C1197 1.427 . S
N1205 C1203 1.384 . S
H1206 C1212 0.930 . S
H1207 C1216 0.930 . S
H1208 C1221 0.929 . S
H1209 C1219 0.929 . S
H1210 C1214 0.929 . S
H1211 C1220 0.929 . S
C1212 H1206 0.930 . S
C1212 C1213 1.367 . S
C1212 C1220 1.378 . S
C1213 C1212 1.367 . S
C1213 C1221 1.433 . S
C1214 H1210 0.929 . S
C1214 C1216 1.378 . S
C1214 C1218 1.350 . S
C1215 C1218 1.463 1_556 S
C1215 C1220 1.350 . S
C1215 N1223 1.427 . S
C1216 H1207 0.930 . S
C1216 C1214 1.378 . S
C1216 C1217 1.367 . S
C1217 C1216 1.367 . S
C1217 C1219 1.433 . S
C1218 C1214 1.350 . S
C1218 C1215 1.463 1_554 S
C1218 N1222 1.427 . S
C1219 H1209 0.929 . S
C1219 C1217 1.433 . S
C1219 N1222 1.384 . S
C1220 H1211 0.929 . S
C1220 C1212 1.378 . S
C1220 C1215 1.350 . S
C1221 H1208 0.929 . S
C1221 C1213 1.433 . S
C1221 N1223 1.384 . S
N1222 C1218 1.427 . S
N1222 C1219 1.384 . S
N1223 C1215 1.427 . S
N1223 C1221 1.384 . S
H1224 C1230 0.930 . S
H1225 C1234 0.930 . S
H1226 C1239 0.929 . S
H1227 C1237 0.929 . S
H1228 C1232 0.929 . S
H1229 C1238 0.929 . S
C1230 H1224 0.930 . S
C1230 C1231 1.367 . S
C1230 C1238 1.378 . S
C1231 C1230 1.367 . S
C1231 C1239 1.433 . S
C1232 H1228 0.929 . S
C1232 C1234 1.378 . S
C1232 C1236 1.350 . S
C1233 C1236 1.463 1_554 S
C1233 C1238 1.350 . S
C1233 N1241 1.427 . S
C1234 H1225 0.930 . S
C1234 C1232 1.378 . S
C1234 C1235 1.367 . S
C1235 C1234 1.367 . S
C1235 C1237 1.433 . S
C1236 C1232 1.350 . S
C1236 C1233 1.463 1_556 S
C1236 N1240 1.427 . S
C1237 H1227 0.929 . S
C1237 C1235 1.433 . S
C1237 N1240 1.384 . S
C1238 H1229 0.929 . S
C1238 C1230 1.378 . S
C1238 C1233 1.350 . S
C1239 H1226 0.929 . S
C1239 C1231 1.433 . S
C1239 N1241 1.384 . S
N1240 C1236 1.427 . S
N1240 C1237 1.384 . S
N1241 C1233 1.427 . S
N1241 C1239 1.384 . S
H1242 C1248 0.930 . S
H1243 C1252 0.930 1_565 S
H1244 C1257 0.929 1_565 S
H1245 C1255 0.929 . S
H1246 C1250 0.929 1_565 S
H1247 C1256 0.929 . S
C1248 H1242 0.930 . S
C1248 C1249 1.367 . S
C1248 C1256 1.378 . S
C1249 C1248 1.367 . S
C1249 C1257 1.433 . S
C1250 H1246 0.929 1_545 S
C1250 C1252 1.378 . S
C1250 C1254 1.350 . S
C1251 C1254 1.463 1_556 S
C1251 C1256 1.350 . S
C1251 N1259 1.427 . S
C1252 H1243 0.930 1_545 S
C1252 C1250 1.378 . S
C1252 C1253 1.367 . S
C1253 C1252 1.367 . S
C1253 C1255 1.433 . S
C1254 C1250 1.350 . S
C1254 C1251 1.463 1_554 S
C1254 N1258 1.427 . S
C1255 H1245 0.929 . S
C1255 C1253 1.433 . S
C1255 N1258 1.384 . S
C1256 H1247 0.929 . S
C1256 C1248 1.378 . S
C1256 C1251 1.350 . S
C1257 H1244 0.929 1_545 S
C1257 C1249 1.433 . S
C1257 N1259 1.384 . S
N1258 C1254 1.427 . S
N1258 C1255 1.384 . S
N1259 C1251 1.427 . S
N1259 C1257 1.384 . S
H1260 C1266 0.930 . S
H1261 C1270 0.930 . S
H1262 C1275 0.929 . S
H1263 C1273 0.929 . S
H1264 C1268 0.929 . S
H1265 C1274 0.929 . S
C1266 H1260 0.930 . S
C1266 C1267 1.367 . S
C1266 C1274 1.378 . S
C1267 C1266 1.367 . S
C1267 C1275 1.433 . S
C1268 H1264 0.929 . S
C1268 C1270 1.378 . S
C1268 C1272 1.350 . S
C1269 C1272 1.463 . S
C1269 C1274 1.350 . S
C1269 N1277 1.427 . S
C1270 H1261 0.930 . S
C1270 C1268 1.378 . S
C1270 C1271 1.367 . S
C1271 C1270 1.367 . S
C1271 C1273 1.433 . S
C1272 C1268 1.350 . S
C1272 C1269 1.463 . S
C1272 N1276 1.427 . S
C1273 H1263 0.929 . S
C1273 C1271 1.433 . S
C1273 N1276 1.384 . S
C1274 H1265 0.929 . S
C1274 C1266 1.378 . S
C1274 C1269 1.350 . S
C1275 H1262 0.929 . S
C1275 C1267 1.433 . S
C1275 N1277 1.384 . S
N1276 C1272 1.427 . S
N1276 C1273 1.384 . S
N1277 C1269 1.427 . S
N1277 C1275 1.384 . S
H1278 C1284 0.930 . S
H1279 C1288 0.930 . S
H1280 C1293 0.929 . S
H1281 C1291 0.929 . S
H1282 C1286 0.929 . S
H1283 C1292 0.929 . S
C1284 H1278 0.930 . S
C1284 C1285 1.367 . S
C1284 C1292 1.378 . S
C1285 C1284 1.367 . S
C1285 C1293 1.433 . S
C1286 H1282 0.929 . S
C1286 C1288 1.378 . S
C1286 C1290 1.350 . S
C1287 C1290 1.463 . S
C1287 C1292 1.350 . S
C1287 N1295 1.427 . S
C1288 H1279 0.930 . S
C1288 C1286 1.378 . S
C1288 C1289 1.367 . S
C1289 C1288 1.367 . S
C1289 C1291 1.433 . S
C1290 C1286 1.350 . S
C1290 C1287 1.463 . S
C1290 N1294 1.427 . S
C1291 H1281 0.929 . S
C1291 C1289 1.433 . S
C1291 N1294 1.384 . S
C1292 H1283 0.929 . S
C1292 C1284 1.378 . S
C1292 C1287 1.350 . S
C1293 H1280 0.929 . S
C1293 C1285 1.433 . S
C1293 N1295 1.384 . S
N1294 C1290 1.427 . S
N1294 C1291 1.384 . S
N1295 C1287 1.427 . S
N1295 C1293 1.384 . S
H1296 C1302 0.930 . S
H1297 C1306 0.930 . S
H1298 C1311 0.929 . S
H1299 C1309 0.929 . S
H1300 C1304 0.929 . S
H1301 C1310 0.929 . S
C1302 H1296 0.930 . S
C1302 C1303 1.367 . S
C1302 C1310 1.378 . S
C1303 C1302 1.367 . S
C1303 C1311 1.433 1_655 S
C1304 H1300 0.929 . S
C1304 C1306 1.378 . S
C1304 C1308 1.350 1_455 S
C1305 C1308 1.463 . S
C1305 C1310 1.350 . S
C1305 N1313 1.427 1_655 S
C1306 H1297 0.930 . S
C1306 C1304 1.378 . S
C1306 C1307 1.367 1_455 S
C1307 C1306 1.367 1_655 S
C1307 C1309 1.433 . S
C1308 C1304 1.350 1_655 S
C1308 C1305 1.463 . S
C1308 N1312 1.427 . S
C1309 H1299 0.929 . S
C1309 C1307 1.433 . S
C1309 N1312 1.384 . S
C1310 H1301 0.929 . S
C1310 C1302 1.378 . S
C1310 C1305 1.350 . S
C1311 H1298 0.929 . S
C1311 C1303 1.433 1_455 S
C1311 N1313 1.384 . S
N1312 C1308 1.427 . S
N1312 C1309 1.384 . S
N1313 C1305 1.427 1_455 S
N1313 C1311 1.384 . S
H1314 C1320 0.930 . S
H1315 C1324 0.930 . S
H1316 C1329 0.929 . S
H1317 C1327 0.929 . S
H1318 C1322 0.929 . S
H1319 C1328 0.929 . S
C1320 H1314 0.930 . S
C1320 C1321 1.367 . S
C1320 C1328 1.378 . S
C1321 C1320 1.367 . S
C1321 C1329 1.433 . S
C1322 H1318 0.929 . S
C1322 C1324 1.378 . S
C1322 C1326 1.350 . S
C1323 C1326 1.463 . S
C1323 C1328 1.350 . S
C1323 N1331 1.427 . S
C1324 H1315 0.930 . S
C1324 C1322 1.378 . S
C1324 C1325 1.367 . S
C1325 C1324 1.367 . S
C1325 C1327 1.433 . S
C1326 C1322 1.350 . S
C1326 C1323 1.463 . S
C1326 N1330 1.427 . S
C1327 H1317 0.929 . S
C1327 C1325 1.433 . S
C1327 N1330 1.384 . S
C1328 H1319 0.929 . S
C1328 C1320 1.378 . S
C1328 C1323 1.350 . S
C1329 H1316 0.929 . S
C1329 C1321 1.433 . S
C1329 N1331 1.384 . S
N1330 C1326 1.427 . S
N1330 C1327 1.384 . S
N1331 C1323 1.427 . S
N1331 C1329 1.384 . S
H1332 C1338 0.930 . S
H1333 C1342 0.930 . S
H1334 C1347 0.929 . S
H1335 C1345 0.929 . S
H1336 C1340 0.929 . S
H1337 C1346 0.929 . S
C1338 H1332 0.930 . S
C1338 C1339 1.367 . S
C1338 C1346 1.378 . S
C1339 C1338 1.367 . S
C1339 C1347 1.433 1_655 S
C1340 H1336 0.929 . S
C1340 C1342 1.378 . S
C1340 C1344 1.350 1_455 S
C1341 C1344 1.463 . S
C1341 C1346 1.350 . S
C1341 N1349 1.427 1_655 S
C1342 H1333 0.930 . S
C1342 C1340 1.378 . S
C1342 C1343 1.367 1_455 S
C1343 C1342 1.367 1_655 S
C1343 C1345 1.433 . S
C1344 C1340 1.350 1_655 S
C1344 C1341 1.463 . S
C1344 N1348 1.427 . S
C1345 H1335 0.929 . S
C1345 C1343 1.433 . S
C1345 N1348 1.384 . S
C1346 H1337 0.929 . S
C1346 C1338 1.378 . S
C1346 C1341 1.350 . S
C1347 H1334 0.929 . S
C1347 C1339 1.433 1_455 S
C1347 N1349 1.384 . S
N1348 C1344 1.427 . S
N1348 C1345 1.384 . S
N1349 C1341 1.427 1_455 S
N1349 C1347 1.384 . S
H1350 C1356 0.930 . S
H1351 C1360 0.930 . S
H1352 C1365 0.929 . S
H1353 C1363 0.929 . S
H1354 C1358 0.929 . S
H1355 C1364 0.929 . S
C1356 H1350 0.930 . S
C1356 C1357 1.367 . S
C1356 C1364 1.378 . S
C1357 C1356 1.367 . S
C1357 C1365 1.433 . S
C1358 H1354 0.929 . S
C1358 C1360 1.378 . S
C1358 C1362 1.350 . S
C1359 C1362 1.463 . S
C1359 C1364 1.350 . S
C1359 N1367 1.427 . S
C1360 H1351 0.930 . S
C1360 C1358 1.378 . S
C1360 C1361 1.367 . S
C1361 C1360 1.367 . S
C1361 C1363 1.433 . S
C1362 C1358 1.350 . S
C1362 C1359 1.463 . S
C1362 N1366 1.427 . S
C1363 H1353 0.929 . S
C1363 C1361 1.433 . S
C1363 N1366 1.384 . S
C1364 H1355 0.929 . S
C1364 C1356 1.378 . S
C1364 C1359 1.350 . S
C1365 H1352 0.929 . S
C1365 C1357 1.433 . S
C1365 N1367 1.384 . S
N1366 C1362 1.427 . S
N1366 C1363 1.384 . S
N1367 C1359 1.427 . S
N1367 C1365 1.384 . S
H1368 C1374 0.930 . S
H1369 C1378 0.930 . S
H1370 C1383 0.929 . S
H1371 C1381 0.929 . S
H1372 C1376 0.929 . S
H1373 C1382 0.929 . S
C1374 H1368 0.930 . S
C1374 C1375 1.367 . S
C1374 C1382 1.378 . S
C1375 C1374 1.367 . S
C1375 C1383 1.433 1_565 S
C1376 H1372 0.929 . S
C1376 C1378 1.378 . S
C1376 C1380 1.350 1_545 S
C1377 C1380 1.463 . S
C1377 C1382 1.350 . S
C1377 N1385 1.427 1_565 S
C1378 H1369 0.930 . S
C1378 C1376 1.378 . S
C1378 C1379 1.367 1_545 S
C1379 C1378 1.367 1_565 S
C1379 C1381 1.433 . S
C1380 C1376 1.350 1_565 S
C1380 C1377 1.463 . S
C1380 N1384 1.427 . S
C1381 H1371 0.929 . S
C1381 C1379 1.433 . S
C1381 N1384 1.384 . S
C1382 H1373 0.929 . S
C1382 C1374 1.378 . S
C1382 C1377 1.350 . S
C1383 H1370 0.929 . S
C1383 C1375 1.433 1_545 S
C1383 N1385 1.384 . S
N1384 C1380 1.427 . S
N1384 C1381 1.384 . S
N1385 C1377 1.427 1_545 S
N1385 C1383 1.384 . S
H1386 C1392 0.930 . S
H1387 C1396 0.930 . S
H1388 C1401 0.929 . S
H1389 C1399 0.929 . S
H1390 C1394 0.929 . S
H1391 C1400 0.929 . S
C1392 H1386 0.930 . S
C1392 C1393 1.367 . S
C1392 C1400 1.378 . S
C1393 C1392 1.367 . S
C1393 C1401 1.433 . S
C1394 H1390 0.929 . S
C1394 C1396 1.378 . S
C1394 C1398 1.350 . S
C1395 C1398 1.463 . S
C1395 C1400 1.350 . S
C1395 N1403 1.427 . S
C1396 H1387 0.930 . S
C1396 C1394 1.378 . S
C1396 C1397 1.367 . S
C1397 C1396 1.367 . S
C1397 C1399 1.433 . S
C1398 C1394 1.350 . S
C1398 C1395 1.463 . S
C1398 N1402 1.427 . S
C1399 H1389 0.929 . S
C1399 C1397 1.433 . S
C1399 N1402 1.384 . S
C1400 H1391 0.929 . S
C1400 C1392 1.378 . S
C1400 C1395 1.350 . S
C1401 H1388 0.929 . S
C1401 C1393 1.433 . S
C1401 N1403 1.384 . S
N1402 C1398 1.427 . S
N1402 C1399 1.384 . S
N1403 C1395 1.427 . S
N1403 C1401 1.384 . S
H1404 C1410 0.930 . S
H1405 C1414 0.930 . S
H1406 C1419 0.929 . S
H1407 C1417 0.929 . S
H1408 C1412 0.929 . S
H1409 C1418 0.929 . S
C1410 H1404 0.930 . S
C1410 C1411 1.367 . S
C1410 C1418 1.378 . S
C1411 C1410 1.367 . S
C1411 C1419 1.433 . S
C1412 H1408 0.929 . S
C1412 C1414 1.378 . S
C1412 C1416 1.350 . S
C1413 C1416 1.463 . S
C1413 C1418 1.350 . S
C1413 N1421 1.427 . S
C1414 H1405 0.930 . S
C1414 C1412 1.378 . S
C1414 C1415 1.367 . S
C1415 C1414 1.367 . S
C1415 C1417 1.433 . S
C1416 C1412 1.350 . S
C1416 C1413 1.463 . S
C1416 N1420 1.427 . S
C1417 H1407 0.929 . S
C1417 C1415 1.433 . S
C1417 N1420 1.384 . S
C1418 H1409 0.929 . S
C1418 C1410 1.378 . S
C1418 C1413 1.350 . S
C1419 H1406 0.929 . S
C1419 C1411 1.433 . S
C1419 N1421 1.384 . S
N1420 C1416 1.427 . S
N1420 C1417 1.384 . S
N1421 C1413 1.427 . S
N1421 C1419 1.384 . S
H1422 C1428 0.930 . S
H1423 C1432 0.930 . S
H1424 C1437 0.929 . S
H1425 C1435 0.929 . S
H1426 C1430 0.929 . S
H1427 C1436 0.929 . S
C1428 H1422 0.930 . S
C1428 C1429 1.367 . S
C1428 C1436 1.378 . S
C1429 C1428 1.367 . S
C1429 C1437 1.433 . S
C1430 H1426 0.929 . S
C1430 C1432 1.378 . S
C1430 C1434 1.350 . S
C1431 C1434 1.463 . S
C1431 C1436 1.350 . S
C1431 N1439 1.427 . S
C1432 H1423 0.930 . S
C1432 C1430 1.378 . S
C1432 C1433 1.367 . S
C1433 C1432 1.367 . S
C1433 C1435 1.433 . S
C1434 C1430 1.350 . S
C1434 C1431 1.463 . S
C1434 N1438 1.427 . S
C1435 H1425 0.929 . S
C1435 C1433 1.433 . S
C1435 N1438 1.384 . S
C1436 H1427 0.929 . S
C1436 C1428 1.378 . S
C1436 C1431 1.350 . S
C1437 H1424 0.929 . S
C1437 C1429 1.433 . S
C1437 N1439 1.384 . S
N1438 C1434 1.427 . S
N1438 C1435 1.384 . S
N1439 C1431 1.427 . S
N1439 C1437 1.384 . S
H1440 C1446 0.930 . S
H1441 C1450 0.930 . S
H1442 C1455 0.929 . S
H1443 C1453 0.929 . S
H1444 C1448 0.929 . S
H1445 C1454 0.929 . S
C1446 H1440 0.930 . S
C1446 C1447 1.367 . S
C1446 C1454 1.378 . S
C1447 C1446 1.367 . S
C1447 C1455 1.433 1_565 S
C1448 H1444 0.929 . S
C1448 C1450 1.378 . S
C1448 C1452 1.350 1_545 S
C1449 C1452 1.463 . S
C1449 C1454 1.350 . S
C1449 N1457 1.427 1_565 S
C1450 H1441 0.930 . S
C1450 C1448 1.378 . S
C1450 C1451 1.367 1_545 S
C1451 C1450 1.367 1_565 S
C1451 C1453 1.433 . S
C1452 C1448 1.350 1_565 S
C1452 C1449 1.463 . S
C1452 N1456 1.427 . S
C1453 H1443 0.929 . S
C1453 C1451 1.433 . S
C1453 N1456 1.384 . S
C1454 H1445 0.929 . S
C1454 C1446 1.378 . S
C1454 C1449 1.350 . S
C1455 H1442 0.929 . S
C1455 C1447 1.433 1_545 S
C1455 N1457 1.384 . S
N1456 C1452 1.427 . S
N1456 C1453 1.384 . S
N1457 C1449 1.427 1_545 S
N1457 C1455 1.384 . S
H1458 C1464 0.930 . S
H1459 C1468 0.930 . S
H1460 C1473 0.929 . S
H1461 C1471 0.929 . S
H1462 C1466 0.929 . S
H1463 C1472 0.929 . S
C1464 H1458 0.930 . S
C1464 C1465 1.367 . S
C1464 C1472 1.378 . S
C1465 C1464 1.367 . S
C1465 C1473 1.433 . S
C1466 H1462 0.929 . S
C1466 C1468 1.378 . S
C1466 C1470 1.350 . S
C1467 C1470 1.463 . S
C1467 C1472 1.350 . S
C1467 N1475 1.427 . S
C1468 H1459 0.930 . S
C1468 C1466 1.378 . S
C1468 C1469 1.367 . S
C1469 C1468 1.367 . S
C1469 C1471 1.433 . S
C1470 C1466 1.350 . S
C1470 C1467 1.463 . S
C1470 N1474 1.427 . S
C1471 H1461 0.929 . S
C1471 C1469 1.433 . S
C1471 N1474 1.384 . S
C1472 H1463 0.929 . S
C1472 C1464 1.378 . S
C1472 C1467 1.350 . S
C1473 H1460 0.929 . S
C1473 C1465 1.433 . S
C1473 N1475 1.384 . S
N1474 C1470 1.427 . S
N1474 C1471 1.384 . S
N1475 C1467 1.427 . S
N1475 C1473 1.384 . S
H1476 C1482 0.930 . S
H1477 C1486 0.930 . S
H1478 C1491 0.929 . S
H1479 C1489 0.929 . S
H1480 C1484 0.929 . S
H1481 C1490 0.929 . S
C1482 H1476 0.930 . S
C1482 C1483 1.367 . S
C1482 C1490 1.378 . S
C1483 C1482 1.367 . S
C1483 C1491 1.433 . S
C1484 H1480 0.929 . S
C1484 C1486 1.378 . S
C1484 C1488 1.350 . S
C1485 C1488 1.463 . S
C1485 C1490 1.350 . S
C1485 N1493 1.427 . S
C1486 H1477 0.930 . S
C1486 C1484 1.378 . S
C1486 C1487 1.367 . S
C1487 C1486 1.367 . S
C1487 C1489 1.433 . S
C1488 C1484 1.350 . S
C1488 C1485 1.463 . S
C1488 N1492 1.427 . S
C1489 H1479 0.929 . S
C1489 C1487 1.433 . S
C1489 N1492 1.384 . S
C1490 H1481 0.929 . S
C1490 C1482 1.378 . S
C1490 C1485 1.350 . S
C1491 H1478 0.929 . S
C1491 C1483 1.433 . S
C1491 N1493 1.384 . S
N1492 C1488 1.427 . S
N1492 C1489 1.384 . S
N1493 C1485 1.427 . S
N1493 C1491 1.384 . S
H1494 C1500 0.930 . S
H1495 C1504 0.930 . S
H1496 C1509 0.929 . S
H1497 C1507 0.929 . S
H1498 C1502 0.929 . S
H1499 C1508 0.929 . S
C1500 H1494 0.930 . S
C1500 C1501 1.367 . S
C1500 C1508 1.378 . S
C1501 C1500 1.367 . S
C1501 C1509 1.433 . S
C1502 H1498 0.929 . S
C1502 C1504 1.378 . S
C1502 C1506 1.350 . S
C1503 C1506 1.463 . S
C1503 C1508 1.350 . S
C1503 N1511 1.427 . S
C1504 H1495 0.930 . S
C1504 C1502 1.378 . S
C1504 C1505 1.367 . S
C1505 C1504 1.367 . S
C1505 C1507 1.433 . S
C1506 C1502 1.350 . S
C1506 C1503 1.463 . S
C1506 N1510 1.427 . S
C1507 H1497 0.929 . S
C1507 C1505 1.433 . S
C1507 N1510 1.384 . S
C1508 H1499 0.929 . S
C1508 C1500 1.378 . S
C1508 C1503 1.350 . S
C1509 H1496 0.929 . S
C1509 C1501 1.433 . S
C1509 N1511 1.384 . S
N1510 C1506 1.427 . S
N1510 C1507 1.384 . S
N1511 C1503 1.427 . S
N1511 C1509 1.384 . S
H1512 C1518 0.930 . S
H1513 C1522 0.930 . S
H1514 C1527 0.929 . S
H1515 C1525 0.929 . S
H1516 C1520 0.929 . S
H1517 C1526 0.929 . S
C1518 H1512 0.930 . S
C1518 C1519 1.367 . S
C1518 C1526 1.378 . S
C1519 C1518 1.367 . S
C1519 C1527 1.433 . S
C1520 H1516 0.929 . S
C1520 C1522 1.378 . S
C1520 C1524 1.350 . S
C1521 C1524 1.463 . S
C1521 C1526 1.350 . S
C1521 N1529 1.427 . S
C1522 H1513 0.930 . S
C1522 C1520 1.378 . S
C1522 C1523 1.367 . S
C1523 C1522 1.367 . S
C1523 C1525 1.433 . S
C1524 C1520 1.350 . S
C1524 C1521 1.463 . S
C1524 N1528 1.427 . S
C1525 H1515 0.929 . S
C1525 C1523 1.433 . S
C1525 N1528 1.384 . S
C1526 H1517 0.929 . S
C1526 C1518 1.378 . S
C1526 C1521 1.350 . S
C1527 H1514 0.929 . S
C1527 C1519 1.433 . S
C1527 N1529 1.384 . S
N1528 C1524 1.427 . S
N1528 C1525 1.384 . S
N1529 C1521 1.427 . S
N1529 C1527 1.384 . S
H1530 C1536 0.930 . S
H1531 C1540 0.930 . S
H1532 C1545 0.929 . S
H1533 C1543 0.929 . S
H1534 C1538 0.929 . S
H1535 C1544 0.929 . S
C1536 H1530 0.930 . S
C1536 C1537 1.367 . S
C1536 C1544 1.378 . S
C1537 C1536 1.367 . S
C1537 C1545 1.433 . S
C1538 H1534 0.929 . S
C1538 C1540 1.378 . S
C1538 C1542 1.350 . S
C1539 C1542 1.463 . S
C1539 C1544 1.350 . S
C1539 N1547 1.427 . S
C1540 H1531 0.930 . S
C1540 C1538 1.378 . S
C1540 C1541 1.367 . S
C1541 C1540 1.367 . S
C1541 C1543 1.433 . S
C1542 C1538 1.350 . S
C1542 C1539 1.463 . S
C1542 N1546 1.427 . S
C1543 H1533 0.929 . S
C1543 C1541 1.433 . S
C1543 N1546 1.384 . S
C1544 H1535 0.929 . S
C1544 C1536 1.378 . S
C1544 C1539 1.350 . S
C1545 H1532 0.929 . S
C1545 C1537 1.433 . S
C1545 N1547 1.384 . S
N1546 C1542 1.427 . S
N1546 C1543 1.384 . S
N1547 C1539 1.427 . S
N1547 C1545 1.384 . S
H1548 C1554 0.930 . S
H1549 C1558 0.930 . S
H1550 C1563 0.929 . S
H1551 C1561 0.929 . S
H1552 C1556 0.929 . S
H1553 C1562 0.929 . S
C1554 H1548 0.930 . S
C1554 C1555 1.367 . S
C1554 C1562 1.378 . S
C1555 C1554 1.367 . S
C1555 C1563 1.433 . S
C1556 H1552 0.929 . S
C1556 C1558 1.378 . S
C1556 C1560 1.350 . S
C1557 C1560 1.463 . S
C1557 C1562 1.350 . S
C1557 N1565 1.427 . S
C1558 H1549 0.930 . S
C1558 C1556 1.378 . S
C1558 C1559 1.367 . S
C1559 C1558 1.367 . S
C1559 C1561 1.433 . S
C1560 C1556 1.350 . S
C1560 C1557 1.463 . S
C1560 N1564 1.427 . S
C1561 H1551 0.929 . S
C1561 C1559 1.433 . S
C1561 N1564 1.384 . S
C1562 H1553 0.929 . S
C1562 C1554 1.378 . S
C1562 C1557 1.350 . S
C1563 H1550 0.929 . S
C1563 C1555 1.433 . S
C1563 N1565 1.384 . S
N1564 C1560 1.427 . S
N1564 C1561 1.384 . S
N1565 C1557 1.427 . S
N1565 C1563 1.384 . S
H1566 C1572 0.930 . S
H1567 C1576 0.930 . S
H1568 C1581 0.929 . S
H1569 C1579 0.929 . S
H1570 C1574 0.929 . S
H1571 C1580 0.929 . S
C1572 H1566 0.930 . S
C1572 C1573 1.367 . S
C1572 C1580 1.378 . S
C1573 C1572 1.367 . S
C1573 C1581 1.433 . S
C1574 H1570 0.929 . S
C1574 C1576 1.378 . S
C1574 C1578 1.350 . S
C1575 C1578 1.463 . S
C1575 C1580 1.350 . S
C1575 N1583 1.427 . S
C1576 H1567 0.930 . S
C1576 C1574 1.378 . S
C1576 C1577 1.367 . S
C1577 C1576 1.367 . S
C1577 C1579 1.433 . S
C1578 C1574 1.350 . S
C1578 C1575 1.463 . S
C1578 N1582 1.427 . S
C1579 H1569 0.929 . S
C1579 C1577 1.433 . S
C1579 N1582 1.384 . S
C1580 H1571 0.929 . S
C1580 C1572 1.378 . S
C1580 C1575 1.350 . S
C1581 H1568 0.929 . S
C1581 C1573 1.433 . S
C1581 N1583 1.384 . S
N1582 C1578 1.427 . S
N1582 C1579 1.384 . S
N1583 C1575 1.427 . S
N1583 C1581 1.384 . S
H1584 C1590 0.930 . S
H1585 C1594 0.930 . S
H1586 C1599 0.929 . S
H1587 C1597 0.929 . S
H1588 C1592 0.929 . S
H1589 C1598 0.929 . S
C1590 H1584 0.930 . S
C1590 C1591 1.367 . S
C1590 C1598 1.378 . S
C1591 C1590 1.367 . S
C1591 C1599 1.433 . S
C1592 H1588 0.929 . S
C1592 C1594 1.378 . S
C1592 C1596 1.350 . S
C1593 C1596 1.463 . S
C1593 C1598 1.350 . S
C1593 N1601 1.427 . S
C1594 H1585 0.930 . S
C1594 C1592 1.378 . S
C1594 C1595 1.367 . S
C1595 C1594 1.367 . S
C1595 C1597 1.433 . S
C1596 C1592 1.350 . S
C1596 C1593 1.463 . S
C1596 N1600 1.427 . S
C1597 H1587 0.929 . S
C1597 C1595 1.433 . S
C1597 N1600 1.384 . S
C1598 H1589 0.929 . S
C1598 C1590 1.378 . S
C1598 C1593 1.350 . S
C1599 H1586 0.929 . S
C1599 C1591 1.433 . S
C1599 N1601 1.384 . S
N1600 C1596 1.427 . S
N1600 C1597 1.384 . S
N1601 C1593 1.427 . S
N1601 C1599 1.384 . S
H1602 C1608 0.930 . S
H1603 C1612 0.930 . S
H1604 C1617 0.929 . S
H1605 C1615 0.929 . S
H1606 C1610 0.929 . S
H1607 C1616 0.929 . S
C1608 H1602 0.930 . S
C1608 C1609 1.367 . S
C1608 C1616 1.378 . S
C1609 C1608 1.367 . S
C1609 C1617 1.433 . S
C1610 H1606 0.929 . S
C1610 C1612 1.378 . S
C1610 C1614 1.350 . S
C1611 C1614 1.463 . S
C1611 C1616 1.350 . S
C1611 N1619 1.427 . S
C1612 H1603 0.930 . S
C1612 C1610 1.378 . S
C1612 C1613 1.367 . S
C1613 C1612 1.367 . S
C1613 C1615 1.433 . S
C1614 C1610 1.350 . S
C1614 C1611 1.463 . S
C1614 N1618 1.427 . S
C1615 H1605 0.929 . S
C1615 C1613 1.433 . S
C1615 N1618 1.384 . S
C1616 H1607 0.929 . S
C1616 C1608 1.378 . S
C1616 C1611 1.350 . S
C1617 H1604 0.929 . S
C1617 C1609 1.433 . S
C1617 N1619 1.384 . S
N1618 C1614 1.427 . S
N1618 C1615 1.384 . S
N1619 C1611 1.427 . S
N1619 C1617 1.384 . S
H1620 C1626 0.930 . S
H1621 C1630 0.930 . S
H1622 C1635 0.929 . S
H1623 C1633 0.929 . S
H1624 C1628 0.929 . S
H1625 C1634 0.929 . S
C1626 H1620 0.930 . S
C1626 C1627 1.367 1_455 S
C1626 C1634 1.378 . S
C1627 C1626 1.367 1_655 S
C1627 C1635 1.433 . S
C1628 H1624 0.929 . S
C1628 C1630 1.378 . S
C1628 C1632 1.350 . S
C1629 C1632 1.463 . S
C1629 C1634 1.350 1_655 S
C1629 N1637 1.427 . S
C1630 H1621 0.930 . S
C1630 C1628 1.378 . S
C1630 C1631 1.367 . S
C1631 C1630 1.367 . S
C1631 C1633 1.433 1_655 S
C1632 C1628 1.350 . S
C1632 C1629 1.463 . S
C1632 N1636 1.427 1_655 S
C1633 H1623 0.929 . S
C1633 C1631 1.433 1_455 S
C1633 N1636 1.384 . S
C1634 H1625 0.929 . S
C1634 C1626 1.378 . S
C1634 C1629 1.350 1_455 S
C1635 H1622 0.929 . S
C1635 C1627 1.433 . S
C1635 N1637 1.384 . S
N1636 C1632 1.427 1_455 S
N1636 C1633 1.384 . S
N1637 C1629 1.427 . S
N1637 C1635 1.384 . S
H1638 C1644 0.930 . S
H1639 C1648 0.930 . S
H1640 C1653 0.929 . S
H1641 C1651 0.929 . S
H1642 C1646 0.929 . S
H1643 C1652 0.929 . S
C1644 H1638 0.930 . S
C1644 C1645 1.367 . S
C1644 C1652 1.378 . S
C1645 C1644 1.367 . S
C1645 C1653 1.433 . S
C1646 H1642 0.929 . S
C1646 C1648 1.378 . S
C1646 C1650 1.350 . S
C1647 C1650 1.463 . S
C1647 C1652 1.350 . S
C1647 N1655 1.427 . S
C1648 H1639 0.930 . S
C1648 C1646 1.378 . S
C1648 C1649 1.367 . S
C1649 C1648 1.367 . S
C1649 C1651 1.433 . S
C1650 C1646 1.350 . S
C1650 C1647 1.463 . S
C1650 N1654 1.427 . S
C1651 H1641 0.929 . S
C1651 C1649 1.433 . S
C1651 N1654 1.384 . S
C1652 H1643 0.929 . S
C1652 C1644 1.378 . S
C1652 C1647 1.350 . S
C1653 H1640 0.929 . S
C1653 C1645 1.433 . S
C1653 N1655 1.384 . S
N1654 C1650 1.427 . S
N1654 C1651 1.384 . S
N1655 C1647 1.427 . S
N1655 C1653 1.384 . S
H1656 C1662 0.930 . S
H1657 C1666 0.930 . S
H1658 C1671 0.929 . S
H1659 C1669 0.929 . S
H1660 C1664 0.929 . S
H1661 C1670 0.929 . S
C1662 H1656 0.930 . S
C1662 C1663 1.367 . S
C1662 C1670 1.378 . S
C1663 C1662 1.367 . S
C1663 C1671 1.433 . S
C1664 H1660 0.929 . S
C1664 C1666 1.378 . S
C1664 C1668 1.350 . S
C1665 C1668 1.463 . S
C1665 C1670 1.350 . S
C1665 N1673 1.427 . S
C1666 H1657 0.930 . S
C1666 C1664 1.378 . S
C1666 C1667 1.367 . S
C1667 C1666 1.367 . S
C1667 C1669 1.433 . S
C1668 C1664 1.350 . S
C1668 C1665 1.463 . S
C1668 N1672 1.427 . S
C1669 H1659 0.929 . S
C1669 C1667 1.433 . S
C1669 N1672 1.384 . S
C1670 H1661 0.929 . S
C1670 C1662 1.378 . S
C1670 C1665 1.350 . S
C1671 H1658 0.929 . S
C1671 C1663 1.433 . S
C1671 N1673 1.384 . S
N1672 C1668 1.427 . S
N1672 C1669 1.384 . S
N1673 C1665 1.427 . S
N1673 C1671 1.384 . S
H1674 C1680 0.930 . S
H1675 C1684 0.930 . S
H1676 C1689 0.929 . S
H1677 C1687 0.929 . S
H1678 C1682 0.929 . S
H1679 C1688 0.929 . S
C1680 H1674 0.930 . S
C1680 C1681 1.367 . S
C1680 C1688 1.378 . S
C1681 C1680 1.367 . S
C1681 C1689 1.433 . S
C1682 H1678 0.929 . S
C1682 C1684 1.378 . S
C1682 C1686 1.350 . S
C1683 C1686 1.463 . S
C1683 C1688 1.350 . S
C1683 N1691 1.427 . S
C1684 H1675 0.930 . S
C1684 C1682 1.378 . S
C1684 C1685 1.367 . S
C1685 C1684 1.367 . S
C1685 C1687 1.433 . S
C1686 C1682 1.350 . S
C1686 C1683 1.463 . S
C1686 N1690 1.427 . S
C1687 H1677 0.929 . S
C1687 C1685 1.433 . S
C1687 N1690 1.384 . S
C1688 H1679 0.929 . S
C1688 C1680 1.378 . S
C1688 C1683 1.350 . S
C1689 H1676 0.929 . S
C1689 C1681 1.433 . S
C1689 N1691 1.384 . S
N1690 C1686 1.427 . S
N1690 C1687 1.384 . S
N1691 C1683 1.427 . S
N1691 C1689 1.384 . S
H1692 C1698 0.930 . S
H1693 C1702 0.930 . S
H1694 C1707 0.929 . S
H1695 C1705 0.929 . S
H1696 C1700 0.929 . S
H1697 C1706 0.929 . S
C1698 H1692 0.930 . S
C1698 C1699 1.367 . S
C1698 C1706 1.378 . S
C1699 C1698 1.367 . S
C1699 C1707 1.433 . S
C1700 H1696 0.929 . S
C1700 C1702 1.378 . S
C1700 C1704 1.350 . S
C1701 C1704 1.463 . S
C1701 C1706 1.350 . S
C1701 N1709 1.427 . S
C1702 H1693 0.930 . S
C1702 C1700 1.378 . S
C1702 C1703 1.367 . S
C1703 C1702 1.367 . S
C1703 C1705 1.433 . S
C1704 C1700 1.350 . S
C1704 C1701 1.463 . S
C1704 N1708 1.427 . S
C1705 H1695 0.929 . S
C1705 C1703 1.433 . S
C1705 N1708 1.384 . S
C1706 H1697 0.929 . S
C1706 C1698 1.378 . S
C1706 C1701 1.350 . S
C1707 H1694 0.929 . S
C1707 C1699 1.433 . S
C1707 N1709 1.384 . S
N1708 C1704 1.427 . S
N1708 C1705 1.384 . S
N1709 C1701 1.427 . S
N1709 C1707 1.384 . S
H1710 C1716 0.930 . S
H1711 C1720 0.930 . S
H1712 C1725 0.929 . S
H1713 C1723 0.929 . S
H1714 C1718 0.929 . S
H1715 C1724 0.929 . S
C1716 H1710 0.930 . S
C1716 C1717 1.367 . S
C1716 C1724 1.378 . S
C1717 C1716 1.367 . S
C1717 C1725 1.433 . S
C1718 H1714 0.929 . S
C1718 C1720 1.378 . S
C1718 C1722 1.350 . S
C1719 C1722 1.463 . S
C1719 C1724 1.350 . S
C1719 N1727 1.427 . S
C1720 H1711 0.930 . S
C1720 C1718 1.378 . S
C1720 C1721 1.367 . S
C1721 C1720 1.367 . S
C1721 C1723 1.433 . S
C1722 C1718 1.350 . S
C1722 C1719 1.463 . S
C1722 N1726 1.427 . S
C1723 H1713 0.929 . S
C1723 C1721 1.433 . S
C1723 N1726 1.384 . S
C1724 H1715 0.929 . S
C1724 C1716 1.378 . S
C1724 C1719 1.350 . S
C1725 H1712 0.929 . S
C1725 C1717 1.433 . S
C1725 N1727 1.384 . S
N1726 C1722 1.427 . S
N1726 C1723 1.384 . S
N1727 C1719 1.427 . S
N1727 C1725 1.384 . S
H1728 C1734 0.930 . S
H1729 C1738 0.930 . S
H1730 C1743 0.929 . S
H1731 C1741 0.929 . S
H1732 C1736 0.929 . S
H1733 C1742 0.929 . S
C1734 H1728 0.930 . S
C1734 C1735 1.367 . S
C1734 C1742 1.378 . S
C1735 C1734 1.367 . S
C1735 C1743 1.433 . S
C1736 H1732 0.929 . S
C1736 C1738 1.378 . S
C1736 C1740 1.350 . S
C1737 C1740 1.463 . S
C1737 C1742 1.350 . S
C1737 N1745 1.427 . S
C1738 H1729 0.930 . S
C1738 C1736 1.378 . S
C1738 C1739 1.367 . S
C1739 C1738 1.367 . S
C1739 C1741 1.433 . S
C1740 C1736 1.350 . S
C1740 C1737 1.463 . S
C1740 N1744 1.427 . S
C1741 H1731 0.929 . S
C1741 C1739 1.433 . S
C1741 N1744 1.384 . S
C1742 H1733 0.929 . S
C1742 C1734 1.378 . S
C1742 C1737 1.350 . S
C1743 H1730 0.929 . S
C1743 C1735 1.433 . S
C1743 N1745 1.384 . S
N1744 C1740 1.427 . S
N1744 C1741 1.384 . S
N1745 C1737 1.427 . S
N1745 C1743 1.384 . S
H1746 C1752 0.930 . S
H1747 C1756 0.930 . S
H1748 C1761 0.929 . S
H1749 C1759 0.929 . S
H1750 C1754 0.929 . S
H1751 C1760 0.929 . S
C1752 H1746 0.930 . S
C1752 C1753 1.367 . S
C1752 C1760 1.378 . S
C1753 C1752 1.367 . S
C1753 C1761 1.433 . S
C1754 H1750 0.929 . S
C1754 C1756 1.378 . S
C1754 C1758 1.350 . S
C1755 C1758 1.463 . S
C1755 C1760 1.350 . S
C1755 N1763 1.427 . S
C1756 H1747 0.930 . S
C1756 C1754 1.378 . S
C1756 C1757 1.367 . S
C1757 C1756 1.367 . S
C1757 C1759 1.433 . S
C1758 C1754 1.350 . S
C1758 C1755 1.463 . S
C1758 N1762 1.427 . S
C1759 H1749 0.929 . S
C1759 C1757 1.433 . S
C1759 N1762 1.384 . S
C1760 H1751 0.929 . S
C1760 C1752 1.378 . S
C1760 C1755 1.350 . S
C1761 H1748 0.929 . S
C1761 C1753 1.433 . S
C1761 N1763 1.384 . S
N1762 C1758 1.427 . S
N1762 C1759 1.384 . S
N1763 C1755 1.427 . S
N1763 C1761 1.384 . S
H1764 C1770 0.930 . S
H1765 C1774 0.930 . S
H1766 C1779 0.929 . S
H1767 C1777 0.929 . S
H1768 C1772 0.929 . S
H1769 C1778 0.929 . S
C1770 H1764 0.930 . S
C1770 C1771 1.367 . S
C1770 C1778 1.378 . S
C1771 C1770 1.367 . S
C1771 C1779 1.433 . S
C1772 H1768 0.929 . S
C1772 C1774 1.378 . S
C1772 C1776 1.350 . S
C1773 C1776 1.463 . S
C1773 C1778 1.350 . S
C1773 N1781 1.427 . S
C1774 H1765 0.930 . S
C1774 C1772 1.378 . S
C1774 C1775 1.367 . S
C1775 C1774 1.367 . S
C1775 C1777 1.433 . S
C1776 C1772 1.350 . S
C1776 C1773 1.463 . S
C1776 N1780 1.427 . S
C1777 H1767 0.929 . S
C1777 C1775 1.433 . S
C1777 N1780 1.384 . S
C1778 H1769 0.929 . S
C1778 C1770 1.378 . S
C1778 C1773 1.350 . S
C1779 H1766 0.929 . S
C1779 C1771 1.433 . S
C1779 N1781 1.384 . S
N1780 C1776 1.427 . S
N1780 C1777 1.384 . S
N1781 C1773 1.427 . S
N1781 C1779 1.384 . S
H1782 C1788 0.930 . S
H1783 C1792 0.930 . S
H1784 C1797 0.929 . S
H1785 C1795 0.929 . S
H1786 C1790 0.929 . S
H1787 C1796 0.929 . S
C1788 H1782 0.930 . S
C1788 C1789 1.367 . S
C1788 C1796 1.378 . S
C1789 C1788 1.367 . S
C1789 C1797 1.433 . S
C1790 H1786 0.929 . S
C1790 C1792 1.378 . S
C1790 C1794 1.350 . S
C1791 C1794 1.463 . S
C1791 C1796 1.350 . S
C1791 N1799 1.427 . S
C1792 H1783 0.930 . S
C1792 C1790 1.378 . S
C1792 C1793 1.367 . S
C1793 C1792 1.367 . S
C1793 C1795 1.433 . S
C1794 C1790 1.350 . S
C1794 C1791 1.463 . S
C1794 N1798 1.427 . S
C1795 H1785 0.929 . S
C1795 C1793 1.433 . S
C1795 N1798 1.384 . S
C1796 H1787 0.929 . S
C1796 C1788 1.378 . S
C1796 C1791 1.350 . S
C1797 H1784 0.929 . S
C1797 C1789 1.433 . S
C1797 N1799 1.384 . S
N1798 C1794 1.427 . S
N1798 C1795 1.384 . S
N1799 C1791 1.427 . S
N1799 C1797 1.384 . S
C511 C3 1.598 . S
C515 C157 1.598 . S
C529 C129 1.598 . S
C533 C17 1.598 . S
C547 C143 1.599 . S
C551 C31 1.598 . S
C565 C45 1.599 . S
C569 C101 1.597 . S
C583 C59 1.599 . S
C587 C115 1.598 . S
C601 C73 1.599 . S
C605 C87 1.597 . S
C619 C171 1.598 . S
C623 C325 1.599 . S
C637 C297 1.598 . S
C641 C185 1.598 . S
C655 C199 1.599 . S
C659 C311 1.598 . S
C673 C213 1.598 . S
C677 C269 1.598 . S
C691 C227 1.599 . S
C695 C283 1.598 . S
C709 C241 1.599 . S
C713 C255 1.598 . S
C727 C339 1.598 . S
C731 C493 1.598 . S
C745 C353 1.598 . S
C749 C465 1.599 . S
C763 C479 1.598 . S
C767 C367 1.598 . S
C781 C381 1.598 . S
C785 C437 1.599 . S
C799 C451 1.599 . S
C803 C395 1.598 . S
C817 C423 1.598 . S
C821 C409 1.598 . S
C835 C8 1.279 . S
C839 C218 1.281 . S
C853 C22 1.288 . S
C857 C232 1.289 . S
C871 C36 1.286 . S
C875 C246 1.282 . S
C889 C50 1.286 . S
C893 C344 1.282 . S
C907 C358 1.284 . S
C911 C64 1.281 . S
C925 C372 1.282 . S
C929 C78 1.286 . S
C943 C92 1.287 . S
C947 C470 1.290 . S
C961 C484 1.280 . S
C965 C106 1.282 . S
C979 C120 1.280 . S
C983 C498 1.279 . S
C997 C134 1.282 . S
C1001 C260 1.280 . S
C1015 C148 1.281 . S
C1019 C274 1.285 . S
C1033 C162 1.280 . S
C1037 C288 1.282 . S
C1051 C386 1.283 . S
C1055 C176 1.287 . S
C1069 C190 1.286 . S
C1073 C400 1.289 . S
C1087 C204 1.287 . S
C1091 C414 1.283 . S
C1105 C428 1.286 . S
C1109 C302 1.289 . S
C1123 C442 1.281 . S
C1127 C316 1.284 . S
C1141 C330 1.282 . S
C1145 C456 1.286 . S
C1159 C9 1.257 . S
C1163 C65 1.264 . S
C1177 C79 1.257 . S
C1181 C23 1.264 . S
C1195 C51 1.253 . S
C1199 C37 1.268 . S
C1213 C93 1.269 . S
C1217 C149 1.251 . S
C1231 C163 1.269 . S
C1235 C107 1.252 . S
C1249 C121 1.266 . S
C1253 C135 1.255 . S
C1267 C233 1.269 . S
C1271 C177 1.252 . S
C1285 C191 1.252 . S
C1289 C247 1.270 . S
C1303 C205 1.253 . S
C1307 C219 1.269 . S
C1321 C317 1.262 . S
C1325 C261 1.258 . S
C1339 C331 1.251 . S
C1343 C275 1.269 . S
C1357 C303 1.265 . S
C1361 C289 1.256 . S
C1375 C345 1.253 . S
C1379 C401 1.269 . S
C1393 C359 1.268 . S
C1397 C415 1.253 . S
C1411 C373 1.264 . S
C1415 C387 1.256 . S
C1429 C485 1.259 . S
C1433 C429 1.263 . S
C1447 C499 1.252 . S
C1451 C443 1.269 . S
C1465 C471 1.266 . S
C1469 C457 1.255 . S
C1483 C133 1.571 . S
C1487 C7 1.563 . S
C1501 C147 1.572 . S
C1505 C21 1.561 . S
C1519 C35 1.562 . S
C1523 C161 1.572 . S
C1537 C49 1.562 . S
C1541 C91 1.572 . S
C1555 C105 1.572 . S
C1559 C63 1.561 . S
C1573 C77 1.572 . S
C1577 C119 1.562 . S
C1591 C301 1.568 . S
C1595 C175 1.566 . S
C1609 C315 1.572 . S
C1613 C189 1.561 . S
C1627 C203 1.569 . S
C1631 C329 1.565 . S
C1645 C259 1.564 . S
C1649 C217 1.570 . S
C1663 C273 1.572 . S
C1667 C231 1.561 . S
C1681 C287 1.565 . S
C1685 C245 1.569 . S
C1699 C343 1.572 . S
C1703 C469 1.562 . S
C1717 C483 1.562 . S
C1721 C357 1.572 . S
C1735 C371 1.571 . S
C1739 C497 1.562 . S
C1753 C385 1.571 . S
C1757 C427 1.562 . S
C1771 C399 1.564 . S
C1775 C441 1.570 . S
C1789 C455 1.568 . S
C1793 C413 1.566 . S
