# Generated by pormake.
# Topology umq, (4)-cn, num edge types: 1
# Building blocks:
#     Node 0, Type 0, BuildingBlock: ICAMEG_clean_sbu_1, # of connection points: 4
#     Node 1, Type 0, BuildingBlock: ICAMEG_clean_sbu_1, # of connection points: 4
#     Node 2, Type 0, BuildingBlock: ICAMEG_clean_sbu_1, # of connection points: 4
#     Node 3, Type 0, BuildingBlock: ICAMEG_clean_sbu_1, # of connection points: 4
#     Node 4, Type 0, BuildingBlock: ICAMEG_clean_sbu_1, # of connection points: 4
#     Node 5, Type 0, BuildingBlock: ICAMEG_clean_sbu_1, # of connection points: 4
#     Node 6, Type 0, BuildingBlock: ICAMEG_clean_sbu_1, # of connection points: 4
#     Node 7, Type 0, BuildingBlock: ICAMEG_clean_sbu_1, # of connection points: 4
#     Node 8, Type 0, BuildingBlock: ICAMEG_clean_sbu_1, # of connection points: 4
#     Node 9, Type 0, BuildingBlock: ICAMEG_clean_sbu_1, # of connection points: 4
#     Node 10, Type 0, BuildingBlock: ICAMEG_clean_sbu_1, # of connection points: 4
#     Node 11, Type 0, BuildingBlock: ICAMEG_clean_sbu_1, # of connection points: 4
#     Node 12, Type 0, BuildingBlock: ICAMEG_clean_sbu_1, # of connection points: 4
#     Node 13, Type 0, BuildingBlock: ICAMEG_clean_sbu_1, # of connection points: 4
#     Node 14, Type 0, BuildingBlock: ICAMEG_clean_sbu_1, # of connection points: 4
#     Node 15, Type 0, BuildingBlock: ICAMEG_clean_sbu_1, # of connection points: 4
#     Node 16, Type 0, BuildingBlock: ICAMEG_clean_sbu_1, # of connection points: 4
#     Node 17, Type 0, BuildingBlock: ICAMEG_clean_sbu_1, # of connection points: 4
#     Node 18, Type 0, BuildingBlock: ICAMEG_clean_sbu_1, # of connection points: 4
#     Node 19, Type 0, BuildingBlock: ICAMEG_clean_sbu_1, # of connection points: 4
#     Node 20, Type 0, BuildingBlock: ICAMEG_clean_sbu_1, # of connection points: 4
#     Node 21, Type 0, BuildingBlock: ICAMEG_clean_sbu_1, # of connection points: 4
#     Node 22, Type 0, BuildingBlock: ICAMEG_clean_sbu_1, # of connection points: 4
#     Node 23, Type 0, BuildingBlock: ICAMEG_clean_sbu_1, # of connection points: 4
#     Node 24, Type 0, BuildingBlock: ICAMEG_clean_sbu_1, # of connection points: 4
#     Node 25, Type 0, BuildingBlock: ICAMEG_clean_sbu_1, # of connection points: 4
#     Node 26, Type 0, BuildingBlock: ICAMEG_clean_sbu_1, # of connection points: 4
#     Node 27, Type 0, BuildingBlock: ICAMEG_clean_sbu_1, # of connection points: 4
#     Node 28, Type 0, BuildingBlock: ICAMEG_clean_sbu_1, # of connection points: 4
#     Node 29, Type 0, BuildingBlock: ICAMEG_clean_sbu_1, # of connection points: 4
#     Node 30, Type 0, BuildingBlock: ICAMEG_clean_sbu_1, # of connection points: 4
#     Node 31, Type 0, BuildingBlock: ICAMEG_clean_sbu_1, # of connection points: 4
#     Edge 32, Type (0, 0), BuildingBlock: XIVTED_clean_linker_0, # of connection points: 2
#     Edge 33, Type (0, 0), BuildingBlock: XIVTED_clean_linker_0, # of connection points: 2
#     Edge 34, Type (0, 0), BuildingBlock: XIVTED_clean_linker_0, # of connection points: 2
#     Edge 35, Type (0, 0), BuildingBlock: XIVTED_clean_linker_0, # of connection points: 2
#     Edge 36, Type (0, 0), BuildingBlock: XIVTED_clean_linker_0, # of connection points: 2
#     Edge 37, Type (0, 0), BuildingBlock: XIVTED_clean_linker_0, # of connection points: 2
#     Edge 38, Type (0, 0), BuildingBlock: XIVTED_clean_linker_0, # of connection points: 2
#     Edge 39, Type (0, 0), BuildingBlock: XIVTED_clean_linker_0, # of connection points: 2
#     Edge 40, Type (0, 0), BuildingBlock: XIVTED_clean_linker_0, # of connection points: 2
#     Edge 41, Type (0, 0), BuildingBlock: XIVTED_clean_linker_0, # of connection points: 2
#     Edge 42, Type (0, 0), BuildingBlock: XIVTED_clean_linker_0, # of connection points: 2
#     Edge 43, Type (0, 0), BuildingBlock: XIVTED_clean_linker_0, # of connection points: 2
#     Edge 44, Type (0, 0), BuildingBlock: XIVTED_clean_linker_0, # of connection points: 2
#     Edge 45, Type (0, 0), BuildingBlock: XIVTED_clean_linker_0, # of connection points: 2
#     Edge 46, Type (0, 0), BuildingBlock: XIVTED_clean_linker_0, # of connection points: 2
#     Edge 47, Type (0, 0), BuildingBlock: XIVTED_clean_linker_0, # of connection points: 2
#     Edge 48, Type (0, 0), BuildingBlock: XIVTED_clean_linker_0, # of connection points: 2
#     Edge 49, Type (0, 0), BuildingBlock: XIVTED_clean_linker_0, # of connection points: 2
#     Edge 50, Type (0, 0), BuildingBlock: XIVTED_clean_linker_0, # of connection points: 2
#     Edge 51, Type (0, 0), BuildingBlock: XIVTED_clean_linker_0, # of connection points: 2
#     Edge 52, Type (0, 0), BuildingBlock: XIVTED_clean_linker_0, # of connection points: 2
#     Edge 53, Type (0, 0), BuildingBlock: XIVTED_clean_linker_0, # of connection points: 2
#     Edge 54, Type (0, 0), BuildingBlock: XIVTED_clean_linker_0, # of connection points: 2
#     Edge 55, Type (0, 0), BuildingBlock: XIVTED_clean_linker_0, # of connection points: 2
#     Edge 56, Type (0, 0), BuildingBlock: XIVTED_clean_linker_0, # of connection points: 2
#     Edge 57, Type (0, 0), BuildingBlock: XIVTED_clean_linker_0, # of connection points: 2
#     Edge 58, Type (0, 0), BuildingBlock: XIVTED_clean_linker_0, # of connection points: 2
#     Edge 59, Type (0, 0), BuildingBlock: XIVTED_clean_linker_0, # of connection points: 2
#     Edge 60, Type (0, 0), BuildingBlock: XIVTED_clean_linker_0, # of connection points: 2
#     Edge 61, Type (0, 0), BuildingBlock: XIVTED_clean_linker_0, # of connection points: 2
#     Edge 62, Type (0, 0), BuildingBlock: XIVTED_clean_linker_0, # of connection points: 2
#     Edge 63, Type (0, 0), BuildingBlock: XIVTED_clean_linker_0, # of connection points: 2
#     Edge 64, Type (0, 0), BuildingBlock: XIVTED_clean_linker_0, # of connection points: 2
#     Edge 65, Type (0, 0), BuildingBlock: XIVTED_clean_linker_0, # of connection points: 2
#     Edge 66, Type (0, 0), BuildingBlock: XIVTED_clean_linker_0, # of connection points: 2
#     Edge 67, Type (0, 0), BuildingBlock: XIVTED_clean_linker_0, # of connection points: 2
#     Edge 68, Type (0, 0), BuildingBlock: XIVTED_clean_linker_0, # of connection points: 2
#     Edge 69, Type (0, 0), BuildingBlock: XIVTED_clean_linker_0, # of connection points: 2
#     Edge 70, Type (0, 0), BuildingBlock: XIVTED_clean_linker_0, # of connection points: 2
#     Edge 71, Type (0, 0), BuildingBlock: XIVTED_clean_linker_0, # of connection points: 2
#     Edge 72, Type (0, 0), BuildingBlock: XIVTED_clean_linker_0, # of connection points: 2
#     Edge 73, Type (0, 0), BuildingBlock: XIVTED_clean_linker_0, # of connection points: 2
#     Edge 74, Type (0, 0), BuildingBlock: XIVTED_clean_linker_0, # of connection points: 2
#     Edge 75, Type (0, 0), BuildingBlock: XIVTED_clean_linker_0, # of connection points: 2
#     Edge 76, Type (0, 0), BuildingBlock: XIVTED_clean_linker_0, # of connection points: 2
#     Edge 77, Type (0, 0), BuildingBlock: XIVTED_clean_linker_0, # of connection points: 2
#     Edge 78, Type (0, 0), BuildingBlock: XIVTED_clean_linker_0, # of connection points: 2
#     Edge 79, Type (0, 0), BuildingBlock: XIVTED_clean_linker_0, # of connection points: 2
#     Edge 80, Type (0, 0), BuildingBlock: XIVTED_clean_linker_0, # of connection points: 2
#     Edge 81, Type (0, 0), BuildingBlock: XIVTED_clean_linker_0, # of connection points: 2
#     Edge 82, Type (0, 0), BuildingBlock: XIVTED_clean_linker_0, # of connection points: 2
#     Edge 83, Type (0, 0), BuildingBlock: XIVTED_clean_linker_0, # of connection points: 2
#     Edge 84, Type (0, 0), BuildingBlock: XIVTED_clean_linker_0, # of connection points: 2
#     Edge 85, Type (0, 0), BuildingBlock: XIVTED_clean_linker_0, # of connection points: 2
#     Edge 86, Type (0, 0), BuildingBlock: XIVTED_clean_linker_0, # of connection points: 2
#     Edge 87, Type (0, 0), BuildingBlock: XIVTED_clean_linker_0, # of connection points: 2
#     Edge 88, Type (0, 0), BuildingBlock: XIVTED_clean_linker_0, # of connection points: 2
#     Edge 89, Type (0, 0), BuildingBlock: XIVTED_clean_linker_0, # of connection points: 2
#     Edge 90, Type (0, 0), BuildingBlock: XIVTED_clean_linker_0, # of connection points: 2
#     Edge 91, Type (0, 0), BuildingBlock: XIVTED_clean_linker_0, # of connection points: 2
#     Edge 92, Type (0, 0), BuildingBlock: XIVTED_clean_linker_0, # of connection points: 2
#     Edge 93, Type (0, 0), BuildingBlock: XIVTED_clean_linker_0, # of connection points: 2
#     Edge 94, Type (0, 0), BuildingBlock: XIVTED_clean_linker_0, # of connection points: 2
#     Edge 95, Type (0, 0), BuildingBlock: XIVTED_clean_linker_0, # of connection points: 2
# Relax obj value: 0.104
# Max RMSD: 0.142
# Mean RMSD: 0.140
data_MOF--net-umq--node1-ICAMEG_clean_sbu_1--edge1-XIVTED_clean_linker_0
_symmetry_space_group_name_H-M    P1
_symmetry_Int_Tables_number       1
_symmetry_cell_setting            triclinic
loop_
_symmetry_equiv_pos_as_xyz
'x, y, z'
_cell_length_a     70.045222
_cell_length_b     70.055056
_cell_length_c     48.034885
_cell_angle_alpha  90.013778
_cell_angle_beta   89.984694
_cell_angle_gamma 90.02212
loop_
_atom_site_label
_atom_site_type_symbol
_atom_site_fract_x
_atom_site_fract_y
_atom_site_fract_z
_atom_type_partial_charge
Co0 Co 0.24274 0.12192 0.15255 0.0
Co1 Co 0.28091 0.09519 0.17466 0.0
O2 O 0.25467 0.1045 0.17925 0.0
C3 C 0.23523 0.14466 0.20368 0.0
O4 O 0.25369 0.14548 0.20826 0.0
C5 C 0.25841 0.06002 0.19044 0.0
O6 O 0.24402 0.06568 0.17502 0.0
O7 O 0.275 0.08573 0.13614 0.0
O8 O 0.25632 0.1096 0.12093 0.0
H9 H 0.3429 0.08654 0.12356 0.0
H10 H 0.2179 0.10108 0.1922 0.0
O11 O 0.22864 0.13496 0.18344 0.0
H12 H 0.19664 0.08077 0.09891 0.0
H13 H 0.18822 0.16012 0.11306 0.0
H14 H 0.25635 0.1437 0.1034 0.0
H15 H 0.22285 0.104 0.10417 0.0
H16 H 0.20347 0.13777 0.14587 0.0
O17 O 0.27375 0.06979 0.19127 0.0
H18 H 0.31 0.09825 0.13009 0.0
H19 H 0.30743 0.07193 0.20965 0.0
H20 H 0.24162 0.16599 0.07 0.0
H21 H 0.19145 0.078 0.18788 0.0
H22 H 0.20731 0.17434 0.07472 0.0
H23 H 0.18071 0.06764 0.14097 0.0
O24 O 0.26429 0.14026 0.15632 0.0
H25 H 0.26759 0.10503 0.27647 0.0
H26 H 0.31274 0.11776 0.19998 0.0
H27 H 0.31955 0.13042 0.2468 0.0
H28 H 0.2969 0.12402 0.2855 0.0
H29 H 0.26124 0.09285 0.22922 0.0
H30 H 0.34021 0.05976 0.20385 0.0
H31 H 0.35821 0.06712 0.1606 0.0
O32 O 0.28939 0.12048 0.15912 0.0
C33 C 0.2668 0.09505 0.11666 0.0
C34 C 0.33521 0.08325 0.14251 0.0
C35 C 0.33369 0.06819 0.18755 0.0
N36 N 0.30681 0.08582 0.17024 0.0
C37 C 0.31659 0.08987 0.14635 0.0
C38 C 0.3151 0.07506 0.19067 0.0
C39 C 0.34379 0.07235 0.16329 0.0
C40 C 0.21317 0.09679 0.17171 0.0
N41 N 0.22188 0.10391 0.14848 0.0
C42 C 0.19825 0.08365 0.1694 0.0
C43 C 0.19225 0.07782 0.14307 0.0
C44 C 0.2012 0.08516 0.11947 0.0
C45 C 0.21608 0.09826 0.12258 0.0
C46 C 0.20317 0.15656 0.11075 0.0
C47 C 0.24138 0.14716 0.10549 0.0
C48 C 0.2119 0.14394 0.1293 0.0
N49 N 0.23076 0.13931 0.12643 0.0
C50 C 0.23313 0.15984 0.08656 0.0
C51 C 0.21389 0.16453 0.08924 0.0
C52 C 0.28222 0.13713 0.1561 0.0
C53 C 0.27758 0.1079 0.25979 0.0
C54 C 0.30275 0.11504 0.21661 0.0
C55 C 0.30672 0.12218 0.24313 0.0
C56 C 0.29402 0.11857 0.26484 0.0
N57 N 0.28661 0.10457 0.21181 0.0
C58 C 0.27409 0.10099 0.23299 0.0
Co59 Co 0.88515 0.24037 0.14925 0.0
Co60 Co 0.91213 0.27816 0.1747 0.0
O61 O 0.90239 0.25177 0.17711 0.0
C62 C 0.86346 0.23446 0.20174 0.0
O63 O 0.86809 0.25182 0.20953 0.0
C64 C 0.94638 0.25453 0.19326 0.0
O65 O 0.93812 0.23851 0.18589 0.0
O66 O 0.92085 0.27405 0.13536 0.0
O67 O 0.89999 0.25244 0.11862 0.0
H68 H 0.92028 0.34224 0.12923 0.0
H69 H 0.90276 0.21517 0.19153 0.0
O70 O 0.8697 0.22767 0.17893 0.0
H71 H 0.92475 0.19031 0.10099 0.0
H72 H 0.84528 0.18785 0.10729 0.0
H73 H 0.86671 0.2546 0.09779 0.0
H74 H 0.90319 0.21809 0.10326 0.0
H75 H 0.86703 0.20207 0.14193 0.0
O76 O 0.9381 0.27048 0.18906 0.0
H77 H 0.90843 0.30919 0.13315 0.0
H78 H 0.93625 0.30299 0.21119 0.0
H79 H 0.84509 0.24089 0.06252 0.0
H80 H 0.92405 0.18712 0.19024 0.0
H81 H 0.83423 0.20728 0.06716 0.0
H82 H 0.93528 0.17459 0.14472 0.0
O83 O 0.8676 0.26279 0.15109 0.0
H84 H 0.90376 0.26048 0.2755 0.0
H85 H 0.89037 0.30895 0.20377 0.0
H86 H 0.87863 0.31388 0.25157 0.0
H87 H 0.88537 0.28957 0.28789 0.0
H88 H 0.91498 0.25599 0.22738 0.0
H89 H 0.94854 0.33589 0.20798 0.0
H90 H 0.9405 0.35579 0.16683 0.0
O91 O 0.88682 0.28739 0.16124 0.0
C92 C 0.9137 0.26419 0.11556 0.0
C93 C 0.92386 0.33372 0.14728 0.0
C94 C 0.93975 0.33015 0.19146 0.0
N95 N 0.9216 0.30417 0.17237 0.0
C96 C 0.91717 0.315 0.14963 0.0
C97 C 0.9328 0.31149 0.1931 0.0
C98 C 0.93522 0.34131 0.16838 0.0
C99 C 0.90748 0.2097 0.17165 0.0
N100 N 0.90188 0.21835 0.14752 0.0
C101 C 0.91958 0.19386 0.17105 0.0
C102 C 0.9259 0.18685 0.1455 0.0
C103 C 0.92002 0.19568 0.12096 0.0
C104 C 0.90792 0.21149 0.12238 0.0
C105 C 0.84994 0.2025 0.10501 0.0
C106 C 0.86213 0.23993 0.09986 0.0
C107 C 0.86222 0.21065 0.1246 0.0
N108 N 0.86823 0.22912 0.12179 0.0
C109 C 0.84985 0.23226 0.07987 0.0
C110 C 0.84375 0.21341 0.0825 0.0
C111 C 0.87058 0.28057 0.15464 0.0
C112 C 0.90082 0.27123 0.2599 0.0
C113 C 0.89331 0.29826 0.21937 0.0
C114 C 0.88666 0.30116 0.24646 0.0
C115 C 0.89046 0.28753 0.26682 0.0
N116 N 0.90354 0.28228 0.21273 0.0
C117 C 0.90725 0.26882 0.2326 0.0
Co118 Co 0.77137 0.8882 0.14983 0.0
Co119 Co 0.73349 0.91404 0.17703 0.0
O120 O 0.76003 0.90473 0.17856 0.0
C121 C 0.77839 0.86573 0.20121 0.0
O122 O 0.76106 0.86988 0.20967 0.0
C123 C 0.75661 0.94914 0.19261 0.0
O124 O 0.77149 0.94289 0.17873 0.0
O125 O 0.73712 0.9237 0.13804 0.0
O126 O 0.75856 0.90316 0.12007 0.0
H127 H 0.66891 0.92239 0.13321 0.0
H128 H 0.79653 0.906 0.192 0.0
O129 O 0.78481 0.8726 0.17857 0.0
H130 H 0.81977 0.92983 0.10153 0.0
H131 H 0.82417 0.85023 0.10503 0.0
H132 H 0.75681 0.87017 0.09824 0.0
H133 H 0.79266 0.90741 0.10381 0.0
H134 H 0.80996 0.87114 0.14077 0.0
O135 O 0.74111 0.93961 0.19276 0.0
H136 H 0.70216 0.91096 0.13585 0.0
H137 H 0.70863 0.93674 0.21533 0.0
H138 H 0.7705 0.84939 0.06188 0.0
H139 H 0.82388 0.9282 0.19068 0.0
H140 H 0.80441 0.83928 0.06516 0.0
H141 H 0.83561 0.94033 0.14519 0.0
O142 O 0.74934 0.87017 0.15176 0.0
H143 H 0.75216 0.90447 0.27709 0.0
H144 H 0.70352 0.89079 0.20568 0.0
H145 H 0.6994 0.87799 0.25307 0.0
H146 H 0.72381 0.88486 0.28921 0.0
H147 H 0.75584 0.91676 0.22931 0.0
H148 H 0.67553 0.94861 0.21343 0.0
H149 H 0.65539 0.94138 0.17219 0.0
O150 O 0.72445 0.88889 0.16242 0.0
C151 C 0.74671 0.91683 0.11774 0.0
C152 C 0.67753 0.92563 0.15129 0.0
C153 C 0.68126 0.94036 0.1963 0.0
N154 N 0.70734 0.92317 0.1757 0.0
C155 C 0.69636 0.91917 0.15292 0.0
C156 C 0.70003 0.93367 0.1972 0.0
C157 C 0.66996 0.93629 0.17316 0.0
C158 C 0.80166 0.91111 0.17213 0.0
N159 N 0.79297 0.90549 0.14803 0.0
C160 C 0.81711 0.92373 0.17151 0.0
C161 C 0.82366 0.93055 0.14598 0.0
C162 C 0.81477 0.92468 0.12148 0.0
C163 C 0.79935 0.91207 0.12291 0.0
C164 C 0.80938 0.85456 0.10334 0.0
C165 C 0.77161 0.86592 0.09971 0.0
C166 C 0.80124 0.86636 0.12356 0.0
N167 N 0.7826 0.87196 0.12149 0.0
C168 C 0.77927 0.85411 0.07911 0.0
C169 C 0.79829 0.84843 0.08098 0.0
C170 C 0.73152 0.87282 0.15544 0.0
C171 C 0.7414 0.90142 0.26154 0.0
C172 C 0.71427 0.89373 0.22119 0.0
C173 C 0.71182 0.88651 0.24805 0.0
C174 C 0.72551 0.89039 0.26832 0.0
N175 N 0.72989 0.90456 0.21468 0.0
C176 C 0.74337 0.90841 0.23447 0.0
Co177 Co 0.1222 0.76955 0.15408 0.0
Co178 Co 0.09591 0.73096 0.17444 0.0
O179 O 0.1039 0.75769 0.1797 0.0
C180 C 0.1392 0.78026 0.20848 0.0
O181 O 0.13662 0.76265 0.21707 0.0
C182 C 0.06011 0.75212 0.19181 0.0
O183 O 0.06656 0.76794 0.18064 0.0
O184 O 0.08699 0.73691 0.13578 0.0
O185 O 0.11227 0.75418 0.12223 0.0
H186 H 0.09085 0.66909 0.12196 0.0
H187 H 0.09848 0.79526 0.18865 0.0
O188 O 0.13314 0.78545 0.18471 0.0
H189 H 0.0825 0.81143 0.0915 0.0
H190 H 0.16002 0.82398 0.1133 0.0
H191 H 0.14751 0.75475 0.10951 0.0
H192 H 0.10624 0.78647 0.10189 0.0
H193 H 0.13649 0.80923 0.14486 0.0
O194 O 0.06974 0.73672 0.18996 0.0
H195 H 0.10105 0.70239 0.12947 0.0
H196 H 0.0732 0.70316 0.20805 0.0
H197 H 0.17102 0.76894 0.07738 0.0
H198 H 0.07486 0.82056 0.17919 0.0
H199 H 0.17742 0.8038 0.07917 0.0
H200 H 0.06667 0.82873 0.13031 0.0
O201 O 0.141 0.74921 0.16263 0.0
H202 H 0.10284 0.74311 0.27709 0.0
H203 H 0.12002 0.70028 0.19955 0.0
H204 H 0.13201 0.6934 0.24673 0.0
H205 H 0.12337 0.71486 0.28593 0.0
H206 H 0.09135 0.7496 0.22953 0.0
H207 H 0.06255 0.66993 0.20124 0.0
H208 H 0.07144 0.65265 0.15799 0.0
O209 O 0.1219 0.72364 0.15958 0.0
C210 C 0.09751 0.74421 0.11687 0.0
C211 C 0.08691 0.67647 0.14091 0.0
C212 C 0.071 0.67695 0.18539 0.0
N213 N 0.08778 0.70471 0.1692 0.0
C214 C 0.09267 0.69532 0.14531 0.0
C215 C 0.07702 0.69579 0.18908 0.0
C216 C 0.07601 0.66725 0.16112 0.0
C217 C 0.09512 0.79887 0.16733 0.0
N218 N 0.1037 0.78937 0.14588 0.0
C219 C 0.08168 0.81315 0.1621 0.0
C220 C 0.07707 0.8177 0.13467 0.0
C221 C 0.08592 0.80798 0.11289 0.0
C222 C 0.09928 0.79378 0.11892 0.0
C223 C 0.15734 0.80878 0.11229 0.0
C224 C 0.15013 0.76995 0.11032 0.0
C225 C 0.14406 0.80033 0.13016 0.0
N226 N 0.14054 0.78115 0.12894 0.0
C227 C 0.1635 0.77789 0.09212 0.0
C228 C 0.16709 0.79745 0.09314 0.0
C229 C 0.13846 0.73128 0.16055 0.0
C230 C 0.10663 0.7336 0.2602 0.0
C231 C 0.11623 0.70973 0.21646 0.0
C232 C 0.12304 0.70573 0.24316 0.0
C233 C 0.11818 0.71777 0.26514 0.0
N234 N 0.10485 0.72526 0.21179 0.0
C235 C 0.10008 0.73716 0.23324 0.0
Co236 Co 0.2407 0.88451 0.36587 0.0
Co237 Co 0.27663 0.91202 0.33788 0.0
O238 O 0.25012 0.90264 0.33775 0.0
C239 C 0.2284 0.86594 0.31345 0.0
O240 O 0.24536 0.86952 0.30305 0.0
C241 C 0.25268 0.946 0.31853 0.0
O242 O 0.2366 0.93715 0.32394 0.0
O243 O 0.27384 0.92076 0.37746 0.0
O244 O 0.25697 0.89633 0.39506 0.0
H245 H 0.34229 0.9196 0.37853 0.0
H246 H 0.21205 0.90554 0.3325 0.0
O247 O 0.22405 0.8717 0.33773 0.0
H248 H 0.19998 0.92436 0.42985 0.0
H249 H 0.19052 0.84532 0.41464 0.0
H250 H 0.25891 0.86188 0.41083 0.0
H251 H 0.22556 0.9015 0.41849 0.0
H252 H 0.20246 0.86834 0.37993 0.0
O253 O 0.26866 0.93813 0.32415 0.0
H254 H 0.30907 0.90797 0.37702 0.0
H255 H 0.3003 0.93614 0.29976 0.0
H256 H 0.24755 0.83891 0.44602 0.0
H257 H 0.18613 0.92829 0.34298 0.0
H258 H 0.21313 0.83048 0.44808 0.0
H259 H 0.18001 0.93789 0.39195 0.0
O260 O 0.26162 0.86637 0.35692 0.0
H261 H 0.25536 0.90291 0.23855 0.0
H262 H 0.30659 0.89071 0.30649 0.0
H263 H 0.31006 0.87896 0.25845 0.0
H264 H 0.28436 0.88513 0.224 0.0
H265 H 0.25234 0.91407 0.28686 0.0
H266 H 0.33334 0.94825 0.30062 0.0
H267 H 0.35462 0.93991 0.34014 0.0
O268 O 0.28623 0.8864 0.35072 0.0
C269 C 0.26744 0.91104 0.39791 0.0
C270 C 0.33316 0.9233 0.36117 0.0
C271 C 0.32814 0.9394 0.31746 0.0
N272 N 0.30276 0.9213 0.33829 0.0
C273 C 0.31435 0.91672 0.36017 0.0
C274 C 0.30941 0.93257 0.31716 0.0
C275 C 0.34007 0.93471 0.33964 0.0
C276 C 0.20938 0.90956 0.35387 0.0
N277 N 0.22033 0.90224 0.37482 0.0
C278 C 0.19473 0.92248 0.35967 0.0
C279 C 0.19131 0.92788 0.38715 0.0
C280 C 0.20253 0.92032 0.40842 0.0
C281 C 0.21706 0.90744 0.40184 0.0
C282 C 0.20555 0.84889 0.41398 0.0
C283 C 0.24389 0.85837 0.41167 0.0
C284 C 0.2124 0.86189 0.39433 0.0
N285 N 0.23135 0.86654 0.39344 0.0
C286 C 0.23755 0.84531 0.43161 0.0
C287 C 0.21824 0.84058 0.43274 0.0
C288 C 0.27943 0.86966 0.35441 0.0
C289 C 0.26672 0.90024 0.25331 0.0
C290 C 0.2953 0.8934 0.29174 0.0
C291 C 0.29737 0.88675 0.26449 0.0
C292 C 0.28297 0.89023 0.24518 0.0
N293 N 0.27939 0.90335 0.29957 0.0
C294 C 0.26516 0.90669 0.28073 0.0
Co295 Co 0.12352 0.24084 0.34778 0.0
Co296 Co 0.09772 0.2812 0.3346 0.0
O297 O 0.10568 0.25523 0.32471 0.0
C298 C 0.14396 0.2352 0.29408 0.0
O299 O 0.14588 0.25377 0.29172 0.0
C300 C 0.06152 0.26101 0.31901 0.0
O301 O 0.067 0.24627 0.33386 0.0
O302 O 0.08908 0.27243 0.37227 0.0
O303 O 0.11354 0.25301 0.38237 0.0
H304 H 0.09277 0.3388 0.39656 0.0
H305 H 0.09944 0.2196 0.30765 0.0
O306 O 0.13427 0.22805 0.31394 0.0
H307 H 0.08277 0.19356 0.39988 0.0
H308 H 0.16057 0.18239 0.37608 0.0
H309 H 0.14857 0.25043 0.39561 0.0
H310 H 0.10707 0.21885 0.39536 0.0
H311 H 0.13747 0.20059 0.34791 0.0
O312 O 0.07172 0.27608 0.31836 0.0
H313 H 0.10315 0.30635 0.38366 0.0
H314 H 0.07438 0.31101 0.30612 0.0
H315 H 0.17165 0.23272 0.42446 0.0
H316 H 0.07522 0.19413 0.31119 0.0
H317 H 0.17779 0.19844 0.41476 0.0
H318 H 0.0667 0.18099 0.35759 0.0
O319 O 0.14255 0.26173 0.34449 0.0
H320 H 0.10409 0.27704 0.23055 0.0
H321 H 0.12157 0.31371 0.31439 0.0
H322 H 0.13328 0.32424 0.26849 0.0
H323 H 0.12449 0.30589 0.22614 0.0
H324 H 0.09283 0.2669 0.27689 0.0
H325 H 0.06355 0.34345 0.31829 0.0
H326 H 0.07281 0.35758 0.36376 0.0
O327 O 0.12376 0.2874 0.35019 0.0
C328 C 0.09937 0.26326 0.38963 0.0
C329 C 0.08867 0.33282 0.37666 0.0
C330 C 0.07224 0.33541 0.33276 0.0
N331 N 0.08944 0.30681 0.34413 0.0
C332 C 0.09453 0.31446 0.36922 0.0
C333 C 0.07837 0.31701 0.32602 0.0
C334 C 0.07746 0.34334 0.35826 0.0
C335 C 0.09595 0.2138 0.32787 0.0
N336 N 0.10469 0.22067 0.35125 0.0
C337 C 0.08216 0.19945 0.32976 0.0
C338 C 0.07736 0.19211 0.35581 0.0
C339 C 0.08636 0.19917 0.37955 0.0
C340 C 0.10006 0.21355 0.37687 0.0
C341 C 0.15798 0.1973 0.38057 0.0
C342 C 0.15104 0.23549 0.39139 0.0
C343 C 0.14493 0.2077 0.36466 0.0
N344 N 0.14152 0.22652 0.37029 0.0
C345 C 0.16418 0.22555 0.40774 0.0
C346 C 0.16764 0.20632 0.40227 0.0
C347 C 0.1402 0.27952 0.34895 0.0
C348 C 0.10796 0.28519 0.24884 0.0
C349 C 0.11772 0.30561 0.29608 0.0
C350 C 0.12437 0.31166 0.27013 0.0
C351 C 0.11943 0.30136 0.24638 0.0
N352 N 0.10642 0.28976 0.29832 0.0
C353 C 0.10158 0.27955 0.27513 0.0
Co354 Co 0.77239 0.12558 0.36362 0.0
Co355 Co 0.73479 0.09872 0.33728 0.0
O356 O 0.76113 0.10863 0.3353 0.0
C357 C 0.77807 0.14789 0.31173 0.0
O358 O 0.76071 0.14321 0.30399 0.0
C359 C 0.75876 0.06474 0.31821 0.0
O360 O 0.77471 0.07306 0.32578 0.0
O361 O 0.73875 0.0897 0.37652 0.0
O362 O 0.7604 0.11032 0.39381 0.0
H363 H 0.67055 0.08981 0.382 0.0
H364 H 0.79786 0.10883 0.32087 0.0
O365 O 0.78498 0.14148 0.33435 0.0
H366 H 0.82245 0.08536 0.41075 0.0
H367 H 0.82472 0.16515 0.40664 0.0
H368 H 0.75807 0.14328 0.41562 0.0
H369 H 0.79457 0.10681 0.40909 0.0
H370 H 0.8106 0.14378 0.37141 0.0
O371 O 0.74273 0.07288 0.32251 0.0
H372 H 0.70354 0.1019 0.37859 0.0
H373 H 0.71029 0.07473 0.30014 0.0
H374 H 0.77169 0.16452 0.45146 0.0
H375 H 0.826 0.08766 0.32158 0.0
H376 H 0.80524 0.1756 0.44709 0.0
H377 H 0.83841 0.0757 0.36676 0.0
O378 O 0.74986 0.14298 0.36239 0.0
H379 H 0.75296 0.10803 0.23683 0.0
H380 H 0.70397 0.1204 0.30823 0.0
H381 H 0.69919 0.13248 0.26058 0.0
H382 H 0.72377 0.12625 0.22443 0.0
H383 H 0.75729 0.09649 0.2848 0.0
H384 H 0.67745 0.06218 0.30284 0.0
H385 H 0.65731 0.06978 0.34394 0.0
O386 O 0.72535 0.12391 0.35112 0.0
C387 C 0.7486 0.09662 0.39651 0.0
C388 C 0.67918 0.08642 0.36396 0.0
C389 C 0.68306 0.07089 0.31956 0.0
N390 N 0.70883 0.08907 0.33919 0.0
C391 C 0.69786 0.09325 0.3619 0.0
C392 C 0.70168 0.07798 0.31821 0.0
C393 C 0.67176 0.07517 0.34262 0.0
C394 C 0.80328 0.1038 0.34062 0.0
N395 N 0.79451 0.10895 0.36488 0.0
C396 C 0.81917 0.09176 0.34089 0.0
C397 C 0.82611 0.08504 0.36624 0.0
C398 C 0.81715 0.09043 0.39092 0.0
C399 C 0.80129 0.10248 0.38984 0.0
C400 C 0.81009 0.16039 0.4088 0.0
C401 C 0.77272 0.14796 0.41366 0.0
C402 C 0.802 0.14833 0.38888 0.0
N403 N 0.78356 0.14219 0.39155 0.0
C404 C 0.78034 0.16002 0.43398 0.0
C405 C 0.79916 0.16625 0.43149 0.0
C406 C 0.7321 0.14004 0.35852 0.0
C407 C 0.7421 0.11076 0.25236 0.0
C408 C 0.71477 0.1177 0.2927 0.0
C409 C 0.71196 0.12453 0.2657 0.0
C410 C 0.72574 0.12101 0.24543 0.0
N411 N 0.73082 0.10758 0.29936 0.0
C412 C 0.74441 0.10414 0.27957 0.0
Co413 Co 0.88633 0.77099 0.35979 0.0
Co414 Co 0.90989 0.73062 0.33738 0.0
O415 O 0.902 0.7574 0.33236 0.0
C416 C 0.86436 0.77798 0.30789 0.0
O417 O 0.86678 0.76003 0.30088 0.0
C418 C 0.9458 0.75087 0.31977 0.0
O419 O 0.94126 0.76534 0.33584 0.0
O420 O 0.92095 0.73648 0.37482 0.0
O421 O 0.89997 0.75811 0.39103 0.0
H422 H 0.91673 0.66883 0.38956 0.0
H423 H 0.90673 0.79299 0.31648 0.0
O424 O 0.87211 0.78463 0.32978 0.0
H425 H 0.93082 0.81783 0.40589 0.0
H426 H 0.85199 0.82786 0.40001 0.0
H427 H 0.86659 0.75947 0.41167 0.0
H428 H 0.90632 0.79255 0.40485 0.0
H429 H 0.8722 0.81103 0.36588 0.0
O430 O 0.93511 0.73616 0.31886 0.0
H431 H 0.90662 0.70223 0.38292 0.0
H432 H 0.93047 0.70247 0.30164 0.0
H433 H 0.84647 0.7758 0.44646 0.0
H434 H 0.93108 0.81848 0.31651 0.0
H435 H 0.83904 0.81024 0.44072 0.0
H436 H 0.94334 0.831 0.36147 0.0
O437 O 0.8669 0.7503 0.35852 0.0
H438 H 0.89808 0.742 0.23553 0.0
H439 H 0.88368 0.70044 0.31567 0.0
H440 H 0.86905 0.69351 0.27011 0.0
H441 H 0.87626 0.71434 0.22961 0.0
H442 H 0.91224 0.74855 0.28155 0.0
H443 H 0.94098 0.66912 0.30746 0.0
H444 H 0.93406 0.65205 0.35165 0.0
O445 O 0.88485 0.72386 0.35528 0.0
C446 C 0.91381 0.74655 0.39438 0.0
C447 C 0.91982 0.67611 0.3702 0.0
C448 C 0.93345 0.67628 0.32414 0.0
N449 N 0.91793 0.7043 0.34193 0.0
C450 C 0.91411 0.69502 0.36632 0.0
C451 C 0.92752 0.69519 0.32101 0.0
C452 C 0.92955 0.6667 0.34893 0.0
C453 C 0.91191 0.79848 0.3361 0.0
N454 N 0.90519 0.79125 0.36062 0.0
C455 C 0.92573 0.81286 0.336 0.0
C456 C 0.93262 0.81987 0.36124 0.0
C457 C 0.92563 0.81247 0.38617 0.0
C458 C 0.91182 0.79809 0.38545 0.0
C459 C 0.85515 0.81286 0.40276 0.0
C460 C 0.86351 0.77449 0.40913 0.0
C461 C 0.86654 0.80323 0.38346 0.0
N462 N 0.87067 0.7843 0.38688 0.0
C463 C 0.85207 0.78364 0.42885 0.0
C464 C 0.84789 0.80296 0.42561 0.0
C465 C 0.86888 0.73224 0.35904 0.0
C466 C 0.89488 0.73278 0.25299 0.0
C467 C 0.88685 0.70962 0.29819 0.0
C468 C 0.87855 0.70559 0.27242 0.0
C469 C 0.88261 0.71728 0.2497 0.0
N470 N 0.89889 0.72484 0.30125 0.0
C471 C 0.90292 0.73637 0.27908 0.0
Co472 Co 0.78287 0.89311 0.87306 0.0
Co473 Co 0.76104 0.91036 0.81346 0.0
O474 O 0.7724 0.91403 0.85051 0.0
C475 C 0.75545 0.90931 0.91501 0.0
O476 O 0.74115 0.90595 0.89803 0.0
C477 C 0.78452 0.94675 0.80916 0.0
O478 O 0.79196 0.94386 0.83382 0.0
O479 O 0.78394 0.89572 0.80074 0.0
O480 O 0.79379 0.88046 0.83925 0.0
H481 H 0.74244 0.87146 0.72988 0.0
H482 H 0.79187 0.93276 0.89054 0.0
O483 O 0.77251 0.90534 0.90779 0.0
H484 H 0.85411 0.90288 0.87056 0.0
H485 H 0.81538 0.86512 0.95717 0.0
H486 H 0.78484 0.85103 0.86698 0.0
H487 H 0.8243 0.88455 0.86528 0.0
H488 H 0.80264 0.89114 0.92803 0.0
O489 O 0.77288 0.93471 0.79871 0.0
H490 H 0.75616 0.87687 0.7765 0.0
H491 H 0.74228 0.9358 0.77159 0.0
H492 H 0.79753 0.82459 0.89537 0.0
H493 H 0.82137 0.9515 0.8966 0.0
H494 H 0.81293 0.83157 0.94082 0.0
H495 H 0.85278 0.9366 0.88643 0.0
O496 O 0.75897 0.87795 0.86867 0.0
H497 H 0.72693 0.96374 0.86306 0.0
H498 H 0.71896 0.90495 0.80797 0.0
H499 H 0.69049 0.92213 0.82461 0.0
H500 H 0.69436 0.95183 0.85228 0.0
H501 H 0.75496 0.94598 0.84636 0.0
H502 H 0.72858 0.93105 0.72482 0.0
H503 H 0.72852 0.89868 0.70371 0.0
O504 O 0.74836 0.88623 0.82625 0.0
C505 C 0.79433 0.88333 0.81303 0.0
C506 C 0.74232 0.88563 0.73889 0.0
C507 C 0.73458 0.91908 0.73603 0.0
N508 N 0.74991 0.90659 0.77685 0.0
C509 C 0.75002 0.88876 0.76532 0.0
C510 C 0.74241 0.92168 0.76249 0.0
C511 C 0.73454 0.90091 0.7242 0.0
C512 C 0.80548 0.92611 0.88629 0.0
N513 N 0.80632 0.90761 0.87736 0.0
C514 C 0.82214 0.93682 0.88966 0.0
C515 C 0.83976 0.92846 0.88391 0.0
C516 C 0.84051 0.90956 0.87495 0.0
C517 C 0.82355 0.89929 0.8718 0.0
C518 C 0.80873 0.8619 0.93738 0.0
C519 C 0.79162 0.85419 0.88666 0.0
C520 C 0.80145 0.87657 0.92081 0.0
N521 N 0.79311 0.87262 0.89573 0.0
C522 C 0.79873 0.83915 0.90268 0.0
C523 C 0.80736 0.84308 0.92819 0.0
C524 C 0.74767 0.87585 0.84808 0.0
C525 C 0.72505 0.95087 0.85089 0.0
C526 C 0.7208 0.91779 0.82007 0.0
C527 C 0.70461 0.9275 0.82938 0.0
C528 C 0.70678 0.94417 0.84489 0.0
N529 N 0.7387 0.92451 0.82585 0.0
C530 C 0.74091 0.94078 0.8412 0.0
Co531 Co 0.11909 0.78173 0.86979 0.0
Co532 Co 0.10206 0.75886 0.81063 0.0
O533 O 0.09829 0.7702 0.84784 0.0
C534 C 0.0965 0.75822 0.91212 0.0
O535 O 0.08431 0.75187 0.89359 0.0
C536 C 0.06856 0.78533 0.80258 0.0
O537 O 0.07588 0.79754 0.82034 0.0
O538 O 0.11603 0.78204 0.79721 0.0
O539 O 0.12982 0.79387 0.83564 0.0
H540 H 0.14044 0.74085 0.72626 0.0
H541 H 0.07855 0.78811 0.88649 0.0
O542 O 0.10974 0.76985 0.90538 0.0
H543 H 0.10531 0.85226 0.8709 0.0
H544 H 0.14778 0.81527 0.95263 0.0
H545 H 0.16072 0.7864 0.8609 0.0
H546 H 0.1253 0.82366 0.86459 0.0
H547 H 0.12165 0.80117 0.92502 0.0
O548 O 0.07733 0.7699 0.79681 0.0
H549 H 0.13522 0.75482 0.77278 0.0
H550 H 0.07672 0.73893 0.76984 0.0
H551 H 0.18724 0.8005 0.8877 0.0
H552 H 0.05816 0.81629 0.89345 0.0
H553 H 0.18084 0.81506 0.93392 0.0
H554 H 0.07149 0.8487 0.88556 0.0
O555 O 0.13552 0.75881 0.86426 0.0
H556 H 0.04771 0.72418 0.85657 0.0
H557 H 0.10933 0.71684 0.8082 0.0
H558 H 0.09233 0.68824 0.82484 0.0
H559 H 0.06122 0.69179 0.84915 0.0
H560 H 0.0654 0.75241 0.84002 0.0
H561 H 0.08128 0.72493 0.72321 0.0
H562 H 0.11335 0.72577 0.70115 0.0
O563 O 0.12661 0.74691 0.82291 0.0
C564 C 0.12731 0.79367 0.80938 0.0
C565 C 0.12641 0.74035 0.73568 0.0
C566 C 0.09321 0.73144 0.73395 0.0
N567 N 0.10571 0.74761 0.77408 0.0
C568 C 0.12338 0.7482 0.76204 0.0
C569 C 0.0907 0.73945 0.76034 0.0
C570 C 0.1112 0.73191 0.72159 0.0
C571 C 0.0846 0.8021 0.88348 0.0
N572 N 0.10321 0.80415 0.87553 0.0
C573 C 0.07292 0.81804 0.88725 0.0
C574 C 0.08038 0.83622 0.88275 0.0
C575 C 0.09935 0.83822 0.8745 0.0
C576 C 0.11059 0.82195 0.8709 0.0
C577 C 0.15074 0.809 0.93248 0.0
C578 C 0.1578 0.79283 0.88091 0.0
C579 C 0.13601 0.80096 0.91678 0.0
N580 N 0.13963 0.79311 0.89126 0.0
C581 C 0.17288 0.80074 0.89603 0.0
C582 C 0.16929 0.80889 0.92198 0.0
C583 C 0.1375 0.74708 0.84419 0.0
C584 C 0.06126 0.72243 0.84602 0.0
C585 C 0.09597 0.71854 0.8191 0.0
C586 C 0.08632 0.70227 0.82831 0.0
C587 C 0.06886 0.70427 0.84189 0.0
N588 N 0.08847 0.73631 0.82332 0.0
C589 C 0.07131 0.73837 0.83652 0.0
Co590 Co 0.22727 0.11825 0.87113 0.0
Co591 Co 0.25029 0.10345 0.81111 0.0
O592 O 0.23908 0.09816 0.84811 0.0
C593 C 0.24981 0.09406 0.91275 0.0
O594 O 0.25624 0.08227 0.89372 0.0
C595 C 0.22628 0.06819 0.80238 0.0
O596 O 0.21468 0.07352 0.82235 0.0
O597 O 0.22634 0.11604 0.7985 0.0
O598 O 0.21582 0.13047 0.83722 0.0
H599 H 0.26555 0.14444 0.7282 0.0
H600 H 0.21985 0.0775 0.88549 0.0
O601 O 0.23838 0.10756 0.90647 0.0
H602 H 0.1565 0.10571 0.86854 0.0
H603 H 0.19263 0.14467 0.95462 0.0
H604 H 0.22353 0.16017 0.86517 0.0
H605 H 0.18557 0.12529 0.86429 0.0
H606 H 0.2068 0.11926 0.9257 0.0
O607 O 0.24068 0.0784 0.79595 0.0
H608 H 0.25205 0.13749 0.77453 0.0
H609 H 0.27179 0.08027 0.76937 0.0
H610 H 0.20938 0.18601 0.89332 0.0
H611 H 0.19117 0.0575 0.89051 0.0
H612 H 0.1938 0.17832 0.9384 0.0
H613 H 0.15917 0.07156 0.88189 0.0
O614 O 0.25062 0.13415 0.86784 0.0
H615 H 0.28866 0.05065 0.85444 0.0
H616 H 0.29163 0.11397 0.80982 0.0
H617 H 0.32134 0.09864 0.82579 0.0
H618 H 0.31999 0.06672 0.8482 0.0
H619 H 0.25926 0.06662 0.8385 0.0
H620 H 0.28537 0.08657 0.7229 0.0
H621 H 0.28235 0.11887 0.70206 0.0
O622 O 0.26067 0.12864 0.82424 0.0
C623 C 0.21533 0.12774 0.81096 0.0
C624 C 0.26701 0.13033 0.7371 0.0
C625 C 0.27811 0.09784 0.73411 0.0
N626 N 0.26125 0.10854 0.77475 0.0
C627 C 0.25944 0.12632 0.76336 0.0
C628 C 0.27036 0.09435 0.76041 0.0
C629 C 0.27642 0.11597 0.72243 0.0
C630 C 0.20604 0.08385 0.88217 0.0
N631 N 0.20447 0.10262 0.87487 0.0
C632 C 0.18981 0.07239 0.88483 0.0
C633 C 0.17186 0.08027 0.87992 0.0
C634 C 0.17036 0.09941 0.87239 0.0
C635 C 0.1869 0.11042 0.86991 0.0
C636 C 0.19934 0.1482 0.93498 0.0
C637 C 0.21665 0.1567 0.88467 0.0
C638 C 0.20742 0.13387 0.91854 0.0
N639 N 0.21583 0.13821 0.89364 0.0
C640 C 0.20872 0.1714 0.90056 0.0
C641 C 0.2 0.16707 0.92587 0.0
C642 C 0.26136 0.13781 0.84715 0.0
C643 C 0.28944 0.06455 0.84466 0.0
C644 C 0.29088 0.10015 0.81976 0.0
C645 C 0.30778 0.0915 0.82865 0.0
C646 C 0.30701 0.07358 0.84119 0.0
N647 N 0.2737 0.09119 0.82323 0.0
C648 C 0.27284 0.07363 0.83549 0.0
Co649 Co 0.89283 0.22949 0.86989 0.0
Co650 Co 0.90534 0.25276 0.80989 0.0
O651 O 0.91186 0.24186 0.84625 0.0
C652 C 0.90925 0.25654 0.91199 0.0
O653 O 0.90475 0.271 0.89587 0.0
C654 C 0.94003 0.22931 0.79841 0.0
O655 O 0.93242 0.21547 0.81314 0.0
O656 O 0.89405 0.22803 0.79763 0.0
O657 O 0.87908 0.21874 0.83662 0.0
H658 H 0.86267 0.26568 0.72796 0.0
H659 H 0.93386 0.22257 0.88066 0.0
O660 O 0.90608 0.23946 0.90406 0.0
H661 H 0.90633 0.15906 0.86187 0.0
H662 H 0.87061 0.19298 0.95421 0.0
H663 H 0.85072 0.22549 0.86791 0.0
H664 H 0.88599 0.18777 0.8614 0.0
H665 H 0.8945 0.20797 0.92347 0.0
O666 O 0.93097 0.2449 0.79495 0.0
H667 H 0.87087 0.25255 0.77406 0.0
H668 H 0.92679 0.27561 0.76782 0.0
H669 H 0.82637 0.21052 0.89792 0.0
H670 H 0.9547 0.19419 0.88165 0.0
H671 H 0.83627 0.19412 0.94142 0.0
H672 H 0.94095 0.16216 0.87211 0.0
O673 O 0.87658 0.25279 0.86853 0.0
H674 H 0.95514 0.29424 0.85471 0.0
H675 H 0.89236 0.29335 0.80829 0.0
H676 H 0.9056 0.32393 0.82486 0.0
H677 H 0.93724 0.32451 0.8482 0.0
H678 H 0.94129 0.26394 0.83803 0.0
H679 H 0.91925 0.28888 0.72155 0.0
H680 H 0.88697 0.284 0.70137 0.0
O681 O 0.87965 0.26136 0.82371 0.0
C682 C 0.88198 0.21755 0.8104 0.0
C683 C 0.87677 0.26795 0.73656 0.0
C684 C 0.90854 0.28094 0.73295 0.0
N685 N 0.89924 0.26341 0.7737 0.0
C686 C 0.88148 0.26058 0.76269 0.0
C687 C 0.91274 0.27336 0.75912 0.0
C688 C 0.89042 0.27821 0.72164 0.0
C689 C 0.92775 0.20865 0.87674 0.0
N690 N 0.90873 0.20683 0.87101 0.0
C691 C 0.93963 0.19265 0.87722 0.0
C692 C 0.93191 0.17469 0.87182 0.0
C693 C 0.91249 0.17294 0.86604 0.0
C694 C 0.90105 0.18926 0.8657 0.0
C695 C 0.86612 0.20005 0.93528 0.0
C696 C 0.85515 0.21828 0.88672 0.0
C697 C 0.87958 0.2086 0.91782 0.0
N698 N 0.87402 0.21748 0.89381 0.0
C699 C 0.84129 0.20987 0.90367 0.0
C700 C 0.84685 0.20069 0.92809 0.0
C701 C 0.87153 0.2626 0.84743 0.0
C702 C 0.94137 0.29418 0.8445 0.0
C703 C 0.90612 0.29347 0.81849 0.0
C704 C 0.91356 0.31084 0.82778 0.0
C705 C 0.93131 0.31115 0.84087 0.0
N706 N 0.9161 0.27689 0.82205 0.0
C707 C 0.93349 0.27708 0.83492 0.0
Co708 Co 0.78252 0.12016 0.64072 0.0
Co709 Co 0.75913 0.1085 0.70126 0.0
O710 O 0.77015 0.10145 0.66508 0.0
C711 C 0.75524 0.103 0.59963 0.0
O712 O 0.74095 0.10731 0.61619 0.0
C713 C 0.78253 0.07371 0.71309 0.0
O714 O 0.79539 0.07989 0.69541 0.0
O715 O 0.78366 0.12035 0.71304 0.0
O716 O 0.79343 0.13433 0.67353 0.0
H717 H 0.74554 0.15272 0.7812 0.0
H718 H 0.78938 0.07906 0.63023 0.0
O719 O 0.77237 0.10653 0.60698 0.0
H720 H 0.85295 0.1066 0.64858 0.0
H721 H 0.81884 0.14116 0.55555 0.0
H722 H 0.7866 0.16226 0.6415 0.0
H723 H 0.82425 0.12695 0.64917 0.0
H724 H 0.80388 0.11772 0.58704 0.0
O725 O 0.76748 0.08341 0.71773 0.0
H726 H 0.7588 0.14372 0.73547 0.0
H727 H 0.73659 0.08762 0.74434 0.0
H728 H 0.80153 0.18618 0.61072 0.0
H729 H 0.81776 0.05823 0.629 0.0
H730 H 0.81779 0.17566 0.56738 0.0
H731 H 0.84982 0.07198 0.63835 0.0
O732 O 0.75927 0.13646 0.64167 0.0
H733 H 0.7186 0.05699 0.65877 0.0
H734 H 0.71829 0.12077 0.70225 0.0
H735 H 0.68798 0.10661 0.68629 0.0
H736 H 0.688 0.07447 0.66443 0.0
H737 H 0.74863 0.07176 0.67482 0.0
H738 H 0.72321 0.09598 0.79026 0.0
H739 H 0.7276 0.12876 0.80893 0.0
O740 O 0.75003 0.13373 0.68626 0.0
C741 C 0.7944 0.13197 0.69987 0.0
C742 C 0.74348 0.13841 0.77325 0.0
C743 C 0.73097 0.10656 0.77835 0.0
N744 N 0.74835 0.11522 0.73715 0.0
C745 C 0.75091 0.13325 0.74734 0.0
C746 C 0.73861 0.1019 0.75236 0.0
C747 C 0.73343 0.12495 0.78881 0.0
C748 C 0.80331 0.08518 0.63404 0.0
N749 N 0.80514 0.10419 0.6398 0.0
C750 C 0.81931 0.0733 0.63344 0.0
C751 C 0.83729 0.08102 0.63873 0.0
C752 C 0.83906 0.10043 0.64452 0.0
C753 C 0.82273 0.11187 0.64497 0.0
C754 C 0.81183 0.14592 0.5744 0.0
C755 C 0.79376 0.15757 0.62276 0.0
C756 C 0.8033 0.13271 0.59229 0.0
N757 N 0.7945 0.13861 0.6162 0.0
C758 C 0.80214 0.17118 0.60538 0.0
C759 C 0.81124 0.16527 0.58106 0.0
C760 C 0.74908 0.1416 0.66233 0.0
C761 C 0.7184 0.07098 0.66835 0.0
C762 C 0.71843 0.10679 0.6927 0.0
C763 C 0.70121 0.09884 0.68375 0.0
C764 C 0.70124 0.0808 0.67149 0.0
N765 N 0.7352 0.09704 0.68962 0.0
C766 C 0.73535 0.07938 0.67756 0.0
Co767 Co 0.88735 0.78577 0.63741 0.0
Co768 Co 0.90608 0.76436 0.69591 0.0
O769 O 0.90873 0.77588 0.65908 0.0
C770 C 0.90457 0.75864 0.5965 0.0
O771 O 0.90275 0.74487 0.61486 0.0
C772 C 0.93466 0.78641 0.72898 0.0
O773 O 0.92086 0.7908 0.74636 0.0
O774 O 0.8913 0.78702 0.70948 0.0
O775 O 0.87507 0.79649 0.67159 0.0
H776 H 0.87074 0.74541 0.78262 0.0
H777 H 0.92706 0.79539 0.62132 0.0
O778 O 0.89933 0.77558 0.60245 0.0
H779 H 0.89552 0.85721 0.63843 0.0
H780 H 0.85735 0.81733 0.55402 0.0
H781 H 0.84535 0.78686 0.64491 0.0
H782 H 0.8777 0.82707 0.64367 0.0
H783 H 0.8841 0.80526 0.58239 0.0
O784 O 0.93093 0.77679 0.70704 0.0
H785 H 0.87428 0.7596 0.73589 0.0
H786 H 0.93304 0.74468 0.7348 0.0
H787 H 0.8182 0.79887 0.61732 0.0
H788 H 0.94538 0.82521 0.61557 0.0
H789 H 0.82412 0.81423 0.57152 0.0
H790 H 0.9296 0.85641 0.62418 0.0
O791 O 0.87287 0.76149 0.64239 0.0
H792 H 0.95963 0.73204 0.64462 0.0
H793 H 0.9009 0.72205 0.69924 0.0
H794 H 0.91827 0.6942 0.68077 0.0
H795 H 0.94792 0.6991 0.6533 0.0
H796 H 0.94165 0.75949 0.66317 0.0
H797 H 0.93015 0.73039 0.78153 0.0
H798 H 0.89881 0.73068 0.80574 0.0
O799 O 0.88167 0.75135 0.68489 0.0
C800 C 0.8785 0.79719 0.69767 0.0
C801 C 0.88446 0.74519 0.77227 0.0
C802 C 0.91781 0.73676 0.77167 0.0
N803 N 0.90383 0.75295 0.73262 0.0
C804 C 0.88655 0.75318 0.74581 0.0
C805 C 0.91936 0.74488 0.74522 0.0
C806 C 0.90022 0.73692 0.78524 0.0
C807 C 0.92007 0.80891 0.62497 0.0
N808 N 0.90132 0.80948 0.63275 0.0
C809 C 0.93053 0.82575 0.62174 0.0
C810 C 0.92167 0.84325 0.6266 0.0
C811 C 0.90256 0.84371 0.63462 0.0
C812 C 0.89255 0.82659 0.63764 0.0
C813 C 0.85459 0.81069 0.57397 0.0
C814 C 0.84805 0.79364 0.62507 0.0
C815 C 0.86967 0.8038 0.5901 0.0
N816 N 0.86629 0.79549 0.61537 0.0
C817 C 0.83261 0.80036 0.60951 0.0
C818 C 0.83595 0.80896 0.58381 0.0
C819 C 0.87114 0.75028 0.6632 0.0
C820 C 0.94674 0.72971 0.65659 0.0
C821 C 0.91367 0.72431 0.68712 0.0
C822 C 0.92351 0.70848 0.67682 0.0
C823 C 0.94015 0.71124 0.66144 0.0
N824 N 0.92023 0.74239 0.68232 0.0
C825 C 0.93653 0.7452 0.66723 0.0
Co826 Co 0.22808 0.88886 0.6406 0.0
Co827 Co 0.24948 0.90593 0.70124 0.0
O828 O 0.23865 0.90974 0.66362 0.0
C829 C 0.25233 0.91235 0.60042 0.0
O830 O 0.25769 0.92438 0.61982 0.0
C831 C 0.22465 0.94138 0.7063 0.0
O832 O 0.21712 0.93841 0.68169 0.0
O833 O 0.2267 0.89077 0.71308 0.0
O834 O 0.21519 0.87767 0.67391 0.0
H835 H 0.26764 0.86653 0.78448 0.0
H836 H 0.2212 0.92918 0.62276 0.0
O837 O 0.24083 0.89872 0.60584 0.0
H838 H 0.15734 0.90112 0.6358 0.0
H839 H 0.19741 0.86022 0.55541 0.0
H840 H 0.22388 0.84711 0.64858 0.0
H841 H 0.1862 0.88189 0.64408 0.0
H842 H 0.21027 0.88638 0.58422 0.0
O843 O 0.2369 0.92978 0.71624 0.0
H844 H 0.2544 0.87217 0.73762 0.0
H845 H 0.26723 0.93128 0.74419 0.0
H846 H 0.21101 0.82055 0.62056 0.0
H847 H 0.19277 0.94877 0.61371 0.0
H848 H 0.19766 0.82703 0.5736 0.0
H849 H 0.16049 0.93481 0.62034 0.0
O850 O 0.25108 0.87279 0.64713 0.0
H851 H 0.2832 0.96208 0.65797 0.0
H852 H 0.29158 0.90065 0.70635 0.0
H853 H 0.31993 0.91897 0.69197 0.0
H854 H 0.31585 0.95 0.6677 0.0
H855 H 0.25529 0.94309 0.67216 0.0
H856 H 0.28044 0.9263 0.7912 0.0
H857 H 0.28078 0.89372 0.8116 0.0
O858 O 0.26282 0.88224 0.68832 0.0
C859 C 0.21518 0.87971 0.70027 0.0
C860 C 0.26763 0.88078 0.77578 0.0
C861 C 0.27478 0.91433 0.77957 0.0
N862 N 0.26015 0.902 0.73808 0.0
C863 C 0.2602 0.88405 0.74923 0.0
C864 C 0.26723 0.91707 0.75296 0.0
C865 C 0.27498 0.89605 0.791 0.0
C866 C 0.20731 0.92283 0.62525 0.0
N867 N 0.20549 0.90431 0.63372 0.0
C868 C 0.1912 0.93408 0.6203 0.0
C869 C 0.1731 0.92626 0.62409 0.0
C870 C 0.17132 0.90737 0.6328 0.0
C871 C 0.18775 0.89657 0.63757 0.0
C872 C 0.20315 0.85722 0.57586 0.0
C873 C 0.21797 0.85006 0.62825 0.0
C874 C 0.21049 0.87197 0.59225 0.0
N875 N 0.21768 0.86829 0.61816 0.0
C876 C 0.21076 0.83496 0.61244 0.0
C877 C 0.20329 0.8386 0.58609 0.0
C878 C 0.26292 0.87127 0.66712 0.0
C879 C 0.28517 0.9486 0.66859 0.0
C880 C 0.28966 0.91399 0.6955 0.0
C881 C 0.30578 0.92438 0.68756 0.0
C882 C 0.30349 0.9418 0.674 0.0
N883 N 0.27172 0.92073 0.69014 0.0
C884 C 0.26938 0.93781 0.67686 0.0
Co885 Co 0.12317 0.22718 0.63832 0.0
Co886 Co 0.10591 0.24951 0.69701 0.0
O887 O 0.1022 0.23835 0.65982 0.0
C888 C 0.09917 0.24855 0.59529 0.0
O889 O 0.08704 0.255 0.61382 0.0
C890 C 0.07536 0.22963 0.72917 0.0
O891 O 0.08868 0.22364 0.74631 0.0
O892 O 0.1182 0.22551 0.71039 0.0
O893 O 0.13483 0.21626 0.67292 0.0
H894 H 0.14246 0.26433 0.78438 0.0
H895 H 0.08277 0.21842 0.62379 0.0
O896 O 0.11291 0.23763 0.60232 0.0
H897 H 0.11315 0.15599 0.64003 0.0
H898 H 0.1531 0.19334 0.55666 0.0
H899 H 0.16502 0.225 0.6467 0.0
H900 H 0.13173 0.18569 0.64459 0.0
H901 H 0.12641 0.20662 0.584 0.0
O902 O 0.07992 0.23949 0.70781 0.0
H903 H 0.13783 0.25086 0.73742 0.0
H904 H 0.08082 0.27145 0.73591 0.0
H905 H 0.1921 0.21176 0.62016 0.0
H906 H 0.06373 0.18909 0.61867 0.0
H907 H 0.18621 0.19579 0.57479 0.0
H908 H 0.07891 0.15755 0.62683 0.0
O909 O 0.13802 0.25113 0.64256 0.0
H910 H 0.05492 0.28809 0.64946 0.0
H911 H 0.1164 0.29084 0.69926 0.0
H912 H 0.1018 0.3206 0.68213 0.0
H913 H 0.0708 0.31936 0.65712 0.0
H914 H 0.07017 0.25863 0.66652 0.0
H915 H 0.08481 0.28511 0.78288 0.0
H916 H 0.11582 0.2816 0.80742 0.0
O917 O 0.13173 0.26003 0.68655 0.0
C918 C 0.13088 0.21515 0.69879 0.0
C919 C 0.12889 0.26598 0.77389 0.0
C920 C 0.09653 0.27763 0.77305 0.0
N921 N 0.1091 0.26041 0.73391 0.0
C922 C 0.12619 0.25839 0.74729 0.0
C923 C 0.09435 0.26986 0.74646 0.0
C924 C 0.11393 0.27566 0.78681 0.0
C925 C 0.08957 0.20481 0.62703 0.0
N926 N 0.10845 0.20384 0.63405 0.0
C927 C 0.07868 0.18821 0.62426 0.0
C928 C 0.08719 0.17052 0.62889 0.0
C929 C 0.10639 0.16964 0.6363 0.0
C930 C 0.11684 0.18653 0.63889 0.0
C931 C 0.15584 0.20023 0.57643 0.0
C932 C 0.16233 0.21796 0.62707 0.0
C933 C 0.14079 0.20781 0.59198 0.0
N934 N 0.14414 0.21643 0.61705 0.0
C935 C 0.17773 0.21054 0.61209 0.0
C936 C 0.17442 0.2016 0.58662 0.0
C937 C 0.14118 0.26147 0.66388 0.0
C938 C 0.06843 0.28882 0.66035 0.0
C939 C 0.10301 0.29012 0.68813 0.0
C940 C 0.09476 0.30705 0.67862 0.0
C941 C 0.07735 0.30635 0.66462 0.0
N942 N 0.09418 0.27296 0.68384 0.0
C943 C 0.0771 0.27218 0.67016 0.0
Co944 Co 0.7406 0.62355 0.64781 0.0
Co945 Co 0.77846 0.59787 0.6755 0.0
O946 O 0.7518 0.60693 0.67658 0.0
C947 C 0.73252 0.64531 0.69956 0.0
O948 O 0.74983 0.64141 0.70835 0.0
C949 C 0.75526 0.56313 0.69327 0.0
O950 O 0.73946 0.57052 0.68338 0.0
O951 O 0.77521 0.5884 0.63634 0.0
O952 O 0.75397 0.60902 0.61809 0.0
H953 H 0.84347 0.59056 0.6326 0.0
H954 H 0.7147 0.60548 0.68883 0.0
O955 O 0.72658 0.6387 0.67649 0.0
H956 H 0.69354 0.58161 0.5973 0.0
H957 H 0.6879 0.66119 0.60225 0.0
H958 H 0.75561 0.64224 0.59698 0.0
H959 H 0.72046 0.60416 0.60084 0.0
H960 H 0.70191 0.64016 0.63798 0.0
O961 O 0.77109 0.57196 0.69056 0.0
H962 H 0.81008 0.60164 0.63492 0.0
H963 H 0.80321 0.57496 0.7137 0.0
H964 H 0.74213 0.66317 0.56067 0.0
H965 H 0.68747 0.58319 0.68622 0.0
H966 H 0.70804 0.67278 0.56318 0.0
H967 H 0.6768 0.57102 0.64021 0.0
O968 O 0.76237 0.64179 0.65062 0.0
H969 H 0.75865 0.60713 0.77525 0.0
H970 H 0.80822 0.62072 0.70517 0.0
H971 H 0.81192 0.63324 0.75279 0.0
H972 H 0.78704 0.6264 0.78828 0.0
H973 H 0.7554 0.59514 0.72728 0.0
H974 H 0.83644 0.56344 0.71209 0.0
H975 H 0.85684 0.5713 0.67137 0.0
O976 O 0.78738 0.62329 0.66151 0.0
C977 C 0.76586 0.59537 0.61589 0.0
C978 C 0.83473 0.58707 0.65047 0.0
C979 C 0.83077 0.57182 0.69506 0.0
N980 N 0.80471 0.58901 0.67444 0.0
C981 C 0.81583 0.59333 0.65193 0.0
C982 C 0.81194 0.57833 0.6958 0.0
C983 C 0.84222 0.57625 0.67222 0.0
C984 C 0.71002 0.60037 0.66872 0.0
N985 N 0.71922 0.60603 0.64505 0.0
C986 C 0.69465 0.5877 0.66738 0.0
C987 C 0.68868 0.58085 0.64156 0.0
C988 C 0.69809 0.58676 0.61748 0.0
C989 C 0.7134 0.59945 0.61963 0.0
C990 C 0.70277 0.65708 0.6009 0.0
C991 C 0.74073 0.64628 0.59813 0.0
C992 C 0.71079 0.64521 0.62111 0.0
N993 N 0.72953 0.63988 0.61947 0.0
C994 C 0.7332 0.65817 0.57754 0.0
C995 C 0.71407 0.66357 0.57898 0.0
C996 C 0.78019 0.63933 0.65459 0.0
C997 C 0.76962 0.61015 0.76 0.0
C998 C 0.79727 0.61778 0.72038 0.0
C999 C 0.79948 0.62485 0.74738 0.0
C1000 C 0.78554 0.62099 0.76729 0.0
N1001 N 0.78165 0.60711 0.71338 0.0
C1002 C 0.76791 0.6033 0.73281 0.0
Co1003 Co 0.38755 0.73879 0.65003 0.0
Co1004 Co 0.41344 0.77704 0.67598 0.0
O1005 O 0.40424 0.75049 0.67825 0.0
C1006 C 0.36541 0.73205 0.70188 0.0
O1007 O 0.36931 0.74955 0.70984 0.0
C1008 C 0.44872 0.75425 0.69166 0.0
O1009 O 0.44261 0.73934 0.67772 0.0
O1010 O 0.42292 0.773 0.63694 0.0
O1011 O 0.4022 0.75143 0.61973 0.0
H1012 H 0.42137 0.84115 0.63053 0.0
H1013 H 0.40592 0.71419 0.69235 0.0
O1014 O 0.37228 0.72549 0.67932 0.0
H1015 H 0.42899 0.69017 0.60189 0.0
H1016 H 0.34953 0.68538 0.60687 0.0
H1017 H 0.369 0.75279 0.59852 0.0
H1018 H 0.40642 0.71714 0.60407 0.0
H1019 H 0.37065 0.70001 0.64197 0.0
O1020 O 0.43909 0.76969 0.69172 0.0
H1021 H 0.41006 0.80789 0.6341 0.0
H1022 H 0.43624 0.80242 0.71343 0.0
H1023 H 0.348 0.73866 0.5628 0.0
H1024 H 0.42828 0.68699 0.69115 0.0
H1025 H 0.33812 0.70472 0.56687 0.0
H1026 H 0.44004 0.67487 0.64567 0.0
O1027 O 0.36943 0.76073 0.65188 0.0
H1028 H 0.40429 0.75939 0.77652 0.0
H1029 H 0.39032 0.80728 0.70421 0.0
H1030 H 0.3777 0.81187 0.75162 0.0
H1031 H 0.38472 0.78784 0.78822 0.0
H1032 H 0.4164 0.75524 0.72872 0.0
H1033 H 0.44799 0.83554 0.71061 0.0
H1034 H 0.4405 0.85517 0.66898 0.0
O1035 O 0.38818 0.78582 0.66142 0.0
C1036 C 0.41586 0.76326 0.61692 0.0
C1037 C 0.42472 0.83274 0.64879 0.0
C1038 C 0.43969 0.82958 0.69371 0.0
N1039 N 0.42248 0.80321 0.67393 0.0
C1040 C 0.41834 0.81391 0.65093 0.0
C1041 C 0.43307 0.8108 0.69513 0.0
C1042 C 0.43547 0.84059 0.67035 0.0
C1043 C 0.41087 0.70889 0.67248 0.0
N1044 N 0.40495 0.71729 0.64832 0.0
C1045 C 0.42357 0.69353 0.67193 0.0
C1046 C 0.43018 0.68676 0.64641 0.0
C1047 C 0.42402 0.69535 0.62184 0.0
C1048 C 0.41132 0.71069 0.62321 0.0
C1049 C 0.35375 0.70017 0.60485 0.0
C1050 C 0.36485 0.73798 0.60034 0.0
C1051 C 0.36567 0.70856 0.6247 0.0
N1052 N 0.37114 0.72721 0.62221 0.0
C1053 C 0.35292 0.73007 0.5801 0.0
C1054 C 0.34737 0.71103 0.5824 0.0
C1055 C 0.37206 0.77861 0.655 0.0
C1056 C 0.40117 0.76998 0.76078 0.0
C1057 C 0.39332 0.79669 0.71991 0.0
C1058 C 0.3862 0.79941 0.74679 0.0
C1059 C 0.39016 0.78593 0.76732 0.0
N1060 N 0.40411 0.78102 0.71364 0.0
C1061 C 0.40806 0.76775 0.73368 0.0
Co1062 Co 0.27267 0.38725 0.65415 0.0
Co1063 Co 0.23259 0.41162 0.67616 0.0
O1064 O 0.25931 0.40347 0.68116 0.0
C1065 C 0.27919 0.36558 0.70649 0.0
O1066 O 0.26132 0.36848 0.71355 0.0
C1067 C 0.2534 0.44758 0.69279 0.0
O1068 O 0.26795 0.44266 0.67714 0.0
O1069 O 0.2383 0.42189 0.63814 0.0
O1070 O 0.26012 0.40087 0.62256 0.0
H1071 H 0.17048 0.41813 0.62467 0.0
H1072 H 0.29476 0.4078 0.6972 0.0
O1073 O 0.286 0.37305 0.6845 0.0
H1074 H 0.32079 0.4301 0.60751 0.0
H1075 H 0.32894 0.35138 0.61496 0.0
H1076 H 0.26088 0.36726 0.60264 0.0
H1077 H 0.29501 0.40611 0.60887 0.0
H1078 H 0.31245 0.37226 0.64858 0.0
O1079 O 0.23853 0.43711 0.69366 0.0
H1080 H 0.20379 0.40771 0.63128 0.0
H1081 H 0.20492 0.43324 0.71144 0.0
H1082 H 0.27687 0.34647 0.56835 0.0
H1083 H 0.32073 0.43163 0.69688 0.0
H1084 H 0.31115 0.3384 0.57443 0.0
H1085 H 0.33385 0.44299 0.65177 0.0
O1086 O 0.25164 0.36816 0.65581 0.0
H1087 H 0.24453 0.40153 0.77828 0.0
H1088 H 0.20221 0.38624 0.69933 0.0
H1089 H 0.1954 0.37255 0.74555 0.0
H1090 H 0.21661 0.38022 0.78545 0.0
H1091 H 0.25095 0.41474 0.73164 0.0
H1092 H 0.17168 0.44407 0.70565 0.0
H1093 H 0.1542 0.43647 0.66204 0.0
O1094 O 0.2254 0.38637 0.65941 0.0
C1095 C 0.24847 0.41461 0.61878 0.0
C1096 C 0.17794 0.42154 0.64377 0.0
C1097 C 0.17862 0.43612 0.68919 0.0
N1098 N 0.20632 0.41989 0.67166 0.0
C1099 C 0.19681 0.41567 0.64762 0.0
C1100 C 0.19748 0.43001 0.69231 0.0
C1101 C 0.16882 0.43183 0.66473 0.0
C1102 C 0.30049 0.41261 0.67751 0.0
N1103 N 0.29329 0.40571 0.65308 0.0
C1104 C 0.31515 0.42613 0.67745 0.0
C1105 C 0.32249 0.43252 0.65214 0.0
C1106 C 0.31515 0.42531 0.6273 0.0
C1107 C 0.30047 0.41183 0.62818 0.0
C1108 C 0.31401 0.35482 0.61206 0.0
C1109 C 0.27583 0.3639 0.60532 0.0
C1110 C 0.30458 0.36659 0.63107 0.0
N1111 N 0.28574 0.37107 0.62747 0.0
C1112 C 0.28479 0.35208 0.58589 0.0
C1113 C 0.30402 0.34754 0.58932 0.0
C1114 C 0.23359 0.3703 0.65582 0.0
C1115 C 0.23514 0.39814 0.76108 0.0
C1116 C 0.21156 0.38961 0.71655 0.0
C1117 C 0.20759 0.38184 0.7427 0.0
C1118 C 0.21949 0.38616 0.76508 0.0
N1119 N 0.22692 0.40138 0.7128 0.0
C1120 C 0.23866 0.40565 0.73464 0.0
Co1121 Co 0.62125 0.27121 0.65331 0.0
Co1122 Co 0.59863 0.23033 0.67627 0.0
O1123 O 0.60581 0.25738 0.68078 0.0
C1124 C 0.64293 0.27898 0.70529 0.0
O1125 O 0.64075 0.26107 0.71269 0.0
C1126 C 0.56213 0.25 0.6929 0.0
O1127 O 0.56674 0.26467 0.67729 0.0
O1128 O 0.58795 0.23533 0.6383 0.0
O1129 O 0.60792 0.25794 0.62217 0.0
H1130 H 0.59421 0.16766 0.62573 0.0
H1131 H 0.60036 0.29289 0.69647 0.0
O1132 O 0.63516 0.28529 0.68322 0.0
H1133 H 0.57601 0.31713 0.60689 0.0
H1134 H 0.65449 0.32866 0.6128 0.0
H1135 H 0.64128 0.25994 0.60157 0.0
H1136 H 0.60097 0.29231 0.60811 0.0
H1137 H 0.63457 0.31153 0.64698 0.0
O1138 O 0.57298 0.23541 0.69387 0.0
H1139 H 0.60337 0.2014 0.63172 0.0
H1140 H 0.57822 0.20213 0.71216 0.0
H1141 H 0.66112 0.27656 0.56672 0.0
H1142 H 0.57556 0.31792 0.69627 0.0
H1143 H 0.66785 0.31117 0.57224 0.0
H1144 H 0.56317 0.33013 0.65122 0.0
O1145 O 0.64116 0.25098 0.65478 0.0
H1146 H 0.60871 0.24343 0.77809 0.0
H1147 H 0.62527 0.20116 0.69962 0.0
H1148 H 0.63942 0.19524 0.7458 0.0
H1149 H 0.63112 0.21643 0.78546 0.0
H1150 H 0.59505 0.24897 0.73149 0.0
H1151 H 0.56866 0.16844 0.70698 0.0
H1152 H 0.57671 0.15095 0.66354 0.0
O1153 O 0.62409 0.22402 0.65934 0.0
C1154 C 0.59467 0.2457 0.61875 0.0
C1155 C 0.59063 0.17512 0.64476 0.0
C1156 C 0.57626 0.17557 0.69034 0.0
N1157 N 0.59135 0.20374 0.67224 0.0
C1158 C 0.5958 0.19423 0.64827 0.0
C1159 C 0.58166 0.19467 0.69311 0.0
C1160 C 0.5808 0.16576 0.66598 0.0
C1161 C 0.5951 0.29824 0.67681 0.0
N1162 N 0.60198 0.29107 0.65233 0.0
C1163 C 0.58104 0.31236 0.67681 0.0
C1164 C 0.57407 0.31919 0.65153 0.0
C1165 C 0.58125 0.31188 0.62665 0.0
C1166 C 0.59529 0.29775 0.62746 0.0
C1167 C 0.65164 0.31358 0.61014 0.0
C1168 C 0.64405 0.27503 0.60401 0.0
C1169 C 0.64041 0.30379 0.62947 0.0
N1170 N 0.63667 0.28477 0.62617 0.0
C1171 C 0.65534 0.28435 0.58426 0.0
C1172 C 0.65912 0.30376 0.58738 0.0
C1173 C 0.63976 0.23285 0.65508 0.0
C1174 C 0.61239 0.23406 0.761 0.0
C1175 C 0.62163 0.21049 0.71674 0.0
C1176 C 0.62966 0.20703 0.74286 0.0
C1177 C 0.62498 0.21892 0.76511 0.0
N1178 N 0.60925 0.22534 0.71287 0.0
C1179 C 0.60463 0.23707 0.73458 0.0
Co1180 Co 0.74025 0.38719 0.85942 0.0
Co1181 Co 0.77907 0.41295 0.83834 0.0
O1182 O 0.75238 0.40484 0.83311 0.0
C1183 C 0.73047 0.36874 0.8058 0.0
O1184 O 0.74813 0.37151 0.79752 0.0
C1185 C 0.75815 0.4488 0.8212 0.0
O1186 O 0.74306 0.44339 0.83536 0.0
O1187 O 0.77295 0.42273 0.87652 0.0
O1188 O 0.75521 0.39802 0.89102 0.0
H1189 H 0.84068 0.41931 0.89114 0.0
H1190 H 0.71521 0.41008 0.82279 0.0
O1191 O 0.7248 0.37533 0.82904 0.0
H1192 H 0.69753 0.42854 0.91846 0.0
H1193 H 0.68541 0.35034 0.90089 0.0
H1194 H 0.75454 0.36324 0.90586 0.0
H1195 H 0.72253 0.40444 0.91017 0.0
H1196 H 0.70052 0.37299 0.86832 0.0
O1197 O 0.77325 0.43864 0.82142 0.0
H1198 H 0.80742 0.40892 0.88382 0.0
H1199 H 0.80702 0.43487 0.8039 0.0
H1200 H 0.73999 0.34063 0.93898 0.0
H1201 H 0.6899 0.43406 0.83014 0.0
H1202 H 0.70518 0.33404 0.93661 0.0
H1203 H 0.68097 0.44348 0.87828 0.0
O1204 O 0.76072 0.36824 0.85245 0.0
H1205 H 0.76758 0.40391 0.7359 0.0
H1206 H 0.80981 0.38817 0.81474 0.0
H1207 H 0.81692 0.37513 0.76822 0.0
H1208 H 0.79576 0.38303 0.72837 0.0
H1209 H 0.76085 0.41647 0.78285 0.0
H1210 H 0.84021 0.44569 0.81048 0.0
H1211 H 0.8573 0.43785 0.85431 0.0
O1212 O 0.78634 0.38734 0.85453 0.0
C1213 C 0.76533 0.41276 0.8958 0.0
C1214 C 0.8334 0.4228 0.87193 0.0
C1215 C 0.83312 0.43762 0.82668 0.0
N1216 N 0.80528 0.42124 0.84344 0.0
C1217 C 0.81457 0.41693 0.86765 0.0
C1218 C 0.8143 0.43152 0.82313 0.0
C1219 C 0.84271 0.43321 0.85127 0.0
C1220 C 0.71125 0.41398 0.84379 0.0
N1221 N 0.72032 0.40587 0.866 0.0
C1222 C 0.69698 0.42762 0.84783 0.0
C1223 C 0.692 0.43292 0.87484 0.0
C1224 C 0.7013 0.42456 0.89739 0.0
C1225 C 0.71551 0.41098 0.89256 0.0
C1226 C 0.70059 0.35312 0.90216 0.0
C1227 C 0.73937 0.36054 0.90478 0.0
C1228 C 0.70923 0.3659 0.88374 0.0
N1229 N 0.72838 0.36953 0.88529 0.0
C1230 C 0.73122 0.34768 0.92356 0.0
C1231 C 0.71169 0.34398 0.9222 0.0
C1232 C 0.77866 0.37079 0.8544 0.0
C1233 C 0.77695 0.40042 0.75308 0.0
C1234 C 0.80048 0.39163 0.79755 0.0
C1235 C 0.80462 0.38423 0.77123 0.0
C1236 C 0.79274 0.38868 0.74888 0.0
N1237 N 0.78498 0.40317 0.8015 0.0
C1238 C 0.77326 0.40756 0.77969 0.0
Co1239 Co 0.6268 0.74109 0.86159 0.0
Co1240 Co 0.59778 0.77686 0.8366 0.0
O1241 O 0.60795 0.75069 0.83468 0.0
C1242 C 0.64531 0.73104 0.8081 0.0
O1243 O 0.6412 0.74821 0.79894 0.0
C1244 C 0.56417 0.75223 0.81759 0.0
O1245 O 0.57344 0.73637 0.82282 0.0
O1246 O 0.58983 0.77287 0.87639 0.0
O1247 O 0.61494 0.75614 0.8921 0.0
H1248 H 0.58897 0.84123 0.88093 0.0
H1249 H 0.60628 0.71265 0.82712 0.0
O1250 O 0.63972 0.7257 0.83205 0.0
H1251 H 0.58916 0.69732 0.92416 0.0
H1252 H 0.6682 0.69086 0.90605 0.0
H1253 H 0.64961 0.75874 0.90686 0.0
H1254 H 0.611 0.72398 0.91371 0.0
H1255 H 0.64429 0.70302 0.87283 0.0
O1256 O 0.57168 0.76839 0.82326 0.0
H1257 H 0.60152 0.80844 0.87729 0.0
H1258 H 0.57238 0.80069 0.80056 0.0
H1259 H 0.67345 0.74714 0.9406 0.0
H1260 H 0.58458 0.68568 0.83666 0.0
H1261 H 0.68291 0.71297 0.94033 0.0
H1262 H 0.57583 0.67792 0.88548 0.0
O1263 O 0.64414 0.76282 0.85343 0.0
H1264 H 0.60574 0.75818 0.73598 0.0
H1265 H 0.61767 0.80817 0.80601 0.0
H1266 H 0.62852 0.81307 0.75778 0.0
H1267 H 0.62248 0.788 0.72228 0.0
H1268 H 0.59547 0.75375 0.78449 0.0
H1269 H 0.55935 0.83331 0.80356 0.0
H1270 H 0.56771 0.85386 0.8439 0.0
O1271 O 0.62333 0.78695 0.84902 0.0
C1272 C 0.60009 0.76622 0.89611 0.0
C1273 C 0.58525 0.83242 0.86323 0.0
C1274 C 0.5686 0.82797 0.81983 0.0
N1275 N 0.58774 0.80266 0.83872 0.0
C1276 C 0.59234 0.81385 0.86103 0.0
C1277 C 0.57596 0.80947 0.81832 0.0
C1278 C 0.5733 0.83949 0.84246 0.0
C1279 C 0.60265 0.70926 0.84842 0.0
N1280 N 0.60986 0.71991 0.86979 0.0
C1281 C 0.5903 0.69402 0.85369 0.0
C1282 C 0.58538 0.68969 0.88109 0.0
C1283 C 0.59283 0.70059 0.9028 0.0
C1284 C 0.60512 0.71573 0.89673 0.0
C1285 C 0.66418 0.70577 0.90641 0.0
C1286 C 0.65356 0.74383 0.9067 0.0
C1287 C 0.65068 0.71275 0.88761 0.0
N1288 N 0.64546 0.73155 0.88801 0.0
C1289 C 0.66711 0.73735 0.92582 0.0
C1290 C 0.67242 0.71818 0.92564 0.0
C1291 C 0.64031 0.78057 0.8519 0.0
C1292 C 0.60835 0.76927 0.7512 0.0
C1293 C 0.61505 0.79715 0.7908 0.0
C1294 C 0.62118 0.80003 0.76345 0.0
C1295 C 0.61778 0.78598 0.74355 0.0
N1296 N 0.60569 0.78078 0.79817 0.0
C1297 C 0.60241 0.7669 0.77875 0.0
Co1298 Co 0.27164 0.62439 0.86317 0.0
Co1299 Co 0.23421 0.59764 0.83615 0.0
O1300 O 0.26067 0.60728 0.83477 0.0
C1301 C 0.27874 0.64623 0.81114 0.0
O1302 O 0.2615 0.64181 0.8026 0.0
C1303 C 0.25805 0.56339 0.81785 0.0
O1304 O 0.274 0.57173 0.82537 0.0
O1305 O 0.23761 0.5888 0.8756 0.0
O1306 O 0.25887 0.60967 0.89324 0.0
H1307 H 0.16933 0.58969 0.87928 0.0
H1308 H 0.2977 0.60683 0.82192 0.0
O1309 O 0.28505 0.63979 0.83412 0.0
H1310 H 0.32017 0.58401 0.91333 0.0
H1311 H 0.32368 0.66369 0.90747 0.0
H1312 H 0.25654 0.64294 0.91405 0.0
H1313 H 0.29265 0.60582 0.91 0.0
H1314 H 0.30996 0.64209 0.8722 0.0
O1315 O 0.24204 0.57161 0.82192 0.0
H1316 H 0.2025 0.6014 0.8766 0.0
H1317 H 0.20991 0.57364 0.79871 0.0
H1318 H 0.26974 0.66442 0.94993 0.0
H1319 H 0.32552 0.58528 0.8243 0.0
H1320 H 0.30354 0.67493 0.94676 0.0
H1321 H 0.33686 0.57365 0.87026 0.0
O1322 O 0.2494 0.64206 0.86053 0.0
H1323 H 0.25378 0.60633 0.73613 0.0
H1324 H 0.20389 0.61931 0.80595 0.0
H1325 H 0.19981 0.63115 0.75804 0.0
H1326 H 0.22485 0.62461 0.72268 0.0
H1327 H 0.2574 0.59503 0.78434 0.0
H1328 H 0.17691 0.56148 0.8007 0.0
H1329 H 0.15635 0.56956 0.84115 0.0
O1330 O 0.22483 0.62304 0.84938 0.0
C1331 C 0.24706 0.59597 0.89581 0.0
C1332 C 0.17815 0.58609 0.86153 0.0
C1333 C 0.18241 0.57023 0.81745 0.0
N1334 N 0.20813 0.58826 0.8375 0.0
C1335 C 0.19692 0.59271 0.85987 0.0
C1336 C 0.20112 0.5771 0.8165 0.0
C1337 C 0.17087 0.57479 0.84014 0.0
C1338 C 0.30266 0.60194 0.842 0.0
N1339 N 0.29349 0.60747 0.86577 0.0
C1340 C 0.31837 0.58969 0.84321 0.0
C1341 C 0.32471 0.58315 0.869 0.0
C1342 C 0.31533 0.58893 0.89317 0.0
C1343 C 0.29968 0.60119 0.89115 0.0
C1344 C 0.30894 0.65918 0.90911 0.0
C1345 C 0.2713 0.64738 0.91262 0.0
C1346 C 0.30108 0.64699 0.88916 0.0
N1347 N 0.28249 0.64117 0.89116 0.0
C1348 C 0.27867 0.65957 0.93295 0.0
C1349 C 0.29763 0.66548 0.93115 0.0
C1350 C 0.23166 0.63922 0.85634 0.0
C1351 C 0.24272 0.60919 0.75131 0.0
C1352 C 0.21489 0.61647 0.79078 0.0
C1353 C 0.21247 0.62317 0.76362 0.0
C1354 C 0.22651 0.61948 0.74379 0.0
N1355 N 0.23079 0.60631 0.79801 0.0
C1356 C 0.24464 0.60271 0.77866 0.0
Co1357 Co 0.38739 0.26867 0.861 0.0
Co1358 Co 0.4116 0.2287 0.83827 0.0
O1359 O 0.40365 0.25555 0.83372 0.0
C1360 C 0.36608 0.27617 0.80865 0.0
O1361 O 0.36883 0.25837 0.80112 0.0
C1362 C 0.44744 0.24942 0.82033 0.0
O1363 O 0.44209 0.26469 0.83409 0.0
O1364 O 0.42201 0.23415 0.87626 0.0
O1365 O 0.4007 0.25551 0.89234 0.0
H1366 H 0.4178 0.16633 0.88915 0.0
H1367 H 0.40806 0.2916 0.819 0.0
O1368 O 0.37347 0.2826 0.83093 0.0
H1369 H 0.43051 0.31548 0.90987 0.0
H1370 H 0.35185 0.32465 0.90171 0.0
H1371 H 0.36699 0.25626 0.91186 0.0
H1372 H 0.40647 0.2898 0.9073 0.0
H1373 H 0.37275 0.30849 0.86776 0.0
O1374 O 0.4372 0.23437 0.82083 0.0
H1375 H 0.40769 0.19978 0.88298 0.0
H1376 H 0.43279 0.20098 0.80251 0.0
H1377 H 0.34618 0.2719 0.94646 0.0
H1378 H 0.43193 0.31752 0.82055 0.0
H1379 H 0.33848 0.30634 0.94148 0.0
H1380 H 0.44337 0.32955 0.86625 0.0
O1381 O 0.36814 0.24788 0.85843 0.0
H1382 H 0.40133 0.24143 0.7364 0.0
H1383 H 0.38594 0.19866 0.81479 0.0
H1384 H 0.37207 0.19229 0.76856 0.0
H1385 H 0.37978 0.21373 0.72893 0.0
H1386 H 0.41471 0.24742 0.78306 0.0
H1387 H 0.4433 0.16761 0.80789 0.0
H1388 H 0.43575 0.15002 0.85142 0.0
O1389 O 0.38629 0.2216 0.85505 0.0
C1390 C 0.41455 0.24397 0.89584 0.0
C1391 C 0.42116 0.17384 0.87008 0.0
C1392 C 0.4355 0.17456 0.82449 0.0
N1393 N 0.41963 0.20234 0.84243 0.0
C1394 C 0.41546 0.19277 0.86646 0.0
C1395 C 0.42956 0.19349 0.82161 0.0
C1396 C 0.43125 0.1647 0.84891 0.0
C1397 C 0.4129 0.29687 0.83895 0.0
N1398 N 0.40601 0.28912 0.86302 0.0
C1399 C 0.42645 0.3115 0.8397 0.0
C1400 C 0.43288 0.31823 0.86535 0.0
C1401 C 0.42569 0.31032 0.88983 0.0
C1402 C 0.41217 0.2957 0.88825 0.0
C1403 C 0.35513 0.30964 0.90413 0.0
C1404 C 0.36379 0.27128 0.90965 0.0
C1405 C 0.36691 0.3004 0.88493 0.0
N1406 N 0.37118 0.28147 0.88793 0.0
C1407 C 0.35196 0.28004 0.92926 0.0
C1408 C 0.34763 0.29936 0.92644 0.0
C1409 C 0.37021 0.22983 0.85839 0.0
C1410 C 0.39791 0.23194 0.75347 0.0
C1411 C 0.38933 0.20811 0.79769 0.0
C1412 C 0.38146 0.20439 0.77153 0.0
C1413 C 0.3858 0.21642 0.74931 0.0
N1414 N 0.40123 0.22334 0.80161 0.0
C1415 C 0.40553 0.23521 0.77992 0.0
Co1416 Co 0.28308 0.391 0.37262 0.0
Co1417 Co 0.26138 0.40511 0.3119 0.0
O1418 O 0.272 0.41093 0.34887 0.0
C1419 C 0.25633 0.40805 0.41482 0.0
O1420 O 0.24173 0.40405 0.39868 0.0
C1421 C 0.28308 0.44217 0.30467 0.0
O1422 O 0.29323 0.43863 0.32698 0.0
O1423 O 0.28587 0.39303 0.30049 0.0
O1424 O 0.29362 0.37704 0.33932 0.0
H1425 H 0.24833 0.36297 0.22938 0.0
H1426 H 0.29222 0.43126 0.38632 0.0
O1427 O 0.2733 0.40439 0.40684 0.0
H1428 H 0.35426 0.40071 0.36719 0.0
H1429 H 0.31711 0.36605 0.4575 0.0
H1430 H 0.28496 0.34878 0.36971 0.0
H1431 H 0.32443 0.38216 0.36435 0.0
H1432 H 0.30383 0.391 0.42693 0.0
O1433 O 0.27042 0.43037 0.29645 0.0
H1434 H 0.26103 0.37071 0.27591 0.0
H1435 H 0.23981 0.42732 0.26915 0.0
H1436 H 0.29819 0.32338 0.39956 0.0
H1437 H 0.32176 0.45027 0.38993 0.0
H1438 H 0.3144 0.33196 0.44382 0.0
H1439 H 0.35306 0.43502 0.38017 0.0
O1440 O 0.25904 0.37595 0.37024 0.0
H1441 H 0.22109 0.45606 0.35631 0.0
H1442 H 0.22034 0.39378 0.30846 0.0
H1443 H 0.19001 0.40807 0.32408 0.0
H1444 H 0.19026 0.43947 0.34812 0.0
H1445 H 0.2511 0.44117 0.34058 0.0
H1446 H 0.22701 0.42022 0.22245 0.0
H1447 H 0.23118 0.38783 0.20232 0.0
O1448 O 0.25153 0.37974 0.3252 0.0
C1449 C 0.2955 0.3803 0.31328 0.0
C1450 C 0.24638 0.37712 0.23797 0.0
C1451 C 0.23443 0.40926 0.23406 0.0
N1452 N 0.25106 0.3994 0.27534 0.0
C1453 C 0.25349 0.38158 0.26434 0.0
C1454 C 0.24175 0.4132 0.26049 0.0
C1455 C 0.23677 0.39108 0.22278 0.0
C1456 C 0.3058 0.42448 0.38228 0.0
N1457 N 0.30656 0.40565 0.37495 0.0
C1458 C 0.32247 0.43533 0.38425 0.0
C1459 C 0.34003 0.42678 0.37873 0.0
C1460 C 0.34071 0.40754 0.37139 0.0
C1461 C 0.32374 0.39714 0.36962 0.0
C1462 C 0.31011 0.36213 0.43825 0.0
C1463 C 0.29209 0.35263 0.38886 0.0
C1464 C 0.30253 0.37619 0.42087 0.0
N1465 N 0.29374 0.37136 0.39645 0.0
C1466 C 0.29951 0.33818 0.40571 0.0
C1467 C 0.30859 0.34301 0.43055 0.0
C1468 C 0.24948 0.37145 0.34866 0.0
C1469 C 0.22079 0.44242 0.34574 0.0
C1470 C 0.22058 0.40745 0.31892 0.0
C1471 C 0.20335 0.41548 0.32769 0.0
C1472 C 0.2035 0.43309 0.34117 0.0
N1473 N 0.23748 0.41674 0.32333 0.0
C1474 C 0.23774 0.43396 0.33666 0.0
Co1475 Co 0.62028 0.2833 0.37458 0.0
Co1476 Co 0.6034 0.26095 0.31517 0.0
O1477 O 0.59947 0.27264 0.35193 0.0
C1478 C 0.60353 0.25603 0.41606 0.0
O1479 O 0.60652 0.24185 0.39872 0.0
C1480 C 0.5677 0.28521 0.30908 0.0
O1481 O 0.5709 0.29364 0.33298 0.0
O1482 O 0.61809 0.28372 0.30225 0.0
O1483 O 0.63304 0.29408 0.34075 0.0
H1484 H 0.64283 0.24151 0.23252 0.0
H1485 H 0.58049 0.29224 0.39147 0.0
O1486 O 0.60792 0.27307 0.40925 0.0
H1487 H 0.61028 0.35447 0.37107 0.0
H1488 H 0.64774 0.31644 0.45857 0.0
H1489 H 0.66238 0.2854 0.36892 0.0
H1490 H 0.62874 0.32471 0.36636 0.0
H1491 H 0.62191 0.3034 0.42933 0.0
O1492 O 0.57923 0.27265 0.29979 0.0
H1493 H 0.63712 0.25578 0.27873 0.0
H1494 H 0.57825 0.24164 0.27345 0.0
H1495 H 0.68864 0.29838 0.39742 0.0
H1496 H 0.56162 0.32169 0.39699 0.0
H1497 H 0.68139 0.31404 0.4426 0.0
H1498 H 0.57648 0.3531 0.3866 0.0
O1499 O 0.63555 0.25942 0.37075 0.0
H1500 H 0.54917 0.22767 0.36384 0.0
H1501 H 0.60898 0.21877 0.31139 0.0
H1502 H 0.5915 0.19059 0.32847 0.0
H1503 H 0.5613 0.19494 0.35483 0.0
H1504 H 0.56724 0.25543 0.34669 0.0
H1505 H 0.5833 0.22739 0.22708 0.0
H1506 H 0.61579 0.22719 0.20638 0.0
O1507 O 0.62741 0.2484 0.32852 0.0
C1508 C 0.63027 0.29439 0.31449 0.0
C1509 C 0.62861 0.24146 0.24136 0.0
C1510 C 0.5952 0.23356 0.23829 0.0
N1511 N 0.60741 0.24943 0.27888 0.0
C1512 C 0.6253 0.24947 0.26755 0.0
C1513 C 0.59242 0.24171 0.26452 0.0
C1514 C 0.61344 0.23344 0.22669 0.0
C1515 C 0.58713 0.30585 0.38716 0.0
N1516 N 0.60568 0.30671 0.37844 0.0
C1517 C 0.57634 0.32248 0.39021 0.0
C1518 C 0.58467 0.34009 0.38433 0.0
C1519 C 0.60362 0.34087 0.37557 0.0
C1520 C 0.61397 0.32394 0.37275 0.0
C1521 C 0.65108 0.30968 0.4389 0.0
C1522 C 0.6591 0.29229 0.38848 0.0
C1523 C 0.63651 0.30224 0.42227 0.0
N1524 N 0.64062 0.29376 0.39734 0.0
C1525 C 0.67403 0.29957 0.40456 0.0
C1526 C 0.66995 0.30833 0.42992 0.0
C1527 C 0.63771 0.24791 0.35043 0.0
C1528 C 0.56227 0.22558 0.35228 0.0
C1529 C 0.59592 0.22081 0.32293 0.0
C1530 C 0.58604 0.20478 0.33249 0.0
C1531 C 0.5691 0.20722 0.34726 0.0
N1532 N 0.5891 0.23878 0.32779 0.0
C1533 C 0.57254 0.24127 0.34237 0.0
Co1534 Co 0.72768 0.61793 0.37288 0.0
Co1535 Co 0.7512 0.60584 0.31253 0.0
O1536 O 0.74014 0.5991 0.34878 0.0
C1537 C 0.7555 0.60126 0.41339 0.0
O1538 O 0.76939 0.60529 0.39599 0.0
C1539 C 0.72762 0.57109 0.30095 0.0
O1540 O 0.71482 0.57727 0.31872 0.0
O1541 O 0.72675 0.61769 0.30056 0.0
O1542 O 0.71652 0.63167 0.33985 0.0
H1543 H 0.76498 0.64947 0.23197 0.0
H1544 H 0.72132 0.57687 0.38433 0.0
O1545 O 0.73821 0.60476 0.40678 0.0
H1546 H 0.65741 0.60343 0.36568 0.0
H1547 H 0.69148 0.63923 0.45798 0.0
H1548 H 0.72305 0.65997 0.37133 0.0
H1549 H 0.68588 0.62411 0.36446 0.0
H1550 H 0.7066 0.6157 0.42679 0.0
O1551 O 0.74273 0.58071 0.29633 0.0
H1552 H 0.75166 0.64082 0.2778 0.0
H1553 H 0.77371 0.58461 0.26979 0.0
H1554 H 0.70795 0.68396 0.40181 0.0
H1555 H 0.69318 0.55571 0.38618 0.0
H1556 H 0.69203 0.67363 0.44549 0.0
H1557 H 0.66095 0.56897 0.37669 0.0
O1558 O 0.7507 0.63456 0.37147 0.0
H1559 H 0.79146 0.55443 0.35565 0.0
H1560 H 0.79208 0.61799 0.31155 0.0
H1561 H 0.82232 0.60382 0.32775 0.0
H1562 H 0.82214 0.5718 0.34992 0.0
H1563 H 0.76151 0.56921 0.33935 0.0
H1564 H 0.78714 0.59261 0.22378 0.0
H1565 H 0.78287 0.62526 0.20463 0.0
O1566 O 0.76034 0.63112 0.32716 0.0
C1567 C 0.71584 0.62927 0.31349 0.0
C1568 C 0.76699 0.63521 0.24013 0.0
C1569 C 0.77941 0.60329 0.23552 0.0
N1570 N 0.76203 0.61229 0.27656 0.0
C1571 C 0.75953 0.63025 0.26611 0.0
C1572 C 0.77173 0.59884 0.26156 0.0
C1573 C 0.77701 0.62162 0.22479 0.0
C1574 C 0.70732 0.58277 0.38046 0.0
N1575 N 0.70526 0.60169 0.37429 0.0
C1576 C 0.69145 0.57071 0.38141 0.0
C1577 C 0.67337 0.57815 0.37604 0.0
C1578 C 0.67138 0.59748 0.36982 0.0
C1579 C 0.68757 0.6091 0.36902 0.0
C1580 C 0.69834 0.6439 0.43898 0.0
C1581 C 0.71604 0.65535 0.39022 0.0
C1582 C 0.70696 0.63065 0.42126 0.0
N1583 N 0.71557 0.63645 0.39715 0.0
C1584 C 0.70756 0.66901 0.40743 0.0
C1585 C 0.69865 0.6632 0.43195 0.0
C1586 C 0.76097 0.63945 0.35077 0.0
C1587 C 0.79173 0.56837 0.34594 0.0
C1588 C 0.79187 0.60407 0.32123 0.0
C1589 C 0.80904 0.5961 0.33032 0.0
C1590 C 0.80893 0.57813 0.34275 0.0
N1591 N 0.77506 0.59438 0.32436 0.0
C1592 C 0.77483 0.57678 0.33658 0.0
Co1593 Co 0.39183 0.72707 0.37145 0.0
Co1594 Co 0.40891 0.74895 0.3117 0.0
O1595 O 0.41272 0.73737 0.3486 0.0
C1596 C 0.40801 0.75442 0.41366 0.0
O1597 O 0.40446 0.76882 0.39695 0.0
C1598 C 0.44377 0.72361 0.30532 0.0
O1599 O 0.43994 0.71477 0.3287 0.0
O1600 O 0.39372 0.72641 0.29896 0.0
O1601 O 0.37901 0.71618 0.33774 0.0
H1602 H 0.36969 0.76885 0.22911 0.0
H1603 H 0.43155 0.71798 0.38836 0.0
O1604 O 0.40425 0.73738 0.40613 0.0
H1605 H 0.4013 0.6558 0.36908 0.0
H1606 H 0.364 0.6947 0.45584 0.0
H1607 H 0.34972 0.72525 0.36574 0.0
H1608 H 0.38306 0.68566 0.36391 0.0
H1609 H 0.38997 0.70733 0.42647 0.0
O1610 O 0.43283 0.73678 0.29636 0.0
H1611 H 0.37521 0.75462 0.27538 0.0
H1612 H 0.43433 0.76762 0.26972 0.0
H1613 H 0.32332 0.71267 0.39436 0.0
H1614 H 0.45021 0.68843 0.39434 0.0
H1615 H 0.33039 0.69727 0.43977 0.0
H1616 H 0.43512 0.65705 0.38451 0.0
O1617 O 0.37672 0.75103 0.36723 0.0
H1618 H 0.46398 0.78128 0.35959 0.0
H1619 H 0.40412 0.79122 0.30774 0.0
H1620 H 0.42222 0.8191 0.32453 0.0
H1621 H 0.45245 0.81422 0.35058 0.0
H1622 H 0.44529 0.75383 0.34274 0.0
H1623 H 0.42946 0.78182 0.2233 0.0
H1624 H 0.39694 0.78257 0.20275 0.0
O1625 O 0.38516 0.76194 0.32505 0.0
C1626 C 0.38152 0.71587 0.31142 0.0
C1627 C 0.38392 0.76865 0.23788 0.0
C1628 C 0.41747 0.77591 0.2346 0.0
N1629 N 0.40504 0.7604 0.27534 0.0
C1630 C 0.38713 0.76066 0.2641 0.0
C1631 C 0.42015 0.76779 0.26087 0.0
C1632 C 0.39922 0.77634 0.22309 0.0
C1633 C 0.42481 0.70438 0.38431 0.0
N1634 N 0.40625 0.70358 0.37565 0.0
C1635 C 0.43549 0.68769 0.38761 0.0
C1636 C 0.42702 0.6701 0.38205 0.0
C1637 C 0.40806 0.66939 0.37333 0.0
C1638 C 0.39783 0.68637 0.37025 0.0
C1639 C 0.36074 0.70135 0.43607 0.0
C1640 C 0.35292 0.71846 0.3854 0.0
C1641 C 0.37538 0.70857 0.41937 0.0
N1642 N 0.37137 0.71691 0.39432 0.0
C1643 C 0.33791 0.71141 0.40155 0.0
C1644 C 0.34189 0.70279 0.42704 0.0
C1645 C 0.37476 0.76254 0.34685 0.0
C1646 C 0.45086 0.78359 0.34818 0.0
C1647 C 0.41717 0.78896 0.31919 0.0
C1648 C 0.42741 0.80481 0.32857 0.0
C1649 C 0.44437 0.80207 0.34316 0.0
N1650 N 0.42365 0.77087 0.32408 0.0
C1651 C 0.44024 0.76808 0.33847 0.0
Co1652 Co 0.28156 0.61992 0.14024 0.0
Co1653 Co 0.25996 0.60606 0.20122 0.0
O1654 O 0.27042 0.60013 0.16418 0.0
C1655 C 0.25419 0.60288 0.09902 0.0
O1656 O 0.23995 0.60664 0.11592 0.0
C1657 C 0.28219 0.56946 0.20887 0.0
O1658 O 0.29295 0.57359 0.18737 0.0
O1659 O 0.28454 0.61807 0.2124 0.0
O1660 O 0.29253 0.63375 0.17338 0.0
H1661 H 0.2474 0.64828 0.28379 0.0
H1662 H 0.29004 0.57954 0.12656 0.0
O1663 O 0.27131 0.60666 0.1062 0.0
H1664 H 0.35265 0.60935 0.14432 0.0
H1665 H 0.3152 0.64448 0.05473 0.0
H1666 H 0.284 0.66211 0.14311 0.0
H1667 H 0.32309 0.62827 0.1477 0.0
H1668 H 0.30187 0.61968 0.08556 0.0
O1669 O 0.26898 0.5808 0.21656 0.0
H1670 H 0.25987 0.64048 0.23714 0.0
H1671 H 0.23848 0.58393 0.24419 0.0
H1672 H 0.2973 0.68736 0.11302 0.0
H1673 H 0.3193 0.56016 0.12241 0.0
H1674 H 0.31302 0.67859 0.06846 0.0
H1675 H 0.35088 0.57505 0.13148 0.0
O1676 O 0.25772 0.63524 0.14295 0.0
H1677 H 0.21944 0.55504 0.15745 0.0
H1678 H 0.21895 0.61749 0.20483 0.0
H1679 H 0.18856 0.60321 0.18945 0.0
H1680 H 0.18867 0.57173 0.16564 0.0
H1681 H 0.24952 0.56991 0.17296 0.0
H1682 H 0.22592 0.59109 0.291 0.0
H1683 H 0.23028 0.62348 0.31106 0.0
O1684 O 0.25013 0.63143 0.18796 0.0
C1685 C 0.29437 0.63058 0.19945 0.0
C1686 C 0.24536 0.63413 0.27524 0.0
C1687 C 0.23332 0.60202 0.27931 0.0
N1688 N 0.2498 0.61182 0.23786 0.0
C1689 C 0.25234 0.62964 0.24881 0.0
C1690 C 0.24051 0.59805 0.25281 0.0
C1691 C 0.23577 0.6202 0.29054 0.0
C1692 C 0.30374 0.58616 0.13029 0.0
N1693 N 0.30482 0.60499 0.13751 0.0
C1694 C 0.32025 0.57509 0.12803 0.0
C1695 C 0.33797 0.58345 0.13316 0.0
C1696 C 0.33896 0.60268 0.14042 0.0
C1697 C 0.32215 0.6133 0.14249 0.0
C1698 C 0.30841 0.64847 0.07412 0.0
C1699 C 0.29093 0.65818 0.12384 0.0
C1700 C 0.3008 0.6345 0.09164 0.0
N1701 N 0.29228 0.63944 0.11622 0.0
C1702 C 0.29839 0.67254 0.10685 0.0
C1703 C 0.30719 0.66761 0.08184 0.0
C1704 C 0.24814 0.63974 0.16451 0.0
C1705 C 0.21919 0.56872 0.16791 0.0
C1706 C 0.21913 0.60379 0.19446 0.0
C1707 C 0.20187 0.59577 0.18583 0.0
C1708 C 0.20194 0.57811 0.17248 0.0
N1709 N 0.236 0.59445 0.19003 0.0
C1710 C 0.23618 0.57717 0.17685 0.0
Co1711 Co 0.39135 0.28286 0.14064 0.0
Co1712 Co 0.40798 0.26023 0.20013 0.0
O1713 O 0.41201 0.27215 0.1635 0.0
C1714 C 0.40767 0.25535 0.09904 0.0
O1715 O 0.4045 0.24119 0.11634 0.0
C1716 C 0.44312 0.28522 0.20707 0.0
O1717 O 0.4399 0.29372 0.18324 0.0
O1718 O 0.39261 0.2826 0.21311 0.0
O1719 O 0.37866 0.29382 0.17434 0.0
H1720 H 0.3682 0.23944 0.2817 0.0
H1721 H 0.43124 0.29138 0.1239 0.0
O1722 O 0.40364 0.27244 0.106 0.0
H1723 H 0.40202 0.35396 0.14364 0.0
H1724 H 0.3643 0.31597 0.05637 0.0
H1725 H 0.34926 0.28534 0.14617 0.0
H1726 H 0.38327 0.32438 0.14852 0.0
H1727 H 0.38997 0.30281 0.08576 0.0
O1728 O 0.43174 0.27242 0.21608 0.0
H1729 H 0.37403 0.25401 0.23573 0.0
H1730 H 0.43318 0.24146 0.24229 0.0
H1731 H 0.32316 0.29844 0.11752 0.0
H1732 H 0.45041 0.32065 0.11821 0.0
H1733 H 0.33061 0.31388 0.07226 0.0
H1734 H 0.43584 0.35222 0.12827 0.0
O1735 O 0.37584 0.25912 0.14454 0.0
H1736 H 0.46328 0.22852 0.15182 0.0
H1737 H 0.40362 0.21792 0.20393 0.0
H1738 H 0.4219 0.19025 0.1869 0.0
H1739 H 0.45204 0.19545 0.16071 0.0
H1740 H 0.44441 0.25574 0.16889 0.0
H1741 H 0.42801 0.22693 0.28843 0.0
H1742 H 0.39531 0.22578 0.30838 0.0
O1743 O 0.38442 0.24718 0.18608 0.0
C1744 C 0.38084 0.29363 0.2007 0.0
C1745 C 0.3825 0.2398 0.27319 0.0
C1746 C 0.41608 0.23281 0.27699 0.0
N1747 N 0.40389 0.24847 0.23623 0.0
C1748 C 0.38588 0.24798 0.24714 0.0
C1749 C 0.41892 0.24111 0.25088 0.0
C1750 C 0.39772 0.23216 0.28816 0.0
C1751 C 0.42473 0.30507 0.12805 0.0
N1752 N 0.40618 0.30613 0.13669 0.0
C1753 C 0.43569 0.32159 0.12492 0.0
C1754 C 0.42751 0.3393 0.13061 0.0
C1755 C 0.40856 0.34028 0.13929 0.0
C1756 C 0.39804 0.32346 0.1422 0.0
C1757 C 0.36087 0.3093 0.07607 0.0
C1758 C 0.35263 0.29214 0.12658 0.0
C1759 C 0.37535 0.30179 0.09279 0.0
N1760 N 0.37113 0.29343 0.11776 0.0
C1761 C 0.33778 0.29949 0.11041 0.0
C1762 C 0.34197 0.30813 0.085 0.0
C1763 C 0.37395 0.24712 0.16432 0.0
C1764 C 0.45021 0.22606 0.16328 0.0
C1765 C 0.41662 0.22032 0.19241 0.0
C1766 C 0.42697 0.20458 0.1829 0.0
C1767 C 0.44388 0.20751 0.16824 0.0
N1768 N 0.42293 0.23849 0.18758 0.0
C1769 C 0.43948 0.24145 0.17313 0.0
Co1770 Co 0.72608 0.39078 0.14199 0.0
Co1771 Co 0.74915 0.40825 0.20107 0.0
O1772 O 0.7374 0.41176 0.16398 0.0
C1773 C 0.74985 0.41328 0.09996 0.0
O1774 O 0.75614 0.42534 0.11871 0.0
C1775 C 0.72444 0.44369 0.20665 0.0
O1776 O 0.71654 0.44059 0.18234 0.0
O1777 O 0.7268 0.39303 0.21446 0.0
O1778 O 0.71391 0.38008 0.17613 0.0
H1779 H 0.76968 0.36953 0.28384 0.0
H1780 H 0.71936 0.43088 0.12329 0.0
O1781 O 0.73809 0.40009 0.10641 0.0
H1782 H 0.65544 0.40401 0.14047 0.0
H1783 H 0.69308 0.3616 0.05906 0.0
H1784 H 0.72165 0.34916 0.15111 0.0
H1785 H 0.68421 0.38446 0.14784 0.0
H1786 H 0.70688 0.38791 0.08662 0.0
O1787 O 0.73684 0.43215 0.21636 0.0
H1788 H 0.75524 0.37476 0.23763 0.0
H1789 H 0.76781 0.43399 0.24268 0.0
H1790 H 0.70785 0.32246 0.12435 0.0
H1791 H 0.691 0.45079 0.11511 0.0
H1792 H 0.69344 0.3286 0.07797 0.0
H1793 H 0.65871 0.43742 0.12383 0.0
O1794 O 0.74903 0.37453 0.14776 0.0
H1795 H 0.78158 0.46414 0.15502 0.0
H1796 H 0.79136 0.40318 0.20407 0.0
H1797 H 0.81928 0.42148 0.18796 0.0
H1798 H 0.81449 0.45229 0.16335 0.0
H1799 H 0.75411 0.44517 0.17092 0.0
H1800 H 0.78222 0.42942 0.28902 0.0
H1801 H 0.7833 0.39699 0.30985 0.0
O1802 O 0.76222 0.38453 0.18775 0.0
C1803 C 0.7148 0.38207 0.20245 0.0
C1804 C 0.76935 0.38372 0.27494 0.0
C1805 C 0.77636 0.41734 0.27787 0.0
N1806 N 0.76079 0.40463 0.23737 0.0
C1807 C 0.76124 0.38676 0.24876 0.0
C1808 C 0.76813 0.41984 0.25165 0.0
C1809 C 0.77697 0.39914 0.28954 0.0
C1810 C 0.70543 0.4248 0.12671 0.0
N1811 N 0.70355 0.40644 0.13585 0.0
C1812 C 0.68938 0.43622 0.12224 0.0
C1813 C 0.67127 0.42873 0.1272 0.0
C1814 C 0.66943 0.41 0.13657 0.0
C1815 C 0.68581 0.39902 0.14084 0.0
C1816 C 0.69928 0.35875 0.07928 0.0
C1817 C 0.71528 0.35197 0.13103 0.0
C1818 C 0.70715 0.37358 0.09496 0.0
N1819 N 0.71492 0.3701 0.12056 0.0
C1820 C 0.70755 0.33678 0.11593 0.0
C1821 C 0.69948 0.34024 0.0899 0.0
C1822 C 0.76154 0.37325 0.16692 0.0
C1823 C 0.78386 0.45077 0.16579 0.0
C1824 C 0.78912 0.41642 0.19311 0.0
C1825 C 0.80501 0.4268 0.18417 0.0
C1826 C 0.80232 0.4441 0.17042 0.0
N1827 N 0.77104 0.42305 0.18854 0.0
C1828 C 0.76832 0.44 0.17504 0.0
Co1829 Co 0.62191 0.72808 0.14174 0.0
Co1830 Co 0.60378 0.75043 0.20099 0.0
O1831 O 0.60061 0.7388 0.16374 0.0
C1832 C 0.59886 0.75147 0.09994 0.0
O1833 O 0.58675 0.75735 0.1189 0.0
C1834 C 0.56937 0.72434 0.20664 0.0
O1835 O 0.57337 0.71581 0.18307 0.0
O1836 O 0.61925 0.72825 0.21426 0.0
O1837 O 0.63271 0.71592 0.17589 0.0
H1838 H 0.64177 0.77117 0.28438 0.0
H1839 H 0.58194 0.72056 0.12296 0.0
O1840 O 0.61241 0.74007 0.10618 0.0
H1841 H 0.61026 0.65718 0.13913 0.0
H1842 H 0.6521 0.6962 0.05865 0.0
H1843 H 0.66357 0.72446 0.15119 0.0
H1844 H 0.62916 0.68634 0.14695 0.0
H1845 H 0.62539 0.7093 0.08613 0.0
O1846 O 0.58005 0.73765 0.21588 0.0
H1847 H 0.63699 0.75683 0.238 0.0
H1848 H 0.57756 0.76854 0.24245 0.0
H1849 H 0.69066 0.71137 0.12451 0.0
H1850 H 0.56268 0.69181 0.11432 0.0
H1851 H 0.685 0.69711 0.07788 0.0
H1852 H 0.57678 0.65979 0.12253 0.0
O1853 O 0.63768 0.75137 0.14789 0.0
H1854 H 0.54728 0.78181 0.15529 0.0
H1855 H 0.60822 0.79275 0.20396 0.0
H1856 H 0.58941 0.82031 0.18784 0.0
H1857 H 0.55863 0.81494 0.16341 0.0
H1858 H 0.56675 0.75469 0.17123 0.0
H1859 H 0.58168 0.78285 0.28896 0.0
H1860 H 0.61398 0.78431 0.31019 0.0
O1861 O 0.62735 0.76396 0.1881 0.0
C1862 C 0.63047 0.71652 0.20221 0.0
C1863 C 0.62763 0.77067 0.27532 0.0
C1864 C 0.5939 0.7772 0.27791 0.0
N1865 N 0.60705 0.76195 0.23744 0.0
C1866 C 0.62484 0.76262 0.24904 0.0
C1867 C 0.59166 0.76903 0.25159 0.0
C1868 C 0.61203 0.77802 0.2898 0.0
C1869 C 0.58834 0.70676 0.12613 0.0
N1870 N 0.60676 0.70525 0.13522 0.0
C1871 C 0.57729 0.69048 0.12141 0.0
C1872 C 0.58519 0.67252 0.12609 0.0
C1873 C 0.60395 0.67106 0.13544 0.0
C1874 C 0.61457 0.68765 0.13995 0.0
C1875 C 0.65474 0.70234 0.07897 0.0
C1876 C 0.66098 0.71816 0.13099 0.0
C1877 C 0.63968 0.70981 0.0946 0.0
N1878 N 0.6429 0.7175 0.12034 0.0
C1879 C 0.67638 0.71082 0.11594 0.0
C1880 C 0.6732 0.70285 0.08977 0.0
C1881 C 0.63869 0.76371 0.16732 0.0
C1882 C 0.56065 0.78435 0.16596 0.0
C1883 C 0.59499 0.79027 0.19305 0.0
C1884 C 0.58432 0.80595 0.18412 0.0
C1885 C 0.56704 0.80293 0.17047 0.0
N1886 N 0.58865 0.77207 0.18855 0.0
C1887 C 0.5717 0.76902 0.1752 0.0
H1888 H 0.34293 0.24519 0.12888 0.0
H1889 H 0.32118 0.13674 0.16099 0.0
H1890 H 0.37164 0.21388 0.19397 0.0
H1891 H 0.27406 0.17504 0.14531 0.0
H1892 H 0.34274 0.16399 0.16194 0.0
H1893 H 0.31987 0.21875 0.12464 0.0
C1894 C 0.34447 0.23281 0.14217 0.0
C1895 C 0.35943 0.23174 0.16166 0.0
C1896 C 0.32768 0.16638 0.15821 0.0
C1897 C 0.33344 0.20149 0.15643 0.0
C1898 C 0.31529 0.15083 0.15769 0.0
C1899 C 0.2956 0.15354 0.15371 0.0
C1900 C 0.32053 0.18484 0.15401 0.0
C1901 C 0.28907 0.17226 0.14883 0.0
C1902 C 0.33129 0.21781 0.13977 0.0
C1903 C 0.36057 0.21537 0.17848 0.0
N1904 N 0.30152 0.18724 0.14908 0.0
N1905 N 0.34794 0.20085 0.17524 0.0
H1906 H 0.87101 0.31896 0.16506 0.0
H1907 H 0.76286 0.34222 0.13149 0.0
H1908 H 0.83288 0.27343 0.14061 0.0
H1909 H 0.79467 0.3702 0.19682 0.0
H1910 H 0.78901 0.319 0.12664 0.0
H1911 H 0.84396 0.34057 0.16756 0.0
C1912 C 0.85698 0.31343 0.16014 0.0
C1913 C 0.85427 0.29413 0.15313 0.0
C1914 C 0.79013 0.33025 0.14201 0.0
C1915 C 0.82314 0.31919 0.15551 0.0
C1916 C 0.77528 0.34353 0.14478 0.0
C1917 C 0.7766 0.35839 0.16442 0.0
C1918 C 0.80653 0.33213 0.15854 0.0
C1919 C 0.793 0.35922 0.1812 0.0
C1920 C 0.84152 0.32585 0.16162 0.0
C1921 C 0.83566 0.28811 0.14639 0.0
N1922 N 0.80736 0.34645 0.17764 0.0
N1923 N 0.82075 0.30062 0.14773 0.0
H1924 H 0.64144 0.79619 0.1988 0.0
H1925 H 0.73928 0.83552 0.14009 0.0
H1926 H 0.66954 0.76634 0.13161 0.0
H1927 H 0.6932 0.87226 0.16661 0.0
H1928 H 0.71718 0.8082 0.14185 0.0
H1929 H 0.66409 0.82227 0.19368 0.0
C1930 C 0.65233 0.79505 0.18293 0.0
C1931 C 0.65329 0.77908 0.16531 0.0
C1932 C 0.71202 0.82231 0.14714 0.0
C1933 C 0.67965 0.80896 0.15977 0.0
C1934 C 0.72458 0.83791 0.14616 0.0
C1935 C 0.71824 0.85627 0.15362 0.0
C1936 C 0.69315 0.82508 0.15616 0.0
C1937 C 0.69896 0.85843 0.16114 0.0
C1938 C 0.66527 0.81002 0.18002 0.0
C1939 C 0.66809 0.77845 0.14547 0.0
N1940 N 0.68723 0.84304 0.16258 0.0
N1941 N 0.68077 0.79316 0.14329 0.0
H1942 H 0.23733 0.6651 0.20465 0.0
H1943 H 0.14187 0.69727 0.13299 0.0
H1944 H 0.22536 0.64844 0.11997 0.0
H1945 H 0.1734 0.73655 0.18469 0.0
H1946 H 0.16978 0.67605 0.13207 0.0
H1947 H 0.2114 0.68858 0.20208 0.0
C1948 C 0.22931 0.66648 0.18547 0.0
C1949 C 0.23353 0.6549 0.16243 0.0
C1950 C 0.17058 0.68939 0.14343 0.0
C1951 C 0.20363 0.6813 0.15967 0.0
C1952 C 0.15468 0.70143 0.14409 0.0
C1953 C 0.15538 0.7187 0.15889 0.0
C1954 C 0.18706 0.69439 0.15835 0.0
C1955 C 0.17233 0.72342 0.17288 0.0
C1956 C 0.21459 0.67988 0.18402 0.0
C1957 C 0.22267 0.65723 0.1381 0.0
N1958 N 0.18743 0.71121 0.1726 0.0
N1959 N 0.208 0.66998 0.13748 0.0
H1960 H 0.27264 0.83236 0.37019 0.0
H1961 H 0.3711 0.79389 0.31334 0.0
H1962 H 0.3175 0.86981 0.34143 0.0
H1963 H 0.3446 0.76606 0.38367 0.0
H1964 H 0.34789 0.81956 0.31688 0.0
H1965 H 0.29552 0.80571 0.36972 0.0
C1966 C 0.28722 0.83501 0.36371 0.0
C1967 C 0.29303 0.85338 0.35541 0.0
C1968 C 0.3472 0.80785 0.33159 0.0
C1969 C 0.31902 0.82295 0.35452 0.0
C1970 C 0.36047 0.79313 0.32962 0.0
C1971 C 0.36009 0.77784 0.34853 0.0
C1972 C 0.33303 0.80719 0.35216 0.0
C1973 C 0.3456 0.77765 0.36884 0.0
C1974 C 0.30023 0.81982 0.36358 0.0
C1975 C 0.31219 0.85594 0.34754 0.0
N1976 N 0.33254 0.79207 0.37003 0.0
N1977 N 0.32438 0.84089 0.34696 0.0
H1978 H 0.23913 0.34605 0.3084 0.0
H1979 H 0.1436 0.31272 0.37865 0.0
H1980 H 0.22659 0.36241 0.39303 0.0
H1981 H 0.1755 0.27445 0.32581 0.0
H1982 H 0.17152 0.3339 0.38084 0.0
H1983 H 0.21347 0.32228 0.31063 0.0
C1984 C 0.23104 0.34455 0.3275 0.0
C1985 C 0.23501 0.35614 0.35061 0.0
C1986 C 0.17241 0.32077 0.36901 0.0
C1987 C 0.20543 0.32935 0.35301 0.0
C1988 C 0.15651 0.30873 0.36765 0.0
C1989 C 0.15727 0.29179 0.35205 0.0
C1990 C 0.18896 0.3161 0.35402 0.0
C1991 C 0.17435 0.28731 0.3382 0.0
C1992 C 0.21648 0.33097 0.32876 0.0
C1993 C 0.22407 0.35363 0.37484 0.0
N1994 N 0.18943 0.29953 0.33916 0.0
N1995 N 0.20956 0.34069 0.37529 0.0
H1996 H 0.7389 0.17687 0.37696 0.0
H1997 H 0.64227 0.21696 0.31632 0.0
H1998 H 0.69405 0.1404 0.34556 0.0
H1999 H 0.66704 0.24402 0.38861 0.0
H2000 H 0.66519 0.19111 0.32071 0.0
H2001 H 0.7163 0.20381 0.3766 0.0
C2002 C 0.72437 0.17446 0.37008 0.0
C2003 C 0.71852 0.1563 0.36087 0.0
C2004 C 0.66558 0.20269 0.33566 0.0
C2005 C 0.69288 0.18706 0.35999 0.0
C2006 C 0.65247 0.21752 0.3332 0.0
C2007 C 0.65241 0.23264 0.35242 0.0
C2008 C 0.67916 0.20304 0.35707 0.0
C2009 C 0.66639 0.23257 0.3735 0.0
C2010 C 0.71152 0.18983 0.36995 0.0
C2011 C 0.69943 0.15408 0.3524 0.0
N2012 N 0.6793 0.21803 0.3752 0.0
N2013 N 0.68744 0.16928 0.35181 0.0
H2014 H 0.77144 0.6663 0.31259 0.0
H2015 H 0.86594 0.6977 0.38521 0.0
H2016 H 0.78263 0.6477 0.3966 0.0
H2017 H 0.83306 0.73897 0.33899 0.0
H2018 H 0.83804 0.67641 0.38588 0.0
H2019 H 0.79651 0.69059 0.3175 0.0
C2020 C 0.7791 0.66744 0.33212 0.0
C2021 C 0.77494 0.65508 0.35428 0.0
C2022 C 0.83692 0.69024 0.37593 0.0
C2023 C 0.80384 0.68237 0.35971 0.0
C2024 C 0.85279 0.70234 0.37548 0.0
C2025 C 0.85172 0.72014 0.36218 0.0
C2026 C 0.82013 0.69573 0.36217 0.0
C2027 C 0.83438 0.72544 0.34973 0.0
C2028 C 0.7933 0.6813 0.33492 0.0
C2029 C 0.78531 0.65709 0.37913 0.0
N2030 N 0.81935 0.71314 0.34959 0.0
N2031 N 0.79953 0.67028 0.38104 0.0
H2032 H 0.74473 0.84538 0.8843 0.0
H2033 H 0.63912 0.81885 0.84025 0.0
H2034 H 0.71604 0.8722 0.81503 0.0
H2035 H 0.67785 0.77452 0.86697 0.0
H2036 H 0.66562 0.84139 0.83981 0.0
H2037 H 0.71886 0.82162 0.88643 0.0
C2038 C 0.73302 0.84637 0.86965 0.0
C2039 C 0.73252 0.86101 0.84961 0.0
C2040 C 0.66829 0.82671 0.84574 0.0
C2041 C 0.7029 0.83413 0.85234 0.0
C2042 C 0.65317 0.81377 0.84598 0.0
C2043 C 0.65625 0.79458 0.85311 0.0
C2044 C 0.68662 0.82063 0.85339 0.0
C2045 C 0.67482 0.7891 0.86096 0.0
C2046 C 0.71835 0.83277 0.87084 0.0
C2047 C 0.71704 0.86141 0.83102 0.0
N2048 N 0.68932 0.80209 0.86101 0.0
N2049 N 0.70279 0.84834 0.83305 0.0
H2050 H 0.14294 0.71644 0.80969 0.0
H2051 H 0.23863 0.67626 0.87372 0.0
H2052 H 0.16685 0.74373 0.88243 0.0
H2053 H 0.19381 0.6398 0.84221 0.0
H2054 H 0.21636 0.70343 0.87178 0.0
H2055 H 0.16598 0.6907 0.81468 0.0
C2056 C 0.15299 0.71709 0.82676 0.0
C2057 C 0.1526 0.73219 0.846 0.0
C2058 C 0.21152 0.68941 0.86541 0.0
C2059 C 0.17946 0.70276 0.85134 0.0
C2060 C 0.22418 0.67391 0.86646 0.0
C2061 C 0.21824 0.65567 0.85771 0.0
C2062 C 0.193 0.6867 0.85497 0.0
C2063 C 0.19926 0.65354 0.84872 0.0
C2064 C 0.16616 0.70233 0.82956 0.0
C2065 C 0.16643 0.73228 0.86729 0.0
N2066 N 0.18746 0.66886 0.84723 0.0
N2067 N 0.17937 0.7178 0.86937 0.0
H2068 H 0.36657 0.19544 0.88476 0.0
H2069 H 0.27427 0.16252 0.80729 0.0
H2070 H 0.3352 0.23612 0.83532 0.0
H2071 H 0.28189 0.14716 0.89353 0.0
H2072 H 0.29978 0.18641 0.81217 0.0
H2073 H 0.33871 0.17405 0.88384 0.0
C2074 C 0.35375 0.19992 0.87395 0.0
C2075 C 0.35306 0.21761 0.86031 0.0
C2076 C 0.29572 0.17788 0.83002 0.0
C2077 C 0.3216 0.19306 0.85841 0.0
C2078 C 0.28127 0.16424 0.82725 0.0
C2079 C 0.27593 0.15296 0.8501 0.0
C2080 C 0.3053 0.17976 0.85552 0.0
C2081 C 0.28548 0.15572 0.87549 0.0
C2082 C 0.33793 0.18776 0.87347 0.0
C2083 C 0.33619 0.22269 0.8464 0.0
N2084 N 0.29993 0.16865 0.87743 0.0
N2085 N 0.32121 0.21033 0.84539 0.0
H2086 H 0.84499 0.27275 0.80866 0.0
H2087 H 0.81301 0.36776 0.88117 0.0
H2088 H 0.86315 0.28488 0.89262 0.0
H2089 H 0.77308 0.33556 0.83146 0.0
H2090 H 0.83443 0.33998 0.88176 0.0
H2091 H 0.82103 0.29817 0.81245 0.0
C2092 C 0.84381 0.28068 0.82796 0.0
C2093 C 0.85596 0.27668 0.85043 0.0
C2094 C 0.82089 0.33901 0.87096 0.0
C2095 C 0.82903 0.306 0.85456 0.0
C2096 C 0.80873 0.35482 0.8705 0.0
C2097 C 0.79124 0.3539 0.8563 0.0
C2098 C 0.81576 0.3224 0.85643 0.0
C2099 C 0.78637 0.3368 0.84281 0.0
C2100 C 0.83014 0.29511 0.83011 0.0
C2101 C 0.85391 0.28741 0.87494 0.0
N2102 N 0.7987 0.3218 0.84285 0.0
N2103 N 0.84089 0.30182 0.87622 0.0
H2104 H 0.67533 0.24105 0.67499 0.0
H2105 H 0.72734 0.14872 0.61622 0.0
H2106 H 0.64391 0.19808 0.62982 0.0
H2107 H 0.73795 0.16885 0.69966 0.0
H2108 H 0.7014 0.17222 0.61185 0.0
H2109 H 0.70339 0.21996 0.67496 0.0
C2110 C 0.67447 0.22735 0.6646 0.0
C2111 C 0.65732 0.22127 0.65236 0.0
C2112 C 0.70959 0.17156 0.63095 0.0
C2113 C 0.6893 0.19735 0.65196 0.0
C2114 C 0.72442 0.1583 0.63341 0.0
C2115 C 0.73476 0.15687 0.65835 0.0
C2116 C 0.7055 0.18382 0.65328 0.0
C2117 C 0.73026 0.16947 0.68012 0.0
C2118 C 0.69039 0.21532 0.66479 0.0
C2119 C 0.65687 0.20326 0.63953 0.0
N2120 N 0.71603 0.18252 0.67703 0.0
N2121 N 0.67267 0.19195 0.63951 0.0
H2122 H 0.77239 0.67595 0.63633 0.0
H2123 H 0.86739 0.71961 0.69817 0.0
H2124 H 0.81804 0.64099 0.66876 0.0
H2125 H 0.84179 0.74528 0.62546 0.0
H2126 H 0.84526 0.69294 0.69411 0.0
H2127 H 0.79402 0.70365 0.63742 0.0
C2128 C 0.78689 0.67404 0.64364 0.0
C2129 C 0.79325 0.65606 0.65287 0.0
C2130 C 0.84452 0.70441 0.67903 0.0
C2131 C 0.81779 0.68772 0.65462 0.0
C2132 C 0.85716 0.7197 0.68131 0.0
C2133 C 0.85677 0.73465 0.66183 0.0
C2134 C 0.83097 0.70417 0.65756 0.0
C2135 C 0.84279 0.73399 0.64077 0.0
C2136 C 0.79919 0.68984 0.64419 0.0
C2137 C 0.81228 0.65451 0.66189 0.0
N2138 N 0.83037 0.71903 0.63925 0.0
N2139 N 0.82374 0.67013 0.66289 0.0
H2140 H 0.29484 0.86774 0.69965 0.0
H2141 H 0.33471 0.77059 0.64016 0.0
H2142 H 0.26584 0.84091 0.63061 0.0
H2143 H 0.37139 0.81699 0.6657 0.0
H2144 H 0.30729 0.79257 0.64203 0.0
H2145 H 0.32091 0.84506 0.69447 0.0
C2146 C 0.29388 0.85711 0.68338 0.0
C2147 C 0.27817 0.85654 0.66523 0.0
C2148 C 0.32142 0.79781 0.64709 0.0
C2149 C 0.308 0.83014 0.65966 0.0
C2150 C 0.33706 0.78533 0.64605 0.0
C2151 C 0.35544 0.7918 0.65321 0.0
C2152 C 0.32415 0.81672 0.65593 0.0
C2153 C 0.35756 0.81113 0.6605 0.0
C2154 C 0.30883 0.84416 0.68045 0.0
C2155 C 0.27774 0.84206 0.64488 0.0
N2156 N 0.34212 0.82277 0.66205 0.0
N2157 N 0.29242 0.82935 0.64269 0.0
H2158 H 0.16485 0.27458 0.70509 0.0
H2159 H 0.19958 0.36681 0.62848 0.0
H2160 H 0.15114 0.28247 0.61831 0.0
H2161 H 0.23926 0.33536 0.67949 0.0
H2162 H 0.17791 0.33918 0.62911 0.0
H2163 H 0.18878 0.3002 0.70133 0.0
C2164 C 0.16691 0.28168 0.68528 0.0
C2165 C 0.15611 0.27636 0.66193 0.0
C2166 C 0.19146 0.33832 0.63991 0.0
C2167 C 0.18295 0.30581 0.65776 0.0
C2168 C 0.20378 0.35401 0.63957 0.0
C2169 C 0.22129 0.35323 0.6537 0.0
C2170 C 0.19639 0.32204 0.65532 0.0
C2171 C 0.226 0.3364 0.66801 0.0
C2172 C 0.18058 0.29618 0.68314 0.0
C2173 C 0.15931 0.28603 0.63673 0.0
N2174 N 0.21348 0.32155 0.66884 0.0
N2175 N 0.17225 0.30049 0.6354 0.0
H2176 H 0.25963 0.0621 0.08668 0.0
H2177 H 0.25429 0.12291 0.9495 0.0
H2178 H 0.28186 0.11924 0.07958 0.0
H2179 H 0.25917 0.0617 0.94291 0.0
H2180 H 0.26267 0.12089 0.99851 0.0
H2181 H 0.2587 0.05999 0.03526 0.0
C2182 C 0.26493 0.07389 0.0743 0.0
C2183 C 0.27086 0.09086 0.08719 0.0
C2184 C 0.26211 0.10785 0.9864 0.0
C2185 C 0.26929 0.08882 0.02905 0.0
C2186 C 0.25721 0.109 0.95841 0.0
C2187 C 0.25601 0.09245 0.94212 0.0
C2188 C 0.26548 0.08997 0.99865 0.0
C2189 C 0.26004 0.0748 0.95479 0.0
C2190 C 0.26426 0.07276 0.04507 0.0
C2191 C 0.27717 0.10592 0.07036 0.0
N2192 N 0.26433 0.07397 0.98251 0.0
N2193 N 0.27596 0.10466 0.04227 0.0
H2194 H 0.92553 0.23067 0.94717 0.0
H2195 H 0.91257 0.29583 0.08221 0.0
H2196 H 0.90793 0.28963 0.94306 0.0
H2197 H 0.92983 0.23686 0.08347 0.0
H2198 H 0.91616 0.29596 0.03123 0.0
H2199 H 0.93227 0.23461 0.99656 0.0
C2200 C 0.92327 0.24454 0.9566 0.0
C2201 C 0.91593 0.25978 0.94095 0.0
C2202 C 0.91958 0.28312 0.04272 0.0
C2203 C 0.92345 0.26437 0.99794 0.0
C2204 C 0.91775 0.28313 0.07181 0.0
C2205 C 0.92094 0.26631 0.08692 0.0
C2206 C 0.92458 0.26613 0.02884 0.0
C2207 C 0.92716 0.25008 0.0725 0.0
C2208 C 0.92714 0.2468 0.98489 0.0
C2209 C 0.9135 0.27746 0.95432 0.0
N2210 N 0.92859 0.25034 0.04431 0.0
N2211 N 0.91698 0.27921 0.98214 0.0
H2212 H 0.7812 0.92537 0.95054 0.0
H2213 H 0.71527 0.9137 0.08439 0.0
H2214 H 0.72197 0.90883 0.94527 0.0
H2215 H 0.77294 0.93492 0.086 0.0
H2216 H 0.71532 0.91645 0.03333 0.0
H2217 H 0.77671 0.93309 0.99952 0.0
C2218 C 0.76716 0.92352 0.95964 0.0
C2219 C 0.75199 0.91623 0.94379 0.0
C2220 C 0.72779 0.92099 0.04489 0.0
C2221 C 0.74675 0.92489 1.00033 0.0
C2222 C 0.72766 0.91965 0.07403 0.0
C2223 C 0.7441 0.92421 0.08929 0.0
C2224 C 0.74457 0.92675 0.0311 0.0
C2225 C 0.75999 0.9313 0.07492 0.0
C2226 C 0.76458 0.92798 0.98769 0.0
C2227 C 0.73408 0.91434 0.95672 0.0
N2228 N 0.75991 0.93213 0.04667 0.0
N2229 N 0.73202 0.91837 0.98434 0.0
H2230 H 0.12575 0.75503 0.94849 0.0
H2231 H 0.0643 0.74726 0.08589 0.0
H2232 H 0.06471 0.74785 0.94283 0.0
H2233 H 0.12384 0.73227 0.08029 0.0
H2234 H 0.06257 0.74723 0.03445 0.0
H2235 H 0.12429 0.74732 0.99771 0.0
C2236 C 0.112 0.75172 0.95765 0.0
C2237 C 0.09532 0.75213 0.94156 0.0
C2238 C 0.07586 0.74352 0.0446 0.0
C2239 C 0.09347 0.74342 0.99839 0.0
C2240 C 0.0768 0.74342 0.07386 0.0
C2241 C 0.09428 0.73991 0.08718 0.0
C2242 C 0.09255 0.74023 0.02897 0.0
C2243 C 0.11015 0.73527 0.07077 0.0
C2244 C 0.11117 0.74721 0.9858 0.0
C2245 C 0.0779 0.74761 0.95455 0.0
N2246 N 0.10897 0.7358 0.04264 0.0
N2247 N 0.07736 0.7437 0.9824 0.0
H2248 H 0.28586 0.88773 0.43297 0.0
H2249 H 0.26067 0.94544 0.57175 0.0
H2250 H 0.26008 0.94345 0.42863 0.0
H2251 H 0.2591 0.88418 0.5631 0.0
H2252 H 0.26923 0.94804 0.52197 0.0
H2253 H 0.28632 0.89001 0.48366 0.0
C2254 C 0.2809 0.90075 0.44277 0.0
C2255 C 0.27302 0.91547 0.42674 0.0
C2256 C 0.2672 0.93408 0.5312 0.0
C2257 C 0.27294 0.91795 0.48477 0.0
C2258 C 0.26241 0.93258 0.5595 0.0
C2259 C 0.25909 0.91457 0.57143 0.0
C2260 C 0.26918 0.91743 0.51516 0.0
C2261 C 0.26139 0.89834 0.55469 0.0
C2262 C 0.28097 0.90196 0.47167 0.0
C2263 C 0.2665 0.93193 0.44037 0.0
N2264 N 0.26633 0.90016 0.52751 0.0
N2265 N 0.26634 0.93266 0.46879 0.0
H2266 H 0.06717 0.26029 0.56603 0.0
H2267 H 0.12734 0.27169 0.42553 0.0
H2268 H 0.12737 0.24882 0.55674 0.0
H2269 H 0.0667 0.26146 0.42239 0.0
H2270 H 0.12607 0.2712 0.47604 0.0
H2271 H 0.06541 0.26732 0.51566 0.0
C2272 C 0.08 0.25941 0.5535 0.0
C2273 C 0.09743 0.25386 0.56555 0.0
C2274 C 0.11295 0.26919 0.46447 0.0
C2275 C 0.09556 0.2621 0.5085 0.0
C2276 C 0.11367 0.26952 0.43561 0.0
C2277 C 0.09715 0.26631 0.41985 0.0
C2278 C 0.09559 0.26547 0.47797 0.0
C2279 C 0.07974 0.26393 0.43392 0.0
C2280 C 0.07896 0.26334 0.52485 0.0
C2281 C 0.11359 0.25287 0.54839 0.0
N2282 N 0.07942 0.26329 0.46237 0.0
N2283 N 0.11225 0.25698 0.52091 0.0
H2284 H 0.72155 0.10313 0.56994 0.0
H2285 H 0.77541 0.07888 0.42759 0.0
H2286 H 0.78097 0.0875 0.5634 0.0
H2287 H 0.71743 0.09914 0.43057 0.0
H2288 H 0.77523 0.0755 0.47818 0.0
H2289 H 0.71754 0.09592 0.52026 0.0
C2290 C 0.73367 0.09788 0.55822 0.0
C2291 C 0.75168 0.09614 0.57083 0.0
C2292 C 0.76236 0.08032 0.46786 0.0
C2293 C 0.7472 0.0879 0.51399 0.0
C2294 C 0.76244 0.08208 0.43894 0.0
C2295 C 0.74639 0.08918 0.425 0.0
C2296 C 0.74622 0.08606 0.4831 0.0
C2297 C 0.72999 0.09336 0.44062 0.0
C2298 C 0.73138 0.09382 0.52982 0.0
C2299 C 0.76687 0.08929 0.55455 0.0
N2300 N 0.73041 0.09202 0.46894 0.0
N2301 N 0.76431 0.08559 0.52704 0.0
H2302 H 0.90667 0.72398 0.56957 0.0
H2303 H 0.93313 0.77308 0.42409 0.0
H2304 H 0.91794 0.78403 0.55812 0.0
H2305 H 0.90902 0.7167 0.43019 0.0
H2306 H 0.93554 0.77438 0.47483 0.0
H2307 H 0.91461 0.71854 0.52036 0.0
C2308 C 0.91108 0.73596 0.55685 0.0
C2309 C 0.91142 0.75453 0.5679 0.0
C2310 C 0.9301 0.76152 0.46513 0.0
C2311 C 0.92062 0.74838 0.51177 0.0
C2312 C 0.92888 0.76074 0.43617 0.0
C2313 C 0.92095 0.74474 0.42306 0.0
C2314 C 0.9231 0.74627 0.48116 0.0
C2315 C 0.91549 0.72917 0.43957 0.0
C2316 C 0.91556 0.73285 0.52877 0.0
C2317 C 0.91724 0.76952 0.55044 0.0
N2318 N 0.9164 0.73041 0.46786 0.0
N2319 N 0.9215 0.76612 0.5233 0.0
H2320 H 0.74053 0.57459 0.58626 0.0
H2321 H 0.7898 0.60207 0.44137 0.0
H2322 H 0.79599 0.6008 0.58073 0.0
H2323 H 0.73078 0.5857 0.45113 0.0
H2324 H 0.79514 0.59507 0.49085 0.0
H2325 H 0.73996 0.57127 0.53559 0.0
C2326 C 0.75288 0.57905 0.57433 0.0
C2327 C 0.76841 0.58779 0.58757 0.0
C2328 C 0.7811 0.59277 0.48202 0.0
C2329 C 0.76762 0.58474 0.52947 0.0
C2330 C 0.77805 0.59671 0.45376 0.0
C2331 C 0.75976 0.59467 0.44211 0.0
C2332 C 0.76579 0.5866 0.49869 0.0
C2333 C 0.74507 0.58769 0.45922 0.0
C2334 C 0.75249 0.57735 0.54539 0.0
C2335 C 0.78392 0.59368 0.57122 0.0
N2336 N 0.74838 0.58405 0.48659 0.0
N2337 N 0.78304 0.5923 0.54293 0.0
H2338 H 0.42365 0.72846 0.44931 0.0
H2339 H 0.41292 0.79462 0.58332 0.0
H2340 H 0.40769 0.78783 0.44411 0.0
H2341 H 0.43324 0.73665 0.58494 0.0
H2342 H 0.4154 0.79441 0.53222 0.0
H2343 H 0.43123 0.73282 0.49837 0.0
C2344 C 0.4219 0.7425 0.45844 0.0
C2345 C 0.41482 0.75776 0.44256 0.0
C2346 C 0.41978 0.7819 0.54379 0.0
C2347 C 0.42333 0.76285 0.49921 0.0
C2348 C 0.4186 0.78212 0.57295 0.0
C2349 C 0.423 0.76565 0.58825 0.0
C2350 C 0.42523 0.76502 0.52999 0.0
C2351 C 0.42974 0.74962 0.57385 0.0
C2352 C 0.42627 0.745 0.48654 0.0
C2353 C 0.41304 0.77566 0.45555 0.0
N2354 N 0.43044 0.74963 0.54558 0.0
N2355 N 0.417 0.77765 0.48321 0.0
H2356 H 0.28278 0.4233 0.45014 0.0
H2357 H 0.21706 0.41297 0.58495 0.0
H2358 H 0.22319 0.40794 0.44585 0.0
H2359 H 0.27602 0.43032 0.58642 0.0
H2360 H 0.2172 0.41585 0.53396 0.0
H2361 H 0.27899 0.43035 0.49948 0.0
C2362 C 0.26881 0.42159 0.45951 0.0
C2363 C 0.25333 0.41481 0.44381 0.0
C2364 C 0.22999 0.41943 0.54548 0.0
C2365 C 0.2489 0.4227 0.50076 0.0
C2366 C 0.22984 0.41799 0.5746 0.0
C2367 C 0.24658 0.4214 0.58984 0.0
C2368 C 0.24705 0.4242 0.53162 0.0
C2369 C 0.26288 0.42741 0.57539 0.0
C2370 C 0.26665 0.42564 0.48778 0.0
C2371 C 0.23554 0.41307 0.45714 0.0
N2372 N 0.26278 0.42842 0.54715 0.0
N2373 N 0.23387 0.41672 0.48493 0.0
H2374 H 0.59877 0.21477 0.58458 0.0
H2375 H 0.58783 0.2817 0.45202 0.0
H2376 H 0.57653 0.27202 0.5871 0.0
H2377 H 0.60343 0.22229 0.44559 0.0
H2378 H 0.57992 0.27687 0.50086 0.0
H2379 H 0.59636 0.21525 0.53355 0.0
C2380 C 0.59272 0.22716 0.57443 0.0
C2381 C 0.58781 0.24338 0.58996 0.0
C2382 C 0.58485 0.26478 0.4888 0.0
C2383 C 0.58563 0.24434 0.53176 0.0
C2384 C 0.58943 0.26756 0.46084 0.0
C2385 C 0.59651 0.25243 0.44472 0.0
C2386 C 0.58763 0.24679 0.50107 0.0
C2387 C 0.59808 0.23438 0.45727 0.0
C2388 C 0.59156 0.22754 0.54529 0.0
C2389 C 0.58055 0.25928 0.57581 0.0
N2390 N 0.59396 0.23212 0.48483 0.0
N2391 N 0.57991 0.25946 0.54755 0.0
H2392 H 0.76031 0.4458 0.92651 0.0
H2393 H 0.75346 0.38428 0.0632 0.0
H2394 H 0.77914 0.38739 0.9323 0.0
H2395 H 0.76012 0.44532 0.06984 0.0
H2396 H 0.76165 0.38612 0.0141 0.0
H2397 H 0.75997 0.44755 0.97796 0.0
C2398 C 0.76496 0.43361 0.9386 0.0
C2399 C 0.7697 0.41641 0.92534 0.0
C2400 C 0.76153 0.39915 0.02623 0.0
C2401 C 0.76885 0.41809 0.98352 0.0
C2402 C 0.75675 0.3981 0.05429 0.0
C2403 C 0.75609 0.41467 0.0706 0.0
C2404 C 0.76532 0.41696 0.01398 0.0
C2405 C 0.76057 0.4322 0.05794 0.0
C2406 C 0.76463 0.43455 0.96785 0.0
C2407 C 0.77528 0.40087 0.94181 0.0
N2408 N 0.76474 0.43296 0.03017 0.0
N2409 N 0.77444 0.402 0.96993 0.0
H2410 H 0.56613 0.76088 0.07099 0.0
H2411 H 0.62468 0.7824 0.93169 0.0
H2412 H 0.62719 0.75573 0.06199 0.0
H2413 H 0.56751 0.75992 0.92735 0.0
H2414 H 0.62269 0.78239 0.98236 0.0
H2415 H 0.56384 0.76879 0.02095 0.0
C2416 C 0.57903 0.76165 0.0586 0.0
C2417 C 0.59688 0.75757 0.07057 0.0
C2418 C 0.61041 0.7778 0.9704 0.0
C2419 C 0.59438 0.76691 0.01395 0.0
C2420 C 0.61147 0.77797 0.94151 0.0
C2421 C 0.59624 0.77115 0.92542 0.0
C2422 C 0.59402 0.77064 0.98352 0.0
C2423 C 0.57947 0.76545 0.93911 0.0
C2424 C 0.57769 0.76607 0.03014 0.0
C2425 C 0.61314 0.75864 0.05361 0.0
N2426 N 0.57887 0.76506 0.96755 0.0
N2427 N 0.61149 0.76326 0.02629 0.0
H2428 H 0.22037 0.60293 0.06967 0.0
H2429 H 0.27315 0.57713 0.92677 0.0
H2430 H 0.27988 0.58783 0.06229 0.0
H2431 H 0.21616 0.60002 0.93006 0.0
H2432 H 0.27308 0.57411 0.97745 0.0
H2433 H 0.21612 0.59576 0.02 0.0
C2434 C 0.23247 0.59781 0.05776 0.0
C2435 C 0.25057 0.59618 0.07015 0.0
C2436 C 0.26039 0.57942 0.96717 0.0
C2437 C 0.24578 0.58795 0.01334 0.0
C2438 C 0.26038 0.58096 0.93821 0.0
C2439 C 0.24459 0.58867 0.92433 0.0
C2440 C 0.24458 0.58596 0.98248 0.0
C2441 C 0.22849 0.59371 0.94006 0.0
C2442 C 0.23003 0.59379 0.02938 0.0
C2443 C 0.26571 0.58951 0.05363 0.0
N2444 N 0.22899 0.59253 0.9684 0.0
N2445 N 0.263 0.58578 0.02615 0.0
H2446 H 0.41028 0.21341 0.9306 0.0
H2447 H 0.42304 0.28087 0.06248 0.0
H2448 H 0.43277 0.27055 0.92699 0.0
H2449 H 0.40718 0.22155 0.06963 0.0
H2450 H 0.43021 0.27588 0.0134 0.0
H2451 H 0.41304 0.21421 0.98158 0.0
C2452 C 0.41645 0.22585 0.94051 0.0
C2453 C 0.42139 0.24192 0.92468 0.0
C2454 C 0.42538 0.26385 0.02568 0.0
C2455 C 0.42395 0.24326 0.98285 0.0
C2456 C 0.42123 0.26671 0.05377 0.0
C2457 C 0.4143 0.25165 0.07018 0.0
C2458 C 0.42233 0.24583 0.01357 0.0
C2459 C 0.41243 0.23358 0.05775 0.0
C2460 C 0.41781 0.22641 0.96962 0.0
C2461 C 0.42877 0.2579 0.93852 0.0
N2462 N 0.41615 0.23124 0.03009 0.0
N2463 N 0.42962 0.25826 0.96677 0.0
H2464 H 0.22675 0.03747 0.20079 0.0
H2465 H 0.28292 0.96959 0.30773 0.0
H2466 H 0.28623 0.04367 0.22245 0.0
H2467 H 0.22273 0.96327 0.29086 0.0
H2468 H 0.28383 0.99709 0.27679 0.0
H2469 H 0.22454 0.01036 0.23313 0.0
C2470 C 0.23936 0.03311 0.21217 0.0
C2471 C 0.25671 0.04293 0.20876 0.0
C2472 C 0.27037 0.9898 0.27989 0.0
C2473 C 0.25424 0.01198 0.24598 0.0
C2474 C 0.26982 0.97404 0.29767 0.0
C2475 C 0.25273 0.96398 0.30196 0.0
C2476 C 0.25371 0.99565 0.26598 0.0
C2477 C 0.23623 0.97059 0.2883 0.0
C2478 C 0.23806 0.01768 0.23074 0.0
C2479 C 0.27253 0.03664 0.22427 0.0
N2480 N 0.23715 0.98593 0.27082 0.0
N2481 N 0.27089 0.02166 0.24208 0.0
H2482 H 0.96447 0.22396 0.21822 0.0
H2483 H 0.04505 0.28965 0.2887 0.0
H2484 H 0.96911 0.28489 0.20678 0.0
H2485 H 0.03872 0.22976 0.30773 0.0
H2486 H 0.01786 0.28751 0.2573 0.0
H2487 H 0.99245 0.22504 0.24901 0.0
C2488 C 0.97144 0.23753 0.22192 0.0
C2489 C 0.96433 0.25437 0.20988 0.0
C2490 C 0.02233 0.27481 0.26835 0.0
C2491 C 0.99629 0.25572 0.24529 0.0
C2492 C 0.0379 0.27603 0.2864 0.0
C2493 C 0.04423 0.25987 0.30105 0.0
C2494 C 0.01291 0.25728 0.26462 0.0
C2495 C 0.03431 0.24262 0.29703 0.0
C2496 C 0.98736 0.23814 0.23966 0.0
C2497 C 0.97394 0.27154 0.21564 0.0
N2498 N 0.01919 0.24177 0.27916 0.0
N2499 N 0.98932 0.27175 0.23288 0.0
H2500 H 0.72852 0.04217 0.30361 0.0
H2501 H 0.78837 0.97089 0.20587 0.0
H2502 H 0.78963 0.04653 0.294 0.0
H2503 H 0.72762 0.9673 0.21997 0.0
H2504 H 0.78964 0.9986 0.2373 0.0
H2505 H 0.7285 0.01451 0.27301 0.0
C2506 C 0.742 0.03728 0.29518 0.0
C2507 C 0.7591 0.04683 0.30145 0.0
C2508 C 0.77605 0.99172 0.23344 0.0
C2509 C 0.75917 0.0149 0.26589 0.0
C2510 C 0.7753 0.97595 0.21539 0.0
C2511 C 0.75786 0.96665 0.2102 0.0
C2512 C 0.75925 0.99828 0.24635 0.0
C2513 C 0.74142 0.97385 0.22331 0.0
C2514 C 0.74197 0.02142 0.27759 0.0
C2515 C 0.7761 0.03963 0.28986 0.0
N2516 N 0.74254 0.98912 0.24067 0.0
N2517 N 0.77569 0.02416 0.27255 0.0
H2518 H 0.03977 0.7214 0.21069 0.0
H2519 H 0.96867 0.78185 0.30736 0.0
H2520 H 0.04034 0.78297 0.21291 0.0
H2521 H 0.96186 0.72181 0.28977 0.0
H2522 H 0.99603 0.78268 0.27535 0.0
H2523 H 0.0122 0.72142 0.24169 0.0
C2524 C 0.03405 0.73496 0.21758 0.0
C2525 C 0.04245 0.75222 0.20907 0.0
C2526 C 0.98852 0.76934 0.27853 0.0
C2527 C 0.01077 0.75234 0.24506 0.0
C2528 C 0.97296 0.76883 0.29693 0.0
C2529 C 0.9629 0.75172 0.30136 0.0
C2530 C 0.99421 0.7526 0.26465 0.0
C2531 C 0.96909 0.73534 0.28706 0.0
C2532 C 0.01826 0.73496 0.23533 0.0
C2533 C 0.0343 0.76933 0.21876 0.0
N2534 N 0.9843 0.73619 0.2695 0.0
N2535 N 0.01901 0.76896 0.23636 0.0
H2536 H 0.79146 0.9815 0.83306 0.0
H2537 H 0.80041 0.04159 0.69344 0.0
H2538 H 0.78313 0.95451 0.75325 0.0
H2539 H 0.77019 0.06346 0.76488 0.0
H2540 H 0.80269 0.01032 0.71668 0.0
H2541 H 0.79247 0.01269 0.80975 0.0
C2542 C 0.79019 0.9821 0.8106 0.0
C2543 C 0.78722 0.96539 0.79505 0.0
C2544 C 0.79569 0.02205 0.72723 0.0
C2545 C 0.7886 1.00093 0.76836 0.0
C2546 C 0.79446 0.03987 0.71411 0.0
C2547 C 0.78506 0.05509 0.72726 0.0
C2548 C 0.78798 0.01966 0.754 0.0
C2549 C 0.77747 0.05206 0.75397 0.0
C2550 C 0.79063 0.99988 0.79739 0.0
C2551 C 0.78542 0.96705 0.76601 0.0
N2552 N 0.77924 0.03475 0.76656 0.0
N2553 N 0.78625 0.9845 0.75355 0.0
H2554 H 0.96693 0.77447 0.70178 0.0
H2555 H 0.04005 0.80988 0.81968 0.0
H2556 H 0.94872 0.80537 0.77487 0.0
H2557 H 0.05342 0.76798 0.75677 0.0
H2558 H 0.00772 0.81268 0.80007 0.0
H2559 H 0.99986 0.77655 0.71798 0.0
C2560 C 0.96984 0.78191 0.72109 0.0
C2561 C 0.95492 0.78966 0.73704 0.0
C2562 C 0.01781 0.80298 0.79051 0.0
C2563 C 0.99282 0.79198 0.75588 0.0
C2564 C 0.03628 0.80144 0.8016 0.0
C2565 C 0.04946 0.78859 0.78998 0.0
C2566 C 0.01258 0.79177 0.76743 0.0
C2567 C 0.04373 0.77795 0.76662 0.0
C2568 C 0.98869 0.783 0.73041 0.0
C2569 C 0.95971 0.79911 0.76192 0.0
N2570 N 0.02579 0.77977 0.75619 0.0
N2571 N 0.97822 0.79993 0.77064 0.0
H2572 H 0.22672 0.94833 0.76227 0.0
H2573 H 0.23557 0.05958 0.74871 0.0
H2574 H 0.21574 0.97621 0.68384 0.0
H2575 H 0.21063 0.03499 0.82256 0.0
H2576 H 0.23238 0.02869 0.72514 0.0
H2577 H 0.22457 0.97941 0.78578 0.0
C2578 C 0.22365 0.96096 0.75005 0.0
C2579 C 0.22132 0.95968 0.72106 0.0
C2580 C 0.22746 0.03011 0.74642 0.0
C2581 C 0.21938 0.99524 0.74772 0.0
C2582 C 0.22934 0.04768 0.75992 0.0
C2583 C 0.22331 0.04985 0.78761 0.0
C2584 C 0.22002 0.0144 0.76094 0.0
C2585 C 0.21533 0.03396 0.80114 0.0
C2586 C 0.2224 0.97864 0.76348 0.0
C2587 C 0.21747 0.97652 0.70623 0.0
N2588 N 0.21419 0.0168 0.78782 0.0
N2589 N 0.21693 0.99364 0.71966 0.0
H2590 H 0.96754 0.2026 0.81095 0.0
H2591 H 0.04425 0.24629 0.70452 0.0
H2592 H 0.957 0.25163 0.7588 0.0
H2593 H 0.05971 0.20798 0.77117 0.0
H2594 H 0.01102 0.24472 0.71973 0.0
H2595 H 1.00018 0.20093 0.79241 0.0
C2596 C 0.97202 0.21291 0.79546 0.0
C2597 C 0.9595 0.22732 0.78651 0.0
C2598 C 0.02166 0.23657 0.73095 0.0
C2599 C 0.99678 0.22544 0.76515 0.0
C2600 C 0.04066 0.23737 0.72218 0.0
C2601 C 0.05489 0.22731 0.73664 0.0
C2602 C 0.0167 0.22552 0.75427 0.0
C2603 C 0.04928 0.21605 0.75945 0.0
C2604 C 0.99067 0.21199 0.78498 0.0
C2605 C 0.96614 0.24035 0.76647 0.0
N2606 N 0.03065 0.21549 0.76759 0.0
N2607 N 0.98426 0.23908 0.75649 0.0
H2608 H 0.724 0.54413 0.71478 0.0
H2609 H 0.7878 0.4658 0.79365 0.0
H2610 H 0.78553 0.5419 0.71166 0.0
H2611 H 0.72707 0.47101 0.80674 0.0
H2612 H 0.78664 0.49288 0.76194 0.0
H2613 H 0.7242 0.51644 0.7462 0.0
C2614 C 0.73753 0.53775 0.72046 0.0
C2615 C 0.75478 0.54545 0.71051 0.0
C2616 C 0.77354 0.48819 0.77175 0.0
C2617 C 0.7551 0.5138 0.74663 0.0
C2618 C 0.77418 0.47267 0.78996 0.0
C2619 C 0.7575 0.46604 0.80303 0.0
C2620 C 0.75606 0.49726 0.76624 0.0
C2621 C 0.74031 0.47564 0.79729 0.0
C2622 C 0.73763 0.52201 0.73855 0.0
C2623 C 0.77187 0.5366 0.7188 0.0
N2624 N 0.74002 0.49071 0.77927 0.0
N2625 N 0.77157 0.52134 0.73629 0.0
H2626 H 0.54024 0.78205 0.80576 0.0
H2627 H 0.47108 0.72277 0.70398 0.0
H2628 H 0.54695 0.72161 0.79136 0.0
H2629 H 0.46604 0.78312 0.72053 0.0
H2630 H 0.49862 0.72152 0.73568 0.0
H2631 H 0.5125 0.78207 0.77523 0.0
C2632 C 0.53583 0.76871 0.79633 0.0
C2633 C 0.54609 0.75181 0.8012 0.0
C2634 C 0.49147 0.73502 0.7323 0.0
C2635 C 0.51411 0.75176 0.7657 0.0
C2636 C 0.47578 0.73577 0.71409 0.0
C2637 C 0.46613 0.75308 0.70947 0.0
C2638 C 0.49757 0.75171 0.746 0.0
C2639 C 0.47288 0.76941 0.72337 0.0
C2640 C 0.51995 0.76875 0.77876 0.0
C2641 C 0.53951 0.73499 0.78833 0.0
N2642 N 0.48808 0.7683 0.7409 0.0
N2643 N 0.52402 0.7354 0.77109 0.0
H2644 H 0.22465 0.46343 0.72363 0.0
H2645 H 0.28893 0.54531 0.79367 0.0
H2646 H 0.2843 0.47096 0.70396 0.0
H2647 H 0.22788 0.5405 0.80368 0.0
H2648 H 0.28833 0.51713 0.76322 0.0
H2649 H 0.22632 0.49075 0.75485 0.0
C2650 C 0.23813 0.47084 0.72578 0.0
C2651 C 0.25435 0.46481 0.71097 0.0
C2652 C 0.27509 0.52223 0.77218 0.0
C2653 C 0.2564 0.49634 0.74718 0.0
C2654 C 0.27543 0.53826 0.78972 0.0
C2655 C 0.25842 0.54538 0.8013 0.0
C2656 C 0.25764 0.51316 0.76627 0.0
C2657 C 0.24136 0.53566 0.79522 0.0
C2658 C 0.23908 0.48651 0.74371 0.0
C2659 C 0.2714 0.47512 0.71479 0.0
N2660 N 0.24143 0.52015 0.77819 0.0
N2661 N 0.27199 0.49033 0.73255 0.0
H2662 H 0.46612 0.21898 0.79733 0.0
H2663 H 0.53962 0.28092 0.70676 0.0
H2664 H 0.46834 0.28045 0.80215 0.0
H2665 H 0.5452 0.22031 0.7205 0.0
H2666 H 0.51199 0.28127 0.73831 0.0
H2667 H 0.49363 0.21944 0.76621 0.0
C2668 C 0.47242 0.23261 0.79192 0.0
C2669 C 0.46485 0.24971 0.80251 0.0
C2670 C 0.51928 0.26791 0.73437 0.0
C2671 C 0.49648 0.25033 0.76639 0.0
C2672 C 0.53499 0.26767 0.71623 0.0
C2673 C 0.5448 0.25055 0.71088 0.0
C2674 C 0.51316 0.25087 0.74703 0.0
C2675 C 0.53818 0.23386 0.72397 0.0
C2676 C 0.48819 0.23285 0.77412 0.0
C2677 C 0.47373 0.26691 0.79467 0.0
N2678 N 0.52281 0.23444 0.74127 0.0
N2679 N 0.48899 0.26679 0.77697 0.0
H2680 H 0.27476 0.56156 0.26349 0.0
H2681 H 0.27646 0.44971 0.24965 0.0
H2682 H 0.29431 0.53522 0.18749 0.0
H2683 H 0.29391 0.47676 0.3262 0.0
H2684 H 0.27816 0.4808 0.22613 0.0
H2685 H 0.2769 0.53049 0.28693 0.0
C2686 C 0.27957 0.54924 0.25178 0.0
C2687 C 0.28444 0.55097 0.22353 0.0
C2688 C 0.28176 0.47986 0.24801 0.0
C2689 C 0.28645 0.51539 0.25004 0.0
C2690 C 0.28074 0.46218 0.26147 0.0
C2691 C 0.28513 0.46065 0.2899 0.0
C2692 C 0.28663 0.49623 0.26328 0.0
C2693 C 0.29055 0.47728 0.30421 0.0
C2694 C 0.28084 0.53158 0.26518 0.0
C2695 C 0.29057 0.53454 0.20934 0.0
N2696 N 0.29088 0.49443 0.29086 0.0
N2697 N 0.29113 0.51736 0.22263 0.0
H2698 H 0.53334 0.29678 0.33059 0.0
H2699 H 0.47741 0.29723 0.18583 0.0
H2700 H 0.56051 0.2807 0.25348 0.0
H2701 H 0.45026 0.28043 0.26264 0.0
H2702 H 0.50802 0.29948 0.21059 0.0
H2703 H 0.50269 0.29907 0.30591 0.0
C2704 C 0.53292 0.29403 0.30841 0.0
C2705 C 0.54949 0.28851 0.29407 0.0
C2706 C 0.49529 0.29549 0.22201 0.0
C2707 C 0.5146 0.29132 0.26576 0.0
C2708 C 0.47782 0.29432 0.20797 0.0
C2709 C 0.46127 0.2886 0.2222 0.0
C2710 C 0.49613 0.29135 0.25059 0.0
C2711 C 0.46269 0.28482 0.25086 0.0
C2712 C 0.51543 0.29522 0.29442 0.0
C2713 C 0.54807 0.28493 0.26535 0.0
N2714 N 0.47979 0.28633 0.26414 0.0
N2715 N 0.53095 0.28647 0.25212 0.0
H2716 H 0.73967 0.56135 0.24886 0.0
H2717 H 0.72602 0.4509 0.26257 0.0
H2718 H 0.70967 0.53882 0.32006 0.0
H2719 H 0.71697 0.47857 0.18349 0.0
H2720 H 0.72449 0.48221 0.28562 0.0
H2721 H 0.73626 0.53034 0.22559 0.0
C2722 C 0.73233 0.54988 0.25956 0.0
C2723 C 0.72489 0.55264 0.28639 0.0
C2724 C 0.72261 0.48134 0.26327 0.0
C2725 C 0.72136 0.51711 0.26015 0.0
C2726 C 0.7235 0.46354 0.25012 0.0
C2727 C 0.72149 0.46215 0.2211 0.0
C2728 C 0.72034 0.49791 0.24719 0.0
C2729 C 0.71839 0.47899 0.20592 0.0
C2730 C 0.73032 0.53226 0.24623 0.0
C2731 C 0.7155 0.5373 0.2993 0.0
N2732 N 0.71824 0.49621 0.21908 0.0
N2733 N 0.71425 0.52006 0.28623 0.0
H2734 H 0.47761 0.71101 0.3273 0.0
H2735 H 0.53553 0.71213 0.18411 0.0
H2736 H 0.45165 0.72859 0.25003 0.0
H2737 H 0.56151 0.72824 0.26207 0.0
H2738 H 0.50458 0.7094 0.20798 0.0
H2739 H 0.50852 0.70857 0.3033 0.0
C2740 C 0.47835 0.71404 0.30522 0.0
C2741 C 0.46206 0.72005 0.29064 0.0
C2742 C 0.51714 0.71332 0.21983 0.0
C2743 C 0.49722 0.71707 0.26312 0.0
C2744 C 0.5348 0.71475 0.20631 0.0
C2745 C 0.5511 0.72045 0.22114 0.0
C2746 C 0.51589 0.71714 0.24848 0.0
C2747 C 0.54927 0.72387 0.24985 0.0
C2748 C 0.49598 0.71276 0.29162 0.0
C2749 C 0.46388 0.72398 0.26207 0.0
N2750 N 0.53201 0.7221 0.26261 0.0
N2751 N 0.48112 0.72235 0.24921 0.0
H2752 H 0.24356 0.17758 0.23195 0.0
H2753 H 0.13746 0.19763 0.28256 0.0
H2754 H 0.19669 0.14061 0.20964 0.0
H2755 H 0.17809 0.24297 0.26879 0.0
H2756 H 0.15973 0.17509 0.26101 0.0
H2757 H 0.22068 0.20013 0.25225 0.0
C2758 C 0.2285 0.17407 0.23171 0.0
C2759 C 0.222 0.1572 0.21914 0.0
C2760 C 0.16366 0.19001 0.26245 0.0
C2761 C 0.19585 0.18291 0.24209 0.0
C2762 C 0.15096 0.20288 0.27463 0.0
C2763 C 0.15591 0.2222 0.2773 0.0
C2764 C 0.18161 0.19644 0.25347 0.0
C2765 C 0.17363 0.22823 0.26686 0.0
C2766 C 0.21546 0.18703 0.24299 0.0
C2767 C 0.2023 0.15348 0.2191 0.0
N2768 N 0.18597 0.21534 0.25571 0.0
N2769 N 0.18991 0.1662 0.23048 0.0
H2770 H 0.85537 0.2373 0.25757 0.0
H2771 H 0.77478 0.1565 0.25615 0.0
H2772 H 0.84121 0.20503 0.18386 0.0
H2773 H 0.8076 0.17005 0.32958 0.0
H2774 H 0.79491 0.17856 0.22927 0.0
H2775 H 0.83361 0.21688 0.28456 0.0
C2776 C 0.84763 0.226 0.24708 0.0
C2777 C 0.8502 0.22275 0.21852 0.0
C2778 C 0.79763 0.17668 0.25129 0.0
C2779 C 0.82521 0.19965 0.24901 0.0
C2780 C 0.78614 0.16417 0.26661 0.0
C2781 C 0.78963 0.16135 0.29505 0.0
C2782 C 0.81241 0.18669 0.26468 0.0
C2783 C 0.80454 0.17164 0.30761 0.0
C2784 C 0.8353 0.21435 0.26245 0.0
C2785 C 0.83982 0.2079 0.20591 0.0
N2786 N 0.81533 0.18392 0.29238 0.0
N2787 N 0.82772 0.19696 0.2212 0.0
H2788 H 0.84499 0.80894 0.32711 0.0
H2789 H 0.80706 0.84355 0.18081 0.0
H2790 H 0.85364 0.77524 0.25295 0.0
H2791 H 0.77707 0.85683 0.25688 0.0
H2792 H 0.82731 0.82128 0.20652 0.0
H2793 H 0.82315 0.82955 0.30134 0.0
C2794 C 0.84237 0.80592 0.30533 0.0
C2795 C 0.85124 0.7904 0.29207 0.0
C2796 C 0.81625 0.82901 0.21754 0.0
C2797 C 0.8263 0.81404 0.2625 0.0
C2798 C 0.80477 0.84182 0.20297 0.0
C2799 C 0.79042 0.85212 0.21681 0.0
C2800 C 0.81365 0.82677 0.24627 0.0
C2801 C 0.78796 0.84915 0.24545 0.0
C2802 C 0.82979 0.81762 0.29074 0.0
C2803 C 0.8471 0.78705 0.26392 0.0
N2804 N 0.79963 0.83688 0.25934 0.0
N2805 N 0.83506 0.79892 0.24994 0.0
H2806 H 0.19874 0.84549 0.335 0.0
H2807 H 0.15723 0.81213 0.18926 0.0
H2808 H 0.22678 0.85872 0.25732 0.0
H2809 H 0.14897 0.77885 0.26394 0.0
H2810 H 0.1787 0.83323 0.21476 0.0
H2811 H 0.17648 0.82481 0.30994 0.0
C2812 C 0.20014 0.84415 0.31262 0.0
C2813 C 0.21463 0.85387 0.29817 0.0
C2814 C 0.17215 0.82134 0.22556 0.0
C2815 C 0.1891 0.83033 0.26948 0.0
C2816 C 0.15977 0.80934 0.21112 0.0
C2817 C 0.15125 0.79367 0.22452 0.0
C2818 C 0.17583 0.8179 0.25378 0.0
C2819 C 0.15525 0.79073 0.25281 0.0
C2820 C 0.1875 0.83225 0.29842 0.0
C2821 C 0.21586 0.85145 0.26924 0.0
N2822 N 0.1672 0.80281 0.26659 0.0
N2823 N 0.20315 0.84001 0.25579 0.0
H2824 H 0.85155 0.8227 0.6795 0.0
H2825 H 0.82025 0.85685 0.83174 0.0
H2826 H 0.87817 0.80204 0.75479 0.0
H2827 H 0.79852 0.88188 0.75594 0.0
H2828 H 0.84119 0.8365 0.80412 0.0
H2829 H 0.83184 0.84404 0.70727 0.0
C2830 C 0.85336 0.82265 0.70189 0.0
C2831 C 0.86669 0.81048 0.71473 0.0
C2832 C 0.83191 0.84649 0.79352 0.0
C2833 C 0.84383 0.83504 0.74685 0.0
C2834 C 0.8199 0.85818 0.80929 0.0
C2835 C 0.80754 0.87125 0.79624 0.0
C2836 C 0.83158 0.84768 0.76436 0.0
C2837 C 0.80779 0.87213 0.76701 0.0
C2838 C 0.84203 0.83491 0.71776 0.0
C2839 C 0.86818 0.81115 0.7439 0.0
N2840 N 0.81954 0.86048 0.75211 0.0
N2841 N 0.85685 0.82317 0.75895 0.0
H2842 H 0.21034 0.87836 0.75718 0.0
H2843 H 0.12932 0.79719 0.75214 0.0
H2844 H 0.18832 0.85442 0.68078 0.0
H2845 H 0.15188 0.82131 0.82808 0.0
H2846 H 0.14983 0.81886 0.72545 0.0
H2847 H 0.18808 0.85834 0.78336 0.0
C2848 C 0.20079 0.869 0.74586 0.0
C2849 C 0.20129 0.86816 0.71665 0.0
C2850 C 0.1502 0.81944 0.74797 0.0
C2851 C 0.17571 0.84504 0.74663 0.0
C2852 C 0.13844 0.80709 0.76324 0.0
C2853 C 0.13879 0.80734 0.79249 0.0
C2854 C 0.16243 0.83216 0.762 0.0
C2855 C 0.15103 0.8205 0.80562 0.0
C2856 C 0.18807 0.85752 0.76085 0.0
C2857 C 0.18853 0.85563 0.70324 0.0
N2858 N 0.16234 0.83228 0.79034 0.0
N2859 N 0.17634 0.84458 0.7183 0.0
H2860 H 0.13008 0.20985 0.75574 0.0
H2861 H 0.21135 0.129 0.75399 0.0
H2862 H 0.15755 0.18921 0.68106 0.0
H2863 H 0.18843 0.15335 0.82956 0.0
H2864 H 0.19001 0.14942 0.72698 0.0
H2865 H 0.14967 0.18779 0.78315 0.0
C2866 C 0.1401 0.20064 0.74505 0.0
C2867 C 0.14207 0.20145 0.71595 0.0
C2868 C 0.18959 0.15024 0.74949 0.0
C2869 C 0.1646 0.17614 0.74729 0.0
C2870 C 0.20177 0.13852 0.76497 0.0
C2871 C 0.20177 0.13937 0.79419 0.0
C2872 C 0.17723 0.16296 0.76322 0.0
C2873 C 0.189 0.15212 0.80711 0.0
C2874 C 0.15133 0.18806 0.76074 0.0
C2875 C 0.15542 0.18916 0.70337 0.0
N2876 N 0.17731 0.1634 0.79157 0.0
N2877 N 0.16613 0.17709 0.71907 0.0
H2878 H 0.85615 0.19142 0.83028 0.0
H2879 H 0.82083 0.15745 0.6796 0.0
H2880 H 0.88027 0.21254 0.75347 0.0
H2881 H 0.79965 0.13376 0.75665 0.0
H2882 H 0.84284 0.17744 0.70612 0.0
H2883 H 0.8357 0.17004 0.80358 0.0
C2884 C 0.85726 0.19154 0.80779 0.0
C2885 C 0.87007 0.20388 0.79419 0.0
C2886 C 0.83344 0.16782 0.71724 0.0
C2887 C 0.84639 0.17933 0.76332 0.0
C2888 C 0.82082 0.15635 0.70209 0.0
C2889 C 0.80828 0.1438 0.71583 0.0
C2890 C 0.83355 0.16688 0.74644 0.0
C2891 C 0.80901 0.14314 0.74506 0.0
C2892 C 0.84551 0.17928 0.79253 0.0
C2893 C 0.87071 0.20329 0.76494 0.0
N2894 N 0.82135 0.15454 0.75934 0.0
N2895 N 0.859 0.1913 0.75052 0.0
H2896 H 0.70255 0.66601 0.67982 0.0
H2897 H 0.66614 0.701 0.82753 0.0
H2898 H 0.73371 0.65405 0.75533 0.0
H2899 H 0.65354 0.73209 0.75217 0.0
H2900 H 0.68783 0.68047 0.8013 0.0
H2901 H 0.68143 0.68719 0.70597 0.0
C2902 C 0.70492 0.66779 0.70195 0.0
C2903 C 0.71989 0.65821 0.71548 0.0
C2904 C 0.68033 0.69179 0.79053 0.0
C2905 C 0.69565 0.68233 0.74547 0.0
C2906 C 0.66783 0.70344 0.8054 0.0
C2907 C 0.65796 0.71827 0.79197 0.0
C2908 C 0.68274 0.69473 0.76189 0.0
C2909 C 0.66088 0.72085 0.76333 0.0
C2910 C 0.69292 0.67997 0.71678 0.0
C2911 C 0.72237 0.6612 0.74411 0.0
N2912 N 0.67292 0.70909 0.74916 0.0
N2913 N 0.71025 0.67289 0.75825 0.0
H2914 H 0.30789 0.6682 0.83067 0.0
H2915 H 0.34439 0.70207 0.6828 0.0
H2916 H 0.27717 0.65472 0.75531 0.0
H2917 H 0.35582 0.7346 0.75727 0.0
H2918 H 0.3224 0.68193 0.70916 0.0
H2919 H 0.32826 0.68997 0.80426 0.0
C2920 C 0.30546 0.66978 0.80852 0.0
C2921 C 0.29085 0.65956 0.7951 0.0
C2922 C 0.32966 0.69351 0.7197 0.0
C2923 C 0.31424 0.68438 0.76481 0.0
C2924 C 0.34232 0.70495 0.70475 0.0
C2925 C 0.35203 0.72 0.71793 0.0
C2926 C 0.32693 0.69688 0.74818 0.0
C2927 C 0.34862 0.72317 0.74633 0.0
C2928 C 0.31702 0.68231 0.79354 0.0
C2929 C 0.28824 0.66234 0.76644 0.0
N2930 N 0.33648 0.71156 0.76061 0.0
N2931 N 0.29997 0.67436 0.75215 0.0
H2932 H 0.35633 0.27434 0.75328 0.0
H2933 H 0.27663 0.35544 0.76166 0.0
H2934 H 0.34557 0.30618 0.8286 0.0
H2935 H 0.30904 0.34474 0.68686 0.0
H2936 H 0.29736 0.33286 0.7867 0.0
H2937 H 0.33435 0.29572 0.72831 0.0
C2938 C 0.34933 0.28577 0.76453 0.0
C2939 C 0.35291 0.28863 0.79293 0.0
C2940 C 0.29986 0.33552 0.76479 0.0
C2941 C 0.32761 0.31273 0.76483 0.0
C2942 C 0.28805 0.34832 0.75054 0.0
C2943 C 0.29126 0.35209 0.72227 0.0
C2944 C 0.31461 0.32612 0.75042 0.0
C2945 C 0.30623 0.34245 0.70876 0.0
C2946 C 0.33686 0.29795 0.75032 0.0
C2947 C 0.34342 0.30363 0.80659 0.0
N2948 N 0.31727 0.32982 0.7229 0.0
N2949 N 0.33112 0.31504 0.79247 0.0
H2950 H 0.65316 0.27739 0.7605 0.0
H2951 H 0.73161 0.35942 0.75026 0.0
H2952 H 0.66244 0.30952 0.68504 0.0
H2953 H 0.70039 0.3484 0.82606 0.0
H2954 H 0.71042 0.33704 0.72571 0.0
H2955 H 0.67484 0.29934 0.78508 0.0
C2956 C 0.65977 0.28901 0.74915 0.0
C2957 C 0.65588 0.29177 0.72081 0.0
C2958 C 0.70825 0.33962 0.74771 0.0
C2959 C 0.6808 0.31652 0.74845 0.0
C2960 C 0.72031 0.35234 0.76168 0.0
C2961 C 0.71763 0.3559 0.79014 0.0
C2962 C 0.69378 0.3301 0.7625 0.0
C2963 C 0.70281 0.34627 0.80402 0.0
C2964 C 0.67205 0.30152 0.76314 0.0
C2965 C 0.66485 0.30702 0.70699 0.0
N2966 N 0.69154 0.3337 0.79013 0.0
N2967 N 0.67698 0.31874 0.72089 0.0
H2968 H 0.3555 0.3205 0.18174 0.0
H2969 H 0.31989 0.35268 0.333 0.0
H2970 H 0.37844 0.29711 0.25791 0.0
H2971 H 0.30177 0.37973 0.25667 0.0
H2972 H 0.34111 0.33206 0.30613 0.0
H2973 H 0.33554 0.3419 0.20902 0.0
C2974 C 0.35645 0.31986 0.20422 0.0
C2975 C 0.36883 0.30692 0.21745 0.0
C2976 C 0.33256 0.34256 0.29526 0.0
C2977 C 0.34568 0.33155 0.24901 0.0
C2978 C 0.3204 0.35439 0.31061 0.0
C2979 C 0.30897 0.36809 0.29717 0.0
C2980 C 0.33329 0.34427 0.26616 0.0
C2981 C 0.3103 0.36948 0.26804 0.0
C2982 C 0.34498 0.33215 0.21982 0.0
C2983 C 0.36921 0.30684 0.24672 0.0
N2984 N 0.32216 0.3577 0.25357 0.0
N2985 N 0.35778 0.31892 0.26148 0.0
H2986 H 0.63021 0.29964 0.25762 0.0
H2987 H 0.71281 0.37925 0.25969 0.0
H2988 H 0.65738 0.31981 0.3328 0.0
H2989 H 0.68663 0.35775 0.18454 0.0
H2990 H 0.69182 0.35849 0.287 0.0
H2991 H 0.65006 0.32163 0.23065 0.0
C2992 C 0.64028 0.3087 0.26851 0.0
C2993 C 0.64203 0.30781 0.29761 0.0
C2994 C 0.69063 0.35839 0.26453 0.0
C2995 C 0.6649 0.3331 0.26674 0.0
C2996 C 0.7026 0.3703 0.2489 0.0
C2997 C 0.70156 0.37035 0.21969 0.0
C2998 C 0.67749 0.3464 0.25092 0.0
C2999 C 0.68803 0.3583 0.20696 0.0
C3000 C 0.65164 0.32127 0.25306 0.0
C3001 C 0.65543 0.31994 0.31045 0.0
N3002 N 0.67661 0.34684 0.22261 0.0
N3003 N 0.66631 0.33202 0.29497 0.0
H3004 H 0.71099 0.63028 0.25671 0.0
H3005 H 0.63209 0.7134 0.25948 0.0
H3006 H 0.68972 0.65555 0.33264 0.0
H3007 H 0.65533 0.68886 0.18426 0.0
H3008 H 0.652 0.6916 0.28683 0.0
H3009 H 0.68957 0.6508 0.2301 0.0
C3010 C 0.70176 0.64005 0.26786 0.0
C3011 C 0.70224 0.64111 0.29706 0.0
C3012 C 0.65267 0.69096 0.26433 0.0
C3013 C 0.6776 0.66485 0.26651 0.0
C3014 C 0.64127 0.70341 0.24867 0.0
C3015 C 0.64194 0.70304 0.21942 0.0
C3016 C 0.66485 0.67802 0.25071 0.0
C3017 C 0.65422 0.68975 0.20669 0.0
C3018 C 0.68953 0.65183 0.25259 0.0
C3019 C 0.68991 0.65417 0.3102 0.0
N3020 N 0.66514 0.67785 0.22236 0.0
N3021 N 0.67816 0.66553 0.29485 0.0
H3022 H 0.31935 0.65765 0.1795 0.0
H3023 H 0.35548 0.6897 0.33056 0.0
H3024 H 0.30066 0.63122 0.25603 0.0
H3025 H 0.37935 0.71197 0.25426 0.0
H3026 H 0.33509 0.66862 0.3034 0.0
H3027 H 0.34106 0.67787 0.20623 0.0
C3028 C 0.31983 0.65599 0.2019 0.0
C3029 C 0.3081 0.64258 0.21544 0.0
C3030 C 0.34483 0.67804 0.29255 0.0
C3031 C 0.33298 0.66595 0.24628 0.0
C3032 C 0.35655 0.69015 0.30808 0.0
C3033 C 0.36932 0.70269 0.29478 0.0
C3034 C 0.34566 0.67844 0.26336 0.0
C3035 C 0.36983 0.70255 0.26551 0.0
C3036 C 0.33227 0.6676 0.21716 0.0
C3037 C 0.30941 0.64126 0.24458 0.0
N3038 N 0.35815 0.69067 0.25081 0.0
N3039 N 0.32154 0.65281 0.25897 0.0
loop_
_geom_bond_atom_site_label_1
_geom_bond_atom_site_label_2
_geom_bond_distance
_geom_bond_site_symmetry_2
_ccdc_geom_bond_type
Co0 O2 2.143 . S
Co0 O8 2.074 . S
Co0 O11 2.093 . S
Co0 O24 2.097 . S
Co0 N41 2.151 . S
Co0 N49 2.214 . S
Co1 O2 2.160 . S
Co1 O7 2.058 . S
Co1 O17 2.057 . S
Co1 O32 2.037 . S
Co1 N36 2.145 . S
Co1 N57 2.257 . S
O2 Co0 2.143 . S
O2 Co1 2.160 . S
C3 O4 1.278 . S
C3 O11 1.224 . S
O4 C3 1.278 . S
C5 O6 1.245 . S
C5 O17 1.232 . S
O6 C5 1.245 . S
O7 Co1 2.058 . S
O7 C33 1.269 . S
O8 Co0 2.074 . S
O8 C33 1.257 . S
H9 C34 0.930 . S
H10 C40 0.930 . S
O11 Co0 2.093 . S
O11 C3 1.224 . S
H12 C44 0.929 . S
H13 C46 0.930 . S
H14 C47 0.930 . S
H15 C45 0.929 . S
H16 C48 0.928 . S
O17 Co1 2.057 . S
O17 C5 1.232 . S
H18 C37 0.929 . S
H19 C38 0.929 . S
H20 C50 0.931 . S
H21 C42 0.929 . S
H22 C51 0.930 . S
H23 C43 0.931 . S
O24 Co0 2.097 . S
O24 C52 1.214 . S
H25 C53 0.929 . S
H26 C54 0.929 . S
H27 C55 0.930 . S
H28 C56 0.929 . S
H29 C58 0.930 . S
H30 C35 0.930 . S
H31 C39 0.930 . S
O32 Co1 2.037 . S
O32 C52 1.234 . S
C33 O7 1.269 . S
C33 O8 1.257 . S
C34 H9 0.930 . S
C34 C37 1.388 . S
C34 C39 1.418 . S
C35 H30 0.930 . S
C35 C38 1.404 . S
C35 C39 1.353 . S
N36 Co1 2.145 . S
N36 C37 1.397 . S
N36 C38 1.334 . S
C37 H18 0.929 . S
C37 C34 1.388 . S
C37 N36 1.397 . S
C38 H19 0.929 . S
C38 C35 1.404 . S
C38 N36 1.334 . S
C39 H31 0.930 . S
C39 C34 1.418 . S
C39 C35 1.353 . S
C40 H10 0.930 . S
C40 N41 1.330 . S
C40 C42 1.446 . S
N41 Co0 2.151 . S
N41 C40 1.330 . S
N41 C45 1.418 . S
C42 H21 0.929 . S
C42 C40 1.446 . S
C42 C43 1.332 . S
C43 H23 0.931 . S
C43 C42 1.332 . S
C43 C44 1.267 . S
C44 H12 0.929 . S
C44 C43 1.267 . S
C44 C45 1.251 . S
C45 H15 0.929 . S
C45 N41 1.418 . S
C45 C44 1.251 . S
C46 H13 0.930 . S
C46 C48 1.406 . S
C46 C51 1.261 . S
C47 H14 0.930 . S
C47 N49 1.325 . S
C47 C50 1.357 . S
C48 H16 0.928 . S
C48 C46 1.406 . S
C48 N49 1.261 . S
N49 Co0 2.214 . S
N49 C47 1.325 . S
N49 C48 1.261 . S
C50 H20 0.931 . S
C50 C47 1.357 . S
C50 C51 1.312 . S
C51 H22 0.930 . S
C51 C46 1.261 . S
C51 C50 1.312 . S
C52 O24 1.214 . S
C52 O32 1.234 . S
C53 H25 0.929 . S
C53 C56 1.391 . S
C53 C58 1.391 . S
C54 H26 0.929 . S
C54 C55 1.390 . S
C54 N57 1.391 . S
C55 H27 0.930 . S
C55 C54 1.390 . S
C55 C56 1.392 . S
C56 H28 0.929 . S
C56 C53 1.391 . S
C56 C55 1.392 . S
N57 Co1 2.257 . S
N57 C54 1.391 . S
N57 C58 1.388 . S
C58 H29 0.930 . S
C58 C53 1.391 . S
C58 N57 1.388 . S
Co59 O61 2.143 . S
Co59 O67 2.074 . S
Co59 O70 2.093 . S
Co59 O83 2.097 . S
Co59 N100 2.151 . S
Co59 N108 2.214 . S
Co60 O61 2.160 . S
Co60 O66 2.058 . S
Co60 O76 2.057 . S
Co60 O91 2.037 . S
Co60 N95 2.145 . S
Co60 N116 2.257 . S
O61 Co59 2.143 . S
O61 Co60 2.160 . S
C62 O63 1.278 . S
C62 O70 1.224 . S
O63 C62 1.278 . S
C64 O65 1.245 . S
C64 O76 1.232 . S
O65 C64 1.245 . S
O66 Co60 2.058 . S
O66 C92 1.269 . S
O67 Co59 2.074 . S
O67 C92 1.257 . S
H68 C93 0.930 . S
H69 C99 0.930 . S
O70 Co59 2.093 . S
O70 C62 1.224 . S
H71 C103 0.929 . S
H72 C105 0.930 . S
H73 C106 0.930 . S
H74 C104 0.929 . S
H75 C107 0.928 . S
O76 Co60 2.057 . S
O76 C64 1.232 . S
H77 C96 0.929 . S
H78 C97 0.929 . S
H79 C109 0.931 . S
H80 C101 0.929 . S
H81 C110 0.930 . S
H82 C102 0.931 . S
O83 Co59 2.097 . S
O83 C111 1.214 . S
H84 C112 0.929 . S
H85 C113 0.929 . S
H86 C114 0.930 . S
H87 C115 0.929 . S
H88 C117 0.930 . S
H89 C94 0.930 . S
H90 C98 0.930 . S
O91 Co60 2.037 . S
O91 C111 1.234 . S
C92 O66 1.269 . S
C92 O67 1.257 . S
C93 H68 0.930 . S
C93 C96 1.388 . S
C93 C98 1.418 . S
C94 H89 0.930 . S
C94 C97 1.404 . S
C94 C98 1.353 . S
N95 Co60 2.145 . S
N95 C96 1.397 . S
N95 C97 1.334 . S
C96 H77 0.929 . S
C96 C93 1.388 . S
C96 N95 1.397 . S
C97 H78 0.929 . S
C97 C94 1.404 . S
C97 N95 1.334 . S
C98 H90 0.930 . S
C98 C93 1.418 . S
C98 C94 1.353 . S
C99 H69 0.930 . S
C99 N100 1.330 . S
C99 C101 1.446 . S
N100 Co59 2.151 . S
N100 C99 1.330 . S
N100 C104 1.418 . S
C101 H80 0.929 . S
C101 C99 1.446 . S
C101 C102 1.332 . S
C102 H82 0.931 . S
C102 C101 1.332 . S
C102 C103 1.267 . S
C103 H71 0.929 . S
C103 C102 1.267 . S
C103 C104 1.251 . S
C104 H74 0.929 . S
C104 N100 1.418 . S
C104 C103 1.251 . S
C105 H72 0.930 . S
C105 C107 1.406 . S
C105 C110 1.261 . S
C106 H73 0.930 . S
C106 N108 1.325 . S
C106 C109 1.357 . S
C107 H75 0.928 . S
C107 C105 1.406 . S
C107 N108 1.261 . S
N108 Co59 2.214 . S
N108 C106 1.325 . S
N108 C107 1.261 . S
C109 H79 0.931 . S
C109 C106 1.357 . S
C109 C110 1.312 . S
C110 H81 0.930 . S
C110 C105 1.261 . S
C110 C109 1.312 . S
C111 O83 1.214 . S
C111 O91 1.234 . S
C112 H84 0.929 . S
C112 C115 1.391 . S
C112 C117 1.391 . S
C113 H85 0.929 . S
C113 C114 1.390 . S
C113 N116 1.391 . S
C114 H86 0.930 . S
C114 C113 1.390 . S
C114 C115 1.392 . S
C115 H87 0.929 . S
C115 C112 1.391 . S
C115 C114 1.392 . S
N116 Co60 2.257 . S
N116 C113 1.391 . S
N116 C117 1.388 . S
C117 H88 0.930 . S
C117 C112 1.391 . S
C117 N116 1.388 . S
Co118 O120 2.143 . S
Co118 O126 2.074 . S
Co118 O129 2.093 . S
Co118 O142 2.097 . S
Co118 N159 2.151 . S
Co118 N167 2.214 . S
Co119 O120 2.160 . S
Co119 O125 2.058 . S
Co119 O135 2.057 . S
Co119 O150 2.037 . S
Co119 N154 2.145 . S
Co119 N175 2.257 . S
O120 Co118 2.143 . S
O120 Co119 2.160 . S
C121 O122 1.278 . S
C121 O129 1.224 . S
O122 C121 1.278 . S
C123 O124 1.245 . S
C123 O135 1.232 . S
O124 C123 1.245 . S
O125 Co119 2.058 . S
O125 C151 1.269 . S
O126 Co118 2.074 . S
O126 C151 1.257 . S
H127 C152 0.930 . S
H128 C158 0.930 . S
O129 Co118 2.093 . S
O129 C121 1.224 . S
H130 C162 0.929 . S
H131 C164 0.930 . S
H132 C165 0.930 . S
H133 C163 0.929 . S
H134 C166 0.928 . S
O135 Co119 2.057 . S
O135 C123 1.232 . S
H136 C155 0.929 . S
H137 C156 0.929 . S
H138 C168 0.931 . S
H139 C160 0.929 . S
H140 C169 0.930 . S
H141 C161 0.931 . S
O142 Co118 2.097 . S
O142 C170 1.214 . S
H143 C171 0.929 . S
H144 C172 0.929 . S
H145 C173 0.930 . S
H146 C174 0.929 . S
H147 C176 0.930 . S
H148 C153 0.930 . S
H149 C157 0.930 . S
O150 Co119 2.037 . S
O150 C170 1.234 . S
C151 O125 1.269 . S
C151 O126 1.257 . S
C152 H127 0.930 . S
C152 C155 1.388 . S
C152 C157 1.418 . S
C153 H148 0.930 . S
C153 C156 1.404 . S
C153 C157 1.353 . S
N154 Co119 2.145 . S
N154 C155 1.397 . S
N154 C156 1.334 . S
C155 H136 0.929 . S
C155 C152 1.388 . S
C155 N154 1.397 . S
C156 H137 0.929 . S
C156 C153 1.404 . S
C156 N154 1.334 . S
C157 H149 0.930 . S
C157 C152 1.418 . S
C157 C153 1.353 . S
C158 H128 0.930 . S
C158 N159 1.330 . S
C158 C160 1.446 . S
N159 Co118 2.151 . S
N159 C158 1.330 . S
N159 C163 1.418 . S
C160 H139 0.929 . S
C160 C158 1.446 . S
C160 C161 1.332 . S
C161 H141 0.931 . S
C161 C160 1.332 . S
C161 C162 1.267 . S
C162 H130 0.929 . S
C162 C161 1.267 . S
C162 C163 1.251 . S
C163 H133 0.929 . S
C163 N159 1.418 . S
C163 C162 1.251 . S
C164 H131 0.930 . S
C164 C166 1.406 . S
C164 C169 1.261 . S
C165 H132 0.930 . S
C165 N167 1.325 . S
C165 C168 1.357 . S
C166 H134 0.928 . S
C166 C164 1.406 . S
C166 N167 1.261 . S
N167 Co118 2.214 . S
N167 C165 1.325 . S
N167 C166 1.261 . S
C168 H138 0.931 . S
C168 C165 1.357 . S
C168 C169 1.312 . S
C169 H140 0.930 . S
C169 C164 1.261 . S
C169 C168 1.312 . S
C170 O142 1.214 . S
C170 O150 1.234 . S
C171 H143 0.929 . S
C171 C174 1.391 . S
C171 C176 1.391 . S
C172 H144 0.929 . S
C172 C173 1.390 . S
C172 N175 1.391 . S
C173 H145 0.930 . S
C173 C172 1.390 . S
C173 C174 1.392 . S
C174 H146 0.929 . S
C174 C171 1.391 . S
C174 C173 1.392 . S
N175 Co119 2.257 . S
N175 C172 1.391 . S
N175 C176 1.388 . S
C176 H147 0.930 . S
C176 C171 1.391 . S
C176 N175 1.388 . S
Co177 O179 2.143 . S
Co177 O185 2.074 . S
Co177 O188 2.093 . S
Co177 O201 2.097 . S
Co177 N218 2.151 . S
Co177 N226 2.214 . S
Co178 O179 2.160 . S
Co178 O184 2.058 . S
Co178 O194 2.057 . S
Co178 O209 2.037 . S
Co178 N213 2.145 . S
Co178 N234 2.257 . S
O179 Co177 2.143 . S
O179 Co178 2.160 . S
C180 O181 1.278 . S
C180 O188 1.224 . S
O181 C180 1.278 . S
C182 O183 1.245 . S
C182 O194 1.232 . S
O183 C182 1.245 . S
O184 Co178 2.058 . S
O184 C210 1.269 . S
O185 Co177 2.074 . S
O185 C210 1.257 . S
H186 C211 0.930 . S
H187 C217 0.930 . S
O188 Co177 2.093 . S
O188 C180 1.224 . S
H189 C221 0.929 . S
H190 C223 0.930 . S
H191 C224 0.930 . S
H192 C222 0.929 . S
H193 C225 0.928 . S
O194 Co178 2.057 . S
O194 C182 1.232 . S
H195 C214 0.929 . S
H196 C215 0.929 . S
H197 C227 0.931 . S
H198 C219 0.929 . S
H199 C228 0.930 . S
H200 C220 0.931 . S
O201 Co177 2.097 . S
O201 C229 1.214 . S
H202 C230 0.929 . S
H203 C231 0.929 . S
H204 C232 0.930 . S
H205 C233 0.929 . S
H206 C235 0.930 . S
H207 C212 0.930 . S
H208 C216 0.930 . S
O209 Co178 2.037 . S
O209 C229 1.234 . S
C210 O184 1.269 . S
C210 O185 1.257 . S
C211 H186 0.930 . S
C211 C214 1.388 . S
C211 C216 1.418 . S
C212 H207 0.930 . S
C212 C215 1.404 . S
C212 C216 1.353 . S
N213 Co178 2.145 . S
N213 C214 1.397 . S
N213 C215 1.334 . S
C214 H195 0.929 . S
C214 C211 1.388 . S
C214 N213 1.397 . S
C215 H196 0.929 . S
C215 C212 1.404 . S
C215 N213 1.334 . S
C216 H208 0.930 . S
C216 C211 1.418 . S
C216 C212 1.353 . S
C217 H187 0.930 . S
C217 N218 1.330 . S
C217 C219 1.446 . S
N218 Co177 2.151 . S
N218 C217 1.330 . S
N218 C222 1.418 . S
C219 H198 0.929 . S
C219 C217 1.446 . S
C219 C220 1.332 . S
C220 H200 0.931 . S
C220 C219 1.332 . S
C220 C221 1.267 . S
C221 H189 0.929 . S
C221 C220 1.267 . S
C221 C222 1.251 . S
C222 H192 0.929 . S
C222 N218 1.418 . S
C222 C221 1.251 . S
C223 H190 0.930 . S
C223 C225 1.406 . S
C223 C228 1.261 . S
C224 H191 0.930 . S
C224 N226 1.325 . S
C224 C227 1.357 . S
C225 H193 0.928 . S
C225 C223 1.406 . S
C225 N226 1.261 . S
N226 Co177 2.214 . S
N226 C224 1.325 . S
N226 C225 1.261 . S
C227 H197 0.931 . S
C227 C224 1.357 . S
C227 C228 1.312 . S
C228 H199 0.930 . S
C228 C223 1.261 . S
C228 C227 1.312 . S
C229 O201 1.214 . S
C229 O209 1.234 . S
C230 H202 0.929 . S
C230 C233 1.391 . S
C230 C235 1.391 . S
C231 H203 0.929 . S
C231 C232 1.390 . S
C231 N234 1.391 . S
C232 H204 0.930 . S
C232 C231 1.390 . S
C232 C233 1.392 . S
C233 H205 0.929 . S
C233 C230 1.391 . S
C233 C232 1.392 . S
N234 Co178 2.257 . S
N234 C231 1.391 . S
N234 C235 1.388 . S
C235 H206 0.930 . S
C235 C230 1.391 . S
C235 N234 1.388 . S
Co236 O238 2.143 . S
Co236 O244 2.074 . S
Co236 O247 2.093 . S
Co236 O260 2.097 . S
Co236 N277 2.151 . S
Co236 N285 2.214 . S
Co237 O238 2.160 . S
Co237 O243 2.058 . S
Co237 O253 2.057 . S
Co237 O268 2.037 . S
Co237 N272 2.145 . S
Co237 N293 2.257 . S
O238 Co236 2.143 . S
O238 Co237 2.160 . S
C239 O240 1.278 . S
C239 O247 1.224 . S
O240 C239 1.278 . S
C241 O242 1.245 . S
C241 O253 1.232 . S
O242 C241 1.245 . S
O243 Co237 2.058 . S
O243 C269 1.269 . S
O244 Co236 2.074 . S
O244 C269 1.257 . S
H245 C270 0.930 . S
H246 C276 0.930 . S
O247 Co236 2.093 . S
O247 C239 1.224 . S
H248 C280 0.929 . S
H249 C282 0.930 . S
H250 C283 0.930 . S
H251 C281 0.929 . S
H252 C284 0.928 . S
O253 Co237 2.057 . S
O253 C241 1.232 . S
H254 C273 0.929 . S
H255 C274 0.929 . S
H256 C286 0.931 . S
H257 C278 0.929 . S
H258 C287 0.930 . S
H259 C279 0.931 . S
O260 Co236 2.097 . S
O260 C288 1.214 . S
H261 C289 0.929 . S
H262 C290 0.929 . S
H263 C291 0.930 . S
H264 C292 0.929 . S
H265 C294 0.930 . S
H266 C271 0.930 . S
H267 C275 0.930 . S
O268 Co237 2.037 . S
O268 C288 1.234 . S
C269 O243 1.269 . S
C269 O244 1.257 . S
C270 H245 0.930 . S
C270 C273 1.388 . S
C270 C275 1.418 . S
C271 H266 0.930 . S
C271 C274 1.404 . S
C271 C275 1.353 . S
N272 Co237 2.145 . S
N272 C273 1.397 . S
N272 C274 1.334 . S
C273 H254 0.929 . S
C273 C270 1.388 . S
C273 N272 1.397 . S
C274 H255 0.929 . S
C274 C271 1.404 . S
C274 N272 1.334 . S
C275 H267 0.930 . S
C275 C270 1.418 . S
C275 C271 1.353 . S
C276 H246 0.930 . S
C276 N277 1.330 . S
C276 C278 1.446 . S
N277 Co236 2.151 . S
N277 C276 1.330 . S
N277 C281 1.418 . S
C278 H257 0.929 . S
C278 C276 1.446 . S
C278 C279 1.332 . S
C279 H259 0.931 . S
C279 C278 1.332 . S
C279 C280 1.267 . S
C280 H248 0.929 . S
C280 C279 1.267 . S
C280 C281 1.251 . S
C281 H251 0.929 . S
C281 N277 1.418 . S
C281 C280 1.251 . S
C282 H249 0.930 . S
C282 C284 1.406 . S
C282 C287 1.261 . S
C283 H250 0.930 . S
C283 N285 1.325 . S
C283 C286 1.357 . S
C284 H252 0.928 . S
C284 C282 1.406 . S
C284 N285 1.261 . S
N285 Co236 2.214 . S
N285 C283 1.325 . S
N285 C284 1.261 . S
C286 H256 0.931 . S
C286 C283 1.357 . S
C286 C287 1.312 . S
C287 H258 0.930 . S
C287 C282 1.261 . S
C287 C286 1.312 . S
C288 O260 1.214 . S
C288 O268 1.234 . S
C289 H261 0.929 . S
C289 C292 1.391 . S
C289 C294 1.391 . S
C290 H262 0.929 . S
C290 C291 1.390 . S
C290 N293 1.391 . S
C291 H263 0.930 . S
C291 C290 1.390 . S
C291 C292 1.392 . S
C292 H264 0.929 . S
C292 C289 1.391 . S
C292 C291 1.392 . S
N293 Co237 2.257 . S
N293 C290 1.391 . S
N293 C294 1.388 . S
C294 H265 0.930 . S
C294 C289 1.391 . S
C294 N293 1.388 . S
Co295 O297 2.143 . S
Co295 O303 2.074 . S
Co295 O306 2.093 . S
Co295 O319 2.097 . S
Co295 N336 2.151 . S
Co295 N344 2.214 . S
Co296 O297 2.160 . S
Co296 O302 2.058 . S
Co296 O312 2.057 . S
Co296 O327 2.037 . S
Co296 N331 2.145 . S
Co296 N352 2.257 . S
O297 Co295 2.143 . S
O297 Co296 2.160 . S
C298 O299 1.278 . S
C298 O306 1.224 . S
O299 C298 1.278 . S
C300 O301 1.245 . S
C300 O312 1.232 . S
O301 C300 1.245 . S
O302 Co296 2.058 . S
O302 C328 1.269 . S
O303 Co295 2.074 . S
O303 C328 1.257 . S
H304 C329 0.930 . S
H305 C335 0.930 . S
O306 Co295 2.093 . S
O306 C298 1.224 . S
H307 C339 0.929 . S
H308 C341 0.930 . S
H309 C342 0.930 . S
H310 C340 0.929 . S
H311 C343 0.928 . S
O312 Co296 2.057 . S
O312 C300 1.232 . S
H313 C332 0.929 . S
H314 C333 0.929 . S
H315 C345 0.931 . S
H316 C337 0.929 . S
H317 C346 0.930 . S
H318 C338 0.931 . S
O319 Co295 2.097 . S
O319 C347 1.214 . S
H320 C348 0.929 . S
H321 C349 0.929 . S
H322 C350 0.930 . S
H323 C351 0.929 . S
H324 C353 0.930 . S
H325 C330 0.930 . S
H326 C334 0.930 . S
O327 Co296 2.037 . S
O327 C347 1.234 . S
C328 O302 1.269 . S
C328 O303 1.257 . S
C329 H304 0.930 . S
C329 C332 1.388 . S
C329 C334 1.418 . S
C330 H325 0.930 . S
C330 C333 1.404 . S
C330 C334 1.353 . S
N331 Co296 2.145 . S
N331 C332 1.397 . S
N331 C333 1.334 . S
C332 H313 0.929 . S
C332 C329 1.388 . S
C332 N331 1.397 . S
C333 H314 0.929 . S
C333 C330 1.404 . S
C333 N331 1.334 . S
C334 H326 0.930 . S
C334 C329 1.418 . S
C334 C330 1.353 . S
C335 H305 0.930 . S
C335 N336 1.330 . S
C335 C337 1.446 . S
N336 Co295 2.151 . S
N336 C335 1.330 . S
N336 C340 1.418 . S
C337 H316 0.929 . S
C337 C335 1.446 . S
C337 C338 1.332 . S
C338 H318 0.931 . S
C338 C337 1.332 . S
C338 C339 1.267 . S
C339 H307 0.929 . S
C339 C338 1.267 . S
C339 C340 1.251 . S
C340 H310 0.929 . S
C340 N336 1.418 . S
C340 C339 1.251 . S
C341 H308 0.930 . S
C341 C343 1.406 . S
C341 C346 1.261 . S
C342 H309 0.930 . S
C342 N344 1.325 . S
C342 C345 1.357 . S
C343 H311 0.928 . S
C343 C341 1.406 . S
C343 N344 1.261 . S
N344 Co295 2.214 . S
N344 C342 1.325 . S
N344 C343 1.261 . S
C345 H315 0.931 . S
C345 C342 1.357 . S
C345 C346 1.312 . S
C346 H317 0.930 . S
C346 C341 1.261 . S
C346 C345 1.312 . S
C347 O319 1.214 . S
C347 O327 1.234 . S
C348 H320 0.929 . S
C348 C351 1.391 . S
C348 C353 1.391 . S
C349 H321 0.929 . S
C349 C350 1.390 . S
C349 N352 1.391 . S
C350 H322 0.930 . S
C350 C349 1.390 . S
C350 C351 1.392 . S
C351 H323 0.929 . S
C351 C348 1.391 . S
C351 C350 1.392 . S
N352 Co296 2.257 . S
N352 C349 1.391 . S
N352 C353 1.388 . S
C353 H324 0.930 . S
C353 C348 1.391 . S
C353 N352 1.388 . S
Co354 O356 2.143 . S
Co354 O362 2.074 . S
Co354 O365 2.093 . S
Co354 O378 2.097 . S
Co354 N395 2.151 . S
Co354 N403 2.214 . S
Co355 O356 2.160 . S
Co355 O361 2.058 . S
Co355 O371 2.057 . S
Co355 O386 2.037 . S
Co355 N390 2.145 . S
Co355 N411 2.257 . S
O356 Co354 2.143 . S
O356 Co355 2.160 . S
C357 O358 1.278 . S
C357 O365 1.224 . S
O358 C357 1.278 . S
C359 O360 1.245 . S
C359 O371 1.232 . S
O360 C359 1.245 . S
O361 Co355 2.058 . S
O361 C387 1.269 . S
O362 Co354 2.074 . S
O362 C387 1.257 . S
H363 C388 0.930 . S
H364 C394 0.930 . S
O365 Co354 2.093 . S
O365 C357 1.224 . S
H366 C398 0.929 . S
H367 C400 0.930 . S
H368 C401 0.930 . S
H369 C399 0.929 . S
H370 C402 0.928 . S
O371 Co355 2.057 . S
O371 C359 1.232 . S
H372 C391 0.929 . S
H373 C392 0.929 . S
H374 C404 0.931 . S
H375 C396 0.929 . S
H376 C405 0.930 . S
H377 C397 0.931 . S
O378 Co354 2.097 . S
O378 C406 1.214 . S
H379 C407 0.929 . S
H380 C408 0.929 . S
H381 C409 0.930 . S
H382 C410 0.929 . S
H383 C412 0.930 . S
H384 C389 0.930 . S
H385 C393 0.930 . S
O386 Co355 2.037 . S
O386 C406 1.234 . S
C387 O361 1.269 . S
C387 O362 1.257 . S
C388 H363 0.930 . S
C388 C391 1.388 . S
C388 C393 1.418 . S
C389 H384 0.930 . S
C389 C392 1.404 . S
C389 C393 1.353 . S
N390 Co355 2.145 . S
N390 C391 1.397 . S
N390 C392 1.334 . S
C391 H372 0.929 . S
C391 C388 1.388 . S
C391 N390 1.397 . S
C392 H373 0.929 . S
C392 C389 1.404 . S
C392 N390 1.334 . S
C393 H385 0.930 . S
C393 C388 1.418 . S
C393 C389 1.353 . S
C394 H364 0.930 . S
C394 N395 1.330 . S
C394 C396 1.446 . S
N395 Co354 2.151 . S
N395 C394 1.330 . S
N395 C399 1.418 . S
C396 H375 0.929 . S
C396 C394 1.446 . S
C396 C397 1.332 . S
C397 H377 0.931 . S
C397 C396 1.332 . S
C397 C398 1.267 . S
C398 H366 0.929 . S
C398 C397 1.267 . S
C398 C399 1.251 . S
C399 H369 0.929 . S
C399 N395 1.418 . S
C399 C398 1.251 . S
C400 H367 0.930 . S
C400 C402 1.406 . S
C400 C405 1.261 . S
C401 H368 0.930 . S
C401 N403 1.325 . S
C401 C404 1.357 . S
C402 H370 0.928 . S
C402 C400 1.406 . S
C402 N403 1.261 . S
N403 Co354 2.214 . S
N403 C401 1.325 . S
N403 C402 1.261 . S
C404 H374 0.931 . S
C404 C401 1.357 . S
C404 C405 1.312 . S
C405 H376 0.930 . S
C405 C400 1.261 . S
C405 C404 1.312 . S
C406 O378 1.214 . S
C406 O386 1.234 . S
C407 H379 0.929 . S
C407 C410 1.391 . S
C407 C412 1.391 . S
C408 H380 0.929 . S
C408 C409 1.390 . S
C408 N411 1.391 . S
C409 H381 0.930 . S
C409 C408 1.390 . S
C409 C410 1.392 . S
C410 H382 0.929 . S
C410 C407 1.391 . S
C410 C409 1.392 . S
N411 Co355 2.257 . S
N411 C408 1.391 . S
N411 C412 1.388 . S
C412 H383 0.930 . S
C412 C407 1.391 . S
C412 N411 1.388 . S
Co413 O415 2.143 . S
Co413 O421 2.074 . S
Co413 O424 2.093 . S
Co413 O437 2.097 . S
Co413 N454 2.151 . S
Co413 N462 2.214 . S
Co414 O415 2.160 . S
Co414 O420 2.058 . S
Co414 O430 2.057 . S
Co414 O445 2.037 . S
Co414 N449 2.145 . S
Co414 N470 2.257 . S
O415 Co413 2.143 . S
O415 Co414 2.160 . S
C416 O417 1.278 . S
C416 O424 1.224 . S
O417 C416 1.278 . S
C418 O419 1.245 . S
C418 O430 1.232 . S
O419 C418 1.245 . S
O420 Co414 2.058 . S
O420 C446 1.269 . S
O421 Co413 2.074 . S
O421 C446 1.257 . S
H422 C447 0.930 . S
H423 C453 0.930 . S
O424 Co413 2.093 . S
O424 C416 1.224 . S
H425 C457 0.929 . S
H426 C459 0.930 . S
H427 C460 0.930 . S
H428 C458 0.929 . S
H429 C461 0.928 . S
O430 Co414 2.057 . S
O430 C418 1.232 . S
H431 C450 0.929 . S
H432 C451 0.929 . S
H433 C463 0.931 . S
H434 C455 0.929 . S
H435 C464 0.930 . S
H436 C456 0.931 . S
O437 Co413 2.097 . S
O437 C465 1.214 . S
H438 C466 0.929 . S
H439 C467 0.929 . S
H440 C468 0.930 . S
H441 C469 0.929 . S
H442 C471 0.930 . S
H443 C448 0.930 . S
H444 C452 0.930 . S
O445 Co414 2.037 . S
O445 C465 1.234 . S
C446 O420 1.269 . S
C446 O421 1.257 . S
C447 H422 0.930 . S
C447 C450 1.388 . S
C447 C452 1.418 . S
C448 H443 0.930 . S
C448 C451 1.404 . S
C448 C452 1.353 . S
N449 Co414 2.145 . S
N449 C450 1.397 . S
N449 C451 1.334 . S
C450 H431 0.929 . S
C450 C447 1.388 . S
C450 N449 1.397 . S
C451 H432 0.929 . S
C451 C448 1.404 . S
C451 N449 1.334 . S
C452 H444 0.930 . S
C452 C447 1.418 . S
C452 C448 1.353 . S
C453 H423 0.930 . S
C453 N454 1.330 . S
C453 C455 1.446 . S
N454 Co413 2.151 . S
N454 C453 1.330 . S
N454 C458 1.418 . S
C455 H434 0.929 . S
C455 C453 1.446 . S
C455 C456 1.332 . S
C456 H436 0.931 . S
C456 C455 1.332 . S
C456 C457 1.267 . S
C457 H425 0.929 . S
C457 C456 1.267 . S
C457 C458 1.251 . S
C458 H428 0.929 . S
C458 N454 1.418 . S
C458 C457 1.251 . S
C459 H426 0.930 . S
C459 C461 1.406 . S
C459 C464 1.261 . S
C460 H427 0.930 . S
C460 N462 1.325 . S
C460 C463 1.357 . S
C461 H429 0.928 . S
C461 C459 1.406 . S
C461 N462 1.261 . S
N462 Co413 2.214 . S
N462 C460 1.325 . S
N462 C461 1.261 . S
C463 H433 0.931 . S
C463 C460 1.357 . S
C463 C464 1.312 . S
C464 H435 0.930 . S
C464 C459 1.261 . S
C464 C463 1.312 . S
C465 O437 1.214 . S
C465 O445 1.234 . S
C466 H438 0.929 . S
C466 C469 1.391 . S
C466 C471 1.391 . S
C467 H439 0.929 . S
C467 C468 1.390 . S
C467 N470 1.391 . S
C468 H440 0.930 . S
C468 C467 1.390 . S
C468 C469 1.392 . S
C469 H441 0.929 . S
C469 C466 1.391 . S
C469 C468 1.392 . S
N470 Co414 2.257 . S
N470 C467 1.391 . S
N470 C471 1.388 . S
C471 H442 0.930 . S
C471 C466 1.391 . S
C471 N470 1.388 . S
Co472 O474 2.143 . S
Co472 O480 2.074 . S
Co472 O483 2.093 . S
Co472 O496 2.097 . S
Co472 N513 2.151 . S
Co472 N521 2.214 . S
Co473 O474 2.160 . S
Co473 O479 2.058 . S
Co473 O489 2.057 . S
Co473 O504 2.037 . S
Co473 N508 2.145 . S
Co473 N529 2.257 . S
O474 Co472 2.143 . S
O474 Co473 2.160 . S
C475 O476 1.278 . S
C475 O483 1.224 . S
O476 C475 1.278 . S
C477 O478 1.245 . S
C477 O489 1.232 . S
O478 C477 1.245 . S
O479 Co473 2.058 . S
O479 C505 1.269 . S
O480 Co472 2.074 . S
O480 C505 1.257 . S
H481 C506 0.930 . S
H482 C512 0.930 . S
O483 Co472 2.093 . S
O483 C475 1.224 . S
H484 C516 0.929 . S
H485 C518 0.930 . S
H486 C519 0.930 . S
H487 C517 0.929 . S
H488 C520 0.928 . S
O489 Co473 2.057 . S
O489 C477 1.232 . S
H490 C509 0.929 . S
H491 C510 0.929 . S
H492 C522 0.931 . S
H493 C514 0.929 . S
H494 C523 0.930 . S
H495 C515 0.931 . S
O496 Co472 2.097 . S
O496 C524 1.214 . S
H497 C525 0.929 . S
H498 C526 0.929 . S
H499 C527 0.930 . S
H500 C528 0.929 . S
H501 C530 0.930 . S
H502 C507 0.930 . S
H503 C511 0.930 . S
O504 Co473 2.037 . S
O504 C524 1.234 . S
C505 O479 1.269 . S
C505 O480 1.257 . S
C506 H481 0.930 . S
C506 C509 1.388 . S
C506 C511 1.418 . S
C507 H502 0.930 . S
C507 C510 1.404 . S
C507 C511 1.353 . S
N508 Co473 2.145 . S
N508 C509 1.397 . S
N508 C510 1.334 . S
C509 H490 0.929 . S
C509 C506 1.388 . S
C509 N508 1.397 . S
C510 H491 0.929 . S
C510 C507 1.404 . S
C510 N508 1.334 . S
C511 H503 0.930 . S
C511 C506 1.418 . S
C511 C507 1.353 . S
C512 H482 0.930 . S
C512 N513 1.330 . S
C512 C514 1.446 . S
N513 Co472 2.151 . S
N513 C512 1.330 . S
N513 C517 1.418 . S
C514 H493 0.929 . S
C514 C512 1.446 . S
C514 C515 1.332 . S
C515 H495 0.931 . S
C515 C514 1.332 . S
C515 C516 1.267 . S
C516 H484 0.929 . S
C516 C515 1.267 . S
C516 C517 1.251 . S
C517 H487 0.929 . S
C517 N513 1.418 . S
C517 C516 1.251 . S
C518 H485 0.930 . S
C518 C520 1.406 . S
C518 C523 1.261 . S
C519 H486 0.930 . S
C519 N521 1.325 . S
C519 C522 1.357 . S
C520 H488 0.928 . S
C520 C518 1.406 . S
C520 N521 1.261 . S
N521 Co472 2.214 . S
N521 C519 1.325 . S
N521 C520 1.261 . S
C522 H492 0.931 . S
C522 C519 1.357 . S
C522 C523 1.312 . S
C523 H494 0.930 . S
C523 C518 1.261 . S
C523 C522 1.312 . S
C524 O496 1.214 . S
C524 O504 1.234 . S
C525 H497 0.929 . S
C525 C528 1.391 . S
C525 C530 1.391 . S
C526 H498 0.929 . S
C526 C527 1.390 . S
C526 N529 1.391 . S
C527 H499 0.930 . S
C527 C526 1.390 . S
C527 C528 1.392 . S
C528 H500 0.929 . S
C528 C525 1.391 . S
C528 C527 1.392 . S
N529 Co473 2.257 . S
N529 C526 1.391 . S
N529 C530 1.388 . S
C530 H501 0.930 . S
C530 C525 1.391 . S
C530 N529 1.388 . S
Co531 O533 2.143 . S
Co531 O539 2.074 . S
Co531 O542 2.093 . S
Co531 O555 2.097 . S
Co531 N572 2.151 . S
Co531 N580 2.214 . S
Co532 O533 2.160 . S
Co532 O538 2.058 . S
Co532 O548 2.057 . S
Co532 O563 2.037 . S
Co532 N567 2.145 . S
Co532 N588 2.257 . S
O533 Co531 2.143 . S
O533 Co532 2.160 . S
C534 O535 1.278 . S
C534 O542 1.224 . S
O535 C534 1.278 . S
C536 O537 1.245 . S
C536 O548 1.232 . S
O537 C536 1.245 . S
O538 Co532 2.058 . S
O538 C564 1.269 . S
O539 Co531 2.074 . S
O539 C564 1.257 . S
H540 C565 0.930 . S
H541 C571 0.930 . S
O542 Co531 2.093 . S
O542 C534 1.224 . S
H543 C575 0.929 . S
H544 C577 0.930 . S
H545 C578 0.930 . S
H546 C576 0.929 . S
H547 C579 0.928 . S
O548 Co532 2.057 . S
O548 C536 1.232 . S
H549 C568 0.929 . S
H550 C569 0.929 . S
H551 C581 0.931 . S
H552 C573 0.929 . S
H553 C582 0.930 . S
H554 C574 0.931 . S
O555 Co531 2.097 . S
O555 C583 1.214 . S
H556 C584 0.929 . S
H557 C585 0.929 . S
H558 C586 0.930 . S
H559 C587 0.929 . S
H560 C589 0.930 . S
H561 C566 0.930 . S
H562 C570 0.930 . S
O563 Co532 2.037 . S
O563 C583 1.234 . S
C564 O538 1.269 . S
C564 O539 1.257 . S
C565 H540 0.930 . S
C565 C568 1.388 . S
C565 C570 1.418 . S
C566 H561 0.930 . S
C566 C569 1.404 . S
C566 C570 1.353 . S
N567 Co532 2.145 . S
N567 C568 1.397 . S
N567 C569 1.334 . S
C568 H549 0.929 . S
C568 C565 1.388 . S
C568 N567 1.397 . S
C569 H550 0.929 . S
C569 C566 1.404 . S
C569 N567 1.334 . S
C570 H562 0.930 . S
C570 C565 1.418 . S
C570 C566 1.353 . S
C571 H541 0.930 . S
C571 N572 1.330 . S
C571 C573 1.446 . S
N572 Co531 2.151 . S
N572 C571 1.330 . S
N572 C576 1.418 . S
C573 H552 0.929 . S
C573 C571 1.446 . S
C573 C574 1.332 . S
C574 H554 0.931 . S
C574 C573 1.332 . S
C574 C575 1.267 . S
C575 H543 0.929 . S
C575 C574 1.267 . S
C575 C576 1.251 . S
C576 H546 0.929 . S
C576 N572 1.418 . S
C576 C575 1.251 . S
C577 H544 0.930 . S
C577 C579 1.406 . S
C577 C582 1.261 . S
C578 H545 0.930 . S
C578 N580 1.325 . S
C578 C581 1.357 . S
C579 H547 0.928 . S
C579 C577 1.406 . S
C579 N580 1.261 . S
N580 Co531 2.214 . S
N580 C578 1.325 . S
N580 C579 1.261 . S
C581 H551 0.931 . S
C581 C578 1.357 . S
C581 C582 1.312 . S
C582 H553 0.930 . S
C582 C577 1.261 . S
C582 C581 1.312 . S
C583 O555 1.214 . S
C583 O563 1.234 . S
C584 H556 0.929 . S
C584 C587 1.391 . S
C584 C589 1.391 . S
C585 H557 0.929 . S
C585 C586 1.390 . S
C585 N588 1.391 . S
C586 H558 0.930 . S
C586 C585 1.390 . S
C586 C587 1.392 . S
C587 H559 0.929 . S
C587 C584 1.391 . S
C587 C586 1.392 . S
N588 Co532 2.257 . S
N588 C585 1.391 . S
N588 C589 1.388 . S
C589 H560 0.930 . S
C589 C584 1.391 . S
C589 N588 1.388 . S
Co590 O592 2.143 . S
Co590 O598 2.074 . S
Co590 O601 2.093 . S
Co590 O614 2.097 . S
Co590 N631 2.151 . S
Co590 N639 2.214 . S
Co591 O592 2.160 . S
Co591 O597 2.058 . S
Co591 O607 2.057 . S
Co591 O622 2.037 . S
Co591 N626 2.145 . S
Co591 N647 2.257 . S
O592 Co590 2.143 . S
O592 Co591 2.160 . S
C593 O594 1.278 . S
C593 O601 1.224 . S
O594 C593 1.278 . S
C595 O596 1.245 . S
C595 O607 1.232 . S
O596 C595 1.245 . S
O597 Co591 2.058 . S
O597 C623 1.269 . S
O598 Co590 2.074 . S
O598 C623 1.257 . S
H599 C624 0.930 . S
H600 C630 0.930 . S
O601 Co590 2.093 . S
O601 C593 1.224 . S
H602 C634 0.929 . S
H603 C636 0.930 . S
H604 C637 0.930 . S
H605 C635 0.929 . S
H606 C638 0.928 . S
O607 Co591 2.057 . S
O607 C595 1.232 . S
H608 C627 0.929 . S
H609 C628 0.929 . S
H610 C640 0.931 . S
H611 C632 0.929 . S
H612 C641 0.930 . S
H613 C633 0.931 . S
O614 Co590 2.097 . S
O614 C642 1.214 . S
H615 C643 0.929 . S
H616 C644 0.929 . S
H617 C645 0.930 . S
H618 C646 0.929 . S
H619 C648 0.930 . S
H620 C625 0.930 . S
H621 C629 0.930 . S
O622 Co591 2.037 . S
O622 C642 1.234 . S
C623 O597 1.269 . S
C623 O598 1.257 . S
C624 H599 0.930 . S
C624 C627 1.388 . S
C624 C629 1.418 . S
C625 H620 0.930 . S
C625 C628 1.404 . S
C625 C629 1.353 . S
N626 Co591 2.145 . S
N626 C627 1.397 . S
N626 C628 1.334 . S
C627 H608 0.929 . S
C627 C624 1.388 . S
C627 N626 1.397 . S
C628 H609 0.929 . S
C628 C625 1.404 . S
C628 N626 1.334 . S
C629 H621 0.930 . S
C629 C624 1.418 . S
C629 C625 1.353 . S
C630 H600 0.930 . S
C630 N631 1.330 . S
C630 C632 1.446 . S
N631 Co590 2.151 . S
N631 C630 1.330 . S
N631 C635 1.418 . S
C632 H611 0.929 . S
C632 C630 1.446 . S
C632 C633 1.332 . S
C633 H613 0.931 . S
C633 C632 1.332 . S
C633 C634 1.267 . S
C634 H602 0.929 . S
C634 C633 1.267 . S
C634 C635 1.251 . S
C635 H605 0.929 . S
C635 N631 1.418 . S
C635 C634 1.251 . S
C636 H603 0.930 . S
C636 C638 1.406 . S
C636 C641 1.261 . S
C637 H604 0.930 . S
C637 N639 1.325 . S
C637 C640 1.357 . S
C638 H606 0.928 . S
C638 C636 1.406 . S
C638 N639 1.261 . S
N639 Co590 2.214 . S
N639 C637 1.325 . S
N639 C638 1.261 . S
C640 H610 0.931 . S
C640 C637 1.357 . S
C640 C641 1.312 . S
C641 H612 0.930 . S
C641 C636 1.261 . S
C641 C640 1.312 . S
C642 O614 1.214 . S
C642 O622 1.234 . S
C643 H615 0.929 . S
C643 C646 1.391 . S
C643 C648 1.391 . S
C644 H616 0.929 . S
C644 C645 1.390 . S
C644 N647 1.391 . S
C645 H617 0.930 . S
C645 C644 1.390 . S
C645 C646 1.392 . S
C646 H618 0.929 . S
C646 C643 1.391 . S
C646 C645 1.392 . S
N647 Co591 2.257 . S
N647 C644 1.391 . S
N647 C648 1.388 . S
C648 H619 0.930 . S
C648 C643 1.391 . S
C648 N647 1.388 . S
Co649 O651 2.143 . S
Co649 O657 2.074 . S
Co649 O660 2.093 . S
Co649 O673 2.097 . S
Co649 N690 2.151 . S
Co649 N698 2.214 . S
Co650 O651 2.160 . S
Co650 O656 2.058 . S
Co650 O666 2.057 . S
Co650 O681 2.037 . S
Co650 N685 2.145 . S
Co650 N706 2.257 . S
O651 Co649 2.143 . S
O651 Co650 2.160 . S
C652 O653 1.278 . S
C652 O660 1.224 . S
O653 C652 1.278 . S
C654 O655 1.245 . S
C654 O666 1.232 . S
O655 C654 1.245 . S
O656 Co650 2.058 . S
O656 C682 1.269 . S
O657 Co649 2.074 . S
O657 C682 1.257 . S
H658 C683 0.930 . S
H659 C689 0.930 . S
O660 Co649 2.093 . S
O660 C652 1.224 . S
H661 C693 0.929 . S
H662 C695 0.930 . S
H663 C696 0.930 . S
H664 C694 0.929 . S
H665 C697 0.928 . S
O666 Co650 2.057 . S
O666 C654 1.232 . S
H667 C686 0.929 . S
H668 C687 0.929 . S
H669 C699 0.931 . S
H670 C691 0.929 . S
H671 C700 0.930 . S
H672 C692 0.931 . S
O673 Co649 2.097 . S
O673 C701 1.214 . S
H674 C702 0.929 . S
H675 C703 0.929 . S
H676 C704 0.930 . S
H677 C705 0.929 . S
H678 C707 0.930 . S
H679 C684 0.930 . S
H680 C688 0.930 . S
O681 Co650 2.037 . S
O681 C701 1.234 . S
C682 O656 1.269 . S
C682 O657 1.257 . S
C683 H658 0.930 . S
C683 C686 1.388 . S
C683 C688 1.418 . S
C684 H679 0.930 . S
C684 C687 1.404 . S
C684 C688 1.353 . S
N685 Co650 2.145 . S
N685 C686 1.397 . S
N685 C687 1.334 . S
C686 H667 0.929 . S
C686 C683 1.388 . S
C686 N685 1.397 . S
C687 H668 0.929 . S
C687 C684 1.404 . S
C687 N685 1.334 . S
C688 H680 0.930 . S
C688 C683 1.418 . S
C688 C684 1.353 . S
C689 H659 0.930 . S
C689 N690 1.330 . S
C689 C691 1.446 . S
N690 Co649 2.151 . S
N690 C689 1.330 . S
N690 C694 1.418 . S
C691 H670 0.929 . S
C691 C689 1.446 . S
C691 C692 1.332 . S
C692 H672 0.931 . S
C692 C691 1.332 . S
C692 C693 1.267 . S
C693 H661 0.929 . S
C693 C692 1.267 . S
C693 C694 1.251 . S
C694 H664 0.929 . S
C694 N690 1.418 . S
C694 C693 1.251 . S
C695 H662 0.930 . S
C695 C697 1.406 . S
C695 C700 1.261 . S
C696 H663 0.930 . S
C696 N698 1.325 . S
C696 C699 1.357 . S
C697 H665 0.928 . S
C697 C695 1.406 . S
C697 N698 1.261 . S
N698 Co649 2.214 . S
N698 C696 1.325 . S
N698 C697 1.261 . S
C699 H669 0.931 . S
C699 C696 1.357 . S
C699 C700 1.312 . S
C700 H671 0.930 . S
C700 C695 1.261 . S
C700 C699 1.312 . S
C701 O673 1.214 . S
C701 O681 1.234 . S
C702 H674 0.929 . S
C702 C705 1.391 . S
C702 C707 1.391 . S
C703 H675 0.929 . S
C703 C704 1.390 . S
C703 N706 1.391 . S
C704 H676 0.930 . S
C704 C703 1.390 . S
C704 C705 1.392 . S
C705 H677 0.929 . S
C705 C702 1.391 . S
C705 C704 1.392 . S
N706 Co650 2.257 . S
N706 C703 1.391 . S
N706 C707 1.388 . S
C707 H678 0.930 . S
C707 C702 1.391 . S
C707 N706 1.388 . S
Co708 O710 2.143 . S
Co708 O716 2.074 . S
Co708 O719 2.093 . S
Co708 O732 2.097 . S
Co708 N749 2.151 . S
Co708 N757 2.214 . S
Co709 O710 2.160 . S
Co709 O715 2.058 . S
Co709 O725 2.057 . S
Co709 O740 2.037 . S
Co709 N744 2.145 . S
Co709 N765 2.257 . S
O710 Co708 2.143 . S
O710 Co709 2.160 . S
C711 O712 1.278 . S
C711 O719 1.224 . S
O712 C711 1.278 . S
C713 O714 1.245 . S
C713 O725 1.232 . S
O714 C713 1.245 . S
O715 Co709 2.058 . S
O715 C741 1.269 . S
O716 Co708 2.074 . S
O716 C741 1.257 . S
H717 C742 0.930 . S
H718 C748 0.930 . S
O719 Co708 2.093 . S
O719 C711 1.224 . S
H720 C752 0.929 . S
H721 C754 0.930 . S
H722 C755 0.930 . S
H723 C753 0.929 . S
H724 C756 0.928 . S
O725 Co709 2.057 . S
O725 C713 1.232 . S
H726 C745 0.929 . S
H727 C746 0.929 . S
H728 C758 0.931 . S
H729 C750 0.929 . S
H730 C759 0.930 . S
H731 C751 0.931 . S
O732 Co708 2.097 . S
O732 C760 1.214 . S
H733 C761 0.929 . S
H734 C762 0.929 . S
H735 C763 0.930 . S
H736 C764 0.929 . S
H737 C766 0.930 . S
H738 C743 0.930 . S
H739 C747 0.930 . S
O740 Co709 2.037 . S
O740 C760 1.234 . S
C741 O715 1.269 . S
C741 O716 1.257 . S
C742 H717 0.930 . S
C742 C745 1.388 . S
C742 C747 1.418 . S
C743 H738 0.930 . S
C743 C746 1.404 . S
C743 C747 1.353 . S
N744 Co709 2.145 . S
N744 C745 1.397 . S
N744 C746 1.334 . S
C745 H726 0.929 . S
C745 C742 1.388 . S
C745 N744 1.397 . S
C746 H727 0.929 . S
C746 C743 1.404 . S
C746 N744 1.334 . S
C747 H739 0.930 . S
C747 C742 1.418 . S
C747 C743 1.353 . S
C748 H718 0.930 . S
C748 N749 1.330 . S
C748 C750 1.446 . S
N749 Co708 2.151 . S
N749 C748 1.330 . S
N749 C753 1.418 . S
C750 H729 0.929 . S
C750 C748 1.446 . S
C750 C751 1.332 . S
C751 H731 0.931 . S
C751 C750 1.332 . S
C751 C752 1.267 . S
C752 H720 0.929 . S
C752 C751 1.267 . S
C752 C753 1.251 . S
C753 H723 0.929 . S
C753 N749 1.418 . S
C753 C752 1.251 . S
C754 H721 0.930 . S
C754 C756 1.406 . S
C754 C759 1.261 . S
C755 H722 0.930 . S
C755 N757 1.325 . S
C755 C758 1.357 . S
C756 H724 0.928 . S
C756 C754 1.406 . S
C756 N757 1.261 . S
N757 Co708 2.214 . S
N757 C755 1.325 . S
N757 C756 1.261 . S
C758 H728 0.931 . S
C758 C755 1.357 . S
C758 C759 1.312 . S
C759 H730 0.930 . S
C759 C754 1.261 . S
C759 C758 1.312 . S
C760 O732 1.214 . S
C760 O740 1.234 . S
C761 H733 0.929 . S
C761 C764 1.391 . S
C761 C766 1.391 . S
C762 H734 0.929 . S
C762 C763 1.390 . S
C762 N765 1.391 . S
C763 H735 0.930 . S
C763 C762 1.390 . S
C763 C764 1.392 . S
C764 H736 0.929 . S
C764 C761 1.391 . S
C764 C763 1.392 . S
N765 Co709 2.257 . S
N765 C762 1.391 . S
N765 C766 1.388 . S
C766 H737 0.930 . S
C766 C761 1.391 . S
C766 N765 1.388 . S
Co767 O769 2.143 . S
Co767 O775 2.074 . S
Co767 O778 2.093 . S
Co767 O791 2.097 . S
Co767 N808 2.151 . S
Co767 N816 2.214 . S
Co768 O769 2.160 . S
Co768 O774 2.058 . S
Co768 O784 2.057 . S
Co768 O799 2.037 . S
Co768 N803 2.145 . S
Co768 N824 2.257 . S
O769 Co767 2.143 . S
O769 Co768 2.160 . S
C770 O771 1.278 . S
C770 O778 1.224 . S
O771 C770 1.278 . S
C772 O773 1.245 . S
C772 O784 1.232 . S
O773 C772 1.245 . S
O774 Co768 2.058 . S
O774 C800 1.269 . S
O775 Co767 2.074 . S
O775 C800 1.257 . S
H776 C801 0.930 . S
H777 C807 0.930 . S
O778 Co767 2.093 . S
O778 C770 1.224 . S
H779 C811 0.929 . S
H780 C813 0.930 . S
H781 C814 0.930 . S
H782 C812 0.929 . S
H783 C815 0.928 . S
O784 Co768 2.057 . S
O784 C772 1.232 . S
H785 C804 0.929 . S
H786 C805 0.929 . S
H787 C817 0.931 . S
H788 C809 0.929 . S
H789 C818 0.930 . S
H790 C810 0.931 . S
O791 Co767 2.097 . S
O791 C819 1.214 . S
H792 C820 0.929 . S
H793 C821 0.929 . S
H794 C822 0.930 . S
H795 C823 0.929 . S
H796 C825 0.930 . S
H797 C802 0.930 . S
H798 C806 0.930 . S
O799 Co768 2.037 . S
O799 C819 1.234 . S
C800 O774 1.269 . S
C800 O775 1.257 . S
C801 H776 0.930 . S
C801 C804 1.388 . S
C801 C806 1.418 . S
C802 H797 0.930 . S
C802 C805 1.404 . S
C802 C806 1.353 . S
N803 Co768 2.145 . S
N803 C804 1.397 . S
N803 C805 1.334 . S
C804 H785 0.929 . S
C804 C801 1.388 . S
C804 N803 1.397 . S
C805 H786 0.929 . S
C805 C802 1.404 . S
C805 N803 1.334 . S
C806 H798 0.930 . S
C806 C801 1.418 . S
C806 C802 1.353 . S
C807 H777 0.930 . S
C807 N808 1.330 . S
C807 C809 1.446 . S
N808 Co767 2.151 . S
N808 C807 1.330 . S
N808 C812 1.418 . S
C809 H788 0.929 . S
C809 C807 1.446 . S
C809 C810 1.332 . S
C810 H790 0.931 . S
C810 C809 1.332 . S
C810 C811 1.267 . S
C811 H779 0.929 . S
C811 C810 1.267 . S
C811 C812 1.251 . S
C812 H782 0.929 . S
C812 N808 1.418 . S
C812 C811 1.251 . S
C813 H780 0.930 . S
C813 C815 1.406 . S
C813 C818 1.261 . S
C814 H781 0.930 . S
C814 N816 1.325 . S
C814 C817 1.357 . S
C815 H783 0.928 . S
C815 C813 1.406 . S
C815 N816 1.261 . S
N816 Co767 2.214 . S
N816 C814 1.325 . S
N816 C815 1.261 . S
C817 H787 0.931 . S
C817 C814 1.357 . S
C817 C818 1.312 . S
C818 H789 0.930 . S
C818 C813 1.261 . S
C818 C817 1.312 . S
C819 O791 1.214 . S
C819 O799 1.234 . S
C820 H792 0.929 . S
C820 C823 1.391 . S
C820 C825 1.391 . S
C821 H793 0.929 . S
C821 C822 1.390 . S
C821 N824 1.391 . S
C822 H794 0.930 . S
C822 C821 1.390 . S
C822 C823 1.392 . S
C823 H795 0.929 . S
C823 C820 1.391 . S
C823 C822 1.392 . S
N824 Co768 2.257 . S
N824 C821 1.391 . S
N824 C825 1.388 . S
C825 H796 0.930 . S
C825 C820 1.391 . S
C825 N824 1.388 . S
Co826 O828 2.143 . S
Co826 O834 2.074 . S
Co826 O837 2.093 . S
Co826 O850 2.097 . S
Co826 N867 2.151 . S
Co826 N875 2.214 . S
Co827 O828 2.160 . S
Co827 O833 2.058 . S
Co827 O843 2.057 . S
Co827 O858 2.037 . S
Co827 N862 2.145 . S
Co827 N883 2.257 . S
O828 Co826 2.143 . S
O828 Co827 2.160 . S
C829 O830 1.278 . S
C829 O837 1.224 . S
O830 C829 1.278 . S
C831 O832 1.245 . S
C831 O843 1.232 . S
O832 C831 1.245 . S
O833 Co827 2.058 . S
O833 C859 1.269 . S
O834 Co826 2.074 . S
O834 C859 1.257 . S
H835 C860 0.930 . S
H836 C866 0.930 . S
O837 Co826 2.093 . S
O837 C829 1.224 . S
H838 C870 0.929 . S
H839 C872 0.930 . S
H840 C873 0.930 . S
H841 C871 0.929 . S
H842 C874 0.928 . S
O843 Co827 2.057 . S
O843 C831 1.232 . S
H844 C863 0.929 . S
H845 C864 0.929 . S
H846 C876 0.931 . S
H847 C868 0.929 . S
H848 C877 0.930 . S
H849 C869 0.931 . S
O850 Co826 2.097 . S
O850 C878 1.214 . S
H851 C879 0.929 . S
H852 C880 0.929 . S
H853 C881 0.930 . S
H854 C882 0.929 . S
H855 C884 0.930 . S
H856 C861 0.930 . S
H857 C865 0.930 . S
O858 Co827 2.037 . S
O858 C878 1.234 . S
C859 O833 1.269 . S
C859 O834 1.257 . S
C860 H835 0.930 . S
C860 C863 1.388 . S
C860 C865 1.418 . S
C861 H856 0.930 . S
C861 C864 1.404 . S
C861 C865 1.353 . S
N862 Co827 2.145 . S
N862 C863 1.397 . S
N862 C864 1.334 . S
C863 H844 0.929 . S
C863 C860 1.388 . S
C863 N862 1.397 . S
C864 H845 0.929 . S
C864 C861 1.404 . S
C864 N862 1.334 . S
C865 H857 0.930 . S
C865 C860 1.418 . S
C865 C861 1.353 . S
C866 H836 0.930 . S
C866 N867 1.330 . S
C866 C868 1.446 . S
N867 Co826 2.151 . S
N867 C866 1.330 . S
N867 C871 1.418 . S
C868 H847 0.929 . S
C868 C866 1.446 . S
C868 C869 1.332 . S
C869 H849 0.931 . S
C869 C868 1.332 . S
C869 C870 1.267 . S
C870 H838 0.929 . S
C870 C869 1.267 . S
C870 C871 1.251 . S
C871 H841 0.929 . S
C871 N867 1.418 . S
C871 C870 1.251 . S
C872 H839 0.930 . S
C872 C874 1.406 . S
C872 C877 1.261 . S
C873 H840 0.930 . S
C873 N875 1.325 . S
C873 C876 1.357 . S
C874 H842 0.928 . S
C874 C872 1.406 . S
C874 N875 1.261 . S
N875 Co826 2.214 . S
N875 C873 1.325 . S
N875 C874 1.261 . S
C876 H846 0.931 . S
C876 C873 1.357 . S
C876 C877 1.312 . S
C877 H848 0.930 . S
C877 C872 1.261 . S
C877 C876 1.312 . S
C878 O850 1.214 . S
C878 O858 1.234 . S
C879 H851 0.929 . S
C879 C882 1.391 . S
C879 C884 1.391 . S
C880 H852 0.929 . S
C880 C881 1.390 . S
C880 N883 1.391 . S
C881 H853 0.930 . S
C881 C880 1.390 . S
C881 C882 1.392 . S
C882 H854 0.929 . S
C882 C879 1.391 . S
C882 C881 1.392 . S
N883 Co827 2.257 . S
N883 C880 1.391 . S
N883 C884 1.388 . S
C884 H855 0.930 . S
C884 C879 1.391 . S
C884 N883 1.388 . S
Co885 O887 2.143 . S
Co885 O893 2.074 . S
Co885 O896 2.093 . S
Co885 O909 2.097 . S
Co885 N926 2.151 . S
Co885 N934 2.214 . S
Co886 O887 2.160 . S
Co886 O892 2.058 . S
Co886 O902 2.057 . S
Co886 O917 2.037 . S
Co886 N921 2.145 . S
Co886 N942 2.257 . S
O887 Co885 2.143 . S
O887 Co886 2.160 . S
C888 O889 1.278 . S
C888 O896 1.224 . S
O889 C888 1.278 . S
C890 O891 1.245 . S
C890 O902 1.232 . S
O891 C890 1.245 . S
O892 Co886 2.058 . S
O892 C918 1.269 . S
O893 Co885 2.074 . S
O893 C918 1.257 . S
H894 C919 0.930 . S
H895 C925 0.930 . S
O896 Co885 2.093 . S
O896 C888 1.224 . S
H897 C929 0.929 . S
H898 C931 0.930 . S
H899 C932 0.930 . S
H900 C930 0.929 . S
H901 C933 0.928 . S
O902 Co886 2.057 . S
O902 C890 1.232 . S
H903 C922 0.929 . S
H904 C923 0.929 . S
H905 C935 0.931 . S
H906 C927 0.929 . S
H907 C936 0.930 . S
H908 C928 0.931 . S
O909 Co885 2.097 . S
O909 C937 1.214 . S
H910 C938 0.929 . S
H911 C939 0.929 . S
H912 C940 0.930 . S
H913 C941 0.929 . S
H914 C943 0.930 . S
H915 C920 0.930 . S
H916 C924 0.930 . S
O917 Co886 2.037 . S
O917 C937 1.234 . S
C918 O892 1.269 . S
C918 O893 1.257 . S
C919 H894 0.930 . S
C919 C922 1.388 . S
C919 C924 1.418 . S
C920 H915 0.930 . S
C920 C923 1.404 . S
C920 C924 1.353 . S
N921 Co886 2.145 . S
N921 C922 1.397 . S
N921 C923 1.334 . S
C922 H903 0.929 . S
C922 C919 1.388 . S
C922 N921 1.397 . S
C923 H904 0.929 . S
C923 C920 1.404 . S
C923 N921 1.334 . S
C924 H916 0.930 . S
C924 C919 1.418 . S
C924 C920 1.353 . S
C925 H895 0.930 . S
C925 N926 1.330 . S
C925 C927 1.446 . S
N926 Co885 2.151 . S
N926 C925 1.330 . S
N926 C930 1.418 . S
C927 H906 0.929 . S
C927 C925 1.446 . S
C927 C928 1.332 . S
C928 H908 0.931 . S
C928 C927 1.332 . S
C928 C929 1.267 . S
C929 H897 0.929 . S
C929 C928 1.267 . S
C929 C930 1.251 . S
C930 H900 0.929 . S
C930 N926 1.418 . S
C930 C929 1.251 . S
C931 H898 0.930 . S
C931 C933 1.406 . S
C931 C936 1.261 . S
C932 H899 0.930 . S
C932 N934 1.325 . S
C932 C935 1.357 . S
C933 H901 0.928 . S
C933 C931 1.406 . S
C933 N934 1.261 . S
N934 Co885 2.214 . S
N934 C932 1.325 . S
N934 C933 1.261 . S
C935 H905 0.931 . S
C935 C932 1.357 . S
C935 C936 1.312 . S
C936 H907 0.930 . S
C936 C931 1.261 . S
C936 C935 1.312 . S
C937 O909 1.214 . S
C937 O917 1.234 . S
C938 H910 0.929 . S
C938 C941 1.391 . S
C938 C943 1.391 . S
C939 H911 0.929 . S
C939 C940 1.390 . S
C939 N942 1.391 . S
C940 H912 0.930 . S
C940 C939 1.390 . S
C940 C941 1.392 . S
C941 H913 0.929 . S
C941 C938 1.391 . S
C941 C940 1.392 . S
N942 Co886 2.257 . S
N942 C939 1.391 . S
N942 C943 1.388 . S
C943 H914 0.930 . S
C943 C938 1.391 . S
C943 N942 1.388 . S
Co944 O946 2.143 . S
Co944 O952 2.074 . S
Co944 O955 2.093 . S
Co944 O968 2.097 . S
Co944 N985 2.151 . S
Co944 N993 2.214 . S
Co945 O946 2.160 . S
Co945 O951 2.058 . S
Co945 O961 2.057 . S
Co945 O976 2.037 . S
Co945 N980 2.145 . S
Co945 N1001 2.257 . S
O946 Co944 2.143 . S
O946 Co945 2.160 . S
C947 O948 1.278 . S
C947 O955 1.224 . S
O948 C947 1.278 . S
C949 O950 1.245 . S
C949 O961 1.232 . S
O950 C949 1.245 . S
O951 Co945 2.058 . S
O951 C977 1.269 . S
O952 Co944 2.074 . S
O952 C977 1.257 . S
H953 C978 0.930 . S
H954 C984 0.930 . S
O955 Co944 2.093 . S
O955 C947 1.224 . S
H956 C988 0.929 . S
H957 C990 0.930 . S
H958 C991 0.930 . S
H959 C989 0.929 . S
H960 C992 0.928 . S
O961 Co945 2.057 . S
O961 C949 1.232 . S
H962 C981 0.929 . S
H963 C982 0.929 . S
H964 C994 0.931 . S
H965 C986 0.929 . S
H966 C995 0.930 . S
H967 C987 0.931 . S
O968 Co944 2.097 . S
O968 C996 1.214 . S
H969 C997 0.929 . S
H970 C998 0.929 . S
H971 C999 0.930 . S
H972 C1000 0.929 . S
H973 C1002 0.930 . S
H974 C979 0.930 . S
H975 C983 0.930 . S
O976 Co945 2.037 . S
O976 C996 1.234 . S
C977 O951 1.269 . S
C977 O952 1.257 . S
C978 H953 0.930 . S
C978 C981 1.388 . S
C978 C983 1.418 . S
C979 H974 0.930 . S
C979 C982 1.404 . S
C979 C983 1.353 . S
N980 Co945 2.145 . S
N980 C981 1.397 . S
N980 C982 1.334 . S
C981 H962 0.929 . S
C981 C978 1.388 . S
C981 N980 1.397 . S
C982 H963 0.929 . S
C982 C979 1.404 . S
C982 N980 1.334 . S
C983 H975 0.930 . S
C983 C978 1.418 . S
C983 C979 1.353 . S
C984 H954 0.930 . S
C984 N985 1.330 . S
C984 C986 1.446 . S
N985 Co944 2.151 . S
N985 C984 1.330 . S
N985 C989 1.418 . S
C986 H965 0.929 . S
C986 C984 1.446 . S
C986 C987 1.332 . S
C987 H967 0.931 . S
C987 C986 1.332 . S
C987 C988 1.267 . S
C988 H956 0.929 . S
C988 C987 1.267 . S
C988 C989 1.251 . S
C989 H959 0.929 . S
C989 N985 1.418 . S
C989 C988 1.251 . S
C990 H957 0.930 . S
C990 C992 1.406 . S
C990 C995 1.261 . S
C991 H958 0.930 . S
C991 N993 1.325 . S
C991 C994 1.357 . S
C992 H960 0.928 . S
C992 C990 1.406 . S
C992 N993 1.261 . S
N993 Co944 2.214 . S
N993 C991 1.325 . S
N993 C992 1.261 . S
C994 H964 0.931 . S
C994 C991 1.357 . S
C994 C995 1.312 . S
C995 H966 0.930 . S
C995 C990 1.261 . S
C995 C994 1.312 . S
C996 O968 1.214 . S
C996 O976 1.234 . S
C997 H969 0.929 . S
C997 C1000 1.391 . S
C997 C1002 1.391 . S
C998 H970 0.929 . S
C998 C999 1.390 . S
C998 N1001 1.391 . S
C999 H971 0.930 . S
C999 C998 1.390 . S
C999 C1000 1.392 . S
C1000 H972 0.929 . S
C1000 C997 1.391 . S
C1000 C999 1.392 . S
N1001 Co945 2.257 . S
N1001 C998 1.391 . S
N1001 C1002 1.388 . S
C1002 H973 0.930 . S
C1002 C997 1.391 . S
C1002 N1001 1.388 . S
Co1003 O1005 2.143 . S
Co1003 O1011 2.074 . S
Co1003 O1014 2.093 . S
Co1003 O1027 2.097 . S
Co1003 N1044 2.151 . S
Co1003 N1052 2.214 . S
Co1004 O1005 2.160 . S
Co1004 O1010 2.058 . S
Co1004 O1020 2.057 . S
Co1004 O1035 2.037 . S
Co1004 N1039 2.145 . S
Co1004 N1060 2.257 . S
O1005 Co1003 2.143 . S
O1005 Co1004 2.160 . S
C1006 O1007 1.278 . S
C1006 O1014 1.224 . S
O1007 C1006 1.278 . S
C1008 O1009 1.245 . S
C1008 O1020 1.232 . S
O1009 C1008 1.245 . S
O1010 Co1004 2.058 . S
O1010 C1036 1.269 . S
O1011 Co1003 2.074 . S
O1011 C1036 1.257 . S
H1012 C1037 0.930 . S
H1013 C1043 0.930 . S
O1014 Co1003 2.093 . S
O1014 C1006 1.224 . S
H1015 C1047 0.929 . S
H1016 C1049 0.930 . S
H1017 C1050 0.930 . S
H1018 C1048 0.929 . S
H1019 C1051 0.928 . S
O1020 Co1004 2.057 . S
O1020 C1008 1.232 . S
H1021 C1040 0.929 . S
H1022 C1041 0.929 . S
H1023 C1053 0.931 . S
H1024 C1045 0.929 . S
H1025 C1054 0.930 . S
H1026 C1046 0.931 . S
O1027 Co1003 2.097 . S
O1027 C1055 1.214 . S
H1028 C1056 0.929 . S
H1029 C1057 0.929 . S
H1030 C1058 0.930 . S
H1031 C1059 0.929 . S
H1032 C1061 0.930 . S
H1033 C1038 0.930 . S
H1034 C1042 0.930 . S
O1035 Co1004 2.037 . S
O1035 C1055 1.234 . S
C1036 O1010 1.269 . S
C1036 O1011 1.257 . S
C1037 H1012 0.930 . S
C1037 C1040 1.388 . S
C1037 C1042 1.418 . S
C1038 H1033 0.930 . S
C1038 C1041 1.404 . S
C1038 C1042 1.353 . S
N1039 Co1004 2.145 . S
N1039 C1040 1.397 . S
N1039 C1041 1.334 . S
C1040 H1021 0.929 . S
C1040 C1037 1.388 . S
C1040 N1039 1.397 . S
C1041 H1022 0.929 . S
C1041 C1038 1.404 . S
C1041 N1039 1.334 . S
C1042 H1034 0.930 . S
C1042 C1037 1.418 . S
C1042 C1038 1.353 . S
C1043 H1013 0.930 . S
C1043 N1044 1.330 . S
C1043 C1045 1.446 . S
N1044 Co1003 2.151 . S
N1044 C1043 1.330 . S
N1044 C1048 1.418 . S
C1045 H1024 0.929 . S
C1045 C1043 1.446 . S
C1045 C1046 1.332 . S
C1046 H1026 0.931 . S
C1046 C1045 1.332 . S
C1046 C1047 1.267 . S
C1047 H1015 0.929 . S
C1047 C1046 1.267 . S
C1047 C1048 1.251 . S
C1048 H1018 0.929 . S
C1048 N1044 1.418 . S
C1048 C1047 1.251 . S
C1049 H1016 0.930 . S
C1049 C1051 1.406 . S
C1049 C1054 1.261 . S
C1050 H1017 0.930 . S
C1050 N1052 1.325 . S
C1050 C1053 1.357 . S
C1051 H1019 0.928 . S
C1051 C1049 1.406 . S
C1051 N1052 1.261 . S
N1052 Co1003 2.214 . S
N1052 C1050 1.325 . S
N1052 C1051 1.261 . S
C1053 H1023 0.931 . S
C1053 C1050 1.357 . S
C1053 C1054 1.312 . S
C1054 H1025 0.930 . S
C1054 C1049 1.261 . S
C1054 C1053 1.312 . S
C1055 O1027 1.214 . S
C1055 O1035 1.234 . S
C1056 H1028 0.929 . S
C1056 C1059 1.391 . S
C1056 C1061 1.391 . S
C1057 H1029 0.929 . S
C1057 C1058 1.390 . S
C1057 N1060 1.391 . S
C1058 H1030 0.930 . S
C1058 C1057 1.390 . S
C1058 C1059 1.392 . S
C1059 H1031 0.929 . S
C1059 C1056 1.391 . S
C1059 C1058 1.392 . S
N1060 Co1004 2.257 . S
N1060 C1057 1.391 . S
N1060 C1061 1.388 . S
C1061 H1032 0.930 . S
C1061 C1056 1.391 . S
C1061 N1060 1.388 . S
Co1062 O1064 2.143 . S
Co1062 O1070 2.074 . S
Co1062 O1073 2.093 . S
Co1062 O1086 2.097 . S
Co1062 N1103 2.151 . S
Co1062 N1111 2.214 . S
Co1063 O1064 2.160 . S
Co1063 O1069 2.058 . S
Co1063 O1079 2.057 . S
Co1063 O1094 2.037 . S
Co1063 N1098 2.145 . S
Co1063 N1119 2.257 . S
O1064 Co1062 2.143 . S
O1064 Co1063 2.160 . S
C1065 O1066 1.278 . S
C1065 O1073 1.224 . S
O1066 C1065 1.278 . S
C1067 O1068 1.245 . S
C1067 O1079 1.232 . S
O1068 C1067 1.245 . S
O1069 Co1063 2.058 . S
O1069 C1095 1.269 . S
O1070 Co1062 2.074 . S
O1070 C1095 1.257 . S
H1071 C1096 0.930 . S
H1072 C1102 0.930 . S
O1073 Co1062 2.093 . S
O1073 C1065 1.224 . S
H1074 C1106 0.929 . S
H1075 C1108 0.930 . S
H1076 C1109 0.930 . S
H1077 C1107 0.929 . S
H1078 C1110 0.928 . S
O1079 Co1063 2.057 . S
O1079 C1067 1.232 . S
H1080 C1099 0.929 . S
H1081 C1100 0.929 . S
H1082 C1112 0.931 . S
H1083 C1104 0.929 . S
H1084 C1113 0.930 . S
H1085 C1105 0.931 . S
O1086 Co1062 2.097 . S
O1086 C1114 1.214 . S
H1087 C1115 0.929 . S
H1088 C1116 0.929 . S
H1089 C1117 0.930 . S
H1090 C1118 0.929 . S
H1091 C1120 0.930 . S
H1092 C1097 0.930 . S
H1093 C1101 0.930 . S
O1094 Co1063 2.037 . S
O1094 C1114 1.234 . S
C1095 O1069 1.269 . S
C1095 O1070 1.257 . S
C1096 H1071 0.930 . S
C1096 C1099 1.388 . S
C1096 C1101 1.418 . S
C1097 H1092 0.930 . S
C1097 C1100 1.404 . S
C1097 C1101 1.353 . S
N1098 Co1063 2.145 . S
N1098 C1099 1.397 . S
N1098 C1100 1.334 . S
C1099 H1080 0.929 . S
C1099 C1096 1.388 . S
C1099 N1098 1.397 . S
C1100 H1081 0.929 . S
C1100 C1097 1.404 . S
C1100 N1098 1.334 . S
C1101 H1093 0.930 . S
C1101 C1096 1.418 . S
C1101 C1097 1.353 . S
C1102 H1072 0.930 . S
C1102 N1103 1.330 . S
C1102 C1104 1.446 . S
N1103 Co1062 2.151 . S
N1103 C1102 1.330 . S
N1103 C1107 1.418 . S
C1104 H1083 0.929 . S
C1104 C1102 1.446 . S
C1104 C1105 1.332 . S
C1105 H1085 0.931 . S
C1105 C1104 1.332 . S
C1105 C1106 1.267 . S
C1106 H1074 0.929 . S
C1106 C1105 1.267 . S
C1106 C1107 1.251 . S
C1107 H1077 0.929 . S
C1107 N1103 1.418 . S
C1107 C1106 1.251 . S
C1108 H1075 0.930 . S
C1108 C1110 1.406 . S
C1108 C1113 1.261 . S
C1109 H1076 0.930 . S
C1109 N1111 1.325 . S
C1109 C1112 1.357 . S
C1110 H1078 0.928 . S
C1110 C1108 1.406 . S
C1110 N1111 1.261 . S
N1111 Co1062 2.214 . S
N1111 C1109 1.325 . S
N1111 C1110 1.261 . S
C1112 H1082 0.931 . S
C1112 C1109 1.357 . S
C1112 C1113 1.312 . S
C1113 H1084 0.930 . S
C1113 C1108 1.261 . S
C1113 C1112 1.312 . S
C1114 O1086 1.214 . S
C1114 O1094 1.234 . S
C1115 H1087 0.929 . S
C1115 C1118 1.391 . S
C1115 C1120 1.391 . S
C1116 H1088 0.929 . S
C1116 C1117 1.390 . S
C1116 N1119 1.391 . S
C1117 H1089 0.930 . S
C1117 C1116 1.390 . S
C1117 C1118 1.392 . S
C1118 H1090 0.929 . S
C1118 C1115 1.391 . S
C1118 C1117 1.392 . S
N1119 Co1063 2.257 . S
N1119 C1116 1.391 . S
N1119 C1120 1.388 . S
C1120 H1091 0.930 . S
C1120 C1115 1.391 . S
C1120 N1119 1.388 . S
Co1121 O1123 2.143 . S
Co1121 O1129 2.074 . S
Co1121 O1132 2.093 . S
Co1121 O1145 2.097 . S
Co1121 N1162 2.151 . S
Co1121 N1170 2.214 . S
Co1122 O1123 2.160 . S
Co1122 O1128 2.058 . S
Co1122 O1138 2.057 . S
Co1122 O1153 2.037 . S
Co1122 N1157 2.145 . S
Co1122 N1178 2.257 . S
O1123 Co1121 2.143 . S
O1123 Co1122 2.160 . S
C1124 O1125 1.278 . S
C1124 O1132 1.224 . S
O1125 C1124 1.278 . S
C1126 O1127 1.245 . S
C1126 O1138 1.232 . S
O1127 C1126 1.245 . S
O1128 Co1122 2.058 . S
O1128 C1154 1.269 . S
O1129 Co1121 2.074 . S
O1129 C1154 1.257 . S
H1130 C1155 0.930 . S
H1131 C1161 0.930 . S
O1132 Co1121 2.093 . S
O1132 C1124 1.224 . S
H1133 C1165 0.929 . S
H1134 C1167 0.930 . S
H1135 C1168 0.930 . S
H1136 C1166 0.929 . S
H1137 C1169 0.928 . S
O1138 Co1122 2.057 . S
O1138 C1126 1.232 . S
H1139 C1158 0.929 . S
H1140 C1159 0.929 . S
H1141 C1171 0.931 . S
H1142 C1163 0.929 . S
H1143 C1172 0.930 . S
H1144 C1164 0.931 . S
O1145 Co1121 2.097 . S
O1145 C1173 1.214 . S
H1146 C1174 0.929 . S
H1147 C1175 0.929 . S
H1148 C1176 0.930 . S
H1149 C1177 0.929 . S
H1150 C1179 0.930 . S
H1151 C1156 0.930 . S
H1152 C1160 0.930 . S
O1153 Co1122 2.037 . S
O1153 C1173 1.234 . S
C1154 O1128 1.269 . S
C1154 O1129 1.257 . S
C1155 H1130 0.930 . S
C1155 C1158 1.388 . S
C1155 C1160 1.418 . S
C1156 H1151 0.930 . S
C1156 C1159 1.404 . S
C1156 C1160 1.353 . S
N1157 Co1122 2.145 . S
N1157 C1158 1.397 . S
N1157 C1159 1.334 . S
C1158 H1139 0.929 . S
C1158 C1155 1.388 . S
C1158 N1157 1.397 . S
C1159 H1140 0.929 . S
C1159 C1156 1.404 . S
C1159 N1157 1.334 . S
C1160 H1152 0.930 . S
C1160 C1155 1.418 . S
C1160 C1156 1.353 . S
C1161 H1131 0.930 . S
C1161 N1162 1.330 . S
C1161 C1163 1.446 . S
N1162 Co1121 2.151 . S
N1162 C1161 1.330 . S
N1162 C1166 1.418 . S
C1163 H1142 0.929 . S
C1163 C1161 1.446 . S
C1163 C1164 1.332 . S
C1164 H1144 0.931 . S
C1164 C1163 1.332 . S
C1164 C1165 1.267 . S
C1165 H1133 0.929 . S
C1165 C1164 1.267 . S
C1165 C1166 1.251 . S
C1166 H1136 0.929 . S
C1166 N1162 1.418 . S
C1166 C1165 1.251 . S
C1167 H1134 0.930 . S
C1167 C1169 1.406 . S
C1167 C1172 1.261 . S
C1168 H1135 0.930 . S
C1168 N1170 1.325 . S
C1168 C1171 1.357 . S
C1169 H1137 0.928 . S
C1169 C1167 1.406 . S
C1169 N1170 1.261 . S
N1170 Co1121 2.214 . S
N1170 C1168 1.325 . S
N1170 C1169 1.261 . S
C1171 H1141 0.931 . S
C1171 C1168 1.357 . S
C1171 C1172 1.312 . S
C1172 H1143 0.930 . S
C1172 C1167 1.261 . S
C1172 C1171 1.312 . S
C1173 O1145 1.214 . S
C1173 O1153 1.234 . S
C1174 H1146 0.929 . S
C1174 C1177 1.391 . S
C1174 C1179 1.391 . S
C1175 H1147 0.929 . S
C1175 C1176 1.390 . S
C1175 N1178 1.391 . S
C1176 H1148 0.930 . S
C1176 C1175 1.390 . S
C1176 C1177 1.392 . S
C1177 H1149 0.929 . S
C1177 C1174 1.391 . S
C1177 C1176 1.392 . S
N1178 Co1122 2.257 . S
N1178 C1175 1.391 . S
N1178 C1179 1.388 . S
C1179 H1150 0.930 . S
C1179 C1174 1.391 . S
C1179 N1178 1.388 . S
Co1180 O1182 2.143 . S
Co1180 O1188 2.074 . S
Co1180 O1191 2.093 . S
Co1180 O1204 2.097 . S
Co1180 N1221 2.151 . S
Co1180 N1229 2.214 . S
Co1181 O1182 2.160 . S
Co1181 O1187 2.058 . S
Co1181 O1197 2.057 . S
Co1181 O1212 2.037 . S
Co1181 N1216 2.145 . S
Co1181 N1237 2.257 . S
O1182 Co1180 2.143 . S
O1182 Co1181 2.160 . S
C1183 O1184 1.278 . S
C1183 O1191 1.224 . S
O1184 C1183 1.278 . S
C1185 O1186 1.245 . S
C1185 O1197 1.232 . S
O1186 C1185 1.245 . S
O1187 Co1181 2.058 . S
O1187 C1213 1.269 . S
O1188 Co1180 2.074 . S
O1188 C1213 1.257 . S
H1189 C1214 0.930 . S
H1190 C1220 0.930 . S
O1191 Co1180 2.093 . S
O1191 C1183 1.224 . S
H1192 C1224 0.929 . S
H1193 C1226 0.930 . S
H1194 C1227 0.930 . S
H1195 C1225 0.929 . S
H1196 C1228 0.928 . S
O1197 Co1181 2.057 . S
O1197 C1185 1.232 . S
H1198 C1217 0.929 . S
H1199 C1218 0.929 . S
H1200 C1230 0.931 . S
H1201 C1222 0.929 . S
H1202 C1231 0.930 . S
H1203 C1223 0.931 . S
O1204 Co1180 2.097 . S
O1204 C1232 1.214 . S
H1205 C1233 0.929 . S
H1206 C1234 0.929 . S
H1207 C1235 0.930 . S
H1208 C1236 0.929 . S
H1209 C1238 0.930 . S
H1210 C1215 0.930 . S
H1211 C1219 0.930 . S
O1212 Co1181 2.037 . S
O1212 C1232 1.234 . S
C1213 O1187 1.269 . S
C1213 O1188 1.257 . S
C1214 H1189 0.930 . S
C1214 C1217 1.388 . S
C1214 C1219 1.418 . S
C1215 H1210 0.930 . S
C1215 C1218 1.404 . S
C1215 C1219 1.353 . S
N1216 Co1181 2.145 . S
N1216 C1217 1.397 . S
N1216 C1218 1.334 . S
C1217 H1198 0.929 . S
C1217 C1214 1.388 . S
C1217 N1216 1.397 . S
C1218 H1199 0.929 . S
C1218 C1215 1.404 . S
C1218 N1216 1.334 . S
C1219 H1211 0.930 . S
C1219 C1214 1.418 . S
C1219 C1215 1.353 . S
C1220 H1190 0.930 . S
C1220 N1221 1.330 . S
C1220 C1222 1.446 . S
N1221 Co1180 2.151 . S
N1221 C1220 1.330 . S
N1221 C1225 1.418 . S
C1222 H1201 0.929 . S
C1222 C1220 1.446 . S
C1222 C1223 1.332 . S
C1223 H1203 0.931 . S
C1223 C1222 1.332 . S
C1223 C1224 1.267 . S
C1224 H1192 0.929 . S
C1224 C1223 1.267 . S
C1224 C1225 1.251 . S
C1225 H1195 0.929 . S
C1225 N1221 1.418 . S
C1225 C1224 1.251 . S
C1226 H1193 0.930 . S
C1226 C1228 1.406 . S
C1226 C1231 1.261 . S
C1227 H1194 0.930 . S
C1227 N1229 1.325 . S
C1227 C1230 1.357 . S
C1228 H1196 0.928 . S
C1228 C1226 1.406 . S
C1228 N1229 1.261 . S
N1229 Co1180 2.214 . S
N1229 C1227 1.325 . S
N1229 C1228 1.261 . S
C1230 H1200 0.931 . S
C1230 C1227 1.357 . S
C1230 C1231 1.312 . S
C1231 H1202 0.930 . S
C1231 C1226 1.261 . S
C1231 C1230 1.312 . S
C1232 O1204 1.214 . S
C1232 O1212 1.234 . S
C1233 H1205 0.929 . S
C1233 C1236 1.391 . S
C1233 C1238 1.391 . S
C1234 H1206 0.929 . S
C1234 C1235 1.390 . S
C1234 N1237 1.391 . S
C1235 H1207 0.930 . S
C1235 C1234 1.390 . S
C1235 C1236 1.392 . S
C1236 H1208 0.929 . S
C1236 C1233 1.391 . S
C1236 C1235 1.392 . S
N1237 Co1181 2.257 . S
N1237 C1234 1.391 . S
N1237 C1238 1.388 . S
C1238 H1209 0.930 . S
C1238 C1233 1.391 . S
C1238 N1237 1.388 . S
Co1239 O1241 2.143 . S
Co1239 O1247 2.074 . S
Co1239 O1250 2.093 . S
Co1239 O1263 2.097 . S
Co1239 N1280 2.151 . S
Co1239 N1288 2.214 . S
Co1240 O1241 2.160 . S
Co1240 O1246 2.058 . S
Co1240 O1256 2.057 . S
Co1240 O1271 2.037 . S
Co1240 N1275 2.145 . S
Co1240 N1296 2.257 . S
O1241 Co1239 2.143 . S
O1241 Co1240 2.160 . S
C1242 O1243 1.278 . S
C1242 O1250 1.224 . S
O1243 C1242 1.278 . S
C1244 O1245 1.245 . S
C1244 O1256 1.232 . S
O1245 C1244 1.245 . S
O1246 Co1240 2.058 . S
O1246 C1272 1.269 . S
O1247 Co1239 2.074 . S
O1247 C1272 1.257 . S
H1248 C1273 0.930 . S
H1249 C1279 0.930 . S
O1250 Co1239 2.093 . S
O1250 C1242 1.224 . S
H1251 C1283 0.929 . S
H1252 C1285 0.930 . S
H1253 C1286 0.930 . S
H1254 C1284 0.929 . S
H1255 C1287 0.928 . S
O1256 Co1240 2.057 . S
O1256 C1244 1.232 . S
H1257 C1276 0.929 . S
H1258 C1277 0.929 . S
H1259 C1289 0.931 . S
H1260 C1281 0.929 . S
H1261 C1290 0.930 . S
H1262 C1282 0.931 . S
O1263 Co1239 2.097 . S
O1263 C1291 1.214 . S
H1264 C1292 0.929 . S
H1265 C1293 0.929 . S
H1266 C1294 0.930 . S
H1267 C1295 0.929 . S
H1268 C1297 0.930 . S
H1269 C1274 0.930 . S
H1270 C1278 0.930 . S
O1271 Co1240 2.037 . S
O1271 C1291 1.234 . S
C1272 O1246 1.269 . S
C1272 O1247 1.257 . S
C1273 H1248 0.930 . S
C1273 C1276 1.388 . S
C1273 C1278 1.418 . S
C1274 H1269 0.930 . S
C1274 C1277 1.404 . S
C1274 C1278 1.353 . S
N1275 Co1240 2.145 . S
N1275 C1276 1.397 . S
N1275 C1277 1.334 . S
C1276 H1257 0.929 . S
C1276 C1273 1.388 . S
C1276 N1275 1.397 . S
C1277 H1258 0.929 . S
C1277 C1274 1.404 . S
C1277 N1275 1.334 . S
C1278 H1270 0.930 . S
C1278 C1273 1.418 . S
C1278 C1274 1.353 . S
C1279 H1249 0.930 . S
C1279 N1280 1.330 . S
C1279 C1281 1.446 . S
N1280 Co1239 2.151 . S
N1280 C1279 1.330 . S
N1280 C1284 1.418 . S
C1281 H1260 0.929 . S
C1281 C1279 1.446 . S
C1281 C1282 1.332 . S
C1282 H1262 0.931 . S
C1282 C1281 1.332 . S
C1282 C1283 1.267 . S
C1283 H1251 0.929 . S
C1283 C1282 1.267 . S
C1283 C1284 1.251 . S
C1284 H1254 0.929 . S
C1284 N1280 1.418 . S
C1284 C1283 1.251 . S
C1285 H1252 0.930 . S
C1285 C1287 1.406 . S
C1285 C1290 1.261 . S
C1286 H1253 0.930 . S
C1286 N1288 1.325 . S
C1286 C1289 1.357 . S
C1287 H1255 0.928 . S
C1287 C1285 1.406 . S
C1287 N1288 1.261 . S
N1288 Co1239 2.214 . S
N1288 C1286 1.325 . S
N1288 C1287 1.261 . S
C1289 H1259 0.931 . S
C1289 C1286 1.357 . S
C1289 C1290 1.312 . S
C1290 H1261 0.930 . S
C1290 C1285 1.261 . S
C1290 C1289 1.312 . S
C1291 O1263 1.214 . S
C1291 O1271 1.234 . S
C1292 H1264 0.929 . S
C1292 C1295 1.391 . S
C1292 C1297 1.391 . S
C1293 H1265 0.929 . S
C1293 C1294 1.390 . S
C1293 N1296 1.391 . S
C1294 H1266 0.930 . S
C1294 C1293 1.390 . S
C1294 C1295 1.392 . S
C1295 H1267 0.929 . S
C1295 C1292 1.391 . S
C1295 C1294 1.392 . S
N1296 Co1240 2.257 . S
N1296 C1293 1.391 . S
N1296 C1297 1.388 . S
C1297 H1268 0.930 . S
C1297 C1292 1.391 . S
C1297 N1296 1.388 . S
Co1298 O1300 2.143 . S
Co1298 O1306 2.074 . S
Co1298 O1309 2.093 . S
Co1298 O1322 2.097 . S
Co1298 N1339 2.151 . S
Co1298 N1347 2.214 . S
Co1299 O1300 2.160 . S
Co1299 O1305 2.058 . S
Co1299 O1315 2.057 . S
Co1299 O1330 2.037 . S
Co1299 N1334 2.145 . S
Co1299 N1355 2.257 . S
O1300 Co1298 2.143 . S
O1300 Co1299 2.160 . S
C1301 O1302 1.278 . S
C1301 O1309 1.224 . S
O1302 C1301 1.278 . S
C1303 O1304 1.245 . S
C1303 O1315 1.232 . S
O1304 C1303 1.245 . S
O1305 Co1299 2.058 . S
O1305 C1331 1.269 . S
O1306 Co1298 2.074 . S
O1306 C1331 1.257 . S
H1307 C1332 0.930 . S
H1308 C1338 0.930 . S
O1309 Co1298 2.093 . S
O1309 C1301 1.224 . S
H1310 C1342 0.929 . S
H1311 C1344 0.930 . S
H1312 C1345 0.930 . S
H1313 C1343 0.929 . S
H1314 C1346 0.928 . S
O1315 Co1299 2.057 . S
O1315 C1303 1.232 . S
H1316 C1335 0.929 . S
H1317 C1336 0.929 . S
H1318 C1348 0.931 . S
H1319 C1340 0.929 . S
H1320 C1349 0.930 . S
H1321 C1341 0.931 . S
O1322 Co1298 2.097 . S
O1322 C1350 1.214 . S
H1323 C1351 0.929 . S
H1324 C1352 0.929 . S
H1325 C1353 0.930 . S
H1326 C1354 0.929 . S
H1327 C1356 0.930 . S
H1328 C1333 0.930 . S
H1329 C1337 0.930 . S
O1330 Co1299 2.037 . S
O1330 C1350 1.234 . S
C1331 O1305 1.269 . S
C1331 O1306 1.257 . S
C1332 H1307 0.930 . S
C1332 C1335 1.388 . S
C1332 C1337 1.418 . S
C1333 H1328 0.930 . S
C1333 C1336 1.404 . S
C1333 C1337 1.353 . S
N1334 Co1299 2.145 . S
N1334 C1335 1.397 . S
N1334 C1336 1.334 . S
C1335 H1316 0.929 . S
C1335 C1332 1.388 . S
C1335 N1334 1.397 . S
C1336 H1317 0.929 . S
C1336 C1333 1.404 . S
C1336 N1334 1.334 . S
C1337 H1329 0.930 . S
C1337 C1332 1.418 . S
C1337 C1333 1.353 . S
C1338 H1308 0.930 . S
C1338 N1339 1.330 . S
C1338 C1340 1.446 . S
N1339 Co1298 2.151 . S
N1339 C1338 1.330 . S
N1339 C1343 1.418 . S
C1340 H1319 0.929 . S
C1340 C1338 1.446 . S
C1340 C1341 1.332 . S
C1341 H1321 0.931 . S
C1341 C1340 1.332 . S
C1341 C1342 1.267 . S
C1342 H1310 0.929 . S
C1342 C1341 1.267 . S
C1342 C1343 1.251 . S
C1343 H1313 0.929 . S
C1343 N1339 1.418 . S
C1343 C1342 1.251 . S
C1344 H1311 0.930 . S
C1344 C1346 1.406 . S
C1344 C1349 1.261 . S
C1345 H1312 0.930 . S
C1345 N1347 1.325 . S
C1345 C1348 1.357 . S
C1346 H1314 0.928 . S
C1346 C1344 1.406 . S
C1346 N1347 1.261 . S
N1347 Co1298 2.214 . S
N1347 C1345 1.325 . S
N1347 C1346 1.261 . S
C1348 H1318 0.931 . S
C1348 C1345 1.357 . S
C1348 C1349 1.312 . S
C1349 H1320 0.930 . S
C1349 C1344 1.261 . S
C1349 C1348 1.312 . S
C1350 O1322 1.214 . S
C1350 O1330 1.234 . S
C1351 H1323 0.929 . S
C1351 C1354 1.391 . S
C1351 C1356 1.391 . S
C1352 H1324 0.929 . S
C1352 C1353 1.390 . S
C1352 N1355 1.391 . S
C1353 H1325 0.930 . S
C1353 C1352 1.390 . S
C1353 C1354 1.392 . S
C1354 H1326 0.929 . S
C1354 C1351 1.391 . S
C1354 C1353 1.392 . S
N1355 Co1299 2.257 . S
N1355 C1352 1.391 . S
N1355 C1356 1.388 . S
C1356 H1327 0.930 . S
C1356 C1351 1.391 . S
C1356 N1355 1.388 . S
Co1357 O1359 2.143 . S
Co1357 O1365 2.074 . S
Co1357 O1368 2.093 . S
Co1357 O1381 2.097 . S
Co1357 N1398 2.151 . S
Co1357 N1406 2.214 . S
Co1358 O1359 2.160 . S
Co1358 O1364 2.058 . S
Co1358 O1374 2.057 . S
Co1358 O1389 2.037 . S
Co1358 N1393 2.145 . S
Co1358 N1414 2.257 . S
O1359 Co1357 2.143 . S
O1359 Co1358 2.160 . S
C1360 O1361 1.278 . S
C1360 O1368 1.224 . S
O1361 C1360 1.278 . S
C1362 O1363 1.245 . S
C1362 O1374 1.232 . S
O1363 C1362 1.245 . S
O1364 Co1358 2.058 . S
O1364 C1390 1.269 . S
O1365 Co1357 2.074 . S
O1365 C1390 1.257 . S
H1366 C1391 0.930 . S
H1367 C1397 0.930 . S
O1368 Co1357 2.093 . S
O1368 C1360 1.224 . S
H1369 C1401 0.929 . S
H1370 C1403 0.930 . S
H1371 C1404 0.930 . S
H1372 C1402 0.929 . S
H1373 C1405 0.928 . S
O1374 Co1358 2.057 . S
O1374 C1362 1.232 . S
H1375 C1394 0.929 . S
H1376 C1395 0.929 . S
H1377 C1407 0.931 . S
H1378 C1399 0.929 . S
H1379 C1408 0.930 . S
H1380 C1400 0.931 . S
O1381 Co1357 2.097 . S
O1381 C1409 1.214 . S
H1382 C1410 0.929 . S
H1383 C1411 0.929 . S
H1384 C1412 0.930 . S
H1385 C1413 0.929 . S
H1386 C1415 0.930 . S
H1387 C1392 0.930 . S
H1388 C1396 0.930 . S
O1389 Co1358 2.037 . S
O1389 C1409 1.234 . S
C1390 O1364 1.269 . S
C1390 O1365 1.257 . S
C1391 H1366 0.930 . S
C1391 C1394 1.388 . S
C1391 C1396 1.418 . S
C1392 H1387 0.930 . S
C1392 C1395 1.404 . S
C1392 C1396 1.353 . S
N1393 Co1358 2.145 . S
N1393 C1394 1.397 . S
N1393 C1395 1.334 . S
C1394 H1375 0.929 . S
C1394 C1391 1.388 . S
C1394 N1393 1.397 . S
C1395 H1376 0.929 . S
C1395 C1392 1.404 . S
C1395 N1393 1.334 . S
C1396 H1388 0.930 . S
C1396 C1391 1.418 . S
C1396 C1392 1.353 . S
C1397 H1367 0.930 . S
C1397 N1398 1.330 . S
C1397 C1399 1.446 . S
N1398 Co1357 2.151 . S
N1398 C1397 1.330 . S
N1398 C1402 1.418 . S
C1399 H1378 0.929 . S
C1399 C1397 1.446 . S
C1399 C1400 1.332 . S
C1400 H1380 0.931 . S
C1400 C1399 1.332 . S
C1400 C1401 1.267 . S
C1401 H1369 0.929 . S
C1401 C1400 1.267 . S
C1401 C1402 1.251 . S
C1402 H1372 0.929 . S
C1402 N1398 1.418 . S
C1402 C1401 1.251 . S
C1403 H1370 0.930 . S
C1403 C1405 1.406 . S
C1403 C1408 1.261 . S
C1404 H1371 0.930 . S
C1404 N1406 1.325 . S
C1404 C1407 1.357 . S
C1405 H1373 0.928 . S
C1405 C1403 1.406 . S
C1405 N1406 1.261 . S
N1406 Co1357 2.214 . S
N1406 C1404 1.325 . S
N1406 C1405 1.261 . S
C1407 H1377 0.931 . S
C1407 C1404 1.357 . S
C1407 C1408 1.312 . S
C1408 H1379 0.930 . S
C1408 C1403 1.261 . S
C1408 C1407 1.312 . S
C1409 O1381 1.214 . S
C1409 O1389 1.234 . S
C1410 H1382 0.929 . S
C1410 C1413 1.391 . S
C1410 C1415 1.391 . S
C1411 H1383 0.929 . S
C1411 C1412 1.390 . S
C1411 N1414 1.391 . S
C1412 H1384 0.930 . S
C1412 C1411 1.390 . S
C1412 C1413 1.392 . S
C1413 H1385 0.929 . S
C1413 C1410 1.391 . S
C1413 C1412 1.392 . S
N1414 Co1358 2.257 . S
N1414 C1411 1.391 . S
N1414 C1415 1.388 . S
C1415 H1386 0.930 . S
C1415 C1410 1.391 . S
C1415 N1414 1.388 . S
Co1416 O1418 2.143 . S
Co1416 O1424 2.074 . S
Co1416 O1427 2.093 . S
Co1416 O1440 2.097 . S
Co1416 N1457 2.151 . S
Co1416 N1465 2.214 . S
Co1417 O1418 2.160 . S
Co1417 O1423 2.058 . S
Co1417 O1433 2.057 . S
Co1417 O1448 2.037 . S
Co1417 N1452 2.145 . S
Co1417 N1473 2.257 . S
O1418 Co1416 2.143 . S
O1418 Co1417 2.160 . S
C1419 O1420 1.278 . S
C1419 O1427 1.224 . S
O1420 C1419 1.278 . S
C1421 O1422 1.245 . S
C1421 O1433 1.232 . S
O1422 C1421 1.245 . S
O1423 Co1417 2.058 . S
O1423 C1449 1.269 . S
O1424 Co1416 2.074 . S
O1424 C1449 1.257 . S
H1425 C1450 0.930 . S
H1426 C1456 0.930 . S
O1427 Co1416 2.093 . S
O1427 C1419 1.224 . S
H1428 C1460 0.929 . S
H1429 C1462 0.930 . S
H1430 C1463 0.930 . S
H1431 C1461 0.929 . S
H1432 C1464 0.928 . S
O1433 Co1417 2.057 . S
O1433 C1421 1.232 . S
H1434 C1453 0.929 . S
H1435 C1454 0.929 . S
H1436 C1466 0.931 . S
H1437 C1458 0.929 . S
H1438 C1467 0.930 . S
H1439 C1459 0.931 . S
O1440 Co1416 2.097 . S
O1440 C1468 1.214 . S
H1441 C1469 0.929 . S
H1442 C1470 0.929 . S
H1443 C1471 0.930 . S
H1444 C1472 0.929 . S
H1445 C1474 0.930 . S
H1446 C1451 0.930 . S
H1447 C1455 0.930 . S
O1448 Co1417 2.037 . S
O1448 C1468 1.234 . S
C1449 O1423 1.269 . S
C1449 O1424 1.257 . S
C1450 H1425 0.930 . S
C1450 C1453 1.388 . S
C1450 C1455 1.418 . S
C1451 H1446 0.930 . S
C1451 C1454 1.404 . S
C1451 C1455 1.353 . S
N1452 Co1417 2.145 . S
N1452 C1453 1.397 . S
N1452 C1454 1.334 . S
C1453 H1434 0.929 . S
C1453 C1450 1.388 . S
C1453 N1452 1.397 . S
C1454 H1435 0.929 . S
C1454 C1451 1.404 . S
C1454 N1452 1.334 . S
C1455 H1447 0.930 . S
C1455 C1450 1.418 . S
C1455 C1451 1.353 . S
C1456 H1426 0.930 . S
C1456 N1457 1.330 . S
C1456 C1458 1.446 . S
N1457 Co1416 2.151 . S
N1457 C1456 1.330 . S
N1457 C1461 1.418 . S
C1458 H1437 0.929 . S
C1458 C1456 1.446 . S
C1458 C1459 1.332 . S
C1459 H1439 0.931 . S
C1459 C1458 1.332 . S
C1459 C1460 1.267 . S
C1460 H1428 0.929 . S
C1460 C1459 1.267 . S
C1460 C1461 1.251 . S
C1461 H1431 0.929 . S
C1461 N1457 1.418 . S
C1461 C1460 1.251 . S
C1462 H1429 0.930 . S
C1462 C1464 1.406 . S
C1462 C1467 1.261 . S
C1463 H1430 0.930 . S
C1463 N1465 1.325 . S
C1463 C1466 1.357 . S
C1464 H1432 0.928 . S
C1464 C1462 1.406 . S
C1464 N1465 1.261 . S
N1465 Co1416 2.214 . S
N1465 C1463 1.325 . S
N1465 C1464 1.261 . S
C1466 H1436 0.931 . S
C1466 C1463 1.357 . S
C1466 C1467 1.312 . S
C1467 H1438 0.930 . S
C1467 C1462 1.261 . S
C1467 C1466 1.312 . S
C1468 O1440 1.214 . S
C1468 O1448 1.234 . S
C1469 H1441 0.929 . S
C1469 C1472 1.391 . S
C1469 C1474 1.391 . S
C1470 H1442 0.929 . S
C1470 C1471 1.390 . S
C1470 N1473 1.391 . S
C1471 H1443 0.930 . S
C1471 C1470 1.390 . S
C1471 C1472 1.392 . S
C1472 H1444 0.929 . S
C1472 C1469 1.391 . S
C1472 C1471 1.392 . S
N1473 Co1417 2.257 . S
N1473 C1470 1.391 . S
N1473 C1474 1.388 . S
C1474 H1445 0.930 . S
C1474 C1469 1.391 . S
C1474 N1473 1.388 . S
Co1475 O1477 2.143 . S
Co1475 O1483 2.074 . S
Co1475 O1486 2.093 . S
Co1475 O1499 2.097 . S
Co1475 N1516 2.151 . S
Co1475 N1524 2.214 . S
Co1476 O1477 2.160 . S
Co1476 O1482 2.058 . S
Co1476 O1492 2.057 . S
Co1476 O1507 2.037 . S
Co1476 N1511 2.145 . S
Co1476 N1532 2.257 . S
O1477 Co1475 2.143 . S
O1477 Co1476 2.160 . S
C1478 O1479 1.278 . S
C1478 O1486 1.224 . S
O1479 C1478 1.278 . S
C1480 O1481 1.245 . S
C1480 O1492 1.232 . S
O1481 C1480 1.245 . S
O1482 Co1476 2.058 . S
O1482 C1508 1.269 . S
O1483 Co1475 2.074 . S
O1483 C1508 1.257 . S
H1484 C1509 0.930 . S
H1485 C1515 0.930 . S
O1486 Co1475 2.093 . S
O1486 C1478 1.224 . S
H1487 C1519 0.929 . S
H1488 C1521 0.930 . S
H1489 C1522 0.930 . S
H1490 C1520 0.929 . S
H1491 C1523 0.928 . S
O1492 Co1476 2.057 . S
O1492 C1480 1.232 . S
H1493 C1512 0.929 . S
H1494 C1513 0.929 . S
H1495 C1525 0.931 . S
H1496 C1517 0.929 . S
H1497 C1526 0.930 . S
H1498 C1518 0.931 . S
O1499 Co1475 2.097 . S
O1499 C1527 1.214 . S
H1500 C1528 0.929 . S
H1501 C1529 0.929 . S
H1502 C1530 0.930 . S
H1503 C1531 0.929 . S
H1504 C1533 0.930 . S
H1505 C1510 0.930 . S
H1506 C1514 0.930 . S
O1507 Co1476 2.037 . S
O1507 C1527 1.234 . S
C1508 O1482 1.269 . S
C1508 O1483 1.257 . S
C1509 H1484 0.930 . S
C1509 C1512 1.388 . S
C1509 C1514 1.418 . S
C1510 H1505 0.930 . S
C1510 C1513 1.404 . S
C1510 C1514 1.353 . S
N1511 Co1476 2.145 . S
N1511 C1512 1.397 . S
N1511 C1513 1.334 . S
C1512 H1493 0.929 . S
C1512 C1509 1.388 . S
C1512 N1511 1.397 . S
C1513 H1494 0.929 . S
C1513 C1510 1.404 . S
C1513 N1511 1.334 . S
C1514 H1506 0.930 . S
C1514 C1509 1.418 . S
C1514 C1510 1.353 . S
C1515 H1485 0.930 . S
C1515 N1516 1.330 . S
C1515 C1517 1.446 . S
N1516 Co1475 2.151 . S
N1516 C1515 1.330 . S
N1516 C1520 1.418 . S
C1517 H1496 0.929 . S
C1517 C1515 1.446 . S
C1517 C1518 1.332 . S
C1518 H1498 0.931 . S
C1518 C1517 1.332 . S
C1518 C1519 1.267 . S
C1519 H1487 0.929 . S
C1519 C1518 1.267 . S
C1519 C1520 1.251 . S
C1520 H1490 0.929 . S
C1520 N1516 1.418 . S
C1520 C1519 1.251 . S
C1521 H1488 0.930 . S
C1521 C1523 1.406 . S
C1521 C1526 1.261 . S
C1522 H1489 0.930 . S
C1522 N1524 1.325 . S
C1522 C1525 1.357 . S
C1523 H1491 0.928 . S
C1523 C1521 1.406 . S
C1523 N1524 1.261 . S
N1524 Co1475 2.214 . S
N1524 C1522 1.325 . S
N1524 C1523 1.261 . S
C1525 H1495 0.931 . S
C1525 C1522 1.357 . S
C1525 C1526 1.312 . S
C1526 H1497 0.930 . S
C1526 C1521 1.261 . S
C1526 C1525 1.312 . S
C1527 O1499 1.214 . S
C1527 O1507 1.234 . S
C1528 H1500 0.929 . S
C1528 C1531 1.391 . S
C1528 C1533 1.391 . S
C1529 H1501 0.929 . S
C1529 C1530 1.390 . S
C1529 N1532 1.391 . S
C1530 H1502 0.930 . S
C1530 C1529 1.390 . S
C1530 C1531 1.392 . S
C1531 H1503 0.929 . S
C1531 C1528 1.391 . S
C1531 C1530 1.392 . S
N1532 Co1476 2.257 . S
N1532 C1529 1.391 . S
N1532 C1533 1.388 . S
C1533 H1504 0.930 . S
C1533 C1528 1.391 . S
C1533 N1532 1.388 . S
Co1534 O1536 2.143 . S
Co1534 O1542 2.074 . S
Co1534 O1545 2.093 . S
Co1534 O1558 2.097 . S
Co1534 N1575 2.151 . S
Co1534 N1583 2.214 . S
Co1535 O1536 2.160 . S
Co1535 O1541 2.058 . S
Co1535 O1551 2.057 . S
Co1535 O1566 2.037 . S
Co1535 N1570 2.145 . S
Co1535 N1591 2.257 . S
O1536 Co1534 2.143 . S
O1536 Co1535 2.160 . S
C1537 O1538 1.278 . S
C1537 O1545 1.224 . S
O1538 C1537 1.278 . S
C1539 O1540 1.245 . S
C1539 O1551 1.232 . S
O1540 C1539 1.245 . S
O1541 Co1535 2.058 . S
O1541 C1567 1.269 . S
O1542 Co1534 2.074 . S
O1542 C1567 1.257 . S
H1543 C1568 0.930 . S
H1544 C1574 0.930 . S
O1545 Co1534 2.093 . S
O1545 C1537 1.224 . S
H1546 C1578 0.929 . S
H1547 C1580 0.930 . S
H1548 C1581 0.930 . S
H1549 C1579 0.929 . S
H1550 C1582 0.928 . S
O1551 Co1535 2.057 . S
O1551 C1539 1.232 . S
H1552 C1571 0.929 . S
H1553 C1572 0.929 . S
H1554 C1584 0.931 . S
H1555 C1576 0.929 . S
H1556 C1585 0.930 . S
H1557 C1577 0.931 . S
O1558 Co1534 2.097 . S
O1558 C1586 1.214 . S
H1559 C1587 0.929 . S
H1560 C1588 0.929 . S
H1561 C1589 0.930 . S
H1562 C1590 0.929 . S
H1563 C1592 0.930 . S
H1564 C1569 0.930 . S
H1565 C1573 0.930 . S
O1566 Co1535 2.037 . S
O1566 C1586 1.234 . S
C1567 O1541 1.269 . S
C1567 O1542 1.257 . S
C1568 H1543 0.930 . S
C1568 C1571 1.388 . S
C1568 C1573 1.418 . S
C1569 H1564 0.930 . S
C1569 C1572 1.404 . S
C1569 C1573 1.353 . S
N1570 Co1535 2.145 . S
N1570 C1571 1.397 . S
N1570 C1572 1.334 . S
C1571 H1552 0.929 . S
C1571 C1568 1.388 . S
C1571 N1570 1.397 . S
C1572 H1553 0.929 . S
C1572 C1569 1.404 . S
C1572 N1570 1.334 . S
C1573 H1565 0.930 . S
C1573 C1568 1.418 . S
C1573 C1569 1.353 . S
C1574 H1544 0.930 . S
C1574 N1575 1.330 . S
C1574 C1576 1.446 . S
N1575 Co1534 2.151 . S
N1575 C1574 1.330 . S
N1575 C1579 1.418 . S
C1576 H1555 0.929 . S
C1576 C1574 1.446 . S
C1576 C1577 1.332 . S
C1577 H1557 0.931 . S
C1577 C1576 1.332 . S
C1577 C1578 1.267 . S
C1578 H1546 0.929 . S
C1578 C1577 1.267 . S
C1578 C1579 1.251 . S
C1579 H1549 0.929 . S
C1579 N1575 1.418 . S
C1579 C1578 1.251 . S
C1580 H1547 0.930 . S
C1580 C1582 1.406 . S
C1580 C1585 1.261 . S
C1581 H1548 0.930 . S
C1581 N1583 1.325 . S
C1581 C1584 1.357 . S
C1582 H1550 0.928 . S
C1582 C1580 1.406 . S
C1582 N1583 1.261 . S
N1583 Co1534 2.214 . S
N1583 C1581 1.325 . S
N1583 C1582 1.261 . S
C1584 H1554 0.931 . S
C1584 C1581 1.357 . S
C1584 C1585 1.312 . S
C1585 H1556 0.930 . S
C1585 C1580 1.261 . S
C1585 C1584 1.312 . S
C1586 O1558 1.214 . S
C1586 O1566 1.234 . S
C1587 H1559 0.929 . S
C1587 C1590 1.391 . S
C1587 C1592 1.391 . S
C1588 H1560 0.929 . S
C1588 C1589 1.390 . S
C1588 N1591 1.391 . S
C1589 H1561 0.930 . S
C1589 C1588 1.390 . S
C1589 C1590 1.392 . S
C1590 H1562 0.929 . S
C1590 C1587 1.391 . S
C1590 C1589 1.392 . S
N1591 Co1535 2.257 . S
N1591 C1588 1.391 . S
N1591 C1592 1.388 . S
C1592 H1563 0.930 . S
C1592 C1587 1.391 . S
C1592 N1591 1.388 . S
Co1593 O1595 2.143 . S
Co1593 O1601 2.074 . S
Co1593 O1604 2.093 . S
Co1593 O1617 2.097 . S
Co1593 N1634 2.151 . S
Co1593 N1642 2.214 . S
Co1594 O1595 2.160 . S
Co1594 O1600 2.058 . S
Co1594 O1610 2.057 . S
Co1594 O1625 2.037 . S
Co1594 N1629 2.145 . S
Co1594 N1650 2.257 . S
O1595 Co1593 2.143 . S
O1595 Co1594 2.160 . S
C1596 O1597 1.278 . S
C1596 O1604 1.224 . S
O1597 C1596 1.278 . S
C1598 O1599 1.245 . S
C1598 O1610 1.232 . S
O1599 C1598 1.245 . S
O1600 Co1594 2.058 . S
O1600 C1626 1.269 . S
O1601 Co1593 2.074 . S
O1601 C1626 1.257 . S
H1602 C1627 0.930 . S
H1603 C1633 0.930 . S
O1604 Co1593 2.093 . S
O1604 C1596 1.224 . S
H1605 C1637 0.929 . S
H1606 C1639 0.930 . S
H1607 C1640 0.930 . S
H1608 C1638 0.929 . S
H1609 C1641 0.928 . S
O1610 Co1594 2.057 . S
O1610 C1598 1.232 . S
H1611 C1630 0.929 . S
H1612 C1631 0.929 . S
H1613 C1643 0.931 . S
H1614 C1635 0.929 . S
H1615 C1644 0.930 . S
H1616 C1636 0.931 . S
O1617 Co1593 2.097 . S
O1617 C1645 1.214 . S
H1618 C1646 0.929 . S
H1619 C1647 0.929 . S
H1620 C1648 0.930 . S
H1621 C1649 0.929 . S
H1622 C1651 0.930 . S
H1623 C1628 0.930 . S
H1624 C1632 0.930 . S
O1625 Co1594 2.037 . S
O1625 C1645 1.234 . S
C1626 O1600 1.269 . S
C1626 O1601 1.257 . S
C1627 H1602 0.930 . S
C1627 C1630 1.388 . S
C1627 C1632 1.418 . S
C1628 H1623 0.930 . S
C1628 C1631 1.404 . S
C1628 C1632 1.353 . S
N1629 Co1594 2.145 . S
N1629 C1630 1.397 . S
N1629 C1631 1.334 . S
C1630 H1611 0.929 . S
C1630 C1627 1.388 . S
C1630 N1629 1.397 . S
C1631 H1612 0.929 . S
C1631 C1628 1.404 . S
C1631 N1629 1.334 . S
C1632 H1624 0.930 . S
C1632 C1627 1.418 . S
C1632 C1628 1.353 . S
C1633 H1603 0.930 . S
C1633 N1634 1.330 . S
C1633 C1635 1.446 . S
N1634 Co1593 2.151 . S
N1634 C1633 1.330 . S
N1634 C1638 1.418 . S
C1635 H1614 0.929 . S
C1635 C1633 1.446 . S
C1635 C1636 1.332 . S
C1636 H1616 0.931 . S
C1636 C1635 1.332 . S
C1636 C1637 1.267 . S
C1637 H1605 0.929 . S
C1637 C1636 1.267 . S
C1637 C1638 1.251 . S
C1638 H1608 0.929 . S
C1638 N1634 1.418 . S
C1638 C1637 1.251 . S
C1639 H1606 0.930 . S
C1639 C1641 1.406 . S
C1639 C1644 1.261 . S
C1640 H1607 0.930 . S
C1640 N1642 1.325 . S
C1640 C1643 1.357 . S
C1641 H1609 0.928 . S
C1641 C1639 1.406 . S
C1641 N1642 1.261 . S
N1642 Co1593 2.214 . S
N1642 C1640 1.325 . S
N1642 C1641 1.261 . S
C1643 H1613 0.931 . S
C1643 C1640 1.357 . S
C1643 C1644 1.312 . S
C1644 H1615 0.930 . S
C1644 C1639 1.261 . S
C1644 C1643 1.312 . S
C1645 O1617 1.214 . S
C1645 O1625 1.234 . S
C1646 H1618 0.929 . S
C1646 C1649 1.391 . S
C1646 C1651 1.391 . S
C1647 H1619 0.929 . S
C1647 C1648 1.390 . S
C1647 N1650 1.391 . S
C1648 H1620 0.930 . S
C1648 C1647 1.390 . S
C1648 C1649 1.392 . S
C1649 H1621 0.929 . S
C1649 C1646 1.391 . S
C1649 C1648 1.392 . S
N1650 Co1594 2.257 . S
N1650 C1647 1.391 . S
N1650 C1651 1.388 . S
C1651 H1622 0.930 . S
C1651 C1646 1.391 . S
C1651 N1650 1.388 . S
Co1652 O1654 2.143 . S
Co1652 O1660 2.074 . S
Co1652 O1663 2.093 . S
Co1652 O1676 2.097 . S
Co1652 N1693 2.151 . S
Co1652 N1701 2.214 . S
Co1653 O1654 2.160 . S
Co1653 O1659 2.058 . S
Co1653 O1669 2.057 . S
Co1653 O1684 2.037 . S
Co1653 N1688 2.145 . S
Co1653 N1709 2.257 . S
O1654 Co1652 2.143 . S
O1654 Co1653 2.160 . S
C1655 O1656 1.278 . S
C1655 O1663 1.224 . S
O1656 C1655 1.278 . S
C1657 O1658 1.245 . S
C1657 O1669 1.232 . S
O1658 C1657 1.245 . S
O1659 Co1653 2.058 . S
O1659 C1685 1.269 . S
O1660 Co1652 2.074 . S
O1660 C1685 1.257 . S
H1661 C1686 0.930 . S
H1662 C1692 0.930 . S
O1663 Co1652 2.093 . S
O1663 C1655 1.224 . S
H1664 C1696 0.929 . S
H1665 C1698 0.930 . S
H1666 C1699 0.930 . S
H1667 C1697 0.929 . S
H1668 C1700 0.928 . S
O1669 Co1653 2.057 . S
O1669 C1657 1.232 . S
H1670 C1689 0.929 . S
H1671 C1690 0.929 . S
H1672 C1702 0.931 . S
H1673 C1694 0.929 . S
H1674 C1703 0.930 . S
H1675 C1695 0.931 . S
O1676 Co1652 2.097 . S
O1676 C1704 1.214 . S
H1677 C1705 0.929 . S
H1678 C1706 0.929 . S
H1679 C1707 0.930 . S
H1680 C1708 0.929 . S
H1681 C1710 0.930 . S
H1682 C1687 0.930 . S
H1683 C1691 0.930 . S
O1684 Co1653 2.037 . S
O1684 C1704 1.234 . S
C1685 O1659 1.269 . S
C1685 O1660 1.257 . S
C1686 H1661 0.930 . S
C1686 C1689 1.388 . S
C1686 C1691 1.418 . S
C1687 H1682 0.930 . S
C1687 C1690 1.404 . S
C1687 C1691 1.353 . S
N1688 Co1653 2.145 . S
N1688 C1689 1.397 . S
N1688 C1690 1.334 . S
C1689 H1670 0.929 . S
C1689 C1686 1.388 . S
C1689 N1688 1.397 . S
C1690 H1671 0.929 . S
C1690 C1687 1.404 . S
C1690 N1688 1.334 . S
C1691 H1683 0.930 . S
C1691 C1686 1.418 . S
C1691 C1687 1.353 . S
C1692 H1662 0.930 . S
C1692 N1693 1.330 . S
C1692 C1694 1.446 . S
N1693 Co1652 2.151 . S
N1693 C1692 1.330 . S
N1693 C1697 1.418 . S
C1694 H1673 0.929 . S
C1694 C1692 1.446 . S
C1694 C1695 1.332 . S
C1695 H1675 0.931 . S
C1695 C1694 1.332 . S
C1695 C1696 1.267 . S
C1696 H1664 0.929 . S
C1696 C1695 1.267 . S
C1696 C1697 1.251 . S
C1697 H1667 0.929 . S
C1697 N1693 1.418 . S
C1697 C1696 1.251 . S
C1698 H1665 0.930 . S
C1698 C1700 1.406 . S
C1698 C1703 1.261 . S
C1699 H1666 0.930 . S
C1699 N1701 1.325 . S
C1699 C1702 1.357 . S
C1700 H1668 0.928 . S
C1700 C1698 1.406 . S
C1700 N1701 1.261 . S
N1701 Co1652 2.214 . S
N1701 C1699 1.325 . S
N1701 C1700 1.261 . S
C1702 H1672 0.931 . S
C1702 C1699 1.357 . S
C1702 C1703 1.312 . S
C1703 H1674 0.930 . S
C1703 C1698 1.261 . S
C1703 C1702 1.312 . S
C1704 O1676 1.214 . S
C1704 O1684 1.234 . S
C1705 H1677 0.929 . S
C1705 C1708 1.391 . S
C1705 C1710 1.391 . S
C1706 H1678 0.929 . S
C1706 C1707 1.390 . S
C1706 N1709 1.391 . S
C1707 H1679 0.930 . S
C1707 C1706 1.390 . S
C1707 C1708 1.392 . S
C1708 H1680 0.929 . S
C1708 C1705 1.391 . S
C1708 C1707 1.392 . S
N1709 Co1653 2.257 . S
N1709 C1706 1.391 . S
N1709 C1710 1.388 . S
C1710 H1681 0.930 . S
C1710 C1705 1.391 . S
C1710 N1709 1.388 . S
Co1711 O1713 2.143 . S
Co1711 O1719 2.074 . S
Co1711 O1722 2.093 . S
Co1711 O1735 2.097 . S
Co1711 N1752 2.151 . S
Co1711 N1760 2.214 . S
Co1712 O1713 2.160 . S
Co1712 O1718 2.058 . S
Co1712 O1728 2.057 . S
Co1712 O1743 2.037 . S
Co1712 N1747 2.145 . S
Co1712 N1768 2.257 . S
O1713 Co1711 2.143 . S
O1713 Co1712 2.160 . S
C1714 O1715 1.278 . S
C1714 O1722 1.224 . S
O1715 C1714 1.278 . S
C1716 O1717 1.245 . S
C1716 O1728 1.232 . S
O1717 C1716 1.245 . S
O1718 Co1712 2.058 . S
O1718 C1744 1.269 . S
O1719 Co1711 2.074 . S
O1719 C1744 1.257 . S
H1720 C1745 0.930 . S
H1721 C1751 0.930 . S
O1722 Co1711 2.093 . S
O1722 C1714 1.224 . S
H1723 C1755 0.929 . S
H1724 C1757 0.930 . S
H1725 C1758 0.930 . S
H1726 C1756 0.929 . S
H1727 C1759 0.928 . S
O1728 Co1712 2.057 . S
O1728 C1716 1.232 . S
H1729 C1748 0.929 . S
H1730 C1749 0.929 . S
H1731 C1761 0.931 . S
H1732 C1753 0.929 . S
H1733 C1762 0.930 . S
H1734 C1754 0.931 . S
O1735 Co1711 2.097 . S
O1735 C1763 1.214 . S
H1736 C1764 0.929 . S
H1737 C1765 0.929 . S
H1738 C1766 0.930 . S
H1739 C1767 0.929 . S
H1740 C1769 0.930 . S
H1741 C1746 0.930 . S
H1742 C1750 0.930 . S
O1743 Co1712 2.037 . S
O1743 C1763 1.234 . S
C1744 O1718 1.269 . S
C1744 O1719 1.257 . S
C1745 H1720 0.930 . S
C1745 C1748 1.388 . S
C1745 C1750 1.418 . S
C1746 H1741 0.930 . S
C1746 C1749 1.404 . S
C1746 C1750 1.353 . S
N1747 Co1712 2.145 . S
N1747 C1748 1.397 . S
N1747 C1749 1.334 . S
C1748 H1729 0.929 . S
C1748 C1745 1.388 . S
C1748 N1747 1.397 . S
C1749 H1730 0.929 . S
C1749 C1746 1.404 . S
C1749 N1747 1.334 . S
C1750 H1742 0.930 . S
C1750 C1745 1.418 . S
C1750 C1746 1.353 . S
C1751 H1721 0.930 . S
C1751 N1752 1.330 . S
C1751 C1753 1.446 . S
N1752 Co1711 2.151 . S
N1752 C1751 1.330 . S
N1752 C1756 1.418 . S
C1753 H1732 0.929 . S
C1753 C1751 1.446 . S
C1753 C1754 1.332 . S
C1754 H1734 0.931 . S
C1754 C1753 1.332 . S
C1754 C1755 1.267 . S
C1755 H1723 0.929 . S
C1755 C1754 1.267 . S
C1755 C1756 1.251 . S
C1756 H1726 0.929 . S
C1756 N1752 1.418 . S
C1756 C1755 1.251 . S
C1757 H1724 0.930 . S
C1757 C1759 1.406 . S
C1757 C1762 1.261 . S
C1758 H1725 0.930 . S
C1758 N1760 1.325 . S
C1758 C1761 1.357 . S
C1759 H1727 0.928 . S
C1759 C1757 1.406 . S
C1759 N1760 1.261 . S
N1760 Co1711 2.214 . S
N1760 C1758 1.325 . S
N1760 C1759 1.261 . S
C1761 H1731 0.931 . S
C1761 C1758 1.357 . S
C1761 C1762 1.312 . S
C1762 H1733 0.930 . S
C1762 C1757 1.261 . S
C1762 C1761 1.312 . S
C1763 O1735 1.214 . S
C1763 O1743 1.234 . S
C1764 H1736 0.929 . S
C1764 C1767 1.391 . S
C1764 C1769 1.391 . S
C1765 H1737 0.929 . S
C1765 C1766 1.390 . S
C1765 N1768 1.391 . S
C1766 H1738 0.930 . S
C1766 C1765 1.390 . S
C1766 C1767 1.392 . S
C1767 H1739 0.929 . S
C1767 C1764 1.391 . S
C1767 C1766 1.392 . S
N1768 Co1712 2.257 . S
N1768 C1765 1.391 . S
N1768 C1769 1.388 . S
C1769 H1740 0.930 . S
C1769 C1764 1.391 . S
C1769 N1768 1.388 . S
Co1770 O1772 2.143 . S
Co1770 O1778 2.074 . S
Co1770 O1781 2.093 . S
Co1770 O1794 2.097 . S
Co1770 N1811 2.151 . S
Co1770 N1819 2.214 . S
Co1771 O1772 2.160 . S
Co1771 O1777 2.058 . S
Co1771 O1787 2.057 . S
Co1771 O1802 2.037 . S
Co1771 N1806 2.145 . S
Co1771 N1827 2.257 . S
O1772 Co1770 2.143 . S
O1772 Co1771 2.160 . S
C1773 O1774 1.278 . S
C1773 O1781 1.224 . S
O1774 C1773 1.278 . S
C1775 O1776 1.245 . S
C1775 O1787 1.232 . S
O1776 C1775 1.245 . S
O1777 Co1771 2.058 . S
O1777 C1803 1.269 . S
O1778 Co1770 2.074 . S
O1778 C1803 1.257 . S
H1779 C1804 0.930 . S
H1780 C1810 0.930 . S
O1781 Co1770 2.093 . S
O1781 C1773 1.224 . S
H1782 C1814 0.929 . S
H1783 C1816 0.930 . S
H1784 C1817 0.930 . S
H1785 C1815 0.929 . S
H1786 C1818 0.928 . S
O1787 Co1771 2.057 . S
O1787 C1775 1.232 . S
H1788 C1807 0.929 . S
H1789 C1808 0.929 . S
H1790 C1820 0.931 . S
H1791 C1812 0.929 . S
H1792 C1821 0.930 . S
H1793 C1813 0.931 . S
O1794 Co1770 2.097 . S
O1794 C1822 1.214 . S
H1795 C1823 0.929 . S
H1796 C1824 0.929 . S
H1797 C1825 0.930 . S
H1798 C1826 0.929 . S
H1799 C1828 0.930 . S
H1800 C1805 0.930 . S
H1801 C1809 0.930 . S
O1802 Co1771 2.037 . S
O1802 C1822 1.234 . S
C1803 O1777 1.269 . S
C1803 O1778 1.257 . S
C1804 H1779 0.930 . S
C1804 C1807 1.388 . S
C1804 C1809 1.418 . S
C1805 H1800 0.930 . S
C1805 C1808 1.404 . S
C1805 C1809 1.353 . S
N1806 Co1771 2.145 . S
N1806 C1807 1.397 . S
N1806 C1808 1.334 . S
C1807 H1788 0.929 . S
C1807 C1804 1.388 . S
C1807 N1806 1.397 . S
C1808 H1789 0.929 . S
C1808 C1805 1.404 . S
C1808 N1806 1.334 . S
C1809 H1801 0.930 . S
C1809 C1804 1.418 . S
C1809 C1805 1.353 . S
C1810 H1780 0.930 . S
C1810 N1811 1.330 . S
C1810 C1812 1.446 . S
N1811 Co1770 2.151 . S
N1811 C1810 1.330 . S
N1811 C1815 1.418 . S
C1812 H1791 0.929 . S
C1812 C1810 1.446 . S
C1812 C1813 1.332 . S
C1813 H1793 0.931 . S
C1813 C1812 1.332 . S
C1813 C1814 1.267 . S
C1814 H1782 0.929 . S
C1814 C1813 1.267 . S
C1814 C1815 1.251 . S
C1815 H1785 0.929 . S
C1815 N1811 1.418 . S
C1815 C1814 1.251 . S
C1816 H1783 0.930 . S
C1816 C1818 1.406 . S
C1816 C1821 1.261 . S
C1817 H1784 0.930 . S
C1817 N1819 1.325 . S
C1817 C1820 1.357 . S
C1818 H1786 0.928 . S
C1818 C1816 1.406 . S
C1818 N1819 1.261 . S
N1819 Co1770 2.214 . S
N1819 C1817 1.325 . S
N1819 C1818 1.261 . S
C1820 H1790 0.931 . S
C1820 C1817 1.357 . S
C1820 C1821 1.312 . S
C1821 H1792 0.930 . S
C1821 C1816 1.261 . S
C1821 C1820 1.312 . S
C1822 O1794 1.214 . S
C1822 O1802 1.234 . S
C1823 H1795 0.929 . S
C1823 C1826 1.391 . S
C1823 C1828 1.391 . S
C1824 H1796 0.929 . S
C1824 C1825 1.390 . S
C1824 N1827 1.391 . S
C1825 H1797 0.930 . S
C1825 C1824 1.390 . S
C1825 C1826 1.392 . S
C1826 H1798 0.929 . S
C1826 C1823 1.391 . S
C1826 C1825 1.392 . S
N1827 Co1771 2.257 . S
N1827 C1824 1.391 . S
N1827 C1828 1.388 . S
C1828 H1799 0.930 . S
C1828 C1823 1.391 . S
C1828 N1827 1.388 . S
Co1829 O1831 2.143 . S
Co1829 O1837 2.074 . S
Co1829 O1840 2.093 . S
Co1829 O1853 2.097 . S
Co1829 N1870 2.151 . S
Co1829 N1878 2.214 . S
Co1830 O1831 2.160 . S
Co1830 O1836 2.058 . S
Co1830 O1846 2.057 . S
Co1830 O1861 2.037 . S
Co1830 N1865 2.145 . S
Co1830 N1886 2.257 . S
O1831 Co1829 2.143 . S
O1831 Co1830 2.160 . S
C1832 O1833 1.278 . S
C1832 O1840 1.224 . S
O1833 C1832 1.278 . S
C1834 O1835 1.245 . S
C1834 O1846 1.232 . S
O1835 C1834 1.245 . S
O1836 Co1830 2.058 . S
O1836 C1862 1.269 . S
O1837 Co1829 2.074 . S
O1837 C1862 1.257 . S
H1838 C1863 0.930 . S
H1839 C1869 0.930 . S
O1840 Co1829 2.093 . S
O1840 C1832 1.224 . S
H1841 C1873 0.929 . S
H1842 C1875 0.930 . S
H1843 C1876 0.930 . S
H1844 C1874 0.929 . S
H1845 C1877 0.928 . S
O1846 Co1830 2.057 . S
O1846 C1834 1.232 . S
H1847 C1866 0.929 . S
H1848 C1867 0.929 . S
H1849 C1879 0.931 . S
H1850 C1871 0.929 . S
H1851 C1880 0.930 . S
H1852 C1872 0.931 . S
O1853 Co1829 2.097 . S
O1853 C1881 1.214 . S
H1854 C1882 0.929 . S
H1855 C1883 0.929 . S
H1856 C1884 0.930 . S
H1857 C1885 0.929 . S
H1858 C1887 0.930 . S
H1859 C1864 0.930 . S
H1860 C1868 0.930 . S
O1861 Co1830 2.037 . S
O1861 C1881 1.234 . S
C1862 O1836 1.269 . S
C1862 O1837 1.257 . S
C1863 H1838 0.930 . S
C1863 C1866 1.388 . S
C1863 C1868 1.418 . S
C1864 H1859 0.930 . S
C1864 C1867 1.404 . S
C1864 C1868 1.353 . S
N1865 Co1830 2.145 . S
N1865 C1866 1.397 . S
N1865 C1867 1.334 . S
C1866 H1847 0.929 . S
C1866 C1863 1.388 . S
C1866 N1865 1.397 . S
C1867 H1848 0.929 . S
C1867 C1864 1.404 . S
C1867 N1865 1.334 . S
C1868 H1860 0.930 . S
C1868 C1863 1.418 . S
C1868 C1864 1.353 . S
C1869 H1839 0.930 . S
C1869 N1870 1.330 . S
C1869 C1871 1.446 . S
N1870 Co1829 2.151 . S
N1870 C1869 1.330 . S
N1870 C1874 1.418 . S
C1871 H1850 0.929 . S
C1871 C1869 1.446 . S
C1871 C1872 1.332 . S
C1872 H1852 0.931 . S
C1872 C1871 1.332 . S
C1872 C1873 1.267 . S
C1873 H1841 0.929 . S
C1873 C1872 1.267 . S
C1873 C1874 1.251 . S
C1874 H1844 0.929 . S
C1874 N1870 1.418 . S
C1874 C1873 1.251 . S
C1875 H1842 0.930 . S
C1875 C1877 1.406 . S
C1875 C1880 1.261 . S
C1876 H1843 0.930 . S
C1876 N1878 1.325 . S
C1876 C1879 1.357 . S
C1877 H1845 0.928 . S
C1877 C1875 1.406 . S
C1877 N1878 1.261 . S
N1878 Co1829 2.214 . S
N1878 C1876 1.325 . S
N1878 C1877 1.261 . S
C1879 H1849 0.931 . S
C1879 C1876 1.357 . S
C1879 C1880 1.312 . S
C1880 H1851 0.930 . S
C1880 C1875 1.261 . S
C1880 C1879 1.312 . S
C1881 O1853 1.214 . S
C1881 O1861 1.234 . S
C1882 H1854 0.929 . S
C1882 C1885 1.391 . S
C1882 C1887 1.391 . S
C1883 H1855 0.929 . S
C1883 C1884 1.390 . S
C1883 N1886 1.391 . S
C1884 H1856 0.930 . S
C1884 C1883 1.390 . S
C1884 C1885 1.392 . S
C1885 H1857 0.929 . S
C1885 C1882 1.391 . S
C1885 C1884 1.392 . S
N1886 Co1830 2.257 . S
N1886 C1883 1.391 . S
N1886 C1887 1.388 . S
C1887 H1858 0.930 . S
C1887 C1882 1.391 . S
C1887 N1886 1.388 . S
H1888 C1894 0.930 . S
H1889 C1898 0.930 . S
H1890 C1903 0.929 . S
H1891 C1901 0.929 . S
H1892 C1896 0.929 . S
H1893 C1902 0.929 . S
C1894 H1888 0.930 . S
C1894 C1895 1.367 . S
C1894 C1902 1.378 . S
C1895 C1894 1.367 . S
C1895 C1903 1.433 . S
C1896 H1892 0.929 . S
C1896 C1898 1.378 . S
C1896 C1900 1.350 . S
C1897 C1900 1.463 . S
C1897 C1902 1.350 . S
C1897 N1905 1.427 . S
C1898 H1889 0.930 . S
C1898 C1896 1.378 . S
C1898 C1899 1.367 . S
C1899 C1898 1.367 . S
C1899 C1901 1.433 . S
C1900 C1896 1.350 . S
C1900 C1897 1.463 . S
C1900 N1904 1.427 . S
C1901 H1891 0.929 . S
C1901 C1899 1.433 . S
C1901 N1904 1.384 . S
C1902 H1893 0.929 . S
C1902 C1894 1.378 . S
C1902 C1897 1.350 . S
C1903 H1890 0.929 . S
C1903 C1895 1.433 . S
C1903 N1905 1.384 . S
N1904 C1900 1.427 . S
N1904 C1901 1.384 . S
N1905 C1897 1.427 . S
N1905 C1903 1.384 . S
H1906 C1912 0.930 . S
H1907 C1916 0.930 . S
H1908 C1921 0.929 . S
H1909 C1919 0.929 . S
H1910 C1914 0.929 . S
H1911 C1920 0.929 . S
C1912 H1906 0.930 . S
C1912 C1913 1.367 . S
C1912 C1920 1.378 . S
C1913 C1912 1.367 . S
C1913 C1921 1.433 . S
C1914 H1910 0.929 . S
C1914 C1916 1.378 . S
C1914 C1918 1.350 . S
C1915 C1918 1.463 . S
C1915 C1920 1.350 . S
C1915 N1923 1.427 . S
C1916 H1907 0.930 . S
C1916 C1914 1.378 . S
C1916 C1917 1.367 . S
C1917 C1916 1.367 . S
C1917 C1919 1.433 . S
C1918 C1914 1.350 . S
C1918 C1915 1.463 . S
C1918 N1922 1.427 . S
C1919 H1909 0.929 . S
C1919 C1917 1.433 . S
C1919 N1922 1.384 . S
C1920 H1911 0.929 . S
C1920 C1912 1.378 . S
C1920 C1915 1.350 . S
C1921 H1908 0.929 . S
C1921 C1913 1.433 . S
C1921 N1923 1.384 . S
N1922 C1918 1.427 . S
N1922 C1919 1.384 . S
N1923 C1915 1.427 . S
N1923 C1921 1.384 . S
H1924 C1930 0.930 . S
H1925 C1934 0.930 . S
H1926 C1939 0.929 . S
H1927 C1937 0.929 . S
H1928 C1932 0.929 . S
H1929 C1938 0.929 . S
C1930 H1924 0.930 . S
C1930 C1931 1.367 . S
C1930 C1938 1.378 . S
C1931 C1930 1.367 . S
C1931 C1939 1.433 . S
C1932 H1928 0.929 . S
C1932 C1934 1.378 . S
C1932 C1936 1.350 . S
C1933 C1936 1.463 . S
C1933 C1938 1.350 . S
C1933 N1941 1.427 . S
C1934 H1925 0.930 . S
C1934 C1932 1.378 . S
C1934 C1935 1.367 . S
C1935 C1934 1.367 . S
C1935 C1937 1.433 . S
C1936 C1932 1.350 . S
C1936 C1933 1.463 . S
C1936 N1940 1.427 . S
C1937 H1927 0.929 . S
C1937 C1935 1.433 . S
C1937 N1940 1.384 . S
C1938 H1929 0.929 . S
C1938 C1930 1.378 . S
C1938 C1933 1.350 . S
C1939 H1926 0.929 . S
C1939 C1931 1.433 . S
C1939 N1941 1.384 . S
N1940 C1936 1.427 . S
N1940 C1937 1.384 . S
N1941 C1933 1.427 . S
N1941 C1939 1.384 . S
H1942 C1948 0.930 . S
H1943 C1952 0.930 . S
H1944 C1957 0.929 . S
H1945 C1955 0.929 . S
H1946 C1950 0.929 . S
H1947 C1956 0.929 . S
C1948 H1942 0.930 . S
C1948 C1949 1.367 . S
C1948 C1956 1.378 . S
C1949 C1948 1.367 . S
C1949 C1957 1.433 . S
C1950 H1946 0.929 . S
C1950 C1952 1.378 . S
C1950 C1954 1.350 . S
C1951 C1954 1.463 . S
C1951 C1956 1.350 . S
C1951 N1959 1.427 . S
C1952 H1943 0.930 . S
C1952 C1950 1.378 . S
C1952 C1953 1.367 . S
C1953 C1952 1.367 . S
C1953 C1955 1.433 . S
C1954 C1950 1.350 . S
C1954 C1951 1.463 . S
C1954 N1958 1.427 . S
C1955 H1945 0.929 . S
C1955 C1953 1.433 . S
C1955 N1958 1.384 . S
C1956 H1947 0.929 . S
C1956 C1948 1.378 . S
C1956 C1951 1.350 . S
C1957 H1944 0.929 . S
C1957 C1949 1.433 . S
C1957 N1959 1.384 . S
N1958 C1954 1.427 . S
N1958 C1955 1.384 . S
N1959 C1951 1.427 . S
N1959 C1957 1.384 . S
H1960 C1966 0.930 . S
H1961 C1970 0.930 . S
H1962 C1975 0.929 . S
H1963 C1973 0.929 . S
H1964 C1968 0.929 . S
H1965 C1974 0.929 . S
C1966 H1960 0.930 . S
C1966 C1967 1.367 . S
C1966 C1974 1.378 . S
C1967 C1966 1.367 . S
C1967 C1975 1.433 . S
C1968 H1964 0.929 . S
C1968 C1970 1.378 . S
C1968 C1972 1.350 . S
C1969 C1972 1.463 . S
C1969 C1974 1.350 . S
C1969 N1977 1.427 . S
C1970 H1961 0.930 . S
C1970 C1968 1.378 . S
C1970 C1971 1.367 . S
C1971 C1970 1.367 . S
C1971 C1973 1.433 . S
C1972 C1968 1.350 . S
C1972 C1969 1.463 . S
C1972 N1976 1.427 . S
C1973 H1963 0.929 . S
C1973 C1971 1.433 . S
C1973 N1976 1.384 . S
C1974 H1965 0.929 . S
C1974 C1966 1.378 . S
C1974 C1969 1.350 . S
C1975 H1962 0.929 . S
C1975 C1967 1.433 . S
C1975 N1977 1.384 . S
N1976 C1972 1.427 . S
N1976 C1973 1.384 . S
N1977 C1969 1.427 . S
N1977 C1975 1.384 . S
H1978 C1984 0.930 . S
H1979 C1988 0.930 . S
H1980 C1993 0.929 . S
H1981 C1991 0.929 . S
H1982 C1986 0.929 . S
H1983 C1992 0.929 . S
C1984 H1978 0.930 . S
C1984 C1985 1.367 . S
C1984 C1992 1.378 . S
C1985 C1984 1.367 . S
C1985 C1993 1.433 . S
C1986 H1982 0.929 . S
C1986 C1988 1.378 . S
C1986 C1990 1.350 . S
C1987 C1990 1.463 . S
C1987 C1992 1.350 . S
C1987 N1995 1.427 . S
C1988 H1979 0.930 . S
C1988 C1986 1.378 . S
C1988 C1989 1.367 . S
C1989 C1988 1.367 . S
C1989 C1991 1.433 . S
C1990 C1986 1.350 . S
C1990 C1987 1.463 . S
C1990 N1994 1.427 . S
C1991 H1981 0.929 . S
C1991 C1989 1.433 . S
C1991 N1994 1.384 . S
C1992 H1983 0.929 . S
C1992 C1984 1.378 . S
C1992 C1987 1.350 . S
C1993 H1980 0.929 . S
C1993 C1985 1.433 . S
C1993 N1995 1.384 . S
N1994 C1990 1.427 . S
N1994 C1991 1.384 . S
N1995 C1987 1.427 . S
N1995 C1993 1.384 . S
H1996 C2002 0.930 . S
H1997 C2006 0.930 . S
H1998 C2011 0.929 . S
H1999 C2009 0.929 . S
H2000 C2004 0.929 . S
H2001 C2010 0.929 . S
C2002 H1996 0.930 . S
C2002 C2003 1.367 . S
C2002 C2010 1.378 . S
C2003 C2002 1.367 . S
C2003 C2011 1.433 . S
C2004 H2000 0.929 . S
C2004 C2006 1.378 . S
C2004 C2008 1.350 . S
C2005 C2008 1.463 . S
C2005 C2010 1.350 . S
C2005 N2013 1.427 . S
C2006 H1997 0.930 . S
C2006 C2004 1.378 . S
C2006 C2007 1.367 . S
C2007 C2006 1.367 . S
C2007 C2009 1.433 . S
C2008 C2004 1.350 . S
C2008 C2005 1.463 . S
C2008 N2012 1.427 . S
C2009 H1999 0.929 . S
C2009 C2007 1.433 . S
C2009 N2012 1.384 . S
C2010 H2001 0.929 . S
C2010 C2002 1.378 . S
C2010 C2005 1.350 . S
C2011 H1998 0.929 . S
C2011 C2003 1.433 . S
C2011 N2013 1.384 . S
N2012 C2008 1.427 . S
N2012 C2009 1.384 . S
N2013 C2005 1.427 . S
N2013 C2011 1.384 . S
H2014 C2020 0.930 . S
H2015 C2024 0.930 . S
H2016 C2029 0.929 . S
H2017 C2027 0.929 . S
H2018 C2022 0.929 . S
H2019 C2028 0.929 . S
C2020 H2014 0.930 . S
C2020 C2021 1.367 . S
C2020 C2028 1.378 . S
C2021 C2020 1.367 . S
C2021 C2029 1.433 . S
C2022 H2018 0.929 . S
C2022 C2024 1.378 . S
C2022 C2026 1.350 . S
C2023 C2026 1.463 . S
C2023 C2028 1.350 . S
C2023 N2031 1.427 . S
C2024 H2015 0.930 . S
C2024 C2022 1.378 . S
C2024 C2025 1.367 . S
C2025 C2024 1.367 . S
C2025 C2027 1.433 . S
C2026 C2022 1.350 . S
C2026 C2023 1.463 . S
C2026 N2030 1.427 . S
C2027 H2017 0.929 . S
C2027 C2025 1.433 . S
C2027 N2030 1.384 . S
C2028 H2019 0.929 . S
C2028 C2020 1.378 . S
C2028 C2023 1.350 . S
C2029 H2016 0.929 . S
C2029 C2021 1.433 . S
C2029 N2031 1.384 . S
N2030 C2026 1.427 . S
N2030 C2027 1.384 . S
N2031 C2023 1.427 . S
N2031 C2029 1.384 . S
H2032 C2038 0.930 . S
H2033 C2042 0.930 . S
H2034 C2047 0.929 . S
H2035 C2045 0.929 . S
H2036 C2040 0.929 . S
H2037 C2046 0.929 . S
C2038 H2032 0.930 . S
C2038 C2039 1.367 . S
C2038 C2046 1.378 . S
C2039 C2038 1.367 . S
C2039 C2047 1.433 . S
C2040 H2036 0.929 . S
C2040 C2042 1.378 . S
C2040 C2044 1.350 . S
C2041 C2044 1.463 . S
C2041 C2046 1.350 . S
C2041 N2049 1.427 . S
C2042 H2033 0.930 . S
C2042 C2040 1.378 . S
C2042 C2043 1.367 . S
C2043 C2042 1.367 . S
C2043 C2045 1.433 . S
C2044 C2040 1.350 . S
C2044 C2041 1.463 . S
C2044 N2048 1.427 . S
C2045 H2035 0.929 . S
C2045 C2043 1.433 . S
C2045 N2048 1.384 . S
C2046 H2037 0.929 . S
C2046 C2038 1.378 . S
C2046 C2041 1.350 . S
C2047 H2034 0.929 . S
C2047 C2039 1.433 . S
C2047 N2049 1.384 . S
N2048 C2044 1.427 . S
N2048 C2045 1.384 . S
N2049 C2041 1.427 . S
N2049 C2047 1.384 . S
H2050 C2056 0.930 . S
H2051 C2060 0.930 . S
H2052 C2065 0.929 . S
H2053 C2063 0.929 . S
H2054 C2058 0.929 . S
H2055 C2064 0.929 . S
C2056 H2050 0.930 . S
C2056 C2057 1.367 . S
C2056 C2064 1.378 . S
C2057 C2056 1.367 . S
C2057 C2065 1.433 . S
C2058 H2054 0.929 . S
C2058 C2060 1.378 . S
C2058 C2062 1.350 . S
C2059 C2062 1.463 . S
C2059 C2064 1.350 . S
C2059 N2067 1.427 . S
C2060 H2051 0.930 . S
C2060 C2058 1.378 . S
C2060 C2061 1.367 . S
C2061 C2060 1.367 . S
C2061 C2063 1.433 . S
C2062 C2058 1.350 . S
C2062 C2059 1.463 . S
C2062 N2066 1.427 . S
C2063 H2053 0.929 . S
C2063 C2061 1.433 . S
C2063 N2066 1.384 . S
C2064 H2055 0.929 . S
C2064 C2056 1.378 . S
C2064 C2059 1.350 . S
C2065 H2052 0.929 . S
C2065 C2057 1.433 . S
C2065 N2067 1.384 . S
N2066 C2062 1.427 . S
N2066 C2063 1.384 . S
N2067 C2059 1.427 . S
N2067 C2065 1.384 . S
H2068 C2074 0.930 . S
H2069 C2078 0.930 . S
H2070 C2083 0.929 . S
H2071 C2081 0.929 . S
H2072 C2076 0.929 . S
H2073 C2082 0.929 . S
C2074 H2068 0.930 . S
C2074 C2075 1.367 . S
C2074 C2082 1.378 . S
C2075 C2074 1.367 . S
C2075 C2083 1.433 . S
C2076 H2072 0.929 . S
C2076 C2078 1.378 . S
C2076 C2080 1.350 . S
C2077 C2080 1.463 . S
C2077 C2082 1.350 . S
C2077 N2085 1.427 . S
C2078 H2069 0.930 . S
C2078 C2076 1.378 . S
C2078 C2079 1.367 . S
C2079 C2078 1.367 . S
C2079 C2081 1.433 . S
C2080 C2076 1.350 . S
C2080 C2077 1.463 . S
C2080 N2084 1.427 . S
C2081 H2071 0.929 . S
C2081 C2079 1.433 . S
C2081 N2084 1.384 . S
C2082 H2073 0.929 . S
C2082 C2074 1.378 . S
C2082 C2077 1.350 . S
C2083 H2070 0.929 . S
C2083 C2075 1.433 . S
C2083 N2085 1.384 . S
N2084 C2080 1.427 . S
N2084 C2081 1.384 . S
N2085 C2077 1.427 . S
N2085 C2083 1.384 . S
H2086 C2092 0.930 . S
H2087 C2096 0.930 . S
H2088 C2101 0.929 . S
H2089 C2099 0.929 . S
H2090 C2094 0.929 . S
H2091 C2100 0.929 . S
C2092 H2086 0.930 . S
C2092 C2093 1.367 . S
C2092 C2100 1.378 . S
C2093 C2092 1.367 . S
C2093 C2101 1.433 . S
C2094 H2090 0.929 . S
C2094 C2096 1.378 . S
C2094 C2098 1.350 . S
C2095 C2098 1.463 . S
C2095 C2100 1.350 . S
C2095 N2103 1.427 . S
C2096 H2087 0.930 . S
C2096 C2094 1.378 . S
C2096 C2097 1.367 . S
C2097 C2096 1.367 . S
C2097 C2099 1.433 . S
C2098 C2094 1.350 . S
C2098 C2095 1.463 . S
C2098 N2102 1.427 . S
C2099 H2089 0.929 . S
C2099 C2097 1.433 . S
C2099 N2102 1.384 . S
C2100 H2091 0.929 . S
C2100 C2092 1.378 . S
C2100 C2095 1.350 . S
C2101 H2088 0.929 . S
C2101 C2093 1.433 . S
C2101 N2103 1.384 . S
N2102 C2098 1.427 . S
N2102 C2099 1.384 . S
N2103 C2095 1.427 . S
N2103 C2101 1.384 . S
H2104 C2110 0.930 . S
H2105 C2114 0.930 . S
H2106 C2119 0.929 . S
H2107 C2117 0.929 . S
H2108 C2112 0.929 . S
H2109 C2118 0.929 . S
C2110 H2104 0.930 . S
C2110 C2111 1.367 . S
C2110 C2118 1.378 . S
C2111 C2110 1.367 . S
C2111 C2119 1.433 . S
C2112 H2108 0.929 . S
C2112 C2114 1.378 . S
C2112 C2116 1.350 . S
C2113 C2116 1.463 . S
C2113 C2118 1.350 . S
C2113 N2121 1.427 . S
C2114 H2105 0.930 . S
C2114 C2112 1.378 . S
C2114 C2115 1.367 . S
C2115 C2114 1.367 . S
C2115 C2117 1.433 . S
C2116 C2112 1.350 . S
C2116 C2113 1.463 . S
C2116 N2120 1.427 . S
C2117 H2107 0.929 . S
C2117 C2115 1.433 . S
C2117 N2120 1.384 . S
C2118 H2109 0.929 . S
C2118 C2110 1.378 . S
C2118 C2113 1.350 . S
C2119 H2106 0.929 . S
C2119 C2111 1.433 . S
C2119 N2121 1.384 . S
N2120 C2116 1.427 . S
N2120 C2117 1.384 . S
N2121 C2113 1.427 . S
N2121 C2119 1.384 . S
H2122 C2128 0.930 . S
H2123 C2132 0.930 . S
H2124 C2137 0.929 . S
H2125 C2135 0.929 . S
H2126 C2130 0.929 . S
H2127 C2136 0.929 . S
C2128 H2122 0.930 . S
C2128 C2129 1.367 . S
C2128 C2136 1.378 . S
C2129 C2128 1.367 . S
C2129 C2137 1.433 . S
C2130 H2126 0.929 . S
C2130 C2132 1.378 . S
C2130 C2134 1.350 . S
C2131 C2134 1.463 . S
C2131 C2136 1.350 . S
C2131 N2139 1.427 . S
C2132 H2123 0.930 . S
C2132 C2130 1.378 . S
C2132 C2133 1.367 . S
C2133 C2132 1.367 . S
C2133 C2135 1.433 . S
C2134 C2130 1.350 . S
C2134 C2131 1.463 . S
C2134 N2138 1.427 . S
C2135 H2125 0.929 . S
C2135 C2133 1.433 . S
C2135 N2138 1.384 . S
C2136 H2127 0.929 . S
C2136 C2128 1.378 . S
C2136 C2131 1.350 . S
C2137 H2124 0.929 . S
C2137 C2129 1.433 . S
C2137 N2139 1.384 . S
N2138 C2134 1.427 . S
N2138 C2135 1.384 . S
N2139 C2131 1.427 . S
N2139 C2137 1.384 . S
H2140 C2146 0.930 . S
H2141 C2150 0.930 . S
H2142 C2155 0.929 . S
H2143 C2153 0.929 . S
H2144 C2148 0.929 . S
H2145 C2154 0.929 . S
C2146 H2140 0.930 . S
C2146 C2147 1.367 . S
C2146 C2154 1.378 . S
C2147 C2146 1.367 . S
C2147 C2155 1.433 . S
C2148 H2144 0.929 . S
C2148 C2150 1.378 . S
C2148 C2152 1.350 . S
C2149 C2152 1.463 . S
C2149 C2154 1.350 . S
C2149 N2157 1.427 . S
C2150 H2141 0.930 . S
C2150 C2148 1.378 . S
C2150 C2151 1.367 . S
C2151 C2150 1.367 . S
C2151 C2153 1.433 . S
C2152 C2148 1.350 . S
C2152 C2149 1.463 . S
C2152 N2156 1.427 . S
C2153 H2143 0.929 . S
C2153 C2151 1.433 . S
C2153 N2156 1.384 . S
C2154 H2145 0.929 . S
C2154 C2146 1.378 . S
C2154 C2149 1.350 . S
C2155 H2142 0.929 . S
C2155 C2147 1.433 . S
C2155 N2157 1.384 . S
N2156 C2152 1.427 . S
N2156 C2153 1.384 . S
N2157 C2149 1.427 . S
N2157 C2155 1.384 . S
H2158 C2164 0.930 . S
H2159 C2168 0.930 . S
H2160 C2173 0.929 . S
H2161 C2171 0.929 . S
H2162 C2166 0.929 . S
H2163 C2172 0.929 . S
C2164 H2158 0.930 . S
C2164 C2165 1.367 . S
C2164 C2172 1.378 . S
C2165 C2164 1.367 . S
C2165 C2173 1.433 . S
C2166 H2162 0.929 . S
C2166 C2168 1.378 . S
C2166 C2170 1.350 . S
C2167 C2170 1.463 . S
C2167 C2172 1.350 . S
C2167 N2175 1.427 . S
C2168 H2159 0.930 . S
C2168 C2166 1.378 . S
C2168 C2169 1.367 . S
C2169 C2168 1.367 . S
C2169 C2171 1.433 . S
C2170 C2166 1.350 . S
C2170 C2167 1.463 . S
C2170 N2174 1.427 . S
C2171 H2161 0.929 . S
C2171 C2169 1.433 . S
C2171 N2174 1.384 . S
C2172 H2163 0.929 . S
C2172 C2164 1.378 . S
C2172 C2167 1.350 . S
C2173 H2160 0.929 . S
C2173 C2165 1.433 . S
C2173 N2175 1.384 . S
N2174 C2170 1.427 . S
N2174 C2171 1.384 . S
N2175 C2167 1.427 . S
N2175 C2173 1.384 . S
H2176 C2182 0.930 . S
H2177 C2186 0.930 . S
H2178 C2191 0.929 . S
H2179 C2189 0.929 . S
H2180 C2184 0.929 . S
H2181 C2190 0.929 . S
C2182 H2176 0.930 . S
C2182 C2183 1.367 . S
C2182 C2190 1.378 . S
C2183 C2182 1.367 . S
C2183 C2191 1.433 . S
C2184 H2180 0.929 . S
C2184 C2186 1.378 . S
C2184 C2188 1.350 . S
C2185 C2188 1.463 1_554 S
C2185 C2190 1.350 . S
C2185 N2193 1.427 . S
C2186 H2177 0.930 . S
C2186 C2184 1.378 . S
C2186 C2187 1.367 . S
C2187 C2186 1.367 . S
C2187 C2189 1.433 . S
C2188 C2184 1.350 . S
C2188 C2185 1.463 1_556 S
C2188 N2192 1.427 . S
C2189 H2179 0.929 . S
C2189 C2187 1.433 . S
C2189 N2192 1.384 . S
C2190 H2181 0.929 . S
C2190 C2182 1.378 . S
C2190 C2185 1.350 . S
C2191 H2178 0.929 . S
C2191 C2183 1.433 . S
C2191 N2193 1.384 . S
N2192 C2188 1.427 . S
N2192 C2189 1.384 . S
N2193 C2185 1.427 . S
N2193 C2191 1.384 . S
H2194 C2200 0.930 . S
H2195 C2204 0.930 . S
H2196 C2209 0.929 . S
H2197 C2207 0.929 . S
H2198 C2202 0.929 . S
H2199 C2208 0.929 . S
C2200 H2194 0.930 . S
C2200 C2201 1.367 . S
C2200 C2208 1.378 . S
C2201 C2200 1.367 . S
C2201 C2209 1.433 . S
C2202 H2198 0.929 . S
C2202 C2204 1.378 . S
C2202 C2206 1.350 . S
C2203 C2206 1.463 1_556 S
C2203 C2208 1.350 . S
C2203 N2211 1.427 . S
C2204 H2195 0.930 . S
C2204 C2202 1.378 . S
C2204 C2205 1.367 . S
C2205 C2204 1.367 . S
C2205 C2207 1.433 . S
C2206 C2202 1.350 . S
C2206 C2203 1.463 1_554 S
C2206 N2210 1.427 . S
C2207 H2197 0.929 . S
C2207 C2205 1.433 . S
C2207 N2210 1.384 . S
C2208 H2199 0.929 . S
C2208 C2200 1.378 . S
C2208 C2203 1.350 . S
C2209 H2196 0.929 . S
C2209 C2201 1.433 . S
C2209 N2211 1.384 . S
N2210 C2206 1.427 . S
N2210 C2207 1.384 . S
N2211 C2203 1.427 . S
N2211 C2209 1.384 . S
H2212 C2218 0.930 . S
H2213 C2222 0.930 . S
H2214 C2227 0.929 . S
H2215 C2225 0.929 . S
H2216 C2220 0.929 . S
H2217 C2226 0.929 . S
C2218 H2212 0.930 . S
C2218 C2219 1.367 . S
C2218 C2226 1.378 . S
C2219 C2218 1.367 . S
C2219 C2227 1.433 . S
C2220 H2216 0.929 . S
C2220 C2222 1.378 . S
C2220 C2224 1.350 . S
C2221 C2224 1.463 1_556 S
C2221 C2226 1.350 . S
C2221 N2229 1.427 . S
C2222 H2213 0.930 . S
C2222 C2220 1.378 . S
C2222 C2223 1.367 . S
C2223 C2222 1.367 . S
C2223 C2225 1.433 . S
C2224 C2220 1.350 . S
C2224 C2221 1.463 1_554 S
C2224 N2228 1.427 . S
C2225 H2215 0.929 . S
C2225 C2223 1.433 . S
C2225 N2228 1.384 . S
C2226 H2217 0.929 . S
C2226 C2218 1.378 . S
C2226 C2221 1.350 . S
C2227 H2214 0.929 . S
C2227 C2219 1.433 . S
C2227 N2229 1.384 . S
N2228 C2224 1.427 . S
N2228 C2225 1.384 . S
N2229 C2221 1.427 . S
N2229 C2227 1.384 . S
H2230 C2236 0.930 . S
H2231 C2240 0.930 . S
H2232 C2245 0.929 . S
H2233 C2243 0.929 . S
H2234 C2238 0.929 . S
H2235 C2244 0.929 . S
C2236 H2230 0.930 . S
C2236 C2237 1.367 . S
C2236 C2244 1.378 . S
C2237 C2236 1.367 . S
C2237 C2245 1.433 . S
C2238 H2234 0.929 . S
C2238 C2240 1.378 . S
C2238 C2242 1.350 . S
C2239 C2242 1.463 1_556 S
C2239 C2244 1.350 . S
C2239 N2247 1.427 . S
C2240 H2231 0.930 . S
C2240 C2238 1.378 . S
C2240 C2241 1.367 . S
C2241 C2240 1.367 . S
C2241 C2243 1.433 . S
C2242 C2238 1.350 . S
C2242 C2239 1.463 1_554 S
C2242 N2246 1.427 . S
C2243 H2233 0.929 . S
C2243 C2241 1.433 . S
C2243 N2246 1.384 . S
C2244 H2235 0.929 . S
C2244 C2236 1.378 . S
C2244 C2239 1.350 . S
C2245 H2232 0.929 . S
C2245 C2237 1.433 . S
C2245 N2247 1.384 . S
N2246 C2242 1.427 . S
N2246 C2243 1.384 . S
N2247 C2239 1.427 . S
N2247 C2245 1.384 . S
H2248 C2254 0.930 . S
H2249 C2258 0.930 . S
H2250 C2263 0.929 . S
H2251 C2261 0.929 . S
H2252 C2256 0.929 . S
H2253 C2262 0.929 . S
C2254 H2248 0.930 . S
C2254 C2255 1.367 . S
C2254 C2262 1.378 . S
C2255 C2254 1.367 . S
C2255 C2263 1.433 . S
C2256 H2252 0.929 . S
C2256 C2258 1.378 . S
C2256 C2260 1.350 . S
C2257 C2260 1.463 . S
C2257 C2262 1.350 . S
C2257 N2265 1.427 . S
C2258 H2249 0.930 . S
C2258 C2256 1.378 . S
C2258 C2259 1.367 . S
C2259 C2258 1.367 . S
C2259 C2261 1.433 . S
C2260 C2256 1.350 . S
C2260 C2257 1.463 . S
C2260 N2264 1.427 . S
C2261 H2251 0.929 . S
C2261 C2259 1.433 . S
C2261 N2264 1.384 . S
C2262 H2253 0.929 . S
C2262 C2254 1.378 . S
C2262 C2257 1.350 . S
C2263 H2250 0.929 . S
C2263 C2255 1.433 . S
C2263 N2265 1.384 . S
N2264 C2260 1.427 . S
N2264 C2261 1.384 . S
N2265 C2257 1.427 . S
N2265 C2263 1.384 . S
H2266 C2272 0.930 . S
H2267 C2276 0.930 . S
H2268 C2281 0.929 . S
H2269 C2279 0.929 . S
H2270 C2274 0.929 . S
H2271 C2280 0.929 . S
C2272 H2266 0.930 . S
C2272 C2273 1.367 . S
C2272 C2280 1.378 . S
C2273 C2272 1.367 . S
C2273 C2281 1.433 . S
C2274 H2270 0.929 . S
C2274 C2276 1.378 . S
C2274 C2278 1.350 . S
C2275 C2278 1.463 . S
C2275 C2280 1.350 . S
C2275 N2283 1.427 . S
C2276 H2267 0.930 . S
C2276 C2274 1.378 . S
C2276 C2277 1.367 . S
C2277 C2276 1.367 . S
C2277 C2279 1.433 . S
C2278 C2274 1.350 . S
C2278 C2275 1.463 . S
C2278 N2282 1.427 . S
C2279 H2269 0.929 . S
C2279 C2277 1.433 . S
C2279 N2282 1.384 . S
C2280 H2271 0.929 . S
C2280 C2272 1.378 . S
C2280 C2275 1.350 . S
C2281 H2268 0.929 . S
C2281 C2273 1.433 . S
C2281 N2283 1.384 . S
N2282 C2278 1.427 . S
N2282 C2279 1.384 . S
N2283 C2275 1.427 . S
N2283 C2281 1.384 . S
H2284 C2290 0.930 . S
H2285 C2294 0.930 . S
H2286 C2299 0.929 . S
H2287 C2297 0.929 . S
H2288 C2292 0.929 . S
H2289 C2298 0.929 . S
C2290 H2284 0.930 . S
C2290 C2291 1.367 . S
C2290 C2298 1.378 . S
C2291 C2290 1.367 . S
C2291 C2299 1.433 . S
C2292 H2288 0.929 . S
C2292 C2294 1.378 . S
C2292 C2296 1.350 . S
C2293 C2296 1.463 . S
C2293 C2298 1.350 . S
C2293 N2301 1.427 . S
C2294 H2285 0.930 . S
C2294 C2292 1.378 . S
C2294 C2295 1.367 . S
C2295 C2294 1.367 . S
C2295 C2297 1.433 . S
C2296 C2292 1.350 . S
C2296 C2293 1.463 . S
C2296 N2300 1.427 . S
C2297 H2287 0.929 . S
C2297 C2295 1.433 . S
C2297 N2300 1.384 . S
C2298 H2289 0.929 . S
C2298 C2290 1.378 . S
C2298 C2293 1.350 . S
C2299 H2286 0.929 . S
C2299 C2291 1.433 . S
C2299 N2301 1.384 . S
N2300 C2296 1.427 . S
N2300 C2297 1.384 . S
N2301 C2293 1.427 . S
N2301 C2299 1.384 . S
H2302 C2308 0.930 . S
H2303 C2312 0.930 . S
H2304 C2317 0.929 . S
H2305 C2315 0.929 . S
H2306 C2310 0.929 . S
H2307 C2316 0.929 . S
C2308 H2302 0.930 . S
C2308 C2309 1.367 . S
C2308 C2316 1.378 . S
C2309 C2308 1.367 . S
C2309 C2317 1.433 . S
C2310 H2306 0.929 . S
C2310 C2312 1.378 . S
C2310 C2314 1.350 . S
C2311 C2314 1.463 . S
C2311 C2316 1.350 . S
C2311 N2319 1.427 . S
C2312 H2303 0.930 . S
C2312 C2310 1.378 . S
C2312 C2313 1.367 . S
C2313 C2312 1.367 . S
C2313 C2315 1.433 . S
C2314 C2310 1.350 . S
C2314 C2311 1.463 . S
C2314 N2318 1.427 . S
C2315 H2305 0.929 . S
C2315 C2313 1.433 . S
C2315 N2318 1.384 . S
C2316 H2307 0.929 . S
C2316 C2308 1.378 . S
C2316 C2311 1.350 . S
C2317 H2304 0.929 . S
C2317 C2309 1.433 . S
C2317 N2319 1.384 . S
N2318 C2314 1.427 . S
N2318 C2315 1.384 . S
N2319 C2311 1.427 . S
N2319 C2317 1.384 . S
H2320 C2326 0.930 . S
H2321 C2330 0.930 . S
H2322 C2335 0.929 . S
H2323 C2333 0.929 . S
H2324 C2328 0.929 . S
H2325 C2334 0.929 . S
C2326 H2320 0.930 . S
C2326 C2327 1.367 . S
C2326 C2334 1.378 . S
C2327 C2326 1.367 . S
C2327 C2335 1.433 . S
C2328 H2324 0.929 . S
C2328 C2330 1.378 . S
C2328 C2332 1.350 . S
C2329 C2332 1.463 . S
C2329 C2334 1.350 . S
C2329 N2337 1.427 . S
C2330 H2321 0.930 . S
C2330 C2328 1.378 . S
C2330 C2331 1.367 . S
C2331 C2330 1.367 . S
C2331 C2333 1.433 . S
C2332 C2328 1.350 . S
C2332 C2329 1.463 . S
C2332 N2336 1.427 . S
C2333 H2323 0.929 . S
C2333 C2331 1.433 . S
C2333 N2336 1.384 . S
C2334 H2325 0.929 . S
C2334 C2326 1.378 . S
C2334 C2329 1.350 . S
C2335 H2322 0.929 . S
C2335 C2327 1.433 . S
C2335 N2337 1.384 . S
N2336 C2332 1.427 . S
N2336 C2333 1.384 . S
N2337 C2329 1.427 . S
N2337 C2335 1.384 . S
H2338 C2344 0.930 . S
H2339 C2348 0.930 . S
H2340 C2353 0.929 . S
H2341 C2351 0.929 . S
H2342 C2346 0.929 . S
H2343 C2352 0.929 . S
C2344 H2338 0.930 . S
C2344 C2345 1.367 . S
C2344 C2352 1.378 . S
C2345 C2344 1.367 . S
C2345 C2353 1.433 . S
C2346 H2342 0.929 . S
C2346 C2348 1.378 . S
C2346 C2350 1.350 . S
C2347 C2350 1.463 . S
C2347 C2352 1.350 . S
C2347 N2355 1.427 . S
C2348 H2339 0.930 . S
C2348 C2346 1.378 . S
C2348 C2349 1.367 . S
C2349 C2348 1.367 . S
C2349 C2351 1.433 . S
C2350 C2346 1.350 . S
C2350 C2347 1.463 . S
C2350 N2354 1.427 . S
C2351 H2341 0.929 . S
C2351 C2349 1.433 . S
C2351 N2354 1.384 . S
C2352 H2343 0.929 . S
C2352 C2344 1.378 . S
C2352 C2347 1.350 . S
C2353 H2340 0.929 . S
C2353 C2345 1.433 . S
C2353 N2355 1.384 . S
N2354 C2350 1.427 . S
N2354 C2351 1.384 . S
N2355 C2347 1.427 . S
N2355 C2353 1.384 . S
H2356 C2362 0.930 . S
H2357 C2366 0.930 . S
H2358 C2371 0.929 . S
H2359 C2369 0.929 . S
H2360 C2364 0.929 . S
H2361 C2370 0.929 . S
C2362 H2356 0.930 . S
C2362 C2363 1.367 . S
C2362 C2370 1.378 . S
C2363 C2362 1.367 . S
C2363 C2371 1.433 . S
C2364 H2360 0.929 . S
C2364 C2366 1.378 . S
C2364 C2368 1.350 . S
C2365 C2368 1.463 . S
C2365 C2370 1.350 . S
C2365 N2373 1.427 . S
C2366 H2357 0.930 . S
C2366 C2364 1.378 . S
C2366 C2367 1.367 . S
C2367 C2366 1.367 . S
C2367 C2369 1.433 . S
C2368 C2364 1.350 . S
C2368 C2365 1.463 . S
C2368 N2372 1.427 . S
C2369 H2359 0.929 . S
C2369 C2367 1.433 . S
C2369 N2372 1.384 . S
C2370 H2361 0.929 . S
C2370 C2362 1.378 . S
C2370 C2365 1.350 . S
C2371 H2358 0.929 . S
C2371 C2363 1.433 . S
C2371 N2373 1.384 . S
N2372 C2368 1.427 . S
N2372 C2369 1.384 . S
N2373 C2365 1.427 . S
N2373 C2371 1.384 . S
H2374 C2380 0.930 . S
H2375 C2384 0.930 . S
H2376 C2389 0.929 . S
H2377 C2387 0.929 . S
H2378 C2382 0.929 . S
H2379 C2388 0.929 . S
C2380 H2374 0.930 . S
C2380 C2381 1.367 . S
C2380 C2388 1.378 . S
C2381 C2380 1.367 . S
C2381 C2389 1.433 . S
C2382 H2378 0.929 . S
C2382 C2384 1.378 . S
C2382 C2386 1.350 . S
C2383 C2386 1.463 . S
C2383 C2388 1.350 . S
C2383 N2391 1.427 . S
C2384 H2375 0.930 . S
C2384 C2382 1.378 . S
C2384 C2385 1.367 . S
C2385 C2384 1.367 . S
C2385 C2387 1.433 . S
C2386 C2382 1.350 . S
C2386 C2383 1.463 . S
C2386 N2390 1.427 . S
C2387 H2377 0.929 . S
C2387 C2385 1.433 . S
C2387 N2390 1.384 . S
C2388 H2379 0.929 . S
C2388 C2380 1.378 . S
C2388 C2383 1.350 . S
C2389 H2376 0.929 . S
C2389 C2381 1.433 . S
C2389 N2391 1.384 . S
N2390 C2386 1.427 . S
N2390 C2387 1.384 . S
N2391 C2383 1.427 . S
N2391 C2389 1.384 . S
H2392 C2398 0.930 . S
H2393 C2402 0.930 . S
H2394 C2407 0.929 . S
H2395 C2405 0.929 . S
H2396 C2400 0.929 . S
H2397 C2406 0.929 . S
C2398 H2392 0.930 . S
C2398 C2399 1.367 . S
C2398 C2406 1.378 . S
C2399 C2398 1.367 . S
C2399 C2407 1.433 . S
C2400 H2396 0.929 . S
C2400 C2402 1.378 . S
C2400 C2404 1.350 . S
C2401 C2404 1.463 1_556 S
C2401 C2406 1.350 . S
C2401 N2409 1.427 . S
C2402 H2393 0.930 . S
C2402 C2400 1.378 . S
C2402 C2403 1.367 . S
C2403 C2402 1.367 . S
C2403 C2405 1.433 . S
C2404 C2400 1.350 . S
C2404 C2401 1.463 1_554 S
C2404 N2408 1.427 . S
C2405 H2395 0.929 . S
C2405 C2403 1.433 . S
C2405 N2408 1.384 . S
C2406 H2397 0.929 . S
C2406 C2398 1.378 . S
C2406 C2401 1.350 . S
C2407 H2394 0.929 . S
C2407 C2399 1.433 . S
C2407 N2409 1.384 . S
N2408 C2404 1.427 . S
N2408 C2405 1.384 . S
N2409 C2401 1.427 . S
N2409 C2407 1.384 . S
H2410 C2416 0.930 . S
H2411 C2420 0.930 . S
H2412 C2425 0.929 . S
H2413 C2423 0.929 . S
H2414 C2418 0.929 . S
H2415 C2424 0.929 . S
C2416 H2410 0.930 . S
C2416 C2417 1.367 . S
C2416 C2424 1.378 . S
C2417 C2416 1.367 . S
C2417 C2425 1.433 . S
C2418 H2414 0.929 . S
C2418 C2420 1.378 . S
C2418 C2422 1.350 . S
C2419 C2422 1.463 1_554 S
C2419 C2424 1.350 . S
C2419 N2427 1.427 . S
C2420 H2411 0.930 . S
C2420 C2418 1.378 . S
C2420 C2421 1.367 . S
C2421 C2420 1.367 . S
C2421 C2423 1.433 . S
C2422 C2418 1.350 . S
C2422 C2419 1.463 1_556 S
C2422 N2426 1.427 . S
C2423 H2413 0.929 . S
C2423 C2421 1.433 . S
C2423 N2426 1.384 . S
C2424 H2415 0.929 . S
C2424 C2416 1.378 . S
C2424 C2419 1.350 . S
C2425 H2412 0.929 . S
C2425 C2417 1.433 . S
C2425 N2427 1.384 . S
N2426 C2422 1.427 . S
N2426 C2423 1.384 . S
N2427 C2419 1.427 . S
N2427 C2425 1.384 . S
H2428 C2434 0.930 . S
H2429 C2438 0.930 . S
H2430 C2443 0.929 . S
H2431 C2441 0.929 . S
H2432 C2436 0.929 . S
H2433 C2442 0.929 . S
C2434 H2428 0.930 . S
C2434 C2435 1.367 . S
C2434 C2442 1.378 . S
C2435 C2434 1.367 . S
C2435 C2443 1.433 . S
C2436 H2432 0.929 . S
C2436 C2438 1.378 . S
C2436 C2440 1.350 . S
C2437 C2440 1.463 1_554 S
C2437 C2442 1.350 . S
C2437 N2445 1.427 . S
C2438 H2429 0.930 . S
C2438 C2436 1.378 . S
C2438 C2439 1.367 . S
C2439 C2438 1.367 . S
C2439 C2441 1.433 . S
C2440 C2436 1.350 . S
C2440 C2437 1.463 1_556 S
C2440 N2444 1.427 . S
C2441 H2431 0.929 . S
C2441 C2439 1.433 . S
C2441 N2444 1.384 . S
C2442 H2433 0.929 . S
C2442 C2434 1.378 . S
C2442 C2437 1.350 . S
C2443 H2430 0.929 . S
C2443 C2435 1.433 . S
C2443 N2445 1.384 . S
N2444 C2440 1.427 . S
N2444 C2441 1.384 . S
N2445 C2437 1.427 . S
N2445 C2443 1.384 . S
H2446 C2452 0.930 . S
H2447 C2456 0.930 . S
H2448 C2461 0.929 . S
H2449 C2459 0.929 . S
H2450 C2454 0.929 . S
H2451 C2460 0.929 . S
C2452 H2446 0.930 . S
C2452 C2453 1.367 . S
C2452 C2460 1.378 . S
C2453 C2452 1.367 . S
C2453 C2461 1.433 . S
C2454 H2450 0.929 . S
C2454 C2456 1.378 . S
C2454 C2458 1.350 . S
C2455 C2458 1.463 1_556 S
C2455 C2460 1.350 . S
C2455 N2463 1.427 . S
C2456 H2447 0.930 . S
C2456 C2454 1.378 . S
C2456 C2457 1.367 . S
C2457 C2456 1.367 . S
C2457 C2459 1.433 . S
C2458 C2454 1.350 . S
C2458 C2455 1.463 1_554 S
C2458 N2462 1.427 . S
C2459 H2449 0.929 . S
C2459 C2457 1.433 . S
C2459 N2462 1.384 . S
C2460 H2451 0.929 . S
C2460 C2452 1.378 . S
C2460 C2455 1.350 . S
C2461 H2448 0.929 . S
C2461 C2453 1.433 . S
C2461 N2463 1.384 . S
N2462 C2458 1.427 . S
N2462 C2459 1.384 . S
N2463 C2455 1.427 . S
N2463 C2461 1.384 . S
H2464 C2470 0.930 . S
H2465 C2474 0.930 . S
H2466 C2479 0.929 . S
H2467 C2477 0.929 . S
H2468 C2472 0.929 . S
H2469 C2478 0.929 . S
C2470 H2464 0.930 . S
C2470 C2471 1.367 . S
C2470 C2478 1.378 . S
C2471 C2470 1.367 . S
C2471 C2479 1.433 . S
C2472 H2468 0.929 . S
C2472 C2474 1.378 . S
C2472 C2476 1.350 . S
C2473 C2476 1.463 1_545 S
C2473 C2478 1.350 . S
C2473 N2481 1.427 . S
C2474 H2465 0.930 . S
C2474 C2472 1.378 . S
C2474 C2475 1.367 . S
C2475 C2474 1.367 . S
C2475 C2477 1.433 . S
C2476 C2472 1.350 . S
C2476 C2473 1.463 1_565 S
C2476 N2480 1.427 . S
C2477 H2467 0.929 . S
C2477 C2475 1.433 . S
C2477 N2480 1.384 . S
C2478 H2469 0.929 . S
C2478 C2470 1.378 . S
C2478 C2473 1.350 . S
C2479 H2466 0.929 . S
C2479 C2471 1.433 . S
C2479 N2481 1.384 . S
N2480 C2476 1.427 . S
N2480 C2477 1.384 . S
N2481 C2473 1.427 . S
N2481 C2479 1.384 . S
H2482 C2488 0.930 . S
H2483 C2492 0.930 . S
H2484 C2497 0.929 . S
H2485 C2495 0.929 . S
H2486 C2490 0.929 . S
H2487 C2496 0.929 . S
C2488 H2482 0.930 . S
C2488 C2489 1.367 . S
C2488 C2496 1.378 . S
C2489 C2488 1.367 . S
C2489 C2497 1.433 . S
C2490 H2486 0.929 . S
C2490 C2492 1.378 . S
C2490 C2494 1.350 . S
C2491 C2494 1.463 1_655 S
C2491 C2496 1.350 . S
C2491 N2499 1.427 . S
C2492 H2483 0.930 . S
C2492 C2490 1.378 . S
C2492 C2493 1.367 . S
C2493 C2492 1.367 . S
C2493 C2495 1.433 . S
C2494 C2490 1.350 . S
C2494 C2491 1.463 1_455 S
C2494 N2498 1.427 . S
C2495 H2485 0.929 . S
C2495 C2493 1.433 . S
C2495 N2498 1.384 . S
C2496 H2487 0.929 . S
C2496 C2488 1.378 . S
C2496 C2491 1.350 . S
C2497 H2484 0.929 . S
C2497 C2489 1.433 . S
C2497 N2499 1.384 . S
N2498 C2494 1.427 . S
N2498 C2495 1.384 . S
N2499 C2491 1.427 . S
N2499 C2497 1.384 . S
H2500 C2506 0.930 . S
H2501 C2510 0.930 . S
H2502 C2515 0.929 . S
H2503 C2513 0.929 . S
H2504 C2508 0.929 1_545 S
H2505 C2514 0.929 1_565 S
C2506 H2500 0.930 . S
C2506 C2507 1.367 . S
C2506 C2514 1.378 . S
C2507 C2506 1.367 . S
C2507 C2515 1.433 . S
C2508 H2504 0.929 1_565 S
C2508 C2510 1.378 . S
C2508 C2512 1.350 . S
C2509 C2512 1.463 1_545 S
C2509 C2514 1.350 . S
C2509 N2517 1.427 . S
C2510 H2501 0.930 . S
C2510 C2508 1.378 . S
C2510 C2511 1.367 . S
C2511 C2510 1.367 . S
C2511 C2513 1.433 . S
C2512 C2508 1.350 . S
C2512 C2509 1.463 1_565 S
C2512 N2516 1.427 . S
C2513 H2503 0.929 . S
C2513 C2511 1.433 . S
C2513 N2516 1.384 . S
C2514 H2505 0.929 1_545 S
C2514 C2506 1.378 . S
C2514 C2509 1.350 . S
C2515 H2502 0.929 . S
C2515 C2507 1.433 . S
C2515 N2517 1.384 . S
N2516 C2512 1.427 . S
N2516 C2513 1.384 . S
N2517 C2509 1.427 . S
N2517 C2515 1.384 . S
H2518 C2524 0.930 . S
H2519 C2528 0.930 . S
H2520 C2533 0.929 . S
H2521 C2531 0.929 . S
H2522 C2526 0.929 . S
H2523 C2532 0.929 . S
C2524 H2518 0.930 . S
C2524 C2525 1.367 . S
C2524 C2532 1.378 . S
C2525 C2524 1.367 . S
C2525 C2533 1.433 . S
C2526 H2522 0.929 . S
C2526 C2528 1.378 . S
C2526 C2530 1.350 . S
C2527 C2530 1.463 1_455 S
C2527 C2532 1.350 . S
C2527 N2535 1.427 . S
C2528 H2519 0.930 . S
C2528 C2526 1.378 . S
C2528 C2529 1.367 . S
C2529 C2528 1.367 . S
C2529 C2531 1.433 . S
C2530 C2526 1.350 . S
C2530 C2527 1.463 1_655 S
C2530 N2534 1.427 . S
C2531 H2521 0.929 . S
C2531 C2529 1.433 . S
C2531 N2534 1.384 . S
C2532 H2523 0.929 . S
C2532 C2524 1.378 . S
C2532 C2527 1.350 . S
C2533 H2520 0.929 . S
C2533 C2525 1.433 . S
C2533 N2535 1.384 . S
N2534 C2530 1.427 . S
N2534 C2531 1.384 . S
N2535 C2527 1.427 . S
N2535 C2533 1.384 . S
H2536 C2542 0.930 . S
H2537 C2546 0.930 . S
H2538 C2551 0.929 . S
H2539 C2549 0.929 . S
H2540 C2544 0.929 1_565 S
H2541 C2550 0.929 1_545 S
C2542 H2536 0.930 . S
C2542 C2543 1.367 . S
C2542 C2550 1.378 . S
C2543 C2542 1.367 . S
C2543 C2551 1.433 . S
C2544 H2540 0.929 1_545 S
C2544 C2546 1.378 . S
C2544 C2548 1.350 . S
C2545 C2548 1.463 1_565 S
C2545 C2550 1.350 . S
C2545 N2553 1.427 . S
C2546 H2537 0.930 . S
C2546 C2544 1.378 . S
C2546 C2547 1.367 . S
C2547 C2546 1.367 . S
C2547 C2549 1.433 . S
C2548 C2544 1.350 . S
C2548 C2545 1.463 1_545 S
C2548 N2552 1.427 . S
C2549 H2539 0.929 . S
C2549 C2547 1.433 . S
C2549 N2552 1.384 . S
C2550 H2541 0.929 1_565 S
C2550 C2542 1.378 . S
C2550 C2545 1.350 . S
C2551 H2538 0.929 . S
C2551 C2543 1.433 . S
C2551 N2553 1.384 . S
N2552 C2548 1.427 . S
N2552 C2549 1.384 . S
N2553 C2545 1.427 . S
N2553 C2551 1.384 . S
H2554 C2560 0.930 . S
H2555 C2564 0.930 . S
H2556 C2569 0.929 . S
H2557 C2567 0.929 . S
H2558 C2562 0.929 . S
H2559 C2568 0.929 . S
C2560 H2554 0.930 . S
C2560 C2561 1.367 . S
C2560 C2568 1.378 . S
C2561 C2560 1.367 . S
C2561 C2569 1.433 . S
C2562 H2558 0.929 . S
C2562 C2564 1.378 . S
C2562 C2566 1.350 . S
C2563 C2566 1.463 1_655 S
C2563 C2568 1.350 . S
C2563 N2571 1.427 . S
C2564 H2555 0.930 . S
C2564 C2562 1.378 . S
C2564 C2565 1.367 . S
C2565 C2564 1.367 . S
C2565 C2567 1.433 . S
C2566 C2562 1.350 . S
C2566 C2563 1.463 1_455 S
C2566 N2570 1.427 . S
C2567 H2557 0.929 . S
C2567 C2565 1.433 . S
C2567 N2570 1.384 . S
C2568 H2559 0.929 . S
C2568 C2560 1.378 . S
C2568 C2563 1.350 . S
C2569 H2556 0.929 . S
C2569 C2561 1.433 . S
C2569 N2571 1.384 . S
N2570 C2566 1.427 . S
N2570 C2567 1.384 . S
N2571 C2563 1.427 . S
N2571 C2569 1.384 . S
H2572 C2578 0.930 . S
H2573 C2582 0.930 . S
H2574 C2587 0.929 . S
H2575 C2585 0.929 . S
H2576 C2580 0.929 . S
H2577 C2586 0.929 . S
C2578 H2572 0.930 . S
C2578 C2579 1.367 . S
C2578 C2586 1.378 . S
C2579 C2578 1.367 . S
C2579 C2587 1.433 . S
C2580 H2576 0.929 . S
C2580 C2582 1.378 . S
C2580 C2584 1.350 . S
C2581 C2584 1.463 1_565 S
C2581 C2586 1.350 . S
C2581 N2589 1.427 . S
C2582 H2573 0.930 . S
C2582 C2580 1.378 . S
C2582 C2583 1.367 . S
C2583 C2582 1.367 . S
C2583 C2585 1.433 . S
C2584 C2580 1.350 . S
C2584 C2581 1.463 1_545 S
C2584 N2588 1.427 . S
C2585 H2575 0.929 . S
C2585 C2583 1.433 . S
C2585 N2588 1.384 . S
C2586 H2577 0.929 . S
C2586 C2578 1.378 . S
C2586 C2581 1.350 . S
C2587 H2574 0.929 . S
C2587 C2579 1.433 . S
C2587 N2589 1.384 . S
N2588 C2584 1.427 . S
N2588 C2585 1.384 . S
N2589 C2581 1.427 . S
N2589 C2587 1.384 . S
H2590 C2596 0.930 . S
H2591 C2600 0.930 . S
H2592 C2605 0.929 . S
H2593 C2603 0.929 . S
H2594 C2598 0.929 . S
H2595 C2604 0.929 . S
C2596 H2590 0.930 . S
C2596 C2597 1.367 . S
C2596 C2604 1.378 . S
C2597 C2596 1.367 . S
C2597 C2605 1.433 . S
C2598 H2594 0.929 . S
C2598 C2600 1.378 . S
C2598 C2602 1.350 . S
C2599 C2602 1.463 1_655 S
C2599 C2604 1.350 . S
C2599 N2607 1.427 . S
C2600 H2591 0.930 . S
C2600 C2598 1.378 . S
C2600 C2601 1.367 . S
C2601 C2600 1.367 . S
C2601 C2603 1.433 . S
C2602 C2598 1.350 . S
C2602 C2599 1.463 1_455 S
C2602 N2606 1.427 . S
C2603 H2593 0.929 . S
C2603 C2601 1.433 . S
C2603 N2606 1.384 . S
C2604 H2595 0.929 . S
C2604 C2596 1.378 . S
C2604 C2599 1.350 . S
C2605 H2592 0.929 . S
C2605 C2597 1.433 . S
C2605 N2607 1.384 . S
N2606 C2602 1.427 . S
N2606 C2603 1.384 . S
N2607 C2599 1.427 . S
N2607 C2605 1.384 . S
H2608 C2614 0.930 . S
H2609 C2618 0.930 . S
H2610 C2623 0.929 . S
H2611 C2621 0.929 . S
H2612 C2616 0.929 . S
H2613 C2622 0.929 . S
C2614 H2608 0.930 . S
C2614 C2615 1.367 . S
C2614 C2622 1.378 . S
C2615 C2614 1.367 . S
C2615 C2623 1.433 . S
C2616 H2612 0.929 . S
C2616 C2618 1.378 . S
C2616 C2620 1.350 . S
C2617 C2620 1.463 . S
C2617 C2622 1.350 . S
C2617 N2625 1.427 . S
C2618 H2609 0.930 . S
C2618 C2616 1.378 . S
C2618 C2619 1.367 . S
C2619 C2618 1.367 . S
C2619 C2621 1.433 . S
C2620 C2616 1.350 . S
C2620 C2617 1.463 . S
C2620 N2624 1.427 . S
C2621 H2611 0.929 . S
C2621 C2619 1.433 . S
C2621 N2624 1.384 . S
C2622 H2613 0.929 . S
C2622 C2614 1.378 . S
C2622 C2617 1.350 . S
C2623 H2610 0.929 . S
C2623 C2615 1.433 . S
C2623 N2625 1.384 . S
N2624 C2620 1.427 . S
N2624 C2621 1.384 . S
N2625 C2617 1.427 . S
N2625 C2623 1.384 . S
H2626 C2632 0.930 . S
H2627 C2636 0.930 . S
H2628 C2641 0.929 . S
H2629 C2639 0.929 . S
H2630 C2634 0.929 . S
H2631 C2640 0.929 . S
C2632 H2626 0.930 . S
C2632 C2633 1.367 . S
C2632 C2640 1.378 . S
C2633 C2632 1.367 . S
C2633 C2641 1.433 . S
C2634 H2630 0.929 . S
C2634 C2636 1.378 . S
C2634 C2638 1.350 . S
C2635 C2638 1.463 . S
C2635 C2640 1.350 . S
C2635 N2643 1.427 . S
C2636 H2627 0.930 . S
C2636 C2634 1.378 . S
C2636 C2637 1.367 . S
C2637 C2636 1.367 . S
C2637 C2639 1.433 . S
C2638 C2634 1.350 . S
C2638 C2635 1.463 . S
C2638 N2642 1.427 . S
C2639 H2629 0.929 . S
C2639 C2637 1.433 . S
C2639 N2642 1.384 . S
C2640 H2631 0.929 . S
C2640 C2632 1.378 . S
C2640 C2635 1.350 . S
C2641 H2628 0.929 . S
C2641 C2633 1.433 . S
C2641 N2643 1.384 . S
N2642 C2638 1.427 . S
N2642 C2639 1.384 . S
N2643 C2635 1.427 . S
N2643 C2641 1.384 . S
H2644 C2650 0.930 . S
H2645 C2654 0.930 . S
H2646 C2659 0.929 . S
H2647 C2657 0.929 . S
H2648 C2652 0.929 . S
H2649 C2658 0.929 . S
C2650 H2644 0.930 . S
C2650 C2651 1.367 . S
C2650 C2658 1.378 . S
C2651 C2650 1.367 . S
C2651 C2659 1.433 . S
C2652 H2648 0.929 . S
C2652 C2654 1.378 . S
C2652 C2656 1.350 . S
C2653 C2656 1.463 . S
C2653 C2658 1.350 . S
C2653 N2661 1.427 . S
C2654 H2645 0.930 . S
C2654 C2652 1.378 . S
C2654 C2655 1.367 . S
C2655 C2654 1.367 . S
C2655 C2657 1.433 . S
C2656 C2652 1.350 . S
C2656 C2653 1.463 . S
C2656 N2660 1.427 . S
C2657 H2647 0.929 . S
C2657 C2655 1.433 . S
C2657 N2660 1.384 . S
C2658 H2649 0.929 . S
C2658 C2650 1.378 . S
C2658 C2653 1.350 . S
C2659 H2646 0.929 . S
C2659 C2651 1.433 . S
C2659 N2661 1.384 . S
N2660 C2656 1.427 . S
N2660 C2657 1.384 . S
N2661 C2653 1.427 . S
N2661 C2659 1.384 . S
H2662 C2668 0.930 . S
H2663 C2672 0.930 . S
H2664 C2677 0.929 . S
H2665 C2675 0.929 . S
H2666 C2670 0.929 . S
H2667 C2676 0.929 . S
C2668 H2662 0.930 . S
C2668 C2669 1.367 . S
C2668 C2676 1.378 . S
C2669 C2668 1.367 . S
C2669 C2677 1.433 . S
C2670 H2666 0.929 . S
C2670 C2672 1.378 . S
C2670 C2674 1.350 . S
C2671 C2674 1.463 . S
C2671 C2676 1.350 . S
C2671 N2679 1.427 . S
C2672 H2663 0.930 . S
C2672 C2670 1.378 . S
C2672 C2673 1.367 . S
C2673 C2672 1.367 . S
C2673 C2675 1.433 . S
C2674 C2670 1.350 . S
C2674 C2671 1.463 . S
C2674 N2678 1.427 . S
C2675 H2665 0.929 . S
C2675 C2673 1.433 . S
C2675 N2678 1.384 . S
C2676 H2667 0.929 . S
C2676 C2668 1.378 . S
C2676 C2671 1.350 . S
C2677 H2664 0.929 . S
C2677 C2669 1.433 . S
C2677 N2679 1.384 . S
N2678 C2674 1.427 . S
N2678 C2675 1.384 . S
N2679 C2671 1.427 . S
N2679 C2677 1.384 . S
H2680 C2686 0.930 . S
H2681 C2690 0.930 . S
H2682 C2695 0.929 . S
H2683 C2693 0.929 . S
H2684 C2688 0.929 . S
H2685 C2694 0.929 . S
C2686 H2680 0.930 . S
C2686 C2687 1.367 . S
C2686 C2694 1.378 . S
C2687 C2686 1.367 . S
C2687 C2695 1.433 . S
C2688 H2684 0.929 . S
C2688 C2690 1.378 . S
C2688 C2692 1.350 . S
C2689 C2692 1.463 . S
C2689 C2694 1.350 . S
C2689 N2697 1.427 . S
C2690 H2681 0.930 . S
C2690 C2688 1.378 . S
C2690 C2691 1.367 . S
C2691 C2690 1.367 . S
C2691 C2693 1.433 . S
C2692 C2688 1.350 . S
C2692 C2689 1.463 . S
C2692 N2696 1.427 . S
C2693 H2683 0.929 . S
C2693 C2691 1.433 . S
C2693 N2696 1.384 . S
C2694 H2685 0.929 . S
C2694 C2686 1.378 . S
C2694 C2689 1.350 . S
C2695 H2682 0.929 . S
C2695 C2687 1.433 . S
C2695 N2697 1.384 . S
N2696 C2692 1.427 . S
N2696 C2693 1.384 . S
N2697 C2689 1.427 . S
N2697 C2695 1.384 . S
H2698 C2704 0.930 . S
H2699 C2708 0.930 . S
H2700 C2713 0.929 . S
H2701 C2711 0.929 . S
H2702 C2706 0.929 . S
H2703 C2712 0.929 . S
C2704 H2698 0.930 . S
C2704 C2705 1.367 . S
C2704 C2712 1.378 . S
C2705 C2704 1.367 . S
C2705 C2713 1.433 . S
C2706 H2702 0.929 . S
C2706 C2708 1.378 . S
C2706 C2710 1.350 . S
C2707 C2710 1.463 . S
C2707 C2712 1.350 . S
C2707 N2715 1.427 . S
C2708 H2699 0.930 . S
C2708 C2706 1.378 . S
C2708 C2709 1.367 . S
C2709 C2708 1.367 . S
C2709 C2711 1.433 . S
C2710 C2706 1.350 . S
C2710 C2707 1.463 . S
C2710 N2714 1.427 . S
C2711 H2701 0.929 . S
C2711 C2709 1.433 . S
C2711 N2714 1.384 . S
C2712 H2703 0.929 . S
C2712 C2704 1.378 . S
C2712 C2707 1.350 . S
C2713 H2700 0.929 . S
C2713 C2705 1.433 . S
C2713 N2715 1.384 . S
N2714 C2710 1.427 . S
N2714 C2711 1.384 . S
N2715 C2707 1.427 . S
N2715 C2713 1.384 . S
H2716 C2722 0.930 . S
H2717 C2726 0.930 . S
H2718 C2731 0.929 . S
H2719 C2729 0.929 . S
H2720 C2724 0.929 . S
H2721 C2730 0.929 . S
C2722 H2716 0.930 . S
C2722 C2723 1.367 . S
C2722 C2730 1.378 . S
C2723 C2722 1.367 . S
C2723 C2731 1.433 . S
C2724 H2720 0.929 . S
C2724 C2726 1.378 . S
C2724 C2728 1.350 . S
C2725 C2728 1.463 . S
C2725 C2730 1.350 . S
C2725 N2733 1.427 . S
C2726 H2717 0.930 . S
C2726 C2724 1.378 . S
C2726 C2727 1.367 . S
C2727 C2726 1.367 . S
C2727 C2729 1.433 . S
C2728 C2724 1.350 . S
C2728 C2725 1.463 . S
C2728 N2732 1.427 . S
C2729 H2719 0.929 . S
C2729 C2727 1.433 . S
C2729 N2732 1.384 . S
C2730 H2721 0.929 . S
C2730 C2722 1.378 . S
C2730 C2725 1.350 . S
C2731 H2718 0.929 . S
C2731 C2723 1.433 . S
C2731 N2733 1.384 . S
N2732 C2728 1.427 . S
N2732 C2729 1.384 . S
N2733 C2725 1.427 . S
N2733 C2731 1.384 . S
H2734 C2740 0.930 . S
H2735 C2744 0.930 . S
H2736 C2749 0.929 . S
H2737 C2747 0.929 . S
H2738 C2742 0.929 . S
H2739 C2748 0.929 . S
C2740 H2734 0.930 . S
C2740 C2741 1.367 . S
C2740 C2748 1.378 . S
C2741 C2740 1.367 . S
C2741 C2749 1.433 . S
C2742 H2738 0.929 . S
C2742 C2744 1.378 . S
C2742 C2746 1.350 . S
C2743 C2746 1.463 . S
C2743 C2748 1.350 . S
C2743 N2751 1.427 . S
C2744 H2735 0.930 . S
C2744 C2742 1.378 . S
C2744 C2745 1.367 . S
C2745 C2744 1.367 . S
C2745 C2747 1.433 . S
C2746 C2742 1.350 . S
C2746 C2743 1.463 . S
C2746 N2750 1.427 . S
C2747 H2737 0.929 . S
C2747 C2745 1.433 . S
C2747 N2750 1.384 . S
C2748 H2739 0.929 . S
C2748 C2740 1.378 . S
C2748 C2743 1.350 . S
C2749 H2736 0.929 . S
C2749 C2741 1.433 . S
C2749 N2751 1.384 . S
N2750 C2746 1.427 . S
N2750 C2747 1.384 . S
N2751 C2743 1.427 . S
N2751 C2749 1.384 . S
H2752 C2758 0.930 . S
H2753 C2762 0.930 . S
H2754 C2767 0.929 . S
H2755 C2765 0.929 . S
H2756 C2760 0.929 . S
H2757 C2766 0.929 . S
C2758 H2752 0.930 . S
C2758 C2759 1.367 . S
C2758 C2766 1.378 . S
C2759 C2758 1.367 . S
C2759 C2767 1.433 . S
C2760 H2756 0.929 . S
C2760 C2762 1.378 . S
C2760 C2764 1.350 . S
C2761 C2764 1.463 . S
C2761 C2766 1.350 . S
C2761 N2769 1.427 . S
C2762 H2753 0.930 . S
C2762 C2760 1.378 . S
C2762 C2763 1.367 . S
C2763 C2762 1.367 . S
C2763 C2765 1.433 . S
C2764 C2760 1.350 . S
C2764 C2761 1.463 . S
C2764 N2768 1.427 . S
C2765 H2755 0.929 . S
C2765 C2763 1.433 . S
C2765 N2768 1.384 . S
C2766 H2757 0.929 . S
C2766 C2758 1.378 . S
C2766 C2761 1.350 . S
C2767 H2754 0.929 . S
C2767 C2759 1.433 . S
C2767 N2769 1.384 . S
N2768 C2764 1.427 . S
N2768 C2765 1.384 . S
N2769 C2761 1.427 . S
N2769 C2767 1.384 . S
H2770 C2776 0.930 . S
H2771 C2780 0.930 . S
H2772 C2785 0.929 . S
H2773 C2783 0.929 . S
H2774 C2778 0.929 . S
H2775 C2784 0.929 . S
C2776 H2770 0.930 . S
C2776 C2777 1.367 . S
C2776 C2784 1.378 . S
C2777 C2776 1.367 . S
C2777 C2785 1.433 . S
C2778 H2774 0.929 . S
C2778 C2780 1.378 . S
C2778 C2782 1.350 . S
C2779 C2782 1.463 . S
C2779 C2784 1.350 . S
C2779 N2787 1.427 . S
C2780 H2771 0.930 . S
C2780 C2778 1.378 . S
C2780 C2781 1.367 . S
C2781 C2780 1.367 . S
C2781 C2783 1.433 . S
C2782 C2778 1.350 . S
C2782 C2779 1.463 . S
C2782 N2786 1.427 . S
C2783 H2773 0.929 . S
C2783 C2781 1.433 . S
C2783 N2786 1.384 . S
C2784 H2775 0.929 . S
C2784 C2776 1.378 . S
C2784 C2779 1.350 . S
C2785 H2772 0.929 . S
C2785 C2777 1.433 . S
C2785 N2787 1.384 . S
N2786 C2782 1.427 . S
N2786 C2783 1.384 . S
N2787 C2779 1.427 . S
N2787 C2785 1.384 . S
H2788 C2794 0.930 . S
H2789 C2798 0.930 . S
H2790 C2803 0.929 . S
H2791 C2801 0.929 . S
H2792 C2796 0.929 . S
H2793 C2802 0.929 . S
C2794 H2788 0.930 . S
C2794 C2795 1.367 . S
C2794 C2802 1.378 . S
C2795 C2794 1.367 . S
C2795 C2803 1.433 . S
C2796 H2792 0.929 . S
C2796 C2798 1.378 . S
C2796 C2800 1.350 . S
C2797 C2800 1.463 . S
C2797 C2802 1.350 . S
C2797 N2805 1.427 . S
C2798 H2789 0.930 . S
C2798 C2796 1.378 . S
C2798 C2799 1.367 . S
C2799 C2798 1.367 . S
C2799 C2801 1.433 . S
C2800 C2796 1.350 . S
C2800 C2797 1.463 . S
C2800 N2804 1.427 . S
C2801 H2791 0.929 . S
C2801 C2799 1.433 . S
C2801 N2804 1.384 . S
C2802 H2793 0.929 . S
C2802 C2794 1.378 . S
C2802 C2797 1.350 . S
C2803 H2790 0.929 . S
C2803 C2795 1.433 . S
C2803 N2805 1.384 . S
N2804 C2800 1.427 . S
N2804 C2801 1.384 . S
N2805 C2797 1.427 . S
N2805 C2803 1.384 . S
H2806 C2812 0.930 . S
H2807 C2816 0.930 . S
H2808 C2821 0.929 . S
H2809 C2819 0.929 . S
H2810 C2814 0.929 . S
H2811 C2820 0.929 . S
C2812 H2806 0.930 . S
C2812 C2813 1.367 . S
C2812 C2820 1.378 . S
C2813 C2812 1.367 . S
C2813 C2821 1.433 . S
C2814 H2810 0.929 . S
C2814 C2816 1.378 . S
C2814 C2818 1.350 . S
C2815 C2818 1.463 . S
C2815 C2820 1.350 . S
C2815 N2823 1.427 . S
C2816 H2807 0.930 . S
C2816 C2814 1.378 . S
C2816 C2817 1.367 . S
C2817 C2816 1.367 . S
C2817 C2819 1.433 . S
C2818 C2814 1.350 . S
C2818 C2815 1.463 . S
C2818 N2822 1.427 . S
C2819 H2809 0.929 . S
C2819 C2817 1.433 . S
C2819 N2822 1.384 . S
C2820 H2811 0.929 . S
C2820 C2812 1.378 . S
C2820 C2815 1.350 . S
C2821 H2808 0.929 . S
C2821 C2813 1.433 . S
C2821 N2823 1.384 . S
N2822 C2818 1.427 . S
N2822 C2819 1.384 . S
N2823 C2815 1.427 . S
N2823 C2821 1.384 . S
H2824 C2830 0.930 . S
H2825 C2834 0.930 . S
H2826 C2839 0.929 . S
H2827 C2837 0.929 . S
H2828 C2832 0.929 . S
H2829 C2838 0.929 . S
C2830 H2824 0.930 . S
C2830 C2831 1.367 . S
C2830 C2838 1.378 . S
C2831 C2830 1.367 . S
C2831 C2839 1.433 . S
C2832 H2828 0.929 . S
C2832 C2834 1.378 . S
C2832 C2836 1.350 . S
C2833 C2836 1.463 . S
C2833 C2838 1.350 . S
C2833 N2841 1.427 . S
C2834 H2825 0.930 . S
C2834 C2832 1.378 . S
C2834 C2835 1.367 . S
C2835 C2834 1.367 . S
C2835 C2837 1.433 . S
C2836 C2832 1.350 . S
C2836 C2833 1.463 . S
C2836 N2840 1.427 . S
C2837 H2827 0.929 . S
C2837 C2835 1.433 . S
C2837 N2840 1.384 . S
C2838 H2829 0.929 . S
C2838 C2830 1.378 . S
C2838 C2833 1.350 . S
C2839 H2826 0.929 . S
C2839 C2831 1.433 . S
C2839 N2841 1.384 . S
N2840 C2836 1.427 . S
N2840 C2837 1.384 . S
N2841 C2833 1.427 . S
N2841 C2839 1.384 . S
H2842 C2848 0.930 . S
H2843 C2852 0.930 . S
H2844 C2857 0.929 . S
H2845 C2855 0.929 . S
H2846 C2850 0.929 . S
H2847 C2856 0.929 . S
C2848 H2842 0.930 . S
C2848 C2849 1.367 . S
C2848 C2856 1.378 . S
C2849 C2848 1.367 . S
C2849 C2857 1.433 . S
C2850 H2846 0.929 . S
C2850 C2852 1.378 . S
C2850 C2854 1.350 . S
C2851 C2854 1.463 . S
C2851 C2856 1.350 . S
C2851 N2859 1.427 . S
C2852 H2843 0.930 . S
C2852 C2850 1.378 . S
C2852 C2853 1.367 . S
C2853 C2852 1.367 . S
C2853 C2855 1.433 . S
C2854 C2850 1.350 . S
C2854 C2851 1.463 . S
C2854 N2858 1.427 . S
C2855 H2845 0.929 . S
C2855 C2853 1.433 . S
C2855 N2858 1.384 . S
C2856 H2847 0.929 . S
C2856 C2848 1.378 . S
C2856 C2851 1.350 . S
C2857 H2844 0.929 . S
C2857 C2849 1.433 . S
C2857 N2859 1.384 . S
N2858 C2854 1.427 . S
N2858 C2855 1.384 . S
N2859 C2851 1.427 . S
N2859 C2857 1.384 . S
H2860 C2866 0.930 . S
H2861 C2870 0.930 . S
H2862 C2875 0.929 . S
H2863 C2873 0.929 . S
H2864 C2868 0.929 . S
H2865 C2874 0.929 . S
C2866 H2860 0.930 . S
C2866 C2867 1.367 . S
C2866 C2874 1.378 . S
C2867 C2866 1.367 . S
C2867 C2875 1.433 . S
C2868 H2864 0.929 . S
C2868 C2870 1.378 . S
C2868 C2872 1.350 . S
C2869 C2872 1.463 . S
C2869 C2874 1.350 . S
C2869 N2877 1.427 . S
C2870 H2861 0.930 . S
C2870 C2868 1.378 . S
C2870 C2871 1.367 . S
C2871 C2870 1.367 . S
C2871 C2873 1.433 . S
C2872 C2868 1.350 . S
C2872 C2869 1.463 . S
C2872 N2876 1.427 . S
C2873 H2863 0.929 . S
C2873 C2871 1.433 . S
C2873 N2876 1.384 . S
C2874 H2865 0.929 . S
C2874 C2866 1.378 . S
C2874 C2869 1.350 . S
C2875 H2862 0.929 . S
C2875 C2867 1.433 . S
C2875 N2877 1.384 . S
N2876 C2872 1.427 . S
N2876 C2873 1.384 . S
N2877 C2869 1.427 . S
N2877 C2875 1.384 . S
H2878 C2884 0.930 . S
H2879 C2888 0.930 . S
H2880 C2893 0.929 . S
H2881 C2891 0.929 . S
H2882 C2886 0.929 . S
H2883 C2892 0.929 . S
C2884 H2878 0.930 . S
C2884 C2885 1.367 . S
C2884 C2892 1.378 . S
C2885 C2884 1.367 . S
C2885 C2893 1.433 . S
C2886 H2882 0.929 . S
C2886 C2888 1.378 . S
C2886 C2890 1.350 . S
C2887 C2890 1.463 . S
C2887 C2892 1.350 . S
C2887 N2895 1.427 . S
C2888 H2879 0.930 . S
C2888 C2886 1.378 . S
C2888 C2889 1.367 . S
C2889 C2888 1.367 . S
C2889 C2891 1.433 . S
C2890 C2886 1.350 . S
C2890 C2887 1.463 . S
C2890 N2894 1.427 . S
C2891 H2881 0.929 . S
C2891 C2889 1.433 . S
C2891 N2894 1.384 . S
C2892 H2883 0.929 . S
C2892 C2884 1.378 . S
C2892 C2887 1.350 . S
C2893 H2880 0.929 . S
C2893 C2885 1.433 . S
C2893 N2895 1.384 . S
N2894 C2890 1.427 . S
N2894 C2891 1.384 . S
N2895 C2887 1.427 . S
N2895 C2893 1.384 . S
H2896 C2902 0.930 . S
H2897 C2906 0.930 . S
H2898 C2911 0.929 . S
H2899 C2909 0.929 . S
H2900 C2904 0.929 . S
H2901 C2910 0.929 . S
C2902 H2896 0.930 . S
C2902 C2903 1.367 . S
C2902 C2910 1.378 . S
C2903 C2902 1.367 . S
C2903 C2911 1.433 . S
C2904 H2900 0.929 . S
C2904 C2906 1.378 . S
C2904 C2908 1.350 . S
C2905 C2908 1.463 . S
C2905 C2910 1.350 . S
C2905 N2913 1.427 . S
C2906 H2897 0.930 . S
C2906 C2904 1.378 . S
C2906 C2907 1.367 . S
C2907 C2906 1.367 . S
C2907 C2909 1.433 . S
C2908 C2904 1.350 . S
C2908 C2905 1.463 . S
C2908 N2912 1.427 . S
C2909 H2899 0.929 . S
C2909 C2907 1.433 . S
C2909 N2912 1.384 . S
C2910 H2901 0.929 . S
C2910 C2902 1.378 . S
C2910 C2905 1.350 . S
C2911 H2898 0.929 . S
C2911 C2903 1.433 . S
C2911 N2913 1.384 . S
N2912 C2908 1.427 . S
N2912 C2909 1.384 . S
N2913 C2905 1.427 . S
N2913 C2911 1.384 . S
H2914 C2920 0.930 . S
H2915 C2924 0.930 . S
H2916 C2929 0.929 . S
H2917 C2927 0.929 . S
H2918 C2922 0.929 . S
H2919 C2928 0.929 . S
C2920 H2914 0.930 . S
C2920 C2921 1.367 . S
C2920 C2928 1.378 . S
C2921 C2920 1.367 . S
C2921 C2929 1.433 . S
C2922 H2918 0.929 . S
C2922 C2924 1.378 . S
C2922 C2926 1.350 . S
C2923 C2926 1.463 . S
C2923 C2928 1.350 . S
C2923 N2931 1.427 . S
C2924 H2915 0.930 . S
C2924 C2922 1.378 . S
C2924 C2925 1.367 . S
C2925 C2924 1.367 . S
C2925 C2927 1.433 . S
C2926 C2922 1.350 . S
C2926 C2923 1.463 . S
C2926 N2930 1.427 . S
C2927 H2917 0.929 . S
C2927 C2925 1.433 . S
C2927 N2930 1.384 . S
C2928 H2919 0.929 . S
C2928 C2920 1.378 . S
C2928 C2923 1.350 . S
C2929 H2916 0.929 . S
C2929 C2921 1.433 . S
C2929 N2931 1.384 . S
N2930 C2926 1.427 . S
N2930 C2927 1.384 . S
N2931 C2923 1.427 . S
N2931 C2929 1.384 . S
H2932 C2938 0.930 . S
H2933 C2942 0.930 . S
H2934 C2947 0.929 . S
H2935 C2945 0.929 . S
H2936 C2940 0.929 . S
H2937 C2946 0.929 . S
C2938 H2932 0.930 . S
C2938 C2939 1.367 . S
C2938 C2946 1.378 . S
C2939 C2938 1.367 . S
C2939 C2947 1.433 . S
C2940 H2936 0.929 . S
C2940 C2942 1.378 . S
C2940 C2944 1.350 . S
C2941 C2944 1.463 . S
C2941 C2946 1.350 . S
C2941 N2949 1.427 . S
C2942 H2933 0.930 . S
C2942 C2940 1.378 . S
C2942 C2943 1.367 . S
C2943 C2942 1.367 . S
C2943 C2945 1.433 . S
C2944 C2940 1.350 . S
C2944 C2941 1.463 . S
C2944 N2948 1.427 . S
C2945 H2935 0.929 . S
C2945 C2943 1.433 . S
C2945 N2948 1.384 . S
C2946 H2937 0.929 . S
C2946 C2938 1.378 . S
C2946 C2941 1.350 . S
C2947 H2934 0.929 . S
C2947 C2939 1.433 . S
C2947 N2949 1.384 . S
N2948 C2944 1.427 . S
N2948 C2945 1.384 . S
N2949 C2941 1.427 . S
N2949 C2947 1.384 . S
H2950 C2956 0.930 . S
H2951 C2960 0.930 . S
H2952 C2965 0.929 . S
H2953 C2963 0.929 . S
H2954 C2958 0.929 . S
H2955 C2964 0.929 . S
C2956 H2950 0.930 . S
C2956 C2957 1.367 . S
C2956 C2964 1.378 . S
C2957 C2956 1.367 . S
C2957 C2965 1.433 . S
C2958 H2954 0.929 . S
C2958 C2960 1.378 . S
C2958 C2962 1.350 . S
C2959 C2962 1.463 . S
C2959 C2964 1.350 . S
C2959 N2967 1.427 . S
C2960 H2951 0.930 . S
C2960 C2958 1.378 . S
C2960 C2961 1.367 . S
C2961 C2960 1.367 . S
C2961 C2963 1.433 . S
C2962 C2958 1.350 . S
C2962 C2959 1.463 . S
C2962 N2966 1.427 . S
C2963 H2953 0.929 . S
C2963 C2961 1.433 . S
C2963 N2966 1.384 . S
C2964 H2955 0.929 . S
C2964 C2956 1.378 . S
C2964 C2959 1.350 . S
C2965 H2952 0.929 . S
C2965 C2957 1.433 . S
C2965 N2967 1.384 . S
N2966 C2962 1.427 . S
N2966 C2963 1.384 . S
N2967 C2959 1.427 . S
N2967 C2965 1.384 . S
H2968 C2974 0.930 . S
H2969 C2978 0.930 . S
H2970 C2983 0.929 . S
H2971 C2981 0.929 . S
H2972 C2976 0.929 . S
H2973 C2982 0.929 . S
C2974 H2968 0.930 . S
C2974 C2975 1.367 . S
C2974 C2982 1.378 . S
C2975 C2974 1.367 . S
C2975 C2983 1.433 . S
C2976 H2972 0.929 . S
C2976 C2978 1.378 . S
C2976 C2980 1.350 . S
C2977 C2980 1.463 . S
C2977 C2982 1.350 . S
C2977 N2985 1.427 . S
C2978 H2969 0.930 . S
C2978 C2976 1.378 . S
C2978 C2979 1.367 . S
C2979 C2978 1.367 . S
C2979 C2981 1.433 . S
C2980 C2976 1.350 . S
C2980 C2977 1.463 . S
C2980 N2984 1.427 . S
C2981 H2971 0.929 . S
C2981 C2979 1.433 . S
C2981 N2984 1.384 . S
C2982 H2973 0.929 . S
C2982 C2974 1.378 . S
C2982 C2977 1.350 . S
C2983 H2970 0.929 . S
C2983 C2975 1.433 . S
C2983 N2985 1.384 . S
N2984 C2980 1.427 . S
N2984 C2981 1.384 . S
N2985 C2977 1.427 . S
N2985 C2983 1.384 . S
H2986 C2992 0.930 . S
H2987 C2996 0.930 . S
H2988 C3001 0.929 . S
H2989 C2999 0.929 . S
H2990 C2994 0.929 . S
H2991 C3000 0.929 . S
C2992 H2986 0.930 . S
C2992 C2993 1.367 . S
C2992 C3000 1.378 . S
C2993 C2992 1.367 . S
C2993 C3001 1.433 . S
C2994 H2990 0.929 . S
C2994 C2996 1.378 . S
C2994 C2998 1.350 . S
C2995 C2998 1.463 . S
C2995 C3000 1.350 . S
C2995 N3003 1.427 . S
C2996 H2987 0.930 . S
C2996 C2994 1.378 . S
C2996 C2997 1.367 . S
C2997 C2996 1.367 . S
C2997 C2999 1.433 . S
C2998 C2994 1.350 . S
C2998 C2995 1.463 . S
C2998 N3002 1.427 . S
C2999 H2989 0.929 . S
C2999 C2997 1.433 . S
C2999 N3002 1.384 . S
C3000 H2991 0.929 . S
C3000 C2992 1.378 . S
C3000 C2995 1.350 . S
C3001 H2988 0.929 . S
C3001 C2993 1.433 . S
C3001 N3003 1.384 . S
N3002 C2998 1.427 . S
N3002 C2999 1.384 . S
N3003 C2995 1.427 . S
N3003 C3001 1.384 . S
H3004 C3010 0.930 . S
H3005 C3014 0.930 . S
H3006 C3019 0.929 . S
H3007 C3017 0.929 . S
H3008 C3012 0.929 . S
H3009 C3018 0.929 . S
C3010 H3004 0.930 . S
C3010 C3011 1.367 . S
C3010 C3018 1.378 . S
C3011 C3010 1.367 . S
C3011 C3019 1.433 . S
C3012 H3008 0.929 . S
C3012 C3014 1.378 . S
C3012 C3016 1.350 . S
C3013 C3016 1.463 . S
C3013 C3018 1.350 . S
C3013 N3021 1.427 . S
C3014 H3005 0.930 . S
C3014 C3012 1.378 . S
C3014 C3015 1.367 . S
C3015 C3014 1.367 . S
C3015 C3017 1.433 . S
C3016 C3012 1.350 . S
C3016 C3013 1.463 . S
C3016 N3020 1.427 . S
C3017 H3007 0.929 . S
C3017 C3015 1.433 . S
C3017 N3020 1.384 . S
C3018 H3009 0.929 . S
C3018 C3010 1.378 . S
C3018 C3013 1.350 . S
C3019 H3006 0.929 . S
C3019 C3011 1.433 . S
C3019 N3021 1.384 . S
N3020 C3016 1.427 . S
N3020 C3017 1.384 . S
N3021 C3013 1.427 . S
N3021 C3019 1.384 . S
H3022 C3028 0.930 . S
H3023 C3032 0.930 . S
H3024 C3037 0.929 . S
H3025 C3035 0.929 . S
H3026 C3030 0.929 . S
H3027 C3036 0.929 . S
C3028 H3022 0.930 . S
C3028 C3029 1.367 . S
C3028 C3036 1.378 . S
C3029 C3028 1.367 . S
C3029 C3037 1.433 . S
C3030 H3026 0.929 . S
C3030 C3032 1.378 . S
C3030 C3034 1.350 . S
C3031 C3034 1.463 . S
C3031 C3036 1.350 . S
C3031 N3039 1.427 . S
C3032 H3023 0.930 . S
C3032 C3030 1.378 . S
C3032 C3033 1.367 . S
C3033 C3032 1.367 . S
C3033 C3035 1.433 . S
C3034 C3030 1.350 . S
C3034 C3031 1.463 . S
C3034 N3038 1.427 . S
C3035 H3025 0.929 . S
C3035 C3033 1.433 . S
C3035 N3038 1.384 . S
C3036 H3027 0.929 . S
C3036 C3028 1.378 . S
C3036 C3031 1.350 . S
C3037 H3024 0.929 . S
C3037 C3029 1.433 . S
C3037 N3039 1.384 . S
N3038 C3034 1.427 . S
N3038 C3035 1.384 . S
N3039 C3031 1.427 . S
N3039 C3037 1.384 . S
C1895 C1763 1.708 . S
C1899 C52 1.704 . S
C1913 C111 1.701 . S
C1917 C1822 1.706 . S
C1931 C1881 1.707 . S
C1935 C170 1.706 . S
C1949 C1704 1.708 . S
C1953 C229 1.706 . S
C1967 C288 1.705 . S
C1971 C1645 1.706 . S
C1985 C1468 1.708 . S
C1989 C347 1.706 . S
C2003 C406 1.705 . S
C2007 C1527 1.707 . S
C2021 C1586 1.708 . S
C2025 C465 1.705 . S
C2039 C524 1.708 . S
C2043 C1291 1.704 . S
C2057 C583 1.706 . S
C2061 C1350 1.705 . S
C2075 C1409 1.706 . S
C2079 C642 1.708 . S
C2093 C701 1.708 . S
C2097 C1232 1.706 . S
C2111 C1173 1.701 . S
C2115 C760 1.705 . S
C2129 C996 1.705 . S
C2133 C819 1.706 . S
C2147 C878 1.707 . S
C2151 C1055 1.705 . S
C2165 C937 1.708 . S
C2169 C1114 1.706 . S
C2183 C33 1.510 . S
C2187 C593 1.476 . S
C2201 C652 1.486 . S
C2205 C92 1.507 . S
C2219 C475 1.483 . S
C2223 C151 1.509 . S
C2237 C534 1.477 . S
C2241 C210 1.509 . S
C2255 C269 1.505 . S
C2259 C829 1.488 . S
C2273 C888 1.488 . S
C2277 C328 1.506 . S
C2291 C711 1.486 . S
C2295 C387 1.505 . S
C2309 C770 1.478 . S
C2313 C446 1.508 . S
C2327 C977 1.505 . S
C2331 C1537 1.485 . S
C2345 C1596 1.486 . S
C2349 C1036 1.507 . S
C2363 C1419 1.477 . S
C2367 C1095 1.511 . S
C2381 C1154 1.510 . S
C2385 C1478 1.480 . S
C2399 C1213 1.510 . S
C2403 C1773 1.476 . S
C2417 C1832 1.487 . S
C2421 C1272 1.506 . S
C2435 C1655 1.487 . S
C2439 C1331 1.505 . S
C2453 C1390 1.507 . S
C2457 C1714 1.486 . S
C2471 C5 1.603 . S
C2475 C241 1.601 . S
C2489 C64 1.603 . S
C2493 C300 1.601 . S
C2507 C359 1.605 . S
C2511 C123 1.607 . S
C2525 C182 1.600 . S
C2529 C418 1.602 . S
C2543 C477 1.790 . S
C2547 C713 1.791 . S
C2561 C772 1.788 . S
C2565 C536 1.790 . S
C2579 C831 1.785 . S
C2583 C595 1.786 . S
C2597 C654 1.789 . S
C2601 C890 1.788 . S
C2615 C949 1.602 . S
C2619 C1185 1.600 . S
C2633 C1244 1.600 . S
C2637 C1008 1.602 . S
C2651 C1067 1.600 . S
C2655 C1303 1.601 . S
C2669 C1362 1.600 . S
C2673 C1126 1.601 . S
C2687 C1657 1.785 . S
C2691 C1421 1.786 . S
C2705 C1480 1.791 . S
C2709 C1716 1.789 . S
C2723 C1539 1.786 . S
C2727 C1775 1.785 . S
C2741 C1598 1.791 . S
C2745 C1834 1.790 . S
C2759 C3 1.012 . S
C2763 C298 1.024 . S
C2777 C62 1.024 . S
C2781 C357 1.023 . S
C2795 C416 1.010 . S
C2799 C121 1.013 . S
C2813 C239 1.012 . S
C2817 C180 1.011 . S
C2831 C800 1.873 . S
C2835 C505 1.873 . S
C2849 C859 1.877 . S
C2853 C564 1.875 . S
C2867 C918 1.877 . S
C2871 C623 1.877 . S
C2885 C682 1.873 . S
C2889 C741 1.874 . S
C2903 C947 1.009 . S
C2907 C1242 1.015 . S
C2921 C1301 1.019 . S
C2925 C1006 1.009 . S
C2939 C1360 1.026 . S
C2943 C1065 1.015 . S
C2957 C1124 1.017 . S
C2961 C1183 1.026 . S
C2975 C1744 1.875 . S
C2979 C1449 1.874 . S
C2993 C1508 1.878 . S
C2997 C1803 1.877 . S
C3011 C1567 1.877 . S
C3015 C1862 1.878 . S
C3029 C1685 1.873 . S
C3033 C1626 1.874 . S
