# Generated by pormake.
# Topology ukm, (4)-cn, num edge types: 1
# Building blocks:
#     Node 0, Type 0, BuildingBlock: QUQFOY_clean_sbu_3, # of connection points: 4
#     Node 1, Type 0, BuildingBlock: QUQFOY_clean_sbu_3, # of connection points: 4
#     Node 2, Type 0, BuildingBlock: QUQFOY_clean_sbu_3, # of connection points: 4
#     Node 3, Type 0, BuildingBlock: QUQFOY_clean_sbu_3, # of connection points: 4
#     Node 4, Type 0, BuildingBlock: QUQFOY_clean_sbu_3, # of connection points: 4
#     Node 5, Type 0, BuildingBlock: QUQFOY_clean_sbu_3, # of connection points: 4
#     Node 6, Type 0, BuildingBlock: QUQFOY_clean_sbu_3, # of connection points: 4
#     Node 7, Type 0, BuildingBlock: QUQFOY_clean_sbu_3, # of connection points: 4
#     Node 8, Type 0, BuildingBlock: QUQFOY_clean_sbu_3, # of connection points: 4
#     Node 9, Type 0, BuildingBlock: QUQFOY_clean_sbu_3, # of connection points: 4
#     Node 10, Type 0, BuildingBlock: QUQFOY_clean_sbu_3, # of connection points: 4
#     Node 11, Type 0, BuildingBlock: QUQFOY_clean_sbu_3, # of connection points: 4
#     Node 12, Type 0, BuildingBlock: QUQFOY_clean_sbu_3, # of connection points: 4
#     Node 13, Type 0, BuildingBlock: QUQFOY_clean_sbu_3, # of connection points: 4
#     Node 14, Type 0, BuildingBlock: QUQFOY_clean_sbu_3, # of connection points: 4
#     Node 15, Type 0, BuildingBlock: QUQFOY_clean_sbu_3, # of connection points: 4
#     Node 16, Type 0, BuildingBlock: QUQFOY_clean_sbu_3, # of connection points: 4
#     Node 17, Type 0, BuildingBlock: QUQFOY_clean_sbu_3, # of connection points: 4
#     Node 18, Type 0, BuildingBlock: QUQFOY_clean_sbu_3, # of connection points: 4
#     Node 19, Type 0, BuildingBlock: QUQFOY_clean_sbu_3, # of connection points: 4
#     Node 20, Type 0, BuildingBlock: QUQFOY_clean_sbu_3, # of connection points: 4
#     Node 21, Type 0, BuildingBlock: QUQFOY_clean_sbu_3, # of connection points: 4
#     Node 22, Type 0, BuildingBlock: QUQFOY_clean_sbu_3, # of connection points: 4
#     Node 23, Type 0, BuildingBlock: QUQFOY_clean_sbu_3, # of connection points: 4
#     Node 24, Type 0, BuildingBlock: QUQFOY_clean_sbu_3, # of connection points: 4
#     Node 25, Type 0, BuildingBlock: QUQFOY_clean_sbu_3, # of connection points: 4
#     Node 26, Type 0, BuildingBlock: QUQFOY_clean_sbu_3, # of connection points: 4
#     Node 27, Type 0, BuildingBlock: QUQFOY_clean_sbu_3, # of connection points: 4
#     Node 28, Type 0, BuildingBlock: QUQFOY_clean_sbu_3, # of connection points: 4
#     Node 29, Type 0, BuildingBlock: QUQFOY_clean_sbu_3, # of connection points: 4
#     Node 30, Type 0, BuildingBlock: QUQFOY_clean_sbu_3, # of connection points: 4
#     Node 31, Type 0, BuildingBlock: QUQFOY_clean_sbu_3, # of connection points: 4
#     Edge 32, Type (0, 0), BuildingBlock: ZUJKAS_clean_linker_0, # of connection points: 2
#     Edge 33, Type (0, 0), BuildingBlock: ZUJKAS_clean_linker_0, # of connection points: 2
#     Edge 34, Type (0, 0), BuildingBlock: ZUJKAS_clean_linker_0, # of connection points: 2
#     Edge 35, Type (0, 0), BuildingBlock: ZUJKAS_clean_linker_0, # of connection points: 2
#     Edge 36, Type (0, 0), BuildingBlock: ZUJKAS_clean_linker_0, # of connection points: 2
#     Edge 37, Type (0, 0), BuildingBlock: ZUJKAS_clean_linker_0, # of connection points: 2
#     Edge 38, Type (0, 0), BuildingBlock: ZUJKAS_clean_linker_0, # of connection points: 2
#     Edge 39, Type (0, 0), BuildingBlock: ZUJKAS_clean_linker_0, # of connection points: 2
#     Edge 40, Type (0, 0), BuildingBlock: ZUJKAS_clean_linker_0, # of connection points: 2
#     Edge 41, Type (0, 0), BuildingBlock: ZUJKAS_clean_linker_0, # of connection points: 2
#     Edge 42, Type (0, 0), BuildingBlock: ZUJKAS_clean_linker_0, # of connection points: 2
#     Edge 43, Type (0, 0), BuildingBlock: ZUJKAS_clean_linker_0, # of connection points: 2
#     Edge 44, Type (0, 0), BuildingBlock: ZUJKAS_clean_linker_0, # of connection points: 2
#     Edge 45, Type (0, 0), BuildingBlock: ZUJKAS_clean_linker_0, # of connection points: 2
#     Edge 46, Type (0, 0), BuildingBlock: ZUJKAS_clean_linker_0, # of connection points: 2
#     Edge 47, Type (0, 0), BuildingBlock: ZUJKAS_clean_linker_0, # of connection points: 2
#     Edge 48, Type (0, 0), BuildingBlock: ZUJKAS_clean_linker_0, # of connection points: 2
#     Edge 49, Type (0, 0), BuildingBlock: ZUJKAS_clean_linker_0, # of connection points: 2
#     Edge 50, Type (0, 0), BuildingBlock: ZUJKAS_clean_linker_0, # of connection points: 2
#     Edge 51, Type (0, 0), BuildingBlock: ZUJKAS_clean_linker_0, # of connection points: 2
#     Edge 52, Type (0, 0), BuildingBlock: ZUJKAS_clean_linker_0, # of connection points: 2
#     Edge 53, Type (0, 0), BuildingBlock: ZUJKAS_clean_linker_0, # of connection points: 2
#     Edge 54, Type (0, 0), BuildingBlock: ZUJKAS_clean_linker_0, # of connection points: 2
#     Edge 55, Type (0, 0), BuildingBlock: ZUJKAS_clean_linker_0, # of connection points: 2
#     Edge 56, Type (0, 0), BuildingBlock: ZUJKAS_clean_linker_0, # of connection points: 2
#     Edge 57, Type (0, 0), BuildingBlock: ZUJKAS_clean_linker_0, # of connection points: 2
#     Edge 58, Type (0, 0), BuildingBlock: ZUJKAS_clean_linker_0, # of connection points: 2
#     Edge 59, Type (0, 0), BuildingBlock: ZUJKAS_clean_linker_0, # of connection points: 2
#     Edge 60, Type (0, 0), BuildingBlock: ZUJKAS_clean_linker_0, # of connection points: 2
#     Edge 61, Type (0, 0), BuildingBlock: ZUJKAS_clean_linker_0, # of connection points: 2
#     Edge 62, Type (0, 0), BuildingBlock: ZUJKAS_clean_linker_0, # of connection points: 2
#     Edge 63, Type (0, 0), BuildingBlock: ZUJKAS_clean_linker_0, # of connection points: 2
#     Edge 64, Type (0, 0), BuildingBlock: ZUJKAS_clean_linker_0, # of connection points: 2
#     Edge 65, Type (0, 0), BuildingBlock: ZUJKAS_clean_linker_0, # of connection points: 2
#     Edge 66, Type (0, 0), BuildingBlock: ZUJKAS_clean_linker_0, # of connection points: 2
#     Edge 67, Type (0, 0), BuildingBlock: ZUJKAS_clean_linker_0, # of connection points: 2
#     Edge 68, Type (0, 0), BuildingBlock: ZUJKAS_clean_linker_0, # of connection points: 2
#     Edge 69, Type (0, 0), BuildingBlock: ZUJKAS_clean_linker_0, # of connection points: 2
#     Edge 70, Type (0, 0), BuildingBlock: ZUJKAS_clean_linker_0, # of connection points: 2
#     Edge 71, Type (0, 0), BuildingBlock: ZUJKAS_clean_linker_0, # of connection points: 2
#     Edge 72, Type (0, 0), BuildingBlock: ZUJKAS_clean_linker_0, # of connection points: 2
#     Edge 73, Type (0, 0), BuildingBlock: ZUJKAS_clean_linker_0, # of connection points: 2
#     Edge 74, Type (0, 0), BuildingBlock: ZUJKAS_clean_linker_0, # of connection points: 2
#     Edge 75, Type (0, 0), BuildingBlock: ZUJKAS_clean_linker_0, # of connection points: 2
#     Edge 76, Type (0, 0), BuildingBlock: ZUJKAS_clean_linker_0, # of connection points: 2
#     Edge 77, Type (0, 0), BuildingBlock: ZUJKAS_clean_linker_0, # of connection points: 2
#     Edge 78, Type (0, 0), BuildingBlock: ZUJKAS_clean_linker_0, # of connection points: 2
#     Edge 79, Type (0, 0), BuildingBlock: ZUJKAS_clean_linker_0, # of connection points: 2
#     Edge 80, Type (0, 0), BuildingBlock: ZUJKAS_clean_linker_0, # of connection points: 2
#     Edge 81, Type (0, 0), BuildingBlock: ZUJKAS_clean_linker_0, # of connection points: 2
#     Edge 82, Type (0, 0), BuildingBlock: ZUJKAS_clean_linker_0, # of connection points: 2
#     Edge 83, Type (0, 0), BuildingBlock: ZUJKAS_clean_linker_0, # of connection points: 2
#     Edge 84, Type (0, 0), BuildingBlock: ZUJKAS_clean_linker_0, # of connection points: 2
#     Edge 85, Type (0, 0), BuildingBlock: ZUJKAS_clean_linker_0, # of connection points: 2
#     Edge 86, Type (0, 0), BuildingBlock: ZUJKAS_clean_linker_0, # of connection points: 2
#     Edge 87, Type (0, 0), BuildingBlock: ZUJKAS_clean_linker_0, # of connection points: 2
#     Edge 88, Type (0, 0), BuildingBlock: ZUJKAS_clean_linker_0, # of connection points: 2
#     Edge 89, Type (0, 0), BuildingBlock: ZUJKAS_clean_linker_0, # of connection points: 2
#     Edge 90, Type (0, 0), BuildingBlock: ZUJKAS_clean_linker_0, # of connection points: 2
#     Edge 91, Type (0, 0), BuildingBlock: ZUJKAS_clean_linker_0, # of connection points: 2
#     Edge 92, Type (0, 0), BuildingBlock: ZUJKAS_clean_linker_0, # of connection points: 2
#     Edge 93, Type (0, 0), BuildingBlock: ZUJKAS_clean_linker_0, # of connection points: 2
#     Edge 94, Type (0, 0), BuildingBlock: ZUJKAS_clean_linker_0, # of connection points: 2
#     Edge 95, Type (0, 0), BuildingBlock: ZUJKAS_clean_linker_0, # of connection points: 2
# Relax obj value: 0.272
# Max RMSD: 0.197
# Mean RMSD: 0.197
data_MOF--net-ukm--node1-QUQFOY_clean_sbu_3--edge1-ZUJKAS_clean_linker_0
_symmetry_space_group_name_H-M    P1
_symmetry_Int_Tables_number       1
_symmetry_cell_setting            triclinic
loop_
_symmetry_equiv_pos_as_xyz
'x, y, z'
_cell_length_a     33.487052
_cell_length_b     134.95967
_cell_length_c     54.555352
_cell_angle_alpha  89.94701
_cell_angle_beta   90.006327
_cell_angle_gamma 90.007238
loop_
_atom_site_label
_atom_site_type_symbol
_atom_site_fract_x
_atom_site_fract_y
_atom_site_fract_z
_atom_type_partial_charge
C0 C 0.05132 0.26625 0.29427 0.0
O1 O 0.01828 0.27073 0.29179 0.0
Cd2 Cd 0.01771 0.28849 0.28718 0.0
O3 O 0.08337 0.27116 0.29661 0.0
Cd4 Cd 0.10518 0.28827 0.29969 0.0
C5 C 0.08474 0.29132 0.24038 0.0
O6 O 0.05072 0.29733 0.31992 0.0
O7 O 0.09169 0.30565 0.29696 0.0
O8 O 0.14359 0.28471 0.33645 0.0
C9 C 0.06366 0.30567 0.31257 0.0
O10 O 0.04846 0.29199 0.24722 0.0
C11 C 0.17723 0.28672 0.32696 0.0
O12 O 0.11208 0.28928 0.25576 0.0
O13 O 0.17724 0.28963 0.30481 0.0
C14 C 0.23805 0.94829 0.32251 0.0
O15 O 0.25708 0.94027 0.31878 0.0
Cd16 Cd 0.23022 0.92372 0.32343 0.0
O17 O 0.20204 0.94811 0.32992 0.0
Cd18 Cd 0.14875 0.93645 0.33945 0.0
C19 C 0.15547 0.92679 0.28127 0.0
O20 O 0.18779 0.92352 0.35854 0.0
O21 O 0.12603 0.9201 0.35139 0.0
O22 O 0.11588 0.94565 0.37265 0.0
C23 C 0.15979 0.91719 0.35906 0.0
O24 O 0.18781 0.92239 0.28706 0.0
C25 C 0.08534 0.9477 0.35972 0.0
O26 O 0.13767 0.93245 0.29644 0.0
O27 O 0.08501 0.9446 0.33776 0.0
C28 C 0.06336 0.94802 0.95987 0.0
O29 O 0.02824 0.9445 0.95972 0.0
Cd30 Cd 0.01711 0.92759 0.97164 0.0
O31 O 0.0932 0.94242 0.96369 0.0
Cd32 Cd 0.10783 0.92474 0.96873 0.0
C33 C 0.07011 0.92623 0.02539 0.0
O34 O 0.05456 0.91697 0.94485 0.0
O35 O 0.08547 0.90766 0.97098 0.0
O36 O 0.1572 0.92639 0.93643 0.0
C37 C 0.06101 0.90836 0.95332 0.0
O38 O 0.03592 0.92611 0.01515 0.0
C39 C 0.18648 0.92329 0.94907 0.0
O40 O 0.10182 0.92632 0.01257 0.0
O41 O 0.17916 0.92074 0.97104 0.0
C42 C 0.21863 0.27708 0.93368 0.0
O43 O 0.25007 0.28227 0.93604 0.0
Cd44 Cd 0.24835 0.30019 0.93825 0.0
O45 O 0.18492 0.28124 0.93085 0.0
Cd46 Cd 0.15325 0.29736 0.92795 0.0
C47 C 0.18353 0.3017 0.98661 0.0
O48 O 0.20522 0.30675 0.90689 0.0
O49 O 0.15622 0.31499 0.92277 0.0
O50 O 0.10598 0.29213 0.89626 0.0
C51 C 0.1888 0.31508 0.91092 0.0
O52 O 0.21909 0.30298 0.97889 0.0
C53 C 0.07568 0.29297 0.91018 0.0
O54 O 0.15561 0.29927 0.97198 0.0
O55 O 0.08174 0.29609 0.9318 0.0
C56 C 0.01574 0.68801 0.708 0.0
O57 O 0.03765 0.68039 0.71045 0.0
Cd58 Cd 0.01398 0.66361 0.70519 0.0
O59 O 0.9791 0.68716 0.70219 0.0
Cd60 Cd 0.9294 0.67439 0.69353 0.0
C61 C 0.94211 0.66392 0.74977 0.0
O62 O 0.97101 0.66286 0.67024 0.0
O63 O 0.91287 0.65774 0.68193 0.0
O64 O 0.8979 0.68376 0.66042 0.0
C65 C 0.9449 0.65604 0.67032 0.0
O66 O 0.97472 0.66025 0.74189 0.0
C67 C 0.86377 0.68416 0.67054 0.0
O68 O 0.92158 0.66985 0.73662 0.0
O69 O 0.86062 0.68029 0.69169 0.0
C70 C 0.7111 0.03376 0.68617 0.0
O71 O 0.68938 0.04134 0.68983 0.0
Cd72 Cd 0.71475 0.0581 0.69021 0.0
O73 O 0.74824 0.0347 0.68185 0.0
Cd74 Cd 0.7994 0.0475 0.67794 0.0
C75 C 0.78303 0.05517 0.73643 0.0
O76 O 0.76065 0.06034 0.65705 0.0
O77 O 0.81831 0.06446 0.6717 0.0
O78 O 0.83371 0.03944 0.64379 0.0
C79 C 0.78731 0.06694 0.65989 0.0
O80 O 0.75114 0.05933 0.72887 0.0
C81 C 0.8666 0.03842 0.65514 0.0
O82 O 0.8043 0.04992 0.7221 0.0
O83 O 0.86767 0.04135 0.67724 0.0
C84 C 0.9921 0.04163 0.03798 0.0
O85 O -0.0012 0.05084 0.03564 0.0
Cd86 Cd 0.94686 0.06311 0.0397 0.0
O87 O 0.95695 0.0384 0.0418 0.0
Cd88 Cd 0.88861 0.04455 0.04558 0.0
C89 C 0.89315 0.05568 0.98992 0.0
O90 O 0.90104 0.05871 0.07194 0.0
O91 O 0.84388 0.0582 0.05361 0.0
O92 O 0.86898 0.032 0.07567 0.0
C93 C 0.86648 0.06239 0.06906 0.0
O94 O 0.91335 0.06257 -5e-05 0.0
C95 C 0.8393 0.02892 0.06333 0.0
O96 O 0.88324 0.04797 0.00195 0.0
O97 O 0.83408 0.03277 0.04234 0.0
C98 C 0.73317 0.68987 0.02344 0.0
O99 O 0.71835 0.68121 0.02417 0.0
Cd100 Cd 0.75139 0.66664 0.03968 0.0
O101 O 0.76863 0.69153 0.03086 0.0
Cd102 Cd 0.82588 0.68214 0.0465 0.0
C103 C 0.82537 0.66639 -0.00292 0.0
O104 O 0.789 0.67169 0.07474 0.0
O105 O 0.85123 0.66817 0.06975 0.0
O106 O 0.85458 0.69494 0.07307 0.0
C107 C 0.81856 0.66632 0.08051 0.0
O108 O 0.79529 0.66189 0.00602 0.0
C109 C 0.8876 0.69529 0.06157 0.0
O110 O 0.83971 0.67405 0.00751 0.0
O111 O 0.89048 0.69002 0.04239 0.0
C112 C 0.05854 0.78798 0.77581 0.0
O113 O 0.02475 0.79219 0.77423 0.0
Cd114 Cd 0.01806 0.80985 0.772 0.0
O115 O 0.09027 0.79312 0.77741 0.0
Cd116 Cd 0.10952 0.81069 0.77949 0.0
C117 C 0.07622 0.81477 0.72203 0.0
O118 O 0.0554 0.81722 0.805 0.0
O119 O 0.09147 0.82789 0.78539 0.0
O120 O 0.15747 0.80706 0.81195 0.0
C121 C 0.06493 0.8262 0.80143 0.0
O122 O 0.04114 0.81457 0.73101 0.0
C123 C 0.18781 0.81018 0.80034 0.0
O124 O 0.10649 0.81305 0.73547 0.0
O125 O 0.18179 0.81353 0.77889 0.0
C126 C 0.22105 0.43811 0.779 0.0
O127 O 0.24941 0.43185 0.77836 0.0
Cd128 Cd 0.24444 0.41488 0.79204 0.0
O129 O 0.18707 0.43577 0.78771 0.0
Cd130 Cd 0.15171 0.42157 0.80502 0.0
C131 C 0.17035 0.4086 0.75205 0.0
O132 O 0.2068 0.41528 0.82934 0.0
O133 O 0.15303 0.40649 0.82934 0.0
O134 O 0.11064 0.43225 0.83119 0.0
C135 C 0.18869 0.40758 0.83664 0.0
O136 O 0.20665 0.40747 0.75845 0.0
C137 C 0.07779 0.4293 0.82203 0.0
O138 O 0.14624 0.41357 0.76526 0.0
O139 O 0.07978 0.42283 0.8052 0.0
C140 C 0.01189 0.433 0.44813 0.0
O141 O 0.98868 0.42559 0.44997 0.0
Cd142 Cd 0.01228 0.40877 0.44959 0.0
O143 O 0.04933 0.43178 0.44555 0.0
Cd144 Cd 0.09935 0.41865 0.44197 0.0
C145 C 0.07665 0.40975 0.49849 0.0
O146 O 0.05971 0.40759 0.41687 0.0
O147 O 0.11457 0.40159 0.43152 0.0
O148 O 0.13502 0.42825 0.41107 0.0
C149 C 0.08396 0.4004 0.41817 0.0
O150 O 0.04447 0.40629 0.48942 0.0
C151 C 0.16789 0.42844 0.42267 0.0
O152 O 0.10032 0.41496 0.48554 0.0
O153 O 0.16874 0.4241 0.44334 0.0
C154 C 0.21139 0.78637 0.42985 0.0
O155 O 0.23359 0.79398 0.42798 0.0
Cd156 Cd 0.21051 0.8104 0.41775 0.0
O157 O 0.17409 0.78688 0.42545 0.0
Cd158 Cd 0.12153 0.7985 0.41325 0.0
C159 C 0.14231 0.81216 0.46487 0.0
O160 O 0.16296 0.80787 0.38598 0.0
O161 O 0.10328 0.81345 0.39029 0.0
O162 O 0.08704 0.78569 0.38963 0.0
C163 C 0.13779 0.81459 0.38114 0.0
O164 O 0.17507 0.81502 0.45529 0.0
C165 C 0.05463 0.78644 0.40166 0.0
O166 O 0.11935 0.80612 0.45373 0.0
O167 O 0.05372 0.79278 0.41885 0.0
C168 C 0.95596 0.18068 0.18711 0.0
O169 O 0.96499 0.17164 0.18385 0.0
Cd170 Cd 0.91533 0.15882 0.18262 0.0
O171 O 0.91969 0.18334 0.18959 0.0
Cd172 Cd 0.85188 0.17648 0.19072 0.0
C173 C 0.87855 0.16297 0.24046 0.0
O174 O 0.8603 0.16457 0.15828 0.0
O175 O 0.80922 0.16232 0.18173 0.0
O176 O 0.82534 0.19066 0.16818 0.0
C177 C 0.82853 0.15981 0.16276 0.0
O178 O 0.89669 0.15711 0.2259 0.0
C179 C 0.79674 0.19225 0.18296 0.0
O180 O 0.86205 0.17085 0.23256 0.0
O181 O 0.79504 0.18678 0.2019 0.0
C182 C 0.7809 0.53779 0.18883 0.0
O183 O 0.75847 0.54532 0.18631 0.0
Cd184 Cd 0.78195 0.56197 0.17914 0.0
O185 O 0.81873 0.53854 0.18735 0.0
Cd186 Cd 0.87257 0.55045 0.1815 0.0
C187 C 0.83764 0.56308 0.23206 0.0
O188 O 0.83754 0.56028 0.15232 0.0
O189 O 0.89463 0.56607 0.16341 0.0
O190 O 0.9158 0.53917 0.15864 0.0
C191 C 0.86277 0.56725 0.15118 0.0
O192 O 0.80739 0.56609 0.21996 0.0
C193 C 0.94342 0.53924 0.17466 0.0
O194 O 0.86341 0.55732 0.22242 0.0
O195 O 0.93761 0.54441 0.19377 0.0
C196 C 0.9205 0.53103 0.5246 0.0
O197 O 0.94945 0.53711 0.52438 0.0
Cd198 Cd 0.94303 0.55443 0.53378 0.0
O199 O 0.88565 0.53381 0.53083 0.0
Cd200 Cd 0.85033 0.54875 0.54439 0.0
C201 C 0.8726 0.56007 0.49027 0.0
O202 O 0.90331 0.55546 0.56994 0.0
O203 O 0.85236 0.56495 0.56363 0.0
O204 O 0.81197 0.5391 0.57399 0.0
C205 C 0.88579 0.5636 0.57406 0.0
O206 O 0.90815 0.5611 0.49818 0.0
C207 C 0.7781 0.54163 0.56557 0.0
O208 O 0.84644 0.55548 0.50288 0.0
O209 O 0.77796 0.5473 0.54696 0.0
C210 C 0.82504 0.19244 0.52774 0.0
O211 O 0.79567 0.18648 0.52861 0.0
Cd212 Cd 0.80033 0.16944 0.54151 0.0
O213 O 0.85972 0.18971 0.53444 0.0
Cd214 Cd 0.89449 0.17512 0.55006 0.0
C215 C 0.86882 0.1625 0.49819 0.0
O216 O 0.84172 0.16945 0.57701 0.0
O217 O 0.89233 0.15969 0.57323 0.0
O218 O 0.93485 0.18575 0.57629 0.0
C219 C 0.85869 0.16142 0.58298 0.0
O220 O 0.83378 0.16155 0.50696 0.0
C221 C 0.96808 0.18262 0.56816 0.0
O222 O 0.8954 0.16749 0.50944 0.0
O223 O 0.96688 0.17613 0.55132 0.0
C224 C 0.53401 0.28367 0.78491 0.0
O225 O 0.50637 0.29009 0.78331 0.0
Cd226 Cd 0.51429 0.30718 0.79633 0.0
O227 O 0.56814 0.286 0.7933 0.0
Cd228 Cd 0.60445 0.30036 0.8078 0.0
C229 C 0.58518 0.31325 0.75489 0.0
O230 O 0.5518 0.30705 0.83406 0.0
O231 O 0.60648 0.31551 0.83088 0.0
O232 O 0.64693 0.29002 0.83394 0.0
C233 C 0.57228 0.31452 0.8405 0.0
O234 O 0.54979 0.31498 0.76223 0.0
C235 C 0.67912 0.29268 0.82346 0.0
O236 O 0.60865 0.30784 0.76743 0.0
O237 O 0.67609 0.2988 0.80588 0.0
C238 C 0.68652 0.93718 0.78045 0.0
O239 O 0.71937 0.93266 0.77723 0.0
Cd240 Cd 0.72824 0.9152 0.78357 0.0
O241 O 0.65609 0.93259 0.78857 0.0
Cd242 Cd 0.63833 0.91571 0.80155 0.0
C243 C 0.65566 0.90752 0.74382 0.0
O244 O 0.7002 0.9108 0.82251 0.0
O245 O 0.65762 0.89927 0.81406 0.0
O246 O 0.59772 0.92217 0.83521 0.0
C247 C 0.68987 0.90179 0.82449 0.0
O248 O 0.69276 0.90785 0.7489 0.0
C249 C 0.566 0.91774 0.82862 0.0
O250 O 0.62975 0.91047 0.75924 0.0
O251 O 0.56804 0.91249 0.80937 0.0
C252 C 0.53791 0.93509 0.43684 0.0
O253 O 0.52067 0.92682 0.43346 0.0
Cd254 Cd 0.55735 0.91147 0.43185 0.0
O255 O 0.57565 0.93555 0.43924 0.0
Cd256 Cd 0.63479 0.92497 0.43995 0.0
C257 C 0.59792 0.91259 0.48925 0.0
O258 O 0.61571 0.91399 0.40671 0.0
O259 O 0.66628 0.90947 0.42859 0.0
O260 O 0.67249 0.93799 0.41933 0.0
C261 C 0.64406 0.90792 0.41019 0.0
O262 O 0.57401 0.90811 0.47486 0.0
C263 C 0.70077 0.93809 0.43485 0.0
O264 O 0.62102 0.91936 0.48128 0.0
O265 O 0.69785 0.9322 0.45293 0.0
C266 C 0.72029 0.28806 0.44642 0.0
O267 O 0.74098 0.29595 0.44631 0.0
Cd268 Cd 0.71139 0.31221 0.44648 0.0
O269 O 0.68235 0.28846 0.44694 0.0
Cd270 Cd 0.62916 0.30078 0.44817 0.0
C271 C 0.66208 0.31108 0.50093 0.0
O272 O 0.65696 0.31197 0.41785 0.0
O273 O 0.60725 0.3175 0.43905 0.0
O274 O 0.58659 0.29073 0.42193 0.0
C275 C 0.6312 0.3187 0.42131 0.0
O276 O 0.68881 0.31551 0.48844 0.0
C277 C 0.55727 0.29055 0.43668 0.0
O278 O 0.639 0.30475 0.49104 0.0
O279 O 0.56203 0.29484 0.45719 0.0
C280 C 0.41182 0.69692 0.19714 0.0
O281 O 0.44255 0.69142 0.19531 0.0
Cd282 Cd 0.44084 0.67423 0.18297 0.0
O283 O 0.37744 0.69368 0.1913 0.0
Cd284 Cd 0.3424 0.67908 0.17625 0.0
C285 C 0.37506 0.66736 0.22856 0.0
O286 O 0.39487 0.67332 0.14984 0.0
O287 O 0.34381 0.66367 0.1529 0.0
O288 O 0.2996 0.68923 0.15023 0.0
C289 C 0.37843 0.66518 0.14421 0.0
O290 O 0.41001 0.66698 0.21934 0.0
C291 C 0.26748 0.68683 0.16113 0.0
O292 O 0.34637 0.67152 0.2171 0.0
O293 O 0.2703 0.68076 0.17888 0.0
C294 C 0.31344 0.03072 0.17318 0.0
O295 O 0.29261 0.03856 0.17142 0.0
Cd296 Cd 0.32195 0.0549 0.16782 0.0
O297 O 0.35135 0.03112 0.17259 0.0
Cd298 Cd 0.4072 0.04256 0.1694 0.0
C299 C 0.37433 0.05383 0.22185 0.0
O300 O 0.37822 0.0542 0.14073 0.0
O301 O 0.43398 0.05851 0.15743 0.0
O302 O 0.44606 0.03127 0.14391 0.0
C303 C 0.40544 0.06067 0.14311 0.0
O304 O 0.3459 0.05768 0.20957 0.0
C305 C 0.47422 0.0303 0.15936 0.0
O306 O 0.39894 0.04786 0.21186 0.0
O307 O 0.47093 0.03502 0.1794 0.0
C308 C 0.4023 0.0266 0.52948 0.0
O309 O 0.43119 0.0326 0.53224 0.0
Cd310 Cd 0.42297 0.0502 0.53627 0.0
O311 O 0.36638 0.02966 0.53009 0.0
Cd312 Cd 0.32835 0.04502 0.53587 0.0
C313 C 0.36944 0.05383 0.48322 0.0
O314 O 0.37151 0.05284 0.56584 0.0
O315 O 0.3259 0.0621 0.54969 0.0
O316 O 0.28099 0.03673 0.56281 0.0
C317 C 0.35415 0.06118 0.56501 0.0
O318 O 0.40169 0.05517 0.49517 0.0
C319 C 0.25063 0.03852 0.54958 0.0
O320 O 0.33908 0.04989 0.49339 0.0
O321 O 0.25652 0.04324 0.52974 0.0
C322 C 0.33281 0.69508 0.53711 0.0
O323 O 0.30642 0.68839 0.53959 0.0
Cd324 Cd 0.32221 0.67111 0.54272 0.0
O325 O 0.36976 0.69286 0.53698 0.0
Cd326 Cd 0.41325 0.67828 0.54072 0.0
C327 C 0.37358 0.66876 0.48854 0.0
O328 O 0.3753 0.66961 0.57185 0.0
O329 O 0.42096 0.6611 0.55345 0.0
O330 O 0.45832 0.6872 0.56779 0.0
C331 C 0.39506 0.66163 0.57035 0.0
O332 O 0.34281 0.66658 0.50119 0.0
C333 C 0.48922 0.686 0.55466 0.0
O334 O 0.40267 0.67346 0.49809 0.0
O335 O 0.48466 0.68141 0.53452 0.0
C336 C 0.50431 0.78117 0.32236 0.0
O337 O 0.49014 0.78979 0.31909 0.0
Cd338 Cd 0.531 0.80393 0.30954 0.0
O339 O 0.5418 0.77968 0.32127 0.0
Cd340 Cd 0.60386 0.78879 0.31393 0.0
C341 C 0.57424 0.79525 0.25677 0.0
O342 O 0.58869 0.80403 0.33559 0.0
O343 O 0.63813 0.80456 0.31017 0.0
O344 O 0.64414 0.7805 0.34515 0.0
C345 C 0.61765 0.80887 0.32653 0.0
O346 O 0.55116 0.80161 0.26666 0.0
C347 C 0.66861 0.77675 0.32997 0.0
O348 O 0.59447 0.78927 0.26987 0.0
O349 O 0.66199 0.77833 0.30739 0.0
C350 C 0.70947 0.4509 0.31747 0.0
O351 O 0.73478 0.44394 0.31584 0.0
Cd352 Cd 0.71486 0.42726 0.30599 0.0
O353 O 0.67245 0.44915 0.31478 0.0
Cd354 Cd 0.62678 0.43554 0.30696 0.0
C355 C 0.66765 0.43184 0.2513 0.0
O356 O 0.65822 0.42218 0.32989 0.0
O357 O 0.61505 0.41809 0.3021 0.0
O358 O 0.5794 0.44079 0.33809 0.0
C359 C 0.63754 0.41547 0.31963 0.0
O360 O 0.69667 0.42772 0.26248 0.0
C361 C 0.55054 0.44206 0.32333 0.0
O362 O 0.63949 0.43597 0.2632 0.0
O363 O 0.55747 0.44052 0.30076 0.0
C364 C 0.5321 0.44389 0.94004 0.0
O365 O 0.50676 0.4372 0.94528 0.0
Cd366 Cd 0.52123 0.41984 0.94934 0.0
O367 O 0.56841 0.44168 0.93578 0.0
Cd368 Cd 0.61236 0.42718 0.93448 0.0
C369 C 0.5913 0.42214 0.99468 0.0
O370 O 0.56492 0.41596 0.91616 0.0
O371 O 0.62005 0.40935 0.92827 0.0
O372 O 0.65528 0.43331 0.90123 0.0
C373 C 0.58599 0.40823 0.91849 0.0
O374 O 0.5567 0.41906 0.98864 0.0
C375 C 0.68619 0.43386 0.91473 0.0
O376 O 0.61509 0.42566 0.97871 0.0
O377 O 0.68235 0.4313 0.937 0.0
C378 C 0.69327 0.78048 0.93197 0.0
O379 O 0.7271 0.78358 0.93919 0.0
Cd380 Cd 0.73838 0.80001 0.95455 0.0
O381 O 0.66333 0.78628 0.93157 0.0
Cd382 Cd 0.64715 0.80363 0.9405 0.0
C383 C 0.66895 0.80014 0.00064 0.0
O384 O 0.70897 0.81136 0.92604 0.0
O385 O 0.66787 0.82068 0.94607 0.0
O386 O 0.6044 0.80425 0.90419 0.0
C387 C 0.70004 0.8199 0.93397 0.0
O388 O 0.70574 0.8003 0.99471 0.0
C389 C 0.57272 0.80634 0.91591 0.0
O390 O 0.64186 0.8007 0.98434 0.0
O391 O 0.57587 0.80729 0.93899 0.0
C392 C 0.50026 0.18635 0.69553 0.0
O393 O 0.52476 0.17951 0.7009 0.0
Cd394 Cd 0.50199 0.16292 0.71016 0.0
O395 O 0.46301 0.1846 0.6949 0.0
Cd396 Cd 0.41547 0.17125 0.70126 0.0
C397 C 0.44499 0.16812 0.76019 0.0
O398 O 0.45202 0.15801 0.68075 0.0
O399 O 0.39998 0.15376 0.70183 0.0
O400 O 0.3743 0.17753 0.66782 0.0
C401 C 0.42763 0.15129 0.68719 0.0
O402 O 0.47573 0.16365 0.75203 0.0
C403 C 0.34366 0.17905 0.68101 0.0
O404 O 0.42007 0.1721 0.74559 0.0
O405 O 0.34647 0.17691 0.70362 0.0
C406 C 0.2489 0.53505 0.69274 0.0
O407 O 0.22259 0.5416 0.6969 0.0
Cd408 Cd 0.24288 0.5581 0.70868 0.0
O409 O 0.28573 0.53712 0.69488 0.0
Cd410 Cd 0.32994 0.5508 0.70508 0.0
C411 C 0.29284 0.5534 0.76203 0.0
O412 O 0.29661 0.56432 0.68338 0.0
O413 O 0.34103 0.56828 0.71057 0.0
O414 O 0.37475 0.54621 0.672 0.0
C415 C 0.31812 0.57096 0.69329 0.0
O416 O 0.26274 0.55741 0.75177 0.0
C417 C 0.40475 0.54446 0.68553 0.0
O418 O 0.32065 0.54959 0.74921 0.0
O419 O 0.40006 0.54562 0.70846 0.0
C420 C 0.47375 0.53795 0.04908 0.0
O421 O 0.49613 0.54539 0.045 0.0
Cd422 Cd 0.47793 0.56244 0.05208 0.0
O423 O 0.43905 0.53904 0.05823 0.0
Cd424 Cd 0.39295 0.55191 0.07209 0.0
C425 C 0.39658 0.56196 0.01404 0.0
O426 O 0.44355 0.56218 0.09042 0.0
O427 O 0.38372 0.56798 0.09196 0.0
O428 O 0.36223 0.54103 0.10298 0.0
C429 C 0.4205 0.56918 0.09656 0.0
O430 O 0.43173 0.56522 0.01794 0.0
C431 C 0.32747 0.54179 0.09372 0.0
O432 O 0.37817 0.55695 0.03027 0.0
O433 O 0.32385 0.54721 0.07481 0.0
C434 C 0.26959 0.19131 0.06573 0.0
O435 O 0.25604 0.18256 0.06362 0.0
Cd436 Cd 0.29612 0.16776 0.06613 0.0
O437 O 0.30653 0.19281 0.06983 0.0
Cd438 Cd 0.36872 0.1835 0.07444 0.0
C439 C 0.35629 0.17345 0.01753 0.0
O440 O 0.34427 0.16955 0.09817 0.0
O441 O 0.4031 0.168 0.0826 0.0
O442 O 0.39964 0.19414 0.10554 0.0
C443 C 0.37537 0.1643 0.09549 0.0
O444 O 0.33031 0.16758 0.02653 0.0
C445 C 0.4281 0.19689 0.09168 0.0
O446 O 0.37233 0.18018 0.03061 0.0
O447 O 0.42808 0.19359 0.0699 0.0
H448 H 0.12566 0.38319 0.42302 0.0
H449 H 0.1109 0.36722 0.4041 0.0
H450 H 0.00764 0.37983 0.36857 0.0
H451 H 0.02173 0.39585 0.38784 0.0
H452 H 0.99403 0.36087 0.38943 0.0
H453 H 0.12968 0.36177 0.33114 0.0
H454 H 0.14015 0.36339 0.36315 0.0
H455 H 0.11132 0.37257 0.34703 0.0
C456 C 0.09983 0.38258 0.41117 0.0
C457 C 0.07505 0.39078 0.4067 0.0
C458 C 0.09147 0.37346 0.40038 0.0
C459 C 0.05853 0.37242 0.38473 0.0
C460 C 0.03325 0.38053 0.38058 0.0
H461 H 0.05468 0.32257 0.28674 0.0
H462 H 0.04269 0.33911 0.30318 0.0
C463 C 0.04146 0.38966 0.39149 0.0
C464 C 0.05132 0.36292 0.37219 0.0
H465 H 0.09556 0.34637 0.33386 0.0
C466 C 0.01593 0.35771 0.37706 0.0
C467 C 0.07972 0.35895 0.3558 0.0
C468 C 0.11717 0.3645 0.34875 0.0
C469 C 0.00881 0.34839 0.36648 0.0
C470 C 0.03819 0.3442 0.35105 0.0
C471 C 0.07303 0.34958 0.34574 0.0
C472 C 0.03478 0.33414 0.34061 0.0
C473 C 0.96998 0.34316 0.37185 0.0
C474 C 0.03233 0.32581 0.35603 0.0
C475 C 0.03837 0.31631 0.34652 0.0
C476 C 0.04791 0.31511 0.32167 0.0
C477 C 0.04767 0.32336 0.30603 0.0
C478 C 0.04078 0.33279 0.31539 0.0
H479 H 0.94623 0.34849 0.37716 0.0
H480 H 0.95958 0.33883 0.35577 0.0
H481 H 0.97444 0.33797 0.3874 0.0
H482 H 0.02857 0.32669 0.37562 0.0
H483 H 0.03874 0.31003 0.3589 0.0
H484 H 0.23213 0.90784 0.36432 0.0
H485 H 0.24436 0.88988 0.3636 0.0
H486 H 0.11755 0.8846 0.35945 0.0
H487 H 0.10503 0.90238 0.36024 0.0
H488 H 0.21023 0.8741 0.39582 0.0
H489 H 0.16797 0.87044 0.29807 0.0
H490 H 0.18289 0.88209 0.3116 0.0
H491 H 0.1329 0.87752 0.31578 0.0
C492 C 0.20689 0.90283 0.3636 0.0
C493 C 0.16763 0.9065 0.36212 0.0
C494 C 0.21395 0.89261 0.36306 0.0
C495 C 0.18186 0.88599 0.36088 0.0
C496 C 0.1427 0.88963 0.3606 0.0
H497 H 0.0899 0.82996 0.36804 0.0
H498 H 0.11039 0.84695 0.35925 0.0
C499 C 0.13562 0.89979 0.3612 0.0
C500 C 0.18839 0.87522 0.35885 0.0
H501 H 0.16377 0.8556 0.32255 0.0
C502 C 0.20122 0.87001 0.37962 0.0
C503 C 0.17681 0.86999 0.33758 0.0
C504 C 0.16473 0.8753 0.31438 0.0
C505 C 0.19937 0.85963 0.3804 0.0
C506 C 0.18478 0.85443 0.35974 0.0
C507 C 0.17484 0.85963 0.33835 0.0
C508 C 0.17371 0.84387 0.36138 0.0
C509 C 0.21008 0.85434 0.40389 0.0
C510 C 0.20267 0.83648 0.36452 0.0
C511 C 0.19103 0.82674 0.36949 0.0
C512 C 0.15028 0.82431 0.37149 0.0
C513 C 0.12148 0.83163 0.3668 0.0
C514 C 0.13313 0.84132 0.36173 0.0
H515 H 0.21708 0.85958 0.419 0.0
H516 H 0.18512 0.84947 0.40978 0.0
H517 H 0.23661 0.84958 0.40075 0.0
H518 H 0.23414 0.83832 0.36401 0.0
H519 H 0.21389 0.82123 0.37294 0.0
H520 H 0.06233 0.88945 0.97083 0.0
H521 H 0.04501 0.87438 0.94835 0.0
H522 H 0.00443 0.89205 0.88734 0.0
H523 H 0.02091 0.90718 0.90986 0.0
H524 H 0.96 0.87333 0.89603 0.0
H525 H 0.12555 0.86958 0.89126 0.0
H526 H 0.10462 0.87035 0.92152 0.0
H527 H 0.10156 0.88083 0.90128 0.0
C528 C 0.04884 0.89013 0.95286 0.0
C529 C 0.04378 0.89946 0.94183 0.0
C530 C 0.0388 0.88153 0.94013 0.0
C531 C 0.02406 0.88215 0.91613 0.0
C532 C 0.01578 0.89146 0.90589 0.0
H533 H 0.07357 0.84597 0.79376 0.0
H534 H 0.05497 0.85934 0.82154 0.0
C535 C 0.02546 0.90008 0.91871 0.0
C536 C 0.02395 0.87331 0.90029 0.0
H537 H 0.08749 0.85755 0.87106 0.0
C538 C 0.98773 0.86979 0.89068 0.0
C539 C 0.06037 0.86886 0.89319 0.0
C540 C 0.10031 0.87261 0.90214 0.0
C541 C 0.98714 0.8619 0.8739 0.0
C542 C 0.02364 0.85754 0.86674 0.0
C543 C 0.05962 0.86096 0.87669 0.0
C544 C 0.02624 0.84974 0.84796 0.0
C545 C 0.94796 0.85844 0.86333 0.0
C546 C 0.0152 0.83997 0.85342 0.0
C547 C 0.02584 0.83228 0.83754 0.0
C548 C 0.04802 0.8343 0.81622 0.0
C549 C 0.05684 0.84418 0.81016 0.0
C550 C 0.04604 0.85183 0.82592 0.0
H551 H 0.92267 0.86328 0.86886 0.0
H552 H 0.9497 0.85826 0.84301 0.0
H553 H 0.94172 0.85079 0.86972 0.0
H554 H 0.00042 0.83823 0.87056 0.0
H555 H 0.0186 0.82473 0.84262 0.0
H556 H 0.26903 0.4037 0.83779 0.0
H557 H 0.30111 0.38857 0.85363 0.0
H558 H 0.18692 0.37817 0.8796 0.0
H559 H 0.15481 0.39306 0.86368 0.0
H560 H 0.26603 0.37595 0.91245 0.0
H561 H 0.26608 0.36069 0.81753 0.0
H562 H 0.28307 0.37311 0.82411 0.0
H563 H 0.23076 0.3703 0.8251 0.0
C564 C 0.25104 0.39826 0.84738 0.0
C565 C 0.20942 0.39947 0.84939 0.0
C566 C 0.26937 0.38966 0.85634 0.0
C567 C 0.24623 0.38231 0.86766 0.0
C568 C 0.20517 0.38381 0.87094 0.0
H569 H 0.16177 0.3335 0.9214 0.0
H570 H 0.19348 0.34925 0.91254 0.0
C571 C 0.18687 0.39228 0.86177 0.0
C572 C 0.26269 0.37253 0.87397 0.0
H573 H 0.26068 0.34922 0.85017 0.0
C574 C 0.26666 0.37011 0.89882 0.0
C575 C 0.2641 0.36497 0.85611 0.0
C576 C 0.26096 0.36733 0.82915 0.0
C577 C 0.26707 0.36019 0.90642 0.0
C578 C 0.26226 0.35263 0.88872 0.0
C579 C 0.26385 0.35505 0.86373 0.0
C580 C 0.24593 0.34285 0.89558 0.0
C581 C 0.26917 0.35792 0.93345 0.0
C582 C 0.26423 0.33398 0.88818 0.0
C583 C 0.24581 0.32486 0.89308 0.0
C584 C 0.20864 0.32455 0.90509 0.0
C585 C 0.19045 0.33347 0.91221 0.0
C586 C 0.20883 0.34249 0.90745 0.0
H587 H 0.28827 0.36342 0.94306 0.0
H588 H 0.23877 0.35842 0.94146 0.0
H589 H 0.28113 0.35037 0.93688 0.0
H590 H 0.2925 0.33413 0.87855 0.0
H591 H 0.26049 0.3181 0.88738 0.0
H592 H 0.96525 0.56558 0.58486 0.0
H593 H -0.00223 0.57993 0.60422 0.0
H594 H 0.88313 0.59403 0.61284 0.0
H595 H 0.85063 0.5799 0.59333 0.0
H596 H 0.97477 0.60256 0.58391 0.0
H597 H 0.95495 0.59341 0.68247 0.0
H598 H 0.96178 0.58405 0.65912 0.0
H599 H 0.91437 0.59011 0.66241 0.0
C600 C 0.947 0.57171 0.59119 0.0
C601 C 0.90538 0.57168 0.58757 0.0
C602 C 0.96566 0.57986 0.60213 0.0
C603 C 0.9427 0.58794 0.6099 0.0
C604 C 0.90115 0.58779 0.60697 0.0
H605 H 0.89172 0.64111 0.66489 0.0
H606 H 0.90449 0.62431 0.65081 0.0
C607 C 0.88261 0.57975 0.59581 0.0
C608 C 0.96132 0.59693 0.61986 0.0
H609 H 0.96123 0.6106 0.6722 0.0
C610 C 0.97337 0.60429 0.6033 0.0
C611 C 0.95928 0.59904 0.64511 0.0
C612 C 0.94717 0.59123 0.66343 0.0
C613 C 0.97947 0.61407 0.61116 0.0
C614 C 0.97365 0.61638 0.63616 0.0
C615 C 0.96556 0.60877 0.65302 0.0
C616 C 0.96752 0.62668 0.64428 0.0
C617 C 0.98823 0.62201 0.59244 0.0
C618 C -0.00123 0.63359 0.64491 0.0
C619 C 0.99146 0.64329 0.65282 0.0
C620 C 0.9529 0.64611 0.66031 0.0
C621 C 0.92177 0.63916 0.65933 0.0
C622 C 0.92903 0.62955 0.65139 0.0
H623 H 0.98981 0.61901 0.57351 0.0
H624 H 0.96475 0.62781 0.59308 0.0
H625 H 0.01718 0.6256 0.5968 0.0
H626 H 0.02872 0.63146 0.63959 0.0
H627 H 0.01603 0.6485 0.65354 0.0
H628 H 0.71775 0.07585 0.64482 0.0
H629 H 0.70775 0.09355 0.63592 0.0
H630 H 0.83256 0.09901 0.65017 0.0
H631 H 0.8426 0.08155 0.65937 0.0
H632 H 0.77912 0.11221 0.67445 0.0
H633 H 0.74771 0.10859 0.57434 0.0
H634 H 0.71837 0.10148 0.5957 0.0
H635 H 0.77022 0.09862 0.59153 0.0
C636 C 0.74303 0.08084 0.64584 0.0
C637 C 0.78096 0.07735 0.65278 0.0
C638 C 0.73726 0.09092 0.6408 0.0
C639 C 0.76944 0.09754 0.64244 0.0
C640 C 0.8073 0.09401 0.64902 0.0
H641 H 0.89215 0.1462 0.60795 0.0
H642 H 0.85788 0.1321 0.62657 0.0
C643 C 0.81302 0.08402 0.65416 0.0
C644 C 0.76494 0.10821 0.63721 0.0
H645 H 0.76366 0.12437 0.58918 0.0
C646 C 0.77457 0.11493 0.65594 0.0
C647 C 0.7586 0.11171 0.6131 0.0
C648 C 0.74826 0.10477 0.59239 0.0
C649 C 0.7818 0.12492 0.65072 0.0
C650 C 0.77929 0.12821 0.62623 0.0
C651 C 0.76558 0.12175 0.60795 0.0
C652 C 0.79848 0.1375 0.61843 0.0
C653 C 0.79483 0.13175 0.67107 0.0
C654 C 0.77623 0.14522 0.60797 0.0
C655 C 0.7958 0.15335 0.59755 0.0
C656 C 0.83777 0.15369 0.59697 0.0
C657 C 0.85979 0.14609 0.60813 0.0
C658 C 0.84028 0.13808 0.61887 0.0
H659 H 0.78426 0.12906 0.6892 0.0
H660 H 0.82795 0.13204 0.67153 0.0
H661 H 0.7835 0.13938 0.668 0.0
H662 H 0.74394 0.1448 0.60725 0.0
H663 H 0.77818 0.15911 0.58889 0.0
H664 H 0.84859 0.15482 0.11622 0.0
H665 H 0.84401 0.13841 0.09745 0.0
H666 H 0.78889 0.12706 0.16331 0.0
H667 H 0.79134 0.14356 0.18149 0.0
H668 H 0.88316 0.12338 0.11301 0.0
H669 H 0.72365 0.11297 0.1138 0.0
H670 H 0.74008 0.12551 0.11923 0.0
H671 H 0.73986 0.11657 0.14379 0.0
C672 C 0.83449 0.14886 0.12635 0.0
C673 C 0.82037 0.1504 0.15024 0.0
C674 C 0.8319 0.13951 0.11567 0.0
C675 C 0.81583 0.13151 0.12889 0.0
C676 C 0.80036 0.13315 0.15246 0.0
H677 H 0.90059 0.07157 0.10831 0.0
H678 H 0.88566 0.08817 0.12386 0.0
C679 C 0.80206 0.14257 0.16292 0.0
C680 C 0.82014 0.12131 0.11939 0.0
H681 H 0.77072 0.09949 0.11072 0.0
C682 C 0.85839 0.11821 0.11219 0.0
C683 C 0.78784 0.11457 0.11817 0.0
C684 C 0.74551 0.11762 0.12392 0.0
C685 C 0.86543 0.10853 0.10417 0.0
C686 C 0.83367 0.10163 0.10439 0.0
C687 C 0.79519 0.10476 0.11106 0.0
C688 C 0.83968 0.09121 0.09695 0.0
C689 C 0.90672 0.1059 0.09513 0.0
C690 C 0.81714 0.08724 0.07767 0.0
C691 C 0.82493 0.07769 0.06919 0.0
C692 C 0.8557 0.07203 0.0797 0.0
C693 C 0.87714 0.07585 0.09966 0.0
C694 C 0.8688 0.08534 0.10844 0.0
H695 H 0.92349 0.11258 0.08915 0.0
H696 H 0.92382 0.10239 0.11025 0.0
H697 H 0.90536 0.10063 0.07953 0.0
H698 H 0.79436 0.09163 0.06866 0.0
H699 H 0.80783 0.07491 0.05381 0.0
H700 H 0.78892 0.5736 0.13674 0.0
H701 H 0.76894 0.59067 0.12779 0.0
H702 H 0.89109 0.60023 0.13632 0.0
H703 H 0.91119 0.58326 0.14575 0.0
H704 H 0.83527 0.611 0.16447 0.0
H705 H 0.78895 0.60779 0.06666 0.0
H706 H 0.76668 0.59921 0.08787 0.0
H707 H 0.81921 0.5985 0.08159 0.0
C708 C 0.81162 0.57931 0.13628 0.0
C709 C 0.8516 0.57713 0.14204 0.0
C710 C 0.80014 0.58904 0.13116 0.0
C711 C 0.82859 0.59666 0.13141 0.0
C712 C 0.86873 0.59442 0.13618 0.0
H713 H 0.87711 0.65542 0.10167 0.0
H714 H 0.87106 0.6388 0.11888 0.0
C715 C 0.88017 0.58473 0.14145 0.0
C716 C 0.81673 0.60707 0.1279 0.0
H717 H 0.78544 0.62356 0.08466 0.0
C718 C 0.8239 0.61375 0.14712 0.0
C719 C 0.80141 0.61056 0.10537 0.0
C720 C 0.79378 0.60369 0.08408 0.0
C721 C 0.81802 0.62393 0.14397 0.0
C722 C 0.80495 0.62748 0.121 0.0
C723 C 0.79537 0.62076 0.10228 0.0
C724 C 0.80684 0.63807 0.11471 0.0
C725 C 0.82707 0.63086 0.16494 0.0
C726 C 0.77259 0.64317 0.107 0.0
C727 C 0.77596 0.6527 0.09723 0.0
C728 C 0.81374 0.65712 0.09464 0.0
C729 C 0.84768 0.65216 0.10342 0.0
C730 C 0.84423 0.64271 0.1134 0.0
H731 H 0.82463 0.62701 0.1829 0.0
H732 H 0.85812 0.63363 0.16307 0.0
H733 H 0.80659 0.63733 0.16486 0.0
H734 H 0.74357 0.63963 0.10771 0.0
H735 H 0.74936 0.65637 0.09048 0.0
H736 H 0.62589 0.39072 0.91948 0.0
H737 H 0.59863 0.37417 0.91304 0.0
H738 H 0.48139 0.38661 0.90167 0.0
H739 H 0.50871 0.4033 0.90762 0.0
H740 H 0.53673 0.36427 0.93891 0.0
H741 H 0.49999 0.36982 0.84 0.0
H742 H 0.53184 0.37834 0.85631 0.0
H743 H 0.47909 0.37824 0.86207 0.0
C744 C 0.59434 0.38995 0.91552 0.0
C745 C 0.56949 0.39829 0.91386 0.0
C746 C 0.57875 0.38049 0.912 0.0
C747 C 0.53805 0.37919 0.90684 0.0
C748 C 0.51296 0.38748 0.90537 0.0
H749 H 0.49431 0.31998 0.84702 0.0
H750 H 0.47042 0.33478 0.86888 0.0
C751 C 0.52863 0.39699 0.90874 0.0
C752 C 0.52313 0.36908 0.90215 0.0
H753 H 0.50182 0.35359 0.85465 0.0
C754 C 0.52794 0.36194 0.92066 0.0
C755 C 0.51097 0.3661 0.87845 0.0
C756 C 0.50523 0.37348 0.85795 0.0
C757 C 0.52499 0.35182 0.91541 0.0
C758 C 0.51735 0.34882 0.89108 0.0
C759 C 0.50784 0.35595 0.87329 0.0
C760 C 0.52886 0.33889 0.88239 0.0
C761 C 0.53306 0.3444 0.93547 0.0
C762 C 0.56942 0.33631 0.88304 0.0
C763 C 0.58309 0.32807 0.87029 0.0
C764 C 0.5564 0.3222 0.85685 0.0
C765 C 0.51538 0.32439 0.85741 0.0
C766 C 0.50172 0.3328 0.86987 0.0
H767 H 0.52407 0.34737 0.95363 0.0
H768 H 0.51698 0.33733 0.93211 0.0
H769 H 0.56557 0.34282 0.93617 0.0
H770 H 0.59097 0.34104 0.89213 0.0
H771 H 0.61483 0.3265 0.87019 0.0
H772 H 0.67776 0.83914 0.93693 0.0
H773 H 0.7145 0.85354 0.92273 0.0
H774 H 0.81599 0.83506 0.90563 0.0
H775 H 0.77801 0.8204 0.91864 0.0
H776 H 0.78273 0.86308 0.93265 0.0
H777 H 0.79407 0.84612 0.83952 0.0
H778 H 0.76544 0.84013 0.86319 0.0
H779 H 0.8191 0.84028 0.86478 0.0
C780 C 0.70802 0.83813 0.93036 0.0
C781 C 0.72472 0.82865 0.92836 0.0
C782 C 0.72922 0.84639 0.92242 0.0
C783 C 0.76785 0.84538 0.91266 0.0
C784 C 0.78587 0.83599 0.91244 0.0
H785 H 0.76489 0.90419 0.84434 0.0
H786 H 0.80537 0.89146 0.86509 0.0
C787 C 0.7642 0.82764 0.91992 0.0
C788 C 0.7857 0.85408 0.90014 0.0
H789 H 0.79033 0.86322 0.84199 0.0
C790 C 0.78597 0.86313 0.91286 0.0
C791 C 0.79119 0.85411 0.87438 0.0
C792 C 0.79244 0.84468 0.85954 0.0
C793 C 0.78391 0.87217 0.90023 0.0
C794 C 0.78278 0.87206 0.87437 0.0
C795 C 0.79037 0.86318 0.86187 0.0
C796 C 0.76128 0.87987 0.86075 0.0
C797 C 0.77748 0.8816 0.91449 0.0
C798 C 0.72347 0.87752 0.85134 0.0
C799 C 0.70065 0.88466 0.83954 0.0
C800 C 0.715 0.89437 0.83695 0.0
C801 C 0.75306 0.89676 0.84621 0.0
C802 C 0.77617 0.88953 0.85803 0.0
H803 H 0.78019 0.88043 0.93459 0.0
H804 H 0.79974 0.88724 0.9088 0.0
H805 H 0.7473 0.88461 0.91052 0.0
H806 H 0.71124 0.87013 0.85349 0.0
H807 H 0.67149 0.88257 0.83267 0.0
H808 H 0.5872 0.8193 0.3649 0.0
H809 H 0.59502 0.83698 0.37313 0.0
H810 H 0.66745 0.84006 0.30813 0.0
H811 H 0.66106 0.8223 0.30035 0.0
H812 H 0.69909 0.85005 0.34463 0.0
H813 H 0.53871 0.85928 0.33931 0.0
H814 H 0.54727 0.84978 0.36167 0.0
H815 H 0.55798 0.84741 0.32983 0.0
C816 C 0.60479 0.82375 0.35239 0.0
C817 C 0.62333 0.81945 0.33193 0.0
C818 C 0.60894 0.83386 0.35697 0.0
C819 C 0.6309 0.83988 0.34086 0.0
C820 C 0.65006 0.83556 0.32066 0.0
H821 H 0.60852 0.90359 0.36645 0.0
H822 H 0.60966 0.88773 0.34472 0.0
C823 C 0.64643 0.82542 0.31627 0.0
C824 C 0.63476 0.85062 0.34558 0.0
H825 H 0.58048 0.87113 0.36016 0.0
C826 C 0.67316 0.85471 0.34766 0.0
C827 C 0.60096 0.85677 0.3488 0.0
C828 C 0.55896 0.8531 0.34449 0.0
C829 C 0.67865 0.86464 0.3543 0.0
C830 C 0.64484 0.87052 0.3598 0.0
C831 C 0.60646 0.86659 0.35631 0.0
C832 C 0.64834 0.88047 0.371 0.0
C833 C 0.72062 0.86869 0.35544 0.0
C834 C 0.66997 0.88167 0.39283 0.0
C835 C 0.66986 0.89074 0.40501 0.0
C836 C 0.64726 0.8987 0.39592 0.0
C837 C 0.6261 0.89756 0.37387 0.0
C838 C 0.62676 0.88852 0.36146 0.0
H839 H 0.74036 0.86485 0.34211 0.0
H840 H 0.7214 0.87676 0.35159 0.0
H841 H 0.73305 0.86737 0.37402 0.0
H842 H 0.68575 0.8755 0.401 0.0
H843 H 0.68618 0.89138 0.42208 0.0
H844 H 0.58991 0.33563 0.43067 0.0
H845 H 0.5931 0.35121 0.40808 0.0
H846 H 0.67606 0.33818 0.35688 0.0
H847 H 0.67397 0.3226 0.37988 0.0
H848 H 0.70091 0.35601 0.37243 0.0
H849 H 0.54305 0.3585 0.34343 0.0
H850 H 0.54716 0.35685 0.37594 0.0
H851 H 0.56441 0.34725 0.35563 0.0
C852 C 0.60858 0.33605 0.41448 0.0
C853 C 0.63167 0.32792 0.40699 0.0
C854 C 0.61013 0.34493 0.4015 0.0
C855 C 0.6342 0.34576 0.38056 0.0
C856 C 0.6571 0.33763 0.37292 0.0
H857 H 0.61263 0.39951 0.29348 0.0
H858 H 0.61636 0.38209 0.30538 0.0
C859 C 0.65588 0.32877 0.38605 0.0
C860 C 0.63708 0.35532 0.36759 0.0
H861 H 0.58037 0.37374 0.34297 0.0
C862 C 0.67467 0.35984 0.36563 0.0
C863 C 0.60291 0.36019 0.35833 0.0
C864 C 0.5622 0.35539 0.35819 0.0
C865 C 0.67875 0.36935 0.35567 0.0
C866 C 0.64414 0.37453 0.34816 0.0
C867 C 0.60682 0.36981 0.34907 0.0
C868 C 0.64549 0.38495 0.34008 0.0
C869 C 0.72001 0.37375 0.35336 0.0
C870 C 0.66079 0.39231 0.35565 0.0
C871 C 0.65913 0.40226 0.34877 0.0
C872 C 0.64136 0.40499 0.32647 0.0
C873 C 0.62631 0.39761 0.31085 0.0
C874 C 0.62849 0.38767 0.31758 0.0
H875 H 0.74313 0.36787 0.35194 0.0
H876 H 0.72234 0.37865 0.33706 0.0
H877 H 0.72668 0.3782 0.36996 0.0
H878 H 0.67302 0.39039 0.37341 0.0
H879 H 0.67069 0.40782 0.36119 0.0
H880 H 0.49432 0.57711 0.0879 0.0
H881 H 0.51512 0.59432 0.09533 0.0
H882 H 0.40184 0.60024 0.12994 0.0
H883 H 0.38061 0.58323 0.12212 0.0
H884 H 0.46395 0.61083 0.07542 0.0
H885 H 0.49037 0.61319 0.17546 0.0
H886 H 0.49622 0.60181 0.15827 0.0
H887 H 0.44735 0.60591 0.16742 0.0
C888 C 0.47429 0.58204 0.09759 0.0
C889 C 0.43579 0.5789 0.10437 0.0
C890 C 0.48621 0.59183 0.10178 0.0
C891 C 0.46013 0.59846 0.11338 0.0
C892 C 0.42256 0.59517 0.12128 0.0
H893 H 0.34822 0.64966 0.11893 0.0
H894 H 0.38335 0.63458 0.1069 0.0
C895 C 0.41039 0.58548 0.11669 0.0
C896 C 0.469 0.60914 0.11458 0.0
H897 H 0.46631 0.62812 0.15559 0.0
C898 C 0.466 0.61466 0.09285 0.0
C899 C 0.47208 0.61408 0.13729 0.0
C900 C 0.47708 0.60844 0.16095 0.0
C901 C 0.46127 0.62497 0.09356 0.0
C902 C 0.45957 0.62978 0.1165 0.0
C903 C 0.46736 0.62439 0.13799 0.0
C904 C 0.44134 0.63966 0.11912 0.0
C905 C 0.45498 0.63056 0.06995 0.0
C906 C 0.46257 0.64756 0.12955 0.0
C907 C 0.44256 0.65626 0.13614 0.0
C908 C 0.40097 0.657 0.133 0.0
C909 C 0.38026 0.64925 0.12155 0.0
C910 C 0.40033 0.64068 0.11454 0.0
H911 H 0.46911 0.62667 0.05425 0.0
H912 H 0.42248 0.63113 0.06621 0.0
H913 H 0.46733 0.63819 0.07119 0.0
H914 H 0.49414 0.64683 0.13347 0.0
H915 H 0.45915 0.66212 0.14508 0.0
H916 H 0.31625 0.1535 0.11762 0.0
H917 H 0.31566 0.13558 0.12508 0.0
H918 H 0.43474 0.1333 0.09555 0.0
H919 H 0.43568 0.15113 0.08801 0.0
H920 H 0.37495 0.11961 0.07549 0.0
H921 H 0.38287 0.12001 0.17754 0.0
H922 H 0.34572 0.12772 0.16321 0.0
H923 H 0.39765 0.13052 0.15914 0.0
C924 C 0.34247 0.1492 0.11299 0.0
C925 C 0.37601 0.15371 0.10222 0.0
C926 C 0.34204 0.13898 0.11724 0.0
C927 C 0.37516 0.13318 0.11084 0.0
C928 C 0.40888 0.13769 0.10052 0.0
H929 H 0.45877 0.07577 0.14673 0.0
H930 H 0.44777 0.0932 0.13704 0.0
C931 C 0.4094 0.14787 0.09633 0.0
C932 C 0.37474 0.12235 0.11437 0.0
H933 H 0.38062 0.10442 0.15826 0.0
C934 C 0.3758 0.11625 0.09356 0.0
C935 C 0.37599 0.11808 0.13799 0.0
C936 C 0.37574 0.12438 0.16083 0.0
C937 C 0.37893 0.10593 0.09578 0.0
C938 C 0.38091 0.10168 0.11939 0.0
C939 C 0.37895 0.10776 0.1402 0.0
C940 C 0.38802 0.091 0.12303 0.0
C941 C 0.38159 0.09965 0.07298 0.0
C942 C 0.3582 0.08401 0.11787 0.0
C943 C 0.36439 0.07401 0.12338 0.0
C944 C 0.40041 0.07091 0.13421 0.0
C945 C 0.43066 0.07792 0.13848 0.0
C946 C 0.42443 0.08788 0.13302 0.0
H947 H 0.38461 0.1042 0.05611 0.0
H948 H 0.40748 0.09453 0.07422 0.0
H949 H 0.3542 0.09507 0.07133 0.0
H950 H 0.32979 0.08634 0.11031 0.0
H951 H 0.3405 0.06877 0.11998 0.0
H952 H 0.32161 0.07963 0.56734 0.0
H953 H 0.34719 0.09399 0.5895 0.0
H954 H 0.44597 0.07656 0.61632 0.0
H955 H 0.42016 0.06206 0.59445 0.0
H956 H 0.41077 0.08792 0.65231 0.0
H957 H 0.44358 0.11075 0.57057 0.0
H958 H 0.39321 0.10623 0.57028 0.0
H959 H 0.43413 0.09759 0.56875 0.0
C960 C 0.3488 0.07885 0.57792 0.0
C961 C 0.36903 0.06975 0.57905 0.0
C962 C 0.36353 0.08707 0.59042 0.0
C963 C 0.39894 0.08637 0.60404 0.0
C964 C 0.41881 0.07725 0.60567 0.0
H965 H 0.48652 0.1434 0.65848 0.0
H966 H 0.48836 0.12679 0.6405 0.0
C967 C 0.404 0.06899 0.59321 0.0
C968 C 0.41418 0.09516 0.61715 0.0
H969 H 0.43582 0.11958 0.60868 0.0
C970 C 0.41697 0.09481 0.64279 0.0
C971 C 0.42326 0.10405 0.60464 0.0
C972 C 0.42383 0.10466 0.57702 0.0
C973 C 0.42586 0.10334 0.65638 0.0
C974 C 0.43117 0.11245 0.64394 0.0
C975 C 0.43119 0.11262 0.61823 0.0
C976 C 0.43286 0.12201 0.65707 0.0
C977 C 0.42871 0.10254 0.6839 0.0
C978 C 0.40111 0.1248 0.67234 0.0
C979 C 0.40007 0.13424 0.68268 0.0
C980 C 0.43048 0.14111 0.67763 0.0
C981 C 0.46263 0.13826 0.66265 0.0
C982 C 0.46378 0.12878 0.65243 0.0
H983 H 0.43866 0.09502 0.68955 0.0
H984 H 0.44975 0.10809 0.69156 0.0
H985 H 0.39876 0.10381 0.69201 0.0
H986 H 0.37632 0.11982 0.67558 0.0
H987 H 0.3748 0.13623 0.69404 0.0
H988 H 0.34588 0.66117 0.61019 0.0
H989 H 0.32982 0.64686 0.63594 0.0
H990 H 0.40579 0.62845 0.59117 0.0
H991 H 0.42283 0.64275 0.56581 0.0
H992 H 0.29374 0.62966 0.62361 0.0
H993 H 0.44532 0.62204 0.65924 0.0
H994 H 0.43285 0.63343 0.64367 0.0
H995 H 0.44453 0.62244 0.62639 0.0
C996 C 0.35939 0.65408 0.60597 0.0
C997 C 0.38577 0.65307 0.5861 0.0
C998 C 0.35017 0.64593 0.62066 0.0
C999 C 0.36717 0.63665 0.61569 0.0
C1000 C 0.39319 0.63561 0.5957 0.0
H1001 H 0.28929 0.57804 0.64992 0.0
H1002 H 0.29714 0.5948 0.63359 0.0
C1003 C 0.4027 0.64377 0.58114 0.0
C1004 C 0.35667 0.62795 0.63078 0.0
H1005 H 0.39777 0.60881 0.66271 0.0
C1006 C 0.31638 0.62516 0.63246 0.0
C1007 C 0.38617 0.62222 0.6427 0.0
C1008 C 0.42957 0.62525 0.64315 0.0
C1009 C 0.30499 0.61651 0.64487 0.0
C1010 C 0.33484 0.61041 0.65526 0.0
C1011 C 0.37492 0.61344 0.65448 0.0
C1012 C 0.32576 0.60063 0.66615 0.0
C1013 C 0.26117 0.61401 0.6467 0.0
C1014 C 0.33953 0.59833 0.68976 0.0
C1015 C 0.33584 0.58873 0.69888 0.0
C1016 C 0.31809 0.58128 0.6846 0.0
C1017 C 0.30284 0.58367 0.66136 0.0
C1018 C 0.30704 0.59326 0.6521 0.0
H1019 H 0.24241 0.62079 0.64557 0.0
H1020 H 0.25277 0.60914 0.63116 0.0
H1021 H 0.25425 0.61009 0.66409 0.0
H1022 H 0.35415 0.60391 0.70086 0.0
H1023 H 0.34767 0.5871 0.71692 0.0
H1024 H 0.49066 0.28828 0.46506 0.0
H1025 H 0.4232 0.28427 0.45103 0.0
H1026 H 0.46771 0.28029 0.37747 0.0
H1027 H 0.53516 0.28399 0.39146 0.0
H1028 H 0.38427 0.29557 0.41933 0.0
H1029 H 0.39067 0.25764 0.38164 0.0
H1030 H 0.42925 0.26254 0.40133 0.0
H1031 H 0.42943 0.26523 0.36896 0.0
C1032 C 0.48621 0.28628 0.44603 0.0
C1033 C 0.51813 0.2865 0.42932 0.0
C1034 C 0.44767 0.28399 0.43805 0.0
C1035 C 0.44044 0.28188 0.41325 0.0
C1036 C 0.47264 0.28164 0.3968 0.0
H1037 H 0.25349 0.28862 0.30998 0.0
H1038 H 0.31552 0.28658 0.33319 0.0
C1039 C 0.51121 0.28384 0.4048 0.0
C1040 C 0.39901 0.28134 0.40388 0.0
H1041 H 0.33777 0.26818 0.3659 0.0
C1042 C 0.37379 0.28948 0.4081 0.0
C1043 C 0.3854 0.27339 0.38919 0.0
C1044 C 0.41002 0.26417 0.38524 0.0
C1045 C 0.33616 0.29011 0.39701 0.0
C1046 C 0.32352 0.28241 0.38136 0.0
C1047 C 0.34792 0.27409 0.37782 0.0
C1048 C 0.28599 0.28319 0.36743 0.0
C1049 C 0.31078 0.2992 0.40115 0.0
C1050 C 0.24912 0.28191 0.37914 0.0
C1051 C 0.21366 0.28306 0.36596 0.0
C1052 C 0.21466 0.28554 0.34092 0.0
C1053 C 0.25177 0.28675 0.32927 0.0
C1054 C 0.28717 0.28554 0.34243 0.0
H1055 H 0.32646 0.30491 0.4122 0.0
H1056 H 0.30201 0.3025 0.3833 0.0
H1057 H 0.28299 0.29705 0.41089 0.0
H1058 H 0.24783 0.28008 0.39847 0.0
H1059 H 0.18551 0.28205 0.37542 0.0
H1060 H 0.02896 0.95812 0.335 0.0
H1061 H 0.96288 0.96277 0.34997 0.0
H1062 H 0.99427 0.95224 0.42216 0.0
H1063 H 0.06099 0.94794 0.40745 0.0
H1064 H 0.91633 0.94818 0.36405 0.0
H1065 H 0.92371 0.97529 0.43974 0.0
H1066 H 0.96474 0.97335 0.41878 0.0
H1067 H 0.9575 0.96516 0.44448 0.0
C1068 C 0.02219 0.95713 0.35427 0.0
C1069 C 0.04978 0.95257 0.37004 0.0
C1070 C 0.9845 0.95982 0.36281 0.0
C1071 C 0.97357 0.95787 0.38718 0.0
C1072 C 0.00222 0.95402 0.40343 0.0
H1073 H 0.76951 0.93783 0.46167 0.0
H1074 H 0.83354 0.94521 0.45039 0.0
C1075 C 0.04028 0.95149 0.39496 0.0
C1076 C 0.93078 0.95791 0.39407 0.0
H1077 H 0.86494 0.96473 0.43878 0.0
C1078 C 0.9049 0.95201 0.38005 0.0
C1079 C 0.91601 0.9628 0.41511 0.0
C1080 C 0.94192 0.96959 0.43024 0.0
C1081 C 0.86526 0.95046 0.3871 0.0
C1082 C 0.8508 0.95508 0.40859 0.0
C1083 C 0.87616 0.96125 0.42225 0.0
C1084 C 0.81072 0.95266 0.41819 0.0
C1085 C 0.8399 0.94341 0.37223 0.0
C1086 C 0.77642 0.95479 0.40439 0.0
C1087 C 0.73987 0.95048 0.4106 0.0
C1088 C 0.73711 0.94406 0.43084 0.0
C1089 C 0.77079 0.94267 0.44584 0.0
C1090 C 0.80735 0.94692 0.43952 0.0
H1091 H 0.8579 0.93908 0.3589 0.0
H1092 H 0.82385 0.93814 0.38439 0.0
H1093 H 0.81731 0.9477 0.36179 0.0
H1094 H 0.77844 0.95932 0.38803 0.0
H1095 H 0.71431 0.9518 0.39887 0.0
H1096 H 0.55274 0.92837 0.87053 0.0
H1097 H 0.49074 0.92936 0.89426 0.0
H1098 H 0.43277 0.91003 0.84237 0.0
H1099 H 0.49454 0.90891 0.81872 0.0
H1100 H 0.41564 0.93606 0.87906 0.0
H1101 H 0.40963 0.89677 0.90858 0.0
H1102 H 0.45428 0.90239 0.89626 0.0
H1103 H 0.41522 0.89827 0.87606 0.0
C1104 C 0.52681 0.92431 0.86422 0.0
C1105 C 0.52856 0.91853 0.84282 0.0
C1106 C 0.49147 0.92488 0.87779 0.0
C1107 C 0.45745 0.91963 0.87027 0.0
C1108 C 0.45897 0.91396 0.84876 0.0
H1109 H 0.20955 0.9282 0.90271 0.0
H1110 H 0.27673 0.92761 0.88541 0.0
C1111 C 0.49423 0.91339 0.83519 0.0
C1112 C 0.4199 0.92029 0.88445 0.0
H1113 H 0.34996 0.90624 0.91385 0.0
C1114 C 0.40142 0.92956 0.88688 0.0
C1115 C 0.40178 0.91182 0.89494 0.0
C1116 C 0.42141 0.90176 0.89407 0.0
C1117 C 0.36446 0.93054 0.89873 0.0
C1118 C 0.34532 0.92198 0.90803 0.0
C1119 C 0.36453 0.91276 0.90645 0.0
C1120 C 0.30477 0.92238 0.91874 0.0
C1121 C 0.34621 0.94071 0.90115 0.0
C1122 C 0.29812 0.91937 0.94302 0.0
C1123 C 0.25963 0.91963 0.95295 0.0
C1124 C 0.22717 0.92284 0.93866 0.0
C1125 C 0.23394 0.92574 0.91424 0.0
C1126 C 0.27236 0.92547 0.90437 0.0
H1127 H 0.36914 0.94663 0.89961 0.0
H1128 H 0.32416 0.94183 0.88622 0.0
H1129 H 0.33048 0.94153 0.91895 0.0
H1130 H 0.32276 0.91688 0.95433 0.0
H1131 H 0.25534 0.91733 0.9718 0.0
H1132 H 0.69711 0.2829 0.86603 0.0
H1133 H 0.764 0.27947 0.88239 0.0
H1134 H 0.81682 0.29151 0.81675 0.0
H1135 H 0.75043 0.29502 0.80033 0.0
H1136 H 0.85259 0.27217 0.84046 0.0
H1137 H 0.83423 0.30551 0.8998 0.0
H1138 H 0.79478 0.29644 0.89895 0.0
H1139 H 0.805 0.3038 0.87232 0.0
C1140 C 0.72297 0.28464 0.85492 0.0
C1141 C 0.71863 0.28934 0.83205 0.0
C1142 C 0.76104 0.28267 0.86425 0.0
C1143 C 0.79506 0.28529 0.85073 0.0
C1144 C 0.79077 0.28943 0.82735 0.0
H1145 H 0.04937 0.29046 0.86312 0.0
H1146 H 0.98089 0.28714 0.84975 0.0
C1147 C 0.75286 0.29147 0.81809 0.0
C1148 C 0.83507 0.28482 0.86187 0.0
H1149 H 0.89666 0.29777 0.89981 0.0
C1150 C 0.86228 0.27766 0.85368 0.0
C1151 C 0.84728 0.29202 0.87906 0.0
C1152 C 0.81903 0.29993 0.88809 0.0
C1153 C 0.9019 0.27759 0.86212 0.0
C1154 C 0.91461 0.28506 0.87858 0.0
C1155 C 0.88691 0.29205 0.88719 0.0
C1156 C 0.9567 0.28611 0.8865 0.0
C1157 C 0.92956 0.26951 0.85342 0.0
C1158 C 0.96574 0.28684 0.91155 0.0
C1159 C 0.00452 0.28899 0.91917 0.0
C1160 C 0.03512 0.29037 0.90188 0.0
C1161 C 0.02636 0.28938 0.87683 0.0
C1162 C 0.98734 0.28738 0.86919 0.0
H1163 H 0.91266 0.26276 0.84809 0.0
H1164 H 0.94603 0.27214 0.83702 0.0
H1165 H 0.9516 0.26747 0.86777 0.0
H1166 H 0.94255 0.28594 0.92522 0.0
H1167 H 0.01046 0.28962 0.93862 0.0
H1168 H 0.85859 0.6896 0.6224 0.0
H1169 H 0.79786 0.69358 0.59943 0.0
H1170 H 0.72861 0.69143 0.66583 0.0
H1171 H 0.78904 0.68738 0.68894 0.0
H1172 H 0.73219 0.67932 0.6001 0.0
H1173 H 0.68555 0.7169 0.62999 0.0
H1174 H 0.7366 0.71261 0.63206 0.0
H1175 H 0.70025 0.70855 0.65407 0.0
C1176 C 0.83059 0.6902 0.63223 0.0
C1177 C 0.82853 0.68811 0.65746 0.0
C1178 C 0.79597 0.69248 0.61907 0.0
C1179 C 0.75892 0.69288 0.63099 0.0
C1180 C 0.75707 0.69131 0.65638 0.0
H1181 H 0.50997 0.69154 0.60092 0.0
H1182 H 0.57714 0.69438 0.61681 0.0
C1183 C 0.79158 0.68894 0.66952 0.0
C1184 C 0.72164 0.69354 0.61658 0.0
H1185 H 0.63703 0.70726 0.60873 0.0
C1186 C 0.71157 0.68549 0.60162 0.0
C1187 C 0.69486 0.70156 0.61892 0.0
C1188 C 0.70483 0.71045 0.63448 0.0
C1189 C 0.6745 0.685 0.58976 0.0
C1190 C 0.6473 0.69297 0.59228 0.0
C1191 C 0.65796 0.70119 0.6067 0.0
C1192 C 0.60649 0.69251 0.58176 0.0
C1193 C 0.66407 0.67568 0.57584 0.0
C1194 C 0.60048 0.69087 0.5566 0.0
C1195 C 0.56211 0.68906 0.54753 0.0
C1196 C 0.52906 0.68909 0.5634 0.0
C1197 C 0.53487 0.69143 0.58825 0.0
C1198 C 0.57325 0.69307 0.59736 0.0
H1199 H 0.68384 0.66939 0.58091 0.0
H1200 H 0.63265 0.67344 0.57929 0.0
H1201 H 0.66771 0.67704 0.5559 0.0
H1202 H 0.62558 0.6907 0.54411 0.0
H1203 H 0.55845 0.68741 0.52824 0.0
H1204 H 0.8767 0.03474 0.60629 0.0
H1205 H 0.93963 0.03137 0.58503 0.0
H1206 H 0.00158 0.03081 0.6543 0.0
H1207 H 0.93895 0.03421 0.67571 0.0
H1208 H 0.0048 0.04518 0.5908 0.0
H1209 H 0.04848 0.00677 0.61563 0.0
H1210 H -0.00257 0.0111 0.61706 0.0
H1211 H 0.03223 0.01439 0.64074 0.0
C1212 C 0.90355 0.03367 0.61704 0.0
C1213 C 0.90296 0.03481 0.64266 0.0
C1214 C 0.93942 0.03174 0.60487 0.0
C1215 C 0.97508 0.03076 0.61813 0.0
C1216 C 0.97423 0.03137 0.64378 0.0
H1217 H 0.22721 0.03256 0.59513 0.0
H1218 H 0.15902 0.02974 0.6095 0.0
C1219 C 0.93846 0.03338 0.65596 0.0
C1220 C 0.0138 0.0305 0.60517 0.0
H1221 H 0.09909 0.01698 0.59806 0.0
C1222 C 0.02526 0.03896 0.59202 0.0
C1223 C 0.0404 0.02242 0.60716 0.0
C1224 C 0.02903 0.01311 0.62075 0.0
C1225 C 0.06334 0.03975 0.58157 0.0
C1226 C 0.09023 0.0317 0.58367 0.0
C1227 C 0.07837 0.02312 0.59636 0.0
C1228 C 0.13159 0.03233 0.57415 0.0
C1229 C 0.07501 0.04941 0.56952 0.0
C1230 C 0.1389 0.03442 0.54933 0.0
C1231 C 0.17777 0.03621 0.54116 0.0
C1232 C 0.21005 0.03572 0.55757 0.0
C1233 C 0.2029 0.03303 0.58207 0.0
C1234 C 0.16398 0.03139 0.5903 0.0
H1235 H 0.05504 0.05558 0.57508 0.0
H1236 H 0.10621 0.05147 0.57415 0.0
H1237 H 0.07276 0.04861 0.54933 0.0
H1238 H 0.11443 0.03491 0.53641 0.0
H1239 H 0.18247 0.03813 0.52209 0.0
H1240 H 0.49774 0.02319 0.11484 0.0
H1241 H 0.56304 0.01645 0.10426 0.0
H1242 H 0.59799 0.01753 0.18035 0.0
H1243 H 0.53308 0.02461 0.19094 0.0
H1244 H 0.64689 0.02774 0.15295 0.0
H1245 H 0.62692 -0.00859 0.10857 0.0
H1246 H 0.59435 0.00042 0.09507 0.0
H1247 H 0.5882 -0.00291 0.12686 0.0
C1248 C 0.51896 0.02176 0.12941 0.0
C1249 C 0.51056 0.02456 0.15366 0.0
C1250 C 0.55618 0.01778 0.12337 0.0
C1251 C 0.58535 0.01636 0.14155 0.0
C1252 C 0.57589 0.01851 0.16605 0.0
H1253 H 0.84047 0.02004 0.10851 0.0
H1254 H 0.78253 0.01341 0.13044 0.0
C1255 C 0.53887 0.0226 0.17205 0.0
C1256 C 0.62739 0.01453 0.13437 0.0
H1257 H 0.68582 0.00087 0.09581 0.0
C1258 C 0.65573 0.02169 0.14106 0.0
C1259 C 0.63885 0.00666 0.11877 0.0
C1260 C 0.61047 -0.00159 0.11214 0.0
C1261 C 0.69421 0.02167 0.13108 0.0
C1262 C 0.70499 0.01414 0.11429 0.0
C1263 C 0.67749 0.00661 0.10873 0.0
C1264 C 0.74211 0.01497 0.09974 0.0
C1265 C 0.72185 0.03018 0.13714 0.0
C1266 C 0.73921 0.01722 0.07471 0.0
C1267 C 0.77226 0.02089 0.06207 0.0
C1268 C 0.80864 0.02242 0.07436 0.0
C1269 C 0.81265 0.01908 0.09866 0.0
C1270 C 0.77958 0.01531 0.11123 0.0
H1271 H 0.70643 0.03619 0.14732 0.0
H1272 H 0.74675 0.02745 0.14873 0.0
H1273 H 0.73481 0.03339 0.12016 0.0
H1274 H 0.71058 0.01695 0.06546 0.0
H1275 H 0.76832 0.02328 0.04327 0.0
H1276 H 0.89823 0.70173 0.10855 0.0
H1277 H 0.96245 0.70487 0.12846 0.0
H1278 H 0.02211 0.7025 0.05871 0.0
H1279 H 0.95819 0.69925 0.03868 0.0
H1280 H 0.01973 0.68827 0.12026 0.0
H1281 H 0.08298 0.72527 0.09769 0.0
H1282 H 0.02981 0.72292 0.09868 0.0
H1283 H 0.05886 0.71862 0.07321 0.0
C1284 C 0.92478 0.70227 0.09729 0.0
C1285 C 0.92329 0.70011 0.0721 0.0
C1286 C 0.96144 0.70407 0.10871 0.0
C1287 C -0.00311 0.70393 0.09502 0.0
C1288 C 0.99499 0.70276 0.06952 0.0
H1289 H 0.24776 0.69453 0.11648 0.0
H1290 H 0.1814 0.69961 0.1024 0.0
C1291 C 0.95845 0.70085 0.05813 0.0
C1292 C 0.03569 0.70284 0.10759 0.0
H1293 H 0.1274 0.71342 0.11499 0.0
C1294 C 0.04315 0.69382 0.1195 0.0
C1295 C 0.06618 0.71002 0.10599 0.0
C1296 C 0.05923 0.7198 0.09334 0.0
C1297 C 0.08083 0.69162 0.1292 0.0
C1298 C 0.11153 0.69882 0.12779 0.0
C1299 C 0.1038 0.70794 0.11623 0.0
C1300 C 0.15228 0.69676 0.13714 0.0
C1301 C 0.08778 0.6814 0.13966 0.0
C1302 C 0.15817 0.69375 0.16152 0.0
C1303 C 0.19578 0.69062 0.16939 0.0
C1304 C 0.2284 0.69073 0.15323 0.0
C1305 C 0.22305 0.69433 0.12928 0.0
C1306 C 0.18521 0.69726 0.12126 0.0
H1307 H 0.06521 0.67599 0.13299 0.0
H1308 H 0.11789 0.67858 0.13479 0.0
H1309 H 0.0854 0.6817 0.15992 0.0
H1310 H 0.13346 0.6936 0.17431 0.0
H1311 H 0.19926 0.68805 0.18809 0.0
H1312 H 0.55835 0.80677 0.86659 0.0
H1313 H 0.49367 0.8082 0.84598 0.0
H1314 H 0.43458 0.80928 0.91619 0.0
H1315 H 0.4991 0.80814 0.93689 0.0
H1316 H 0.43036 0.79586 0.84768 0.0
H1317 H 0.38535 0.8328 0.88224 0.0
H1318 H 0.43558 0.82813 0.88539 0.0
H1319 H 0.39719 0.82431 0.90647 0.0
C1320 C 0.53159 0.80741 0.87763 0.0
C1321 C 0.53382 0.80741 0.90336 0.0
C1322 C 0.49467 0.80821 0.86583 0.0
C1323 C 0.45935 0.80902 0.87954 0.0
C1324 C 0.4615 0.80894 0.90523 0.0
H1325 H 0.20762 0.80558 0.84753 0.0
H1326 H 0.27435 0.80535 0.86589 0.0
C1327 C 0.49841 0.80822 0.91704 0.0
C1328 C 0.42013 0.80955 0.86698 0.0
H1329 H 0.33432 0.82316 0.86302 0.0
C1330 C 0.40954 0.80188 0.85085 0.0
C1331 C 0.39301 0.81743 0.8711 0.0
C1332 C 0.40348 0.82618 0.88705 0.0
C1333 C 0.37217 0.80175 0.83922 0.0
C1334 C 0.34484 0.80949 0.84384 0.0
C1335 C 0.35544 0.81721 0.8597 0.0
C1336 C 0.30478 0.80961 0.83256 0.0
C1337 C 0.36164 0.79327 0.82244 0.0
C1338 C 0.30005 0.81214 0.8078 0.0
C1339 C 0.26198 0.81235 0.79728 0.0
C1340 C 0.22813 0.80997 0.81137 0.0
C1341 C 0.23311 0.80742 0.83618 0.0
C1342 C 0.27113 0.8073 0.84671 0.0
H1343 H 0.38444 0.78729 0.82286 0.0
H1344 H 0.33225 0.79009 0.82767 0.0
H1345 H 0.35907 0.79605 0.80335 0.0
H1346 H 0.32579 0.814 0.79668 0.0
H1347 H 0.2591 0.81434 0.77812 0.0
H1348 H 0.75059 0.44013 0.94077 0.0
H1349 H 0.81784 0.4434 0.92548 0.0
H1350 H 0.77835 0.43715 0.85179 0.0
H1351 H 0.71057 0.43426 0.86691 0.0
H1352 H 0.86311 0.42995 0.9053 0.0
H1353 H 0.84753 0.46079 0.83926 0.0
H1354 H 0.80863 0.45762 0.8608 0.0
H1355 H 0.81357 0.4509 0.83243 0.0
C1356 C 0.75608 0.43965 0.92124 0.0
C1357 C 0.72545 0.43689 0.90501 0.0
C1358 C 0.79449 0.44154 0.91253 0.0
C1359 C 0.80314 0.44063 0.88746 0.0
C1360 C 0.77225 0.43817 0.87111 0.0
H1361 H 0.00472 0.42594 0.80184 0.0
H1362 H 0.93958 0.43047 0.81855 0.0
C1363 C 0.73358 0.43643 0.87979 0.0
C1364 C 0.84518 0.44101 0.87897 0.0
H1365 H 0.90662 0.45061 0.83496 0.0
C1366 C 0.87277 0.43463 0.89025 0.0
C1367 C 0.85781 0.4471 0.8593 0.0
C1368 C 0.83038 0.45456 0.84744 0.0
C1369 C 0.91208 0.43384 0.88172 0.0
C1370 C 0.92414 0.4396 0.86142 0.0
C1371 C 0.89709 0.44621 0.85054 0.0
C1372 C 0.96366 0.43812 0.85005 0.0
C1373 C 0.94002 0.42652 0.89375 0.0
C1374 C -0.00134 0.44114 0.86205 0.0
C1375 C 0.03604 0.43857 0.85254 0.0
C1376 C 0.03879 0.43289 0.831 0.0
C1377 C 0.00359 0.43024 0.81857 0.0
C1378 C 0.96635 0.43287 0.82799 0.0
H1379 H 0.92461 0.42182 0.90754 0.0
H1380 H 0.9538 0.42164 0.87973 0.0
H1381 H 0.96445 0.4306 0.90308 0.0
H1382 H -0.003 0.44522 0.8791 0.0
H1383 H 0.06266 0.44074 0.86245 0.0
H1384 H 0.52462 0.44233 0.37067 0.0
H1385 H 0.45573 0.4436 0.38495 0.0
H1386 H 0.41599 0.44856 0.31073 0.0
H1387 H 0.48484 0.44698 0.29615 0.0
H1388 H 0.39528 0.45747 0.38227 0.0
H1389 H 0.35685 0.42346 0.32966 0.0
H1390 H 0.40763 0.42759 0.33362 0.0
H1391 H 0.37572 0.43354 0.31156 0.0
C1392 C 0.50131 0.44381 0.3574 0.0
C1393 C 0.51 0.44438 0.33224 0.0
C1394 C 0.46196 0.44457 0.36561 0.0
C1395 C 0.43072 0.44595 0.34883 0.0
C1396 C 0.43962 0.44724 0.32389 0.0
H1397 H 0.17656 0.43656 0.37709 0.0
H1398 H 0.23811 0.44277 0.35835 0.0
C1399 C 0.47895 0.44638 0.31561 0.0
C1400 C 0.38888 0.44519 0.35735 0.0
H1401 H 0.30597 0.43058 0.35329 0.0
C1402 C 0.37557 0.45166 0.37578 0.0
C1403 C 0.36333 0.43757 0.3489 0.0
C1404 C 0.37658 0.43008 0.33001 0.0
C1405 C 0.33756 0.45057 0.38631 0.0
C1406 C 0.31255 0.4428 0.37828 0.0
C1407 C 0.32527 0.43657 0.35927 0.0
C1408 C 0.27446 0.44039 0.39059 0.0
C1409 C 0.32464 0.45767 0.40611 0.0
C1410 C 0.27462 0.43705 0.41495 0.0
C1411 C 0.23965 0.43344 0.42565 0.0
C1412 C 0.20395 0.43308 0.41212 0.0
C1413 C 0.20361 0.43674 0.38798 0.0
C1414 C 0.23866 0.44031 0.37726 0.0
H1415 H 0.3418 0.46471 0.40533 0.0
H1416 H 0.29229 0.45938 0.40461 0.0
H1417 H 0.33002 0.45422 0.42429 0.0
H1418 H 0.30215 0.43686 0.42537 0.0
H1419 H 0.24086 0.43067 0.44428 0.0
H1420 H 0.70193 0.77732 0.3755 0.0
H1421 H 0.77048 0.77294 0.38613 0.0
H1422 H 0.78796 0.76072 0.31389 0.0
H1423 H 0.71974 0.76546 0.30276 0.0
H1424 H 0.82115 0.75678 0.38667 0.0
H1425 H 0.86478 0.78384 0.31421 0.0
H1426 H 0.81375 0.78232 0.3239 0.0
H1427 H 0.83648 0.77335 0.30394 0.0
C1428 C 0.72003 0.77349 0.36205 0.0
C1429 C 0.70586 0.77193 0.33812 0.0
C1430 C 0.7592 0.77097 0.36817 0.0
C1431 C 0.78461 0.76676 0.35057 0.0
C1432 C 0.76913 0.76422 0.32751 0.0
H1433 H 0.04369 0.77426 0.36209 0.0
H1434 H 0.98125 0.76635 0.34918 0.0
C1435 C 0.73014 0.76689 0.32123 0.0
C1436 C 0.82809 0.7664 0.35542 0.0
H1437 H 0.91527 0.77775 0.33932 0.0
C1438 C 0.84193 0.76122 0.37608 0.0
C1439 C 0.85516 0.77221 0.34156 0.0
C1440 C 0.84192 0.77831 0.31978 0.0
C1441 C 0.88175 0.76206 0.38387 0.0
C1442 C 0.90811 0.76829 0.37076 0.0
C1443 C 0.89495 0.77295 0.34926 0.0
C1444 C 0.9474 0.77131 0.38064 0.0
C1445 C 0.89494 0.75652 0.40647 0.0
C1446 C 0.94907 0.77662 0.4027 0.0
C1447 C 0.98445 0.7812 0.40999 0.0
C1448 C 0.01882 0.78059 0.39529 0.0
C1449 C 0.01766 0.77488 0.37377 0.0
C1450 C 0.98211 0.77032 0.36642 0.0
H1451 H 0.87683 0.74971 0.40925 0.0
H1452 H 0.92696 0.75443 0.40536 0.0
H1453 H 0.89072 0.76132 0.42277 0.0
H1454 H 0.92243 0.77769 0.41364 0.0
H1455 H 0.98442 0.78553 0.4267 0.0
H1456 H 0.72587 0.19459 0.20689 0.0
H1457 H 0.66552 0.20218 0.19033 0.0
H1458 H 0.73221 0.21298 0.1282 0.0
H1459 H 0.79272 0.20516 0.14432 0.0
H1460 H 0.63681 0.22068 0.17145 0.0
H1461 H 0.65757 0.19186 0.09939 0.0
H1462 H 0.68736 0.1921 0.12687 0.0
H1463 H 0.69705 0.20076 0.10255 0.0
C1464 C 0.72803 0.19881 0.19004 0.0
C1465 C 0.76379 0.19906 0.17657 0.0
C1466 C 0.69349 0.20319 0.18066 0.0
C1467 C 0.69428 0.20793 0.15778 0.0
C1468 C 0.73092 0.20918 0.14569 0.0
H1469 H 0.48434 0.2067 0.06496 0.0
H1470 H 0.54815 0.2131 0.0798 0.0
C1471 C 0.76544 0.20472 0.15493 0.0
C1472 C 0.65612 0.20987 0.14497 0.0
H1473 H 0.59752 0.20042 0.09959 0.0
C1474 C 0.62834 0.21641 0.15544 0.0
C1475 C 0.64516 0.20424 0.12414 0.0
C1476 C 0.67311 0.19679 0.11261 0.0
C1477 C 0.58936 0.21722 0.14607 0.0
C1478 C 0.57788 0.21121 0.12604 0.0
C1479 C 0.60637 0.20508 0.11485 0.0
C1480 C 0.53579 0.21009 0.11804 0.0
C1481 C 0.56075 0.22437 0.15797 0.0
C1482 C 0.50689 0.20667 0.13468 0.0
C1483 C 0.47019 0.2031 0.12625 0.0
C1484 C 0.46218 0.20272 0.101 0.0
C1485 C 0.48988 0.20683 0.08452 0.0
C1486 C 0.52629 0.21052 0.09299 0.0
H1487 H 0.57693 0.23081 0.1659 0.0
H1488 H 0.53817 0.22714 0.14472 0.0
H1489 H 0.54499 0.22056 0.17318 0.0
H1490 H 0.51378 0.20602 0.15401 0.0
H1491 H 0.44946 0.19995 0.13936 0.0
H1492 H 0.25354 0.54006 0.07372 0.0
H1493 H 0.19284 0.53413 0.09356 0.0
H1494 H 0.2601 0.52678 0.15848 0.0
H1495 H 0.32147 0.53275 0.13867 0.0
H1496 H 0.17073 0.51527 0.11888 0.0
H1497 H 0.17739 0.54878 0.17861 0.0
H1498 H 0.20684 0.54783 0.15103 0.0
H1499 H 0.22009 0.5407 0.17757 0.0
C1500 C 0.25563 0.53706 0.0921 0.0
C1501 C 0.29215 0.53701 0.10479 0.0
C1502 C 0.22095 0.53361 0.10332 0.0
C1503 C 0.22206 0.53009 0.12748 0.0
C1504 C 0.25876 0.52951 0.13982 0.0
H1505 H -0.00036 0.53439 0.20872 0.0
H1506 H 0.06796 0.52884 0.20101 0.0
C1507 C 0.29369 0.53293 0.1285 0.0
C1508 C 0.18393 0.52826 0.14028 0.0
H1509 H 0.11792 0.53988 0.178 0.0
C1510 C 0.15933 0.5205 0.13225 0.0
C1511 C 0.16938 0.53507 0.15778 0.0
C1512 C 0.19454 0.54361 0.16679 0.0
C1513 C 0.11971 0.51965 0.14043 0.0
C1514 C 0.10417 0.52693 0.15646 0.0
C1515 C 0.12972 0.53429 0.16569 0.0
C1516 C 0.06085 0.52792 0.16163 0.0
C1517 C 0.09479 0.51109 0.13138 0.0
C1518 C 0.03367 0.52894 0.14215 0.0
C1519 C 0.99444 0.53197 0.14657 0.0
C1520 C 0.98203 0.53427 0.17047 0.0
C1521 C 0.00854 0.53274 0.19008 0.0
C1522 C 0.04754 0.52954 0.1857 0.0
H1523 H 0.11363 0.50444 0.12824 0.0
H1524 H 0.07072 0.50916 0.14454 0.0
H1525 H 0.081 0.51312 0.11357 0.0
H1526 H 0.04337 0.52803 0.12336 0.0
H1527 H 0.9747 0.53314 0.1311 0.0
H1528 H 0.76959 0.53246 0.60993 0.0
H1529 H 0.70733 0.52942 0.63229 0.0
H1530 H 0.63995 0.5412 0.57154 0.0
H1531 H 0.70191 0.54431 0.54912 0.0
H1532 H 0.65329 0.5456 0.64314 0.0
H1533 H 0.57951 0.51531 0.59143 0.0
H1534 H 0.63272 0.51753 0.59016 0.0
H1535 H 0.59908 0.52517 0.57278 0.0
C1536 C 0.74147 0.53423 0.60115 0.0
C1537 C 0.74061 0.53867 0.57782 0.0
C1538 C 0.706 0.53249 0.61394 0.0
C1539 C 0.66915 0.535 0.60344 0.0
C1540 C 0.66811 0.53906 0.57978 0.0
H1541 H 0.42579 0.54464 0.63734 0.0
H1542 H 0.49116 0.54105 0.61972 0.0
C1543 C 0.70354 0.54089 0.56707 0.0
C1544 C 0.63212 0.53448 0.6181 0.0
H1545 H 0.53821 0.5247 0.61855 0.0
C1546 C 0.62827 0.54092 0.6381 0.0
C1547 C 0.5997 0.52839 0.61129 0.0
C1548 C 0.6029 0.52114 0.59036 0.0
C1549 C 0.59197 0.54185 0.6507 0.0
C1550 C 0.55903 0.53596 0.64348 0.0
C1551 C 0.56348 0.52921 0.62406 0.0
C1552 C 0.51887 0.53732 0.65437 0.0
C1553 C 0.58868 0.54956 0.67065 0.0
C1554 C 0.51248 0.5362 0.67966 0.0
C1555 C 0.47521 0.5384 0.68987 0.0
C1556 C 0.44357 0.54158 0.67485 0.0
C1557 C 0.44961 0.54225 0.64941 0.0
C1558 C 0.48693 0.54017 0.6393 0.0
H1559 H 0.61362 0.55498 0.66995 0.0
H1560 H 0.56006 0.55368 0.66924 0.0
H1561 H 0.58965 0.54585 0.68879 0.0
H1562 H 0.53646 0.53378 0.69155 0.0
H1563 H 0.47127 0.5377 0.7095 0.0
H1564 H 0.04316 0.17823 0.55217 0.0
H1565 H 0.10623 0.18173 0.57304 0.0
H1566 H 0.04291 0.19762 0.62945 0.0
H1567 H 0.9795 0.1942 0.60866 0.0
H1568 H 0.14154 0.2016 0.5932 0.0
H1569 H 0.10188 0.17232 0.66126 0.0
H1570 H 0.07891 0.1728 0.63134 0.0
H1571 H 0.06563 0.18176 0.65416 0.0
C1572 C 0.04266 0.18261 0.56879 0.0
C1573 C 0.00636 0.18585 0.57894 0.0
C1574 C 0.0787 0.18464 0.5806 0.0
C1575 C 0.07898 0.18988 0.60276 0.0
C1576 C 0.04309 0.19355 0.61234 0.0
H1577 H 0.27797 0.18582 0.70544 0.0
H1578 H 0.21385 0.19079 0.68781 0.0
C1579 C 0.00699 0.19158 0.60046 0.0
C1580 C 0.11632 0.19051 0.61697 0.0
H1581 H 0.16606 0.17905 0.66348 0.0
C1582 C 0.1469 0.19679 0.60879 0.0
C1583 C 0.12284 0.18427 0.63736 0.0
C1584 C 0.09078 0.17735 0.64664 0.0
C1585 C 0.18449 0.19679 0.6202 0.0
C1586 C 0.19178 0.19012 0.63975 0.0
C1587 C 0.16051 0.18416 0.6485 0.0
C1588 C 0.23215 0.18854 0.65016 0.0
C1589 C 0.21594 0.2039 0.61112 0.0
C1590 C 0.26387 0.18571 0.63486 0.0
C1591 C 0.30061 0.18296 0.64487 0.0
C1592 C 0.30604 0.1828 0.6704 0.0
C1593 C 0.27458 0.18583 0.68569 0.0
C1594 C 0.23798 0.1887 0.67565 0.0
H1595 H 0.20213 0.21067 0.60318 0.0
H1596 H 0.2366 0.20614 0.62604 0.0
H1597 H 0.23355 0.20028 0.59641 0.0
H1598 H 0.25978 0.18522 0.61521 0.0
H1599 H 0.32424 0.1806 0.63263 0.0
H1600 H 0.03006 0.17735 0.2064 0.0
H1601 H 0.07236 0.18985 0.22618 0.0
H1602 H 0.99417 0.21291 0.19983 0.0
H1603 H 0.95187 0.20054 0.18022 0.0
H1604 H 0.08069 0.2178 0.20271 0.0
H1605 H 0.01307 0.20197 0.28771 0.0
H1606 H 0.0403 0.19399 0.26722 0.0
H1607 H 0.99318 0.19905 0.25785 0.0
C1608 C 0.02283 0.18512 0.20403 0.0
C1609 C 0.98738 0.18801 0.19218 0.0
C1610 C 0.04691 0.19222 0.21542 0.0
C1611 C 0.03586 0.20223 0.21474 0.0
C1612 C 0.00303 0.20519 0.20057 0.0
H1613 H 0.99038 0.25333 0.28459 0.0
H1614 H -0.00293 0.23631 0.26998 0.0
C1615 C 0.97883 0.19812 0.18945 0.0
C1616 C 0.05322 0.2095 0.23181 0.0
H1617 H 0.03813 0.21811 0.28985 0.0
C1618 C 0.07283 0.21776 0.222 0.0
C1619 C 0.04241 0.20938 0.25689 0.0
C1620 C 0.02099 0.20066 0.26821 0.0
C1621 C 0.079 0.22628 0.23617 0.0
C1622 C 0.0652 0.22644 0.26067 0.0
C1623 C 0.04861 0.21789 0.27105 0.0
C1624 C 0.06133 0.23586 0.27405 0.0
C1625 C 0.09699 0.23535 0.22428 0.0
C1626 C 0.0951 0.24099 0.28219 0.0
C1627 C 0.09139 0.2507 0.29061 0.0
C1628 C 0.05383 0.25542 0.29083 0.0
C1629 C 0.01971 0.24994 0.28449 0.0
C1630 C 0.02348 0.24022 0.27617 0.0
H1631 H 0.10388 0.23415 0.20458 0.0
H1632 H 0.07617 0.24172 0.22589 0.0
H1633 H 0.12505 0.23737 0.23387 0.0
H1634 H 0.12447 0.23766 0.28088 0.0
H1635 H 0.11827 0.25469 0.29559 0.0
H1636 H 0.30364 0.95114 0.29338 0.0
H1637 H 0.31677 0.96573 0.2681 0.0
H1638 H 0.22016 0.98122 0.30361 0.0
H1639 H 0.20726 0.96679 0.32923 0.0
H1640 H 0.25727 0.97208 0.23614 0.0
H1641 H 0.30447 0.00275 0.29728 0.0
H1642 H 0.30682 -0.0101 0.30646 0.0
H1643 H 0.26016 -0.00352 0.30741 0.0
C1644 C 0.28619 0.95778 0.29651 0.0
C1645 C 0.25402 0.95776 0.31307 0.0
C1646 C 0.29358 0.96608 0.28192 0.0
C1647 C 0.26927 0.97451 0.28391 0.0
C1648 C 0.23954 0.97483 0.30196 0.0
H1649 H 0.24349 0.02822 0.19816 0.0
H1650 H 0.22573 0.01365 0.22261 0.0
C1651 C 0.23214 0.96654 0.31655 0.0
C1652 C 0.27124 0.98237 0.2651 0.0
H1653 H 0.28401 0.00721 0.25696 0.0
C1654 C 0.2634 0.97975 0.24064 0.0
C1655 C 0.27859 -0.00762 0.27113 0.0
C1656 C 0.28834 -0.00444 0.29696 0.0
C1657 C 0.26264 0.98691 0.22201 0.0
C1658 C 0.27024 -0.0031 0.22803 0.0
C1659 C 0.27769 -0.00046 0.2525 0.0
C1660 C 0.27441 0.00464 0.20909 0.0
C1661 C 0.25341 0.98375 0.1961 0.0
C1662 C 0.30642 0.00418 0.1926 0.0
C1663 C 0.31661 0.01246 0.17866 0.0
C1664 C 0.295 0.02134 0.1811 0.0
C1665 C 0.26054 0.02146 0.1958 0.0
C1666 C 0.25054 0.01318 0.20991 0.0
H1667 H 0.23732 0.97655 0.19564 0.0
H1668 H 0.23511 -0.01058 0.18652 0.0
H1669 H 0.2818 0.98285 0.18585 0.0
H1670 H 0.32547 -0.0023 0.19191 0.0
H1671 H 0.34327 0.01216 0.16743 0.0
H1672 H 0.04049 0.04205 -0.00178 0.0
H1673 H 0.06918 0.02731 0.97881 0.0
H1674 H 0.04061 0.01007 0.04307 0.0
H1675 H 0.01016 0.02465 0.06197 0.0
H1676 H 0.12215 0.01074 0.98698 0.0
H1677 H 0.96169 0.00086 0.98938 0.0
H1678 H 0.97965 0.01305 -0.00281 0.0
H1679 H 0.98144 0.00317 0.0194 0.0
C1680 C 0.04208 0.03521 0.00861 0.0
C1681 C 0.02278 0.03437 0.03138 0.0
C1682 C 0.05835 0.0268 -0.00252 0.0
C1683 C 0.05591 0.0176 0.0093 0.0
C1684 C 0.04201 0.01711 0.03354 0.0
H1685 H 0.12206 0.95865 0.98166 0.0
H1686 H 0.12442 0.97651 0.98694 0.0
C1687 C 0.02487 0.02543 0.04438 0.0
C1688 C 0.05994 0.00836 0.99506 0.0
H1689 H 0.0067 -0.01208 0.97906 0.0
C1690 C 0.09696 0.00575 0.98496 0.0
C1691 C 0.02652 0.00213 0.99145 0.0
C1692 C 0.98499 0.00499 -0.00033 0.0
C1693 C 0.10199 -0.00334 0.97274 0.0
C1694 C 0.06939 -0.01002 0.97135 0.0
C1695 C 0.0319 -0.00705 0.98017 0.0
C1696 C 0.07365 0.97952 0.96342 0.0
C1697 C 0.14208 -0.00563 0.96153 0.0
C1698 C 0.04443 0.97516 0.94835 0.0
C1699 C 0.04199 0.96487 0.94618 0.0
C1700 C 0.06942 0.9588 0.95851 0.0
C1701 C 0.10067 0.96318 0.97182 0.0
C1702 C 0.10237 0.97344 0.9746 0.0
H1703 H 0.15667 0.00124 0.95477 0.0
H1704 H 0.16186 -0.00887 0.97576 0.0
H1705 H 0.13949 -0.01094 0.94608 0.0
H1706 H 0.02195 0.9797 0.93949 0.0
H1707 H 0.01783 0.96166 0.93564 0.0
H1708 H 0.2825 0.21082 0.07568 0.0
H1709 H 0.2565 0.22473 0.05205 0.0
H1710 H 0.17661 0.20504 0.01372 0.0
H1711 H 0.20243 0.19104 0.03735 0.0
H1712 H 0.23447 0.21476 0.98405 0.0
H1713 H 0.1544 0.24146 0.04352 0.0
H1714 H 0.2004 0.23707 0.05652 0.0
H1715 H 0.16006 0.22852 0.05144 0.0
C1716 C 0.25824 0.2095 0.06294 0.0
C1717 C 0.24493 0.19982 0.05809 0.0
C1718 C 0.2433 0.21747 0.04951 0.0
C1719 C 0.21478 0.21588 0.03111 0.0
C1720 C 0.19858 0.20639 0.02791 0.0
H1721 H 0.15642 0.26408 0.93093 0.0
H1722 H 0.15234 0.24793 0.9509 0.0
C1723 C 0.21326 0.19841 0.04152 0.0
C1724 C 0.20801 0.22366 0.01256 0.0
H1725 H 0.18292 0.248 0.0063 0.0
C1726 C 0.22235 0.22196 0.98872 0.0
C1727 C 0.19242 0.23304 0.01881 0.0
C1728 C 0.1756 0.23512 0.04392 0.0
C1729 C 0.2235 0.22961 0.97133 0.0
C1730 C 0.20987 0.23909 0.97803 0.0
C1731 C 0.19358 0.24067 0.00139 0.0
C1732 C 0.2144 0.24769 0.96167 0.0
C1733 C 0.24042 0.22765 0.9462 0.0
C1734 C 0.25116 0.25263 0.96033 0.0
C1735 C 0.25368 0.26191 0.94907 0.0
C1736 C 0.21932 0.26635 0.93912 0.0
C1737 C 0.1834 0.26092 0.93861 0.0
C1738 C 0.18089 0.25169 0.95002 0.0
H1739 H 0.24507 0.21961 0.94281 0.0
H1740 H 0.22015 0.23066 0.9319 0.0
H1741 H 0.26956 0.2315 0.94435 0.0
H1742 H 0.27728 0.2496 0.96935 0.0
H1743 H 0.28177 0.26588 0.94975 0.0
H1744 H 0.08558 0.69268 0.73168 0.0
H1745 H 0.10602 0.7091 0.74649 0.0
H1746 H 0.00155 0.72205 0.71327 0.0
H1747 H 0.98078 0.7058 0.69849 0.0
H1748 H 0.09496 0.7313 0.70929 0.0
H1749 H 0.02041 0.72475 0.79927 0.0
H1750 H 0.04717 0.715 0.78365 0.0
H1751 H 0.00022 0.7192 0.77185 0.0
C1752 C 0.06735 0.69905 0.72716 0.0
C1753 C 0.03142 0.69794 0.71405 0.0
C1754 C 0.07903 0.70839 0.73568 0.0
C1755 C 0.05506 0.71668 0.73101 0.0
C1756 C 0.02027 0.71568 0.71702 0.0
H1757 H -0.00241 0.77469 0.77034 0.0
H1758 H 0.00315 0.75694 0.76254 0.0
C1759 C 0.00848 0.70639 0.70863 0.0
C1760 C 0.06443 0.72639 0.74175 0.0
H1761 H 0.0398 0.74115 0.79014 0.0
C1762 C 0.08384 0.73345 0.72719 0.0
C1763 C 0.04938 0.72907 0.76498 0.0
C1764 C 0.02813 0.72165 0.78102 0.0
C1765 C 0.08698 0.74333 0.73485 0.0
C1766 C 0.07046 0.74612 0.7577 0.0
C1767 C 0.05255 0.73894 0.7727 0.0
C1768 C 0.06763 0.75661 0.76504 0.0
C1769 C 0.10576 0.75083 0.71784 0.0
C1770 C 0.10202 0.76221 0.76972 0.0
C1771 C 0.09898 0.77238 0.77413 0.0
C1772 C 0.06144 0.77708 0.77398 0.0
C1773 C 0.02694 0.77132 0.77045 0.0
C1774 C 0.03004 0.76117 0.76604 0.0
H1775 H 0.11149 0.74773 0.69932 0.0
H1776 H 0.08623 0.75744 0.71593 0.0
H1777 H 0.13467 0.75332 0.72563 0.0
H1778 H 0.13123 0.75877 0.76937 0.0
H1779 H 0.12614 0.77658 0.77698 0.0
H1780 H 0.6223 0.94948 0.78676 0.0
H1781 H 0.6129 0.96605 0.76926 0.0
H1782 H 0.73112 0.96488 0.73816 0.0
H1783 H 0.74103 0.94839 0.75556 0.0
H1784 H 0.66698 0.98392 0.77495 0.0
H1785 H 0.64934 0.97016 0.67965 0.0
H1786 H 0.64106 0.96242 0.70625 0.0
H1787 H 0.69102 0.96511 0.6963 0.0
C1788 C 0.64647 0.95279 0.77639 0.0
C1789 C 0.68236 0.94759 0.77242 0.0
C1790 C 0.64096 0.96222 0.7664 0.0
C1791 C 0.67106 0.96654 0.75213 0.0
C1792 C 0.70737 0.96155 0.74886 0.0
H1793 H 0.74746 0.0162 0.67612 0.0
H1794 H 0.72779 -0.00013 0.69065 0.0
C1795 C 0.71305 0.95217 0.75895 0.0
C1796 C 0.6649 0.97626 0.74045 0.0
H1797 H 0.66185 -0.01255 0.68443 0.0
C1798 C 0.66504 0.98474 0.7552 0.0
C1799 C 0.66221 0.9772 0.71472 0.0
C1800 C 0.66054 0.96825 0.69824 0.0
C1801 C 0.66539 -0.00576 0.74474 0.0
C1802 C 0.66466 -0.00481 0.71888 0.0
C1803 C 0.66226 0.98668 0.70423 0.0
C1804 C 0.67224 0.00481 0.7068 0.0
C1805 C 0.66924 0.00313 0.76136 0.0
C1806 C 0.64654 0.01291 0.71006 0.0
C1807 C 0.65781 0.02232 0.70183 0.0
C1808 C 0.69489 0.02371 0.6902 0.0
C1809 C 0.71892 0.01541 0.68526 0.0
C1810 C 0.70769 0.00605 0.6935 0.0
H1811 H 0.67592 0.00098 0.7806 0.0
H1812 H 0.69326 0.00814 0.75477 0.0
H1813 H 0.64079 0.00734 0.76126 0.0
H1814 H 0.61864 0.01203 0.71987 0.0
H1815 H 0.63852 0.02856 0.70577 0.0
H1816 H 0.62399 0.77106 0.91883 0.0
H1817 H 0.6103 0.75332 0.92251 0.0
H1818 H 0.73413 0.74802 0.93983 0.0
H1819 H 0.7483 0.76563 0.93581 0.0
H1820 H 0.69683 0.73234 0.91323 0.0
H1821 H 0.60918 0.74456 0.99488 0.0
H1822 H 0.59455 0.74908 0.96521 0.0
H1823 H 0.64105 0.75302 0.9784 0.0
C1824 C 0.64857 0.76608 0.92272 0.0
C1825 C 0.68706 0.76978 0.92771 0.0
C1826 C 0.64061 0.75596 0.92483 0.0
C1827 C 0.67099 0.74944 0.93204 0.0
C1828 C 0.71021 0.75297 0.93438 0.0
H1829 H 0.74674 0.70963 0.0277 0.0
H1830 H 0.71808 0.72284 0.0028 0.0
C1831 C 0.71824 0.76306 0.93219 0.0
C1832 C 0.66179 0.73941 0.94126 0.0
H1833 H 0.63015 0.72813 0.99378 0.0
C1834 C 0.68102 0.73129 0.93039 0.0
C1835 C 0.64119 0.73813 0.96373 0.0
C1836 C 0.62039 0.74663 0.97641 0.0
C1837 C 0.6833 0.72215 0.94253 0.0
C1838 C 0.66581 0.72118 0.96596 0.0
C1839 C 0.64334 0.72897 0.97573 0.0
C1840 C 0.67827 0.71319 0.98267 0.0
C1841 C 0.70763 0.71389 0.93141 0.0
C1842 C 0.66429 0.70347 0.98001 0.0
C1843 C 0.68046 0.69588 0.9944 0.0
C1844 C 0.71105 0.69795 0.01136 0.0
C1845 C 0.72342 0.7078 0.0147 0.0
C1846 C 0.70705 0.71535 0.00053 0.0
H1847 H 0.71868 0.71578 0.91278 0.0
H1848 H 0.73367 0.71223 0.94334 0.0
H1849 H 0.68927 0.70706 0.93022 0.0
H1850 H 0.64195 0.70172 0.96632 0.0
H1851 H 0.67046 0.68835 0.99138 0.0
H1852 H 0.29261 0.52081 0.67014 0.0
H1853 H 0.28423 0.50296 0.67498 0.0
H1854 H 0.17315 0.50783 0.71316 0.0
H1855 H 0.18094 0.5257 0.70791 0.0
H1856 H 0.2854 0.49669 0.72248 0.0
H1857 H 0.15039 0.48223 0.67601 0.0
H1858 H 0.17396 0.49374 0.66723 0.0
H1859 H 0.14111 0.4933 0.6933 0.0
C1860 C 0.26562 0.51805 0.67872 0.0
C1861 C 0.2377 0.52462 0.68901 0.0
C1862 C 0.26086 0.50786 0.68143 0.0
C1863 C 0.2282 0.50408 0.69451 0.0
C1864 C 0.19827 0.51058 0.70267 0.0
H1865 H 0.17101 0.45397 0.78252 0.0
H1866 H 0.17518 0.46961 0.76024 0.0
C1867 C 0.20282 0.5208 0.69974 0.0
C1868 C 0.22971 0.49383 0.70396 0.0
H1869 H 0.17611 0.47247 0.70942 0.0
C1870 C 0.26188 0.49131 0.71926 0.0
C1871 C 0.19878 0.48692 0.69993 0.0
C1872 C 0.16428 0.48914 0.68303 0.0
C1873 C 0.26318 0.4822 0.73149 0.0
C1874 C 0.23177 0.47537 0.72794 0.0
C1875 C 0.20011 0.47776 0.7121 0.0
C1876 C 0.23018 0.46593 0.74155 0.0
C1877 C 0.29716 0.48018 0.74899 0.0
C1878 C 0.26004 0.45874 0.73858 0.0
C1879 C 0.25806 0.44982 0.75155 0.0
C1880 C 0.22585 0.44792 0.7674 0.0
C1881 C 0.19623 0.4552 0.77047 0.0
C1882 C 0.1984 0.46412 0.75765 0.0
H1883 H 0.31369 0.48704 0.75382 0.0
H1884 H 0.28607 0.4767 0.76615 0.0
H1885 H 0.31854 0.47498 0.74028 0.0
H1886 H 0.28452 0.45996 0.72596 0.0
H1887 H 0.28107 0.44431 0.74857 0.0
H1888 H 0.93558 0.43866 0.45973 0.0
H1889 H 0.91219 0.45547 0.46856 0.0
H1890 H 0.02922 0.46699 0.45185 0.0
H1891 H 0.0527 0.45033 0.44268 0.0
H1892 H 0.94481 0.46698 0.50553 0.0
H1893 H 0.95614 0.48639 0.41633 0.0
H1894 H 0.9557 0.47304 0.41884 0.0
H1895 H 0.00101 0.47986 0.42427 0.0
C1896 C 0.9561 0.44479 0.45745 0.0
C1897 C 0.99606 0.44316 0.45064 0.0
C1898 C 0.94269 0.45438 0.46251 0.0
C1899 C 0.96888 0.46245 0.46057 0.0
C1900 C 0.00832 0.46087 0.45294 0.0
H1901 H 0.98936 0.52262 0.50738 0.0
H1902 H -0.00186 0.50576 0.49185 0.0
C1903 C 0.02176 0.45133 0.44792 0.0
C1904 C 0.95666 0.47237 0.46908 0.0
H1905 H 0.95394 0.49669 0.45222 0.0
C1906 C 0.94611 0.47346 0.49381 0.0
C1907 C 0.95868 0.48079 0.45371 0.0
C1908 C 0.96812 0.47996 0.42675 0.0
C1909 C 0.93917 0.48285 0.50389 0.0
C1910 C 0.94238 0.49129 0.48869 0.0
C1911 C 0.95181 0.49017 0.4638 0.0
C1912 C 0.93694 0.50137 0.49844 0.0
C1913 C 0.93002 0.4837 0.5309 0.0
C1914 C 0.89962 0.50441 0.50723 0.0
C1915 C 0.8945 0.514 0.51618 0.0
C1916 C 0.92663 0.52072 0.51635 0.0
C1917 C 0.96407 0.51761 0.50759 0.0
C1918 C 0.96912 0.50801 0.49863 0.0
H1919 H 0.93677 0.47673 0.54095 0.0
H1920 H 0.94738 0.48983 0.53929 0.0
H1921 H 0.89782 0.48537 0.53333 0.0
H1922 H 0.87435 0.4994 0.5069 0.0
H1923 H 0.86521 0.51617 0.52267 0.0
H1924 H 0.38067 0.71143 0.53483 0.0
H1925 H 0.36232 0.72795 0.52043 0.0
H1926 H 0.24 0.71848 0.51228 0.0
H1927 H 0.25783 0.702 0.52709 0.0
H1928 H 0.33269 0.73133 0.47455 0.0
H1929 H 0.22703 0.74536 0.54455 0.0
H1930 H 0.25979 0.73497 0.55015 0.0
H1931 H 0.21399 0.73328 0.53341 0.0
C1932 C 0.34969 0.71291 0.53046 0.0
C1933 C 0.32072 0.70539 0.53196 0.0
C1934 C 0.3393 0.72235 0.52224 0.0
C1935 C 0.29981 0.72444 0.51547 0.0
C1936 C 0.27051 0.71707 0.51789 0.0
H1937 H 0.17256 0.76875 0.43558 0.0
H1938 H 0.19715 0.75388 0.45601 0.0
C1939 C 0.28081 0.70764 0.52624 0.0
C1940 C 0.29008 0.73394 0.50344 0.0
H1941 H 0.22679 0.7537 0.50574 0.0
C1942 C 0.30993 0.7363 0.48153 0.0
C1943 C 0.26029 0.74036 0.51259 0.0
C1944 C 0.23931 0.73842 0.53659 0.0
C1945 C 0.29979 0.74477 0.46803 0.0
C1946 C 0.26933 0.75104 0.47687 0.0
C1947 C 0.25004 0.7488 0.49902 0.0
C1948 C 0.25602 0.75982 0.46303 0.0
C1949 C 0.32067 0.74676 0.44401 0.0
C1950 C 0.28135 0.768 0.45994 0.0
C1951 C 0.26747 0.77653 0.44819 0.0
C1952 C 0.22795 0.777 0.43952 0.0
C1953 C 0.20313 0.76865 0.44206 0.0
C1954 C 0.21703 0.76016 0.45379 0.0
H1955 H 0.33795 0.74024 0.43756 0.0
H1956 H 0.29875 0.74886 0.42963 0.0
H1957 H 0.34169 0.75305 0.44636 0.0
H1958 H 0.31145 0.76788 0.46721 0.0
H1959 H 0.28726 0.78284 0.44663 0.0
H1960 H 0.66537 0.46733 0.32782 0.0
H1961 H 0.6774 0.48372 0.31041 0.0
H1962 H 0.79438 0.47444 0.28686 0.0
H1963 H 0.78272 0.45799 0.30415 0.0
H1964 H 0.75003 0.49922 0.30725 0.0
H1965 H 0.70992 0.47665 0.22533 0.0
H1966 H 0.69739 0.47284 0.25611 0.0
H1967 H 0.74785 0.4718 0.2454 0.0
C1968 C 0.69436 0.4689 0.31991 0.0
C1969 C 0.72267 0.46131 0.31667 0.0
C1970 C 0.70116 0.47828 0.31003 0.0
C1971 C 0.73635 0.48013 0.29699 0.0
C1972 C 0.76693 0.47304 0.2968 0.0
H1973 H 0.8147 0.51952 0.1864 0.0
H1974 H 0.79776 0.50529 0.21197 0.0
C1975 C 0.76023 0.46366 0.30675 0.0
C1976 C 0.73741 0.48839 0.27945 0.0
H1977 H 0.72697 0.49336 0.21847 0.0
C1978 C 0.74485 0.498 0.28786 0.0
C1979 C 0.73004 0.48667 0.25428 0.0
C1980 C 0.72057 0.47646 0.24461 0.0
C1981 C 0.74659 0.50598 0.27141 0.0
C1982 C 0.73996 0.50423 0.24614 0.0
C1983 C 0.73171 0.49463 0.23788 0.0
C1984 C 0.7453 0.51211 0.22778 0.0
C1985 C 0.75688 0.51615 0.28097 0.0
C1986 C 0.71987 0.52035 0.2272 0.0
C1987 C 0.72927 0.52848 0.21242 0.0
C1988 C 0.76438 0.52843 0.19828 0.0
C1989 C 0.78766 0.51978 0.19729 0.0
C1990 C 0.77811 0.51167 0.21191 0.0
H1991 H 0.76743 0.51593 0.30028 0.0
H1992 H 0.78039 0.51963 0.26947 0.0
H1993 H 0.72998 0.52094 0.28013 0.0
H1994 H 0.69397 0.52069 0.23906 0.0
H1995 H 0.71079 0.53505 0.21356 0.0
H1996 H 0.75775 0.2004 0.50715 0.0
H1997 H 0.75059 0.21678 0.48851 0.0
H1998 H 0.87315 0.22351 0.50618 0.0
H1999 H 0.88065 0.2072 0.52505 0.0
H2000 H 0.81792 0.23831 0.51923 0.0
H2001 H 0.79858 0.22633 0.42277 0.0
H2002 H 0.76593 0.22013 0.44394 0.0
H2003 H 0.81901 0.21832 0.44619 0.0
C2004 C 0.78317 0.20536 0.50712 0.0
C2005 C 0.81978 0.20249 0.51752 0.0
C2006 C 0.77914 0.21467 0.49625 0.0
C2007 C 0.81163 0.22122 0.49556 0.0
C2008 C 0.84794 0.21847 0.50632 0.0
H2009 H 0.7999 0.28404 0.45312 0.0
H2010 H 0.82981 0.26782 0.46157 0.0
C2011 C 0.85206 0.20917 0.51714 0.0
C2012 C 0.80698 0.23114 0.48467 0.0
H2013 H 0.77961 0.24303 0.43212 0.0
C2014 C 0.81024 0.2394 0.50009 0.0
C2015 C 0.79726 0.23246 0.45967 0.0
C2016 C 0.79535 0.22385 0.4421 0.0
C2017 C 0.8015 0.24894 0.49153 0.0
C2018 C 0.79 0.25021 0.46678 0.0
C2019 C 0.78858 0.242 0.45106 0.0
C2020 C 0.7743 0.25975 0.45787 0.0
C2021 C 0.8023 0.25748 0.50938 0.0
C2022 C 0.73375 0.26044 0.45186 0.0
C2023 C 0.71667 0.26963 0.44695 0.0
C2024 C 0.73991 0.27829 0.44796 0.0
C2025 C 0.78117 0.27751 0.45242 0.0
C2026 C 0.79827 0.26827 0.45733 0.0
H2027 H 0.80559 0.25495 0.52866 0.0
H2028 H 0.82788 0.2624 0.50499 0.0
H2029 H 0.77451 0.26193 0.50788 0.0
H2030 H 0.71486 0.25392 0.45211 0.0
H2031 H 0.6849 0.26996 0.44329 0.0
H2032 H 0.58187 0.2677 0.79234 0.0
H2033 H 0.57848 0.25166 0.77204 0.0
H2034 H 0.47123 0.26069 0.73439 0.0
H2035 H 0.47454 0.27693 0.75454 0.0
H2036 H 0.51567 0.23767 0.77287 0.0
H2037 H 0.54824 0.25151 0.67883 0.0
H2038 H 0.5577 0.25881 0.70595 0.0
H2039 H 0.50763 0.25741 0.69473 0.0
C2040 C 0.55736 0.26629 0.77986 0.0
C2041 C 0.52857 0.2736 0.77492 0.0
C2042 C 0.55557 0.25712 0.76826 0.0
C2043 C 0.52512 0.25511 0.7514 0.0
C2044 C 0.49542 0.26223 0.74701 0.0
H2045 H 0.45898 0.20203 0.67702 0.0
H2046 H 0.4705 0.21942 0.68688 0.0
C2047 C 0.49709 0.27143 0.75873 0.0
C2048 C 0.52456 0.24544 0.73886 0.0
H2049 H 0.53554 0.23432 0.68307 0.0
C2050 C 0.5201 0.23692 0.75326 0.0
C2051 C 0.53044 0.24456 0.71329 0.0
C2052 C 0.53659 0.25354 0.69722 0.0
C2053 C 0.52095 0.22748 0.74272 0.0
C2054 C 0.52724 0.22657 0.71719 0.0
C2055 C 0.53136 0.23509 0.70269 0.0
C2056 C 0.5266 0.21677 0.70536 0.0
C2057 C 0.51425 0.21856 0.75894 0.0
C2058 C 0.55579 0.20968 0.71107 0.0
C2059 C 0.5493 0.1997 0.70552 0.0
C2060 C 0.51344 0.19677 0.69429 0.0
C2061 C 0.48661 0.20407 0.68605 0.0
C2062 C 0.49316 0.21401 0.69157 0.0
H2063 H 0.50242 0.22065 0.77724 0.0
H2064 H 0.49303 0.2133 0.75023 0.0
H2065 H 0.54303 0.21463 0.76167 0.0
H2066 H 0.58203 0.21174 0.7215 0.0
H2067 H 0.57062 0.19426 0.71195 0.0
H2068 H 0.47488 0.0176 0.52366 0.0
H2069 H 0.48759 0.00098 0.50777 0.0
H2070 H 0.36095 -0.00466 0.50467 0.0
H2071 H 0.34774 0.01198 0.52041 0.0
H2072 H 0.46232 0.98182 0.5255 0.0
H2073 H 0.40157 -0.00886 0.4332 0.0
H2074 H 0.41471 0.00053 0.45534 0.0
H2075 H 0.36967 -0.00651 0.45908 0.0
C2076 C 0.4497 0.0128 0.5199 0.0
C2077 C 0.41029 0.01615 0.52307 0.0
C2078 C 0.45703 0.00332 0.5108 0.0
C2079 C 0.42514 -0.00294 0.50469 0.0
C2080 C 0.38586 0.00017 0.50892 0.0
H2081 H 0.45877 0.93653 0.4491 0.0
H2082 H 0.4244 0.9514 0.46411 0.0
C2083 C 0.37845 0.00965 0.51803 0.0
C2084 C 0.43334 -0.01259 0.4931 0.0
H2085 H 0.42868 0.97517 0.4384 0.0
C2086 C 0.45449 0.9803 0.50658 0.0
C2087 C 0.42312 0.98552 0.46837 0.0
C2088 C 0.40124 -0.00693 0.45299 0.0
C2089 C 0.46661 0.9714 0.49575 0.0
C2090 C 0.45744 0.96964 0.47087 0.0
C2091 C 0.43524 0.97659 0.45755 0.0
C2092 C 0.47476 0.96111 0.45798 0.0
C2093 C 0.4905 0.96405 0.51058 0.0
C2094 C 0.51371 0.96184 0.44888 0.0
C2095 C 0.53338 0.95343 0.44045 0.0
C2096 C 0.5143 0.94415 0.44096 0.0
C2097 C 0.47417 0.94358 0.44846 0.0
C2098 C 0.45454 0.95203 0.45706 0.0
H2099 H 0.49188 0.96608 0.53029 0.0
H2100 H 0.47726 0.95654 0.50889 0.0
H2101 H 0.52143 0.96368 0.50331 0.0
H2102 H 0.52957 0.96884 0.44948 0.0
H2103 H 0.56417 0.95411 0.43459 0.0
H2104 H 0.42482 0.78062 0.31063 0.0
H2105 H 0.38881 0.76596 0.29653 0.0
H2106 H 0.48792 0.74754 0.31846 0.0
H2107 H 0.52353 0.76204 0.33302 0.0
H2108 H 0.42295 0.75705 0.25839 0.0
H2109 H 0.39715 0.72878 0.32951 0.0
H2110 H 0.40585 0.74164 0.33699 0.0
H2111 H 0.44722 0.73335 0.33175 0.0
C2112 C 0.43815 0.7734 0.31353 0.0
C2113 C 0.47746 0.77249 0.32232 0.0
C2114 C 0.4175 0.76502 0.30542 0.0
C2115 C 0.43577 0.75567 0.30627 0.0
C2116 C 0.47291 0.75465 0.31789 0.0
H2117 H 0.47507 0.70451 0.22271 0.0
H2118 H 0.47489 0.71927 0.24874 0.0
C2119 C 0.49349 0.76299 0.32601 0.0
C2120 C 0.42147 0.74757 0.29027 0.0
H2121 H 0.41154 0.72244 0.28821 0.0
C2122 C 0.41921 0.74952 0.26499 0.0
C2123 C 0.41689 0.73776 0.29885 0.0
C2124 C 0.41651 0.7353 0.32581 0.0
C2125 C 0.41549 0.74182 0.24796 0.0
C2126 C 0.41379 0.73197 0.25652 0.0
C2127 C 0.41352 0.73004 0.28179 0.0
C2128 C 0.41447 0.72353 0.23947 0.0
C2129 C 0.41586 0.74418 0.22092 0.0
C2130 C 0.38088 0.72126 0.22528 0.0
C2131 C 0.38091 0.71288 0.21034 0.0
C2132 C 0.41455 0.70663 0.20942 0.0
C2133 C 0.44879 0.70919 0.2229 0.0
C2134 C 0.44864 0.71755 0.23793 0.0
H2135 H 0.42174 0.75215 0.21729 0.0
H2136 H 0.43898 0.73969 0.21147 0.0
H2137 H 0.3865 0.74223 0.21281 0.0
H2138 H 0.35429 0.72581 0.22632 0.0
H2139 H 0.35404 0.71112 0.20017 0.0
H2140 H 0.57823 0.46013 0.93032 0.0
H2141 H 0.56748 0.47688 0.94589 0.0
H2142 H 0.45168 0.46828 0.97305 0.0
H2143 H 0.462 0.45148 0.95766 0.0
H2144 H 0.49938 0.49184 0.94247 0.0
H2145 H 0.52663 0.475 0.03419 0.0
H2146 H 0.54046 0.46889 0.00601 0.0
H2147 H 0.48915 0.46919 0.01545 0.0
C2148 C 0.54998 0.46185 0.939 0.0
C2149 C 0.52131 0.45442 0.94323 0.0
C2150 C 0.54393 0.47143 0.94784 0.0
C2151 C 0.50919 0.47368 0.96096 0.0
C2152 C 0.47888 0.46658 0.96316 0.0
H2153 H 0.43411 0.5205 0.05571 0.0
H2154 H 0.44592 0.50492 0.0344 0.0
C2155 C 0.48482 0.457 0.95428 0.0
C2156 C 0.50688 0.48298 0.97493 0.0
H2157 H 0.51077 0.49201 0.03323 0.0
C2158 C 0.50193 0.49193 0.96229 0.0
C2159 C 0.51059 0.48297 0.00074 0.0
C2160 C 0.5173 0.47352 0.01499 0.0
C2161 C 0.49942 0.50094 0.975 0.0
C2162 C 0.50292 0.50093 0.00086 0.0
C2163 C 0.50831 0.49196 0.0134 0.0
C2164 C 0.49867 0.51008 0.01538 0.0
C2165 C 0.49185 0.51034 0.96074 0.0
C2166 C 0.52553 0.51797 0.01251 0.0
C2167 C 0.5189 0.52692 0.02469 0.0
C2168 C 0.48535 0.52806 0.03994 0.0
C2169 C 0.46006 0.5199 0.04395 0.0
C2170 C 0.46669 0.51099 0.03177 0.0
H2171 H 0.48125 0.50879 0.94183 0.0
H2172 H 0.46935 0.51503 0.97015 0.0
H2173 H 0.52003 0.51463 0.95942 0.0
H2174 H 0.55095 0.51729 0.00036 0.0
H2175 H 0.53906 0.53304 0.02131 0.0
H2176 H 0.15954 0.29241 0.22062 0.0
H2177 H 0.17748 0.29568 0.17802 0.0
H2178 H 0.05273 0.29742 0.1588 0.0
H2179 H 0.03438 0.29435 0.20152 0.0
H2180 H 0.15886 0.28469 0.13759 0.0
H2181 H 0.09729 0.32269 0.12864 0.0
H2182 H 0.10408 0.3167 0.15795 0.0
H2183 H 0.06153 0.31374 0.13921 0.0
C2184 C 0.13585 0.29352 0.20738 0.0
C2185 C 0.0955 0.29315 0.21449 0.0
C2186 C 0.14619 0.29541 0.18306 0.0
C2187 C 0.11645 0.29696 0.16538 0.0
C2188 C 0.07614 0.29648 0.1723 0.0
H2189 H 0.1104 0.30112 0.00866 0.0
H2190 H 0.09605 0.30073 0.05251 0.0
C2191 C 0.06573 0.29465 0.19668 0.0
C2192 C 0.12772 0.29863 0.13951 0.0
H2193 H 0.11773 0.31476 0.09165 0.0
C2194 C 0.15021 0.2913 0.1276 0.0
C2195 C 0.11636 0.30728 0.12659 0.0
C2196 C 0.09381 0.3156 0.13879 0.0
C2197 C 0.16081 0.29227 0.10287 0.0
C2198 C 0.14896 0.30084 0.08989 0.0
C2199 C 0.12678 0.30821 0.10179 0.0
C2200 C 0.15783 0.30201 0.06357 0.0
C2201 C 0.1836 0.284 0.0906 0.0
C2202 C 0.19729 0.30313 0.05541 0.0
C2203 C 0.20568 0.30337 0.03033 0.0
C2204 C 0.17468 0.30247 0.01308 0.0
C2205 C 0.13502 0.30175 0.02144 0.0
C2206 C 0.1267 0.30155 0.04648 0.0
H2207 H 0.18416 0.27716 0.10195 0.0
H2208 H 0.17023 0.28221 0.07251 0.0
H2209 H 0.21488 0.2864 0.08746 0.0
H2210 H 0.22161 0.30361 0.06845 0.0
H2211 H 0.2365 0.30397 0.02451 0.0
H2212 H 0.01034 0.92356 0.05915 0.0
H2213 H 0.01664 0.92353 0.10395 0.0
H2214 H 0.1431 0.92888 0.09741 0.0
H2215 H 0.13732 0.92892 0.05283 0.0
H2216 H 0.07075 0.91069 0.13332 0.0
H2217 H 0.09868 0.95102 0.1443 0.0
H2218 H 0.07534 0.94584 0.11733 0.0
H2219 H 0.1285 0.94503 0.12126 0.0
C2220 C 0.03946 0.92477 0.06725 0.0
C2221 C 0.07332 0.92626 0.05243 0.0
C2222 C 0.04297 0.92472 0.0928 0.0
C2223 C 0.08024 0.9263 0.10384 0.0
C2224 C 0.11402 0.92777 0.08914 0.0
H2225 H 0.18463 0.91536 0.24388 0.0
H2226 H 0.16091 0.91475 0.20156 0.0
C2227 C 0.11064 0.92775 0.06368 0.0
C2228 C 0.08437 0.92625 0.13075 0.0
H2229 H 0.11264 0.94078 0.1788 0.0
C2230 C 0.07944 0.91728 0.14338 0.0
C2231 C 0.09531 0.93489 0.14372 0.0
C2232 C 0.09947 0.94478 0.13105 0.0
C2233 C 0.08683 0.91664 0.16865 0.0
C2234 C 0.09972 0.92517 0.18139 0.0
C2235 C 0.103 0.93423 0.16891 0.0
C2236 C 0.11164 0.92484 0.20746 0.0
C2237 C 0.0811 0.90683 0.18148 0.0
C2238 C 0.09189 0.93076 0.22471 0.0
C2239 C 0.10543 0.93117 0.24889 0.0
C2240 C 0.13926 0.92573 0.25618 0.0
C2241 C 0.15848 0.91964 0.23891 0.0
C2242 C 0.14482 0.91922 0.21475 0.0
H2243 H 0.06112 0.90184 0.17092 0.0
H2244 H 0.11049 0.90311 0.18341 0.0
H2245 H 0.06843 0.9079 0.2001 0.0
H2246 H 0.06637 0.9352 0.21934 0.0
H2247 H 0.08991 0.93594 0.26169 0.0
H2248 H 0.96863 0.64892 0.77928 0.0
H2249 H 0.94835 0.64533 0.8214 0.0
H2250 H 0.86616 0.66994 0.81926 0.0
H2251 H 0.88524 0.67337 0.77696 0.0
H2252 H 0.9576 0.65648 0.86022 0.0
H2253 H 0.79659 0.64919 0.84937 0.0
H2254 H 0.83022 0.64962 0.82354 0.0
H2255 H 0.80917 0.66088 0.8358 0.0
C2256 C 0.94585 0.65349 0.78768 0.0
C2257 C 0.9285 0.66143 0.77479 0.0
C2258 C 0.93426 0.65142 0.81174 0.0
C2259 C 0.90522 0.65725 0.82335 0.0
C2260 C 0.88771 0.66514 0.81044 0.0
H2261 H 0.88028 0.67602 0.96887 0.0
H2262 H 0.90242 0.67166 0.92782 0.0
C2263 C 0.89892 0.66715 0.78631 0.0
C2264 C 0.89565 0.65569 0.84957 0.0
H2265 H 0.81765 0.65482 0.88965 0.0
C2266 C 0.92702 0.65591 0.86664 0.0
C2267 C 0.8559 0.65469 0.85799 0.0
C2268 C 0.82116 0.65346 0.84065 0.0
C2269 C 0.91951 0.65588 0.89191 0.0
C2270 C 0.87953 0.65592 0.90027 0.0
C2271 C 0.84831 0.65497 0.88325 0.0
C2272 C 0.8692 0.6579 0.9262 0.0
C2273 C 0.9545 0.65595 0.90933 0.0
C2274 C 0.84262 0.6517 0.93888 0.0
C2275 C 0.82926 0.65427 0.96229 0.0
C2276 C 0.84228 0.66311 0.97341 0.0
C2277 C 0.86986 0.66913 0.96094 0.0
C2278 C 0.88286 0.6666 0.9375 0.0
H2279 H 0.98072 0.65213 0.90118 0.0
H2280 H 0.96337 0.66373 0.91302 0.0
H2281 H 0.94703 0.65232 0.92701 0.0
H2282 H 0.83151 0.64498 0.93042 0.0
H2283 H 0.80808 0.64946 0.97143 0.0
H2284 H 0.75138 0.06779 0.77048 0.0
H2285 H 0.77106 0.06963 0.81336 0.0
H2286 H 0.86109 0.0471 0.80393 0.0
H2287 H 0.84233 0.04536 0.76091 0.0
H2288 H 0.76808 0.05599 0.84917 0.0
H2289 H 0.924 0.06875 0.83741 0.0
H2290 H 0.88862 0.06853 0.81245 0.0
H2291 H 0.91441 0.0574 0.82138 0.0
C2292 C 0.77559 0.06327 0.77746 0.0
C2293 C 0.79535 0.05644 0.76226 0.0
C2294 C 0.78681 0.06435 0.80196 0.0
C2295 C 0.81796 0.05862 0.8117 0.0
C2296 C 0.83767 0.05178 0.79661 0.0
H2297 H 0.8578 0.04164 0.96113 0.0
H2298 H 0.83847 0.04313 0.91818 0.0
C2299 C 0.82669 0.05074 0.77206 0.0
C2300 C 0.82828 0.05938 0.838 0.0
H2301 H 0.90627 0.06274 0.87736 0.0
C2302 C 0.7982 0.05757 0.85535 0.0
C2303 C 0.86742 0.06161 0.84602 0.0
C2304 C 0.90035 0.06429 0.82834 0.0
C2305 C 0.80654 0.05758 0.88052 0.0
C2306 C 0.84621 0.05919 0.88846 0.0
C2307 C 0.87598 0.06137 0.87118 0.0
C2308 C 0.85767 0.05837 0.91456 0.0
C2309 C 0.77274 0.05589 0.89834 0.0
C2310 C 0.87595 0.06637 0.92655 0.0
C2311 C 0.88752 0.06551 0.95106 0.0
C2312 C 0.88102 0.05662 0.96397 0.0
C2313 C 0.86292 0.04861 0.95181 0.0
C2314 C 0.8516 0.04947 0.92729 0.0
H2315 H 0.74344 0.05786 0.89011 0.0
H2316 H 0.7717 0.04792 0.90338 0.0
H2317 H 0.77691 0.06028 0.91534 0.0
H2318 H 0.88112 0.07328 0.91696 0.0
H2319 H 0.90141 0.07181 0.95988 0.0
H2320 H 0.14638 0.81822 0.69796 0.0
H2321 H 0.15627 0.82048 0.65398 0.0
H2322 H 0.0294 0.81767 0.64216 0.0
H2323 H 0.01907 0.81565 0.68621 0.0
H2324 H 0.13894 0.80697 0.61942 0.0
H2325 H 0.05529 0.84155 0.60019 0.0
H2326 H 0.06848 0.83775 0.63088 0.0
H2327 H 0.02589 0.83239 0.61578 0.0
C2328 C 0.12049 0.81821 0.68606 0.0
C2329 C 0.08192 0.81673 0.69559 0.0
C2330 C 0.12621 0.81952 0.66093 0.0
C2331 C 0.09354 0.81938 0.64484 0.0
C2332 C 0.05494 0.81806 0.6543 0.0
H2333 H 0.07356 0.8084 0.49038 0.0
H2334 H 0.06122 0.81142 0.53393 0.0
C2335 C 0.04913 0.81682 0.67948 0.0
C2336 C 0.10031 0.81972 0.61804 0.0
H2337 H 0.07405 0.83179 0.56535 0.0
C2338 C 0.1251 0.81247 0.60766 0.0
C2339 C 0.08213 0.8269 0.60272 0.0
C2340 C 0.05677 0.83515 0.61297 0.0
C2341 C 0.13154 0.81206 0.58233 0.0
C2342 C 0.11277 0.81909 0.56703 0.0
C2343 C 0.08827 0.82642 0.57728 0.0
C2344 C 0.11782 0.81868 0.54023 0.0
C2345 C 0.15776 0.804 0.57191 0.0
C2346 C 0.15331 0.82202 0.52943 0.0
C2347 C 0.16051 0.82033 0.50457 0.0
C2348 C 0.13238 0.8152 0.49021 0.0
C2349 C 0.09596 0.81231 0.50093 0.0
C2350 C 0.08875 0.81405 0.52577 0.0
H2351 H 0.16735 0.79859 0.58609 0.0
H2352 H 0.14163 0.79997 0.55718 0.0
H2353 H 0.1848 0.80737 0.56361 0.0
H2354 H 0.17604 0.82559 0.54046 0.0
H2355 H 0.18881 0.82267 0.49691 0.0
H2356 H 0.21581 0.40018 0.71588 0.0
H2357 H 0.19698 0.39796 0.67294 0.0
H2358 H 0.07691 0.40731 0.68953 0.0
H2359 H 0.09532 0.40963 0.73246 0.0
H2360 H 0.13188 0.38738 0.64688 0.0
H2361 H 0.12475 0.42853 0.64142 0.0
H2362 H 0.1483 0.42211 0.6666 0.0
H2363 H 0.09484 0.42291 0.66501 0.0
C2364 C 0.18515 0.40156 0.71056 0.0
C2365 C 0.15725 0.40526 0.72752 0.0
C2366 C 0.17447 0.40026 0.68601 0.0
C2367 C 0.13581 0.40264 0.67813 0.0
C2368 C 0.10705 0.40556 0.69532 0.0
H2369 H 0.0334 0.39905 0.53195 0.0
H2370 H 0.04852 0.39654 0.57538 0.0
C2371 C 0.11767 0.40687 0.71983 0.0
C2372 C 0.12686 0.40316 0.65168 0.0
H2373 H 0.10735 0.41965 0.60583 0.0
C2374 C 0.12638 0.39441 0.63784 0.0
C2375 C 0.12041 0.41238 0.64002 0.0
C2376 C 0.12238 0.42204 0.65391 0.0
C2377 C 0.11908 0.39465 0.61249 0.0
C2378 C 0.11189 0.40386 0.60095 0.0
C2379 C 0.1127 0.4126 0.61482 0.0
C2380 C 0.10406 0.40472 0.57439 0.0
C2381 C 0.1199 0.3851 0.59816 0.0
C2382 C 0.13011 0.41024 0.5596 0.0
C2383 C 0.12149 0.41174 0.53486 0.0
C2384 C 0.08646 0.40781 0.5245 0.0
C2385 C 0.06065 0.40217 0.53934 0.0
C2386 C 0.06935 0.40067 0.56412 0.0
H2387 H 0.13449 0.37903 0.60861 0.0
H2388 H 0.08883 0.3828 0.59398 0.0
H2389 H 0.1359 0.38611 0.5805 0.0
H2390 H 0.15695 0.41347 0.56729 0.0
H2391 H 0.14206 0.41611 0.52398 0.0
H2392 H 0.90061 0.14576 0.26351 0.0
H2393 H 0.89968 0.14229 0.30758 0.0
H2394 H 0.85517 0.17175 0.32137 0.0
H2395 H 0.85496 0.17519 0.27752 0.0
H2396 H 0.93939 0.15109 0.34473 0.0
H2397 H 0.77707 0.15515 0.35957 0.0
H2398 H 0.79858 0.15418 0.32934 0.0
H2399 H 0.79746 0.16592 0.34501 0.0
C2400 C 0.89031 0.15147 0.27593 0.0
C2401 C 0.87752 0.16073 0.26699 0.0
C2402 C 0.88985 0.14947 0.30108 0.0
C2403 C 0.87661 0.15669 0.31769 0.0
C2404 C 0.8644 0.16597 0.30883 0.0
H2405 H 0.92677 0.16867 0.46654 0.0
H2406 H 0.93137 0.16499 0.42293 0.0
C2407 C 0.86451 0.16795 0.28373 0.0
C2408 C 0.87673 0.15473 0.34439 0.0
H2409 H 0.81862 0.15679 0.39537 0.0
C2410 C 0.91286 0.15217 0.35581 0.0
C2411 C 0.84193 0.15589 0.35877 0.0
C2412 C 0.80151 0.15782 0.34749 0.0
C2413 C 0.9156 0.15132 0.38141 0.0
C2414 C 0.88153 0.15334 0.39591 0.0
C2415 C 0.84493 0.15534 0.38434 0.0
C2416 C 0.88337 0.15422 0.42299 0.0
C2417 C 0.95502 0.14833 0.39258 0.0
C2418 C 0.85495 0.14939 0.43767 0.0
C2419 C 0.85164 0.15167 0.46255 0.0
C2420 C 0.87694 0.15876 0.47324 0.0
C2421 C 0.90706 0.16311 0.45889 0.0
C2422 C 0.90992 0.16095 0.43392 0.0
H2423 H 0.97225 0.14353 0.37988 0.0
H2424 H 0.97315 0.15507 0.39603 0.0
H2425 H 0.95084 0.14433 0.41018 0.0
H2426 H 0.83412 0.14418 0.42964 0.0
H2427 H 0.82827 0.14816 0.47319 0.0
H2428 H 0.80194 0.5579 0.46546 0.0
H2429 H 0.78989 0.56114 0.42195 0.0
H2430 H 0.90903 0.57288 0.41461 0.0
H2431 H 0.92132 0.5698 0.45805 0.0
H2432 H 0.84843 0.58331 0.3868 0.0
H2433 H 0.84761 0.54243 0.37299 0.0
H2434 H 0.81233 0.54714 0.39491 0.0
H2435 H 0.8649 0.54808 0.401 0.0
C2436 C 0.82536 0.56134 0.45472 0.0
C2437 C 0.86285 0.56344 0.46515 0.0
C2438 C 0.8184 0.56317 0.42987 0.0
C2439 C 0.84882 0.56709 0.41509 0.0
C2440 C 0.88525 0.56982 0.42576 0.0
H2441 H 0.89818 0.55815 0.26332 0.0
H2442 H 0.90003 0.56039 0.30766 0.0
C2443 C 0.89224 0.56801 0.45058 0.0
C2444 C 0.84447 0.5674 0.38816 0.0
H2445 H 0.83903 0.55238 0.33804 0.0
C2446 C 0.84604 0.57658 0.37607 0.0
C2447 C 0.84198 0.55856 0.37434 0.0
C2448 C 0.84191 0.54848 0.38636 0.0
C2449 C 0.84535 0.57713 0.35035 0.0
C2450 C 0.84288 0.56829 0.33661 0.0
C2451 C 0.84088 0.55914 0.34874 0.0
C2452 C 0.84375 0.56821 0.30954 0.0
C2453 C 0.84847 0.58711 0.33804 0.0
C2454 C 0.81177 0.57204 0.29593 0.0
C2455 C 0.81057 0.57078 0.2705 0.0
C2456 C 0.84123 0.5656 0.25837 0.0
C2457 C 0.87398 0.56214 0.27205 0.0
C2458 C 0.87513 0.56341 0.2974 0.0
H2459 H 0.85756 0.59302 0.35106 0.0
H2460 H 0.87034 0.58684 0.32275 0.0
H2461 H 0.81899 0.58913 0.33021 0.0
H2462 H 0.78701 0.57565 0.30505 0.0
H2463 H 0.78488 0.57353 0.26053 0.0
H2464 H 0.68383 0.32799 0.5252 0.0
H2465 H 0.67217 0.33194 0.56845 0.0
H2466 H 0.61876 0.30314 0.57907 0.0
H2467 H 0.62864 0.29936 0.53583 0.0
H2468 H 0.57469 0.31701 0.59935 0.0
H2469 H 0.73266 0.32258 0.62736 0.0
H2470 H 0.716 0.33061 0.60321 0.0
H2471 H 0.71916 0.31748 0.59797 0.0
C2472 C 0.66984 0.32249 0.53686 0.0
C2473 C 0.65717 0.31337 0.52719 0.0
C2474 C 0.66338 0.32474 0.56157 0.0
C2475 C 0.64508 0.31778 0.57709 0.0
C2476 C 0.63285 0.30863 0.56744 0.0
H2477 H 0.64727 0.30621 0.72793 0.0
H2478 H 0.66181 0.3096 0.68509 0.0
C2479 C 0.63858 0.30647 0.54273 0.0
C2480 C 0.63752 0.31996 0.6033 0.0
H2481 H 0.68365 0.32476 0.6578 0.0
C2482 C 0.59846 0.31877 0.61215 0.0
C2483 C 0.66863 0.32227 0.6199 0.0
C2484 C 0.71153 0.32323 0.61174 0.0
C2485 C 0.5899 0.31925 0.63725 0.0
C2486 C 0.62108 0.32144 0.65394 0.0
C2487 C 0.65979 0.32315 0.64495 0.0
C2488 C 0.6153 0.32062 0.6808 0.0
C2489 C 0.5481 0.31675 0.64565 0.0
C2490 C 0.58529 0.32597 0.69299 0.0
C2491 C 0.57625 0.32387 0.71749 0.0
C2492 C 0.59786 0.31659 0.7303 0.0
C2493 C 0.62994 0.31184 0.71858 0.0
C2494 C 0.63838 0.31379 0.69405 0.0
H2495 H 0.53042 0.31307 0.63102 0.0
H2496 H 0.54875 0.31179 0.66188 0.0
H2497 H 0.53231 0.32367 0.65079 0.0
H2498 H 0.56793 0.3315 0.68334 0.0
H2499 H 0.55174 0.32775 0.72617 0.0
H2500 H 0.55499 0.89821 0.51328 0.0
H2501 H 0.55466 0.89471 0.55742 0.0
H2502 H 0.64143 0.91784 0.56891 0.0
H2503 H 0.64202 0.92142 0.52513 0.0
H2504 H 0.62225 0.88971 0.58932 0.0
H2505 H 0.54637 0.92466 0.61534 0.0
H2506 H 0.54524 0.91977 0.58452 0.0
H2507 H 0.58825 0.92646 0.59525 0.0
C2508 C 0.57403 0.90254 0.5252 0.0
C2509 C 0.59835 0.91014 0.51569 0.0
C2510 C 0.5738 0.90052 0.55037 0.0
C2511 C 0.59757 0.90612 0.56633 0.0
C2512 C 0.6224 0.91355 0.55685 0.0
H2513 H 0.70288 0.90212 0.7052 0.0
H2514 H 0.68244 0.89973 0.66276 0.0
C2515 C 0.62278 0.91555 0.5318 0.0
C2516 C 0.59693 0.9043 0.59301 0.0
H2517 H 0.5816 0.91617 0.64727 0.0
C2518 C 0.61273 0.8954 0.60208 0.0
C2519 C 0.58378 0.91167 0.60951 0.0
C2520 C 0.56458 0.92115 0.60071 0.0
C2521 C 0.61814 0.89395 0.62735 0.0
C2522 C 0.60794 0.90166 0.64374 0.0
C2523 C 0.58971 0.91029 0.63468 0.0
C2524 C 0.61924 0.90145 0.66996 0.0
C2525 C 0.63546 0.88428 0.6362 0.0
C2526 C 0.59049 0.90319 0.68815 0.0
C2527 C 0.60213 0.90468 0.71246 0.0
C2528 C 0.6428 0.90452 0.71895 0.0
C2529 C 0.67132 0.9023 0.70086 0.0
C2530 C 0.65965 0.90083 0.67658 0.0
H2531 H 0.62861 0.87816 0.62325 0.0
H2532 H 0.66842 0.88497 0.63736 0.0
H2533 H 0.62386 0.88228 0.65462 0.0
H2534 H 0.55917 0.90376 0.68338 0.0
H2535 H 0.57937 0.90635 0.72595 0.0
H2536 H 0.31743 0.65859 0.46209 0.0
H2537 H 0.31593 0.65594 0.41778 0.0
H2538 H 0.42948 0.67073 0.41071 0.0
H2539 H 0.43124 0.67349 0.45496 0.0
H2540 H 0.36804 0.67825 0.38031 0.0
H2541 H 0.38168 0.63731 0.37279 0.0
H2542 H 0.34431 0.64171 0.3938 0.0
H2543 H 0.39612 0.64404 0.39999 0.0
C2544 C 0.34238 0.66117 0.45119 0.0
C2545 C 0.3744 0.6663 0.46209 0.0
C2546 C 0.34155 0.65959 0.42588 0.0
C2547 C 0.37275 0.66307 0.41106 0.0
C2548 C 0.4052 0.66796 0.42191 0.0
H2549 H 0.42879 0.65791 0.25826 0.0
H2550 H 0.42434 0.65575 0.30262 0.0
C2551 C 0.40614 0.66952 0.4472 0.0
C2552 C 0.37004 0.66238 0.38406 0.0
H2553 H 0.36736 0.64612 0.33614 0.0
C2554 C 0.36785 0.67123 0.37064 0.0
C2555 C 0.36994 0.6532 0.37158 0.0
C2556 C 0.37345 0.6435 0.38519 0.0
C2557 C 0.36558 0.67116 0.34501 0.0
C2558 C 0.36494 0.66199 0.3325 0.0
C2559 C 0.3673 0.65312 0.34587 0.0
C2560 C 0.36441 0.6616 0.30543 0.0
C2561 C 0.36486 0.68092 0.33144 0.0
C2562 C 0.33145 0.66519 0.29228 0.0
C2563 C 0.33384 0.66644 0.26689 0.0
C2564 C 0.36932 0.66414 0.25429 0.0
C2565 C 0.40115 0.65984 0.26738 0.0
C2566 C 0.39867 0.65858 0.29274 0.0
H2567 H 0.37316 0.68723 0.34347 0.0
H2568 H 0.38562 0.68075 0.31558 0.0
H2569 H 0.3343 0.68227 0.32432 0.0
H2570 H 0.30458 0.66745 0.3018 0.0
H2571 H 0.30868 0.66972 0.25739 0.0
H2572 H 0.30741 0.0511 0.45124 0.0
H2573 H 0.3087 0.053 0.4067 0.0
H2574 H 0.43016 0.06348 0.41044 0.0
H2575 H 0.42922 0.0617 0.45503 0.0
H2576 H 0.37906 0.07402 0.37626 0.0
H2577 H 0.3751 0.03308 0.36518 0.0
H2578 H 0.33568 0.03818 0.3836 0.0
H2579 H 0.38646 0.03896 0.39405 0.0
C2580 C 0.33427 0.05393 0.44268 0.0
C2581 C 0.3684 0.05613 0.4567 0.0
C2582 C 0.33495 0.05498 0.41722 0.0
C2583 C 0.36973 0.05822 0.40536 0.0
C2584 C 0.40311 0.06093 0.41933 0.0
H2585 H 0.43064 0.04694 0.25396 0.0
H2586 H 0.43186 0.04901 0.29842 0.0
C2587 C 0.4025 0.05988 0.4448 0.0
C2588 C 0.37219 0.05818 0.37833 0.0
H2589 H 0.37112 0.04267 0.32903 0.0
C2590 C 0.37736 0.06718 0.36586 0.0
C2591 C 0.37062 0.04922 0.36498 0.0
C2592 C 0.36701 0.03929 0.37757 0.0
C2593 C 0.38028 0.06747 0.34019 0.0
C2594 C 0.37759 0.05852 0.32682 0.0
C2595 C 0.37302 0.04952 0.33937 0.0
C2596 C 0.37912 0.05825 0.29974 0.0
C2597 C 0.38678 0.0773 0.32762 0.0
C2598 C 0.34924 0.06284 0.28577 0.0
C2599 C 0.34844 0.06169 0.26033 0.0
C2600 C 0.37735 0.05584 0.24845 0.0
C2601 C 0.40787 0.05147 0.26249 0.0
C2602 C 0.40865 0.05264 0.28791 0.0
H2603 H 0.39844 0.08298 0.34051 0.0
H2604 H 0.40797 0.07654 0.31208 0.0
H2605 H 0.35789 0.08 0.32024 0.0
H2606 H 0.32574 0.06704 0.29461 0.0
H2607 H 0.32445 0.06514 0.2501 0.0
H2608 H 0.71831 0.79928 0.04059 0.0
H2609 H 0.69911 0.79788 0.08369 0.0
H2610 H 0.57482 0.79773 0.06305 0.0
H2611 H 0.59359 0.79904 0.01988 0.0
H2612 H 0.65062 0.81115 0.11056 0.0
H2613 H 0.58636 0.77319 0.10786 0.0
H2614 H 0.61833 0.77798 0.08396 0.0
H2615 H 0.5668 0.78163 0.08536 0.0
C2616 C 0.68688 0.79891 0.04516 0.0
C2617 C 0.65749 0.79925 0.02676 0.0
C2618 C 0.67599 0.79811 0.0698 0.0
C2619 C 0.6356 0.79758 0.07646 0.0
C2620 C 0.60617 0.79796 0.05821 0.0
H2621 H 0.54076 0.80775 0.2229 0.0
H2622 H 0.55346 0.8082 0.17874 0.0
C2623 C 0.617 0.79877 0.03356 0.0
C2624 C 0.62431 0.79696 0.1026 0.0
H2625 H 0.57825 0.78219 0.14484 0.0
C2626 C 0.63479 0.80483 0.11809 0.0
C2627 C 0.60397 0.78865 0.1123 0.0
C2628 C 0.59344 0.77983 0.0966 0.0
C2629 C 0.62524 0.80464 0.1431 0.0
C2630 C 0.60421 0.79643 0.15272 0.0
C2631 C 0.59398 0.78852 0.13728 0.0
C2632 C 0.59413 0.79575 0.17903 0.0
C2633 C 0.63848 0.81313 0.15915 0.0
C2634 C 0.61181 0.7884 0.19358 0.0
C2635 C 0.60457 0.78809 0.21876 0.0
C2636 C 0.57933 0.79512 0.22983 0.0
C2637 C 0.56052 0.80227 0.215 0.0
C2638 C 0.56785 0.80257 0.1898 0.0
H2639 H 0.66156 0.81778 0.15007 0.0
H2640 H 0.6124 0.81792 0.1633 0.0
H2641 H 0.65069 0.81036 0.1768 0.0
H2642 H 0.63204 0.78305 0.18553 0.0
H2643 H 0.61939 0.78246 0.22959 0.0
H2644 H 0.66305 0.42793 0.01374 0.0
H2645 H 0.68196 0.42893 0.05686 0.0
H2646 H 0.56656 0.41755 0.07781 0.0
H2647 H 0.54737 0.4164 0.03465 0.0
H2648 H 0.64366 0.44031 0.09216 0.0
H2649 H 0.64445 0.40053 0.11792 0.0
H2650 H 0.64535 0.40467 0.08643 0.0
H2651 H 0.59918 0.4045 0.10324 0.0
C2652 C 0.64177 0.42552 0.02746 0.0
C2653 C 0.60363 0.42209 0.02073 0.0
C2654 C 0.65268 0.42611 0.0521 0.0
C2655 C 0.62582 0.42322 0.07045 0.0
C2656 C 0.58798 0.41964 0.06385 0.0
H2657 H 0.61147 0.44023 0.22144 0.0
H2658 H 0.60511 0.43845 0.1771 0.0
C2659 C 0.577 0.41904 0.03919 0.0
C2660 C 0.6365 0.42455 0.09653 0.0
H2661 H 0.64635 0.41219 0.15077 0.0
C2662 C 0.64459 0.43416 0.10495 0.0
C2663 C 0.63817 0.41648 0.11305 0.0
C2664 C 0.63171 0.40595 0.10471 0.0
C2665 C 0.6531 0.43598 0.1297 0.0
C2666 C 0.65293 0.42798 0.14643 0.0
C2667 C 0.64613 0.41832 0.13787 0.0
C2668 C 0.65831 0.4295 0.17303 0.0
C2669 C 0.66219 0.44643 0.13775 0.0
C2670 C 0.69019 0.42499 0.18541 0.0
C2671 C 0.6939 0.42597 0.2108 0.0
C2672 C 0.66552 0.4314 0.22424 0.0
C2673 C 0.63391 0.43602 0.21166 0.0
C2674 C 0.63031 0.43505 0.1863 0.0
H2675 H 0.67188 0.45113 0.1221 0.0
H2676 H 0.63483 0.44978 0.14567 0.0
H2677 H 0.68587 0.44653 0.152 0.0
H2678 H 0.71198 0.42064 0.17544 0.0
H2679 H 0.71854 0.4223 0.21991 0.0
H2680 H 0.39403 0.1805 0.78428 0.0
H2681 H 0.38174 0.18141 0.82832 0.0
H2682 H 0.46605 0.15773 0.84041 0.0
H2683 H 0.47957 0.157 0.79639 0.0
H2684 H 0.35175 0.16788 0.85833 0.0
H2685 H 0.50413 0.17777 0.88951 0.0
H2686 H 0.48967 0.17814 0.85767 0.0
H2687 H 0.50296 0.16656 0.87189 0.0
C2688 C 0.41017 0.17552 0.79632 0.0
C2689 C 0.43791 0.1687 0.78688 0.0
C2690 C 0.4031 0.17605 0.82148 0.0
C2691 C 0.42342 0.16974 0.8377 0.0
C2692 C 0.45083 0.16285 0.82831 0.0
H2693 H 0.34107 0.15805 0.98635 0.0
H2694 H 0.3581 0.1569 0.94288 0.0
C2695 C 0.45833 0.1624 0.80314 0.0
C2696 C 0.41467 0.17017 0.86429 0.0
H2697 H 0.45763 0.1732 0.92052 0.0
C2698 C 0.37488 0.16908 0.87193 0.0
C2699 C 0.44481 0.17188 0.88197 0.0
C2700 C 0.48771 0.17376 0.87486 0.0
C2701 C 0.36438 0.16959 0.89677 0.0
C2702 C 0.39473 0.17091 0.91452 0.0
C2703 C 0.43449 0.17207 0.90689 0.0
C2704 C 0.38572 0.17139 0.94107 0.0
C2705 C 0.32077 0.16898 0.90363 0.0
C2706 C 0.39701 0.17974 0.95471 0.0
C2707 C 0.38798 0.18034 0.97964 0.0
C2708 C 0.36727 0.17261 0.99138 0.0
C2709 C 0.35662 0.16417 0.97777 0.0
C2710 C 0.36611 0.16353 0.95289 0.0
H2711 H 0.30113 0.17089 0.8879 0.0
H2712 H 0.31362 0.16129 0.90932 0.0
H2713 H 0.31367 0.17402 0.9191 0.0
H2714 H 0.41233 0.18587 0.94596 0.0
H2715 H 0.39661 0.18695 0.98959 0.0
H2716 H 0.43021 0.57003 0.97282 0.0
H2717 H 0.40394 0.56944 0.93109 0.0
H2718 H 0.29603 0.55567 0.9576 0.0
H2719 H 0.32215 0.5561 -0.00063 0.0
H2720 H 0.33203 0.54524 0.92027 0.0
H2721 H 0.31685 0.58486 0.89509 0.0
H2722 H 0.36515 0.5818 0.90722 0.0
H2723 H 0.32175 0.58075 0.92647 0.0
C2724 C 0.40054 0.56706 0.96989 0.0
C2725 C 0.37839 0.56306 0.98945 0.0
C2726 C 0.3855 0.56677 0.94601 0.0
C2727 C 0.34793 0.56257 0.94131 0.0
C2728 C 0.32507 0.55896 0.96089 0.0
H2729 H 0.24198 0.56201 0.79502 0.0
H2730 H 0.25149 0.56372 0.83925 0.0
C2731 C 0.34006 0.55923 0.98475 0.0
C2732 C 0.33427 0.5611 0.91579 0.0
H2733 H 0.31614 0.5732 0.86201 0.0
C2734 C 0.32809 0.55136 0.90759 0.0
C2735 C 0.3288 0.56909 0.89939 0.0
C2736 C 0.33309 0.57972 0.90751 0.0
C2737 C 0.31794 0.54938 0.88315 0.0
C2738 C 0.31446 0.55734 0.86647 0.0
C2739 C 0.31919 0.5671 0.87485 0.0
C2740 C 0.30737 0.5557 0.84003 0.0
C2741 C 0.31116 0.53878 0.87539 0.0
C2742 C 0.33561 0.55058 0.82591 0.0
C2743 C 0.33031 0.54957 0.80065 0.0
C2744 C 0.29674 0.55373 0.78904 0.0
C2745 C 0.26813 0.5587 0.80337 0.0
C2746 C 0.27352 0.55971 0.82863 0.0
H2747 H 0.3039 0.53396 0.8913 0.0
H2748 H 0.28657 0.53825 0.8618 0.0
H2749 H 0.33879 0.53588 0.86676 0.0
H2750 H 0.3623 0.54758 0.83432 0.0
H2751 H 0.353 0.54573 0.79018 0.0
loop_
_geom_bond_atom_site_label_1
_geom_bond_atom_site_label_2
_geom_bond_distance
_geom_bond_site_symmetry_2
_ccdc_geom_bond_type
C0 O1 1.306 . S
C0 O3 1.160 . S
O1 C0 1.306 . S
O1 Cd2 2.228 . S
Cd2 O1 2.228 . S
Cd2 O6 2.273 . S
Cd2 O10 2.277 . S
O3 C0 1.160 . S
O3 Cd4 2.203 . S
Cd4 O3 2.203 . S
Cd4 O6 2.411 . S
Cd4 O7 2.333 . S
Cd4 O8 2.352 . S
Cd4 O12 2.277 . S
Cd4 O13 2.356 . S
C5 O10 1.209 . S
C5 O12 1.226 . S
O6 Cd2 2.273 . S
O6 Cd4 2.411 . S
O6 C9 1.320 . S
O7 Cd4 2.333 . S
O7 C9 1.214 . S
O8 Cd4 2.352 . S
O8 C11 1.258 . S
C9 O6 1.320 . S
C9 O7 1.214 . S
O10 Cd2 2.277 . S
O10 C5 1.209 . S
C11 O8 1.258 . S
C11 O13 1.282 . S
O12 Cd4 2.277 . S
O12 C5 1.226 . S
O13 Cd4 2.356 . S
O13 C11 1.282 . S
C14 O15 1.306 . S
C14 O17 1.160 . S
O15 C14 1.306 . S
O15 Cd16 2.228 . S
Cd16 O15 2.228 . S
Cd16 O20 2.273 . S
Cd16 O24 2.277 . S
O17 C14 1.160 . S
O17 Cd18 2.203 . S
Cd18 O17 2.203 . S
Cd18 O20 2.411 . S
Cd18 O21 2.333 . S
Cd18 O22 2.352 . S
Cd18 O26 2.277 . S
Cd18 O27 2.356 . S
C19 O24 1.209 . S
C19 O26 1.226 . S
O20 Cd16 2.273 . S
O20 Cd18 2.411 . S
O20 C23 1.320 . S
O21 Cd18 2.333 . S
O21 C23 1.214 . S
O22 Cd18 2.352 . S
O22 C25 1.258 . S
C23 O20 1.320 . S
C23 O21 1.214 . S
O24 Cd16 2.277 . S
O24 C19 1.209 . S
C25 O22 1.258 . S
C25 O27 1.282 . S
O26 Cd18 2.277 . S
O26 C19 1.226 . S
O27 Cd18 2.356 . S
O27 C25 1.282 . S
C28 O29 1.306 . S
C28 O31 1.160 . S
O29 C28 1.306 . S
O29 Cd30 2.228 . S
Cd30 O29 2.228 . S
Cd30 O34 2.273 . S
Cd30 O38 2.277 . S
O31 C28 1.160 . S
O31 Cd32 2.203 . S
Cd32 O31 2.203 . S
Cd32 O34 2.411 . S
Cd32 O35 2.333 . S
Cd32 O36 2.352 . S
Cd32 O40 2.277 . S
Cd32 O41 2.356 . S
C33 O38 1.209 1_554 S
C33 O40 1.226 1_554 S
O34 Cd30 2.273 . S
O34 Cd32 2.411 . S
O34 C37 1.320 . S
O35 Cd32 2.333 . S
O35 C37 1.214 . S
O36 Cd32 2.352 . S
O36 C39 1.258 . S
C37 O34 1.320 . S
C37 O35 1.214 . S
O38 Cd30 2.277 . S
O38 C33 1.209 1_556 S
C39 O36 1.258 . S
C39 O41 1.282 . S
O40 Cd32 2.277 . S
O40 C33 1.226 1_556 S
O41 Cd32 2.356 . S
O41 C39 1.282 . S
C42 O43 1.306 . S
C42 O45 1.160 . S
O43 C42 1.306 . S
O43 Cd44 2.228 . S
Cd44 O43 2.228 . S
Cd44 O48 2.273 . S
Cd44 O52 2.277 . S
O45 C42 1.160 . S
O45 Cd46 2.203 . S
Cd46 O45 2.203 . S
Cd46 O48 2.411 . S
Cd46 O49 2.333 . S
Cd46 O50 2.352 . S
Cd46 O54 2.277 . S
Cd46 O55 2.356 . S
C47 O52 1.209 1_554 S
C47 O54 1.226 1_554 S
O48 Cd44 2.273 . S
O48 Cd46 2.411 . S
O48 C51 1.320 . S
O49 Cd46 2.333 . S
O49 C51 1.214 . S
O50 Cd46 2.352 . S
O50 C53 1.258 . S
C51 O48 1.320 . S
C51 O49 1.214 . S
O52 Cd44 2.277 . S
O52 C47 1.209 1_556 S
C53 O50 1.258 . S
C53 O55 1.282 . S
O54 Cd46 2.277 . S
O54 C47 1.226 1_556 S
O55 Cd46 2.356 . S
O55 C53 1.282 . S
C56 O57 1.306 . S
C56 O59 1.160 . S
O57 C56 1.306 . S
O57 Cd58 2.228 . S
Cd58 O57 2.228 . S
Cd58 O62 2.273 . S
Cd58 O66 2.277 . S
O59 C56 1.160 . S
O59 Cd60 2.203 . S
Cd60 O59 2.203 . S
Cd60 O62 2.411 . S
Cd60 O63 2.333 . S
Cd60 O64 2.352 . S
Cd60 O68 2.277 . S
Cd60 O69 2.356 . S
C61 O66 1.209 . S
C61 O68 1.226 . S
O62 Cd58 2.273 . S
O62 Cd60 2.411 . S
O62 C65 1.320 . S
O63 Cd60 2.333 . S
O63 C65 1.214 . S
O64 Cd60 2.352 . S
O64 C67 1.258 . S
C65 O62 1.320 . S
C65 O63 1.214 . S
O66 Cd58 2.277 . S
O66 C61 1.209 . S
C67 O64 1.258 . S
C67 O69 1.282 . S
O68 Cd60 2.277 . S
O68 C61 1.226 . S
O69 Cd60 2.356 . S
O69 C67 1.282 . S
C70 O71 1.306 . S
C70 O73 1.160 . S
O71 C70 1.306 . S
O71 Cd72 2.228 . S
Cd72 O71 2.228 . S
Cd72 O76 2.273 . S
Cd72 O80 2.277 . S
O73 C70 1.160 . S
O73 Cd74 2.203 . S
Cd74 O73 2.203 . S
Cd74 O76 2.411 . S
Cd74 O77 2.333 . S
Cd74 O78 2.352 . S
Cd74 O82 2.277 . S
Cd74 O83 2.356 . S
C75 O80 1.209 . S
C75 O82 1.226 . S
O76 Cd72 2.273 . S
O76 Cd74 2.411 . S
O76 C79 1.320 . S
O77 Cd74 2.333 . S
O77 C79 1.214 . S
O78 Cd74 2.352 . S
O78 C81 1.258 . S
C79 O76 1.320 . S
C79 O77 1.214 . S
O80 Cd72 2.277 . S
O80 C75 1.209 . S
C81 O78 1.258 . S
C81 O83 1.282 . S
O82 Cd74 2.277 . S
O82 C75 1.226 . S
O83 Cd74 2.356 . S
O83 C81 1.282 . S
C84 O85 1.306 . S
C84 O87 1.160 . S
O85 C84 1.306 . S
O85 Cd86 2.228 . S
Cd86 O85 2.228 . S
Cd86 O90 2.273 . S
Cd86 O94 2.277 . S
O87 C84 1.160 . S
O87 Cd88 2.203 . S
Cd88 O87 2.203 . S
Cd88 O90 2.411 . S
Cd88 O91 2.333 . S
Cd88 O92 2.352 . S
Cd88 O96 2.277 . S
Cd88 O97 2.356 . S
C89 O94 1.209 1_556 S
C89 O96 1.226 1_556 S
O90 Cd86 2.273 . S
O90 Cd88 2.411 . S
O90 C93 1.320 . S
O91 Cd88 2.333 . S
O91 C93 1.214 . S
O92 Cd88 2.352 . S
O92 C95 1.258 . S
C93 O90 1.320 . S
C93 O91 1.214 . S
O94 Cd86 2.277 . S
O94 C89 1.209 1_554 S
C95 O92 1.258 . S
C95 O97 1.282 . S
O96 Cd88 2.277 . S
O96 C89 1.226 1_554 S
O97 Cd88 2.356 . S
O97 C95 1.282 . S
C98 O99 1.306 . S
C98 O101 1.160 . S
O99 C98 1.306 . S
O99 Cd100 2.228 . S
Cd100 O99 2.228 . S
Cd100 O104 2.273 . S
Cd100 O108 2.277 . S
O101 C98 1.160 . S
O101 Cd102 2.203 . S
Cd102 O101 2.203 . S
Cd102 O104 2.411 . S
Cd102 O105 2.333 . S
Cd102 O106 2.352 . S
Cd102 O110 2.277 . S
Cd102 O111 2.356 . S
C103 O108 1.209 1_556 S
C103 O110 1.226 1_556 S
O104 Cd100 2.273 . S
O104 Cd102 2.411 . S
O104 C107 1.320 . S
O105 Cd102 2.333 . S
O105 C107 1.214 . S
O106 Cd102 2.352 . S
O106 C109 1.258 . S
C107 O104 1.320 . S
C107 O105 1.214 . S
O108 Cd100 2.277 . S
O108 C103 1.209 1_554 S
C109 O106 1.258 . S
C109 O111 1.282 . S
O110 Cd102 2.277 . S
O110 C103 1.226 1_554 S
O111 Cd102 2.356 . S
O111 C109 1.282 . S
C112 O113 1.306 . S
C112 O115 1.160 . S
O113 C112 1.306 . S
O113 Cd114 2.228 . S
Cd114 O113 2.228 . S
Cd114 O118 2.273 . S
Cd114 O122 2.277 . S
O115 C112 1.160 . S
O115 Cd116 2.203 . S
Cd116 O115 2.203 . S
Cd116 O118 2.411 . S
Cd116 O119 2.333 . S
Cd116 O120 2.352 . S
Cd116 O124 2.277 . S
Cd116 O125 2.356 . S
C117 O122 1.209 . S
C117 O124 1.226 . S
O118 Cd114 2.273 . S
O118 Cd116 2.411 . S
O118 C121 1.320 . S
O119 Cd116 2.333 . S
O119 C121 1.214 . S
O120 Cd116 2.352 . S
O120 C123 1.258 . S
C121 O118 1.320 . S
C121 O119 1.214 . S
O122 Cd114 2.277 . S
O122 C117 1.209 . S
C123 O120 1.258 . S
C123 O125 1.282 . S
O124 Cd116 2.277 . S
O124 C117 1.226 . S
O125 Cd116 2.356 . S
O125 C123 1.282 . S
C126 O127 1.306 . S
C126 O129 1.160 . S
O127 C126 1.306 . S
O127 Cd128 2.228 . S
Cd128 O127 2.228 . S
Cd128 O132 2.273 . S
Cd128 O136 2.277 . S
O129 C126 1.160 . S
O129 Cd130 2.203 . S
Cd130 O129 2.203 . S
Cd130 O132 2.411 . S
Cd130 O133 2.333 . S
Cd130 O134 2.352 . S
Cd130 O138 2.277 . S
Cd130 O139 2.356 . S
C131 O136 1.209 . S
C131 O138 1.226 . S
O132 Cd128 2.273 . S
O132 Cd130 2.411 . S
O132 C135 1.320 . S
O133 Cd130 2.333 . S
O133 C135 1.214 . S
O134 Cd130 2.352 . S
O134 C137 1.258 . S
C135 O132 1.320 . S
C135 O133 1.214 . S
O136 Cd128 2.277 . S
O136 C131 1.209 . S
C137 O134 1.258 . S
C137 O139 1.282 . S
O138 Cd130 2.277 . S
O138 C131 1.226 . S
O139 Cd130 2.356 . S
O139 C137 1.282 . S
C140 O141 1.306 . S
C140 O143 1.160 . S
O141 C140 1.306 . S
O141 Cd142 2.228 . S
Cd142 O141 2.228 . S
Cd142 O146 2.273 . S
Cd142 O150 2.277 . S
O143 C140 1.160 . S
O143 Cd144 2.203 . S
Cd144 O143 2.203 . S
Cd144 O146 2.411 . S
Cd144 O147 2.333 . S
Cd144 O148 2.352 . S
Cd144 O152 2.277 . S
Cd144 O153 2.356 . S
C145 O150 1.209 . S
C145 O152 1.226 . S
O146 Cd142 2.273 . S
O146 Cd144 2.411 . S
O146 C149 1.320 . S
O147 Cd144 2.333 . S
O147 C149 1.214 . S
O148 Cd144 2.352 . S
O148 C151 1.258 . S
C149 O146 1.320 . S
C149 O147 1.214 . S
O150 Cd142 2.277 . S
O150 C145 1.209 . S
C151 O148 1.258 . S
C151 O153 1.282 . S
O152 Cd144 2.277 . S
O152 C145 1.226 . S
O153 Cd144 2.356 . S
O153 C151 1.282 . S
C154 O155 1.306 . S
C154 O157 1.160 . S
O155 C154 1.306 . S
O155 Cd156 2.228 . S
Cd156 O155 2.228 . S
Cd156 O160 2.273 . S
Cd156 O164 2.277 . S
O157 C154 1.160 . S
O157 Cd158 2.203 . S
Cd158 O157 2.203 . S
Cd158 O160 2.411 . S
Cd158 O161 2.333 . S
Cd158 O162 2.352 . S
Cd158 O166 2.277 . S
Cd158 O167 2.356 . S
C159 O164 1.209 . S
C159 O166 1.226 . S
O160 Cd156 2.273 . S
O160 Cd158 2.411 . S
O160 C163 1.320 . S
O161 Cd158 2.333 . S
O161 C163 1.214 . S
O162 Cd158 2.352 . S
O162 C165 1.258 . S
C163 O160 1.320 . S
C163 O161 1.214 . S
O164 Cd156 2.277 . S
O164 C159 1.209 . S
C165 O162 1.258 . S
C165 O167 1.282 . S
O166 Cd158 2.277 . S
O166 C159 1.226 . S
O167 Cd158 2.356 . S
O167 C165 1.282 . S
C168 O169 1.306 . S
C168 O171 1.160 . S
O169 C168 1.306 . S
O169 Cd170 2.228 . S
Cd170 O169 2.228 . S
Cd170 O174 2.273 . S
Cd170 O178 2.277 . S
O171 C168 1.160 . S
O171 Cd172 2.203 . S
Cd172 O171 2.203 . S
Cd172 O174 2.411 . S
Cd172 O175 2.333 . S
Cd172 O176 2.352 . S
Cd172 O180 2.277 . S
Cd172 O181 2.356 . S
C173 O178 1.209 . S
C173 O180 1.226 . S
O174 Cd170 2.273 . S
O174 Cd172 2.411 . S
O174 C177 1.320 . S
O175 Cd172 2.333 . S
O175 C177 1.214 . S
O176 Cd172 2.352 . S
O176 C179 1.258 . S
C177 O174 1.320 . S
C177 O175 1.214 . S
O178 Cd170 2.277 . S
O178 C173 1.209 . S
C179 O176 1.258 . S
C179 O181 1.282 . S
O180 Cd172 2.277 . S
O180 C173 1.226 . S
O181 Cd172 2.356 . S
O181 C179 1.282 . S
C182 O183 1.306 . S
C182 O185 1.160 . S
O183 C182 1.306 . S
O183 Cd184 2.228 . S
Cd184 O183 2.228 . S
Cd184 O188 2.273 . S
Cd184 O192 2.277 . S
O185 C182 1.160 . S
O185 Cd186 2.203 . S
Cd186 O185 2.203 . S
Cd186 O188 2.411 . S
Cd186 O189 2.333 . S
Cd186 O190 2.352 . S
Cd186 O194 2.277 . S
Cd186 O195 2.356 . S
C187 O192 1.209 . S
C187 O194 1.226 . S
O188 Cd184 2.273 . S
O188 Cd186 2.411 . S
O188 C191 1.320 . S
O189 Cd186 2.333 . S
O189 C191 1.214 . S
O190 Cd186 2.352 . S
O190 C193 1.258 . S
C191 O188 1.320 . S
C191 O189 1.214 . S
O192 Cd184 2.277 . S
O192 C187 1.209 . S
C193 O190 1.258 . S
C193 O195 1.282 . S
O194 Cd186 2.277 . S
O194 C187 1.226 . S
O195 Cd186 2.356 . S
O195 C193 1.282 . S
C196 O197 1.306 . S
C196 O199 1.160 . S
O197 C196 1.306 . S
O197 Cd198 2.228 . S
Cd198 O197 2.228 . S
Cd198 O202 2.273 . S
Cd198 O206 2.277 . S
O199 C196 1.160 . S
O199 Cd200 2.203 . S
Cd200 O199 2.203 . S
Cd200 O202 2.411 . S
Cd200 O203 2.333 . S
Cd200 O204 2.352 . S
Cd200 O208 2.277 . S
Cd200 O209 2.356 . S
C201 O206 1.209 . S
C201 O208 1.226 . S
O202 Cd198 2.273 . S
O202 Cd200 2.411 . S
O202 C205 1.320 . S
O203 Cd200 2.333 . S
O203 C205 1.214 . S
O204 Cd200 2.352 . S
O204 C207 1.258 . S
C205 O202 1.320 . S
C205 O203 1.214 . S
O206 Cd198 2.277 . S
O206 C201 1.209 . S
C207 O204 1.258 . S
C207 O209 1.282 . S
O208 Cd200 2.277 . S
O208 C201 1.226 . S
O209 Cd200 2.356 . S
O209 C207 1.282 . S
C210 O211 1.306 . S
C210 O213 1.160 . S
O211 C210 1.306 . S
O211 Cd212 2.228 . S
Cd212 O211 2.228 . S
Cd212 O216 2.273 . S
Cd212 O220 2.277 . S
O213 C210 1.160 . S
O213 Cd214 2.203 . S
Cd214 O213 2.203 . S
Cd214 O216 2.411 . S
Cd214 O217 2.333 . S
Cd214 O218 2.352 . S
Cd214 O222 2.277 . S
Cd214 O223 2.356 . S
C215 O220 1.209 . S
C215 O222 1.226 . S
O216 Cd212 2.273 . S
O216 Cd214 2.411 . S
O216 C219 1.320 . S
O217 Cd214 2.333 . S
O217 C219 1.214 . S
O218 Cd214 2.352 . S
O218 C221 1.258 . S
C219 O216 1.320 . S
C219 O217 1.214 . S
O220 Cd212 2.277 . S
O220 C215 1.209 . S
C221 O218 1.258 . S
C221 O223 1.282 . S
O222 Cd214 2.277 . S
O222 C215 1.226 . S
O223 Cd214 2.356 . S
O223 C221 1.282 . S
C224 O225 1.306 . S
C224 O227 1.160 . S
O225 C224 1.306 . S
O225 Cd226 2.228 . S
Cd226 O225 2.228 . S
Cd226 O230 2.273 . S
Cd226 O234 2.277 . S
O227 C224 1.160 . S
O227 Cd228 2.203 . S
Cd228 O227 2.203 . S
Cd228 O230 2.411 . S
Cd228 O231 2.333 . S
Cd228 O232 2.352 . S
Cd228 O236 2.277 . S
Cd228 O237 2.356 . S
C229 O234 1.209 . S
C229 O236 1.226 . S
O230 Cd226 2.273 . S
O230 Cd228 2.411 . S
O230 C233 1.320 . S
O231 Cd228 2.333 . S
O231 C233 1.214 . S
O232 Cd228 2.352 . S
O232 C235 1.258 . S
C233 O230 1.320 . S
C233 O231 1.214 . S
O234 Cd226 2.277 . S
O234 C229 1.209 . S
C235 O232 1.258 . S
C235 O237 1.282 . S
O236 Cd228 2.277 . S
O236 C229 1.226 . S
O237 Cd228 2.356 . S
O237 C235 1.282 . S
C238 O239 1.306 . S
C238 O241 1.160 . S
O239 C238 1.306 . S
O239 Cd240 2.228 . S
Cd240 O239 2.228 . S
Cd240 O244 2.273 . S
Cd240 O248 2.277 . S
O241 C238 1.160 . S
O241 Cd242 2.203 . S
Cd242 O241 2.203 . S
Cd242 O244 2.411 . S
Cd242 O245 2.333 . S
Cd242 O246 2.352 . S
Cd242 O250 2.277 . S
Cd242 O251 2.356 . S
C243 O248 1.209 . S
C243 O250 1.226 . S
O244 Cd240 2.273 . S
O244 Cd242 2.411 . S
O244 C247 1.320 . S
O245 Cd242 2.333 . S
O245 C247 1.214 . S
O246 Cd242 2.352 . S
O246 C249 1.258 . S
C247 O244 1.320 . S
C247 O245 1.214 . S
O248 Cd240 2.277 . S
O248 C243 1.209 . S
C249 O246 1.258 . S
C249 O251 1.282 . S
O250 Cd242 2.277 . S
O250 C243 1.226 . S
O251 Cd242 2.356 . S
O251 C249 1.282 . S
C252 O253 1.306 . S
C252 O255 1.160 . S
O253 C252 1.306 . S
O253 Cd254 2.228 . S
Cd254 O253 2.228 . S
Cd254 O258 2.273 . S
Cd254 O262 2.277 . S
O255 C252 1.160 . S
O255 Cd256 2.203 . S
Cd256 O255 2.203 . S
Cd256 O258 2.411 . S
Cd256 O259 2.333 . S
Cd256 O260 2.352 . S
Cd256 O264 2.277 . S
Cd256 O265 2.356 . S
C257 O262 1.209 . S
C257 O264 1.226 . S
O258 Cd254 2.273 . S
O258 Cd256 2.411 . S
O258 C261 1.320 . S
O259 Cd256 2.333 . S
O259 C261 1.214 . S
O260 Cd256 2.352 . S
O260 C263 1.258 . S
C261 O258 1.320 . S
C261 O259 1.214 . S
O262 Cd254 2.277 . S
O262 C257 1.209 . S
C263 O260 1.258 . S
C263 O265 1.282 . S
O264 Cd256 2.277 . S
O264 C257 1.226 . S
O265 Cd256 2.356 . S
O265 C263 1.282 . S
C266 O267 1.306 . S
C266 O269 1.160 . S
O267 C266 1.306 . S
O267 Cd268 2.228 . S
Cd268 O267 2.228 . S
Cd268 O272 2.273 . S
Cd268 O276 2.277 . S
O269 C266 1.160 . S
O269 Cd270 2.203 . S
Cd270 O269 2.203 . S
Cd270 O272 2.411 . S
Cd270 O273 2.333 . S
Cd270 O274 2.352 . S
Cd270 O278 2.277 . S
Cd270 O279 2.356 . S
C271 O276 1.209 . S
C271 O278 1.226 . S
O272 Cd268 2.273 . S
O272 Cd270 2.411 . S
O272 C275 1.320 . S
O273 Cd270 2.333 . S
O273 C275 1.214 . S
O274 Cd270 2.352 . S
O274 C277 1.258 . S
C275 O272 1.320 . S
C275 O273 1.214 . S
O276 Cd268 2.277 . S
O276 C271 1.209 . S
C277 O274 1.258 . S
C277 O279 1.282 . S
O278 Cd270 2.277 . S
O278 C271 1.226 . S
O279 Cd270 2.356 . S
O279 C277 1.282 . S
C280 O281 1.306 . S
C280 O283 1.160 . S
O281 C280 1.306 . S
O281 Cd282 2.228 . S
Cd282 O281 2.228 . S
Cd282 O286 2.273 . S
Cd282 O290 2.277 . S
O283 C280 1.160 . S
O283 Cd284 2.203 . S
Cd284 O283 2.203 . S
Cd284 O286 2.411 . S
Cd284 O287 2.333 . S
Cd284 O288 2.352 . S
Cd284 O292 2.277 . S
Cd284 O293 2.356 . S
C285 O290 1.209 . S
C285 O292 1.226 . S
O286 Cd282 2.273 . S
O286 Cd284 2.411 . S
O286 C289 1.320 . S
O287 Cd284 2.333 . S
O287 C289 1.214 . S
O288 Cd284 2.352 . S
O288 C291 1.258 . S
C289 O286 1.320 . S
C289 O287 1.214 . S
O290 Cd282 2.277 . S
O290 C285 1.209 . S
C291 O288 1.258 . S
C291 O293 1.282 . S
O292 Cd284 2.277 . S
O292 C285 1.226 . S
O293 Cd284 2.356 . S
O293 C291 1.282 . S
C294 O295 1.306 . S
C294 O297 1.160 . S
O295 C294 1.306 . S
O295 Cd296 2.228 . S
Cd296 O295 2.228 . S
Cd296 O300 2.273 . S
Cd296 O304 2.277 . S
O297 C294 1.160 . S
O297 Cd298 2.203 . S
Cd298 O297 2.203 . S
Cd298 O300 2.411 . S
Cd298 O301 2.333 . S
Cd298 O302 2.352 . S
Cd298 O306 2.277 . S
Cd298 O307 2.356 . S
C299 O304 1.209 . S
C299 O306 1.226 . S
O300 Cd296 2.273 . S
O300 Cd298 2.411 . S
O300 C303 1.320 . S
O301 Cd298 2.333 . S
O301 C303 1.214 . S
O302 Cd298 2.352 . S
O302 C305 1.258 . S
C303 O300 1.320 . S
C303 O301 1.214 . S
O304 Cd296 2.277 . S
O304 C299 1.209 . S
C305 O302 1.258 . S
C305 O307 1.282 . S
O306 Cd298 2.277 . S
O306 C299 1.226 . S
O307 Cd298 2.356 . S
O307 C305 1.282 . S
C308 O309 1.306 . S
C308 O311 1.160 . S
O309 C308 1.306 . S
O309 Cd310 2.228 . S
Cd310 O309 2.228 . S
Cd310 O314 2.273 . S
Cd310 O318 2.277 . S
O311 C308 1.160 . S
O311 Cd312 2.203 . S
Cd312 O311 2.203 . S
Cd312 O314 2.411 . S
Cd312 O315 2.333 . S
Cd312 O316 2.352 . S
Cd312 O320 2.277 . S
Cd312 O321 2.356 . S
C313 O318 1.209 . S
C313 O320 1.226 . S
O314 Cd310 2.273 . S
O314 Cd312 2.411 . S
O314 C317 1.320 . S
O315 Cd312 2.333 . S
O315 C317 1.214 . S
O316 Cd312 2.352 . S
O316 C319 1.258 . S
C317 O314 1.320 . S
C317 O315 1.214 . S
O318 Cd310 2.277 . S
O318 C313 1.209 . S
C319 O316 1.258 . S
C319 O321 1.282 . S
O320 Cd312 2.277 . S
O320 C313 1.226 . S
O321 Cd312 2.356 . S
O321 C319 1.282 . S
C322 O323 1.306 . S
C322 O325 1.160 . S
O323 C322 1.306 . S
O323 Cd324 2.228 . S
Cd324 O323 2.228 . S
Cd324 O328 2.273 . S
Cd324 O332 2.277 . S
O325 C322 1.160 . S
O325 Cd326 2.203 . S
Cd326 O325 2.203 . S
Cd326 O328 2.411 . S
Cd326 O329 2.333 . S
Cd326 O330 2.352 . S
Cd326 O334 2.277 . S
Cd326 O335 2.356 . S
C327 O332 1.209 . S
C327 O334 1.226 . S
O328 Cd324 2.273 . S
O328 Cd326 2.411 . S
O328 C331 1.320 . S
O329 Cd326 2.333 . S
O329 C331 1.214 . S
O330 Cd326 2.352 . S
O330 C333 1.258 . S
C331 O328 1.320 . S
C331 O329 1.214 . S
O332 Cd324 2.277 . S
O332 C327 1.209 . S
C333 O330 1.258 . S
C333 O335 1.282 . S
O334 Cd326 2.277 . S
O334 C327 1.226 . S
O335 Cd326 2.356 . S
O335 C333 1.282 . S
C336 O337 1.306 . S
C336 O339 1.160 . S
O337 C336 1.306 . S
O337 Cd338 2.228 . S
Cd338 O337 2.228 . S
Cd338 O342 2.273 . S
Cd338 O346 2.277 . S
O339 C336 1.160 . S
O339 Cd340 2.203 . S
Cd340 O339 2.203 . S
Cd340 O342 2.411 . S
Cd340 O343 2.333 . S
Cd340 O344 2.352 . S
Cd340 O348 2.277 . S
Cd340 O349 2.356 . S
C341 O346 1.209 . S
C341 O348 1.226 . S
O342 Cd338 2.273 . S
O342 Cd340 2.411 . S
O342 C345 1.320 . S
O343 Cd340 2.333 . S
O343 C345 1.214 . S
O344 Cd340 2.352 . S
O344 C347 1.258 . S
C345 O342 1.320 . S
C345 O343 1.214 . S
O346 Cd338 2.277 . S
O346 C341 1.209 . S
C347 O344 1.258 . S
C347 O349 1.282 . S
O348 Cd340 2.277 . S
O348 C341 1.226 . S
O349 Cd340 2.356 . S
O349 C347 1.282 . S
C350 O351 1.306 . S
C350 O353 1.160 . S
O351 C350 1.306 . S
O351 Cd352 2.228 . S
Cd352 O351 2.228 . S
Cd352 O356 2.273 . S
Cd352 O360 2.277 . S
O353 C350 1.160 . S
O353 Cd354 2.203 . S
Cd354 O353 2.203 . S
Cd354 O356 2.411 . S
Cd354 O357 2.333 . S
Cd354 O358 2.352 . S
Cd354 O362 2.277 . S
Cd354 O363 2.356 . S
C355 O360 1.209 . S
C355 O362 1.226 . S
O356 Cd352 2.273 . S
O356 Cd354 2.411 . S
O356 C359 1.320 . S
O357 Cd354 2.333 . S
O357 C359 1.214 . S
O358 Cd354 2.352 . S
O358 C361 1.258 . S
C359 O356 1.320 . S
C359 O357 1.214 . S
O360 Cd352 2.277 . S
O360 C355 1.209 . S
C361 O358 1.258 . S
C361 O363 1.282 . S
O362 Cd354 2.277 . S
O362 C355 1.226 . S
O363 Cd354 2.356 . S
O363 C361 1.282 . S
C364 O365 1.306 . S
C364 O367 1.160 . S
O365 C364 1.306 . S
O365 Cd366 2.228 . S
Cd366 O365 2.228 . S
Cd366 O370 2.273 . S
Cd366 O374 2.277 . S
O367 C364 1.160 . S
O367 Cd368 2.203 . S
Cd368 O367 2.203 . S
Cd368 O370 2.411 . S
Cd368 O371 2.333 . S
Cd368 O372 2.352 . S
Cd368 O376 2.277 . S
Cd368 O377 2.356 . S
C369 O374 1.209 1_554 S
C369 O376 1.226 1_554 S
O370 Cd366 2.273 . S
O370 Cd368 2.411 . S
O370 C373 1.320 . S
O371 Cd368 2.333 . S
O371 C373 1.214 . S
O372 Cd368 2.352 . S
O372 C375 1.258 . S
C373 O370 1.320 . S
C373 O371 1.214 . S
O374 Cd366 2.277 . S
O374 C369 1.209 1_556 S
C375 O372 1.258 . S
C375 O377 1.282 . S
O376 Cd368 2.277 . S
O376 C369 1.226 1_556 S
O377 Cd368 2.356 . S
O377 C375 1.282 . S
C378 O379 1.306 . S
C378 O381 1.160 . S
O379 C378 1.306 . S
O379 Cd380 2.228 . S
Cd380 O379 2.228 . S
Cd380 O384 2.273 . S
Cd380 O388 2.277 . S
O381 C378 1.160 . S
O381 Cd382 2.203 . S
Cd382 O381 2.203 . S
Cd382 O384 2.411 . S
Cd382 O385 2.333 . S
Cd382 O386 2.352 . S
Cd382 O390 2.277 . S
Cd382 O391 2.356 . S
C383 O388 1.209 1_554 S
C383 O390 1.226 1_554 S
O384 Cd380 2.273 . S
O384 Cd382 2.411 . S
O384 C387 1.320 . S
O385 Cd382 2.333 . S
O385 C387 1.214 . S
O386 Cd382 2.352 . S
O386 C389 1.258 . S
C387 O384 1.320 . S
C387 O385 1.214 . S
O388 Cd380 2.277 . S
O388 C383 1.209 1_556 S
C389 O386 1.258 . S
C389 O391 1.282 . S
O390 Cd382 2.277 . S
O390 C383 1.226 1_556 S
O391 Cd382 2.356 . S
O391 C389 1.282 . S
C392 O393 1.306 . S
C392 O395 1.160 . S
O393 C392 1.306 . S
O393 Cd394 2.228 . S
Cd394 O393 2.228 . S
Cd394 O398 2.273 . S
Cd394 O402 2.277 . S
O395 C392 1.160 . S
O395 Cd396 2.203 . S
Cd396 O395 2.203 . S
Cd396 O398 2.411 . S
Cd396 O399 2.333 . S
Cd396 O400 2.352 . S
Cd396 O404 2.277 . S
Cd396 O405 2.356 . S
C397 O402 1.209 . S
C397 O404 1.226 . S
O398 Cd394 2.273 . S
O398 Cd396 2.411 . S
O398 C401 1.320 . S
O399 Cd396 2.333 . S
O399 C401 1.214 . S
O400 Cd396 2.352 . S
O400 C403 1.258 . S
C401 O398 1.320 . S
C401 O399 1.214 . S
O402 Cd394 2.277 . S
O402 C397 1.209 . S
C403 O400 1.258 . S
C403 O405 1.282 . S
O404 Cd396 2.277 . S
O404 C397 1.226 . S
O405 Cd396 2.356 . S
O405 C403 1.282 . S
C406 O407 1.306 . S
C406 O409 1.160 . S
O407 C406 1.306 . S
O407 Cd408 2.228 . S
Cd408 O407 2.228 . S
Cd408 O412 2.273 . S
Cd408 O416 2.277 . S
O409 C406 1.160 . S
O409 Cd410 2.203 . S
Cd410 O409 2.203 . S
Cd410 O412 2.411 . S
Cd410 O413 2.333 . S
Cd410 O414 2.352 . S
Cd410 O418 2.277 . S
Cd410 O419 2.356 . S
C411 O416 1.209 . S
C411 O418 1.226 . S
O412 Cd408 2.273 . S
O412 Cd410 2.411 . S
O412 C415 1.320 . S
O413 Cd410 2.333 . S
O413 C415 1.214 . S
O414 Cd410 2.352 . S
O414 C417 1.258 . S
C415 O412 1.320 . S
C415 O413 1.214 . S
O416 Cd408 2.277 . S
O416 C411 1.209 . S
C417 O414 1.258 . S
C417 O419 1.282 . S
O418 Cd410 2.277 . S
O418 C411 1.226 . S
O419 Cd410 2.356 . S
O419 C417 1.282 . S
C420 O421 1.306 . S
C420 O423 1.160 . S
O421 C420 1.306 . S
O421 Cd422 2.228 . S
Cd422 O421 2.228 . S
Cd422 O426 2.273 . S
Cd422 O430 2.277 . S
O423 C420 1.160 . S
O423 Cd424 2.203 . S
Cd424 O423 2.203 . S
Cd424 O426 2.411 . S
Cd424 O427 2.333 . S
Cd424 O428 2.352 . S
Cd424 O432 2.277 . S
Cd424 O433 2.356 . S
C425 O430 1.209 1_556 S
C425 O432 1.226 1_556 S
O426 Cd422 2.273 . S
O426 Cd424 2.411 . S
O426 C429 1.320 . S
O427 Cd424 2.333 . S
O427 C429 1.214 . S
O428 Cd424 2.352 . S
O428 C431 1.258 . S
C429 O426 1.320 . S
C429 O427 1.214 . S
O430 Cd422 2.277 . S
O430 C425 1.209 1_554 S
C431 O428 1.258 . S
C431 O433 1.282 . S
O432 Cd424 2.277 . S
O432 C425 1.226 1_554 S
O433 Cd424 2.356 . S
O433 C431 1.282 . S
C434 O435 1.306 . S
C434 O437 1.160 . S
O435 C434 1.306 . S
O435 Cd436 2.228 . S
Cd436 O435 2.228 . S
Cd436 O440 2.273 . S
Cd436 O444 2.277 . S
O437 C434 1.160 . S
O437 Cd438 2.203 . S
Cd438 O437 2.203 . S
Cd438 O440 2.411 . S
Cd438 O441 2.333 . S
Cd438 O442 2.352 . S
Cd438 O446 2.277 . S
Cd438 O447 2.356 . S
C439 O444 1.209 1_556 S
C439 O446 1.226 1_556 S
O440 Cd436 2.273 . S
O440 Cd438 2.411 . S
O440 C443 1.320 . S
O441 Cd438 2.333 . S
O441 C443 1.214 . S
O442 Cd438 2.352 . S
O442 C445 1.258 . S
C443 O440 1.320 . S
C443 O441 1.214 . S
O444 Cd436 2.277 . S
O444 C439 1.209 1_554 S
C445 O442 1.258 . S
C445 O447 1.282 . S
O446 Cd438 2.277 . S
O446 C439 1.226 1_554 S
O447 Cd438 2.356 . S
O447 C445 1.282 . S
H448 C456 0.929 . S
H449 C458 0.930 . S
H450 C460 0.930 . S
H451 C463 0.929 . S
H452 C466 0.930 . S
H453 C468 0.960 . S
H454 C468 0.960 . S
H455 C468 0.960 . S
C456 H448 0.929 . S
C456 C457 1.377 . S
C456 C458 1.384 . S
C457 C456 1.377 . S
C457 C463 1.390 . S
C458 H449 0.930 . S
C458 C456 1.384 . S
C458 C459 1.372 . S
C459 C458 1.372 . S
C459 C460 1.400 . S
C459 C464 1.490 . S
C460 H450 0.930 . S
C460 C459 1.400 . S
C460 C463 1.386 . S
H461 C477 0.930 . S
H462 C478 0.931 . S
C463 H451 0.929 . S
C463 C457 1.390 . S
C463 C460 1.386 . S
C464 C459 1.490 . S
C464 C466 1.395 . S
C464 C467 1.403 . S
H465 C471 0.930 . S
C466 H452 0.930 . S
C466 C464 1.395 . S
C466 C469 1.403 . S
C467 C464 1.403 . S
C467 C468 1.524 . S
C467 C471 1.400 . S
C468 H453 0.960 . S
C468 H454 0.960 . S
C468 H455 0.960 . S
C468 C467 1.524 . S
C469 C466 1.403 . S
C469 C470 1.392 . S
C469 C473 1.495 . S
C470 C469 1.392 . S
C470 C471 1.385 . S
C470 C472 1.478 . S
C471 H465 0.930 . S
C471 C467 1.400 . S
C471 C470 1.385 . S
C472 C470 1.478 . S
C472 C474 1.381 . S
C472 C478 1.383 . S
C473 C469 1.495 . S
C473 H479 0.959 1_455 S
C473 H480 0.961 1_455 S
C473 H481 0.960 . S
C474 C472 1.381 . S
C474 C475 1.394 . S
C474 H482 0.930 . S
C475 C474 1.394 . S
C475 C476 1.383 . S
C475 H483 0.929 . S
C476 C475 1.383 . S
C476 C477 1.377 . S
C477 H461 0.930 . S
C477 C476 1.377 . S
C477 C478 1.379 . S
C478 H462 0.931 . S
C478 C472 1.383 . S
C478 C477 1.379 . S
H479 C473 0.959 1_655 S
H480 C473 0.961 1_655 S
H481 C473 0.960 . S
H482 C474 0.930 . S
H483 C475 0.929 . S
H484 C492 0.929 . S
H485 C494 0.930 . S
H486 C496 0.930 . S
H487 C499 0.929 . S
H488 C502 0.930 . S
H489 C504 0.960 . S
H490 C504 0.960 . S
H491 C504 0.960 . S
C492 H484 0.929 . S
C492 C493 1.377 . S
C492 C494 1.384 . S
C493 C492 1.377 . S
C493 C499 1.390 . S
C494 H485 0.930 . S
C494 C492 1.384 . S
C494 C495 1.372 . S
C495 C494 1.372 . S
C495 C496 1.400 . S
C495 C500 1.490 . S
C496 H486 0.930 . S
C496 C495 1.400 . S
C496 C499 1.386 . S
H497 C513 0.930 . S
H498 C514 0.931 . S
C499 H487 0.929 . S
C499 C493 1.390 . S
C499 C496 1.386 . S
C500 C495 1.490 . S
C500 C502 1.395 . S
C500 C503 1.403 . S
H501 C507 0.930 . S
C502 H488 0.930 . S
C502 C500 1.395 . S
C502 C505 1.403 . S
C503 C500 1.403 . S
C503 C504 1.524 . S
C503 C507 1.400 . S
C504 H489 0.960 . S
C504 H490 0.960 . S
C504 H491 0.960 . S
C504 C503 1.524 . S
C505 C502 1.403 . S
C505 C506 1.392 . S
C505 C509 1.495 . S
C506 C505 1.392 . S
C506 C507 1.385 . S
C506 C508 1.478 . S
C507 H501 0.930 . S
C507 C503 1.400 . S
C507 C506 1.385 . S
C508 C506 1.478 . S
C508 C510 1.381 . S
C508 C514 1.383 . S
C509 C505 1.495 . S
C509 H515 0.959 . S
C509 H516 0.961 . S
C509 H517 0.960 . S
C510 C508 1.381 . S
C510 C511 1.394 . S
C510 H518 0.930 . S
C511 C510 1.394 . S
C511 C512 1.383 . S
C511 H519 0.929 . S
C512 C511 1.383 . S
C512 C513 1.377 . S
C513 H497 0.930 . S
C513 C512 1.377 . S
C513 C514 1.379 . S
C514 H498 0.931 . S
C514 C508 1.383 . S
C514 C513 1.379 . S
H515 C509 0.959 . S
H516 C509 0.961 . S
H517 C509 0.960 . S
H518 C510 0.930 . S
H519 C511 0.929 . S
H520 C528 0.929 . S
H521 C530 0.930 . S
H522 C532 0.930 . S
H523 C535 0.929 . S
H524 C538 0.930 . S
H525 C540 0.960 . S
H526 C540 0.960 . S
H527 C540 0.960 . S
C528 H520 0.929 . S
C528 C529 1.377 . S
C528 C530 1.384 . S
C529 C528 1.377 . S
C529 C535 1.390 . S
C530 H521 0.930 . S
C530 C528 1.384 . S
C530 C531 1.372 . S
C531 C530 1.372 . S
C531 C532 1.400 . S
C531 C536 1.490 . S
C532 H522 0.930 . S
C532 C531 1.400 . S
C532 C535 1.386 . S
H533 C549 0.930 . S
H534 C550 0.931 . S
C535 H523 0.929 . S
C535 C529 1.390 . S
C535 C532 1.386 . S
C536 C531 1.490 . S
C536 C538 1.395 . S
C536 C539 1.403 . S
H537 C543 0.930 . S
C538 H524 0.930 . S
C538 C536 1.395 . S
C538 C541 1.403 . S
C539 C536 1.403 . S
C539 C540 1.524 . S
C539 C543 1.400 . S
C540 H525 0.960 . S
C540 H526 0.960 . S
C540 H527 0.960 . S
C540 C539 1.524 . S
C541 C538 1.403 . S
C541 C542 1.392 . S
C541 C545 1.495 . S
C542 C541 1.392 . S
C542 C543 1.385 . S
C542 C544 1.478 . S
C543 H537 0.930 . S
C543 C539 1.400 . S
C543 C542 1.385 . S
C544 C542 1.478 . S
C544 C546 1.381 . S
C544 C550 1.383 . S
C545 C541 1.495 . S
C545 H551 0.959 1_455 S
C545 H552 0.961 1_455 S
C545 H553 0.960 . S
C546 C544 1.381 . S
C546 C547 1.394 . S
C546 H554 0.930 . S
C547 C546 1.394 . S
C547 C548 1.383 . S
C547 H555 0.929 . S
C548 C547 1.383 . S
C548 C549 1.377 . S
C549 H533 0.930 . S
C549 C548 1.377 . S
C549 C550 1.379 . S
C550 H534 0.931 . S
C550 C544 1.383 . S
C550 C549 1.379 . S
H551 C545 0.959 1_655 S
H552 C545 0.961 1_655 S
H553 C545 0.960 . S
H554 C546 0.930 . S
H555 C547 0.929 . S
H556 C564 0.929 . S
H557 C566 0.930 . S
H558 C568 0.930 . S
H559 C571 0.929 . S
H560 C574 0.930 . S
H561 C576 0.960 . S
H562 C576 0.960 . S
H563 C576 0.960 . S
C564 H556 0.929 . S
C564 C565 1.377 . S
C564 C566 1.384 . S
C565 C564 1.377 . S
C565 C571 1.390 . S
C566 H557 0.930 . S
C566 C564 1.384 . S
C566 C567 1.372 . S
C567 C566 1.372 . S
C567 C568 1.400 . S
C567 C572 1.490 . S
C568 H558 0.930 . S
C568 C567 1.400 . S
C568 C571 1.386 . S
H569 C585 0.930 . S
H570 C586 0.931 . S
C571 H559 0.929 . S
C571 C565 1.390 . S
C571 C568 1.386 . S
C572 C567 1.490 . S
C572 C574 1.395 . S
C572 C575 1.403 . S
H573 C579 0.930 . S
C574 H560 0.930 . S
C574 C572 1.395 . S
C574 C577 1.403 . S
C575 C572 1.403 . S
C575 C576 1.524 . S
C575 C579 1.400 . S
C576 H561 0.960 . S
C576 H562 0.960 . S
C576 H563 0.960 . S
C576 C575 1.524 . S
C577 C574 1.403 . S
C577 C578 1.392 . S
C577 C581 1.495 . S
C578 C577 1.392 . S
C578 C579 1.385 . S
C578 C580 1.478 . S
C579 H573 0.930 . S
C579 C575 1.400 . S
C579 C578 1.385 . S
C580 C578 1.478 . S
C580 C582 1.381 . S
C580 C586 1.383 . S
C581 C577 1.495 . S
C581 H587 0.959 . S
C581 H588 0.961 . S
C581 H589 0.960 . S
C582 C580 1.381 . S
C582 C583 1.394 . S
C582 H590 0.930 . S
C583 C582 1.394 . S
C583 C584 1.383 . S
C583 H591 0.929 . S
C584 C583 1.383 . S
C584 C585 1.377 . S
C585 H569 0.930 . S
C585 C584 1.377 . S
C585 C586 1.379 . S
C586 H570 0.931 . S
C586 C580 1.383 . S
C586 C585 1.379 . S
H587 C581 0.959 . S
H588 C581 0.961 . S
H589 C581 0.960 . S
H590 C582 0.930 . S
H591 C583 0.929 . S
H592 C600 0.929 . S
H593 C602 0.930 . S
H594 C604 0.930 . S
H595 C607 0.929 . S
H596 C610 0.930 . S
H597 C612 0.960 . S
H598 C612 0.960 . S
H599 C612 0.960 . S
C600 H592 0.929 . S
C600 C601 1.377 . S
C600 C602 1.384 . S
C601 C600 1.377 . S
C601 C607 1.390 . S
C602 H593 0.930 . S
C602 C600 1.384 . S
C602 C603 1.372 . S
C603 C602 1.372 . S
C603 C604 1.400 . S
C603 C608 1.490 . S
C604 H594 0.930 . S
C604 C603 1.400 . S
C604 C607 1.386 . S
H605 C621 0.930 . S
H606 C622 0.931 . S
C607 H595 0.929 . S
C607 C601 1.390 . S
C607 C604 1.386 . S
C608 C603 1.490 . S
C608 C610 1.395 . S
C608 C611 1.403 . S
H609 C615 0.930 . S
C610 H596 0.930 . S
C610 C608 1.395 . S
C610 C613 1.403 . S
C611 C608 1.403 . S
C611 C612 1.524 . S
C611 C615 1.400 . S
C612 H597 0.960 . S
C612 H598 0.960 . S
C612 H599 0.960 . S
C612 C611 1.524 . S
C613 C610 1.403 . S
C613 C614 1.392 . S
C613 C617 1.495 . S
C614 C613 1.392 . S
C614 C615 1.385 . S
C614 C616 1.478 . S
C615 H609 0.930 . S
C615 C611 1.400 . S
C615 C614 1.385 . S
C616 C614 1.478 . S
C616 C618 1.381 . S
C616 C622 1.383 . S
C617 C613 1.495 . S
C617 H623 0.959 . S
C617 H624 0.961 . S
C617 H625 0.960 . S
C618 C616 1.381 . S
C618 C619 1.394 . S
C618 H626 0.930 . S
C619 C618 1.394 . S
C619 C620 1.383 . S
C619 H627 0.929 . S
C620 C619 1.383 . S
C620 C621 1.377 . S
C621 H605 0.930 . S
C621 C620 1.377 . S
C621 C622 1.379 . S
C622 H606 0.931 . S
C622 C616 1.383 . S
C622 C621 1.379 . S
H623 C617 0.959 . S
H624 C617 0.961 . S
H625 C617 0.960 . S
H626 C618 0.930 . S
H627 C619 0.929 . S
H628 C636 0.929 . S
H629 C638 0.930 . S
H630 C640 0.930 . S
H631 C643 0.929 . S
H632 C646 0.930 . S
H633 C648 0.960 . S
H634 C648 0.960 . S
H635 C648 0.960 . S
C636 H628 0.929 . S
C636 C637 1.377 . S
C636 C638 1.384 . S
C637 C636 1.377 . S
C637 C643 1.390 . S
C638 H629 0.930 . S
C638 C636 1.384 . S
C638 C639 1.372 . S
C639 C638 1.372 . S
C639 C640 1.400 . S
C639 C644 1.490 . S
C640 H630 0.930 . S
C640 C639 1.400 . S
C640 C643 1.386 . S
H641 C657 0.930 . S
H642 C658 0.931 . S
C643 H631 0.929 . S
C643 C637 1.390 . S
C643 C640 1.386 . S
C644 C639 1.490 . S
C644 C646 1.395 . S
C644 C647 1.403 . S
H645 C651 0.930 . S
C646 H632 0.930 . S
C646 C644 1.395 . S
C646 C649 1.403 . S
C647 C644 1.403 . S
C647 C648 1.524 . S
C647 C651 1.400 . S
C648 H633 0.960 . S
C648 H634 0.960 . S
C648 H635 0.960 . S
C648 C647 1.524 . S
C649 C646 1.403 . S
C649 C650 1.392 . S
C649 C653 1.495 . S
C650 C649 1.392 . S
C650 C651 1.385 . S
C650 C652 1.478 . S
C651 H645 0.930 . S
C651 C647 1.400 . S
C651 C650 1.385 . S
C652 C650 1.478 . S
C652 C654 1.381 . S
C652 C658 1.383 . S
C653 C649 1.495 . S
C653 H659 0.959 . S
C653 H660 0.961 . S
C653 H661 0.960 . S
C654 C652 1.381 . S
C654 C655 1.394 . S
C654 H662 0.930 . S
C655 C654 1.394 . S
C655 C656 1.383 . S
C655 H663 0.929 . S
C656 C655 1.383 . S
C656 C657 1.377 . S
C657 H641 0.930 . S
C657 C656 1.377 . S
C657 C658 1.379 . S
C658 H642 0.931 . S
C658 C652 1.383 . S
C658 C657 1.379 . S
H659 C653 0.959 . S
H660 C653 0.961 . S
H661 C653 0.960 . S
H662 C654 0.930 . S
H663 C655 0.929 . S
H664 C672 0.929 . S
H665 C674 0.930 . S
H666 C676 0.930 . S
H667 C679 0.929 . S
H668 C682 0.930 . S
H669 C684 0.960 . S
H670 C684 0.960 . S
H671 C684 0.960 . S
C672 H664 0.929 . S
C672 C673 1.377 . S
C672 C674 1.384 . S
C673 C672 1.377 . S
C673 C679 1.390 . S
C674 H665 0.930 . S
C674 C672 1.384 . S
C674 C675 1.372 . S
C675 C674 1.372 . S
C675 C676 1.400 . S
C675 C680 1.490 . S
C676 H666 0.930 . S
C676 C675 1.400 . S
C676 C679 1.386 . S
H677 C693 0.930 . S
H678 C694 0.931 . S
C679 H667 0.929 . S
C679 C673 1.390 . S
C679 C676 1.386 . S
C680 C675 1.490 . S
C680 C682 1.395 . S
C680 C683 1.403 . S
H681 C687 0.930 . S
C682 H668 0.930 . S
C682 C680 1.395 . S
C682 C685 1.403 . S
C683 C680 1.403 . S
C683 C684 1.524 . S
C683 C687 1.400 . S
C684 H669 0.960 . S
C684 H670 0.960 . S
C684 H671 0.960 . S
C684 C683 1.524 . S
C685 C682 1.403 . S
C685 C686 1.392 . S
C685 C689 1.495 1_655 S
C686 C685 1.392 . S
C686 C687 1.385 . S
C686 C688 1.478 . S
C687 H681 0.930 . S
C687 C683 1.400 . S
C687 C686 1.385 . S
C688 C686 1.478 . S
C688 C690 1.381 . S
C688 C694 1.383 . S
C689 C685 1.495 1_455 S
C689 H695 0.959 . S
C689 H696 0.961 . S
C689 H697 0.960 . S
C690 C688 1.381 . S
C690 C691 1.394 . S
C690 H698 0.930 . S
C691 C690 1.394 . S
C691 C692 1.383 . S
C691 H699 0.929 . S
C692 C691 1.383 . S
C692 C693 1.377 . S
C693 H677 0.930 . S
C693 C692 1.377 . S
C693 C694 1.379 . S
C694 H678 0.931 . S
C694 C688 1.383 . S
C694 C693 1.379 . S
H695 C689 0.959 . S
H696 C689 0.961 . S
H697 C689 0.960 . S
H698 C690 0.930 . S
H699 C691 0.929 . S
H700 C708 0.929 . S
H701 C710 0.930 . S
H702 C712 0.930 . S
H703 C715 0.929 . S
H704 C718 0.930 . S
H705 C720 0.960 . S
H706 C720 0.960 . S
H707 C720 0.960 . S
C708 H700 0.929 . S
C708 C709 1.377 . S
C708 C710 1.384 . S
C709 C708 1.377 . S
C709 C715 1.390 . S
C710 H701 0.930 . S
C710 C708 1.384 . S
C710 C711 1.372 . S
C711 C710 1.372 . S
C711 C712 1.400 . S
C711 C716 1.490 . S
C712 H702 0.930 . S
C712 C711 1.400 . S
C712 C715 1.386 . S
H713 C729 0.930 . S
H714 C730 0.931 . S
C715 H703 0.929 . S
C715 C709 1.390 . S
C715 C712 1.386 . S
C716 C711 1.490 . S
C716 C718 1.395 . S
C716 C719 1.403 . S
H717 C723 0.930 . S
C718 H704 0.930 . S
C718 C716 1.395 . S
C718 C721 1.403 . S
C719 C716 1.403 . S
C719 C720 1.524 . S
C719 C723 1.400 . S
C720 H705 0.960 . S
C720 H706 0.960 . S
C720 H707 0.960 . S
C720 C719 1.524 . S
C721 C718 1.403 . S
C721 C722 1.392 . S
C721 C725 1.495 . S
C722 C721 1.392 . S
C722 C723 1.385 . S
C722 C724 1.478 . S
C723 H717 0.930 . S
C723 C719 1.400 . S
C723 C722 1.385 . S
C724 C722 1.478 . S
C724 C726 1.381 . S
C724 C730 1.383 . S
C725 C721 1.495 . S
C725 H731 0.959 . S
C725 H732 0.961 . S
C725 H733 0.960 . S
C726 C724 1.381 . S
C726 C727 1.394 . S
C726 H734 0.930 . S
C727 C726 1.394 . S
C727 C728 1.383 . S
C727 H735 0.929 . S
C728 C727 1.383 . S
C728 C729 1.377 . S
C729 H713 0.930 . S
C729 C728 1.377 . S
C729 C730 1.379 . S
C730 H714 0.931 . S
C730 C724 1.383 . S
C730 C729 1.379 . S
H731 C725 0.959 . S
H732 C725 0.961 . S
H733 C725 0.960 . S
H734 C726 0.930 . S
H735 C727 0.929 . S
H736 C744 0.929 . S
H737 C746 0.930 . S
H738 C748 0.930 . S
H739 C751 0.929 . S
H740 C754 0.930 . S
H741 C756 0.960 . S
H742 C756 0.960 . S
H743 C756 0.960 . S
C744 H736 0.929 . S
C744 C745 1.377 . S
C744 C746 1.384 . S
C745 C744 1.377 . S
C745 C751 1.390 . S
C746 H737 0.930 . S
C746 C744 1.384 . S
C746 C747 1.372 . S
C747 C746 1.372 . S
C747 C748 1.400 . S
C747 C752 1.490 . S
C748 H738 0.930 . S
C748 C747 1.400 . S
C748 C751 1.386 . S
H749 C765 0.930 . S
H750 C766 0.931 . S
C751 H739 0.929 . S
C751 C745 1.390 . S
C751 C748 1.386 . S
C752 C747 1.490 . S
C752 C754 1.395 . S
C752 C755 1.403 . S
H753 C759 0.930 . S
C754 H740 0.930 . S
C754 C752 1.395 . S
C754 C757 1.403 . S
C755 C752 1.403 . S
C755 C756 1.524 . S
C755 C759 1.400 . S
C756 H741 0.960 . S
C756 H742 0.960 . S
C756 H743 0.960 . S
C756 C755 1.524 . S
C757 C754 1.403 . S
C757 C758 1.392 . S
C757 C761 1.495 . S
C758 C757 1.392 . S
C758 C759 1.385 . S
C758 C760 1.478 . S
C759 H753 0.930 . S
C759 C755 1.400 . S
C759 C758 1.385 . S
C760 C758 1.478 . S
C760 C762 1.381 . S
C760 C766 1.383 . S
C761 C757 1.495 . S
C761 H767 0.959 . S
C761 H768 0.961 . S
C761 H769 0.960 . S
C762 C760 1.381 . S
C762 C763 1.394 . S
C762 H770 0.930 . S
C763 C762 1.394 . S
C763 C764 1.383 . S
C763 H771 0.929 . S
C764 C763 1.383 . S
C764 C765 1.377 . S
C765 H749 0.930 . S
C765 C764 1.377 . S
C765 C766 1.379 . S
C766 H750 0.931 . S
C766 C760 1.383 . S
C766 C765 1.379 . S
H767 C761 0.959 . S
H768 C761 0.961 . S
H769 C761 0.960 . S
H770 C762 0.930 . S
H771 C763 0.929 . S
H772 C780 0.929 . S
H773 C782 0.930 . S
H774 C784 0.930 . S
H775 C787 0.929 . S
H776 C790 0.930 . S
H777 C792 0.960 . S
H778 C792 0.960 . S
H779 C792 0.960 . S
C780 H772 0.929 . S
C780 C781 1.377 . S
C780 C782 1.384 . S
C781 C780 1.377 . S
C781 C787 1.390 . S
C782 H773 0.930 . S
C782 C780 1.384 . S
C782 C783 1.372 . S
C783 C782 1.372 . S
C783 C784 1.400 . S
C783 C788 1.490 . S
C784 H774 0.930 . S
C784 C783 1.400 . S
C784 C787 1.386 . S
H785 C801 0.930 . S
H786 C802 0.931 . S
C787 H775 0.929 . S
C787 C781 1.390 . S
C787 C784 1.386 . S
C788 C783 1.490 . S
C788 C790 1.395 . S
C788 C791 1.403 . S
H789 C795 0.930 . S
C790 H776 0.930 . S
C790 C788 1.395 . S
C790 C793 1.403 . S
C791 C788 1.403 . S
C791 C792 1.524 . S
C791 C795 1.400 . S
C792 H777 0.960 . S
C792 H778 0.960 . S
C792 H779 0.960 . S
C792 C791 1.524 . S
C793 C790 1.403 . S
C793 C794 1.392 . S
C793 C797 1.495 . S
C794 C793 1.392 . S
C794 C795 1.385 . S
C794 C796 1.478 . S
C795 H789 0.930 . S
C795 C791 1.400 . S
C795 C794 1.385 . S
C796 C794 1.478 . S
C796 C798 1.381 . S
C796 C802 1.383 . S
C797 C793 1.495 . S
C797 H803 0.959 . S
C797 H804 0.961 . S
C797 H805 0.960 . S
C798 C796 1.381 . S
C798 C799 1.394 . S
C798 H806 0.930 . S
C799 C798 1.394 . S
C799 C800 1.383 . S
C799 H807 0.929 . S
C800 C799 1.383 . S
C800 C801 1.377 . S
C801 H785 0.930 . S
C801 C800 1.377 . S
C801 C802 1.379 . S
C802 H786 0.931 . S
C802 C796 1.383 . S
C802 C801 1.379 . S
H803 C797 0.959 . S
H804 C797 0.961 . S
H805 C797 0.960 . S
H806 C798 0.930 . S
H807 C799 0.929 . S
H808 C816 0.929 . S
H809 C818 0.930 . S
H810 C820 0.930 . S
H811 C823 0.929 . S
H812 C826 0.930 . S
H813 C828 0.960 . S
H814 C828 0.960 . S
H815 C828 0.960 . S
C816 H808 0.929 . S
C816 C817 1.377 . S
C816 C818 1.384 . S
C817 C816 1.377 . S
C817 C823 1.390 . S
C818 H809 0.930 . S
C818 C816 1.384 . S
C818 C819 1.372 . S
C819 C818 1.372 . S
C819 C820 1.400 . S
C819 C824 1.490 . S
C820 H810 0.930 . S
C820 C819 1.400 . S
C820 C823 1.386 . S
H821 C837 0.930 . S
H822 C838 0.931 . S
C823 H811 0.929 . S
C823 C817 1.390 . S
C823 C820 1.386 . S
C824 C819 1.490 . S
C824 C826 1.395 . S
C824 C827 1.403 . S
H825 C831 0.930 . S
C826 H812 0.930 . S
C826 C824 1.395 . S
C826 C829 1.403 . S
C827 C824 1.403 . S
C827 C828 1.524 . S
C827 C831 1.400 . S
C828 H813 0.960 . S
C828 H814 0.960 . S
C828 H815 0.960 . S
C828 C827 1.524 . S
C829 C826 1.403 . S
C829 C830 1.392 . S
C829 C833 1.495 . S
C830 C829 1.392 . S
C830 C831 1.385 . S
C830 C832 1.478 . S
C831 H825 0.930 . S
C831 C827 1.400 . S
C831 C830 1.385 . S
C832 C830 1.478 . S
C832 C834 1.381 . S
C832 C838 1.383 . S
C833 C829 1.495 . S
C833 H839 0.959 . S
C833 H840 0.961 . S
C833 H841 0.960 . S
C834 C832 1.381 . S
C834 C835 1.394 . S
C834 H842 0.930 . S
C835 C834 1.394 . S
C835 C836 1.383 . S
C835 H843 0.929 . S
C836 C835 1.383 . S
C836 C837 1.377 . S
C837 H821 0.930 . S
C837 C836 1.377 . S
C837 C838 1.379 . S
C838 H822 0.931 . S
C838 C832 1.383 . S
C838 C837 1.379 . S
H839 C833 0.959 . S
H840 C833 0.961 . S
H841 C833 0.960 . S
H842 C834 0.930 . S
H843 C835 0.929 . S
H844 C852 0.929 . S
H845 C854 0.930 . S
H846 C856 0.930 . S
H847 C859 0.929 . S
H848 C862 0.930 . S
H849 C864 0.960 . S
H850 C864 0.960 . S
H851 C864 0.960 . S
C852 H844 0.929 . S
C852 C853 1.377 . S
C852 C854 1.384 . S
C853 C852 1.377 . S
C853 C859 1.390 . S
C854 H845 0.930 . S
C854 C852 1.384 . S
C854 C855 1.372 . S
C855 C854 1.372 . S
C855 C856 1.400 . S
C855 C860 1.490 . S
C856 H846 0.930 . S
C856 C855 1.400 . S
C856 C859 1.386 . S
H857 C873 0.930 . S
H858 C874 0.931 . S
C859 H847 0.929 . S
C859 C853 1.390 . S
C859 C856 1.386 . S
C860 C855 1.490 . S
C860 C862 1.395 . S
C860 C863 1.403 . S
H861 C867 0.930 . S
C862 H848 0.930 . S
C862 C860 1.395 . S
C862 C865 1.403 . S
C863 C860 1.403 . S
C863 C864 1.524 . S
C863 C867 1.400 . S
C864 H849 0.960 . S
C864 H850 0.960 . S
C864 H851 0.960 . S
C864 C863 1.524 . S
C865 C862 1.403 . S
C865 C866 1.392 . S
C865 C869 1.495 . S
C866 C865 1.392 . S
C866 C867 1.385 . S
C866 C868 1.478 . S
C867 H861 0.930 . S
C867 C863 1.400 . S
C867 C866 1.385 . S
C868 C866 1.478 . S
C868 C870 1.381 . S
C868 C874 1.383 . S
C869 C865 1.495 . S
C869 H875 0.959 . S
C869 H876 0.961 . S
C869 H877 0.960 . S
C870 C868 1.381 . S
C870 C871 1.394 . S
C870 H878 0.930 . S
C871 C870 1.394 . S
C871 C872 1.383 . S
C871 H879 0.929 . S
C872 C871 1.383 . S
C872 C873 1.377 . S
C873 H857 0.930 . S
C873 C872 1.377 . S
C873 C874 1.379 . S
C874 H858 0.931 . S
C874 C868 1.383 . S
C874 C873 1.379 . S
H875 C869 0.959 . S
H876 C869 0.961 . S
H877 C869 0.960 . S
H878 C870 0.930 . S
H879 C871 0.929 . S
H880 C888 0.929 . S
H881 C890 0.930 . S
H882 C892 0.930 . S
H883 C895 0.929 . S
H884 C898 0.930 . S
H885 C900 0.960 . S
H886 C900 0.960 . S
H887 C900 0.960 . S
C888 H880 0.929 . S
C888 C889 1.377 . S
C888 C890 1.384 . S
C889 C888 1.377 . S
C889 C895 1.390 . S
C890 H881 0.930 . S
C890 C888 1.384 . S
C890 C891 1.372 . S
C891 C890 1.372 . S
C891 C892 1.400 . S
C891 C896 1.490 . S
C892 H882 0.930 . S
C892 C891 1.400 . S
C892 C895 1.386 . S
H893 C909 0.930 . S
H894 C910 0.931 . S
C895 H883 0.929 . S
C895 C889 1.390 . S
C895 C892 1.386 . S
C896 C891 1.490 . S
C896 C898 1.395 . S
C896 C899 1.403 . S
H897 C903 0.930 . S
C898 H884 0.930 . S
C898 C896 1.395 . S
C898 C901 1.403 . S
C899 C896 1.403 . S
C899 C900 1.524 . S
C899 C903 1.400 . S
C900 H885 0.960 . S
C900 H886 0.960 . S
C900 H887 0.960 . S
C900 C899 1.524 . S
C901 C898 1.403 . S
C901 C902 1.392 . S
C901 C905 1.495 . S
C902 C901 1.392 . S
C902 C903 1.385 . S
C902 C904 1.478 . S
C903 H897 0.930 . S
C903 C899 1.400 . S
C903 C902 1.385 . S
C904 C902 1.478 . S
C904 C906 1.381 . S
C904 C910 1.383 . S
C905 C901 1.495 . S
C905 H911 0.959 . S
C905 H912 0.961 . S
C905 H913 0.960 . S
C906 C904 1.381 . S
C906 C907 1.394 . S
C906 H914 0.930 . S
C907 C906 1.394 . S
C907 C908 1.383 . S
C907 H915 0.929 . S
C908 C907 1.383 . S
C908 C909 1.377 . S
C909 H893 0.930 . S
C909 C908 1.377 . S
C909 C910 1.379 . S
C910 H894 0.931 . S
C910 C904 1.383 . S
C910 C909 1.379 . S
H911 C905 0.959 . S
H912 C905 0.961 . S
H913 C905 0.960 . S
H914 C906 0.930 . S
H915 C907 0.929 . S
H916 C924 0.929 . S
H917 C926 0.930 . S
H918 C928 0.930 . S
H919 C931 0.929 . S
H920 C934 0.930 . S
H921 C936 0.960 . S
H922 C936 0.960 . S
H923 C936 0.960 . S
C924 H916 0.929 . S
C924 C925 1.377 . S
C924 C926 1.384 . S
C925 C924 1.377 . S
C925 C931 1.390 . S
C926 H917 0.930 . S
C926 C924 1.384 . S
C926 C927 1.372 . S
C927 C926 1.372 . S
C927 C928 1.400 . S
C927 C932 1.490 . S
C928 H918 0.930 . S
C928 C927 1.400 . S
C928 C931 1.386 . S
H929 C945 0.930 . S
H930 C946 0.931 . S
C931 H919 0.929 . S
C931 C925 1.390 . S
C931 C928 1.386 . S
C932 C927 1.490 . S
C932 C934 1.395 . S
C932 C935 1.403 . S
H933 C939 0.930 . S
C934 H920 0.930 . S
C934 C932 1.395 . S
C934 C937 1.403 . S
C935 C932 1.403 . S
C935 C936 1.524 . S
C935 C939 1.400 . S
C936 H921 0.960 . S
C936 H922 0.960 . S
C936 H923 0.960 . S
C936 C935 1.524 . S
C937 C934 1.403 . S
C937 C938 1.392 . S
C937 C941 1.495 . S
C938 C937 1.392 . S
C938 C939 1.385 . S
C938 C940 1.478 . S
C939 H933 0.930 . S
C939 C935 1.400 . S
C939 C938 1.385 . S
C940 C938 1.478 . S
C940 C942 1.381 . S
C940 C946 1.383 . S
C941 C937 1.495 . S
C941 H947 0.959 . S
C941 H948 0.961 . S
C941 H949 0.960 . S
C942 C940 1.381 . S
C942 C943 1.394 . S
C942 H950 0.930 . S
C943 C942 1.394 . S
C943 C944 1.383 . S
C943 H951 0.929 . S
C944 C943 1.383 . S
C944 C945 1.377 . S
C945 H929 0.930 . S
C945 C944 1.377 . S
C945 C946 1.379 . S
C946 H930 0.931 . S
C946 C940 1.383 . S
C946 C945 1.379 . S
H947 C941 0.959 . S
H948 C941 0.961 . S
H949 C941 0.960 . S
H950 C942 0.930 . S
H951 C943 0.929 . S
H952 C960 0.929 . S
H953 C962 0.930 . S
H954 C964 0.930 . S
H955 C967 0.929 . S
H956 C970 0.930 . S
H957 C972 0.960 . S
H958 C972 0.960 . S
H959 C972 0.960 . S
C960 H952 0.929 . S
C960 C961 1.377 . S
C960 C962 1.384 . S
C961 C960 1.377 . S
C961 C967 1.390 . S
C962 H953 0.930 . S
C962 C960 1.384 . S
C962 C963 1.372 . S
C963 C962 1.372 . S
C963 C964 1.400 . S
C963 C968 1.490 . S
C964 H954 0.930 . S
C964 C963 1.400 . S
C964 C967 1.386 . S
H965 C981 0.930 . S
H966 C982 0.931 . S
C967 H955 0.929 . S
C967 C961 1.390 . S
C967 C964 1.386 . S
C968 C963 1.490 . S
C968 C970 1.395 . S
C968 C971 1.403 . S
H969 C975 0.930 . S
C970 H956 0.930 . S
C970 C968 1.395 . S
C970 C973 1.403 . S
C971 C968 1.403 . S
C971 C972 1.524 . S
C971 C975 1.400 . S
C972 H957 0.960 . S
C972 H958 0.960 . S
C972 H959 0.960 . S
C972 C971 1.524 . S
C973 C970 1.403 . S
C973 C974 1.392 . S
C973 C977 1.495 . S
C974 C973 1.392 . S
C974 C975 1.385 . S
C974 C976 1.478 . S
C975 H969 0.930 . S
C975 C971 1.400 . S
C975 C974 1.385 . S
C976 C974 1.478 . S
C976 C978 1.381 . S
C976 C982 1.383 . S
C977 C973 1.495 . S
C977 H983 0.959 . S
C977 H984 0.961 . S
C977 H985 0.960 . S
C978 C976 1.381 . S
C978 C979 1.394 . S
C978 H986 0.930 . S
C979 C978 1.394 . S
C979 C980 1.383 . S
C979 H987 0.929 . S
C980 C979 1.383 . S
C980 C981 1.377 . S
C981 H965 0.930 . S
C981 C980 1.377 . S
C981 C982 1.379 . S
C982 H966 0.931 . S
C982 C976 1.383 . S
C982 C981 1.379 . S
H983 C977 0.959 . S
H984 C977 0.961 . S
H985 C977 0.960 . S
H986 C978 0.930 . S
H987 C979 0.929 . S
H988 C996 0.929 . S
H989 C998 0.930 . S
H990 C1000 0.930 . S
H991 C1003 0.929 . S
H992 C1006 0.930 . S
H993 C1008 0.960 . S
H994 C1008 0.960 . S
H995 C1008 0.960 . S
C996 H988 0.929 . S
C996 C997 1.377 . S
C996 C998 1.384 . S
C997 C996 1.377 . S
C997 C1003 1.390 . S
C998 H989 0.930 . S
C998 C996 1.384 . S
C998 C999 1.372 . S
C999 C998 1.372 . S
C999 C1000 1.400 . S
C999 C1004 1.490 . S
C1000 H990 0.930 . S
C1000 C999 1.400 . S
C1000 C1003 1.386 . S
H1001 C1017 0.930 . S
H1002 C1018 0.931 . S
C1003 H991 0.929 . S
C1003 C997 1.390 . S
C1003 C1000 1.386 . S
C1004 C999 1.490 . S
C1004 C1006 1.395 . S
C1004 C1007 1.403 . S
H1005 C1011 0.930 . S
C1006 H992 0.930 . S
C1006 C1004 1.395 . S
C1006 C1009 1.403 . S
C1007 C1004 1.403 . S
C1007 C1008 1.524 . S
C1007 C1011 1.400 . S
C1008 H993 0.960 . S
C1008 H994 0.960 . S
C1008 H995 0.960 . S
C1008 C1007 1.524 . S
C1009 C1006 1.403 . S
C1009 C1010 1.392 . S
C1009 C1013 1.495 . S
C1010 C1009 1.392 . S
C1010 C1011 1.385 . S
C1010 C1012 1.478 . S
C1011 H1005 0.930 . S
C1011 C1007 1.400 . S
C1011 C1010 1.385 . S
C1012 C1010 1.478 . S
C1012 C1014 1.381 . S
C1012 C1018 1.383 . S
C1013 C1009 1.495 . S
C1013 H1019 0.959 . S
C1013 H1020 0.961 . S
C1013 H1021 0.960 . S
C1014 C1012 1.381 . S
C1014 C1015 1.394 . S
C1014 H1022 0.930 . S
C1015 C1014 1.394 . S
C1015 C1016 1.383 . S
C1015 H1023 0.929 . S
C1016 C1015 1.383 . S
C1016 C1017 1.377 . S
C1017 H1001 0.930 . S
C1017 C1016 1.377 . S
C1017 C1018 1.379 . S
C1018 H1002 0.931 . S
C1018 C1012 1.383 . S
C1018 C1017 1.379 . S
H1019 C1013 0.959 . S
H1020 C1013 0.961 . S
H1021 C1013 0.960 . S
H1022 C1014 0.930 . S
H1023 C1015 0.929 . S
H1024 C1032 0.929 . S
H1025 C1034 0.930 . S
H1026 C1036 0.930 . S
H1027 C1039 0.929 . S
H1028 C1042 0.930 . S
H1029 C1044 0.960 . S
H1030 C1044 0.960 . S
H1031 C1044 0.960 . S
C1032 H1024 0.929 . S
C1032 C1033 1.377 . S
C1032 C1034 1.384 . S
C1033 C1032 1.377 . S
C1033 C1039 1.390 . S
C1034 H1025 0.930 . S
C1034 C1032 1.384 . S
C1034 C1035 1.372 . S
C1035 C1034 1.372 . S
C1035 C1036 1.400 . S
C1035 C1040 1.490 . S
C1036 H1026 0.930 . S
C1036 C1035 1.400 . S
C1036 C1039 1.386 . S
H1037 C1053 0.930 . S
H1038 C1054 0.931 . S
C1039 H1027 0.929 . S
C1039 C1033 1.390 . S
C1039 C1036 1.386 . S
C1040 C1035 1.490 . S
C1040 C1042 1.395 . S
C1040 C1043 1.403 . S
H1041 C1047 0.930 . S
C1042 H1028 0.930 . S
C1042 C1040 1.395 . S
C1042 C1045 1.403 . S
C1043 C1040 1.403 . S
C1043 C1044 1.524 . S
C1043 C1047 1.400 . S
C1044 H1029 0.960 . S
C1044 H1030 0.960 . S
C1044 H1031 0.960 . S
C1044 C1043 1.524 . S
C1045 C1042 1.403 . S
C1045 C1046 1.392 . S
C1045 C1049 1.495 . S
C1046 C1045 1.392 . S
C1046 C1047 1.385 . S
C1046 C1048 1.478 . S
C1047 H1041 0.930 . S
C1047 C1043 1.400 . S
C1047 C1046 1.385 . S
C1048 C1046 1.478 . S
C1048 C1050 1.381 . S
C1048 C1054 1.383 . S
C1049 C1045 1.495 . S
C1049 H1055 0.959 . S
C1049 H1056 0.961 . S
C1049 H1057 0.960 . S
C1050 C1048 1.381 . S
C1050 C1051 1.394 . S
C1050 H1058 0.930 . S
C1051 C1050 1.394 . S
C1051 C1052 1.383 . S
C1051 H1059 0.929 . S
C1052 C1051 1.383 . S
C1052 C1053 1.377 . S
C1053 H1037 0.930 . S
C1053 C1052 1.377 . S
C1053 C1054 1.379 . S
C1054 H1038 0.931 . S
C1054 C1048 1.383 . S
C1054 C1053 1.379 . S
H1055 C1049 0.959 . S
H1056 C1049 0.961 . S
H1057 C1049 0.960 . S
H1058 C1050 0.930 . S
H1059 C1051 0.929 . S
H1060 C1068 0.929 . S
H1061 C1070 0.930 . S
H1062 C1072 0.930 . S
H1063 C1075 0.929 . S
H1064 C1078 0.930 . S
H1065 C1080 0.960 . S
H1066 C1080 0.960 . S
H1067 C1080 0.960 . S
C1068 H1060 0.929 . S
C1068 C1069 1.377 . S
C1068 C1070 1.384 1_455 S
C1069 C1068 1.377 . S
C1069 C1075 1.390 . S
C1070 H1061 0.930 . S
C1070 C1068 1.384 1_655 S
C1070 C1071 1.372 . S
C1071 C1070 1.372 . S
C1071 C1072 1.400 . S
C1071 C1076 1.490 . S
C1072 H1062 0.930 . S
C1072 C1071 1.400 . S
C1072 C1075 1.386 1_655 S
H1073 C1089 0.930 . S
H1074 C1090 0.931 . S
C1075 H1063 0.929 . S
C1075 C1069 1.390 . S
C1075 C1072 1.386 1_455 S
C1076 C1071 1.490 . S
C1076 C1078 1.395 . S
C1076 C1079 1.403 . S
H1077 C1083 0.930 . S
C1078 H1064 0.930 . S
C1078 C1076 1.395 . S
C1078 C1081 1.403 . S
C1079 C1076 1.403 . S
C1079 C1080 1.524 . S
C1079 C1083 1.400 . S
C1080 H1065 0.960 . S
C1080 H1066 0.960 . S
C1080 H1067 0.960 . S
C1080 C1079 1.524 . S
C1081 C1078 1.403 . S
C1081 C1082 1.392 . S
C1081 C1085 1.495 . S
C1082 C1081 1.392 . S
C1082 C1083 1.385 . S
C1082 C1084 1.478 . S
C1083 H1077 0.930 . S
C1083 C1079 1.400 . S
C1083 C1082 1.385 . S
C1084 C1082 1.478 . S
C1084 C1086 1.381 . S
C1084 C1090 1.383 . S
C1085 C1081 1.495 . S
C1085 H1091 0.959 . S
C1085 H1092 0.961 . S
C1085 H1093 0.960 . S
C1086 C1084 1.381 . S
C1086 C1087 1.394 . S
C1086 H1094 0.930 . S
C1087 C1086 1.394 . S
C1087 C1088 1.383 . S
C1087 H1095 0.929 . S
C1088 C1087 1.383 . S
C1088 C1089 1.377 . S
C1089 H1073 0.930 . S
C1089 C1088 1.377 . S
C1089 C1090 1.379 . S
C1090 H1074 0.931 . S
C1090 C1084 1.383 . S
C1090 C1089 1.379 . S
H1091 C1085 0.959 . S
H1092 C1085 0.961 . S
H1093 C1085 0.960 . S
H1094 C1086 0.930 . S
H1095 C1087 0.929 . S
H1096 C1104 0.929 . S
H1097 C1106 0.930 . S
H1098 C1108 0.930 . S
H1099 C1111 0.929 . S
H1100 C1114 0.930 . S
H1101 C1116 0.960 . S
H1102 C1116 0.960 . S
H1103 C1116 0.960 . S
C1104 H1096 0.929 . S
C1104 C1105 1.377 . S
C1104 C1106 1.384 . S
C1105 C1104 1.377 . S
C1105 C1111 1.390 . S
C1106 H1097 0.930 . S
C1106 C1104 1.384 . S
C1106 C1107 1.372 . S
C1107 C1106 1.372 . S
C1107 C1108 1.400 . S
C1107 C1112 1.490 . S
C1108 H1098 0.930 . S
C1108 C1107 1.400 . S
C1108 C1111 1.386 . S
H1109 C1125 0.930 . S
H1110 C1126 0.931 . S
C1111 H1099 0.929 . S
C1111 C1105 1.390 . S
C1111 C1108 1.386 . S
C1112 C1107 1.490 . S
C1112 C1114 1.395 . S
C1112 C1115 1.403 . S
H1113 C1119 0.930 . S
C1114 H1100 0.930 . S
C1114 C1112 1.395 . S
C1114 C1117 1.403 . S
C1115 C1112 1.403 . S
C1115 C1116 1.524 . S
C1115 C1119 1.400 . S
C1116 H1101 0.960 . S
C1116 H1102 0.960 . S
C1116 H1103 0.960 . S
C1116 C1115 1.524 . S
C1117 C1114 1.403 . S
C1117 C1118 1.392 . S
C1117 C1121 1.495 . S
C1118 C1117 1.392 . S
C1118 C1119 1.385 . S
C1118 C1120 1.478 . S
C1119 H1113 0.930 . S
C1119 C1115 1.400 . S
C1119 C1118 1.385 . S
C1120 C1118 1.478 . S
C1120 C1122 1.381 . S
C1120 C1126 1.383 . S
C1121 C1117 1.495 . S
C1121 H1127 0.959 . S
C1121 H1128 0.961 . S
C1121 H1129 0.960 . S
C1122 C1120 1.381 . S
C1122 C1123 1.394 . S
C1122 H1130 0.930 . S
C1123 C1122 1.394 . S
C1123 C1124 1.383 . S
C1123 H1131 0.929 . S
C1124 C1123 1.383 . S
C1124 C1125 1.377 . S
C1125 H1109 0.930 . S
C1125 C1124 1.377 . S
C1125 C1126 1.379 . S
C1126 H1110 0.931 . S
C1126 C1120 1.383 . S
C1126 C1125 1.379 . S
H1127 C1121 0.959 . S
H1128 C1121 0.961 . S
H1129 C1121 0.960 . S
H1130 C1122 0.930 . S
H1131 C1123 0.929 . S
H1132 C1140 0.929 . S
H1133 C1142 0.930 . S
H1134 C1144 0.930 . S
H1135 C1147 0.929 . S
H1136 C1150 0.930 . S
H1137 C1152 0.960 . S
H1138 C1152 0.960 . S
H1139 C1152 0.960 . S
C1140 H1132 0.929 . S
C1140 C1141 1.377 . S
C1140 C1142 1.384 . S
C1141 C1140 1.377 . S
C1141 C1147 1.390 . S
C1142 H1133 0.930 . S
C1142 C1140 1.384 . S
C1142 C1143 1.372 . S
C1143 C1142 1.372 . S
C1143 C1144 1.400 . S
C1143 C1148 1.490 . S
C1144 H1134 0.930 . S
C1144 C1143 1.400 . S
C1144 C1147 1.386 . S
H1145 C1161 0.930 . S
H1146 C1162 0.931 . S
C1147 H1135 0.929 . S
C1147 C1141 1.390 . S
C1147 C1144 1.386 . S
C1148 C1143 1.490 . S
C1148 C1150 1.395 . S
C1148 C1151 1.403 . S
H1149 C1155 0.930 . S
C1150 H1136 0.930 . S
C1150 C1148 1.395 . S
C1150 C1153 1.403 . S
C1151 C1148 1.403 . S
C1151 C1152 1.524 . S
C1151 C1155 1.400 . S
C1152 H1137 0.960 . S
C1152 H1138 0.960 . S
C1152 H1139 0.960 . S
C1152 C1151 1.524 . S
C1153 C1150 1.403 . S
C1153 C1154 1.392 . S
C1153 C1157 1.495 . S
C1154 C1153 1.392 . S
C1154 C1155 1.385 . S
C1154 C1156 1.478 . S
C1155 H1149 0.930 . S
C1155 C1151 1.400 . S
C1155 C1154 1.385 . S
C1156 C1154 1.478 . S
C1156 C1158 1.381 . S
C1156 C1162 1.383 . S
C1157 C1153 1.495 . S
C1157 H1163 0.959 . S
C1157 H1164 0.961 . S
C1157 H1165 0.960 . S
C1158 C1156 1.381 . S
C1158 C1159 1.394 1_655 S
C1158 H1166 0.930 . S
C1159 C1158 1.394 1_455 S
C1159 C1160 1.383 . S
C1159 H1167 0.929 . S
C1160 C1159 1.383 . S
C1160 C1161 1.377 . S
C1161 H1145 0.930 . S
C1161 C1160 1.377 . S
C1161 C1162 1.379 1_455 S
C1162 H1146 0.931 . S
C1162 C1156 1.383 . S
C1162 C1161 1.379 1_655 S
H1163 C1157 0.959 . S
H1164 C1157 0.961 . S
H1165 C1157 0.960 . S
H1166 C1158 0.930 . S
H1167 C1159 0.929 . S
H1168 C1176 0.929 . S
H1169 C1178 0.930 . S
H1170 C1180 0.930 . S
H1171 C1183 0.929 . S
H1172 C1186 0.930 . S
H1173 C1188 0.960 . S
H1174 C1188 0.960 . S
H1175 C1188 0.960 . S
C1176 H1168 0.929 . S
C1176 C1177 1.377 . S
C1176 C1178 1.384 . S
C1177 C1176 1.377 . S
C1177 C1183 1.390 . S
C1178 H1169 0.930 . S
C1178 C1176 1.384 . S
C1178 C1179 1.372 . S
C1179 C1178 1.372 . S
C1179 C1180 1.400 . S
C1179 C1184 1.490 . S
C1180 H1170 0.930 . S
C1180 C1179 1.400 . S
C1180 C1183 1.386 . S
H1181 C1197 0.930 . S
H1182 C1198 0.931 . S
C1183 H1171 0.929 . S
C1183 C1177 1.390 . S
C1183 C1180 1.386 . S
C1184 C1179 1.490 . S
C1184 C1186 1.395 . S
C1184 C1187 1.403 . S
H1185 C1191 0.930 . S
C1186 H1172 0.930 . S
C1186 C1184 1.395 . S
C1186 C1189 1.403 . S
C1187 C1184 1.403 . S
C1187 C1188 1.524 . S
C1187 C1191 1.400 . S
C1188 H1173 0.960 . S
C1188 H1174 0.960 . S
C1188 H1175 0.960 . S
C1188 C1187 1.524 . S
C1189 C1186 1.403 . S
C1189 C1190 1.392 . S
C1189 C1193 1.495 . S
C1190 C1189 1.392 . S
C1190 C1191 1.385 . S
C1190 C1192 1.478 . S
C1191 H1185 0.930 . S
C1191 C1187 1.400 . S
C1191 C1190 1.385 . S
C1192 C1190 1.478 . S
C1192 C1194 1.381 . S
C1192 C1198 1.383 . S
C1193 C1189 1.495 . S
C1193 H1199 0.959 . S
C1193 H1200 0.961 . S
C1193 H1201 0.960 . S
C1194 C1192 1.381 . S
C1194 C1195 1.394 . S
C1194 H1202 0.930 . S
C1195 C1194 1.394 . S
C1195 C1196 1.383 . S
C1195 H1203 0.929 . S
C1196 C1195 1.383 . S
C1196 C1197 1.377 . S
C1197 H1181 0.930 . S
C1197 C1196 1.377 . S
C1197 C1198 1.379 . S
C1198 H1182 0.931 . S
C1198 C1192 1.383 . S
C1198 C1197 1.379 . S
H1199 C1193 0.959 . S
H1200 C1193 0.961 . S
H1201 C1193 0.960 . S
H1202 C1194 0.930 . S
H1203 C1195 0.929 . S
H1204 C1212 0.929 . S
H1205 C1214 0.930 . S
H1206 C1216 0.930 . S
H1207 C1219 0.932 . S
H1208 C1222 0.930 . S
H1209 C1224 0.960 . S
H1210 C1224 0.960 . S
H1211 C1224 0.960 . S
C1212 H1204 0.929 . S
C1212 C1213 1.377 . S
C1212 C1214 1.384 1_655 S
C1213 C1212 1.377 . S
C1213 C1219 1.403 . S
C1214 H1205 0.930 . S
C1214 C1212 1.384 1_455 S
C1214 C1215 1.372 . S
C1215 C1214 1.372 . S
C1215 C1216 1.400 . S
C1215 C1220 1.490 . S
C1216 H1206 0.930 . S
C1216 C1215 1.400 . S
C1216 C1219 1.370 1_455 S
H1217 C1233 0.930 . S
H1218 C1234 0.931 . S
C1219 H1207 0.932 . S
C1219 C1213 1.403 . S
C1219 C1216 1.370 1_655 S
C1220 C1215 1.490 . S
C1220 C1222 1.395 . S
C1220 C1223 1.403 . S
H1221 C1227 0.930 . S
C1222 H1208 0.930 . S
C1222 C1220 1.395 . S
C1222 C1225 1.403 . S
C1223 C1220 1.403 . S
C1223 C1224 1.524 . S
C1223 C1227 1.400 . S
C1224 H1209 0.960 . S
C1224 H1210 0.960 . S
C1224 H1211 0.960 . S
C1224 C1223 1.524 . S
C1225 C1222 1.403 . S
C1225 C1226 1.392 . S
C1225 C1229 1.495 . S
C1226 C1225 1.392 . S
C1226 C1227 1.385 . S
C1226 C1228 1.478 . S
C1227 H1221 0.930 . S
C1227 C1223 1.400 . S
C1227 C1226 1.385 . S
C1228 C1226 1.478 . S
C1228 C1230 1.381 . S
C1228 C1234 1.383 . S
C1229 C1225 1.495 . S
C1229 H1235 0.959 . S
C1229 H1236 0.961 . S
C1229 H1237 0.960 . S
C1230 C1228 1.381 . S
C1230 C1231 1.394 . S
C1230 H1238 0.930 . S
C1231 C1230 1.394 . S
C1231 C1232 1.383 . S
C1231 H1239 0.929 . S
C1232 C1231 1.383 . S
C1232 C1233 1.377 . S
C1233 H1217 0.930 . S
C1233 C1232 1.377 . S
C1233 C1234 1.379 . S
C1234 H1218 0.931 . S
C1234 C1228 1.383 . S
C1234 C1233 1.379 . S
H1235 C1229 0.959 . S
H1236 C1229 0.961 . S
H1237 C1229 0.960 . S
H1238 C1230 0.930 . S
H1239 C1231 0.929 . S
H1240 C1248 0.929 . S
H1241 C1250 0.930 . S
H1242 C1252 0.930 . S
H1243 C1255 0.929 . S
H1244 C1258 0.930 . S
H1245 C1260 0.960 . S
H1246 C1260 0.960 . S
H1247 C1260 0.960 . S
C1248 H1240 0.929 . S
C1248 C1249 1.377 . S
C1248 C1250 1.384 . S
C1249 C1248 1.377 . S
C1249 C1255 1.390 . S
C1250 H1241 0.930 . S
C1250 C1248 1.384 . S
C1250 C1251 1.372 . S
C1251 C1250 1.372 . S
C1251 C1252 1.400 . S
C1251 C1256 1.490 . S
C1252 H1242 0.930 . S
C1252 C1251 1.400 . S
C1252 C1255 1.386 . S
H1253 C1269 0.930 . S
H1254 C1270 0.931 . S
C1255 H1243 0.929 . S
C1255 C1249 1.390 . S
C1255 C1252 1.386 . S
C1256 C1251 1.490 . S
C1256 C1258 1.395 . S
C1256 C1259 1.403 . S
H1257 C1263 0.930 . S
C1258 H1244 0.930 . S
C1258 C1256 1.395 . S
C1258 C1261 1.403 . S
C1259 C1256 1.403 . S
C1259 C1260 1.524 . S
C1259 C1263 1.400 . S
C1260 H1245 0.960 . S
C1260 H1246 0.960 . S
C1260 H1247 0.960 . S
C1260 C1259 1.524 . S
C1261 C1258 1.403 . S
C1261 C1262 1.392 . S
C1261 C1265 1.495 . S
C1262 C1261 1.392 . S
C1262 C1263 1.385 . S
C1262 C1264 1.478 . S
C1263 H1257 0.930 . S
C1263 C1259 1.400 . S
C1263 C1262 1.385 . S
C1264 C1262 1.478 . S
C1264 C1266 1.381 . S
C1264 C1270 1.383 . S
C1265 C1261 1.495 . S
C1265 H1271 0.959 . S
C1265 H1272 0.961 . S
C1265 H1273 0.960 . S
C1266 C1264 1.381 . S
C1266 C1267 1.394 . S
C1266 H1274 0.930 . S
C1267 C1266 1.394 . S
C1267 C1268 1.383 . S
C1267 H1275 0.929 . S
C1268 C1267 1.383 . S
C1268 C1269 1.377 . S
C1269 H1253 0.930 . S
C1269 C1268 1.377 . S
C1269 C1270 1.379 . S
C1270 H1254 0.931 . S
C1270 C1264 1.383 . S
C1270 C1269 1.379 . S
H1271 C1265 0.959 . S
H1272 C1265 0.961 . S
H1273 C1265 0.960 . S
H1274 C1266 0.930 . S
H1275 C1267 0.929 . S
H1276 C1284 0.929 . S
H1277 C1286 0.930 . S
H1278 C1288 0.930 . S
H1279 C1291 0.929 . S
H1280 C1294 0.930 . S
H1281 C1296 0.960 . S
H1282 C1296 0.960 . S
H1283 C1296 0.960 . S
C1284 H1276 0.929 . S
C1284 C1285 1.377 . S
C1284 C1286 1.384 1_655 S
C1285 C1284 1.377 . S
C1285 C1291 1.390 . S
C1286 H1277 0.930 . S
C1286 C1284 1.384 1_455 S
C1286 C1287 1.372 . S
C1287 C1286 1.372 . S
C1287 C1288 1.400 . S
C1287 C1292 1.490 . S
C1288 H1278 0.930 . S
C1288 C1287 1.400 . S
C1288 C1291 1.386 1_455 S
H1289 C1305 0.930 . S
H1290 C1306 0.931 . S
C1291 H1279 0.929 . S
C1291 C1285 1.390 . S
C1291 C1288 1.386 1_655 S
C1292 C1287 1.490 . S
C1292 C1294 1.395 . S
C1292 C1295 1.403 . S
H1293 C1299 0.930 . S
C1294 H1280 0.930 . S
C1294 C1292 1.395 . S
C1294 C1297 1.403 . S
C1295 C1292 1.403 . S
C1295 C1296 1.524 . S
C1295 C1299 1.400 . S
C1296 H1281 0.960 . S
C1296 H1282 0.960 . S
C1296 H1283 0.960 . S
C1296 C1295 1.524 . S
C1297 C1294 1.403 . S
C1297 C1298 1.392 . S
C1297 C1301 1.495 . S
C1298 C1297 1.392 . S
C1298 C1299 1.385 . S
C1298 C1300 1.478 . S
C1299 H1293 0.930 . S
C1299 C1295 1.400 . S
C1299 C1298 1.385 . S
C1300 C1298 1.478 . S
C1300 C1302 1.381 . S
C1300 C1306 1.383 . S
C1301 C1297 1.495 . S
C1301 H1307 0.959 . S
C1301 H1308 0.961 . S
C1301 H1309 0.960 . S
C1302 C1300 1.381 . S
C1302 C1303 1.394 . S
C1302 H1310 0.930 . S
C1303 C1302 1.394 . S
C1303 C1304 1.383 . S
C1303 H1311 0.929 . S
C1304 C1303 1.383 . S
C1304 C1305 1.377 . S
C1305 H1289 0.930 . S
C1305 C1304 1.377 . S
C1305 C1306 1.379 . S
C1306 H1290 0.931 . S
C1306 C1300 1.383 . S
C1306 C1305 1.379 . S
H1307 C1301 0.959 . S
H1308 C1301 0.961 . S
H1309 C1301 0.960 . S
H1310 C1302 0.930 . S
H1311 C1303 0.929 . S
H1312 C1320 0.929 . S
H1313 C1322 0.930 . S
H1314 C1324 0.930 . S
H1315 C1327 0.929 . S
H1316 C1330 0.930 . S
H1317 C1332 0.960 . S
H1318 C1332 0.960 . S
H1319 C1332 0.960 . S
C1320 H1312 0.929 . S
C1320 C1321 1.377 . S
C1320 C1322 1.384 . S
C1321 C1320 1.377 . S
C1321 C1327 1.390 . S
C1322 H1313 0.930 . S
C1322 C1320 1.384 . S
C1322 C1323 1.372 . S
C1323 C1322 1.372 . S
C1323 C1324 1.400 . S
C1323 C1328 1.490 . S
C1324 H1314 0.930 . S
C1324 C1323 1.400 . S
C1324 C1327 1.386 . S
H1325 C1341 0.930 . S
H1326 C1342 0.931 . S
C1327 H1315 0.929 . S
C1327 C1321 1.390 . S
C1327 C1324 1.386 . S
C1328 C1323 1.490 . S
C1328 C1330 1.395 . S
C1328 C1331 1.403 . S
H1329 C1335 0.930 . S
C1330 H1316 0.930 . S
C1330 C1328 1.395 . S
C1330 C1333 1.403 . S
C1331 C1328 1.403 . S
C1331 C1332 1.524 . S
C1331 C1335 1.400 . S
C1332 H1317 0.960 . S
C1332 H1318 0.960 . S
C1332 H1319 0.960 . S
C1332 C1331 1.524 . S
C1333 C1330 1.403 . S
C1333 C1334 1.392 . S
C1333 C1337 1.495 . S
C1334 C1333 1.392 . S
C1334 C1335 1.385 . S
C1334 C1336 1.478 . S
C1335 H1329 0.930 . S
C1335 C1331 1.400 . S
C1335 C1334 1.385 . S
C1336 C1334 1.478 . S
C1336 C1338 1.381 . S
C1336 C1342 1.383 . S
C1337 C1333 1.495 . S
C1337 H1343 0.959 . S
C1337 H1344 0.961 . S
C1337 H1345 0.960 . S
C1338 C1336 1.381 . S
C1338 C1339 1.394 . S
C1338 H1346 0.930 . S
C1339 C1338 1.394 . S
C1339 C1340 1.383 . S
C1339 H1347 0.929 . S
C1340 C1339 1.383 . S
C1340 C1341 1.377 . S
C1341 H1325 0.930 . S
C1341 C1340 1.377 . S
C1341 C1342 1.379 . S
C1342 H1326 0.931 . S
C1342 C1336 1.383 . S
C1342 C1341 1.379 . S
H1343 C1337 0.959 . S
H1344 C1337 0.961 . S
H1345 C1337 0.960 . S
H1346 C1338 0.930 . S
H1347 C1339 0.929 . S
H1348 C1356 0.929 . S
H1349 C1358 0.930 . S
H1350 C1360 0.930 . S
H1351 C1363 0.929 . S
H1352 C1366 0.930 . S
H1353 C1368 0.960 . S
H1354 C1368 0.960 . S
H1355 C1368 0.960 . S
C1356 H1348 0.929 . S
C1356 C1357 1.377 . S
C1356 C1358 1.384 . S
C1357 C1356 1.377 . S
C1357 C1363 1.390 . S
C1358 H1349 0.930 . S
C1358 C1356 1.384 . S
C1358 C1359 1.372 . S
C1359 C1358 1.372 . S
C1359 C1360 1.400 . S
C1359 C1364 1.490 . S
C1360 H1350 0.930 . S
C1360 C1359 1.400 . S
C1360 C1363 1.386 . S
H1361 C1377 0.930 . S
H1362 C1378 0.931 . S
C1363 H1351 0.929 . S
C1363 C1357 1.390 . S
C1363 C1360 1.386 . S
C1364 C1359 1.490 . S
C1364 C1366 1.395 . S
C1364 C1367 1.403 . S
H1365 C1371 0.930 . S
C1366 H1352 0.930 . S
C1366 C1364 1.395 . S
C1366 C1369 1.403 . S
C1367 C1364 1.403 . S
C1367 C1368 1.524 . S
C1367 C1371 1.400 . S
C1368 H1353 0.960 . S
C1368 H1354 0.960 . S
C1368 H1355 0.960 . S
C1368 C1367 1.524 . S
C1369 C1366 1.403 . S
C1369 C1370 1.392 . S
C1369 C1373 1.495 . S
C1370 C1369 1.392 . S
C1370 C1371 1.385 . S
C1370 C1372 1.478 . S
C1371 H1365 0.930 . S
C1371 C1367 1.400 . S
C1371 C1370 1.385 . S
C1372 C1370 1.478 . S
C1372 C1374 1.381 . S
C1372 C1378 1.383 . S
C1373 C1369 1.495 . S
C1373 H1379 0.959 . S
C1373 H1380 0.961 . S
C1373 H1381 0.960 . S
C1374 C1372 1.381 . S
C1374 C1375 1.394 1_655 S
C1374 H1382 0.930 . S
C1375 C1374 1.394 1_455 S
C1375 C1376 1.383 . S
C1375 H1383 0.929 . S
C1376 C1375 1.383 . S
C1376 C1377 1.377 . S
C1377 H1361 0.930 . S
C1377 C1376 1.377 . S
C1377 C1378 1.379 1_455 S
C1378 H1362 0.931 . S
C1378 C1372 1.383 . S
C1378 C1377 1.379 1_655 S
H1379 C1373 0.959 . S
H1380 C1373 0.961 . S
H1381 C1373 0.960 . S
H1382 C1374 0.930 . S
H1383 C1375 0.929 . S
H1384 C1392 0.929 . S
H1385 C1394 0.930 . S
H1386 C1396 0.930 . S
H1387 C1399 0.929 . S
H1388 C1402 0.930 . S
H1389 C1404 0.960 . S
H1390 C1404 0.960 . S
H1391 C1404 0.960 . S
C1392 H1384 0.929 . S
C1392 C1393 1.377 . S
C1392 C1394 1.384 . S
C1393 C1392 1.377 . S
C1393 C1399 1.390 . S
C1394 H1385 0.930 . S
C1394 C1392 1.384 . S
C1394 C1395 1.372 . S
C1395 C1394 1.372 . S
C1395 C1396 1.400 . S
C1395 C1400 1.490 . S
C1396 H1386 0.930 . S
C1396 C1395 1.400 . S
C1396 C1399 1.386 . S
H1397 C1413 0.930 . S
H1398 C1414 0.931 . S
C1399 H1387 0.929 . S
C1399 C1393 1.390 . S
C1399 C1396 1.386 . S
C1400 C1395 1.490 . S
C1400 C1402 1.395 . S
C1400 C1403 1.403 . S
H1401 C1407 0.930 . S
C1402 H1388 0.930 . S
C1402 C1400 1.395 . S
C1402 C1405 1.403 . S
C1403 C1400 1.403 . S
C1403 C1404 1.524 . S
C1403 C1407 1.400 . S
C1404 H1389 0.960 . S
C1404 H1390 0.960 . S
C1404 H1391 0.960 . S
C1404 C1403 1.524 . S
C1405 C1402 1.403 . S
C1405 C1406 1.392 . S
C1405 C1409 1.495 . S
C1406 C1405 1.392 . S
C1406 C1407 1.385 . S
C1406 C1408 1.478 . S
C1407 H1401 0.930 . S
C1407 C1403 1.400 . S
C1407 C1406 1.385 . S
C1408 C1406 1.478 . S
C1408 C1410 1.381 . S
C1408 C1414 1.383 . S
C1409 C1405 1.495 . S
C1409 H1415 0.959 . S
C1409 H1416 0.961 . S
C1409 H1417 0.960 . S
C1410 C1408 1.381 . S
C1410 C1411 1.394 . S
C1410 H1418 0.930 . S
C1411 C1410 1.394 . S
C1411 C1412 1.383 . S
C1411 H1419 0.929 . S
C1412 C1411 1.383 . S
C1412 C1413 1.377 . S
C1413 H1397 0.930 . S
C1413 C1412 1.377 . S
C1413 C1414 1.379 . S
C1414 H1398 0.931 . S
C1414 C1408 1.383 . S
C1414 C1413 1.379 . S
H1415 C1409 0.959 . S
H1416 C1409 0.961 . S
H1417 C1409 0.960 . S
H1418 C1410 0.930 . S
H1419 C1411 0.929 . S
H1420 C1428 0.929 . S
H1421 C1430 0.930 . S
H1422 C1432 0.930 . S
H1423 C1435 0.929 . S
H1424 C1438 0.930 . S
H1425 C1440 0.960 . S
H1426 C1440 0.960 . S
H1427 C1440 0.960 . S
C1428 H1420 0.929 . S
C1428 C1429 1.377 . S
C1428 C1430 1.384 . S
C1429 C1428 1.377 . S
C1429 C1435 1.390 . S
C1430 H1421 0.930 . S
C1430 C1428 1.384 . S
C1430 C1431 1.372 . S
C1431 C1430 1.372 . S
C1431 C1432 1.400 . S
C1431 C1436 1.490 . S
C1432 H1422 0.930 . S
C1432 C1431 1.400 . S
C1432 C1435 1.386 . S
H1433 C1449 0.930 . S
H1434 C1450 0.931 . S
C1435 H1423 0.929 . S
C1435 C1429 1.390 . S
C1435 C1432 1.386 . S
C1436 C1431 1.490 . S
C1436 C1438 1.395 . S
C1436 C1439 1.403 . S
H1437 C1443 0.930 . S
C1438 H1424 0.930 . S
C1438 C1436 1.395 . S
C1438 C1441 1.403 . S
C1439 C1436 1.403 . S
C1439 C1440 1.524 . S
C1439 C1443 1.400 . S
C1440 H1425 0.960 . S
C1440 H1426 0.960 . S
C1440 H1427 0.960 . S
C1440 C1439 1.524 . S
C1441 C1438 1.403 . S
C1441 C1442 1.392 . S
C1441 C1445 1.495 . S
C1442 C1441 1.392 . S
C1442 C1443 1.385 . S
C1442 C1444 1.478 . S
C1443 H1437 0.930 . S
C1443 C1439 1.400 . S
C1443 C1442 1.385 . S
C1444 C1442 1.478 . S
C1444 C1446 1.381 . S
C1444 C1450 1.383 . S
C1445 C1441 1.495 . S
C1445 H1451 0.959 . S
C1445 H1452 0.961 . S
C1445 H1453 0.960 . S
C1446 C1444 1.381 . S
C1446 C1447 1.394 1_655 S
C1446 H1454 0.930 . S
C1447 C1446 1.394 1_455 S
C1447 C1448 1.383 . S
C1447 H1455 0.929 . S
C1448 C1447 1.383 . S
C1448 C1449 1.377 . S
C1449 H1433 0.930 . S
C1449 C1448 1.377 . S
C1449 C1450 1.379 1_455 S
C1450 H1434 0.931 . S
C1450 C1444 1.383 . S
C1450 C1449 1.379 1_655 S
H1451 C1445 0.959 . S
H1452 C1445 0.961 . S
H1453 C1445 0.960 . S
H1454 C1446 0.930 . S
H1455 C1447 0.929 . S
H1456 C1464 0.929 . S
H1457 C1466 0.930 . S
H1458 C1468 0.930 . S
H1459 C1471 0.929 . S
H1460 C1474 0.930 . S
H1461 C1476 0.960 . S
H1462 C1476 0.960 . S
H1463 C1476 0.960 . S
C1464 H1456 0.929 . S
C1464 C1465 1.377 . S
C1464 C1466 1.384 . S
C1465 C1464 1.377 . S
C1465 C1471 1.390 . S
C1466 H1457 0.930 . S
C1466 C1464 1.384 . S
C1466 C1467 1.372 . S
C1467 C1466 1.372 . S
C1467 C1468 1.400 . S
C1467 C1472 1.490 . S
C1468 H1458 0.930 . S
C1468 C1467 1.400 . S
C1468 C1471 1.386 . S
H1469 C1485 0.930 . S
H1470 C1486 0.931 . S
C1471 H1459 0.929 . S
C1471 C1465 1.390 . S
C1471 C1468 1.386 . S
C1472 C1467 1.490 . S
C1472 C1474 1.395 . S
C1472 C1475 1.403 . S
H1473 C1479 0.930 . S
C1474 H1460 0.930 . S
C1474 C1472 1.395 . S
C1474 C1477 1.403 . S
C1475 C1472 1.403 . S
C1475 C1476 1.524 . S
C1475 C1479 1.400 . S
C1476 H1461 0.960 . S
C1476 H1462 0.960 . S
C1476 H1463 0.960 . S
C1476 C1475 1.524 . S
C1477 C1474 1.403 . S
C1477 C1478 1.392 . S
C1477 C1481 1.495 . S
C1478 C1477 1.392 . S
C1478 C1479 1.385 . S
C1478 C1480 1.478 . S
C1479 H1473 0.930 . S
C1479 C1475 1.400 . S
C1479 C1478 1.385 . S
C1480 C1478 1.478 . S
C1480 C1482 1.381 . S
C1480 C1486 1.383 . S
C1481 C1477 1.495 . S
C1481 H1487 0.959 . S
C1481 H1488 0.961 . S
C1481 H1489 0.960 . S
C1482 C1480 1.381 . S
C1482 C1483 1.394 . S
C1482 H1490 0.930 . S
C1483 C1482 1.394 . S
C1483 C1484 1.383 . S
C1483 H1491 0.929 . S
C1484 C1483 1.383 . S
C1484 C1485 1.377 . S
C1485 H1469 0.930 . S
C1485 C1484 1.377 . S
C1485 C1486 1.379 . S
C1486 H1470 0.931 . S
C1486 C1480 1.383 . S
C1486 C1485 1.379 . S
H1487 C1481 0.959 . S
H1488 C1481 0.961 . S
H1489 C1481 0.960 . S
H1490 C1482 0.930 . S
H1491 C1483 0.929 . S
H1492 C1500 0.929 . S
H1493 C1502 0.930 . S
H1494 C1504 0.930 . S
H1495 C1507 0.929 . S
H1496 C1510 0.930 . S
H1497 C1512 0.960 . S
H1498 C1512 0.960 . S
H1499 C1512 0.960 . S
C1500 H1492 0.929 . S
C1500 C1501 1.377 . S
C1500 C1502 1.384 . S
C1501 C1500 1.377 . S
C1501 C1507 1.390 . S
C1502 H1493 0.930 . S
C1502 C1500 1.384 . S
C1502 C1503 1.372 . S
C1503 C1502 1.372 . S
C1503 C1504 1.400 . S
C1503 C1508 1.490 . S
C1504 H1494 0.930 . S
C1504 C1503 1.400 . S
C1504 C1507 1.386 . S
H1505 C1521 0.930 . S
H1506 C1522 0.931 . S
C1507 H1495 0.929 . S
C1507 C1501 1.390 . S
C1507 C1504 1.386 . S
C1508 C1503 1.490 . S
C1508 C1510 1.395 . S
C1508 C1511 1.403 . S
H1509 C1515 0.930 . S
C1510 H1496 0.930 . S
C1510 C1508 1.395 . S
C1510 C1513 1.403 . S
C1511 C1508 1.403 . S
C1511 C1512 1.524 . S
C1511 C1515 1.400 . S
C1512 H1497 0.960 . S
C1512 H1498 0.960 . S
C1512 H1499 0.960 . S
C1512 C1511 1.524 . S
C1513 C1510 1.403 . S
C1513 C1514 1.392 . S
C1513 C1517 1.495 . S
C1514 C1513 1.392 . S
C1514 C1515 1.385 . S
C1514 C1516 1.478 . S
C1515 H1509 0.930 . S
C1515 C1511 1.400 . S
C1515 C1514 1.385 . S
C1516 C1514 1.478 . S
C1516 C1518 1.381 . S
C1516 C1522 1.383 . S
C1517 C1513 1.495 . S
C1517 H1523 0.959 . S
C1517 H1524 0.961 . S
C1517 H1525 0.960 . S
C1518 C1516 1.381 . S
C1518 C1519 1.394 1_455 S
C1518 H1526 0.930 . S
C1519 C1518 1.394 1_655 S
C1519 C1520 1.383 . S
C1519 H1527 0.929 . S
C1520 C1519 1.383 . S
C1520 C1521 1.381 . S
C1521 H1505 0.930 . S
C1521 C1520 1.381 . S
C1521 C1522 1.375 1_655 S
C1522 H1506 0.931 . S
C1522 C1516 1.383 . S
C1522 C1521 1.375 1_455 S
H1523 C1517 0.959 . S
H1524 C1517 0.961 . S
H1525 C1517 0.960 . S
H1526 C1518 0.930 . S
H1527 C1519 0.929 . S
H1528 C1536 0.929 . S
H1529 C1538 0.930 . S
H1530 C1540 0.930 . S
H1531 C1543 0.929 . S
H1532 C1546 0.930 . S
H1533 C1548 0.960 . S
H1534 C1548 0.960 . S
H1535 C1548 0.960 . S
C1536 H1528 0.929 . S
C1536 C1537 1.377 . S
C1536 C1538 1.384 . S
C1537 C1536 1.377 . S
C1537 C1543 1.390 . S
C1538 H1529 0.930 . S
C1538 C1536 1.384 . S
C1538 C1539 1.372 . S
C1539 C1538 1.372 . S
C1539 C1540 1.400 . S
C1539 C1544 1.490 . S
C1540 H1530 0.930 . S
C1540 C1539 1.400 . S
C1540 C1543 1.386 . S
H1541 C1557 0.930 . S
H1542 C1558 0.931 . S
C1543 H1531 0.929 . S
C1543 C1537 1.390 . S
C1543 C1540 1.386 . S
C1544 C1539 1.490 . S
C1544 C1546 1.395 . S
C1544 C1547 1.403 . S
H1545 C1551 0.930 . S
C1546 H1532 0.930 . S
C1546 C1544 1.395 . S
C1546 C1549 1.403 . S
C1547 C1544 1.403 . S
C1547 C1548 1.524 . S
C1547 C1551 1.400 . S
C1548 H1533 0.960 . S
C1548 H1534 0.960 . S
C1548 H1535 0.960 . S
C1548 C1547 1.524 . S
C1549 C1546 1.403 . S
C1549 C1550 1.392 . S
C1549 C1553 1.495 . S
C1550 C1549 1.392 . S
C1550 C1551 1.385 . S
C1550 C1552 1.478 . S
C1551 H1545 0.930 . S
C1551 C1547 1.400 . S
C1551 C1550 1.385 . S
C1552 C1550 1.478 . S
C1552 C1554 1.381 . S
C1552 C1558 1.383 . S
C1553 C1549 1.495 . S
C1553 H1559 0.959 . S
C1553 H1560 0.961 . S
C1553 H1561 0.960 . S
C1554 C1552 1.381 . S
C1554 C1555 1.394 . S
C1554 H1562 0.930 . S
C1555 C1554 1.394 . S
C1555 C1556 1.383 . S
C1555 H1563 0.929 . S
C1556 C1555 1.383 . S
C1556 C1557 1.377 . S
C1557 H1541 0.930 . S
C1557 C1556 1.377 . S
C1557 C1558 1.379 . S
C1558 H1542 0.931 . S
C1558 C1552 1.383 . S
C1558 C1557 1.379 . S
H1559 C1553 0.959 . S
H1560 C1553 0.961 . S
H1561 C1553 0.960 . S
H1562 C1554 0.930 . S
H1563 C1555 0.929 . S
H1564 C1572 0.929 . S
H1565 C1574 0.930 . S
H1566 C1576 0.930 . S
H1567 C1579 0.929 . S
H1568 C1582 0.930 . S
H1569 C1584 0.960 . S
H1570 C1584 0.960 . S
H1571 C1584 0.960 . S
C1572 H1564 0.929 . S
C1572 C1573 1.377 . S
C1572 C1574 1.384 1_655 S
C1573 C1572 1.377 . S
C1573 C1579 1.390 . S
C1574 H1565 0.930 . S
C1574 C1572 1.384 1_455 S
C1574 C1575 1.372 . S
C1575 C1574 1.372 . S
C1575 C1576 1.400 . S
C1575 C1580 1.490 . S
C1576 H1566 0.930 . S
C1576 C1575 1.400 . S
C1576 C1579 1.386 1_455 S
H1577 C1593 0.930 . S
H1578 C1594 0.931 . S
C1579 H1567 0.929 . S
C1579 C1573 1.390 . S
C1579 C1576 1.386 1_655 S
C1580 C1575 1.490 . S
C1580 C1582 1.395 . S
C1580 C1583 1.403 . S
H1581 C1587 0.930 . S
C1582 H1568 0.930 . S
C1582 C1580 1.395 . S
C1582 C1585 1.403 . S
C1583 C1580 1.403 . S
C1583 C1584 1.524 . S
C1583 C1587 1.400 . S
C1584 H1569 0.960 . S
C1584 H1570 0.960 . S
C1584 H1571 0.960 . S
C1584 C1583 1.524 . S
C1585 C1582 1.403 . S
C1585 C1586 1.392 . S
C1585 C1589 1.495 . S
C1586 C1585 1.392 . S
C1586 C1587 1.385 . S
C1586 C1588 1.478 . S
C1587 H1581 0.930 . S
C1587 C1583 1.400 . S
C1587 C1586 1.385 . S
C1588 C1586 1.478 . S
C1588 C1590 1.381 . S
C1588 C1594 1.383 . S
C1589 C1585 1.495 . S
C1589 H1595 0.959 . S
C1589 H1596 0.961 . S
C1589 H1597 0.960 . S
C1590 C1588 1.381 . S
C1590 C1591 1.394 . S
C1590 H1598 0.930 . S
C1591 C1590 1.394 . S
C1591 C1592 1.383 . S
C1591 H1599 0.929 . S
C1592 C1591 1.383 . S
C1592 C1593 1.377 . S
C1593 H1577 0.930 . S
C1593 C1592 1.377 . S
C1593 C1594 1.379 . S
C1594 H1578 0.931 . S
C1594 C1588 1.383 . S
C1594 C1593 1.379 . S
H1595 C1589 0.959 . S
H1596 C1589 0.961 . S
H1597 C1589 0.960 . S
H1598 C1590 0.930 . S
H1599 C1591 0.929 . S
H1600 C1608 0.929 . S
H1601 C1610 0.928 . S
H1602 C1612 0.930 . S
H1603 C1615 0.929 . S
H1604 C1618 0.930 . S
H1605 C1620 0.960 . S
H1606 C1620 0.960 . S
H1607 C1620 0.960 . S
C1608 H1600 0.929 . S
C1608 C1609 1.377 . S
C1608 C1610 1.384 . S
C1609 C1608 1.377 . S
C1609 C1615 1.390 . S
C1610 H1601 0.928 . S
C1610 C1608 1.384 . S
C1610 C1611 1.372 . S
C1611 C1610 1.372 . S
C1611 C1612 1.400 . S
C1611 C1616 1.490 . S
C1612 H1602 0.930 . S
C1612 C1611 1.400 . S
C1612 C1615 1.386 . S
H1613 C1629 0.930 . S
H1614 C1630 0.931 . S
C1615 H1603 0.929 . S
C1615 C1609 1.390 . S
C1615 C1612 1.386 . S
C1616 C1611 1.490 . S
C1616 C1618 1.395 1_655 S
C1616 C1619 1.403 . S
H1617 C1623 0.930 . S
C1618 H1604 0.930 . S
C1618 C1616 1.395 1_455 S
C1618 C1621 1.403 . S
C1619 C1616 1.403 . S
C1619 C1620 1.524 . S
C1619 C1623 1.400 . S
C1620 H1605 0.960 . S
C1620 H1606 0.960 . S
C1620 H1607 0.960 . S
C1620 C1619 1.524 . S
C1621 C1618 1.403 . S
C1621 C1622 1.392 . S
C1621 C1625 1.495 . S
C1622 C1621 1.392 . S
C1622 C1623 1.385 1_455 S
C1622 C1624 1.478 . S
C1623 H1617 0.930 . S
C1623 C1619 1.400 . S
C1623 C1622 1.385 1_655 S
C1624 C1622 1.478 . S
C1624 C1626 1.381 . S
C1624 C1630 1.383 . S
C1625 C1621 1.495 . S
C1625 H1631 0.959 . S
C1625 H1632 0.961 . S
C1625 H1633 0.960 . S
C1626 C1624 1.381 . S
C1626 C1627 1.394 . S
C1626 H1634 0.930 . S
C1627 C1626 1.394 . S
C1627 C1628 1.383 . S
C1627 H1635 0.929 . S
C1628 C1627 1.383 . S
C1628 C1629 1.377 . S
C1629 H1613 0.930 . S
C1629 C1628 1.377 . S
C1629 C1630 1.379 . S
C1630 H1614 0.931 . S
C1630 C1624 1.383 . S
C1630 C1629 1.379 . S
H1631 C1625 0.959 . S
H1632 C1625 0.961 . S
H1633 C1625 0.960 . S
H1634 C1626 0.930 . S
H1635 C1627 0.929 . S
H1636 C1644 0.929 . S
H1637 C1646 0.930 . S
H1638 C1648 0.930 . S
H1639 C1651 0.929 . S
H1640 C1654 0.930 . S
H1641 C1656 0.960 1_545 S
H1642 C1656 0.960 . S
H1643 C1656 0.960 . S
C1644 H1636 0.929 . S
C1644 C1645 1.377 . S
C1644 C1646 1.384 . S
C1645 C1644 1.377 . S
C1645 C1651 1.390 . S
C1646 H1637 0.930 . S
C1646 C1644 1.384 . S
C1646 C1647 1.372 . S
C1647 C1646 1.372 . S
C1647 C1648 1.400 . S
C1647 C1652 1.490 . S
C1648 H1638 0.930 . S
C1648 C1647 1.400 . S
C1648 C1651 1.386 . S
H1649 C1665 0.930 . S
H1650 C1666 0.931 . S
C1651 H1639 0.929 . S
C1651 C1645 1.390 . S
C1651 C1648 1.386 . S
C1652 C1647 1.490 . S
C1652 C1654 1.395 . S
C1652 C1655 1.403 . S
H1653 C1659 0.930 . S
C1654 H1640 0.930 . S
C1654 C1652 1.395 . S
C1654 C1657 1.368 1_565 S
C1655 C1652 1.403 . S
C1655 C1656 1.524 . S
C1655 C1659 1.400 1_565 S
C1656 H1641 0.960 1_565 S
C1656 H1642 0.960 . S
C1656 H1643 0.960 . S
C1656 C1655 1.524 . S
C1657 C1654 1.368 1_545 S
C1657 C1658 1.425 . S
C1657 C1661 1.498 . S
C1658 C1657 1.425 . S
C1658 C1659 1.385 . S
C1658 C1660 1.478 . S
C1659 H1653 0.930 . S
C1659 C1655 1.400 1_545 S
C1659 C1658 1.385 . S
C1660 C1658 1.478 . S
C1660 C1662 1.381 . S
C1660 C1666 1.383 . S
C1661 C1657 1.498 . S
C1661 H1667 0.959 1_545 S
C1661 H1668 0.961 . S
C1661 H1669 0.960 . S
C1662 C1660 1.381 . S
C1662 C1663 1.394 . S
C1662 H1670 0.930 . S
C1663 C1662 1.394 . S
C1663 C1664 1.383 . S
C1663 H1671 0.929 . S
C1664 C1663 1.383 . S
C1664 C1665 1.377 . S
C1665 H1649 0.930 . S
C1665 C1664 1.377 . S
C1665 C1666 1.379 . S
C1666 H1650 0.931 . S
C1666 C1660 1.383 . S
C1666 C1665 1.379 . S
H1667 C1661 0.959 1_565 S
H1668 C1661 0.961 . S
H1669 C1661 0.960 . S
H1670 C1662 0.930 . S
H1671 C1663 0.929 . S
H1672 C1680 0.929 . S
H1673 C1682 0.930 1_556 S
H1674 C1684 0.930 . S
H1675 C1687 0.929 . S
H1676 C1690 0.930 . S
H1677 C1692 0.960 . S
H1678 C1692 0.960 1_545 S
H1679 C1692 0.960 1_545 S
C1680 H1672 0.929 . S
C1680 C1681 1.377 . S
C1680 C1682 1.384 . S
C1681 C1680 1.377 . S
C1681 C1687 1.390 . S
C1682 H1673 0.930 1_554 S
C1682 C1680 1.384 . S
C1682 C1683 1.372 . S
C1683 C1682 1.372 . S
C1683 C1684 1.400 . S
C1683 C1688 1.490 . S
C1684 H1674 0.930 . S
C1684 C1683 1.400 . S
C1684 C1687 1.386 . S
H1685 C1701 0.930 . S
H1686 C1702 0.931 1_554 S
C1687 H1675 0.929 . S
C1687 C1681 1.390 . S
C1687 C1684 1.386 . S
C1688 C1683 1.490 . S
C1688 C1690 1.395 1_654 S
C1688 C1691 1.405 1_545 S
H1689 C1695 0.930 . S
C1690 H1676 0.930 . S
C1690 C1688 1.395 1_456 S
C1690 C1693 1.403 . S
C1691 C1688 1.405 1_565 S
C1691 C1692 1.523 . S
C1691 C1695 1.398 . S
C1692 H1677 0.960 . S
C1692 H1678 0.960 1_565 S
C1692 H1679 0.960 1_565 S
C1692 C1691 1.523 . S
C1693 C1690 1.403 . S
C1693 C1694 1.392 1_545 S
C1693 C1697 1.495 . S
C1694 C1693 1.392 1_565 S
C1694 C1695 1.385 1_456 S
C1694 C1696 1.478 . S
C1695 H1689 0.930 . S
C1695 C1691 1.398 . S
C1695 C1694 1.385 1_654 S
C1696 C1694 1.478 . S
C1696 C1698 1.381 . S
C1696 C1702 1.383 . S
C1697 C1693 1.495 . S
C1697 H1703 0.959 . S
C1697 H1704 0.961 1_545 S
C1697 H1705 0.958 1_545 S
C1698 C1696 1.381 . S
C1698 C1699 1.394 . S
C1698 H1706 0.930 . S
C1699 C1698 1.394 . S
C1699 C1700 1.383 . S
C1699 H1707 0.929 . S
C1700 C1699 1.383 . S
C1700 C1701 1.377 . S
C1701 H1685 0.930 . S
C1701 C1700 1.377 . S
C1701 C1702 1.379 . S
C1702 H1686 0.931 1_556 S
C1702 C1696 1.383 . S
C1702 C1701 1.379 . S
H1703 C1697 0.959 . S
H1704 C1697 0.961 1_565 S
H1705 C1697 0.958 1_565 S
H1706 C1698 0.930 . S
H1707 C1699 0.929 . S
H1708 C1716 0.929 . S
H1709 C1718 0.930 . S
H1710 C1720 0.930 . S
H1711 C1723 0.929 . S
H1712 C1726 0.930 . S
H1713 C1728 0.960 . S
H1714 C1728 0.960 . S
H1715 C1728 0.960 . S
C1716 H1708 0.929 . S
C1716 C1717 1.377 . S
C1716 C1718 1.384 . S
C1717 C1716 1.377 . S
C1717 C1723 1.390 . S
C1718 H1709 0.930 . S
C1718 C1716 1.384 . S
C1718 C1719 1.372 . S
C1719 C1718 1.372 . S
C1719 C1720 1.400 . S
C1719 C1724 1.490 . S
C1720 H1710 0.930 . S
C1720 C1719 1.400 . S
C1720 C1723 1.386 . S
H1721 C1737 0.930 . S
H1722 C1738 0.931 . S
C1723 H1711 0.929 . S
C1723 C1717 1.390 . S
C1723 C1720 1.386 . S
C1724 C1719 1.490 . S
C1724 C1726 1.395 1_554 S
C1724 C1727 1.403 . S
H1725 C1731 0.930 . S
C1726 H1712 0.930 . S
C1726 C1724 1.395 1_556 S
C1726 C1729 1.403 . S
C1727 C1724 1.403 . S
C1727 C1728 1.524 . S
C1727 C1731 1.400 . S
C1728 H1713 0.960 . S
C1728 H1714 0.960 . S
C1728 H1715 0.960 . S
C1728 C1727 1.524 . S
C1729 C1726 1.403 . S
C1729 C1730 1.392 . S
C1729 C1733 1.495 . S
C1730 C1729 1.392 . S
C1730 C1731 1.385 1_556 S
C1730 C1732 1.478 . S
C1731 H1725 0.930 . S
C1731 C1727 1.400 . S
C1731 C1730 1.385 1_554 S
C1732 C1730 1.478 . S
C1732 C1734 1.381 . S
C1732 C1738 1.383 . S
C1733 C1729 1.495 . S
C1733 H1739 0.959 . S
C1733 H1740 0.961 . S
C1733 H1741 0.960 . S
C1734 C1732 1.381 . S
C1734 C1735 1.394 . S
C1734 H1742 0.930 . S
C1735 C1734 1.394 . S
C1735 C1736 1.383 . S
C1735 H1743 0.929 . S
C1736 C1735 1.383 . S
C1736 C1737 1.377 . S
C1737 H1721 0.930 . S
C1737 C1736 1.377 . S
C1737 C1738 1.379 . S
C1738 H1722 0.931 . S
C1738 C1732 1.383 . S
C1738 C1737 1.379 . S
H1739 C1733 0.959 . S
H1740 C1733 0.961 . S
H1741 C1733 0.960 . S
H1742 C1734 0.930 . S
H1743 C1735 0.929 . S
H1744 C1752 0.929 1_455 S
H1745 C1754 0.930 1_455 S
H1746 C1756 0.930 . S
H1747 C1759 0.929 . S
H1748 C1762 0.930 . S
H1749 C1764 0.960 . S
H1750 C1764 0.960 . S
H1751 C1764 0.960 . S
C1752 H1744 0.929 1_655 S
C1752 C1753 1.377 . S
C1752 C1754 1.384 . S
C1753 C1752 1.377 . S
C1753 C1759 1.390 . S
C1754 H1745 0.930 1_655 S
C1754 C1752 1.384 . S
C1754 C1755 1.372 . S
C1755 C1754 1.372 . S
C1755 C1756 1.400 . S
C1755 C1760 1.490 . S
C1756 H1746 0.930 . S
C1756 C1755 1.400 . S
C1756 C1759 1.386 . S
H1757 C1773 0.921 1_655 S
H1758 C1774 0.931 1_655 S
C1759 H1747 0.929 . S
C1759 C1753 1.390 . S
C1759 C1756 1.386 . S
C1760 C1755 1.490 . S
C1760 C1762 1.395 1_655 S
C1760 C1763 1.403 . S
H1761 C1767 0.930 . S
C1762 H1748 0.930 . S
C1762 C1760 1.395 1_455 S
C1762 C1765 1.403 . S
C1763 C1760 1.403 . S
C1763 C1764 1.524 . S
C1763 C1767 1.400 . S
C1764 H1749 0.960 . S
C1764 H1750 0.960 . S
C1764 H1751 0.960 . S
C1764 C1763 1.524 . S
C1765 C1762 1.403 . S
C1765 C1766 1.392 . S
C1765 C1769 1.495 . S
C1766 C1765 1.392 . S
C1766 C1767 1.385 1_455 S
C1766 C1768 1.478 . S
C1767 H1761 0.930 . S
C1767 C1763 1.400 . S
C1767 C1766 1.385 1_655 S
C1768 C1766 1.478 . S
C1768 C1770 1.381 . S
C1768 C1774 1.383 . S
C1769 C1765 1.495 . S
C1769 H1775 0.959 . S
C1769 H1776 0.961 . S
C1769 H1777 0.960 . S
C1770 C1768 1.381 . S
C1770 C1771 1.394 . S
C1770 H1778 0.930 . S
C1771 C1770 1.394 . S
C1771 C1772 1.383 . S
C1771 H1779 0.929 . S
C1772 C1771 1.383 . S
C1772 C1773 1.377 . S
C1773 H1757 0.921 1_455 S
C1773 C1772 1.377 . S
C1773 C1774 1.379 . S
C1774 H1758 0.931 1_455 S
C1774 C1768 1.383 . S
C1774 C1773 1.379 . S
H1775 C1769 0.959 . S
H1776 C1769 0.961 . S
H1777 C1769 0.960 . S
H1778 C1770 0.930 . S
H1779 C1771 0.929 . S
H1780 C1788 0.929 . S
H1781 C1790 0.930 . S
H1782 C1792 0.930 . S
H1783 C1795 0.929 . S
H1784 C1798 0.934 . S
H1785 C1800 0.960 . S
H1786 C1800 0.960 . S
H1787 C1800 0.960 . S
C1788 H1780 0.929 . S
C1788 C1789 1.377 . S
C1788 C1790 1.384 . S
C1789 C1788 1.377 . S
C1789 C1795 1.390 . S
C1790 H1781 0.930 . S
C1790 C1788 1.384 . S
C1790 C1791 1.372 . S
C1791 C1790 1.372 . S
C1791 C1792 1.400 . S
C1791 C1796 1.490 . S
C1792 H1782 0.930 . S
C1792 C1791 1.400 . S
C1792 C1795 1.386 . S
H1793 C1809 0.930 . S
H1794 C1810 0.931 . S
C1795 H1783 0.929 . S
C1795 C1789 1.390 . S
C1795 C1792 1.386 . S
C1796 C1791 1.490 . S
C1796 C1798 1.420 . S
C1796 C1799 1.403 . S
H1797 C1803 0.930 . S
C1798 H1784 0.934 . S
C1798 C1796 1.420 . S
C1798 C1801 1.375 1_565 S
C1799 C1796 1.403 . S
C1799 C1800 1.524 . S
C1799 C1803 1.400 1_565 S
C1800 H1785 0.960 . S
C1800 H1786 0.960 . S
C1800 H1787 0.960 . S
C1800 C1799 1.524 . S
C1801 C1798 1.375 1_545 S
C1801 C1802 1.392 . S
C1801 C1805 1.495 . S
C1802 C1801 1.392 . S
C1802 C1803 1.385 . S
C1802 C1804 1.478 . S
C1803 H1797 0.930 . S
C1803 C1799 1.400 1_545 S
C1803 C1802 1.385 . S
C1804 C1802 1.478 . S
C1804 C1806 1.381 . S
C1804 C1810 1.383 . S
C1805 C1801 1.495 . S
C1805 H1811 0.959 . S
C1805 H1812 0.961 . S
C1805 H1813 0.960 . S
C1806 C1804 1.381 . S
C1806 C1807 1.394 . S
C1806 H1814 0.930 . S
C1807 C1806 1.394 . S
C1807 C1808 1.383 . S
C1807 H1815 0.929 . S
C1808 C1807 1.383 . S
C1808 C1809 1.377 . S
C1809 H1793 0.930 . S
C1809 C1808 1.377 . S
C1809 C1810 1.379 . S
C1810 H1794 0.931 . S
C1810 C1804 1.383 . S
C1810 C1809 1.379 . S
H1811 C1805 0.959 . S
H1812 C1805 0.961 . S
H1813 C1805 0.960 . S
H1814 C1806 0.930 . S
H1815 C1807 0.929 . S
H1816 C1824 0.929 . S
H1817 C1826 0.930 . S
H1818 C1828 0.930 1_554 S
H1819 C1831 0.929 . S
H1820 C1834 0.930 . S
H1821 C1836 0.960 . S
H1822 C1836 0.960 . S
H1823 C1836 0.960 . S
C1824 H1816 0.929 . S
C1824 C1825 1.377 . S
C1824 C1826 1.384 . S
C1825 C1824 1.377 . S
C1825 C1831 1.390 . S
C1826 H1817 0.930 . S
C1826 C1824 1.384 . S
C1826 C1827 1.372 . S
C1827 C1826 1.372 . S
C1827 C1828 1.400 . S
C1827 C1832 1.490 . S
C1828 H1818 0.930 1_556 S
C1828 C1827 1.400 . S
C1828 C1831 1.386 . S
H1829 C1845 0.930 . S
H1830 C1846 0.931 . S
C1831 H1819 0.929 . S
C1831 C1825 1.390 . S
C1831 C1828 1.386 . S
C1832 C1827 1.490 . S
C1832 C1834 1.395 . S
C1832 C1835 1.403 1_556 S
H1833 C1839 0.930 . S
C1834 H1820 0.930 . S
C1834 C1832 1.395 . S
C1834 C1837 1.403 . S
C1835 C1832 1.403 1_554 S
C1835 C1836 1.524 . S
C1835 C1839 1.400 . S
C1836 H1821 0.960 . S
C1836 H1822 0.960 . S
C1836 H1823 0.960 . S
C1836 C1835 1.524 . S
C1837 C1834 1.403 . S
C1837 C1838 1.392 1_556 S
C1837 C1841 1.495 . S
C1838 C1837 1.392 1_554 S
C1838 C1839 1.385 . S
C1838 C1840 1.478 . S
C1839 H1833 0.930 . S
C1839 C1835 1.400 . S
C1839 C1838 1.385 . S
C1840 C1838 1.478 . S
C1840 C1842 1.381 . S
C1840 C1846 1.383 . S
C1841 C1837 1.495 . S
C1841 H1847 0.959 . S
C1841 H1848 0.961 . S
C1841 H1849 0.960 . S
C1842 C1840 1.381 . S
C1842 C1843 1.394 . S
C1842 H1850 0.930 1_554 S
C1843 C1842 1.394 . S
C1843 C1844 1.383 . S
C1843 H1851 0.929 . S
C1844 C1843 1.383 . S
C1844 C1845 1.377 . S
C1845 H1829 0.930 . S
C1845 C1844 1.377 . S
C1845 C1846 1.379 . S
C1846 H1830 0.931 . S
C1846 C1840 1.383 . S
C1846 C1845 1.379 . S
H1847 C1841 0.959 . S
H1848 C1841 0.961 . S
H1849 C1841 0.960 . S
H1850 C1842 0.930 1_556 S
H1851 C1843 0.929 . S
H1852 C1860 0.929 . S
H1853 C1862 0.930 . S
H1854 C1864 0.930 . S
H1855 C1867 0.929 . S
H1856 C1870 0.930 . S
H1857 C1872 0.960 . S
H1858 C1872 0.960 . S
H1859 C1872 0.960 . S
C1860 H1852 0.929 . S
C1860 C1861 1.377 . S
C1860 C1862 1.384 . S
C1861 C1860 1.377 . S
C1861 C1867 1.390 . S
C1862 H1853 0.930 . S
C1862 C1860 1.384 . S
C1862 C1863 1.372 . S
C1863 C1862 1.372 . S
C1863 C1864 1.400 . S
C1863 C1868 1.490 . S
C1864 H1854 0.930 . S
C1864 C1863 1.400 . S
C1864 C1867 1.386 . S
H1865 C1881 0.930 . S
H1866 C1882 0.931 . S
C1867 H1855 0.929 . S
C1867 C1861 1.390 . S
C1867 C1864 1.386 . S
C1868 C1863 1.490 . S
C1868 C1870 1.395 . S
C1868 C1871 1.403 . S
H1869 C1875 0.930 . S
C1870 H1856 0.930 . S
C1870 C1868 1.395 . S
C1870 C1873 1.403 . S
C1871 C1868 1.403 . S
C1871 C1872 1.524 . S
C1871 C1875 1.400 . S
C1872 H1857 0.960 . S
C1872 H1858 0.960 . S
C1872 H1859 0.960 . S
C1872 C1871 1.524 . S
C1873 C1870 1.403 . S
C1873 C1874 1.392 . S
C1873 C1877 1.495 . S
C1874 C1873 1.392 . S
C1874 C1875 1.385 . S
C1874 C1876 1.478 . S
C1875 H1869 0.930 . S
C1875 C1871 1.400 . S
C1875 C1874 1.385 . S
C1876 C1874 1.478 . S
C1876 C1878 1.381 . S
C1876 C1882 1.383 . S
C1877 C1873 1.495 . S
C1877 H1883 0.959 . S
C1877 H1884 0.961 . S
C1877 H1885 0.960 . S
C1878 C1876 1.381 . S
C1878 C1879 1.394 . S
C1878 H1886 0.930 . S
C1879 C1878 1.394 . S
C1879 C1880 1.383 . S
C1879 H1887 0.929 . S
C1880 C1879 1.383 . S
C1880 C1881 1.377 . S
C1881 H1865 0.930 . S
C1881 C1880 1.377 . S
C1881 C1882 1.379 . S
C1882 H1866 0.931 . S
C1882 C1876 1.383 . S
C1882 C1881 1.379 . S
H1883 C1877 0.959 . S
H1884 C1877 0.961 . S
H1885 C1877 0.960 . S
H1886 C1878 0.930 . S
H1887 C1879 0.929 . S
H1888 C1896 0.929 . S
H1889 C1898 0.930 1_655 S
H1890 C1900 0.930 . S
H1891 C1903 0.929 . S
H1892 C1906 0.930 . S
H1893 C1908 0.960 . S
H1894 C1908 0.960 . S
H1895 C1908 0.960 . S
C1896 H1888 0.929 . S
C1896 C1897 1.377 . S
C1896 C1898 1.384 . S
C1897 C1896 1.377 . S
C1897 C1903 1.390 . S
C1898 H1889 0.930 1_455 S
C1898 C1896 1.384 . S
C1898 C1899 1.372 . S
C1899 C1898 1.372 . S
C1899 C1900 1.400 . S
C1899 C1904 1.490 . S
C1900 H1890 0.930 . S
C1900 C1899 1.400 . S
C1900 C1903 1.386 . S
H1901 C1917 0.930 . S
H1902 C1918 0.931 . S
C1903 H1891 0.929 . S
C1903 C1897 1.390 . S
C1903 C1900 1.386 . S
C1904 C1899 1.490 . S
C1904 C1906 1.395 1_455 S
C1904 C1907 1.403 . S
H1905 C1911 0.930 . S
C1906 H1892 0.930 . S
C1906 C1904 1.395 1_655 S
C1906 C1909 1.403 . S
C1907 C1904 1.403 . S
C1907 C1908 1.524 . S
C1907 C1911 1.400 . S
C1908 H1893 0.960 . S
C1908 H1894 0.960 . S
C1908 H1895 0.960 . S
C1908 C1907 1.524 . S
C1909 C1906 1.403 . S
C1909 C1910 1.392 . S
C1909 C1913 1.495 . S
C1910 C1909 1.392 . S
C1910 C1911 1.385 1_655 S
C1910 C1912 1.478 . S
C1911 H1905 0.930 . S
C1911 C1907 1.400 . S
C1911 C1910 1.385 1_455 S
C1912 C1910 1.478 . S
C1912 C1914 1.381 . S
C1912 C1918 1.383 . S
C1913 C1909 1.495 . S
C1913 H1919 0.959 . S
C1913 H1920 0.961 . S
C1913 H1921 0.960 . S
C1914 C1912 1.381 . S
C1914 C1915 1.394 . S
C1914 H1922 0.930 . S
C1915 C1914 1.394 . S
C1915 C1916 1.383 . S
C1915 H1923 0.929 . S
C1916 C1915 1.383 . S
C1916 C1917 1.377 . S
C1917 H1901 0.930 . S
C1917 C1916 1.377 . S
C1917 C1918 1.379 . S
C1918 H1902 0.931 . S
C1918 C1912 1.383 . S
C1918 C1917 1.379 . S
H1919 C1913 0.959 . S
H1920 C1913 0.961 . S
H1921 C1913 0.960 . S
H1922 C1914 0.930 . S
H1923 C1915 0.929 . S
H1924 C1932 0.929 . S
H1925 C1934 0.930 . S
H1926 C1936 0.930 . S
H1927 C1939 0.929 . S
H1928 C1942 0.930 . S
H1929 C1944 0.960 . S
H1930 C1944 0.960 . S
H1931 C1944 0.960 . S
C1932 H1924 0.929 . S
C1932 C1933 1.377 . S
C1932 C1934 1.384 . S
C1933 C1932 1.377 . S
C1933 C1939 1.390 . S
C1934 H1925 0.930 . S
C1934 C1932 1.384 . S
C1934 C1935 1.372 . S
C1935 C1934 1.372 . S
C1935 C1936 1.400 . S
C1935 C1940 1.490 . S
C1936 H1926 0.930 . S
C1936 C1935 1.400 . S
C1936 C1939 1.386 . S
H1937 C1953 0.930 . S
H1938 C1954 0.931 . S
C1939 H1927 0.929 . S
C1939 C1933 1.390 . S
C1939 C1936 1.386 . S
C1940 C1935 1.490 . S
C1940 C1942 1.395 . S
C1940 C1943 1.403 . S
H1941 C1947 0.930 . S
C1942 H1928 0.930 . S
C1942 C1940 1.395 . S
C1942 C1945 1.403 . S
C1943 C1940 1.403 . S
C1943 C1944 1.524 . S
C1943 C1947 1.400 . S
C1944 H1929 0.960 . S
C1944 H1930 0.960 . S
C1944 H1931 0.960 . S
C1944 C1943 1.524 . S
C1945 C1942 1.403 . S
C1945 C1946 1.392 . S
C1945 C1949 1.495 . S
C1946 C1945 1.392 . S
C1946 C1947 1.385 . S
C1946 C1948 1.478 . S
C1947 H1941 0.930 . S
C1947 C1943 1.400 . S
C1947 C1946 1.385 . S
C1948 C1946 1.478 . S
C1948 C1950 1.381 . S
C1948 C1954 1.383 . S
C1949 C1945 1.495 . S
C1949 H1955 0.959 . S
C1949 H1956 0.961 . S
C1949 H1957 0.960 . S
C1950 C1948 1.381 . S
C1950 C1951 1.394 . S
C1950 H1958 0.930 . S
C1951 C1950 1.394 . S
C1951 C1952 1.383 . S
C1951 H1959 0.929 . S
C1952 C1951 1.383 . S
C1952 C1953 1.377 . S
C1953 H1937 0.930 . S
C1953 C1952 1.377 . S
C1953 C1954 1.379 . S
C1954 H1938 0.931 . S
C1954 C1948 1.383 . S
C1954 C1953 1.379 . S
H1955 C1949 0.959 . S
H1956 C1949 0.961 . S
H1957 C1949 0.960 . S
H1958 C1950 0.930 . S
H1959 C1951 0.929 . S
H1960 C1968 0.929 . S
H1961 C1970 0.930 . S
H1962 C1972 0.930 . S
H1963 C1975 0.929 . S
H1964 C1978 0.930 . S
H1965 C1980 0.960 . S
H1966 C1980 0.960 . S
H1967 C1980 0.960 . S
C1968 H1960 0.929 . S
C1968 C1969 1.377 . S
C1968 C1970 1.384 . S
C1969 C1968 1.377 . S
C1969 C1975 1.390 . S
C1970 H1961 0.930 . S
C1970 C1968 1.384 . S
C1970 C1971 1.372 . S
C1971 C1970 1.372 . S
C1971 C1972 1.400 . S
C1971 C1976 1.490 . S
C1972 H1962 0.930 . S
C1972 C1971 1.400 . S
C1972 C1975 1.386 . S
H1973 C1989 0.930 . S
H1974 C1990 0.931 . S
C1975 H1963 0.929 . S
C1975 C1969 1.390 . S
C1975 C1972 1.386 . S
C1976 C1971 1.490 . S
C1976 C1978 1.395 . S
C1976 C1979 1.403 . S
H1977 C1983 0.930 . S
C1978 H1964 0.930 . S
C1978 C1976 1.395 . S
C1978 C1981 1.403 . S
C1979 C1976 1.403 . S
C1979 C1980 1.524 . S
C1979 C1983 1.400 . S
C1980 H1965 0.960 . S
C1980 H1966 0.960 . S
C1980 H1967 0.960 . S
C1980 C1979 1.524 . S
C1981 C1978 1.403 . S
C1981 C1982 1.392 . S
C1981 C1985 1.495 . S
C1982 C1981 1.392 . S
C1982 C1983 1.385 . S
C1982 C1984 1.478 . S
C1983 H1977 0.930 . S
C1983 C1979 1.400 . S
C1983 C1982 1.385 . S
C1984 C1982 1.478 . S
C1984 C1986 1.381 . S
C1984 C1990 1.383 . S
C1985 C1981 1.495 . S
C1985 H1991 0.959 . S
C1985 H1992 0.961 . S
C1985 H1993 0.960 . S
C1986 C1984 1.381 . S
C1986 C1987 1.394 . S
C1986 H1994 0.930 . S
C1987 C1986 1.394 . S
C1987 C1988 1.383 . S
C1987 H1995 0.929 . S
C1988 C1987 1.383 . S
C1988 C1989 1.377 . S
C1989 H1973 0.930 . S
C1989 C1988 1.377 . S
C1989 C1990 1.379 . S
C1990 H1974 0.931 . S
C1990 C1984 1.383 . S
C1990 C1989 1.379 . S
H1991 C1985 0.959 . S
H1992 C1985 0.961 . S
H1993 C1985 0.960 . S
H1994 C1986 0.930 . S
H1995 C1987 0.929 . S
H1996 C2004 0.929 . S
H1997 C2006 0.930 . S
H1998 C2008 0.930 . S
H1999 C2011 0.929 . S
H2000 C2014 0.930 . S
H2001 C2016 0.960 . S
H2002 C2016 0.960 . S
H2003 C2016 0.960 . S
C2004 H1996 0.929 . S
C2004 C2005 1.377 . S
C2004 C2006 1.384 . S
C2005 C2004 1.377 . S
C2005 C2011 1.390 . S
C2006 H1997 0.930 . S
C2006 C2004 1.384 . S
C2006 C2007 1.372 . S
C2007 C2006 1.372 . S
C2007 C2008 1.400 . S
C2007 C2012 1.490 . S
C2008 H1998 0.930 . S
C2008 C2007 1.400 . S
C2008 C2011 1.386 . S
H2009 C2025 0.930 . S
H2010 C2026 0.931 . S
C2011 H1999 0.929 . S
C2011 C2005 1.390 . S
C2011 C2008 1.386 . S
C2012 C2007 1.490 . S
C2012 C2014 1.395 . S
C2012 C2015 1.403 . S
H2013 C2019 0.930 . S
C2014 H2000 0.930 . S
C2014 C2012 1.395 . S
C2014 C2017 1.403 . S
C2015 C2012 1.403 . S
C2015 C2016 1.524 . S
C2015 C2019 1.400 . S
C2016 H2001 0.960 . S
C2016 H2002 0.960 . S
C2016 H2003 0.960 . S
C2016 C2015 1.524 . S
C2017 C2014 1.403 . S
C2017 C2018 1.392 . S
C2017 C2021 1.495 . S
C2018 C2017 1.392 . S
C2018 C2019 1.385 . S
C2018 C2020 1.478 . S
C2019 H2013 0.930 . S
C2019 C2015 1.400 . S
C2019 C2018 1.385 . S
C2020 C2018 1.478 . S
C2020 C2022 1.381 . S
C2020 C2026 1.383 . S
C2021 C2017 1.495 . S
C2021 H2027 0.959 . S
C2021 H2028 0.961 . S
C2021 H2029 0.960 . S
C2022 C2020 1.381 . S
C2022 C2023 1.394 . S
C2022 H2030 0.930 . S
C2023 C2022 1.394 . S
C2023 C2024 1.383 . S
C2023 H2031 0.929 . S
C2024 C2023 1.383 . S
C2024 C2025 1.377 . S
C2025 H2009 0.930 . S
C2025 C2024 1.377 . S
C2025 C2026 1.379 . S
C2026 H2010 0.931 . S
C2026 C2020 1.383 . S
C2026 C2025 1.379 . S
H2027 C2021 0.959 . S
H2028 C2021 0.961 . S
H2029 C2021 0.960 . S
H2030 C2022 0.930 . S
H2031 C2023 0.929 . S
H2032 C2040 0.929 . S
H2033 C2042 0.930 . S
H2034 C2044 0.930 . S
H2035 C2047 0.929 . S
H2036 C2050 0.930 . S
H2037 C2052 0.960 . S
H2038 C2052 0.960 . S
H2039 C2052 0.960 . S
C2040 H2032 0.929 . S
C2040 C2041 1.377 . S
C2040 C2042 1.384 . S
C2041 C2040 1.377 . S
C2041 C2047 1.390 . S
C2042 H2033 0.930 . S
C2042 C2040 1.384 . S
C2042 C2043 1.372 . S
C2043 C2042 1.372 . S
C2043 C2044 1.400 . S
C2043 C2048 1.490 . S
C2044 H2034 0.930 . S
C2044 C2043 1.400 . S
C2044 C2047 1.386 . S
H2045 C2061 0.930 . S
H2046 C2062 0.931 . S
C2047 H2035 0.929 . S
C2047 C2041 1.390 . S
C2047 C2044 1.386 . S
C2048 C2043 1.490 . S
C2048 C2050 1.395 . S
C2048 C2051 1.403 . S
H2049 C2055 0.930 . S
C2050 H2036 0.930 . S
C2050 C2048 1.395 . S
C2050 C2053 1.403 . S
C2051 C2048 1.403 . S
C2051 C2052 1.524 . S
C2051 C2055 1.400 . S
C2052 H2037 0.960 . S
C2052 H2038 0.960 . S
C2052 H2039 0.960 . S
C2052 C2051 1.524 . S
C2053 C2050 1.403 . S
C2053 C2054 1.392 . S
C2053 C2057 1.495 . S
C2054 C2053 1.392 . S
C2054 C2055 1.385 . S
C2054 C2056 1.478 . S
C2055 H2049 0.930 . S
C2055 C2051 1.400 . S
C2055 C2054 1.385 . S
C2056 C2054 1.478 . S
C2056 C2058 1.381 . S
C2056 C2062 1.383 . S
C2057 C2053 1.495 . S
C2057 H2063 0.959 . S
C2057 H2064 0.961 . S
C2057 H2065 0.960 . S
C2058 C2056 1.381 . S
C2058 C2059 1.394 . S
C2058 H2066 0.930 . S
C2059 C2058 1.394 . S
C2059 C2060 1.383 . S
C2059 H2067 0.929 . S
C2060 C2059 1.383 . S
C2060 C2061 1.377 . S
C2061 H2045 0.930 . S
C2061 C2060 1.377 . S
C2061 C2062 1.379 . S
C2062 H2046 0.931 . S
C2062 C2056 1.383 . S
C2062 C2061 1.379 . S
H2063 C2057 0.959 . S
H2064 C2057 0.961 . S
H2065 C2057 0.960 . S
H2066 C2058 0.930 . S
H2067 C2059 0.929 . S
H2068 C2076 0.929 . S
H2069 C2078 0.930 . S
H2070 C2080 0.930 . S
H2071 C2083 0.929 . S
H2072 C2086 0.930 . S
H2073 C2088 0.969 1_565 S
H2074 C2088 0.954 . S
H2075 C2088 0.958 . S
C2076 H2068 0.929 . S
C2076 C2077 1.377 . S
C2076 C2078 1.384 . S
C2077 C2076 1.377 . S
C2077 C2083 1.390 . S
C2078 H2069 0.930 . S
C2078 C2076 1.384 . S
C2078 C2079 1.372 . S
C2079 C2078 1.372 . S
C2079 C2080 1.400 . S
C2079 C2084 1.490 . S
C2080 H2070 0.930 . S
C2080 C2079 1.400 . S
C2080 C2083 1.386 . S
H2081 C2097 0.930 . S
H2082 C2098 0.931 . S
C2083 H2071 0.929 . S
C2083 C2077 1.390 . S
C2083 C2080 1.386 . S
C2084 C2079 1.490 . S
C2084 C2086 1.395 . S
C2084 C2087 1.449 . S
H2085 C2091 0.930 . S
C2086 H2072 0.930 . S
C2086 C2084 1.395 . S
C2086 C2089 1.460 . S
C2087 C2084 1.449 . S
C2087 C2088 1.522 . S
C2087 C2091 1.355 1_545 S
C2088 H2073 0.969 1_545 S
C2088 H2074 0.954 . S
C2088 H2075 0.958 . S
C2088 C2087 1.522 . S
C2089 C2086 1.460 . S
C2089 C2090 1.335 1_545 S
C2089 C2093 1.499 . S
C2090 C2089 1.335 1_565 S
C2090 C2091 1.385 . S
C2090 C2092 1.478 . S
C2091 H2085 0.930 . S
C2091 C2087 1.355 1_565 S
C2091 C2090 1.385 . S
C2092 C2090 1.478 . S
C2092 C2094 1.381 . S
C2092 C2098 1.383 . S
C2093 C2089 1.499 . S
C2093 H2099 0.959 . S
C2093 H2100 0.961 1_545 S
C2093 H2101 0.945 1_545 S
C2094 C2092 1.381 . S
C2094 C2095 1.394 . S
C2094 H2102 0.930 . S
C2095 C2094 1.394 . S
C2095 C2096 1.383 . S
C2095 H2103 0.929 . S
C2096 C2095 1.383 . S
C2096 C2097 1.377 . S
C2097 H2081 0.930 . S
C2097 C2096 1.377 . S
C2097 C2098 1.379 . S
C2098 H2082 0.931 . S
C2098 C2092 1.383 . S
C2098 C2097 1.379 . S
H2099 C2093 0.959 . S
H2100 C2093 0.961 1_565 S
H2101 C2093 0.945 1_565 S
H2102 C2094 0.930 . S
H2103 C2095 0.929 . S
H2104 C2112 0.929 . S
H2105 C2114 0.930 . S
H2106 C2116 0.930 . S
H2107 C2119 0.929 . S
H2108 C2122 0.930 . S
H2109 C2124 0.960 . S
H2110 C2124 0.960 . S
H2111 C2124 0.960 . S
C2112 H2104 0.929 . S
C2112 C2113 1.377 . S
C2112 C2114 1.384 . S
C2113 C2112 1.377 . S
C2113 C2119 1.390 . S
C2114 H2105 0.930 . S
C2114 C2112 1.384 . S
C2114 C2115 1.372 . S
C2115 C2114 1.372 . S
C2115 C2116 1.400 . S
C2115 C2120 1.490 . S
C2116 H2106 0.930 . S
C2116 C2115 1.400 . S
C2116 C2119 1.386 . S
H2117 C2133 0.930 . S
H2118 C2134 0.931 . S
C2119 H2107 0.929 . S
C2119 C2113 1.390 . S
C2119 C2116 1.386 . S
C2120 C2115 1.490 . S
C2120 C2122 1.395 . S
C2120 C2123 1.403 . S
H2121 C2127 0.930 . S
C2122 H2108 0.930 . S
C2122 C2120 1.395 . S
C2122 C2125 1.403 . S
C2123 C2120 1.403 . S
C2123 C2124 1.524 . S
C2123 C2127 1.400 . S
C2124 H2109 0.960 . S
C2124 H2110 0.960 . S
C2124 H2111 0.960 . S
C2124 C2123 1.524 . S
C2125 C2122 1.403 . S
C2125 C2126 1.392 . S
C2125 C2129 1.495 . S
C2126 C2125 1.392 . S
C2126 C2127 1.385 . S
C2126 C2128 1.478 . S
C2127 H2121 0.930 . S
C2127 C2123 1.400 . S
C2127 C2126 1.385 . S
C2128 C2126 1.478 . S
C2128 C2130 1.381 . S
C2128 C2134 1.383 . S
C2129 C2125 1.495 . S
C2129 H2135 0.959 . S
C2129 H2136 0.961 . S
C2129 H2137 0.960 . S
C2130 C2128 1.381 . S
C2130 C2131 1.394 . S
C2130 H2138 0.930 . S
C2131 C2130 1.394 . S
C2131 C2132 1.383 . S
C2131 H2139 0.929 . S
C2132 C2131 1.383 . S
C2132 C2133 1.377 . S
C2133 H2117 0.930 . S
C2133 C2132 1.377 . S
C2133 C2134 1.379 . S
C2134 H2118 0.931 . S
C2134 C2128 1.383 . S
C2134 C2133 1.379 . S
H2135 C2129 0.959 . S
H2136 C2129 0.961 . S
H2137 C2129 0.960 . S
H2138 C2130 0.930 . S
H2139 C2131 0.929 . S
H2140 C2148 0.929 . S
H2141 C2150 0.913 1_554 S
H2142 C2152 0.930 . S
H2143 C2155 0.929 . S
H2144 C2158 0.930 . S
H2145 C2160 0.960 . S
H2146 C2160 0.960 . S
H2147 C2160 0.960 1_556 S
C2148 H2140 0.929 . S
C2148 C2149 1.377 . S
C2148 C2150 1.384 . S
C2149 C2148 1.377 . S
C2149 C2155 1.390 . S
C2150 H2141 0.913 1_556 S
C2150 C2148 1.384 . S
C2150 C2151 1.372 . S
C2151 C2150 1.372 . S
C2151 C2152 1.400 . S
C2151 C2156 1.490 . S
C2152 H2142 0.930 . S
C2152 C2151 1.400 . S
C2152 C2155 1.386 . S
H2153 C2169 0.930 . S
H2154 C2170 0.931 1_556 S
C2155 H2143 0.929 . S
C2155 C2149 1.390 . S
C2155 C2152 1.386 . S
C2156 C2151 1.490 . S
C2156 C2158 1.395 . S
C2156 C2159 1.403 1_556 S
H2157 C2163 0.930 . S
C2158 H2144 0.930 . S
C2158 C2156 1.395 . S
C2158 C2161 1.403 . S
C2159 C2156 1.403 1_554 S
C2159 C2160 1.524 . S
C2159 C2163 1.400 . S
C2160 H2145 0.960 . S
C2160 H2146 0.960 . S
C2160 H2147 0.960 1_554 S
C2160 C2159 1.524 . S
C2161 C2158 1.403 . S
C2161 C2162 1.392 1_556 S
C2161 C2165 1.495 . S
C2162 C2161 1.392 1_554 S
C2162 C2163 1.385 . S
C2162 C2164 1.478 . S
C2163 H2157 0.930 . S
C2163 C2159 1.400 . S
C2163 C2162 1.385 . S
C2164 C2162 1.478 . S
C2164 C2166 1.381 . S
C2164 C2170 1.383 . S
C2165 C2161 1.495 . S
C2165 H2171 0.959 . S
C2165 H2172 0.961 . S
C2165 H2173 0.960 1_556 S
C2166 C2164 1.381 . S
C2166 C2167 1.394 . S
C2166 H2174 0.930 . S
C2167 C2166 1.394 . S
C2167 C2168 1.383 . S
C2167 H2175 0.929 . S
C2168 C2167 1.383 . S
C2168 C2169 1.377 . S
C2169 H2153 0.930 . S
C2169 C2168 1.377 . S
C2169 C2170 1.379 . S
C2170 H2154 0.931 1_554 S
C2170 C2164 1.383 . S
C2170 C2169 1.379 . S
H2171 C2165 0.959 . S
H2172 C2165 0.961 . S
H2173 C2165 0.960 1_554 S
H2174 C2166 0.930 . S
H2175 C2167 0.929 . S
H2176 C2184 0.929 . S
H2177 C2186 0.930 . S
H2178 C2188 0.930 . S
H2179 C2191 0.929 . S
H2180 C2194 0.930 . S
H2181 C2196 0.960 . S
H2182 C2196 0.960 . S
H2183 C2196 0.960 . S
C2184 H2176 0.929 . S
C2184 C2185 1.377 . S
C2184 C2186 1.384 . S
C2185 C2184 1.377 . S
C2185 C2191 1.390 . S
C2186 H2177 0.930 . S
C2186 C2184 1.384 . S
C2186 C2187 1.372 . S
C2187 C2186 1.372 . S
C2187 C2188 1.400 . S
C2187 C2192 1.490 . S
C2188 H2178 0.930 . S
C2188 C2187 1.400 . S
C2188 C2191 1.386 . S
H2189 C2205 0.930 . S
H2190 C2206 0.931 . S
C2191 H2179 0.929 . S
C2191 C2185 1.390 . S
C2191 C2188 1.386 . S
C2192 C2187 1.490 . S
C2192 C2194 1.395 . S
C2192 C2195 1.403 . S
H2193 C2199 0.930 . S
C2194 H2180 0.930 . S
C2194 C2192 1.395 . S
C2194 C2197 1.403 . S
C2195 C2192 1.403 . S
C2195 C2196 1.524 . S
C2195 C2199 1.400 . S
C2196 H2181 0.960 . S
C2196 H2182 0.960 . S
C2196 H2183 0.960 . S
C2196 C2195 1.524 . S
C2197 C2194 1.403 . S
C2197 C2198 1.392 . S
C2197 C2201 1.495 . S
C2198 C2197 1.392 . S
C2198 C2199 1.385 . S
C2198 C2200 1.478 . S
C2199 H2193 0.930 . S
C2199 C2195 1.400 . S
C2199 C2198 1.385 . S
C2200 C2198 1.478 . S
C2200 C2202 1.381 . S
C2200 C2206 1.383 . S
C2201 C2197 1.495 . S
C2201 H2207 0.959 . S
C2201 H2208 0.961 . S
C2201 H2209 0.960 . S
C2202 C2200 1.381 . S
C2202 C2203 1.394 . S
C2202 H2210 0.930 . S
C2203 C2202 1.394 . S
C2203 C2204 1.383 . S
C2203 H2211 0.929 . S
C2204 C2203 1.383 . S
C2204 C2205 1.377 . S
C2205 H2189 0.930 . S
C2205 C2204 1.377 . S
C2205 C2206 1.379 . S
C2206 H2190 0.931 . S
C2206 C2200 1.383 . S
C2206 C2205 1.379 . S
H2207 C2201 0.959 . S
H2208 C2201 0.961 . S
H2209 C2201 0.960 . S
H2210 C2202 0.930 . S
H2211 C2203 0.929 . S
H2212 C2220 0.929 . S
H2213 C2222 0.930 . S
H2214 C2224 0.930 . S
H2215 C2227 0.929 . S
H2216 C2230 0.930 . S
H2217 C2232 0.960 . S
H2218 C2232 0.960 . S
H2219 C2232 0.960 . S
C2220 H2212 0.929 . S
C2220 C2221 1.377 . S
C2220 C2222 1.384 . S
C2221 C2220 1.377 . S
C2221 C2227 1.390 . S
C2222 H2213 0.930 . S
C2222 C2220 1.384 . S
C2222 C2223 1.372 . S
C2223 C2222 1.372 . S
C2223 C2224 1.400 . S
C2223 C2228 1.490 . S
C2224 H2214 0.930 . S
C2224 C2223 1.400 . S
C2224 C2227 1.386 . S
H2225 C2241 0.930 . S
H2226 C2242 0.931 . S
C2227 H2215 0.929 . S
C2227 C2221 1.390 . S
C2227 C2224 1.386 . S
C2228 C2223 1.490 . S
C2228 C2230 1.395 . S
C2228 C2231 1.403 . S
H2229 C2235 0.930 . S
C2230 H2216 0.930 . S
C2230 C2228 1.395 . S
C2230 C2233 1.403 . S
C2231 C2228 1.403 . S
C2231 C2232 1.524 . S
C2231 C2235 1.400 . S
C2232 H2217 0.960 . S
C2232 H2218 0.960 . S
C2232 H2219 0.960 . S
C2232 C2231 1.524 . S
C2233 C2230 1.403 . S
C2233 C2234 1.392 . S
C2233 C2237 1.495 . S
C2234 C2233 1.392 . S
C2234 C2235 1.385 . S
C2234 C2236 1.478 . S
C2235 H2229 0.930 . S
C2235 C2231 1.400 . S
C2235 C2234 1.385 . S
C2236 C2234 1.478 . S
C2236 C2238 1.381 . S
C2236 C2242 1.383 . S
C2237 C2233 1.495 . S
C2237 H2243 0.959 . S
C2237 H2244 0.961 . S
C2237 H2245 0.960 . S
C2238 C2236 1.381 . S
C2238 C2239 1.394 . S
C2238 H2246 0.930 . S
C2239 C2238 1.394 . S
C2239 C2240 1.383 . S
C2239 H2247 0.929 . S
C2240 C2239 1.383 . S
C2240 C2241 1.377 . S
C2241 H2225 0.930 . S
C2241 C2240 1.377 . S
C2241 C2242 1.379 . S
C2242 H2226 0.931 . S
C2242 C2236 1.383 . S
C2242 C2241 1.379 . S
H2243 C2237 0.959 . S
H2244 C2237 0.961 . S
H2245 C2237 0.960 . S
H2246 C2238 0.930 . S
H2247 C2239 0.929 . S
H2248 C2256 0.929 . S
H2249 C2258 0.930 . S
H2250 C2260 0.930 . S
H2251 C2263 0.929 . S
H2252 C2266 0.930 . S
H2253 C2268 0.960 . S
H2254 C2268 0.960 . S
H2255 C2268 0.960 . S
C2256 H2248 0.929 . S
C2256 C2257 1.377 . S
C2256 C2258 1.384 . S
C2257 C2256 1.377 . S
C2257 C2263 1.390 . S
C2258 H2249 0.930 . S
C2258 C2256 1.384 . S
C2258 C2259 1.372 . S
C2259 C2258 1.372 . S
C2259 C2260 1.400 . S
C2259 C2264 1.490 . S
C2260 H2250 0.930 . S
C2260 C2259 1.400 . S
C2260 C2263 1.386 . S
H2261 C2277 0.930 . S
H2262 C2278 0.931 . S
C2263 H2251 0.929 . S
C2263 C2257 1.390 . S
C2263 C2260 1.386 . S
C2264 C2259 1.490 . S
C2264 C2266 1.395 . S
C2264 C2267 1.403 . S
H2265 C2271 0.930 . S
C2266 H2252 0.930 . S
C2266 C2264 1.395 . S
C2266 C2269 1.403 . S
C2267 C2264 1.403 . S
C2267 C2268 1.524 . S
C2267 C2271 1.400 . S
C2268 H2253 0.960 . S
C2268 H2254 0.960 . S
C2268 H2255 0.960 . S
C2268 C2267 1.524 . S
C2269 C2266 1.403 . S
C2269 C2270 1.392 . S
C2269 C2273 1.495 . S
C2270 C2269 1.392 . S
C2270 C2271 1.385 . S
C2270 C2272 1.478 . S
C2271 H2265 0.930 . S
C2271 C2267 1.400 . S
C2271 C2270 1.385 . S
C2272 C2270 1.478 . S
C2272 C2274 1.381 . S
C2272 C2278 1.383 . S
C2273 C2269 1.495 . S
C2273 H2279 0.959 . S
C2273 H2280 0.961 . S
C2273 H2281 0.960 . S
C2274 C2272 1.381 . S
C2274 C2275 1.394 . S
C2274 H2282 0.930 . S
C2275 C2274 1.394 . S
C2275 C2276 1.383 . S
C2275 H2283 0.929 . S
C2276 C2275 1.383 . S
C2276 C2277 1.377 . S
C2277 H2261 0.930 . S
C2277 C2276 1.377 . S
C2277 C2278 1.379 . S
C2278 H2262 0.931 . S
C2278 C2272 1.383 . S
C2278 C2277 1.379 . S
H2279 C2273 0.959 . S
H2280 C2273 0.961 . S
H2281 C2273 0.960 . S
H2282 C2274 0.930 . S
H2283 C2275 0.929 . S
H2284 C2292 0.929 . S
H2285 C2294 0.930 . S
H2286 C2296 0.930 . S
H2287 C2299 0.929 . S
H2288 C2302 0.930 . S
H2289 C2304 0.960 . S
H2290 C2304 0.960 . S
H2291 C2304 0.960 . S
C2292 H2284 0.929 . S
C2292 C2293 1.377 . S
C2292 C2294 1.384 . S
C2293 C2292 1.377 . S
C2293 C2299 1.390 . S
C2294 H2285 0.930 . S
C2294 C2292 1.384 . S
C2294 C2295 1.372 . S
C2295 C2294 1.372 . S
C2295 C2296 1.400 . S
C2295 C2300 1.490 . S
C2296 H2286 0.930 . S
C2296 C2295 1.400 . S
C2296 C2299 1.386 . S
H2297 C2313 0.930 . S
H2298 C2314 0.931 . S
C2299 H2287 0.929 . S
C2299 C2293 1.390 . S
C2299 C2296 1.386 . S
C2300 C2295 1.490 . S
C2300 C2302 1.395 . S
C2300 C2303 1.403 . S
H2301 C2307 0.930 . S
C2302 H2288 0.930 . S
C2302 C2300 1.395 . S
C2302 C2305 1.403 . S
C2303 C2300 1.403 . S
C2303 C2304 1.524 . S
C2303 C2307 1.400 . S
C2304 H2289 0.960 . S
C2304 H2290 0.960 . S
C2304 H2291 0.960 . S
C2304 C2303 1.524 . S
C2305 C2302 1.403 . S
C2305 C2306 1.392 . S
C2305 C2309 1.495 . S
C2306 C2305 1.392 . S
C2306 C2307 1.385 . S
C2306 C2308 1.478 . S
C2307 H2301 0.930 . S
C2307 C2303 1.400 . S
C2307 C2306 1.385 . S
C2308 C2306 1.478 . S
C2308 C2310 1.381 . S
C2308 C2314 1.383 . S
C2309 C2305 1.495 . S
C2309 H2315 0.959 . S
C2309 H2316 0.961 . S
C2309 H2317 0.960 . S
C2310 C2308 1.381 . S
C2310 C2311 1.394 . S
C2310 H2318 0.930 . S
C2311 C2310 1.394 . S
C2311 C2312 1.383 . S
C2311 H2319 0.929 . S
C2312 C2311 1.383 . S
C2312 C2313 1.377 . S
C2313 H2297 0.930 . S
C2313 C2312 1.377 . S
C2313 C2314 1.379 . S
C2314 H2298 0.931 . S
C2314 C2308 1.383 . S
C2314 C2313 1.379 . S
H2315 C2309 0.959 . S
H2316 C2309 0.961 . S
H2317 C2309 0.960 . S
H2318 C2310 0.930 . S
H2319 C2311 0.929 . S
H2320 C2328 0.929 . S
H2321 C2330 0.930 . S
H2322 C2332 0.930 . S
H2323 C2335 0.929 . S
H2324 C2338 0.930 . S
H2325 C2340 0.960 . S
H2326 C2340 0.960 . S
H2327 C2340 0.960 . S
C2328 H2320 0.929 . S
C2328 C2329 1.377 . S
C2328 C2330 1.384 . S
C2329 C2328 1.377 . S
C2329 C2335 1.390 . S
C2330 H2321 0.930 . S
C2330 C2328 1.384 . S
C2330 C2331 1.372 . S
C2331 C2330 1.372 . S
C2331 C2332 1.400 . S
C2331 C2336 1.490 . S
C2332 H2322 0.930 . S
C2332 C2331 1.400 . S
C2332 C2335 1.386 . S
H2333 C2349 0.930 . S
H2334 C2350 0.931 . S
C2335 H2323 0.929 . S
C2335 C2329 1.390 . S
C2335 C2332 1.386 . S
C2336 C2331 1.490 . S
C2336 C2338 1.395 . S
C2336 C2339 1.403 . S
H2337 C2343 0.930 . S
C2338 H2324 0.930 . S
C2338 C2336 1.395 . S
C2338 C2341 1.403 . S
C2339 C2336 1.403 . S
C2339 C2340 1.524 . S
C2339 C2343 1.400 . S
C2340 H2325 0.960 . S
C2340 H2326 0.960 . S
C2340 H2327 0.960 . S
C2340 C2339 1.524 . S
C2341 C2338 1.403 . S
C2341 C2342 1.392 . S
C2341 C2345 1.495 . S
C2342 C2341 1.392 . S
C2342 C2343 1.385 . S
C2342 C2344 1.478 . S
C2343 H2337 0.930 . S
C2343 C2339 1.400 . S
C2343 C2342 1.385 . S
C2344 C2342 1.478 . S
C2344 C2346 1.381 . S
C2344 C2350 1.383 . S
C2345 C2341 1.495 . S
C2345 H2351 0.959 . S
C2345 H2352 0.961 . S
C2345 H2353 0.960 . S
C2346 C2344 1.381 . S
C2346 C2347 1.394 . S
C2346 H2354 0.930 . S
C2347 C2346 1.394 . S
C2347 C2348 1.383 . S
C2347 H2355 0.929 . S
C2348 C2347 1.383 . S
C2348 C2349 1.377 . S
C2349 H2333 0.930 . S
C2349 C2348 1.377 . S
C2349 C2350 1.379 . S
C2350 H2334 0.931 . S
C2350 C2344 1.383 . S
C2350 C2349 1.379 . S
H2351 C2345 0.959 . S
H2352 C2345 0.961 . S
H2353 C2345 0.960 . S
H2354 C2346 0.930 . S
H2355 C2347 0.929 . S
H2356 C2364 0.929 . S
H2357 C2366 0.930 . S
H2358 C2368 0.930 . S
H2359 C2371 0.929 . S
H2360 C2374 0.930 . S
H2361 C2376 0.960 . S
H2362 C2376 0.960 . S
H2363 C2376 0.960 . S
C2364 H2356 0.929 . S
C2364 C2365 1.377 . S
C2364 C2366 1.384 . S
C2365 C2364 1.377 . S
C2365 C2371 1.390 . S
C2366 H2357 0.930 . S
C2366 C2364 1.384 . S
C2366 C2367 1.372 . S
C2367 C2366 1.372 . S
C2367 C2368 1.400 . S
C2367 C2372 1.490 . S
C2368 H2358 0.930 . S
C2368 C2367 1.400 . S
C2368 C2371 1.386 . S
H2369 C2385 0.930 . S
H2370 C2386 0.931 . S
C2371 H2359 0.929 . S
C2371 C2365 1.390 . S
C2371 C2368 1.386 . S
C2372 C2367 1.490 . S
C2372 C2374 1.395 . S
C2372 C2375 1.403 . S
H2373 C2379 0.930 . S
C2374 H2360 0.930 . S
C2374 C2372 1.395 . S
C2374 C2377 1.403 . S
C2375 C2372 1.403 . S
C2375 C2376 1.524 . S
C2375 C2379 1.400 . S
C2376 H2361 0.960 . S
C2376 H2362 0.960 . S
C2376 H2363 0.960 . S
C2376 C2375 1.524 . S
C2377 C2374 1.403 . S
C2377 C2378 1.392 . S
C2377 C2381 1.495 . S
C2378 C2377 1.392 . S
C2378 C2379 1.385 . S
C2378 C2380 1.478 . S
C2379 H2373 0.930 . S
C2379 C2375 1.400 . S
C2379 C2378 1.385 . S
C2380 C2378 1.478 . S
C2380 C2382 1.381 . S
C2380 C2386 1.383 . S
C2381 C2377 1.495 . S
C2381 H2387 0.959 . S
C2381 H2388 0.961 . S
C2381 H2389 0.960 . S
C2382 C2380 1.381 . S
C2382 C2383 1.394 . S
C2382 H2390 0.930 . S
C2383 C2382 1.394 . S
C2383 C2384 1.383 . S
C2383 H2391 0.929 . S
C2384 C2383 1.383 . S
C2384 C2385 1.377 . S
C2385 H2369 0.930 . S
C2385 C2384 1.377 . S
C2385 C2386 1.379 . S
C2386 H2370 0.931 . S
C2386 C2380 1.383 . S
C2386 C2385 1.379 . S
H2387 C2381 0.959 . S
H2388 C2381 0.961 . S
H2389 C2381 0.960 . S
H2390 C2382 0.930 . S
H2391 C2383 0.929 . S
H2392 C2400 0.929 . S
H2393 C2402 0.930 . S
H2394 C2404 0.930 . S
H2395 C2407 0.929 . S
H2396 C2410 0.930 . S
H2397 C2412 0.960 . S
H2398 C2412 0.960 . S
H2399 C2412 0.960 . S
C2400 H2392 0.929 . S
C2400 C2401 1.377 . S
C2400 C2402 1.384 . S
C2401 C2400 1.377 . S
C2401 C2407 1.390 . S
C2402 H2393 0.930 . S
C2402 C2400 1.384 . S
C2402 C2403 1.372 . S
C2403 C2402 1.372 . S
C2403 C2404 1.400 . S
C2403 C2408 1.490 . S
C2404 H2394 0.930 . S
C2404 C2403 1.400 . S
C2404 C2407 1.386 . S
H2405 C2421 0.930 . S
H2406 C2422 0.931 . S
C2407 H2395 0.929 . S
C2407 C2401 1.390 . S
C2407 C2404 1.386 . S
C2408 C2403 1.490 . S
C2408 C2410 1.395 . S
C2408 C2411 1.403 . S
H2409 C2415 0.930 . S
C2410 H2396 0.930 . S
C2410 C2408 1.395 . S
C2410 C2413 1.403 . S
C2411 C2408 1.403 . S
C2411 C2412 1.524 . S
C2411 C2415 1.400 . S
C2412 H2397 0.960 . S
C2412 H2398 0.960 . S
C2412 H2399 0.960 . S
C2412 C2411 1.524 . S
C2413 C2410 1.403 . S
C2413 C2414 1.392 . S
C2413 C2417 1.495 . S
C2414 C2413 1.392 . S
C2414 C2415 1.385 . S
C2414 C2416 1.478 . S
C2415 H2409 0.930 . S
C2415 C2411 1.400 . S
C2415 C2414 1.385 . S
C2416 C2414 1.478 . S
C2416 C2418 1.381 . S
C2416 C2422 1.383 . S
C2417 C2413 1.495 . S
C2417 H2423 0.959 . S
C2417 H2424 0.961 . S
C2417 H2425 0.960 . S
C2418 C2416 1.381 . S
C2418 C2419 1.394 . S
C2418 H2426 0.930 . S
C2419 C2418 1.394 . S
C2419 C2420 1.383 . S
C2419 H2427 0.929 . S
C2420 C2419 1.383 . S
C2420 C2421 1.377 . S
C2421 H2405 0.930 . S
C2421 C2420 1.377 . S
C2421 C2422 1.379 . S
C2422 H2406 0.931 . S
C2422 C2416 1.383 . S
C2422 C2421 1.379 . S
H2423 C2417 0.959 . S
H2424 C2417 0.961 . S
H2425 C2417 0.960 . S
H2426 C2418 0.930 . S
H2427 C2419 0.929 . S
H2428 C2436 0.929 . S
H2429 C2438 0.930 . S
H2430 C2440 0.930 . S
H2431 C2443 0.929 . S
H2432 C2446 0.930 . S
H2433 C2448 0.960 . S
H2434 C2448 0.960 . S
H2435 C2448 0.960 . S
C2436 H2428 0.929 . S
C2436 C2437 1.377 . S
C2436 C2438 1.384 . S
C2437 C2436 1.377 . S
C2437 C2443 1.390 . S
C2438 H2429 0.930 . S
C2438 C2436 1.384 . S
C2438 C2439 1.372 . S
C2439 C2438 1.372 . S
C2439 C2440 1.400 . S
C2439 C2444 1.490 . S
C2440 H2430 0.930 . S
C2440 C2439 1.400 . S
C2440 C2443 1.386 . S
H2441 C2457 0.930 . S
H2442 C2458 0.931 . S
C2443 H2431 0.929 . S
C2443 C2437 1.390 . S
C2443 C2440 1.386 . S
C2444 C2439 1.490 . S
C2444 C2446 1.395 . S
C2444 C2447 1.403 . S
H2445 C2451 0.930 . S
C2446 H2432 0.930 . S
C2446 C2444 1.395 . S
C2446 C2449 1.403 . S
C2447 C2444 1.403 . S
C2447 C2448 1.524 . S
C2447 C2451 1.400 . S
C2448 H2433 0.960 . S
C2448 H2434 0.960 . S
C2448 H2435 0.960 . S
C2448 C2447 1.524 . S
C2449 C2446 1.403 . S
C2449 C2450 1.392 . S
C2449 C2453 1.495 . S
C2450 C2449 1.392 . S
C2450 C2451 1.385 . S
C2450 C2452 1.478 . S
C2451 H2445 0.930 . S
C2451 C2447 1.400 . S
C2451 C2450 1.385 . S
C2452 C2450 1.478 . S
C2452 C2454 1.381 . S
C2452 C2458 1.383 . S
C2453 C2449 1.495 . S
C2453 H2459 0.959 . S
C2453 H2460 0.961 . S
C2453 H2461 0.960 . S
C2454 C2452 1.381 . S
C2454 C2455 1.394 . S
C2454 H2462 0.930 . S
C2455 C2454 1.394 . S
C2455 C2456 1.383 . S
C2455 H2463 0.929 . S
C2456 C2455 1.383 . S
C2456 C2457 1.377 . S
C2457 H2441 0.930 . S
C2457 C2456 1.377 . S
C2457 C2458 1.379 . S
C2458 H2442 0.931 . S
C2458 C2452 1.383 . S
C2458 C2457 1.379 . S
H2459 C2453 0.959 . S
H2460 C2453 0.961 . S
H2461 C2453 0.960 . S
H2462 C2454 0.930 . S
H2463 C2455 0.929 . S
H2464 C2472 0.929 . S
H2465 C2474 0.930 . S
H2466 C2476 0.930 . S
H2467 C2479 0.929 . S
H2468 C2482 0.930 . S
H2469 C2484 0.960 . S
H2470 C2484 0.960 . S
H2471 C2484 0.960 . S
C2472 H2464 0.929 . S
C2472 C2473 1.377 . S
C2472 C2474 1.384 . S
C2473 C2472 1.377 . S
C2473 C2479 1.390 . S
C2474 H2465 0.930 . S
C2474 C2472 1.384 . S
C2474 C2475 1.372 . S
C2475 C2474 1.372 . S
C2475 C2476 1.400 . S
C2475 C2480 1.490 . S
C2476 H2466 0.930 . S
C2476 C2475 1.400 . S
C2476 C2479 1.386 . S
H2477 C2493 0.930 . S
H2478 C2494 0.931 . S
C2479 H2467 0.929 . S
C2479 C2473 1.390 . S
C2479 C2476 1.386 . S
C2480 C2475 1.490 . S
C2480 C2482 1.395 . S
C2480 C2483 1.403 . S
H2481 C2487 0.930 . S
C2482 H2468 0.930 . S
C2482 C2480 1.395 . S
C2482 C2485 1.403 . S
C2483 C2480 1.403 . S
C2483 C2484 1.524 . S
C2483 C2487 1.400 . S
C2484 H2469 0.960 . S
C2484 H2470 0.960 . S
C2484 H2471 0.960 . S
C2484 C2483 1.524 . S
C2485 C2482 1.403 . S
C2485 C2486 1.392 . S
C2485 C2489 1.495 . S
C2486 C2485 1.392 . S
C2486 C2487 1.385 . S
C2486 C2488 1.478 . S
C2487 H2481 0.930 . S
C2487 C2483 1.400 . S
C2487 C2486 1.385 . S
C2488 C2486 1.478 . S
C2488 C2490 1.381 . S
C2488 C2494 1.383 . S
C2489 C2485 1.495 . S
C2489 H2495 0.959 . S
C2489 H2496 0.961 . S
C2489 H2497 0.960 . S
C2490 C2488 1.381 . S
C2490 C2491 1.394 . S
C2490 H2498 0.930 . S
C2491 C2490 1.394 . S
C2491 C2492 1.383 . S
C2491 H2499 0.929 . S
C2492 C2491 1.383 . S
C2492 C2493 1.377 . S
C2493 H2477 0.930 . S
C2493 C2492 1.377 . S
C2493 C2494 1.379 . S
C2494 H2478 0.931 . S
C2494 C2488 1.383 . S
C2494 C2493 1.379 . S
H2495 C2489 0.959 . S
H2496 C2489 0.961 . S
H2497 C2489 0.960 . S
H2498 C2490 0.930 . S
H2499 C2491 0.929 . S
H2500 C2508 0.929 . S
H2501 C2510 0.930 . S
H2502 C2512 0.930 . S
H2503 C2515 0.929 . S
H2504 C2518 0.930 . S
H2505 C2520 0.960 . S
H2506 C2520 0.960 . S
H2507 C2520 0.960 . S
C2508 H2500 0.929 . S
C2508 C2509 1.377 . S
C2508 C2510 1.384 . S
C2509 C2508 1.377 . S
C2509 C2515 1.390 . S
C2510 H2501 0.930 . S
C2510 C2508 1.384 . S
C2510 C2511 1.372 . S
C2511 C2510 1.372 . S
C2511 C2512 1.400 . S
C2511 C2516 1.490 . S
C2512 H2502 0.930 . S
C2512 C2511 1.400 . S
C2512 C2515 1.386 . S
H2513 C2529 0.930 . S
H2514 C2530 0.931 . S
C2515 H2503 0.929 . S
C2515 C2509 1.390 . S
C2515 C2512 1.386 . S
C2516 C2511 1.490 . S
C2516 C2518 1.395 . S
C2516 C2519 1.403 . S
H2517 C2523 0.930 . S
C2518 H2504 0.930 . S
C2518 C2516 1.395 . S
C2518 C2521 1.403 . S
C2519 C2516 1.403 . S
C2519 C2520 1.524 . S
C2519 C2523 1.400 . S
C2520 H2505 0.960 . S
C2520 H2506 0.960 . S
C2520 H2507 0.960 . S
C2520 C2519 1.524 . S
C2521 C2518 1.403 . S
C2521 C2522 1.392 . S
C2521 C2525 1.495 . S
C2522 C2521 1.392 . S
C2522 C2523 1.385 . S
C2522 C2524 1.478 . S
C2523 H2517 0.930 . S
C2523 C2519 1.400 . S
C2523 C2522 1.385 . S
C2524 C2522 1.478 . S
C2524 C2526 1.381 . S
C2524 C2530 1.383 . S
C2525 C2521 1.495 . S
C2525 H2531 0.959 . S
C2525 H2532 0.961 . S
C2525 H2533 0.960 . S
C2526 C2524 1.381 . S
C2526 C2527 1.394 . S
C2526 H2534 0.930 . S
C2527 C2526 1.394 . S
C2527 C2528 1.383 . S
C2527 H2535 0.929 . S
C2528 C2527 1.383 . S
C2528 C2529 1.377 . S
C2529 H2513 0.930 . S
C2529 C2528 1.377 . S
C2529 C2530 1.379 . S
C2530 H2514 0.931 . S
C2530 C2524 1.383 . S
C2530 C2529 1.379 . S
H2531 C2525 0.959 . S
H2532 C2525 0.961 . S
H2533 C2525 0.960 . S
H2534 C2526 0.930 . S
H2535 C2527 0.929 . S
H2536 C2544 0.929 . S
H2537 C2546 0.930 . S
H2538 C2548 0.930 . S
H2539 C2551 0.929 . S
H2540 C2554 0.930 . S
H2541 C2556 0.960 . S
H2542 C2556 0.960 . S
H2543 C2556 0.960 . S
C2544 H2536 0.929 . S
C2544 C2545 1.377 . S
C2544 C2546 1.384 . S
C2545 C2544 1.377 . S
C2545 C2551 1.390 . S
C2546 H2537 0.930 . S
C2546 C2544 1.384 . S
C2546 C2547 1.372 . S
C2547 C2546 1.372 . S
C2547 C2548 1.400 . S
C2547 C2552 1.490 . S
C2548 H2538 0.930 . S
C2548 C2547 1.400 . S
C2548 C2551 1.386 . S
H2549 C2565 0.930 . S
H2550 C2566 0.931 . S
C2551 H2539 0.929 . S
C2551 C2545 1.390 . S
C2551 C2548 1.386 . S
C2552 C2547 1.490 . S
C2552 C2554 1.395 . S
C2552 C2555 1.403 . S
H2553 C2559 0.930 . S
C2554 H2540 0.930 . S
C2554 C2552 1.395 . S
C2554 C2557 1.403 . S
C2555 C2552 1.403 . S
C2555 C2556 1.524 . S
C2555 C2559 1.400 . S
C2556 H2541 0.960 . S
C2556 H2542 0.960 . S
C2556 H2543 0.960 . S
C2556 C2555 1.524 . S
C2557 C2554 1.403 . S
C2557 C2558 1.392 . S
C2557 C2561 1.495 . S
C2558 C2557 1.392 . S
C2558 C2559 1.385 . S
C2558 C2560 1.478 . S
C2559 H2553 0.930 . S
C2559 C2555 1.400 . S
C2559 C2558 1.385 . S
C2560 C2558 1.478 . S
C2560 C2562 1.381 . S
C2560 C2566 1.383 . S
C2561 C2557 1.495 . S
C2561 H2567 0.959 . S
C2561 H2568 0.961 . S
C2561 H2569 0.960 . S
C2562 C2560 1.381 . S
C2562 C2563 1.394 . S
C2562 H2570 0.930 . S
C2563 C2562 1.394 . S
C2563 C2564 1.383 . S
C2563 H2571 0.929 . S
C2564 C2563 1.383 . S
C2564 C2565 1.377 . S
C2565 H2549 0.930 . S
C2565 C2564 1.377 . S
C2565 C2566 1.379 . S
C2566 H2550 0.931 . S
C2566 C2560 1.383 . S
C2566 C2565 1.379 . S
H2567 C2561 0.959 . S
H2568 C2561 0.961 . S
H2569 C2561 0.960 . S
H2570 C2562 0.930 . S
H2571 C2563 0.929 . S
H2572 C2580 0.929 . S
H2573 C2582 0.930 . S
H2574 C2584 0.930 . S
H2575 C2587 0.929 . S
H2576 C2590 0.930 . S
H2577 C2592 0.960 . S
H2578 C2592 0.960 . S
H2579 C2592 0.960 . S
C2580 H2572 0.929 . S
C2580 C2581 1.377 . S
C2580 C2582 1.384 . S
C2581 C2580 1.377 . S
C2581 C2587 1.390 . S
C2582 H2573 0.930 . S
C2582 C2580 1.384 . S
C2582 C2583 1.372 . S
C2583 C2582 1.372 . S
C2583 C2584 1.400 . S
C2583 C2588 1.490 . S
C2584 H2574 0.930 . S
C2584 C2583 1.400 . S
C2584 C2587 1.386 . S
H2585 C2601 0.930 . S
H2586 C2602 0.931 . S
C2587 H2575 0.929 . S
C2587 C2581 1.390 . S
C2587 C2584 1.386 . S
C2588 C2583 1.490 . S
C2588 C2590 1.395 . S
C2588 C2591 1.403 . S
H2589 C2595 0.930 . S
C2590 H2576 0.930 . S
C2590 C2588 1.395 . S
C2590 C2593 1.403 . S
C2591 C2588 1.403 . S
C2591 C2592 1.524 . S
C2591 C2595 1.400 . S
C2592 H2577 0.960 . S
C2592 H2578 0.960 . S
C2592 H2579 0.960 . S
C2592 C2591 1.524 . S
C2593 C2590 1.403 . S
C2593 C2594 1.392 . S
C2593 C2597 1.495 . S
C2594 C2593 1.392 . S
C2594 C2595 1.385 . S
C2594 C2596 1.478 . S
C2595 H2589 0.930 . S
C2595 C2591 1.400 . S
C2595 C2594 1.385 . S
C2596 C2594 1.478 . S
C2596 C2598 1.381 . S
C2596 C2602 1.383 . S
C2597 C2593 1.495 . S
C2597 H2603 0.959 . S
C2597 H2604 0.961 . S
C2597 H2605 0.960 . S
C2598 C2596 1.381 . S
C2598 C2599 1.394 . S
C2598 H2606 0.930 . S
C2599 C2598 1.394 . S
C2599 C2600 1.383 . S
C2599 H2607 0.929 . S
C2600 C2599 1.383 . S
C2600 C2601 1.377 . S
C2601 H2585 0.930 . S
C2601 C2600 1.377 . S
C2601 C2602 1.379 . S
C2602 H2586 0.931 . S
C2602 C2596 1.383 . S
C2602 C2601 1.379 . S
H2603 C2597 0.959 . S
H2604 C2597 0.961 . S
H2605 C2597 0.960 . S
H2606 C2598 0.930 . S
H2607 C2599 0.929 . S
H2608 C2616 0.929 . S
H2609 C2618 0.930 . S
H2610 C2620 0.930 . S
H2611 C2623 0.929 . S
H2612 C2626 0.930 . S
H2613 C2628 0.960 . S
H2614 C2628 0.960 . S
H2615 C2628 0.960 . S
C2616 H2608 0.929 . S
C2616 C2617 1.377 . S
C2616 C2618 1.384 . S
C2617 C2616 1.377 . S
C2617 C2623 1.390 . S
C2618 H2609 0.930 . S
C2618 C2616 1.384 . S
C2618 C2619 1.372 . S
C2619 C2618 1.372 . S
C2619 C2620 1.400 . S
C2619 C2624 1.490 . S
C2620 H2610 0.930 . S
C2620 C2619 1.400 . S
C2620 C2623 1.386 . S
H2621 C2637 0.930 . S
H2622 C2638 0.931 . S
C2623 H2611 0.929 . S
C2623 C2617 1.390 . S
C2623 C2620 1.386 . S
C2624 C2619 1.490 . S
C2624 C2626 1.395 . S
C2624 C2627 1.403 . S
H2625 C2631 0.930 . S
C2626 H2612 0.930 . S
C2626 C2624 1.395 . S
C2626 C2629 1.403 . S
C2627 C2624 1.403 . S
C2627 C2628 1.524 . S
C2627 C2631 1.400 . S
C2628 H2613 0.960 . S
C2628 H2614 0.960 . S
C2628 H2615 0.960 . S
C2628 C2627 1.524 . S
C2629 C2626 1.403 . S
C2629 C2630 1.392 . S
C2629 C2633 1.495 . S
C2630 C2629 1.392 . S
C2630 C2631 1.385 . S
C2630 C2632 1.478 . S
C2631 H2625 0.930 . S
C2631 C2627 1.400 . S
C2631 C2630 1.385 . S
C2632 C2630 1.478 . S
C2632 C2634 1.381 . S
C2632 C2638 1.383 . S
C2633 C2629 1.495 . S
C2633 H2639 0.959 . S
C2633 H2640 0.961 . S
C2633 H2641 0.960 . S
C2634 C2632 1.381 . S
C2634 C2635 1.394 . S
C2634 H2642 0.930 . S
C2635 C2634 1.394 . S
C2635 C2636 1.383 . S
C2635 H2643 0.929 . S
C2636 C2635 1.383 . S
C2636 C2637 1.377 . S
C2637 H2621 0.930 . S
C2637 C2636 1.377 . S
C2637 C2638 1.379 . S
C2638 H2622 0.931 . S
C2638 C2632 1.383 . S
C2638 C2637 1.379 . S
H2639 C2633 0.959 . S
H2640 C2633 0.961 . S
H2641 C2633 0.960 . S
H2642 C2634 0.930 . S
H2643 C2635 0.929 . S
H2644 C2652 0.929 . S
H2645 C2654 0.930 . S
H2646 C2656 0.930 . S
H2647 C2659 0.929 . S
H2648 C2662 0.930 . S
H2649 C2664 0.960 . S
H2650 C2664 0.960 . S
H2651 C2664 0.960 . S
C2652 H2644 0.929 . S
C2652 C2653 1.377 . S
C2652 C2654 1.384 . S
C2653 C2652 1.377 . S
C2653 C2659 1.390 . S
C2654 H2645 0.930 . S
C2654 C2652 1.384 . S
C2654 C2655 1.372 . S
C2655 C2654 1.372 . S
C2655 C2656 1.400 . S
C2655 C2660 1.490 . S
C2656 H2646 0.930 . S
C2656 C2655 1.400 . S
C2656 C2659 1.386 . S
H2657 C2673 0.930 . S
H2658 C2674 0.931 . S
C2659 H2647 0.929 . S
C2659 C2653 1.390 . S
C2659 C2656 1.386 . S
C2660 C2655 1.490 . S
C2660 C2662 1.395 . S
C2660 C2663 1.403 . S
H2661 C2667 0.930 . S
C2662 H2648 0.930 . S
C2662 C2660 1.395 . S
C2662 C2665 1.403 . S
C2663 C2660 1.403 . S
C2663 C2664 1.524 . S
C2663 C2667 1.400 . S
C2664 H2649 0.960 . S
C2664 H2650 0.960 . S
C2664 H2651 0.960 . S
C2664 C2663 1.524 . S
C2665 C2662 1.403 . S
C2665 C2666 1.392 . S
C2665 C2669 1.495 . S
C2666 C2665 1.392 . S
C2666 C2667 1.385 . S
C2666 C2668 1.478 . S
C2667 H2661 0.930 . S
C2667 C2663 1.400 . S
C2667 C2666 1.385 . S
C2668 C2666 1.478 . S
C2668 C2670 1.381 . S
C2668 C2674 1.383 . S
C2669 C2665 1.495 . S
C2669 H2675 0.959 . S
C2669 H2676 0.961 . S
C2669 H2677 0.960 . S
C2670 C2668 1.381 . S
C2670 C2671 1.394 . S
C2670 H2678 0.930 . S
C2671 C2670 1.394 . S
C2671 C2672 1.383 . S
C2671 H2679 0.929 . S
C2672 C2671 1.383 . S
C2672 C2673 1.377 . S
C2673 H2657 0.930 . S
C2673 C2672 1.377 . S
C2673 C2674 1.379 . S
C2674 H2658 0.931 . S
C2674 C2668 1.383 . S
C2674 C2673 1.379 . S
H2675 C2669 0.959 . S
H2676 C2669 0.961 . S
H2677 C2669 0.960 . S
H2678 C2670 0.930 . S
H2679 C2671 0.929 . S
H2680 C2688 0.929 . S
H2681 C2690 0.930 . S
H2682 C2692 0.930 . S
H2683 C2695 0.929 . S
H2684 C2698 0.930 . S
H2685 C2700 0.960 . S
H2686 C2700 0.960 . S
H2687 C2700 0.960 . S
C2688 H2680 0.929 . S
C2688 C2689 1.377 . S
C2688 C2690 1.384 . S
C2689 C2688 1.377 . S
C2689 C2695 1.390 . S
C2690 H2681 0.930 . S
C2690 C2688 1.384 . S
C2690 C2691 1.372 . S
C2691 C2690 1.372 . S
C2691 C2692 1.400 . S
C2691 C2696 1.490 . S
C2692 H2682 0.930 . S
C2692 C2691 1.400 . S
C2692 C2695 1.386 . S
H2693 C2709 0.930 . S
H2694 C2710 0.931 . S
C2695 H2683 0.929 . S
C2695 C2689 1.390 . S
C2695 C2692 1.386 . S
C2696 C2691 1.490 . S
C2696 C2698 1.395 . S
C2696 C2699 1.403 . S
H2697 C2703 0.930 . S
C2698 H2684 0.930 . S
C2698 C2696 1.395 . S
C2698 C2701 1.403 . S
C2699 C2696 1.403 . S
C2699 C2700 1.524 . S
C2699 C2703 1.400 . S
C2700 H2685 0.960 . S
C2700 H2686 0.960 . S
C2700 H2687 0.960 . S
C2700 C2699 1.524 . S
C2701 C2698 1.403 . S
C2701 C2702 1.392 . S
C2701 C2705 1.495 . S
C2702 C2701 1.392 . S
C2702 C2703 1.385 . S
C2702 C2704 1.478 . S
C2703 H2697 0.930 . S
C2703 C2699 1.400 . S
C2703 C2702 1.385 . S
C2704 C2702 1.478 . S
C2704 C2706 1.381 . S
C2704 C2710 1.383 . S
C2705 C2701 1.495 . S
C2705 H2711 0.959 . S
C2705 H2712 0.961 . S
C2705 H2713 0.960 . S
C2706 C2704 1.381 . S
C2706 C2707 1.394 . S
C2706 H2714 0.930 . S
C2707 C2706 1.394 . S
C2707 C2708 1.383 . S
C2707 H2715 0.929 . S
C2708 C2707 1.383 . S
C2708 C2709 1.377 . S
C2709 H2693 0.930 . S
C2709 C2708 1.377 . S
C2709 C2710 1.379 . S
C2710 H2694 0.931 . S
C2710 C2704 1.383 . S
C2710 C2709 1.379 . S
H2711 C2705 0.959 . S
H2712 C2705 0.961 . S
H2713 C2705 0.960 . S
H2714 C2706 0.930 . S
H2715 C2707 0.929 . S
H2716 C2724 0.929 . S
H2717 C2726 0.930 . S
H2718 C2728 0.930 . S
H2719 C2731 0.929 . S
H2720 C2734 0.930 . S
H2721 C2736 0.960 . S
H2722 C2736 0.960 . S
H2723 C2736 0.960 . S
C2724 H2716 0.929 . S
C2724 C2725 1.377 . S
C2724 C2726 1.384 . S
C2725 C2724 1.377 . S
C2725 C2731 1.390 . S
C2726 H2717 0.930 . S
C2726 C2724 1.384 . S
C2726 C2727 1.372 . S
C2727 C2726 1.372 . S
C2727 C2728 1.400 . S
C2727 C2732 1.490 . S
C2728 H2718 0.930 . S
C2728 C2727 1.400 . S
C2728 C2731 1.386 . S
H2729 C2745 0.930 . S
H2730 C2746 0.931 . S
C2731 H2719 0.929 . S
C2731 C2725 1.390 . S
C2731 C2728 1.386 . S
C2732 C2727 1.490 . S
C2732 C2734 1.395 . S
C2732 C2735 1.403 . S
H2733 C2739 0.930 . S
C2734 H2720 0.930 . S
C2734 C2732 1.395 . S
C2734 C2737 1.403 . S
C2735 C2732 1.403 . S
C2735 C2736 1.524 . S
C2735 C2739 1.400 . S
C2736 H2721 0.960 . S
C2736 H2722 0.960 . S
C2736 H2723 0.960 . S
C2736 C2735 1.524 . S
C2737 C2734 1.403 . S
C2737 C2738 1.392 . S
C2737 C2741 1.495 . S
C2738 C2737 1.392 . S
C2738 C2739 1.385 . S
C2738 C2740 1.478 . S
C2739 H2733 0.930 . S
C2739 C2735 1.400 . S
C2739 C2738 1.385 . S
C2740 C2738 1.478 . S
C2740 C2742 1.381 . S
C2740 C2746 1.383 . S
C2741 C2737 1.495 . S
C2741 H2747 0.959 . S
C2741 H2748 0.961 . S
C2741 H2749 0.960 . S
C2742 C2740 1.381 . S
C2742 C2743 1.394 . S
C2742 H2750 0.930 . S
C2743 C2742 1.394 . S
C2743 C2744 1.383 . S
C2743 H2751 0.929 . S
C2744 C2743 1.383 . S
C2744 C2745 1.377 . S
C2745 H2729 0.930 . S
C2745 C2744 1.377 . S
C2745 C2746 1.379 . S
C2746 H2730 0.931 . S
C2746 C2740 1.383 . S
C2746 C2745 1.379 . S
H2747 C2741 0.959 . S
H2748 C2741 0.961 . S
H2749 C2741 0.960 . S
H2750 C2742 0.930 . S
H2751 C2743 0.929 . S
C457 C149 1.144 . S
C476 C9 1.169 . S
C493 C23 1.154 . S
C512 C163 1.147 . S
C529 C37 1.144 . S
C548 C121 1.170 . S
C565 C135 1.154 . S
C584 C51 1.148 . S
C601 C205 1.149 . S
C620 C65 1.150 . S
C637 C79 1.150 . S
C656 C219 1.148 . S
C673 C177 1.143 . S
C692 C93 1.173 . S
C709 C191 1.149 . S
C728 C107 1.155 . S
C745 C373 1.141 . S
C764 C233 1.136 . S
C781 C387 1.143 . S
C800 C247 1.124 . S
C817 C345 1.152 . S
C836 C261 1.131 . S
C853 C275 1.143 . S
C872 C359 1.162 . S
C889 C429 1.149 . S
C908 C289 1.153 . S
C925 C443 1.151 . S
C944 C303 1.141 . S
C961 C317 1.142 . S
C980 C401 1.157 . S
C997 C331 1.141 . S
C1016 C415 1.170 . S
C1033 C277 1.216 . S
C1052 C11 1.223 . S
C1069 C25 1.216 . S
C1088 C263 1.227 . S
C1105 C249 1.216 . S
C1124 C39 1.233 . S
C1141 C235 1.215 . S
C1160 C53 1.230 . S
C1177 C67 1.216 . S
C1196 C333 1.197 . S
C1213 C81 1.216 . S
C1232 C319 1.193 . S
C1249 C305 1.214 . S
C1268 C95 1.210 . S
C1285 C109 1.212 . S
C1304 C291 1.191 . S
C1321 C389 1.207 . S
C1340 C123 1.190 . S
C1357 C375 1.215 . S
C1376 C137 1.223 . S
C1393 C361 1.210 . S
C1412 C151 1.208 . S
C1429 C347 1.207 . S
C1448 C165 1.188 . S
C1465 C179 1.209 . S
C1484 C445 1.231 . S
C1501 C431 1.207 . S
C1520 C193 1.230 . S
C1537 C207 1.213 . S
C1556 C417 1.188 . S
C1573 C221 1.209 . S
C1592 C403 1.231 . S
C1609 C168 1.194 . S
C1628 C0 1.191 . S
C1645 C14 1.202 . S
C1664 C294 1.228 . S
C1681 C84 1.197 . S
C1700 C28 1.212 . S
C1717 C434 1.205 . S
C1736 C42 1.226 . S
C1753 C56 1.196 . S
C1772 C112 1.169 . S
C1789 C238 1.194 . S
C1808 C70 1.184 . S
C1825 C378 1.203 . S
C1844 C98 1.181 . S
C1861 C406 1.205 . S
C1880 C126 1.226 . S
C1897 C140 1.206 . S
C1916 C196 1.203 . S
C1933 C322 1.205 . S
C1952 C154 1.189 . S
C1969 C350 1.197 . S
C1988 C182 1.168 . S
C2005 C210 1.202 . S
C2024 C266 1.176 . S
C2041 C224 1.196 . S
C2060 C392 1.168 . S
C2077 C308 1.195 . S
C2096 C252 1.204 . S
C2113 C336 1.200 . S
C2132 C280 1.224 . S
C2149 C364 1.194 . S
C2168 C420 1.184 . S
C2185 C5 0.879 . S
C2204 C47 0.885 . S
C2221 C33 0.876 . S
C2240 C19 0.890 . S
C2257 C61 0.872 . S
C2276 C103 0.873 . S
C2293 C75 0.874 . S
C2312 C89 0.865 . S
C2329 C117 0.879 . S
C2348 C159 0.883 . S
C2365 C131 0.873 . S
C2384 C145 0.874 . S
C2401 C173 0.872 . S
C2420 C215 0.874 . S
C2437 C201 0.871 . S
C2456 C187 0.881 . S
C2473 C271 0.880 . S
C2492 C229 0.899 . S
C2509 C257 0.875 . S
C2528 C243 0.885 . S
C2545 C327 0.878 . S
C2564 C285 0.850 . S
C2581 C313 0.872 . S
C2600 C299 0.897 . S
C2617 C383 0.871 . S
C2636 C341 0.865 . S
C2653 C369 0.878 . S
C2672 C355 0.879 . S
C2689 C397 0.877 . S
C2708 C439 0.879 . S
C2725 C425 0.880 . S
C2744 C411 0.853 . S
