# Generated by pormake.
# Topology umk, (4)-cn, num edge types: 1
# Building blocks:
#     Node 0, Type 0, BuildingBlock: TATPOV_clean_sbu_0, # of connection points: 4
#     Node 1, Type 0, BuildingBlock: TATPOV_clean_sbu_0, # of connection points: 4
#     Node 2, Type 0, BuildingBlock: TATPOV_clean_sbu_0, # of connection points: 4
#     Node 3, Type 0, BuildingBlock: TATPOV_clean_sbu_0, # of connection points: 4
#     Node 4, Type 0, BuildingBlock: TATPOV_clean_sbu_0, # of connection points: 4
#     Node 5, Type 0, BuildingBlock: TATPOV_clean_sbu_0, # of connection points: 4
#     Node 6, Type 0, BuildingBlock: TATPOV_clean_sbu_0, # of connection points: 4
#     Node 7, Type 0, BuildingBlock: TATPOV_clean_sbu_0, # of connection points: 4
#     Node 8, Type 0, BuildingBlock: TATPOV_clean_sbu_0, # of connection points: 4
#     Node 9, Type 0, BuildingBlock: TATPOV_clean_sbu_0, # of connection points: 4
#     Node 10, Type 0, BuildingBlock: TATPOV_clean_sbu_0, # of connection points: 4
#     Node 11, Type 0, BuildingBlock: TATPOV_clean_sbu_0, # of connection points: 4
#     Node 12, Type 0, BuildingBlock: TATPOV_clean_sbu_0, # of connection points: 4
#     Node 13, Type 0, BuildingBlock: TATPOV_clean_sbu_0, # of connection points: 4
#     Node 14, Type 0, BuildingBlock: TATPOV_clean_sbu_0, # of connection points: 4
#     Node 15, Type 0, BuildingBlock: TATPOV_clean_sbu_0, # of connection points: 4
#     Node 16, Type 0, BuildingBlock: TATPOV_clean_sbu_0, # of connection points: 4
#     Node 17, Type 0, BuildingBlock: TATPOV_clean_sbu_0, # of connection points: 4
#     Node 18, Type 0, BuildingBlock: TATPOV_clean_sbu_0, # of connection points: 4
#     Node 19, Type 0, BuildingBlock: TATPOV_clean_sbu_0, # of connection points: 4
#     Node 20, Type 0, BuildingBlock: TATPOV_clean_sbu_0, # of connection points: 4
#     Node 21, Type 0, BuildingBlock: TATPOV_clean_sbu_0, # of connection points: 4
#     Node 22, Type 0, BuildingBlock: TATPOV_clean_sbu_0, # of connection points: 4
#     Node 23, Type 0, BuildingBlock: TATPOV_clean_sbu_0, # of connection points: 4
#     Edge 24, Type (0, 0), BuildingBlock: XIVTED_clean_linker_0, # of connection points: 2
#     Edge 25, Type (0, 0), BuildingBlock: XIVTED_clean_linker_0, # of connection points: 2
#     Edge 26, Type (0, 0), BuildingBlock: XIVTED_clean_linker_0, # of connection points: 2
#     Edge 27, Type (0, 0), BuildingBlock: XIVTED_clean_linker_0, # of connection points: 2
#     Edge 28, Type (0, 0), BuildingBlock: XIVTED_clean_linker_0, # of connection points: 2
#     Edge 29, Type (0, 0), BuildingBlock: XIVTED_clean_linker_0, # of connection points: 2
#     Edge 30, Type (0, 0), BuildingBlock: XIVTED_clean_linker_0, # of connection points: 2
#     Edge 31, Type (0, 0), BuildingBlock: XIVTED_clean_linker_0, # of connection points: 2
#     Edge 32, Type (0, 0), BuildingBlock: XIVTED_clean_linker_0, # of connection points: 2
#     Edge 33, Type (0, 0), BuildingBlock: XIVTED_clean_linker_0, # of connection points: 2
#     Edge 34, Type (0, 0), BuildingBlock: XIVTED_clean_linker_0, # of connection points: 2
#     Edge 35, Type (0, 0), BuildingBlock: XIVTED_clean_linker_0, # of connection points: 2
#     Edge 36, Type (0, 0), BuildingBlock: XIVTED_clean_linker_0, # of connection points: 2
#     Edge 37, Type (0, 0), BuildingBlock: XIVTED_clean_linker_0, # of connection points: 2
#     Edge 38, Type (0, 0), BuildingBlock: XIVTED_clean_linker_0, # of connection points: 2
#     Edge 39, Type (0, 0), BuildingBlock: XIVTED_clean_linker_0, # of connection points: 2
#     Edge 40, Type (0, 0), BuildingBlock: XIVTED_clean_linker_0, # of connection points: 2
#     Edge 41, Type (0, 0), BuildingBlock: XIVTED_clean_linker_0, # of connection points: 2
#     Edge 42, Type (0, 0), BuildingBlock: XIVTED_clean_linker_0, # of connection points: 2
#     Edge 43, Type (0, 0), BuildingBlock: XIVTED_clean_linker_0, # of connection points: 2
#     Edge 44, Type (0, 0), BuildingBlock: XIVTED_clean_linker_0, # of connection points: 2
#     Edge 45, Type (0, 0), BuildingBlock: XIVTED_clean_linker_0, # of connection points: 2
#     Edge 46, Type (0, 0), BuildingBlock: XIVTED_clean_linker_0, # of connection points: 2
#     Edge 47, Type (0, 0), BuildingBlock: XIVTED_clean_linker_0, # of connection points: 2
#     Edge 48, Type (0, 0), BuildingBlock: XIVTED_clean_linker_0, # of connection points: 2
#     Edge 49, Type (0, 0), BuildingBlock: XIVTED_clean_linker_0, # of connection points: 2
#     Edge 50, Type (0, 0), BuildingBlock: XIVTED_clean_linker_0, # of connection points: 2
#     Edge 51, Type (0, 0), BuildingBlock: XIVTED_clean_linker_0, # of connection points: 2
#     Edge 52, Type (0, 0), BuildingBlock: XIVTED_clean_linker_0, # of connection points: 2
#     Edge 53, Type (0, 0), BuildingBlock: XIVTED_clean_linker_0, # of connection points: 2
#     Edge 54, Type (0, 0), BuildingBlock: XIVTED_clean_linker_0, # of connection points: 2
#     Edge 55, Type (0, 0), BuildingBlock: XIVTED_clean_linker_0, # of connection points: 2
#     Edge 56, Type (0, 0), BuildingBlock: XIVTED_clean_linker_0, # of connection points: 2
#     Edge 57, Type (0, 0), BuildingBlock: XIVTED_clean_linker_0, # of connection points: 2
#     Edge 58, Type (0, 0), BuildingBlock: XIVTED_clean_linker_0, # of connection points: 2
#     Edge 59, Type (0, 0), BuildingBlock: XIVTED_clean_linker_0, # of connection points: 2
#     Edge 60, Type (0, 0), BuildingBlock: XIVTED_clean_linker_0, # of connection points: 2
#     Edge 61, Type (0, 0), BuildingBlock: XIVTED_clean_linker_0, # of connection points: 2
#     Edge 62, Type (0, 0), BuildingBlock: XIVTED_clean_linker_0, # of connection points: 2
#     Edge 63, Type (0, 0), BuildingBlock: XIVTED_clean_linker_0, # of connection points: 2
#     Edge 64, Type (0, 0), BuildingBlock: XIVTED_clean_linker_0, # of connection points: 2
#     Edge 65, Type (0, 0), BuildingBlock: XIVTED_clean_linker_0, # of connection points: 2
#     Edge 66, Type (0, 0), BuildingBlock: XIVTED_clean_linker_0, # of connection points: 2
#     Edge 67, Type (0, 0), BuildingBlock: XIVTED_clean_linker_0, # of connection points: 2
#     Edge 68, Type (0, 0), BuildingBlock: XIVTED_clean_linker_0, # of connection points: 2
#     Edge 69, Type (0, 0), BuildingBlock: XIVTED_clean_linker_0, # of connection points: 2
#     Edge 70, Type (0, 0), BuildingBlock: XIVTED_clean_linker_0, # of connection points: 2
#     Edge 71, Type (0, 0), BuildingBlock: XIVTED_clean_linker_0, # of connection points: 2
# Relax obj value: 0.095
# Max RMSD: 0.113
# Mean RMSD: 0.113
data_MOF--net-umk--node1-TATPOV_clean_sbu_0--edge1-XIVTED_clean_linker_0
_symmetry_space_group_name_H-M    P1
_symmetry_Int_Tables_number       1
_symmetry_cell_setting            triclinic
loop_
_symmetry_equiv_pos_as_xyz
'x, y, z'
_cell_length_a     65.49507
_cell_length_b     65.440077
_cell_length_c     43.333551
_cell_angle_alpha  90.12129
_cell_angle_beta   89.891421
_cell_angle_gamma 119.9953
loop_
_atom_site_label
_atom_site_type_symbol
_atom_site_fract_x
_atom_site_fract_y
_atom_site_fract_z
_atom_type_partial_charge
Zn0 Zn 0.32804 0.43154 0.0711 0.0
Zn1 Zn 0.2891 0.42165 0.04577 0.0
O2 O 0.28534 0.4296 0.09079 0.0
O3 O 0.31444 0.42808 0.11376 0.0
O4 O 0.25872 0.4159 0.02669 0.0
O5 O 0.34449 0.46365 0.05152 0.0
O6 O 0.3134 0.45106 0.02164 0.0
C7 C 0.29617 0.42997 0.11534 0.0
C8 C 0.30831 0.38779 0.04018 0.0
O9 O 0.29043 0.39067 0.03933 0.0
O10 O 0.32784 0.40411 0.05016 0.0
C11 C 0.2551 0.41338 -0.00222 0.0
O12 O 0.27083 0.41245 0.97986 0.0
C13 C 0.33429 0.46685 0.02884 0.0
Zn14 Zn 0.92205 0.33483 0.63316 0.0
Zn15 Zn 0.88685 0.30827 0.59397 0.0
O16 O 0.87365 0.2932 0.63645 0.0
O17 O 0.90275 0.31431 0.6686 0.0
O18 O 0.85988 0.28886 0.56542 0.0
O19 O 0.91925 0.36342 0.61984 0.0
O20 O 0.88951 0.34039 0.58964 0.0
C21 C 0.88202 0.29754 0.66373 0.0
C22 C 0.93663 0.31519 0.5845 0.0
O23 O 0.91558 0.30746 0.57509 0.0
O24 O 0.94344 0.32653 0.60963 0.0
C25 C 0.85655 0.2707 0.55057 0.0
O26 O 0.87174 0.26326 0.55332 0.0
C27 C 0.90328 0.36066 0.60096 0.0
Zn28 Zn 0.50837 0.86563 0.13384 0.0
Zn29 Zn 0.52185 0.83999 0.10203 0.0
O30 O 0.52676 0.83446 0.14804 0.0
O31 O 0.50876 0.85012 0.17341 0.0
O32 O 0.527 0.81614 0.079 0.0
O33 O 0.47795 0.85358 0.11064 0.0
O34 O 0.48854 0.83086 0.08632 0.0
C35 C 0.51949 0.83856 0.17336 0.0
C36 C 0.55154 0.89268 0.09746 0.0
O37 O 0.54695 0.87271 0.0867 0.0
O38 O 0.53865 0.89408 0.11827 0.0
C39 C 0.54483 0.81955 0.06326 0.0
O40 O 0.56328 0.84086 0.06152 0.0
C41 C 0.47363 0.83768 0.09089 0.0
Zn42 Zn 0.64851 0.54851 0.642 0.0
Zn43 Zn 0.68632 0.55098 0.61371 0.0
O44 O 0.6918 0.548 0.66009 0.0
O45 O 0.66184 0.54793 0.68344 0.0
O46 O 0.71429 0.55127 0.5942 0.0
O47 O 0.6276 0.51799 0.61822 0.0
O48 O 0.65903 0.52138 0.59491 0.0
C49 C 0.68087 0.54742 0.6847 0.0
C50 C 0.67428 0.59025 0.60475 0.0
O51 O 0.68707 0.58124 0.59815 0.0
O52 O 0.65716 0.57998 0.62333 0.0
C53 C 0.73309 0.56949 0.58546 0.0
O54 O 0.73516 0.59041 0.58869 0.0
C55 C 0.6368 0.51037 0.5989 0.0
Zn56 Zn 0.0913 0.64297 0.07305 0.0
Zn57 Zn 0.11749 0.68405 0.05616 0.0
O58 O 0.12351 0.6875 0.10318 0.0
O59 O 0.09257 0.65387 0.11661 0.0
O60 O 0.14034 0.71652 0.04005 0.0
O61 O 0.11241 0.6308 0.05986 0.0
O62 O 0.12922 0.66371 0.03326 0.0
C63 C 0.10974 0.67378 0.12397 0.0
C64 C 0.06494 0.65806 0.04074 0.0
O65 O 0.08362 0.67771 0.04603 0.0
O66 O 0.0648 0.63898 0.04585 0.0
C67 C 0.1402 0.72226 0.01209 0.0
O68 O 0.12349 0.70724 0.99364 0.0
C69 C 0.12693 0.6436 0.03942 0.0
Zn70 Zn 0.44812 0.1253 0.58784 0.0
Zn71 Zn 0.43608 0.15313 0.56613 0.0
O72 O 0.43676 0.15828 0.61321 0.0
O73 O 0.43627 0.12647 0.63028 0.0
O74 O 0.42765 0.17695 0.55102 0.0
O75 O 0.48216 0.14683 0.57702 0.0
O76 O 0.46897 0.16441 0.54647 0.0
C77 C 0.43485 0.14474 0.63541 0.0
C78 C 0.41011 0.10171 0.5469 0.0
O79 O 0.40925 0.12059 0.5507 0.0
O80 O 0.42708 0.10008 0.55797 0.0
C81 C 0.4153 0.17503 0.52746 0.0
O82 O 0.40674 0.15589 0.51039 0.0
C83 C 0.48579 0.16145 0.55571 0.0
Zn84 Zn 0.49664 0.59811 0.88929 0.0
Zn85 Zn 0.50821 0.63724 0.91318 0.0
O86 O 0.51682 0.64712 0.86743 0.0
O87 O 0.51457 0.61419 0.85114 0.0
O88 O 0.5143 0.66686 0.93529 0.0
O89 O 0.46188 0.58479 0.8916 0.0
O90 O 0.47285 0.61436 0.92382 0.0
C91 C 0.52025 0.63545 0.84647 0.0
C92 C 0.52926 0.60829 0.93689 0.0
O93 O 0.53154 0.62865 0.93343 0.0
O94 O 0.51304 0.59071 0.92289 0.0
C95 C 0.53427 0.68557 0.93722 0.0
O96 O 0.55261 0.68647 0.92351 0.0
C97 C 0.45666 0.5951 0.91218 0.0
Zn98 Zn 0.91169 0.51809 0.43396 0.0
Zn99 Zn 0.88409 0.52513 0.46679 0.0
O100 O 0.87014 0.51972 0.42239 0.0
O101 O 0.88859 0.50361 0.39944 0.0
O102 O 0.86122 0.53088 0.49083 0.0
O103 O 0.91402 0.49771 0.46674 0.0
O104 O 0.88324 0.49661 0.48886 0.0
C105 C 0.8728 0.50933 0.39912 0.0
C106 C 0.93393 0.56476 0.45569 0.0
O107 O 0.91593 0.55573 0.47323 0.0
O108 O 0.93529 0.55288 0.43354 0.0
C109 C 0.86094 0.54997 0.4869 0.0
O110 O 0.87603 0.56581 0.4676 0.0
C111 C 0.89818 0.48955 0.4873 0.0
Zn112 Zn 0.37505 0.85774 0.87063 0.0
Zn113 Zn 0.33875 0.85355 0.90288 0.0
O114 O 0.32634 0.84116 0.85878 0.0
O115 O 0.35555 0.84144 0.83337 0.0
O116 O 0.30884 0.84409 0.92703 0.0
O117 O 0.38288 0.83983 0.90117 0.0
O118 O 0.35426 0.83851 0.92926 0.0
C119 C 0.33444 0.83706 0.8342 0.0
C120 C 0.37833 0.90261 0.89058 0.0
O121 O 0.35831 0.8897 0.90324 0.0
O122 O 0.38837 0.89316 0.87607 0.0
C123 C 0.29011 0.84171 0.91484 0.0
O124 O 0.29047 0.84754 0.88577 0.0
C125 C 0.37101 0.83407 0.92587 0.0
Zn126 Zn 0.51332 0.3936 0.37947 0.0
Zn127 Zn 0.47985 0.36485 0.41965 0.0
O128 O 0.479 0.34431 0.38325 0.0
O129 O 0.50754 0.36651 0.35119 0.0
O130 O 0.45735 0.33983 0.44869 0.0
O131 O 0.53802 0.40495 0.41313 0.0
O132 O 0.50985 0.38279 0.44584 0.0
C133 C 0.49034 0.34655 0.35843 0.0
C134 C 0.4737 0.40264 0.38967 0.0
O135 O 0.46583 0.38543 0.40852 0.0
O136 O 0.49279 0.40896 0.37511 0.0
C137 C 0.43827 0.32263 0.43853 0.0
O138 O 0.43194 0.32327 0.40995 0.0
C139 C 0.53136 0.39785 0.44044 0.0
Zn140 Zn 0.09452 0.49806 0.86861 0.0
Zn141 Zn 0.11865 0.48039 0.89142 0.0
O142 O 0.12281 0.47766 0.84455 0.0
O143 O 0.09669 0.48639 0.82668 0.0
O144 O 0.13794 0.46761 0.91101 0.0
O145 O 0.1177 0.53088 0.88176 0.0
O146 O 0.13332 0.51427 0.90985 0.0
C147 C 0.11116 0.47923 0.82208 0.0
C148 C 0.06661 0.45941 0.90771 0.0
O149 O 0.08475 0.45706 0.90594 0.0
O150 O 0.06692 0.47726 0.89601 0.0
C151 C 0.14045 0.45138 0.89858 0.0
O152 O 0.13017 0.44242 0.87203 0.0
C153 C 0.13207 0.53247 0.90235 0.0
Zn154 Zn 0.61126 0.11591 0.43054 0.0
Zn155 Zn 0.6533 0.15037 0.43842 0.0
O156 O 0.65387 0.1455 0.39146 0.0
O157 O 0.6204 0.11197 0.38762 0.0
O158 O 0.68625 0.17592 0.44826 0.0
O159 O 0.59703 0.13629 0.43762 0.0
O160 O 0.63201 0.16368 0.45374 0.0
C161 C 0.6394 0.12774 0.37553 0.0
C162 C 0.63494 0.10288 0.47223 0.0
O163 O 0.65173 0.12241 0.46234 0.0
O164 O 0.61393 0.09658 0.46485 0.0
C165 C 0.70293 0.17179 0.4428 0.0
O166 O 0.69804 0.15177 0.42953 0.0
C167 C 0.6101 0.15628 0.4497 0.0
Zn168 Zn 0.6028 0.48202 0.91439 0.0
Zn169 Zn 0.636 0.49691 0.95689 0.0
O170 O 0.65199 0.49936 0.91444 0.0
O171 O 0.62328 0.48105 0.88091 0.0
O172 O 0.66338 0.50672 0.98581 0.0
O173 O 0.58212 0.45266 0.93848 0.0
O174 O 0.61012 0.46446 0.97349 0.0
C175 C 0.64502 0.4917 0.88719 0.0
C176 C 0.61326 0.52608 0.9451 0.0
O177 O 0.62647 0.52199 0.96238 0.0
O178 O 0.60239 0.51255 0.92262 0.0
C179 C 0.68239 0.52576 0.97992 0.0
O180 O 0.68289 0.53869 0.95645 0.0
C181 C 0.58968 0.4493 0.9637 0.0
Zn182 Zn 0.11313 0.62465 0.39153 0.0
Zn183 Zn 0.14283 0.66498 0.41119 0.0
O184 O 0.14239 0.67214 0.3649 0.0
O185 O 0.11026 0.6392 0.35232 0.0
O186 O 0.16544 0.69629 0.42972 0.0
O187 O 0.1354 0.61221 0.39417 0.0
O188 O 0.15654 0.64341 0.42307 0.0
C189 C 0.12627 0.65987 0.34545 0.0
C190 C 0.09365 0.63817 0.43915 0.0
O191 O 0.11204 0.65779 0.43325 0.0
O192 O 0.0908 0.61945 0.42664 0.0
C193 C 0.18638 0.7096 0.42031 0.0
O194 O 0.19443 0.70276 0.39704 0.0
C195 C 0.15246 0.62351 0.41245 0.0
Zn196 Zn 0.49873 0.1257 0.86766 0.0
Zn197 Zn 0.46982 0.12804 0.90914 0.0
O198 O 0.46574 0.14277 0.86918 0.0
O199 O 0.49216 0.14424 0.83647 0.0
O200 O 0.45157 0.13586 0.94001 0.0
O201 O 0.52694 0.14222 0.89498 0.0
O202 O 0.50269 0.14274 0.92973 0.0
C203 C 0.47592 0.14861 0.84301 0.0
C204 C 0.4597 0.07981 0.88935 0.0
O205 O 0.45385 0.09197 0.90639 0.0
O206 O 0.47735 0.09006 0.87143 0.0
C207 C 0.43303 0.1363 0.93251 0.0
O208 O 0.42416 0.12924 0.90479 0.0
C209 C 0.52333 0.1473 0.92185 0.0
Zn210 Zn 0.38838 0.53575 0.32909 0.0
Zn211 Zn 0.3564 0.51017 0.37255 0.0
O212 O 0.33787 0.50426 0.33218 0.0
O213 O 0.36303 0.52731 0.29701 0.0
O214 O 0.33036 0.4934 0.40366 0.0
O215 O 0.40115 0.56542 0.35467 0.0
O216 O 0.3758 0.54366 0.39053 0.0
C217 C 0.34225 0.51199 0.30462 0.0
C218 C 0.3929 0.49686 0.35633 0.0
O219 O 0.3752 0.49309 0.37273 0.0
O220 O 0.40126 0.5134 0.33659 0.0
C221 C 0.31319 0.47292 0.39785 0.0
O222 O 0.31347 0.46228 0.37224 0.0
C223 C 0.39272 0.56348 0.38152 0.0
Zn224 Zn 0.85885 0.35933 0.88453 0.0
Zn225 Zn 0.84648 0.326 0.92653 0.0
O226 O 0.83514 0.3091 0.88419 0.0
O227 O 0.83927 0.33651 0.85144 0.0
O228 O 0.83152 0.29943 0.95734 0.0
O229 O 0.84649 0.37705 0.90889 0.0
O230 O 0.83575 0.34876 0.94311 0.0
C231 C 0.83252 0.31512 0.85718 0.0
C232 C 0.89784 0.35623 0.91387 0.0
O233 O 0.88205 0.34073 0.93129 0.0
O234 O 0.89233 0.36557 0.89218 0.0
C235 C 0.82754 0.2786 0.9523 0.0
O236 O 0.83462 0.2739 0.92622 0.0
C237 C 0.83716 0.36806 0.93457 0.0
Zn238 Zn 0.56202 0.92956 0.40341 0.0
Zn239 Zn 0.56421 0.90107 0.44559 0.0
O240 O 0.56339 0.88578 0.40319 0.0
O241 O 0.56445 0.91081 0.36847 0.0
O242 O 0.56626 0.87847 0.4748 0.0
O243 O 0.53006 0.92166 0.42177 0.0
O244 O 0.53354 0.89983 0.45771 0.0
C245 C 0.56413 0.89186 0.37511 0.0
C246 C 0.60123 0.95361 0.44484 0.0
O247 O 0.59261 0.93334 0.45729 0.0
O248 O 0.59178 0.95645 0.42101 0.0
C249 C 0.5835 0.87478 0.4727 0.0
O250 O 0.60011 0.88666 0.45225 0.0
C251 C 0.5222 0.90894 0.44574 0.0
Zn252 Zn 0.41546 0.32034 0.12999 0.0
Zn253 Zn 0.41186 0.28344 0.09934 0.0
O254 O 0.41625 0.2774 0.14535 0.0
O255 O 0.41493 0.30594 0.17067 0.0
O256 O 0.4096 0.25484 0.07824 0.0
O257 O 0.44682 0.34099 0.10832 0.0
O258 O 0.44212 0.31053 0.08099 0.0
C259 C 0.41642 0.28743 0.17069 0.0
C260 C 0.37382 0.29799 0.09326 0.0
O261 O 0.38173 0.28437 0.08579 0.0
O262 O 0.38502 0.31479 0.11201 0.0
C263 C 0.40067 0.24758 0.05167 0.0
O264 O 0.39164 0.25869 0.03682 0.0
C265 C 0.45409 0.33238 0.08771 0.0
Zn266 Zn 0.10119 0.45139 0.5442 0.0
Zn267 Zn 0.13418 0.44361 0.53742 0.0
O268 O 0.13456 0.44624 0.58499 0.0
O269 O 0.09958 0.44295 0.58894 0.0
O270 O 0.16131 0.43854 0.52689 0.0
O271 O 0.11943 0.48531 0.53264 0.0
O272 O 0.14495 0.47565 0.51509 0.0
C273 C 0.11734 0.44367 0.60156 0.0
C274 C 0.08413 0.40989 0.51263 0.0
O275 O 0.10385 0.41313 0.52269 0.0
O276 O 0.0797 0.42658 0.51421 0.0
C277 C 0.16159 0.42896 0.50147 0.0
O278 O 0.14307 0.42061 0.48334 0.0
C279 C 0.13814 0.49071 0.51802 0.0
Zn280 Zn 0.6139 0.08205 0.10016 0.0
Zn281 Zn 0.65642 0.10852 0.0841 0.0
O282 O 0.65913 0.1128 0.13148 0.0
O283 O 0.62403 0.08364 0.14413 0.0
O284 O 0.68924 0.13048 0.0682 0.0
O285 O 0.60313 0.10402 0.08581 0.0
O286 O 0.63763 0.12244 0.06282 0.0
C287 C 0.64438 0.0998 0.15196 0.0
C288 C 0.62931 0.0563 0.06553 0.0
O289 O 0.64905 0.07494 0.0705 0.0
O290 O 0.61033 0.05566 0.07296 0.0
C291 C 0.69965 0.15172 0.07769 0.0
O292 O 0.68918 0.15796 0.09852 0.0
C293 C 0.61725 0.11987 0.0676 0.0
Zn294 Zn 0.54686 0.63831 0.56588 0.0
Zn295 Zn 0.56275 0.68265 0.55991 0.0
O296 O 0.55694 0.67904 0.60682 0.0
O297 O 0.55014 0.64272 0.61193 0.0
O298 O 0.57436 0.71698 0.55234 0.0
O299 O 0.51601 0.62947 0.54609 0.0
O300 O 0.53244 0.66682 0.53294 0.0
C301 C 0.55342 0.66179 0.62394 0.0
C302 C 0.592 0.66006 0.53961 0.0
O303 O 0.59094 0.67828 0.54757 0.0
O304 O 0.57379 0.63985 0.54149 0.0
C305 C 0.5621 0.72557 0.56279 0.0
O306 O 0.54301 0.71195 0.57884 0.0
C307 C 0.5151 0.64578 0.53174 0.0
Zn308 Zn 0.89137 0.52379 0.1296 0.0
Zn309 Zn 0.85766 0.5326 0.11207 0.0
O310 O 0.85246 0.52734 0.15954 0.0
O311 O 0.87863 0.51707 0.17243 0.0
O312 O 0.83067 0.53715 0.0992 0.0
O313 O 0.87934 0.49629 0.10036 0.0
O314 O 0.85077 0.50294 0.08694 0.0
C315 C 0.8618 0.52038 0.17969 0.0
C316 C 0.90959 0.56981 0.10242 0.0
O317 O 0.88786 0.56285 0.09781 0.0
O318 O 0.91568 0.5568 0.11657 0.0
C319 C 0.83077 0.54725 0.07414 0.0
O320 O 0.84956 0.55608 0.05641 0.0
C321 C 0.86094 0.49072 0.08483 0.0
Zn322 Zn 0.36657 0.92526 0.60171 0.0
Zn323 Zn 0.33592 0.89367 0.56127 0.0
O324 O 0.32426 0.87749 0.60387 0.0
O325 O 0.34798 0.90453 0.63705 0.0
O326 O 0.31358 0.86889 0.53195 0.0
O327 O 0.39294 0.92186 0.58151 0.0
O328 O 0.3675 0.89774 0.54722 0.0
C329 C 0.33051 0.88435 0.63155 0.0
C330 C 0.34236 0.94315 0.56442 0.0
O331 O 0.3325 0.92275 0.55206 0.0
O332 O 0.35736 0.94842 0.58577 0.0
C333 C 0.29145 0.85821 0.53632 0.0
O334 O 0.28295 0.86423 0.55994 0.0
C335 C 0.38844 0.90908 0.55764 0.0
H336 H 0.29512 0.41139 0.17172 0.0
H337 H 0.30295 0.46816 0.30701 0.0
H338 H 0.28559 0.46456 0.12632 0.0
H339 H 0.34133 0.52775 0.24642 0.0
H340 H 0.28093 0.44423 0.2625 0.0
H341 H 0.296 0.42947 0.2215 0.0
C342 C 0.29239 0.4264 0.17243 0.0
C343 C 0.29024 0.43653 0.14509 0.0
C344 C 0.2938 0.4627 0.25917 0.0
C345 C 0.29182 0.45764 0.20161 0.0
C346 C 0.30626 0.47644 0.28453 0.0
C347 C 0.32444 0.49983 0.28024 0.0
C348 C 0.29945 0.47255 0.22951 0.0
C349 C 0.32782 0.50964 0.25061 0.0
C350 C 0.29278 0.43667 0.2008 0.0
C351 C 0.28709 0.45618 0.14703 0.0
N352 N 0.31567 0.49583 0.22624 0.0
N353 N 0.28876 0.46661 0.17482 0.0
H354 H 0.89424 0.28631 0.7185 0.0
H355 H 0.8107 0.31441 0.80328 0.0
H356 H 0.8354 0.28354 0.67029 0.0
H357 H 0.84294 0.27987 0.85065 0.0
H358 H 0.81445 0.29764 0.75463 0.0
H359 H 0.8723 0.27816 0.76685 0.0
C360 C 0.87639 0.28326 0.71803 0.0
C361 C 0.8667 0.28589 0.69054 0.0
C362 C 0.81997 0.29303 0.77578 0.0
C363 C 0.84181 0.27737 0.7458 0.0
C364 C 0.8178 0.30259 0.80356 0.0
C365 C 0.82689 0.29883 0.83087 0.0
C366 C 0.83203 0.28031 0.77526 0.0
C367 C 0.83587 0.28334 0.83003 0.0
C368 C 0.86383 0.27857 0.74561 0.0
C369 C 0.84351 0.28174 0.69108 0.0
N370 N 0.83895 0.27527 0.80247 0.0
N371 N 0.83209 0.27841 0.71848 0.0
H372 H 0.53205 0.84511 0.36855 0.0
H373 H 0.56347 0.84835 0.19007 0.0
H374 H 0.59126 0.90329 0.3236 0.0
H375 H 0.49279 0.82022 0.22495 0.0
H376 H 0.57805 0.85418 0.24338 0.0
H377 H 0.52269 0.82256 0.32002 0.0
C378 C 0.54359 0.85273 0.34881 0.0
C379 C 0.5623 0.87607 0.34975 0.0
C380 C 0.55926 0.84586 0.23926 0.0
C381 C 0.55196 0.85051 0.29485 0.0
C382 C 0.55092 0.84236 0.20893 0.0
C383 C 0.52696 0.83399 0.20332 0.0
C384 C 0.5434 0.84055 0.26385 0.0
C385 C 0.51143 0.82686 0.22849 0.0
C386 C 0.5382 0.83994 0.32122 0.0
C387 C 0.57658 0.88536 0.32357 0.0
N388 N 0.51995 0.83058 0.25776 0.0
N389 N 0.57101 0.87262 0.29704 0.0
H390 H 0.64272 0.4659 0.8366 0.0
H391 H 0.68774 0.57293 0.73692 0.0
H392 H 0.68452 0.53436 0.87847 0.0
H393 H 0.68997 0.51264 0.70104 0.0
H394 H 0.69003 0.56045 0.78937 0.0
H395 H 0.66287 0.48203 0.78753 0.0
C396 C 0.65674 0.48414 0.83566 0.0
C397 C 0.66187 0.49891 0.8614 0.0
C398 C 0.69082 0.55035 0.77004 0.0
C399 C 0.68426 0.51763 0.8053 0.0
C400 C 0.68947 0.55745 0.74018 0.0
C401 C 0.68864 0.54372 0.71488 0.0
C402 C 0.69031 0.52886 0.77454 0.0
C403 C 0.69068 0.52369 0.72011 0.0
C404 C 0.66824 0.49334 0.80769 0.0
C405 C 0.68009 0.52243 0.85906 0.0
N406 N 0.69069 0.51641 0.7495 0.0
N407 N 0.69012 0.53131 0.83116 0.0
H408 H 0.16326 0.69177 0.30938 0.0
H409 H 0.07622 0.66376 0.16686 0.0
H410 H 0.08743 0.64916 0.31218 0.0
H411 H 0.15164 0.69792 0.15561 0.0
H412 H 0.08131 0.66744 0.2225 0.0
H413 H 0.16055 0.70234 0.25555 0.0
C414 C 0.14609 0.685 0.29883 0.0
C415 C 0.12555 0.66925 0.31489 0.0
C416 C 0.09686 0.6744 0.20802 0.0
C417 C 0.12231 0.68131 0.25406 0.0
C418 C 0.09392 0.67233 0.17624 0.0
C419 C 0.11352 0.68019 0.15683 0.0
C420 C 0.11955 0.68391 0.22062 0.0
C421 C 0.1361 0.69151 0.17 0.0
C422 C 0.14455 0.69097 0.26821 0.0
C423 C 0.10372 0.66098 0.30039 0.0
N424 N 0.13853 0.69262 0.20129 0.0
N425 N 0.10271 0.66699 0.27082 0.0
H426 H 0.42998 0.13474 0.83117 0.0
H427 H 0.4606 0.18826 0.66138 0.0
H428 H 0.50067 0.18071 0.7982 0.0
H429 H 0.40837 0.11634 0.68235 0.0
H430 H 0.46709 0.19652 0.71698 0.0
H431 H 0.41456 0.13986 0.78196 0.0
C432 C 0.44219 0.14665 0.81407 0.0
C433 C 0.4666 0.15705 0.81835 0.0
C434 C 0.45364 0.1792 0.70929 0.0
C435 C 0.44918 0.16313 0.76269 0.0
C436 C 0.44987 0.1745 0.67772 0.0
C437 C 0.43417 0.15153 0.66755 0.0
C438 C 0.4412 0.1609 0.7305 0.0
C439 C 0.42083 0.1342 0.68946 0.0
C440 C 0.4334 0.14947 0.78605 0.0
C441 C 0.48173 0.17216 0.79547 0.0
N442 N 0.42481 0.13917 0.72001 0.0
N443 N 0.47277 0.17455 0.76837 0.0
H444 H 0.54313 0.69038 0.65983 0.0
H445 H 0.55002 0.62688 0.81358 0.0
H446 H 0.56351 0.63715 0.66513 0.0
H447 H 0.515 0.66783 0.81161 0.0
H448 H 0.56317 0.63869 0.76089 0.0
H449 H 0.53975 0.68949 0.71657 0.0
C450 C 0.54716 0.67876 0.67294 0.0
C451 C 0.55327 0.66356 0.65785 0.0
C452 C 0.55276 0.64531 0.77188 0.0
C453 C 0.54975 0.66268 0.72216 0.0
C454 C 0.54528 0.63859 0.80201 0.0
C455 C 0.53108 0.64607 0.81664 0.0
C456 C 0.54565 0.65932 0.75586 0.0
C457 C 0.52582 0.66159 0.80089 0.0
C458 C 0.54518 0.67824 0.70519 0.0
C459 C 0.55836 0.64888 0.67577 0.0
N460 N 0.53277 0.66742 0.77096 0.0
N461 N 0.55641 0.64878 0.70686 0.0
H462 H 0.85595 0.47194 0.36038 0.0
H463 H 0.85088 0.54664 0.21916 0.0
H464 H 0.86078 0.53965 0.3719 0.0
H465 H 0.85317 0.4821 0.21259 0.0
H466 H 0.84417 0.54023 0.27523 0.0
H467 H 0.84352 0.4707 0.30717 0.0
C468 C 0.85387 0.48633 0.35178 0.0
C469 C 0.85966 0.50604 0.37027 0.0
C470 C 0.84561 0.52724 0.26133 0.0
C471 C 0.84635 0.50527 0.30897 0.0
C472 C 0.84933 0.53085 0.22943 0.0
C473 C 0.85291 0.51502 0.21156 0.0
C474 C 0.84528 0.50757 0.27501 0.0
C475 C 0.85086 0.49489 0.22576 0.0
C476 C 0.84688 0.48571 0.32134 0.0
C477 C 0.85652 0.52417 0.3582 0.0
N478 N 0.8474 0.49186 0.2566 0.0
N479 N 0.85061 0.52364 0.32796 0.0
H480 H 0.32103 0.83905 0.6396 0.0
H481 H 0.29955 0.84665 0.8193 0.0
H482 H 0.31433 0.89457 0.68347 0.0
H483 H 0.34 0.81672 0.78204 0.0
H484 H 0.28776 0.85004 0.76686 0.0
H485 H 0.31126 0.81772 0.68907 0.0
C486 C 0.31663 0.84628 0.65937 0.0
C487 C 0.31867 0.86861 0.6578 0.0
C488 C 0.29861 0.84204 0.77032 0.0
C489 C 0.30741 0.84448 0.71381 0.0
C490 C 0.30524 0.83996 0.80024 0.0
C491 C 0.32123 0.83191 0.80492 0.0
C492 C 0.30785 0.83578 0.7451 0.0
C493 C 0.32802 0.82348 0.77933 0.0
C494 C 0.31119 0.83421 0.6875 0.0
C495 C 0.31311 0.87744 0.68399 0.0
N496 N 0.32162 0.82602 0.75041 0.0
N497 N 0.30793 0.86545 0.71104 0.0
H498 H 0.51159 0.34263 0.30587 0.0
H499 H 0.39334 0.27876 0.22536 0.0
H500 H 0.44715 0.30629 0.35856 0.0
H501 H 0.45478 0.28312 0.18252 0.0
H502 H 0.41138 0.2828 0.27593 0.0
H503 H 0.4917 0.31627 0.26242 0.0
C504 C 0.49343 0.32874 0.30859 0.0
C505 C 0.48084 0.32709 0.3356 0.0
C506 C 0.42064 0.28201 0.25562 0.0
C507 C 0.45787 0.29716 0.2858 0.0
C508 C 0.41025 0.27958 0.22679 0.0
C509 C 0.42266 0.28066 0.19994 0.0
C510 C 0.44397 0.28656 0.25738 0.0
C511 C 0.44465 0.2821 0.20283 0.0
C512 C 0.48209 0.31361 0.28379 0.0
C513 C 0.45744 0.30852 0.33797 0.0
N514 N 0.455 0.28579 0.23105 0.0
N515 N 0.4465 0.29471 0.31307 0.0
H516 H 0.15608 0.46241 0.64015 0.0
H517 H 0.07813 0.46413 0.77733 0.0
H518 H 0.08 0.42413 0.64028 0.0
H519 H 0.14791 0.47582 0.79591 0.0
H520 H 0.08029 0.45123 0.72563 0.0
H521 H 0.15543 0.46807 0.69635 0.0
C522 C 0.13931 0.45475 0.65208 0.0
C523 C 0.11805 0.44321 0.63556 0.0
C524 C 0.09515 0.45644 0.74096 0.0
C525 C 0.11721 0.4498 0.6991 0.0
C526 C 0.094 0.46404 0.77046 0.0
C527 C 0.11295 0.47124 0.79085 0.0
C528 C 0.11556 0.45637 0.73131 0.0
C529 C 0.13294 0.47044 0.78076 0.0
C530 C 0.13896 0.45804 0.68403 0.0
C531 C 0.0968 0.4336 0.65201 0.0
N532 N 0.13389 0.46339 0.7514 0.0
N533 N 0.09694 0.43739 0.68272 0.0
H534 H 0.67229 0.16071 0.33555 0.0
H535 H 0.62718 0.06715 0.19726 0.0
H536 H 0.61852 0.08731 0.34218 0.0
H537 H 0.67369 0.14155 0.18194 0.0
H538 H 0.63038 0.07414 0.25253 0.0
H539 H 0.67857 0.15414 0.28117 0.0
C540 C 0.66194 0.14325 0.32566 0.0
C541 C 0.64462 0.12461 0.34326 0.0
C542 C 0.64009 0.08901 0.23725 0.0
C543 C 0.65189 0.11696 0.28169 0.0
C544 C 0.6383 0.08499 0.20565 0.0
C545 C 0.64991 0.10385 0.1851 0.0
C546 C 0.65327 0.11217 0.24854 0.0
C547 C 0.66439 0.12657 0.19716 0.0
C548 C 0.66554 0.13952 0.29473 0.0
C549 C 0.6318 0.10232 0.32943 0.0
N550 N 0.66537 0.1302 0.22824 0.0
N551 N 0.63566 0.09918 0.29958 0.0
H552 H 0.1568 0.42371 0.87375 0.0
H553 H 0.22438 0.42371 0.02728 0.0
H554 H 0.15781 0.46006 0.95749 0.0
H555 H 0.24057 0.40687 0.9374 0.0
H556 H 0.19452 0.43057 0.00372 0.0
H557 H 0.18249 0.41138 0.89847 0.0
C558 C 0.16231 0.42899 0.89737 0.0
C559 C 0.15526 0.44306 0.91353 0.0
C560 C 0.20451 0.42523 0.98919 0.0
C561 C 0.18447 0.42887 0.94194 0.0
C562 C 0.22149 0.42118 0.00263 0.0
C563 C 0.23516 0.41488 0.98424 0.0
C564 C 0.20099 0.4228 0.95715 0.0
C565 C 0.23057 0.41186 0.95242 0.0
C566 C 0.17701 0.42199 0.91142 0.0
C567 C 0.16294 0.44937 0.94409 0.0
N568 N 0.21391 0.41593 0.93985 0.0
N569 N 0.17712 0.44222 0.9573 0.0
H570 H 0.74155 0.16606 0.44016 0.0
H571 H 0.82193 0.28161 0.54055 0.0
H572 H 0.71918 0.21446 0.47156 0.0
H573 H 0.84244 0.23027 0.51671 0.0
H574 H 0.78584 0.25918 0.51086 0.0
H575 H 0.7802 0.1914 0.4633 0.0
C576 C 0.74481 0.18212 0.45168 0.0
C577 C 0.72702 0.18805 0.45413 0.0
C578 C 0.79825 0.25284 0.512 0.0
C579 C 0.77121 0.21708 0.48077 0.0
C580 C 0.8189 0.26565 0.52898 0.0
C581 C 0.83519 0.25772 0.53134 0.0
C582 C 0.79376 0.23189 0.49722 0.0
C583 C 0.83033 0.23698 0.51566 0.0
C584 C 0.76688 0.19655 0.46496 0.0
C585 C 0.7323 0.20911 0.46926 0.0
N586 N 0.80998 0.22471 0.49938 0.0
N587 N 0.75387 0.22278 0.48214 0.0
H588 H 0.50827 0.77422 0.0596 0.0
H589 H 0.57378 0.72913 0.94535 0.0
H590 H 0.5793 0.81948 0.02683 0.0
H591 H 0.50039 0.68813 0.97109 0.0
H592 H 0.57716 0.76196 0.97661 0.0
H593 H 0.50623 0.74194 0.02927 0.0
C594 C 0.52351 0.77738 0.0461 0.0
C595 C 0.54399 0.79967 0.04574 0.0
C596 C 0.56033 0.74577 0.97535 0.0
C597 C 0.54171 0.76258 0.0107 0.0
C598 C 0.55838 0.72702 0.95752 0.0
C599 C 0.53676 0.70583 0.95555 0.0
C600 C 0.54055 0.74324 0.99142 0.0
C601 C 0.51741 0.70411 0.97184 0.0
C602 C 0.5223 0.7589 0.02867 0.0
C603 C 0.56315 0.80262 0.02775 0.0
N604 N 0.51979 0.72252 0.98907 0.0
N605 N 0.56153 0.78428 0.01091 0.0
H606 H 0.73618 0.52947 0.58158 0.0
H607 H 0.85692 0.58969 0.48648 0.0
H608 H 0.77403 0.60356 0.55853 0.0
H609 H 0.82437 0.51904 0.5234 0.0
H610 H 0.82639 0.59507 0.51139 0.0
H611 H 0.76789 0.52521 0.55883 0.0
C612 C 0.75117 0.54487 0.57173 0.0
C613 C 0.75242 0.56692 0.57192 0.0
C614 C 0.82601 0.57843 0.51413 0.0
C615 C 0.78886 0.56212 0.54574 0.0
C616 C 0.84341 0.57533 0.49989 0.0
C617 C 0.84317 0.55385 0.50279 0.0
C618 C 0.80815 0.55986 0.53121 0.0
C619 C 0.82526 0.53589 0.52051 0.0
C620 C 0.76932 0.54243 0.55881 0.0
C621 C 0.77234 0.58625 0.5589 0.0
N622 N 0.80842 0.53927 0.53392 0.0
N623 N 0.78975 0.58338 0.54621 0.0
H624 H 0.283 0.82921 0.97592 0.0
H625 H 0.14568 0.74052 0.95378 0.0
H626 H 0.2455 0.82508 0.8922 0.0
H627 H 0.18109 0.75346 0.0416 0.0
H628 H 0.18131 0.77348 0.93177 0.0
H629 H 0.24536 0.80374 0.00144 0.0
C630 C 0.26684 0.82319 0.96299 0.0
C631 C 0.26745 0.82911 0.93176 0.0
C632 C 0.1812 0.76929 0.95595 0.0
C633 C 0.22424 0.79967 0.96077 0.0
C634 C 0.16084 0.75045 0.96854 0.0
C635 C 0.16045 0.74402 -0.00049 0.0
C636 C 0.20142 0.78166 0.97436 0.0
C637 C 0.18061 0.75765 0.01756 0.0
C638 C 0.24533 0.80863 0.97759 0.0
C639 C 0.24591 0.82088 0.91625 0.0
N640 N 0.20034 0.77562 0.00463 0.0
N641 N 0.22522 0.80634 0.93079 0.0
H642 H 0.42863 0.21578 0.55949 0.0
H643 H 0.40517 0.27879 0.41783 0.0
H644 H 0.39512 0.18015 0.47465 0.0
H645 H 0.44593 0.31517 0.49844 0.0
H646 H 0.39363 0.24112 0.44292 0.0
H647 H 0.42766 0.25058 0.54178 0.0
C648 C 0.42088 0.21519 0.5372 0.0
C649 C 0.41232 0.19514 0.51827 0.0
C650 C 0.40478 0.25735 0.4553 0.0
C651 C 0.41122 0.23507 0.49781 0.0
C652 C 0.41128 0.27888 0.44107 0.0
C653 C 0.4269 0.30018 0.45585 0.0
C654 C 0.41396 0.25715 0.48449 0.0
C655 C 0.43415 0.29919 0.48599 0.0
C656 C 0.4203 0.23509 0.52713 0.0
C657 C 0.40217 0.19531 0.48984 0.0
N658 N 0.42788 0.27804 0.49913 0.0
N659 N 0.40217 0.2151 0.4803 0.0
H660 H 0.78686 0.52442 0.1005 0.0
H661 H 0.7271 0.56147 0.96753 0.0
H662 H 0.8254 0.56957 0.024 0.0
H663 H 0.68761 0.50432 0.03124 0.0
H664 H 0.76352 0.56934 0.99315 0.0
H665 H 0.75071 0.52163 0.08044 0.0
C666 C 0.78778 0.53393 0.07964 0.0
C667 C 0.80918 0.5471 0.06376 0.0
C668 C 0.74687 0.55518 0.00164 0.0
C669 C 0.76783 0.54396 0.04071 0.0
C670 C 0.72604 0.5507 0.9871 0.0
C671 C 0.70426 0.53206 -0.00291 0.0
C672 C 0.74594 0.541 0.02648 0.0
C673 C 0.70402 0.51876 0.02261 0.0
C674 C 0.7671 0.53226 0.06816 0.0
C675 C 0.80928 0.55907 0.03687 0.0
N676 N 0.72455 0.52342 0.03635 0.0
N677 N 0.7889 0.55714 0.02613 0.0
H678 H 0.17402 0.72957 0.46679 0.0
H679 H 0.30344 0.8409 0.48615 0.0
H680 H 0.23291 0.7418 0.40912 0.0
H681 H 0.24369 0.82924 0.54156 0.0
H682 H 0.27765 0.80569 0.45613 0.0
H683 H 0.19907 0.76685 0.49303 0.0
C684 C 0.19224 0.74011 0.45959 0.0
C685 C 0.20141 0.73247 0.43578 0.0
C686 C 0.27016 0.8109 0.47474 0.0
C687 C 0.23025 0.7753 0.46584 0.0
C688 C 0.28487 0.83103 0.4919 0.0
C689 C 0.27573 0.83797 0.51655 0.0
C690 C 0.24614 0.79755 0.48232 0.0
C691 C 0.25152 0.82452 0.52285 0.0
C692 C 0.20653 0.76145 0.47458 0.0
C693 C 0.22511 0.74696 0.42739 0.0
N694 N 0.2376 0.80489 0.50595 0.0
N695 N 0.23875 0.76765 0.4425 0.0
H696 H 0.39845 0.14701 0.91988 0.0
H697 H 0.42189 0.22356 0.0737 0.0
H698 H 0.44705 0.15304 0.9913 0.0
H699 H 0.38261 0.22668 0.99571 0.0
H700 H 0.42643 0.1931 0.04718 0.0
H701 H 0.38747 0.17125 0.95093 0.0
C702 C 0.4066 0.15315 0.94226 0.0
C703 C 0.42389 0.14815 0.95285 0.0
C704 C 0.4167 0.20034 0.03594 0.0
C705 C 0.41147 0.17605 0.98844 0.0
C706 C 0.41406 0.21773 0.05109 0.0
C707 C 0.40202 0.22787 0.0368 0.0
C708 C 0.40718 0.19294 0.0063 0.0
C709 C 0.39218 0.21951 0.00752 0.0
C710 C 0.40039 0.16709 0.95992 0.0
C711 C 0.43378 0.15659 0.98208 0.0
N712 N 0.39508 0.20262 0.99318 0.0
N713 N 0.42756 0.17025 -0.00126 0.0
H714 H 0.16784 0.4082 0.45018 0.0
H715 H 0.30738 0.48864 0.45407 0.0
H716 H 0.20573 0.45344 0.52696 0.0
H717 H 0.27026 0.43392 0.38629 0.0
H718 H 0.27064 0.47419 0.48296 0.0
H719 H 0.20522 0.41534 0.42827 0.0
C720 C 0.18399 0.41941 0.46264 0.0
C721 C 0.18365 0.43043 0.49029 0.0
C722 C 0.27058 0.46516 0.46196 0.0
C723 C 0.22658 0.43891 0.46514 0.0
C724 C 0.29156 0.47342 0.44542 0.0
C725 C 0.29186 0.46263 0.41753 0.0
C726 C 0.24967 0.44612 0.45036 0.0
C727 C 0.27085 0.44288 0.40758 0.0
C728 C 0.20535 0.42347 0.45011 0.0
C729 C 0.20514 0.44466 0.5055 0.0
N730 N 0.25056 0.43545 0.42377 0.0
N731 N 0.22575 0.44874 0.49252 0.0
H732 H 0.81044 0.23103 0.94563 0.0
H733 H 0.72647 0.19825 0.09338 0.0
H734 H 0.81038 0.28234 0.00839 0.0
H735 H 0.72349 0.14647 0.02886 0.0
H736 H 0.76069 0.22876 0.06599 0.0
H737 H 0.78218 0.19947 0.97918 0.0
C738 C 0.8047 0.23569 0.96662 0.0
C739 C 0.81262 0.25939 0.97401 0.0
C740 C 0.75269 0.2107 0.05792 0.0
C741 C 0.78019 0.22334 0.01244 0.0
C742 C 0.73313 0.19324 0.07359 0.0
C743 C 0.72191 0.16978 0.06322 0.0
C744 C 0.76111 0.20475 0.03154 0.0
C745 C 0.73148 0.16435 0.03757 0.0
C746 C 0.78852 0.21764 0.98574 0.0
C747 C 0.80462 0.26434 0.00158 0.0
N748 N 0.7504 0.18174 0.02244 0.0
N749 N 0.78873 0.24648 0.01963 0.0
H750 H 0.6152 0.85911 0.46969 0.0
H751 H 0.5387 0.74866 0.57974 0.0
H752 H 0.55182 0.84675 0.51666 0.0
H753 H 0.59877 0.75775 0.52721 0.0
H754 H 0.54639 0.78727 0.56216 0.0
H755 H 0.61257 0.82484 0.49587 0.0
C756 C 0.60085 0.84934 0.48573 0.0
C757 C 0.58355 0.85566 0.49073 0.0
C758 C 0.558 0.78091 0.55465 0.0
C759 C 0.5804 0.81637 0.52067 0.0
C760 C 0.55363 0.75885 0.5647 0.0
C761 C 0.56796 0.74984 0.55466 0.0
C762 C 0.57681 0.79406 0.53434 0.0
C763 C 0.58715 0.76392 0.53535 0.0
C764 C 0.59935 0.82974 0.50063 0.0
C765 C 0.56544 0.84241 0.51188 0.0
N766 N 0.59091 0.78526 0.52562 0.0
N767 N 0.56424 0.82329 0.52589 0.0
H768 H 0.33508 0.3785 0.00124 0.0
H769 H 0.3347 0.29405 0.12037 0.0
H770 H 0.27878 0.34573 0.06757 0.0
H771 H 0.36749 0.30124 0.03178 0.0
H772 H 0.30861 0.30649 0.09748 0.0
H773 H 0.34199 0.34525 0.00589 0.0
C774 C 0.32353 0.36375 0.01584 0.0
C775 C 0.30639 0.36477 0.0341 0.0
C776 C 0.32088 0.30455 0.08268 0.0
C777 C 0.31491 0.32727 0.04078 0.0
C778 C 0.3357 0.29735 0.09576 0.0
C779 C 0.3532 0.29669 0.07788 0.0
C780 C 0.3243 0.31207 0.0518 0.0
C781 C 0.35409 0.30144 0.04624 0.0
C782 C 0.32753 0.3448 0.01863 0.0
C783 C 0.2921 0.34546 0.05301 0.0
N784 N 0.34033 0.30965 0.03435 0.0
N785 N 0.29715 0.3278 0.05661 0.0
H786 H 0.07707 0.3685 0.53752 0.0
H787 H 0.93994 0.31939 0.52168 0.0
H788 H 0.04504 0.39679 0.47717 0.0
H789 H 0.97494 0.31193 0.6014 0.0
H790 H 0.97634 0.33304 0.49183 0.0
H791 H 0.03833 0.33362 0.54577 0.0
C792 C 0.0621 0.36692 0.52488 0.0
C793 C 0.06413 0.38584 0.5073 0.0
C794 C 0.97576 0.3276 0.51555 0.0
C795 C 0.01984 0.3462 0.51693 0.0
C796 C 0.95496 0.31966 0.53254 0.0
C797 C 0.95467 0.31503 0.56418 0.0
C798 C -0.00381 0.33066 0.53036 0.0
C799 C 0.97463 0.31576 0.57716 0.0
C800 C 0.03994 0.34708 0.52982 0.0
C801 C 0.04411 0.3828 0.49147 0.0
N802 N 0.99473 0.32389 0.56035 0.0
N803 N 0.02268 0.36362 0.49722 0.0
H804 H 0.55918 0.90774 0.03772 0.0
H805 H 0.65568 0.03826 0.08837 0.0
H806 H 0.58741 0.92778 0.12956 0.0
H807 H 0.59867 0.02279 0.02577 0.0
H808 H 0.64349 0.99616 0.08912 0.0
H809 H 0.58625 0.94837 0.02026 0.0
C810 C 0.57168 0.92049 0.05388 0.0
C811 C 0.57111 0.91467 0.08509 0.0
C812 C 0.63425 0.00218 0.07432 0.0
C813 C 0.60203 0.96059 0.0654 0.0
C814 C 0.64131 0.02617 0.07364 0.0
C815 C 0.62797 0.03384 0.0572 0.0
C816 C 0.61403 0.98601 0.05803 0.0
C817 C 0.60926 0.01744 0.03889 0.0
C818 C 0.58699 0.94358 0.04398 0.0
C819 C 0.58734 0.93177 0.10534 0.0
N820 N 0.60261 0.99419 0.04011 0.0
N821 N 0.60206 0.95404 0.09519 0.0
H822 H 0.67562 0.59648 0.54257 0.0
H823 H 0.63378 0.69024 0.56741 0.0
H824 H 0.67664 0.62966 0.62897 0.0
H825 H 0.60192 0.63168 0.50391 0.0
H826 H 0.66591 0.68197 0.57596 0.0
H827 H 0.66532 0.62328 0.51604 0.0
C828 C 0.67478 0.61015 0.5557 0.0
C829 C 0.67673 0.61085 0.58794 0.0
C830 C 0.65236 0.67155 0.55924 0.0
C831 C 0.66506 0.6413 0.55799 0.0
C832 C 0.6341 0.67635 0.55416 0.0
C833 C 0.61495 0.66127 0.53542 0.0
C834 C 0.65148 0.65178 0.54516 0.0
C835 C 0.6162 0.64345 0.51896 0.0
C836 C 0.66876 0.62528 0.54062 0.0
C837 C 0.6751 0.62856 0.60407 0.0
N838 N 0.63393 0.63888 0.52465 0.0
N839 N 0.66905 0.64291 0.58897 0.0
H840 H 0.94509 0.6067 0.13274 0.0
H841 H 0.02926 0.62904 0.0023 0.0
H842 H 0.9172 0.58204 0.04174 0.0
H843 H 0.0477 0.68189 0.07283 0.0
H844 H 0.98754 0.61513 0.01191 0.0
H845 H 0.98165 0.63767 0.10968 0.0
C846 C 0.94645 0.60838 0.10784 0.0
C847 C 0.92825 0.59196 0.08903 0.0
C848 C 0.00067 0.63037 0.02448 0.0
C849 C 0.97025 0.62657 0.06249 0.0
C850 C 0.02449 0.63839 0.01885 0.0
C851 C 0.04187 0.65653 0.03692 0.0
C852 C 0.99428 0.64 0.04912 0.0
C853 C 0.03481 0.66788 0.05836 0.0
C854 C 0.96729 0.62603 0.09466 0.0
C855 C 0.93088 0.59455 0.05693 0.0
N856 N 0.0115 0.6589 0.06466 0.0
N857 N 0.95182 0.61112 0.0446 0.0
H858 H 0.41118 0.0741 0.50101 0.0
H859 H 0.32931 0.97007 0.59709 0.0
H860 H 0.36452 0.07967 0.56624 0.0
H861 H 0.34813 0.9596 0.50553 0.0
H862 H 0.33544 0.00856 0.58142 0.0
H863 H 0.38298 0.03208 0.49512 0.0
C864 C 0.39446 0.06659 0.51307 0.0
C865 C 0.39013 0.08016 0.53428 0.0
C866 C 0.33744 -0.00242 0.56433 0.0
C867 C 0.35837 0.03199 0.52894 0.0
C868 C 0.33393 0.97561 0.57332 0.0
C869 C 0.33841 0.9619 0.55257 0.0
C870 C 0.34649 0.00624 0.5348 0.0
C871 C 0.34451 0.96979 0.52213 0.0
C872 C 0.37837 0.04257 0.50983 0.0
C873 C 0.3684 0.06968 0.54964 0.0
N874 N 0.34912 0.99183 0.51436 0.0
N875 N 0.35362 0.04598 0.54748 0.0
H876 H 0.52294 0.57517 0.97932 0.0
H877 H 0.61768 0.55998 0.90541 0.0
H878 H 0.57647 0.63311 0.92681 0.0
H879 H 0.59909 0.53626 -0.0007 0.0
H880 H 0.60398 0.58821 0.91366 0.0
H881 H 0.55107 0.56182 0.99032 0.0
C882 C 0.54093 0.58558 0.97116 0.0
C883 C 0.54752 0.6052 0.95217 0.0
C884 C 0.60351 0.57731 0.93274 0.0
C885 C 0.57925 0.58952 0.96336 0.0
C886 C 0.61118 0.56116 0.92797 0.0
C887 C 0.60937 0.54588 0.95171 0.0
C888 C 0.59311 0.57743 0.96104 0.0
C889 C 0.60076 0.54789 0.98052 0.0
C890 C 0.55694 0.57796 0.97737 0.0
C891 C 0.57086 0.61796 0.94171 0.0
N892 N 0.59227 0.56295 0.98418 0.0
N893 N 0.58574 0.60944 0.94658 0.0
H894 H 0.96067 0.60216 0.41858 0.0
H895 H 0.06607 0.60617 0.48239 0.0
H896 H 0.9564 0.57601 0.51088 0.0
H897 H 0.07559 0.66739 0.43292 0.0
H898 H 0.02686 0.59799 0.49829 0.0
H899 H 0.00247 0.6304 0.42668 0.0
C900 C 0.96838 0.60312 0.44101 0.0
C901 C 0.95531 0.58677 0.46405 0.0
C902 C 0.03783 0.61372 0.48491 0.0
C903 C 0.00311 0.61804 0.47297 0.0
C904 C 0.06014 0.61831 0.47578 0.0
C905 C 0.07381 0.6373 0.45614 0.0
C906 C 0.02886 0.62764 0.47316 0.0
C907 C 0.06543 0.65253 0.44805 0.0
C908 C 0.99222 0.61918 0.44566 0.0
C909 C 0.96602 0.58843 0.49262 0.0
N910 N 0.04308 0.64691 0.45571 0.0
N911 N 0.9896 0.60321 0.49595 0.0
H912 H 0.41964 0.05023 0.92281 0.0
H913 H 0.42047 0.93433 0.86506 0.0
H914 H 0.46988 0.04961 0.85867 0.0
H915 H 0.36315 0.93058 0.91894 0.0
H916 H 0.43953 0.977 0.86565 0.0
H917 H 0.39922 0.00687 0.92438 0.0
C918 C 0.42636 0.04104 0.90905 0.0
C919 C 0.44653 0.05365 0.89057 0.0
C920 C 0.42278 0.96695 0.87738 0.0
C921 C 0.42338 0.00422 0.89241 0.0
C922 C 0.41184 0.94246 0.87711 0.0
C923 C 0.39007 0.92873 0.8919 0.0
C924 C 0.41201 0.97807 0.89259 0.0
C925 C 0.3799 0.94046 0.90717 0.0
C926 C 0.41469 0.01632 0.90996 0.0
C927 C 0.45442 0.04078 0.87325 0.0
N928 N 0.39096 0.9645 0.90712 0.0
N929 N 0.44289 0.0169 0.87467 0.0
H930 H 0.43119 0.5006 0.32581 0.0
H931 H 0.43306 0.39561 0.41798 0.0
H932 H 0.38036 0.45986 0.39634 0.0
H933 H 0.48491 0.43918 0.35001 0.0
H934 H 0.41261 0.41784 0.40957 0.0
H935 H 0.45014 0.47713 0.3335 0.0
C936 C 0.42395 0.48668 0.3429 0.0
C937 C 0.40414 0.48225 0.36049 0.0
C938 C 0.42845 0.42249 0.3965 0.0
C939 C 0.42589 0.45522 0.36947 0.0
C940 C 0.44013 0.4098 0.40127 0.0
C941 C 0.46078 0.41555 0.38472 0.0
C942 C 0.43746 0.44102 0.375 0.0
C943 C 0.4691 0.43411 0.36336 0.0
C944 C 0.43483 0.47326 0.3473 0.0
C945 C 0.3956 0.46393 0.38228 0.0
N946 N 0.45743 0.44616 0.35916 0.0
N947 N 0.40655 0.45109 0.38619 0.0
H948 H 0.0348 0.46311 0.94421 0.0
H949 H 0.92971 0.35693 0.8733 0.0
H950 H 0.04687 0.4124 0.89603 0.0
H951 H 0.92269 0.37559 0.96654 0.0
H952 H 0.97267 0.37749 0.87983 0.0
H953 H 0.99375 0.43233 0.95306 0.0
C954 C 0.02891 0.44531 0.93624 0.0
C955 C 0.04408 0.44017 0.9194 0.0
C956 C 0.96169 0.37656 0.89911 0.0
C957 C -0.00275 0.40534 0.9284 0.0
C958 C 0.93729 0.36495 0.89535 0.0
C959 C 0.92289 0.36461 0.91948 0.0
C960 C 0.97166 0.38866 0.92673 0.0
C961 C 0.93336 0.3754 0.94755 0.0
C962 C 0.00558 0.4278 0.94132 0.0
C963 C 0.03566 0.41694 0.90929 0.0
N964 N 0.95726 0.38758 0.9502 0.0
N965 N 0.01255 0.40047 0.91318 0.0
H966 H 0.63985 0.99144 0.42042 0.0
H967 H 0.60691 0.06636 0.51059 0.0
H968 H 0.60126 0.96461 0.5053 0.0
H969 H 0.67388 0.09856 0.46344 0.0
H970 H 0.60909 0.03046 0.51699 0.0
H971 H 0.65839 0.03132 0.44164 0.0
C972 C 0.63609 0.99391 0.44406 0.0
C973 C 0.61888 0.97489 0.46106 0.0
C974 C 0.62376 0.04564 0.50623 0.0
C975 C 0.639 0.02043 0.48491 0.0
C976 C 0.62247 0.06614 0.50255 0.0
C977 C 0.63995 0.0852 0.48582 0.0
C978 C 0.64221 0.04399 0.4921 0.0
C979 C 0.65984 0.0841 0.47611 0.0
C980 C 0.6466 0.01668 0.4562 0.0
C981 C 0.61444 0.97892 0.49148 0.0
N982 N 0.66005 0.0635 0.4784 0.0
N983 N 0.62377 0.00141 0.50209 0.0
H984 H 0.44312 0.6022 0.96915 0.0
H985 H 0.32748 0.47471 0.96845 0.0
H986 H 0.41655 0.55833 0.88797 0.0
H987 H 0.36988 0.50914 0.04867 0.0
H988 H 0.35229 0.5105 0.93819 0.0
H989 H 0.40785 0.57386 -0.00269 0.0
C990 C 0.42957 0.58699 0.95697 0.0
C991 C 0.43301 0.5823 0.9264 0.0
C992 C 0.35586 0.51027 0.96254 0.0
C993 C 0.39286 0.54979 0.95852 0.0
C994 C 0.34175 0.48991 0.97977 0.0
C995 C 0.34699 0.48887 0.0109 0.0
C996 C 0.37499 0.52971 0.97678 0.0
C997 C 0.36556 0.50906 0.02455 0.0
C998 C 0.40953 0.57074 0.97313 0.0
C999 C 0.41479 0.56235 0.91174 0.0
N1000 N 0.37898 0.52859 0.00736 0.0
N1001 N 0.39565 0.54659 0.92809 0.0
H1002 H 0.9369 0.40745 0.60358 0.0
H1003 H 0.85989 0.45348 0.51671 0.0
H1004 H 0.86533 0.3604 0.57431 0.0
H1005 H 0.93543 0.48617 0.5079 0.0
H1006 H 0.85999 0.42292 0.54974 0.0
H1007 H 0.93469 0.44049 0.58066 0.0
C1008 C 0.92062 0.40412 0.59275 0.0
C1009 C 0.90136 0.38112 0.59051 0.0
C1010 C 0.8765 0.43697 0.54074 0.0
C1011 C 0.8987 0.41877 0.56456 0.0
C1012 C 0.87647 0.45438 0.52206 0.0
C1013 C 0.89765 0.47215 0.50935 0.0
C1014 C 0.89793 0.4378 0.54722 0.0
C1015 C 0.91867 0.47257 0.51692 0.0
C1016 C 0.91941 0.42294 0.5796 0.0
C1017 C 0.88069 0.37783 0.5762 0.0
N1018 N 0.91829 0.45566 0.53537 0.0
N1019 N 0.87991 0.39645 0.56367 0.0
H1020 H 0.39853 0.81363 0.92364 0.0
H1021 H 0.43601 0.84469 0.09791 0.0
H1022 H 0.36207 0.83498 0.98756 0.0
H1023 H 0.46339 0.81117 0.03809 0.0
H1024 H 0.40513 0.8362 0.06019 0.0
H1025 H 0.41835 0.80717 0.96694 0.0
C1026 C 0.39436 0.81654 0.94687 0.0
C1027 C 0.37891 0.82523 0.95198 0.0
C1028 C 0.41764 0.83033 0.05552 0.0
C1029 C 0.40191 0.81829 0.00169 0.0
C1030 C 0.43533 0.83522 0.07704 0.0
C1031 C 0.45259 0.82901 0.07092 0.0
C1032 C 0.41737 0.81944 0.02745 0.0
C1033 C 0.45062 0.81652 0.04366 0.0
C1034 C 0.4057 0.81285 0.97162 0.0
C1035 C 0.37398 0.82844 0.98256 0.0
N1036 N 0.4336 0.81252 0.0227 0.0
N1037 N 0.38582 0.82543 0.00625 0.0
H1038 H 0.57946 0.42475 0.43788 0.0
H1039 H 0.58914 0.47991 0.60386 0.0
H1040 H 0.52111 0.39743 0.50184 0.0
H1041 H 0.64989 0.49363 0.54923 0.0
H1042 H 0.56406 0.44837 0.56799 0.0
H1043 H 0.60586 0.4486 0.47938 0.0
C1044 C 0.57225 0.42351 0.46076 0.0
C1045 C 0.548 0.40924 0.46631 0.0
C1046 C 0.58292 0.4581 0.56408 0.0
C1047 C 0.57807 0.43681 0.51385 0.0
C1048 C 0.59724 0.47616 0.58451 0.0
C1049 C 0.62164 0.48963 0.57939 0.0
C1050 C 0.59302 0.45366 0.53813 0.0
C1051 C 0.63117 0.48384 0.55402 0.0
C1052 C 0.58734 0.43713 0.48447 0.0
C1053 C 0.53967 0.40823 0.49649 0.0
N1054 N 0.61681 0.4665 0.53415 0.0
N1055 N 0.55462 0.42213 0.51901 0.0
H1056 H 0.14274 0.5767 0.88469 0.0
H1057 H 0.13706 0.6097 0.05669 0.0
H1058 H 0.1481 0.53812 0.96187 0.0
H1059 H 0.14417 0.65503 0.98038 0.0
H1060 H 0.14933 0.58786 0.02316 0.0
H1061 H 0.1519 0.6098 0.91894 0.0
C1062 C 0.14644 0.57543 0.90876 0.0
C1063 C 0.14413 0.55444 0.92063 0.0
C1064 C 0.1487 0.60286 0.01379 0.0
C1065 C 0.1541 0.59206 0.96011 0.0
C1066 C 0.14162 0.61531 0.03294 0.0
C1067 C 0.13911 0.63386 0.02108 0.0
C1068 C 0.1528 0.60866 0.98236 0.0
C1069 C 0.14562 0.64065 0.99033 0.0
C1070 C 0.15165 0.59435 0.92833 0.0
C1071 C 0.14943 0.55388 0.95184 0.0
N1072 N 0.15165 0.62769 0.97181 0.0
N1073 N 0.15359 0.5722 0.97069 0.0
H1074 H 0.4954 0.17621 0.49559 0.0
H1075 H 0.6199 0.18194 0.50311 0.0
H1076 H 0.52833 0.17154 0.57933 0.0
H1077 H 0.57411 0.15941 0.42377 0.0
H1078 H 0.59377 0.19374 0.52843 0.0
H1079 H 0.53148 0.18562 0.46712 0.0
C1080 C 0.51044 0.17784 0.50811 0.0
C1081 C 0.50877 0.17262 0.53969 0.0
C1082 C 0.58985 0.18682 0.50513 0.0
C1083 C 0.5499 0.18336 0.50745 0.0
C1084 C 0.60481 0.18025 0.49064 0.0
C1085 C 0.59885 0.16936 0.46161 0.0
C1086 C 0.56906 0.18266 0.49021 0.0
C1087 C 0.57905 0.16742 0.44643 0.0
C1088 C 0.53096 0.18311 0.49186 0.0
C1089 C 0.52878 0.175 0.55484 0.0
N1090 N 0.56468 0.17371 0.46106 0.0
N1091 N 0.54842 0.17989 0.53852 0.0
H1092 H 0.48953 0.37595 0.10535 0.0
H1093 H 0.55363 0.40702 0.94413 0.0
H1094 H 0.46963 0.32403 0.03292 0.0
H1095 H 0.58838 0.44561 0.02672 0.0
H1096 H 0.52265 0.37635 0.97591 0.0
H1097 H 0.52552 0.4021 0.0768 0.0
C1098 C 0.49276 0.37001 0.08348 0.0
C1099 C 0.47645 0.34785 0.07135 0.0
C1100 C 0.53725 0.39132 0.98713 0.0
C1101 C 0.51754 0.37774 0.03856 0.0
C1102 C 0.55492 0.40882 0.96902 0.0
C1103 C 0.57351 0.42892 0.98285 0.0
C1104 C 0.53786 0.39418 0.01927 0.0
C1105 C 0.57437 0.43036 0.01517 0.0
C1106 C 0.51339 0.38489 0.06732 0.0
C1107 C 0.48168 0.34099 0.04307 0.0
N1108 N 0.55653 0.41342 0.03231 0.0
N1109 N 0.50163 0.35602 0.02743 0.0
H1110 H 0.15877 0.5896 0.38488 0.0
H1111 H 0.14594 0.53176 0.54342 0.0
H1112 H 0.17175 0.62862 0.46983 0.0
H1113 H 0.16007 0.50331 0.46159 0.0
H1114 H 0.16126 0.56971 0.51765 0.0
H1115 H 0.16593 0.56096 0.41156 0.0
C1116 C 0.16385 0.59251 0.40898 0.0
C1117 C 0.16417 0.61119 0.42538 0.0
C1118 C 0.16156 0.55541 0.50544 0.0
C1119 C 0.17174 0.57818 0.45621 0.0
C1120 C 0.15269 0.5337 0.52011 0.0
C1121 C 0.15143 0.5144 0.50434 0.0
C1122 C 0.16853 0.55762 0.4744 0.0
C1123 C 0.16062 0.51782 0.47437 0.0
C1124 C 0.16793 0.57614 0.42421 0.0
C1125 C 0.17108 0.61432 0.45642 0.0
N1126 N 0.16825 0.5389 0.46001 0.0
N1127 N 0.17393 0.59757 0.47108 0.0
H1128 H 0.58142 0.12767 0.08308 0.0
H1129 H 0.56989 0.16155 0.91229 0.0
H1130 H 0.63421 0.14372 0.013 0.0
H1131 H 0.51981 0.14997 0.98461 0.0
H1132 H 0.59793 0.16406 0.95114 0.0
H1133 H 0.56321 0.14432 0.05039 0.0
C1134 C 0.58937 0.13502 0.06092 0.0
C1135 C 0.60903 0.13383 0.0504 0.0
C1136 C 0.581 0.16145 0.9586 0.0
C1137 C 0.58806 0.15266 0.01261 0.0
C1138 C 0.56496 0.16003 0.93641 0.0
C1139 C 0.54222 0.15491 0.94517 0.0
C1140 C 0.57416 0.15744 0.98972 0.0
C1141 C 0.53699 0.15354 0.97675 0.0
C1142 C 0.57899 0.14459 0.04227 0.0
C1143 C 0.61888 0.14403 0.02181 0.0
N1144 N 0.55266 0.15428 -0.00215 0.0
N1145 N 0.60798 0.15258 0.00358 0.0
H1146 H 0.47023 0.61116 0.54292 0.0
H1147 H 0.43113 0.60738 0.37159 0.0
H1148 H 0.51206 0.66659 0.47824 0.0
H1149 H 0.38414 0.56316 0.44345 0.0
H1150 H 0.45837 0.63336 0.41103 0.0
H1151 H 0.43648 0.59712 0.50855 0.0
C1152 C 0.47219 0.62054 0.52154 0.0
C1153 C 0.49402 0.63979 0.51309 0.0
C1154 C 0.44184 0.61829 0.41818 0.0
C1155 C 0.45551 0.62358 0.47326 0.0
C1156 C 0.42622 0.60344 0.39564 0.0
C1157 C 0.40559 0.58266 0.40421 0.0
C1158 C 0.43689 0.61215 0.44943 0.0
C1159 C 0.40004 0.57869 0.43572 0.0
C1160 C 0.45287 0.61259 0.50196 0.0
C1161 C 0.49553 0.65155 0.48543 0.0
N1162 N 0.41585 0.59299 0.45717 0.0
N1163 N 0.47663 0.64293 0.4661 0.0
H1164 H 0.83272 0.40684 0.92276 0.0
H1165 H 0.86449 0.45148 0.09266 0.0
H1166 H 0.82983 0.3614 -0.00322 0.0
H1167 H 0.83586 0.48246 0.03099 0.0
H1168 H 0.85165 0.41824 0.05732 0.0
H1169 H 0.83262 0.43437 0.96101 0.0
C1170 C 0.83156 0.4024 0.94701 0.0
C1171 C 0.83164 0.38194 0.95659 0.0
C1172 C 0.84787 0.43213 0.05165 0.0
C1173 C 0.83198 0.41355 0.00033 0.0
C1174 C 0.85536 0.45119 0.0717 0.0
C1175 C 0.85142 0.46982 0.06454 0.0
C1176 C 0.83686 0.43191 0.02381 0.0
C1177 C 0.83928 0.46844 0.03726 0.0
C1178 C 0.83149 0.41812 0.9688 0.0
C1179 C 0.82998 0.37702 0.9883 0.0
N1180 N 0.83278 0.44997 0.01752 0.0
N1181 N 0.83072 0.39296 0.00905 0.0
H1182 H 0.48662 0.91399 0.42062 0.0
H1183 H 0.43086 0.91786 0.5811 0.0
H1184 H 0.50946 0.8982 0.50616 0.0
H1185 H 0.38953 0.89692 0.49752 0.0
H1186 H 0.46247 0.91573 0.55357 0.0
H1187 H 0.45301 0.91242 0.44791 0.0
C1188 C 0.48448 0.91005 0.44508 0.0
C1189 C 0.50082 0.9062 0.46116 0.0
C1190 C 0.44642 0.9115 0.54136 0.0
C1191 C 0.46282 0.90486 0.49247 0.0
C1192 C 0.42845 0.91284 0.55697 0.0
C1193 C 0.40756 0.90756 0.54155 0.0
C1194 C 0.44367 0.90537 0.50996 0.0
C1195 C 0.40532 0.90104 0.5103 0.0
C1196 C 0.46531 0.90911 0.46057 0.0
C1197 C 0.49721 0.90115 0.49284 0.0
N1198 N 0.42327 0.90036 0.49543 0.0
N1199 N 0.47875 0.90092 0.50756 0.0
loop_
_geom_bond_atom_site_label_1
_geom_bond_atom_site_label_2
_geom_bond_distance
_geom_bond_site_symmetry_2
_ccdc_geom_bond_type
Zn0 O3 2.031 . S
Zn0 O5 2.049 . S
Zn0 O10 2.067 . S
Zn1 O2 1.962 . S
Zn1 O4 1.986 . S
Zn1 O6 1.996 . S
Zn1 O9 1.943 . S
O2 Zn1 1.962 . S
O2 C7 1.254 . S
O3 Zn0 2.031 . S
O3 C7 1.269 . S
O4 Zn1 1.986 . S
O4 C11 1.262 . S
O5 Zn0 2.049 . S
O5 C13 1.260 . S
O6 Zn1 1.996 . S
O6 C13 1.257 . S
C7 O2 1.254 . S
C7 O3 1.269 . S
C8 O9 1.249 . S
C8 O10 1.270 . S
O9 Zn1 1.943 . S
O9 C8 1.249 . S
O10 Zn0 2.067 . S
O10 C8 1.270 . S
C11 O4 1.262 . S
C11 O12 1.232 . S
O12 C11 1.232 . S
C13 O5 1.260 . S
C13 O6 1.257 . S
Zn14 O17 2.031 . S
Zn14 O19 2.049 . S
Zn14 O24 2.067 . S
Zn15 O16 1.962 . S
Zn15 O18 1.986 . S
Zn15 O20 1.996 . S
Zn15 O23 1.943 . S
O16 Zn15 1.962 . S
O16 C21 1.254 . S
O17 Zn14 2.031 . S
O17 C21 1.269 . S
O18 Zn15 1.986 . S
O18 C25 1.262 . S
O19 Zn14 2.049 . S
O19 C27 1.260 . S
O20 Zn15 1.996 . S
O20 C27 1.257 . S
C21 O16 1.254 . S
C21 O17 1.269 . S
C22 O23 1.249 . S
C22 O24 1.270 . S
O23 Zn15 1.943 . S
O23 C22 1.249 . S
O24 Zn14 2.067 . S
O24 C22 1.270 . S
C25 O18 1.262 . S
C25 O26 1.232 . S
O26 C25 1.232 . S
C27 O19 1.260 . S
C27 O20 1.257 . S
Zn28 O31 2.031 . S
Zn28 O33 2.049 . S
Zn28 O38 2.067 . S
Zn29 O30 1.962 . S
Zn29 O32 1.986 . S
Zn29 O34 1.996 . S
Zn29 O37 1.943 . S
O30 Zn29 1.962 . S
O30 C35 1.254 . S
O31 Zn28 2.031 . S
O31 C35 1.269 . S
O32 Zn29 1.986 . S
O32 C39 1.262 . S
O33 Zn28 2.049 . S
O33 C41 1.260 . S
O34 Zn29 1.996 . S
O34 C41 1.257 . S
C35 O30 1.254 . S
C35 O31 1.269 . S
C36 O37 1.249 . S
C36 O38 1.270 . S
O37 Zn29 1.943 . S
O37 C36 1.249 . S
O38 Zn28 2.067 . S
O38 C36 1.270 . S
C39 O32 1.262 . S
C39 O40 1.232 . S
O40 C39 1.232 . S
C41 O33 1.260 . S
C41 O34 1.257 . S
Zn42 O45 2.031 . S
Zn42 O47 2.049 . S
Zn42 O52 2.067 . S
Zn43 O44 1.962 . S
Zn43 O46 1.986 . S
Zn43 O48 1.996 . S
Zn43 O51 1.943 . S
O44 Zn43 1.962 . S
O44 C49 1.254 . S
O45 Zn42 2.031 . S
O45 C49 1.269 . S
O46 Zn43 1.986 . S
O46 C53 1.262 . S
O47 Zn42 2.049 . S
O47 C55 1.260 . S
O48 Zn43 1.996 . S
O48 C55 1.257 . S
C49 O44 1.254 . S
C49 O45 1.269 . S
C50 O51 1.249 . S
C50 O52 1.270 . S
O51 Zn43 1.943 . S
O51 C50 1.249 . S
O52 Zn42 2.067 . S
O52 C50 1.270 . S
C53 O46 1.262 . S
C53 O54 1.232 . S
O54 C53 1.232 . S
C55 O47 1.260 . S
C55 O48 1.257 . S
Zn56 O59 2.031 . S
Zn56 O61 2.049 . S
Zn56 O66 2.067 . S
Zn57 O58 1.962 . S
Zn57 O60 1.986 . S
Zn57 O62 1.996 . S
Zn57 O65 1.943 . S
O58 Zn57 1.962 . S
O58 C63 1.254 . S
O59 Zn56 2.031 . S
O59 C63 1.269 . S
O60 Zn57 1.986 . S
O60 C67 1.262 . S
O61 Zn56 2.049 . S
O61 C69 1.260 . S
O62 Zn57 1.996 . S
O62 C69 1.257 . S
C63 O58 1.254 . S
C63 O59 1.269 . S
C64 O65 1.249 . S
C64 O66 1.270 . S
O65 Zn57 1.943 . S
O65 C64 1.249 . S
O66 Zn56 2.067 . S
O66 C64 1.270 . S
C67 O60 1.262 . S
C67 O68 1.232 . S
O68 C67 1.232 . S
C69 O61 1.260 . S
C69 O62 1.257 . S
Zn70 O73 2.031 . S
Zn70 O75 2.049 . S
Zn70 O80 2.067 . S
Zn71 O72 1.962 . S
Zn71 O74 1.986 . S
Zn71 O76 1.996 . S
Zn71 O79 1.943 . S
O72 Zn71 1.962 . S
O72 C77 1.254 . S
O73 Zn70 2.031 . S
O73 C77 1.269 . S
O74 Zn71 1.986 . S
O74 C81 1.262 . S
O75 Zn70 2.049 . S
O75 C83 1.260 . S
O76 Zn71 1.996 . S
O76 C83 1.257 . S
C77 O72 1.254 . S
C77 O73 1.269 . S
C78 O79 1.249 . S
C78 O80 1.270 . S
O79 Zn71 1.943 . S
O79 C78 1.249 . S
O80 Zn70 2.067 . S
O80 C78 1.270 . S
C81 O74 1.262 . S
C81 O82 1.232 . S
O82 C81 1.232 . S
C83 O75 1.260 . S
C83 O76 1.257 . S
Zn84 O87 2.031 . S
Zn84 O89 2.049 . S
Zn84 O94 2.067 . S
Zn85 O86 1.962 . S
Zn85 O88 1.986 . S
Zn85 O90 1.996 . S
Zn85 O93 1.943 . S
O86 Zn85 1.962 . S
O86 C91 1.254 . S
O87 Zn84 2.031 . S
O87 C91 1.269 . S
O88 Zn85 1.986 . S
O88 C95 1.262 . S
O89 Zn84 2.049 . S
O89 C97 1.260 . S
O90 Zn85 1.996 . S
O90 C97 1.257 . S
C91 O86 1.254 . S
C91 O87 1.269 . S
C92 O93 1.249 . S
C92 O94 1.270 . S
O93 Zn85 1.943 . S
O93 C92 1.249 . S
O94 Zn84 2.067 . S
O94 C92 1.270 . S
C95 O88 1.262 . S
C95 O96 1.232 . S
O96 C95 1.232 . S
C97 O89 1.260 . S
C97 O90 1.257 . S
Zn98 O101 2.031 . S
Zn98 O103 2.049 . S
Zn98 O108 2.067 . S
Zn99 O100 1.962 . S
Zn99 O102 1.986 . S
Zn99 O104 1.996 . S
Zn99 O107 1.943 . S
O100 Zn99 1.962 . S
O100 C105 1.254 . S
O101 Zn98 2.031 . S
O101 C105 1.269 . S
O102 Zn99 1.986 . S
O102 C109 1.262 . S
O103 Zn98 2.049 . S
O103 C111 1.260 . S
O104 Zn99 1.996 . S
O104 C111 1.257 . S
C105 O100 1.254 . S
C105 O101 1.269 . S
C106 O107 1.249 . S
C106 O108 1.270 . S
O107 Zn99 1.943 . S
O107 C106 1.249 . S
O108 Zn98 2.067 . S
O108 C106 1.270 . S
C109 O102 1.262 . S
C109 O110 1.232 . S
O110 C109 1.232 . S
C111 O103 1.260 . S
C111 O104 1.257 . S
Zn112 O115 2.031 . S
Zn112 O117 2.049 . S
Zn112 O122 2.067 . S
Zn113 O114 1.962 . S
Zn113 O116 1.986 . S
Zn113 O118 1.996 . S
Zn113 O121 1.943 . S
O114 Zn113 1.962 . S
O114 C119 1.254 . S
O115 Zn112 2.031 . S
O115 C119 1.269 . S
O116 Zn113 1.986 . S
O116 C123 1.262 . S
O117 Zn112 2.049 . S
O117 C125 1.260 . S
O118 Zn113 1.996 . S
O118 C125 1.257 . S
C119 O114 1.254 . S
C119 O115 1.269 . S
C120 O121 1.249 . S
C120 O122 1.270 . S
O121 Zn113 1.943 . S
O121 C120 1.249 . S
O122 Zn112 2.067 . S
O122 C120 1.270 . S
C123 O116 1.262 . S
C123 O124 1.232 . S
O124 C123 1.232 . S
C125 O117 1.260 . S
C125 O118 1.257 . S
Zn126 O129 2.031 . S
Zn126 O131 2.049 . S
Zn126 O136 2.067 . S
Zn127 O128 1.962 . S
Zn127 O130 1.986 . S
Zn127 O132 1.996 . S
Zn127 O135 1.943 . S
O128 Zn127 1.962 . S
O128 C133 1.254 . S
O129 Zn126 2.031 . S
O129 C133 1.269 . S
O130 Zn127 1.986 . S
O130 C137 1.262 . S
O131 Zn126 2.049 . S
O131 C139 1.260 . S
O132 Zn127 1.996 . S
O132 C139 1.257 . S
C133 O128 1.254 . S
C133 O129 1.269 . S
C134 O135 1.249 . S
C134 O136 1.270 . S
O135 Zn127 1.943 . S
O135 C134 1.249 . S
O136 Zn126 2.067 . S
O136 C134 1.270 . S
C137 O130 1.262 . S
C137 O138 1.232 . S
O138 C137 1.232 . S
C139 O131 1.260 . S
C139 O132 1.257 . S
Zn140 O143 2.031 . S
Zn140 O145 2.049 . S
Zn140 O150 2.067 . S
Zn141 O142 1.962 . S
Zn141 O144 1.986 . S
Zn141 O146 1.996 . S
Zn141 O149 1.943 . S
O142 Zn141 1.962 . S
O142 C147 1.254 . S
O143 Zn140 2.031 . S
O143 C147 1.269 . S
O144 Zn141 1.986 . S
O144 C151 1.262 . S
O145 Zn140 2.049 . S
O145 C153 1.260 . S
O146 Zn141 1.996 . S
O146 C153 1.257 . S
C147 O142 1.254 . S
C147 O143 1.269 . S
C148 O149 1.249 . S
C148 O150 1.270 . S
O149 Zn141 1.943 . S
O149 C148 1.249 . S
O150 Zn140 2.067 . S
O150 C148 1.270 . S
C151 O144 1.262 . S
C151 O152 1.232 . S
O152 C151 1.232 . S
C153 O145 1.260 . S
C153 O146 1.257 . S
Zn154 O157 2.031 . S
Zn154 O159 2.049 . S
Zn154 O164 2.067 . S
Zn155 O156 1.962 . S
Zn155 O158 1.986 . S
Zn155 O160 1.996 . S
Zn155 O163 1.943 . S
O156 Zn155 1.962 . S
O156 C161 1.254 . S
O157 Zn154 2.031 . S
O157 C161 1.269 . S
O158 Zn155 1.986 . S
O158 C165 1.262 . S
O159 Zn154 2.049 . S
O159 C167 1.260 . S
O160 Zn155 1.996 . S
O160 C167 1.257 . S
C161 O156 1.254 . S
C161 O157 1.269 . S
C162 O163 1.249 . S
C162 O164 1.270 . S
O163 Zn155 1.943 . S
O163 C162 1.249 . S
O164 Zn154 2.067 . S
O164 C162 1.270 . S
C165 O158 1.262 . S
C165 O166 1.232 . S
O166 C165 1.232 . S
C167 O159 1.260 . S
C167 O160 1.257 . S
Zn168 O171 2.031 . S
Zn168 O173 2.049 . S
Zn168 O178 2.067 . S
Zn169 O170 1.962 . S
Zn169 O172 1.986 . S
Zn169 O174 1.996 . S
Zn169 O177 1.943 . S
O170 Zn169 1.962 . S
O170 C175 1.254 . S
O171 Zn168 2.031 . S
O171 C175 1.269 . S
O172 Zn169 1.986 . S
O172 C179 1.262 . S
O173 Zn168 2.049 . S
O173 C181 1.260 . S
O174 Zn169 1.996 . S
O174 C181 1.257 . S
C175 O170 1.254 . S
C175 O171 1.269 . S
C176 O177 1.249 . S
C176 O178 1.270 . S
O177 Zn169 1.943 . S
O177 C176 1.249 . S
O178 Zn168 2.067 . S
O178 C176 1.270 . S
C179 O172 1.262 . S
C179 O180 1.232 . S
O180 C179 1.232 . S
C181 O173 1.260 . S
C181 O174 1.257 . S
Zn182 O185 2.031 . S
Zn182 O187 2.049 . S
Zn182 O192 2.067 . S
Zn183 O184 1.962 . S
Zn183 O186 1.986 . S
Zn183 O188 1.996 . S
Zn183 O191 1.943 . S
O184 Zn183 1.962 . S
O184 C189 1.254 . S
O185 Zn182 2.031 . S
O185 C189 1.269 . S
O186 Zn183 1.986 . S
O186 C193 1.262 . S
O187 Zn182 2.049 . S
O187 C195 1.260 . S
O188 Zn183 1.996 . S
O188 C195 1.257 . S
C189 O184 1.254 . S
C189 O185 1.269 . S
C190 O191 1.249 . S
C190 O192 1.270 . S
O191 Zn183 1.943 . S
O191 C190 1.249 . S
O192 Zn182 2.067 . S
O192 C190 1.270 . S
C193 O186 1.262 . S
C193 O194 1.232 . S
O194 C193 1.232 . S
C195 O187 1.260 . S
C195 O188 1.257 . S
Zn196 O199 2.031 . S
Zn196 O201 2.049 . S
Zn196 O206 2.067 . S
Zn197 O198 1.962 . S
Zn197 O200 1.986 . S
Zn197 O202 1.996 . S
Zn197 O205 1.943 . S
O198 Zn197 1.962 . S
O198 C203 1.254 . S
O199 Zn196 2.031 . S
O199 C203 1.269 . S
O200 Zn197 1.986 . S
O200 C207 1.262 . S
O201 Zn196 2.049 . S
O201 C209 1.260 . S
O202 Zn197 1.996 . S
O202 C209 1.257 . S
C203 O198 1.254 . S
C203 O199 1.269 . S
C204 O205 1.249 . S
C204 O206 1.270 . S
O205 Zn197 1.943 . S
O205 C204 1.249 . S
O206 Zn196 2.067 . S
O206 C204 1.270 . S
C207 O200 1.262 . S
C207 O208 1.232 . S
O208 C207 1.232 . S
C209 O201 1.260 . S
C209 O202 1.257 . S
Zn210 O213 2.031 . S
Zn210 O215 2.049 . S
Zn210 O220 2.067 . S
Zn211 O212 1.962 . S
Zn211 O214 1.986 . S
Zn211 O216 1.996 . S
Zn211 O219 1.943 . S
O212 Zn211 1.962 . S
O212 C217 1.254 . S
O213 Zn210 2.031 . S
O213 C217 1.269 . S
O214 Zn211 1.986 . S
O214 C221 1.262 . S
O215 Zn210 2.049 . S
O215 C223 1.260 . S
O216 Zn211 1.996 . S
O216 C223 1.257 . S
C217 O212 1.254 . S
C217 O213 1.269 . S
C218 O219 1.249 . S
C218 O220 1.270 . S
O219 Zn211 1.943 . S
O219 C218 1.249 . S
O220 Zn210 2.067 . S
O220 C218 1.270 . S
C221 O214 1.262 . S
C221 O222 1.232 . S
O222 C221 1.232 . S
C223 O215 1.260 . S
C223 O216 1.257 . S
Zn224 O227 2.031 . S
Zn224 O229 2.049 . S
Zn224 O234 2.067 . S
Zn225 O226 1.962 . S
Zn225 O228 1.986 . S
Zn225 O230 1.996 . S
Zn225 O233 1.943 . S
O226 Zn225 1.962 . S
O226 C231 1.254 . S
O227 Zn224 2.031 . S
O227 C231 1.269 . S
O228 Zn225 1.986 . S
O228 C235 1.262 . S
O229 Zn224 2.049 . S
O229 C237 1.260 . S
O230 Zn225 1.996 . S
O230 C237 1.257 . S
C231 O226 1.254 . S
C231 O227 1.269 . S
C232 O233 1.249 . S
C232 O234 1.270 . S
O233 Zn225 1.943 . S
O233 C232 1.249 . S
O234 Zn224 2.067 . S
O234 C232 1.270 . S
C235 O228 1.262 . S
C235 O236 1.232 . S
O236 C235 1.232 . S
C237 O229 1.260 . S
C237 O230 1.257 . S
Zn238 O241 2.031 . S
Zn238 O243 2.049 . S
Zn238 O248 2.067 . S
Zn239 O240 1.962 . S
Zn239 O242 1.986 . S
Zn239 O244 1.996 . S
Zn239 O247 1.943 . S
O240 Zn239 1.962 . S
O240 C245 1.254 . S
O241 Zn238 2.031 . S
O241 C245 1.269 . S
O242 Zn239 1.986 . S
O242 C249 1.262 . S
O243 Zn238 2.049 . S
O243 C251 1.260 . S
O244 Zn239 1.996 . S
O244 C251 1.257 . S
C245 O240 1.254 . S
C245 O241 1.269 . S
C246 O247 1.249 . S
C246 O248 1.270 . S
O247 Zn239 1.943 . S
O247 C246 1.249 . S
O248 Zn238 2.067 . S
O248 C246 1.270 . S
C249 O242 1.262 . S
C249 O250 1.232 . S
O250 C249 1.232 . S
C251 O243 1.260 . S
C251 O244 1.257 . S
Zn252 O255 2.031 . S
Zn252 O257 2.049 . S
Zn252 O262 2.067 . S
Zn253 O254 1.962 . S
Zn253 O256 1.986 . S
Zn253 O258 1.996 . S
Zn253 O261 1.943 . S
O254 Zn253 1.962 . S
O254 C259 1.254 . S
O255 Zn252 2.031 . S
O255 C259 1.269 . S
O256 Zn253 1.986 . S
O256 C263 1.262 . S
O257 Zn252 2.049 . S
O257 C265 1.260 . S
O258 Zn253 1.996 . S
O258 C265 1.257 . S
C259 O254 1.254 . S
C259 O255 1.269 . S
C260 O261 1.249 . S
C260 O262 1.270 . S
O261 Zn253 1.943 . S
O261 C260 1.249 . S
O262 Zn252 2.067 . S
O262 C260 1.270 . S
C263 O256 1.262 . S
C263 O264 1.232 . S
O264 C263 1.232 . S
C265 O257 1.260 . S
C265 O258 1.257 . S
Zn266 O269 2.031 . S
Zn266 O271 2.049 . S
Zn266 O276 2.067 . S
Zn267 O268 1.962 . S
Zn267 O270 1.986 . S
Zn267 O272 1.996 . S
Zn267 O275 1.943 . S
O268 Zn267 1.962 . S
O268 C273 1.254 . S
O269 Zn266 2.031 . S
O269 C273 1.269 . S
O270 Zn267 1.986 . S
O270 C277 1.262 . S
O271 Zn266 2.049 . S
O271 C279 1.260 . S
O272 Zn267 1.996 . S
O272 C279 1.257 . S
C273 O268 1.254 . S
C273 O269 1.269 . S
C274 O275 1.249 . S
C274 O276 1.270 . S
O275 Zn267 1.943 . S
O275 C274 1.249 . S
O276 Zn266 2.067 . S
O276 C274 1.270 . S
C277 O270 1.262 . S
C277 O278 1.232 . S
O278 C277 1.232 . S
C279 O271 1.260 . S
C279 O272 1.257 . S
Zn280 O283 2.031 . S
Zn280 O285 2.049 . S
Zn280 O290 2.067 . S
Zn281 O282 1.962 . S
Zn281 O284 1.986 . S
Zn281 O286 1.996 . S
Zn281 O289 1.943 . S
O282 Zn281 1.962 . S
O282 C287 1.254 . S
O283 Zn280 2.031 . S
O283 C287 1.269 . S
O284 Zn281 1.986 . S
O284 C291 1.262 . S
O285 Zn280 2.049 . S
O285 C293 1.260 . S
O286 Zn281 1.996 . S
O286 C293 1.257 . S
C287 O282 1.254 . S
C287 O283 1.269 . S
C288 O289 1.249 . S
C288 O290 1.270 . S
O289 Zn281 1.943 . S
O289 C288 1.249 . S
O290 Zn280 2.067 . S
O290 C288 1.270 . S
C291 O284 1.262 . S
C291 O292 1.232 . S
O292 C291 1.232 . S
C293 O285 1.260 . S
C293 O286 1.257 . S
Zn294 O297 2.031 . S
Zn294 O299 2.049 . S
Zn294 O304 2.067 . S
Zn295 O296 1.962 . S
Zn295 O298 1.986 . S
Zn295 O300 1.996 . S
Zn295 O303 1.943 . S
O296 Zn295 1.962 . S
O296 C301 1.254 . S
O297 Zn294 2.031 . S
O297 C301 1.269 . S
O298 Zn295 1.986 . S
O298 C305 1.262 . S
O299 Zn294 2.049 . S
O299 C307 1.260 . S
O300 Zn295 1.996 . S
O300 C307 1.257 . S
C301 O296 1.254 . S
C301 O297 1.269 . S
C302 O303 1.249 . S
C302 O304 1.270 . S
O303 Zn295 1.943 . S
O303 C302 1.249 . S
O304 Zn294 2.067 . S
O304 C302 1.270 . S
C305 O298 1.262 . S
C305 O306 1.232 . S
O306 C305 1.232 . S
C307 O299 1.260 . S
C307 O300 1.257 . S
Zn308 O311 2.031 . S
Zn308 O313 2.049 . S
Zn308 O318 2.067 . S
Zn309 O310 1.962 . S
Zn309 O312 1.986 . S
Zn309 O314 1.996 . S
Zn309 O317 1.943 . S
O310 Zn309 1.962 . S
O310 C315 1.254 . S
O311 Zn308 2.031 . S
O311 C315 1.269 . S
O312 Zn309 1.986 . S
O312 C319 1.262 . S
O313 Zn308 2.049 . S
O313 C321 1.260 . S
O314 Zn309 1.996 . S
O314 C321 1.257 . S
C315 O310 1.254 . S
C315 O311 1.269 . S
C316 O317 1.249 . S
C316 O318 1.270 . S
O317 Zn309 1.943 . S
O317 C316 1.249 . S
O318 Zn308 2.067 . S
O318 C316 1.270 . S
C319 O312 1.262 . S
C319 O320 1.232 . S
O320 C319 1.232 . S
C321 O313 1.260 . S
C321 O314 1.257 . S
Zn322 O325 2.031 . S
Zn322 O327 2.049 . S
Zn322 O332 2.067 . S
Zn323 O324 1.962 . S
Zn323 O326 1.986 . S
Zn323 O328 1.996 . S
Zn323 O331 1.943 . S
O324 Zn323 1.962 . S
O324 C329 1.254 . S
O325 Zn322 2.031 . S
O325 C329 1.269 . S
O326 Zn323 1.986 . S
O326 C333 1.262 . S
O327 Zn322 2.049 . S
O327 C335 1.260 . S
O328 Zn323 1.996 . S
O328 C335 1.257 . S
C329 O324 1.254 . S
C329 O325 1.269 . S
C330 O331 1.249 . S
C330 O332 1.270 . S
O331 Zn323 1.943 . S
O331 C330 1.249 . S
O332 Zn322 2.067 . S
O332 C330 1.270 . S
C333 O326 1.262 . S
C333 O334 1.232 . S
O334 C333 1.232 . S
C335 O327 1.260 . S
C335 O328 1.257 . S
H336 C342 0.930 . S
H337 C346 0.930 . S
H338 C351 0.929 . S
H339 C349 0.929 . S
H340 C344 0.929 . S
H341 C350 0.929 . S
C342 H336 0.930 . S
C342 C343 1.367 . S
C342 C350 1.378 . S
C343 C342 1.367 . S
C343 C351 1.433 . S
C344 H340 0.929 . S
C344 C346 1.378 . S
C344 C348 1.350 . S
C345 C348 1.463 . S
C345 C350 1.350 . S
C345 N353 1.427 . S
C346 H337 0.930 . S
C346 C344 1.378 . S
C346 C347 1.367 . S
C347 C346 1.367 . S
C347 C349 1.433 . S
C348 C344 1.350 . S
C348 C345 1.463 . S
C348 N352 1.427 . S
C349 H339 0.929 . S
C349 C347 1.433 . S
C349 N352 1.384 . S
C350 H341 0.929 . S
C350 C342 1.378 . S
C350 C345 1.350 . S
C351 H338 0.929 . S
C351 C343 1.433 . S
C351 N353 1.384 . S
N352 C348 1.427 . S
N352 C349 1.384 . S
N353 C345 1.427 . S
N353 C351 1.384 . S
H354 C360 0.930 . S
H355 C364 0.930 . S
H356 C369 0.929 . S
H357 C367 0.929 . S
H358 C362 0.929 . S
H359 C368 0.929 . S
C360 H354 0.930 . S
C360 C361 1.367 . S
C360 C368 1.378 . S
C361 C360 1.367 . S
C361 C369 1.433 . S
C362 H358 0.929 . S
C362 C364 1.378 . S
C362 C366 1.350 . S
C363 C366 1.463 . S
C363 C368 1.350 . S
C363 N371 1.427 . S
C364 H355 0.930 . S
C364 C362 1.378 . S
C364 C365 1.367 . S
C365 C364 1.367 . S
C365 C367 1.433 . S
C366 C362 1.350 . S
C366 C363 1.463 . S
C366 N370 1.427 . S
C367 H357 0.929 . S
C367 C365 1.433 . S
C367 N370 1.384 . S
C368 H359 0.929 . S
C368 C360 1.378 . S
C368 C363 1.350 . S
C369 H356 0.929 . S
C369 C361 1.433 . S
C369 N371 1.384 . S
N370 C366 1.427 . S
N370 C367 1.384 . S
N371 C363 1.427 . S
N371 C369 1.384 . S
H372 C378 0.930 . S
H373 C382 0.930 . S
H374 C387 0.929 . S
H375 C385 0.929 . S
H376 C380 0.929 . S
H377 C386 0.929 . S
C378 H372 0.930 . S
C378 C379 1.367 . S
C378 C386 1.378 . S
C379 C378 1.367 . S
C379 C387 1.433 . S
C380 H376 0.929 . S
C380 C382 1.378 . S
C380 C384 1.350 . S
C381 C384 1.463 . S
C381 C386 1.350 . S
C381 N389 1.427 . S
C382 H373 0.930 . S
C382 C380 1.378 . S
C382 C383 1.367 . S
C383 C382 1.367 . S
C383 C385 1.433 . S
C384 C380 1.350 . S
C384 C381 1.463 . S
C384 N388 1.427 . S
C385 H375 0.929 . S
C385 C383 1.433 . S
C385 N388 1.384 . S
C386 H377 0.929 . S
C386 C378 1.378 . S
C386 C381 1.350 . S
C387 H374 0.929 . S
C387 C379 1.433 . S
C387 N389 1.384 . S
N388 C384 1.427 . S
N388 C385 1.384 . S
N389 C381 1.427 . S
N389 C387 1.384 . S
H390 C396 0.930 . S
H391 C400 0.930 . S
H392 C405 0.929 . S
H393 C403 0.929 . S
H394 C398 0.929 . S
H395 C404 0.929 . S
C396 H390 0.930 . S
C396 C397 1.367 . S
C396 C404 1.378 . S
C397 C396 1.367 . S
C397 C405 1.433 . S
C398 H394 0.929 . S
C398 C400 1.378 . S
C398 C402 1.350 . S
C399 C402 1.463 . S
C399 C404 1.350 . S
C399 N407 1.427 . S
C400 H391 0.930 . S
C400 C398 1.378 . S
C400 C401 1.367 . S
C401 C400 1.367 . S
C401 C403 1.433 . S
C402 C398 1.350 . S
C402 C399 1.463 . S
C402 N406 1.427 . S
C403 H393 0.929 . S
C403 C401 1.433 . S
C403 N406 1.384 . S
C404 H395 0.929 . S
C404 C396 1.378 . S
C404 C399 1.350 . S
C405 H392 0.929 . S
C405 C397 1.433 . S
C405 N407 1.384 . S
N406 C402 1.427 . S
N406 C403 1.384 . S
N407 C399 1.427 . S
N407 C405 1.384 . S
H408 C414 0.930 . S
H409 C418 0.930 . S
H410 C423 0.929 . S
H411 C421 0.929 . S
H412 C416 0.929 . S
H413 C422 0.929 . S
C414 H408 0.930 . S
C414 C415 1.367 . S
C414 C422 1.378 . S
C415 C414 1.367 . S
C415 C423 1.433 . S
C416 H412 0.929 . S
C416 C418 1.378 . S
C416 C420 1.350 . S
C417 C420 1.463 . S
C417 C422 1.350 . S
C417 N425 1.427 . S
C418 H409 0.930 . S
C418 C416 1.378 . S
C418 C419 1.367 . S
C419 C418 1.367 . S
C419 C421 1.433 . S
C420 C416 1.350 . S
C420 C417 1.463 . S
C420 N424 1.427 . S
C421 H411 0.929 . S
C421 C419 1.433 . S
C421 N424 1.384 . S
C422 H413 0.929 . S
C422 C414 1.378 . S
C422 C417 1.350 . S
C423 H410 0.929 . S
C423 C415 1.433 . S
C423 N425 1.384 . S
N424 C420 1.427 . S
N424 C421 1.384 . S
N425 C417 1.427 . S
N425 C423 1.384 . S
H426 C432 0.930 . S
H427 C436 0.930 . S
H428 C441 0.929 . S
H429 C439 0.929 . S
H430 C434 0.929 . S
H431 C440 0.929 . S
C432 H426 0.930 . S
C432 C433 1.367 . S
C432 C440 1.378 . S
C433 C432 1.367 . S
C433 C441 1.433 . S
C434 H430 0.929 . S
C434 C436 1.378 . S
C434 C438 1.350 . S
C435 C438 1.463 . S
C435 C440 1.350 . S
C435 N443 1.427 . S
C436 H427 0.930 . S
C436 C434 1.378 . S
C436 C437 1.367 . S
C437 C436 1.367 . S
C437 C439 1.433 . S
C438 C434 1.350 . S
C438 C435 1.463 . S
C438 N442 1.427 . S
C439 H429 0.929 . S
C439 C437 1.433 . S
C439 N442 1.384 . S
C440 H431 0.929 . S
C440 C432 1.378 . S
C440 C435 1.350 . S
C441 H428 0.929 . S
C441 C433 1.433 . S
C441 N443 1.384 . S
N442 C438 1.427 . S
N442 C439 1.384 . S
N443 C435 1.427 . S
N443 C441 1.384 . S
H444 C450 0.930 . S
H445 C454 0.930 . S
H446 C459 0.929 . S
H447 C457 0.929 . S
H448 C452 0.929 . S
H449 C458 0.929 . S
C450 H444 0.930 . S
C450 C451 1.367 . S
C450 C458 1.378 . S
C451 C450 1.367 . S
C451 C459 1.433 . S
C452 H448 0.929 . S
C452 C454 1.378 . S
C452 C456 1.350 . S
C453 C456 1.463 . S
C453 C458 1.350 . S
C453 N461 1.427 . S
C454 H445 0.930 . S
C454 C452 1.378 . S
C454 C455 1.367 . S
C455 C454 1.367 . S
C455 C457 1.433 . S
C456 C452 1.350 . S
C456 C453 1.463 . S
C456 N460 1.427 . S
C457 H447 0.929 . S
C457 C455 1.433 . S
C457 N460 1.384 . S
C458 H449 0.929 . S
C458 C450 1.378 . S
C458 C453 1.350 . S
C459 H446 0.929 . S
C459 C451 1.433 . S
C459 N461 1.384 . S
N460 C456 1.427 . S
N460 C457 1.384 . S
N461 C453 1.427 . S
N461 C459 1.384 . S
H462 C468 0.930 . S
H463 C472 0.930 . S
H464 C477 0.929 . S
H465 C475 0.929 . S
H466 C470 0.929 . S
H467 C476 0.929 . S
C468 H462 0.930 . S
C468 C469 1.367 . S
C468 C476 1.378 . S
C469 C468 1.367 . S
C469 C477 1.433 . S
C470 H466 0.929 . S
C470 C472 1.378 . S
C470 C474 1.350 . S
C471 C474 1.463 . S
C471 C476 1.350 . S
C471 N479 1.427 . S
C472 H463 0.930 . S
C472 C470 1.378 . S
C472 C473 1.367 . S
C473 C472 1.367 . S
C473 C475 1.433 . S
C474 C470 1.350 . S
C474 C471 1.463 . S
C474 N478 1.427 . S
C475 H465 0.929 . S
C475 C473 1.433 . S
C475 N478 1.384 . S
C476 H467 0.929 . S
C476 C468 1.378 . S
C476 C471 1.350 . S
C477 H464 0.929 . S
C477 C469 1.433 . S
C477 N479 1.384 . S
N478 C474 1.427 . S
N478 C475 1.384 . S
N479 C471 1.427 . S
N479 C477 1.384 . S
H480 C486 0.930 . S
H481 C490 0.930 . S
H482 C495 0.929 . S
H483 C493 0.929 . S
H484 C488 0.929 . S
H485 C494 0.929 . S
C486 H480 0.930 . S
C486 C487 1.367 . S
C486 C494 1.378 . S
C487 C486 1.367 . S
C487 C495 1.433 . S
C488 H484 0.929 . S
C488 C490 1.378 . S
C488 C492 1.350 . S
C489 C492 1.463 . S
C489 C494 1.350 . S
C489 N497 1.427 . S
C490 H481 0.930 . S
C490 C488 1.378 . S
C490 C491 1.367 . S
C491 C490 1.367 . S
C491 C493 1.433 . S
C492 C488 1.350 . S
C492 C489 1.463 . S
C492 N496 1.427 . S
C493 H483 0.929 . S
C493 C491 1.433 . S
C493 N496 1.384 . S
C494 H485 0.929 . S
C494 C486 1.378 . S
C494 C489 1.350 . S
C495 H482 0.929 . S
C495 C487 1.433 . S
C495 N497 1.384 . S
N496 C492 1.427 . S
N496 C493 1.384 . S
N497 C489 1.427 . S
N497 C495 1.384 . S
H498 C504 0.930 . S
H499 C508 0.930 . S
H500 C513 0.929 . S
H501 C511 0.929 . S
H502 C506 0.929 . S
H503 C512 0.929 . S
C504 H498 0.930 . S
C504 C505 1.367 . S
C504 C512 1.378 . S
C505 C504 1.367 . S
C505 C513 1.433 . S
C506 H502 0.929 . S
C506 C508 1.378 . S
C506 C510 1.350 . S
C507 C510 1.463 . S
C507 C512 1.350 . S
C507 N515 1.427 . S
C508 H499 0.930 . S
C508 C506 1.378 . S
C508 C509 1.367 . S
C509 C508 1.367 . S
C509 C511 1.433 . S
C510 C506 1.350 . S
C510 C507 1.463 . S
C510 N514 1.427 . S
C511 H501 0.929 . S
C511 C509 1.433 . S
C511 N514 1.384 . S
C512 H503 0.929 . S
C512 C504 1.378 . S
C512 C507 1.350 . S
C513 H500 0.929 . S
C513 C505 1.433 . S
C513 N515 1.384 . S
N514 C510 1.427 . S
N514 C511 1.384 . S
N515 C507 1.427 . S
N515 C513 1.384 . S
H516 C522 0.930 . S
H517 C526 0.930 . S
H518 C531 0.929 . S
H519 C529 0.929 . S
H520 C524 0.929 . S
H521 C530 0.929 . S
C522 H516 0.930 . S
C522 C523 1.367 . S
C522 C530 1.378 . S
C523 C522 1.367 . S
C523 C531 1.433 . S
C524 H520 0.929 . S
C524 C526 1.378 . S
C524 C528 1.350 . S
C525 C528 1.463 . S
C525 C530 1.350 . S
C525 N533 1.427 . S
C526 H517 0.930 . S
C526 C524 1.378 . S
C526 C527 1.367 . S
C527 C526 1.367 . S
C527 C529 1.433 . S
C528 C524 1.350 . S
C528 C525 1.463 . S
C528 N532 1.427 . S
C529 H519 0.929 . S
C529 C527 1.433 . S
C529 N532 1.384 . S
C530 H521 0.929 . S
C530 C522 1.378 . S
C530 C525 1.350 . S
C531 H518 0.929 . S
C531 C523 1.433 . S
C531 N533 1.384 . S
N532 C528 1.427 . S
N532 C529 1.384 . S
N533 C525 1.427 . S
N533 C531 1.384 . S
H534 C540 0.930 . S
H535 C544 0.930 . S
H536 C549 0.929 . S
H537 C547 0.929 . S
H538 C542 0.929 . S
H539 C548 0.929 . S
C540 H534 0.930 . S
C540 C541 1.367 . S
C540 C548 1.378 . S
C541 C540 1.367 . S
C541 C549 1.433 . S
C542 H538 0.929 . S
C542 C544 1.378 . S
C542 C546 1.350 . S
C543 C546 1.463 . S
C543 C548 1.350 . S
C543 N551 1.427 . S
C544 H535 0.930 . S
C544 C542 1.378 . S
C544 C545 1.367 . S
C545 C544 1.367 . S
C545 C547 1.433 . S
C546 C542 1.350 . S
C546 C543 1.463 . S
C546 N550 1.427 . S
C547 H537 0.929 . S
C547 C545 1.433 . S
C547 N550 1.384 . S
C548 H539 0.929 . S
C548 C540 1.378 . S
C548 C543 1.350 . S
C549 H536 0.929 . S
C549 C541 1.433 . S
C549 N551 1.384 . S
N550 C546 1.427 . S
N550 C547 1.384 . S
N551 C543 1.427 . S
N551 C549 1.384 . S
H552 C558 0.930 . S
H553 C562 0.930 . S
H554 C567 0.929 . S
H555 C565 0.929 . S
H556 C560 0.929 . S
H557 C566 0.929 . S
C558 H552 0.930 . S
C558 C559 1.367 . S
C558 C566 1.378 . S
C559 C558 1.367 . S
C559 C567 1.433 . S
C560 H556 0.929 . S
C560 C562 1.378 . S
C560 C564 1.350 . S
C561 C564 1.463 1_556 S
C561 C566 1.350 . S
C561 N569 1.427 . S
C562 H553 0.930 . S
C562 C560 1.378 . S
C562 C563 1.367 . S
C563 C562 1.367 . S
C563 C565 1.433 . S
C564 C560 1.350 . S
C564 C561 1.463 1_554 S
C564 N568 1.427 . S
C565 H555 0.929 . S
C565 C563 1.433 . S
C565 N568 1.384 . S
C566 H557 0.929 . S
C566 C558 1.378 . S
C566 C561 1.350 . S
C567 H554 0.929 . S
C567 C559 1.433 . S
C567 N569 1.384 . S
N568 C564 1.427 . S
N568 C565 1.384 . S
N569 C561 1.427 . S
N569 C567 1.384 . S
H570 C576 0.930 . S
H571 C580 0.930 . S
H572 C585 0.929 . S
H573 C583 0.929 . S
H574 C578 0.929 . S
H575 C584 0.929 . S
C576 H570 0.930 . S
C576 C577 1.367 . S
C576 C584 1.378 . S
C577 C576 1.367 . S
C577 C585 1.433 . S
C578 H574 0.929 . S
C578 C580 1.378 . S
C578 C582 1.350 . S
C579 C582 1.463 . S
C579 C584 1.350 . S
C579 N587 1.427 . S
C580 H571 0.930 . S
C580 C578 1.378 . S
C580 C581 1.367 . S
C581 C580 1.367 . S
C581 C583 1.433 . S
C582 C578 1.350 . S
C582 C579 1.463 . S
C582 N586 1.427 . S
C583 H573 0.929 . S
C583 C581 1.433 . S
C583 N586 1.384 . S
C584 H575 0.929 . S
C584 C576 1.378 . S
C584 C579 1.350 . S
C585 H572 0.929 . S
C585 C577 1.433 . S
C585 N587 1.384 . S
N586 C582 1.427 . S
N586 C583 1.384 . S
N587 C579 1.427 . S
N587 C585 1.384 . S
H588 C594 0.930 . S
H589 C598 0.930 . S
H590 C603 0.929 . S
H591 C601 0.929 . S
H592 C596 0.929 . S
H593 C602 0.929 . S
C594 H588 0.930 . S
C594 C595 1.367 . S
C594 C602 1.378 . S
C595 C594 1.367 . S
C595 C603 1.433 . S
C596 H592 0.929 . S
C596 C598 1.378 . S
C596 C600 1.350 . S
C597 C600 1.463 1_554 S
C597 C602 1.350 . S
C597 N605 1.427 . S
C598 H589 0.930 . S
C598 C596 1.378 . S
C598 C599 1.367 . S
C599 C598 1.367 . S
C599 C601 1.433 . S
C600 C596 1.350 . S
C600 C597 1.463 1_556 S
C600 N604 1.427 . S
C601 H591 0.929 . S
C601 C599 1.433 . S
C601 N604 1.384 . S
C602 H593 0.929 . S
C602 C594 1.378 . S
C602 C597 1.350 . S
C603 H590 0.929 . S
C603 C595 1.433 . S
C603 N605 1.384 . S
N604 C600 1.427 . S
N604 C601 1.384 . S
N605 C597 1.427 . S
N605 C603 1.384 . S
H606 C612 0.930 . S
H607 C616 0.930 . S
H608 C621 0.929 . S
H609 C619 0.929 . S
H610 C614 0.929 . S
H611 C620 0.929 . S
C612 H606 0.930 . S
C612 C613 1.367 . S
C612 C620 1.378 . S
C613 C612 1.367 . S
C613 C621 1.433 . S
C614 H610 0.929 . S
C614 C616 1.378 . S
C614 C618 1.350 . S
C615 C618 1.463 . S
C615 C620 1.350 . S
C615 N623 1.427 . S
C616 H607 0.930 . S
C616 C614 1.378 . S
C616 C617 1.367 . S
C617 C616 1.367 . S
C617 C619 1.433 . S
C618 C614 1.350 . S
C618 C615 1.463 . S
C618 N622 1.427 . S
C619 H609 0.929 . S
C619 C617 1.433 . S
C619 N622 1.384 . S
C620 H611 0.929 . S
C620 C612 1.378 . S
C620 C615 1.350 . S
C621 H608 0.929 . S
C621 C613 1.433 . S
C621 N623 1.384 . S
N622 C618 1.427 . S
N622 C619 1.384 . S
N623 C615 1.427 . S
N623 C621 1.384 . S
H624 C630 0.930 . S
H625 C634 0.930 . S
H626 C639 0.929 . S
H627 C637 0.929 . S
H628 C632 0.929 1_556 S
H629 C638 0.929 1_554 S
C630 H624 0.930 . S
C630 C631 1.367 . S
C630 C638 1.378 . S
C631 C630 1.367 . S
C631 C639 1.433 . S
C632 H628 0.929 1_554 S
C632 C634 1.378 . S
C632 C636 1.350 . S
C633 C636 1.463 1_556 S
C633 C638 1.350 . S
C633 N641 1.427 . S
C634 H625 0.930 . S
C634 C632 1.378 . S
C634 C635 1.367 . S
C635 C634 1.367 . S
C635 C637 1.433 . S
C636 C632 1.350 . S
C636 C633 1.463 1_554 S
C636 N640 1.427 . S
C637 H627 0.929 . S
C637 C635 1.433 . S
C637 N640 1.384 . S
C638 H629 0.929 1_556 S
C638 C630 1.378 . S
C638 C633 1.350 . S
C639 H626 0.929 . S
C639 C631 1.433 . S
C639 N641 1.384 . S
N640 C636 1.427 . S
N640 C637 1.384 . S
N641 C633 1.427 . S
N641 C639 1.384 . S
H642 C648 0.930 . S
H643 C652 0.930 . S
H644 C657 0.929 . S
H645 C655 0.929 . S
H646 C650 0.929 . S
H647 C656 0.929 . S
C648 H642 0.930 . S
C648 C649 1.367 . S
C648 C656 1.378 . S
C649 C648 1.367 . S
C649 C657 1.433 . S
C650 H646 0.929 . S
C650 C652 1.378 . S
C650 C654 1.350 . S
C651 C654 1.463 . S
C651 C656 1.350 . S
C651 N659 1.427 . S
C652 H643 0.930 . S
C652 C650 1.378 . S
C652 C653 1.367 . S
C653 C652 1.367 . S
C653 C655 1.433 . S
C654 C650 1.350 . S
C654 C651 1.463 . S
C654 N658 1.427 . S
C655 H645 0.929 . S
C655 C653 1.433 . S
C655 N658 1.384 . S
C656 H647 0.929 . S
C656 C648 1.378 . S
C656 C651 1.350 . S
C657 H644 0.929 . S
C657 C649 1.433 . S
C657 N659 1.384 . S
N658 C654 1.427 . S
N658 C655 1.384 . S
N659 C651 1.427 . S
N659 C657 1.384 . S
H660 C666 0.930 . S
H661 C670 0.930 . S
H662 C675 0.929 1_556 S
H663 C673 0.929 1_554 S
H664 C668 0.929 . S
H665 C674 0.929 . S
C666 H660 0.930 . S
C666 C667 1.367 . S
C666 C674 1.378 . S
C667 C666 1.367 . S
C667 C675 1.433 . S
C668 H664 0.929 . S
C668 C670 1.378 . S
C668 C672 1.350 . S
C669 C672 1.463 1_554 S
C669 C674 1.350 . S
C669 N677 1.427 1_554 S
C670 H661 0.930 . S
C670 C668 1.378 . S
C670 C671 1.367 . S
C671 C670 1.367 . S
C671 C673 1.433 . S
C672 C668 1.350 . S
C672 C669 1.463 1_556 S
C672 N676 1.427 1_556 S
C673 H663 0.929 1_556 S
C673 C671 1.433 . S
C673 N676 1.384 1_556 S
C674 H665 0.929 . S
C674 C666 1.378 . S
C674 C669 1.350 . S
C675 H662 0.929 1_554 S
C675 C667 1.433 . S
C675 N677 1.384 1_554 S
N676 C672 1.427 1_554 S
N676 C673 1.384 1_554 S
N677 C669 1.427 1_556 S
N677 C675 1.384 1_556 S
H678 C684 0.930 . S
H679 C688 0.930 . S
H680 C693 0.929 . S
H681 C691 0.929 . S
H682 C686 0.929 . S
H683 C692 0.929 . S
C684 H678 0.930 . S
C684 C685 1.367 . S
C684 C692 1.378 . S
C685 C684 1.367 . S
C685 C693 1.433 . S
C686 H682 0.929 . S
C686 C688 1.378 . S
C686 C690 1.350 . S
C687 C690 1.463 . S
C687 C692 1.350 . S
C687 N695 1.427 . S
C688 H679 0.930 . S
C688 C686 1.378 . S
C688 C689 1.367 . S
C689 C688 1.367 . S
C689 C691 1.433 . S
C690 C686 1.350 . S
C690 C687 1.463 . S
C690 N694 1.427 . S
C691 H681 0.929 . S
C691 C689 1.433 . S
C691 N694 1.384 . S
C692 H683 0.929 . S
C692 C684 1.378 . S
C692 C687 1.350 . S
C693 H680 0.929 . S
C693 C685 1.433 . S
C693 N695 1.384 . S
N694 C690 1.427 . S
N694 C691 1.384 . S
N695 C687 1.427 . S
N695 C693 1.384 . S
H696 C702 0.930 . S
H697 C706 0.930 . S
H698 C711 0.929 . S
H699 C709 0.929 . S
H700 C704 0.929 . S
H701 C710 0.929 . S
C702 H696 0.930 . S
C702 C703 1.367 . S
C702 C710 1.378 . S
C703 C702 1.367 . S
C703 C711 1.433 . S
C704 H700 0.929 . S
C704 C706 1.378 . S
C704 C708 1.350 . S
C705 C708 1.463 1_556 S
C705 C710 1.350 . S
C705 N713 1.427 1_556 S
C706 H697 0.930 . S
C706 C704 1.378 . S
C706 C707 1.367 . S
C707 C706 1.367 . S
C707 C709 1.433 . S
C708 C704 1.350 . S
C708 C705 1.463 1_554 S
C708 N712 1.427 1_554 S
C709 H699 0.929 . S
C709 C707 1.433 . S
C709 N712 1.384 1_554 S
C710 H701 0.929 . S
C710 C702 1.378 . S
C710 C705 1.350 . S
C711 H698 0.929 . S
C711 C703 1.433 . S
C711 N713 1.384 1_556 S
N712 C708 1.427 1_556 S
N712 C709 1.384 1_556 S
N713 C705 1.427 1_554 S
N713 C711 1.384 1_554 S
H714 C720 0.930 . S
H715 C724 0.930 . S
H716 C729 0.929 . S
H717 C727 0.929 . S
H718 C722 0.929 . S
H719 C728 0.929 . S
C720 H714 0.930 . S
C720 C721 1.367 . S
C720 C728 1.378 . S
C721 C720 1.367 . S
C721 C729 1.433 . S
C722 H718 0.929 . S
C722 C724 1.378 . S
C722 C726 1.350 . S
C723 C726 1.463 . S
C723 C728 1.350 . S
C723 N731 1.427 . S
C724 H715 0.930 . S
C724 C722 1.378 . S
C724 C725 1.367 . S
C725 C724 1.367 . S
C725 C727 1.433 . S
C726 C722 1.350 . S
C726 C723 1.463 . S
C726 N730 1.427 . S
C727 H717 0.929 . S
C727 C725 1.433 . S
C727 N730 1.384 . S
C728 H719 0.929 . S
C728 C720 1.378 . S
C728 C723 1.350 . S
C729 H716 0.929 . S
C729 C721 1.433 . S
C729 N731 1.384 . S
N730 C726 1.427 . S
N730 C727 1.384 . S
N731 C723 1.427 . S
N731 C729 1.384 . S
H732 C738 0.930 . S
H733 C742 0.930 . S
H734 C747 0.944 . S
H735 C745 0.944 . S
H736 C740 0.929 . S
H737 C746 0.929 . S
C738 H732 0.930 . S
C738 C739 1.367 . S
C738 C746 1.378 . S
C739 C738 1.367 . S
C739 C747 1.408 1_556 S
C740 H736 0.929 . S
C740 C742 1.378 . S
C740 C744 1.350 . S
C741 C744 1.463 1_556 S
C741 C746 1.350 . S
C741 N749 1.427 1_556 S
C742 H733 0.930 . S
C742 C740 1.378 . S
C742 C743 1.367 . S
C743 C742 1.367 . S
C743 C745 1.408 1_554 S
C744 C740 1.350 . S
C744 C741 1.463 1_554 S
C744 N748 1.427 1_554 S
C745 H735 0.944 . S
C745 C743 1.408 1_556 S
C745 N748 1.394 . S
C746 H737 0.929 . S
C746 C738 1.378 . S
C746 C741 1.350 . S
C747 H734 0.944 . S
C747 C739 1.408 1_554 S
C747 N749 1.394 . S
N748 C744 1.427 1_556 S
N748 C745 1.394 . S
N749 C741 1.427 1_554 S
N749 C747 1.394 . S
H750 C756 0.930 . S
H751 C760 0.930 . S
H752 C765 0.929 . S
H753 C763 0.929 . S
H754 C758 0.929 . S
H755 C764 0.929 . S
C756 H750 0.930 . S
C756 C757 1.367 . S
C756 C764 1.378 . S
C757 C756 1.367 . S
C757 C765 1.433 . S
C758 H754 0.929 . S
C758 C760 1.378 . S
C758 C762 1.350 . S
C759 C762 1.463 . S
C759 C764 1.350 . S
C759 N767 1.427 . S
C760 H751 0.930 . S
C760 C758 1.378 . S
C760 C761 1.367 . S
C761 C760 1.367 . S
C761 C763 1.433 . S
C762 C758 1.350 . S
C762 C759 1.463 . S
C762 N766 1.427 . S
C763 H753 0.929 . S
C763 C761 1.433 . S
C763 N766 1.384 . S
C764 H755 0.929 . S
C764 C756 1.378 . S
C764 C759 1.350 . S
C765 H752 0.929 . S
C765 C757 1.433 . S
C765 N767 1.384 . S
N766 C762 1.427 . S
N766 C763 1.384 . S
N767 C759 1.427 . S
N767 C765 1.384 . S
H768 C774 0.930 . S
H769 C778 0.930 . S
H770 C783 0.929 . S
H771 C781 0.929 . S
H772 C776 0.929 . S
H773 C782 0.929 . S
C774 H768 0.930 . S
C774 C775 1.367 . S
C774 C782 1.378 . S
C775 C774 1.367 . S
C775 C783 1.433 . S
C776 H772 0.929 . S
C776 C778 1.378 . S
C776 C780 1.350 . S
C777 C780 1.463 . S
C777 C782 1.350 . S
C777 N785 1.427 . S
C778 H769 0.930 . S
C778 C776 1.378 . S
C778 C779 1.367 . S
C779 C778 1.367 . S
C779 C781 1.433 . S
C780 C776 1.350 . S
C780 C777 1.463 . S
C780 N784 1.427 . S
C781 H771 0.929 . S
C781 C779 1.433 . S
C781 N784 1.384 . S
C782 H773 0.929 . S
C782 C774 1.378 . S
C782 C777 1.350 . S
C783 H770 0.929 . S
C783 C775 1.433 . S
C783 N785 1.384 . S
N784 C780 1.427 . S
N784 C781 1.384 . S
N785 C777 1.427 . S
N785 C783 1.384 . S
H786 C792 0.930 . S
H787 C796 0.930 . S
H788 C801 0.929 . S
H789 C799 0.929 . S
H790 C794 0.929 . S
H791 C800 0.929 . S
C792 H786 0.930 . S
C792 C793 1.367 . S
C792 C800 1.378 . S
C793 C792 1.367 . S
C793 C801 1.433 . S
C794 H790 0.929 . S
C794 C796 1.378 . S
C794 C798 1.350 . S
C795 C798 1.463 1_455 S
C795 C800 1.350 . S
C795 N803 1.427 . S
C796 H787 0.930 . S
C796 C794 1.378 . S
C796 C797 1.367 . S
C797 C796 1.367 . S
C797 C799 1.433 . S
C798 C794 1.350 . S
C798 C795 1.463 1_655 S
C798 N802 1.427 . S
C799 H789 0.929 . S
C799 C797 1.433 . S
C799 N802 1.384 . S
C800 H791 0.929 . S
C800 C792 1.378 . S
C800 C795 1.350 . S
C801 H788 0.929 . S
C801 C793 1.433 . S
C801 N803 1.384 . S
N802 C798 1.427 . S
N802 C799 1.384 . S
N803 C795 1.427 . S
N803 C801 1.384 . S
H804 C810 0.930 . S
H805 C814 0.930 . S
H806 C819 0.929 . S
H807 C817 0.929 . S
H808 C812 0.929 . S
H809 C818 0.929 . S
C810 H804 0.930 . S
C810 C811 1.367 . S
C810 C818 1.378 . S
C811 C810 1.367 . S
C811 C819 1.433 . S
C812 H808 0.929 . S
C812 C814 1.378 . S
C812 C816 1.350 . S
C813 C816 1.463 1_565 S
C813 C818 1.350 . S
C813 N821 1.427 . S
C814 H805 0.930 . S
C814 C812 1.378 . S
C814 C815 1.367 . S
C815 C814 1.367 . S
C815 C817 1.433 . S
C816 C812 1.350 . S
C816 C813 1.463 1_545 S
C816 N820 1.427 . S
C817 H807 0.929 . S
C817 C815 1.433 . S
C817 N820 1.384 . S
C818 H809 0.929 . S
C818 C810 1.378 . S
C818 C813 1.350 . S
C819 H806 0.929 . S
C819 C811 1.433 . S
C819 N821 1.384 . S
N820 C816 1.427 . S
N820 C817 1.384 . S
N821 C813 1.427 . S
N821 C819 1.384 . S
H822 C828 0.930 . S
H823 C832 0.930 . S
H824 C837 0.929 . S
H825 C835 0.929 . S
H826 C830 0.929 . S
H827 C836 0.929 . S
C828 H822 0.930 . S
C828 C829 1.367 . S
C828 C836 1.378 . S
C829 C828 1.367 . S
C829 C837 1.433 . S
C830 H826 0.929 . S
C830 C832 1.378 . S
C830 C834 1.350 . S
C831 C834 1.463 . S
C831 C836 1.350 . S
C831 N839 1.427 . S
C832 H823 0.930 . S
C832 C830 1.378 . S
C832 C833 1.367 . S
C833 C832 1.367 . S
C833 C835 1.433 . S
C834 C830 1.350 . S
C834 C831 1.463 . S
C834 N838 1.427 . S
C835 H825 0.929 . S
C835 C833 1.433 . S
C835 N838 1.384 . S
C836 H827 0.929 . S
C836 C828 1.378 . S
C836 C831 1.350 . S
C837 H824 0.929 . S
C837 C829 1.433 . S
C837 N839 1.384 . S
N838 C834 1.427 . S
N838 C835 1.384 . S
N839 C831 1.427 . S
N839 C837 1.384 . S
H840 C846 0.930 . S
H841 C850 0.930 . S
H842 C855 0.929 . S
H843 C853 0.929 . S
H844 C848 0.929 . S
H845 C854 0.929 . S
C846 H840 0.930 . S
C846 C847 1.367 . S
C846 C854 1.378 . S
C847 C846 1.367 . S
C847 C855 1.433 . S
C848 H844 0.929 . S
C848 C850 1.378 . S
C848 C852 1.350 . S
C849 C852 1.463 1_655 S
C849 C854 1.350 . S
C849 N857 1.427 . S
C850 H841 0.930 . S
C850 C848 1.378 . S
C850 C851 1.367 . S
C851 C850 1.367 . S
C851 C853 1.433 . S
C852 C848 1.350 . S
C852 C849 1.463 1_455 S
C852 N856 1.427 . S
C853 H843 0.929 . S
C853 C851 1.433 . S
C853 N856 1.384 . S
C854 H845 0.929 . S
C854 C846 1.378 . S
C854 C849 1.350 . S
C855 H842 0.929 . S
C855 C847 1.433 . S
C855 N857 1.384 . S
N856 C852 1.427 . S
N856 C853 1.384 . S
N857 C849 1.427 . S
N857 C855 1.384 . S
H858 C864 0.930 . S
H859 C868 0.930 . S
H860 C873 0.929 . S
H861 C871 0.929 . S
H862 C866 0.929 . S
H863 C872 0.929 . S
C864 H858 0.930 . S
C864 C865 1.367 . S
C864 C872 1.378 . S
C865 C864 1.367 . S
C865 C873 1.433 . S
C866 H862 0.929 . S
C866 C868 1.378 . S
C866 C870 1.350 . S
C867 C870 1.463 1_545 S
C867 C872 1.350 . S
C867 N875 1.427 . S
C868 H859 0.930 . S
C868 C866 1.378 . S
C868 C869 1.367 . S
C869 C868 1.367 . S
C869 C871 1.433 . S
C870 C866 1.350 . S
C870 C867 1.463 1_565 S
C870 N874 1.427 . S
C871 H861 0.929 . S
C871 C869 1.433 . S
C871 N874 1.384 . S
C872 H863 0.929 . S
C872 C864 1.378 . S
C872 C867 1.350 . S
C873 H860 0.929 . S
C873 C865 1.433 . S
C873 N875 1.384 . S
N874 C870 1.427 . S
N874 C871 1.384 . S
N875 C867 1.427 . S
N875 C873 1.384 . S
H876 C882 0.930 . S
H877 C886 0.930 . S
H878 C891 0.929 . S
H879 C889 0.929 . S
H880 C884 0.929 . S
H881 C890 0.929 . S
C882 H876 0.930 . S
C882 C883 1.367 . S
C882 C890 1.378 . S
C883 C882 1.367 . S
C883 C891 1.433 . S
C884 H880 0.929 . S
C884 C886 1.378 . S
C884 C888 1.350 . S
C885 C888 1.463 . S
C885 C890 1.350 . S
C885 N893 1.427 . S
C886 H877 0.930 . S
C886 C884 1.378 . S
C886 C887 1.367 . S
C887 C886 1.367 . S
C887 C889 1.433 . S
C888 C884 1.350 . S
C888 C885 1.463 . S
C888 N892 1.427 . S
C889 H879 0.929 . S
C889 C887 1.433 . S
C889 N892 1.384 . S
C890 H881 0.929 . S
C890 C882 1.378 . S
C890 C885 1.350 . S
C891 H878 0.929 . S
C891 C883 1.433 . S
C891 N893 1.384 . S
N892 C888 1.427 . S
N892 C889 1.384 . S
N893 C885 1.427 . S
N893 C891 1.384 . S
H894 C900 0.930 . S
H895 C904 0.930 . S
H896 C909 0.929 . S
H897 C907 0.929 . S
H898 C902 0.929 . S
H899 C908 0.929 . S
C900 H894 0.930 . S
C900 C901 1.367 . S
C900 C908 1.378 . S
C901 C900 1.367 . S
C901 C909 1.433 . S
C902 H898 0.929 . S
C902 C904 1.378 . S
C902 C906 1.350 . S
C903 C906 1.463 1_655 S
C903 C908 1.350 . S
C903 N911 1.427 . S
C904 H895 0.930 . S
C904 C902 1.378 . S
C904 C905 1.367 . S
C905 C904 1.367 . S
C905 C907 1.433 . S
C906 C902 1.350 . S
C906 C903 1.463 1_455 S
C906 N910 1.427 . S
C907 H897 0.929 . S
C907 C905 1.433 . S
C907 N910 1.384 . S
C908 H899 0.929 . S
C908 C900 1.378 . S
C908 C903 1.350 . S
C909 H896 0.929 . S
C909 C901 1.433 . S
C909 N911 1.384 . S
N910 C906 1.427 . S
N910 C907 1.384 . S
N911 C903 1.427 . S
N911 C909 1.384 . S
H912 C918 0.930 . S
H913 C922 0.930 . S
H914 C927 0.929 . S
H915 C925 0.929 . S
H916 C920 0.929 . S
H917 C926 0.929 . S
C918 H912 0.930 . S
C918 C919 1.367 . S
C918 C926 1.378 . S
C919 C918 1.367 . S
C919 C927 1.433 . S
C920 H916 0.929 . S
C920 C922 1.378 . S
C920 C924 1.350 . S
C921 C924 1.463 1_545 S
C921 C926 1.350 . S
C921 N929 1.427 . S
C922 H913 0.930 . S
C922 C920 1.378 . S
C922 C923 1.367 . S
C923 C922 1.367 . S
C923 C925 1.433 . S
C924 C920 1.350 . S
C924 C921 1.463 1_565 S
C924 N928 1.427 . S
C925 H915 0.929 . S
C925 C923 1.433 . S
C925 N928 1.384 . S
C926 H917 0.929 . S
C926 C918 1.378 . S
C926 C921 1.350 . S
C927 H914 0.929 . S
C927 C919 1.433 . S
C927 N929 1.384 . S
N928 C924 1.427 . S
N928 C925 1.384 . S
N929 C921 1.427 . S
N929 C927 1.384 . S
H930 C936 0.930 . S
H931 C940 0.930 . S
H932 C945 0.929 . S
H933 C943 0.929 . S
H934 C938 0.929 . S
H935 C944 0.929 . S
C936 H930 0.930 . S
C936 C937 1.367 . S
C936 C944 1.378 . S
C937 C936 1.367 . S
C937 C945 1.433 . S
C938 H934 0.929 . S
C938 C940 1.378 . S
C938 C942 1.350 . S
C939 C942 1.463 . S
C939 C944 1.350 . S
C939 N947 1.427 . S
C940 H931 0.930 . S
C940 C938 1.378 . S
C940 C941 1.367 . S
C941 C940 1.367 . S
C941 C943 1.433 . S
C942 C938 1.350 . S
C942 C939 1.463 . S
C942 N946 1.427 . S
C943 H933 0.929 . S
C943 C941 1.433 . S
C943 N946 1.384 . S
C944 H935 0.929 . S
C944 C936 1.378 . S
C944 C939 1.350 . S
C945 H932 0.929 . S
C945 C937 1.433 . S
C945 N947 1.384 . S
N946 C942 1.427 . S
N946 C943 1.384 . S
N947 C939 1.427 . S
N947 C945 1.384 . S
H948 C954 0.930 . S
H949 C958 0.930 . S
H950 C963 0.929 . S
H951 C961 0.929 . S
H952 C956 0.929 . S
H953 C962 0.929 . S
C954 H948 0.930 . S
C954 C955 1.367 . S
C954 C962 1.378 . S
C955 C954 1.367 . S
C955 C963 1.433 . S
C956 H952 0.929 . S
C956 C958 1.378 . S
C956 C960 1.350 . S
C957 C960 1.463 1_455 S
C957 C962 1.350 . S
C957 N965 1.427 . S
C958 H949 0.930 . S
C958 C956 1.378 . S
C958 C959 1.367 . S
C959 C958 1.367 . S
C959 C961 1.433 . S
C960 C956 1.350 . S
C960 C957 1.463 1_655 S
C960 N964 1.427 . S
C961 H951 0.929 . S
C961 C959 1.433 . S
C961 N964 1.384 . S
C962 H953 0.929 . S
C962 C954 1.378 . S
C962 C957 1.350 . S
C963 H950 0.929 . S
C963 C955 1.433 . S
C963 N965 1.384 . S
N964 C960 1.427 . S
N964 C961 1.384 . S
N965 C957 1.427 . S
N965 C963 1.384 . S
H966 C972 0.930 . S
H967 C976 0.930 . S
H968 C981 0.929 . S
H969 C979 0.929 . S
H970 C974 0.929 . S
H971 C980 0.929 . S
C972 H966 0.930 . S
C972 C973 1.367 . S
C972 C980 1.378 . S
C973 C972 1.367 . S
C973 C981 1.433 . S
C974 H970 0.929 . S
C974 C976 1.378 . S
C974 C978 1.350 . S
C975 C978 1.463 1_565 S
C975 C980 1.350 . S
C975 N983 1.427 . S
C976 H967 0.930 . S
C976 C974 1.378 . S
C976 C977 1.367 . S
C977 C976 1.367 . S
C977 C979 1.433 . S
C978 C974 1.350 . S
C978 C975 1.463 1_545 S
C978 N982 1.427 . S
C979 H969 0.929 . S
C979 C977 1.433 . S
C979 N982 1.384 . S
C980 H971 0.929 . S
C980 C972 1.378 . S
C980 C975 1.350 . S
C981 H968 0.929 . S
C981 C973 1.433 . S
C981 N983 1.384 . S
N982 C978 1.427 . S
N982 C979 1.384 . S
N983 C975 1.427 . S
N983 C981 1.384 . S
H984 C990 0.930 1_554 S
H985 C994 0.930 1_556 S
H986 C999 0.929 . S
H987 C997 0.929 . S
H988 C992 0.929 . S
H989 C998 0.929 . S
C990 H984 0.930 1_556 S
C990 C991 1.367 . S
C990 C998 1.378 1_556 S
C991 C990 1.367 . S
C991 C999 1.433 . S
C992 H988 0.929 . S
C992 C994 1.378 1_556 S
C992 C996 1.350 1_556 S
C993 C996 1.463 1_556 S
C993 C998 1.350 1_556 S
C993 N1001 1.427 . S
C994 H985 0.930 1_554 S
C994 C992 1.378 1_554 S
C994 C995 1.367 . S
C995 C994 1.367 . S
C995 C997 1.433 . S
C996 C992 1.350 1_554 S
C996 C993 1.463 1_554 S
C996 N1000 1.427 . S
C997 H987 0.929 . S
C997 C995 1.433 . S
C997 N1000 1.384 . S
C998 H989 0.929 . S
C998 C990 1.378 1_554 S
C998 C993 1.350 1_554 S
C999 H986 0.929 . S
C999 C991 1.433 . S
C999 N1001 1.384 . S
N1000 C996 1.427 . S
N1000 C997 1.384 . S
N1001 C993 1.427 . S
N1001 C999 1.384 . S
H1002 C1008 0.930 . S
H1003 C1012 0.930 . S
H1004 C1017 0.929 . S
H1005 C1015 0.929 . S
H1006 C1010 0.929 . S
H1007 C1016 0.929 . S
C1008 H1002 0.930 . S
C1008 C1009 1.367 . S
C1008 C1016 1.378 . S
C1009 C1008 1.367 . S
C1009 C1017 1.433 . S
C1010 H1006 0.929 . S
C1010 C1012 1.378 . S
C1010 C1014 1.350 . S
C1011 C1014 1.463 . S
C1011 C1016 1.350 . S
C1011 N1019 1.427 . S
C1012 H1003 0.930 . S
C1012 C1010 1.378 . S
C1012 C1013 1.367 . S
C1013 C1012 1.367 . S
C1013 C1015 1.433 . S
C1014 C1010 1.350 . S
C1014 C1011 1.463 . S
C1014 N1018 1.427 . S
C1015 H1005 0.929 . S
C1015 C1013 1.433 . S
C1015 N1018 1.384 . S
C1016 H1007 0.929 . S
C1016 C1008 1.378 . S
C1016 C1011 1.350 . S
C1017 H1004 0.929 . S
C1017 C1009 1.433 . S
C1017 N1019 1.384 . S
N1018 C1014 1.427 . S
N1018 C1015 1.384 . S
N1019 C1011 1.427 . S
N1019 C1017 1.384 . S
H1020 C1026 0.930 . S
H1021 C1030 0.930 . S
H1022 C1035 0.929 1_554 S
H1023 C1033 0.929 1_556 S
H1024 C1028 0.929 . S
H1025 C1034 0.929 . S
C1026 H1020 0.930 . S
C1026 C1027 1.367 . S
C1026 C1034 1.378 . S
C1027 C1026 1.367 . S
C1027 C1035 1.433 . S
C1028 H1024 0.929 . S
C1028 C1030 1.378 . S
C1028 C1032 1.350 . S
C1029 C1032 1.463 1_556 S
C1029 C1034 1.350 . S
C1029 N1037 1.427 1_556 S
C1030 H1021 0.930 . S
C1030 C1028 1.378 . S
C1030 C1031 1.367 . S
C1031 C1030 1.367 . S
C1031 C1033 1.433 . S
C1032 C1028 1.350 . S
C1032 C1029 1.463 1_554 S
C1032 N1036 1.427 1_554 S
C1033 H1023 0.929 1_554 S
C1033 C1031 1.433 . S
C1033 N1036 1.384 1_554 S
C1034 H1025 0.929 . S
C1034 C1026 1.378 . S
C1034 C1029 1.350 . S
C1035 H1022 0.929 1_556 S
C1035 C1027 1.433 . S
C1035 N1037 1.384 1_556 S
N1036 C1032 1.427 1_556 S
N1036 C1033 1.384 1_556 S
N1037 C1029 1.427 1_554 S
N1037 C1035 1.384 1_554 S
H1038 C1044 0.930 . S
H1039 C1048 0.930 . S
H1040 C1053 0.929 . S
H1041 C1051 0.929 . S
H1042 C1046 0.929 . S
H1043 C1052 0.929 . S
C1044 H1038 0.930 . S
C1044 C1045 1.367 . S
C1044 C1052 1.378 . S
C1045 C1044 1.367 . S
C1045 C1053 1.433 . S
C1046 H1042 0.929 . S
C1046 C1048 1.378 . S
C1046 C1050 1.350 . S
C1047 C1050 1.463 . S
C1047 C1052 1.350 . S
C1047 N1055 1.427 . S
C1048 H1039 0.930 . S
C1048 C1046 1.378 . S
C1048 C1049 1.367 . S
C1049 C1048 1.367 . S
C1049 C1051 1.433 . S
C1050 C1046 1.350 . S
C1050 C1047 1.463 . S
C1050 N1054 1.427 . S
C1051 H1041 0.929 . S
C1051 C1049 1.433 . S
C1051 N1054 1.384 . S
C1052 H1043 0.929 . S
C1052 C1044 1.378 . S
C1052 C1047 1.350 . S
C1053 H1040 0.929 . S
C1053 C1045 1.433 . S
C1053 N1055 1.384 . S
N1054 C1050 1.427 . S
N1054 C1051 1.384 . S
N1055 C1047 1.427 . S
N1055 C1053 1.384 . S
H1056 C1062 0.930 . S
H1057 C1066 0.930 . S
H1058 C1071 0.929 1_554 S
H1059 C1069 0.929 1_556 S
H1060 C1064 0.929 . S
H1061 C1070 0.929 . S
C1062 H1056 0.930 . S
C1062 C1063 1.367 . S
C1062 C1070 1.378 . S
C1063 C1062 1.367 . S
C1063 C1071 1.433 . S
C1064 H1060 0.929 . S
C1064 C1066 1.378 . S
C1064 C1068 1.350 . S
C1065 C1068 1.463 1_556 S
C1065 C1070 1.350 . S
C1065 N1073 1.427 1_556 S
C1066 H1057 0.930 . S
C1066 C1064 1.378 . S
C1066 C1067 1.367 . S
C1067 C1066 1.367 . S
C1067 C1069 1.433 . S
C1068 C1064 1.350 . S
C1068 C1065 1.463 1_554 S
C1068 N1072 1.427 1_554 S
C1069 H1059 0.929 1_554 S
C1069 C1067 1.433 . S
C1069 N1072 1.384 1_554 S
C1070 H1061 0.929 . S
C1070 C1062 1.378 . S
C1070 C1065 1.350 . S
C1071 H1058 0.929 1_556 S
C1071 C1063 1.433 . S
C1071 N1073 1.384 1_556 S
N1072 C1068 1.427 1_556 S
N1072 C1069 1.384 1_556 S
N1073 C1065 1.427 1_554 S
N1073 C1071 1.384 1_554 S
H1074 C1080 0.930 . S
H1075 C1084 0.930 . S
H1076 C1089 0.929 . S
H1077 C1087 0.929 . S
H1078 C1082 0.929 . S
H1079 C1088 0.929 . S
C1080 H1074 0.930 . S
C1080 C1081 1.367 . S
C1080 C1088 1.378 . S
C1081 C1080 1.367 . S
C1081 C1089 1.433 . S
C1082 H1078 0.929 . S
C1082 C1084 1.378 . S
C1082 C1086 1.350 . S
C1083 C1086 1.463 . S
C1083 C1088 1.350 . S
C1083 N1091 1.427 . S
C1084 H1075 0.930 . S
C1084 C1082 1.378 . S
C1084 C1085 1.367 . S
C1085 C1084 1.367 . S
C1085 C1087 1.433 . S
C1086 C1082 1.350 . S
C1086 C1083 1.463 . S
C1086 N1090 1.427 . S
C1087 H1077 0.929 . S
C1087 C1085 1.433 . S
C1087 N1090 1.384 . S
C1088 H1079 0.929 . S
C1088 C1080 1.378 . S
C1088 C1083 1.350 . S
C1089 H1076 0.929 . S
C1089 C1081 1.433 . S
C1089 N1091 1.384 . S
N1090 C1086 1.427 . S
N1090 C1087 1.384 . S
N1091 C1083 1.427 . S
N1091 C1089 1.384 . S
H1092 C1098 0.930 . S
H1093 C1102 0.930 . S
H1094 C1107 0.929 . S
H1095 C1105 0.929 . S
H1096 C1100 0.929 . S
H1097 C1106 0.929 . S
C1098 H1092 0.930 . S
C1098 C1099 1.367 . S
C1098 C1106 1.378 . S
C1099 C1098 1.367 . S
C1099 C1107 1.433 . S
C1100 H1096 0.929 . S
C1100 C1102 1.378 . S
C1100 C1104 1.350 . S
C1101 C1104 1.463 1_554 S
C1101 C1106 1.350 . S
C1101 N1109 1.427 1_554 S
C1102 H1093 0.930 . S
C1102 C1100 1.378 . S
C1102 C1103 1.367 . S
C1103 C1102 1.367 . S
C1103 C1105 1.433 . S
C1104 C1100 1.350 . S
C1104 C1101 1.463 1_556 S
C1104 N1108 1.427 1_556 S
C1105 H1095 0.929 . S
C1105 C1103 1.433 . S
C1105 N1108 1.384 1_556 S
C1106 H1097 0.929 . S
C1106 C1098 1.378 . S
C1106 C1101 1.350 . S
C1107 H1094 0.929 . S
C1107 C1099 1.433 . S
C1107 N1109 1.384 1_554 S
N1108 C1104 1.427 1_554 S
N1108 C1105 1.384 1_554 S
N1109 C1101 1.427 1_556 S
N1109 C1107 1.384 1_556 S
H1110 C1116 0.930 . S
H1111 C1120 0.930 . S
H1112 C1125 0.929 . S
H1113 C1123 0.929 . S
H1114 C1118 0.929 . S
H1115 C1124 0.929 . S
C1116 H1110 0.930 . S
C1116 C1117 1.367 . S
C1116 C1124 1.378 . S
C1117 C1116 1.367 . S
C1117 C1125 1.433 . S
C1118 H1114 0.929 . S
C1118 C1120 1.378 . S
C1118 C1122 1.350 . S
C1119 C1122 1.463 . S
C1119 C1124 1.350 . S
C1119 N1127 1.427 . S
C1120 H1111 0.930 . S
C1120 C1118 1.378 . S
C1120 C1121 1.367 . S
C1121 C1120 1.367 . S
C1121 C1123 1.433 . S
C1122 C1118 1.350 . S
C1122 C1119 1.463 . S
C1122 N1126 1.427 . S
C1123 H1113 0.929 . S
C1123 C1121 1.433 . S
C1123 N1126 1.384 . S
C1124 H1115 0.929 . S
C1124 C1116 1.378 . S
C1124 C1119 1.350 . S
C1125 H1112 0.929 . S
C1125 C1117 1.433 . S
C1125 N1127 1.384 . S
N1126 C1122 1.427 . S
N1126 C1123 1.384 . S
N1127 C1119 1.427 . S
N1127 C1125 1.384 . S
H1128 C1134 0.930 . S
H1129 C1138 0.930 . S
H1130 C1143 0.929 1_556 S
H1131 C1141 0.929 1_554 S
H1132 C1136 0.929 . S
H1133 C1142 0.929 . S
C1134 H1128 0.930 . S
C1134 C1135 1.367 . S
C1134 C1142 1.378 . S
C1135 C1134 1.367 . S
C1135 C1143 1.433 . S
C1136 H1132 0.929 . S
C1136 C1138 1.378 . S
C1136 C1140 1.350 . S
C1137 C1140 1.463 1_554 S
C1137 C1142 1.350 . S
C1137 N1145 1.427 1_554 S
C1138 H1129 0.930 . S
C1138 C1136 1.378 . S
C1138 C1139 1.367 . S
C1139 C1138 1.367 . S
C1139 C1141 1.433 . S
C1140 C1136 1.350 . S
C1140 C1137 1.463 1_556 S
C1140 N1144 1.427 1_556 S
C1141 H1131 0.929 1_556 S
C1141 C1139 1.433 . S
C1141 N1144 1.384 1_556 S
C1142 H1133 0.929 . S
C1142 C1134 1.378 . S
C1142 C1137 1.350 . S
C1143 H1130 0.929 1_554 S
C1143 C1135 1.433 . S
C1143 N1145 1.384 1_554 S
N1144 C1140 1.427 1_554 S
N1144 C1141 1.384 1_554 S
N1145 C1137 1.427 1_556 S
N1145 C1143 1.384 1_556 S
H1146 C1152 0.930 . S
H1147 C1156 0.930 . S
H1148 C1161 0.929 . S
H1149 C1159 0.929 . S
H1150 C1154 0.929 . S
H1151 C1160 0.929 . S
C1152 H1146 0.930 . S
C1152 C1153 1.367 . S
C1152 C1160 1.378 . S
C1153 C1152 1.367 . S
C1153 C1161 1.433 . S
C1154 H1150 0.929 . S
C1154 C1156 1.378 . S
C1154 C1158 1.350 . S
C1155 C1158 1.463 . S
C1155 C1160 1.350 . S
C1155 N1163 1.427 . S
C1156 H1147 0.930 . S
C1156 C1154 1.378 . S
C1156 C1157 1.367 . S
C1157 C1156 1.367 . S
C1157 C1159 1.433 . S
C1158 C1154 1.350 . S
C1158 C1155 1.463 . S
C1158 N1162 1.427 . S
C1159 H1149 0.929 . S
C1159 C1157 1.433 . S
C1159 N1162 1.384 . S
C1160 H1151 0.929 . S
C1160 C1152 1.378 . S
C1160 C1155 1.350 . S
C1161 H1148 0.929 . S
C1161 C1153 1.433 . S
C1161 N1163 1.384 . S
N1162 C1158 1.427 . S
N1162 C1159 1.384 . S
N1163 C1155 1.427 . S
N1163 C1161 1.384 . S
H1164 C1170 0.930 . S
H1165 C1174 0.930 . S
H1166 C1179 0.929 1_554 S
H1167 C1177 0.929 1_556 S
H1168 C1172 0.929 . S
H1169 C1178 0.929 . S
C1170 H1164 0.930 . S
C1170 C1171 1.367 . S
C1170 C1178 1.378 . S
C1171 C1170 1.367 . S
C1171 C1179 1.433 . S
C1172 H1168 0.929 . S
C1172 C1174 1.378 . S
C1172 C1176 1.350 . S
C1173 C1176 1.463 1_556 S
C1173 C1178 1.350 . S
C1173 N1181 1.427 1_556 S
C1174 H1165 0.930 . S
C1174 C1172 1.378 . S
C1174 C1175 1.367 . S
C1175 C1174 1.367 . S
C1175 C1177 1.433 . S
C1176 C1172 1.350 . S
C1176 C1173 1.463 1_554 S
C1176 N1180 1.427 1_554 S
C1177 H1167 0.929 1_554 S
C1177 C1175 1.433 . S
C1177 N1180 1.384 1_554 S
C1178 H1169 0.929 . S
C1178 C1170 1.378 . S
C1178 C1173 1.350 . S
C1179 H1166 0.929 1_556 S
C1179 C1171 1.433 . S
C1179 N1181 1.384 1_556 S
N1180 C1176 1.427 1_556 S
N1180 C1177 1.384 1_556 S
N1181 C1173 1.427 1_554 S
N1181 C1179 1.384 1_554 S
H1182 C1188 0.930 . S
H1183 C1192 0.930 . S
H1184 C1197 0.929 . S
H1185 C1195 0.929 . S
H1186 C1190 0.929 . S
H1187 C1196 0.929 . S
C1188 H1182 0.930 . S
C1188 C1189 1.367 . S
C1188 C1196 1.378 . S
C1189 C1188 1.367 . S
C1189 C1197 1.433 . S
C1190 H1186 0.929 . S
C1190 C1192 1.378 . S
C1190 C1194 1.350 . S
C1191 C1194 1.463 . S
C1191 C1196 1.350 . S
C1191 N1199 1.427 . S
C1192 H1183 0.930 . S
C1192 C1190 1.378 . S
C1192 C1193 1.367 . S
C1193 C1192 1.367 . S
C1193 C1195 1.433 . S
C1194 C1190 1.350 . S
C1194 C1191 1.463 . S
C1194 N1198 1.427 . S
C1195 H1185 0.929 . S
C1195 C1193 1.433 . S
C1195 N1198 1.384 . S
C1196 H1187 0.929 . S
C1196 C1188 1.378 . S
C1196 C1191 1.350 . S
C1197 H1184 0.929 . S
C1197 C1189 1.433 . S
C1197 N1199 1.384 . S
N1198 C1194 1.427 . S
N1198 C1195 1.384 . S
N1199 C1191 1.427 . S
N1199 C1197 1.384 . S
C343 C7 1.495 . S
C347 C217 1.501 . S
C361 C21 1.502 . S
C365 C231 1.494 . S
C379 C245 1.498 . S
C383 C35 1.498 . S
C397 C175 1.496 . S
C401 C49 1.501 . S
C415 C189 1.502 . S
C419 C63 1.494 . S
C433 C203 1.497 . S
C437 C77 1.499 . S
C451 C301 1.501 . S
C455 C91 1.496 . S
C469 C105 1.497 . S
C473 C315 1.499 . S
C487 C329 1.494 . S
C491 C119 1.502 . S
C505 C133 1.495 . S
C509 C259 1.501 . S
C523 C273 1.502 . S
C527 C147 1.494 . S
C541 C161 1.501 . S
C545 C287 1.495 . S
C559 C151 1.215 . S
C563 C11 1.210 . S
C577 C165 1.217 . S
C581 C25 1.214 . S
C595 C39 1.209 . S
C599 C95 1.215 . S
C613 C53 1.213 . S
C617 C109 1.217 . S
C631 C123 1.211 . S
C635 C67 1.216 . S
C649 C81 1.212 . S
C653 C137 1.216 . S
C667 C319 1.207 . S
C671 C179 1.211 . S
C685 C193 1.217 . S
C689 C333 1.216 . S
C703 C207 1.212 . S
C707 C263 1.207 . S
C721 C277 1.217 . S
C725 C221 1.213 . S
C739 C235 1.209 . S
C743 C291 1.207 . S
C757 C249 1.208 . S
C761 C305 1.207 . S
C775 C8 1.077 . S
C779 C260 1.088 . S
C793 C274 1.077 . S
C797 C22 1.089 . S
C811 C36 1.076 . S
C815 C288 1.089 . S
C829 C50 1.085 . S
C833 C302 1.081 . S
C847 C316 1.076 . S
C851 C64 1.090 . S
C865 C78 1.078 . S
C869 C330 1.088 . S
C883 C92 1.094 . S
C887 C176 1.072 . S
C901 C106 1.089 . S
C905 C190 1.076 . S
C919 C204 1.072 . S
C923 C120 1.093 . S
C937 C218 1.074 . S
C941 C134 1.091 . S
C955 C148 1.087 . S
C959 C232 1.078 . S
C973 C246 1.076 . S
C977 C162 1.090 . S
C991 C97 1.475 . S
C995 C13 1.478 . S
C1009 C27 1.461 . S
C1013 C111 1.473 . S
C1027 C125 1.466 . S
C1031 C41 1.459 . S
C1045 C139 1.459 . S
C1049 C55 1.467 . S
C1063 C153 1.459 . S
C1067 C69 1.467 . S
C1081 C83 1.478 . S
C1085 C167 1.466 . S
C1099 C265 1.459 . S
C1103 C181 1.469 . S
C1117 C195 1.460 . S
C1121 C279 1.463 . S
C1135 C293 1.464 . S
C1139 C209 1.459 . S
C1153 C307 1.460 . S
C1157 C223 1.462 . S
C1171 C237 1.465 . S
C1175 C321 1.459 . S
C1189 C251 1.459 . S
C1193 C335 1.467 . S
