# Generated by pormake.
# Topology xfw, (5)-cn, num edge types: 1
# Building blocks:
#     Node 0, Type 0, BuildingBlock: BEQFEK_clean_sbu_0, # of connection points: 5
#     Node 1, Type 0, BuildingBlock: BEQFEK_clean_sbu_0, # of connection points: 5
#     Node 2, Type 0, BuildingBlock: BEQFEK_clean_sbu_0, # of connection points: 5
#     Node 3, Type 0, BuildingBlock: BEQFEK_clean_sbu_0, # of connection points: 5
#     Node 4, Type 0, BuildingBlock: BEQFEK_clean_sbu_0, # of connection points: 5
#     Node 5, Type 0, BuildingBlock: BEQFEK_clean_sbu_0, # of connection points: 5
#     Node 6, Type 0, BuildingBlock: BEQFEK_clean_sbu_0, # of connection points: 5
#     Node 7, Type 0, BuildingBlock: BEQFEK_clean_sbu_0, # of connection points: 5
#     Edge 8, Type (0, 0), BuildingBlock: OJICUG_clean_linker_0, # of connection points: 2
#     Edge 9, Type (0, 0), BuildingBlock: OJICUG_clean_linker_0, # of connection points: 2
#     Edge 10, Type (0, 0), BuildingBlock: OJICUG_clean_linker_0, # of connection points: 2
#     Edge 11, Type (0, 0), BuildingBlock: OJICUG_clean_linker_0, # of connection points: 2
#     Edge 12, Type (0, 0), BuildingBlock: OJICUG_clean_linker_0, # of connection points: 2
#     Edge 13, Type (0, 0), BuildingBlock: OJICUG_clean_linker_0, # of connection points: 2
#     Edge 14, Type (0, 0), BuildingBlock: OJICUG_clean_linker_0, # of connection points: 2
#     Edge 15, Type (0, 0), BuildingBlock: OJICUG_clean_linker_0, # of connection points: 2
#     Edge 16, Type (0, 0), BuildingBlock: OJICUG_clean_linker_0, # of connection points: 2
#     Edge 17, Type (0, 0), BuildingBlock: OJICUG_clean_linker_0, # of connection points: 2
#     Edge 18, Type (0, 0), BuildingBlock: OJICUG_clean_linker_0, # of connection points: 2
#     Edge 19, Type (0, 0), BuildingBlock: OJICUG_clean_linker_0, # of connection points: 2
#     Edge 20, Type (0, 0), BuildingBlock: OJICUG_clean_linker_0, # of connection points: 2
#     Edge 21, Type (0, 0), BuildingBlock: OJICUG_clean_linker_0, # of connection points: 2
#     Edge 22, Type (0, 0), BuildingBlock: OJICUG_clean_linker_0, # of connection points: 2
#     Edge 23, Type (0, 0), BuildingBlock: OJICUG_clean_linker_0, # of connection points: 2
#     Edge 24, Type (0, 0), BuildingBlock: OJICUG_clean_linker_0, # of connection points: 2
#     Edge 25, Type (0, 0), BuildingBlock: OJICUG_clean_linker_0, # of connection points: 2
#     Edge 26, Type (0, 0), BuildingBlock: OJICUG_clean_linker_0, # of connection points: 2
#     Edge 27, Type (0, 0), BuildingBlock: OJICUG_clean_linker_0, # of connection points: 2
# Relax obj value: 0.335
# Max RMSD: 0.196
# Mean RMSD: 0.196
data_MOF--net-xfw--node1-BEQFEK_clean_sbu_0--edge1-OJICUG_clean_linker_0
_symmetry_space_group_name_H-M    P1
_symmetry_Int_Tables_number       1
_symmetry_cell_setting            triclinic
loop_
_symmetry_equiv_pos_as_xyz
'x, y, z'
_cell_length_a     22.712656
_cell_length_b     22.383531
_cell_length_c     47.240617
_cell_angle_alpha  90.088455
_cell_angle_beta   89.943994
_cell_angle_gamma 90.155785
loop_
_atom_site_label
_atom_site_type_symbol
_atom_site_fract_x
_atom_site_fract_y
_atom_site_fract_z
_atom_type_partial_charge
Co0 Co 0.201 -0.00723 0.59495 0.0
Co1 Co 0.20011 0.10076 0.63815 0.0
C2 C 0.10055 0.00994 0.63293 0.0
O3 O 0.12686 0.97705 0.61499 0.0
O4 O 0.1237 0.05791 0.64227 0.0
C5 C 0.19966 0.87525 0.56949 0.0
O6 O 0.1772 0.85854 0.59388 0.0
C7 C 0.19304 0.14091 0.69717 0.0
C8 C 0.23816 0.22839 0.69623 0.0
C9 C 0.21228 0.18744 0.71445 0.0
N10 N 0.20836 0.15318 0.67024 0.0
N11 N 0.23471 0.20588 0.6698 0.0
C12 C 0.15676 0.08762 0.70534 0.0
H13 H 0.11626 0.08656 0.69234 0.0
H14 H 0.18194 0.0462 0.70093 0.0
H15 H 0.14253 0.08871 0.72773 0.0
C16 C 0.31413 0.96978 0.62218 0.0
N17 N 0.26333 3e-05 0.6205 0.0
N18 N 0.26551 0.04679 0.63737 0.0
C19 C 0.31902 0.04856 0.64979 0.0
C20 C 0.35169 -0.00018 0.64045 0.0
C21 C 0.32738 0.9147 0.60535 0.0
H22 H 0.29119 0.88201 0.60819 0.0
H23 H 0.36914 0.89353 0.61215 0.0
H24 H 0.33014 0.92628 0.58255 0.0
O25 O 0.19219 0.06763 0.57307 0.0
O26 O 0.19343 0.14626 0.60196 0.0
H27 H 0.38878 0.09724 0.67128 0.0
H28 H 0.31678 0.10175 0.68733 0.0
C29 C 0.34094 0.10029 0.66693 0.0
H30 H 0.33209 0.14242 0.65541 0.0
H31 H 0.25152 0.22588 0.65155 0.0
O32 O 0.21465 0.9295 0.56616 0.0
C33 C 0.18978 0.12385 0.57715 0.0
Co34 Co -0.00372 0.74742 0.45793 0.0
Co35 Co 0.09187 0.76134 0.40958 0.0
C36 C 0.01043 0.85927 0.42246 0.0
O37 O -0.01153 0.82884 0.44264 0.0
O38 O 0.05006 0.83833 0.40625 0.0
C39 C 0.87992 0.75513 0.48156 0.0
O40 O 0.86722 0.77738 0.45658 0.0
C41 C 0.14236 0.77743 0.35278 0.0
C42 C 0.21842 0.71612 0.35357 0.0
C43 C 0.18712 0.75418 0.33613 0.0
N44 N 0.14681 0.75404 0.3789 0.0
N45 N 0.193 0.71821 0.37935 0.0
C46 C 0.0921 0.81553 0.34326 0.0
H47 H 0.09949 0.86199 0.3507 0.0
H48 H 0.05046 0.79915 0.35284 0.0
H49 H 0.08791 0.81568 0.31986 0.0
C50 C 0.96975 0.63826 0.42642 0.0
N51 N -0.00148 0.69038 0.4291 0.0
N52 N 0.03711 0.69605 0.40847 0.0
C53 C 0.03242 0.64808 0.39129 0.0
C54 C -0.01007 0.6097 0.40218 0.0
C55 C 0.93067 0.61295 0.44902 0.0
H56 H 0.88485 0.62815 0.44534 0.0
H57 H 0.93139 0.56343 0.44909 0.0
H58 H 0.94498 0.62905 0.47011 0.0
O59 O 0.06923 0.74545 0.47904 0.0
O60 O 0.13723 0.76508 0.44644 0.0
H61 H 0.11418 0.62766 0.37109 0.0
H62 H 0.05019 0.6016 0.352 0.0
C63 C 0.06827 0.63853 0.36509 0.0
H64 H 0.0685 0.67983 0.35224 0.0
H65 H 0.20559 0.69312 0.39693 0.0
O66 O 0.93168 0.73587 0.48598 0.0
C67 C 0.12226 0.75632 0.4722 0.0
Co68 Co 0.75418 0.977 0.59711 0.0
Co69 Co 0.75521 0.86899 0.64006 0.0
C70 C 0.8551 0.95954 0.63447 0.0
O71 O 0.82845 -0.00729 0.61684 0.0
O72 O 0.83203 0.91153 0.64378 0.0
C73 C 0.75629 0.09373 0.57112 0.0
O74 O 0.77942 0.11098 0.59529 0.0
C75 C 0.76255 0.82892 0.69908 0.0
C76 C 0.71713 0.74161 0.6981 0.0
C77 C 0.74324 0.78245 0.71634 0.0
N78 N 0.74707 0.81673 0.67216 0.0
N79 N 0.72051 0.76413 0.6717 0.0
C80 C 0.79893 0.88215 0.7073 0.0
H81 H 0.83872 0.88406 0.6938 0.0
H82 H 0.77322 0.92353 0.70369 0.0
H83 H 0.81432 0.88022 0.72949 0.0
C84 C 0.64113 -0.00014 0.62425 0.0
N85 N 0.69212 0.96993 0.62277 0.0
N86 N 0.68979 0.92303 0.63947 0.0
C87 C 0.63592 0.92081 0.65156 0.0
C88 C 0.60318 0.96938 0.64215 0.0
C89 C 0.62783 0.05459 0.60727 0.0
H90 H 0.66408 0.08732 0.60989 0.0
H91 H 0.58608 0.07586 0.61411 0.0
H92 H 0.62485 0.04251 0.58453 0.0
O93 O 0.76273 0.90218 0.57522 0.0
O94 O 0.76134 0.82329 0.60381 0.0
H95 H 0.5659 0.87187 0.6727 0.0
H96 H 0.63786 0.86653 0.68867 0.0
C97 C 0.61373 0.8687 0.6683 0.0
H98 H 0.62247 0.82687 0.65644 0.0
H99 H 0.70355 0.74419 0.65345 0.0
O100 O 0.74041 0.03963 0.56823 0.0
C101 C 0.76494 0.84592 0.57908 0.0
Co102 Co 0.96031 0.22136 0.45663 0.0
Co103 Co 0.86283 0.20107 0.40976 0.0
C104 C 0.95139 0.10823 0.42235 0.0
O105 O 0.97321 0.14063 0.44183 0.0
O106 O 0.90932 0.12645 0.40689 0.0
C107 C 0.0764 0.21762 0.47995 0.0
O108 O 0.08884 0.19462 0.45505 0.0
C109 C 0.82215 0.19012 0.35145 0.0
C110 C 0.72753 0.21181 0.35438 0.0
C111 C 0.77164 0.19709 0.33534 0.0
N112 N 0.80883 0.2011 0.37868 0.0
N113 N 0.75208 0.21363 0.38036 0.0
C114 C 0.88178 0.17058 0.34161 0.0
H115 H 0.8838 0.12109 0.34239 0.0
H116 H 0.91637 0.18856 0.35588 0.0
H117 H 0.89057 0.1847 0.31954 0.0
C118 C -0.02049 0.33076 0.42442 0.0
N119 N 0.95359 0.27727 0.4275 0.0
N120 N 0.91252 0.27038 0.40809 0.0
C121 C 0.9115 0.31978 0.39174 0.0
C122 C 0.95409 0.35943 0.40147 0.0
C123 C 0.02108 0.35675 0.44579 0.0
H124 H 0.0066 0.34437 0.46743 0.0
H125 H 0.06557 0.33774 0.44231 0.0
H126 H 0.02367 0.40611 0.44444 0.0
O127 O 0.88741 0.21914 0.47817 0.0
O128 O 0.81795 0.19706 0.44662 0.0
H129 H 0.8235 0.32218 0.37541 0.0
H130 H 0.87306 0.37534 0.35892 0.0
C131 C 0.86919 0.32983 0.36793 0.0
H132 H 0.87876 0.2977 0.35072 0.0
H133 H 0.73026 0.22412 0.39916 0.0
O134 O 0.02469 0.23716 0.48435 0.0
C135 C 0.83424 0.20681 0.47211 0.0
Co136 Co 0.75211 -0.00888 0.09635 0.0
Co137 Co 0.7537 0.10137 0.13777 0.0
C138 C 0.85236 0.00981 0.13417 0.0
O139 O 0.82593 0.97613 0.11657 0.0
O140 O 0.82953 0.0583 0.14294 0.0
C141 C 0.75409 0.87308 0.07134 0.0
O142 O 0.77726 0.85697 0.09563 0.0
C143 C 0.74644 0.13743 0.19666 0.0
C144 C 0.75325 0.23573 0.19501 0.0
C145 C 0.7492 0.18799 0.21362 0.0
N146 N 0.74827 0.15441 0.1694 0.0
N147 N 0.75192 0.21331 0.1685 0.0
C148 C 0.74791 0.07361 0.20607 0.0
H149 H 0.76007 0.04374 0.18826 0.0
H150 H 0.70365 0.06032 0.21377 0.0
H151 H 0.77953 0.06811 0.22377 0.0
C152 C 0.63826 0.97081 0.12339 0.0
N153 N 0.68958 0.00032 0.12165 0.0
N154 N 0.68725 0.04877 0.13738 0.0
C155 C 0.63297 0.05274 0.14888 0.0
C156 C 0.60015 0.00332 0.14037 0.0
C157 C 0.6252 0.91415 0.10771 0.0
H158 H 0.66205 0.88246 0.11065 0.0
H159 H 0.584 0.89283 0.11535 0.0
H160 H 0.62121 0.9239 0.08477 0.0
O161 O 0.76179 0.06468 0.07355 0.0
O162 O 0.76134 0.14516 0.10124 0.0
H163 H 0.56249 0.11303 0.16003 0.0
H164 H 0.61694 0.10142 0.187 0.0
C165 C 0.61028 0.10695 0.1639 0.0
H166 H 0.63437 0.14741 0.15684 0.0
H167 H 0.75538 0.23802 0.14985 0.0
O168 O 0.73805 0.92694 0.06806 0.0
C169 C 0.76474 0.12113 0.07678 0.0
Co170 Co -0.00508 0.21991 0.95561 0.0
Co171 Co 0.09266 0.20476 0.90849 0.0
C172 C 0.00946 0.10723 0.9208 0.0
O173 O -0.01306 0.13829 0.94059 0.0
O174 O 0.05005 0.12762 0.90492 0.0
C175 C 0.8784 0.21108 0.97859 0.0
O176 O 0.86692 0.18677 0.95386 0.0
C177 C 0.14432 0.18893 0.85198 0.0
C178 C 0.22236 0.24796 0.85378 0.0
C179 C 0.19021 0.2115 0.83581 0.0
N180 N 0.14892 0.2112 0.87835 0.0
N181 N 0.1963 0.24559 0.87941 0.0
C182 C 0.09308 0.15263 0.84182 0.0
H183 H 0.05175 0.16994 0.85128 0.0
H184 H 0.08966 0.15324 0.81839 0.0
H185 H 0.09869 0.10578 0.84894 0.0
C186 C 0.97098 0.32873 0.92377 0.0
N187 N -0.00108 0.27636 0.92667 0.0
N188 N 0.03902 0.27074 0.90671 0.0
C189 C 0.03655 0.31932 0.88987 0.0
C190 C -0.00637 0.35773 0.90018 0.0
C191 C 0.93039 0.35377 0.9458 0.0
H192 H 0.94502 0.33983 0.96716 0.0
H193 H 0.88542 0.33582 0.94224 0.0
H194 H 0.92882 0.40324 0.94518 0.0
O195 O 0.06698 0.22201 0.97749 0.0
O196 O 0.13646 0.20162 0.94576 0.0
H197 H 0.12111 0.33878 0.87223 0.0
H198 H 0.06032 0.3686 0.85214 0.0
C199 C 0.07559 0.32998 0.86484 0.0
H200 H 0.07579 0.28985 0.85114 0.0
H201 H 0.20927 0.26969 0.89729 0.0
O202 O 0.92949 0.23237 0.98301 0.0
C203 C 0.12027 0.21094 0.97131 0.0
Co204 Co 0.19839 0.97873 0.09571 0.0
Co205 Co 0.19774 0.8714 0.13919 0.0
C206 C 0.09766 0.96064 0.13362 0.0
O207 O 0.12392 -0.00659 0.1156 0.0
O208 O 0.12096 0.91314 0.1432 0.0
C209 C 0.19635 0.09592 0.06989 0.0
O210 O 0.17373 0.11307 0.09419 0.0
C211 C 0.18994 0.82949 0.19799 0.0
C212 C 0.23785 0.74383 0.19663 0.0
C213 C 0.21019 0.78318 0.21502 0.0
N214 N 0.2064 0.81869 0.17107 0.0
N215 N 0.23441 0.76703 0.17037 0.0
C216 C 0.15187 0.88115 0.20641 0.0
H217 H 0.1123 0.882 0.19277 0.0
H218 H 0.17641 0.92353 0.20315 0.0
H219 H 0.13617 0.87805 0.22854 0.0
C220 C 0.31126 0.00319 0.12288 0.0
N221 N 0.26045 0.97266 0.12141 0.0
N222 N 0.26254 0.92653 0.1386 0.0
C223 C 0.31591 0.92574 0.15118 0.0
C224 C 0.3486 0.97423 0.14149 0.0
C225 C 0.32535 0.05659 0.10505 0.0
H226 H 0.29006 0.09021 0.10758 0.0
H227 H 0.36787 0.07737 0.11119 0.0
H228 H 0.32711 0.04312 0.08245 0.0
O229 O 0.1907 0.90375 0.07387 0.0
O230 O 0.19196 0.82562 0.10292 0.0
H231 H 0.38507 0.88033 0.17435 0.0
H232 H 0.31168 0.87222 0.18851 0.0
C233 C 0.33796 0.87497 0.16876 0.0
H234 H 0.33212 0.83257 0.15692 0.0
H235 H 0.25235 0.74826 0.15207 0.0
O236 O 0.21167 0.04176 0.06683 0.0
C237 C 0.18869 0.84759 0.07805 0.0
Co238 Co 0.9598 0.7459 0.95766 0.0
Co239 Co 0.86257 0.76261 0.91044 0.0
C240 C 0.94854 0.85818 0.92243 0.0
O241 O 0.97054 0.82668 0.94215 0.0
O242 O 0.90696 0.83871 0.90687 0.0
C243 C 0.07629 0.75241 0.98081 0.0
O244 O 0.08866 0.77516 0.95587 0.0
C245 C 0.81142 0.77961 0.8539 0.0
C246 C 0.73291 0.72121 0.85547 0.0
C247 C 0.76543 0.75759 0.83764 0.0
N248 N 0.80652 0.75709 0.88019 0.0
N249 N 0.75885 0.72309 0.88111 0.0
C250 C 0.86298 0.81562 0.84389 0.0
H251 H 0.90418 0.79764 0.85314 0.0
H252 H 0.8663 0.81557 0.82045 0.0
H253 H 0.8579 0.86235 0.85136 0.0
C254 C -0.01807 0.63634 0.92571 0.0
N255 N 0.95458 0.68899 0.92885 0.0
N256 N 0.9149 0.69548 0.90879 0.0
C257 C 0.91708 0.6472 0.89167 0.0
C258 C 0.95938 0.6081 0.90189 0.0
C259 C 0.02243 0.61059 0.94752 0.0
H260 H 0.00893 0.62541 0.96895 0.0
H261 H 0.06782 0.62698 0.9435 0.0
H262 H 0.02244 0.56107 0.94701 0.0
O263 O 0.88737 0.74639 0.97942 0.0
O264 O 0.8183 0.76672 0.94757 0.0
H265 H 0.89427 0.5996 0.85327 0.0
H266 H 0.87957 0.6785 0.85294 0.0
C267 C 0.87889 0.63787 0.86625 0.0
H268 H 0.83303 0.62922 0.8732 0.0
H269 H 0.7456 0.69891 0.89889 0.0
O270 O 0.02464 0.73258 0.98529 0.0
C271 C 0.83422 0.75783 0.97316 0.0
C272 C 0.21451 0.85513 0.51771 0.0
C273 C 0.19713 0.83483 0.54466 0.0
H274 H 0.20574 0.84409 0.47285 0.0
C275 C 0.16929 0.77895 0.54691 0.0
H276 H 0.23704 0.89753 0.51529 0.0
C277 C 0.15179 0.74822 0.52259 0.0
C278 C 0.16208 0.77268 0.49563 0.0
H279 H 0.15633 0.7614 0.56735 0.0
H280 H 0.12509 0.70833 0.52494 0.0
C281 C 0.19727 0.8241 0.49333 0.0
C282 C 0.76363 0.82679 0.5272 0.0
C283 C 0.78123 0.80885 0.55439 0.0
H284 H 0.78004 0.82259 0.4827 0.0
C285 C 0.8242 0.76422 0.55701 0.0
H286 H 0.73044 0.86103 0.5246 0.0
C287 C 0.85358 0.74286 0.53294 0.0
C288 C 0.83982 0.76526 0.5059 0.0
H289 H 0.83889 0.74988 0.57772 0.0
H290 H 0.88964 0.71186 0.53572 0.0
C291 C 0.79223 0.80481 0.50318 0.0
C292 C 0.74118 0.11176 0.51925 0.0
C293 C 0.75958 0.13286 0.54593 0.0
H294 H 0.74927 0.12046 0.47425 0.0
C295 C 0.78925 0.18786 0.54751 0.0
H296 H 0.71728 0.07 0.51734 0.0
C297 C 0.80722 0.21682 0.52282 0.0
C298 C 0.79557 0.19148 0.49615 0.0
H299 H 0.80311 0.20598 0.56772 0.0
H300 H 0.83499 0.25609 0.52467 0.0
C301 C 0.7589 0.14103 0.4945 0.0
C302 C 0.13099 0.20627 0.55546 0.0
C303 C 0.17362 0.16131 0.55263 0.0
H304 H 0.06631 0.2598 0.53441 0.0
C305 C 0.19143 0.14392 0.52536 0.0
H306 H 0.11618 0.22024 0.57625 0.0
C307 C 0.16343 0.16687 0.50143 0.0
C308 C 0.11617 0.20684 0.50431 0.0
H309 H 0.22439 0.10949 0.52258 0.0
H310 H 0.17582 0.14953 0.48086 0.0
C311 C 0.10217 0.22858 0.53148 0.0
C312 C 0.8066 0.74913 1.02387 0.0
C313 C 0.79512 0.77344 0.99701 0.0
H314 H 0.80176 0.76132 0.06869 0.0
C315 C 0.7581 0.82336 0.99498 0.0
H316 H 0.83464 0.7103 0.02603 0.0
C317 C 0.73979 0.85317 1.01951 0.0
C318 C 0.75795 0.83316 0.04637 0.0
H319 H 0.7486 0.84314 0.97457 0.0
H320 H 0.71562 0.89455 1.01728 0.0
C321 C 0.78803 0.77862 0.04834 0.0
C322 C 0.76427 0.13694 0.02465 0.0
C323 C 0.78095 0.15695 0.05169 0.0
H324 H 0.78092 0.13967 0.98015 0.0
C325 C 0.8223 0.20345 0.05396 0.0
H326 H 0.73221 0.10133 1.0223 0.0
C327 C 0.85111 0.22486 0.02975 0.0
C328 C 0.83838 0.20061 1.00291 0.0
H329 H 0.83616 0.21953 0.07455 0.0
H330 H 0.88601 0.25751 0.0323 0.0
C331 C 0.79229 0.15893 1.00048 0.0
C332 C 0.14733 0.22035 1.02202 0.0
C333 C 0.15901 0.19549 0.99525 0.0
H334 H 0.1507 0.2085 0.06687 0.0
C335 C 0.1951 0.14482 0.99345 0.0
H336 H 0.11992 0.25969 1.02399 0.0
C337 C 0.21212 0.11487 1.0181 0.0
C338 C 0.19362 0.13552 0.04484 0.0
H339 H 0.20467 0.12457 0.97312 0.0
H340 H 0.23553 0.07299 1.01604 0.0
C341 C 0.16462 0.19071 0.04662 0.0
C342 C 0.10222 0.74155 0.03227 0.0
C343 C 0.11612 0.7635 1.00514 0.0
H344 H 0.11602 0.75009 0.07704 0.0
C345 C 0.16322 0.80389 1.00232 0.0
H346 H 0.06652 0.70995 0.03514 0.0
C347 C 0.19108 0.82711 0.02629 0.0
C348 C 0.17321 0.80962 0.05353 0.0
H349 H 0.17552 0.82137 0.98177 0.0
H350 H 0.22385 0.86192 1.02357 0.0
C351 C 0.13086 0.76417 0.05629 0.0
C352 C 0.50832 0.97918 0.61689 0.0
C353 C 0.53864 0.97611 0.64267 0.0
H354 H 0.42599 -0.00829 0.59619 0.0
C355 C 0.50719 0.98048 0.66819 0.0
H356 H 0.53147 0.97501 0.59693 0.0
C357 C 0.44596 -0.01169 0.66777 0.0
C358 C 0.41607 -0.00791 0.64182 0.0
H359 H 0.52996 0.97825 0.6883 0.0
H360 H 0.42202 -0.00874 0.68756 0.0
C361 C 0.4479 -0.01197 0.61647 0.0
C362 C 0.0274 0.50788 0.39115 0.0
C363 C -0.02051 0.5467 0.39462 0.0
H364 H 0.05618 0.4169 0.38968 0.0
C365 C 0.92216 0.52333 0.39531 0.0
H366 H 0.07215 0.52468 0.391 0.0
C367 C 0.91328 0.46169 0.39552 0.0
C368 C 0.9616 0.42287 0.39422 0.0
H369 H 0.88462 0.55262 0.39784 0.0
H370 H 0.86914 0.4446 0.39878 0.0
C371 C 0.01839 0.44629 0.39064 0.0
C372 C 0.50491 -0.00232 0.16728 0.0
C373 C 0.5357 -0.00385 0.1415 0.0
H374 H 0.42016 -0.00851 0.18756 0.0
C375 C 0.50467 -0.01221 0.11616 0.0
H376 H 0.52822 0.00437 0.18703 0.0
C377 C 0.44411 0.97956 0.11652 0.0
C378 C 0.41305 0.98109 0.14214 0.0
H379 H 0.52723 -0.01218 0.09595 0.0
H380 H 0.42142 0.97224 0.09664 0.0
C381 C 0.44363 -0.00995 0.16761 0.0
C382 C 0.92808 0.44469 0.89162 0.0
C383 C -0.01487 0.42117 0.89314 0.0
H384 H 0.87509 0.52333 0.89368 0.0
C385 C 0.03376 0.45996 0.89249 0.0
H386 H 0.89006 0.41535 0.89203 0.0
C387 C 0.02528 0.52161 0.89271 0.0
C388 C 0.96818 0.54505 0.89408 0.0
H389 H 0.0782 0.44287 0.89398 0.0
H390 H 0.06328 0.55088 0.89391 0.0
C391 C 0.9196 0.50633 0.89234 0.0
C392 C -0.00206 0.04363 0.64173 0.0
C393 C 0.03869 -0.00332 0.63975 0.0
H394 H 0.90685 0.06848 0.64122 0.0
C395 C 0.01842 0.93743 0.64034 0.0
H396 H 0.01253 0.08974 0.64115 0.0
C397 C 0.9581 0.92534 0.64127 0.0
C398 C 0.91729 0.97237 0.64065 0.0
H399 H 0.0491 0.90056 0.63886 0.0
H400 H 0.94344 0.87928 0.64027 0.0
C401 C 0.9376 0.03156 0.6417 0.0
C402 C -0.01604 0.95199 0.39553 0.0
C403 C -0.00386 0.92298 0.42119 0.0
H404 H 0.95845 0.03453 0.37573 0.0
C405 C -0.00415 0.95555 0.44652 0.0
H406 H -0.01565 0.9274 0.37576 0.0
C407 C -0.01657 0.01619 0.4464 0.0
C408 C 0.96937 0.0453 0.42102 0.0
H409 H 0.00585 0.93412 0.46651 0.0
H410 H -0.01688 0.03995 0.46641 0.0
C411 C 0.96939 0.01286 0.39552 0.0
C412 C -0.00504 0.92634 0.14211 0.0
C413 C 0.03574 0.9735 0.14031 0.0
H414 H 0.90386 0.90103 0.14119 0.0
C415 C 0.01551 0.03264 0.14089 0.0
H416 H 0.00956 0.88031 0.14153 0.0
C417 C 0.95521 0.04443 0.14158 0.0
C418 C 0.91436 -0.0028 0.14075 0.0
H419 H 0.04623 0.06966 0.13954 0.0
H420 H 0.94064 0.09043 0.14053 0.0
C421 C 0.93462 0.9381 0.14185 0.0
C422 C -0.01953 0.95139 0.94583 0.0
C423 C 0.9664 0.92125 0.92066 0.0
H424 H 0.00369 0.03413 0.96532 0.0
C425 C 0.9671 0.95262 0.89489 0.0
H426 H -0.02029 0.92849 0.96602 0.0
C427 C -0.01757 0.01341 0.89444 0.0
C428 C -0.00524 0.04344 0.91988 0.0
H429 H 0.95623 0.93014 0.87525 0.0
H430 H -0.01669 0.03716 0.87448 0.0
C431 C -0.00631 0.01193 0.94547 0.0
C432 C 0.20045 0.24999 0.7581 0.0
C433 C 0.20849 0.19343 0.74572 0.0
H434 H 0.18864 0.2999 0.79656 0.0
C435 C 0.21458 0.14347 0.76352 0.0
H436 H 0.19671 0.28949 0.74501 0.0
C437 C 0.20837 0.14927 0.79286 0.0
C438 C 0.19864 0.20551 0.805 0.0
H439 H 0.22464 0.09987 0.75489 0.0
H440 H 0.21178 0.10995 0.8061 0.0
C441 C 0.19588 0.25601 0.78752 0.0
C442 C 0.20964 0.82569 0.26447 0.0
C443 C 0.20592 0.77606 0.24622 0.0
H444 H 0.20498 0.85765 0.30731 0.0
C445 C 0.19999 0.71879 0.25809 0.0
H446 H 0.21805 0.86999 0.25625 0.0
C447 C 0.19522 0.7116 0.28743 0.0
C448 C 0.19559 0.7616 0.30537 0.0
H449 H 0.19813 0.67957 0.24465 0.0
H450 H 0.18967 0.66711 0.29605 0.0
C451 C 0.20326 0.81864 0.29373 0.0
C452 C 0.75919 0.71343 0.78923 0.0
C453 C 0.75718 0.76389 0.80684 0.0
H454 H 0.7577 0.68013 0.74665 0.0
C455 C 0.74818 0.82032 0.79484 0.0
H456 H 0.76584 0.6694 0.79815 0.0
C457 C 0.74193 0.82633 0.76553 0.0
C458 C 0.74721 0.77635 0.7476 0.0
H459 H 0.74533 0.85962 0.80819 0.0
H460 H 0.73241 0.8701 0.75703 0.0
C461 C 0.75458 0.71963 0.75984 0.0
C462 C 0.72317 0.15762 0.29167 0.0
C463 C 0.76563 0.19471 0.30426 0.0
H464 H 0.68446 0.12647 0.25299 0.0
C465 C 0.8008 0.23131 0.28701 0.0
H466 H 0.69485 0.12986 0.30465 0.0
C467 C 0.79463 0.22977 0.25757 0.0
C468 C 0.75365 0.19108 0.24485 0.0
H469 H 0.83263 0.26161 0.29634 0.0
H470 H 0.82264 0.25809 0.24472 0.0
C471 C 0.71756 0.15543 0.26218 0.0
loop_
_geom_bond_atom_site_label_1
_geom_bond_atom_site_label_2
_geom_bond_distance
_geom_bond_site_symmetry_2
_ccdc_geom_bond_type
Co0 O3 1.970 . S
Co0 N17 1.989 . S
Co0 O25 1.967 . S
Co0 O32 1.920 . S
Co1 O4 1.966 . S
Co1 N10 2.022 . S
Co1 N18 1.993 . S
Co1 O26 1.941 . S
C2 O3 1.258 . S
C2 O4 1.263 . S
O3 Co0 1.970 . S
O3 C2 1.258 . S
O4 Co1 1.966 . S
O4 C2 1.263 . S
C5 O6 1.235 . S
C5 O32 1.289 1_565 S
O6 C5 1.235 . S
C7 C9 1.400 . S
C7 N10 1.351 . S
C7 C12 1.501 . S
C8 C9 1.387 . S
C8 N11 1.341 . S
C9 C7 1.400 . S
C9 C8 1.387 . S
N10 Co1 2.022 . S
N10 C7 1.351 . S
N10 N11 1.365 . S
N11 C8 1.341 . S
N11 N10 1.365 . S
N11 H31 0.862 . S
C12 C7 1.501 . S
C12 H13 0.961 . S
C12 H14 0.961 . S
C12 H15 0.960 . S
H13 C12 0.961 . S
H14 C12 0.961 . S
H15 C12 0.960 . S
C16 N17 1.342 . S
C16 C20 1.401 . S
C16 C21 1.499 . S
N17 Co0 1.989 . S
N17 C16 1.342 . S
N17 N18 1.388 . S
N18 Co1 1.993 . S
N18 N17 1.388 . S
N18 C19 1.346 . S
C19 N18 1.346 . S
C19 C20 1.396 . S
C19 C29 1.510 . S
C20 C16 1.401 . S
C20 C19 1.396 . S
C21 C16 1.499 . S
C21 H22 0.959 . S
C21 H23 0.960 1_545 S
C21 H24 0.961 . S
H22 C21 0.959 . S
H23 C21 0.960 1_565 S
H24 C21 0.961 . S
O25 Co0 1.967 . S
O25 C33 1.258 . S
O26 Co1 1.941 . S
O26 C33 1.266 . S
H27 C29 0.959 . S
H28 C29 0.961 . S
C29 C19 1.510 . S
C29 H27 0.959 . S
C29 H28 0.961 . S
C29 H30 0.960 . S
H30 C29 0.960 . S
H31 N11 0.862 . S
O32 Co0 1.920 . S
O32 C5 1.289 1_545 S
C33 O25 1.258 . S
C33 O26 1.266 . S
Co34 O37 1.970 . S
Co34 N51 1.989 . S
Co34 O59 1.967 . S
Co34 O66 1.920 . S
Co35 O38 1.966 . S
Co35 N44 2.022 . S
Co35 N52 1.993 . S
Co35 O60 1.941 . S
C36 O37 1.258 . S
C36 O38 1.263 . S
O37 Co34 1.970 . S
O37 C36 1.258 . S
O38 Co35 1.966 . S
O38 C36 1.263 . S
C39 O40 1.235 . S
C39 O66 1.289 1_655 S
O40 C39 1.235 . S
C41 C43 1.400 . S
C41 N44 1.351 . S
C41 C46 1.501 . S
C42 C43 1.387 . S
C42 N45 1.341 . S
C43 C41 1.400 . S
C43 C42 1.387 . S
N44 Co35 2.022 . S
N44 C41 1.351 . S
N44 N45 1.365 . S
N45 C42 1.341 . S
N45 N44 1.365 . S
N45 H65 0.862 . S
C46 C41 1.501 . S
C46 H47 0.961 . S
C46 H48 0.961 . S
C46 H49 0.960 . S
H47 C46 0.961 . S
H48 C46 0.961 . S
H49 C46 0.960 . S
C50 N51 1.342 . S
C50 C54 1.401 . S
C50 C55 1.499 . S
N51 Co34 1.989 . S
N51 C50 1.342 . S
N51 N52 1.388 . S
N52 Co35 1.993 . S
N52 N51 1.388 . S
N52 C53 1.346 . S
C53 N52 1.346 . S
C53 C54 1.396 . S
C53 C63 1.510 . S
C54 C50 1.401 . S
C54 C53 1.396 . S
C55 C50 1.499 . S
C55 H56 0.959 . S
C55 H57 0.960 1_455 S
C55 H58 0.961 . S
H56 C55 0.959 . S
H57 C55 0.960 1_655 S
H58 C55 0.961 . S
O59 Co34 1.967 . S
O59 C67 1.258 . S
O60 Co35 1.941 . S
O60 C67 1.266 . S
H61 C63 0.959 . S
H62 C63 0.961 . S
C63 C53 1.510 . S
C63 H61 0.959 . S
C63 H62 0.961 . S
C63 H64 0.960 . S
H64 C63 0.960 . S
H65 N45 0.862 . S
O66 Co34 1.920 . S
O66 C39 1.289 1_455 S
C67 O59 1.258 . S
C67 O60 1.266 . S
Co68 O71 1.970 . S
Co68 N85 1.989 . S
Co68 O93 1.967 . S
Co68 O100 1.920 . S
Co69 O72 1.966 . S
Co69 N78 2.022 . S
Co69 N86 1.993 . S
Co69 O94 1.941 . S
C70 O71 1.258 . S
C70 O72 1.263 . S
O71 Co68 1.970 . S
O71 C70 1.258 . S
O72 Co69 1.966 . S
O72 C70 1.263 . S
C73 O74 1.235 . S
C73 O100 1.289 1_545 S
O74 C73 1.235 . S
C75 C77 1.400 . S
C75 N78 1.351 . S
C75 C80 1.501 . S
C76 C77 1.387 . S
C76 N79 1.341 . S
C77 C75 1.400 . S
C77 C76 1.387 . S
N78 Co69 2.022 . S
N78 C75 1.351 . S
N78 N79 1.365 . S
N79 C76 1.341 . S
N79 N78 1.365 . S
N79 H99 0.862 . S
C80 C75 1.501 . S
C80 H81 0.961 . S
C80 H82 0.961 . S
C80 H83 0.960 . S
H81 C80 0.961 . S
H82 C80 0.961 . S
H83 C80 0.960 . S
C84 N85 1.342 . S
C84 C88 1.401 . S
C84 C89 1.499 . S
N85 Co68 1.989 . S
N85 C84 1.342 . S
N85 N86 1.388 . S
N86 Co69 1.993 . S
N86 N85 1.388 . S
N86 C87 1.346 . S
C87 N86 1.346 . S
C87 C88 1.396 . S
C87 C97 1.510 . S
C88 C84 1.401 . S
C88 C87 1.396 . S
C89 C84 1.499 . S
C89 H90 0.959 . S
C89 H91 0.960 1_565 S
C89 H92 0.961 . S
H90 C89 0.959 . S
H91 C89 0.960 1_545 S
H92 C89 0.961 . S
O93 Co68 1.967 . S
O93 C101 1.258 . S
O94 Co69 1.941 . S
O94 C101 1.266 . S
H95 C97 0.959 . S
H96 C97 0.961 . S
C97 C87 1.510 . S
C97 H95 0.959 . S
C97 H96 0.961 . S
C97 H98 0.960 . S
H98 C97 0.960 . S
H99 N79 0.862 . S
O100 Co68 1.920 . S
O100 C73 1.289 1_565 S
C101 O93 1.258 . S
C101 O94 1.266 . S
Co102 O105 1.970 . S
Co102 N119 1.989 . S
Co102 O127 1.967 . S
Co102 O134 1.920 . S
Co103 O106 1.966 . S
Co103 N112 2.022 . S
Co103 N120 1.993 . S
Co103 O128 1.941 . S
C104 O105 1.258 . S
C104 O106 1.263 . S
O105 Co102 1.970 . S
O105 C104 1.258 . S
O106 Co103 1.966 . S
O106 C104 1.263 . S
C107 O108 1.235 . S
C107 O134 1.289 1_455 S
O108 C107 1.235 . S
C109 C111 1.400 . S
C109 N112 1.351 . S
C109 C114 1.501 . S
C110 C111 1.387 . S
C110 N113 1.341 . S
C111 C109 1.400 . S
C111 C110 1.387 . S
N112 Co103 2.022 . S
N112 C109 1.351 . S
N112 N113 1.365 . S
N113 C110 1.341 . S
N113 N112 1.365 . S
N113 H133 0.862 . S
C114 C109 1.501 . S
C114 H115 0.961 . S
C114 H116 0.961 . S
C114 H117 0.960 . S
H115 C114 0.961 . S
H116 C114 0.961 . S
H117 C114 0.960 . S
C118 N119 1.342 . S
C118 C122 1.401 . S
C118 C123 1.499 . S
N119 Co102 1.989 . S
N119 C118 1.342 . S
N119 N120 1.388 . S
N120 Co103 1.993 . S
N120 N119 1.388 . S
N120 C121 1.346 . S
C121 N120 1.346 . S
C121 C122 1.396 . S
C121 C131 1.510 . S
C122 C118 1.401 . S
C122 C121 1.396 . S
C123 C118 1.499 . S
C123 H124 0.959 . S
C123 H125 0.960 1_655 S
C123 H126 0.961 . S
H124 C123 0.959 . S
H125 C123 0.960 1_455 S
H126 C123 0.961 . S
O127 Co102 1.967 . S
O127 C135 1.258 . S
O128 Co103 1.941 . S
O128 C135 1.266 . S
H129 C131 0.959 . S
H130 C131 0.961 . S
C131 C121 1.510 . S
C131 H129 0.959 . S
C131 H130 0.961 . S
C131 H132 0.960 . S
H132 C131 0.960 . S
H133 N113 0.862 . S
O134 Co102 1.920 . S
O134 C107 1.289 1_655 S
C135 O127 1.258 . S
C135 O128 1.266 . S
Co136 O139 1.970 . S
Co136 N153 1.989 . S
Co136 O161 1.967 . S
Co136 O168 1.920 . S
Co137 O140 1.966 . S
Co137 N146 2.022 . S
Co137 N154 1.993 . S
Co137 O162 1.941 . S
C138 O139 1.258 . S
C138 O140 1.263 . S
O139 Co136 1.970 . S
O139 C138 1.258 . S
O140 Co137 1.966 . S
O140 C138 1.263 . S
C141 O142 1.235 . S
C141 O168 1.289 1_565 S
O142 C141 1.235 . S
C143 C145 1.400 . S
C143 N146 1.351 . S
C143 C148 1.501 . S
C144 C145 1.387 . S
C144 N147 1.341 . S
C145 C143 1.400 . S
C145 C144 1.387 . S
N146 Co137 2.022 . S
N146 C143 1.351 . S
N146 N147 1.365 . S
N147 C144 1.341 . S
N147 N146 1.365 . S
N147 H167 0.862 . S
C148 C143 1.501 . S
C148 H149 0.961 . S
C148 H150 0.961 . S
C148 H151 0.960 . S
H149 C148 0.961 . S
H150 C148 0.961 . S
H151 C148 0.960 . S
C152 N153 1.342 . S
C152 C156 1.401 . S
C152 C157 1.499 . S
N153 Co136 1.989 . S
N153 C152 1.342 . S
N153 N154 1.388 . S
N154 Co137 1.993 . S
N154 N153 1.388 . S
N154 C155 1.346 . S
C155 N154 1.346 . S
C155 C156 1.396 . S
C155 C165 1.510 . S
C156 C152 1.401 . S
C156 C155 1.396 . S
C157 C152 1.499 . S
C157 H158 0.959 . S
C157 H159 0.960 1_545 S
C157 H160 0.961 . S
H158 C157 0.959 . S
H159 C157 0.960 1_565 S
H160 C157 0.961 . S
O161 Co136 1.967 . S
O161 C169 1.258 . S
O162 Co137 1.941 . S
O162 C169 1.266 . S
H163 C165 0.959 . S
H164 C165 0.961 . S
C165 C155 1.510 . S
C165 H163 0.959 . S
C165 H164 0.961 . S
C165 H166 0.960 . S
H166 C165 0.960 . S
H167 N147 0.862 . S
O168 Co136 1.920 . S
O168 C141 1.289 1_545 S
C169 O161 1.258 . S
C169 O162 1.266 . S
Co170 O173 1.970 . S
Co170 N187 1.989 . S
Co170 O195 1.967 . S
Co170 O202 1.920 . S
Co171 O174 1.966 . S
Co171 N180 2.022 . S
Co171 N188 1.993 . S
Co171 O196 1.941 . S
C172 O173 1.258 . S
C172 O174 1.263 . S
O173 Co170 1.970 . S
O173 C172 1.258 . S
O174 Co171 1.966 . S
O174 C172 1.263 . S
C175 O176 1.235 . S
C175 O202 1.289 1_655 S
O176 C175 1.235 . S
C177 C179 1.400 . S
C177 N180 1.351 . S
C177 C182 1.501 . S
C178 C179 1.387 . S
C178 N181 1.341 . S
C179 C177 1.400 . S
C179 C178 1.387 . S
N180 Co171 2.022 . S
N180 C177 1.351 . S
N180 N181 1.365 . S
N181 C178 1.341 . S
N181 N180 1.365 . S
N181 H201 0.862 . S
C182 C177 1.501 . S
C182 H183 0.961 . S
C182 H184 0.961 . S
C182 H185 0.960 . S
H183 C182 0.961 . S
H184 C182 0.961 . S
H185 C182 0.960 . S
C186 N187 1.342 . S
C186 C190 1.401 . S
C186 C191 1.499 . S
N187 Co170 1.989 . S
N187 C186 1.342 . S
N187 N188 1.388 . S
N188 Co171 1.993 . S
N188 N187 1.388 . S
N188 C189 1.346 . S
C189 N188 1.346 . S
C189 C190 1.396 . S
C189 C199 1.510 . S
C190 C186 1.401 . S
C190 C189 1.396 . S
C191 C186 1.499 . S
C191 H192 0.959 . S
C191 H193 0.960 1_455 S
C191 H194 0.961 . S
H192 C191 0.959 . S
H193 C191 0.960 1_655 S
H194 C191 0.961 . S
O195 Co170 1.967 . S
O195 C203 1.258 . S
O196 Co171 1.941 . S
O196 C203 1.266 . S
H197 C199 0.959 . S
H198 C199 0.961 . S
C199 C189 1.510 . S
C199 H197 0.959 . S
C199 H198 0.961 . S
C199 H200 0.960 . S
H200 C199 0.960 . S
H201 N181 0.862 . S
O202 Co170 1.920 . S
O202 C175 1.289 1_455 S
C203 O195 1.258 . S
C203 O196 1.266 . S
Co204 O207 1.970 . S
Co204 N221 1.989 . S
Co204 O229 1.967 . S
Co204 O236 1.920 . S
Co205 O208 1.966 . S
Co205 N214 2.022 . S
Co205 N222 1.993 . S
Co205 O230 1.941 . S
C206 O207 1.258 . S
C206 O208 1.263 . S
O207 Co204 1.970 . S
O207 C206 1.258 . S
O208 Co205 1.966 . S
O208 C206 1.263 . S
C209 O210 1.235 . S
C209 O236 1.289 1_545 S
O210 C209 1.235 . S
C211 C213 1.400 . S
C211 N214 1.351 . S
C211 C216 1.501 . S
C212 C213 1.387 . S
C212 N215 1.341 . S
C213 C211 1.400 . S
C213 C212 1.387 . S
N214 Co205 2.022 . S
N214 C211 1.351 . S
N214 N215 1.365 . S
N215 C212 1.341 . S
N215 N214 1.365 . S
N215 H235 0.862 . S
C216 C211 1.501 . S
C216 H217 0.961 . S
C216 H218 0.961 . S
C216 H219 0.960 . S
H217 C216 0.961 . S
H218 C216 0.961 . S
H219 C216 0.960 . S
C220 N221 1.342 . S
C220 C224 1.401 . S
C220 C225 1.499 . S
N221 Co204 1.989 . S
N221 C220 1.342 . S
N221 N222 1.388 . S
N222 Co205 1.993 . S
N222 N221 1.388 . S
N222 C223 1.346 . S
C223 N222 1.346 . S
C223 C224 1.396 . S
C223 C233 1.510 . S
C224 C220 1.401 . S
C224 C223 1.396 . S
C225 C220 1.499 . S
C225 H226 0.959 . S
C225 H227 0.960 1_565 S
C225 H228 0.961 . S
H226 C225 0.959 . S
H227 C225 0.960 1_545 S
H228 C225 0.961 . S
O229 Co204 1.967 . S
O229 C237 1.258 . S
O230 Co205 1.941 . S
O230 C237 1.266 . S
H231 C233 0.959 . S
H232 C233 0.961 . S
C233 C223 1.510 . S
C233 H231 0.959 . S
C233 H232 0.961 . S
C233 H234 0.960 . S
H234 C233 0.960 . S
H235 N215 0.862 . S
O236 Co204 1.920 . S
O236 C209 1.289 1_565 S
C237 O229 1.258 . S
C237 O230 1.266 . S
Co238 O241 1.970 . S
Co238 N255 1.989 . S
Co238 O263 1.967 . S
Co238 O270 1.920 . S
Co239 O242 1.966 . S
Co239 N248 2.022 . S
Co239 N256 1.993 . S
Co239 O264 1.941 . S
C240 O241 1.258 . S
C240 O242 1.263 . S
O241 Co238 1.970 . S
O241 C240 1.258 . S
O242 Co239 1.966 . S
O242 C240 1.263 . S
C243 O244 1.235 . S
C243 O270 1.289 1_455 S
O244 C243 1.235 . S
C245 C247 1.400 . S
C245 N248 1.351 . S
C245 C250 1.501 . S
C246 C247 1.387 . S
C246 N249 1.341 . S
C247 C245 1.400 . S
C247 C246 1.387 . S
N248 Co239 2.022 . S
N248 C245 1.351 . S
N248 N249 1.365 . S
N249 C246 1.341 . S
N249 N248 1.365 . S
N249 H269 0.862 . S
C250 C245 1.501 . S
C250 H251 0.961 . S
C250 H252 0.961 . S
C250 H253 0.960 . S
H251 C250 0.961 . S
H252 C250 0.961 . S
H253 C250 0.960 . S
C254 N255 1.342 . S
C254 C258 1.401 . S
C254 C259 1.499 . S
N255 Co238 1.989 . S
N255 C254 1.342 . S
N255 N256 1.388 . S
N256 Co239 1.993 . S
N256 N255 1.388 . S
N256 C257 1.346 . S
C257 N256 1.346 . S
C257 C258 1.396 . S
C257 C267 1.510 . S
C258 C254 1.401 . S
C258 C257 1.396 . S
C259 C254 1.499 . S
C259 H260 0.959 . S
C259 H261 0.960 1_655 S
C259 H262 0.961 . S
H260 C259 0.959 . S
H261 C259 0.960 1_455 S
H262 C259 0.961 . S
O263 Co238 1.967 . S
O263 C271 1.258 . S
O264 Co239 1.941 . S
O264 C271 1.266 . S
H265 C267 0.959 . S
H266 C267 0.961 . S
C267 C257 1.510 . S
C267 H265 0.959 . S
C267 H266 0.961 . S
C267 H268 0.960 . S
H268 C267 0.960 . S
H269 N249 0.862 . S
O270 Co238 1.920 . S
O270 C243 1.289 1_655 S
C271 O263 1.258 . S
C271 O264 1.266 . S
C272 C273 1.387 . S
C272 H276 0.950 . S
C272 C281 1.390 . S
C273 C272 1.387 . S
C273 C275 1.387 . S
H274 C281 0.950 . S
C275 C273 1.387 . S
C275 C277 1.390 . S
C275 H279 0.950 . S
H276 C272 0.950 . S
C277 C275 1.390 . S
C277 C278 1.387 . S
C277 H280 0.950 . S
C278 C277 1.387 . S
C278 C281 1.387 . S
H279 C275 0.950 . S
H280 C277 0.950 . S
C281 C272 1.390 . S
C281 H274 0.950 . S
C281 C278 1.387 . S
C282 C283 1.387 . S
C282 H286 0.950 . S
C282 C291 1.390 . S
C283 C282 1.387 . S
C283 C285 1.387 . S
H284 C291 0.950 . S
C285 C283 1.387 . S
C285 C287 1.390 . S
C285 H289 0.950 . S
H286 C282 0.950 . S
C287 C285 1.390 . S
C287 C288 1.387 . S
C287 H290 0.950 . S
C288 C287 1.387 . S
C288 C291 1.387 . S
H289 C285 0.950 . S
H290 C287 0.950 . S
C291 C282 1.390 . S
C291 H284 0.950 . S
C291 C288 1.387 . S
C292 C293 1.387 . S
C292 H296 0.950 . S
C292 C301 1.390 . S
C293 C292 1.387 . S
C293 C295 1.387 . S
H294 C301 0.950 . S
C295 C293 1.387 . S
C295 C297 1.390 . S
C295 H299 0.950 . S
H296 C292 0.950 . S
C297 C295 1.390 . S
C297 C298 1.387 . S
C297 H300 0.950 . S
C298 C297 1.387 . S
C298 C301 1.387 . S
H299 C295 0.950 . S
H300 C297 0.950 . S
C301 C292 1.390 . S
C301 H294 0.950 . S
C301 C298 1.387 . S
C302 C303 1.387 . S
C302 H306 0.950 . S
C302 C311 1.390 . S
C303 C302 1.387 . S
C303 C305 1.387 . S
H304 C311 0.950 . S
C305 C303 1.387 . S
C305 C307 1.390 . S
C305 H309 0.950 . S
H306 C302 0.950 . S
C307 C305 1.390 . S
C307 C308 1.387 . S
C307 H310 0.950 . S
C308 C307 1.387 . S
C308 C311 1.387 . S
H309 C305 0.950 . S
H310 C307 0.950 . S
C311 C302 1.390 . S
C311 H304 0.950 . S
C311 C308 1.387 . S
C312 C313 1.387 . S
C312 H316 0.950 . S
C312 C321 1.380 1_556 S
C313 C312 1.387 . S
C313 C315 1.387 . S
H314 C321 0.960 . S
C315 C313 1.387 . S
C315 C317 1.390 . S
C315 H319 0.950 . S
H316 C312 0.950 . S
C317 C315 1.390 . S
C317 C318 1.387 1_556 S
C317 H320 0.950 . S
C318 C317 1.387 1_554 S
C318 C321 1.388 . S
H319 C315 0.950 . S
H320 C317 0.950 . S
C321 C312 1.380 1_554 S
C321 H314 0.960 . S
C321 C318 1.388 . S
C322 C323 1.387 . S
C322 H326 0.950 . S
C322 C331 1.390 . S
C323 C322 1.387 . S
C323 C325 1.387 . S
H324 C331 0.950 1_556 S
C325 C323 1.387 . S
C325 C327 1.390 . S
C325 H329 0.950 . S
H326 C322 0.950 . S
C327 C325 1.390 . S
C327 C328 1.387 1_554 S
C327 H330 0.950 . S
C328 C327 1.387 1_556 S
C328 C331 1.387 1_556 S
H329 C325 0.950 . S
H330 C327 0.950 . S
C331 C322 1.390 . S
C331 H324 0.950 1_554 S
C331 C328 1.387 1_554 S
C332 C333 1.387 . S
C332 H336 0.950 . S
C332 C341 1.390 1_556 S
C333 C332 1.387 . S
C333 C335 1.387 . S
H334 C341 0.950 . S
C335 C333 1.387 . S
C335 C337 1.390 . S
C335 H339 0.950 . S
H336 C332 0.950 . S
C337 C335 1.390 . S
C337 C338 1.387 1_556 S
C337 H340 0.950 . S
C338 C337 1.387 1_554 S
C338 C341 1.387 . S
H339 C335 0.950 . S
H340 C337 0.950 . S
C341 C332 1.390 1_554 S
C341 H334 0.950 . S
C341 C338 1.387 . S
C342 C343 1.387 1_554 S
C342 H346 0.950 1_554 S
C342 C351 1.390 . S
C343 C342 1.387 1_556 S
C343 C345 1.387 1_556 S
H344 C351 0.950 . S
C345 C343 1.387 1_554 S
C345 C347 1.390 . S
C345 H349 0.950 . S
H346 C342 0.950 1_556 S
C347 C345 1.390 . S
C347 C348 1.387 . S
C347 H350 0.950 . S
C348 C347 1.387 . S
C348 C351 1.387 . S
H349 C345 0.950 . S
H350 C347 0.950 . S
C351 C342 1.390 . S
C351 H344 0.950 . S
C351 C348 1.387 . S
C352 C353 1.387 . S
C352 H356 0.950 . S
C352 C361 1.390 1_565 S
C353 C352 1.387 . S
C353 C355 1.387 . S
H354 C361 0.950 . S
C355 C353 1.387 . S
C355 C357 1.390 1_565 S
C355 H359 0.950 . S
H356 C352 0.950 . S
C357 C355 1.390 1_545 S
C357 C358 1.387 . S
C357 H360 0.950 . S
C358 C357 1.387 . S
C358 C361 1.387 . S
H359 C355 0.950 . S
H360 C357 0.950 . S
C361 C352 1.390 1_545 S
C361 H354 0.950 . S
C361 C358 1.387 . S
C362 C363 1.387 . S
C362 H366 0.950 . S
C362 C371 1.390 1_455 S
C363 C362 1.387 . S
C363 C365 1.387 . S
H364 C371 0.950 . S
C365 C363 1.387 . S
C365 C367 1.390 1_455 S
C365 H369 0.950 . S
H366 C362 0.950 . S
C367 C365 1.390 1_655 S
C367 C368 1.387 . S
C367 H370 0.950 . S
C368 C367 1.387 . S
C368 C371 1.387 . S
H369 C365 0.950 . S
H370 C367 0.950 . S
C371 C362 1.390 1_655 S
C371 H364 0.950 . S
C371 C368 1.387 . S
C372 C373 1.387 . S
C372 H376 0.950 . S
C372 C381 1.390 1_545 S
C373 C372 1.387 . S
C373 C375 1.387 . S
H374 C381 0.950 . S
C375 C373 1.387 . S
C375 C377 1.390 1_545 S
C375 H379 0.950 . S
H376 C372 0.950 . S
C377 C375 1.390 1_565 S
C377 C378 1.387 . S
C377 H380 0.950 . S
C378 C377 1.387 . S
C378 C381 1.387 . S
H379 C375 0.950 . S
H380 C377 0.950 . S
C381 C372 1.390 1_565 S
C381 H374 0.950 . S
C381 C378 1.387 . S
C382 C383 1.387 . S
C382 H386 0.950 . S
C382 C391 1.390 1_455 S
C383 C382 1.387 . S
C383 C385 1.387 . S
H384 C391 0.950 . S
C385 C383 1.387 . S
C385 C387 1.390 1_455 S
C385 H389 0.950 . S
H386 C382 0.950 . S
C387 C385 1.390 1_655 S
C387 C388 1.387 . S
C387 H390 0.950 . S
C388 C387 1.387 . S
C388 C391 1.387 . S
H389 C385 0.950 . S
H390 C387 0.950 . S
C391 C382 1.390 1_655 S
C391 H384 0.950 . S
C391 C388 1.387 . S
C392 C393 1.387 . S
C392 H396 0.950 . S
C392 C401 1.390 1_445 S
C393 C392 1.387 . S
C393 C395 1.387 . S
H394 C401 0.950 . S
C395 C393 1.387 . S
C395 C397 1.390 1_445 S
C395 H399 0.950 . S
H396 C392 0.950 . S
C397 C395 1.390 1_665 S
C397 C398 1.387 . S
C397 H400 0.950 . S
C398 C397 1.387 . S
C398 C401 1.387 . S
H399 C395 0.950 . S
H400 C397 0.950 . S
C401 C392 1.390 1_665 S
C401 H394 0.950 . S
C401 C398 1.387 . S
C402 C403 1.387 . S
C402 H406 0.950 . S
C402 C411 1.390 1_465 S
C403 C402 1.387 . S
C403 C405 1.387 . S
H404 C411 0.950 . S
C405 C403 1.387 . S
C405 C407 1.390 1_465 S
C405 H409 0.950 . S
H406 C402 0.950 . S
C407 C405 1.390 1_645 S
C407 C408 1.387 . S
C407 H410 0.950 . S
C408 C407 1.387 . S
C408 C411 1.387 . S
H409 C405 0.950 . S
H410 C407 0.950 . S
C411 C402 1.390 1_645 S
C411 H404 0.950 . S
C411 C408 1.387 . S
C412 C413 1.387 . S
C412 H416 0.950 . S
C412 C421 1.390 1_465 S
C413 C412 1.387 . S
C413 C415 1.387 . S
H414 C421 0.950 . S
C415 C413 1.387 . S
C415 C417 1.390 1_465 S
C415 H419 0.950 . S
H416 C412 0.950 . S
C417 C415 1.390 1_645 S
C417 C418 1.387 . S
C417 H420 0.950 . S
C418 C417 1.387 . S
C418 C421 1.387 . S
H419 C415 0.950 . S
H420 C417 0.950 . S
C421 C412 1.390 1_645 S
C421 H414 0.950 . S
C421 C418 1.387 . S
C422 C423 1.387 . S
C422 H426 0.950 . S
C422 C431 1.390 1_665 S
C423 C422 1.387 . S
C423 C425 1.387 . S
H424 C431 0.950 . S
C425 C423 1.387 . S
C425 C427 1.390 1_665 S
C425 H429 0.950 . S
H426 C422 0.950 . S
C427 C425 1.390 1_445 S
C427 C428 1.387 . S
C427 H430 0.950 . S
C428 C427 1.387 . S
C428 C431 1.387 . S
H429 C425 0.950 . S
H430 C427 0.950 . S
C431 C422 1.390 1_445 S
C431 H424 0.950 . S
C431 C428 1.387 . S
C432 C433 1.387 . S
C432 H436 0.950 . S
C432 C441 1.390 . S
C433 C432 1.387 . S
C433 C435 1.387 . S
H434 C441 0.950 . S
C435 C433 1.387 . S
C435 C437 1.390 . S
C435 H439 0.950 . S
H436 C432 0.950 . S
C437 C435 1.390 . S
C437 C438 1.387 . S
C437 H440 0.950 . S
C438 C437 1.387 . S
C438 C441 1.387 . S
H439 C435 0.950 . S
H440 C437 0.950 . S
C441 C432 1.390 . S
C441 H434 0.950 . S
C441 C438 1.387 . S
C442 C443 1.387 . S
C442 H446 0.950 . S
C442 C451 1.390 . S
C443 C442 1.387 . S
C443 C445 1.387 . S
H444 C451 0.950 . S
C445 C443 1.387 . S
C445 C447 1.390 . S
C445 H449 0.950 . S
H446 C442 0.950 . S
C447 C445 1.390 . S
C447 C448 1.387 . S
C447 H450 0.950 . S
C448 C447 1.387 . S
C448 C451 1.387 . S
H449 C445 0.950 . S
H450 C447 0.950 . S
C451 C442 1.390 . S
C451 H444 0.950 . S
C451 C448 1.387 . S
C452 C453 1.387 . S
C452 H456 0.950 . S
C452 C461 1.390 . S
C453 C452 1.387 . S
C453 C455 1.387 . S
H454 C461 0.950 . S
C455 C453 1.387 . S
C455 C457 1.390 . S
C455 H459 0.950 . S
H456 C452 0.950 . S
C457 C455 1.390 . S
C457 C458 1.387 . S
C457 H460 0.950 . S
C458 C457 1.387 . S
C458 C461 1.387 . S
H459 C455 0.950 . S
H460 C457 0.950 . S
C461 C452 1.390 . S
C461 H454 0.950 . S
C461 C458 1.387 . S
C462 C463 1.387 . S
C462 H466 0.950 . S
C462 C471 1.390 . S
C463 C462 1.387 . S
C463 C465 1.387 . S
H464 C471 0.950 . S
C465 C463 1.387 . S
C465 C467 1.390 . S
C465 H469 0.950 . S
H466 C462 0.950 . S
C467 C465 1.390 . S
C467 C468 1.387 . S
C467 H470 0.950 . S
C468 C467 1.387 . S
C468 C471 1.387 . S
H469 C465 0.950 . S
H470 C467 0.950 . S
C471 C462 1.390 . S
C471 H464 0.950 . S
C471 C468 1.387 . S
C273 C5 1.123 . S
C278 C67 1.063 . S
C283 C101 1.063 . S
C288 C39 1.123 . S
C293 C73 1.123 . S
C298 C135 1.064 . S
C303 C33 1.065 . S
C308 C107 1.126 . S
C313 C271 1.066 . S
C318 C141 1.125 . S
C323 C169 1.062 . S
C328 C175 1.123 . S
C333 C203 1.065 . S
C338 C209 1.123 . S
C343 C243 1.123 . S
C348 C237 1.063 . S
C353 C88 1.617 . S
C358 C20 1.617 . S
C363 C54 1.621 . S
C368 C122 1.621 . S
C373 C156 1.617 . S
C378 C224 1.617 . S
C383 C190 1.617 . S
C388 C258 1.617 . S
C393 C2 1.365 . S
C398 C70 1.365 . S
C403 C36 1.365 . S
C408 C104 1.365 . S
C413 C206 1.365 . S
C418 C138 1.365 . S
C423 C240 1.365 . S
C428 C172 1.365 . S
C433 C9 1.769 . S
C438 C179 1.769 . S
C443 C213 1.768 . S
C448 C43 1.769 . S
C453 C247 1.769 . S
C458 C77 1.769 . S
C463 C111 1.769 . S
C468 C145 1.768 . S
