# Generated by pormake.
# Topology qtz-x, (6)-cn, num edge types: 1
# Building blocks:
#     Node 0, Type 0, BuildingBlock: KUMBOL_clean_sbu_0, # of connection points: 6
#     Node 1, Type 0, BuildingBlock: KUMBOL_clean_sbu_0, # of connection points: 6
#     Node 2, Type 0, BuildingBlock: KUMBOL_clean_sbu_0, # of connection points: 6
#     Edge 3, Type (0, 0), None
#     Edge 4, Type (0, 0), None
#     Edge 5, Type (0, 0), None
#     Edge 6, Type (0, 0), None
#     Edge 7, Type (0, 0), None
#     Edge 8, Type (0, 0), None
#     Edge 9, Type (0, 0), None
#     Edge 10, Type (0, 0), None
#     Edge 11, Type (0, 0), None
# Relax obj value: 0.165
# Max RMSD: 0.301
# Mean RMSD: 0.301
data_MOF--net-qtz-x--node1-KUMBOL_clean_sbu_0--edge1-none
_symmetry_space_group_name_H-M    P1
_symmetry_Int_Tables_number       1
_symmetry_cell_setting            triclinic
loop_
_symmetry_equiv_pos_as_xyz
'x, y, z'
_cell_length_a     8.9055546
_cell_length_b     8.9052964
_cell_length_c     30.846162
_cell_angle_alpha  89.991118
_cell_angle_beta   90.016754
_cell_angle_gamma 119.99857
loop_
_atom_site_label
_atom_site_type_symbol
_atom_site_fract_x
_atom_site_fract_y
_atom_site_fract_z
_atom_type_partial_charge
Gd0 Gd 0.70084 0.04136 0.12504 0.0
Gd1 Gd 0.12989 0.31754 0.18998 0.0
C2 C 0.72985 0.53674 0.10745 0.0
C3 C -0.11768 0.3133 0.16176 0.0
C4 C 0.58675 0.41996 0.20319 0.0
C5 C 0.58651 0.51556 0.15557 0.0
C6 C 0.7345 0.3251 0.21355 0.0
C7 C -0.11869 0.44146 0.10706 0.0
C8 C 0.69535 0.5988 0.07428 0.0
C9 C 0.57984 0.65413 0.08087 0.0
N10 N 0.42828 0.50654 0.14861 0.0
C11 C 0.43596 0.59088 0.11186 0.0
H12 H 0.31848 0.59247 0.10488 0.0
C13 C 0.42008 0.26948 0.26141 0.0
N14 N 0.42201 0.34269 0.2224 0.0
C15 C 0.55861 0.24828 0.279 0.0
C16 C 0.70462 0.26159 0.25711 0.0
H17 H 0.30272 0.21438 0.27998 0.0
H18 H -0.04714 0.47165 0.07554 0.0
H19 H 0.52728 0.71778 0.20798 0.0
H20 H 0.74926 0.59333 0.04458 0.0
H21 H 0.61445 0.74477 0.05666 0.0
H22 H -0.09715 0.37529 0.13139 0.0
H23 H 0.62511 0.24912 0.06091 0.0
H24 H 0.28795 -0.04276 0.27764 0.0
H25 H 0.4795 0.83304 0.27472 0.0
H26 H 0.01262 0.02747 0.19543 0.0
H27 H 0.53645 0.19073 0.31059 0.0
H28 H 0.73927 0.29976 0.22586 0.0
H29 H 0.04713 0.85712 0.2284 0.0
H30 H 0.36052 0.3142 0.09006 0.0
N31 N 0.43956 0.852 0.17057 0.0
C32 C 0.29496 0.89102 0.25006 0.0
C33 C 0.41376 0.83555 0.24612 0.0
C34 C 0.1707 0.85516 0.21832 0.0
C35 C 0.2876 0.85478 0.16724 0.0
C36 C 0.4499 0.77937 0.20716 0.0
N37 N 0.45513 0.06226 0.10699 0.0
C38 C 0.28288 -0.04378 0.12 0.0
C39 C 0.41032 0.26125 0.06872 0.0
C40 C 0.27125 0.22223 0.09573 0.0
C41 C 0.50419 0.19234 0.07792 0.0
C42 C 0.14909 0.05884 0.11271 0.0
H43 H 0.15102 0.09332 0.09578 0.0
O44 O 0.66105 0.02477 0.04774 0.0
O45 O 0.01042 0.24404 0.10743 0.0
O46 O 0.04502 0.57298 0.18566 0.0
O47 O 0.67028 0.33267 0.14929 0.0
O48 O 0.84864 0.10682 0.0582 0.0
O49 O 0.46443 0.86678 0.08624 0.0
O50 O 0.11233 0.32964 0.25773 0.0
O51 O 0.81449 0.08005 0.20706 0.0
O52 O 0.83421 0.8162 0.14054 0.0
O53 O 0.23267 0.05851 0.17566 0.0
O54 O 0.82573 0.08278 0.21117 0.0
O55 O 0.13527 0.54076 0.22535 0.0
C56 C 0.00499 0.23014 0.06456 0.0
C57 C 0.02094 0.07647 0.16216 0.0
C58 C 0.02797 -0.03793 0.21833 0.0
C59 C 0.49356 -0.08589 0.04637 0.0
C60 C 0.3288 0.86338 0.00922 0.0
C61 C 0.18707 0.86769 0.02511 0.0
C62 C 0.27324 0.77014 0.96476 0.0
C63 C 0.08623 0.65198 0.95001 0.0
C64 C 0.021 0.78573 0.00817 0.0
C65 C -0.03196 0.65485 0.97785 0.0
C66 C -0.11309 0.57349 0.17136 0.0
C67 C 0.7528 -0.03466 0.24173 0.0
C68 C 0.11587 0.47664 0.26408 0.0
C69 C 0.20943 0.57987 0.30695 0.0
C70 C 0.27826 0.49471 0.32539 0.0
C71 C 0.26118 0.74697 0.33089 0.0
C72 C 0.41557 0.83045 0.3608 0.0
C73 C 0.43935 0.58663 0.33816 0.0
C74 C 0.51024 0.7477 0.35851 0.0
C75 C -0.0031 0.81126 0.15548 0.0
H76 H 0.20828 -0.04173 0.04729 0.0
H77 H 0.37013 0.77171 0.94369 0.0
H78 H -0.06714 0.82636 0.02002 0.0
H79 H 0.8367 0.55501 0.97698 0.0
H80 H 0.23041 0.35893 0.32106 0.0
H81 H 0.18149 0.80111 0.32825 0.0
H82 H 0.48719 0.50331 0.33279 0.0
H83 H 0.63171 0.79945 0.37479 0.0
Gd84 Gd 0.59221 0.28194 0.4584 0.0
Gd85 Gd 0.43942 0.85292 0.52333 0.0
C86 C 0.05848 0.25293 0.4408 0.0
C87 C 0.68271 0.10054 0.49511 0.0
C88 C 0.08505 0.39607 0.53654 0.0
C89 C 0.18076 0.39627 0.48892 0.0
C90 C 0.84246 0.24835 0.5469 0.0
C91 C 0.81174 0.10151 0.4404 0.0
C92 C 0.15497 0.28736 0.40763 0.0
C93 C 0.32585 0.40286 0.41421 0.0
N94 N 0.32995 0.5545 0.48196 0.0
C95 C 0.40653 0.54678 0.4452 0.0
H96 H 0.52557 0.66426 0.43822 0.0
C97 C 0.10129 0.56292 0.59472 0.0
N98 N 0.17255 0.56086 0.55574 0.0
C99 C -0.05836 0.42443 0.61233 0.0
C100 C 0.80892 0.27832 0.59046 0.0
H101 H 0.16349 0.68041 0.61326 0.0
H102 H 0.77032 0.03001 0.40887 0.0
H103 H 0.44239 0.45536 0.54132 0.0
H104 H 0.09547 0.2333 0.37793 0.0
H105 H 0.38187 0.36826 0.39001 0.0
H106 H 0.7241 0.08 0.46473 0.0
H107 H -0.12439 0.35761 0.39423 0.0
H108 H -0.07866 0.69523 0.61099 0.0
H109 H 0.6057 0.5032 0.60806 0.0
H110 H 0.26659 -0.02973 0.52877 0.0
H111 H -0.09367 0.44669 0.64392 0.0
H112 H 0.81237 0.24361 0.55921 0.0
H113 H 0.0618 -0.06415 0.56172 0.0
H114 H 0.20536 0.62225 0.42334 0.0
N115 N 0.66421 0.54322 0.5039 0.0
C116 C 0.84802 0.68802 0.58341 0.0
C117 C 0.67381 0.56898 0.57945 0.0
C118 C -0.06372 0.81219 0.55165 0.0
C119 C 0.81894 0.69518 0.50057 0.0
C120 C 0.58135 0.53277 0.5405 0.0
N121 N -0.14118 0.52756 0.44033 0.0
C122 C -0.07498 0.69982 0.45334 0.0
C123 C 0.1025 0.57248 0.40202 0.0
C124 C 0.20264 0.7115 0.42905 0.0
C125 C -0.06023 0.47852 0.41125 0.0
C126 C 0.16141 0.83363 0.44606 0.0
H127 H 0.19394 0.83172 0.42914 0.0
O128 O 0.61527 0.32167 0.3811 0.0
O129 O 0.48525 -0.02761 0.44078 0.0
O130 O 0.77968 -0.06224 0.51897 0.0
O131 O -0.08589 0.31255 0.48265 0.0
O132 O 0.50994 0.13422 0.39154 0.0
O133 O 0.65395 0.51833 0.41959 0.0
O134 O 0.46948 0.87097 0.59108 0.0
O135 O 0.51734 0.16828 0.54044 0.0
O136 O 0.23366 0.14855 0.47386 0.0
O137 O 0.07762 0.75015 0.509 0.0
O138 O 0.50883 0.15702 0.54455 0.0
O139 O 0.65706 0.84723 0.55869 0.0
C140 C 0.47666 -0.0222 0.39791 0.0
C141 C 0.30725 -0.03811 0.49551 0.0
C142 C 0.18588 -0.04505 0.55167 0.0
C143 C 0.67214 0.48918 0.37974 0.0
C144 C 0.78618 0.6539 0.34258 0.0
C145 C -0.06775 0.79574 0.35844 0.0
C146 C 0.74849 0.70925 0.29809 0.0
C147 C 0.81735 0.89617 0.28328 0.0
C148 C 0.01633 -0.03825 0.34146 0.0
C149 C -0.06158 0.01456 0.31109 0.0
C150 C -0.0617 0.09588 0.50469 0.0
C151 C 0.46436 0.2299 0.57513 0.0
C152 C 0.6127 0.86695 0.59742 0.0
C153 C 0.62205 0.77306 0.64026 0.0
C154 C 0.46794 0.70408 0.65863 0.0
C155 C 0.73735 0.72129 0.66423 0.0
C156 C 0.66643 0.5669 0.69412 0.0
C157 C 0.39883 0.54309 0.67146 0.0
C158 C 0.48904 0.47225 0.69183 0.0
C159 C 0.06606 -0.01412 0.4888 0.0
H160 H 0.00166 0.7747 0.38065 0.0
H161 H 0.65316 0.61226 0.27703 0.0
H162 H 0.14513 0.04996 0.35329 0.0
H163 H -0.03001 0.1459 0.31014 0.0
H164 H 0.38003 0.75193 0.65428 0.0
H165 H -0.12882 0.80102 0.66164 0.0
H166 H 0.26763 0.49524 0.66612 0.0
H167 H 0.41934 0.35084 0.70814 0.0
Gd168 Gd -0.05864 0.39029 0.79172 0.0
Gd169 Gd 0.66521 0.54314 0.85665 0.0
C170 C 0.4461 -0.07603 0.77409 0.0
C171 C 0.66956 0.29976 0.82842 0.0
C172 C 0.56265 0.89742 0.86985 0.0
C173 C 0.46712 0.80169 0.82223 0.0
C174 C 0.65755 0.14 0.88022 0.0
C175 C 0.54148 0.17071 0.77369 0.0
C176 C 0.38406 0.82744 0.74092 0.0
C177 C 0.32865 0.65657 0.74751 0.0
N178 N 0.47615 0.6525 0.81528 0.0
C179 C 0.39186 0.57589 0.77851 0.0
H180 H 0.3903 0.45684 0.77154 0.0
C181 C 0.71342 0.88123 0.92803 0.0
N182 N 0.64 0.80996 0.88906 0.0
C183 C 0.73452 0.04083 0.94566 0.0
C184 C 0.72096 0.17348 0.9238 0.0
H185 H 0.76879 0.81907 0.94656 0.0
H186 H 0.51143 0.21211 0.74216 0.0
H187 H 0.26407 0.54021 0.87466 0.0
H188 H 0.38969 0.8869 0.7112 0.0
H189 H 0.23799 0.60056 0.7233 0.0
H190 H 0.60765 0.25836 0.79803 0.0
H191 H 0.73358 0.10684 0.7275 0.0
H192 H 0.02576 0.06117 0.94429 0.0
H193 H 0.14944 0.37685 0.94139 0.0
H194 H -0.04419 0.71594 0.86208 0.0
H195 H 0.79214 0.07615 0.97725 0.0
H196 H 0.68288 0.17009 0.89254 0.0
H197 H 0.12604 -0.07917 0.89502 0.0
H198 H 0.6684 0.77716 0.75667 0.0
N199 N 0.13061 0.31829 0.83724 0.0
C200 C 0.09191 0.13453 0.91672 0.0
C201 C 0.14701 0.30875 0.91278 0.0
C202 C 0.12788 0.04628 0.88496 0.0
C203 C 0.12787 0.16355 0.83391 0.0
C204 C 0.20293 0.40126 0.87384 0.0
N205 N -0.07979 0.12363 0.77367 0.0
C206 C 0.02623 0.0574 0.78669 0.0
C207 C 0.72152 0.87994 0.73533 0.0
C208 C 0.76035 0.77982 0.76239 0.0
C209 C 0.7903 0.04269 0.74455 0.0
C210 C -0.0763 0.82101 0.7794 0.0
H211 H -0.11077 0.78847 0.76249 0.0
O212 O -0.04201 0.36719 0.71443 0.0
O213 O 0.7387 0.49725 0.77411 0.0
O214 O 0.40981 0.20291 0.85222 0.0
O215 O 0.65011 0.06833 0.81596 0.0
O216 O -0.12424 0.47245 0.72486 0.0
O217 O 0.11595 0.32848 0.75294 0.0
O218 O 0.65328 0.51314 0.92441 0.0
O219 O -0.09742 0.46517 0.87378 0.0
O220 O 0.16659 0.7489 0.80712 0.0
O221 O -0.07568 -0.0952 0.84236 0.0
O222 O -0.10047 0.47354 0.87798 0.0
O223 O 0.44191 0.32564 0.89201 0.0
C224 C 0.75269 0.50581 0.73123 0.0
C225 C -0.09356 0.67518 0.82883 0.0
C226 C 0.02123 0.79663 0.88497 0.0
C227 C 0.06861 0.31029 0.71307 0.0
C228 C 0.1193 0.19626 0.67592 0.0
C229 C 0.11517 0.05026 0.6918 0.0
C230 C 0.2123 0.23393 0.63144 0.0
C231 C 0.33056 0.16526 0.61666 0.0
C232 C 0.19714 -0.03377 0.67483 0.0
C233 C 0.3279 0.0442 0.64448 0.0
C234 C 0.40929 0.04424 0.83797 0.0
C235 C 0.01645 0.51737 0.90864 0.0
C236 C 0.50604 0.36997 0.93075 0.0
C237 C 0.40288 0.36061 0.97361 0.0
C238 C 0.48805 0.51473 0.99198 0.0
C239 C 0.23582 0.24535 -0.00243 0.0
C240 C 0.15242 0.31631 0.02747 0.0
C241 C 0.39619 0.58387 0.0048 0.0
C242 C 0.23516 0.4937 0.02516 0.0
C243 C 0.17153 -0.08352 0.82208 0.0
H244 H 0.02476 -0.01916 0.71402 0.0
H245 H 0.2105 0.32916 0.61037 0.0
H246 H 0.15658 0.83744 0.68666 0.0
H247 H 0.42772 0.01269 0.64357 0.0
H248 H 0.62378 0.60266 0.98763 0.0
H249 H 0.18162 0.11154 0.99497 0.0
H250 H 0.4795 0.71507 -0.00056 0.0
H251 H 0.18344 0.56341 0.04145 0.0
loop_
_geom_bond_atom_site_label_1
_geom_bond_atom_site_label_2
_geom_bond_distance
_geom_bond_site_symmetry_2
_ccdc_geom_bond_type
Gd0 N31 2.661 . S
Gd0 N37 2.601 . S
Gd0 O44 2.545 . S
Gd0 O45 2.606 1_655 S
Gd0 O47 2.429 . S
Gd0 O48 2.545 . S
Gd0 O49 2.412 . S
Gd0 O51 2.362 . S
Gd0 O52 2.324 . S
Gd0 C59 2.828 . S
Gd1 N10 2.661 . S
Gd1 N14 2.601 . S
Gd1 O45 2.362 . S
Gd1 O46 2.324 . S
Gd1 O50 2.545 . S
Gd1 O51 2.606 1_455 S
Gd1 O53 2.429 . S
Gd1 O54 2.545 . S
Gd1 O55 2.412 . S
Gd1 C68 2.828 . S
C2 C5 1.417 . S
C2 C7 1.431 1_655 S
C2 C8 1.412 1_565 S
C3 C6 1.437 1_455 S
C3 C7 1.317 . S
C3 H22 0.929 . S
C4 C5 1.426 . S
C4 C6 1.413 . S
C4 N14 1.359 . S
C5 C2 1.417 . S
C5 C4 1.426 . S
C5 N10 1.350 . S
C6 C3 1.437 1_655 S
C6 C4 1.413 . S
C6 C16 1.391 . S
C7 C2 1.431 1_455 S
C7 C3 1.317 . S
C7 H18 0.930 . S
C8 C2 1.412 1_545 S
C8 C9 1.355 . S
C8 H20 0.930 1_655 S
C9 C8 1.355 . S
C9 C11 1.402 1_545 S
C9 H21 0.930 . S
N10 Gd1 2.661 . S
N10 C5 1.350 . S
N10 C11 1.307 . S
C11 C9 1.402 1_565 S
C11 N10 1.307 . S
C11 H12 0.930 . S
H12 C11 0.930 . S
C13 N14 1.334 . S
C13 C15 1.394 . S
C13 H17 0.930 . S
N14 Gd1 2.601 . S
N14 C4 1.359 . S
N14 C13 1.334 . S
C15 C13 1.394 . S
C15 C16 1.359 . S
C15 H27 0.930 . S
C16 C6 1.391 . S
C16 C15 1.359 . S
C16 H28 0.929 1_655 S
H17 C13 0.930 . S
H18 C7 0.930 . S
H19 C36 0.930 . S
H20 C8 0.930 1_455 S
H21 C9 0.930 . S
H22 C3 0.929 . S
H23 C41 0.930 . S
H24 C32 0.930 1_655 S
H25 C33 0.930 . S
H26 C57 0.929 . S
H27 C15 0.930 . S
H28 C16 0.929 1_455 S
H29 C58 0.930 . S
H30 C39 0.930 . S
N31 Gd0 2.661 . S
N31 C35 1.350 . S
N31 C36 1.307 1_545 S
C32 H24 0.930 1_455 S
C32 C33 1.355 . S
C32 C34 1.412 . S
C33 H25 0.930 . S
C33 C32 1.355 . S
C33 C36 1.402 . S
C34 C32 1.412 . S
C34 C35 1.417 1_565 S
C34 C58 1.431 1_455 S
C35 N31 1.350 . S
C35 C34 1.417 1_545 S
C35 C38 1.426 . S
C36 H19 0.930 . S
C36 N31 1.307 1_565 S
C36 C33 1.402 . S
N37 Gd0 2.601 . S
N37 C38 1.359 . S
N37 C41 1.334 . S
C38 C35 1.426 . S
C38 N37 1.359 . S
C38 C42 1.413 . S
C39 H30 0.930 . S
C39 C40 1.359 . S
C39 C41 1.394 . S
C40 C39 1.359 . S
C40 C42 1.391 . S
C40 H43 0.929 1_455 S
C41 H23 0.930 . S
C41 N37 1.334 . S
C41 C39 1.394 . S
C42 C38 1.413 . S
C42 C40 1.391 . S
C42 C57 1.437 1_455 S
H43 C40 0.929 1_655 S
O44 Gd0 2.545 . S
O44 C59 1.258 . S
O45 Gd0 2.606 1_455 S
O45 Gd1 2.362 . S
O45 C56 1.284 . S
O46 Gd1 2.324 . S
O46 C66 1.254 . S
O47 Gd0 2.429 . S
O47 C66 1.268 1_655 S
O48 Gd0 2.545 . S
O48 C56 1.250 1_655 S
O49 Gd0 2.412 . S
O49 C59 1.252 . S
O50 Gd1 2.545 . S
O50 C68 1.258 . S
O51 Gd0 2.362 . S
O51 Gd1 2.606 1_655 S
O51 C67 1.284 . S
O52 Gd0 2.324 . S
O52 C75 1.250 1_545 S
O53 Gd1 2.429 . S
O53 C75 1.267 1_445 S
O54 Gd1 2.545 . S
O54 C67 1.250 1_455 S
O55 Gd1 2.412 . S
O55 C68 1.252 . S
C56 O45 1.284 . S
C56 O48 1.250 1_455 S
C57 H26 0.929 . S
C57 C42 1.437 1_655 S
C57 C58 1.317 1_545 S
C58 H29 0.930 . S
C58 C34 1.431 1_655 S
C58 C57 1.317 1_565 S
C59 Gd0 2.828 . S
C59 O44 1.258 . S
C59 O49 1.252 . S
C59 C60 1.497 . S
C60 C59 1.497 . S
C60 C61 1.395 1_554 S
C60 C62 1.380 1_544 S
C61 C60 1.395 1_556 S
C61 C64 1.398 . S
C61 H76 0.930 1_556 S
C62 C60 1.380 1_566 S
C62 C63 1.391 . S
C62 H77 0.922 1_556 S
C63 C62 1.391 . S
C63 C65 1.387 . S
C64 C61 1.398 . S
C64 C65 1.380 1_545 S
C64 H78 0.930 . S
C65 C63 1.387 . S
C65 C64 1.380 1_565 S
C65 H79 0.930 . S
C66 O46 1.254 . S
C66 O47 1.268 1_455 S
C67 O51 1.284 . S
C67 O54 1.250 1_655 S
C68 Gd1 2.828 . S
C68 O50 1.258 . S
C68 O55 1.252 . S
C68 C69 1.497 . S
C69 C68 1.497 . S
C69 C70 1.395 . S
C69 C71 1.380 . S
C70 C69 1.395 . S
C70 C73 1.398 . S
C70 H80 0.930 . S
C71 C69 1.380 . S
C71 C72 1.391 . S
C71 H81 0.930 . S
C72 C71 1.391 . S
C72 C74 1.387 . S
C73 C70 1.398 . S
C73 C74 1.380 . S
C73 H82 0.930 . S
C74 C72 1.387 . S
C74 C73 1.380 . S
C74 H83 0.930 . S
C75 O52 1.250 1_565 S
C75 O53 1.267 1_665 S
H76 C61 0.930 1_554 S
H77 C62 0.922 1_554 S
H78 C64 0.930 . S
H79 C65 0.930 . S
H80 C70 0.930 . S
H81 C71 0.930 . S
H82 C73 0.930 . S
H83 C74 0.930 . S
Gd84 N115 2.661 . S
Gd84 N121 2.601 . S
Gd84 O128 2.545 . S
Gd84 O129 2.606 1_455 S
Gd84 O131 2.429 . S
Gd84 O132 2.545 1_455 S
Gd84 O133 2.412 1_455 S
Gd84 O135 2.362 1_455 S
Gd84 O136 2.324 1_455 S
Gd84 C143 2.828 . S
Gd85 N94 2.661 . S
Gd85 N98 2.601 . S
Gd85 O129 2.362 1_565 S
Gd85 O130 2.324 1_665 S
Gd85 O134 2.545 . S
Gd85 O135 2.606 1_565 S
Gd85 O137 2.429 1_565 S
Gd85 O138 2.545 1_565 S
Gd85 O139 2.412 . S
Gd85 C152 2.828 . S
C86 C89 1.417 . S
C86 C91 1.431 . S
C86 C92 1.412 . S
C87 C90 1.437 . S
C87 C91 1.317 . S
C87 H106 0.929 1_445 S
C88 C89 1.426 . S
C88 C90 1.413 . S
C88 N98 1.359 . S
C89 C86 1.417 . S
C89 C88 1.426 . S
C89 N94 1.350 . S
C90 C87 1.437 . S
C90 C88 1.413 . S
C90 C100 1.391 1_455 S
C91 C86 1.431 . S
C91 C87 1.317 . S
C91 H102 0.930 1_545 S
C92 C86 1.412 . S
C92 C93 1.355 . S
C92 H104 0.930 . S
C93 C92 1.355 . S
C93 C95 1.402 . S
C93 H105 0.930 . S
N94 Gd85 2.661 . S
N94 C89 1.350 . S
N94 C95 1.307 . S
C95 C93 1.402 . S
C95 N94 1.307 . S
C95 H96 0.930 . S
H96 C95 0.930 . S
C97 N98 1.334 . S
C97 C99 1.394 1_455 S
C97 H101 0.930 . S
N98 Gd85 2.601 . S
N98 C88 1.359 . S
N98 C97 1.334 . S
C99 C97 1.394 1_655 S
C99 C100 1.359 . S
C99 H111 0.930 . S
C100 C90 1.391 1_655 S
C100 C99 1.359 . S
C100 H112 0.929 . S
H101 C97 0.930 . S
H102 C91 0.930 1_565 S
H103 C120 0.930 . S
H104 C92 0.930 . S
H105 C93 0.930 . S
H106 C87 0.929 1_665 S
H107 C125 0.930 . S
H108 C116 0.930 . S
H109 C117 0.930 . S
H110 C141 0.929 . S
H111 C99 0.930 . S
H112 C100 0.929 . S
H113 C142 0.930 . S
H114 C123 0.930 . S
N115 Gd84 2.661 . S
N115 C119 1.350 . S
N115 C120 1.307 1_455 S
C116 H108 0.930 . S
C116 C117 1.355 1_445 S
C116 C118 1.412 . S
C117 H109 0.930 . S
C117 C116 1.355 1_665 S
C117 C120 1.402 . S
C118 C116 1.412 . S
C118 C119 1.417 1_545 S
C118 C142 1.431 . S
C119 N115 1.350 . S
C119 C118 1.417 1_565 S
C119 C122 1.426 . S
C120 H103 0.930 . S
C120 N115 1.307 1_655 S
C120 C117 1.402 . S
N121 Gd84 2.601 . S
N121 C122 1.359 . S
N121 C125 1.334 . S
C122 C119 1.426 . S
C122 N121 1.359 . S
C122 C126 1.413 1_565 S
C123 H114 0.930 . S
C123 C124 1.359 1_565 S
C123 C125 1.394 . S
C124 C123 1.359 1_545 S
C124 C126 1.391 . S
C124 H127 0.929 . S
C125 H107 0.930 . S
C125 N121 1.334 . S
C125 C123 1.394 . S
C126 C122 1.413 1_545 S
C126 C124 1.391 . S
C126 C141 1.437 . S
H127 C124 0.929 . S
O128 Gd84 2.545 . S
O128 C143 1.258 . S
O129 Gd84 2.606 1_655 S
O129 Gd85 2.362 1_545 S
O129 C140 1.284 . S
O130 Gd85 2.324 1_445 S
O130 C150 1.254 . S
O131 Gd84 2.429 . S
O131 C150 1.268 . S
O132 Gd84 2.545 1_655 S
O132 C140 1.250 . S
O133 Gd84 2.412 1_655 S
O133 C143 1.252 1_655 S
O134 Gd85 2.545 . S
O134 C152 1.258 . S
O135 Gd84 2.362 1_655 S
O135 Gd85 2.606 1_545 S
O135 C151 1.284 . S
O136 Gd84 2.324 1_655 S
O136 C159 1.254 . S
O137 Gd85 2.429 1_545 S
O137 C159 1.268 . S
O138 Gd85 2.545 1_545 S
O138 C151 1.250 . S
O139 Gd85 2.412 . S
O139 C152 1.252 . S
C140 O129 1.284 . S
C140 O132 1.250 . S
C141 H110 0.929 . S
C141 C126 1.437 . S
C141 C142 1.317 . S
C142 H113 0.930 . S
C142 C118 1.431 . S
C142 C141 1.317 . S
C143 Gd84 2.828 . S
C143 O128 1.258 . S
C143 O133 1.252 1_455 S
C143 C144 1.497 . S
C144 C143 1.497 . S
C144 C145 1.395 . S
C144 C146 1.380 1_455 S
C145 C144 1.395 . S
C145 C148 1.398 1_565 S
C145 H160 0.930 . S
C146 C144 1.380 1_655 S
C146 C147 1.391 . S
C146 H161 0.930 . S
C147 C146 1.391 . S
C147 C149 1.387 1_665 S
C148 C145 1.398 1_545 S
C148 C149 1.380 . S
C148 H162 0.930 . S
C149 C147 1.387 1_445 S
C149 C148 1.380 . S
C149 H163 0.930 . S
C150 O130 1.254 . S
C150 O131 1.268 . S
C151 O135 1.284 . S
C151 O138 1.250 . S
C152 Gd85 2.828 . S
C152 O134 1.258 . S
C152 O139 1.252 . S
C152 C153 1.497 . S
C153 C152 1.497 . S
C153 C154 1.395 . S
C153 C155 1.380 . S
C154 C153 1.395 . S
C154 C157 1.398 . S
C154 H164 0.930 . S
C155 C153 1.380 . S
C155 C156 1.391 . S
C155 H165 0.930 . S
C156 C155 1.391 . S
C156 C158 1.387 . S
C157 C154 1.398 . S
C157 C158 1.380 . S
C157 H166 0.930 . S
C158 C156 1.387 . S
C158 C157 1.380 . S
C158 H167 0.930 . S
C159 O136 1.254 . S
C159 O137 1.268 . S
H160 C145 0.930 . S
H161 C146 0.930 . S
H162 C148 0.930 . S
H163 C149 0.930 . S
H164 C154 0.930 . S
H165 C155 0.930 . S
H166 C157 0.930 . S
H167 C158 0.930 . S
Gd168 N199 2.661 1_655 S
Gd168 N205 2.601 1_545 S
Gd168 O212 2.545 1_545 S
Gd168 O213 2.606 . S
Gd168 O215 2.429 . S
Gd168 O216 2.545 . S
Gd168 O217 2.412 1_655 S
Gd168 O219 2.362 . S
Gd168 O220 2.324 1_655 S
Gd168 C227 2.828 1_655 S
Gd169 N178 2.661 . S
Gd169 N182 2.601 . S
Gd169 O213 2.362 . S
Gd169 O214 2.324 . S
Gd169 O218 2.545 . S
Gd169 O219 2.606 . S
Gd169 O221 2.429 1_655 S
Gd169 O222 2.545 . S
Gd169 O223 2.412 . S
Gd169 C236 2.828 . S
C170 C173 1.417 . S
C170 C175 1.431 1_565 S
C170 C176 1.412 . S
C171 C174 1.437 . S
C171 C175 1.317 . S
C171 H190 0.929 . S
C172 C173 1.426 . S
C172 C174 1.413 1_565 S
C172 N182 1.359 . S
C173 C170 1.417 . S
C173 C172 1.426 . S
C173 N178 1.350 . S
C174 C171 1.437 . S
C174 C172 1.413 1_545 S
C174 C184 1.391 . S
C175 C170 1.431 1_545 S
C175 C171 1.317 . S
C175 H186 0.930 . S
C176 C170 1.412 . S
C176 C177 1.355 . S
C176 H188 0.930 . S
C177 C176 1.355 . S
C177 C179 1.402 . S
C177 H189 0.932 . S
N178 Gd169 2.661 . S
N178 C173 1.350 . S
N178 C179 1.307 . S
C179 C177 1.402 . S
C179 N178 1.307 . S
C179 H180 0.930 . S
H180 C179 0.930 . S
C181 N182 1.334 1_545 S
C181 C183 1.394 1_655 S
C181 H185 0.930 1_655 S
N182 Gd169 2.601 . S
N182 C172 1.359 . S
N182 C181 1.334 1_565 S
C183 C181 1.394 1_455 S
C183 C184 1.359 1_455 S
C183 H195 0.930 . S
C184 C174 1.391 . S
C184 C183 1.359 1_655 S
C184 H196 0.929 . S
H185 C181 0.930 1_455 S
H186 C175 0.930 . S
H187 C204 0.930 . S
H188 C176 0.930 . S
H189 C177 0.932 . S
H190 C171 0.929 . S
H191 C209 0.930 . S
H192 C200 0.930 . S
H193 C201 0.930 . S
H194 C225 0.929 . S
H195 C183 0.930 . S
H196 C184 0.929 . S
H197 C226 0.930 . S
H198 C207 0.930 . S
N199 Gd168 2.661 1_455 S
N199 C203 1.350 1_545 S
N199 C204 1.307 . S
C200 H192 0.930 . S
C200 C201 1.355 . S
C200 C202 1.412 1_545 S
C201 H193 0.930 . S
C201 C200 1.355 . S
C201 C204 1.402 . S
C202 C200 1.412 1_565 S
C202 C203 1.417 . S
C202 C226 1.431 . S
C203 N199 1.350 1_565 S
C203 C202 1.417 . S
C203 C206 1.426 . S
C204 H187 0.930 . S
C204 N199 1.307 . S
C204 C201 1.402 . S
N205 Gd168 2.601 1_565 S
N205 C206 1.359 1_655 S
N205 C209 1.334 . S
C206 C203 1.426 . S
C206 N205 1.359 1_455 S
C206 C210 1.413 1_455 S
C207 H198 0.930 . S
C207 C208 1.359 . S
C207 C209 1.394 . S
C208 C207 1.359 . S
C208 C210 1.391 . S
C208 H211 0.929 . S
C209 H191 0.930 . S
C209 N205 1.334 . S
C209 C207 1.394 . S
C210 C206 1.413 1_655 S
C210 C208 1.391 . S
C210 C225 1.437 1_655 S
H211 C208 0.929 . S
O212 Gd168 2.545 1_565 S
O212 C227 1.258 1_665 S
O213 Gd168 2.606 . S
O213 Gd169 2.362 . S
O213 C224 1.284 . S
O214 Gd169 2.324 . S
O214 C234 1.254 . S
O215 Gd168 2.429 . S
O215 C234 1.268 . S
O216 Gd168 2.545 . S
O216 C224 1.250 . S
O217 Gd168 2.412 1_455 S
O217 C227 1.252 . S
O218 Gd169 2.545 . S
O218 C236 1.258 . S
O219 Gd168 2.362 . S
O219 Gd169 2.606 . S
O219 C235 1.284 . S
O220 Gd168 2.324 1_455 S
O220 C243 1.254 . S
O221 Gd169 2.429 1_455 S
O221 C243 1.268 . S
O222 Gd169 2.545 . S
O222 C235 1.250 . S
O223 Gd169 2.412 . S
O223 C236 1.252 . S
C224 O213 1.284 . S
C224 O216 1.250 . S
C225 H194 0.929 . S
C225 C210 1.437 1_455 S
C225 C226 1.317 . S
C226 H197 0.930 . S
C226 C202 1.431 . S
C226 C225 1.317 . S
C227 Gd168 2.828 1_455 S
C227 O212 1.258 1_445 S
C227 O217 1.252 . S
C227 C228 1.497 . S
C228 C227 1.497 . S
C228 C229 1.395 1_545 S
C228 C230 1.380 . S
C229 C228 1.395 1_565 S
C229 C232 1.398 . S
C229 H244 0.930 1_455 S
C230 C228 1.380 . S
C230 C231 1.391 . S
C230 H245 0.930 . S
C231 C230 1.391 . S
C231 C233 1.387 . S
C232 C229 1.398 . S
C232 C233 1.380 1_565 S
C232 H246 0.930 . S
C233 C231 1.387 . S
C233 C232 1.380 1_545 S
C233 H247 0.930 . S
C234 O214 1.254 . S
C234 O215 1.268 . S
C235 O219 1.284 . S
C235 O222 1.250 . S
C236 Gd169 2.828 . S
C236 O218 1.258 . S
C236 O223 1.252 . S
C236 C237 1.497 . S
C237 C236 1.497 . S
C237 C238 1.395 1_556 S
C237 C239 1.380 1_556 S
C238 C237 1.395 1_554 S
C238 C241 1.398 . S
C238 H248 0.930 1_564 S
C239 C237 1.380 1_554 S
C239 C240 1.391 . S
C239 H249 0.930 1_554 S
C240 C239 1.391 . S
C240 C242 1.387 . S
C241 C238 1.398 . S
C241 C242 1.380 . S
C241 H250 0.930 1_565 S
C242 C240 1.387 . S
C242 C241 1.380 . S
C242 H251 0.930 . S
C243 O220 1.254 . S
C243 O221 1.268 . S
H244 C229 0.930 1_655 S
H245 C230 0.930 . S
H246 C232 0.930 . S
H247 C233 0.930 . S
H248 C238 0.930 1_546 S
H249 C239 0.930 1_556 S
H250 C241 0.930 1_545 S
H251 C242 0.930 . S
C66 C75 1.942 1_455 S
C159 C150 1.938 . S
C243 C234 1.939 1_565 S
C240 C56 1.352 . S
C147 C67 3.761 1_565 S
C224 C156 1.352 . S
C235 C63 3.765 1_655 S
C72 C140 1.353 1_565 S
C231 C151 3.763 . S
