# Generated by pormake.
# Topology zff, (5)-cn, num edge types: 1
# Building blocks:
#     Node 0, Type 0, BuildingBlock: BEQFEK_clean_sbu_0, # of connection points: 5
#     Node 1, Type 0, BuildingBlock: BEQFEK_clean_sbu_0, # of connection points: 5
#     Node 2, Type 0, BuildingBlock: BEQFEK_clean_sbu_0, # of connection points: 5
#     Node 3, Type 0, BuildingBlock: BEQFEK_clean_sbu_0, # of connection points: 5
#     Node 4, Type 0, BuildingBlock: BEQFEK_clean_sbu_0, # of connection points: 5
#     Node 5, Type 0, BuildingBlock: BEQFEK_clean_sbu_0, # of connection points: 5
#     Node 6, Type 0, BuildingBlock: BEQFEK_clean_sbu_0, # of connection points: 5
#     Node 7, Type 0, BuildingBlock: BEQFEK_clean_sbu_0, # of connection points: 5
#     Node 8, Type 0, BuildingBlock: BEQFEK_clean_sbu_0, # of connection points: 5
#     Node 9, Type 0, BuildingBlock: BEQFEK_clean_sbu_0, # of connection points: 5
#     Node 10, Type 0, BuildingBlock: BEQFEK_clean_sbu_0, # of connection points: 5
#     Node 11, Type 0, BuildingBlock: BEQFEK_clean_sbu_0, # of connection points: 5
#     Node 12, Type 0, BuildingBlock: BEQFEK_clean_sbu_0, # of connection points: 5
#     Node 13, Type 0, BuildingBlock: BEQFEK_clean_sbu_0, # of connection points: 5
#     Node 14, Type 0, BuildingBlock: BEQFEK_clean_sbu_0, # of connection points: 5
#     Node 15, Type 0, BuildingBlock: BEQFEK_clean_sbu_0, # of connection points: 5
#     Edge 16, Type (0, 0), BuildingBlock: ZUJKAS_clean_linker_0, # of connection points: 2
#     Edge 17, Type (0, 0), BuildingBlock: ZUJKAS_clean_linker_0, # of connection points: 2
#     Edge 18, Type (0, 0), BuildingBlock: ZUJKAS_clean_linker_0, # of connection points: 2
#     Edge 19, Type (0, 0), BuildingBlock: ZUJKAS_clean_linker_0, # of connection points: 2
#     Edge 20, Type (0, 0), BuildingBlock: ZUJKAS_clean_linker_0, # of connection points: 2
#     Edge 21, Type (0, 0), BuildingBlock: ZUJKAS_clean_linker_0, # of connection points: 2
#     Edge 22, Type (0, 0), BuildingBlock: ZUJKAS_clean_linker_0, # of connection points: 2
#     Edge 23, Type (0, 0), BuildingBlock: ZUJKAS_clean_linker_0, # of connection points: 2
#     Edge 24, Type (0, 0), BuildingBlock: ZUJKAS_clean_linker_0, # of connection points: 2
#     Edge 25, Type (0, 0), BuildingBlock: ZUJKAS_clean_linker_0, # of connection points: 2
#     Edge 26, Type (0, 0), BuildingBlock: ZUJKAS_clean_linker_0, # of connection points: 2
#     Edge 27, Type (0, 0), BuildingBlock: ZUJKAS_clean_linker_0, # of connection points: 2
#     Edge 28, Type (0, 0), BuildingBlock: ZUJKAS_clean_linker_0, # of connection points: 2
#     Edge 29, Type (0, 0), BuildingBlock: ZUJKAS_clean_linker_0, # of connection points: 2
#     Edge 30, Type (0, 0), BuildingBlock: ZUJKAS_clean_linker_0, # of connection points: 2
#     Edge 31, Type (0, 0), BuildingBlock: ZUJKAS_clean_linker_0, # of connection points: 2
#     Edge 32, Type (0, 0), BuildingBlock: ZUJKAS_clean_linker_0, # of connection points: 2
#     Edge 33, Type (0, 0), BuildingBlock: ZUJKAS_clean_linker_0, # of connection points: 2
#     Edge 34, Type (0, 0), BuildingBlock: ZUJKAS_clean_linker_0, # of connection points: 2
#     Edge 35, Type (0, 0), BuildingBlock: ZUJKAS_clean_linker_0, # of connection points: 2
#     Edge 36, Type (0, 0), BuildingBlock: ZUJKAS_clean_linker_0, # of connection points: 2
#     Edge 37, Type (0, 0), BuildingBlock: ZUJKAS_clean_linker_0, # of connection points: 2
#     Edge 38, Type (0, 0), BuildingBlock: ZUJKAS_clean_linker_0, # of connection points: 2
#     Edge 39, Type (0, 0), BuildingBlock: ZUJKAS_clean_linker_0, # of connection points: 2
#     Edge 40, Type (0, 0), BuildingBlock: ZUJKAS_clean_linker_0, # of connection points: 2
#     Edge 41, Type (0, 0), BuildingBlock: ZUJKAS_clean_linker_0, # of connection points: 2
#     Edge 42, Type (0, 0), BuildingBlock: ZUJKAS_clean_linker_0, # of connection points: 2
#     Edge 43, Type (0, 0), BuildingBlock: ZUJKAS_clean_linker_0, # of connection points: 2
#     Edge 44, Type (0, 0), BuildingBlock: ZUJKAS_clean_linker_0, # of connection points: 2
#     Edge 45, Type (0, 0), BuildingBlock: ZUJKAS_clean_linker_0, # of connection points: 2
#     Edge 46, Type (0, 0), BuildingBlock: ZUJKAS_clean_linker_0, # of connection points: 2
#     Edge 47, Type (0, 0), BuildingBlock: ZUJKAS_clean_linker_0, # of connection points: 2
#     Edge 48, Type (0, 0), BuildingBlock: ZUJKAS_clean_linker_0, # of connection points: 2
#     Edge 49, Type (0, 0), BuildingBlock: ZUJKAS_clean_linker_0, # of connection points: 2
#     Edge 50, Type (0, 0), BuildingBlock: ZUJKAS_clean_linker_0, # of connection points: 2
#     Edge 51, Type (0, 0), BuildingBlock: ZUJKAS_clean_linker_0, # of connection points: 2
#     Edge 52, Type (0, 0), BuildingBlock: ZUJKAS_clean_linker_0, # of connection points: 2
#     Edge 53, Type (0, 0), BuildingBlock: ZUJKAS_clean_linker_0, # of connection points: 2
#     Edge 54, Type (0, 0), BuildingBlock: ZUJKAS_clean_linker_0, # of connection points: 2
#     Edge 55, Type (0, 0), BuildingBlock: ZUJKAS_clean_linker_0, # of connection points: 2
# Relax obj value: 0.067
# Max RMSD: 0.107
# Mean RMSD: 0.107
data_MOF--net-zff--node1-BEQFEK_clean_sbu_0--edge1-ZUJKAS_clean_linker_0
_symmetry_space_group_name_H-M    P1
_symmetry_Int_Tables_number       1
_symmetry_cell_setting            triclinic
loop_
_symmetry_equiv_pos_as_xyz
'x, y, z'
_cell_length_a     47.296437
_cell_length_b     47.299008
_cell_length_c     89.817164
_cell_angle_alpha  90.051823
_cell_angle_beta   89.967542
_cell_angle_gamma 89.999892
loop_
_atom_site_label
_atom_site_type_symbol
_atom_site_fract_x
_atom_site_fract_y
_atom_site_fract_z
_atom_type_partial_charge
Co0 Co 0.04733 0.27122 0.40182 0.0
Co1 Co 0.0511 0.28361 0.36746 0.0
C2 C 0.08862 0.24073 0.38252 0.0
O3 O 0.07799 0.24556 0.39533 0.0
O4 O 0.08012 0.25393 0.37099 0.0
C5 C 0.05833 0.26731 0.4344 0.0
O6 O 0.08565 0.26759 0.43176 0.0
C7 C 0.07708 0.30169 0.33908 0.0
C8 C 0.03913 0.31136 0.32568 0.0
C9 C 0.06841 0.31124 0.32517 0.0
N10 N 0.05394 0.29647 0.34736 0.0
N11 N 0.03136 0.30209 0.33923 0.0
C12 C 0.10661 0.29941 0.3449 0.0
H13 H 0.10668 0.30113 0.35723 0.0
H14 H 0.12024 0.31609 0.34001 0.0
H15 H 0.11539 0.27846 0.3418 0.0
C16 C 0.05286 0.33333 0.40306 0.0
N17 N 0.05391 0.30878 0.3955 0.0
N18 N 0.055 0.31418 0.38113 0.0
C19 C 0.05445 0.34241 0.3791 0.0
C20 C 0.05297 0.35551 0.39295 0.0
C21 C 0.0495 0.33535 0.41959 0.0
H22 H 0.06658 0.32312 0.42504 0.0
H23 H 0.05057 0.35756 0.42353 0.0
H24 H 0.02895 0.32594 0.4229 0.0
O25 O 0.011 0.25812 0.39359 0.0
O26 O 0.01282 0.267 0.3694 0.0
H27 H 0.03182 0.34689 0.35865 0.0
H28 H 0.04772 0.37927 0.36505 0.0
C29 C 0.05061 0.35609 0.36421 0.0
H30 H 0.06937 0.35164 0.35718 0.0
H31 H 0.01058 0.29995 0.34301 0.0
O32 O 0.041 0.26899 0.42364 0.0
C33 C -0.00033 0.25778 0.38076 0.0
Co34 Co 0.72417 0.0516 0.40182 0.0
Co35 Co 0.71149 0.05462 0.36743 0.0
C36 C 0.74808 0.09762 0.38265 0.0
O37 O 0.74454 0.08618 0.39537 0.0
O38 O 0.73665 0.08742 0.37097 0.0
C39 C 0.71982 0.06328 0.43415 0.0
O40 O 0.70828 0.08777 0.43089 0.0
C41 C 0.6932 0.07703 0.33814 0.0
C42 C 0.68275 0.03738 0.32634 0.0
C43 C 0.68328 0.0665 0.32464 0.0
N44 N 0.69823 0.05508 0.3473 0.0
N45 N 0.69211 0.03149 0.34012 0.0
C46 C 0.69575 0.10731 0.34276 0.0
H47 H 0.69341 0.10927 0.35502 0.0
H48 H 0.67953 0.12046 0.33713 0.0
H49 H 0.71699 0.11525 0.33961 0.0
C50 C 0.66166 0.04602 0.40265 0.0
N51 N 0.686 0.05151 0.3954 0.0
N52 N 0.68066 0.05439 0.38109 0.0
C53 C 0.65261 0.05186 0.37888 0.0
C54 C 0.63965 0.04617 0.39243 0.0
C55 C 0.66019 0.03639 0.41852 0.0
H56 H 0.67903 0.02351 0.42128 0.0
H57 H 0.6597 0.05517 0.42592 0.0
H58 H 0.641 0.02355 0.42066 0.0
O59 O 0.74328 0.01828 0.39364 0.0
O60 O 0.7335 0.01886 0.3695 0.0
H61 H 0.64281 0.03477 0.35745 0.0
H62 H 0.61539 0.05706 0.36514 0.0
C63 C 0.63858 0.05421 0.364 0.0
H64 H 0.64734 0.07254 0.35788 0.0
H65 H 0.69401 0.0113 0.34472 0.0
O66 O 0.72736 0.04675 0.42372 0.0
C67 C 0.74507 0.00729 0.38076 0.0
Co68 Co 0.94636 0.72012 0.40219 0.0
Co69 Co 0.94183 0.71145 0.36744 0.0
C70 C 0.90341 0.75118 0.38431 0.0
O71 O 0.9144 0.74533 0.39689 0.0
O72 O 0.91224 0.73964 0.37236 0.0
C73 C 0.93511 0.71816 0.43465 0.0
O74 O 0.90807 0.71547 0.43163 0.0
C75 C 0.91514 0.69403 0.33894 0.0
C76 C 0.95227 0.69354 0.32401 0.0
C77 C 0.92334 0.68896 0.32429 0.0
N78 N 0.93826 0.70102 0.3469 0.0
N79 N 0.96032 0.70069 0.33787 0.0
C80 C 0.88581 0.6934 0.3452 0.0
H81 H 0.88447 0.7062 0.3555 0.0
H82 H 0.88016 0.6713 0.34807 0.0
H83 H 0.87038 0.7013 0.33688 0.0
C84 C 0.94477 0.65769 0.40126 0.0
N85 N 0.94146 0.683 0.39462 0.0
N86 N 0.93977 0.67932 0.3801 0.0
C87 C 0.94202 0.65152 0.37707 0.0
C88 C 0.94531 0.6369 0.39035 0.0
C89 C 0.95208 0.65414 0.41736 0.0
H90 H 0.97035 0.66785 0.42017 0.0
H91 H 0.93384 0.66091 0.42425 0.0
H92 H 0.9574 0.63193 0.42015 0.0
O93 O 0.98176 0.73573 0.39408 0.0
O94 O 0.97965 0.72917 0.36966 0.0
H95 H 0.96228 0.6489 0.3558 0.0
H96 H 0.946 0.61614 0.3618 0.0
C97 C 0.94391 0.6395 0.36167 0.0
H98 H 0.92454 0.64505 0.35542 0.0
H99 H 0.98095 0.7055 0.34116 0.0
O100 O 0.95283 0.72004 0.42406 0.0
C101 C 0.99271 0.7378 0.38119 0.0
Co102 Co 0.27114 0.94281 0.4022 0.0
Co103 Co 0.28352 0.93811 0.36779 0.0
C104 C 0.24672 0.89614 0.3834 0.0
O105 O 0.25039 0.90818 0.39596 0.0
O106 O 0.25829 0.90561 0.3716 0.0
C107 C 0.27904 0.93237 0.43427 0.0
O108 O 0.29396 0.91 0.43057 0.0
C109 C 0.30146 0.91483 0.33859 0.0
C110 C 0.31209 0.95411 0.32652 0.0
C111 C 0.31138 0.92496 0.325 0.0
N112 N 0.29662 0.93705 0.34763 0.0
N113 N 0.30284 0.96042 0.34029 0.0
C114 C 0.29875 0.88469 0.34341 0.0
H115 H 0.30108 0.88303 0.35567 0.0
H116 H 0.31489 0.87131 0.33785 0.0
H117 H 0.27746 0.87678 0.34032 0.0
C118 C 0.33376 0.94895 0.40262 0.0
N119 N 0.30931 0.94274 0.39562 0.0
N120 N 0.31448 0.93868 0.38137 0.0
C121 C 0.34252 0.94082 0.37899 0.0
C122 C 0.35566 0.94764 0.39235 0.0
C123 C 0.33552 0.96093 0.41804 0.0
H124 H 0.31573 0.97221 0.4209 0.0
H125 H 0.339 0.94351 0.42608 0.0
H126 H 0.35342 0.97598 0.41906 0.0
O127 O 0.25218 0.97601 0.39386 0.0
O128 O 0.26139 0.97392 0.36967 0.0
H129 H 0.35262 0.95601 0.35723 0.0
H130 H 0.3795 0.93363 0.36531 0.0
C131 C 0.35639 0.93698 0.36415 0.0
H132 H 0.34712 0.91843 0.35841 0.0
H133 H 0.30111 0.98073 0.34477 0.0
O134 O 0.26811 0.9476 0.42415 0.0
C135 C 0.25014 0.98624 0.38082 0.0
Co136 Co 0.04781 0.71524 0.61495 0.0
Co137 Co 0.05224 0.71099 0.64993 0.0
C138 C 0.08926 0.75007 0.63222 0.0
O139 O 0.07812 0.74293 0.61984 0.0
O140 O 0.08129 0.73905 0.64445 0.0
C141 C 0.04024 0.73322 0.58491 0.0
O142 O 0.04176 0.75838 0.59107 0.0
C143 C 0.07819 0.69662 0.67901 0.0
C144 C 0.04051 0.69599 0.69355 0.0
C145 C 0.06953 0.69195 0.69363 0.0
N146 N 0.05525 0.70275 0.67074 0.0
N147 N 0.03286 0.70244 0.67954 0.0
C148 C 0.10773 0.69621 0.67301 0.0
H149 H 0.10933 0.7092 0.6628 0.0
H150 H 0.11356 0.67419 0.67005 0.0
H151 H 0.12288 0.70407 0.68149 0.0
C152 C 0.05267 0.65359 0.61772 0.0
N153 N 0.05462 0.67961 0.62371 0.0
N154 N 0.05559 0.67751 0.63832 0.0
C155 C 0.0541 0.64999 0.64208 0.0
C156 C 0.05211 0.63391 0.62917 0.0
C157 C 0.04621 0.64833 0.60164 0.0
H158 H 0.02542 0.65787 0.59889 0.0
H159 H 0.06248 0.65877 0.59464 0.0
H160 H 0.04561 0.62546 0.59895 0.0
O161 O 0.01088 0.7292 0.62209 0.0
O162 O 0.01443 0.72814 0.64678 0.0
H163 H 0.03264 0.64938 0.66307 0.0
H164 H 0.04938 0.61615 0.6582 0.0
C165 C 0.05136 0.6395 0.65773 0.0
H166 H 0.07036 0.64573 0.66413 0.0
H167 H 0.01226 0.70653 0.67596 0.0
O168 O 0.0436 0.71148 0.59303 0.0
C169 C 0.00059 0.73352 0.63497 0.0
Co170 Co 0.27236 0.04938 0.61307 0.0
Co171 Co 0.27716 0.05548 0.64798 0.0
C172 C 0.24143 0.09475 0.62953 0.0
O173 O 0.2484 0.08279 0.61735 0.0
O174 O 0.25101 0.08614 0.64197 0.0
C175 C 0.28217 0.05734 0.58056 0.0
O176 O 0.29335 0.08224 0.58329 0.0
C177 C 0.29283 0.08216 0.67685 0.0
C178 C 0.29191 0.04501 0.69173 0.0
C179 C 0.29722 0.07382 0.69155 0.0
N180 N 0.28567 0.0592 0.66879 0.0
N181 N 0.28504 0.03716 0.6778 0.0
C182 C 0.29452 0.11143 0.67059 0.0
H183 H 0.28148 0.11328 0.66041 0.0
H184 H 0.31674 0.11615 0.66752 0.0
H185 H 0.28745 0.1272 0.67896 0.0
C186 C 0.33466 0.04655 0.61608 0.0
N187 N 0.30885 0.0523 0.6217 0.0
N188 N 0.31084 0.05518 0.63627 0.0
C189 C 0.33805 0.0517 0.64031 0.0
C190 C 0.354 0.04608 0.62768 0.0
C191 C 0.33975 0.03654 0.60048 0.0
H192 H 0.32264 0.02191 0.59704 0.0
H193 H 0.33971 0.05501 0.59289 0.0
H194 H 0.36034 0.02553 0.59935 0.0
O195 O 0.25419 0.01529 0.62105 0.0
O196 O 0.25751 0.01855 0.64563 0.0
H197 H 0.33773 0.03325 0.66205 0.0
H198 H 0.37143 0.04841 0.65677 0.0
C199 C 0.34816 0.05095 0.65609 0.0
H200 H 0.34233 0.07096 0.6617 0.0
H201 H 0.28004 0.01662 0.67442 0.0
O202 O 0.27325 0.04221 0.59126 0.0
C203 C 0.24983 0.00525 0.63398 0.0
Co204 Co 0.93494 0.27232 0.61235 0.0
Co205 Co 0.93534 0.27835 0.64725 0.0
C206 C 0.89298 0.24175 0.63081 0.0
O207 O 0.90259 0.2481 0.61798 0.0
O208 O 0.90389 0.25189 0.64264 0.0
C209 C 0.94333 0.25306 0.58272 0.0
O210 O 0.94297 0.22829 0.58934 0.0
C211 C 0.91178 0.29716 0.67606 0.0
C212 C 0.94848 0.29153 0.69097 0.0
C213 C 0.92047 0.3002 0.69079 0.0
N214 N 0.93372 0.28741 0.668 0.0
N215 N 0.95555 0.28408 0.677 0.0
C216 C 0.88289 0.30199 0.66976 0.0
H217 H 0.88013 0.29008 0.65923 0.0
H218 H 0.88021 0.32479 0.66725 0.0
H219 H 0.86641 0.29561 0.6779 0.0
C220 C 0.93451 0.33431 0.61448 0.0
N221 N 0.93208 0.30872 0.62086 0.0
N222 N 0.9333 0.31153 0.63542 0.0
C223 C 0.93712 0.33905 0.63877 0.0
C224 C 0.93797 0.35441 0.62558 0.0
C225 C 0.93593 0.33899 0.59802 0.0
H226 H 0.91907 0.32659 0.59244 0.0
H227 H 0.93338 0.36169 0.5952 0.0
H228 H 0.95665 0.33144 0.5938 0.0
O229 O 0.97061 0.25458 0.61892 0.0
O230 O 0.97195 0.25921 0.64349 0.0
H231 H 0.95463 0.37079 0.65364 0.0
H232 H 0.92538 0.35071 0.66091 0.0
C233 C 0.94476 0.34955 0.65399 0.0
H234 H 0.95967 0.33462 0.65935 0.0
H235 H 0.97532 0.27661 0.6736 0.0
O236 O 0.9387 0.27515 0.59041 0.0
C237 C 0.98307 0.25095 0.63132 0.0
Co238 Co 0.71682 0.94042 0.61232 0.0
Co239 Co 0.7097 0.93601 0.64714 0.0
C240 C 0.74972 0.89859 0.62999 0.0
O241 O 0.74381 0.9102 0.61758 0.0
O242 O 0.73786 0.90621 0.64209 0.0
C243 C 0.73639 0.95455 0.58356 0.0
O244 O 0.7599 0.95855 0.59107 0.0
C245 C 0.69191 0.91047 0.67584 0.0
C246 C 0.69442 0.94759 0.69073 0.0
C247 C 0.68792 0.91902 0.69055 0.0
N248 N 0.70016 0.93306 0.66781 0.0
N249 N 0.70162 0.95511 0.67681 0.0
C250 C 0.68942 0.88125 0.66958 0.0
H251 H 0.70169 0.87934 0.65911 0.0
H252 H 0.66694 0.87678 0.66699 0.0
H253 H 0.69691 0.8654 0.67778 0.0
C254 C 0.65505 0.93398 0.61372 0.0
N255 N 0.68053 0.93345 0.62034 0.0
N256 N 0.67712 0.93291 0.63488 0.0
C257 C 0.64925 0.93373 0.63799 0.0
C258 C 0.6343 0.93436 0.62465 0.0
C259 C 0.65087 0.93613 0.59724 0.0
H260 H 0.65649 0.95779 0.59353 0.0
H261 H 0.66511 0.92102 0.59149 0.0
H262 H 0.62866 0.93153 0.59408 0.0
O263 O 0.73092 0.97688 0.61986 0.0
O264 O 0.72676 0.97405 0.6444 0.0
H265 H 0.65103 0.95408 0.65932 0.0
H266 H 0.61566 0.947 0.65296 0.0
C267 C 0.63757 0.93872 0.65328 0.0
H268 H 0.63763 0.91852 0.65953 0.0
H269 H 0.70762 0.97538 0.67345 0.0
O270 O 0.71477 0.94522 0.59039 0.0
C271 C 0.7338 0.98765 0.63274 0.0
Co272 Co 0.55365 0.77691 0.90304 0.0
Co273 Co 0.554 0.78397 0.86812 0.0
C274 C 0.59275 0.74325 0.88418 0.0
O275 O 0.58355 0.75003 0.89705 0.0
O276 O 0.58305 0.75475 0.87241 0.0
C277 C 0.54143 0.75786 0.93224 0.0
O278 O 0.53768 0.73392 0.92507 0.0
C279 C 0.57799 0.80066 0.83891 0.0
C280 C 0.53989 0.79898 0.82472 0.0
C281 C 0.56866 0.80451 0.82434 0.0
N282 N 0.55568 0.79337 0.8474 0.0
N283 N 0.53301 0.79246 0.83882 0.0
C284 C 0.60768 0.80228 0.84459 0.0
H285 H 0.60982 0.79046 0.85518 0.0
H286 H 0.61318 0.82469 0.84678 0.0
H287 H 0.62268 0.7938 0.83619 0.0
C288 C 0.56096 0.83853 0.90144 0.0
N289 N 0.56005 0.81305 0.89483 0.0
N290 N 0.55915 0.81643 0.88029 0.0
C291 C 0.55887 0.84431 0.8772 0.0
C292 C 0.56009 0.85926 0.89054 0.0
C293 C 0.56068 0.84281 0.91796 0.0
H294 H 0.53928 0.83788 0.92231 0.0
H295 H 0.57593 0.82812 0.92326 0.0
H296 H 0.56627 0.86488 0.92096 0.0
O297 O 0.51662 0.7625 0.89633 0.0
O298 O 0.51606 0.76763 0.8718 0.0
H299 H 0.5365 0.8432 0.85644 0.0
H300 H 0.54546 0.87834 0.86259 0.0
C301 C 0.55288 0.85613 0.86206 0.0
H302 H 0.57245 0.8553 0.85528 0.0
H303 H 0.5128 0.78716 0.84259 0.0
O304 O 0.55009 0.77933 0.92506 0.0
C305 C 0.50413 0.76004 0.88385 0.0
Co306 Co 0.21871 0.55334 0.90359 0.0
Co307 Co 0.21296 0.55591 0.86874 0.0
C308 C 0.25091 0.59563 0.88628 0.0
O309 O 0.24397 0.58524 0.89885 0.0
O310 O 0.24062 0.58606 0.87415 0.0
C311 C 0.22496 0.5605 0.93617 0.0
O312 O 0.23736 0.58492 0.93376 0.0
C313 C 0.19534 0.58154 0.84014 0.0
C314 C 0.20026 0.5452 0.82489 0.0
C315 C 0.1925 0.57344 0.82531 0.0
N316 N 0.2042 0.55902 0.84802 0.0
N317 N 0.20707 0.53741 0.83882 0.0
C318 C 0.19127 0.61035 0.84669 0.0
H319 H 0.20295 0.61235 0.85734 0.0
H320 H 0.16849 0.6137 0.84903 0.0
H321 H 0.19841 0.62686 0.83876 0.0
C322 C 0.15692 0.5571 0.90156 0.0
N323 N 0.18258 0.55843 0.89518 0.0
N324 N 0.17972 0.5582 0.8806 0.0
C325 C 0.15203 0.55598 0.87725 0.0
C326 C 0.13664 0.55523 0.89046 0.0
C327 C 0.15222 0.55563 0.91803 0.0
H328 H 0.16585 0.5714 0.92369 0.0
H329 H 0.12978 0.55979 0.92091 0.0
H330 H 0.15823 0.53431 0.92209 0.0
O331 O 0.23528 0.51788 0.89606 0.0
O332 O 0.23076 0.51837 0.87153 0.0
H333 H 0.11965 0.5406 0.86215 0.0
H334 H 0.14038 0.56994 0.8555 0.0
C335 C 0.14114 0.54994 0.86192 0.0
H336 H 0.15559 0.53515 0.85611 0.0
H337 H 0.21382 0.5173 0.84204 0.0
O338 O 0.21579 0.54613 0.92525 0.0
C339 C 0.23857 0.50615 0.88344 0.0
Co340 Co 0.43947 0.21909 0.90206 0.0
Co341 Co 0.43596 0.21371 0.8671 0.0
C342 C 0.39453 0.24862 0.88493 0.0
O343 O 0.40565 0.24197 0.89737 0.0
O344 O 0.40444 0.23931 0.87268 0.0
C345 C 0.42937 0.21248 0.9346 0.0
O346 O 0.40311 0.20516 0.9318 0.0
C347 C 0.41069 0.19723 0.83807 0.0
C348 C 0.44796 0.20028 0.82333 0.0
C349 C 0.41938 0.19385 0.82335 0.0
N350 N 0.43322 0.205 0.84629 0.0
N351 N 0.45537 0.2068 0.83737 0.0
C352 C 0.38141 0.19415 0.84419 0.0
H353 H 0.3791 0.20609 0.85473 0.0
H354 H 0.37727 0.17153 0.84659 0.0
H355 H 0.36555 0.20159 0.83597 0.0
C356 C 0.44364 0.15704 0.89937 0.0
N357 N 0.43778 0.18256 0.89348 0.0
N358 N 0.43627 0.18027 0.87888 0.0
C359 C 0.44104 0.15316 0.87504 0.0
C360 C 0.44598 0.13758 0.88787 0.0
C361 C 0.45181 0.15263 0.9153 0.0
H362 H 0.46818 0.16827 0.91851 0.0
H363 H 0.43302 0.1561 0.92246 0.0
H364 H 0.46007 0.13104 0.91734 0.0
O365 O 0.47337 0.2383 0.89446 0.0
O366 O 0.47244 0.23389 0.86989 0.0
H367 H 0.46158 0.15423 0.85382 0.0
H368 H 0.44757 0.11984 0.85877 0.0
C369 C 0.44386 0.14298 0.85933 0.0
H370 H 0.42418 0.14782 0.85317 0.0
H371 H 0.47561 0.21259 0.84087 0.0
O372 O 0.44601 0.21814 0.9239 0.0
C373 C 0.48446 0.24244 0.88175 0.0
Co374 Co 0.77271 0.44185 0.90191 0.0
Co375 Co 0.77952 0.43678 0.86701 0.0
C376 C 0.74359 0.39633 0.88482 0.0
O377 O 0.74972 0.40796 0.89723 0.0
O378 O 0.75363 0.40557 0.87259 0.0
C379 C 0.77832 0.43318 0.93465 0.0
O380 O 0.7849 0.40659 0.93222 0.0
C381 C 0.79608 0.41142 0.83789 0.0
C382 C 0.79586 0.44945 0.82364 0.0
C383 C 0.80073 0.42058 0.82336 0.0
N384 N 0.78908 0.43397 0.8463 0.0
N385 N 0.78897 0.45656 0.83766 0.0
C386 C 0.79727 0.38174 0.84363 0.0
H387 H 0.78446 0.37952 0.85388 0.0
H388 H 0.81947 0.37637 0.84642 0.0
H389 H 0.78967 0.36667 0.83504 0.0
C390 C 0.83509 0.4446 0.89985 0.0
N391 N 0.80958 0.43961 0.89372 0.0
N392 N 0.81245 0.4373 0.87917 0.0
C393 C 0.83992 0.44057 0.87563 0.0
C394 C 0.85515 0.4454 0.88858 0.0
C395 C 0.83929 0.45289 0.91579 0.0
H396 H 0.82374 0.46944 0.91889 0.0
H397 H 0.83554 0.43419 0.92297 0.0
H398 H 0.86091 0.461 0.91791 0.0
O399 O 0.75368 0.47537 0.89378 0.0
O400 O 0.75906 0.47317 0.8693 0.0
H401 H 0.84162 0.45931 0.85398 0.0
H402 H 0.87445 0.44294 0.85976 0.0
C403 C 0.85107 0.44119 0.86003 0.0
H404 H 0.84489 0.42148 0.85423 0.0
H405 H 0.78413 0.47694 0.84136 0.0
O406 O 0.77323 0.4494 0.9237 0.0
C407 C 0.74992 0.48572 0.88088 0.0
Co408 Co 0.55207 0.21728 0.11289 0.0
Co409 Co 0.5547 0.20866 0.14764 0.0
C410 C 0.59376 0.24868 0.1315 0.0
O411 O 0.58312 0.24283 0.11882 0.0
O412 O 0.58477 0.23697 0.14339 0.0
C413 C 0.53857 0.23686 0.08376 0.0
O414 O 0.53387 0.26061 0.09095 0.0
C415 C 0.57929 0.19082 0.17639 0.0
C416 C 0.54085 0.18625 0.19017 0.0
C417 C 0.56999 0.18323 0.19054 0.0
N418 N 0.55663 0.19788 0.16813 0.0
N419 N 0.53379 0.19534 0.17649 0.0
C420 C 0.60871 0.18933 0.17034 0.0
H421 H 0.60826 0.18736 0.15802 0.0
H422 H 0.62031 0.1712 0.17526 0.0
H423 H 0.62009 0.20909 0.17325 0.0
C424 C 0.5566 0.15543 0.11357 0.0
N425 N 0.55777 0.18058 0.12051 0.0
N426 N 0.55797 0.17657 0.135 0.0
C427 C 0.55641 0.14859 0.13775 0.0
C428 C 0.55541 0.13425 0.12422 0.0
C429 C 0.55429 0.15197 0.09705 0.0
H430 H 0.57024 0.16551 0.09147 0.0
H431 H 0.55766 0.12965 0.09364 0.0
H432 H 0.533 0.15892 0.09338 0.0
O433 O 0.51561 0.23218 0.12026 0.0
O434 O 0.51709 0.2262 0.14473 0.0
H435 H 0.54561 0.1137 0.15246 0.0
H436 H 0.5704 0.13911 0.15979 0.0
C437 C 0.55115 0.13644 0.15289 0.0
H438 H 0.53362 0.14809 0.15834 0.0
H439 H 0.51326 0.1993 0.17276 0.0
O440 O 0.54801 0.21568 0.09091 0.0
C441 C 0.50425 0.23438 0.13305 0.0
Co442 Co 0.77779 0.54991 0.1139 0.0
Co443 Co 0.78223 0.5529 0.14894 0.0
C444 C 0.74499 0.5924 0.13116 0.0
O445 O 0.7522 0.58186 0.11865 0.0
O446 O 0.75506 0.58304 0.14336 0.0
C447 C 0.76551 0.55269 0.08194 0.0
O448 O 0.74386 0.56872 0.08553 0.0
C449 C 0.79742 0.57805 0.17816 0.0
C450 C 0.79523 0.54041 0.19266 0.0
C451 C 0.80088 0.56915 0.19281 0.0
N452 N 0.79034 0.55549 0.16979 0.0
N453 N 0.78902 0.53312 0.17856 0.0
C454 C 0.79963 0.60754 0.17225 0.0
H455 H 0.78752 0.60973 0.16175 0.0
H456 H 0.8221 0.6124 0.16981 0.0
H457 H 0.79182 0.62298 0.1806 0.0
C458 C 0.83965 0.55262 0.11679 0.0
N459 N 0.81367 0.55469 0.12281 0.0
N460 N 0.81581 0.55507 0.13742 0.0
C461 C 0.84329 0.55279 0.14116 0.0
C462 C 0.8593 0.5512 0.12822 0.0
C463 C 0.84493 0.54742 0.10058 0.0
H464 H 0.83581 0.52664 0.09743 0.0
H465 H 0.83415 0.56396 0.09393 0.0
H466 H 0.8678 0.54743 0.09788 0.0
O467 O 0.76066 0.5144 0.12107 0.0
O468 O 0.76405 0.51565 0.14569 0.0
H469 H 0.8428 0.53105 0.16206 0.0
H470 H 0.87691 0.54592 0.1572 0.0
C471 C 0.85371 0.54924 0.15678 0.0
H472 H 0.84859 0.56847 0.16328 0.0
H473 H 0.78385 0.51279 0.17492 0.0
O474 O 0.78209 0.54406 0.09209 0.0
C475 C 0.75664 0.50315 0.13376 0.0
Co476 Co 0.44087 0.77034 0.11372 0.0
Co477 Co 0.43892 0.77916 0.14852 0.0
C478 C 0.3964 0.74299 0.13236 0.0
O479 O 0.40721 0.748 0.11961 0.0
O480 O 0.40674 0.75365 0.1442 0.0
C481 C 0.42955 0.77487 0.08115 0.0
O482 O 0.40337 0.78229 0.0841 0.0
C483 C 0.41505 0.7966 0.17755 0.0
C484 C 0.45388 0.80243 0.19086 0.0
C485 C 0.42469 0.80462 0.19157 0.0
N486 N 0.43756 0.79012 0.16902 0.0
N487 N 0.46065 0.79337 0.17711 0.0
C488 C 0.38537 0.79748 0.17182 0.0
H489 H 0.38531 0.7998 0.15953 0.0
H490 H 0.37348 0.81518 0.17699 0.0
H491 H 0.37461 0.77735 0.17469 0.0
C492 C 0.44387 0.83284 0.11467 0.0
N493 N 0.4395 0.80769 0.12132 0.0
N494 N 0.43845 0.81139 0.13585 0.0
C495 C 0.44184 0.83907 0.13887 0.0
C496 C 0.4455 0.85353 0.12558 0.0
C497 C 0.4508 0.83622 0.0985 0.0
H498 H 0.46693 0.82039 0.0952 0.0
H499 H 0.43146 0.8324 0.09184 0.0
H500 H 0.45888 0.85768 0.09594 0.0
O501 O 0.47507 0.75177 0.12131 0.0
O502 O 0.47506 0.75834 0.14575 0.0
H503 H 0.46276 0.84267 0.15988 0.0
H504 H 0.44495 0.87463 0.15403 0.0
C505 C 0.44375 0.85121 0.15423 0.0
H506 H 0.42484 0.84493 0.1607 0.0
H507 H 0.48113 0.78995 0.17313 0.0
O508 O 0.44649 0.76965 0.09178 0.0
C509 C 0.48659 0.74866 0.13399 0.0
Co510 Co 0.22328 0.44072 0.11406 0.0
Co511 Co 0.21298 0.43724 0.1486 0.0
C512 C 0.2519 0.39692 0.13245 0.0
O513 O 0.2471 0.40815 0.11979 0.0
O514 O 0.24017 0.40618 0.14429 0.0
C515 C 0.22579 0.43143 0.08119 0.0
O516 O 0.22735 0.40398 0.08325 0.0
C517 C 0.19458 0.41305 0.17747 0.0
C518 C 0.18886 0.45204 0.19071 0.0
C519 C 0.1865 0.42288 0.19145 0.0
N520 N 0.20127 0.43547 0.16894 0.0
N521 N 0.19801 0.45864 0.17698 0.0
C522 C 0.19408 0.38329 0.17185 0.0
H523 H 0.19193 0.38304 0.15954 0.0
H524 H 0.17645 0.37131 0.17702 0.0
H525 H 0.21429 0.3728 0.17481 0.0
C526 C 0.161 0.43905 0.114 0.0
N527 N 0.18588 0.43655 0.12111 0.0
N528 N 0.18134 0.43562 0.13557 0.0
C529 C 0.15333 0.43773 0.13811 0.0
C530 C 0.13951 0.44007 0.1245 0.0
C531 C 0.15813 0.4426 0.09752 0.0
H532 H 0.16983 0.42542 0.0918 0.0
H533 H 0.13568 0.44195 0.09396 0.0
H534 H 0.16764 0.46307 0.09415 0.0
O535 O 0.23939 0.47589 0.12212 0.0
O536 O 0.23192 0.47436 0.14643 0.0
H537 H 0.11777 0.44644 0.1528 0.0
H538 H 0.14437 0.42286 0.16006 0.0
C539 C 0.14076 0.44205 0.15325 0.0
H540 H 0.15145 0.46007 0.15879 0.0
H541 H 0.20163 0.47907 0.17301 0.0
O542 O 0.2238 0.44786 0.09233 0.0
C543 C 0.24125 0.48703 0.13496 0.0
H544 H 0.99342 0.6149 0.37887 0.0
H545 H 0.01166 0.56675 0.38193 0.0
H546 H 0.93979 0.54582 0.4094 0.0
H547 H 0.92132 0.5941 0.4062 0.0
H548 H 0.02451 0.5376 0.4095 0.0
H549 H 0.94096 0.48482 0.37581 0.0
H550 H 0.94756 0.52236 0.3748 0.0
H551 H 0.92898 0.50785 0.39046 0.0
C552 C 0.98144 0.59987 0.38544 0.0
C553 C 0.95582 0.60779 0.39212 0.0
C554 C 0.99193 0.57255 0.38726 0.0
C555 C 0.97691 0.55277 0.39576 0.0
C556 C 0.95146 0.56076 0.40263 0.0
H557 H 0.00568 0.37302 0.40727 0.0
H558 H 0.98847 0.4215 0.41008 0.0
C559 C 0.94097 0.58819 0.40083 0.0
C560 C 0.98794 0.52372 0.39724 0.0
H561 H 0.97538 0.4556 0.38676 0.0
C562 C 0.01377 0.51959 0.4046 0.0
C563 C 0.97378 0.50042 0.39082 0.0
C564 C 0.94638 0.50393 0.38242 0.0
C565 C 0.02589 0.49259 0.40573 0.0
C566 C 0.012 0.46936 0.39905 0.0
C567 C 0.98595 0.47348 0.39188 0.0
C568 C 0.02428 0.4406 0.39895 0.0
C569 C 0.05325 0.48917 0.41416 0.0
C570 C 0.0503 0.43533 0.39192 0.0
C571 C 0.0603 0.40765 0.39046 0.0
C572 C 0.04428 0.38494 0.39589 0.0
C573 C 0.01859 0.39028 0.4032 0.0
C574 C 0.00868 0.41789 0.40473 0.0
H575 H 0.05668 0.50684 0.42211 0.0
H576 H 0.05363 0.46891 0.4204 0.0
H577 H 0.07112 0.48911 0.40615 0.0
H578 H 0.06235 0.45249 0.38708 0.0
H579 H 0.08009 0.40388 0.38471 0.0
H580 H 0.6029 0.06337 0.41405 0.0
H581 H 0.55488 0.04557 0.41866 0.0
H582 H 0.56252 0.99017 0.38066 0.0
H583 H 0.61075 0.00665 0.37659 0.0
H584 H 0.50894 0.04812 0.40196 0.0
H585 H 0.53438 0.93579 0.41133 0.0
H586 H 0.56124 0.96289 0.41103 0.0
H587 H 0.54883 0.94728 0.39392 0.0
C588 C 0.59428 0.04721 0.40681 0.0
C589 C 0.61034 0.03648 0.39493 0.0
C590 C 0.56694 0.03709 0.40943 0.0
C591 C 0.55535 0.0161 0.4002 0.0
C592 C 0.57129 0.00577 0.38818 0.0
H593 H 0.38583 0.98448 0.37533 0.0
H594 H 0.4341 0.00091 0.37936 0.0
C595 C 0.59865 0.01561 0.38569 0.0
C596 C 0.52608 0.0059 0.4025 0.0
H597 H 0.4864 0.9457 0.4033 0.0
C598 C 0.50403 0.02574 0.40251 0.0
C599 C 0.51964 0.97676 0.40365 0.0
C600 C 0.54235 0.95453 0.40516 0.0
C601 C 0.47567 0.01711 0.40264 0.0
C602 C 0.46929 0.98789 0.40223 0.0
C603 C 0.49131 0.96811 0.40326 0.0
C604 C 0.44014 0.97744 0.39981 0.0
C605 C 0.4529 0.03945 0.40306 0.0
C606 C 0.42796 0.95774 0.40959 0.0
C607 C 0.40063 0.94761 0.40702 0.0
C608 C 0.38514 0.95701 0.39464 0.0
C609 C 0.39748 0.97649 0.38481 0.0
C610 C 0.42485 0.98634 0.38728 0.0
H611 H 0.4605 0.05892 0.40871 0.0
H612 H 0.44706 0.04528 0.3915 0.0
H613 H 0.43368 0.03178 0.4089 0.0
H614 H 0.43952 0.95037 0.41924 0.0
H615 H 0.39153 0.93252 0.41472 0.0
H616 H 0.98354 0.37164 0.60962 0.0
H617 H 0.0033 0.41942 0.60818 0.0
H618 H 0.93639 0.45028 0.63652 0.0
H619 H 0.91625 0.4024 0.63779 0.0
H620 H 0.95015 0.48502 0.61034 0.0
H621 H 0.04374 0.45614 0.64465 0.0
H622 H 0.0368 0.43391 0.62882 0.0
H623 H 0.01216 0.43472 0.64403 0.0
C624 C 0.97278 0.38875 0.6153 0.0
C625 C 0.94834 0.38358 0.62375 0.0
C626 C 0.98421 0.41589 0.61458 0.0
C627 C 0.97145 0.43817 0.62238 0.0
C628 C 0.94652 0.43324 0.63046 0.0
H629 H 0.00313 0.61339 0.64028 0.0
H630 H 0.98424 0.56546 0.6377 0.0
C631 C 0.93509 0.40604 0.63119 0.0
C632 C 0.98462 0.46643 0.62251 0.0
H633 H 0.04227 0.50259 0.63513 0.0
C634 C 0.97029 0.48892 0.61573 0.0
C635 C 0.01098 0.47125 0.62949 0.0
C636 C 0.02682 0.44783 0.63727 0.0
C637 C 0.98168 0.5163 0.61576 0.0
C638 C 0.00774 0.52124 0.62303 0.0
C639 C 0.02231 0.49863 0.62957 0.0
C640 C 0.01949 0.55 0.62465 0.0
C641 C 0.96583 0.53965 0.60794 0.0
C642 C 0.04595 0.55684 0.61854 0.0
C643 C 0.0569 0.58414 0.62015 0.0
C644 C 0.0416 0.60469 0.62802 0.0
C645 C 0.01535 0.5977 0.63428 0.0
C646 C 0.00444 0.57051 0.63268 0.0
H647 H 0.9509 0.53113 0.59951 0.0
H648 H 0.95336 0.55176 0.61625 0.0
H649 H 0.98063 0.55448 0.60236 0.0
H650 H 0.05793 0.54117 0.6124 0.0
H651 H 0.07716 0.58928 0.61521 0.0
H652 H 0.58863 0.90776 0.63668 0.0
H653 H 0.5391 0.92348 0.63577 0.0
H654 H 0.56331 0.9936 0.60785 0.0
H655 H 0.6126 0.97822 0.60889 0.0
H656 H 0.5219 0.97794 0.64597 0.0
H657 H 0.49291 0.96077 0.58675 0.0
H658 H 0.52235 0.943 0.5955 0.0
H659 H 0.52576 0.9791 0.58955 0.0
C660 C 0.58315 0.92623 0.63016 0.0
C661 C 0.6042 0.94166 0.62274 0.0
C662 C 0.555 0.93515 0.62963 0.0
C663 C 0.54759 0.95944 0.62156 0.0
C664 C 0.56853 0.97443 0.61384 0.0
H665 H 0.39922 0.06519 0.61189 0.0
H666 H 0.4466 0.04382 0.61057 0.0
C667 C 0.59663 0.96561 0.61442 0.0
C668 C 0.51856 0.97081 0.62236 0.0
H669 H 0.4617 0.98933 0.60115 0.0
C670 C 0.50857 0.98018 0.63621 0.0
C671 C 0.5015 0.97394 0.60956 0.0
C672 C 0.51101 0.96347 0.5945 0.0
C673 C 0.48212 0.99326 0.63758 0.0
C674 C 0.46503 -0.00354 0.62477 0.0
C675 C 0.47494 0.98689 0.61092 0.0
C676 C 0.43665 0.00943 0.62558 0.0
C677 C 0.47306 0.00426 0.65262 0.0
C678 C 0.41546 -0.00306 0.6343 0.0
C679 C 0.38869 0.00917 0.63513 0.0
C680 C 0.38268 0.03397 0.62718 0.0
C681 C 0.40366 0.04623 0.61824 0.0
C682 C 0.43054 0.03403 0.61745 0.0
H683 H 0.49136 0.00701 0.66024 0.0
H684 H 0.46193 0.02484 0.65157 0.0
H685 H 0.45832 0.98891 0.65781 0.0
H686 H 0.41955 0.97757 0.64035 0.0
H687 H 0.37252 -0.00098 0.6418 0.0
H688 H 0.58709 0.90427 0.87809 0.0
H689 H 0.5727 0.95417 0.8794 0.0
H690 H 0.50382 0.9315 0.90856 0.0
H691 H 0.51804 0.88193 0.90723 0.0
H692 H 0.51998 0.9728 0.86987 0.0
H693 H 0.53681 0.00123 0.9291 0.0
H694 H 0.55338 0.97091 0.92051 0.0
H695 H 0.51722 0.96906 0.92663 0.0
C696 C 0.56924 0.91019 0.88499 0.0
C697 C 0.55379 0.88951 0.89267 0.0
C698 C 0.56108 0.93855 0.88575 0.0
C699 C 0.53748 0.94651 0.89427 0.0
C700 C 0.52253 0.9259 0.90225 0.0
H701 H 0.42737 0.0911 0.90279 0.0
H702 H 0.45083 0.04474 0.9044 0.0
C703 C 0.53064 0.89761 0.90147 0.0
C704 C 0.52648 0.9757 0.89355 0.0
H705 H 0.50675 0.03192 0.91501 0.0
C706 C 0.51744 0.98592 0.8797 0.0
C707 C 0.52299 0.99255 0.90643 0.0
C708 C 0.53335 0.98301 0.92149 0.0
C709 C 0.50414 0.01226 0.87842 0.0
C710 C 0.50025 0.02894 0.89133 0.0
C711 C 0.50968 0.01894 0.90516 0.0
C712 C 0.4864 0.05686 0.89063 0.0
C713 C 0.49356 0.02165 0.86336 0.0
C714 C 0.49891 0.07889 0.88254 0.0
C715 C 0.48555 0.10509 0.88159 0.0
C716 C 0.45956 0.10962 0.88874 0.0
C717 C 0.44728 0.08781 0.89708 0.0
C718 C 0.46066 0.06152 0.89804 0.0
H719 H 0.4922 0.00374 0.85538 0.0
H720 H 0.47238 0.03163 0.86431 0.0
H721 H 0.50836 0.03754 0.85869 0.0
H722 H 0.51904 0.07583 0.87702 0.0
H723 H 0.49564 0.12192 0.87536 0.0
H724 H 0.87642 0.49179 0.87494 0.0
H725 H 0.92447 0.5108 0.87685 0.0
H726 H 0.94666 0.44377 0.90723 0.0
H727 H 0.89855 0.4244 0.90512 0.0
H728 H 0.95353 0.52885 0.90297 0.0
H729 H 0.00772 0.43976 0.87425 0.0
H730 H 0.97 0.44522 0.87312 0.0
H731 H 0.98529 0.43006 0.88957 0.0
C732 C 0.89172 0.48098 0.88188 0.0
C733 C 0.88418 0.45645 0.8897 0.0
C734 C 0.91899 0.49193 0.88304 0.0
C735 C 0.93911 0.47847 0.89203 0.0
C736 C 0.9315 0.45416 0.90005 0.0
H737 H 0.11703 0.51079 0.90648 0.0
H738 H 0.06832 0.49384 0.90824 0.0
C739 C 0.90414 0.44319 0.89889 0.0
C740 C 0.96803 0.49007 0.89297 0.0
H741 H 0.03666 0.47578 0.88413 0.0
C742 C 0.97176 0.51729 0.89888 0.0
C743 C 0.99163 0.47486 0.88759 0.0
C744 C 0.98859 0.44594 0.88066 0.0
C745 C -0.00134 0.52969 0.89966 0.0
C746 C 0.02223 0.51458 0.89415 0.0
C747 C 0.01849 0.48727 0.88835 0.0
C748 C 0.05104 0.52663 0.89415 0.0
C749 C 0.00171 0.55863 0.90655 0.0
C750 C 0.05736 0.55079 0.88569 0.0
C751 C 0.08517 0.56066 0.88479 0.0
C752 C 0.10693 0.54641 0.89227 0.0
C753 C 0.10049 0.52247 0.90085 0.0
C754 C 0.07277 0.51266 0.90178 0.0
H755 H 0.98321 0.56411 0.91362 0.0
H756 H 0.02117 0.55994 0.91343 0.0
H757 H 0.00331 0.57465 0.89758 0.0
H758 H 0.04095 0.56151 0.87947 0.0
H759 H 0.0898 0.57905 0.87803 0.0
H760 H 0.42267 0.89685 0.10968 0.0
H761 H 0.44211 0.94484 0.10672 0.0
H762 H 0.51311 0.92217 0.13439 0.0
H763 H 0.49387 0.87441 0.13727 0.0
H764 H 0.45523 0.98316 0.13106 0.0
H765 H 0.54912 0.95751 0.09643 0.0
H766 H 0.51906 0.93413 0.09806 0.0
H767 H 0.54484 0.93585 0.11271 0.0
C768 C 0.44244 0.90228 0.11506 0.0
C769 C 0.45676 0.88232 0.12378 0.0
C770 C 0.4535 0.9295 0.11336 0.0
C771 C 0.47918 0.93678 0.12019 0.0
C772 C 0.4935 0.91674 0.12885 0.0
H773 H 0.58012 0.08601 0.1345 0.0
H774 H 0.56154 0.03757 0.13247 0.0
C775 C 0.4824 0.88967 0.13061 0.0
C776 C 0.49046 0.96575 0.11898 0.0
H777 H 0.5477 0.00355 0.1072 0.0
C778 C 0.47527 0.98776 0.12571 0.0
C779 C 0.5167 0.97143 0.11207 0.0
C780 C 0.53333 0.94856 0.10429 0.0
C781 C 0.48609 0.01532 0.12611 0.0
C782 C 0.51248 0.02099 0.11932 0.0
C783 C 0.52749 -0.00096 0.11241 0.0
C784 C 0.52491 0.04961 0.1195 0.0
C785 C 0.46962 0.03791 0.13425 0.0
C786 C 0.51081 0.07207 0.11255 0.0
C787 C 0.52122 0.09952 0.1138 0.0
C788 C 0.5461 0.10486 0.12184 0.0
C789 C 0.56086 0.08225 0.12829 0.0
C790 C 0.55033 0.05473 0.1271 0.0
H791 H 0.45358 0.02871 0.14187 0.0
H792 H 0.48395 0.05172 0.14081 0.0
H793 H 0.45838 0.05131 0.12602 0.0
H794 H 0.49139 0.06843 0.10645 0.0
H795 H 0.50934 0.11669 0.10886 0.0
H796 H 0.90387 0.57784 0.11516 0.0
H797 H 0.95214 0.55923 0.11199 0.0
H798 H 0.92798 0.48286 0.13495 0.0
H799 H 0.8799 0.50127 0.13798 0.0
H800 H 0.98997 0.5409 0.13516 0.0
H801 H 0.96379 0.45471 0.09551 0.0
H802 H 0.94044 0.48423 0.09896 0.0
H803 H 0.94215 0.4554 0.11195 0.0
C804 C 0.90908 0.55713 0.11952 0.0
C805 C 0.88855 0.54095 0.12687 0.0
C806 C 0.93645 0.54654 0.11769 0.0
C807 C 0.94337 0.51954 0.12304 0.0
C808 C 0.92286 0.50353 0.13052 0.0
H809 H 0.09054 0.41485 0.13332 0.0
H810 H 0.04255 0.43461 0.13171 0.0
C811 C 0.8956 0.51413 0.13238 0.0
C812 C 0.97226 0.50827 0.1213 0.0
H813 H 0.00957 0.45314 0.10661 0.0
C814 C 0.99439 0.52191 0.12878 0.0
C815 C 0.97776 0.48346 0.113 0.0
C816 C 0.95485 0.46869 0.10428 0.0
C817 C 0.02185 0.51079 0.12862 0.0
C818 C 0.02728 0.4857 0.12053 0.0
C819 C 0.00524 0.47234 0.11282 0.0
C820 C 0.05564 0.47271 0.12028 0.0
C821 C 0.04462 0.52543 0.13753 0.0
C822 C 0.07855 0.48728 0.11402 0.0
C823 C 0.10576 0.47613 0.115 0.0
C824 C 0.11039 0.45014 0.12212 0.0
C825 C 0.08733 0.43497 0.12782 0.0
C826 C 0.06006 0.44618 0.12688 0.0
H827 H 0.03563 0.54054 0.14575 0.0
H828 H 0.05787 0.5098 0.14356 0.0
H829 H 0.05854 0.53746 0.12987 0.0
H830 H 0.07544 0.50759 0.1087 0.0
H831 H 0.12333 0.48827 0.11063 0.0
H832 H 0.05648 0.35431 0.30638 0.0
H833 H 0.08249 0.36881 0.28413 0.0
H834 H 0.14434 0.30365 0.29214 0.0
H835 H 0.11821 0.28878 0.31446 0.0
H836 H 0.14572 0.38404 0.28305 0.0
H837 H 0.11173 0.29339 0.24757 0.0
H838 H 0.0913 0.30452 0.26354 0.0
H839 H 0.12438 0.28679 0.26618 0.0
C840 C 0.07569 0.34313 0.30346 0.0
C841 C 0.0855 0.32064 0.31227 0.0
C842 C 0.09052 0.35146 0.29077 0.0
C843 C 0.11521 0.33722 0.28651 0.0
C844 C 0.12526 0.31484 0.29528 0.0
H845 H 0.20459 0.37126 0.20215 0.0
H846 H 0.18999 0.34824 0.2254 0.0
C847 C 0.1105 0.3066 0.3081 0.0
C848 C 0.13006 0.34604 0.27278 0.0
H849 H 0.13703 0.33 0.23588 0.0
C850 C 0.14418 0.37208 0.27277 0.0
C851 C 0.12815 0.33023 0.25946 0.0
C852 C 0.11304 0.30217 0.25903 0.0
C853 C 0.15573 0.38321 0.25964 0.0
C854 C 0.15236 0.36823 0.2461 0.0
C855 C 0.1394 0.34152 0.24625 0.0
C856 C 0.16027 0.38099 0.2316 0.0
C857 C 0.17116 0.4111 0.26037 0.0
C858 C 0.14775 0.40651 0.22717 0.0
C859 C 0.15593 0.41956 0.21394 0.0
C860 C 0.17646 0.40716 0.20469 0.0
C861 C 0.18831 0.38107 0.20886 0.0
C862 C 0.18019 0.36802 0.22221 0.0
H863 H 0.17979 0.41506 0.27169 0.0
H864 H 0.18882 0.41187 0.25222 0.0
H865 H 0.15619 0.42846 0.25776 0.0
H866 H 0.13181 0.41652 0.23404 0.0
H867 H 0.14626 0.43954 0.21097 0.0
H868 H 0.55365 0.14281 0.21005 0.0
H869 H 0.57861 0.12615 0.2322 0.0
H870 H 0.64751 0.18303 0.22274 0.0
H871 H 0.62248 0.20007 0.20053 0.0
H872 H 0.63919 0.10321 0.23284 0.0
H873 H 0.61882 0.19897 0.26748 0.0
H874 H 0.59655 0.18991 0.25185 0.0
H875 H 0.63149 0.20328 0.24868 0.0
C876 C 0.57417 0.15173 0.21264 0.0
C877 C 0.58625 0.1725 0.20344 0.0
C878 C 0.5884 0.14215 0.22527 0.0
C879 C 0.6148 0.15345 0.2291 0.0
C880 C 0.62709 0.17412 0.21995 0.0
H881 H 0.70591 0.11472 0.31214 0.0
H882 H 0.69187 0.13726 0.28869 0.0
C883 C 0.61292 0.18358 0.20719 0.0
C884 C 0.62911 0.14338 0.24275 0.0
H885 H 0.64079 0.16034 0.27921 0.0
C886 C 0.63986 0.11578 0.24294 0.0
C887 C 0.63009 0.15995 0.25584 0.0
C888 C 0.61858 0.18968 0.25612 0.0
C889 C 0.65098 0.10399 0.25602 0.0
C890 C 0.65059 0.11999 0.26935 0.0
C891 C 0.6409 0.14805 0.26901 0.0
C892 C 0.65851 0.1073 0.28388 0.0
C893 C 0.66293 0.07442 0.25543 0.0
C894 C 0.64393 0.0835 0.28915 0.0
C895 C 0.6518 0.07072 0.30252 0.0
C896 C 0.6741 0.08174 0.31106 0.0
C897 C 0.68823 0.10608 0.306 0.0
C898 C 0.6804 0.11882 0.29253 0.0
H899 H 0.67002 0.06885 0.244 0.0
H900 H 0.68106 0.07199 0.26317 0.0
H901 H 0.64625 0.05913 0.25869 0.0
H902 H 0.62649 0.07467 0.28287 0.0
H903 H 0.6404 0.0521 0.30617 0.0
H904 H 0.83937 0.61271 0.19496 0.0
H905 H 0.85591 0.63597 0.21768 0.0
H906 H 0.79921 0.58462 0.24378 0.0
H907 H 0.78246 0.56138 0.22111 0.0
H908 H 0.82718 0.66607 0.24074 0.0
H909 H 0.8773 0.5675 0.26151 0.0
H910 H 0.86544 0.57144 0.24253 0.0
H911 H 0.84042 0.56413 0.25711 0.0
C912 C 0.82984 0.60689 0.20546 0.0
C913 C 0.80933 0.58541 0.20621 0.0
C914 C 0.83952 0.62003 0.21847 0.0
C915 C 0.82905 0.61175 0.23243 0.0
C916 C 0.80793 0.59099 0.23315 0.0
H917 H 0.87807 0.65234 0.32342 0.0
H918 H 0.85252 0.63594 0.30139 0.0
C919 C 0.79833 0.5778 0.22018 0.0
C920 C 0.84096 0.624 0.24627 0.0
H921 H 0.87723 0.6067 0.27784 0.0
C922 C 0.83814 0.65314 0.24886 0.0
C923 C 0.85526 0.60705 0.25684 0.0
C924 C 0.86007 0.57584 0.25435 0.0
C925 C 0.84899 0.66573 0.26184 0.0
C926 C 0.86337 0.64876 0.27237 0.0
C927 C 0.86602 0.61962 0.26981 0.0
C928 C 0.87696 0.66087 0.28582 0.0
C929 C 0.84465 0.69699 0.26428 0.0
C930 C 0.89918 0.68031 0.2844 0.0
C931 C 0.91364 0.68991 0.29698 0.0
C932 C 0.90616 0.68031 0.31126 0.0
C933 C 0.88375 0.66096 0.31268 0.0
C934 C 0.86932 0.65131 0.30006 0.0
H935 H 0.82684 0.70525 0.25749 0.0
H936 H 0.84043 0.70169 0.27619 0.0
H937 H 0.8641 0.70847 0.26093 0.0
H938 H 0.9059 0.68745 0.2735 0.0
H939 H 0.93099 0.7046 0.29551 0.0
H940 H 0.44077 0.84587 0.2107 0.0
H941 H 0.41588 0.86293 0.23282 0.0
H942 H 0.3479 0.80442 0.22432 0.0
H943 H 0.37288 0.78696 0.20215 0.0
H944 H 0.35555 0.88511 0.23348 0.0
H945 H 0.37641 0.79082 0.26903 0.0
H946 H 0.39838 0.79922 0.25318 0.0
H947 H 0.36343 0.78561 0.25037 0.0
C948 C 0.42049 0.83665 0.21351 0.0
C949 C 0.40862 0.81532 0.20457 0.0
C950 C 0.40629 0.84646 0.22612 0.0
C951 C 0.38015 0.83486 0.2302 0.0
C952 C 0.36812 0.81357 0.22134 0.0
H953 H 0.28866 0.87638 0.31288 0.0
H954 H 0.30273 0.85304 0.28962 0.0
C955 C 0.38226 0.80386 0.2086 0.0
C956 C 0.36578 0.84535 0.24377 0.0
H957 H 0.35397 0.82967 0.28036 0.0
C958 C 0.3549 0.87292 0.2437 0.0
C959 C 0.36479 0.82925 0.25701 0.0
C960 C 0.37642 0.79959 0.25756 0.0
C961 C 0.34367 0.88513 0.25666 0.0
C962 C 0.34407 0.86962 0.27014 0.0
C963 C 0.35387 0.84159 0.27005 0.0
C964 C 0.33609 0.88282 0.28455 0.0
C965 C 0.33162 0.91462 0.2558 0.0
C966 C 0.35066 0.90681 0.28961 0.0
C967 C 0.34278 0.92005 0.30287 0.0
C968 C 0.32048 0.9093 0.31152 0.0
C969 C 0.30634 0.88481 0.30666 0.0
C970 C 0.31418 0.87161 0.2933 0.0
H971 H 0.32455 0.91976 0.24432 0.0
H972 H 0.31344 0.91726 0.2635 0.0
H973 H 0.34822 0.93009 0.25893 0.0
H974 H 0.36809 0.91543 0.28324 0.0
H975 H 0.35419 0.93877 0.30635 0.0
H976 H 0.21089 0.56756 0.79689 0.0
H977 H 0.19347 0.59142 0.77459 0.0
H978 H 0.1353 0.63973 0.80144 0.0
H979 H 0.15237 0.61571 0.82379 0.0
H980 H 0.13767 0.58928 0.76473 0.0
H981 H 0.17147 0.70021 0.7745 0.0
H982 H 0.1864 0.67072 0.78455 0.0
H983 H 0.15225 0.68432 0.78959 0.0
C984 C 0.19464 0.58354 0.79809 0.0
C985 C 0.18342 0.59009 0.81217 0.0
C986 C 0.18476 0.59718 0.78533 0.0
C987 C 0.16342 0.61766 0.78638 0.0
C988 C 0.15232 0.62453 0.80043 0.0
H989 H 0.05984 0.70659 0.72241 0.0
H990 H 0.08395 0.68922 0.74469 0.0
C991 C 0.16224 0.61086 0.81323 0.0
C992 C 0.1513 0.63004 0.77263 0.0
H993 H 0.14041 0.69216 0.75414 0.0
C994 C 0.13844 0.61175 0.76236 0.0
C995 C 0.15219 0.65937 0.76963 0.0
C996 C 0.16652 0.67984 0.78007 0.0
C997 C 0.12599 0.62201 0.74926 0.0
C998 C 0.12696 0.65134 0.74621 0.0
C999 C 0.13983 0.66967 0.75648 0.0
C1000 C 0.11391 0.66338 0.7326 0.0
C1001 C 0.1112 0.60143 0.73904 0.0
C1002 C 0.12314 0.65506 0.7184 0.0
C1003 C 0.10928 0.66481 0.70564 0.0
C1004 C 0.08622 0.68342 0.70686 0.0
C1005 C 0.07758 0.69231 0.7211 0.0
C1006 C 0.09138 0.6825 0.73384 0.0
H1007 H 0.10617 0.58123 0.74476 0.0
H1008 H 0.09127 0.61059 0.73464 0.0
H1009 H 0.12521 0.59653 0.72946 0.0
H1010 H 0.14069 0.64053 0.71719 0.0
H1011 H 0.116 0.6568 0.69494 0.0
H1012 H 0.42708 0.2117 0.79495 0.0
H1013 H 0.40318 0.19519 0.77243 0.0
H1014 H 0.35183 0.13906 0.79886 0.0
H1015 H 0.37584 0.15519 0.82139 0.0
H1016 H 0.40294 0.13977 0.76224 0.0
H1017 H 0.29336 0.17769 0.77187 0.0
H1018 H 0.32328 0.19115 0.78216 0.0
H1019 H 0.30807 0.15754 0.78694 0.0
C1020 C 0.41043 0.1961 0.796 0.0
C1021 C 0.40297 0.18524 0.81003 0.0
C1022 C 0.39678 0.18672 0.78312 0.0
C1023 C 0.37538 0.16627 0.78398 0.0
C1024 C 0.36772 0.15545 0.79797 0.0
H1025 H 0.28252 0.0655 0.72043 0.0
H1026 H 0.30104 0.08945 0.74251 0.0
C1027 C 0.3814 0.16484 0.81089 0.0
C1028 C 0.36267 0.15478 0.77014 0.0
H1029 H 0.3002 0.14591 0.75163 0.0
C1030 C 0.38051 0.14131 0.75985 0.0
C1031 C 0.33339 0.15669 0.76711 0.0
C1032 C 0.31339 0.17176 0.77752 0.0
C1033 C 0.36982 0.12914 0.74676 0.0
C1034 C 0.34052 0.13102 0.74371 0.0
C1035 C 0.32266 0.14461 0.75397 0.0
C1036 C 0.32795 0.11807 0.73019 0.0
C1037 C 0.38988 0.1136 0.73655 0.0
C1038 C 0.33649 0.12659 0.7159 0.0
C1039 C 0.32606 0.11281 0.70325 0.0
C1040 C 0.30655 0.09053 0.70464 0.0
C1041 C 0.29748 0.08262 0.71897 0.0
C1042 C 0.30796 0.09634 0.7316 0.0
H1043 H 0.40995 0.10803 0.74226 0.0
H1044 H 0.38009 0.09391 0.73222 0.0
H1045 H 0.39515 0.12733 0.72693 0.0
H1046 H 0.35167 0.14354 0.71455 0.0
H1047 H 0.33422 0.11895 0.69248 0.0
H1048 H 0.78512 0.43068 0.79481 0.0
H1049 H 0.80208 0.4074 0.7722 0.0
H1050 H 0.85376 0.35176 0.79871 0.0
H1051 H 0.83719 0.37516 0.82137 0.0
H1052 H 0.85854 0.40516 0.76328 0.0
H1053 H 0.81411 0.29717 0.7697 0.0
H1054 H 0.80125 0.32707 0.78024 0.0
H1055 H 0.83365 0.30993 0.78549 0.0
C1056 C 0.79982 0.41323 0.79585 0.0
C1057 C 0.80933 0.40442 0.80994 0.0
C1058 C 0.80945 0.39994 0.78292 0.0
C1059 C 0.82882 0.37755 0.78378 0.0
C1060 C 0.83822 0.36849 0.79782 0.0
H1061 H 0.92712 0.28325 0.71945 0.0
H1062 H 0.90385 0.30184 0.74172 0.0
C1063 C 0.82857 0.38181 0.81079 0.0
C1064 C 0.84072 0.36525 0.76994 0.0
H1065 H 0.84721 0.30392 0.75012 0.0
C1066 C 0.85591 0.38307 0.76034 0.0
C1067 C 0.83738 0.3364 0.76619 0.0
C1068 C 0.82052 0.31651 0.77586 0.0
C1069 C 0.86832 0.37273 0.74723 0.0
C1070 C 0.86492 0.34389 0.74343 0.0
C1071 C 0.84969 0.32604 0.75302 0.0
C1072 C 0.87775 0.33172 0.72977 0.0
C1073 C 0.88566 0.39265 0.73779 0.0
C1074 C 0.87047 0.34202 0.71563 0.0
C1075 C 0.88389 0.33157 0.70287 0.0
C1076 C 0.90453 0.31028 0.70401 0.0
C1077 C 0.91129 0.29962 0.71818 0.0
C1078 C 0.89794 0.31013 0.73092 0.0
H1079 H 0.89222 0.41174 0.74412 0.0
H1080 H 0.9049 0.382 0.73344 0.0
H1081 H 0.8728 0.39972 0.72816 0.0
H1082 H 0.8547 0.35847 0.71447 0.0
H1083 H 0.87872 0.34094 0.69225 0.0
H1084 H 0.55866 0.78682 0.7961 0.0
H1085 H 0.58197 0.80211 0.7732 0.0
H1086 H 0.63714 0.85618 0.7987 0.0
H1087 H 0.61377 0.84117 0.82165 0.0
H1088 H 0.5838 0.85695 0.76281 0.0
H1089 H 0.69245 0.81538 0.77087 0.0
H1090 H 0.66272 0.80331 0.78177 0.0
H1091 H 0.67948 0.83644 0.78606 0.0
C1092 C 0.57601 0.80171 0.79687 0.0
C1093 C 0.5847 0.81234 0.81076 0.0
C1094 C 0.58932 0.81038 0.78376 0.0
C1095 C 0.61161 0.82992 0.78424 0.0
C1096 C 0.62052 0.84048 0.79809 0.0
H1097 H 0.70388 0.92722 0.71924 0.0
H1098 H 0.68575 0.90388 0.74155 0.0
C1099 C 0.6072 0.83175 0.81124 0.0
C1100 C 0.62396 0.84076 0.77017 0.0
H1101 H 0.68566 0.8472 0.75066 0.0
C1102 C 0.60603 0.85461 0.76009 0.0
C1103 C 0.65298 0.83778 0.76668 0.0
C1104 C 0.67303 0.82221 0.77684 0.0
C1105 C 0.6164 0.86615 0.74677 0.0
C1106 C 0.64544 0.86326 0.74329 0.0
C1107 C 0.66339 0.84927 0.75333 0.0
C1108 C 0.65774 0.87575 0.72959 0.0
C1109 C 0.59634 0.88213 0.73679 0.0
C1110 C 0.64844 0.86729 0.71542 0.0
C1111 C 0.65867 0.88072 0.70261 0.0
C1112 C 0.67867 0.90261 0.70376 0.0
C1113 C 0.68849 0.91043 0.71796 0.0
C1114 C 0.67824 0.89704 0.73073 0.0
H1115 H 0.57662 0.88822 0.74271 0.0
H1116 H 0.60645 0.90156 0.73234 0.0
H1117 H 0.59039 0.86851 0.72722 0.0
H1118 H 0.63283 0.85068 0.71428 0.0
H1119 H 0.65002 0.87464 0.69195 0.0
H1120 H 0.10926 0.2058 0.40418 0.0
H1121 H 0.13945 0.16443 0.40091 0.0
H1122 H 0.14552 0.18159 0.35389 0.0
H1123 H 0.11535 0.22324 0.357 0.0
H1124 H 0.1231 0.1188 0.38072 0.0
H1125 H 0.22878 0.16469 0.36768 0.0
H1126 H 0.20179 0.1845 0.3774 0.0
H1127 H 0.19862 0.17831 0.35777 0.0
C1128 C 0.11733 0.20112 0.39316 0.0
C1129 C 0.10968 0.21776 0.38083 0.0
C1130 C 0.13458 0.17745 0.39133 0.0
C1131 C 0.14473 0.17007 0.37718 0.0
C1132 C 0.13812 0.18716 0.36492 0.0
H1133 H 0.2428 0.01709 0.35512 0.0
H1134 H 0.21666 0.06167 0.35234 0.0
C1135 C 0.12078 0.21087 0.36673 0.0
C1136 C 0.16012 0.14314 0.3752 0.0
H1137 H 0.22528 0.11495 0.36829 0.0
C1138 C 0.1454 0.11793 0.3779 0.0
C1139 C 0.18906 0.14216 0.37132 0.0
C1140 C 0.20569 0.1688 0.36843 0.0
C1141 C 0.15906 0.0917 0.37724 0.0
C1142 C 0.18832 0.09075 0.37406 0.0
C1143 C 0.20284 0.11585 0.37074 0.0
C1144 C 0.2045 0.06417 0.37552 0.0
C1145 C 0.14215 0.06521 0.38014 0.0
C1146 C 0.20657 0.05121 0.38949 0.0
C1147 C 0.22134 0.02594 0.39113 0.0
C1148 C 0.23452 0.0131 0.37881 0.0
C1149 C 0.23275 0.02634 0.36481 0.0
C1150 C 0.21792 0.0518 0.3632 0.0
H1151 H 0.11924 0.06863 0.37811 0.0
H1152 H 0.14956 0.04748 0.37302 0.0
H1153 H 0.1448 0.05893 0.39196 0.0
H1154 H 0.19673 0.06072 0.39918 0.0
H1155 H 0.22237 0.0165 0.4021 0.0
H1156 H 0.96847 0.25154 0.35518 0.0
H1157 H 0.92054 0.23228 0.3529 0.0
H1158 H 0.91742 0.21949 0.4004 0.0
H1159 H 0.9649 0.2388 0.40284 0.0
H1160 H 0.90372 0.17824 0.36127 0.0
H1161 H 0.84213 0.25873 0.39208 0.0
H1162 H 0.87746 0.26526 0.38524 0.0
H1163 H 0.87215 0.24634 0.4024 0.0
C1164 C 0.95748 0.24484 0.36515 0.0
C1165 C 0.97055 0.24669 0.37919 0.0
C1166 C 0.9301 0.23393 0.36383 0.0
C1167 C 0.91527 0.225 0.37652 0.0
C1168 C 0.92822 0.22694 0.39052 0.0
H1169 H 0.78005 0.12223 0.4045 0.0
H1170 H 0.8178 0.1569 0.40131 0.0
C1171 C 0.95552 0.23774 0.39186 0.0
C1172 C 0.88721 0.21144 0.37517 0.0
H1173 H 0.82023 0.21298 0.38934 0.0
C1174 C 0.88525 0.18609 0.36713 0.0
C1175 C 0.86323 0.2218 0.38285 0.0
C1176 C 0.86372 0.24969 0.39101 0.0
C1177 C 0.86044 0.16987 0.36733 0.0
C1178 C 0.83685 0.17959 0.37557 0.0
C1179 C 0.83839 0.20558 0.38306 0.0
C1180 C 0.81145 0.16178 0.3776 0.0
C1181 C 0.86022 0.14169 0.35941 0.0
C1182 C 0.79472 0.15388 0.36541 0.0
C1183 C 0.77317 0.13394 0.36716 0.0
C1184 C 0.76793 0.12168 0.38117 0.0
C1185 C 0.78361 0.13106 0.39353 0.0
C1186 C 0.80518 0.15093 0.39175 0.0
H1187 H 0.88174 0.13503 0.35589 0.0
H1188 H 0.85117 0.12501 0.36669 0.0
H1189 H 0.84682 0.14324 0.34931 0.0
H1190 H 0.79894 0.16244 0.35445 0.0
H1191 H 0.76131 0.12744 0.35743 0.0
H1192 H 0.88617 0.7876 0.40619 0.0
H1193 H 0.85533 0.82876 0.40342 0.0
H1194 H 0.84085 0.80714 0.35743 0.0
H1195 H 0.87174 0.76592 0.36 0.0
H1196 H 0.86945 0.87154 0.37848 0.0
H1197 H 0.76015 0.82733 0.37768 0.0
H1198 H 0.78857 0.81003 0.38757 0.0
H1199 H 0.78786 0.80931 0.36764 0.0
C1200 C 0.87604 0.79124 0.39555 0.0
C1201 C 0.88164 0.7736 0.38329 0.0
C1202 C 0.85845 0.81476 0.394 0.0
C1203 C 0.84588 0.82083 0.38024 0.0
C1204 C 0.85026 0.8026 0.36816 0.0
H1205 H 0.74599 0.97134 0.35667 0.0
H1206 H 0.77062 0.92571 0.35477 0.0
C1207 C 0.868 0.77915 0.36966 0.0
C1208 C 0.83065 0.84777 0.37818 0.0
H1209 H 0.76481 0.87682 0.37548 0.0
C1210 C 0.84659 0.87273 0.37773 0.0
C1211 C 0.80092 0.84904 0.37701 0.0
C1212 C 0.78316 0.82259 0.37753 0.0
C1213 C 0.83345 0.89916 0.37649 0.0
C1214 C 0.80363 0.90059 0.37595 0.0
C1215 C 0.78769 0.87556 0.37588 0.0
C1216 C 0.78875 0.92799 0.37684 0.0
C1217 C 0.85155 0.92541 0.37591 0.0
C1218 C 0.79074 0.94408 0.38989 0.0
C1219 C 0.77678 0.96991 0.39103 0.0
C1220 C 0.76048 0.98023 0.37912 0.0
C1221 C 0.75853 0.96406 0.36599 0.0
C1222 C 0.77244 0.93799 0.36491 0.0
H1223 H 0.87357 0.9205 0.37246 0.0
H1224 H 0.84256 0.94118 0.36807 0.0
H1225 H 0.85231 0.93516 0.38715 0.0
H1226 H 0.80299 0.93652 0.39927 0.0
H1227 H 0.77874 0.98175 0.40131 0.0
H1228 H 0.02423 0.74524 0.35577 0.0
H1229 H 0.07198 0.76511 0.35387 0.0
H1230 H 0.0736 0.77787 0.40141 0.0
H1231 H 0.02633 0.75792 0.40348 0.0
H1232 H 0.08918 0.81898 0.3624 0.0
H1233 H 0.14863 0.73775 0.39376 0.0
H1234 H 0.11343 0.73169 0.38664 0.0
H1235 H 0.11849 0.75069 0.40381 0.0
C1236 C 0.03482 0.75214 0.36583 0.0
C1237 C 0.02145 0.74992 0.37978 0.0
C1238 C 0.0621 0.7634 0.36472 0.0
C1239 C 0.07651 0.77237 0.37754 0.0
C1240 C 0.06315 0.77036 0.39143 0.0
H1241 H 0.21403 0.87324 0.40548 0.0
H1242 H 0.17526 0.83958 0.40258 0.0
C1243 C 0.03597 0.75917 0.39256 0.0
C1244 C 0.10476 0.78563 0.37645 0.0
H1245 H 0.17143 0.78295 0.39095 0.0
C1246 C 0.10736 0.81086 0.36839 0.0
C1247 C 0.12838 0.77491 0.38429 0.0
C1248 C 0.12722 0.74711 0.39249 0.0
C1249 C 0.1325 0.82657 0.36865 0.0
C1250 C 0.15575 0.81646 0.37701 0.0
C1251 C 0.15353 0.79064 0.38459 0.0
C1252 C 0.18164 0.8336 0.37893 0.0
C1253 C 0.13349 0.8546 0.36063 0.0
C1254 C 0.19871 0.84047 0.36669 0.0
C1255 C 0.22086 0.85979 0.36829 0.0
C1256 C 0.22635 0.87246 0.38218 0.0
C1257 C 0.2103 0.86406 0.39461 0.0
C1258 C 0.18814 0.84479 0.39298 0.0
H1259 H 0.11217 0.86171 0.35704 0.0
H1260 H 0.14287 0.87117 0.36786 0.0
H1261 H 0.14695 0.85255 0.35057 0.0
H1262 H 0.1943 0.83163 0.35581 0.0
H1263 H 0.23297 0.86554 0.35851 0.0
H1264 H 0.22805 0.97996 0.65901 0.0
H1265 H 0.20453 0.93377 0.66056 0.0
H1266 H 0.21729 0.92131 0.61349 0.0
H1267 H 0.24054 0.96716 0.61175 0.0
H1268 H 0.15463 0.91751 0.64242 0.0
H1269 H 0.24763 0.84741 0.63412 0.0
H1270 H 0.25074 0.88343 0.64068 0.0
H1271 H 0.2448 0.87643 0.62128 0.0
C1272 C 0.22597 0.9673 0.64901 0.0
C1273 C 0.23609 0.97727 0.63526 0.0
C1274 C 0.21258 0.94097 0.64993 0.0
C1275 C 0.20957 0.92411 0.63717 0.0
C1276 C 0.21982 0.93389 0.62349 0.0
H1277 H 0.10403 0.78644 0.6098 0.0
H1278 H 0.13508 0.82776 0.61164 0.0
C1279 C 0.23292 0.96021 0.62252 0.0
C1280 C 0.19429 0.89694 0.63781 0.0
H1281 H 0.20213 0.82608 0.63174 0.0
C1282 C 0.16502 0.89747 0.64027 0.0
C1283 C 0.20802 0.87094 0.63498 0.0
C1284 C 0.23958 0.86932 0.63273 0.0
C1285 C 0.14892 0.87264 0.63947 0.0
C1286 C 0.16251 0.84681 0.63617 0.0
C1287 C 0.19188 0.84608 0.63415 0.0
C1288 C 0.1462 0.82044 0.63466 0.0
C1289 C 0.11739 0.87407 0.64188 0.0
C1290 C 0.14281 0.80255 0.64694 0.0
C1291 C 0.12505 0.77905 0.64597 0.0
C1292 C 0.11048 0.77304 0.63266 0.0
C1293 C 0.11494 0.79044 0.62019 0.0
C1294 C 0.13261 0.81404 0.62121 0.0
H1295 H 0.1103 0.89548 0.64536 0.0
H1296 H 0.10635 0.86829 0.6314 0.0
H1297 H 0.11095 0.85857 0.65052 0.0
H1298 H 0.15322 0.80728 0.65739 0.0
H1299 H 0.12222 0.766 0.65576 0.0
H1300 H 0.2125 0.11559 0.60553 0.0
H1301 H 0.17157 0.1471 0.60593 0.0
H1302 H 0.17926 0.15551 0.65356 0.0
H1303 H 0.22038 0.12432 0.6533 0.0
H1304 H 0.12271 0.13277 0.62186 0.0
H1305 H 0.16429 0.23712 0.63995 0.0
H1306 H 0.18675 0.20967 0.63245 0.0
H1307 H 0.17476 0.20782 0.65141 0.0
C1308 C 0.20591 0.12461 0.61606 0.0
C1309 C 0.2196 0.11721 0.6294 0.0
C1310 C 0.1825 0.1426 0.61626 0.0
C1311 C 0.1725 0.15372 0.62976 0.0
C1312 C 0.18691 0.14752 0.643 0.0
H1313 H 0.01697 0.23943 0.65538 0.0
H1314 H 0.06326 0.21611 0.65522 0.0
C1315 C 0.21032 0.12951 0.64282 0.0
C1316 C 0.14525 0.16905 0.63018 0.0
H1317 H 0.11426 0.23173 0.63969 0.0
C1318 C 0.12088 0.15448 0.62565 0.0
C1319 C 0.14295 0.19722 0.63532 0.0
C1320 C 0.16858 0.21402 0.63995 0.0
C1321 C 0.09418 0.16723 0.62623 0.0
C1322 C 0.09187 0.19548 0.63122 0.0
C1323 C 0.11618 0.21005 0.63586 0.0
C1324 C 0.06438 0.21036 0.63133 0.0
C1325 C 0.06858 0.15017 0.62175 0.0
C1326 C 0.04999 0.21513 0.61793 0.0
C1327 C 0.02361 0.22828 0.61797 0.0
C1328 C 0.01114 0.23711 0.63143 0.0
C1329 C 0.02589 0.23275 0.64484 0.0
C1330 C 0.05235 0.21954 0.64477 0.0
H1331 H 0.07295 0.12709 0.62194 0.0
H1332 H 0.0504 0.15462 0.62922 0.0
H1333 H 0.06236 0.15598 0.61024 0.0
H1334 H 0.05917 0.2086 0.60743 0.0
H1335 H 0.013 0.23148 0.60742 0.0
H1336 H 0.74322 0.01846 0.65819 0.0
H1337 H 0.7634 0.06605 0.66005 0.0
H1338 H 0.77128 0.06952 0.61225 0.0
H1339 H 0.75096 0.02238 0.61023 0.0
H1340 H 0.81649 0.0823 0.65037 0.0
H1341 H 0.73412 0.14517 0.6218 0.0
H1342 H 0.72783 0.10975 0.62854 0.0
H1343 H 0.74551 0.11529 0.61104 0.0
C1344 C 0.74903 0.02945 0.64806 0.0
C1345 C 0.74546 0.01659 0.63406 0.0
C1346 C 0.76048 0.05664 0.64915 0.0
C1347 C 0.7683 0.07149 0.63627 0.0
C1348 C 0.76469 0.05874 0.6223 0.0
H1349 H 0.86893 0.21026 0.60857 0.0
H1350 H 0.83557 0.17115 0.61132 0.0
C1351 C 0.7533 0.03163 0.62119 0.0
C1352 C 0.78234 0.09936 0.63735 0.0
H1353 H 0.77995 0.16688 0.62399 0.0
C1354 C 0.80829 0.10096 0.64485 0.0
C1355 C 0.77155 0.12361 0.63011 0.0
C1356 C 0.74307 0.1235 0.62254 0.0
C1357 C 0.82451 0.12577 0.64463 0.0
C1358 C 0.81421 0.14971 0.63691 0.0
C1359 C 0.78778 0.14844 0.62986 0.0
C1360 C 0.83156 0.17552 0.63521 0.0
C1361 C 0.85316 0.12572 0.65203 0.0
C1362 C 0.83954 0.19147 0.64768 0.0
C1363 C 0.8587 0.21376 0.64617 0.0
C1364 C 0.87007 0.22056 0.63213 0.0
C1365 C 0.86073 0.20551 0.61955 0.0
C1366 C 0.84163 0.18318 0.62109 0.0
H1367 H 0.86024 0.10402 0.65494 0.0
H1368 H 0.8693 0.13553 0.64468 0.0
H1369 H 0.8521 0.13829 0.66245 0.0
H1370 H 0.83156 0.18617 0.65863 0.0
H1371 H 0.86517 0.22513 0.65607 0.0
H1372 H 0.98355 0.77862 0.65135 0.0
H1373 H 0.93679 0.80068 0.65134 0.0
H1374 H 0.90607 0.73527 0.62189 0.0
H1375 H 0.95356 0.7148 0.6209 0.0
H1376 H 0.88796 0.78025 0.61218 0.0
H1377 H 0.86632 0.78529 0.67228 0.0
H1378 H 0.8988 0.80342 0.66868 0.0
H1379 H 0.8961 0.76597 0.66496 0.0
C1380 C 0.96663 0.76891 0.64503 0.0
C1381 C 0.97191 0.74512 0.63614 0.0
C1382 C 0.93981 0.78128 0.64515 0.0
C1383 C 0.9175 0.76932 0.63691 0.0
C1384 C 0.92278 0.74495 0.62837 0.0
H1385 H 0.75247 0.85226 0.64804 0.0
H1386 H 0.79027 0.81683 0.64904 0.0
C1387 C 0.94985 0.73321 0.62782 0.0
C1388 C 0.8895 0.7836 0.63614 0.0
H1389 H 0.8409 0.81928 0.65702 0.0
C1390 C 0.87744 0.78826 0.62205 0.0
C1391 C 0.8751 0.79351 0.64896 0.0
C1392 C 0.88464 0.78643 0.66455 0.0
C1393 C 0.85229 0.80359 0.62039 0.0
C1394 C 0.83965 0.81616 0.63306 0.0
C1395 C 0.85085 0.81029 0.64722 0.0
C1396 C 0.81576 0.83646 0.63185 0.0
C1397 C 0.83955 0.80579 0.60502 0.0
C1398 C 0.81742 0.85936 0.62192 0.0
C1399 C 0.79547 0.87897 0.62101 0.0
C1400 C 0.77193 0.87679 0.63045 0.0
C1401 C 0.77042 0.85432 0.64062 0.0
C1402 C 0.79202 0.83415 0.64121 0.0
H1403 H 0.84439 0.78665 0.59831 0.0
H1404 H 0.81624 0.80844 0.60547 0.0
H1405 H 0.84893 0.82415 0.59913 0.0
H1406 H 0.83595 0.86245 0.61504 0.0
H1407 H 0.79738 0.89643 0.61327 0.0
H1408 H 0.61374 0.70958 0.90631 0.0
H1409 H 0.64339 0.66765 0.9035 0.0
H1410 H 0.64792 0.68169 0.85614 0.0
H1411 H 0.61837 0.72384 0.85878 0.0
H1412 H 0.62593 0.62104 0.88459 0.0
H1413 H 0.73124 0.66468 0.869 0.0
H1414 H 0.70478 0.68554 0.87851 0.0
H1415 H 0.701 0.67792 0.85905 0.0
C1416 C 0.62141 0.7041 0.89531 0.0
C1417 C 0.61351 0.71999 0.88276 0.0
C1418 C 0.63832 0.68011 0.89374 0.0
C1419 C 0.64787 0.67173 0.87963 0.0
C1420 C 0.641 0.68807 0.86714 0.0
H1421 H 0.74006 0.51694 0.85559 0.0
H1422 H 0.7147 0.5621 0.85382 0.0
C1423 C 0.624 0.71206 0.86868 0.0
C1424 C 0.66282 0.64451 0.87792 0.0
H1425 H 0.72675 0.61496 0.86959 0.0
C1426 C 0.64795 0.61967 0.88127 0.0
C1427 C 0.69138 0.64291 0.87338 0.0
C1428 C 0.70823 0.66913 0.86984 0.0
C1429 C 0.66106 0.59319 0.88047 0.0
C1430 C 0.68993 0.59162 0.87649 0.0
C1431 C 0.70461 0.61635 0.87266 0.0
C1432 C 0.70561 0.56469 0.87738 0.0
C1433 C 0.64398 0.56708 0.88399 0.0
C1434 C 0.70913 0.55158 0.89123 0.0
C1435 C 0.72349 0.52597 0.8923 0.0
C1436 C 0.73475 0.51294 0.87952 0.0
C1437 C 0.7315 0.52633 0.86563 0.0
C1438 C 0.71712 0.55212 0.86459 0.0
H1439 H 0.62093 0.57097 0.88277 0.0
H1440 H 0.65008 0.5492 0.87664 0.0
H1441 H 0.64801 0.56072 0.89569 0.0
H1442 H 0.70075 0.56123 0.90125 0.0
H1443 H 0.72569 0.51639 0.90319 0.0
H1444 H 0.47118 0.74871 0.8594 0.0
H1445 H 0.42513 0.72502 0.85899 0.0
H1446 H 0.42635 0.71922 0.9069 0.0
H1447 H 0.47231 0.74252 0.90747 0.0
H1448 H 0.41626 0.66776 0.89208 0.0
H1449 H 0.34572 0.75325 0.87144 0.0
H1450 H 0.37706 0.74681 0.86061 0.0
H1451 H 0.38024 0.76026 0.87923 0.0
C1452 C 0.46152 0.74266 0.86986 0.0
C1453 C 0.47551 0.74741 0.88346 0.0
C1454 C 0.43513 0.72931 0.8696 0.0
C1455 C 0.42227 0.72068 0.88293 0.0
C1456 C 0.43592 0.72586 0.8965 0.0
H1457 H 0.27851 0.62052 0.90964 0.0
H1458 H 0.31875 0.65279 0.90846 0.0
C1459 C 0.46222 0.73915 0.89679 0.0
C1460 C 0.39567 0.70427 0.88277 0.0
H1461 H 0.3254 0.70771 0.87421 0.0
C1462 C 0.39637 0.67651 0.88821 0.0
C1463 C 0.36987 0.71575 0.8776 0.0
C1464 C 0.36795 0.74573 0.87198 0.0
C1465 C 0.37194 0.65981 0.88862 0.0
C1466 C 0.34602 0.6714 0.88371 0.0
C1467 C 0.34532 0.69903 0.87805 0.0
C1468 C 0.31955 0.65485 0.88441 0.0
C1469 C 0.37416 0.62973 0.89412 0.0
C1470 C 0.30599 0.64637 0.87128 0.0
C1471 C 0.28289 0.62798 0.87189 0.0
C1472 C 0.27298 0.61782 0.88567 0.0
C1473 C 0.28574 0.62767 0.89883 0.0
C1474 C 0.30878 0.64606 0.8982 0.0
H1475 H 0.39636 0.62204 0.89405 0.0
H1476 H 0.36621 0.62861 0.90573 0.0
H1477 H 0.36115 0.61529 0.88717 0.0
H1478 H 0.31396 0.6531 0.86054 0.0
H1479 H 0.27344 0.621 0.86153 0.0
H1480 H 0.37096 0.27683 0.90849 0.0
H1481 H 0.33886 0.3172 0.90743 0.0
H1482 H 0.33449 0.30953 0.85965 0.0
H1483 H 0.36638 0.26895 0.86054 0.0
H1484 H 0.35508 0.36601 0.89133 0.0
H1485 H 0.25145 0.3245 0.87193 0.0
H1486 H 0.27808 0.30219 0.88029 0.0
H1487 H 0.28175 0.31347 0.86131 0.0
C1488 C 0.3627 0.28327 0.89777 0.0
C1489 C 0.37152 0.26983 0.88458 0.0
C1490 C 0.34435 0.30635 0.89719 0.0
C1491 C 0.33426 0.31624 0.88347 0.0
C1492 C 0.34172 0.30195 0.87036 0.0
H1493 H 0.25026 0.47385 0.85873 0.0
H1494 H 0.27292 0.42719 0.85811 0.0
C1495 C 0.36012 0.27886 0.87091 0.0
C1496 C 0.31903 0.34348 0.88275 0.0
H1497 H 0.25653 0.37443 0.87295 0.0
C1498 C 0.33349 0.36784 0.88738 0.0
C1499 C 0.29104 0.34576 0.87738 0.0
C1500 C 0.2745 0.3201 0.87254 0.0
C1501 C 0.3207 0.3945 0.88682 0.0
C1502 C 0.29253 0.39677 0.88173 0.0
C1503 C 0.27814 0.37251 0.87686 0.0
C1504 C 0.27749 0.42413 0.88201 0.0
C1505 C 0.33755 0.42009 0.89154 0.0
C1506 C 0.27221 0.43746 0.89566 0.0
C1507 C 0.25947 0.464 0.89607 0.0
C1508 C 0.25158 0.47771 0.88281 0.0
C1509 C 0.25625 0.46395 0.86913 0.0
C1510 C 0.26907 0.43729 0.86875 0.0
H1511 H 0.36065 0.41581 0.89143 0.0
H1512 H 0.33317 0.43838 0.88414 0.0
H1513 H 0.33147 0.42607 0.90305 0.0
H1514 H 0.27821 0.42739 0.90602 0.0
H1515 H 0.25597 0.4738 0.90682 0.0
H1516 H 0.71277 0.37509 0.90807 0.0
H1517 H 0.67151 0.34417 0.90655 0.0
H1518 H 0.68334 0.33622 0.85913 0.0
H1519 H 0.72478 0.3669 0.8605 0.0
H1520 H 0.62463 0.3607 0.88884 0.0
H1521 H 0.66483 0.25457 0.87256 0.0
H1522 H 0.68711 0.28114 0.88102 0.0
H1523 H 0.67771 0.2838 0.86171 0.0
C1524 C 0.70705 0.36625 0.89736 0.0
C1525 C 0.72193 0.37374 0.88438 0.0
C1526 C 0.68345 0.3486 0.89652 0.0
C1527 C 0.67447 0.33789 0.88274 0.0
C1528 C 0.69017 0.34396 0.86989 0.0
H1529 H 0.51734 0.25279 0.85708 0.0
H1530 H 0.56366 0.27618 0.85639 0.0
C1531 C 0.71377 0.36166 0.87071 0.0
C1532 C 0.64686 0.3234 0.88159 0.0
H1533 H 0.61508 0.26096 0.87242 0.0
C1534 C 0.62254 0.33886 0.8853 0.0
C1535 C 0.64426 0.29509 0.87673 0.0
C1536 C 0.66984 0.27752 0.87287 0.0
C1537 C 0.59561 0.32671 0.88437 0.0
C1538 C 0.593 0.2982 0.87987 0.0
C1539 C 0.61724 0.28284 0.87586 0.0
C1540 C 0.56537 0.28365 0.88014 0.0
C1541 C 0.57012 0.34455 0.88815 0.0
C1542 C 0.55131 0.27992 0.89372 0.0
C1543 C 0.52499 0.26674 0.89416 0.0
C1544 C 0.51221 0.25685 0.88101 0.0
C1545 C 0.52651 0.26033 0.86739 0.0
C1546 C 0.55299 0.27356 0.86697 0.0
H1547 H 0.57492 0.3675 0.88742 0.0
H1548 H 0.55216 0.3397 0.88061 0.0
H1549 H 0.56339 0.33992 0.89973 0.0
H1550 H 0.56076 0.2872 0.90402 0.0
H1551 H 0.51473 0.26428 0.90487 0.0
H1552 H 0.61821 0.27803 0.10866 0.0
H1553 H 0.6499 0.31858 0.11049 0.0
H1554 H 0.6499 0.3113 0.15834 0.0
H1555 H 0.61842 0.2704 0.15667 0.0
H1556 H 0.63441 0.36812 0.12564 0.0
H1557 H 0.73414 0.32317 0.14829 0.0
H1558 H 0.70728 0.30155 0.13963 0.0
H1559 H 0.70246 0.31422 0.15831 0.0
C1560 C 0.62528 0.28469 0.11958 0.0
C1561 C 0.61559 0.27105 0.13253 0.0
C1562 C 0.64341 0.30788 0.1206 0.0
C1563 C 0.65234 0.3178 0.13454 0.0
C1564 C 0.6436 0.30367 0.14746 0.0
H1565 H 0.74212 0.47279 0.15868 0.0
H1566 H 0.71717 0.42738 0.1596 0.0
C1567 C 0.62547 0.2804 0.14647 0.0
C1568 C 0.66851 0.34451 0.13551 0.0
H1569 H 0.73161 0.37309 0.14623 0.0
C1570 C 0.65568 0.36919 0.13011 0.0
C1571 C 0.6961 0.34583 0.14152 0.0
C1572 C 0.71099 0.31978 0.14718 0.0
C1573 C 0.66977 0.39522 0.13047 0.0
C1574 C 0.6976 0.39647 0.13615 0.0
C1575 C 0.71028 0.37194 0.14185 0.0
C1576 C 0.71409 0.42299 0.13569 0.0
C1577 C 0.65467 0.42122 0.12485 0.0
C1578 C 0.72104 0.43511 0.12193 0.0
C1579 C 0.73514 0.46097 0.12135 0.0
C1580 C 0.74271 0.47516 0.13453 0.0
C1581 C 0.73645 0.46251 0.14832 0.0
C1582 C 0.72228 0.43656 0.14888 0.0
H1583 H 0.63138 0.41815 0.12454 0.0
H1584 H 0.65946 0.43987 0.13193 0.0
H1585 H 0.6619 0.42591 0.11335 0.0
H1586 H 0.71527 0.42468 0.11163 0.0
H1587 H 0.73984 0.46992 0.11053 0.0
H1588 H 0.51636 0.72545 0.11104 0.0
H1589 H 0.5619 0.70161 0.11204 0.0
H1590 H 0.56538 0.71454 0.15953 0.0
H1591 H 0.51956 0.73889 0.15868 0.0
H1592 H 0.61687 0.72781 0.14344 0.0
H1593 H 0.57454 0.62175 0.1293 0.0
H1594 H 0.56366 0.6491 0.11669 0.0
H1595 H 0.55233 0.65027 0.13579 0.0
C1596 C 0.52664 0.72323 0.12175 0.0
C1597 C 0.51416 0.73393 0.13482 0.0
C1598 C 0.55268 0.70951 0.12228 0.0
C1599 C 0.56673 0.70601 0.13588 0.0
C1600 C 0.55468 0.71695 0.14894 0.0
H1601 H 0.72541 0.62096 0.1556 0.0
H1602 H 0.68371 0.65129 0.15708 0.0
C1603 C 0.52851 0.73075 0.14844 0.0
C1604 C 0.59404 0.69087 0.13625 0.0
H1605 H 0.62441 0.62753 0.12765 0.0
C1606 C 0.61859 0.70581 0.14014 0.0
C1607 C 0.59607 0.66219 0.13194 0.0
C1608 C 0.57023 0.64477 0.12832 0.0
C1609 C 0.64535 0.693 0.13933 0.0
C1610 C 0.64738 0.66454 0.13465 0.0
C1611 C 0.62276 0.64948 0.13107 0.0
C1612 C 0.67473 0.64958 0.13348 0.0
C1613 C 0.67128 0.71015 0.14306 0.0
C1614 C 0.68362 0.63883 0.11969 0.0
C1615 C 0.70738 0.62139 0.11879 0.0
C1616 C 0.7225 0.61416 0.13172 0.0
C1617 C 0.71422 0.62602 0.14543 0.0
C1618 C 0.69048 0.64352 0.1463 0.0
H1619 H 0.6667 0.73319 0.14332 0.0
H1620 H 0.67916 0.70384 0.15421 0.0
H1621 H 0.6884 0.70613 0.13486 0.0
H1622 H 0.67162 0.64323 0.10969 0.0
H1623 H 0.71316 0.61267 0.10806 0.0
H1624 H 0.24811 0.51887 0.16029 0.0
H1625 H 0.26761 0.56677 0.16212 0.0
H1626 H 0.28177 0.56762 0.1147 0.0
H1627 H 0.26224 0.52014 0.11269 0.0
H1628 H 0.32187 0.58439 0.15366 0.0
H1629 H 0.23989 0.64223 0.12195 0.0
H1630 H 0.23424 0.60714 0.12932 0.0
H1631 H 0.2533 0.61196 0.11216 0.0
C1632 C 0.2553 0.52929 0.15025 0.0
C1633 C 0.25356 0.51567 0.13634 0.0
C1634 C 0.26633 0.55666 0.15132 0.0
C1635 C 0.27553 0.5709 0.1385 0.0
C1636 C 0.27409 0.55726 0.12466 0.0
H1637 H 0.37353 0.71021 0.11031 0.0
H1638 H 0.34052 0.67091 0.1133 0.0
C1639 C 0.26315 0.52998 0.12357 0.0
C1640 C 0.28833 0.59934 0.13954 0.0
H1641 H 0.28454 0.66585 0.12496 0.0
C1642 C 0.31348 0.60239 0.14763 0.0
C1643 C 0.27724 0.62271 0.13165 0.0
C1644 C 0.24952 0.62098 0.1234 0.0
C1645 C 0.32877 0.62778 0.14734 0.0
C1646 C 0.31827 0.65081 0.13895 0.0
C1647 C 0.29252 0.64812 0.13135 0.0
C1648 C 0.33497 0.67697 0.137 0.0
C1649 C 0.35678 0.62924 0.15537 0.0
C1650 C 0.34185 0.69403 0.14924 0.0
C1651 C 0.36082 0.71644 0.1476 0.0
C1652 C 0.3731 0.72225 0.13365 0.0
C1653 C 0.36464 0.70623 0.12122 0.0
C1654 C 0.34574 0.68378 0.1229 0.0
H1655 H 0.36432 0.60803 0.15888 0.0
H1656 H 0.37317 0.63905 0.14817 0.0
H1657 H 0.35446 0.64252 0.16549 0.0
H1658 H 0.33327 0.68942 0.16016 0.0
H1659 H 0.3666 0.72857 0.15737 0.0
H1660 H 0.26785 0.36758 0.15738 0.0
H1661 H 0.30652 0.33349 0.15959 0.0
H1662 H 0.32271 0.34038 0.11249 0.0
H1663 H 0.28395 0.37415 0.11008 0.0
H1664 H 0.32599 0.28407 0.12396 0.0
H1665 H 0.38915 0.36111 0.15705 0.0
H1666 H 0.35462 0.35279 0.16416 0.0
H1667 H 0.35797 0.37135 0.14681 0.0
C1668 C 0.27943 0.36164 0.14745 0.0
C1669 C 0.27305 0.37393 0.13358 0.0
C1670 C 0.30156 0.34222 0.14876 0.0
C1671 C 0.31774 0.33487 0.13625 0.0
C1672 C 0.31051 0.34592 0.12228 0.0
H1673 H 0.47074 0.25402 0.11055 0.0
H1674 H 0.42387 0.27511 0.11257 0.0
C1675 C 0.28838 0.36528 0.12094 0.0
C1676 C 0.34328 0.31707 0.13774 0.0
H1677 H 0.4105 0.31756 0.15154 0.0
C1678 C 0.34441 0.29123 0.13009 0.0
C1679 C 0.3672 0.3265 0.14579 0.0
C1680 C 0.36743 0.35453 0.15385 0.0
C1681 C 0.36907 0.27474 0.13006 0.0
C1682 C 0.39331 0.28469 0.13765 0.0
C1683 C 0.39185 0.31003 0.14574 0.0
C1684 C 0.421 0.2703 0.13648 0.0
C1685 C 0.36903 0.24691 0.12184 0.0
C1686 C 0.43521 0.26117 0.14932 0.0
C1687 C 0.4622 0.24928 0.14823 0.0
C1688 C 0.47551 0.24655 0.13429 0.0
C1689 C 0.46111 0.2557 0.12146 0.0
C1690 C 0.43418 0.26754 0.12257 0.0
H1691 H 0.34726 0.23834 0.12068 0.0
H1692 H 0.3777 0.25014 0.11049 0.0
H1693 H 0.38234 0.231 0.12762 0.0
H1694 H 0.42546 0.26339 0.16017 0.0
H1695 H 0.47267 0.24244 0.15833 0.0
H1696 H 0.08708 0.27508 0.46067 0.0
H1697 H 0.06762 0.27369 0.48597 0.0
H1698 H 0.98525 0.25395 0.46815 0.0
H1699 H 0.00423 0.25623 0.44296 0.0
H1700 H 0.98125 0.29351 0.48889 0.0
H1701 H 0.04709 0.20556 0.51039 0.0
H1702 H 0.06748 0.23476 0.50354 0.0
H1703 H 0.04586 0.21463 0.49091 0.0
C1704 C 0.06486 0.2703 0.46217 0.0
C1705 C 0.04724 0.2657 0.44981 0.0
C1706 C 0.05379 0.26935 0.47664 0.0
C1707 C 0.02503 0.26326 0.47899 0.0
C1708 C 0.00749 0.25866 0.46664 0.0
H1709 H 0.94871 0.21057 0.56228 0.0
H1710 H 0.9672 0.21395 0.53692 0.0
C1711 C 0.01842 0.25993 0.45223 0.0
C1712 C 0.0128 0.26228 0.49424 0.0
H1713 H 0.01841 0.22963 0.528 0.0
C1714 C 0.98935 0.27949 0.49744 0.0
C1715 C 0.0231 0.2437 0.50532 0.0
C1716 C 0.04708 0.22341 0.50236 0.0
C1717 C 0.97593 0.27867 0.51138 0.0
C1718 C 0.98677 0.26075 0.52262 0.0
C1719 C 0.0102 0.24351 0.51942 0.0
C1720 C 0.974 0.25919 0.53772 0.0
C1721 C 0.9498 0.29645 0.51374 0.0
C1722 C 0.97146 0.28351 0.54661 0.0
C1723 C 0.96047 0.2817 0.56103 0.0
C1724 C 0.95233 0.25541 0.56697 0.0
C1725 C 0.95474 0.23113 0.55803 0.0
C1726 C 0.96541 0.23302 0.54355 0.0
H1727 H 0.9395 0.30191 0.50301 0.0
H1728 H 0.93415 0.28536 0.52087 0.0
H1729 H 0.95583 0.31651 0.51931 0.0
H1730 H 0.97858 0.30383 0.54253 0.0
H1731 H 0.95921 0.30077 0.56769 0.0
H1732 H 0.68911 0.95723 0.566 0.0
H1733 H 0.68561 0.97574 0.54064 0.0
H1734 H 0.77558 0.99063 0.5401 0.0
H1735 H 0.77918 0.97275 0.56554 0.0
H1736 H 0.74598 0.03623 0.53026 0.0
H1737 H 0.70868 0.93914 0.50168 0.0
H1738 H 0.68694 0.94956 0.51712 0.0
H1739 H 0.72286 0.93866 0.52032 0.0
C1740 C 0.70821 0.96413 0.56042 0.0
C1741 C 0.73445 0.96344 0.56779 0.0
C1742 C 0.70618 0.97462 0.5459 0.0
C1743 C 0.73038 0.98428 0.5384 0.0
C1744 C 0.75663 0.98326 0.54566 0.0
H1745 H 0.74835 0.01722 0.44445 0.0
H1746 H 0.75073 -0.00038 0.46992 0.0
C1747 C 0.75866 0.97294 0.5602 0.0
C1748 C 0.72833 -0.00356 0.5232 0.0
H1749 H 0.70818 0.98152 0.48756 0.0
C1750 C 0.73776 0.02426 0.5209 0.0
C1751 C 0.71783 0.98072 0.511 0.0
C1752 C 0.70874 0.95028 0.51257 0.0
C1753 C 0.73697 0.03681 0.50674 0.0
C1754 C 0.72587 0.0213 0.4946 0.0
C1755 C 0.71646 0.99347 0.4969 0.0
C1756 C 0.72494 0.033 0.47927 0.0
C1757 C 0.74876 0.06623 0.50485 0.0
C1758 C 0.70967 0.05772 0.47601 0.0
C1759 C 0.70847 0.06806 0.46141 0.0
C1760 C 0.72222 0.05361 0.44979 0.0
C1761 C 0.73749 0.02889 0.45312 0.0
C1762 C 0.73884 0.01873 0.46769 0.0
H1763 H 0.76301 0.07214 0.51418 0.0
H1764 H 0.76066 0.06815 0.49424 0.0
H1765 H 0.73106 0.08163 0.50463 0.0
H1766 H 0.69827 0.06876 0.48471 0.0
H1767 H 0.6963 0.08699 0.45919 0.0
H1768 H 0.03589 0.77479 0.5639 0.0
H1769 H 0.01816 0.77038 0.53845 0.0
H1770 H 0.00657 0.68076 0.54483 0.0
H1771 H 0.02503 0.68484 0.57017 0.0
H1772 H 0.02858 0.69192 0.51784 0.0
H1773 H 0.93594 0.76116 0.52753 0.0
H1774 H 0.9688 0.7784 0.53165 0.0
H1775 H 0.95785 0.74836 0.54251 0.0
C1776 C 0.02972 0.7541 0.55987 0.0
C1777 C 0.03167 0.73021 0.56912 0.0
C1778 C 0.01935 0.75166 0.54535 0.0
C1779 C 0.01031 0.72537 0.53985 0.0
C1780 C 0.01317 0.70131 0.54887 0.0
H1781 H 0.90506 0.70755 0.46023 0.0
H1782 H 0.9229 0.70731 0.48586 0.0
C1783 C 0.02377 0.70368 0.56336 0.0
C1784 C -0.0021 0.72295 0.5247 0.0
H1785 H 0.94576 0.74906 0.50228 0.0
C1786 C 0.01037 0.70429 0.51446 0.0
C1787 C 0.97377 0.73865 0.52038 0.0
C1788 C 0.95811 0.75754 0.53114 0.0
C1789 C -0.00012 0.70149 0.4999 0.0
C1790 C 0.97668 0.71833 0.49534 0.0
C1791 C 0.96373 0.73639 0.50571 0.0
C1792 C 0.96591 0.71799 0.4798 0.0
C1793 C 0.01354 0.68022 0.48964 0.0
C1794 C 0.984 0.72448 0.46791 0.0
C1795 C 0.97394 0.72444 0.45329 0.0
C1796 C 0.94541 0.71833 0.45024 0.0
C1797 C 0.92714 0.71232 0.46219 0.0
C1798 C 0.93732 0.71216 0.47684 0.0
H1799 H 0.02435 0.66322 0.49599 0.0
H1800 H -0.00223 0.67038 0.48209 0.0
H1801 H 0.02972 0.69104 0.48274 0.0
H1802 H 0.00593 0.72986 0.46993 0.0
H1803 H 0.98856 0.72943 0.44439 0.0
H1804 H 0.31444 0.07244 0.55646 0.0
H1805 H 0.31428 0.05076 0.53167 0.0
H1806 H 0.24678 0.99507 0.54528 0.0
H1807 H 0.24775 0.01574 0.57016 0.0
H1808 H 0.28478 0.96623 0.531 0.0
H1809 H 0.261 0.06203 0.49791 0.0
H1810 H 0.29253 0.06585 0.50879 0.0
H1811 H 0.25889 0.06164 0.51794 0.0
C1812 C 0.29941 0.05576 0.55409 0.0
C1813 C 0.28106 0.04586 0.56524 0.0
C1814 C 0.29922 0.04346 0.53989 0.0
C1815 C 0.28018 0.02155 0.53648 0.0
C1816 C 0.26166 0.01192 0.5476 0.0
H1817 H 0.23932 0.96631 0.44698 0.0
H1818 H 0.23936 0.9861 0.47212 0.0
C1819 C 0.26219 0.02382 0.56182 0.0
C1820 C 0.28003 0.00782 0.52156 0.0
H1821 H 0.27458 0.02106 0.48431 0.0
C1822 C 0.2824 0.97823 0.52079 0.0
C1823 C 0.27654 0.02337 0.50823 0.0
C1824 C 0.2718 0.05493 0.50823 0.0
C1825 C 0.28139 0.96378 0.50713 0.0
C1826 C 0.27902 0.97943 0.49376 0.0
C1827 C 0.27663 0.00902 0.49453 0.0
C1828 C 0.27828 0.96566 0.47885 0.0
C1829 C 0.28198 0.93188 0.50727 0.0
C1830 C 0.29997 0.94729 0.47423 0.0
C1831 C 0.29961 0.93541 0.45995 0.0
C1832 C 0.27796 0.94228 0.44988 0.0
C1833 C 0.25627 0.9606 0.45451 0.0
C1834 C 0.25634 0.97201 0.46886 0.0
H1835 H 0.27472 0.92333 0.51814 0.0
H1836 H 0.26845 0.9229 0.49835 0.0
H1837 H 0.30401 0.92454 0.50549 0.0
H1838 H 0.31758 0.94267 0.48153 0.0
H1839 H 0.31687 0.92175 0.4566 0.0
H1840 H 0.52591 0.71558 0.95128 0.0
H1841 H 0.50688 0.72033 0.97645 0.0
H1842 H 0.51623 0.81089 0.97384 0.0
H1843 H 0.53602 0.80628 0.94878 0.0
H1844 H 0.53231 0.79135 1.00062 0.0
H1845 H 0.42779 0.74627 0.98627 0.0
H1846 H 0.4563 0.72263 0.98195 0.0
H1847 H 0.45348 0.75587 0.97231 0.0
C1848 C 0.52409 0.73652 0.95608 0.0
C1849 C 0.5323 0.76057 0.94797 0.0
C1850 C 0.51296 0.73921 0.97044 0.0
C1851 C 0.50939 0.76602 0.97689 0.0
C1852 C 0.51852 0.79001 0.96903 0.0
H1853 H 0.40381 0.79454 0.05577 0.0
H1854 H 0.42295 0.79434 0.03037 0.0
C1855 C 0.52988 0.78732 0.95471 0.0
C1856 C 0.49629 0.76901 0.99186 0.0
H1857 H 0.43771 0.75166 0.01218 0.0
C1858 C 0.51155 0.78283 1.00312 0.0
C1859 C 0.46893 0.75845 0.99506 0.0
C1860 C 0.45054 0.74525 0.98322 0.0
C1861 C 0.50059 0.78561 0.01758 0.0
C1862 C 0.47393 0.77359 0.021 0.0
C1863 C 0.45829 0.76055 0.00963 0.0
C1864 C 0.4622 0.77373 0.03636 0.0
C1865 C 0.51759 0.80172 0.029 0.0
C1866 C 0.47759 0.7617 0.0481 0.0
C1867 C 0.46684 0.76198 0.06258 0.0
C1868 C 0.44019 0.77388 0.06563 0.0
C1869 C 0.4244 0.78523 0.0538 0.0
C1870 C 0.43533 0.78517 0.03929 0.0
H1871 H 0.53225 0.81698 0.02363 0.0
H1872 H 0.50366 0.81348 0.0368 0.0
H1873 H 0.53055 0.78662 0.03553 0.0
H1874 H 0.49796 0.75196 0.04607 0.0
H1875 H 0.47945 0.75276 0.07139 0.0
H1876 H 0.22958 0.48714 0.07379 0.0
H1877 H 0.22903 0.50811 0.04899 0.0
H1878 H 0.22136 0.42528 0.02937 0.0
H1879 H 0.22203 0.40384 0.05428 0.0
H1880 H 0.26833 0.49329 0.02384 0.0
H1881 H 0.15394 0.47579 0.01235 0.0
H1882 H 0.16807 0.47631 0.03103 0.0
H1883 H 0.17417 0.44632 0.01924 0.0
C1884 C 0.22776 0.47327 0.06424 0.0
C1885 C 0.22578 0.44376 0.06603 0.0
C1886 C 0.2275 0.48535 0.05007 0.0
C1887 C 0.22496 0.46826 0.03742 0.0
C1888 C 0.2231 0.4388 0.03907 0.0
H1889 H 0.20831 0.50729 0.94386 0.0
H1890 H 0.20885 0.48565 0.96845 0.0
C1891 C 0.22358 0.42661 0.05328 0.0
C1892 C 0.22448 0.48151 0.02251 0.0
H1893 H 0.18087 0.4974 0.99346 0.0
C1894 C 0.24926 0.4942 0.01715 0.0
C1895 C 0.19955 0.48258 0.01389 0.0
C1896 C 0.17229 0.46971 0.01937 0.0
C1897 C 0.24991 0.50765 1.00322 0.0
C1898 C 0.22483 0.50916 0.99465 0.0
C1899 C 0.20004 0.49637 1.00006 0.0
C1900 C 0.22402 0.52302 0.97983 0.0
C1901 C 0.27765 0.51943 0.99769 0.0
C1902 C 0.23184 0.5515 0.97804 0.0
C1903 C 0.23187 0.56394 0.96389 0.0
C1904 C 0.2236 0.54824 0.95133 0.0
C1905 C 0.21486 0.52004 0.95327 0.0
C1906 C 0.21514 0.50758 0.96735 0.0
H1907 H 0.29595 0.50964 1.00348 0.0
H1908 H 0.28012 0.51601 0.98552 0.0
H1909 H 0.27831 0.54251 0.99989 0.0
H1910 H 0.23802 0.56408 0.98757 0.0
H1911 H 0.23846 0.58577 0.9628 0.0
H1912 H 0.53492 0.18831 0.06725 0.0
H1913 H 0.51667 0.18312 0.04196 0.0
H1914 H 0.5047 0.27337 0.03917 0.0
H1915 H 0.52213 0.27865 0.06464 0.0
H1916 H 0.45888 0.24564 0.0296 0.0
H1917 H 0.55393 0.19985 1.00273 0.0
H1918 H 0.54216 0.17984 0.01852 0.0
H1919 H 0.55489 0.21538 0.02107 0.0
C1920 C 0.52874 0.20711 0.0612 0.0
C1921 C 0.53006 0.23392 0.06796 0.0
C1922 C 0.51841 0.20411 0.0467 0.0
C1923 C 0.50966 0.22789 0.03856 0.0
C1924 C 0.51137 0.25472 0.04521 0.0
H1925 H 0.4789 0.2358 0.94401 0.0
H1926 H 0.49692 0.23908 0.96936 0.0
C1927 C 0.52143 0.25771 0.05976 0.0
C1928 C 0.4976 0.22478 0.02337 0.0
H1929 H 0.51146 0.19903 0.98859 0.0
C1930 C 0.47041 0.23553 0.02061 0.0
C1931 C 0.51274 0.21181 0.01161 0.0
C1932 C 0.54265 0.20131 0.01356 0.0
C1933 C 0.45795 0.23368 1.00645 0.0
C1934 C 0.47276 0.21999 0.9948 0.0
C1935 C 0.49996 0.20925 0.99756 0.0
C1936 C 0.46119 0.21788 0.97945 0.0
C1937 C 0.4294 0.24718 1.00404 0.0
C1938 C 0.4351 0.20468 0.97662 0.0
C1939 C 0.42449 0.20307 0.96207 0.0
C1940 C 0.44005 0.21419 0.95009 0.0
C1941 C 0.46634 0.22698 0.95297 0.0
C1942 C 0.47673 0.22885 0.96747 0.0
H1943 H 0.42458 0.26319 0.01274 0.0
H1944 H 0.42824 0.25755 0.99297 0.0
H1945 H 0.41279 0.23064 1.00455 0.0
H1946 H 0.42303 0.19543 0.98562 0.0
H1947 H 0.40432 0.19284 0.9602 0.0
H1948 H 0.79626 0.40831 0.96063 0.0
H1949 H 0.7951 0.42869 0.9858 0.0
H1950 H 0.75715 0.50462 0.96843 0.0
H1951 H 0.75837 0.48473 0.94334 0.0
H1952 H 0.81992 0.48863 0.99401 0.0
H1953 H 0.70487 0.47269 1.00417 0.0
H1954 H 0.72472 0.45088 0.99135 0.0
H1955 H 0.71546 0.48635 0.9863 0.0
C1956 C 0.78759 0.4293 0.96218 0.0
C1957 C 0.77737 0.44486 0.94997 0.0
C1958 C 0.78702 0.44091 0.97654 0.0
C1959 C 0.7759 0.46805 0.97893 0.0
C1960 C 0.76565 0.48357 0.9668 0.0
H1961 H 0.73759 0.57007 0.05681 0.0
H1962 H 0.7418 0.55064 0.03163 0.0
C1963 C 0.76643 0.47214 0.95247 0.0
C1964 C 0.77519 0.48052 0.99404 0.0
H1965 H 0.73021 0.49857 0.02219 0.0
C1966 C 0.80039 0.4907 1.00026 0.0
C1967 C 0.74959 0.48348 1.00198 0.0
C1968 C 0.72204 0.47269 0.99572 0.0
C1969 C 0.80061 0.50422 0.0142 0.0
C1970 C 0.77501 0.50688 0.0223 0.0
C1971 C 0.74981 0.49659 0.01601 0.0
C1972 C 0.77383 0.51984 0.03739 0.0
C1973 C 0.82813 0.51624 0.01988 0.0
C1974 C 0.79044 0.50907 0.04902 0.0
C1975 C 0.78836 0.52039 0.06336 0.0
C1976 C 0.76917 0.54236 0.06646 0.0
C1977 C 0.75259 0.55319 0.0548 0.0
C1978 C 0.75493 0.54206 0.0404 0.0
H1979 H 0.8431 0.52059 0.01062 0.0
H1980 H 0.82467 0.53614 0.02619 0.0
H1981 H 0.83828 0.50065 0.02739 0.0
H1982 H 0.80458 0.49144 0.04711 0.0
H1983 H 0.80125 0.51133 0.0721 0.0
loop_
_geom_bond_atom_site_label_1
_geom_bond_atom_site_label_2
_geom_bond_distance
_geom_bond_site_symmetry_2
_ccdc_geom_bond_type
Co0 O3 1.970 . S
Co0 N17 1.989 . S
Co0 O25 1.967 . S
Co0 O32 1.920 . S
Co1 O4 1.966 . S
Co1 N10 2.022 . S
Co1 N18 1.993 . S
Co1 O26 1.941 . S
C2 O3 1.258 . S
C2 O4 1.263 . S
O3 Co0 1.970 . S
O3 C2 1.258 . S
O4 Co1 1.966 . S
O4 C2 1.263 . S
C5 O6 1.235 . S
C5 O32 1.289 . S
O6 C5 1.235 . S
C7 C9 1.400 . S
C7 N10 1.351 . S
C7 C12 1.501 . S
C8 C9 1.387 . S
C8 N11 1.341 . S
C9 C7 1.400 . S
C9 C8 1.387 . S
N10 Co1 2.022 . S
N10 C7 1.351 . S
N10 N11 1.365 . S
N11 C8 1.341 . S
N11 N10 1.365 . S
N11 H31 0.862 . S
C12 C7 1.501 . S
C12 H13 0.961 . S
C12 H14 0.961 . S
C12 H15 0.960 . S
H13 C12 0.961 . S
H14 C12 0.961 . S
H15 C12 0.960 . S
C16 N17 1.342 . S
C16 C20 1.401 . S
C16 C21 1.499 . S
N17 Co0 1.989 . S
N17 C16 1.342 . S
N17 N18 1.388 . S
N18 Co1 1.993 . S
N18 N17 1.388 . S
N18 C19 1.346 . S
C19 N18 1.346 . S
C19 C20 1.396 . S
C19 C29 1.510 . S
C20 C16 1.401 . S
C20 C19 1.396 . S
C21 C16 1.499 . S
C21 H22 0.959 . S
C21 H23 0.960 . S
C21 H24 0.961 . S
H22 C21 0.959 . S
H23 C21 0.960 . S
H24 C21 0.961 . S
O25 Co0 1.967 . S
O25 C33 1.258 1_455 S
O26 Co1 1.941 . S
O26 C33 1.266 1_455 S
H27 C29 0.959 . S
H28 C29 0.961 . S
C29 C19 1.510 . S
C29 H27 0.959 . S
C29 H28 0.961 . S
C29 H30 0.960 . S
H30 C29 0.960 . S
H31 N11 0.862 . S
O32 Co0 1.920 . S
O32 C5 1.289 . S
C33 O25 1.258 1_655 S
C33 O26 1.266 1_655 S
Co34 O37 1.970 . S
Co34 N51 1.989 . S
Co34 O59 1.967 . S
Co34 O66 1.920 . S
Co35 O38 1.966 . S
Co35 N44 2.022 . S
Co35 N52 1.993 . S
Co35 O60 1.941 . S
C36 O37 1.258 . S
C36 O38 1.263 . S
O37 Co34 1.970 . S
O37 C36 1.258 . S
O38 Co35 1.966 . S
O38 C36 1.263 . S
C39 O40 1.235 . S
C39 O66 1.289 . S
O40 C39 1.235 . S
C41 C43 1.400 . S
C41 N44 1.351 . S
C41 C46 1.501 . S
C42 C43 1.387 . S
C42 N45 1.341 . S
C43 C41 1.400 . S
C43 C42 1.387 . S
N44 Co35 2.022 . S
N44 C41 1.351 . S
N44 N45 1.365 . S
N45 C42 1.341 . S
N45 N44 1.365 . S
N45 H65 0.862 . S
C46 C41 1.501 . S
C46 H47 0.961 . S
C46 H48 0.961 . S
C46 H49 0.960 . S
H47 C46 0.961 . S
H48 C46 0.961 . S
H49 C46 0.960 . S
C50 N51 1.342 . S
C50 C54 1.401 . S
C50 C55 1.499 . S
N51 Co34 1.989 . S
N51 C50 1.342 . S
N51 N52 1.388 . S
N52 Co35 1.993 . S
N52 N51 1.388 . S
N52 C53 1.346 . S
C53 N52 1.346 . S
C53 C54 1.396 . S
C53 C63 1.510 . S
C54 C50 1.401 . S
C54 C53 1.396 . S
C55 C50 1.499 . S
C55 H56 0.959 . S
C55 H57 0.960 . S
C55 H58 0.961 . S
H56 C55 0.959 . S
H57 C55 0.960 . S
H58 C55 0.961 . S
O59 Co34 1.967 . S
O59 C67 1.258 1_545 S
O60 Co35 1.941 . S
O60 C67 1.266 1_545 S
H61 C63 0.959 . S
H62 C63 0.961 . S
C63 C53 1.510 . S
C63 H61 0.959 . S
C63 H62 0.961 . S
C63 H64 0.960 . S
H64 C63 0.960 . S
H65 N45 0.862 . S
O66 Co34 1.920 . S
O66 C39 1.289 . S
C67 O59 1.258 1_565 S
C67 O60 1.266 1_565 S
Co68 O71 1.970 . S
Co68 N85 1.989 . S
Co68 O93 1.967 . S
Co68 O100 1.920 . S
Co69 O72 1.966 . S
Co69 N78 2.022 . S
Co69 N86 1.993 . S
Co69 O94 1.941 . S
C70 O71 1.258 . S
C70 O72 1.263 . S
O71 Co68 1.970 . S
O71 C70 1.258 . S
O72 Co69 1.966 . S
O72 C70 1.263 . S
C73 O74 1.235 . S
C73 O100 1.289 . S
O74 C73 1.235 . S
C75 C77 1.400 . S
C75 N78 1.351 . S
C75 C80 1.501 . S
C76 C77 1.387 . S
C76 N79 1.341 . S
C77 C75 1.400 . S
C77 C76 1.387 . S
N78 Co69 2.022 . S
N78 C75 1.351 . S
N78 N79 1.365 . S
N79 C76 1.341 . S
N79 N78 1.365 . S
N79 H99 0.862 . S
C80 C75 1.501 . S
C80 H81 0.961 . S
C80 H82 0.961 . S
C80 H83 0.960 . S
H81 C80 0.961 . S
H82 C80 0.961 . S
H83 C80 0.960 . S
C84 N85 1.342 . S
C84 C88 1.401 . S
C84 C89 1.499 . S
N85 Co68 1.989 . S
N85 C84 1.342 . S
N85 N86 1.388 . S
N86 Co69 1.993 . S
N86 N85 1.388 . S
N86 C87 1.346 . S
C87 N86 1.346 . S
C87 C88 1.396 . S
C87 C97 1.510 . S
C88 C84 1.401 . S
C88 C87 1.396 . S
C89 C84 1.499 . S
C89 H90 0.959 . S
C89 H91 0.960 . S
C89 H92 0.961 . S
H90 C89 0.959 . S
H91 C89 0.960 . S
H92 C89 0.961 . S
O93 Co68 1.967 . S
O93 C101 1.258 1_655 S
O94 Co69 1.941 . S
O94 C101 1.266 1_655 S
H95 C97 0.959 . S
H96 C97 0.961 . S
C97 C87 1.510 . S
C97 H95 0.959 . S
C97 H96 0.961 . S
C97 H98 0.960 . S
H98 C97 0.960 . S
H99 N79 0.862 . S
O100 Co68 1.920 . S
O100 C73 1.289 . S
C101 O93 1.258 1_455 S
C101 O94 1.266 1_455 S
Co102 O105 1.970 . S
Co102 N119 1.989 . S
Co102 O127 1.967 . S
Co102 O134 1.920 . S
Co103 O106 1.966 . S
Co103 N112 2.022 . S
Co103 N120 1.993 . S
Co103 O128 1.941 . S
C104 O105 1.258 . S
C104 O106 1.263 . S
O105 Co102 1.970 . S
O105 C104 1.258 . S
O106 Co103 1.966 . S
O106 C104 1.263 . S
C107 O108 1.235 . S
C107 O134 1.289 . S
O108 C107 1.235 . S
C109 C111 1.400 . S
C109 N112 1.351 . S
C109 C114 1.501 . S
C110 C111 1.387 . S
C110 N113 1.341 . S
C111 C109 1.400 . S
C111 C110 1.387 . S
N112 Co103 2.022 . S
N112 C109 1.351 . S
N112 N113 1.365 . S
N113 C110 1.341 . S
N113 N112 1.365 . S
N113 H133 0.862 . S
C114 C109 1.501 . S
C114 H115 0.961 . S
C114 H116 0.961 . S
C114 H117 0.960 . S
H115 C114 0.961 . S
H116 C114 0.961 . S
H117 C114 0.960 . S
C118 N119 1.342 . S
C118 C122 1.401 . S
C118 C123 1.499 . S
N119 Co102 1.989 . S
N119 C118 1.342 . S
N119 N120 1.388 . S
N120 Co103 1.993 . S
N120 N119 1.388 . S
N120 C121 1.346 . S
C121 N120 1.346 . S
C121 C122 1.396 . S
C121 C131 1.510 . S
C122 C118 1.401 . S
C122 C121 1.396 . S
C123 C118 1.499 . S
C123 H124 0.959 . S
C123 H125 0.960 . S
C123 H126 0.961 . S
H124 C123 0.959 . S
H125 C123 0.960 . S
H126 C123 0.961 . S
O127 Co102 1.967 . S
O127 C135 1.258 1_565 S
O128 Co103 1.941 . S
O128 C135 1.266 1_565 S
H129 C131 0.959 . S
H130 C131 0.961 . S
C131 C121 1.510 . S
C131 H129 0.959 . S
C131 H130 0.961 . S
C131 H132 0.960 . S
H132 C131 0.960 . S
H133 N113 0.862 . S
O134 Co102 1.920 . S
O134 C107 1.289 . S
C135 O127 1.258 1_545 S
C135 O128 1.266 1_545 S
Co136 O139 1.970 . S
Co136 N153 1.989 . S
Co136 O161 1.967 . S
Co136 O168 1.920 . S
Co137 O140 1.966 . S
Co137 N146 2.022 . S
Co137 N154 1.993 . S
Co137 O162 1.941 . S
C138 O139 1.258 . S
C138 O140 1.263 . S
O139 Co136 1.970 . S
O139 C138 1.258 . S
O140 Co137 1.966 . S
O140 C138 1.263 . S
C141 O142 1.235 . S
C141 O168 1.289 . S
O142 C141 1.235 . S
C143 C145 1.400 . S
C143 N146 1.351 . S
C143 C148 1.501 . S
C144 C145 1.387 . S
C144 N147 1.341 . S
C145 C143 1.400 . S
C145 C144 1.387 . S
N146 Co137 2.022 . S
N146 C143 1.351 . S
N146 N147 1.365 . S
N147 C144 1.341 . S
N147 N146 1.365 . S
N147 H167 0.862 . S
C148 C143 1.501 . S
C148 H149 0.961 . S
C148 H150 0.961 . S
C148 H151 0.960 . S
H149 C148 0.961 . S
H150 C148 0.961 . S
H151 C148 0.960 . S
C152 N153 1.342 . S
C152 C156 1.401 . S
C152 C157 1.499 . S
N153 Co136 1.989 . S
N153 C152 1.342 . S
N153 N154 1.388 . S
N154 Co137 1.993 . S
N154 N153 1.388 . S
N154 C155 1.346 . S
C155 N154 1.346 . S
C155 C156 1.396 . S
C155 C165 1.510 . S
C156 C152 1.401 . S
C156 C155 1.396 . S
C157 C152 1.499 . S
C157 H158 0.959 . S
C157 H159 0.960 . S
C157 H160 0.961 . S
H158 C157 0.959 . S
H159 C157 0.960 . S
H160 C157 0.961 . S
O161 Co136 1.967 . S
O161 C169 1.258 1_455 S
O162 Co137 1.941 . S
O162 C169 1.266 1_455 S
H163 C165 0.959 . S
H164 C165 0.961 . S
C165 C155 1.510 . S
C165 H163 0.959 . S
C165 H164 0.961 . S
C165 H166 0.960 . S
H166 C165 0.960 . S
H167 N147 0.862 . S
O168 Co136 1.920 . S
O168 C141 1.289 . S
C169 O161 1.258 1_655 S
C169 O162 1.266 1_655 S
Co170 O173 1.970 . S
Co170 N187 1.989 . S
Co170 O195 1.967 . S
Co170 O202 1.920 . S
Co171 O174 1.966 . S
Co171 N180 2.022 . S
Co171 N188 1.993 . S
Co171 O196 1.941 . S
C172 O173 1.258 . S
C172 O174 1.263 . S
O173 Co170 1.970 . S
O173 C172 1.258 . S
O174 Co171 1.966 . S
O174 C172 1.263 . S
C175 O176 1.235 . S
C175 O202 1.289 . S
O176 C175 1.235 . S
C177 C179 1.400 . S
C177 N180 1.351 . S
C177 C182 1.501 . S
C178 C179 1.387 . S
C178 N181 1.341 . S
C179 C177 1.400 . S
C179 C178 1.387 . S
N180 Co171 2.022 . S
N180 C177 1.351 . S
N180 N181 1.365 . S
N181 C178 1.341 . S
N181 N180 1.365 . S
N181 H201 0.862 . S
C182 C177 1.501 . S
C182 H183 0.961 . S
C182 H184 0.961 . S
C182 H185 0.960 . S
H183 C182 0.961 . S
H184 C182 0.961 . S
H185 C182 0.960 . S
C186 N187 1.342 . S
C186 C190 1.401 . S
C186 C191 1.499 . S
N187 Co170 1.989 . S
N187 C186 1.342 . S
N187 N188 1.388 . S
N188 Co171 1.993 . S
N188 N187 1.388 . S
N188 C189 1.346 . S
C189 N188 1.346 . S
C189 C190 1.396 . S
C189 C199 1.510 . S
C190 C186 1.401 . S
C190 C189 1.396 . S
C191 C186 1.499 . S
C191 H192 0.959 . S
C191 H193 0.960 . S
C191 H194 0.961 . S
H192 C191 0.959 . S
H193 C191 0.960 . S
H194 C191 0.961 . S
O195 Co170 1.967 . S
O195 C203 1.258 1_545 S
O196 Co171 1.941 . S
O196 C203 1.266 1_545 S
H197 C199 0.959 . S
H198 C199 0.961 . S
C199 C189 1.510 . S
C199 H197 0.959 . S
C199 H198 0.961 . S
C199 H200 0.960 . S
H200 C199 0.960 . S
H201 N181 0.862 . S
O202 Co170 1.920 . S
O202 C175 1.289 . S
C203 O195 1.258 1_565 S
C203 O196 1.266 1_565 S
Co204 O207 1.970 . S
Co204 N221 1.989 . S
Co204 O229 1.967 . S
Co204 O236 1.920 . S
Co205 O208 1.966 . S
Co205 N214 2.022 . S
Co205 N222 1.993 . S
Co205 O230 1.941 . S
C206 O207 1.258 . S
C206 O208 1.263 . S
O207 Co204 1.970 . S
O207 C206 1.258 . S
O208 Co205 1.966 . S
O208 C206 1.263 . S
C209 O210 1.235 . S
C209 O236 1.289 . S
O210 C209 1.235 . S
C211 C213 1.400 . S
C211 N214 1.351 . S
C211 C216 1.501 . S
C212 C213 1.387 . S
C212 N215 1.341 . S
C213 C211 1.400 . S
C213 C212 1.387 . S
N214 Co205 2.022 . S
N214 C211 1.351 . S
N214 N215 1.365 . S
N215 C212 1.341 . S
N215 N214 1.365 . S
N215 H235 0.862 . S
C216 C211 1.501 . S
C216 H217 0.961 . S
C216 H218 0.961 . S
C216 H219 0.960 . S
H217 C216 0.961 . S
H218 C216 0.961 . S
H219 C216 0.960 . S
C220 N221 1.342 . S
C220 C224 1.401 . S
C220 C225 1.499 . S
N221 Co204 1.989 . S
N221 C220 1.342 . S
N221 N222 1.388 . S
N222 Co205 1.993 . S
N222 N221 1.388 . S
N222 C223 1.346 . S
C223 N222 1.346 . S
C223 C224 1.396 . S
C223 C233 1.510 . S
C224 C220 1.401 . S
C224 C223 1.396 . S
C225 C220 1.499 . S
C225 H226 0.959 . S
C225 H227 0.960 . S
C225 H228 0.961 . S
H226 C225 0.959 . S
H227 C225 0.960 . S
H228 C225 0.961 . S
O229 Co204 1.967 . S
O229 C237 1.258 1_655 S
O230 Co205 1.941 . S
O230 C237 1.266 1_655 S
H231 C233 0.959 . S
H232 C233 0.961 . S
C233 C223 1.510 . S
C233 H231 0.959 . S
C233 H232 0.961 . S
C233 H234 0.960 . S
H234 C233 0.960 . S
H235 N215 0.862 . S
O236 Co204 1.920 . S
O236 C209 1.289 . S
C237 O229 1.258 1_455 S
C237 O230 1.266 1_455 S
Co238 O241 1.970 . S
Co238 N255 1.989 . S
Co238 O263 1.967 . S
Co238 O270 1.920 . S
Co239 O242 1.966 . S
Co239 N248 2.022 . S
Co239 N256 1.993 . S
Co239 O264 1.941 . S
C240 O241 1.258 . S
C240 O242 1.263 . S
O241 Co238 1.970 . S
O241 C240 1.258 . S
O242 Co239 1.966 . S
O242 C240 1.263 . S
C243 O244 1.235 . S
C243 O270 1.289 . S
O244 C243 1.235 . S
C245 C247 1.400 . S
C245 N248 1.351 . S
C245 C250 1.501 . S
C246 C247 1.387 . S
C246 N249 1.341 . S
C247 C245 1.400 . S
C247 C246 1.387 . S
N248 Co239 2.022 . S
N248 C245 1.351 . S
N248 N249 1.365 . S
N249 C246 1.341 . S
N249 N248 1.365 . S
N249 H269 0.862 . S
C250 C245 1.501 . S
C250 H251 0.961 . S
C250 H252 0.961 . S
C250 H253 0.960 . S
H251 C250 0.961 . S
H252 C250 0.961 . S
H253 C250 0.960 . S
C254 N255 1.342 . S
C254 C258 1.401 . S
C254 C259 1.499 . S
N255 Co238 1.989 . S
N255 C254 1.342 . S
N255 N256 1.388 . S
N256 Co239 1.993 . S
N256 N255 1.388 . S
N256 C257 1.346 . S
C257 N256 1.346 . S
C257 C258 1.396 . S
C257 C267 1.510 . S
C258 C254 1.401 . S
C258 C257 1.396 . S
C259 C254 1.499 . S
C259 H260 0.959 . S
C259 H261 0.960 . S
C259 H262 0.961 . S
H260 C259 0.959 . S
H261 C259 0.960 . S
H262 C259 0.961 . S
O263 Co238 1.967 . S
O263 C271 1.258 1_565 S
O264 Co239 1.941 . S
O264 C271 1.266 1_565 S
H265 C267 0.959 . S
H266 C267 0.961 . S
C267 C257 1.510 . S
C267 H265 0.959 . S
C267 H266 0.961 . S
C267 H268 0.960 . S
H268 C267 0.960 . S
H269 N249 0.862 . S
O270 Co238 1.920 . S
O270 C243 1.289 . S
C271 O263 1.258 1_545 S
C271 O264 1.266 1_545 S
Co272 O275 1.970 . S
Co272 N289 1.989 . S
Co272 O297 1.967 . S
Co272 O304 1.920 . S
Co273 O276 1.966 . S
Co273 N282 2.022 . S
Co273 N290 1.993 . S
Co273 O298 1.941 . S
C274 O275 1.258 . S
C274 O276 1.263 . S
O275 Co272 1.970 . S
O275 C274 1.258 . S
O276 Co273 1.966 . S
O276 C274 1.263 . S
C277 O278 1.235 . S
C277 O304 1.289 . S
O278 C277 1.235 . S
C279 C281 1.400 . S
C279 N282 1.351 . S
C279 C284 1.501 . S
C280 C281 1.387 . S
C280 N283 1.341 . S
C281 C279 1.400 . S
C281 C280 1.387 . S
N282 Co273 2.022 . S
N282 C279 1.351 . S
N282 N283 1.365 . S
N283 C280 1.341 . S
N283 N282 1.365 . S
N283 H303 0.862 . S
C284 C279 1.501 . S
C284 H285 0.961 . S
C284 H286 0.961 . S
C284 H287 0.960 . S
H285 C284 0.961 . S
H286 C284 0.961 . S
H287 C284 0.960 . S
C288 N289 1.342 . S
C288 C292 1.401 . S
C288 C293 1.499 . S
N289 Co272 1.989 . S
N289 C288 1.342 . S
N289 N290 1.388 . S
N290 Co273 1.993 . S
N290 N289 1.388 . S
N290 C291 1.346 . S
C291 N290 1.346 . S
C291 C292 1.396 . S
C291 C301 1.510 . S
C292 C288 1.401 . S
C292 C291 1.396 . S
C293 C288 1.499 . S
C293 H294 0.959 . S
C293 H295 0.960 . S
C293 H296 0.961 . S
H294 C293 0.959 . S
H295 C293 0.960 . S
H296 C293 0.961 . S
O297 Co272 1.967 . S
O297 C305 1.258 . S
O298 Co273 1.941 . S
O298 C305 1.266 . S
H299 C301 0.959 . S
H300 C301 0.961 . S
C301 C291 1.510 . S
C301 H299 0.959 . S
C301 H300 0.961 . S
C301 H302 0.960 . S
H302 C301 0.960 . S
H303 N283 0.862 . S
O304 Co272 1.920 . S
O304 C277 1.289 . S
C305 O297 1.258 . S
C305 O298 1.266 . S
Co306 O309 1.970 . S
Co306 N323 1.989 . S
Co306 O331 1.967 . S
Co306 O338 1.920 . S
Co307 O310 1.966 . S
Co307 N316 2.022 . S
Co307 N324 1.993 . S
Co307 O332 1.941 . S
C308 O309 1.258 . S
C308 O310 1.263 . S
O309 Co306 1.970 . S
O309 C308 1.258 . S
O310 Co307 1.966 . S
O310 C308 1.263 . S
C311 O312 1.235 . S
C311 O338 1.289 . S
O312 C311 1.235 . S
C313 C315 1.400 . S
C313 N316 1.351 . S
C313 C318 1.501 . S
C314 C315 1.387 . S
C314 N317 1.341 . S
C315 C313 1.400 . S
C315 C314 1.387 . S
N316 Co307 2.022 . S
N316 C313 1.351 . S
N316 N317 1.365 . S
N317 C314 1.341 . S
N317 N316 1.365 . S
N317 H337 0.862 . S
C318 C313 1.501 . S
C318 H319 0.961 . S
C318 H320 0.961 . S
C318 H321 0.960 . S
H319 C318 0.961 . S
H320 C318 0.961 . S
H321 C318 0.960 . S
C322 N323 1.342 . S
C322 C326 1.401 . S
C322 C327 1.499 . S
N323 Co306 1.989 . S
N323 C322 1.342 . S
N323 N324 1.388 . S
N324 Co307 1.993 . S
N324 N323 1.388 . S
N324 C325 1.346 . S
C325 N324 1.346 . S
C325 C326 1.396 . S
C325 C335 1.510 . S
C326 C322 1.401 . S
C326 C325 1.396 . S
C327 C322 1.499 . S
C327 H328 0.959 . S
C327 H329 0.960 . S
C327 H330 0.961 . S
H328 C327 0.959 . S
H329 C327 0.960 . S
H330 C327 0.961 . S
O331 Co306 1.967 . S
O331 C339 1.258 . S
O332 Co307 1.941 . S
O332 C339 1.266 . S
H333 C335 0.959 . S
H334 C335 0.961 . S
C335 C325 1.510 . S
C335 H333 0.959 . S
C335 H334 0.961 . S
C335 H336 0.960 . S
H336 C335 0.960 . S
H337 N317 0.862 . S
O338 Co306 1.920 . S
O338 C311 1.289 . S
C339 O331 1.258 . S
C339 O332 1.266 . S
Co340 O343 1.970 . S
Co340 N357 1.989 . S
Co340 O365 1.967 . S
Co340 O372 1.920 . S
Co341 O344 1.966 . S
Co341 N350 2.022 . S
Co341 N358 1.993 . S
Co341 O366 1.941 . S
C342 O343 1.258 . S
C342 O344 1.263 . S
O343 Co340 1.970 . S
O343 C342 1.258 . S
O344 Co341 1.966 . S
O344 C342 1.263 . S
C345 O346 1.235 . S
C345 O372 1.289 . S
O346 C345 1.235 . S
C347 C349 1.400 . S
C347 N350 1.351 . S
C347 C352 1.501 . S
C348 C349 1.387 . S
C348 N351 1.341 . S
C349 C347 1.400 . S
C349 C348 1.387 . S
N350 Co341 2.022 . S
N350 C347 1.351 . S
N350 N351 1.365 . S
N351 C348 1.341 . S
N351 N350 1.365 . S
N351 H371 0.862 . S
C352 C347 1.501 . S
C352 H353 0.961 . S
C352 H354 0.961 . S
C352 H355 0.960 . S
H353 C352 0.961 . S
H354 C352 0.961 . S
H355 C352 0.960 . S
C356 N357 1.342 . S
C356 C360 1.401 . S
C356 C361 1.499 . S
N357 Co340 1.989 . S
N357 C356 1.342 . S
N357 N358 1.388 . S
N358 Co341 1.993 . S
N358 N357 1.388 . S
N358 C359 1.346 . S
C359 N358 1.346 . S
C359 C360 1.396 . S
C359 C369 1.510 . S
C360 C356 1.401 . S
C360 C359 1.396 . S
C361 C356 1.499 . S
C361 H362 0.959 . S
C361 H363 0.960 . S
C361 H364 0.961 . S
H362 C361 0.959 . S
H363 C361 0.960 . S
H364 C361 0.961 . S
O365 Co340 1.967 . S
O365 C373 1.258 . S
O366 Co341 1.941 . S
O366 C373 1.266 . S
H367 C369 0.959 . S
H368 C369 0.961 . S
C369 C359 1.510 . S
C369 H367 0.959 . S
C369 H368 0.961 . S
C369 H370 0.960 . S
H370 C369 0.960 . S
H371 N351 0.862 . S
O372 Co340 1.920 . S
O372 C345 1.289 . S
C373 O365 1.258 . S
C373 O366 1.266 . S
Co374 O377 1.970 . S
Co374 N391 1.989 . S
Co374 O399 1.967 . S
Co374 O406 1.920 . S
Co375 O378 1.966 . S
Co375 N384 2.022 . S
Co375 N392 1.993 . S
Co375 O400 1.941 . S
C376 O377 1.258 . S
C376 O378 1.263 . S
O377 Co374 1.970 . S
O377 C376 1.258 . S
O378 Co375 1.966 . S
O378 C376 1.263 . S
C379 O380 1.235 . S
C379 O406 1.289 . S
O380 C379 1.235 . S
C381 C383 1.400 . S
C381 N384 1.351 . S
C381 C386 1.501 . S
C382 C383 1.387 . S
C382 N385 1.341 . S
C383 C381 1.400 . S
C383 C382 1.387 . S
N384 Co375 2.022 . S
N384 C381 1.351 . S
N384 N385 1.365 . S
N385 C382 1.341 . S
N385 N384 1.365 . S
N385 H405 0.862 . S
C386 C381 1.501 . S
C386 H387 0.961 . S
C386 H388 0.961 . S
C386 H389 0.960 . S
H387 C386 0.961 . S
H388 C386 0.961 . S
H389 C386 0.960 . S
C390 N391 1.342 . S
C390 C394 1.401 . S
C390 C395 1.499 . S
N391 Co374 1.989 . S
N391 C390 1.342 . S
N391 N392 1.388 . S
N392 Co375 1.993 . S
N392 N391 1.388 . S
N392 C393 1.346 . S
C393 N392 1.346 . S
C393 C394 1.396 . S
C393 C403 1.510 . S
C394 C390 1.401 . S
C394 C393 1.396 . S
C395 C390 1.499 . S
C395 H396 0.959 . S
C395 H397 0.960 . S
C395 H398 0.961 . S
H396 C395 0.959 . S
H397 C395 0.960 . S
H398 C395 0.961 . S
O399 Co374 1.967 . S
O399 C407 1.258 . S
O400 Co375 1.941 . S
O400 C407 1.266 . S
H401 C403 0.959 . S
H402 C403 0.961 . S
C403 C393 1.510 . S
C403 H401 0.959 . S
C403 H402 0.961 . S
C403 H404 0.960 . S
H404 C403 0.960 . S
H405 N385 0.862 . S
O406 Co374 1.920 . S
O406 C379 1.289 . S
C407 O399 1.258 . S
C407 O400 1.266 . S
Co408 O411 1.970 . S
Co408 N425 1.989 . S
Co408 O433 1.967 . S
Co408 O440 1.920 . S
Co409 O412 1.966 . S
Co409 N418 2.022 . S
Co409 N426 1.993 . S
Co409 O434 1.941 . S
C410 O411 1.258 . S
C410 O412 1.263 . S
O411 Co408 1.970 . S
O411 C410 1.258 . S
O412 Co409 1.966 . S
O412 C410 1.263 . S
C413 O414 1.235 . S
C413 O440 1.289 . S
O414 C413 1.235 . S
C415 C417 1.400 . S
C415 N418 1.351 . S
C415 C420 1.501 . S
C416 C417 1.387 . S
C416 N419 1.341 . S
C417 C415 1.400 . S
C417 C416 1.387 . S
N418 Co409 2.022 . S
N418 C415 1.351 . S
N418 N419 1.365 . S
N419 C416 1.341 . S
N419 N418 1.365 . S
N419 H439 0.862 . S
C420 C415 1.501 . S
C420 H421 0.961 . S
C420 H422 0.961 . S
C420 H423 0.960 . S
H421 C420 0.961 . S
H422 C420 0.961 . S
H423 C420 0.960 . S
C424 N425 1.342 . S
C424 C428 1.401 . S
C424 C429 1.499 . S
N425 Co408 1.989 . S
N425 C424 1.342 . S
N425 N426 1.388 . S
N426 Co409 1.993 . S
N426 N425 1.388 . S
N426 C427 1.346 . S
C427 N426 1.346 . S
C427 C428 1.396 . S
C427 C437 1.510 . S
C428 C424 1.401 . S
C428 C427 1.396 . S
C429 C424 1.499 . S
C429 H430 0.959 . S
C429 H431 0.960 . S
C429 H432 0.961 . S
H430 C429 0.959 . S
H431 C429 0.960 . S
H432 C429 0.961 . S
O433 Co408 1.967 . S
O433 C441 1.258 . S
O434 Co409 1.941 . S
O434 C441 1.266 . S
H435 C437 0.959 . S
H436 C437 0.961 . S
C437 C427 1.510 . S
C437 H435 0.959 . S
C437 H436 0.961 . S
C437 H438 0.960 . S
H438 C437 0.960 . S
H439 N419 0.862 . S
O440 Co408 1.920 . S
O440 C413 1.289 . S
C441 O433 1.258 . S
C441 O434 1.266 . S
Co442 O445 1.970 . S
Co442 N459 1.989 . S
Co442 O467 1.967 . S
Co442 O474 1.920 . S
Co443 O446 1.966 . S
Co443 N452 2.022 . S
Co443 N460 1.993 . S
Co443 O468 1.941 . S
C444 O445 1.258 . S
C444 O446 1.263 . S
O445 Co442 1.970 . S
O445 C444 1.258 . S
O446 Co443 1.966 . S
O446 C444 1.263 . S
C447 O448 1.235 . S
C447 O474 1.289 . S
O448 C447 1.235 . S
C449 C451 1.400 . S
C449 N452 1.351 . S
C449 C454 1.501 . S
C450 C451 1.387 . S
C450 N453 1.341 . S
C451 C449 1.400 . S
C451 C450 1.387 . S
N452 Co443 2.022 . S
N452 C449 1.351 . S
N452 N453 1.365 . S
N453 C450 1.341 . S
N453 N452 1.365 . S
N453 H473 0.862 . S
C454 C449 1.501 . S
C454 H455 0.961 . S
C454 H456 0.961 . S
C454 H457 0.960 . S
H455 C454 0.961 . S
H456 C454 0.961 . S
H457 C454 0.960 . S
C458 N459 1.342 . S
C458 C462 1.401 . S
C458 C463 1.499 . S
N459 Co442 1.989 . S
N459 C458 1.342 . S
N459 N460 1.388 . S
N460 Co443 1.993 . S
N460 N459 1.388 . S
N460 C461 1.346 . S
C461 N460 1.346 . S
C461 C462 1.396 . S
C461 C471 1.510 . S
C462 C458 1.401 . S
C462 C461 1.396 . S
C463 C458 1.499 . S
C463 H464 0.959 . S
C463 H465 0.960 . S
C463 H466 0.961 . S
H464 C463 0.959 . S
H465 C463 0.960 . S
H466 C463 0.961 . S
O467 Co442 1.967 . S
O467 C475 1.258 . S
O468 Co443 1.941 . S
O468 C475 1.266 . S
H469 C471 0.959 . S
H470 C471 0.961 . S
C471 C461 1.510 . S
C471 H469 0.959 . S
C471 H470 0.961 . S
C471 H472 0.960 . S
H472 C471 0.960 . S
H473 N453 0.862 . S
O474 Co442 1.920 . S
O474 C447 1.289 . S
C475 O467 1.258 . S
C475 O468 1.266 . S
Co476 O479 1.970 . S
Co476 N493 1.989 . S
Co476 O501 1.967 . S
Co476 O508 1.920 . S
Co477 O480 1.966 . S
Co477 N486 2.022 . S
Co477 N494 1.993 . S
Co477 O502 1.941 . S
C478 O479 1.258 . S
C478 O480 1.263 . S
O479 Co476 1.970 . S
O479 C478 1.258 . S
O480 Co477 1.966 . S
O480 C478 1.263 . S
C481 O482 1.235 . S
C481 O508 1.289 . S
O482 C481 1.235 . S
C483 C485 1.400 . S
C483 N486 1.351 . S
C483 C488 1.501 . S
C484 C485 1.387 . S
C484 N487 1.341 . S
C485 C483 1.400 . S
C485 C484 1.387 . S
N486 Co477 2.022 . S
N486 C483 1.351 . S
N486 N487 1.365 . S
N487 C484 1.341 . S
N487 N486 1.365 . S
N487 H507 0.862 . S
C488 C483 1.501 . S
C488 H489 0.961 . S
C488 H490 0.961 . S
C488 H491 0.960 . S
H489 C488 0.961 . S
H490 C488 0.961 . S
H491 C488 0.960 . S
C492 N493 1.342 . S
C492 C496 1.401 . S
C492 C497 1.499 . S
N493 Co476 1.989 . S
N493 C492 1.342 . S
N493 N494 1.388 . S
N494 Co477 1.993 . S
N494 N493 1.388 . S
N494 C495 1.346 . S
C495 N494 1.346 . S
C495 C496 1.396 . S
C495 C505 1.510 . S
C496 C492 1.401 . S
C496 C495 1.396 . S
C497 C492 1.499 . S
C497 H498 0.959 . S
C497 H499 0.960 . S
C497 H500 0.961 . S
H498 C497 0.959 . S
H499 C497 0.960 . S
H500 C497 0.961 . S
O501 Co476 1.967 . S
O501 C509 1.258 . S
O502 Co477 1.941 . S
O502 C509 1.266 . S
H503 C505 0.959 . S
H504 C505 0.961 . S
C505 C495 1.510 . S
C505 H503 0.959 . S
C505 H504 0.961 . S
C505 H506 0.960 . S
H506 C505 0.960 . S
H507 N487 0.862 . S
O508 Co476 1.920 . S
O508 C481 1.289 . S
C509 O501 1.258 . S
C509 O502 1.266 . S
Co510 O513 1.970 . S
Co510 N527 1.989 . S
Co510 O535 1.967 . S
Co510 O542 1.920 . S
Co511 O514 1.966 . S
Co511 N520 2.022 . S
Co511 N528 1.993 . S
Co511 O536 1.941 . S
C512 O513 1.258 . S
C512 O514 1.263 . S
O513 Co510 1.970 . S
O513 C512 1.258 . S
O514 Co511 1.966 . S
O514 C512 1.263 . S
C515 O516 1.235 . S
C515 O542 1.289 . S
O516 C515 1.235 . S
C517 C519 1.400 . S
C517 N520 1.351 . S
C517 C522 1.501 . S
C518 C519 1.387 . S
C518 N521 1.341 . S
C519 C517 1.400 . S
C519 C518 1.387 . S
N520 Co511 2.022 . S
N520 C517 1.351 . S
N520 N521 1.365 . S
N521 C518 1.341 . S
N521 N520 1.365 . S
N521 H541 0.862 . S
C522 C517 1.501 . S
C522 H523 0.961 . S
C522 H524 0.961 . S
C522 H525 0.960 . S
H523 C522 0.961 . S
H524 C522 0.961 . S
H525 C522 0.960 . S
C526 N527 1.342 . S
C526 C530 1.401 . S
C526 C531 1.499 . S
N527 Co510 1.989 . S
N527 C526 1.342 . S
N527 N528 1.388 . S
N528 Co511 1.993 . S
N528 N527 1.388 . S
N528 C529 1.346 . S
C529 N528 1.346 . S
C529 C530 1.396 . S
C529 C539 1.510 . S
C530 C526 1.401 . S
C530 C529 1.396 . S
C531 C526 1.499 . S
C531 H532 0.959 . S
C531 H533 0.960 . S
C531 H534 0.961 . S
H532 C531 0.959 . S
H533 C531 0.960 . S
H534 C531 0.961 . S
O535 Co510 1.967 . S
O535 C543 1.258 . S
O536 Co511 1.941 . S
O536 C543 1.266 . S
H537 C539 0.959 . S
H538 C539 0.961 . S
C539 C529 1.510 . S
C539 H537 0.959 . S
C539 H538 0.961 . S
C539 H540 0.960 . S
H540 C539 0.960 . S
H541 N521 0.862 . S
O542 Co510 1.920 . S
O542 C515 1.289 . S
C543 O535 1.258 . S
C543 O536 1.266 . S
H544 C552 0.929 1_455 S
H545 C554 0.930 . S
H546 C556 0.930 . S
H547 C559 0.929 . S
H548 C562 0.930 . S
H549 C564 0.960 . S
H550 C564 0.960 . S
H551 C564 0.960 . S
C552 H544 0.929 1_655 S
C552 C553 1.377 . S
C552 C554 1.384 1_655 S
C553 C552 1.377 . S
C553 C559 1.390 . S
C554 H545 0.930 . S
C554 C552 1.384 1_455 S
C554 C555 1.372 1_455 S
C555 C554 1.372 1_655 S
C555 C556 1.400 . S
C555 C560 1.490 . S
C556 H546 0.930 . S
C556 C555 1.400 . S
C556 C559 1.386 . S
H557 C573 0.930 1_655 S
H558 C574 0.931 1_655 S
C559 H547 0.929 . S
C559 C553 1.390 . S
C559 C556 1.386 . S
C560 C555 1.490 . S
C560 C562 1.395 1_655 S
C560 C563 1.403 . S
H561 C567 0.930 . S
C562 H548 0.930 . S
C562 C560 1.395 1_455 S
C562 C565 1.403 . S
C563 C560 1.403 . S
C563 C564 1.524 . S
C563 C567 1.400 . S
C564 H549 0.960 . S
C564 H550 0.960 . S
C564 H551 0.960 . S
C564 C563 1.524 . S
C565 C562 1.403 . S
C565 C566 1.392 . S
C565 C569 1.495 . S
C566 C565 1.392 . S
C566 C567 1.385 1_455 S
C566 C568 1.478 . S
C567 H561 0.930 . S
C567 C563 1.400 . S
C567 C566 1.385 1_655 S
C568 C566 1.478 . S
C568 C570 1.381 . S
C568 C574 1.383 . S
C569 C565 1.495 . S
C569 H575 0.959 . S
C569 H576 0.961 . S
C569 H577 0.960 . S
C570 C568 1.381 . S
C570 C571 1.394 . S
C570 H578 0.930 . S
C571 C570 1.394 . S
C571 C572 1.383 . S
C571 H579 0.929 . S
C572 C571 1.383 . S
C572 C573 1.377 . S
C573 H557 0.930 1_455 S
C573 C572 1.377 . S
C573 C574 1.379 . S
C574 H558 0.931 1_455 S
C574 C568 1.383 . S
C574 C573 1.379 . S
H575 C569 0.959 . S
H576 C569 0.961 . S
H577 C569 0.960 . S
H578 C570 0.930 . S
H579 C571 0.929 . S
H580 C588 0.929 . S
H581 C590 0.930 . S
H582 C592 0.930 . S
H583 C595 0.929 . S
H584 C598 0.930 . S
H585 C600 0.960 . S
H586 C600 0.960 . S
H587 C600 0.960 . S
C588 H580 0.929 . S
C588 C589 1.377 . S
C588 C590 1.384 . S
C589 C588 1.377 . S
C589 C595 1.390 . S
C590 H581 0.930 . S
C590 C588 1.384 . S
C590 C591 1.372 . S
C591 C590 1.372 . S
C591 C592 1.400 . S
C591 C596 1.490 . S
C592 H582 0.930 . S
C592 C591 1.400 . S
C592 C595 1.386 . S
H593 C609 0.930 . S
H594 C610 0.931 1_545 S
C595 H583 0.929 . S
C595 C589 1.390 . S
C595 C592 1.386 . S
C596 C591 1.490 . S
C596 C598 1.395 . S
C596 C599 1.403 1_545 S
H597 C603 0.930 . S
C598 H584 0.930 . S
C598 C596 1.395 . S
C598 C601 1.403 . S
C599 C596 1.403 1_565 S
C599 C600 1.524 . S
C599 C603 1.400 . S
C600 H585 0.960 . S
C600 H586 0.960 . S
C600 H587 0.960 . S
C600 C599 1.524 . S
C601 C598 1.403 . S
C601 C602 1.392 1_545 S
C601 C605 1.495 . S
C602 C601 1.392 1_565 S
C602 C603 1.385 . S
C602 C604 1.478 . S
C603 H597 0.930 . S
C603 C599 1.400 . S
C603 C602 1.385 . S
C604 C602 1.478 . S
C604 C606 1.381 . S
C604 C610 1.383 . S
C605 C601 1.495 . S
C605 H611 0.959 . S
C605 H612 0.961 . S
C605 H613 0.960 . S
C606 C604 1.381 . S
C606 C607 1.394 . S
C606 H614 0.930 . S
C607 C606 1.394 . S
C607 C608 1.383 . S
C607 H615 0.929 . S
C608 C607 1.383 . S
C608 C609 1.377 . S
C609 H593 0.930 . S
C609 C608 1.377 . S
C609 C610 1.379 . S
C610 H594 0.931 1_565 S
C610 C604 1.383 . S
C610 C609 1.379 . S
H611 C605 0.959 . S
H612 C605 0.961 . S
H613 C605 0.960 . S
H614 C606 0.930 . S
H615 C607 0.929 . S
H616 C624 0.929 . S
H617 C626 0.925 1_455 S
H618 C628 0.930 . S
H619 C631 0.929 . S
H620 C634 0.930 . S
H621 C636 0.960 . S
H622 C636 0.960 . S
H623 C636 0.960 . S
C624 H616 0.929 . S
C624 C625 1.377 . S
C624 C626 1.384 . S
C625 C624 1.377 . S
C625 C631 1.390 . S
C626 H617 0.925 1_655 S
C626 C624 1.384 . S
C626 C627 1.372 . S
C627 C626 1.372 . S
C627 C628 1.400 . S
C627 C632 1.490 . S
C628 H618 0.930 . S
C628 C627 1.400 . S
C628 C631 1.386 . S
H629 C645 0.930 . S
H630 C646 0.931 1_655 S
C631 H619 0.929 . S
C631 C625 1.390 . S
C631 C628 1.386 . S
C632 C627 1.490 . S
C632 C634 1.395 . S
C632 C635 1.403 1_655 S
H633 C639 0.930 . S
C634 H620 0.930 . S
C634 C632 1.395 . S
C634 C637 1.403 . S
C635 C632 1.403 1_455 S
C635 C636 1.524 . S
C635 C639 1.400 . S
C636 H621 0.960 . S
C636 H622 0.960 . S
C636 H623 0.960 . S
C636 C635 1.524 . S
C637 C634 1.403 . S
C637 C638 1.392 1_655 S
C637 C641 1.495 . S
C638 C637 1.392 1_455 S
C638 C639 1.385 . S
C638 C640 1.478 . S
C639 H633 0.930 . S
C639 C635 1.400 . S
C639 C638 1.385 . S
C640 C638 1.478 . S
C640 C642 1.381 . S
C640 C646 1.383 . S
C641 C637 1.495 . S
C641 H647 0.959 . S
C641 H648 0.961 . S
C641 H649 0.960 . S
C642 C640 1.381 . S
C642 C643 1.394 . S
C642 H650 0.930 . S
C643 C642 1.394 . S
C643 C644 1.383 . S
C643 H651 0.929 . S
C644 C643 1.383 . S
C644 C645 1.377 . S
C645 H629 0.930 . S
C645 C644 1.377 . S
C645 C646 1.379 . S
C646 H630 0.931 1_455 S
C646 C640 1.383 . S
C646 C645 1.379 . S
H647 C641 0.959 . S
H648 C641 0.961 . S
H649 C641 0.960 . S
H650 C642 0.930 . S
H651 C643 0.929 . S
H652 C660 0.929 . S
H653 C662 0.930 . S
H654 C664 0.930 . S
H655 C667 0.929 1_545 S
H656 C670 0.930 . S
H657 C672 0.965 . S
H658 C672 0.960 . S
H659 C672 0.960 1_545 S
C660 H652 0.929 . S
C660 C661 1.377 . S
C660 C662 1.384 . S
C661 C660 1.377 . S
C661 C667 1.390 . S
C662 H653 0.930 . S
C662 C660 1.384 . S
C662 C663 1.372 . S
C663 C662 1.372 . S
C663 C664 1.400 1_565 S
C663 C668 1.490 . S
C664 H654 0.930 . S
C664 C663 1.400 1_545 S
C664 C667 1.386 1_545 S
H665 C681 0.930 . S
H666 C682 0.931 . S
C667 H655 0.929 1_565 S
C667 C661 1.390 . S
C667 C664 1.386 1_565 S
C668 C663 1.490 . S
C668 C670 1.395 . S
C668 C671 1.403 . S
H669 C675 0.930 . S
C670 H656 0.930 . S
C670 C668 1.395 . S
C670 C673 1.404 1_565 S
C671 C668 1.403 . S
C671 C672 1.524 . S
C671 C675 1.400 1_565 S
C672 H657 0.965 . S
C672 H658 0.960 . S
C672 H659 0.960 1_565 S
C672 C671 1.524 . S
C673 C670 1.404 1_545 S
C673 C674 1.391 . S
C673 C677 1.495 . S
C674 C673 1.391 . S
C674 C675 1.385 . S
C674 C676 1.478 . S
C675 H669 0.930 . S
C675 C671 1.400 1_545 S
C675 C674 1.385 . S
C676 C674 1.478 . S
C676 C678 1.381 1_545 S
C676 C682 1.383 . S
C677 C673 1.495 . S
C677 H683 0.959 1_545 S
C677 H684 0.961 . S
C677 H685 0.960 1_545 S
C678 C676 1.381 1_565 S
C678 C679 1.394 1_565 S
C678 H686 0.930 . S
C679 C678 1.394 1_545 S
C679 C680 1.383 . S
C679 H687 0.929 1_545 S
C680 C679 1.383 . S
C680 C681 1.377 . S
C681 H665 0.930 . S
C681 C680 1.377 . S
C681 C682 1.379 . S
C682 H666 0.931 . S
C682 C676 1.383 . S
C682 C681 1.379 . S
H683 C677 0.959 1_565 S
H684 C677 0.961 . S
H685 C677 0.960 1_565 S
H686 C678 0.930 . S
H687 C679 0.929 1_565 S
H688 C696 0.929 . S
H689 C698 0.930 . S
H690 C700 0.930 . S
H691 C703 0.929 . S
H692 C706 0.930 . S
H693 C708 0.960 . S
H694 C708 0.960 . S
H695 C708 0.960 . S
C696 H688 0.929 . S
C696 C697 1.377 . S
C696 C698 1.384 . S
C697 C696 1.377 . S
C697 C703 1.390 . S
C698 H689 0.930 . S
C698 C696 1.384 . S
C698 C699 1.372 . S
C699 C698 1.372 . S
C699 C700 1.400 . S
C699 C704 1.490 . S
C700 H690 0.930 . S
C700 C699 1.400 . S
C700 C703 1.386 . S
H701 C717 0.930 . S
H702 C718 0.931 . S
C703 H691 0.929 . S
C703 C697 1.390 . S
C703 C700 1.386 . S
C704 C699 1.490 . S
C704 C706 1.395 . S
C704 C707 1.403 . S
H705 C711 0.930 . S
C706 H692 0.930 . S
C706 C704 1.395 . S
C706 C709 1.403 1_565 S
C707 C704 1.403 . S
C707 C708 1.524 . S
C707 C711 1.400 1_565 S
C708 H693 0.960 . S
C708 H694 0.960 . S
C708 H695 0.960 . S
C708 C707 1.524 . S
C709 C706 1.403 1_545 S
C709 C710 1.392 . S
C709 C713 1.495 . S
C710 C709 1.392 . S
C710 C711 1.385 . S
C710 C712 1.478 . S
C711 H705 0.930 . S
C711 C707 1.400 1_545 S
C711 C710 1.385 . S
C712 C710 1.478 . S
C712 C714 1.381 . S
C712 C718 1.383 . S
C713 C709 1.495 . S
C713 H719 0.959 . S
C713 H720 0.961 . S
C713 H721 0.960 . S
C714 C712 1.381 . S
C714 C715 1.394 . S
C714 H722 0.930 . S
C715 C714 1.394 . S
C715 C716 1.383 . S
C715 H723 0.929 . S
C716 C715 1.383 . S
C716 C717 1.377 . S
C717 H701 0.930 . S
C717 C716 1.377 . S
C717 C718 1.379 . S
C718 H702 0.931 . S
C718 C712 1.383 . S
C718 C717 1.379 . S
H719 C713 0.959 . S
H720 C713 0.961 . S
H721 C713 0.960 . S
H722 C714 0.930 . S
H723 C715 0.929 . S
H724 C732 0.929 . S
H725 C734 0.930 . S
H726 C736 0.930 . S
H727 C739 0.929 . S
H728 C742 0.930 . S
H729 C744 0.960 1_455 S
H730 C744 0.960 . S
H731 C744 0.960 . S
C732 H724 0.929 . S
C732 C733 1.377 . S
C732 C734 1.384 . S
C733 C732 1.377 . S
C733 C739 1.390 . S
C734 H725 0.930 . S
C734 C732 1.384 . S
C734 C735 1.372 . S
C735 C734 1.372 . S
C735 C736 1.400 . S
C735 C740 1.490 . S
C736 H726 0.930 . S
C736 C735 1.400 . S
C736 C739 1.386 . S
H737 C753 0.930 . S
H738 C754 0.931 . S
C739 H727 0.929 . S
C739 C733 1.390 . S
C739 C736 1.386 . S
C740 C735 1.490 . S
C740 C742 1.395 . S
C740 C743 1.403 . S
H741 C747 0.930 . S
C742 H728 0.930 . S
C742 C740 1.395 . S
C742 C745 1.403 1_655 S
C743 C740 1.403 . S
C743 C744 1.524 . S
C743 C747 1.400 1_655 S
C744 H729 0.960 1_655 S
C744 H730 0.960 . S
C744 H731 0.960 . S
C744 C743 1.524 . S
C745 C742 1.403 1_455 S
C745 C746 1.392 . S
C745 C749 1.495 . S
C746 C745 1.392 . S
C746 C747 1.385 . S
C746 C748 1.478 . S
C747 H741 0.930 . S
C747 C743 1.400 1_455 S
C747 C746 1.385 . S
C748 C746 1.478 . S
C748 C750 1.381 . S
C748 C754 1.383 . S
C749 C745 1.495 . S
C749 H755 0.959 1_455 S
C749 H756 0.961 . S
C749 H757 0.960 . S
C750 C748 1.381 . S
C750 C751 1.394 . S
C750 H758 0.930 . S
C751 C750 1.394 . S
C751 C752 1.383 . S
C751 H759 0.929 . S
C752 C751 1.383 . S
C752 C753 1.377 . S
C753 H737 0.930 . S
C753 C752 1.377 . S
C753 C754 1.379 . S
C754 H738 0.931 . S
C754 C748 1.383 . S
C754 C753 1.379 . S
H755 C749 0.959 1_655 S
H756 C749 0.961 . S
H757 C749 0.960 . S
H758 C750 0.930 . S
H759 C751 0.929 . S
H760 C768 0.929 . S
H761 C770 0.930 . S
H762 C772 0.930 . S
H763 C775 0.929 . S
H764 C778 0.930 . S
H765 C780 0.960 . S
H766 C780 0.960 . S
H767 C780 0.960 . S
C768 H760 0.929 . S
C768 C769 1.377 . S
C768 C770 1.384 . S
C769 C768 1.377 . S
C769 C775 1.390 . S
C770 H761 0.930 . S
C770 C768 1.384 . S
C770 C771 1.372 . S
C771 C770 1.372 . S
C771 C772 1.400 . S
C771 C776 1.490 . S
C772 H762 0.930 . S
C772 C771 1.400 . S
C772 C775 1.386 . S
H773 C789 0.930 . S
H774 C790 0.931 . S
C775 H763 0.929 . S
C775 C769 1.390 . S
C775 C772 1.386 . S
C776 C771 1.490 . S
C776 C778 1.395 . S
C776 C779 1.403 . S
H777 C783 0.930 . S
C778 H764 0.930 . S
C778 C776 1.395 . S
C778 C781 1.403 1_565 S
C779 C776 1.403 . S
C779 C780 1.524 . S
C779 C783 1.400 1_565 S
C780 H765 0.960 . S
C780 H766 0.960 . S
C780 H767 0.960 . S
C780 C779 1.524 . S
C781 C778 1.403 1_545 S
C781 C782 1.392 . S
C781 C785 1.495 . S
C782 C781 1.392 . S
C782 C783 1.385 . S
C782 C784 1.478 . S
C783 H777 0.930 . S
C783 C779 1.400 1_545 S
C783 C782 1.385 . S
C784 C782 1.478 . S
C784 C786 1.381 . S
C784 C790 1.383 . S
C785 C781 1.495 . S
C785 H791 0.959 . S
C785 H792 0.961 . S
C785 H793 0.960 . S
C786 C784 1.381 . S
C786 C787 1.394 . S
C786 H794 0.930 . S
C787 C786 1.394 . S
C787 C788 1.383 . S
C787 H795 0.929 . S
C788 C787 1.383 . S
C788 C789 1.377 . S
C789 H773 0.930 . S
C789 C788 1.377 . S
C789 C790 1.379 . S
C790 H774 0.931 . S
C790 C784 1.383 . S
C790 C789 1.379 . S
H791 C785 0.959 . S
H792 C785 0.961 . S
H793 C785 0.960 . S
H794 C786 0.930 . S
H795 C787 0.929 . S
H796 C804 0.929 . S
H797 C806 0.930 . S
H798 C808 0.930 . S
H799 C811 0.929 . S
H800 C814 0.930 . S
H801 C816 0.960 . S
H802 C816 0.960 . S
H803 C816 0.960 . S
C804 H796 0.929 . S
C804 C805 1.377 . S
C804 C806 1.384 . S
C805 C804 1.377 . S
C805 C811 1.390 . S
C806 H797 0.930 . S
C806 C804 1.384 . S
C806 C807 1.372 . S
C807 C806 1.372 . S
C807 C808 1.400 . S
C807 C812 1.490 . S
C808 H798 0.930 . S
C808 C807 1.400 . S
C808 C811 1.386 . S
H809 C825 0.930 . S
H810 C826 0.931 . S
C811 H799 0.929 . S
C811 C805 1.390 . S
C811 C808 1.386 . S
C812 C807 1.490 . S
C812 C814 1.395 . S
C812 C815 1.403 . S
H813 C819 0.930 . S
C814 H800 0.930 . S
C814 C812 1.395 . S
C814 C817 1.403 1_655 S
C815 C812 1.403 . S
C815 C816 1.524 . S
C815 C819 1.400 1_655 S
C816 H801 0.960 . S
C816 H802 0.960 . S
C816 H803 0.960 . S
C816 C815 1.524 . S
C817 C814 1.403 1_455 S
C817 C818 1.392 . S
C817 C821 1.495 . S
C818 C817 1.392 . S
C818 C819 1.385 . S
C818 C820 1.478 . S
C819 H813 0.930 . S
C819 C815 1.400 1_455 S
C819 C818 1.385 . S
C820 C818 1.478 . S
C820 C822 1.381 . S
C820 C826 1.383 . S
C821 C817 1.495 . S
C821 H827 0.959 . S
C821 H828 0.961 . S
C821 H829 0.960 . S
C822 C820 1.381 . S
C822 C823 1.394 . S
C822 H830 0.930 . S
C823 C822 1.394 . S
C823 C824 1.383 . S
C823 H831 0.929 . S
C824 C823 1.383 . S
C824 C825 1.377 . S
C825 H809 0.930 . S
C825 C824 1.377 . S
C825 C826 1.379 . S
C826 H810 0.931 . S
C826 C820 1.383 . S
C826 C825 1.379 . S
H827 C821 0.959 . S
H828 C821 0.961 . S
H829 C821 0.960 . S
H830 C822 0.930 . S
H831 C823 0.929 . S
H832 C840 0.929 . S
H833 C842 0.930 . S
H834 C844 0.930 . S
H835 C847 0.929 . S
H836 C850 0.930 . S
H837 C852 0.960 . S
H838 C852 0.960 . S
H839 C852 0.960 . S
C840 H832 0.929 . S
C840 C841 1.377 . S
C840 C842 1.384 . S
C841 C840 1.377 . S
C841 C847 1.390 . S
C842 H833 0.930 . S
C842 C840 1.384 . S
C842 C843 1.372 . S
C843 C842 1.372 . S
C843 C844 1.400 . S
C843 C848 1.490 . S
C844 H834 0.930 . S
C844 C843 1.400 . S
C844 C847 1.386 . S
H845 C861 0.930 . S
H846 C862 0.931 . S
C847 H835 0.929 . S
C847 C841 1.390 . S
C847 C844 1.386 . S
C848 C843 1.490 . S
C848 C850 1.395 . S
C848 C851 1.403 . S
H849 C855 0.930 . S
C850 H836 0.930 . S
C850 C848 1.395 . S
C850 C853 1.403 . S
C851 C848 1.403 . S
C851 C852 1.524 . S
C851 C855 1.400 . S
C852 H837 0.960 . S
C852 H838 0.960 . S
C852 H839 0.960 . S
C852 C851 1.524 . S
C853 C850 1.403 . S
C853 C854 1.392 . S
C853 C857 1.495 . S
C854 C853 1.392 . S
C854 C855 1.385 . S
C854 C856 1.478 . S
C855 H849 0.930 . S
C855 C851 1.400 . S
C855 C854 1.385 . S
C856 C854 1.478 . S
C856 C858 1.381 . S
C856 C862 1.383 . S
C857 C853 1.495 . S
C857 H863 0.959 . S
C857 H864 0.961 . S
C857 H865 0.960 . S
C858 C856 1.381 . S
C858 C859 1.394 . S
C858 H866 0.930 . S
C859 C858 1.394 . S
C859 C860 1.383 . S
C859 H867 0.929 . S
C860 C859 1.383 . S
C860 C861 1.377 . S
C861 H845 0.930 . S
C861 C860 1.377 . S
C861 C862 1.379 . S
C862 H846 0.931 . S
C862 C856 1.383 . S
C862 C861 1.379 . S
H863 C857 0.959 . S
H864 C857 0.961 . S
H865 C857 0.960 . S
H866 C858 0.930 . S
H867 C859 0.929 . S
H868 C876 0.929 . S
H869 C878 0.930 . S
H870 C880 0.930 . S
H871 C883 0.929 . S
H872 C886 0.930 . S
H873 C888 0.960 . S
H874 C888 0.960 . S
H875 C888 0.960 . S
C876 H868 0.929 . S
C876 C877 1.377 . S
C876 C878 1.384 . S
C877 C876 1.377 . S
C877 C883 1.390 . S
C878 H869 0.930 . S
C878 C876 1.384 . S
C878 C879 1.372 . S
C879 C878 1.372 . S
C879 C880 1.400 . S
C879 C884 1.490 . S
C880 H870 0.930 . S
C880 C879 1.400 . S
C880 C883 1.386 . S
H881 C897 0.930 . S
H882 C898 0.931 . S
C883 H871 0.929 . S
C883 C877 1.390 . S
C883 C880 1.386 . S
C884 C879 1.490 . S
C884 C886 1.395 . S
C884 C887 1.403 . S
H885 C891 0.930 . S
C886 H872 0.930 . S
C886 C884 1.395 . S
C886 C889 1.403 . S
C887 C884 1.403 . S
C887 C888 1.524 . S
C887 C891 1.400 . S
C888 H873 0.960 . S
C888 H874 0.960 . S
C888 H875 0.960 . S
C888 C887 1.524 . S
C889 C886 1.403 . S
C889 C890 1.392 . S
C889 C893 1.495 . S
C890 C889 1.392 . S
C890 C891 1.385 . S
C890 C892 1.478 . S
C891 H885 0.930 . S
C891 C887 1.400 . S
C891 C890 1.385 . S
C892 C890 1.478 . S
C892 C894 1.381 . S
C892 C898 1.383 . S
C893 C889 1.495 . S
C893 H899 0.959 . S
C893 H900 0.961 . S
C893 H901 0.960 . S
C894 C892 1.381 . S
C894 C895 1.394 . S
C894 H902 0.930 . S
C895 C894 1.394 . S
C895 C896 1.383 . S
C895 H903 0.929 . S
C896 C895 1.383 . S
C896 C897 1.377 . S
C897 H881 0.930 . S
C897 C896 1.377 . S
C897 C898 1.379 . S
C898 H882 0.931 . S
C898 C892 1.383 . S
C898 C897 1.379 . S
H899 C893 0.959 . S
H900 C893 0.961 . S
H901 C893 0.960 . S
H902 C894 0.930 . S
H903 C895 0.929 . S
H904 C912 0.929 . S
H905 C914 0.930 . S
H906 C916 0.930 . S
H907 C919 0.929 . S
H908 C922 0.930 . S
H909 C924 0.960 . S
H910 C924 0.960 . S
H911 C924 0.960 . S
C912 H904 0.929 . S
C912 C913 1.377 . S
C912 C914 1.384 . S
C913 C912 1.377 . S
C913 C919 1.390 . S
C914 H905 0.930 . S
C914 C912 1.384 . S
C914 C915 1.372 . S
C915 C914 1.372 . S
C915 C916 1.400 . S
C915 C920 1.490 . S
C916 H906 0.930 . S
C916 C915 1.400 . S
C916 C919 1.386 . S
H917 C933 0.930 . S
H918 C934 0.931 . S
C919 H907 0.929 . S
C919 C913 1.390 . S
C919 C916 1.386 . S
C920 C915 1.490 . S
C920 C922 1.395 . S
C920 C923 1.403 . S
H921 C927 0.930 . S
C922 H908 0.930 . S
C922 C920 1.395 . S
C922 C925 1.403 . S
C923 C920 1.403 . S
C923 C924 1.524 . S
C923 C927 1.400 . S
C924 H909 0.960 . S
C924 H910 0.960 . S
C924 H911 0.960 . S
C924 C923 1.524 . S
C925 C922 1.403 . S
C925 C926 1.392 . S
C925 C929 1.495 . S
C926 C925 1.392 . S
C926 C927 1.385 . S
C926 C928 1.478 . S
C927 H921 0.930 . S
C927 C923 1.400 . S
C927 C926 1.385 . S
C928 C926 1.478 . S
C928 C930 1.381 . S
C928 C934 1.383 . S
C929 C925 1.495 . S
C929 H935 0.959 . S
C929 H936 0.961 . S
C929 H937 0.960 . S
C930 C928 1.381 . S
C930 C931 1.394 . S
C930 H938 0.930 . S
C931 C930 1.394 . S
C931 C932 1.383 . S
C931 H939 0.929 . S
C932 C931 1.383 . S
C932 C933 1.377 . S
C933 H917 0.930 . S
C933 C932 1.377 . S
C933 C934 1.379 . S
C934 H918 0.931 . S
C934 C928 1.383 . S
C934 C933 1.379 . S
H935 C929 0.959 . S
H936 C929 0.961 . S
H937 C929 0.960 . S
H938 C930 0.930 . S
H939 C931 0.929 . S
H940 C948 0.929 . S
H941 C950 0.930 . S
H942 C952 0.930 . S
H943 C955 0.929 . S
H944 C958 0.930 . S
H945 C960 0.960 . S
H946 C960 0.960 . S
H947 C960 0.960 . S
C948 H940 0.929 . S
C948 C949 1.377 . S
C948 C950 1.384 . S
C949 C948 1.377 . S
C949 C955 1.390 . S
C950 H941 0.930 . S
C950 C948 1.384 . S
C950 C951 1.372 . S
C951 C950 1.372 . S
C951 C952 1.400 . S
C951 C956 1.490 . S
C952 H942 0.930 . S
C952 C951 1.400 . S
C952 C955 1.386 . S
H953 C969 0.930 . S
H954 C970 0.931 . S
C955 H943 0.929 . S
C955 C949 1.390 . S
C955 C952 1.386 . S
C956 C951 1.490 . S
C956 C958 1.395 . S
C956 C959 1.403 . S
H957 C963 0.930 . S
C958 H944 0.930 . S
C958 C956 1.395 . S
C958 C961 1.403 . S
C959 C956 1.403 . S
C959 C960 1.524 . S
C959 C963 1.400 . S
C960 H945 0.960 . S
C960 H946 0.960 . S
C960 H947 0.960 . S
C960 C959 1.524 . S
C961 C958 1.403 . S
C961 C962 1.392 . S
C961 C965 1.495 . S
C962 C961 1.392 . S
C962 C963 1.385 . S
C962 C964 1.478 . S
C963 H957 0.930 . S
C963 C959 1.400 . S
C963 C962 1.385 . S
C964 C962 1.478 . S
C964 C966 1.381 . S
C964 C970 1.383 . S
C965 C961 1.495 . S
C965 H971 0.959 . S
C965 H972 0.961 . S
C965 H973 0.960 . S
C966 C964 1.381 . S
C966 C967 1.394 . S
C966 H974 0.930 . S
C967 C966 1.394 . S
C967 C968 1.383 . S
C967 H975 0.929 . S
C968 C967 1.383 . S
C968 C969 1.377 . S
C969 H953 0.930 . S
C969 C968 1.377 . S
C969 C970 1.379 . S
C970 H954 0.931 . S
C970 C964 1.383 . S
C970 C969 1.379 . S
H971 C965 0.959 . S
H972 C965 0.961 . S
H973 C965 0.960 . S
H974 C966 0.930 . S
H975 C967 0.929 . S
H976 C984 0.929 . S
H977 C986 0.930 . S
H978 C988 0.930 . S
H979 C991 0.929 . S
H980 C994 0.930 . S
H981 C996 0.960 . S
H982 C996 0.960 . S
H983 C996 0.960 . S
C984 H976 0.929 . S
C984 C985 1.377 . S
C984 C986 1.384 . S
C985 C984 1.377 . S
C985 C991 1.390 . S
C986 H977 0.930 . S
C986 C984 1.384 . S
C986 C987 1.372 . S
C987 C986 1.372 . S
C987 C988 1.400 . S
C987 C992 1.490 . S
C988 H978 0.930 . S
C988 C987 1.400 . S
C988 C991 1.386 . S
H989 C1005 0.930 . S
H990 C1006 0.931 . S
C991 H979 0.929 . S
C991 C985 1.390 . S
C991 C988 1.386 . S
C992 C987 1.490 . S
C992 C994 1.395 . S
C992 C995 1.403 . S
H993 C999 0.930 . S
C994 H980 0.930 . S
C994 C992 1.395 . S
C994 C997 1.403 . S
C995 C992 1.403 . S
C995 C996 1.524 . S
C995 C999 1.400 . S
C996 H981 0.960 . S
C996 H982 0.960 . S
C996 H983 0.960 . S
C996 C995 1.524 . S
C997 C994 1.403 . S
C997 C998 1.392 . S
C997 C1001 1.495 . S
C998 C997 1.392 . S
C998 C999 1.385 . S
C998 C1000 1.478 . S
C999 H993 0.930 . S
C999 C995 1.400 . S
C999 C998 1.385 . S
C1000 C998 1.478 . S
C1000 C1002 1.381 . S
C1000 C1006 1.383 . S
C1001 C997 1.495 . S
C1001 H1007 0.959 . S
C1001 H1008 0.961 . S
C1001 H1009 0.960 . S
C1002 C1000 1.381 . S
C1002 C1003 1.394 . S
C1002 H1010 0.930 . S
C1003 C1002 1.394 . S
C1003 C1004 1.383 . S
C1003 H1011 0.929 . S
C1004 C1003 1.383 . S
C1004 C1005 1.377 . S
C1005 H989 0.930 . S
C1005 C1004 1.377 . S
C1005 C1006 1.379 . S
C1006 H990 0.931 . S
C1006 C1000 1.383 . S
C1006 C1005 1.379 . S
H1007 C1001 0.959 . S
H1008 C1001 0.961 . S
H1009 C1001 0.960 . S
H1010 C1002 0.930 . S
H1011 C1003 0.929 . S
H1012 C1020 0.929 . S
H1013 C1022 0.930 . S
H1014 C1024 0.930 . S
H1015 C1027 0.929 . S
H1016 C1030 0.930 . S
H1017 C1032 0.960 . S
H1018 C1032 0.960 . S
H1019 C1032 0.960 . S
C1020 H1012 0.929 . S
C1020 C1021 1.377 . S
C1020 C1022 1.384 . S
C1021 C1020 1.377 . S
C1021 C1027 1.390 . S
C1022 H1013 0.930 . S
C1022 C1020 1.384 . S
C1022 C1023 1.372 . S
C1023 C1022 1.372 . S
C1023 C1024 1.400 . S
C1023 C1028 1.490 . S
C1024 H1014 0.930 . S
C1024 C1023 1.400 . S
C1024 C1027 1.386 . S
H1025 C1041 0.930 . S
H1026 C1042 0.931 . S
C1027 H1015 0.929 . S
C1027 C1021 1.390 . S
C1027 C1024 1.386 . S
C1028 C1023 1.490 . S
C1028 C1030 1.395 . S
C1028 C1031 1.403 . S
H1029 C1035 0.930 . S
C1030 H1016 0.930 . S
C1030 C1028 1.395 . S
C1030 C1033 1.403 . S
C1031 C1028 1.403 . S
C1031 C1032 1.524 . S
C1031 C1035 1.400 . S
C1032 H1017 0.960 . S
C1032 H1018 0.960 . S
C1032 H1019 0.960 . S
C1032 C1031 1.524 . S
C1033 C1030 1.403 . S
C1033 C1034 1.392 . S
C1033 C1037 1.495 . S
C1034 C1033 1.392 . S
C1034 C1035 1.385 . S
C1034 C1036 1.478 . S
C1035 H1029 0.930 . S
C1035 C1031 1.400 . S
C1035 C1034 1.385 . S
C1036 C1034 1.478 . S
C1036 C1038 1.381 . S
C1036 C1042 1.383 . S
C1037 C1033 1.495 . S
C1037 H1043 0.959 . S
C1037 H1044 0.961 . S
C1037 H1045 0.960 . S
C1038 C1036 1.381 . S
C1038 C1039 1.394 . S
C1038 H1046 0.930 . S
C1039 C1038 1.394 . S
C1039 C1040 1.383 . S
C1039 H1047 0.929 . S
C1040 C1039 1.383 . S
C1040 C1041 1.377 . S
C1041 H1025 0.930 . S
C1041 C1040 1.377 . S
C1041 C1042 1.379 . S
C1042 H1026 0.931 . S
C1042 C1036 1.383 . S
C1042 C1041 1.379 . S
H1043 C1037 0.959 . S
H1044 C1037 0.961 . S
H1045 C1037 0.960 . S
H1046 C1038 0.930 . S
H1047 C1039 0.929 . S
H1048 C1056 0.929 . S
H1049 C1058 0.930 . S
H1050 C1060 0.930 . S
H1051 C1063 0.929 . S
H1052 C1066 0.930 . S
H1053 C1068 0.960 . S
H1054 C1068 0.960 . S
H1055 C1068 0.960 . S
C1056 H1048 0.929 . S
C1056 C1057 1.377 . S
C1056 C1058 1.384 . S
C1057 C1056 1.377 . S
C1057 C1063 1.390 . S
C1058 H1049 0.930 . S
C1058 C1056 1.384 . S
C1058 C1059 1.372 . S
C1059 C1058 1.372 . S
C1059 C1060 1.400 . S
C1059 C1064 1.490 . S
C1060 H1050 0.930 . S
C1060 C1059 1.400 . S
C1060 C1063 1.386 . S
H1061 C1077 0.930 . S
H1062 C1078 0.931 . S
C1063 H1051 0.929 . S
C1063 C1057 1.390 . S
C1063 C1060 1.386 . S
C1064 C1059 1.490 . S
C1064 C1066 1.395 . S
C1064 C1067 1.403 . S
H1065 C1071 0.930 . S
C1066 H1052 0.930 . S
C1066 C1064 1.395 . S
C1066 C1069 1.403 . S
C1067 C1064 1.403 . S
C1067 C1068 1.524 . S
C1067 C1071 1.400 . S
C1068 H1053 0.960 . S
C1068 H1054 0.960 . S
C1068 H1055 0.960 . S
C1068 C1067 1.524 . S
C1069 C1066 1.403 . S
C1069 C1070 1.392 . S
C1069 C1073 1.495 . S
C1070 C1069 1.392 . S
C1070 C1071 1.385 . S
C1070 C1072 1.478 . S
C1071 H1065 0.930 . S
C1071 C1067 1.400 . S
C1071 C1070 1.385 . S
C1072 C1070 1.478 . S
C1072 C1074 1.381 . S
C1072 C1078 1.383 . S
C1073 C1069 1.495 . S
C1073 H1079 0.959 . S
C1073 H1080 0.961 . S
C1073 H1081 0.960 . S
C1074 C1072 1.381 . S
C1074 C1075 1.394 . S
C1074 H1082 0.930 . S
C1075 C1074 1.394 . S
C1075 C1076 1.383 . S
C1075 H1083 0.929 . S
C1076 C1075 1.383 . S
C1076 C1077 1.377 . S
C1077 H1061 0.930 . S
C1077 C1076 1.377 . S
C1077 C1078 1.379 . S
C1078 H1062 0.931 . S
C1078 C1072 1.383 . S
C1078 C1077 1.379 . S
H1079 C1073 0.959 . S
H1080 C1073 0.961 . S
H1081 C1073 0.960 . S
H1082 C1074 0.930 . S
H1083 C1075 0.929 . S
H1084 C1092 0.929 . S
H1085 C1094 0.930 . S
H1086 C1096 0.930 . S
H1087 C1099 0.929 . S
H1088 C1102 0.930 . S
H1089 C1104 0.960 . S
H1090 C1104 0.960 . S
H1091 C1104 0.960 . S
C1092 H1084 0.929 . S
C1092 C1093 1.377 . S
C1092 C1094 1.384 . S
C1093 C1092 1.377 . S
C1093 C1099 1.390 . S
C1094 H1085 0.930 . S
C1094 C1092 1.384 . S
C1094 C1095 1.372 . S
C1095 C1094 1.372 . S
C1095 C1096 1.400 . S
C1095 C1100 1.490 . S
C1096 H1086 0.930 . S
C1096 C1095 1.400 . S
C1096 C1099 1.386 . S
H1097 C1113 0.930 . S
H1098 C1114 0.931 . S
C1099 H1087 0.929 . S
C1099 C1093 1.390 . S
C1099 C1096 1.386 . S
C1100 C1095 1.490 . S
C1100 C1102 1.395 . S
C1100 C1103 1.403 . S
H1101 C1107 0.930 . S
C1102 H1088 0.930 . S
C1102 C1100 1.395 . S
C1102 C1105 1.403 . S
C1103 C1100 1.403 . S
C1103 C1104 1.524 . S
C1103 C1107 1.400 . S
C1104 H1089 0.960 . S
C1104 H1090 0.960 . S
C1104 H1091 0.960 . S
C1104 C1103 1.524 . S
C1105 C1102 1.403 . S
C1105 C1106 1.392 . S
C1105 C1109 1.495 . S
C1106 C1105 1.392 . S
C1106 C1107 1.385 . S
C1106 C1108 1.478 . S
C1107 H1101 0.930 . S
C1107 C1103 1.400 . S
C1107 C1106 1.385 . S
C1108 C1106 1.478 . S
C1108 C1110 1.381 . S
C1108 C1114 1.383 . S
C1109 C1105 1.495 . S
C1109 H1115 0.959 . S
C1109 H1116 0.961 . S
C1109 H1117 0.960 . S
C1110 C1108 1.381 . S
C1110 C1111 1.394 . S
C1110 H1118 0.930 . S
C1111 C1110 1.394 . S
C1111 C1112 1.383 . S
C1111 H1119 0.929 . S
C1112 C1111 1.383 . S
C1112 C1113 1.377 . S
C1113 H1097 0.930 . S
C1113 C1112 1.377 . S
C1113 C1114 1.379 . S
C1114 H1098 0.931 . S
C1114 C1108 1.383 . S
C1114 C1113 1.379 . S
H1115 C1109 0.959 . S
H1116 C1109 0.961 . S
H1117 C1109 0.960 . S
H1118 C1110 0.930 . S
H1119 C1111 0.929 . S
H1120 C1128 0.929 . S
H1121 C1130 0.930 . S
H1122 C1132 0.930 . S
H1123 C1135 0.929 . S
H1124 C1138 0.930 . S
H1125 C1140 0.960 . S
H1126 C1140 0.960 . S
H1127 C1140 0.960 . S
C1128 H1120 0.929 . S
C1128 C1129 1.377 . S
C1128 C1130 1.384 . S
C1129 C1128 1.377 . S
C1129 C1135 1.390 . S
C1130 H1121 0.930 . S
C1130 C1128 1.384 . S
C1130 C1131 1.372 . S
C1131 C1130 1.372 . S
C1131 C1132 1.400 . S
C1131 C1136 1.490 . S
C1132 H1122 0.930 . S
C1132 C1131 1.400 . S
C1132 C1135 1.386 . S
H1133 C1149 0.930 . S
H1134 C1150 0.931 . S
C1135 H1123 0.929 . S
C1135 C1129 1.390 . S
C1135 C1132 1.386 . S
C1136 C1131 1.490 . S
C1136 C1138 1.395 . S
C1136 C1139 1.403 . S
H1137 C1143 0.930 . S
C1138 H1124 0.930 . S
C1138 C1136 1.395 . S
C1138 C1141 1.403 . S
C1139 C1136 1.403 . S
C1139 C1140 1.524 . S
C1139 C1143 1.400 . S
C1140 H1125 0.960 . S
C1140 H1126 0.960 . S
C1140 H1127 0.960 . S
C1140 C1139 1.524 . S
C1141 C1138 1.403 . S
C1141 C1142 1.392 . S
C1141 C1145 1.495 . S
C1142 C1141 1.392 . S
C1142 C1143 1.385 . S
C1142 C1144 1.478 . S
C1143 H1137 0.930 . S
C1143 C1139 1.400 . S
C1143 C1142 1.385 . S
C1144 C1142 1.478 . S
C1144 C1146 1.381 . S
C1144 C1150 1.383 . S
C1145 C1141 1.495 . S
C1145 H1151 0.959 . S
C1145 H1152 0.961 . S
C1145 H1153 0.960 . S
C1146 C1144 1.381 . S
C1146 C1147 1.394 . S
C1146 H1154 0.930 . S
C1147 C1146 1.394 . S
C1147 C1148 1.383 . S
C1147 H1155 0.929 . S
C1148 C1147 1.383 . S
C1148 C1149 1.377 . S
C1149 H1133 0.930 . S
C1149 C1148 1.377 . S
C1149 C1150 1.379 . S
C1150 H1134 0.931 . S
C1150 C1144 1.383 . S
C1150 C1149 1.379 . S
H1151 C1145 0.959 . S
H1152 C1145 0.961 . S
H1153 C1145 0.960 . S
H1154 C1146 0.930 . S
H1155 C1147 0.929 . S
H1156 C1164 0.929 . S
H1157 C1166 0.930 . S
H1158 C1168 0.930 . S
H1159 C1171 0.929 . S
H1160 C1174 0.930 . S
H1161 C1176 0.960 . S
H1162 C1176 0.960 . S
H1163 C1176 0.960 . S
C1164 H1156 0.929 . S
C1164 C1165 1.377 . S
C1164 C1166 1.384 . S
C1165 C1164 1.377 . S
C1165 C1171 1.390 . S
C1166 H1157 0.930 . S
C1166 C1164 1.384 . S
C1166 C1167 1.372 . S
C1167 C1166 1.372 . S
C1167 C1168 1.400 . S
C1167 C1172 1.490 . S
C1168 H1158 0.930 . S
C1168 C1167 1.400 . S
C1168 C1171 1.386 . S
H1169 C1185 0.930 . S
H1170 C1186 0.931 . S
C1171 H1159 0.929 . S
C1171 C1165 1.390 . S
C1171 C1168 1.386 . S
C1172 C1167 1.490 . S
C1172 C1174 1.395 . S
C1172 C1175 1.403 . S
H1173 C1179 0.930 . S
C1174 H1160 0.930 . S
C1174 C1172 1.395 . S
C1174 C1177 1.403 . S
C1175 C1172 1.403 . S
C1175 C1176 1.524 . S
C1175 C1179 1.400 . S
C1176 H1161 0.960 . S
C1176 H1162 0.960 . S
C1176 H1163 0.960 . S
C1176 C1175 1.524 . S
C1177 C1174 1.403 . S
C1177 C1178 1.392 . S
C1177 C1181 1.495 . S
C1178 C1177 1.392 . S
C1178 C1179 1.385 . S
C1178 C1180 1.478 . S
C1179 H1173 0.930 . S
C1179 C1175 1.400 . S
C1179 C1178 1.385 . S
C1180 C1178 1.478 . S
C1180 C1182 1.381 . S
C1180 C1186 1.383 . S
C1181 C1177 1.495 . S
C1181 H1187 0.959 . S
C1181 H1188 0.961 . S
C1181 H1189 0.960 . S
C1182 C1180 1.381 . S
C1182 C1183 1.394 . S
C1182 H1190 0.930 . S
C1183 C1182 1.394 . S
C1183 C1184 1.383 . S
C1183 H1191 0.929 . S
C1184 C1183 1.383 . S
C1184 C1185 1.377 . S
C1185 H1169 0.930 . S
C1185 C1184 1.377 . S
C1185 C1186 1.379 . S
C1186 H1170 0.931 . S
C1186 C1180 1.383 . S
C1186 C1185 1.379 . S
H1187 C1181 0.959 . S
H1188 C1181 0.961 . S
H1189 C1181 0.960 . S
H1190 C1182 0.930 . S
H1191 C1183 0.929 . S
H1192 C1200 0.929 . S
H1193 C1202 0.930 . S
H1194 C1204 0.930 . S
H1195 C1207 0.929 . S
H1196 C1210 0.930 . S
H1197 C1212 0.960 . S
H1198 C1212 0.960 . S
H1199 C1212 0.960 . S
C1200 H1192 0.929 . S
C1200 C1201 1.377 . S
C1200 C1202 1.384 . S
C1201 C1200 1.377 . S
C1201 C1207 1.390 . S
C1202 H1193 0.930 . S
C1202 C1200 1.384 . S
C1202 C1203 1.372 . S
C1203 C1202 1.372 . S
C1203 C1204 1.400 . S
C1203 C1208 1.490 . S
C1204 H1194 0.930 . S
C1204 C1203 1.400 . S
C1204 C1207 1.386 . S
H1205 C1221 0.930 . S
H1206 C1222 0.931 . S
C1207 H1195 0.929 . S
C1207 C1201 1.390 . S
C1207 C1204 1.386 . S
C1208 C1203 1.490 . S
C1208 C1210 1.395 . S
C1208 C1211 1.403 . S
H1209 C1215 0.930 . S
C1210 H1196 0.930 . S
C1210 C1208 1.395 . S
C1210 C1213 1.403 . S
C1211 C1208 1.403 . S
C1211 C1212 1.524 . S
C1211 C1215 1.400 . S
C1212 H1197 0.960 . S
C1212 H1198 0.960 . S
C1212 H1199 0.960 . S
C1212 C1211 1.524 . S
C1213 C1210 1.403 . S
C1213 C1214 1.392 . S
C1213 C1217 1.495 . S
C1214 C1213 1.392 . S
C1214 C1215 1.385 . S
C1214 C1216 1.478 . S
C1215 H1209 0.930 . S
C1215 C1211 1.400 . S
C1215 C1214 1.385 . S
C1216 C1214 1.478 . S
C1216 C1218 1.381 . S
C1216 C1222 1.383 . S
C1217 C1213 1.495 . S
C1217 H1223 0.959 . S
C1217 H1224 0.961 . S
C1217 H1225 0.960 . S
C1218 C1216 1.381 . S
C1218 C1219 1.394 . S
C1218 H1226 0.930 . S
C1219 C1218 1.394 . S
C1219 C1220 1.383 . S
C1219 H1227 0.929 . S
C1220 C1219 1.383 . S
C1220 C1221 1.377 . S
C1221 H1205 0.930 . S
C1221 C1220 1.377 . S
C1221 C1222 1.379 . S
C1222 H1206 0.931 . S
C1222 C1216 1.383 . S
C1222 C1221 1.379 . S
H1223 C1217 0.959 . S
H1224 C1217 0.961 . S
H1225 C1217 0.960 . S
H1226 C1218 0.930 . S
H1227 C1219 0.929 . S
H1228 C1236 0.929 . S
H1229 C1238 0.930 . S
H1230 C1240 0.930 . S
H1231 C1243 0.929 . S
H1232 C1246 0.930 . S
H1233 C1248 0.960 . S
H1234 C1248 0.960 . S
H1235 C1248 0.960 . S
C1236 H1228 0.929 . S
C1236 C1237 1.377 . S
C1236 C1238 1.384 . S
C1237 C1236 1.377 . S
C1237 C1243 1.390 . S
C1238 H1229 0.930 . S
C1238 C1236 1.384 . S
C1238 C1239 1.372 . S
C1239 C1238 1.372 . S
C1239 C1240 1.400 . S
C1239 C1244 1.490 . S
C1240 H1230 0.930 . S
C1240 C1239 1.400 . S
C1240 C1243 1.386 . S
H1241 C1257 0.930 . S
H1242 C1258 0.931 . S
C1243 H1231 0.929 . S
C1243 C1237 1.390 . S
C1243 C1240 1.386 . S
C1244 C1239 1.490 . S
C1244 C1246 1.395 . S
C1244 C1247 1.403 . S
H1245 C1251 0.930 . S
C1246 H1232 0.930 . S
C1246 C1244 1.395 . S
C1246 C1249 1.403 . S
C1247 C1244 1.403 . S
C1247 C1248 1.524 . S
C1247 C1251 1.400 . S
C1248 H1233 0.960 . S
C1248 H1234 0.960 . S
C1248 H1235 0.960 . S
C1248 C1247 1.524 . S
C1249 C1246 1.403 . S
C1249 C1250 1.392 . S
C1249 C1253 1.495 . S
C1250 C1249 1.392 . S
C1250 C1251 1.385 . S
C1250 C1252 1.478 . S
C1251 H1245 0.930 . S
C1251 C1247 1.400 . S
C1251 C1250 1.385 . S
C1252 C1250 1.478 . S
C1252 C1254 1.381 . S
C1252 C1258 1.383 . S
C1253 C1249 1.495 . S
C1253 H1259 0.959 . S
C1253 H1260 0.961 . S
C1253 H1261 0.960 . S
C1254 C1252 1.381 . S
C1254 C1255 1.394 . S
C1254 H1262 0.930 . S
C1255 C1254 1.394 . S
C1255 C1256 1.383 . S
C1255 H1263 0.929 . S
C1256 C1255 1.383 . S
C1256 C1257 1.377 . S
C1257 H1241 0.930 . S
C1257 C1256 1.377 . S
C1257 C1258 1.379 . S
C1258 H1242 0.931 . S
C1258 C1252 1.383 . S
C1258 C1257 1.379 . S
H1259 C1253 0.959 . S
H1260 C1253 0.961 . S
H1261 C1253 0.960 . S
H1262 C1254 0.930 . S
H1263 C1255 0.929 . S
H1264 C1272 0.929 . S
H1265 C1274 0.930 . S
H1266 C1276 0.930 . S
H1267 C1279 0.929 . S
H1268 C1282 0.930 . S
H1269 C1284 0.960 . S
H1270 C1284 0.960 . S
H1271 C1284 0.960 . S
C1272 H1264 0.929 . S
C1272 C1273 1.377 . S
C1272 C1274 1.384 . S
C1273 C1272 1.377 . S
C1273 C1279 1.390 . S
C1274 H1265 0.930 . S
C1274 C1272 1.384 . S
C1274 C1275 1.372 . S
C1275 C1274 1.372 . S
C1275 C1276 1.400 . S
C1275 C1280 1.490 . S
C1276 H1266 0.930 . S
C1276 C1275 1.400 . S
C1276 C1279 1.386 . S
H1277 C1293 0.930 . S
H1278 C1294 0.931 . S
C1279 H1267 0.929 . S
C1279 C1273 1.390 . S
C1279 C1276 1.386 . S
C1280 C1275 1.490 . S
C1280 C1282 1.395 . S
C1280 C1283 1.403 . S
H1281 C1287 0.930 . S
C1282 H1268 0.930 . S
C1282 C1280 1.395 . S
C1282 C1285 1.403 . S
C1283 C1280 1.403 . S
C1283 C1284 1.524 . S
C1283 C1287 1.400 . S
C1284 H1269 0.960 . S
C1284 H1270 0.960 . S
C1284 H1271 0.960 . S
C1284 C1283 1.524 . S
C1285 C1282 1.403 . S
C1285 C1286 1.392 . S
C1285 C1289 1.495 . S
C1286 C1285 1.392 . S
C1286 C1287 1.385 . S
C1286 C1288 1.478 . S
C1287 H1281 0.930 . S
C1287 C1283 1.400 . S
C1287 C1286 1.385 . S
C1288 C1286 1.478 . S
C1288 C1290 1.381 . S
C1288 C1294 1.383 . S
C1289 C1285 1.495 . S
C1289 H1295 0.959 . S
C1289 H1296 0.961 . S
C1289 H1297 0.960 . S
C1290 C1288 1.381 . S
C1290 C1291 1.394 . S
C1290 H1298 0.930 . S
C1291 C1290 1.394 . S
C1291 C1292 1.383 . S
C1291 H1299 0.929 . S
C1292 C1291 1.383 . S
C1292 C1293 1.377 . S
C1293 H1277 0.930 . S
C1293 C1292 1.377 . S
C1293 C1294 1.379 . S
C1294 H1278 0.931 . S
C1294 C1288 1.383 . S
C1294 C1293 1.379 . S
H1295 C1289 0.959 . S
H1296 C1289 0.961 . S
H1297 C1289 0.960 . S
H1298 C1290 0.930 . S
H1299 C1291 0.929 . S
H1300 C1308 0.929 . S
H1301 C1310 0.930 . S
H1302 C1312 0.930 . S
H1303 C1315 0.929 . S
H1304 C1318 0.930 . S
H1305 C1320 0.960 . S
H1306 C1320 0.960 . S
H1307 C1320 0.960 . S
C1308 H1300 0.929 . S
C1308 C1309 1.377 . S
C1308 C1310 1.384 . S
C1309 C1308 1.377 . S
C1309 C1315 1.390 . S
C1310 H1301 0.930 . S
C1310 C1308 1.384 . S
C1310 C1311 1.372 . S
C1311 C1310 1.372 . S
C1311 C1312 1.400 . S
C1311 C1316 1.490 . S
C1312 H1302 0.930 . S
C1312 C1311 1.400 . S
C1312 C1315 1.386 . S
H1313 C1329 0.930 . S
H1314 C1330 0.931 . S
C1315 H1303 0.929 . S
C1315 C1309 1.390 . S
C1315 C1312 1.386 . S
C1316 C1311 1.490 . S
C1316 C1318 1.395 . S
C1316 C1319 1.403 . S
H1317 C1323 0.930 . S
C1318 H1304 0.930 . S
C1318 C1316 1.395 . S
C1318 C1321 1.403 . S
C1319 C1316 1.403 . S
C1319 C1320 1.524 . S
C1319 C1323 1.400 . S
C1320 H1305 0.960 . S
C1320 H1306 0.960 . S
C1320 H1307 0.960 . S
C1320 C1319 1.524 . S
C1321 C1318 1.403 . S
C1321 C1322 1.392 . S
C1321 C1325 1.495 . S
C1322 C1321 1.392 . S
C1322 C1323 1.385 . S
C1322 C1324 1.478 . S
C1323 H1317 0.930 . S
C1323 C1319 1.400 . S
C1323 C1322 1.385 . S
C1324 C1322 1.478 . S
C1324 C1326 1.381 . S
C1324 C1330 1.383 . S
C1325 C1321 1.495 . S
C1325 H1331 0.959 . S
C1325 H1332 0.961 . S
C1325 H1333 0.960 . S
C1326 C1324 1.381 . S
C1326 C1327 1.394 . S
C1326 H1334 0.930 . S
C1327 C1326 1.394 . S
C1327 C1328 1.383 . S
C1327 H1335 0.929 . S
C1328 C1327 1.383 . S
C1328 C1329 1.377 . S
C1329 H1313 0.930 . S
C1329 C1328 1.377 . S
C1329 C1330 1.379 . S
C1330 H1314 0.931 . S
C1330 C1324 1.383 . S
C1330 C1329 1.379 . S
H1331 C1325 0.959 . S
H1332 C1325 0.961 . S
H1333 C1325 0.960 . S
H1334 C1326 0.930 . S
H1335 C1327 0.929 . S
H1336 C1344 0.929 . S
H1337 C1346 0.930 . S
H1338 C1348 0.930 . S
H1339 C1351 0.929 . S
H1340 C1354 0.930 . S
H1341 C1356 0.960 . S
H1342 C1356 0.960 . S
H1343 C1356 0.960 . S
C1344 H1336 0.929 . S
C1344 C1345 1.377 . S
C1344 C1346 1.384 . S
C1345 C1344 1.377 . S
C1345 C1351 1.390 . S
C1346 H1337 0.930 . S
C1346 C1344 1.384 . S
C1346 C1347 1.372 . S
C1347 C1346 1.372 . S
C1347 C1348 1.400 . S
C1347 C1352 1.490 . S
C1348 H1338 0.930 . S
C1348 C1347 1.400 . S
C1348 C1351 1.386 . S
H1349 C1365 0.930 . S
H1350 C1366 0.931 . S
C1351 H1339 0.929 . S
C1351 C1345 1.390 . S
C1351 C1348 1.386 . S
C1352 C1347 1.490 . S
C1352 C1354 1.395 . S
C1352 C1355 1.403 . S
H1353 C1359 0.930 . S
C1354 H1340 0.930 . S
C1354 C1352 1.395 . S
C1354 C1357 1.403 . S
C1355 C1352 1.403 . S
C1355 C1356 1.524 . S
C1355 C1359 1.400 . S
C1356 H1341 0.960 . S
C1356 H1342 0.960 . S
C1356 H1343 0.960 . S
C1356 C1355 1.524 . S
C1357 C1354 1.403 . S
C1357 C1358 1.392 . S
C1357 C1361 1.495 . S
C1358 C1357 1.392 . S
C1358 C1359 1.385 . S
C1358 C1360 1.478 . S
C1359 H1353 0.930 . S
C1359 C1355 1.400 . S
C1359 C1358 1.385 . S
C1360 C1358 1.478 . S
C1360 C1362 1.381 . S
C1360 C1366 1.383 . S
C1361 C1357 1.495 . S
C1361 H1367 0.959 . S
C1361 H1368 0.961 . S
C1361 H1369 0.960 . S
C1362 C1360 1.381 . S
C1362 C1363 1.394 . S
C1362 H1370 0.930 . S
C1363 C1362 1.394 . S
C1363 C1364 1.383 . S
C1363 H1371 0.929 . S
C1364 C1363 1.383 . S
C1364 C1365 1.377 . S
C1365 H1349 0.930 . S
C1365 C1364 1.377 . S
C1365 C1366 1.379 . S
C1366 H1350 0.931 . S
C1366 C1360 1.383 . S
C1366 C1365 1.379 . S
H1367 C1361 0.959 . S
H1368 C1361 0.961 . S
H1369 C1361 0.960 . S
H1370 C1362 0.930 . S
H1371 C1363 0.929 . S
H1372 C1380 0.929 . S
H1373 C1382 0.930 . S
H1374 C1384 0.930 . S
H1375 C1387 0.929 . S
H1376 C1390 0.930 . S
H1377 C1392 0.960 . S
H1378 C1392 0.960 . S
H1379 C1392 0.960 . S
C1380 H1372 0.929 . S
C1380 C1381 1.377 . S
C1380 C1382 1.384 . S
C1381 C1380 1.377 . S
C1381 C1387 1.390 . S
C1382 H1373 0.930 . S
C1382 C1380 1.384 . S
C1382 C1383 1.372 . S
C1383 C1382 1.372 . S
C1383 C1384 1.400 . S
C1383 C1388 1.490 . S
C1384 H1374 0.930 . S
C1384 C1383 1.400 . S
C1384 C1387 1.386 . S
H1385 C1401 0.930 . S
H1386 C1402 0.931 . S
C1387 H1375 0.929 . S
C1387 C1381 1.390 . S
C1387 C1384 1.386 . S
C1388 C1383 1.490 . S
C1388 C1390 1.395 . S
C1388 C1391 1.403 . S
H1389 C1395 0.930 . S
C1390 H1376 0.930 . S
C1390 C1388 1.395 . S
C1390 C1393 1.403 . S
C1391 C1388 1.403 . S
C1391 C1392 1.524 . S
C1391 C1395 1.400 . S
C1392 H1377 0.960 . S
C1392 H1378 0.960 . S
C1392 H1379 0.960 . S
C1392 C1391 1.524 . S
C1393 C1390 1.403 . S
C1393 C1394 1.392 . S
C1393 C1397 1.495 . S
C1394 C1393 1.392 . S
C1394 C1395 1.385 . S
C1394 C1396 1.478 . S
C1395 H1389 0.930 . S
C1395 C1391 1.400 . S
C1395 C1394 1.385 . S
C1396 C1394 1.478 . S
C1396 C1398 1.381 . S
C1396 C1402 1.383 . S
C1397 C1393 1.495 . S
C1397 H1403 0.959 . S
C1397 H1404 0.961 . S
C1397 H1405 0.960 . S
C1398 C1396 1.381 . S
C1398 C1399 1.394 . S
C1398 H1406 0.930 . S
C1399 C1398 1.394 . S
C1399 C1400 1.383 . S
C1399 H1407 0.929 . S
C1400 C1399 1.383 . S
C1400 C1401 1.377 . S
C1401 H1385 0.930 . S
C1401 C1400 1.377 . S
C1401 C1402 1.379 . S
C1402 H1386 0.931 . S
C1402 C1396 1.383 . S
C1402 C1401 1.379 . S
H1403 C1397 0.959 . S
H1404 C1397 0.961 . S
H1405 C1397 0.960 . S
H1406 C1398 0.930 . S
H1407 C1399 0.929 . S
H1408 C1416 0.929 . S
H1409 C1418 0.930 . S
H1410 C1420 0.930 . S
H1411 C1423 0.929 . S
H1412 C1426 0.930 . S
H1413 C1428 0.960 . S
H1414 C1428 0.960 . S
H1415 C1428 0.960 . S
C1416 H1408 0.929 . S
C1416 C1417 1.377 . S
C1416 C1418 1.384 . S
C1417 C1416 1.377 . S
C1417 C1423 1.390 . S
C1418 H1409 0.930 . S
C1418 C1416 1.384 . S
C1418 C1419 1.372 . S
C1419 C1418 1.372 . S
C1419 C1420 1.400 . S
C1419 C1424 1.490 . S
C1420 H1410 0.930 . S
C1420 C1419 1.400 . S
C1420 C1423 1.386 . S
H1421 C1437 0.930 . S
H1422 C1438 0.931 . S
C1423 H1411 0.929 . S
C1423 C1417 1.390 . S
C1423 C1420 1.386 . S
C1424 C1419 1.490 . S
C1424 C1426 1.395 . S
C1424 C1427 1.403 . S
H1425 C1431 0.930 . S
C1426 H1412 0.930 . S
C1426 C1424 1.395 . S
C1426 C1429 1.403 . S
C1427 C1424 1.403 . S
C1427 C1428 1.524 . S
C1427 C1431 1.400 . S
C1428 H1413 0.960 . S
C1428 H1414 0.960 . S
C1428 H1415 0.960 . S
C1428 C1427 1.524 . S
C1429 C1426 1.403 . S
C1429 C1430 1.392 . S
C1429 C1433 1.495 . S
C1430 C1429 1.392 . S
C1430 C1431 1.385 . S
C1430 C1432 1.478 . S
C1431 H1425 0.930 . S
C1431 C1427 1.400 . S
C1431 C1430 1.385 . S
C1432 C1430 1.478 . S
C1432 C1434 1.381 . S
C1432 C1438 1.383 . S
C1433 C1429 1.495 . S
C1433 H1439 0.959 . S
C1433 H1440 0.961 . S
C1433 H1441 0.960 . S
C1434 C1432 1.381 . S
C1434 C1435 1.394 . S
C1434 H1442 0.930 . S
C1435 C1434 1.394 . S
C1435 C1436 1.383 . S
C1435 H1443 0.929 . S
C1436 C1435 1.383 . S
C1436 C1437 1.377 . S
C1437 H1421 0.930 . S
C1437 C1436 1.377 . S
C1437 C1438 1.379 . S
C1438 H1422 0.931 . S
C1438 C1432 1.383 . S
C1438 C1437 1.379 . S
H1439 C1433 0.959 . S
H1440 C1433 0.961 . S
H1441 C1433 0.960 . S
H1442 C1434 0.930 . S
H1443 C1435 0.929 . S
H1444 C1452 0.929 . S
H1445 C1454 0.930 . S
H1446 C1456 0.930 . S
H1447 C1459 0.929 . S
H1448 C1462 0.930 . S
H1449 C1464 0.960 . S
H1450 C1464 0.960 . S
H1451 C1464 0.960 . S
C1452 H1444 0.929 . S
C1452 C1453 1.377 . S
C1452 C1454 1.384 . S
C1453 C1452 1.377 . S
C1453 C1459 1.390 . S
C1454 H1445 0.930 . S
C1454 C1452 1.384 . S
C1454 C1455 1.372 . S
C1455 C1454 1.372 . S
C1455 C1456 1.400 . S
C1455 C1460 1.490 . S
C1456 H1446 0.930 . S
C1456 C1455 1.400 . S
C1456 C1459 1.386 . S
H1457 C1473 0.930 . S
H1458 C1474 0.931 . S
C1459 H1447 0.929 . S
C1459 C1453 1.390 . S
C1459 C1456 1.386 . S
C1460 C1455 1.490 . S
C1460 C1462 1.395 . S
C1460 C1463 1.403 . S
H1461 C1467 0.930 . S
C1462 H1448 0.930 . S
C1462 C1460 1.395 . S
C1462 C1465 1.403 . S
C1463 C1460 1.403 . S
C1463 C1464 1.524 . S
C1463 C1467 1.400 . S
C1464 H1449 0.960 . S
C1464 H1450 0.960 . S
C1464 H1451 0.960 . S
C1464 C1463 1.524 . S
C1465 C1462 1.403 . S
C1465 C1466 1.392 . S
C1465 C1469 1.495 . S
C1466 C1465 1.392 . S
C1466 C1467 1.385 . S
C1466 C1468 1.478 . S
C1467 H1461 0.930 . S
C1467 C1463 1.400 . S
C1467 C1466 1.385 . S
C1468 C1466 1.478 . S
C1468 C1470 1.381 . S
C1468 C1474 1.383 . S
C1469 C1465 1.495 . S
C1469 H1475 0.959 . S
C1469 H1476 0.961 . S
C1469 H1477 0.960 . S
C1470 C1468 1.381 . S
C1470 C1471 1.394 . S
C1470 H1478 0.930 . S
C1471 C1470 1.394 . S
C1471 C1472 1.383 . S
C1471 H1479 0.929 . S
C1472 C1471 1.383 . S
C1472 C1473 1.377 . S
C1473 H1457 0.930 . S
C1473 C1472 1.377 . S
C1473 C1474 1.379 . S
C1474 H1458 0.931 . S
C1474 C1468 1.383 . S
C1474 C1473 1.379 . S
H1475 C1469 0.959 . S
H1476 C1469 0.961 . S
H1477 C1469 0.960 . S
H1478 C1470 0.930 . S
H1479 C1471 0.929 . S
H1480 C1488 0.929 . S
H1481 C1490 0.930 . S
H1482 C1492 0.930 . S
H1483 C1495 0.929 . S
H1484 C1498 0.930 . S
H1485 C1500 0.960 . S
H1486 C1500 0.960 . S
H1487 C1500 0.960 . S
C1488 H1480 0.929 . S
C1488 C1489 1.377 . S
C1488 C1490 1.384 . S
C1489 C1488 1.377 . S
C1489 C1495 1.390 . S
C1490 H1481 0.930 . S
C1490 C1488 1.384 . S
C1490 C1491 1.372 . S
C1491 C1490 1.372 . S
C1491 C1492 1.400 . S
C1491 C1496 1.490 . S
C1492 H1482 0.930 . S
C1492 C1491 1.400 . S
C1492 C1495 1.386 . S
H1493 C1509 0.930 . S
H1494 C1510 0.931 . S
C1495 H1483 0.929 . S
C1495 C1489 1.390 . S
C1495 C1492 1.386 . S
C1496 C1491 1.490 . S
C1496 C1498 1.395 . S
C1496 C1499 1.403 . S
H1497 C1503 0.930 . S
C1498 H1484 0.930 . S
C1498 C1496 1.395 . S
C1498 C1501 1.403 . S
C1499 C1496 1.403 . S
C1499 C1500 1.524 . S
C1499 C1503 1.400 . S
C1500 H1485 0.960 . S
C1500 H1486 0.960 . S
C1500 H1487 0.960 . S
C1500 C1499 1.524 . S
C1501 C1498 1.403 . S
C1501 C1502 1.392 . S
C1501 C1505 1.495 . S
C1502 C1501 1.392 . S
C1502 C1503 1.385 . S
C1502 C1504 1.478 . S
C1503 H1497 0.930 . S
C1503 C1499 1.400 . S
C1503 C1502 1.385 . S
C1504 C1502 1.478 . S
C1504 C1506 1.381 . S
C1504 C1510 1.383 . S
C1505 C1501 1.495 . S
C1505 H1511 0.959 . S
C1505 H1512 0.961 . S
C1505 H1513 0.960 . S
C1506 C1504 1.381 . S
C1506 C1507 1.394 . S
C1506 H1514 0.930 . S
C1507 C1506 1.394 . S
C1507 C1508 1.383 . S
C1507 H1515 0.929 . S
C1508 C1507 1.383 . S
C1508 C1509 1.377 . S
C1509 H1493 0.930 . S
C1509 C1508 1.377 . S
C1509 C1510 1.379 . S
C1510 H1494 0.931 . S
C1510 C1504 1.383 . S
C1510 C1509 1.379 . S
H1511 C1505 0.959 . S
H1512 C1505 0.961 . S
H1513 C1505 0.960 . S
H1514 C1506 0.930 . S
H1515 C1507 0.929 . S
H1516 C1524 0.929 . S
H1517 C1526 0.930 . S
H1518 C1528 0.930 . S
H1519 C1531 0.929 . S
H1520 C1534 0.930 . S
H1521 C1536 0.960 . S
H1522 C1536 0.960 . S
H1523 C1536 0.960 . S
C1524 H1516 0.929 . S
C1524 C1525 1.377 . S
C1524 C1526 1.384 . S
C1525 C1524 1.377 . S
C1525 C1531 1.390 . S
C1526 H1517 0.930 . S
C1526 C1524 1.384 . S
C1526 C1527 1.372 . S
C1527 C1526 1.372 . S
C1527 C1528 1.400 . S
C1527 C1532 1.490 . S
C1528 H1518 0.930 . S
C1528 C1527 1.400 . S
C1528 C1531 1.386 . S
H1529 C1545 0.930 . S
H1530 C1546 0.931 . S
C1531 H1519 0.929 . S
C1531 C1525 1.390 . S
C1531 C1528 1.386 . S
C1532 C1527 1.490 . S
C1532 C1534 1.395 . S
C1532 C1535 1.403 . S
H1533 C1539 0.930 . S
C1534 H1520 0.930 . S
C1534 C1532 1.395 . S
C1534 C1537 1.403 . S
C1535 C1532 1.403 . S
C1535 C1536 1.524 . S
C1535 C1539 1.400 . S
C1536 H1521 0.960 . S
C1536 H1522 0.960 . S
C1536 H1523 0.960 . S
C1536 C1535 1.524 . S
C1537 C1534 1.403 . S
C1537 C1538 1.392 . S
C1537 C1541 1.495 . S
C1538 C1537 1.392 . S
C1538 C1539 1.385 . S
C1538 C1540 1.478 . S
C1539 H1533 0.930 . S
C1539 C1535 1.400 . S
C1539 C1538 1.385 . S
C1540 C1538 1.478 . S
C1540 C1542 1.381 . S
C1540 C1546 1.383 . S
C1541 C1537 1.495 . S
C1541 H1547 0.959 . S
C1541 H1548 0.961 . S
C1541 H1549 0.960 . S
C1542 C1540 1.381 . S
C1542 C1543 1.394 . S
C1542 H1550 0.930 . S
C1543 C1542 1.394 . S
C1543 C1544 1.383 . S
C1543 H1551 0.929 . S
C1544 C1543 1.383 . S
C1544 C1545 1.377 . S
C1545 H1529 0.930 . S
C1545 C1544 1.377 . S
C1545 C1546 1.379 . S
C1546 H1530 0.931 . S
C1546 C1540 1.383 . S
C1546 C1545 1.379 . S
H1547 C1541 0.959 . S
H1548 C1541 0.961 . S
H1549 C1541 0.960 . S
H1550 C1542 0.930 . S
H1551 C1543 0.929 . S
H1552 C1560 0.929 . S
H1553 C1562 0.930 . S
H1554 C1564 0.930 . S
H1555 C1567 0.929 . S
H1556 C1570 0.930 . S
H1557 C1572 0.960 . S
H1558 C1572 0.960 . S
H1559 C1572 0.960 . S
C1560 H1552 0.929 . S
C1560 C1561 1.377 . S
C1560 C1562 1.384 . S
C1561 C1560 1.377 . S
C1561 C1567 1.390 . S
C1562 H1553 0.930 . S
C1562 C1560 1.384 . S
C1562 C1563 1.372 . S
C1563 C1562 1.372 . S
C1563 C1564 1.400 . S
C1563 C1568 1.490 . S
C1564 H1554 0.930 . S
C1564 C1563 1.400 . S
C1564 C1567 1.386 . S
H1565 C1581 0.930 . S
H1566 C1582 0.931 . S
C1567 H1555 0.929 . S
C1567 C1561 1.390 . S
C1567 C1564 1.386 . S
C1568 C1563 1.490 . S
C1568 C1570 1.395 . S
C1568 C1571 1.403 . S
H1569 C1575 0.930 . S
C1570 H1556 0.930 . S
C1570 C1568 1.395 . S
C1570 C1573 1.403 . S
C1571 C1568 1.403 . S
C1571 C1572 1.524 . S
C1571 C1575 1.400 . S
C1572 H1557 0.960 . S
C1572 H1558 0.960 . S
C1572 H1559 0.960 . S
C1572 C1571 1.524 . S
C1573 C1570 1.403 . S
C1573 C1574 1.392 . S
C1573 C1577 1.495 . S
C1574 C1573 1.392 . S
C1574 C1575 1.385 . S
C1574 C1576 1.478 . S
C1575 H1569 0.930 . S
C1575 C1571 1.400 . S
C1575 C1574 1.385 . S
C1576 C1574 1.478 . S
C1576 C1578 1.381 . S
C1576 C1582 1.383 . S
C1577 C1573 1.495 . S
C1577 H1583 0.959 . S
C1577 H1584 0.961 . S
C1577 H1585 0.960 . S
C1578 C1576 1.381 . S
C1578 C1579 1.394 . S
C1578 H1586 0.930 . S
C1579 C1578 1.394 . S
C1579 C1580 1.383 . S
C1579 H1587 0.929 . S
C1580 C1579 1.383 . S
C1580 C1581 1.377 . S
C1581 H1565 0.930 . S
C1581 C1580 1.377 . S
C1581 C1582 1.379 . S
C1582 H1566 0.931 . S
C1582 C1576 1.383 . S
C1582 C1581 1.379 . S
H1583 C1577 0.959 . S
H1584 C1577 0.961 . S
H1585 C1577 0.960 . S
H1586 C1578 0.930 . S
H1587 C1579 0.929 . S
H1588 C1596 0.929 . S
H1589 C1598 0.930 . S
H1590 C1600 0.930 . S
H1591 C1603 0.929 . S
H1592 C1606 0.930 . S
H1593 C1608 0.960 . S
H1594 C1608 0.960 . S
H1595 C1608 0.960 . S
C1596 H1588 0.929 . S
C1596 C1597 1.377 . S
C1596 C1598 1.384 . S
C1597 C1596 1.377 . S
C1597 C1603 1.390 . S
C1598 H1589 0.930 . S
C1598 C1596 1.384 . S
C1598 C1599 1.372 . S
C1599 C1598 1.372 . S
C1599 C1600 1.400 . S
C1599 C1604 1.490 . S
C1600 H1590 0.930 . S
C1600 C1599 1.400 . S
C1600 C1603 1.386 . S
H1601 C1617 0.930 . S
H1602 C1618 0.931 . S
C1603 H1591 0.929 . S
C1603 C1597 1.390 . S
C1603 C1600 1.386 . S
C1604 C1599 1.490 . S
C1604 C1606 1.395 . S
C1604 C1607 1.403 . S
H1605 C1611 0.930 . S
C1606 H1592 0.930 . S
C1606 C1604 1.395 . S
C1606 C1609 1.403 . S
C1607 C1604 1.403 . S
C1607 C1608 1.524 . S
C1607 C1611 1.400 . S
C1608 H1593 0.960 . S
C1608 H1594 0.960 . S
C1608 H1595 0.960 . S
C1608 C1607 1.524 . S
C1609 C1606 1.403 . S
C1609 C1610 1.392 . S
C1609 C1613 1.495 . S
C1610 C1609 1.392 . S
C1610 C1611 1.385 . S
C1610 C1612 1.478 . S
C1611 H1605 0.930 . S
C1611 C1607 1.400 . S
C1611 C1610 1.385 . S
C1612 C1610 1.478 . S
C1612 C1614 1.381 . S
C1612 C1618 1.383 . S
C1613 C1609 1.495 . S
C1613 H1619 0.959 . S
C1613 H1620 0.961 . S
C1613 H1621 0.960 . S
C1614 C1612 1.381 . S
C1614 C1615 1.394 . S
C1614 H1622 0.930 . S
C1615 C1614 1.394 . S
C1615 C1616 1.383 . S
C1615 H1623 0.929 . S
C1616 C1615 1.383 . S
C1616 C1617 1.377 . S
C1617 H1601 0.930 . S
C1617 C1616 1.377 . S
C1617 C1618 1.379 . S
C1618 H1602 0.931 . S
C1618 C1612 1.383 . S
C1618 C1617 1.379 . S
H1619 C1613 0.959 . S
H1620 C1613 0.961 . S
H1621 C1613 0.960 . S
H1622 C1614 0.930 . S
H1623 C1615 0.929 . S
H1624 C1632 0.929 . S
H1625 C1634 0.930 . S
H1626 C1636 0.930 . S
H1627 C1639 0.929 . S
H1628 C1642 0.930 . S
H1629 C1644 0.960 . S
H1630 C1644 0.960 . S
H1631 C1644 0.960 . S
C1632 H1624 0.929 . S
C1632 C1633 1.377 . S
C1632 C1634 1.384 . S
C1633 C1632 1.377 . S
C1633 C1639 1.390 . S
C1634 H1625 0.930 . S
C1634 C1632 1.384 . S
C1634 C1635 1.372 . S
C1635 C1634 1.372 . S
C1635 C1636 1.400 . S
C1635 C1640 1.490 . S
C1636 H1626 0.930 . S
C1636 C1635 1.400 . S
C1636 C1639 1.386 . S
H1637 C1653 0.930 . S
H1638 C1654 0.931 . S
C1639 H1627 0.929 . S
C1639 C1633 1.390 . S
C1639 C1636 1.386 . S
C1640 C1635 1.490 . S
C1640 C1642 1.395 . S
C1640 C1643 1.403 . S
H1641 C1647 0.930 . S
C1642 H1628 0.930 . S
C1642 C1640 1.395 . S
C1642 C1645 1.403 . S
C1643 C1640 1.403 . S
C1643 C1644 1.524 . S
C1643 C1647 1.400 . S
C1644 H1629 0.960 . S
C1644 H1630 0.960 . S
C1644 H1631 0.960 . S
C1644 C1643 1.524 . S
C1645 C1642 1.403 . S
C1645 C1646 1.392 . S
C1645 C1649 1.495 . S
C1646 C1645 1.392 . S
C1646 C1647 1.385 . S
C1646 C1648 1.478 . S
C1647 H1641 0.930 . S
C1647 C1643 1.400 . S
C1647 C1646 1.385 . S
C1648 C1646 1.478 . S
C1648 C1650 1.381 . S
C1648 C1654 1.383 . S
C1649 C1645 1.495 . S
C1649 H1655 0.959 . S
C1649 H1656 0.961 . S
C1649 H1657 0.960 . S
C1650 C1648 1.381 . S
C1650 C1651 1.394 . S
C1650 H1658 0.930 . S
C1651 C1650 1.394 . S
C1651 C1652 1.383 . S
C1651 H1659 0.929 . S
C1652 C1651 1.383 . S
C1652 C1653 1.377 . S
C1653 H1637 0.930 . S
C1653 C1652 1.377 . S
C1653 C1654 1.379 . S
C1654 H1638 0.931 . S
C1654 C1648 1.383 . S
C1654 C1653 1.379 . S
H1655 C1649 0.959 . S
H1656 C1649 0.961 . S
H1657 C1649 0.960 . S
H1658 C1650 0.930 . S
H1659 C1651 0.929 . S
H1660 C1668 0.929 . S
H1661 C1670 0.930 . S
H1662 C1672 0.930 . S
H1663 C1675 0.929 . S
H1664 C1678 0.930 . S
H1665 C1680 0.960 . S
H1666 C1680 0.960 . S
H1667 C1680 0.960 . S
C1668 H1660 0.929 . S
C1668 C1669 1.377 . S
C1668 C1670 1.384 . S
C1669 C1668 1.377 . S
C1669 C1675 1.390 . S
C1670 H1661 0.930 . S
C1670 C1668 1.384 . S
C1670 C1671 1.372 . S
C1671 C1670 1.372 . S
C1671 C1672 1.400 . S
C1671 C1676 1.490 . S
C1672 H1662 0.930 . S
C1672 C1671 1.400 . S
C1672 C1675 1.386 . S
H1673 C1689 0.930 . S
H1674 C1690 0.931 . S
C1675 H1663 0.929 . S
C1675 C1669 1.390 . S
C1675 C1672 1.386 . S
C1676 C1671 1.490 . S
C1676 C1678 1.395 . S
C1676 C1679 1.403 . S
H1677 C1683 0.930 . S
C1678 H1664 0.930 . S
C1678 C1676 1.395 . S
C1678 C1681 1.403 . S
C1679 C1676 1.403 . S
C1679 C1680 1.524 . S
C1679 C1683 1.400 . S
C1680 H1665 0.960 . S
C1680 H1666 0.960 . S
C1680 H1667 0.960 . S
C1680 C1679 1.524 . S
C1681 C1678 1.403 . S
C1681 C1682 1.392 . S
C1681 C1685 1.495 . S
C1682 C1681 1.392 . S
C1682 C1683 1.385 . S
C1682 C1684 1.478 . S
C1683 H1677 0.930 . S
C1683 C1679 1.400 . S
C1683 C1682 1.385 . S
C1684 C1682 1.478 . S
C1684 C1686 1.381 . S
C1684 C1690 1.383 . S
C1685 C1681 1.495 . S
C1685 H1691 0.959 . S
C1685 H1692 0.961 . S
C1685 H1693 0.960 . S
C1686 C1684 1.381 . S
C1686 C1687 1.394 . S
C1686 H1694 0.930 . S
C1687 C1686 1.394 . S
C1687 C1688 1.383 . S
C1687 H1695 0.929 . S
C1688 C1687 1.383 . S
C1688 C1689 1.377 . S
C1689 H1673 0.930 . S
C1689 C1688 1.377 . S
C1689 C1690 1.379 . S
C1690 H1674 0.931 . S
C1690 C1684 1.383 . S
C1690 C1689 1.379 . S
H1691 C1685 0.959 . S
H1692 C1685 0.961 . S
H1693 C1685 0.960 . S
H1694 C1686 0.930 . S
H1695 C1687 0.929 . S
H1696 C1704 0.929 . S
H1697 C1706 0.930 . S
H1698 C1708 0.930 . S
H1699 C1711 0.929 . S
H1700 C1714 0.930 . S
H1701 C1716 0.960 . S
H1702 C1716 0.960 . S
H1703 C1716 0.960 . S
C1704 H1696 0.929 . S
C1704 C1705 1.377 . S
C1704 C1706 1.384 . S
C1705 C1704 1.377 . S
C1705 C1711 1.390 . S
C1706 H1697 0.930 . S
C1706 C1704 1.384 . S
C1706 C1707 1.372 . S
C1707 C1706 1.372 . S
C1707 C1708 1.400 . S
C1707 C1712 1.490 . S
C1708 H1698 0.930 . S
C1708 C1707 1.400 . S
C1708 C1711 1.386 . S
H1709 C1725 0.930 . S
H1710 C1726 0.931 . S
C1711 H1699 0.929 . S
C1711 C1705 1.390 . S
C1711 C1708 1.386 . S
C1712 C1707 1.490 . S
C1712 C1714 1.395 1_455 S
C1712 C1715 1.403 . S
H1713 C1719 0.930 . S
C1714 H1700 0.930 . S
C1714 C1712 1.395 1_655 S
C1714 C1717 1.403 . S
C1715 C1712 1.403 . S
C1715 C1716 1.524 . S
C1715 C1719 1.400 . S
C1716 H1701 0.960 . S
C1716 H1702 0.960 . S
C1716 H1703 0.960 . S
C1716 C1715 1.524 . S
C1717 C1714 1.403 . S
C1717 C1718 1.392 . S
C1717 C1721 1.495 . S
C1718 C1717 1.392 . S
C1718 C1719 1.385 1_655 S
C1718 C1720 1.478 . S
C1719 H1713 0.930 . S
C1719 C1715 1.400 . S
C1719 C1718 1.385 1_455 S
C1720 C1718 1.478 . S
C1720 C1722 1.381 . S
C1720 C1726 1.383 . S
C1721 C1717 1.495 . S
C1721 H1727 0.959 . S
C1721 H1728 0.961 . S
C1721 H1729 0.960 . S
C1722 C1720 1.381 . S
C1722 C1723 1.394 . S
C1722 H1730 0.930 . S
C1723 C1722 1.394 . S
C1723 C1724 1.383 . S
C1723 H1731 0.929 . S
C1724 C1723 1.383 . S
C1724 C1725 1.377 . S
C1725 H1709 0.930 . S
C1725 C1724 1.377 . S
C1725 C1726 1.379 . S
C1726 H1710 0.931 . S
C1726 C1720 1.383 . S
C1726 C1725 1.379 . S
H1727 C1721 0.959 . S
H1728 C1721 0.961 . S
H1729 C1721 0.960 . S
H1730 C1722 0.930 . S
H1731 C1723 0.929 . S
H1732 C1740 0.929 . S
H1733 C1742 0.930 . S
H1734 C1744 0.930 . S
H1735 C1747 0.929 . S
H1736 C1750 0.930 . S
H1737 C1752 0.960 . S
H1738 C1752 0.960 . S
H1739 C1752 0.960 . S
C1740 H1732 0.929 . S
C1740 C1741 1.377 . S
C1740 C1742 1.384 . S
C1741 C1740 1.377 . S
C1741 C1747 1.390 . S
C1742 H1733 0.930 . S
C1742 C1740 1.384 . S
C1742 C1743 1.372 . S
C1743 C1742 1.372 . S
C1743 C1744 1.400 . S
C1743 C1748 1.490 . S
C1744 H1734 0.930 . S
C1744 C1743 1.400 . S
C1744 C1747 1.386 . S
H1745 C1761 0.930 . S
H1746 C1762 0.931 . S
C1747 H1735 0.929 . S
C1747 C1741 1.390 . S
C1747 C1744 1.386 . S
C1748 C1743 1.490 . S
C1748 C1750 1.395 1_565 S
C1748 C1751 1.403 . S
H1749 C1755 0.930 . S
C1750 H1736 0.930 . S
C1750 C1748 1.395 1_545 S
C1750 C1753 1.403 . S
C1751 C1748 1.403 . S
C1751 C1752 1.524 . S
C1751 C1755 1.400 . S
C1752 H1737 0.960 . S
C1752 H1738 0.960 . S
C1752 H1739 0.960 . S
C1752 C1751 1.524 . S
C1753 C1750 1.403 . S
C1753 C1754 1.392 . S
C1753 C1757 1.495 . S
C1754 C1753 1.392 . S
C1754 C1755 1.385 1_545 S
C1754 C1756 1.478 . S
C1755 H1749 0.930 . S
C1755 C1751 1.400 . S
C1755 C1754 1.385 1_565 S
C1756 C1754 1.478 . S
C1756 C1758 1.381 . S
C1756 C1762 1.383 . S
C1757 C1753 1.495 . S
C1757 H1763 0.959 . S
C1757 H1764 0.961 . S
C1757 H1765 0.960 . S
C1758 C1756 1.381 . S
C1758 C1759 1.394 . S
C1758 H1766 0.930 . S
C1759 C1758 1.394 . S
C1759 C1760 1.383 . S
C1759 H1767 0.929 . S
C1760 C1759 1.383 . S
C1760 C1761 1.377 . S
C1761 H1745 0.930 . S
C1761 C1760 1.377 . S
C1761 C1762 1.379 . S
C1762 H1746 0.931 . S
C1762 C1756 1.383 . S
C1762 C1761 1.379 . S
H1763 C1757 0.959 . S
H1764 C1757 0.961 . S
H1765 C1757 0.960 . S
H1766 C1758 0.930 . S
H1767 C1759 0.929 . S
H1768 C1776 0.929 . S
H1769 C1778 0.930 . S
H1770 C1780 0.926 1_655 S
H1771 C1783 0.929 1_655 S
H1772 C1786 0.930 . S
H1773 C1788 0.960 . S
H1774 C1788 0.960 . S
H1775 C1788 0.960 . S
C1776 H1768 0.929 . S
C1776 C1777 1.377 . S
C1776 C1778 1.384 . S
C1777 C1776 1.377 . S
C1777 C1783 1.390 . S
C1778 H1769 0.930 . S
C1778 C1776 1.384 . S
C1778 C1779 1.372 . S
C1779 C1778 1.372 . S
C1779 C1780 1.402 . S
C1779 C1784 1.490 . S
C1780 H1770 0.926 1_455 S
C1780 C1779 1.402 . S
C1780 C1783 1.387 . S
H1781 C1797 0.930 . S
H1782 C1798 0.931 . S
C1783 H1771 0.929 1_455 S
C1783 C1777 1.390 . S
C1783 C1780 1.387 . S
C1784 C1779 1.490 . S
C1784 C1786 1.395 . S
C1784 C1787 1.403 1_455 S
H1785 C1791 0.930 . S
C1786 H1772 0.930 . S
C1786 C1784 1.395 . S
C1786 C1789 1.403 . S
C1787 C1784 1.403 1_655 S
C1787 C1788 1.524 . S
C1787 C1791 1.400 . S
C1788 H1773 0.960 . S
C1788 H1774 0.960 . S
C1788 H1775 0.960 . S
C1788 C1787 1.524 . S
C1789 C1786 1.403 . S
C1789 C1790 1.392 1_455 S
C1789 C1793 1.495 . S
C1790 C1789 1.392 1_655 S
C1790 C1791 1.385 . S
C1790 C1792 1.478 . S
C1791 H1785 0.930 . S
C1791 C1787 1.400 . S
C1791 C1790 1.385 . S
C1792 C1790 1.478 . S
C1792 C1794 1.381 1_655 S
C1792 C1798 1.383 . S
C1793 C1789 1.495 . S
C1793 H1799 0.959 . S
C1793 H1800 0.961 . S
C1793 H1801 0.960 . S
C1794 C1792 1.381 1_455 S
C1794 C1795 1.394 1_455 S
C1794 H1802 0.930 . S
C1795 C1794 1.394 1_655 S
C1795 C1796 1.383 . S
C1795 H1803 0.929 1_655 S
C1796 C1795 1.383 . S
C1796 C1797 1.377 . S
C1797 H1781 0.930 . S
C1797 C1796 1.377 . S
C1797 C1798 1.379 . S
C1798 H1782 0.931 . S
C1798 C1792 1.383 . S
C1798 C1797 1.379 . S
H1799 C1793 0.959 . S
H1800 C1793 0.961 . S
H1801 C1793 0.960 . S
H1802 C1794 0.930 . S
H1803 C1795 0.929 1_455 S
H1804 C1812 0.929 . S
H1805 C1814 0.930 . S
H1806 C1816 0.930 . S
H1807 C1819 0.929 . S
H1808 C1822 0.930 . S
H1809 C1824 0.960 . S
H1810 C1824 0.960 . S
H1811 C1824 0.960 . S
C1812 H1804 0.929 . S
C1812 C1813 1.377 . S
C1812 C1814 1.384 . S
C1813 C1812 1.377 . S
C1813 C1819 1.390 . S
C1814 H1805 0.930 . S
C1814 C1812 1.384 . S
C1814 C1815 1.372 . S
C1815 C1814 1.372 . S
C1815 C1816 1.400 . S
C1815 C1820 1.490 . S
C1816 H1806 0.930 . S
C1816 C1815 1.400 . S
C1816 C1819 1.386 . S
H1817 C1833 0.930 . S
H1818 C1834 0.931 . S
C1819 H1807 0.929 . S
C1819 C1813 1.390 . S
C1819 C1816 1.386 . S
C1820 C1815 1.490 . S
C1820 C1822 1.395 1_545 S
C1820 C1823 1.403 . S
H1821 C1827 0.930 . S
C1822 H1808 0.930 . S
C1822 C1820 1.395 1_565 S
C1822 C1825 1.403 . S
C1823 C1820 1.403 . S
C1823 C1824 1.524 . S
C1823 C1827 1.400 . S
C1824 H1809 0.960 . S
C1824 H1810 0.960 . S
C1824 H1811 0.960 . S
C1824 C1823 1.524 . S
C1825 C1822 1.403 . S
C1825 C1826 1.392 . S
C1825 C1829 1.495 . S
C1826 C1825 1.392 . S
C1826 C1827 1.385 1_565 S
C1826 C1828 1.478 . S
C1827 H1821 0.930 . S
C1827 C1823 1.400 . S
C1827 C1826 1.385 1_545 S
C1828 C1826 1.478 . S
C1828 C1830 1.381 . S
C1828 C1834 1.383 . S
C1829 C1825 1.495 . S
C1829 H1835 0.959 . S
C1829 H1836 0.961 . S
C1829 H1837 0.960 . S
C1830 C1828 1.381 . S
C1830 C1831 1.394 . S
C1830 H1838 0.930 . S
C1831 C1830 1.394 . S
C1831 C1832 1.383 . S
C1831 H1839 0.929 . S
C1832 C1831 1.383 . S
C1832 C1833 1.377 . S
C1833 H1817 0.930 . S
C1833 C1832 1.377 . S
C1833 C1834 1.379 . S
C1834 H1818 0.931 . S
C1834 C1828 1.383 . S
C1834 C1833 1.379 . S
H1835 C1829 0.959 . S
H1836 C1829 0.961 . S
H1837 C1829 0.960 . S
H1838 C1830 0.930 . S
H1839 C1831 0.929 . S
H1840 C1848 0.929 . S
H1841 C1850 0.930 . S
H1842 C1852 0.930 . S
H1843 C1855 0.929 . S
H1844 C1858 0.930 . S
H1845 C1860 0.960 . S
H1846 C1860 0.960 . S
H1847 C1860 0.960 . S
C1848 H1840 0.929 . S
C1848 C1849 1.377 . S
C1848 C1850 1.384 . S
C1849 C1848 1.377 . S
C1849 C1855 1.390 . S
C1850 H1841 0.930 . S
C1850 C1848 1.384 . S
C1850 C1851 1.372 . S
C1851 C1850 1.372 . S
C1851 C1852 1.400 . S
C1851 C1856 1.490 . S
C1852 H1842 0.930 . S
C1852 C1851 1.400 . S
C1852 C1855 1.386 . S
H1853 C1869 0.930 . S
H1854 C1870 0.931 . S
C1855 H1843 0.929 . S
C1855 C1849 1.390 . S
C1855 C1852 1.386 . S
C1856 C1851 1.490 . S
C1856 C1858 1.395 . S
C1856 C1859 1.403 . S
H1857 C1863 0.930 . S
C1858 H1844 0.930 . S
C1858 C1856 1.395 . S
C1858 C1861 1.403 1_556 S
C1859 C1856 1.403 . S
C1859 C1860 1.524 . S
C1859 C1863 1.400 1_556 S
C1860 H1845 0.960 . S
C1860 H1846 0.960 . S
C1860 H1847 0.960 . S
C1860 C1859 1.524 . S
C1861 C1858 1.403 1_554 S
C1861 C1862 1.392 . S
C1861 C1865 1.495 . S
C1862 C1861 1.392 . S
C1862 C1863 1.385 . S
C1862 C1864 1.478 . S
C1863 H1857 0.930 . S
C1863 C1859 1.400 1_554 S
C1863 C1862 1.385 . S
C1864 C1862 1.478 . S
C1864 C1866 1.381 . S
C1864 C1870 1.383 . S
C1865 C1861 1.495 . S
C1865 H1871 0.959 . S
C1865 H1872 0.961 . S
C1865 H1873 0.960 . S
C1866 C1864 1.381 . S
C1866 C1867 1.394 . S
C1866 H1874 0.930 . S
C1867 C1866 1.394 . S
C1867 C1868 1.383 . S
C1867 H1875 0.929 . S
C1868 C1867 1.383 . S
C1868 C1869 1.377 . S
C1869 H1853 0.930 . S
C1869 C1868 1.377 . S
C1869 C1870 1.379 . S
C1870 H1854 0.931 . S
C1870 C1864 1.383 . S
C1870 C1869 1.379 . S
H1871 C1865 0.959 . S
H1872 C1865 0.961 . S
H1873 C1865 0.960 . S
H1874 C1866 0.930 . S
H1875 C1867 0.929 . S
H1876 C1884 0.929 . S
H1877 C1886 0.930 . S
H1878 C1888 0.930 . S
H1879 C1891 0.929 . S
H1880 C1894 0.930 . S
H1881 C1896 0.960 . S
H1882 C1896 0.960 . S
H1883 C1896 0.960 . S
C1884 H1876 0.929 . S
C1884 C1885 1.377 . S
C1884 C1886 1.384 . S
C1885 C1884 1.377 . S
C1885 C1891 1.390 . S
C1886 H1877 0.930 . S
C1886 C1884 1.384 . S
C1886 C1887 1.372 . S
C1887 C1886 1.372 . S
C1887 C1888 1.400 . S
C1887 C1892 1.490 . S
C1888 H1878 0.930 . S
C1888 C1887 1.400 . S
C1888 C1891 1.386 . S
H1889 C1905 0.930 . S
H1890 C1906 0.931 . S
C1891 H1879 0.929 . S
C1891 C1885 1.390 . S
C1891 C1888 1.386 . S
C1892 C1887 1.490 . S
C1892 C1894 1.395 . S
C1892 C1895 1.403 . S
H1893 C1899 0.930 . S
C1894 H1880 0.930 . S
C1894 C1892 1.395 . S
C1894 C1897 1.403 1_554 S
C1895 C1892 1.403 . S
C1895 C1896 1.524 . S
C1895 C1899 1.400 1_554 S
C1896 H1881 0.960 . S
C1896 H1882 0.960 . S
C1896 H1883 0.960 . S
C1896 C1895 1.524 . S
C1897 C1894 1.403 1_556 S
C1897 C1898 1.392 . S
C1897 C1901 1.495 . S
C1898 C1897 1.392 . S
C1898 C1899 1.385 . S
C1898 C1900 1.478 . S
C1899 H1893 0.930 . S
C1899 C1895 1.400 1_556 S
C1899 C1898 1.385 . S
C1900 C1898 1.478 . S
C1900 C1902 1.381 . S
C1900 C1906 1.383 . S
C1901 C1897 1.495 . S
C1901 H1907 0.959 . S
C1901 H1908 0.961 . S
C1901 H1909 0.960 . S
C1902 C1900 1.381 . S
C1902 C1903 1.394 . S
C1902 H1910 0.930 . S
C1903 C1902 1.394 . S
C1903 C1904 1.383 . S
C1903 H1911 0.929 . S
C1904 C1903 1.383 . S
C1904 C1905 1.377 . S
C1905 H1889 0.930 . S
C1905 C1904 1.377 . S
C1905 C1906 1.379 . S
C1906 H1890 0.931 . S
C1906 C1900 1.383 . S
C1906 C1905 1.379 . S
H1907 C1901 0.959 . S
H1908 C1901 0.961 . S
H1909 C1901 0.960 . S
H1910 C1902 0.930 . S
H1911 C1903 0.929 . S
H1912 C1920 0.929 . S
H1913 C1922 0.930 . S
H1914 C1924 0.930 . S
H1915 C1927 0.929 . S
H1916 C1930 0.930 . S
H1917 C1932 0.960 1_556 S
H1918 C1932 0.960 . S
H1919 C1932 0.960 . S
C1920 H1912 0.929 . S
C1920 C1921 1.377 . S
C1920 C1922 1.384 . S
C1921 C1920 1.377 . S
C1921 C1927 1.390 . S
C1922 H1913 0.930 . S
C1922 C1920 1.384 . S
C1922 C1923 1.372 . S
C1923 C1922 1.372 . S
C1923 C1924 1.400 . S
C1923 C1928 1.490 . S
C1924 H1914 0.930 . S
C1924 C1923 1.400 . S
C1924 C1927 1.386 . S
H1925 C1941 0.930 . S
H1926 C1942 0.931 . S
C1927 H1915 0.929 . S
C1927 C1921 1.390 . S
C1927 C1924 1.386 . S
C1928 C1923 1.490 . S
C1928 C1930 1.395 . S
C1928 C1931 1.403 . S
H1929 C1935 0.930 . S
C1930 H1916 0.930 . S
C1930 C1928 1.395 . S
C1930 C1933 1.403 1_554 S
C1931 C1928 1.403 . S
C1931 C1932 1.524 . S
C1931 C1935 1.400 1_554 S
C1932 H1917 0.960 1_554 S
C1932 H1918 0.960 . S
C1932 H1919 0.960 . S
C1932 C1931 1.524 . S
C1933 C1930 1.403 1_556 S
C1933 C1934 1.392 . S
C1933 C1937 1.495 . S
C1934 C1933 1.392 . S
C1934 C1935 1.385 . S
C1934 C1936 1.478 . S
C1935 H1929 0.930 . S
C1935 C1931 1.400 1_556 S
C1935 C1934 1.385 . S
C1936 C1934 1.478 . S
C1936 C1938 1.381 . S
C1936 C1942 1.383 . S
C1937 C1933 1.495 . S
C1937 H1943 0.959 1_556 S
C1937 H1944 0.961 . S
C1937 H1945 0.960 . S
C1938 C1936 1.381 . S
C1938 C1939 1.394 . S
C1938 H1946 0.930 . S
C1939 C1938 1.394 . S
C1939 C1940 1.383 . S
C1939 H1947 0.929 . S
C1940 C1939 1.383 . S
C1940 C1941 1.377 . S
C1941 H1925 0.930 . S
C1941 C1940 1.377 . S
C1941 C1942 1.379 . S
C1942 H1926 0.931 . S
C1942 C1936 1.383 . S
C1942 C1941 1.379 . S
H1943 C1937 0.959 1_554 S
H1944 C1937 0.961 . S
H1945 C1937 0.960 . S
H1946 C1938 0.930 . S
H1947 C1939 0.929 . S
H1948 C1956 0.929 . S
H1949 C1958 0.930 . S
H1950 C1960 0.930 . S
H1951 C1963 0.929 . S
H1952 C1966 0.930 . S
H1953 C1968 0.960 . S
H1954 C1968 0.960 . S
H1955 C1968 0.960 . S
C1956 H1948 0.929 . S
C1956 C1957 1.377 . S
C1956 C1958 1.384 . S
C1957 C1956 1.377 . S
C1957 C1963 1.390 . S
C1958 H1949 0.930 . S
C1958 C1956 1.384 . S
C1958 C1959 1.372 . S
C1959 C1958 1.372 . S
C1959 C1960 1.400 . S
C1959 C1964 1.490 . S
C1960 H1950 0.930 . S
C1960 C1959 1.400 . S
C1960 C1963 1.386 . S
H1961 C1977 0.930 . S
H1962 C1978 0.931 . S
C1963 H1951 0.929 . S
C1963 C1957 1.390 . S
C1963 C1960 1.386 . S
C1964 C1959 1.490 . S
C1964 C1966 1.395 . S
C1964 C1967 1.403 . S
H1965 C1971 0.930 . S
C1966 H1952 0.930 . S
C1966 C1964 1.395 . S
C1966 C1969 1.403 1_556 S
C1967 C1964 1.403 . S
C1967 C1968 1.524 . S
C1967 C1971 1.400 1_556 S
C1968 H1953 0.960 . S
C1968 H1954 0.960 . S
C1968 H1955 0.960 . S
C1968 C1967 1.524 . S
C1969 C1966 1.403 1_554 S
C1969 C1970 1.392 . S
C1969 C1973 1.495 . S
C1970 C1969 1.392 . S
C1970 C1971 1.385 . S
C1970 C1972 1.478 . S
C1971 H1965 0.930 . S
C1971 C1967 1.400 1_554 S
C1971 C1970 1.385 . S
C1972 C1970 1.478 . S
C1972 C1974 1.381 . S
C1972 C1978 1.383 . S
C1973 C1969 1.495 . S
C1973 H1979 0.959 . S
C1973 H1980 0.961 . S
C1973 H1981 0.960 . S
C1974 C1972 1.381 . S
C1974 C1975 1.394 . S
C1974 H1982 0.930 . S
C1975 C1974 1.394 . S
C1975 C1976 1.383 . S
C1975 H1983 0.929 . S
C1976 C1975 1.383 . S
C1976 C1977 1.377 . S
C1977 H1961 0.930 . S
C1977 C1976 1.377 . S
C1977 C1978 1.379 . S
C1978 H1962 0.931 . S
C1978 C1972 1.383 . S
C1978 C1977 1.379 . S
H1979 C1973 0.959 . S
H1980 C1973 0.961 . S
H1981 C1973 0.960 . S
H1982 C1974 0.930 . S
H1983 C1975 0.929 . S
C553 C88 0.838 . S
C572 C20 0.842 . S
C589 C54 0.838 . S
C608 C122 0.835 . S
C625 C224 0.838 . S
C644 C156 0.836 . S
C661 C258 0.839 . S
C680 C190 0.837 . S
C697 C292 0.839 . S
C716 C360 0.837 . S
C733 C394 0.839 . S
C752 C326 0.842 . S
C769 C496 0.839 . S
C788 C428 0.833 . S
C805 C462 0.838 . S
C824 C530 0.833 . S
C841 C9 1.591 . S
C860 C519 1.570 . S
C877 C417 1.590 . S
C896 C43 1.575 . S
C913 C451 1.592 . S
C932 C77 1.601 . S
C949 C485 1.590 . S
C968 C111 1.571 . S
C985 C315 1.595 . S
C1004 C145 1.575 . S
C1021 C349 1.597 . S
C1040 C179 1.583 . S
C1057 C383 1.594 . S
C1076 C213 1.573 . S
C1093 C281 1.595 . S
C1112 C247 1.575 . S
C1129 C2 1.395 . S
C1148 C135 1.390 . S
C1165 C33 1.397 . S
C1184 C36 1.381 . S
C1201 C70 1.394 . S
C1220 C67 1.396 . S
C1237 C101 1.397 . S
C1256 C104 1.383 . S
C1273 C203 1.398 . S
C1292 C138 1.382 . S
C1309 C172 1.395 . S
C1328 C237 1.391 . S
C1345 C271 1.396 . S
C1364 C206 1.387 . S
C1381 C169 1.397 . S
C1400 C240 1.389 . S
C1417 C274 1.394 . S
C1436 C407 1.393 . S
C1453 C305 1.398 . S
C1472 C308 1.382 . S
C1489 C342 1.394 . S
C1508 C339 1.393 . S
C1525 C376 1.395 . S
C1544 C373 1.392 . S
C1561 C410 1.395 . S
C1580 C475 1.388 . S
C1597 C509 1.395 . S
C1616 C444 1.397 . S
C1633 C543 1.396 . S
C1652 C478 1.388 . S
C1669 C512 1.393 . S
C1688 C441 1.390 . S
C1705 C5 1.608 . S
C1724 C209 1.600 . S
C1741 C243 1.608 . S
C1760 C39 1.602 . S
C1777 C141 1.611 . S
C1796 C73 1.606 . S
C1813 C175 1.608 . S
C1832 C107 1.600 . S
C1849 C277 1.611 . S
C1868 C481 1.610 . S
C1885 C515 1.609 . S
C1904 C311 1.611 . S
C1921 C413 1.608 . S
C1940 C345 1.602 . S
C1957 C379 1.609 . S
C1976 C447 1.600 . S
