# Generated by pormake.
# Topology vby, (6)-cn, num edge types: 1
# Building blocks:
#     Node 0, Type 0, BuildingBlock: INOVEN_clean_sbu_0, # of connection points: 6
#     Node 1, Type 0, BuildingBlock: INOVEN_clean_sbu_0, # of connection points: 6
#     Node 2, Type 0, BuildingBlock: INOVEN_clean_sbu_0, # of connection points: 6
#     Node 3, Type 0, BuildingBlock: INOVEN_clean_sbu_0, # of connection points: 6
#     Node 4, Type 0, BuildingBlock: INOVEN_clean_sbu_0, # of connection points: 6
#     Node 5, Type 0, BuildingBlock: INOVEN_clean_sbu_0, # of connection points: 6
#     Node 6, Type 0, BuildingBlock: INOVEN_clean_sbu_0, # of connection points: 6
#     Node 7, Type 0, BuildingBlock: INOVEN_clean_sbu_0, # of connection points: 6
#     Edge 8, Type (0, 0), BuildingBlock: EYOCIG_clean_linker_4, # of connection points: 2
#     Edge 9, Type (0, 0), BuildingBlock: EYOCIG_clean_linker_4, # of connection points: 2
#     Edge 10, Type (0, 0), BuildingBlock: EYOCIG_clean_linker_4, # of connection points: 2
#     Edge 11, Type (0, 0), BuildingBlock: EYOCIG_clean_linker_4, # of connection points: 2
#     Edge 12, Type (0, 0), BuildingBlock: EYOCIG_clean_linker_4, # of connection points: 2
#     Edge 13, Type (0, 0), BuildingBlock: EYOCIG_clean_linker_4, # of connection points: 2
#     Edge 14, Type (0, 0), BuildingBlock: EYOCIG_clean_linker_4, # of connection points: 2
#     Edge 15, Type (0, 0), BuildingBlock: EYOCIG_clean_linker_4, # of connection points: 2
#     Edge 16, Type (0, 0), BuildingBlock: EYOCIG_clean_linker_4, # of connection points: 2
#     Edge 17, Type (0, 0), BuildingBlock: EYOCIG_clean_linker_4, # of connection points: 2
#     Edge 18, Type (0, 0), BuildingBlock: EYOCIG_clean_linker_4, # of connection points: 2
#     Edge 19, Type (0, 0), BuildingBlock: EYOCIG_clean_linker_4, # of connection points: 2
#     Edge 20, Type (0, 0), BuildingBlock: EYOCIG_clean_linker_4, # of connection points: 2
#     Edge 21, Type (0, 0), BuildingBlock: EYOCIG_clean_linker_4, # of connection points: 2
#     Edge 22, Type (0, 0), BuildingBlock: EYOCIG_clean_linker_4, # of connection points: 2
#     Edge 23, Type (0, 0), BuildingBlock: EYOCIG_clean_linker_4, # of connection points: 2
#     Edge 24, Type (0, 0), BuildingBlock: EYOCIG_clean_linker_4, # of connection points: 2
#     Edge 25, Type (0, 0), BuildingBlock: EYOCIG_clean_linker_4, # of connection points: 2
#     Edge 26, Type (0, 0), BuildingBlock: EYOCIG_clean_linker_4, # of connection points: 2
#     Edge 27, Type (0, 0), BuildingBlock: EYOCIG_clean_linker_4, # of connection points: 2
#     Edge 28, Type (0, 0), BuildingBlock: EYOCIG_clean_linker_4, # of connection points: 2
#     Edge 29, Type (0, 0), BuildingBlock: EYOCIG_clean_linker_4, # of connection points: 2
#     Edge 30, Type (0, 0), BuildingBlock: EYOCIG_clean_linker_4, # of connection points: 2
#     Edge 31, Type (0, 0), BuildingBlock: EYOCIG_clean_linker_4, # of connection points: 2
# Relax obj value: 0.204
# Max RMSD: 0.225
# Mean RMSD: 0.225
data_MOF--net-vby--node1-INOVEN_clean_sbu_0--edge1-EYOCIG_clean_linker_4
_symmetry_space_group_name_H-M    P1
_symmetry_Int_Tables_number       1
_symmetry_cell_setting            triclinic
loop_
_symmetry_equiv_pos_as_xyz
'x, y, z'
_cell_length_a     12.326889
_cell_length_b     90.128639
_cell_length_c     22.556256
_cell_angle_alpha  90.021045
_cell_angle_beta   87.798734
_cell_angle_gamma 89.992335
loop_
_atom_site_label
_atom_site_type_symbol
_atom_site_fract_x
_atom_site_fract_y
_atom_site_fract_z
_atom_type_partial_charge
Gd0 Gd 0.09969 0.41547 0.02759 0.0
Gd1 Gd 0.09741 0.38224 0.02684 0.0
C2 C 0.86916 0.39814 0.02934 0.0
C3 C 0.08028 0.44352 1.00694 0.0
C4 C 1.02386 0.45779 0.01707 0.0
C5 C 1.02227 0.46471 0.07306 0.0
C6 C 0.99569 0.46609 0.96729 0.0
C7 C 0.99446 0.48853 0.02625 0.0
C8 C 0.98109 0.48142 0.97184 0.0
C9 C 1.00767 0.48007 0.07753 0.0
C10 C 0.09899 0.40293 0.13675 0.0
C11 C 0.3276 0.39963 0.02255 0.0
C12 C 0.12295 0.35428 0.04802 0.0
C13 C 0.19439 0.34121 0.0388 0.0
C14 C 0.19947 0.33371 0.98399 0.0
C15 C 0.2406 0.33451 0.08815 0.0
C16 C 0.27315 0.312 0.03139 0.0
C17 C 0.27994 0.31996 0.08444 0.0
C18 C 0.23867 0.31917 0.9804 0.0
C19 C 0.08677 0.39468 0.91886 0.0
O20 O 0.92208 0.41045 0.01519 0.0
O21 O 0.91973 0.38602 0.04596 0.0
O22 O 0.13634 0.43809 0.04992 0.0
O23 O 1.03668 0.43339 0.97379 0.0
O24 O 0.15008 0.415 0.12265 0.0
O25 O 1.04484 0.39858 0.09413 0.0
O26 O 0.27516 0.38738 0.03767 0.0
O27 O 0.27641 0.41169 1.00634 0.0
O28 O 0.07261 0.3594 1.00232 0.0
O29 O 0.15259 0.36468 0.08456 0.0
O30 O 1.03853 0.38245 0.93387 0.0
O31 O 0.14662 0.39914 0.95919 0.0
H32 H 1.04232 0.45856 0.1124 0.0
H33 H 0.99586 0.46099 0.92377 0.0
H34 H 0.96964 0.48783 0.93191 0.0
H35 H 1.0167 0.48544 0.12006 0.0
H36 H 0.16563 0.33859 0.94492 0.0
H37 H 0.23838 0.34005 0.13081 0.0
H38 H 0.30761 0.31459 0.1241 0.0
H39 H 0.23419 0.31317 0.9389 0.0
Gd40 Gd 0.99548 0.66762 0.0333 0.0
Gd41 Gd 0.99328 0.63438 0.03239 0.0
C42 C 0.76534 0.65021 0.0376 0.0
C43 C 0.9697 0.69557 0.01187 0.0
C44 C 0.89824 0.70863 0.02124 0.0
C45 C 0.89333 0.71612 0.07608 0.0
C46 C 0.85176 0.71533 0.97198 0.0
C47 C 0.81924 0.73782 0.02885 0.0
C48 C 0.8123 0.72987 0.97579 0.0
C49 C 0.854 0.73065 0.07976 0.0
C50 C 1.00583 0.65524 0.1413 0.0
C51 C 0.22378 0.65172 0.0308 0.0
C52 C 1.01287 0.60631 0.05258 0.0
C53 C 0.0696 0.59207 0.04212 0.0
C54 C 0.07106 0.58521 0.98603 0.0
C55 C 0.09829 0.58374 0.09172 0.0
C56 C 0.09979 0.56136 0.0324 0.0
C57 C 0.11329 0.56842 0.08689 0.0
C58 C 0.08606 0.56986 0.98128 0.0
C59 C 0.99371 0.64706 0.9234 0.0
O60 O 0.81774 0.66246 0.02253 0.0
O61 O 0.81658 0.63815 0.05376 0.0
O62 O 1.02063 0.69048 0.05743 0.0
O63 O 0.93962 0.68514 0.97557 0.0
O64 O 0.05357 0.6675 0.12635 0.0
O65 O 0.94646 0.65068 0.1009 0.0
O66 O 0.17087 0.63941 0.04486 0.0
O67 O 0.1732 0.66385 0.01425 0.0
O68 O 0.95672 0.61178 1.00972 0.0
O69 O 0.05636 0.61641 0.0859 0.0
O70 O 0.94248 0.63498 0.93731 0.0
O71 O 0.04816 0.65128 0.96607 0.0
H72 H 0.92737 0.71123 0.11509 0.0
H73 H 0.85385 0.7098 0.9293 0.0
H74 H 0.78441 0.73524 0.93618 0.0
H75 H 0.85861 0.73664 0.12127 0.0
H76 H 0.05063 0.59139 0.94682 0.0
H77 H 0.09823 0.5888 0.13531 0.0
H78 H 0.12514 0.56198 0.12669 0.0
H79 H 0.07692 0.56453 0.93869 0.0
Gd80 Gd 0.09744 0.66774 0.5263 0.0
Gd81 Gd 0.09957 0.63449 0.52723 0.0
C82 C 0.32752 0.65032 0.52225 0.0
C83 C 0.12291 0.69569 0.54786 0.0
C84 C 0.19429 0.70877 0.53892 0.0
C85 C 0.19947 0.71632 0.48423 0.0
C86 C 0.24029 0.71543 0.58842 0.0
C87 C 0.27285 0.73799 0.53207 0.0
C88 C 0.27953 0.72999 0.58499 0.0
C89 C 0.23857 0.73087 0.48093 0.0
C90 C 0.08779 0.65533 0.41828 0.0
C91 C 0.86913 0.65185 0.52835 0.0
C92 C 0.0802 0.60641 0.50703 0.0
C93 C 1.02383 0.59216 0.51766 0.0
C94 C 1.02256 0.58534 0.57382 0.0
C95 C 0.99527 0.58378 0.46816 0.0
C96 C 0.99412 0.56144 0.52771 0.0
C97 C 0.9805 0.56845 0.47315 0.0
C98 C 1.0078 0.57 0.57873 0.0
C99 C 0.09824 0.64719 0.63626 0.0
O100 O 0.27511 0.66258 0.53734 0.0
O101 O 0.27631 0.63827 0.50601 0.0
O102 O 0.07274 0.6906 0.50203 0.0
O103 O 0.15248 0.68526 0.58428 0.0
O104 O 1.03997 0.6676 0.43312 0.0
O105 O 0.14684 0.65077 0.45881 0.0
O106 O 0.92209 0.63952 0.5144 0.0
O107 O 0.91962 0.66397 0.54496 0.0
O108 O 0.13674 0.6119 0.54972 0.0
O109 O 1.03616 0.6165 0.47389 0.0
O110 O 0.14951 0.6351 0.62247 0.0
O111 O 1.04423 0.65141 0.59344 0.0
H112 H 0.16578 0.71147 0.44505 0.0
H113 H 0.23799 0.70985 0.63099 0.0
H114 H 0.30705 0.73532 0.62477 0.0
H115 H 0.23418 0.7369 0.43952 0.0
H116 H 1.04291 0.59156 0.61295 0.0
H117 H 0.99518 0.5888 0.42451 0.0
H118 H 0.96868 0.56198 0.43343 0.0
H119 H 1.01703 0.5647 0.62138 0.0
Gd120 Gd 0.9925 0.41552 0.53326 0.0
Gd121 Gd 0.99452 0.38228 0.534 0.0
C122 C 0.22287 0.39816 0.53208 0.0
C123 C 1.01197 0.44359 0.55383 0.0
C124 C 0.06841 0.45784 0.54349 0.0
C125 C 0.06963 0.46474 0.48747 0.0
C126 C 0.09708 0.46616 0.59314 0.0
C127 C 0.09824 0.48857 0.53406 0.0
C128 C 0.11189 0.48149 0.58847 0.0
C129 C 0.08447 0.48009 0.48287 0.0
C130 C 0.9941 0.40295 0.42408 0.0
C131 C 0.76446 0.3997 0.53813 0.0
C132 C 0.96905 0.35432 0.51249 0.0
C133 C 0.89755 0.34125 0.52131 0.0
C134 C 0.89279 0.33362 0.57582 0.0
C135 C 0.85092 0.33467 0.4718 0.0
C136 C 0.81832 0.31205 0.52779 0.0
C137 C 0.81135 0.32013 0.47505 0.0
C138 C 0.85335 0.31909 0.57894 0.0
C139 C 1.00446 0.39473 0.64203 0.0
O140 O 0.16993 0.41048 0.54612 0.0
O141 O 0.17237 0.38604 0.51538 0.0
O142 O 0.95557 0.43814 0.51101 0.0
O143 O 0.05582 0.43346 0.5869 0.0
O144 O 0.94305 0.41505 0.43802 0.0
O145 O 0.04775 0.39861 0.46688 0.0
O146 O 0.81685 0.38745 0.52301 0.0
O147 O 0.8157 0.41176 0.55437 0.0
O148 O 1.01886 0.35942 0.55843 0.0
O149 O 0.93984 0.36475 0.47596 0.0
O150 O 0.05255 0.38247 0.62715 0.0
O151 O 0.94505 0.39921 0.60155 0.0
H152 H 0.04918 0.45857 0.44821 0.0
H153 H 0.09722 0.46108 0.63668 0.0
H154 H 0.12378 0.48791 0.62832 0.0
H155 H 0.07523 0.48544 0.44034 0.0
H156 H 0.92701 0.3384 0.615 0.0
H157 H 0.85292 0.3403 0.42935 0.0
H158 H 0.78327 0.31486 0.43526 0.0
H159 H 0.85801 0.313 0.6202 0.0
Gd160 Gd 0.59977 0.91528 0.0269 0.0
Gd161 Gd 0.59691 0.88205 0.02668 0.0
C162 C 0.36893 0.89799 0.02889 0.0
C163 C 0.58096 0.94333 1.00583 0.0
C164 C 0.52529 0.95762 0.01684 0.0
C165 C 0.52495 0.96441 0.07306 0.0
C166 C 0.49595 0.96603 0.96759 0.0
C167 C 0.4952 0.98833 0.02742 0.0
C168 C 0.481 0.98135 0.97284 0.0
C169 C 0.50997 0.97975 0.07824 0.0
C170 C 0.59875 0.90285 0.13626 0.0
C171 C 0.8273 0.89933 0.0221 0.0
C172 C 0.62192 0.85408 0.04801 0.0
C173 C 0.69392 0.84105 0.03926 0.0
C174 C 0.69929 0.83344 0.9847 0.0
C175 C 0.74052 0.8345 0.08881 0.0
C176 C 0.77409 0.8119 0.03277 0.0
C177 C 0.78058 0.81998 0.08555 0.0
C178 C 0.73921 0.81893 0.98157 0.0
C179 C 0.5864 0.89441 0.91855 0.0
O180 O 0.42204 0.91028 0.01453 0.0
O181 O 0.41931 0.88588 0.0457 0.0
O182 O 0.63909 0.93789 0.04795 0.0
O183 O 0.53507 0.93319 0.97366 0.0
O184 O 0.64973 0.91493 0.12205 0.0
O185 O 0.54466 0.89848 0.09368 0.0
O186 O 0.77465 0.88714 0.03772 0.0
O187 O 0.77626 0.91136 1.00536 0.0
O188 O 0.57282 0.8592 1.0019 0.0
O189 O 0.65035 0.86448 0.08486 0.0
O190 O 0.53773 0.88223 0.93375 0.0
O191 O 0.64639 0.89888 0.9588 0.0
H192 H 0.54598 0.95817 0.112 0.0
H193 H 0.49519 0.96103 0.92391 0.0
H194 H 0.46837 0.98785 0.93327 0.0
H195 H 0.51972 0.98502 0.1209 0.0
H196 H 0.66515 0.8382 0.94548 0.0
H197 H 0.73809 0.84013 0.1313 0.0
H198 H 0.80854 0.81472 0.12538 0.0
H199 H 0.73494 0.81284 0.94027 0.0
Gd200 Gd 0.49431 0.16767 0.03382 0.0
Gd201 Gd 0.49223 0.13442 0.03256 0.0
C202 C 0.26423 0.15026 0.03789 0.0
C203 C 0.4688 0.19564 0.01268 0.0
C204 C 0.39707 0.2087 0.02145 0.0
C205 C 0.39219 0.21635 0.07594 0.0
C206 C 0.35042 0.21526 0.97191 0.0
C207 C 0.3177 0.2379 0.02781 0.0
C208 C 0.31078 0.2298 0.9751 0.0
C209 C 0.35268 0.23088 0.079 0.0
C210 C 0.50446 0.15521 0.14166 0.0
C211 C 0.72266 0.15178 0.03156 0.0
C212 C 0.51149 0.10633 0.0526 0.0
C213 C 0.56767 0.09204 0.0426 0.0
C214 C 0.5691 0.08508 0.98669 0.0
C215 C 0.59574 0.08376 0.09245 0.0
C216 C 0.59689 0.06128 0.03368 0.0
C217 C 0.61024 0.06842 0.08803 0.0
C218 C 0.58363 0.06972 0.98234 0.0
C219 C 0.49306 0.14717 0.92366 0.0
O220 O 0.31659 0.16253 0.02295 0.0
O221 O 0.31548 0.13819 0.05386 0.0
O222 O 0.51809 0.19051 0.05873 0.0
O223 O 0.44018 0.18524 0.97585 0.0
O224 O 0.55235 0.16747 0.12688 0.0
O225 O 0.44517 0.15068 0.10117 0.0
O226 O 0.66975 0.13945 0.04528 0.0
O227 O 0.67216 0.16393 0.01519 0.0
O228 O 0.45619 0.11183 1.00945 0.0
O229 O 0.5546 0.11642 0.08617 0.0
O230 O 0.44172 0.13509 0.93745 0.0
O231 O 0.54732 0.15137 0.96646 0.0
H232 H 0.42642 0.21159 0.11514 0.0
H233 H 0.35251 0.20961 0.92948 0.0
H234 H 0.28275 0.23505 0.93528 0.0
H235 H 0.3573 0.23698 0.12024 0.0
H236 H 0.54909 0.09121 0.94729 0.0
H237 H 0.59568 0.08888 0.13593 0.0
H238 H 0.62175 0.06203 0.128 0.0
H239 H 0.57464 0.06433 0.93985 0.0
Gd240 Gd 0.59692 0.1677 0.52626 0.0
Gd241 Gd 0.59906 0.13445 0.52748 0.0
C242 C 0.82704 0.15028 0.52218 0.0
C243 C 0.62245 0.19567 0.54745 0.0
C244 C 0.69391 0.20874 0.53839 0.0
C245 C 0.69914 0.21626 0.48364 0.0
C246 C 0.73997 0.21543 0.58783 0.0
C247 C 0.77277 0.23795 0.53126 0.0
C248 C 0.77935 0.22997 0.58426 0.0
C249 C 0.73839 0.2308 0.48019 0.0
C250 C 0.58693 0.15523 0.41838 0.0
C251 C 0.36862 0.15181 0.52846 0.0
C252 C 0.57987 0.10637 0.50744 0.0
C253 C 0.52363 0.09209 0.5175 0.0
C254 C 0.52221 0.08516 0.57345 0.0
C255 C 0.49556 0.08378 0.46769 0.0
C256 C 0.49463 0.06134 0.52657 0.0
C257 C 0.48118 0.06844 0.47218 0.0
C258 C 0.50779 0.0698 0.57787 0.0
C259 C 0.59802 0.14721 0.63643 0.0
O260 O 0.77466 0.16255 0.53713 0.0
O261 O 0.7758 0.13821 0.5062 0.0
O262 O 0.57242 0.19054 0.50164 0.0
O263 O 0.65182 0.18527 0.58406 0.0
O264 O 0.53909 0.1675 0.43316 0.0
O265 O 0.64615 0.1507 0.45889 0.0
O266 O 0.42157 0.13947 0.51467 0.0
O267 O 0.41909 0.16395 0.54493 0.0
O268 O 0.63524 0.11187 0.55056 0.0
O269 O 0.53669 0.11645 0.47388 0.0
O270 O 0.64944 0.13514 0.62263 0.0
O271 O 0.54383 0.15141 0.59361 0.0
H272 H 0.6654 0.21139 0.4445 0.0
H273 H 0.73762 0.20987 0.63045 0.0
H274 H 0.80694 0.23532 0.62399 0.0
H275 H 0.73406 0.2368 0.43873 0.0
H276 H 0.54223 0.09131 0.61282 0.0
H277 H 0.4956 0.08888 0.42419 0.0
H278 H 0.46976 0.06203 0.43224 0.0
H279 H 0.51687 0.06443 0.62038 0.0
Gd280 Gd 0.49291 0.91548 0.53282 0.0
Gd281 Gd 0.49498 0.88225 0.53342 0.0
C282 C 0.72332 0.89811 0.53131 0.0
C283 C 0.51254 0.94353 0.5535 0.0
C284 C 0.56904 0.95777 0.54279 0.0
C285 C 0.57021 0.96458 0.48661 0.0
C286 C 0.59793 0.96615 0.59222 0.0
C287 C 0.59922 0.98848 0.5326 0.0
C288 C 0.61291 0.98147 0.58717 0.0
C289 C 0.58523 0.97992 0.48163 0.0
C290 C 0.49433 0.90294 0.42359 0.0
C291 C 0.26492 0.89966 0.53758 0.0
C292 C 0.46926 0.85429 0.51204 0.0
C293 C 0.39756 0.84125 0.52121 0.0
C294 C 0.39291 0.83369 0.57587 0.0
C295 C 0.35051 0.83463 0.47191 0.0
C296 C 0.31781 0.81208 0.52834 0.0
C297 C 0.31067 0.82011 0.47548 0.0
C298 C 0.35321 0.81917 0.57931 0.0
C299 C 0.50505 0.89466 0.6415 0.0
O300 O 0.67039 0.91042 0.54553 0.0
O301 O 0.67276 0.88601 0.51454 0.0
O302 O 0.45536 0.93809 0.51098 0.0
O303 O 0.55699 0.93339 0.58628 0.0
O304 O 0.44337 0.91504 0.4376 0.0
O305 O 0.54806 0.89859 0.46633 0.0
O306 O 0.31735 0.88742 0.52234 0.0
O307 O 0.31614 0.9117 0.55399 0.0
O308 O 0.51966 0.85939 0.55777 0.0
O309 O 0.43976 0.86471 0.47556 0.0
O310 O 0.55322 0.88242 0.62651 0.0
O311 O 0.44551 0.89915 0.60109 0.0
H312 H 0.54959 0.95836 0.44752 0.0
H313 H 0.59812 0.96114 0.63588 0.0
H314 H 0.62496 0.98795 0.62686 0.0
H315 H 0.57594 0.98521 0.43898 0.0
H316 H 0.42742 0.8385 0.6149 0.0
H317 H 0.3524 0.84022 0.42936 0.0
H318 H 0.28232 0.81481 0.43583 0.0
H319 H 0.358 0.81313 0.62067 0.0
C320 C 0.54143 0.39926 0.02428 0.0
C321 C 0.44385 0.39967 0.02318 0.0
C322 C 0.65551 0.3986 0.02655 0.0
C323 C 0.75302 0.39816 0.02811 0.0
C324 C 0.43744 0.65125 0.03352 0.0
C325 C 0.33992 0.65169 0.03199 0.0
C326 C 0.55152 0.65058 0.0358 0.0
C327 C 0.6491 0.65016 0.03694 0.0
C328 C 0.65547 0.65136 0.52578 0.0
C329 C 0.75299 0.6518 0.52723 0.0
C330 C 0.54137 0.6507 0.52373 0.0
C331 C 0.44378 0.65029 0.52274 0.0
C332 C 0.55061 0.39932 0.53683 0.0
C333 C 0.6482 0.39974 0.53774 0.0
C334 C 0.43651 0.39864 0.53479 0.0
C335 C 0.339 0.3982 0.53327 0.0
C336 C 1.04115 0.89899 0.02383 0.0
C337 C 0.94355 0.89936 0.02275 0.0
C338 C 0.15526 0.89841 0.02605 0.0
C339 C 0.25279 0.89803 0.02759 0.0
C340 C 0.05038 0.15065 0.0365 0.0
C341 C 0.14798 0.15023 0.03745 0.0
C342 C 0.93629 0.15131 0.03439 0.0
C343 C 0.83878 0.15175 0.03282 0.0
C344 C 0.15499 0.15133 0.52564 0.0
C345 C 0.25249 0.15177 0.5272 0.0
C346 C 1.04089 0.15066 0.52353 0.0
C347 C 0.9433 0.15025 0.52261 0.0
C348 C 0.93699 0.8986 0.5339 0.0
C349 C 0.83947 0.89815 0.53243 0.0
C350 C 0.05108 0.89928 0.53601 0.0
C351 C 0.14867 0.8997 0.53705 0.0
C352 C 0.06144 0.53252 0.02968 0.0
C353 C 0.07896 0.54566 0.03107 0.0
C354 C 1.03332 0.51736 0.02866 0.0
C355 C 1.01557 0.50422 0.02739 0.0
C356 C 0.06013 0.51742 0.53162 0.0
C357 C 0.07754 0.50428 0.53288 0.0
C358 C 1.03234 0.5326 0.53064 0.0
C359 C 1.0149 0.54574 0.52922 0.0
C360 C 0.53191 1.01721 0.03058 0.0
C361 C 0.51517 1.00405 0.0291 0.0
C362 C 0.55911 0.03241 0.03151 0.0
C363 C 0.57636 0.04557 0.03263 0.0
C364 C 0.53336 0.0325 0.52882 0.0
C365 C 0.51568 0.04564 0.52766 0.0
C366 C 0.56124 1.01732 0.5297 0.0
C367 C 0.57856 1.00418 0.53108 0.0
C368 C 0.29325 0.28277 0.02991 0.0
C369 C 0.28444 0.29609 0.03138 0.0
C370 C 0.29707 0.26712 0.02848 0.0
C371 C 0.30605 0.2538 0.02723 0.0
C372 C 0.79507 0.78269 0.03195 0.0
C373 C 0.78592 0.79601 0.03327 0.0
C374 C 0.79897 0.76704 0.03045 0.0
C375 C 0.80785 0.75373 0.02891 0.0
C376 C 0.2929 0.76722 0.53097 0.0
C377 C 0.28413 0.7539 0.53232 0.0
C378 C 0.2968 0.78287 0.52952 0.0
C379 C 0.30598 0.79619 0.52809 0.0
C380 C 0.79735 0.28283 0.52856 0.0
C381 C 0.8065 0.29615 0.52729 0.0
C382 C 0.79328 0.26717 0.52996 0.0
C383 C 0.78427 0.25386 0.53136 0.0
C384 C 0.05728 0.39667 0.24948 0.0
C385 C 0.07316 0.39899 0.19726 0.0
C386 C 1.0367 0.39667 0.31145 0.0
C387 C 1.02046 0.39899 0.36365 0.0
C388 C 1.0333 0.64582 0.2497 0.0
C389 C 1.01346 0.64879 0.19914 0.0
C390 C 0.0608 0.64584 0.3099 0.0
C391 C 0.08041 0.64884 0.36046 0.0
C392 C 1.03519 0.65347 0.81081 0.0
C393 C 1.01945 0.65109 0.86298 0.0
C394 C 0.05562 0.65351 0.74884 0.0
C395 C 0.07178 0.65119 0.69664 0.0
C396 C 1.03142 0.40419 0.75042 0.0
C397 C 1.0117 0.40121 0.69985 0.0
C398 C 0.05913 0.40418 0.81059 0.0
C399 C 0.07913 0.40117 0.86108 0.0
C400 C 0.55716 0.89663 0.24901 0.0
C401 C 0.573 0.89893 0.19678 0.0
C402 C 0.53665 0.89665 0.31096 0.0
C403 C 0.5205 0.89898 0.36316 0.0
C404 C 0.53185 0.1457 0.24994 0.0
C405 C 0.51201 0.1487 0.19941 0.0
C406 C 0.55951 0.1457 0.31011 0.0
C407 C 0.57937 0.14871 0.36063 0.0
C408 C 0.53514 0.15353 0.81105 0.0
C409 C 0.51921 0.15118 0.86326 0.0
C410 C 0.55557 0.15354 0.74905 0.0
C411 C 0.57165 0.15121 0.69684 0.0
C412 C 0.53154 0.90401 0.75007 0.0
C413 C 0.512 0.90108 0.69943 0.0
C414 C 0.55901 0.90392 0.81026 0.0
C415 C 0.57882 0.90088 0.86075 0.0
loop_
_geom_bond_atom_site_label_1
_geom_bond_atom_site_label_2
_geom_bond_distance
_geom_bond_site_symmetry_2
_ccdc_geom_bond_type
Gd0 C3 2.818 1_455 S
Gd0 O20 2.377 1_455 S
Gd0 O22 2.448 . S
Gd0 O23 2.506 1_554 S
Gd0 O24 2.435 . S
Gd0 O25 2.717 . S
Gd0 O27 2.395 . S
Gd0 O31 2.327 1_554 S
Gd1 C12 2.818 . S
Gd1 O21 2.395 1_455 S
Gd1 O25 2.327 . S
Gd1 O26 2.377 1_554 S
Gd1 O28 2.448 1_554 S
Gd1 O29 2.506 . S
Gd1 O30 2.435 1_554 S
Gd1 O31 2.717 1_554 S
C2 O20 1.240 . S
C2 O21 1.240 . S
C3 Gd0 2.818 1_655 S
C3 C4 1.510 . S
C3 O22 1.249 1_655 S
C3 O23 1.252 1_654 S
C4 C3 1.510 . S
C4 C5 1.404 . S
C4 C6 1.352 1_554 S
C5 C4 1.404 . S
C5 C9 1.389 . S
C5 H32 0.930 . S
C6 C4 1.352 1_556 S
C6 C8 1.374 . S
C6 H33 0.931 . S
C7 C8 1.359 . S
C7 C9 1.364 1_556 S
C8 C6 1.374 . S
C8 C7 1.359 . S
C8 H34 0.931 . S
C9 C5 1.389 . S
C9 C7 1.364 1_554 S
C9 H35 0.931 . S
C10 O24 1.256 . S
C10 O25 1.257 . S
C11 O26 1.240 1_554 S
C11 O27 1.240 . S
C12 Gd1 2.818 . S
C12 C13 1.510 . S
C12 O28 1.249 1_554 S
C12 O29 1.252 . S
C13 C12 1.510 . S
C13 C14 1.404 1_554 S
C13 C15 1.352 . S
C14 C13 1.404 1_556 S
C14 C18 1.389 . S
C14 H36 0.930 . S
C15 C13 1.352 . S
C15 C17 1.374 . S
C15 H37 0.931 . S
C16 C17 1.359 . S
C16 C18 1.364 1_554 S
C17 C15 1.374 . S
C17 C16 1.359 . S
C17 H38 0.931 . S
C18 C14 1.389 . S
C18 C16 1.364 1_556 S
C18 H39 0.931 . S
C19 O30 1.256 . S
C19 O31 1.257 . S
O20 Gd0 2.377 1_655 S
O20 C2 1.240 . S
O21 Gd1 2.395 1_655 S
O21 C2 1.240 . S
O22 Gd0 2.448 . S
O22 C3 1.249 1_455 S
O23 Gd0 2.506 1_556 S
O23 C3 1.252 1_456 S
O24 Gd0 2.435 . S
O24 C10 1.256 . S
O25 Gd0 2.717 . S
O25 Gd1 2.327 . S
O25 C10 1.257 . S
O26 Gd1 2.377 1_556 S
O26 C11 1.240 1_556 S
O27 Gd0 2.395 . S
O27 C11 1.240 . S
O28 Gd1 2.448 1_556 S
O28 C12 1.249 1_556 S
O29 Gd1 2.506 . S
O29 C12 1.252 . S
O30 Gd1 2.435 1_556 S
O30 C19 1.256 . S
O31 Gd0 2.327 1_556 S
O31 Gd1 2.717 1_556 S
O31 C19 1.257 . S
H32 C5 0.930 . S
H33 C6 0.931 . S
H34 C8 0.931 . S
H35 C9 0.931 . S
H36 C14 0.930 . S
H37 C15 0.931 . S
H38 C17 0.931 . S
H39 C18 0.931 . S
Gd40 C43 2.818 . S
Gd40 O60 2.377 . S
Gd40 O62 2.448 . S
Gd40 O63 2.506 1_554 S
Gd40 O64 2.435 . S
Gd40 O65 2.717 . S
Gd40 O67 2.395 1_655 S
Gd40 O71 2.327 1_554 S
Gd41 C52 2.818 1_655 S
Gd41 O61 2.395 . S
Gd41 O65 2.327 . S
Gd41 O66 2.377 1_654 S
Gd41 O68 2.448 1_554 S
Gd41 O69 2.506 . S
Gd41 O70 2.435 1_554 S
Gd41 O71 2.717 1_554 S
C42 O60 1.240 . S
C42 O61 1.240 . S
C43 Gd40 2.818 . S
C43 C44 1.510 . S
C43 O62 1.249 . S
C43 O63 1.252 1_554 S
C44 C43 1.510 . S
C44 C45 1.404 . S
C44 C46 1.352 1_554 S
C45 C44 1.404 . S
C45 C49 1.389 . S
C45 H72 0.930 . S
C46 C44 1.352 1_556 S
C46 C48 1.374 . S
C46 H73 0.931 . S
C47 C48 1.359 1_554 S
C47 C49 1.364 . S
C48 C46 1.374 . S
C48 C47 1.359 1_556 S
C48 H74 0.931 . S
C49 C45 1.389 . S
C49 C47 1.364 . S
C49 H75 0.931 . S
C50 O64 1.256 . S
C50 O65 1.257 . S
C51 O66 1.240 1_554 S
C51 O67 1.240 . S
C52 Gd41 2.818 1_455 S
C52 C53 1.510 . S
C52 O68 1.249 1_454 S
C52 O69 1.252 1_455 S
C53 C52 1.510 . S
C53 C54 1.404 1_554 S
C53 C55 1.352 . S
C54 C53 1.404 1_556 S
C54 C58 1.389 . S
C54 H76 0.930 . S
C55 C53 1.352 . S
C55 C57 1.374 . S
C55 H77 0.931 . S
C56 C57 1.359 . S
C56 C58 1.364 1_554 S
C57 C55 1.374 . S
C57 C56 1.359 . S
C57 H78 0.931 . S
C58 C54 1.389 . S
C58 C56 1.364 1_556 S
C58 H79 0.931 . S
C59 O70 1.256 . S
C59 O71 1.257 . S
O60 Gd40 2.377 . S
O60 C42 1.240 . S
O61 Gd41 2.395 . S
O61 C42 1.240 . S
O62 Gd40 2.448 . S
O62 C43 1.249 . S
O63 Gd40 2.506 1_556 S
O63 C43 1.252 1_556 S
O64 Gd40 2.435 . S
O64 C50 1.256 . S
O65 Gd40 2.717 . S
O65 Gd41 2.327 . S
O65 C50 1.257 . S
O66 Gd41 2.377 1_456 S
O66 C51 1.240 1_556 S
O67 Gd40 2.395 1_455 S
O67 C51 1.240 . S
O68 Gd41 2.448 1_556 S
O68 C52 1.249 1_656 S
O69 Gd41 2.506 . S
O69 C52 1.252 1_655 S
O70 Gd41 2.435 1_556 S
O70 C59 1.256 . S
O71 Gd40 2.327 1_556 S
O71 Gd41 2.717 1_556 S
O71 C59 1.257 . S
H72 C45 0.930 . S
H73 C46 0.931 . S
H74 C48 0.931 . S
H75 C49 0.931 . S
H76 C54 0.930 . S
H77 C55 0.931 . S
H78 C57 0.931 . S
H79 C58 0.931 . S
Gd80 C83 2.818 . S
Gd80 O100 2.377 . S
Gd80 O102 2.448 . S
Gd80 O103 2.506 . S
Gd80 O104 2.435 . S
Gd80 O105 2.717 . S
Gd80 O107 2.395 1_455 S
Gd80 O111 2.327 . S
Gd81 C92 2.818 1_455 S
Gd81 O101 2.395 . S
Gd81 O105 2.327 . S
Gd81 O106 2.377 1_455 S
Gd81 O108 2.448 . S
Gd81 O109 2.506 . S
Gd81 O110 2.435 . S
Gd81 O111 2.717 . S
C82 O100 1.240 . S
C82 O101 1.240 . S
C83 Gd80 2.818 . S
C83 C84 1.510 . S
C83 O102 1.249 . S
C83 O103 1.252 . S
C84 C83 1.510 . S
C84 C85 1.404 . S
C84 C86 1.352 . S
C85 C84 1.404 . S
C85 C89 1.389 . S
C85 H112 0.930 . S
C86 C84 1.352 . S
C86 C88 1.374 . S
C86 H113 0.931 . S
C87 C88 1.359 . S
C87 C89 1.364 . S
C88 C86 1.374 . S
C88 C87 1.359 . S
C88 H114 0.931 . S
C89 C85 1.389 . S
C89 C87 1.364 . S
C89 H115 0.931 . S
C90 O104 1.256 . S
C90 O105 1.257 . S
C91 O106 1.240 . S
C91 O107 1.240 . S
C92 Gd81 2.818 1_655 S
C92 C93 1.510 . S
C92 O108 1.249 1_655 S
C92 O109 1.252 1_655 S
C93 C92 1.510 . S
C93 C94 1.404 . S
C93 C95 1.352 . S
C94 C93 1.404 . S
C94 C98 1.389 . S
C94 H116 0.930 . S
C95 C93 1.352 . S
C95 C97 1.374 . S
C95 H117 0.931 . S
C96 C97 1.359 . S
C96 C98 1.364 . S
C97 C95 1.374 . S
C97 C96 1.359 . S
C97 H118 0.931 . S
C98 C94 1.389 . S
C98 C96 1.364 . S
C98 H119 0.931 . S
C99 O110 1.256 . S
C99 O111 1.257 . S
O100 Gd80 2.377 . S
O100 C82 1.240 . S
O101 Gd81 2.395 . S
O101 C82 1.240 . S
O102 Gd80 2.448 . S
O102 C83 1.249 . S
O103 Gd80 2.506 . S
O103 C83 1.252 . S
O104 Gd80 2.435 . S
O104 C90 1.256 . S
O105 Gd80 2.717 . S
O105 Gd81 2.327 . S
O105 C90 1.257 . S
O106 Gd81 2.377 1_655 S
O106 C91 1.240 . S
O107 Gd80 2.395 1_655 S
O107 C91 1.240 . S
O108 Gd81 2.448 . S
O108 C92 1.249 1_455 S
O109 Gd81 2.506 . S
O109 C92 1.252 1_455 S
O110 Gd81 2.435 . S
O110 C99 1.256 . S
O111 Gd80 2.327 . S
O111 Gd81 2.717 . S
O111 C99 1.257 . S
H112 C85 0.930 . S
H113 C86 0.931 . S
H114 C88 0.931 . S
H115 C89 0.931 . S
H116 C94 0.930 . S
H117 C95 0.931 . S
H118 C97 0.931 . S
H119 C98 0.931 . S
Gd120 C123 2.818 1_655 S
Gd120 O140 2.377 1_655 S
Gd120 O142 2.448 . S
Gd120 O143 2.506 . S
Gd120 O144 2.435 . S
Gd120 O145 2.717 . S
Gd120 O147 2.395 . S
Gd120 O151 2.327 . S
Gd121 C132 2.818 . S
Gd121 O141 2.395 1_655 S
Gd121 O145 2.327 . S
Gd121 O146 2.377 . S
Gd121 O148 2.448 . S
Gd121 O149 2.506 . S
Gd121 O150 2.435 . S
Gd121 O151 2.717 . S
C122 O140 1.240 . S
C122 O141 1.240 . S
C123 Gd120 2.818 1_455 S
C123 C124 1.510 . S
C123 O142 1.249 1_455 S
C123 O143 1.252 1_455 S
C124 C123 1.510 . S
C124 C125 1.404 . S
C124 C126 1.352 . S
C125 C124 1.404 . S
C125 C129 1.389 . S
C125 H152 0.930 . S
C126 C124 1.352 . S
C126 C128 1.374 . S
C126 H153 0.931 . S
C127 C128 1.359 . S
C127 C129 1.364 . S
C128 C126 1.374 . S
C128 C127 1.359 . S
C128 H154 0.931 . S
C129 C125 1.389 . S
C129 C127 1.364 . S
C129 H155 0.931 . S
C130 O144 1.256 . S
C130 O145 1.257 . S
C131 O146 1.240 . S
C131 O147 1.240 . S
C132 Gd121 2.818 . S
C132 C133 1.510 . S
C132 O148 1.249 . S
C132 O149 1.252 . S
C133 C132 1.510 . S
C133 C134 1.404 . S
C133 C135 1.352 . S
C134 C133 1.404 . S
C134 C138 1.389 . S
C134 H156 0.930 . S
C135 C133 1.352 . S
C135 C137 1.374 . S
C135 H157 0.931 . S
C136 C137 1.359 . S
C136 C138 1.364 . S
C137 C135 1.374 . S
C137 C136 1.359 . S
C137 H158 0.931 . S
C138 C134 1.389 . S
C138 C136 1.364 . S
C138 H159 0.931 . S
C139 O150 1.256 . S
C139 O151 1.257 . S
O140 Gd120 2.377 1_455 S
O140 C122 1.240 . S
O141 Gd121 2.395 1_455 S
O141 C122 1.240 . S
O142 Gd120 2.448 . S
O142 C123 1.249 1_655 S
O143 Gd120 2.506 . S
O143 C123 1.252 1_655 S
O144 Gd120 2.435 . S
O144 C130 1.256 . S
O145 Gd120 2.717 . S
O145 Gd121 2.327 . S
O145 C130 1.257 . S
O146 Gd121 2.377 . S
O146 C131 1.240 . S
O147 Gd120 2.395 . S
O147 C131 1.240 . S
O148 Gd121 2.448 . S
O148 C132 1.249 . S
O149 Gd121 2.506 . S
O149 C132 1.252 . S
O150 Gd121 2.435 . S
O150 C139 1.256 . S
O151 Gd120 2.327 . S
O151 Gd121 2.717 . S
O151 C139 1.257 . S
H152 C125 0.930 . S
H153 C126 0.931 . S
H154 C128 0.931 . S
H155 C129 0.931 . S
H156 C134 0.930 . S
H157 C135 0.931 . S
H158 C137 0.931 . S
H159 C138 0.931 . S
Gd160 C163 2.818 . S
Gd160 O180 2.377 . S
Gd160 O182 2.448 . S
Gd160 O183 2.506 1_554 S
Gd160 O184 2.435 . S
Gd160 O185 2.717 . S
Gd160 O187 2.395 . S
Gd160 O191 2.327 1_554 S
Gd161 C172 2.818 . S
Gd161 O181 2.395 . S
Gd161 O185 2.327 . S
Gd161 O186 2.377 1_554 S
Gd161 O188 2.448 1_554 S
Gd161 O189 2.506 . S
Gd161 O190 2.435 1_554 S
Gd161 O191 2.717 1_554 S
C162 O180 1.240 . S
C162 O181 1.240 . S
C163 Gd160 2.818 . S
C163 C164 1.510 . S
C163 O182 1.249 . S
C163 O183 1.252 1_554 S
C164 C163 1.510 . S
C164 C165 1.404 . S
C164 C166 1.352 1_554 S
C165 C164 1.404 . S
C165 C169 1.389 . S
C165 H192 0.930 . S
C166 C164 1.352 1_556 S
C166 C168 1.374 . S
C166 H193 0.931 . S
C167 C168 1.359 . S
C167 C169 1.364 1_556 S
C168 C166 1.374 . S
C168 C167 1.359 . S
C168 H194 0.931 . S
C169 C165 1.389 . S
C169 C167 1.364 1_554 S
C169 H195 0.931 . S
C170 O184 1.256 . S
C170 O185 1.257 . S
C171 O186 1.240 1_554 S
C171 O187 1.240 . S
C172 Gd161 2.818 . S
C172 C173 1.510 . S
C172 O188 1.249 1_554 S
C172 O189 1.252 . S
C173 C172 1.510 . S
C173 C174 1.404 1_554 S
C173 C175 1.352 . S
C174 C173 1.404 1_556 S
C174 C178 1.389 . S
C174 H196 0.930 . S
C175 C173 1.352 . S
C175 C177 1.374 . S
C175 H197 0.931 . S
C176 C177 1.359 . S
C176 C178 1.364 1_554 S
C177 C175 1.374 . S
C177 C176 1.359 . S
C177 H198 0.931 . S
C178 C174 1.389 . S
C178 C176 1.364 1_556 S
C178 H199 0.931 . S
C179 O190 1.256 . S
C179 O191 1.257 . S
O180 Gd160 2.377 . S
O180 C162 1.240 . S
O181 Gd161 2.395 . S
O181 C162 1.240 . S
O182 Gd160 2.448 . S
O182 C163 1.249 . S
O183 Gd160 2.506 1_556 S
O183 C163 1.252 1_556 S
O184 Gd160 2.435 . S
O184 C170 1.256 . S
O185 Gd160 2.717 . S
O185 Gd161 2.327 . S
O185 C170 1.257 . S
O186 Gd161 2.377 1_556 S
O186 C171 1.240 1_556 S
O187 Gd160 2.395 . S
O187 C171 1.240 . S
O188 Gd161 2.448 1_556 S
O188 C172 1.249 1_556 S
O189 Gd161 2.506 . S
O189 C172 1.252 . S
O190 Gd161 2.435 1_556 S
O190 C179 1.256 . S
O191 Gd160 2.327 1_556 S
O191 Gd161 2.717 1_556 S
O191 C179 1.257 . S
H192 C165 0.930 . S
H193 C166 0.931 . S
H194 C168 0.931 . S
H195 C169 0.931 . S
H196 C174 0.930 . S
H197 C175 0.931 . S
H198 C177 0.931 . S
H199 C178 0.931 . S
Gd200 C203 2.818 . S
Gd200 O220 2.377 . S
Gd200 O222 2.448 . S
Gd200 O223 2.506 1_554 S
Gd200 O224 2.435 . S
Gd200 O225 2.717 . S
Gd200 O227 2.395 . S
Gd200 O231 2.327 1_554 S
Gd201 C212 2.818 . S
Gd201 O221 2.395 . S
Gd201 O225 2.327 . S
Gd201 O226 2.377 1_554 S
Gd201 O228 2.448 1_554 S
Gd201 O229 2.506 . S
Gd201 O230 2.435 1_554 S
Gd201 O231 2.717 1_554 S
C202 O220 1.240 . S
C202 O221 1.240 . S
C203 Gd200 2.818 . S
C203 C204 1.510 . S
C203 O222 1.249 . S
C203 O223 1.252 1_554 S
C204 C203 1.510 . S
C204 C205 1.404 . S
C204 C206 1.352 1_554 S
C205 C204 1.404 . S
C205 C209 1.389 . S
C205 H232 0.930 . S
C206 C204 1.352 1_556 S
C206 C208 1.374 . S
C206 H233 0.931 . S
C207 C208 1.359 1_554 S
C207 C209 1.364 . S
C208 C206 1.374 . S
C208 C207 1.359 1_556 S
C208 H234 0.931 . S
C209 C205 1.389 . S
C209 C207 1.364 . S
C209 H235 0.931 . S
C210 O224 1.256 . S
C210 O225 1.257 . S
C211 O226 1.240 1_554 S
C211 O227 1.240 . S
C212 Gd201 2.818 . S
C212 C213 1.510 . S
C212 O228 1.249 1_554 S
C212 O229 1.252 . S
C213 C212 1.510 . S
C213 C214 1.404 1_554 S
C213 C215 1.352 . S
C214 C213 1.404 1_556 S
C214 C218 1.389 . S
C214 H236 0.930 . S
C215 C213 1.352 . S
C215 C217 1.374 . S
C215 H237 0.931 . S
C216 C217 1.359 . S
C216 C218 1.364 1_554 S
C217 C215 1.374 . S
C217 C216 1.359 . S
C217 H238 0.931 . S
C218 C214 1.389 . S
C218 C216 1.364 1_556 S
C218 H239 0.931 . S
C219 O230 1.256 . S
C219 O231 1.257 . S
O220 Gd200 2.377 . S
O220 C202 1.240 . S
O221 Gd201 2.395 . S
O221 C202 1.240 . S
O222 Gd200 2.448 . S
O222 C203 1.249 . S
O223 Gd200 2.506 1_556 S
O223 C203 1.252 1_556 S
O224 Gd200 2.435 . S
O224 C210 1.256 . S
O225 Gd200 2.717 . S
O225 Gd201 2.327 . S
O225 C210 1.257 . S
O226 Gd201 2.377 1_556 S
O226 C211 1.240 1_556 S
O227 Gd200 2.395 . S
O227 C211 1.240 . S
O228 Gd201 2.448 1_556 S
O228 C212 1.249 1_556 S
O229 Gd201 2.506 . S
O229 C212 1.252 . S
O230 Gd201 2.435 1_556 S
O230 C219 1.256 . S
O231 Gd200 2.327 1_556 S
O231 Gd201 2.717 1_556 S
O231 C219 1.257 . S
H232 C205 0.930 . S
H233 C206 0.931 . S
H234 C208 0.931 . S
H235 C209 0.931 . S
H236 C214 0.930 . S
H237 C215 0.931 . S
H238 C217 0.931 . S
H239 C218 0.931 . S
Gd240 C243 2.818 . S
Gd240 O260 2.377 . S
Gd240 O262 2.448 . S
Gd240 O263 2.506 . S
Gd240 O264 2.435 . S
Gd240 O265 2.717 . S
Gd240 O267 2.395 . S
Gd240 O271 2.327 . S
Gd241 C252 2.818 . S
Gd241 O261 2.395 . S
Gd241 O265 2.327 . S
Gd241 O266 2.377 . S
Gd241 O268 2.448 . S
Gd241 O269 2.506 . S
Gd241 O270 2.435 . S
Gd241 O271 2.717 . S
C242 O260 1.240 . S
C242 O261 1.240 . S
C243 Gd240 2.818 . S
C243 C244 1.510 . S
C243 O262 1.249 . S
C243 O263 1.252 . S
C244 C243 1.510 . S
C244 C245 1.404 . S
C244 C246 1.352 . S
C245 C244 1.404 . S
C245 C249 1.389 . S
C245 H272 0.930 . S
C246 C244 1.352 . S
C246 C248 1.374 . S
C246 H273 0.931 . S
C247 C248 1.359 . S
C247 C249 1.364 . S
C248 C246 1.374 . S
C248 C247 1.359 . S
C248 H274 0.931 . S
C249 C245 1.389 . S
C249 C247 1.364 . S
C249 H275 0.931 . S
C250 O264 1.256 . S
C250 O265 1.257 . S
C251 O266 1.240 . S
C251 O267 1.240 . S
C252 Gd241 2.818 . S
C252 C253 1.510 . S
C252 O268 1.249 . S
C252 O269 1.252 . S
C253 C252 1.510 . S
C253 C254 1.404 . S
C253 C255 1.352 . S
C254 C253 1.404 . S
C254 C258 1.389 . S
C254 H276 0.930 . S
C255 C253 1.352 . S
C255 C257 1.374 . S
C255 H277 0.931 . S
C256 C257 1.359 . S
C256 C258 1.364 . S
C257 C255 1.374 . S
C257 C256 1.359 . S
C257 H278 0.931 . S
C258 C254 1.389 . S
C258 C256 1.364 . S
C258 H279 0.931 . S
C259 O270 1.256 . S
C259 O271 1.257 . S
O260 Gd240 2.377 . S
O260 C242 1.240 . S
O261 Gd241 2.395 . S
O261 C242 1.240 . S
O262 Gd240 2.448 . S
O262 C243 1.249 . S
O263 Gd240 2.506 . S
O263 C243 1.252 . S
O264 Gd240 2.435 . S
O264 C250 1.256 . S
O265 Gd240 2.717 . S
O265 Gd241 2.327 . S
O265 C250 1.257 . S
O266 Gd241 2.377 . S
O266 C251 1.240 . S
O267 Gd240 2.395 . S
O267 C251 1.240 . S
O268 Gd241 2.448 . S
O268 C252 1.249 . S
O269 Gd241 2.506 . S
O269 C252 1.252 . S
O270 Gd241 2.435 . S
O270 C259 1.256 . S
O271 Gd240 2.327 . S
O271 Gd241 2.717 . S
O271 C259 1.257 . S
H272 C245 0.930 . S
H273 C246 0.931 . S
H274 C248 0.931 . S
H275 C249 0.931 . S
H276 C254 0.930 . S
H277 C255 0.931 . S
H278 C257 0.931 . S
H279 C258 0.931 . S
Gd280 C283 2.818 . S
Gd280 O300 2.377 . S
Gd280 O302 2.448 . S
Gd280 O303 2.506 . S
Gd280 O304 2.435 . S
Gd280 O305 2.717 . S
Gd280 O307 2.395 . S
Gd280 O311 2.327 . S
Gd281 C292 2.818 . S
Gd281 O301 2.395 . S
Gd281 O305 2.327 . S
Gd281 O306 2.377 . S
Gd281 O308 2.448 . S
Gd281 O309 2.506 . S
Gd281 O310 2.435 . S
Gd281 O311 2.717 . S
C282 O300 1.240 . S
C282 O301 1.240 . S
C283 Gd280 2.818 . S
C283 C284 1.510 . S
C283 O302 1.249 . S
C283 O303 1.252 . S
C284 C283 1.510 . S
C284 C285 1.404 . S
C284 C286 1.352 . S
C285 C284 1.404 . S
C285 C289 1.389 . S
C285 H312 0.930 . S
C286 C284 1.352 . S
C286 C288 1.374 . S
C286 H313 0.931 . S
C287 C288 1.359 . S
C287 C289 1.364 . S
C288 C286 1.374 . S
C288 C287 1.359 . S
C288 H314 0.931 . S
C289 C285 1.389 . S
C289 C287 1.364 . S
C289 H315 0.931 . S
C290 O304 1.256 . S
C290 O305 1.257 . S
C291 O306 1.240 . S
C291 O307 1.240 . S
C292 Gd281 2.818 . S
C292 C293 1.510 . S
C292 O308 1.249 . S
C292 O309 1.252 . S
C293 C292 1.510 . S
C293 C294 1.404 . S
C293 C295 1.352 . S
C294 C293 1.404 . S
C294 C298 1.389 . S
C294 H316 0.930 . S
C295 C293 1.352 . S
C295 C297 1.374 . S
C295 H317 0.931 . S
C296 C297 1.359 . S
C296 C298 1.364 . S
C297 C295 1.374 . S
C297 C296 1.359 . S
C297 H318 0.931 . S
C298 C294 1.389 . S
C298 C296 1.364 . S
C298 H319 0.931 . S
C299 O310 1.256 . S
C299 O311 1.257 . S
O300 Gd280 2.377 . S
O300 C282 1.240 . S
O301 Gd281 2.395 . S
O301 C282 1.240 . S
O302 Gd280 2.448 . S
O302 C283 1.249 . S
O303 Gd280 2.506 . S
O303 C283 1.252 . S
O304 Gd280 2.435 . S
O304 C290 1.256 . S
O305 Gd280 2.717 . S
O305 Gd281 2.327 . S
O305 C290 1.257 . S
O306 Gd281 2.377 . S
O306 C291 1.240 . S
O307 Gd280 2.395 . S
O307 C291 1.240 . S
O308 Gd281 2.448 . S
O308 C292 1.249 . S
O309 Gd281 2.506 . S
O309 C292 1.252 . S
O310 Gd281 2.435 . S
O310 C299 1.256 . S
O311 Gd280 2.327 . S
O311 Gd281 2.717 . S
O311 C299 1.257 . S
H312 C285 0.930 . S
H313 C286 0.931 . S
H314 C288 0.931 . S
H315 C289 0.931 . S
H316 C294 0.930 . S
H317 C295 0.931 . S
H318 C297 0.931 . S
H319 C298 0.931 . S
C320 C321 1.170 . S
C320 C322 1.380 . S
C321 C320 1.170 . S
C322 C320 1.380 . S
C322 C323 1.170 . S
C323 C322 1.170 . S
C324 C325 1.170 . S
C324 C326 1.380 . S
C325 C324 1.170 . S
C326 C324 1.380 . S
C326 C327 1.170 . S
C327 C326 1.170 . S
C328 C329 1.170 . S
C328 C330 1.380 . S
C329 C328 1.170 . S
C330 C328 1.380 . S
C330 C331 1.170 . S
C331 C330 1.170 . S
C332 C333 1.170 . S
C332 C334 1.380 . S
C333 C332 1.170 . S
C334 C332 1.380 . S
C334 C335 1.170 . S
C335 C334 1.170 . S
C336 C337 1.170 1_455 S
C336 C338 1.380 . S
C337 C336 1.170 1_655 S
C338 C336 1.380 . S
C338 C339 1.170 . S
C339 C338 1.170 . S
C340 C341 1.170 1_655 S
C340 C342 1.380 . S
C341 C340 1.170 1_455 S
C342 C340 1.380 . S
C342 C343 1.170 . S
C343 C342 1.170 . S
C344 C345 1.170 . S
C344 C346 1.380 . S
C345 C344 1.170 . S
C346 C344 1.380 . S
C346 C347 1.170 1_455 S
C347 C346 1.170 1_655 S
C348 C349 1.170 . S
C348 C350 1.380 . S
C349 C348 1.170 . S
C350 C348 1.380 . S
C350 C351 1.170 1_655 S
C351 C350 1.170 1_455 S
C352 C353 1.170 . S
C352 C354 1.380 1_455 S
C353 C352 1.170 . S
C354 C352 1.380 1_655 S
C354 C355 1.170 . S
C355 C354 1.170 . S
C356 C357 1.170 . S
C356 C358 1.380 1_455 S
C357 C356 1.170 . S
C358 C356 1.380 1_655 S
C358 C359 1.170 . S
C359 C358 1.170 . S
C360 C361 1.170 . S
C360 C362 1.380 1_565 S
C361 C360 1.170 . S
C362 C360 1.380 1_545 S
C362 C363 1.170 . S
C363 C362 1.170 . S
C364 C365 1.170 . S
C364 C366 1.380 1_545 S
C365 C364 1.170 . S
C366 C364 1.380 1_565 S
C366 C367 1.170 . S
C367 C366 1.170 . S
C368 C369 1.170 . S
C368 C370 1.380 . S
C369 C368 1.170 . S
C370 C368 1.380 . S
C370 C371 1.170 . S
C371 C370 1.170 . S
C372 C373 1.170 . S
C372 C374 1.380 . S
C373 C372 1.170 . S
C374 C372 1.380 . S
C374 C375 1.170 . S
C375 C374 1.170 . S
C376 C377 1.170 . S
C376 C378 1.380 . S
C377 C376 1.170 . S
C378 C376 1.380 . S
C378 C379 1.170 . S
C379 C378 1.170 . S
C380 C381 1.170 . S
C380 C382 1.380 . S
C381 C380 1.170 . S
C382 C380 1.380 . S
C382 C383 1.170 . S
C383 C382 1.170 . S
C384 C385 1.170 . S
C384 C386 1.380 1_455 S
C385 C384 1.170 . S
C386 C384 1.380 1_655 S
C386 C387 1.170 . S
C387 C386 1.170 . S
C388 C389 1.170 . S
C388 C390 1.380 1_655 S
C389 C388 1.170 . S
C390 C388 1.380 1_455 S
C390 C391 1.170 . S
C391 C390 1.170 . S
C392 C393 1.170 . S
C392 C394 1.380 1_655 S
C393 C392 1.170 . S
C394 C392 1.380 1_455 S
C394 C395 1.170 . S
C395 C394 1.170 . S
C396 C397 1.170 . S
C396 C398 1.380 1_655 S
C397 C396 1.170 . S
C398 C396 1.380 1_455 S
C398 C399 1.170 . S
C399 C398 1.170 . S
C400 C401 1.170 . S
C400 C402 1.380 . S
C401 C400 1.170 . S
C402 C400 1.380 . S
C402 C403 1.170 . S
C403 C402 1.170 . S
C404 C405 1.170 . S
C404 C406 1.380 . S
C405 C404 1.170 . S
C406 C404 1.380 . S
C406 C407 1.170 . S
C407 C406 1.170 . S
C408 C409 1.170 . S
C408 C410 1.380 . S
C409 C408 1.170 . S
C410 C408 1.380 . S
C410 C411 1.170 . S
C411 C410 1.170 . S
C412 C413 1.170 . S
C412 C414 1.380 . S
C413 C412 1.170 . S
C414 C412 1.380 . S
C414 C415 1.170 . S
C415 C414 1.170 . S
C321 C11 2.303 . S
C323 C2 2.278 . S
C325 C51 2.298 . S
C327 C42 2.279 . S
C329 C91 2.278 . S
C331 C82 2.303 . S
C333 C131 2.286 . S
C335 C122 2.287 . S
C337 C171 2.302 . S
C339 C162 2.278 . S
C341 C202 2.300 . S
C343 C211 2.289 . S
C345 C251 2.294 . S
C347 C242 2.296 . S
C349 C282 2.280 . S
C351 C291 2.304 . S
C353 C56 2.880 . S
C355 C7 2.858 1_554 S
C357 C127 2.872 . S
C359 C96 2.866 . S
C361 C167 2.871 1_554 S
C363 C216 2.849 . S
C365 C256 2.849 . S
C367 C287 2.873 . S
C369 C16 1.990 . S
C371 C207 2.022 . S
C373 C176 2.005 . S
C375 C47 1.991 . S
C377 C87 1.988 . S
C379 C296 2.023 . S
C381 C136 2.016 . S
C383 C247 1.985 . S
C385 C10 1.453 . S
C387 C130 1.451 . S
C389 C50 1.590 . S
C391 C90 1.612 . S
C393 C59 1.485 . S
C395 C99 1.464 . S
C397 C139 1.609 . S
C399 C19 1.597 . S
C401 C170 1.451 . S
C403 C290 1.449 . S
C405 C210 1.630 . S
C407 C250 1.612 . S
C409 C219 1.486 . S
C411 C259 1.468 . S
C413 C299 1.600 . S
C415 C179 1.591 . S
