# Generated by pormake.
# Topology uou, (4)-cn, num edge types: 1
# Building blocks:
#     Node 0, Type 0, BuildingBlock: GALJAG_clean_sbu_0, # of connection points: 4
#     Node 1, Type 0, BuildingBlock: GALJAG_clean_sbu_0, # of connection points: 4
#     Node 2, Type 0, BuildingBlock: GALJAG_clean_sbu_0, # of connection points: 4
#     Node 3, Type 0, BuildingBlock: GALJAG_clean_sbu_0, # of connection points: 4
#     Node 4, Type 0, BuildingBlock: GALJAG_clean_sbu_0, # of connection points: 4
#     Node 5, Type 0, BuildingBlock: GALJAG_clean_sbu_0, # of connection points: 4
#     Node 6, Type 0, BuildingBlock: GALJAG_clean_sbu_0, # of connection points: 4
#     Node 7, Type 0, BuildingBlock: GALJAG_clean_sbu_0, # of connection points: 4
#     Node 8, Type 0, BuildingBlock: GALJAG_clean_sbu_0, # of connection points: 4
#     Node 9, Type 0, BuildingBlock: GALJAG_clean_sbu_0, # of connection points: 4
#     Node 10, Type 0, BuildingBlock: GALJAG_clean_sbu_0, # of connection points: 4
#     Node 11, Type 0, BuildingBlock: GALJAG_clean_sbu_0, # of connection points: 4
#     Node 12, Type 0, BuildingBlock: GALJAG_clean_sbu_0, # of connection points: 4
#     Node 13, Type 0, BuildingBlock: GALJAG_clean_sbu_0, # of connection points: 4
#     Node 14, Type 0, BuildingBlock: GALJAG_clean_sbu_0, # of connection points: 4
#     Node 15, Type 0, BuildingBlock: GALJAG_clean_sbu_0, # of connection points: 4
#     Edge 16, Type (0, 0), BuildingBlock: KIFKEQ_clean_linker_1, # of connection points: 2
#     Edge 17, Type (0, 0), BuildingBlock: KIFKEQ_clean_linker_1, # of connection points: 2
#     Edge 18, Type (0, 0), BuildingBlock: KIFKEQ_clean_linker_1, # of connection points: 2
#     Edge 19, Type (0, 0), BuildingBlock: KIFKEQ_clean_linker_1, # of connection points: 2
#     Edge 20, Type (0, 0), BuildingBlock: KIFKEQ_clean_linker_1, # of connection points: 2
#     Edge 21, Type (0, 0), BuildingBlock: KIFKEQ_clean_linker_1, # of connection points: 2
#     Edge 22, Type (0, 0), BuildingBlock: KIFKEQ_clean_linker_1, # of connection points: 2
#     Edge 23, Type (0, 0), BuildingBlock: KIFKEQ_clean_linker_1, # of connection points: 2
#     Edge 24, Type (0, 0), BuildingBlock: KIFKEQ_clean_linker_1, # of connection points: 2
#     Edge 25, Type (0, 0), BuildingBlock: KIFKEQ_clean_linker_1, # of connection points: 2
#     Edge 26, Type (0, 0), BuildingBlock: KIFKEQ_clean_linker_1, # of connection points: 2
#     Edge 27, Type (0, 0), BuildingBlock: KIFKEQ_clean_linker_1, # of connection points: 2
#     Edge 28, Type (0, 0), BuildingBlock: KIFKEQ_clean_linker_1, # of connection points: 2
#     Edge 29, Type (0, 0), BuildingBlock: KIFKEQ_clean_linker_1, # of connection points: 2
#     Edge 30, Type (0, 0), BuildingBlock: KIFKEQ_clean_linker_1, # of connection points: 2
#     Edge 31, Type (0, 0), BuildingBlock: KIFKEQ_clean_linker_1, # of connection points: 2
#     Edge 32, Type (0, 0), BuildingBlock: KIFKEQ_clean_linker_1, # of connection points: 2
#     Edge 33, Type (0, 0), BuildingBlock: KIFKEQ_clean_linker_1, # of connection points: 2
#     Edge 34, Type (0, 0), BuildingBlock: KIFKEQ_clean_linker_1, # of connection points: 2
#     Edge 35, Type (0, 0), BuildingBlock: KIFKEQ_clean_linker_1, # of connection points: 2
#     Edge 36, Type (0, 0), BuildingBlock: KIFKEQ_clean_linker_1, # of connection points: 2
#     Edge 37, Type (0, 0), BuildingBlock: KIFKEQ_clean_linker_1, # of connection points: 2
#     Edge 38, Type (0, 0), BuildingBlock: KIFKEQ_clean_linker_1, # of connection points: 2
#     Edge 39, Type (0, 0), BuildingBlock: KIFKEQ_clean_linker_1, # of connection points: 2
#     Edge 40, Type (0, 0), BuildingBlock: KIFKEQ_clean_linker_1, # of connection points: 2
#     Edge 41, Type (0, 0), BuildingBlock: KIFKEQ_clean_linker_1, # of connection points: 2
#     Edge 42, Type (0, 0), BuildingBlock: KIFKEQ_clean_linker_1, # of connection points: 2
#     Edge 43, Type (0, 0), BuildingBlock: KIFKEQ_clean_linker_1, # of connection points: 2
#     Edge 44, Type (0, 0), BuildingBlock: KIFKEQ_clean_linker_1, # of connection points: 2
#     Edge 45, Type (0, 0), BuildingBlock: KIFKEQ_clean_linker_1, # of connection points: 2
#     Edge 46, Type (0, 0), BuildingBlock: KIFKEQ_clean_linker_1, # of connection points: 2
#     Edge 47, Type (0, 0), BuildingBlock: KIFKEQ_clean_linker_1, # of connection points: 2
# Relax obj value: 0.005
# Max RMSD: 0.017
# Mean RMSD: 0.017
data_MOF--net-uou--node1-GALJAG_clean_sbu_0--edge1-KIFKEQ_clean_linker_1
_symmetry_space_group_name_H-M    P1
_symmetry_Int_Tables_number       1
_symmetry_cell_setting            triclinic
loop_
_symmetry_equiv_pos_as_xyz
'x, y, z'
_cell_length_a     36.29194
_cell_length_b     44.082394
_cell_length_c     55.217729
_cell_angle_alpha  89.999264
_cell_angle_beta   89.99919
_cell_angle_gamma 90.00122
loop_
_atom_site_label
_atom_site_type_symbol
_atom_site_fract_x
_atom_site_fract_y
_atom_site_fract_z
_atom_type_partial_charge
In0 In 0.06305 0.08575 0.11717 0.0
O1 O 0.12595 0.08601 0.11338 0.0
O2 O 0.09987 0.04588 0.12627 0.0
C3 C 0.04336 0.14378 0.10861 0.0
C4 C 0.03969 0.05825 0.07646 0.0
C5 C 0.04029 0.08116 0.16345 0.0
O6 O 0.07632 0.13625 0.113 0.0
O7 O 0.02078 0.12202 0.10804 0.0
O8 O 0.02826 0.0637 0.14708 0.0
O9 O 0.06342 0.10057 0.15637 0.0
C10 C 0.12956 0.0589 0.12055 0.0
O11 O 0.02209 0.05631 0.09618 0.0
O12 O 0.06844 0.0743 0.07736 0.0
In13 In 0.43662 0.91694 0.11737 0.0
O14 O 0.37386 0.91776 0.11338 0.0
O15 O 0.40111 0.95816 0.1247 0.0
C16 C 0.45456 0.85806 0.11038 0.0
C17 C 0.45978 0.94399 0.07645 0.0
C18 C 0.45954 0.92386 0.16344 0.0
O19 O 0.42205 0.86632 0.11524 0.0
O20 O 0.47748 0.87943 0.10867 0.0
O21 O 0.47722 0.93482 0.14576 0.0
O22 O 0.43073 0.90955 0.15777 0.0
C23 C 0.37103 0.94533 0.11953 0.0
O24 O 0.47635 0.94739 0.09642 0.0
O25 O 0.43213 0.92665 0.07716 0.0
In26 In 0.56067 0.92022 0.38421 0.0
O27 O 0.52528 0.95622 0.40302 0.0
O28 O 0.55598 0.92569 0.42494 0.0
C29 C 0.54002 0.92613 0.33774 0.0
C30 C 0.62776 0.94634 0.38304 0.0
C31 C 0.54038 0.86171 0.38931 0.0
O32 O 0.52155 0.93744 0.35496 0.0
O33 O 0.56868 0.91192 0.34407 0.0
O34 O 0.57384 0.86976 0.38935 0.0
O35 O 0.51761 0.88312 0.38696 0.0
C36 C 0.53435 0.94802 0.42412 0.0
O37 O 0.62265 0.92059 0.39256 0.0
O38 O 0.59938 0.95842 0.37412 0.0
In39 In 0.93698 0.08276 0.38411 0.0
O40 O 0.97357 0.04702 0.40234 0.0
O41 O 0.9396 0.07484 0.42455 0.0
C42 C 0.95964 0.07928 0.33784 0.0
C43 C 0.86896 0.05808 0.38223 0.0
C44 C 0.95761 0.14079 0.39133 0.0
O45 O 0.97283 0.06225 0.35414 0.0
O46 O 0.93537 0.09772 0.345 0.0
O47 O 0.92453 0.13344 0.38709 0.0
O48 O 0.97991 0.11885 0.39232 0.0
C49 C 0.96275 0.05357 0.42348 0.0
O50 O 0.87557 0.08193 0.39413 0.0
O51 O 0.89625 0.04726 0.37112 0.0
In52 In 0.93893 0.92023 0.88409 0.0
O53 O 0.97674 0.95394 0.90336 0.0
O54 O 0.94048 0.927 0.92477 0.0
C55 C 0.95937 0.92427 0.83732 0.0
C56 C 0.87207 0.94687 0.88297 0.0
C57 C 0.9596 0.86226 0.89149 0.0
O58 O 0.9745 0.94009 0.85363 0.0
O59 O 0.93427 0.90678 0.84468 0.0
O60 O 0.92625 0.86978 0.88861 0.0
O61 O 0.98223 0.88402 0.89103 0.0
C62 C 0.96481 0.94744 0.92425 0.0
O63 O 0.87625 0.91959 0.88949 0.0
O64 O 0.90133 0.96022 0.87688 0.0
In65 In 0.56068 0.08238 0.88437 0.0
O66 O 0.62333 0.08303 0.88999 0.0
O67 O 0.59845 0.0426 0.87684 0.0
C68 C 0.53999 0.14036 0.89166 0.0
C69 C 0.53462 0.05511 0.92444 0.0
C70 C 0.53978 0.07815 0.83771 0.0
O71 O 0.57332 0.13289 0.88855 0.0
O72 O 0.51743 0.11856 0.89148 0.0
O73 O 0.52501 0.06224 0.85411 0.0
O74 O 0.56477 0.09585 0.84493 0.0
C75 C 0.62764 0.05588 0.88318 0.0
O76 O 0.52289 0.04858 0.90352 0.0
O77 O 0.55888 0.07561 0.92505 0.0
In78 In 0.43519 0.08454 0.61746 0.0
O79 O 0.47601 0.05523 0.59634 0.0
O80 O 0.42985 0.07363 0.57755 0.0
C81 C 0.45879 0.08003 0.66353 0.0
C82 C 0.36891 0.05738 0.62114 0.0
C83 C 0.45458 0.1426 0.60892 0.0
O84 O 0.47037 0.06245 0.64711 0.0
O85 O 0.43564 0.09952 0.65661 0.0
O86 O 0.4217 0.13503 0.61356 0.0
O87 O 0.47718 0.12087 0.60812 0.0
C88 C 0.45856 0.05753 0.57659 0.0
O89 O 0.37225 0.08451 0.61397 0.0
O90 O 0.39875 0.0445 0.6267 0.0
In91 In 0.06162 0.91618 0.61654 0.0
O92 O 0.02055 0.94493 0.59513 0.0
O93 O 0.06719 0.92695 0.5766 0.0
C94 C 0.0382 0.92097 0.66266 0.0
C95 C 0.12774 0.94356 0.6203 0.0
C96 C 0.04246 0.85803 0.6082 0.0
O97 O 0.02668 0.93855 0.64621 0.0
O98 O 0.06113 0.90132 0.65574 0.0
O99 O 0.07539 0.86577 0.61253 0.0
O100 O 0.01968 0.87965 0.60762 0.0
C101 C 0.03823 0.94272 0.57546 0.0
O102 O 0.12462 0.91628 0.61348 0.0
O103 O 0.09776 0.95651 0.62543 0.0
In104 In 0.55807 0.58106 0.11649 0.0
O105 O 0.62066 0.58218 0.1106 0.0
O106 O 0.59588 0.54082 0.12197 0.0
C107 C 0.53832 0.63969 0.11085 0.0
C108 C 0.53265 0.55394 0.07616 0.0
C109 C 0.53639 0.57385 0.16282 0.0
O110 O 0.57144 0.63182 0.11422 0.0
O111 O 0.51561 0.61805 0.1101 0.0
O112 O 0.51723 0.56455 0.14521 0.0
O113 O 0.56619 0.58662 0.15698 0.0
C114 C 0.62503 0.55456 0.11615 0.0
O115 O 0.52313 0.54551 0.09713 0.0
O116 O 0.55436 0.57629 0.07563 0.0
In117 In 0.93717 0.41986 0.11563 0.0
O118 O 0.87462 0.41903 0.10965 0.0
O119 O 0.89949 0.46009 0.12163 0.0
C120 C 0.9567 0.36129 0.10923 0.0
C121 C 0.96252 0.44752 0.07549 0.0
C122 C 0.9591 0.42634 0.16201 0.0
O123 O 0.92373 0.36908 0.11328 0.0
O124 O 0.97933 0.38295 0.10823 0.0
O125 O 0.97818 0.43588 0.14444 0.0
O126 O 0.92926 0.41369 0.15611 0.0
C127 C 0.87032 0.44653 0.11558 0.0
O128 O 0.9725 0.45541 0.0965 0.0
O129 O 0.94034 0.42548 0.07482 0.0
In130 In 0.06332 0.41671 0.38237 0.0
O131 O 0.02381 0.44755 0.40319 0.0
O132 O 0.06712 0.4259 0.42267 0.0
C133 C 0.04091 0.42365 0.33616 0.0
C134 C 0.12947 0.44428 0.38078 0.0
C135 C 0.04436 0.35813 0.38952 0.0
O136 O 0.02377 0.43549 0.35371 0.0
O137 O 0.06897 0.40845 0.34203 0.0
O138 O 0.07705 0.36598 0.3847 0.0
O139 O 0.02174 0.37975 0.39095 0.0
C140 C 0.03979 0.44358 0.4233 0.0
O141 O 0.12593 0.41688 0.38722 0.0
O142 O 0.09983 0.45735 0.37495 0.0
In143 In 0.43796 0.58429 0.38384 0.0
O144 O 0.47795 0.55404 0.40482 0.0
O145 O 0.43695 0.57803 0.42461 0.0
C146 C 0.45734 0.57559 0.33733 0.0
C147 C 0.37199 0.55642 0.38262 0.0
C148 C 0.45824 0.64288 0.38871 0.0
O149 O 0.47553 0.56439 0.35471 0.0
O150 O 0.42956 0.59099 0.34351 0.0
O151 O 0.42505 0.63453 0.39079 0.0
O152 O 0.48072 0.62175 0.38442 0.0
C153 C 0.46362 0.55971 0.42518 0.0
O154 O 0.37494 0.5847 0.38615 0.0
O155 O 0.40212 0.54263 0.37966 0.0
In156 In 0.4357 0.41662 0.88264 0.0
O157 O 0.37299 0.41693 0.88691 0.0
O158 O 0.39969 0.45763 0.87572 0.0
C159 C 0.45432 0.35801 0.89 0.0
C160 C 0.45906 0.44379 0.92346 0.0
C161 C 0.4579 0.4233 0.83638 0.0
O162 O 0.42166 0.36597 0.88524 0.0
O163 O 0.4771 0.37953 0.89128 0.0
O164 O 0.47573 0.43449 0.8539 0.0
O165 O 0.42931 0.40885 0.8423 0.0
C166 C 0.36982 0.44454 0.88097 0.0
O167 O 0.47493 0.44784 0.90331 0.0
O168 O 0.43202 0.4258 0.92292 0.0
In169 In 0.0622 0.58559 0.8828 0.0
O170 O 0.12485 0.58509 0.8874 0.0
O171 O 0.09823 0.54465 0.87554 0.0
C172 C 0.04408 0.6443 0.89031 0.0
C173 C 0.03841 0.55821 0.92345 0.0
C174 C 0.04016 0.57909 0.83646 0.0
O175 O 0.07662 0.63617 0.88538 0.0
O176 O 0.02116 0.6229 0.8917 0.0
O177 O 0.02247 0.56758 0.85391 0.0
O178 O 0.06851 0.5938 0.84249 0.0
C179 C 0.12805 0.5576 0.88111 0.0
O180 O 0.02229 0.55477 0.90332 0.0
O181 O 0.06593 0.5757 0.92299 0.0
In182 In 0.93837 0.58158 0.61554 0.0
O183 O 0.97357 0.54527 0.59698 0.0
O184 O 0.94207 0.57519 0.57493 0.0
C185 C 0.96075 0.57649 0.66181 0.0
C186 C 0.87159 0.55488 0.61637 0.0
C187 C 0.9573 0.64023 0.60915 0.0
O188 O 0.97925 0.56566 0.64441 0.0
O189 O 0.93138 0.58981 0.65573 0.0
O190 O 0.9245 0.63228 0.61362 0.0
O191 O 0.98003 0.61866 0.60773 0.0
C192 C 0.96396 0.55302 0.57586 0.0
O193 O 0.87675 0.58021 0.60616 0.0
O194 O 0.89973 0.54356 0.6262 0.0
In195 In 0.56259 0.41806 0.61617 0.0
O196 O 0.52969 0.45636 0.59832 0.0
O197 O 0.55741 0.4247 0.57565 0.0
C198 C 0.53947 0.42354 0.66224 0.0
C199 C 0.63062 0.44262 0.61704 0.0
C200 C 0.54243 0.35966 0.60984 0.0
O201 O 0.52159 0.4347 0.64469 0.0
O202 O 0.56857 0.40966 0.6564 0.0
O203 O 0.57536 0.36717 0.61436 0.0
O204 O 0.52016 0.38154 0.60833 0.0
C205 C 0.53758 0.44811 0.57702 0.0
O206 O 0.62379 0.4185 0.60551 0.0
O207 O 0.60354 0.45377 0.62818 0.0
H208 H 0.35935 0.00387 0.13322 0.0
H209 H 0.30271 0.92405 0.10729 0.0
H210 H 0.30126 0.03154 0.13404 0.0
H211 H 0.24456 0.95195 0.10762 0.0
H212 H 0.14254 0.00117 0.13573 0.0
H213 H 0.20083 0.97382 0.13591 0.0
H214 H 0.25564 0.05275 0.10665 0.0
H215 H 0.19725 0.08037 0.10694 0.0
C216 C 0.33446 0.99225 0.12764 0.0
C217 C 0.33556 0.96176 0.12022 0.0
C218 C 0.30121 0.00819 0.12796 0.0
C219 C 0.26826 0.99401 0.12085 0.0
C220 C 0.26937 0.96344 0.11349 0.0
C221 C 0.30268 0.94748 0.1132 0.0
C222 C 0.16707 0.01275 0.12943 0.0
C223 C 0.16535 0.04294 0.12134 0.0
C224 C 0.20043 0.99698 0.12936 0.0
C225 C 0.23288 0.01102 0.12118 0.0
C226 C 0.23122 0.04136 0.11331 0.0
C227 C 0.19778 0.05717 0.11338 0.0
H228 H 0.65035 0.9895 0.35137 0.0
H229 H 0.6859 0.93837 0.41389 0.0
H230 H 0.70901 0.01692 0.35121 0.0
H231 H 0.7443 0.96669 0.4141 0.0
H232 H 0.81459 0.06147 0.41632 0.0
H233 H 0.75624 0.03315 0.4169 0.0
H234 H 0.78353 0.99269 0.34808 0.0
H235 H 0.84224 0.02008 0.34778 0.0
C236 C 0.67072 0.98418 0.36508 0.0
C237 C 0.66375 0.9618 0.38261 0.0
C238 C 0.70413 0.99984 0.36496 0.0
C239 C 0.73076 0.99391 0.38272 0.0
C240 C 0.7239 0.97164 0.40033 0.0
C241 C 0.69075 0.9554 0.4001 0.0
C242 C 0.80798 0.04663 0.4013 0.0
C243 C 0.83277 0.04294 0.38199 0.0
C244 C 0.77487 0.03035 0.40173 0.0
C245 C 0.7658 0.01079 0.38258 0.0
C246 C 0.79015 0.00765 0.36303 0.0
C247 C 0.82358 0.02331 0.36288 0.0
H248 H 0.8049 0.9241 0.89631 0.0
H249 H 0.85807 0.0051 0.86953 0.0
H250 H 0.74586 0.95077 0.89685 0.0
H251 H 0.79916 0.03152 0.86961 0.0
H252 H 0.69459 0.07834 0.89732 0.0
H253 H 0.75366 0.05169 0.89775 0.0
H254 H 0.70085 0.9717 0.86874 0.0
H255 H 0.64192 0.99808 0.86876 0.0
C256 C 0.80392 0.94752 0.89043 0.0
C257 C 0.83606 0.9625 0.88288 0.0
C258 C 0.77012 0.96278 0.89064 0.0
C259 C 0.76783 0.99331 0.8833 0.0
C260 C 0.80005 0.00818 0.87571 0.0
C261 C 0.83376 0.99295 0.8755 0.0
C262 C 0.69569 0.05509 0.89103 0.0
C263 C 0.66368 0.04031 0.88301 0.0
C264 C 0.7295 0.03985 0.89118 0.0
C265 C 0.73194 0.00953 0.88332 0.0
C266 C 0.69985 0.99486 0.87525 0.0
C267 C 0.66612 0.01007 0.8751 0.0
H268 H 0.13961 0.00178 0.63468 0.0
H269 H 0.19614 0.92209 0.60837 0.0
H270 H 0.1977 0.0294 0.63561 0.0
H271 H 0.25436 0.94996 0.60885 0.0
H272 H 0.35646 0.99967 0.63657 0.0
H273 H 0.29833 0.97206 0.63706 0.0
H274 H 0.24278 0.05062 0.60776 0.0
H275 H 0.301 0.07848 0.60772 0.0
C276 C 0.16449 0.99015 0.62908 0.0
C277 C 0.16335 0.95975 0.62146 0.0
C278 C 0.19774 0.00607 0.62945 0.0
C279 C 0.23065 0.99195 0.62222 0.0
C280 C 0.22955 0.96141 0.61479 0.0
C281 C 0.19622 0.94546 0.61442 0.0
C282 C 0.3318 0.0111 0.63033 0.0
C283 C 0.33325 0.04126 0.62212 0.0
C284 C 0.29854 0.99519 0.63045 0.0
C285 C 0.26594 0.00907 0.62236 0.0
C286 C 0.26734 0.03937 0.61436 0.0
C287 C 0.30067 0.05531 0.61425 0.0
H288 H 0.85571 0.5046 0.1292 0.0
H289 H 0.80359 0.42378 0.10123 0.0
H290 H 0.79664 0.53075 0.12895 0.0
H291 H 0.7444 0.45021 0.10042 0.0
H292 H 0.6396 0.4961 0.12861 0.0
H293 H 0.69869 0.47003 0.12808 0.0
H294 H 0.75115 0.55154 0.10156 0.0
H295 H 0.69189 0.57788 0.10264 0.0
C296 C 0.83161 0.49245 0.12289 0.0
C297 C 0.83425 0.4621 0.11529 0.0
C298 C 0.79778 0.50753 0.12257 0.0
C299 C 0.76577 0.49264 0.11461 0.0
C300 C 0.76845 0.46225 0.10695 0.0
C301 C 0.80235 0.44712 0.1073 0.0
C302 C 0.66375 0.50848 0.12267 0.0
C303 C 0.66114 0.53908 0.11571 0.0
C304 C 0.69759 0.49345 0.1222 0.0
C305 C 0.72967 0.50863 0.11471 0.0
C306 C 0.72704 0.53927 0.1077 0.0
C307 C 0.6931 0.55435 0.10821 0.0
H308 H 0.30338 0.57947 0.39187 0.0
H309 H 0.36009 0.49689 0.37232 0.0
H310 H 0.2448 0.55215 0.39175 0.0
H311 H 0.30169 0.46982 0.37151 0.0
H312 H 0.19604 0.42362 0.39705 0.0
H313 H 0.25445 0.45107 0.39795 0.0
H314 H 0.20189 0.52846 0.36451 0.0
H315 H 0.14344 0.50132 0.36429 0.0
C316 C 0.30327 0.55555 0.38741 0.0
C317 C 0.33629 0.54033 0.38214 0.0
C318 C 0.26973 0.5399 0.38721 0.0
C319 C 0.26851 0.50874 0.38164 0.0
C320 C 0.30163 0.49365 0.37626 0.0
C321 C 0.3351 0.50924 0.37656 0.0
C322 C 0.19706 0.44646 0.38986 0.0
C323 C 0.16521 0.46032 0.38061 0.0
C324 C 0.23053 0.46218 0.39027 0.0
C325 C 0.23289 0.49202 0.38132 0.0
C326 C 0.20098 0.50572 0.37191 0.0
C327 C 0.16752 0.49007 0.37162 0.0
H328 H 0.1957 0.57893 0.8948 0.0
H329 H 0.14069 0.4995 0.86667 0.0
H330 H 0.25405 0.5513 0.89506 0.0
H331 H 0.19898 0.47214 0.86639 0.0
H332 H 0.30193 0.42277 0.89368 0.0
H333 H 0.24356 0.45037 0.89401 0.0
H334 H 0.29911 0.53041 0.86737 0.0
H335 H 0.35741 0.50306 0.86758 0.0
C336 C 0.19614 0.55565 0.88854 0.0
C337 C 0.16367 0.54138 0.88073 0.0
C338 C 0.22956 0.53985 0.88858 0.0
C339 C 0.23118 0.50947 0.88077 0.0
C340 C 0.19863 0.49533 0.87286 0.0
C341 C 0.16526 0.51109 0.87287 0.0
C342 C 0.30159 0.44624 0.88788 0.0
C343 C 0.3342 0.46075 0.88062 0.0
C344 C 0.26816 0.46203 0.88796 0.0
C345 C 0.26667 0.49263 0.88074 0.0
C346 C 0.29935 0.50702 0.87338 0.0
C347 C 0.33273 0.49127 0.87334 0.0
H348 H 0.65818 0.47993 0.65159 0.0
H349 H 0.68441 0.43948 0.58247 0.0
H350 H 0.71698 0.5071 0.65114 0.0
H351 H 0.74294 0.4676 0.58174 0.0
H352 H 0.81444 0.56122 0.58448 0.0
H353 H 0.75638 0.53247 0.58405 0.0
H354 H 0.79022 0.48454 0.64842 0.0
H355 H 0.84853 0.51242 0.6485 0.0
C356 C 0.67657 0.47686 0.63633 0.0
C357 C 0.66694 0.45756 0.6171 0.0
C358 C 0.71008 0.49239 0.63609 0.0
C359 C 0.7341 0.48947 0.61635 0.0
C360 C 0.72459 0.47024 0.59707 0.0
C361 C 0.69139 0.45406 0.59758 0.0
C362 C 0.80935 0.54459 0.59853 0.0
C363 C 0.83583 0.53902 0.61654 0.0
C364 C 0.7764 0.52807 0.59817 0.0
C365 C 0.76919 0.50635 0.61615 0.0
C366 C 0.79534 0.50119 0.63437 0.0
C367 C 0.82857 0.51713 0.6344 0.0
H368 H 0.99903 0.03468 0.31488 0.0
H369 H 0.94668 0.12146 0.30312 0.0
H370 H 0.01812 0.03362 0.27219 0.0
H371 H 0.96613 0.12053 0.26086 0.0
H372 H 0.05033 0.1238 0.19821 0.0
H373 H 0.03081 0.12197 0.24044 0.0
H374 H 0.98454 0.03293 0.22896 0.0
H375 H 0.00368 0.03488 0.1863 0.0
C376 C 0.99169 0.05348 0.30321 0.0
C377 C 0.97148 0.07818 0.31229 0.0
C378 C 0.00239 0.05278 0.27883 0.0
C379 C 0.99361 0.07703 0.26335 0.0
C380 C 0.97343 0.10165 0.27248 0.0
C381 C 0.96224 0.10212 0.29664 0.0
C382 C 0.036 0.10381 0.20465 0.0
C383 C 0.02838 0.07951 0.18898 0.0
C384 C 0.02477 0.10282 0.22879 0.0
C385 C 0.00618 0.07733 0.23787 0.0
C386 C 0.99902 0.05276 0.22236 0.0
C387 C 0.00975 0.05396 0.198 0.0
H388 H 0.52531 0.94552 0.18046 0.0
H389 H 0.42052 0.9094 0.20382 0.0
H390 H 0.54526 0.94887 0.22275 0.0
H391 H 0.4404 0.91271 0.24589 0.0
H392 H 0.47577 0.94919 0.31967 0.0
H393 H 0.45661 0.95151 0.27725 0.0
H394 H 0.56003 0.9113 0.25564 0.0
H395 H 0.57923 0.90906 0.29796 0.0
C396 C 0.50652 0.93847 0.19462 0.0
C397 C 0.47144 0.92711 0.18887 0.0
C398 C 0.51796 0.94027 0.21878 0.0
C399 C 0.49435 0.93108 0.2376 0.0
C400 C 0.45903 0.92029 0.2318 0.0
C401 C 0.44776 0.9182 0.2077 0.0
C402 C 0.49446 0.94103 0.30583 0.0
C403 C 0.5289 0.92881 0.31211 0.0
C404 C 0.48346 0.94226 0.28159 0.0
C405 C 0.50683 0.93155 0.26316 0.0
C406 C 0.54161 0.92 0.26943 0.0
C407 C 0.55247 0.91853 0.29366 0.0
H408 H 0.0037 0.96829 0.68554 0.0
H409 H 0.04554 0.87772 0.69721 0.0
H410 H 0.98455 0.97071 0.72819 0.0
H411 H 0.02591 0.88001 0.73941 0.0
H412 H 0.94207 0.88362 0.80225 0.0
H413 H 0.9607 0.88423 0.75981 0.0
H414 H 0.01929 0.96816 0.77146 0.0
H415 H 0.0011 0.96738 0.81432 0.0
C416 C 0.00865 0.94894 0.69717 0.0
C417 C 0.02601 0.9228 0.68811 0.0
C418 C 0.99793 0.9504 0.72152 0.0
C419 C 0.00375 0.92551 0.73696 0.0
C420 C 0.02094 0.89941 0.72781 0.0
C421 C 0.03222 0.89816 0.7037 0.0
C422 C 0.95887 0.90226 0.79579 0.0
C423 C 0.97029 0.9254 0.81159 0.0
C424 C 0.96956 0.90254 0.77154 0.0
C425 C 0.9914 0.92621 0.76247 0.0
C426 C 0.00225 0.94975 0.77807 0.0
C427 C 0.99206 0.9492 0.80254 0.0
H428 H 0.49443 0.03323 0.68631 0.0
H429 H 0.45087 0.12325 0.69805 0.0
H430 H 0.51416 0.0312 0.72886 0.0
H431 H 0.47106 0.12134 0.74016 0.0
H432 H 0.55578 0.11902 0.80254 0.0
H433 H 0.5366 0.1181 0.76021 0.0
H434 H 0.47993 0.03336 0.77226 0.0
H435 H 0.49865 0.03446 0.81501 0.0
C436 C 0.4892 0.05254 0.69795 0.0
C437 C 0.47121 0.07841 0.68893 0.0
C438 C 0.50027 0.0513 0.72223 0.0
C439 C 0.49413 0.07615 0.73764 0.0
C440 C 0.47628 0.10198 0.72856 0.0
C441 C 0.46467 0.10301 0.70451 0.0
C442 C 0.53929 0.10015 0.79619 0.0
C443 C 0.52856 0.07686 0.81206 0.0
C444 C 0.52828 0.09968 0.772 0.0
C445 C 0.50681 0.07569 0.76308 0.0
C446 C 0.49666 0.05202 0.77876 0.0
C447 C 0.50716 0.05275 0.80316 0.0
H448 H 0.46992 0.55425 0.18016 0.0
H449 H 0.57678 0.58653 0.20306 0.0
H450 H 0.4503 0.55144 0.22251 0.0
H451 H 0.55717 0.58384 0.24523 0.0
H452 H 0.52034 0.55006 0.31942 0.0
H453 H 0.5392 0.54644 0.27699 0.0
H454 H 0.43745 0.58925 0.25513 0.0
H455 H 0.41855 0.59274 0.29742 0.0
C456 C 0.48925 0.56056 0.19424 0.0
C457 C 0.52481 0.57072 0.18833 0.0
C458 C 0.47799 0.55907 0.21844 0.0
C459 C 0.50222 0.56743 0.23716 0.0
C460 C 0.53804 0.57692 0.23122 0.0
C461 C 0.54916 0.57866 0.20706 0.0
C462 C 0.50193 0.55848 0.30552 0.0
C463 C 0.46807 0.57181 0.31172 0.0
C464 C 0.51277 0.55652 0.28127 0.0
C465 C 0.48981 0.56761 0.26276 0.0
C466 C 0.45555 0.58022 0.26897 0.0
C467 C 0.44485 0.5824 0.2932 0.0
H468 H 0.97726 0.44892 0.31884 0.0
H469 H 0.07819 0.40562 0.29593 0.0
H470 H 0.95745 0.45246 0.27655 0.0
H471 H 0.05839 0.40906 0.25384 0.0
H472 H 0.02581 0.44532 0.17935 0.0
H473 H 0.04571 0.44748 0.22166 0.0
H474 H 0.93869 0.41551 0.24444 0.0
H475 H 0.9188 0.41344 0.20229 0.0
C476 C 0.99524 0.4403 0.30478 0.0
C477 C 0.02919 0.4269 0.31067 0.0
C478 C 0.98387 0.44222 0.28061 0.0
C479 C 0.0064 0.43105 0.2619 0.0
C480 C 0.04063 0.41819 0.26782 0.0
C481 C 0.05184 0.41603 0.29195 0.0
C482 C 0.00651 0.43895 0.19343 0.0
C483 C 0.97083 0.42909 0.18753 0.0
C484 C 0.01793 0.44007 0.21761 0.0
C485 C 0.99375 0.43163 0.23635 0.0
C486 C 0.9578 0.42246 0.23043 0.0
C487 C 0.94651 0.42108 0.20628 0.0
H488 H 0.57823 0.40783 0.70247 0.0
H489 H 0.474 0.44542 0.67952 0.0
H490 H 0.55838 0.41062 0.74459 0.0
H491 H 0.45411 0.44827 0.72183 0.0
H492 H 0.419 0.40748 0.79623 0.0
H493 H 0.43865 0.41029 0.75407 0.0
H494 H 0.54258 0.44881 0.77659 0.0
H495 H 0.52289 0.44594 0.81893 0.0
C496 C 0.55112 0.41683 0.70645 0.0
C497 C 0.52757 0.42629 0.68771 0.0
C498 C 0.53988 0.41863 0.73058 0.0
C499 C 0.50473 0.42969 0.73649 0.0
C500 C 0.48128 0.43945 0.71777 0.0
C501 C 0.49267 0.43791 0.69359 0.0
C502 C 0.44597 0.41671 0.79218 0.0
C503 C 0.4695 0.42637 0.81086 0.0
C504 C 0.4571 0.41851 0.76803 0.0
C505 C 0.49214 0.42976 0.76204 0.0
C506 C 0.51552 0.43981 0.78071 0.0
C507 C 0.50422 0.43828 0.8049 0.0
H508 H 0.97606 0.55507 0.81873 0.0
H509 H 0.07871 0.5961 0.79647 0.0
H510 H 0.95692 0.5517 0.7763 0.0
H511 H 0.05959 0.59281 0.75423 0.0
H512 H 0.02676 0.55642 0.6796 0.0
H513 H 0.04611 0.55433 0.72204 0.0
H514 H 0.94002 0.58914 0.74402 0.0
H515 H 0.9207 0.59118 0.70176 0.0
C516 C 0.99456 0.56322 0.80478 0.0
C517 C 0.02879 0.57595 0.81089 0.0
C518 C 0.98358 0.5614 0.78053 0.0
C519 C 0.00679 0.57199 0.76196 0.0
C520 C 0.0413 0.58415 0.76811 0.0
C521 C 0.05212 0.58623 0.79231 0.0
C522 C 0.00757 0.56345 0.69353 0.0
C523 C 0.97231 0.57408 0.68738 0.0
C524 C 0.01866 0.56237 0.71778 0.0
C525 C 0.99455 0.57157 0.73633 0.0
C526 C 0.95905 0.58159 0.73016 0.0
C527 C 0.9481 0.58295 0.70594 0.0
H528 H 0.08332 0.19508 0.11753 0.0
H529 H 0.97621 0.16447 0.09388 0.0
H530 H 0.06186 0.24744 0.11638 0.0
H531 H 0.95503 0.21685 0.09178 0.0
H532 H 0.02321 0.34045 0.09369 0.0
H533 H 0.0441 0.28807 0.09107 0.0
H534 H 0.93824 0.25757 0.1175 0.0
H535 H 0.91698 0.31004 0.11915 0.0
C536 C 0.05536 0.19961 0.11171 0.0
C537 C 0.03143 0.17568 0.10587 0.0
C538 C 0.04304 0.22966 0.11093 0.0
C539 C 0.00659 0.23651 0.10405 0.0
C540 C 0.98302 0.21249 0.0976 0.0
C541 C 0.99525 0.18244 0.09861 0.0
C542 C 0.00433 0.32251 0.09878 0.0
C543 C 0.96848 0.32933 0.10668 0.0
C544 C 0.01639 0.29246 0.09744 0.0
C545 C 0.99302 0.26846 0.10423 0.0
C546 C 0.9569 0.27535 0.11179 0.0
C547 C 0.94471 0.30545 0.11288 0.0
H548 H 0.52003 0.83609 0.0939 0.0
H549 H 0.4145 0.80755 0.12188 0.0
H550 H 0.54013 0.78344 0.09207 0.0
H551 H 0.43499 0.75486 0.12099 0.0
H552 H 0.57914 0.69075 0.11923 0.0
H553 H 0.55831 0.74333 0.11798 0.0
H554 H 0.45008 0.71334 0.09564 0.0
H555 H 0.47065 0.66083 0.09783 0.0
C556 C 0.50112 0.81851 0.09967 0.0
C557 C 0.46569 0.82593 0.10805 0.0
C558 C 0.51274 0.78831 0.09881 0.0
C559 C 0.48935 0.76478 0.10655 0.0
C560 C 0.45363 0.77226 0.11457 0.0
C561 C 0.44188 0.80249 0.1152 0.0
C562 C 0.55097 0.69546 0.11396 0.0
C563 C 0.52651 0.67169 0.10871 0.0
C564 C 0.53902 0.72562 0.1131 0.0
C565 C 0.50241 0.7327 0.10675 0.0
C566 C 0.47823 0.70881 0.10104 0.0
C567 C 0.4901 0.67868 0.10212 0.0
H568 H 0.41858 0.69167 0.40488 0.0
H569 H 0.52497 0.66621 0.37642 0.0
H570 H 0.43875 0.74443 0.40728 0.0
H571 H 0.54466 0.71887 0.37772 0.0
H572 H 0.58206 0.81209 0.40097 0.0
H573 H 0.56206 0.75928 0.40304 0.0
H574 H 0.45191 0.7865 0.3825 0.0
H575 H 0.47163 0.83918 0.38154 0.0
C576 C 0.4462 0.69741 0.39903 0.0
C577 C 0.47018 0.67485 0.39047 0.0
C578 C 0.45776 0.72767 0.40026 0.0
C579 C 0.4934 0.73607 0.39266 0.0
C580 C 0.51731 0.71332 0.38418 0.0
C581 C 0.50591 0.68309 0.38324 0.0
C582 C 0.55355 0.80671 0.39706 0.0
C583 C 0.52844 0.82973 0.39108 0.0
C584 C 0.54207 0.77643 0.39808 0.0
C585 C 0.50532 0.76846 0.39285 0.0
C586 C 0.48023 0.79168 0.38706 0.0
C587 C 0.49161 0.82193 0.38633 0.0
H588 H 0.97839 0.33724 0.40596 0.0
H589 H 0.08398 0.30696 0.37925 0.0
H590 H 0.95764 0.28484 0.40875 0.0
H591 H 0.06284 0.25446 0.38113 0.0
H592 H 0.02517 0.16135 0.40537 0.0
H593 H 0.04654 0.21372 0.4072 0.0
H594 H 0.93946 0.24442 0.38317 0.0
H595 H 0.91784 0.1921 0.38224 0.0
C596 C 0.99717 0.31933 0.40066 0.0
C597 C 0.03278 0.32618 0.39233 0.0
C598 C 0.98518 0.28927 0.40209 0.0
C599 C 0.0084 0.26532 0.395 0.0
C600 C 0.04433 0.27223 0.38706 0.0
C601 C 0.05643 0.30233 0.38585 0.0
C602 C 0.00614 0.17934 0.40068 0.0
C603 C 0.96983 0.17265 0.39366 0.0
C604 C 0.01846 0.20937 0.40155 0.0
C605 C 0.99484 0.2334 0.39522 0.0
C606 C 0.95831 0.22661 0.38853 0.0
C607 C 0.94591 0.19659 0.38787 0.0
H608 H 0.08381 0.69505 0.87902 0.0
H609 H 0.97909 0.66587 0.90786 0.0
H610 H 0.06331 0.74769 0.88079 0.0
H611 H 0.95903 0.71845 0.91064 0.0
H612 H 0.91882 0.81104 0.88426 0.0
H613 H 0.93994 0.75861 0.8854 0.0
H614 H 0.04867 0.78909 0.90625 0.0
H615 H 0.02775 0.84156 0.90408 0.0
C616 C 0.05662 0.69996 0.88609 0.0
C617 C 0.03299 0.67637 0.89317 0.0
C618 C 0.04487 0.73016 0.88724 0.0
C619 C 0.00936 0.73745 0.89577 0.0
C620 C 0.98622 0.71375 0.90351 0.0
C621 C 0.99782 0.68358 0.90209 0.0
C622 C 0.94715 0.80648 0.88923 0.0
C623 C 0.97165 0.83038 0.894 0.0
C624 C 0.95929 0.77639 0.89003 0.0
C625 C 0.99612 0.76948 0.89588 0.0
C626 C 0.02033 0.79349 0.90123 0.0
C627 C 0.00828 0.82359 0.90017 0.0
H628 H 0.41468 0.30701 0.87928 0.0
H629 H 0.51986 0.33684 0.90696 0.0
H630 H 0.43554 0.25446 0.88113 0.0
H631 H 0.5403 0.28437 0.90981 0.0
H632 H 0.58038 0.19162 0.88365 0.0
H633 H 0.55902 0.244 0.88462 0.0
H634 H 0.45095 0.21341 0.9068 0.0
H635 H 0.47207 0.161 0.90481 0.0
C636 C 0.44206 0.30227 0.8861 0.0
C637 C 0.46569 0.32601 0.89285 0.0
C638 C 0.45401 0.27212 0.8873 0.0
C639 C 0.48975 0.26505 0.89553 0.0
C640 C 0.51292 0.2889 0.90291 0.0
C641 C 0.50111 0.31901 0.90146 0.0
C642 C 0.55214 0.19615 0.88888 0.0
C643 C 0.52788 0.17223 0.89407 0.0
C644 C 0.53988 0.22621 0.88957 0.0
C645 C 0.50315 0.23307 0.89574 0.0
C646 C 0.47919 0.20904 0.90152 0.0
C647 C 0.49136 0.17898 0.90057 0.0
H648 H 0.41488 0.19389 0.61843 0.0
H649 H 0.52136 0.16325 0.59358 0.0
H650 H 0.43651 0.24624 0.61735 0.0
H651 H 0.54269 0.2156 0.59159 0.0
H652 H 0.58172 0.30816 0.61957 0.0
H653 H 0.56001 0.25583 0.61782 0.0
H654 H 0.45417 0.28705 0.59191 0.0
H655 H 0.47554 0.3393 0.59456 0.0
C656 C 0.44273 0.19841 0.61236 0.0
C657 C 0.46646 0.1745 0.60618 0.0
C658 C 0.45514 0.22845 0.61163 0.0
C659 C 0.49147 0.23524 0.60447 0.0
C660 C 0.51481 0.21125 0.59764 0.0
C661 C 0.50249 0.18123 0.59859 0.0
C662 C 0.55389 0.30377 0.6134 0.0
C663 C 0.53029 0.32781 0.60731 0.0
C664 C 0.54146 0.27375 0.61225 0.0
C665 C 0.50522 0.26711 0.60477 0.0
C666 C 0.48197 0.29126 0.59817 0.0
C667 C 0.49431 0.32124 0.59953 0.0
H668 H 0.97538 0.83702 0.59371 0.0
H669 H 0.0829 0.80695 0.61703 0.0
H670 H 0.95454 0.78454 0.59174 0.0
H671 H 0.06179 0.75447 0.61598 0.0
H672 H 0.02342 0.66136 0.59317 0.0
H673 H 0.04397 0.71383 0.59053 0.0
H674 H 0.93839 0.74383 0.61778 0.0
H675 H 0.91745 0.69127 0.6195 0.0
C676 C 0.99459 0.81914 0.59839 0.0
C677 C 0.03078 0.82608 0.60553 0.0
C678 C 0.98255 0.78905 0.59746 0.0
C679 C 0.00634 0.76516 0.60385 0.0
C680 C 0.0428 0.77217 0.61059 0.0
C681 C 0.05492 0.80228 0.61131 0.0
C682 C 0.00452 0.67921 0.59844 0.0
C683 C 0.96884 0.67223 0.60659 0.0
C684 C 0.01639 0.70931 0.59709 0.0
C685 C 0.99299 0.73318 0.60409 0.0
C686 C 0.95704 0.72613 0.61191 0.0
C687 C 0.94504 0.69599 0.61303 0.0
H688 H 0.95079 0.93154 0.97097 0.0
H689 H 0.00608 0.99908 0.92753 0.0
H690 H 0.96912 0.95818 0.00766 0.0
H691 H 0.02322 0.02655 0.96417 0.0
H692 H 0.07934 0.0518 0.03501 0.0
H693 H 0.06213 0.02454 0.99843 0.0
H694 H 0.95669 0.00256 0.03043 0.0
H695 H 0.97474 0.02888 0.06747 0.0
C696 C 0.96679 0.95218 0.96929 0.0
C697 C 0.97709 0.96322 0.94641 0.0
C698 C 0.97703 0.96763 0.99032 0.0
C699 C 0.9975 0.99467 0.98895 0.0
C700 C 0.00793 0.00558 0.96598 0.0
C701 C 0.998 0.98993 0.94495 0.0
C702 C 0.05246 0.04117 0.03421 0.0
C703 C 0.02838 0.04243 0.05409 0.0
C704 C 0.04248 0.02568 0.01316 0.0
C705 C 0.00798 0.01133 0.01138 0.0
C706 C 0.98374 0.01288 0.03127 0.0
C707 C 0.99392 0.02814 0.05245 0.0
H708 H 0.4941 0.00308 0.92753 0.0
H709 H 0.54746 0.07143 0.97121 0.0
H710 H 0.47681 0.97554 0.9641 0.0
H711 H 0.52889 0.04475 0.00782 0.0
H712 H 0.52395 0.97448 0.06776 0.0
H713 H 0.54185 1.00088 0.03076 0.0
H714 H 0.4376 0.97665 0.9981 0.0
H715 H 0.42063 0.9492 0.03466 0.0
C716 C 0.5017 0.01239 0.94499 0.0
C717 C 0.52216 0.03933 0.94654 0.0
C718 C 0.49168 0.9967 0.96598 0.0
C719 C 0.50153 0.00782 0.989 0.0
C720 C 0.52146 0.03513 0.99045 0.0
C721 C 0.53184 0.05059 0.96946 0.0
C722 C 0.50501 0.97474 0.0526 0.0
C723 C 0.47097 0.95975 0.05405 0.0
C724 C 0.51509 0.99005 0.03144 0.0
C725 C 0.49113 0.99104 0.01139 0.0
C726 C 0.45705 0.97598 0.01296 0.0
C727 C 0.4472 0.96037 0.03399 0.0
H728 H 0.52263 0.02673 0.56808 0.0
H729 H 0.42025 0.05341 0.53438 0.0
H730 H 0.54094 1.00084 0.53091 0.0
H731 H 0.43781 0.02671 0.49758 0.0
H732 H 0.49646 0.00143 0.4273 0.0
H733 H 0.47905 0.0287 0.46403 0.0
H734 H 0.52629 0.95699 0.50751 0.0
H735 H 0.54473 0.93041 0.47083 0.0
C736 C 0.50401 0.02694 0.55276 0.0
C737 C 0.47006 0.04209 0.55411 0.0
C738 C 0.51434 0.01195 0.5315 0.0
C739 C 0.4908 0.0116 0.51123 0.0
C740 C 0.45688 0.02689 0.51266 0.0
C741 C 0.44671 0.04205 0.53382 0.0
C742 C 0.50298 0.99152 0.44473 0.0
C743 C 0.52196 0.96385 0.44622 0.0
C744 C 0.4929 0.00705 0.46579 0.0
C745 C 0.50137 0.99511 0.48878 0.0
C746 C 0.51994 0.96717 0.49016 0.0
C747 C 0.53024 0.95179 0.46913 0.0
H748 H 0.07718 0.94771 0.53353 0.0
H749 H 0.97343 0.97218 0.56646 0.0
H750 H 0.05966 0.97445 0.49672 0.0
H751 H 0.95514 0.99801 0.52928 0.0
H752 H 0.95054 0.06948 0.47032 0.0
H753 H 0.9689 0.04236 0.50671 0.0
H754 H 0.01971 0.97295 0.46258 0.0
H755 H 0.00242 1.00089 0.42611 0.0
C756 C 0.05043 0.95857 0.53279 0.0
C757 C 0.0267 0.95797 0.55289 0.0
C758 C 0.04027 0.97375 0.51162 0.0
C759 C 0.006 0.98847 0.50998 0.0
C760 C 0.98203 0.98741 0.53003 0.0
C761 C 0.99236 0.97245 0.5513 0.0
C762 C 0.96577 0.04848 0.4684 0.0
C763 C 0.97508 0.03728 0.44538 0.0
C764 C 0.97603 0.03277 0.48927 0.0
C765 C 0.99555 0.0053 0.48764 0.0
C766 C 0.00508 0.99421 0.46455 0.0
C767 C 0.99508 0.01012 0.44363 0.0
H768 H 0.54092 0.57293 0.02955 0.0
H769 H 0.49779 0.4993 0.07263 0.0
H770 H 0.5229 0.5464 0.9927 0.0
H771 H 0.48108 0.47208 0.03582 0.0
H772 H 0.42232 0.44526 0.96635 0.0
H773 H 0.4392 0.47238 0.00306 0.0
H774 H 0.53873 0.50413 0.96824 0.0
H775 H 0.52089 0.47789 0.93113 0.0
C776 C 0.52768 0.55099 0.03111 0.0
C777 C 0.52065 0.5382 0.05394 0.0
C778 C 0.51763 0.53564 0.00999 0.0
C779 C 0.50068 0.50699 0.01121 0.0
C780 C 0.49356 0.49429 0.03414 0.0
C781 C 0.50326 0.50981 0.05527 0.0
C782 C 0.44784 0.458 0.96656 0.0
C783 C 0.4703 0.45949 0.94588 0.0
C784 C 0.45765 0.47343 0.98767 0.0
C785 C 0.49037 0.49046 0.9887 0.0
C786 C 0.51303 0.49167 0.96801 0.0
C787 C 0.50299 0.47646 0.94678 0.0
H788 H -0.00036 0.50121 0.07232 0.0
H789 H 0.95244 0.42979 0.02871 0.0
H790 H 0.01694 0.52859 0.03568 0.0
H791 H 0.97099 0.45644 0.99205 0.0
H792 H 0.97524 0.52585 0.93119 0.0
H793 H 0.95678 0.49956 0.96815 0.0
H794 H 0.05822 0.52763 0.0026 0.0
H795 H 0.07576 0.55483 0.96605 0.0
C796 C 0.99335 0.49122 0.05488 0.0
C797 C 0.97468 0.46341 0.05336 0.0
C798 C 0.0034 0.50683 0.03385 0.0
C799 C 0.99533 0.49479 0.01083 0.0
C800 C 0.97704 0.46671 0.00941 0.0
C801 C 0.96668 0.45128 0.03044 0.0
C802 C 0.99344 0.52646 0.94673 0.0
C803 C 0.02685 0.54243 0.94577 0.0
C804 C 0.98304 0.51122 0.96787 0.0
C805 C 0.00603 0.51138 0.98842 0.0
C806 C 0.0395 0.52741 0.98733 0.0
C807 C 0.04968 0.54288 0.96631 0.0
H808 H 0.00011 0.49875 0.57276 0.0
H809 H 0.95521 0.5712 0.52918 0.0
H810 H 0.01742 0.47141 0.53604 0.0
H811 H 0.97373 0.54462 0.49254 0.0
H812 H 0.97702 0.47631 0.43123 0.0
H813 H 0.95857 0.50198 0.46845 0.0
H814 H 0.05913 0.47207 0.50302 0.0
H815 H 0.07667 0.44549 0.46616 0.0
C816 C 0.99434 0.50896 0.55532 0.0
C817 C 0.97628 0.53704 0.55381 0.0
C818 C 0.00437 0.49338 0.53426 0.0
C819 C 0.99686 0.50573 0.51126 0.0
C820 C 0.97927 0.5341 0.50988 0.0
C821 C 0.96893 0.54948 0.5309 0.0
C822 C 0.99504 0.47517 0.44684 0.0
C823 C 0.02823 0.45891 0.44582 0.0
C824 C 0.98464 0.49004 0.46814 0.0
C825 C 0.00742 0.48923 0.48878 0.0
C826 C 0.0406 0.47282 0.48766 0.0
C827 C 0.05079 0.45772 0.46647 0.0
H828 H 0.50739 0.50485 0.57457 0.0
H829 H 0.54154 0.42918 0.53028 0.0
H830 H 0.49116 0.5333 0.53815 0.0
H831 H 0.52403 0.45692 0.49399 0.0
H832 H 0.52415 0.52398 0.43222 0.0
H833 H 0.54257 0.49819 0.46937 0.0
H834 H 0.4476 0.5355 0.50612 0.0
H835 H 0.43017 0.56215 0.46926 0.0
C836 C 0.51101 0.4942 0.55705 0.0
C837 C 0.52577 0.46487 0.55523 0.0
C838 C 0.50162 0.51043 0.53617 0.0
C839 C 0.50645 0.49749 0.51306 0.0
C840 C 0.52068 0.4679 0.5114 0.0
C841 C 0.53042 0.45186 0.53222 0.0
C842 C 0.50743 0.5268 0.44831 0.0
C843 C 0.47574 0.54502 0.44785 0.0
C844 C 0.51778 0.51185 0.46957 0.0
C845 C 0.49643 0.51456 0.49076 0.0
C846 C 0.46499 0.53318 0.49029 0.0
C847 C 0.45486 0.54834 0.4691 0.0
loop_
_geom_bond_atom_site_label_1
_geom_bond_atom_site_label_2
_geom_bond_distance
_geom_bond_site_symmetry_2
_ccdc_geom_bond_type
In0 O1 2.294 . S
In0 O2 2.326 . S
In0 O6 2.266 . S
In0 O7 2.326 . S
In0 O8 2.266 . S
In0 O9 2.326 . S
In0 O11 2.294 . S
In0 O12 2.326 . S
O1 In0 2.294 . S
O1 C10 1.240 . S
O2 In0 2.326 . S
O2 C10 1.252 . S
C3 O6 1.252 . S
C3 O7 1.260 . S
C4 O11 1.240 . S
C4 O12 1.252 . S
C5 O8 1.252 . S
C5 O9 1.260 . S
O6 In0 2.266 . S
O6 C3 1.252 . S
O7 In0 2.326 . S
O7 C3 1.260 . S
O8 In0 2.266 . S
O8 C5 1.252 . S
O9 In0 2.326 . S
O9 C5 1.260 . S
C10 O1 1.240 . S
C10 O2 1.252 . S
O11 In0 2.294 . S
O11 C4 1.240 . S
O12 In0 2.326 . S
O12 C4 1.252 . S
In13 O14 2.294 . S
In13 O15 2.326 . S
In13 O19 2.266 . S
In13 O20 2.326 . S
In13 O21 2.266 . S
In13 O22 2.326 . S
In13 O24 2.294 . S
In13 O25 2.326 . S
O14 In13 2.294 . S
O14 C23 1.240 . S
O15 In13 2.326 . S
O15 C23 1.252 . S
C16 O19 1.252 . S
C16 O20 1.260 . S
C17 O24 1.240 . S
C17 O25 1.252 . S
C18 O21 1.252 . S
C18 O22 1.260 . S
O19 In13 2.266 . S
O19 C16 1.252 . S
O20 In13 2.326 . S
O20 C16 1.260 . S
O21 In13 2.266 . S
O21 C18 1.252 . S
O22 In13 2.326 . S
O22 C18 1.260 . S
C23 O14 1.240 . S
C23 O15 1.252 . S
O24 In13 2.294 . S
O24 C17 1.240 . S
O25 In13 2.326 . S
O25 C17 1.252 . S
In26 O27 2.294 . S
In26 O28 2.326 . S
In26 O32 2.266 . S
In26 O33 2.326 . S
In26 O34 2.266 . S
In26 O35 2.326 . S
In26 O37 2.294 . S
In26 O38 2.326 . S
O27 In26 2.294 . S
O27 C36 1.240 . S
O28 In26 2.326 . S
O28 C36 1.252 . S
C29 O32 1.252 . S
C29 O33 1.260 . S
C30 O37 1.240 . S
C30 O38 1.252 . S
C31 O34 1.252 . S
C31 O35 1.260 . S
O32 In26 2.266 . S
O32 C29 1.252 . S
O33 In26 2.326 . S
O33 C29 1.260 . S
O34 In26 2.266 . S
O34 C31 1.252 . S
O35 In26 2.326 . S
O35 C31 1.260 . S
C36 O27 1.240 . S
C36 O28 1.252 . S
O37 In26 2.294 . S
O37 C30 1.240 . S
O38 In26 2.326 . S
O38 C30 1.252 . S
In39 O40 2.294 . S
In39 O41 2.326 . S
In39 O45 2.266 . S
In39 O46 2.326 . S
In39 O47 2.266 . S
In39 O48 2.326 . S
In39 O50 2.294 . S
In39 O51 2.326 . S
O40 In39 2.294 . S
O40 C49 1.240 . S
O41 In39 2.326 . S
O41 C49 1.252 . S
C42 O45 1.252 . S
C42 O46 1.260 . S
C43 O50 1.240 . S
C43 O51 1.252 . S
C44 O47 1.252 . S
C44 O48 1.260 . S
O45 In39 2.266 . S
O45 C42 1.252 . S
O46 In39 2.326 . S
O46 C42 1.260 . S
O47 In39 2.266 . S
O47 C44 1.252 . S
O48 In39 2.326 . S
O48 C44 1.260 . S
C49 O40 1.240 . S
C49 O41 1.252 . S
O50 In39 2.294 . S
O50 C43 1.240 . S
O51 In39 2.326 . S
O51 C43 1.252 . S
In52 O53 2.294 . S
In52 O54 2.326 . S
In52 O58 2.266 . S
In52 O59 2.326 . S
In52 O60 2.266 . S
In52 O61 2.326 . S
In52 O63 2.294 . S
In52 O64 2.326 . S
O53 In52 2.294 . S
O53 C62 1.240 . S
O54 In52 2.326 . S
O54 C62 1.252 . S
C55 O58 1.252 . S
C55 O59 1.260 . S
C56 O63 1.240 . S
C56 O64 1.252 . S
C57 O60 1.252 . S
C57 O61 1.260 . S
O58 In52 2.266 . S
O58 C55 1.252 . S
O59 In52 2.326 . S
O59 C55 1.260 . S
O60 In52 2.266 . S
O60 C57 1.252 . S
O61 In52 2.326 . S
O61 C57 1.260 . S
C62 O53 1.240 . S
C62 O54 1.252 . S
O63 In52 2.294 . S
O63 C56 1.240 . S
O64 In52 2.326 . S
O64 C56 1.252 . S
In65 O66 2.294 . S
In65 O67 2.326 . S
In65 O71 2.266 . S
In65 O72 2.326 . S
In65 O73 2.266 . S
In65 O74 2.326 . S
In65 O76 2.294 . S
In65 O77 2.326 . S
O66 In65 2.294 . S
O66 C75 1.240 . S
O67 In65 2.326 . S
O67 C75 1.252 . S
C68 O71 1.252 . S
C68 O72 1.260 . S
C69 O76 1.240 . S
C69 O77 1.252 . S
C70 O73 1.252 . S
C70 O74 1.260 . S
O71 In65 2.266 . S
O71 C68 1.252 . S
O72 In65 2.326 . S
O72 C68 1.260 . S
O73 In65 2.266 . S
O73 C70 1.252 . S
O74 In65 2.326 . S
O74 C70 1.260 . S
C75 O66 1.240 . S
C75 O67 1.252 . S
O76 In65 2.294 . S
O76 C69 1.240 . S
O77 In65 2.326 . S
O77 C69 1.252 . S
In78 O79 2.294 . S
In78 O80 2.326 . S
In78 O84 2.266 . S
In78 O85 2.326 . S
In78 O86 2.266 . S
In78 O87 2.326 . S
In78 O89 2.294 . S
In78 O90 2.326 . S
O79 In78 2.294 . S
O79 C88 1.240 . S
O80 In78 2.326 . S
O80 C88 1.252 . S
C81 O84 1.252 . S
C81 O85 1.260 . S
C82 O89 1.240 . S
C82 O90 1.252 . S
C83 O86 1.252 . S
C83 O87 1.260 . S
O84 In78 2.266 . S
O84 C81 1.252 . S
O85 In78 2.326 . S
O85 C81 1.260 . S
O86 In78 2.266 . S
O86 C83 1.252 . S
O87 In78 2.326 . S
O87 C83 1.260 . S
C88 O79 1.240 . S
C88 O80 1.252 . S
O89 In78 2.294 . S
O89 C82 1.240 . S
O90 In78 2.326 . S
O90 C82 1.252 . S
In91 O92 2.294 . S
In91 O93 2.326 . S
In91 O97 2.266 . S
In91 O98 2.326 . S
In91 O99 2.266 . S
In91 O100 2.326 . S
In91 O102 2.294 . S
In91 O103 2.326 . S
O92 In91 2.294 . S
O92 C101 1.240 . S
O93 In91 2.326 . S
O93 C101 1.252 . S
C94 O97 1.252 . S
C94 O98 1.260 . S
C95 O102 1.240 . S
C95 O103 1.252 . S
C96 O99 1.252 . S
C96 O100 1.260 . S
O97 In91 2.266 . S
O97 C94 1.252 . S
O98 In91 2.326 . S
O98 C94 1.260 . S
O99 In91 2.266 . S
O99 C96 1.252 . S
O100 In91 2.326 . S
O100 C96 1.260 . S
C101 O92 1.240 . S
C101 O93 1.252 . S
O102 In91 2.294 . S
O102 C95 1.240 . S
O103 In91 2.326 . S
O103 C95 1.252 . S
In104 O105 2.294 . S
In104 O106 2.326 . S
In104 O110 2.266 . S
In104 O111 2.326 . S
In104 O112 2.266 . S
In104 O113 2.326 . S
In104 O115 2.294 . S
In104 O116 2.326 . S
O105 In104 2.294 . S
O105 C114 1.240 . S
O106 In104 2.326 . S
O106 C114 1.252 . S
C107 O110 1.252 . S
C107 O111 1.260 . S
C108 O115 1.240 . S
C108 O116 1.252 . S
C109 O112 1.252 . S
C109 O113 1.260 . S
O110 In104 2.266 . S
O110 C107 1.252 . S
O111 In104 2.326 . S
O111 C107 1.260 . S
O112 In104 2.266 . S
O112 C109 1.252 . S
O113 In104 2.326 . S
O113 C109 1.260 . S
C114 O105 1.240 . S
C114 O106 1.252 . S
O115 In104 2.294 . S
O115 C108 1.240 . S
O116 In104 2.326 . S
O116 C108 1.252 . S
In117 O118 2.294 . S
In117 O119 2.326 . S
In117 O123 2.266 . S
In117 O124 2.326 . S
In117 O125 2.266 . S
In117 O126 2.326 . S
In117 O128 2.294 . S
In117 O129 2.326 . S
O118 In117 2.294 . S
O118 C127 1.240 . S
O119 In117 2.326 . S
O119 C127 1.252 . S
C120 O123 1.252 . S
C120 O124 1.260 . S
C121 O128 1.240 . S
C121 O129 1.252 . S
C122 O125 1.252 . S
C122 O126 1.260 . S
O123 In117 2.266 . S
O123 C120 1.252 . S
O124 In117 2.326 . S
O124 C120 1.260 . S
O125 In117 2.266 . S
O125 C122 1.252 . S
O126 In117 2.326 . S
O126 C122 1.260 . S
C127 O118 1.240 . S
C127 O119 1.252 . S
O128 In117 2.294 . S
O128 C121 1.240 . S
O129 In117 2.326 . S
O129 C121 1.252 . S
In130 O131 2.294 . S
In130 O132 2.326 . S
In130 O136 2.266 . S
In130 O137 2.326 . S
In130 O138 2.266 . S
In130 O139 2.326 . S
In130 O141 2.294 . S
In130 O142 2.326 . S
O131 In130 2.294 . S
O131 C140 1.240 . S
O132 In130 2.326 . S
O132 C140 1.252 . S
C133 O136 1.252 . S
C133 O137 1.260 . S
C134 O141 1.240 . S
C134 O142 1.252 . S
C135 O138 1.252 . S
C135 O139 1.260 . S
O136 In130 2.266 . S
O136 C133 1.252 . S
O137 In130 2.326 . S
O137 C133 1.260 . S
O138 In130 2.266 . S
O138 C135 1.252 . S
O139 In130 2.326 . S
O139 C135 1.260 . S
C140 O131 1.240 . S
C140 O132 1.252 . S
O141 In130 2.294 . S
O141 C134 1.240 . S
O142 In130 2.326 . S
O142 C134 1.252 . S
In143 O144 2.294 . S
In143 O145 2.326 . S
In143 O149 2.266 . S
In143 O150 2.326 . S
In143 O151 2.266 . S
In143 O152 2.326 . S
In143 O154 2.294 . S
In143 O155 2.326 . S
O144 In143 2.294 . S
O144 C153 1.240 . S
O145 In143 2.326 . S
O145 C153 1.252 . S
C146 O149 1.252 . S
C146 O150 1.260 . S
C147 O154 1.240 . S
C147 O155 1.252 . S
C148 O151 1.252 . S
C148 O152 1.260 . S
O149 In143 2.266 . S
O149 C146 1.252 . S
O150 In143 2.326 . S
O150 C146 1.260 . S
O151 In143 2.266 . S
O151 C148 1.252 . S
O152 In143 2.326 . S
O152 C148 1.260 . S
C153 O144 1.240 . S
C153 O145 1.252 . S
O154 In143 2.294 . S
O154 C147 1.240 . S
O155 In143 2.326 . S
O155 C147 1.252 . S
In156 O157 2.294 . S
In156 O158 2.326 . S
In156 O162 2.266 . S
In156 O163 2.326 . S
In156 O164 2.266 . S
In156 O165 2.326 . S
In156 O167 2.294 . S
In156 O168 2.326 . S
O157 In156 2.294 . S
O157 C166 1.240 . S
O158 In156 2.326 . S
O158 C166 1.252 . S
C159 O162 1.252 . S
C159 O163 1.260 . S
C160 O167 1.240 . S
C160 O168 1.252 . S
C161 O164 1.252 . S
C161 O165 1.260 . S
O162 In156 2.266 . S
O162 C159 1.252 . S
O163 In156 2.326 . S
O163 C159 1.260 . S
O164 In156 2.266 . S
O164 C161 1.252 . S
O165 In156 2.326 . S
O165 C161 1.260 . S
C166 O157 1.240 . S
C166 O158 1.252 . S
O167 In156 2.294 . S
O167 C160 1.240 . S
O168 In156 2.326 . S
O168 C160 1.252 . S
In169 O170 2.294 . S
In169 O171 2.326 . S
In169 O175 2.266 . S
In169 O176 2.326 . S
In169 O177 2.266 . S
In169 O178 2.326 . S
In169 O180 2.294 . S
In169 O181 2.326 . S
O170 In169 2.294 . S
O170 C179 1.240 . S
O171 In169 2.326 . S
O171 C179 1.252 . S
C172 O175 1.252 . S
C172 O176 1.260 . S
C173 O180 1.240 . S
C173 O181 1.252 . S
C174 O177 1.252 . S
C174 O178 1.260 . S
O175 In169 2.266 . S
O175 C172 1.252 . S
O176 In169 2.326 . S
O176 C172 1.260 . S
O177 In169 2.266 . S
O177 C174 1.252 . S
O178 In169 2.326 . S
O178 C174 1.260 . S
C179 O170 1.240 . S
C179 O171 1.252 . S
O180 In169 2.294 . S
O180 C173 1.240 . S
O181 In169 2.326 . S
O181 C173 1.252 . S
In182 O183 2.294 . S
In182 O184 2.326 . S
In182 O188 2.266 . S
In182 O189 2.326 . S
In182 O190 2.266 . S
In182 O191 2.326 . S
In182 O193 2.294 . S
In182 O194 2.326 . S
O183 In182 2.294 . S
O183 C192 1.240 . S
O184 In182 2.326 . S
O184 C192 1.252 . S
C185 O188 1.252 . S
C185 O189 1.260 . S
C186 O193 1.240 . S
C186 O194 1.252 . S
C187 O190 1.252 . S
C187 O191 1.260 . S
O188 In182 2.266 . S
O188 C185 1.252 . S
O189 In182 2.326 . S
O189 C185 1.260 . S
O190 In182 2.266 . S
O190 C187 1.252 . S
O191 In182 2.326 . S
O191 C187 1.260 . S
C192 O183 1.240 . S
C192 O184 1.252 . S
O193 In182 2.294 . S
O193 C186 1.240 . S
O194 In182 2.326 . S
O194 C186 1.252 . S
In195 O196 2.294 . S
In195 O197 2.326 . S
In195 O201 2.266 . S
In195 O202 2.326 . S
In195 O203 2.266 . S
In195 O204 2.326 . S
In195 O206 2.294 . S
In195 O207 2.326 . S
O196 In195 2.294 . S
O196 C205 1.240 . S
O197 In195 2.326 . S
O197 C205 1.252 . S
C198 O201 1.252 . S
C198 O202 1.260 . S
C199 O206 1.240 . S
C199 O207 1.252 . S
C200 O203 1.252 . S
C200 O204 1.260 . S
O201 In195 2.266 . S
O201 C198 1.252 . S
O202 In195 2.326 . S
O202 C198 1.260 . S
O203 In195 2.266 . S
O203 C200 1.252 . S
O204 In195 2.326 . S
O204 C200 1.260 . S
C205 O196 1.240 . S
C205 O197 1.252 . S
O206 In195 2.294 . S
O206 C199 1.240 . S
O207 In195 2.326 . S
O207 C199 1.252 . S
H208 C216 0.950 . S
H209 C221 0.950 . S
H210 C218 0.950 1_545 S
H211 C220 0.950 . S
H212 C222 0.950 . S
H213 C224 0.950 1_565 S
H214 C226 0.950 . S
H215 C227 0.950 . S
C216 H208 0.950 . S
C216 C217 1.386 . S
C216 C218 1.391 . S
C217 C216 1.386 . S
C217 C221 1.393 . S
C218 H210 0.950 1_565 S
C218 C216 1.391 . S
C218 C219 1.400 . S
C219 C218 1.400 . S
C219 C220 1.398 . S
C219 C225 1.491 1_565 S
C220 H211 0.950 . S
C220 C219 1.398 . S
C220 C221 1.391 . S
C221 H209 0.950 . S
C221 C217 1.393 . S
C221 C220 1.391 . S
C222 H212 0.950 . S
C222 C223 1.386 . S
C222 C224 1.391 . S
C223 C222 1.386 . S
C223 C227 1.393 . S
C224 H213 0.950 1_545 S
C224 C222 1.391 . S
C224 C225 1.400 . S
C225 C219 1.491 1_545 S
C225 C224 1.400 . S
C225 C226 1.398 . S
C226 H214 0.950 . S
C226 C225 1.398 . S
C226 C227 1.391 . S
C227 H215 0.950 . S
C227 C223 1.393 . S
C227 C226 1.391 . S
H228 C236 0.950 . S
H229 C241 0.950 . S
H230 C238 0.950 . S
H231 C240 0.950 . S
H232 C242 0.950 . S
H233 C244 0.950 . S
H234 C246 0.950 . S
H235 C247 0.950 . S
C236 H228 0.950 . S
C236 C237 1.386 . S
C236 C238 1.391 . S
C237 C236 1.386 . S
C237 C241 1.393 . S
C238 H230 0.950 . S
C238 C236 1.391 . S
C238 C239 1.400 . S
C239 C238 1.400 . S
C239 C240 1.398 . S
C239 C245 1.491 1_565 S
C240 H231 0.950 . S
C240 C239 1.398 . S
C240 C241 1.391 . S
C241 H229 0.950 . S
C241 C237 1.393 . S
C241 C240 1.391 . S
C242 H232 0.950 . S
C242 C243 1.386 . S
C242 C244 1.391 . S
C243 C242 1.386 . S
C243 C247 1.393 . S
C244 H233 0.950 . S
C244 C242 1.391 . S
C244 C245 1.400 . S
C245 C239 1.491 1_545 S
C245 C244 1.400 . S
C245 C246 1.398 . S
C246 H234 0.950 . S
C246 C245 1.398 . S
C246 C247 1.391 . S
C247 H235 0.950 . S
C247 C243 1.393 . S
C247 C246 1.391 . S
H248 C256 0.950 . S
H249 C261 0.953 . S
H250 C258 0.950 . S
H251 C260 0.950 . S
H252 C262 0.950 . S
H253 C264 0.950 . S
H254 C266 0.950 . S
H255 C267 0.953 . S
C256 H248 0.950 . S
C256 C257 1.386 . S
C256 C258 1.391 . S
C257 C256 1.386 . S
C257 C261 1.393 . S
C258 H250 0.950 . S
C258 C256 1.391 . S
C258 C259 1.400 . S
C259 C258 1.400 . S
C259 C260 1.398 1_565 S
C259 C265 1.491 1_565 S
C260 H251 0.950 . S
C260 C259 1.398 1_545 S
C260 C261 1.391 1_545 S
C261 H249 0.953 . S
C261 C257 1.393 . S
C261 C260 1.391 1_565 S
C262 H252 0.950 . S
C262 C263 1.386 . S
C262 C264 1.391 . S
C263 C262 1.386 . S
C263 C267 1.393 . S
C264 H253 0.950 . S
C264 C262 1.391 . S
C264 C265 1.400 . S
C265 C259 1.491 1_545 S
C265 C264 1.400 . S
C265 C266 1.398 1_545 S
C266 H254 0.950 . S
C266 C265 1.398 1_565 S
C266 C267 1.391 1_565 S
C267 H255 0.953 . S
C267 C263 1.393 . S
C267 C266 1.391 1_545 S
H268 C276 0.950 . S
H269 C281 0.950 . S
H270 C278 0.950 . S
H271 C280 0.950 . S
H272 C282 0.950 . S
H273 C284 0.950 . S
H274 C286 0.950 . S
H275 C287 0.950 . S
C276 H268 0.950 . S
C276 C277 1.386 . S
C276 C278 1.391 1_565 S
C277 C276 1.386 . S
C277 C281 1.393 . S
C278 H270 0.950 . S
C278 C276 1.391 1_545 S
C278 C279 1.400 1_545 S
C279 C278 1.400 1_565 S
C279 C280 1.398 . S
C279 C285 1.491 1_565 S
C280 H271 0.950 . S
C280 C279 1.398 . S
C280 C281 1.391 . S
C281 H269 0.950 . S
C281 C277 1.393 . S
C281 C280 1.391 . S
C282 H272 0.950 . S
C282 C283 1.386 . S
C282 C284 1.391 1_545 S
C283 C282 1.386 . S
C283 C287 1.393 . S
C284 H273 0.950 . S
C284 C282 1.391 1_565 S
C284 C285 1.400 1_565 S
C285 C279 1.491 1_545 S
C285 C284 1.400 1_545 S
C285 C286 1.398 . S
C286 H274 0.950 . S
C286 C285 1.398 . S
C286 C287 1.391 . S
C287 H275 0.950 . S
C287 C283 1.393 . S
C287 C286 1.391 . S
H288 C296 0.950 . S
H289 C301 0.950 . S
H290 C298 0.950 . S
H291 C300 0.950 . S
H292 C302 0.950 . S
H293 C304 0.950 . S
H294 C306 0.950 . S
H295 C307 0.950 . S
C296 H288 0.950 . S
C296 C297 1.386 . S
C296 C298 1.391 . S
C297 C296 1.386 . S
C297 C301 1.393 . S
C298 H290 0.950 . S
C298 C296 1.391 . S
C298 C299 1.400 . S
C299 C298 1.400 . S
C299 C300 1.398 . S
C299 C305 1.491 . S
C300 H291 0.950 . S
C300 C299 1.398 . S
C300 C301 1.391 . S
C301 H289 0.950 . S
C301 C297 1.393 . S
C301 C300 1.391 . S
C302 H292 0.950 . S
C302 C303 1.386 . S
C302 C304 1.391 . S
C303 C302 1.386 . S
C303 C307 1.393 . S
C304 H293 0.950 . S
C304 C302 1.391 . S
C304 C305 1.400 . S
C305 C299 1.491 . S
C305 C304 1.400 . S
C305 C306 1.398 . S
C306 H294 0.950 . S
C306 C305 1.398 . S
C306 C307 1.391 . S
C307 H295 0.950 . S
C307 C303 1.393 . S
C307 C306 1.391 . S
H308 C316 0.950 . S
H309 C321 0.950 . S
H310 C318 0.950 . S
H311 C320 0.950 . S
H312 C322 0.950 . S
H313 C324 0.950 . S
H314 C326 0.950 . S
H315 C327 0.950 . S
C316 H308 0.950 . S
C316 C317 1.386 . S
C316 C318 1.391 . S
C317 C316 1.386 . S
C317 C321 1.393 . S
C318 H310 0.950 . S
C318 C316 1.391 . S
C318 C319 1.400 . S
C319 C318 1.400 . S
C319 C320 1.398 . S
C319 C325 1.491 . S
C320 H311 0.950 . S
C320 C319 1.398 . S
C320 C321 1.391 . S
C321 H309 0.950 . S
C321 C317 1.393 . S
C321 C320 1.391 . S
C322 H312 0.950 . S
C322 C323 1.386 . S
C322 C324 1.391 . S
C323 C322 1.386 . S
C323 C327 1.393 . S
C324 H313 0.950 . S
C324 C322 1.391 . S
C324 C325 1.400 . S
C325 C319 1.491 . S
C325 C324 1.400 . S
C325 C326 1.398 . S
C326 H314 0.950 . S
C326 C325 1.398 . S
C326 C327 1.391 . S
C327 H315 0.950 . S
C327 C323 1.393 . S
C327 C326 1.391 . S
H328 C336 0.950 . S
H329 C341 0.950 . S
H330 C338 0.950 . S
H331 C340 0.950 . S
H332 C342 0.950 . S
H333 C344 0.950 . S
H334 C346 0.950 . S
H335 C347 0.950 . S
C336 H328 0.950 . S
C336 C337 1.386 . S
C336 C338 1.391 . S
C337 C336 1.386 . S
C337 C341 1.393 . S
C338 H330 0.950 . S
C338 C336 1.391 . S
C338 C339 1.400 . S
C339 C338 1.400 . S
C339 C340 1.398 . S
C339 C345 1.491 . S
C340 H331 0.950 . S
C340 C339 1.398 . S
C340 C341 1.391 . S
C341 H329 0.950 . S
C341 C337 1.393 . S
C341 C340 1.391 . S
C342 H332 0.950 . S
C342 C343 1.386 . S
C342 C344 1.391 . S
C343 C342 1.386 . S
C343 C347 1.393 . S
C344 H333 0.950 . S
C344 C342 1.391 . S
C344 C345 1.400 . S
C345 C339 1.491 . S
C345 C344 1.400 . S
C345 C346 1.398 . S
C346 H334 0.950 . S
C346 C345 1.398 . S
C346 C347 1.391 . S
C347 H335 0.950 . S
C347 C343 1.393 . S
C347 C346 1.391 . S
H348 C356 0.950 . S
H349 C361 0.950 . S
H350 C358 0.950 . S
H351 C360 0.950 . S
H352 C362 0.950 . S
H353 C364 0.950 . S
H354 C366 0.950 . S
H355 C367 0.950 . S
C356 H348 0.950 . S
C356 C357 1.386 . S
C356 C358 1.391 . S
C357 C356 1.386 . S
C357 C361 1.393 . S
C358 H350 0.950 . S
C358 C356 1.391 . S
C358 C359 1.400 . S
C359 C358 1.400 . S
C359 C360 1.398 . S
C359 C365 1.491 . S
C360 H351 0.950 . S
C360 C359 1.398 . S
C360 C361 1.391 . S
C361 H349 0.950 . S
C361 C357 1.393 . S
C361 C360 1.391 . S
C362 H352 0.950 . S
C362 C363 1.386 . S
C362 C364 1.391 . S
C363 C362 1.386 . S
C363 C367 1.393 . S
C364 H353 0.950 . S
C364 C362 1.391 . S
C364 C365 1.400 . S
C365 C359 1.491 . S
C365 C364 1.400 . S
C365 C366 1.398 . S
C366 H354 0.950 . S
C366 C365 1.398 . S
C366 C367 1.391 . S
C367 H355 0.950 . S
C367 C363 1.393 . S
C367 C366 1.391 . S
H368 C376 0.950 . S
H369 C381 0.950 . S
H370 C378 0.950 1_455 S
H371 C380 0.950 . S
H372 C382 0.950 . S
H373 C384 0.950 1_655 S
H374 C386 0.950 . S
H375 C387 0.950 . S
C376 H368 0.950 . S
C376 C377 1.386 . S
C376 C378 1.391 . S
C377 C376 1.386 . S
C377 C381 1.393 . S
C378 H370 0.950 1_655 S
C378 C376 1.391 . S
C378 C379 1.400 . S
C379 C378 1.400 . S
C379 C380 1.398 . S
C379 C385 1.491 1_655 S
C380 H371 0.950 . S
C380 C379 1.398 . S
C380 C381 1.391 . S
C381 H369 0.950 . S
C381 C377 1.393 . S
C381 C380 1.391 . S
C382 H372 0.950 . S
C382 C383 1.386 . S
C382 C384 1.391 . S
C383 C382 1.386 . S
C383 C387 1.393 . S
C384 H373 0.950 1_455 S
C384 C382 1.391 . S
C384 C385 1.400 . S
C385 C379 1.491 1_455 S
C385 C384 1.400 . S
C385 C386 1.398 . S
C386 H374 0.950 . S
C386 C385 1.398 . S
C386 C387 1.391 . S
C387 H375 0.950 . S
C387 C383 1.393 . S
C387 C386 1.391 . S
H388 C396 0.950 . S
H389 C401 0.950 . S
H390 C398 0.950 . S
H391 C400 0.950 . S
H392 C402 0.950 . S
H393 C404 0.950 . S
H394 C406 0.950 . S
H395 C407 0.950 . S
C396 H388 0.950 . S
C396 C397 1.386 . S
C396 C398 1.391 . S
C397 C396 1.386 . S
C397 C401 1.393 . S
C398 H390 0.950 . S
C398 C396 1.391 . S
C398 C399 1.400 . S
C399 C398 1.400 . S
C399 C400 1.398 . S
C399 C405 1.491 . S
C400 H391 0.950 . S
C400 C399 1.398 . S
C400 C401 1.391 . S
C401 H389 0.950 . S
C401 C397 1.393 . S
C401 C400 1.391 . S
C402 H392 0.950 . S
C402 C403 1.386 . S
C402 C404 1.391 . S
C403 C402 1.386 . S
C403 C407 1.393 . S
C404 H393 0.950 . S
C404 C402 1.391 . S
C404 C405 1.400 . S
C405 C399 1.491 . S
C405 C404 1.400 . S
C405 C406 1.398 . S
C406 H394 0.950 . S
C406 C405 1.398 . S
C406 C407 1.391 . S
C407 H395 0.950 . S
C407 C403 1.393 . S
C407 C406 1.391 . S
H408 C416 0.950 . S
H409 C421 0.950 . S
H410 C418 0.950 . S
H411 C420 0.946 1_655 S
H412 C422 0.950 . S
H413 C424 0.950 . S
H414 C426 0.946 1_455 S
H415 C427 0.950 . S
C416 H408 0.950 . S
C416 C417 1.386 . S
C416 C418 1.391 . S
C417 C416 1.386 . S
C417 C421 1.393 . S
C418 H410 0.950 . S
C418 C416 1.391 . S
C418 C419 1.400 . S
C419 C418 1.400 . S
C419 C420 1.400 . S
C419 C425 1.491 1_455 S
C420 H411 0.946 1_455 S
C420 C419 1.400 . S
C420 C421 1.394 . S
C421 H409 0.950 . S
C421 C417 1.393 . S
C421 C420 1.394 . S
C422 H412 0.950 . S
C422 C423 1.386 . S
C422 C424 1.391 . S
C423 C422 1.386 . S
C423 C427 1.393 . S
C424 H413 0.950 . S
C424 C422 1.391 . S
C424 C425 1.400 . S
C425 C419 1.491 1_655 S
C425 C424 1.400 . S
C425 C426 1.400 . S
C426 H414 0.946 1_655 S
C426 C425 1.400 . S
C426 C427 1.394 . S
C427 H415 0.950 . S
C427 C423 1.393 . S
C427 C426 1.394 . S
H428 C436 0.950 . S
H429 C441 0.950 . S
H430 C438 0.950 . S
H431 C440 0.950 . S
H432 C442 0.950 . S
H433 C444 0.950 . S
H434 C446 0.950 . S
H435 C447 0.950 . S
C436 H428 0.950 . S
C436 C437 1.386 . S
C436 C438 1.391 . S
C437 C436 1.386 . S
C437 C441 1.393 . S
C438 H430 0.950 . S
C438 C436 1.391 . S
C438 C439 1.400 . S
C439 C438 1.400 . S
C439 C440 1.398 . S
C439 C445 1.491 . S
C440 H431 0.950 . S
C440 C439 1.398 . S
C440 C441 1.391 . S
C441 H429 0.950 . S
C441 C437 1.393 . S
C441 C440 1.391 . S
C442 H432 0.950 . S
C442 C443 1.386 . S
C442 C444 1.391 . S
C443 C442 1.386 . S
C443 C447 1.393 . S
C444 H433 0.950 . S
C444 C442 1.391 . S
C444 C445 1.400 . S
C445 C439 1.491 . S
C445 C444 1.400 . S
C445 C446 1.398 . S
C446 H434 0.950 . S
C446 C445 1.398 . S
C446 C447 1.391 . S
C447 H435 0.950 . S
C447 C443 1.393 . S
C447 C446 1.391 . S
H448 C456 0.950 . S
H449 C461 0.950 . S
H450 C458 0.950 . S
H451 C460 0.950 . S
H452 C462 0.950 . S
H453 C464 0.950 . S
H454 C466 0.950 . S
H455 C467 0.950 . S
C456 H448 0.950 . S
C456 C457 1.386 . S
C456 C458 1.391 . S
C457 C456 1.386 . S
C457 C461 1.393 . S
C458 H450 0.950 . S
C458 C456 1.391 . S
C458 C459 1.400 . S
C459 C458 1.400 . S
C459 C460 1.398 . S
C459 C465 1.491 . S
C460 H451 0.950 . S
C460 C459 1.398 . S
C460 C461 1.391 . S
C461 H449 0.950 . S
C461 C457 1.393 . S
C461 C460 1.391 . S
C462 H452 0.950 . S
C462 C463 1.386 . S
C462 C464 1.391 . S
C463 C462 1.386 . S
C463 C467 1.393 . S
C464 H453 0.950 . S
C464 C462 1.391 . S
C464 C465 1.400 . S
C465 C459 1.491 . S
C465 C464 1.400 . S
C465 C466 1.398 . S
C466 H454 0.950 . S
C466 C465 1.398 . S
C466 C467 1.391 . S
C467 H455 0.950 . S
C467 C463 1.393 . S
C467 C466 1.391 . S
H468 C476 0.950 . S
H469 C481 0.950 . S
H470 C478 0.950 . S
H471 C480 0.950 . S
H472 C482 0.950 . S
H473 C484 0.950 . S
H474 C486 0.950 . S
H475 C487 0.950 . S
C476 H468 0.950 . S
C476 C477 1.386 1_655 S
C476 C478 1.391 . S
C477 C476 1.386 1_455 S
C477 C481 1.393 . S
C478 H470 0.950 . S
C478 C476 1.391 . S
C478 C479 1.400 1_655 S
C479 C478 1.400 1_455 S
C479 C480 1.398 . S
C479 C485 1.491 1_455 S
C480 H471 0.950 . S
C480 C479 1.398 . S
C480 C481 1.391 . S
C481 H469 0.950 . S
C481 C477 1.393 . S
C481 C480 1.391 . S
C482 H472 0.950 . S
C482 C483 1.386 1_455 S
C482 C484 1.391 . S
C483 C482 1.386 1_655 S
C483 C487 1.393 . S
C484 H473 0.950 . S
C484 C482 1.391 . S
C484 C485 1.400 1_455 S
C485 C479 1.491 1_655 S
C485 C484 1.400 1_655 S
C485 C486 1.398 . S
C486 H474 0.950 . S
C486 C485 1.398 . S
C486 C487 1.391 . S
C487 H475 0.950 . S
C487 C483 1.393 . S
C487 C486 1.391 . S
H488 C496 0.950 . S
H489 C501 0.950 . S
H490 C498 0.950 . S
H491 C500 0.950 . S
H492 C502 0.950 . S
H493 C504 0.950 . S
H494 C506 0.950 . S
H495 C507 0.950 . S
C496 H488 0.950 . S
C496 C497 1.386 . S
C496 C498 1.391 . S
C497 C496 1.386 . S
C497 C501 1.393 . S
C498 H490 0.950 . S
C498 C496 1.391 . S
C498 C499 1.400 . S
C499 C498 1.400 . S
C499 C500 1.398 . S
C499 C505 1.491 . S
C500 H491 0.950 . S
C500 C499 1.398 . S
C500 C501 1.391 . S
C501 H489 0.950 . S
C501 C497 1.393 . S
C501 C500 1.391 . S
C502 H492 0.950 . S
C502 C503 1.386 . S
C502 C504 1.391 . S
C503 C502 1.386 . S
C503 C507 1.393 . S
C504 H493 0.950 . S
C504 C502 1.391 . S
C504 C505 1.400 . S
C505 C499 1.491 . S
C505 C504 1.400 . S
C505 C506 1.398 . S
C506 H494 0.950 . S
C506 C505 1.398 . S
C506 C507 1.391 . S
C507 H495 0.950 . S
C507 C503 1.393 . S
C507 C506 1.391 . S
H508 C516 0.950 . S
H509 C521 0.950 . S
H510 C518 0.950 . S
H511 C520 0.950 . S
H512 C522 0.950 . S
H513 C524 0.950 . S
H514 C526 0.950 . S
H515 C527 0.950 . S
C516 H508 0.950 . S
C516 C517 1.386 1_655 S
C516 C518 1.391 . S
C517 C516 1.386 1_455 S
C517 C521 1.393 . S
C518 H510 0.950 . S
C518 C516 1.391 . S
C518 C519 1.400 1_655 S
C519 C518 1.400 1_455 S
C519 C520 1.398 . S
C519 C525 1.491 1_455 S
C520 H511 0.950 . S
C520 C519 1.398 . S
C520 C521 1.391 . S
C521 H509 0.950 . S
C521 C517 1.393 . S
C521 C520 1.391 . S
C522 H512 0.950 . S
C522 C523 1.386 1_455 S
C522 C524 1.391 . S
C523 C522 1.386 1_655 S
C523 C527 1.393 . S
C524 H513 0.950 . S
C524 C522 1.391 . S
C524 C525 1.400 1_455 S
C525 C519 1.491 1_655 S
C525 C524 1.400 1_655 S
C525 C526 1.398 . S
C526 H514 0.950 . S
C526 C525 1.398 . S
C526 C527 1.391 . S
C527 H515 0.950 . S
C527 C523 1.393 . S
C527 C526 1.391 . S
H528 C536 0.950 . S
H529 C541 0.950 . S
H530 C538 0.950 . S
H531 C540 0.950 . S
H532 C542 0.950 . S
H533 C544 0.950 . S
H534 C546 0.950 . S
H535 C547 0.950 . S
C536 H528 0.950 . S
C536 C537 1.386 . S
C536 C538 1.391 . S
C537 C536 1.386 . S
C537 C541 1.393 . S
C538 H530 0.950 . S
C538 C536 1.391 . S
C538 C539 1.400 . S
C539 C538 1.400 . S
C539 C540 1.398 . S
C539 C545 1.491 1_455 S
C540 H531 0.950 . S
C540 C539 1.398 . S
C540 C541 1.391 . S
C541 H529 0.950 . S
C541 C537 1.393 . S
C541 C540 1.391 . S
C542 H532 0.950 . S
C542 C543 1.386 . S
C542 C544 1.391 . S
C543 C542 1.386 . S
C543 C547 1.393 . S
C544 H533 0.950 . S
C544 C542 1.391 . S
C544 C545 1.400 . S
C545 C539 1.491 1_655 S
C545 C544 1.400 . S
C545 C546 1.398 . S
C546 H534 0.950 . S
C546 C545 1.398 . S
C546 C547 1.391 . S
C547 H535 0.950 . S
C547 C543 1.393 . S
C547 C546 1.391 . S
H548 C556 0.950 . S
H549 C561 0.950 . S
H550 C558 0.950 . S
H551 C560 0.950 . S
H552 C562 0.950 . S
H553 C564 0.950 . S
H554 C566 0.950 . S
H555 C567 0.950 . S
C556 H548 0.950 . S
C556 C557 1.386 . S
C556 C558 1.391 . S
C557 C556 1.386 . S
C557 C561 1.393 . S
C558 H550 0.950 . S
C558 C556 1.391 . S
C558 C559 1.400 . S
C559 C558 1.400 . S
C559 C560 1.398 . S
C559 C565 1.491 . S
C560 H551 0.950 . S
C560 C559 1.398 . S
C560 C561 1.391 . S
C561 H549 0.950 . S
C561 C557 1.393 . S
C561 C560 1.391 . S
C562 H552 0.950 . S
C562 C563 1.386 . S
C562 C564 1.391 . S
C563 C562 1.386 . S
C563 C567 1.393 . S
C564 H553 0.950 . S
C564 C562 1.391 . S
C564 C565 1.400 . S
C565 C559 1.491 . S
C565 C564 1.400 . S
C565 C566 1.398 . S
C566 H554 0.950 . S
C566 C565 1.398 . S
C566 C567 1.391 . S
C567 H555 0.950 . S
C567 C563 1.393 . S
C567 C566 1.391 . S
H568 C576 0.950 . S
H569 C581 0.950 . S
H570 C578 0.950 . S
H571 C580 0.950 . S
H572 C582 0.950 . S
H573 C584 0.950 . S
H574 C586 0.950 . S
H575 C587 0.950 . S
C576 H568 0.950 . S
C576 C577 1.386 . S
C576 C578 1.391 . S
C577 C576 1.386 . S
C577 C581 1.393 . S
C578 H570 0.950 . S
C578 C576 1.391 . S
C578 C579 1.400 . S
C579 C578 1.400 . S
C579 C580 1.398 . S
C579 C585 1.491 . S
C580 H571 0.950 . S
C580 C579 1.398 . S
C580 C581 1.391 . S
C581 H569 0.950 . S
C581 C577 1.393 . S
C581 C580 1.391 . S
C582 H572 0.950 . S
C582 C583 1.386 . S
C582 C584 1.391 . S
C583 C582 1.386 . S
C583 C587 1.393 . S
C584 H573 0.950 . S
C584 C582 1.391 . S
C584 C585 1.400 . S
C585 C579 1.491 . S
C585 C584 1.400 . S
C585 C586 1.398 . S
C586 H574 0.950 . S
C586 C585 1.398 . S
C586 C587 1.391 . S
C587 H575 0.950 . S
C587 C583 1.393 . S
C587 C586 1.391 . S
H588 C596 0.950 . S
H589 C601 0.950 . S
H590 C598 0.950 . S
H591 C600 0.950 . S
H592 C602 0.950 . S
H593 C604 0.950 . S
H594 C606 0.950 . S
H595 C607 0.950 . S
C596 H588 0.950 . S
C596 C597 1.386 1_655 S
C596 C598 1.391 . S
C597 C596 1.386 1_455 S
C597 C601 1.393 . S
C598 H590 0.950 . S
C598 C596 1.391 . S
C598 C599 1.400 1_655 S
C599 C598 1.400 1_455 S
C599 C600 1.398 . S
C599 C605 1.491 1_455 S
C600 H591 0.950 . S
C600 C599 1.398 . S
C600 C601 1.391 . S
C601 H589 0.950 . S
C601 C597 1.393 . S
C601 C600 1.391 . S
C602 H592 0.950 . S
C602 C603 1.386 1_455 S
C602 C604 1.391 . S
C603 C602 1.386 1_655 S
C603 C607 1.393 . S
C604 H593 0.950 . S
C604 C602 1.391 . S
C604 C605 1.400 1_455 S
C605 C599 1.491 1_655 S
C605 C604 1.400 1_655 S
C605 C606 1.398 . S
C606 H594 0.950 . S
C606 C605 1.398 . S
C606 C607 1.391 . S
C607 H595 0.950 . S
C607 C603 1.393 . S
C607 C606 1.391 . S
H608 C616 0.950 . S
H609 C621 0.950 . S
H610 C618 0.950 . S
H611 C620 0.950 . S
H612 C622 0.950 . S
H613 C624 0.950 . S
H614 C626 0.950 . S
H615 C627 0.950 . S
C616 H608 0.950 . S
C616 C617 1.386 . S
C616 C618 1.391 . S
C617 C616 1.386 . S
C617 C621 1.393 1_455 S
C618 H610 0.950 . S
C618 C616 1.391 . S
C618 C619 1.400 . S
C619 C618 1.400 . S
C619 C620 1.398 1_455 S
C619 C625 1.491 1_455 S
C620 H611 0.950 . S
C620 C619 1.398 1_655 S
C620 C621 1.391 . S
C621 H609 0.950 . S
C621 C617 1.393 1_655 S
C621 C620 1.391 . S
C622 H612 0.950 . S
C622 C623 1.386 . S
C622 C624 1.391 . S
C623 C622 1.386 . S
C623 C627 1.393 1_655 S
C624 H613 0.950 . S
C624 C622 1.391 . S
C624 C625 1.400 . S
C625 C619 1.491 1_655 S
C625 C624 1.400 . S
C625 C626 1.398 1_655 S
C626 H614 0.950 . S
C626 C625 1.398 1_455 S
C626 C627 1.391 . S
C627 H615 0.950 . S
C627 C623 1.393 1_455 S
C627 C626 1.391 . S
H628 C636 0.950 . S
H629 C641 0.950 . S
H630 C638 0.950 . S
H631 C640 0.950 . S
H632 C642 0.950 . S
H633 C644 0.950 . S
H634 C646 0.950 . S
H635 C647 0.950 . S
C636 H628 0.950 . S
C636 C637 1.386 . S
C636 C638 1.391 . S
C637 C636 1.386 . S
C637 C641 1.393 . S
C638 H630 0.950 . S
C638 C636 1.391 . S
C638 C639 1.400 . S
C639 C638 1.400 . S
C639 C640 1.398 . S
C639 C645 1.491 . S
C640 H631 0.950 . S
C640 C639 1.398 . S
C640 C641 1.391 . S
C641 H629 0.950 . S
C641 C637 1.393 . S
C641 C640 1.391 . S
C642 H632 0.950 . S
C642 C643 1.386 . S
C642 C644 1.391 . S
C643 C642 1.386 . S
C643 C647 1.393 . S
C644 H633 0.950 . S
C644 C642 1.391 . S
C644 C645 1.400 . S
C645 C639 1.491 . S
C645 C644 1.400 . S
C645 C646 1.398 . S
C646 H634 0.950 . S
C646 C645 1.398 . S
C646 C647 1.391 . S
C647 H635 0.950 . S
C647 C643 1.393 . S
C647 C646 1.391 . S
H648 C656 0.950 . S
H649 C661 0.950 . S
H650 C658 0.950 . S
H651 C660 0.950 . S
H652 C662 0.950 . S
H653 C664 0.950 . S
H654 C666 0.950 . S
H655 C667 0.950 . S
C656 H648 0.950 . S
C656 C657 1.386 . S
C656 C658 1.391 . S
C657 C656 1.386 . S
C657 C661 1.393 . S
C658 H650 0.950 . S
C658 C656 1.391 . S
C658 C659 1.400 . S
C659 C658 1.400 . S
C659 C660 1.398 . S
C659 C665 1.491 . S
C660 H651 0.950 . S
C660 C659 1.398 . S
C660 C661 1.391 . S
C661 H649 0.950 . S
C661 C657 1.393 . S
C661 C660 1.391 . S
C662 H652 0.950 . S
C662 C663 1.386 . S
C662 C664 1.391 . S
C663 C662 1.386 . S
C663 C667 1.393 . S
C664 H653 0.950 . S
C664 C662 1.391 . S
C664 C665 1.400 . S
C665 C659 1.491 . S
C665 C664 1.400 . S
C665 C666 1.398 . S
C666 H654 0.950 . S
C666 C665 1.398 . S
C666 C667 1.391 . S
C667 H655 0.950 . S
C667 C663 1.393 . S
C667 C666 1.391 . S
H668 C676 0.950 . S
H669 C681 0.950 . S
H670 C678 0.950 . S
H671 C680 0.950 . S
H672 C682 0.950 . S
H673 C684 0.950 . S
H674 C686 0.950 . S
H675 C687 0.950 . S
C676 H668 0.950 . S
C676 C677 1.386 1_655 S
C676 C678 1.391 . S
C677 C676 1.386 1_455 S
C677 C681 1.393 . S
C678 H670 0.950 . S
C678 C676 1.391 . S
C678 C679 1.400 1_655 S
C679 C678 1.400 1_455 S
C679 C680 1.398 . S
C679 C685 1.491 1_455 S
C680 H671 0.950 . S
C680 C679 1.398 . S
C680 C681 1.391 . S
C681 H669 0.950 . S
C681 C677 1.393 . S
C681 C680 1.391 . S
C682 H672 0.950 . S
C682 C683 1.386 1_455 S
C682 C684 1.391 . S
C683 C682 1.386 1_655 S
C683 C687 1.393 . S
C684 H673 0.950 . S
C684 C682 1.391 . S
C684 C685 1.400 1_455 S
C685 C679 1.491 1_655 S
C685 C684 1.400 1_655 S
C685 C686 1.398 . S
C686 H674 0.950 . S
C686 C685 1.398 . S
C686 C687 1.391 . S
C687 H675 0.950 . S
C687 C683 1.393 . S
C687 C686 1.391 . S
H688 C696 0.950 . S
H689 C701 0.950 1_455 S
H690 C698 0.950 1_554 S
H691 C700 0.950 1_545 S
H692 C702 0.950 . S
H693 C704 0.950 1_556 S
H694 C706 0.950 1_565 S
H695 C707 0.950 1_655 S
C696 H688 0.950 . S
C696 C697 1.386 . S
C696 C698 1.391 . S
C697 C696 1.386 . S
C697 C701 1.393 . S
C698 H690 0.950 1_556 S
C698 C696 1.391 . S
C698 C699 1.400 . S
C699 C698 1.400 . S
C699 C700 1.398 1_655 S
C699 C705 1.491 1_666 S
C700 H691 0.950 1_565 S
C700 C699 1.398 1_455 S
C700 C701 1.391 1_455 S
C701 H689 0.950 1_655 S
C701 C697 1.393 . S
C701 C700 1.391 1_655 S
C702 H692 0.950 . S
C702 C703 1.386 . S
C702 C704 1.391 . S
C703 C702 1.386 . S
C703 C707 1.393 . S
C704 H693 0.950 1_554 S
C704 C702 1.391 . S
C704 C705 1.400 . S
C705 C699 1.491 1_444 S
C705 C704 1.400 . S
C705 C706 1.398 1_455 S
C706 H694 0.950 1_545 S
C706 C705 1.398 1_655 S
C706 C707 1.391 1_655 S
C707 H695 0.950 1_455 S
C707 C703 1.393 . S
C707 C706 1.391 1_455 S
H708 C716 0.950 . S
H709 C721 0.950 . S
H710 C718 0.950 . S
H711 C720 0.950 1_565 S
H712 C722 0.950 . S
H713 C724 0.950 . S
H714 C726 0.950 1_545 S
H715 C727 0.950 . S
C716 H708 0.950 . S
C716 C717 1.386 . S
C716 C718 1.391 . S
C717 C716 1.386 . S
C717 C721 1.393 . S
C718 H710 0.950 . S
C718 C716 1.391 . S
C718 C719 1.400 . S
C719 C718 1.400 . S
C719 C720 1.398 . S
C719 C725 1.491 1_546 S
C720 H711 0.950 1_545 S
C720 C719 1.398 . S
C720 C721 1.391 . S
C721 H709 0.950 . S
C721 C717 1.393 . S
C721 C720 1.391 . S
C722 H712 0.950 . S
C722 C723 1.386 . S
C722 C724 1.391 . S
C723 C722 1.386 . S
C723 C727 1.393 . S
C724 H713 0.950 . S
C724 C722 1.391 . S
C724 C725 1.400 . S
C725 C719 1.491 1_564 S
C725 C724 1.400 . S
C725 C726 1.398 . S
C726 H714 0.950 1_565 S
C726 C725 1.398 . S
C726 C727 1.391 . S
C727 H715 0.950 . S
C727 C723 1.393 . S
C727 C726 1.391 . S
H728 C736 0.950 . S
H729 C741 0.950 . S
H730 C738 0.960 . S
H731 C740 0.950 . S
H732 C742 0.950 . S
H733 C744 0.960 . S
H734 C746 0.950 . S
H735 C747 0.950 . S
C736 H728 0.950 . S
C736 C737 1.386 . S
C736 C738 1.391 . S
C737 C736 1.386 . S
C737 C741 1.393 . S
C738 H730 0.960 . S
C738 C736 1.391 . S
C738 C739 1.400 . S
C739 C738 1.400 . S
C739 C740 1.398 . S
C739 C745 1.491 1_545 S
C740 H731 0.950 . S
C740 C739 1.398 . S
C740 C741 1.391 . S
C741 H729 0.950 . S
C741 C737 1.393 . S
C741 C740 1.391 . S
C742 H732 0.950 . S
C742 C743 1.386 . S
C742 C744 1.391 . S
C743 C742 1.386 . S
C743 C747 1.393 . S
C744 H733 0.960 . S
C744 C742 1.391 . S
C744 C745 1.400 . S
C745 C739 1.491 1_565 S
C745 C744 1.400 . S
C745 C746 1.398 . S
C746 H734 0.950 . S
C746 C745 1.398 . S
C746 C747 1.391 . S
C747 H735 0.950 . S
C747 C743 1.393 . S
C747 C746 1.391 . S
H748 C756 0.950 . S
H749 C761 0.950 . S
H750 C758 0.950 . S
H751 C760 0.950 1_545 S
H752 C762 0.950 . S
H753 C764 0.950 . S
H754 C766 0.950 1_565 S
H755 C767 0.950 . S
C756 H748 0.950 . S
C756 C757 1.386 . S
C756 C758 1.391 . S
C757 C756 1.386 . S
C757 C761 1.393 1_455 S
C758 H750 0.950 . S
C758 C756 1.391 . S
C758 C759 1.400 . S
C759 C758 1.400 . S
C759 C760 1.398 1_455 S
C759 C765 1.491 1_465 S
C760 H751 0.950 1_565 S
C760 C759 1.398 1_655 S
C760 C761 1.391 . S
C761 H749 0.950 . S
C761 C757 1.393 1_655 S
C761 C760 1.391 . S
C762 H752 0.950 . S
C762 C763 1.386 . S
C762 C764 1.391 . S
C763 C762 1.386 . S
C763 C767 1.393 1_655 S
C764 H753 0.950 . S
C764 C762 1.391 . S
C764 C765 1.400 . S
C765 C759 1.491 1_645 S
C765 C764 1.400 . S
C765 C766 1.398 1_655 S
C766 H754 0.950 1_545 S
C766 C765 1.398 1_455 S
C766 C767 1.391 . S
C767 H755 0.950 . S
C767 C763 1.393 1_455 S
C767 C766 1.391 . S
H768 C776 0.950 . S
H769 C781 0.950 . S
H770 C778 0.950 . S
H771 C780 0.950 . S
H772 C782 0.950 . S
H773 C784 0.950 . S
H774 C786 0.950 . S
H775 C787 0.950 . S
C776 H768 0.950 . S
C776 C777 1.386 . S
C776 C778 1.391 . S
C777 C776 1.386 . S
C777 C781 1.393 . S
C778 H770 0.950 . S
C778 C776 1.391 . S
C778 C779 1.400 . S
C779 C778 1.400 . S
C779 C780 1.398 . S
C779 C785 1.491 1_554 S
C780 H771 0.950 . S
C780 C779 1.398 . S
C780 C781 1.391 . S
C781 H769 0.950 . S
C781 C777 1.393 . S
C781 C780 1.391 . S
C782 H772 0.950 . S
C782 C783 1.386 . S
C782 C784 1.391 . S
C783 C782 1.386 . S
C783 C787 1.393 . S
C784 H773 0.950 . S
C784 C782 1.391 . S
C784 C785 1.400 . S
C785 C779 1.491 1_556 S
C785 C784 1.400 . S
C785 C786 1.398 . S
C786 H774 0.950 . S
C786 C785 1.398 . S
C786 C787 1.391 . S
C787 H775 0.950 . S
C787 C783 1.393 . S
C787 C786 1.391 . S
H788 C796 0.950 . S
H789 C801 0.950 . S
H790 C798 0.950 . S
H791 C800 0.950 1_556 S
H792 C802 0.950 . S
H793 C804 0.950 . S
H794 C806 0.950 1_554 S
H795 C807 0.950 . S
C796 H788 0.950 . S
C796 C797 1.386 1_455 S
C796 C798 1.391 . S
C797 C796 1.386 1_655 S
C797 C801 1.393 . S
C798 H790 0.950 . S
C798 C796 1.391 . S
C798 C799 1.400 1_455 S
C799 C798 1.400 1_655 S
C799 C800 1.398 . S
C799 C805 1.491 1_654 S
C800 H791 0.950 1_554 S
C800 C799 1.398 . S
C800 C801 1.391 . S
C801 H789 0.950 . S
C801 C797 1.393 . S
C801 C800 1.391 . S
C802 H792 0.950 . S
C802 C803 1.386 1_655 S
C802 C804 1.391 . S
C803 C802 1.386 1_455 S
C803 C807 1.393 . S
C804 H793 0.950 . S
C804 C802 1.391 . S
C804 C805 1.400 1_655 S
C805 C799 1.491 1_456 S
C805 C804 1.400 1_455 S
C805 C806 1.398 . S
C806 H794 0.950 1_556 S
C806 C805 1.398 . S
C806 C807 1.391 . S
C807 H795 0.950 . S
C807 C803 1.393 . S
C807 C806 1.391 . S
H808 C816 0.950 1_455 S
H809 C821 0.950 . S
H810 C818 0.950 . S
H811 C820 0.950 . S
H812 C822 0.950 1_655 S
H813 C824 0.950 . S
H814 C826 0.950 . S
H815 C827 0.950 . S
C816 H808 0.950 1_655 S
C816 C817 1.386 . S
C816 C818 1.391 1_655 S
C817 C816 1.386 . S
C817 C821 1.393 . S
C818 H810 0.950 . S
C818 C816 1.391 1_455 S
C818 C819 1.400 1_455 S
C819 C818 1.400 1_655 S
C819 C820 1.398 . S
C819 C825 1.491 1_655 S
C820 H811 0.950 . S
C820 C819 1.398 . S
C820 C821 1.391 . S
C821 H809 0.950 . S
C821 C817 1.393 . S
C821 C820 1.391 . S
C822 H812 0.950 1_455 S
C822 C823 1.386 . S
C822 C824 1.391 1_455 S
C823 C822 1.386 . S
C823 C827 1.393 . S
C824 H813 0.950 . S
C824 C822 1.391 1_655 S
C824 C825 1.400 1_655 S
C825 C819 1.491 1_455 S
C825 C824 1.400 1_455 S
C825 C826 1.398 . S
C826 H814 0.950 . S
C826 C825 1.398 . S
C826 C827 1.391 . S
C827 H815 0.950 . S
C827 C823 1.393 . S
C827 C826 1.391 . S
H828 C836 0.950 . S
H829 C841 0.950 . S
H830 C838 0.950 . S
H831 C840 0.950 . S
H832 C842 0.950 . S
H833 C844 0.950 . S
H834 C846 0.950 . S
H835 C847 0.950 . S
C836 H828 0.950 . S
C836 C837 1.386 . S
C836 C838 1.391 . S
C837 C836 1.386 . S
C837 C841 1.393 . S
C838 H830 0.950 . S
C838 C836 1.391 . S
C838 C839 1.400 . S
C839 C838 1.400 . S
C839 C840 1.398 . S
C839 C845 1.491 . S
C840 H831 0.950 . S
C840 C839 1.398 . S
C840 C841 1.391 . S
C841 H829 0.950 . S
C841 C837 1.393 . S
C841 C840 1.391 . S
C842 H832 0.950 . S
C842 C843 1.386 . S
C842 C844 1.391 . S
C843 C842 1.386 . S
C843 C847 1.393 . S
C844 H833 0.950 . S
C844 C842 1.391 . S
C844 C845 1.400 . S
C845 C839 1.491 . S
C845 C844 1.400 . S
C845 C846 1.398 . S
C846 H834 0.950 . S
C846 C845 1.398 . S
C846 C847 1.391 . S
C847 H835 0.950 . S
C847 C843 1.393 . S
C847 C846 1.391 . S
C217 C23 1.506 . S
C223 C10 1.506 . S
C237 C30 1.506 . S
C243 C43 1.506 . S
C257 C56 1.506 . S
C263 C75 1.506 . S
C277 C95 1.506 . S
C283 C82 1.506 . S
C297 C127 1.506 . S
C303 C114 1.506 . S
C317 C147 1.506 . S
C323 C134 1.506 . S
C337 C179 1.506 . S
C343 C166 1.506 . S
C357 C199 1.507 . S
C363 C186 1.507 . S
C377 C42 1.520 . S
C383 C5 1.520 . S
C397 C18 1.522 . S
C403 C29 1.521 . S
C417 C94 1.522 . S
C423 C55 1.522 . S
C437 C81 1.522 . S
C443 C70 1.522 . S
C457 C109 1.522 . S
C463 C146 1.520 . S
C477 C133 1.521 . S
C483 C122 1.520 . S
C497 C198 1.522 . S
C503 C161 1.520 . S
C517 C174 1.521 . S
C523 C185 1.522 . S
C537 C3 1.454 . S
C543 C120 1.454 . S
C557 C16 1.452 . S
C563 C107 1.452 . S
C577 C148 1.454 . S
C583 C31 1.451 . S
C597 C135 1.451 . S
C603 C44 1.455 . S
C617 C172 1.451 . S
C623 C57 1.455 . S
C637 C159 1.451 . S
C643 C68 1.455 . S
C657 C83 1.451 . S
C663 C200 1.454 . S
C677 C96 1.455 . S
C683 C187 1.452 . S
C697 C62 1.532 . S
C703 C4 1.532 . S
C717 C69 1.529 . S
C723 C17 1.529 . S
C737 C88 1.529 . S
C743 C36 1.529 . S
C757 C101 1.532 . S
C763 C49 1.532 . S
C777 C108 1.531 . S
C783 C160 1.531 . S
C797 C121 1.532 . S
C803 C173 1.532 . S
C817 C192 1.529 . S
C823 C140 1.529 . S
C837 C205 1.531 . S
C843 C153 1.531 . S
