# Generated by pormake.
# Topology fnq, (5)-cn, num edge types: 1
# Building blocks:
#     Node 0, Type 0, BuildingBlock: BEQFEK_clean_sbu_0, # of connection points: 5
#     Node 1, Type 0, BuildingBlock: BEQFEK_clean_sbu_0, # of connection points: 5
#     Node 2, Type 0, BuildingBlock: BEQFEK_clean_sbu_0, # of connection points: 5
#     Node 3, Type 0, BuildingBlock: BEQFEK_clean_sbu_0, # of connection points: 5
#     Node 4, Type 0, BuildingBlock: BEQFEK_clean_sbu_0, # of connection points: 5
#     Node 5, Type 0, BuildingBlock: BEQFEK_clean_sbu_0, # of connection points: 5
#     Node 6, Type 0, BuildingBlock: BEQFEK_clean_sbu_0, # of connection points: 5
#     Node 7, Type 0, BuildingBlock: BEQFEK_clean_sbu_0, # of connection points: 5
#     Node 8, Type 0, BuildingBlock: BEQFEK_clean_sbu_0, # of connection points: 5
#     Node 9, Type 0, BuildingBlock: BEQFEK_clean_sbu_0, # of connection points: 5
#     Node 10, Type 0, BuildingBlock: BEQFEK_clean_sbu_0, # of connection points: 5
#     Node 11, Type 0, BuildingBlock: BEQFEK_clean_sbu_0, # of connection points: 5
#     Node 12, Type 0, BuildingBlock: BEQFEK_clean_sbu_0, # of connection points: 5
#     Node 13, Type 0, BuildingBlock: BEQFEK_clean_sbu_0, # of connection points: 5
#     Node 14, Type 0, BuildingBlock: BEQFEK_clean_sbu_0, # of connection points: 5
#     Node 15, Type 0, BuildingBlock: BEQFEK_clean_sbu_0, # of connection points: 5
#     Node 16, Type 0, BuildingBlock: BEQFEK_clean_sbu_0, # of connection points: 5
#     Node 17, Type 0, BuildingBlock: BEQFEK_clean_sbu_0, # of connection points: 5
#     Edge 18, Type (0, 0), BuildingBlock: EZIPEK_clean_linker_0, # of connection points: 2
#     Edge 19, Type (0, 0), BuildingBlock: EZIPEK_clean_linker_0, # of connection points: 2
#     Edge 20, Type (0, 0), BuildingBlock: EZIPEK_clean_linker_0, # of connection points: 2
#     Edge 21, Type (0, 0), BuildingBlock: EZIPEK_clean_linker_0, # of connection points: 2
#     Edge 22, Type (0, 0), BuildingBlock: EZIPEK_clean_linker_0, # of connection points: 2
#     Edge 23, Type (0, 0), BuildingBlock: EZIPEK_clean_linker_0, # of connection points: 2
#     Edge 24, Type (0, 0), BuildingBlock: EZIPEK_clean_linker_0, # of connection points: 2
#     Edge 25, Type (0, 0), BuildingBlock: EZIPEK_clean_linker_0, # of connection points: 2
#     Edge 26, Type (0, 0), BuildingBlock: EZIPEK_clean_linker_0, # of connection points: 2
#     Edge 27, Type (0, 0), BuildingBlock: EZIPEK_clean_linker_0, # of connection points: 2
#     Edge 28, Type (0, 0), BuildingBlock: EZIPEK_clean_linker_0, # of connection points: 2
#     Edge 29, Type (0, 0), BuildingBlock: EZIPEK_clean_linker_0, # of connection points: 2
#     Edge 30, Type (0, 0), BuildingBlock: EZIPEK_clean_linker_0, # of connection points: 2
#     Edge 31, Type (0, 0), BuildingBlock: EZIPEK_clean_linker_0, # of connection points: 2
#     Edge 32, Type (0, 0), BuildingBlock: EZIPEK_clean_linker_0, # of connection points: 2
#     Edge 33, Type (0, 0), BuildingBlock: EZIPEK_clean_linker_0, # of connection points: 2
#     Edge 34, Type (0, 0), BuildingBlock: EZIPEK_clean_linker_0, # of connection points: 2
#     Edge 35, Type (0, 0), BuildingBlock: EZIPEK_clean_linker_0, # of connection points: 2
#     Edge 36, Type (0, 0), BuildingBlock: EZIPEK_clean_linker_0, # of connection points: 2
#     Edge 37, Type (0, 0), BuildingBlock: EZIPEK_clean_linker_0, # of connection points: 2
#     Edge 38, Type (0, 0), BuildingBlock: EZIPEK_clean_linker_0, # of connection points: 2
#     Edge 39, Type (0, 0), BuildingBlock: EZIPEK_clean_linker_0, # of connection points: 2
#     Edge 40, Type (0, 0), BuildingBlock: EZIPEK_clean_linker_0, # of connection points: 2
#     Edge 41, Type (0, 0), BuildingBlock: EZIPEK_clean_linker_0, # of connection points: 2
#     Edge 42, Type (0, 0), BuildingBlock: EZIPEK_clean_linker_0, # of connection points: 2
#     Edge 43, Type (0, 0), BuildingBlock: EZIPEK_clean_linker_0, # of connection points: 2
#     Edge 44, Type (0, 0), BuildingBlock: EZIPEK_clean_linker_0, # of connection points: 2
#     Edge 45, Type (0, 0), BuildingBlock: EZIPEK_clean_linker_0, # of connection points: 2
#     Edge 46, Type (0, 0), BuildingBlock: EZIPEK_clean_linker_0, # of connection points: 2
#     Edge 47, Type (0, 0), BuildingBlock: EZIPEK_clean_linker_0, # of connection points: 2
#     Edge 48, Type (0, 0), BuildingBlock: EZIPEK_clean_linker_0, # of connection points: 2
#     Edge 49, Type (0, 0), BuildingBlock: EZIPEK_clean_linker_0, # of connection points: 2
#     Edge 50, Type (0, 0), BuildingBlock: EZIPEK_clean_linker_0, # of connection points: 2
#     Edge 51, Type (0, 0), BuildingBlock: EZIPEK_clean_linker_0, # of connection points: 2
#     Edge 52, Type (0, 0), BuildingBlock: EZIPEK_clean_linker_0, # of connection points: 2
#     Edge 53, Type (0, 0), BuildingBlock: EZIPEK_clean_linker_0, # of connection points: 2
#     Edge 54, Type (0, 0), BuildingBlock: EZIPEK_clean_linker_0, # of connection points: 2
#     Edge 55, Type (0, 0), BuildingBlock: EZIPEK_clean_linker_0, # of connection points: 2
#     Edge 56, Type (0, 0), BuildingBlock: EZIPEK_clean_linker_0, # of connection points: 2
#     Edge 57, Type (0, 0), BuildingBlock: EZIPEK_clean_linker_0, # of connection points: 2
#     Edge 58, Type (0, 0), BuildingBlock: EZIPEK_clean_linker_0, # of connection points: 2
#     Edge 59, Type (0, 0), BuildingBlock: EZIPEK_clean_linker_0, # of connection points: 2
#     Edge 60, Type (0, 0), BuildingBlock: EZIPEK_clean_linker_0, # of connection points: 2
#     Edge 61, Type (0, 0), BuildingBlock: EZIPEK_clean_linker_0, # of connection points: 2
#     Edge 62, Type (0, 0), BuildingBlock: EZIPEK_clean_linker_0, # of connection points: 2
# Relax obj value: 0.458
# Max RMSD: 0.234
# Mean RMSD: 0.214
data_MOF--net-fnq--node1-BEQFEK_clean_sbu_0--edge1-EZIPEK_clean_linker_0
_symmetry_space_group_name_H-M    P1
_symmetry_Int_Tables_number       1
_symmetry_cell_setting            triclinic
loop_
_symmetry_equiv_pos_as_xyz
'x, y, z'
_cell_length_a     38.611554
_cell_length_b     38.733911
_cell_length_c     27.572268
_cell_angle_alpha  89.817499
_cell_angle_beta   90.093367
_cell_angle_gamma 119.75481
loop_
_atom_site_label
_atom_site_type_symbol
_atom_site_fract_x
_atom_site_fract_y
_atom_site_fract_z
_atom_type_partial_charge
Co0 Co 0.22824 0.40192 0.14883 0.0
Co1 Co 0.20826 0.31749 0.16 0.0
C2 C 0.29622 0.38846 0.15302 0.0
O3 O 0.28354 0.41118 0.1381 0.0
O4 O 0.27071 0.35216 0.16235 0.0
C5 C 0.26685 0.48482 0.15843 0.0
O6 O 0.29401 0.47969 0.18076 0.0
C7 C 0.20879 0.25693 0.10459 0.0
C8 C 0.20148 0.21101 0.15776 0.0
C9 C 0.21056 0.22237 0.10961 0.0
N10 N 0.19949 0.26598 0.1476 0.0
N11 N 0.19417 0.23804 0.17924 0.0
C12 C 0.22293 0.28476 0.06185 0.0
H13 H 0.20291 0.29693 0.05496 0.0
H14 H 0.22427 0.2696 0.02841 0.0
H15 H 0.253 0.3102 0.06973 0.0
C16 C 0.15502 0.36485 0.08055 0.0
N17 N 0.18432 0.36441 0.10783 0.0
N18 N 0.17534 0.32736 0.11438 0.0
C19 C 0.13978 0.30308 0.09244 0.0
C20 C 0.12534 0.32567 0.06921 0.0
C21 C 0.15305 0.40173 0.07024 0.0
H22 H 0.18319 0.42646 0.06083 0.0
H23 H 0.13177 0.39685 0.0404 0.0
H24 H 0.14304 0.41039 0.10344 0.0
O25 O 0.21578 0.38748 0.21966 0.0
O26 O 0.19112 0.32215 0.22562 0.0
H27 H 0.08594 0.24562 0.08939 0.0
H28 H 0.13073 0.24654 0.06975 0.0
C29 C 0.11831 0.25869 0.09665 0.0
H30 H 0.1228 0.24979 0.13337 0.0
H31 H 0.18882 0.23913 0.21614 0.0
O32 O 0.23574 0.45474 0.14174 0.0
C33 C 0.20072 0.35558 0.245 0.0
Co34 Co 0.67438 0.83829 0.17979 0.0
Co35 Co 0.75049 0.9125 0.15275 0.0
C36 C 0.67843 0.92028 0.16809 0.0
O37 O 0.66048 0.88285 0.17596 0.0
O38 O 0.7152 0.93829 0.15558 0.0
C39 C 0.60383 0.76284 0.15767 0.0
O40 O 0.61728 0.76492 0.11341 0.0
C41 C 0.819 0.97493 0.09888 0.0
C42 C 0.8686 0.96975 0.13164 0.0
C43 C 0.85944 0.98826 0.095 0.0
N44 N 0.80444 0.94893 0.13575 0.0
N45 N 0.83438 0.94651 0.1557 0.0
C46 C 0.79422 0.98427 0.0654 0.0
H47 H 0.76197 0.96479 0.07304 0.0
H48 H 0.80074 0.98068 0.02714 0.0
H49 H 0.80231 1.01583 0.07026 0.0
C50 C 0.71485 0.80384 0.11471 0.0
N51 N 0.70747 0.83288 0.13053 0.0
N52 N 0.73269 0.86638 0.10966 0.0
C53 C 0.75274 0.85869 0.07485 0.0
C54 C 0.74384 0.81871 0.07726 0.0
C55 C 0.70015 0.76534 0.14156 0.0
H56 H 0.69554 0.76943 0.18039 0.0
H57 H 0.67099 0.74261 0.12671 0.0
H58 H 0.72161 0.75426 0.1384 0.0
O59 O 0.69944 0.84414 0.24173 0.0
O60 O 0.75578 0.89872 0.22316 0.0
H61 H 0.80516 0.90935 0.04894 0.0
H62 H 0.77841 0.87272 1.0028 0.0
C63 C 0.77537 0.88773 0.0354 0.0
H64 H 0.75986 0.90432 0.02523 0.0
H65 H 0.83111 0.92733 0.1842 0.0
O66 O 0.62306 0.79085 0.18714 0.0
C67 C 0.73358 0.87193 0.25369 0.0
Co68 Co 0.27488 0.85932 0.15644 0.0
Co69 Co 0.21081 0.8807 0.15522 0.0
C70 C 0.19461 0.79264 0.15324 0.0
O71 O 0.23009 0.80423 0.13929 0.0
O72 O 0.18436 0.81882 0.16128 0.0
C73 C 0.31406 0.82266 0.19411 0.0
O74 O 0.27721 0.79551 0.20415 0.0
C75 C 0.15667 0.88448 0.08757 0.0
C76 C 0.11577 0.8947 0.13359 0.0
C77 C 0.12248 0.88755 0.08622 0.0
N78 N 0.16948 0.88934 0.13354 0.0
N79 N 0.14533 0.89593 0.16095 0.0
C80 C 0.17482 0.8733 0.04663 0.0
H81 H 0.20759 0.89137 0.04703 0.0
H82 H 0.16412 0.87726 1.01082 0.0
H83 H 0.16732 0.84186 0.0511 0.0
C84 C 0.31768 0.93362 0.08839 0.0
N85 N 0.28629 0.90459 0.11384 0.0
N86 N 0.25807 0.91405 0.11574 0.0
C87 C 0.27096 0.94963 0.09297 0.0
C88 C 0.30906 0.96347 0.07362 0.0
C89 C 0.35668 0.93488 0.08192 0.0
H90 H 0.35258 0.90446 0.08421 0.0
H91 H 0.37033 0.94891 0.04665 0.0
H92 H 0.37732 0.95321 0.11123 0.0
O93 O 0.26313 0.87003 0.22449 0.0
O94 O 0.22457 0.89752 0.22241 0.0
H95 H 0.26932 1.00447 0.09117 0.0
H96 H 0.22929 0.96352 0.05986 0.0
C97 C 0.24849 0.9719 0.09259 0.0
H98 H 0.22934 0.96445 0.12525 0.0
H99 H 0.14809 0.89964 0.1985 0.0
O100 O 0.32094 0.85273 0.16826 0.0
C101 C 0.24495 0.88553 0.24608 0.0
Co102 Co 0.46813 0.22002 0.88427 0.0
Co103 Co 0.38388 0.2057 0.8824 0.0
C104 C 0.45832 0.29073 0.88777 0.0
O105 O 0.48109 0.27666 0.89788 0.0
O106 O 0.42108 0.26681 0.88183 0.0
C107 C 0.54816 0.25191 0.85823 0.0
O108 O 0.54707 0.28509 0.85413 0.0
C109 C 0.32576 0.20448 0.94597 0.0
C110 C 0.27137 0.18373 0.90148 0.0
C111 C 0.28644 0.19548 0.94795 0.0
N112 N 0.3337 0.19805 0.90078 0.0
N113 N 0.30119 0.18559 0.87408 0.0
C114 C 0.35571 0.21938 0.98645 0.0
H115 H 0.37876 0.2108 0.98098 0.0
H116 H 0.34086 0.20801 0.02201 0.0
H117 H 0.37132 0.25234 0.98704 0.0
C118 C 0.42993 0.1457 0.95188 0.0
N119 N 0.43044 0.17606 0.92586 0.0
N120 N 0.39377 0.16955 0.92283 0.0
C121 C 0.3689 0.13481 0.94609 0.0
C122 C 0.39062 0.11812 0.96624 0.0
C123 C 0.46561 0.14076 0.95873 0.0
H124 H 0.46674 0.12224 0.92882 0.0
H125 H 0.49333 0.17012 0.95774 0.0
H126 H 0.46352 0.12534 0.99353 0.0
O127 O 0.44881 0.21089 0.8152 0.0
O128 O 0.3845 0.19293 0.81348 0.0
H129 H 0.31368 0.12162 0.91183 0.0
H130 H 0.30962 0.08391 0.95402 0.0
C131 C 0.32442 0.11633 0.94687 0.0
H132 H 0.31581 0.13007 0.97625 0.0
H133 H 0.29938 0.17841 0.83738 0.0
O134 O 0.51902 0.22132 0.87727 0.0
C135 C 0.41661 0.20037 0.79178 0.0
Co136 Co 0.86663 0.22756 0.88672 0.0
Co137 Co 0.88572 0.16245 0.87197 0.0
C138 C 0.79799 0.14833 0.8816 0.0
O139 O 0.81087 0.18326 0.89786 0.0
O140 O 0.8232 0.13726 0.87024 0.0
C141 C 0.83743 0.28002 0.87072 0.0
O142 O 0.81222 0.25088 0.84286 0.0
C143 C 0.88717 0.10022 0.92451 0.0
C144 C 0.92511 0.08407 0.88129 0.0
C145 C 0.90561 0.07745 0.92548 0.0
N146 N 0.89556 0.11979 0.88227 0.0
N147 N 0.91771 0.10963 0.85597 0.0
C148 C 0.86474 0.10619 0.96483 0.0
H149 H 0.84338 0.11482 0.95013 0.0
H150 H 0.88613 0.13064 0.98851 0.0
H151 H 0.84862 0.07877 0.98709 0.0
C152 C 0.93839 0.25971 0.95632 0.0
N153 N 0.9097 0.23117 0.92761 0.0
N154 N 0.91963 0.20402 0.91839 0.0
C155 C 0.95589 0.21557 0.9391 0.0
C156 C 0.96895 0.25073 0.96527 0.0
C157 C 0.93911 0.29737 0.96988 0.0
H158 H 0.94716 0.31692 0.93746 0.0
H159 H 0.90894 0.29063 0.98178 0.0
H160 H 0.96123 0.31326 0.99902 0.0
O161 O 0.87768 0.22519 0.81496 0.0
O162 O 0.90278 0.18486 0.80704 0.0
H163 H 1.00352 0.21735 0.89825 0.0
H164 H 0.99981 0.19944 0.95902 0.0
C165 C 0.98214 0.19866 0.92682 0.0
H166 H 0.96493 0.16823 0.91281 0.0
H167 H 0.92976 0.12194 0.82221 0.0
O168 O 0.86335 0.27546 0.89402 0.0
C169 C 0.89245 0.20856 0.78862 0.0
Co170 Co 0.84031 0.66928 0.87067 0.0
Co171 Co 0.91525 0.74756 0.87883 0.0
C172 C 0.92202 0.67352 0.87137 0.0
O173 O 0.88408 0.6541 0.87068 0.0
O174 O 0.93962 0.71103 0.87744 0.0
C175 C 0.79786 0.60153 0.92335 0.0
O176 O 0.83042 0.61848 0.94977 0.0
C177 C 0.98296 0.8044 0.92842 0.0
C178 C 1.00592 0.86035 0.88675 0.0
C179 C 1.01308 0.84359 0.92741 0.0
N180 N 0.95877 0.79817 0.89089 0.0
N181 N 0.97232 0.83156 0.86583 0.0
C182 C 0.97735 0.77249 0.96382 0.0
H183 H 0.94582 0.74823 0.96432 0.0
H184 H 0.98673 0.78498 1.00079 0.0
H185 H 0.99575 0.75925 0.95253 0.0
C186 C 0.80946 0.7109 0.93606 0.0
N187 N 0.83937 0.70705 0.91561 0.0
N188 N 0.87356 0.73816 0.92622 0.0
C189 C 0.86688 0.76114 0.95799 0.0
C190 C 0.82535 0.74546 0.96513 0.0
C191 C 0.76676 0.68511 0.9213 0.0
H192 H 0.76522 0.6768 0.88253 0.0
H193 H 0.75334 0.65713 0.94268 0.0
H194 H 0.74922 0.70038 0.92691 0.0
O195 O 0.84016 0.68678 0.80398 0.0
O196 O 0.89558 0.74578 0.81007 0.0
H197 H 0.91614 0.82092 0.9564 0.0
H198 H 0.88889 0.80701 1.01341 0.0
C199 C 0.89993 0.79653 0.98296 0.0
H200 H 0.92134 0.78841 0.9984 0.0
H201 H 0.95907 0.83454 0.83425 0.0
O202 O 0.79442 0.61885 0.88591 0.0
C203 C 0.86661 0.7193 0.78502 0.0
Co204 Co 0.89251 0.74618 0.47647 0.0
Co205 Co 0.87495 0.66237 0.49777 0.0
C206 C 0.96189 0.73382 0.48917 0.0
O207 O 0.94911 0.75613 0.47265 0.0
O208 O 0.93679 0.69771 0.49971 0.0
C209 C 0.92662 0.82664 0.44255 0.0
O210 O 0.95645 0.82291 0.42607 0.0
C211 C 0.87643 0.59843 0.45119 0.0
C212 C 0.84115 0.54566 0.49726 0.0
C213 C 0.86127 0.55787 0.45333 0.0
N214 N 0.86591 0.60999 0.49152 0.0
N215 N 0.84512 0.5785 0.51945 0.0
C216 C 0.89824 0.62566 0.40969 0.0
H217 H 0.91343 0.65713 0.42134 0.0
H218 H 0.87662 0.62199 0.38086 0.0
H219 H 0.92019 0.61816 0.39413 0.0
C220 C 0.82244 0.70426 0.40694 0.0
N221 N 0.85118 0.70529 0.43663 0.0
N222 N 0.84183 0.66874 0.44799 0.0
C223 C 0.80613 0.64344 0.42671 0.0
C224 C 0.79257 0.66473 0.39917 0.0
C225 C 0.82094 0.74049 0.39139 0.0
H226 H 0.8508 0.76351 0.37839 0.0
H227 H 0.79838 0.73336 0.36243 0.0
H228 H 0.8131 0.75283 0.4231 0.0
O229 O 0.87733 0.73544 0.54744 0.0
O230 O 0.85896 0.67197 0.56182 0.0
H231 H 0.7673 0.58335 0.40416 0.0
H232 H 0.79864 0.58815 0.45548 0.0
C233 C 0.78124 0.6001 0.43792 0.0
H234 H 0.75675 0.5956 0.46277 0.0
H235 H 0.83229 0.57914 0.55247 0.0
O236 O 0.89674 0.79747 0.46248 0.0
C237 C 0.86426 0.70555 0.57611 0.0
Co238 Co 0.3393 0.1693 0.52104 0.0
Co239 Co 0.41425 0.23906 0.48029 0.0
C240 C 0.34535 0.25164 0.50166 0.0
O241 O 0.32692 0.215 0.51412 0.0
O242 O 0.38056 0.26667 0.48408 0.0
C243 C 0.25454 0.11939 0.53892 0.0
O244 O 0.25095 0.1513 0.54154 0.0
C245 C 0.47444 0.29804 0.41303 0.0
C246 C 0.52574 0.28913 0.42818 0.0
C247 C 0.51275 0.30874 0.3975 0.0
N248 N 0.46503 0.27268 0.45061 0.0
N249 N 0.49606 0.26797 0.45982 0.0
C250 C 0.44634 0.30978 0.39103 0.0
H251 H 0.43822 0.32524 0.41876 0.0
H252 H 0.41843 0.2827 0.38013 0.0
H253 H 0.45978 0.32962 0.35919 0.0
C254 C 0.37271 0.1263 0.45979 0.0
N255 N 0.36756 0.15772 0.47142 0.0
N256 N 0.39194 0.18839 0.44538 0.0
C257 C 0.4095 0.17613 0.4124 0.0
C258 C 0.39992 0.13655 0.42071 0.0
C259 C 0.35674 0.08982 0.49083 0.0
H260 H 0.35718 0.09796 0.52949 0.0
H261 H 0.3252 0.06928 0.48095 0.0
H262 H 0.37431 0.07446 0.48622 0.0
O263 O 0.36975 0.17983 0.57939 0.0
O264 O 0.42577 0.23135 0.5515 0.0
H265 H 0.46207 0.21977 0.37805 0.0
H266 H 0.42828 0.18081 0.33805 0.0
C267 C 0.43034 0.20002 0.36897 0.0
H268 H 0.41646 0.2181 0.35858 0.0
H269 H 0.49624 0.24872 0.48625 0.0
O270 O 0.28824 0.12202 0.53117 0.0
C271 C 0.40546 0.2072 0.58571 0.0
Co272 Co 0.93231 0.19997 0.50177 0.0
Co273 Co 0.85771 0.20333 0.47739 0.0
C274 C 0.8486 0.12375 0.48978 0.0
O275 O 0.88557 0.14374 0.49957 0.0
O276 O 0.83114 0.1422 0.47387 0.0
C277 C 0.97431 0.15882 0.52095 0.0
O278 O 0.9412 0.13305 0.54268 0.0
C279 C 0.79319 0.20702 0.426 0.0
C280 C 0.79399 0.25899 0.46022 0.0
C281 C 0.77627 0.23119 0.42373 0.0
N282 N 0.82009 0.21998 0.46201 0.0
N283 N 0.82026 0.2509 0.48257 0.0
C284 C 0.78475 0.17288 0.39348 0.0
H285 H 0.75692 0.14627 0.40574 0.0
H286 H 0.80955 0.16621 0.39485 0.0
H287 H 0.78014 0.17944 0.35557 0.0
C288 C 0.9693 0.27466 0.43698 0.0
N289 N 0.93849 0.2397 0.45372 0.0
N290 N 0.90503 0.23568 0.43681 0.0
C291 C 0.91377 0.26567 0.40477 0.0
C292 C 0.95514 0.29325 0.40428 0.0
C293 C 1.01039 0.29242 0.45801 0.0
H294 H 1.00854 0.28436 0.49698 0.0
H295 H 1.02699 0.27973 0.43941 0.0
H296 H 1.02694 0.32525 0.45393 0.0
O297 O 0.92831 0.21852 0.56509 0.0
O298 O 0.8705 0.21593 0.54975 0.0
H299 H 0.86685 0.27848 0.39582 0.0
H300 H 0.89616 0.28641 0.34153 0.0
C301 C 0.88281 0.26707 0.37375 0.0
H302 H 0.86097 0.23666 0.36151 0.0
H303 H 0.83928 0.26731 0.51084 0.0
O304 O 0.97695 0.19013 0.50176 0.0
C305 C 0.8984 0.22106 0.57917 0.0
Co306 Co 0.1016 0.54388 0.20001 0.0
Co307 Co 1.02645 0.54326 0.23118 0.0
C308 C 0.09964 0.62254 0.21372 0.0
O309 O 0.1168 0.60227 0.20529 0.0
O310 O 0.06326 0.60457 0.22814 0.0
C311 C 0.17312 0.53891 0.21596 0.0
O312 O 0.16199 0.5279 0.261 0.0
C313 C 0.95959 0.53863 0.28919 0.0
C314 C 0.90845 0.48615 0.25587 0.0
C315 C 0.91886 0.51303 0.29341 0.0
N316 N 0.97302 0.52716 0.25108 0.0
N317 N 0.94217 0.49604 0.23107 0.0
C318 C 0.98545 0.57205 0.32245 0.0
H319 H 1.01745 0.58428 0.31342 0.0
H320 H 0.97988 0.56156 0.36065 0.0
H321 H 0.97752 0.59584 0.319 0.0
C322 C 0.06407 0.46843 0.26424 0.0
N323 N 0.06987 0.50455 0.24914 0.0
N324 N 1.04356 0.51132 0.27028 0.0
C325 C 1.02386 0.48243 0.30407 0.0
C326 C 1.03452 0.45247 0.30095 0.0
C327 C 0.08096 0.44647 0.23755 0.0
H328 H 0.08765 0.45707 0.19943 0.0
H329 H 0.10926 0.4521 0.2547 0.0
H330 H 0.05984 0.41395 0.23826 0.0
O331 O 0.07478 0.52705 0.13867 0.0
O332 O 1.0196 0.52733 0.1596 0.0
H333 H 0.99261 0.46546 0.37269 0.0
H334 H 1.00989 0.51613 0.35343 0.0
C335 C 0.9971 0.48497 0.341 0.0
H336 H 0.96825 0.4761 0.32357 0.0
H337 H 0.94438 0.48041 0.2016 0.0
O338 O 0.15221 0.54732 0.18855 0.0
C339 C 1.04116 0.52301 0.12774 0.0
Co340 Co 0.535 0.56128 0.21631 0.0
Co341 Co 0.55622 0.49708 0.20203 0.0
C342 C 0.46791 0.4782 0.20725 0.0
O343 O 0.47951 0.51377 0.22035 0.0
O344 O 0.49387 0.46743 0.19961 0.0
C345 C 0.50178 0.61099 0.20577 0.0
O346 O 0.47785 0.58314 0.17562 0.0
C347 C 0.56163 0.43394 0.24462 0.0
C348 C 0.60515 0.42668 0.20005 0.0
C349 C 0.58236 0.4137 0.2419 0.0
N350 N 0.572 0.45869 0.20694 0.0
N351 N 0.59799 0.45442 0.18006 0.0
C352 C 0.53355 0.43111 0.28385 0.0
H353 H 0.52492 0.45429 0.2793 0.0
H354 H 0.54777 0.43449 0.31985 0.0
H355 H 0.50645 0.40125 0.28283 0.0
C356 C 0.60613 0.59397 0.28594 0.0
N357 N 0.57732 0.56482 0.25807 0.0
N358 N 0.58634 0.53668 0.25174 0.0
C359 C 0.62119 0.54709 0.27538 0.0
C360 C 0.63535 0.58387 0.29835 0.0
C361 C 0.60828 0.63297 0.29534 0.0
H362 H 0.61323 0.6492 0.2605 0.0
H363 H 0.57938 0.6277 0.31029 0.0
H364 H 0.6328 0.65145 0.32087 0.0
O365 O 0.55097 0.56535 0.14633 0.0
O366 O 0.57254 0.52207 0.13814 0.0
H367 H 0.64714 0.51901 0.23412 0.0
H368 H 0.6725 0.54008 0.29065 0.0
C369 C 0.64297 0.52424 0.27261 0.0
H370 H 0.62501 0.49517 0.29086 0.0
H371 H 0.61156 0.47108 0.14895 0.0
O372 O 0.52802 0.60649 0.22833 0.0
C373 C 0.5659 0.54863 0.12067 0.0
Co374 Co 0.50189 0.98994 0.21506 0.0
Co375 Co 0.57453 0.07108 0.22807 0.0
C376 C 0.58684 1.00079 0.21949 0.0
O377 O 0.549 0.97977 0.2165 0.0
O378 O 0.60282 0.03808 0.22724 0.0
C379 C 0.45856 0.91273 0.25226 0.0
O380 O 0.49062 0.92304 0.27847 0.0
C381 C 0.64122 0.13751 0.27526 0.0
C382 C 0.64008 0.18977 0.24459 0.0
C383 C 0.65892 0.17837 0.27855 0.0
N384 N 0.61279 0.12492 0.24119 0.0
N385 N 0.6124 0.15625 0.22258 0.0
C386 C 0.6501 0.11054 0.30525 0.0
H387 H 0.62295 0.08095 0.3092 0.0
H388 H 0.66165 0.12342 0.34156 0.0
H389 H 0.67325 0.10648 0.28657 0.0
C390 C 0.46613 1.02685 0.28211 0.0
N391 N 0.49711 1.02487 0.26143 0.0
N392 N 0.53052 0.05623 0.27391 0.0
C393 C 0.52224 0.07712 0.30691 0.0
C394 C 0.48056 0.06047 0.3128 0.0
C395 C 0.42379 0.99999 0.26692 0.0
H396 H 0.4227 0.99311 0.2277 0.0
H397 H 0.41169 0.9714 0.28691 0.0
H398 H 0.40491 1.01359 0.27411 0.0
O399 O 0.50313 1.00876 0.14887 0.0
O400 O 0.5561 0.06889 0.15804 0.0
H401 H 0.56699 0.13803 0.30978 0.0
H402 H 0.54231 0.11817 0.36727 0.0
C403 C 0.55407 0.11171 0.33392 0.0
H404 H 0.57812 0.1054 0.34423 0.0
H405 H 0.59227 0.15464 0.19615 0.0
O406 O 0.45656 0.93731 0.22338 0.0
C407 C 0.529 0.04209 0.13126 0.0
Co408 Co 0.55409 0.07511 0.82485 0.0
Co409 Co 0.54027 0.99165 0.83704 0.0
C410 C 0.62558 0.06455 0.83111 0.0
O411 O 0.61134 0.08698 0.8207 0.0
O412 O 0.60175 1.02751 0.83772 0.0
C413 C 0.58566 0.15119 0.78279 0.0
O414 O 0.60836 0.14125 0.758 0.0
C415 C 0.546 0.93329 0.78306 0.0
C416 C 0.53207 0.88376 0.83356 0.0
C417 C 0.54511 0.89736 0.78682 0.0
N418 N 0.53411 0.94092 0.82524 0.0
N419 N 0.52524 0.91104 0.85538 0.0
C420 C 0.56238 0.96217 0.74149 0.0
H421 H 0.54814 0.98072 0.73901 0.0
H422 H 0.55822 0.94631 0.70663 0.0
H423 H 0.59472 0.98251 0.74722 0.0
C424 C 0.48383 1.03396 0.75443 0.0
N425 N 0.51319 1.03538 0.78329 0.0
N426 N 0.50664 0.99911 0.78981 0.0
C427 C 0.47297 0.97345 0.76528 0.0
C428 C 0.45698 0.99439 0.74129 0.0
C429 C 0.47948 0.06941 0.74333 0.0
H430 H 0.47897 0.08399 0.7777 0.0
H431 H 0.50582 0.09121 0.7223 0.0
H432 H 0.45191 0.06112 0.7223 0.0
O433 O 0.53931 0.06148 0.89523 0.0
O434 O 0.52421 0.99816 0.90352 0.0
H435 H 0.42321 0.91387 0.75512 0.0
H436 H 0.47167 0.92014 0.74286 0.0
C437 C 0.45476 0.92918 0.76721 0.0
H438 H 0.45666 0.91964 0.80462 0.0
H439 H 0.51663 0.91024 0.89141 0.0
O440 O 0.55916 0.1266 0.81159 0.0
C441 C 0.52826 1.03042 0.92139 0.0
Co442 Co 1.00236 0.50882 0.82294 0.0
Co443 Co 0.08564 0.57809 0.8343 0.0
C444 C 1.0102 0.58824 0.82347 0.0
O445 O 0.98878 0.55207 0.81067 0.0
O446 O 1.0472 0.6017 0.83335 0.0
C447 C 0.92683 0.43215 0.79858 0.0
O448 O 0.93067 0.43521 0.75121 0.0
C449 C 0.15366 0.64407 0.79034 0.0
C450 C 0.20335 0.65543 0.83981 0.0
C451 C 0.19447 0.66617 0.79561 0.0
N452 N 0.13866 0.62048 0.82911 0.0
N453 N 0.16832 0.62772 0.8591 0.0
C454 C 0.12957 0.64317 0.74729 0.0
H455 H 0.09761 0.62078 0.75234 0.0
H456 H 0.14106 0.63613 0.7141 0.0
H457 H 0.13284 0.67307 0.74199 0.0
C458 C 1.04616 0.4783 0.75502 0.0
N459 N 1.04315 0.50603 0.78257 0.0
N460 N 0.07902 0.53711 0.78717 0.0
C461 C 0.1055 0.52997 0.76268 0.0
C462 C 0.08589 0.49257 0.74069 0.0
C463 C 1.01264 0.43723 0.74575 0.0
H464 H 0.99398 0.42534 0.77866 0.0
H465 H 0.99408 0.43835 0.71573 0.0
H466 H 1.02395 0.41704 0.73493 0.0
O467 O 1.01639 0.51358 0.89368 0.0
O468 O 0.08069 0.55685 0.90055 0.0
H469 H 0.16004 0.56696 0.80043 0.0
H470 H 0.16568 0.54241 0.74786 0.0
C471 C 0.14959 0.55703 0.76294 0.0
H472 H 0.15656 0.58326 0.74023 0.0
H473 H 0.1649 0.61244 0.89158 0.0
O474 O 0.95219 0.45932 0.82543 0.0
C475 C 1.04756 0.53215 0.91961 0.0
Co476 Co 0.61202 0.53256 0.83311 0.0
Co477 Co 0.54175 0.54343 0.81725 0.0
C478 C 0.5361 0.45997 0.82484 0.0
O479 O 0.57326 0.47563 0.81686 0.0
O480 O 0.52056 0.48245 0.82649 0.0
C481 C 0.6528 0.50496 0.88464 0.0
O482 O 0.61603 0.47937 0.89732 0.0
C483 C 0.48883 0.54153 0.74287 0.0
C484 C 0.44945 0.55865 0.78141 0.0
C485 C 0.4572 0.54828 0.73629 0.0
N486 N 0.49956 0.54783 0.78962 0.0
N487 N 0.47607 0.55813 0.81263 0.0
C488 C 0.50818 0.52854 0.70549 0.0
H489 H 0.54031 0.5411 0.71297 0.0
H490 H 0.50412 0.53733 0.66849 0.0
H491 H 0.49454 0.49572 0.70696 0.0
C492 C 0.65294 0.60441 0.76276 0.0
N493 N 0.62128 0.5739 0.78589 0.0
N494 N 0.5901 0.57862 0.78051 0.0
C495 C 0.60111 0.61257 0.75481 0.0
C496 C 0.64132 0.63032 0.74173 0.0
C497 C 0.69439 0.61081 0.76465 0.0
H498 H 0.69358 0.58181 0.7623 0.0
H499 H 0.71296 0.63092 0.73498 0.0
H500 H 0.70809 0.62453 0.79994 0.0
O501 O 0.595 0.54461 0.89663 0.0
O502 O 0.55036 0.56372 0.88362 0.0
H503 H 0.59286 0.66302 0.74134 0.0
H504 H 0.5566 0.6172 0.71383 0.0
C505 C 0.57488 0.63036 0.74684 0.0
H506 H 0.55466 0.62398 0.77823 0.0
H507 H 0.47819 0.56475 0.84955 0.0
O508 O 0.65954 0.53142 0.85269 0.0
C509 C 0.5725 0.55748 0.91226 0.0
Co510 Co 0.79247 0.88618 0.55297 0.0
Co511 Co 0.70734 0.86979 0.55219 0.0
C512 C 0.78066 0.95558 0.55376 0.0
O513 O 0.8044 0.94269 0.56411 0.0
O514 O 0.74347 0.93076 0.54957 0.0
C515 C 0.86511 0.9115 0.51194 0.0
O516 O 0.84824 0.88949 0.5503 0.0
C517 C 0.65075 0.86895 0.61869 0.0
C518 C 0.59602 0.85064 0.57577 0.0
C519 C 0.61209 0.86194 0.62192 0.0
N520 N 0.6574 0.86202 0.57304 0.0
N521 N 0.6246 0.85087 0.54737 0.0
C522 C 0.68161 0.8836 0.65817 0.0
H523 H 0.70217 0.87176 0.65401 0.0
H524 H 0.66745 0.87531 0.69451 0.0
H525 H 0.69997 0.91645 0.65587 0.0
C526 C 0.75706 0.81341 0.62159 0.0
N527 N 0.75625 0.84304 0.5956 0.0
N528 N 0.71916 0.83523 0.59258 0.0
C529 C 0.69524 0.80029 0.61589 0.0
C530 C 0.71816 0.78498 0.63599 0.0
C531 C 0.79367 0.81 0.62807 0.0
H532 H 0.80061 0.80033 0.59333 0.0
H533 H 0.81937 0.83951 0.63732 0.0
H534 H 0.7893 0.78797 0.65671 0.0
O535 O 0.77223 0.87445 0.48433 0.0
O536 O 0.70766 0.85608 0.48336 0.0
H537 H 0.63956 0.78567 0.5818 0.0
H538 H 0.63695 0.74793 0.62301 0.0
C539 C 0.65066 0.78038 0.61658 0.0
H540 H 0.64127 0.79308 0.64639 0.0
H541 H 0.6219 0.84399 0.5105 0.0
O542 O 0.84698 0.89032 0.54886 0.0
C543 C 0.73955 0.86288 0.46148 0.0
Co544 Co 0.20501 0.89392 0.54549 0.0
Co545 Co 0.21932 0.82395 0.54342 0.0
C546 C 0.13364 0.81322 0.54367 0.0
O547 O 0.1482 0.85027 0.55071 0.0
O548 O 0.15733 0.79906 0.54196 0.0
C549 C 0.19635 0.96229 0.57366 0.0
O550 O 0.19411 0.95212 0.61952 0.0
C551 C 0.2163 0.76466 0.60645 0.0
C552 C 0.26501 0.755 0.58109 0.0
C553 C 0.23903 0.74753 0.61957 0.0
N554 N 0.2291 0.78264 0.56336 0.0
N555 N 0.25747 0.77585 0.54751 0.0
C556 C 0.18505 0.7671 0.63602 0.0
H557 H 0.15785 0.75725 0.61374 0.0
H558 H 0.19598 0.79849 0.64649 0.0
H559 H 0.17692 0.74814 0.66893 0.0
C560 C 0.27573 0.92734 0.61787 0.0
N561 N 0.24579 0.89801 0.59112 0.0
N562 N 0.25367 0.8689 0.5859 0.0
C563 C 0.28961 0.87972 0.607 0.0
C564 C 0.3042 0.91635 0.63024 0.0
C565 C 0.28103 0.96789 0.62526 0.0
H566 H 0.27311 0.97813 0.59164 0.0
H567 H 0.26124 0.96664 0.6551 0.0
H568 H 0.31225 0.98961 0.63539 0.0
O569 O 0.22249 0.89041 0.4785 0.0
O570 O 0.23573 0.84067 0.47559 0.0
H571 H 0.31368 0.85659 0.55484 0.0
H572 H 0.34609 0.88015 0.60608 0.0
C573 C 0.31462 0.8613 0.59459 0.0
H574 H 0.30307 0.83225 0.61243 0.0
H575 H 0.27396 0.78827 0.51595 0.0
O576 O 0.19998 0.94101 0.54182 0.0
C577 C 0.23362 0.8692 0.45526 0.0
Co578 Co 0.18347 0.33597 0.5507 0.0
Co579 Co 0.25313 0.41824 0.53856 0.0
C580 C 0.26536 0.34548 0.54807 0.0
O581 O 0.2283 0.32368 0.55636 0.0
O582 O 0.27958 0.38293 0.5433 0.0
C583 C 0.11291 0.25785 0.58317 0.0
O584 O 0.11333 0.26593 0.62945 0.0
C585 C 0.31857 0.48099 0.58535 0.0
C586 C 0.35109 0.52554 0.52818 0.0
C587 C 0.35341 0.51599 0.57613 0.0
N588 N 0.29653 0.47003 0.54507 0.0
N589 N 0.31554 0.49703 0.511 0.0
C590 C 0.30898 0.45521 0.62965 0.0
H591 H 0.27638 0.43644 0.63444 0.0
H592 H 0.32226 0.47366 0.6625 0.0
H593 H 0.32148 0.43506 0.62544 0.0
C594 C 0.15261 0.3789 0.61791 0.0
N595 N 0.18078 0.37613 0.59097 0.0
N596 N 0.21131 0.41208 0.58485 0.0
C597 C 0.20361 0.43853 0.60826 0.0
C598 C 0.16616 0.41861 0.63089 0.0
C599 C 0.11139 0.34521 0.62649 0.0
H600 H 0.10141 0.32467 0.59511 0.0
H601 H 0.11151 0.32888 0.65952 0.0
H602 H 0.09013 0.35625 0.63244 0.0
O603 O 0.18227 0.34869 0.48114 0.0
O604 O 0.23317 0.40973 0.47056 0.0
H605 H 0.21417 0.49848 0.6173 0.0
H606 H 0.25592 0.49148 0.63056 0.0
C607 C 0.23016 0.48267 0.60593 0.0
H608 H 0.24173 0.49178 0.56853 0.0
H609 H 0.30563 0.49457 0.47527 0.0
O610 O 0.13837 0.28349 0.55507 0.0
C611 C 0.20399 0.37802 0.45366 0.0
C612 C 0.23025 0.16749 1.00912 0.0
C613 C 0.26592 0.20008 0.99058 0.0
C614 C 0.27081 0.23858 0.06216 0.0
C615 C 0.23159 0.20982 0.0755 0.0
N616 N 0.1722 0.14715 0.06042 0.0
N617 N 0.31295 0.27067 0.9935 0.0
C618 C 0.21075 0.17406 0.04885 0.0
C619 C 0.28436 0.23682 1.01549 0.0
N620 N 0.21576 0.13033 0.99009 0.0
N621 N 0.29452 0.26829 0.09344 0.0
H622 H 0.32145 0.2713 0.95746 0.0
H623 H 0.32475 0.29867 1.00939 0.0
H624 H 0.28533 0.26987 0.12856 0.0
H625 H 0.32436 0.28856 0.08599 0.0
H626 H 0.1919 0.10506 1.00528 0.0
H627 H 0.22981 0.12417 0.9619 0.0
H628 H 0.15415 0.12266 0.03884 0.0
H629 H 0.15771 0.15068 0.09029 0.0
C630 C 0.90546 0.05363 0.05649 0.0
C631 C 0.88546 1.01176 0.05458 0.0
C632 C 0.89042 1.01319 0.96643 0.0
C633 C 0.90767 0.05507 0.968 0.0
N634 N 0.94741 0.11499 1.01346 0.0
N635 N 0.87631 0.95393 1.01168 0.0
C636 C 0.92065 0.07529 1.01291 0.0
C637 C 0.88383 0.99221 1.01071 0.0
N638 N 0.90846 0.07248 0.09934 0.0
N639 N 0.87801 0.9932 0.92353 0.0
H640 H 0.87388 0.93927 0.04435 0.0
H641 H 0.87728 0.93884 0.98095 0.0
H642 H 0.88263 1.00748 0.89015 0.0
H643 H 0.86104 0.96231 0.92153 0.0
H644 H 0.91873 0.10288 0.10176 0.0
H645 H 0.89892 0.05715 0.1322 0.0
H646 H 0.95994 0.13104 0.0451 0.0
H647 H 0.9602 0.13049 0.98154 0.0
C648 C 0.08369 0.84369 1.01741 0.0
C649 C 0.09528 0.87873 0.04445 0.0
C650 C 1.05389 0.89432 0.99152 0.0
C651 C 1.04696 0.86172 0.96159 0.0
N652 N 0.06946 0.81643 0.93692 0.0
N653 N 0.09809 0.94239 0.05042 0.0
C654 C 0.06704 0.84041 0.97128 0.0
C655 C 0.08249 0.90576 0.02949 0.0
N656 N 0.08612 0.81244 0.03663 0.0
N657 N 1.03218 0.91311 0.98552 0.0
H658 H 0.11982 0.95218 0.07744 0.0
H659 H 0.0922 0.9643 0.0376 0.0
H660 H 1.01093 0.90566 0.9583 0.0
H661 H 1.03331 0.93413 1.00993 0.0
H662 H 0.07527 0.78539 1.01853 0.0
H663 H 0.09454 0.81205 0.07252 0.0
H664 H 0.08591 0.80201 0.94224 0.0
H665 H 0.05818 0.81433 0.90193 0.0
C666 C 0.81917 0.80533 0.99725 0.0
C667 C 0.80335 0.76345 0.99359 0.0
C668 C 0.74394 0.75761 0.03624 0.0
C669 C 0.76416 0.79872 0.04935 0.0
N670 N 0.83083 0.85548 0.05628 0.0
N671 N 0.75317 0.70052 0.02757 0.0
C672 C 0.80474 0.8209 0.03401 0.0
C673 C 0.76635 0.73964 1.01835 0.0
N674 N 0.84625 0.83068 0.96448 0.0
N675 N 0.70343 0.73589 0.03756 0.0
H676 H 0.77072 0.68753 0.02082 0.0
H677 H 0.72737 0.68305 0.04769 0.0
H678 H 0.68591 0.74897 0.04397 0.0
H679 H 0.68789 0.70655 0.02543 0.0
H680 H 0.857 0.86128 0.96574 0.0
H681 H 0.85372 0.82047 0.93344 0.0
H682 H 0.86102 0.87084 0.047 0.0
H683 H 0.82334 0.86525 0.08768 0.0
C684 C 0.37895 0.07619 0.04431 0.0
C685 C 0.37408 0.07792 0.99315 0.0
C686 C 0.32872 1.00435 0.99427 0.0
C687 C 0.33433 1.00246 0.04517 0.0
N688 N 0.37073 1.03631 0.11679 0.0
N689 N 0.35099 0.04172 0.91844 0.0
C690 C 0.36142 0.03837 0.06945 0.0
C691 C 0.35093 0.04132 0.96798 0.0
N692 N 0.39897 0.11099 0.06949 0.0
N693 N 0.30114 0.97079 0.97094 0.0
H694 H 0.36685 0.06782 0.89829 0.0
H695 H 0.33844 1.01611 0.89732 0.0
H696 H 0.28573 0.94316 0.98809 0.0
H697 H 0.29166 0.97072 0.93556 0.0
H698 H 0.3999 0.11259 0.10717 0.0
H699 H 0.4126 0.13878 0.0526 0.0
H700 H 0.39336 0.06012 0.13554 0.0
H701 H 0.35788 1.0097 0.13632 0.0
C702 C 1.04544 0.29659 0.96653 0.0
C703 C 1.00889 0.27442 0.99243 0.0
C704 C 1.0485 0.29247 0.06903 0.0
C705 C 0.08516 0.31045 0.04272 0.0
N706 N 0.11794 0.3267 0.96513 0.0
N707 N 0.97633 0.24861 0.06899 0.0
C708 C 0.08335 0.31192 0.99109 0.0
C709 C 1.01074 0.27194 0.04392 0.0
N710 N 1.04391 0.30387 0.91829 0.0
N711 N 1.04973 0.29584 0.11839 0.0
H712 H 0.94836 0.23426 0.05243 0.0
H713 H 0.97567 0.24129 0.10546 0.0
H714 H 0.07643 0.31045 0.13772 0.0
H715 H 1.02458 0.28734 0.13981 0.0
H716 H 0.0688 0.32308 0.89788 0.0
H717 H 1.01705 0.29331 0.89954 0.0
H718 H 0.11887 0.32453 0.92759 0.0
H719 H 0.14592 0.33881 0.98152 0.0
C720 C 0.86877 0.53028 0.32599 0.0
C721 C 0.89255 0.5123 0.33271 0.0
C722 C 0.88562 0.5131 0.42049 0.0
C723 C 0.86382 0.53331 0.41401 0.0
N724 N 0.82058 0.54517 0.3622 0.0
N725 N 0.90614 0.4697 0.38307 0.0
C726 C 0.85052 0.53639 0.36708 0.0
C727 C 0.89537 0.49817 0.37905 0.0
N728 N 0.86504 0.54301 0.28107 0.0
N729 N 0.89884 0.50994 0.46533 0.0
H730 H 0.90853 0.45525 0.35252 0.0
H731 H 0.90665 0.45661 0.41595 0.0
H732 H 0.89196 0.52006 0.49681 0.0
H733 H 0.91869 0.49938 0.47065 0.0
H734 H 0.8517 0.56035 0.27522 0.0
H735 H 0.87721 0.53791 0.25 0.0
H736 H 0.80771 0.54525 0.32899 0.0
H737 H 0.80602 0.5482 0.39232 0.0
C738 C 0.54268 0.34417 0.26684 0.0
C739 C 0.57626 0.38164 0.27529 0.0
C740 C 0.57125 0.3699 0.36269 0.0
C741 C 0.53527 0.33345 0.35499 0.0
N742 N 0.49048 0.28277 0.29929 0.0
N743 N 0.62998 0.4257 0.32656 0.0
C744 C 0.5224 0.31948 0.30685 0.0
C745 C 0.59325 0.39268 0.32189 0.0
N746 N 0.52843 0.3339 0.22056 0.0
N747 N 0.58287 0.38394 0.40876 0.0
H748 H 0.64602 0.44219 0.29634 0.0
H749 H 0.64591 0.43454 0.35892 0.0
H750 H 0.56689 0.36872 0.43956 0.0
H751 H 0.6067 0.41198 0.41661 0.0
H752 H 0.50077 0.3098 0.21174 0.0
H753 H 0.54436 0.35063 0.19048 0.0
H754 H 0.48317 0.26807 0.26613 0.0
H755 H 0.47146 0.26677 0.32701 0.0
C756 C 0.75894 0.23985 0.33914 0.0
C757 C 0.74675 0.22883 0.38784 0.0
C758 C 0.67756 0.20238 0.36324 0.0
C759 C 0.6893 0.20375 0.31435 0.0
N760 N 0.74135 0.22489 0.25446 0.0
N761 N 0.69416 0.20025 0.44746 0.0
C762 C 0.73014 0.22337 0.30172 0.0
C763 C 0.70594 0.21084 0.4005 0.0
N764 N 0.79777 0.26663 0.32908 0.0
N765 N 0.63949 0.19343 0.37364 0.0
H766 H 0.71432 0.20689 0.4759 0.0
H767 H 0.66439 0.18292 0.45768 0.0
H768 H 0.61947 0.19022 0.34628 0.0
H769 H 0.62964 0.1943 0.40852 0.0
H770 H 0.80813 0.27772 0.29444 0.0
H771 H 0.81822 0.28154 0.35665 0.0
H772 H 0.77071 0.23478 0.24393 0.0
H773 H 0.72084 0.21427 0.226 0.0
C774 C 0.47397 0.12004 0.34379 0.0
C775 C 0.45793 0.07814 0.34063 0.0
C776 C 0.3991 0.07292 0.38481 0.0
C777 C 0.4196 0.11447 0.3961 0.0
N778 N 0.48639 0.17109 0.40177 0.0
N779 N 0.40754 1.01527 0.37437 0.0
C780 C 0.46007 0.13611 0.38039 0.0
C781 C 0.42104 0.05456 0.3659 0.0
N782 N 0.50066 0.14497 0.31039 0.0
N783 N 0.35873 0.05103 0.38934 0.0
H784 H 0.42453 1.00194 0.36608 0.0
H785 H 0.38207 0.99774 0.39501 0.0
H786 H 0.34142 0.06396 0.39771 0.0
H787 H 0.3426 1.0213 0.37874 0.0
H788 H 0.51157 0.17562 0.3112 0.0
H789 H 0.50744 0.13437 0.27916 0.0
H790 H 0.51647 0.18658 0.39192 0.0
H791 H 0.479 0.18157 0.43265 0.0
C792 C 0.97352 0.39012 0.33851 0.0
C793 C 1.01502 0.41123 0.32694 0.0
C794 C 1.01638 0.35151 0.35871 0.0
C795 C 0.97718 0.33479 0.37897 0.0
N796 N 0.92819 0.35311 0.40317 0.0
N797 N 0.0776 0.41343 0.3438 0.0
C798 C 0.95858 0.35852 0.37341 0.0
C799 C 1.03706 0.39233 0.34211 0.0
N800 N 0.94739 0.39807 0.31461 0.0
N801 N 1.03361 0.32851 0.35269 0.0
H802 H 0.09354 0.44398 0.3374 0.0
H803 H 0.09435 0.40139 0.35809 0.0
H804 H 1.01808 0.29794 0.35898 0.0
H805 H 0.0612 0.33914 0.33567 0.0
H806 H 0.91674 0.38195 0.32123 0.0
H807 H 0.95584 0.41672 0.28434 0.0
H808 H 0.92002 0.33439 0.43336 0.0
H809 H 0.91525 0.37119 0.40109 0.0
C810 C 0.71635 0.63573 0.39898 0.0
C811 C 0.75242 0.64811 0.37266 0.0
C812 C 0.71207 0.6255 0.29692 0.0
C813 C 0.67576 0.60876 0.32388 0.0
N814 N 0.64377 0.59559 0.40185 0.0
N815 N 0.78396 0.6515 0.29629 0.0
C816 C 0.67814 0.61357 0.37527 0.0
C817 C 0.74999 0.64226 0.32149 0.0
N818 N 0.71865 0.64599 0.44672 0.0
N819 N 0.71036 0.62633 0.24746 0.0
H820 H 0.81209 0.66473 0.31246 0.0
H821 H 0.78406 0.64365 0.26024 0.0
H822 H 0.6835 0.61474 0.22848 0.0
H823 H 0.73537 0.64156 0.22544 0.0
H824 H 0.6942 0.64184 0.46711 0.0
H825 H 0.74576 0.66185 0.46499 0.0
H826 H 0.64317 0.59366 0.43953 0.0
H827 H 0.61558 0.5801 0.38599 0.0
C828 C 0.55703 0.83817 0.68463 0.0
C829 C 0.59346 0.86887 0.665 0.0
C830 C 0.60276 0.90903 0.73651 0.0
C831 C 0.56325 0.88248 0.7513 0.0
N832 N 0.50072 0.82244 0.73719 0.0
N833 N 0.64389 0.9385 0.66635 0.0
C834 C 0.53972 0.84695 0.72497 0.0
C835 C 0.61442 0.90579 0.68926 0.0
N836 N 0.53967 0.80062 0.66602 0.0
N837 N 0.62881 0.93785 0.7672 0.0
H838 H 0.65117 0.9382 0.62998 0.0
H839 H 0.65774 0.96672 0.68197 0.0
H840 H 0.62109 0.94031 0.80279 0.0
H841 H 0.65882 0.95638 0.75858 0.0
H842 H 0.51511 0.77648 0.682 0.0
H843 H 0.55192 0.79283 0.63729 0.0
H844 H 0.48107 0.7985 0.71585 0.0
H845 H 0.48746 0.82759 0.76714 0.0
C846 C 0.22992 0.67451 0.71832 0.0
C847 C 0.2222 0.6924 0.75818 0.0
C848 C 0.24313 0.7525 0.71069 0.0
C849 C 0.23975 0.73056 0.66776 0.0
N850 N 0.22936 0.66933 0.6311 0.0
N851 N 0.22375 0.74924 0.79485 0.0
C852 C 0.23405 0.69148 0.6716 0.0
C853 C 0.23039 0.73204 0.75544 0.0
N854 N 0.23237 0.64092 0.72534 0.0
N855 N 0.25821 0.79265 0.70874 0.0
H856 H 0.21626 0.73538 0.82877 0.0
H857 H 0.22394 0.77621 0.79336 0.0
H858 H 0.26728 0.80865 0.6766 0.0
H859 H 0.26485 0.81046 0.73943 0.0
H860 H 0.2408 0.62789 0.69825 0.0
H861 H 0.22999 0.6288 0.75987 0.0
H862 H 0.2207 0.63923 0.63245 0.0
H863 H 0.23089 0.67988 0.59596 0.0
C864 C 0.41896 0.50703 0.66526 0.0
C865 C 0.43465 0.5433 0.69105 0.0
C866 C 0.40278 0.56702 0.63335 0.0
C867 C 0.38931 0.53143 0.6068 0.0
N868 N 0.39803 0.47573 0.58702 0.0
N869 N 0.45048 0.61207 0.69203 0.0
C870 C 0.40275 0.50464 0.61889 0.0
C871 C 0.42946 0.57481 0.67274 0.0
N872 N 0.41616 0.4738 0.68643 0.0
N873 N 0.38894 0.59238 0.62227 0.0
H874 H 0.4713 0.61912 0.71978 0.0
H875 H 0.45014 0.63669 0.67726 0.0
H876 H 0.37047 0.58796 0.59252 0.0
H877 H 0.39419 0.61648 0.64398 0.0
H878 H 0.40176 0.44596 0.66987 0.0
H879 H 0.42382 0.47302 0.72253 0.0
H880 H 0.40963 0.45688 0.59339 0.0
H881 H 0.386 0.47353 0.55246 0.0
C882 C 0.10342 0.47019 0.66075 0.0
C883 C 0.10444 0.4714 0.71249 0.0
C884 C 0.14226 0.43456 0.71072 0.0
C885 C 0.14401 0.43618 0.659 0.0
N886 N 0.12771 0.45761 0.58475 0.0
N887 N 0.12711 0.4565 0.78676 0.0
C888 C 0.12486 0.45454 0.63415 0.0
C889 C 0.12444 0.45391 0.73733 0.0
N890 N 0.08121 0.48348 0.63688 0.0
N891 N 0.15714 0.41375 0.73461 0.0
H892 H 0.11278 0.4682 0.80743 0.0
H893 H 0.14514 0.44914 0.80734 0.0
H894 H 0.17157 0.40069 0.71688 0.0
H895 H 0.15308 0.4071 0.77145 0.0
H896 H 0.07515 0.47981 0.5999 0.0
H897 H 0.06635 0.49603 0.65475 0.0
H898 H 0.11892 0.47448 0.56415 0.0
H899 H 0.14107 0.44488 0.56413 0.0
C900 C 0.6824 0.70851 0.63698 0.0
C901 C 0.70308 0.74512 0.66268 0.0
C902 C 0.69035 0.70597 0.73912 0.0
C903 C 0.6657 0.66967 0.71403 0.0
N904 N 0.63624 0.63705 0.63867 0.0
N905 N 0.72483 0.77857 0.7393 0.0
C906 C 0.66138 0.67126 0.6628 0.0
C907 C 0.70687 0.74368 0.71403 0.0
N908 N 0.68375 0.70926 0.58745 0.0
N909 N 0.698 0.70445 0.78724 0.0
H910 H 0.73788 0.80634 0.72239 0.0
H911 H 0.72474 0.78024 0.77695 0.0
H912 H 0.68509 0.67802 0.80708 0.0
H913 H 0.71915 0.72875 0.80679 0.0
H914 H 0.67317 0.68389 0.5661 0.0
H915 H 0.69876 0.73564 0.56762 0.0
H916 H 0.62747 0.63643 0.60281 0.0
H917 H 0.62213 0.6092 0.65543 0.0
C918 C 0.38071 0.96172 0.63422 0.0
C919 C 0.34341 0.93969 0.65869 0.0
C920 C 0.38013 0.95628 0.73736 0.0
C921 C 0.41756 0.97741 0.71285 0.0
N922 N 0.45324 1.00419 0.63827 0.0
N923 N 0.3072 0.92012 0.73387 0.0
C924 C 0.41762 0.98134 0.66133 0.0
C925 C 0.34316 0.9383 0.71041 0.0
N926 N 0.38073 0.96317 0.58466 0.0
N927 N 0.38006 0.95313 0.78679 0.0
H928 H 0.27996 0.90596 0.71562 0.0
H929 H 0.30368 0.92052 0.77118 0.0
H930 H 0.40584 0.96818 0.8077 0.0
H931 H 0.35504 0.9349 0.80749 0.0
H932 H 0.40621 0.97493 0.56324 0.0
H933 H 0.35454 0.95109 0.56426 0.0
H934 H 0.45615 1.01182 0.60175 0.0
H935 H 0.48053 1.01745 0.65639 0.0
C936 C 0.18695 0.39079 0.36928 0.0
C937 C 0.20087 0.3711 0.40044 0.0
C938 C 0.21473 0.34115 0.33003 0.0
C939 C 0.19806 0.35845 0.29876 0.0
N940 N 0.16105 0.39321 0.28974 0.0
N941 N 0.22166 0.32196 0.41123 0.0
C942 C 0.18218 0.38155 0.31874 0.0
C943 C 0.21244 0.34436 0.38103 0.0
N944 N 0.17836 0.41831 0.38797 0.0
N945 N 0.2355 0.32405 0.3115 0.0
H946 H 0.22416 0.32535 0.44872 0.0
H947 H 0.2244 0.29793 0.39925 0.0
H948 H 0.2386 0.32052 0.27473 0.0
H949 H 0.25316 0.31651 0.33264 0.0
H950 H 0.17249 0.43704 0.36663 0.0
H951 H 0.17975 0.42429 0.42501 0.0
H952 H 0.14623 0.40762 0.30251 0.0
H953 H 0.15506 0.38513 0.25334 0.0
C954 C 0.74037 0.83567 0.37886 0.0
C955 C 0.74142 0.86633 0.40784 0.0
C956 C 0.74699 0.90546 0.33488 0.0
C957 C 0.74482 0.87429 0.30567 0.0
N958 N 0.74837 0.81428 0.29875 0.0
N959 N 0.75345 0.93349 0.41503 0.0
C960 C 0.74435 0.84077 0.32751 0.0
C961 C 0.7472 0.90219 0.38625 0.0
N962 N 0.73434 0.80129 0.40045 0.0
N963 N 0.74647 0.93719 0.31372 0.0
H964 H 0.75144 0.93167 0.4527 0.0
H965 H 0.76331 0.96215 0.40208 0.0
H966 H 0.74894 0.94244 0.27653 0.0
H967 H 0.74166 0.95761 0.33271 0.0
H968 H 0.72936 0.77606 0.38148 0.0
H969 H 0.73197 0.7971 0.43797 0.0
H970 H 0.75142 0.79074 0.31195 0.0
H971 H 0.75214 0.81798 0.26124 0.0
C972 C 0.27798 0.89993 0.32825 0.0
C973 C 0.24254 0.88352 0.29989 0.0
C974 C 0.20201 0.86051 0.3739 0.0
C975 C 0.23726 0.87382 0.40186 0.0
N976 N 0.30859 0.90279 0.40647 0.0
N977 N 0.17083 0.84071 0.29529 0.0
C978 C 0.27525 0.89241 0.37922 0.0
C979 C 0.20453 0.86203 0.32257 0.0
N980 N 0.31403 0.92391 0.30667 0.0
N981 N 0.16585 0.8464 0.39635 0.0
H982 H 0.17066 0.83974 0.25756 0.0
H983 H 0.14327 0.82046 0.31007 0.0
H984 H 0.16184 0.84223 0.4337 0.0
H985 H 0.1401 0.84145 0.37823 0.0
H986 H 0.34064 0.93978 0.3257 0.0
H987 H 0.31696 0.9307 0.26974 0.0
H988 H 0.33684 0.9129 0.39182 0.0
H989 H 0.30761 0.89893 0.44402 0.0
C990 C 0.42575 0.17879 0.70874 0.0
C991 C 0.41899 0.20491 0.73816 0.0
C992 C 0.41638 0.24072 0.66568 0.0
C993 C 0.42052 0.21308 0.63622 0.0
N994 N 0.43734 0.16158 0.62761 0.0
N995 N 0.4169 0.26597 0.74613 0.0
C996 C 0.42807 0.18402 0.65731 0.0
C997 C 0.41711 0.23753 0.71702 0.0
N998 N 0.42836 0.1482 0.72998 0.0
N999 N 0.40962 0.26878 0.64437 0.0
H1000 H 0.41609 0.26426 0.78384 0.0
H1001 H 0.42052 0.29288 0.73342 0.0
H1002 H 0.41173 0.27378 0.60704 0.0
H1003 H 0.4005 0.28616 0.6631 0.0
H1004 H 0.43028 0.12608 0.71094 0.0
H1005 H 0.42682 0.14375 0.76743 0.0
H1006 H 0.44566 0.1413 0.63977 0.0
H1007 H 0.43954 0.16558 0.59004 0.0
C1008 C 0.86751 0.18289 0.6548 0.0
C1009 C 0.89218 0.22026 0.63238 0.0
C1010 C 0.91451 0.25116 0.71266 0.0
C1011 C 0.89283 0.21296 0.7348 0.0
N1012 N 0.85213 0.14138 0.72593 0.0
N1013 N 0.94115 0.28958 0.63838 0.0
C1014 C 0.87023 0.17858 0.70561 0.0
C1015 C 0.91606 0.25439 0.66094 0.0
N1016 N 0.84121 0.15121 0.62744 0.0
N1017 N 0.93407 0.28428 0.74101 0.0
H1018 H 0.94133 0.29319 0.60083 0.0
H1019 H 0.96293 0.3146 0.65628 0.0
H1020 H 0.93654 0.28301 0.77855 0.0
H1021 H 0.94643 0.3132 0.72778 0.0
H1022 H 0.81858 0.12482 0.64212 0.0
H1023 H 0.83961 0.15213 0.58983 0.0
H1024 H 0.84079 0.11532 0.70577 0.0
H1025 H 0.85031 0.13583 0.76301 0.0
C1026 C 0.83327 0.71315 0.65332 0.0
C1027 C 0.86546 0.71269 0.62912 0.0
C1028 C 0.9001 0.72091 0.70657 0.0
C1029 C 0.86825 0.72201 0.73114 0.0
N1030 N 0.80746 0.72494 0.72836 0.0
N1031 N 0.93271 0.72375 0.63068 0.0
C1032 C 0.83565 0.71987 0.70453 0.0
C1033 C 0.89985 0.71908 0.65519 0.0
N1034 N 0.8002 0.70616 0.62743 0.0
N1035 N 0.92937 0.71875 0.73224 0.0
H1036 H 0.93316 0.7201 0.59332 0.0
H1037 H 0.96059 0.73424 0.64668 0.0
H1038 H 0.93168 0.72022 0.76986 0.0
H1039 H 0.94985 0.71205 0.71663 0.0
H1040 H 0.77401 0.70246 0.64291 0.0
H1041 H 0.79824 0.70207 0.58992 0.0
H1042 H 0.78434 0.72669 0.71127 0.0
H1043 H 0.80888 0.73031 0.76558 0.0
C1044 C 1.03777 0.55532 0.05123 0.0
C1045 C 1.03159 0.52033 0.0752 0.0
C1046 C 1.03119 0.49074 0.99613 0.0
C1047 C 1.04368 0.52812 0.97337 0.0
N1048 N 0.06602 0.59841 0.98194 0.0
N1049 N 1.02322 0.45462 0.07147 0.0
C1050 C 1.04898 0.56108 1.00162 0.0
C1051 C 1.02818 0.48782 0.04779 0.0
N1052 N 1.03292 0.58327 0.07569 0.0
N1053 N 1.0229 0.45827 0.96855 0.0
H1054 H 1.01842 0.45081 0.10884 0.0
H1055 H 1.02538 0.43174 0.05465 0.0
H1056 H 1.02772 0.4599 0.9312 0.0
H1057 H 1.00946 0.4294 0.98223 0.0
H1058 H 1.03301 0.60735 0.0586 0.0
H1059 H 1.02474 0.58044 0.11205 0.0
H1060 H 0.075 0.62391 1.00268 0.0
H1061 H 0.07447 0.60477 0.94577 0.0
C1062 C 0.60331 0.58681 0.99303 0.0
C1063 C 0.56917 0.56045 0.96543 0.0
C1064 C 0.53442 0.52596 0.03959 0.0
C1065 C 0.5674 0.55369 0.06747 0.0
N1066 N 0.63105 0.61354 0.07249 0.0
N1067 N 0.49892 0.51097 0.9636 0.0
C1068 C 0.60119 0.58523 0.0447 0.0
C1069 C 0.5336 0.53221 0.98909 0.0
N1070 N 0.63784 0.61283 0.96977 0.0
N1071 N 0.50469 0.49232 0.06087 0.0
H1072 H 0.4967 0.51284 0.92619 0.0
H1073 H 0.47132 0.49369 0.98023 0.0
H1074 H 0.50407 0.48609 0.09775 0.0
H1075 H 0.48248 0.46874 0.04129 0.0
H1076 H 0.6651 0.62941 0.98732 0.0
H1077 H 0.63958 0.6166 0.93218 0.0
H1078 H 0.65481 0.63934 0.05838 0.0
H1079 H 0.63067 0.61244 0.11032 0.0
C1080 C 0.56033 0.03691 1.00248 0.0
C1081 C 0.52805 1.03464 0.97512 0.0
C1082 C 0.49793 0.04201 0.0503 0.0
C1083 C 0.53124 0.04609 0.07725 0.0
N1084 N 0.5987 0.05683 0.0765 0.0
N1085 N 0.4691 0.04095 0.97131 0.0
C1086 C 0.56388 0.04668 0.05256 0.0
C1087 C 0.49782 0.03922 0.99854 0.0
N1088 N 0.58731 1.02859 0.98107 0.0
N1089 N 0.46616 0.04026 0.07436 0.0
H1090 H 0.4672 0.03722 0.93375 0.0
H1091 H 0.44859 0.04833 0.98532 0.0
H1092 H 0.46649 0.04505 0.11162 0.0
H1093 H 0.43896 1.03247 0.05794 0.0
H1094 H 0.60787 1.02409 1.00057 0.0
H1095 H 0.58757 1.02314 0.94416 0.0
H1096 H 0.625 0.06304 0.0588 0.0
H1097 H 0.6029 0.06231 0.11351 0.0
C1098 C 0.35458 0.40093 0.21086 0.0
C1099 C 0.34085 0.40662 0.16474 0.0
C1100 C 0.41026 0.45999 0.14783 0.0
C1101 C 0.42444 0.45192 0.19193 0.0
N1102 N 0.41027 0.40874 0.26074 0.0
N1103 N 0.35939 0.43545 0.08498 0.0
C1104 C 0.39666 0.42019 0.2216 0.0
C1105 C 0.36993 0.43437 0.13204 0.0
N1106 N 0.3276 0.37989 0.24633 0.0
N1107 N 0.43499 0.49291 0.12118 0.0
H1108 H 0.33087 0.41624 0.07165 0.0
H1109 H 0.37993 0.45207 0.05808 0.0
H1110 H 0.46462 0.51217 0.13055 0.0
H1111 H 0.4252 0.50291 0.09194 0.0
H1112 H 0.33563 0.37816 0.28196 0.0
H1113 H 0.29707 0.36789 0.24176 0.0
H1114 H 0.39227 0.38322 0.28093 0.0
H1115 H 0.44036 0.42294 0.27039 0.0
C1116 C 0.63317 0.9735 0.24244 0.0
C1117 C 0.61228 0.98214 0.2063 0.0
C1118 C 0.63965 0.95561 0.14404 0.0
C1119 C 0.65717 0.94336 0.18071 0.0
N1120 N 0.6655 0.93577 0.26606 0.0
N1121 N 0.59168 0.97655 0.12263 0.0
C1122 C 0.65253 0.95108 0.23025 0.0
C1123 C 0.6145 0.97182 0.15707 0.0
N1124 N 0.63468 0.98684 0.28863 0.0
N1125 N 0.64731 0.95205 0.09651 0.0
H1126 H 0.57365 0.98886 0.13009 0.0
H1127 H 0.58827 0.96571 0.08742 0.0
H1128 H 0.66453 0.93947 0.08589 0.0
H1129 H 0.63936 0.9643 0.06787 0.0
H1130 H 0.65295 0.98564 0.31561 0.0
H1131 H 0.61986 1.00198 0.29905 0.0
H1132 H 0.65933 0.93631 0.30269 0.0
H1133 H 0.67983 0.91957 0.25888 0.0
C1134 C 0.13093 0.67709 0.14826 0.0
C1135 C 0.121 0.66644 0.19825 0.0
C1136 C 0.15981 0.73838 0.21847 0.0
C1137 C 0.16757 0.74914 0.16832 0.0
N1138 N 0.1548 0.72827 0.08525 0.0
N1139 N 0.1211 0.68834 0.27973 0.0
C1140 C 0.1515 0.71824 0.13326 0.0
C1141 C 0.1337 0.69761 0.23281 0.0
N1142 N 0.12111 0.64774 0.11473 0.0
N1143 N 0.17954 0.76682 0.25287 0.0
H1144 H 0.1036 0.65912 0.29182 0.0
H1145 H 0.12531 0.70957 0.30568 0.0
H1146 H 0.19975 0.79629 0.24416 0.0
H1147 H 0.17888 0.76069 0.28975 0.0
H1148 H 0.13166 0.65305 0.07923 0.0
H1149 H 0.10406 0.61759 0.12294 0.0
H1150 H 0.14009 0.70789 0.05763 0.0
H1151 H 0.16969 0.75773 0.07325 0.0
C1152 C 0.47506 0.36321 0.90127 0.0
C1153 C 0.47655 0.33408 0.8715 0.0
C1154 C 0.51024 0.38615 0.80783 0.0
C1155 C 0.51262 0.41611 0.83957 0.0
N1156 N 0.50356 0.43329 0.9208 0.0
N1157 N 0.49968 0.31936 0.79727 0.0
C1158 C 0.49635 0.40456 0.88734 0.0
C1159 C 0.49538 0.34613 0.82506 0.0
N1160 N 0.45333 0.35146 0.94313 0.0
N1161 N 0.52088 0.39566 0.76034 0.0
H1162 H 0.48753 0.28955 0.80677 0.0
H1163 H 0.51734 0.32711 0.76625 0.0
H1164 H 0.53138 0.42426 0.74654 0.0
H1165 H 0.51582 0.37468 0.73368 0.0
H1166 H 0.44725 0.37025 0.96388 0.0
H1167 H 0.43873 0.32199 0.95508 0.0
H1168 H 0.49641 0.42734 0.9574 0.0
H1169 H 0.52028 0.46354 0.91301 0.0
C1170 C 0.6984 0.0858 0.81057 0.0
C1171 C 0.66959 0.08322 0.84455 0.0
C1172 C 0.72409 0.11612 0.90528 0.0
C1173 C 0.75351 0.12292 0.86971 0.0
N1174 N 0.7675 0.122 0.78457 0.0
N1175 N 0.65675 0.10254 0.92261 0.0
C1176 C 0.74029 0.10942 0.82135 0.0
C1177 C 0.68302 0.10025 0.89145 0.0
N1178 N 0.68588 0.0661 0.76751 0.0
N1179 N 0.73519 0.12384 0.95284 0.0
H1180 H 0.62676 0.09152 0.91419 0.0
H1181 H 0.66535 0.11831 0.95505 0.0
H1182 H 0.76455 0.13464 0.96429 0.0
H1183 H 0.71484 0.1158 0.98124 0.0
H1184 H 0.705 0.06323 0.74333 0.0
H1185 H 0.65581 0.04988 0.75793 0.0
H1186 H 0.75967 0.11643 0.7481 0.0
H1187 H 0.7976 0.14208 0.79004 0.0
C1188 C 0.97065 0.64876 0.89387 0.0
C1189 C 0.94567 0.65269 0.85894 0.0
C1190 C 0.96787 0.61979 0.79864 0.0
C1191 C 0.9898 0.61254 0.83481 0.0
N1192 N 1.00267 0.61157 0.9202 0.0
N1193 N 0.91621 0.63605 0.77896 0.0
C1194 C 0.98895 0.62509 0.88326 0.0
C1195 C 0.94302 0.63638 0.81164 0.0
N1196 N 0.97643 0.66697 0.93783 0.0
N1197 N 0.97176 0.61198 0.75129 0.0
H1198 H 0.89843 0.64872 0.78579 0.0
H1199 H 0.9094 0.62062 0.7463 0.0
H1200 H 0.98966 0.60017 0.74064 0.0
H1201 H 0.96036 0.62053 0.72231 0.0
H1202 H 0.99785 0.66922 0.96262 0.0
H1203 H 0.96175 0.68225 0.94814 0.0
H1204 H 0.99942 0.61615 0.95672 0.0
H1205 H 1.01301 0.59169 0.91451 0.0
C1206 C 0.69451 0.53345 0.9568 0.0
C1207 C 0.68615 0.5099 0.91464 0.0
C1208 C 0.75625 0.53107 0.90455 0.0
C1209 C 0.76459 0.56267 0.93641 0.0
N1210 N 0.74507 0.59015 1.00164 0.0
N1211 N 0.70553 0.47697 0.85643 0.0
C1212 C 0.73477 0.56171 0.9668 0.0
C1213 C 0.716 0.50477 0.89209 0.0
N1214 N 0.66388 0.53036 0.98466 0.0
N1215 N 0.78715 0.52858 0.88426 0.0
H1216 H 0.67561 0.4573 0.84825 0.0
H1217 H 0.7258 0.47324 0.83547 0.0
H1218 H 0.81672 0.54853 0.89364 0.0
H1219 H 0.78366 0.50597 0.86102 0.0
H1220 H 0.66774 0.54601 1.01667 0.0
H1221 H 0.63421 0.5095 0.97737 0.0
H1222 H 0.72469 0.5941 0.02209 0.0
H1223 H 0.77485 0.61041 1.00951 0.0
C1224 C 0.5601 0.23049 0.77901 0.0
C1225 C 0.57432 0.24494 0.82629 0.0
C1226 C 0.61697 0.21536 0.8245 0.0
C1227 C 0.59443 0.19244 0.78454 0.0
N1228 N 0.5515 0.18234 0.71693 0.0
N1229 N 0.62158 0.25921 0.89027 0.0
C1230 C 0.56908 0.20234 0.75865 0.0
C1231 C 0.60545 0.24087 0.84724 0.0
N1232 N 0.53651 0.24218 0.75533 0.0
N1233 N 0.6475 0.21059 0.84175 0.0
H1234 H 0.61382 0.27889 0.90611 0.0
H1235 H 0.64202 0.25491 0.91024 0.0
H1236 H 0.65561 0.19153 0.82491 0.0
H1237 H 0.66631 0.22718 0.86992 0.0
H1238 H 0.52604 0.23383 0.72011 0.0
H1239 H 0.5298 0.26294 0.76994 0.0
H1240 H 0.52921 0.18458 0.69837 0.0
H1241 H 0.55942 0.16273 0.70124 0.0
C1242 C 0.90647 0.38291 0.8671 0.0
C1243 C 0.89676 0.39485 0.82241 0.0
C1244 C 0.83224 0.33304 0.82237 0.0
C1245 C 0.84464 0.32125 0.86466 0.0
N1246 N 0.87896 0.34476 0.94037 0.0
N1247 N 0.84407 0.38757 0.76835 0.0
C1248 C 0.87615 0.35042 0.89204 0.0
C1249 C 0.85752 0.37189 0.80312 0.0
N1250 N 0.94486 0.39891 0.88334 0.0
N1251 N 0.79668 0.3075 0.80118 0.0
H1252 H 0.86092 0.41677 0.75601 0.0
H1253 H 0.81491 0.37318 0.75539 0.0
H1254 H 0.77531 0.28192 0.81893 0.0
H1255 H 0.78833 0.312 0.76684 0.0
H1256 H 0.95218 0.38852 0.91446 0.0
H1257 H 0.96977 0.41772 0.86271 0.0
H1258 H 0.9012 0.36636 0.96223 0.0
H1259 H 0.85645 0.32011 0.95854 0.0
C1260 C 0.53363 0.70672 0.14575 0.0
C1261 C 0.56825 0.72662 0.1754 0.0
C1262 C 0.53345 0.67784 0.23894 0.0
C1263 C 0.50759 0.65178 0.20366 0.0
N1264 N 0.47228 0.64479 0.12929 0.0
N1265 N 0.60198 0.72696 0.25061 0.0
C1266 C 0.50375 0.6675 0.15892 0.0
C1267 C 0.56816 0.71193 0.22295 0.0
N1268 N 0.52906 0.72555 0.10633 0.0
N1269 N 0.5272 0.66702 0.28658 0.0
H1270 H 0.63017 0.74792 0.23822 0.0
H1271 H 0.60299 0.71461 0.28387 0.0
H1272 H 0.50215 0.64053 0.29749 0.0
H1273 H 0.54451 0.68589 0.31444 0.0
H1274 H 0.50345 0.7135 0.08502 0.0
H1275 H 0.54957 0.75497 0.09755 0.0
H1276 H 0.47018 0.65217 0.0935 0.0
H1277 H 0.4478 0.61848 0.14155 0.0
C1278 C 0.37857 0.8242 0.19719 0.0
C1279 C 0.34715 0.82479 0.22252 0.0
C1280 C 0.39256 0.86664 0.28562 0.0
C1281 C 0.42426 0.87265 0.25494 0.0
N1282 N 0.45002 0.84857 0.19287 0.0
N1283 N 0.32089 0.83288 0.29828 0.0
C1284 C 0.41794 0.84758 0.21496 0.0
C1285 C 0.353 0.84074 0.26997 0.0
N1286 N 0.37056 0.8036 0.15472 0.0
N1287 N 0.40068 0.88851 0.3271 0.0
H1288 H 0.29165 0.81371 0.28735 0.0
H1289 H 0.323 0.84258 0.33386 0.0
H1290 H 0.4299 0.90681 0.33905 0.0
H1291 H 0.37913 0.88913 0.34907 0.0
H1292 H 0.39224 0.80416 0.13186 0.0
H1293 H 0.34132 0.78562 0.14257 0.0
H1294 H 0.44801 0.83051 0.16391 0.0
H1295 H 0.47891 0.86622 0.20627 0.0
C1296 C 0.20706 0.52582 0.14626 0.0
C1297 C 0.20809 0.53857 0.1951 0.0
C1298 C 0.27172 0.54057 0.20765 0.0
C1299 C 0.26639 0.52258 0.16175 0.0
N1300 N 0.24639 0.52254 0.07991 0.0
N1301 N 0.2495 0.57372 0.26392 0.0
C1302 C 0.24115 0.52605 0.1281 0.0
C1303 C 0.24323 0.55122 0.22336 0.0
N1304 N 0.17276 0.50865 0.11937 0.0
N1305 N 0.30275 0.54582 0.23631 0.0
H1306 H 0.2301 0.58378 0.27442 0.0
H1307 H 0.27565 0.58569 0.28425 0.0
H1308 H 0.32589 0.54206 0.22281 0.0
H1309 H 0.30557 0.554 0.27266 0.0
H1310 H 0.17117 0.49678 0.08502 0.0
H1311 H 0.14474 0.5009 0.13308 0.0
H1312 H 0.22926 0.52611 0.05318 0.0
H1313 H 0.2705 0.51978 0.06762 0.0
C1314 C 0.07388 0.76195 0.49177 0.0
C1315 C 0.08884 0.78792 0.53287 0.0
C1316 C 1.02136 0.78022 0.54262 0.0
C1317 C 1.00569 0.75201 0.504 0.0
N1318 N 1.01649 0.71089 0.44784 0.0
N1319 N 0.0723 0.81197 0.6046 0.0
C1320 C 1.03176 0.74105 0.48089 0.0
C1321 C 0.06116 0.79416 0.56021 0.0
N1322 N 0.09987 0.75903 0.46075 0.0
N1323 N 0.99849 0.79436 0.56265 0.0
H1324 H 0.10019 0.82065 0.61982 0.0
H1325 H 1.05249 0.81379 0.62865 0.0
H1326 H 0.96887 0.78418 0.55315 0.0
H1327 H 1.00989 0.81843 0.58635 0.0
H1328 H 0.09131 0.74474 0.42735 0.0
H1329 H 0.1306 0.7738 0.46577 0.0
H1330 H 1.03263 0.69815 0.43398 0.0
H1331 H 0.9867 0.69658 0.437 0.0
C1332 C 0.32328 0.30251 0.47827 0.0
C1333 C 0.32708 0.27786 0.51388 0.0
C1334 C 0.29263 0.29946 0.57288 0.0
C1335 C 0.29044 0.32554 0.538 0.0
N1336 N 0.31002 0.35614 0.45869 0.0
N1337 N 0.32291 0.26041 0.59868 0.0
C1338 C 0.30801 0.32855 0.49128 0.0
C1339 C 0.31366 0.27837 0.5621 0.0
N1340 N 0.33199 0.29934 0.43102 0.0
N1341 N 0.27448 0.29467 0.61685 0.0
H1342 H 0.33877 0.24549 0.59324 0.0
H1343 H 0.3184 0.26351 0.63525 0.0
H1344 H 0.26235 0.3121 0.62811 0.0
H1345 H 0.26967 0.27212 0.64121 0.0
H1346 H 0.32539 0.31243 0.40209 0.0
H1347 H 0.34258 0.28054 0.41999 0.0
H1348 H 0.32672 0.36341 0.4269 0.0
H1349 H 0.29734 0.37401 0.46455 0.0
C1350 C 0.82559 1.01419 0.49803 0.0
C1351 C 0.79715 0.99859 0.53667 0.0
C1352 C 0.7947 0.06167 0.53508 0.0
C1353 C 0.82678 0.07904 0.50084 0.0
N1354 N 0.87389 0.07122 0.45148 0.0
N1355 N 0.75805 1.00998 0.59547 0.0
C1356 C 0.84252 0.05503 0.48315 0.0
C1357 C 0.7824 1.02297 0.55572 0.0
N1358 N 0.83481 0.98935 0.47305 0.0
N1359 N 0.77562 0.08194 0.54814 0.0
H1360 H 0.74899 0.98247 0.61178 0.0
H1361 H 0.74979 1.02768 0.61504 0.0
H1362 H 0.78389 0.11036 0.53567 0.0
H1363 H 0.74935 0.06935 0.56827 0.0
H1364 H 0.85134 0.99739 0.44109 0.0
H1365 H 0.82261 0.95923 0.48091 0.0
H1366 H 0.89103 0.05807 0.44327 0.0
H1367 H 0.88396 0.09878 0.4348 0.0
C1368 C 0.18535 1.02038 0.58964 0.0
C1369 C 0.19979 1.00081 0.55878 0.0
C1370 C 0.21951 0.05513 0.50111 0.0
C1371 C 0.21973 0.0793 0.53888 0.0
N1372 N 0.19814 0.08471 0.61874 0.0
N1373 N 0.23989 1.00726 0.4865 0.0
C1374 C 0.20032 0.06175 0.58287 0.0
C1375 C 0.2184 1.01945 0.51384 0.0
N1376 N 0.15721 0.9998 0.62416 0.0
N1377 N 0.2268 0.06937 0.45479 0.0
H1378 H 0.24966 0.98817 0.49886 0.0
H1379 H 0.25441 1.02167 0.45461 0.0
H1380 H 0.23 0.09715 0.44639 0.0
H1381 H 0.22553 0.05202 0.42524 0.0
H1382 H 0.14456 1.01287 0.64543 0.0
H1383 H 0.14284 0.9689 0.62696 0.0
H1384 H 0.18825 0.07403 0.65368 0.0
H1385 H 0.20767 0.11481 0.61346 0.0
C1386 C 0.07136 0.21733 0.51123 0.0
C1387 C 0.08148 0.22006 0.56182 0.0
C1388 C 1.02293 0.15478 0.57506 0.0
C1389 C 1.01131 0.15707 0.52726 0.0
N1390 N 1.03482 0.17182 0.44594 0.0
N1391 N 0.07708 0.18146 0.63343 0.0
C1392 C 1.04096 0.18056 0.49402 0.0
C1393 C 0.06065 0.18544 0.59141 0.0
N1394 N 0.08533 0.24973 0.48125 0.0
N1395 N 0.99721 0.12488 0.60479 0.0
H1396 H 0.10623 0.20177 0.64369 0.0
H1397 H 0.06374 0.15586 0.65475 0.0
H1398 H 0.97092 0.10103 0.5914 0.0
H1399 H 1.00186 0.12411 0.64191 0.0
H1400 H 0.07648 0.24753 0.44512 0.0
H1401 H 0.09975 0.27905 0.49301 0.0
H1402 H 1.05628 0.18816 0.41971 0.0
H1403 H 1.00955 0.14598 0.43404 0.0
C1404 C 0.92665 0.90553 0.51551 0.0
C1405 C 0.89766 0.90892 0.48787 0.0
C1406 C 0.9096 0.87774 0.41837 0.0
C1407 C 0.93089 0.86601 0.44969 0.0
N1408 N 0.96923 0.8759 0.5222 0.0
N1409 N 0.87248 0.91313 0.40972 0.0
C1410 C 0.94359 0.88342 0.49605 0.0
C1411 C 0.89359 0.90079 0.43762 0.0
N1412 N 0.93681 0.92284 0.56019 0.0
N1413 N 0.90238 0.864 0.37182 0.0
H1414 H 0.86076 0.9301 0.42408 0.0
H1415 H 0.86865 0.90892 0.37245 0.0
H1416 H 0.91502 0.84778 0.35767 0.0
H1417 H 0.88431 0.86842 0.34751 0.0
H1418 H 0.95802 0.92213 0.58283 0.0
H1419 H 0.92515 0.94024 0.57331 0.0
H1420 H 0.9779 0.8851 0.55771 0.0
H1421 H 0.98237 0.86038 0.50741 0.0
loop_
_geom_bond_atom_site_label_1
_geom_bond_atom_site_label_2
_geom_bond_distance
_geom_bond_site_symmetry_2
_ccdc_geom_bond_type
Co0 O3 1.970 . S
Co0 N17 1.989 . S
Co0 O25 1.967 . S
Co0 O32 1.920 . S
Co1 O4 1.966 . S
Co1 N10 2.022 . S
Co1 N18 1.993 . S
Co1 O26 1.941 . S
C2 O3 1.258 . S
C2 O4 1.263 . S
O3 Co0 1.970 . S
O3 C2 1.258 . S
O4 Co1 1.966 . S
O4 C2 1.263 . S
C5 O6 1.235 . S
C5 O32 1.289 . S
O6 C5 1.235 . S
C7 C9 1.400 . S
C7 N10 1.351 . S
C7 C12 1.501 . S
C8 C9 1.387 . S
C8 N11 1.341 . S
C9 C7 1.400 . S
C9 C8 1.387 . S
N10 Co1 2.022 . S
N10 C7 1.351 . S
N10 N11 1.365 . S
N11 C8 1.341 . S
N11 N10 1.365 . S
N11 H31 0.862 . S
C12 C7 1.501 . S
C12 H13 0.961 . S
C12 H14 0.961 . S
C12 H15 0.960 . S
H13 C12 0.961 . S
H14 C12 0.961 . S
H15 C12 0.960 . S
C16 N17 1.342 . S
C16 C20 1.401 . S
C16 C21 1.499 . S
N17 Co0 1.989 . S
N17 C16 1.342 . S
N17 N18 1.388 . S
N18 Co1 1.993 . S
N18 N17 1.388 . S
N18 C19 1.346 . S
C19 N18 1.346 . S
C19 C20 1.396 . S
C19 C29 1.510 . S
C20 C16 1.401 . S
C20 C19 1.396 . S
C21 C16 1.499 . S
C21 H22 0.959 . S
C21 H23 0.960 . S
C21 H24 0.961 . S
H22 C21 0.959 . S
H23 C21 0.960 . S
H24 C21 0.961 . S
O25 Co0 1.967 . S
O25 C33 1.258 . S
O26 Co1 1.941 . S
O26 C33 1.266 . S
H27 C29 0.959 . S
H28 C29 0.961 . S
C29 C19 1.510 . S
C29 H27 0.959 . S
C29 H28 0.961 . S
C29 H30 0.960 . S
H30 C29 0.960 . S
H31 N11 0.862 . S
O32 Co0 1.920 . S
O32 C5 1.289 . S
C33 O25 1.258 . S
C33 O26 1.266 . S
Co34 O37 1.970 . S
Co34 N51 1.989 . S
Co34 O59 1.967 . S
Co34 O66 1.920 . S
Co35 O38 1.966 . S
Co35 N44 2.022 . S
Co35 N52 1.993 . S
Co35 O60 1.941 . S
C36 O37 1.258 . S
C36 O38 1.263 . S
O37 Co34 1.970 . S
O37 C36 1.258 . S
O38 Co35 1.966 . S
O38 C36 1.263 . S
C39 O40 1.235 . S
C39 O66 1.289 . S
O40 C39 1.235 . S
C41 C43 1.400 . S
C41 N44 1.351 . S
C41 C46 1.501 . S
C42 C43 1.387 . S
C42 N45 1.341 . S
C43 C41 1.400 . S
C43 C42 1.387 . S
N44 Co35 2.022 . S
N44 C41 1.351 . S
N44 N45 1.365 . S
N45 C42 1.341 . S
N45 N44 1.365 . S
N45 H65 0.862 . S
C46 C41 1.501 . S
C46 H47 0.961 . S
C46 H48 0.961 . S
C46 H49 0.960 . S
H47 C46 0.961 . S
H48 C46 0.961 . S
H49 C46 0.960 . S
C50 N51 1.342 . S
C50 C54 1.401 . S
C50 C55 1.499 . S
N51 Co34 1.989 . S
N51 C50 1.342 . S
N51 N52 1.388 . S
N52 Co35 1.993 . S
N52 N51 1.388 . S
N52 C53 1.346 . S
C53 N52 1.346 . S
C53 C54 1.396 . S
C53 C63 1.510 . S
C54 C50 1.401 . S
C54 C53 1.396 . S
C55 C50 1.499 . S
C55 H56 0.959 . S
C55 H57 0.960 . S
C55 H58 0.961 . S
H56 C55 0.959 . S
H57 C55 0.960 . S
H58 C55 0.961 . S
O59 Co34 1.967 . S
O59 C67 1.258 . S
O60 Co35 1.941 . S
O60 C67 1.266 . S
H61 C63 0.959 . S
H62 C63 0.961 . S
C63 C53 1.510 . S
C63 H61 0.959 . S
C63 H62 0.961 . S
C63 H64 0.960 . S
H64 C63 0.960 . S
H65 N45 0.862 . S
O66 Co34 1.920 . S
O66 C39 1.289 . S
C67 O59 1.258 . S
C67 O60 1.266 . S
Co68 O71 1.970 . S
Co68 N85 1.989 . S
Co68 O93 1.967 . S
Co68 O100 1.920 . S
Co69 O72 1.966 . S
Co69 N78 2.022 . S
Co69 N86 1.993 . S
Co69 O94 1.941 . S
C70 O71 1.258 . S
C70 O72 1.263 . S
O71 Co68 1.970 . S
O71 C70 1.258 . S
O72 Co69 1.966 . S
O72 C70 1.263 . S
C73 O74 1.235 . S
C73 O100 1.289 . S
O74 C73 1.235 . S
C75 C77 1.400 . S
C75 N78 1.351 . S
C75 C80 1.501 . S
C76 C77 1.387 . S
C76 N79 1.341 . S
C77 C75 1.400 . S
C77 C76 1.387 . S
N78 Co69 2.022 . S
N78 C75 1.351 . S
N78 N79 1.365 . S
N79 C76 1.341 . S
N79 N78 1.365 . S
N79 H99 0.862 . S
C80 C75 1.501 . S
C80 H81 0.961 . S
C80 H82 0.961 . S
C80 H83 0.960 . S
H81 C80 0.961 . S
H82 C80 0.961 . S
H83 C80 0.960 . S
C84 N85 1.342 . S
C84 C88 1.401 . S
C84 C89 1.499 . S
N85 Co68 1.989 . S
N85 C84 1.342 . S
N85 N86 1.388 . S
N86 Co69 1.993 . S
N86 N85 1.388 . S
N86 C87 1.346 . S
C87 N86 1.346 . S
C87 C88 1.396 . S
C87 C97 1.510 . S
C88 C84 1.401 . S
C88 C87 1.396 . S
C89 C84 1.499 . S
C89 H90 0.959 . S
C89 H91 0.960 . S
C89 H92 0.961 . S
H90 C89 0.959 . S
H91 C89 0.960 . S
H92 C89 0.961 . S
O93 Co68 1.967 . S
O93 C101 1.258 . S
O94 Co69 1.941 . S
O94 C101 1.266 . S
H95 C97 0.959 . S
H96 C97 0.961 . S
C97 C87 1.510 . S
C97 H95 0.959 . S
C97 H96 0.961 . S
C97 H98 0.960 . S
H98 C97 0.960 . S
H99 N79 0.862 . S
O100 Co68 1.920 . S
O100 C73 1.289 . S
C101 O93 1.258 . S
C101 O94 1.266 . S
Co102 O105 1.970 . S
Co102 N119 1.989 . S
Co102 O127 1.967 . S
Co102 O134 1.920 . S
Co103 O106 1.966 . S
Co103 N112 2.022 . S
Co103 N120 1.993 . S
Co103 O128 1.941 . S
C104 O105 1.258 . S
C104 O106 1.263 . S
O105 Co102 1.970 . S
O105 C104 1.258 . S
O106 Co103 1.966 . S
O106 C104 1.263 . S
C107 O108 1.235 . S
C107 O134 1.289 . S
O108 C107 1.235 . S
C109 C111 1.400 . S
C109 N112 1.351 . S
C109 C114 1.501 . S
C110 C111 1.387 . S
C110 N113 1.341 . S
C111 C109 1.400 . S
C111 C110 1.387 . S
N112 Co103 2.022 . S
N112 C109 1.351 . S
N112 N113 1.365 . S
N113 C110 1.341 . S
N113 N112 1.365 . S
N113 H133 0.862 . S
C114 C109 1.501 . S
C114 H115 0.961 . S
C114 H116 0.961 . S
C114 H117 0.960 . S
H115 C114 0.961 . S
H116 C114 0.961 . S
H117 C114 0.960 . S
C118 N119 1.342 . S
C118 C122 1.401 . S
C118 C123 1.499 . S
N119 Co102 1.989 . S
N119 C118 1.342 . S
N119 N120 1.388 . S
N120 Co103 1.993 . S
N120 N119 1.388 . S
N120 C121 1.346 . S
C121 N120 1.346 . S
C121 C122 1.396 . S
C121 C131 1.510 . S
C122 C118 1.401 . S
C122 C121 1.396 . S
C123 C118 1.499 . S
C123 H124 0.959 . S
C123 H125 0.960 . S
C123 H126 0.961 . S
H124 C123 0.959 . S
H125 C123 0.960 . S
H126 C123 0.961 . S
O127 Co102 1.967 . S
O127 C135 1.258 . S
O128 Co103 1.941 . S
O128 C135 1.266 . S
H129 C131 0.959 . S
H130 C131 0.961 . S
C131 C121 1.510 . S
C131 H129 0.959 . S
C131 H130 0.961 . S
C131 H132 0.960 . S
H132 C131 0.960 . S
H133 N113 0.862 . S
O134 Co102 1.920 . S
O134 C107 1.289 . S
C135 O127 1.258 . S
C135 O128 1.266 . S
Co136 O139 1.970 . S
Co136 N153 1.989 . S
Co136 O161 1.967 . S
Co136 O168 1.920 . S
Co137 O140 1.966 . S
Co137 N146 2.022 . S
Co137 N154 1.993 . S
Co137 O162 1.941 . S
C138 O139 1.258 . S
C138 O140 1.263 . S
O139 Co136 1.970 . S
O139 C138 1.258 . S
O140 Co137 1.966 . S
O140 C138 1.263 . S
C141 O142 1.235 . S
C141 O168 1.289 . S
O142 C141 1.235 . S
C143 C145 1.400 . S
C143 N146 1.351 . S
C143 C148 1.501 . S
C144 C145 1.387 . S
C144 N147 1.341 . S
C145 C143 1.400 . S
C145 C144 1.387 . S
N146 Co137 2.022 . S
N146 C143 1.351 . S
N146 N147 1.365 . S
N147 C144 1.341 . S
N147 N146 1.365 . S
N147 H167 0.862 . S
C148 C143 1.501 . S
C148 H149 0.961 . S
C148 H150 0.961 . S
C148 H151 0.960 . S
H149 C148 0.961 . S
H150 C148 0.961 . S
H151 C148 0.960 . S
C152 N153 1.342 . S
C152 C156 1.401 . S
C152 C157 1.499 . S
N153 Co136 1.989 . S
N153 C152 1.342 . S
N153 N154 1.388 . S
N154 Co137 1.993 . S
N154 N153 1.388 . S
N154 C155 1.346 . S
C155 N154 1.346 . S
C155 C156 1.396 . S
C155 C165 1.510 . S
C156 C152 1.401 . S
C156 C155 1.396 . S
C157 C152 1.499 . S
C157 H158 0.959 . S
C157 H159 0.960 . S
C157 H160 0.961 . S
H158 C157 0.959 . S
H159 C157 0.960 . S
H160 C157 0.961 . S
O161 Co136 1.967 . S
O161 C169 1.258 . S
O162 Co137 1.941 . S
O162 C169 1.266 . S
H163 C165 0.959 . S
H164 C165 0.961 . S
C165 C155 1.510 . S
C165 H163 0.959 . S
C165 H164 0.961 . S
C165 H166 0.960 . S
H166 C165 0.960 . S
H167 N147 0.862 . S
O168 Co136 1.920 . S
O168 C141 1.289 . S
C169 O161 1.258 . S
C169 O162 1.266 . S
Co170 O173 1.970 . S
Co170 N187 1.989 . S
Co170 O195 1.967 . S
Co170 O202 1.920 . S
Co171 O174 1.966 . S
Co171 N180 2.022 . S
Co171 N188 1.993 . S
Co171 O196 1.941 . S
C172 O173 1.258 . S
C172 O174 1.263 . S
O173 Co170 1.970 . S
O173 C172 1.258 . S
O174 Co171 1.966 . S
O174 C172 1.263 . S
C175 O176 1.235 . S
C175 O202 1.289 . S
O176 C175 1.235 . S
C177 C179 1.400 . S
C177 N180 1.351 . S
C177 C182 1.501 . S
C178 C179 1.387 . S
C178 N181 1.341 . S
C179 C177 1.400 . S
C179 C178 1.387 . S
N180 Co171 2.022 . S
N180 C177 1.351 . S
N180 N181 1.365 . S
N181 C178 1.341 . S
N181 N180 1.365 . S
N181 H201 0.862 . S
C182 C177 1.501 . S
C182 H183 0.961 . S
C182 H184 0.961 . S
C182 H185 0.960 . S
H183 C182 0.961 . S
H184 C182 0.961 . S
H185 C182 0.960 . S
C186 N187 1.342 . S
C186 C190 1.401 . S
C186 C191 1.499 . S
N187 Co170 1.989 . S
N187 C186 1.342 . S
N187 N188 1.388 . S
N188 Co171 1.993 . S
N188 N187 1.388 . S
N188 C189 1.346 . S
C189 N188 1.346 . S
C189 C190 1.396 . S
C189 C199 1.510 . S
C190 C186 1.401 . S
C190 C189 1.396 . S
C191 C186 1.499 . S
C191 H192 0.959 . S
C191 H193 0.960 . S
C191 H194 0.961 . S
H192 C191 0.959 . S
H193 C191 0.960 . S
H194 C191 0.961 . S
O195 Co170 1.967 . S
O195 C203 1.258 . S
O196 Co171 1.941 . S
O196 C203 1.266 . S
H197 C199 0.959 . S
H198 C199 0.961 . S
C199 C189 1.510 . S
C199 H197 0.959 . S
C199 H198 0.961 . S
C199 H200 0.960 . S
H200 C199 0.960 . S
H201 N181 0.862 . S
O202 Co170 1.920 . S
O202 C175 1.289 . S
C203 O195 1.258 . S
C203 O196 1.266 . S
Co204 O207 1.970 . S
Co204 N221 1.989 . S
Co204 O229 1.967 . S
Co204 O236 1.920 . S
Co205 O208 1.966 . S
Co205 N214 2.022 . S
Co205 N222 1.993 . S
Co205 O230 1.941 . S
C206 O207 1.258 . S
C206 O208 1.263 . S
O207 Co204 1.970 . S
O207 C206 1.258 . S
O208 Co205 1.966 . S
O208 C206 1.263 . S
C209 O210 1.235 . S
C209 O236 1.289 . S
O210 C209 1.235 . S
C211 C213 1.400 . S
C211 N214 1.351 . S
C211 C216 1.501 . S
C212 C213 1.387 . S
C212 N215 1.341 . S
C213 C211 1.400 . S
C213 C212 1.387 . S
N214 Co205 2.022 . S
N214 C211 1.351 . S
N214 N215 1.365 . S
N215 C212 1.341 . S
N215 N214 1.365 . S
N215 H235 0.862 . S
C216 C211 1.501 . S
C216 H217 0.961 . S
C216 H218 0.961 . S
C216 H219 0.960 . S
H217 C216 0.961 . S
H218 C216 0.961 . S
H219 C216 0.960 . S
C220 N221 1.342 . S
C220 C224 1.401 . S
C220 C225 1.499 . S
N221 Co204 1.989 . S
N221 C220 1.342 . S
N221 N222 1.388 . S
N222 Co205 1.993 . S
N222 N221 1.388 . S
N222 C223 1.346 . S
C223 N222 1.346 . S
C223 C224 1.396 . S
C223 C233 1.510 . S
C224 C220 1.401 . S
C224 C223 1.396 . S
C225 C220 1.499 . S
C225 H226 0.959 . S
C225 H227 0.960 . S
C225 H228 0.961 . S
H226 C225 0.959 . S
H227 C225 0.960 . S
H228 C225 0.961 . S
O229 Co204 1.967 . S
O229 C237 1.258 . S
O230 Co205 1.941 . S
O230 C237 1.266 . S
H231 C233 0.959 . S
H232 C233 0.961 . S
C233 C223 1.510 . S
C233 H231 0.959 . S
C233 H232 0.961 . S
C233 H234 0.960 . S
H234 C233 0.960 . S
H235 N215 0.862 . S
O236 Co204 1.920 . S
O236 C209 1.289 . S
C237 O229 1.258 . S
C237 O230 1.266 . S
Co238 O241 1.970 . S
Co238 N255 1.989 . S
Co238 O263 1.967 . S
Co238 O270 1.920 . S
Co239 O242 1.966 . S
Co239 N248 2.022 . S
Co239 N256 1.993 . S
Co239 O264 1.941 . S
C240 O241 1.258 . S
C240 O242 1.263 . S
O241 Co238 1.970 . S
O241 C240 1.258 . S
O242 Co239 1.966 . S
O242 C240 1.263 . S
C243 O244 1.235 . S
C243 O270 1.289 . S
O244 C243 1.235 . S
C245 C247 1.400 . S
C245 N248 1.351 . S
C245 C250 1.501 . S
C246 C247 1.387 . S
C246 N249 1.341 . S
C247 C245 1.400 . S
C247 C246 1.387 . S
N248 Co239 2.022 . S
N248 C245 1.351 . S
N248 N249 1.365 . S
N249 C246 1.341 . S
N249 N248 1.365 . S
N249 H269 0.862 . S
C250 C245 1.501 . S
C250 H251 0.961 . S
C250 H252 0.961 . S
C250 H253 0.960 . S
H251 C250 0.961 . S
H252 C250 0.961 . S
H253 C250 0.960 . S
C254 N255 1.342 . S
C254 C258 1.401 . S
C254 C259 1.499 . S
N255 Co238 1.989 . S
N255 C254 1.342 . S
N255 N256 1.388 . S
N256 Co239 1.993 . S
N256 N255 1.388 . S
N256 C257 1.346 . S
C257 N256 1.346 . S
C257 C258 1.396 . S
C257 C267 1.510 . S
C258 C254 1.401 . S
C258 C257 1.396 . S
C259 C254 1.499 . S
C259 H260 0.959 . S
C259 H261 0.960 . S
C259 H262 0.961 . S
H260 C259 0.959 . S
H261 C259 0.960 . S
H262 C259 0.961 . S
O263 Co238 1.967 . S
O263 C271 1.258 . S
O264 Co239 1.941 . S
O264 C271 1.266 . S
H265 C267 0.959 . S
H266 C267 0.961 . S
C267 C257 1.510 . S
C267 H265 0.959 . S
C267 H266 0.961 . S
C267 H268 0.960 . S
H268 C267 0.960 . S
H269 N249 0.862 . S
O270 Co238 1.920 . S
O270 C243 1.289 . S
C271 O263 1.258 . S
C271 O264 1.266 . S
Co272 O275 1.970 . S
Co272 N289 1.989 . S
Co272 O297 1.967 . S
Co272 O304 1.920 . S
Co273 O276 1.966 . S
Co273 N282 2.022 . S
Co273 N290 1.993 . S
Co273 O298 1.941 . S
C274 O275 1.258 . S
C274 O276 1.263 . S
O275 Co272 1.970 . S
O275 C274 1.258 . S
O276 Co273 1.966 . S
O276 C274 1.263 . S
C277 O278 1.235 . S
C277 O304 1.289 . S
O278 C277 1.235 . S
C279 C281 1.400 . S
C279 N282 1.351 . S
C279 C284 1.501 . S
C280 C281 1.387 . S
C280 N283 1.341 . S
C281 C279 1.400 . S
C281 C280 1.387 . S
N282 Co273 2.022 . S
N282 C279 1.351 . S
N282 N283 1.365 . S
N283 C280 1.341 . S
N283 N282 1.365 . S
N283 H303 0.862 . S
C284 C279 1.501 . S
C284 H285 0.961 . S
C284 H286 0.961 . S
C284 H287 0.960 . S
H285 C284 0.961 . S
H286 C284 0.961 . S
H287 C284 0.960 . S
C288 N289 1.342 . S
C288 C292 1.401 . S
C288 C293 1.499 . S
N289 Co272 1.989 . S
N289 C288 1.342 . S
N289 N290 1.388 . S
N290 Co273 1.993 . S
N290 N289 1.388 . S
N290 C291 1.346 . S
C291 N290 1.346 . S
C291 C292 1.396 . S
C291 C301 1.510 . S
C292 C288 1.401 . S
C292 C291 1.396 . S
C293 C288 1.499 . S
C293 H294 0.959 . S
C293 H295 0.960 . S
C293 H296 0.961 . S
H294 C293 0.959 . S
H295 C293 0.960 . S
H296 C293 0.961 . S
O297 Co272 1.967 . S
O297 C305 1.258 . S
O298 Co273 1.941 . S
O298 C305 1.266 . S
H299 C301 0.959 . S
H300 C301 0.961 . S
C301 C291 1.510 . S
C301 H299 0.959 . S
C301 H300 0.961 . S
C301 H302 0.960 . S
H302 C301 0.960 . S
H303 N283 0.862 . S
O304 Co272 1.920 . S
O304 C277 1.289 . S
C305 O297 1.258 . S
C305 O298 1.266 . S
Co306 O309 1.970 . S
Co306 N323 1.989 1_455 S
Co306 O331 1.967 . S
Co306 O338 1.920 . S
Co307 O310 1.966 1_655 S
Co307 N316 2.022 . S
Co307 N324 1.993 . S
Co307 O332 1.941 . S
C308 O309 1.258 . S
C308 O310 1.263 . S
O309 Co306 1.970 . S
O309 C308 1.258 . S
O310 Co307 1.966 1_455 S
O310 C308 1.263 . S
C311 O312 1.235 . S
C311 O338 1.289 . S
O312 C311 1.235 . S
C313 C315 1.400 . S
C313 N316 1.351 . S
C313 C318 1.501 . S
C314 C315 1.387 . S
C314 N317 1.341 . S
C315 C313 1.400 . S
C315 C314 1.387 . S
N316 Co307 2.022 . S
N316 C313 1.351 . S
N316 N317 1.365 . S
N317 C314 1.341 . S
N317 N316 1.365 . S
N317 H337 0.862 . S
C318 C313 1.501 . S
C318 H319 0.961 . S
C318 H320 0.961 . S
C318 H321 0.960 . S
H319 C318 0.961 . S
H320 C318 0.961 . S
H321 C318 0.960 . S
C322 N323 1.342 . S
C322 C326 1.401 . S
C322 C327 1.499 1_655 S
N323 Co306 1.989 1_655 S
N323 C322 1.342 . S
N323 N324 1.388 . S
N324 Co307 1.993 . S
N324 N323 1.388 . S
N324 C325 1.346 . S
C325 N324 1.346 . S
C325 C326 1.396 . S
C325 C335 1.510 . S
C326 C322 1.401 . S
C326 C325 1.396 . S
C327 C322 1.499 1_455 S
C327 H328 0.959 . S
C327 H329 0.960 . S
C327 H330 0.961 1_455 S
H328 C327 0.959 . S
H329 C327 0.960 . S
H330 C327 0.961 1_655 S
O331 Co306 1.967 . S
O331 C339 1.258 1_455 S
O332 Co307 1.941 . S
O332 C339 1.266 . S
H333 C335 0.959 . S
H334 C335 0.961 . S
C335 C325 1.510 . S
C335 H333 0.959 . S
C335 H334 0.961 . S
C335 H336 0.960 . S
H336 C335 0.960 . S
H337 N317 0.862 . S
O338 Co306 1.920 . S
O338 C311 1.289 . S
C339 O331 1.258 1_655 S
C339 O332 1.266 . S
Co340 O343 1.970 . S
Co340 N357 1.989 . S
Co340 O365 1.967 . S
Co340 O372 1.920 . S
Co341 O344 1.966 . S
Co341 N350 2.022 . S
Co341 N358 1.993 . S
Co341 O366 1.941 . S
C342 O343 1.258 . S
C342 O344 1.263 . S
O343 Co340 1.970 . S
O343 C342 1.258 . S
O344 Co341 1.966 . S
O344 C342 1.263 . S
C345 O346 1.235 . S
C345 O372 1.289 . S
O346 C345 1.235 . S
C347 C349 1.400 . S
C347 N350 1.351 . S
C347 C352 1.501 . S
C348 C349 1.387 . S
C348 N351 1.341 . S
C349 C347 1.400 . S
C349 C348 1.387 . S
N350 Co341 2.022 . S
N350 C347 1.351 . S
N350 N351 1.365 . S
N351 C348 1.341 . S
N351 N350 1.365 . S
N351 H371 0.862 . S
C352 C347 1.501 . S
C352 H353 0.961 . S
C352 H354 0.961 . S
C352 H355 0.960 . S
H353 C352 0.961 . S
H354 C352 0.961 . S
H355 C352 0.960 . S
C356 N357 1.342 . S
C356 C360 1.401 . S
C356 C361 1.499 . S
N357 Co340 1.989 . S
N357 C356 1.342 . S
N357 N358 1.388 . S
N358 Co341 1.993 . S
N358 N357 1.388 . S
N358 C359 1.346 . S
C359 N358 1.346 . S
C359 C360 1.396 . S
C359 C369 1.510 . S
C360 C356 1.401 . S
C360 C359 1.396 . S
C361 C356 1.499 . S
C361 H362 0.959 . S
C361 H363 0.960 . S
C361 H364 0.961 . S
H362 C361 0.959 . S
H363 C361 0.960 . S
H364 C361 0.961 . S
O365 Co340 1.967 . S
O365 C373 1.258 . S
O366 Co341 1.941 . S
O366 C373 1.266 . S
H367 C369 0.959 . S
H368 C369 0.961 . S
C369 C359 1.510 . S
C369 H367 0.959 . S
C369 H368 0.961 . S
C369 H370 0.960 . S
H370 C369 0.960 . S
H371 N351 0.862 . S
O372 Co340 1.920 . S
O372 C345 1.289 . S
C373 O365 1.258 . S
C373 O366 1.266 . S
Co374 O377 1.970 . S
Co374 N391 1.989 1_565 S
Co374 O399 1.967 . S
Co374 O406 1.920 . S
Co375 O378 1.966 1_545 S
Co375 N384 2.022 . S
Co375 N392 1.993 . S
Co375 O400 1.941 . S
C376 O377 1.258 . S
C376 O378 1.263 . S
O377 Co374 1.970 . S
O377 C376 1.258 . S
O378 Co375 1.966 1_565 S
O378 C376 1.263 . S
C379 O380 1.235 . S
C379 O406 1.289 . S
O380 C379 1.235 . S
C381 C383 1.400 . S
C381 N384 1.351 . S
C381 C386 1.501 . S
C382 C383 1.387 . S
C382 N385 1.341 . S
C383 C381 1.400 . S
C383 C382 1.387 . S
N384 Co375 2.022 . S
N384 C381 1.351 . S
N384 N385 1.365 . S
N385 C382 1.341 . S
N385 N384 1.365 . S
N385 H405 0.862 . S
C386 C381 1.501 . S
C386 H387 0.961 . S
C386 H388 0.961 . S
C386 H389 0.960 . S
H387 C386 0.961 . S
H388 C386 0.961 . S
H389 C386 0.960 . S
C390 N391 1.342 . S
C390 C394 1.401 . S
C390 C395 1.499 1_545 S
N391 Co374 1.989 1_545 S
N391 C390 1.342 . S
N391 N392 1.388 . S
N392 Co375 1.993 . S
N392 N391 1.388 . S
N392 C393 1.346 . S
C393 N392 1.346 . S
C393 C394 1.396 . S
C393 C403 1.510 . S
C394 C390 1.401 . S
C394 C393 1.396 . S
C395 C390 1.499 1_565 S
C395 H396 0.959 . S
C395 H397 0.960 . S
C395 H398 0.961 1_565 S
H396 C395 0.959 . S
H397 C395 0.960 . S
H398 C395 0.961 1_545 S
O399 Co374 1.967 . S
O399 C407 1.258 1_565 S
O400 Co375 1.941 . S
O400 C407 1.266 . S
H401 C403 0.959 . S
H402 C403 0.961 . S
C403 C393 1.510 . S
C403 H401 0.959 . S
C403 H402 0.961 . S
C403 H404 0.960 . S
H404 C403 0.960 . S
H405 N385 0.862 . S
O406 Co374 1.920 . S
O406 C379 1.289 . S
C407 O399 1.258 1_545 S
C407 O400 1.266 . S
Co408 O411 1.970 . S
Co408 N425 1.989 1_545 S
Co408 O433 1.967 . S
Co408 O440 1.920 . S
Co409 O412 1.966 1_565 S
Co409 N418 2.022 . S
Co409 N426 1.993 . S
Co409 O434 1.941 . S
C410 O411 1.258 . S
C410 O412 1.263 . S
O411 Co408 1.970 . S
O411 C410 1.258 . S
O412 Co409 1.966 1_545 S
O412 C410 1.263 . S
C413 O414 1.235 . S
C413 O440 1.289 . S
O414 C413 1.235 . S
C415 C417 1.400 . S
C415 N418 1.351 . S
C415 C420 1.501 . S
C416 C417 1.387 . S
C416 N419 1.341 . S
C417 C415 1.400 . S
C417 C416 1.387 . S
N418 Co409 2.022 . S
N418 C415 1.351 . S
N418 N419 1.365 . S
N419 C416 1.341 . S
N419 N418 1.365 . S
N419 H439 0.862 . S
C420 C415 1.501 . S
C420 H421 0.961 . S
C420 H422 0.961 . S
C420 H423 0.960 . S
H421 C420 0.961 . S
H422 C420 0.961 . S
H423 C420 0.960 . S
C424 N425 1.342 . S
C424 C428 1.401 . S
C424 C429 1.499 1_565 S
N425 Co408 1.989 1_565 S
N425 C424 1.342 . S
N425 N426 1.388 . S
N426 Co409 1.993 . S
N426 N425 1.388 . S
N426 C427 1.346 . S
C427 N426 1.346 . S
C427 C428 1.396 . S
C427 C437 1.510 . S
C428 C424 1.401 . S
C428 C427 1.396 . S
C429 C424 1.499 1_545 S
C429 H430 0.959 . S
C429 H431 0.960 . S
C429 H432 0.961 1_545 S
H430 C429 0.959 . S
H431 C429 0.960 . S
H432 C429 0.961 1_565 S
O433 Co408 1.967 . S
O433 C441 1.258 1_545 S
O434 Co409 1.941 . S
O434 C441 1.266 . S
H435 C437 0.959 . S
H436 C437 0.961 . S
C437 C427 1.510 . S
C437 H435 0.959 . S
C437 H436 0.961 . S
C437 H438 0.960 . S
H438 C437 0.960 . S
H439 N419 0.862 . S
O440 Co408 1.920 . S
O440 C413 1.289 . S
C441 O433 1.258 1_565 S
C441 O434 1.266 . S
Co442 O445 1.970 . S
Co442 N459 1.989 1_655 S
Co442 O467 1.967 . S
Co442 O474 1.920 . S
Co443 O446 1.966 1_455 S
Co443 N452 2.022 . S
Co443 N460 1.993 . S
Co443 O468 1.941 . S
C444 O445 1.258 . S
C444 O446 1.263 . S
O445 Co442 1.970 . S
O445 C444 1.258 . S
O446 Co443 1.966 1_655 S
O446 C444 1.263 . S
C447 O448 1.235 . S
C447 O474 1.289 . S
O448 C447 1.235 . S
C449 C451 1.400 . S
C449 N452 1.351 . S
C449 C454 1.501 . S
C450 C451 1.387 . S
C450 N453 1.341 . S
C451 C449 1.400 . S
C451 C450 1.387 . S
N452 Co443 2.022 . S
N452 C449 1.351 . S
N452 N453 1.365 . S
N453 C450 1.341 . S
N453 N452 1.365 . S
N453 H473 0.862 . S
C454 C449 1.501 . S
C454 H455 0.961 . S
C454 H456 0.961 . S
C454 H457 0.960 . S
H455 C454 0.961 . S
H456 C454 0.961 . S
H457 C454 0.960 . S
C458 N459 1.342 . S
C458 C462 1.401 . S
C458 C463 1.499 1_455 S
N459 Co442 1.989 1_455 S
N459 C458 1.342 . S
N459 N460 1.388 . S
N460 Co443 1.993 . S
N460 N459 1.388 . S
N460 C461 1.346 . S
C461 N460 1.346 . S
C461 C462 1.396 . S
C461 C471 1.510 . S
C462 C458 1.401 . S
C462 C461 1.396 . S
C463 C458 1.499 1_655 S
C463 H464 0.959 . S
C463 H465 0.960 . S
C463 H466 0.961 1_655 S
H464 C463 0.959 . S
H465 C463 0.960 . S
H466 C463 0.961 1_455 S
O467 Co442 1.967 . S
O467 C475 1.258 1_655 S
O468 Co443 1.941 . S
O468 C475 1.266 . S
H469 C471 0.959 . S
H470 C471 0.961 . S
C471 C461 1.510 . S
C471 H469 0.959 . S
C471 H470 0.961 . S
C471 H472 0.960 . S
H472 C471 0.960 . S
H473 N453 0.862 . S
O474 Co442 1.920 . S
O474 C447 1.289 . S
C475 O467 1.258 1_455 S
C475 O468 1.266 . S
Co476 O479 1.970 . S
Co476 N493 1.989 . S
Co476 O501 1.967 . S
Co476 O508 1.920 . S
Co477 O480 1.966 . S
Co477 N486 2.022 . S
Co477 N494 1.993 . S
Co477 O502 1.941 . S
C478 O479 1.258 . S
C478 O480 1.263 . S
O479 Co476 1.970 . S
O479 C478 1.258 . S
O480 Co477 1.966 . S
O480 C478 1.263 . S
C481 O482 1.235 . S
C481 O508 1.289 . S
O482 C481 1.235 . S
C483 C485 1.400 . S
C483 N486 1.351 . S
C483 C488 1.501 . S
C484 C485 1.387 . S
C484 N487 1.341 . S
C485 C483 1.400 . S
C485 C484 1.387 . S
N486 Co477 2.022 . S
N486 C483 1.351 . S
N486 N487 1.365 . S
N487 C484 1.341 . S
N487 N486 1.365 . S
N487 H507 0.862 . S
C488 C483 1.501 . S
C488 H489 0.961 . S
C488 H490 0.961 . S
C488 H491 0.960 . S
H489 C488 0.961 . S
H490 C488 0.961 . S
H491 C488 0.960 . S
C492 N493 1.342 . S
C492 C496 1.401 . S
C492 C497 1.499 . S
N493 Co476 1.989 . S
N493 C492 1.342 . S
N493 N494 1.388 . S
N494 Co477 1.993 . S
N494 N493 1.388 . S
N494 C495 1.346 . S
C495 N494 1.346 . S
C495 C496 1.396 . S
C495 C505 1.510 . S
C496 C492 1.401 . S
C496 C495 1.396 . S
C497 C492 1.499 . S
C497 H498 0.959 . S
C497 H499 0.960 . S
C497 H500 0.961 . S
H498 C497 0.959 . S
H499 C497 0.960 . S
H500 C497 0.961 . S
O501 Co476 1.967 . S
O501 C509 1.258 . S
O502 Co477 1.941 . S
O502 C509 1.266 . S
H503 C505 0.959 . S
H504 C505 0.961 . S
C505 C495 1.510 . S
C505 H503 0.959 . S
C505 H504 0.961 . S
C505 H506 0.960 . S
H506 C505 0.960 . S
H507 N487 0.862 . S
O508 Co476 1.920 . S
O508 C481 1.289 . S
C509 O501 1.258 . S
C509 O502 1.266 . S
Co510 O513 1.970 . S
Co510 N527 1.989 . S
Co510 O535 1.967 . S
Co510 O542 1.920 . S
Co511 O514 1.966 . S
Co511 N520 2.022 . S
Co511 N528 1.993 . S
Co511 O536 1.941 . S
C512 O513 1.258 . S
C512 O514 1.263 . S
O513 Co510 1.970 . S
O513 C512 1.258 . S
O514 Co511 1.966 . S
O514 C512 1.263 . S
C515 O516 1.235 . S
C515 O542 1.289 . S
O516 C515 1.235 . S
C517 C519 1.400 . S
C517 N520 1.351 . S
C517 C522 1.501 . S
C518 C519 1.387 . S
C518 N521 1.341 . S
C519 C517 1.400 . S
C519 C518 1.387 . S
N520 Co511 2.022 . S
N520 C517 1.351 . S
N520 N521 1.365 . S
N521 C518 1.341 . S
N521 N520 1.365 . S
N521 H541 0.862 . S
C522 C517 1.501 . S
C522 H523 0.961 . S
C522 H524 0.961 . S
C522 H525 0.960 . S
H523 C522 0.961 . S
H524 C522 0.961 . S
H525 C522 0.960 . S
C526 N527 1.342 . S
C526 C530 1.401 . S
C526 C531 1.499 . S
N527 Co510 1.989 . S
N527 C526 1.342 . S
N527 N528 1.388 . S
N528 Co511 1.993 . S
N528 N527 1.388 . S
N528 C529 1.346 . S
C529 N528 1.346 . S
C529 C530 1.396 . S
C529 C539 1.510 . S
C530 C526 1.401 . S
C530 C529 1.396 . S
C531 C526 1.499 . S
C531 H532 0.959 . S
C531 H533 0.960 . S
C531 H534 0.961 . S
H532 C531 0.959 . S
H533 C531 0.960 . S
H534 C531 0.961 . S
O535 Co510 1.967 . S
O535 C543 1.258 . S
O536 Co511 1.941 . S
O536 C543 1.266 . S
H537 C539 0.959 . S
H538 C539 0.961 . S
C539 C529 1.510 . S
C539 H537 0.959 . S
C539 H538 0.961 . S
C539 H540 0.960 . S
H540 C539 0.960 . S
H541 N521 0.862 . S
O542 Co510 1.920 . S
O542 C515 1.289 . S
C543 O535 1.258 . S
C543 O536 1.266 . S
Co544 O547 1.970 . S
Co544 N561 1.989 . S
Co544 O569 1.967 . S
Co544 O576 1.920 . S
Co545 O548 1.966 . S
Co545 N554 2.022 . S
Co545 N562 1.993 . S
Co545 O570 1.941 . S
C546 O547 1.258 . S
C546 O548 1.263 . S
O547 Co544 1.970 . S
O547 C546 1.258 . S
O548 Co545 1.966 . S
O548 C546 1.263 . S
C549 O550 1.235 . S
C549 O576 1.289 . S
O550 C549 1.235 . S
C551 C553 1.400 . S
C551 N554 1.351 . S
C551 C556 1.501 . S
C552 C553 1.387 . S
C552 N555 1.341 . S
C553 C551 1.400 . S
C553 C552 1.387 . S
N554 Co545 2.022 . S
N554 C551 1.351 . S
N554 N555 1.365 . S
N555 C552 1.341 . S
N555 N554 1.365 . S
N555 H575 0.862 . S
C556 C551 1.501 . S
C556 H557 0.961 . S
C556 H558 0.961 . S
C556 H559 0.960 . S
H557 C556 0.961 . S
H558 C556 0.961 . S
H559 C556 0.960 . S
C560 N561 1.342 . S
C560 C564 1.401 . S
C560 C565 1.499 . S
N561 Co544 1.989 . S
N561 C560 1.342 . S
N561 N562 1.388 . S
N562 Co545 1.993 . S
N562 N561 1.388 . S
N562 C563 1.346 . S
C563 N562 1.346 . S
C563 C564 1.396 . S
C563 C573 1.510 . S
C564 C560 1.401 . S
C564 C563 1.396 . S
C565 C560 1.499 . S
C565 H566 0.959 . S
C565 H567 0.960 . S
C565 H568 0.961 . S
H566 C565 0.959 . S
H567 C565 0.960 . S
H568 C565 0.961 . S
O569 Co544 1.967 . S
O569 C577 1.258 . S
O570 Co545 1.941 . S
O570 C577 1.266 . S
H571 C573 0.959 . S
H572 C573 0.961 . S
C573 C563 1.510 . S
C573 H571 0.959 . S
C573 H572 0.961 . S
C573 H574 0.960 . S
H574 C573 0.960 . S
H575 N555 0.862 . S
O576 Co544 1.920 . S
O576 C549 1.289 . S
C577 O569 1.258 . S
C577 O570 1.266 . S
Co578 O581 1.970 . S
Co578 N595 1.989 . S
Co578 O603 1.967 . S
Co578 O610 1.920 . S
Co579 O582 1.966 . S
Co579 N588 2.022 . S
Co579 N596 1.993 . S
Co579 O604 1.941 . S
C580 O581 1.258 . S
C580 O582 1.263 . S
O581 Co578 1.970 . S
O581 C580 1.258 . S
O582 Co579 1.966 . S
O582 C580 1.263 . S
C583 O584 1.235 . S
C583 O610 1.289 . S
O584 C583 1.235 . S
C585 C587 1.400 . S
C585 N588 1.351 . S
C585 C590 1.501 . S
C586 C587 1.387 . S
C586 N589 1.341 . S
C587 C585 1.400 . S
C587 C586 1.387 . S
N588 Co579 2.022 . S
N588 C585 1.351 . S
N588 N589 1.365 . S
N589 C586 1.341 . S
N589 N588 1.365 . S
N589 H609 0.862 . S
C590 C585 1.501 . S
C590 H591 0.961 . S
C590 H592 0.961 . S
C590 H593 0.960 . S
H591 C590 0.961 . S
H592 C590 0.961 . S
H593 C590 0.960 . S
C594 N595 1.342 . S
C594 C598 1.401 . S
C594 C599 1.499 . S
N595 Co578 1.989 . S
N595 C594 1.342 . S
N595 N596 1.388 . S
N596 Co579 1.993 . S
N596 N595 1.388 . S
N596 C597 1.346 . S
C597 N596 1.346 . S
C597 C598 1.396 . S
C597 C607 1.510 . S
C598 C594 1.401 . S
C598 C597 1.396 . S
C599 C594 1.499 . S
C599 H600 0.959 . S
C599 H601 0.960 . S
C599 H602 0.961 . S
H600 C599 0.959 . S
H601 C599 0.960 . S
H602 C599 0.961 . S
O603 Co578 1.967 . S
O603 C611 1.258 . S
O604 Co579 1.941 . S
O604 C611 1.266 . S
H605 C607 0.959 . S
H606 C607 0.961 . S
C607 C597 1.510 . S
C607 H605 0.959 . S
C607 H606 0.961 . S
C607 H608 0.960 . S
H608 C607 0.960 . S
H609 N589 0.862 . S
O610 Co578 1.920 . S
O610 C583 1.289 . S
C611 O603 1.258 . S
C611 O604 1.266 . S
C612 C613 1.363 . S
C612 C618 1.379 1_556 S
C612 N620 1.356 . S
C613 C612 1.363 . S
C613 C619 1.363 . S
C614 C615 1.363 . S
C614 C619 1.379 1_554 S
C614 N621 1.356 . S
C615 C614 1.363 . S
C615 C618 1.363 . S
N616 C618 1.356 . S
N616 H628 0.984 . S
N616 H629 0.985 . S
N617 C619 1.356 . S
N617 H622 0.984 . S
N617 H623 0.985 . S
C618 C612 1.379 1_554 S
C618 C615 1.363 . S
C618 N616 1.356 . S
C619 C613 1.363 . S
C619 C614 1.379 1_556 S
C619 N617 1.356 . S
N620 C612 1.356 . S
N620 H626 0.984 . S
N620 H627 0.984 . S
N621 C614 1.356 . S
N621 H624 0.984 . S
N621 H625 0.985 . S
H622 N617 0.984 . S
H623 N617 0.985 . S
H624 N621 0.984 . S
H625 N621 0.985 . S
H626 N620 0.984 . S
H627 N620 0.984 . S
H628 N616 0.984 . S
H629 N616 0.985 . S
C630 C631 1.363 1_545 S
C630 C636 1.379 . S
C630 N638 1.356 . S
C631 C630 1.363 1_565 S
C631 C637 1.363 1_554 S
C632 C633 1.363 1_565 S
C632 C637 1.379 . S
C632 N639 1.356 . S
C633 C632 1.363 1_545 S
C633 C636 1.363 1_556 S
N634 C636 1.358 . S
N634 H646 0.995 . S
N634 H647 0.972 1_554 S
N635 C637 1.356 . S
N635 H640 0.984 1_556 S
N635 H641 0.985 . S
C636 C630 1.379 . S
C636 C633 1.363 1_554 S
C636 N634 1.358 . S
C637 C631 1.363 1_556 S
C637 C632 1.379 . S
C637 N635 1.356 . S
N638 C630 1.356 . S
N638 H644 0.984 . S
N638 H645 0.984 1_545 S
N639 C632 1.356 . S
N639 H642 0.984 1_565 S
N639 H643 0.985 . S
H640 N635 0.984 1_554 S
H641 N635 0.985 . S
H642 N639 0.984 1_545 S
H643 N639 0.985 . S
H644 N638 0.984 . S
H645 N638 0.984 1_565 S
H646 N634 0.995 . S
H647 N634 0.972 1_556 S
C648 C649 1.363 . S
C648 C654 1.379 1_454 S
C648 N656 1.356 . S
C649 C648 1.363 . S
C649 C655 1.363 . S
C650 C651 1.363 . S
C650 C655 1.379 1_656 S
C650 N657 1.356 . S
C651 C650 1.363 . S
C651 C654 1.363 . S
N652 C654 1.356 . S
N652 H664 0.984 . S
N652 H665 0.985 . S
N653 C655 1.356 . S
N653 H658 0.984 . S
N653 H659 0.985 . S
C654 C648 1.379 1_656 S
C654 C651 1.363 . S
C654 N652 1.356 . S
C655 C649 1.363 . S
C655 C650 1.379 1_454 S
C655 N653 1.356 . S
N656 C648 1.356 . S
N656 H662 0.984 . S
N656 H663 0.984 . S
N657 C650 1.356 . S
N657 H660 0.984 . S
N657 H661 0.985 . S
H658 N653 0.984 . S
H659 N653 0.985 . S
H660 N657 0.984 . S
H661 N657 0.985 . S
H662 N656 0.984 . S
H663 N656 0.984 . S
H664 N652 0.984 . S
H665 N652 0.985 . S
C666 C667 1.363 . S
C666 C672 1.379 1_556 S
C666 N674 1.356 . S
C667 C666 1.363 . S
C667 C673 1.363 . S
C668 C669 1.363 . S
C668 C673 1.379 1_554 S
C668 N675 1.356 . S
C669 C668 1.363 . S
C669 C672 1.363 . S
N670 C672 1.356 . S
N670 H682 0.984 . S
N670 H683 0.985 . S
N671 C673 1.356 . S
N671 H676 0.984 . S
N671 H677 0.985 . S
C672 C666 1.379 1_554 S
C672 C669 1.363 . S
C672 N670 1.356 . S
C673 C667 1.363 . S
C673 C668 1.379 1_556 S
C673 N671 1.356 . S
N674 C666 1.356 . S
N674 H680 0.984 . S
N674 H681 0.984 . S
N675 C668 1.356 . S
N675 H678 0.984 . S
N675 H679 0.985 . S
H676 N671 0.984 . S
H677 N671 0.985 . S
H678 N675 0.984 . S
H679 N675 0.985 . S
H680 N674 0.984 . S
H681 N674 0.984 . S
H682 N670 0.984 . S
H683 N670 0.985 . S
C684 C685 1.363 1_554 S
C684 C690 1.379 1_545 S
C684 N692 1.356 . S
C685 C684 1.363 1_556 S
C685 C691 1.363 . S
C686 C687 1.363 1_556 S
C686 C691 1.379 1_565 S
C686 N693 1.356 . S
C687 C686 1.363 1_554 S
C687 C690 1.363 . S
N688 C690 1.356 . S
N688 H700 0.984 . S
N688 H701 0.985 . S
N689 C691 1.356 . S
N689 H694 0.984 . S
N689 H695 0.985 . S
C690 C684 1.379 1_565 S
C690 C687 1.363 . S
C690 N688 1.356 . S
C691 C685 1.363 . S
C691 C686 1.379 1_545 S
C691 N689 1.356 . S
N692 C684 1.356 . S
N692 H698 0.984 . S
N692 H699 0.984 1_554 S
N693 C686 1.356 . S
N693 H696 0.984 1_556 S
N693 H697 0.985 . S
H694 N689 0.984 . S
H695 N689 0.985 . S
H696 N693 0.984 1_554 S
H697 N693 0.985 . S
H698 N692 0.984 . S
H699 N692 0.984 1_556 S
H700 N688 0.984 . S
H701 N688 0.985 . S
C702 C703 1.363 . S
C702 C708 1.379 1_655 S
C702 N710 1.356 . S
C703 C702 1.363 . S
C703 C709 1.363 1_556 S
C704 C705 1.363 . S
C704 C709 1.379 1_455 S
C704 N711 1.356 . S
C705 C704 1.363 . S
C705 C708 1.363 1_554 S
N706 C708 1.356 . S
N706 H718 0.984 . S
N706 H719 0.985 . S
N707 C709 1.356 . S
N707 H712 0.984 . S
N707 H713 0.985 . S
C708 C702 1.379 1_455 S
C708 C705 1.363 1_556 S
C708 N706 1.356 . S
C709 C703 1.363 1_554 S
C709 C704 1.379 1_655 S
C709 N707 1.356 . S
N710 C702 1.356 . S
N710 H716 0.984 . S
N710 H717 0.984 . S
N711 C704 1.356 . S
N711 H714 0.984 . S
N711 H715 0.985 . S
H712 N707 0.984 . S
H713 N707 0.985 . S
H714 N711 0.984 . S
H715 N711 0.985 . S
H716 N710 0.984 . S
H717 N710 0.984 . S
H718 N706 0.984 . S
H719 N706 0.985 . S
C720 C721 1.363 . S
C720 C726 1.379 . S
C720 N728 1.356 . S
C721 C720 1.363 . S
C721 C727 1.363 . S
C722 C723 1.363 . S
C722 C727 1.379 . S
C722 N729 1.356 . S
C723 C722 1.363 . S
C723 C726 1.363 . S
N724 C726 1.356 . S
N724 H736 0.984 . S
N724 H737 0.985 . S
N725 C727 1.356 . S
N725 H730 0.984 . S
N725 H731 0.985 . S
C726 C720 1.379 . S
C726 C723 1.363 . S
C726 N724 1.356 . S
C727 C721 1.363 . S
C727 C722 1.379 . S
C727 N725 1.356 . S
N728 C720 1.356 . S
N728 H734 0.984 . S
N728 H735 0.984 . S
N729 C722 1.356 . S
N729 H732 0.984 . S
N729 H733 0.985 . S
H730 N725 0.984 . S
H731 N725 0.985 . S
H732 N729 0.984 . S
H733 N729 0.985 . S
H734 N728 0.984 . S
H735 N728 0.984 . S
H736 N724 0.984 . S
H737 N724 0.985 . S
C738 C739 1.363 . S
C738 C744 1.379 . S
C738 N746 1.356 . S
C739 C738 1.363 . S
C739 C745 1.363 . S
C740 C741 1.363 . S
C740 C745 1.379 . S
C740 N747 1.356 . S
C741 C740 1.363 . S
C741 C744 1.363 . S
N742 C744 1.356 . S
N742 H754 0.984 . S
N742 H755 0.985 . S
N743 C745 1.356 . S
N743 H748 0.984 . S
N743 H749 0.985 . S
C744 C738 1.379 . S
C744 C741 1.363 . S
C744 N742 1.356 . S
C745 C739 1.363 . S
C745 C740 1.379 . S
C745 N743 1.356 . S
N746 C738 1.356 . S
N746 H752 0.984 . S
N746 H753 0.984 . S
N747 C740 1.356 . S
N747 H750 0.984 . S
N747 H751 0.985 . S
H748 N743 0.984 . S
H749 N743 0.985 . S
H750 N747 0.984 . S
H751 N747 0.985 . S
H752 N746 0.984 . S
H753 N746 0.984 . S
H754 N742 0.984 . S
H755 N742 0.985 . S
C756 C757 1.363 . S
C756 C762 1.379 . S
C756 N764 1.356 . S
C757 C756 1.363 . S
C757 C763 1.363 . S
C758 C759 1.363 . S
C758 C763 1.379 . S
C758 N765 1.356 . S
C759 C758 1.363 . S
C759 C762 1.363 . S
N760 C762 1.356 . S
N760 H772 0.984 . S
N760 H773 0.985 . S
N761 C763 1.356 . S
N761 H766 0.984 . S
N761 H767 0.985 . S
C762 C756 1.379 . S
C762 C759 1.363 . S
C762 N760 1.356 . S
C763 C757 1.363 . S
C763 C758 1.379 . S
C763 N761 1.356 . S
N764 C756 1.356 . S
N764 H770 0.984 . S
N764 H771 0.984 . S
N765 C758 1.356 . S
N765 H768 0.984 . S
N765 H769 0.985 . S
H766 N761 0.984 . S
H767 N761 0.985 . S
H768 N765 0.984 . S
H769 N765 0.985 . S
H770 N764 0.984 . S
H771 N764 0.984 . S
H772 N760 0.984 . S
H773 N760 0.985 . S
C774 C775 1.363 . S
C774 C780 1.379 . S
C774 N782 1.356 . S
C775 C774 1.363 . S
C775 C781 1.363 . S
C776 C777 1.363 . S
C776 C781 1.379 . S
C776 N783 1.356 . S
C777 C776 1.363 . S
C777 C780 1.363 . S
N778 C780 1.356 . S
N778 H790 0.984 . S
N778 H791 0.985 . S
N779 C781 1.356 . S
N779 H784 0.984 . S
N779 H785 0.985 1_545 S
C780 C774 1.379 . S
C780 C777 1.363 . S
C780 N778 1.356 . S
C781 C775 1.363 . S
C781 C776 1.379 . S
C781 N779 1.356 . S
N782 C774 1.356 . S
N782 H788 0.984 . S
N782 H789 0.984 . S
N783 C776 1.356 . S
N783 H786 0.984 . S
N783 H787 0.985 . S
H784 N779 0.984 . S
H785 N779 0.985 1_565 S
H786 N783 0.984 . S
H787 N783 0.985 . S
H788 N782 0.984 . S
H789 N782 0.984 . S
H790 N778 0.984 . S
H791 N778 0.985 . S
C792 C793 1.363 . S
C792 C798 1.379 . S
C792 N800 1.356 . S
C793 C792 1.363 . S
C793 C799 1.363 . S
C794 C795 1.363 . S
C794 C799 1.379 . S
C794 N801 1.356 . S
C795 C794 1.363 . S
C795 C798 1.363 . S
N796 C798 1.356 . S
N796 H808 0.984 . S
N796 H809 0.985 . S
N797 C799 1.356 . S
N797 H802 0.984 . S
N797 H803 0.985 1_655 S
C798 C792 1.379 . S
C798 C795 1.363 . S
C798 N796 1.356 . S
C799 C793 1.363 . S
C799 C794 1.379 . S
C799 N797 1.356 . S
N800 C792 1.356 . S
N800 H806 0.984 . S
N800 H807 0.984 . S
N801 C794 1.356 . S
N801 H804 0.984 . S
N801 H805 0.985 . S
H802 N797 0.984 . S
H803 N797 0.985 1_455 S
H804 N801 0.984 . S
H805 N801 0.985 . S
H806 N800 0.984 . S
H807 N800 0.984 . S
H808 N796 0.984 . S
H809 N796 0.985 . S
C810 C811 1.363 . S
C810 C816 1.379 . S
C810 N818 1.356 . S
C811 C810 1.363 . S
C811 C817 1.363 . S
C812 C813 1.363 . S
C812 C817 1.379 . S
C812 N819 1.356 . S
C813 C812 1.363 . S
C813 C816 1.363 . S
N814 C816 1.356 . S
N814 H826 0.984 . S
N814 H827 0.985 . S
N815 C817 1.356 . S
N815 H820 0.984 . S
N815 H821 0.985 . S
C816 C810 1.379 . S
C816 C813 1.363 . S
C816 N814 1.356 . S
C817 C811 1.363 . S
C817 C812 1.379 . S
C817 N815 1.356 . S
N818 C810 1.356 . S
N818 H824 0.984 . S
N818 H825 0.984 . S
N819 C812 1.356 . S
N819 H822 0.984 . S
N819 H823 0.985 . S
H820 N815 0.984 . S
H821 N815 0.985 . S
H822 N819 0.984 . S
H823 N819 0.985 . S
H824 N818 0.984 . S
H825 N818 0.984 . S
H826 N814 0.984 . S
H827 N814 0.985 . S
C828 C829 1.363 . S
C828 C834 1.379 . S
C828 N836 1.356 . S
C829 C828 1.363 . S
C829 C835 1.363 . S
C830 C831 1.363 . S
C830 C835 1.379 . S
C830 N837 1.356 . S
C831 C830 1.363 . S
C831 C834 1.363 . S
N832 C834 1.356 . S
N832 H844 0.984 . S
N832 H845 0.985 . S
N833 C835 1.356 . S
N833 H838 0.984 . S
N833 H839 0.985 . S
C834 C828 1.379 . S
C834 C831 1.363 . S
C834 N832 1.356 . S
C835 C829 1.363 . S
C835 C830 1.379 . S
C835 N833 1.356 . S
N836 C828 1.356 . S
N836 H842 0.984 . S
N836 H843 0.984 . S
N837 C830 1.356 . S
N837 H840 0.984 . S
N837 H841 0.985 . S
H838 N833 0.984 . S
H839 N833 0.985 . S
H840 N837 0.984 . S
H841 N837 0.985 . S
H842 N836 0.984 . S
H843 N836 0.984 . S
H844 N832 0.984 . S
H845 N832 0.985 . S
C846 C847 1.363 . S
C846 C852 1.379 . S
C846 N854 1.356 . S
C847 C846 1.363 . S
C847 C853 1.363 . S
C848 C849 1.363 . S
C848 C853 1.379 . S
C848 N855 1.356 . S
C849 C848 1.363 . S
C849 C852 1.363 . S
N850 C852 1.356 . S
N850 H862 0.984 . S
N850 H863 0.985 . S
N851 C853 1.356 . S
N851 H856 0.984 . S
N851 H857 0.985 . S
C852 C846 1.379 . S
C852 C849 1.363 . S
C852 N850 1.356 . S
C853 C847 1.363 . S
C853 C848 1.379 . S
C853 N851 1.356 . S
N854 C846 1.356 . S
N854 H860 0.984 . S
N854 H861 0.984 . S
N855 C848 1.356 . S
N855 H858 0.984 . S
N855 H859 0.985 . S
H856 N851 0.984 . S
H857 N851 0.985 . S
H858 N855 0.984 . S
H859 N855 0.985 . S
H860 N854 0.984 . S
H861 N854 0.984 . S
H862 N850 0.984 . S
H863 N850 0.985 . S
C864 C865 1.363 . S
C864 C870 1.379 . S
C864 N872 1.356 . S
C865 C864 1.363 . S
C865 C871 1.363 . S
C866 C867 1.363 . S
C866 C871 1.379 . S
C866 N873 1.356 . S
C867 C866 1.363 . S
C867 C870 1.363 . S
N868 C870 1.356 . S
N868 H880 0.984 . S
N868 H881 0.985 . S
N869 C871 1.356 . S
N869 H874 0.984 . S
N869 H875 0.985 . S
C870 C864 1.379 . S
C870 C867 1.363 . S
C870 N868 1.356 . S
C871 C865 1.363 . S
C871 C866 1.379 . S
C871 N869 1.356 . S
N872 C864 1.356 . S
N872 H878 0.984 . S
N872 H879 0.984 . S
N873 C866 1.356 . S
N873 H876 0.984 . S
N873 H877 0.985 . S
H874 N869 0.984 . S
H875 N869 0.985 . S
H876 N873 0.984 . S
H877 N873 0.985 . S
H878 N872 0.984 . S
H879 N872 0.984 . S
H880 N868 0.984 . S
H881 N868 0.985 . S
C882 C883 1.363 . S
C882 C888 1.379 . S
C882 N890 1.356 . S
C883 C882 1.363 . S
C883 C889 1.363 . S
C884 C885 1.363 . S
C884 C889 1.379 . S
C884 N891 1.356 . S
C885 C884 1.363 . S
C885 C888 1.363 . S
N886 C888 1.356 . S
N886 H898 0.984 . S
N886 H899 0.985 . S
N887 C889 1.356 . S
N887 H892 0.984 . S
N887 H893 0.985 . S
C888 C882 1.379 . S
C888 C885 1.363 . S
C888 N886 1.356 . S
C889 C883 1.363 . S
C889 C884 1.379 . S
C889 N887 1.356 . S
N890 C882 1.356 . S
N890 H896 0.984 . S
N890 H897 0.984 . S
N891 C884 1.356 . S
N891 H894 0.984 . S
N891 H895 0.985 . S
H892 N887 0.984 . S
H893 N887 0.985 . S
H894 N891 0.984 . S
H895 N891 0.985 . S
H896 N890 0.984 . S
H897 N890 0.984 . S
H898 N886 0.984 . S
H899 N886 0.985 . S
C900 C901 1.363 . S
C900 C906 1.379 . S
C900 N908 1.356 . S
C901 C900 1.363 . S
C901 C907 1.363 . S
C902 C903 1.363 . S
C902 C907 1.379 . S
C902 N909 1.356 . S
C903 C902 1.363 . S
C903 C906 1.363 . S
N904 C906 1.356 . S
N904 H916 0.984 . S
N904 H917 0.985 . S
N905 C907 1.356 . S
N905 H910 0.984 . S
N905 H911 0.985 . S
C906 C900 1.379 . S
C906 C903 1.363 . S
C906 N904 1.356 . S
C907 C901 1.363 . S
C907 C902 1.379 . S
C907 N905 1.356 . S
N908 C900 1.356 . S
N908 H914 0.984 . S
N908 H915 0.984 . S
N909 C902 1.356 . S
N909 H912 0.984 . S
N909 H913 0.985 . S
H910 N905 0.984 . S
H911 N905 0.985 . S
H912 N909 0.984 . S
H913 N909 0.985 . S
H914 N908 0.984 . S
H915 N908 0.984 . S
H916 N904 0.984 . S
H917 N904 0.985 . S
C918 C919 1.363 . S
C918 C924 1.379 . S
C918 N926 1.356 . S
C919 C918 1.363 . S
C919 C925 1.363 . S
C920 C921 1.363 . S
C920 C925 1.379 . S
C920 N927 1.356 . S
C921 C920 1.363 . S
C921 C924 1.363 . S
N922 C924 1.356 . S
N922 H934 0.984 . S
N922 H935 0.985 . S
N923 C925 1.356 . S
N923 H928 0.984 . S
N923 H929 0.985 . S
C924 C918 1.379 . S
C924 C921 1.363 . S
C924 N922 1.356 . S
C925 C919 1.363 . S
C925 C920 1.379 . S
C925 N923 1.356 . S
N926 C918 1.356 . S
N926 H932 0.984 . S
N926 H933 0.984 . S
N927 C920 1.356 . S
N927 H930 0.984 . S
N927 H931 0.985 . S
H928 N923 0.984 . S
H929 N923 0.985 . S
H930 N927 0.984 . S
H931 N927 0.985 . S
H932 N926 0.984 . S
H933 N926 0.984 . S
H934 N922 0.984 . S
H935 N922 0.985 . S
C936 C937 1.363 . S
C936 C942 1.379 . S
C936 N944 1.356 . S
C937 C936 1.363 . S
C937 C943 1.363 . S
C938 C939 1.363 . S
C938 C943 1.379 . S
C938 N945 1.356 . S
C939 C938 1.363 . S
C939 C942 1.363 . S
N940 C942 1.356 . S
N940 H952 0.984 . S
N940 H953 0.985 . S
N941 C943 1.356 . S
N941 H946 0.984 . S
N941 H947 0.985 . S
C942 C936 1.379 . S
C942 C939 1.363 . S
C942 N940 1.356 . S
C943 C937 1.363 . S
C943 C938 1.379 . S
C943 N941 1.356 . S
N944 C936 1.356 . S
N944 H950 0.984 . S
N944 H951 0.984 . S
N945 C938 1.356 . S
N945 H948 0.984 . S
N945 H949 0.985 . S
H946 N941 0.984 . S
H947 N941 0.985 . S
H948 N945 0.984 . S
H949 N945 0.985 . S
H950 N944 0.984 . S
H951 N944 0.984 . S
H952 N940 0.984 . S
H953 N940 0.985 . S
C954 C955 1.363 . S
C954 C960 1.379 . S
C954 N962 1.356 . S
C955 C954 1.363 . S
C955 C961 1.363 . S
C956 C957 1.363 . S
C956 C961 1.379 . S
C956 N963 1.356 . S
C957 C956 1.363 . S
C957 C960 1.363 . S
N958 C960 1.356 . S
N958 H970 0.984 . S
N958 H971 0.985 . S
N959 C961 1.356 . S
N959 H964 0.984 . S
N959 H965 0.985 . S
C960 C954 1.379 . S
C960 C957 1.363 . S
C960 N958 1.356 . S
C961 C955 1.363 . S
C961 C956 1.379 . S
C961 N959 1.356 . S
N962 C954 1.356 . S
N962 H968 0.984 . S
N962 H969 0.984 . S
N963 C956 1.356 . S
N963 H966 0.984 . S
N963 H967 0.985 . S
H964 N959 0.984 . S
H965 N959 0.985 . S
H966 N963 0.984 . S
H967 N963 0.985 . S
H968 N962 0.984 . S
H969 N962 0.984 . S
H970 N958 0.984 . S
H971 N958 0.985 . S
C972 C973 1.363 . S
C972 C978 1.379 . S
C972 N980 1.356 . S
C973 C972 1.363 . S
C973 C979 1.363 . S
C974 C975 1.363 . S
C974 C979 1.379 . S
C974 N981 1.356 . S
C975 C974 1.363 . S
C975 C978 1.363 . S
N976 C978 1.356 . S
N976 H988 0.984 . S
N976 H989 0.985 . S
N977 C979 1.356 . S
N977 H982 0.984 . S
N977 H983 0.985 . S
C978 C972 1.379 . S
C978 C975 1.363 . S
C978 N976 1.356 . S
C979 C973 1.363 . S
C979 C974 1.379 . S
C979 N977 1.356 . S
N980 C972 1.356 . S
N980 H986 0.984 . S
N980 H987 0.984 . S
N981 C974 1.356 . S
N981 H984 0.984 . S
N981 H985 0.985 . S
H982 N977 0.984 . S
H983 N977 0.985 . S
H984 N981 0.984 . S
H985 N981 0.985 . S
H986 N980 0.984 . S
H987 N980 0.984 . S
H988 N976 0.984 . S
H989 N976 0.985 . S
C990 C991 1.363 . S
C990 C996 1.379 . S
C990 N998 1.356 . S
C991 C990 1.363 . S
C991 C997 1.363 . S
C992 C993 1.363 . S
C992 C997 1.379 . S
C992 N999 1.356 . S
C993 C992 1.363 . S
C993 C996 1.363 . S
N994 C996 1.356 . S
N994 H1006 0.984 . S
N994 H1007 0.985 . S
N995 C997 1.356 . S
N995 H1000 0.984 . S
N995 H1001 0.985 . S
C996 C990 1.379 . S
C996 C993 1.363 . S
C996 N994 1.356 . S
C997 C991 1.363 . S
C997 C992 1.379 . S
C997 N995 1.356 . S
N998 C990 1.356 . S
N998 H1004 0.984 . S
N998 H1005 0.984 . S
N999 C992 1.356 . S
N999 H1002 0.984 . S
N999 H1003 0.985 . S
H1000 N995 0.984 . S
H1001 N995 0.985 . S
H1002 N999 0.984 . S
H1003 N999 0.985 . S
H1004 N998 0.984 . S
H1005 N998 0.984 . S
H1006 N994 0.984 . S
H1007 N994 0.985 . S
C1008 C1009 1.363 . S
C1008 C1014 1.379 . S
C1008 N1016 1.356 . S
C1009 C1008 1.363 . S
C1009 C1015 1.363 . S
C1010 C1011 1.363 . S
C1010 C1015 1.379 . S
C1010 N1017 1.356 . S
C1011 C1010 1.363 . S
C1011 C1014 1.363 . S
N1012 C1014 1.356 . S
N1012 H1024 0.984 . S
N1012 H1025 0.985 . S
N1013 C1015 1.356 . S
N1013 H1018 0.984 . S
N1013 H1019 0.985 . S
C1014 C1008 1.379 . S
C1014 C1011 1.363 . S
C1014 N1012 1.356 . S
C1015 C1009 1.363 . S
C1015 C1010 1.379 . S
C1015 N1013 1.356 . S
N1016 C1008 1.356 . S
N1016 H1022 0.984 . S
N1016 H1023 0.984 . S
N1017 C1010 1.356 . S
N1017 H1020 0.984 . S
N1017 H1021 0.985 . S
H1018 N1013 0.984 . S
H1019 N1013 0.985 . S
H1020 N1017 0.984 . S
H1021 N1017 0.985 . S
H1022 N1016 0.984 . S
H1023 N1016 0.984 . S
H1024 N1012 0.984 . S
H1025 N1012 0.985 . S
C1026 C1027 1.363 . S
C1026 C1032 1.379 . S
C1026 N1034 1.356 . S
C1027 C1026 1.363 . S
C1027 C1033 1.363 . S
C1028 C1029 1.363 . S
C1028 C1033 1.379 . S
C1028 N1035 1.356 . S
C1029 C1028 1.363 . S
C1029 C1032 1.363 . S
N1030 C1032 1.356 . S
N1030 H1042 0.984 . S
N1030 H1043 0.985 . S
N1031 C1033 1.356 . S
N1031 H1036 0.984 . S
N1031 H1037 0.985 . S
C1032 C1026 1.379 . S
C1032 C1029 1.363 . S
C1032 N1030 1.356 . S
C1033 C1027 1.363 . S
C1033 C1028 1.379 . S
C1033 N1031 1.356 . S
N1034 C1026 1.356 . S
N1034 H1040 0.984 . S
N1034 H1041 0.984 . S
N1035 C1028 1.356 . S
N1035 H1038 0.984 . S
N1035 H1039 0.985 . S
H1036 N1031 0.984 . S
H1037 N1031 0.985 . S
H1038 N1035 0.984 . S
H1039 N1035 0.985 . S
H1040 N1034 0.984 . S
H1041 N1034 0.984 . S
H1042 N1030 0.984 . S
H1043 N1030 0.985 . S
C1044 C1045 1.363 . S
C1044 C1050 1.379 1_654 S
C1044 N1052 1.356 . S
C1045 C1044 1.363 . S
C1045 C1051 1.363 . S
C1046 C1047 1.363 . S
C1046 C1051 1.379 1_456 S
C1046 N1053 1.356 . S
C1047 C1046 1.363 . S
C1047 C1050 1.363 . S
N1048 C1050 1.356 . S
N1048 H1060 0.984 . S
N1048 H1061 0.985 . S
N1049 C1051 1.356 . S
N1049 H1054 0.984 . S
N1049 H1055 0.985 . S
C1050 C1044 1.379 1_456 S
C1050 C1047 1.363 . S
C1050 N1048 1.356 . S
C1051 C1045 1.363 . S
C1051 C1046 1.379 1_654 S
C1051 N1049 1.356 . S
N1052 C1044 1.356 . S
N1052 H1058 0.984 . S
N1052 H1059 0.984 . S
N1053 C1046 1.356 . S
N1053 H1056 0.984 . S
N1053 H1057 0.985 . S
H1054 N1049 0.984 . S
H1055 N1049 0.985 . S
H1056 N1053 0.984 . S
H1057 N1053 0.985 . S
H1058 N1052 0.984 . S
H1059 N1052 0.984 . S
H1060 N1048 0.984 . S
H1061 N1048 0.985 . S
C1062 C1063 1.363 . S
C1062 C1068 1.379 1_556 S
C1062 N1070 1.356 . S
C1063 C1062 1.363 . S
C1063 C1069 1.363 . S
C1064 C1065 1.363 . S
C1064 C1069 1.379 1_554 S
C1064 N1071 1.356 . S
C1065 C1064 1.363 . S
C1065 C1068 1.363 . S
N1066 C1068 1.356 . S
N1066 H1078 0.984 . S
N1066 H1079 0.985 . S
N1067 C1069 1.356 . S
N1067 H1072 0.984 . S
N1067 H1073 0.985 . S
C1068 C1062 1.379 1_554 S
C1068 C1065 1.363 . S
C1068 N1066 1.356 . S
C1069 C1063 1.363 . S
C1069 C1064 1.379 1_556 S
C1069 N1067 1.356 . S
N1070 C1062 1.356 . S
N1070 H1076 0.984 . S
N1070 H1077 0.984 . S
N1071 C1064 1.356 . S
N1071 H1074 0.984 . S
N1071 H1075 0.985 . S
H1072 N1067 0.984 . S
H1073 N1067 0.985 . S
H1074 N1071 0.984 . S
H1075 N1071 0.985 . S
H1076 N1070 0.984 . S
H1077 N1070 0.984 . S
H1078 N1066 0.984 . S
H1079 N1066 0.985 . S
C1080 C1081 1.363 1_545 S
C1080 C1086 1.379 1_556 S
C1080 N1088 1.356 . S
C1081 C1080 1.363 1_565 S
C1081 C1087 1.363 . S
C1082 C1083 1.363 1_565 S
C1082 C1087 1.379 1_554 S
C1082 N1089 1.356 . S
C1083 C1082 1.363 1_545 S
C1083 C1086 1.363 . S
N1084 C1086 1.356 . S
N1084 H1096 0.984 . S
N1084 H1097 0.985 . S
N1085 C1087 1.356 . S
N1085 H1090 0.984 . S
N1085 H1091 0.985 . S
C1086 C1080 1.379 1_554 S
C1086 C1083 1.363 . S
C1086 N1084 1.356 . S
C1087 C1081 1.363 . S
C1087 C1082 1.379 1_556 S
C1087 N1085 1.356 . S
N1088 C1080 1.356 . S
N1088 H1094 0.984 . S
N1088 H1095 0.984 . S
N1089 C1082 1.356 . S
N1089 H1092 0.984 . S
N1089 H1093 0.985 . S
H1090 N1085 0.984 . S
H1091 N1085 0.985 . S
H1092 N1089 0.984 . S
H1093 N1089 0.985 . S
H1094 N1088 0.984 . S
H1095 N1088 0.984 . S
H1096 N1084 0.984 . S
H1097 N1084 0.985 . S
C1098 C1099 1.363 . S
C1098 C1104 1.379 . S
C1098 N1106 1.356 . S
C1099 C1098 1.363 . S
C1099 C1105 1.363 . S
C1100 C1101 1.363 . S
C1100 C1105 1.379 . S
C1100 N1107 1.356 . S
C1101 C1100 1.363 . S
C1101 C1104 1.363 . S
N1102 C1104 1.356 . S
N1102 H1114 0.984 . S
N1102 H1115 0.985 . S
N1103 C1105 1.356 . S
N1103 H1108 0.984 . S
N1103 H1109 0.985 . S
C1104 C1098 1.379 . S
C1104 C1101 1.363 . S
C1104 N1102 1.356 . S
C1105 C1099 1.363 . S
C1105 C1100 1.379 . S
C1105 N1103 1.356 . S
N1106 C1098 1.356 . S
N1106 H1112 0.984 . S
N1106 H1113 0.984 . S
N1107 C1100 1.356 . S
N1107 H1110 0.984 . S
N1107 H1111 0.985 . S
H1108 N1103 0.984 . S
H1109 N1103 0.985 . S
H1110 N1107 0.984 . S
H1111 N1107 0.985 . S
H1112 N1106 0.984 . S
H1113 N1106 0.984 . S
H1114 N1102 0.984 . S
H1115 N1102 0.985 . S
C1116 C1117 1.363 . S
C1116 C1122 1.379 . S
C1116 N1124 1.356 . S
C1117 C1116 1.363 . S
C1117 C1123 1.363 . S
C1118 C1119 1.363 . S
C1118 C1123 1.379 . S
C1118 N1125 1.356 . S
C1119 C1118 1.363 . S
C1119 C1122 1.363 . S
N1120 C1122 1.356 . S
N1120 H1132 0.984 . S
N1120 H1133 0.985 . S
N1121 C1123 1.356 . S
N1121 H1126 0.984 . S
N1121 H1127 0.985 . S
C1122 C1116 1.379 . S
C1122 C1119 1.363 . S
C1122 N1120 1.356 . S
C1123 C1117 1.363 . S
C1123 C1118 1.379 . S
C1123 N1121 1.356 . S
N1124 C1116 1.356 . S
N1124 H1130 0.984 . S
N1124 H1131 0.984 . S
N1125 C1118 1.356 . S
N1125 H1128 0.984 . S
N1125 H1129 0.985 . S
H1126 N1121 0.984 . S
H1127 N1121 0.985 . S
H1128 N1125 0.984 . S
H1129 N1125 0.985 . S
H1130 N1124 0.984 . S
H1131 N1124 0.984 . S
H1132 N1120 0.984 . S
H1133 N1120 0.985 . S
C1134 C1135 1.363 . S
C1134 C1140 1.379 . S
C1134 N1142 1.356 . S
C1135 C1134 1.363 . S
C1135 C1141 1.363 . S
C1136 C1137 1.363 . S
C1136 C1141 1.379 . S
C1136 N1143 1.356 . S
C1137 C1136 1.363 . S
C1137 C1140 1.363 . S
N1138 C1140 1.356 . S
N1138 H1150 0.984 . S
N1138 H1151 0.985 . S
N1139 C1141 1.356 . S
N1139 H1144 0.984 . S
N1139 H1145 0.985 . S
C1140 C1134 1.379 . S
C1140 C1137 1.363 . S
C1140 N1138 1.356 . S
C1141 C1135 1.363 . S
C1141 C1136 1.379 . S
C1141 N1139 1.356 . S
N1142 C1134 1.356 . S
N1142 H1148 0.984 . S
N1142 H1149 0.984 . S
N1143 C1136 1.356 . S
N1143 H1146 0.984 . S
N1143 H1147 0.985 . S
H1144 N1139 0.984 . S
H1145 N1139 0.985 . S
H1146 N1143 0.984 . S
H1147 N1143 0.985 . S
H1148 N1142 0.984 . S
H1149 N1142 0.984 . S
H1150 N1138 0.984 . S
H1151 N1138 0.985 . S
C1152 C1153 1.363 . S
C1152 C1158 1.379 . S
C1152 N1160 1.356 . S
C1153 C1152 1.363 . S
C1153 C1159 1.363 . S
C1154 C1155 1.363 . S
C1154 C1159 1.379 . S
C1154 N1161 1.356 . S
C1155 C1154 1.363 . S
C1155 C1158 1.363 . S
N1156 C1158 1.356 . S
N1156 H1168 0.984 . S
N1156 H1169 0.985 . S
N1157 C1159 1.356 . S
N1157 H1162 0.984 . S
N1157 H1163 0.985 . S
C1158 C1152 1.379 . S
C1158 C1155 1.363 . S
C1158 N1156 1.356 . S
C1159 C1153 1.363 . S
C1159 C1154 1.379 . S
C1159 N1157 1.356 . S
N1160 C1152 1.356 . S
N1160 H1166 0.984 . S
N1160 H1167 0.984 . S
N1161 C1154 1.356 . S
N1161 H1164 0.984 . S
N1161 H1165 0.985 . S
H1162 N1157 0.984 . S
H1163 N1157 0.985 . S
H1164 N1161 0.984 . S
H1165 N1161 0.985 . S
H1166 N1160 0.984 . S
H1167 N1160 0.984 . S
H1168 N1156 0.984 . S
H1169 N1156 0.985 . S
C1170 C1171 1.363 . S
C1170 C1176 1.379 . S
C1170 N1178 1.356 . S
C1171 C1170 1.363 . S
C1171 C1177 1.363 . S
C1172 C1173 1.363 . S
C1172 C1177 1.379 . S
C1172 N1179 1.356 . S
C1173 C1172 1.363 . S
C1173 C1176 1.363 . S
N1174 C1176 1.356 . S
N1174 H1186 0.984 . S
N1174 H1187 0.985 . S
N1175 C1177 1.356 . S
N1175 H1180 0.984 . S
N1175 H1181 0.985 . S
C1176 C1170 1.379 . S
C1176 C1173 1.363 . S
C1176 N1174 1.356 . S
C1177 C1171 1.363 . S
C1177 C1172 1.379 . S
C1177 N1175 1.356 . S
N1178 C1170 1.356 . S
N1178 H1184 0.984 . S
N1178 H1185 0.984 . S
N1179 C1172 1.356 . S
N1179 H1182 0.984 . S
N1179 H1183 0.985 . S
H1180 N1175 0.984 . S
H1181 N1175 0.985 . S
H1182 N1179 0.984 . S
H1183 N1179 0.985 . S
H1184 N1178 0.984 . S
H1185 N1178 0.984 . S
H1186 N1174 0.984 . S
H1187 N1174 0.985 . S
C1188 C1189 1.363 . S
C1188 C1194 1.379 . S
C1188 N1196 1.356 . S
C1189 C1188 1.363 . S
C1189 C1195 1.363 . S
C1190 C1191 1.363 . S
C1190 C1195 1.379 . S
C1190 N1197 1.356 . S
C1191 C1190 1.363 . S
C1191 C1194 1.363 . S
N1192 C1194 1.356 . S
N1192 H1204 0.984 . S
N1192 H1205 0.985 . S
N1193 C1195 1.356 . S
N1193 H1198 0.984 . S
N1193 H1199 0.985 . S
C1194 C1188 1.379 . S
C1194 C1191 1.363 . S
C1194 N1192 1.356 . S
C1195 C1189 1.363 . S
C1195 C1190 1.379 . S
C1195 N1193 1.356 . S
N1196 C1188 1.356 . S
N1196 H1202 0.984 . S
N1196 H1203 0.984 . S
N1197 C1190 1.356 . S
N1197 H1200 0.984 . S
N1197 H1201 0.985 . S
H1198 N1193 0.984 . S
H1199 N1193 0.985 . S
H1200 N1197 0.984 . S
H1201 N1197 0.985 . S
H1202 N1196 0.984 . S
H1203 N1196 0.984 . S
H1204 N1192 0.984 . S
H1205 N1192 0.985 . S
C1206 C1207 1.363 . S
C1206 C1212 1.379 . S
C1206 N1214 1.356 . S
C1207 C1206 1.363 . S
C1207 C1213 1.363 . S
C1208 C1209 1.363 . S
C1208 C1213 1.379 . S
C1208 N1215 1.356 . S
C1209 C1208 1.363 . S
C1209 C1212 1.363 . S
N1210 C1212 1.356 . S
N1210 H1222 0.984 . S
N1210 H1223 0.985 . S
N1211 C1213 1.356 . S
N1211 H1216 0.984 . S
N1211 H1217 0.985 . S
C1212 C1206 1.379 . S
C1212 C1209 1.363 . S
C1212 N1210 1.356 . S
C1213 C1207 1.363 . S
C1213 C1208 1.379 . S
C1213 N1211 1.356 . S
N1214 C1206 1.356 . S
N1214 H1220 0.984 . S
N1214 H1221 0.984 . S
N1215 C1208 1.356 . S
N1215 H1218 0.984 . S
N1215 H1219 0.985 . S
H1216 N1211 0.984 . S
H1217 N1211 0.985 . S
H1218 N1215 0.984 . S
H1219 N1215 0.985 . S
H1220 N1214 0.984 . S
H1221 N1214 0.984 . S
H1222 N1210 0.984 . S
H1223 N1210 0.985 . S
C1224 C1225 1.363 . S
C1224 C1230 1.379 . S
C1224 N1232 1.356 . S
C1225 C1224 1.363 . S
C1225 C1231 1.363 . S
C1226 C1227 1.363 . S
C1226 C1231 1.379 . S
C1226 N1233 1.356 . S
C1227 C1226 1.363 . S
C1227 C1230 1.363 . S
N1228 C1230 1.356 . S
N1228 H1240 0.984 . S
N1228 H1241 0.985 . S
N1229 C1231 1.356 . S
N1229 H1234 0.984 . S
N1229 H1235 0.985 . S
C1230 C1224 1.379 . S
C1230 C1227 1.363 . S
C1230 N1228 1.356 . S
C1231 C1225 1.363 . S
C1231 C1226 1.379 . S
C1231 N1229 1.356 . S
N1232 C1224 1.356 . S
N1232 H1238 0.984 . S
N1232 H1239 0.984 . S
N1233 C1226 1.356 . S
N1233 H1236 0.984 . S
N1233 H1237 0.985 . S
H1234 N1229 0.984 . S
H1235 N1229 0.985 . S
H1236 N1233 0.984 . S
H1237 N1233 0.985 . S
H1238 N1232 0.984 . S
H1239 N1232 0.984 . S
H1240 N1228 0.984 . S
H1241 N1228 0.985 . S
C1242 C1243 1.363 . S
C1242 C1248 1.379 . S
C1242 N1250 1.356 . S
C1243 C1242 1.363 . S
C1243 C1249 1.363 . S
C1244 C1245 1.363 . S
C1244 C1249 1.379 . S
C1244 N1251 1.356 . S
C1245 C1244 1.363 . S
C1245 C1248 1.363 . S
N1246 C1248 1.356 . S
N1246 H1258 0.984 . S
N1246 H1259 0.985 . S
N1247 C1249 1.356 . S
N1247 H1252 0.984 . S
N1247 H1253 0.985 . S
C1248 C1242 1.379 . S
C1248 C1245 1.363 . S
C1248 N1246 1.356 . S
C1249 C1243 1.363 . S
C1249 C1244 1.379 . S
C1249 N1247 1.356 . S
N1250 C1242 1.356 . S
N1250 H1256 0.984 . S
N1250 H1257 0.984 . S
N1251 C1244 1.356 . S
N1251 H1254 0.984 . S
N1251 H1255 0.985 . S
H1252 N1247 0.984 . S
H1253 N1247 0.985 . S
H1254 N1251 0.984 . S
H1255 N1251 0.985 . S
H1256 N1250 0.984 . S
H1257 N1250 0.984 . S
H1258 N1246 0.984 . S
H1259 N1246 0.985 . S
C1260 C1261 1.363 . S
C1260 C1266 1.379 . S
C1260 N1268 1.356 . S
C1261 C1260 1.363 . S
C1261 C1267 1.363 . S
C1262 C1263 1.363 . S
C1262 C1267 1.379 . S
C1262 N1269 1.356 . S
C1263 C1262 1.363 . S
C1263 C1266 1.363 . S
N1264 C1266 1.356 . S
N1264 H1276 0.984 . S
N1264 H1277 0.985 . S
N1265 C1267 1.356 . S
N1265 H1270 0.984 . S
N1265 H1271 0.985 . S
C1266 C1260 1.379 . S
C1266 C1263 1.363 . S
C1266 N1264 1.356 . S
C1267 C1261 1.363 . S
C1267 C1262 1.379 . S
C1267 N1265 1.356 . S
N1268 C1260 1.356 . S
N1268 H1274 0.984 . S
N1268 H1275 0.984 . S
N1269 C1262 1.356 . S
N1269 H1272 0.984 . S
N1269 H1273 0.985 . S
H1270 N1265 0.984 . S
H1271 N1265 0.985 . S
H1272 N1269 0.984 . S
H1273 N1269 0.985 . S
H1274 N1268 0.984 . S
H1275 N1268 0.984 . S
H1276 N1264 0.984 . S
H1277 N1264 0.985 . S
C1278 C1279 1.363 . S
C1278 C1284 1.379 . S
C1278 N1286 1.356 . S
C1279 C1278 1.363 . S
C1279 C1285 1.363 . S
C1280 C1281 1.363 . S
C1280 C1285 1.379 . S
C1280 N1287 1.356 . S
C1281 C1280 1.363 . S
C1281 C1284 1.363 . S
N1282 C1284 1.356 . S
N1282 H1294 0.984 . S
N1282 H1295 0.985 . S
N1283 C1285 1.356 . S
N1283 H1288 0.984 . S
N1283 H1289 0.985 . S
C1284 C1278 1.379 . S
C1284 C1281 1.363 . S
C1284 N1282 1.356 . S
C1285 C1279 1.363 . S
C1285 C1280 1.379 . S
C1285 N1283 1.356 . S
N1286 C1278 1.356 . S
N1286 H1292 0.984 . S
N1286 H1293 0.984 . S
N1287 C1280 1.356 . S
N1287 H1290 0.984 . S
N1287 H1291 0.985 . S
H1288 N1283 0.984 . S
H1289 N1283 0.985 . S
H1290 N1287 0.984 . S
H1291 N1287 0.985 . S
H1292 N1286 0.984 . S
H1293 N1286 0.984 . S
H1294 N1282 0.984 . S
H1295 N1282 0.985 . S
C1296 C1297 1.363 . S
C1296 C1302 1.379 . S
C1296 N1304 1.356 . S
C1297 C1296 1.363 . S
C1297 C1303 1.363 . S
C1298 C1299 1.363 . S
C1298 C1303 1.379 . S
C1298 N1305 1.356 . S
C1299 C1298 1.363 . S
C1299 C1302 1.363 . S
N1300 C1302 1.356 . S
N1300 H1312 0.984 . S
N1300 H1313 0.985 . S
N1301 C1303 1.356 . S
N1301 H1306 0.984 . S
N1301 H1307 0.985 . S
C1302 C1296 1.379 . S
C1302 C1299 1.363 . S
C1302 N1300 1.356 . S
C1303 C1297 1.363 . S
C1303 C1298 1.379 . S
C1303 N1301 1.356 . S
N1304 C1296 1.356 . S
N1304 H1310 0.984 . S
N1304 H1311 0.984 . S
N1305 C1298 1.356 . S
N1305 H1308 0.984 . S
N1305 H1309 0.985 . S
H1306 N1301 0.984 . S
H1307 N1301 0.985 . S
H1308 N1305 0.984 . S
H1309 N1305 0.985 . S
H1310 N1304 0.984 . S
H1311 N1304 0.984 . S
H1312 N1300 0.984 . S
H1313 N1300 0.985 . S
C1314 C1315 1.363 . S
C1314 C1320 1.379 1_455 S
C1314 N1322 1.356 . S
C1315 C1314 1.363 . S
C1315 C1321 1.363 . S
C1316 C1317 1.363 . S
C1316 C1321 1.379 1_655 S
C1316 N1323 1.356 . S
C1317 C1316 1.363 . S
C1317 C1320 1.363 . S
N1318 C1320 1.356 . S
N1318 H1330 0.984 . S
N1318 H1331 0.985 . S
N1319 C1321 1.356 . S
N1319 H1324 0.984 . S
N1319 H1325 0.985 . S
C1320 C1314 1.379 1_655 S
C1320 C1317 1.363 . S
C1320 N1318 1.356 . S
C1321 C1315 1.363 . S
C1321 C1316 1.379 1_455 S
C1321 N1319 1.356 . S
N1322 C1314 1.356 . S
N1322 H1328 0.984 . S
N1322 H1329 0.984 . S
N1323 C1316 1.356 . S
N1323 H1326 0.984 . S
N1323 H1327 0.985 . S
H1324 N1319 0.984 . S
H1325 N1319 0.985 . S
H1326 N1323 0.984 . S
H1327 N1323 0.985 . S
H1328 N1322 0.984 . S
H1329 N1322 0.984 . S
H1330 N1318 0.984 . S
H1331 N1318 0.985 . S
C1332 C1333 1.363 . S
C1332 C1338 1.379 . S
C1332 N1340 1.356 . S
C1333 C1332 1.363 . S
C1333 C1339 1.363 . S
C1334 C1335 1.363 . S
C1334 C1339 1.379 . S
C1334 N1341 1.356 . S
C1335 C1334 1.363 . S
C1335 C1338 1.363 . S
N1336 C1338 1.356 . S
N1336 H1348 0.984 . S
N1336 H1349 0.985 . S
N1337 C1339 1.356 . S
N1337 H1342 0.984 . S
N1337 H1343 0.985 . S
C1338 C1332 1.379 . S
C1338 C1335 1.363 . S
C1338 N1336 1.356 . S
C1339 C1333 1.363 . S
C1339 C1334 1.379 . S
C1339 N1337 1.356 . S
N1340 C1332 1.356 . S
N1340 H1346 0.984 . S
N1340 H1347 0.984 . S
N1341 C1334 1.356 . S
N1341 H1344 0.984 . S
N1341 H1345 0.985 . S
H1342 N1337 0.984 . S
H1343 N1337 0.985 . S
H1344 N1341 0.984 . S
H1345 N1341 0.985 . S
H1346 N1340 0.984 . S
H1347 N1340 0.984 . S
H1348 N1336 0.984 . S
H1349 N1336 0.985 . S
C1350 C1351 1.363 . S
C1350 C1356 1.379 1_565 S
C1350 N1358 1.356 . S
C1351 C1350 1.363 . S
C1351 C1357 1.363 . S
C1352 C1353 1.363 . S
C1352 C1357 1.379 1_545 S
C1352 N1359 1.356 . S
C1353 C1352 1.363 . S
C1353 C1356 1.363 . S
N1354 C1356 1.356 . S
N1354 H1366 0.984 . S
N1354 H1367 0.985 . S
N1355 C1357 1.356 . S
N1355 H1360 0.984 . S
N1355 H1361 0.985 . S
C1356 C1350 1.379 1_545 S
C1356 C1353 1.363 . S
C1356 N1354 1.356 . S
C1357 C1351 1.363 . S
C1357 C1352 1.379 1_565 S
C1357 N1355 1.356 . S
N1358 C1350 1.356 . S
N1358 H1364 0.984 . S
N1358 H1365 0.984 . S
N1359 C1352 1.356 . S
N1359 H1362 0.984 . S
N1359 H1363 0.985 . S
H1360 N1355 0.984 . S
H1361 N1355 0.985 . S
H1362 N1359 0.984 . S
H1363 N1359 0.985 . S
H1364 N1358 0.984 . S
H1365 N1358 0.984 . S
H1366 N1354 0.984 . S
H1367 N1354 0.985 . S
C1368 C1369 1.363 . S
C1368 C1374 1.379 1_565 S
C1368 N1376 1.356 . S
C1369 C1368 1.363 . S
C1369 C1375 1.363 . S
C1370 C1371 1.363 . S
C1370 C1375 1.379 1_545 S
C1370 N1377 1.356 . S
C1371 C1370 1.363 . S
C1371 C1374 1.363 . S
N1372 C1374 1.356 . S
N1372 H1384 0.984 . S
N1372 H1385 0.985 . S
N1373 C1375 1.356 . S
N1373 H1378 0.984 . S
N1373 H1379 0.985 . S
C1374 C1368 1.379 1_545 S
C1374 C1371 1.363 . S
C1374 N1372 1.356 . S
C1375 C1369 1.363 . S
C1375 C1370 1.379 1_565 S
C1375 N1373 1.356 . S
N1376 C1368 1.356 . S
N1376 H1382 0.984 . S
N1376 H1383 0.984 . S
N1377 C1370 1.356 . S
N1377 H1380 0.984 . S
N1377 H1381 0.985 . S
H1378 N1373 0.984 . S
H1379 N1373 0.985 . S
H1380 N1377 0.984 . S
H1381 N1377 0.985 . S
H1382 N1376 0.984 . S
H1383 N1376 0.984 . S
H1384 N1372 0.984 . S
H1385 N1372 0.985 . S
C1386 C1387 1.363 . S
C1386 C1392 1.379 1_455 S
C1386 N1394 1.356 . S
C1387 C1386 1.363 . S
C1387 C1393 1.363 . S
C1388 C1389 1.363 . S
C1388 C1393 1.379 1_655 S
C1388 N1395 1.356 . S
C1389 C1388 1.363 . S
C1389 C1392 1.363 . S
N1390 C1392 1.356 . S
N1390 H1402 0.984 . S
N1390 H1403 0.985 . S
N1391 C1393 1.356 . S
N1391 H1396 0.984 . S
N1391 H1397 0.985 . S
C1392 C1386 1.379 1_655 S
C1392 C1389 1.363 . S
C1392 N1390 1.356 . S
C1393 C1387 1.363 . S
C1393 C1388 1.379 1_455 S
C1393 N1391 1.356 . S
N1394 C1386 1.356 . S
N1394 H1400 0.984 . S
N1394 H1401 0.984 . S
N1395 C1388 1.356 . S
N1395 H1398 0.984 . S
N1395 H1399 0.985 . S
H1396 N1391 0.984 . S
H1397 N1391 0.985 . S
H1398 N1395 0.984 . S
H1399 N1395 0.985 . S
H1400 N1394 0.984 . S
H1401 N1394 0.984 . S
H1402 N1390 0.984 . S
H1403 N1390 0.985 . S
C1404 C1405 1.363 . S
C1404 C1410 1.379 . S
C1404 N1412 1.356 . S
C1405 C1404 1.363 . S
C1405 C1411 1.363 . S
C1406 C1407 1.363 . S
C1406 C1411 1.379 . S
C1406 N1413 1.356 . S
C1407 C1406 1.363 . S
C1407 C1410 1.363 . S
N1408 C1410 1.356 . S
N1408 H1420 0.984 . S
N1408 H1421 0.985 . S
N1409 C1411 1.356 . S
N1409 H1414 0.984 . S
N1409 H1415 0.985 . S
C1410 C1404 1.379 . S
C1410 C1407 1.363 . S
C1410 N1408 1.356 . S
C1411 C1405 1.363 . S
C1411 C1406 1.379 . S
C1411 N1409 1.356 . S
N1412 C1404 1.356 . S
N1412 H1418 0.984 . S
N1412 H1419 0.984 . S
N1413 C1406 1.356 . S
N1413 H1416 0.984 . S
N1413 H1417 0.985 . S
H1414 N1409 0.984 . S
H1415 N1409 0.985 . S
H1416 N1413 0.984 . S
H1417 N1413 0.985 . S
H1418 N1412 0.984 . S
H1419 N1412 0.984 . S
H1420 N1408 0.984 . S
H1421 N1408 0.985 . S
C613 C111 0.750 . S
C615 C9 0.750 . S
C631 C43 0.674 . S
C633 C145 0.675 . S
C649 C77 0.675 . S
C651 C179 0.674 . S
C667 C190 2.450 . S
C669 C54 2.450 . S
C685 C122 2.363 . S
C687 C88 2.365 . S
C703 C156 2.365 . S
C705 C20 2.363 . S
C721 C315 0.681 . S
C723 C213 0.684 . S
C739 C349 0.690 . S
C741 C247 0.688 . S
C757 C281 0.702 . S
C759 C383 0.698 . S
C775 C394 2.300 . S
C777 C258 2.305 . S
C793 C326 2.286 . S
C795 C292 2.298 . S
C811 C224 2.394 . S
C813 C360 2.394 . S
C829 C519 0.687 . S
C831 C417 0.680 . S
C847 C451 0.697 . S
C849 C553 0.701 . S
C865 C485 0.690 . S
C867 C587 0.688 . S
C883 C462 2.300 . S
C885 C598 2.305 . S
C901 C530 2.394 . S
C903 C496 2.394 . S
C919 C564 2.298 . S
C921 C428 2.286 . S
C937 C611 1.745 . S
C939 C33 1.745 . S
C955 C543 1.745 . S
C957 C67 1.746 . S
C973 C101 1.694 . S
C975 C577 1.694 . S
C991 C135 1.745 . S
C993 C271 1.745 . S
C1009 C305 1.694 . S
C1011 C169 1.694 . S
C1027 C237 1.745 . S
C1029 C203 1.746 . S
C1045 C339 1.687 . S
C1047 C475 1.687 . S
C1063 C509 1.800 . S
C1065 C373 1.800 . S
C1081 C441 1.687 . S
C1083 C407 1.687 . S
C1099 C2 2.039 . S
C1101 C342 2.036 . S
C1117 C376 2.168 . S
C1119 C36 2.160 . S
C1135 C308 2.179 . S
C1137 C70 2.158 . S
C1153 C104 2.039 . S
C1155 C478 2.036 . S
C1171 C410 2.179 . S
C1173 C138 2.158 . S
C1189 C172 2.156 . S
C1191 C444 2.171 . S
C1207 C481 0.282 . S
C1209 C175 0.250 . S
C1225 C107 0.358 . S
C1227 C413 0.314 . S
C1243 C447 0.373 . S
C1245 C141 0.424 . S
C1261 C39 0.250 . S
C1263 C345 0.282 . S
C1279 C73 0.426 . S
C1281 C379 0.372 . S
C1297 C311 0.313 . S
C1299 C5 0.359 . S
C1315 C546 2.080 . S
C1317 C206 2.077 . S
C1333 C240 1.988 . S
C1335 C580 1.988 . S
C1351 C512 2.077 . S
C1353 C274 2.080 . S
C1369 C549 0.269 . S
C1371 C243 0.264 . S
C1387 C583 0.264 . S
C1389 C277 0.269 . S
C1405 C515 0.279 . S
C1407 C209 0.279 . S
