# Generated by pormake.
# Topology usf, (4)-cn, num edge types: 1
# Building blocks:
#     Node 0, Type 0, BuildingBlock: ESEHIV_clean_sbu_0, # of connection points: 4
#     Node 1, Type 0, BuildingBlock: ESEHIV_clean_sbu_0, # of connection points: 4
#     Node 2, Type 0, BuildingBlock: ESEHIV_clean_sbu_0, # of connection points: 4
#     Node 3, Type 0, BuildingBlock: ESEHIV_clean_sbu_0, # of connection points: 4
#     Node 4, Type 0, BuildingBlock: ESEHIV_clean_sbu_0, # of connection points: 4
#     Node 5, Type 0, BuildingBlock: ESEHIV_clean_sbu_0, # of connection points: 4
#     Node 6, Type 0, BuildingBlock: ESEHIV_clean_sbu_0, # of connection points: 4
#     Node 7, Type 0, BuildingBlock: ESEHIV_clean_sbu_0, # of connection points: 4
#     Node 8, Type 0, BuildingBlock: ESEHIV_clean_sbu_0, # of connection points: 4
#     Node 9, Type 0, BuildingBlock: ESEHIV_clean_sbu_0, # of connection points: 4
#     Node 10, Type 0, BuildingBlock: ESEHIV_clean_sbu_0, # of connection points: 4
#     Node 11, Type 0, BuildingBlock: ESEHIV_clean_sbu_0, # of connection points: 4
#     Node 12, Type 0, BuildingBlock: ESEHIV_clean_sbu_0, # of connection points: 4
#     Node 13, Type 0, BuildingBlock: ESEHIV_clean_sbu_0, # of connection points: 4
#     Node 14, Type 0, BuildingBlock: ESEHIV_clean_sbu_0, # of connection points: 4
#     Node 15, Type 0, BuildingBlock: ESEHIV_clean_sbu_0, # of connection points: 4
#     Node 16, Type 0, BuildingBlock: ESEHIV_clean_sbu_0, # of connection points: 4
#     Node 17, Type 0, BuildingBlock: ESEHIV_clean_sbu_0, # of connection points: 4
#     Edge 18, Type (0, 0), None
#     Edge 19, Type (0, 0), None
#     Edge 20, Type (0, 0), None
#     Edge 21, Type (0, 0), None
#     Edge 22, Type (0, 0), None
#     Edge 23, Type (0, 0), None
#     Edge 24, Type (0, 0), None
#     Edge 25, Type (0, 0), None
#     Edge 26, Type (0, 0), None
#     Edge 27, Type (0, 0), None
#     Edge 28, Type (0, 0), None
#     Edge 29, Type (0, 0), None
#     Edge 30, Type (0, 0), None
#     Edge 31, Type (0, 0), None
#     Edge 32, Type (0, 0), None
#     Edge 33, Type (0, 0), None
#     Edge 34, Type (0, 0), None
#     Edge 35, Type (0, 0), None
#     Edge 36, Type (0, 0), None
#     Edge 37, Type (0, 0), None
#     Edge 38, Type (0, 0), None
#     Edge 39, Type (0, 0), None
#     Edge 40, Type (0, 0), None
#     Edge 41, Type (0, 0), None
#     Edge 42, Type (0, 0), None
#     Edge 43, Type (0, 0), None
#     Edge 44, Type (0, 0), None
#     Edge 45, Type (0, 0), None
#     Edge 46, Type (0, 0), None
#     Edge 47, Type (0, 0), None
#     Edge 48, Type (0, 0), None
#     Edge 49, Type (0, 0), None
#     Edge 50, Type (0, 0), None
#     Edge 51, Type (0, 0), None
#     Edge 52, Type (0, 0), None
#     Edge 53, Type (0, 0), None
# Relax obj value: 0.060
# Max RMSD: 0.206
# Mean RMSD: 0.139
data_MOF--net-usf--node1-ESEHIV_clean_sbu_0--edge1-none
_symmetry_space_group_name_H-M    P1
_symmetry_Int_Tables_number       1
_symmetry_cell_setting            triclinic
loop_
_symmetry_equiv_pos_as_xyz
'x, y, z'
_cell_length_a     19.440086
_cell_length_b     22.416651
_cell_length_c     16.111971
_cell_angle_alpha  92.59667
_cell_angle_beta   89.40994
_cell_angle_gamma 116.57539
loop_
_atom_site_label
_atom_site_type_symbol
_atom_site_fract_x
_atom_site_fract_y
_atom_site_fract_z
_atom_type_partial_charge
Cu0 Cu 0.08697 0.58878 0.09971 0.0
N1 N 0.16053 0.61671 1.0179 0.0
N2 N 0.18562 0.62233 0.88317 0.0
C3 C 0.14446 0.63293 0.94442 0.0
C4 C 0.23025 0.59874 0.91864 0.0
C5 C 0.21431 0.59507 1.00259 0.0
O6 O 1.01745 0.49867 1.05705 0.0
C7 C 0.9888 0.63619 0.17963 0.0
O8 O 0.96051 0.57594 0.20791 0.0
H9 H 0.09632 0.64374 0.93516 0.0
H10 H 0.23316 0.57037 1.04668 0.0
N11 N 0.13218 0.57854 0.19493 0.0
N12 N 0.14056 0.54605 0.32057 0.0
C13 C 0.09323 0.5422 0.25847 0.0
C14 C 0.20704 0.6061 0.21761 0.0
C15 C 0.21242 0.58615 0.29614 0.0
C16 C 1.00698 0.4845 0.97903 0.0
O17 O 0.99817 0.52589 0.93055 0.0
H18 H 0.03127 0.515 0.26065 0.0
H19 H 0.25395 0.6404 0.1812 0.0
O20 O 0.04236 0.65238 0.12605 0.0
H21 H 0.2653 0.57953 0.8854 0.0
H22 H 0.2638 0.60324 0.33428 0.0
Cu23 Cu 0.52498 0.49739 1.02192 0.0
N24 N 0.46813 0.40182 1.01505 0.0
N25 N 0.42113 0.29335 1.04785 0.0
C26 C 0.43516 0.35643 0.07488 0.0
C27 C 0.44636 0.29962 0.96906 0.0
C28 C 0.47578 0.36544 0.94986 0.0
O29 O 0.58379 0.51828 0.13094 0.0
C30 C 0.53615 0.5116 0.8442 0.0
O31 O 0.46266 0.47218 0.85129 0.0
H32 H 0.42499 0.36974 0.13765 0.0
H33 H 0.5061 0.38576 0.89354 0.0
N34 N 0.47494 0.55246 1.02596 0.0
N35 N 0.50683 0.65728 0.98958 0.0
C36 C 0.52525 0.61744 1.03549 0.0
C37 C 0.41937 0.55193 0.97582 0.0
C38 C 0.4387 0.61658 0.9535 0.0
C39 C 0.55246 0.52267 0.20086 0.0
O40 O 0.48293 0.51862 0.19947 0.0
H41 H 0.58159 0.63328 0.06336 0.0
H42 H 0.37442 0.50775 0.9471 0.0
O43 O 0.57866 0.52711 0.91077 0.0
H44 H 0.44576 0.25951 0.92849 0.0
H45 H 0.41018 0.63081 0.90647 0.0
Cu46 Cu 0.51501 0.95296 0.11193 0.0
N47 N 0.50816 1.00734 1.0314 0.0
N48 N 0.51567 0.03976 0.90226 0.0
C49 C 0.51339 0.99231 0.95111 0.0
C50 C 0.51062 0.08719 0.9525 0.0
C51 C 0.50545 0.06663 1.03319 0.0
O52 O 0.47005 0.86084 0.06112 0.0
C53 C 0.64816 0.05493 0.1835 0.0
O54 O 0.60253 0.08335 0.17914 0.0
H55 H 0.51542 0.94699 0.92903 0.0
H56 H 0.50083 0.09351 0.08864 0.0
N57 N 0.4556 0.94757 0.20475 0.0
N58 N 0.43142 0.98292 0.32749 0.0
C59 C 0.45138 0.99838 0.24824 0.0
C60 C 0.43468 0.89767 0.25763 0.0
C61 C 0.42013 0.91951 0.33391 0.0
C62 C 0.40883 0.83826 1.01571 0.0
O63 O 0.37905 0.87834 0.99858 0.0
H64 H 0.47067 0.04779 0.22551 0.0
H65 H 0.43859 0.85155 0.24432 0.0
O66 O 0.62397 0.99492 0.15358 0.0
H67 H 0.50952 0.13218 0.93241 0.0
H68 H 0.40892 0.89321 0.39101 0.0
Cu69 Cu 0.57479 0.11859 0.59295 0.0
N70 N 0.50037 0.08763 0.51012 0.0
N71 N 0.44433 0.02956 0.39406 0.0
C72 C 0.47461 0.02832 0.46826 0.0
C73 C 0.4523 0.09206 0.38819 0.0
C74 C 0.48589 0.12758 0.46065 0.0
O75 O 0.66449 0.1126 0.53634 0.0
C76 C 0.51271 0.19409 0.67278 0.0
O77 O 0.45545 0.13362 0.67049 0.0
H78 H 0.48596 0.98792 0.48706 0.0
H79 H 0.50688 0.1808 0.47213 0.0
N80 N 0.54304 0.06461 0.68407 0.0
N81 N 0.51788 0.03642 0.81517 0.0
C82 C 0.54891 0.08719 0.76412 0.0
C83 C 0.5067 0.99757 0.68581 0.0
C84 C 0.49348 0.98024 0.76711 0.0
C85 C 0.66558 0.05566 0.52529 0.0
O86 O 0.61132 1.00296 0.55743 0.0
H87 H 0.57642 0.13934 0.78455 0.0
H88 H 0.49079 0.96345 0.63212 0.0
O89 O 0.57602 0.20323 0.63721 0.0
H90 H 0.44208 0.11241 0.33267 0.0
H91 H 0.46992 0.93087 0.79014 0.0
Cu92 Cu 0.02714 0.57251 0.60276 0.0
N93 N 0.10679 0.61129 0.68077 0.0
N94 N 0.17061 0.62084 0.7979 0.0
C95 C 0.10106 0.60114 0.76243 0.0
C96 C 0.22268 0.64454 0.73742 0.0
C97 C 0.1829 0.63916 0.66477 0.0
O98 O 0.93519 0.50037 0.65192 0.0
C99 C 0.04598 0.70426 0.55598 0.0
O100 O 0.08763 0.72893 0.6239 0.0
H101 H 0.04707 0.57779 0.79442 0.0
H102 H 0.20739 0.65104 0.60358 0.0
N103 N 0.06533 0.53275 0.52385 0.0
N104 N 0.11716 0.52854 0.40211 0.0
C105 C 0.06346 0.54062 0.44213 0.0
C106 C 0.12119 0.51362 0.53523 0.0
C107 C 0.15463 0.51239 0.45975 0.0
C108 C 0.94582 0.45655 0.69071 0.0
O109 O 1.01627 0.46321 0.69699 0.0
H110 H 0.0303 0.56264 0.41423 0.0
H111 H 0.14193 0.50821 0.59508 0.0
O112 O 1.01156 0.64084 0.54216 0.0
H113 H 0.28413 0.66345 0.74525 0.0
H114 H 0.20524 0.5049 0.44875 0.0
Cu115 Cu 0.56765 0.48638 0.52663 0.0
N116 N 0.60224 0.51997 0.41591 0.0
N117 N 0.58746 0.52675 0.27642 0.0
C118 C 0.55842 0.52639 0.35433 0.0
C119 C 0.65244 0.52114 0.28893 0.0
C120 C 0.65998 0.51499 0.37292 0.0
O121 O 0.45738 0.42463 0.50563 0.0
C122 C 0.70907 0.4964 0.58305 0.0
O123 O 0.73471 0.54565 0.53272 0.0
H124 H 0.50247 0.52441 0.36554 0.0
H125 H 0.69986 0.49889 0.39769 0.0
N126 N 0.57058 0.53934 0.6253 0.0
N127 N 0.56372 0.5347 0.76679 0.0
C128 C 0.52754 0.50901 0.69218 0.0
C129 C 0.63543 0.58783 0.66051 0.0
C130 C 0.63154 0.58484 0.74671 0.0
C131 C 0.40919 0.44917 0.50535 0.0
O132 O 0.43435 0.51311 0.52451 0.0
H133 H 0.47483 0.4629 0.68588 0.0
H134 H 0.68646 0.61767 0.62611 0.0
O135 O 0.63763 0.45405 0.57646 0.0
H136 H 0.68789 0.51496 0.24027 0.0
H137 H 0.67642 0.61503 0.79072 0.0
Cu138 Cu 0.77902 0.94556 0.42973 0.0
N139 N 0.71385 0.91913 0.34083 0.0
N140 N 0.68822 0.90572 0.20694 0.0
C141 C 0.74078 0.9394 0.26559 0.0
C142 C 0.62442 0.86348 0.24627 0.0
C143 C 0.6407 0.87212 0.33036 0.0
O144 O 0.8803 0.96404 0.37985 0.0
C145 C 0.72072 0.04414 0.47073 0.0
O146 O 0.7137 0.04737 0.39061 0.0
H147 H 0.79954 0.97483 0.25402 0.0
H148 H 0.60409 0.84344 0.37942 0.0
N149 N 0.75664 0.87452 0.49578 0.0
N150 N 0.74852 0.82266 0.61167 0.0
C151 C 0.7727 0.88191 0.57717 0.0
C152 C 0.72093 0.80824 0.47786 0.0
C153 C 0.71512 0.77572 0.55029 0.0
C154 C 0.88686 0.91829 0.33346 0.0
O155 O 0.82654 0.86055 0.32026 0.0
H156 H 0.79828 0.92974 0.61116 0.0
H157 H 0.69835 0.7853 0.41734 0.0
O158 O 0.75382 1.01008 0.49711 0.0
H159 H 0.57221 0.82634 0.21654 0.0
H160 H 0.68488 0.72249 0.55829 0.0
Cu161 Cu 0.17977 0.86649 0.42232 0.0
N162 N 0.18133 0.8125 0.33395 0.0
N163 N 0.1871 0.79748 0.19821 0.0
C164 C 0.15415 0.81718 0.25963 0.0
C165 C 0.23327 0.77568 0.23491 0.0
C166 C 0.22972 0.78528 0.31962 0.0
O167 O 0.19501 0.95062 0.37337 0.0
C168 C 0.05701 0.74904 0.48644 0.0
O169 O 0.04687 0.72285 0.41034 0.0
H170 H 0.12128 0.84466 0.2505 0.0
H171 H 0.26724 0.78139 0.3659 0.0
N172 N 0.2655 0.89667 0.48999 0.0
N173 N 0.32543 0.8975 0.60631 0.0
C174 C 0.28307 0.85979 0.54122 0.0
C175 C 0.29752 0.95917 0.52472 0.0
C176 C 0.33379 0.95958 0.59748 0.0
C177 C 0.24544 0.97486 0.31589 0.0
O178 O 0.27877 0.94013 0.28339 0.0
H179 H 0.25647 0.80574 0.53753 0.0
H180 H 0.28701 0.99967 0.50429 0.0
O181 O 0.09703 0.81229 0.49841 0.0
H182 H 0.27418 0.76259 0.2029 0.0
H183 H 0.35825 1.00024 0.6437 0.0
Cu184 Cu 0.18988 0.31368 0.40059 0.0
N185 N 0.17531 0.37855 0.34786 0.0
N186 N 0.16697 0.4006 0.21614 0.0
C187 C 0.21042 0.39231 0.27427 0.0
C188 C 0.10384 0.39656 0.25596 0.0
C189 C 0.10925 0.38318 0.33784 0.0
O190 O 0.16801 0.24548 0.30952 0.0
C191 C 0.32594 0.40958 0.4835 0.0
O192 O 0.27935 0.4358 0.50345 0.0
H193 H 0.25772 0.38082 0.25912 0.0
H194 H 0.0626 0.36629 0.38176 0.0
N195 N 0.12381 0.27486 0.48867 0.0
N196 N 0.07361 0.25591 0.61536 0.0
C197 C 0.11589 0.30293 0.56159 0.0
C198 C 0.08481 0.20851 0.49728 0.0
C199 C 0.0556 0.19663 0.57598 0.0
C200 C 0.1067 0.20315 0.27117 0.0
O201 O 0.11308 0.16669 0.20843 0.0
H202 H 0.14385 0.35609 0.57621 0.0
H203 H 0.07914 0.171 0.45003 0.0
O204 O 0.29932 0.3552 0.43884 0.0
H205 H 0.05237 0.39224 0.22544 0.0
H206 H 0.02467 0.14834 0.60242 0.0
Cu207 Cu 0.14104 0.39307 0.88914 0.0
N208 N 0.0774 0.32019 0.82255 0.0
N209 N 0.0591 0.26613 0.69938 0.0
C210 C 0.08068 0.32562 0.73972 0.0
C211 C 0.03969 0.22092 0.75862 0.0
C212 C 0.05206 0.2547 0.8349 0.0
O213 O 0.23805 0.41899 0.82772 0.0
C214 C 0.03138 0.43581 0.94239 0.0
O215 O 0.99747 0.37467 0.96698 0.0
H216 H 0.10771 0.37312 0.71058 0.0
H217 H 0.05192 0.2338 0.89395 0.0
N218 N 0.15164 0.37026 0.9959 0.0
N219 N 0.16667 0.37955 0.13265 0.0
C220 C 0.15186 0.40557 0.06592 0.0
C221 C 0.16525 0.31969 1.02004 0.0
C222 C 0.17554 0.32581 0.10484 0.0
C223 C 0.28769 0.39859 0.84634 0.0
O224 O 0.29483 0.38617 0.92362 0.0
H225 H 0.14243 0.44963 0.06801 0.0
H226 H 0.16946 0.28213 0.97866 0.0
O227 O 0.09454 0.45507 0.90231 0.0
H228 H 0.02593 0.16876 0.74815 0.0
H229 H 0.18774 0.2932 0.14299 0.0
Cu230 Cu 0.6307 0.84031 0.89252 0.0
N231 N 0.68983 0.81727 0.82033 0.0
N232 N 0.73904 0.81304 0.69711 0.0
C233 C 0.71612 0.8485 0.74963 0.0
C234 C 0.7283 0.75786 0.736 0.0
C235 C 0.69779 0.76055 0.81289 0.0
O236 O 0.62184 0.9145 0.83953 0.0
C237 C 0.55775 0.72051 0.9703 0.0
O238 O 0.6287 0.74428 0.99844 0.0
H239 H 0.71012 0.89218 0.73312 0.0
H240 H 0.67713 0.72139 0.85673 0.0
N241 N 0.685 0.87654 0.98873 0.0
N242 N 0.70318 0.90531 0.12182 0.0
C243 C 0.65124 0.87223 0.06232 0.0
C244 C 0.76092 0.91417 1.00158 0.0
C245 C 0.77254 0.93243 0.08494 0.0
C246 C 0.65337 0.97451 0.87119 0.0
O247 O 0.66994 0.98487 0.95091 0.0
H248 H 0.5902 0.84435 0.07192 0.0
H249 H 0.80411 0.92744 0.9538 0.0
O250 O 0.54137 0.75557 0.92049 0.0
H251 H 0.73772 0.71742 0.70877 0.0
H252 H 0.82736 0.96174 0.11583 0.0
Cu253 Cu 0.2505 0.78549 0.89059 0.0
N254 N 0.3132 0.83448 0.80724 0.0
N255 N 0.33622 0.87273 0.68053 0.0
C256 C 0.30056 0.87228 0.75276 0.0
C257 C 0.37055 0.83299 0.68773 0.0
C258 C 0.35743 0.81043 0.76684 0.0
O259 O 0.1479 0.73074 0.83875 0.0
C260 C 0.37018 0.76727 0.9851 0.0
O261 O 0.39661 0.72685 1.01122 0.0
H262 H 0.25967 0.8924 0.7618 0.0
H263 H 0.37284 0.77367 0.79058 0.0
N264 N 0.22838 0.82393 0.98413 0.0
N265 N 0.19416 0.81758 0.11603 0.0
C266 C 0.21423 0.78889 1.05267 0.0
C267 C 0.21684 0.87771 1.0049 0.0
C268 C 0.19572 0.87399 0.08782 0.0
C269 C 0.10447 0.75865 0.82725 0.0
O270 O 0.13255 0.82319 0.84341 0.0
H271 H 0.22037 0.7437 1.05688 0.0
H272 H 0.22362 0.91656 0.96345 0.0
O273 O 0.3099 0.74264 0.93769 0.0
H274 H 0.39972 0.81931 0.63841 0.0
H275 H 0.18517 0.91056 0.12471 0.0
Cu276 Cu 0.35195 0.25909 0.74342 0.0
N277 N 0.33971 0.26286 0.63077 0.0
N278 N 0.30392 0.23412 0.49909 0.0
C279 C 0.28172 0.2236 0.57878 0.0
C280 C 0.37783 0.28032 0.50083 0.0
C281 C 0.39904 0.29881 0.58215 0.0
O282 O 0.43444 0.23077 0.75134 0.0
C283 C 0.31622 0.36686 0.78111 0.0
O284 O 0.28011 0.34938 0.70904 0.0
H285 H 0.22608 0.18699 0.59861 0.0
H286 H 0.45458 0.33554 0.60443 0.0
N287 N 0.26497 0.19158 0.78992 0.0
N288 N 0.18905 0.13511 0.89296 0.0
C289 C 0.24546 0.19401 0.86995 0.0
C290 C 0.21892 0.12904 0.76076 0.0
C291 C 0.17177 0.09401 0.82429 0.0
C292 C 0.49749 0.24823 0.71127 0.0
O293 O 0.53699 0.30979 0.68861 0.0
H294 H 0.27669 0.23668 0.9118 0.0
H295 H 0.22315 0.1088 0.69979 0.0
O296 O 0.35928 0.34019 0.80199 0.0
H297 H 0.41411 0.29924 0.4475 0.0
H298 H 0.1324 0.04132 0.8216 0.0
Cu299 Cu 0.8328 0.21634 0.77742 0.0
N300 N 0.7428 0.13394 0.7823 0.0
N301 N 0.67598 0.02804 0.82229 0.0
C302 C 0.71508 0.09341 0.84713 0.0
C303 C 0.67969 0.02677 0.73909 0.0
C304 C 0.72133 0.09145 0.71535 0.0
O305 O 0.88649 0.22826 0.88834 0.0
C306 C 0.86074 0.22418 0.59461 0.0
O307 O 0.82584 0.26248 0.59584 0.0
H308 H 0.73104 0.1095 0.91108 0.0
H309 H 0.74585 0.10545 0.6553 0.0
N310 N 0.82735 0.29722 0.76693 0.0
N311 N 0.88644 0.40133 0.72126 0.0
C312 C 0.89463 0.35177 0.75749 0.0
C313 C 0.77322 0.31357 0.73867 0.0
C314 C 0.80976 0.37829 0.71074 0.0
C315 C 0.85173 0.22999 0.95684 0.0
O316 O 0.78251 0.22636 0.95238 0.0
H317 H 0.94952 0.35184 0.76835 0.0
H318 H 0.7132 0.2788 0.72969 0.0
O319 O 0.87606 0.20537 0.66461 0.0
H320 H 0.66164 0.98203 0.69928 0.0
H321 H 0.78265 0.40306 0.67764 0.0
Cu322 Cu 0.87758 0.63592 0.73792 0.0
N323 N 0.82178 0.63287 0.8351 0.0
N324 N 0.78662 0.66785 0.95307 0.0
C325 C 0.81626 0.68428 0.87655 0.0
C326 C 0.77185 0.60351 0.95984 0.0
C327 C 0.79369 0.58219 0.88715 0.0
O328 O 0.98767 0.66512 0.76876 0.0
C329 C 0.75281 0.50974 0.66294 0.0
O330 O 0.71396 0.4968 0.73231 0.0
H331 H 0.83998 0.73427 0.85441 0.0
H332 H 0.79487 0.53474 0.87573 0.0
N333 N 0.87951 0.70131 0.66829 0.0
N334 N 0.87135 0.74127 0.54714 0.0
C335 C 0.86486 0.68786 0.58656 0.0
C336 C 0.8982 0.76697 0.67992 0.0
C337 C 0.89351 0.79201 0.60429 0.0
C338 C 0.02058 0.72139 0.80954 0.0
O339 O 0.97886 0.75153 0.83238 0.0
H340 H 0.85405 0.64106 0.55538 0.0
H341 H 0.91334 0.79501 0.73866 0.0
O342 O 0.82387 0.55354 0.66412 0.0
H343 H 0.75269 0.5757 1.01563 0.0
H344 H 0.90349 0.84237 0.59257 0.0
Cu345 Cu 0.91616 0.78947 0.22934 0.0
N346 N 0.84623 0.76794 0.14098 0.0
N347 N 0.79507 0.71354 1.02018 0.0
C348 C 0.81652 0.70869 0.09795 0.0
C349 C 0.81031 0.77808 1.01423 0.0
C350 C 0.84176 0.81147 0.089 0.0
O351 O 0.98007 0.74233 0.19666 0.0
C352 C 0.95865 0.93267 0.28694 0.0
O353 O 1.00932 0.9953 0.28318 0.0
H354 H 0.82063 0.6653 0.11874 0.0
H355 H 0.86872 0.86499 0.1007 0.0
N356 N 0.8674 0.75687 0.32854 0.0
N357 N 0.85204 0.74122 0.46351 0.0
C358 C 0.8996 0.77752 0.40456 0.0
C359 C 0.79718 0.70622 0.34029 0.0
C360 C 0.78819 0.69547 0.42411 0.0
C361 C 0.95217 0.6795 0.2079 0.0
O362 O 0.887 0.65056 0.24752 0.0
H363 H 0.95774 0.8159 0.41593 0.0
H364 H 0.75699 0.67747 0.29109 0.0
O365 O 0.97254 0.88812 0.24667 0.0
H366 H 0.80681 0.80082 0.95765 0.0
H367 H 0.7397 0.6566 0.45379 0.0
Cu368 Cu 0.27311 0.14473 0.19574 0.0
N369 N 0.23864 0.16474 0.29531 0.0
N370 N 0.26089 0.2011 0.42736 0.0
C371 C 0.28624 0.21262 0.34889 0.0
C372 C 0.19527 0.1438 0.42389 0.0
C373 C 0.18133 0.12155 0.3418 0.0
O374 O 0.28363 0.06389 0.22161 0.0
C375 C 0.38665 0.23372 0.08655 0.0
O376 O 0.3725 0.17786 1.04403 0.0
H377 H 0.34201 0.25057 0.33149 0.0
H378 H 0.14003 0.07275 0.31952 0.0
N379 N 0.19933 0.11735 0.11012 0.0
N380 N 0.16999 0.11574 0.97581 0.0
C381 C 0.20491 0.15414 1.04425 0.0
C382 C 0.15541 0.0536 0.0837 0.0
C383 C 0.13711 0.05239 1.00084 0.0
C384 C 0.27734 0.04535 0.29668 0.0
O385 O 0.30048 0.08964 0.35887 0.0
H386 H 0.24205 0.20712 1.04391 0.0
H387 H 0.14604 1.01062 0.11873 0.0
O388 O 0.35868 0.22961 0.15928 0.0
H389 H 0.16417 0.11679 0.47691 0.0
H390 H 0.11003 1.00803 0.96043 0.0
Cu391 Cu 0.87704 0.16248 0.25903 0.0
N392 N 0.87374 0.17548 0.37961 0.0
N393 N 0.87301 0.19957 0.51888 0.0
C394 C 0.86205 0.21497 0.43985 0.0
C395 C 0.89123 0.14879 0.50775 0.0
C396 C 0.89183 0.13459 0.42393 0.0
O397 O 0.97077 0.1514 0.25176 0.0
C398 C 0.72363 0.09565 0.22529 0.0
O399 O 0.73314 0.15162 0.26434 0.0
H400 H 0.84591 0.25392 0.42637 0.0
H401 H 0.90358 0.09526 0.39644 0.0
N402 N 0.89714 0.22565 0.17299 0.0
N403 N 0.88441 0.23499 1.03392 0.0
C404 C 0.84824 0.21828 0.10852 0.0
C405 C 0.96667 0.2512 0.13603 0.0
C406 C 0.95875 0.25451 1.05174 0.0
C407 C 0.02997 0.19605 0.2906 0.0
O408 O 0.02325 0.24245 0.3371 0.0
H409 H 0.78633 0.19346 0.11367 0.0
H410 H 1.0197 0.25952 0.16564 0.0
O411 O 0.7821 0.08425 0.21866 0.0
H412 H 0.89862 0.12075 0.55686 0.0
H413 H 1.00412 0.26858 1.00688 0.0
loop_
_geom_bond_atom_site_label_1
_geom_bond_atom_site_label_2
_geom_bond_distance
_geom_bond_site_symmetry_2
_ccdc_geom_bond_type
Cu0 N1 1.999 1_554 S
Cu0 O6 1.974 1_554 S
Cu0 N11 1.985 . S
Cu0 O20 1.959 . S
N1 Cu0 1.999 1_556 S
N1 C3 1.263 . S
N1 C5 1.389 . S
N2 C3 1.358 . S
N2 C4 1.400 . S
C3 N1 1.263 . S
C3 N2 1.358 . S
C3 H9 0.930 . S
C4 N2 1.400 . S
C4 C5 1.351 . S
C4 H21 0.930 . S
C5 N1 1.389 . S
C5 C4 1.351 . S
C5 H10 0.930 . S
O6 Cu0 1.974 1_556 S
O6 C16 1.282 . S
C7 O8 1.261 . S
C7 O20 1.251 1_655 S
O8 C7 1.261 . S
H9 C3 0.930 . S
H10 C5 0.930 . S
N11 Cu0 1.985 . S
N11 C13 1.335 . S
N11 C14 1.390 . S
N12 C13 1.345 . S
N12 C15 1.336 . S
C13 N11 1.335 . S
C13 N12 1.345 . S
C13 H18 0.930 . S
C14 N11 1.390 . S
C14 C15 1.346 . S
C14 H19 0.930 . S
C15 N12 1.336 . S
C15 C14 1.346 . S
C15 H22 0.929 . S
C16 O6 1.282 . S
C16 O17 1.216 . S
O17 C16 1.216 . S
H18 C13 0.930 . S
H19 C14 0.930 . S
O20 Cu0 1.959 . S
O20 C7 1.251 1_455 S
H21 C4 0.930 . S
H22 C15 0.929 . S
Cu23 N24 1.999 . S
Cu23 O29 1.974 . S
Cu23 N34 1.985 . S
Cu23 O43 1.959 1_554 S
N24 Cu23 1.999 . S
N24 C26 1.263 . S
N24 C28 1.389 1_554 S
N25 C26 1.358 . S
N25 C27 1.400 . S
C26 N24 1.263 . S
C26 N25 1.358 . S
C26 H32 0.930 . S
C27 N25 1.400 . S
C27 C28 1.351 1_554 S
C27 H44 0.930 1_554 S
C28 N24 1.389 1_556 S
C28 C27 1.351 1_556 S
C28 H33 0.930 . S
O29 Cu23 1.974 . S
O29 C39 1.282 . S
C30 O31 1.261 . S
C30 O43 1.251 . S
O31 C30 1.261 . S
H32 C26 0.930 . S
H33 C28 0.930 . S
N34 Cu23 1.985 . S
N34 C36 1.335 1_554 S
N34 C37 1.390 . S
N35 C36 1.345 . S
N35 C38 1.336 1_556 S
C36 N34 1.335 1_556 S
C36 N35 1.345 . S
C36 H41 0.930 . S
C37 N34 1.390 . S
C37 C38 1.346 . S
C37 H42 0.930 . S
C38 N35 1.336 1_554 S
C38 C37 1.346 . S
C38 H45 0.929 . S
C39 O29 1.282 . S
C39 O40 1.216 . S
O40 C39 1.216 . S
H41 C36 0.930 . S
H42 C37 0.930 . S
O43 Cu23 1.959 1_556 S
O43 C30 1.251 . S
H44 C27 0.930 1_556 S
H45 C38 0.929 . S
Cu46 N47 1.999 1_554 S
Cu46 O52 1.974 1_554 S
Cu46 N57 1.985 . S
Cu46 O66 1.959 1_565 S
N47 Cu46 1.999 1_556 S
N47 C49 1.263 . S
N47 C51 1.389 . S
N48 C49 1.357 . S
N48 C50 1.403 1_565 S
C49 N47 1.263 . S
C49 N48 1.357 . S
C49 H55 0.930 . S
C50 N48 1.403 1_545 S
C50 C51 1.351 1_545 S
C50 H67 0.930 . S
C51 N47 1.389 . S
C51 C50 1.351 1_565 S
C51 H56 0.930 . S
O52 Cu46 1.974 1_556 S
O52 C62 1.282 . S
C53 O54 1.261 . S
C53 O66 1.251 . S
O54 C53 1.261 . S
H55 C49 0.930 . S
H56 C51 0.930 . S
N57 Cu46 1.985 . S
N57 C59 1.335 . S
N57 C60 1.390 . S
N58 C59 1.345 . S
N58 C61 1.336 . S
C59 N57 1.335 . S
C59 N58 1.345 . S
C59 H64 0.930 . S
C60 N57 1.390 . S
C60 C61 1.346 . S
C60 H65 0.930 . S
C61 N58 1.336 . S
C61 C60 1.346 . S
C61 H68 0.929 . S
C62 O52 1.282 . S
C62 O63 1.227 . S
O63 C62 1.227 . S
H64 C59 0.930 . S
H65 C60 0.930 . S
O66 Cu46 1.959 1_545 S
O66 C53 1.251 . S
H67 C50 0.930 . S
H68 C61 0.929 . S
Cu69 N70 1.999 . S
Cu69 O75 1.974 1_545 S
Cu69 N80 1.981 1_545 S
Cu69 O89 1.959 . S
N70 Cu69 1.999 . S
N70 C72 1.263 . S
N70 C74 1.389 . S
N71 C72 1.358 . S
N71 C73 1.400 . S
C72 N70 1.263 . S
C72 N71 1.358 . S
C72 H78 0.930 1_545 S
C73 N71 1.400 . S
C73 C74 1.351 . S
C73 H90 0.930 . S
C74 N70 1.389 . S
C74 C73 1.351 . S
C74 H79 0.930 . S
O75 Cu69 1.974 1_565 S
O75 C85 1.282 . S
C76 O77 1.261 1_545 S
C76 O89 1.251 . S
O77 C76 1.261 1_565 S
H78 C72 0.930 1_565 S
H79 C74 0.930 . S
N80 Cu69 1.981 1_565 S
N80 C82 1.329 1_565 S
N80 C83 1.400 . S
N81 C82 1.345 1_565 S
N81 C84 1.336 . S
C82 N80 1.329 1_545 S
C82 N81 1.345 1_545 S
C82 H87 0.930 . S
C83 N80 1.400 . S
C83 C84 1.346 . S
C83 H88 0.930 . S
C84 N81 1.336 . S
C84 C83 1.346 . S
C84 H91 0.929 . S
C85 O75 1.282 . S
C85 O86 1.216 . S
O86 C85 1.216 . S
H87 C82 0.930 . S
H88 C83 0.930 . S
O89 Cu69 1.959 . S
O89 C76 1.251 . S
H90 C73 0.930 . S
H91 C84 0.929 . S
Cu92 N93 1.999 . S
Cu92 O98 1.974 1_455 S
Cu92 N103 1.985 . S
Cu92 O112 1.959 . S
N93 Cu92 1.999 . S
N93 C95 1.263 . S
N93 C97 1.389 . S
N94 C95 1.358 . S
N94 C96 1.400 . S
C95 N93 1.263 . S
C95 N94 1.358 . S
C95 H101 0.930 . S
C96 N94 1.400 . S
C96 C97 1.351 . S
C96 H113 0.930 . S
C97 N93 1.389 . S
C97 C96 1.351 . S
C97 H102 0.930 . S
O98 Cu92 1.974 1_655 S
O98 C108 1.282 1_655 S
C99 O100 1.261 . S
C99 O112 1.251 . S
O100 C99 1.261 . S
H101 C95 0.930 . S
H102 C97 0.930 . S
N103 Cu92 1.985 . S
N103 C105 1.335 . S
N103 C106 1.390 . S
N104 C105 1.345 . S
N104 C107 1.336 . S
C105 N103 1.335 . S
C105 N104 1.345 . S
C105 H110 0.930 . S
C106 N103 1.390 . S
C106 C107 1.346 . S
C106 H111 0.930 . S
C107 N104 1.336 . S
C107 C106 1.346 . S
C107 H114 0.929 . S
C108 O98 1.282 1_455 S
C108 O109 1.216 . S
O109 C108 1.216 . S
H110 C105 0.930 . S
H111 C106 0.930 . S
O112 Cu92 1.959 . S
O112 C99 1.251 . S
H113 C96 0.930 . S
H114 C107 0.929 . S
Cu115 N116 1.999 . S
Cu115 O121 1.974 . S
Cu115 N126 1.985 . S
Cu115 O135 1.959 . S
N116 Cu115 1.999 . S
N116 C118 1.263 . S
N116 C120 1.389 . S
N117 C118 1.358 . S
N117 C119 1.400 . S
C118 N116 1.263 . S
C118 N117 1.358 . S
C118 H124 0.930 . S
C119 N117 1.400 . S
C119 C120 1.351 . S
C119 H136 0.930 . S
C120 N116 1.389 . S
C120 C119 1.351 . S
C120 H125 0.930 . S
O121 Cu115 1.974 . S
O121 C131 1.282 . S
C122 O123 1.261 . S
C122 O135 1.251 . S
O123 C122 1.261 . S
H124 C118 0.930 . S
H125 C120 0.930 . S
N126 Cu115 1.985 . S
N126 C128 1.335 . S
N126 C129 1.390 . S
N127 C128 1.345 . S
N127 C130 1.336 . S
C128 N126 1.335 . S
C128 N127 1.345 . S
C128 H133 0.930 . S
C129 N126 1.390 . S
C129 C130 1.346 . S
C129 H134 0.930 . S
C130 N127 1.336 . S
C130 C129 1.346 . S
C130 H137 0.929 . S
C131 O121 1.282 . S
C131 O132 1.216 . S
O132 C131 1.216 . S
H133 C128 0.930 . S
H134 C129 0.930 . S
O135 Cu115 1.959 . S
O135 C122 1.251 . S
H136 C119 0.930 . S
H137 C130 0.929 . S
Cu138 N139 1.999 . S
Cu138 O144 1.974 . S
Cu138 N149 1.985 . S
Cu138 O158 1.959 . S
N139 Cu138 1.999 . S
N139 C141 1.263 . S
N139 C143 1.389 . S
N140 C141 1.358 . S
N140 C142 1.400 . S
C141 N139 1.263 . S
C141 N140 1.358 . S
C141 H147 0.930 . S
C142 N140 1.400 . S
C142 C143 1.351 . S
C142 H159 0.930 . S
C143 N139 1.389 . S
C143 C142 1.351 . S
C143 H148 0.930 . S
O144 Cu138 1.974 . S
O144 C154 1.282 . S
C145 O146 1.261 . S
C145 O158 1.251 . S
O146 C145 1.261 . S
H147 C141 0.930 . S
H148 C143 0.930 . S
N149 Cu138 1.985 . S
N149 C151 1.335 . S
N149 C152 1.390 . S
N150 C151 1.345 . S
N150 C153 1.336 . S
C151 N149 1.335 . S
C151 N150 1.345 . S
C151 H156 0.930 . S
C152 N149 1.390 . S
C152 C153 1.346 . S
C152 H157 0.930 . S
C153 N150 1.336 . S
C153 C152 1.346 . S
C153 H160 0.929 . S
C154 O144 1.282 . S
C154 O155 1.216 . S
O155 C154 1.216 . S
H156 C151 0.930 . S
H157 C152 0.930 . S
O158 Cu138 1.959 . S
O158 C145 1.251 . S
H159 C142 0.930 . S
H160 C153 0.929 . S
Cu161 N162 1.999 . S
Cu161 O167 1.974 . S
Cu161 N172 1.985 . S
Cu161 O181 1.959 . S
N162 Cu161 1.999 . S
N162 C164 1.263 . S
N162 C166 1.389 . S
N163 C164 1.358 . S
N163 C165 1.400 . S
C164 N162 1.263 . S
C164 N163 1.358 . S
C164 H170 0.930 . S
C165 N163 1.400 . S
C165 C166 1.351 . S
C165 H182 0.930 . S
C166 N162 1.389 . S
C166 C165 1.351 . S
C166 H171 0.930 . S
O167 Cu161 1.974 . S
O167 C177 1.282 . S
C168 O169 1.261 . S
C168 O181 1.251 . S
O169 C168 1.261 . S
H170 C164 0.930 . S
H171 C166 0.930 . S
N172 Cu161 1.985 . S
N172 C174 1.335 . S
N172 C175 1.390 . S
N173 C174 1.345 . S
N173 C176 1.336 . S
C174 N172 1.335 . S
C174 N173 1.345 . S
C174 H179 0.930 . S
C175 N172 1.390 . S
C175 C176 1.346 . S
C175 H180 0.930 . S
C176 N173 1.336 . S
C176 C175 1.346 . S
C176 H183 0.929 . S
C177 O167 1.282 . S
C177 O178 1.216 . S
O178 C177 1.216 . S
H179 C174 0.930 . S
H180 C175 0.930 . S
O181 Cu161 1.959 . S
O181 C168 1.251 . S
H182 C165 0.930 . S
H183 C176 0.929 . S
Cu184 N185 1.999 . S
Cu184 O190 1.974 . S
Cu184 N195 1.985 . S
Cu184 O204 1.959 . S
N185 Cu184 1.999 . S
N185 C187 1.263 . S
N185 C189 1.389 . S
N186 C187 1.358 . S
N186 C188 1.400 . S
C187 N185 1.263 . S
C187 N186 1.358 . S
C187 H193 0.930 . S
C188 N186 1.400 . S
C188 C189 1.351 . S
C188 H205 0.930 . S
C189 N185 1.389 . S
C189 C188 1.351 . S
C189 H194 0.930 . S
O190 Cu184 1.974 . S
O190 C200 1.282 . S
C191 O192 1.261 . S
C191 O204 1.251 . S
O192 C191 1.261 . S
H193 C187 0.930 . S
H194 C189 0.930 . S
N195 Cu184 1.985 . S
N195 C197 1.335 . S
N195 C198 1.390 . S
N196 C197 1.345 . S
N196 C199 1.336 . S
C197 N195 1.335 . S
C197 N196 1.345 . S
C197 H202 0.930 . S
C198 N195 1.390 . S
C198 C199 1.346 . S
C198 H203 0.930 . S
C199 N196 1.336 . S
C199 C198 1.346 . S
C199 H206 0.929 . S
C200 O190 1.282 . S
C200 O201 1.216 . S
O201 C200 1.216 . S
H202 C197 0.930 . S
H203 C198 0.930 . S
O204 Cu184 1.959 . S
O204 C191 1.251 . S
H205 C188 0.930 . S
H206 C199 0.929 . S
Cu207 N208 1.999 . S
Cu207 O213 1.974 . S
Cu207 N218 1.985 . S
Cu207 O227 1.959 . S
N208 Cu207 1.999 . S
N208 C210 1.263 . S
N208 C212 1.389 . S
N209 C210 1.358 . S
N209 C211 1.400 . S
C210 N208 1.263 . S
C210 N209 1.358 . S
C210 H216 0.930 . S
C211 N209 1.400 . S
C211 C212 1.351 . S
C211 H228 0.930 . S
C212 N208 1.389 . S
C212 C211 1.351 . S
C212 H217 0.930 . S
O213 Cu207 1.974 . S
O213 C223 1.282 . S
C214 O215 1.261 . S
C214 O227 1.251 . S
O215 C214 1.261 . S
H216 C210 0.930 . S
H217 C212 0.930 . S
N218 Cu207 1.985 . S
N218 C220 1.335 1_556 S
N218 C221 1.390 . S
N219 C220 1.345 . S
N219 C222 1.336 . S
C220 N218 1.335 1_554 S
C220 N219 1.345 . S
C220 H225 0.930 . S
C221 N218 1.390 . S
C221 C222 1.346 1_556 S
C221 H226 0.930 . S
C222 N219 1.336 . S
C222 C221 1.346 1_554 S
C222 H229 0.929 . S
C223 O213 1.282 . S
C223 O224 1.216 . S
O224 C223 1.216 . S
H225 C220 0.930 . S
H226 C221 0.930 . S
O227 Cu207 1.959 . S
O227 C214 1.251 . S
H228 C211 0.930 . S
H229 C222 0.929 . S
Cu230 N231 1.999 . S
Cu230 O236 1.974 . S
Cu230 N241 1.985 . S
Cu230 O250 1.959 . S
N231 Cu230 1.999 . S
N231 C233 1.263 . S
N231 C235 1.389 . S
N232 C233 1.358 . S
N232 C234 1.400 . S
C233 N231 1.263 . S
C233 N232 1.358 . S
C233 H239 0.930 . S
C234 N232 1.400 . S
C234 C235 1.351 . S
C234 H251 0.930 . S
C235 N231 1.389 . S
C235 C234 1.351 . S
C235 H240 0.930 . S
O236 Cu230 1.974 . S
O236 C246 1.282 . S
C237 O238 1.261 . S
C237 O250 1.251 . S
O238 C237 1.261 . S
H239 C233 0.930 . S
H240 C235 0.930 . S
N241 Cu230 1.985 . S
N241 C243 1.335 1_556 S
N241 C244 1.390 . S
N242 C243 1.345 . S
N242 C245 1.336 . S
C243 N241 1.335 1_554 S
C243 N242 1.345 . S
C243 H248 0.930 . S
C244 N241 1.390 . S
C244 C245 1.346 1_556 S
C244 H249 0.930 . S
C245 N242 1.336 . S
C245 C244 1.346 1_554 S
C245 H252 0.929 . S
C246 O236 1.282 . S
C246 O247 1.216 . S
O247 C246 1.216 . S
H248 C243 0.930 . S
H249 C244 0.930 . S
O250 Cu230 1.959 . S
O250 C237 1.251 . S
H251 C234 0.930 . S
H252 C245 0.929 . S
Cu253 N254 1.999 . S
Cu253 O259 1.974 . S
Cu253 N264 1.985 . S
Cu253 O273 1.959 . S
N254 Cu253 1.999 . S
N254 C256 1.263 . S
N254 C258 1.389 . S
N255 C256 1.358 . S
N255 C257 1.400 . S
C256 N254 1.263 . S
C256 N255 1.358 . S
C256 H262 0.930 . S
C257 N255 1.400 . S
C257 C258 1.351 . S
C257 H274 0.930 . S
C258 N254 1.389 . S
C258 C257 1.351 . S
C258 H263 0.930 . S
O259 Cu253 1.974 . S
O259 C269 1.282 . S
C260 O261 1.261 . S
C260 O273 1.251 . S
O261 C260 1.261 . S
H262 C256 0.930 . S
H263 C258 0.930 . S
N264 Cu253 1.985 . S
N264 C266 1.335 1_556 S
N264 C267 1.390 . S
N265 C266 1.345 . S
N265 C268 1.336 . S
C266 N264 1.335 1_554 S
C266 N265 1.345 . S
C266 H271 0.930 . S
C267 N264 1.390 . S
C267 C268 1.346 1_556 S
C267 H272 0.930 . S
C268 N265 1.336 . S
C268 C267 1.346 1_554 S
C268 H275 0.929 . S
C269 O259 1.282 . S
C269 O270 1.216 . S
O270 C269 1.216 . S
H271 C266 0.930 . S
H272 C267 0.930 . S
O273 Cu253 1.959 . S
O273 C260 1.251 . S
H274 C257 0.930 . S
H275 C268 0.929 . S
Cu276 N277 1.999 . S
Cu276 O282 1.974 . S
Cu276 N287 1.985 . S
Cu276 O296 1.959 . S
N277 Cu276 1.999 . S
N277 C279 1.263 . S
N277 C281 1.389 . S
N278 C279 1.358 . S
N278 C280 1.400 . S
C279 N277 1.263 . S
C279 N278 1.358 . S
C279 H285 0.930 . S
C280 N278 1.400 . S
C280 C281 1.351 . S
C280 H297 0.930 . S
C281 N277 1.389 . S
C281 C280 1.351 . S
C281 H286 0.930 . S
O282 Cu276 1.974 . S
O282 C292 1.282 . S
C283 O284 1.261 . S
C283 O296 1.251 . S
O284 C283 1.261 . S
H285 C279 0.930 . S
H286 C281 0.930 . S
N287 Cu276 1.985 . S
N287 C289 1.335 . S
N287 C290 1.390 . S
N288 C289 1.345 . S
N288 C291 1.336 . S
C289 N287 1.335 . S
C289 N288 1.345 . S
C289 H294 0.930 . S
C290 N287 1.390 . S
C290 C291 1.346 . S
C290 H295 0.930 . S
C291 N288 1.336 . S
C291 C290 1.346 . S
C291 H298 0.929 . S
C292 O282 1.282 . S
C292 O293 1.216 . S
O293 C292 1.216 . S
H294 C289 0.930 . S
H295 C290 0.930 . S
O296 Cu276 1.959 . S
O296 C283 1.251 . S
H297 C280 0.930 . S
H298 C291 0.929 . S
Cu299 N300 1.999 . S
Cu299 O305 1.974 . S
Cu299 N310 1.985 . S
Cu299 O319 1.959 . S
N300 Cu299 1.999 . S
N300 C302 1.263 . S
N300 C304 1.389 . S
N301 C302 1.358 . S
N301 C303 1.400 1_545 S
C302 N300 1.263 . S
C302 N301 1.358 . S
C302 H308 0.930 . S
C303 N301 1.400 1_565 S
C303 C304 1.351 1_565 S
C303 H320 0.930 . S
C304 N300 1.389 . S
C304 C303 1.351 1_545 S
C304 H309 0.930 . S
O305 Cu299 1.974 . S
O305 C315 1.282 . S
C306 O307 1.261 . S
C306 O319 1.251 . S
O307 C306 1.261 . S
H308 C302 0.930 . S
H309 C304 0.930 . S
N310 Cu299 1.985 . S
N310 C312 1.335 . S
N310 C313 1.390 . S
N311 C312 1.345 . S
N311 C314 1.336 . S
C312 N310 1.335 . S
C312 N311 1.345 . S
C312 H317 0.930 . S
C313 N310 1.390 . S
C313 C314 1.346 . S
C313 H318 0.930 . S
C314 N311 1.336 . S
C314 C313 1.346 . S
C314 H321 0.929 . S
C315 O305 1.282 . S
C315 O316 1.216 . S
O316 C315 1.216 . S
H317 C312 0.930 . S
H318 C313 0.930 . S
O319 Cu299 1.959 . S
O319 C306 1.251 . S
H320 C303 0.930 . S
H321 C314 0.929 . S
Cu322 N323 1.999 . S
Cu322 O328 1.974 . S
Cu322 N333 1.985 . S
Cu322 O342 1.959 . S
N323 Cu322 1.999 . S
N323 C325 1.263 . S
N323 C327 1.389 . S
N324 C325 1.358 . S
N324 C326 1.400 . S
C325 N323 1.263 . S
C325 N324 1.358 . S
C325 H331 0.930 . S
C326 N324 1.400 . S
C326 C327 1.351 . S
C326 H343 0.930 . S
C327 N323 1.389 . S
C327 C326 1.351 . S
C327 H332 0.930 . S
O328 Cu322 1.974 . S
O328 C338 1.282 . S
C329 O330 1.261 . S
C329 O342 1.251 . S
O330 C329 1.261 . S
H331 C325 0.930 . S
H332 C327 0.930 . S
N333 Cu322 1.985 . S
N333 C335 1.335 . S
N333 C336 1.390 . S
N334 C335 1.345 . S
N334 C337 1.336 . S
C335 N333 1.335 . S
C335 N334 1.345 . S
C335 H340 0.930 . S
C336 N333 1.390 . S
C336 C337 1.346 . S
C336 H341 0.930 . S
C337 N334 1.336 . S
C337 C336 1.346 . S
C337 H344 0.929 . S
C338 O328 1.282 . S
C338 O339 1.216 . S
O339 C338 1.216 . S
H340 C335 0.930 . S
H341 C336 0.930 . S
O342 Cu322 1.959 . S
O342 C329 1.251 . S
H343 C326 0.930 . S
H344 C337 0.929 . S
Cu345 N346 1.999 . S
Cu345 O351 1.974 . S
Cu345 N356 1.985 . S
Cu345 O365 1.959 . S
N346 Cu345 1.999 . S
N346 C348 1.263 . S
N346 C350 1.389 . S
N347 C348 1.358 1_556 S
N347 C349 1.400 . S
C348 N346 1.263 . S
C348 N347 1.358 1_554 S
C348 H354 0.930 . S
C349 N347 1.400 . S
C349 C350 1.351 1_556 S
C349 H366 0.930 . S
C350 N346 1.389 . S
C350 C349 1.351 1_554 S
C350 H355 0.930 . S
O351 Cu345 1.974 . S
O351 C361 1.282 . S
C352 O353 1.261 . S
C352 O365 1.251 . S
O353 C352 1.261 . S
H354 C348 0.930 . S
H355 C350 0.930 . S
N356 Cu345 1.985 . S
N356 C358 1.335 . S
N356 C359 1.390 . S
N357 C358 1.345 . S
N357 C360 1.336 . S
C358 N356 1.335 . S
C358 N357 1.345 . S
C358 H363 0.930 . S
C359 N356 1.390 . S
C359 C360 1.346 . S
C359 H364 0.930 . S
C360 N357 1.336 . S
C360 C359 1.346 . S
C360 H367 0.929 . S
C361 O351 1.282 . S
C361 O362 1.216 . S
O362 C361 1.216 . S
H363 C358 0.930 . S
H364 C359 0.930 . S
O365 Cu345 1.959 . S
O365 C352 1.251 . S
H366 C349 0.930 . S
H367 C360 0.929 . S
Cu368 N369 1.999 . S
Cu368 O374 1.974 . S
Cu368 N379 1.985 . S
Cu368 O388 1.959 . S
N369 Cu368 1.999 . S
N369 C371 1.263 . S
N369 C373 1.389 . S
N370 C371 1.358 . S
N370 C372 1.400 . S
C371 N369 1.263 . S
C371 N370 1.358 . S
C371 H377 0.930 . S
C372 N370 1.400 . S
C372 C373 1.351 . S
C372 H389 0.930 . S
C373 N369 1.389 . S
C373 C372 1.351 . S
C373 H378 0.930 . S
O374 Cu368 1.974 . S
O374 C384 1.282 . S
C375 O376 1.261 . S
C375 O388 1.251 . S
O376 C375 1.261 . S
H377 C371 0.930 . S
H378 C373 0.930 . S
N379 Cu368 1.985 . S
N379 C381 1.335 . S
N379 C382 1.390 . S
N380 C381 1.345 1_556 S
N380 C383 1.336 . S
C381 N379 1.335 . S
C381 N380 1.345 1_554 S
C381 H386 0.930 . S
C382 N379 1.390 . S
C382 C383 1.346 1_554 S
C382 H387 0.930 . S
C383 N380 1.336 . S
C383 C382 1.346 1_556 S
C383 H390 0.929 . S
C384 O374 1.282 . S
C384 O385 1.216 . S
O385 C384 1.216 . S
H386 C381 0.930 . S
H387 C382 0.930 . S
O388 Cu368 1.959 . S
O388 C375 1.251 . S
H389 C372 0.930 . S
H390 C383 0.929 . S
Cu391 N392 1.999 . S
Cu391 O397 1.974 . S
Cu391 N402 1.985 . S
Cu391 O411 1.959 . S
N392 Cu391 1.999 . S
N392 C394 1.263 . S
N392 C396 1.389 . S
N393 C394 1.358 . S
N393 C395 1.400 . S
C394 N392 1.263 . S
C394 N393 1.358 . S
C394 H400 0.930 . S
C395 N393 1.400 . S
C395 C396 1.351 . S
C395 H412 0.930 . S
C396 N392 1.389 . S
C396 C395 1.351 . S
C396 H401 0.930 . S
O397 Cu391 1.974 . S
O397 C407 1.282 . S
C398 O399 1.261 . S
C398 O411 1.251 . S
O399 C398 1.261 . S
H400 C394 0.930 . S
H401 C396 0.930 . S
N402 Cu391 1.985 . S
N402 C404 1.335 . S
N402 C405 1.390 . S
N403 C404 1.345 1_556 S
N403 C406 1.336 . S
C404 N402 1.335 . S
C404 N403 1.345 1_554 S
C404 H409 0.930 . S
C405 N402 1.390 . S
C405 C406 1.346 1_554 S
C405 H410 0.930 . S
C406 N403 1.336 . S
C406 C405 1.346 1_556 S
C406 H413 0.929 . S
C407 O397 1.282 . S
C407 O408 1.216 . S
O408 C407 1.216 . S
H409 C404 0.930 . S
H410 C405 0.930 . S
O411 Cu391 1.959 . S
O411 C398 1.251 . S
H412 C395 0.930 . S
H413 C406 0.929 . S
N104 N12 1.644 . S
N117 C39 2.726 . S
N58 N71 1.757 1_565 S
N94 N2 1.133 . S
N127 C30 2.406 . S
N48 N81 0.932 . S
N232 N150 1.636 . S
N255 N173 1.764 . S
N196 N209 1.821 . S
N140 N242 0.930 . S
N265 N163 0.923 . S
N219 N186 0.927 . S
N380 N288 1.644 . S
C315 N403 2.630 . S
N347 N324 1.800 . S
N370 N278 1.184 . S
N393 C306 2.480 . S
N334 N357 1.018 . S
C16 C214 1.684 . S
C237 N35 1.774 . S
C260 C62 1.653 . S
C76 C292 1.935 . S
N311 C108 1.851 1_655 S
C329 C122 1.773 . S
C361 C7 2.017 . S
C375 N25 2.021 . S
C398 C53 1.719 . S
C85 C145 1.687 . S
C99 C168 1.784 . S
C191 C131 1.680 . S
C352 C154 1.757 . S
C384 C177 1.777 1_545 S
C200 C407 1.682 1_455 S
C283 C223 1.784 . S
N301 C246 1.658 1_545 S
C269 C338 1.714 1_455 S
