# Generated by pormake.
# Topology usf, (4)-cn, num edge types: 1
# Building blocks:
#     Node 0, Type 0, BuildingBlock: KOZSID_clean_sbu_0, # of connection points: 4
#     Node 1, Type 0, BuildingBlock: KOZSID_clean_sbu_0, # of connection points: 4
#     Node 2, Type 0, BuildingBlock: KOZSID_clean_sbu_0, # of connection points: 4
#     Node 3, Type 0, BuildingBlock: KOZSID_clean_sbu_0, # of connection points: 4
#     Node 4, Type 0, BuildingBlock: KOZSID_clean_sbu_0, # of connection points: 4
#     Node 5, Type 0, BuildingBlock: KOZSID_clean_sbu_0, # of connection points: 4
#     Node 6, Type 0, BuildingBlock: KOZSID_clean_sbu_0, # of connection points: 4
#     Node 7, Type 0, BuildingBlock: KOZSID_clean_sbu_0, # of connection points: 4
#     Node 8, Type 0, BuildingBlock: KOZSID_clean_sbu_0, # of connection points: 4
#     Node 9, Type 0, BuildingBlock: KOZSID_clean_sbu_0, # of connection points: 4
#     Node 10, Type 0, BuildingBlock: KOZSID_clean_sbu_0, # of connection points: 4
#     Node 11, Type 0, BuildingBlock: KOZSID_clean_sbu_0, # of connection points: 4
#     Node 12, Type 0, BuildingBlock: KOZSID_clean_sbu_0, # of connection points: 4
#     Node 13, Type 0, BuildingBlock: KOZSID_clean_sbu_0, # of connection points: 4
#     Node 14, Type 0, BuildingBlock: KOZSID_clean_sbu_0, # of connection points: 4
#     Node 15, Type 0, BuildingBlock: KOZSID_clean_sbu_0, # of connection points: 4
#     Node 16, Type 0, BuildingBlock: KOZSID_clean_sbu_0, # of connection points: 4
#     Node 17, Type 0, BuildingBlock: KOZSID_clean_sbu_0, # of connection points: 4
#     Edge 18, Type (0, 0), BuildingBlock: AJUNOK_clean_linker_0, # of connection points: 2
#     Edge 19, Type (0, 0), BuildingBlock: AJUNOK_clean_linker_0, # of connection points: 2
#     Edge 20, Type (0, 0), BuildingBlock: AJUNOK_clean_linker_0, # of connection points: 2
#     Edge 21, Type (0, 0), BuildingBlock: AJUNOK_clean_linker_0, # of connection points: 2
#     Edge 22, Type (0, 0), BuildingBlock: AJUNOK_clean_linker_0, # of connection points: 2
#     Edge 23, Type (0, 0), BuildingBlock: AJUNOK_clean_linker_0, # of connection points: 2
#     Edge 24, Type (0, 0), BuildingBlock: AJUNOK_clean_linker_0, # of connection points: 2
#     Edge 25, Type (0, 0), BuildingBlock: AJUNOK_clean_linker_0, # of connection points: 2
#     Edge 26, Type (0, 0), BuildingBlock: AJUNOK_clean_linker_0, # of connection points: 2
#     Edge 27, Type (0, 0), BuildingBlock: AJUNOK_clean_linker_0, # of connection points: 2
#     Edge 28, Type (0, 0), BuildingBlock: AJUNOK_clean_linker_0, # of connection points: 2
#     Edge 29, Type (0, 0), BuildingBlock: AJUNOK_clean_linker_0, # of connection points: 2
#     Edge 30, Type (0, 0), BuildingBlock: AJUNOK_clean_linker_0, # of connection points: 2
#     Edge 31, Type (0, 0), BuildingBlock: AJUNOK_clean_linker_0, # of connection points: 2
#     Edge 32, Type (0, 0), BuildingBlock: AJUNOK_clean_linker_0, # of connection points: 2
#     Edge 33, Type (0, 0), BuildingBlock: AJUNOK_clean_linker_0, # of connection points: 2
#     Edge 34, Type (0, 0), BuildingBlock: AJUNOK_clean_linker_0, # of connection points: 2
#     Edge 35, Type (0, 0), BuildingBlock: AJUNOK_clean_linker_0, # of connection points: 2
#     Edge 36, Type (0, 0), BuildingBlock: AJUNOK_clean_linker_0, # of connection points: 2
#     Edge 37, Type (0, 0), BuildingBlock: AJUNOK_clean_linker_0, # of connection points: 2
#     Edge 38, Type (0, 0), BuildingBlock: AJUNOK_clean_linker_0, # of connection points: 2
#     Edge 39, Type (0, 0), BuildingBlock: AJUNOK_clean_linker_0, # of connection points: 2
#     Edge 40, Type (0, 0), BuildingBlock: AJUNOK_clean_linker_0, # of connection points: 2
#     Edge 41, Type (0, 0), BuildingBlock: AJUNOK_clean_linker_0, # of connection points: 2
#     Edge 42, Type (0, 0), BuildingBlock: AJUNOK_clean_linker_0, # of connection points: 2
#     Edge 43, Type (0, 0), BuildingBlock: AJUNOK_clean_linker_0, # of connection points: 2
#     Edge 44, Type (0, 0), BuildingBlock: AJUNOK_clean_linker_0, # of connection points: 2
#     Edge 45, Type (0, 0), BuildingBlock: AJUNOK_clean_linker_0, # of connection points: 2
#     Edge 46, Type (0, 0), BuildingBlock: AJUNOK_clean_linker_0, # of connection points: 2
#     Edge 47, Type (0, 0), BuildingBlock: AJUNOK_clean_linker_0, # of connection points: 2
#     Edge 48, Type (0, 0), BuildingBlock: AJUNOK_clean_linker_0, # of connection points: 2
#     Edge 49, Type (0, 0), BuildingBlock: AJUNOK_clean_linker_0, # of connection points: 2
#     Edge 50, Type (0, 0), BuildingBlock: AJUNOK_clean_linker_0, # of connection points: 2
#     Edge 51, Type (0, 0), BuildingBlock: AJUNOK_clean_linker_0, # of connection points: 2
#     Edge 52, Type (0, 0), BuildingBlock: AJUNOK_clean_linker_0, # of connection points: 2
#     Edge 53, Type (0, 0), BuildingBlock: AJUNOK_clean_linker_0, # of connection points: 2
# Relax obj value: 0.022
# Max RMSD: 0.063
# Mean RMSD: 0.031
data_MOF--net-usf--node1-KOZSID_clean_sbu_0--edge1-AJUNOK_clean_linker_0
_symmetry_space_group_name_H-M    P1
_symmetry_Int_Tables_number       1
_symmetry_cell_setting            triclinic
loop_
_symmetry_equiv_pos_as_xyz
'x, y, z'
_cell_length_a     47.971749
_cell_length_b     48.160025
_cell_length_c     26.440228
_cell_angle_alpha  90.164292
_cell_angle_beta   89.429704
_cell_angle_gamma 115.36275
loop_
_atom_site_label
_atom_site_type_symbol
_atom_site_fract_x
_atom_site_fract_y
_atom_site_fract_z
_atom_type_partial_charge
C0 C 1.00448 0.48276 0.13888 0.0
C1 C 0.97884 0.45942 0.16112 0.0
C2 C 0.95735 0.44706 0.12403 0.0
C3 C 0.97079 0.46343 0.08113 0.0
N4 N 0.99975 0.48508 0.08814 0.0
Co5 Co 0.02521 0.515 0.03436 0.0
N6 N 0.99647 0.49243 0.97822 0.0
C7 C 0.96763 0.47046 0.98513 0.0
C8 C 0.95258 0.45871 0.94072 0.0
C9 C 0.97317 0.47423 0.9031 0.0
C10 C 0.99987 0.4946 0.9266 0.0
N11 N 0.0505 0.54459 0.98033 0.0
C12 C 0.05004 0.54226 0.9285 0.0
C13 C 0.07379 0.56782 0.90708 0.0
C14 C 0.08892 0.58702 0.94604 0.0
C15 C 0.07403 0.57213 0.98932 0.0
N16 N 0.05394 0.53775 0.09064 0.0
C17 C 0.07723 0.56603 0.08579 0.0
C18 C 0.09329 0.57692 0.12966 0.0
C19 C 0.07889 0.55448 0.16504 0.0
C20 C 0.05441 0.53111 0.14108 0.0
N21 N 0.04882 0.49053 0.02179 0.0
C22 C 0.08273 0.45776 0.98994 0.0
C23 C 0.09752 0.48911 1.00176 0.0
C24 C 0.08031 0.50491 0.01758 0.0
C25 C 0.05055 0.44289 0.99683 0.0
C26 C 0.03412 0.4596 1.01276 0.0
N27 N 1.00189 0.54004 0.04648 0.0
C28 C 0.97867 0.57276 1.01613 0.0
C29 C 0.97319 0.57972 0.06587 0.0
C30 C 0.98127 0.56531 0.10527 0.0
C31 C 0.99542 0.54582 0.09492 0.0
C32 C 0.99309 0.55303 1.00728 0.0
H33 H 1.00144 0.5359 0.12675 0.0
H34 H 0.99755 0.54873 0.96866 0.0
H35 H 0.09266 0.52908 0.02484 0.0
H36 H 0.00942 0.44755 0.01659 0.0
C37 C 0.95727 0.45857 0.03338 0.0
C38 C 0.03066 0.50466 0.16907 0.0
C39 C 0.02691 0.51693 0.89815 0.0
C40 C 0.08464 0.58066 0.03862 0.0
H41 H 0.97535 0.45281 0.20055 0.0
H42 H 0.93441 0.42864 0.1281 0.0
H43 H 0.92969 0.44037 0.93617 0.0
H44 H 0.9689 0.47103 0.86292 0.0
H45 H 0.0799 0.5721 0.86745 0.0
H46 H 0.10933 0.6086 0.94322 0.0
H47 H 0.11321 0.59859 0.13526 0.0
H48 H 0.08519 0.55561 0.20443 0.0
H49 H 0.12228 0.50174 0.9973 0.0
H50 H 0.03803 0.4185 0.98976 0.0
H51 H 0.9726 0.58311 0.9843 0.0
H52 H 0.97676 0.56912 0.1443 0.0
C53 C 0.58312 0.51734 0.90956 0.0
C54 C 0.60642 0.51239 0.88546 0.0
C55 C 0.62618 0.51224 0.92218 0.0
C56 C 0.61386 0.51682 0.96671 0.0
N57 N 0.58722 0.51955 0.96093 0.0
Co58 Co 0.56274 0.52705 0.01745 0.0
N59 N 0.59398 0.53067 0.07085 0.0
C60 C 0.62097 0.52894 0.06193 0.0
C61 C 0.63738 0.53053 0.10482 0.0
C62 C 0.61977 0.53316 0.14376 0.0
C63 C 0.59343 0.5332 0.12258 0.0
N64 N 0.53793 0.53378 0.07435 0.0
C65 C 0.54199 0.53557 0.12585 0.0
C66 C 0.51795 0.53901 0.15033 0.0
C67 C 0.49773 0.53844 0.11385 0.0
C68 C 0.51046 0.53493 0.06901 0.0
N69 N 0.53192 0.52427 0.96382 0.0
C70 C 0.50559 0.52742 0.9723 0.0
C71 C 0.48999 0.5272 0.92902 0.0
C72 C 0.50757 0.52416 0.89032 0.0
C73 C 0.53298 0.5224 0.91205 0.0
N74 N 0.54047 0.48148 0.0308 0.0
C75 C 0.50815 0.41819 0.0586 0.0
C76 C 0.49246 0.43568 0.04478 0.0
C77 C 0.50879 0.46679 0.03125 0.0
C78 C 0.54047 0.43301 0.05734 0.0
C79 C 0.55599 0.46417 0.04291 0.0
N80 N 0.5847 0.57258 1.00369 0.0
C81 C 0.58215 0.62088 0.98477 0.0
C82 C 0.61344 0.63534 0.97102 0.0
C83 C 0.63016 0.6176 0.97493 0.0
C84 C 0.61557 0.5867 0.99135 0.0
C85 C 0.56862 0.59022 1.0015 0.0
H86 H 0.62964 0.57452 0.99314 0.0
H87 H 0.54481 0.58111 1.0115 0.0
H88 H 0.49513 0.47857 0.02208 0.0
H89 H 0.5806 0.47385 0.04234 0.0
C90 C 0.62831 0.52192 1.0137 0.0
C91 C 0.55796 0.52013 0.88152 0.0
C92 C 0.56795 0.534 0.15366 0.0
C93 C 0.49695 0.53195 0.02134 0.0
H94 H 0.60917 0.50974 0.84533 0.0
H95 H 0.64757 0.51008 0.91684 0.0
H96 H 0.65894 0.52851 0.10768 0.0
H97 H 0.62532 0.53384 0.18342 0.0
H98 H 0.51513 0.54134 0.19054 0.0
H99 H 0.47604 0.53997 0.11946 0.0
H100 H 0.46877 0.52983 0.92586 0.0
H101 H 0.50257 0.52402 0.85049 0.0
H102 H 0.46748 0.42562 0.04561 0.0
H103 H 0.55384 0.42054 0.06718 0.0
H104 H 0.56764 0.63289 0.98163 0.0
H105 H 0.65452 0.62751 0.96548 0.0
C106 C 0.51238 0.05279 0.10416 0.0
C107 C 0.50689 0.07856 0.11165 0.0
C108 C 0.51348 0.09414 0.06689 0.0
C109 C 0.52265 0.07708 0.03498 0.0
N110 N 0.52194 0.05132 0.0564 0.0
Co111 Co 0.53385 0.02009 0.02436 0.0
N112 N 0.5474 0.04507 0.961 0.0
C113 C 0.54705 0.07251 0.95161 0.0
C114 C 0.55901 0.08463 0.90526 0.0
C115 C 0.56746 0.06365 0.88363 0.0
C116 C 0.56004 0.03981 0.91824 0.0
N117 N 0.54525 0.98859 0.992 0.0
C118 C 0.55687 0.98819 0.94533 0.0
C119 C 0.5613 0.96189 0.93726 0.0
C120 C 0.552 0.94487 0.98052 0.0
C121 C 0.54244 0.96173 1.01224 0.0
N122 N 0.52097 0.99551 0.08824 0.0
C123 C 0.52117 0.96803 0.09783 0.0
C124 C 0.51165 0.95736 0.14591 0.0
C125 C 0.5055 0.97963 0.16865 0.0
C126 C 0.5117 1.00262 0.1329 0.0
N127 N 0.49059 0.99772 0.99741 0.0
C128 C 0.42851 0.96585 0.96232 0.0
C129 C 0.44374 0.95042 0.98625 0.0
C130 C 0.47425 0.96649 1.00312 0.0
C131 C 0.44531 0.99773 0.95613 0.0
C132 C 0.47594 0.01295 0.97337 0.0
N133 N 0.57696 0.04226 0.05124 0.0
C134 C 0.62348 0.04119 0.08531 0.0
C135 C 0.63908 0.07338 0.08622 0.0
C136 C 0.62261 0.08955 0.06903 0.0
C137 C 0.59204 0.07378 0.05181 0.0
C138 C 0.5928 0.02635 0.06871 0.0
H139 H 0.58102 0.08758 0.03896 0.0
H140 H 0.58241 1.00186 0.06999 0.0
H141 H 0.48407 0.953 0.02079 0.0
H142 H 0.48725 0.03714 0.96705 0.0
C143 C 0.53495 0.08615 0.98666 0.0
C144 C 0.51054 0.03165 0.14429 0.0
C145 C 0.56341 0.01177 0.90713 0.0
C146 C 0.53137 0.95332 0.06151 0.0
H147 H 0.49978 0.08582 0.14627 0.0
H148 H 0.51289 0.11594 0.05914 0.0
H149 H 0.56107 0.10603 0.88897 0.0
H150 H 0.57746 0.06545 0.84622 0.0
H151 H 0.57031 0.95572 0.9035 0.0
H152 H 0.55222 0.92288 0.988 0.0
H153 H 0.51006 0.93627 0.16275 0.0
H154 H 0.49805 0.97942 0.20748 0.0
H155 H 0.43223 0.92577 0.99173 0.0
H156 H 0.43477 0.0112 0.93886 0.0
H157 H 0.63497 0.02716 0.09645 0.0
H158 H 0.63315 0.11443 0.06902 0.0
C159 C 0.60341 0.03109 0.48469 0.0
C160 C 0.6345 0.04983 0.47644 0.0
C161 C 0.63964 0.07849 0.49278 0.0
C162 C 0.61151 0.07579 0.50977 0.0
N163 N 0.58854 0.0472 0.50473 0.0
Co164 Co 0.54422 0.03348 0.52588 0.0
N165 N 0.55183 0.07589 0.54952 0.0
C166 C 0.57898 0.1013 0.54744 0.0
C167 C 0.5772 0.12737 0.5646 0.0
C168 C 0.54699 0.11825 0.57787 0.0
C169 C 0.53197 0.08698 0.56792 0.0
N170 N 0.50013 0.01957 0.54876 0.0
C171 C 0.48525 0.03569 0.56876 0.0
C172 C 0.45451 0.01672 0.57924 0.0
C173 C 0.44974 0.98771 0.56536 0.0
C174 C 0.47769 0.9905 0.54722 0.0
N175 N 0.53631 0.99134 0.50028 0.0
C176 C 0.50881 0.96629 0.50039 0.0
C177 C 0.51026 0.94047 0.48125 0.0
C178 C 0.54047 0.94948 0.46809 0.0
C179 C 0.55588 0.98048 0.47983 0.0
N180 N 0.55441 0.02303 0.59341 0.0
C181 C 0.56555 0.00903 0.69193 0.0
C182 C 0.54429 0.98648 0.66129 0.0
C183 C 0.53898 0.99395 0.61271 0.0
C184 C 0.58243 0.0383 0.67159 0.0
C185 C 0.57681 0.04464 0.62234 0.0
N186 N 0.534 0.04368 0.45841 0.0
C187 C 0.50143 0.02856 0.38516 0.0
C188 C 0.52278 0.05337 0.35777 0.0
C189 C 0.54881 0.07449 0.38255 0.0
C190 C 0.55389 0.06928 0.43272 0.0
C191 C 0.5073 0.02439 0.43522 0.0
H192 H 0.5745 0.0857 0.44934 0.0
H193 H 0.49043 1.00471 0.45364 0.0
H194 H 0.5217 0.9759 0.59223 0.0
H195 H 0.59026 0.06739 0.60912 0.0
C196 C 0.60578 0.09983 0.52936 0.0
C197 C 0.58929 0.99817 0.47291 0.0
C198 C 0.49882 0.06902 0.57655 0.0
C199 C 0.48279 0.96702 0.52363 0.0
H200 H 0.65176 0.04344 0.46036 0.0
H201 H 0.6613 0.09891 0.49222 0.0
H202 H 0.59564 0.15033 0.56691 0.0
H203 H 0.53709 0.13298 0.59295 0.0
H204 H 0.43713 0.02327 0.59428 0.0
H205 H 0.42817 0.96719 0.56674 0.0
H206 H 0.49175 0.91756 0.47881 0.0
H207 H 0.55012 0.9346 0.4528 0.0
H208 H 0.53082 0.96343 0.67552 0.0
H209 H 0.59876 0.05675 0.69428 0.0
H210 H 0.48117 0.01128 0.36734 0.0
H211 H 0.56581 0.09421 0.36266 0.0
C212 C 0.04945 0.49315 0.4275 0.0
C213 C 0.07463 0.49062 0.40546 0.0
C214 C 0.09286 0.48943 0.44397 0.0
C215 C 0.07814 0.49153 0.48749 0.0
N216 N 0.05128 0.49351 0.47939 0.0
Co217 Co 0.02514 0.50066 0.5338 0.0
N218 N 0.05441 0.50346 0.59002 0.0
C219 C 0.08096 0.50044 0.58393 0.0
C220 C 0.09654 0.50289 0.62812 0.0
C221 C 0.07873 0.50736 0.66499 0.0
C222 C 0.05294 0.50716 0.64141 0.0
N223 N 0.9992 0.50829 0.588 0.0
C224 C 1.0022 0.51109 0.63964 0.0
C225 C 0.97691 0.51348 0.66164 0.0
C226 C 0.95774 0.51269 0.62329 0.0
C227 C 0.97195 0.5095 0.57992 0.0
N228 N 0.99588 0.4978 0.47763 0.0
C229 C 0.96843 0.49895 0.48396 0.0
C230 C 0.95321 0.49713 0.43957 0.0
C231 C 0.9723 0.49524 0.40236 0.0
C232 C 0.99845 0.49639 0.426 0.0
N233 N 1.00238 0.45488 0.54691 0.0
C234 C 0.9712 0.39146 0.5758 0.0
C235 C 0.95551 0.41007 0.57178 0.0
C236 C 0.97118 0.44109 0.55681 0.0
C237 C 1.00276 0.40515 0.56364 0.0
C238 C 0.01769 0.43645 0.54963 0.0
N239 N 0.04777 0.54608 0.52062 0.0
C240 C 0.0472 0.59476 0.49749 0.0
C241 C 0.07904 0.60838 0.48781 0.0
C242 C 0.09506 0.59056 0.49736 0.0
C243 C 0.07924 0.55997 0.51411 0.0
C244 C 0.03216 0.56391 0.5135 0.0
H245 H 0.09293 0.54782 0.52074 0.0
H246 H 1.00775 0.55472 0.51886 0.0
H247 H 0.95746 0.45349 0.55413 0.0
H248 H 0.04182 0.4453 0.54198 0.0
C249 C 0.0904 0.49491 0.53618 0.0
C250 C 0.02521 0.49654 0.3973 0.0
C251 C 0.02778 0.51047 0.66994 0.0
C252 C 0.95906 0.50475 0.53157 0.0
H253 H 0.07999 0.49071 0.36564 0.0
H254 H 0.11498 0.48858 0.44054 0.0
H255 H 0.11822 0.50137 0.63303 0.0
H256 H 0.08413 0.51028 0.70483 0.0
H257 H 0.97227 0.51481 0.70145 0.0
H258 H 0.93547 0.51323 0.62681 0.0
H259 H 0.93127 0.4981 0.43467 0.0
H260 H 0.96773 0.49385 0.36221 0.0
H261 H 0.93101 0.40068 0.58001 0.0
H262 H 0.01621 0.39201 0.56631 0.0
H263 H 0.0337 0.60759 0.49125 0.0
H264 H 0.11983 0.60018 0.49194 0.0
C265 C 0.55582 0.54666 0.62602 0.0
C266 C 0.54921 0.56878 0.65015 0.0
C267 C 0.54862 0.58849 0.61357 0.0
C268 C 0.55457 0.57729 0.56905 0.0
N269 N 0.55867 0.55143 0.57473 0.0
Co270 Co 0.56815 0.52852 0.51805 0.0
N271 N 0.56998 0.55918 0.46465 0.0
C272 C 0.56727 0.58553 0.47376 0.0
C273 C 0.56762 0.60153 0.43078 0.0
C274 C 0.5704 0.58428 0.39165 0.0
C275 C 0.57174 0.55855 0.41278 0.0
N276 N 0.57648 0.50508 0.46093 0.0
C277 C 0.57714 0.50882 0.40937 0.0
C278 C 0.58218 0.48588 0.38475 0.0
C279 C 0.58375 0.46659 0.42129 0.0
C280 C 0.57981 0.47879 0.46625 0.0
N281 N 0.56713 0.49829 0.57157 0.0
C282 C 0.57271 0.47346 0.56308 0.0
C283 C 0.57326 0.45805 0.6063 0.0
C284 C 0.56815 0.47421 0.64501 0.0
C285 C 0.56445 0.49861 0.62332 0.0
N286 N 0.52272 0.50436 0.50538 0.0
C287 C 0.45945 0.47027 0.47846 0.0
C288 C 0.47849 0.45563 0.48903 0.0
C289 C 0.50958 0.47285 0.50252 0.0
C290 C 0.47286 0.50242 0.48243 0.0
C291 C 0.50401 0.51876 0.49607 0.0
N292 N 0.61381 0.5526 0.53118 0.0
C293 C 0.66479 0.55411 0.54414 0.0
C294 C 0.67638 0.58385 0.56433 0.0
C295 C 0.65633 0.59814 0.56503 0.0
C296 C 0.62572 0.58249 0.54795 0.0
C297 C 0.63388 0.53908 0.52817 0.0
H298 H 0.61201 0.59502 0.54939 0.0
H299 H 0.62666 0.51627 0.51435 0.0
H300 H 0.52268 0.46016 0.50996 0.0
H301 H 0.5126 0.54316 0.49804 0.0
C302 C 0.55963 0.5921 0.52213 0.0
C303 C 0.55967 0.52202 0.65393 0.0
C304 C 0.57302 0.53347 0.38169 0.0
C305 C 0.57813 0.46571 0.51406 0.0
H306 H 0.54575 0.57083 0.69024 0.0
H307 H 0.5452 0.60911 0.619 0.0
H308 H 0.56448 0.62243 0.42804 0.0
H309 H 0.5702 0.58958 0.35199 0.0
H310 H 0.58412 0.48312 0.34443 0.0
H311 H 0.58681 0.4458 0.41566 0.0
H312 H 0.57759 0.43784 0.60942 0.0
H313 H 0.56787 0.46896 0.68481 0.0
H314 H 0.46943 0.43083 0.48714 0.0
H315 H 0.45962 0.5152 0.47386 0.0
H316 H 0.6793 0.54202 0.54197 0.0
H317 H 0.66425 0.6215 0.57862 0.0
C318 C 0.69878 0.84899 0.46061 0.0
C319 C 0.67349 0.82482 0.48191 0.0
C320 C 0.65489 0.80906 0.44293 0.0
C321 C 0.66953 0.82442 0.39989 0.0
N322 N 0.69668 0.84882 0.40872 0.0
Co323 Co 0.7229 0.87888 0.35535 0.0
N324 N 0.69464 0.85642 0.29799 0.0
C325 C 0.66836 0.83035 0.30302 0.0
C326 C 0.65396 0.81898 0.25805 0.0
C327 C 0.67243 0.8386 0.22179 0.0
C328 C 0.69738 0.86091 0.24654 0.0
N329 N 0.74866 0.90951 0.30238 0.0
C330 C 0.74651 0.90973 0.25059 0.0
C331 C 0.77076 0.93518 0.22986 0.0
C332 C 0.78866 0.95142 0.26916 0.0
C333 C 0.77464 0.93513 0.31182 0.0
N334 N 0.75175 0.90075 0.41243 0.0
C335 C 0.77883 0.9259 0.40694 0.0
C336 C 0.79405 0.9365 0.45156 0.0
C337 C 0.77547 0.9172 0.48803 0.0
C338 C 0.74958 0.89595 0.46379 0.0
N339 N 0.74637 0.85373 0.3417 0.0
C340 C 0.77747 0.81873 0.30569 0.0
C341 C 0.79327 0.85045 0.31353 0.0
C342 C 0.77748 0.86732 0.33146 0.0
C343 C 0.74619 0.80467 0.31927 0.0
C344 C 0.73132 0.82235 0.33733 0.0
N345 N 0.69917 0.90389 0.3687 0.0
C346 C 0.69694 0.95012 0.40169 0.0
C347 C 0.66471 0.93666 0.39948 0.0
C348 C 0.65019 0.90706 0.37939 0.0
C349 C 0.66761 0.89121 0.36462 0.0
C350 C 0.71357 0.93366 0.38565 0.0
H351 H 0.65485 0.8685 0.35086 0.0
H352 H 0.73808 0.94541 0.388 0.0
H353 H 0.7908 0.89147 0.33557 0.0
H354 H 0.70744 0.81016 0.3466 0.0
C355 C 0.65801 0.81713 0.35073 0.0
C356 C 0.7234 0.87213 0.49173 0.0
C357 C 0.72303 0.88573 0.21907 0.0
C358 C 0.78747 0.9409 0.36021 0.0
H359 H 0.66854 0.81949 0.52163 0.0
H360 H 0.63285 0.78917 0.44577 0.0
H361 H 0.63267 0.79863 0.25223 0.0
H362 H 0.66811 0.83654 0.18155 0.0
H363 H 0.77575 0.94096 0.19029 0.0
H364 H 0.81022 0.97189 0.26666 0.0
H365 H 0.81563 0.95655 0.45715 0.0
H366 H 0.78017 0.91901 0.52815 0.0
H367 H 0.81762 0.86245 0.30441 0.0
H368 H 0.73309 0.78003 0.31587 0.0
H369 H 0.70935 0.97332 0.41574 0.0
H370 H 0.62529 0.89572 0.37646 0.0
C371 C 0.22159 0.84728 0.47401 0.0
C372 C 0.24644 0.84458 0.49609 0.0
C373 C 0.26444 0.84215 0.45754 0.0
C374 C 0.24954 0.84315 0.41411 0.0
N375 N 0.22343 0.84669 0.42229 0.0
Co376 Co 0.19321 0.84476 0.36838 0.0
N377 N 0.21856 0.83905 0.31145 0.0
C378 C 0.24707 0.84038 0.31699 0.0
C379 C 0.2628 0.84358 0.27234 0.0
C380 C 0.24332 0.84452 0.23585 0.0
C381 C 0.21598 0.84068 0.25986 0.0
N382 N 0.16204 0.84075 0.31524 0.0
C383 C 0.16104 0.834 0.26477 0.0
C384 C 0.13152 0.82559 0.24625 0.0
C385 C 0.11461 0.83052 0.28422 0.0
C386 C 0.13407 0.84005 0.32468 0.0
N387 N 0.16858 0.85228 0.42442 0.0
C388 C 0.14263 0.85624 0.41804 0.0
C389 C 0.13052 0.86132 0.46244 0.0
C390 C 0.14972 0.86026 0.4995 0.0
C391 C 0.17242 0.85419 0.47574 0.0
N392 N 0.21544 0.89045 0.35601 0.0
C393 C 0.24836 0.95401 0.32968 0.0
C394 C 0.21616 0.9384 0.32493 0.0
C395 C 0.20033 0.90707 0.33839 0.0
C396 C 0.26342 0.9371 0.34902 0.0
C397 C 0.24682 0.90594 0.36199 0.0
N398 N 0.17124 0.79924 0.38104 0.0
C399 C 0.12598 0.75485 0.41144 0.0
C400 C 0.14174 0.73617 0.41124 0.0
C401 C 0.17253 0.74975 0.39408 0.0
C402 C 0.18656 0.78084 0.37884 0.0
C403 C 0.14088 0.78579 0.39639 0.0
H404 H 0.2101 0.7898 0.36643 0.0
H405 H 0.1274 0.79853 0.39845 0.0
H406 H 0.17583 0.89661 0.33348 0.0
H407 H 0.26014 0.89485 0.37633 0.0
C408 C 0.25947 0.84127 0.36492 0.0
C409 C 0.19646 0.84948 0.5039 0.0
C410 C 0.18804 0.83826 0.23221 0.0
C411 C 0.12727 0.84921 0.37172 0.0
H412 H 0.25091 0.84389 0.53597 0.0
H413 H 0.28563 0.83948 0.46082 0.0
H414 H 0.2863 0.84648 0.26711 0.0
H415 H 0.24945 0.84878 0.19633 0.0
H416 H 0.12326 0.81775 0.20857 0.0
H417 H 0.09099 0.82763 0.28241 0.0
H418 H 0.10928 0.86379 0.46761 0.0
H419 H 0.14677 0.86268 0.53965 0.0
H420 H 0.20315 0.95002 0.30962 0.0
H421 H 0.28817 0.94791 0.35434 0.0
H422 H 0.10204 0.74568 0.42343 0.0
H423 H 0.18621 0.73679 0.39367 0.0
C424 C 0.21384 0.36932 0.4766 0.0
C425 C 0.21207 0.39467 0.49875 0.0
C426 C 0.21229 0.41367 0.4603 0.0
C427 C 0.21445 0.39917 0.41676 0.0
N428 N 0.21519 0.3718 0.42481 0.0
Co429 Co 0.22158 0.34544 0.37048 0.0
N430 N 0.22352 0.37425 0.31385 0.0
C431 C 0.22049 0.4007 0.31966 0.0
C432 C 0.2214 0.41544 0.27497 0.0
C433 C 0.22465 0.39707 0.23811 0.0
C434 C 0.22538 0.37186 0.26226 0.0
N435 N 0.22889 0.31947 0.31643 0.0
C436 C 0.23041 0.32185 0.26465 0.0
C437 C 0.23334 0.29694 0.24294 0.0
C438 C 0.23408 0.27858 0.28162 0.0
C439 C 0.23123 0.29289 0.3249 0.0
N440 N 0.21867 0.31611 0.4268 0.0
C441 C 0.21974 0.28876 0.42059 0.0
C442 C 0.21695 0.27303 0.4649 0.0
C443 C 0.21424 0.29157 0.50192 0.0
C444 C 0.2159 0.31792 0.47824 0.0
N445 N 0.17571 0.32306 0.35954 0.0
C446 C 0.11174 0.29297 0.33416 0.0
C447 C 0.13052 0.27723 0.33422 0.0
C448 C 0.16187 0.29238 0.34748 0.0
C449 C 0.12577 0.32402 0.34816 0.0
C450 C 0.15727 0.33839 0.36053 0.0
N451 N 0.26739 0.36805 0.38162 0.0
C452 C 0.31614 0.36851 0.40817 0.0
C453 C 0.33035 0.4007 0.41096 0.0
C454 C 0.31276 0.41609 0.39603 0.0
C455 C 0.28186 0.3996 0.38143 0.0
C456 C 0.285 0.35282 0.39359 0.0
H457 H 0.27002 0.41298 0.37087 0.0
H458 H 0.27545 0.32829 0.39321 0.0
H459 H 0.17455 0.27882 0.3468 0.0
H460 H 0.16625 0.36212 0.37019 0.0
C461 C 0.21662 0.41092 0.36773 0.0
C462 C 0.21527 0.3441 0.5067 0.0
C463 C 0.2278 0.34634 0.23412 0.0
C464 C 0.22619 0.27984 0.37323 0.0
H465 H 0.21134 0.39936 0.53864 0.0
H466 H 0.21167 0.4358 0.46376 0.0
H467 H 0.21961 0.4369 0.26974 0.0
H468 H 0.2261 0.40165 0.1979 0.0
H469 H 0.23379 0.29185 0.20317 0.0
H470 H 0.23493 0.25654 0.27842 0.0
H471 H 0.21766 0.25104 0.46985 0.0
H472 H 0.21184 0.28646 0.54199 0.0
H473 H 0.12143 0.2534 0.32279 0.0
H474 H 0.1125 0.3374 0.34959 0.0
H475 H 0.32871 0.35536 0.41861 0.0
H476 H 0.32278 0.44097 0.39563 0.0
C477 C 0.20234 0.31622 0.97836 0.0
C478 C 0.18055 0.29043 1.00258 0.0
C479 C 0.1618 0.27194 0.96592 0.0
C480 C 0.17315 0.28717 0.92123 0.0
N481 N 0.19834 0.31412 0.9269 0.0
Co482 Co 0.22093 0.34338 0.87026 0.0
N483 N 0.19152 0.31744 0.81654 0.0
C484 C 0.16664 0.29049 0.82501 0.0
C485 C 0.15152 0.27656 0.78177 0.0
C486 C 0.16781 0.29552 0.74312 0.0
C487 C 0.19207 0.32026 0.76482 0.0
N488 N 0.24357 0.37267 0.8137 0.0
C489 C 0.23942 0.37083 0.76233 0.0
C490 C 0.26108 0.39676 0.7382 0.0
C491 C 0.28 0.41503 0.77481 0.0
C492 C 0.2688 0.39956 0.81932 0.0
N493 N 0.2503 0.36943 0.92391 0.0
C494 C 0.27506 0.39646 0.91539 0.0
C495 C 0.28962 0.41103 0.95857 0.0
C496 C 0.27311 0.39241 0.99731 0.0
C497 C 0.24941 0.36708 0.9757 0.0
N498 N 0.24722 0.32086 0.85757 0.0
C499 C 0.28299 0.28936 0.82701 0.0
C500 C 0.29686 0.32094 0.83705 0.0
C501 C 0.2787 0.33614 0.85195 0.0
C502 C 0.25115 0.27373 0.83451 0.0
C503 C 0.23401 0.28961 0.8504 0.0
N504 N 0.19447 0.36568 0.8829 0.0
C505 C 0.18916 0.4123 0.90478 0.0
C506 C 0.15731 0.39592 0.91262 0.0
C507 C 0.14438 0.36426 0.90377 0.0
C508 C 0.1631 0.34982 0.88898 0.0
C509 C 0.20706 0.39696 0.88954 0.0
H510 H 0.15164 0.32562 0.88373 0.0
H511 H 0.23112 0.41085 0.88408 0.0
H512 H 0.29053 0.36035 0.85778 0.0
H513 H 0.20997 0.27606 0.85577 0.0
C514 C 0.1596 0.27776 0.87373 0.0
C515 C 0.2261 0.34208 1.00635 0.0
C516 C 0.2157 0.34508 0.7343 0.0
C517 C 0.28219 0.40898 0.86673 0.0
H518 H 0.17817 0.28562 0.04274 0.0
H519 H 0.1418 0.25026 0.97134 0.0
H520 H 0.13159 0.25464 0.77856 0.0
H521 H 0.1628 0.29111 0.70334 0.0
H522 H 0.26326 0.40181 0.69812 0.0
H523 H 0.29991 0.4368 0.76949 0.0
H524 H 0.30917 0.43324 0.96165 0.0
H525 H 0.27757 0.39752 0.03706 0.0
H526 H 0.32152 0.33407 0.83194 0.0
H527 H 0.23941 0.24919 0.82809 0.0
H528 H 0.20031 0.43694 0.9104 0.0
H529 H 0.11992 0.35037 0.90968 0.0
C530 C 0.75417 0.88753 0.96123 0.0
C531 C 0.78052 0.8886 0.98404 0.0
C532 C 0.79602 0.87993 0.94824 0.0
C533 C 0.77863 0.87438 0.90531 0.0
N534 N 0.75341 0.87971 0.91102 0.0
Co535 Co 0.72225 0.87316 0.85637 0.0
N536 N 0.74771 0.8656 0.80188 0.0
C537 C 0.77282 0.86064 0.81037 0.0
C538 C 0.78687 0.85738 0.76674 0.0
C539 C 0.76962 0.86045 0.72805 0.0
C540 C 0.74567 0.86523 0.75006 0.0
N541 N 0.69147 0.86699 0.80154 0.0
C542 C 0.69401 0.8668 0.74978 0.0
C543 C 0.66631 0.862 0.72734 0.0
C544 C 0.64596 0.85942 0.76575 0.0
C545 C 0.66215 0.86261 0.80958 0.0
N546 N 0.69632 0.88026 0.91085 0.0
C547 C 0.6665 0.87469 0.90502 0.0
C548 C 0.65282 0.87874 0.94841 0.0
C549 C 0.67503 0.88668 0.98464 0.0
C550 C 0.70133 0.88718 0.96144 0.0
N551 N 0.74222 0.91783 0.83982 0.0
C552 C 0.77 0.9799 0.80606 0.0
C553 C 0.73845 0.96513 0.81852 0.0
C554 C 0.72506 0.93424 0.83481 0.0
C555 C 0.7874 0.96305 0.81253 0.0
C556 C 0.77328 0.93243 0.82976 0.0
N557 N 0.70222 0.82824 0.87282 0.0
C558 C 0.68517 0.78791 0.93633 0.0
C559 C 0.67283 0.76481 0.89991 0.0
C560 C 0.67657 0.77428 0.84887 0.0
C561 C 0.69128 0.80598 0.83618 0.0
C562 C 0.69912 0.81888 0.92229 0.0
H563 H 0.6936 0.81241 0.79675 0.0
H564 H 0.70721 0.83502 0.95242 0.0
H565 H 0.70062 0.92354 0.84237 0.0
H566 H 0.78762 0.92052 0.83402 0.0
C567 C 0.78552 0.86482 0.85873 0.0
C568 C 0.72877 0.8901 0.99065 0.0
C569 C 0.72132 0.86889 0.72034 0.0
C570 C 0.65221 0.86602 0.85804 0.0
H571 H 0.78717 0.89381 0.02316 0.0
H572 H 0.81725 0.87753 0.95317 0.0
H573 H 0.80811 0.85474 0.76334 0.0
H574 H 0.77459 0.85984 0.6882 0.0
H575 H 0.6613 0.86043 0.68733 0.0
H576 H 0.62243 0.85658 0.76205 0.0
H577 H 0.62922 0.87558 0.95342 0.0
H578 H 0.67165 0.89026 0.02419 0.0
H579 H 0.72398 0.97713 0.81441 0.0
H580 H 0.81195 0.97351 0.80451 0.0
H581 H 0.68418 0.78222 0.9761 0.0
H582 H 0.66776 0.75741 0.81898 0.0
C583 C 0.18642 0.86719 0.97328 0.0
C584 C 0.19304 0.89551 0.99532 0.0
C585 C 0.19091 0.91416 0.95837 0.0
C586 C 0.18481 0.89704 0.91505 0.0
N587 N 0.18298 0.86851 0.92192 0.0
Co588 Co 0.18801 0.84237 0.86614 0.0
N589 N 0.18945 0.87179 0.81084 0.0
C590 C 0.186 0.89791 0.81795 0.0
C591 C 0.18529 0.91256 0.77398 0.0
C592 C 0.18805 0.89452 0.73617 0.0
C593 C 0.19068 0.8699 0.75924 0.0
N594 N 0.19467 0.81693 0.81084 0.0
C595 C 0.197 0.82057 0.75934 0.0
C596 C 0.20256 0.79746 0.73643 0.0
C597 C 0.20311 0.77836 0.77417 0.0
C598 C 0.19821 0.7909 0.8181 0.0
N599 N 0.18497 0.81226 0.92113 0.0
C600 C 0.18517 0.78463 0.91325 0.0
C601 C 0.17837 0.76662 0.95568 0.0
C602 C 0.17422 0.78404 0.99329 0.0
C603 C 0.1799 0.81241 0.97226 0.0
N604 N 0.14199 0.8201 0.85622 0.0
C605 C 0.07815 0.78903 0.83096 0.0
C606 C 0.09654 0.7732 0.8355 0.0
C607 C 0.128 0.78897 0.84752 0.0
C608 C 0.09219 0.82072 0.84075 0.0
C609 C 0.12368 0.83555 0.85415 0.0
N610 N 0.2341 0.86464 0.87585 0.0
C611 C 0.28248 0.86542 0.90528 0.0
C612 C 0.29818 0.89738 0.89925 0.0
C613 C 0.28115 0.91239 0.88008 0.0
C614 C 0.24968 0.89585 0.8686 0.0
C615 C 0.25096 0.84966 0.89304 0.0
H616 H 0.23842 0.90908 0.85459 0.0
H617 H 0.24067 0.82531 0.89833 0.0
H618 H 0.14066 0.77544 0.84847 0.0
H619 H 0.13297 0.85966 0.862 0.0
C620 C 0.18489 0.90861 0.86667 0.0
C621 C 0.18278 0.83949 1.00285 0.0
C622 C 0.19382 0.84518 0.73024 0.0
C623 C 0.19284 0.77685 0.86572 0.0
H624 H 0.19963 0.90251 0.0339 0.0
H625 H 0.19527 0.93806 0.96208 0.0
H626 H 0.18296 0.93383 0.76988 0.0
H627 H 0.1879 0.89894 0.69612 0.0
H628 H 0.20537 0.79441 0.69644 0.0
H629 H 0.20571 0.75724 0.76988 0.0
H630 H 0.17678 0.74359 0.959 0.0
H631 H 0.16817 0.77659 0.032 0.0
H632 H 0.08689 0.74873 0.82822 0.0
H633 H 0.07889 0.83401 0.83823 0.0
H634 H 0.2945 0.85246 0.9193 0.0
H635 H 0.29182 0.93709 0.8751 0.0
C636 C 0.38272 0.23612 0.73285 0.0
C637 C 0.39966 0.26777 0.7358 0.0
C638 C 0.42865 0.27418 0.71849 0.0
C639 C 0.4278 0.2463 0.70539 0.0
N640 N 0.40001 0.22233 0.71329 0.0
Co641 Co 0.38859 0.1781 0.69572 0.0
N642 N 0.43157 0.18766 0.67083 0.0
C643 C 0.45601 0.21557 0.67073 0.0
C644 C 0.48289 0.21513 0.65372 0.0
C645 C 0.47533 0.18511 0.64255 0.0
C646 C 0.44405 0.16886 0.65308 0.0
N647 N 0.37702 0.134 0.67703 0.0
C648 C 0.39436 0.12026 0.65754 0.0
C649 C 0.37671 0.08913 0.64943 0.0
C650 C 0.34735 0.08286 0.66476 0.0
C651 C 0.34862 0.11042 0.68106 0.0
N652 N 0.34588 0.16842 0.72203 0.0
C653 C 0.32184 0.14026 0.72427 0.0
C654 C 0.29576 0.14022 0.74594 0.0
C655 C 0.30351 0.17014 0.75832 0.0
C656 C 0.33393 0.18693 0.74296 0.0
N657 N 0.37662 0.18541 0.62736 0.0
C658 C 0.36054 0.19455 0.52908 0.0
C659 C 0.33948 0.17156 0.55985 0.0
C660 C 0.34798 0.16734 0.60846 0.0
C661 C 0.38931 0.21362 0.54879 0.0
C662 C 0.39677 0.20875 0.59767 0.0
N663 N 0.40032 0.17077 0.764 0.0
C664 C 0.38688 0.14115 0.84103 0.0
C665 C 0.41156 0.16404 0.86596 0.0
C666 C 0.4319 0.18928 0.83807 0.0
C667 C 0.42589 0.19216 0.78736 0.0
C668 C 0.382 0.14477 0.79025 0.0
H669 H 0.44159 0.21237 0.76841 0.0
H670 H 0.36249 0.12679 0.77374 0.0
H671 H 0.33107 0.14907 0.62962 0.0
H672 H 0.41915 0.22388 0.61015 0.0
C673 C 0.45286 0.24182 0.6864 0.0
C674 C 0.35027 0.22041 0.74892 0.0
C675 C 0.42749 0.13555 0.64616 0.0
C676 C 0.32418 0.11447 0.70389 0.0
H677 H 0.39192 0.2846 0.749 0.0
H678 H 0.44805 0.29654 0.7157 0.0
H679 H 0.50537 0.23435 0.65014 0.0
H680 H 0.49114 0.17618 0.62851 0.0
H681 H 0.38434 0.07259 0.63439 0.0
H682 H 0.32756 0.06071 0.66494 0.0
H683 H 0.27367 0.12077 0.75177 0.0
H684 H 0.28836 0.1786 0.77648 0.0
H685 H 0.31673 0.15655 0.54623 0.0
H686 H 0.40649 0.23161 0.52599 0.0
H687 H 0.37015 0.1214 0.86116 0.0
H688 H 0.45154 0.20742 0.85589 0.0
C689 C 0.87245 0.24907 0.65974 0.0
C690 C 0.85388 0.26388 0.64929 0.0
C691 C 0.82507 0.2456 0.66783 0.0
C692 C 0.82739 0.22049 0.68805 0.0
N693 N 0.85576 0.22147 0.68287 0.0
Co694 Co 0.86804 0.1889 0.70669 0.0
N695 N 0.82425 0.15813 0.71751 0.0
C696 C 0.7996 0.16461 0.71848 0.0
C697 C 0.7722 0.13919 0.72577 0.0
C698 C 0.78 0.1151 0.73043 0.0
C699 C 0.81191 0.12721 0.72622 0.0
N700 N 0.8804 0.1565 0.73096 0.0
C701 C 0.86345 0.12583 0.73947 0.0
C702 C 0.88178 0.11269 0.75904 0.0
C703 C 0.91095 0.13574 0.76314 0.0
C704 C 0.90893 0.16168 0.74613 0.0
N705 N 0.91181 0.21964 0.69579 0.0
C706 C 0.93667 0.21736 0.71489 0.0
C707 C 0.96393 0.24216 0.70366 0.0
C708 C 0.95585 0.26158 0.67619 0.0
C709 C 0.92395 0.2475 0.67194 0.0
N710 N 0.86935 0.20329 0.77597 0.0
C711 C 0.87574 0.22227 0.87636 0.0
C712 C 0.88782 0.2439 0.83755 0.0
C713 C 0.88407 0.23392 0.78738 0.0
C714 C 0.85937 0.19128 0.86408 0.0
C715 C 0.85655 0.18228 0.81385 0.0
N716 N 0.86671 0.17432 0.63785 0.0
C717 C 0.88961 0.15786 0.56985 0.0
C718 C 0.86472 0.1538 0.53884 0.0
C719 C 0.84072 0.15986 0.5585 0.0
C720 C 0.84213 0.17001 0.60805 0.0
C721 C 0.89012 0.16809 0.61935 0.0
H722 H 0.82353 0.17484 0.62185 0.0
H723 H 0.90965 0.17133 0.64237 0.0
H724 H 0.8938 0.25092 0.75808 0.0
H725 H 0.84481 0.15812 0.80608 0.0
C726 C 0.8027 0.19394 0.70579 0.0
C727 C 0.90612 0.26305 0.65031 0.0
C728 C 0.82962 0.10905 0.7351 0.0
C729 C 0.93373 0.1904 0.73882 0.0
H730 H 0.86042 0.28573 0.63051 0.0
H731 H 0.80464 0.24972 0.66548 0.0
H732 H 0.7492 0.13812 0.72626 0.0
H733 H 0.76396 0.09139 0.73676 0.0
H734 H 0.87471 0.08905 0.77042 0.0
H735 H 0.93127 0.13372 0.77639 0.0
H736 H 0.98699 0.24561 0.71384 0.0
H737 H 0.97164 0.28397 0.66216 0.0
H738 H 0.90051 0.26812 0.84595 0.0
H739 H 0.85 0.17388 0.89328 0.0
H740 H 0.90875 0.15372 0.55564 0.0
H741 H 0.82155 0.15799 0.5352 0.0
C742 C 0.82519 0.63037 0.64369 0.0
C743 C 0.81672 0.6001 0.62933 0.0
C744 C 0.84224 0.59454 0.6349 0.0
C745 C 0.86482 0.62149 0.65275 0.0
N746 N 0.85515 0.6437 0.6592 0.0
Co747 Co 0.88081 0.68577 0.68651 0.0
N748 N 0.91318 0.67393 0.71322 0.0
C749 C 0.9158 0.64799 0.70076 0.0
C750 C 0.94121 0.64629 0.72103 0.0
C751 C 0.95602 0.67307 0.74731 0.0
C752 C 0.93872 0.68977 0.74188 0.0
N753 N 0.90644 0.72805 0.71322 0.0
C754 C 0.93193 0.73911 0.74318 0.0
C755 C 0.94183 0.77032 0.75208 0.0
C756 C 0.923 0.77942 0.72514 0.0
C757 C 0.90239 0.75334 0.70184 0.0
N758 N 0.84848 0.69755 0.65986 0.0
C759 C 0.85182 0.72651 0.65327 0.0
C760 C 0.82612 0.72804 0.63376 0.0
C761 C 0.80516 0.69814 0.62745 0.0
C762 C 0.81921 0.67991 0.64378 0.0
N763 N 0.85816 0.67387 0.75029 0.0
C764 C 0.82415 0.65601 0.84052 0.0
C765 C 0.83223 0.68526 0.81974 0.0
C766 C 0.84865 0.69347 0.77428 0.0
C767 C 0.83306 0.63574 0.81436 0.0
C768 C 0.85057 0.64533 0.77008 0.0
N769 N 0.90329 0.69732 0.62234 0.0
C770 C 0.95111 0.72075 0.57549 0.0
C771 C 0.93516 0.71053 0.53042 0.0
C772 C 0.90305 0.69415 0.53188 0.0
C773 C 0.88755 0.68797 0.57811 0.0
C774 C 0.93473 0.71377 0.62114 0.0
H775 H 0.86282 0.67544 0.57794 0.0
H776 H 0.94771 0.72159 0.65521 0.0
H777 H 0.85407 0.71591 0.75912 0.0
H778 H 0.85808 0.62962 0.75215 0.0
C779 C 0.89326 0.62518 0.67182 0.0
C780 C 0.80477 0.64611 0.63953 0.0
C781 C 0.94973 0.72206 0.75868 0.0
C782 C 0.87741 0.75124 0.67277 0.0
H783 H 0.79443 0.58361 0.61641 0.0
H784 H 0.84372 0.57298 0.62877 0.0
H785 H 0.94835 0.62791 0.71675 0.0
H786 H 0.97778 0.67996 0.76648 0.0
H787 H 0.96126 0.78523 0.77449 0.0
H788 H 0.92409 0.80231 0.72311 0.0
H789 H 0.82266 0.74844 0.62646 0.0
H790 H 0.78224 0.69065 0.61217 0.0
H791 H 0.8272 0.70239 0.83926 0.0
H792 H 0.82748 0.61293 0.82881 0.0
H793 H 0.97596 0.73375 0.57547 0.0
H794 H 0.88994 0.68648 0.49737 0.0
C795 C 0.92604 0.69263 0.11162 0.0
C796 C 0.95094 0.70733 0.07908 0.0
C797 C 0.95851 0.73813 0.08208 0.0
C798 C 0.93785 0.74058 0.11601 0.0
N799 N 0.91741 0.71325 0.13419 0.0
Co800 Co 0.88413 0.70713 0.18489 0.0
N801 N 0.88841 0.74997 0.17631 0.0
C802 C 0.91256 0.77323 0.15431 0.0
C803 C 0.9097 0.80039 0.15431 0.0
C804 C 0.88218 0.79399 0.17833 0.0
C805 C 0.86975 0.76317 0.1918 0.0
N806 N 0.85069 0.70083 0.23528 0.0
C807 C 0.835 0.71801 0.24543 0.0
C808 C 0.8139 0.7052 0.28463 0.0
C809 C 0.8167 0.67937 0.29986 0.0
C810 C 0.83923 0.67779 0.26924 0.0
N811 N 0.88022 0.66443 0.19431 0.0
C812 C 0.86566 0.6457 0.23332 0.0
C813 C 0.8672 0.61793 0.23124 0.0
C814 C 0.88413 0.61928 0.1886 0.0
C815 C 0.89203 0.64793 0.16689 0.0
N816 N 0.91476 0.72137 0.23835 0.0
C817 C 0.951 0.73298 0.32438 0.0
C818 C 0.93061 0.74655 0.31823 0.0
C819 C 0.91278 0.74049 0.27498 0.0
C820 C 0.9552 0.7161 0.28431 0.0
C821 C 0.93692 0.7107 0.24144 0.0
N822 N 0.8536 0.6929 0.13151 0.0
C823 C 0.81045 0.65181 0.09263 0.0
C824 C 0.81648 0.66873 0.04783 0.0
C825 C 0.83959 0.69879 0.04694 0.0
C826 C 0.8582 0.71026 0.08885 0.0
C827 C 0.82889 0.66474 0.13471 0.0
H828 H 0.87746 0.73241 0.08536 0.0
H829 H 0.82426 0.65119 0.16871 0.0
H830 H 0.89593 0.74965 0.27301 0.0
H831 H 0.93946 0.69626 0.2124 0.0
C832 C 0.93498 0.76757 0.12785 0.0
C833 C 0.91359 0.65963 0.12383 0.0
C834 C 0.84158 0.74805 0.22274 0.0
C835 C 0.84768 0.65343 0.26736 0.0
H836 H 0.96283 0.69693 0.05642 0.0
H837 H 0.97667 0.75648 0.06145 0.0
H838 H 0.9253 0.82205 0.13757 0.0
H839 H 0.87252 0.81023 0.18557 0.0
H840 H 0.79853 0.71395 0.30117 0.0
H841 H 0.80347 0.66336 0.32915 0.0
H842 H 0.85678 0.59876 0.25711 0.0
H843 H 0.8905 0.60143 0.17558 0.0
H844 H 0.92612 0.75927 0.34859 0.0
H845 H 0.97072 0.7052 0.28773 0.0
H846 H 0.79294 0.62831 0.09416 0.0
H847 H 0.84523 0.71222 1.01236 0.0
C848 C 0.39724 0.21026 0.30531 0.0
C849 C 0.42016 0.21668 0.34112 0.0
C850 C 0.44193 0.20906 0.31979 0.0
C851 C 0.43109 0.19855 0.27245 0.0
N852 N 0.40397 0.19945 0.26196 0.0
Co853 Co 0.37988 0.18671 0.19806 0.0
N854 N 0.41059 0.17316 0.16802 0.0
C855 C 0.43604 0.17354 0.19023 0.0
C856 C 0.45302 0.16353 0.15949 0.0
C857 C 0.43774 0.1567 0.11467 0.0
C858 C 0.41217 0.16286 0.12094 0.0
N859 N 0.35596 0.17428 0.13393 0.0
C860 C 0.36273 0.16355 0.09046 0.0
C861 C 0.34014 0.15781 0.0543 0.0
C862 C 0.31859 0.16585 0.07543 0.0
C863 C 0.32919 0.1759 0.12308 0.0
N864 N 0.34902 0.19999 0.22843 0.0
C865 C 0.32344 0.19947 0.20655 0.0
C866 C 0.30611 0.20866 0.2381 0.0
C867 C 0.32127 0.21495 0.28312 0.0
C868 C 0.347 0.20924 0.27611 0.0
N869 N 0.40417 0.2293 0.1697 0.0
C870 C 0.43843 0.29003 0.13046 0.0
C871 C 0.40612 0.27533 0.12858 0.0
C872 C 0.38973 0.24536 0.14773 0.0
C873 C 0.45312 0.27349 0.15269 0.0
C874 C 0.43583 0.24358 0.17171 0.0
N875 N 0.35551 0.14414 0.22631 0.0
C876 C 0.30641 0.09957 0.23987 0.0
C877 C 0.32062 0.08316 0.2638 0.0
C878 C 0.35278 0.09815 0.26879 0.0
C879 C 0.36955 0.12835 0.25041 0.0
C880 C 0.324 0.12955 0.22173 0.0
H881 H 0.39391 0.1385 0.25611 0.0
H882 H 0.3115 0.14042 0.20379 0.0
H883 H 0.36527 0.2357 0.14443 0.0
H884 H 0.44864 0.23243 0.18785 0.0
C885 C 0.44476 0.18586 0.23841 0.0
C886 C 0.36789 0.2111 0.31646 0.0
C887 C 0.39129 0.16075 0.08028 0.0
C888 C 0.31514 0.18797 0.15771 0.0
H889 H 0.42043 0.22482 0.37939 0.0
H890 H 0.46262 0.21003 0.33734 0.0
H891 H 0.47454 0.16243 0.16804 0.0
H892 H 0.4451 0.14894 0.08083 0.0
H893 H 0.33979 0.14946 1.01614 0.0
H894 H 0.29804 0.16515 0.05775 0.0
H895 H 0.28448 0.20963 0.22989 0.0
H896 H 0.31394 0.22216 0.3176 0.0
H897 H 0.39324 0.28704 0.11313 0.0
H898 H 0.47804 0.28345 0.15504 0.0
H899 H 0.28171 0.0891 0.23408 0.0
H900 H 0.36504 0.08673 0.28733 0.0
C901 C 0.89223 0.23847 0.12782 0.0
C902 C 0.89365 0.26767 0.12209 0.0
C903 C 0.88397 0.27479 0.16689 0.0
C904 C 0.87735 0.24964 0.19716 0.0
N905 N 0.88245 0.22697 0.17459 0.0
Co906 Co 0.87658 0.18667 0.20482 0.0
N907 N 0.86107 0.19659 0.26954 0.0
C908 C 0.85554 0.22132 0.27959 0.0
C909 C 0.84441 0.22137 0.32752 0.0
C910 C 0.84312 0.19527 0.34958 0.0
C911 C 0.85372 0.1809 0.31363 0.0
N912 N 0.87172 0.1468 0.23581 0.0
C913 C 0.86487 0.13681 0.28408 0.0
C914 C 0.86558 0.10861 0.29122 0.0
C915 C 0.87354 0.10056 0.24565 0.0
C916 C 0.87733 0.12432 0.21371 0.0
N917 N 0.89144 0.17647 0.13952 0.0
C918 C 0.89408 0.15032 0.12795 0.0
C919 C 0.90403 0.14964 0.07942 0.0
C920 C 0.90755 0.1768 0.05848 0.0
C921 C 0.89961 0.19259 0.09574 0.0
N922 N 0.92012 0.20656 0.23035 0.0
C923 C 0.98188 0.23442 0.26654 0.0
C924 C 0.97029 0.20618 0.24127 0.0
C925 C 0.93982 0.19291 0.22346 0.0
C926 C 0.96186 0.24848 0.27316 0.0
C927 C 0.93131 0.23416 0.2555 0.0
N928 N 0.83278 0.16656 0.17939 0.0
C929 C 0.78846 0.12125 0.14971 0.0
C930 C 0.76987 0.13704 0.14836 0.0
C931 C 0.78366 0.16817 0.16154 0.0
C932 C 0.81467 0.18225 0.17721 0.0
C933 C 0.81952 0.13632 0.16446 0.0
H934 H 0.82334 0.20584 0.18774 0.0
H935 H 0.83225 0.12285 0.1635 0.0
H936 H 0.93268 0.17153 0.20412 0.0
H937 H 0.91704 0.24577 0.26276 0.0
C938 C 0.8641 0.24559 0.24534 0.0
C939 C 0.89806 0.22173 0.0866 0.0
C940 C 0.859 0.15399 0.32455 0.0
C941 C 0.88732 0.12691 0.1635 0.0
H942 H 0.90022 0.28189 0.08846 0.0
H943 H 0.8812 0.29542 0.17582 0.0
H944 H 0.83909 0.2389 0.345 0.0
H945 H 0.83623 0.18814 0.38828 0.0
H946 H 0.86132 0.09555 0.32598 0.0
H947 H 0.87696 0.08022 0.23716 0.0
H948 H 0.90791 0.13141 0.06125 0.0
H949 H 0.91461 0.18389 0.01985 0.0
H950 H 0.98486 0.19447 0.23451 0.0
H951 H 0.9696 0.27028 0.29269 0.0
H952 H 0.77912 0.09725 0.13895 0.0
H953 H 0.77034 0.18152 0.16096 0.0
C954 C 0.02867 0.47577 0.30792 0.0
C955 C 0.02708 0.49913 0.33888 0.0
C956 C 0.03017 0.47782 0.25404 0.0
C957 C 0.0298 0.5032 0.22759 0.0
H958 H 0.0286 0.45547 0.32553 0.0
H959 H 0.03147 0.45915 0.23278 0.0
S960 S 0.02459 0.57026 0.28964 0.0
N961 N 0.0251 0.54863 0.33767 0.0
N962 N 0.02636 0.55175 0.23789 0.0
C963 C 0.02771 0.52646 0.25808 0.0
C964 C 0.02667 0.52459 0.31288 0.0
C965 C 0.5935 0.55714 0.29352 0.0
C966 C 0.57123 0.53347 0.32333 0.0
C967 C 0.59216 0.55736 0.23967 0.0
C968 C 0.56871 0.53372 0.21211 0.0
H969 H 0.61232 0.57577 0.31204 0.0
H970 H 0.60985 0.57631 0.21932 0.0
S971 S 0.50473 0.46609 0.27095 0.0
N972 N 0.52463 0.48577 0.31995 0.0
N973 N 0.52273 0.48566 0.22007 0.0
C974 C 0.54639 0.50989 0.24145 0.0
C975 C 0.54757 0.50983 0.29626 0.0
C976 C 0.54261 0.05083 0.22047 0.0
C977 C 0.51399 0.04211 0.19715 0.0
C978 C 0.54575 0.05674 0.27229 0.0
C979 C 0.52031 0.05406 0.30226 0.0
H980 H 0.5623 0.05174 0.19885 0.0
H981 H 0.56777 0.06152 0.28941 0.0
S982 S 0.44137 0.03546 0.25693 0.0
N983 N 0.46047 0.03331 0.20584 0.0
N984 N 0.4664 0.04526 0.30365 0.0
C985 C 0.49202 0.04725 0.27848 0.0
C986 C 0.48883 0.04101 0.2257 0.0
C987 C 0.02864 0.48921 0.75951 0.0
C988 C 0.02813 0.5129 0.72838 0.0
C989 C 0.02858 0.49084 0.8134 0.0
C990 C 0.0279 0.51622 0.8397 0.0
H991 H 0.02889 0.46897 0.74197 0.0
H992 H 0.02896 0.47187 0.83481 0.0
S993 S 0.02524 0.58413 0.7772 0.0
N994 N 0.02713 0.56286 0.72933 0.0
N995 N 0.02508 0.56501 0.82905 0.0
C996 C 0.0269 0.53982 0.80906 0.0
C997 C 0.02752 0.53841 0.75424 0.0
C998 C 0.5814 0.54455 0.7412 0.0
C999 C 0.55882 0.52103 0.71221 0.0
C1000 C 0.58094 0.54414 0.79508 0.0
C1001 C 0.5578 0.52025 0.82324 0.0
H1002 H 0.59976 0.56351 0.72196 0.0
H1003 H 0.59893 0.56283 0.81499 0.0
S1004 S 0.49321 0.45299 0.76654 0.0
N1005 N 0.51235 0.47321 0.7169 0.0
N1006 N 0.5119 0.47209 0.81686 0.0
C1007 C 0.53517 0.49658 0.79471 0.0
C1008 C 0.53557 0.49706 0.73991 0.0
C1009 C 0.53767 0.99072 0.82647 0.0
C1010 C 0.56516 1.00422 0.85363 0.0
C1011 C 0.53822 0.99037 0.77376 0.0
C1012 C 0.56633 1.00355 0.7467 0.0
H1013 H 0.51561 0.98237 0.84604 0.0
H1014 H 0.51638 0.98174 0.75422 0.0
S1015 S 0.64467 0.03737 0.80178 0.0
N1016 N 0.62109 0.02799 0.85126 0.0
N1017 N 0.62239 0.02684 0.75142 0.0
C1018 C 0.59406 0.01485 0.77385 0.0
C1019 C 0.59341 0.01526 0.82765 0.0
C1020 C 0.7223 0.84561 0.63202 0.0
C1021 C 0.72186 0.86995 0.66181 0.0
C1022 C 0.72268 0.84635 0.57803 0.0
C1023 C 0.72231 0.87132 0.5503 0.0
H1024 H 0.72227 0.82561 0.65065 0.0
H1025 H 0.7234 0.82711 0.55773 0.0
S1026 S 0.71989 0.94053 0.609 0.0
N1027 N 0.72047 0.91965 0.65813 0.0
N1028 N 0.72057 0.92077 0.55817 0.0
C1029 C 0.72141 0.89557 0.57964 0.0
C1030 C 0.7212 0.89489 0.63455 0.0
C1031 C 0.21833 0.86921 0.64495 0.0
C1032 C 0.19446 0.84556 0.67226 0.0
C1033 C 0.21889 0.87035 0.59124 0.0
C1034 C 0.19571 0.84779 0.56181 0.0
H1035 H 0.23675 0.88716 0.6654 0.0
H1036 H 0.23763 0.8892 0.57251 0.0
S1037 S 0.12811 0.78085 0.61396 0.0
N1038 N 0.1469 0.79907 0.66483 0.0
N1039 N 0.14826 0.80086 0.56489 0.0
C1040 C 0.17184 0.82398 0.58864 0.0
C1041 C 0.17119 0.8229 0.64328 0.0
C1042 C 0.19098 0.34509 0.594 0.0
C1043 C 0.21578 0.3447 0.56498 0.0
C1044 C 0.191 0.34514 0.64789 0.0
C1045 C 0.21568 0.34448 0.67601 0.0
H1046 H 0.17122 0.34526 0.5748 0.0
H1047 H 0.17145 0.34578 0.66779 0.0
S1048 S 0.28628 0.34318 0.61922 0.0
N1049 N 0.26597 0.34403 0.56963 0.0
N1050 N 0.26557 0.34314 0.66955 0.0
C1051 C 0.2405 0.34395 0.64743 0.0
C1052 C 0.24063 0.34423 0.59267 0.0
C1053 C 0.72407 0.91142 0.13254 0.0
C1054 C 0.72486 0.88672 0.16058 0.0
C1055 C 0.72565 0.91254 0.07861 0.0
C1056 C 0.72783 0.8889 0.04919 0.0
H1057 H 0.72208 0.93014 0.15256 0.0
H1058 H 0.72502 0.93216 0.05967 0.0
S1059 S 0.73004 0.81856 0.10296 0.0
N1060 N 0.72813 0.83797 0.15347 0.0
N1061 N 0.72986 0.83944 0.0536 0.0
C1062 C 0.72835 0.86396 0.07678 0.0
C1063 C 0.7271 0.863 0.13163 0.0
C1064 C 0.19956 0.82539 0.08839 0.0
C1065 C 0.18316 0.83908 0.06171 0.0
C1066 C 0.19948 0.82373 0.14207 0.0
C1067 C 0.18668 0.83931 0.17346 0.0
H1068 H 0.21247 0.81527 0.06772 0.0
H1069 H 0.20981 0.80998 0.15885 0.0
S1070 S 0.14173 0.88008 0.12447 0.0
N1071 N 0.14967 0.86494 0.0734 0.0
N1072 N 0.15898 0.87146 0.1715 0.0
C1073 C 0.17171 0.85472 0.14722 0.0
C1074 C 0.16794 0.85254 0.09273 0.0
C1075 C 0.20196 0.34307 0.09372 0.0
C1076 C 0.2268 0.34276 0.0647 0.0
C1077 C 0.20244 0.34426 0.14759 0.0
C1078 C 0.22789 0.34546 0.17576 0.0
H1079 H 0.18189 0.34249 0.07452 0.0
H1080 H 0.18256 0.34417 0.16747 0.0
S1081 S 0.29905 0.34531 0.119 0.0
N1082 N 0.27738 0.34294 0.06954 0.0
N1083 N 0.27903 0.34698 0.16919 0.0
C1084 C 0.25295 0.34543 0.14715 0.0
C1085 C 0.25221 0.34361 0.09245 0.0
C1086 C 0.4101 0.18946 1.00019 0.0
C1087 C 0.40164 0.16205 0.02735 0.0
C1088 C 0.41554 0.19041 0.94817 0.0
C1089 C 0.41278 0.16394 0.92176 0.0
H1090 H 0.41104 0.20988 0.01897 0.0
H1091 H 0.41999 0.21151 0.92814 0.0
S1092 S 0.39509 0.08761 0.97782 0.0
N1093 N 0.39305 0.10862 0.02598 0.0
N1094 N 0.40448 0.1105 0.92791 0.0
C1095 C 0.4064 0.13692 0.94939 0.0
C1096 C 0.40049 0.13593 1.00236 0.0
C1097 C 0.85772 0.22007 0.96507 0.0
C1098 C 0.88225 0.23066 0.9299 0.0
C1099 C 0.86328 0.21944 0.01668 0.0
C1100 C 0.89349 0.22936 0.03436 0.0
H1101 H 0.83406 0.21027 0.95222 0.0
H1102 H 0.84384 0.20926 0.04253 0.0
S1103 S 0.96563 0.26246 0.95879 0.0
N1104 N 0.93787 0.25389 0.91682 0.0
N1105 N 0.94821 0.25292 1.01452 0.0
C1106 C 0.91827 0.24237 1.00037 0.0
C1107 C 0.91266 0.24302 0.94775 0.0
C1108 C 0.82134 0.63726 0.97882 0.0
C1109 C 0.80576 0.65369 0.99894 0.0
C1110 C 0.82444 0.63514 0.9266 0.0
C1111 C 0.81152 0.64893 0.8929 0.0
H1112 H 0.83458 0.62949 1.00331 0.0
H1113 H 0.83989 0.62559 0.9132 0.0
S1114 S 0.75984 0.68541 0.92812 0.0
N1115 N 0.77188 0.67818 0.98272 0.0
N1116 N 0.77558 0.67218 0.88394 0.0
C1117 C 0.79161 0.66092 0.91296 0.0
C1118 C 0.78922 0.6638 0.96628 0.0
C1119 C 0.36339 0.23066 0.40165 0.0
C1120 C 0.35675 0.20564 0.36915 0.0
C1121 C 0.36201 0.2265 0.45412 0.0
C1122 C 0.35416 0.19725 0.47524 0.0
H1123 H 0.37192 0.25374 0.38648 0.0
H1124 H 0.36902 0.24653 0.47825 0.0
S1125 S 0.3318 0.1242 0.40462 0.0
N1126 N 0.33929 0.15064 0.36041 0.0
N1127 N 0.33719 0.14258 0.4591 0.0
C1128 C 0.34508 0.17175 0.44273 0.0
C1129 C 0.3463 0.17605 0.38948 0.0
C1130 C 0.88986 0.16649 0.40261 0.0
C1131 C 0.86272 0.14735 0.37766 0.0
C1132 C 0.89126 0.16647 0.45533 0.0
C1133 C 0.86544 0.14742 0.4844 0.0
H1134 H 0.9093 0.18305 0.38138 0.0
H1135 H 0.91179 0.18318 0.47342 0.0
S1136 S 0.79074 0.08989 0.43565 0.0
N1137 N 0.81086 0.10667 0.38444 0.0
N1138 N 0.81347 0.10612 0.48408 0.0
C1139 C 0.83911 0.12632 0.45942 0.0
C1140 C 0.83774 0.12642 0.40574 0.0
C1141 C 0.94591 0.69382 0.44693 0.0
C1142 C 0.95101 0.71785 0.48105 0.0
C1143 C 0.95075 0.69963 0.39515 0.0
C1144 C 0.96047 0.72963 0.37611 0.0
H1145 H 0.93527 0.67017 0.45982 0.0
H1146 H 0.94315 0.6801 0.3698 0.0
S1147 S 0.98468 0.80098 0.45146 0.0
N1148 N 0.97207 0.77304 0.49385 0.0
N1149 N 0.98141 0.78407 0.39595 0.0
C1150 C 0.96995 0.75416 0.41054 0.0
C1151 C 0.96506 0.74823 0.46338 0.0
C1152 C 0.12947 0.44614 0.99182 0.0
C1153 C 0.10097 0.44116 0.97003 0.0
C1154 C 0.14752 0.43172 0.97287 0.0
C1155 C 0.13792 0.41153 0.93129 0.0
H1156 H 0.13787 0.46118 0.0242 0.0
H1157 H 0.16902 0.43611 0.99147 0.0
S1158 S 0.06655 0.39247 0.85759 0.0
N1159 N 0.06503 0.41578 0.90236 0.0
N1160 N 0.09865 0.38858 0.86729 0.0
C1161 C 0.10965 0.40654 0.90879 0.0
C1162 C 0.0913 0.42131 0.92798 0.0
C1163 C 0.66255 0.70827 0.8932 0.0
C1164 C 0.65629 0.73149 0.91629 0.0
C1165 C 0.64899 0.67755 0.91117 0.0
C1166 C 0.62827 0.66843 0.95285 0.0
H1167 H 0.67861 0.71399 0.86164 0.0
H1168 H 0.65463 0.66073 0.89187 0.0
S1169 S 0.60358 0.72014 0.02634 0.0
N1170 N 0.62685 0.74259 0.98224 0.0
N1171 N 0.60273 0.68591 0.01692 0.0
C1172 C 0.62172 0.69146 0.97596 0.0
C1173 C 0.63532 0.72256 0.95754 0.0
C1174 C 0.34239 0.90892 0.96029 0.0
C1175 C 0.33168 0.91491 0.91393 0.0
C1176 C 0.37336 0.9254 0.97545 0.0
C1177 C 0.39541 0.94872 0.94501 0.0
H1178 H 0.32653 0.89163 0.98568 0.0
H1179 H 0.37995 0.92004 1.0119 0.0
S1180 S 0.3802 0.97155 0.81772 0.0
N1181 N 0.3464 0.94484 0.83631 0.0
N1182 N 0.40425 0.97538 0.86431 0.0
C1183 C 0.38511 0.95458 0.8981 0.0
C1184 C 0.3535 0.93785 0.88275 0.0
C1185 C 0.46819 0.08218 0.64336 0.0
C1186 C 0.47917 0.08481 0.59316 0.0
C1187 C 0.45107 0.09816 0.66003 0.0
C1188 C 0.44437 0.11742 0.62714 0.0
H1189 H 0.47326 0.068 0.67007 0.0
H1190 H 0.44341 0.09583 0.69911 0.0
S1191 S 0.46692 0.13132 0.4918 0.0
N1192 N 0.48142 0.10757 0.5106 0.0
N1193 N 0.44935 0.13744 0.54176 0.0
C1194 C 0.45481 0.11982 0.57675 0.0
C1195 C 0.47219 0.1036 0.55984 0.0
C1196 C 0.92109 0.32059 0.6562 0.0
C1197 C 0.92271 0.29569 0.63014 0.0
C1198 C 0.93645 0.35112 0.63819 0.0
C1199 C 0.95486 0.35847 0.59382 0.0
H1200 H 0.90781 0.31643 0.69101 0.0
H1201 H 0.93428 0.36926 0.65976 0.0
S1202 S 0.96693 0.30182 0.51152 0.0
N1203 N 0.94413 0.28063 0.55734 0.0
N1204 N 0.9735 0.33771 0.52422 0.0
C1205 C 0.95699 0.33379 0.56778 0.0
C1206 C 0.94091 0.30263 0.58574 0.0
C1207 C 0.76492 0.61538 0.57332 0.0
C1208 C 0.77172 0.62944 0.62139 0.0
C1209 C 0.73429 0.60055 0.55549 0.0
C1210 C 0.70897 0.59969 0.58428 0.0
H1211 H 0.78351 0.61605 0.54904 0.0
H1212 H 0.73048 0.59014 0.51832 0.0
S1213 S 0.71415 0.63292 0.7128 0.0
N1214 N 0.75034 0.64119 0.69753 0.0
N1215 N 0.69322 0.61411 0.66405 0.0
C1216 C 0.71555 0.61391 0.63225 0.0
C1217 C 0.74668 0.62859 0.65064 0.0
C1218 C 0.91744 0.61809 0.06865 0.0
C1219 C 0.93026 0.6411 0.10564 0.0
C1220 C 0.93188 0.59901 0.05454 0.0
C1221 C 0.95946 0.60191 0.07747 0.0
H1222 H 0.89583 0.61448 0.05119 0.0
H1223 H 0.92084 0.58119 0.02671 0.0
S1224 S 1.00297 0.65978 0.17465 0.0
N1225 N 0.97254 0.66638 0.16352 0.0
N1226 N 0.99965 0.631 0.13731 0.0
C1227 C 0.97273 0.6254 0.11369 0.0
C1228 C 0.95816 0.6448 0.1277 0.0
C1229 C 0.48192 0.34396 0.13732 0.0
C1230 C 0.45657 0.32236 0.11036 0.0
C1231 C 0.49868 0.37449 0.12006 0.0
C1232 C 0.49086 0.38508 0.07509 0.0
H1233 H 0.48857 0.33744 0.17277 0.0
H1234 H 0.51752 0.39016 0.14284 0.0
S1235 S 0.42891 0.33732 0.98702 0.0
N1236 N 0.42639 0.3136 0.03364 0.0
N1237 N 0.45731 0.37066 1.00207 0.0
C1238 C 0.46608 0.36361 0.04714 0.0
C1239 C 0.44915 0.33248 0.06448 0.0
C1240 C 0.72461 0.13202 0.09384 0.0
C1241 C 0.73637 0.12101 0.13381 0.0
C1242 C 0.69342 0.11672 0.07899 0.0
C1243 C 0.67225 0.08985 0.10382 0.0
H1244 H 0.73984 0.15233 0.07313 0.0
H1245 H 0.68602 0.12582 0.04706 0.0
S1246 S 0.69073 0.05385 0.21518 0.0
N1247 N 0.72395 0.08273 0.20003 0.0
N1248 N 0.66551 0.05481 0.174 0.0
C1249 C 0.68367 0.07928 0.14506 0.0
C1250 C 0.71553 0.0946 0.15953 0.0
C1251 C 0.60573 0.97074 0.40519 0.0
C1252 C 0.60896 0.98272 0.45456 0.0
C1253 C 0.62377 0.95595 0.38765 0.0
C1254 C 0.64622 0.95306 0.41844 0.0
H1255 H 0.58898 0.97271 0.38001 0.0
H1256 H 0.6203 0.94694 0.34949 0.0
S1257 S 0.66321 0.97989 0.55116 0.0
N1258 N 0.63577 0.98999 0.53433 0.0
N1259 N 0.6701 0.963 0.50122 0.0
C1260 C 0.64978 0.96514 0.46778 0.0
C1261 C 0.6311 0.97975 0.48583 0.0
C1262 C 0.09139 0.66514 0.49124 0.0
C1263 C 0.09534 0.64075 0.46773 0.0
C1264 C 0.10653 0.69561 0.47305 0.0
C1265 C 0.12617 0.70327 0.43002 0.0
H1266 H 0.07675 0.66072 0.52452 0.0
H1267 H 0.10301 0.71342 0.4934 0.0
S1268 S 0.1419 0.64726 0.3516 0.0
N1269 N 0.11914 0.62613 0.39745 0.0
N1270 N 0.14687 0.68284 0.36266 0.0
C1271 C 0.12984 0.67889 0.40566 0.0
C1272 C 0.11464 0.64791 0.42454 0.0
C1273 C 0.38714 0.41129 0.41137 0.0
C1274 C 0.36303 0.41815 0.42949 0.0
C1275 C 0.41794 0.42795 0.42748 0.0
C1276 C 0.4262 0.45225 0.46272 0.0
H1277 H 0.3823 0.39322 0.38369 0.0
H1278 H 0.43555 0.42206 0.41139 0.0
S1279 S 0.37124 0.47703 0.52656 0.0
N1280 N 0.34942 0.44954 0.48779 0.0
N1281 N 0.40671 0.4804 0.51818 0.0
C1282 C 0.40211 0.45874 0.48215 0.0
C1283 C 0.37082 0.44186 0.46561 0.0
C1284 C 0.83794 0.78766 0.28189 0.0
C1285 C 0.8251 0.76629 0.24259 0.0
C1286 C 0.82255 0.80454 0.30186 0.0
C1287 C 0.79352 0.80055 0.28367 0.0
H1288 H 0.86002 0.79122 0.29747 0.0
H1289 H 0.8333 0.82054 0.33233 0.0
S1290 S 0.75081 0.74823 0.1793 0.0
N1291 N 0.78222 0.74254 0.18534 0.0
N1292 N 0.75332 0.77419 0.2222 0.0
C1293 C 0.78062 0.77931 0.24401 0.0
C1294 C 0.79637 0.76222 0.2237 0.0
C1295 C 0.31193 0.02742 0.27139 0.0
C1296 C 0.30212 0.05057 0.2822 0.0
C1297 C 0.29453 0.99661 0.28669 0.0
C1298 C 0.2664 0.98726 0.31379 0.0
H1299 H 0.33303 0.03303 0.24999 0.0
H1300 H 0.30304 0.97983 0.27643 0.0
S1301 S 0.23196 0.03938 0.35658 0.0
N1302 N 0.26327 0.06212 0.32493 0.0
N1303 N 0.23087 1.00467 0.35371 0.0
C1304 C 0.25666 0.01033 0.32576 0.0
C1305 C 0.27437 0.04172 0.31008 0.0
C1306 C 0.06549 0.29356 0.28856 0.0
C1307 C 0.0782 0.27762 0.31845 0.0
C1308 C 0.03446 0.27972 0.27266 0.0
C1309 C 0.01461 0.24911 0.28533 0.0
H1310 H 0.07978 0.31689 0.27646 0.0
H1311 H 0.02612 0.29295 0.2493 0.0
S1312 S 0.03479 0.19789 0.36678 0.0
N1313 N 0.067 0.22987 0.36322 0.0
N1314 N 0.00941 0.20388 0.3322 0.0
C1315 C 0.02673 0.23302 0.31578 0.0
C1316 C 0.05821 0.24719 0.3325 0.0
C1317 C 0.30878 0.23956 0.74308 0.0
C1318 C 0.33363 0.2385 0.76959 0.0
C1319 C 0.29268 0.25603 0.76186 0.0
C1320 C 0.30109 0.27266 0.80752 0.0
H1321 H 0.30165 0.2274 0.70755 0.0
H1322 H 0.27358 0.25596 0.74023 0.0
S1323 S 0.36395 0.27672 0.89212 0.0
N1324 N 0.3652 0.25479 0.84479 0.0
N1325 N 0.33575 0.28655 0.87911 0.0
C1326 C 0.32603 0.27198 0.83421 0.0
C1327 C 0.34205 0.25472 0.81555 0.0
C1328 C 0.79566 0.06724 0.79656 0.0
C1329 C 0.81351 0.07569 0.75163 0.0
C1330 C 0.78129 0.03637 0.81334 0.0
C1331 C 0.78468 0.01257 0.78664 0.0
H1332 H 0.79298 0.08473 0.81922 0.0
H1333 H 0.76795 0.03121 0.84817 0.0
S1334 S 0.82835 0.02223 0.66613 0.0
N1335 N 0.83301 0.05739 0.68023 0.0
N1336 N 0.8068 0.99984 0.71201 0.0
C1337 C 0.80247 0.02076 0.74167 0.0
C1338 C 0.81669 0.05209 0.72424 0.0
C1339 C 0.03556 0.77966 0.76782 0.0
C1340 C 0.045 0.77257 0.81446 0.0
C1341 C 1.00509 0.76324 0.75014 0.0
C1342 C 0.98232 0.7394 0.77877 0.0
H1343 H 0.05211 0.79762 0.7442 0.0
H1344 H 0.9993 0.76918 0.71348 0.0
S1345 S 0.99466 0.71252 0.90433 0.0
N1346 N 0.02882 0.74001 0.88902 0.0
N1347 N 0.97156 0.71025 0.85697 0.0
C1348 C 0.99138 0.73243 0.82578 0.0
C1349 C 0.02258 0.7487 0.84329 0.0
loop_
_geom_bond_atom_site_label_1
_geom_bond_atom_site_label_2
_geom_bond_distance
_geom_bond_site_symmetry_2
_ccdc_geom_bond_type
C0 C1 1.443 . S
C0 N4 1.376 . S
C0 C38 1.379 1_655 S
C1 C0 1.443 . S
C1 C2 1.340 . S
C1 H41 0.951 . S
C2 C1 1.340 . S
C2 C3 1.439 . S
C2 H42 0.950 . S
C3 C2 1.439 . S
C3 N4 1.374 . S
C3 C37 1.395 . S
N4 C0 1.376 . S
N4 C3 1.374 . S
N4 Co5 2.003 1_655 S
Co5 N4 2.003 1_455 S
Co5 N6 1.988 1_454 S
Co5 N11 2.014 1_554 S
Co5 N16 2.001 . S
Co5 N21 2.293 1_554 S
Co5 N27 2.272 1_455 S
N6 Co5 1.988 1_656 S
N6 C7 1.376 . S
N6 C10 1.383 . S
C7 N6 1.376 . S
C7 C8 1.446 . S
C7 C37 1.391 1_556 S
C8 C7 1.446 . S
C8 C9 1.339 . S
C8 H43 0.949 . S
C9 C8 1.339 . S
C9 C10 1.439 . S
C9 H44 0.950 . S
C10 N6 1.383 . S
C10 C9 1.439 . S
C10 C39 1.387 1_655 S
N11 Co5 2.014 1_556 S
N11 C12 1.376 . S
N11 C15 1.374 . S
C12 N11 1.376 . S
C12 C13 1.443 . S
C12 C39 1.394 . S
C13 C12 1.443 . S
C13 C14 1.340 . S
C13 H45 0.951 . S
C14 C13 1.340 . S
C14 C15 1.439 . S
C14 H46 0.950 . S
C15 N11 1.374 . S
C15 C14 1.439 . S
C15 C40 1.395 1_556 S
N16 Co5 2.001 . S
N16 C17 1.376 . S
N16 C20 1.383 . S
C17 N16 1.376 . S
C17 C18 1.446 . S
C17 C40 1.391 . S
C18 C17 1.446 . S
C18 C19 1.339 . S
C18 H47 0.949 . S
C19 C18 1.339 . S
C19 C20 1.439 . S
C19 H48 0.950 . S
C20 N16 1.383 . S
C20 C19 1.439 . S
C20 C38 1.402 . S
N21 Co5 2.293 1_556 S
N21 C24 1.332 . S
N21 C26 1.332 . S
C22 C23 1.386 . S
C22 C25 1.388 . S
C23 C22 1.386 . S
C23 C24 1.382 . S
C23 H49 0.950 . S
C24 N21 1.332 . S
C24 C23 1.382 . S
C24 H35 0.952 1_556 S
C25 C22 1.388 . S
C25 C26 1.382 . S
C25 H50 0.950 . S
C26 N21 1.332 . S
C26 C25 1.382 . S
C26 H36 0.948 1_455 S
N27 Co5 2.272 1_655 S
N27 C31 1.332 . S
N27 C32 1.332 . S
C28 C29 1.388 . S
C28 C32 1.382 . S
C28 H51 0.950 . S
C29 C28 1.388 . S
C29 C30 1.386 . S
C30 C29 1.386 . S
C30 C31 1.382 . S
C30 H52 0.950 . S
C31 N27 1.332 . S
C31 C30 1.382 . S
C31 H33 0.952 . S
C32 N27 1.332 . S
C32 C28 1.382 . S
C32 H34 0.948 1_655 S
H33 C31 0.952 . S
H34 C32 0.948 1_455 S
H35 C24 0.952 1_554 S
H36 C26 0.948 1_655 S
C37 C3 1.395 . S
C37 C7 1.391 1_554 S
C38 C0 1.379 1_455 S
C38 C20 1.402 . S
C39 C10 1.387 1_455 S
C39 C12 1.394 . S
C40 C15 1.395 1_554 S
C40 C17 1.391 . S
H41 C1 0.951 . S
H42 C2 0.950 . S
H43 C8 0.949 . S
H44 C9 0.950 . S
H45 C13 0.951 . S
H46 C14 0.950 . S
H47 C18 0.949 . S
H48 C19 0.950 . S
H49 C23 0.950 . S
H50 C25 0.950 . S
H51 C28 0.950 . S
H52 C30 0.950 . S
C53 C54 1.443 . S
C53 N57 1.376 . S
C53 C91 1.389 . S
C54 C53 1.443 . S
C54 C55 1.340 . S
C54 H94 0.951 . S
C55 C54 1.340 . S
C55 C56 1.439 . S
C55 H95 0.950 . S
C56 C55 1.439 . S
C56 N57 1.374 . S
C56 C90 1.395 1_556 S
N57 C53 1.376 . S
N57 C56 1.374 . S
N57 Co58 2.008 1_556 S
Co58 N57 2.008 1_554 S
Co58 N59 1.995 . S
Co58 N64 2.008 . S
Co58 N69 1.995 1_554 S
Co58 N74 2.282 . S
Co58 N80 2.282 1_554 S
N59 Co58 1.995 . S
N59 C60 1.376 . S
N59 C63 1.383 . S
C60 N59 1.376 . S
C60 C61 1.446 . S
C60 C90 1.391 . S
C61 C60 1.446 . S
C61 C62 1.339 . S
C61 H96 0.949 . S
C62 C61 1.339 . S
C62 C63 1.439 . S
C62 H97 0.950 . S
C63 N59 1.383 . S
C63 C62 1.439 . S
C63 C92 1.392 . S
N64 Co58 2.008 . S
N64 C65 1.376 . S
N64 C68 1.374 . S
C65 N64 1.376 . S
C65 C66 1.443 . S
C65 C92 1.389 . S
C66 C65 1.443 . S
C66 C67 1.340 . S
C66 H98 0.951 . S
C67 C66 1.340 . S
C67 C68 1.439 . S
C67 H99 0.950 . S
C68 N64 1.374 . S
C68 C67 1.439 . S
C68 C93 1.395 . S
N69 Co58 1.995 1_556 S
N69 C70 1.376 . S
N69 C73 1.383 . S
C70 N69 1.376 . S
C70 C71 1.446 . S
C70 C93 1.391 1_556 S
C71 C70 1.446 . S
C71 C72 1.339 . S
C71 H100 0.949 . S
C72 C71 1.339 . S
C72 C73 1.439 . S
C72 H101 0.950 . S
C73 N69 1.383 . S
C73 C72 1.439 . S
C73 C91 1.392 . S
N74 Co58 2.282 . S
N74 C77 1.332 . S
N74 C79 1.332 . S
C75 C76 1.386 . S
C75 C78 1.388 . S
C76 C75 1.386 . S
C76 C77 1.382 . S
C76 H102 0.950 . S
C77 N74 1.332 . S
C77 C76 1.382 . S
C77 H88 0.952 . S
C78 C75 1.388 . S
C78 C79 1.382 . S
C78 H103 0.950 . S
C79 N74 1.332 . S
C79 C78 1.382 . S
C79 H89 0.948 . S
N80 Co58 2.282 1_556 S
N80 C84 1.332 . S
N80 C85 1.332 . S
C81 C82 1.388 . S
C81 C85 1.382 . S
C81 H104 0.950 . S
C82 C81 1.388 . S
C82 C83 1.386 . S
C83 C82 1.386 . S
C83 C84 1.382 . S
C83 H105 0.950 . S
C84 N80 1.332 . S
C84 C83 1.382 . S
C84 H86 0.952 1_556 S
C85 N80 1.332 . S
C85 C81 1.382 . S
C85 H87 0.948 . S
H86 C84 0.952 1_554 S
H87 C85 0.948 . S
H88 C77 0.952 . S
H89 C79 0.948 . S
C90 C56 1.395 1_554 S
C90 C60 1.391 . S
C91 C53 1.389 . S
C91 C73 1.392 . S
C92 C63 1.392 . S
C92 C65 1.389 . S
C93 C68 1.395 . S
C93 C70 1.391 1_554 S
H94 C54 0.951 . S
H95 C55 0.950 . S
H96 C61 0.949 . S
H97 C62 0.950 . S
H98 C66 0.951 . S
H99 C67 0.950 . S
H100 C71 0.949 . S
H101 C72 0.950 . S
H102 C76 0.950 . S
H103 C78 0.950 . S
H104 C81 0.950 . S
H105 C83 0.950 . S
C106 C107 1.443 . S
C106 N110 1.376 . S
C106 C144 1.389 . S
C107 C106 1.443 . S
C107 C108 1.340 . S
C107 H147 0.951 . S
C108 C107 1.340 . S
C108 C109 1.439 . S
C108 H148 0.950 . S
C109 C108 1.439 . S
C109 N110 1.374 . S
C109 C143 1.395 . S
N110 C106 1.376 . S
N110 C109 1.374 . S
N110 Co111 2.008 . S
Co111 N110 2.008 . S
Co111 N112 1.995 1_554 S
Co111 N117 2.008 1_544 S
Co111 N122 1.995 1_545 S
Co111 N127 2.282 1_544 S
Co111 N133 2.282 . S
N112 Co111 1.995 1_556 S
N112 C113 1.376 . S
N112 C116 1.383 . S
C113 N112 1.376 . S
C113 C114 1.446 . S
C113 C143 1.391 1_556 S
C114 C113 1.446 . S
C114 C115 1.339 . S
C114 H149 0.949 . S
C115 C114 1.339 . S
C115 C116 1.439 . S
C115 H150 0.950 . S
C116 N112 1.383 . S
C116 C115 1.439 . S
C116 C145 1.392 . S
N117 Co111 2.008 1_566 S
N117 C118 1.376 . S
N117 C121 1.374 . S
C118 N117 1.376 . S
C118 C119 1.443 . S
C118 C145 1.389 1_565 S
C119 C118 1.443 . S
C119 C120 1.340 . S
C119 H151 0.951 . S
C120 C119 1.340 . S
C120 C121 1.439 . S
C120 H152 0.950 . S
C121 N117 1.374 . S
C121 C120 1.439 . S
C121 C146 1.395 1_556 S
N122 Co111 1.995 1_565 S
N122 C123 1.376 . S
N122 C126 1.383 . S
C123 N122 1.376 . S
C123 C124 1.446 . S
C123 C146 1.391 . S
C124 C123 1.446 . S
C124 C125 1.339 . S
C124 H153 0.949 . S
C125 C124 1.339 . S
C125 C126 1.439 . S
C125 H154 0.950 . S
C126 N122 1.383 . S
C126 C125 1.439 . S
C126 C144 1.392 1_565 S
N127 Co111 2.282 1_566 S
N127 C130 1.332 . S
N127 C132 1.332 1_565 S
C128 C129 1.386 . S
C128 C131 1.388 . S
C129 C128 1.386 . S
C129 C130 1.382 . S
C129 H155 0.950 . S
C130 N127 1.332 . S
C130 C129 1.382 . S
C130 H141 0.952 1_556 S
C131 C128 1.388 . S
C131 C132 1.382 1_565 S
C131 H156 0.950 1_565 S
C132 N127 1.332 1_545 S
C132 C131 1.382 1_545 S
C132 H142 0.948 . S
N133 Co111 2.282 . S
N133 C137 1.332 . S
N133 C138 1.332 . S
C134 C135 1.388 . S
C134 C138 1.382 . S
C134 H157 0.950 . S
C135 C134 1.388 . S
C135 C136 1.386 . S
C136 C135 1.386 . S
C136 C137 1.382 . S
C136 H158 0.950 . S
C137 N133 1.332 . S
C137 C136 1.382 . S
C137 H139 0.952 . S
C138 N133 1.332 . S
C138 C134 1.382 . S
C138 H140 0.948 . S
H139 C137 0.952 . S
H140 C138 0.948 . S
H141 C130 0.952 1_554 S
H142 C132 0.948 . S
C143 C109 1.395 . S
C143 C113 1.391 1_554 S
C144 C106 1.389 . S
C144 C126 1.392 1_545 S
C145 C116 1.392 . S
C145 C118 1.389 1_545 S
C146 C121 1.395 1_554 S
C146 C123 1.391 . S
H147 C107 0.951 . S
H148 C108 0.950 . S
H149 C114 0.949 . S
H150 C115 0.950 . S
H151 C119 0.951 . S
H152 C120 0.950 . S
H153 C124 0.949 . S
H154 C125 0.950 . S
H155 C129 0.950 . S
H156 C131 0.950 1_545 S
H157 C134 0.950 . S
H158 C136 0.950 . S
C159 C160 1.443 . S
C159 N163 1.376 . S
C159 C197 1.389 1_545 S
C160 C159 1.443 . S
C160 C161 1.340 . S
C160 H200 0.951 . S
C161 C160 1.340 . S
C161 C162 1.439 . S
C161 H201 0.950 . S
C162 C161 1.439 . S
C162 N163 1.374 . S
C162 C196 1.395 . S
N163 C159 1.376 . S
N163 C162 1.374 . S
N163 Co164 2.008 . S
Co164 N163 2.008 . S
Co164 N165 1.995 . S
Co164 N170 2.008 . S
Co164 N175 1.995 1_545 S
Co164 N180 2.282 . S
Co164 N186 2.282 . S
N165 Co164 1.995 . S
N165 C166 1.376 . S
N165 C169 1.383 . S
C166 N165 1.376 . S
C166 C167 1.446 . S
C166 C196 1.391 . S
C167 C166 1.446 . S
C167 C168 1.339 . S
C167 H202 0.949 . S
C168 C167 1.339 . S
C168 C169 1.439 . S
C168 H203 0.950 . S
C169 N165 1.383 . S
C169 C168 1.439 . S
C169 C198 1.392 . S
N170 Co164 2.008 . S
N170 C171 1.376 . S
N170 C174 1.374 1_545 S
C171 N170 1.376 . S
C171 C172 1.443 . S
C171 C198 1.389 . S
C172 C171 1.443 . S
C172 C173 1.340 1_545 S
C172 H204 0.951 . S
C173 C172 1.340 1_565 S
C173 C174 1.439 . S
C173 H205 0.950 . S
C174 N170 1.374 1_565 S
C174 C173 1.439 . S
C174 C199 1.395 . S
N175 Co164 1.995 1_565 S
N175 C176 1.376 . S
N175 C179 1.383 . S
C176 N175 1.376 . S
C176 C177 1.446 . S
C176 C199 1.391 . S
C177 C176 1.446 . S
C177 C178 1.339 . S
C177 H206 0.949 . S
C178 C177 1.339 . S
C178 C179 1.439 . S
C178 H207 0.950 . S
C179 N175 1.383 . S
C179 C178 1.439 . S
C179 C197 1.392 . S
N180 Co164 2.282 . S
N180 C183 1.332 1_545 S
N180 C185 1.332 . S
C181 C182 1.386 1_545 S
C181 C184 1.388 . S
C182 C181 1.386 1_565 S
C182 C183 1.382 . S
C182 H208 0.950 . S
C183 N180 1.332 1_565 S
C183 C182 1.382 . S
C183 H194 0.952 . S
C184 C181 1.388 . S
C184 C185 1.382 . S
C184 H209 0.950 . S
C185 N180 1.332 . S
C185 C184 1.382 . S
C185 H195 0.948 . S
N186 Co164 2.282 . S
N186 C190 1.332 . S
N186 C191 1.332 1_545 S
C187 C188 1.388 1_565 S
C187 C191 1.382 . S
C187 H210 0.950 . S
C188 C187 1.388 1_545 S
C188 C189 1.386 . S
C189 C188 1.386 . S
C189 C190 1.382 . S
C189 H211 0.950 . S
C190 N186 1.332 . S
C190 C189 1.382 . S
C190 H192 0.952 . S
C191 N186 1.332 1_565 S
C191 C187 1.382 . S
C191 H193 0.948 . S
H192 C190 0.952 . S
H193 C191 0.948 . S
H194 C183 0.952 . S
H195 C185 0.948 . S
C196 C162 1.395 . S
C196 C166 1.391 . S
C197 C159 1.389 1_565 S
C197 C179 1.392 . S
C198 C169 1.392 . S
C198 C171 1.389 . S
C199 C174 1.395 . S
C199 C176 1.391 . S
H200 C160 0.951 . S
H201 C161 0.950 . S
H202 C167 0.949 . S
H203 C168 0.950 . S
H204 C172 0.951 . S
H205 C173 0.950 . S
H206 C177 0.949 . S
H207 C178 0.950 . S
H208 C182 0.950 . S
H209 C184 0.950 . S
H210 C187 0.950 . S
H211 C189 0.950 . S
C212 C213 1.443 . S
C212 N216 1.376 . S
C212 C250 1.388 1_455 S
C213 C212 1.443 . S
C213 C214 1.340 . S
C213 H253 0.951 . S
C214 C213 1.340 . S
C214 C215 1.439 . S
C214 H254 0.950 . S
C215 C214 1.439 . S
C215 N216 1.374 . S
C215 C249 1.395 . S
N216 C212 1.376 . S
N216 C215 1.374 . S
N216 Co217 2.008 . S
Co217 N216 2.008 . S
Co217 N218 1.995 . S
Co217 N223 2.008 1_455 S
Co217 N228 1.995 1_455 S
Co217 N233 2.282 1_455 S
Co217 N239 2.282 . S
N218 Co217 1.995 . S
N218 C219 1.376 . S
N218 C222 1.383 . S
C219 N218 1.376 . S
C219 C220 1.446 . S
C219 C249 1.391 . S
C220 C219 1.446 . S
C220 C221 1.339 . S
C220 H255 0.949 . S
C221 C220 1.339 . S
C221 C222 1.439 . S
C221 H256 0.950 . S
C222 N218 1.383 . S
C222 C221 1.439 . S
C222 C251 1.401 . S
N223 Co217 2.008 1_655 S
N223 C224 1.376 . S
N223 C227 1.374 . S
C224 N223 1.376 . S
C224 C225 1.443 . S
C224 C251 1.380 1_655 S
C225 C224 1.443 . S
C225 C226 1.340 . S
C225 H257 0.951 . S
C226 C225 1.340 . S
C226 C227 1.439 . S
C226 H258 0.950 . S
C227 N223 1.374 . S
C227 C226 1.439 . S
C227 C252 1.395 . S
N228 Co217 1.995 1_655 S
N228 C229 1.376 . S
N228 C232 1.383 . S
C229 N228 1.376 . S
C229 C230 1.446 . S
C229 C252 1.391 . S
C230 C229 1.446 . S
C230 C231 1.339 . S
C230 H259 0.949 . S
C231 C230 1.339 . S
C231 C232 1.439 . S
C231 H260 0.950 . S
C232 N228 1.383 . S
C232 C231 1.439 . S
C232 C250 1.392 . S
N233 Co217 2.282 1_655 S
N233 C236 1.332 . S
N233 C238 1.332 . S
C234 C235 1.386 . S
C234 C237 1.388 . S
C235 C234 1.386 . S
C235 C236 1.382 . S
C235 H261 0.950 . S
C236 N233 1.332 . S
C236 C235 1.382 . S
C236 H247 0.952 . S
C237 C234 1.388 . S
C237 C238 1.382 . S
C237 H262 0.950 . S
C238 N233 1.332 . S
C238 C237 1.382 . S
C238 H248 0.948 1_655 S
N239 Co217 2.282 . S
N239 C243 1.332 . S
N239 C244 1.332 . S
C240 C241 1.388 . S
C240 C244 1.382 . S
C240 H263 0.950 . S
C241 C240 1.388 . S
C241 C242 1.386 . S
C242 C241 1.386 . S
C242 C243 1.382 . S
C242 H264 0.950 . S
C243 N239 1.332 . S
C243 C242 1.382 . S
C243 H245 0.952 . S
C244 N239 1.332 . S
C244 C240 1.382 . S
C244 H246 0.948 1_455 S
H245 C243 0.952 . S
H246 C244 0.948 1_655 S
H247 C236 0.952 . S
H248 C238 0.948 1_455 S
C249 C215 1.395 . S
C249 C219 1.391 . S
C250 C212 1.388 1_655 S
C250 C232 1.392 . S
C251 C222 1.401 . S
C251 C224 1.380 1_455 S
C252 C227 1.395 . S
C252 C229 1.391 . S
H253 C213 0.951 . S
H254 C214 0.950 . S
H255 C220 0.949 . S
H256 C221 0.950 . S
H257 C225 0.951 . S
H258 C226 0.950 . S
H259 C230 0.949 . S
H260 C231 0.950 . S
H261 C235 0.950 . S
H262 C237 0.950 . S
H263 C240 0.950 . S
H264 C242 0.950 . S
C265 C266 1.443 . S
C265 N269 1.376 . S
C265 C303 1.389 . S
C266 C265 1.443 . S
C266 C267 1.340 . S
C266 H306 0.951 . S
C267 C266 1.340 . S
C267 C268 1.439 . S
C267 H307 0.950 . S
C268 C267 1.439 . S
C268 N269 1.374 . S
C268 C302 1.395 . S
N269 C265 1.376 . S
N269 C268 1.374 . S
N269 Co270 2.008 . S
Co270 N269 2.008 . S
Co270 N271 1.995 . S
Co270 N276 2.008 . S
Co270 N281 1.995 . S
Co270 N286 2.282 . S
Co270 N292 2.282 . S
N271 Co270 1.995 . S
N271 C272 1.376 . S
N271 C275 1.383 . S
C272 N271 1.376 . S
C272 C273 1.446 . S
C272 C302 1.391 . S
C273 C272 1.446 . S
C273 C274 1.339 . S
C273 H308 0.949 . S
C274 C273 1.339 . S
C274 C275 1.439 . S
C274 H309 0.950 . S
C275 N271 1.383 . S
C275 C274 1.439 . S
C275 C304 1.392 . S
N276 Co270 2.008 . S
N276 C277 1.376 . S
N276 C280 1.374 . S
C277 N276 1.376 . S
C277 C278 1.443 . S
C277 C304 1.389 . S
C278 C277 1.443 . S
C278 C279 1.340 . S
C278 H310 0.951 . S
C279 C278 1.340 . S
C279 C280 1.439 . S
C279 H311 0.950 . S
C280 N276 1.374 . S
C280 C279 1.439 . S
C280 C305 1.395 . S
N281 Co270 1.995 . S
N281 C282 1.376 . S
N281 C285 1.383 . S
C282 N281 1.376 . S
C282 C283 1.446 . S
C282 C305 1.391 . S
C283 C282 1.446 . S
C283 C284 1.339 . S
C283 H312 0.949 . S
C284 C283 1.339 . S
C284 C285 1.439 . S
C284 H313 0.950 . S
C285 N281 1.383 . S
C285 C284 1.439 . S
C285 C303 1.392 . S
N286 Co270 2.282 . S
N286 C289 1.332 . S
N286 C291 1.332 . S
C287 C288 1.386 . S
C287 C290 1.388 . S
C288 C287 1.386 . S
C288 C289 1.382 . S
C288 H314 0.950 . S
C289 N286 1.332 . S
C289 C288 1.382 . S
C289 H300 0.952 . S
C290 C287 1.388 . S
C290 C291 1.382 . S
C290 H315 0.950 . S
C291 N286 1.332 . S
C291 C290 1.382 . S
C291 H301 0.948 . S
N292 Co270 2.282 . S
N292 C296 1.332 . S
N292 C297 1.332 . S
C293 C294 1.388 . S
C293 C297 1.382 . S
C293 H316 0.950 . S
C294 C293 1.388 . S
C294 C295 1.386 . S
C295 C294 1.386 . S
C295 C296 1.382 . S
C295 H317 0.950 . S
C296 N292 1.332 . S
C296 C295 1.382 . S
C296 H298 0.952 . S
C297 N292 1.332 . S
C297 C293 1.382 . S
C297 H299 0.948 . S
H298 C296 0.952 . S
H299 C297 0.948 . S
H300 C289 0.952 . S
H301 C291 0.948 . S
C302 C268 1.395 . S
C302 C272 1.391 . S
C303 C265 1.389 . S
C303 C285 1.392 . S
C304 C275 1.392 . S
C304 C277 1.389 . S
C305 C280 1.395 . S
C305 C282 1.391 . S
H306 C266 0.951 . S
H307 C267 0.950 . S
H308 C273 0.949 . S
H309 C274 0.950 . S
H310 C278 0.951 . S
H311 C279 0.950 . S
H312 C283 0.949 . S
H313 C284 0.950 . S
H314 C288 0.950 . S
H315 C290 0.950 . S
H316 C293 0.950 . S
H317 C295 0.950 . S
C318 C319 1.443 . S
C318 N322 1.376 . S
C318 C356 1.389 . S
C319 C318 1.443 . S
C319 C320 1.340 . S
C319 H359 0.951 . S
C320 C319 1.340 . S
C320 C321 1.439 . S
C320 H360 0.950 . S
C321 C320 1.439 . S
C321 N322 1.374 . S
C321 C355 1.395 . S
N322 C318 1.376 . S
N322 C321 1.374 . S
N322 Co323 2.008 . S
Co323 N322 2.008 . S
Co323 N324 1.995 . S
Co323 N329 2.008 . S
Co323 N334 1.995 . S
Co323 N339 2.282 . S
Co323 N345 2.282 . S
N324 Co323 1.995 . S
N324 C325 1.376 . S
N324 C328 1.383 . S
C325 N324 1.376 . S
C325 C326 1.446 . S
C325 C355 1.391 . S
C326 C325 1.446 . S
C326 C327 1.339 . S
C326 H361 0.949 . S
C327 C326 1.339 . S
C327 C328 1.439 . S
C327 H362 0.950 . S
C328 N324 1.383 . S
C328 C327 1.439 . S
C328 C357 1.392 . S
N329 Co323 2.008 . S
N329 C330 1.376 . S
N329 C333 1.374 . S
C330 N329 1.376 . S
C330 C331 1.443 . S
C330 C357 1.389 . S
C331 C330 1.443 . S
C331 C332 1.340 . S
C331 H363 0.951 . S
C332 C331 1.340 . S
C332 C333 1.439 . S
C332 H364 0.950 . S
C333 N329 1.374 . S
C333 C332 1.439 . S
C333 C358 1.395 . S
N334 Co323 1.995 . S
N334 C335 1.376 . S
N334 C338 1.383 . S
C335 N334 1.376 . S
C335 C336 1.446 . S
C335 C358 1.391 . S
C336 C335 1.446 . S
C336 C337 1.339 . S
C336 H365 0.949 . S
C337 C336 1.339 . S
C337 C338 1.439 . S
C337 H366 0.950 . S
C338 N334 1.383 . S
C338 C337 1.439 . S
C338 C356 1.392 . S
N339 Co323 2.282 . S
N339 C342 1.332 . S
N339 C344 1.332 . S
C340 C341 1.386 . S
C340 C343 1.388 . S
C341 C340 1.386 . S
C341 C342 1.382 . S
C341 H367 0.950 . S
C342 N339 1.332 . S
C342 C341 1.382 . S
C342 H353 0.952 . S
C343 C340 1.388 . S
C343 C344 1.382 . S
C343 H368 0.950 . S
C344 N339 1.332 . S
C344 C343 1.382 . S
C344 H354 0.948 . S
N345 Co323 2.282 . S
N345 C349 1.332 . S
N345 C350 1.332 . S
C346 C347 1.388 . S
C346 C350 1.382 . S
C346 H369 0.950 . S
C347 C346 1.388 . S
C347 C348 1.386 . S
C348 C347 1.386 . S
C348 C349 1.382 . S
C348 H370 0.950 . S
C349 N345 1.332 . S
C349 C348 1.382 . S
C349 H351 0.952 . S
C350 N345 1.332 . S
C350 C346 1.382 . S
C350 H352 0.948 . S
H351 C349 0.952 . S
H352 C350 0.948 . S
H353 C342 0.952 . S
H354 C344 0.948 . S
C355 C321 1.395 . S
C355 C325 1.391 . S
C356 C318 1.389 . S
C356 C338 1.392 . S
C357 C328 1.392 . S
C357 C330 1.389 . S
C358 C333 1.395 . S
C358 C335 1.391 . S
H359 C319 0.951 . S
H360 C320 0.950 . S
H361 C326 0.949 . S
H362 C327 0.950 . S
H363 C331 0.951 . S
H364 C332 0.950 . S
H365 C336 0.949 . S
H366 C337 0.950 . S
H367 C341 0.950 . S
H368 C343 0.950 . S
H369 C346 0.950 . S
H370 C348 0.950 . S
C371 C372 1.443 . S
C371 N375 1.376 . S
C371 C409 1.389 . S
C372 C371 1.443 . S
C372 C373 1.340 . S
C372 H412 0.951 . S
C373 C372 1.340 . S
C373 C374 1.439 . S
C373 H413 0.950 . S
C374 C373 1.439 . S
C374 N375 1.374 . S
C374 C408 1.395 . S
N375 C371 1.376 . S
N375 C374 1.374 . S
N375 Co376 2.008 . S
Co376 N375 2.008 . S
Co376 N377 1.995 . S
Co376 N382 2.008 . S
Co376 N387 1.995 . S
Co376 N392 2.282 . S
Co376 N398 2.282 . S
N377 Co376 1.995 . S
N377 C378 1.376 . S
N377 C381 1.383 . S
C378 N377 1.376 . S
C378 C379 1.446 . S
C378 C408 1.391 . S
C379 C378 1.446 . S
C379 C380 1.339 . S
C379 H414 0.949 . S
C380 C379 1.339 . S
C380 C381 1.439 . S
C380 H415 0.950 . S
C381 N377 1.383 . S
C381 C380 1.439 . S
C381 C410 1.392 . S
N382 Co376 2.008 . S
N382 C383 1.376 . S
N382 C386 1.374 . S
C383 N382 1.376 . S
C383 C384 1.443 . S
C383 C410 1.389 . S
C384 C383 1.443 . S
C384 C385 1.340 . S
C384 H416 0.951 . S
C385 C384 1.340 . S
C385 C386 1.439 . S
C385 H417 0.950 . S
C386 N382 1.374 . S
C386 C385 1.439 . S
C386 C411 1.395 . S
N387 Co376 1.995 . S
N387 C388 1.376 . S
N387 C391 1.383 . S
C388 N387 1.376 . S
C388 C389 1.446 . S
C388 C411 1.391 . S
C389 C388 1.446 . S
C389 C390 1.339 . S
C389 H418 0.949 . S
C390 C389 1.339 . S
C390 C391 1.439 . S
C390 H419 0.950 . S
C391 N387 1.383 . S
C391 C390 1.439 . S
C391 C409 1.392 . S
N392 Co376 2.282 . S
N392 C395 1.332 . S
N392 C397 1.332 . S
C393 C394 1.386 . S
C393 C396 1.388 . S
C394 C393 1.386 . S
C394 C395 1.382 . S
C394 H420 0.950 . S
C395 N392 1.332 . S
C395 C394 1.382 . S
C395 H406 0.952 . S
C396 C393 1.388 . S
C396 C397 1.382 . S
C396 H421 0.950 . S
C397 N392 1.332 . S
C397 C396 1.382 . S
C397 H407 0.948 . S
N398 Co376 2.282 . S
N398 C402 1.332 . S
N398 C403 1.332 . S
C399 C400 1.388 . S
C399 C403 1.382 . S
C399 H422 0.950 . S
C400 C399 1.388 . S
C400 C401 1.386 . S
C401 C400 1.386 . S
C401 C402 1.382 . S
C401 H423 0.950 . S
C402 N398 1.332 . S
C402 C401 1.382 . S
C402 H404 0.952 . S
C403 N398 1.332 . S
C403 C399 1.382 . S
C403 H405 0.948 . S
H404 C402 0.952 . S
H405 C403 0.948 . S
H406 C395 0.952 . S
H407 C397 0.948 . S
C408 C374 1.395 . S
C408 C378 1.391 . S
C409 C371 1.389 . S
C409 C391 1.392 . S
C410 C381 1.392 . S
C410 C383 1.389 . S
C411 C386 1.395 . S
C411 C388 1.391 . S
H412 C372 0.951 . S
H413 C373 0.950 . S
H414 C379 0.949 . S
H415 C380 0.950 . S
H416 C384 0.951 . S
H417 C385 0.950 . S
H418 C389 0.949 . S
H419 C390 0.950 . S
H420 C394 0.950 . S
H421 C396 0.950 . S
H422 C399 0.950 . S
H423 C401 0.950 . S
C424 C425 1.443 . S
C424 N428 1.376 . S
C424 C462 1.389 . S
C425 C424 1.443 . S
C425 C426 1.340 . S
C425 H465 0.951 . S
C426 C425 1.340 . S
C426 C427 1.439 . S
C426 H466 0.950 . S
C427 C426 1.439 . S
C427 N428 1.374 . S
C427 C461 1.395 . S
N428 C424 1.376 . S
N428 C427 1.374 . S
N428 Co429 2.008 . S
Co429 N428 2.008 . S
Co429 N430 1.995 . S
Co429 N435 2.008 . S
Co429 N440 1.995 . S
Co429 N445 2.282 . S
Co429 N451 2.282 . S
N430 Co429 1.995 . S
N430 C431 1.376 . S
N430 C434 1.383 . S
C431 N430 1.376 . S
C431 C432 1.446 . S
C431 C461 1.391 . S
C432 C431 1.446 . S
C432 C433 1.339 . S
C432 H467 0.949 . S
C433 C432 1.339 . S
C433 C434 1.439 . S
C433 H468 0.950 . S
C434 N430 1.383 . S
C434 C433 1.439 . S
C434 C463 1.392 . S
N435 Co429 2.008 . S
N435 C436 1.376 . S
N435 C439 1.374 . S
C436 N435 1.376 . S
C436 C437 1.443 . S
C436 C463 1.389 . S
C437 C436 1.443 . S
C437 C438 1.340 . S
C437 H469 0.951 . S
C438 C437 1.340 . S
C438 C439 1.439 . S
C438 H470 0.950 . S
C439 N435 1.374 . S
C439 C438 1.439 . S
C439 C464 1.395 . S
N440 Co429 1.995 . S
N440 C441 1.376 . S
N440 C444 1.383 . S
C441 N440 1.376 . S
C441 C442 1.446 . S
C441 C464 1.391 . S
C442 C441 1.446 . S
C442 C443 1.339 . S
C442 H471 0.949 . S
C443 C442 1.339 . S
C443 C444 1.439 . S
C443 H472 0.950 . S
C444 N440 1.383 . S
C444 C443 1.439 . S
C444 C462 1.392 . S
N445 Co429 2.282 . S
N445 C448 1.332 . S
N445 C450 1.332 . S
C446 C447 1.386 . S
C446 C449 1.388 . S
C447 C446 1.386 . S
C447 C448 1.382 . S
C447 H473 0.950 . S
C448 N445 1.332 . S
C448 C447 1.382 . S
C448 H459 0.952 . S
C449 C446 1.388 . S
C449 C450 1.382 . S
C449 H474 0.950 . S
C450 N445 1.332 . S
C450 C449 1.382 . S
C450 H460 0.948 . S
N451 Co429 2.282 . S
N451 C455 1.332 . S
N451 C456 1.332 . S
C452 C453 1.388 . S
C452 C456 1.382 . S
C452 H475 0.950 . S
C453 C452 1.388 . S
C453 C454 1.386 . S
C454 C453 1.386 . S
C454 C455 1.382 . S
C454 H476 0.950 . S
C455 N451 1.332 . S
C455 C454 1.382 . S
C455 H457 0.952 . S
C456 N451 1.332 . S
C456 C452 1.382 . S
C456 H458 0.948 . S
H457 C455 0.952 . S
H458 C456 0.948 . S
H459 C448 0.952 . S
H460 C450 0.948 . S
C461 C427 1.395 . S
C461 C431 1.391 . S
C462 C424 1.389 . S
C462 C444 1.392 . S
C463 C434 1.392 . S
C463 C436 1.389 . S
C464 C439 1.395 . S
C464 C441 1.391 . S
H465 C425 0.951 . S
H466 C426 0.950 . S
H467 C432 0.949 . S
H468 C433 0.950 . S
H469 C437 0.951 . S
H470 C438 0.950 . S
H471 C442 0.949 . S
H472 C443 0.950 . S
H473 C447 0.950 . S
H474 C449 0.950 . S
H475 C452 0.950 . S
H476 C454 0.950 . S
C477 C478 1.443 . S
C477 N481 1.376 . S
C477 C515 1.389 . S
C478 C477 1.443 . S
C478 C479 1.340 . S
C478 H518 0.951 1_556 S
C479 C478 1.340 . S
C479 C480 1.439 . S
C479 H519 0.950 . S
C480 C479 1.439 . S
C480 N481 1.374 . S
C480 C514 1.395 . S
N481 C477 1.376 . S
N481 C480 1.374 . S
N481 Co482 2.008 . S
Co482 N481 2.008 . S
Co482 N483 1.995 . S
Co482 N488 2.008 . S
Co482 N493 1.995 . S
Co482 N498 2.282 . S
Co482 N504 2.282 . S
N483 Co482 1.995 . S
N483 C484 1.376 . S
N483 C487 1.383 . S
C484 N483 1.376 . S
C484 C485 1.446 . S
C484 C514 1.391 . S
C485 C484 1.446 . S
C485 C486 1.339 . S
C485 H520 0.949 . S
C486 C485 1.339 . S
C486 C487 1.439 . S
C486 H521 0.950 . S
C487 N483 1.383 . S
C487 C486 1.439 . S
C487 C516 1.392 . S
N488 Co482 2.008 . S
N488 C489 1.376 . S
N488 C492 1.374 . S
C489 N488 1.376 . S
C489 C490 1.443 . S
C489 C516 1.389 . S
C490 C489 1.443 . S
C490 C491 1.340 . S
C490 H522 0.951 . S
C491 C490 1.340 . S
C491 C492 1.439 . S
C491 H523 0.950 . S
C492 N488 1.374 . S
C492 C491 1.439 . S
C492 C517 1.395 . S
N493 Co482 1.995 . S
N493 C494 1.376 . S
N493 C497 1.383 . S
C494 N493 1.376 . S
C494 C495 1.446 . S
C494 C517 1.391 . S
C495 C494 1.446 . S
C495 C496 1.339 . S
C495 H524 0.949 . S
C496 C495 1.339 . S
C496 C497 1.439 . S
C496 H525 0.950 1_556 S
C497 N493 1.383 . S
C497 C496 1.439 . S
C497 C515 1.392 . S
N498 Co482 2.282 . S
N498 C501 1.332 . S
N498 C503 1.332 . S
C499 C500 1.386 . S
C499 C502 1.388 . S
C500 C499 1.386 . S
C500 C501 1.382 . S
C500 H526 0.950 . S
C501 N498 1.332 . S
C501 C500 1.382 . S
C501 H512 0.952 . S
C502 C499 1.388 . S
C502 C503 1.382 . S
C502 H527 0.950 . S
C503 N498 1.332 . S
C503 C502 1.382 . S
C503 H513 0.948 . S
N504 Co482 2.282 . S
N504 C508 1.332 . S
N504 C509 1.332 . S
C505 C506 1.388 . S
C505 C509 1.382 . S
C505 H528 0.950 . S
C506 C505 1.388 . S
C506 C507 1.386 . S
C507 C506 1.386 . S
C507 C508 1.382 . S
C507 H529 0.950 . S
C508 N504 1.332 . S
C508 C507 1.382 . S
C508 H510 0.952 . S
C509 N504 1.332 . S
C509 C505 1.382 . S
C509 H511 0.948 . S
H510 C508 0.952 . S
H511 C509 0.948 . S
H512 C501 0.952 . S
H513 C503 0.948 . S
C514 C480 1.395 . S
C514 C484 1.391 . S
C515 C477 1.389 . S
C515 C497 1.392 . S
C516 C487 1.392 . S
C516 C489 1.389 . S
C517 C492 1.395 . S
C517 C494 1.391 . S
H518 C478 0.951 1_554 S
H519 C479 0.950 . S
H520 C485 0.949 . S
H521 C486 0.950 . S
H522 C490 0.951 . S
H523 C491 0.950 . S
H524 C495 0.949 . S
H525 C496 0.950 1_554 S
H526 C500 0.950 . S
H527 C502 0.950 . S
H528 C505 0.950 . S
H529 C507 0.950 . S
C530 C531 1.443 . S
C530 N534 1.376 . S
C530 C568 1.389 . S
C531 C530 1.443 . S
C531 C532 1.340 . S
C531 H571 0.951 1_556 S
C532 C531 1.340 . S
C532 C533 1.439 . S
C532 H572 0.950 . S
C533 C532 1.439 . S
C533 N534 1.374 . S
C533 C567 1.395 . S
N534 C530 1.376 . S
N534 C533 1.374 . S
N534 Co535 2.008 . S
Co535 N534 2.008 . S
Co535 N536 1.995 . S
Co535 N541 2.008 . S
Co535 N546 1.995 . S
Co535 N551 2.282 . S
Co535 N557 2.282 . S
N536 Co535 1.995 . S
N536 C537 1.376 . S
N536 C540 1.383 . S
C537 N536 1.376 . S
C537 C538 1.446 . S
C537 C567 1.391 . S
C538 C537 1.446 . S
C538 C539 1.339 . S
C538 H573 0.949 . S
C539 C538 1.339 . S
C539 C540 1.439 . S
C539 H574 0.950 . S
C540 N536 1.383 . S
C540 C539 1.439 . S
C540 C569 1.392 . S
N541 Co535 2.008 . S
N541 C542 1.376 . S
N541 C545 1.374 . S
C542 N541 1.376 . S
C542 C543 1.443 . S
C542 C569 1.389 . S
C543 C542 1.443 . S
C543 C544 1.340 . S
C543 H575 0.951 . S
C544 C543 1.340 . S
C544 C545 1.439 . S
C544 H576 0.950 . S
C545 N541 1.374 . S
C545 C544 1.439 . S
C545 C570 1.395 . S
N546 Co535 1.995 . S
N546 C547 1.376 . S
N546 C550 1.383 . S
C547 N546 1.376 . S
C547 C548 1.446 . S
C547 C570 1.391 . S
C548 C547 1.446 . S
C548 C549 1.339 . S
C548 H577 0.949 . S
C549 C548 1.339 . S
C549 C550 1.439 . S
C549 H578 0.950 1_556 S
C550 N546 1.383 . S
C550 C549 1.439 . S
C550 C568 1.392 . S
N551 Co535 2.282 . S
N551 C554 1.332 . S
N551 C556 1.332 . S
C552 C553 1.386 . S
C552 C555 1.388 . S
C553 C552 1.386 . S
C553 C554 1.382 . S
C553 H579 0.950 . S
C554 N551 1.332 . S
C554 C553 1.382 . S
C554 H565 0.952 . S
C555 C552 1.388 . S
C555 C556 1.382 . S
C555 H580 0.950 . S
C556 N551 1.332 . S
C556 C555 1.382 . S
C556 H566 0.948 . S
N557 Co535 2.282 . S
N557 C561 1.332 . S
N557 C562 1.332 . S
C558 C559 1.388 . S
C558 C562 1.382 . S
C558 H581 0.950 . S
C559 C558 1.388 . S
C559 C560 1.386 . S
C560 C559 1.386 . S
C560 C561 1.382 . S
C560 H582 0.950 . S
C561 N557 1.332 . S
C561 C560 1.382 . S
C561 H563 0.952 . S
C562 N557 1.332 . S
C562 C558 1.382 . S
C562 H564 0.948 . S
H563 C561 0.952 . S
H564 C562 0.948 . S
H565 C554 0.952 . S
H566 C556 0.948 . S
C567 C533 1.395 . S
C567 C537 1.391 . S
C568 C530 1.389 . S
C568 C550 1.392 . S
C569 C540 1.392 . S
C569 C542 1.389 . S
C570 C545 1.395 . S
C570 C547 1.391 . S
H571 C531 0.951 1_554 S
H572 C532 0.950 . S
H573 C538 0.949 . S
H574 C539 0.950 . S
H575 C543 0.951 . S
H576 C544 0.950 . S
H577 C548 0.949 . S
H578 C549 0.950 1_554 S
H579 C553 0.950 . S
H580 C555 0.950 . S
H581 C558 0.950 . S
H582 C560 0.950 . S
C583 C584 1.443 . S
C583 N587 1.376 . S
C583 C621 1.389 . S
C584 C583 1.443 . S
C584 C585 1.340 . S
C584 H624 0.951 1_556 S
C585 C584 1.340 . S
C585 C586 1.439 . S
C585 H625 0.950 . S
C586 C585 1.439 . S
C586 N587 1.374 . S
C586 C620 1.395 . S
N587 C583 1.376 . S
N587 C586 1.374 . S
N587 Co588 2.008 . S
Co588 N587 2.008 . S
Co588 N589 1.995 . S
Co588 N594 2.008 . S
Co588 N599 1.995 . S
Co588 N604 2.282 . S
Co588 N610 2.282 . S
N589 Co588 1.995 . S
N589 C590 1.376 . S
N589 C593 1.383 . S
C590 N589 1.376 . S
C590 C591 1.446 . S
C590 C620 1.391 . S
C591 C590 1.446 . S
C591 C592 1.339 . S
C591 H626 0.949 . S
C592 C591 1.339 . S
C592 C593 1.439 . S
C592 H627 0.950 . S
C593 N589 1.383 . S
C593 C592 1.439 . S
C593 C622 1.392 . S
N594 Co588 2.008 . S
N594 C595 1.376 . S
N594 C598 1.374 . S
C595 N594 1.376 . S
C595 C596 1.443 . S
C595 C622 1.389 . S
C596 C595 1.443 . S
C596 C597 1.340 . S
C596 H628 0.951 . S
C597 C596 1.340 . S
C597 C598 1.439 . S
C597 H629 0.950 . S
C598 N594 1.374 . S
C598 C597 1.439 . S
C598 C623 1.395 . S
N599 Co588 1.995 . S
N599 C600 1.376 . S
N599 C603 1.383 . S
C600 N599 1.376 . S
C600 C601 1.446 . S
C600 C623 1.391 . S
C601 C600 1.446 . S
C601 C602 1.339 . S
C601 H630 0.949 . S
C602 C601 1.339 . S
C602 C603 1.439 . S
C602 H631 0.950 1_556 S
C603 N599 1.383 . S
C603 C602 1.439 . S
C603 C621 1.392 . S
N604 Co588 2.282 . S
N604 C607 1.332 . S
N604 C609 1.332 . S
C605 C606 1.386 . S
C605 C608 1.388 . S
C606 C605 1.386 . S
C606 C607 1.382 . S
C606 H632 0.950 . S
C607 N604 1.332 . S
C607 C606 1.382 . S
C607 H618 0.952 . S
C608 C605 1.388 . S
C608 C609 1.382 . S
C608 H633 0.950 . S
C609 N604 1.332 . S
C609 C608 1.382 . S
C609 H619 0.948 . S
N610 Co588 2.282 . S
N610 C614 1.332 . S
N610 C615 1.332 . S
C611 C612 1.388 . S
C611 C615 1.382 . S
C611 H634 0.950 . S
C612 C611 1.388 . S
C612 C613 1.386 . S
C613 C612 1.386 . S
C613 C614 1.382 . S
C613 H635 0.950 . S
C614 N610 1.332 . S
C614 C613 1.382 . S
C614 H616 0.952 . S
C615 N610 1.332 . S
C615 C611 1.382 . S
C615 H617 0.948 . S
H616 C614 0.952 . S
H617 C615 0.948 . S
H618 C607 0.952 . S
H619 C609 0.948 . S
C620 C586 1.395 . S
C620 C590 1.391 . S
C621 C583 1.389 . S
C621 C603 1.392 . S
C622 C593 1.392 . S
C622 C595 1.389 . S
C623 C598 1.395 . S
C623 C600 1.391 . S
H624 C584 0.951 1_554 S
H625 C585 0.950 . S
H626 C591 0.949 . S
H627 C592 0.950 . S
H628 C596 0.951 . S
H629 C597 0.950 . S
H630 C601 0.949 . S
H631 C602 0.950 1_554 S
H632 C606 0.950 . S
H633 C608 0.950 . S
H634 C611 0.950 . S
H635 C613 0.950 . S
C636 C637 1.443 . S
C636 N640 1.376 . S
C636 C674 1.389 . S
C637 C636 1.443 . S
C637 C638 1.340 . S
C637 H677 0.951 . S
C638 C637 1.340 . S
C638 C639 1.439 . S
C638 H678 0.950 . S
C639 C638 1.439 . S
C639 N640 1.374 . S
C639 C673 1.395 . S
N640 C636 1.376 . S
N640 C639 1.374 . S
N640 Co641 2.008 . S
Co641 N640 2.008 . S
Co641 N642 1.995 . S
Co641 N647 2.008 . S
Co641 N652 1.995 . S
Co641 N657 2.282 . S
Co641 N663 2.282 . S
N642 Co641 1.995 . S
N642 C643 1.376 . S
N642 C646 1.383 . S
C643 N642 1.376 . S
C643 C644 1.446 . S
C643 C673 1.391 . S
C644 C643 1.446 . S
C644 C645 1.339 . S
C644 H679 0.949 . S
C645 C644 1.339 . S
C645 C646 1.439 . S
C645 H680 0.950 . S
C646 N642 1.383 . S
C646 C645 1.439 . S
C646 C675 1.392 . S
N647 Co641 2.008 . S
N647 C648 1.376 . S
N647 C651 1.374 . S
C648 N647 1.376 . S
C648 C649 1.443 . S
C648 C675 1.389 . S
C649 C648 1.443 . S
C649 C650 1.340 . S
C649 H681 0.951 . S
C650 C649 1.340 . S
C650 C651 1.439 . S
C650 H682 0.950 . S
C651 N647 1.374 . S
C651 C650 1.439 . S
C651 C676 1.395 . S
N652 Co641 1.995 . S
N652 C653 1.376 . S
N652 C656 1.383 . S
C653 N652 1.376 . S
C653 C654 1.446 . S
C653 C676 1.391 . S
C654 C653 1.446 . S
C654 C655 1.339 . S
C654 H683 0.949 . S
C655 C654 1.339 . S
C655 C656 1.439 . S
C655 H684 0.950 . S
C656 N652 1.383 . S
C656 C655 1.439 . S
C656 C674 1.392 . S
N657 Co641 2.282 . S
N657 C660 1.332 . S
N657 C662 1.332 . S
C658 C659 1.386 . S
C658 C661 1.388 . S
C659 C658 1.386 . S
C659 C660 1.382 . S
C659 H685 0.950 . S
C660 N657 1.332 . S
C660 C659 1.382 . S
C660 H671 0.952 . S
C661 C658 1.388 . S
C661 C662 1.382 . S
C661 H686 0.950 . S
C662 N657 1.332 . S
C662 C661 1.382 . S
C662 H672 0.948 . S
N663 Co641 2.282 . S
N663 C667 1.332 . S
N663 C668 1.332 . S
C664 C665 1.388 . S
C664 C668 1.382 . S
C664 H687 0.950 . S
C665 C664 1.388 . S
C665 C666 1.386 . S
C666 C665 1.386 . S
C666 C667 1.382 . S
C666 H688 0.950 . S
C667 N663 1.332 . S
C667 C666 1.382 . S
C667 H669 0.952 . S
C668 N663 1.332 . S
C668 C664 1.382 . S
C668 H670 0.948 . S
H669 C667 0.952 . S
H670 C668 0.948 . S
H671 C660 0.952 . S
H672 C662 0.948 . S
C673 C639 1.395 . S
C673 C643 1.391 . S
C674 C636 1.389 . S
C674 C656 1.392 . S
C675 C646 1.392 . S
C675 C648 1.389 . S
C676 C651 1.395 . S
C676 C653 1.391 . S
H677 C637 0.951 . S
H678 C638 0.950 . S
H679 C644 0.949 . S
H680 C645 0.950 . S
H681 C649 0.951 . S
H682 C650 0.950 . S
H683 C654 0.949 . S
H684 C655 0.950 . S
H685 C659 0.950 . S
H686 C661 0.950 . S
H687 C664 0.950 . S
H688 C666 0.950 . S
C689 C690 1.443 . S
C689 N693 1.376 . S
C689 C727 1.389 . S
C690 C689 1.443 . S
C690 C691 1.340 . S
C690 H730 0.951 . S
C691 C690 1.340 . S
C691 C692 1.439 . S
C691 H731 0.950 . S
C692 C691 1.439 . S
C692 N693 1.374 . S
C692 C726 1.395 . S
N693 C689 1.376 . S
N693 C692 1.374 . S
N693 Co694 2.008 . S
Co694 N693 2.008 . S
Co694 N695 1.995 . S
Co694 N700 2.008 . S
Co694 N705 1.995 . S
Co694 N710 2.282 . S
Co694 N716 2.282 . S
N695 Co694 1.995 . S
N695 C696 1.376 . S
N695 C699 1.383 . S
C696 N695 1.376 . S
C696 C697 1.446 . S
C696 C726 1.391 . S
C697 C696 1.446 . S
C697 C698 1.339 . S
C697 H732 0.949 . S
C698 C697 1.339 . S
C698 C699 1.439 . S
C698 H733 0.950 . S
C699 N695 1.383 . S
C699 C698 1.439 . S
C699 C728 1.392 . S
N700 Co694 2.008 . S
N700 C701 1.376 . S
N700 C704 1.374 . S
C701 N700 1.376 . S
C701 C702 1.443 . S
C701 C728 1.389 . S
C702 C701 1.443 . S
C702 C703 1.340 . S
C702 H734 0.951 . S
C703 C702 1.340 . S
C703 C704 1.439 . S
C703 H735 0.950 . S
C704 N700 1.374 . S
C704 C703 1.439 . S
C704 C729 1.395 . S
N705 Co694 1.995 . S
N705 C706 1.376 . S
N705 C709 1.383 . S
C706 N705 1.376 . S
C706 C707 1.446 . S
C706 C729 1.391 . S
C707 C706 1.446 . S
C707 C708 1.339 . S
C707 H736 0.949 . S
C708 C707 1.339 . S
C708 C709 1.439 . S
C708 H737 0.950 . S
C709 N705 1.383 . S
C709 C708 1.439 . S
C709 C727 1.392 . S
N710 Co694 2.282 . S
N710 C713 1.332 . S
N710 C715 1.332 . S
C711 C712 1.386 . S
C711 C714 1.388 . S
C712 C711 1.386 . S
C712 C713 1.382 . S
C712 H738 0.950 . S
C713 N710 1.332 . S
C713 C712 1.382 . S
C713 H724 0.952 . S
C714 C711 1.388 . S
C714 C715 1.382 . S
C714 H739 0.950 . S
C715 N710 1.332 . S
C715 C714 1.382 . S
C715 H725 0.948 . S
N716 Co694 2.282 . S
N716 C720 1.332 . S
N716 C721 1.332 . S
C717 C718 1.388 . S
C717 C721 1.382 . S
C717 H740 0.950 . S
C718 C717 1.388 . S
C718 C719 1.386 . S
C719 C718 1.386 . S
C719 C720 1.382 . S
C719 H741 0.950 . S
C720 N716 1.332 . S
C720 C719 1.382 . S
C720 H722 0.952 . S
C721 N716 1.332 . S
C721 C717 1.382 . S
C721 H723 0.948 . S
H722 C720 0.952 . S
H723 C721 0.948 . S
H724 C713 0.952 . S
H725 C715 0.948 . S
C726 C692 1.395 . S
C726 C696 1.391 . S
C727 C689 1.389 . S
C727 C709 1.392 . S
C728 C699 1.392 . S
C728 C701 1.389 . S
C729 C704 1.395 . S
C729 C706 1.391 . S
H730 C690 0.951 . S
H731 C691 0.950 . S
H732 C697 0.949 . S
H733 C698 0.950 . S
H734 C702 0.951 . S
H735 C703 0.950 . S
H736 C707 0.949 . S
H737 C708 0.950 . S
H738 C712 0.950 . S
H739 C714 0.950 . S
H740 C717 0.950 . S
H741 C719 0.950 . S
C742 C743 1.443 . S
C742 N746 1.376 . S
C742 C780 1.389 . S
C743 C742 1.443 . S
C743 C744 1.340 . S
C743 H783 0.951 . S
C744 C743 1.340 . S
C744 C745 1.439 . S
C744 H784 0.950 . S
C745 C744 1.439 . S
C745 N746 1.374 . S
C745 C779 1.395 . S
N746 C742 1.376 . S
N746 C745 1.374 . S
N746 Co747 2.008 . S
Co747 N746 2.008 . S
Co747 N748 1.995 . S
Co747 N753 2.008 . S
Co747 N758 1.995 . S
Co747 N763 2.282 . S
Co747 N769 2.282 . S
N748 Co747 1.995 . S
N748 C749 1.376 . S
N748 C752 1.383 . S
C749 N748 1.376 . S
C749 C750 1.446 . S
C749 C779 1.391 . S
C750 C749 1.446 . S
C750 C751 1.339 . S
C750 H785 0.949 . S
C751 C750 1.339 . S
C751 C752 1.439 . S
C751 H786 0.950 . S
C752 N748 1.383 . S
C752 C751 1.439 . S
C752 C781 1.392 . S
N753 Co747 2.008 . S
N753 C754 1.376 . S
N753 C757 1.374 . S
C754 N753 1.376 . S
C754 C755 1.443 . S
C754 C781 1.389 . S
C755 C754 1.443 . S
C755 C756 1.340 . S
C755 H787 0.951 . S
C756 C755 1.340 . S
C756 C757 1.439 . S
C756 H788 0.950 . S
C757 N753 1.374 . S
C757 C756 1.439 . S
C757 C782 1.395 . S
N758 Co747 1.995 . S
N758 C759 1.376 . S
N758 C762 1.383 . S
C759 N758 1.376 . S
C759 C760 1.446 . S
C759 C782 1.391 . S
C760 C759 1.446 . S
C760 C761 1.339 . S
C760 H789 0.949 . S
C761 C760 1.339 . S
C761 C762 1.439 . S
C761 H790 0.950 . S
C762 N758 1.383 . S
C762 C761 1.439 . S
C762 C780 1.392 . S
N763 Co747 2.282 . S
N763 C766 1.332 . S
N763 C768 1.332 . S
C764 C765 1.386 . S
C764 C767 1.388 . S
C765 C764 1.386 . S
C765 C766 1.382 . S
C765 H791 0.950 . S
C766 N763 1.332 . S
C766 C765 1.382 . S
C766 H777 0.952 . S
C767 C764 1.388 . S
C767 C768 1.382 . S
C767 H792 0.950 . S
C768 N763 1.332 . S
C768 C767 1.382 . S
C768 H778 0.948 . S
N769 Co747 2.282 . S
N769 C773 1.332 . S
N769 C774 1.332 . S
C770 C771 1.388 . S
C770 C774 1.382 . S
C770 H793 0.950 . S
C771 C770 1.388 . S
C771 C772 1.386 . S
C772 C771 1.386 . S
C772 C773 1.382 . S
C772 H794 0.950 . S
C773 N769 1.332 . S
C773 C772 1.382 . S
C773 H775 0.952 . S
C774 N769 1.332 . S
C774 C770 1.382 . S
C774 H776 0.948 . S
H775 C773 0.952 . S
H776 C774 0.948 . S
H777 C766 0.952 . S
H778 C768 0.948 . S
C779 C745 1.395 . S
C779 C749 1.391 . S
C780 C742 1.389 . S
C780 C762 1.392 . S
C781 C752 1.392 . S
C781 C754 1.389 . S
C782 C757 1.395 . S
C782 C759 1.391 . S
H783 C743 0.951 . S
H784 C744 0.950 . S
H785 C750 0.949 . S
H786 C751 0.950 . S
H787 C755 0.951 . S
H788 C756 0.950 . S
H789 C760 0.949 . S
H790 C761 0.950 . S
H791 C765 0.950 . S
H792 C767 0.950 . S
H793 C770 0.950 . S
H794 C772 0.950 . S
C795 C796 1.443 . S
C795 N799 1.376 . S
C795 C833 1.389 . S
C796 C795 1.443 . S
C796 C797 1.340 . S
C796 H836 0.951 . S
C797 C796 1.340 . S
C797 C798 1.439 . S
C797 H837 0.950 . S
C798 C797 1.439 . S
C798 N799 1.374 . S
C798 C832 1.395 . S
N799 C795 1.376 . S
N799 C798 1.374 . S
N799 Co800 2.008 . S
Co800 N799 2.008 . S
Co800 N801 1.995 . S
Co800 N806 2.008 . S
Co800 N811 1.995 . S
Co800 N816 2.282 . S
Co800 N822 2.282 . S
N801 Co800 1.995 . S
N801 C802 1.376 . S
N801 C805 1.383 . S
C802 N801 1.376 . S
C802 C803 1.446 . S
C802 C832 1.391 . S
C803 C802 1.446 . S
C803 C804 1.339 . S
C803 H838 0.949 . S
C804 C803 1.339 . S
C804 C805 1.439 . S
C804 H839 0.950 . S
C805 N801 1.383 . S
C805 C804 1.439 . S
C805 C834 1.392 . S
N806 Co800 2.008 . S
N806 C807 1.376 . S
N806 C810 1.374 . S
C807 N806 1.376 . S
C807 C808 1.443 . S
C807 C834 1.389 . S
C808 C807 1.443 . S
C808 C809 1.340 . S
C808 H840 0.951 . S
C809 C808 1.340 . S
C809 C810 1.439 . S
C809 H841 0.950 . S
C810 N806 1.374 . S
C810 C809 1.439 . S
C810 C835 1.395 . S
N811 Co800 1.995 . S
N811 C812 1.376 . S
N811 C815 1.383 . S
C812 N811 1.376 . S
C812 C813 1.446 . S
C812 C835 1.391 . S
C813 C812 1.446 . S
C813 C814 1.339 . S
C813 H842 0.949 . S
C814 C813 1.339 . S
C814 C815 1.439 . S
C814 H843 0.950 . S
C815 N811 1.383 . S
C815 C814 1.439 . S
C815 C833 1.392 . S
N816 Co800 2.282 . S
N816 C819 1.332 . S
N816 C821 1.332 . S
C817 C818 1.386 . S
C817 C820 1.388 . S
C818 C817 1.386 . S
C818 C819 1.382 . S
C818 H844 0.950 . S
C819 N816 1.332 . S
C819 C818 1.382 . S
C819 H830 0.952 . S
C820 C817 1.388 . S
C820 C821 1.382 . S
C820 H845 0.950 . S
C821 N816 1.332 . S
C821 C820 1.382 . S
C821 H831 0.948 . S
N822 Co800 2.282 . S
N822 C826 1.332 . S
N822 C827 1.332 . S
C823 C824 1.388 1_554 S
C823 C827 1.382 . S
C823 H846 0.950 . S
C824 C823 1.388 1_556 S
C824 C825 1.386 1_556 S
C825 C824 1.386 1_554 S
C825 C826 1.382 . S
C825 H847 0.950 . S
C826 N822 1.332 . S
C826 C825 1.382 . S
C826 H828 0.952 . S
C827 N822 1.332 . S
C827 C823 1.382 . S
C827 H829 0.948 . S
H828 C826 0.952 . S
H829 C827 0.948 . S
H830 C819 0.952 . S
H831 C821 0.948 . S
C832 C798 1.395 . S
C832 C802 1.391 . S
C833 C795 1.389 . S
C833 C815 1.392 . S
C834 C805 1.392 . S
C834 C807 1.389 . S
C835 C810 1.395 . S
C835 C812 1.391 . S
H836 C796 0.951 . S
H837 C797 0.950 . S
H838 C803 0.949 . S
H839 C804 0.950 . S
H840 C808 0.951 . S
H841 C809 0.950 . S
H842 C813 0.949 . S
H843 C814 0.950 . S
H844 C818 0.950 . S
H845 C820 0.950 . S
H846 C823 0.950 . S
H847 C825 0.950 . S
C848 C849 1.443 . S
C848 N852 1.376 . S
C848 C886 1.389 . S
C849 C848 1.443 . S
C849 C850 1.340 . S
C849 H889 0.951 . S
C850 C849 1.340 . S
C850 C851 1.439 . S
C850 H890 0.950 . S
C851 C850 1.439 . S
C851 N852 1.374 . S
C851 C885 1.395 . S
N852 C848 1.376 . S
N852 C851 1.374 . S
N852 Co853 2.008 . S
Co853 N852 2.008 . S
Co853 N854 1.995 . S
Co853 N859 2.008 . S
Co853 N864 1.995 . S
Co853 N869 2.282 . S
Co853 N875 2.282 . S
N854 Co853 1.995 . S
N854 C855 1.376 . S
N854 C858 1.383 . S
C855 N854 1.376 . S
C855 C856 1.446 . S
C855 C885 1.391 . S
C856 C855 1.446 . S
C856 C857 1.339 . S
C856 H891 0.949 . S
C857 C856 1.339 . S
C857 C858 1.439 . S
C857 H892 0.950 . S
C858 N854 1.383 . S
C858 C857 1.439 . S
C858 C887 1.392 . S
N859 Co853 2.008 . S
N859 C860 1.376 . S
N859 C863 1.374 . S
C860 N859 1.376 . S
C860 C861 1.443 . S
C860 C887 1.389 . S
C861 C860 1.443 . S
C861 C862 1.340 . S
C861 H893 0.951 . S
C862 C861 1.340 . S
C862 C863 1.439 . S
C862 H894 0.950 . S
C863 N859 1.374 . S
C863 C862 1.439 . S
C863 C888 1.395 . S
N864 Co853 1.995 . S
N864 C865 1.376 . S
N864 C868 1.383 . S
C865 N864 1.376 . S
C865 C866 1.446 . S
C865 C888 1.391 . S
C866 C865 1.446 . S
C866 C867 1.339 . S
C866 H895 0.949 . S
C867 C866 1.339 . S
C867 C868 1.439 . S
C867 H896 0.950 . S
C868 N864 1.383 . S
C868 C867 1.439 . S
C868 C886 1.392 . S
N869 Co853 2.282 . S
N869 C872 1.332 . S
N869 C874 1.332 . S
C870 C871 1.386 . S
C870 C873 1.388 . S
C871 C870 1.386 . S
C871 C872 1.382 . S
C871 H897 0.950 . S
C872 N869 1.332 . S
C872 C871 1.382 . S
C872 H883 0.952 . S
C873 C870 1.388 . S
C873 C874 1.382 . S
C873 H898 0.950 . S
C874 N869 1.332 . S
C874 C873 1.382 . S
C874 H884 0.948 . S
N875 Co853 2.282 . S
N875 C879 1.332 . S
N875 C880 1.332 . S
C876 C877 1.388 . S
C876 C880 1.382 . S
C876 H899 0.950 . S
C877 C876 1.388 . S
C877 C878 1.386 . S
C878 C877 1.386 . S
C878 C879 1.382 . S
C878 H900 0.950 . S
C879 N875 1.332 . S
C879 C878 1.382 . S
C879 H881 0.952 . S
C880 N875 1.332 . S
C880 C876 1.382 . S
C880 H882 0.948 . S
H881 C879 0.952 . S
H882 C880 0.948 . S
H883 C872 0.952 . S
H884 C874 0.948 . S
C885 C851 1.395 . S
C885 C855 1.391 . S
C886 C848 1.389 . S
C886 C868 1.392 . S
C887 C858 1.392 . S
C887 C860 1.389 . S
C888 C863 1.395 . S
C888 C865 1.391 . S
H889 C849 0.951 . S
H890 C850 0.950 . S
H891 C856 0.949 . S
H892 C857 0.950 . S
H893 C861 0.951 . S
H894 C862 0.950 . S
H895 C866 0.949 . S
H896 C867 0.950 . S
H897 C871 0.950 . S
H898 C873 0.950 . S
H899 C876 0.950 . S
H900 C878 0.950 . S
C901 C902 1.443 . S
C901 N905 1.376 . S
C901 C939 1.389 . S
C902 C901 1.443 . S
C902 C903 1.340 . S
C902 H942 0.951 . S
C903 C902 1.340 . S
C903 C904 1.439 . S
C903 H943 0.950 . S
C904 C903 1.439 . S
C904 N905 1.374 . S
C904 C938 1.395 . S
N905 C901 1.376 . S
N905 C904 1.374 . S
N905 Co906 2.008 . S
Co906 N905 2.008 . S
Co906 N907 1.995 . S
Co906 N912 2.008 . S
Co906 N917 1.995 . S
Co906 N922 2.282 . S
Co906 N928 2.282 . S
N907 Co906 1.995 . S
N907 C908 1.376 . S
N907 C911 1.383 . S
C908 N907 1.376 . S
C908 C909 1.446 . S
C908 C938 1.391 . S
C909 C908 1.446 . S
C909 C910 1.339 . S
C909 H944 0.949 . S
C910 C909 1.339 . S
C910 C911 1.439 . S
C910 H945 0.950 . S
C911 N907 1.383 . S
C911 C910 1.439 . S
C911 C940 1.392 . S
N912 Co906 2.008 . S
N912 C913 1.376 . S
N912 C916 1.374 . S
C913 N912 1.376 . S
C913 C914 1.443 . S
C913 C940 1.389 . S
C914 C913 1.443 . S
C914 C915 1.340 . S
C914 H946 0.951 . S
C915 C914 1.340 . S
C915 C916 1.439 . S
C915 H947 0.950 . S
C916 N912 1.374 . S
C916 C915 1.439 . S
C916 C941 1.395 . S
N917 Co906 1.995 . S
N917 C918 1.376 . S
N917 C921 1.383 . S
C918 N917 1.376 . S
C918 C919 1.446 . S
C918 C941 1.391 . S
C919 C918 1.446 . S
C919 C920 1.339 . S
C919 H948 0.949 . S
C920 C919 1.339 . S
C920 C921 1.439 . S
C920 H949 0.950 . S
C921 N917 1.383 . S
C921 C920 1.439 . S
C921 C939 1.392 . S
N922 Co906 2.282 . S
N922 C925 1.332 . S
N922 C927 1.332 . S
C923 C924 1.386 . S
C923 C926 1.388 . S
C924 C923 1.386 . S
C924 C925 1.382 . S
C924 H950 0.950 . S
C925 N922 1.332 . S
C925 C924 1.382 . S
C925 H936 0.952 . S
C926 C923 1.388 . S
C926 C927 1.382 . S
C926 H951 0.950 . S
C927 N922 1.332 . S
C927 C926 1.382 . S
C927 H937 0.948 . S
N928 Co906 2.282 . S
N928 C932 1.332 . S
N928 C933 1.332 . S
C929 C930 1.388 . S
C929 C933 1.382 . S
C929 H952 0.950 . S
C930 C929 1.388 . S
C930 C931 1.386 . S
C931 C930 1.386 . S
C931 C932 1.382 . S
C931 H953 0.950 . S
C932 N928 1.332 . S
C932 C931 1.382 . S
C932 H934 0.952 . S
C933 N928 1.332 . S
C933 C929 1.382 . S
C933 H935 0.948 . S
H934 C932 0.952 . S
H935 C933 0.948 . S
H936 C925 0.952 . S
H937 C927 0.948 . S
C938 C904 1.395 . S
C938 C908 1.391 . S
C939 C901 1.389 . S
C939 C921 1.392 . S
C940 C911 1.392 . S
C940 C913 1.389 . S
C941 C916 1.395 . S
C941 C918 1.391 . S
H942 C902 0.951 . S
H943 C903 0.950 . S
H944 C909 0.949 . S
H945 C910 0.950 . S
H946 C914 0.951 . S
H947 C915 0.950 . S
H948 C919 0.949 . S
H949 C920 0.950 . S
H950 C924 0.950 . S
H951 C926 0.950 . S
H952 C929 0.950 . S
H953 C931 0.950 . S
C954 C955 1.370 . S
C954 C956 1.419 . S
C954 H958 0.930 . S
C955 C954 1.370 . S
C955 C964 1.428 1_655 S
C956 C954 1.419 . S
C956 C957 1.365 1_655 S
C956 H959 0.929 . S
C957 C956 1.365 1_455 S
C957 C963 1.427 . S
H958 C954 0.930 . S
H959 C956 0.929 . S
S960 N961 1.613 . S
S960 N962 1.610 . S
N961 S960 1.613 . S
N961 C964 1.350 . S
N962 S960 1.610 . S
N962 C963 1.351 . S
C963 C957 1.427 . S
C963 N962 1.351 . S
C963 C964 1.434 . S
C964 C955 1.428 1_455 S
C964 N961 1.350 . S
C964 C963 1.434 . S
C965 C966 1.369 . S
C965 C967 1.419 . S
C965 H969 0.930 . S
C966 C965 1.369 . S
C966 C975 1.429 . S
C967 C965 1.419 . S
C967 C968 1.363 . S
C967 H970 0.929 . S
C968 C967 1.363 . S
C968 C974 1.428 . S
H969 C965 0.930 . S
H970 C967 0.929 . S
S971 N972 1.613 . S
S971 N973 1.610 . S
N972 S971 1.613 . S
N972 C975 1.350 . S
N973 S971 1.610 . S
N973 C974 1.351 . S
C974 C968 1.428 . S
C974 N973 1.351 . S
C974 C975 1.434 . S
C975 C966 1.429 . S
C975 N972 1.350 . S
C975 C974 1.434 . S
C976 C977 1.369 . S
C976 C978 1.419 . S
C976 H980 0.930 . S
C977 C976 1.369 . S
C977 C986 1.429 . S
C978 C976 1.419 . S
C978 C979 1.363 . S
C978 H981 0.929 . S
C979 C978 1.363 . S
C979 C985 1.428 . S
H980 C976 0.930 . S
H981 C978 0.929 . S
S982 N983 1.613 . S
S982 N984 1.610 . S
N983 S982 1.613 . S
N983 C986 1.350 . S
N984 S982 1.610 . S
N984 C985 1.351 . S
C985 C979 1.428 . S
C985 N984 1.351 . S
C985 C986 1.434 . S
C986 C977 1.429 . S
C986 N983 1.350 . S
C986 C985 1.434 . S
C987 C988 1.373 . S
C987 C989 1.419 . S
C987 H991 0.930 . S
C988 C987 1.373 . S
C988 C997 1.425 1_455 S
C989 C987 1.419 . S
C989 C990 1.374 . S
C989 H992 0.929 . S
C990 C989 1.374 . S
C990 C996 1.417 1_455 S
H991 C987 0.930 . S
H992 C989 0.929 . S
S993 N994 1.613 . S
S993 N995 1.610 . S
N994 S993 1.613 . S
N994 C997 1.350 . S
N995 S993 1.610 . S
N995 C996 1.351 . S
C996 C990 1.417 1_655 S
C996 N995 1.351 . S
C996 C997 1.434 . S
C997 C988 1.425 1_655 S
C997 N994 1.350 . S
C997 C996 1.434 . S
C998 C999 1.369 . S
C998 C1000 1.419 . S
C998 H1002 0.930 . S
C999 C998 1.369 . S
C999 C1008 1.429 . S
C1000 C998 1.419 . S
C1000 C1001 1.363 . S
C1000 H1003 0.929 . S
C1001 C1000 1.363 . S
C1001 C1007 1.428 . S
H1002 C998 0.930 . S
H1003 C1000 0.929 . S
S1004 N1005 1.613 . S
S1004 N1006 1.610 . S
N1005 S1004 1.613 . S
N1005 C1008 1.350 . S
N1006 S1004 1.610 . S
N1006 C1007 1.351 . S
C1007 C1001 1.428 . S
C1007 N1006 1.351 . S
C1007 C1008 1.434 . S
C1008 C999 1.429 . S
C1008 N1005 1.350 . S
C1008 C1007 1.434 . S
C1009 C1010 1.369 . S
C1009 C1011 1.419 . S
C1009 H1013 0.930 . S
C1010 C1009 1.369 . S
C1010 C1019 1.429 . S
C1011 C1009 1.419 . S
C1011 C1012 1.363 . S
C1011 H1014 0.929 . S
C1012 C1011 1.363 . S
C1012 C1018 1.428 . S
H1013 C1009 0.930 . S
H1014 C1011 0.929 . S
S1015 N1016 1.613 . S
S1015 N1017 1.610 . S
N1016 S1015 1.613 . S
N1016 C1019 1.350 . S
N1017 S1015 1.610 . S
N1017 C1018 1.351 . S
C1018 C1012 1.428 . S
C1018 N1017 1.351 . S
C1018 C1019 1.434 . S
C1019 C1010 1.429 . S
C1019 N1016 1.350 . S
C1019 C1018 1.434 . S
C1020 C1021 1.369 . S
C1020 C1022 1.419 . S
C1020 H1024 0.930 . S
C1021 C1020 1.369 . S
C1021 C1030 1.429 . S
C1022 C1020 1.419 . S
C1022 C1023 1.363 . S
C1022 H1025 0.929 . S
C1023 C1022 1.363 . S
C1023 C1029 1.428 . S
H1024 C1020 0.930 . S
H1025 C1022 0.929 . S
S1026 N1027 1.613 . S
S1026 N1028 1.610 . S
N1027 S1026 1.613 . S
N1027 C1030 1.350 . S
N1028 S1026 1.610 . S
N1028 C1029 1.351 . S
C1029 C1023 1.428 . S
C1029 N1028 1.351 . S
C1029 C1030 1.434 . S
C1030 C1021 1.429 . S
C1030 N1027 1.350 . S
C1030 C1029 1.434 . S
C1031 C1032 1.369 . S
C1031 C1033 1.419 . S
C1031 H1035 0.930 . S
C1032 C1031 1.369 . S
C1032 C1041 1.429 . S
C1033 C1031 1.419 . S
C1033 C1034 1.363 . S
C1033 H1036 0.929 . S
C1034 C1033 1.363 . S
C1034 C1040 1.428 . S
H1035 C1031 0.930 . S
H1036 C1033 0.929 . S
S1037 N1038 1.613 . S
S1037 N1039 1.610 . S
N1038 S1037 1.613 . S
N1038 C1041 1.350 . S
N1039 S1037 1.610 . S
N1039 C1040 1.351 . S
C1040 C1034 1.428 . S
C1040 N1039 1.351 . S
C1040 C1041 1.434 . S
C1041 C1032 1.429 . S
C1041 N1038 1.350 . S
C1041 C1040 1.434 . S
C1042 C1043 1.369 . S
C1042 C1044 1.419 . S
C1042 H1046 0.930 . S
C1043 C1042 1.369 . S
C1043 C1052 1.429 . S
C1044 C1042 1.419 . S
C1044 C1045 1.363 . S
C1044 H1047 0.929 . S
C1045 C1044 1.363 . S
C1045 C1051 1.428 . S
H1046 C1042 0.930 . S
H1047 C1044 0.929 . S
S1048 N1049 1.613 . S
S1048 N1050 1.610 . S
N1049 S1048 1.613 . S
N1049 C1052 1.350 . S
N1050 S1048 1.610 . S
N1050 C1051 1.351 . S
C1051 C1045 1.428 . S
C1051 N1050 1.351 . S
C1051 C1052 1.434 . S
C1052 C1043 1.429 . S
C1052 N1049 1.350 . S
C1052 C1051 1.434 . S
C1053 C1054 1.369 . S
C1053 C1055 1.419 . S
C1053 H1057 0.930 . S
C1054 C1053 1.369 . S
C1054 C1063 1.429 . S
C1055 C1053 1.419 . S
C1055 C1056 1.363 . S
C1055 H1058 0.929 . S
C1056 C1055 1.363 . S
C1056 C1062 1.428 . S
H1057 C1053 0.930 . S
H1058 C1055 0.929 . S
S1059 N1060 1.613 . S
S1059 N1061 1.610 . S
N1060 S1059 1.613 . S
N1060 C1063 1.350 . S
N1061 S1059 1.610 . S
N1061 C1062 1.351 . S
C1062 C1056 1.428 . S
C1062 N1061 1.351 . S
C1062 C1063 1.434 . S
C1063 C1054 1.429 . S
C1063 N1060 1.350 . S
C1063 C1062 1.434 . S
C1064 C1065 1.369 . S
C1064 C1066 1.419 . S
C1064 H1068 0.930 . S
C1065 C1064 1.369 . S
C1065 C1074 1.429 . S
C1066 C1064 1.419 . S
C1066 C1067 1.363 . S
C1066 H1069 0.929 . S
C1067 C1066 1.363 . S
C1067 C1073 1.428 . S
H1068 C1064 0.930 . S
H1069 C1066 0.929 . S
S1070 N1071 1.613 . S
S1070 N1072 1.610 . S
N1071 S1070 1.613 . S
N1071 C1074 1.350 . S
N1072 S1070 1.610 . S
N1072 C1073 1.351 . S
C1073 C1067 1.428 . S
C1073 N1072 1.351 . S
C1073 C1074 1.434 . S
C1074 C1065 1.429 . S
C1074 N1071 1.350 . S
C1074 C1073 1.434 . S
C1075 C1076 1.369 . S
C1075 C1077 1.419 . S
C1075 H1079 0.930 . S
C1076 C1075 1.369 . S
C1076 C1085 1.429 . S
C1077 C1075 1.419 . S
C1077 C1078 1.363 . S
C1077 H1080 0.929 . S
C1078 C1077 1.363 . S
C1078 C1084 1.428 . S
H1079 C1075 0.930 . S
H1080 C1077 0.929 . S
S1081 N1082 1.613 . S
S1081 N1083 1.610 . S
N1082 S1081 1.613 . S
N1082 C1085 1.350 . S
N1083 S1081 1.610 . S
N1083 C1084 1.351 . S
C1084 C1078 1.428 . S
C1084 N1083 1.351 . S
C1084 C1085 1.434 . S
C1085 C1076 1.429 . S
C1085 N1082 1.350 . S
C1085 C1084 1.434 . S
C1086 C1087 1.369 1_556 S
C1086 C1088 1.419 . S
C1086 H1090 0.930 . S
C1087 C1086 1.369 1_554 S
C1087 C1096 1.429 1_554 S
C1088 C1086 1.419 . S
C1088 C1089 1.363 . S
C1088 H1091 0.929 . S
C1089 C1088 1.363 . S
C1089 C1095 1.428 . S
H1090 C1086 0.930 . S
H1091 C1088 0.929 . S
S1092 N1093 1.613 1_556 S
S1092 N1094 1.610 . S
N1093 S1092 1.613 1_554 S
N1093 C1096 1.350 1_554 S
N1094 S1092 1.610 . S
N1094 C1095 1.351 . S
C1095 C1089 1.428 . S
C1095 N1094 1.351 . S
C1095 C1096 1.434 . S
C1096 C1087 1.429 1_556 S
C1096 N1093 1.350 1_556 S
C1096 C1095 1.434 . S
C1097 C1098 1.369 . S
C1097 C1099 1.419 . S
C1097 H1101 0.930 . S
C1098 C1097 1.369 . S
C1098 C1107 1.429 . S
C1099 C1097 1.419 . S
C1099 C1100 1.363 1_556 S
C1099 H1102 0.929 1_556 S
C1100 C1099 1.363 1_554 S
C1100 C1106 1.428 1_554 S
H1101 C1097 0.930 . S
H1102 C1099 0.929 1_554 S
S1103 N1104 1.613 . S
S1103 N1105 1.610 1_556 S
N1104 S1103 1.613 . S
N1104 C1107 1.350 . S
N1105 S1103 1.610 1_554 S
N1105 C1106 1.351 1_554 S
C1106 C1100 1.428 1_556 S
C1106 N1105 1.351 1_556 S
C1106 C1107 1.434 . S
C1107 C1098 1.429 . S
C1107 N1104 1.350 . S
C1107 C1106 1.434 . S
C1108 C1109 1.369 . S
C1108 C1110 1.419 . S
C1108 H1112 0.930 . S
C1109 C1108 1.369 . S
C1109 C1118 1.429 . S
C1110 C1108 1.419 . S
C1110 C1111 1.363 . S
C1110 H1113 0.929 . S
C1111 C1110 1.363 . S
C1111 C1117 1.428 . S
H1112 C1108 0.930 . S
H1113 C1110 0.929 . S
S1114 N1115 1.613 . S
S1114 N1116 1.610 . S
N1115 S1114 1.613 . S
N1115 C1118 1.350 . S
N1116 S1114 1.610 . S
N1116 C1117 1.351 . S
C1117 C1111 1.428 . S
C1117 N1116 1.351 . S
C1117 C1118 1.434 . S
C1118 C1109 1.429 . S
C1118 N1115 1.350 . S
C1118 C1117 1.434 . S
C1119 C1120 1.369 . S
C1119 C1121 1.419 . S
C1119 H1123 0.930 . S
C1120 C1119 1.369 . S
C1120 C1129 1.429 . S
C1121 C1119 1.419 . S
C1121 C1122 1.363 . S
C1121 H1124 0.929 . S
C1122 C1121 1.363 . S
C1122 C1128 1.428 . S
H1123 C1119 0.930 . S
H1124 C1121 0.929 . S
S1125 N1126 1.613 . S
S1125 N1127 1.610 . S
N1126 S1125 1.613 . S
N1126 C1129 1.350 . S
N1127 S1125 1.610 . S
N1127 C1128 1.351 . S
C1128 C1122 1.428 . S
C1128 N1127 1.351 . S
C1128 C1129 1.434 . S
C1129 C1120 1.429 . S
C1129 N1126 1.350 . S
C1129 C1128 1.434 . S
C1130 C1131 1.369 . S
C1130 C1132 1.419 . S
C1130 H1134 0.930 . S
C1131 C1130 1.369 . S
C1131 C1140 1.429 . S
C1132 C1130 1.419 . S
C1132 C1133 1.363 . S
C1132 H1135 0.929 . S
C1133 C1132 1.363 . S
C1133 C1139 1.428 . S
H1134 C1130 0.930 . S
H1135 C1132 0.929 . S
S1136 N1137 1.613 . S
S1136 N1138 1.610 . S
N1137 S1136 1.613 . S
N1137 C1140 1.350 . S
N1138 S1136 1.610 . S
N1138 C1139 1.351 . S
C1139 C1133 1.428 . S
C1139 N1138 1.351 . S
C1139 C1140 1.434 . S
C1140 C1131 1.429 . S
C1140 N1137 1.350 . S
C1140 C1139 1.434 . S
C1141 C1142 1.369 . S
C1141 C1143 1.419 . S
C1141 H1145 0.930 . S
C1142 C1141 1.369 . S
C1142 C1151 1.429 . S
C1143 C1141 1.419 . S
C1143 C1144 1.363 . S
C1143 H1146 0.929 . S
C1144 C1143 1.363 . S
C1144 C1150 1.428 . S
H1145 C1141 0.930 . S
H1146 C1143 0.929 . S
S1147 N1148 1.613 . S
S1147 N1149 1.610 . S
N1148 S1147 1.613 . S
N1148 C1151 1.350 . S
N1149 S1147 1.610 . S
N1149 C1150 1.351 . S
C1150 C1144 1.428 . S
C1150 N1149 1.351 . S
C1150 C1151 1.434 . S
C1151 C1142 1.429 . S
C1151 N1148 1.350 . S
C1151 C1150 1.434 . S
C1152 C1153 1.369 . S
C1152 C1154 1.419 . S
C1152 H1156 0.930 . S
C1153 C1152 1.369 . S
C1153 C1162 1.429 . S
C1154 C1152 1.419 . S
C1154 C1155 1.363 . S
C1154 H1157 0.929 . S
C1155 C1154 1.363 . S
C1155 C1161 1.428 . S
H1156 C1152 0.930 . S
H1157 C1154 0.929 . S
S1158 N1159 1.613 . S
S1158 N1160 1.610 . S
N1159 S1158 1.613 . S
N1159 C1162 1.350 . S
N1160 S1158 1.610 . S
N1160 C1161 1.351 . S
C1161 C1155 1.428 . S
C1161 N1160 1.351 . S
C1161 C1162 1.434 . S
C1162 C1153 1.429 . S
C1162 N1159 1.350 . S
C1162 C1161 1.434 . S
C1163 C1164 1.369 . S
C1163 C1165 1.419 . S
C1163 H1167 0.930 . S
C1164 C1163 1.369 . S
C1164 C1173 1.429 . S
C1165 C1163 1.419 . S
C1165 C1166 1.363 . S
C1165 H1168 0.929 . S
C1166 C1165 1.363 . S
C1166 C1172 1.428 . S
H1167 C1163 0.930 . S
H1168 C1165 0.929 . S
S1169 N1170 1.613 . S
S1169 N1171 1.610 . S
N1170 S1169 1.613 . S
N1170 C1173 1.350 . S
N1171 S1169 1.610 . S
N1171 C1172 1.351 . S
C1172 C1166 1.428 . S
C1172 N1171 1.351 . S
C1172 C1173 1.434 . S
C1173 C1164 1.429 . S
C1173 N1170 1.350 . S
C1173 C1172 1.434 . S
C1174 C1175 1.369 . S
C1174 C1176 1.419 . S
C1174 H1178 0.930 . S
C1175 C1174 1.369 . S
C1175 C1184 1.429 . S
C1176 C1174 1.419 . S
C1176 C1177 1.363 . S
C1176 H1179 0.929 . S
C1177 C1176 1.363 . S
C1177 C1183 1.428 . S
H1178 C1174 0.930 . S
H1179 C1176 0.929 . S
S1180 N1181 1.613 . S
S1180 N1182 1.610 . S
N1181 S1180 1.613 . S
N1181 C1184 1.350 . S
N1182 S1180 1.610 . S
N1182 C1183 1.351 . S
C1183 C1177 1.428 . S
C1183 N1182 1.351 . S
C1183 C1184 1.434 . S
C1184 C1175 1.429 . S
C1184 N1181 1.350 . S
C1184 C1183 1.434 . S
C1185 C1186 1.369 . S
C1185 C1187 1.419 . S
C1185 H1189 0.930 . S
C1186 C1185 1.369 . S
C1186 C1195 1.429 . S
C1187 C1185 1.419 . S
C1187 C1188 1.363 . S
C1187 H1190 0.929 . S
C1188 C1187 1.363 . S
C1188 C1194 1.428 . S
H1189 C1185 0.930 . S
H1190 C1187 0.929 . S
S1191 N1192 1.613 . S
S1191 N1193 1.610 . S
N1192 S1191 1.613 . S
N1192 C1195 1.350 . S
N1193 S1191 1.610 . S
N1193 C1194 1.351 . S
C1194 C1188 1.428 . S
C1194 N1193 1.351 . S
C1194 C1195 1.434 . S
C1195 C1186 1.429 . S
C1195 N1192 1.350 . S
C1195 C1194 1.434 . S
C1196 C1197 1.369 . S
C1196 C1198 1.419 . S
C1196 H1200 0.930 . S
C1197 C1196 1.369 . S
C1197 C1206 1.429 . S
C1198 C1196 1.419 . S
C1198 C1199 1.363 . S
C1198 H1201 0.929 . S
C1199 C1198 1.363 . S
C1199 C1205 1.428 . S
H1200 C1196 0.930 . S
H1201 C1198 0.929 . S
S1202 N1203 1.613 . S
S1202 N1204 1.610 . S
N1203 S1202 1.613 . S
N1203 C1206 1.350 . S
N1204 S1202 1.610 . S
N1204 C1205 1.351 . S
C1205 C1199 1.428 . S
C1205 N1204 1.351 . S
C1205 C1206 1.434 . S
C1206 C1197 1.429 . S
C1206 N1203 1.350 . S
C1206 C1205 1.434 . S
C1207 C1208 1.369 . S
C1207 C1209 1.419 . S
C1207 H1211 0.930 . S
C1208 C1207 1.369 . S
C1208 C1217 1.429 . S
C1209 C1207 1.419 . S
C1209 C1210 1.363 . S
C1209 H1212 0.929 . S
C1210 C1209 1.363 . S
C1210 C1216 1.428 . S
H1211 C1207 0.930 . S
H1212 C1209 0.929 . S
S1213 N1214 1.613 . S
S1213 N1215 1.610 . S
N1214 S1213 1.613 . S
N1214 C1217 1.350 . S
N1215 S1213 1.610 . S
N1215 C1216 1.351 . S
C1216 C1210 1.428 . S
C1216 N1215 1.351 . S
C1216 C1217 1.434 . S
C1217 C1208 1.429 . S
C1217 N1214 1.350 . S
C1217 C1216 1.434 . S
C1218 C1219 1.369 . S
C1218 C1220 1.419 . S
C1218 H1222 0.930 . S
C1219 C1218 1.369 . S
C1219 C1228 1.429 . S
C1220 C1218 1.419 . S
C1220 C1221 1.363 . S
C1220 H1223 0.929 . S
C1221 C1220 1.363 . S
C1221 C1227 1.428 . S
H1222 C1218 0.930 . S
H1223 C1220 0.929 . S
S1224 N1225 1.613 . S
S1224 N1226 1.610 . S
N1225 S1224 1.613 . S
N1225 C1228 1.350 . S
N1226 S1224 1.610 . S
N1226 C1227 1.351 . S
C1227 C1221 1.428 . S
C1227 N1226 1.351 . S
C1227 C1228 1.434 . S
C1228 C1219 1.429 . S
C1228 N1225 1.350 . S
C1228 C1227 1.434 . S
C1229 C1230 1.369 . S
C1229 C1231 1.419 . S
C1229 H1233 0.930 . S
C1230 C1229 1.369 . S
C1230 C1239 1.429 . S
C1231 C1229 1.419 . S
C1231 C1232 1.363 . S
C1231 H1234 0.929 . S
C1232 C1231 1.363 . S
C1232 C1238 1.428 . S
H1233 C1229 0.930 . S
H1234 C1231 0.929 . S
S1235 N1236 1.613 1_556 S
S1235 N1237 1.610 1_556 S
N1236 S1235 1.613 1_554 S
N1236 C1239 1.350 . S
N1237 S1235 1.610 1_554 S
N1237 C1238 1.351 . S
C1238 C1232 1.428 . S
C1238 N1237 1.351 . S
C1238 C1239 1.434 . S
C1239 C1230 1.429 . S
C1239 N1236 1.350 . S
C1239 C1238 1.434 . S
C1240 C1241 1.369 . S
C1240 C1242 1.419 . S
C1240 H1244 0.930 . S
C1241 C1240 1.369 . S
C1241 C1250 1.429 . S
C1242 C1240 1.419 . S
C1242 C1243 1.363 . S
C1242 H1245 0.929 . S
C1243 C1242 1.363 . S
C1243 C1249 1.428 . S
H1244 C1240 0.930 . S
H1245 C1242 0.929 . S
S1246 N1247 1.613 . S
S1246 N1248 1.610 . S
N1247 S1246 1.613 . S
N1247 C1250 1.350 . S
N1248 S1246 1.610 . S
N1248 C1249 1.351 . S
C1249 C1243 1.428 . S
C1249 N1248 1.351 . S
C1249 C1250 1.434 . S
C1250 C1241 1.429 . S
C1250 N1247 1.350 . S
C1250 C1249 1.434 . S
C1251 C1252 1.369 . S
C1251 C1253 1.419 . S
C1251 H1255 0.930 . S
C1252 C1251 1.369 . S
C1252 C1261 1.429 . S
C1253 C1251 1.419 . S
C1253 C1254 1.363 . S
C1253 H1256 0.929 . S
C1254 C1253 1.363 . S
C1254 C1260 1.428 . S
H1255 C1251 0.930 . S
H1256 C1253 0.929 . S
S1257 N1258 1.613 . S
S1257 N1259 1.610 . S
N1258 S1257 1.613 . S
N1258 C1261 1.350 . S
N1259 S1257 1.610 . S
N1259 C1260 1.351 . S
C1260 C1254 1.428 . S
C1260 N1259 1.351 . S
C1260 C1261 1.434 . S
C1261 C1252 1.429 . S
C1261 N1258 1.350 . S
C1261 C1260 1.434 . S
C1262 C1263 1.369 . S
C1262 C1264 1.419 . S
C1262 H1266 0.930 . S
C1263 C1262 1.369 . S
C1263 C1272 1.429 . S
C1264 C1262 1.419 . S
C1264 C1265 1.363 . S
C1264 H1267 0.929 . S
C1265 C1264 1.363 . S
C1265 C1271 1.428 . S
H1266 C1262 0.930 . S
H1267 C1264 0.929 . S
S1268 N1269 1.613 . S
S1268 N1270 1.610 . S
N1269 S1268 1.613 . S
N1269 C1272 1.350 . S
N1270 S1268 1.610 . S
N1270 C1271 1.351 . S
C1271 C1265 1.428 . S
C1271 N1270 1.351 . S
C1271 C1272 1.434 . S
C1272 C1263 1.429 . S
C1272 N1269 1.350 . S
C1272 C1271 1.434 . S
C1273 C1274 1.369 . S
C1273 C1275 1.419 . S
C1273 H1277 0.930 . S
C1274 C1273 1.369 . S
C1274 C1283 1.429 . S
C1275 C1273 1.419 . S
C1275 C1276 1.363 . S
C1275 H1278 0.929 . S
C1276 C1275 1.363 . S
C1276 C1282 1.428 . S
H1277 C1273 0.930 . S
H1278 C1275 0.929 . S
S1279 N1280 1.613 . S
S1279 N1281 1.610 . S
N1280 S1279 1.613 . S
N1280 C1283 1.350 . S
N1281 S1279 1.610 . S
N1281 C1282 1.351 . S
C1282 C1276 1.428 . S
C1282 N1281 1.351 . S
C1282 C1283 1.434 . S
C1283 C1274 1.429 . S
C1283 N1280 1.350 . S
C1283 C1282 1.434 . S
C1284 C1285 1.369 . S
C1284 C1286 1.419 . S
C1284 H1288 0.930 . S
C1285 C1284 1.369 . S
C1285 C1294 1.429 . S
C1286 C1284 1.419 . S
C1286 C1287 1.363 . S
C1286 H1289 0.929 . S
C1287 C1286 1.363 . S
C1287 C1293 1.428 . S
H1288 C1284 0.930 . S
H1289 C1286 0.929 . S
S1290 N1291 1.613 . S
S1290 N1292 1.610 . S
N1291 S1290 1.613 . S
N1291 C1294 1.350 . S
N1292 S1290 1.610 . S
N1292 C1293 1.351 . S
C1293 C1287 1.428 . S
C1293 N1292 1.351 . S
C1293 C1294 1.434 . S
C1294 C1285 1.429 . S
C1294 N1291 1.350 . S
C1294 C1293 1.434 . S
C1295 C1296 1.369 . S
C1295 C1297 1.419 1_545 S
C1295 H1299 0.930 . S
C1296 C1295 1.369 . S
C1296 C1305 1.429 . S
C1297 C1295 1.419 1_565 S
C1297 C1298 1.363 . S
C1297 H1300 0.929 . S
C1298 C1297 1.363 . S
C1298 C1304 1.428 1_565 S
H1299 C1295 0.930 . S
H1300 C1297 0.929 . S
S1301 N1302 1.613 . S
S1301 N1303 1.610 . S
N1302 S1301 1.613 . S
N1302 C1305 1.350 . S
N1303 S1301 1.610 . S
N1303 C1304 1.351 . S
C1304 C1298 1.428 1_545 S
C1304 N1303 1.351 . S
C1304 C1305 1.434 . S
C1305 C1296 1.429 . S
C1305 N1302 1.350 . S
C1305 C1304 1.434 . S
C1306 C1307 1.369 . S
C1306 C1308 1.419 . S
C1306 H1310 0.930 . S
C1307 C1306 1.369 . S
C1307 C1316 1.429 . S
C1308 C1306 1.419 . S
C1308 C1309 1.363 . S
C1308 H1311 0.929 . S
C1309 C1308 1.363 . S
C1309 C1315 1.428 . S
H1310 C1306 0.930 . S
H1311 C1308 0.929 . S
S1312 N1313 1.613 . S
S1312 N1314 1.610 . S
N1313 S1312 1.613 . S
N1313 C1316 1.350 . S
N1314 S1312 1.610 . S
N1314 C1315 1.351 . S
C1315 C1309 1.428 . S
C1315 N1314 1.351 . S
C1315 C1316 1.434 . S
C1316 C1307 1.429 . S
C1316 N1313 1.350 . S
C1316 C1315 1.434 . S
C1317 C1318 1.369 . S
C1317 C1319 1.419 . S
C1317 H1321 0.930 . S
C1318 C1317 1.369 . S
C1318 C1327 1.429 . S
C1319 C1317 1.419 . S
C1319 C1320 1.363 . S
C1319 H1322 0.929 . S
C1320 C1319 1.363 . S
C1320 C1326 1.428 . S
H1321 C1317 0.930 . S
H1322 C1319 0.929 . S
S1323 N1324 1.613 . S
S1323 N1325 1.610 . S
N1324 S1323 1.613 . S
N1324 C1327 1.350 . S
N1325 S1323 1.610 . S
N1325 C1326 1.351 . S
C1326 C1320 1.428 . S
C1326 N1325 1.351 . S
C1326 C1327 1.434 . S
C1327 C1318 1.429 . S
C1327 N1324 1.350 . S
C1327 C1326 1.434 . S
C1328 C1329 1.369 . S
C1328 C1330 1.419 . S
C1328 H1332 0.930 . S
C1329 C1328 1.369 . S
C1329 C1338 1.429 . S
C1330 C1328 1.419 . S
C1330 C1331 1.363 . S
C1330 H1333 0.929 . S
C1331 C1330 1.363 . S
C1331 C1337 1.428 . S
H1332 C1328 0.930 . S
H1333 C1330 0.929 . S
S1334 N1335 1.613 . S
S1334 N1336 1.610 . S
N1335 S1334 1.613 . S
N1335 C1338 1.350 . S
N1336 S1334 1.610 . S
N1336 C1337 1.351 . S
C1337 C1331 1.428 . S
C1337 N1336 1.351 . S
C1337 C1338 1.434 . S
C1338 C1329 1.429 . S
C1338 N1335 1.350 . S
C1338 C1337 1.434 . S
C1339 C1340 1.369 . S
C1339 C1341 1.419 1_455 S
C1339 H1343 0.930 . S
C1340 C1339 1.369 . S
C1340 C1349 1.429 . S
C1341 C1339 1.419 1_655 S
C1341 C1342 1.363 . S
C1341 H1344 0.929 . S
C1342 C1341 1.363 . S
C1342 C1348 1.428 . S
H1343 C1339 0.930 . S
H1344 C1341 0.929 . S
S1345 N1346 1.613 . S
S1345 N1347 1.610 1_455 S
N1346 S1345 1.613 . S
N1346 C1349 1.350 . S
N1347 S1345 1.610 1_655 S
N1347 C1348 1.351 . S
C1348 C1342 1.428 . S
C1348 N1347 1.351 . S
C1348 C1349 1.434 1_655 S
C1349 C1340 1.429 . S
C1349 N1346 1.350 . S
C1349 C1348 1.434 1_455 S
C955 C250 1.992 . S
C957 C38 1.991 . S
C966 C304 1.991 . S
C968 C92 1.991 . S
C977 C144 1.162 . S
C979 C188 1.163 . S
C988 C251 1.957 . S
C990 C39 1.956 . S
C999 C303 1.957 . S
C1001 C91 1.957 . S
C1010 C145 1.122 . S
C1012 C181 1.123 . S
C1021 C569 1.949 . S
C1023 C356 1.949 . S
C1032 C622 1.948 . S
C1034 C409 1.947 . S
C1043 C462 1.948 . S
C1045 C516 1.948 . S
C1054 C357 1.999 . S
C1056 C568 1.999 1_554 S
C1065 C621 2.001 1_554 S
C1067 C410 2.000 . S
C1076 C515 1.999 1_554 S
C1078 C463 2.000 . S
C1087 C887 1.151 . S
C1089 C665 1.152 . S
C1098 C711 1.155 . S
C1100 C939 1.155 . S
C1109 C824 0.325 . S
C1111 C764 0.325 . S
C1120 C886 1.136 . S
C1122 C658 1.136 . S
C1131 C940 1.130 . S
C1133 C718 1.131 . S
C1142 C771 0.303 . S
C1144 C817 0.312 . S
C1153 C22 1.557 . S
C1155 C506 1.560 . S
C1164 C559 1.514 . S
C1166 C82 1.511 . S
C1175 C612 1.504 . S
C1177 C128 1.505 . S
C1186 C198 1.537 . S
C1188 C675 1.536 . S
C1197 C727 1.524 . S
C1199 C234 1.521 . S
C1208 C780 1.512 . S
C1210 C294 1.512 . S
C1219 C833 1.570 . S
C1221 C29 1.560 . S
C1230 C870 1.518 . S
C1232 C75 1.520 . S
C1241 C930 1.500 . S
C1243 C135 1.500 . S
C1252 C197 1.543 . S
C1254 C347 1.549 . S
C1263 C241 1.514 . S
C1265 C400 1.512 . S
C1274 C453 1.516 . S
C1276 C287 1.517 . S
C1285 C834 1.522 . S
C1287 C340 1.519 . S
C1296 C877 1.547 . S
C1298 C393 1.548 . S
C1307 C446 1.517 . S
C1309 C923 1.520 1_455 S
C1318 C674 1.504 . S
C1320 C499 1.504 . S
C1329 C728 1.519 . S
C1331 C552 1.516 1_545 S
C1340 C605 1.518 . S
C1342 C781 1.518 . S
