# Generated by pormake.
# Topology zfl, (5)-cn, num edge types: 1
# Building blocks:
#     Node 0, Type 0, BuildingBlock: BEQFEK_clean_sbu_0, # of connection points: 5
#     Node 1, Type 0, BuildingBlock: BEQFEK_clean_sbu_0, # of connection points: 5
#     Node 2, Type 0, BuildingBlock: BEQFEK_clean_sbu_0, # of connection points: 5
#     Node 3, Type 0, BuildingBlock: BEQFEK_clean_sbu_0, # of connection points: 5
#     Node 4, Type 0, BuildingBlock: BEQFEK_clean_sbu_0, # of connection points: 5
#     Node 5, Type 0, BuildingBlock: BEQFEK_clean_sbu_0, # of connection points: 5
#     Node 6, Type 0, BuildingBlock: BEQFEK_clean_sbu_0, # of connection points: 5
#     Node 7, Type 0, BuildingBlock: BEQFEK_clean_sbu_0, # of connection points: 5
#     Node 8, Type 0, BuildingBlock: BEQFEK_clean_sbu_0, # of connection points: 5
#     Node 9, Type 0, BuildingBlock: BEQFEK_clean_sbu_0, # of connection points: 5
#     Node 10, Type 0, BuildingBlock: BEQFEK_clean_sbu_0, # of connection points: 5
#     Node 11, Type 0, BuildingBlock: BEQFEK_clean_sbu_0, # of connection points: 5
#     Node 12, Type 0, BuildingBlock: BEQFEK_clean_sbu_0, # of connection points: 5
#     Node 13, Type 0, BuildingBlock: BEQFEK_clean_sbu_0, # of connection points: 5
#     Node 14, Type 0, BuildingBlock: BEQFEK_clean_sbu_0, # of connection points: 5
#     Node 15, Type 0, BuildingBlock: BEQFEK_clean_sbu_0, # of connection points: 5
#     Edge 16, Type (0, 0), BuildingBlock: KIFKEQ_clean_linker_1, # of connection points: 2
#     Edge 17, Type (0, 0), BuildingBlock: KIFKEQ_clean_linker_1, # of connection points: 2
#     Edge 18, Type (0, 0), BuildingBlock: KIFKEQ_clean_linker_1, # of connection points: 2
#     Edge 19, Type (0, 0), BuildingBlock: KIFKEQ_clean_linker_1, # of connection points: 2
#     Edge 20, Type (0, 0), BuildingBlock: KIFKEQ_clean_linker_1, # of connection points: 2
#     Edge 21, Type (0, 0), BuildingBlock: KIFKEQ_clean_linker_1, # of connection points: 2
#     Edge 22, Type (0, 0), BuildingBlock: KIFKEQ_clean_linker_1, # of connection points: 2
#     Edge 23, Type (0, 0), BuildingBlock: KIFKEQ_clean_linker_1, # of connection points: 2
#     Edge 24, Type (0, 0), BuildingBlock: KIFKEQ_clean_linker_1, # of connection points: 2
#     Edge 25, Type (0, 0), BuildingBlock: KIFKEQ_clean_linker_1, # of connection points: 2
#     Edge 26, Type (0, 0), BuildingBlock: KIFKEQ_clean_linker_1, # of connection points: 2
#     Edge 27, Type (0, 0), BuildingBlock: KIFKEQ_clean_linker_1, # of connection points: 2
#     Edge 28, Type (0, 0), BuildingBlock: KIFKEQ_clean_linker_1, # of connection points: 2
#     Edge 29, Type (0, 0), BuildingBlock: KIFKEQ_clean_linker_1, # of connection points: 2
#     Edge 30, Type (0, 0), BuildingBlock: KIFKEQ_clean_linker_1, # of connection points: 2
#     Edge 31, Type (0, 0), BuildingBlock: KIFKEQ_clean_linker_1, # of connection points: 2
#     Edge 32, Type (0, 0), BuildingBlock: KIFKEQ_clean_linker_1, # of connection points: 2
#     Edge 33, Type (0, 0), BuildingBlock: KIFKEQ_clean_linker_1, # of connection points: 2
#     Edge 34, Type (0, 0), BuildingBlock: KIFKEQ_clean_linker_1, # of connection points: 2
#     Edge 35, Type (0, 0), BuildingBlock: KIFKEQ_clean_linker_1, # of connection points: 2
#     Edge 36, Type (0, 0), BuildingBlock: KIFKEQ_clean_linker_1, # of connection points: 2
#     Edge 37, Type (0, 0), BuildingBlock: KIFKEQ_clean_linker_1, # of connection points: 2
#     Edge 38, Type (0, 0), BuildingBlock: KIFKEQ_clean_linker_1, # of connection points: 2
#     Edge 39, Type (0, 0), BuildingBlock: KIFKEQ_clean_linker_1, # of connection points: 2
#     Edge 40, Type (0, 0), BuildingBlock: KIFKEQ_clean_linker_1, # of connection points: 2
#     Edge 41, Type (0, 0), BuildingBlock: KIFKEQ_clean_linker_1, # of connection points: 2
#     Edge 42, Type (0, 0), BuildingBlock: KIFKEQ_clean_linker_1, # of connection points: 2
#     Edge 43, Type (0, 0), BuildingBlock: KIFKEQ_clean_linker_1, # of connection points: 2
#     Edge 44, Type (0, 0), BuildingBlock: KIFKEQ_clean_linker_1, # of connection points: 2
#     Edge 45, Type (0, 0), BuildingBlock: KIFKEQ_clean_linker_1, # of connection points: 2
#     Edge 46, Type (0, 0), BuildingBlock: KIFKEQ_clean_linker_1, # of connection points: 2
#     Edge 47, Type (0, 0), BuildingBlock: KIFKEQ_clean_linker_1, # of connection points: 2
#     Edge 48, Type (0, 0), BuildingBlock: KIFKEQ_clean_linker_1, # of connection points: 2
#     Edge 49, Type (0, 0), BuildingBlock: KIFKEQ_clean_linker_1, # of connection points: 2
#     Edge 50, Type (0, 0), BuildingBlock: KIFKEQ_clean_linker_1, # of connection points: 2
#     Edge 51, Type (0, 0), BuildingBlock: KIFKEQ_clean_linker_1, # of connection points: 2
#     Edge 52, Type (0, 0), BuildingBlock: KIFKEQ_clean_linker_1, # of connection points: 2
#     Edge 53, Type (0, 0), BuildingBlock: KIFKEQ_clean_linker_1, # of connection points: 2
#     Edge 54, Type (0, 0), BuildingBlock: KIFKEQ_clean_linker_1, # of connection points: 2
#     Edge 55, Type (0, 0), BuildingBlock: KIFKEQ_clean_linker_1, # of connection points: 2
# Relax obj value: 0.191
# Max RMSD: 0.233
# Mean RMSD: 0.219
data_MOF--net-zfl--node1-BEQFEK_clean_sbu_0--edge1-KIFKEQ_clean_linker_1
_symmetry_space_group_name_H-M    P1
_symmetry_Int_Tables_number       1
_symmetry_cell_setting            triclinic
loop_
_symmetry_equiv_pos_as_xyz
'x, y, z'
_cell_length_a     27.824848
_cell_length_b     27.845654
_cell_length_c     76.787615
_cell_angle_alpha  89.94802
_cell_angle_beta   89.883508
_cell_angle_gamma 90.014379
loop_
_atom_site_label
_atom_site_type_symbol
_atom_site_fract_x
_atom_site_fract_y
_atom_site_fract_z
_atom_type_partial_charge
Co0 Co 0.56717 0.02826 0.16412 0.0
Co1 Co 0.58555 0.0329 0.12334 0.0
C2 C 0.4944 0.0696 0.13974 0.0
O3 O 0.50722 0.05856 0.15517 0.0
O4 O 0.52119 0.06062 0.12669 0.0
C5 C 0.51939 0.00311 0.19657 0.0
O6 O 0.48168 -0.00222 0.18648 0.0
C7 C 0.56484 0.01666 0.0862 0.0
C8 C 0.63521 0.03129 0.07397 0.0
C9 C 0.58814 0.01876 0.07016 0.0
N10 N 0.59663 0.02766 0.09877 0.0
N11 N 0.6386 0.0365 0.09136 0.0
C12 C 0.51416 0.00165 0.0898 0.0
H13 H 0.51089 0.9873 0.10324 0.0
H14 H 0.50234 0.97406 0.0803 0.0
H15 H 0.49028 0.03336 0.08861 0.0
C16 C 0.58538 0.92427 0.15661 0.0
N17 N 0.58255 0.97069 0.15164 0.0
N18 N 0.59154 0.97343 0.13482 0.0
C19 C 0.60127 0.92931 0.12865 0.0
C20 C 0.59723 0.89648 0.14216 0.0
C21 C 0.57213 0.90685 0.17443 0.0
H22 H 0.53402 0.91597 0.17706 0.0
H23 H 0.57671 0.86753 0.17583 0.0
H24 H 0.59452 0.92555 0.18425 0.0
O25 O 0.61923 0.07751 0.16135 0.0
O26 O 0.6321 0.07893 0.13275 0.0
H27 H 0.64136 0.94533 0.10553 0.0
H28 H 0.62989 0.88226 0.10871 0.0
C29 C 0.61451 0.91881 0.11013 0.0
H30 H 0.58204 0.92177 0.10185 0.0
H31 H 0.66954 0.04614 0.09817 0.0
O32 O 0.55934 0.01528 0.18974 0.0
C33 C 0.64125 0.09406 0.14802 0.0
Co34 Co 0.456 0.57351 0.66289 0.0
Co35 Co 0.45081 0.58267 0.62177 0.0
C36 C 0.41365 0.4959 0.64069 0.0
O37 O 0.42514 0.51251 0.65555 0.0
O38 O 0.42272 0.51918 0.62681 0.0
C39 C 0.48009 0.52833 0.69533 0.0
O40 O 0.48331 0.4903 0.68528 0.0
C41 C 0.47503 0.55597 0.58561 0.0
C42 C 0.44548 0.61719 0.5708 0.0
C43 C 0.4688 0.57354 0.5688 0.0
N44 N 0.45655 0.58797 0.59694 0.0
N45 N 0.43909 0.62452 0.58798 0.0
C46 C 0.49508 0.50816 0.59081 0.0
H47 H 0.4861 0.49963 0.60452 0.0
H48 H 0.53477 0.50882 0.58961 0.0
H49 H 0.48118 0.47965 0.58207 0.0
C50 C 0.55954 0.59135 0.65493 0.0
N51 N 0.51332 0.58613 0.64999 0.0
N52 N 0.51041 0.59234 0.63302 0.0
C53 C 0.55421 0.60341 0.62674 0.0
C54 C 0.58707 0.60249 0.6403 0.0
C55 C 0.57696 0.58139 0.673 0.0
H56 H 0.55973 0.60688 0.68219 0.0
H57 H 0.56604 0.54457 0.67682 0.0
H58 H 0.61652 0.58415 0.67413 0.0
O59 O 0.40723 0.62554 0.659 0.0
O60 O 0.40357 0.62991 0.63007 0.0
H61 H 0.53418 0.63893 0.60301 0.0
H62 H 0.59803 0.63796 0.60711 0.0
C63 C 0.56418 0.61707 0.60821 0.0
H64 H 0.5677 0.58415 0.60023 0.0
H65 H 0.42207 0.65412 0.59358 0.0
O66 O 0.46951 0.56863 0.68848 0.0
C67 C 0.38924 0.64313 0.64509 0.0
Co68 Co 0.92016 0.45314 0.16573 0.0
Co69 Co 0.90661 0.45502 0.12478 0.0
C70 C 0.99415 0.41244 0.1411 0.0
O71 O 0.97951 0.42206 0.15646 0.0
O72 O 0.96969 0.42424 0.12778 0.0
C73 C 0.96779 0.47933 0.19751 0.0
O74 O 0.00302 0.49048 0.18682 0.0
C75 C 0.92699 0.47027 0.08732 0.0
C76 C 0.85412 0.4669 0.07603 0.0
C77 C 0.90217 0.47193 0.07164 0.0
N78 N 0.89496 0.46467 0.10035 0.0
N79 N 0.85147 0.46306 0.09349 0.0
C80 C 0.98026 0.46887 0.08988 0.0
H81 H 0.98981 0.48478 0.10265 0.0
H82 H -0.00028 0.48797 0.07938 0.0
H83 H 0.99208 0.43086 0.08975 0.0
C84 C 0.8995 0.55699 0.16065 0.0
N85 N 0.90608 0.51228 0.1544 0.0
N86 N 0.90276 0.51342 0.13731 0.0
C87 C 0.89555 0.55906 0.1321 0.0
C88 C 0.89283 0.58831 0.14675 0.0
C89 C 0.89754 0.56904 0.17963 0.0
H90 H 0.87917 0.5399 0.18691 0.0
H91 H 0.93468 0.57256 0.18469 0.0
H92 H 0.87813 0.6033 0.18188 0.0
O93 O 0.8673 0.40682 0.16224 0.0
O94 O 0.85773 0.40847 0.1335 0.0
H95 H 0.86139 0.56411 0.10726 0.0
H96 H 0.90138 0.61365 0.11195 0.0
C97 C 0.89593 0.57444 0.1134 0.0
H98 H 0.92537 0.55582 0.10642 0.0
H99 H 0.82003 0.45819 0.10071 0.0
O100 O 0.92882 0.46285 0.19126 0.0
C101 C 0.84643 0.39212 0.14849 0.0
Co102 Co 0.03182 0.92514 0.66714 0.0
Co103 Co 0.03099 0.91897 0.62574 0.0
C104 C 0.07127 0.00391 0.64365 0.0
O105 O 0.06254 0.9857 0.65858 0.0
O106 O 0.05911 0.98241 0.62975 0.0
C107 C 0.00197 0.97309 0.69806 0.0
O108 O 0.99155 0.0064 0.68655 0.0
C109 C 0.01422 0.93876 0.58788 0.0
C110 C 0.02814 0.86689 0.57685 0.0
C111 C 0.01683 0.91364 0.57224 0.0
N112 N 0.02343 0.90807 0.60109 0.0
N113 N 0.03137 0.86517 0.59432 0.0
C114 C 0.00567 0.9915 0.59006 0.0
H115 H 0.0159 0.00377 0.60321 0.0
H116 H 0.96689 -0.00083 0.58827 0.0
H117 H 0.026 0.01201 0.58006 0.0
C118 C 0.9291 0.90101 0.66128 0.0
N119 N 0.97351 0.91098 0.65526 0.0
N120 N 0.97275 0.91046 0.63812 0.0
C121 C 0.92767 0.90143 0.63268 0.0
C122 C 0.8984 0.89475 0.64719 0.0
C123 C 0.9169 0.89547 0.68016 0.0
H124 H 0.94706 0.87797 0.68713 0.0
H125 H 0.91099 0.93149 0.68594 0.0
H126 H 0.88382 0.87371 0.68194 0.0
O127 O 0.07948 0.87316 0.66314 0.0
O128 O 0.07985 0.87241 0.63414 0.0
H129 H 0.92533 0.87046 0.60725 0.0
H130 H 0.8732 0.90652 0.61252 0.0
C131 C 0.91266 0.90335 0.61399 0.0
H132 H 0.9296 0.93477 0.60763 0.0
H133 H 0.04012 0.83482 0.60164 0.0
O134 O 0.01987 0.93363 0.69275 0.0
C135 C 0.09596 0.85743 0.64872 0.0
Co136 Co 0.56886 0.45642 0.85723 0.0
Co137 Co 0.57564 0.45842 0.89842 0.0
C138 C 0.49095 0.41618 0.88092 0.0
O139 O 0.50873 0.425 0.86591 0.0
O140 O 0.51244 0.4291 0.89474 0.0
C141 C 0.52419 0.48595 0.82528 0.0
O142 O 0.4899 0.49975 0.83595 0.0
C143 C 0.55287 0.47352 0.93569 0.0
C144 C 0.62532 0.47392 0.94736 0.0
C145 C 0.57691 0.47751 0.95153 0.0
N146 N 0.58562 0.46759 0.92292 0.0
N147 N 0.62881 0.4678 0.93002 0.0
C148 C 0.50014 0.47882 0.93243 0.0
H149 H 0.49376 0.4926 0.91907 0.0
H150 H 0.48363 0.50366 0.94202 0.0
H151 H 0.48265 0.44316 0.93362 0.0
C152 C 0.59102 0.55988 0.86261 0.0
N153 N 0.58206 0.51543 0.86876 0.0
N154 N 0.58273 0.5166 0.8859 0.0
C155 C 0.5907 0.56201 0.89119 0.0
C156 C 0.59663 0.59101 0.8766 0.0
C157 C 0.59637 0.57184 0.8437 0.0
H158 H 0.61413 0.54179 0.83675 0.0
H159 H 0.56027 0.57749 0.83796 0.0
H160 H 0.61787 0.60506 0.84187 0.0
O161 O 0.62159 0.41007 0.86139 0.0
O162 O 0.62348 0.4103 0.89036 0.0
H163 H 0.62241 0.5671 0.91645 0.0
H164 H 0.58339 0.61687 0.91112 0.0
C165 C 0.58857 0.57757 0.90984 0.0
H166 H 0.55831 0.55932 0.91648 0.0
H167 H 0.66072 0.46378 0.92301 0.0
O168 O 0.56174 0.46651 0.83158 0.0
C169 C 0.63827 0.39426 0.87574 0.0
Co170 Co 0.0346 0.56688 0.35958 0.0
Co171 Co 0.0313 0.57327 0.40083 0.0
C172 C 0.07446 0.48897 0.38269 0.0
O173 O 0.06587 0.50626 0.36764 0.0
O174 O 0.06181 0.5111 0.39641 0.0
C175 C 0.00911 0.52223 0.32748 0.0
O176 O 0.99783 0.48679 0.33804 0.0
C177 C 0.00925 0.54711 0.43766 0.0
C178 C 0.02372 0.61584 0.45097 0.0
C179 C 0.01011 0.5687 0.45399 0.0
N180 N 0.02145 0.58017 0.42557 0.0
N181 N 0.02985 0.62117 0.43368 0.0
C182 C -0.0003 0.49524 0.43381 0.0
H183 H 0.01893 0.47208 0.44328 0.0
H184 H 0.01046 0.48582 0.42039 0.0
H185 H 0.9607 0.48789 0.43508 0.0
C186 C 0.93059 0.58734 0.3647 0.0
N187 N 0.975 0.57912 0.371 0.0
N188 N 0.97335 0.58039 0.38813 0.0
C189 C 0.92771 0.58836 0.39328 0.0
C190 C 0.89898 0.59326 0.37858 0.0
C191 C 0.9191 0.59156 0.34573 0.0
H192 H 0.94855 0.61061 0.33885 0.0
H193 H 0.91558 0.55508 0.34008 0.0
H194 H 0.88495 0.61133 0.34366 0.0
O195 O 0.08044 0.61968 0.36434 0.0
O196 O 0.07903 0.62245 0.39332 0.0
H197 H 0.92735 0.6183 0.41891 0.0
H198 H 0.87229 0.58728 0.41336 0.0
C199 C 0.91187 0.58709 0.41192 0.0
H200 H 0.92567 0.55398 0.41808 0.0
H201 H 0.04066 0.65266 0.42742 0.0
O202 O 0.02548 0.56103 0.3339 0.0
C203 C 0.0954 0.63704 0.3787 0.0
Co204 Co 0.91959 0.03097 0.86166 0.0
Co205 Co 0.90735 0.03764 0.9026 0.0
C206 C 0.99693 0.071 0.88491 0.0
O207 O 0.98072 0.0604 0.86987 0.0
O208 O 0.97273 0.0622 0.89863 0.0
C209 C 0.94652 0.04493 0.82598 0.0
O210 O 0.96054 0.08668 0.8321 0.0
C211 C 0.92848 0.02097 0.9396 0.0
C212 C 0.85947 0.03964 0.95212 0.0
C213 C 0.90583 0.0243 0.95573 0.0
N214 N 0.89698 0.03388 0.92718 0.0
N215 N 0.85586 0.04518 0.93476 0.0
C216 C 0.97804 0.00305 0.93574 0.0
H217 H 0.97976 0.98815 0.92235 0.0
H218 H 0.98884 0.9751 0.94528 0.0
H219 H 0.00372 0.03345 0.93657 0.0
C220 C 0.89947 0.92834 0.86986 0.0
N221 N 0.90429 0.97465 0.87466 0.0
N222 N 0.89715 0.97807 0.89156 0.0
C223 C 0.88608 0.93448 0.89797 0.0
C224 C 0.88763 0.90125 0.88451 0.0
C225 C 0.91078 0.91029 0.85196 0.0
H226 H 0.88081 0.91979 0.84309 0.0
H227 H 0.9438 0.92804 0.84702 0.0
H228 H 0.91618 0.87086 0.85176 0.0
O229 O 0.8685 0.08136 0.86437 0.0
O230 O 0.86358 0.08628 0.89324 0.0
H231 H 0.84844 0.9534 0.92134 0.0
H232 H 0.85529 0.8897 0.9182 0.0
C233 C 0.87314 0.92507 0.9166 0.0
H234 H 0.90617 0.92584 0.92466 0.0
H235 H 0.8253 0.05655 0.92807 0.0
O236 O 0.92703 0.015 0.83635 0.0
C237 C 0.85135 0.10059 0.87814 0.0
Co238 Co 0.45323 0.92304 0.36004 0.0
Co239 Co 0.45096 0.91303 0.40128 0.0
C240 C 0.41441 0.00099 0.38297 0.0
O241 O 0.4236 0.98473 0.36781 0.0
O242 O 0.42454 0.97696 0.39655 0.0
C243 C 0.47795 0.9667 0.32708 0.0
O244 O 0.48411 0.00481 0.3369 0.0
C245 C 0.4749 0.9384 0.43771 0.0
C246 C 0.44637 0.87562 0.45197 0.0
C247 C 0.46854 0.9197 0.45439 0.0
N248 N 0.45746 0.90667 0.42608 0.0
N249 N 0.44069 0.86917 0.43472 0.0
C250 C 0.49415 0.9869 0.43295 0.0
H251 H 0.48535 0.99616 0.41931 0.0
H252 H 0.53384 0.98682 0.43418 0.0
H253 H 0.47958 0.01461 0.4419 0.0
C254 C 0.55746 0.90417 0.36716 0.0
N255 N 0.5114 0.90924 0.37242 0.0
N256 N 0.50935 0.90269 0.3894 0.0
C257 C 0.55341 0.8918 0.39536 0.0
C258 C 0.58567 0.89308 0.38158 0.0
C259 C 0.57423 0.91439 0.349 0.0
H260 H 0.55475 0.8908 0.33976 0.0
H261 H 0.56551 0.95213 0.34567 0.0
H262 H 0.61343 0.9091 0.34743 0.0
O263 O 0.40381 0.8716 0.36437 0.0
O264 O 0.40234 0.86716 0.39333 0.0
H265 H 0.59884 0.85924 0.4149 0.0
H266 H 0.56682 0.91223 0.42173 0.0
C267 C 0.56431 0.87898 0.41388 0.0
H268 H 0.53516 0.85626 0.41928 0.0
H269 H 0.42442 0.83956 0.42886 0.0
O270 O 0.46526 0.92737 0.33423 0.0
C271 C 0.38661 0.85427 0.37849 0.0
Co272 Co 0.42306 0.95417 0.91598 0.0
Co273 Co 0.40586 0.94949 0.87538 0.0
C274 C 0.49696 0.91453 0.89099 0.0
O275 O 0.48214 0.92338 0.90636 0.0
O276 O 0.47161 0.92506 0.87778 0.0
C277 C 0.4784 0.98104 0.9454 0.0
O278 O 0.51052 0.98792 0.93308 0.0
C279 C 0.42395 0.96987 0.83863 0.0
C280 C 0.35485 0.95131 0.82625 0.0
C281 C 0.40071 0.96822 0.82263 0.0
N282 N 0.39333 0.95459 0.85101 0.0
N283 N 0.35215 0.94321 0.84352 0.0
C284 C 0.47306 0.98904 0.84249 0.0
H285 H 0.47512 0.00149 0.8562 0.0
H286 H 0.48215 0.01915 0.8336 0.0
H287 H 0.49984 0.95996 0.84066 0.0
C288 C 0.40275 0.0581 0.9086 0.0
N289 N 0.40656 0.01171 0.90365 0.0
N290 N 0.3975 0.00876 0.88686 0.0
C291 C 0.38659 0.05266 0.88072 0.0
C292 C 0.39022 0.08562 0.89415 0.0
C293 C 0.41555 0.0759 0.92638 0.0
H294 H 0.45478 0.07159 0.92836 0.0
H295 H 0.4062 0.11425 0.92816 0.0
H296 H 0.39675 0.054 0.93635 0.0
O297 O 0.37071 0.90485 0.91414 0.0
O298 O 0.36325 0.90045 0.88532 0.0
H299 H 0.34739 0.03515 0.85756 0.0
H300 H 0.35471 0.09865 0.86117 0.0
C301 C 0.37248 0.0631 0.86229 0.0
H302 H 0.40497 0.06305 0.85392 0.0
H303 H 0.32215 0.9304 0.85022 0.0
O304 O 0.43638 0.96738 0.94112 0.0
C305 C 0.3523 0.88594 0.90055 0.0
Co306 Co 0.53484 0.41619 0.41467 0.0
Co307 Co 0.53228 0.40651 0.37365 0.0
C308 C 0.57241 0.49353 0.39008 0.0
O309 O 0.56494 0.47591 0.40518 0.0
O310 O 0.55933 0.47131 0.3764 0.0
C311 C 0.55488 0.44565 0.44971 0.0
O312 O 0.59761 0.45486 0.4432 0.0
C313 C 0.51834 0.4216 0.33578 0.0
C314 C 0.49997 0.34825 0.32712 0.0
C315 C 0.50426 0.39517 0.32129 0.0
N316 N 0.52098 0.39181 0.34956 0.0
N317 N 0.51057 0.34794 0.34422 0.0
C318 C 0.53199 0.47351 0.33648 0.0
H319 H 0.56688 0.47695 0.34327 0.0
H320 H 0.50457 0.49361 0.34404 0.0
H321 H 0.5359 0.4894 0.32331 0.0
C322 C 0.43169 0.39347 0.40992 0.0
N323 N 0.47608 0.40129 0.4035 0.0
N324 N 0.47443 0.39991 0.3864 0.0
C325 C 0.42861 0.39292 0.38135 0.0
C326 C 0.39996 0.38785 0.3961 0.0
C327 C 0.42045 0.3905 0.42896 0.0
H328 H 0.44936 0.37059 0.43578 0.0
H329 H 0.41894 0.42734 0.43444 0.0
H330 H 0.38559 0.37224 0.43132 0.0
O331 O 0.58201 0.3639 0.41125 0.0
O332 O 0.58199 0.36107 0.38227 0.0
H333 H 0.41634 0.36171 0.35633 0.0
H334 H 0.37359 0.40764 0.36214 0.0
C335 C 0.41191 0.39693 0.36288 0.0
H336 H 0.43356 0.42414 0.35585 0.0
H337 H 0.50948 0.31794 0.35236 0.0
O338 O 0.52289 0.42762 0.43988 0.0
C339 C 0.59834 0.34723 0.39696 0.0
Co340 Co 0.06217 0.52972 0.91625 0.0
Co341 Co 0.0775 0.53528 0.87542 0.0
C342 C 0.98854 0.57307 0.89226 0.0
O343 O 0.00342 0.56179 0.90737 0.0
O344 O 0.01327 0.56346 0.87878 0.0
C345 C 0.00755 0.50447 0.94612 0.0
O346 O 0.9744 0.4999 0.93407 0.0
C347 C 0.05815 0.51052 0.83885 0.0
C348 C 0.12248 0.53899 0.82546 0.0
C349 C 0.07936 0.51541 0.82253 0.0
N350 N 0.08769 0.52977 0.85082 0.0
N351 N 0.12604 0.54677 0.84272 0.0
C352 C 0.00932 0.4907 0.8429 0.0
H353 H 0.99716 0.50191 0.856 0.0
H354 H 0.01053 0.45094 0.84273 0.0
H355 H 0.98303 0.5026 0.83294 0.0
C356 C 0.08146 0.42617 0.90862 0.0
N357 N 0.07655 0.47239 0.90362 0.0
N358 N 0.08518 0.47556 0.88679 0.0
C359 C 0.09758 0.43199 0.8807 0.0
C360 C 0.09486 0.39898 0.89419 0.0
C361 C 0.0697 0.40841 0.92653 0.0
H362 H 0.03141 0.41612 0.92938 0.0
H363 H 0.07575 0.36931 0.92794 0.0
H364 H 0.09179 0.42806 0.9362 0.0
O365 O 0.1156 0.57787 0.91385 0.0
O366 O 0.12308 0.58199 0.88499 0.0
H367 H 0.1373 0.45258 0.85788 0.0
H368 H 0.13632 0.38881 0.86199 0.0
C369 C 0.11482 0.42234 0.86255 0.0
H370 H 0.08355 0.4183 0.85379 0.0
H371 H 0.15449 0.56401 0.84896 0.0
O372 O 0.05002 0.516 0.94151 0.0
C373 C 0.13474 0.59601 0.9002 0.0
Co374 Co 0.95547 0.06686 0.41602 0.0
Co375 Co 0.96003 0.07649 0.37497 0.0
C376 C 0.91651 0.99099 0.39104 0.0
O377 O 0.92424 0.00834 0.40614 0.0
O378 O 0.9305 0.01282 0.37739 0.0
C379 C 0.97867 0.01319 0.44616 0.0
O380 O 0.98775 0.98101 0.43409 0.0
C381 C 0.97908 0.05896 0.33768 0.0
C382 C 0.9903 0.13278 0.3279 0.0
C383 C 0.99077 0.08504 0.32285 0.0
N384 N 0.97209 0.08994 0.35089 0.0
N385 N 0.97828 0.13401 0.34489 0.0
C386 C 0.97962 0.00552 0.33979 0.0
H387 H 0.99302 0.99577 0.35292 0.0
H388 H 0.00257 0.98823 0.32976 0.0
H389 H 0.9424 0.99171 0.33848 0.0
C390 C 0.05919 0.08938 0.41169 0.0
N391 N 0.01517 0.08065 0.40513 0.0
N392 N 0.01743 0.08216 0.38803 0.0
C393 C 0.0632 0.09046 0.38314 0.0
C394 C 0.09119 0.09606 0.39797 0.0
C395 C 0.06975 0.09307 0.43074 0.0
H396 H 0.03923 0.11044 0.43758 0.0
H397 H 0.07441 0.05643 0.43618 0.0
H398 H 0.10304 0.11403 0.4331 0.0
O399 O 0.90968 0.12034 0.41224 0.0
O400 O 0.91124 0.12326 0.38326 0.0
H401 H 0.07259 0.12308 0.35814 0.0
H402 H 0.11952 0.08119 0.36383 0.0
C403 C 0.0804 0.08839 0.36465 0.0
H404 H 0.06142 0.05938 0.35764 0.0
H405 H 0.9757 0.16487 0.35253 0.0
O406 O 0.96441 0.05468 0.44149 0.0
C407 C 0.8945 0.13746 0.39785 0.0
Co408 Co 0.41525 0.52884 0.10705 0.0
Co409 Co 0.40724 0.52357 0.1482 0.0
C410 C 0.49223 0.56722 0.13171 0.0
O411 O 0.4739 0.56002 0.11674 0.0
O412 O 0.47125 0.55273 0.14549 0.0
C413 C 0.46864 0.50575 0.07694 0.0
O414 O 0.50015 0.49528 0.08909 0.0
C415 C 0.42409 0.50779 0.18588 0.0
C416 C 0.35127 0.48854 0.19501 0.0
C417 C 0.39843 0.49318 0.20052 0.0
N418 N 0.39365 0.51048 0.1723 0.0
N419 N 0.3501 0.49945 0.17792 0.0
C420 C 0.47584 0.52211 0.18487 0.0
H421 H 0.47846 0.55757 0.17843 0.0
H422 H 0.49582 0.49566 0.17684 0.0
H423 H 0.49252 0.52515 0.19791 0.0
C424 C 0.39478 0.42483 0.11122 0.0
N425 N 0.40229 0.46898 0.11784 0.0
N426 N 0.40156 0.46643 0.13495 0.0
C427 C 0.39518 0.42032 0.13976 0.0
C428 C 0.3899 0.39243 0.12489 0.0
C429 C 0.39114 0.4143 0.09216 0.0
H430 H 0.37313 0.44448 0.08537 0.0
H431 H 0.42783 0.41029 0.08667 0.0
H432 H 0.3708 0.38064 0.08983 0.0
O433 O 0.36181 0.57435 0.1112 0.0
O434 O 0.36037 0.5727 0.14019 0.0
H435 H 0.36443 0.40677 0.16482 0.0
H436 H 0.41032 0.36441 0.15861 0.0
C437 C 0.39956 0.40272 0.15813 0.0
H438 H 0.42689 0.42406 0.16518 0.0
H439 H 0.3197 0.49839 0.16999 0.0
O440 O 0.42727 0.52065 0.08153 0.0
C441 C 0.34547 0.58954 0.12571 0.0
Co442 Co 0.95653 0.42263 0.61068 0.0
Co443 Co 0.94864 0.40906 0.65136 0.0
C444 C 0.91454 0.49857 0.63414 0.0
O445 O 0.92583 0.48259 0.61914 0.0
O446 O 0.92322 0.47441 0.64785 0.0
C447 C 0.93937 0.44564 0.57524 0.0
O448 O 0.89514 0.44886 0.58116 0.0
C449 C 0.9682 0.42823 0.68812 0.0
C450 C 0.94788 0.35979 0.7007 0.0
C451 C 0.96606 0.40517 0.70418 0.0
N452 N 0.95213 0.39787 0.67585 0.0
N453 N 0.93961 0.35716 0.68345 0.0
C454 C 0.98868 0.47669 0.68408 0.0
H455 H 0.00043 0.47845 0.67027 0.0
H456 H 0.01953 0.48477 0.69273 0.0
H457 H 0.96052 0.50433 0.68613 0.0
C458 C 0.05928 0.40345 0.61895 0.0
N459 N 0.01279 0.40774 0.62367 0.0
N460 N 0.00894 0.39995 0.64052 0.0
C461 C 0.0525 0.38881 0.64695 0.0
C462 C 0.08608 0.39122 0.63358 0.0
C463 C 0.07768 0.41533 0.60112 0.0
H464 H 0.0679 0.3859 0.59207 0.0
H465 H 0.06032 0.44872 0.59639 0.0
H466 H 0.11721 0.42029 0.60097 0.0
O467 O 0.90715 0.37047 0.6127 0.0
O468 O 0.90096 0.36502 0.64153 0.0
H469 H 0.03262 0.35056 0.67012 0.0
H470 H 0.09652 0.35534 0.66673 0.0
C471 C 0.06172 0.37447 0.66544 0.0
H472 H 0.06261 0.40699 0.67374 0.0
H473 H 0.92621 0.32734 0.67684 0.0
O474 O 0.97259 0.43328 0.58568 0.0
C475 C 0.88755 0.35282 0.62632 0.0
Co476 Co 0.07085 0.95107 0.1092 0.0
Co477 Co 0.08109 0.95564 0.15018 0.0
C478 C 0.99416 0.91434 0.13444 0.0
O479 O 0.01195 0.92067 0.11929 0.0
O480 O 0.01615 0.92868 0.14799 0.0
C481 C 0.01723 0.97829 0.07985 0.0
O482 O 0.98767 0.99099 0.09239 0.0
C483 C 0.06839 0.96481 0.18839 0.0
C484 C 0.13831 0.9956 0.19608 0.0
C485 C 0.09354 0.983 0.20259 0.0
N486 N 0.09654 0.96802 0.17415 0.0
N487 N 0.13858 0.98563 0.17893 0.0
C488 C 0.02008 0.94125 0.18842 0.0
H489 H 0.02144 0.90852 0.18024 0.0
H490 H 0.99318 0.9662 0.18278 0.0
H491 H 0.00884 0.93057 0.20174 0.0
C492 C 0.09294 0.05492 0.11331 0.0
N493 N 0.08556 0.01067 0.11993 0.0
N494 N 0.08675 0.01303 0.13703 0.0
C495 C 0.09279 0.05916 0.14185 0.0
C496 C 0.09782 0.08721 0.12699 0.0
C497 C 0.09641 0.06571 0.09426 0.0
H498 H 0.11328 0.03515 0.0873 0.0
H499 H 0.05976 0.07118 0.08896 0.0
H500 H 0.11778 0.09877 0.09192 0.0
O501 O 0.12366 0.90467 0.11269 0.0
O502 O 0.12639 0.90552 0.14166 0.0
H503 H 0.12306 0.0772 0.16656 0.0
H504 H 0.07273 0.11394 0.16043 0.0
C505 C 0.08737 0.07689 0.16017 0.0
H506 H 0.06275 0.05324 0.1676 0.0
H507 H 0.16701 0.99218 0.17037 0.0
O508 O 0.05763 0.9601 0.0839 0.0
C509 C 0.14033 0.88878 0.12703 0.0
Co510 Co 0.53137 0.0623 0.61069 0.0
Co511 Co 0.53803 0.07651 0.65143 0.0
C512 C 0.57278 0.98669 0.63392 0.0
O513 O 0.56182 0.00163 0.61876 0.0
O514 O 0.56406 0.01186 0.64736 0.0
C515 C 0.54819 0.03904 0.57519 0.0
O516 O 0.59191 0.03239 0.58117 0.0
C517 C 0.51295 0.05598 0.68795 0.0
C518 C 0.5431 0.11893 0.70159 0.0
C519 C 0.51822 0.07645 0.70434 0.0
N520 N 0.53319 0.08537 0.67609 0.0
N521 N 0.55123 0.12287 0.68435 0.0
C522 C 0.49164 0.00799 0.68369 0.0
H523 H 0.45191 0.01075 0.68346 0.0
H524 H 0.50169 0.98119 0.69376 0.0
H525 H 0.50353 0.99552 0.67071 0.0
C526 C 0.42828 0.08225 0.61889 0.0
N527 N 0.47466 0.07719 0.62364 0.0
N528 N 0.47843 0.08607 0.64041 0.0
C529 C 0.4352 0.09906 0.64669 0.0
C530 C 0.40169 0.09629 0.6334 0.0
C531 C 0.40974 0.07034 0.60113 0.0
H532 H 0.42753 0.03733 0.59624 0.0
H533 H 0.37027 0.06486 0.60118 0.0
H534 H 0.41876 0.10014 0.59209 0.0
O535 O 0.58095 0.11428 0.61316 0.0
O536 O 0.58561 0.12136 0.642 0.0
H537 H 0.39371 0.13965 0.66538 0.0
H538 H 0.42147 0.08612 0.67372 0.0
C539 C 0.42649 0.11699 0.66481 0.0
H540 H 0.45762 0.13845 0.6693 0.0
H541 H 0.56927 0.15108 0.67822 0.0
O542 O 0.51567 0.05345 0.5856 0.0
C543 C 0.59968 0.13285 0.62675 0.0
H544 H 0.58587 0.02296 0.22191 0.0
H545 H 0.44324 0.96524 0.21454 0.0
H546 H 0.57756 0.01204 0.25336 0.0
H547 H 0.435 0.95446 0.24595 0.0
H548 H 0.45657 0.89963 0.30204 0.0
H549 H 0.46826 0.90633 0.27054 0.0
H550 H 0.52926 0.04761 0.27738 0.0
H551 H 0.51772 0.04099 0.30877 0.0
C552 C 0.55282 0.0078 0.22697 0.0
C553 C 0.51517 0.99515 0.21567 0.0
C554 C 0.54797 0.00175 0.24501 0.0
C555 C 0.50558 0.98244 0.25219 0.0
C556 C 0.4683 0.969 0.24085 0.0
C557 C 0.47294 0.97549 0.22284 0.0
C558 C 0.47263 0.93204 0.29683 0.0
C559 C 0.48607 0.9698 0.30796 0.0
C560 C 0.47911 0.93597 0.27877 0.0
C561 C 0.4997 0.97752 0.27143 0.0
C562 C 0.51378 0.01492 0.2826 0.0
C563 C 0.50685 0.01121 0.30061 0.0
H564 H 0.4527 0.53382 0.8081 0.0
H565 H 0.58493 0.45615 0.7993 0.0
H566 H 0.44386 0.54557 0.77679 0.0
H567 H 0.57623 0.46831 0.76797 0.0
H568 H 0.5112 0.44935 0.71315 0.0
H569 H 0.52321 0.44067 0.7444 0.0
H570 H 0.48098 0.58842 0.75197 0.0
H571 H 0.46852 0.59709 0.72061 0.0
C572 C 0.47999 0.51937 0.7995 0.0
C573 C 0.51943 0.49384 0.80623 0.0
C574 C 0.47507 0.52642 0.78154 0.0
C575 C 0.5093 0.50787 0.76986 0.0
C576 C 0.54893 0.48262 0.7766 0.0
C577 C 0.55402 0.47582 0.79457 0.0
C578 C 0.50457 0.4801 0.72144 0.0
C579 C 0.48875 0.5239 0.71434 0.0
C580 C 0.51176 0.47517 0.73937 0.0
C581 C 0.50307 0.51383 0.7507 0.0
C582 C 0.48754 0.55778 0.74361 0.0
C583 C 0.48064 0.56282 0.72563 0.0
H584 H 0.04423 0.51837 0.21483 0.0
H585 H 0.90338 0.45715 0.22331 0.0
H586 H 0.0535 0.52953 0.24614 0.0
H587 H 0.91248 0.46889 0.25461 0.0
H588 H 0.97041 0.44601 0.31004 0.0
H589 H 0.96005 0.43659 0.27873 0.0
H590 H 0.0212 0.57734 0.27037 0.0
H591 H 0.03215 0.58661 0.30174 0.0
C592 C 0.01516 0.50742 0.22335 0.0
C593 C 0.97312 0.4867 0.21654 0.0
C594 C 0.02037 0.51411 0.24131 0.0
C595 C 0.98376 0.50008 0.25289 0.0
C596 C 0.94162 0.47956 0.24607 0.0
C597 C 0.93632 0.47304 0.22811 0.0
C598 C 0.98164 0.47502 0.30155 0.0
C599 C 0.00222 0.51704 0.30842 0.0
C600 C 0.97541 0.46971 0.28359 0.0
C601 C 0.98976 0.50621 0.27203 0.0
C602 C 0.01025 0.54831 0.2789 0.0
C603 C 0.0163 0.55372 0.29689 0.0
H604 H 0.96621 0.05436 0.71309 0.0
H605 H 0.01646 0.91174 0.72568 0.0
H606 H 0.95181 0.07007 0.7438 0.0
H607 H 0.00267 0.92787 0.75662 0.0
H608 H 0.92593 0.96048 0.809 0.0
H609 H 0.93854 0.94179 0.7782 0.0
H610 H 0.99781 0.08343 0.77007 0.0
H611 H 0.9846 0.10232 0.80062 0.0
C612 C 0.9743 0.0263 0.72241 0.0
C613 C 0.99272 0.98182 0.71687 0.0
C614 C 0.96627 0.03546 0.74007 0.0
C615 C 0.97637 0.00039 0.75274 0.0
C616 C 0.99414 0.95557 0.74721 0.0
C617 C 0.00232 0.94642 0.72948 0.0
C618 C 0.94156 0.98765 0.80062 0.0
C619 C 0.95403 0.03301 0.8073 0.0
C620 C 0.94907 0.97681 0.78298 0.0
C621 C 0.96902 0.01115 0.7716 0.0
C622 C 0.98166 0.05636 0.77836 0.0
C623 C 0.97431 0.06712 0.79594 0.0
H624 H 0.3498 0.01 0.79656 0.0
H625 H 0.49163 0.95754 0.80904 0.0
H626 H 0.37842 0.03504 0.76791 0.0
H627 H 0.52038 0.98283 0.78046 0.0
H628 H 0.56425 0.0837 0.73542 0.0
H629 H 0.5363 0.05671 0.76397 0.0
H630 H 0.4065 0.0018 0.74048 0.0
H631 H 0.43356 0.03048 0.71217 0.0
C632 C 0.38712 0.00384 0.79318 0.0
C633 C 0.4187 0.98288 0.80524 0.0
C634 C 0.40348 0.01801 0.77674 0.0
C635 C 0.45179 0.01121 0.77193 0.0
C636 C 0.48321 0.98952 0.7839 0.0
C637 C 0.46679 0.9753 0.80034 0.0
C638 C 0.52982 0.0657 0.73638 0.0
C639 C 0.50164 0.05824 0.72146 0.0
C640 C 0.51396 0.04994 0.7527 0.0
C641 C 0.46928 0.02683 0.7545 0.0
C642 C 0.44102 0.01961 0.73957 0.0
C643 C 0.45695 0.03527 0.72325 0.0
H644 H 0.51948 0.34852 0.29071 0.0
H645 H 0.45769 0.47809 0.31191 0.0
H646 H 0.49457 0.37286 0.2616 0.0
H647 H 0.4356 0.50413 0.28275 0.0
H648 H 0.35325 0.50925 0.23137 0.0
H649 H 0.37973 0.48633 0.26047 0.0
H650 H 0.51017 0.42719 0.23858 0.0
H651 H 0.482 0.44725 0.20949 0.0
C652 C 0.50142 0.38268 0.28909 0.0
C653 C 0.49189 0.41203 0.30354 0.0
C654 C 0.48744 0.39687 0.27238 0.0
C655 C 0.46341 0.44075 0.26973 0.0
C656 C 0.45382 0.47002 0.28425 0.0
C657 C 0.46746 0.4556 0.30097 0.0
C658 C 0.38766 0.49151 0.23283 0.0
C659 C 0.4162 0.48142 0.21819 0.0
C660 C 0.40309 0.47871 0.24952 0.0
C661 C 0.44741 0.4553 0.25197 0.0
C662 C 0.47578 0.44498 0.23725 0.0
C663 C 0.46011 0.45743 0.22055 0.0
H664 H 0.08852 0.56226 0.79162 0.0
H665 H 0.03107 0.43249 0.81435 0.0
H666 H 0.06071 0.53633 0.76296 0.0
H667 H 0.0015 0.40758 0.78599 0.0
H668 H 0.00678 0.35244 0.72996 0.0
H669 H 0.03352 0.37945 0.75852 0.0
H670 H 0.98654 0.52349 0.74639 0.0
H671 H 0.95962 0.49634 0.71784 0.0
C672 C 0.06945 0.52847 0.79052 0.0
C673 C 0.061 0.49999 0.80533 0.0
C674 C 0.05321 0.51379 0.77414 0.0
C675 C 0.02861 0.47001 0.77219 0.0
C676 C 0.02046 0.44143 0.78701 0.0
C677 C 0.03664 0.45616 0.80337 0.0
C678 C 0.00214 0.38988 0.73339 0.0
C679 C 0.98205 0.42244 0.72147 0.0
C680 C 0.01729 0.40533 0.74979 0.0
C681 C 0.01236 0.45369 0.75472 0.0
C682 C 0.99175 0.48619 0.74286 0.0
C683 C 0.97657 0.47068 0.72644 0.0
H684 H 0.00282 0.00821 0.21378 0.0
H685 H 0.14733 0.98288 0.23211 0.0
H686 H 0.97756 0.02793 0.24333 0.0
H687 H 0.1223 0.00508 0.26157 0.0
H688 H 0.06642 0.11485 0.30335 0.0
H689 H 0.09105 0.08604 0.27459 0.0
H690 H 0.97183 0.98682 0.27434 0.0
H691 H 0.94748 0.01536 0.30328 0.0
C692 C 0.02891 0.0053 0.22415 0.0
C693 C 0.07681 0.99229 0.22064 0.0
C694 C 0.01448 0.01724 0.24106 0.0
C695 C 0.04793 0.01777 0.25472 0.0
C696 C 0.09581 0.00498 0.25125 0.0
C697 C 0.11006 0.99224 0.23441 0.0
C698 C 0.04563 0.08677 0.29716 0.0
C699 C 0.00538 0.06696 0.30555 0.0
C700 C 0.05987 0.07011 0.28079 0.0
C701 C 0.03348 0.03404 0.27233 0.0
C702 C 0.99279 0.01462 0.28062 0.0
C703 C 0.97907 0.03069 0.29717 0.0
H704 H 0.65113 0.15549 0.17573 0.0
H705 H 0.7065 0.12598 0.12421 0.0
H706 H 0.6981 0.22959 0.17664 0.0
H707 H 0.75416 0.19897 0.12531 0.0
H708 H 0.78897 0.35599 0.12279 0.0
H709 H 0.7398 0.28379 0.12386 0.0
H710 H 0.77833 0.26295 0.17782 0.0
H711 H 0.82647 0.336 0.17692 0.0
C712 C 0.67401 0.1643 0.16475 0.0
C713 C 0.6748 0.13501 0.14985 0.0
C714 C 0.70088 0.20681 0.16526 0.0
C715 C 0.72924 0.22069 0.15092 0.0
C716 C 0.73167 0.19012 0.13639 0.0
C717 C 0.70468 0.14796 0.13583 0.0
C718 C 0.78654 0.33637 0.13495 0.0
C719 C 0.81195 0.35168 0.14973 0.0
C720 C 0.75868 0.29468 0.13552 0.0
C721 C 0.7558 0.26705 0.15084 0.0
C722 C 0.7796 0.28342 0.16583 0.0
C723 C 0.80728 0.32533 0.1653 0.0
H724 H 0.1573 0.84047 0.62188 0.0
H725 H 0.13024 0.80125 0.67545 0.0
H726 H 0.22904 0.79156 0.62174 0.0
H727 H 0.20134 0.74961 0.67508 0.0
H728 H 0.35755 0.69599 0.67317 0.0
H729 H 0.28664 0.74783 0.67452 0.0
H730 H 0.25414 0.71264 0.62097 0.0
H731 H 0.3256 0.66361 0.6194 0.0
C732 C 0.16618 0.82059 0.63357 0.0
C733 C 0.13774 0.82448 0.64864 0.0
C734 C 0.20743 0.79225 0.63348 0.0
C735 C 0.22104 0.76606 0.64835 0.0
C736 C 0.19242 0.76969 0.66344 0.0
C737 C 0.15137 0.79889 0.66362 0.0
C738 C 0.33541 0.6999 0.66167 0.0
C739 C 0.3476 0.67617 0.64613 0.0
C740 C 0.29448 0.72921 0.66247 0.0
C741 C 0.26457 0.7348 0.64782 0.0
C742 C 0.27676 0.71045 0.6324 0.0
C743 C 0.31787 0.68202 0.63151 0.0
H744 H 0.83639 0.16715 0.90323 0.0
H745 H 0.79688 0.13189 0.85038 0.0
H746 H 0.78837 0.23919 0.90185 0.0
H747 H 0.74596 0.20365 0.84926 0.0
H748 H 0.6923 0.35994 0.84843 0.0
H749 H 0.7445 0.2893 0.84831 0.0
H750 H 0.70881 0.26327 0.90235 0.0
H751 H 0.65923 0.33455 0.90267 0.0
C752 C 0.81667 0.17437 0.89136 0.0
C753 C 0.82 0.14339 0.87698 0.0
C754 C 0.78883 0.2158 0.8906 0.0
C755 C 0.76255 0.22714 0.87554 0.0
C756 C 0.76603 0.19632 0.86103 0.0
C757 C 0.79482 0.155 0.8617 0.0
C758 C 0.69619 0.33932 0.86031 0.0
C759 C 0.67206 0.35321 0.87561 0.0
C760 C 0.7257 0.29855 0.86021 0.0
C761 C 0.73118 0.27051 0.87534 0.0
C762 C 0.70662 0.28447 0.89055 0.0
C763 C 0.67792 0.32545 0.89073 0.0
H764 H 0.15584 0.65839 0.4054 0.0
H765 H 0.12762 0.69233 0.35147 0.0
H766 H 0.22678 0.70875 0.40471 0.0
H767 H 0.19761 0.74523 0.35099 0.0
H768 H 0.35341 0.79946 0.35119 0.0
H769 H 0.28252 0.74743 0.35097 0.0
H770 H 0.25211 0.78763 0.40427 0.0
H771 H 0.32361 0.83682 0.40472 0.0
C772 C 0.16424 0.67746 0.39347 0.0
C773 C 0.13589 0.67153 0.37852 0.0
C774 C 0.20501 0.7066 0.39307 0.0
C775 C 0.21809 0.73147 0.37781 0.0
C776 C 0.18922 0.72611 0.3629 0.0
C777 C 0.14877 0.69618 0.36322 0.0
C778 C 0.33168 0.79667 0.36286 0.0
C779 C 0.34452 0.82175 0.37802 0.0
C780 C 0.29077 0.76723 0.36272 0.0
C781 C 0.26149 0.76294 0.37765 0.0
C782 C 0.27424 0.78879 0.39266 0.0
C783 C 0.31534 0.81731 0.3929 0.0
H784 H 0.15756 0.65907 0.87467 0.0
H785 H 0.18541 0.62797 0.92888 0.0
H786 H 0.20845 0.72893 0.87627 0.0
H787 H 0.23917 0.69783 0.93028 0.0
H788 H 0.29611 0.85647 0.9283 0.0
H789 H 0.24382 0.78538 0.92946 0.0
H790 H 0.29033 0.74626 0.87762 0.0
H791 H 0.33971 0.81738 0.87618 0.0
C792 C 0.1753 0.66665 0.88692 0.0
C793 C 0.16793 0.63741 0.90159 0.0
C794 C 0.20478 0.70685 0.88781 0.0
C795 C 0.22877 0.71868 0.90331 0.0
C796 C 0.22111 0.68985 0.91815 0.0
C797 C 0.19069 0.64965 0.91732 0.0
C798 C 0.29471 0.83264 0.91717 0.0
C799 C 0.32112 0.8431 0.90201 0.0
C800 C 0.26514 0.79178 0.91787 0.0
C801 C 0.26215 0.76048 0.9035 0.0
C802 C 0.29032 0.77025 0.88871 0.0
C803 C 0.31886 0.81115 0.8879 0.0
H804 H 0.83453 0.15678 0.37087 0.0
H805 H 0.8598 0.19213 0.42486 0.0
H806 H 0.76223 0.20497 0.37107 0.0
H807 H 0.78831 0.24304 0.42483 0.0
H808 H 0.63163 0.29214 0.42404 0.0
H809 H 0.70362 0.24198 0.42445 0.0
H810 H 0.73388 0.28279 0.37117 0.0
H811 H 0.66106 0.33025 0.37052 0.0
C812 C 0.82518 0.17574 0.38272 0.0
C813 C 0.85311 0.1708 0.39783 0.0
C814 C 0.78361 0.20365 0.38282 0.0
C815 C 0.76924 0.22827 0.39795 0.0
C816 C 0.79771 0.22401 0.41302 0.0
C817 C 0.839 0.19525 0.413 0.0
C818 C 0.6535 0.28982 0.41238 0.0
C819 C 0.64036 0.31472 0.3972 0.0
C820 C 0.69507 0.2615 0.41265 0.0
C821 C 0.7248 0.25816 0.39783 0.0
C822 C 0.71151 0.2834 0.38272 0.0
C823 C 0.66966 0.31086 0.38235 0.0
H824 H 0.19496 0.85441 0.09999 0.0
H825 H 0.15735 0.82681 0.15368 0.0
H826 H 0.24392 0.78169 0.09961 0.0
H827 H 0.20366 0.75323 0.15308 0.0
H828 H 0.32763 0.64948 0.15289 0.0
H829 H 0.28073 0.72264 0.15292 0.0
H830 H 0.24061 0.69725 0.09931 0.0
H831 H 0.29017 0.62491 0.09905 0.0
C832 C 0.19717 0.83281 0.1117 0.0
C833 C 0.17266 0.84661 0.1269 0.0
C834 C 0.22479 0.7908 0.11144 0.0
C835 C 0.22782 0.76127 0.1263 0.0
C836 C 0.2032 0.77536 0.14148 0.0
C837 C 0.17642 0.81766 0.14183 0.0
C838 C 0.30845 0.65917 0.14113 0.0
C839 C 0.3125 0.63122 0.12598 0.0
C840 C 0.28131 0.70124 0.14116 0.0
C841 C 0.25662 0.71612 0.12613 0.0
C842 C 0.2598 0.68752 0.11104 0.0
C843 C 0.28777 0.64573 0.11093 0.0
H844 H 0.66471 0.15265 0.65185 0.0
H845 H 0.63059 0.185 0.59822 0.0
H846 H 0.73457 0.20369 0.65018 0.0
H847 H 0.70049 0.2388 0.59676 0.0
H848 H 0.85877 0.29738 0.59839 0.0
H849 H 0.78865 0.2438 0.59717 0.0
H850 H 0.74975 0.28648 0.64944 0.0
H851 H 0.81981 0.33729 0.65092 0.0
C852 C 0.6717 0.17134 0.63972 0.0
C853 C 0.64154 0.16537 0.62524 0.0
C854 C 0.71188 0.20086 0.63878 0.0
C855 C 0.72273 0.22621 0.62344 0.0
C856 C 0.69319 0.21969 0.60876 0.0
C857 C 0.653 0.18925 0.60963 0.0
C858 C 0.83522 0.29486 0.6096 0.0
C859 C 0.84541 0.32071 0.62487 0.0
C860 C 0.79492 0.26455 0.60886 0.0
C861 C 0.764 0.26017 0.62333 0.0
C862 C 0.77352 0.28763 0.63826 0.0
C863 C 0.81381 0.31699 0.63909 0.0
H864 H 0.53128 0.6049 0.16152 0.0
H865 H 0.54311 0.61011 0.10541 0.0
H866 H 0.57209 0.68177 0.16355 0.0
H867 H 0.58485 0.68669 0.10755 0.0
H868 H 0.54407 0.84616 0.11924 0.0
H869 H 0.53852 0.75968 0.11597 0.0
H870 H 0.63966 0.74052 0.15804 0.0
H871 H 0.64601 0.82832 0.16102 0.0
C872 C 0.54417 0.62138 0.14964 0.0
C873 C 0.53211 0.60224 0.13326 0.0
C874 C 0.56787 0.6655 0.15084 0.0
C875 C 0.58017 0.69089 0.13567 0.0
C876 C 0.57452 0.66837 0.11943 0.0
C877 C 0.55074 0.62436 0.11823 0.0
C878 C 0.56588 0.82354 0.12756 0.0
C879 C 0.59544 0.84371 0.14037 0.0
C880 C 0.563 0.77398 0.12561 0.0
C881 C 0.58926 0.74327 0.13657 0.0
C882 C 0.61924 0.76339 0.14936 0.0
C883 C 0.62256 0.81338 0.15116 0.0
H884 H 0.87322 0.5365 0.66348 0.0
H885 H 0.87843 0.55313 0.60751 0.0
H886 H 0.79725 0.57956 0.66425 0.0
H887 H 0.80273 0.59684 0.60842 0.0
H888 H 0.64102 0.5533 0.61715 0.0
H889 H 0.72786 0.54987 0.61494 0.0
H890 H 0.74046 0.6491 0.65791 0.0
H891 H 0.65228 0.65384 0.65969 0.0
C892 C 0.85929 0.55105 0.65142 0.0
C893 C 0.88096 0.53972 0.63535 0.0
C894 C 0.81574 0.57599 0.65189 0.0
C895 C 0.79342 0.59015 0.63633 0.0
C896 C 0.8187 0.58523 0.62057 0.0
C897 C 0.8622 0.56028 0.62008 0.0
C898 C 0.6622 0.57548 0.62582 0.0
C899 C 0.64002 0.60365 0.63864 0.0
C900 C 0.71203 0.57371 0.62451 0.0
C901 C 0.74103 0.59963 0.63615 0.0
C902 C 0.71893 0.62887 0.64876 0.0
C903 C 0.66869 0.63122 0.64988 0.0
H904 H 0.94843 0.64855 0.1658 0.0
H905 H 0.83205 0.64764 0.12872 0.0
H906 H 0.95144 0.73561 0.1644 0.0
H907 H 0.83656 0.73556 0.12667 0.0
H908 H 0.94766 0.88926 0.16462 0.0
H909 H 0.90525 0.8139 0.16945 0.0
H910 H 0.90612 0.78658 0.11414 0.0
H911 H 0.94888 0.86158 0.10923 0.0
C912 C 0.9226 0.66709 0.15769 0.0
C913 C 0.89021 0.64137 0.1473 0.0
C914 C 0.92426 0.71704 0.15689 0.0
C915 C 0.89406 0.74237 0.14547 0.0
C916 C 0.86019 0.71686 0.13558 0.0
C917 C 0.85791 0.66671 0.13665 0.0
C918 C 0.93755 0.86803 0.15341 0.0
C919 C 0.9535 0.88046 0.13661 0.0
C920 C 0.91315 0.82489 0.15621 0.0
C921 C 0.90369 0.79389 0.14222 0.0
C922 C 0.91322 0.80969 0.12518 0.0
C923 C 0.93792 0.85272 0.12239 0.0
H924 H 0.59599 0.93892 0.66381 0.0
H925 H 0.62612 0.9425 0.60858 0.0
H926 H 0.67128 0.89652 0.66877 0.0
H927 H 0.70145 0.90047 0.61362 0.0
H928 H 0.84288 0.83316 0.62799 0.0
H929 H 0.75489 0.83374 0.62553 0.0
H930 H 0.74782 0.9437 0.6651 0.0
H931 H 0.83484 0.94435 0.66701 0.0
C932 C 0.61769 0.92902 0.65264 0.0
C933 C 0.60594 0.94553 0.63587 0.0
C934 C 0.66086 0.90481 0.65551 0.0
C935 C 0.69281 0.89661 0.64165 0.0
C936 C 0.67764 0.90656 0.62458 0.0
C937 C 0.63438 0.93078 0.62169 0.0
C938 C 0.82222 0.85699 0.63626 0.0
C939 C 0.84554 0.8891 0.64756 0.0
C940 C 0.77205 0.85705 0.63494 0.0
C941 C 0.7445 0.88853 0.64518 0.0
C942 C 0.76792 0.91829 0.65728 0.0
C943 C 0.81787 0.91877 0.65837 0.0
H944 H 0.54499 0.65281 0.85679 0.0
H945 H 0.65722 0.64839 0.89547 0.0
H946 H 0.54305 0.73974 0.85866 0.0
H947 H 0.65432 0.73626 0.8978 0.0
H948 H 0.54469 0.86197 0.91566 0.0
H949 H 0.58804 0.78779 0.91006 0.0
H950 H 0.58588 0.8177 0.85489 0.0
H951 H 0.54194 0.89176 0.8604 0.0
C952 C 0.57028 0.6706 0.86533 0.0
C953 C 0.60094 0.64394 0.87609 0.0
C954 C 0.56929 0.72053 0.86639 0.0
C955 C 0.59862 0.74491 0.87838 0.0
C956 C 0.63123 0.71839 0.8885 0.0
C957 C 0.63266 0.66826 0.88724 0.0
C958 C 0.55516 0.85387 0.90238 0.0
C959 C 0.53831 0.88186 0.88842 0.0
C960 C 0.58021 0.81128 0.89918 0.0
C961 C 0.58898 0.7963 0.88199 0.0
C962 C 0.5785 0.82789 0.86825 0.0
C963 C 0.55341 0.87039 0.87143 0.0
H964 H 0.59752 0.54155 0.36024 0.0
H965 H 0.62546 0.53731 0.41557 0.0
H966 H 0.67312 0.58377 0.35562 0.0
H967 H 0.70068 0.58 0.41088 0.0
H968 H 0.83987 0.65455 0.39657 0.0
H969 H 0.75182 0.65046 0.39858 0.0
H970 H 0.75138 0.53661 0.36043 0.0
H971 H 0.8386 0.53915 0.35909 0.0
C972 C 0.61885 0.55097 0.37148 0.0
C973 C 0.60638 0.53424 0.38818 0.0
C974 C 0.66213 0.57528 0.36882 0.0
C975 C 0.69324 0.58391 0.38284 0.0
C976 C 0.67745 0.57359 0.39982 0.0
C977 C 0.63428 0.54895 0.40248 0.0
C978 C 0.82068 0.62899 0.38855 0.0
C979 C 0.84593 0.59668 0.37786 0.0
C980 C 0.77048 0.62695 0.3896 0.0
C981 C 0.74484 0.59343 0.3796 0.0
C982 C 0.77009 0.56345 0.36806 0.0
C983 C 0.8201 0.56483 0.36729 0.0
H984 H 0.83848 0.83617 0.86446 0.0
H985 H 0.93479 0.84738 0.90825 0.0
H986 H 0.84221 0.74807 0.86649 0.0
H987 H 0.93738 0.76065 0.91065 0.0
H988 H 0.9326 0.61045 0.91831 0.0
H989 H 0.88958 0.68646 0.91681 0.0
H990 H 0.91107 0.69052 0.86114 0.0
H991 H 0.95333 0.61425 0.8625 0.0
C992 C 0.85982 0.81976 0.87463 0.0
C993 C 0.88626 0.84839 0.88623 0.0
C994 C 0.86166 0.76958 0.87588 0.0
C995 C 0.88943 0.7475 0.8889 0.0
C996 C 0.91452 0.77647 0.90078 0.0
C997 C 0.91323 0.82624 0.89938 0.0
C998 C 0.92654 0.62649 0.90565 0.0
C999 C 0.94804 0.60724 0.89062 0.0
C1000 C 0.90198 0.67014 0.90481 0.0
C1001 C 0.89846 0.69507 0.88895 0.0
C1002 C 0.91357 0.67231 0.87358 0.0
C1003 C 0.93807 0.6286 0.8744 0.0
H1004 H 0.6518 0.84174 0.36246 0.0
H1005 H 0.63868 0.94518 0.40402 0.0
H1006 H 0.73998 0.84602 0.36481 0.0
H1007 H 0.7254 0.94812 0.40681 0.0
H1008 H 0.87463 0.93799 0.41699 0.0
H1009 H 0.79742 0.89733 0.41484 0.0
H1010 H 0.79989 0.91494 0.35901 0.0
H1011 H 0.87735 0.95508 0.36102 0.0
C1012 C 0.66779 0.86504 0.37213 0.0
C1013 C 0.63864 0.89323 0.38303 0.0
C1014 C 0.71799 0.86712 0.37359 0.0
C1015 C 0.73946 0.89669 0.38621 0.0
C1016 C 0.70997 0.92393 0.3973 0.0
C1017 C 0.66025 0.92245 0.39565 0.0
C1018 C 0.85974 0.93159 0.40418 0.0
C1019 C 0.88131 0.95139 0.38924 0.0
C1020 C 0.81542 0.90836 0.40297 0.0
C1021 C 0.79209 0.90443 0.38682 0.0
C1022 C 0.8169 0.9178 0.37164 0.0
C1023 C 0.86132 0.94102 0.37283 0.0
H1024 H 0.44321 0.36971 0.85468 0.0
H1025 H 0.45012 0.3808 0.91078 0.0
H1026 H 0.40297 0.29244 0.8575 0.0
H1027 H 0.41092 0.30319 0.9135 0.0
H1028 H 0.34029 0.15466 0.91231 0.0
H1029 H 0.34573 0.24229 0.90842 0.0
H1030 H 0.44932 0.22122 0.86712 0.0
H1031 H 0.44454 0.13498 0.87127 0.0
C1032 C 0.43472 0.35661 0.86761 0.0
C1033 C 0.4515 0.38066 0.88249 0.0
C1034 C 0.41188 0.31216 0.86922 0.0
C1035 C 0.4054 0.29108 0.88571 0.0
C1036 C 0.41581 0.31828 0.90061 0.0
C1037 C 0.43852 0.36282 0.89902 0.0
C1038 C 0.36417 0.16915 0.90246 0.0
C1039 C 0.39212 0.13835 0.89211 0.0
C1040 C 0.36696 0.21904 0.90013 0.0
C1041 C 0.39727 0.2386 0.88725 0.0
C1042 C 0.42455 0.20738 0.87681 0.0
C1043 C 0.42215 0.15796 0.87927 0.0
H1044 H 0.09775 0.44047 0.41244 0.0
H1045 H 0.12971 0.44685 0.35736 0.0
H1046 H 0.17261 0.39743 0.41743 0.0
H1047 H 0.20452 0.40379 0.36244 0.0
H1048 H 0.33842 0.43966 0.41619 0.0
H1049 H 0.25138 0.44279 0.41411 0.0
H1050 H 0.25431 0.33338 0.3743 0.0
H1051 H 0.34206 0.32887 0.37693 0.0
C1052 C 0.1198 0.4312 0.4013 0.0
C1053 C 0.10857 0.44852 0.38457 0.0
C1054 C 0.16271 0.40658 0.40419 0.0
C1055 C 0.19485 0.39849 0.3904 0.0
C1056 C 0.18046 0.40973 0.37334 0.0
C1057 C 0.13755 0.43455 0.37043 0.0
C1058 C 0.32046 0.41491 0.4075 0.0
C1059 C 0.34694 0.38419 0.39667 0.0
C1060 C 0.27052 0.41668 0.40628 0.0
C1061 C 0.24606 0.38824 0.39404 0.0
C1062 C 0.27232 0.3557 0.38381 0.0
C1063 C 0.32237 0.35336 0.38525 0.0
H1064 H 0.05018 0.11046 0.85844 0.0
H1065 H 0.03645 0.10867 0.91454 0.0
H1066 H 0.0927 0.18669 0.86017 0.0
H1067 H 0.07782 0.1853 0.91614 0.0
H1068 H 0.14562 0.33329 0.91365 0.0
H1069 H 0.14322 0.24528 0.91087 0.0
H1070 H 0.04585 0.25941 0.86738 0.0
H1071 H 0.04743 0.34597 0.87047 0.0
C1072 C 0.05774 0.12528 0.87119 0.0
C1073 C 0.03818 0.10444 0.8863 0.0
C1074 C 0.08192 0.16914 0.87216 0.0
C1075 C 0.0869 0.19277 0.88823 0.0
C1076 C 0.07409 0.16827 0.90354 0.0
C1077 C 0.05009 0.12429 0.90259 0.0
C1078 C 0.12386 0.31721 0.90353 0.0
C1079 C 0.09639 0.34616 0.89235 0.0
C1080 C 0.12285 0.26709 0.90182 0.0
C1081 C 0.09491 0.24542 0.88875 0.0
C1082 C 0.06881 0.27483 0.87729 0.0
C1083 C 0.06939 0.3245 0.87912 0.0
H1084 H 0.39424 0.05022 0.41283 0.0
H1085 H 0.35925 0.0447 0.35804 0.0
H1086 H 0.31978 0.09341 0.41852 0.0
H1087 H 0.28491 0.08795 0.36382 0.0
H1088 H 0.14673 0.15859 0.37923 0.0
H1089 H 0.23453 0.15717 0.37633 0.0
H1090 H 0.24162 0.04661 0.41573 0.0
H1091 H 0.15451 0.04672 0.41807 0.0
C1092 C 0.37166 0.05987 0.40189 0.0
C1093 C 0.38178 0.04255 0.38506 0.0
C1094 C 0.32899 0.08456 0.40519 0.0
C1095 C 0.29605 0.09273 0.3917 0.0
C1096 C 0.30958 0.08191 0.37449 0.0
C1097 C 0.35226 0.05702 0.37118 0.0
C1098 C 0.16733 0.13455 0.38742 0.0
C1099 C 0.14395 0.10225 0.3987 0.0
C1100 C 0.21742 0.13398 0.38583 0.0
C1101 C 0.24485 0.10187 0.39581 0.0
C1102 C 0.22152 0.07236 0.40807 0.0
C1103 C 0.17155 0.07235 0.40942 0.0
H1104 H 0.45039 0.09218 0.10905 0.0
H1105 H 0.44652 0.12286 0.1642 0.0
H1106 H 0.40605 0.16581 0.10326 0.0
H1107 H 0.40266 0.19665 0.15835 0.0
H1108 H 0.3306 0.33376 0.14369 0.0
H1109 H 0.33553 0.24609 0.14609 0.0
H1110 H 0.44619 0.24503 0.10653 0.0
H1111 H 0.44203 0.33196 0.10453 0.0
C1112 C 0.43864 0.11371 0.12 0.0
C1113 C 0.45332 0.10249 0.13704 0.0
C1114 C 0.41334 0.15597 0.11665 0.0
C1115 C 0.4022 0.18763 0.13029 0.0
C1116 C 0.41093 0.17306 0.14754 0.0
C1117 C 0.43621 0.13069 0.1509 0.0
C1118 C 0.35536 0.31446 0.13534 0.0
C1119 C 0.38631 0.3395 0.12405 0.0
C1120 C 0.35801 0.26443 0.13667 0.0
C1121 C 0.3912 0.23868 0.12651 0.0
C1122 C 0.41961 0.26366 0.11433 0.0
C1123 C 0.41732 0.31357 0.11317 0.0
H1124 H 0.37368 0.45634 0.61149 0.0
H1125 H 0.3757 0.44331 0.66761 0.0
H1126 H 0.29773 0.41357 0.6106 0.0
H1127 H 0.30013 0.3993 0.66659 0.0
H1128 H 0.15235 0.3427 0.61375 0.0
H1129 H 0.24035 0.34719 0.61613 0.0
H1130 H 0.22528 0.44255 0.66019 0.0
H1131 H 0.13864 0.43868 0.65757 0.0
C1132 C 0.35899 0.44267 0.6236 0.0
C1133 C 0.37976 0.45498 0.63969 0.0
C1134 C 0.31542 0.41782 0.62306 0.0
C1135 C 0.29219 0.40456 0.63858 0.0
C1136 C 0.31665 0.41038 0.65445 0.0
C1137 C 0.36011 0.43543 0.65501 0.0
C1138 C 0.16821 0.3642 0.62399 0.0
C1139 C 0.13892 0.39036 0.63548 0.0
C1140 C 0.21836 0.36652 0.62543 0.0
C1141 C 0.23979 0.3947 0.63849 0.0
C1142 C 0.2101 0.41942 0.65029 0.0
C1143 C 0.16034 0.41745 0.64874 0.0
H1144 H 0.03867 0.35747 0.16588 0.0
H1145 H 0.03977 0.38859 0.11074 0.0
H1146 H 0.0816 0.28293 0.16039 0.0
H1147 H 0.08285 0.314 0.1053 0.0
H1148 H 0.04601 0.14771 0.10647 0.0
H1149 H 0.04145 0.23463 0.10847 0.0
H1150 H 0.15018 0.23371 0.14855 0.0
H1151 H 0.15573 0.14613 0.14612 0.0
C1152 C 0.04972 0.34948 0.15266 0.0
C1153 C 0.0343 0.37818 0.13867 0.0
C1154 C 0.07448 0.30668 0.14952 0.0
C1155 C 0.08434 0.29207 0.13236 0.0
C1156 C 0.07467 0.32392 0.11863 0.0
C1157 C 0.05002 0.36669 0.12176 0.0
C1158 C 0.07027 0.1661 0.11522 0.0
C1159 C 0.10098 0.14021 0.12621 0.0
C1160 C 0.0677 0.21601 0.11639 0.0
C1161 C 0.09546 0.24101 0.1287 0.0
C1162 C 0.12822 0.21533 0.13902 0.0
C1163 C 0.1312 0.16533 0.13768 0.0
H1164 H 0.34849 0.05235 0.65809 0.0
H1165 H 0.33624 0.14494 0.61323 0.0
H1166 H 0.26204 0.05189 0.66141 0.0
H1167 H 0.24828 0.14431 0.61641 0.0
H1168 H 0.10956 0.04296 0.61399 0.0
H1169 H 0.18695 0.08259 0.61215 0.0
H1170 H 0.18971 0.09673 0.66815 0.0
H1171 H 0.1128 0.05533 0.67011 0.0
C1172 C 0.32716 0.07358 0.64916 0.0
C1173 C 0.34893 0.09873 0.63543 0.0
C1174 C 0.27748 0.07364 0.65112 0.0
C1175 C 0.2481 0.09864 0.63932 0.0
C1176 C 0.26995 0.12477 0.62573 0.0
C1177 C 0.32008 0.1249 0.62383 0.0
C1178 C 0.12573 0.05595 0.62592 0.0
C1179 C 0.10598 0.04409 0.64227 0.0
C1180 C 0.1702 0.07901 0.62482 0.0
C1181 C 0.1953 0.09111 0.64005 0.0
C1182 C 0.17186 0.08628 0.65621 0.0
C1183 C 0.12759 0.0628 0.65733 0.0
H1184 H 0.56421 0.01232 0.95814 0.0
H1185 H 0.42338 0.96496 0.97462 0.0
H1186 H 0.58838 0.02062 0.98837 0.0
H1187 H 0.44807 0.97243 1.00506 0.0
H1188 H 0.49853 0.0412 0.05716 0.0
H1189 H 0.47017 0.03155 0.02733 0.0
H1190 H 0.60705 0.97 0.01289 0.0
H1191 H 0.63529 0.97969 0.04267 0.0
C1192 C 0.53834 0.00358 0.96822 0.0
C1193 C 0.49189 0.98775 0.96392 0.0
C1194 C 0.55237 0.00803 0.98559 0.0
C1195 C 0.52038 0.99668 0.99918 0.0
C1196 C 0.47353 0.98172 0.99492 0.0
C1197 C 0.45944 0.97727 0.97748 0.0
C1198 C 0.52215 0.0245 0.04775 0.0
C1199 C 0.56896 0.01047 0.05239 0.0
C1200 C 0.50596 0.01924 0.03058 0.0
C1201 C 0.53635 0.00017 0.01766 0.0
C1202 C 0.58291 0.98557 0.02241 0.0
C1203 C 0.59905 0.99089 0.03952 0.0
H1204 H 0.41731 0.57636 0.53883 0.0
H1205 H 0.54973 0.52169 0.56029 0.0
H1206 H 0.43825 0.54225 0.51056 0.0
H1207 H 0.56991 0.48608 0.53223 0.0
H1208 H 0.61451 0.48532 0.47406 0.0
H1209 H 0.59364 0.5133 0.50318 0.0
H1210 H 0.4476 0.46504 0.49569 0.0
H1211 H 0.46824 0.43763 0.46645 0.0
C1212 C 0.45064 0.55655 0.53756 0.0
C1213 C 0.48136 0.55092 0.55192 0.0
C1214 C 0.46246 0.53666 0.5214 0.0
C1215 C 0.50559 0.51107 0.51915 0.0
C1216 C 0.53643 0.50561 0.53351 0.0
C1217 C 0.52447 0.52536 0.54971 0.0
C1218 C 0.57802 0.48035 0.47865 0.0
C1219 C 0.54302 0.45944 0.46787 0.0
C1220 C 0.56612 0.49618 0.4954 0.0
C1221 C 0.51889 0.4916 0.50175 0.0
C1222 C 0.48414 0.46972 0.4911 0.0
C1223 C 0.49607 0.45374 0.47437 0.0
H1224 H 0.96629 0.53675 0.05804 0.0
H1225 H 0.87906 0.41436 0.04451 0.0
H1226 H 0.9947 0.54222 0.02794 0.0
H1227 H 0.90731 0.41951 0.01444 0.0
H1228 H 0.91996 0.48064 0.95949 0.0
H1229 H 0.89708 0.47176 0.98984 0.0
H1230 H 0.04294 0.50245 1.00547 0.0
H1231 H 0.06582 0.51237 0.97489 0.0
C1232 C 0.9542 0.51027 0.04871 0.0
C1233 C 0.92132 0.47447 0.05366 0.0
C1234 C 0.97026 0.5135 0.03145 0.0
C1235 C 0.95339 0.48125 0.01874 0.0
C1236 C 0.92064 0.44531 0.02381 0.0
C1237 C 0.90458 0.44219 0.04103 0.0
C1238 C 0.94733 0.48535 0.96935 0.0
C1239 C 0.99477 0.49727 0.96471 0.0
C1240 C 0.93421 0.47994 0.9868 0.0
C1241 C 0.96816 0.4862 1.00015 0.0
C1242 C 0.01577 0.49784 0.99554 0.0
C1243 C 0.02895 0.50325 0.978 0.0
H1244 H 0.00016 0.92554 0.45988 0.0
H1245 H 0.97079 0.07225 0.47471 0.0
H1246 H 0.00932 0.90369 0.4903 0.0
H1247 H 0.98132 0.05056 0.50534 0.0
H1248 H 0.95246 0.97944 0.55899 0.0
H1249 H 0.94432 0.00556 0.52881 0.0
H1250 H 0.06255 0.91332 0.51419 0.0
H1251 H 0.07018 0.88699 0.5443 0.0
C1252 C 0.996 0.9533 0.46963 0.0
C1253 C 0.98478 0.00069 0.46482 0.0
C1254 C 0.00158 0.9408 0.48713 0.0
C1255 C 0.99641 0.97538 0.50035 0.0
C1256 C 0.98509 0.02287 0.49554 0.0
C1257 C 0.97931 0.03538 0.47798 0.0
C1258 C 0.97735 0.96554 0.54942 0.0
C1259 C 0.01243 0.93163 0.5541 0.0
C1260 C 0.97257 0.98038 0.53206 0.0
C1261 C 0.00269 0.96153 0.51899 0.0
C1262 C 0.03813 0.92804 0.5238 0.0
C1263 C 0.04268 0.91306 0.54109 0.0
H1264 H 0.49217 0.44289 0.96562 0.0
H1265 H 0.61903 0.52505 0.97829 0.0
H1266 H 0.4638 0.45123 0.99556 0.0
H1267 H 0.59106 0.53262 1.00825 0.0
H1268 H 0.55666 0.48372 0.06357 0.0
H1269 H 0.5803 0.47799 0.03315 0.0
H1270 H 0.43533 0.51207 0.01745 0.0
H1271 H 0.41132 0.51753 0.0481 0.0
C1272 C 0.51346 0.46376 0.97462 0.0
C1273 C 0.55749 0.48414 0.96942 0.0
C1274 C 0.49732 0.46821 0.99185 0.0
C1275 C 0.5252 0.49251 1.0043 0.0
C1276 C 0.56899 0.51316 0.99904 0.0
C1277 C 0.58494 0.50894 0.98184 0.0
C1278 C 0.52967 0.48994 0.05368 0.0
C1279 C 0.48209 0.50126 0.0583 0.0
C1280 C 0.54335 0.48695 0.03621 0.0
C1281 C 0.50981 0.49497 0.02286 0.0
C1282 C 0.46196 0.5055 0.02743 0.0
C1283 C 0.44828 0.50883 0.04498 0.0
H1284 H 0.93976 0.50427 0.46342 0.0
H1285 H 0.05832 0.58621 0.48406 0.0
H1286 H 0.92479 0.47023 0.49215 0.0
H1287 H 0.04227 0.55352 0.51303 0.0
H1288 H 0.02782 0.45196 0.55956 0.0
H1289 H 0.04588 0.4786 0.52993 0.0
H1290 H 0.89426 0.49776 0.52018 0.0
H1291 H 0.87616 0.47062 0.54962 0.0
C1292 C 0.96326 0.51432 0.47399 0.0
C1293 C 0.00099 0.54708 0.47135 0.0
C1294 C 0.95415 0.49542 0.49056 0.0
C1295 C 0.98245 0.50897 0.50491 0.0
C1296 C 0.02025 0.54171 0.50223 0.0
C1297 C 0.0292 0.56075 0.48567 0.0
C1298 C -0.00168 0.46152 0.55105 0.0
C1299 C 0.95053 0.45923 0.55699 0.0
C1300 C 0.0087 0.47707 0.5341 0.0
C1301 C 0.97153 0.49044 0.52269 0.0
C1302 C 0.92373 0.48722 0.52855 0.0
C1303 C 0.91337 0.47189 0.54549 0.0
H1304 H 0.06891 0.95617 0.05039 0.0
H1305 H 0.93337 0.01553 0.06753 0.0
H1306 H 0.04357 0.96526 0.02006 0.0
H1307 H 0.90858 0.02527 0.03741 0.0
H1308 H 0.85677 0.98804 0.98331 0.0
H1309 H 0.88514 0.97561 0.01295 0.0
H1310 H 0.02568 0.02748 0.99809 0.0
H1311 H 0.99716 0.0401 0.96841 0.0
C1312 C 0.03384 0.97132 0.0477 0.0
C1313 C 0.00308 0.98488 0.06139 0.0
C1314 C 0.01942 0.97672 0.03033 0.0
C1315 C 0.97388 0.99564 0.02631 0.0
C1316 C 0.94351 0.00972 0.04003 0.0
C1317 C 0.9579 0.00442 0.05733 0.0
C1318 C 0.89382 0.99654 0.98633 0.0
C1319 C 0.92487 0.0143 0.9734 0.0
C1320 C 0.91004 0.98961 1.00335 0.0
C1321 C 0.95768 0.00067 1.00793 0.0
C1322 C 0.98899 0.01789 0.99494 0.0
C1323 C 0.9727 0.02484 0.97787 0.0
H1324 H 0.41678 0.91163 0.48427 0.0
H1325 H 0.54646 0.97525 0.46364 0.0
H1326 H 0.43557 0.94389 0.51296 0.0
H1327 H 0.56424 0.00923 0.49211 0.0
H1328 H 0.60934 0.00654 0.54993 0.0
H1329 H 0.58957 0.98099 0.52049 0.0
H1330 H 0.44087 0.0184 0.52938 0.0
H1331 H 0.4605 0.04319 0.55902 0.0
C1332 C 0.449 0.93305 0.4858 0.0
C1333 C 0.4796 0.9416 0.47154 0.0
C1334 C 0.45955 0.95192 0.50222 0.0
C1335 C 0.50126 0.97948 0.50485 0.0
C1336 C 0.53187 0.98807 0.49057 0.0
C1337 C 0.52123 0.96924 0.47412 0.0
C1338 C 0.57245 0.00964 0.54559 0.0
C1339 C 0.53648 0.02673 0.55688 0.0
C1340 C 0.56116 0.99523 0.52865 0.0
C1341 C 0.51359 0.99751 0.52255 0.0
C1342 C 0.47776 0.01556 0.53373 0.0
C1343 C 0.48907 0.03005 0.55069 0.0
loop_
_geom_bond_atom_site_label_1
_geom_bond_atom_site_label_2
_geom_bond_distance
_geom_bond_site_symmetry_2
_ccdc_geom_bond_type
Co0 O3 1.970 . S
Co0 N17 1.989 . S
Co0 O25 1.967 . S
Co0 O32 1.920 . S
Co1 O4 1.966 . S
Co1 N10 2.022 . S
Co1 N18 1.993 . S
Co1 O26 1.941 . S
C2 O3 1.258 . S
C2 O4 1.263 . S
O3 Co0 1.970 . S
O3 C2 1.258 . S
O4 Co1 1.966 . S
O4 C2 1.263 . S
C5 O6 1.235 . S
C5 O32 1.289 . S
O6 C5 1.235 . S
C7 C9 1.400 . S
C7 N10 1.351 . S
C7 C12 1.501 . S
C8 C9 1.387 . S
C8 N11 1.341 . S
C9 C7 1.400 . S
C9 C8 1.387 . S
N10 Co1 2.022 . S
N10 C7 1.351 . S
N10 N11 1.365 . S
N11 C8 1.341 . S
N11 N10 1.365 . S
N11 H31 0.862 . S
C12 C7 1.501 . S
C12 H13 0.961 . S
C12 H14 0.961 . S
C12 H15 0.960 . S
H13 C12 0.961 . S
H14 C12 0.961 . S
H15 C12 0.960 . S
C16 N17 1.342 1_565 S
C16 C20 1.401 . S
C16 C21 1.499 . S
N17 Co0 1.989 . S
N17 C16 1.342 1_545 S
N17 N18 1.388 . S
N18 Co1 1.993 . S
N18 N17 1.388 . S
N18 C19 1.346 1_545 S
C19 N18 1.346 1_565 S
C19 C20 1.396 . S
C19 C29 1.510 . S
C20 C16 1.401 . S
C20 C19 1.396 . S
C21 C16 1.499 . S
C21 H22 0.959 . S
C21 H23 0.960 . S
C21 H24 0.961 . S
H22 C21 0.959 . S
H23 C21 0.960 . S
H24 C21 0.961 . S
O25 Co0 1.967 . S
O25 C33 1.258 . S
O26 Co1 1.941 . S
O26 C33 1.266 . S
H27 C29 0.959 . S
H28 C29 0.961 . S
C29 C19 1.510 . S
C29 H27 0.959 . S
C29 H28 0.961 . S
C29 H30 0.960 . S
H30 C29 0.960 . S
H31 N11 0.862 . S
O32 Co0 1.920 . S
O32 C5 1.289 . S
C33 O25 1.258 . S
C33 O26 1.266 . S
Co34 O37 1.970 . S
Co34 N51 1.989 . S
Co34 O59 1.967 . S
Co34 O66 1.920 . S
Co35 O38 1.966 . S
Co35 N44 2.022 . S
Co35 N52 1.993 . S
Co35 O60 1.941 . S
C36 O37 1.258 . S
C36 O38 1.263 . S
O37 Co34 1.970 . S
O37 C36 1.258 . S
O38 Co35 1.966 . S
O38 C36 1.263 . S
C39 O40 1.235 . S
C39 O66 1.289 . S
O40 C39 1.235 . S
C41 C43 1.400 . S
C41 N44 1.351 . S
C41 C46 1.501 . S
C42 C43 1.387 . S
C42 N45 1.341 . S
C43 C41 1.400 . S
C43 C42 1.387 . S
N44 Co35 2.022 . S
N44 C41 1.351 . S
N44 N45 1.365 . S
N45 C42 1.341 . S
N45 N44 1.365 . S
N45 H65 0.862 . S
C46 C41 1.501 . S
C46 H47 0.961 . S
C46 H48 0.961 . S
C46 H49 0.960 . S
H47 C46 0.961 . S
H48 C46 0.961 . S
H49 C46 0.960 . S
C50 N51 1.342 . S
C50 C54 1.401 . S
C50 C55 1.499 . S
N51 Co34 1.989 . S
N51 C50 1.342 . S
N51 N52 1.388 . S
N52 Co35 1.993 . S
N52 N51 1.388 . S
N52 C53 1.346 . S
C53 N52 1.346 . S
C53 C54 1.396 . S
C53 C63 1.510 . S
C54 C50 1.401 . S
C54 C53 1.396 . S
C55 C50 1.499 . S
C55 H56 0.959 . S
C55 H57 0.960 . S
C55 H58 0.961 . S
H56 C55 0.959 . S
H57 C55 0.960 . S
H58 C55 0.961 . S
O59 Co34 1.967 . S
O59 C67 1.258 . S
O60 Co35 1.941 . S
O60 C67 1.266 . S
H61 C63 0.959 . S
H62 C63 0.961 . S
C63 C53 1.510 . S
C63 H61 0.959 . S
C63 H62 0.961 . S
C63 H64 0.960 . S
H64 C63 0.960 . S
H65 N45 0.862 . S
O66 Co34 1.920 . S
O66 C39 1.289 . S
C67 O59 1.258 . S
C67 O60 1.266 . S
Co68 O71 1.970 1_655 S
Co68 N85 1.989 . S
Co68 O93 1.967 . S
Co68 O100 1.920 . S
Co69 O72 1.966 . S
Co69 N78 2.022 . S
Co69 N86 1.993 . S
Co69 O94 1.941 . S
C70 O71 1.258 . S
C70 O72 1.263 1_455 S
O71 Co68 1.970 1_455 S
O71 C70 1.258 . S
O72 Co69 1.966 . S
O72 C70 1.263 1_655 S
C73 O74 1.235 1_655 S
C73 O100 1.289 . S
O74 C73 1.235 1_455 S
C75 C77 1.400 . S
C75 N78 1.351 . S
C75 C80 1.501 1_655 S
C76 C77 1.387 . S
C76 N79 1.341 . S
C77 C75 1.400 . S
C77 C76 1.387 . S
N78 Co69 2.022 . S
N78 C75 1.351 . S
N78 N79 1.365 . S
N79 C76 1.341 . S
N79 N78 1.365 . S
N79 H99 0.862 . S
C80 C75 1.501 1_455 S
C80 H81 0.961 . S
C80 H82 0.961 . S
C80 H83 0.960 . S
H81 C80 0.961 . S
H82 C80 0.961 . S
H83 C80 0.960 . S
C84 N85 1.342 . S
C84 C88 1.401 . S
C84 C89 1.499 . S
N85 Co68 1.989 . S
N85 C84 1.342 . S
N85 N86 1.388 . S
N86 Co69 1.993 . S
N86 N85 1.388 . S
N86 C87 1.346 . S
C87 N86 1.346 . S
C87 C88 1.396 . S
C87 C97 1.510 . S
C88 C84 1.401 . S
C88 C87 1.396 . S
C89 C84 1.499 . S
C89 H90 0.959 . S
C89 H91 0.960 1_655 S
C89 H92 0.961 . S
H90 C89 0.959 . S
H91 C89 0.960 1_455 S
H92 C89 0.961 . S
O93 Co68 1.967 . S
O93 C101 1.258 . S
O94 Co69 1.941 . S
O94 C101 1.266 . S
H95 C97 0.959 . S
H96 C97 0.961 1_455 S
C97 C87 1.510 . S
C97 H95 0.959 . S
C97 H96 0.961 1_655 S
C97 H98 0.960 . S
H98 C97 0.960 . S
H99 N79 0.862 . S
O100 Co68 1.920 . S
O100 C73 1.289 . S
C101 O93 1.258 . S
C101 O94 1.266 . S
Co102 O105 1.970 1_565 S
Co102 N119 1.989 . S
Co102 O127 1.967 . S
Co102 O134 1.920 . S
Co103 O106 1.966 . S
Co103 N112 2.022 . S
Co103 N120 1.993 . S
Co103 O128 1.941 . S
C104 O105 1.258 . S
C104 O106 1.263 1_545 S
O105 Co102 1.970 1_545 S
O105 C104 1.258 . S
O106 Co103 1.966 . S
O106 C104 1.263 1_565 S
C107 O108 1.235 1_565 S
C107 O134 1.289 . S
O108 C107 1.235 1_545 S
C109 C111 1.400 . S
C109 N112 1.351 . S
C109 C114 1.501 1_565 S
C110 C111 1.387 . S
C110 N113 1.341 . S
C111 C109 1.400 . S
C111 C110 1.387 . S
N112 Co103 2.022 . S
N112 C109 1.351 . S
N112 N113 1.365 . S
N113 C110 1.341 . S
N113 N112 1.365 . S
N113 H133 0.862 . S
C114 C109 1.501 1_545 S
C114 H115 0.961 . S
C114 H116 0.961 . S
C114 H117 0.960 . S
H115 C114 0.961 . S
H116 C114 0.961 . S
H117 C114 0.960 . S
C118 N119 1.342 1_655 S
C118 C122 1.401 . S
C118 C123 1.499 . S
N119 Co102 1.989 . S
N119 C118 1.342 1_455 S
N119 N120 1.388 . S
N120 Co103 1.993 . S
N120 N119 1.388 . S
N120 C121 1.346 1_455 S
C121 N120 1.346 1_655 S
C121 C122 1.396 . S
C121 C131 1.510 . S
C122 C118 1.401 . S
C122 C121 1.396 . S
C123 C118 1.499 . S
C123 H124 0.959 . S
C123 H125 0.960 1_565 S
C123 H126 0.961 . S
H124 C123 0.959 . S
H125 C123 0.960 1_545 S
H126 C123 0.961 . S
O127 Co102 1.967 . S
O127 C135 1.258 . S
O128 Co103 1.941 . S
O128 C135 1.266 . S
H129 C131 0.959 . S
H130 C131 0.961 1_545 S
C131 C121 1.510 . S
C131 H129 0.959 . S
C131 H130 0.961 1_565 S
C131 H132 0.960 . S
H132 C131 0.960 . S
H133 N113 0.862 . S
O134 Co102 1.920 . S
O134 C107 1.289 . S
C135 O127 1.258 . S
C135 O128 1.266 . S
Co136 O139 1.970 . S
Co136 N153 1.989 . S
Co136 O161 1.967 . S
Co136 O168 1.920 . S
Co137 O140 1.966 . S
Co137 N146 2.022 . S
Co137 N154 1.993 . S
Co137 O162 1.941 . S
C138 O139 1.258 . S
C138 O140 1.263 . S
O139 Co136 1.970 . S
O139 C138 1.258 . S
O140 Co137 1.966 . S
O140 C138 1.263 . S
C141 O142 1.235 . S
C141 O168 1.289 . S
O142 C141 1.235 . S
C143 C145 1.400 . S
C143 N146 1.351 . S
C143 C148 1.501 . S
C144 C145 1.387 . S
C144 N147 1.341 . S
C145 C143 1.400 . S
C145 C144 1.387 . S
N146 Co137 2.022 . S
N146 C143 1.351 . S
N146 N147 1.365 . S
N147 C144 1.341 . S
N147 N146 1.365 . S
N147 H167 0.862 . S
C148 C143 1.501 . S
C148 H149 0.961 . S
C148 H150 0.961 . S
C148 H151 0.960 . S
H149 C148 0.961 . S
H150 C148 0.961 . S
H151 C148 0.960 . S
C152 N153 1.342 . S
C152 C156 1.401 . S
C152 C157 1.499 . S
N153 Co136 1.989 . S
N153 C152 1.342 . S
N153 N154 1.388 . S
N154 Co137 1.993 . S
N154 N153 1.388 . S
N154 C155 1.346 . S
C155 N154 1.346 . S
C155 C156 1.396 . S
C155 C165 1.510 . S
C156 C152 1.401 . S
C156 C155 1.396 . S
C157 C152 1.499 . S
C157 H158 0.959 . S
C157 H159 0.960 . S
C157 H160 0.961 . S
H158 C157 0.959 . S
H159 C157 0.960 . S
H160 C157 0.961 . S
O161 Co136 1.967 . S
O161 C169 1.258 . S
O162 Co137 1.941 . S
O162 C169 1.266 . S
H163 C165 0.959 . S
H164 C165 0.961 . S
C165 C155 1.510 . S
C165 H163 0.959 . S
C165 H164 0.961 . S
C165 H166 0.960 . S
H166 C165 0.960 . S
H167 N147 0.862 . S
O168 Co136 1.920 . S
O168 C141 1.289 . S
C169 O161 1.258 . S
C169 O162 1.266 . S
Co170 O173 1.970 . S
Co170 N187 1.989 . S
Co170 O195 1.967 . S
Co170 O202 1.920 . S
Co171 O174 1.966 . S
Co171 N180 2.022 . S
Co171 N188 1.993 . S
Co171 O196 1.941 . S
C172 O173 1.258 . S
C172 O174 1.263 . S
O173 Co170 1.970 . S
O173 C172 1.258 . S
O174 Co171 1.966 . S
O174 C172 1.263 . S
C175 O176 1.235 . S
C175 O202 1.289 . S
O176 C175 1.235 . S
C177 C179 1.400 . S
C177 N180 1.351 . S
C177 C182 1.501 . S
C178 C179 1.387 . S
C178 N181 1.341 . S
C179 C177 1.400 . S
C179 C178 1.387 . S
N180 Co171 2.022 . S
N180 C177 1.351 . S
N180 N181 1.365 . S
N181 C178 1.341 . S
N181 N180 1.365 . S
N181 H201 0.862 . S
C182 C177 1.501 . S
C182 H183 0.961 . S
C182 H184 0.961 . S
C182 H185 0.960 . S
H183 C182 0.961 . S
H184 C182 0.961 . S
H185 C182 0.960 . S
C186 N187 1.342 1_655 S
C186 C190 1.401 . S
C186 C191 1.499 . S
N187 Co170 1.989 . S
N187 C186 1.342 1_455 S
N187 N188 1.388 . S
N188 Co171 1.993 . S
N188 N187 1.388 . S
N188 C189 1.346 1_455 S
C189 N188 1.346 1_655 S
C189 C190 1.396 . S
C189 C199 1.510 . S
C190 C186 1.401 . S
C190 C189 1.396 . S
C191 C186 1.499 . S
C191 H192 0.959 . S
C191 H193 0.960 . S
C191 H194 0.961 . S
H192 C191 0.959 . S
H193 C191 0.960 . S
H194 C191 0.961 . S
O195 Co170 1.967 . S
O195 C203 1.258 . S
O196 Co171 1.941 . S
O196 C203 1.266 . S
H197 C199 0.959 . S
H198 C199 0.961 . S
C199 C189 1.510 . S
C199 H197 0.959 . S
C199 H198 0.961 . S
C199 H200 0.960 . S
H200 C199 0.960 . S
H201 N181 0.862 . S
O202 Co170 1.920 . S
O202 C175 1.289 . S
C203 O195 1.258 . S
C203 O196 1.266 . S
Co204 O207 1.970 1_655 S
Co204 N221 1.989 . S
Co204 O229 1.967 . S
Co204 O236 1.920 . S
Co205 O208 1.966 . S
Co205 N214 2.022 . S
Co205 N222 1.993 . S
Co205 O230 1.941 . S
C206 O207 1.258 . S
C206 O208 1.263 1_455 S
O207 Co204 1.970 1_455 S
O207 C206 1.258 . S
O208 Co205 1.966 . S
O208 C206 1.263 1_655 S
C209 O210 1.235 1_655 S
C209 O236 1.289 . S
O210 C209 1.235 1_455 S
C211 C213 1.400 . S
C211 N214 1.351 . S
C211 C216 1.501 1_655 S
C212 C213 1.387 . S
C212 N215 1.341 . S
C213 C211 1.400 . S
C213 C212 1.387 . S
N214 Co205 2.022 . S
N214 C211 1.351 . S
N214 N215 1.365 . S
N215 C212 1.341 . S
N215 N214 1.365 . S
N215 H235 0.862 . S
C216 C211 1.501 1_455 S
C216 H217 0.961 . S
C216 H218 0.961 . S
C216 H219 0.960 . S
H217 C216 0.961 . S
H218 C216 0.961 . S
H219 C216 0.960 . S
C220 N221 1.342 1_565 S
C220 C224 1.401 . S
C220 C225 1.499 . S
N221 Co204 1.989 . S
N221 C220 1.342 1_545 S
N221 N222 1.388 . S
N222 Co205 1.993 . S
N222 N221 1.388 . S
N222 C223 1.346 1_545 S
C223 N222 1.346 1_565 S
C223 C224 1.396 . S
C223 C233 1.510 . S
C224 C220 1.401 . S
C224 C223 1.396 . S
C225 C220 1.499 . S
C225 H226 0.959 . S
C225 H227 0.960 1_655 S
C225 H228 0.961 . S
H226 C225 0.959 . S
H227 C225 0.960 1_455 S
H228 C225 0.961 . S
O229 Co204 1.967 . S
O229 C237 1.258 . S
O230 Co205 1.941 . S
O230 C237 1.266 . S
H231 C233 0.959 . S
H232 C233 0.961 1_455 S
C233 C223 1.510 . S
C233 H231 0.959 . S
C233 H232 0.961 1_655 S
C233 H234 0.960 . S
H234 C233 0.960 . S
H235 N215 0.862 . S
O236 Co204 1.920 . S
O236 C209 1.289 . S
C237 O229 1.258 . S
C237 O230 1.266 . S
Co238 O241 1.970 1_565 S
Co238 N255 1.989 . S
Co238 O263 1.967 . S
Co238 O270 1.920 . S
Co239 O242 1.966 . S
Co239 N248 2.022 . S
Co239 N256 1.993 . S
Co239 O264 1.941 . S
C240 O241 1.258 . S
C240 O242 1.263 1_545 S
O241 Co238 1.970 1_545 S
O241 C240 1.258 . S
O242 Co239 1.966 . S
O242 C240 1.263 1_565 S
C243 O244 1.235 1_565 S
C243 O270 1.289 . S
O244 C243 1.235 1_545 S
C245 C247 1.400 . S
C245 N248 1.351 . S
C245 C250 1.501 1_565 S
C246 C247 1.387 . S
C246 N249 1.341 . S
C247 C245 1.400 . S
C247 C246 1.387 . S
N248 Co239 2.022 . S
N248 C245 1.351 . S
N248 N249 1.365 . S
N249 C246 1.341 . S
N249 N248 1.365 . S
N249 H269 0.862 . S
C250 C245 1.501 1_545 S
C250 H251 0.961 . S
C250 H252 0.961 . S
C250 H253 0.960 . S
H251 C250 0.961 . S
H252 C250 0.961 . S
H253 C250 0.960 . S
C254 N255 1.342 . S
C254 C258 1.401 . S
C254 C259 1.499 . S
N255 Co238 1.989 . S
N255 C254 1.342 . S
N255 N256 1.388 . S
N256 Co239 1.993 . S
N256 N255 1.388 . S
N256 C257 1.346 . S
C257 N256 1.346 . S
C257 C258 1.396 . S
C257 C267 1.510 . S
C258 C254 1.401 . S
C258 C257 1.396 . S
C259 C254 1.499 . S
C259 H260 0.959 . S
C259 H261 0.960 1_565 S
C259 H262 0.961 . S
H260 C259 0.959 . S
H261 C259 0.960 1_545 S
H262 C259 0.961 . S
O263 Co238 1.967 . S
O263 C271 1.258 . S
O264 Co239 1.941 . S
O264 C271 1.266 . S
H265 C267 0.959 . S
H266 C267 0.961 1_545 S
C267 C257 1.510 . S
C267 H265 0.959 . S
C267 H266 0.961 1_565 S
C267 H268 0.960 . S
H268 C267 0.960 . S
H269 N249 0.862 . S
O270 Co238 1.920 . S
O270 C243 1.289 . S
C271 O263 1.258 . S
C271 O264 1.266 . S
Co272 O275 1.970 . S
Co272 N289 1.989 . S
Co272 O297 1.967 . S
Co272 O304 1.920 . S
Co273 O276 1.966 . S
Co273 N282 2.022 . S
Co273 N290 1.993 . S
Co273 O298 1.941 . S
C274 O275 1.258 . S
C274 O276 1.263 . S
O275 Co272 1.970 . S
O275 C274 1.258 . S
O276 Co273 1.966 . S
O276 C274 1.263 . S
C277 O278 1.235 . S
C277 O304 1.289 . S
O278 C277 1.235 . S
C279 C281 1.400 . S
C279 N282 1.351 . S
C279 C284 1.501 . S
C280 C281 1.387 . S
C280 N283 1.341 . S
C281 C279 1.400 . S
C281 C280 1.387 . S
N282 Co273 2.022 . S
N282 C279 1.351 . S
N282 N283 1.365 . S
N283 C280 1.341 . S
N283 N282 1.365 . S
N283 H303 0.862 . S
C284 C279 1.501 . S
C284 H285 0.961 . S
C284 H286 0.961 . S
C284 H287 0.960 . S
H285 C284 0.961 . S
H286 C284 0.961 . S
H287 C284 0.960 . S
C288 N289 1.342 1_545 S
C288 C292 1.401 . S
C288 C293 1.499 . S
N289 Co272 1.989 . S
N289 C288 1.342 1_565 S
N289 N290 1.388 . S
N290 Co273 1.993 . S
N290 N289 1.388 . S
N290 C291 1.346 1_565 S
C291 N290 1.346 1_545 S
C291 C292 1.396 . S
C291 C301 1.510 . S
C292 C288 1.401 . S
C292 C291 1.396 . S
C293 C288 1.499 . S
C293 H294 0.959 . S
C293 H295 0.960 . S
C293 H296 0.961 . S
H294 C293 0.959 . S
H295 C293 0.960 . S
H296 C293 0.961 . S
O297 Co272 1.967 . S
O297 C305 1.258 . S
O298 Co273 1.941 . S
O298 C305 1.266 . S
H299 C301 0.959 . S
H300 C301 0.961 . S
C301 C291 1.510 . S
C301 H299 0.959 . S
C301 H300 0.961 . S
C301 H302 0.960 . S
H302 C301 0.960 . S
H303 N283 0.862 . S
O304 Co272 1.920 . S
O304 C277 1.289 . S
C305 O297 1.258 . S
C305 O298 1.266 . S
Co306 O309 1.970 . S
Co306 N323 1.989 . S
Co306 O331 1.967 . S
Co306 O338 1.920 . S
Co307 O310 1.966 . S
Co307 N316 2.022 . S
Co307 N324 1.993 . S
Co307 O332 1.941 . S
C308 O309 1.258 . S
C308 O310 1.263 . S
O309 Co306 1.970 . S
O309 C308 1.258 . S
O310 Co307 1.966 . S
O310 C308 1.263 . S
C311 O312 1.235 . S
C311 O338 1.289 . S
O312 C311 1.235 . S
C313 C315 1.400 . S
C313 N316 1.351 . S
C313 C318 1.501 . S
C314 C315 1.387 . S
C314 N317 1.341 . S
C315 C313 1.400 . S
C315 C314 1.387 . S
N316 Co307 2.022 . S
N316 C313 1.351 . S
N316 N317 1.365 . S
N317 C314 1.341 . S
N317 N316 1.365 . S
N317 H337 0.862 . S
C318 C313 1.501 . S
C318 H319 0.961 . S
C318 H320 0.961 . S
C318 H321 0.960 . S
H319 C318 0.961 . S
H320 C318 0.961 . S
H321 C318 0.960 . S
C322 N323 1.342 . S
C322 C326 1.401 . S
C322 C327 1.499 . S
N323 Co306 1.989 . S
N323 C322 1.342 . S
N323 N324 1.388 . S
N324 Co307 1.993 . S
N324 N323 1.388 . S
N324 C325 1.346 . S
C325 N324 1.346 . S
C325 C326 1.396 . S
C325 C335 1.510 . S
C326 C322 1.401 . S
C326 C325 1.396 . S
C327 C322 1.499 . S
C327 H328 0.959 . S
C327 H329 0.960 . S
C327 H330 0.961 . S
H328 C327 0.959 . S
H329 C327 0.960 . S
H330 C327 0.961 . S
O331 Co306 1.967 . S
O331 C339 1.258 . S
O332 Co307 1.941 . S
O332 C339 1.266 . S
H333 C335 0.959 . S
H334 C335 0.961 . S
C335 C325 1.510 . S
C335 H333 0.959 . S
C335 H334 0.961 . S
C335 H336 0.960 . S
H336 C335 0.960 . S
H337 N317 0.862 . S
O338 Co306 1.920 . S
O338 C311 1.289 . S
C339 O331 1.258 . S
C339 O332 1.266 . S
Co340 O343 1.970 . S
Co340 N357 1.989 . S
Co340 O365 1.967 . S
Co340 O372 1.920 . S
Co341 O344 1.966 . S
Co341 N350 2.022 . S
Co341 N358 1.993 . S
Co341 O366 1.941 . S
C342 O343 1.258 . S
C342 O344 1.263 . S
O343 Co340 1.970 . S
O343 C342 1.258 . S
O344 Co341 1.966 . S
O344 C342 1.263 . S
C345 O346 1.235 1_455 S
C345 O372 1.289 . S
O346 C345 1.235 1_655 S
C347 C349 1.400 . S
C347 N350 1.351 . S
C347 C352 1.501 1_455 S
C348 C349 1.387 . S
C348 N351 1.341 . S
C349 C347 1.400 . S
C349 C348 1.387 . S
N350 Co341 2.022 . S
N350 C347 1.351 . S
N350 N351 1.365 . S
N351 C348 1.341 . S
N351 N350 1.365 . S
N351 H371 0.862 . S
C352 C347 1.501 1_655 S
C352 H353 0.961 . S
C352 H354 0.961 . S
C352 H355 0.960 . S
H353 C352 0.961 . S
H354 C352 0.961 . S
H355 C352 0.960 . S
C356 N357 1.342 . S
C356 C360 1.401 . S
C356 C361 1.499 . S
N357 Co340 1.989 . S
N357 C356 1.342 . S
N357 N358 1.388 . S
N358 Co341 1.993 . S
N358 N357 1.388 . S
N358 C359 1.346 . S
C359 N358 1.346 . S
C359 C360 1.396 . S
C359 C369 1.510 . S
C360 C356 1.401 . S
C360 C359 1.396 . S
C361 C356 1.499 . S
C361 H362 0.959 . S
C361 H363 0.960 . S
C361 H364 0.961 . S
H362 C361 0.959 . S
H363 C361 0.960 . S
H364 C361 0.961 . S
O365 Co340 1.967 . S
O365 C373 1.258 . S
O366 Co341 1.941 . S
O366 C373 1.266 . S
H367 C369 0.959 . S
H368 C369 0.961 . S
C369 C359 1.510 . S
C369 H367 0.959 . S
C369 H368 0.961 . S
C369 H370 0.960 . S
H370 C369 0.960 . S
H371 N351 0.862 . S
O372 Co340 1.920 . S
O372 C345 1.289 . S
C373 O365 1.258 . S
C373 O366 1.266 . S
Co374 O377 1.970 . S
Co374 N391 1.989 . S
Co374 O399 1.967 . S
Co374 O406 1.920 . S
Co375 O378 1.966 . S
Co375 N384 2.022 . S
Co375 N392 1.993 . S
Co375 O400 1.941 . S
C376 O377 1.258 . S
C376 O378 1.263 . S
O377 Co374 1.970 . S
O377 C376 1.258 . S
O378 Co375 1.966 . S
O378 C376 1.263 . S
C379 O380 1.235 1_545 S
C379 O406 1.289 . S
O380 C379 1.235 1_565 S
C381 C383 1.400 . S
C381 N384 1.351 . S
C381 C386 1.501 1_545 S
C382 C383 1.387 . S
C382 N385 1.341 . S
C383 C381 1.400 . S
C383 C382 1.387 . S
N384 Co375 2.022 . S
N384 C381 1.351 . S
N384 N385 1.365 . S
N385 C382 1.341 . S
N385 N384 1.365 . S
N385 H405 0.862 . S
C386 C381 1.501 1_565 S
C386 H387 0.961 . S
C386 H388 0.961 . S
C386 H389 0.960 . S
H387 C386 0.961 . S
H388 C386 0.961 . S
H389 C386 0.960 . S
C390 N391 1.342 1_455 S
C390 C394 1.401 . S
C390 C395 1.499 . S
N391 Co374 1.989 . S
N391 C390 1.342 1_655 S
N391 N392 1.388 . S
N392 Co375 1.993 . S
N392 N391 1.388 . S
N392 C393 1.346 1_655 S
C393 N392 1.346 1_455 S
C393 C394 1.396 . S
C393 C403 1.510 . S
C394 C390 1.401 . S
C394 C393 1.396 . S
C395 C390 1.499 . S
C395 H396 0.959 . S
C395 H397 0.960 . S
C395 H398 0.961 . S
H396 C395 0.959 . S
H397 C395 0.960 . S
H398 C395 0.961 . S
O399 Co374 1.967 . S
O399 C407 1.258 . S
O400 Co375 1.941 . S
O400 C407 1.266 . S
H401 C403 0.959 . S
H402 C403 0.961 . S
C403 C393 1.510 . S
C403 H401 0.959 . S
C403 H402 0.961 . S
C403 H404 0.960 . S
H404 C403 0.960 . S
H405 N385 0.862 . S
O406 Co374 1.920 . S
O406 C379 1.289 . S
C407 O399 1.258 . S
C407 O400 1.266 . S
Co408 O411 1.970 . S
Co408 N425 1.989 . S
Co408 O433 1.967 . S
Co408 O440 1.920 . S
Co409 O412 1.966 . S
Co409 N418 2.022 . S
Co409 N426 1.993 . S
Co409 O434 1.941 . S
C410 O411 1.258 . S
C410 O412 1.263 . S
O411 Co408 1.970 . S
O411 C410 1.258 . S
O412 Co409 1.966 . S
O412 C410 1.263 . S
C413 O414 1.235 . S
C413 O440 1.289 . S
O414 C413 1.235 . S
C415 C417 1.400 . S
C415 N418 1.351 . S
C415 C420 1.501 . S
C416 C417 1.387 . S
C416 N419 1.341 . S
C417 C415 1.400 . S
C417 C416 1.387 . S
N418 Co409 2.022 . S
N418 C415 1.351 . S
N418 N419 1.365 . S
N419 C416 1.341 . S
N419 N418 1.365 . S
N419 H439 0.862 . S
C420 C415 1.501 . S
C420 H421 0.961 . S
C420 H422 0.961 . S
C420 H423 0.960 . S
H421 C420 0.961 . S
H422 C420 0.961 . S
H423 C420 0.960 . S
C424 N425 1.342 . S
C424 C428 1.401 . S
C424 C429 1.499 . S
N425 Co408 1.989 . S
N425 C424 1.342 . S
N425 N426 1.388 . S
N426 Co409 1.993 . S
N426 N425 1.388 . S
N426 C427 1.346 . S
C427 N426 1.346 . S
C427 C428 1.396 . S
C427 C437 1.510 . S
C428 C424 1.401 . S
C428 C427 1.396 . S
C429 C424 1.499 . S
C429 H430 0.959 . S
C429 H431 0.960 . S
C429 H432 0.961 . S
H430 C429 0.959 . S
H431 C429 0.960 . S
H432 C429 0.961 . S
O433 Co408 1.967 . S
O433 C441 1.258 . S
O434 Co409 1.941 . S
O434 C441 1.266 . S
H435 C437 0.959 . S
H436 C437 0.961 . S
C437 C427 1.510 . S
C437 H435 0.959 . S
C437 H436 0.961 . S
C437 H438 0.960 . S
H438 C437 0.960 . S
H439 N419 0.862 . S
O440 Co408 1.920 . S
O440 C413 1.289 . S
C441 O433 1.258 . S
C441 O434 1.266 . S
Co442 O445 1.970 . S
Co442 N459 1.989 . S
Co442 O467 1.967 . S
Co442 O474 1.920 . S
Co443 O446 1.966 . S
Co443 N452 2.022 . S
Co443 N460 1.993 . S
Co443 O468 1.941 . S
C444 O445 1.258 . S
C444 O446 1.263 . S
O445 Co442 1.970 . S
O445 C444 1.258 . S
O446 Co443 1.966 . S
O446 C444 1.263 . S
C447 O448 1.235 . S
C447 O474 1.289 . S
O448 C447 1.235 . S
C449 C451 1.400 . S
C449 N452 1.351 . S
C449 C454 1.501 . S
C450 C451 1.387 . S
C450 N453 1.341 . S
C451 C449 1.400 . S
C451 C450 1.387 . S
N452 Co443 2.022 . S
N452 C449 1.351 . S
N452 N453 1.365 . S
N453 C450 1.341 . S
N453 N452 1.365 . S
N453 H473 0.862 . S
C454 C449 1.501 . S
C454 H455 0.961 . S
C454 H456 0.961 . S
C454 H457 0.960 . S
H455 C454 0.961 . S
H456 C454 0.961 . S
H457 C454 0.960 . S
C458 N459 1.342 1_455 S
C458 C462 1.401 . S
C458 C463 1.499 . S
N459 Co442 1.989 . S
N459 C458 1.342 1_655 S
N459 N460 1.388 . S
N460 Co443 1.993 . S
N460 N459 1.388 . S
N460 C461 1.346 1_655 S
C461 N460 1.346 1_455 S
C461 C462 1.396 . S
C461 C471 1.510 . S
C462 C458 1.401 . S
C462 C461 1.396 . S
C463 C458 1.499 . S
C463 H464 0.959 . S
C463 H465 0.960 . S
C463 H466 0.961 . S
H464 C463 0.959 . S
H465 C463 0.960 . S
H466 C463 0.961 . S
O467 Co442 1.967 . S
O467 C475 1.258 . S
O468 Co443 1.941 . S
O468 C475 1.266 . S
H469 C471 0.959 . S
H470 C471 0.961 . S
C471 C461 1.510 . S
C471 H469 0.959 . S
C471 H470 0.961 . S
C471 H472 0.960 . S
H472 C471 0.960 . S
H473 N453 0.862 . S
O474 Co442 1.920 . S
O474 C447 1.289 . S
C475 O467 1.258 . S
C475 O468 1.266 . S
Co476 O479 1.970 . S
Co476 N493 1.989 . S
Co476 O501 1.967 . S
Co476 O508 1.920 . S
Co477 O480 1.966 . S
Co477 N486 2.022 . S
Co477 N494 1.993 . S
Co477 O502 1.941 . S
C478 O479 1.258 . S
C478 O480 1.263 . S
O479 Co476 1.970 . S
O479 C478 1.258 . S
O480 Co477 1.966 . S
O480 C478 1.263 . S
C481 O482 1.235 1_455 S
C481 O508 1.289 . S
O482 C481 1.235 1_655 S
C483 C485 1.400 . S
C483 N486 1.351 . S
C483 C488 1.501 1_455 S
C484 C485 1.387 . S
C484 N487 1.341 . S
C485 C483 1.400 . S
C485 C484 1.387 . S
N486 Co477 2.022 . S
N486 C483 1.351 . S
N486 N487 1.365 . S
N487 C484 1.341 . S
N487 N486 1.365 . S
N487 H507 0.862 . S
C488 C483 1.501 1_655 S
C488 H489 0.961 . S
C488 H490 0.961 . S
C488 H491 0.960 . S
H489 C488 0.961 . S
H490 C488 0.961 . S
H491 C488 0.960 . S
C492 N493 1.342 1_545 S
C492 C496 1.401 . S
C492 C497 1.499 . S
N493 Co476 1.989 . S
N493 C492 1.342 1_565 S
N493 N494 1.388 . S
N494 Co477 1.993 . S
N494 N493 1.388 . S
N494 C495 1.346 1_565 S
C495 N494 1.346 1_545 S
C495 C496 1.396 . S
C495 C505 1.510 . S
C496 C492 1.401 . S
C496 C495 1.396 . S
C497 C492 1.499 . S
C497 H498 0.959 . S
C497 H499 0.960 . S
C497 H500 0.961 . S
H498 C497 0.959 . S
H499 C497 0.960 . S
H500 C497 0.961 . S
O501 Co476 1.967 . S
O501 C509 1.258 . S
O502 Co477 1.941 . S
O502 C509 1.266 . S
H503 C505 0.959 . S
H504 C505 0.961 . S
C505 C495 1.510 . S
C505 H503 0.959 . S
C505 H504 0.961 . S
C505 H506 0.960 . S
H506 C505 0.960 . S
H507 N487 0.862 . S
O508 Co476 1.920 . S
O508 C481 1.289 . S
C509 O501 1.258 . S
C509 O502 1.266 . S
Co510 O513 1.970 . S
Co510 N527 1.989 . S
Co510 O535 1.967 . S
Co510 O542 1.920 . S
Co511 O514 1.966 . S
Co511 N520 2.022 . S
Co511 N528 1.993 . S
Co511 O536 1.941 . S
C512 O513 1.258 . S
C512 O514 1.263 . S
O513 Co510 1.970 . S
O513 C512 1.258 . S
O514 Co511 1.966 . S
O514 C512 1.263 . S
C515 O516 1.235 1_545 S
C515 O542 1.289 . S
O516 C515 1.235 1_565 S
C517 C519 1.400 . S
C517 N520 1.351 . S
C517 C522 1.501 1_545 S
C518 C519 1.387 . S
C518 N521 1.341 . S
C519 C517 1.400 . S
C519 C518 1.387 . S
N520 Co511 2.022 . S
N520 C517 1.351 . S
N520 N521 1.365 . S
N521 C518 1.341 . S
N521 N520 1.365 . S
N521 H541 0.862 . S
C522 C517 1.501 1_565 S
C522 H523 0.961 . S
C522 H524 0.961 . S
C522 H525 0.960 . S
H523 C522 0.961 . S
H524 C522 0.961 . S
H525 C522 0.960 . S
C526 N527 1.342 . S
C526 C530 1.401 . S
C526 C531 1.499 . S
N527 Co510 1.989 . S
N527 C526 1.342 . S
N527 N528 1.388 . S
N528 Co511 1.993 . S
N528 N527 1.388 . S
N528 C529 1.346 . S
C529 N528 1.346 . S
C529 C530 1.396 . S
C529 C539 1.510 . S
C530 C526 1.401 . S
C530 C529 1.396 . S
C531 C526 1.499 . S
C531 H532 0.959 . S
C531 H533 0.960 . S
C531 H534 0.961 . S
H532 C531 0.959 . S
H533 C531 0.960 . S
H534 C531 0.961 . S
O535 Co510 1.967 . S
O535 C543 1.258 . S
O536 Co511 1.941 . S
O536 C543 1.266 . S
H537 C539 0.959 . S
H538 C539 0.961 . S
C539 C529 1.510 . S
C539 H537 0.959 . S
C539 H538 0.961 . S
C539 H540 0.960 . S
H540 C539 0.960 . S
H541 N521 0.862 . S
O542 Co510 1.920 . S
O542 C515 1.289 . S
C543 O535 1.258 . S
C543 O536 1.266 . S
H544 C552 0.950 . S
H545 C557 0.950 . S
H546 C554 0.950 . S
H547 C556 0.950 . S
H548 C558 0.950 . S
H549 C560 0.950 . S
H550 C562 0.950 . S
H551 C563 0.950 . S
C552 H544 0.950 . S
C552 C553 1.386 . S
C552 C554 1.391 . S
C553 C552 1.386 . S
C553 C557 1.393 . S
C554 H546 0.950 . S
C554 C552 1.391 . S
C554 C555 1.400 . S
C555 C554 1.400 . S
C555 C556 1.398 . S
C555 C561 1.491 . S
C556 H547 0.950 . S
C556 C555 1.398 . S
C556 C557 1.391 . S
C557 H545 0.950 . S
C557 C553 1.393 . S
C557 C556 1.391 . S
C558 H548 0.950 . S
C558 C559 1.386 . S
C558 C560 1.391 . S
C559 C558 1.386 . S
C559 C563 1.393 1_565 S
C560 H549 0.950 . S
C560 C558 1.391 . S
C560 C561 1.400 1_565 S
C561 C555 1.491 . S
C561 C560 1.400 1_545 S
C561 C562 1.398 . S
C562 H550 0.950 . S
C562 C561 1.398 . S
C562 C563 1.391 . S
C563 H551 0.950 . S
C563 C559 1.393 1_545 S
C563 C562 1.391 . S
H564 C572 0.950 . S
H565 C577 0.950 . S
H566 C574 0.950 . S
H567 C576 0.950 . S
H568 C578 0.950 . S
H569 C580 0.950 . S
H570 C582 0.950 . S
H571 C583 0.950 . S
C572 H564 0.950 . S
C572 C573 1.386 . S
C572 C574 1.391 . S
C573 C572 1.386 . S
C573 C577 1.393 . S
C574 H566 0.950 . S
C574 C572 1.391 . S
C574 C575 1.400 . S
C575 C574 1.400 . S
C575 C576 1.398 . S
C575 C581 1.491 . S
C576 H567 0.950 . S
C576 C575 1.398 . S
C576 C577 1.391 . S
C577 H565 0.950 . S
C577 C573 1.393 . S
C577 C576 1.391 . S
C578 H568 0.950 . S
C578 C579 1.386 . S
C578 C580 1.391 . S
C579 C578 1.386 . S
C579 C583 1.393 . S
C580 H569 0.950 . S
C580 C578 1.391 . S
C580 C581 1.400 . S
C581 C575 1.491 . S
C581 C580 1.400 . S
C581 C582 1.398 . S
C582 H570 0.950 . S
C582 C581 1.398 . S
C582 C583 1.391 . S
C583 H571 0.950 . S
C583 C579 1.393 . S
C583 C582 1.391 . S
H584 C592 0.950 . S
H585 C597 0.950 . S
H586 C594 0.950 . S
H587 C596 0.950 . S
H588 C598 0.950 . S
H589 C600 0.959 . S
H590 C602 0.950 . S
H591 C603 0.950 . S
C592 H584 0.950 . S
C592 C593 1.386 1_455 S
C592 C594 1.391 . S
C593 C592 1.386 1_655 S
C593 C597 1.393 . S
C594 H586 0.950 . S
C594 C592 1.391 . S
C594 C595 1.400 . S
C595 C594 1.400 . S
C595 C596 1.398 1_455 S
C595 C601 1.491 . S
C596 H587 0.950 . S
C596 C595 1.398 1_655 S
C596 C597 1.391 . S
C597 H585 0.950 . S
C597 C593 1.393 . S
C597 C596 1.391 . S
C598 H588 0.950 . S
C598 C599 1.386 . S
C598 C600 1.391 . S
C599 C598 1.386 . S
C599 C603 1.393 . S
C600 H589 0.959 . S
C600 C598 1.391 . S
C600 C601 1.400 . S
C601 C595 1.491 . S
C601 C600 1.400 . S
C601 C602 1.398 . S
C602 H590 0.950 . S
C602 C601 1.398 . S
C602 C603 1.391 . S
C603 H591 0.950 . S
C603 C599 1.393 . S
C603 C602 1.391 . S
H604 C612 0.950 . S
H605 C617 0.950 . S
H606 C614 0.950 . S
H607 C616 0.950 . S
H608 C618 0.950 1_565 S
H609 C620 0.953 . S
H610 C622 0.950 . S
H611 C623 0.950 . S
C612 H604 0.950 . S
C612 C613 1.386 1_545 S
C612 C614 1.391 . S
C613 C612 1.386 1_565 S
C613 C617 1.393 . S
C614 H606 0.950 . S
C614 C612 1.391 . S
C614 C615 1.400 . S
C615 C614 1.400 . S
C615 C616 1.398 1_545 S
C615 C621 1.491 . S
C616 H607 0.950 . S
C616 C615 1.398 1_565 S
C616 C617 1.391 . S
C617 H605 0.950 . S
C617 C613 1.393 . S
C617 C616 1.391 . S
C618 H608 0.950 1_545 S
C618 C619 1.386 . S
C618 C620 1.395 1_545 S
C619 C618 1.386 . S
C619 C623 1.393 1_655 S
C620 H609 0.953 . S
C620 C618 1.395 1_565 S
C620 C621 1.394 1_665 S
C621 C615 1.491 . S
C621 C620 1.394 1_445 S
C621 C622 1.398 . S
C622 H610 0.950 . S
C622 C621 1.398 . S
C622 C623 1.391 . S
C623 H611 0.950 . S
C623 C619 1.393 1_455 S
C623 C622 1.391 . S
H624 C632 0.950 . S
H625 C637 0.950 . S
H626 C634 0.950 . S
H627 C636 0.950 . S
H628 C638 0.950 . S
H629 C640 0.950 . S
H630 C642 0.950 . S
H631 C643 0.950 . S
C632 H624 0.950 . S
C632 C633 1.386 . S
C632 C634 1.391 . S
C633 C632 1.386 . S
C633 C637 1.393 . S
C634 H626 0.950 . S
C634 C632 1.391 . S
C634 C635 1.400 . S
C635 C634 1.400 . S
C635 C636 1.398 . S
C635 C641 1.491 . S
C636 H627 0.950 . S
C636 C635 1.398 . S
C636 C637 1.391 . S
C637 H625 0.950 . S
C637 C633 1.393 . S
C637 C636 1.391 . S
C638 H628 0.950 . S
C638 C639 1.386 1_565 S
C638 C640 1.391 . S
C639 C638 1.386 1_545 S
C639 C643 1.393 . S
C640 H629 0.950 . S
C640 C638 1.391 . S
C640 C641 1.400 . S
C641 C635 1.491 . S
C641 C640 1.400 . S
C641 C642 1.398 1_565 S
C642 H630 0.950 . S
C642 C641 1.398 1_545 S
C642 C643 1.391 . S
C643 H631 0.950 . S
C643 C639 1.393 . S
C643 C642 1.391 . S
H644 C652 0.950 . S
H645 C657 0.950 . S
H646 C654 0.950 . S
H647 C656 0.950 . S
H648 C658 0.950 . S
H649 C660 0.950 . S
H650 C662 0.950 . S
H651 C663 0.950 . S
C652 H644 0.950 . S
C652 C653 1.386 . S
C652 C654 1.391 . S
C653 C652 1.386 . S
C653 C657 1.393 . S
C654 H646 0.950 . S
C654 C652 1.391 . S
C654 C655 1.400 . S
C655 C654 1.400 . S
C655 C656 1.398 . S
C655 C661 1.491 . S
C656 H647 0.950 . S
C656 C655 1.398 . S
C656 C657 1.391 . S
C657 H645 0.950 . S
C657 C653 1.393 . S
C657 C656 1.391 . S
C658 H648 0.950 . S
C658 C659 1.386 . S
C658 C660 1.391 . S
C659 C658 1.386 . S
C659 C663 1.393 . S
C660 H649 0.950 . S
C660 C658 1.391 . S
C660 C661 1.400 . S
C661 C655 1.491 . S
C661 C660 1.400 . S
C661 C662 1.398 . S
C662 H650 0.950 . S
C662 C661 1.398 . S
C662 C663 1.391 . S
C663 H651 0.950 . S
C663 C659 1.393 . S
C663 C662 1.391 . S
H664 C672 0.950 . S
H665 C677 0.950 . S
H666 C674 0.950 . S
H667 C676 0.950 . S
H668 C678 0.950 . S
H669 C680 0.950 . S
H670 C682 0.950 . S
H671 C683 0.950 . S
C672 H664 0.950 . S
C672 C673 1.386 . S
C672 C674 1.391 . S
C673 C672 1.386 . S
C673 C677 1.393 1_455 S
C674 H666 0.950 . S
C674 C672 1.391 . S
C674 C675 1.400 1_455 S
C675 C674 1.400 1_655 S
C675 C676 1.398 . S
C675 C681 1.491 . S
C676 H667 0.950 . S
C676 C675 1.398 . S
C676 C677 1.391 . S
C677 H665 0.950 . S
C677 C673 1.393 1_655 S
C677 C676 1.391 . S
C678 H668 0.950 . S
C678 C679 1.386 . S
C678 C680 1.391 . S
C679 C678 1.386 . S
C679 C683 1.393 1_655 S
C680 H669 0.950 . S
C680 C678 1.391 . S
C680 C681 1.400 . S
C681 C675 1.491 . S
C681 C680 1.400 . S
C681 C682 1.398 1_655 S
C682 H670 0.950 . S
C682 C681 1.398 1_455 S
C682 C683 1.391 . S
C683 H671 0.950 . S
C683 C679 1.393 1_455 S
C683 C682 1.391 . S
H684 C692 0.950 . S
H685 C697 0.950 . S
H686 C694 0.950 . S
H687 C696 0.950 . S
H688 C698 0.950 . S
H689 C700 0.950 . S
H690 C702 0.950 . S
H691 C703 0.949 1_565 S
C692 H684 0.950 . S
C692 C693 1.386 1_655 S
C692 C694 1.391 . S
C693 C692 1.386 1_455 S
C693 C697 1.393 . S
C694 H686 0.950 . S
C694 C692 1.391 . S
C694 C695 1.400 . S
C695 C694 1.400 . S
C695 C696 1.398 1_655 S
C695 C701 1.491 . S
C696 H687 0.950 . S
C696 C695 1.398 1_455 S
C696 C697 1.391 . S
C697 H685 0.950 . S
C697 C693 1.393 . S
C697 C696 1.391 . S
C698 H688 0.950 . S
C698 C699 1.386 1_455 S
C698 C700 1.391 . S
C699 C698 1.386 1_655 S
C699 C703 1.393 . S
C700 H689 0.950 . S
C700 C698 1.391 . S
C700 C701 1.400 1_445 S
C701 C695 1.491 . S
C701 C700 1.400 1_665 S
C701 C702 1.398 . S
C702 H690 0.950 . S
C702 C701 1.398 . S
C702 C703 1.391 1_565 S
C703 H691 0.949 1_545 S
C703 C699 1.393 . S
C703 C702 1.391 1_545 S
H704 C712 0.950 . S
H705 C717 0.950 . S
H706 C714 0.950 . S
H707 C716 0.950 . S
H708 C718 0.950 . S
H709 C720 0.950 . S
H710 C722 0.950 . S
H711 C723 0.950 . S
C712 H704 0.950 . S
C712 C713 1.386 . S
C712 C714 1.391 . S
C713 C712 1.386 . S
C713 C717 1.393 . S
C714 H706 0.950 . S
C714 C712 1.391 . S
C714 C715 1.400 . S
C715 C714 1.400 . S
C715 C716 1.398 . S
C715 C721 1.491 . S
C716 H707 0.950 . S
C716 C715 1.398 . S
C716 C717 1.391 . S
C717 H705 0.950 . S
C717 C713 1.393 . S
C717 C716 1.391 . S
C718 H708 0.950 . S
C718 C719 1.386 . S
C718 C720 1.391 . S
C719 C718 1.386 . S
C719 C723 1.393 . S
C720 H709 0.950 . S
C720 C718 1.391 . S
C720 C721 1.400 . S
C721 C715 1.491 . S
C721 C720 1.400 . S
C721 C722 1.398 . S
C722 H710 0.950 . S
C722 C721 1.398 . S
C722 C723 1.391 . S
C723 H711 0.950 . S
C723 C719 1.393 . S
C723 C722 1.391 . S
H724 C732 0.950 . S
H725 C737 0.950 . S
H726 C734 0.950 . S
H727 C736 0.950 . S
H728 C738 0.950 . S
H729 C740 0.950 . S
H730 C742 0.950 . S
H731 C743 0.950 . S
C732 H724 0.950 . S
C732 C733 1.386 . S
C732 C734 1.391 . S
C733 C732 1.386 . S
C733 C737 1.393 . S
C734 H726 0.950 . S
C734 C732 1.391 . S
C734 C735 1.400 . S
C735 C734 1.400 . S
C735 C736 1.398 . S
C735 C741 1.491 . S
C736 H727 0.950 . S
C736 C735 1.398 . S
C736 C737 1.391 . S
C737 H725 0.950 . S
C737 C733 1.393 . S
C737 C736 1.391 . S
C738 H728 0.950 . S
C738 C739 1.386 . S
C738 C740 1.391 . S
C739 C738 1.386 . S
C739 C743 1.393 . S
C740 H729 0.950 . S
C740 C738 1.391 . S
C740 C741 1.400 . S
C741 C735 1.491 . S
C741 C740 1.400 . S
C741 C742 1.398 . S
C742 H730 0.950 . S
C742 C741 1.398 . S
C742 C743 1.391 . S
C743 H731 0.950 . S
C743 C739 1.393 . S
C743 C742 1.391 . S
H744 C752 0.950 . S
H745 C757 0.950 . S
H746 C754 0.950 . S
H747 C756 0.950 . S
H748 C758 0.950 . S
H749 C760 0.950 . S
H750 C762 0.950 . S
H751 C763 0.950 . S
C752 H744 0.950 . S
C752 C753 1.386 . S
C752 C754 1.391 . S
C753 C752 1.386 . S
C753 C757 1.393 . S
C754 H746 0.950 . S
C754 C752 1.391 . S
C754 C755 1.400 . S
C755 C754 1.400 . S
C755 C756 1.398 . S
C755 C761 1.491 . S
C756 H747 0.950 . S
C756 C755 1.398 . S
C756 C757 1.391 . S
C757 H745 0.950 . S
C757 C753 1.393 . S
C757 C756 1.391 . S
C758 H748 0.950 . S
C758 C759 1.386 . S
C758 C760 1.391 . S
C759 C758 1.386 . S
C759 C763 1.393 . S
C760 H749 0.950 . S
C760 C758 1.391 . S
C760 C761 1.400 . S
C761 C755 1.491 . S
C761 C760 1.400 . S
C761 C762 1.398 . S
C762 H750 0.950 . S
C762 C761 1.398 . S
C762 C763 1.391 . S
C763 H751 0.950 . S
C763 C759 1.393 . S
C763 C762 1.391 . S
H764 C772 0.950 . S
H765 C777 0.950 . S
H766 C774 0.950 . S
H767 C776 0.950 . S
H768 C778 0.950 . S
H769 C780 0.950 . S
H770 C782 0.950 . S
H771 C783 0.950 . S
C772 H764 0.950 . S
C772 C773 1.386 . S
C772 C774 1.391 . S
C773 C772 1.386 . S
C773 C777 1.393 . S
C774 H766 0.950 . S
C774 C772 1.391 . S
C774 C775 1.400 . S
C775 C774 1.400 . S
C775 C776 1.398 . S
C775 C781 1.491 . S
C776 H767 0.950 . S
C776 C775 1.398 . S
C776 C777 1.391 . S
C777 H765 0.950 . S
C777 C773 1.393 . S
C777 C776 1.391 . S
C778 H768 0.950 . S
C778 C779 1.386 . S
C778 C780 1.391 . S
C779 C778 1.386 . S
C779 C783 1.393 . S
C780 H769 0.950 . S
C780 C778 1.391 . S
C780 C781 1.400 . S
C781 C775 1.491 . S
C781 C780 1.400 . S
C781 C782 1.398 . S
C782 H770 0.950 . S
C782 C781 1.398 . S
C782 C783 1.391 . S
C783 H771 0.950 . S
C783 C779 1.393 . S
C783 C782 1.391 . S
H784 C792 0.950 . S
H785 C797 0.950 . S
H786 C794 0.950 . S
H787 C796 0.950 . S
H788 C798 0.950 . S
H789 C800 0.950 . S
H790 C802 0.950 . S
H791 C803 0.950 . S
C792 H784 0.950 . S
C792 C793 1.386 . S
C792 C794 1.391 . S
C793 C792 1.386 . S
C793 C797 1.393 . S
C794 H786 0.950 . S
C794 C792 1.391 . S
C794 C795 1.400 . S
C795 C794 1.400 . S
C795 C796 1.398 . S
C795 C801 1.491 . S
C796 H787 0.950 . S
C796 C795 1.398 . S
C796 C797 1.391 . S
C797 H785 0.950 . S
C797 C793 1.393 . S
C797 C796 1.391 . S
C798 H788 0.950 . S
C798 C799 1.386 . S
C798 C800 1.391 . S
C799 C798 1.386 . S
C799 C803 1.393 . S
C800 H789 0.950 . S
C800 C798 1.391 . S
C800 C801 1.400 . S
C801 C795 1.491 . S
C801 C800 1.400 . S
C801 C802 1.398 . S
C802 H790 0.950 . S
C802 C801 1.398 . S
C802 C803 1.391 . S
C803 H791 0.950 . S
C803 C799 1.393 . S
C803 C802 1.391 . S
H804 C812 0.950 . S
H805 C817 0.950 . S
H806 C814 0.950 . S
H807 C816 0.950 . S
H808 C818 0.950 . S
H809 C820 0.950 . S
H810 C822 0.950 . S
H811 C823 0.950 . S
C812 H804 0.950 . S
C812 C813 1.386 . S
C812 C814 1.391 . S
C813 C812 1.386 . S
C813 C817 1.393 . S
C814 H806 0.950 . S
C814 C812 1.391 . S
C814 C815 1.400 . S
C815 C814 1.400 . S
C815 C816 1.398 . S
C815 C821 1.491 . S
C816 H807 0.950 . S
C816 C815 1.398 . S
C816 C817 1.391 . S
C817 H805 0.950 . S
C817 C813 1.393 . S
C817 C816 1.391 . S
C818 H808 0.950 . S
C818 C819 1.386 . S
C818 C820 1.391 . S
C819 C818 1.386 . S
C819 C823 1.393 . S
C820 H809 0.950 . S
C820 C818 1.391 . S
C820 C821 1.400 . S
C821 C815 1.491 . S
C821 C820 1.400 . S
C821 C822 1.398 . S
C822 H810 0.950 . S
C822 C821 1.398 . S
C822 C823 1.391 . S
C823 H811 0.950 . S
C823 C819 1.393 . S
C823 C822 1.391 . S
H824 C832 0.950 . S
H825 C837 0.950 . S
H826 C834 0.950 . S
H827 C836 0.950 . S
H828 C838 0.950 . S
H829 C840 0.950 . S
H830 C842 0.950 . S
H831 C843 0.950 . S
C832 H824 0.950 . S
C832 C833 1.386 . S
C832 C834 1.391 . S
C833 C832 1.386 . S
C833 C837 1.393 . S
C834 H826 0.950 . S
C834 C832 1.391 . S
C834 C835 1.400 . S
C835 C834 1.400 . S
C835 C836 1.398 . S
C835 C841 1.491 . S
C836 H827 0.950 . S
C836 C835 1.398 . S
C836 C837 1.391 . S
C837 H825 0.950 . S
C837 C833 1.393 . S
C837 C836 1.391 . S
C838 H828 0.950 . S
C838 C839 1.386 . S
C838 C840 1.391 . S
C839 C838 1.386 . S
C839 C843 1.393 . S
C840 H829 0.950 . S
C840 C838 1.391 . S
C840 C841 1.400 . S
C841 C835 1.491 . S
C841 C840 1.400 . S
C841 C842 1.398 . S
C842 H830 0.950 . S
C842 C841 1.398 . S
C842 C843 1.391 . S
C843 H831 0.950 . S
C843 C839 1.393 . S
C843 C842 1.391 . S
H844 C852 0.950 . S
H845 C857 0.950 . S
H846 C854 0.950 . S
H847 C856 0.950 . S
H848 C858 0.950 . S
H849 C860 0.950 . S
H850 C862 0.950 . S
H851 C863 0.950 . S
C852 H844 0.950 . S
C852 C853 1.386 . S
C852 C854 1.391 . S
C853 C852 1.386 . S
C853 C857 1.393 . S
C854 H846 0.950 . S
C854 C852 1.391 . S
C854 C855 1.400 . S
C855 C854 1.400 . S
C855 C856 1.398 . S
C855 C861 1.491 . S
C856 H847 0.950 . S
C856 C855 1.398 . S
C856 C857 1.391 . S
C857 H845 0.950 . S
C857 C853 1.393 . S
C857 C856 1.391 . S
C858 H848 0.950 . S
C858 C859 1.386 . S
C858 C860 1.391 . S
C859 C858 1.386 . S
C859 C863 1.393 . S
C860 H849 0.950 . S
C860 C858 1.391 . S
C860 C861 1.400 . S
C861 C855 1.491 . S
C861 C860 1.400 . S
C861 C862 1.398 . S
C862 H850 0.950 . S
C862 C861 1.398 . S
C862 C863 1.391 . S
C863 H851 0.950 . S
C863 C859 1.393 . S
C863 C862 1.391 . S
H864 C872 0.950 . S
H865 C877 0.950 . S
H866 C874 0.950 . S
H867 C876 0.950 . S
H868 C878 0.950 . S
H869 C880 0.950 . S
H870 C882 0.950 . S
H871 C883 0.950 . S
C872 H864 0.950 . S
C872 C873 1.386 . S
C872 C874 1.391 . S
C873 C872 1.386 . S
C873 C877 1.393 . S
C874 H866 0.950 . S
C874 C872 1.391 . S
C874 C875 1.400 . S
C875 C874 1.400 . S
C875 C876 1.398 . S
C875 C881 1.491 . S
C876 H867 0.950 . S
C876 C875 1.398 . S
C876 C877 1.391 . S
C877 H865 0.950 . S
C877 C873 1.393 . S
C877 C876 1.391 . S
C878 H868 0.950 . S
C878 C879 1.386 . S
C878 C880 1.391 . S
C879 C878 1.386 . S
C879 C883 1.393 . S
C880 H869 0.950 . S
C880 C878 1.391 . S
C880 C881 1.400 . S
C881 C875 1.491 . S
C881 C880 1.400 . S
C881 C882 1.398 . S
C882 H870 0.950 . S
C882 C881 1.398 . S
C882 C883 1.391 . S
C883 H871 0.950 . S
C883 C879 1.393 . S
C883 C882 1.391 . S
H884 C892 0.950 . S
H885 C897 0.950 . S
H886 C894 0.950 . S
H887 C896 0.950 . S
H888 C898 0.950 . S
H889 C900 0.950 . S
H890 C902 0.950 . S
H891 C903 0.950 . S
C892 H884 0.950 . S
C892 C893 1.386 . S
C892 C894 1.391 . S
C893 C892 1.386 . S
C893 C897 1.393 . S
C894 H886 0.950 . S
C894 C892 1.391 . S
C894 C895 1.400 . S
C895 C894 1.400 . S
C895 C896 1.398 . S
C895 C901 1.491 . S
C896 H887 0.950 . S
C896 C895 1.398 . S
C896 C897 1.391 . S
C897 H885 0.950 . S
C897 C893 1.393 . S
C897 C896 1.391 . S
C898 H888 0.950 . S
C898 C899 1.386 . S
C898 C900 1.391 . S
C899 C898 1.386 . S
C899 C903 1.393 . S
C900 H889 0.950 . S
C900 C898 1.391 . S
C900 C901 1.400 . S
C901 C895 1.491 . S
C901 C900 1.400 . S
C901 C902 1.398 . S
C902 H890 0.950 . S
C902 C901 1.398 . S
C902 C903 1.391 . S
C903 H891 0.950 . S
C903 C899 1.393 . S
C903 C902 1.391 . S
H904 C912 0.950 . S
H905 C917 0.950 . S
H906 C914 0.950 . S
H907 C916 0.950 . S
H908 C918 0.950 . S
H909 C920 0.950 . S
H910 C922 0.950 . S
H911 C923 0.950 . S
C912 H904 0.950 . S
C912 C913 1.386 1_455 S
C912 C914 1.391 . S
C913 C912 1.386 1_655 S
C913 C917 1.393 . S
C914 H906 0.950 . S
C914 C912 1.391 . S
C914 C915 1.400 1_455 S
C915 C914 1.400 1_655 S
C915 C916 1.398 . S
C915 C921 1.491 . S
C916 H907 0.950 . S
C916 C915 1.398 . S
C916 C917 1.391 . S
C917 H905 0.950 . S
C917 C913 1.393 . S
C917 C916 1.391 . S
C918 H908 0.950 . S
C918 C919 1.386 1_655 S
C918 C920 1.391 . S
C919 C918 1.386 1_455 S
C919 C923 1.393 . S
C920 H909 0.950 . S
C920 C918 1.391 . S
C920 C921 1.400 . S
C921 C915 1.491 . S
C921 C920 1.400 . S
C921 C922 1.398 1_655 S
C922 H910 0.950 . S
C922 C921 1.398 1_455 S
C922 C923 1.391 . S
C923 H911 0.950 . S
C923 C919 1.393 . S
C923 C922 1.391 . S
H924 C932 0.950 . S
H925 C937 0.950 . S
H926 C934 0.950 . S
H927 C936 0.950 . S
H928 C938 0.950 . S
H929 C940 0.950 . S
H930 C942 0.950 1_545 S
H931 C943 0.950 . S
C932 H924 0.950 . S
C932 C933 1.387 . S
C932 C934 1.391 . S
C933 C932 1.387 . S
C933 C937 1.391 1_545 S
C934 H926 0.950 . S
C934 C932 1.391 . S
C934 C935 1.400 1_545 S
C935 C934 1.400 1_565 S
C935 C936 1.398 . S
C935 C941 1.491 . S
C936 H927 0.950 . S
C936 C935 1.398 . S
C936 C937 1.391 . S
C937 H925 0.950 . S
C937 C933 1.391 1_565 S
C937 C936 1.391 . S
C938 H928 0.950 . S
C938 C939 1.386 . S
C938 C940 1.391 . S
C939 C938 1.386 . S
C939 C943 1.393 . S
C940 H929 0.950 . S
C940 C938 1.391 . S
C940 C941 1.400 . S
C941 C935 1.491 . S
C941 C940 1.400 . S
C941 C942 1.398 . S
C942 H930 0.950 1_565 S
C942 C941 1.398 . S
C942 C943 1.391 . S
C943 H931 0.950 . S
C943 C939 1.393 . S
C943 C942 1.391 . S
H944 C952 0.950 . S
H945 C957 0.950 . S
H946 C954 0.950 . S
H947 C956 0.950 . S
H948 C958 0.950 . S
H949 C960 0.950 . S
H950 C962 0.950 . S
H951 C963 0.950 . S
C952 H944 0.950 . S
C952 C953 1.386 . S
C952 C954 1.391 . S
C953 C952 1.386 . S
C953 C957 1.393 . S
C954 H946 0.950 . S
C954 C952 1.391 . S
C954 C955 1.400 . S
C955 C954 1.400 . S
C955 C956 1.398 . S
C955 C961 1.491 . S
C956 H947 0.950 . S
C956 C955 1.398 . S
C956 C957 1.391 . S
C957 H945 0.950 . S
C957 C953 1.393 . S
C957 C956 1.391 . S
C958 H948 0.950 . S
C958 C959 1.386 . S
C958 C960 1.391 . S
C959 C958 1.386 . S
C959 C963 1.393 . S
C960 H949 0.950 . S
C960 C958 1.391 . S
C960 C961 1.400 . S
C961 C955 1.491 . S
C961 C960 1.400 . S
C961 C962 1.398 . S
C962 H950 0.950 . S
C962 C961 1.398 . S
C962 C963 1.391 . S
C963 H951 0.950 . S
C963 C959 1.393 . S
C963 C962 1.391 . S
H964 C972 0.950 . S
H965 C977 0.950 . S
H966 C974 0.950 . S
H967 C976 0.950 . S
H968 C978 0.950 . S
H969 C980 0.950 . S
H970 C982 0.950 . S
H971 C983 0.950 . S
C972 H964 0.950 . S
C972 C973 1.386 . S
C972 C974 1.391 . S
C973 C972 1.386 . S
C973 C977 1.393 . S
C974 H966 0.950 . S
C974 C972 1.391 . S
C974 C975 1.400 . S
C975 C974 1.400 . S
C975 C976 1.398 . S
C975 C981 1.491 . S
C976 H967 0.950 . S
C976 C975 1.398 . S
C976 C977 1.391 . S
C977 H965 0.950 . S
C977 C973 1.393 . S
C977 C976 1.391 . S
C978 H968 0.950 . S
C978 C979 1.386 . S
C978 C980 1.391 . S
C979 C978 1.386 . S
C979 C983 1.393 . S
C980 H969 0.950 . S
C980 C978 1.391 . S
C980 C981 1.400 . S
C981 C975 1.491 . S
C981 C980 1.400 . S
C981 C982 1.398 . S
C982 H970 0.950 . S
C982 C981 1.398 . S
C982 C983 1.391 . S
C983 H971 0.950 . S
C983 C979 1.393 . S
C983 C982 1.391 . S
H984 C992 0.950 . S
H985 C997 0.950 . S
H986 C994 0.950 . S
H987 C996 0.950 . S
H988 C998 0.950 . S
H989 C1000 0.950 . S
H990 C1002 0.950 . S
H991 C1003 0.950 . S
C992 H984 0.950 . S
C992 C993 1.386 . S
C992 C994 1.391 . S
C993 C992 1.386 . S
C993 C997 1.393 1_655 S
C994 H986 0.950 . S
C994 C992 1.391 . S
C994 C995 1.400 . S
C995 C994 1.400 . S
C995 C996 1.398 1_655 S
C995 C1001 1.491 . S
C996 H987 0.950 . S
C996 C995 1.398 1_455 S
C996 C997 1.391 . S
C997 H985 0.950 . S
C997 C993 1.393 1_455 S
C997 C996 1.391 . S
C998 H988 0.950 . S
C998 C999 1.386 . S
C998 C1000 1.391 . S
C999 C998 1.386 . S
C999 C1003 1.393 1_455 S
C1000 H989 0.950 . S
C1000 C998 1.391 . S
C1000 C1001 1.400 1_455 S
C1001 C995 1.491 . S
C1001 C1000 1.400 1_655 S
C1001 C1002 1.398 . S
C1002 H990 0.950 . S
C1002 C1001 1.398 . S
C1002 C1003 1.391 . S
C1003 H991 0.950 . S
C1003 C999 1.393 1_655 S
C1003 C1002 1.391 . S
H1004 C1012 0.950 . S
H1005 C1017 0.950 . S
H1006 C1014 0.950 . S
H1007 C1016 0.950 1_545 S
H1008 C1018 0.950 . S
H1009 C1020 0.950 . S
H1010 C1022 0.950 . S
H1011 C1023 0.950 . S
C1012 H1004 0.950 . S
C1012 C1013 1.386 . S
C1012 C1014 1.391 . S
C1013 C1012 1.386 . S
C1013 C1017 1.393 . S
C1014 H1006 0.950 . S
C1014 C1012 1.391 . S
C1014 C1015 1.400 . S
C1015 C1014 1.400 . S
C1015 C1016 1.398 . S
C1015 C1021 1.491 . S
C1016 H1007 0.950 1_565 S
C1016 C1015 1.398 . S
C1016 C1017 1.391 . S
C1017 H1005 0.950 . S
C1017 C1013 1.393 . S
C1017 C1016 1.391 . S
C1018 H1008 0.950 . S
C1018 C1019 1.387 . S
C1018 C1020 1.391 . S
C1019 C1018 1.387 . S
C1019 C1023 1.391 1_545 S
C1020 H1009 0.950 . S
C1020 C1018 1.391 . S
C1020 C1021 1.400 1_545 S
C1021 C1015 1.491 . S
C1021 C1020 1.400 1_565 S
C1021 C1022 1.398 . S
C1022 H1010 0.950 . S
C1022 C1021 1.398 . S
C1022 C1023 1.391 . S
C1023 H1011 0.950 . S
C1023 C1019 1.391 1_565 S
C1023 C1022 1.391 . S
H1024 C1032 0.950 . S
H1025 C1037 0.950 . S
H1026 C1034 0.950 . S
H1027 C1036 0.950 . S
H1028 C1038 0.950 . S
H1029 C1040 0.950 . S
H1030 C1042 0.950 . S
H1031 C1043 0.950 . S
C1032 H1024 0.950 . S
C1032 C1033 1.386 . S
C1032 C1034 1.391 . S
C1033 C1032 1.386 . S
C1033 C1037 1.393 . S
C1034 H1026 0.950 . S
C1034 C1032 1.391 . S
C1034 C1035 1.400 . S
C1035 C1034 1.400 . S
C1035 C1036 1.398 . S
C1035 C1041 1.491 . S
C1036 H1027 0.950 . S
C1036 C1035 1.398 . S
C1036 C1037 1.391 . S
C1037 H1025 0.950 . S
C1037 C1033 1.393 . S
C1037 C1036 1.391 . S
C1038 H1028 0.950 . S
C1038 C1039 1.386 . S
C1038 C1040 1.391 . S
C1039 C1038 1.386 . S
C1039 C1043 1.393 . S
C1040 H1029 0.950 . S
C1040 C1038 1.391 . S
C1040 C1041 1.400 . S
C1041 C1035 1.491 . S
C1041 C1040 1.400 . S
C1041 C1042 1.398 . S
C1042 H1030 0.950 . S
C1042 C1041 1.398 . S
C1042 C1043 1.391 . S
C1043 H1031 0.950 . S
C1043 C1039 1.393 . S
C1043 C1042 1.391 . S
H1044 C1052 0.950 . S
H1045 C1057 0.950 . S
H1046 C1054 0.950 . S
H1047 C1056 0.950 . S
H1048 C1058 0.950 . S
H1049 C1060 0.950 . S
H1050 C1062 0.950 . S
H1051 C1063 0.950 . S
C1052 H1044 0.950 . S
C1052 C1053 1.386 . S
C1052 C1054 1.391 . S
C1053 C1052 1.386 . S
C1053 C1057 1.393 . S
C1054 H1046 0.950 . S
C1054 C1052 1.391 . S
C1054 C1055 1.400 . S
C1055 C1054 1.400 . S
C1055 C1056 1.398 . S
C1055 C1061 1.491 . S
C1056 H1047 0.950 . S
C1056 C1055 1.398 . S
C1056 C1057 1.391 . S
C1057 H1045 0.950 . S
C1057 C1053 1.393 . S
C1057 C1056 1.391 . S
C1058 H1048 0.950 . S
C1058 C1059 1.386 . S
C1058 C1060 1.391 . S
C1059 C1058 1.386 . S
C1059 C1063 1.393 . S
C1060 H1049 0.950 . S
C1060 C1058 1.391 . S
C1060 C1061 1.400 . S
C1061 C1055 1.491 . S
C1061 C1060 1.400 . S
C1061 C1062 1.398 . S
C1062 H1050 0.950 . S
C1062 C1061 1.398 . S
C1062 C1063 1.391 . S
C1063 H1051 0.950 . S
C1063 C1059 1.393 . S
C1063 C1062 1.391 . S
H1064 C1072 0.950 . S
H1065 C1077 0.950 . S
H1066 C1074 0.950 . S
H1067 C1076 0.950 . S
H1068 C1078 0.950 . S
H1069 C1080 0.950 . S
H1070 C1082 0.950 1_655 S
H1071 C1083 0.950 1_655 S
C1072 H1064 0.950 . S
C1072 C1073 1.386 1_655 S
C1072 C1074 1.391 . S
C1073 C1072 1.386 1_455 S
C1073 C1077 1.393 . S
C1074 H1066 0.950 . S
C1074 C1072 1.391 . S
C1074 C1075 1.400 1_655 S
C1075 C1074 1.400 1_455 S
C1075 C1076 1.398 . S
C1075 C1081 1.491 . S
C1076 H1067 0.950 . S
C1076 C1075 1.398 . S
C1076 C1077 1.391 . S
C1077 H1065 0.950 . S
C1077 C1073 1.393 . S
C1077 C1076 1.391 . S
C1078 H1068 0.950 . S
C1078 C1079 1.386 . S
C1078 C1080 1.391 . S
C1079 C1078 1.386 . S
C1079 C1083 1.393 . S
C1080 H1069 0.950 . S
C1080 C1078 1.391 . S
C1080 C1081 1.400 . S
C1081 C1075 1.491 . S
C1081 C1080 1.400 . S
C1081 C1082 1.398 . S
C1082 H1070 0.950 1_455 S
C1082 C1081 1.398 . S
C1082 C1083 1.391 . S
C1083 H1071 0.950 1_455 S
C1083 C1079 1.393 . S
C1083 C1082 1.391 . S
H1084 C1092 0.950 . S
H1085 C1097 0.950 . S
H1086 C1094 0.950 . S
H1087 C1096 0.950 . S
H1088 C1098 0.950 . S
H1089 C1100 0.950 . S
H1090 C1102 0.950 . S
H1091 C1103 0.939 1_565 S
C1092 H1084 0.950 . S
C1092 C1093 1.386 1_565 S
C1092 C1094 1.391 . S
C1093 C1092 1.386 1_545 S
C1093 C1097 1.393 . S
C1094 H1086 0.950 . S
C1094 C1092 1.391 . S
C1094 C1095 1.400 1_565 S
C1095 C1094 1.400 1_545 S
C1095 C1096 1.398 . S
C1095 C1101 1.491 . S
C1096 H1087 0.950 . S
C1096 C1095 1.398 . S
C1096 C1097 1.391 . S
C1097 H1085 0.950 . S
C1097 C1093 1.393 . S
C1097 C1096 1.391 . S
C1098 H1088 0.950 . S
C1098 C1099 1.386 . S
C1098 C1100 1.391 . S
C1099 C1098 1.386 . S
C1099 C1103 1.404 . S
C1100 H1089 0.950 . S
C1100 C1098 1.391 . S
C1100 C1101 1.400 . S
C1101 C1095 1.491 . S
C1101 C1100 1.400 . S
C1101 C1102 1.398 1_545 S
C1102 H1090 0.950 . S
C1102 C1101 1.398 1_565 S
C1102 C1103 1.390 1_565 S
C1103 H1091 0.939 1_545 S
C1103 C1099 1.404 . S
C1103 C1102 1.390 1_545 S
H1104 C1112 0.950 . S
H1105 C1117 0.950 . S
H1106 C1114 0.950 . S
H1107 C1116 0.950 . S
H1108 C1118 0.950 . S
H1109 C1120 0.950 . S
H1110 C1122 0.950 . S
H1111 C1123 0.950 . S
C1112 H1104 0.950 . S
C1112 C1113 1.386 . S
C1112 C1114 1.391 . S
C1113 C1112 1.386 . S
C1113 C1117 1.393 . S
C1114 H1106 0.950 . S
C1114 C1112 1.391 . S
C1114 C1115 1.400 . S
C1115 C1114 1.400 . S
C1115 C1116 1.398 . S
C1115 C1121 1.491 . S
C1116 H1107 0.950 . S
C1116 C1115 1.398 . S
C1116 C1117 1.391 . S
C1117 H1105 0.950 . S
C1117 C1113 1.393 . S
C1117 C1116 1.391 . S
C1118 H1108 0.950 . S
C1118 C1119 1.386 . S
C1118 C1120 1.391 . S
C1119 C1118 1.386 . S
C1119 C1123 1.393 . S
C1120 H1109 0.950 . S
C1120 C1118 1.391 . S
C1120 C1121 1.400 . S
C1121 C1115 1.491 . S
C1121 C1120 1.400 . S
C1121 C1122 1.398 . S
C1122 H1110 0.950 . S
C1122 C1121 1.398 . S
C1122 C1123 1.391 . S
C1123 H1111 0.950 . S
C1123 C1119 1.393 . S
C1123 C1122 1.391 . S
H1124 C1132 0.950 . S
H1125 C1137 0.950 . S
H1126 C1134 0.950 . S
H1127 C1136 0.950 . S
H1128 C1138 0.950 . S
H1129 C1140 0.950 . S
H1130 C1142 0.950 . S
H1131 C1143 0.950 . S
C1132 H1124 0.950 . S
C1132 C1133 1.386 . S
C1132 C1134 1.391 . S
C1133 C1132 1.386 . S
C1133 C1137 1.393 . S
C1134 H1126 0.950 . S
C1134 C1132 1.391 . S
C1134 C1135 1.400 . S
C1135 C1134 1.400 . S
C1135 C1136 1.398 . S
C1135 C1141 1.491 . S
C1136 H1127 0.950 . S
C1136 C1135 1.398 . S
C1136 C1137 1.391 . S
C1137 H1125 0.950 . S
C1137 C1133 1.393 . S
C1137 C1136 1.391 . S
C1138 H1128 0.950 . S
C1138 C1139 1.386 . S
C1138 C1140 1.391 . S
C1139 C1138 1.386 . S
C1139 C1143 1.393 . S
C1140 H1129 0.950 . S
C1140 C1138 1.391 . S
C1140 C1141 1.400 . S
C1141 C1135 1.491 . S
C1141 C1140 1.400 . S
C1141 C1142 1.398 . S
C1142 H1130 0.950 . S
C1142 C1141 1.398 . S
C1142 C1143 1.391 . S
C1143 H1131 0.950 . S
C1143 C1139 1.393 . S
C1143 C1142 1.391 . S
H1144 C1152 0.950 . S
H1145 C1157 0.950 . S
H1146 C1154 0.950 . S
H1147 C1156 0.950 . S
H1148 C1158 0.950 1_655 S
H1149 C1160 0.950 1_655 S
H1150 C1162 0.950 . S
H1151 C1163 0.950 . S
C1152 H1144 0.950 . S
C1152 C1153 1.386 . S
C1152 C1154 1.391 . S
C1153 C1152 1.386 . S
C1153 C1157 1.393 1_455 S
C1154 H1146 0.950 . S
C1154 C1152 1.391 . S
C1154 C1155 1.400 . S
C1155 C1154 1.400 . S
C1155 C1156 1.398 1_455 S
C1155 C1161 1.491 . S
C1156 H1147 0.950 . S
C1156 C1155 1.398 1_655 S
C1156 C1157 1.391 . S
C1157 H1145 0.950 . S
C1157 C1153 1.393 1_655 S
C1157 C1156 1.391 . S
C1158 H1148 0.950 1_455 S
C1158 C1159 1.386 . S
C1158 C1160 1.391 . S
C1159 C1158 1.386 . S
C1159 C1163 1.393 . S
C1160 H1149 0.950 1_455 S
C1160 C1158 1.391 . S
C1160 C1161 1.400 . S
C1161 C1155 1.491 . S
C1161 C1160 1.400 . S
C1161 C1162 1.398 . S
C1162 H1150 0.950 . S
C1162 C1161 1.398 . S
C1162 C1163 1.391 . S
C1163 H1151 0.950 . S
C1163 C1159 1.393 . S
C1163 C1162 1.391 . S
H1164 C1172 0.950 . S
H1165 C1177 0.950 . S
H1166 C1174 0.950 . S
H1167 C1176 0.950 . S
H1168 C1178 0.950 . S
H1169 C1180 0.950 . S
H1170 C1182 0.955 . S
H1171 C1183 0.950 1_565 S
C1172 H1164 0.950 . S
C1172 C1173 1.386 . S
C1172 C1174 1.391 . S
C1173 C1172 1.386 . S
C1173 C1177 1.393 . S
C1174 H1166 0.950 . S
C1174 C1172 1.391 . S
C1174 C1175 1.400 . S
C1175 C1174 1.400 . S
C1175 C1176 1.398 . S
C1175 C1181 1.491 . S
C1176 H1167 0.950 . S
C1176 C1175 1.398 . S
C1176 C1177 1.391 . S
C1177 H1165 0.950 . S
C1177 C1173 1.393 . S
C1177 C1176 1.391 . S
C1178 H1168 0.950 . S
C1178 C1179 1.386 . S
C1178 C1180 1.391 . S
C1179 C1178 1.386 . S
C1179 C1183 1.393 . S
C1180 H1169 0.950 . S
C1180 C1178 1.391 . S
C1180 C1181 1.400 . S
C1181 C1175 1.491 . S
C1181 C1180 1.400 . S
C1181 C1182 1.398 . S
C1182 H1170 0.955 . S
C1182 C1181 1.398 . S
C1182 C1183 1.391 . S
C1183 H1171 0.950 1_545 S
C1183 C1179 1.393 . S
C1183 C1182 1.391 . S
H1184 C1192 0.950 . S
H1185 C1197 0.950 . S
H1186 C1194 0.950 . S
H1187 C1196 0.950 1_545 S
H1188 C1198 0.950 . S
H1189 C1200 0.950 . S
H1190 C1202 0.950 . S
H1191 C1203 0.950 . S
C1192 H1184 0.950 . S
C1192 C1193 1.386 . S
C1192 C1194 1.391 . S
C1193 C1192 1.386 . S
C1193 C1197 1.393 . S
C1194 H1186 0.950 . S
C1194 C1192 1.391 . S
C1194 C1195 1.400 . S
C1195 C1194 1.400 . S
C1195 C1196 1.398 . S
C1195 C1201 1.491 1_556 S
C1196 H1187 0.950 1_565 S
C1196 C1195 1.398 . S
C1196 C1197 1.391 . S
C1197 H1185 0.950 . S
C1197 C1193 1.393 . S
C1197 C1196 1.391 . S
C1198 H1188 0.950 . S
C1198 C1199 1.386 . S
C1198 C1200 1.391 . S
C1199 C1198 1.386 . S
C1199 C1203 1.393 1_545 S
C1200 H1189 0.950 . S
C1200 C1198 1.391 . S
C1200 C1201 1.400 1_545 S
C1201 C1195 1.491 1_554 S
C1201 C1200 1.400 1_565 S
C1201 C1202 1.398 . S
C1202 H1190 0.950 . S
C1202 C1201 1.398 . S
C1202 C1203 1.391 . S
C1203 H1191 0.950 . S
C1203 C1199 1.393 1_565 S
C1203 C1202 1.391 . S
H1204 C1212 0.950 . S
H1205 C1217 0.950 . S
H1206 C1214 0.950 . S
H1207 C1216 0.950 . S
H1208 C1218 0.950 . S
H1209 C1220 0.950 . S
H1210 C1222 0.950 . S
H1211 C1223 0.950 . S
C1212 H1204 0.950 . S
C1212 C1213 1.386 . S
C1212 C1214 1.391 . S
C1213 C1212 1.386 . S
C1213 C1217 1.393 . S
C1214 H1206 0.950 . S
C1214 C1212 1.391 . S
C1214 C1215 1.400 . S
C1215 C1214 1.400 . S
C1215 C1216 1.398 . S
C1215 C1221 1.491 . S
C1216 H1207 0.950 . S
C1216 C1215 1.398 . S
C1216 C1217 1.391 . S
C1217 H1205 0.950 . S
C1217 C1213 1.393 . S
C1217 C1216 1.391 . S
C1218 H1208 0.950 . S
C1218 C1219 1.386 . S
C1218 C1220 1.391 . S
C1219 C1218 1.386 . S
C1219 C1223 1.393 . S
C1220 H1209 0.950 . S
C1220 C1218 1.391 . S
C1220 C1221 1.400 . S
C1221 C1215 1.491 . S
C1221 C1220 1.400 . S
C1221 C1222 1.398 . S
C1222 H1210 0.950 . S
C1222 C1221 1.398 . S
C1222 C1223 1.391 . S
C1223 H1211 0.950 . S
C1223 C1219 1.393 . S
C1223 C1222 1.391 . S
H1224 C1232 0.950 . S
H1225 C1237 0.950 . S
H1226 C1234 0.950 . S
H1227 C1236 0.950 . S
H1228 C1238 0.950 . S
H1229 C1240 0.950 . S
H1230 C1242 0.950 . S
H1231 C1243 0.950 . S
C1232 H1224 0.950 . S
C1232 C1233 1.386 . S
C1232 C1234 1.391 . S
C1233 C1232 1.386 . S
C1233 C1237 1.393 1_455 S
C1234 H1226 0.950 . S
C1234 C1232 1.391 . S
C1234 C1235 1.400 . S
C1235 C1234 1.400 . S
C1235 C1236 1.398 1_455 S
C1235 C1241 1.491 1_554 S
C1236 H1227 0.950 . S
C1236 C1235 1.398 1_655 S
C1236 C1237 1.391 . S
C1237 H1225 0.950 . S
C1237 C1233 1.393 1_655 S
C1237 C1236 1.391 . S
C1238 H1228 0.950 . S
C1238 C1239 1.386 1_655 S
C1238 C1240 1.391 . S
C1239 C1238 1.386 1_455 S
C1239 C1243 1.393 . S
C1240 H1229 0.950 . S
C1240 C1238 1.391 . S
C1240 C1241 1.400 1_655 S
C1241 C1235 1.491 1_556 S
C1241 C1240 1.400 1_455 S
C1241 C1242 1.398 . S
C1242 H1230 0.950 . S
C1242 C1241 1.398 . S
C1242 C1243 1.391 . S
C1243 H1231 0.950 . S
C1243 C1239 1.393 . S
C1243 C1242 1.391 . S
H1244 C1252 0.950 . S
H1245 C1257 0.950 . S
H1246 C1254 0.950 . S
H1247 C1256 0.950 . S
H1248 C1258 0.950 . S
H1249 C1260 0.950 . S
H1250 C1262 0.950 . S
H1251 C1263 0.950 . S
C1252 H1244 0.950 . S
C1252 C1253 1.386 1_565 S
C1252 C1254 1.391 . S
C1253 C1252 1.386 1_545 S
C1253 C1257 1.393 . S
C1254 H1246 0.950 . S
C1254 C1252 1.391 . S
C1254 C1255 1.400 1_565 S
C1255 C1254 1.400 1_545 S
C1255 C1256 1.398 . S
C1255 C1261 1.491 . S
C1256 H1247 0.950 . S
C1256 C1255 1.398 . S
C1256 C1257 1.391 . S
C1257 H1245 0.950 . S
C1257 C1253 1.393 . S
C1257 C1256 1.391 . S
C1258 H1248 0.950 . S
C1258 C1259 1.386 . S
C1258 C1260 1.391 1_455 S
C1259 C1258 1.386 . S
C1259 C1263 1.393 1_545 S
C1260 H1249 0.950 . S
C1260 C1258 1.391 1_655 S
C1260 C1261 1.400 . S
C1261 C1255 1.491 . S
C1261 C1260 1.400 . S
C1261 C1262 1.398 1_645 S
C1262 H1250 0.950 . S
C1262 C1261 1.398 1_465 S
C1262 C1263 1.391 . S
C1263 H1251 0.950 . S
C1263 C1259 1.393 1_565 S
C1263 C1262 1.391 . S
H1264 C1272 0.950 . S
H1265 C1277 0.950 . S
H1266 C1274 0.950 . S
H1267 C1276 0.950 . S
H1268 C1278 0.950 . S
H1269 C1280 0.950 . S
H1270 C1282 0.950 . S
H1271 C1283 0.950 . S
C1272 H1264 0.950 . S
C1272 C1273 1.386 . S
C1272 C1274 1.391 . S
C1273 C1272 1.386 . S
C1273 C1277 1.393 . S
C1274 H1266 0.950 . S
C1274 C1272 1.391 . S
C1274 C1275 1.400 . S
C1275 C1274 1.400 . S
C1275 C1276 1.398 . S
C1275 C1281 1.491 1_556 S
C1276 H1267 0.950 . S
C1276 C1275 1.398 . S
C1276 C1277 1.391 . S
C1277 H1265 0.950 . S
C1277 C1273 1.393 . S
C1277 C1276 1.391 . S
C1278 H1268 0.950 . S
C1278 C1279 1.386 . S
C1278 C1280 1.391 . S
C1279 C1278 1.386 . S
C1279 C1283 1.393 . S
C1280 H1269 0.950 . S
C1280 C1278 1.391 . S
C1280 C1281 1.400 . S
C1281 C1275 1.491 1_554 S
C1281 C1280 1.400 . S
C1281 C1282 1.398 . S
C1282 H1270 0.950 . S
C1282 C1281 1.398 . S
C1282 C1283 1.391 . S
C1283 H1271 0.950 . S
C1283 C1279 1.393 . S
C1283 C1282 1.391 . S
H1284 C1292 0.950 . S
H1285 C1297 0.950 . S
H1286 C1294 0.950 . S
H1287 C1296 0.950 . S
H1288 C1298 0.950 1_455 S
H1289 C1300 0.950 . S
H1290 C1302 0.950 . S
H1291 C1303 0.950 . S
C1292 H1284 0.950 . S
C1292 C1293 1.386 1_655 S
C1292 C1294 1.391 . S
C1293 C1292 1.386 1_455 S
C1293 C1297 1.393 . S
C1294 H1286 0.950 . S
C1294 C1292 1.391 . S
C1294 C1295 1.400 . S
C1295 C1294 1.400 . S
C1295 C1296 1.398 1_655 S
C1295 C1301 1.491 . S
C1296 H1287 0.950 . S
C1296 C1295 1.398 1_455 S
C1296 C1297 1.391 . S
C1297 H1285 0.950 . S
C1297 C1293 1.393 . S
C1297 C1296 1.391 . S
C1298 H1288 0.950 1_655 S
C1298 C1299 1.386 . S
C1298 C1300 1.391 1_655 S
C1299 C1298 1.386 . S
C1299 C1303 1.393 . S
C1300 H1289 0.950 . S
C1300 C1298 1.391 1_455 S
C1300 C1301 1.400 1_455 S
C1301 C1295 1.491 . S
C1301 C1300 1.400 1_655 S
C1301 C1302 1.398 . S
C1302 H1290 0.950 . S
C1302 C1301 1.398 . S
C1302 C1303 1.391 . S
C1303 H1291 0.950 . S
C1303 C1299 1.393 . S
C1303 C1302 1.391 . S
H1304 C1312 0.950 . S
H1305 C1317 0.951 . S
H1306 C1314 0.950 1_545 S
H1307 C1316 0.950 . S
H1308 C1318 0.950 . S
H1309 C1320 0.950 . S
H1310 C1322 0.950 . S
H1311 C1323 0.950 . S
C1312 H1304 0.950 . S
C1312 C1313 1.386 . S
C1312 C1314 1.391 . S
C1313 C1312 1.386 . S
C1313 C1317 1.391 1_455 S
C1314 H1306 0.950 1_565 S
C1314 C1312 1.391 . S
C1314 C1315 1.400 . S
C1315 C1314 1.400 . S
C1315 C1316 1.398 1_455 S
C1315 C1321 1.491 1_554 S
C1316 H1307 0.950 . S
C1316 C1315 1.398 1_655 S
C1316 C1317 1.391 . S
C1317 H1305 0.951 . S
C1317 C1313 1.391 1_655 S
C1317 C1316 1.391 . S
C1318 H1308 0.950 . S
C1318 C1319 1.386 1_665 S
C1318 C1320 1.391 . S
C1319 C1318 1.386 1_445 S
C1319 C1323 1.393 . S
C1320 H1309 0.950 . S
C1320 C1318 1.391 . S
C1320 C1321 1.400 1_655 S
C1321 C1315 1.491 1_556 S
C1321 C1320 1.400 1_455 S
C1321 C1322 1.398 1_565 S
C1322 H1310 0.950 . S
C1322 C1321 1.398 1_545 S
C1322 C1323 1.391 . S
C1323 H1311 0.950 . S
C1323 C1319 1.393 . S
C1323 C1322 1.391 . S
H1324 C1332 0.950 . S
H1325 C1337 0.950 . S
H1326 C1334 0.950 1_565 S
H1327 C1336 0.950 . S
H1328 C1338 0.950 . S
H1329 C1340 0.950 . S
H1330 C1342 0.950 . S
H1331 C1343 0.950 . S
C1332 H1324 0.950 . S
C1332 C1333 1.386 1_565 S
C1332 C1334 1.391 1_565 S
C1333 C1332 1.386 1_545 S
C1333 C1337 1.393 . S
C1334 H1326 0.950 1_545 S
C1334 C1332 1.391 1_545 S
C1334 C1335 1.400 . S
C1335 C1334 1.400 . S
C1335 C1336 1.398 . S
C1335 C1341 1.491 . S
C1336 H1327 0.950 . S
C1336 C1335 1.398 . S
C1336 C1337 1.391 . S
C1337 H1325 0.950 . S
C1337 C1333 1.393 . S
C1337 C1336 1.391 . S
C1338 H1328 0.950 . S
C1338 C1339 1.386 . S
C1338 C1340 1.391 . S
C1339 C1338 1.386 . S
C1339 C1343 1.393 . S
C1340 H1329 0.950 . S
C1340 C1338 1.391 . S
C1340 C1341 1.400 . S
C1341 C1335 1.491 . S
C1341 C1340 1.400 . S
C1341 C1342 1.398 . S
C1342 H1330 0.950 . S
C1342 C1341 1.398 . S
C1342 C1343 1.391 . S
C1343 H1331 0.950 . S
C1343 C1339 1.393 . S
C1343 C1342 1.391 . S
C553 C5 1.882 . S
C559 C243 1.887 . S
C573 C141 1.888 . S
C579 C39 1.885 . S
C593 C73 1.887 . S
C599 C175 1.883 . S
C613 C107 1.876 . S
C619 C209 1.874 . S
C633 C281 1.340 . S
C639 C519 1.350 . S
C653 C315 1.328 . S
C659 C417 1.354 . S
C673 C349 1.339 . S
C679 C451 1.350 . S
C693 C485 1.341 . S
C699 C383 1.330 . S
C713 C33 1.911 . S
C719 C101 1.907 . S
C733 C135 1.893 . S
C739 C67 1.895 . S
C753 C237 1.899 . S
C759 C169 1.904 . S
C773 C203 1.898 . S
C779 C271 1.902 . S
C793 C373 1.324 . S
C799 C305 1.319 . S
C813 C407 1.316 . S
C819 C339 1.316 . S
C833 C509 1.347 . S
C839 C441 1.351 . S
C853 C543 1.316 . S
C859 C475 1.316 . S
C873 C410 0.577 . S
C879 C20 0.528 . S
C893 C444 0.569 . S
C899 C54 0.529 . S
C913 C88 0.522 . S
C919 C478 0.553 . S
C933 C512 0.594 . S
C939 C122 0.524 . S
C953 C156 0.523 . S
C959 C274 0.584 . S
C973 C308 0.563 . S
C979 C190 0.522 . S
C993 C224 0.528 . S
C999 C342 0.573 . S
C1013 C258 0.525 . S
C1019 C376 0.595 . S
C1033 C138 0.568 . S
C1039 C292 0.560 . S
C1053 C172 0.577 . S
C1059 C326 0.563 . S
C1073 C206 0.571 . S
C1079 C360 0.560 . S
C1093 C240 0.595 . S
C1099 C394 0.556 . S
C1113 C2 0.603 . S
C1119 C428 0.556 . S
C1133 C36 0.588 . S
C1139 C462 0.557 . S
C1153 C70 0.559 . S
C1159 C496 0.564 . S
C1173 C530 0.563 . S
C1179 C104 0.556 . S
C1193 C277 1.641 . S
C1199 C9 1.604 . S
C1213 C43 1.590 . S
C1219 C311 1.656 . S
C1233 C77 1.613 1_455 S
C1239 C345 1.655 . S
C1253 C379 1.647 . S
C1259 C111 1.593 1_545 S
C1273 C145 1.597 . S
C1279 C413 1.660 . S
C1293 C179 1.615 . S
C1299 C447 1.643 . S
C1313 C481 1.660 . S
C1319 C213 1.602 1_455 S
C1333 C247 1.589 1_545 S
C1339 C515 1.654 . S
