# Generated by pormake.
# Topology uni, (4)-cn, num edge types: 1
# Building blocks:
#     Node 0, Type 0, BuildingBlock: GALJAG_clean_sbu_0, # of connection points: 4
#     Node 1, Type 0, BuildingBlock: GALJAG_clean_sbu_0, # of connection points: 4
#     Node 2, Type 0, BuildingBlock: GALJAG_clean_sbu_0, # of connection points: 4
#     Node 3, Type 0, BuildingBlock: GALJAG_clean_sbu_0, # of connection points: 4
#     Node 4, Type 0, BuildingBlock: GALJAG_clean_sbu_0, # of connection points: 4
#     Node 5, Type 0, BuildingBlock: GALJAG_clean_sbu_0, # of connection points: 4
#     Edge 6, Type (0, 0), BuildingBlock: FUNLAD_clean_linker_1, # of connection points: 2
#     Edge 7, Type (0, 0), BuildingBlock: FUNLAD_clean_linker_1, # of connection points: 2
#     Edge 8, Type (0, 0), BuildingBlock: FUNLAD_clean_linker_1, # of connection points: 2
#     Edge 9, Type (0, 0), BuildingBlock: FUNLAD_clean_linker_1, # of connection points: 2
#     Edge 10, Type (0, 0), BuildingBlock: FUNLAD_clean_linker_1, # of connection points: 2
#     Edge 11, Type (0, 0), BuildingBlock: FUNLAD_clean_linker_1, # of connection points: 2
#     Edge 12, Type (0, 0), BuildingBlock: FUNLAD_clean_linker_1, # of connection points: 2
#     Edge 13, Type (0, 0), BuildingBlock: FUNLAD_clean_linker_1, # of connection points: 2
#     Edge 14, Type (0, 0), BuildingBlock: FUNLAD_clean_linker_1, # of connection points: 2
#     Edge 15, Type (0, 0), BuildingBlock: FUNLAD_clean_linker_1, # of connection points: 2
#     Edge 16, Type (0, 0), BuildingBlock: FUNLAD_clean_linker_1, # of connection points: 2
#     Edge 17, Type (0, 0), BuildingBlock: FUNLAD_clean_linker_1, # of connection points: 2
# Relax obj value: 0.070
# Max RMSD: 0.134
# Mean RMSD: 0.134
data_MOF--net-uni--node1-GALJAG_clean_sbu_0--edge1-FUNLAD_clean_linker_1
_symmetry_space_group_name_H-M    P1
_symmetry_Int_Tables_number       1
_symmetry_cell_setting            triclinic
loop_
_symmetry_equiv_pos_as_xyz
'x, y, z'
_cell_length_a     38.617147
_cell_length_b     38.889165
_cell_length_c     26.299842
_cell_angle_alpha  90.011099
_cell_angle_beta   89.858521
_cell_angle_gamma 120.20605
loop_
_atom_site_label
_atom_site_type_symbol
_atom_site_fract_x
_atom_site_fract_y
_atom_site_fract_z
_atom_type_partial_charge
In0 In 0.64683 0.02261 0.04769 0.0
O1 O 0.62524 0.00756 0.96556 0.0
O2 O 0.61151 0.04641 1.00662 0.0
C3 C 0.64231 0.95235 0.0672 0.0
C4 C 0.72213 0.08239 0.02749 0.0
C5 C 0.60522 0.02343 0.12944 0.0
O6 O 0.62365 0.95697 0.03108 0.0
O7 O 0.66377 0.9832 0.09309 0.0
O8 O 0.64302 0.04025 0.12979 0.0
O9 O 0.58881 0.00652 0.08837 0.0
C10 C 0.6085 0.02832 0.96569 0.0
O11 O 0.69688 0.08794 0.05102 0.0
O12 O 0.70986 0.04684 0.01516 0.0
In13 In 0.6333 0.62954 0.22325 0.0
O14 O 0.64329 0.6182 0.14066 0.0
O15 O 0.5854 0.58128 0.172 0.0
C16 C 0.70089 0.63509 0.26077 0.0
C17 C 0.6456 0.70271 0.20043 0.0
C18 C 0.58304 0.59329 0.30238 0.0
O19 O 0.68457 0.61612 0.22055 0.0
O20 O 0.68328 0.65118 0.28188 0.0
O21 O 0.58879 0.6256 0.2837 0.0
O22 O 0.60159 0.5785 0.28031 0.0
C23 C 0.60799 0.59024 0.13362 0.0
O24 O 0.61131 0.67201 0.19989 0.0
O25 O 0.67359 0.69672 0.2128 0.0
In26 In 0.02405 0.63175 0.39592 0.0
O27 O 0.05224 0.62501 0.32276 0.0
O28 O 1.00342 0.57291 0.35453 0.0
C29 C 0.08386 0.70506 0.42205 0.0
C30 C 0.96447 0.64124 0.35829 0.0
C31 C 0.01554 0.59115 0.48286 0.0
O32 O 0.0902 0.67936 0.40175 0.0
O33 O 0.04745 0.69405 0.429 0.0
O34 O 0.98834 0.5968 0.46579 0.0
O35 O 0.04697 0.60577 0.45618 0.0
C36 C 0.0287 0.58802 0.31911 0.0
O37 O 0.96113 0.62324 0.39956 0.0
O38 O 0.99799 0.65511 0.33649 0.0
In39 In 0.42341 0.01817 0.5485 0.0
O40 O 0.37831 0.95259 0.56249 0.0
O41 O 0.36196 0.9836 0.51024 0.0
C42 C 0.46833 0.02437 0.62989 0.0
C43 C 0.46366 0.01474 0.46676 0.0
C44 C 0.41651 0.08291 0.56644 0.0
O45 O 0.43055 1.00392 0.63082 0.0
O46 O 0.48326 0.04174 0.58841 0.0
O47 O 0.44165 0.0832 0.53561 0.0
O48 O 0.39409 0.0498 0.58749 0.0
C49 C 0.3525 0.95113 0.53206 0.0
O50 O 0.44627 0.03491 0.46678 0.0
O51 O 0.46024 0.99606 0.50731 0.0
In52 In 0.41729 0.39993 0.72231 0.0
O53 O 0.43224 0.35015 0.71597 0.0
O54 O 0.37405 0.33679 0.69373 0.0
C55 C 0.45634 0.43085 0.81091 0.0
C56 C 0.46318 0.44381 0.64303 0.0
C57 C 0.34713 0.39853 0.7347 0.0
O58 O 0.43387 0.39407 0.80382 0.0
O59 O 0.45969 0.4524 0.77318 0.0
O60 O 0.36369 0.40338 0.69183 0.0
O61 O 0.36577 0.39429 0.77125 0.0
C62 C 0.3986 0.32473 0.69849 0.0
O63 O 0.43519 0.448 0.66093 0.0
O64 O 0.46876 0.41855 0.66581 0.0
In65 In 0.03875 0.41781 0.89712 0.0
O66 O 0.08644 0.40267 0.92073 0.0
O67 O 0.07502 0.40281 0.84176 0.0
C68 C 0.05151 0.46315 0.98078 0.0
C69 C 0.04075 0.46204 0.81667 0.0
C70 C 0.96912 0.34962 0.91577 0.0
O71 O 0.07959 0.46297 0.95659 0.0
O72 O 0.01709 0.44093 0.96268 0.0
O73 O 0.97051 0.37967 0.89567 0.0
O74 O 1.00281 0.35347 0.92583 0.0
C75 C 0.09532 0.3984 0.87594 0.0
O76 O 0.01769 0.42485 0.81865 0.0
O77 O 0.06264 0.47702 0.85517 0.0
H78 H 0.54943 0.01174 0.16676 0.0
C79 C 0.5812 0.0231 0.17302 0.0
H80 H 0.62829 0.04683 0.2264 0.0
H81 H 0.54319 0.10713 0.37847 0.0
H82 H 0.60208 0.16881 0.35313 0.0
H83 H 0.64686 0.16967 0.28549 0.0
H84 H 0.63331 0.10877 0.24321 0.0
C85 C 0.59649 0.03485 0.21974 0.0
C86 C 0.57063 0.0338 0.26255 0.0
C87 C 0.57873 0.06979 0.2864 0.0
C88 C 0.55246 0.0694 0.32471 0.0
C89 C 0.56174 0.1057 0.34861 0.0
C90 C 0.59551 0.14137 0.33449 0.0
C91 C 0.62074 0.14184 0.29645 0.0
C92 C 0.6126 0.1066 0.27251 0.0
H93 H 0.50274 0.99679 0.42849 0.0
C94 C 0.48743 0.01361 0.42375 0.0
H95 H 0.47724 0.05087 0.37535 0.0
H96 H 0.55051 0.95847 0.23212 0.0
H97 H 0.49008 0.89713 0.25451 0.0
H98 H 0.44029 0.89755 0.3131 0.0
H99 H 0.45134 0.95911 0.35083 0.0
C100 C 0.4913 0.03288 0.37992 0.0
C101 C 0.51785 0.0331 0.33861 0.0
C102 C 0.50957 0.99713 0.31442 0.0
C103 C 0.53682 0.99726 0.27789 0.0
C104 C 0.52962 0.96045 0.25772 0.0
C105 C 0.49522 0.92493 0.27063 0.0
C106 C 0.46731 0.92514 0.30381 0.0
C107 C 0.47422 0.9607 0.32555 0.0
H108 H 0.5411 0.58881 0.36271 0.0
C109 C 0.55836 0.57579 0.34833 0.0
H110 H 0.57769 0.53457 0.36206 0.0
H111 H 0.54883 0.54066 0.60017 0.0
H112 H 0.62018 0.58779 0.59595 0.0
H113 H 0.65478 0.60993 0.51325 0.0
H114 H 0.61812 0.58535 0.43423 0.0
C115 C 0.55899 0.5465 0.37458 0.0
C116 C 0.53789 0.53267 0.42426 0.0
C117 C 0.55988 0.54655 0.4701 0.0
C118 C 0.54009 0.53308 0.5178 0.0
C119 C 0.56254 0.54883 0.56292 0.0
C120 C 0.60349 0.57616 0.56105 0.0
C121 C 0.62296 0.58868 0.51449 0.0
C122 C 0.60156 0.57426 0.46942 0.0
H123 H 0.50996 0.4591 0.58499 0.0
C124 C 0.48639 0.46476 0.5973 0.0
H125 H 0.45318 0.49278 0.57983 0.0
H126 H 0.4871 0.50025 0.34352 0.0
H127 H 0.41572 0.45299 0.34747 0.0
H128 H 0.38141 0.42884 0.43002 0.0
H129 H 0.41818 0.45176 0.5091 0.0
C130 C 0.47786 0.48835 0.56911 0.0
C131 C 0.49847 0.50486 0.51954 0.0
C132 C 0.47637 0.49149 0.47363 0.0
C133 C 0.49612 0.50538 0.42596 0.0
C134 C 0.47351 0.49093 0.38072 0.0
C135 C 0.43254 0.46371 0.38244 0.0
C136 C 0.41323 0.45011 0.42892 0.0
C137 C 0.43472 0.46362 0.47407 0.0
H138 H 0.06641 0.51756 0.77208 0.0
C139 C 0.0432 0.48635 0.77236 0.0
H140 H 0.9956 0.43962 0.73215 0.0
H141 H 0.03063 0.60891 0.61817 0.0
H142 H 1.01137 0.62556 0.69811 0.0
H143 H 0.995 0.58166 0.77283 0.0
H144 H 0.99884 0.52143 0.76834 0.0
C145 C 0.01821 0.47103 0.73262 0.0
C146 C 0.0231 0.49518 0.68628 0.0
C147 C 0.01849 0.52913 0.68884 0.0
C148 C 0.02553 0.55317 0.6449 0.0
C149 C 0.02365 0.58848 0.64955 0.0
C150 C 0.01292 0.59859 0.69538 0.0
C151 C 1.00389 0.57398 0.7375 0.0
C152 C 1.00654 0.53962 0.73449 0.0
H153 H 0.98141 0.55498 0.54901 0.0
C154 C 1.01048 0.56892 0.53029 0.0
H155 H 0.06944 0.57883 0.53169 0.0
H156 H 0.03449 0.43214 0.66804 0.0
H157 H 0.05031 0.41362 0.58702 0.0
H158 H 0.0585 0.453 0.50977 0.0
H159 H 0.05131 0.51137 0.5132 0.0
C160 C 0.04058 0.56577 0.55085 0.0
C161 C 0.03469 0.54182 0.59768 0.0
C162 C 0.03841 0.5074 0.5949 0.0
C163 C 0.03287 0.48422 0.63926 0.0
C164 C 0.03768 0.4505 0.63548 0.0
C165 C 0.04686 0.43955 0.58918 0.0
C166 C 0.05153 0.46175 0.54571 0.0
C167 C 0.0474 0.49527 0.54828 0.0
H168 H 0.56739 0.04412 0.92885 0.0
C169 C 0.58542 0.03022 0.9226 0.0
H170 H 0.60294 1.00053 0.87058 0.0
H171 H 0.45244 0.93641 0.72828 0.0
H172 H 0.44733 0.87553 0.75999 0.0
H173 H 0.49258 0.87731 0.82726 0.0
H174 H 0.54353 0.93997 0.86274 0.0
C175 C 0.58558 0.01513 0.87678 0.0
C176 C 0.55915 0.01452 0.83522 0.0
C177 C 0.52901 0.97748 0.81556 0.0
C178 C 0.50231 0.97638 0.77761 0.0
C179 C 0.47313 0.93903 0.75773 0.0
C180 C 0.46987 0.90379 0.77554 0.0
C181 C 0.49538 0.9048 0.81336 0.0
C182 C 0.5246 0.94107 0.83333 0.0
H183 H 0.52603 0.04319 0.66711 0.0
C184 C 0.49377 0.02728 0.67299 0.0
H185 H 0.44639 0.99399 0.72434 0.0
H186 H 0.61781 0.09095 0.85776 0.0
H187 H 0.62041 0.1516 0.82989 0.0
H188 H 0.5689 0.14915 0.77225 0.0
H189 H 0.51531 0.08609 0.74093 0.0
C190 C 0.47862 0.01088 0.71843 0.0
C191 C 0.50535 0.01226 0.76001 0.0
C192 C 0.5349 0.04926 0.78052 0.0
C193 C 0.56286 0.0505 0.81658 0.0
C194 C 0.59429 0.08807 0.83281 0.0
C195 C 0.59639 0.12319 0.81669 0.0
C196 C 0.56753 0.12182 0.78404 0.0
C197 C 0.5371 0.0854 0.76602 0.0
H198 H 0.6162 0.581 0.05276 0.0
C199 C 0.59434 0.57124 0.08344 0.0
H200 H 0.53346 0.53559 0.10378 0.0
H201 H 0.4662 0.52717 0.88326 0.0
H202 H 0.44693 0.57031 0.92575 0.0
H203 H 0.47122 0.59556 0.01209 0.0
H204 H 0.51468 0.57754 0.05665 0.0
C205 C 0.55587 0.5442 0.07396 0.0
C206 C 0.54201 0.52919 0.02142 0.0
C207 C 0.5169 0.54029 0.99562 0.0
C208 C 0.50348 0.5263 0.94543 0.0
C209 C 0.47783 0.53736 0.92106 0.0
C210 C 0.46643 0.56207 0.94506 0.0
C211 C 0.48006 0.57624 0.99369 0.0
C212 C 0.50496 0.56558 0.01886 0.0
H213 H 0.46823 0.42586 0.89166 0.0
C214 C 0.47538 0.44681 0.86056 0.0
H215 H 0.50626 0.50712 0.8384 0.0
H216 H 0.58702 0.49941 0.06138 0.0
H217 H 0.60914 0.459 0.01747 0.0
H218 H 0.59031 0.43913 0.92816 0.0
H219 H 0.54861 0.45888 0.88258 0.0
C220 C 0.49993 0.48586 0.86887 0.0
C221 C 0.5154 0.50141 0.92084 0.0
C222 C 0.54136 0.49111 0.9462 0.0
C223 C 0.55388 0.50422 0.99694 0.0
C224 C 0.57789 0.4916 0.02226 0.0
C225 C 0.59063 0.4682 0.99758 0.0
C226 C 0.5799 0.45689 0.94737 0.0
C227 C 0.55565 0.46818 0.92177 0.0
H228 H 0.08939 0.50545 0.04012 0.0
C229 C 0.05871 0.4871 0.02708 0.0
H230 H 0.99789 0.46896 0.04018 0.0
H231 H 0.07789 0.53341 0.26833 0.0
H232 H 0.08664 0.47588 0.26996 0.0
H233 H 0.07119 0.43293 0.1945 0.0
H234 H 0.04759 0.44765 0.11673 0.0
C235 C 0.02857 0.48629 0.05362 0.0
C236 C 0.03625 0.5109 0.10008 0.0
C237 C 0.04883 0.50108 0.14573 0.0
C238 C 0.05609 0.52484 0.18993 0.0
C239 C 0.07043 0.51549 0.23428 0.0
C240 C 0.07586 0.4827 0.23563 0.0
C241 C 0.06729 0.4586 0.1931 0.0
C242 C 0.05394 0.46752 0.14858 0.0
H243 H 1.00608 0.53289 0.27454 0.0
C244 C 0.02863 0.56432 0.27542 0.0
H245 H 0.07534 0.61245 0.23554 0.0
H246 H 0.01316 0.5382 0.01849 0.0
H247 H 1.00255 0.5946 0.0175 0.0
H248 H 0.01273 0.63438 0.09492 0.0
H249 H 0.0338 0.6182 0.17368 0.0
C250 C 0.05375 0.58074 0.23586 0.0
C251 C 0.04919 0.55739 0.18894 0.0
C252 C 0.03675 0.56725 0.14321 0.0
C253 C 0.03032 0.544 0.09875 0.0
C254 C 0.01809 0.55461 0.05352 0.0
C255 C 1.01193 0.58695 0.05238 0.0
C256 C 0.01771 0.60937 0.09596 0.0
C257 C 0.0299 0.59977 0.14094 0.0
H258 H 0.68368 0.76733 0.18832 0.0
C259 C 0.65305 0.74257 0.18674 0.0
H260 H 0.59267 0.72464 0.17106 0.0
H261 H 0.61564 0.8963 0.20094 0.0
H262 H 0.57747 0.86277 0.27655 0.0
H263 H 0.56408 0.79555 0.29897 0.0
H264 H 0.58856 0.76134 0.24569 0.0
C265 C 0.62356 0.7489 0.1715 0.0
C266 C 0.63188 0.78947 0.15767 0.0
C267 C 0.6176 0.80914 0.1894 0.0
C268 C 0.62578 0.8481 0.17683 0.0
C269 C 0.61071 0.86687 0.20892 0.0
C270 C 0.58869 0.84794 0.25244 0.0
C271 C 0.58112 0.81009 0.26503 0.0
C272 C 0.59532 0.79077 0.23406 0.0
H273 H 0.6191 0.88842 0.05421 0.0
C274 C 0.63809 0.91338 0.07874 0.0
H275 H 0.6735 0.93205 0.14513 0.0
H276 H 0.66014 0.75861 0.08565 0.0
H277 H 0.70009 0.79289 0.01153 0.0
H278 H 0.71816 0.86214 0.99291 0.0
H279 H 0.69576 0.89723 0.04785 0.0
C280 C 0.65578 0.90769 0.11918 0.0
C281 C 0.64828 0.86733 0.13257 0.0
C282 C 0.66296 0.84782 0.10109 0.0
C283 C 0.65404 0.80852 0.11307 0.0
C284 C 0.66729 0.78898 0.07951 0.0
C285 C 0.69006 0.80824 0.0366 0.0
C286 C 0.70011 0.84716 0.02602 0.0
C287 C 0.68684 0.86688 0.05774 0.0
H288 H 0.93667 0.65969 0.29925 0.0
C289 C 0.93146 0.64463 0.33567 0.0
H290 H 0.88926 0.612 0.39306 0.0
H291 H 0.80837 0.70236 0.26305 0.0
H292 H 0.8641 0.7643 0.29365 0.0
H293 H 0.91808 0.76469 0.34407 0.0
H294 H 0.9171 0.70322 0.36305 0.0
C295 C 0.89515 0.62845 0.35763 0.0
C296 C 0.86091 0.62837 0.33158 0.0
C297 C 0.861 0.66443 0.32301 0.0
C298 C 0.82868 0.66397 0.29652 0.0
C299 C 0.83098 0.7007 0.28532 0.0
C300 C 0.86302 0.73655 0.30226 0.0
C301 C 0.89349 0.73679 0.33044 0.0
C302 C 0.89267 0.70127 0.34079 0.0
H303 H 0.74637 0.65077 0.32034 0.0
C304 C 0.73737 0.63804 0.28255 0.0
H305 H 0.75038 0.61256 0.2199 0.0
H306 H 0.85199 0.55411 0.3402 0.0
H307 H 0.79511 0.49193 0.31231 0.0
H308 H 0.73729 0.49071 0.27085 0.0
H309 H 0.73615 0.55166 0.25656 0.0
C310 C 0.7596 0.62592 0.25733 0.0
C311 C 0.79516 0.62721 0.28139 0.0
C312 C 0.79508 0.59117 0.29008 0.0
C313 C 0.82807 0.59179 0.31492 0.0
C314 C 0.82748 0.55539 0.32225 0.0
C315 C 0.79504 0.51944 0.30634 0.0
C316 C 0.76251 0.51875 0.28293 0.0
C317 C 0.76232 0.55405 0.27487 0.0
H318 H 0.10814 0.76628 0.45071 0.0
C319 C 0.11625 0.74489 0.43701 0.0
H320 H 0.16327 0.73388 0.42046 0.0
H321 H 0.30165 0.91048 0.39452 0.0
H322 H 0.29402 0.88577 0.30832 0.0
H323 H 0.23739 0.8199 0.28519 0.0
H324 H 0.18826 0.77818 0.34829 0.0
C325 C 0.15498 0.75489 0.43513 0.0
C326 C 0.18781 0.79544 0.44921 0.0
C327 C 0.21587 0.81984 0.41163 0.0
C328 C 0.24808 0.85817 0.42474 0.0
C329 C 0.27623 0.8814 0.38663 0.0
C330 C 0.27227 0.86755 0.33693 0.0
C331 C 0.24042 0.83045 0.32393 0.0
C332 C 0.21247 0.80675 0.36062 0.0
H333 H 0.3109 0.88675 0.54004 0.0
C334 C 0.31513 0.91363 0.52164 0.0
H335 H 0.29181 0.93792 0.46943 0.0
H336 H 0.14227 0.75481 0.53227 0.0
H337 H 0.1478 0.78091 0.61732 0.0
H338 H 0.19961 0.84982 0.63787 0.0
H339 H 0.24682 0.89263 0.57366 0.0
C340 C 0.28725 0.91143 0.48925 0.0
C341 C 0.25196 0.87228 0.47532 0.0
C342 C 0.22313 0.84843 0.51256 0.0
C343 C 0.19176 0.80951 0.49991 0.0
C344 C 0.16538 0.78527 0.53892 0.0
C345 C 0.16843 0.79978 0.58812 0.0
C346 C 0.1977 0.83851 0.59974 0.0
C347 C 0.2248 0.86267 0.56259 0.0
H348 H 0.35863 0.26379 0.67023 0.0
C349 C 0.38896 0.28452 0.6827 0.0
H350 H 0.44721 0.29409 0.69438 0.0
H351 H 0.40338 0.11569 0.70722 0.0
H352 H 0.41989 0.13615 0.795 0.0
H353 H 0.43029 0.20097 0.82408 0.0
H354 H 0.4246 0.24592 0.76534 0.0
C355 C 0.417 0.27378 0.68108 0.0
C356 C 0.40766 0.23355 0.66372 0.0
C357 C 0.41031 0.20726 0.69871 0.0
C358 C 0.40354 0.16955 0.68213 0.0
C359 C 0.40754 0.14441 0.71774 0.0
C360 C 0.4171 0.15581 0.76832 0.0
C361 C 0.42301 0.19232 0.78468 0.0
C362 C 0.41973 0.21787 0.75049 0.0
H363 H 0.43841 0.14716 0.56191 0.0
C364 C 0.41574 0.11941 0.57908 0.0
H365 H 0.36789 0.09233 0.63141 0.0
H366 H 0.40358 0.27801 0.58527 0.0
H367 H 0.38328 0.25606 0.49869 0.0
H368 H 0.36534 0.18828 0.47201 0.0
H369 H 0.36859 0.14241 0.53161 0.0
C370 C 0.38977 0.11977 0.61287 0.0
C371 C 0.39369 0.15799 0.6306 0.0
C372 C 0.38937 0.18361 0.59606 0.0
C373 C 0.39751 0.22189 0.61223 0.0
C374 C 0.39593 0.24794 0.57587 0.0
C375 C 0.38457 0.23583 0.52584 0.0
C376 C 0.37465 0.19773 0.51076 0.0
C377 C 0.37694 0.1718 0.54528 0.0
H378 H 0.14495 0.38863 0.89685 0.0
C379 C 0.12882 0.39161 0.86492 0.0
H380 H 0.12686 0.39683 0.78523 0.0
H381 H 0.31419 0.46743 0.76397 0.0
H382 H 0.30839 0.52533 0.74571 0.0
H383 H 0.24366 0.52295 0.75511 0.0
H384 H 0.18443 0.46269 0.78328 0.0
C385 C 0.14166 0.39204 0.81729 0.0
C386 C 0.17961 0.39191 0.80767 0.0
C387 C 0.2137 0.42703 0.78964 0.0
C388 C 0.25085 0.42815 0.78319 0.0
C389 C 0.28489 0.46435 0.76782 0.0
C390 C 0.28208 0.498 0.7576 0.0
C391 C 0.24566 0.49668 0.76297 0.0
C392 C 0.21184 0.4618 0.77906 0.0
H393 H 0.29453 0.40126 0.70754 0.0
C394 C 0.30899 0.39808 0.74116 0.0
H395 H 0.30595 0.3902 0.82079 0.0
H396 H 0.11917 0.31884 0.83846 0.0
H397 H 0.12472 0.26059 0.85619 0.0
H398 H 0.18914 0.26251 0.84534 0.0
H399 H 0.24835 0.32261 0.81651 0.0
C400 C 0.29227 0.39451 0.78715 0.0
C401 C 0.25353 0.39373 0.79346 0.0
C402 C 0.2193 0.35848 0.81095 0.0
C403 C 0.18223 0.35748 0.81775 0.0
C404 C 0.14828 0.32154 0.83383 0.0
C405 C 0.15098 0.28779 0.84383 0.0
C406 C 0.18723 0.28886 0.83767 0.0
C407 C 0.22104 0.32362 0.82124 0.0
H408 H 0.90327 0.31379 0.9195 0.0
C409 C 0.93073 0.31375 0.92837 0.0
H410 H 0.95601 0.2824 0.96262 0.0
H411 H 0.80801 0.17904 0.10607 0.0
H412 H 0.85928 0.22065 0.16686 0.0
H413 H 0.92475 0.27548 0.1379 0.0
H414 H 0.93947 0.28891 0.04805 0.0
C415 C 0.92871 0.28212 0.95188 0.0
C416 C 0.88954 0.24807 0.96887 0.0
C417 C 0.88137 0.24073 0.02162 0.0
C418 C 0.84341 0.20947 0.03838 0.0
C419 C 0.83618 0.20264 0.09126 0.0
C420 C 0.86536 0.22627 0.12658 0.0
C421 C 0.90223 0.25711 0.11028 0.0
C422 C 0.9103 0.26444 0.05851 0.0
H423 H 0.78212 0.10706 0.99306 0.0
C424 C 0.76223 0.11483 0.0128 0.0
H425 H 0.7546 0.16149 0.04087 0.0
H426 H 0.89707 0.25045 0.86506 0.0
H427 H 0.84498 0.21051 0.80437 0.0
H428 H 0.77744 0.15992 0.83344 0.0
H429 H 0.76186 0.14841 0.92329 0.0
C430 C 0.77384 0.15328 0.02038 0.0
C431 C 0.81361 0.18568 1.00243 0.0
C432 C 0.82168 0.1931 0.94964 0.0
C433 C 0.86001 0.22365 0.93285 0.0
C434 C 0.86797 0.22886 0.87995 0.0
C435 C 0.83842 0.20593 0.84466 0.0
C436 C 0.80045 0.17734 0.86102 0.0
C437 C 0.792 0.17087 0.91281 0.0
loop_
_geom_bond_atom_site_label_1
_geom_bond_atom_site_label_2
_geom_bond_distance
_geom_bond_site_symmetry_2
_ccdc_geom_bond_type
In0 O1 2.294 1_544 S
In0 O2 2.325 1_554 S
In0 O6 2.266 1_545 S
In0 O7 2.326 1_545 S
In0 O8 2.266 . S
In0 O9 2.326 1_545 S
In0 O11 2.294 . S
In0 O12 2.326 1_554 S
O1 In0 2.294 1_566 S
O1 C10 1.240 1_565 S
O2 In0 2.325 1_556 S
O2 C10 1.254 . S
C3 O6 1.252 . S
C3 O7 1.260 . S
C4 O11 1.240 . S
C4 O12 1.252 1_554 S
C5 O8 1.252 . S
C5 O9 1.260 1_545 S
O6 In0 2.266 1_565 S
O6 C3 1.252 . S
O7 In0 2.326 1_565 S
O7 C3 1.260 . S
O8 In0 2.266 . S
O8 C5 1.252 . S
O9 In0 2.326 1_565 S
O9 C5 1.260 1_565 S
C10 O1 1.240 1_545 S
C10 O2 1.254 . S
O11 In0 2.294 . S
O11 C4 1.240 . S
O12 In0 2.326 1_556 S
O12 C4 1.252 1_556 S
In13 O14 2.294 . S
In13 O15 2.326 . S
In13 O19 2.266 . S
In13 O20 2.326 . S
In13 O21 2.266 . S
In13 O22 2.326 . S
In13 O24 2.294 . S
In13 O25 2.326 . S
O14 In13 2.294 . S
O14 C23 1.240 . S
O15 In13 2.326 . S
O15 C23 1.252 . S
C16 O19 1.252 . S
C16 O20 1.260 . S
C17 O24 1.240 . S
C17 O25 1.252 . S
C18 O21 1.252 . S
C18 O22 1.260 . S
O19 In13 2.266 . S
O19 C16 1.252 . S
O20 In13 2.326 . S
O20 C16 1.260 . S
O21 In13 2.266 . S
O21 C18 1.252 . S
O22 In13 2.326 . S
O22 C18 1.260 . S
C23 O14 1.240 . S
C23 O15 1.252 . S
O24 In13 2.294 . S
O24 C17 1.240 . S
O25 In13 2.326 . S
O25 C17 1.252 . S
In26 O27 2.294 . S
In26 O28 2.326 1_455 S
In26 O32 2.266 . S
In26 O33 2.326 . S
In26 O34 2.266 1_455 S
In26 O35 2.326 . S
In26 O37 2.294 1_455 S
In26 O38 2.326 1_455 S
O27 In26 2.294 . S
O27 C36 1.240 . S
O28 In26 2.326 1_655 S
O28 C36 1.252 1_655 S
C29 O32 1.252 . S
C29 O33 1.260 . S
C30 O37 1.240 . S
C30 O38 1.252 . S
C31 O34 1.252 1_455 S
C31 O35 1.260 . S
O32 In26 2.266 . S
O32 C29 1.252 . S
O33 In26 2.326 . S
O33 C29 1.260 . S
O34 In26 2.266 1_655 S
O34 C31 1.252 1_655 S
O35 In26 2.326 . S
O35 C31 1.260 . S
C36 O27 1.240 . S
C36 O28 1.252 1_455 S
O37 In26 2.294 1_655 S
O37 C30 1.240 . S
O38 In26 2.326 1_655 S
O38 C30 1.252 . S
In39 O40 2.294 1_545 S
In39 O41 2.326 1_545 S
In39 O45 2.266 1_545 S
In39 O46 2.326 . S
In39 O47 2.266 . S
In39 O48 2.326 . S
In39 O50 2.294 . S
In39 O51 2.326 1_545 S
O40 In39 2.294 1_565 S
O40 C49 1.240 . S
O41 In39 2.326 1_565 S
O41 C49 1.252 . S
C42 O45 1.252 1_545 S
C42 O46 1.260 . S
C43 O50 1.240 . S
C43 O51 1.252 1_545 S
C44 O47 1.252 . S
C44 O48 1.260 . S
O45 In39 2.266 1_565 S
O45 C42 1.252 1_565 S
O46 In39 2.326 . S
O46 C42 1.260 . S
O47 In39 2.266 . S
O47 C44 1.252 . S
O48 In39 2.326 . S
O48 C44 1.260 . S
C49 O40 1.240 . S
C49 O41 1.252 . S
O50 In39 2.294 . S
O50 C43 1.240 . S
O51 In39 2.326 1_565 S
O51 C43 1.252 1_565 S
In52 O53 2.294 . S
In52 O54 2.326 . S
In52 O58 2.266 . S
In52 O59 2.326 . S
In52 O60 2.266 . S
In52 O61 2.326 . S
In52 O63 2.294 . S
In52 O64 2.326 . S
O53 In52 2.294 . S
O53 C62 1.240 . S
O54 In52 2.326 . S
O54 C62 1.252 . S
C55 O58 1.252 . S
C55 O59 1.260 . S
C56 O63 1.240 . S
C56 O64 1.252 . S
C57 O60 1.252 . S
C57 O61 1.260 . S
O58 In52 2.266 . S
O58 C55 1.252 . S
O59 In52 2.326 . S
O59 C55 1.260 . S
O60 In52 2.266 . S
O60 C57 1.252 . S
O61 In52 2.326 . S
O61 C57 1.260 . S
C62 O53 1.240 . S
C62 O54 1.252 . S
O63 In52 2.294 . S
O63 C56 1.240 . S
O64 In52 2.326 . S
O64 C56 1.252 . S
In65 O66 2.294 . S
In65 O67 2.326 . S
In65 O71 2.266 . S
In65 O72 2.326 1_455 S
In65 O73 2.266 1_455 S
In65 O74 2.326 1_455 S
In65 O76 2.294 1_455 S
In65 O77 2.326 . S
O66 In65 2.294 . S
O66 C75 1.240 . S
O67 In65 2.326 . S
O67 C75 1.252 . S
C68 O71 1.252 . S
C68 O72 1.260 1_455 S
C69 O76 1.240 1_455 S
C69 O77 1.252 . S
C70 O73 1.252 . S
C70 O74 1.260 . S
O71 In65 2.266 . S
O71 C68 1.252 . S
O72 In65 2.326 1_655 S
O72 C68 1.260 1_655 S
O73 In65 2.266 1_655 S
O73 C70 1.252 . S
O74 In65 2.326 1_655 S
O74 C70 1.260 . S
C75 O66 1.240 . S
C75 O67 1.252 . S
O76 In65 2.294 1_655 S
O76 C69 1.240 1_655 S
O77 In65 2.326 . S
O77 C69 1.252 . S
H78 C79 0.937 . S
C79 H78 0.937 . S
C79 C85 1.265 . S
H80 C85 0.950 . S
H81 C89 0.949 . S
H82 C90 0.950 . S
H83 C91 0.951 . S
H84 C92 0.951 . S
C85 C79 1.265 . S
C85 H80 0.950 . S
C85 C86 1.478 . S
C86 C85 1.478 . S
C86 C87 1.397 . S
C86 C103 1.394 1_545 S
C87 C86 1.397 . S
C87 C88 1.438 . S
C87 C92 1.429 . S
C88 C87 1.438 . S
C88 C89 1.428 . S
C88 C101 1.405 . S
C89 H81 0.949 . S
C89 C88 1.428 . S
C89 C90 1.345 . S
C90 H82 0.950 . S
C90 C89 1.345 . S
C90 C91 1.424 . S
C91 H83 0.951 . S
C91 C90 1.424 . S
C91 C92 1.347 . S
C92 H84 0.951 . S
C92 C87 1.429 . S
C92 C91 1.347 . S
H93 C94 0.951 . S
C94 H93 0.951 . S
C94 C100 1.265 1_545 S
H95 C100 0.948 . S
H96 C104 0.949 . S
H97 C105 0.950 . S
H98 C106 0.951 . S
H99 C107 0.951 . S
C100 C94 1.265 1_565 S
C100 H95 0.948 . S
C100 C101 1.490 1_565 S
C101 C88 1.405 . S
C101 C100 1.490 1_545 S
C101 C102 1.375 1_545 S
C102 C101 1.375 1_565 S
C102 C103 1.438 . S
C102 C107 1.429 . S
C103 C86 1.394 1_565 S
C103 C102 1.438 . S
C103 C104 1.428 . S
C104 H96 0.949 . S
C104 C103 1.428 . S
C104 C105 1.345 . S
C105 H97 0.950 . S
C105 C104 1.345 . S
C105 C106 1.424 . S
C106 H98 0.951 . S
C106 C105 1.424 . S
C106 C107 1.347 . S
C107 H99 0.951 . S
C107 C102 1.429 . S
C107 C106 1.347 . S
H108 C109 0.951 . S
C109 H108 0.951 . S
C109 C115 1.265 . S
H110 C115 0.950 . S
H111 C119 0.949 . S
H112 C120 0.950 . S
H113 C121 0.951 . S
H114 C122 0.951 . S
C115 C109 1.265 . S
C115 H110 0.950 . S
C115 C116 1.478 . S
C116 C115 1.478 . S
C116 C117 1.397 . S
C116 C133 1.394 . S
C117 C116 1.397 . S
C117 C118 1.438 . S
C117 C122 1.429 . S
C118 C117 1.438 . S
C118 C119 1.428 . S
C118 C131 1.394 . S
C119 H111 0.949 . S
C119 C118 1.428 . S
C119 C120 1.345 . S
C120 H112 0.950 . S
C120 C119 1.345 . S
C120 C121 1.424 . S
C121 H113 0.951 . S
C121 C120 1.424 . S
C121 C122 1.347 . S
C122 H114 0.951 . S
C122 C117 1.429 . S
C122 C121 1.347 . S
H123 C124 0.951 . S
C124 H123 0.951 . S
C124 C130 1.265 . S
H125 C130 0.950 . S
H126 C134 0.949 . S
H127 C135 0.950 . S
H128 C136 0.951 . S
H129 C137 0.951 . S
C130 C124 1.265 . S
C130 H125 0.950 . S
C130 C131 1.478 . S
C131 C118 1.394 . S
C131 C130 1.478 . S
C131 C132 1.397 . S
C132 C131 1.397 . S
C132 C133 1.438 . S
C132 C137 1.429 . S
C133 C116 1.394 . S
C133 C132 1.438 . S
C133 C134 1.428 . S
C134 H126 0.949 . S
C134 C133 1.428 . S
C134 C135 1.345 . S
C135 H127 0.950 . S
C135 C134 1.345 . S
C135 C136 1.424 . S
C136 H128 0.951 . S
C136 C135 1.424 . S
C136 C137 1.347 . S
C137 H129 0.951 . S
C137 C132 1.429 . S
C137 C136 1.347 . S
H138 C139 0.951 . S
C139 H138 0.951 . S
C139 C145 1.265 . S
H140 C145 0.950 1_655 S
H141 C149 0.949 . S
H142 C150 0.950 . S
H143 C151 0.951 . S
H144 C152 0.951 . S
C145 C139 1.265 . S
C145 H140 0.950 1_455 S
C145 C146 1.478 . S
C146 C145 1.478 . S
C146 C147 1.397 . S
C146 C163 1.394 . S
C147 C146 1.397 . S
C147 C148 1.438 . S
C147 C152 1.429 . S
C148 C147 1.438 . S
C148 C149 1.428 . S
C148 C161 1.394 . S
C149 H141 0.949 . S
C149 C148 1.428 . S
C149 C150 1.345 . S
C150 H142 0.950 . S
C150 C149 1.345 . S
C150 C151 1.424 . S
C151 H143 0.951 . S
C151 C150 1.424 . S
C151 C152 1.347 . S
C152 H144 0.951 . S
C152 C147 1.429 . S
C152 C151 1.347 . S
H153 C154 0.951 1_655 S
C154 H153 0.951 1_455 S
C154 C160 1.265 . S
H155 C160 0.950 . S
H156 C164 0.949 . S
H157 C165 0.950 . S
H158 C166 0.951 . S
H159 C167 0.951 . S
C160 C154 1.265 . S
C160 H155 0.950 . S
C160 C161 1.478 . S
C161 C148 1.394 . S
C161 C160 1.478 . S
C161 C162 1.397 . S
C162 C161 1.397 . S
C162 C163 1.438 . S
C162 C167 1.429 . S
C163 C146 1.394 . S
C163 C162 1.438 . S
C163 C164 1.428 . S
C164 H156 0.949 . S
C164 C163 1.428 . S
C164 C165 1.345 . S
C165 H157 0.950 . S
C165 C164 1.345 . S
C165 C166 1.424 . S
C166 H158 0.951 . S
C166 C165 1.424 . S
C166 C167 1.347 . S
C167 H159 0.951 . S
C167 C162 1.429 . S
C167 C166 1.347 . S
H168 C169 0.951 . S
C169 H168 0.951 . S
C169 C175 1.265 . S
H170 C175 0.950 . S
H171 C179 0.949 . S
H172 C180 0.950 . S
H173 C181 0.951 . S
H174 C182 0.951 . S
C175 C169 1.265 . S
C175 H170 0.950 . S
C175 C176 1.478 . S
C176 C175 1.478 . S
C176 C177 1.397 1_545 S
C176 C193 1.394 . S
C177 C176 1.397 1_565 S
C177 C178 1.438 . S
C177 C182 1.429 . S
C178 C177 1.438 . S
C178 C179 1.428 . S
C178 C191 1.394 1_565 S
C179 H171 0.949 . S
C179 C178 1.428 . S
C179 C180 1.345 . S
C180 H172 0.950 . S
C180 C179 1.345 . S
C180 C181 1.424 . S
C181 H173 0.951 . S
C181 C180 1.424 . S
C181 C182 1.347 . S
C182 H174 0.951 . S
C182 C177 1.429 . S
C182 C181 1.347 . S
H183 C184 0.951 . S
C184 H183 0.951 . S
C184 C190 1.265 . S
H185 C190 0.950 . S
H186 C194 0.949 . S
H187 C195 0.950 . S
H188 C196 0.951 . S
H189 C197 0.951 . S
C190 C184 1.265 . S
C190 H185 0.950 . S
C190 C191 1.478 . S
C191 C178 1.394 1_545 S
C191 C190 1.478 . S
C191 C192 1.397 . S
C192 C191 1.397 . S
C192 C193 1.438 . S
C192 C197 1.429 . S
C193 C176 1.394 . S
C193 C192 1.438 . S
C193 C194 1.428 . S
C194 H186 0.949 . S
C194 C193 1.428 . S
C194 C195 1.345 . S
C195 H187 0.950 . S
C195 C194 1.345 . S
C195 C196 1.424 . S
C196 H188 0.951 . S
C196 C195 1.424 . S
C196 C197 1.347 . S
C197 H189 0.951 . S
C197 C192 1.429 . S
C197 C196 1.347 . S
H198 C199 0.951 . S
C199 H198 0.951 . S
C199 C205 1.265 . S
H200 C205 0.950 . S
H201 C209 0.949 . S
H202 C210 0.950 . S
H203 C211 0.951 . S
H204 C212 0.951 1_554 S
C205 C199 1.265 . S
C205 H200 0.950 . S
C205 C206 1.478 . S
C206 C205 1.478 . S
C206 C207 1.397 1_554 S
C206 C223 1.394 1_554 S
C207 C206 1.397 1_556 S
C207 C208 1.438 . S
C207 C212 1.429 . S
C208 C207 1.438 . S
C208 C209 1.428 . S
C208 C221 1.394 . S
C209 H201 0.949 . S
C209 C208 1.428 . S
C209 C210 1.345 . S
C210 H202 0.950 . S
C210 C209 1.345 . S
C210 C211 1.424 . S
C211 H203 0.951 . S
C211 C210 1.424 . S
C211 C212 1.347 . S
C212 H204 0.951 1_556 S
C212 C207 1.429 . S
C212 C211 1.347 . S
H213 C214 0.951 . S
C214 H213 0.951 . S
C214 C220 1.265 . S
H215 C220 0.950 . S
H216 C224 0.949 . S
H217 C225 0.950 . S
H218 C226 0.951 . S
H219 C227 0.951 . S
C220 C214 1.265 . S
C220 H215 0.950 . S
C220 C221 1.478 . S
C221 C208 1.394 . S
C221 C220 1.478 . S
C221 C222 1.397 . S
C222 C221 1.397 . S
C222 C223 1.438 . S
C222 C227 1.429 . S
C223 C206 1.394 1_556 S
C223 C222 1.438 . S
C223 C224 1.428 1_556 S
C224 H216 0.949 . S
C224 C223 1.428 1_554 S
C224 C225 1.345 . S
C225 H217 0.950 . S
C225 C224 1.345 . S
C225 C226 1.424 1_554 S
C226 H218 0.951 . S
C226 C225 1.424 1_556 S
C226 C227 1.347 . S
C227 H219 0.951 . S
C227 C222 1.429 . S
C227 C226 1.347 . S
H228 C229 0.951 . S
C229 H228 0.951 . S
C229 C235 1.265 1_455 S
H230 C235 0.950 . S
H231 C239 0.949 . S
H232 C240 0.950 . S
H233 C241 0.951 . S
H234 C242 0.951 . S
C235 C229 1.265 1_655 S
C235 H230 0.950 . S
C235 C236 1.478 . S
C236 C235 1.478 . S
C236 C237 1.397 1_655 S
C236 C253 1.387 . S
C237 C236 1.397 1_455 S
C237 C238 1.438 . S
C237 C242 1.429 . S
C238 C237 1.438 . S
C238 C239 1.428 . S
C238 C251 1.394 . S
C239 H231 0.949 . S
C239 C238 1.428 . S
C239 C240 1.345 . S
C240 H232 0.950 . S
C240 C239 1.345 . S
C240 C241 1.424 . S
C241 H233 0.951 . S
C241 C240 1.424 . S
C241 C242 1.347 . S
C242 H234 0.951 . S
C242 C237 1.429 . S
C242 C241 1.347 . S
H243 C244 0.951 1_655 S
C244 H243 0.951 1_455 S
C244 C250 1.265 . S
H245 C250 0.950 . S
H246 C254 0.949 . S
H247 C255 0.950 1_556 S
H248 C256 0.958 1_455 S
H249 C257 0.951 . S
C250 C244 1.265 . S
C250 H245 0.950 . S
C250 C251 1.478 . S
C251 C238 1.394 . S
C251 C250 1.478 . S
C251 C252 1.397 . S
C252 C251 1.397 . S
C252 C253 1.441 1_455 S
C252 C257 1.429 . S
C253 C236 1.387 . S
C253 C252 1.441 1_655 S
C253 C254 1.433 . S
C254 H246 0.949 . S
C254 C253 1.433 . S
C254 C255 1.345 . S
C255 H247 0.950 1_554 S
C255 C254 1.345 . S
C255 C256 1.424 . S
C256 H248 0.958 1_655 S
C256 C255 1.424 . S
C256 C257 1.347 1_655 S
C257 H249 0.951 . S
C257 C252 1.429 . S
C257 C256 1.347 1_455 S
H258 C259 0.951 . S
C259 H258 0.951 . S
C259 C265 1.265 . S
H260 C265 0.950 . S
H261 C269 0.949 . S
H262 C270 0.950 . S
H263 C271 0.951 . S
H264 C272 0.951 . S
C265 C259 1.265 . S
C265 H260 0.950 . S
C265 C266 1.478 . S
C266 C265 1.478 . S
C266 C267 1.397 . S
C266 C283 1.394 . S
C267 C266 1.397 . S
C267 C268 1.438 . S
C267 C272 1.429 . S
C268 C267 1.438 . S
C268 C269 1.428 . S
C268 C281 1.394 . S
C269 H261 0.949 . S
C269 C268 1.428 . S
C269 C270 1.345 . S
C270 H262 0.950 . S
C270 C269 1.345 . S
C270 C271 1.424 . S
C271 H263 0.951 . S
C271 C270 1.424 . S
C271 C272 1.347 . S
C272 H264 0.951 . S
C272 C267 1.429 . S
C272 C271 1.347 . S
H273 C274 0.951 . S
C274 H273 0.951 . S
C274 C280 1.265 . S
H275 C280 0.950 . S
H276 C284 0.949 . S
H277 C285 0.950 . S
H278 C286 0.951 1_556 S
H279 C287 0.951 . S
C280 C274 1.265 . S
C280 H275 0.950 . S
C280 C281 1.478 . S
C281 C268 1.394 . S
C281 C280 1.478 . S
C281 C282 1.397 . S
C282 C281 1.397 . S
C282 C283 1.438 . S
C282 C287 1.429 . S
C283 C266 1.394 . S
C283 C282 1.438 . S
C283 C284 1.428 . S
C284 H276 0.949 . S
C284 C283 1.428 . S
C284 C285 1.345 . S
C285 H277 0.950 . S
C285 C284 1.345 . S
C285 C286 1.424 . S
C286 H278 0.951 1_554 S
C286 C285 1.424 . S
C286 C287 1.347 . S
C287 H279 0.951 . S
C287 C282 1.429 . S
C287 C286 1.347 . S
H288 C289 0.951 . S
C289 H288 0.951 . S
C289 C295 1.265 . S
H290 C295 0.950 . S
H291 C299 0.949 . S
H292 C300 0.950 . S
H293 C301 0.951 . S
H294 C302 0.951 . S
C295 C289 1.265 . S
C295 H290 0.950 . S
C295 C296 1.478 . S
C296 C295 1.478 . S
C296 C297 1.397 . S
C296 C313 1.394 . S
C297 C296 1.397 . S
C297 C298 1.438 . S
C297 C302 1.429 . S
C298 C297 1.438 . S
C298 C299 1.428 . S
C298 C311 1.394 . S
C299 H291 0.949 . S
C299 C298 1.428 . S
C299 C300 1.345 . S
C300 H292 0.950 . S
C300 C299 1.345 . S
C300 C301 1.424 . S
C301 H293 0.951 . S
C301 C300 1.424 . S
C301 C302 1.347 . S
C302 H294 0.951 . S
C302 C297 1.429 . S
C302 C301 1.347 . S
H303 C304 0.951 . S
C304 H303 0.951 . S
C304 C310 1.265 . S
H305 C310 0.950 . S
H306 C314 0.949 . S
H307 C315 0.950 . S
H308 C316 0.951 . S
H309 C317 0.951 . S
C310 C304 1.265 . S
C310 H305 0.950 . S
C310 C311 1.478 . S
C311 C298 1.394 . S
C311 C310 1.478 . S
C311 C312 1.397 . S
C312 C311 1.397 . S
C312 C313 1.438 . S
C312 C317 1.429 . S
C313 C296 1.394 . S
C313 C312 1.438 . S
C313 C314 1.428 . S
C314 H306 0.949 . S
C314 C313 1.428 . S
C314 C315 1.345 . S
C315 H307 0.950 . S
C315 C314 1.345 . S
C315 C316 1.424 . S
C316 H308 0.951 . S
C316 C315 1.424 . S
C316 C317 1.347 . S
C317 H309 0.951 . S
C317 C312 1.429 . S
C317 C316 1.347 . S
H318 C319 0.951 . S
C319 H318 0.951 . S
C319 C325 1.265 . S
H320 C325 0.950 . S
H321 C329 0.949 . S
H322 C330 0.950 . S
H323 C331 0.951 . S
H324 C332 0.951 . S
C325 C319 1.265 . S
C325 H320 0.950 . S
C325 C326 1.478 . S
C326 C325 1.478 . S
C326 C327 1.397 . S
C326 C343 1.394 . S
C327 C326 1.397 . S
C327 C328 1.438 . S
C327 C332 1.429 . S
C328 C327 1.438 . S
C328 C329 1.428 . S
C328 C341 1.394 . S
C329 H321 0.949 . S
C329 C328 1.428 . S
C329 C330 1.345 . S
C330 H322 0.950 . S
C330 C329 1.345 . S
C330 C331 1.424 . S
C331 H323 0.951 . S
C331 C330 1.424 . S
C331 C332 1.347 . S
C332 H324 0.951 . S
C332 C327 1.429 . S
C332 C331 1.347 . S
H333 C334 0.951 . S
C334 H333 0.951 . S
C334 C340 1.265 . S
H335 C340 0.950 . S
H336 C344 0.949 . S
H337 C345 0.950 . S
H338 C346 0.951 . S
H339 C347 0.951 . S
C340 C334 1.265 . S
C340 H335 0.950 . S
C340 C341 1.478 . S
C341 C328 1.394 . S
C341 C340 1.478 . S
C341 C342 1.397 . S
C342 C341 1.397 . S
C342 C343 1.438 . S
C342 C347 1.429 . S
C343 C326 1.394 . S
C343 C342 1.438 . S
C343 C344 1.428 . S
C344 H336 0.949 . S
C344 C343 1.428 . S
C344 C345 1.345 . S
C345 H337 0.950 . S
C345 C344 1.345 . S
C345 C346 1.424 . S
C346 H338 0.951 . S
C346 C345 1.424 . S
C346 C347 1.347 . S
C347 H339 0.951 . S
C347 C342 1.429 . S
C347 C346 1.347 . S
H348 C349 0.951 . S
C349 H348 0.951 . S
C349 C355 1.265 . S
H350 C355 0.950 . S
H351 C359 0.949 . S
H352 C360 0.950 . S
H353 C361 0.951 . S
H354 C362 0.951 . S
C355 C349 1.265 . S
C355 H350 0.950 . S
C355 C356 1.478 . S
C356 C355 1.478 . S
C356 C357 1.397 . S
C356 C373 1.394 . S
C357 C356 1.397 . S
C357 C358 1.438 . S
C357 C362 1.429 . S
C358 C357 1.438 . S
C358 C359 1.428 . S
C358 C371 1.394 . S
C359 H351 0.949 . S
C359 C358 1.428 . S
C359 C360 1.345 . S
C360 H352 0.950 . S
C360 C359 1.345 . S
C360 C361 1.424 . S
C361 H353 0.951 . S
C361 C360 1.424 . S
C361 C362 1.347 . S
C362 H354 0.951 . S
C362 C357 1.429 . S
C362 C361 1.347 . S
H363 C364 0.951 . S
C364 H363 0.951 . S
C364 C370 1.265 . S
H365 C370 0.950 . S
H366 C374 0.949 . S
H367 C375 0.950 . S
H368 C376 0.951 . S
H369 C377 0.951 . S
C370 C364 1.265 . S
C370 H365 0.950 . S
C370 C371 1.478 . S
C371 C358 1.394 . S
C371 C370 1.478 . S
C371 C372 1.397 . S
C372 C371 1.397 . S
C372 C373 1.438 . S
C372 C377 1.429 . S
C373 C356 1.394 . S
C373 C372 1.438 . S
C373 C374 1.428 . S
C374 H366 0.949 . S
C374 C373 1.428 . S
C374 C375 1.345 . S
C375 H367 0.950 . S
C375 C374 1.345 . S
C375 C376 1.424 . S
C376 H368 0.951 . S
C376 C375 1.424 . S
C376 C377 1.347 . S
C377 H369 0.951 . S
C377 C372 1.429 . S
C377 C376 1.347 . S
H378 C379 0.951 . S
C379 H378 0.951 . S
C379 C385 1.265 . S
H380 C385 0.950 . S
H381 C389 0.949 . S
H382 C390 0.950 . S
H383 C391 0.951 . S
H384 C392 0.951 . S
C385 C379 1.265 . S
C385 H380 0.950 . S
C385 C386 1.478 . S
C386 C385 1.478 . S
C386 C387 1.397 . S
C386 C403 1.394 . S
C387 C386 1.397 . S
C387 C388 1.438 . S
C387 C392 1.429 . S
C388 C387 1.438 . S
C388 C389 1.428 . S
C388 C401 1.394 . S
C389 H381 0.949 . S
C389 C388 1.428 . S
C389 C390 1.345 . S
C390 H382 0.950 . S
C390 C389 1.345 . S
C390 C391 1.424 . S
C391 H383 0.951 . S
C391 C390 1.424 . S
C391 C392 1.347 . S
C392 H384 0.951 . S
C392 C387 1.429 . S
C392 C391 1.347 . S
H393 C394 0.951 . S
C394 H393 0.951 . S
C394 C400 1.265 . S
H395 C400 0.950 . S
H396 C404 0.949 . S
H397 C405 0.950 . S
H398 C406 0.951 . S
H399 C407 0.951 . S
C400 C394 1.265 . S
C400 H395 0.950 . S
C400 C401 1.478 . S
C401 C388 1.394 . S
C401 C400 1.478 . S
C401 C402 1.397 . S
C402 C401 1.397 . S
C402 C403 1.438 . S
C402 C407 1.429 . S
C403 C386 1.394 . S
C403 C402 1.438 . S
C403 C404 1.428 . S
C404 H396 0.949 . S
C404 C403 1.428 . S
C404 C405 1.345 . S
C405 H397 0.950 . S
C405 C404 1.345 . S
C405 C406 1.424 . S
C406 H398 0.951 . S
C406 C405 1.424 . S
C406 C407 1.347 . S
C407 H399 0.951 . S
C407 C402 1.429 . S
C407 C406 1.347 . S
H408 C409 0.951 . S
C409 H408 0.951 . S
C409 C415 1.265 . S
H410 C415 0.950 . S
H411 C419 0.949 . S
H412 C420 0.950 . S
H413 C421 0.951 . S
H414 C422 0.951 . S
C415 C409 1.265 . S
C415 H410 0.950 . S
C415 C416 1.478 . S
C416 C415 1.478 . S
C416 C417 1.397 1_556 S
C416 C433 1.394 . S
C417 C416 1.397 1_554 S
C417 C418 1.438 . S
C417 C422 1.429 . S
C418 C417 1.438 . S
C418 C419 1.428 . S
C418 C431 1.394 1_554 S
C419 H411 0.949 . S
C419 C418 1.428 . S
C419 C420 1.345 . S
C420 H412 0.950 . S
C420 C419 1.345 . S
C420 C421 1.424 . S
C421 H413 0.951 . S
C421 C420 1.424 . S
C421 C422 1.347 . S
C422 H414 0.951 . S
C422 C417 1.429 . S
C422 C421 1.347 . S
H423 C424 0.951 1_554 S
C424 H423 0.951 1_556 S
C424 C430 1.265 . S
H425 C430 0.950 . S
H426 C434 0.949 . S
H427 C435 0.950 . S
H428 C436 0.951 . S
H429 C437 0.951 . S
C430 C424 1.265 . S
C430 H425 0.950 . S
C430 C431 1.478 . S
C431 C418 1.394 1_556 S
C431 C430 1.478 . S
C431 C432 1.397 . S
C432 C431 1.397 . S
C432 C433 1.438 . S
C432 C437 1.429 . S
C433 C416 1.394 . S
C433 C432 1.438 . S
C433 C434 1.428 . S
C434 H426 0.949 . S
C434 C433 1.428 . S
C434 C435 1.345 . S
C435 H427 0.950 . S
C435 C434 1.345 . S
C435 C436 1.424 . S
C436 H428 0.951 . S
C436 C435 1.424 . S
C436 C437 1.347 . S
C437 H429 0.951 . S
C437 C432 1.429 . S
C437 C436 1.347 . S
C79 C5 1.773 . S
C94 C43 1.775 . S
C109 C18 1.766 . S
C124 C56 1.777 . S
C139 C69 1.774 . S
C154 C31 1.766 . S
C169 C10 1.775 . S
C184 C42 1.773 . S
C199 C23 1.763 . S
C214 C55 1.773 . S
C229 C68 1.767 1_554 S
C244 C36 1.778 . S
C259 C17 1.428 . S
C274 C3 1.400 . S
C289 C30 1.422 . S
C304 C16 1.427 . S
C319 C29 1.430 . S
C334 C49 1.398 . S
C349 C62 1.433 . S
C364 C44 1.408 . S
C379 C75 1.400 . S
C394 C57 1.406 . S
C409 C70 1.400 . S
C424 C4 1.428 1_556 S
