# Generated by pormake.
# Topology wmi, (6)-cn, num edge types: 1
# Building blocks:
#     Node 0, Type 0, BuildingBlock: UKALOJ_clean_sbu_0, # of connection points: 6
#     Node 1, Type 0, BuildingBlock: UKALOJ_clean_sbu_0, # of connection points: 6
#     Node 2, Type 0, BuildingBlock: UKALOJ_clean_sbu_0, # of connection points: 6
#     Node 3, Type 0, BuildingBlock: UKALOJ_clean_sbu_0, # of connection points: 6
#     Node 4, Type 0, BuildingBlock: UKALOJ_clean_sbu_0, # of connection points: 6
#     Node 5, Type 0, BuildingBlock: UKALOJ_clean_sbu_0, # of connection points: 6
#     Node 6, Type 0, BuildingBlock: UKALOJ_clean_sbu_0, # of connection points: 6
#     Node 7, Type 0, BuildingBlock: UKALOJ_clean_sbu_0, # of connection points: 6
#     Node 8, Type 0, BuildingBlock: UKALOJ_clean_sbu_0, # of connection points: 6
#     Node 9, Type 0, BuildingBlock: UKALOJ_clean_sbu_0, # of connection points: 6
#     Node 10, Type 0, BuildingBlock: UKALOJ_clean_sbu_0, # of connection points: 6
#     Node 11, Type 0, BuildingBlock: UKALOJ_clean_sbu_0, # of connection points: 6
#     Node 12, Type 0, BuildingBlock: UKALOJ_clean_sbu_0, # of connection points: 6
#     Node 13, Type 0, BuildingBlock: UKALOJ_clean_sbu_0, # of connection points: 6
#     Node 14, Type 0, BuildingBlock: UKALOJ_clean_sbu_0, # of connection points: 6
#     Node 15, Type 0, BuildingBlock: UKALOJ_clean_sbu_0, # of connection points: 6
#     Node 16, Type 0, BuildingBlock: UKALOJ_clean_sbu_0, # of connection points: 6
#     Node 17, Type 0, BuildingBlock: UKALOJ_clean_sbu_0, # of connection points: 6
#     Edge 18, Type (0, 0), BuildingBlock: AJUNOK_clean_linker_0, # of connection points: 2
#     Edge 19, Type (0, 0), BuildingBlock: AJUNOK_clean_linker_0, # of connection points: 2
#     Edge 20, Type (0, 0), BuildingBlock: AJUNOK_clean_linker_0, # of connection points: 2
#     Edge 21, Type (0, 0), BuildingBlock: AJUNOK_clean_linker_0, # of connection points: 2
#     Edge 22, Type (0, 0), BuildingBlock: AJUNOK_clean_linker_0, # of connection points: 2
#     Edge 23, Type (0, 0), BuildingBlock: AJUNOK_clean_linker_0, # of connection points: 2
#     Edge 24, Type (0, 0), BuildingBlock: AJUNOK_clean_linker_0, # of connection points: 2
#     Edge 25, Type (0, 0), BuildingBlock: AJUNOK_clean_linker_0, # of connection points: 2
#     Edge 26, Type (0, 0), BuildingBlock: AJUNOK_clean_linker_0, # of connection points: 2
#     Edge 27, Type (0, 0), BuildingBlock: AJUNOK_clean_linker_0, # of connection points: 2
#     Edge 28, Type (0, 0), BuildingBlock: AJUNOK_clean_linker_0, # of connection points: 2
#     Edge 29, Type (0, 0), BuildingBlock: AJUNOK_clean_linker_0, # of connection points: 2
#     Edge 30, Type (0, 0), BuildingBlock: AJUNOK_clean_linker_0, # of connection points: 2
#     Edge 31, Type (0, 0), BuildingBlock: AJUNOK_clean_linker_0, # of connection points: 2
#     Edge 32, Type (0, 0), BuildingBlock: AJUNOK_clean_linker_0, # of connection points: 2
#     Edge 33, Type (0, 0), BuildingBlock: AJUNOK_clean_linker_0, # of connection points: 2
#     Edge 34, Type (0, 0), BuildingBlock: AJUNOK_clean_linker_0, # of connection points: 2
#     Edge 35, Type (0, 0), BuildingBlock: AJUNOK_clean_linker_0, # of connection points: 2
#     Edge 36, Type (0, 0), BuildingBlock: AJUNOK_clean_linker_0, # of connection points: 2
#     Edge 37, Type (0, 0), BuildingBlock: AJUNOK_clean_linker_0, # of connection points: 2
#     Edge 38, Type (0, 0), BuildingBlock: AJUNOK_clean_linker_0, # of connection points: 2
#     Edge 39, Type (0, 0), BuildingBlock: AJUNOK_clean_linker_0, # of connection points: 2
#     Edge 40, Type (0, 0), BuildingBlock: AJUNOK_clean_linker_0, # of connection points: 2
#     Edge 41, Type (0, 0), BuildingBlock: AJUNOK_clean_linker_0, # of connection points: 2
#     Edge 42, Type (0, 0), BuildingBlock: AJUNOK_clean_linker_0, # of connection points: 2
#     Edge 43, Type (0, 0), BuildingBlock: AJUNOK_clean_linker_0, # of connection points: 2
#     Edge 44, Type (0, 0), BuildingBlock: AJUNOK_clean_linker_0, # of connection points: 2
#     Edge 45, Type (0, 0), BuildingBlock: AJUNOK_clean_linker_0, # of connection points: 2
#     Edge 46, Type (0, 0), BuildingBlock: AJUNOK_clean_linker_0, # of connection points: 2
#     Edge 47, Type (0, 0), BuildingBlock: AJUNOK_clean_linker_0, # of connection points: 2
#     Edge 48, Type (0, 0), BuildingBlock: AJUNOK_clean_linker_0, # of connection points: 2
#     Edge 49, Type (0, 0), BuildingBlock: AJUNOK_clean_linker_0, # of connection points: 2
#     Edge 50, Type (0, 0), BuildingBlock: AJUNOK_clean_linker_0, # of connection points: 2
#     Edge 51, Type (0, 0), BuildingBlock: AJUNOK_clean_linker_0, # of connection points: 2
#     Edge 52, Type (0, 0), BuildingBlock: AJUNOK_clean_linker_0, # of connection points: 2
#     Edge 53, Type (0, 0), BuildingBlock: AJUNOK_clean_linker_0, # of connection points: 2
#     Edge 54, Type (0, 0), BuildingBlock: AJUNOK_clean_linker_0, # of connection points: 2
#     Edge 55, Type (0, 0), BuildingBlock: AJUNOK_clean_linker_0, # of connection points: 2
#     Edge 56, Type (0, 0), BuildingBlock: AJUNOK_clean_linker_0, # of connection points: 2
#     Edge 57, Type (0, 0), BuildingBlock: AJUNOK_clean_linker_0, # of connection points: 2
#     Edge 58, Type (0, 0), BuildingBlock: AJUNOK_clean_linker_0, # of connection points: 2
#     Edge 59, Type (0, 0), BuildingBlock: AJUNOK_clean_linker_0, # of connection points: 2
#     Edge 60, Type (0, 0), BuildingBlock: AJUNOK_clean_linker_0, # of connection points: 2
#     Edge 61, Type (0, 0), BuildingBlock: AJUNOK_clean_linker_0, # of connection points: 2
#     Edge 62, Type (0, 0), BuildingBlock: AJUNOK_clean_linker_0, # of connection points: 2
#     Edge 63, Type (0, 0), BuildingBlock: AJUNOK_clean_linker_0, # of connection points: 2
#     Edge 64, Type (0, 0), BuildingBlock: AJUNOK_clean_linker_0, # of connection points: 2
#     Edge 65, Type (0, 0), BuildingBlock: AJUNOK_clean_linker_0, # of connection points: 2
#     Edge 66, Type (0, 0), BuildingBlock: AJUNOK_clean_linker_0, # of connection points: 2
#     Edge 67, Type (0, 0), BuildingBlock: AJUNOK_clean_linker_0, # of connection points: 2
#     Edge 68, Type (0, 0), BuildingBlock: AJUNOK_clean_linker_0, # of connection points: 2
#     Edge 69, Type (0, 0), BuildingBlock: AJUNOK_clean_linker_0, # of connection points: 2
#     Edge 70, Type (0, 0), BuildingBlock: AJUNOK_clean_linker_0, # of connection points: 2
#     Edge 71, Type (0, 0), BuildingBlock: AJUNOK_clean_linker_0, # of connection points: 2
# Relax obj value: 0.093
# Max RMSD: 0.174
# Mean RMSD: 0.174
data_MOF--net-wmi--node1-UKALOJ_clean_sbu_0--edge1-AJUNOK_clean_linker_0
_symmetry_space_group_name_H-M    P1
_symmetry_Int_Tables_number       1
_symmetry_cell_setting            triclinic
loop_
_symmetry_equiv_pos_as_xyz
'x, y, z'
_cell_length_a     21.458771
_cell_length_b     21.508312
_cell_length_c     95.098665
_cell_angle_alpha  90.026804
_cell_angle_beta   89.894674
_cell_angle_gamma 119.89065
loop_
_atom_site_label
_atom_site_type_symbol
_atom_site_fract_x
_atom_site_fract_y
_atom_site_fract_z
_atom_type_partial_charge
Zn0 Zn 0.44084 0.01141 0.1033 0.0
O1 O 0.54979 0.08731 0.10187 0.0
C2 C 0.41258 0.11918 0.11559 0.0
Zn3 Zn 0.44732 0.01171 0.12686 0.0
C4 C 0.58723 0.11058 0.11299 0.0
O5 O 0.55716 0.08973 0.12497 0.0
C6 C 0.30345 0.90708 0.1167 0.0
O7 O 0.47748 0.93313 0.1263 0.0
O8 O 0.46764 0.93153 0.10324 0.0
N9 N 0.4516 0.01853 0.14861 0.0
C10 C 0.4116 0.97035 0.15861 0.0
C11 C 0.46388 0.07289 0.16841 0.0
N12 N 0.48455 0.08214 0.1548 0.0
N13 N 0.41777 0.00316 0.17106 0.0
C14 C 0.46542 0.00516 0.07042 0.0
C15 C 0.37141 0.00373 0.06277 0.0
N16 N 0.42823 0.00723 0.08174 0.0
N17 N 0.36995 0.00622 0.07688 0.0
N18 N 0.43083 0.00327 0.05836 0.0
H19 H 0.53516 0.97523 0.08113 0.0
H20 H 0.53738 0.9713 0.06212 0.0
H21 H 0.5799 0.05589 0.07123 0.0
C22 C 0.53296 0.00101 0.07126 0.0
C23 C 0.36867 0.89095 0.15645 0.0
H24 H 0.38228 0.87489 0.14635 0.0
H25 H 0.379 0.86339 0.16524 0.0
H26 H 0.31077 0.87336 0.15672 0.0
O27 O 0.33842 0.93219 0.128 0.0
O28 O 0.33321 0.93398 0.10502 0.0
C29 C 0.48324 0.90964 0.11436 0.0
O30 O 0.41609 0.0929 0.10389 0.0
O31 O 0.42045 0.0925 0.12687 0.0
Zn32 Zn -0.00101 0.46843 0.10331 0.0
O33 O 0.92489 0.50366 0.10195 0.0
C34 C 0.88642 0.32816 0.11177 0.0
Zn35 Zn -0.01046 0.46495 0.12689 0.0
C36 C 0.89642 0.51213 0.11298 0.0
O37 O 0.91135 0.49643 0.12497 0.0
C38 C 0.09801 0.42922 0.11701 0.0
O39 O 0.0662 0.57328 0.12951 0.0
O40 O 0.07803 0.57429 0.10654 0.0
N41 N 0.973 0.44741 0.14839 0.0
C42 C 0.01913 0.45486 0.1588 0.0
C43 C 0.9134 0.39051 0.16695 0.0
N44 N 0.90731 0.40774 0.15357 0.0
N45 N -0.01688 0.41907 0.17046 0.0
C46 C -0.01627 0.46288 0.07 0.0
C47 C 0.0943 0.52243 0.06416 0.0
N48 N 0.02227 0.48334 0.08203 0.0
N49 N 0.09085 0.52039 0.0783 0.0
N50 N 0.02785 0.48636 0.05865 0.0
H51 H 0.88022 0.43006 0.07938 0.0
H52 H 0.88481 0.44342 0.06046 0.0
H53 H 0.88348 0.36601 0.06782 0.0
C54 C 0.90336 0.42382 0.06943 0.0
C55 C 0.09932 0.49961 0.15794 0.0
H56 H 0.11739 0.52884 0.14786 0.0
H57 H 0.11879 0.53885 0.16672 0.0
H58 H 0.12381 0.46537 0.1594 0.0
O59 O 0.06947 0.43644 0.12811 0.0
O60 O 0.07525 0.43603 0.10514 0.0
C61 C 0.09454 0.60726 0.11821 0.0
O62 O 0.91655 0.36246 0.10058 0.0
O63 O 0.91002 0.35777 0.12364 0.0
Zn64 Zn 0.54142 0.56277 0.12584 0.0
O65 O 0.43274 0.53091 0.12863 0.0
C66 C 0.57101 0.69807 0.11295 0.0
Zn67 Zn 0.53518 0.55495 0.10229 0.0
C68 C 0.3965 0.51489 0.11733 0.0
O69 O 0.42809 0.52455 0.1056 0.0
C70 C 0.67793 0.59224 0.11083 0.0
O71 O 0.50479 0.44745 0.103 0.0
O72 O 0.51153 0.45408 0.1261 0.0
N73 N 0.51541 0.55144 0.08097 0.0
C74 C 0.53903 0.53438 0.06922 0.0
C75 C 0.46427 0.56662 0.06276 0.0
N76 N 0.46899 0.57135 0.07686 0.0
N77 N 0.50767 0.54352 0.05764 0.0
C78 C 0.55597 0.6136 0.15727 0.0
C79 C 0.60542 0.55947 0.16677 0.0
N80 N 0.56023 0.57098 0.14731 0.0
N81 N 0.59063 0.53714 0.15331 0.0
N82 N 0.58477 0.608 0.16951 0.0
H83 H 0.47828 0.63396 0.14706 0.0
H84 H 0.49673 0.66257 0.16526 0.0
H85 H 0.56122 0.71231 0.15182 0.0
C86 C 0.52052 0.65779 0.15523 0.0
C87 C 0.58997 0.50593 0.06917 0.0
H88 H 0.58959 0.48172 0.07949 0.0
H89 H 0.57566 0.46556 0.0607 0.0
H90 H 0.64496 0.55075 0.06707 0.0
O91 O 0.64239 0.58215 0.09955 0.0
O92 O 0.64878 0.59045 0.12259 0.0
C93 C 0.49652 0.41721 0.11488 0.0
O94 O 0.56819 0.67035 0.12488 0.0
O95 O 0.56278 0.66175 0.10193 0.0
Zn96 Zn 0.00552 0.46093 0.93102 0.0
O97 O 0.92952 0.49372 0.92884 0.0
C98 C 0.89691 0.31976 0.94104 0.0
Zn99 Zn -0.00074 0.45848 0.95465 0.0
C100 C 0.90539 0.50479 0.94021 0.0
O101 O 0.92337 0.49033 0.95192 0.0
C102 C 0.10712 0.42423 0.94571 0.0
O103 O 0.07694 0.56653 0.95602 0.0
O104 O 0.08399 0.56968 0.93285 0.0
N105 N -0.02262 0.44977 0.97594 0.0
C106 C 0.01591 0.47435 0.98791 0.0
C107 C 0.9063 0.40761 0.99387 0.0
N108 N 0.90937 0.40869 0.97974 0.0
N109 N 0.9724 0.44827 0.99932 0.0
C110 C 0.97277 0.42332 0.89905 0.0
C111 C 0.07759 0.46491 0.89039 0.0
N112 N 0.02001 0.46047 0.90941 0.0
N113 N 0.08514 0.48666 0.90391 0.0
N114 N 0.00749 0.42485 0.88709 0.0
H115 H 0.87544 0.39728 0.91064 0.0
H116 H 0.87173 0.40774 0.89189 0.0
H117 H 0.8686 0.32904 0.89857 0.0
C118 C 0.89263 0.3874 0.90032 0.0
C119 C 0.09588 0.52135 0.98835 0.0
H120 H 0.10911 0.57787 0.9897 0.0
H121 H 0.11855 0.50665 0.9974 0.0
H122 H 0.12077 0.51738 0.97842 0.0
O123 O 0.07833 0.42977 0.95698 0.0
O124 O 0.08428 0.43199 0.93389 0.0
C125 C 0.10235 0.60164 0.94468 0.0
O126 O 0.92579 0.35346 0.9298 0.0
O127 O 0.91968 0.35103 0.95276 0.0
Zn128 Zn 0.54492 0.54799 0.93038 0.0
O129 O 0.514 0.43972 0.92814 0.0
C130 C 0.68817 0.5842 0.94031 0.0
Zn131 Zn 0.54927 0.54634 0.95397 0.0
C132 C 0.5061 0.4064 0.93962 0.0
O133 O 0.52059 0.43997 0.95122 0.0
C134 C 0.57983 0.68604 0.94496 0.0
O135 O 0.44008 0.51342 0.95545 0.0
O136 O 0.43561 0.51612 0.93231 0.0
N137 N 0.55784 0.53387 0.97526 0.0
C138 C 0.52927 0.54485 0.98702 0.0
C139 C 0.59937 0.50676 0.9935 0.0
N140 N 0.60118 0.51009 0.97937 0.0
N141 N 0.55432 0.52781 0.99862 0.0
C142 C 0.58365 0.55778 0.89844 0.0
C143 C 0.53486 0.61503 0.89013 0.0
N144 N 0.54391 0.56328 0.90889 0.0
N145 N 0.51318 0.59843 0.90362 0.0
N146 N 0.57958 0.59046 0.88664 0.0
H147 H 0.61051 0.48531 0.90911 0.0
H148 H 0.61263 0.48326 0.89011 0.0
H149 H 0.68271 0.5573 0.89926 0.0
C150 C 0.62444 0.51831 0.89946 0.0
C151 C 0.48003 0.57546 0.98705 0.0
H152 H 0.49132 0.61154 0.97793 0.0
H153 H 0.42374 0.53107 0.98609 0.0
H154 H 0.48542 0.60501 0.99696 0.0
O155 O 0.57549 0.65267 0.95626 0.0
O156 O 0.57229 0.65498 0.93321 0.0
C157 C 0.40411 0.50255 0.9442 0.0
O158 O 0.65342 0.57724 0.9291 0.0
O159 O 0.65743 0.57667 0.95208 0.0
Zn160 Zn 0.45999 0.00688 0.95453 0.0
O161 O 0.4934 0.93212 0.95535 0.0
C162 C 0.31968 0.89858 0.94593 0.0
Zn163 Zn 0.45742 0.00227 0.93093 0.0
C164 C 0.5026 0.90584 0.94412 0.0
O165 O 0.48818 0.92337 0.93226 0.0
C166 C 0.42244 0.10897 0.94175 0.0
O167 O 0.56631 0.07845 0.92847 0.0
O168 O 0.56647 0.08461 0.9515 0.0
N169 N 0.44073 -0.01155 0.90936 0.0
C170 C 0.44883 0.0352 0.89903 0.0
C171 C 0.39026 0.93042 0.89031 0.0
N172 N 0.40461 0.9234 0.90384 0.0
N173 N 0.41702 0.00013 0.88701 0.0
C174 C 0.4569 -0.01199 0.9877 0.0
C175 C 0.51938 0.09782 0.99359 0.0
N176 N 0.47597 0.02722 0.97574 0.0
N177 N 0.51475 0.0953 0.97951 0.0
N178 N 0.48397 0.03129 0.99911 0.0
H179 H 0.42002 0.88485 0.97801 0.0
H180 H 0.4305 0.88632 0.99695 0.0
H181 H 0.35617 0.89086 0.98921 0.0
C182 C 0.41389 0.90779 0.988 0.0
C183 C 0.4907 0.11516 0.90045 0.0
H184 H 0.5275 0.13192 0.90956 0.0
H185 H 0.52192 0.1394 0.89069 0.0
H186 H 0.45327 0.13587 0.90185 0.0
O187 O 0.42955 0.08279 0.93032 0.0
O188 O 0.42897 0.08377 0.95335 0.0
C189 C 0.60017 0.1031 0.93992 0.0
O190 O 0.35402 0.92635 0.95722 0.0
O191 O 0.34976 0.92315 0.93411 0.0
Zn192 Zn 0.13506 0.35706 0.45971 0.0
O193 O 0.16778 0.28135 0.46173 0.0
C194 C -0.00606 0.25088 0.44878 0.0
Zn195 Zn 0.13428 0.35293 0.43608 0.0
C196 C 0.17802 0.2568 0.45036 0.0
O197 O 0.16341 0.27491 0.43869 0.0
C198 C 0.10196 0.46179 0.44536 0.0
O199 O 0.24288 0.42824 0.43544 0.0
O200 O 0.24432 0.43581 0.45857 0.0
N201 N 0.12939 0.33392 0.41468 0.0
C202 C 0.14751 0.37381 0.40282 0.0
C203 C 0.10151 0.26451 0.39653 0.0
N204 N 0.10098 0.26617 0.41067 0.0
N205 N 0.13005 0.33127 0.39128 0.0
C206 C 0.09304 0.31825 0.4914 0.0
C207 C 0.13575 0.4211 0.50088 0.0
N208 N 0.13119 0.36739 0.48137 0.0
N209 N 0.15795 0.43124 0.48736 0.0
N210 N 0.0945 0.35057 0.50369 0.0
H211 H 0.07298 0.22391 0.47949 0.0
H212 H 0.07213 0.21498 0.4984 0.0
H213 H -0.00145 0.21486 0.48975 0.0
C214 C 0.05753 0.2386 0.4895 0.0
C215 C 0.18562 0.45403 0.40266 0.0
H216 H 0.21842 0.47624 0.41228 0.0
H217 H 0.22018 0.47535 0.39318 0.0
H218 H 0.14526 0.47176 0.40243 0.0
O219 O 0.10874 0.43456 0.43398 0.0
O220 O 0.10654 0.43601 0.45709 0.0
C221 C 0.27732 0.45388 0.44681 0.0
O222 O 0.0272 0.27725 0.46018 0.0
O223 O 0.0261 0.27557 0.43719 0.0
Zn224 Zn 0.68398 0.81213 0.43703 0.0
O225 O 0.60873 0.8457 0.43528 0.0
C226 C 0.57454 0.67371 0.44647 0.0
Zn227 Zn 0.67778 0.81382 0.46054 0.0
C228 C 0.58242 0.85708 0.4463 0.0
O229 O 0.59973 0.8447 0.45835 0.0
C230 C 0.78508 0.77644 0.45108 0.0
O231 O 0.75443 0.92261 0.46234 0.0
O232 O 0.76157 0.91858 0.43937 0.0
N233 N 0.66223 0.80149 0.48206 0.0
C234 C 0.70863 0.81436 0.49274 0.0
C235 C 0.6031 0.74983 0.50099 0.0
N236 N 0.59667 0.76182 0.48729 0.0
N237 N 0.67287 0.7822 0.50468 0.0
C238 C 0.66534 0.80135 0.40397 0.0
C239 C 0.77505 0.86339 0.39764 0.0
N240 N 0.70526 0.82354 0.4158 0.0
N241 N 0.77329 0.86198 0.41178 0.0
N242 N 0.70809 0.82539 0.39244 0.0
H243 H 0.56227 0.7679 0.41362 0.0
H244 H 0.56386 0.77538 0.39459 0.0
H245 H 0.56674 0.70189 0.40294 0.0
C246 C 0.58487 0.75978 0.40378 0.0
C247 C 0.78854 0.86221 0.49186 0.0
H248 H 0.80748 0.87688 0.48091 0.0
H249 H 0.80348 0.91214 0.49779 0.0
H250 H 0.8164 0.83671 0.497 0.0
O251 O 0.75745 0.78527 0.46214 0.0
O252 O 0.76125 0.78142 0.43919 0.0
C253 C 0.77963 0.95429 0.45069 0.0
O254 O 0.60332 0.70577 0.43503 0.0
O255 O 0.59842 0.70609 0.4581 0.0
Zn256 Zn 0.22183 0.90361 0.43697 0.0
O257 O 0.18955 0.79545 0.43562 0.0
C258 C 0.36372 0.93584 0.44515 0.0
Zn259 Zn 0.22727 0.90069 0.46057 0.0
C260 C 0.18123 0.75965 0.44679 0.0
O261 O 0.19627 0.79116 0.4587 0.0
C262 C 0.26067 0.04247 0.45041 0.0
O263 O 0.11892 0.86884 0.4634 0.0
O264 O 0.11505 0.87401 0.44036 0.0
N265 N 0.24539 0.90186 0.48211 0.0
C266 C 0.23911 0.94103 0.49258 0.0
C267 C 0.3004 0.89623 0.50071 0.0
N268 N 0.2831 0.87363 0.48729 0.0
N269 N 0.27355 0.93885 0.50427 0.0
C270 C 0.2206 0.88679 0.40374 0.0
C271 C 0.17631 0.95238 0.39786 0.0
N272 N 0.20663 0.91132 0.41574 0.0
N273 N 0.17884 0.95172 0.41199 0.0
N274 N 0.20223 0.9121 0.39238 0.0
H275 H 0.27689 0.83841 0.41355 0.0
H276 H 0.21529 0.78648 0.3998 0.0
H277 H 0.2994 0.86355 0.39523 0.0
C278 C 0.25549 0.84149 0.40314 0.0
C279 C 0.19866 0.98086 0.49162 0.0
H280 H 0.16622 0.96751 0.4819 0.0
H281 H 0.16269 0.96754 0.50089 0.0
H282 H 0.2371 0.0392 0.49209 0.0
O283 O 0.25552 0.0087 0.46167 0.0
O284 O 0.2517 0.01107 0.43871 0.0
C285 C 0.08327 0.85961 0.45218 0.0
O286 O 0.32847 0.93038 0.43406 0.0
O287 O 0.33436 0.92905 0.4571 0.0
Zn288 Zn 0.66915 0.7993 0.26534 0.0
O289 O 0.59154 0.82881 0.26322 0.0
C290 C 0.55826 0.66419 0.27591 0.0
Zn291 Zn 0.66485 0.80253 0.28892 0.0
C292 C 0.56934 0.84424 0.27433 0.0
O293 O 0.5911 0.83766 0.28632 0.0
C294 C 0.77022 0.76395 0.27991 0.0
O295 O 0.74462 0.9084 0.29003 0.0
O296 O 0.74738 0.90893 0.26684 0.0
N297 N 0.64517 0.79555 0.3102 0.0
C298 C 0.68549 0.81843 0.32198 0.0
C299 C 0.57615 0.75523 0.32845 0.0
N300 N 0.57736 0.75675 0.31432 0.0
N301 N 0.64329 0.79337 0.33356 0.0
C302 C 0.63467 0.75831 0.23354 0.0
C303 C 0.7377 0.81658 0.22392 0.0
N304 N 0.68156 0.79872 0.2437 0.0
N305 N 0.74547 0.83512 0.23764 0.0
N306 N 0.66865 0.7681 0.22106 0.0
H307 H 0.53581 0.73259 0.2442 0.0
H308 H 0.52575 0.70749 0.22586 0.0
H309 H 0.54332 0.65665 0.23865 0.0
C310 C 0.55525 0.71138 0.23569 0.0
C311 C 0.76578 0.86258 0.3221 0.0
H312 H 0.78861 0.86209 0.31168 0.0
H313 H 0.78175 0.91883 0.32472 0.0
H314 H 0.7882 0.84246 0.33027 0.0
O315 O 0.74103 0.76997 0.29108 0.0
O316 O 0.748 0.77155 0.26802 0.0
C317 C 0.76833 0.94207 0.27852 0.0
O318 O 0.5901 0.69252 0.26451 0.0
O319 O 0.58237 0.69726 0.28739 0.0
Zn320 Zn 0.20571 0.8884 0.26485 0.0
O321 O 0.16984 0.77938 0.26277 0.0
C322 C 0.34694 0.91638 0.27463 0.0
Zn323 Zn 0.21303 0.8868 0.28845 0.0
C324 C 0.16268 0.74516 0.27409 0.0
O325 O 0.181 0.77847 0.28572 0.0
C326 C 0.24609 0.02864 0.27921 0.0
O327 O 0.10493 0.85617 0.28975 0.0
O328 O 0.09848 0.86203 0.2667 0.0
N329 N 0.21987 0.8733 0.30979 0.0
C330 C 0.20373 0.89704 0.32164 0.0
C331 C 0.24701 0.83114 0.32795 0.0
N332 N 0.24662 0.83235 0.3138 0.0
N333 N 0.22084 0.87168 0.33318 0.0
C334 C 0.24441 0.89288 0.23286 0.0
C335 C 0.20191 0.95475 0.22404 0.0
N336 N 0.20701 0.90327 0.24318 0.0
N337 N 0.18032 0.94143 0.23759 0.0
N338 N 0.24279 0.9253 0.22079 0.0
H339 H 0.24885 0.80345 0.24168 0.0
H340 H 0.28386 0.8266 0.22406 0.0
H341 H 0.33509 0.88228 0.23855 0.0
C342 C 0.27995 0.84852 0.23438 0.0
C343 C 0.16766 0.9413 0.32183 0.0
H344 H 0.13647 0.93333 0.31207 0.0
H345 H 0.13197 0.92788 0.33114 0.0
H346 H 0.20918 -0.00133 0.32244 0.0
O347 O 0.24127 -0.00464 0.29059 0.0
O348 O 0.23813 -0.0031 0.26751 0.0
C349 C 0.06821 0.84776 0.27873 0.0
O350 O 0.31077 0.91049 0.26372 0.0
O351 O 0.32075 0.91381 0.28671 0.0
Zn352 Zn 0.12416 0.35121 0.28728 0.0
O353 O 0.16283 0.27934 0.28861 0.0
C354 C -0.01417 0.23878 0.27905 0.0
Zn355 Zn 0.12157 0.34346 0.26365 0.0
C356 C 0.17204 0.25188 0.2775 0.0
O357 O 0.15599 0.26711 0.26556 0.0
C358 C 0.08154 0.44832 0.27385 0.0
O359 O 0.22852 0.42223 0.26067 0.0
O360 O 0.22777 0.43287 0.28371 0.0
N361 N 0.10314 0.32592 0.24215 0.0
C362 C 0.10773 0.37067 0.23169 0.0
C363 C 0.05052 0.26469 0.22349 0.0
N364 N 0.06788 0.26007 0.23694 0.0
N365 N 0.0745 0.33363 0.21995 0.0
C366 C 0.12751 0.33903 0.32066 0.0
C367 C 0.17005 0.44912 0.32601 0.0
N368 N 0.13975 0.37571 0.30847 0.0
N369 N 0.16647 0.44403 0.31191 0.0
N370 N 0.14586 0.38403 0.33182 0.0
H371 H 0.07095 0.23331 0.31142 0.0
H372 H 0.13679 0.24617 0.32447 0.0
H373 H 0.05295 0.23779 0.32996 0.0
C374 C 0.09464 0.25931 0.3216 0.0
C375 C 0.14689 0.45075 0.23267 0.0
H376 H 0.18184 0.47025 0.24205 0.0
H377 H 0.17989 0.47412 0.22306 0.0
H378 H 0.10742 0.46946 0.23309 0.0
O379 O 0.09028 0.42179 0.26261 0.0
O380 O 0.0881 0.42435 0.28558 0.0
C381 C 0.26031 0.45239 0.27201 0.0
O382 O 0.01992 0.26791 0.29028 0.0
O383 O 0.0155 0.26277 0.26719 0.0
Zn384 Zn 0.78868 0.66546 0.7707 0.0
O385 O 0.89653 0.74482 0.76882 0.0
C386 C 0.754 0.7721 0.7797 0.0
Zn387 Zn 0.7982 0.67501 0.79425 0.0
C388 C 0.93387 0.7726 0.7798 0.0
O389 O 0.90469 0.75589 0.79191 0.0
C390 C 0.65682 0.55989 0.78513 0.0
O391 O 0.83532 0.60215 0.79644 0.0
O392 O 0.82255 0.59126 0.77347 0.0
N393 N 0.79937 0.69295 0.81576 0.0
C394 C 0.76122 0.64778 0.82631 0.0
C395 C 0.80203 0.75371 0.83412 0.0
N396 N 0.82521 0.75885 0.82073 0.0
N397 N 0.76118 0.68438 0.83783 0.0
C398 C 0.80816 0.68411 0.73775 0.0
C399 C 0.73983 0.57625 0.73107 0.0
N400 N 0.77972 0.64408 0.74944 0.0
N401 N 0.73743 0.57717 0.74521 0.0
N402 N 0.78418 0.64257 0.72609 0.0
H403 H 0.91281 0.77647 0.73893 0.0
H404 H 0.85096 0.78795 0.72792 0.0
H405 H 0.8437 0.78801 0.74692 0.0
C406 C 0.85626 0.76387 0.73784 0.0
C407 C 0.72566 0.56793 0.82559 0.0
H408 H 0.75679 0.55214 0.81863 0.0
H409 H 0.7219 0.54503 0.83622 0.0
H410 H 0.67033 0.54585 0.82149 0.0
O411 O 0.69334 0.59127 0.79594 0.0
O412 O 0.68186 0.5835 0.77299 0.0
C413 C 0.84111 0.57512 0.78496 0.0
O414 O 0.75751 0.74241 0.76841 0.0
O415 O 0.76422 0.75023 0.79141 0.0
Zn416 Zn 0.34142 0.12944 0.76916 0.0
O417 O 0.2663 0.16255 0.76789 0.0
C418 C 0.22999 -0.01215 0.77739 0.0
Zn419 Zn 0.33283 0.12133 0.79277 0.0
C420 C 0.24052 0.17228 0.77917 0.0
O421 O 0.2578 0.15741 0.79102 0.0
C422 C 0.4389 0.08556 0.78264 0.0
O423 O 0.41275 0.22669 0.7956 0.0
O424 O 0.41938 0.23642 0.77249 0.0
N425 N 0.31695 0.1044 0.81432 0.0
C426 C 0.36408 0.11703 0.82487 0.0
C427 C 0.25934 0.04889 0.83314 0.0
N428 N 0.25187 0.06234 0.81957 0.0
N429 N 0.32929 0.0827 0.83675 0.0
C430 C 0.32612 0.13103 0.73596 0.0
C431 C 0.43586 0.17369 0.73004 0.0
N432 N 0.36444 0.14426 0.74795 0.0
N433 N 0.43254 0.171 0.74417 0.0
N434 N 0.36982 0.14888 0.72459 0.0
H435 H 0.22123 0.07493 0.74572 0.0
H436 H 0.23196 0.13851 0.73228 0.0
H437 H 0.22401 0.05457 0.72728 0.0
C438 C 0.24605 0.09736 0.73538 0.0
C439 C 0.44378 0.16625 0.82394 0.0
H440 H 0.4566 0.21939 0.82818 0.0
H441 H 0.47277 0.14623 0.83048 0.0
H442 H 0.4635 0.17404 0.813 0.0
O443 O 0.40814 0.08766 0.79384 0.0
O444 O 0.41889 0.0984 0.77099 0.0
C445 C 0.43876 0.26425 0.78459 0.0
O446 O 0.2605 0.02282 0.7663 0.0
O447 O 0.25161 0.01681 0.78936 0.0
Zn448 Zn 0.87992 0.21192 0.79348 0.0
O449 O 0.77153 0.1797 0.79588 0.0
C450 C 0.91521 0.35375 0.78283 0.0
Zn451 Zn 0.87649 0.2137 0.76987 0.0
C452 C 0.73703 0.17094 0.78454 0.0
O453 O 0.76994 0.18569 0.77286 0.0
C454 C 0.01746 0.24567 0.7786 0.0
O455 O 0.84262 0.10509 0.76897 0.0
O456 O 0.84908 0.1021 0.79205 0.0
N457 N 0.86142 0.21946 0.74856 0.0
C458 C 0.87891 0.19843 0.73649 0.0
C459 C 0.82085 0.25111 0.73085 0.0
N460 N 0.82538 0.25207 0.74494 0.0
N461 N 0.85357 0.21745 0.72515 0.0
C462 C 0.8872 0.25305 0.82534 0.0
C463 C 0.9471 0.20813 0.83413 0.0
N464 N 0.89591 0.21445 0.81506 0.0
N465 N 0.93281 0.18629 0.82063 0.0
N466 N 0.91948 0.25057 0.83736 0.0
H467 H 0.80829 0.27073 0.81466 0.0
H468 H 0.8116 0.28146 0.83357 0.0
H469 H 0.88056 0.34837 0.82282 0.0
C470 C 0.84408 0.29009 0.82391 0.0
C471 C 0.91854 0.1576 0.73598 0.0
H472 H 0.91348 0.12987 0.74608 0.0
H473 H 0.8982 0.11814 0.72725 0.0
H474 H -0.02358 0.19566 0.73418 0.0
O475 O -0.01727 0.23865 0.76734 0.0
O476 O -0.01251 0.24041 0.79043 0.0
C477 C 0.83386 0.06984 0.78022 0.0
O478 O 0.90785 0.32025 0.79423 0.0
O479 O 0.90794 0.3219 0.77121 0.0
Zn480 Zn 0.34305 0.14822 0.62082 0.0
O481 O 0.42275 0.2551 0.62251 0.0
C482 C 0.44991 0.11211 0.61258 0.0
Zn483 Zn 0.35426 0.1565 0.5972 0.0
C484 C 0.45178 0.29217 0.61154 0.0
O485 O 0.43591 0.26309 0.59942 0.0
C486 C 0.23787 0.01625 0.60659 0.0
O487 O 0.28199 0.19433 0.59441 0.0
O488 O 0.26987 0.1835 0.61739 0.0
N489 N 0.373 0.15533 0.57564 0.0
C490 C 0.32796 0.11694 0.56508 0.0
C491 C 0.43429 0.15915 0.55723 0.0
N492 N 0.43913 0.18183 0.57065 0.0
N493 N 0.36491 0.11771 0.55349 0.0
C494 C 0.35769 0.15312 0.65394 0.0
C495 C 0.24923 0.11727 0.65995 0.0
N496 N 0.31943 0.14126 0.64199 0.0
N497 N 0.25217 0.1191 0.64581 0.0
N498 N 0.31457 0.13783 0.66537 0.0
H499 H 0.46344 0.22091 0.6454 0.0
H500 H 0.46046 0.21132 0.66436 0.0
H501 H 0.44924 0.1389 0.65308 0.0
C502 C 0.43743 0.18329 0.65427 0.0
C503 C 0.2479 0.08124 0.56585 0.0
H504 H 0.23202 0.11202 0.57287 0.0
H505 H 0.22479 0.07779 0.55525 0.0
H506 H 0.226 0.02597 0.56994 0.0
O507 O 0.2701 0.05205 0.59575 0.0
O508 O 0.2605 0.04191 0.61872 0.0
C509 C 0.25533 0.2023 0.60576 0.0
O510 O 0.41986 0.11663 0.62376 0.0
O511 O 0.42909 0.12218 0.60073 0.0
Zn512 Zn 0.88764 0.23303 0.59729 0.0
O513 O 0.85947 0.1249 0.59811 0.0
C514 C 0.0332 0.27535 0.60693 0.0
Zn515 Zn 0.89527 0.24079 0.62083 0.0
C516 C 0.85346 0.09661 0.61016 0.0
O517 O 0.86872 0.13477 0.62117 0.0
C518 C 0.92193 0.37564 0.60832 0.0
O519 O 0.78506 0.20742 0.62237 0.0
O520 O 0.77794 0.19953 0.59926 0.0
N521 N 0.90893 0.24966 0.64237 0.0
C522 C 0.86965 0.21224 0.65365 0.0
C523 C 0.96806 0.29848 0.66138 0.0
N524 N 0.96992 0.30304 0.64727 0.0
N525 N 0.9057 0.24213 0.66575 0.0
C526 C 0.92241 0.22499 0.5656 0.0
C527 C 0.87407 0.27949 0.55583 0.0
N528 N 0.88293 0.23462 0.57555 0.0
N529 N 0.85248 0.26796 0.56938 0.0
N530 N 0.91846 0.25348 0.5532 0.0
H531 H 0.95364 0.16175 0.57846 0.0
H532 H 0.93697 0.13685 0.56018 0.0
H533 H 0.01764 0.21561 0.56495 0.0
C534 C 0.95998 0.1827 0.56761 0.0
C535 C 0.79821 0.14489 0.65262 0.0
H536 H 0.79581 0.11406 0.64313 0.0
H537 H 0.78751 0.11086 0.66208 0.0
H538 H 0.75541 0.15921 0.65157 0.0
O539 O 0.9199 0.3469 0.62008 0.0
O540 O 0.91243 0.34007 0.59712 0.0
C541 C 0.74756 0.19078 0.61119 0.0
O542 O -0.0035 0.26441 0.59585 0.0
O543 O 0.00408 0.27103 0.61879 0.0
Zn544 Zn 0.80957 0.69545 0.62276 0.0
O545 O 0.84083 0.61914 0.62165 0.0
C546 C 0.66578 0.5883 0.61487 0.0
Zn547 Zn 0.7971 0.69536 0.59931 0.0
C548 C 0.84832 0.59771 0.60964 0.0
O549 O 0.83192 0.61972 0.59859 0.0
C550 C 0.76627 0.79876 0.61259 0.0
O551 O 0.90255 0.77536 0.59611 0.0
O552 O 0.91631 0.77304 0.61901 0.0
N553 N 0.77631 0.68477 0.57791 0.0
C554 C 0.78058 0.73172 0.56798 0.0
C555 C 0.73202 0.62865 0.5584 0.0
N556 N 0.74632 0.62083 0.57188 0.0
N557 N 0.75271 0.69777 0.55565 0.0
C558 C 0.80532 0.66984 0.65562 0.0
C559 C 0.88198 0.77517 0.6624 0.0
N560 N 0.83071 0.71108 0.64399 0.0
N561 N 0.8783 0.7764 0.64829 0.0
N562 N 0.83672 0.70892 0.66732 0.0
H563 H 0.75826 0.56678 0.64553 0.0
H564 H 0.75973 0.56392 0.66458 0.0
H565 H 0.69713 0.58317 0.65569 0.0
C566 C 0.75233 0.59115 0.65536 0.0
C567 C 0.81446 0.81097 0.57015 0.0
H568 H 0.85208 0.82915 0.57914 0.0
H569 H 0.84342 0.84009 0.5605 0.0
H570 H 0.77184 0.82437 0.5723 0.0
O571 O 0.76505 0.7718 0.60066 0.0
O572 O 0.78068 0.77411 0.62344 0.0
C573 C 0.94225 0.79691 0.60693 0.0
O574 O 0.70286 0.61502 0.62593 0.0
O575 O 0.69281 0.61391 0.60292 0.0
C576 C 0.54569 0.85 0.125 0.0
C577 C 0.5123 0.86073 0.11328 0.0
C578 C 0.57196 0.80236 0.12437 0.0
C579 C 0.56496 0.76315 0.11208 0.0
H580 H 0.5505 0.87755 0.13482 0.0
H581 H 0.59504 0.79395 0.13377 0.0
S582 S 0.49089 0.77961 0.07786 0.0
N583 N 0.48024 0.83391 0.08857 0.0
N584 N 0.53035 0.74497 0.08735 0.0
C585 C 0.53693 0.77776 0.09994 0.0
C586 C 0.50988 0.82601 0.10059 0.0
C587 C 0.22697 0.79153 0.10496 0.0
C588 C 0.23908 0.83552 0.11675 0.0
C589 C 0.1803 0.71799 0.10566 0.0
C590 C 0.14315 0.68534 0.11813 0.0
H591 H 0.25709 0.81303 0.09531 0.0
H592 H 0.17497 0.68641 0.09639 0.0
S593 S 0.1448 0.77884 0.15103 0.0
N594 N 0.20242 0.84331 0.14057 0.0
N595 N 0.11404 0.70369 0.14198 0.0
C596 C 0.15068 0.72918 0.12972 0.0
C597 C 0.19855 0.80466 0.12898 0.0
C598 C 0.20886 0.45716 0.13016 0.0
C599 C 0.16775 0.43176 0.1178 0.0
C600 C 0.28268 0.48221 0.13006 0.0
C601 C 0.31775 0.48213 0.1176 0.0
H602 H 0.18523 0.46265 0.13976 0.0
H603 H 0.3128 0.50468 0.13965 0.0
S604 S 0.23115 0.405 0.08323 0.0
N605 N 0.16501 0.39656 0.0934 0.0
N606 N 0.30377 0.44281 0.09315 0.0
C607 C 0.27599 0.45011 0.1055 0.0
C608 C 0.20086 0.42476 0.10563 0.0
C609 C 0.82488 0.53743 0.92744 0.0
C610 C 0.85854 0.53644 0.93999 0.0
C611 C 0.7747 0.56064 0.92733 0.0
C612 C 0.7562 0.58323 0.93974 0.0
H613 H 0.83459 0.51693 0.91777 0.0
H614 H 0.74681 0.55582 0.91763 0.0
S615 S 0.84191 0.60673 0.97466 0.0
N616 N 0.87966 0.57189 0.96466 0.0
N617 N 0.78464 0.6151 0.96438 0.0
C618 C 0.79491 0.58938 0.95205 0.0
C619 C 0.84604 0.56572 0.9522 0.0
C620 C 0.45988 0.22463 0.95331 0.0
C621 C 0.42727 0.17946 0.94171 0.0
C622 C 0.48479 0.29775 0.95243 0.0
C623 C 0.47757 0.32863 0.93997 0.0
H624 H 0.47073 0.20452 0.9629 0.0
H625 H 0.51202 0.33051 0.96151 0.0
S626 S 0.38138 0.23101 0.90774 0.0
N627 N 0.37809 0.16826 0.91824 0.0
N628 N 0.42591 0.30719 0.91647 0.0
C629 C 0.44006 0.28345 0.92864 0.0
C630 C 0.41431 0.2084 0.92957 0.0
C631 C 0.71569 0.18189 0.92756 0.0
C632 C 0.67863 0.15043 0.94007 0.0
C633 C 0.78913 0.23176 0.92775 0.0
C634 C 0.82772 0.25231 0.94046 0.0
H635 H 0.68739 0.17034 0.91763 0.0
H636 H 0.81447 0.25752 0.91798 0.0
S637 S 0.75891 0.17307 0.97565 0.0
N638 N 0.68841 0.13379 0.9652 0.0
N639 N 0.82636 0.22824 0.96549 0.0
C640 C 0.79281 0.21593 0.95283 0.0
C641 C 0.71812 0.16507 0.95266 0.0
C642 C 0.23615 0.12817 0.46334 0.0
C643 C 0.25889 0.10986 0.45092 0.0
C644 C 0.21179 0.17736 0.46317 0.0
C645 C 0.20981 0.21017 0.45056 0.0
H646 H 0.23212 0.10083 0.47308 0.0
H647 H 0.19135 0.1871 0.47285 0.0
S648 S 0.27979 0.19345 0.41584 0.0
N649 N 0.28969 0.13746 0.4262 0.0
N650 N 0.24425 0.23058 0.42581 0.0
C651 C 0.23909 0.19777 0.43833 0.0
C652 C 0.26395 0.14769 0.43854 0.0
C653 C 0.89968 0.14634 0.46192 0.0
C654 C 0.9262 0.18185 0.44901 0.0
C655 C 0.85112 0.07279 0.46242 0.0
C656 C 0.82646 0.03259 0.45 0.0
H657 H 0.91958 0.17451 0.47174 0.0
H658 H 0.83492 0.04705 0.47261 0.0
S659 S 0.86477 0.10407 0.41346 0.0
N660 N 0.91393 0.17417 0.42353 0.0
N661 N 0.82169 0.03608 0.42437 0.0
C662 C 0.84638 0.06898 0.437 0.0
C663 C 0.89609 0.14378 0.43652 0.0
C664 C 0.96813 0.81726 0.43961 0.0
C665 C 0.00478 0.82897 0.45245 0.0
C666 C 0.89467 0.79241 0.43927 0.0
C667 C 0.85488 0.77903 0.45175 0.0
H668 H -0.00344 0.82953 0.42967 0.0
H669 H 0.87019 0.78841 0.4291 0.0
S670 S 0.92222 0.78581 0.48797 0.0
N671 N -0.00601 0.8144 0.47787 0.0
N672 N 0.85478 0.76717 0.47722 0.0
C673 C 0.88931 0.78382 0.46462 0.0
C674 C 0.96464 0.80932 0.46498 0.0
C675 C 0.47116 0.9455 0.28068 0.0
C676 C 0.40689 0.90314 0.27339 0.0
C677 C 0.52506 0.92696 0.28071 0.0
C678 C 0.51546 0.86591 0.27344 0.0
H679 H 0.47912 -0.00786 0.28653 0.0
H680 H 0.5741 0.95994 0.28653 0.0
S681 S 0.35243 0.73165 0.25485 0.0
N682 N 0.33328 0.79313 0.26028 0.0
N683 N 0.43593 0.76024 0.25989 0.0
C684 C 0.4513 0.82285 0.2663 0.0
C685 C 0.39639 0.841 0.26641 0.0
C686 C 0.12851 0.63194 0.26126 0.0
C687 C 0.13124 0.66684 0.27389 0.0
C688 C 0.10466 0.55858 0.26106 0.0
C689 C 0.08301 0.51758 0.27348 0.0
H690 H 0.14806 0.66194 0.25155 0.0
H691 H 0.10804 0.53533 0.25126 0.0
S692 S 0.06557 0.58107 0.30879 0.0
N693 N 0.09961 0.6533 0.29877 0.0
N694 N 0.05486 0.51512 0.29836 0.0
C695 C 0.07905 0.55063 0.28595 0.0
C696 C 0.10355 0.62545 0.28618 0.0
C697 C 0.45969 0.55282 0.26522 0.0
C698 C 0.4832 0.60748 0.27535 0.0
C699 C 0.38633 0.50352 0.26367 0.0
C700 C 0.3353 0.50874 0.27209 0.0
H701 H 0.49812 0.54819 0.25854 0.0
H702 H 0.36965 0.46027 0.25615 0.0
S703 S 0.36851 0.6499 0.29816 0.0
N704 N 0.44903 0.66896 0.29264 0.0
N705 N 0.31168 0.57664 0.28961 0.0
C706 C 0.35795 0.56506 0.28173 0.0
C707 C 0.43197 0.61444 0.28341 0.0
C708 C 0.86269 0.48804 0.77197 0.0
C709 C 0.86934 0.52534 0.78453 0.0
C710 C 0.88453 0.43722 0.77117 0.0
C711 C 0.91347 0.42119 0.78293 0.0
H712 H 0.83787 0.49593 0.76275 0.0
H713 H 0.87403 0.40709 0.76148 0.0
S714 S 0.95756 0.51523 0.81728 0.0
N715 N 0.91725 0.55099 0.80834 0.0
N716 N 0.95961 0.45528 0.80671 0.0
C717 C 0.92647 0.46245 0.79518 0.0
C718 C 0.90378 0.51437 0.79604 0.0
C719 C 0.53605 0.4629 0.77786 0.0
C720 C 0.59677 0.48674 0.78645 0.0
C721 C 0.48376 0.39022 0.7775 0.0
C722 C 0.49111 0.34009 0.78577 0.0
H723 H 0.52996 0.50025 0.77116 0.0
H724 H 0.43781 0.37294 0.77063 0.0
S725 S 0.64446 0.37375 0.80841 0.0
N726 N 0.66483 0.45314 0.8021 0.0
N727 N 0.56429 0.31741 0.80203 0.0
C728 C 0.55115 0.36309 0.79439 0.0
C729 C 0.60483 0.43646 0.79456 0.0
C730 C 0.54962 0.10392 0.77098 0.0
C731 C 0.50843 0.08771 0.78333 0.0
C732 C 0.62323 0.12981 0.77156 0.0
C733 C 0.65854 0.13977 0.78451 0.0
H734 H 0.52605 0.10139 0.76078 0.0
H735 H 0.6528 0.14432 0.76174 0.0
S736 S 0.57234 0.08903 0.81965 0.0
N737 N 0.50577 0.07103 0.80872 0.0
N738 N 0.64527 0.1206 0.80982 0.0
C739 C 0.61709 0.11725 0.79686 0.0
C740 C 0.54162 0.09049 0.79626 0.0
C741 C 0.12312 0.25806 0.5935 0.0
C742 C 0.10237 0.27635 0.6062 0.0
C743 C 0.17488 0.2367 0.59328 0.0
C744 C 0.20822 0.23386 0.60575 0.0
H745 H 0.09609 0.25567 0.58379 0.0
H746 H 0.18606 0.21893 0.58342 0.0
S747 S 0.18698 0.29492 0.6411 0.0
N748 N 0.12893 0.30324 0.63106 0.0
N749 N 0.22717 0.26433 0.63067 0.0
C750 C 0.19384 0.25973 0.61824 0.0
C751 C 0.14093 0.28111 0.61846 0.0
C752 C 0.76371 0.90035 0.60086 0.0
C753 C 0.77054 0.86909 0.61331 0.0
C754 C 0.79052 0.97408 0.59994 0.0
C755 C 0.82385 0.01889 0.61154 0.0
H756 H 0.74094 0.86833 0.59152 0.0
H757 H 0.78625 -0.0039 0.58998 0.0
S758 S 0.84202 0.96151 0.64743 0.0
N759 N 0.80316 0.88692 0.63813 0.0
N760 N 0.8538 0.02571 0.63643 0.0
C761 C 0.82512 -0.01251 0.62444 0.0
C762 C 0.79778 0.91237 0.62536 0.0
C763 C 0.14132 0.89508 0.61368 0.0
C764 C 0.16494 0.95597 0.60518 0.0
C765 C 0.06871 0.84232 0.61391 0.0
C766 C 0.01831 0.84941 0.60565 0.0
H767 H 0.17876 0.8892 0.62041 0.0
H768 H 0.05166 0.79628 0.62074 0.0
S769 S 0.05178 0.00301 0.58311 0.0
N770 N 0.13127 0.02368 0.58949 0.0
N771 N -0.00451 0.92268 0.58942 0.0
C772 C 0.04124 0.90967 0.59708 0.0
C773 C 0.11464 0.96369 0.597 0.0
C774 C 0.39585 0.95812 0.03419 0.0
C775 C 0.44947 0.00299 0.04378 0.0
C776 C 0.4082 0.9646 1.01961 0.0
C777 C 0.47511 0.01591 1.01403 0.0
H778 H 0.34276 0.91962 0.038 0.0
H779 H 0.36362 0.93214 1.01274 0.0
S780 S 0.63357 0.1469 0.03459 0.0
N781 N 0.57139 0.10184 0.04657 0.0
N782 N 0.59642 0.11106 1.01933 0.0
C783 C 0.52999 0.05944 1.02356 0.0
C784 C 0.5169 0.05368 0.03838 0.0
C785 C 0.03088 0.52596 1.01999 0.0
C786 C -0.01119 0.45734 1.01414 0.0
C787 C 0.04251 0.53503 0.03459 0.0
C788 C 0.01188 0.47596 0.04383 0.0
H789 H 0.05356 0.57289 1.0133 0.0
H790 H 0.07518 0.58867 0.03874 0.0
S791 S 0.90364 0.28488 0.03356 0.0
N792 N 0.91984 0.32926 1.01859 0.0
N793 N 0.94324 0.34634 0.04589 0.0
C794 C 0.97122 0.40712 0.03805 0.0
C795 C 0.95916 0.39788 1.02324 0.0
C796 C 0.59941 0.56516 1.02275 0.0
C797 C 0.54116 0.5323 1.01336 0.0
C798 C 0.58844 0.56736 0.03727 0.0
C799 C 0.51869 0.53595 0.04293 0.0
H800 H 0.65396 0.59007 1.01878 0.0
H801 H 0.63473 0.59538 0.04404 0.0
S802 S 0.34819 0.43737 1.02305 0.0
N803 N 0.41144 0.46312 1.0109 0.0
N804 N 0.39066 0.46839 0.03813 0.0
C805 C 0.46006 0.50196 0.03367 0.0
C806 C 0.47126 0.49962 1.01891 0.0
C807 C 0.1659 0.31788 0.3673 0.0
C808 C 0.13686 0.34832 0.37649 0.0
C809 C 0.16796 0.32868 0.35268 0.0
C810 C 0.14017 0.36959 0.34673 0.0
H811 H 0.18739 0.28564 0.37149 0.0
H812 H 0.19264 0.30607 0.34605 0.0
S813 S 0.0525 0.45535 0.36603 0.0
N814 N 0.07536 0.41687 0.37844 0.0
N815 N 0.08035 0.43835 0.35107 0.0
C816 C 0.11039 0.39968 0.35579 0.0
C817 C 0.10823 0.3886 0.37064 0.0
C818 C 0.71937 0.87632 0.36873 0.0
C819 C 0.69022 0.81628 0.37772 0.0
C820 C 0.70528 0.86874 0.35422 0.0
C821 C 0.66206 0.80075 0.34823 0.0
H822 H 0.75267 0.92954 0.37302 0.0
H823 H 0.72683 0.91631 0.34772 0.0
S824 S 0.57978 0.62633 0.3669 0.0
N825 N 0.62158 0.68648 0.37936 0.0
N826 N 0.59356 0.67224 0.35219 0.0
C827 C 0.63386 0.74033 0.35706 0.0
C828 C 0.64845 0.74802 0.37178 0.0
C829 C 0.18358 0.824 0.35721 0.0
C830 C 0.21463 0.88296 0.34795 0.0
C831 C 0.18063 0.83355 0.37177 0.0
C832 C 0.20937 0.90251 0.37758 0.0
H833 H 0.16094 0.77006 0.3531 0.0
H834 H 0.1544 0.78676 0.37848 0.0
S835 S 0.30301 0.07457 0.35813 0.0
N836 N 0.27977 0.01268 0.34583 0.0
N837 N 0.27269 0.03063 0.3731 0.0
C838 C 0.24146 0.96183 0.36847 0.0
C839 C 0.24469 0.95212 0.35368 0.0
C840 C 0.74134 0.63693 0.70183 0.0
C841 C 0.79865 0.66099 0.71142 0.0
C842 C 0.7538 0.65133 0.68738 0.0
C843 C 0.82413 0.68948 0.68199 0.0
H844 H 0.6864 0.60742 0.7056 0.0
H845 H 0.70821 0.63398 0.68043 0.0
S846 S -0.00746 0.75822 0.70249 0.0
N847 N 0.92803 0.72026 0.71438 0.0
N848 N 0.95165 0.74836 0.68727 0.0
C849 C 0.8818 0.71279 0.69145 0.0
C850 C 0.86908 0.69811 0.70614 0.0
C851 C 0.30349 0.17302 0.68954 0.0
C852 C 0.3303 0.14114 0.68018 0.0
C853 C 0.31503 0.17417 0.70411 0.0
C854 C 0.35331 0.1429 0.70981 0.0
H855 H 0.27398 0.1979 0.68552 0.0
H856 H 0.29548 0.20112 0.71091 0.0
S857 S 0.42781 0.04594 0.69009 0.0
N858 N 0.39128 0.07214 0.67786 0.0
N859 N 0.4148 0.07614 0.70515 0.0
C860 C 0.37921 0.10977 0.70061 0.0
C861 C 0.36709 0.10821 0.68582 0.0
C862 C 0.9389 0.22792 0.68986 0.0
C863 C 0.8866 0.22355 0.68035 0.0
C864 C 0.92686 0.22216 0.70446 0.0
C865 C 0.86152 0.21098 0.71017 0.0
H866 H -0.0091 0.23892 0.68598 0.0
H867 H 0.97079 0.23091 0.71124 0.0
S868 S 0.70684 0.1959 0.68985 0.0
N869 N 0.76766 0.20935 0.67778 0.0
N870 N 0.7429 0.19367 0.70503 0.0
C871 C 0.80782 0.20406 0.7007 0.0
C872 C 0.82069 0.21134 0.68587 0.0
C873 C 0.35843 0.95992 0.20875 0.0
C874 C 0.28466 0.93819 0.20808 0.0
C875 C 0.40128 0.97884 0.19656 0.0
C876 C 0.37191 0.97637 0.18325 0.0
H877 H 0.38398 0.9652 0.21882 0.0
H878 H 0.45808 -0.00299 0.19753 0.0
S879 S 0.18374 0.92847 0.1758 0.0
N880 N 0.18528 0.91807 0.19299 0.0
N881 N 0.26601 0.95461 0.17015 0.0
C882 C 0.29863 0.95528 0.18242 0.0
C883 C 0.25507 0.93618 0.1948 0.0
C884 C -0.00102 0.42049 0.19619 0.0
C885 C 0.01009 0.40091 0.18273 0.0
C886 C 0.02146 0.39964 0.2083 0.0
C887 C 0.05581 0.3584 0.20738 0.0
H888 H 0.97197 0.45138 0.19732 0.0
H889 H 0.0095 0.41371 0.21847 0.0
S890 S 0.09112 0.28782 0.17463 0.0
N891 N 0.05269 0.33366 0.16921 0.0
N892 N 0.09617 0.29577 0.19193 0.0
C893 C 0.06579 0.33736 0.19398 0.0
C894 C 0.04286 0.35847 0.18167 0.0
C895 C 0.60007 0.65373 0.208 0.0
C896 C 0.64216 0.72914 0.20801 0.0
C897 C 0.57964 0.61467 0.19536 0.0
C898 C 0.60013 0.64947 0.18226 0.0
H899 H 0.58528 0.62442 0.21781 0.0
H900 H 0.54872 0.55669 0.19579 0.0
S901 S 0.71375 0.84532 0.17653 0.0
N902 N 0.70507 0.8367 0.19379 0.0
N903 N 0.66793 0.76326 0.17009 0.0
C904 C 0.64235 0.72466 0.18211 0.0
C905 C 0.6632 0.76441 0.19497 0.0
C906 C -0.01328 0.41089 0.86143 0.0
C907 C -0.02068 0.38015 0.8748 0.0
C908 C 0.96449 0.36805 0.84924 0.0
C909 C 0.93446 0.29298 0.85001 0.0
H910 H 0.01106 0.4685 0.86042 0.0
H911 H -0.02606 0.39424 0.83913 0.0
S912 S 0.90762 0.18739 0.88248 0.0
N913 N 0.9429 0.27097 0.88806 0.0
N914 N 0.90043 0.19051 0.86523 0.0
C915 C 0.92724 0.26197 0.86333 0.0
C916 C 0.94968 0.30546 0.8757 0.0
C917 C 0.69996 0.64866 0.87553 0.0
C918 C 0.62448 0.61024 0.87428 0.0
C919 C 0.74454 0.67228 0.86357 0.0
C920 C 0.71511 0.65794 0.84999 0.0
H921 H 0.72463 0.66242 0.88582 0.0
H922 H 0.8023 0.70223 0.86491 0.0
S923 S 0.52118 0.56457 0.8411 0.0
N924 N 0.52262 0.56222 0.85846 0.0
N925 N 0.60612 0.60698 0.83599 0.0
C926 C 0.63984 0.6207 0.84862 0.0
C927 C 0.5946 0.59697 0.86077 0.0
C928 C 0.35051 0.0922 0.86241 0.0
C929 C 0.35805 0.06779 0.84916 0.0
C930 C 0.37255 0.07235 0.87473 0.0
C931 C 0.40241 0.02692 0.87422 0.0
H932 H 0.32603 0.12556 0.86323 0.0
H933 H 0.36301 0.08994 0.88475 0.0
S934 S 0.42977 0.94585 0.8421 0.0
N935 N 0.39504 -0.00565 0.83625 0.0
N936 N 0.43653 0.95713 0.85933 0.0
C937 C 0.40989 0.00221 0.861 0.0
C938 C 0.38785 0.0227 0.84849 0.0
C939 C 0.9339 0.25054 0.52754 0.0
C940 C 0.9642 0.27106 0.541 0.0
C941 C -0.02302 0.27464 0.51539 0.0
C942 C 0.05203 0.32019 0.51626 0.0
H943 H 0.87623 0.21725 0.52644 0.0
H944 H 0.9508 0.26041 0.50526 0.0
S945 S 0.15661 0.39441 0.54898 0.0
N946 N 0.07296 0.34363 0.55445 0.0
N947 N 0.15403 0.38706 0.53166 0.0
C948 C 0.08273 0.34146 0.52966 0.0
C949 C 0.0389 0.31721 0.54202 0.0
C950 C 0.68836 0.78938 0.53045 0.0
C951 C 0.69996 0.76719 0.5173 0.0
C952 C 0.70795 0.76869 0.54297 0.0
C953 C 0.73948 0.72474 0.54275 0.0
H954 H 0.66251 0.82156 0.53103 0.0
H955 H 0.69526 0.78454 0.55287 0.0
S956 S 0.77616 0.64842 0.51094 0.0
N957 N 0.74123 0.69616 0.50477 0.0
N958 N 0.77915 0.65825 0.5282 0.0
C959 C 0.75085 0.70205 0.52961 0.0
C960 C 0.73097 0.72312 0.51692 0.0
C961 C 0.26832 0.95579 0.52988 0.0
C962 C 0.2936 -0.01528 0.51646 0.0
C963 C 0.29036 -0.00025 0.54191 0.0
C964 C 0.33895 0.07412 0.54094 0.0
H965 H 0.2318 0.89877 0.53104 0.0
H966 H 0.27097 0.97502 0.55208 0.0
S967 S 0.42341 0.17479 0.50824 0.0
N968 N 0.37149 0.09129 0.50291 0.0
N969 N 0.4128 0.17382 0.52547 0.0
C970 C 0.36508 0.10323 0.52757 0.0
C971 C 0.34232 0.05862 0.51535 0.0
C972 C 0.45132 0.29985 0.10297 0.0
C973 C 0.46653 0.33907 0.11555 0.0
C974 C 0.42668 0.22647 0.10313 0.0
C975 C 0.41687 0.18959 0.11588 0.0
H976 H 0.46066 0.32621 0.09285 0.0
H977 H 0.41956 0.1996 0.09313 0.0
S978 S 0.43621 0.26496 0.15178 0.0
N979 N 0.46053 0.33395 0.14115 0.0
N980 N 0.4143 0.19546 0.14144 0.0
C981 C 0.42599 0.22685 0.12856 0.0
C982 C 0.45118 0.30184 0.1284 0.0
C983 C 0.7071 0.18048 0.1244 0.0
C984 C 0.66564 0.16 0.11206 0.0
C985 C 0.78053 0.23027 0.12401 0.0
C986 C 0.81555 0.26188 0.11127 0.0
H987 H 0.68244 0.15957 0.13454 0.0
H988 H 0.80906 0.24679 0.13392 0.0
S989 S 0.73365 0.21834 0.07571 0.0
N990 N 0.66656 0.16956 0.08653 0.0
N991 N 0.805 0.26214 0.08581 0.0
C992 C 0.776 0.23766 0.09873 0.0
C993 C 0.70089 0.18726 0.09913 0.0
C994 C 0.77188 0.58043 0.12375 0.0
C995 C 0.745 0.58883 0.11082 0.0
C996 C 0.82187 0.55705 0.12429 0.0
C997 C 0.84768 0.54185 0.11194 0.0
H998 H 0.75111 0.58773 0.13363 0.0
H999 H 0.83862 0.54882 0.13453 0.0
S1000 S 0.80517 0.56877 0.07535 0.0
N1001 N 0.7557 0.59015 0.08534 0.0
N1002 N 0.85017 0.54628 0.08631 0.0
C1003 C 0.82605 0.55591 0.0989 0.0
C1004 C 0.77482 0.57966 0.09836 0.0
C1005 C 0.29381 0.47716 0.95752 0.0
C1006 C 0.32574 0.47245 0.94494 0.0
C1007 C 0.22043 0.45441 0.95813 0.0
C1008 C 0.17664 0.42622 0.94618 0.0
H1009 H 0.3262 0.50167 0.96678 0.0
H1010 H 0.19924 0.46368 0.96776 0.0
S1011 S 0.23131 0.38849 0.91162 0.0
N1012 N 0.30608 0.42727 0.92093 0.0
N1013 N 0.168 0.3845 0.92209 0.0
C1014 C 0.20666 0.41523 0.93393 0.0
C1015 C 0.28137 0.43864 0.93329 0.0
C1016 C 0.54694 0.83225 0.93228 0.0
C1017 C 0.53173 0.8567 0.9448 0.0
C1018 C 0.56961 0.78178 0.93251 0.0
C1019 C 0.57726 0.75322 0.94529 0.0
H1020 H 0.53919 0.85042 0.92215 0.0
H1021 H 0.57703 0.76206 0.92252 0.0
S1022 S 0.55639 0.8089 0.98113 0.0
N1023 N 0.53522 0.8559 0.97044 0.0
N1024 N 0.57751 0.76035 0.97084 0.0
C1025 C 0.56813 0.78161 0.95793 0.0
C1026 C 0.5451 0.83329 0.9577 0.0
C1027 C 0.237 0.78526 0.95837 0.0
C1028 C 0.25296 0.82864 0.94633 0.0
C1029 C 0.1868 0.71203 0.95783 0.0
C1030 C 0.15099 0.67974 0.94525 0.0
H1031 H 0.26669 0.80676 0.96804 0.0
H1032 H 0.17841 0.68006 0.96719 0.0
S1033 S 0.16313 0.77272 0.9116 0.0
N1034 N 0.22135 0.83631 0.92207 0.0
N1035 N 0.12703 0.69846 0.92105 0.0
C1036 C 0.16216 0.72358 0.93346 0.0
C1037 C 0.21296 0.79818 0.93403 0.0
C1038 C 0.14037 0.64217 0.45849 0.0
C1039 C 0.15215 0.68141 0.44602 0.0
C1040 C 0.11724 0.56904 0.45816 0.0
C1041 C 0.10562 0.53219 0.44533 0.0
H1042 H 0.1511 0.66837 0.46865 0.0
H1043 H 0.11257 0.54239 0.4681 0.0
S1044 S 0.11595 0.60735 0.40973 0.0
N1045 N 0.14097 0.67602 0.42047 0.0
N1046 N 0.09767 0.53814 0.4199 0.0
C1047 C 0.11148 0.56938 0.4328 0.0
C1048 C 0.13499 0.64414 0.43313 0.0
C1049 C 0.46566 0.58294 0.45904 0.0
C1050 C 0.50463 0.60665 0.44638 0.0
C1051 C 0.39258 0.5324 0.45906 0.0
C1052 C 0.35564 0.5031 0.44644 0.0
H1053 H 0.49051 0.60653 0.46902 0.0
H1054 H 0.36454 0.51819 0.46906 0.0
S1055 S 0.43621 0.53633 0.41068 0.0
N1056 N 0.50348 0.58916 0.42108 0.0
N1057 N 0.3656 0.49372 0.42107 0.0
C1058 C 0.39517 0.52166 0.43379 0.0
C1059 C 0.46988 0.57332 0.43378 0.0
C1060 C 0.51449 0.90943 0.45751 0.0
C1061 C 0.53384 0.88681 0.44523 0.0
C1062 C 0.46445 0.93269 0.45712 0.0
C1063 C 0.43112 0.93347 0.44445 0.0
H1064 H 0.5364 0.90718 0.46763 0.0
H1065 H 0.44869 0.94594 0.46701 0.0
S1066 S 0.47256 0.89162 0.40894 0.0
N1067 N 0.52333 0.8759 0.41972 0.0
N1068 N 0.42844 0.91927 0.41901 0.0
C1069 C 0.4546 0.91706 0.43189 0.0
C1070 C 0.50594 0.89345 0.43229 0.0
C1071 C 0.87505 0.77008 0.26777 0.0
C1072 C 0.8399 0.76632 0.28051 0.0
C1073 C 0.9487 0.7955 0.26738 0.0
C1074 C -0.01009 0.81715 0.27973 0.0
H1075 H 0.84657 0.75785 0.25785 0.0
H1076 H -0.02638 0.80004 0.25723 0.0
S1077 S 0.92101 0.80315 0.31614 0.0
N1078 N 0.84957 0.77546 0.30603 0.0
N1079 N -0.01133 0.82309 0.30532 0.0
C1080 C 0.95442 0.8071 0.29271 0.0
C1081 C 0.8791 0.78126 0.2931 0.0
C1082 C 0.23542 0.12366 0.2664 0.0
C1083 C 0.24443 0.09668 0.27927 0.0
C1084 C 0.214 0.17518 0.26597 0.0
C1085 C 0.20131 0.20254 0.2784 0.0
H1086 H 0.24079 0.10193 0.25648 0.0
H1087 H 0.20502 0.19174 0.25578 0.0
S1088 S 0.231 0.16033 0.31482 0.0
N1089 N 0.24911 0.10887 0.30473 0.0
N1090 N 0.20907 0.20621 0.30398 0.0
C1091 C 0.21615 0.18077 0.29135 0.0
C1092 C 0.23792 0.12795 0.29177 0.0
C1093 C 0.85429 0.05282 0.29129 0.0
C1094 C 0.81778 0.01991 0.27879 0.0
C1095 C 0.90442 0.12599 0.29167 0.0
C1096 C 0.91968 0.16864 0.27956 0.0
H1097 H 0.84627 0.02144 0.30072 0.0
H1098 H 0.93447 0.14805 0.30128 0.0
S1099 S 0.82864 0.11091 0.24497 0.0
N1100 N 0.79291 0.03716 0.25457 0.0
N1101 N 0.88723 0.17506 0.2553 0.0
C1102 C 0.87932 0.13755 0.26732 0.0
C1103 C 0.82853 0.06297 0.26691 0.0
C1104 C 0.76477 0.87875 0.79203 0.0
C1105 C 0.75627 0.84186 0.7793 0.0
C1106 C 0.78845 0.95208 0.79218 0.0
C1107 C 0.80391 -0.0086 0.77962 0.0
H1108 H 0.75736 0.85194 0.80205 0.0
H1109 H 0.79678 0.97837 0.80228 0.0
S1110 S 0.77736 0.91749 0.74339 0.0
N1111 N 0.7555 0.84806 0.75375 0.0
N1112 N 0.7997 -0.01387 0.754 0.0
C1113 C 0.78966 0.95405 0.76677 0.0
C1114 C 0.76556 0.87914 0.76662 0.0
C1115 C 0.11441 0.91044 0.76527 0.0
C1116 C 0.16049 0.92133 0.77665 0.0
C1117 C 0.04099 0.86066 0.76621 0.0
C1118 C 0.01171 0.82065 0.77857 0.0
H1119 H 0.13395 0.94402 0.75599 0.0
H1120 H 0.00655 0.8561 0.75749 0.0
S1121 S 0.11261 0.81864 0.81005 0.0
N1122 N 0.17401 0.88044 0.79969 0.0
N1123 N 0.03587 0.78685 0.80149 0.0
C1124 C 0.05828 0.82668 0.78951 0.0
C1125 C 0.13288 0.87689 0.78852 0.0
C1126 C 0.16525 0.21438 0.79116 0.0
C1127 C 0.19116 0.20132 0.77858 0.0
C1128 C 0.11365 0.2357 0.79101 0.0
C1129 C 0.08536 0.24411 0.77826 0.0
H1130 H 0.18297 0.20574 0.80126 0.0
H1131 H 0.09284 0.24133 0.80102 0.0
S1132 S 0.14515 0.22971 0.74237 0.0
N1133 N 0.19236 0.20834 0.75298 0.0
N1134 N 0.09459 0.24797 0.75274 0.0
C1135 C 0.11526 0.23733 0.76559 0.0
C1136 C 0.16816 0.21575 0.76574 0.0
C1137 C 0.56346 0.14313 0.62512 0.0
C1138 C 0.51931 0.11358 0.61324 0.0
C1139 C 0.63697 0.16591 0.62452 0.0
C1140 C 0.66882 0.16003 0.61202 0.0
H1141 H 0.54248 0.15359 0.63464 0.0
H1142 H 0.66952 0.19141 0.63372 0.0
S1143 S 0.5734 0.07277 0.57893 0.0
N1144 N 0.51031 0.06967 0.58935 0.0
N1145 N 0.64836 0.11239 0.58818 0.0
C1146 C 0.624 0.12486 0.60047 0.0
C1147 C 0.54921 0.10144 0.60111 0.0
C1148 C 0.91575 0.47361 0.62075 0.0
C1149 C 0.91983 0.44297 0.60797 0.0
C1150 C 0.89444 0.52505 0.6211 0.0
C1151 C 0.87685 0.54822 0.60867 0.0
H1152 H 0.92494 0.45487 0.63069 0.0
H1153 H 0.88932 0.54476 0.63128 0.0
S1154 S 0.89236 0.49485 0.57226 0.0
N1155 N 0.91456 0.44676 0.58241 0.0
N1156 N 0.87451 0.54406 0.58306 0.0
C1157 C 0.88665 0.52265 0.59571 0.0
C1158 C 0.90845 0.47006 0.59536 0.0
C1159 C 0.53904 0.39807 0.62536 0.0
C1160 C 0.50005 0.36968 0.61288 0.0
C1161 C 0.58823 0.47133 0.62655 0.0
C1162 C 0.59949 0.51832 0.61532 0.0
H1163 H 0.53396 0.36309 0.63402 0.0
H1164 H 0.62092 0.49012 0.63594 0.0
S1165 S 0.49885 0.47241 0.58167 0.0
N1166 N 0.46743 0.39514 0.58998 0.0
N1167 N 0.55944 0.53318 0.59226 0.0
C1168 C 0.55584 0.49141 0.60332 0.0
C1169 C 0.50641 0.41684 0.60206 0.0
loop_
_geom_bond_atom_site_label_1
_geom_bond_atom_site_label_2
_geom_bond_distance
_geom_bond_site_symmetry_2
_ccdc_geom_bond_type
Zn0 O1 2.055 . S
Zn0 O8 2.046 1_545 S
Zn0 N16 2.036 . S
Zn0 O28 2.053 1_545 S
Zn0 O30 2.066 . S
O1 Zn0 2.055 . S
O1 C4 1.259 . S
C2 O30 1.256 . S
C2 O31 1.244 . S
Zn3 O5 2.046 . S
Zn3 O7 2.055 1_545 S
Zn3 N9 2.036 . S
Zn3 O27 2.066 1_545 S
Zn3 O31 2.053 . S
C4 O1 1.259 . S
C4 O5 1.254 . S
O5 Zn3 2.046 . S
O5 C4 1.254 . S
C6 O27 1.256 . S
C6 O28 1.244 . S
O7 Zn3 2.055 1_565 S
O7 C29 1.259 . S
O8 Zn0 2.046 1_565 S
O8 C29 1.254 . S
N9 Zn3 2.036 . S
N9 C10 1.298 1_545 S
N9 N12 1.398 . S
C10 N9 1.298 1_565 S
C10 N13 1.367 . S
C10 C23 1.481 . S
C11 N12 1.299 . S
C11 N13 1.379 1_545 S
N12 N9 1.398 . S
N12 C11 1.299 . S
N13 C10 1.367 . S
N13 C11 1.379 1_565 S
C14 N16 1.298 . S
C14 N18 1.367 . S
C14 C22 1.481 . S
C15 N17 1.299 . S
C15 N18 1.379 1_565 S
N16 Zn0 2.036 . S
N16 C14 1.298 . S
N16 N17 1.398 1_545 S
N17 C15 1.299 . S
N17 N16 1.398 1_565 S
N18 C14 1.367 . S
N18 C15 1.379 1_545 S
H19 C22 0.980 . S
H20 C22 0.981 . S
H21 C22 0.981 . S
C22 C14 1.481 . S
C22 H19 0.980 . S
C22 H20 0.981 . S
C22 H21 0.981 . S
C23 C10 1.481 . S
C23 H24 0.980 . S
C23 H25 0.981 . S
C23 H26 0.981 . S
H24 C23 0.980 . S
H25 C23 0.981 . S
H26 C23 0.981 . S
O27 Zn3 2.066 1_565 S
O27 C6 1.256 . S
O28 Zn0 2.053 1_565 S
O28 C6 1.244 . S
C29 O7 1.259 . S
C29 O8 1.254 . S
O30 Zn0 2.066 . S
O30 C2 1.256 . S
O31 C2 1.244 . S
O31 Zn3 2.053 . S
Zn32 O33 2.055 1_455 S
Zn32 O40 2.046 . S
Zn32 N48 2.036 . S
Zn32 O60 2.053 . S
Zn32 O62 2.066 1_455 S
O33 Zn32 2.055 1_655 S
O33 C36 1.259 . S
C34 O62 1.256 . S
C34 O63 1.244 . S
Zn35 O37 2.046 1_455 S
Zn35 O39 2.055 . S
Zn35 N41 2.036 . S
Zn35 O59 2.066 . S
Zn35 O63 2.053 1_455 S
C36 O33 1.259 . S
C36 O37 1.254 . S
O37 Zn35 2.046 1_655 S
O37 C36 1.254 . S
C38 O59 1.256 . S
C38 O60 1.244 . S
O39 Zn35 2.055 . S
O39 C61 1.259 . S
O40 Zn32 2.046 . S
O40 C61 1.254 . S
N41 Zn35 2.036 . S
N41 C42 1.298 . S
N41 N44 1.398 1_455 S
C42 N41 1.298 . S
C42 N45 1.367 . S
C42 C55 1.481 . S
C43 N44 1.299 . S
C43 N45 1.379 1_655 S
N44 N41 1.398 1_655 S
N44 C43 1.299 . S
N45 C42 1.367 . S
N45 C43 1.379 1_455 S
C46 N48 1.298 1_655 S
C46 N50 1.367 1_655 S
C46 C54 1.481 . S
C47 N49 1.299 . S
C47 N50 1.379 . S
N48 Zn32 2.036 . S
N48 C46 1.298 1_455 S
N48 N49 1.398 . S
N49 C47 1.299 . S
N49 N48 1.398 . S
N50 C46 1.367 1_455 S
N50 C47 1.379 . S
H51 C54 0.980 . S
H52 C54 0.981 . S
H53 C54 0.981 . S
C54 C46 1.481 . S
C54 H51 0.980 . S
C54 H52 0.981 . S
C54 H53 0.981 . S
C55 C42 1.481 . S
C55 H56 0.980 . S
C55 H57 0.981 . S
C55 H58 0.981 . S
H56 C55 0.980 . S
H57 C55 0.981 . S
H58 C55 0.981 . S
O59 Zn35 2.066 . S
O59 C38 1.256 . S
O60 Zn32 2.053 . S
O60 C38 1.244 . S
C61 O39 1.259 . S
C61 O40 1.254 . S
O62 Zn32 2.066 1_655 S
O62 C34 1.256 . S
O63 C34 1.244 . S
O63 Zn35 2.053 1_655 S
Zn64 O65 2.055 . S
Zn64 O72 2.046 . S
Zn64 N80 2.036 . S
Zn64 O92 2.053 . S
Zn64 O94 2.066 . S
O65 Zn64 2.055 . S
O65 C68 1.259 . S
C66 O94 1.256 . S
C66 O95 1.244 . S
Zn67 O69 2.046 . S
Zn67 O71 2.055 . S
Zn67 N73 2.036 . S
Zn67 O91 2.066 . S
Zn67 O95 2.053 . S
C68 O65 1.259 . S
C68 O69 1.254 . S
O69 Zn67 2.046 . S
O69 C68 1.254 . S
C70 O91 1.256 . S
C70 O92 1.244 . S
O71 Zn67 2.055 . S
O71 C93 1.259 . S
O72 Zn64 2.046 . S
O72 C93 1.254 . S
N73 Zn67 2.036 . S
N73 C74 1.298 . S
N73 N76 1.398 . S
C74 N73 1.298 . S
C74 N77 1.367 . S
C74 C87 1.481 . S
C75 N76 1.299 . S
C75 N77 1.379 . S
N76 N73 1.398 . S
N76 C75 1.299 . S
N77 C74 1.367 . S
N77 C75 1.379 . S
C78 N80 1.298 . S
C78 N82 1.367 . S
C78 C86 1.481 . S
C79 N81 1.299 . S
C79 N82 1.379 . S
N80 Zn64 2.036 . S
N80 C78 1.298 . S
N80 N81 1.398 . S
N81 C79 1.299 . S
N81 N80 1.398 . S
N82 C78 1.367 . S
N82 C79 1.379 . S
H83 C86 0.980 . S
H84 C86 0.981 . S
H85 C86 0.981 . S
C86 C78 1.481 . S
C86 H83 0.980 . S
C86 H84 0.981 . S
C86 H85 0.981 . S
C87 C74 1.481 . S
C87 H88 0.980 . S
C87 H89 0.981 . S
C87 H90 0.981 . S
H88 C87 0.980 . S
H89 C87 0.981 . S
H90 C87 0.981 . S
O91 Zn67 2.066 . S
O91 C70 1.256 . S
O92 Zn64 2.053 . S
O92 C70 1.244 . S
C93 O71 1.259 . S
C93 O72 1.254 . S
O94 Zn64 2.066 . S
O94 C66 1.256 . S
O95 C66 1.244 . S
O95 Zn67 2.053 . S
Zn96 O97 2.055 1_455 S
Zn96 O104 2.046 . S
Zn96 N112 2.036 . S
Zn96 O124 2.053 . S
Zn96 O126 2.066 1_455 S
O97 Zn96 2.055 1_655 S
O97 C100 1.259 . S
C98 O126 1.256 . S
C98 O127 1.244 . S
Zn99 O101 2.046 1_455 S
Zn99 O103 2.055 . S
Zn99 N105 2.036 . S
Zn99 O123 2.066 . S
Zn99 O127 2.053 1_455 S
C100 O97 1.259 . S
C100 O101 1.254 . S
O101 Zn99 2.046 1_655 S
O101 C100 1.254 . S
C102 O123 1.256 . S
C102 O124 1.244 . S
O103 Zn99 2.055 . S
O103 C125 1.259 . S
O104 Zn96 2.046 . S
O104 C125 1.254 . S
N105 Zn99 2.036 . S
N105 C106 1.298 . S
N105 N108 1.398 1_455 S
C106 N105 1.298 . S
C106 N109 1.367 . S
C106 C119 1.481 . S
C107 N108 1.299 . S
C107 N109 1.379 1_655 S
N108 N105 1.398 1_655 S
N108 C107 1.299 . S
N109 C106 1.367 . S
N109 C107 1.379 1_455 S
C110 N112 1.298 1_655 S
C110 N114 1.367 . S
C110 C118 1.481 . S
C111 N113 1.299 . S
C111 N114 1.379 1_455 S
N112 Zn96 2.036 . S
N112 C110 1.298 1_455 S
N112 N113 1.398 . S
N113 C111 1.299 . S
N113 N112 1.398 . S
N114 C110 1.367 . S
N114 C111 1.379 1_655 S
H115 C118 0.980 . S
H116 C118 0.981 . S
H117 C118 0.981 . S
C118 C110 1.481 . S
C118 H115 0.980 . S
C118 H116 0.981 . S
C118 H117 0.981 . S
C119 C106 1.481 . S
C119 H120 0.980 . S
C119 H121 0.981 . S
C119 H122 0.981 . S
H120 C119 0.980 . S
H121 C119 0.981 . S
H122 C119 0.981 . S
O123 Zn99 2.066 . S
O123 C102 1.256 . S
O124 Zn96 2.053 . S
O124 C102 1.244 . S
C125 O103 1.259 . S
C125 O104 1.254 . S
O126 Zn96 2.066 1_655 S
O126 C98 1.256 . S
O127 C98 1.244 . S
O127 Zn99 2.053 1_655 S
Zn128 O129 2.055 . S
Zn128 O136 2.046 . S
Zn128 N144 2.036 . S
Zn128 O156 2.053 . S
Zn128 O158 2.066 . S
O129 Zn128 2.055 . S
O129 C132 1.259 . S
C130 O158 1.256 . S
C130 O159 1.244 . S
Zn131 O133 2.046 . S
Zn131 O135 2.055 . S
Zn131 N137 2.036 . S
Zn131 O155 2.066 . S
Zn131 O159 2.053 . S
C132 O129 1.259 . S
C132 O133 1.254 . S
O133 Zn131 2.046 . S
O133 C132 1.254 . S
C134 O155 1.256 . S
C134 O156 1.244 . S
O135 Zn131 2.055 . S
O135 C157 1.259 . S
O136 Zn128 2.046 . S
O136 C157 1.254 . S
N137 Zn131 2.036 . S
N137 C138 1.298 . S
N137 N140 1.398 . S
C138 N137 1.298 . S
C138 N141 1.367 . S
C138 C151 1.481 . S
C139 N140 1.299 . S
C139 N141 1.379 . S
N140 N137 1.398 . S
N140 C139 1.299 . S
N141 C138 1.367 . S
N141 C139 1.379 . S
C142 N144 1.298 . S
C142 N146 1.367 . S
C142 C150 1.481 . S
C143 N145 1.299 . S
C143 N146 1.379 . S
N144 Zn128 2.036 . S
N144 C142 1.298 . S
N144 N145 1.398 . S
N145 C143 1.299 . S
N145 N144 1.398 . S
N146 C142 1.367 . S
N146 C143 1.379 . S
H147 C150 0.980 . S
H148 C150 0.981 . S
H149 C150 0.981 . S
C150 C142 1.481 . S
C150 H147 0.980 . S
C150 H148 0.981 . S
C150 H149 0.981 . S
C151 C138 1.481 . S
C151 H152 0.980 . S
C151 H153 0.981 . S
C151 H154 0.981 . S
H152 C151 0.980 . S
H153 C151 0.981 . S
H154 C151 0.981 . S
O155 Zn131 2.066 . S
O155 C134 1.256 . S
O156 Zn128 2.053 . S
O156 C134 1.244 . S
C157 O135 1.259 . S
C157 O136 1.254 . S
O158 Zn128 2.066 . S
O158 C130 1.256 . S
O159 C130 1.244 . S
O159 Zn131 2.053 . S
Zn160 O161 2.055 1_545 S
Zn160 O168 2.046 . S
Zn160 N176 2.036 . S
Zn160 O188 2.053 . S
Zn160 O190 2.066 1_545 S
O161 Zn160 2.055 1_565 S
O161 C164 1.259 . S
C162 O190 1.256 . S
C162 O191 1.244 . S
Zn163 O165 2.046 1_545 S
Zn163 O167 2.055 . S
Zn163 N169 2.036 . S
Zn163 O187 2.066 . S
Zn163 O191 2.053 1_545 S
C164 O161 1.259 . S
C164 O165 1.254 . S
O165 Zn163 2.046 1_565 S
O165 C164 1.254 . S
C166 O187 1.256 . S
C166 O188 1.244 . S
O167 Zn163 2.055 . S
O167 C189 1.259 . S
O168 Zn160 2.046 . S
O168 C189 1.254 . S
N169 Zn163 2.036 . S
N169 C170 1.298 . S
N169 N172 1.398 1_545 S
C170 N169 1.298 . S
C170 N173 1.367 . S
C170 C183 1.481 . S
C171 N172 1.299 . S
C171 N173 1.379 1_565 S
N172 N169 1.398 1_565 S
N172 C171 1.299 . S
N173 C170 1.367 . S
N173 C171 1.379 1_545 S
C174 N176 1.298 1_565 S
C174 N178 1.367 1_565 S
C174 C182 1.481 . S
C175 N177 1.299 . S
C175 N178 1.379 . S
N176 Zn160 2.036 . S
N176 C174 1.298 1_545 S
N176 N177 1.398 . S
N177 C175 1.299 . S
N177 N176 1.398 . S
N178 C174 1.367 1_545 S
N178 C175 1.379 . S
H179 C182 0.980 . S
H180 C182 0.981 . S
H181 C182 0.981 . S
C182 C174 1.481 . S
C182 H179 0.980 . S
C182 H180 0.981 . S
C182 H181 0.981 . S
C183 C170 1.481 . S
C183 H184 0.980 . S
C183 H185 0.981 . S
C183 H186 0.981 . S
H184 C183 0.980 . S
H185 C183 0.981 . S
H186 C183 0.981 . S
O187 Zn163 2.066 . S
O187 C166 1.256 . S
O188 Zn160 2.053 . S
O188 C166 1.244 . S
C189 O167 1.259 . S
C189 O168 1.254 . S
O190 Zn160 2.066 1_565 S
O190 C162 1.256 . S
O191 C162 1.244 . S
O191 Zn163 2.053 1_565 S
Zn192 O193 2.055 . S
Zn192 O200 2.046 . S
Zn192 N208 2.036 . S
Zn192 O220 2.053 . S
Zn192 O222 2.066 . S
O193 Zn192 2.055 . S
O193 C196 1.259 . S
C194 O222 1.256 . S
C194 O223 1.244 . S
Zn195 O197 2.046 . S
Zn195 O199 2.055 . S
Zn195 N201 2.036 . S
Zn195 O219 2.066 . S
Zn195 O223 2.053 . S
C196 O193 1.259 . S
C196 O197 1.254 . S
O197 Zn195 2.046 . S
O197 C196 1.254 . S
C198 O219 1.256 . S
C198 O220 1.244 . S
O199 Zn195 2.055 . S
O199 C221 1.259 . S
O200 Zn192 2.046 . S
O200 C221 1.254 . S
N201 Zn195 2.036 . S
N201 C202 1.298 . S
N201 N204 1.398 . S
C202 N201 1.298 . S
C202 N205 1.367 . S
C202 C215 1.481 . S
C203 N204 1.299 . S
C203 N205 1.379 . S
N204 N201 1.398 . S
N204 C203 1.299 . S
N205 C202 1.367 . S
N205 C203 1.379 . S
C206 N208 1.298 . S
C206 N210 1.367 . S
C206 C214 1.481 . S
C207 N209 1.299 . S
C207 N210 1.379 . S
N208 Zn192 2.036 . S
N208 C206 1.298 . S
N208 N209 1.398 . S
N209 C207 1.299 . S
N209 N208 1.398 . S
N210 C206 1.367 . S
N210 C207 1.379 . S
H211 C214 0.980 . S
H212 C214 0.981 . S
H213 C214 0.981 . S
C214 C206 1.481 . S
C214 H211 0.980 . S
C214 H212 0.981 . S
C214 H213 0.981 . S
C215 C202 1.481 . S
C215 H216 0.980 . S
C215 H217 0.981 . S
C215 H218 0.981 . S
H216 C215 0.980 . S
H217 C215 0.981 . S
H218 C215 0.981 . S
O219 Zn195 2.066 . S
O219 C198 1.256 . S
O220 Zn192 2.053 . S
O220 C198 1.244 . S
C221 O199 1.259 . S
C221 O200 1.254 . S
O222 Zn192 2.066 . S
O222 C194 1.256 . S
O223 C194 1.244 . S
O223 Zn195 2.053 . S
Zn224 O225 2.055 . S
Zn224 O232 2.046 . S
Zn224 N240 2.036 . S
Zn224 O252 2.053 . S
Zn224 O254 2.066 . S
O225 Zn224 2.055 . S
O225 C228 1.259 . S
C226 O254 1.256 . S
C226 O255 1.244 . S
Zn227 O229 2.046 . S
Zn227 O231 2.055 . S
Zn227 N233 2.036 . S
Zn227 O251 2.066 . S
Zn227 O255 2.053 . S
C228 O225 1.259 . S
C228 O229 1.254 . S
O229 Zn227 2.046 . S
O229 C228 1.254 . S
C230 O251 1.256 . S
C230 O252 1.244 . S
O231 Zn227 2.055 . S
O231 C253 1.259 . S
O232 Zn224 2.046 . S
O232 C253 1.254 . S
N233 Zn227 2.036 . S
N233 C234 1.298 . S
N233 N236 1.398 . S
C234 N233 1.298 . S
C234 N237 1.367 . S
C234 C247 1.481 . S
C235 N236 1.299 . S
C235 N237 1.379 . S
N236 N233 1.398 . S
N236 C235 1.299 . S
N237 C234 1.367 . S
N237 C235 1.379 . S
C238 N240 1.298 . S
C238 N242 1.367 . S
C238 C246 1.481 . S
C239 N241 1.299 . S
C239 N242 1.379 . S
N240 Zn224 2.036 . S
N240 C238 1.298 . S
N240 N241 1.398 . S
N241 C239 1.299 . S
N241 N240 1.398 . S
N242 C238 1.367 . S
N242 C239 1.379 . S
H243 C246 0.980 . S
H244 C246 0.981 . S
H245 C246 0.981 . S
C246 C238 1.481 . S
C246 H243 0.980 . S
C246 H244 0.981 . S
C246 H245 0.981 . S
C247 C234 1.481 . S
C247 H248 0.980 . S
C247 H249 0.981 . S
C247 H250 0.981 . S
H248 C247 0.980 . S
H249 C247 0.981 . S
H250 C247 0.981 . S
O251 Zn227 2.066 . S
O251 C230 1.256 . S
O252 Zn224 2.053 . S
O252 C230 1.244 . S
C253 O231 1.259 . S
C253 O232 1.254 . S
O254 Zn224 2.066 . S
O254 C226 1.256 . S
O255 C226 1.244 . S
O255 Zn227 2.053 . S
Zn256 O257 2.055 . S
Zn256 O264 2.046 . S
Zn256 N272 2.036 . S
Zn256 O284 2.053 . S
Zn256 O286 2.066 . S
O257 Zn256 2.055 . S
O257 C260 1.259 . S
C258 O286 1.256 . S
C258 O287 1.244 . S
Zn259 O261 2.046 . S
Zn259 O263 2.055 . S
Zn259 N265 2.036 . S
Zn259 O283 2.066 . S
Zn259 O287 2.053 . S
C260 O257 1.259 . S
C260 O261 1.254 . S
O261 Zn259 2.046 . S
O261 C260 1.254 . S
C262 O283 1.256 1_545 S
C262 O284 1.244 1_545 S
O263 Zn259 2.055 . S
O263 C285 1.259 . S
O264 Zn256 2.046 . S
O264 C285 1.254 . S
N265 Zn259 2.036 . S
N265 C266 1.298 . S
N265 N268 1.398 . S
C266 N265 1.298 . S
C266 N269 1.367 . S
C266 C279 1.481 . S
C267 N268 1.299 . S
C267 N269 1.379 . S
N268 N265 1.398 . S
N268 C267 1.299 . S
N269 C266 1.367 . S
N269 C267 1.379 . S
C270 N272 1.298 . S
C270 N274 1.367 . S
C270 C278 1.481 . S
C271 N273 1.299 . S
C271 N274 1.379 . S
N272 Zn256 2.036 . S
N272 C270 1.298 . S
N272 N273 1.398 . S
N273 C271 1.299 . S
N273 N272 1.398 . S
N274 C270 1.367 . S
N274 C271 1.379 . S
H275 C278 0.980 . S
H276 C278 0.981 . S
H277 C278 0.981 . S
C278 C270 1.481 . S
C278 H275 0.980 . S
C278 H276 0.981 . S
C278 H277 0.981 . S
C279 C266 1.481 . S
C279 H280 0.980 . S
C279 H281 0.981 . S
C279 H282 0.981 . S
H280 C279 0.980 . S
H281 C279 0.981 . S
H282 C279 0.981 . S
O283 Zn259 2.066 . S
O283 C262 1.256 1_565 S
O284 Zn256 2.053 . S
O284 C262 1.244 1_565 S
C285 O263 1.259 . S
C285 O264 1.254 . S
O286 Zn256 2.066 . S
O286 C258 1.256 . S
O287 C258 1.244 . S
O287 Zn259 2.053 . S
Zn288 O289 2.055 . S
Zn288 O296 2.046 . S
Zn288 N304 2.036 . S
Zn288 O316 2.053 . S
Zn288 O318 2.066 . S
O289 Zn288 2.055 . S
O289 C292 1.259 . S
C290 O318 1.256 . S
C290 O319 1.244 . S
Zn291 O293 2.046 . S
Zn291 O295 2.055 . S
Zn291 N297 2.036 . S
Zn291 O315 2.066 . S
Zn291 O319 2.053 . S
C292 O289 1.259 . S
C292 O293 1.254 . S
O293 Zn291 2.046 . S
O293 C292 1.254 . S
C294 O315 1.256 . S
C294 O316 1.244 . S
O295 Zn291 2.055 . S
O295 C317 1.259 . S
O296 Zn288 2.046 . S
O296 C317 1.254 . S
N297 Zn291 2.036 . S
N297 C298 1.298 . S
N297 N300 1.398 . S
C298 N297 1.298 . S
C298 N301 1.367 . S
C298 C311 1.481 . S
C299 N300 1.299 . S
C299 N301 1.379 . S
N300 N297 1.398 . S
N300 C299 1.299 . S
N301 C298 1.367 . S
N301 C299 1.379 . S
C302 N304 1.298 . S
C302 N306 1.367 . S
C302 C310 1.481 . S
C303 N305 1.299 . S
C303 N306 1.379 . S
N304 Zn288 2.036 . S
N304 C302 1.298 . S
N304 N305 1.398 . S
N305 C303 1.299 . S
N305 N304 1.398 . S
N306 C302 1.367 . S
N306 C303 1.379 . S
H307 C310 0.980 . S
H308 C310 0.981 . S
H309 C310 0.981 . S
C310 C302 1.481 . S
C310 H307 0.980 . S
C310 H308 0.981 . S
C310 H309 0.981 . S
C311 C298 1.481 . S
C311 H312 0.980 . S
C311 H313 0.981 . S
C311 H314 0.981 . S
H312 C311 0.980 . S
H313 C311 0.981 . S
H314 C311 0.981 . S
O315 Zn291 2.066 . S
O315 C294 1.256 . S
O316 Zn288 2.053 . S
O316 C294 1.244 . S
C317 O295 1.259 . S
C317 O296 1.254 . S
O318 Zn288 2.066 . S
O318 C290 1.256 . S
O319 C290 1.244 . S
O319 Zn291 2.053 . S
Zn320 O321 2.055 . S
Zn320 O328 2.046 . S
Zn320 N336 2.036 . S
Zn320 O348 2.053 . S
Zn320 O350 2.066 . S
O321 Zn320 2.055 . S
O321 C324 1.259 . S
C322 O350 1.256 . S
C322 O351 1.244 . S
Zn323 O325 2.046 . S
Zn323 O327 2.055 . S
Zn323 N329 2.036 . S
Zn323 O347 2.066 . S
Zn323 O351 2.053 . S
C324 O321 1.259 . S
C324 O325 1.254 . S
O325 Zn323 2.046 . S
O325 C324 1.254 . S
C326 O347 1.256 1_545 S
C326 O348 1.244 1_545 S
O327 Zn323 2.055 . S
O327 C349 1.259 . S
O328 Zn320 2.046 . S
O328 C349 1.254 . S
N329 Zn323 2.036 . S
N329 C330 1.298 . S
N329 N332 1.398 . S
C330 N329 1.298 . S
C330 N333 1.367 . S
C330 C343 1.481 . S
C331 N332 1.299 . S
C331 N333 1.379 . S
N332 N329 1.398 . S
N332 C331 1.299 . S
N333 C330 1.367 . S
N333 C331 1.379 . S
C334 N336 1.298 . S
C334 N338 1.367 . S
C334 C342 1.481 . S
C335 N337 1.299 . S
C335 N338 1.379 . S
N336 Zn320 2.036 . S
N336 C334 1.298 . S
N336 N337 1.398 . S
N337 C335 1.299 . S
N337 N336 1.398 . S
N338 C334 1.367 . S
N338 C335 1.379 . S
H339 C342 0.980 . S
H340 C342 0.981 . S
H341 C342 0.981 . S
C342 C334 1.481 . S
C342 H339 0.980 . S
C342 H340 0.981 . S
C342 H341 0.981 . S
C343 C330 1.481 . S
C343 H344 0.980 . S
C343 H345 0.981 . S
C343 H346 0.981 . S
H344 C343 0.980 . S
H345 C343 0.981 . S
H346 C343 0.981 . S
O347 Zn323 2.066 . S
O347 C326 1.256 1_565 S
O348 Zn320 2.053 . S
O348 C326 1.244 1_565 S
C349 O327 1.259 . S
C349 O328 1.254 . S
O350 Zn320 2.066 . S
O350 C322 1.256 . S
O351 C322 1.244 . S
O351 Zn323 2.053 . S
Zn352 O353 2.055 . S
Zn352 O360 2.046 . S
Zn352 N368 2.036 . S
Zn352 O380 2.053 . S
Zn352 O382 2.066 . S
O353 Zn352 2.055 . S
O353 C356 1.259 . S
C354 O382 1.256 . S
C354 O383 1.244 . S
Zn355 O357 2.046 . S
Zn355 O359 2.055 . S
Zn355 N361 2.036 . S
Zn355 O379 2.066 . S
Zn355 O383 2.053 . S
C356 O353 1.259 . S
C356 O357 1.254 . S
O357 Zn355 2.046 . S
O357 C356 1.254 . S
C358 O379 1.256 . S
C358 O380 1.244 . S
O359 Zn355 2.055 . S
O359 C381 1.259 . S
O360 Zn352 2.046 . S
O360 C381 1.254 . S
N361 Zn355 2.036 . S
N361 C362 1.298 . S
N361 N364 1.398 . S
C362 N361 1.298 . S
C362 N365 1.367 . S
C362 C375 1.481 . S
C363 N364 1.299 . S
C363 N365 1.379 . S
N364 N361 1.398 . S
N364 C363 1.299 . S
N365 C362 1.367 . S
N365 C363 1.379 . S
C366 N368 1.298 . S
C366 N370 1.367 . S
C366 C374 1.481 . S
C367 N369 1.299 . S
C367 N370 1.379 . S
N368 Zn352 2.036 . S
N368 C366 1.298 . S
N368 N369 1.398 . S
N369 C367 1.299 . S
N369 N368 1.398 . S
N370 C366 1.367 . S
N370 C367 1.379 . S
H371 C374 0.980 . S
H372 C374 0.981 . S
H373 C374 0.981 . S
C374 C366 1.481 . S
C374 H371 0.980 . S
C374 H372 0.981 . S
C374 H373 0.981 . S
C375 C362 1.481 . S
C375 H376 0.980 . S
C375 H377 0.981 . S
C375 H378 0.981 . S
H376 C375 0.980 . S
H377 C375 0.981 . S
H378 C375 0.981 . S
O379 Zn355 2.066 . S
O379 C358 1.256 . S
O380 Zn352 2.053 . S
O380 C358 1.244 . S
C381 O359 1.259 . S
C381 O360 1.254 . S
O382 Zn352 2.066 . S
O382 C354 1.256 . S
O383 C354 1.244 . S
O383 Zn355 2.053 . S
Zn384 O385 2.055 . S
Zn384 O392 2.046 . S
Zn384 N400 2.036 . S
Zn384 O412 2.053 . S
Zn384 O414 2.066 . S
O385 Zn384 2.055 . S
O385 C388 1.259 . S
C386 O414 1.256 . S
C386 O415 1.244 . S
Zn387 O389 2.046 . S
Zn387 O391 2.055 . S
Zn387 N393 2.036 . S
Zn387 O411 2.066 . S
Zn387 O415 2.053 . S
C388 O385 1.259 . S
C388 O389 1.254 . S
O389 Zn387 2.046 . S
O389 C388 1.254 . S
C390 O411 1.256 . S
C390 O412 1.244 . S
O391 Zn387 2.055 . S
O391 C413 1.259 . S
O392 Zn384 2.046 . S
O392 C413 1.254 . S
N393 Zn387 2.036 . S
N393 C394 1.298 . S
N393 N396 1.398 . S
C394 N393 1.298 . S
C394 N397 1.367 . S
C394 C407 1.481 . S
C395 N396 1.299 . S
C395 N397 1.379 . S
N396 N393 1.398 . S
N396 C395 1.299 . S
N397 C394 1.367 . S
N397 C395 1.379 . S
C398 N400 1.298 . S
C398 N402 1.367 . S
C398 C406 1.481 . S
C399 N401 1.299 . S
C399 N402 1.379 . S
N400 Zn384 2.036 . S
N400 C398 1.298 . S
N400 N401 1.398 . S
N401 C399 1.299 . S
N401 N400 1.398 . S
N402 C398 1.367 . S
N402 C399 1.379 . S
H403 C406 0.980 . S
H404 C406 0.981 . S
H405 C406 0.981 . S
C406 C398 1.481 . S
C406 H403 0.980 . S
C406 H404 0.981 . S
C406 H405 0.981 . S
C407 C394 1.481 . S
C407 H408 0.980 . S
C407 H409 0.981 . S
C407 H410 0.981 . S
H408 C407 0.980 . S
H409 C407 0.981 . S
H410 C407 0.981 . S
O411 Zn387 2.066 . S
O411 C390 1.256 . S
O412 Zn384 2.053 . S
O412 C390 1.244 . S
C413 O391 1.259 . S
C413 O392 1.254 . S
O414 Zn384 2.066 . S
O414 C386 1.256 . S
O415 C386 1.244 . S
O415 Zn387 2.053 . S
Zn416 O417 2.055 . S
Zn416 O424 2.046 . S
Zn416 N432 2.036 . S
Zn416 O444 2.053 . S
Zn416 O446 2.066 . S
O417 Zn416 2.055 . S
O417 C420 1.259 . S
C418 O446 1.256 . S
C418 O447 1.244 . S
Zn419 O421 2.046 . S
Zn419 O423 2.055 . S
Zn419 N425 2.036 . S
Zn419 O443 2.066 . S
Zn419 O447 2.053 . S
C420 O417 1.259 . S
C420 O421 1.254 . S
O421 Zn419 2.046 . S
O421 C420 1.254 . S
C422 O443 1.256 . S
C422 O444 1.244 . S
O423 Zn419 2.055 . S
O423 C445 1.259 . S
O424 Zn416 2.046 . S
O424 C445 1.254 . S
N425 Zn419 2.036 . S
N425 C426 1.298 . S
N425 N428 1.398 . S
C426 N425 1.298 . S
C426 N429 1.367 . S
C426 C439 1.481 . S
C427 N428 1.299 . S
C427 N429 1.379 . S
N428 N425 1.398 . S
N428 C427 1.299 . S
N429 C426 1.367 . S
N429 C427 1.379 . S
C430 N432 1.298 . S
C430 N434 1.367 . S
C430 C438 1.481 . S
C431 N433 1.299 . S
C431 N434 1.379 . S
N432 Zn416 2.036 . S
N432 C430 1.298 . S
N432 N433 1.398 . S
N433 C431 1.299 . S
N433 N432 1.398 . S
N434 C430 1.367 . S
N434 C431 1.379 . S
H435 C438 0.980 . S
H436 C438 0.981 . S
H437 C438 0.981 . S
C438 C430 1.481 . S
C438 H435 0.980 . S
C438 H436 0.981 . S
C438 H437 0.981 . S
C439 C426 1.481 . S
C439 H440 0.980 . S
C439 H441 0.981 . S
C439 H442 0.981 . S
H440 C439 0.980 . S
H441 C439 0.981 . S
H442 C439 0.981 . S
O443 Zn419 2.066 . S
O443 C422 1.256 . S
O444 Zn416 2.053 . S
O444 C422 1.244 . S
C445 O423 1.259 . S
C445 O424 1.254 . S
O446 Zn416 2.066 . S
O446 C418 1.256 . S
O447 C418 1.244 . S
O447 Zn419 2.053 . S
Zn448 O449 2.055 . S
Zn448 O456 2.046 . S
Zn448 N464 2.036 . S
Zn448 O476 2.053 . S
Zn448 O478 2.066 . S
O449 Zn448 2.055 . S
O449 C452 1.259 . S
C450 O478 1.256 . S
C450 O479 1.244 . S
Zn451 O453 2.046 . S
Zn451 O455 2.055 . S
Zn451 N457 2.036 . S
Zn451 O475 2.066 . S
Zn451 O479 2.053 . S
C452 O449 1.259 . S
C452 O453 1.254 . S
O453 Zn451 2.046 . S
O453 C452 1.254 . S
C454 O475 1.256 1_455 S
C454 O476 1.244 1_455 S
O455 Zn451 2.055 . S
O455 C477 1.259 . S
O456 Zn448 2.046 . S
O456 C477 1.254 . S
N457 Zn451 2.036 . S
N457 C458 1.298 . S
N457 N460 1.398 . S
C458 N457 1.298 . S
C458 N461 1.367 . S
C458 C471 1.481 . S
C459 N460 1.299 . S
C459 N461 1.379 . S
N460 N457 1.398 . S
N460 C459 1.299 . S
N461 C458 1.367 . S
N461 C459 1.379 . S
C462 N464 1.298 . S
C462 N466 1.367 . S
C462 C470 1.481 . S
C463 N465 1.299 . S
C463 N466 1.379 . S
N464 Zn448 2.036 . S
N464 C462 1.298 . S
N464 N465 1.398 . S
N465 C463 1.299 . S
N465 N464 1.398 . S
N466 C462 1.367 . S
N466 C463 1.379 . S
H467 C470 0.980 . S
H468 C470 0.981 . S
H469 C470 0.981 . S
C470 C462 1.481 . S
C470 H467 0.980 . S
C470 H468 0.981 . S
C470 H469 0.981 . S
C471 C458 1.481 . S
C471 H472 0.980 . S
C471 H473 0.981 . S
C471 H474 0.981 . S
H472 C471 0.980 . S
H473 C471 0.981 . S
H474 C471 0.981 . S
O475 Zn451 2.066 . S
O475 C454 1.256 1_655 S
O476 Zn448 2.053 . S
O476 C454 1.244 1_655 S
C477 O455 1.259 . S
C477 O456 1.254 . S
O478 Zn448 2.066 . S
O478 C450 1.256 . S
O479 C450 1.244 . S
O479 Zn451 2.053 . S
Zn480 O481 2.055 . S
Zn480 O488 2.046 . S
Zn480 N496 2.036 . S
Zn480 O508 2.053 . S
Zn480 O510 2.066 . S
O481 Zn480 2.055 . S
O481 C484 1.259 . S
C482 O510 1.256 . S
C482 O511 1.244 . S
Zn483 O485 2.046 . S
Zn483 O487 2.055 . S
Zn483 N489 2.036 . S
Zn483 O507 2.066 . S
Zn483 O511 2.053 . S
C484 O481 1.259 . S
C484 O485 1.254 . S
O485 Zn483 2.046 . S
O485 C484 1.254 . S
C486 O507 1.256 . S
C486 O508 1.244 . S
O487 Zn483 2.055 . S
O487 C509 1.259 . S
O488 Zn480 2.046 . S
O488 C509 1.254 . S
N489 Zn483 2.036 . S
N489 C490 1.298 . S
N489 N492 1.398 . S
C490 N489 1.298 . S
C490 N493 1.367 . S
C490 C503 1.481 . S
C491 N492 1.299 . S
C491 N493 1.379 . S
N492 N489 1.398 . S
N492 C491 1.299 . S
N493 C490 1.367 . S
N493 C491 1.379 . S
C494 N496 1.298 . S
C494 N498 1.367 . S
C494 C502 1.481 . S
C495 N497 1.299 . S
C495 N498 1.379 . S
N496 Zn480 2.036 . S
N496 C494 1.298 . S
N496 N497 1.398 . S
N497 C495 1.299 . S
N497 N496 1.398 . S
N498 C494 1.367 . S
N498 C495 1.379 . S
H499 C502 0.980 . S
H500 C502 0.981 . S
H501 C502 0.981 . S
C502 C494 1.481 . S
C502 H499 0.980 . S
C502 H500 0.981 . S
C502 H501 0.981 . S
C503 C490 1.481 . S
C503 H504 0.980 . S
C503 H505 0.981 . S
C503 H506 0.981 . S
H504 C503 0.980 . S
H505 C503 0.981 . S
H506 C503 0.981 . S
O507 Zn483 2.066 . S
O507 C486 1.256 . S
O508 Zn480 2.053 . S
O508 C486 1.244 . S
C509 O487 1.259 . S
C509 O488 1.254 . S
O510 Zn480 2.066 . S
O510 C482 1.256 . S
O511 C482 1.244 . S
O511 Zn483 2.053 . S
Zn512 O513 2.055 . S
Zn512 O520 2.046 . S
Zn512 N528 2.036 . S
Zn512 O540 2.053 . S
Zn512 O542 2.066 . S
O513 Zn512 2.055 . S
O513 C516 1.259 . S
C514 O542 1.256 1_455 S
C514 O543 1.244 1_455 S
Zn515 O517 2.046 . S
Zn515 O519 2.055 . S
Zn515 N521 2.036 . S
Zn515 O539 2.066 . S
Zn515 O543 2.053 . S
C516 O513 1.259 . S
C516 O517 1.254 . S
O517 Zn515 2.046 . S
O517 C516 1.254 . S
C518 O539 1.256 . S
C518 O540 1.244 . S
O519 Zn515 2.055 . S
O519 C541 1.259 . S
O520 Zn512 2.046 . S
O520 C541 1.254 . S
N521 Zn515 2.036 . S
N521 C522 1.298 . S
N521 N524 1.398 . S
C522 N521 1.298 . S
C522 N525 1.367 . S
C522 C535 1.481 . S
C523 N524 1.299 . S
C523 N525 1.379 . S
N524 N521 1.398 . S
N524 C523 1.299 . S
N525 C522 1.367 . S
N525 C523 1.379 . S
C526 N528 1.298 . S
C526 N530 1.367 . S
C526 C534 1.481 . S
C527 N529 1.299 . S
C527 N530 1.379 . S
N528 Zn512 2.036 . S
N528 C526 1.298 . S
N528 N529 1.398 . S
N529 C527 1.299 . S
N529 N528 1.398 . S
N530 C526 1.367 . S
N530 C527 1.379 . S
H531 C534 0.980 . S
H532 C534 0.981 . S
H533 C534 0.981 . S
C534 C526 1.481 . S
C534 H531 0.980 . S
C534 H532 0.981 . S
C534 H533 0.981 . S
C535 C522 1.481 . S
C535 H536 0.980 . S
C535 H537 0.981 . S
C535 H538 0.981 . S
H536 C535 0.980 . S
H537 C535 0.981 . S
H538 C535 0.981 . S
O539 Zn515 2.066 . S
O539 C518 1.256 . S
O540 Zn512 2.053 . S
O540 C518 1.244 . S
C541 O519 1.259 . S
C541 O520 1.254 . S
O542 Zn512 2.066 . S
O542 C514 1.256 1_655 S
O543 C514 1.244 1_655 S
O543 Zn515 2.053 . S
Zn544 O545 2.055 . S
Zn544 O552 2.046 . S
Zn544 N560 2.036 . S
Zn544 O572 2.053 . S
Zn544 O574 2.066 . S
O545 Zn544 2.055 . S
O545 C548 1.259 . S
C546 O574 1.256 . S
C546 O575 1.244 . S
Zn547 O549 2.046 . S
Zn547 O551 2.055 . S
Zn547 N553 2.036 . S
Zn547 O571 2.066 . S
Zn547 O575 2.053 . S
C548 O545 1.259 . S
C548 O549 1.254 . S
O549 Zn547 2.046 . S
O549 C548 1.254 . S
C550 O571 1.256 . S
C550 O572 1.244 . S
O551 Zn547 2.055 . S
O551 C573 1.259 . S
O552 Zn544 2.046 . S
O552 C573 1.254 . S
N553 Zn547 2.036 . S
N553 C554 1.298 . S
N553 N556 1.398 . S
C554 N553 1.298 . S
C554 N557 1.367 . S
C554 C567 1.481 . S
C555 N556 1.299 . S
C555 N557 1.379 . S
N556 N553 1.398 . S
N556 C555 1.299 . S
N557 C554 1.367 . S
N557 C555 1.379 . S
C558 N560 1.298 . S
C558 N562 1.367 . S
C558 C566 1.481 . S
C559 N561 1.299 . S
C559 N562 1.379 . S
N560 Zn544 2.036 . S
N560 C558 1.298 . S
N560 N561 1.398 . S
N561 C559 1.299 . S
N561 N560 1.398 . S
N562 C558 1.367 . S
N562 C559 1.379 . S
H563 C566 0.980 . S
H564 C566 0.981 . S
H565 C566 0.981 . S
C566 C558 1.481 . S
C566 H563 0.980 . S
C566 H564 0.981 . S
C566 H565 0.981 . S
C567 C554 1.481 . S
C567 H568 0.980 . S
C567 H569 0.981 . S
C567 H570 0.981 . S
H568 C567 0.980 . S
H569 C567 0.981 . S
H570 C567 0.981 . S
O571 Zn547 2.066 . S
O571 C550 1.256 . S
O572 Zn544 2.053 . S
O572 C550 1.244 . S
C573 O551 1.259 . S
C573 O552 1.254 . S
O574 Zn544 2.066 . S
O574 C546 1.256 . S
O575 C546 1.244 . S
O575 Zn547 2.053 . S
C576 C577 1.369 . S
C576 C578 1.419 . S
C576 H580 0.930 . S
C577 C576 1.369 . S
C577 C586 1.429 . S
C578 C576 1.419 . S
C578 C579 1.363 . S
C578 H581 0.929 . S
C579 C578 1.363 . S
C579 C585 1.428 . S
H580 C576 0.930 . S
H581 C578 0.929 . S
S582 N583 1.613 . S
S582 N584 1.610 . S
N583 S582 1.613 . S
N583 C586 1.350 . S
N584 S582 1.610 . S
N584 C585 1.351 . S
C585 C579 1.428 . S
C585 N584 1.351 . S
C585 C586 1.434 . S
C586 C577 1.429 . S
C586 N583 1.350 . S
C586 C585 1.434 . S
C587 C588 1.369 . S
C587 C589 1.419 . S
C587 H591 0.930 . S
C588 C587 1.369 . S
C588 C597 1.429 . S
C589 C587 1.419 . S
C589 C590 1.363 . S
C589 H592 0.929 . S
C590 C589 1.363 . S
C590 C596 1.428 . S
H591 C587 0.930 . S
H592 C589 0.929 . S
S593 N594 1.613 . S
S593 N595 1.610 . S
N594 S593 1.613 . S
N594 C597 1.350 . S
N595 S593 1.610 . S
N595 C596 1.351 . S
C596 C590 1.428 . S
C596 N595 1.351 . S
C596 C597 1.434 . S
C597 C588 1.429 . S
C597 N594 1.350 . S
C597 C596 1.434 . S
C598 C599 1.369 . S
C598 C600 1.419 . S
C598 H602 0.930 . S
C599 C598 1.369 . S
C599 C608 1.429 . S
C600 C598 1.419 . S
C600 C601 1.363 . S
C600 H603 0.929 . S
C601 C600 1.363 . S
C601 C607 1.428 . S
H602 C598 0.930 . S
H603 C600 0.929 . S
S604 N605 1.613 . S
S604 N606 1.610 . S
N605 S604 1.613 . S
N605 C608 1.350 . S
N606 S604 1.610 . S
N606 C607 1.351 . S
C607 C601 1.428 . S
C607 N606 1.351 . S
C607 C608 1.434 . S
C608 C599 1.429 . S
C608 N605 1.350 . S
C608 C607 1.434 . S
C609 C610 1.369 . S
C609 C611 1.419 . S
C609 H613 0.930 . S
C610 C609 1.369 . S
C610 C619 1.429 . S
C611 C609 1.419 . S
C611 C612 1.363 . S
C611 H614 0.929 . S
C612 C611 1.363 . S
C612 C618 1.428 . S
H613 C609 0.930 . S
H614 C611 0.929 . S
S615 N616 1.613 . S
S615 N617 1.610 . S
N616 S615 1.613 . S
N616 C619 1.350 . S
N617 S615 1.610 . S
N617 C618 1.351 . S
C618 C612 1.428 . S
C618 N617 1.351 . S
C618 C619 1.434 . S
C619 C610 1.429 . S
C619 N616 1.350 . S
C619 C618 1.434 . S
C620 C621 1.369 . S
C620 C622 1.419 . S
C620 H624 0.930 . S
C621 C620 1.369 . S
C621 C630 1.429 . S
C622 C620 1.419 . S
C622 C623 1.363 . S
C622 H625 0.929 . S
C623 C622 1.363 . S
C623 C629 1.428 . S
H624 C620 0.930 . S
H625 C622 0.929 . S
S626 N627 1.613 . S
S626 N628 1.610 . S
N627 S626 1.613 . S
N627 C630 1.350 . S
N628 S626 1.610 . S
N628 C629 1.351 . S
C629 C623 1.428 . S
C629 N628 1.351 . S
C629 C630 1.434 . S
C630 C621 1.429 . S
C630 N627 1.350 . S
C630 C629 1.434 . S
C631 C632 1.369 . S
C631 C633 1.419 . S
C631 H635 0.930 . S
C632 C631 1.369 . S
C632 C641 1.429 . S
C633 C631 1.419 . S
C633 C634 1.363 . S
C633 H636 0.929 . S
C634 C633 1.363 . S
C634 C640 1.428 . S
H635 C631 0.930 . S
H636 C633 0.929 . S
S637 N638 1.613 . S
S637 N639 1.610 . S
N638 S637 1.613 . S
N638 C641 1.350 . S
N639 S637 1.610 . S
N639 C640 1.351 . S
C640 C634 1.428 . S
C640 N639 1.351 . S
C640 C641 1.434 . S
C641 C632 1.429 . S
C641 N638 1.350 . S
C641 C640 1.434 . S
C642 C643 1.369 . S
C642 C644 1.419 . S
C642 H646 0.930 . S
C643 C642 1.369 . S
C643 C652 1.429 . S
C644 C642 1.419 . S
C644 C645 1.363 . S
C644 H647 0.929 . S
C645 C644 1.363 . S
C645 C651 1.428 . S
H646 C642 0.930 . S
H647 C644 0.929 . S
S648 N649 1.613 . S
S648 N650 1.610 . S
N649 S648 1.613 . S
N649 C652 1.350 . S
N650 S648 1.610 . S
N650 C651 1.351 . S
C651 C645 1.428 . S
C651 N650 1.351 . S
C651 C652 1.434 . S
C652 C643 1.429 . S
C652 N649 1.350 . S
C652 C651 1.434 . S
C653 C654 1.369 . S
C653 C655 1.419 . S
C653 H657 0.930 1_655 S
C654 C653 1.369 . S
C654 C663 1.429 . S
C655 C653 1.419 . S
C655 C656 1.363 . S
C655 H658 0.929 . S
C656 C655 1.363 . S
C656 C662 1.428 . S
H657 C653 0.930 1_455 S
H658 C655 0.929 . S
S659 N660 1.613 . S
S659 N661 1.610 . S
N660 S659 1.613 . S
N660 C663 1.350 . S
N661 S659 1.610 . S
N661 C662 1.351 . S
C662 C656 1.428 . S
C662 N661 1.351 . S
C662 C663 1.434 . S
C663 C654 1.429 . S
C663 N660 1.350 . S
C663 C662 1.434 . S
C664 C665 1.369 1_655 S
C664 C666 1.419 . S
C664 H668 0.930 1_655 S
C665 C664 1.369 1_455 S
C665 C674 1.429 1_455 S
C666 C664 1.419 . S
C666 C667 1.363 . S
C666 H669 0.929 . S
C667 C666 1.363 . S
C667 C673 1.428 . S
H668 C664 0.930 1_455 S
H669 C666 0.929 . S
S670 N671 1.613 . S
S670 N672 1.610 . S
N671 S670 1.613 . S
N671 C674 1.350 . S
N672 S670 1.610 . S
N672 C673 1.351 . S
C673 C667 1.428 . S
C673 N672 1.351 . S
C673 C674 1.434 . S
C674 C665 1.429 1_655 S
C674 N671 1.350 . S
C674 C673 1.434 . S
C675 C676 1.369 . S
C675 C677 1.419 . S
C675 H679 0.930 1_565 S
C676 C675 1.369 . S
C676 C685 1.429 . S
C677 C675 1.419 . S
C677 C678 1.363 . S
C677 H680 0.929 . S
C678 C677 1.363 . S
C678 C684 1.428 . S
H679 C675 0.930 1_545 S
H680 C677 0.929 . S
S681 N682 1.613 . S
S681 N683 1.610 . S
N682 S681 1.613 . S
N682 C685 1.350 . S
N683 S681 1.610 . S
N683 C684 1.351 . S
C684 C678 1.428 . S
C684 N683 1.351 . S
C684 C685 1.434 . S
C685 C676 1.429 . S
C685 N682 1.350 . S
C685 C684 1.434 . S
C686 C687 1.369 . S
C686 C688 1.419 . S
C686 H690 0.930 . S
C687 C686 1.369 . S
C687 C696 1.429 . S
C688 C686 1.419 . S
C688 C689 1.363 . S
C688 H691 0.929 . S
C689 C688 1.363 . S
C689 C695 1.428 . S
H690 C686 0.930 . S
H691 C688 0.929 . S
S692 N693 1.613 . S
S692 N694 1.610 . S
N693 S692 1.613 . S
N693 C696 1.350 . S
N694 S692 1.610 . S
N694 C695 1.351 . S
C695 C689 1.428 . S
C695 N694 1.351 . S
C695 C696 1.434 . S
C696 C687 1.429 . S
C696 N693 1.350 . S
C696 C695 1.434 . S
C697 C698 1.369 . S
C697 C699 1.419 . S
C697 H701 0.930 . S
C698 C697 1.369 . S
C698 C707 1.429 . S
C699 C697 1.419 . S
C699 C700 1.363 . S
C699 H702 0.929 . S
C700 C699 1.363 . S
C700 C706 1.428 . S
H701 C697 0.930 . S
H702 C699 0.929 . S
S703 N704 1.613 . S
S703 N705 1.610 . S
N704 S703 1.613 . S
N704 C707 1.350 . S
N705 S703 1.610 . S
N705 C706 1.351 . S
C706 C700 1.428 . S
C706 N705 1.351 . S
C706 C707 1.434 . S
C707 C698 1.429 . S
C707 N704 1.350 . S
C707 C706 1.434 . S
C708 C709 1.369 . S
C708 C710 1.419 . S
C708 H712 0.930 . S
C709 C708 1.369 . S
C709 C718 1.429 . S
C710 C708 1.419 . S
C710 C711 1.363 . S
C710 H713 0.929 . S
C711 C710 1.363 . S
C711 C717 1.428 . S
H712 C708 0.930 . S
H713 C710 0.929 . S
S714 N715 1.613 1_455 S
S714 N716 1.610 . S
N715 S714 1.613 1_655 S
N715 C718 1.350 . S
N716 S714 1.610 . S
N716 C717 1.351 1_455 S
C717 C711 1.428 . S
C717 N716 1.351 1_655 S
C717 C718 1.434 . S
C718 C709 1.429 . S
C718 N715 1.350 . S
C718 C717 1.434 . S
C719 C720 1.369 . S
C719 C721 1.419 . S
C719 H723 0.930 . S
C720 C719 1.369 . S
C720 C729 1.429 . S
C721 C719 1.419 . S
C721 C722 1.363 . S
C721 H724 0.929 . S
C722 C721 1.363 . S
C722 C728 1.428 . S
H723 C719 0.930 . S
H724 C721 0.929 . S
S725 N726 1.613 . S
S725 N727 1.610 . S
N726 S725 1.613 . S
N726 C729 1.350 . S
N727 S725 1.610 . S
N727 C728 1.351 . S
C728 C722 1.428 . S
C728 N727 1.351 . S
C728 C729 1.434 . S
C729 C720 1.429 . S
C729 N726 1.350 . S
C729 C728 1.434 . S
C730 C731 1.369 . S
C730 C732 1.419 . S
C730 H734 0.930 . S
C731 C730 1.369 . S
C731 C740 1.429 . S
C732 C730 1.419 . S
C732 C733 1.363 . S
C732 H735 0.929 . S
C733 C732 1.363 . S
C733 C739 1.428 . S
H734 C730 0.930 . S
H735 C732 0.929 . S
S736 N737 1.613 . S
S736 N738 1.610 . S
N737 S736 1.613 . S
N737 C740 1.350 . S
N738 S736 1.610 . S
N738 C739 1.351 . S
C739 C733 1.428 . S
C739 N738 1.351 . S
C739 C740 1.434 . S
C740 C731 1.429 . S
C740 N737 1.350 . S
C740 C739 1.434 . S
C741 C742 1.369 . S
C741 C743 1.419 . S
C741 H745 0.930 . S
C742 C741 1.369 . S
C742 C751 1.429 . S
C743 C741 1.419 . S
C743 C744 1.363 . S
C743 H746 0.929 . S
C744 C743 1.363 . S
C744 C750 1.428 . S
H745 C741 0.930 . S
H746 C743 0.929 . S
S747 N748 1.613 . S
S747 N749 1.610 . S
N748 S747 1.613 . S
N748 C751 1.350 . S
N749 S747 1.610 . S
N749 C750 1.351 . S
C750 C744 1.428 . S
C750 N749 1.351 . S
C750 C751 1.434 . S
C751 C742 1.429 . S
C751 N748 1.350 . S
C751 C750 1.434 . S
C752 C753 1.369 . S
C752 C754 1.419 . S
C752 H756 0.930 . S
C753 C752 1.369 . S
C753 C762 1.429 . S
C754 C752 1.419 . S
C754 C755 1.363 1_565 S
C754 H757 0.929 . S
C755 C754 1.363 1_545 S
C755 C761 1.428 . S
H756 C752 0.930 . S
H757 C754 0.929 . S
S758 N759 1.613 1_445 S
S758 N760 1.610 1_455 S
N759 S758 1.613 1_665 S
N759 C762 1.350 . S
N760 S758 1.610 1_655 S
N760 C761 1.351 . S
C761 C755 1.428 . S
C761 N760 1.351 . S
C761 C762 1.434 1_545 S
C762 C753 1.429 . S
C762 N759 1.350 . S
C762 C761 1.434 1_565 S
C763 C764 1.369 . S
C763 C765 1.419 . S
C763 H767 0.930 . S
C764 C763 1.369 . S
C764 C773 1.429 1_565 S
C765 C763 1.419 . S
C765 C766 1.363 . S
C765 H768 0.929 . S
C766 C765 1.363 . S
C766 C772 1.428 . S
H767 C763 0.930 . S
H768 C765 0.929 . S
S769 N770 1.613 . S
S769 N771 1.610 1_545 S
N770 S769 1.613 . S
N770 C773 1.350 . S
N771 S769 1.610 1_565 S
N771 C772 1.351 . S
C772 C766 1.428 . S
C772 N771 1.351 . S
C772 C773 1.434 1_565 S
C773 C764 1.429 1_545 S
C773 N770 1.350 . S
C773 C772 1.434 1_545 S
C774 C775 1.369 1_565 S
C774 C776 1.419 1_554 S
C774 H778 0.930 . S
C775 C774 1.369 1_545 S
C775 C784 1.429 . S
C776 C774 1.419 1_556 S
C776 C777 1.363 1_565 S
C776 H779 0.929 . S
C777 C776 1.363 1_545 S
C777 C783 1.428 . S
H778 C774 0.930 . S
H779 C776 0.929 . S
S780 N781 1.613 1_556 S
S780 N782 1.610 . S
N781 S780 1.613 1_554 S
N781 C784 1.350 . S
N782 S780 1.610 . S
N782 C783 1.351 . S
C783 C777 1.428 . S
C783 N782 1.351 . S
C783 C784 1.434 1_556 S
C784 C775 1.429 . S
C784 N781 1.350 . S
C784 C783 1.434 1_554 S
C785 C786 1.369 . S
C785 C787 1.419 1_556 S
C785 H789 0.930 . S
C786 C785 1.369 . S
C786 C795 1.429 . S
C787 C785 1.419 1_554 S
C787 C788 1.363 . S
C787 H790 0.929 . S
C788 C787 1.363 . S
C788 C794 1.429 1_455 S
H789 C785 0.930 . S
H790 C787 0.929 . S
S791 N792 1.613 1_655 S
S791 N793 1.610 1_556 S
N792 S791 1.613 1_455 S
N792 C795 1.350 . S
N793 S791 1.610 1_554 S
N793 C794 1.351 . S
C794 C788 1.429 1_655 S
C794 N793 1.351 . S
C794 C795 1.433 1_654 S
C795 C786 1.429 . S
C795 N792 1.350 . S
C795 C794 1.433 1_456 S
C796 C797 1.369 . S
C796 C798 1.419 1_556 S
C796 H800 0.930 . S
C797 C796 1.369 . S
C797 C806 1.429 . S
C798 C796 1.419 1_554 S
C798 C799 1.363 . S
C798 H801 0.929 . S
C799 C798 1.363 . S
C799 C805 1.428 . S
H800 C796 0.930 . S
H801 C798 0.929 . S
S802 N803 1.613 1_554 S
S802 N804 1.610 . S
N803 S802 1.613 1_556 S
N803 C806 1.350 . S
N804 S802 1.610 . S
N804 C805 1.351 . S
C805 C799 1.428 . S
C805 N804 1.351 . S
C805 C806 1.434 1_554 S
C806 C797 1.429 . S
C806 N803 1.350 . S
C806 C805 1.434 1_556 S
C807 C808 1.369 . S
C807 C809 1.419 . S
C807 H811 0.930 . S
C808 C807 1.369 . S
C808 C817 1.429 . S
C809 C807 1.419 . S
C809 C810 1.363 . S
C809 H812 0.929 . S
C810 C809 1.363 . S
C810 C816 1.428 . S
H811 C807 0.930 . S
H812 C809 0.929 . S
S813 N814 1.613 . S
S813 N815 1.610 . S
N814 S813 1.613 . S
N814 C817 1.350 . S
N815 S813 1.610 . S
N815 C816 1.351 . S
C816 C810 1.428 . S
C816 N815 1.351 . S
C816 C817 1.434 . S
C817 C808 1.429 . S
C817 N814 1.350 . S
C817 C816 1.434 . S
C818 C819 1.369 . S
C818 C820 1.419 . S
C818 H822 0.930 . S
C819 C818 1.369 . S
C819 C828 1.429 . S
C820 C818 1.419 . S
C820 C821 1.363 . S
C820 H823 0.929 . S
C821 C820 1.363 . S
C821 C827 1.428 . S
H822 C818 0.930 . S
H823 C820 0.929 . S
S824 N825 1.613 . S
S824 N826 1.610 . S
N825 S824 1.613 . S
N825 C828 1.350 . S
N826 S824 1.610 . S
N826 C827 1.351 . S
C827 C821 1.428 . S
C827 N826 1.351 . S
C827 C828 1.434 . S
C828 C819 1.429 . S
C828 N825 1.350 . S
C828 C827 1.434 . S
C829 C830 1.369 . S
C829 C831 1.419 . S
C829 H833 0.930 . S
C830 C829 1.369 . S
C830 C839 1.429 . S
C831 C829 1.419 . S
C831 C832 1.363 . S
C831 H834 0.929 . S
C832 C831 1.363 . S
C832 C838 1.428 . S
H833 C829 0.930 . S
H834 C831 0.929 . S
S835 N836 1.613 . S
S835 N837 1.610 1_545 S
N836 S835 1.613 . S
N836 C839 1.350 1_545 S
N837 S835 1.610 1_565 S
N837 C838 1.351 . S
C838 C832 1.428 . S
C838 N837 1.351 . S
C838 C839 1.434 . S
C839 C830 1.429 . S
C839 N836 1.350 1_565 S
C839 C838 1.434 . S
C840 C841 1.369 . S
C840 C842 1.419 . S
C840 H844 0.930 . S
C841 C840 1.369 . S
C841 C850 1.429 . S
C842 C840 1.419 . S
C842 C843 1.363 . S
C842 H845 0.929 . S
C843 C842 1.363 . S
C843 C849 1.428 . S
H844 C840 0.930 . S
H845 C842 0.929 . S
S846 N847 1.613 1_455 S
S846 N848 1.610 1_455 S
N847 S846 1.613 1_655 S
N847 C850 1.350 . S
N848 S846 1.610 1_655 S
N848 C849 1.351 . S
C849 C843 1.428 . S
C849 N848 1.351 . S
C849 C850 1.434 . S
C850 C841 1.429 . S
C850 N847 1.350 . S
C850 C849 1.434 . S
C851 C852 1.369 . S
C851 C853 1.419 . S
C851 H855 0.930 . S
C852 C851 1.369 . S
C852 C861 1.429 . S
C853 C851 1.419 . S
C853 C854 1.363 . S
C853 H856 0.929 . S
C854 C853 1.363 . S
C854 C860 1.428 . S
H855 C851 0.930 . S
H856 C853 0.929 . S
S857 N858 1.613 . S
S857 N859 1.610 . S
N858 S857 1.613 . S
N858 C861 1.350 . S
N859 S857 1.610 . S
N859 C860 1.351 . S
C860 C854 1.428 . S
C860 N859 1.351 . S
C860 C861 1.434 . S
C861 C852 1.429 . S
C861 N858 1.350 . S
C861 C860 1.434 . S
C862 C863 1.369 . S
C862 C864 1.419 . S
C862 H866 0.930 . S
C863 C862 1.369 . S
C863 C872 1.429 . S
C864 C862 1.419 . S
C864 C865 1.363 . S
C864 H867 0.929 . S
C865 C864 1.363 . S
C865 C871 1.428 . S
H866 C862 0.930 . S
H867 C864 0.929 . S
S868 N869 1.613 . S
S868 N870 1.610 . S
N869 S868 1.613 . S
N869 C872 1.350 . S
N870 S868 1.610 . S
N870 C871 1.351 . S
C871 C865 1.428 . S
C871 N870 1.351 . S
C871 C872 1.434 . S
C872 C863 1.429 . S
C872 N869 1.350 . S
C872 C871 1.434 . S
C873 C874 1.369 . S
C873 C875 1.419 . S
C873 H877 0.930 1_565 S
C874 C873 1.369 . S
C874 C883 1.429 . S
C875 C873 1.419 . S
C875 C876 1.363 . S
C875 H878 0.929 1_565 S
C876 C875 1.363 . S
C876 C882 1.428 . S
H877 C873 0.930 1_545 S
H878 C875 0.929 1_545 S
S879 N880 1.613 . S
S879 N881 1.610 . S
N880 S879 1.613 . S
N880 C883 1.350 . S
N881 S879 1.610 . S
N881 C882 1.351 . S
C882 C876 1.428 . S
C882 N881 1.351 . S
C882 C883 1.434 . S
C883 C874 1.429 . S
C883 N880 1.350 . S
C883 C882 1.434 . S
C884 C885 1.369 . S
C884 C886 1.419 . S
C884 H888 0.930 . S
C885 C884 1.369 . S
C885 C894 1.429 . S
C886 C884 1.419 . S
C886 C887 1.363 . S
C886 H889 0.929 . S
C887 C886 1.363 . S
C887 C893 1.428 . S
H888 C884 0.930 . S
H889 C886 0.929 . S
S890 N891 1.613 . S
S890 N892 1.610 . S
N891 S890 1.613 . S
N891 C894 1.350 . S
N892 S890 1.610 . S
N892 C893 1.351 . S
C893 C887 1.428 . S
C893 N892 1.351 . S
C893 C894 1.434 . S
C894 C885 1.429 . S
C894 N891 1.350 . S
C894 C893 1.434 . S
C895 C896 1.369 . S
C895 C897 1.419 . S
C895 H899 0.930 . S
C896 C895 1.369 . S
C896 C905 1.429 . S
C897 C895 1.419 . S
C897 C898 1.363 . S
C897 H900 0.929 . S
C898 C897 1.363 . S
C898 C904 1.428 . S
H899 C895 0.930 . S
H900 C897 0.929 . S
S901 N902 1.613 . S
S901 N903 1.610 . S
N902 S901 1.613 . S
N902 C905 1.350 . S
N903 S901 1.610 . S
N903 C904 1.351 . S
C904 C898 1.428 . S
C904 N903 1.351 . S
C904 C905 1.434 . S
C905 C896 1.429 . S
C905 N902 1.350 . S
C905 C904 1.434 . S
C906 C907 1.369 1_455 S
C906 C908 1.419 1_455 S
C906 H910 0.930 . S
C907 C906 1.369 1_655 S
C907 C916 1.429 . S
C908 C906 1.419 1_655 S
C908 C909 1.363 . S
C908 H911 0.929 1_655 S
C909 C908 1.363 . S
C909 C915 1.428 . S
H910 C906 0.930 . S
H911 C908 0.929 1_455 S
S912 N913 1.613 . S
S912 N914 1.610 . S
N913 S912 1.613 . S
N913 C916 1.350 . S
N914 S912 1.610 . S
N914 C915 1.351 . S
C915 C909 1.428 . S
C915 N914 1.351 . S
C915 C916 1.434 . S
C916 C907 1.429 . S
C916 N913 1.350 . S
C916 C915 1.434 . S
C917 C918 1.369 . S
C917 C919 1.419 . S
C917 H921 0.930 . S
C918 C917 1.369 . S
C918 C927 1.429 . S
C919 C917 1.419 . S
C919 C920 1.363 . S
C919 H922 0.929 . S
C920 C919 1.363 . S
C920 C926 1.428 . S
H921 C917 0.930 . S
H922 C919 0.929 . S
S923 N924 1.613 . S
S923 N925 1.610 . S
N924 S923 1.613 . S
N924 C927 1.350 . S
N925 S923 1.610 . S
N925 C926 1.351 . S
C926 C920 1.428 . S
C926 N925 1.351 . S
C926 C927 1.434 . S
C927 C918 1.429 . S
C927 N924 1.350 . S
C927 C926 1.434 . S
C928 C929 1.369 . S
C928 C930 1.419 . S
C928 H932 0.930 . S
C929 C928 1.369 . S
C929 C938 1.429 . S
C930 C928 1.419 . S
C930 C931 1.363 . S
C930 H933 0.929 . S
C931 C930 1.363 . S
C931 C937 1.428 . S
H932 C928 0.930 . S
H933 C930 0.929 . S
S934 N935 1.613 . S
S934 N936 1.610 . S
N935 S934 1.613 . S
N935 C938 1.350 . S
N936 S934 1.610 . S
N936 C937 1.351 . S
C937 C931 1.428 . S
C937 N936 1.351 . S
C937 C938 1.434 . S
C938 C929 1.429 . S
C938 N935 1.350 . S
C938 C937 1.434 . S
C939 C940 1.369 . S
C939 C941 1.419 . S
C939 H943 0.930 . S
C940 C939 1.369 . S
C940 C949 1.429 1_655 S
C941 C939 1.419 . S
C941 C942 1.362 1_655 S
C941 H944 0.929 . S
C942 C941 1.362 1_455 S
C942 C948 1.428 . S
H943 C939 0.930 . S
H944 C941 0.929 . S
S945 N946 1.613 . S
S945 N947 1.610 . S
N946 S945 1.613 . S
N946 C949 1.350 . S
N947 S945 1.610 . S
N947 C948 1.351 . S
C948 C942 1.428 . S
C948 N947 1.351 . S
C948 C949 1.434 . S
C949 C940 1.429 1_455 S
C949 N946 1.350 . S
C949 C948 1.434 . S
C950 C951 1.369 . S
C950 C952 1.419 . S
C950 H954 0.930 . S
C951 C950 1.369 . S
C951 C960 1.429 . S
C952 C950 1.419 . S
C952 C953 1.363 . S
C952 H955 0.929 . S
C953 C952 1.363 . S
C953 C959 1.428 . S
H954 C950 0.930 . S
H955 C952 0.929 . S
S956 N957 1.613 . S
S956 N958 1.610 . S
N957 S956 1.613 . S
N957 C960 1.350 . S
N958 S956 1.610 . S
N958 C959 1.351 . S
C959 C953 1.428 . S
C959 N958 1.351 . S
C959 C960 1.434 . S
C960 C951 1.429 . S
C960 N957 1.350 . S
C960 C959 1.434 . S
C961 C962 1.369 . S
C961 C963 1.419 . S
C961 H965 0.930 . S
C962 C961 1.369 . S
C962 C971 1.429 1_565 S
C963 C961 1.419 . S
C963 C964 1.363 1_565 S
C963 H966 0.929 . S
C964 C963 1.363 1_545 S
C964 C970 1.428 . S
H965 C961 0.930 . S
H966 C963 0.929 . S
S967 N968 1.613 . S
S967 N969 1.610 . S
N968 S967 1.613 . S
N968 C971 1.350 . S
N969 S967 1.610 . S
N969 C970 1.351 . S
C970 C964 1.428 . S
C970 N969 1.351 . S
C970 C971 1.434 . S
C971 C962 1.429 1_545 S
C971 N968 1.350 . S
C971 C970 1.434 . S
C972 C973 1.369 . S
C972 C974 1.419 . S
C972 H976 0.930 . S
C973 C972 1.369 . S
C973 C982 1.429 . S
C974 C972 1.419 . S
C974 C975 1.363 . S
C974 H977 0.929 . S
C975 C974 1.363 . S
C975 C981 1.428 . S
H976 C972 0.930 . S
H977 C974 0.929 . S
S978 N979 1.613 . S
S978 N980 1.610 . S
N979 S978 1.613 . S
N979 C982 1.350 . S
N980 S978 1.610 . S
N980 C981 1.351 . S
C981 C975 1.428 . S
C981 N980 1.351 . S
C981 C982 1.434 . S
C982 C973 1.429 . S
C982 N979 1.350 . S
C982 C981 1.434 . S
C983 C984 1.369 . S
C983 C985 1.419 . S
C983 H987 0.930 . S
C984 C983 1.369 . S
C984 C993 1.429 . S
C985 C983 1.419 . S
C985 C986 1.363 . S
C985 H988 0.929 . S
C986 C985 1.363 . S
C986 C992 1.428 . S
H987 C983 0.930 . S
H988 C985 0.929 . S
S989 N990 1.613 . S
S989 N991 1.610 . S
N990 S989 1.613 . S
N990 C993 1.350 . S
N991 S989 1.610 . S
N991 C992 1.351 . S
C992 C986 1.428 . S
C992 N991 1.351 . S
C992 C993 1.434 . S
C993 C984 1.429 . S
C993 N990 1.350 . S
C993 C992 1.434 . S
C994 C995 1.369 . S
C994 C996 1.419 . S
C994 H998 0.930 . S
C995 C994 1.369 . S
C995 C1004 1.429 . S
C996 C994 1.419 . S
C996 C997 1.363 . S
C996 H999 0.929 . S
C997 C996 1.363 . S
C997 C1003 1.428 . S
H998 C994 0.930 . S
H999 C996 0.929 . S
S1000 N1001 1.613 . S
S1000 N1002 1.610 . S
N1001 S1000 1.613 . S
N1001 C1004 1.350 . S
N1002 S1000 1.610 . S
N1002 C1003 1.351 . S
C1003 C997 1.428 . S
C1003 N1002 1.351 . S
C1003 C1004 1.434 . S
C1004 C995 1.429 . S
C1004 N1001 1.350 . S
C1004 C1003 1.434 . S
C1005 C1006 1.369 . S
C1005 C1007 1.419 . S
C1005 H1009 0.930 . S
C1006 C1005 1.369 . S
C1006 C1015 1.429 . S
C1007 C1005 1.419 . S
C1007 C1008 1.363 . S
C1007 H1010 0.929 . S
C1008 C1007 1.363 . S
C1008 C1014 1.428 . S
H1009 C1005 0.930 . S
H1010 C1007 0.929 . S
S1011 N1012 1.613 . S
S1011 N1013 1.610 . S
N1012 S1011 1.613 . S
N1012 C1015 1.350 . S
N1013 S1011 1.610 . S
N1013 C1014 1.351 . S
C1014 C1008 1.428 . S
C1014 N1013 1.351 . S
C1014 C1015 1.434 . S
C1015 C1006 1.429 . S
C1015 N1012 1.350 . S
C1015 C1014 1.434 . S
C1016 C1017 1.369 . S
C1016 C1018 1.419 . S
C1016 H1020 0.930 . S
C1017 C1016 1.369 . S
C1017 C1026 1.429 . S
C1018 C1016 1.419 . S
C1018 C1019 1.363 . S
C1018 H1021 0.929 . S
C1019 C1018 1.363 . S
C1019 C1025 1.428 . S
H1020 C1016 0.930 . S
H1021 C1018 0.929 . S
S1022 N1023 1.613 . S
S1022 N1024 1.610 . S
N1023 S1022 1.613 . S
N1023 C1026 1.350 . S
N1024 S1022 1.610 . S
N1024 C1025 1.351 . S
C1025 C1019 1.428 . S
C1025 N1024 1.351 . S
C1025 C1026 1.434 . S
C1026 C1017 1.429 . S
C1026 N1023 1.350 . S
C1026 C1025 1.434 . S
C1027 C1028 1.369 . S
C1027 C1029 1.419 . S
C1027 H1031 0.930 . S
C1028 C1027 1.369 . S
C1028 C1037 1.429 . S
C1029 C1027 1.419 . S
C1029 C1030 1.363 . S
C1029 H1032 0.929 . S
C1030 C1029 1.363 . S
C1030 C1036 1.428 . S
H1031 C1027 0.930 . S
H1032 C1029 0.929 . S
S1033 N1034 1.613 . S
S1033 N1035 1.610 . S
N1034 S1033 1.613 . S
N1034 C1037 1.350 . S
N1035 S1033 1.610 . S
N1035 C1036 1.351 . S
C1036 C1030 1.428 . S
C1036 N1035 1.351 . S
C1036 C1037 1.434 . S
C1037 C1028 1.429 . S
C1037 N1034 1.350 . S
C1037 C1036 1.434 . S
C1038 C1039 1.369 . S
C1038 C1040 1.419 . S
C1038 H1042 0.930 . S
C1039 C1038 1.369 . S
C1039 C1048 1.429 . S
C1040 C1038 1.419 . S
C1040 C1041 1.363 . S
C1040 H1043 0.929 . S
C1041 C1040 1.363 . S
C1041 C1047 1.428 . S
H1042 C1038 0.930 . S
H1043 C1040 0.929 . S
S1044 N1045 1.613 . S
S1044 N1046 1.610 . S
N1045 S1044 1.613 . S
N1045 C1048 1.350 . S
N1046 S1044 1.610 . S
N1046 C1047 1.351 . S
C1047 C1041 1.428 . S
C1047 N1046 1.351 . S
C1047 C1048 1.434 . S
C1048 C1039 1.429 . S
C1048 N1045 1.350 . S
C1048 C1047 1.434 . S
C1049 C1050 1.369 . S
C1049 C1051 1.419 . S
C1049 H1053 0.930 . S
C1050 C1049 1.369 . S
C1050 C1059 1.429 . S
C1051 C1049 1.419 . S
C1051 C1052 1.363 . S
C1051 H1054 0.929 . S
C1052 C1051 1.363 . S
C1052 C1058 1.428 . S
H1053 C1049 0.930 . S
H1054 C1051 0.929 . S
S1055 N1056 1.613 . S
S1055 N1057 1.610 . S
N1056 S1055 1.613 . S
N1056 C1059 1.350 . S
N1057 S1055 1.610 . S
N1057 C1058 1.351 . S
C1058 C1052 1.428 . S
C1058 N1057 1.351 . S
C1058 C1059 1.434 . S
C1059 C1050 1.429 . S
C1059 N1056 1.350 . S
C1059 C1058 1.434 . S
C1060 C1061 1.369 . S
C1060 C1062 1.419 . S
C1060 H1064 0.930 . S
C1061 C1060 1.369 . S
C1061 C1070 1.429 . S
C1062 C1060 1.419 . S
C1062 C1063 1.363 . S
C1062 H1065 0.929 . S
C1063 C1062 1.363 . S
C1063 C1069 1.428 . S
H1064 C1060 0.930 . S
H1065 C1062 0.929 . S
S1066 N1067 1.613 1_545 S
S1066 N1068 1.610 . S
N1067 S1066 1.613 1_565 S
N1067 C1070 1.350 . S
N1068 S1066 1.610 . S
N1068 C1069 1.351 1_545 S
C1069 C1063 1.428 . S
C1069 N1068 1.351 1_565 S
C1069 C1070 1.434 . S
C1070 C1061 1.429 . S
C1070 N1067 1.350 . S
C1070 C1069 1.434 . S
C1071 C1072 1.369 . S
C1071 C1073 1.419 . S
C1071 H1075 0.930 . S
C1072 C1071 1.369 . S
C1072 C1081 1.429 . S
C1073 C1071 1.419 . S
C1073 C1074 1.363 1_655 S
C1073 H1076 0.929 1_655 S
C1074 C1073 1.363 1_455 S
C1074 C1080 1.428 1_455 S
H1075 C1071 0.930 . S
H1076 C1073 0.929 1_455 S
S1077 N1078 1.613 . S
S1077 N1079 1.610 . S
N1078 S1077 1.613 . S
N1078 C1081 1.350 . S
N1079 S1077 1.610 . S
N1079 C1080 1.351 . S
C1080 C1074 1.428 1_655 S
C1080 N1079 1.351 . S
C1080 C1081 1.434 . S
C1081 C1072 1.429 . S
C1081 N1078 1.350 . S
C1081 C1080 1.434 . S
C1082 C1083 1.369 . S
C1082 C1084 1.419 . S
C1082 H1086 0.930 . S
C1083 C1082 1.369 . S
C1083 C1092 1.429 . S
C1084 C1082 1.419 . S
C1084 C1085 1.363 . S
C1084 H1087 0.929 . S
C1085 C1084 1.363 . S
C1085 C1091 1.428 . S
H1086 C1082 0.930 . S
H1087 C1084 0.929 . S
S1088 N1089 1.613 . S
S1088 N1090 1.610 . S
N1089 S1088 1.613 . S
N1089 C1092 1.350 . S
N1090 S1088 1.610 . S
N1090 C1091 1.351 . S
C1091 C1085 1.428 . S
C1091 N1090 1.351 . S
C1091 C1092 1.434 . S
C1092 C1083 1.429 . S
C1092 N1089 1.350 . S
C1092 C1091 1.434 . S
C1093 C1094 1.369 . S
C1093 C1095 1.419 . S
C1093 H1097 0.930 . S
C1094 C1093 1.369 . S
C1094 C1103 1.429 . S
C1095 C1093 1.419 . S
C1095 C1096 1.363 . S
C1095 H1098 0.929 1_655 S
C1096 C1095 1.363 . S
C1096 C1102 1.428 . S
H1097 C1093 0.930 . S
H1098 C1095 0.929 1_455 S
S1099 N1100 1.613 . S
S1099 N1101 1.610 . S
N1100 S1099 1.613 . S
N1100 C1103 1.350 . S
N1101 S1099 1.610 . S
N1101 C1102 1.351 . S
C1102 C1096 1.428 . S
C1102 N1101 1.351 . S
C1102 C1103 1.434 . S
C1103 C1094 1.429 . S
C1103 N1100 1.350 . S
C1103 C1102 1.434 . S
C1104 C1105 1.369 . S
C1104 C1106 1.419 . S
C1104 H1108 0.930 . S
C1105 C1104 1.369 . S
C1105 C1114 1.429 . S
C1106 C1104 1.419 . S
C1106 C1107 1.363 1_565 S
C1106 H1109 0.929 . S
C1107 C1106 1.363 1_545 S
C1107 C1113 1.428 1_545 S
H1108 C1104 0.930 . S
H1109 C1106 0.929 . S
S1110 N1111 1.613 . S
S1110 N1112 1.610 1_565 S
N1111 S1110 1.613 . S
N1111 C1114 1.350 . S
N1112 S1110 1.610 1_545 S
N1112 C1113 1.351 1_545 S
C1113 C1107 1.428 1_565 S
C1113 N1112 1.351 1_565 S
C1113 C1114 1.434 . S
C1114 C1105 1.429 . S
C1114 N1111 1.350 . S
C1114 C1113 1.434 . S
C1115 C1116 1.369 . S
C1115 C1117 1.419 . S
C1115 H1119 0.930 1_565 S
C1116 C1115 1.369 . S
C1116 C1125 1.429 . S
C1117 C1115 1.419 . S
C1117 C1118 1.363 . S
C1117 H1120 0.929 . S
C1118 C1117 1.363 . S
C1118 C1124 1.428 . S
H1119 C1115 0.930 1_545 S
H1120 C1117 0.929 . S
S1121 N1122 1.613 . S
S1121 N1123 1.610 . S
N1122 S1121 1.613 . S
N1122 C1125 1.350 . S
N1123 S1121 1.610 . S
N1123 C1124 1.351 . S
C1124 C1118 1.428 . S
C1124 N1123 1.351 . S
C1124 C1125 1.434 . S
C1125 C1116 1.429 . S
C1125 N1122 1.350 . S
C1125 C1124 1.434 . S
C1126 C1127 1.369 . S
C1126 C1128 1.419 . S
C1126 H1130 0.930 . S
C1127 C1126 1.369 . S
C1127 C1136 1.429 . S
C1128 C1126 1.419 . S
C1128 C1129 1.363 . S
C1128 H1131 0.929 . S
C1129 C1128 1.363 . S
C1129 C1135 1.428 . S
H1130 C1126 0.930 . S
H1131 C1128 0.929 . S
S1132 N1133 1.613 . S
S1132 N1134 1.610 . S
N1133 S1132 1.613 . S
N1133 C1136 1.350 . S
N1134 S1132 1.610 . S
N1134 C1135 1.351 . S
C1135 C1129 1.428 . S
C1135 N1134 1.351 . S
C1135 C1136 1.434 . S
C1136 C1127 1.429 . S
C1136 N1133 1.350 . S
C1136 C1135 1.434 . S
C1137 C1138 1.369 . S
C1137 C1139 1.419 . S
C1137 H1141 0.930 . S
C1138 C1137 1.369 . S
C1138 C1147 1.429 . S
C1139 C1137 1.419 . S
C1139 C1140 1.363 . S
C1139 H1142 0.929 . S
C1140 C1139 1.363 . S
C1140 C1146 1.428 . S
H1141 C1137 0.930 . S
H1142 C1139 0.929 . S
S1143 N1144 1.613 . S
S1143 N1145 1.610 . S
N1144 S1143 1.613 . S
N1144 C1147 1.350 . S
N1145 S1143 1.610 . S
N1145 C1146 1.351 . S
C1146 C1140 1.428 . S
C1146 N1145 1.351 . S
C1146 C1147 1.434 . S
C1147 C1138 1.429 . S
C1147 N1144 1.350 . S
C1147 C1146 1.434 . S
C1148 C1149 1.369 . S
C1148 C1150 1.419 . S
C1148 H1152 0.930 . S
C1149 C1148 1.369 . S
C1149 C1158 1.429 . S
C1150 C1148 1.419 . S
C1150 C1151 1.363 . S
C1150 H1153 0.929 . S
C1151 C1150 1.363 . S
C1151 C1157 1.428 . S
H1152 C1148 0.930 . S
H1153 C1150 0.929 . S
S1154 N1155 1.613 . S
S1154 N1156 1.610 . S
N1155 S1154 1.613 . S
N1155 C1158 1.350 1_455 S
N1156 S1154 1.610 . S
N1156 C1157 1.351 1_455 S
C1157 C1151 1.428 . S
C1157 N1156 1.351 1_655 S
C1157 C1158 1.434 . S
C1158 C1149 1.429 . S
C1158 N1155 1.350 1_655 S
C1158 C1157 1.434 . S
C1159 C1160 1.369 . S
C1159 C1161 1.419 . S
C1159 H1163 0.930 . S
C1160 C1159 1.369 . S
C1160 C1169 1.429 . S
C1161 C1159 1.419 . S
C1161 C1162 1.363 . S
C1161 H1164 0.929 . S
C1162 C1161 1.363 . S
C1162 C1168 1.428 . S
H1163 C1159 0.930 . S
H1164 C1161 0.929 . S
S1165 N1166 1.613 . S
S1165 N1167 1.610 . S
N1166 S1165 1.613 . S
N1166 C1169 1.350 . S
N1167 S1165 1.610 . S
N1167 C1168 1.351 . S
C1168 C1162 1.428 . S
C1168 N1167 1.351 . S
C1168 C1169 1.434 . S
C1169 C1160 1.429 . S
C1169 N1166 1.350 . S
C1169 C1168 1.434 . S
C577 C29 1.028 . S
C579 C66 1.016 . S
C588 C6 1.019 . S
C590 C61 1.026 . S
C599 C38 1.022 . S
C601 C68 1.026 . S
C610 C100 1.025 . S
C612 C130 1.021 . S
C621 C166 1.022 . S
C623 C132 1.027 . S
C632 C189 1.028 . S
C634 C98 1.016 . S
C643 C262 1.018 . S
C645 C196 1.026 . S
C654 C194 1.023 1_655 S
C656 C253 1.025 1_545 S
C665 C285 1.024 . S
C667 C230 1.022 . S
C676 C322 1.017 . S
C678 C292 1.028 . S
C687 C324 1.029 . S
C689 C358 1.017 . S
C698 C290 1.016 . S
C700 C381 1.027 . S
C709 C413 1.025 . S
C711 C450 1.022 . S
C720 C390 1.015 . S
C722 C445 1.028 . S
C731 C422 1.017 . S
C733 C452 1.028 . S
C742 C514 1.022 . S
C744 C509 1.025 . S
C753 C550 1.017 . S
C755 C516 1.027 . S
C764 C486 1.016 1_565 S
C766 C573 1.028 1_455 S
C775 N18 1.528 . S
C777 N178 1.517 . S
C786 N109 1.518 . S
C788 N50 1.525 . S
C797 N141 1.527 . S
C799 N77 1.518 . S
C808 N205 1.525 . S
C810 N370 1.519 . S
C819 N242 1.526 . S
C821 N301 1.519 . S
C830 N333 1.527 . S
C832 N274 1.518 . S
C841 N402 1.524 . S
C843 N562 1.520 . S
C852 N498 1.526 . S
C854 N434 1.520 . S
C863 N525 1.528 . S
C865 N461 1.518 . S
C874 N338 1.630 . S
C876 N13 1.629 . S
C885 N45 1.625 . S
C887 N365 1.627 . S
C896 N306 1.629 . S
C898 N82 1.628 . S
C907 N114 1.629 . S
C909 N466 1.629 . S
C918 N146 1.631 . S
C920 N397 1.630 . S
C929 N429 1.630 . S
C931 N173 1.630 . S
C940 N530 1.625 . S
C942 N210 1.626 . S
C951 N237 1.624 . S
C953 N557 1.625 . S
C962 N269 1.625 . S
C964 N493 1.626 . S
C973 C93 1.495 . S
C975 C2 1.480 . S
C984 C4 1.493 . S
C986 C34 1.482 . S
C995 C70 1.482 . S
C997 C36 1.493 . S
C1006 C157 1.496 . S
C1008 C102 1.480 . S
C1017 C164 1.493 . S
C1019 C134 1.481 . S
C1028 C162 1.478 . S
C1030 C125 1.495 . S
C1039 C260 1.495 . S
C1041 C198 1.481 . S
C1050 C226 1.484 . S
C1052 C221 1.493 . S
C1061 C228 1.493 . S
C1063 C258 1.484 . S
C1072 C294 1.484 . S
C1074 C349 1.493 . S
C1083 C326 1.479 . S
C1085 C356 1.495 . S
C1094 C317 1.495 1_545 S
C1096 C354 1.481 1_655 S
C1105 C386 1.482 . S
C1107 C477 1.493 . S
C1116 C418 1.484 1_565 S
C1118 C388 1.493 1_455 S
C1127 C420 1.493 . S
C1129 C454 1.483 . S
C1138 C482 1.479 . S
C1140 C541 1.496 . S
C1149 C518 1.484 . S
C1151 C548 1.494 . S
C1160 C484 1.495 . S
C1162 C546 1.481 . S
