# Generated by pormake.
# Topology sxf, (6)-cn, num edge types: 1
# Building blocks:
#     Node 0, Type 0, BuildingBlock: OJICUG_clean_sbu_0, # of connection points: 6
#     Node 1, Type 0, BuildingBlock: OJICUG_clean_sbu_0, # of connection points: 6
#     Node 2, Type 0, BuildingBlock: OJICUG_clean_sbu_0, # of connection points: 6
#     Node 3, Type 0, BuildingBlock: OJICUG_clean_sbu_0, # of connection points: 6
#     Node 4, Type 0, BuildingBlock: OJICUG_clean_sbu_0, # of connection points: 6
#     Node 5, Type 0, BuildingBlock: OJICUG_clean_sbu_0, # of connection points: 6
#     Node 6, Type 0, BuildingBlock: OJICUG_clean_sbu_0, # of connection points: 6
#     Node 7, Type 0, BuildingBlock: OJICUG_clean_sbu_0, # of connection points: 6
#     Node 8, Type 0, BuildingBlock: OJICUG_clean_sbu_0, # of connection points: 6
#     Node 9, Type 0, BuildingBlock: OJICUG_clean_sbu_0, # of connection points: 6
#     Node 10, Type 0, BuildingBlock: OJICUG_clean_sbu_0, # of connection points: 6
#     Node 11, Type 0, BuildingBlock: OJICUG_clean_sbu_0, # of connection points: 6
#     Node 12, Type 0, BuildingBlock: OJICUG_clean_sbu_0, # of connection points: 6
#     Node 13, Type 0, BuildingBlock: OJICUG_clean_sbu_0, # of connection points: 6
#     Node 14, Type 0, BuildingBlock: OJICUG_clean_sbu_0, # of connection points: 6
#     Node 15, Type 0, BuildingBlock: OJICUG_clean_sbu_0, # of connection points: 6
#     Node 16, Type 0, BuildingBlock: OJICUG_clean_sbu_0, # of connection points: 6
#     Node 17, Type 0, BuildingBlock: OJICUG_clean_sbu_0, # of connection points: 6
#     Node 18, Type 0, BuildingBlock: OJICUG_clean_sbu_0, # of connection points: 6
#     Node 19, Type 0, BuildingBlock: OJICUG_clean_sbu_0, # of connection points: 6
#     Node 20, Type 0, BuildingBlock: OJICUG_clean_sbu_0, # of connection points: 6
#     Node 21, Type 0, BuildingBlock: OJICUG_clean_sbu_0, # of connection points: 6
#     Node 22, Type 0, BuildingBlock: OJICUG_clean_sbu_0, # of connection points: 6
#     Node 23, Type 0, BuildingBlock: OJICUG_clean_sbu_0, # of connection points: 6
#     Edge 24, Type (0, 0), BuildingBlock: KIFKEQ_clean_linker_1, # of connection points: 2
#     Edge 25, Type (0, 0), BuildingBlock: KIFKEQ_clean_linker_1, # of connection points: 2
#     Edge 26, Type (0, 0), BuildingBlock: KIFKEQ_clean_linker_1, # of connection points: 2
#     Edge 27, Type (0, 0), BuildingBlock: KIFKEQ_clean_linker_1, # of connection points: 2
#     Edge 28, Type (0, 0), BuildingBlock: KIFKEQ_clean_linker_1, # of connection points: 2
#     Edge 29, Type (0, 0), BuildingBlock: KIFKEQ_clean_linker_1, # of connection points: 2
#     Edge 30, Type (0, 0), BuildingBlock: KIFKEQ_clean_linker_1, # of connection points: 2
#     Edge 31, Type (0, 0), BuildingBlock: KIFKEQ_clean_linker_1, # of connection points: 2
#     Edge 32, Type (0, 0), BuildingBlock: KIFKEQ_clean_linker_1, # of connection points: 2
#     Edge 33, Type (0, 0), BuildingBlock: KIFKEQ_clean_linker_1, # of connection points: 2
#     Edge 34, Type (0, 0), BuildingBlock: KIFKEQ_clean_linker_1, # of connection points: 2
#     Edge 35, Type (0, 0), BuildingBlock: KIFKEQ_clean_linker_1, # of connection points: 2
#     Edge 36, Type (0, 0), BuildingBlock: KIFKEQ_clean_linker_1, # of connection points: 2
#     Edge 37, Type (0, 0), BuildingBlock: KIFKEQ_clean_linker_1, # of connection points: 2
#     Edge 38, Type (0, 0), BuildingBlock: KIFKEQ_clean_linker_1, # of connection points: 2
#     Edge 39, Type (0, 0), BuildingBlock: KIFKEQ_clean_linker_1, # of connection points: 2
#     Edge 40, Type (0, 0), BuildingBlock: KIFKEQ_clean_linker_1, # of connection points: 2
#     Edge 41, Type (0, 0), BuildingBlock: KIFKEQ_clean_linker_1, # of connection points: 2
#     Edge 42, Type (0, 0), BuildingBlock: KIFKEQ_clean_linker_1, # of connection points: 2
#     Edge 43, Type (0, 0), BuildingBlock: KIFKEQ_clean_linker_1, # of connection points: 2
#     Edge 44, Type (0, 0), BuildingBlock: KIFKEQ_clean_linker_1, # of connection points: 2
#     Edge 45, Type (0, 0), BuildingBlock: KIFKEQ_clean_linker_1, # of connection points: 2
#     Edge 46, Type (0, 0), BuildingBlock: KIFKEQ_clean_linker_1, # of connection points: 2
#     Edge 47, Type (0, 0), BuildingBlock: KIFKEQ_clean_linker_1, # of connection points: 2
#     Edge 48, Type (0, 0), BuildingBlock: KIFKEQ_clean_linker_1, # of connection points: 2
#     Edge 49, Type (0, 0), BuildingBlock: KIFKEQ_clean_linker_1, # of connection points: 2
#     Edge 50, Type (0, 0), BuildingBlock: KIFKEQ_clean_linker_1, # of connection points: 2
#     Edge 51, Type (0, 0), BuildingBlock: KIFKEQ_clean_linker_1, # of connection points: 2
#     Edge 52, Type (0, 0), BuildingBlock: KIFKEQ_clean_linker_1, # of connection points: 2
#     Edge 53, Type (0, 0), BuildingBlock: KIFKEQ_clean_linker_1, # of connection points: 2
#     Edge 54, Type (0, 0), BuildingBlock: KIFKEQ_clean_linker_1, # of connection points: 2
#     Edge 55, Type (0, 0), BuildingBlock: KIFKEQ_clean_linker_1, # of connection points: 2
#     Edge 56, Type (0, 0), BuildingBlock: KIFKEQ_clean_linker_1, # of connection points: 2
#     Edge 57, Type (0, 0), BuildingBlock: KIFKEQ_clean_linker_1, # of connection points: 2
#     Edge 58, Type (0, 0), BuildingBlock: KIFKEQ_clean_linker_1, # of connection points: 2
#     Edge 59, Type (0, 0), BuildingBlock: KIFKEQ_clean_linker_1, # of connection points: 2
#     Edge 60, Type (0, 0), BuildingBlock: KIFKEQ_clean_linker_1, # of connection points: 2
#     Edge 61, Type (0, 0), BuildingBlock: KIFKEQ_clean_linker_1, # of connection points: 2
#     Edge 62, Type (0, 0), BuildingBlock: KIFKEQ_clean_linker_1, # of connection points: 2
#     Edge 63, Type (0, 0), BuildingBlock: KIFKEQ_clean_linker_1, # of connection points: 2
#     Edge 64, Type (0, 0), BuildingBlock: KIFKEQ_clean_linker_1, # of connection points: 2
#     Edge 65, Type (0, 0), BuildingBlock: KIFKEQ_clean_linker_1, # of connection points: 2
#     Edge 66, Type (0, 0), BuildingBlock: KIFKEQ_clean_linker_1, # of connection points: 2
#     Edge 67, Type (0, 0), BuildingBlock: KIFKEQ_clean_linker_1, # of connection points: 2
#     Edge 68, Type (0, 0), BuildingBlock: KIFKEQ_clean_linker_1, # of connection points: 2
#     Edge 69, Type (0, 0), BuildingBlock: KIFKEQ_clean_linker_1, # of connection points: 2
#     Edge 70, Type (0, 0), BuildingBlock: KIFKEQ_clean_linker_1, # of connection points: 2
#     Edge 71, Type (0, 0), BuildingBlock: KIFKEQ_clean_linker_1, # of connection points: 2
#     Edge 72, Type (0, 0), BuildingBlock: KIFKEQ_clean_linker_1, # of connection points: 2
#     Edge 73, Type (0, 0), BuildingBlock: KIFKEQ_clean_linker_1, # of connection points: 2
#     Edge 74, Type (0, 0), BuildingBlock: KIFKEQ_clean_linker_1, # of connection points: 2
#     Edge 75, Type (0, 0), BuildingBlock: KIFKEQ_clean_linker_1, # of connection points: 2
#     Edge 76, Type (0, 0), BuildingBlock: KIFKEQ_clean_linker_1, # of connection points: 2
#     Edge 77, Type (0, 0), BuildingBlock: KIFKEQ_clean_linker_1, # of connection points: 2
#     Edge 78, Type (0, 0), BuildingBlock: KIFKEQ_clean_linker_1, # of connection points: 2
#     Edge 79, Type (0, 0), BuildingBlock: KIFKEQ_clean_linker_1, # of connection points: 2
#     Edge 80, Type (0, 0), BuildingBlock: KIFKEQ_clean_linker_1, # of connection points: 2
#     Edge 81, Type (0, 0), BuildingBlock: KIFKEQ_clean_linker_1, # of connection points: 2
#     Edge 82, Type (0, 0), BuildingBlock: KIFKEQ_clean_linker_1, # of connection points: 2
#     Edge 83, Type (0, 0), BuildingBlock: KIFKEQ_clean_linker_1, # of connection points: 2
#     Edge 84, Type (0, 0), BuildingBlock: KIFKEQ_clean_linker_1, # of connection points: 2
#     Edge 85, Type (0, 0), BuildingBlock: KIFKEQ_clean_linker_1, # of connection points: 2
#     Edge 86, Type (0, 0), BuildingBlock: KIFKEQ_clean_linker_1, # of connection points: 2
#     Edge 87, Type (0, 0), BuildingBlock: KIFKEQ_clean_linker_1, # of connection points: 2
#     Edge 88, Type (0, 0), BuildingBlock: KIFKEQ_clean_linker_1, # of connection points: 2
#     Edge 89, Type (0, 0), BuildingBlock: KIFKEQ_clean_linker_1, # of connection points: 2
#     Edge 90, Type (0, 0), BuildingBlock: KIFKEQ_clean_linker_1, # of connection points: 2
#     Edge 91, Type (0, 0), BuildingBlock: KIFKEQ_clean_linker_1, # of connection points: 2
#     Edge 92, Type (0, 0), BuildingBlock: KIFKEQ_clean_linker_1, # of connection points: 2
#     Edge 93, Type (0, 0), BuildingBlock: KIFKEQ_clean_linker_1, # of connection points: 2
#     Edge 94, Type (0, 0), BuildingBlock: KIFKEQ_clean_linker_1, # of connection points: 2
#     Edge 95, Type (0, 0), BuildingBlock: KIFKEQ_clean_linker_1, # of connection points: 2
# Relax obj value: 0.447
# Max RMSD: 0.186
# Mean RMSD: 0.186
data_MOF--net-sxf--node1-OJICUG_clean_sbu_0--edge1-KIFKEQ_clean_linker_1
_symmetry_space_group_name_H-M    P1
_symmetry_Int_Tables_number       1
_symmetry_cell_setting            triclinic
loop_
_symmetry_equiv_pos_as_xyz
'x, y, z'
_cell_length_a     46.916083
_cell_length_b     46.868325
_cell_length_c     46.968106
_cell_angle_alpha  90.063562
_cell_angle_beta   89.958588
_cell_angle_gamma 90.070379
loop_
_atom_site_label
_atom_site_type_symbol
_atom_site_fract_x
_atom_site_fract_y
_atom_site_fract_z
_atom_type_partial_charge
Sc0 Sc 0.07513 0.45054 0.17762 0.0
Sc1 Sc 0.0837 0.38975 0.22043 0.0
Sc2 Sc 0.05363 0.45327 0.24876 0.0
O3 O 0.07082 0.43107 0.21564 0.0
C4 C 0.08902 0.50277 0.21758 0.0
C5 C 0.13174 0.41328 0.17839 0.0
C6 C 0.1075 0.42207 0.27553 0.0
C7 C 0.05302 0.38809 0.16032 0.0
C8 C 0.0136 0.47186 0.19848 0.0
C9 C 0.02903 0.39117 0.26079 0.0
O10 O 0.09379 0.48847 0.19513 0.0
O11 O 0.12236 0.39478 0.19579 0.0
O12 O 0.08946 0.44235 0.27478 0.0
O13 O 0.05676 0.41462 0.15588 0.0
O14 O 0.01654 0.46528 0.22457 0.0
O15 O 0.04644 0.37797 0.24484 0.0
O16 O 0.0333 0.46882 0.18012 0.0
O17 O 0.06131 0.37553 0.18285 0.0
O18 O 0.02997 0.41785 0.26474 0.0
O19 O 0.11735 0.43483 0.17075 0.0
O20 O 0.07401 0.49317 0.23795 0.0
O21 O 0.10787 0.40137 0.2579 0.0
Sc22 Sc 0.43486 0.54759 0.73948 0.0
Sc23 Sc 0.4038 0.61009 0.71086 0.0
Sc24 Sc 0.40788 0.54801 0.6698 0.0
O25 O 0.41556 0.56853 0.70678 0.0
C26 C 0.47058 0.52664 0.68569 0.0
C27 C 0.46218 0.6091 0.74593 0.0
C28 C 0.42838 0.60991 0.64876 0.0
C29 C 0.38386 0.58203 0.76902 0.0
C30 C 0.39581 0.49802 0.71442 0.0
C31 C 0.35247 0.58549 0.67306 0.0
O32 O 0.46765 0.53022 0.71239 0.0
O33 O 0.44133 0.6218 0.73437 0.0
O34 O 0.42103 0.58407 0.64484 0.0
O35 O 0.40355 0.56332 0.7691 0.0
O36 O 0.39368 0.50961 0.69011 0.0
O37 O 0.36492 0.60526 0.6868 0.0
O38 O 0.40959 0.50932 0.73479 0.0
O39 O 0.38027 0.59994 0.74896 0.0
O40 O 0.36421 0.56159 0.66805 0.0
O41 O 0.4633 0.58222 0.74853 0.0
O42 O 0.45108 0.53257 0.6678 0.0
O43 O 0.42613 0.62247 0.67268 0.0
Sc44 Sc 0.54158 0.05379 0.75044 0.0
Sc45 Sc 0.57702 0.11838 0.76659 0.0
Sc46 Sc 0.5525 0.07361 0.82078 0.0
O47 O 0.55719 0.08193 0.7792 0.0
C48 C 0.4931 0.05083 0.79579 0.0
C49 C 0.5254 0.11366 0.7237 0.0
C50 C 0.53852 0.13894 0.81872 0.0
C51 C 0.60094 0.07103 0.72395 0.0
C52 C 0.56789 0.01277 0.79808 0.0
C53 C 0.61421 0.10344 0.81939 0.0
O54 O 0.50002 0.05187 0.76968 0.0
O55 O 0.54146 0.1285 0.73967 0.0
O56 O 0.53246 0.11391 0.82706 0.0
O57 O 0.58178 0.05282 0.72972 0.0
O58 O 0.5719 0.03217 0.81665 0.0
O59 O 0.61356 0.11158 0.79362 0.0
O60 O 0.55519 0.01737 0.77463 0.0
O61 O 0.60039 0.0967 0.73287 0.0
O62 O 0.59325 0.09147 0.83171 0.0
O63 O 0.52574 0.08662 0.72289 0.0
O64 O 0.51066 0.05567 0.8158 0.0
O65 O 0.55676 0.14426 0.79934 0.0
Sc66 Sc 0.91479 0.95063 0.31961 0.0
Sc67 Sc 0.91134 0.888 0.27951 0.0
Sc68 Sc 0.94183 0.95045 0.25009 0.0
O69 O 0.92262 0.92977 0.28293 0.0
C70 C 0.90357 0.00043 0.27462 0.0
C71 C 0.85965 0.91323 0.31669 0.0
C72 C 0.89098 0.91504 0.22132 0.0
C73 C 0.93604 0.88931 0.34133 0.0
C74 C 0.97785 0.97074 0.30374 0.0
C75 C 0.96927 0.88918 0.24362 0.0
O76 O 0.90133 0.98929 0.29911 0.0
O77 O 0.87263 0.89294 0.3042 0.0
O78 O 0.91045 0.93404 0.22079 0.0
O79 O 0.92735 0.91472 0.34515 0.0
O80 O 0.97473 0.9679 0.27697 0.0
O81 O 0.94854 0.87606 0.25509 0.0
O82 O 0.95831 0.965 0.32167 0.0
O83 O 0.93453 0.87665 0.3174 0.0
O84 O 0.97012 0.91606 0.24155 0.0
O85 O 0.87101 0.93752 0.32062 0.0
O86 O 0.91707 0.9888 0.25431 0.0
O87 O 0.88731 0.89755 0.24173 0.0
Sc88 Sc 0.17692 0.07586 0.45107 0.0
Sc89 Sc 0.21629 0.08152 0.38801 0.0
Sc90 Sc 0.24869 0.05638 0.45156 0.0
O91 O 0.21401 0.07107 0.43008 0.0
C92 C 0.21888 0.09216 0.50114 0.0
C93 C 0.17412 0.12996 0.41136 0.0
C94 C 0.27026 0.11101 0.41748 0.0
C95 C 0.1568 0.05046 0.39071 0.0
C96 C 0.19985 0.01444 0.47149 0.0
C97 C 0.26059 0.03026 0.39011 0.0
O98 O 0.19547 0.09505 0.48807 0.0
O99 O 0.18918 0.11853 0.39198 0.0
O100 O 0.27159 0.09377 0.43842 0.0
O101 O 0.15334 0.05766 0.41657 0.0
O102 O 0.2261 0.0186 0.46564 0.0
O103 O 0.24298 0.04582 0.37685 0.0
O104 O 0.18079 0.03357 0.46847 0.0
O105 O 0.17964 0.05565 0.37694 0.0
O106 O 0.26509 0.03244 0.41655 0.0
O107 O 0.16968 0.11812 0.43525 0.0
O108 O 0.23929 0.0776 0.49113 0.0
O109 O 0.25233 0.10899 0.39715 0.0
Sc110 Sc 0.3161 0.92503 0.94895 0.0
Sc111 Sc 0.27133 0.91798 0.88977 0.0
Sc112 Sc 0.24509 0.94693 0.95465 0.0
O113 O 0.27741 0.93002 0.93111 0.0
C114 C 0.27608 0.9091 0.00153 0.0
C115 C 0.31239 0.86877 0.91218 0.0
C116 C 0.21669 0.89424 0.92176 0.0
C117 C 0.33131 0.94788 0.88623 0.0
C118 C 0.29766 0.98658 0.97151 0.0
C119 C 0.23294 0.97418 0.89414 0.0
O120 O 0.29956 0.90855 0.98815 0.0
O121 O 0.29733 0.87992 0.89269 0.0
O122 O 0.2168 0.91327 0.94116 0.0
O123 O 0.33748 0.94102 0.9117 0.0
O124 O 0.27096 0.9821 0.96956 0.0
O125 O 0.24519 0.95449 0.88015 0.0
O126 O 0.3162 0.96793 0.96492 0.0
O127 O 0.30723 0.9425 0.87502 0.0
O128 O 0.23171 0.97437 0.92106 0.0
O129 O 0.31922 0.88186 0.9348 0.0
O130 O 0.25428 0.92214 0.99226 0.0
O131 O 0.23533 0.89239 0.90217 0.0
Sc132 Sc 0.66921 0.41002 0.54378 0.0
Sc133 Sc 0.70801 0.40809 0.60738 0.0
Sc134 Sc 0.73913 0.43626 0.54485 0.0
O135 O 0.7055 0.41819 0.56531 0.0
C136 C 0.71513 0.39623 0.49559 0.0
C137 C 0.67009 0.35628 0.58358 0.0
C138 C 0.76622 0.38554 0.58144 0.0
C139 C 0.64652 0.43419 0.60384 0.0
C140 C 0.68667 0.47192 0.52114 0.0
C141 C 0.74522 0.46532 0.60538 0.0
O142 O 0.69053 0.39399 0.50663 0.0
O143 O 0.68285 0.36959 0.60343 0.0
O144 O 0.76748 0.40463 0.56217 0.0
O145 O 0.64331 0.42528 0.57842 0.0
O146 O 0.71313 0.46921 0.52638 0.0
O147 O 0.73291 0.44527 0.61879 0.0
O148 O 0.66843 0.45246 0.52634 0.0
O149 O 0.66999 0.43212 0.61732 0.0
O150 O 0.74784 0.46529 0.5786 0.0
O151 O 0.66645 0.36698 0.55904 0.0
O152 O 0.73507 0.41044 0.50711 0.0
O153 O 0.74557 0.38293 0.59889 0.0
Sc154 Sc 0.74823 0.53672 0.04246 0.0
Sc155 Sc 0.77172 0.56756 0.10715 0.0
Sc156 Sc 0.8156 0.56847 0.04669 0.0
O157 O 0.77847 0.55756 0.06543 0.0
C158 C 0.80458 0.50516 0.02344 0.0
C159 C 0.73865 0.50809 0.1027 0.0
C160 C 0.83448 0.54466 0.10816 0.0
C161 C 0.71477 0.58581 0.07575 0.0
C162 C 0.77363 0.57825 0.99481 0.0
C163 C 0.80781 0.6217 0.08683 0.0
O164 O 0.77787 0.50514 0.02794 0.0
O165 O 0.74923 0.52865 0.11674 0.0
O166 O 0.83927 0.55323 0.08286 0.0
O167 O 0.71681 0.56708 0.05616 0.0
O168 O 0.79617 0.58433 0.00844 0.0
O169 O 0.79419 0.60767 0.10549 0.0
O170 O 0.75486 0.56118 0.00422 0.0
O171 O 0.73319 0.58946 0.09536 0.0
O172 O 0.81473 0.61134 0.06286 0.0
O173 O 0.73746 0.50802 0.07584 0.0
O174 O 0.82048 0.52662 0.02838 0.0
O175 O 0.81032 0.54674 0.12032 0.0
Sc176 Sc 0.45872 0.25284 0.05026 0.0
Sc177 Sc 0.39392 0.22249 0.07533 0.0
Sc178 Sc 0.45195 0.17892 0.05622 0.0
O179 O 0.43476 0.21808 0.06062 0.0
C180 C 0.47243 0.21089 -0.0006 0.0
C181 C 0.39711 0.27072 0.02793 0.0
C182 C 0.38807 0.16822 0.03508 0.0
C183 C 0.42879 0.27078 0.10824 0.0
C184 C 0.50621 0.21315 0.07788 0.0
C185 C 0.4172 0.17201 0.11416 0.0
O186 O 0.46993 0.23608 0.00911 0.0
O187 O 0.3832 0.25276 0.04267 0.0
O188 O 0.41446 0.16239 0.03615 0.0
O189 O 0.44936 0.27151 0.09065 0.0
O190 O 0.49149 0.19053 0.07594 0.0
O191 O 0.39949 0.19187 0.10909 0.0
O192 O 0.49766 0.23701 0.06854 0.0
O193 O 0.40659 0.2555 0.10503 0.0
O194 O 0.43741 0.16543 0.09738 0.0
O195 O 0.42386 0.27376 0.02986 0.0
O196 O 0.46765 0.18871 0.01429 0.0
O197 O 0.377 0.1893 0.04807 0.0
Sc198 Sc 0.9628 0.3125 0.92052 0.0
Sc199 Sc 0.9007 0.27097 0.91559 0.0
Sc200 Sc 0.96454 0.24143 0.94326 0.0
O201 O 0.9426 0.2749 0.9264 0.0
C202 C 0.0124 0.27028 0.90382 0.0
C203 C 0.92227 0.31247 0.86618 0.0
C204 C 0.92966 0.21427 0.89161 0.0
C205 C 0.90246 0.33136 0.94593 0.0
C206 C 0.98653 0.2923 0.98134 0.0
C207 C 0.90343 0.2317 0.97104 0.0
O208 O -0.00125 0.29331 0.89998 0.0
O209 O 0.90424 0.29519 0.87667 0.0
O210 O 0.95059 0.21458 0.90891 0.0
O211 O 0.92876 0.3354 0.9407 0.0
O212 O 0.97937 0.26622 0.97901 0.0
O213 O 0.89012 0.24713 0.95332 0.0
O214 O 0.98317 0.31032 0.96141 0.0
O215 O 0.88896 0.30903 0.9384 0.0
O216 O 0.93001 0.22728 0.96955 0.0
O217 O 0.94485 0.31972 0.87916 0.0
O218 O 0.00332 0.25045 0.9199 0.0
O219 O 0.9099 0.23291 0.89146 0.0
Sc220 Sc 0.54514 0.67325 0.41393 0.0
Sc221 Sc 0.60841 0.71334 0.4113 0.0
Sc222 Sc 0.54435 0.74411 0.4374 0.0
O223 O 0.56604 0.71028 0.4209 0.0
C224 C 0.49673 0.71736 0.39686 0.0
C225 C 0.58615 0.6739 0.36022 0.0
C226 C 0.58173 0.77099 0.3874 0.0
C227 C 0.6048 0.65242 0.43993 0.0
C228 C 0.52069 0.69295 0.47452 0.0
C229 C 0.60446 0.75213 0.46716 0.0
O230 O 0.50886 0.69327 0.39461 0.0
O231 O 0.60511 0.68911 0.37223 0.0
O232 O 0.56085 0.77126 0.40472 0.0
O233 O 0.57888 0.64897 0.43284 0.0
O234 O 0.52648 0.7193 0.47164 0.0
O235 O 0.6185 0.73741 0.44931 0.0
O236 O 0.52564 0.67453 0.45525 0.0
O237 O 0.61889 0.67501 0.4345 0.0
O238 O 0.57787 0.75607 0.46538 0.0
O239 O 0.5626 0.66782 0.37209 0.0
O240 O 0.50683 0.73745 0.41192 0.0
O241 O 0.60057 0.75144 0.38667 0.0
Sc242 Sc 0.04659 0.74943 0.55056 0.0
Sc243 Sc 0.11113 0.77505 0.58038 0.0
Sc244 Sc 0.05115 0.81914 0.5769 0.0
O245 O 0.06965 0.78114 0.56915 0.0
C246 C 0.02889 0.80411 0.5145 0.0
C247 C 0.10698 0.73856 0.52292 0.0
C248 C 0.1141 0.83729 0.5562 0.0
C249 C 0.07985 0.71847 0.60115 0.0
C250 C -0.00148 0.77755 0.58891 0.0
C251 C 0.08851 0.81397 0.63193 0.0
O252 O 0.0308 0.77721 0.51768 0.0
O253 O 0.12114 0.7503 0.54277 0.0
O254 O 0.08862 0.84224 0.56407 0.0
O255 O 0.06078 0.7195 0.58192 0.0
O256 O 0.01131 0.80135 0.59083 0.0
O257 O 0.1079 0.79992 0.61919 0.0
O258 O 0.00898 0.75641 0.57571 0.0
O259 O 0.09908 0.73746 0.60441 0.0
O260 O 0.06466 0.81955 0.62046 0.0
O261 O 0.08007 0.73746 0.52251 0.0
O262 O 0.03603 0.8219 0.53374 0.0
O263 O 0.12539 0.81265 0.55771 0.0
Sc264 Sc 0.92103 0.54436 0.81436 0.0
Sc265 Sc 0.91196 0.60331 0.76954 0.0
Sc266 Sc 0.94026 0.53847 0.74259 0.0
O267 O 0.92442 0.56203 0.77543 0.0
C268 C 0.98196 0.52233 0.79323 0.0
C269 C 0.94383 0.60766 0.8281 0.0
C270 C 0.96618 0.59938 0.72831 0.0
C271 C 0.86535 0.58162 0.81441 0.0
C272 C 0.90536 0.49053 0.77581 0.0
C273 C 0.88577 0.57014 0.71659 0.0
O274 O 0.96401 0.52889 0.81246 0.0
O275 O 0.93775 0.61889 0.80422 0.0
O276 O 0.96663 0.57239 0.72756 0.0
O277 O 0.87781 0.5583 0.82008 0.0
O278 O 0.91702 0.50021 0.7534 0.0
O279 O 0.88459 0.59002 0.73508 0.0
O280 O 0.90473 0.50439 0.79903 0.0
O281 O 0.876 0.60049 0.79818 0.0
O282 O 0.90525 0.55121 0.71594 0.0
O283 O 0.9375 0.58207 0.83452 0.0
O284 O 0.97653 0.52412 0.76677 0.0
O285 O 0.94691 0.6133 0.74127 0.0
Sc286 Sc 0.55523 0.44973 0.25015 0.0
Sc287 Sc 0.58352 0.38699 0.28147 0.0
Sc288 Sc 0.58082 0.45095 0.32027 0.0
O289 O 0.57325 0.42921 0.28389 0.0
C290 C 0.59624 0.4985 0.2746 0.0
C291 C 0.60462 0.41205 0.22218 0.0
C292 C 0.63526 0.41065 0.31887 0.0
C293 C 0.52553 0.38888 0.24589 0.0
C294 C 0.51946 0.47449 0.30177 0.0
C295 C 0.5565 0.39138 0.34302 0.0
O296 O 0.58074 0.48788 0.25509 0.0
O297 O 0.60624 0.3939 0.24225 0.0
O298 O 0.62301 0.43393 0.32531 0.0
O299 O 0.5266 0.41538 0.24072 0.0
O300 O 0.53923 0.47016 0.31975 0.0
O301 O 0.56205 0.37699 0.32073 0.0
O302 O 0.52174 0.468 0.27559 0.0
O303 O 0.54477 0.3759 0.25972 0.0
O304 O 0.56278 0.41762 0.34576 0.0
O305 O 0.58709 0.43278 0.22199 0.0
O306 O 0.59926 0.48678 0.29877 0.0
O307 O 0.62339 0.39155 0.30376 0.0
Sc308 Sc 0.44824 0.9429 0.23633 0.0
Sc309 Sc 0.41419 0.87805 0.21978 0.0
Sc310 Sc 0.42604 0.92873 0.16693 0.0
O311 O 0.42957 0.91658 0.20772 0.0
C312 C 0.4149 0.9877 0.19994 0.0
C313 C 0.39423 0.91797 0.26967 0.0
C314 C 0.36708 0.89911 0.17522 0.0
C315 C 0.47192 0.88355 0.25577 0.0
C316 C 0.48823 0.94972 0.18138 0.0
C317 C 0.441 0.86203 0.1615 0.0
O318 O 0.4232 0.979 0.2241 0.0
O319 O 0.38882 0.89807 0.25209 0.0
O320 O 0.38121 0.92078 0.16722 0.0
O321 O 0.47546 0.90986 0.25088 0.0
O322 O 0.4709 0.9378 0.16423 0.0
O323 O 0.43836 0.85627 0.18777 0.0
O324 O 0.48199 0.95506 0.20725 0.0
O325 O 0.44941 0.8701 0.24865 0.0
O326 O 0.43463 0.88621 0.15091 0.0
O327 O 0.41642 0.9336 0.26841 0.0
O328 O 0.41663 0.97258 0.1775 0.0
O329 O 0.37738 0.88009 0.1916 0.0
Sc330 Sc 0.07862 0.04221 0.67196 0.0
Sc331 Sc 0.08133 0.10378 0.71475 0.0
Sc332 Sc 0.05336 0.03899 0.742 0.0
O333 O 0.07116 0.06168 0.70962 0.0
C334 C 0.01761 0.01715 0.68905 0.0
C335 C 0.05403 0.10328 0.65318 0.0
C336 C 0.02345 0.09907 0.75045 0.0
C337 C 0.13301 0.08231 0.67595 0.0
C338 C 0.09439 0.99201 0.71474 0.0
C339 C 0.10251 0.07522 0.77228 0.0
O340 O 0.03705 0.02299 0.67111 0.0
O341 O 0.05924 0.11618 0.67646 0.0
O342 O 0.02442 0.07222 0.75301 0.0
O343 O 0.12087 0.05927 0.66849 0.0
O344 O 0.07942 0.00172 0.73511 0.0
O345 O 0.10462 0.09435 0.75316 0.0
O346 O 0.09676 0.00479 0.69103 0.0
O347 O 0.12097 0.10086 0.69158 0.0
O348 O 0.08472 0.05472 0.77127 0.0
O349 O 0.06078 0.07737 0.64868 0.0
O350 O 0.02016 0.02186 0.71555 0.0
O351 O 0.04287 0.11333 0.73808 0.0
Sc352 Sc 0.74623 0.93961 0.54342 0.0
Sc353 Sc 0.77817 0.90892 0.60463 0.0
Sc354 Sc 0.81731 0.91696 0.54151 0.0
O355 O 0.78054 0.92186 0.56324 0.0
C356 C 0.77311 0.90257 0.49273 0.0
C357 C 0.72131 0.88533 0.5763 0.0
C358 C 0.81902 0.86082 0.57921 0.0
C359 C 0.7387 0.96443 0.60597 0.0
C360 C 0.79631 0.97889 0.52131 0.0
C361 C 0.838 0.93989 0.60244 0.0
O362 O 0.75332 0.91758 0.50356 0.0
O363 O 0.74098 0.88385 0.59488 0.0
O364 O 0.8247 0.87437 0.55653 0.0
O365 O 0.7343 0.965 0.57939 0.0
O366 O 0.81466 0.95912 0.52383 0.0
O367 O 0.81591 0.93243 0.61635 0.0
O368 O 0.77036 0.97589 0.5286 0.0
O369 O 0.75345 0.94517 0.61784 0.0
O370 O 0.84133 0.93497 0.576 0.0
O371 O 0.71997 0.90445 0.55707 0.0
O372 O 0.79691 0.89878 0.50496 0.0
O373 O 0.80325 0.87098 0.59865 0.0
Sc374 Sc 0.68253 0.06246 0.03172 0.0
Sc375 Sc 0.72262 0.06798 0.09437 0.0
Sc376 Sc 0.75452 0.04402 0.03013 0.0
O377 O 0.7199 0.05813 0.05224 0.0
C378 C 0.70653 0.0021 0.00951 0.0
C379 C 0.66289 0.03566 0.09122 0.0
C380 C 0.76527 0.01583 0.0908 0.0
C381 C 0.68072 0.11668 0.07256 0.0
C382 C 0.72401 0.08164 0.9827 0.0
C383 C 0.77752 0.09683 0.06537 0.0
O384 O 0.68744 0.02135 0.0115 0.0
O385 O 0.68474 0.04368 0.10526 0.0
O386 O 0.77149 0.01996 0.06491 0.0
O387 O 0.6737 0.10343 0.05004 0.0
O388 O 0.74396 0.06527 0.99065 0.0
O389 O 0.76035 0.09376 0.08626 0.0
O390 O 0.70123 0.08484 -0.00322 0.0
O391 O 0.69782 0.1065 0.09084 0.0
O392 O 0.77744 0.08126 0.04314 0.0
O393 O 0.65961 0.04112 0.06493 0.0
O394 O 0.73234 0.00616 0.0168 0.0
O395 O 0.74687 0.03043 0.1041 0.0
Sc396 Sc 0.3207 0.5871 0.44385 0.0
Sc397 Sc 0.28042 0.58735 0.38164 0.0
Sc398 Sc 0.25138 0.55975 0.44518 0.0
O399 O 0.28408 0.57794 0.42363 0.0
C400 C 0.30571 0.52522 0.46712 0.0
C401 C 0.34227 0.56392 0.38306 0.0
C402 C 0.24471 0.52935 0.38565 0.0
C403 C 0.31746 0.64018 0.40445 0.0
C404 C 0.27568 0.59983 0.49357 0.0
C405 C 0.22281 0.6095 0.40837 0.0
O406 O 0.3237 0.54411 0.45948 0.0
O407 O 0.31798 0.56319 0.37103 0.0
O408 O 0.24363 0.52924 0.41255 0.0
O409 O 0.3202 0.63055 0.42957 0.0
O410 O 0.25495 0.58717 0.48171 0.0
O411 O 0.24344 0.61266 0.39103 0.0
O412 O 0.30041 0.60079 0.48259 0.0
O413 O 0.30596 0.62572 0.38462 0.0
O414 O 0.22164 0.58987 0.42712 0.0
O415 O 0.34613 0.57443 0.40777 0.0
O416 O 0.27886 0.52846 0.4647 0.0
O417 O 0.25514 0.55003 0.3716 0.0
Sc418 Sc 0.17277 0.4202 0.94306 0.0
Sc419 Sc 0.21998 0.41767 0.88572 0.0
Sc420 Sc 0.23997 0.45162 0.94991 0.0
O421 O 0.21099 0.42993 0.92625 0.0
C422 C 0.18185 0.48408 0.96377 0.0
C423 C 0.157 0.43733 0.87874 0.0
C424 C 0.25146 0.47831 0.88936 0.0
C425 C 0.18362 0.36433 0.90857 0.0
C426 C 0.21283 0.41242 -0.00238 0.0
C427 C 0.27616 0.40243 0.91946 0.0
O428 O 0.16576 0.46388 0.95534 0.0
O429 O 0.18234 0.43801 0.86912 0.0
O430 O 0.24972 0.4805 0.91617 0.0
O431 O 0.17689 0.37607 0.932 0.0
O432 O 0.23398 0.42584 0.98739 0.0
O433 O 0.25784 0.39638 0.90036 0.0
O434 O 0.18941 0.40979 0.98436 0.0
O435 O 0.19695 0.37756 0.889 0.0
O436 O 0.2733 0.42293 0.93706 0.0
O437 O 0.15098 0.4291 0.90383 0.0
O438 O 0.2089 0.48214 0.96454 0.0
O439 O 0.24343 0.45616 0.87591 0.0
Sc440 Sc 0.53909 0.73658 0.94255 0.0
Sc441 Sc 0.60274 0.76949 0.91753 0.0
Sc442 Sc 0.54833 0.81005 0.94891 0.0
O443 O 0.56347 0.77199 0.93619 0.0
C444 C 0.49089 0.77988 0.92727 0.0
C445 C 0.56635 0.72488 0.88156 0.0
C446 C 0.57511 0.82472 0.8888 0.0
C447 C 0.60128 0.71628 0.95965 0.0
C448 C 0.53076 0.77123 0.00061 0.0
C449 C 0.61474 0.81839 0.96212 0.0
O450 O 0.50105 0.75496 0.92499 0.0
O451 O 0.58739 0.74173 0.88416 0.0
O452 O 0.55568 0.82787 0.90749 0.0
O453 O 0.57434 0.71432 0.96071 0.0
O454 O 0.54073 0.79451 0.991 0.0
O455 O 0.62358 0.79747 0.94745 0.0
O456 O 0.52668 0.74921 0.98522 0.0
O457 O 0.61467 0.73453 0.94474 0.0
O458 O 0.58868 0.82529 0.96347 0.0
O459 O 0.54794 0.72075 0.90088 0.0
O460 O 0.50514 0.80078 0.93691 0.0
O461 O 0.59427 0.80549 0.89006 0.0
Sc462 Sc 0.02673 0.68027 0.07035 0.0
Sc463 Sc 0.09065 0.71891 0.07456 0.0
Sc464 Sc 0.02805 0.75113 0.04772 0.0
O465 O 0.04864 0.71678 0.06421 0.0
C466 C 0.00598 0.70172 0.0086 0.0
C467 C 0.0861 0.65842 0.0445 0.0
C468 C 0.08977 0.7606 0.02135 0.0
C469 C 0.06751 0.67846 0.12428 0.0
C470 C 0.97813 0.72354 0.085 0.0
C471 C 0.06251 0.77549 0.10057 0.0
O472 O 0.00686 0.68383 0.02902 0.0
O473 O 0.10053 0.68053 0.05106 0.0
O474 O 0.0636 0.76638 0.02388 0.0
O475 O 0.0443 0.67236 0.11179 0.0
O476 O 0.98776 0.74211 0.0679 0.0
O477 O 0.08252 0.75706 0.09931 0.0
O478 O 0.99166 0.70101 0.09116 0.0
O479 O 0.08625 0.69458 0.11324 0.0
O480 O 0.04109 0.77588 0.08384 0.0
O481 O 0.0598 0.65557 0.05055 0.0
O482 O 0.01495 0.72726 0.01089 0.0
O483 O 0.10243 0.7428 0.03719 0.0
Sc484 Sc 0.44551 0.32229 0.58039 0.0
Sc485 Sc 0.38109 0.28449 0.57916 0.0
Sc486 Sc 0.44426 0.25298 0.5524 0.0
O487 O 0.42362 0.28652 0.57057 0.0
C488 C 0.47008 0.30588 0.51908 0.0
C489 C 0.38672 0.34679 0.55513 0.0
C490 C 0.38456 0.24843 0.52131 0.0
C491 C 0.40385 0.32032 0.63282 0.0
C492 C 0.49262 0.27552 0.59449 0.0
C493 C 0.40514 0.22501 0.60056 0.0
O494 O 0.46477 0.32364 0.5389 0.0
O495 O 0.37263 0.32359 0.55655 0.0
O496 O 0.41119 0.24459 0.52252 0.0
O497 O 0.42861 0.32434 0.6227 0.0
O498 O 0.4815 0.25621 0.57911 0.0
O499 O 0.38766 0.24567 0.60287 0.0
O500 O 0.48156 0.30004 0.59737 0.0
O501 O 0.38421 0.30796 0.6188 0.0
O502 O 0.42561 0.22434 0.58275 0.0
O503 O 0.41207 0.34925 0.56443 0.0
O504 O 0.4639 0.27949 0.52064 0.0
O505 O 0.37074 0.26153 0.54055 0.0
Sc506 Sc 0.94838 0.24683 0.44204 0.0
Sc507 Sc 0.8829 0.21946 0.41574 0.0
Sc508 Sc 0.94378 0.17609 0.41893 0.0
O509 O 0.9249 0.21414 0.42564 0.0
C510 C 0.99494 0.21634 0.40237 0.0
C511 C 0.91456 0.27406 0.38995 0.0
C512 C 0.90209 0.17758 0.36578 0.0
C513 C 0.88828 0.25946 0.47048 0.0
C514 C 0.96928 0.19534 0.47952 0.0
C515 C 0.88315 0.1592 0.44605 0.0
O516 O 0.98653 0.23625 0.41868 0.0
O517 O 0.89379 0.25646 0.39029 0.0
O518 O 0.92516 0.17008 0.37762 0.0
O519 O 0.91494 0.26284 0.46847 0.0
O520 O 0.96493 0.17751 0.45952 0.0
O521 O 0.87015 0.18213 0.43953 0.0
O522 O 0.96264 0.2216 0.47769 0.0
O523 O 0.87396 0.24432 0.45328 0.0
O524 O 0.90902 0.15434 0.43944 0.0
O525 O 0.93541 0.27341 0.40728 0.0
O526 O 0.98035 0.19393 0.39807 0.0
O527 O 0.88431 0.1943 0.37735 0.0
H528 H 0.10448 0.4405 0.33006 0.0
H529 H 0.16368 0.4122 0.26556 0.0
H530 H 0.14401 0.45829 0.35863 0.0
H531 H 0.20346 0.43059 0.29403 0.0
H532 H 0.21911 0.48249 0.40893 0.0
H533 H 0.19073 0.44658 0.38452 0.0
H534 H 0.2119 0.48484 0.30367 0.0
H535 H 0.24037 0.52104 0.32795 0.0
C536 C 0.12607 0.43725 0.32252 0.0
C537 C 0.13116 0.42516 0.29569 0.0
C538 C 0.14869 0.44734 0.33885 0.0
C539 C 0.1767 0.44597 0.32834 0.0
C540 C 0.182 0.43191 0.30247 0.0
C541 C 0.15933 0.42125 0.28635 0.0
C542 C 0.2182 0.48306 0.3859 0.0
C543 C 0.23147 0.5051 0.37041 0.0
C544 C 0.20204 0.46237 0.37199 0.0
C545 C 0.19905 0.46311 0.34233 0.0
C546 C 0.2141 0.48369 0.3266 0.0
C547 C 0.23015 0.50458 0.34053 0.0
H548 H 0.28103 0.5236 0.91119 0.0
H549 H 0.25305 0.48635 0.83164 0.0
H550 H 0.30922 0.55855 0.88502 0.0
H551 H 0.28123 0.52145 0.80564 0.0
H552 H 0.32703 0.59252 0.7638 0.0
H553 H 0.28959 0.57498 0.79558 0.0
H554 H 0.35366 0.54737 0.85546 0.0
H555 H 0.39097 0.56452 0.82369 0.0
C556 C 0.28041 0.52317 0.88814 0.0
C557 C 0.26517 0.50184 0.87348 0.0
C558 C 0.29653 0.54324 0.87323 0.0
C559 C 0.2974 0.54262 0.8434 0.0
C560 C 0.28067 0.52258 0.82867 0.0
C561 C 0.26478 0.50229 0.84357 0.0
C562 C 0.33303 0.58368 0.78424 0.0
C563 C 0.36185 0.57953 0.79122 0.0
C564 C 0.31163 0.57349 0.80227 0.0
C565 C 0.31881 0.55958 0.82773 0.0
C566 C 0.34754 0.55814 0.836 0.0
C567 C 0.3689 0.56785 0.81779 0.0
H568 H 0.62341 0.0185 0.72762 0.0
H569 H 0.63502 0.09963 0.68554 0.0
H570 H 0.66247 -0.00154 0.70056 0.0
H571 H 0.67469 0.07915 0.65782 0.0
H572 H 0.7035 0.00784 0.58907 0.0
H573 H 0.67558 0.03939 0.61948 0.0
H574 H 0.71534 0.00292 0.69385 0.0
H575 H 0.74307 0.97106 0.66367 0.0
C576 C 0.63449 0.03211 0.71259 0.0
C577 C 0.62598 0.06049 0.70831 0.0
C578 C 0.65712 0.02072 0.69737 0.0
C579 C 0.6717 0.03732 0.67726 0.0
C580 C 0.66373 0.06598 0.6733 0.0
C581 C 0.64117 0.07765 0.68906 0.0
C582 C 0.70667 0.00682 0.61188 0.0
C583 C 0.72497 0.98638 0.62398 0.0
C584 C 0.6909 0.02515 0.62924 0.0
C585 C 0.69314 0.02333 0.65896 0.0
C586 C 0.71302 0.00446 0.67096 0.0
C587 C 0.72879 0.98616 0.65365 0.0
H588 H 0.8981 0.91173 0.16403 0.0
H589 H 0.83511 0.92414 0.2297 0.0
H590 H 0.86387 0.92707 0.12814 0.0
H591 H 0.80174 0.94219 0.1948 0.0
H592 H 0.74459 0.97837 0.13002 0.0
H593 H 0.77158 0.94326 0.15718 0.0
H594 H 0.84884 0.9708 0.11458 0.0
H595 H 0.82131 0.00369 0.0861 0.0
C596 C 0.87665 0.91728 0.17057 0.0
C597 C 0.86904 0.91693 0.19937 0.0
C598 C 0.85714 0.92652 0.15017 0.0
C599 C 0.8302 0.93694 0.15849 0.0
C600 C 0.82203 0.93427 0.18725 0.0
C601 C 0.8412 0.924 0.20743 0.0
C602 C 0.76731 0.97642 0.12637 0.0
C603 C 0.78104 0.99377 0.1063 0.0
C604 C 0.78286 0.95642 0.14196 0.0
C605 C 0.81262 0.95415 0.13847 0.0
C606 C 0.82599 0.97116 0.11763 0.0
C607 C 0.81029 0.99042 0.10146 0.0
H608 H 0.33247 0.26312 0.49936 0.0
H609 H 0.40166 0.20319 0.48954 0.0
H610 H 0.30502 0.23697 0.46373 0.0
H611 H 0.37392 0.17615 0.45568 0.0
H612 H 0.25191 0.15522 0.44768 0.0
H613 H 0.28004 0.19474 0.46533 0.0
H614 H 0.35101 0.16728 0.41303 0.0
H615 H 0.3227 0.12636 0.3968 0.0
C616 C 0.34182 0.24444 0.48949 0.0
C617 C 0.36897 0.23493 0.49757 0.0
C618 C 0.32611 0.22938 0.46912 0.0
C619 C 0.33695 0.20405 0.45705 0.0
C620 C 0.36485 0.19566 0.46402 0.0
C621 C 0.38073 0.21106 0.48381 0.0
C622 C 0.2733 0.15821 0.43942 0.0
C623 C 0.28538 0.13799 0.42112 0.0
C624 C 0.28946 0.18103 0.44935 0.0
C625 C 0.31809 0.18417 0.44099 0.0
C626 C 0.32928 0.16516 0.42049 0.0
C627 C 0.3131 0.14194 0.4109 0.0
H628 H 0.23009 0.84146 0.93873 0.0
H629 H 0.15919 0.89451 0.91463 0.0
H630 H 0.19755 0.80576 0.95729 0.0
H631 H 0.12601 0.8577 0.93072 0.0
H632 H 0.08116 0.81525 0.00554 0.0
H633 H 0.11013 0.84413 0.97432 0.0
H634 H 0.16356 0.77094 0.9564 0.0
H635 H 0.1354 0.74262 0.9898 0.0
C636 C 0.20735 0.84476 0.93634 0.0
C637 C 0.1969 0.8705 0.92551 0.0
C638 C 0.18858 0.82424 0.94684 0.0
C639 C 0.15894 0.8289 0.94612 0.0
C640 C 0.14864 0.85372 0.93262 0.0
C641 C 0.16751 0.87466 0.92299 0.0
C642 C 0.09899 0.8053 0.99473 0.0
C643 C 0.1063 0.77685 0.00027 0.0
C644 C 0.11551 0.82179 0.97644 0.0
C645 C 0.13938 0.81004 0.96258 0.0
C646 C 0.14578 0.781 0.9671 0.0
C647 C 0.12964 0.76469 0.98613 0.0
H648 H 0.89624 0.31415 0.48666 0.0
H649 H 0.8471 0.23879 0.50579 0.0
H650 H 0.86962 0.34092 0.52178 0.0
H651 H 0.82186 0.26464 0.5432 0.0
H652 H 0.75431 0.33073 0.57021 0.0
H653 H 0.78665 0.29672 0.54883 0.0
H654 H 0.85741 0.35364 0.56632 0.0
H655 H 0.824 0.38882 0.58497 0.0
C656 C 0.88006 0.30321 0.49901 0.0
C657 C 0.87331 0.27467 0.49335 0.0
C658 C 0.86497 0.31842 0.51957 0.0
C659 C 0.84332 0.30515 0.53569 0.0
C660 C 0.83774 0.27596 0.53088 0.0
C661 C 0.85223 0.26103 0.50954 0.0
C662 C 0.77694 0.33544 0.57027 0.0
C663 C 0.78681 0.36227 0.57898 0.0
C664 C 0.79568 0.31589 0.55798 0.0
C665 C 0.82482 0.32257 0.55487 0.0
C666 C 0.83501 0.34814 0.56706 0.0
C667 C 0.81605 0.36814 0.57832 0.0
H668 H 0.72397 0.64226 0.0732 0.0
H669 H 0.65813 0.57836 0.06638 0.0
H670 H 0.6943 0.67602 0.04801 0.0
H671 H 0.6269 0.61289 0.04341 0.0
H672 H 0.6017 0.6587 0.96235 0.0
H673 H 0.62559 0.6293 -0.00234 0.0
H674 H 0.65707 0.70569 0.03926 0.0
H675 H 0.63513 0.73457 0.00215 0.0
C676 C 0.7024 0.63604 0.06768 0.0
C677 C 0.69325 0.60783 0.07138 0.0
C678 C 0.68529 0.65539 0.05312 0.0
C679 C 0.65841 0.64699 0.04273 0.0
C680 C 0.64795 0.61974 0.04994 0.0
C681 C 0.66551 0.6001 0.0636 0.0
C682 C 0.61421 0.66893 0.97886 0.0
C683 C 0.61734 0.69857 0.97941 0.0
C684 C 0.62741 0.65224 -0.00049 0.0
C685 C 0.64311 0.66503 0.02173 0.0
C686 C 0.64567 0.69496 0.02232 0.0
C687 C 0.63322 0.71154 0.00108 0.0
H688 H 0.39834 0.31452 0.13231 0.0
H689 H 0.47048 0.25899 0.14476 0.0
H690 H 0.41313 0.34295 0.17391 0.0
H691 H 0.48525 0.28679 0.18572 0.0
H692 H 0.50955 0.33447 0.2595 0.0
H693 H 0.47622 0.30418 0.2336 0.0
H694 H 0.45503 0.37487 0.1786 0.0
H695 H 0.48764 0.40536 0.20491 0.0
C696 C 0.41684 0.30805 0.14448 0.0
C697 C 0.43354 0.28496 0.13553 0.0
C698 C 0.42534 0.32423 0.1681 0.0
C699 C 0.45035 0.31711 0.18306 0.0
C700 C 0.46566 0.29265 0.17505 0.0
C701 C 0.45741 0.27686 0.15142 0.0
C702 C 0.49734 0.34371 0.24226 0.0
C703 C 0.50185 0.37207 0.2337 0.0
C704 C 0.47817 0.32639 0.22753 0.0
C705 C 0.46343 0.33702 0.20376 0.0
C706 C 0.46595 0.36608 0.19691 0.0
C707 C 0.48493 0.38348 0.21181 0.0
H708 H 0.91349 0.22154 0.83647 0.0
H709 H 0.94889 0.15988 0.89483 0.0
H710 H 0.92695 0.19103 0.79629 0.0
H711 H 0.96188 0.12936 0.85493 0.0
H712 H 0.97955 0.07588 0.78095 0.0
H713 H 0.94581 0.10104 0.81123 0.0
H714 H 0.97946 0.18165 0.78209 0.0
H715 H 0.01337 0.15667 0.75171 0.0
C716 C 0.92313 0.20098 0.84073 0.0
C717 C 0.93052 0.19308 0.8686 0.0
C718 C 0.93091 0.18366 0.81779 0.0
C719 C 0.94558 0.15803 0.82259 0.0
C720 C 0.95038 0.14893 0.85065 0.0
C721 C 0.94312 0.16643 0.87348 0.0
C722 C 0.97945 0.09898 0.78048 0.0
C723 C -0.00029 0.1143 0.76447 0.0
C724 C 0.95999 0.11331 0.79774 0.0
C725 C 0.96025 0.14318 0.79911 0.0
C726 C 0.9787 0.15856 0.78122 0.0
C727 C -0.00167 0.14424 0.76407 0.0
H728 H 0.47744 0.82596 0.26417 0.0
H729 H 0.51941 0.90667 0.28022 0.0
H730 H 0.51474 0.80154 0.29085 0.0
H731 H 0.55654 0.88211 0.30672 0.0
H732 H 0.57012 0.82727 0.39215 0.0
H733 H 0.5507 0.85698 0.35437 0.0
H734 H 0.56872 0.79068 0.29302 0.0
H735 H 0.58864 0.76103 0.33098 0.0
C736 C 0.4947 0.83845 0.27311 0.0
C737 C 0.49515 0.86828 0.27047 0.0
C738 C 0.51627 0.82443 0.28801 0.0
C739 C 0.53853 0.84002 0.30065 0.0
C740 C 0.5396 0.86967 0.29711 0.0
C741 C 0.51821 0.88366 0.28206 0.0
C742 C 0.57118 0.81967 0.37037 0.0
C743 C 0.58062 0.79195 0.36435 0.0
C744 C 0.56006 0.83661 0.34875 0.0
C745 C 0.55782 0.82582 0.32094 0.0
C746 C 0.57004 0.79927 0.3144 0.0
C747 C 0.58168 0.78249 0.33601 0.0
H748 H 0.08574 0.72382 0.65857 0.0
H749 H 0.0638 0.6637 0.59241 0.0
H750 H 0.06421 0.69224 0.69413 0.0
H751 H 0.04243 0.63228 0.62766 0.0
H752 H 0.0101 0.57689 0.69727 0.0
H753 H 0.04677 0.60245 0.67094 0.0
H754 H 0.01163 0.68266 0.6995 0.0
H755 H 0.97501 0.6572 0.72616 0.0
C756 C 0.07744 0.70331 0.65184 0.0
C757 C 0.07617 0.69618 0.62283 0.0
C758 C 0.06483 0.68544 0.67209 0.0
C759 C 0.05125 0.66007 0.66357 0.0
C760 C 0.0528 0.65163 0.6349 0.0
C761 C 0.06501 0.66961 0.6147 0.0
C762 C 0.01026 0.59999 0.69819 0.0
C763 C 0.98927 0.61502 0.71351 0.0
C764 C 0.03138 0.61457 0.68317 0.0
C765 C 0.03208 0.64449 0.6832 0.0
C766 C 0.01187 0.65954 0.69943 0.0
C767 C 0.99066 0.64496 0.71441 0.0
H768 H 0.82947 0.57832 0.72794 0.0
H769 H 0.88779 0.55153 0.66198 0.0
H770 H 0.78938 0.55989 0.69994 0.0
H771 H 0.84792 0.53365 0.63393 0.0
H772 H 0.77182 0.51228 0.5835 0.0
H773 H 0.80136 0.54654 0.60883 0.0
H774 H 0.7796 0.50636 0.68859 0.0
H775 H 0.74993 0.47178 0.66335 0.0
C776 C 0.83357 0.56948 0.70701 0.0
C777 C 0.86163 0.56617 0.69706 0.0
C778 C 0.81071 0.55878 0.69116 0.0
C779 C 0.81565 0.54526 0.66493 0.0
C780 C 0.8435 0.54419 0.654 0.0
C781 C 0.86632 0.55433 0.67004 0.0
C782 C 0.77287 0.51092 0.6065 0.0
C783 C 0.75902 0.48881 0.62136 0.0
C784 C 0.78973 0.53067 0.62094 0.0
C785 C 0.79291 0.5289 0.65055 0.0
C786 C 0.77732 0.50828 0.66572 0.0
C787 C 0.76052 0.48835 0.65124 0.0
H788 H 0.59864 0.42832 0.16713 0.0
H789 H 0.66018 0.3964 0.22754 0.0
H790 H 0.63708 0.4415 0.13493 0.0
H791 H 0.69886 0.40995 0.19531 0.0
H792 H 0.73861 0.49807 0.16012 0.0
H793 H 0.71032 0.46276 0.18557 0.0
H794 H 0.68076 0.42805 0.10567 0.0
H795 H 0.70899 0.46328 0.08003 0.0
C796 C 0.62037 0.42322 0.17302 0.0
C797 C 0.62655 0.41179 0.19988 0.0
C798 C 0.64238 0.43059 0.15455 0.0
C799 C 0.6709 0.42703 0.16288 0.0
C800 C 0.677 0.41303 0.18856 0.0
C801 C 0.65489 0.40518 0.20688 0.0
C802 C 0.72658 0.48256 0.14794 0.0
C803 C 0.72549 0.48397 0.11809 0.0
C804 C 0.71066 0.4621 0.16251 0.0
C805 C 0.69329 0.44283 0.14749 0.0
C806 C 0.69391 0.44279 0.11766 0.0
C807 C 0.70998 0.46309 0.10307 0.0
H808 H 0.39902 0.925 0.32692 0.0
H809 H 0.33987 0.93098 0.25704 0.0
H810 H 0.36393 0.9465 0.35864 0.0
H811 H 0.30573 0.95505 0.28753 0.0
H812 H 0.24349 0.99279 0.34896 0.0
H813 H 0.27328 0.95884 0.32305 0.0
H814 H 0.34739 0.99057 0.3682 0.0
H815 H 0.3171 0.02218 0.39547 0.0
C816 C 0.37832 0.93081 0.31853 0.0
C817 C 0.37193 0.92642 0.28978 0.0
C818 C 0.3583 0.94354 0.33649 0.0
C819 C 0.33203 0.95337 0.32567 0.0
C820 C 0.32537 0.94761 0.29699 0.0
C821 C 0.345 0.9339 0.27935 0.0
C822 C 0.26615 0.99209 0.35333 0.0
C823 C 0.27813 0.00993 0.37408 0.0
C824 C 0.28333 0.97279 0.33843 0.0
C825 C 0.31298 0.97171 0.34335 0.0
C826 C 0.32469 0.98987 0.36422 0.0
C827 C 0.3074 0.00837 0.37968 0.0
H828 H 0.23332 0.98417 0.83672 0.0
H829 H 0.20104 0.01762 0.91636 0.0
H830 H 0.20574 0.01968 0.81093 0.0
H831 H 0.17365 0.05318 0.89039 0.0
H832 H 0.09426 0.05839 0.82676 0.0
H833 H 0.13104 0.04268 0.85962 0.0
H834 H 0.19601 0.07227 0.80145 0.0
H835 H 0.15893 0.08827 0.76848 0.0
C836 C 0.22072 -0.00066 0.84876 0.0
C837 C 0.21887 -0.00239 0.87856 0.0
C838 C 0.20524 0.01994 0.83399 0.0
C839 C 0.18756 0.0391 0.84873 0.0
C840 C 0.18705 0.03853 0.87857 0.0
C841 C 0.20263 0.01806 0.89337 0.0
C842 C 0.11638 0.0625 0.82151 0.0
C843 C 0.12387 0.07413 0.79505 0.0
C844 C 0.13745 0.05365 0.84036 0.0
C845 C 0.16633 0.05594 0.83283 0.0
C846 C 0.17384 0.0701 0.80756 0.0
C847 C 0.15268 0.0794 0.78884 0.0
H848 H 0.73754 0.8331 0.56029 0.0
H849 H 0.66365 0.88284 0.58263 0.0
H850 H 0.70732 0.7966 0.53974 0.0
H851 H 0.63268 0.84495 0.56481 0.0
H852 H 0.59306 0.80509 0.48603 0.0
H853 H 0.61922 0.83292 0.52038 0.0
H854 H 0.67496 0.7609 0.53586 0.0
H855 H 0.64969 0.73387 0.49916 0.0
C856 C 0.71461 0.83541 0.56199 0.0
C857 C 0.70271 0.86061 0.5727 0.0
C858 C 0.69714 0.81439 0.55031 0.0
C859 C 0.66734 0.81796 0.54977 0.0
C860 C 0.65552 0.84191 0.56366 0.0
C861 C 0.67311 0.86345 0.57434 0.0
C862 C 0.61082 0.79518 0.49695 0.0
C863 C 0.61963 0.76753 0.4898 0.0
C864 C 0.6257 0.81102 0.51708 0.0
C865 C 0.64937 0.79934 0.53128 0.0
C866 C 0.65729 0.77097 0.52503 0.0
C867 C 0.64283 0.75538 0.5041 0.0
H868 H 0.91619 0.18119 -0.00364 0.0
H869 H 0.85395 0.24896 -0.00364 0.0
H870 H 0.88634 0.1535 0.02816 0.0
H871 H 0.82465 0.22208 0.02983 0.0
H872 H 0.76293 0.14568 0.04042 0.0
H873 H 0.79491 0.18317 0.02489 0.0
H874 H 0.86399 0.14322 0.07112 0.0
H875 H 0.83165 0.10461 0.08522 0.0
C876 C 0.89641 0.19048 0.00383 0.0
C877 C 0.88708 0.21694 0.99345 0.0
C878 C 0.87935 0.17472 0.02238 0.0
C879 C 0.85278 0.18532 0.03146 0.0
C880 C 0.84457 0.21285 0.02272 0.0
C881 C 0.86135 0.22833 0.0036 0.0
C882 C 0.78477 0.14554 0.04797 0.0
C883 C 0.79501 0.12258 0.06396 0.0
C884 C 0.80319 0.16711 0.0392 0.0
C885 C 0.8323 0.16618 0.04639 0.0
C886 C 0.84189 0.14431 0.06463 0.0
C887 C 0.8234 0.12242 0.07307 0.0
H888 H 0.0996 0.68358 0.50928 0.0
H889 H 0.1475 0.75861 0.48626 0.0
H890 H 0.12455 0.65606 0.47359 0.0
H891 H 0.17112 0.73188 0.44823 0.0
H892 H 0.23613 0.66429 0.41797 0.0
H893 H 0.20565 0.69916 0.44067 0.0
H894 H 0.13313 0.64314 0.42827 0.0
H895 H 0.1648 0.60706 0.40836 0.0
C896 C 0.11525 0.69421 0.49601 0.0
C897 C 0.12205 0.72292 0.50055 0.0
C898 C 0.12929 0.6786 0.47509 0.0
C899 C 0.1499 0.69159 0.4575 0.0
C900 C 0.15587 0.72085 0.46156 0.0
C901 C 0.14238 0.73626 0.48326 0.0
C902 C 0.21347 0.65992 0.41936 0.0
C903 C 0.2027 0.63307 0.41178 0.0
C904 C 0.19584 0.67997 0.4324 0.0
C905 C 0.16688 0.67378 0.43736 0.0
C906 C 0.15554 0.64822 0.42616 0.0
C907 C 0.17347 0.6277 0.4142 0.0
H908 H 0.34029 0.26936 0.0145 0.0
H909 H 0.41954 0.31155 0.99301 0.0
H910 H 0.31539 0.29928 0.98022 0.0
H911 H 0.39459 0.34106 0.95857 0.0
H912 H 0.32703 0.4143 0.94437 0.0
H913 H 0.35952 0.37988 0.96529 0.0
H914 H 0.31084 0.31093 0.92821 0.0
H915 H 0.278 0.3455 0.90737 0.0
C916 C 0.35246 0.28485 0.00236 0.0
C917 C 0.38185 0.28833 0.00682 0.0
C918 C 0.33823 0.30169 0.98246 0.0
C919 C 0.35314 0.32235 0.96668 0.0
C920 C 0.38261 0.32534 0.97057 0.0
C921 C 0.39685 0.3085 0.99039 0.0
C922 C 0.32375 0.39183 0.93998 0.0
C923 C 0.29978 0.38252 0.92466 0.0
C924 C 0.34242 0.37212 0.95186 0.0
C925 C 0.33734 0.34276 0.94874 0.0
C926 C 0.31489 0.33348 0.93125 0.0
C927 C 0.29631 0.35327 0.91911 0.0
H928 H 0.47482 0.66482 0.73451 0.0
H929 H 0.5024 0.59265 0.78463 0.0
H930 H 0.50875 0.69523 0.75949 0.0
H931 H 0.53557 0.62321 0.81018 0.0
H932 H 0.59487 0.68214 0.854 0.0
H933 H 0.57686 0.6549 0.81296 0.0
H934 H 0.50473 0.71207 0.80762 0.0
H935 H 0.52291 0.73891 0.8479 0.0
C936 C 0.48831 0.65539 0.75066 0.0
C937 C 0.48544 0.6265 0.75811 0.0
C938 C 0.5078 0.67278 0.7649 0.0
C939 C 0.52452 0.66174 0.78711 0.0
C940 C 0.5232 0.63237 0.79303 0.0
C941 C 0.50393 0.61489 0.77857 0.0
C942 C 0.57573 0.68922 0.84323 0.0
C943 C 0.56012 0.71239 0.85377 0.0
C944 C 0.56532 0.67363 0.81998 0.0
C945 C 0.53929 0.68124 0.80713 0.0
C946 C 0.52502 0.70582 0.81663 0.0
C947 C 0.53528 0.72113 0.83982 0.0
H948 H 0.97461 0.83103 0.23909 0.0
H949 H 0.01668 0.91027 0.21721 0.0
H950 H 0.00814 0.80516 0.2089 0.0
H951 H 0.04988 0.88429 0.18707 0.0
H952 H 0.04665 0.83096 0.09963 0.0
H953 H 0.03327 0.85984 0.14067 0.0
H954 H 0.0614 0.79281 0.19706 0.0
H955 H 0.07542 0.76403 0.15574 0.0
C956 C 0.99135 0.84286 0.22843 0.0
C957 C 0.99246 0.87278 0.22997 0.0
C958 C 0.01071 0.82801 0.21138 0.0
C959 C 0.03136 0.84287 0.19555 0.0
C960 C 0.03399 0.87245 0.19895 0.0
C961 C 0.01482 0.88726 0.21611 0.0
C962 C 0.05095 0.82289 0.12082 0.0
C963 C 0.06189 0.79537 0.12467 0.0
C964 C 0.04342 0.8394 0.14429 0.0
C965 C 0.04618 0.82838 0.17194 0.0
C966 C 0.05908 0.80167 0.17589 0.0
C967 C 0.06723 0.78536 0.15234 0.0
H968 H 0.48532 0.14882 0.74505 0.0
H969 H 0.51409 0.10912 0.66738 0.0
H970 H 0.4449 0.1695 0.71993 0.0
H971 H 0.47549 0.13171 0.64136 0.0
H972 H 0.40636 0.1673 0.59537 0.0
H973 H 0.42855 0.13539 0.62975 0.0
H974 H 0.43417 0.20547 0.68974 0.0
H975 H 0.4096 0.23597 0.6564 0.0
C976 C 0.48318 0.14514 0.72236 0.0
C977 C 0.50286 0.12801 0.70782 0.0
C978 C 0.46003 0.15688 0.70793 0.0
C979 C 0.45667 0.15244 0.67847 0.0
C980 C 0.47664 0.1351 0.66412 0.0
C981 C 0.49919 0.12259 0.6788 0.0
C982 C 0.41095 0.17517 0.61658 0.0
C983 C 0.40656 0.20393 0.62337 0.0
C984 C 0.42426 0.15718 0.63609 0.0
C985 C 0.43453 0.16812 0.66209 0.0
C986 C 0.42681 0.19606 0.67003 0.0
C987 C 0.41255 0.21369 0.65091 0.0
H988 H 0.90794 0.33164 0.38664 0.0
H989 H 0.93219 0.25721 0.33856 0.0
H990 H 0.92878 0.36227 0.35009 0.0
H991 H 0.95535 0.28709 0.30337 0.0
H992 H -0.00179 0.34531 0.24202 0.0
H993 H 0.96095 0.31966 0.26784 0.0
H994 H 0.97462 0.37475 0.3407 0.0
H995 H 0.00986 0.4013 0.31405 0.0
C996 C 0.91706 0.32199 0.36775 0.0
C997 C 0.91838 0.2923 0.36506 0.0
C998 C 0.92955 0.33939 0.34706 0.0
C999 C 0.94473 0.32727 0.32408 0.0
C1000 C 0.94383 0.29746 0.32044 0.0
C1001 C 0.93054 0.28019 0.34064 0.0
C1002 C 0.99294 0.35187 0.26351 0.0
C1003 C 0.00693 0.37508 0.27618 0.0
C1004 C 0.97162 0.33721 0.27839 0.0
C1005 C 0.9645 0.34498 0.30653 0.0
C1006 C 0.97862 0.36845 0.3189 0.0
C1007 C -0.00075 0.3835 0.30377 0.0
H1008 H 0.17862 0.37291 0.02304 0.0
H1009 H 0.24898 0.43001 0.03999 0.0
H1010 H 0.17136 0.36661 0.07378 0.0
H1011 H 0.24181 0.42347 0.09109 0.0
H1012 H 0.15339 0.36151 0.16277 0.0
H1013 H 0.18563 0.35335 0.12269 0.0
H1014 H 0.20071 0.4441 0.1167 0.0
H1015 H 0.16876 0.45213 0.15658 0.0
C1016 C 0.19314 0.38342 0.03762 0.0
C1017 C 0.21387 0.40254 0.02752 0.0
C1018 C 0.18918 0.37956 0.06679 0.0
C1019 C 0.20577 0.39489 0.0865 0.0
C1020 C 0.2285 0.41163 0.07638 0.0
C1021 C 0.23262 0.41532 0.04711 0.0
C1022 C 0.16466 0.37954 0.15372 0.0
C1023 C 0.15816 0.40752 0.16233 0.0
C1024 C 0.18297 0.37488 0.13065 0.0
C1025 C 0.19523 0.39811 0.11614 0.0
C1026 C 0.19168 0.4257 0.12736 0.0
C1027 C 0.1732 0.43036 0.15015 0.0
H1028 H 0.30836 0.6385 0.5222 0.0
H1029 H 0.23676 0.58143 0.53287 0.0
H1030 H 0.31392 0.64119 0.5735 0.0
H1031 H 0.24239 0.58413 0.58445 0.0
H1032 H 0.33001 0.63833 0.66255 0.0
H1033 H 0.29805 0.65014 0.62346 0.0
H1034 H 0.28378 0.5604 0.60809 0.0
H1035 H 0.31555 0.54854 0.64706 0.0
C1036 C 0.29311 0.62741 0.53554 0.0
C1037 C 0.27262 0.6092 0.52349 0.0
C1038 C 0.29613 0.62911 0.56504 0.0
C1039 C 0.2789 0.61241 0.58301 0.0
C1040 C 0.25618 0.59695 0.57107 0.0
C1041 C 0.25292 0.59551 0.5415 0.0
C1042 C 0.31915 0.6211 0.65163 0.0
C1043 C 0.32604 0.59244 0.65731 0.0
C1044 C 0.30087 0.62794 0.62917 0.0
C1045 C 0.28895 0.60623 0.6123 0.0
C1046 C 0.29265 0.57767 0.62063 0.0
C1047 C 0.31109 0.57082 0.6429 0.0
H1048 H 0.67101 0.09357 0.80846 0.0
H1049 H 0.61279 0.12817 0.87063 0.0
H1050 H 0.71013 0.09729 0.84325 0.0
H1051 H 0.65094 0.13187 0.90492 0.0
H1052 H 0.73629 0.05465 0.93311 0.0
H1053 H 0.71844 0.06904 0.88659 0.0
H1054 H 0.69523 0.15132 0.92111 0.0
H1055 H 0.71158 0.13611 0.96797 0.0
C1056 C 0.66685 0.10268 0.82926 0.0
C1057 C 0.63902 0.11021 0.83721 0.0
C1058 C 0.6891 0.10477 0.84913 0.0
C1059 C 0.68373 0.11488 0.87689 0.0
C1060 C 0.65616 0.12445 0.88371 0.0
C1061 C 0.6341 0.12199 0.86417 0.0
C1062 C 0.72856 0.07626 0.93038 0.0
C1063 C 0.72464 0.09411 0.95405 0.0
C1064 C 0.71838 0.08459 0.90367 0.0
C1065 C 0.70454 0.111 0.9004 0.0
C1066 C 0.70502 0.13051 0.92319 0.0
C1067 C 0.7145 0.12192 0.94997 0.0
H1068 H 0.73799 0.92398 0.4514 0.0
H1069 H 0.80358 0.86103 0.46584 0.0
H1070 H 0.74618 0.92056 0.4002 0.0
H1071 H 0.812 0.85792 0.41504 0.0
H1072 H 0.83569 0.86096 0.32762 0.0
H1073 H 0.80101 0.85063 0.36489 0.0
H1074 H 0.78855 0.94101 0.378 0.0
H1075 H 0.82264 0.95132 0.34064 0.0
C1076 C 0.75335 0.90858 0.44363 0.0
C1077 C 0.77075 0.89337 0.46268 0.0
C1078 C 0.75813 0.90675 0.41428 0.0
C1079 C 0.78022 0.88954 0.40357 0.0
C1080 C 0.79482 0.87144 0.42245 0.0
C1081 C 0.79016 0.87339 0.45171 0.0
C1082 C 0.82473 0.87863 0.33768 0.0
C1083 C 0.83262 0.907 0.33181 0.0
C1084 C 0.8049 0.87267 0.35912 0.0
C1085 C 0.79255 0.89495 0.37492 0.0
C1086 C 0.79762 0.92326 0.36635 0.0
C1087 C 0.81746 0.92922 0.34502 0.0
H1088 H 0.15977 0.15006 0.3586 0.0
H1089 H 0.1495 0.16742 0.4484 0.0
H1090 H 0.12084 0.18284 0.34795 0.0
H1091 H 0.1107 0.1999 0.43779 0.0
H1092 H 0.01975 0.18114 0.36307 0.0
H1093 H 0.07035 0.1714 0.35881 0.0
H1094 H 0.08897 0.24215 0.4148 0.0
H1095 H 0.03815 0.25186 0.41933 0.0
C1096 C 0.14995 0.16164 0.37599 0.0
C1097 C 0.15723 0.15565 0.40442 0.0
C1098 C 0.12758 0.18034 0.36986 0.0
C1099 C 0.11239 0.19357 0.39202 0.0
C1100 C 0.12199 0.19015 0.42017 0.0
C1101 C 0.14412 0.1713 0.42631 0.0
C1102 C 0.03462 0.19527 0.37371 0.0
C1103 C 0.02485 0.21669 0.39226 0.0
C1104 C 0.06374 0.18983 0.37108 0.0
C1105 C 0.08362 0.20565 0.387 0.0
C1106 C 0.07406 0.22933 0.40267 0.0
C1107 C 0.04491 0.2349 0.40518 0.0
H1108 H 0.34038 0.85175 0.8644 0.0
H1109 H 0.31795 0.82525 0.94946 0.0
H1110 H 0.38052 0.81849 0.86463 0.0
H1111 H 0.35758 0.79165 0.94944 0.0
H1112 H 0.45584 0.81381 0.95711 0.0
H1113 H 0.40562 0.82276 0.94917 0.0
H1114 H 0.40626 0.76569 0.87692 0.0
H1115 H 0.45729 0.75594 0.88546 0.0
C1116 C 0.34295 0.83753 0.88238 0.0
C1117 C 0.32664 0.84135 0.90717 0.0
C1118 C 0.36588 0.81846 0.88249 0.0
C1119 C 0.37234 0.8031 0.9073 0.0
C1120 C 0.35308 0.80354 0.93018 0.0
C1121 C 0.33046 0.82275 0.93021 0.0
C1122 C 0.44533 0.80301 0.93959 0.0
C1123 C 0.46041 0.78443 0.92172 0.0
C1124 C 0.41649 0.80782 0.93529 0.0
C1125 C 0.40206 0.7945 0.91274 0.0
C1126 C 0.41697 0.77585 0.89466 0.0
C1127 C 0.44599 0.77042 0.89946 0.0
H1128 H 0.51962 0.30551 0.63632 0.0
H1129 H 0.5328 0.2377 0.57536 0.0
H1130 H 0.57067 0.3122 0.64007 0.0
H1131 H 0.58422 0.24415 0.57945 0.0
H1132 H 0.64547 0.31851 0.54665 0.0
H1133 H 0.60746 0.28539 0.55788 0.0
H1134 H 0.62062 0.30044 0.64769 0.0
H1135 H 0.65858 0.33414 0.63641 0.0
C1136 C 0.53347 0.2912 0.62461 0.0
C1137 C 0.52215 0.27175 0.60485 0.0
C1138 C 0.56289 0.29488 0.62692 0.0
C1139 C 0.58154 0.27922 0.60942 0.0
C1140 C 0.57033 0.25694 0.59274 0.0
C1141 C 0.54083 0.25316 0.59053 0.0
C1142 C 0.64096 0.3141 0.56884 0.0
C1143 C 0.65441 0.32972 0.59057 0.0
C1144 C 0.61925 0.2948 0.57535 0.0
C1145 C 0.61051 0.29076 0.60372 0.0
C1146 C 0.62651 0.30353 0.62561 0.0
C1147 C 0.64834 0.32281 0.61909 0.0
H1148 H 0.84073 0.62915 0.13286 0.0
H1149 H 0.80768 0.67325 0.05961 0.0
H1150 H 0.8766 0.66522 0.13896 0.0
H1151 H 0.84144 0.71194 0.06741 0.0
H1152 H 0.93454 0.73415 0.04954 0.0
H1153 H 0.8859 0.7198 0.05628 0.0
H1154 H 0.90355 0.70267 0.14533 0.0
H1155 H 0.9535 0.71395 0.13695 0.0
C1156 C 0.84033 0.64757 0.11892 0.0
C1157 C 0.82196 0.64827 0.09547 0.0
C1158 C 0.86101 0.66866 0.12242 0.0
C1159 C 0.86327 0.69148 0.10294 0.0
C1160 C 0.84185 0.69407 0.08193 0.0
C1161 C 0.822 0.67219 0.07766 0.0
C1162 C 0.92776 0.72798 0.07073 0.0
C1163 C 0.94775 0.72449 0.09255 0.0
C1164 C 0.89949 0.71974 0.07482 0.0
C1165 C 0.89033 0.70858 0.10121 0.0
C1166 C 0.90976 0.70935 0.12419 0.0
C1167 C 0.9384 0.71635 0.11967 0.0
H1168 H 0.38113 0.01083 0.1588 0.0
H1169 H 0.42935 0.0325 0.23418 0.0
H1170 H 0.37564 0.06139 0.14801 0.0
H1171 H 0.42417 0.08315 0.22301 0.0
H1172 H 0.45688 0.14615 0.14725 0.0
H1173 H 0.44907 0.10493 0.1779 0.0
H1174 H 0.35826 0.1121 0.16494 0.0
H1175 H 0.36605 0.15391 0.13467 0.0
C1176 C 0.38988 0.02641 0.17345 0.0
C1177 C 0.40605 0.01775 0.19704 0.0
C1178 C 0.38651 0.05534 0.16743 0.0
C1179 C 0.39963 0.07606 0.18465 0.0
C1180 C 0.41388 0.06751 0.20946 0.0
C1181 C 0.41681 0.03855 0.21579 0.0
C1182 C 0.43521 0.13959 0.15188 0.0
C1183 C 0.41209 0.15295 0.13848 0.0
C1184 C 0.4307 0.11612 0.16952 0.0
C1185 C 0.40306 0.10531 0.17355 0.0
C1186 C 0.37974 0.12012 0.1621 0.0
C1187 C 0.38422 0.14404 0.14492 0.0
H1188 H 0.86864 0.4651 0.81306 0.0
H1189 H 0.92363 0.44703 0.74147 0.0
H1190 H 0.86683 0.41455 0.8244 0.0
H1191 H 0.92178 0.39626 0.7529 0.0
H1192 H 0.86899 0.32466 0.84608 0.0
H1193 H 0.8569 0.36317 0.81323 0.0
H1194 H 0.94635 0.37631 0.79584 0.0
H1195 H 0.9584 0.33805 0.82858 0.0
C1196 C 0.87949 0.45022 0.79911 0.0
C1197 C 0.89676 0.46014 0.77675 0.0
C1198 C 0.87831 0.42116 0.8055 0.0
C1199 C 0.89457 0.40147 0.78981 0.0
C1200 C 0.90929 0.41102 0.76554 0.0
C1201 C 0.91021 0.44011 0.75893 0.0
C1202 C 0.886 0.335 0.83437 0.0
C1203 C 0.9147 0.3287 0.84028 0.0
C1204 C 0.87905 0.35715 0.81567 0.0
C1205 C 0.90067 0.37303 0.80228 0.0
C1206 C 0.92916 0.36444 0.8057 0.0
C1207 C 0.93612 0.3426 0.82463 0.0
H1208 H 0.63854 0.52445 0.30487 0.0
H1209 H 0.57706 0.53993 0.23825 0.0
H1210 H 0.64264 0.5753 0.31309 0.0
H1211 H 0.58156 0.59117 0.24616 0.0
H1212 H 0.63906 0.66274 0.33805 0.0
H1213 H 0.65028 0.62565 0.3033 0.0
H1214 H 0.56031 0.61309 0.28802 0.0
H1215 H 0.54922 0.65019 0.32218 0.0
C1216 C 0.62679 0.53879 0.29114 0.0
C1217 C 0.60676 0.52813 0.2716 0.0
C1218 C 0.6293 0.5681 0.29569 0.0
C1219 C 0.61177 0.58731 0.28083 0.0
C1220 C 0.59487 0.57684 0.25839 0.0
C1221 C 0.59242 0.54744 0.25375 0.0
C1222 C 0.62174 0.65284 0.32642 0.0
C1223 C 0.59321 0.65879 0.33344 0.0
C1224 C 0.62819 0.6315 0.30657 0.0
C1225 C 0.60622 0.61593 0.29335 0.0
C1226 C 0.57784 0.62458 0.29771 0.0
C1227 C 0.57142 0.64574 0.31759 0.0
H1228 H 0.07838 0.94996 0.752 0.0
H1229 H 0.13465 0.96685 0.6811 0.0
H1230 H 0.08435 0.89882 0.7445 0.0
H1231 H 0.14031 0.91603 0.67346 0.0
H1232 H 0.14143 0.82771 0.65232 0.0
H1233 H 0.15188 0.86642 0.68547 0.0
H1234 H 0.06203 0.8745 0.70395 0.0
H1235 H 0.05167 0.83583 0.67122 0.0
C1236 C 0.09288 0.94284 0.73551 0.0
C1237 C 0.10537 0.96246 0.71657 0.0
C1238 C 0.0962 0.9135 0.73118 0.0
C1239 C 0.11224 0.90334 0.708 0.0
C1240 C 0.12778 0.92302 0.69154 0.0
C1241 C 0.12433 0.95228 0.69575 0.0
C1242 C 0.12404 0.83691 0.66439 0.0
C1243 C 0.09562 0.82929 0.65856 0.0
C1244 C 0.13005 0.85921 0.6833 0.0
C1245 C 0.10776 0.87401 0.6968 0.0
C1246 C 0.07976 0.86364 0.69392 0.0
C1247 C 0.07375 0.84154 0.67493 0.0
H1248 H 0.81332 0.55567 0.81906 0.0
H1249 H 0.8644 0.62463 0.85187 0.0
H1250 H 0.77889 0.56274 0.85729 0.0
H1251 H 0.83258 0.62985 0.89177 0.0
H1252 H 0.78587 0.62989 0.97046 0.0
H1253 H 0.79649 0.63821 0.9204 0.0
H1254 H 0.7742 0.55023 0.90208 0.0
H1255 H 0.76068 0.54361 0.95098 0.0
C1256 C 0.81683 0.57263 0.83436 0.0
C1257 C 0.84132 0.58961 0.83273 0.0
C1258 C 0.79743 0.57646 0.8567 0.0
C1259 C 0.80308 0.5962 0.87878 0.0
C1260 C 0.82676 0.61453 0.87557 0.0
C1261 C 0.84536 0.6115 0.85261 0.0
C1262 C 0.78222 0.61287 0.95526 0.0
C1263 C 0.77271 0.58609 0.96449 0.0
C1264 C 0.78882 0.61734 0.92654 0.0
C1265 C 0.78766 0.59459 0.90678 0.0
C1266 C 0.77557 0.56858 0.91595 0.0
C1267 C 0.76779 0.56459 0.94433 0.0
H1268 H 0.65815 0.35777 0.32819 0.0
H1269 H 0.6725 0.44741 0.34442 0.0
H1270 H 0.69157 0.34565 0.36601 0.0
H1271 H 0.7056 0.43533 0.38214 0.0
H1272 H 0.75348 0.41537 0.45603 0.0
H1273 H 0.74741 0.4124 0.40454 0.0
H1274 H 0.6779 0.35303 0.41633 0.0
H1275 H 0.68402 0.35586 0.46751 0.0
C1276 C 0.66927 0.37491 0.339 0.0
C1277 C 0.66203 0.40358 0.33393 0.0
C1278 C 0.68837 0.36791 0.36073 0.0
C1279 C 0.70071 0.38948 0.3775 0.0
C1280 C 0.69648 0.41813 0.36968 0.0
C1281 C 0.67725 0.42511 0.34816 0.0
C1282 C 0.73773 0.40071 0.44759 0.0
C1283 C 0.71862 0.3865 0.46582 0.0
C1284 C 0.73421 0.39911 0.41807 0.0
C1285 C 0.71175 0.38306 0.4064 0.0
C1286 C 0.69541 0.36566 0.42455 0.0
C1287 C 0.69876 0.36744 0.454 0.0
H1288 H 0.30981 0.8669 0.02241 0.0
H1289 H 0.24195 0.92431 0.0464 0.0
H1290 H 0.31931 0.85716 0.07217 0.0
H1291 H 0.25132 0.9143 0.09659 0.0
H1292 H 0.32894 0.93897 0.15809 0.0
H1293 H 0.29394 0.93298 0.12059 0.0
H1294 H 0.30856 0.84196 0.12108 0.0
H1295 H 0.34398 0.84814 0.15878 0.0
C1296 C 0.29626 0.8767 0.03835 0.0
C1297 C 0.27569 0.89698 0.03056 0.0
C1298 C 0.30149 0.87086 0.06696 0.0
C1299 C 0.28639 0.88537 0.08841 0.0
C1300 C 0.26355 0.9031 0.08053 0.0
C1301 C 0.25815 0.90878 0.05178 0.0
C1302 C 0.32383 0.91755 0.15101 0.0
C1303 C 0.33959 0.89411 0.16083 0.0
C1304 C 0.30356 0.91404 0.1296 0.0
C1305 C 0.2989 0.88702 0.11741 0.0
C1306 C 0.31203 0.86309 0.12981 0.0
C1307 C 0.33219 0.8666 0.1515 0.0
H1308 H 0.25557 0.07474 0.54298 0.0
H1309 H 0.18527 0.13199 0.52693 0.0
H1310 H 0.2478 0.07977 0.5941 0.0
H1311 H 0.17738 0.13674 0.5777 0.0
H1312 H 0.15459 0.13544 0.66502 0.0
H1313 H 0.18909 0.14684 0.62781 0.0
H1314 H 0.20631 0.05697 0.61667 0.0
H1315 H 0.17221 0.04569 0.65379 0.0
C1316 C 0.23915 0.08923 0.55032 0.0
C1317 C 0.2204 0.10226 0.53094 0.0
C1318 C 0.2347 0.09206 0.57963 0.0
C1319 C 0.21159 0.1081 0.58994 0.0
C1320 C 0.1954 0.12419 0.57056 0.0
C1321 C 0.19972 0.12123 0.54134 0.0
C1322 C 0.16667 0.11822 0.65549 0.0
C1323 C 0.16012 0.08961 0.66167 0.0
C1324 C 0.18637 0.12477 0.6341 0.0
C1325 C 0.19991 0.10281 0.61882 0.0
C1326 C 0.19628 0.07446 0.62794 0.0
C1327 C 0.17648 0.06792 0.6491 0.0
H1328 H 0.95691 0.74128 0.57006 0.0
H1329 H 0.97188 0.81147 0.62791 0.0
H1330 H 0.90566 0.74939 0.57355 0.0
H1331 H 0.92085 0.81944 0.63141 0.0
H1332 H 0.83114 0.83743 0.63109 0.0
H1333 H 0.87019 0.80467 0.64126 0.0
H1334 H 0.88379 0.79291 0.55106 0.0
H1335 H 0.84496 0.82558 0.54087 0.0
C1336 C 0.94927 0.75768 0.58442 0.0
C1337 C 0.96843 0.77624 0.59816 0.0
C1338 C 0.91991 0.76233 0.58633 0.0
C1339 C 0.9093 0.78532 0.60234 0.0
C1340 C 0.92833 0.80149 0.61894 0.0
C1341 C 0.95764 0.79708 0.61676 0.0
C1342 C 0.8417 0.82697 0.61343 0.0
C1343 C 0.83549 0.83463 0.58515 0.0
C1344 C 0.86411 0.80826 0.6193 0.0
C1345 C 0.88033 0.79664 0.59699 0.0
C1346 C 0.87167 0.80146 0.56875 0.0
C1347 C 0.84953 0.82039 0.56288 0.0
H1348 H 0.66607 0.13696 0.12505 0.0
H1349 H 0.6592 0.15531 0.03522 0.0
H1350 H 0.62839 0.17158 0.13497 0.0
H1351 H 0.6219 0.1899 0.04511 0.0
H1352 H 0.55188 0.24654 0.06388 0.0
H1353 H 0.60206 0.23386 0.0697 0.0
H1354 H 0.57747 0.16081 0.12006 0.0
H1355 H 0.52755 0.1733 0.11415 0.0
C1356 C 0.65737 0.14924 0.10757 0.0
C1357 C 0.66507 0.14309 0.07929 0.0
C1358 C 0.63578 0.16898 0.11327 0.0
C1359 C 0.622 0.18313 0.0908 0.0
C1360 C 0.6322 0.17945 0.0629 0.0
C1361 C 0.65341 0.15945 0.05718 0.0
C1362 C 0.55727 0.22839 0.07707 0.0
C1363 C 0.53585 0.21049 0.08803 0.0
C1364 C 0.58597 0.22115 0.08036 0.0
C1365 C 0.59361 0.19619 0.09502 0.0
C1366 C 0.57227 0.18026 0.10877 0.0
C1367 C 0.54363 0.18725 0.10516 0.0
H1368 H 0.4563 0.75681 0.41169 0.0
H1369 H 0.47044 0.68378 0.35723 0.0
H1370 H 0.40499 0.75118 0.40577 0.0
H1371 H 0.41942 0.67807 0.35157 0.0
H1372 H 0.34058 0.67973 0.44053 0.0
H1373 H 0.37973 0.71154 0.42926 0.0
H1374 H 0.3702 0.69194 0.33988 0.0
H1375 H 0.33103 0.65973 0.35117 0.0
C1376 C 0.44856 0.74023 0.39758 0.0
C1377 C 0.46739 0.72012 0.38567 0.0
C1378 C 0.41913 0.737 0.39426 0.0
C1379 C 0.40812 0.7138 0.37879 0.0
C1380 C 0.42711 0.69619 0.36367 0.0
C1381 C 0.45647 0.69929 0.36713 0.0
C1382 C 0.34609 0.68296 0.41836 0.0
C1383 C 0.33337 0.6664 0.39688 0.0
C1384 C 0.36846 0.70146 0.41182 0.0
C1385 C 0.37855 0.70369 0.3837 0.0
C1386 C 0.36321 0.69021 0.3618 0.0
C1387 C 0.3407 0.67178 0.36832 0.0
H1388 H 0.03621 0.30224 0.86151 0.0
H1389 H 0.05607 0.23631 0.92255 0.0
H1390 H 0.08648 0.31255 0.85605 0.0
H1391 H 0.10677 0.24632 0.91665 0.0
H1392 H 0.16421 0.32475 0.9464 0.0
H1393 H 0.12837 0.2888 0.93682 0.0
H1394 H 0.13664 0.3044 0.84652 0.0
H1395 H 0.1724 0.34097 0.85625 0.0
C1396 C 0.05139 0.28917 0.87295 0.0
C1397 C 0.0421 0.26914 0.89317 0.0
C1398 C 0.08038 0.2949 0.86962 0.0
C1399 C 0.10068 0.28075 0.8865 0.0
C1400 C 0.09159 0.258 0.90379 0.0
C1401 C 0.06251 0.25218 0.90707 0.0
C1402 C 0.15918 0.31982 0.92443 0.0
C1403 C 0.17047 0.33632 0.90217 0.0
C1404 C 0.13871 0.29894 0.91886 0.0
C1405 C 0.12906 0.29421 0.89089 0.0
C1406 C 0.14322 0.30798 0.86834 0.0
C1407 C 0.16384 0.32885 0.87393 0.0
H1408 H 0.62358 0.84854 0.86777 0.0
H1409 H 0.53178 0.85167 0.86168 0.0
H1410 H 0.62696 0.89264 0.83992 0.0
H1411 H 0.53523 0.89519 0.83334 0.0
H1412 H 0.60126 0.99343 0.84196 0.0
H1413 H 0.60727 0.9439 0.8571 0.0
H1414 H 0.55741 0.91539 0.78533 0.0
H1415 H 0.55161 0.96458 0.76982 0.0
C1416 C 0.60423 0.8581 0.8596 0.0
C1417 C 0.5774 0.84687 0.86681 0.0
C1418 C 0.60619 0.88334 0.84391 0.0
C1419 C 0.58137 0.89717 0.83466 0.0
C1420 C 0.55467 0.88474 0.84009 0.0
C1421 C 0.55268 0.85994 0.8563 0.0
C1422 C 0.5921 0.97658 0.82907 0.0
C1423 C 0.57563 0.983 0.80494 0.0
C1424 C 0.59573 0.94827 0.83761 0.0
C1425 C 0.58266 0.92604 0.82236 0.0
C1426 C 0.5676 0.93227 0.7974 0.0
C1427 C 0.56432 0.96046 0.78861 0.0
H1428 H 0.12038 0.66911 0.14707 0.0
H1429 H 0.03103 0.65086 0.16026 0.0
H1430 H 0.13289 0.63202 0.18127 0.0
H1431 H 0.04353 0.61391 0.19419 0.0
H1432 H 0.12754 0.52982 0.18325 0.0
H1433 H 0.1273 0.5802 0.17134 0.0
H1434 H 0.06637 0.59609 0.23845 0.0
H1435 H 0.06643 0.54547 0.25036 0.0
C1436 C 0.10337 0.65792 0.15797 0.0
C1437 C 0.0747 0.66247 0.15047 0.0
C1438 C 0.11059 0.6366 0.1775 0.0
C1439 C 0.08925 0.61975 0.1901 0.0
C1440 C 0.06052 0.62656 0.18499 0.0
C1441 C 0.05332 0.64763 0.1653 0.0
C1442 C 0.11487 0.54417 0.19618 0.0
C1443 C 0.09642 0.53349 0.21722 0.0
C1444 C 0.11487 0.57317 0.18947 0.0
C1445 C 0.09632 0.59202 0.20358 0.0
C1446 C 0.08053 0.58194 0.22693 0.0
C1447 C 0.0807 0.55292 0.23382 0.0
H1448 H 0.35488 0.47164 0.68287 0.0
H1449 H 0.41415 0.45689 0.7516 0.0
H1450 H 0.34989 0.42072 0.67598 0.0
H1451 H 0.40872 0.40548 0.74508 0.0
H1452 H 0.44042 0.34206 0.6725 0.0
H1453 H 0.42987 0.38034 0.70544 0.0
H1454 H 0.34002 0.37149 0.68721 0.0
H1455 H 0.35073 0.33338 0.6535 0.0
C1456 C 0.36603 0.45746 0.69725 0.0
C1457 C 0.38558 0.46828 0.71717 0.0
C1458 C 0.36296 0.42811 0.6935 0.0
C1459 C 0.37947 0.40893 0.70954 0.0
C1460 C 0.39616 0.41973 0.732 0.0
C1461 C 0.39915 0.44921 0.73583 0.0
C1462 C 0.4183 0.34756 0.67619 0.0
C1463 C 0.39654 0.33539 0.65959 0.0
C1464 C 0.41217 0.36944 0.69538 0.0
C1465 C 0.38412 0.37958 0.69838 0.0
C1466 C 0.36192 0.3646 0.68484 0.0
C1467 C 0.36808 0.34264 0.6656 0.0
H1468 H 0.85166 0.0249 0.28438 0.0
H1469 H 0.93834 0.0436 0.26059 0.0
H1470 H 0.84314 0.07534 0.2934 0.0
H1471 H 0.93157 0.09299 0.2727 0.0
H1472 H 0.92776 0.17462 0.31364 0.0
H1473 H 0.91969 0.13789 0.2778 0.0
H1474 H 0.85077 0.10402 0.32944 0.0
H1475 H 0.85708 0.1426 0.36266 0.0
C1476 C 0.86871 0.04006 0.28061 0.0
C1477 C 0.89566 0.03059 0.27205 0.0
C1478 C 0.86413 0.06899 0.28634 0.0
C1479 C 0.88697 0.08867 0.28539 0.0
C1480 C 0.91316 0.0792 0.27396 0.0
C1481 C 0.91726 0.05056 0.267 0.0
C1482 C 0.91017 0.15987 0.31637 0.0
C1483 C 0.89311 0.16113 0.34078 0.0
C1484 C 0.90576 0.13837 0.29615 0.0
C1485 C 0.88538 0.11665 0.30094 0.0
C1486 C 0.86671 0.11986 0.32433 0.0
C1487 C 0.87034 0.14208 0.34376 0.0
H1488 H 0.05723 0.33046 0.15047 0.0
H1489 H 0.01905 0.40769 0.11788 0.0
H1490 H 0.04112 0.30462 0.10803 0.0
H1491 H 0.00264 0.38192 0.07613 0.0
H1492 H 0.98428 0.26683 0.03409 0.0
H1493 H -0.00142 0.28793 0.0797 0.0
H1494 H 0.02909 0.36275 0.03549 0.0
H1495 H 0.01462 0.34218 0.99043 0.0
C1496 C 0.04495 0.34176 0.13456 0.0
C1497 C 0.03983 0.37121 0.13724 0.0
C1498 C 0.03573 0.32697 0.11031 0.0
C1499 C 0.0212 0.34142 0.08852 0.0
C1500 C 0.01451 0.3704 0.09221 0.0
C1501 C 0.02381 0.38513 0.1162 0.0
C1502 C 0.99433 0.28765 0.03416 0.0
C1503 C -0.00204 0.30299 0.00868 0.0
C1504 C 0.00248 0.29969 0.06024 0.0
C1505 C 0.01437 0.32722 0.06116 0.0
C1506 C 0.01922 0.34184 0.03554 0.0
C1507 C 0.01106 0.32994 0.00967 0.0
H1508 H 0.5146 0.638 0.49199 0.0
H1509 H 0.4979 0.72494 0.5181 0.0
H1510 H 0.49206 0.62063 0.53499 0.0
H1511 H 0.47464 0.70721 0.56133 0.0
H1512 H 0.46172 0.65827 0.64848 0.0
H1513 H 0.48428 0.68059 0.60693 0.0
H1514 H 0.44302 0.61914 0.55205 0.0
H1515 H 0.42118 0.5967 0.59306 0.0
C1516 C 0.50598 0.65346 0.50683 0.0
C1517 C 0.50773 0.68288 0.50139 0.0
C1518 C 0.49297 0.64346 0.53147 0.0
C1519 C 0.48118 0.66256 0.55127 0.0
C1520 C 0.4836 0.69203 0.54641 0.0
C1521 C 0.49679 0.70213 0.52163 0.0
C1522 C 0.45736 0.64976 0.62748 0.0
C1523 C 0.44012 0.62544 0.62407 0.0
C1524 C 0.47018 0.66256 0.60375 0.0
C1525 C 0.4658 0.65124 0.57636 0.0
C1526 C 0.44741 0.62785 0.57297 0.0
C1527 C 0.43484 0.61504 0.59651 0.0
H1528 H 0.46329 0.16368 0.96728 0.0
H1529 H 0.49819 0.24901 0.963 0.0
H1530 H 0.47586 0.1559 0.91792 0.0
H1531 H 0.51093 0.24101 0.91288 0.0
H1532 H 0.4826 0.14707 0.82883 0.0
H1533 H 0.46296 0.17314 0.86928 0.0
H1534 H 0.54651 0.20716 0.8879 0.0
H1535 H 0.56593 0.18165 0.84671 0.0
C1536 C 0.47361 0.18086 0.95576 0.0
C1537 C 0.47996 0.20688 0.96913 0.0
C1538 C 0.48044 0.17653 0.9273 0.0
C1539 C 0.49398 0.19804 0.91144 0.0
C1540 C 0.50032 0.22419 0.92463 0.0
C1541 C 0.49308 0.2287 0.95323 0.0
C1542 C 0.4964 0.16127 0.84076 0.0
C1543 C 0.5257 0.1623 0.83501 0.0
C1544 C 0.48526 0.17601 0.86397 0.0
C1545 C 0.5034 0.19148 0.8821 0.0
C1546 C 0.53207 0.19537 0.87425 0.0
C1547 C 0.54318 0.18085 0.85068 0.0
H1548 H 0.02784 0.85947 0.49659 0.0
H1549 H 0.00353 0.7741 0.47117 0.0
H1550 H 0.00621 0.8784 0.45365 0.0
H1551 H 0.9813 0.79331 0.42833 0.0
H1552 H 0.9672 0.8396 0.34174 0.0
H1553 H 0.99115 0.81788 0.38262 0.0
H1554 H 0.95747 0.88399 0.43723 0.0
H1555 H 0.93417 0.90583 0.3968 0.0
C1556 C 0.01788 0.84471 0.48188 0.0
C1557 C 0.01716 0.81529 0.48751 0.0
C1558 C 0.00538 0.8556 0.4573 0.0
C1559 C 0.99173 0.83737 0.43783 0.0
C1560 C 0.99179 0.80785 0.4429 0.0
C1561 C 0.00441 0.7969 0.46752 0.0
C1562 C 0.96482 0.84936 0.36253 0.0
C1563 C 0.94902 0.8746 0.36594 0.0
C1564 C 0.97848 0.8369 0.3859 0.0
C1565 C 0.97651 0.84949 0.41302 0.0
C1566 C 0.95999 0.87418 0.41648 0.0
C1567 C 0.94648 0.88661 0.39327 0.0
H1568 H 0.10422 0.04122 0.41301 0.0
H1569 H 0.15353 0.02841 0.33616 0.0
H1570 H 0.06306 0.02062 0.39042 0.0
H1571 H 0.11174 0.00654 0.31353 0.0
H1572 H 0.01893 0.00193 0.27619 0.0
H1573 H 0.06417 0.01898 0.29581 0.0
H1574 H 0.0455 0.97585 0.37498 0.0
H1575 H 0.00012 0.95997 0.35591 0.0
C1576 C 0.10647 0.03366 0.39132 0.0
C1577 C 0.13236 0.03644 0.37645 0.0
C1578 C 0.08275 0.02159 0.3784 0.0
C1579 C 0.08415 0.01158 0.35028 0.0
C1580 C 0.10998 0.0142 0.33522 0.0
C1581 C 0.13393 0.02656 0.34821 0.0
C1582 C 0.02461 0.99613 0.29777 0.0
C1583 C 0.00576 0.98015 0.31474 0.0
C1584 C 0.0506 0.00566 0.3089 0.0
C1585 C 0.05827 -0.00092 0.33707 0.0
C1586 C 0.03992 0.98195 0.35346 0.0
C1587 C 0.01388 0.97284 0.34254 0.0
H1588 H 0.46417 0.06563 0.84342 0.0
H1589 H 0.45714 0.01488 0.76689 0.0
H1590 H 0.42157 0.04296 0.8624 0.0
H1591 H 0.41449 0.99164 0.7863 0.0
H1592 H 0.32778 0.96798 0.83117 0.0
H1593 H 0.36329 -0.0032 0.80576 0.0
H1594 H 0.4189 0.99252 0.87883 0.0
H1595 H 0.384 0.96426 0.9041 0.0
C1596 C 0.45321 0.04994 0.83046 0.0
C1597 C 0.46422 0.04157 0.80395 0.0
C1598 C 0.42888 0.03692 0.84135 0.0
C1599 C 0.41522 0.01508 0.82609 0.0
C1600 C 0.42471 0.0084 0.79849 0.0
C1601 C 0.44908 0.02166 0.78742 0.0
C1602 C 0.34764 0.97316 0.84173 0.0
C1603 C 0.35293 0.96392 0.86976 0.0
C1604 C 0.3679 0.98962 0.82717 0.0
C1605 C 0.39355 -0.00271 0.84055 0.0
C1606 C 0.399 0.98752 0.86824 0.0
C1607 C 0.37901 0.97108 0.88265 0.0
H1608 H 0.59144 0.43238 0.58599 0.0
H1609 H 0.64481 0.46614 0.65311 0.0
H1610 H 0.55031 0.45537 0.6069 0.0
H1611 H 0.60321 0.48993 0.67387 0.0
H1612 H 0.51408 0.50235 0.71626 0.0
H1613 H 0.5575 0.48045 0.69773 0.0
H1614 H 0.53226 0.50304 0.61224 0.0
H1615 H 0.48872 0.52419 0.63051 0.0
C1616 C 0.59448 0.44487 0.60517 0.0
C1617 C 0.62154 0.4476 0.61773 0.0
C1618 C 0.57083 0.45821 0.61708 0.0
C1619 C 0.57354 0.47485 0.6418 0.0
C1620 C 0.60044 0.47716 0.65484 0.0
C1621 C 0.62425 0.46361 0.64292 0.0
C1622 C 0.51786 0.50273 0.69351 0.0
C1623 C 0.49772 0.51472 0.67484 0.0
C1624 C 0.54283 0.49031 0.68294 0.0
C1625 C 0.54818 0.48973 0.6535 0.0
C1626 C 0.52847 0.50256 0.63498 0.0
C1627 C 0.50352 0.51479 0.64549 0.0
H1628 H 0.96035 0.46559 0.2222 0.0
H1629 H 0.00531 0.50498 0.15212 0.0
H1630 H 0.91496 0.48196 0.20209 0.0
H1631 H 0.9606 0.52179 0.13273 0.0
H1632 H 0.87943 0.51687 0.08519 0.0
H1633 H 0.92116 0.49855 0.10942 0.0
H1634 H 0.886 0.52493 0.19035 0.0
H1635 H 0.84337 0.54264 0.16589 0.0
C1636 C 0.96054 0.47801 0.20276 0.0
C1637 C 0.98627 0.4836 0.18844 0.0
C1638 C 0.93464 0.4874 0.19132 0.0
C1639 C 0.93423 0.50262 0.16553 0.0
C1640 C 0.96014 0.50934 0.15215 0.0
C1641 C 0.98579 0.49981 0.16334 0.0
C1642 C 0.8805 0.51869 0.10817 0.0
C1643 C 0.85841 0.53161 0.12364 0.0
C1644 C 0.90445 0.50828 0.12205 0.0
C1645 C 0.90714 0.51091 0.15172 0.0
C1646 C 0.88449 0.52265 0.16745 0.0
C1647 C 0.86019 0.53284 0.15349 0.0
H1648 H 0.33369 0.15222 0.04893 0.0
H1649 H 0.40132 0.13689 0.98843 0.0
H1650 H 0.30873 0.10964 0.03172 0.0
H1651 H 0.37617 0.09505 0.97075 0.0
H1652 H 0.35244 0.00233 0.98253 0.0
H1653 H 0.37039 0.04927 0.99437 0.0
H1654 H 0.28482 0.08309 0.99225 0.0
H1655 H 0.26647 0.03553 0.98067 0.0
C1656 C 0.34269 0.14032 0.03131 0.0
C1657 C 0.3696 0.14752 0.02028 0.0
C1658 C 0.32845 0.11594 0.0215 0.0
C1659 C 0.34087 0.09863 0.0004 0.0
C1660 C 0.36647 0.1075 0.98761 0.0
C1661 C 0.38078 0.13156 -0.00242 0.0
C1662 C 0.33731 0.01964 0.98459 0.0
C1663 C 0.30798 0.01509 0.98049 0.0
C1664 C 0.34768 0.04669 0.99113 0.0
C1665 C 0.32908 0.07002 0.99368 0.0
C1666 C 0.29965 0.06551 0.99034 0.0
C1667 C 0.28918 0.03827 0.98374 0.0
H1668 H 0.84535 0.34256 0.94392 0.0
H1669 H 0.9245 0.37223 0.98059 0.0
H1670 H 0.82084 0.38405 0.96354 0.0
H1671 H 0.89992 0.41302 0.00103 0.0
H1672 H 0.85742 0.4995 1e-05 0.0
H1673 H 0.87996 0.45613 0.98296 0.0
H1674 H 0.80503 0.40766 0.00625 0.0
H1675 H 0.78202 0.45134 0.02249 0.0
C1676 C 0.85737 0.35767 0.95661 0.0
C1677 C 0.88687 0.35441 0.96044 0.0
C1678 C 0.84334 0.38138 0.96792 0.0
C1679 C 0.85854 0.40202 0.98349 0.0
C1680 C 0.88777 0.3979 0.98848 0.0
C1681 C 0.90182 0.37446 0.97691 0.0
C1682 C 0.84572 0.47961 0.00149 0.0
C1683 C 0.81795 0.47885 0.0126 0.0
C1684 C 0.85873 0.4547 0.99191 0.0
C1685 C 0.84439 0.4284 0.99352 0.0
C1686 C 0.81653 0.42763 0.00448 0.0
C1687 C 0.80339 0.45265 0.01383 0.0
H1688 H 0.66135 0.63768 0.43917 0.0
H1689 H 0.57968 0.61321 0.47401 0.0
H1690 H 0.68264 0.5944 0.45906 0.0
H1691 H 0.60092 0.57083 0.49464 0.0
H1692 H 0.71428 0.52348 0.51962 0.0
H1693 H 0.69584 0.56878 0.50184 0.0
H1694 H 0.61784 0.52659 0.4766 0.0
H1695 H 0.63578 0.48179 0.49512 0.0
C1696 C 0.64812 0.62333 0.45151 0.0
C1697 C 0.61882 0.62853 0.45471 0.0
C1698 C 0.66028 0.59859 0.46294 0.0
C1699 C 0.64334 0.57889 0.47797 0.0
C1700 C 0.61439 0.58508 0.48243 0.0
C1701 C 0.60224 0.60947 0.47076 0.0
C1702 C 0.69323 0.52392 0.51018 0.0
C1703 C 0.67639 0.49909 0.50899 0.0
C1704 C 0.68271 0.54985 0.49992 0.0
C1705 C 0.65524 0.55139 0.48812 0.0
C1706 C 0.6388 0.52635 0.48625 0.0
C1707 C 0.64916 0.50058 0.49671 0.0
H1708 H 0.10214 0.89338 0.56329 0.0
H1709 H 0.16361 0.83691 0.52414 0.0
H1710 H 0.12586 0.9341 0.54237 0.0
H1711 H 0.18746 0.87844 0.50265 0.0
H1712 H 0.23211 0.97081 0.49439 0.0
H1713 H 0.21432 0.92597 0.51501 0.0
H1714 H 0.12851 0.94958 0.49182 0.0
H1715 H 0.14582 0.99387 0.47181 0.0
C1716 C 0.12075 0.88959 0.55016 0.0
C1717 C 0.13064 0.86177 0.54495 0.0
C1718 C 0.13434 0.91302 0.53814 0.0
C1719 C 0.15814 0.90939 0.52042 0.0
C1720 C 0.16907 0.88178 0.51619 0.0
C1721 C 0.15539 0.85807 0.5284 0.0
C1722 C 0.2095 0.96623 0.49356 0.0
C1723 C 0.19033 0.9862 0.48201 0.0
C1724 C 0.19937 0.94057 0.50525 0.0
C1725 C 0.17 0.9346 0.50547 0.0
C1726 C 0.15119 0.95392 0.49259 0.0
C1727 C 0.16117 0.97936 0.48111 0.0
H1728 H 0.93905 0.66526 0.83758 0.0
H1729 H 0.97943 0.5888 0.86915 0.0
H1730 H 0.95471 0.69112 0.8803 0.0
H1731 H 0.99536 0.61453 0.91117 0.0
H1732 H 0.00984 0.72827 0.95648 0.0
H1733 H -0.0027 0.70807 0.90998 0.0
H1734 H 0.96609 0.632 0.95146 0.0
H1735 H 0.97867 0.65171 -0.00254 0.0
C1736 C 0.95186 0.65424 0.85326 0.0
C1737 C 0.95762 0.62495 0.8504 0.0
C1738 C 0.96077 0.66899 0.87766 0.0
C1739 C 0.97561 0.65459 0.8993 0.0
C1740 C 0.98325 0.62593 0.89519 0.0
C1741 C 0.97424 0.61124 0.87109 0.0
C1742 C 2e-05 0.70736 0.95564 0.0
C1743 C 0.99561 0.69144 0.98067 0.0
C1744 C 0.99288 0.69585 0.92904 0.0
C1745 C 0.98132 0.66826 0.92713 0.0
C1746 C 0.97571 0.65302 0.95224 0.0
C1747 C 0.98278 0.66442 0.97865 0.0
H1748 H 0.52484 0.41663 0.38423 0.0
H1749 H 0.55596 0.33448 0.35626 0.0
H1750 H 0.50367 0.39457 0.42587 0.0
H1751 H 0.53548 0.31235 0.39875 0.0
H1752 H 0.47121 0.28073 0.46647 0.0
H1753 H 0.49126 0.30034 0.42268 0.0
H1754 H 0.52046 0.3744 0.46929 0.0
H1755 H 0.49967 0.35537 0.51262 0.0
C1756 C 0.52727 0.39382 0.38708 0.0
C1757 C 0.5423 0.37729 0.36718 0.0
C1758 C 0.51527 0.3812 0.41104 0.0
C1759 C 0.51834 0.3518 0.41588 0.0
C1760 C 0.53265 0.33505 0.39554 0.0
C1761 C 0.54443 0.34769 0.37128 0.0
C1762 C 0.48203 0.30115 0.46732 0.0
C1763 C 0.48363 0.31666 0.4929 0.0
C1764 C 0.49359 0.31231 0.44228 0.0
C1765 C 0.50714 0.33907 0.44246 0.0
C1766 C 0.5095 0.35407 0.46827 0.0
C1767 C 0.49772 0.34309 0.49316 0.0
H1768 H 0.48093 0.74926 0.02034 0.0
H1769 H 0.55623 0.79535 0.04648 0.0
H1770 H 0.45728 0.76282 0.06487 0.0
H1771 H 0.53293 0.80819 0.0912 0.0
H1772 H 0.42498 0.85209 0.10702 0.0
H1773 H 0.44664 0.81902 0.0732 0.0
H1774 H 0.50447 0.78978 0.13835 0.0
H1775 H 0.48212 0.82245 0.17267 0.0
C1776 C 0.49284 0.76113 0.03618 0.0
C1777 C 0.52022 0.77155 0.03004 0.0
C1778 C 0.47931 0.76893 0.06153 0.0
C1779 C 0.49332 0.78661 0.08123 0.0
C1780 C 0.52181 0.79435 0.0764 0.0
C1781 C 0.53507 0.78713 0.05082 0.0
C1782 C 0.44194 0.8382 0.11425 0.0
C1783 C 0.45213 0.83993 0.14226 0.0
C1784 C 0.45408 0.81908 0.09504 0.0
C1785 C 0.47702 0.8018 0.10335 0.0
C1786 C 0.48662 0.80276 0.13164 0.0
C1787 C 0.47393 0.82143 0.15113 0.0
H1788 H 0.96828 0.21896 0.53319 0.0
H1789 H 0.00057 0.14711 0.4853 0.0
H1790 H 0.98759 0.19815 0.57698 0.0
H1791 H 0.02036 0.12701 0.5284 0.0
H1792 H 0.02283 0.08024 0.61037 0.0
H1793 H 0.0017 0.10441 0.56998 0.0
H1794 H 0.03172 0.18542 0.60228 0.0
H1795 H 0.05225 0.16108 0.64359 0.0
C1796 C 0.97974 0.19894 0.53197 0.0
C1797 C 0.98255 0.18447 0.50588 0.0
C1798 C 0.99084 0.18708 0.55699 0.0
C1799 C 0.00505 0.16067 0.55623 0.0
C1800 C 0.00879 0.14694 0.5299 0.0
C1801 C -0.00245 0.15857 0.50512 0.0
C1802 C 0.02488 0.10322 0.60897 0.0
C1803 C 0.03956 0.11872 0.62994 0.0
C1804 C 0.01286 0.11709 0.58573 0.0
C1805 C 0.01555 0.14678 0.58259 0.0
C1806 C 0.02926 0.16252 0.60412 0.0
C1807 C 0.04108 0.1486 0.6277 0.0
H1808 H 0.87659 0.97644 0.57983 0.0
H1809 H 0.85263 0.9355 0.6587 0.0
H1810 H 0.9188 0.99601 0.60251 0.0
H1811 H 0.89567 0.95442 0.68134 0.0
H1812 H 0.00785 0.99339 0.63706 0.0
H1813 H 0.96303 0.97593 0.61811 0.0
H1814 H 0.92093 -0.00289 0.69724 0.0
H1815 H 0.96622 0.01392 0.71665 0.0
C1816 C 0.88038 0.97167 0.60208 0.0
C1817 C 0.86158 0.95417 0.61744 0.0
C1818 C 0.90464 0.98273 0.61503 0.0
C1819 C 0.91089 0.97623 0.64353 0.0
C1820 C 0.89139 0.95983 0.65935 0.0
C1821 C 0.86681 0.94898 0.64641 0.0
C1822 C 0.98909 0.99428 0.65049 0.0
C1823 C 0.99056 0.0052 0.67829 0.0
C1824 C 0.96333 0.98444 0.63956 0.0
C1825 C 0.93833 0.98558 0.65602 0.0
C1826 C 0.93986 0.99586 0.68409 0.0
C1827 C 0.96578 0.00553 0.69516 0.0
H1828 H 0.65907 0.01983 0.14769 0.0
H1829 H 0.61357 0.01598 0.0677 0.0
H1830 H 0.61919 0.99563 0.17112 0.0
H1831 H 0.57394 0.99287 0.09105 0.0
H1832 H 0.51454 0.93221 0.13251 0.0
H1833 H 0.55921 0.94943 0.1126 0.0
H1834 H 0.57029 0.00525 0.18506 0.0
H1835 H 0.52599 0.98729 0.20549 0.0
C1836 C 0.64069 0.0138 0.13509 0.0
C1837 C 0.6396 0.01995 0.1058 0.0
C1838 C 0.61779 7e-05 0.14854 0.0
C1839 C 0.59338 0.9922 0.13296 0.0
C1840 C 0.59256 -0.00194 0.10366 0.0
C1841 C 0.61533 0.01162 0.09028 0.0
C1842 C 0.52659 0.948 0.14432 0.0
C1843 C 0.51648 0.95864 0.17042 0.0
C1844 C 0.55219 0.95795 0.13286 0.0
C1845 C 0.56817 0.97904 0.14702 0.0
C1846 C 0.55866 0.98884 0.17368 0.0
C1847 C 0.53314 0.97867 0.18531 0.0
H1848 H 0.47388 0.49335 0.27024 0.0
H1849 H 0.50399 0.48443 0.35681 0.0
H1850 H 0.4302 0.51564 0.28793 0.0
H1851 H 0.46042 0.50599 0.37424 0.0
H1852 H 0.39782 0.57442 0.39526 0.0
H1853 H 0.4397 0.5533 0.37374 0.0
H1854 H 0.38628 0.50536 0.31599 0.0
H1855 H 0.34387 0.52716 0.33733 0.0
C1856 C 0.47117 0.49601 0.29299 0.0
C1857 C 0.4926 0.4874 0.31208 0.0
C1858 C 0.4461 0.50863 0.30308 0.0
C1859 C 0.44205 0.51283 0.33243 0.0
C1860 C 0.46319 0.50362 0.35146 0.0
C1861 C 0.48817 0.49115 0.34143 0.0
C1862 C 0.39487 0.55942 0.37794 0.0
C1863 C 0.36746 0.55215 0.36826 0.0
C1864 C 0.41893 0.54723 0.36567 0.0
C1865 C 0.41626 0.52729 0.34352 0.0
C1866 C 0.38896 0.52072 0.33302 0.0
C1867 C 0.36471 0.53312 0.34527 0.0
H1868 H 0.10103 0.42545 0.88624 0.0
H1869 H 0.15876 0.47147 0.83097 0.0
H1870 H 0.06069 0.44658 0.86199 0.0
H1871 H 0.11766 0.49278 0.80645 0.0
H1872 H 0.00318 0.52175 0.84708 0.0
H1873 H 0.04733 0.50062 0.86349 0.0
H1874 H 0.06932 0.47764 0.77724 0.0
H1875 H 0.02465 0.49896 0.76035 0.0
C1876 C 0.10514 0.43993 0.86874 0.0
C1877 C 0.13311 0.44729 0.86092 0.0
C1878 C 0.082 0.45197 0.85487 0.0
C1879 C 0.08621 0.47164 0.83282 0.0
C1880 C 0.11402 0.47768 0.82353 0.0
C1881 C 0.13743 0.46555 0.83755 0.0
C1882 C 0.01732 0.51234 0.83145 0.0
C1883 C 0.01009 0.51158 0.80244 0.0
C1884 C 0.04263 0.50027 0.8409 0.0
C1885 C 0.06136 0.4872 0.82162 0.0
C1886 C 0.05507 0.48761 0.79243 0.0
C1887 C 0.02952 0.49969 0.78287 0.0
H1888 H 0.60664 0.85114 0.00896 0.0
H1889 H 0.66861 0.83143 0.94378 0.0
H1890 H 0.63341 0.89383 0.02157 0.0
H1891 H 0.69543 0.87456 0.95643 0.0
H1892 H 0.73895 0.95325 0.00531 0.0
H1893 H 0.7216 0.90449 -0.00265 0.0
H1894 H 0.6361 0.93676 0.98726 0.0
H1895 H 0.65299 0.98501 0.99492 0.0
C1896 C 0.62645 0.85551 -0.0021 0.0
C1897 C 0.63531 0.8383 0.97509 0.0
C1898 C 0.64167 0.87998 0.00503 0.0
C1899 C 0.66599 0.88775 0.98943 0.0
C1900 C 0.67664 0.86901 0.96865 0.0
C1901 C 0.66136 0.84432 0.96152 0.0
C1902 C 0.71651 0.94995 0.00104 0.0
C1903 C 0.69734 0.97308 0.00103 0.0
C1904 C 0.70665 0.92207 -0.00342 0.0
C1905 C 0.67748 0.91695 0.9924 0.0
C1906 C 0.65862 0.94012 0.99116 0.0
C1907 C 0.6684 0.96782 0.99533 0.0
H1908 H 0.12789 0.5027 0.95266 0.0
H1909 H 0.20572 0.52658 -0.0042 0.0
H1910 H 0.10548 0.54653 0.969 0.0
H1911 H 0.18296 0.56996 0.01302 0.0
H1912 H 0.14035 0.65648 0.02239 0.0
H1913 H 0.1639 0.61574 7e-05 0.0
H1914 H 0.08797 0.56496 0.01271 0.0
H1915 H 0.06429 0.60554 0.03398 0.0
C1916 C 0.14017 0.51723 0.96577 0.0
C1917 C 0.1685 0.51103 0.97316 0.0
C1918 C 0.1273 0.54234 0.9752 0.0
C1919 C 0.14234 0.56166 0.99253 0.0
C1920 C 0.17087 0.55574 -0.00058 0.0
C1921 C 0.18386 0.53075 0.98972 0.0
C1922 C 0.12866 0.63666 0.02021 0.0
C1923 C 0.10044 0.63432 0.03002 0.0
C1924 C 0.14219 0.61328 0.00754 0.0
C1925 C 0.12781 0.58708 0.00458 0.0
C1926 C 0.09953 0.58493 0.01414 0.0
C1927 C 0.08599 0.60824 0.02656 0.0
H1928 H 0.3367 0.35031 0.52477 0.0
H1929 H 0.40672 0.4013 0.55656 0.0
H1930 H 0.31629 0.39283 0.50257 0.0
H1931 H 0.3861 0.44342 0.53513 0.0
H1932 H 0.36078 0.50655 0.46798 0.0
H1933 H 0.37908 0.46263 0.48822 0.0
H1934 H 0.294 0.43874 0.51426 0.0
H1935 H 0.2754 0.48254 0.49329 0.0
C1936 C 0.34763 0.37054 0.52717 0.0
C1937 C 0.37346 0.37232 0.54224 0.0
C1938 C 0.33589 0.39489 0.51456 0.0
C1939 C 0.34974 0.42143 0.51687 0.0
C1940 C 0.37523 0.4232 0.5324 0.0
C1941 C 0.38698 0.39899 0.54482 0.0
C1942 C 0.3459 0.492 0.47801 0.0
C1943 C 0.31663 0.49822 0.47921 0.0
C1944 C 0.35643 0.46683 0.48971 0.0
C1945 C 0.33802 0.44733 0.50309 0.0
C1946 C 0.30868 0.45323 0.50389 0.0
C1947 C 0.29807 0.47842 0.49202 0.0
H1948 H 0.90561 0.11978 0.48159 0.0
H1949 H 0.82593 0.14695 0.44447 0.0
H1950 H 0.88226 0.07799 0.50136 0.0
H1951 H 0.8025 0.10432 0.46374 0.0
H1952 H 0.76895 0.03087 0.52282 0.0
H1953 H 0.78796 0.07701 0.50714 0.0
H1954 H 0.86476 0.0352 0.47828 0.0
H1955 H 0.84632 0.98973 0.49421 0.0
C1956 C 0.88302 0.11686 0.47779 0.0
C1957 C 0.86767 0.13634 0.46112 0.0
C1958 C 0.86966 0.09285 0.489 0.0
C1959 C 0.84071 0.08752 0.48351 0.0
C1960 C 0.82486 0.10788 0.46829 0.0
C1961 C 0.83825 0.13222 0.45725 0.0
C1962 C 0.78983 0.0316 0.51298 0.0
C1963 C 0.80626 0.00666 0.51008 0.0
C1964 C 0.80067 0.05799 0.504 0.0
C1965 C 0.82807 0.05979 0.49199 0.0
C1966 C 0.84392 0.03467 0.4882 0.0
C1967 C 0.83323 0.00851 0.4972 0.0
loop_
_geom_bond_atom_site_label_1
_geom_bond_atom_site_label_2
_geom_bond_distance
_geom_bond_site_symmetry_2
_ccdc_geom_bond_type
Sc0 O3 2.025 . S
Sc0 O10 2.105 . S
Sc0 O13 2.105 . S
Sc0 O16 2.105 1_455 S
Sc0 O19 2.105 . S
Sc1 O3 2.025 . S
Sc1 O11 2.105 . S
Sc1 O15 2.105 . S
Sc1 O17 2.105 . S
Sc1 O21 2.105 . S
Sc2 O3 2.025 . S
Sc2 O12 2.105 . S
Sc2 O14 2.105 1_455 S
Sc2 O18 2.105 . S
Sc2 O20 2.105 . S
O3 Sc0 2.025 . S
O3 Sc1 2.025 . S
O3 Sc2 2.025 . S
C4 O10 1.268 . S
C4 O20 1.268 . S
C5 O11 1.268 . S
C5 O19 1.268 . S
C6 O12 1.268 . S
C6 O21 1.268 . S
C7 O13 1.268 . S
C7 O17 1.268 . S
C8 O14 1.268 . S
C8 O16 1.268 . S
C9 O15 1.268 . S
C9 O18 1.268 . S
O10 Sc0 2.105 . S
O10 C4 1.268 . S
O11 Sc1 2.105 . S
O11 C5 1.268 . S
O12 Sc2 2.105 . S
O12 C6 1.268 . S
O13 Sc0 2.105 . S
O13 C7 1.268 . S
O14 Sc2 2.105 1_655 S
O14 C8 1.268 . S
O15 Sc1 2.105 . S
O15 C9 1.268 . S
O16 Sc0 2.105 1_655 S
O16 C8 1.268 . S
O17 Sc1 2.105 . S
O17 C7 1.268 . S
O18 Sc2 2.105 . S
O18 C9 1.268 . S
O19 Sc0 2.105 . S
O19 C5 1.268 . S
O20 Sc2 2.105 . S
O20 C4 1.268 . S
O21 Sc1 2.105 . S
O21 C6 1.268 . S
Sc22 O25 2.025 . S
Sc22 O32 2.105 . S
Sc22 O35 2.105 . S
Sc22 O38 2.105 . S
Sc22 O41 2.105 . S
Sc23 O25 2.025 . S
Sc23 O33 2.105 . S
Sc23 O37 2.105 . S
Sc23 O39 2.105 . S
Sc23 O43 2.105 . S
Sc24 O25 2.025 . S
Sc24 O34 2.105 . S
Sc24 O36 2.105 . S
Sc24 O40 2.105 . S
Sc24 O42 2.105 . S
O25 Sc22 2.025 . S
O25 Sc23 2.025 . S
O25 Sc24 2.025 . S
C26 O32 1.268 . S
C26 O42 1.268 . S
C27 O33 1.268 . S
C27 O41 1.268 . S
C28 O34 1.268 . S
C28 O43 1.268 . S
C29 O35 1.268 . S
C29 O39 1.268 . S
C30 O36 1.268 . S
C30 O38 1.268 . S
C31 O37 1.268 . S
C31 O40 1.268 . S
O32 Sc22 2.105 . S
O32 C26 1.268 . S
O33 Sc23 2.105 . S
O33 C27 1.268 . S
O34 Sc24 2.105 . S
O34 C28 1.268 . S
O35 Sc22 2.105 . S
O35 C29 1.268 . S
O36 Sc24 2.105 . S
O36 C30 1.268 . S
O37 Sc23 2.105 . S
O37 C31 1.268 . S
O38 Sc22 2.105 . S
O38 C30 1.268 . S
O39 Sc23 2.105 . S
O39 C29 1.268 . S
O40 Sc24 2.105 . S
O40 C31 1.268 . S
O41 Sc22 2.105 . S
O41 C27 1.268 . S
O42 Sc24 2.105 . S
O42 C26 1.268 . S
O43 Sc23 2.105 . S
O43 C28 1.268 . S
Sc44 O47 2.025 . S
Sc44 O54 2.105 . S
Sc44 O57 2.105 . S
Sc44 O60 2.105 . S
Sc44 O63 2.105 . S
Sc45 O47 2.025 . S
Sc45 O55 2.105 . S
Sc45 O59 2.105 . S
Sc45 O61 2.105 . S
Sc45 O65 2.105 . S
Sc46 O47 2.025 . S
Sc46 O56 2.105 . S
Sc46 O58 2.105 . S
Sc46 O62 2.105 . S
Sc46 O64 2.105 . S
O47 Sc44 2.025 . S
O47 Sc45 2.025 . S
O47 Sc46 2.025 . S
C48 O54 1.268 . S
C48 O64 1.268 . S
C49 O55 1.268 . S
C49 O63 1.268 . S
C50 O56 1.268 . S
C50 O65 1.268 . S
C51 O57 1.268 . S
C51 O61 1.268 . S
C52 O58 1.268 . S
C52 O60 1.268 . S
C53 O59 1.268 . S
C53 O62 1.268 . S
O54 Sc44 2.105 . S
O54 C48 1.268 . S
O55 Sc45 2.105 . S
O55 C49 1.268 . S
O56 Sc46 2.105 . S
O56 C50 1.268 . S
O57 Sc44 2.105 . S
O57 C51 1.268 . S
O58 Sc46 2.105 . S
O58 C52 1.268 . S
O59 Sc45 2.105 . S
O59 C53 1.268 . S
O60 Sc44 2.105 . S
O60 C52 1.268 . S
O61 Sc45 2.105 . S
O61 C51 1.268 . S
O62 Sc46 2.105 . S
O62 C53 1.268 . S
O63 Sc44 2.105 . S
O63 C49 1.268 . S
O64 Sc46 2.105 . S
O64 C48 1.268 . S
O65 Sc45 2.105 . S
O65 C50 1.268 . S
Sc66 O69 2.025 . S
Sc66 O76 2.105 . S
Sc66 O79 2.105 . S
Sc66 O82 2.105 1_655 S
Sc66 O85 2.105 . S
Sc67 O69 2.025 . S
Sc67 O77 2.105 . S
Sc67 O81 2.105 . S
Sc67 O83 2.105 . S
Sc67 O87 2.105 . S
Sc68 O69 2.025 . S
Sc68 O78 2.105 . S
Sc68 O80 2.105 1_655 S
Sc68 O84 2.105 . S
Sc68 O86 2.105 . S
O69 Sc66 2.025 . S
O69 Sc67 2.025 . S
O69 Sc68 2.025 . S
C70 O76 1.268 . S
C70 O86 1.268 . S
C71 O77 1.268 . S
C71 O85 1.268 . S
C72 O78 1.268 . S
C72 O87 1.268 . S
C73 O79 1.268 . S
C73 O83 1.268 . S
C74 O80 1.268 . S
C74 O82 1.268 . S
C75 O81 1.268 . S
C75 O84 1.268 . S
O76 Sc66 2.105 . S
O76 C70 1.268 . S
O77 Sc67 2.105 . S
O77 C71 1.268 . S
O78 Sc68 2.105 . S
O78 C72 1.268 . S
O79 Sc66 2.105 . S
O79 C73 1.268 . S
O80 Sc68 2.105 1_455 S
O80 C74 1.268 . S
O81 Sc67 2.105 . S
O81 C75 1.268 . S
O82 Sc66 2.105 1_455 S
O82 C74 1.268 . S
O83 Sc67 2.105 . S
O83 C73 1.268 . S
O84 Sc68 2.105 . S
O84 C75 1.268 . S
O85 Sc66 2.105 . S
O85 C71 1.268 . S
O86 Sc68 2.105 . S
O86 C70 1.268 . S
O87 Sc67 2.105 . S
O87 C72 1.268 . S
Sc88 O91 2.025 . S
Sc88 O98 2.105 . S
Sc88 O101 2.105 . S
Sc88 O104 2.105 1_545 S
Sc88 O107 2.105 . S
Sc89 O91 2.025 . S
Sc89 O99 2.105 . S
Sc89 O103 2.105 . S
Sc89 O105 2.105 . S
Sc89 O109 2.105 . S
Sc90 O91 2.025 . S
Sc90 O100 2.105 . S
Sc90 O102 2.105 1_545 S
Sc90 O106 2.105 . S
Sc90 O108 2.105 . S
O91 Sc88 2.025 . S
O91 Sc89 2.025 . S
O91 Sc90 2.025 . S
C92 O98 1.268 . S
C92 O108 1.268 . S
C93 O99 1.268 . S
C93 O107 1.268 . S
C94 O100 1.268 . S
C94 O109 1.268 . S
C95 O101 1.268 . S
C95 O105 1.268 . S
C96 O102 1.268 . S
C96 O104 1.268 . S
C97 O103 1.268 . S
C97 O106 1.268 . S
O98 Sc88 2.105 . S
O98 C92 1.268 . S
O99 Sc89 2.105 . S
O99 C93 1.268 . S
O100 Sc90 2.105 . S
O100 C94 1.268 . S
O101 Sc88 2.105 . S
O101 C95 1.268 . S
O102 Sc90 2.105 1_565 S
O102 C96 1.268 . S
O103 Sc89 2.105 . S
O103 C97 1.268 . S
O104 Sc88 2.105 1_565 S
O104 C96 1.268 . S
O105 Sc89 2.105 . S
O105 C95 1.268 . S
O106 Sc90 2.105 . S
O106 C97 1.268 . S
O107 Sc88 2.105 . S
O107 C93 1.268 . S
O108 Sc90 2.105 . S
O108 C92 1.268 . S
O109 Sc89 2.105 . S
O109 C94 1.268 . S
Sc110 O113 2.025 . S
Sc110 O120 2.105 . S
Sc110 O123 2.105 . S
Sc110 O126 2.105 1_565 S
Sc110 O129 2.105 . S
Sc111 O113 2.025 . S
Sc111 O121 2.105 . S
Sc111 O125 2.105 . S
Sc111 O127 2.105 . S
Sc111 O131 2.105 . S
Sc112 O113 2.025 . S
Sc112 O122 2.105 . S
Sc112 O124 2.105 1_565 S
Sc112 O128 2.105 . S
Sc112 O130 2.105 . S
O113 Sc110 2.025 . S
O113 Sc111 2.025 . S
O113 Sc112 2.025 . S
C114 O120 1.268 . S
C114 O130 1.268 . S
C115 O121 1.268 . S
C115 O129 1.268 . S
C116 O122 1.268 . S
C116 O131 1.268 . S
C117 O123 1.268 . S
C117 O127 1.268 . S
C118 O124 1.268 . S
C118 O126 1.268 . S
C119 O125 1.268 . S
C119 O128 1.268 . S
O120 Sc110 2.105 . S
O120 C114 1.268 . S
O121 Sc111 2.105 . S
O121 C115 1.268 . S
O122 Sc112 2.105 . S
O122 C116 1.268 . S
O123 Sc110 2.105 . S
O123 C117 1.268 . S
O124 Sc112 2.105 1_545 S
O124 C118 1.268 . S
O125 Sc111 2.105 . S
O125 C119 1.268 . S
O126 Sc110 2.105 1_545 S
O126 C118 1.268 . S
O127 Sc111 2.105 . S
O127 C117 1.268 . S
O128 Sc112 2.105 . S
O128 C119 1.268 . S
O129 Sc110 2.105 . S
O129 C115 1.268 . S
O130 Sc112 2.105 . S
O130 C114 1.268 . S
O131 Sc111 2.105 . S
O131 C116 1.268 . S
Sc132 O135 2.025 . S
Sc132 O142 2.105 . S
Sc132 O145 2.105 . S
Sc132 O148 2.105 . S
Sc132 O151 2.105 . S
Sc133 O135 2.025 . S
Sc133 O143 2.105 . S
Sc133 O147 2.105 . S
Sc133 O149 2.105 . S
Sc133 O153 2.105 . S
Sc134 O135 2.025 . S
Sc134 O144 2.105 . S
Sc134 O146 2.105 . S
Sc134 O150 2.105 . S
Sc134 O152 2.105 . S
O135 Sc132 2.025 . S
O135 Sc133 2.025 . S
O135 Sc134 2.025 . S
C136 O142 1.268 . S
C136 O152 1.268 . S
C137 O143 1.268 . S
C137 O151 1.268 . S
C138 O144 1.268 . S
C138 O153 1.268 . S
C139 O145 1.268 . S
C139 O149 1.268 . S
C140 O146 1.268 . S
C140 O148 1.268 . S
C141 O147 1.268 . S
C141 O150 1.268 . S
O142 Sc132 2.105 . S
O142 C136 1.268 . S
O143 Sc133 2.105 . S
O143 C137 1.268 . S
O144 Sc134 2.105 . S
O144 C138 1.268 . S
O145 Sc132 2.105 . S
O145 C139 1.268 . S
O146 Sc134 2.105 . S
O146 C140 1.268 . S
O147 Sc133 2.105 . S
O147 C141 1.268 . S
O148 Sc132 2.105 . S
O148 C140 1.268 . S
O149 Sc133 2.105 . S
O149 C139 1.268 . S
O150 Sc134 2.105 . S
O150 C141 1.268 . S
O151 Sc132 2.105 . S
O151 C137 1.268 . S
O152 Sc134 2.105 . S
O152 C136 1.268 . S
O153 Sc133 2.105 . S
O153 C138 1.268 . S
Sc154 O157 2.025 . S
Sc154 O164 2.105 . S
Sc154 O167 2.105 . S
Sc154 O170 2.105 . S
Sc154 O173 2.105 . S
Sc155 O157 2.025 . S
Sc155 O165 2.105 . S
Sc155 O169 2.105 . S
Sc155 O171 2.105 . S
Sc155 O175 2.105 . S
Sc156 O157 2.025 . S
Sc156 O166 2.105 . S
Sc156 O168 2.105 . S
Sc156 O172 2.105 . S
Sc156 O174 2.105 . S
O157 Sc154 2.025 . S
O157 Sc155 2.025 . S
O157 Sc156 2.025 . S
C158 O164 1.268 . S
C158 O174 1.268 . S
C159 O165 1.268 . S
C159 O173 1.268 . S
C160 O166 1.268 . S
C160 O175 1.268 . S
C161 O167 1.268 . S
C161 O171 1.268 . S
C162 O168 1.268 . S
C162 O170 1.268 . S
C163 O169 1.268 . S
C163 O172 1.268 . S
O164 Sc154 2.105 . S
O164 C158 1.268 . S
O165 Sc155 2.105 . S
O165 C159 1.268 . S
O166 Sc156 2.105 . S
O166 C160 1.268 . S
O167 Sc154 2.105 . S
O167 C161 1.268 . S
O168 Sc156 2.105 . S
O168 C162 1.268 . S
O169 Sc155 2.105 . S
O169 C163 1.268 . S
O170 Sc154 2.105 . S
O170 C162 1.268 . S
O171 Sc155 2.105 . S
O171 C161 1.268 . S
O172 Sc156 2.105 . S
O172 C163 1.268 . S
O173 Sc154 2.105 . S
O173 C159 1.268 . S
O174 Sc156 2.105 . S
O174 C158 1.268 . S
O175 Sc155 2.105 . S
O175 C160 1.268 . S
Sc176 O179 2.025 . S
Sc176 O186 2.105 1_554 S
Sc176 O189 2.105 . S
Sc176 O192 2.105 . S
Sc176 O195 2.105 . S
Sc177 O179 2.025 . S
Sc177 O187 2.105 . S
Sc177 O191 2.105 . S
Sc177 O193 2.105 . S
Sc177 O197 2.105 . S
Sc178 O179 2.025 . S
Sc178 O188 2.105 . S
Sc178 O190 2.105 . S
Sc178 O194 2.105 . S
Sc178 O196 2.105 1_554 S
O179 Sc176 2.025 . S
O179 Sc177 2.025 . S
O179 Sc178 2.025 . S
C180 O186 1.268 . S
C180 O196 1.268 . S
C181 O187 1.268 . S
C181 O195 1.268 . S
C182 O188 1.268 . S
C182 O197 1.268 . S
C183 O189 1.268 . S
C183 O193 1.268 . S
C184 O190 1.268 . S
C184 O192 1.268 . S
C185 O191 1.268 . S
C185 O194 1.268 . S
O186 Sc176 2.105 1_556 S
O186 C180 1.268 . S
O187 Sc177 2.105 . S
O187 C181 1.268 . S
O188 Sc178 2.105 . S
O188 C182 1.268 . S
O189 Sc176 2.105 . S
O189 C183 1.268 . S
O190 Sc178 2.105 . S
O190 C184 1.268 . S
O191 Sc177 2.105 . S
O191 C185 1.268 . S
O192 Sc176 2.105 . S
O192 C184 1.268 . S
O193 Sc177 2.105 . S
O193 C183 1.268 . S
O194 Sc178 2.105 . S
O194 C185 1.268 . S
O195 Sc176 2.105 . S
O195 C181 1.268 . S
O196 Sc178 2.105 1_556 S
O196 C180 1.268 . S
O197 Sc177 2.105 . S
O197 C182 1.268 . S
Sc198 O201 2.025 . S
Sc198 O208 2.105 . S
Sc198 O211 2.105 . S
Sc198 O214 2.105 1_556 S
Sc198 O217 2.105 . S
Sc199 O201 2.025 . S
Sc199 O209 2.105 . S
Sc199 O213 2.105 . S
Sc199 O215 2.105 . S
Sc199 O219 2.105 . S
Sc200 O201 2.025 . S
Sc200 O210 2.105 . S
Sc200 O212 2.105 1_556 S
Sc200 O216 2.105 . S
Sc200 O218 2.105 . S
O201 Sc198 2.025 . S
O201 Sc199 2.025 . S
O201 Sc200 2.025 . S
C202 O208 1.268 . S
C202 O218 1.268 . S
C203 O209 1.268 . S
C203 O217 1.268 . S
C204 O210 1.268 . S
C204 O219 1.268 . S
C205 O211 1.268 . S
C205 O215 1.268 . S
C206 O212 1.268 . S
C206 O214 1.268 . S
C207 O213 1.268 . S
C207 O216 1.268 . S
O208 Sc198 2.105 . S
O208 C202 1.268 . S
O209 Sc199 2.105 . S
O209 C203 1.268 . S
O210 Sc200 2.105 . S
O210 C204 1.268 . S
O211 Sc198 2.105 . S
O211 C205 1.268 . S
O212 Sc200 2.105 1_554 S
O212 C206 1.268 . S
O213 Sc199 2.105 . S
O213 C207 1.268 . S
O214 Sc198 2.105 1_554 S
O214 C206 1.268 . S
O215 Sc199 2.105 . S
O215 C205 1.268 . S
O216 Sc200 2.105 . S
O216 C207 1.268 . S
O217 Sc198 2.105 . S
O217 C203 1.268 . S
O218 Sc200 2.105 . S
O218 C202 1.268 . S
O219 Sc199 2.105 . S
O219 C204 1.268 . S
Sc220 O223 2.025 . S
Sc220 O230 2.105 . S
Sc220 O233 2.105 . S
Sc220 O236 2.105 . S
Sc220 O239 2.105 . S
Sc221 O223 2.025 . S
Sc221 O231 2.105 . S
Sc221 O235 2.105 . S
Sc221 O237 2.105 . S
Sc221 O241 2.105 . S
Sc222 O223 2.025 . S
Sc222 O232 2.105 . S
Sc222 O234 2.105 . S
Sc222 O238 2.105 . S
Sc222 O240 2.105 . S
O223 Sc220 2.025 . S
O223 Sc221 2.025 . S
O223 Sc222 2.025 . S
C224 O230 1.268 . S
C224 O240 1.268 . S
C225 O231 1.268 . S
C225 O239 1.268 . S
C226 O232 1.268 . S
C226 O241 1.268 . S
C227 O233 1.268 . S
C227 O237 1.268 . S
C228 O234 1.268 . S
C228 O236 1.268 . S
C229 O235 1.268 . S
C229 O238 1.268 . S
O230 Sc220 2.105 . S
O230 C224 1.268 . S
O231 Sc221 2.105 . S
O231 C225 1.268 . S
O232 Sc222 2.105 . S
O232 C226 1.268 . S
O233 Sc220 2.105 . S
O233 C227 1.268 . S
O234 Sc222 2.105 . S
O234 C228 1.268 . S
O235 Sc221 2.105 . S
O235 C229 1.268 . S
O236 Sc220 2.105 . S
O236 C228 1.268 . S
O237 Sc221 2.105 . S
O237 C227 1.268 . S
O238 Sc222 2.105 . S
O238 C229 1.268 . S
O239 Sc220 2.105 . S
O239 C225 1.268 . S
O240 Sc222 2.105 . S
O240 C224 1.268 . S
O241 Sc221 2.105 . S
O241 C226 1.268 . S
Sc242 O245 2.025 . S
Sc242 O252 2.105 . S
Sc242 O255 2.105 . S
Sc242 O258 2.105 . S
Sc242 O261 2.105 . S
Sc243 O245 2.025 . S
Sc243 O253 2.105 . S
Sc243 O257 2.105 . S
Sc243 O259 2.105 . S
Sc243 O263 2.105 . S
Sc244 O245 2.025 . S
Sc244 O254 2.105 . S
Sc244 O256 2.105 . S
Sc244 O260 2.105 . S
Sc244 O262 2.105 . S
O245 Sc242 2.025 . S
O245 Sc243 2.025 . S
O245 Sc244 2.025 . S
C246 O252 1.268 . S
C246 O262 1.268 . S
C247 O253 1.268 . S
C247 O261 1.268 . S
C248 O254 1.268 . S
C248 O263 1.268 . S
C249 O255 1.268 . S
C249 O259 1.268 . S
C250 O256 1.268 . S
C250 O258 1.268 . S
C251 O257 1.268 . S
C251 O260 1.268 . S
O252 Sc242 2.105 . S
O252 C246 1.268 . S
O253 Sc243 2.105 . S
O253 C247 1.268 . S
O254 Sc244 2.105 . S
O254 C248 1.268 . S
O255 Sc242 2.105 . S
O255 C249 1.268 . S
O256 Sc244 2.105 . S
O256 C250 1.268 . S
O257 Sc243 2.105 . S
O257 C251 1.268 . S
O258 Sc242 2.105 . S
O258 C250 1.268 . S
O259 Sc243 2.105 . S
O259 C249 1.268 . S
O260 Sc244 2.105 . S
O260 C251 1.268 . S
O261 Sc242 2.105 . S
O261 C247 1.268 . S
O262 Sc244 2.105 . S
O262 C246 1.268 . S
O263 Sc243 2.105 . S
O263 C248 1.268 . S
Sc264 O267 2.025 . S
Sc264 O274 2.105 1_655 S
Sc264 O277 2.105 . S
Sc264 O280 2.105 . S
Sc264 O283 2.105 . S
Sc265 O267 2.025 . S
Sc265 O275 2.105 . S
Sc265 O279 2.105 . S
Sc265 O281 2.105 . S
Sc265 O285 2.105 . S
Sc266 O267 2.025 . S
Sc266 O276 2.105 . S
Sc266 O278 2.105 . S
Sc266 O282 2.105 . S
Sc266 O284 2.105 1_655 S
O267 Sc264 2.025 . S
O267 Sc265 2.025 . S
O267 Sc266 2.025 . S
C268 O274 1.268 . S
C268 O284 1.268 . S
C269 O275 1.268 . S
C269 O283 1.268 . S
C270 O276 1.268 . S
C270 O285 1.268 . S
C271 O277 1.268 . S
C271 O281 1.268 . S
C272 O278 1.268 . S
C272 O280 1.268 . S
C273 O279 1.268 . S
C273 O282 1.268 . S
O274 Sc264 2.105 1_455 S
O274 C268 1.268 . S
O275 Sc265 2.105 . S
O275 C269 1.268 . S
O276 Sc266 2.105 . S
O276 C270 1.268 . S
O277 Sc264 2.105 . S
O277 C271 1.268 . S
O278 Sc266 2.105 . S
O278 C272 1.268 . S
O279 Sc265 2.105 . S
O279 C273 1.268 . S
O280 Sc264 2.105 . S
O280 C272 1.268 . S
O281 Sc265 2.105 . S
O281 C271 1.268 . S
O282 Sc266 2.105 . S
O282 C273 1.268 . S
O283 Sc264 2.105 . S
O283 C269 1.268 . S
O284 Sc266 2.105 1_455 S
O284 C268 1.268 . S
O285 Sc265 2.105 . S
O285 C270 1.268 . S
Sc286 O289 2.025 . S
Sc286 O296 2.105 . S
Sc286 O299 2.105 . S
Sc286 O302 2.105 . S
Sc286 O305 2.105 . S
Sc287 O289 2.025 . S
Sc287 O297 2.105 . S
Sc287 O301 2.105 . S
Sc287 O303 2.105 . S
Sc287 O307 2.105 . S
Sc288 O289 2.025 . S
Sc288 O298 2.105 . S
Sc288 O300 2.105 . S
Sc288 O304 2.105 . S
Sc288 O306 2.105 . S
O289 Sc286 2.025 . S
O289 Sc287 2.025 . S
O289 Sc288 2.025 . S
C290 O296 1.268 . S
C290 O306 1.268 . S
C291 O297 1.268 . S
C291 O305 1.268 . S
C292 O298 1.268 . S
C292 O307 1.268 . S
C293 O299 1.268 . S
C293 O303 1.268 . S
C294 O300 1.268 . S
C294 O302 1.268 . S
C295 O301 1.268 . S
C295 O304 1.268 . S
O296 Sc286 2.105 . S
O296 C290 1.268 . S
O297 Sc287 2.105 . S
O297 C291 1.268 . S
O298 Sc288 2.105 . S
O298 C292 1.268 . S
O299 Sc286 2.105 . S
O299 C293 1.268 . S
O300 Sc288 2.105 . S
O300 C294 1.268 . S
O301 Sc287 2.105 . S
O301 C295 1.268 . S
O302 Sc286 2.105 . S
O302 C294 1.268 . S
O303 Sc287 2.105 . S
O303 C293 1.268 . S
O304 Sc288 2.105 . S
O304 C295 1.268 . S
O305 Sc286 2.105 . S
O305 C291 1.268 . S
O306 Sc288 2.105 . S
O306 C290 1.268 . S
O307 Sc287 2.105 . S
O307 C292 1.268 . S
Sc308 O311 2.025 . S
Sc308 O318 2.105 . S
Sc308 O321 2.105 . S
Sc308 O324 2.105 . S
Sc308 O327 2.105 . S
Sc309 O311 2.025 . S
Sc309 O319 2.105 . S
Sc309 O323 2.105 . S
Sc309 O325 2.105 . S
Sc309 O329 2.105 . S
Sc310 O311 2.025 . S
Sc310 O320 2.105 . S
Sc310 O322 2.105 . S
Sc310 O326 2.105 . S
Sc310 O328 2.105 . S
O311 Sc308 2.025 . S
O311 Sc309 2.025 . S
O311 Sc310 2.025 . S
C312 O318 1.268 . S
C312 O328 1.268 . S
C313 O319 1.268 . S
C313 O327 1.268 . S
C314 O320 1.268 . S
C314 O329 1.268 . S
C315 O321 1.268 . S
C315 O325 1.268 . S
C316 O322 1.268 . S
C316 O324 1.268 . S
C317 O323 1.268 . S
C317 O326 1.268 . S
O318 Sc308 2.105 . S
O318 C312 1.268 . S
O319 Sc309 2.105 . S
O319 C313 1.268 . S
O320 Sc310 2.105 . S
O320 C314 1.268 . S
O321 Sc308 2.105 . S
O321 C315 1.268 . S
O322 Sc310 2.105 . S
O322 C316 1.268 . S
O323 Sc309 2.105 . S
O323 C317 1.268 . S
O324 Sc308 2.105 . S
O324 C316 1.268 . S
O325 Sc309 2.105 . S
O325 C315 1.268 . S
O326 Sc310 2.105 . S
O326 C317 1.268 . S
O327 Sc308 2.105 . S
O327 C313 1.268 . S
O328 Sc310 2.105 . S
O328 C312 1.268 . S
O329 Sc309 2.105 . S
O329 C314 1.268 . S
Sc330 O333 2.025 . S
Sc330 O340 2.105 1_455 S
Sc330 O343 2.105 . S
Sc330 O346 2.105 . S
Sc330 O349 2.105 . S
Sc331 O333 2.025 . S
Sc331 O341 2.105 . S
Sc331 O345 2.105 . S
Sc331 O347 2.105 . S
Sc331 O351 2.105 . S
Sc332 O333 2.025 . S
Sc332 O342 2.105 . S
Sc332 O344 2.105 . S
Sc332 O348 2.105 . S
Sc332 O350 2.105 1_455 S
O333 Sc330 2.025 . S
O333 Sc331 2.025 . S
O333 Sc332 2.025 . S
C334 O340 1.268 . S
C334 O350 1.268 . S
C335 O341 1.268 . S
C335 O349 1.268 . S
C336 O342 1.268 . S
C336 O351 1.268 . S
C337 O343 1.268 . S
C337 O347 1.268 . S
C338 O344 1.268 . S
C338 O346 1.268 . S
C339 O345 1.268 . S
C339 O348 1.268 . S
O340 Sc330 2.105 1_655 S
O340 C334 1.268 . S
O341 Sc331 2.105 . S
O341 C335 1.268 . S
O342 Sc332 2.105 . S
O342 C336 1.268 . S
O343 Sc330 2.105 . S
O343 C337 1.268 . S
O344 Sc332 2.105 . S
O344 C338 1.268 . S
O345 Sc331 2.105 . S
O345 C339 1.268 . S
O346 Sc330 2.105 . S
O346 C338 1.268 . S
O347 Sc331 2.105 . S
O347 C337 1.268 . S
O348 Sc332 2.105 . S
O348 C339 1.268 . S
O349 Sc330 2.105 . S
O349 C335 1.268 . S
O350 Sc332 2.105 1_655 S
O350 C334 1.268 . S
O351 Sc331 2.105 . S
O351 C336 1.268 . S
Sc352 O355 2.025 . S
Sc352 O362 2.105 . S
Sc352 O365 2.105 . S
Sc352 O368 2.105 1_565 S
Sc352 O371 2.105 . S
Sc353 O355 2.025 . S
Sc353 O363 2.105 . S
Sc353 O367 2.105 . S
Sc353 O369 2.105 . S
Sc353 O373 2.105 . S
Sc354 O355 2.025 . S
Sc354 O364 2.105 . S
Sc354 O366 2.105 1_565 S
Sc354 O370 2.105 . S
Sc354 O372 2.105 . S
O355 Sc352 2.025 . S
O355 Sc353 2.025 . S
O355 Sc354 2.025 . S
C356 O362 1.268 . S
C356 O372 1.268 . S
C357 O363 1.268 . S
C357 O371 1.268 . S
C358 O364 1.268 . S
C358 O373 1.268 . S
C359 O365 1.268 . S
C359 O369 1.268 . S
C360 O366 1.268 . S
C360 O368 1.268 . S
C361 O367 1.268 . S
C361 O370 1.268 . S
O362 Sc352 2.105 . S
O362 C356 1.268 . S
O363 Sc353 2.105 . S
O363 C357 1.268 . S
O364 Sc354 2.105 . S
O364 C358 1.268 . S
O365 Sc352 2.105 . S
O365 C359 1.268 . S
O366 Sc354 2.105 1_545 S
O366 C360 1.268 . S
O367 Sc353 2.105 . S
O367 C361 1.268 . S
O368 Sc352 2.105 1_545 S
O368 C360 1.268 . S
O369 Sc353 2.105 . S
O369 C359 1.268 . S
O370 Sc354 2.105 . S
O370 C361 1.268 . S
O371 Sc352 2.105 . S
O371 C357 1.268 . S
O372 Sc354 2.105 . S
O372 C356 1.268 . S
O373 Sc353 2.105 . S
O373 C358 1.268 . S
Sc374 O377 2.025 . S
Sc374 O384 2.105 1_545 S
Sc374 O387 2.105 . S
Sc374 O390 2.105 . S
Sc374 O393 2.105 . S
Sc375 O377 2.025 . S
Sc375 O385 2.105 . S
Sc375 O389 2.105 . S
Sc375 O391 2.105 . S
Sc375 O395 2.105 . S
Sc376 O377 2.025 . S
Sc376 O386 2.105 . S
Sc376 O388 2.105 . S
Sc376 O392 2.105 . S
Sc376 O394 2.105 1_545 S
O377 Sc374 2.025 . S
O377 Sc375 2.025 . S
O377 Sc376 2.025 . S
C378 O384 1.268 . S
C378 O394 1.268 . S
C379 O385 1.268 . S
C379 O393 1.268 . S
C380 O386 1.268 . S
C380 O395 1.268 . S
C381 O387 1.268 . S
C381 O391 1.268 . S
C382 O388 1.268 . S
C382 O390 1.268 . S
C383 O389 1.268 . S
C383 O392 1.268 . S
O384 Sc374 2.105 1_565 S
O384 C378 1.268 . S
O385 Sc375 2.105 . S
O385 C379 1.268 . S
O386 Sc376 2.105 . S
O386 C380 1.268 . S
O387 Sc374 2.105 . S
O387 C381 1.268 . S
O388 Sc376 2.105 . S
O388 C382 1.268 . S
O389 Sc375 2.105 . S
O389 C383 1.268 . S
O390 Sc374 2.105 . S
O390 C382 1.268 . S
O391 Sc375 2.105 . S
O391 C381 1.268 . S
O392 Sc376 2.105 . S
O392 C383 1.268 . S
O393 Sc374 2.105 . S
O393 C379 1.268 . S
O394 Sc376 2.105 1_565 S
O394 C378 1.268 . S
O395 Sc375 2.105 . S
O395 C380 1.268 . S
Sc396 O399 2.025 . S
Sc396 O406 2.105 . S
Sc396 O409 2.105 . S
Sc396 O412 2.105 . S
Sc396 O415 2.105 . S
Sc397 O399 2.025 . S
Sc397 O407 2.105 . S
Sc397 O411 2.105 . S
Sc397 O413 2.105 . S
Sc397 O417 2.105 . S
Sc398 O399 2.025 . S
Sc398 O408 2.105 . S
Sc398 O410 2.105 . S
Sc398 O414 2.105 . S
Sc398 O416 2.105 . S
O399 Sc396 2.025 . S
O399 Sc397 2.025 . S
O399 Sc398 2.025 . S
C400 O406 1.268 . S
C400 O416 1.268 . S
C401 O407 1.268 . S
C401 O415 1.268 . S
C402 O408 1.268 . S
C402 O417 1.268 . S
C403 O409 1.268 . S
C403 O413 1.268 . S
C404 O410 1.268 . S
C404 O412 1.268 . S
C405 O411 1.268 . S
C405 O414 1.268 . S
O406 Sc396 2.105 . S
O406 C400 1.268 . S
O407 Sc397 2.105 . S
O407 C401 1.268 . S
O408 Sc398 2.105 . S
O408 C402 1.268 . S
O409 Sc396 2.105 . S
O409 C403 1.268 . S
O410 Sc398 2.105 . S
O410 C404 1.268 . S
O411 Sc397 2.105 . S
O411 C405 1.268 . S
O412 Sc396 2.105 . S
O412 C404 1.268 . S
O413 Sc397 2.105 . S
O413 C403 1.268 . S
O414 Sc398 2.105 . S
O414 C405 1.268 . S
O415 Sc396 2.105 . S
O415 C401 1.268 . S
O416 Sc398 2.105 . S
O416 C400 1.268 . S
O417 Sc397 2.105 . S
O417 C402 1.268 . S
Sc418 O421 2.025 . S
Sc418 O428 2.105 . S
Sc418 O431 2.105 . S
Sc418 O434 2.105 . S
Sc418 O437 2.105 . S
Sc419 O421 2.025 . S
Sc419 O429 2.105 . S
Sc419 O433 2.105 . S
Sc419 O435 2.105 . S
Sc419 O439 2.105 . S
Sc420 O421 2.025 . S
Sc420 O430 2.105 . S
Sc420 O432 2.105 . S
Sc420 O436 2.105 . S
Sc420 O438 2.105 . S
O421 Sc418 2.025 . S
O421 Sc419 2.025 . S
O421 Sc420 2.025 . S
C422 O428 1.268 . S
C422 O438 1.268 . S
C423 O429 1.268 . S
C423 O437 1.268 . S
C424 O430 1.268 . S
C424 O439 1.268 . S
C425 O431 1.268 . S
C425 O435 1.268 . S
C426 O432 1.268 . S
C426 O434 1.268 . S
C427 O433 1.268 . S
C427 O436 1.268 . S
O428 Sc418 2.105 . S
O428 C422 1.268 . S
O429 Sc419 2.105 . S
O429 C423 1.268 . S
O430 Sc420 2.105 . S
O430 C424 1.268 . S
O431 Sc418 2.105 . S
O431 C425 1.268 . S
O432 Sc420 2.105 . S
O432 C426 1.268 . S
O433 Sc419 2.105 . S
O433 C427 1.268 . S
O434 Sc418 2.105 . S
O434 C426 1.268 . S
O435 Sc419 2.105 . S
O435 C425 1.268 . S
O436 Sc420 2.105 . S
O436 C427 1.268 . S
O437 Sc418 2.105 . S
O437 C423 1.268 . S
O438 Sc420 2.105 . S
O438 C422 1.268 . S
O439 Sc419 2.105 . S
O439 C424 1.268 . S
Sc440 O443 2.025 . S
Sc440 O450 2.105 . S
Sc440 O453 2.105 . S
Sc440 O456 2.105 1_556 S
Sc440 O459 2.105 . S
Sc441 O443 2.025 . S
Sc441 O451 2.105 . S
Sc441 O455 2.105 . S
Sc441 O457 2.105 . S
Sc441 O461 2.105 . S
Sc442 O443 2.025 . S
Sc442 O452 2.105 . S
Sc442 O454 2.105 1_556 S
Sc442 O458 2.105 . S
Sc442 O460 2.105 . S
O443 Sc440 2.025 . S
O443 Sc441 2.025 . S
O443 Sc442 2.025 . S
C444 O450 1.268 . S
C444 O460 1.268 . S
C445 O451 1.268 . S
C445 O459 1.268 . S
C446 O452 1.268 . S
C446 O461 1.268 . S
C447 O453 1.268 . S
C447 O457 1.268 . S
C448 O454 1.268 . S
C448 O456 1.268 . S
C449 O455 1.268 . S
C449 O458 1.268 . S
O450 Sc440 2.105 . S
O450 C444 1.268 . S
O451 Sc441 2.105 . S
O451 C445 1.268 . S
O452 Sc442 2.105 . S
O452 C446 1.268 . S
O453 Sc440 2.105 . S
O453 C447 1.268 . S
O454 Sc442 2.105 1_554 S
O454 C448 1.268 . S
O455 Sc441 2.105 . S
O455 C449 1.268 . S
O456 Sc440 2.105 1_554 S
O456 C448 1.268 . S
O457 Sc441 2.105 . S
O457 C447 1.268 . S
O458 Sc442 2.105 . S
O458 C449 1.268 . S
O459 Sc440 2.105 . S
O459 C445 1.268 . S
O460 Sc442 2.105 . S
O460 C444 1.268 . S
O461 Sc441 2.105 . S
O461 C446 1.268 . S
Sc462 O465 2.025 . S
Sc462 O472 2.105 1_554 S
Sc462 O475 2.105 . S
Sc462 O478 2.105 . S
Sc462 O481 2.105 . S
Sc463 O465 2.025 . S
Sc463 O473 2.105 . S
Sc463 O477 2.105 . S
Sc463 O479 2.105 . S
Sc463 O483 2.105 . S
Sc464 O465 2.025 . S
Sc464 O474 2.105 . S
Sc464 O476 2.105 . S
Sc464 O480 2.105 . S
Sc464 O482 2.105 1_554 S
O465 Sc462 2.025 . S
O465 Sc463 2.025 . S
O465 Sc464 2.025 . S
C466 O472 1.268 . S
C466 O482 1.268 . S
C467 O473 1.268 . S
C467 O481 1.268 . S
C468 O474 1.268 . S
C468 O483 1.268 . S
C469 O475 1.268 . S
C469 O479 1.268 . S
C470 O476 1.268 . S
C470 O478 1.268 . S
C471 O477 1.268 . S
C471 O480 1.268 . S
O472 Sc462 2.105 1_556 S
O472 C466 1.268 . S
O473 Sc463 2.105 . S
O473 C467 1.268 . S
O474 Sc464 2.105 . S
O474 C468 1.268 . S
O475 Sc462 2.105 . S
O475 C469 1.268 . S
O476 Sc464 2.105 . S
O476 C470 1.268 . S
O477 Sc463 2.105 . S
O477 C471 1.268 . S
O478 Sc462 2.105 . S
O478 C470 1.268 . S
O479 Sc463 2.105 . S
O479 C469 1.268 . S
O480 Sc464 2.105 . S
O480 C471 1.268 . S
O481 Sc462 2.105 . S
O481 C467 1.268 . S
O482 Sc464 2.105 1_556 S
O482 C466 1.268 . S
O483 Sc463 2.105 . S
O483 C468 1.268 . S
Sc484 O487 2.025 . S
Sc484 O494 2.105 . S
Sc484 O497 2.105 . S
Sc484 O500 2.105 . S
Sc484 O503 2.105 . S
Sc485 O487 2.025 . S
Sc485 O495 2.105 . S
Sc485 O499 2.105 . S
Sc485 O501 2.105 . S
Sc485 O505 2.105 . S
Sc486 O487 2.025 . S
Sc486 O496 2.105 . S
Sc486 O498 2.105 . S
Sc486 O502 2.105 . S
Sc486 O504 2.105 . S
O487 Sc484 2.025 . S
O487 Sc485 2.025 . S
O487 Sc486 2.025 . S
C488 O494 1.268 . S
C488 O504 1.268 . S
C489 O495 1.268 . S
C489 O503 1.268 . S
C490 O496 1.268 . S
C490 O505 1.268 . S
C491 O497 1.268 . S
C491 O501 1.268 . S
C492 O498 1.268 . S
C492 O500 1.268 . S
C493 O499 1.268 . S
C493 O502 1.268 . S
O494 Sc484 2.105 . S
O494 C488 1.268 . S
O495 Sc485 2.105 . S
O495 C489 1.268 . S
O496 Sc486 2.105 . S
O496 C490 1.268 . S
O497 Sc484 2.105 . S
O497 C491 1.268 . S
O498 Sc486 2.105 . S
O498 C492 1.268 . S
O499 Sc485 2.105 . S
O499 C493 1.268 . S
O500 Sc484 2.105 . S
O500 C492 1.268 . S
O501 Sc485 2.105 . S
O501 C491 1.268 . S
O502 Sc486 2.105 . S
O502 C493 1.268 . S
O503 Sc484 2.105 . S
O503 C489 1.268 . S
O504 Sc486 2.105 . S
O504 C488 1.268 . S
O505 Sc485 2.105 . S
O505 C490 1.268 . S
Sc506 O509 2.025 . S
Sc506 O516 2.105 . S
Sc506 O519 2.105 . S
Sc506 O522 2.105 . S
Sc506 O525 2.105 . S
Sc507 O509 2.025 . S
Sc507 O517 2.105 . S
Sc507 O521 2.105 . S
Sc507 O523 2.105 . S
Sc507 O527 2.105 . S
Sc508 O509 2.025 . S
Sc508 O518 2.105 . S
Sc508 O520 2.105 . S
Sc508 O524 2.105 . S
Sc508 O526 2.105 . S
O509 Sc506 2.025 . S
O509 Sc507 2.025 . S
O509 Sc508 2.025 . S
C510 O516 1.268 . S
C510 O526 1.268 . S
C511 O517 1.268 . S
C511 O525 1.268 . S
C512 O518 1.268 . S
C512 O527 1.268 . S
C513 O519 1.268 . S
C513 O523 1.268 . S
C514 O520 1.268 . S
C514 O522 1.268 . S
C515 O521 1.268 . S
C515 O524 1.268 . S
O516 Sc506 2.105 . S
O516 C510 1.268 . S
O517 Sc507 2.105 . S
O517 C511 1.268 . S
O518 Sc508 2.105 . S
O518 C512 1.268 . S
O519 Sc506 2.105 . S
O519 C513 1.268 . S
O520 Sc508 2.105 . S
O520 C514 1.268 . S
O521 Sc507 2.105 . S
O521 C515 1.268 . S
O522 Sc506 2.105 . S
O522 C514 1.268 . S
O523 Sc507 2.105 . S
O523 C513 1.268 . S
O524 Sc508 2.105 . S
O524 C515 1.268 . S
O525 Sc506 2.105 . S
O525 C511 1.268 . S
O526 Sc508 2.105 . S
O526 C510 1.268 . S
O527 Sc507 2.105 . S
O527 C512 1.268 . S
H528 C536 0.950 . S
H529 C541 0.950 . S
H530 C538 0.950 . S
H531 C540 0.950 . S
H532 C542 0.950 . S
H533 C544 0.950 . S
H534 C546 0.950 . S
H535 C547 0.950 . S
C536 H528 0.950 . S
C536 C537 1.386 . S
C536 C538 1.391 . S
C537 C536 1.386 . S
C537 C541 1.393 . S
C538 H530 0.950 . S
C538 C536 1.391 . S
C538 C539 1.400 . S
C539 C538 1.400 . S
C539 C540 1.398 . S
C539 C545 1.491 . S
C540 H531 0.950 . S
C540 C539 1.398 . S
C540 C541 1.391 . S
C541 H529 0.950 . S
C541 C537 1.393 . S
C541 C540 1.391 . S
C542 H532 0.950 . S
C542 C543 1.386 . S
C542 C544 1.391 . S
C543 C542 1.386 . S
C543 C547 1.393 . S
C544 H533 0.950 . S
C544 C542 1.391 . S
C544 C545 1.400 . S
C545 C539 1.491 . S
C545 C544 1.400 . S
C545 C546 1.398 . S
C546 H534 0.950 . S
C546 C545 1.398 . S
C546 C547 1.391 . S
C547 H535 0.950 . S
C547 C543 1.393 . S
C547 C546 1.391 . S
H548 C556 0.950 . S
H549 C561 0.950 . S
H550 C558 0.950 . S
H551 C560 0.950 . S
H552 C562 0.950 . S
H553 C564 0.950 . S
H554 C566 0.950 . S
H555 C567 0.950 . S
C556 H548 0.950 . S
C556 C557 1.386 . S
C556 C558 1.391 . S
C557 C556 1.386 . S
C557 C561 1.393 . S
C558 H550 0.950 . S
C558 C556 1.391 . S
C558 C559 1.400 . S
C559 C558 1.400 . S
C559 C560 1.398 . S
C559 C565 1.491 . S
C560 H551 0.950 . S
C560 C559 1.398 . S
C560 C561 1.391 . S
C561 H549 0.950 . S
C561 C557 1.393 . S
C561 C560 1.391 . S
C562 H552 0.950 . S
C562 C563 1.386 . S
C562 C564 1.391 . S
C563 C562 1.386 . S
C563 C567 1.393 . S
C564 H553 0.950 . S
C564 C562 1.391 . S
C564 C565 1.400 . S
C565 C559 1.491 . S
C565 C564 1.400 . S
C565 C566 1.398 . S
C566 H554 0.950 . S
C566 C565 1.398 . S
C566 C567 1.391 . S
C567 H555 0.950 . S
C567 C563 1.393 . S
C567 C566 1.391 . S
H568 C576 0.950 . S
H569 C581 0.950 . S
H570 C578 0.950 . S
H571 C580 0.950 . S
H572 C582 0.950 . S
H573 C584 0.950 . S
H574 C586 0.950 . S
H575 C587 0.950 . S
C576 H568 0.950 . S
C576 C577 1.386 . S
C576 C578 1.391 . S
C577 C576 1.386 . S
C577 C581 1.393 . S
C578 H570 0.950 . S
C578 C576 1.391 . S
C578 C579 1.400 . S
C579 C578 1.400 . S
C579 C580 1.398 . S
C579 C585 1.491 . S
C580 H571 0.950 . S
C580 C579 1.398 . S
C580 C581 1.391 . S
C581 H569 0.950 . S
C581 C577 1.393 . S
C581 C580 1.391 . S
C582 H572 0.950 . S
C582 C583 1.386 1_545 S
C582 C584 1.391 . S
C583 C582 1.386 1_565 S
C583 C587 1.393 . S
C584 H573 0.950 . S
C584 C582 1.391 . S
C584 C585 1.400 . S
C585 C579 1.491 . S
C585 C584 1.400 . S
C585 C586 1.398 1_545 S
C586 H574 0.950 . S
C586 C585 1.398 1_565 S
C586 C587 1.391 . S
C587 H575 0.950 . S
C587 C583 1.393 . S
C587 C586 1.391 . S
H588 C596 0.950 . S
H589 C601 0.950 . S
H590 C598 0.950 . S
H591 C600 0.950 . S
H592 C602 0.950 . S
H593 C604 0.950 . S
H594 C606 0.950 . S
H595 C607 0.950 . S
C596 H588 0.950 . S
C596 C597 1.386 . S
C596 C598 1.391 . S
C597 C596 1.386 . S
C597 C601 1.393 . S
C598 H590 0.950 . S
C598 C596 1.391 . S
C598 C599 1.400 . S
C599 C598 1.400 . S
C599 C600 1.398 . S
C599 C605 1.491 . S
C600 H591 0.950 . S
C600 C599 1.398 . S
C600 C601 1.391 . S
C601 H589 0.950 . S
C601 C597 1.393 . S
C601 C600 1.391 . S
C602 H592 0.950 . S
C602 C603 1.386 . S
C602 C604 1.391 1_545 S
C603 C602 1.386 . S
C603 C607 1.393 . S
C604 H593 0.950 . S
C604 C602 1.391 1_565 S
C604 C605 1.400 . S
C605 C599 1.491 . S
C605 C604 1.400 . S
C605 C606 1.398 . S
C606 H594 0.950 . S
C606 C605 1.398 . S
C606 C607 1.391 1_565 S
C607 H595 0.950 . S
C607 C603 1.393 . S
C607 C606 1.391 1_545 S
H608 C616 0.950 . S
H609 C621 0.950 . S
H610 C618 0.950 . S
H611 C620 0.950 . S
H612 C622 0.950 . S
H613 C624 0.950 . S
H614 C626 0.950 . S
H615 C627 0.950 . S
C616 H608 0.950 . S
C616 C617 1.386 . S
C616 C618 1.391 . S
C617 C616 1.386 . S
C617 C621 1.393 . S
C618 H610 0.950 . S
C618 C616 1.391 . S
C618 C619 1.400 . S
C619 C618 1.400 . S
C619 C620 1.398 . S
C619 C625 1.491 . S
C620 H611 0.950 . S
C620 C619 1.398 . S
C620 C621 1.391 . S
C621 H609 0.950 . S
C621 C617 1.393 . S
C621 C620 1.391 . S
C622 H612 0.950 . S
C622 C623 1.386 . S
C622 C624 1.391 . S
C623 C622 1.386 . S
C623 C627 1.393 . S
C624 H613 0.950 . S
C624 C622 1.391 . S
C624 C625 1.400 . S
C625 C619 1.491 . S
C625 C624 1.400 . S
C625 C626 1.398 . S
C626 H614 0.950 . S
C626 C625 1.398 . S
C626 C627 1.391 . S
C627 H615 0.950 . S
C627 C623 1.393 . S
C627 C626 1.391 . S
H628 C636 0.950 . S
H629 C641 0.950 . S
H630 C638 0.950 . S
H631 C640 0.950 . S
H632 C642 0.950 . S
H633 C644 0.950 . S
H634 C646 0.950 . S
H635 C647 0.950 . S
C636 H628 0.950 . S
C636 C637 1.386 . S
C636 C638 1.391 . S
C637 C636 1.386 . S
C637 C641 1.393 . S
C638 H630 0.950 . S
C638 C636 1.391 . S
C638 C639 1.400 . S
C639 C638 1.400 . S
C639 C640 1.398 . S
C639 C645 1.491 . S
C640 H631 0.950 . S
C640 C639 1.398 . S
C640 C641 1.391 . S
C641 H629 0.950 . S
C641 C637 1.393 . S
C641 C640 1.391 . S
C642 H632 0.950 . S
C642 C643 1.386 1_556 S
C642 C644 1.391 . S
C643 C642 1.386 1_554 S
C643 C647 1.393 . S
C644 H633 0.950 . S
C644 C642 1.391 . S
C644 C645 1.400 . S
C645 C639 1.491 . S
C645 C644 1.400 . S
C645 C646 1.415 . S
C646 H634 0.950 . S
C646 C645 1.415 . S
C646 C647 1.375 1_556 S
C647 H635 0.950 . S
C647 C643 1.393 . S
C647 C646 1.375 1_554 S
H648 C656 0.950 . S
H649 C661 0.950 . S
H650 C658 0.950 . S
H651 C660 0.950 . S
H652 C662 0.950 . S
H653 C664 0.950 . S
H654 C666 0.950 . S
H655 C667 0.950 . S
C656 H648 0.950 . S
C656 C657 1.386 . S
C656 C658 1.391 . S
C657 C656 1.386 . S
C657 C661 1.393 . S
C658 H650 0.950 . S
C658 C656 1.391 . S
C658 C659 1.400 . S
C659 C658 1.400 . S
C659 C660 1.398 . S
C659 C665 1.491 . S
C660 H651 0.950 . S
C660 C659 1.398 . S
C660 C661 1.391 . S
C661 H649 0.950 . S
C661 C657 1.393 . S
C661 C660 1.391 . S
C662 H652 0.950 . S
C662 C663 1.386 . S
C662 C664 1.391 . S
C663 C662 1.386 . S
C663 C667 1.393 . S
C664 H653 0.950 . S
C664 C662 1.391 . S
C664 C665 1.400 . S
C665 C659 1.491 . S
C665 C664 1.400 . S
C665 C666 1.398 . S
C666 H654 0.950 . S
C666 C665 1.398 . S
C666 C667 1.391 . S
C667 H655 0.950 . S
C667 C663 1.393 . S
C667 C666 1.391 . S
H668 C676 0.950 . S
H669 C681 0.950 . S
H670 C678 0.950 . S
H671 C680 0.950 . S
H672 C682 0.950 . S
H673 C684 0.950 . S
H674 C686 0.950 . S
H675 C687 0.950 . S
C676 H668 0.950 . S
C676 C677 1.386 . S
C676 C678 1.391 . S
C677 C676 1.386 . S
C677 C681 1.393 . S
C678 H670 0.950 . S
C678 C676 1.391 . S
C678 C679 1.400 . S
C679 C678 1.400 . S
C679 C680 1.398 . S
C679 C685 1.491 . S
C680 H671 0.950 . S
C680 C679 1.398 . S
C680 C681 1.391 . S
C681 H669 0.950 . S
C681 C677 1.393 . S
C681 C680 1.391 . S
C682 H672 0.950 . S
C682 C683 1.386 . S
C682 C684 1.391 1_556 S
C683 C682 1.386 . S
C683 C687 1.393 . S
C684 H673 0.950 . S
C684 C682 1.391 1_554 S
C684 C685 1.400 . S
C685 C679 1.491 . S
C685 C684 1.400 . S
C685 C686 1.398 . S
C686 H674 0.950 . S
C686 C685 1.398 . S
C686 C687 1.391 1_554 S
C687 H675 0.950 . S
C687 C683 1.393 . S
C687 C686 1.391 1_556 S
H688 C696 0.950 . S
H689 C701 0.950 . S
H690 C698 0.950 . S
H691 C700 0.950 . S
H692 C702 0.950 . S
H693 C704 0.950 . S
H694 C706 0.950 . S
H695 C707 0.950 . S
C696 H688 0.950 . S
C696 C697 1.386 . S
C696 C698 1.391 . S
C697 C696 1.386 . S
C697 C701 1.393 . S
C698 H690 0.950 . S
C698 C696 1.391 . S
C698 C699 1.400 . S
C699 C698 1.400 . S
C699 C700 1.398 . S
C699 C705 1.491 . S
C700 H691 0.950 . S
C700 C699 1.398 . S
C700 C701 1.391 . S
C701 H689 0.950 . S
C701 C697 1.393 . S
C701 C700 1.391 . S
C702 H692 0.950 . S
C702 C703 1.386 . S
C702 C704 1.391 . S
C703 C702 1.386 . S
C703 C707 1.393 . S
C704 H693 0.950 . S
C704 C702 1.391 . S
C704 C705 1.400 . S
C705 C699 1.491 . S
C705 C704 1.400 . S
C705 C706 1.398 . S
C706 H694 0.950 . S
C706 C705 1.398 . S
C706 C707 1.391 . S
C707 H695 0.950 . S
C707 C703 1.393 . S
C707 C706 1.391 . S
H708 C716 0.950 . S
H709 C721 0.950 . S
H710 C718 0.950 . S
H711 C720 0.950 . S
H712 C722 0.950 . S
H713 C724 0.950 . S
H714 C726 0.950 . S
H715 C727 0.950 . S
C716 H708 0.950 . S
C716 C717 1.386 . S
C716 C718 1.391 . S
C717 C716 1.386 . S
C717 C721 1.393 . S
C718 H710 0.950 . S
C718 C716 1.391 . S
C718 C719 1.400 . S
C719 C718 1.400 . S
C719 C720 1.398 . S
C719 C725 1.491 . S
C720 H711 0.950 . S
C720 C719 1.398 . S
C720 C721 1.391 . S
C721 H709 0.950 . S
C721 C717 1.393 . S
C721 C720 1.391 . S
C722 H712 0.950 . S
C722 C723 1.386 1_655 S
C722 C724 1.391 . S
C723 C722 1.386 1_455 S
C723 C727 1.393 . S
C724 H713 0.950 . S
C724 C722 1.391 . S
C724 C725 1.400 . S
C725 C719 1.491 . S
C725 C724 1.400 . S
C725 C726 1.398 1_655 S
C726 H714 0.950 . S
C726 C725 1.398 1_455 S
C726 C727 1.391 . S
C727 H715 0.950 . S
C727 C723 1.393 . S
C727 C726 1.391 . S
H728 C736 0.950 . S
H729 C741 0.950 . S
H730 C738 0.950 . S
H731 C740 0.950 . S
H732 C742 0.950 . S
H733 C744 0.950 . S
H734 C746 0.950 . S
H735 C747 0.950 . S
C736 H728 0.950 . S
C736 C737 1.386 . S
C736 C738 1.391 . S
C737 C736 1.386 . S
C737 C741 1.393 . S
C738 H730 0.950 . S
C738 C736 1.391 . S
C738 C739 1.400 . S
C739 C738 1.400 . S
C739 C740 1.398 . S
C739 C745 1.491 . S
C740 H731 0.950 . S
C740 C739 1.398 . S
C740 C741 1.391 . S
C741 H729 0.950 . S
C741 C737 1.393 . S
C741 C740 1.391 . S
C742 H732 0.950 . S
C742 C743 1.386 . S
C742 C744 1.391 . S
C743 C742 1.386 . S
C743 C747 1.393 . S
C744 H733 0.950 . S
C744 C742 1.391 . S
C744 C745 1.400 . S
C745 C739 1.491 . S
C745 C744 1.400 . S
C745 C746 1.398 . S
C746 H734 0.950 . S
C746 C745 1.398 . S
C746 C747 1.391 . S
C747 H735 0.950 . S
C747 C743 1.393 . S
C747 C746 1.391 . S
H748 C756 0.950 . S
H749 C761 0.950 . S
H750 C758 0.950 . S
H751 C760 0.950 . S
H752 C762 0.950 . S
H753 C764 0.950 . S
H754 C766 0.950 . S
H755 C767 0.950 . S
C756 H748 0.950 . S
C756 C757 1.386 . S
C756 C758 1.391 . S
C757 C756 1.386 . S
C757 C761 1.393 . S
C758 H750 0.950 . S
C758 C756 1.391 . S
C758 C759 1.400 . S
C759 C758 1.400 . S
C759 C760 1.398 . S
C759 C765 1.491 . S
C760 H751 0.950 . S
C760 C759 1.398 . S
C760 C761 1.391 . S
C761 H749 0.950 . S
C761 C757 1.393 . S
C761 C760 1.391 . S
C762 H752 0.950 . S
C762 C763 1.386 . S
C762 C764 1.391 . S
C763 C762 1.386 . S
C763 C767 1.393 1_655 S
C764 H753 0.950 . S
C764 C762 1.391 . S
C764 C765 1.400 1_655 S
C765 C759 1.491 . S
C765 C764 1.400 1_455 S
C765 C766 1.398 . S
C766 H754 0.950 . S
C766 C765 1.398 . S
C766 C767 1.391 . S
C767 H755 0.950 . S
C767 C763 1.393 1_455 S
C767 C766 1.391 . S
H768 C776 0.950 . S
H769 C781 0.950 . S
H770 C778 0.950 . S
H771 C780 0.950 . S
H772 C782 0.950 . S
H773 C784 0.950 . S
H774 C786 0.950 . S
H775 C787 0.950 . S
C776 H768 0.950 . S
C776 C777 1.386 . S
C776 C778 1.391 . S
C777 C776 1.386 . S
C777 C781 1.393 . S
C778 H770 0.950 . S
C778 C776 1.391 . S
C778 C779 1.400 . S
C779 C778 1.400 . S
C779 C780 1.398 . S
C779 C785 1.491 . S
C780 H771 0.950 . S
C780 C779 1.398 . S
C780 C781 1.391 . S
C781 H769 0.950 . S
C781 C777 1.393 . S
C781 C780 1.391 . S
C782 H772 0.950 . S
C782 C783 1.386 . S
C782 C784 1.391 . S
C783 C782 1.386 . S
C783 C787 1.393 . S
C784 H773 0.950 . S
C784 C782 1.391 . S
C784 C785 1.400 . S
C785 C779 1.491 . S
C785 C784 1.400 . S
C785 C786 1.398 . S
C786 H774 0.950 . S
C786 C785 1.398 . S
C786 C787 1.391 . S
C787 H775 0.950 . S
C787 C783 1.393 . S
C787 C786 1.391 . S
H788 C796 0.950 . S
H789 C801 0.950 . S
H790 C798 0.950 . S
H791 C800 0.950 . S
H792 C802 0.950 . S
H793 C804 0.950 . S
H794 C806 0.950 . S
H795 C807 0.950 . S
C796 H788 0.950 . S
C796 C797 1.386 . S
C796 C798 1.391 . S
C797 C796 1.386 . S
C797 C801 1.393 . S
C798 H790 0.950 . S
C798 C796 1.391 . S
C798 C799 1.400 . S
C799 C798 1.400 . S
C799 C800 1.398 . S
C799 C805 1.491 . S
C800 H791 0.950 . S
C800 C799 1.398 . S
C800 C801 1.391 . S
C801 H789 0.950 . S
C801 C797 1.393 . S
C801 C800 1.391 . S
C802 H792 0.950 . S
C802 C803 1.386 . S
C802 C804 1.391 . S
C803 C802 1.386 . S
C803 C807 1.393 . S
C804 H793 0.950 . S
C804 C802 1.391 . S
C804 C805 1.400 . S
C805 C799 1.491 . S
C805 C804 1.400 . S
C805 C806 1.398 . S
C806 H794 0.950 . S
C806 C805 1.398 . S
C806 C807 1.391 . S
C807 H795 0.950 . S
C807 C803 1.393 . S
C807 C806 1.391 . S
H808 C816 0.950 . S
H809 C821 0.950 . S
H810 C818 0.950 . S
H811 C820 0.950 . S
H812 C822 0.950 . S
H813 C824 0.950 . S
H814 C826 0.950 . S
H815 C827 0.950 . S
C816 H808 0.950 . S
C816 C817 1.386 . S
C816 C818 1.391 . S
C817 C816 1.386 . S
C817 C821 1.393 . S
C818 H810 0.950 . S
C818 C816 1.391 . S
C818 C819 1.400 . S
C819 C818 1.400 . S
C819 C820 1.398 . S
C819 C825 1.491 . S
C820 H811 0.950 . S
C820 C819 1.398 . S
C820 C821 1.391 . S
C821 H809 0.950 . S
C821 C817 1.393 . S
C821 C820 1.391 . S
C822 H812 0.950 . S
C822 C823 1.386 . S
C822 C824 1.391 . S
C823 C822 1.386 . S
C823 C827 1.393 1_545 S
C824 H813 0.950 . S
C824 C822 1.391 . S
C824 C825 1.400 1_545 S
C825 C819 1.491 . S
C825 C824 1.400 1_565 S
C825 C826 1.398 . S
C826 H814 0.950 . S
C826 C825 1.398 . S
C826 C827 1.391 . S
C827 H815 0.950 . S
C827 C823 1.393 1_565 S
C827 C826 1.391 . S
H828 C836 0.950 . S
H829 C841 0.950 . S
H830 C838 0.950 . S
H831 C840 0.950 . S
H832 C842 0.950 . S
H833 C844 0.950 . S
H834 C846 0.950 . S
H835 C847 0.950 . S
C836 H828 0.950 . S
C836 C837 1.386 . S
C836 C838 1.391 . S
C837 C836 1.386 . S
C837 C841 1.393 1_565 S
C838 H830 0.950 . S
C838 C836 1.391 . S
C838 C839 1.400 1_565 S
C839 C838 1.400 1_545 S
C839 C840 1.398 . S
C839 C845 1.491 . S
C840 H831 0.950 . S
C840 C839 1.398 . S
C840 C841 1.391 . S
C841 H829 0.950 . S
C841 C837 1.393 1_545 S
C841 C840 1.391 . S
C842 H832 0.950 . S
C842 C843 1.386 . S
C842 C844 1.391 . S
C843 C842 1.386 . S
C843 C847 1.393 . S
C844 H833 0.950 . S
C844 C842 1.391 . S
C844 C845 1.400 . S
C845 C839 1.491 . S
C845 C844 1.400 . S
C845 C846 1.398 . S
C846 H834 0.950 . S
C846 C845 1.398 . S
C846 C847 1.391 . S
C847 H835 0.950 . S
C847 C843 1.393 . S
C847 C846 1.391 . S
H848 C856 0.950 . S
H849 C861 0.950 . S
H850 C858 0.950 . S
H851 C860 0.950 . S
H852 C862 0.950 . S
H853 C864 0.950 . S
H854 C866 0.950 . S
H855 C867 0.950 . S
C856 H848 0.950 . S
C856 C857 1.386 . S
C856 C858 1.391 . S
C857 C856 1.386 . S
C857 C861 1.393 . S
C858 H850 0.950 . S
C858 C856 1.391 . S
C858 C859 1.400 . S
C859 C858 1.400 . S
C859 C860 1.398 . S
C859 C865 1.491 . S
C860 H851 0.950 . S
C860 C859 1.398 . S
C860 C861 1.391 . S
C861 H849 0.950 . S
C861 C857 1.393 . S
C861 C860 1.391 . S
C862 H852 0.950 . S
C862 C863 1.386 . S
C862 C864 1.391 . S
C863 C862 1.386 . S
C863 C867 1.393 . S
C864 H853 0.950 . S
C864 C862 1.391 . S
C864 C865 1.400 . S
C865 C859 1.491 . S
C865 C864 1.400 . S
C865 C866 1.398 . S
C866 H854 0.950 . S
C866 C865 1.398 . S
C866 C867 1.391 . S
C867 H855 0.950 . S
C867 C863 1.393 . S
C867 C866 1.391 . S
H868 C876 0.950 . S
H869 C881 0.953 . S
H870 C878 0.950 . S
H871 C880 0.950 . S
H872 C882 0.950 . S
H873 C884 0.950 . S
H874 C886 0.950 . S
H875 C887 0.950 . S
C876 H868 0.950 . S
C876 C877 1.386 . S
C876 C878 1.391 1_556 S
C877 C876 1.386 . S
C877 C881 1.406 . S
C878 H870 0.950 . S
C878 C876 1.391 1_554 S
C878 C879 1.400 . S
C879 C878 1.400 . S
C879 C880 1.398 . S
C879 C885 1.491 . S
C880 H871 0.950 . S
C880 C879 1.398 . S
C880 C881 1.376 1_554 S
C881 H869 0.953 . S
C881 C877 1.406 . S
C881 C880 1.376 1_556 S
C882 H872 0.950 . S
C882 C883 1.386 . S
C882 C884 1.391 . S
C883 C882 1.386 . S
C883 C887 1.393 . S
C884 H873 0.950 . S
C884 C882 1.391 . S
C884 C885 1.400 . S
C885 C879 1.491 . S
C885 C884 1.400 . S
C885 C886 1.398 . S
C886 H874 0.950 . S
C886 C885 1.398 . S
C886 C887 1.391 . S
C887 H875 0.950 . S
C887 C883 1.393 . S
C887 C886 1.391 . S
H888 C896 0.950 . S
H889 C901 0.950 . S
H890 C898 0.950 . S
H891 C900 0.950 . S
H892 C902 0.950 . S
H893 C904 0.950 . S
H894 C906 0.950 . S
H895 C907 0.950 . S
C896 H888 0.950 . S
C896 C897 1.386 . S
C896 C898 1.391 . S
C897 C896 1.386 . S
C897 C901 1.393 . S
C898 H890 0.950 . S
C898 C896 1.391 . S
C898 C899 1.400 . S
C899 C898 1.400 . S
C899 C900 1.398 . S
C899 C905 1.491 . S
C900 H891 0.950 . S
C900 C899 1.398 . S
C900 C901 1.391 . S
C901 H889 0.950 . S
C901 C897 1.393 . S
C901 C900 1.391 . S
C902 H892 0.950 . S
C902 C903 1.386 . S
C902 C904 1.391 . S
C903 C902 1.386 . S
C903 C907 1.393 . S
C904 H893 0.950 . S
C904 C902 1.391 . S
C904 C905 1.400 . S
C905 C899 1.491 . S
C905 C904 1.400 . S
C905 C906 1.398 . S
C906 H894 0.950 . S
C906 C905 1.398 . S
C906 C907 1.391 . S
C907 H895 0.950 . S
C907 C903 1.393 . S
C907 C906 1.391 . S
H908 C916 0.950 . S
H909 C921 0.950 . S
H910 C918 0.950 . S
H911 C920 0.950 . S
H912 C922 0.950 . S
H913 C924 0.950 . S
H914 C926 0.950 1_554 S
H915 C927 0.950 . S
C916 H908 0.950 . S
C916 C917 1.386 . S
C916 C918 1.391 . S
C917 C916 1.386 . S
C917 C921 1.393 1_554 S
C918 H910 0.950 . S
C918 C916 1.391 . S
C918 C919 1.400 1_554 S
C919 C918 1.400 1_556 S
C919 C920 1.398 . S
C919 C925 1.491 . S
C920 H911 0.950 . S
C920 C919 1.398 . S
C920 C921 1.391 . S
C921 H909 0.950 . S
C921 C917 1.393 1_556 S
C921 C920 1.391 . S
C922 H912 0.950 . S
C922 C923 1.386 . S
C922 C924 1.391 . S
C923 C922 1.386 . S
C923 C927 1.393 . S
C924 H913 0.950 . S
C924 C922 1.391 . S
C924 C925 1.400 . S
C925 C919 1.491 . S
C925 C924 1.400 . S
C925 C926 1.398 . S
C926 H914 0.950 1_556 S
C926 C925 1.398 . S
C926 C927 1.391 . S
C927 H915 0.950 . S
C927 C923 1.393 . S
C927 C926 1.391 . S
H928 C936 0.950 . S
H929 C941 0.950 . S
H930 C938 0.950 . S
H931 C940 0.950 . S
H932 C942 0.950 . S
H933 C944 0.950 . S
H934 C946 0.950 . S
H935 C947 0.950 . S
C936 H928 0.950 . S
C936 C937 1.386 . S
C936 C938 1.391 . S
C937 C936 1.386 . S
C937 C941 1.393 . S
C938 H930 0.950 . S
C938 C936 1.391 . S
C938 C939 1.400 . S
C939 C938 1.400 . S
C939 C940 1.398 . S
C939 C945 1.491 . S
C940 H931 0.950 . S
C940 C939 1.398 . S
C940 C941 1.391 . S
C941 H929 0.950 . S
C941 C937 1.393 . S
C941 C940 1.391 . S
C942 H932 0.950 . S
C942 C943 1.386 . S
C942 C944 1.391 . S
C943 C942 1.386 . S
C943 C947 1.393 . S
C944 H933 0.950 . S
C944 C942 1.391 . S
C944 C945 1.400 . S
C945 C939 1.491 . S
C945 C944 1.400 . S
C945 C946 1.398 . S
C946 H934 0.950 . S
C946 C945 1.398 . S
C946 C947 1.391 . S
C947 H935 0.950 . S
C947 C943 1.393 . S
C947 C946 1.391 . S
H948 C956 0.950 . S
H949 C961 0.950 . S
H950 C958 0.950 . S
H951 C960 0.950 . S
H952 C962 0.950 . S
H953 C964 0.950 . S
H954 C966 0.950 1_655 S
H955 C967 0.950 . S
C956 H948 0.950 . S
C956 C957 1.386 . S
C956 C958 1.391 . S
C957 C956 1.386 . S
C957 C961 1.393 1_655 S
C958 H950 0.950 . S
C958 C956 1.391 . S
C958 C959 1.400 1_655 S
C959 C958 1.400 1_455 S
C959 C960 1.398 . S
C959 C965 1.491 . S
C960 H951 0.950 . S
C960 C959 1.398 . S
C960 C961 1.391 . S
C961 H949 0.950 . S
C961 C957 1.393 1_455 S
C961 C960 1.391 . S
C962 H952 0.950 . S
C962 C963 1.386 . S
C962 C964 1.391 . S
C963 C962 1.386 . S
C963 C967 1.393 . S
C964 H953 0.950 . S
C964 C962 1.391 . S
C964 C965 1.400 . S
C965 C959 1.491 . S
C965 C964 1.400 . S
C965 C966 1.398 . S
C966 H954 0.950 1_455 S
C966 C965 1.398 . S
C966 C967 1.391 . S
C967 H955 0.950 . S
C967 C963 1.393 . S
C967 C966 1.391 . S
H968 C976 0.950 . S
H969 C981 0.950 . S
H970 C978 0.950 . S
H971 C980 0.950 . S
H972 C982 0.950 . S
H973 C984 0.950 . S
H974 C986 0.950 . S
H975 C987 0.950 . S
C976 H968 0.950 . S
C976 C977 1.386 . S
C976 C978 1.391 . S
C977 C976 1.386 . S
C977 C981 1.393 . S
C978 H970 0.950 . S
C978 C976 1.391 . S
C978 C979 1.400 . S
C979 C978 1.400 . S
C979 C980 1.398 . S
C979 C985 1.491 . S
C980 H971 0.950 . S
C980 C979 1.398 . S
C980 C981 1.391 . S
C981 H969 0.950 . S
C981 C977 1.393 . S
C981 C980 1.391 . S
C982 H972 0.950 . S
C982 C983 1.386 . S
C982 C984 1.391 . S
C983 C982 1.386 . S
C983 C987 1.393 . S
C984 H973 0.950 . S
C984 C982 1.391 . S
C984 C985 1.400 . S
C985 C979 1.491 . S
C985 C984 1.400 . S
C985 C986 1.398 . S
C986 H974 0.950 . S
C986 C985 1.398 . S
C986 C987 1.391 . S
C987 H975 0.950 . S
C987 C983 1.393 . S
C987 C986 1.391 . S
H988 C996 0.950 . S
H989 C1001 0.950 . S
H990 C998 0.950 . S
H991 C1000 0.950 . S
H992 C1002 0.950 . S
H993 C1004 0.950 . S
H994 C1006 0.950 . S
H995 C1007 0.950 . S
C996 H988 0.950 . S
C996 C997 1.386 . S
C996 C998 1.391 . S
C997 C996 1.386 . S
C997 C1001 1.393 . S
C998 H990 0.950 . S
C998 C996 1.391 . S
C998 C999 1.400 . S
C999 C998 1.400 . S
C999 C1000 1.398 . S
C999 C1005 1.491 . S
C1000 H991 0.950 . S
C1000 C999 1.398 . S
C1000 C1001 1.391 . S
C1001 H989 0.950 . S
C1001 C997 1.393 . S
C1001 C1000 1.391 . S
C1002 H992 0.950 . S
C1002 C1003 1.386 . S
C1002 C1004 1.391 . S
C1003 C1002 1.386 . S
C1003 C1007 1.393 1_455 S
C1004 H993 0.950 . S
C1004 C1002 1.391 . S
C1004 C1005 1.400 1_455 S
C1005 C999 1.491 . S
C1005 C1004 1.400 1_655 S
C1005 C1006 1.398 . S
C1006 H994 0.950 . S
C1006 C1005 1.398 . S
C1006 C1007 1.391 . S
C1007 H995 0.950 . S
C1007 C1003 1.393 1_655 S
C1007 C1006 1.391 . S
H1008 C1016 0.950 . S
H1009 C1021 0.950 . S
H1010 C1018 0.950 . S
H1011 C1020 0.950 . S
H1012 C1022 0.950 . S
H1013 C1024 0.950 . S
H1014 C1026 0.950 . S
H1015 C1027 0.950 . S
C1016 H1008 0.950 . S
C1016 C1017 1.386 . S
C1016 C1018 1.391 . S
C1017 C1016 1.386 . S
C1017 C1021 1.393 . S
C1018 H1010 0.950 . S
C1018 C1016 1.391 . S
C1018 C1019 1.400 . S
C1019 C1018 1.400 . S
C1019 C1020 1.398 . S
C1019 C1025 1.491 . S
C1020 H1011 0.950 . S
C1020 C1019 1.398 . S
C1020 C1021 1.391 . S
C1021 H1009 0.950 . S
C1021 C1017 1.393 . S
C1021 C1020 1.391 . S
C1022 H1012 0.950 . S
C1022 C1023 1.386 . S
C1022 C1024 1.391 . S
C1023 C1022 1.386 . S
C1023 C1027 1.393 . S
C1024 H1013 0.950 . S
C1024 C1022 1.391 . S
C1024 C1025 1.400 . S
C1025 C1019 1.491 . S
C1025 C1024 1.400 . S
C1025 C1026 1.398 . S
C1026 H1014 0.950 . S
C1026 C1025 1.398 . S
C1026 C1027 1.391 . S
C1027 H1015 0.950 . S
C1027 C1023 1.393 . S
C1027 C1026 1.391 . S
H1028 C1036 0.950 . S
H1029 C1041 0.950 . S
H1030 C1038 0.950 . S
H1031 C1040 0.950 . S
H1032 C1042 0.950 . S
H1033 C1044 0.950 . S
H1034 C1046 0.950 . S
H1035 C1047 0.950 . S
C1036 H1028 0.950 . S
C1036 C1037 1.386 . S
C1036 C1038 1.391 . S
C1037 C1036 1.386 . S
C1037 C1041 1.393 . S
C1038 H1030 0.950 . S
C1038 C1036 1.391 . S
C1038 C1039 1.400 . S
C1039 C1038 1.400 . S
C1039 C1040 1.398 . S
C1039 C1045 1.491 . S
C1040 H1031 0.950 . S
C1040 C1039 1.398 . S
C1040 C1041 1.391 . S
C1041 H1029 0.950 . S
C1041 C1037 1.393 . S
C1041 C1040 1.391 . S
C1042 H1032 0.950 . S
C1042 C1043 1.386 . S
C1042 C1044 1.391 . S
C1043 C1042 1.386 . S
C1043 C1047 1.393 . S
C1044 H1033 0.950 . S
C1044 C1042 1.391 . S
C1044 C1045 1.400 . S
C1045 C1039 1.491 . S
C1045 C1044 1.400 . S
C1045 C1046 1.398 . S
C1046 H1034 0.950 . S
C1046 C1045 1.398 . S
C1046 C1047 1.391 . S
C1047 H1035 0.950 . S
C1047 C1043 1.393 . S
C1047 C1046 1.391 . S
H1048 C1056 0.950 . S
H1049 C1061 0.950 . S
H1050 C1058 0.950 . S
H1051 C1060 0.950 . S
H1052 C1062 0.950 . S
H1053 C1064 0.950 . S
H1054 C1066 0.950 . S
H1055 C1067 0.950 . S
C1056 H1048 0.950 . S
C1056 C1057 1.386 . S
C1056 C1058 1.391 . S
C1057 C1056 1.386 . S
C1057 C1061 1.393 . S
C1058 H1050 0.950 . S
C1058 C1056 1.391 . S
C1058 C1059 1.400 . S
C1059 C1058 1.400 . S
C1059 C1060 1.398 . S
C1059 C1065 1.491 . S
C1060 H1051 0.950 . S
C1060 C1059 1.398 . S
C1060 C1061 1.391 . S
C1061 H1049 0.950 . S
C1061 C1057 1.393 . S
C1061 C1060 1.391 . S
C1062 H1052 0.950 . S
C1062 C1063 1.386 . S
C1062 C1064 1.391 . S
C1063 C1062 1.386 . S
C1063 C1067 1.393 . S
C1064 H1053 0.950 . S
C1064 C1062 1.391 . S
C1064 C1065 1.400 . S
C1065 C1059 1.491 . S
C1065 C1064 1.400 . S
C1065 C1066 1.398 . S
C1066 H1054 0.950 . S
C1066 C1065 1.398 . S
C1066 C1067 1.391 . S
C1067 H1055 0.950 . S
C1067 C1063 1.393 . S
C1067 C1066 1.391 . S
H1068 C1076 0.950 . S
H1069 C1081 0.950 . S
H1070 C1078 0.950 . S
H1071 C1080 0.950 . S
H1072 C1082 0.950 . S
H1073 C1084 0.950 . S
H1074 C1086 0.950 . S
H1075 C1087 0.950 . S
C1076 H1068 0.950 . S
C1076 C1077 1.386 . S
C1076 C1078 1.391 . S
C1077 C1076 1.386 . S
C1077 C1081 1.393 . S
C1078 H1070 0.950 . S
C1078 C1076 1.391 . S
C1078 C1079 1.400 . S
C1079 C1078 1.400 . S
C1079 C1080 1.398 . S
C1079 C1085 1.491 . S
C1080 H1071 0.950 . S
C1080 C1079 1.398 . S
C1080 C1081 1.391 . S
C1081 H1069 0.950 . S
C1081 C1077 1.393 . S
C1081 C1080 1.391 . S
C1082 H1072 0.950 . S
C1082 C1083 1.386 . S
C1082 C1084 1.391 . S
C1083 C1082 1.386 . S
C1083 C1087 1.393 . S
C1084 H1073 0.950 . S
C1084 C1082 1.391 . S
C1084 C1085 1.400 . S
C1085 C1079 1.491 . S
C1085 C1084 1.400 . S
C1085 C1086 1.398 . S
C1086 H1074 0.950 . S
C1086 C1085 1.398 . S
C1086 C1087 1.391 . S
C1087 H1075 0.950 . S
C1087 C1083 1.393 . S
C1087 C1086 1.391 . S
H1088 C1096 0.950 . S
H1089 C1101 0.950 . S
H1090 C1098 0.950 . S
H1091 C1100 0.950 . S
H1092 C1102 0.950 . S
H1093 C1104 0.950 . S
H1094 C1106 0.950 . S
H1095 C1107 0.950 . S
C1096 H1088 0.950 . S
C1096 C1097 1.386 . S
C1096 C1098 1.391 . S
C1097 C1096 1.386 . S
C1097 C1101 1.393 . S
C1098 H1090 0.950 . S
C1098 C1096 1.391 . S
C1098 C1099 1.400 . S
C1099 C1098 1.400 . S
C1099 C1100 1.398 . S
C1099 C1105 1.491 . S
C1100 H1091 0.950 . S
C1100 C1099 1.398 . S
C1100 C1101 1.391 . S
C1101 H1089 0.950 . S
C1101 C1097 1.393 . S
C1101 C1100 1.391 . S
C1102 H1092 0.950 . S
C1102 C1103 1.386 . S
C1102 C1104 1.391 . S
C1103 C1102 1.386 . S
C1103 C1107 1.393 . S
C1104 H1093 0.950 . S
C1104 C1102 1.391 . S
C1104 C1105 1.400 . S
C1105 C1099 1.491 . S
C1105 C1104 1.400 . S
C1105 C1106 1.398 . S
C1106 H1094 0.950 . S
C1106 C1105 1.398 . S
C1106 C1107 1.391 . S
C1107 H1095 0.950 . S
C1107 C1103 1.393 . S
C1107 C1106 1.391 . S
H1108 C1116 0.950 . S
H1109 C1121 0.950 . S
H1110 C1118 0.950 . S
H1111 C1120 0.950 . S
H1112 C1122 0.950 . S
H1113 C1124 0.950 . S
H1114 C1126 0.950 . S
H1115 C1127 0.950 . S
C1116 H1108 0.950 . S
C1116 C1117 1.386 . S
C1116 C1118 1.391 . S
C1117 C1116 1.386 . S
C1117 C1121 1.393 . S
C1118 H1110 0.950 . S
C1118 C1116 1.391 . S
C1118 C1119 1.400 . S
C1119 C1118 1.400 . S
C1119 C1120 1.398 . S
C1119 C1125 1.491 . S
C1120 H1111 0.950 . S
C1120 C1119 1.398 . S
C1120 C1121 1.391 . S
C1121 H1109 0.950 . S
C1121 C1117 1.393 . S
C1121 C1120 1.391 . S
C1122 H1112 0.950 . S
C1122 C1123 1.386 . S
C1122 C1124 1.391 . S
C1123 C1122 1.386 . S
C1123 C1127 1.393 . S
C1124 H1113 0.950 . S
C1124 C1122 1.391 . S
C1124 C1125 1.400 . S
C1125 C1119 1.491 . S
C1125 C1124 1.400 . S
C1125 C1126 1.398 . S
C1126 H1114 0.950 . S
C1126 C1125 1.398 . S
C1126 C1127 1.391 . S
C1127 H1115 0.950 . S
C1127 C1123 1.393 . S
C1127 C1126 1.391 . S
H1128 C1136 0.950 . S
H1129 C1141 0.950 . S
H1130 C1138 0.950 . S
H1131 C1140 0.950 . S
H1132 C1142 0.950 . S
H1133 C1144 0.950 . S
H1134 C1146 0.950 . S
H1135 C1147 0.950 . S
C1136 H1128 0.950 . S
C1136 C1137 1.386 . S
C1136 C1138 1.391 . S
C1137 C1136 1.386 . S
C1137 C1141 1.393 . S
C1138 H1130 0.950 . S
C1138 C1136 1.391 . S
C1138 C1139 1.400 . S
C1139 C1138 1.400 . S
C1139 C1140 1.398 . S
C1139 C1145 1.491 . S
C1140 H1131 0.950 . S
C1140 C1139 1.398 . S
C1140 C1141 1.391 . S
C1141 H1129 0.950 . S
C1141 C1137 1.393 . S
C1141 C1140 1.391 . S
C1142 H1132 0.950 . S
C1142 C1143 1.386 . S
C1142 C1144 1.391 . S
C1143 C1142 1.386 . S
C1143 C1147 1.393 . S
C1144 H1133 0.950 . S
C1144 C1142 1.391 . S
C1144 C1145 1.400 . S
C1145 C1139 1.491 . S
C1145 C1144 1.400 . S
C1145 C1146 1.398 . S
C1146 H1134 0.950 . S
C1146 C1145 1.398 . S
C1146 C1147 1.391 . S
C1147 H1135 0.950 . S
C1147 C1143 1.393 . S
C1147 C1146 1.391 . S
H1148 C1156 0.950 . S
H1149 C1161 0.950 . S
H1150 C1158 0.950 . S
H1151 C1160 0.950 . S
H1152 C1162 0.950 . S
H1153 C1164 0.950 . S
H1154 C1166 0.950 . S
H1155 C1167 0.950 . S
C1156 H1148 0.950 . S
C1156 C1157 1.386 . S
C1156 C1158 1.391 . S
C1157 C1156 1.386 . S
C1157 C1161 1.393 . S
C1158 H1150 0.950 . S
C1158 C1156 1.391 . S
C1158 C1159 1.400 . S
C1159 C1158 1.400 . S
C1159 C1160 1.398 . S
C1159 C1165 1.491 . S
C1160 H1151 0.950 . S
C1160 C1159 1.398 . S
C1160 C1161 1.391 . S
C1161 H1149 0.950 . S
C1161 C1157 1.393 . S
C1161 C1160 1.391 . S
C1162 H1152 0.950 . S
C1162 C1163 1.386 . S
C1162 C1164 1.391 . S
C1163 C1162 1.386 . S
C1163 C1167 1.393 . S
C1164 H1153 0.950 . S
C1164 C1162 1.391 . S
C1164 C1165 1.400 . S
C1165 C1159 1.491 . S
C1165 C1164 1.400 . S
C1165 C1166 1.398 . S
C1166 H1154 0.950 . S
C1166 C1165 1.398 . S
C1166 C1167 1.391 . S
C1167 H1155 0.950 . S
C1167 C1163 1.393 . S
C1167 C1166 1.391 . S
H1168 C1176 0.947 1_565 S
H1169 C1181 0.950 . S
H1170 C1178 0.950 . S
H1171 C1180 0.950 . S
H1172 C1182 0.950 . S
H1173 C1184 0.950 . S
H1174 C1186 0.950 . S
H1175 C1187 0.950 . S
C1176 H1168 0.947 1_545 S
C1176 C1177 1.386 . S
C1176 C1178 1.391 . S
C1177 C1176 1.386 . S
C1177 C1181 1.393 . S
C1178 H1170 0.950 . S
C1178 C1176 1.391 . S
C1178 C1179 1.400 . S
C1179 C1178 1.400 . S
C1179 C1180 1.398 . S
C1179 C1185 1.491 . S
C1180 H1171 0.950 . S
C1180 C1179 1.398 . S
C1180 C1181 1.391 . S
C1181 H1169 0.950 . S
C1181 C1177 1.393 . S
C1181 C1180 1.391 . S
C1182 H1172 0.950 . S
C1182 C1183 1.386 . S
C1182 C1184 1.391 . S
C1183 C1182 1.386 . S
C1183 C1187 1.393 . S
C1184 H1173 0.950 . S
C1184 C1182 1.391 . S
C1184 C1185 1.400 . S
C1185 C1179 1.491 . S
C1185 C1184 1.400 . S
C1185 C1186 1.398 . S
C1186 H1174 0.950 . S
C1186 C1185 1.398 . S
C1186 C1187 1.391 . S
C1187 H1175 0.950 . S
C1187 C1183 1.393 . S
C1187 C1186 1.391 . S
H1188 C1196 0.950 . S
H1189 C1201 0.950 . S
H1190 C1198 0.950 . S
H1191 C1200 0.950 . S
H1192 C1202 0.950 . S
H1193 C1204 0.950 . S
H1194 C1206 0.950 . S
H1195 C1207 0.950 . S
C1196 H1188 0.950 . S
C1196 C1197 1.386 . S
C1196 C1198 1.391 . S
C1197 C1196 1.386 . S
C1197 C1201 1.393 . S
C1198 H1190 0.950 . S
C1198 C1196 1.391 . S
C1198 C1199 1.400 . S
C1199 C1198 1.400 . S
C1199 C1200 1.398 . S
C1199 C1205 1.491 . S
C1200 H1191 0.950 . S
C1200 C1199 1.398 . S
C1200 C1201 1.391 . S
C1201 H1189 0.950 . S
C1201 C1197 1.393 . S
C1201 C1200 1.391 . S
C1202 H1192 0.950 . S
C1202 C1203 1.386 . S
C1202 C1204 1.391 . S
C1203 C1202 1.386 . S
C1203 C1207 1.393 . S
C1204 H1193 0.950 . S
C1204 C1202 1.391 . S
C1204 C1205 1.400 . S
C1205 C1199 1.491 . S
C1205 C1204 1.400 . S
C1205 C1206 1.398 . S
C1206 H1194 0.950 . S
C1206 C1205 1.398 . S
C1206 C1207 1.391 . S
C1207 H1195 0.950 . S
C1207 C1203 1.393 . S
C1207 C1206 1.391 . S
H1208 C1216 0.950 . S
H1209 C1221 0.950 . S
H1210 C1218 0.950 . S
H1211 C1220 0.950 . S
H1212 C1222 0.950 . S
H1213 C1224 0.950 . S
H1214 C1226 0.950 . S
H1215 C1227 0.950 . S
C1216 H1208 0.950 . S
C1216 C1217 1.386 . S
C1216 C1218 1.391 . S
C1217 C1216 1.386 . S
C1217 C1221 1.393 . S
C1218 H1210 0.950 . S
C1218 C1216 1.391 . S
C1218 C1219 1.400 . S
C1219 C1218 1.400 . S
C1219 C1220 1.398 . S
C1219 C1225 1.491 . S
C1220 H1211 0.950 . S
C1220 C1219 1.398 . S
C1220 C1221 1.391 . S
C1221 H1209 0.950 . S
C1221 C1217 1.393 . S
C1221 C1220 1.391 . S
C1222 H1212 0.950 . S
C1222 C1223 1.386 . S
C1222 C1224 1.391 . S
C1223 C1222 1.386 . S
C1223 C1227 1.393 . S
C1224 H1213 0.950 . S
C1224 C1222 1.391 . S
C1224 C1225 1.400 . S
C1225 C1219 1.491 . S
C1225 C1224 1.400 . S
C1225 C1226 1.398 . S
C1226 H1214 0.950 . S
C1226 C1225 1.398 . S
C1226 C1227 1.391 . S
C1227 H1215 0.950 . S
C1227 C1223 1.393 . S
C1227 C1226 1.391 . S
H1228 C1236 0.950 . S
H1229 C1241 0.950 . S
H1230 C1238 0.950 . S
H1231 C1240 0.950 . S
H1232 C1242 0.950 . S
H1233 C1244 0.950 . S
H1234 C1246 0.950 . S
H1235 C1247 0.950 . S
C1236 H1228 0.950 . S
C1236 C1237 1.386 . S
C1236 C1238 1.391 . S
C1237 C1236 1.386 . S
C1237 C1241 1.393 . S
C1238 H1230 0.950 . S
C1238 C1236 1.391 . S
C1238 C1239 1.400 . S
C1239 C1238 1.400 . S
C1239 C1240 1.398 . S
C1239 C1245 1.491 . S
C1240 H1231 0.950 . S
C1240 C1239 1.398 . S
C1240 C1241 1.391 . S
C1241 H1229 0.950 . S
C1241 C1237 1.393 . S
C1241 C1240 1.391 . S
C1242 H1232 0.950 . S
C1242 C1243 1.386 . S
C1242 C1244 1.391 . S
C1243 C1242 1.386 . S
C1243 C1247 1.393 . S
C1244 H1233 0.950 . S
C1244 C1242 1.391 . S
C1244 C1245 1.400 . S
C1245 C1239 1.491 . S
C1245 C1244 1.400 . S
C1245 C1246 1.398 . S
C1246 H1234 0.950 . S
C1246 C1245 1.398 . S
C1246 C1247 1.391 . S
C1247 H1235 0.950 . S
C1247 C1243 1.393 . S
C1247 C1246 1.391 . S
H1248 C1256 0.950 . S
H1249 C1261 0.950 . S
H1250 C1258 0.950 . S
H1251 C1260 0.950 . S
H1252 C1262 0.925 1_554 S
H1253 C1264 0.950 . S
H1254 C1266 0.950 . S
H1255 C1267 0.950 . S
C1256 H1248 0.950 . S
C1256 C1257 1.386 . S
C1256 C1258 1.391 . S
C1257 C1256 1.386 . S
C1257 C1261 1.393 . S
C1258 H1250 0.950 . S
C1258 C1256 1.391 . S
C1258 C1259 1.400 . S
C1259 C1258 1.400 . S
C1259 C1260 1.398 . S
C1259 C1265 1.491 . S
C1260 H1251 0.950 . S
C1260 C1259 1.398 . S
C1260 C1261 1.391 . S
C1261 H1249 0.950 . S
C1261 C1257 1.393 . S
C1261 C1260 1.391 . S
C1262 H1252 0.925 1_556 S
C1262 C1263 1.386 . S
C1262 C1264 1.391 . S
C1263 C1262 1.386 . S
C1263 C1267 1.393 . S
C1264 H1253 0.950 . S
C1264 C1262 1.391 . S
C1264 C1265 1.400 . S
C1265 C1259 1.491 . S
C1265 C1264 1.400 . S
C1265 C1266 1.398 . S
C1266 H1254 0.950 . S
C1266 C1265 1.398 . S
C1266 C1267 1.391 . S
C1267 H1255 0.950 . S
C1267 C1263 1.393 . S
C1267 C1266 1.391 . S
H1268 C1276 0.950 . S
H1269 C1281 0.950 . S
H1270 C1278 0.950 . S
H1271 C1280 0.950 . S
H1272 C1282 0.950 . S
H1273 C1284 0.950 . S
H1274 C1286 0.950 . S
H1275 C1287 0.950 . S
C1276 H1268 0.950 . S
C1276 C1277 1.386 . S
C1276 C1278 1.391 . S
C1277 C1276 1.386 . S
C1277 C1281 1.393 . S
C1278 H1270 0.950 . S
C1278 C1276 1.391 . S
C1278 C1279 1.400 . S
C1279 C1278 1.400 . S
C1279 C1280 1.398 . S
C1279 C1285 1.491 . S
C1280 H1271 0.950 . S
C1280 C1279 1.398 . S
C1280 C1281 1.391 . S
C1281 H1269 0.950 . S
C1281 C1277 1.393 . S
C1281 C1280 1.391 . S
C1282 H1272 0.950 . S
C1282 C1283 1.386 . S
C1282 C1284 1.391 . S
C1283 C1282 1.386 . S
C1283 C1287 1.393 . S
C1284 H1273 0.950 . S
C1284 C1282 1.391 . S
C1284 C1285 1.400 . S
C1285 C1279 1.491 . S
C1285 C1284 1.400 . S
C1285 C1286 1.398 . S
C1286 H1274 0.950 . S
C1286 C1285 1.398 . S
C1286 C1287 1.391 . S
C1287 H1275 0.950 . S
C1287 C1283 1.393 . S
C1287 C1286 1.391 . S
H1288 C1296 0.950 . S
H1289 C1301 0.950 . S
H1290 C1298 0.950 . S
H1291 C1300 0.950 . S
H1292 C1302 0.950 . S
H1293 C1304 0.950 . S
H1294 C1306 0.950 . S
H1295 C1307 0.950 . S
C1296 H1288 0.950 . S
C1296 C1297 1.386 . S
C1296 C1298 1.391 . S
C1297 C1296 1.386 . S
C1297 C1301 1.393 . S
C1298 H1290 0.950 . S
C1298 C1296 1.391 . S
C1298 C1299 1.400 . S
C1299 C1298 1.400 . S
C1299 C1300 1.398 . S
C1299 C1305 1.491 . S
C1300 H1291 0.950 . S
C1300 C1299 1.398 . S
C1300 C1301 1.391 . S
C1301 H1289 0.950 . S
C1301 C1297 1.393 . S
C1301 C1300 1.391 . S
C1302 H1292 0.950 . S
C1302 C1303 1.386 . S
C1302 C1304 1.391 . S
C1303 C1302 1.386 . S
C1303 C1307 1.393 . S
C1304 H1293 0.950 . S
C1304 C1302 1.391 . S
C1304 C1305 1.400 . S
C1305 C1299 1.491 . S
C1305 C1304 1.400 . S
C1305 C1306 1.398 . S
C1306 H1294 0.950 . S
C1306 C1305 1.398 . S
C1306 C1307 1.391 . S
C1307 H1295 0.950 . S
C1307 C1303 1.393 . S
C1307 C1306 1.391 . S
H1308 C1316 0.950 . S
H1309 C1321 0.950 . S
H1310 C1318 0.950 . S
H1311 C1320 0.950 . S
H1312 C1322 0.950 . S
H1313 C1324 0.950 . S
H1314 C1326 0.950 . S
H1315 C1327 0.950 . S
C1316 H1308 0.950 . S
C1316 C1317 1.386 . S
C1316 C1318 1.391 . S
C1317 C1316 1.386 . S
C1317 C1321 1.393 . S
C1318 H1310 0.950 . S
C1318 C1316 1.391 . S
C1318 C1319 1.400 . S
C1319 C1318 1.400 . S
C1319 C1320 1.398 . S
C1319 C1325 1.491 . S
C1320 H1311 0.950 . S
C1320 C1319 1.398 . S
C1320 C1321 1.391 . S
C1321 H1309 0.950 . S
C1321 C1317 1.393 . S
C1321 C1320 1.391 . S
C1322 H1312 0.950 . S
C1322 C1323 1.386 . S
C1322 C1324 1.391 . S
C1323 C1322 1.386 . S
C1323 C1327 1.393 . S
C1324 H1313 0.950 . S
C1324 C1322 1.391 . S
C1324 C1325 1.400 . S
C1325 C1319 1.491 . S
C1325 C1324 1.400 . S
C1325 C1326 1.398 . S
C1326 H1314 0.950 . S
C1326 C1325 1.398 . S
C1326 C1327 1.391 . S
C1327 H1315 0.950 . S
C1327 C1323 1.393 . S
C1327 C1326 1.391 . S
H1328 C1336 0.950 . S
H1329 C1341 0.950 . S
H1330 C1338 0.950 . S
H1331 C1340 0.950 . S
H1332 C1342 0.950 . S
H1333 C1344 0.950 . S
H1334 C1346 0.950 . S
H1335 C1347 0.950 . S
C1336 H1328 0.950 . S
C1336 C1337 1.386 . S
C1336 C1338 1.391 . S
C1337 C1336 1.386 . S
C1337 C1341 1.393 . S
C1338 H1330 0.950 . S
C1338 C1336 1.391 . S
C1338 C1339 1.400 . S
C1339 C1338 1.400 . S
C1339 C1340 1.398 . S
C1339 C1345 1.491 . S
C1340 H1331 0.950 . S
C1340 C1339 1.398 . S
C1340 C1341 1.391 . S
C1341 H1329 0.950 . S
C1341 C1337 1.393 . S
C1341 C1340 1.391 . S
C1342 H1332 0.950 . S
C1342 C1343 1.386 . S
C1342 C1344 1.391 . S
C1343 C1342 1.386 . S
C1343 C1347 1.393 . S
C1344 H1333 0.950 . S
C1344 C1342 1.391 . S
C1344 C1345 1.400 . S
C1345 C1339 1.491 . S
C1345 C1344 1.400 . S
C1345 C1346 1.398 . S
C1346 H1334 0.950 . S
C1346 C1345 1.398 . S
C1346 C1347 1.391 . S
C1347 H1335 0.950 . S
C1347 C1343 1.393 . S
C1347 C1346 1.391 . S
H1348 C1356 0.950 . S
H1349 C1361 0.950 . S
H1350 C1358 0.950 . S
H1351 C1360 0.950 . S
H1352 C1362 0.950 . S
H1353 C1364 0.950 . S
H1354 C1366 0.950 . S
H1355 C1367 0.950 . S
C1356 H1348 0.950 . S
C1356 C1357 1.386 . S
C1356 C1358 1.391 . S
C1357 C1356 1.386 . S
C1357 C1361 1.393 . S
C1358 H1350 0.950 . S
C1358 C1356 1.391 . S
C1358 C1359 1.400 . S
C1359 C1358 1.400 . S
C1359 C1360 1.398 . S
C1359 C1365 1.491 . S
C1360 H1351 0.950 . S
C1360 C1359 1.398 . S
C1360 C1361 1.391 . S
C1361 H1349 0.950 . S
C1361 C1357 1.393 . S
C1361 C1360 1.391 . S
C1362 H1352 0.950 . S
C1362 C1363 1.386 . S
C1362 C1364 1.391 . S
C1363 C1362 1.386 . S
C1363 C1367 1.393 . S
C1364 H1353 0.950 . S
C1364 C1362 1.391 . S
C1364 C1365 1.400 . S
C1365 C1359 1.491 . S
C1365 C1364 1.400 . S
C1365 C1366 1.398 . S
C1366 H1354 0.950 . S
C1366 C1365 1.398 . S
C1366 C1367 1.391 . S
C1367 H1355 0.950 . S
C1367 C1363 1.393 . S
C1367 C1366 1.391 . S
H1368 C1376 0.950 . S
H1369 C1381 0.950 . S
H1370 C1378 0.950 . S
H1371 C1380 0.950 . S
H1372 C1382 0.950 . S
H1373 C1384 0.950 . S
H1374 C1386 0.950 . S
H1375 C1387 0.950 . S
C1376 H1368 0.950 . S
C1376 C1377 1.386 . S
C1376 C1378 1.391 . S
C1377 C1376 1.386 . S
C1377 C1381 1.393 . S
C1378 H1370 0.950 . S
C1378 C1376 1.391 . S
C1378 C1379 1.400 . S
C1379 C1378 1.400 . S
C1379 C1380 1.398 . S
C1379 C1385 1.491 . S
C1380 H1371 0.950 . S
C1380 C1379 1.398 . S
C1380 C1381 1.391 . S
C1381 H1369 0.950 . S
C1381 C1377 1.393 . S
C1381 C1380 1.391 . S
C1382 H1372 0.950 . S
C1382 C1383 1.386 . S
C1382 C1384 1.391 . S
C1383 C1382 1.386 . S
C1383 C1387 1.393 . S
C1384 H1373 0.950 . S
C1384 C1382 1.391 . S
C1384 C1385 1.400 . S
C1385 C1379 1.491 . S
C1385 C1384 1.400 . S
C1385 C1386 1.398 . S
C1386 H1374 0.950 . S
C1386 C1385 1.398 . S
C1386 C1387 1.391 . S
C1387 H1375 0.950 . S
C1387 C1383 1.393 . S
C1387 C1386 1.391 . S
H1388 C1396 0.950 1_655 S
H1389 C1401 0.950 . S
H1390 C1398 0.950 . S
H1391 C1400 0.950 . S
H1392 C1402 0.950 . S
H1393 C1404 0.950 . S
H1394 C1406 0.950 . S
H1395 C1407 0.950 . S
C1396 H1388 0.950 1_455 S
C1396 C1397 1.386 . S
C1396 C1398 1.391 . S
C1397 C1396 1.386 . S
C1397 C1401 1.393 . S
C1398 H1390 0.950 . S
C1398 C1396 1.391 . S
C1398 C1399 1.400 . S
C1399 C1398 1.400 . S
C1399 C1400 1.398 . S
C1399 C1405 1.491 . S
C1400 H1391 0.950 . S
C1400 C1399 1.398 . S
C1400 C1401 1.391 . S
C1401 H1389 0.950 . S
C1401 C1397 1.393 . S
C1401 C1400 1.391 . S
C1402 H1392 0.950 . S
C1402 C1403 1.386 . S
C1402 C1404 1.391 . S
C1403 C1402 1.386 . S
C1403 C1407 1.393 . S
C1404 H1393 0.950 . S
C1404 C1402 1.391 . S
C1404 C1405 1.400 . S
C1405 C1399 1.491 . S
C1405 C1404 1.400 . S
C1405 C1406 1.398 . S
C1406 H1394 0.950 . S
C1406 C1405 1.398 . S
C1406 C1407 1.391 . S
C1407 H1395 0.950 . S
C1407 C1403 1.393 . S
C1407 C1406 1.391 . S
H1408 C1416 0.950 . S
H1409 C1421 0.950 . S
H1410 C1418 0.950 . S
H1411 C1420 0.950 . S
H1412 C1422 0.950 . S
H1413 C1424 0.950 . S
H1414 C1426 0.950 . S
H1415 C1427 0.950 . S
C1416 H1408 0.950 . S
C1416 C1417 1.386 . S
C1416 C1418 1.391 . S
C1417 C1416 1.386 . S
C1417 C1421 1.393 . S
C1418 H1410 0.950 . S
C1418 C1416 1.391 . S
C1418 C1419 1.400 . S
C1419 C1418 1.400 . S
C1419 C1420 1.398 . S
C1419 C1425 1.491 . S
C1420 H1411 0.950 . S
C1420 C1419 1.398 . S
C1420 C1421 1.391 . S
C1421 H1409 0.950 . S
C1421 C1417 1.393 . S
C1421 C1420 1.391 . S
C1422 H1412 0.950 . S
C1422 C1423 1.386 . S
C1422 C1424 1.391 . S
C1423 C1422 1.386 . S
C1423 C1427 1.393 . S
C1424 H1413 0.950 . S
C1424 C1422 1.391 . S
C1424 C1425 1.400 . S
C1425 C1419 1.491 . S
C1425 C1424 1.400 . S
C1425 C1426 1.398 . S
C1426 H1414 0.950 . S
C1426 C1425 1.398 . S
C1426 C1427 1.391 . S
C1427 H1415 0.950 . S
C1427 C1423 1.393 . S
C1427 C1426 1.391 . S
H1428 C1436 0.950 . S
H1429 C1441 0.950 . S
H1430 C1438 0.950 . S
H1431 C1440 0.950 . S
H1432 C1442 0.950 . S
H1433 C1444 0.950 . S
H1434 C1446 0.950 . S
H1435 C1447 0.950 . S
C1436 H1428 0.950 . S
C1436 C1437 1.386 . S
C1436 C1438 1.391 . S
C1437 C1436 1.386 . S
C1437 C1441 1.393 . S
C1438 H1430 0.950 . S
C1438 C1436 1.391 . S
C1438 C1439 1.400 . S
C1439 C1438 1.400 . S
C1439 C1440 1.398 . S
C1439 C1445 1.491 . S
C1440 H1431 0.950 . S
C1440 C1439 1.398 . S
C1440 C1441 1.391 . S
C1441 H1429 0.950 . S
C1441 C1437 1.393 . S
C1441 C1440 1.391 . S
C1442 H1432 0.950 . S
C1442 C1443 1.386 . S
C1442 C1444 1.391 . S
C1443 C1442 1.386 . S
C1443 C1447 1.393 . S
C1444 H1433 0.950 . S
C1444 C1442 1.391 . S
C1444 C1445 1.400 . S
C1445 C1439 1.491 . S
C1445 C1444 1.400 . S
C1445 C1446 1.398 . S
C1446 H1434 0.950 . S
C1446 C1445 1.398 . S
C1446 C1447 1.391 . S
C1447 H1435 0.950 . S
C1447 C1443 1.393 . S
C1447 C1446 1.391 . S
H1448 C1456 0.950 . S
H1449 C1461 0.950 . S
H1450 C1458 0.950 . S
H1451 C1460 0.950 . S
H1452 C1462 0.950 . S
H1453 C1464 0.950 . S
H1454 C1466 0.950 . S
H1455 C1467 0.950 . S
C1456 H1448 0.950 . S
C1456 C1457 1.386 . S
C1456 C1458 1.391 . S
C1457 C1456 1.386 . S
C1457 C1461 1.393 . S
C1458 H1450 0.950 . S
C1458 C1456 1.391 . S
C1458 C1459 1.400 . S
C1459 C1458 1.400 . S
C1459 C1460 1.398 . S
C1459 C1465 1.491 . S
C1460 H1451 0.950 . S
C1460 C1459 1.398 . S
C1460 C1461 1.391 . S
C1461 H1449 0.950 . S
C1461 C1457 1.393 . S
C1461 C1460 1.391 . S
C1462 H1452 0.950 . S
C1462 C1463 1.386 . S
C1462 C1464 1.391 . S
C1463 C1462 1.386 . S
C1463 C1467 1.393 . S
C1464 H1453 0.950 . S
C1464 C1462 1.391 . S
C1464 C1465 1.400 . S
C1465 C1459 1.491 . S
C1465 C1464 1.400 . S
C1465 C1466 1.398 . S
C1466 H1454 0.950 . S
C1466 C1465 1.398 . S
C1466 C1467 1.391 . S
C1467 H1455 0.950 . S
C1467 C1463 1.393 . S
C1467 C1466 1.391 . S
H1468 C1476 0.950 . S
H1469 C1481 0.950 . S
H1470 C1478 0.950 . S
H1471 C1480 0.950 . S
H1472 C1482 0.950 . S
H1473 C1484 0.950 . S
H1474 C1486 0.950 . S
H1475 C1487 0.950 . S
C1476 H1468 0.950 . S
C1476 C1477 1.386 . S
C1476 C1478 1.391 . S
C1477 C1476 1.386 . S
C1477 C1481 1.393 . S
C1478 H1470 0.950 . S
C1478 C1476 1.391 . S
C1478 C1479 1.400 . S
C1479 C1478 1.400 . S
C1479 C1480 1.398 . S
C1479 C1485 1.491 . S
C1480 H1471 0.950 . S
C1480 C1479 1.398 . S
C1480 C1481 1.391 . S
C1481 H1469 0.950 . S
C1481 C1477 1.393 . S
C1481 C1480 1.391 . S
C1482 H1472 0.950 . S
C1482 C1483 1.386 . S
C1482 C1484 1.391 . S
C1483 C1482 1.386 . S
C1483 C1487 1.393 . S
C1484 H1473 0.950 . S
C1484 C1482 1.391 . S
C1484 C1485 1.400 . S
C1485 C1479 1.491 . S
C1485 C1484 1.400 . S
C1485 C1486 1.398 . S
C1486 H1474 0.950 . S
C1486 C1485 1.398 . S
C1486 C1487 1.391 . S
C1487 H1475 0.950 . S
C1487 C1483 1.393 . S
C1487 C1486 1.391 . S
H1488 C1496 0.950 . S
H1489 C1501 0.950 . S
H1490 C1498 0.950 . S
H1491 C1500 0.950 . S
H1492 C1502 0.950 . S
H1493 C1504 0.950 . S
H1494 C1506 0.950 . S
H1495 C1507 0.950 . S
C1496 H1488 0.950 . S
C1496 C1497 1.386 . S
C1496 C1498 1.391 . S
C1497 C1496 1.386 . S
C1497 C1501 1.393 . S
C1498 H1490 0.950 . S
C1498 C1496 1.391 . S
C1498 C1499 1.400 1_455 S
C1499 C1498 1.400 1_655 S
C1499 C1500 1.398 . S
C1499 C1505 1.491 . S
C1500 H1491 0.950 . S
C1500 C1499 1.398 . S
C1500 C1501 1.391 1_655 S
C1501 H1489 0.950 . S
C1501 C1497 1.393 . S
C1501 C1500 1.391 1_455 S
C1502 H1492 0.950 . S
C1502 C1503 1.386 . S
C1502 C1504 1.391 . S
C1503 C1502 1.386 . S
C1503 C1507 1.393 . S
C1504 H1493 0.950 . S
C1504 C1502 1.391 . S
C1504 C1505 1.400 . S
C1505 C1499 1.491 . S
C1505 C1504 1.400 . S
C1505 C1506 1.398 . S
C1506 H1494 0.950 . S
C1506 C1505 1.398 . S
C1506 C1507 1.391 . S
C1507 H1495 0.950 . S
C1507 C1503 1.393 . S
C1507 C1506 1.391 . S
H1508 C1516 0.950 . S
H1509 C1521 0.950 . S
H1510 C1518 0.950 . S
H1511 C1520 0.950 . S
H1512 C1522 0.950 . S
H1513 C1524 0.950 . S
H1514 C1526 0.950 . S
H1515 C1527 0.950 . S
C1516 H1508 0.950 . S
C1516 C1517 1.386 . S
C1516 C1518 1.391 . S
C1517 C1516 1.386 . S
C1517 C1521 1.393 . S
C1518 H1510 0.950 . S
C1518 C1516 1.391 . S
C1518 C1519 1.400 . S
C1519 C1518 1.400 . S
C1519 C1520 1.398 . S
C1519 C1525 1.491 . S
C1520 H1511 0.950 . S
C1520 C1519 1.398 . S
C1520 C1521 1.391 . S
C1521 H1509 0.950 . S
C1521 C1517 1.393 . S
C1521 C1520 1.391 . S
C1522 H1512 0.950 . S
C1522 C1523 1.386 . S
C1522 C1524 1.391 . S
C1523 C1522 1.386 . S
C1523 C1527 1.393 . S
C1524 H1513 0.950 . S
C1524 C1522 1.391 . S
C1524 C1525 1.400 . S
C1525 C1519 1.491 . S
C1525 C1524 1.400 . S
C1525 C1526 1.398 . S
C1526 H1514 0.950 . S
C1526 C1525 1.398 . S
C1526 C1527 1.391 . S
C1527 H1515 0.950 . S
C1527 C1523 1.393 . S
C1527 C1526 1.391 . S
H1528 C1536 0.950 . S
H1529 C1541 0.950 . S
H1530 C1538 0.950 . S
H1531 C1540 0.950 . S
H1532 C1542 0.950 . S
H1533 C1544 0.950 . S
H1534 C1546 0.950 . S
H1535 C1547 0.950 . S
C1536 H1528 0.950 . S
C1536 C1537 1.386 . S
C1536 C1538 1.391 . S
C1537 C1536 1.386 . S
C1537 C1541 1.393 . S
C1538 H1530 0.950 . S
C1538 C1536 1.391 . S
C1538 C1539 1.400 . S
C1539 C1538 1.400 . S
C1539 C1540 1.398 . S
C1539 C1545 1.491 . S
C1540 H1531 0.950 . S
C1540 C1539 1.398 . S
C1540 C1541 1.391 . S
C1541 H1529 0.950 . S
C1541 C1537 1.393 . S
C1541 C1540 1.391 . S
C1542 H1532 0.950 . S
C1542 C1543 1.386 . S
C1542 C1544 1.391 . S
C1543 C1542 1.386 . S
C1543 C1547 1.393 . S
C1544 H1533 0.950 . S
C1544 C1542 1.391 . S
C1544 C1545 1.400 . S
C1545 C1539 1.491 . S
C1545 C1544 1.400 . S
C1545 C1546 1.398 . S
C1546 H1534 0.950 . S
C1546 C1545 1.398 . S
C1546 C1547 1.391 . S
C1547 H1535 0.950 . S
C1547 C1543 1.393 . S
C1547 C1546 1.391 . S
H1548 C1556 0.950 . S
H1549 C1561 0.950 . S
H1550 C1558 0.950 . S
H1551 C1560 0.950 . S
H1552 C1562 0.950 . S
H1553 C1564 0.950 . S
H1554 C1566 0.950 . S
H1555 C1567 0.950 . S
C1556 H1548 0.950 . S
C1556 C1557 1.386 . S
C1556 C1558 1.391 . S
C1557 C1556 1.386 . S
C1557 C1561 1.393 . S
C1558 H1550 0.950 . S
C1558 C1556 1.391 . S
C1558 C1559 1.400 . S
C1559 C1558 1.400 . S
C1559 C1560 1.398 . S
C1559 C1565 1.491 . S
C1560 H1551 0.950 . S
C1560 C1559 1.398 . S
C1560 C1561 1.391 . S
C1561 H1549 0.950 . S
C1561 C1557 1.393 . S
C1561 C1560 1.391 . S
C1562 H1552 0.950 . S
C1562 C1563 1.386 . S
C1562 C1564 1.391 . S
C1563 C1562 1.386 . S
C1563 C1567 1.393 . S
C1564 H1553 0.950 . S
C1564 C1562 1.391 . S
C1564 C1565 1.400 1_655 S
C1565 C1559 1.491 . S
C1565 C1564 1.400 1_455 S
C1565 C1566 1.398 . S
C1566 H1554 0.950 . S
C1566 C1565 1.398 . S
C1566 C1567 1.391 1_455 S
C1567 H1555 0.950 . S
C1567 C1563 1.393 . S
C1567 C1566 1.391 1_655 S
H1568 C1576 0.950 . S
H1569 C1581 0.950 . S
H1570 C1578 0.950 . S
H1571 C1580 0.950 . S
H1572 C1582 0.950 . S
H1573 C1584 0.950 . S
H1574 C1586 0.950 . S
H1575 C1587 0.950 . S
C1576 H1568 0.950 . S
C1576 C1577 1.386 . S
C1576 C1578 1.391 1_545 S
C1577 C1576 1.386 . S
C1577 C1581 1.393 . S
C1578 H1570 0.950 . S
C1578 C1576 1.391 1_565 S
C1578 C1579 1.400 . S
C1579 C1578 1.400 . S
C1579 C1580 1.398 1_565 S
C1579 C1585 1.491 . S
C1580 H1571 0.950 . S
C1580 C1579 1.398 1_545 S
C1580 C1581 1.391 . S
C1581 H1569 0.950 . S
C1581 C1577 1.393 . S
C1581 C1580 1.391 . S
C1582 H1572 0.950 . S
C1582 C1583 1.386 . S
C1582 C1584 1.391 . S
C1583 C1582 1.386 . S
C1583 C1587 1.393 . S
C1584 H1573 0.950 . S
C1584 C1582 1.391 . S
C1584 C1585 1.400 . S
C1585 C1579 1.491 . S
C1585 C1584 1.400 . S
C1585 C1586 1.398 . S
C1586 H1574 0.950 . S
C1586 C1585 1.398 . S
C1586 C1587 1.391 . S
C1587 H1575 0.950 . S
C1587 C1583 1.393 . S
C1587 C1586 1.391 . S
H1588 C1596 0.950 . S
H1589 C1601 0.950 . S
H1590 C1598 0.950 . S
H1591 C1600 0.950 . S
H1592 C1602 0.950 . S
H1593 C1604 0.950 . S
H1594 C1606 0.951 . S
H1595 C1607 0.950 . S
C1596 H1588 0.950 . S
C1596 C1597 1.386 . S
C1596 C1598 1.391 . S
C1597 C1596 1.386 . S
C1597 C1601 1.393 . S
C1598 H1590 0.950 . S
C1598 C1596 1.391 . S
C1598 C1599 1.400 . S
C1599 C1598 1.400 . S
C1599 C1600 1.398 . S
C1599 C1605 1.491 . S
C1600 H1591 0.950 . S
C1600 C1599 1.398 . S
C1600 C1601 1.391 . S
C1601 H1589 0.950 . S
C1601 C1597 1.393 . S
C1601 C1600 1.391 . S
C1602 H1592 0.950 . S
C1602 C1603 1.386 . S
C1602 C1604 1.391 1_565 S
C1603 C1602 1.386 . S
C1603 C1607 1.393 . S
C1604 H1593 0.950 . S
C1604 C1602 1.391 1_545 S
C1604 C1605 1.400 . S
C1605 C1599 1.491 . S
C1605 C1604 1.400 . S
C1605 C1606 1.399 . S
C1606 H1594 0.951 . S
C1606 C1605 1.399 . S
C1606 C1607 1.389 1_545 S
C1607 H1595 0.950 . S
C1607 C1603 1.393 . S
C1607 C1606 1.389 1_565 S
H1608 C1616 0.950 . S
H1609 C1621 0.950 . S
H1610 C1618 0.950 . S
H1611 C1620 0.950 . S
H1612 C1622 0.950 . S
H1613 C1624 0.950 . S
H1614 C1626 0.950 . S
H1615 C1627 0.950 . S
C1616 H1608 0.950 . S
C1616 C1617 1.386 . S
C1616 C1618 1.391 . S
C1617 C1616 1.386 . S
C1617 C1621 1.393 . S
C1618 H1610 0.950 . S
C1618 C1616 1.391 . S
C1618 C1619 1.400 . S
C1619 C1618 1.400 . S
C1619 C1620 1.398 . S
C1619 C1625 1.491 . S
C1620 H1611 0.950 . S
C1620 C1619 1.398 . S
C1620 C1621 1.391 . S
C1621 H1609 0.950 . S
C1621 C1617 1.393 . S
C1621 C1620 1.391 . S
C1622 H1612 0.950 . S
C1622 C1623 1.386 . S
C1622 C1624 1.391 . S
C1623 C1622 1.386 . S
C1623 C1627 1.393 . S
C1624 H1613 0.950 . S
C1624 C1622 1.391 . S
C1624 C1625 1.400 . S
C1625 C1619 1.491 . S
C1625 C1624 1.400 . S
C1625 C1626 1.398 . S
C1626 H1614 0.950 . S
C1626 C1625 1.398 . S
C1626 C1627 1.391 . S
C1627 H1615 0.950 . S
C1627 C1623 1.393 . S
C1627 C1626 1.391 . S
H1628 C1636 0.950 . S
H1629 C1641 0.950 . S
H1630 C1638 0.950 . S
H1631 C1640 0.950 . S
H1632 C1642 0.950 . S
H1633 C1644 0.950 . S
H1634 C1646 0.950 . S
H1635 C1647 0.950 . S
C1636 H1628 0.950 . S
C1636 C1637 1.386 . S
C1636 C1638 1.391 . S
C1637 C1636 1.386 . S
C1637 C1641 1.393 . S
C1638 H1630 0.950 . S
C1638 C1636 1.391 . S
C1638 C1639 1.400 . S
C1639 C1638 1.400 . S
C1639 C1640 1.398 . S
C1639 C1645 1.491 . S
C1640 H1631 0.950 . S
C1640 C1639 1.398 . S
C1640 C1641 1.391 . S
C1641 H1629 0.950 . S
C1641 C1637 1.393 . S
C1641 C1640 1.391 . S
C1642 H1632 0.950 . S
C1642 C1643 1.386 . S
C1642 C1644 1.391 . S
C1643 C1642 1.386 . S
C1643 C1647 1.393 . S
C1644 H1633 0.950 . S
C1644 C1642 1.391 . S
C1644 C1645 1.400 . S
C1645 C1639 1.491 . S
C1645 C1644 1.400 . S
C1645 C1646 1.398 . S
C1646 H1634 0.950 . S
C1646 C1645 1.398 . S
C1646 C1647 1.391 . S
C1647 H1635 0.950 . S
C1647 C1643 1.393 . S
C1647 C1646 1.391 . S
H1648 C1656 0.950 . S
H1649 C1661 0.950 . S
H1650 C1658 0.950 . S
H1651 C1660 0.950 . S
H1652 C1662 0.950 . S
H1653 C1664 0.950 . S
H1654 C1666 0.950 . S
H1655 C1667 0.950 . S
C1656 H1648 0.950 . S
C1656 C1657 1.386 . S
C1656 C1658 1.391 1_554 S
C1657 C1656 1.386 . S
C1657 C1661 1.393 . S
C1658 H1650 0.950 . S
C1658 C1656 1.391 1_556 S
C1658 C1659 1.400 . S
C1659 C1658 1.400 . S
C1659 C1660 1.398 . S
C1659 C1665 1.491 . S
C1660 H1651 0.950 . S
C1660 C1659 1.398 . S
C1660 C1661 1.391 1_556 S
C1661 H1649 0.950 . S
C1661 C1657 1.393 . S
C1661 C1660 1.391 1_554 S
C1662 H1652 0.950 . S
C1662 C1663 1.386 . S
C1662 C1664 1.391 . S
C1663 C1662 1.386 . S
C1663 C1667 1.393 . S
C1664 H1653 0.950 . S
C1664 C1662 1.391 . S
C1664 C1665 1.400 . S
C1665 C1659 1.491 . S
C1665 C1664 1.400 . S
C1665 C1666 1.398 . S
C1666 H1654 0.950 . S
C1666 C1665 1.398 . S
C1666 C1667 1.391 . S
C1667 H1655 0.950 . S
C1667 C1663 1.393 . S
C1667 C1666 1.391 . S
H1668 C1676 0.950 . S
H1669 C1681 0.950 . S
H1670 C1678 0.950 . S
H1671 C1680 0.950 . S
H1672 C1682 0.950 . S
H1673 C1684 0.950 . S
H1674 C1686 0.950 . S
H1675 C1687 0.950 . S
C1676 H1668 0.950 . S
C1676 C1677 1.386 . S
C1676 C1678 1.391 1_556 S
C1677 C1676 1.386 . S
C1677 C1681 1.393 . S
C1678 H1670 0.950 . S
C1678 C1676 1.391 1_554 S
C1678 C1679 1.400 . S
C1679 C1678 1.400 . S
C1679 C1680 1.398 . S
C1679 C1685 1.491 . S
C1680 H1671 0.950 . S
C1680 C1679 1.398 . S
C1680 C1681 1.391 1_554 S
C1681 H1669 0.950 . S
C1681 C1677 1.393 . S
C1681 C1680 1.391 1_556 S
C1682 H1672 0.950 . S
C1682 C1683 1.386 . S
C1682 C1684 1.391 . S
C1683 C1682 1.386 . S
C1683 C1687 1.393 . S
C1684 H1673 0.950 . S
C1684 C1682 1.391 . S
C1684 C1685 1.400 . S
C1685 C1679 1.491 . S
C1685 C1684 1.400 . S
C1685 C1686 1.398 . S
C1686 H1674 0.950 . S
C1686 C1685 1.398 . S
C1686 C1687 1.391 . S
C1687 H1675 0.950 . S
C1687 C1683 1.393 . S
C1687 C1686 1.391 . S
H1688 C1696 0.950 . S
H1689 C1701 0.950 . S
H1690 C1698 0.950 . S
H1691 C1700 0.950 . S
H1692 C1702 0.950 . S
H1693 C1704 0.950 . S
H1694 C1706 0.950 . S
H1695 C1707 0.950 . S
C1696 H1688 0.950 . S
C1696 C1697 1.386 . S
C1696 C1698 1.391 . S
C1697 C1696 1.386 . S
C1697 C1701 1.393 . S
C1698 H1690 0.950 . S
C1698 C1696 1.391 . S
C1698 C1699 1.400 . S
C1699 C1698 1.400 . S
C1699 C1700 1.398 . S
C1699 C1705 1.491 . S
C1700 H1691 0.950 . S
C1700 C1699 1.398 . S
C1700 C1701 1.391 . S
C1701 H1689 0.950 . S
C1701 C1697 1.393 . S
C1701 C1700 1.391 . S
C1702 H1692 0.950 . S
C1702 C1703 1.386 . S
C1702 C1704 1.391 . S
C1703 C1702 1.386 . S
C1703 C1707 1.393 . S
C1704 H1693 0.950 . S
C1704 C1702 1.391 . S
C1704 C1705 1.400 . S
C1705 C1699 1.491 . S
C1705 C1704 1.400 . S
C1705 C1706 1.398 . S
C1706 H1694 0.950 . S
C1706 C1705 1.398 . S
C1706 C1707 1.391 . S
C1707 H1695 0.950 . S
C1707 C1703 1.393 . S
C1707 C1706 1.391 . S
H1708 C1716 0.950 . S
H1709 C1721 0.950 . S
H1710 C1718 0.950 . S
H1711 C1720 0.950 . S
H1712 C1722 0.950 . S
H1713 C1724 0.950 . S
H1714 C1726 0.950 . S
H1715 C1727 0.950 . S
C1716 H1708 0.950 . S
C1716 C1717 1.386 . S
C1716 C1718 1.391 . S
C1717 C1716 1.386 . S
C1717 C1721 1.393 . S
C1718 H1710 0.950 . S
C1718 C1716 1.391 . S
C1718 C1719 1.400 . S
C1719 C1718 1.400 . S
C1719 C1720 1.398 . S
C1719 C1725 1.491 . S
C1720 H1711 0.950 . S
C1720 C1719 1.398 . S
C1720 C1721 1.391 . S
C1721 H1709 0.950 . S
C1721 C1717 1.393 . S
C1721 C1720 1.391 . S
C1722 H1712 0.950 . S
C1722 C1723 1.386 . S
C1722 C1724 1.391 . S
C1723 C1722 1.386 . S
C1723 C1727 1.393 . S
C1724 H1713 0.950 . S
C1724 C1722 1.391 . S
C1724 C1725 1.400 . S
C1725 C1719 1.491 . S
C1725 C1724 1.400 . S
C1725 C1726 1.398 . S
C1726 H1714 0.950 . S
C1726 C1725 1.398 . S
C1726 C1727 1.391 . S
C1727 H1715 0.950 . S
C1727 C1723 1.393 . S
C1727 C1726 1.391 . S
H1728 C1736 0.950 . S
H1729 C1741 0.950 . S
H1730 C1738 0.950 . S
H1731 C1740 0.950 . S
H1732 C1742 0.950 . S
H1733 C1744 0.950 . S
H1734 C1746 0.950 1_655 S
H1735 C1747 0.950 . S
C1736 H1728 0.950 . S
C1736 C1737 1.386 . S
C1736 C1738 1.391 . S
C1737 C1736 1.386 . S
C1737 C1741 1.393 1_655 S
C1738 H1730 0.950 . S
C1738 C1736 1.391 . S
C1738 C1739 1.400 1_655 S
C1739 C1738 1.400 1_455 S
C1739 C1740 1.398 . S
C1739 C1745 1.491 . S
C1740 H1731 0.950 . S
C1740 C1739 1.398 . S
C1740 C1741 1.391 . S
C1741 H1729 0.950 . S
C1741 C1737 1.393 1_455 S
C1741 C1740 1.391 . S
C1742 H1732 0.950 . S
C1742 C1743 1.386 . S
C1742 C1744 1.391 . S
C1743 C1742 1.386 . S
C1743 C1747 1.393 . S
C1744 H1733 0.950 . S
C1744 C1742 1.391 . S
C1744 C1745 1.400 . S
C1745 C1739 1.491 . S
C1745 C1744 1.400 . S
C1745 C1746 1.398 . S
C1746 H1734 0.950 1_455 S
C1746 C1745 1.398 . S
C1746 C1747 1.391 . S
C1747 H1735 0.950 . S
C1747 C1743 1.393 . S
C1747 C1746 1.391 . S
H1748 C1756 0.950 . S
H1749 C1761 0.950 . S
H1750 C1758 0.950 . S
H1751 C1760 0.950 . S
H1752 C1762 0.950 . S
H1753 C1764 0.950 . S
H1754 C1766 0.950 . S
H1755 C1767 0.950 . S
C1756 H1748 0.950 . S
C1756 C1757 1.386 . S
C1756 C1758 1.391 . S
C1757 C1756 1.386 . S
C1757 C1761 1.393 . S
C1758 H1750 0.950 . S
C1758 C1756 1.391 . S
C1758 C1759 1.400 . S
C1759 C1758 1.400 . S
C1759 C1760 1.398 . S
C1759 C1765 1.491 . S
C1760 H1751 0.950 . S
C1760 C1759 1.398 . S
C1760 C1761 1.391 . S
C1761 H1749 0.950 . S
C1761 C1757 1.393 . S
C1761 C1760 1.391 . S
C1762 H1752 0.950 . S
C1762 C1763 1.386 . S
C1762 C1764 1.391 . S
C1763 C1762 1.386 . S
C1763 C1767 1.393 . S
C1764 H1753 0.950 . S
C1764 C1762 1.391 . S
C1764 C1765 1.400 . S
C1765 C1759 1.491 . S
C1765 C1764 1.400 . S
C1765 C1766 1.398 . S
C1766 H1754 0.950 . S
C1766 C1765 1.398 . S
C1766 C1767 1.391 . S
C1767 H1755 0.950 . S
C1767 C1763 1.393 . S
C1767 C1766 1.391 . S
H1768 C1776 0.950 . S
H1769 C1781 0.950 . S
H1770 C1778 0.950 . S
H1771 C1780 0.950 . S
H1772 C1782 0.950 . S
H1773 C1784 0.950 . S
H1774 C1786 0.950 . S
H1775 C1787 0.950 . S
C1776 H1768 0.950 . S
C1776 C1777 1.386 . S
C1776 C1778 1.391 . S
C1777 C1776 1.386 . S
C1777 C1781 1.393 . S
C1778 H1770 0.950 . S
C1778 C1776 1.391 . S
C1778 C1779 1.400 . S
C1779 C1778 1.400 . S
C1779 C1780 1.398 . S
C1779 C1785 1.491 . S
C1780 H1771 0.950 . S
C1780 C1779 1.398 . S
C1780 C1781 1.391 . S
C1781 H1769 0.950 . S
C1781 C1777 1.393 . S
C1781 C1780 1.391 . S
C1782 H1772 0.950 . S
C1782 C1783 1.386 . S
C1782 C1784 1.391 . S
C1783 C1782 1.386 . S
C1783 C1787 1.393 . S
C1784 H1773 0.950 . S
C1784 C1782 1.391 . S
C1784 C1785 1.400 . S
C1785 C1779 1.491 . S
C1785 C1784 1.400 . S
C1785 C1786 1.398 . S
C1786 H1774 0.950 . S
C1786 C1785 1.398 . S
C1786 C1787 1.391 . S
C1787 H1775 0.950 . S
C1787 C1783 1.393 . S
C1787 C1786 1.391 . S
H1788 C1796 0.950 . S
H1789 C1801 0.950 . S
H1790 C1798 0.950 1_455 S
H1791 C1800 0.950 . S
H1792 C1802 0.950 . S
H1793 C1804 0.950 . S
H1794 C1806 0.950 . S
H1795 C1807 0.950 . S
C1796 H1788 0.950 . S
C1796 C1797 1.386 . S
C1796 C1798 1.391 . S
C1797 C1796 1.386 . S
C1797 C1801 1.393 . S
C1798 H1790 0.950 1_655 S
C1798 C1796 1.391 . S
C1798 C1799 1.400 . S
C1799 C1798 1.400 . S
C1799 C1800 1.398 . S
C1799 C1805 1.491 . S
C1800 H1791 0.950 . S
C1800 C1799 1.398 . S
C1800 C1801 1.391 . S
C1801 H1789 0.950 . S
C1801 C1797 1.393 . S
C1801 C1800 1.391 . S
C1802 H1792 0.950 . S
C1802 C1803 1.386 1_655 S
C1802 C1804 1.391 . S
C1803 C1802 1.386 1_455 S
C1803 C1807 1.393 . S
C1804 H1793 0.950 . S
C1804 C1802 1.391 . S
C1804 C1805 1.400 . S
C1805 C1799 1.491 . S
C1805 C1804 1.400 . S
C1805 C1806 1.398 1_655 S
C1806 H1794 0.950 . S
C1806 C1805 1.398 1_455 S
C1806 C1807 1.391 . S
C1807 H1795 0.950 . S
C1807 C1803 1.393 . S
C1807 C1806 1.391 . S
H1808 C1816 0.945 1_545 S
H1809 C1821 0.950 . S
H1810 C1818 0.950 . S
H1811 C1820 0.950 . S
H1812 C1822 0.950 . S
H1813 C1824 0.950 . S
H1814 C1826 0.950 . S
H1815 C1827 0.950 . S
C1816 H1808 0.945 1_565 S
C1816 C1817 1.408 . S
C1816 C1818 1.375 1_565 S
C1817 C1816 1.408 . S
C1817 C1821 1.393 . S
C1818 H1810 0.950 . S
C1818 C1816 1.375 1_545 S
C1818 C1819 1.400 . S
C1819 C1818 1.400 . S
C1819 C1820 1.398 1_545 S
C1819 C1825 1.491 . S
C1820 H1811 0.950 . S
C1820 C1819 1.398 1_565 S
C1820 C1821 1.391 . S
C1821 H1809 0.950 . S
C1821 C1817 1.393 . S
C1821 C1820 1.391 . S
C1822 H1812 0.950 . S
C1822 C1823 1.386 . S
C1822 C1824 1.391 . S
C1823 C1822 1.386 . S
C1823 C1827 1.393 . S
C1824 H1813 0.950 . S
C1824 C1822 1.391 . S
C1824 C1825 1.400 . S
C1825 C1819 1.491 . S
C1825 C1824 1.400 . S
C1825 C1826 1.398 . S
C1826 H1814 0.950 . S
C1826 C1825 1.398 . S
C1826 C1827 1.391 . S
C1827 H1815 0.950 . S
C1827 C1823 1.393 . S
C1827 C1826 1.391 . S
H1828 C1836 0.950 . S
H1829 C1841 0.950 . S
H1830 C1838 0.950 . S
H1831 C1840 0.950 . S
H1832 C1842 0.950 . S
H1833 C1844 0.950 . S
H1834 C1846 0.950 1_545 S
H1835 C1847 0.950 . S
C1836 H1828 0.950 . S
C1836 C1837 1.386 . S
C1836 C1838 1.391 . S
C1837 C1836 1.386 . S
C1837 C1841 1.393 1_545 S
C1838 H1830 0.950 . S
C1838 C1836 1.391 . S
C1838 C1839 1.400 1_545 S
C1839 C1838 1.400 1_565 S
C1839 C1840 1.398 . S
C1839 C1845 1.491 . S
C1840 H1831 0.950 . S
C1840 C1839 1.398 . S
C1840 C1841 1.391 . S
C1841 H1829 0.950 . S
C1841 C1837 1.393 1_565 S
C1841 C1840 1.391 . S
C1842 H1832 0.950 . S
C1842 C1843 1.386 . S
C1842 C1844 1.391 . S
C1843 C1842 1.386 . S
C1843 C1847 1.393 . S
C1844 H1833 0.950 . S
C1844 C1842 1.391 . S
C1844 C1845 1.400 . S
C1845 C1839 1.491 . S
C1845 C1844 1.400 . S
C1845 C1846 1.398 . S
C1846 H1834 0.950 1_565 S
C1846 C1845 1.398 . S
C1846 C1847 1.391 . S
C1847 H1835 0.950 . S
C1847 C1843 1.393 . S
C1847 C1846 1.391 . S
H1848 C1856 0.950 . S
H1849 C1861 0.950 . S
H1850 C1858 0.950 . S
H1851 C1860 0.950 . S
H1852 C1862 0.950 . S
H1853 C1864 0.950 . S
H1854 C1866 0.950 . S
H1855 C1867 0.950 . S
C1856 H1848 0.950 . S
C1856 C1857 1.386 . S
C1856 C1858 1.391 . S
C1857 C1856 1.386 . S
C1857 C1861 1.393 . S
C1858 H1850 0.950 . S
C1858 C1856 1.391 . S
C1858 C1859 1.400 . S
C1859 C1858 1.400 . S
C1859 C1860 1.398 . S
C1859 C1865 1.491 . S
C1860 H1851 0.950 . S
C1860 C1859 1.398 . S
C1860 C1861 1.391 . S
C1861 H1849 0.950 . S
C1861 C1857 1.393 . S
C1861 C1860 1.391 . S
C1862 H1852 0.950 . S
C1862 C1863 1.386 . S
C1862 C1864 1.391 . S
C1863 C1862 1.386 . S
C1863 C1867 1.393 . S
C1864 H1853 0.950 . S
C1864 C1862 1.391 . S
C1864 C1865 1.400 . S
C1865 C1859 1.491 . S
C1865 C1864 1.400 . S
C1865 C1866 1.398 . S
C1866 H1854 0.950 . S
C1866 C1865 1.398 . S
C1866 C1867 1.391 . S
C1867 H1855 0.950 . S
C1867 C1863 1.393 . S
C1867 C1866 1.391 . S
H1868 C1876 0.950 . S
H1869 C1881 0.950 . S
H1870 C1878 0.950 . S
H1871 C1880 0.950 . S
H1872 C1882 0.950 . S
H1873 C1884 0.950 . S
H1874 C1886 0.950 . S
H1875 C1887 0.950 . S
C1876 H1868 0.950 . S
C1876 C1877 1.386 . S
C1876 C1878 1.391 . S
C1877 C1876 1.386 . S
C1877 C1881 1.393 . S
C1878 H1870 0.950 . S
C1878 C1876 1.391 . S
C1878 C1879 1.400 . S
C1879 C1878 1.400 . S
C1879 C1880 1.398 . S
C1879 C1885 1.491 . S
C1880 H1871 0.950 . S
C1880 C1879 1.398 . S
C1880 C1881 1.391 . S
C1881 H1869 0.950 . S
C1881 C1877 1.393 . S
C1881 C1880 1.391 . S
C1882 H1872 0.950 . S
C1882 C1883 1.386 . S
C1882 C1884 1.391 . S
C1883 C1882 1.386 . S
C1883 C1887 1.393 . S
C1884 H1873 0.950 . S
C1884 C1882 1.391 . S
C1884 C1885 1.400 . S
C1885 C1879 1.491 . S
C1885 C1884 1.400 . S
C1885 C1886 1.398 . S
C1886 H1874 0.950 . S
C1886 C1885 1.398 . S
C1886 C1887 1.391 . S
C1887 H1875 0.950 . S
C1887 C1883 1.393 . S
C1887 C1886 1.391 . S
H1888 C1896 0.950 . S
H1889 C1901 0.950 . S
H1890 C1898 0.950 . S
H1891 C1900 0.950 . S
H1892 C1902 0.950 . S
H1893 C1904 0.950 . S
H1894 C1906 0.950 . S
H1895 C1907 0.950 . S
C1896 H1888 0.950 . S
C1896 C1897 1.386 . S
C1896 C1898 1.391 1_556 S
C1897 C1896 1.386 . S
C1897 C1901 1.393 . S
C1898 H1890 0.950 . S
C1898 C1896 1.391 1_554 S
C1898 C1899 1.400 . S
C1899 C1898 1.400 . S
C1899 C1900 1.398 . S
C1899 C1905 1.491 . S
C1900 H1891 0.950 . S
C1900 C1899 1.398 . S
C1900 C1901 1.391 1_554 S
C1901 H1889 0.950 . S
C1901 C1897 1.393 . S
C1901 C1900 1.391 1_556 S
C1902 H1892 0.950 . S
C1902 C1903 1.386 . S
C1902 C1904 1.391 . S
C1903 C1902 1.386 . S
C1903 C1907 1.393 . S
C1904 H1893 0.950 . S
C1904 C1902 1.391 . S
C1904 C1905 1.400 . S
C1905 C1899 1.491 . S
C1905 C1904 1.400 . S
C1905 C1906 1.398 . S
C1906 H1894 0.950 . S
C1906 C1905 1.398 . S
C1906 C1907 1.391 . S
C1907 H1895 0.950 . S
C1907 C1903 1.393 . S
C1907 C1906 1.391 . S
H1908 C1916 0.950 . S
H1909 C1921 0.950 . S
H1910 C1918 0.950 . S
H1911 C1920 0.950 1_554 S
H1912 C1922 0.950 . S
H1913 C1924 0.950 . S
H1914 C1926 0.950 . S
H1915 C1927 0.950 . S
C1916 H1908 0.950 . S
C1916 C1917 1.386 . S
C1916 C1918 1.391 . S
C1917 C1916 1.386 . S
C1917 C1921 1.393 . S
C1918 H1910 0.950 . S
C1918 C1916 1.391 . S
C1918 C1919 1.400 . S
C1919 C1918 1.400 . S
C1919 C1920 1.398 . S
C1919 C1925 1.491 . S
C1920 H1911 0.950 1_556 S
C1920 C1919 1.398 . S
C1920 C1921 1.391 . S
C1921 H1909 0.950 . S
C1921 C1917 1.393 . S
C1921 C1920 1.391 . S
C1922 H1912 0.950 . S
C1922 C1923 1.386 . S
C1922 C1924 1.391 . S
C1923 C1922 1.386 . S
C1923 C1927 1.393 1_554 S
C1924 H1913 0.950 . S
C1924 C1922 1.391 . S
C1924 C1925 1.400 1_554 S
C1925 C1919 1.491 . S
C1925 C1924 1.400 1_556 S
C1925 C1926 1.398 . S
C1926 H1914 0.950 . S
C1926 C1925 1.398 . S
C1926 C1927 1.391 . S
C1927 H1915 0.950 . S
C1927 C1923 1.393 1_556 S
C1927 C1926 1.391 . S
H1928 C1936 0.950 . S
H1929 C1941 0.950 . S
H1930 C1938 0.950 . S
H1931 C1940 0.950 . S
H1932 C1942 0.950 . S
H1933 C1944 0.950 . S
H1934 C1946 0.950 . S
H1935 C1947 0.950 . S
C1936 H1928 0.950 . S
C1936 C1937 1.386 . S
C1936 C1938 1.391 . S
C1937 C1936 1.386 . S
C1937 C1941 1.393 . S
C1938 H1930 0.950 . S
C1938 C1936 1.391 . S
C1938 C1939 1.400 . S
C1939 C1938 1.400 . S
C1939 C1940 1.398 . S
C1939 C1945 1.491 . S
C1940 H1931 0.950 . S
C1940 C1939 1.398 . S
C1940 C1941 1.391 . S
C1941 H1929 0.950 . S
C1941 C1937 1.393 . S
C1941 C1940 1.391 . S
C1942 H1932 0.950 . S
C1942 C1943 1.386 . S
C1942 C1944 1.391 . S
C1943 C1942 1.386 . S
C1943 C1947 1.393 . S
C1944 H1933 0.950 . S
C1944 C1942 1.391 . S
C1944 C1945 1.400 . S
C1945 C1939 1.491 . S
C1945 C1944 1.400 . S
C1945 C1946 1.398 . S
C1946 H1934 0.950 . S
C1946 C1945 1.398 . S
C1946 C1947 1.391 . S
C1947 H1935 0.950 . S
C1947 C1943 1.393 . S
C1947 C1946 1.391 . S
H1948 C1956 0.950 . S
H1949 C1961 0.950 . S
H1950 C1958 0.950 . S
H1951 C1960 0.950 . S
H1952 C1962 0.950 . S
H1953 C1964 0.950 . S
H1954 C1966 0.950 . S
H1955 C1967 0.950 . S
C1956 H1948 0.950 . S
C1956 C1957 1.386 . S
C1956 C1958 1.391 . S
C1957 C1956 1.386 . S
C1957 C1961 1.393 . S
C1958 H1950 0.950 . S
C1958 C1956 1.391 . S
C1958 C1959 1.400 . S
C1959 C1958 1.400 . S
C1959 C1960 1.398 . S
C1959 C1965 1.491 . S
C1960 H1951 0.950 . S
C1960 C1959 1.398 . S
C1960 C1961 1.391 . S
C1961 H1949 0.950 . S
C1961 C1957 1.393 . S
C1961 C1960 1.391 . S
C1962 H1952 0.950 . S
C1962 C1963 1.386 . S
C1962 C1964 1.391 . S
C1963 C1962 1.386 . S
C1963 C1967 1.393 . S
C1964 H1953 0.950 . S
C1964 C1962 1.391 . S
C1964 C1965 1.400 . S
C1965 C1959 1.491 . S
C1965 C1964 1.400 . S
C1965 C1966 1.398 . S
C1966 H1954 0.950 . S
C1966 C1965 1.398 . S
C1966 C1967 1.391 . S
C1967 H1955 0.950 . S
C1967 C1963 1.393 . S
C1967 C1966 1.391 . S
C537 C6 1.176 . S
C543 C402 1.190 . S
C557 C424 1.193 . S
C563 C29 1.187 . S
C577 C51 1.169 . S
C583 C359 1.198 . S
C597 C72 1.186 . S
C603 C380 1.188 . S
C617 C490 1.194 . S
C623 C94 1.184 . S
C637 C116 1.170 . S
C643 C468 1.198 . S
C657 C513 1.188 . S
C663 C138 1.185 . S
C677 C161 1.172 . S
C683 C447 1.198 . S
C697 C183 1.189 . S
C703 C293 1.188 . S
C717 C204 1.169 . S
C723 C336 1.198 . S
C737 C315 1.197 . S
C743 C226 1.177 . S
C757 C249 1.177 . S
C763 C270 1.197 . S
C777 C273 1.189 . S
C783 C141 1.191 . S
C797 C291 1.180 . S
C803 C159 1.196 . S
C817 C313 1.169 . S
C823 C97 1.198 . S
C837 C119 1.188 . S
C843 C339 1.189 . S
C857 C357 1.178 . S
C863 C229 1.190 . S
C877 C207 1.197 . S
C883 C383 1.175 . S
C897 C247 1.198 . S
C903 C405 1.174 . S
C917 C181 1.190 . S
C923 C427 1.189 . S
C937 C27 1.188 . S
C943 C445 1.185 . S
C957 C75 1.194 . S
C963 C471 1.184 . S
C977 C49 1.188 . S
C983 C493 1.185 . S
C997 C511 1.169 . S
C1003 C9 1.198 . S
C1017 C426 1.184 1_554 S
C1023 C5 1.186 . S
C1037 C404 1.201 . S
C1043 C31 1.163 . S
C1057 C53 1.159 . S
C1063 C382 1.180 1_556 S
C1077 C356 1.176 . S
C1083 C71 1.164 . S
C1097 C93 1.152 . S
C1103 C510 1.189 1_455 S
C1117 C115 1.156 . S
C1123 C444 1.183 . S
C1137 C492 1.195 . S
C1143 C137 1.151 . S
C1157 C163 1.152 . S
C1163 C470 1.189 1_655 S
C1177 C312 1.201 1_545 S
C1183 C185 1.161 . S
C1197 C272 1.194 . S
C1203 C203 1.178 . S
C1217 C290 1.201 . S
C1223 C225 1.162 . S
C1237 C338 1.173 1_565 S
C1243 C251 1.183 . S
C1257 C271 1.163 . S
C1263 C162 1.201 1_556 S
C1277 C292 1.186 . S
C1283 C136 1.176 . S
C1297 C114 1.173 1_554 S
C1303 C314 1.181 . S
C1317 C92 1.184 . S
C1323 C337 1.155 . S
C1337 C250 1.199 1_655 S
C1343 C358 1.153 . S
C1357 C381 1.180 . S
C1363 C184 1.172 . S
C1377 C224 1.199 . S
C1383 C403 1.171 . S
C1397 C202 1.174 1_455 S
C1403 C425 1.169 . S
C1417 C446 1.178 . S
C1423 C52 1.195 1_565 S
C1437 C469 1.171 . S
C1443 C4 1.199 . S
C1457 C30 1.175 . S
C1463 C491 1.185 . S
C1477 C70 1.179 1_545 S
C1483 C512 1.187 . S
C1497 C7 1.018 . S
C1503 C206 1.029 . S
C1517 C228 1.023 . S
C1523 C28 1.008 . S
C1537 C180 1.034 . S
C1543 C50 1.011 . S
C1557 C246 1.038 . S
C1563 C73 1.005 . S
C1577 C95 1.010 . S
C1583 C74 1.035 . S
C1597 C48 1.035 . S
C1603 C117 1.010 . S
C1617 C139 1.006 . S
C1623 C26 1.025 . S
C1637 C8 0.996 . S
C1643 C160 1.037 . S
C1657 C182 1.028 . S
C1663 C118 1.003 . S
C1677 C205 1.028 . S
C1683 C158 1.003 . S
C1697 C227 1.024 . S
C1703 C140 1.023 . S
C1717 C248 1.005 . S
C1723 C96 1.027 . S
C1737 C269 1.013 . S
C1743 C466 1.017 . S
C1757 C295 1.041 . S
C1763 C488 0.996 . S
C1777 C448 1.030 . S
C1783 C317 1.017 . S
C1797 C514 1.033 . S
C1803 C335 1.001 . S
C1817 C361 1.019 . S
C1823 C334 1.027 . S
C1837 C379 1.016 . S
C1843 C316 1.014 . S
C1857 C294 1.029 . S
C1863 C401 1.018 . S
C1877 C423 1.000 . S
C1883 C268 1.036 . S
C1897 C449 1.034 . S
C1903 C378 0.998 . S
C1917 C422 1.012 . S
C1923 C467 1.034 . S
C1937 C489 1.010 . S
C1943 C400 1.021 . S
C1957 C515 1.035 . S
C1963 C360 0.998 . S
