# Generated by pormake.
# Topology umo, (4)-cn, num edge types: 1
# Building blocks:
#     Node 0, Type 0, BuildingBlock: KOZSID_clean_sbu_0, # of connection points: 4
#     Node 1, Type 0, BuildingBlock: KOZSID_clean_sbu_0, # of connection points: 4
#     Node 2, Type 0, BuildingBlock: KOZSID_clean_sbu_0, # of connection points: 4
#     Node 3, Type 0, BuildingBlock: KOZSID_clean_sbu_0, # of connection points: 4
#     Node 4, Type 0, BuildingBlock: KOZSID_clean_sbu_0, # of connection points: 4
#     Node 5, Type 0, BuildingBlock: KOZSID_clean_sbu_0, # of connection points: 4
#     Node 6, Type 0, BuildingBlock: KOZSID_clean_sbu_0, # of connection points: 4
#     Node 7, Type 0, BuildingBlock: KOZSID_clean_sbu_0, # of connection points: 4
#     Node 8, Type 0, BuildingBlock: KOZSID_clean_sbu_0, # of connection points: 4
#     Node 9, Type 0, BuildingBlock: KOZSID_clean_sbu_0, # of connection points: 4
#     Node 10, Type 0, BuildingBlock: KOZSID_clean_sbu_0, # of connection points: 4
#     Node 11, Type 0, BuildingBlock: KOZSID_clean_sbu_0, # of connection points: 4
#     Edge 12, Type (0, 0), BuildingBlock: XIVTED_clean_linker_0, # of connection points: 2
#     Edge 13, Type (0, 0), BuildingBlock: XIVTED_clean_linker_0, # of connection points: 2
#     Edge 14, Type (0, 0), BuildingBlock: XIVTED_clean_linker_0, # of connection points: 2
#     Edge 15, Type (0, 0), BuildingBlock: XIVTED_clean_linker_0, # of connection points: 2
#     Edge 16, Type (0, 0), BuildingBlock: XIVTED_clean_linker_0, # of connection points: 2
#     Edge 17, Type (0, 0), BuildingBlock: XIVTED_clean_linker_0, # of connection points: 2
#     Edge 18, Type (0, 0), BuildingBlock: XIVTED_clean_linker_0, # of connection points: 2
#     Edge 19, Type (0, 0), BuildingBlock: XIVTED_clean_linker_0, # of connection points: 2
#     Edge 20, Type (0, 0), BuildingBlock: XIVTED_clean_linker_0, # of connection points: 2
#     Edge 21, Type (0, 0), BuildingBlock: XIVTED_clean_linker_0, # of connection points: 2
#     Edge 22, Type (0, 0), BuildingBlock: XIVTED_clean_linker_0, # of connection points: 2
#     Edge 23, Type (0, 0), BuildingBlock: XIVTED_clean_linker_0, # of connection points: 2
#     Edge 24, Type (0, 0), BuildingBlock: XIVTED_clean_linker_0, # of connection points: 2
#     Edge 25, Type (0, 0), BuildingBlock: XIVTED_clean_linker_0, # of connection points: 2
#     Edge 26, Type (0, 0), BuildingBlock: XIVTED_clean_linker_0, # of connection points: 2
#     Edge 27, Type (0, 0), BuildingBlock: XIVTED_clean_linker_0, # of connection points: 2
#     Edge 28, Type (0, 0), BuildingBlock: XIVTED_clean_linker_0, # of connection points: 2
#     Edge 29, Type (0, 0), BuildingBlock: XIVTED_clean_linker_0, # of connection points: 2
#     Edge 30, Type (0, 0), BuildingBlock: XIVTED_clean_linker_0, # of connection points: 2
#     Edge 31, Type (0, 0), BuildingBlock: XIVTED_clean_linker_0, # of connection points: 2
#     Edge 32, Type (0, 0), BuildingBlock: XIVTED_clean_linker_0, # of connection points: 2
#     Edge 33, Type (0, 0), BuildingBlock: XIVTED_clean_linker_0, # of connection points: 2
#     Edge 34, Type (0, 0), BuildingBlock: XIVTED_clean_linker_0, # of connection points: 2
#     Edge 35, Type (0, 0), BuildingBlock: XIVTED_clean_linker_0, # of connection points: 2
# Relax obj value: 0.199
# Max RMSD: 0.248
# Mean RMSD: 0.248
data_MOF--net-umo--node1-KOZSID_clean_sbu_0--edge1-XIVTED_clean_linker_0
_symmetry_space_group_name_H-M    P1
_symmetry_Int_Tables_number       1
_symmetry_cell_setting            triclinic
loop_
_symmetry_equiv_pos_as_xyz
'x, y, z'
_cell_length_a     64.925804
_cell_length_b     64.989223
_cell_length_c     39.130538
_cell_angle_alpha  89.957711
_cell_angle_beta   90.048643
_cell_angle_gamma 120.00399
loop_
_atom_site_label
_atom_site_type_symbol
_atom_site_fract_x
_atom_site_fract_y
_atom_site_fract_z
_atom_type_partial_charge
C0 C 0.20111 0.51761 0.34837 0.0
C1 C 0.2049 0.49841 0.35066 0.0
C2 C 0.19336 0.48604 0.37959 0.0
C3 C 0.1834 0.49841 0.39358 0.0
N4 N 0.18802 0.51771 0.37511 0.0
Co5 Co 0.17871 0.54145 0.38686 0.0
N6 N 0.17498 0.53225 0.43547 0.0
C7 C 0.17141 0.51142 0.44795 0.0
C8 C 0.16898 0.50999 0.48286 0.0
C9 C 0.17102 0.53119 0.49275 0.0
C10 C 0.17462 0.54441 0.46316 0.0
N11 N 0.16936 0.56519 0.39865 0.0
C12 C 0.16947 0.57466 0.4295 0.0
C13 C 0.16144 0.59076 0.42657 0.0
C14 C 0.15601 0.59108 0.39259 0.0
C15 C 0.16101 0.57522 0.37668 0.0
N16 N 0.18244 0.55031 0.33811 0.0
C17 C 0.17275 0.56169 0.32198 0.0
C18 C 0.17982 0.56635 0.28833 0.0
C19 C 0.19484 0.55735 0.28341 0.0
C20 C 0.19615 0.54775 0.31441 0.0
N21 N 0.14498 0.51778 0.37885 0.0
C22 C 0.09617 0.48707 0.36496 0.0
C23 C 0.1037 0.50145 0.39428 0.0
C24 C 0.12795 0.51641 0.40081 0.0
C25 C 0.11392 0.48812 0.34317 0.0
C26 C 0.1381 0.50353 0.35053 0.0
N27 N 0.21217 0.56546 0.39456 0.0
C28 C 0.24465 0.60497 0.38372 0.0
C29 C 0.26001 0.60063 0.40355 0.0
C30 C 0.25083 0.57827 0.41914 0.0
C31 C 0.2269 0.56082 0.41404 0.0
C32 C 0.22092 0.58737 0.37986 0.0
H33 H 0.22027 0.54361 0.42576 0.0
H34 H 0.20964 0.5916 0.36484 0.0
H35 H 0.13287 0.52736 0.42339 0.0
H36 H 0.15125 0.5042 0.33297 0.0
C37 C 0.1748 0.49582 0.42708 0.0
C38 C 0.20945 0.53528 0.32063 0.0
C39 C 0.17568 0.56748 0.46181 0.0
C40 C 0.16226 0.57242 0.34112 0.0
H41 H 0.21523 0.49386 0.33391 0.0
H42 H 0.19362 0.47081 0.3903 0.0
H43 H 0.16692 0.49568 0.49931 0.0
H44 H 0.16979 0.53622 0.5187 0.0
H45 H 0.15965 0.60111 0.4468 0.0
H46 H 0.15006 0.60227 0.38079 0.0
H47 H 0.17577 0.57638 0.27013 0.0
H48 H 0.20396 0.55797 0.25995 0.0
H49 H 0.09098 0.50177 0.41181 0.0
H50 H 0.10927 0.47715 0.32051 0.0
H51 H 0.25081 0.62209 0.37173 0.0
H52 H 0.26212 0.57419 0.43475 0.0
C53 C 0.68562 0.1989 0.50402 0.0
C54 C 0.70866 0.20316 0.50026 0.0
C55 C 0.71293 0.19262 0.5278 0.0
C56 C 0.69227 0.18255 0.54664 0.0
N57 N 0.67546 0.18609 0.53239 0.0
Co58 Co 0.64341 0.17533 0.55033 0.0
N59 N 0.65364 0.17334 0.59707 0.0
C60 C 0.67276 0.1715 0.6055 0.0
C61 C 0.67504 0.17009 0.6402 0.0
C62 C 0.6561 0.17094 0.65423 0.0
C63 C 0.64328 0.17285 0.62718 0.0
N64 N 0.61113 0.16409 0.5683 0.0
C65 C 0.60412 0.16397 0.60089 0.0
C66 C 0.57965 0.1543 0.60245 0.0
C67 C 0.57125 0.14805 0.56954 0.0
C68 C 0.59099 0.15423 0.54971 0.0
N69 N 0.63376 0.1778 0.50333 0.0
C70 C 0.61145 0.16697 0.49104 0.0
C71 C 0.6106 0.17424 0.45826 0.0
C72 C 0.63379 0.19062 0.44984 0.0
C73 C 0.64756 0.19237 0.47797 0.0
N74 N 0.63452 0.14194 0.54206 0.0
C75 C 0.61469 0.09294 0.528 0.0
C76 C 0.62789 0.1103 0.50316 0.0
C77 C 0.63784 0.1346 0.51079 0.0
C78 C 0.61301 0.10103 0.56058 0.0
C79 C 0.62274 0.12532 0.56692 0.0
N80 N 0.65137 0.20833 0.55844 0.0
C81 C 0.63916 0.23762 0.55436 0.0
C82 C 0.66 0.25463 0.57052 0.0
C83 C 0.67695 0.24816 0.57962 0.0
C84 C 0.67223 0.2248 0.57347 0.0
C85 C 0.6352 0.21482 0.54874 0.0
H86 H 0.68524 0.21997 0.5811 0.0
H87 H 0.61876 0.20235 0.5366 0.0
H88 H 0.64743 0.14744 0.49097 0.0
H89 H 0.61991 0.13051 0.59184 0.0
C90 C 0.68991 0.17501 0.58077 0.0
C91 C 0.67364 0.2071 0.48061 0.0
C92 C 0.62026 0.1718 0.63053 0.0
C93 C 0.59205 0.15542 0.51368 0.0
H94 H 0.72113 0.2132 0.48016 0.0
H95 H 0.72959 0.1936 0.53438 0.0
H96 H 0.68917 0.1693 0.65377 0.0
H97 H 0.652 0.16992 0.6812 0.0
H98 H 0.56901 0.15204 0.62492 0.0
H99 H 0.55307 0.14086 0.56099 0.0
H100 H 0.59489 0.16956 0.44316 0.0
H101 H 0.63964 0.20037 0.4261 0.0
H102 H 0.62988 0.10528 0.47755 0.0
H103 H 0.60387 0.08872 0.58124 0.0
H104 H 0.62577 0.24184 0.54611 0.0
H105 H 0.69336 0.26077 0.59212 0.0
C106 C 0.49386 0.68414 0.67393 0.0
C107 C 0.51271 0.70724 0.67157 0.0
C108 C 0.52697 0.71076 0.69955 0.0
C109 C 0.51604 0.68963 0.71725 0.0
N110 N 0.49597 0.67324 0.70189 0.0
Co111 Co 0.4744 0.64074 0.71803 0.0
N112 N 0.48583 0.64963 0.76532 0.0
C113 C 0.50677 0.66834 0.77485 0.0
C114 C 0.50996 0.66958 0.80966 0.0
C115 C 0.48983 0.6504 0.82257 0.0
C116 C 0.47541 0.63853 0.79479 0.0
N117 N 0.45284 0.60808 0.73433 0.0
C118 C 0.44504 0.6004 0.76645 0.0
C119 C 0.42978 0.576 0.76671 0.0
C120 C 0.42837 0.56834 0.73351 0.0
C121 C 0.44274 0.58842 0.71479 0.0
N122 N 0.46329 0.63228 0.6704 0.0
C123 C 0.45209 0.61028 0.65708 0.0
C124 C 0.44475 0.61018 0.62404 0.0
C125 C 0.45179 0.63352 0.61652 0.0
C126 C 0.46321 0.64666 0.6454 0.0
N127 N 0.49908 0.6321 0.70973 0.0
C128 C 0.52907 0.61362 0.69448 0.0
C129 C 0.52695 0.62924 0.67187 0.0
C130 C 0.51176 0.63816 0.67986 0.0
C131 C 0.51678 0.60847 0.72556 0.0
C132 C 0.5022 0.61806 0.73283 0.0
N133 N 0.44926 0.64858 0.72607 0.0
C134 C 0.40802 0.63704 0.71985 0.0
C135 C 0.41152 0.6573 0.73742 0.0
C136 C 0.43471 0.67361 0.74841 0.0
C137 C 0.45337 0.66888 0.74254 0.0
C138 C 0.42686 0.63299 0.71471 0.0
H139 H 0.47102 0.68143 0.75149 0.0
H140 H 0.42312 0.61699 0.70149 0.0
H141 H 0.50965 0.64932 0.66137 0.0
H142 H 0.49276 0.61335 0.75679 0.0
C143 C 0.52076 0.68622 0.75118 0.0
C144 C 0.47442 0.67266 0.64916 0.0
C145 C 0.45298 0.61585 0.79683 0.0
C146 C 0.44354 0.59036 0.67884 0.0
H147 H 0.51562 0.72019 0.65199 0.0
H148 H 0.54259 0.72718 0.70708 0.0
H149 H 0.52472 0.68322 0.82405 0.0
H150 H 0.48628 0.64557 0.84928 0.0
H151 H 0.4206 0.5649 0.78847 0.0
H152 H 0.4173 0.55045 0.72401 0.0
H153 H 0.434 0.59484 0.60817 0.0
H154 H 0.44832 0.63983 0.59287 0.0
H155 H 0.53614 0.63372 0.64756 0.0
H156 H 0.51818 0.59681 0.74404 0.0
H157 H 0.39068 0.6242 0.70999 0.0
H158 H 0.4383 0.68956 0.76205 0.0
C159 C 0.81583 0.49298 0.84931 0.0
C160 C 0.81166 0.51194 0.85158 0.0
C161 C 0.82284 0.52419 0.88076 0.0
C162 C 0.83297 0.51201 0.89485 0.0
N163 N 0.82881 0.49292 0.87625 0.0
Co164 Co 0.83868 0.46958 0.8879 0.0
N165 N 0.84204 0.47851 0.93659 0.0
C166 C 0.84513 0.49912 0.94922 0.0
C167 C 0.84751 0.50046 0.98414 0.0
C168 C 0.84595 0.47944 0.99389 0.0
C169 C 0.84265 0.46639 0.96422 0.0
N170 N 0.84864 0.44626 0.89961 0.0
C171 C 0.84869 0.43677 0.93041 0.0
C172 C 0.85715 0.42103 0.9274 0.0
C173 C 0.86275 0.421 0.89346 0.0
C174 C 0.85739 0.43665 0.87763 0.0
N175 N 0.83532 0.46098 0.83906 0.0
C176 C 0.84544 0.45003 0.82294 0.0
C177 C 0.83868 0.44557 0.78916 0.0
C178 C 0.8234 0.45425 0.7841 0.0
C179 C 0.82164 0.46347 0.81518 0.0
N180 N 0.87226 0.49375 0.88022 0.0
C181 C 0.92095 0.5247 0.86612 0.0
C182 C 0.90309 0.52352 0.84442 0.0
C183 C 0.87897 0.508 0.85188 0.0
C184 C 0.91361 0.51045 0.89559 0.0
C185 C 0.8894 0.49535 0.90222 0.0
N186 N 0.80537 0.44506 0.89518 0.0
C187 C 0.77346 0.40541 0.88355 0.0
C188 C 0.75761 0.40934 0.90278 0.0
C189 C 0.76628 0.43155 0.91865 0.0
C190 C 0.7902 0.44927 0.91426 0.0
C191 C 0.79712 0.42328 0.88035 0.0
H192 H 0.79644 0.46638 0.92613 0.0
H193 H 0.80876 0.41939 0.86564 0.0
H194 H 0.86573 0.50717 0.83433 0.0
H195 H 0.8846 0.48443 0.92483 0.0
C196 C 0.84145 0.51458 0.92844 0.0
C197 C 0.808 0.4756 0.82129 0.0
C198 C 0.84219 0.44361 0.96276 0.0
C199 C 0.85621 0.43956 0.84209 0.0
H200 H 0.80136 0.51638 0.83455 0.0
H201 H 0.82226 0.53924 0.89149 0.0
H202 H 0.84926 0.51459 0.00067 0.0
H203 H 0.84733 0.47442 0.01981 0.0
H204 H 0.85913 0.41074 0.94755 0.0
H205 H 0.86906 0.41014 0.88161 0.0
H206 H 0.84314 0.4359 0.7709 0.0
H207 H 0.81443 0.45369 0.7605 0.0
H208 H 0.90761 0.53442 0.82169 0.0
H209 H 0.92644 0.51028 0.91309 0.0
H210 H 0.76771 0.38841 0.8714 0.0
H211 H 0.75461 0.43531 0.93383 0.0
C212 C 0.33093 0.81143 0.00704 0.0
C213 C 0.30773 0.80702 0.00524 0.0
C214 C 0.30445 0.81779 0.03333 0.0
C215 C 0.3258 0.82818 0.05052 0.0
N216 N 0.34211 0.8246 0.03475 0.0
Co217 Co 0.3749 0.8359 0.05006 0.0
N218 N 0.36653 0.83859 0.0976 0.0
C219 C 0.34775 0.84054 0.10762 0.0
C220 C 0.34687 0.84257 0.14246 0.0
C221 C 0.36638 0.84199 0.15488 0.0
C222 C 0.37809 0.83959 0.12679 0.0
N223 N 0.40786 0.84746 0.06547 0.0
C224 C 0.41608 0.84786 0.0974 0.0
C225 C 0.44057 0.85746 0.09703 0.0
C226 C 0.44772 0.86342 0.06359 0.0
C227 C 0.42728 0.85712 0.0454 0.0
N228 N 0.38282 0.833 0.00224 0.0
C229 C 0.40467 0.84386 0.98834 0.0
C230 C 0.40441 0.83642 0.95534 0.0
C231 C 0.38101 0.81993 0.94845 0.0
C232 C 0.36817 0.81831 0.97763 0.0
N233 N 0.38313 0.86903 0.04143 0.0
C234 C 0.4006 0.91743 0.02591 0.0
C235 C 0.38545 0.89934 0.00322 0.0
C236 C 0.37694 0.87536 0.01143 0.0
C237 C 0.40589 0.91045 0.05714 0.0
C238 C 0.39693 0.88637 0.06444 0.0
N239 N 0.36742 0.8031 0.05839 0.0
C240 C 0.3793 0.77368 0.05248 0.0
C241 C 0.3591 0.75689 0.07013 0.0
C242 C 0.34263 0.76356 0.08101 0.0
C243 C 0.34719 0.78685 0.07499 0.0
C244 C 0.38313 0.79645 0.04704 0.0
H245 H 0.33456 0.79183 0.08394 0.0
H246 H 0.39906 0.80877 0.03365 0.0
H247 H 0.36586 0.86194 0.99309 0.0
H248 H 0.40195 0.88187 0.08835 0.0
C249 C 0.32954 0.83639 0.0844 0.0
C250 C 0.34221 0.80345 0.982 0.0
C251 C 0.4011 0.84046 0.12825 0.0
C252 C 0.42486 0.85563 0.00952 0.0
H253 H 0.29456 0.79683 0.98597 0.0
H254 H 0.28805 0.81687 0.04128 0.0
H255 H 0.33327 0.84352 0.1572 0.0
H256 H 0.37153 0.84345 0.18147 0.0
H257 H 0.45204 0.85988 0.11855 0.0
H258 H 0.46554 0.87048 0.05362 0.0
H259 H 0.4196 0.84106 0.93907 0.0
H260 H 0.37446 0.80999 0.92498 0.0
H261 H 0.38031 0.90358 0.97908 0.0
H262 H 0.41765 0.92347 0.07553 0.0
H263 H 0.39227 0.76929 0.04284 0.0
H264 H 0.32674 0.75113 0.09473 0.0
C265 C 0.5211 0.32372 0.17851 0.0
C266 C 0.5029 0.30015 0.17865 0.0
C267 C 0.4894 0.29723 0.20717 0.0
C268 C 0.50014 0.31898 0.22302 0.0
N269 N 0.51951 0.33528 0.20612 0.0
Co270 Co 0.541 0.36836 0.2205 0.0
N271 N 0.53056 0.36055 0.26842 0.0
C272 C 0.51008 0.34182 0.27924 0.0
C273 C 0.50757 0.34138 0.31412 0.0
C274 C 0.52767 0.36115 0.32577 0.0
C275 C 0.54137 0.37254 0.2972 0.0
N276 N 0.56228 0.40154 0.23495 0.0
C277 C 0.5704 0.41021 0.26661 0.0
C278 C 0.58505 0.4347 0.26555 0.0
C279 C 0.58581 0.44139 0.23195 0.0
C280 C 0.57165 0.42069 0.21436 0.0
N281 N 0.55133 0.37579 0.17245 0.0
C282 C 0.56182 0.39743 0.15791 0.0
C283 C 0.56781 0.39675 0.12434 0.0
C284 C 0.56059 0.37326 0.11773 0.0
C285 C 0.55066 0.36092 0.14774 0.0
N286 N 0.51575 0.37617 0.21197 0.0
C287 C 0.48503 0.3937 0.19602 0.0
C288 C 0.48869 0.37937 0.17284 0.0
C289 C 0.5038 0.3705 0.18148 0.0
C290 C 0.49625 0.39811 0.22794 0.0
C291 C 0.51159 0.38938 0.23529 0.0
N292 N 0.5667 0.36131 0.22861 0.0
C293 C 0.60793 0.37317 0.22101 0.0
C294 C 0.60501 0.3533 0.23915 0.0
C295 C 0.58212 0.33708 0.25128 0.0
C296 C 0.56318 0.34145 0.24579 0.0
C297 C 0.58882 0.37689 0.21631 0.0
H298 H 0.54577 0.32892 0.25554 0.0
H299 H 0.59209 0.39258 0.20255 0.0
H300 H 0.50646 0.35974 0.16298 0.0
H301 H 0.52079 0.39414 0.25946 0.0
C302 C 0.49604 0.3232 0.25678 0.0
C303 C 0.5394 0.33504 0.15192 0.0
C304 C 0.56338 0.39563 0.29784 0.0
C305 C 0.57032 0.41786 0.17853 0.0
H306 H 0.49977 0.28629 0.16064 0.0
H307 H 0.47449 0.28081 0.21635 0.0
H308 H 0.4933 0.32789 0.32938 0.0
H309 H 0.53163 0.36667 0.35219 0.0
H310 H 0.59424 0.44645 0.28673 0.0
H311 H 0.59628 0.45909 0.22148 0.0
H312 H 0.57746 0.41167 0.10726 0.0
H313 H 0.56252 0.36605 0.0938 0.0
H314 H 0.48013 0.37522 0.14804 0.0
H315 H 0.49406 0.40917 0.2466 0.0
H316 H 0.62498 0.38593 0.21026 0.0
H317 H 0.57896 0.32145 0.26545 0.0
C318 C 0.4918 0.81185 0.49447 0.0
C319 C 0.51117 0.80843 0.49744 0.0
C320 C 0.52561 0.81963 0.46983 0.0
C321 C 0.51428 0.82927 0.45175 0.0
N322 N 0.49378 0.82482 0.46652 0.0
Co323 Co 0.47156 0.83477 0.44966 0.0
N324 N 0.4837 0.83792 0.40264 0.0
C325 C 0.50499 0.84075 0.3937 0.0
C326 C 0.50857 0.84284 0.35898 0.0
C327 C 0.48834 0.84139 0.34548 0.0
C328 C 0.4735 0.83846 0.37284 0.0
N329 N 0.44948 0.84504 0.43276 0.0
C330 C 0.44225 0.84528 0.40039 0.0
C331 C 0.42665 0.85402 0.39967 0.0
C332 C 0.42435 0.85958 0.43288 0.0
C333 C 0.4386 0.85393 0.45203 0.0
N334 N 0.45961 0.83133 0.49694 0.0
C335 C 0.44751 0.84129 0.50993 0.0
C336 C 0.43981 0.83362 0.54271 0.0
C337 C 0.44756 0.8179 0.55043 0.0
C338 C 0.45974 0.81695 0.52193 0.0
N339 N 0.49537 0.86829 0.45865 0.0
C340 C 0.52571 0.91684 0.47341 0.0
C341 C 0.52169 0.89921 0.49755 0.0
C342 C 0.50673 0.8751 0.48955 0.0
C343 C 0.51473 0.9095 0.44141 0.0
C344 C 0.49959 0.88531 0.43465 0.0
N345 N 0.44741 0.80153 0.44096 0.0
C346 C 0.40705 0.76979 0.44839 0.0
C347 C 0.41226 0.75369 0.43242 0.0
C348 C 0.43544 0.76216 0.42011 0.0
C349 C 0.45285 0.78614 0.42491 0.0
C350 C 0.42468 0.79349 0.45206 0.0
H351 H 0.47071 0.79222 0.41597 0.0
H352 H 0.41985 0.8053 0.46432 0.0
H353 H 0.50391 0.86196 0.50868 0.0
H354 H 0.49079 0.88048 0.41019 0.0
C355 C 0.51911 0.83742 0.41785 0.0
C356 C 0.47192 0.80304 0.51858 0.0
C357 C 0.45097 0.83852 0.37013 0.0
C358 C 0.43879 0.85239 0.48797 0.0
H359 H 0.51427 0.79859 0.51712 0.0
H360 H 0.54163 0.81946 0.46274 0.0
H361 H 0.52369 0.84443 0.34503 0.0
H362 H 0.48505 0.84267 0.31865 0.0
H363 H 0.41786 0.85614 0.37756 0.0
H364 H 0.41285 0.86599 0.44206 0.0
H365 H 0.42844 0.83756 0.55825 0.0
H366 H 0.44411 0.808 0.57396 0.0
H367 H 0.53 0.904 0.5225 0.0
H368 H 0.5171 0.92241 0.42203 0.0
H369 H 0.3893 0.76416 0.45769 0.0
H370 H 0.44019 0.75028 0.40751 0.0
C371 C 0.69081 0.49502 0.65306 0.0
C372 C 0.7142 0.51352 0.65112 0.0
C373 C 0.71599 0.52585 0.62171 0.0
C374 C 0.69379 0.51415 0.60714 0.0
N375 N 0.67827 0.4953 0.62568 0.0
Co376 Co 0.64498 0.4726 0.61343 0.0
N377 N 0.6513 0.48132 0.56473 0.0
C378 C 0.66937 0.50163 0.5522 0.0
C379 C 0.66883 0.50285 0.51721 0.0
C380 C 0.64911 0.48208 0.5073 0.0
C381 C 0.63872 0.46929 0.53697 0.0
N382 N 0.61162 0.44991 0.60112 0.0
C383 C 0.60228 0.44046 0.57023 0.0
C384 C 0.57791 0.42531 0.57273 0.0
C385 C 0.57198 0.4256 0.60645 0.0
C386 C 0.59298 0.44085 0.62267 0.0
N387 N 0.639 0.46421 0.66227 0.0
C388 C 0.61773 0.45385 0.67793 0.0
C389 C 0.61948 0.4493 0.71187 0.0
C390 C 0.64328 0.45731 0.71752 0.0
C391 C 0.65472 0.46624 0.68662 0.0
N392 N 0.63629 0.49737 0.62016 0.0
C393 C 0.61702 0.52676 0.63469 0.0
C394 C 0.63417 0.52645 0.65623 0.0
C395 C 0.64349 0.51155 0.64861 0.0
C396 C 0.61086 0.51312 0.6048 0.0
C397 C 0.62086 0.49887 0.59782 0.0
N398 N 0.65283 0.44733 0.60701 0.0
C399 C 0.64203 0.40662 0.61702 0.0
C400 C 0.66094 0.40909 0.59687 0.0
C401 C 0.67637 0.43159 0.58281 0.0
C402 C 0.67198 0.45051 0.58818 0.0
C403 C 0.63822 0.42567 0.62149 0.0
H404 H 0.68379 0.46757 0.57677 0.0
H405 H 0.6231 0.42266 0.63652 0.0
H406 H 0.65581 0.51078 0.66641 0.0
H407 H 0.61524 0.48827 0.5749 0.0
C408 C 0.68845 0.51681 0.57327 0.0
C409 C 0.68051 0.47769 0.68107 0.0
C410 C 0.61601 0.44687 0.53822 0.0
C411 C 0.59671 0.44384 0.65828 0.0
H412 H 0.72869 0.51762 0.66849 0.0
H413 H 0.73198 0.54059 0.61115 0.0
H414 H 0.68168 0.51673 0.50075 0.0
H415 H 0.64299 0.47704 0.48128 0.0
H416 H 0.56574 0.41521 0.55238 0.0
H417 H 0.55458 0.41519 0.61793 0.0
H418 H 0.60507 0.43999 0.72986 0.0
H419 H 0.65127 0.4565 0.74139 0.0
H420 H 0.6395 0.53677 0.67959 0.0
H421 H 0.598 0.51311 0.58713 0.0
H422 H 0.62997 0.3899 0.62929 0.0
H423 H 0.69127 0.4344 0.56709 0.0
C424 C 0.20241 0.6839 0.82787 0.0
C425 C 0.20676 0.707 0.83091 0.0
C426 C 0.19613 0.71092 0.80318 0.0
C427 C 0.18587 0.69002 0.78497 0.0
N428 N 0.18942 0.67338 0.79975 0.0
Co429 Co 0.17819 0.641 0.78288 0.0
N430 N 0.17573 0.65046 0.73587 0.0
C431 C 0.17381 0.66944 0.72691 0.0
C432 C 0.17191 0.67112 0.69218 0.0
C433 C 0.17253 0.65193 0.67869 0.0
C434 C 0.17481 0.63959 0.70608 0.0
N435 N 0.16669 0.60844 0.76588 0.0
C436 C 0.16639 0.60097 0.73351 0.0
C437 C 0.15675 0.5765 0.7327 0.0
C438 C 0.15067 0.5686 0.76584 0.0
C439 C 0.15693 0.5886 0.78505 0.0
N440 N 0.18087 0.632 0.8302 0.0
C441 C 0.16994 0.60987 0.84311 0.0
C442 C 0.17724 0.6094 0.876 0.0
C443 C 0.19371 0.63263 0.88387 0.0
C444 C 0.19547 0.64608 0.85533 0.0
N445 N 0.14498 0.63257 0.79158 0.0
C446 C 0.09644 0.6147 0.80691 0.0
C447 C 0.11443 0.62929 0.83015 0.0
C448 C 0.13848 0.63801 0.82202 0.0
C449 C 0.10361 0.61016 0.7753 0.0
C450 C 0.12774 0.61932 0.76811 0.0
N451 N 0.21107 0.64861 0.77445 0.0
C452 C 0.24039 0.63648 0.7794 0.0
C453 C 0.25732 0.65695 0.76241 0.0
C454 C 0.25077 0.67368 0.75238 0.0
C455 C 0.22746 0.66911 0.75856 0.0
C456 C 0.21761 0.63265 0.78496 0.0
H457 H 0.22258 0.68196 0.75028 0.0
H458 H 0.2052 0.61649 0.79776 0.0
H459 H 0.15182 0.64866 0.84075 0.0
H460 H 0.13237 0.61488 0.74386 0.0
C461 C 0.17782 0.68707 0.75104 0.0
C462 C 0.21034 0.6721 0.85209 0.0
C463 C 0.1739 0.61663 0.70335 0.0
C464 C 0.15827 0.59019 0.82102 0.0
H465 H 0.21683 0.7197 0.85075 0.0
H466 H 0.19703 0.72747 0.79614 0.0
H467 H 0.17099 0.68502 0.67823 0.0
H468 H 0.17115 0.64739 0.65186 0.0
H469 H 0.15437 0.56555 0.71058 0.0
H470 H 0.14354 0.55057 0.77495 0.0
H471 H 0.17252 0.59388 0.89154 0.0
H472 H 0.20353 0.63868 0.90753 0.0
H473 H 0.11004 0.63384 0.85463 0.0
H474 H 0.09067 0.59884 0.75647 0.0
H475 H 0.24466 0.6233 0.78844 0.0
H476 H 0.2633 0.68979 0.73921 0.0
C477 C 0.52167 0.19847 0.98579 0.0
C478 C 0.50271 0.20269 0.98366 0.0
C479 C 0.49021 0.19136 0.95471 0.0
C480 C 0.50225 0.18109 0.94058 0.0
N481 N 0.52148 0.18532 0.95898 0.0
Co482 Co 0.54473 0.17538 0.94718 0.0
N483 N 0.53551 0.17185 0.89859 0.0
C484 C 0.51481 0.16872 0.88616 0.0
C485 C 0.51328 0.16624 0.85126 0.0
C486 C 0.53427 0.16776 0.84132 0.0
C487 C 0.54749 0.17115 0.87088 0.0
N488 N 0.56796 0.16534 0.93533 0.0
C489 C 0.5773 0.1652 0.90447 0.0
C490 C 0.59304 0.15671 0.90738 0.0
C491 C 0.59323 0.1512 0.94133 0.0
C492 C 0.57768 0.15664 0.95728 0.0
N493 N 0.55364 0.17892 0.99591 0.0
C494 C 0.56466 0.16883 0.01201 0.0
C495 C 0.5694 0.17581 0.04568 0.0
C496 C 0.56084 0.19118 0.05067 0.0
C497 C 0.55141 0.19278 0.01967 0.0
N498 N 0.52056 0.14187 0.95523 0.0
C499 C 0.48971 0.09331 0.96995 0.0
C500 C 0.49103 0.11125 0.99152 0.0
C501 C 0.5065 0.1353 0.98375 0.0
C502 C 0.50373 0.1005 0.94026 0.0
C503 C 0.51879 0.12466 0.93332 0.0
N504 N 0.56926 0.20862 0.93954 0.0
C505 C 0.60898 0.24054 0.95087 0.0
C506 C 0.6049 0.25636 0.93179 0.0
C507 C 0.5826 0.24766 0.9161 0.0
C508 C 0.56492 0.22375 0.92055 0.0
C509 C 0.59115 0.21688 0.95413 0.0
H510 H 0.54773 0.21749 0.90886 0.0
H511 H 0.59513 0.20528 0.96877 0.0
H512 H 0.50746 0.14861 0.00121 0.0
H513 H 0.52956 0.12934 0.91057 0.0
C514 C 0.49946 0.17248 0.90706 0.0
C515 C 0.53935 0.20648 0.01349 0.0
C516 C 0.57031 0.17165 0.87218 0.0
C517 C 0.57497 0.15795 0.99284 0.0
H518 H 0.49844 0.21313 0.0006 0.0
H519 H 0.4751 0.19193 0.9441 0.0
H520 H 0.49904 0.16444 0.83484 0.0
H521 H 0.53916 0.16631 0.81537 0.0
H522 H 0.60324 0.15468 0.88716 0.0
H523 H 0.60416 0.14492 0.95312 0.0
H524 H 0.57919 0.17143 0.06388 0.0
H525 H 0.56164 0.20033 0.07417 0.0
H526 H 0.4803 0.10684 0.01442 0.0
H527 H 0.50377 0.0876 0.92284 0.0
H528 H 0.62606 0.24632 0.96287 0.0
H529 H 0.57873 0.25931 0.90104 0.0
C530 C 0.32704 0.51663 0.15412 0.0
C531 C 0.30358 0.49816 0.15317 0.0
C532 C 0.30121 0.48535 0.12408 0.0
C533 C 0.32315 0.49673 0.10872 0.0
N534 N 0.33905 0.51584 0.12648 0.0
Co535 Co 0.37219 0.53805 0.11304 0.0
N536 N 0.365 0.52861 0.06468 0.0
C537 C 0.34663 0.50821 0.05294 0.0
C538 C 0.3466 0.50652 0.01796 0.0
C539 C 0.36626 0.5271 0.00723 0.0
C540 C 0.37714 0.54024 0.03641 0.0
N541 N 0.40544 0.56006 0.0995 0.0
C542 C 0.4143 0.56908 0.06825 0.0
C543 C 0.43872 0.58417 0.06995 0.0
C544 C 0.44517 0.58423 0.10353 0.0
C545 C 0.4244 0.56928 0.12048 0.0
N546 N 0.379 0.54737 0.16152 0.0
C547 C 0.4005 0.55784 0.17651 0.0
C548 C 0.39936 0.56305 0.21032 0.0
C549 C 0.37569 0.55534 0.21661 0.0
C550 C 0.36372 0.54592 0.18618 0.0
N551 N 0.38056 0.51309 0.12041 0.0
C552 C 0.39943 0.48311 0.13477 0.0
C553 C 0.38452 0.48584 0.15822 0.0
C554 C 0.37508 0.5006 0.1504 0.0
C555 C 0.40336 0.49478 0.10316 0.0
C556 C 0.39407 0.50973 0.0967 0.0
N557 N 0.36467 0.56348 0.10601 0.0
C558 C 0.37623 0.60451 0.11446 0.0
C559 C 0.35681 0.60179 0.09531 0.0
C560 C 0.3408 0.57907 0.0825 0.0
C561 C 0.34509 0.5601 0.0881 0.0
C562 C 0.37988 0.58539 0.11926 0.0
H563 H 0.33283 0.54284 0.07765 0.0
H564 H 0.39533 0.58854 0.13359 0.0
H565 H 0.36409 0.50264 0.16923 0.0
H566 H 0.39858 0.51923 0.07277 0.0
C567 C 0.32786 0.49347 0.07478 0.0
C568 C 0.33782 0.5344 0.18149 0.0
C569 C 0.39992 0.56261 0.03681 0.0
C570 C 0.4212 0.56712 0.15624 0.0
H571 H 0.28945 0.49443 0.17102 0.0
H572 H 0.28501 0.47048 0.11424 0.0
H573 H 0.33343 0.49248 0.00204 0.0
H574 H 0.37202 0.53177 0.98101 0.0
H575 H 0.45058 0.59412 0.04925 0.0
H576 H 0.46273 0.59481 0.11446 0.0
H577 H 0.41407 0.57253 0.22781 0.0
H578 H 0.36813 0.55662 0.24061 0.0
H579 H 0.38077 0.4774 0.18305 0.0
H580 H 0.41389 0.4928 0.08343 0.0
H581 H 0.38877 0.62146 0.1257 0.0
H582 H 0.32549 0.5761 0.06759 0.0
C583 C 0.8139 0.32631 0.32876 0.0
C584 C 0.8094 0.30317 0.33191 0.0
C585 C 0.82017 0.29921 0.3044 0.0
C586 C 0.83063 0.32013 0.2862 0.0
N587 N 0.8271 0.33682 0.30081 0.0
Co588 Co 0.8383 0.36915 0.28376 0.0
N589 N 0.84076 0.3596 0.23685 0.0
C590 C 0.84267 0.3406 0.22803 0.0
C591 C 0.8445 0.33884 0.19331 0.0
C592 C 0.84384 0.358 0.1797 0.0
C593 C 0.84162 0.3704 0.207 0.0
N594 N 0.84979 0.40167 0.26663 0.0
C595 C 0.85007 0.40908 0.23422 0.0
C596 C 0.85976 0.43354 0.23326 0.0
C597 C 0.86585 0.44151 0.26638 0.0
C598 C 0.85957 0.42154 0.28572 0.0
N599 N 0.83556 0.37819 0.33097 0.0
C600 C 0.84647 0.40032 0.34385 0.0
C601 C 0.839 0.40079 0.37661 0.0
C602 C 0.82241 0.37757 0.38439 0.0
C603 C 0.82075 0.36413 0.35593 0.0
N604 N 0.87156 0.37766 0.29254 0.0
C605 C 0.9202 0.39583 0.30773 0.0
C606 C 0.90231 0.38138 0.33118 0.0
C607 C 0.8782 0.37249 0.32311 0.0
C608 C 0.91288 0.40008 0.27602 0.0
C609 C 0.88871 0.39079 0.26891 0.0
N610 N 0.80541 0.36151 0.2752 0.0
C611 C 0.77614 0.37373 0.27975 0.0
C612 C 0.75919 0.35321 0.26293 0.0
C613 C 0.76568 0.3364 0.25319 0.0
C614 C 0.78899 0.34096 0.25945 0.0
C615 C 0.7989 0.37754 0.28545 0.0
H616 H 0.79384 0.32806 0.25138 0.0
H617 H 0.81133 0.39374 0.29815 0.0
H618 H 0.86492 0.36194 0.34197 0.0
H619 H 0.88399 0.39505 0.24458 0.0
C620 C 0.83867 0.32301 0.25228 0.0
C621 C 0.80577 0.33813 0.35254 0.0
C622 C 0.84247 0.39333 0.20418 0.0
C623 C 0.85821 0.41999 0.32171 0.0
H624 H 0.79908 0.29046 0.3516 0.0
H625 H 0.81914 0.28261 0.29743 0.0
H626 H 0.84537 0.3249 0.17944 0.0
H627 H 0.84513 0.36246 0.15284 0.0
H628 H 0.86216 0.44445 0.21106 0.0
H629 H 0.87302 0.45956 0.27539 0.0
H630 H 0.84366 0.41631 0.39209 0.0
H631 H 0.81245 0.3715 0.40793 0.0
H632 H 0.90681 0.37707 0.35577 0.0
H633 H 0.92572 0.41129 0.25702 0.0
H634 H 0.7719 0.38699 0.28852 0.0
H635 H 0.75311 0.32023 0.24017 0.0
H636 H 0.28531 0.61655 0.46336 0.0
H637 H 0.39888 0.72605 0.37454 0.0
H638 H 0.29173 0.62884 0.35461 0.0
H639 H 0.38185 0.72406 0.48138 0.0
H640 H 0.36389 0.68627 0.36756 0.0
H641 H 0.32486 0.6517 0.47099 0.0
C642 C 0.29522 0.6264 0.44106 0.0
C643 C 0.28514 0.61987 0.40834 0.0
C644 C 0.36797 0.69446 0.3926 0.0
C645 C 0.33034 0.66013 0.41683 0.0
C646 C 0.38802 0.71706 0.39662 0.0
C647 C 0.39316 0.72844 0.42851 0.0
C648 C 0.35312 0.68302 0.42077 0.0
C649 C 0.37836 0.71604 0.45624 0.0
C650 C 0.31771 0.64655 0.44542 0.0
C651 C 0.29872 0.63342 0.38033 0.0
N652 N 0.35901 0.69409 0.45172 0.0
N653 N 0.32053 0.65292 0.38521 0.0
H654 H 0.62685 0.26395 0.59706 0.0
H655 H 0.70192 0.40557 0.59432 0.0
H656 H 0.69953 0.29956 0.56183 0.0
H657 H 0.6256 0.36373 0.58414 0.0
H658 H 0.70398 0.36875 0.58925 0.0
H659 H 0.62887 0.30215 0.6024 0.0
C660 C 0.64332 0.27987 0.59048 0.0
C661 C 0.66289 0.27843 0.57827 0.0
C662 C 0.68687 0.3678 0.58806 0.0
C663 C 0.66538 0.32266 0.58461 0.0
C664 C 0.68566 0.38878 0.59075 0.0
C665 C 0.66349 0.38778 0.59037 0.0
C666 C 0.66575 0.34577 0.58527 0.0
C667 C 0.64305 0.36546 0.58568 0.0
C668 C 0.64445 0.30173 0.59351 0.0
C669 C 0.68399 0.29984 0.57119 0.0
N670 N 0.64467 0.34549 0.5837 0.0
N671 N 0.68466 0.32114 0.57424 0.0
H672 H 0.26673 0.62312 0.73892 0.0
H673 H 0.40798 0.69817 0.73371 0.0
H674 H 0.30225 0.69695 0.76847 0.0
H675 H 0.36706 0.62333 0.7571 0.0
H676 H 0.37123 0.7005 0.73857 0.0
H677 H 0.30507 0.62528 0.73431 0.0
C678 C 0.28264 0.63987 0.74444 0.0
C679 C 0.28114 0.65974 0.7549 0.0
C680 C 0.37049 0.68367 0.74277 0.0
C681 C 0.3255 0.66239 0.74924 0.0
C682 C 0.39142 0.68233 0.7402 0.0
C683 C 0.39059 0.6604 0.7443 0.0
C684 C 0.34868 0.66289 0.74909 0.0
C685 C 0.36858 0.64048 0.75267 0.0
C686 C 0.30458 0.64107 0.7418 0.0
C687 C 0.30255 0.68117 0.76051 0.0
N688 N 0.34862 0.64217 0.75434 0.0
N689 N 0.32394 0.68193 0.75782 0.0
H690 H 0.72723 0.38138 0.85247 0.0
H691 H 0.63291 0.28666 0.9821 0.0
H692 H 0.73089 0.39269 0.96137 0.0
H693 H 0.62135 0.28319 0.87326 0.0
H694 H 0.66795 0.32611 0.97521 0.0
H695 H 0.68783 0.34626 0.85939 0.0
C696 C 0.71962 0.37657 0.87785 0.0
C697 C 0.73245 0.3899 0.90643 0.0
C698 C 0.65763 0.31689 0.95283 0.0
C699 C 0.68732 0.34949 0.91461 0.0
C700 C 0.63766 0.29433 0.95675 0.0
C701 C 0.62428 0.28153 0.92816 0.0
C702 C 0.66459 0.32672 0.92001 0.0
C703 C 0.63109 0.29244 0.89598 0.0
C704 C 0.69708 0.35654 0.88177 0.0
C705 C 0.7216 0.38298 0.93864 0.0
N706 N 0.65094 0.31425 0.89272 0.0
N707 N 0.69982 0.36309 0.94191 0.0
H708 H 0.39311 0.74736 0.09254 0.0
H709 H 0.31621 0.60593 0.09624 0.0
H710 H 0.31888 0.71214 0.06472 0.0
H711 H 0.39191 0.64643 0.07875 0.0
H712 H 0.31459 0.64301 0.09135 0.0
H713 H 0.39073 0.70898 0.09733 0.0
C714 C 0.37623 0.7315 0.08743 0.0
C715 C 0.3563 0.73308 0.07747 0.0
C716 C 0.33146 0.64361 0.08847 0.0
C717 C 0.35339 0.68865 0.08323 0.0
C718 C 0.3324 0.62248 0.09106 0.0
C719 C 0.35432 0.62308 0.08858 0.0
C720 C 0.35262 0.66536 0.08369 0.0
C721 C 0.37471 0.64508 0.08186 0.0
C722 C 0.37489 0.70952 0.09016 0.0
C723 C 0.33472 0.71175 0.0723 0.0
N724 N 0.37338 0.66521 0.08004 0.0
N725 N 0.33384 0.69034 0.07503 0.0
H726 H 0.74996 0.38682 0.23798 0.0
H727 H 0.60841 0.3123 0.23752 0.0
H728 H 0.71418 0.31353 0.27028 0.0
H729 H 0.65017 0.38786 0.25522 0.0
H730 H 0.64513 0.30992 0.24183 0.0
H731 H 0.71173 0.38493 0.23325 0.0
C732 C 0.734 0.37025 0.24404 0.0
C733 C 0.7354 0.35046 0.25529 0.0
C734 C 0.64607 0.32693 0.24486 0.0
C735 C 0.69117 0.34812 0.2496 0.0
C736 C 0.62516 0.32831 0.2426 0.0
C737 C 0.62618 0.35041 0.24531 0.0
C738 C 0.66808 0.34782 0.24948 0.0
C739 C 0.64844 0.37054 0.25186 0.0
C740 C 0.71213 0.36919 0.24135 0.0
C741 C 0.71394 0.32925 0.26168 0.0
N742 N 0.66838 0.36878 0.25331 0.0
N743 N 0.69264 0.32864 0.25896 0.0
H744 H 0.13609 0.58548 0.66475 0.0
H745 H 0.21438 0.59459 0.5013 0.0
H746 H 0.2124 0.62894 0.66291 0.0
H747 H 0.13842 0.5646 0.49784 0.0
H748 H 0.21442 0.60656 0.56083 0.0
H749 H 0.13668 0.57546 0.60442 0.0
C750 C 0.15299 0.59245 0.65169 0.0
C751 C 0.17428 0.60757 0.66873 0.0
C752 C 0.19777 0.59773 0.54693 0.0
C753 C 0.17515 0.59686 0.59973 0.0
C754 C 0.19782 0.59115 0.51294 0.0
C755 C 0.17645 0.57915 0.49469 0.0
C756 C 0.1761 0.59178 0.56289 0.0
C757 C 0.1553 0.57435 0.511 0.0
C758 C 0.15334 0.58703 0.61723 0.0
C759 C 0.1957 0.61684 0.65062 0.0
N760 N 0.15562 0.58051 0.54428 0.0
N761 N 0.19562 0.6113 0.61708 0.0
H762 H 0.63197 0.21067 0.66967 0.0
H763 H 0.56795 0.13421 0.83737 0.0
H764 H 0.59066 0.13427 0.67074 0.0
H765 H 0.59662 0.20985 0.83143 0.0
H766 H 0.58008 0.13429 0.77796 0.0
H767 H 0.62201 0.21125 0.73011 0.0
C768 C 0.62042 0.19407 0.68263 0.0
C769 C 0.61162 0.17243 0.66534 0.0
C770 C 0.58404 0.15094 0.78975 0.0
C771 C 0.60083 0.17278 0.73439 0.0
C772 C 0.57744 0.15091 0.82373 0.0
C773 C 0.58183 0.17214 0.83927 0.0
C774 C 0.595 0.17236 0.77121 0.0
C775 C 0.5934 0.19324 0.82034 0.0
C776 C 0.6149 0.19435 0.71707 0.0
C777 C 0.59729 0.1513 0.68321 0.0
N778 N 0.59957 0.19283 0.78724 0.0
N779 N 0.59239 0.15199 0.71683 0.0
H780 H 0.38524 0.58786 0.99903 0.0
H781 H 0.4299 0.6324 0.83584 0.0
H782 H 0.43496 0.56235 0.99839 0.0
H783 H 0.45393 0.58153 0.83625 0.0
H784 H 0.41768 0.62266 0.89549 0.0
H785 H 0.39597 0.60116 0.93997 0.0
C786 C 0.39904 0.58584 0.98662 0.0
C787 C 0.40978 0.5747 0.00371 0.0
C788 C 0.42493 0.61302 0.88248 0.0
C789 C 0.42215 0.58961 0.93594 0.0
C790 C 0.4319 0.61863 0.84839 0.0
C791 C 0.44219 0.60719 0.83101 0.0
C792 C 0.42845 0.59589 0.89938 0.0
C793 C 0.44534 0.59016 0.84858 0.0
C794 C 0.4052 0.5934 0.95284 0.0
C795 C 0.42685 0.57154 0.9863 0.0
N796 N 0.43856 0.58508 0.88184 0.0
N797 N 0.43241 0.57884 0.95329 0.0
H798 H 0.8035 0.3816 0.16516 0.0
H799 H 0.87975 0.44605 0.99751 0.0
H800 H 0.87994 0.42347 0.16423 0.0
H801 H 0.80399 0.4171 0.00347 0.0
H802 H 0.87979 0.43396 0.05694 0.0
H803 H 0.80282 0.39166 0.10477 0.0
C804 C 0.82009 0.39332 0.15225 0.0
C805 C 0.84176 0.40223 0.16957 0.0
C806 C 0.86308 0.42993 0.04515 0.0
C807 C 0.8413 0.41311 0.10054 0.0
C808 C 0.86305 0.4365 0.01116 0.0
C809 C 0.84176 0.43203 0.99561 0.0
C810 C 0.84167 0.41891 0.06371 0.0
C811 C 0.82066 0.42039 0.01455 0.0
C812 C 0.81975 0.39889 0.11783 0.0
C813 C 0.86288 0.41675 0.15176 0.0
N814 N 0.82113 0.41425 0.04767 0.0
N815 N 0.86214 0.42169 0.11814 0.0
H816 H 0.4336 0.8782 0.16569 0.0
H817 H 0.42474 0.80003 0.32972 0.0
H818 H 0.38935 0.80206 0.16864 0.0
H819 H 0.45716 0.87622 0.33173 0.0
H820 H 0.41339 0.80005 0.26978 0.0
H821 H 0.44522 0.87768 0.22524 0.0
C822 C 0.42678 0.86134 0.1788 0.0
C823 C 0.41095 0.84009 0.16231 0.0
C824 C 0.42275 0.81676 0.2834 0.0
C825 C 0.42352 0.83931 0.23047 0.0
C826 C 0.42905 0.8167 0.31756 0.0
C827 C 0.44139 0.8381 0.33557 0.0
C828 C 0.42925 0.83846 0.26708 0.0
C829 C 0.4472 0.85934 0.3187 0.0
C830 C 0.43316 0.86104 0.21283 0.0
C831 C 0.40195 0.81873 0.1805 0.0
N832 N 0.44115 0.85901 0.28534 0.0
N833 N 0.40838 0.81886 0.21364 0.0
H834 H 0.55828 0.42833 0.3349 0.0
H835 H 0.62639 0.41855 0.49959 0.0
H836 H 0.59021 0.3841 0.33812 0.0
H837 H 0.58282 0.45124 0.50122 0.0
H838 H 0.61459 0.40665 0.44 0.0
H839 H 0.56964 0.4393 0.39483 0.0
C840 C 0.56825 0.42146 0.34812 0.0
C841 C 0.57388 0.40579 0.33161 0.0
C842 C 0.60728 0.41608 0.45351 0.0
C843 C 0.58619 0.41749 0.40022 0.0
C844 C 0.6138 0.42261 0.48753 0.0
C845 C 0.60506 0.43532 0.5053 0.0
C846 C 0.59227 0.42277 0.43702 0.0
C847 C 0.58943 0.44092 0.48846 0.0
C848 C 0.57442 0.42741 0.38238 0.0
C849 C 0.58604 0.39663 0.34997 0.0
N850 N 0.58364 0.43474 0.45515 0.0
N851 N 0.59182 0.40262 0.38333 0.0
H852 H 0.95803 0.40591 0.26487 0.0
H853 H 0.05841 0.4638 0.4098 0.0
H854 H 0.94238 0.41194 0.37042 0.0
H855 H 0.07383 0.47488 0.30182 0.0
H856 H 0.01605 0.44088 0.3964 0.0
H857 H 1.00038 0.42702 0.27862 0.0
C858 C 0.96335 0.41167 0.29095 0.0
C859 C 0.94624 0.40715 0.31638 0.0
C860 C 0.02872 0.4483 0.37564 0.0
C861 C 0.99522 0.43114 0.33244 0.0
C862 C 0.05304 0.46158 0.38325 0.0
C863 C 0.07009 0.47167 0.357 0.0
C864 C 0.02111 0.44469 0.34146 0.0
C865 C 0.06165 0.46737 0.32308 0.0
C866 C 0.98767 0.42367 0.29878 0.0
C867 C 0.95462 0.41464 0.34988 0.0
N868 N 0.03788 0.45429 0.31635 0.0
N869 N 0.9784 0.42624 0.35686 0.0
H870 H 0.56007 0.95286 0.43417 0.0
H871 H 0.57277 0.05711 0.55545 0.0
H872 H 0.52463 0.93999 0.53151 0.0
H873 H 0.62696 0.06825 0.4818 0.0
H874 H 0.55271 0.01476 0.54335 0.0
H875 H 0.58239 0.99552 0.44736 0.0
C876 C 0.55701 0.95898 0.45834 0.0
C877 C 0.54043 0.94272 0.48178 0.0
C878 C 0.56906 0.02646 0.52995 0.0
C879 C 0.56577 0.99167 0.49685 0.0
C880 C 0.58076 0.05081 0.53702 0.0
C881 C 0.60204 0.06672 0.52009 0.0
C882 C 0.57824 0.01761 0.50521 0.0
C883 C 0.61062 0.05702 0.49545 0.0
C884 C 0.56983 0.98334 0.46589 0.0
C885 C 0.53735 0.95176 0.5128 0.0
N886 N 0.59869 0.03321 0.48871 0.0
N887 N 0.54969 0.97556 0.51926 0.0
H888 H 0.57494 0.63364 0.66977 0.0
H889 H 0.56918 0.50973 0.63626 0.0
H890 H 0.51464 0.56632 0.69822 0.0
H891 H 0.63608 0.57368 0.65421 0.0
H892 H 0.54827 0.53117 0.65072 0.0
H893 H 0.59711 0.61306 0.65582 0.0
C894 C 0.56636 0.61455 0.67296 0.0
C895 C 0.54293 0.6017 0.68533 0.0
C896 C 0.56752 0.54055 0.65153 0.0
C897 C 0.56802 0.57806 0.66903 0.0
C898 C 0.57948 0.52835 0.64313 0.0
C899 C 0.60443 0.53993 0.64397 0.0
C900 C 0.58053 0.56473 0.66027 0.0
C901 C 0.61683 0.56404 0.65338 0.0
C902 C 0.57904 0.60286 0.66519 0.0
C903 C 0.53271 0.57698 0.68909 0.0
N904 N 0.60478 0.57571 0.66086 0.0
N905 N 0.5452 0.566 0.68075 0.0
H906 H 0.05844 0.60439 0.76422 0.0
H907 H 0.95896 0.54837 0.91046 0.0
H908 H 0.07461 0.59921 0.86988 0.0
H909 H 0.94283 0.53628 0.80274 0.0
H910 H 1.00124 0.57105 0.89651 0.0
H911 H 0.01617 0.58366 0.77843 0.0
C912 C 0.05325 0.5989 0.79041 0.0
C913 C 0.07047 0.60355 0.81575 0.0
C914 C 0.98843 0.56347 0.87593 0.0
C915 C 0.02162 0.58001 0.83233 0.0
C916 C 0.96417 0.55033 0.88385 0.0
C917 C 0.94695 0.54003 0.85783 0.0
C918 C 0.99581 0.5667 0.84166 0.0
C919 C 0.95516 0.54398 0.82382 0.0
C920 C 0.02898 0.58712 0.79852 0.0
C921 C 0.06228 0.5964 0.8494 0.0
N922 N 0.97888 0.55691 0.81678 0.0
N923 N 0.03856 0.58502 0.85663 0.0
H924 H 0.479 0.07195 0.03365 0.0
H925 H 0.41473 0.93876 0.96245 0.0
H926 H 0.46568 0.05496 0.92632 0.0
H927 H 0.41199 0.95573 0.06845 0.0
H928 H 0.43449 0.98108 0.94881 0.0
H929 H 0.4558 0.02961 0.04699 0.0
C930 C 0.47105 0.05947 0.01281 0.0
C931 C 0.47454 0.06739 0.97868 0.0
C932 C 0.42946 0.97552 0.97504 0.0
C933 C 0.44818 0.0184 0.99399 0.0
C934 C 0.41797 0.95123 0.9829 0.0
C935 C 0.41158 0.94331 0.0168 0.0
C936 C 0.43493 0.99228 0.00121 0.0
C937 C 0.41688 0.96073 0.04205 0.0
C938 C 0.45788 0.03517 0.02052 0.0
C939 C 0.46402 0.04996 0.95298 0.0
N940 N 0.42831 0.98426 0.0338 0.0
N941 N 0.45151 0.02642 0.96113 0.0
H942 H 0.44274 0.48996 0.11173 0.0
H943 H 0.45025 0.39589 0.23339 0.0
H944 H 0.3844 0.44415 0.17814 0.0
H945 H 0.4875 0.41788 0.13729 0.0
H946 H 0.4286 0.41669 0.21829 0.0
H947 H 0.46193 0.46701 0.12523 0.0
C948 C 0.43365 0.47495 0.12881 0.0
C949 C 0.41149 0.46903 0.14332 0.0
C950 C 0.4414 0.41681 0.20045 0.0
C951 C 0.4343 0.44301 0.15998 0.0
C952 C 0.45382 0.40503 0.20908 0.0
C953 C 0.47067 0.40505 0.18651 0.0
C954 C 0.44624 0.42922 0.16935 0.0
C955 C 0.47451 0.41716 0.15531 0.0
C956 C 0.44486 0.46193 0.13671 0.0
C957 C 0.40148 0.44978 0.16642 0.0
N958 N 0.46261 0.42893 0.14783 0.0
N959 N 0.41298 0.4376 0.17412 0.0
H960 H 0.25354 0.57444 0.31261 0.0
H961 H 0.30887 0.50302 0.22986 0.0
H962 H 0.20936 0.50299 0.27571 0.0
H963 H 0.33163 0.5728 0.18937 0.0
H964 H 0.27775 0.50518 0.26264 0.0
H965 H 0.2873 0.57693 0.27989 0.0
C966 C 0.25095 0.5594 0.2974 0.0
C967 C 0.2289 0.53826 0.2974 0.0
C968 C 0.28976 0.52011 0.24687 0.0
C969 C 0.26719 0.54074 0.26121 0.0
C970 C 0.30751 0.51895 0.22841 0.0
C971 C 0.32238 0.53756 0.20649 0.0
C972 C 0.28736 0.54034 0.24424 0.0
C973 C 0.32027 0.55802 0.20585 0.0
C974 C 0.27014 0.5608 0.27898 0.0
C975 C 0.22629 0.51933 0.27713 0.0
N976 N 0.30294 0.5589 0.22442 0.0
N977 N 0.24533 0.52081 0.26044 0.0
H978 H 0.76182 0.30941 0.32652 0.0
H979 H 0.70274 0.25094 0.50639 0.0
H980 H 0.79942 0.33168 0.4223 0.0
H981 H 0.67958 0.21335 0.41077 0.0
H982 H 0.733 0.28599 0.4757 0.0
H983 H 0.72644 0.27947 0.35705 0.0
C984 C 0.76239 0.30839 0.35412 0.0
C985 C 0.78341 0.32337 0.37201 0.0
C986 C 0.72097 0.27024 0.46136 0.0
C987 C 0.74313 0.28906 0.40703 0.0
C988 C 0.70362 0.25033 0.47878 0.0
C989 C 0.68835 0.22938 0.46099 0.0
C990 C 0.72307 0.26928 0.42579 0.0
C991 C 0.69047 0.22934 0.42533 0.0
C992 C 0.74227 0.29124 0.37146 0.0
C993 C 0.78338 0.32108 0.40765 0.0
N994 N 0.70758 0.24896 0.40889 0.0
N995 N 0.76357 0.30419 0.424 0.0
H996 H 0.4767 0.67905 0.57923 0.0
H997 H 0.47365 0.79879 0.58856 0.0
H998 H 0.45952 0.70228 0.67259 0.0
H999 H 0.45892 0.75901 0.49491 0.0
H1000 H 0.46933 0.76425 0.62016 0.0
H1001 H 0.47108 0.70845 0.54755 0.0
C1002 C 0.47093 0.68976 0.59289 0.0
C1003 C 0.46787 0.68777 0.62843 0.0
C1004 C 0.46653 0.7629 0.59278 0.0
C1005 C 0.46276 0.72236 0.59269 0.0
C1006 C 0.46868 0.78252 0.57481 0.0
C1007 C 0.46595 0.7815 0.5392 0.0
C1008 C 0.46232 0.74239 0.57488 0.0
C1009 C 0.46086 0.76036 0.52244 0.0
C1010 C 0.46804 0.70677 0.57488 0.0
C1011 C 0.46174 0.70309 0.64509 0.0
N1012 N 0.45946 0.74175 0.54033 0.0
N1013 N 0.45963 0.7199 0.62718 0.0
H1014 H 0.81052 0.50837 0.77532 0.0
H1015 H 0.68447 0.43808 0.68992 0.0
H1016 H 0.76325 0.4376 0.81236 0.0
H1017 H 0.71211 0.50953 0.72695 0.0
H1018 H 0.71513 0.43508 0.72358 0.0
H1019 H 0.77743 0.50701 0.74302 0.0
C1020 C 0.79319 0.49245 0.77626 0.0
C1021 C 0.78933 0.4733 0.79706 0.0
C1022 C 0.71427 0.4513 0.72441 0.0
C1023 C 0.75174 0.47139 0.75971 0.0
C1024 C 0.69683 0.45298 0.70546 0.0
C1025 C 0.69621 0.47425 0.70526 0.0
C1026 C 0.73135 0.47123 0.7425 0.0
C1027 C 0.71243 0.49304 0.72587 0.0
C1028 C 0.77437 0.49173 0.75803 0.0
C1029 C 0.76674 0.45281 0.79684 0.0
N1030 N 0.72967 0.49129 0.74307 0.0
N1031 N 0.74864 0.45236 0.77846 0.0
H1032 H 0.33524 0.79944 0.9122 0.0
H1033 H 0.21466 0.67794 0.92208 0.0
H1034 H 0.31263 0.75896 0.0056 0.0
H1035 H 0.25477 0.70181 0.8285 0.0
H1036 H 0.24961 0.70765 0.95362 0.0
H1037 H 0.30551 0.76451 0.88078 0.0
C1038 C 0.32461 0.78296 0.9259 0.0
C1039 C 0.32688 0.78184 0.96139 0.0
C1040 C 0.25093 0.70602 0.92628 0.0
C1041 C 0.29188 0.74225 0.92597 0.0
C1042 C 0.23108 0.68883 0.90835 0.0
C1043 C 0.23207 0.68699 0.87277 0.0
C1044 C 0.27164 0.72191 0.90834 0.0
C1045 C 0.25343 0.70252 0.85602 0.0
C1046 C 0.30741 0.7631 0.90805 0.0
C1047 C 0.31161 0.76039 0.97815 0.0
N1048 N 0.27226 0.7195 0.87384 0.0
N1049 N 0.29459 0.74153 0.9604 0.0
H1050 H 0.5783 0.32948 0.1463 0.0
H1051 H 0.50724 0.20538 0.05951 0.0
H1052 H 0.50936 0.30638 0.10211 0.0
H1053 H 0.57811 0.25087 0.02118 0.0
H1054 H 0.50966 0.23928 0.09074 0.0
H1055 H 0.58112 0.29879 0.1126 0.0
C1056 C 0.56401 0.31822 0.12903 0.0
C1057 C 0.54343 0.32009 0.12715 0.0
C1058 C 0.52473 0.24175 0.07568 0.0
C1059 C 0.54615 0.28486 0.09001 0.0
C1060 C 0.5234 0.22249 0.05803 0.0
C1061 C 0.54226 0.22563 0.03715 0.0
C1062 C 0.54539 0.26407 0.07339 0.0
C1063 C 0.5631 0.24795 0.03677 0.0
C1064 C 0.56557 0.30074 0.11009 0.0
C1065 C 0.52535 0.30518 0.10453 0.0
N1066 N 0.56415 0.26648 0.05463 0.0
N1067 N 0.52686 0.2878 0.08744 0.0
loop_
_geom_bond_atom_site_label_1
_geom_bond_atom_site_label_2
_geom_bond_distance
_geom_bond_site_symmetry_2
_ccdc_geom_bond_type
C0 C1 1.443 . S
C0 N4 1.376 . S
C0 C38 1.389 . S
C1 C0 1.443 . S
C1 C2 1.340 . S
C1 H41 0.951 . S
C2 C1 1.340 . S
C2 C3 1.439 . S
C2 H42 0.950 . S
C3 C2 1.439 . S
C3 N4 1.374 . S
C3 C37 1.395 . S
N4 C0 1.376 . S
N4 C3 1.374 . S
N4 Co5 2.008 . S
Co5 N4 2.008 . S
Co5 N6 1.995 . S
Co5 N11 2.008 . S
Co5 N16 1.995 . S
Co5 N21 2.282 . S
Co5 N27 2.282 . S
N6 Co5 1.995 . S
N6 C7 1.376 . S
N6 C10 1.383 . S
C7 N6 1.376 . S
C7 C8 1.446 . S
C7 C37 1.391 . S
C8 C7 1.446 . S
C8 C9 1.339 . S
C8 H43 0.949 . S
C9 C8 1.339 . S
C9 C10 1.439 . S
C9 H44 0.950 . S
C10 N6 1.383 . S
C10 C9 1.439 . S
C10 C39 1.392 . S
N11 Co5 2.008 . S
N11 C12 1.376 . S
N11 C15 1.374 . S
C12 N11 1.376 . S
C12 C13 1.443 . S
C12 C39 1.389 . S
C13 C12 1.443 . S
C13 C14 1.340 . S
C13 H45 0.951 . S
C14 C13 1.340 . S
C14 C15 1.439 . S
C14 H46 0.950 . S
C15 N11 1.374 . S
C15 C14 1.439 . S
C15 C40 1.395 . S
N16 Co5 1.995 . S
N16 C17 1.376 . S
N16 C20 1.383 . S
C17 N16 1.376 . S
C17 C18 1.446 . S
C17 C40 1.391 . S
C18 C17 1.446 . S
C18 C19 1.339 . S
C18 H47 0.949 . S
C19 C18 1.339 . S
C19 C20 1.439 . S
C19 H48 0.950 . S
C20 N16 1.383 . S
C20 C19 1.439 . S
C20 C38 1.392 . S
N21 Co5 2.282 . S
N21 C24 1.332 . S
N21 C26 1.332 . S
C22 C23 1.386 . S
C22 C25 1.388 . S
C23 C22 1.386 . S
C23 C24 1.382 . S
C23 H49 0.950 . S
C24 N21 1.332 . S
C24 C23 1.382 . S
C24 H35 0.952 . S
C25 C22 1.388 . S
C25 C26 1.382 . S
C25 H50 0.950 . S
C26 N21 1.332 . S
C26 C25 1.382 . S
C26 H36 0.948 . S
N27 Co5 2.282 . S
N27 C31 1.332 . S
N27 C32 1.332 . S
C28 C29 1.388 . S
C28 C32 1.382 . S
C28 H51 0.950 . S
C29 C28 1.388 . S
C29 C30 1.386 . S
C30 C29 1.386 . S
C30 C31 1.382 . S
C30 H52 0.950 . S
C31 N27 1.332 . S
C31 C30 1.382 . S
C31 H33 0.952 . S
C32 N27 1.332 . S
C32 C28 1.382 . S
C32 H34 0.948 . S
H33 C31 0.952 . S
H34 C32 0.948 . S
H35 C24 0.952 . S
H36 C26 0.948 . S
C37 C3 1.395 . S
C37 C7 1.391 . S
C38 C0 1.389 . S
C38 C20 1.392 . S
C39 C10 1.392 . S
C39 C12 1.389 . S
C40 C15 1.395 . S
C40 C17 1.391 . S
H41 C1 0.951 . S
H42 C2 0.950 . S
H43 C8 0.949 . S
H44 C9 0.950 . S
H45 C13 0.951 . S
H46 C14 0.950 . S
H47 C18 0.949 . S
H48 C19 0.950 . S
H49 C23 0.950 . S
H50 C25 0.950 . S
H51 C28 0.950 . S
H52 C30 0.950 . S
C53 C54 1.443 . S
C53 N57 1.376 . S
C53 C91 1.389 . S
C54 C53 1.443 . S
C54 C55 1.340 . S
C54 H94 0.951 . S
C55 C54 1.340 . S
C55 C56 1.439 . S
C55 H95 0.950 . S
C56 C55 1.439 . S
C56 N57 1.374 . S
C56 C90 1.395 . S
N57 C53 1.376 . S
N57 C56 1.374 . S
N57 Co58 2.008 . S
Co58 N57 2.008 . S
Co58 N59 1.995 . S
Co58 N64 2.008 . S
Co58 N69 1.995 . S
Co58 N74 2.282 . S
Co58 N80 2.282 . S
N59 Co58 1.995 . S
N59 C60 1.376 . S
N59 C63 1.383 . S
C60 N59 1.376 . S
C60 C61 1.446 . S
C60 C90 1.391 . S
C61 C60 1.446 . S
C61 C62 1.339 . S
C61 H96 0.949 . S
C62 C61 1.339 . S
C62 C63 1.439 . S
C62 H97 0.950 . S
C63 N59 1.383 . S
C63 C62 1.439 . S
C63 C92 1.392 . S
N64 Co58 2.008 . S
N64 C65 1.376 . S
N64 C68 1.374 . S
C65 N64 1.376 . S
C65 C66 1.443 . S
C65 C92 1.389 . S
C66 C65 1.443 . S
C66 C67 1.340 . S
C66 H98 0.951 . S
C67 C66 1.340 . S
C67 C68 1.439 . S
C67 H99 0.950 . S
C68 N64 1.374 . S
C68 C67 1.439 . S
C68 C93 1.395 . S
N69 Co58 1.995 . S
N69 C70 1.376 . S
N69 C73 1.383 . S
C70 N69 1.376 . S
C70 C71 1.446 . S
C70 C93 1.391 . S
C71 C70 1.446 . S
C71 C72 1.339 . S
C71 H100 0.949 . S
C72 C71 1.339 . S
C72 C73 1.439 . S
C72 H101 0.950 . S
C73 N69 1.383 . S
C73 C72 1.439 . S
C73 C91 1.392 . S
N74 Co58 2.282 . S
N74 C77 1.332 . S
N74 C79 1.332 . S
C75 C76 1.386 . S
C75 C78 1.388 . S
C76 C75 1.386 . S
C76 C77 1.382 . S
C76 H102 0.950 . S
C77 N74 1.332 . S
C77 C76 1.382 . S
C77 H88 0.952 . S
C78 C75 1.388 . S
C78 C79 1.382 . S
C78 H103 0.950 . S
C79 N74 1.332 . S
C79 C78 1.382 . S
C79 H89 0.948 . S
N80 Co58 2.282 . S
N80 C84 1.332 . S
N80 C85 1.332 . S
C81 C82 1.388 . S
C81 C85 1.382 . S
C81 H104 0.950 . S
C82 C81 1.388 . S
C82 C83 1.386 . S
C83 C82 1.386 . S
C83 C84 1.382 . S
C83 H105 0.950 . S
C84 N80 1.332 . S
C84 C83 1.382 . S
C84 H86 0.952 . S
C85 N80 1.332 . S
C85 C81 1.382 . S
C85 H87 0.948 . S
H86 C84 0.952 . S
H87 C85 0.948 . S
H88 C77 0.952 . S
H89 C79 0.948 . S
C90 C56 1.395 . S
C90 C60 1.391 . S
C91 C53 1.389 . S
C91 C73 1.392 . S
C92 C63 1.392 . S
C92 C65 1.389 . S
C93 C68 1.395 . S
C93 C70 1.391 . S
H94 C54 0.951 . S
H95 C55 0.950 . S
H96 C61 0.949 . S
H97 C62 0.950 . S
H98 C66 0.951 . S
H99 C67 0.950 . S
H100 C71 0.949 . S
H101 C72 0.950 . S
H102 C76 0.950 . S
H103 C78 0.950 . S
H104 C81 0.950 . S
H105 C83 0.950 . S
C106 C107 1.443 . S
C106 N110 1.376 . S
C106 C144 1.389 . S
C107 C106 1.443 . S
C107 C108 1.340 . S
C107 H147 0.951 . S
C108 C107 1.340 . S
C108 C109 1.439 . S
C108 H148 0.950 . S
C109 C108 1.439 . S
C109 N110 1.374 . S
C109 C143 1.395 . S
N110 C106 1.376 . S
N110 C109 1.374 . S
N110 Co111 2.008 . S
Co111 N110 2.008 . S
Co111 N112 1.995 . S
Co111 N117 2.008 . S
Co111 N122 1.995 . S
Co111 N127 2.282 . S
Co111 N133 2.282 . S
N112 Co111 1.995 . S
N112 C113 1.376 . S
N112 C116 1.383 . S
C113 N112 1.376 . S
C113 C114 1.446 . S
C113 C143 1.391 . S
C114 C113 1.446 . S
C114 C115 1.339 . S
C114 H149 0.949 . S
C115 C114 1.339 . S
C115 C116 1.439 . S
C115 H150 0.950 . S
C116 N112 1.383 . S
C116 C115 1.439 . S
C116 C145 1.392 . S
N117 Co111 2.008 . S
N117 C118 1.376 . S
N117 C121 1.374 . S
C118 N117 1.376 . S
C118 C119 1.443 . S
C118 C145 1.389 . S
C119 C118 1.443 . S
C119 C120 1.340 . S
C119 H151 0.951 . S
C120 C119 1.340 . S
C120 C121 1.439 . S
C120 H152 0.950 . S
C121 N117 1.374 . S
C121 C120 1.439 . S
C121 C146 1.395 . S
N122 Co111 1.995 . S
N122 C123 1.376 . S
N122 C126 1.383 . S
C123 N122 1.376 . S
C123 C124 1.446 . S
C123 C146 1.391 . S
C124 C123 1.446 . S
C124 C125 1.339 . S
C124 H153 0.949 . S
C125 C124 1.339 . S
C125 C126 1.439 . S
C125 H154 0.950 . S
C126 N122 1.383 . S
C126 C125 1.439 . S
C126 C144 1.392 . S
N127 Co111 2.282 . S
N127 C130 1.332 . S
N127 C132 1.332 . S
C128 C129 1.386 . S
C128 C131 1.388 . S
C129 C128 1.386 . S
C129 C130 1.382 . S
C129 H155 0.950 . S
C130 N127 1.332 . S
C130 C129 1.382 . S
C130 H141 0.952 . S
C131 C128 1.388 . S
C131 C132 1.382 . S
C131 H156 0.950 . S
C132 N127 1.332 . S
C132 C131 1.382 . S
C132 H142 0.948 . S
N133 Co111 2.282 . S
N133 C137 1.332 . S
N133 C138 1.332 . S
C134 C135 1.388 . S
C134 C138 1.382 . S
C134 H157 0.950 . S
C135 C134 1.388 . S
C135 C136 1.386 . S
C136 C135 1.386 . S
C136 C137 1.382 . S
C136 H158 0.950 . S
C137 N133 1.332 . S
C137 C136 1.382 . S
C137 H139 0.952 . S
C138 N133 1.332 . S
C138 C134 1.382 . S
C138 H140 0.948 . S
H139 C137 0.952 . S
H140 C138 0.948 . S
H141 C130 0.952 . S
H142 C132 0.948 . S
C143 C109 1.395 . S
C143 C113 1.391 . S
C144 C106 1.389 . S
C144 C126 1.392 . S
C145 C116 1.392 . S
C145 C118 1.389 . S
C146 C121 1.395 . S
C146 C123 1.391 . S
H147 C107 0.951 . S
H148 C108 0.950 . S
H149 C114 0.949 . S
H150 C115 0.950 . S
H151 C119 0.951 . S
H152 C120 0.950 . S
H153 C124 0.949 . S
H154 C125 0.950 . S
H155 C129 0.950 . S
H156 C131 0.950 . S
H157 C134 0.950 . S
H158 C136 0.950 . S
C159 C160 1.443 . S
C159 N163 1.376 . S
C159 C197 1.389 . S
C160 C159 1.443 . S
C160 C161 1.340 . S
C160 H200 0.951 . S
C161 C160 1.340 . S
C161 C162 1.439 . S
C161 H201 0.950 . S
C162 C161 1.439 . S
C162 N163 1.374 . S
C162 C196 1.395 . S
N163 C159 1.376 . S
N163 C162 1.374 . S
N163 Co164 2.008 . S
Co164 N163 2.008 . S
Co164 N165 1.995 . S
Co164 N170 2.008 . S
Co164 N175 1.995 . S
Co164 N180 2.282 . S
Co164 N186 2.282 . S
N165 Co164 1.995 . S
N165 C166 1.376 . S
N165 C169 1.383 . S
C166 N165 1.376 . S
C166 C167 1.446 1_556 S
C166 C196 1.391 . S
C167 C166 1.446 1_554 S
C167 C168 1.339 . S
C167 H202 0.949 . S
C168 C167 1.339 . S
C168 C169 1.439 1_554 S
C168 H203 0.950 . S
C169 N165 1.383 . S
C169 C168 1.439 1_556 S
C169 C198 1.392 . S
N170 Co164 2.008 . S
N170 C171 1.376 . S
N170 C174 1.374 . S
C171 N170 1.376 . S
C171 C172 1.443 . S
C171 C198 1.389 . S
C172 C171 1.443 . S
C172 C173 1.340 . S
C172 H204 0.951 . S
C173 C172 1.340 . S
C173 C174 1.439 . S
C173 H205 0.950 . S
C174 N170 1.374 . S
C174 C173 1.439 . S
C174 C199 1.395 . S
N175 Co164 1.995 . S
N175 C176 1.376 . S
N175 C179 1.383 . S
C176 N175 1.376 . S
C176 C177 1.446 . S
C176 C199 1.391 . S
C177 C176 1.446 . S
C177 C178 1.339 . S
C177 H206 0.949 . S
C178 C177 1.339 . S
C178 C179 1.439 . S
C178 H207 0.950 . S
C179 N175 1.383 . S
C179 C178 1.439 . S
C179 C197 1.392 . S
N180 Co164 2.282 . S
N180 C183 1.332 . S
N180 C185 1.332 . S
C181 C182 1.386 . S
C181 C184 1.388 . S
C182 C181 1.386 . S
C182 C183 1.382 . S
C182 H208 0.950 . S
C183 N180 1.332 . S
C183 C182 1.382 . S
C183 H194 0.952 . S
C184 C181 1.388 . S
C184 C185 1.382 . S
C184 H209 0.950 . S
C185 N180 1.332 . S
C185 C184 1.382 . S
C185 H195 0.948 . S
N186 Co164 2.282 . S
N186 C190 1.332 . S
N186 C191 1.332 . S
C187 C188 1.388 . S
C187 C191 1.382 . S
C187 H210 0.950 . S
C188 C187 1.388 . S
C188 C189 1.386 . S
C189 C188 1.386 . S
C189 C190 1.382 . S
C189 H211 0.950 . S
C190 N186 1.332 . S
C190 C189 1.382 . S
C190 H192 0.952 . S
C191 N186 1.332 . S
C191 C187 1.382 . S
C191 H193 0.948 . S
H192 C190 0.952 . S
H193 C191 0.948 . S
H194 C183 0.952 . S
H195 C185 0.948 . S
C196 C162 1.395 . S
C196 C166 1.391 . S
C197 C159 1.389 . S
C197 C179 1.392 . S
C198 C169 1.392 . S
C198 C171 1.389 . S
C199 C174 1.395 . S
C199 C176 1.391 . S
H200 C160 0.951 . S
H201 C161 0.950 . S
H202 C167 0.949 . S
H203 C168 0.950 . S
H204 C172 0.951 . S
H205 C173 0.950 . S
H206 C177 0.949 . S
H207 C178 0.950 . S
H208 C182 0.950 . S
H209 C184 0.950 . S
H210 C187 0.950 . S
H211 C189 0.950 . S
C212 C213 1.443 . S
C212 N216 1.376 . S
C212 C250 1.389 . S
C213 C212 1.443 . S
C213 C214 1.340 . S
C213 H253 0.951 . S
C214 C213 1.340 . S
C214 C215 1.439 . S
C214 H254 0.950 . S
C215 C214 1.439 . S
C215 N216 1.374 . S
C215 C249 1.395 . S
N216 C212 1.376 . S
N216 C215 1.374 . S
N216 Co217 2.008 . S
Co217 N216 2.008 . S
Co217 N218 1.995 . S
Co217 N223 2.008 . S
Co217 N228 1.995 . S
Co217 N233 2.282 . S
Co217 N239 2.282 . S
N218 Co217 1.995 . S
N218 C219 1.376 . S
N218 C222 1.383 . S
C219 N218 1.376 . S
C219 C220 1.446 . S
C219 C249 1.391 . S
C220 C219 1.446 . S
C220 C221 1.339 . S
C220 H255 0.949 . S
C221 C220 1.339 . S
C221 C222 1.439 . S
C221 H256 0.950 . S
C222 N218 1.383 . S
C222 C221 1.439 . S
C222 C251 1.392 . S
N223 Co217 2.008 . S
N223 C224 1.376 . S
N223 C227 1.374 . S
C224 N223 1.376 . S
C224 C225 1.443 . S
C224 C251 1.389 . S
C225 C224 1.443 . S
C225 C226 1.340 . S
C225 H257 0.951 . S
C226 C225 1.340 . S
C226 C227 1.439 . S
C226 H258 0.950 . S
C227 N223 1.374 . S
C227 C226 1.439 . S
C227 C252 1.395 . S
N228 Co217 1.995 . S
N228 C229 1.376 . S
N228 C232 1.370 1_554 S
C229 N228 1.376 . S
C229 C230 1.446 1_554 S
C229 C252 1.391 . S
C230 C229 1.446 1_556 S
C230 C231 1.339 . S
C230 H259 0.949 . S
C231 C230 1.339 . S
C231 C232 1.454 . S
C231 H260 0.950 . S
C232 N228 1.370 1_556 S
C232 C231 1.454 . S
C232 C250 1.390 1_556 S
N233 Co217 2.282 . S
N233 C236 1.332 . S
N233 C238 1.332 . S
C234 C235 1.386 . S
C234 C237 1.388 . S
C235 C234 1.386 . S
C235 C236 1.382 . S
C235 H261 0.950 . S
C236 N233 1.332 . S
C236 C235 1.382 . S
C236 H247 0.952 . S
C237 C234 1.388 . S
C237 C238 1.382 . S
C237 H262 0.950 . S
C238 N233 1.332 . S
C238 C237 1.382 . S
C238 H248 0.948 . S
N239 Co217 2.282 . S
N239 C243 1.332 . S
N239 C244 1.332 . S
C240 C241 1.388 . S
C240 C244 1.382 . S
C240 H263 0.950 . S
C241 C240 1.388 . S
C241 C242 1.386 . S
C242 C241 1.386 . S
C242 C243 1.382 . S
C242 H264 0.950 . S
C243 N239 1.332 . S
C243 C242 1.382 . S
C243 H245 0.952 . S
C244 N239 1.332 . S
C244 C240 1.382 . S
C244 H246 0.948 . S
H245 C243 0.952 . S
H246 C244 0.948 . S
H247 C236 0.952 . S
H248 C238 0.948 . S
C249 C215 1.395 . S
C249 C219 1.391 . S
C250 C212 1.389 . S
C250 C232 1.390 1_554 S
C251 C222 1.392 . S
C251 C224 1.389 . S
C252 C227 1.395 . S
C252 C229 1.391 . S
H253 C213 0.951 . S
H254 C214 0.950 . S
H255 C220 0.949 . S
H256 C221 0.950 . S
H257 C225 0.951 . S
H258 C226 0.950 . S
H259 C230 0.949 . S
H260 C231 0.950 . S
H261 C235 0.950 . S
H262 C237 0.950 . S
H263 C240 0.950 . S
H264 C242 0.950 . S
C265 C266 1.443 . S
C265 N269 1.376 . S
C265 C303 1.389 . S
C266 C265 1.443 . S
C266 C267 1.340 . S
C266 H306 0.951 . S
C267 C266 1.340 . S
C267 C268 1.439 . S
C267 H307 0.950 . S
C268 C267 1.439 . S
C268 N269 1.374 . S
C268 C302 1.395 . S
N269 C265 1.376 . S
N269 C268 1.374 . S
N269 Co270 2.008 . S
Co270 N269 2.008 . S
Co270 N271 1.995 . S
Co270 N276 2.008 . S
Co270 N281 1.995 . S
Co270 N286 2.282 . S
Co270 N292 2.282 . S
N271 Co270 1.995 . S
N271 C272 1.376 . S
N271 C275 1.383 . S
C272 N271 1.376 . S
C272 C273 1.446 . S
C272 C302 1.391 . S
C273 C272 1.446 . S
C273 C274 1.339 . S
C273 H308 0.949 . S
C274 C273 1.339 . S
C274 C275 1.439 . S
C274 H309 0.950 . S
C275 N271 1.383 . S
C275 C274 1.439 . S
C275 C304 1.392 . S
N276 Co270 2.008 . S
N276 C277 1.376 . S
N276 C280 1.374 . S
C277 N276 1.376 . S
C277 C278 1.443 . S
C277 C304 1.389 . S
C278 C277 1.443 . S
C278 C279 1.340 . S
C278 H310 0.951 . S
C279 C278 1.340 . S
C279 C280 1.439 . S
C279 H311 0.950 . S
C280 N276 1.374 . S
C280 C279 1.439 . S
C280 C305 1.395 . S
N281 Co270 1.995 . S
N281 C282 1.376 . S
N281 C285 1.383 . S
C282 N281 1.376 . S
C282 C283 1.446 . S
C282 C305 1.391 . S
C283 C282 1.446 . S
C283 C284 1.339 . S
C283 H312 0.949 . S
C284 C283 1.339 . S
C284 C285 1.439 . S
C284 H313 0.950 . S
C285 N281 1.383 . S
C285 C284 1.439 . S
C285 C303 1.392 . S
N286 Co270 2.282 . S
N286 C289 1.332 . S
N286 C291 1.332 . S
C287 C288 1.386 . S
C287 C290 1.388 . S
C288 C287 1.386 . S
C288 C289 1.382 . S
C288 H314 0.950 . S
C289 N286 1.332 . S
C289 C288 1.382 . S
C289 H300 0.952 . S
C290 C287 1.388 . S
C290 C291 1.382 . S
C290 H315 0.950 . S
C291 N286 1.332 . S
C291 C290 1.382 . S
C291 H301 0.948 . S
N292 Co270 2.282 . S
N292 C296 1.332 . S
N292 C297 1.332 . S
C293 C294 1.388 . S
C293 C297 1.382 . S
C293 H316 0.950 . S
C294 C293 1.388 . S
C294 C295 1.386 . S
C295 C294 1.386 . S
C295 C296 1.382 . S
C295 H317 0.950 . S
C296 N292 1.332 . S
C296 C295 1.382 . S
C296 H298 0.952 . S
C297 N292 1.332 . S
C297 C293 1.382 . S
C297 H299 0.948 . S
H298 C296 0.952 . S
H299 C297 0.948 . S
H300 C289 0.952 . S
H301 C291 0.948 . S
C302 C268 1.395 . S
C302 C272 1.391 . S
C303 C265 1.389 . S
C303 C285 1.392 . S
C304 C275 1.392 . S
C304 C277 1.389 . S
C305 C280 1.395 . S
C305 C282 1.391 . S
H306 C266 0.951 . S
H307 C267 0.950 . S
H308 C273 0.949 . S
H309 C274 0.950 . S
H310 C278 0.951 . S
H311 C279 0.950 . S
H312 C283 0.949 . S
H313 C284 0.950 . S
H314 C288 0.950 . S
H315 C290 0.950 . S
H316 C293 0.950 . S
H317 C295 0.950 . S
C318 C319 1.443 . S
C318 N322 1.376 . S
C318 C356 1.389 . S
C319 C318 1.443 . S
C319 C320 1.340 . S
C319 H359 0.951 . S
C320 C319 1.340 . S
C320 C321 1.439 . S
C320 H360 0.950 . S
C321 C320 1.439 . S
C321 N322 1.374 . S
C321 C355 1.395 . S
N322 C318 1.376 . S
N322 C321 1.374 . S
N322 Co323 2.008 . S
Co323 N322 2.008 . S
Co323 N324 1.995 . S
Co323 N329 2.008 . S
Co323 N334 1.995 . S
Co323 N339 2.282 . S
Co323 N345 2.282 . S
N324 Co323 1.995 . S
N324 C325 1.376 . S
N324 C328 1.383 . S
C325 N324 1.376 . S
C325 C326 1.446 . S
C325 C355 1.391 . S
C326 C325 1.446 . S
C326 C327 1.339 . S
C326 H361 0.949 . S
C327 C326 1.339 . S
C327 C328 1.439 . S
C327 H362 0.950 . S
C328 N324 1.383 . S
C328 C327 1.439 . S
C328 C357 1.392 . S
N329 Co323 2.008 . S
N329 C330 1.376 . S
N329 C333 1.374 . S
C330 N329 1.376 . S
C330 C331 1.443 . S
C330 C357 1.389 . S
C331 C330 1.443 . S
C331 C332 1.340 . S
C331 H363 0.951 . S
C332 C331 1.340 . S
C332 C333 1.439 . S
C332 H364 0.950 . S
C333 N329 1.374 . S
C333 C332 1.439 . S
C333 C358 1.395 . S
N334 Co323 1.995 . S
N334 C335 1.376 . S
N334 C338 1.383 . S
C335 N334 1.376 . S
C335 C336 1.446 . S
C335 C358 1.391 . S
C336 C335 1.446 . S
C336 C337 1.339 . S
C336 H365 0.949 . S
C337 C336 1.339 . S
C337 C338 1.439 . S
C337 H366 0.950 . S
C338 N334 1.383 . S
C338 C337 1.439 . S
C338 C356 1.392 . S
N339 Co323 2.282 . S
N339 C342 1.332 . S
N339 C344 1.332 . S
C340 C341 1.386 . S
C340 C343 1.388 . S
C341 C340 1.386 . S
C341 C342 1.382 . S
C341 H367 0.950 . S
C342 N339 1.332 . S
C342 C341 1.382 . S
C342 H353 0.952 . S
C343 C340 1.388 . S
C343 C344 1.382 . S
C343 H368 0.950 . S
C344 N339 1.332 . S
C344 C343 1.382 . S
C344 H354 0.948 . S
N345 Co323 2.282 . S
N345 C349 1.332 . S
N345 C350 1.332 . S
C346 C347 1.388 . S
C346 C350 1.382 . S
C346 H369 0.950 . S
C347 C346 1.388 . S
C347 C348 1.386 . S
C348 C347 1.386 . S
C348 C349 1.382 . S
C348 H370 0.950 . S
C349 N345 1.332 . S
C349 C348 1.382 . S
C349 H351 0.952 . S
C350 N345 1.332 . S
C350 C346 1.382 . S
C350 H352 0.948 . S
H351 C349 0.952 . S
H352 C350 0.948 . S
H353 C342 0.952 . S
H354 C344 0.948 . S
C355 C321 1.395 . S
C355 C325 1.391 . S
C356 C318 1.389 . S
C356 C338 1.392 . S
C357 C328 1.392 . S
C357 C330 1.389 . S
C358 C333 1.395 . S
C358 C335 1.391 . S
H359 C319 0.951 . S
H360 C320 0.950 . S
H361 C326 0.949 . S
H362 C327 0.950 . S
H363 C331 0.951 . S
H364 C332 0.950 . S
H365 C336 0.949 . S
H366 C337 0.950 . S
H367 C341 0.950 . S
H368 C343 0.950 . S
H369 C346 0.950 . S
H370 C348 0.950 . S
C371 C372 1.443 . S
C371 N375 1.376 . S
C371 C409 1.389 . S
C372 C371 1.443 . S
C372 C373 1.340 . S
C372 H412 0.951 . S
C373 C372 1.340 . S
C373 C374 1.439 . S
C373 H413 0.950 . S
C374 C373 1.439 . S
C374 N375 1.374 . S
C374 C408 1.395 . S
N375 C371 1.376 . S
N375 C374 1.374 . S
N375 Co376 2.008 . S
Co376 N375 2.008 . S
Co376 N377 1.995 . S
Co376 N382 2.008 . S
Co376 N387 1.995 . S
Co376 N392 2.282 . S
Co376 N398 2.282 . S
N377 Co376 1.995 . S
N377 C378 1.376 . S
N377 C381 1.383 . S
C378 N377 1.376 . S
C378 C379 1.446 . S
C378 C408 1.391 . S
C379 C378 1.446 . S
C379 C380 1.339 . S
C379 H414 0.949 . S
C380 C379 1.339 . S
C380 C381 1.439 . S
C380 H415 0.950 . S
C381 N377 1.383 . S
C381 C380 1.439 . S
C381 C410 1.392 . S
N382 Co376 2.008 . S
N382 C383 1.376 . S
N382 C386 1.374 . S
C383 N382 1.376 . S
C383 C384 1.443 . S
C383 C410 1.389 . S
C384 C383 1.443 . S
C384 C385 1.340 . S
C384 H416 0.951 . S
C385 C384 1.340 . S
C385 C386 1.439 . S
C385 H417 0.950 . S
C386 N382 1.374 . S
C386 C385 1.439 . S
C386 C411 1.395 . S
N387 Co376 1.995 . S
N387 C388 1.376 . S
N387 C391 1.383 . S
C388 N387 1.376 . S
C388 C389 1.446 . S
C388 C411 1.391 . S
C389 C388 1.446 . S
C389 C390 1.339 . S
C389 H418 0.949 . S
C390 C389 1.339 . S
C390 C391 1.439 . S
C390 H419 0.950 . S
C391 N387 1.383 . S
C391 C390 1.439 . S
C391 C409 1.392 . S
N392 Co376 2.282 . S
N392 C395 1.332 . S
N392 C397 1.332 . S
C393 C394 1.386 . S
C393 C396 1.388 . S
C394 C393 1.386 . S
C394 C395 1.382 . S
C394 H420 0.950 . S
C395 N392 1.332 . S
C395 C394 1.382 . S
C395 H406 0.952 . S
C396 C393 1.388 . S
C396 C397 1.382 . S
C396 H421 0.950 . S
C397 N392 1.332 . S
C397 C396 1.382 . S
C397 H407 0.948 . S
N398 Co376 2.282 . S
N398 C402 1.332 . S
N398 C403 1.332 . S
C399 C400 1.388 . S
C399 C403 1.382 . S
C399 H422 0.950 . S
C400 C399 1.388 . S
C400 C401 1.386 . S
C401 C400 1.386 . S
C401 C402 1.382 . S
C401 H423 0.950 . S
C402 N398 1.332 . S
C402 C401 1.382 . S
C402 H404 0.952 . S
C403 N398 1.332 . S
C403 C399 1.382 . S
C403 H405 0.948 . S
H404 C402 0.952 . S
H405 C403 0.948 . S
H406 C395 0.952 . S
H407 C397 0.948 . S
C408 C374 1.395 . S
C408 C378 1.391 . S
C409 C371 1.389 . S
C409 C391 1.392 . S
C410 C381 1.392 . S
C410 C383 1.389 . S
C411 C386 1.395 . S
C411 C388 1.391 . S
H412 C372 0.951 . S
H413 C373 0.950 . S
H414 C379 0.949 . S
H415 C380 0.950 . S
H416 C384 0.951 . S
H417 C385 0.950 . S
H418 C389 0.949 . S
H419 C390 0.950 . S
H420 C394 0.950 . S
H421 C396 0.950 . S
H422 C399 0.950 . S
H423 C401 0.950 . S
C424 C425 1.443 . S
C424 N428 1.376 . S
C424 C462 1.389 . S
C425 C424 1.443 . S
C425 C426 1.340 . S
C425 H465 0.951 . S
C426 C425 1.340 . S
C426 C427 1.439 . S
C426 H466 0.950 . S
C427 C426 1.439 . S
C427 N428 1.374 . S
C427 C461 1.395 . S
N428 C424 1.376 . S
N428 C427 1.374 . S
N428 Co429 2.008 . S
Co429 N428 2.008 . S
Co429 N430 1.995 . S
Co429 N435 2.008 . S
Co429 N440 1.995 . S
Co429 N445 2.282 . S
Co429 N451 2.282 . S
N430 Co429 1.995 . S
N430 C431 1.376 . S
N430 C434 1.383 . S
C431 N430 1.376 . S
C431 C432 1.446 . S
C431 C461 1.391 . S
C432 C431 1.446 . S
C432 C433 1.339 . S
C432 H467 0.949 . S
C433 C432 1.339 . S
C433 C434 1.439 . S
C433 H468 0.950 . S
C434 N430 1.383 . S
C434 C433 1.439 . S
C434 C463 1.392 . S
N435 Co429 2.008 . S
N435 C436 1.376 . S
N435 C439 1.374 . S
C436 N435 1.376 . S
C436 C437 1.443 . S
C436 C463 1.389 . S
C437 C436 1.443 . S
C437 C438 1.340 . S
C437 H469 0.951 . S
C438 C437 1.340 . S
C438 C439 1.439 . S
C438 H470 0.950 . S
C439 N435 1.374 . S
C439 C438 1.439 . S
C439 C464 1.395 . S
N440 Co429 1.995 . S
N440 C441 1.376 . S
N440 C444 1.383 . S
C441 N440 1.376 . S
C441 C442 1.446 . S
C441 C464 1.391 . S
C442 C441 1.446 . S
C442 C443 1.339 . S
C442 H471 0.949 . S
C443 C442 1.339 . S
C443 C444 1.439 . S
C443 H472 0.950 . S
C444 N440 1.383 . S
C444 C443 1.439 . S
C444 C462 1.392 . S
N445 Co429 2.282 . S
N445 C448 1.332 . S
N445 C450 1.332 . S
C446 C447 1.386 . S
C446 C449 1.388 . S
C447 C446 1.386 . S
C447 C448 1.382 . S
C447 H473 0.950 . S
C448 N445 1.332 . S
C448 C447 1.382 . S
C448 H459 0.952 . S
C449 C446 1.388 . S
C449 C450 1.382 . S
C449 H474 0.950 . S
C450 N445 1.332 . S
C450 C449 1.382 . S
C450 H460 0.948 . S
N451 Co429 2.282 . S
N451 C455 1.332 . S
N451 C456 1.332 . S
C452 C453 1.388 . S
C452 C456 1.382 . S
C452 H475 0.950 . S
C453 C452 1.388 . S
C453 C454 1.386 . S
C454 C453 1.386 . S
C454 C455 1.382 . S
C454 H476 0.950 . S
C455 N451 1.332 . S
C455 C454 1.382 . S
C455 H457 0.952 . S
C456 N451 1.332 . S
C456 C452 1.382 . S
C456 H458 0.948 . S
H457 C455 0.952 . S
H458 C456 0.948 . S
H459 C448 0.952 . S
H460 C450 0.948 . S
C461 C427 1.395 . S
C461 C431 1.391 . S
C462 C424 1.389 . S
C462 C444 1.392 . S
C463 C434 1.392 . S
C463 C436 1.389 . S
C464 C439 1.395 . S
C464 C441 1.391 . S
H465 C425 0.951 . S
H466 C426 0.950 . S
H467 C432 0.949 . S
H468 C433 0.950 . S
H469 C437 0.951 . S
H470 C438 0.950 . S
H471 C442 0.949 . S
H472 C443 0.950 . S
H473 C447 0.950 . S
H474 C449 0.950 . S
H475 C452 0.950 . S
H476 C454 0.950 . S
C477 C478 1.443 . S
C477 N481 1.376 . S
C477 C515 1.389 . S
C478 C477 1.443 . S
C478 C479 1.340 . S
C478 H518 0.951 . S
C479 C478 1.340 . S
C479 C480 1.439 . S
C479 H519 0.950 . S
C480 C479 1.439 . S
C480 N481 1.374 . S
C480 C514 1.395 . S
N481 C477 1.376 . S
N481 C480 1.374 . S
N481 Co482 2.008 . S
Co482 N481 2.008 . S
Co482 N483 1.995 . S
Co482 N488 2.008 . S
Co482 N493 1.995 . S
Co482 N498 2.282 . S
Co482 N504 2.282 . S
N483 Co482 1.995 . S
N483 C484 1.376 . S
N483 C487 1.383 . S
C484 N483 1.376 . S
C484 C485 1.446 . S
C484 C514 1.391 . S
C485 C484 1.446 . S
C485 C486 1.339 . S
C485 H520 0.949 . S
C486 C485 1.339 . S
C486 C487 1.439 . S
C486 H521 0.950 . S
C487 N483 1.383 . S
C487 C486 1.439 . S
C487 C516 1.392 . S
N488 Co482 2.008 . S
N488 C489 1.376 . S
N488 C492 1.374 . S
C489 N488 1.376 . S
C489 C490 1.443 . S
C489 C516 1.389 . S
C490 C489 1.443 . S
C490 C491 1.340 . S
C490 H522 0.951 . S
C491 C490 1.340 . S
C491 C492 1.439 . S
C491 H523 0.950 . S
C492 N488 1.374 . S
C492 C491 1.439 . S
C492 C517 1.395 . S
N493 Co482 1.995 . S
N493 C494 1.376 . S
N493 C497 1.370 1_556 S
C494 N493 1.376 . S
C494 C495 1.446 1_556 S
C494 C517 1.391 . S
C495 C494 1.446 1_554 S
C495 C496 1.339 . S
C495 H524 0.949 . S
C496 C495 1.339 . S
C496 C497 1.454 . S
C496 H525 0.950 . S
C497 N493 1.370 1_554 S
C497 C496 1.454 . S
C497 C515 1.390 1_554 S
N498 Co482 2.282 . S
N498 C501 1.332 . S
N498 C503 1.332 . S
C499 C500 1.386 . S
C499 C502 1.388 . S
C500 C499 1.386 . S
C500 C501 1.382 . S
C500 H526 0.950 . S
C501 N498 1.332 . S
C501 C500 1.382 . S
C501 H512 0.952 . S
C502 C499 1.388 . S
C502 C503 1.382 . S
C502 H527 0.950 . S
C503 N498 1.332 . S
C503 C502 1.382 . S
C503 H513 0.948 . S
N504 Co482 2.282 . S
N504 C508 1.332 . S
N504 C509 1.332 . S
C505 C506 1.388 . S
C505 C509 1.382 . S
C505 H528 0.950 . S
C506 C505 1.388 . S
C506 C507 1.386 . S
C507 C506 1.386 . S
C507 C508 1.382 . S
C507 H529 0.950 . S
C508 N504 1.332 . S
C508 C507 1.382 . S
C508 H510 0.952 . S
C509 N504 1.332 . S
C509 C505 1.382 . S
C509 H511 0.948 . S
H510 C508 0.952 . S
H511 C509 0.948 . S
H512 C501 0.952 . S
H513 C503 0.948 . S
C514 C480 1.395 . S
C514 C484 1.391 . S
C515 C477 1.389 . S
C515 C497 1.390 1_556 S
C516 C487 1.392 . S
C516 C489 1.389 . S
C517 C492 1.395 . S
C517 C494 1.391 . S
H518 C478 0.951 . S
H519 C479 0.950 . S
H520 C485 0.949 . S
H521 C486 0.950 . S
H522 C490 0.951 . S
H523 C491 0.950 . S
H524 C495 0.949 . S
H525 C496 0.950 . S
H526 C500 0.950 . S
H527 C502 0.950 . S
H528 C505 0.950 . S
H529 C507 0.950 . S
C530 C531 1.443 . S
C530 N534 1.376 . S
C530 C568 1.389 . S
C531 C530 1.443 . S
C531 C532 1.340 . S
C531 H571 0.951 . S
C532 C531 1.340 . S
C532 C533 1.439 . S
C532 H572 0.950 . S
C533 C532 1.439 . S
C533 N534 1.374 . S
C533 C567 1.395 . S
N534 C530 1.376 . S
N534 C533 1.374 . S
N534 Co535 2.008 . S
Co535 N534 2.008 . S
Co535 N536 1.995 . S
Co535 N541 2.008 . S
Co535 N546 1.995 . S
Co535 N551 2.282 . S
Co535 N557 2.282 . S
N536 Co535 1.995 . S
N536 C537 1.376 . S
N536 C540 1.383 . S
C537 N536 1.376 . S
C537 C538 1.446 1_554 S
C537 C567 1.391 . S
C538 C537 1.446 1_556 S
C538 C539 1.339 . S
C538 H573 0.949 . S
C539 C538 1.339 . S
C539 C540 1.439 1_556 S
C539 H574 0.950 . S
C540 N536 1.383 . S
C540 C539 1.439 1_554 S
C540 C569 1.392 . S
N541 Co535 2.008 . S
N541 C542 1.376 . S
N541 C545 1.374 . S
C542 N541 1.376 . S
C542 C543 1.443 . S
C542 C569 1.389 . S
C543 C542 1.443 . S
C543 C544 1.340 . S
C543 H575 0.951 . S
C544 C543 1.340 . S
C544 C545 1.439 . S
C544 H576 0.950 . S
C545 N541 1.374 . S
C545 C544 1.439 . S
C545 C570 1.395 . S
N546 Co535 1.995 . S
N546 C547 1.376 . S
N546 C550 1.383 . S
C547 N546 1.376 . S
C547 C548 1.446 . S
C547 C570 1.391 . S
C548 C547 1.446 . S
C548 C549 1.339 . S
C548 H577 0.949 . S
C549 C548 1.339 . S
C549 C550 1.439 . S
C549 H578 0.950 . S
C550 N546 1.383 . S
C550 C549 1.439 . S
C550 C568 1.392 . S
N551 Co535 2.282 . S
N551 C554 1.332 . S
N551 C556 1.332 . S
C552 C553 1.386 . S
C552 C555 1.388 . S
C553 C552 1.386 . S
C553 C554 1.382 . S
C553 H579 0.950 . S
C554 N551 1.332 . S
C554 C553 1.382 . S
C554 H565 0.952 . S
C555 C552 1.388 . S
C555 C556 1.382 . S
C555 H580 0.950 . S
C556 N551 1.332 . S
C556 C555 1.382 . S
C556 H566 0.948 . S
N557 Co535 2.282 . S
N557 C561 1.332 . S
N557 C562 1.332 . S
C558 C559 1.388 . S
C558 C562 1.382 . S
C558 H581 0.950 . S
C559 C558 1.388 . S
C559 C560 1.386 . S
C560 C559 1.386 . S
C560 C561 1.382 . S
C560 H582 0.950 . S
C561 N557 1.332 . S
C561 C560 1.382 . S
C561 H563 0.952 . S
C562 N557 1.332 . S
C562 C558 1.382 . S
C562 H564 0.948 . S
H563 C561 0.952 . S
H564 C562 0.948 . S
H565 C554 0.952 . S
H566 C556 0.948 . S
C567 C533 1.395 . S
C567 C537 1.391 . S
C568 C530 1.389 . S
C568 C550 1.392 . S
C569 C540 1.392 . S
C569 C542 1.389 . S
C570 C545 1.395 . S
C570 C547 1.391 . S
H571 C531 0.951 . S
H572 C532 0.950 . S
H573 C538 0.949 . S
H574 C539 0.950 . S
H575 C543 0.951 . S
H576 C544 0.950 . S
H577 C548 0.949 . S
H578 C549 0.950 . S
H579 C553 0.950 . S
H580 C555 0.950 . S
H581 C558 0.950 . S
H582 C560 0.950 . S
C583 C584 1.443 . S
C583 N587 1.376 . S
C583 C621 1.389 . S
C584 C583 1.443 . S
C584 C585 1.340 . S
C584 H624 0.951 . S
C585 C584 1.340 . S
C585 C586 1.439 . S
C585 H625 0.950 . S
C586 C585 1.439 . S
C586 N587 1.374 . S
C586 C620 1.395 . S
N587 C583 1.376 . S
N587 C586 1.374 . S
N587 Co588 2.008 . S
Co588 N587 2.008 . S
Co588 N589 1.995 . S
Co588 N594 2.008 . S
Co588 N599 1.995 . S
Co588 N604 2.282 . S
Co588 N610 2.282 . S
N589 Co588 1.995 . S
N589 C590 1.376 . S
N589 C593 1.383 . S
C590 N589 1.376 . S
C590 C591 1.446 . S
C590 C620 1.391 . S
C591 C590 1.446 . S
C591 C592 1.339 . S
C591 H626 0.949 . S
C592 C591 1.339 . S
C592 C593 1.439 . S
C592 H627 0.950 . S
C593 N589 1.383 . S
C593 C592 1.439 . S
C593 C622 1.392 . S
N594 Co588 2.008 . S
N594 C595 1.376 . S
N594 C598 1.374 . S
C595 N594 1.376 . S
C595 C596 1.443 . S
C595 C622 1.389 . S
C596 C595 1.443 . S
C596 C597 1.340 . S
C596 H628 0.951 . S
C597 C596 1.340 . S
C597 C598 1.439 . S
C597 H629 0.950 . S
C598 N594 1.374 . S
C598 C597 1.439 . S
C598 C623 1.395 . S
N599 Co588 1.995 . S
N599 C600 1.376 . S
N599 C603 1.383 . S
C600 N599 1.376 . S
C600 C601 1.446 . S
C600 C623 1.391 . S
C601 C600 1.446 . S
C601 C602 1.339 . S
C601 H630 0.949 . S
C602 C601 1.339 . S
C602 C603 1.439 . S
C602 H631 0.950 . S
C603 N599 1.383 . S
C603 C602 1.439 . S
C603 C621 1.392 . S
N604 Co588 2.282 . S
N604 C607 1.332 . S
N604 C609 1.332 . S
C605 C606 1.386 . S
C605 C608 1.388 . S
C606 C605 1.386 . S
C606 C607 1.382 . S
C606 H632 0.950 . S
C607 N604 1.332 . S
C607 C606 1.382 . S
C607 H618 0.952 . S
C608 C605 1.388 . S
C608 C609 1.382 . S
C608 H633 0.950 . S
C609 N604 1.332 . S
C609 C608 1.382 . S
C609 H619 0.948 . S
N610 Co588 2.282 . S
N610 C614 1.332 . S
N610 C615 1.332 . S
C611 C612 1.388 . S
C611 C615 1.382 . S
C611 H634 0.950 . S
C612 C611 1.388 . S
C612 C613 1.386 . S
C613 C612 1.386 . S
C613 C614 1.382 . S
C613 H635 0.950 . S
C614 N610 1.332 . S
C614 C613 1.382 . S
C614 H616 0.952 . S
C615 N610 1.332 . S
C615 C611 1.382 . S
C615 H617 0.948 . S
H616 C614 0.952 . S
H617 C615 0.948 . S
H618 C607 0.952 . S
H619 C609 0.948 . S
C620 C586 1.395 . S
C620 C590 1.391 . S
C621 C583 1.389 . S
C621 C603 1.392 . S
C622 C593 1.392 . S
C622 C595 1.389 . S
C623 C598 1.395 . S
C623 C600 1.391 . S
H624 C584 0.951 . S
H625 C585 0.950 . S
H626 C591 0.949 . S
H627 C592 0.950 . S
H628 C596 0.951 . S
H629 C597 0.950 . S
H630 C601 0.949 . S
H631 C602 0.950 . S
H632 C606 0.950 . S
H633 C608 0.950 . S
H634 C611 0.950 . S
H635 C613 0.950 . S
H636 C642 0.930 . S
H637 C646 0.930 . S
H638 C651 0.929 . S
H639 C649 0.929 . S
H640 C644 0.929 . S
H641 C650 0.929 . S
C642 H636 0.930 . S
C642 C643 1.367 . S
C642 C650 1.378 . S
C643 C642 1.367 . S
C643 C651 1.433 . S
C644 H640 0.929 . S
C644 C646 1.378 . S
C644 C648 1.350 . S
C645 C648 1.463 . S
C645 C650 1.350 . S
C645 N653 1.427 . S
C646 H637 0.930 . S
C646 C644 1.378 . S
C646 C647 1.367 . S
C647 C646 1.367 . S
C647 C649 1.433 . S
C648 C644 1.350 . S
C648 C645 1.463 . S
C648 N652 1.427 . S
C649 H639 0.929 . S
C649 C647 1.433 . S
C649 N652 1.384 . S
C650 H641 0.929 . S
C650 C642 1.378 . S
C650 C645 1.350 . S
C651 H638 0.929 . S
C651 C643 1.433 . S
C651 N653 1.384 . S
N652 C648 1.427 . S
N652 C649 1.384 . S
N653 C645 1.427 . S
N653 C651 1.384 . S
H654 C660 0.930 . S
H655 C664 0.930 . S
H656 C669 0.929 . S
H657 C667 0.929 . S
H658 C662 0.929 . S
H659 C668 0.929 . S
C660 H654 0.930 . S
C660 C661 1.367 . S
C660 C668 1.378 . S
C661 C660 1.367 . S
C661 C669 1.433 . S
C662 H658 0.929 . S
C662 C664 1.378 . S
C662 C666 1.350 . S
C663 C666 1.463 . S
C663 C668 1.350 . S
C663 N671 1.427 . S
C664 H655 0.930 . S
C664 C662 1.378 . S
C664 C665 1.367 . S
C665 C664 1.367 . S
C665 C667 1.433 . S
C666 C662 1.350 . S
C666 C663 1.463 . S
C666 N670 1.427 . S
C667 H657 0.929 . S
C667 C665 1.433 . S
C667 N670 1.384 . S
C668 H659 0.929 . S
C668 C660 1.378 . S
C668 C663 1.350 . S
C669 H656 0.929 . S
C669 C661 1.433 . S
C669 N671 1.384 . S
N670 C666 1.427 . S
N670 C667 1.384 . S
N671 C663 1.427 . S
N671 C669 1.384 . S
H672 C678 0.930 . S
H673 C682 0.930 . S
H674 C687 0.929 . S
H675 C685 0.929 . S
H676 C680 0.929 . S
H677 C686 0.929 . S
C678 H672 0.930 . S
C678 C679 1.367 . S
C678 C686 1.378 . S
C679 C678 1.367 . S
C679 C687 1.433 . S
C680 H676 0.929 . S
C680 C682 1.378 . S
C680 C684 1.350 . S
C681 C684 1.463 . S
C681 C686 1.350 . S
C681 N689 1.427 . S
C682 H673 0.930 . S
C682 C680 1.378 . S
C682 C683 1.367 . S
C683 C682 1.367 . S
C683 C685 1.433 . S
C684 C680 1.350 . S
C684 C681 1.463 . S
C684 N688 1.427 . S
C685 H675 0.929 . S
C685 C683 1.433 . S
C685 N688 1.384 . S
C686 H677 0.929 . S
C686 C678 1.378 . S
C686 C681 1.350 . S
C687 H674 0.929 . S
C687 C679 1.433 . S
C687 N689 1.384 . S
N688 C684 1.427 . S
N688 C685 1.384 . S
N689 C681 1.427 . S
N689 C687 1.384 . S
H690 C696 0.930 . S
H691 C700 0.930 . S
H692 C705 0.929 . S
H693 C703 0.929 . S
H694 C698 0.929 . S
H695 C704 0.929 . S
C696 H690 0.930 . S
C696 C697 1.367 . S
C696 C704 1.378 . S
C697 C696 1.367 . S
C697 C705 1.433 . S
C698 H694 0.929 . S
C698 C700 1.378 . S
C698 C702 1.350 . S
C699 C702 1.463 . S
C699 C704 1.350 . S
C699 N707 1.427 . S
C700 H691 0.930 . S
C700 C698 1.378 . S
C700 C701 1.367 . S
C701 C700 1.367 . S
C701 C703 1.433 . S
C702 C698 1.350 . S
C702 C699 1.463 . S
C702 N706 1.427 . S
C703 H693 0.929 . S
C703 C701 1.433 . S
C703 N706 1.384 . S
C704 H695 0.929 . S
C704 C696 1.378 . S
C704 C699 1.350 . S
C705 H692 0.929 . S
C705 C697 1.433 . S
C705 N707 1.384 . S
N706 C702 1.427 . S
N706 C703 1.384 . S
N707 C699 1.427 . S
N707 C705 1.384 . S
H708 C714 0.930 . S
H709 C718 0.930 . S
H710 C723 0.929 . S
H711 C721 0.929 . S
H712 C716 0.929 . S
H713 C722 0.929 . S
C714 H708 0.930 . S
C714 C715 1.367 . S
C714 C722 1.378 . S
C715 C714 1.367 . S
C715 C723 1.433 . S
C716 H712 0.929 . S
C716 C718 1.378 . S
C716 C720 1.350 . S
C717 C720 1.463 . S
C717 C722 1.350 . S
C717 N725 1.427 . S
C718 H709 0.930 . S
C718 C716 1.378 . S
C718 C719 1.367 . S
C719 C718 1.367 . S
C719 C721 1.433 . S
C720 C716 1.350 . S
C720 C717 1.463 . S
C720 N724 1.427 . S
C721 H711 0.929 . S
C721 C719 1.433 . S
C721 N724 1.384 . S
C722 H713 0.929 . S
C722 C714 1.378 . S
C722 C717 1.350 . S
C723 H710 0.929 . S
C723 C715 1.433 . S
C723 N725 1.384 . S
N724 C720 1.427 . S
N724 C721 1.384 . S
N725 C717 1.427 . S
N725 C723 1.384 . S
H726 C732 0.930 . S
H727 C736 0.930 . S
H728 C741 0.929 . S
H729 C739 0.929 . S
H730 C734 0.929 . S
H731 C740 0.929 . S
C732 H726 0.930 . S
C732 C733 1.367 . S
C732 C740 1.378 . S
C733 C732 1.367 . S
C733 C741 1.433 . S
C734 H730 0.929 . S
C734 C736 1.378 . S
C734 C738 1.350 . S
C735 C738 1.463 . S
C735 C740 1.350 . S
C735 N743 1.427 . S
C736 H727 0.930 . S
C736 C734 1.378 . S
C736 C737 1.367 . S
C737 C736 1.367 . S
C737 C739 1.433 . S
C738 C734 1.350 . S
C738 C735 1.463 . S
C738 N742 1.427 . S
C739 H729 0.929 . S
C739 C737 1.433 . S
C739 N742 1.384 . S
C740 H731 0.929 . S
C740 C732 1.378 . S
C740 C735 1.350 . S
C741 H728 0.929 . S
C741 C733 1.433 . S
C741 N743 1.384 . S
N742 C738 1.427 . S
N742 C739 1.384 . S
N743 C735 1.427 . S
N743 C741 1.384 . S
H744 C750 0.930 . S
H745 C754 0.930 . S
H746 C759 0.929 . S
H747 C757 0.929 . S
H748 C752 0.929 . S
H749 C758 0.929 . S
C750 H744 0.930 . S
C750 C751 1.367 . S
C750 C758 1.378 . S
C751 C750 1.367 . S
C751 C759 1.433 . S
C752 H748 0.929 . S
C752 C754 1.378 . S
C752 C756 1.350 . S
C753 C756 1.463 . S
C753 C758 1.350 . S
C753 N761 1.427 . S
C754 H745 0.930 . S
C754 C752 1.378 . S
C754 C755 1.367 . S
C755 C754 1.367 . S
C755 C757 1.433 . S
C756 C752 1.350 . S
C756 C753 1.463 . S
C756 N760 1.427 . S
C757 H747 0.929 . S
C757 C755 1.433 . S
C757 N760 1.384 . S
C758 H749 0.929 . S
C758 C750 1.378 . S
C758 C753 1.350 . S
C759 H746 0.929 . S
C759 C751 1.433 . S
C759 N761 1.384 . S
N760 C756 1.427 . S
N760 C757 1.384 . S
N761 C753 1.427 . S
N761 C759 1.384 . S
H762 C768 0.930 . S
H763 C772 0.930 . S
H764 C777 0.929 . S
H765 C775 0.929 . S
H766 C770 0.929 . S
H767 C776 0.929 . S
C768 H762 0.930 . S
C768 C769 1.367 . S
C768 C776 1.378 . S
C769 C768 1.367 . S
C769 C777 1.433 . S
C770 H766 0.929 . S
C770 C772 1.378 . S
C770 C774 1.350 . S
C771 C774 1.463 . S
C771 C776 1.350 . S
C771 N779 1.427 . S
C772 H763 0.930 . S
C772 C770 1.378 . S
C772 C773 1.367 . S
C773 C772 1.367 . S
C773 C775 1.433 . S
C774 C770 1.350 . S
C774 C771 1.463 . S
C774 N778 1.427 . S
C775 H765 0.929 . S
C775 C773 1.433 . S
C775 N778 1.384 . S
C776 H767 0.929 . S
C776 C768 1.378 . S
C776 C771 1.350 . S
C777 H764 0.929 . S
C777 C769 1.433 . S
C777 N779 1.384 . S
N778 C774 1.427 . S
N778 C775 1.384 . S
N779 C771 1.427 . S
N779 C777 1.384 . S
H780 C786 0.930 1_554 S
H781 C790 0.930 . S
H782 C795 0.929 . S
H783 C793 0.929 . S
H784 C788 0.929 . S
H785 C794 0.929 . S
C786 H780 0.930 1_556 S
C786 C787 1.367 . S
C786 C794 1.378 . S
C787 C786 1.367 . S
C787 C795 1.433 . S
C788 H784 0.929 . S
C788 C790 1.378 . S
C788 C792 1.350 . S
C789 C792 1.463 . S
C789 C794 1.350 . S
C789 N797 1.427 . S
C790 H781 0.930 . S
C790 C788 1.378 . S
C790 C791 1.367 . S
C791 C790 1.367 . S
C791 C793 1.433 . S
C792 C788 1.350 . S
C792 C789 1.463 . S
C792 N796 1.427 . S
C793 H783 0.929 . S
C793 C791 1.433 . S
C793 N796 1.384 . S
C794 H785 0.929 . S
C794 C786 1.378 . S
C794 C789 1.350 . S
C795 H782 0.929 . S
C795 C787 1.433 . S
C795 N797 1.384 . S
N796 C792 1.427 . S
N796 C793 1.384 . S
N797 C789 1.427 . S
N797 C795 1.384 . S
H798 C804 0.930 . S
H799 C808 0.930 1_556 S
H800 C813 0.929 . S
H801 C811 0.929 . S
H802 C806 0.929 . S
H803 C812 0.929 . S
C804 H798 0.930 . S
C804 C805 1.367 . S
C804 C812 1.378 . S
C805 C804 1.367 . S
C805 C813 1.433 . S
C806 H802 0.929 . S
C806 C808 1.378 . S
C806 C810 1.350 . S
C807 C810 1.463 . S
C807 C812 1.350 . S
C807 N815 1.427 . S
C808 H799 0.930 1_554 S
C808 C806 1.378 . S
C808 C809 1.367 . S
C809 C808 1.367 . S
C809 C811 1.433 . S
C810 C806 1.350 . S
C810 C807 1.463 . S
C810 N814 1.427 . S
C811 H801 0.929 . S
C811 C809 1.433 . S
C811 N814 1.384 . S
C812 H803 0.929 . S
C812 C804 1.378 . S
C812 C807 1.350 . S
C813 H800 0.929 . S
C813 C805 1.433 . S
C813 N815 1.384 . S
N814 C810 1.427 . S
N814 C811 1.384 . S
N815 C807 1.427 . S
N815 C813 1.384 . S
H816 C822 0.930 . S
H817 C826 0.930 . S
H818 C831 0.929 . S
H819 C829 0.929 . S
H820 C824 0.929 . S
H821 C830 0.929 . S
C822 H816 0.930 . S
C822 C823 1.367 . S
C822 C830 1.378 . S
C823 C822 1.367 . S
C823 C831 1.433 . S
C824 H820 0.929 . S
C824 C826 1.378 . S
C824 C828 1.350 . S
C825 C828 1.463 . S
C825 C830 1.350 . S
C825 N833 1.427 . S
C826 H817 0.930 . S
C826 C824 1.378 . S
C826 C827 1.367 . S
C827 C826 1.367 . S
C827 C829 1.433 . S
C828 C824 1.350 . S
C828 C825 1.463 . S
C828 N832 1.427 . S
C829 H819 0.929 . S
C829 C827 1.433 . S
C829 N832 1.384 . S
C830 H821 0.929 . S
C830 C822 1.378 . S
C830 C825 1.350 . S
C831 H818 0.929 . S
C831 C823 1.433 . S
C831 N833 1.384 . S
N832 C828 1.427 . S
N832 C829 1.384 . S
N833 C825 1.427 . S
N833 C831 1.384 . S
H834 C840 0.930 . S
H835 C844 0.930 . S
H836 C849 0.929 . S
H837 C847 0.929 . S
H838 C842 0.929 . S
H839 C848 0.929 . S
C840 H834 0.930 . S
C840 C841 1.367 . S
C840 C848 1.378 . S
C841 C840 1.367 . S
C841 C849 1.433 . S
C842 H838 0.929 . S
C842 C844 1.378 . S
C842 C846 1.350 . S
C843 C846 1.463 . S
C843 C848 1.350 . S
C843 N851 1.427 . S
C844 H835 0.930 . S
C844 C842 1.378 . S
C844 C845 1.367 . S
C845 C844 1.367 . S
C845 C847 1.433 . S
C846 C842 1.350 . S
C846 C843 1.463 . S
C846 N850 1.427 . S
C847 H837 0.929 . S
C847 C845 1.433 . S
C847 N850 1.384 . S
C848 H839 0.929 . S
C848 C840 1.378 . S
C848 C843 1.350 . S
C849 H836 0.929 . S
C849 C841 1.433 . S
C849 N851 1.384 . S
N850 C846 1.427 . S
N850 C847 1.384 . S
N851 C843 1.427 . S
N851 C849 1.384 . S
H852 C858 0.930 . S
H853 C862 0.930 . S
H854 C867 0.929 . S
H855 C865 0.929 . S
H856 C860 0.929 . S
H857 C866 0.929 . S
C858 H852 0.930 . S
C858 C859 1.367 . S
C858 C866 1.378 . S
C859 C858 1.367 . S
C859 C867 1.433 . S
C860 H856 0.929 . S
C860 C862 1.378 . S
C860 C864 1.350 . S
C861 C864 1.463 1_655 S
C861 C866 1.350 . S
C861 N869 1.427 . S
C862 H853 0.930 . S
C862 C860 1.378 . S
C862 C863 1.367 . S
C863 C862 1.367 . S
C863 C865 1.433 . S
C864 C860 1.350 . S
C864 C861 1.463 1_455 S
C864 N868 1.427 . S
C865 H855 0.929 . S
C865 C863 1.433 . S
C865 N868 1.384 . S
C866 H857 0.929 . S
C866 C858 1.378 . S
C866 C861 1.350 . S
C867 H854 0.929 . S
C867 C859 1.433 . S
C867 N869 1.384 . S
N868 C864 1.427 . S
N868 C865 1.384 . S
N869 C861 1.427 . S
N869 C867 1.384 . S
H870 C876 0.930 . S
H871 C880 0.930 . S
H872 C885 0.929 . S
H873 C883 0.929 . S
H874 C878 0.929 1_565 S
H875 C884 0.929 1_545 S
C876 H870 0.930 . S
C876 C877 1.367 . S
C876 C884 1.378 . S
C877 C876 1.367 . S
C877 C885 1.433 . S
C878 H874 0.929 1_545 S
C878 C880 1.378 . S
C878 C882 1.350 . S
C879 C882 1.463 1_565 S
C879 C884 1.350 . S
C879 N887 1.427 . S
C880 H871 0.930 . S
C880 C878 1.378 . S
C880 C881 1.367 . S
C881 C880 1.367 . S
C881 C883 1.433 . S
C882 C878 1.350 . S
C882 C879 1.463 1_545 S
C882 N886 1.427 . S
C883 H873 0.929 . S
C883 C881 1.433 . S
C883 N886 1.384 . S
C884 H875 0.929 1_565 S
C884 C876 1.378 . S
C884 C879 1.350 . S
C885 H872 0.929 . S
C885 C877 1.433 . S
C885 N887 1.384 . S
N886 C882 1.427 . S
N886 C883 1.384 . S
N887 C879 1.427 . S
N887 C885 1.384 . S
H888 C894 0.930 . S
H889 C898 0.930 . S
H890 C903 0.929 . S
H891 C901 0.929 . S
H892 C896 0.929 . S
H893 C902 0.929 . S
C894 H888 0.930 . S
C894 C895 1.367 . S
C894 C902 1.378 . S
C895 C894 1.367 . S
C895 C903 1.433 . S
C896 H892 0.929 . S
C896 C898 1.378 . S
C896 C900 1.350 . S
C897 C900 1.463 . S
C897 C902 1.350 . S
C897 N905 1.427 . S
C898 H889 0.930 . S
C898 C896 1.378 . S
C898 C899 1.367 . S
C899 C898 1.367 . S
C899 C901 1.433 . S
C900 C896 1.350 . S
C900 C897 1.463 . S
C900 N904 1.427 . S
C901 H891 0.929 . S
C901 C899 1.433 . S
C901 N904 1.384 . S
C902 H893 0.929 . S
C902 C894 1.378 . S
C902 C897 1.350 . S
C903 H890 0.929 . S
C903 C895 1.433 . S
C903 N905 1.384 . S
N904 C900 1.427 . S
N904 C901 1.384 . S
N905 C897 1.427 . S
N905 C903 1.384 . S
H906 C912 0.930 . S
H907 C916 0.930 . S
H908 C921 0.929 . S
H909 C919 0.929 . S
H910 C914 0.929 1_455 S
H911 C920 0.929 1_655 S
C912 H906 0.930 . S
C912 C913 1.367 . S
C912 C920 1.378 . S
C913 C912 1.367 . S
C913 C921 1.433 . S
C914 H910 0.929 1_655 S
C914 C916 1.378 . S
C914 C918 1.350 . S
C915 C918 1.463 1_455 S
C915 C920 1.350 . S
C915 N923 1.427 . S
C916 H907 0.930 . S
C916 C914 1.378 . S
C916 C917 1.367 . S
C917 C916 1.367 . S
C917 C919 1.433 . S
C918 C914 1.350 . S
C918 C915 1.463 1_655 S
C918 N922 1.427 . S
C919 H909 0.929 . S
C919 C917 1.433 . S
C919 N922 1.384 . S
C920 H911 0.929 1_455 S
C920 C912 1.378 . S
C920 C915 1.350 . S
C921 H908 0.929 . S
C921 C913 1.433 . S
C921 N923 1.384 . S
N922 C918 1.427 . S
N922 C919 1.384 . S
N923 C915 1.427 . S
N923 C921 1.384 . S
H924 C930 0.930 . S
H925 C934 0.930 . S
H926 C939 0.929 . S
H927 C937 0.929 . S
H928 C932 0.929 . S
H929 C938 0.929 . S
C930 H924 0.930 . S
C930 C931 1.367 . S
C930 C938 1.378 1_556 S
C931 C930 1.367 . S
C931 C939 1.433 . S
C932 H928 0.929 . S
C932 C934 1.378 1_556 S
C932 C936 1.350 1_556 S
C933 C936 1.463 1_546 S
C933 C938 1.350 1_556 S
C933 N941 1.427 . S
C934 H925 0.930 . S
C934 C932 1.378 1_554 S
C934 C935 1.367 . S
C935 C934 1.367 . S
C935 C937 1.433 . S
C936 C932 1.350 1_554 S
C936 C933 1.463 1_564 S
C936 N940 1.427 . S
C937 H927 0.929 . S
C937 C935 1.433 . S
C937 N940 1.384 . S
C938 H929 0.929 . S
C938 C930 1.378 1_554 S
C938 C933 1.350 1_554 S
C939 H926 0.929 . S
C939 C931 1.433 . S
C939 N941 1.384 . S
N940 C936 1.427 . S
N940 C937 1.384 . S
N941 C933 1.427 . S
N941 C939 1.384 . S
H942 C948 0.930 . S
H943 C952 0.930 . S
H944 C957 0.929 . S
H945 C955 0.929 . S
H946 C950 0.929 . S
H947 C956 0.929 . S
C948 H942 0.930 . S
C948 C949 1.367 . S
C948 C956 1.378 . S
C949 C948 1.367 . S
C949 C957 1.433 . S
C950 H946 0.929 . S
C950 C952 1.378 . S
C950 C954 1.350 . S
C951 C954 1.463 . S
C951 C956 1.350 . S
C951 N959 1.427 . S
C952 H943 0.930 . S
C952 C950 1.378 . S
C952 C953 1.367 . S
C953 C952 1.367 . S
C953 C955 1.433 . S
C954 C950 1.350 . S
C954 C951 1.463 . S
C954 N958 1.427 . S
C955 H945 0.929 . S
C955 C953 1.433 . S
C955 N958 1.384 . S
C956 H947 0.929 . S
C956 C948 1.378 . S
C956 C951 1.350 . S
C957 H944 0.929 . S
C957 C949 1.433 . S
C957 N959 1.384 . S
N958 C954 1.427 . S
N958 C955 1.384 . S
N959 C951 1.427 . S
N959 C957 1.384 . S
H960 C966 0.930 . S
H961 C970 0.930 . S
H962 C975 0.929 . S
H963 C973 0.929 . S
H964 C968 0.929 . S
H965 C974 0.929 . S
C966 H960 0.930 . S
C966 C967 1.367 . S
C966 C974 1.378 . S
C967 C966 1.367 . S
C967 C975 1.433 . S
C968 H964 0.929 . S
C968 C970 1.378 . S
C968 C972 1.350 . S
C969 C972 1.463 . S
C969 C974 1.350 . S
C969 N977 1.427 . S
C970 H961 0.930 . S
C970 C968 1.378 . S
C970 C971 1.367 . S
C971 C970 1.367 . S
C971 C973 1.433 . S
C972 C968 1.350 . S
C972 C969 1.463 . S
C972 N976 1.427 . S
C973 H963 0.929 . S
C973 C971 1.433 . S
C973 N976 1.384 . S
C974 H965 0.929 . S
C974 C966 1.378 . S
C974 C969 1.350 . S
C975 H962 0.929 . S
C975 C967 1.433 . S
C975 N977 1.384 . S
N976 C972 1.427 . S
N976 C973 1.384 . S
N977 C969 1.427 . S
N977 C975 1.384 . S
H978 C984 0.930 . S
H979 C988 0.930 . S
H980 C993 0.929 . S
H981 C991 0.929 . S
H982 C986 0.929 . S
H983 C992 0.929 . S
C984 H978 0.930 . S
C984 C985 1.367 . S
C984 C992 1.378 . S
C985 C984 1.367 . S
C985 C993 1.433 . S
C986 H982 0.929 . S
C986 C988 1.378 . S
C986 C990 1.350 . S
C987 C990 1.463 . S
C987 C992 1.350 . S
C987 N995 1.427 . S
C988 H979 0.930 . S
C988 C986 1.378 . S
C988 C989 1.367 . S
C989 C988 1.367 . S
C989 C991 1.433 . S
C990 C986 1.350 . S
C990 C987 1.463 . S
C990 N994 1.427 . S
C991 H981 0.929 . S
C991 C989 1.433 . S
C991 N994 1.384 . S
C992 H983 0.929 . S
C992 C984 1.378 . S
C992 C987 1.350 . S
C993 H980 0.929 . S
C993 C985 1.433 . S
C993 N995 1.384 . S
N994 C990 1.427 . S
N994 C991 1.384 . S
N995 C987 1.427 . S
N995 C993 1.384 . S
H996 C1002 0.930 . S
H997 C1006 0.930 . S
H998 C1011 0.929 . S
H999 C1009 0.929 . S
H1000 C1004 0.929 . S
H1001 C1010 0.929 . S
C1002 H996 0.930 . S
C1002 C1003 1.367 . S
C1002 C1010 1.378 . S
C1003 C1002 1.367 . S
C1003 C1011 1.433 . S
C1004 H1000 0.929 . S
C1004 C1006 1.378 . S
C1004 C1008 1.350 . S
C1005 C1008 1.463 . S
C1005 C1010 1.350 . S
C1005 N1013 1.427 . S
C1006 H997 0.930 . S
C1006 C1004 1.378 . S
C1006 C1007 1.367 . S
C1007 C1006 1.367 . S
C1007 C1009 1.433 . S
C1008 C1004 1.350 . S
C1008 C1005 1.463 . S
C1008 N1012 1.427 . S
C1009 H999 0.929 . S
C1009 C1007 1.433 . S
C1009 N1012 1.384 . S
C1010 H1001 0.929 . S
C1010 C1002 1.378 . S
C1010 C1005 1.350 . S
C1011 H998 0.929 . S
C1011 C1003 1.433 . S
C1011 N1013 1.384 . S
N1012 C1008 1.427 . S
N1012 C1009 1.384 . S
N1013 C1005 1.427 . S
N1013 C1011 1.384 . S
H1014 C1020 0.930 . S
H1015 C1024 0.930 . S
H1016 C1029 0.929 . S
H1017 C1027 0.929 . S
H1018 C1022 0.929 . S
H1019 C1028 0.929 . S
C1020 H1014 0.930 . S
C1020 C1021 1.367 . S
C1020 C1028 1.378 . S
C1021 C1020 1.367 . S
C1021 C1029 1.433 . S
C1022 H1018 0.929 . S
C1022 C1024 1.378 . S
C1022 C1026 1.350 . S
C1023 C1026 1.463 . S
C1023 C1028 1.350 . S
C1023 N1031 1.427 . S
C1024 H1015 0.930 . S
C1024 C1022 1.378 . S
C1024 C1025 1.367 . S
C1025 C1024 1.367 . S
C1025 C1027 1.433 . S
C1026 C1022 1.350 . S
C1026 C1023 1.463 . S
C1026 N1030 1.427 . S
C1027 H1017 0.929 . S
C1027 C1025 1.433 . S
C1027 N1030 1.384 . S
C1028 H1019 0.929 . S
C1028 C1020 1.378 . S
C1028 C1023 1.350 . S
C1029 H1016 0.929 . S
C1029 C1021 1.433 . S
C1029 N1031 1.384 . S
N1030 C1026 1.427 . S
N1030 C1027 1.384 . S
N1031 C1023 1.427 . S
N1031 C1029 1.384 . S
H1032 C1038 0.930 . S
H1033 C1042 0.930 . S
H1034 C1047 0.929 1_554 S
H1035 C1045 0.929 . S
H1036 C1040 0.929 . S
H1037 C1046 0.929 . S
C1038 H1032 0.930 . S
C1038 C1039 1.367 . S
C1038 C1046 1.378 . S
C1039 C1038 1.367 . S
C1039 C1047 1.433 . S
C1040 H1036 0.929 . S
C1040 C1042 1.378 . S
C1040 C1044 1.350 . S
C1041 C1044 1.463 . S
C1041 C1046 1.350 . S
C1041 N1049 1.427 . S
C1042 H1033 0.930 . S
C1042 C1040 1.378 . S
C1042 C1043 1.367 . S
C1043 C1042 1.367 . S
C1043 C1045 1.433 . S
C1044 C1040 1.350 . S
C1044 C1041 1.463 . S
C1044 N1048 1.427 . S
C1045 H1035 0.929 . S
C1045 C1043 1.433 . S
C1045 N1048 1.384 . S
C1046 H1037 0.929 . S
C1046 C1038 1.378 . S
C1046 C1041 1.350 . S
C1047 H1034 0.929 1_556 S
C1047 C1039 1.433 . S
C1047 N1049 1.384 . S
N1048 C1044 1.427 . S
N1048 C1045 1.384 . S
N1049 C1041 1.427 . S
N1049 C1047 1.384 . S
H1050 C1056 0.930 . S
H1051 C1060 0.930 . S
H1052 C1065 0.929 . S
H1053 C1063 0.929 . S
H1054 C1058 0.929 . S
H1055 C1064 0.929 . S
C1056 H1050 0.930 . S
C1056 C1057 1.367 . S
C1056 C1064 1.378 . S
C1057 C1056 1.367 . S
C1057 C1065 1.433 . S
C1058 H1054 0.929 . S
C1058 C1060 1.378 . S
C1058 C1062 1.350 . S
C1059 C1062 1.463 . S
C1059 C1064 1.350 . S
C1059 N1067 1.427 . S
C1060 H1051 0.930 . S
C1060 C1058 1.378 . S
C1060 C1061 1.367 . S
C1061 C1060 1.367 . S
C1061 C1063 1.433 . S
C1062 C1058 1.350 . S
C1062 C1059 1.463 . S
C1062 N1066 1.427 . S
C1063 H1053 0.929 . S
C1063 C1061 1.433 . S
C1063 N1066 1.384 . S
C1064 H1055 0.929 . S
C1064 C1056 1.378 . S
C1064 C1059 1.350 . S
C1065 H1052 0.929 . S
C1065 C1057 1.433 . S
C1065 N1067 1.384 . S
N1066 C1062 1.427 . S
N1066 C1063 1.384 . S
N1067 C1059 1.427 . S
N1067 C1065 1.384 . S
C643 C29 1.540 . S
C647 C347 1.539 . S
C661 C82 1.535 . S
C665 C400 1.544 . S
C679 C453 1.535 . S
C683 C135 1.544 . S
C697 C188 1.541 . S
C701 C506 1.537 . S
C715 C241 1.536 . S
C719 C559 1.543 . S
C733 C612 1.535 . S
C737 C294 1.543 . S
C751 C463 1.408 . S
C755 C39 1.404 . S
C769 C92 1.398 . S
C773 C516 1.412 . S
C787 C569 1.402 1_556 S
C791 C145 1.404 . S
C805 C622 1.398 . S
C809 C198 1.408 1_554 S
C823 C251 1.409 . S
C827 C357 1.402 . S
C841 C304 1.410 . S
C845 C410 1.397 . S
C859 C605 2.105 . S
C863 C22 2.101 . S
C877 C340 2.105 . S
C881 C75 2.103 . S
C895 C128 2.100 . S
C899 C393 2.096 . S
C913 C446 2.105 . S
C917 C181 2.103 . S
C931 C499 2.096 . S
C935 C234 2.095 . S
C949 C552 2.097 . S
C953 C287 2.100 . S
C967 C38 1.889 . S
C971 C568 1.891 . S
C985 C621 1.887 . S
C989 C91 1.887 . S
C1003 C144 1.893 . S
C1007 C356 1.893 . S
C1021 C197 1.891 . S
C1025 C409 1.890 . S
C1039 C250 1.893 1_556 S
C1043 C462 1.893 . S
C1057 C303 1.890 . S
C1061 C515 1.892 1_554 S
