# Generated by pormake.
# Topology wlu, (5)-cn, num edge types: 1
# Building blocks:
#     Node 0, Type 0, BuildingBlock: XOMCOT_clean_sbu_1, # of connection points: 5
#     Node 1, Type 0, BuildingBlock: XOMCOT_clean_sbu_1, # of connection points: 5
#     Node 2, Type 0, BuildingBlock: XOMCOT_clean_sbu_1, # of connection points: 5
#     Node 3, Type 0, BuildingBlock: XOMCOT_clean_sbu_1, # of connection points: 5
#     Node 4, Type 0, BuildingBlock: XOMCOT_clean_sbu_1, # of connection points: 5
#     Node 5, Type 0, BuildingBlock: XOMCOT_clean_sbu_1, # of connection points: 5
#     Node 6, Type 0, BuildingBlock: XOMCOT_clean_sbu_1, # of connection points: 5
#     Node 7, Type 0, BuildingBlock: XOMCOT_clean_sbu_1, # of connection points: 5
#     Node 8, Type 0, BuildingBlock: XOMCOT_clean_sbu_1, # of connection points: 5
#     Node 9, Type 0, BuildingBlock: XOMCOT_clean_sbu_1, # of connection points: 5
#     Node 10, Type 0, BuildingBlock: XOMCOT_clean_sbu_1, # of connection points: 5
#     Node 11, Type 0, BuildingBlock: XOMCOT_clean_sbu_1, # of connection points: 5
#     Node 12, Type 0, BuildingBlock: XOMCOT_clean_sbu_1, # of connection points: 5
#     Node 13, Type 0, BuildingBlock: XOMCOT_clean_sbu_1, # of connection points: 5
#     Node 14, Type 0, BuildingBlock: XOMCOT_clean_sbu_1, # of connection points: 5
#     Node 15, Type 0, BuildingBlock: XOMCOT_clean_sbu_1, # of connection points: 5
#     Node 16, Type 0, BuildingBlock: XOMCOT_clean_sbu_1, # of connection points: 5
#     Node 17, Type 0, BuildingBlock: XOMCOT_clean_sbu_1, # of connection points: 5
#     Node 18, Type 0, BuildingBlock: XOMCOT_clean_sbu_1, # of connection points: 5
#     Node 19, Type 0, BuildingBlock: XOMCOT_clean_sbu_1, # of connection points: 5
#     Node 20, Type 0, BuildingBlock: XOMCOT_clean_sbu_1, # of connection points: 5
#     Node 21, Type 0, BuildingBlock: XOMCOT_clean_sbu_1, # of connection points: 5
#     Node 22, Type 0, BuildingBlock: XOMCOT_clean_sbu_1, # of connection points: 5
#     Node 23, Type 0, BuildingBlock: XOMCOT_clean_sbu_1, # of connection points: 5
#     Node 24, Type 0, BuildingBlock: XOMCOT_clean_sbu_1, # of connection points: 5
#     Node 25, Type 0, BuildingBlock: XOMCOT_clean_sbu_1, # of connection points: 5
#     Node 26, Type 0, BuildingBlock: XOMCOT_clean_sbu_1, # of connection points: 5
#     Node 27, Type 0, BuildingBlock: XOMCOT_clean_sbu_1, # of connection points: 5
#     Node 28, Type 0, BuildingBlock: XOMCOT_clean_sbu_1, # of connection points: 5
#     Node 29, Type 0, BuildingBlock: XOMCOT_clean_sbu_1, # of connection points: 5
#     Node 30, Type 0, BuildingBlock: XOMCOT_clean_sbu_1, # of connection points: 5
#     Node 31, Type 0, BuildingBlock: XOMCOT_clean_sbu_1, # of connection points: 5
#     Node 32, Type 0, BuildingBlock: XOMCOT_clean_sbu_1, # of connection points: 5
#     Node 33, Type 0, BuildingBlock: XOMCOT_clean_sbu_1, # of connection points: 5
#     Node 34, Type 0, BuildingBlock: XOMCOT_clean_sbu_1, # of connection points: 5
#     Node 35, Type 0, BuildingBlock: XOMCOT_clean_sbu_1, # of connection points: 5
#     Edge 36, Type (0, 0), BuildingBlock: UVAHIK_clean_linker_0, # of connection points: 2
#     Edge 37, Type (0, 0), BuildingBlock: UVAHIK_clean_linker_0, # of connection points: 2
#     Edge 38, Type (0, 0), BuildingBlock: UVAHIK_clean_linker_0, # of connection points: 2
#     Edge 39, Type (0, 0), BuildingBlock: UVAHIK_clean_linker_0, # of connection points: 2
#     Edge 40, Type (0, 0), BuildingBlock: UVAHIK_clean_linker_0, # of connection points: 2
#     Edge 41, Type (0, 0), BuildingBlock: UVAHIK_clean_linker_0, # of connection points: 2
#     Edge 42, Type (0, 0), BuildingBlock: UVAHIK_clean_linker_0, # of connection points: 2
#     Edge 43, Type (0, 0), BuildingBlock: UVAHIK_clean_linker_0, # of connection points: 2
#     Edge 44, Type (0, 0), BuildingBlock: UVAHIK_clean_linker_0, # of connection points: 2
#     Edge 45, Type (0, 0), BuildingBlock: UVAHIK_clean_linker_0, # of connection points: 2
#     Edge 46, Type (0, 0), BuildingBlock: UVAHIK_clean_linker_0, # of connection points: 2
#     Edge 47, Type (0, 0), BuildingBlock: UVAHIK_clean_linker_0, # of connection points: 2
#     Edge 48, Type (0, 0), BuildingBlock: UVAHIK_clean_linker_0, # of connection points: 2
#     Edge 49, Type (0, 0), BuildingBlock: UVAHIK_clean_linker_0, # of connection points: 2
#     Edge 50, Type (0, 0), BuildingBlock: UVAHIK_clean_linker_0, # of connection points: 2
#     Edge 51, Type (0, 0), BuildingBlock: UVAHIK_clean_linker_0, # of connection points: 2
#     Edge 52, Type (0, 0), BuildingBlock: UVAHIK_clean_linker_0, # of connection points: 2
#     Edge 53, Type (0, 0), BuildingBlock: UVAHIK_clean_linker_0, # of connection points: 2
#     Edge 54, Type (0, 0), BuildingBlock: UVAHIK_clean_linker_0, # of connection points: 2
#     Edge 55, Type (0, 0), BuildingBlock: UVAHIK_clean_linker_0, # of connection points: 2
#     Edge 56, Type (0, 0), BuildingBlock: UVAHIK_clean_linker_0, # of connection points: 2
#     Edge 57, Type (0, 0), BuildingBlock: UVAHIK_clean_linker_0, # of connection points: 2
#     Edge 58, Type (0, 0), BuildingBlock: UVAHIK_clean_linker_0, # of connection points: 2
#     Edge 59, Type (0, 0), BuildingBlock: UVAHIK_clean_linker_0, # of connection points: 2
#     Edge 60, Type (0, 0), BuildingBlock: UVAHIK_clean_linker_0, # of connection points: 2
#     Edge 61, Type (0, 0), BuildingBlock: UVAHIK_clean_linker_0, # of connection points: 2
#     Edge 62, Type (0, 0), BuildingBlock: UVAHIK_clean_linker_0, # of connection points: 2
#     Edge 63, Type (0, 0), BuildingBlock: UVAHIK_clean_linker_0, # of connection points: 2
#     Edge 64, Type (0, 0), BuildingBlock: UVAHIK_clean_linker_0, # of connection points: 2
#     Edge 65, Type (0, 0), BuildingBlock: UVAHIK_clean_linker_0, # of connection points: 2
#     Edge 66, Type (0, 0), BuildingBlock: UVAHIK_clean_linker_0, # of connection points: 2
#     Edge 67, Type (0, 0), BuildingBlock: UVAHIK_clean_linker_0, # of connection points: 2
#     Edge 68, Type (0, 0), BuildingBlock: UVAHIK_clean_linker_0, # of connection points: 2
#     Edge 69, Type (0, 0), BuildingBlock: UVAHIK_clean_linker_0, # of connection points: 2
#     Edge 70, Type (0, 0), BuildingBlock: UVAHIK_clean_linker_0, # of connection points: 2
#     Edge 71, Type (0, 0), BuildingBlock: UVAHIK_clean_linker_0, # of connection points: 2
#     Edge 72, Type (0, 0), BuildingBlock: UVAHIK_clean_linker_0, # of connection points: 2
#     Edge 73, Type (0, 0), BuildingBlock: UVAHIK_clean_linker_0, # of connection points: 2
#     Edge 74, Type (0, 0), BuildingBlock: UVAHIK_clean_linker_0, # of connection points: 2
#     Edge 75, Type (0, 0), BuildingBlock: UVAHIK_clean_linker_0, # of connection points: 2
#     Edge 76, Type (0, 0), BuildingBlock: UVAHIK_clean_linker_0, # of connection points: 2
#     Edge 77, Type (0, 0), BuildingBlock: UVAHIK_clean_linker_0, # of connection points: 2
#     Edge 78, Type (0, 0), BuildingBlock: UVAHIK_clean_linker_0, # of connection points: 2
#     Edge 79, Type (0, 0), BuildingBlock: UVAHIK_clean_linker_0, # of connection points: 2
#     Edge 80, Type (0, 0), BuildingBlock: UVAHIK_clean_linker_0, # of connection points: 2
#     Edge 81, Type (0, 0), BuildingBlock: UVAHIK_clean_linker_0, # of connection points: 2
#     Edge 82, Type (0, 0), BuildingBlock: UVAHIK_clean_linker_0, # of connection points: 2
#     Edge 83, Type (0, 0), BuildingBlock: UVAHIK_clean_linker_0, # of connection points: 2
#     Edge 84, Type (0, 0), BuildingBlock: UVAHIK_clean_linker_0, # of connection points: 2
#     Edge 85, Type (0, 0), BuildingBlock: UVAHIK_clean_linker_0, # of connection points: 2
#     Edge 86, Type (0, 0), BuildingBlock: UVAHIK_clean_linker_0, # of connection points: 2
#     Edge 87, Type (0, 0), BuildingBlock: UVAHIK_clean_linker_0, # of connection points: 2
#     Edge 88, Type (0, 0), BuildingBlock: UVAHIK_clean_linker_0, # of connection points: 2
#     Edge 89, Type (0, 0), BuildingBlock: UVAHIK_clean_linker_0, # of connection points: 2
#     Edge 90, Type (0, 0), BuildingBlock: UVAHIK_clean_linker_0, # of connection points: 2
#     Edge 91, Type (0, 0), BuildingBlock: UVAHIK_clean_linker_0, # of connection points: 2
#     Edge 92, Type (0, 0), BuildingBlock: UVAHIK_clean_linker_0, # of connection points: 2
#     Edge 93, Type (0, 0), BuildingBlock: UVAHIK_clean_linker_0, # of connection points: 2
#     Edge 94, Type (0, 0), BuildingBlock: UVAHIK_clean_linker_0, # of connection points: 2
#     Edge 95, Type (0, 0), BuildingBlock: UVAHIK_clean_linker_0, # of connection points: 2
#     Edge 96, Type (0, 0), BuildingBlock: UVAHIK_clean_linker_0, # of connection points: 2
#     Edge 97, Type (0, 0), BuildingBlock: UVAHIK_clean_linker_0, # of connection points: 2
#     Edge 98, Type (0, 0), BuildingBlock: UVAHIK_clean_linker_0, # of connection points: 2
#     Edge 99, Type (0, 0), BuildingBlock: UVAHIK_clean_linker_0, # of connection points: 2
#     Edge 100, Type (0, 0), BuildingBlock: UVAHIK_clean_linker_0, # of connection points: 2
#     Edge 101, Type (0, 0), BuildingBlock: UVAHIK_clean_linker_0, # of connection points: 2
#     Edge 102, Type (0, 0), BuildingBlock: UVAHIK_clean_linker_0, # of connection points: 2
#     Edge 103, Type (0, 0), BuildingBlock: UVAHIK_clean_linker_0, # of connection points: 2
#     Edge 104, Type (0, 0), BuildingBlock: UVAHIK_clean_linker_0, # of connection points: 2
#     Edge 105, Type (0, 0), BuildingBlock: UVAHIK_clean_linker_0, # of connection points: 2
#     Edge 106, Type (0, 0), BuildingBlock: UVAHIK_clean_linker_0, # of connection points: 2
#     Edge 107, Type (0, 0), BuildingBlock: UVAHIK_clean_linker_0, # of connection points: 2
#     Edge 108, Type (0, 0), BuildingBlock: UVAHIK_clean_linker_0, # of connection points: 2
#     Edge 109, Type (0, 0), BuildingBlock: UVAHIK_clean_linker_0, # of connection points: 2
#     Edge 110, Type (0, 0), BuildingBlock: UVAHIK_clean_linker_0, # of connection points: 2
#     Edge 111, Type (0, 0), BuildingBlock: UVAHIK_clean_linker_0, # of connection points: 2
#     Edge 112, Type (0, 0), BuildingBlock: UVAHIK_clean_linker_0, # of connection points: 2
#     Edge 113, Type (0, 0), BuildingBlock: UVAHIK_clean_linker_0, # of connection points: 2
#     Edge 114, Type (0, 0), BuildingBlock: UVAHIK_clean_linker_0, # of connection points: 2
#     Edge 115, Type (0, 0), BuildingBlock: UVAHIK_clean_linker_0, # of connection points: 2
#     Edge 116, Type (0, 0), BuildingBlock: UVAHIK_clean_linker_0, # of connection points: 2
#     Edge 117, Type (0, 0), BuildingBlock: UVAHIK_clean_linker_0, # of connection points: 2
#     Edge 118, Type (0, 0), BuildingBlock: UVAHIK_clean_linker_0, # of connection points: 2
#     Edge 119, Type (0, 0), BuildingBlock: UVAHIK_clean_linker_0, # of connection points: 2
#     Edge 120, Type (0, 0), BuildingBlock: UVAHIK_clean_linker_0, # of connection points: 2
#     Edge 121, Type (0, 0), BuildingBlock: UVAHIK_clean_linker_0, # of connection points: 2
#     Edge 122, Type (0, 0), BuildingBlock: UVAHIK_clean_linker_0, # of connection points: 2
#     Edge 123, Type (0, 0), BuildingBlock: UVAHIK_clean_linker_0, # of connection points: 2
#     Edge 124, Type (0, 0), BuildingBlock: UVAHIK_clean_linker_0, # of connection points: 2
#     Edge 125, Type (0, 0), BuildingBlock: UVAHIK_clean_linker_0, # of connection points: 2
# Relax obj value: 0.189
# Max RMSD: 0.162
# Mean RMSD: 0.162
data_MOF--net-wlu--node1-XOMCOT_clean_sbu_1--edge1-UVAHIK_clean_linker_0
_symmetry_space_group_name_H-M    P1
_symmetry_Int_Tables_number       1
_symmetry_cell_setting            triclinic
loop_
_symmetry_equiv_pos_as_xyz
'x, y, z'
_cell_length_a     84.562879
_cell_length_b     84.460532
_cell_length_c     69.122806
_cell_angle_alpha  90.001325
_cell_angle_beta   89.998223
_cell_angle_gamma 120.00773
loop_
_atom_site_label
_atom_site_type_symbol
_atom_site_fract_x
_atom_site_fract_y
_atom_site_fract_z
_atom_type_partial_charge
C0 C 0.25476 0.14671 0.083 0.0
C1 C 0.2485 0.12838 0.08078 0.0
N2 N 0.25213 0.12548 0.06256 0.0
N3 N 0.26236 0.15541 0.06631 0.0
C4 C 0.26057 0.14214 0.05406 0.0
H5 H 0.25372 0.1533 0.09596 0.0
Co6 Co 0.27197 0.18034 0.06322 0.0
C7 C 0.30234 0.183 0.0377 0.0
O8 O 0.3145 0.18743 0.05152 0.0
N9 N 0.28127 0.20547 0.06081 0.0
C10 C 0.28152 0.23187 0.06106 0.0
C11 C 0.27074 0.21327 0.0621 0.0
C12 C 0.29855 0.2197 0.0595 0.0
N13 N 0.29902 0.23595 0.05949 0.0
O14 O 0.29071 0.18457 0.08149 0.0
H15 H 0.25613 0.20592 0.06431 0.0
H16 H 0.31053 0.21821 0.05912 0.0
O17 O 0.28647 0.18035 0.04158 0.0
C18 C 0.28799 0.18885 0.09835 0.0
O19 O 0.27389 0.19117 0.10102 0.0
N20 N 0.25291 0.17609 0.04627 0.0
C21 C 0.22488 0.17727 0.02631 0.0
C22 C 0.24201 0.18358 0.01765 0.0
C23 C 0.25592 0.18306 0.02794 0.0
C24 C 0.23599 0.16861 0.05437 0.0
C25 C 0.22173 0.16904 0.04462 0.0
H26 H 0.26944 0.18972 0.02173 0.0
H27 H 0.23391 0.1636 0.06908 0.0
H28 H 0.265 0.14457 0.03913 0.0
H29 H 0.24195 0.11802 0.09183 0.0
H30 H 0.27693 0.24171 0.0624 0.0
H31 H 0.245 0.18985 1.00346 0.0
H32 H 0.20882 0.16421 0.05199 0.0
C33 C 0.83855 0.09213 0.06158 0.0
C34 C 0.85736 0.10211 0.06194 0.0
N35 N 0.8628 0.11827 0.05309 0.0
N36 N 0.83223 0.10191 0.0524 0.0
C37 C 0.84724 0.11772 0.04747 0.0
H38 H 0.83001 0.0788 0.06795 0.0
Co39 Co 0.80818 0.09605 0.04932 0.0
C40 C 0.80625 0.10768 0.00967 0.0
O41 O 0.79122 0.09189 0.00728 0.0
N42 N 0.78369 0.0907 0.04683 0.0
C43 C 0.76054 0.09604 0.04337 0.0
C44 C 0.77909 0.10339 0.04196 0.0
C45 C 0.76761 0.07593 0.05194 0.0
N46 N 0.75335 0.07877 0.04973 0.0
O47 O 0.8127 0.11601 0.06582 0.0
H48 H 0.78873 0.11744 0.03827 0.0
H49 H 0.7662 0.06352 0.05791 0.0
O50 O 0.81479 0.11153 0.02584 0.0
C51 C 0.80861 0.10944 0.08288 0.0
O52 O 0.80228 0.09182 0.08513 0.0
N53 N 0.80391 0.07532 0.03498 0.0
C54 C 0.7971 0.0425 0.0182 0.0
C55 C 0.80922 0.05922 0.00942 0.0
C56 C 0.81276 0.07556 0.0183 0.0
C57 C 0.79379 0.05928 0.04462 0.0
C58 C 0.78968 0.04267 0.03624 0.0
H59 H 0.82286 0.08834 0.01194 0.0
H60 H 0.78941 0.05941 0.05925 0.0
H61 H 0.84668 0.12868 0.04004 0.0
H62 H 0.86624 0.09793 0.06868 0.0
H63 H 0.75305 0.10316 0.04094 0.0
H64 H 0.81587 0.05966 0.99588 0.0
H65 H 0.78122 0.03009 0.04407 0.0
C66 C 0.89332 0.73413 0.0636 0.0
C67 C 0.88493 0.74442 0.06154 0.0
N68 N 0.86915 0.73444 0.05175 0.0
N69 N 0.88296 0.7178 0.05503 0.0
C70 C 0.86838 0.71836 0.048 0.0
H71 H 0.90585 0.73804 0.07136 0.0
Co72 Co 0.88653 0.69789 0.05567 0.0
C73 C 0.87737 0.68204 0.01662 0.0
O74 O 0.89193 0.68029 0.01779 0.0
N75 N 0.88948 0.6771 0.05704 0.0
C76 C 0.88106 0.6475 0.05748 0.0
C77 C 0.87553 0.65995 0.05377 0.0
C78 C 0.90321 0.67454 0.06336 0.0
N79 N 0.89847 0.65671 0.06358 0.0
O80 O 0.86485 0.685 0.07085 0.0
H81 H 0.86196 0.65665 0.04931 0.0
H82 H 0.91636 0.68532 0.06809 0.0
O83 O 0.873 0.68876 0.03091 0.0
C84 C 0.8704 0.6883 0.08833 0.0
O85 O 0.88805 0.6985 0.09142 0.0
N86 N 0.90891 0.71205 0.04266 0.0
C87 C 0.94357 0.73706 0.02856 0.0
C88 C 0.92792 0.73215 0.01742 0.0
C89 C 0.91069 0.72 0.02495 0.0
C90 C 0.92388 0.71774 0.05415 0.0
C91 C 0.94135 0.7298 0.04725 0.0
H92 H 0.89882 0.71766 0.01682 0.0
H93 H 0.92219 0.71363 0.06915 0.0
H94 H 0.85724 0.70695 0.04062 0.0
H95 H 0.88981 0.75794 0.06746 0.0
H96 H 0.87271 0.63278 0.05643 0.0
H97 H 0.92894 0.73792 1.00317 0.0
H98 H 0.95293 0.73405 0.0568 0.0
C99 C 0.15058 0.24468 0.45303 0.0
C100 C 0.13185 0.23492 0.45492 0.0
N101 N 0.12642 0.24581 0.46337 0.0
N102 N 0.15686 0.26154 0.46043 0.0
C103 C 0.1419 0.26183 0.46655 0.0
H104 H 0.15903 0.24 0.44624 0.0
Co105 Co 0.18043 0.28111 0.4599 0.0
C106 C 0.18662 0.29738 0.49874 0.0
O107 O 0.2026 0.29829 0.49833 0.0
N108 N 0.20424 0.3016 0.45876 0.0
C109 C 0.22541 0.33114 0.45818 0.0
C110 C 0.20741 0.31878 0.46169 0.0
C111 C 0.2206 0.30403 0.45292 0.0
N112 N 0.2337 0.32185 0.45263 0.0
O113 O 0.17231 0.29409 0.44379 0.0
H114 H 0.19709 0.32218 0.46563 0.0
H115 H 0.22298 0.29318 0.44845 0.0
O116 O 0.17588 0.29094 0.48413 0.0
C117 C 0.1744 0.29014 0.4265 0.0
O118 O 0.18101 0.27911 0.42407 0.0
N119 N 0.18812 0.26692 0.47369 0.0
C120 C 0.19806 0.24253 0.48899 0.0
C121 C 0.18702 0.24745 0.49961 0.0
C122 C 0.18178 0.25928 0.49148 0.0
C123 C 0.19756 0.26111 0.46265 0.0
C124 C 0.20315 0.24939 0.47016 0.0
H125 H 0.17216 0.26175 0.49927 0.0
H126 H 0.2002 0.26505 0.44762 0.0
H127 H 0.14241 0.27375 0.47296 0.0
H128 H 0.12294 0.22112 0.44986 0.0
H129 H 0.23167 0.34587 0.45882 0.0
H130 H 0.18193 0.2417 0.5138 0.0
H131 H 0.21122 0.24562 0.46115 0.0
C132 C 0.74493 0.90419 0.43741 0.0
C133 C 0.75192 0.89272 0.43462 0.0
N134 N 0.74213 0.87759 0.44543 0.0
N135 N 0.73098 0.89639 0.45009 0.0
C136 C 0.72951 0.88018 0.45457 0.0
H137 H 0.74964 0.91735 0.43064 0.0
Co138 Co 0.71621 0.90549 0.4583 0.0
C139 C 0.71365 0.8912 0.49964 0.0
O140 O 0.72708 0.90656 0.50635 0.0
N141 N 0.70079 0.91432 0.46639 0.0
C142 C 0.68779 0.92675 0.48403 0.0
C143 C 0.69889 0.91924 0.48448 0.0
C144 C 0.69052 0.91885 0.45524 0.0
N145 N 0.68258 0.92652 0.46562 0.0
O146 O 0.69652 0.88626 0.44401 0.0
H147 H 0.70586 0.91843 0.49715 0.0
H148 H 0.68965 0.91755 0.43967 0.0
O149 O 0.7087 0.88978 0.48188 0.0
C150 C 0.6981 0.89153 0.42645 0.0
O151 O 0.71097 0.90827 0.42224 0.0
N152 N 0.73674 0.92577 0.4699 0.0
C153 C 0.76745 0.95813 0.4819 0.0
C154 C 0.76619 0.9412 0.48541 0.0
C155 C 0.75098 0.92519 0.47864 0.0
C156 C 0.73856 0.94231 0.46523 0.0
C157 C 0.75355 0.95857 0.47139 0.0
H158 H 0.75053 0.91228 0.48073 0.0
H159 H 0.72851 0.9431 0.4563 0.0
H160 H 0.71943 0.87051 0.46451 0.0
H161 H 0.76317 0.89525 0.42521 0.0
H162 H 0.68419 0.93238 0.49622 0.0
H163 H 0.77699 0.94039 0.49295 0.0
H164 H 0.75421 0.9714 0.46797 0.0
C165 C 0.10001 0.83739 0.44363 0.0
C166 C 0.10635 0.85588 0.44461 0.0
N167 N 0.11386 0.86182 0.46218 0.0
N168 N 0.10368 0.83179 0.46042 0.0
C169 C 0.11209 0.84697 0.47149 0.0
H170 H 0.09323 0.82857 0.43141 0.0
Co171 Co 0.0981 0.80799 0.46511 0.0
C172 C 0.10629 0.80639 0.5061 0.0
O173 O 0.09021 0.79149 0.50719 0.0
N174 N 0.09282 0.78364 0.46919 0.0
C175 C 0.09825 0.76078 0.47466 0.0
C176 C 0.1054 0.77936 0.47536 0.0
C177 C 0.07827 0.76731 0.46428 0.0
N178 N 0.08119 0.75323 0.46759 0.0
O179 O 0.11938 0.81257 0.45071 0.0
H180 H 0.11926 0.78923 0.47941 0.0
H181 H 0.06599 0.76561 0.45765 0.0
O182 O 0.11177 0.81509 0.49002 0.0
C183 C 0.11393 0.80581 0.43386 0.0
O184 O 0.09627 0.79691 0.43044 0.0
N185 N 0.07624 0.80374 0.47684 0.0
C186 C 0.04204 0.79841 0.48762 0.0
C187 C 0.05767 0.80969 0.49863 0.0
C188 C 0.07471 0.81249 0.49277 0.0
C189 C 0.06149 0.79403 0.46522 0.0
C190 C 0.04422 0.79061 0.47064 0.0
H191 H 0.08665 0.82216 0.50073 0.0
H192 H 0.06325 0.78941 0.45124 0.0
H193 H 0.11711 0.84727 0.48596 0.0
H194 H 0.10537 0.86427 0.43336 0.0
H195 H 0.10542 0.75351 0.47801 0.0
H196 H 0.05689 0.81682 0.51129 0.0
H197 H 0.03276 0.78207 0.46136 0.0
C198 C 0.74105 0.83294 0.95524 0.0
C199 C 0.75251 0.85142 0.95765 0.0
N200 N 0.74293 0.85852 0.96583 0.0
N201 N 0.72436 0.82837 0.96198 0.0
C202 C 0.72588 0.84417 0.96829 0.0
H203 H 0.74447 0.82354 0.94837 0.0
Co204 Co 0.70367 0.80564 0.95972 0.0
C205 C 0.6825 0.79925 0.99563 0.0
O206 O 0.67887 0.78221 0.9949 0.0
N207 N 0.68235 0.78259 0.95647 0.0
C208 C 0.65282 0.7622 0.95245 0.0
C209 C 0.6653 0.78023 0.95604 0.0
C210 C 0.67981 0.76579 0.95247 0.0
N211 N 0.66203 0.75319 0.95015 0.0
O212 O 0.69354 0.8158 0.94216 0.0
H213 H 0.66213 0.79103 0.95815 0.0
H214 H 0.69059 0.7626 0.95106 0.0
O215 O 0.69257 0.81067 0.98258 0.0
C216 C 0.69796 0.81381 0.92506 0.0
O217 O 0.70802 0.80605 0.92304 0.0
N218 N 0.71506 0.79595 0.97533 0.0
C219 C 0.73709 0.78438 0.99331 0.0
C220 C 0.73115 0.79479 1.0035 0.0
C221 C 0.72034 0.8007 0.99415 0.0
C222 C 0.7218 0.7869 0.96498 0.0
C223 C 0.73234 0.7805 0.97379 0.0
H224 H 0.71709 0.80982 1.00182 0.0
H225 H 0.71955 0.78525 0.94954 0.0
H226 H 0.71453 0.84511 0.97416 0.0
H227 H 0.76658 0.85907 0.95295 0.0
H228 H 0.63818 0.7563 0.95106 0.0
H229 H 0.73512 0.79864 0.01843 0.0
H230 H 0.73745 0.7733 0.96516 0.0
C231 C 0.14945 0.90026 0.96434 0.0
C232 C 0.13139 0.89244 0.96963 0.0
N233 N 0.12544 0.875 0.97506 0.0
N234 N 0.15492 0.88788 0.9666 0.0
C235 C 0.14003 0.87266 0.97305 0.0
H236 H 0.15789 0.91396 0.95882 0.0
Co237 Co 0.17725 0.89009 0.96017 0.0
C238 C 0.18844 0.87678 0.99424 0.0
O239 O 0.20544 0.88943 0.99089 0.0
N240 N 0.19971 0.89178 0.95309 0.0
C241 C 0.21924 0.88227 0.9456 0.0
C242 C 0.20145 0.87691 0.95 0.0
C243 C 0.21678 0.90608 0.95018 0.0
N244 N 0.22889 0.90063 0.94576 0.0
O245 O 0.16479 0.86858 0.94448 0.0
H246 H 0.19054 0.8629 0.9514 0.0
H247 H 0.22062 0.92024 0.95186 0.0
O248 O 0.17566 0.87552 0.98326 0.0
C249 C 0.16237 0.87312 0.92763 0.0
O250 O 0.16744 0.89037 0.92451 0.0
N251 N 0.18904 0.91224 0.9739 0.0
C252 C 0.20242 0.94741 0.98882 0.0
C253 C 0.19532 0.93217 1.00117 0.0
C254 C 0.18833 0.91461 0.99338 0.0
C255 C 0.19547 0.92687 0.96175 0.0
C256 C 0.20253 0.94455 0.96887 0.0
H257 H 0.18153 0.90304 1.00296 0.0
H258 H 0.19475 0.92468 0.94627 0.0
H259 H 0.13978 0.85989 0.97545 0.0
H260 H 0.12329 0.89909 0.96931 0.0
H261 H 0.22465 0.87331 0.94258 0.0
H262 H 0.19435 0.93371 0.01661 0.0
H263 H 0.20776 0.95585 0.95876 0.0
C264 C 0.08193 0.24601 0.95995 0.0
C265 C 0.08736 0.23354 0.96411 0.0
N266 N 0.10465 0.2427 0.97078 0.0
N267 N 0.09563 0.26294 0.96418 0.0
C268 C 0.10934 0.26053 0.97063 0.0
H269 H 0.06895 0.24298 0.9538 0.0
Co270 Co 0.09536 0.28442 0.95978 0.0
C271 C 0.11288 0.30833 0.99352 0.0
O272 O 0.10078 0.31369 0.99196 0.0
N273 N 0.09535 0.30639 0.95434 0.0
C274 C 0.10659 0.33584 0.94715 0.0
C275 C 0.11086 0.32257 0.95152 0.0
C276 C 0.08182 0.31024 0.95113 0.0
N277 N 0.08831 0.32804 0.94689 0.0
O278 O 0.11501 0.29186 0.9417 0.0
H279 H 0.12452 0.32464 0.95269 0.0
H280 H 0.06746 0.30043 0.95194 0.0
O281 O 0.11252 0.29644 0.9817 0.0
C282 C 0.10859 0.28608 0.92484 0.0
O283 O 0.09081 0.27575 0.92294 0.0
N284 N 0.07492 0.27571 0.97621 0.0
C285 C 0.04193 0.25584 0.99601 0.0
C286 C 0.05858 0.262 1.00561 0.0
C287 C 0.07495 0.2717 0.99538 0.0
C288 C 0.05878 0.26911 0.96656 0.0
C289 C 0.04214 0.25962 0.97626 0.0
H290 H 0.08743 0.27483 1.00268 0.0
H291 H 0.05881 0.27045 0.951 0.0
H292 H 0.12256 0.27167 0.97491 0.0
H293 H 0.07943 0.21893 0.96172 0.0
H294 H 0.1162 0.35006 0.94406 0.0
H295 H 0.05893 0.25879 0.02072 0.0
H296 H 0.02955 0.25435 0.96814 0.0
C297 C 0.83394 0.74932 0.54872 0.0
C298 C 0.85232 0.76068 0.54549 0.0
N299 N 0.8587 0.751 0.53622 0.0
N300 N 0.8289 0.73259 0.54159 0.0
C301 C 0.84426 0.73404 0.53402 0.0
H302 H 0.82496 0.75279 0.55642 0.0
Co303 Co 0.80634 0.71206 0.54527 0.0
C304 C 0.79929 0.68836 0.51134 0.0
O305 O 0.78222 0.68458 0.51198 0.0
N306 N 0.7835 0.69099 0.55006 0.0
C307 C 0.7637 0.6618 0.55677 0.0
C308 C 0.78142 0.67411 0.55195 0.0
C309 C 0.76681 0.68856 0.5544 0.0
N310 N 0.75454 0.67094 0.55835 0.0
O311 O 0.81689 0.70308 0.56347 0.0
H312 H 0.79225 0.67095 0.55013 0.0
H313 H 0.76354 0.69934 0.555 0.0
O314 O 0.81087 0.69943 0.52366 0.0
C315 C 0.81672 0.70901 0.58037 0.0
O316 O 0.81062 0.72049 0.58243 0.0
N317 N 0.79625 0.72222 0.52855 0.0
C318 C 0.78384 0.74222 0.50787 0.0
C319 C 0.79426 0.73573 0.49872 0.0
C320 C 0.80064 0.72602 0.50941 0.0
C321 C 0.78719 0.72952 0.53786 0.0
C322 C 0.78039 0.7391 0.52773 0.0
H323 H 0.80978 0.7224 0.5024 0.0
H324 H 0.78583 0.72849 0.55342 0.0
H325 H 0.84511 0.72266 0.528 0.0
H326 H 0.86044 0.77481 0.54996 0.0
H327 H 0.75814 0.64736 0.55956 0.0
H328 H 0.79779 0.73847 0.48355 0.0
H329 H 0.77321 0.74472 0.53553 0.0
C330 C 0.2575 0.10132 0.58451 0.0
C331 C 0.25066 0.11298 0.58292 0.0
N332 N 0.25485 0.12062 0.56519 0.0
N333 N 0.26604 0.10169 0.56793 0.0
C334 C 0.26414 0.11351 0.55636 0.0
H335 H 0.25629 0.09301 0.59694 0.0
Co336 Co 0.27729 0.08805 0.56426 0.0
C337 C 0.29274 0.0958 0.52478 0.0
O338 O 0.28782 0.07842 0.5235 0.0
N339 N 0.28894 0.07389 0.56132 0.0
C340 C 0.29548 0.05156 0.55779 0.0
C341 C 0.28174 0.05568 0.55858 0.0
C342 C 0.30718 0.08041 0.5622 0.0
N343 N 0.31148 0.06711 0.56013 0.0
O344 O 0.29713 0.10527 0.58005 0.0
H345 H 0.2675 0.04568 0.55723 0.0
H346 H 0.31719 0.09467 0.56433 0.0
O347 O 0.28948 0.10193 0.54035 0.0
C348 C 0.29576 0.09925 0.59726 0.0
O349 O 0.28294 0.08235 0.60092 0.0
N350 N 0.25642 0.07077 0.55083 0.0
C351 C 0.22441 0.04177 0.53579 0.0
C352 C 0.23494 0.05764 0.52478 0.0
C353 C 0.25073 0.07221 0.53275 0.0
C354 C 0.24514 0.05657 0.56249 0.0
C355 C 0.22937 0.04169 0.55515 0.0
H356 H 0.25817 0.08453 0.52434 0.0
H357 H 0.2491 0.05632 0.57732 0.0
H358 H 0.26958 0.11696 0.54183 0.0
H359 H 0.24293 0.1154 0.59383 0.0
H360 H 0.29375 0.03802 0.55632 0.0
H361 H 0.23109 0.05879 0.51013 0.0
H362 H 0.22167 0.02994 0.5644 0.0
C363 C 0.90396 0.16429 0.56743 0.0
C364 C 0.89812 0.14596 0.56544 0.0
N365 N 0.8825 0.13821 0.55513 0.0
N366 N 0.89218 0.16806 0.55826 0.0
C367 C 0.87917 0.15192 0.55105 0.0
H368 H 0.91609 0.17429 0.57497 0.0
Co369 Co 0.89438 0.19094 0.55658 0.0
C370 C 0.88079 0.1929 0.51801 0.0
O371 O 0.8951 0.20938 0.51666 0.0
N372 N 0.89626 0.21423 0.55568 0.0
C373 C 0.8872 0.2349 0.55432 0.0
C374 C 0.88177 0.21665 0.55293 0.0
C375 C 0.91023 0.23126 0.55944 0.0
N376 N 0.90511 0.24403 0.55849 0.0
O377 O 0.87414 0.18302 0.57381 0.0
H378 H 0.86795 0.20573 0.55035 0.0
H379 H 0.92386 0.23448 0.56322 0.0
O380 O 0.87831 0.18338 0.53336 0.0
C381 C 0.88064 0.18711 0.5909 0.0
O382 O 0.89849 0.19563 0.59298 0.0
N383 N 0.91542 0.19845 0.5413 0.0
C384 C 0.94841 0.20694 0.52363 0.0
C385 C 0.93176 0.19452 0.51501 0.0
C386 C 0.91542 0.19013 0.52431 0.0
C387 C 0.93152 0.20944 0.5505 0.0
C388 C 0.94818 0.21437 0.54167 0.0
H389 H 0.90287 0.17934 0.51829 0.0
H390 H 0.93147 0.21356 0.56527 0.0
H391 H 0.86766 0.15029 0.54265 0.0
H392 H 0.90478 0.13889 0.57126 0.0
H393 H 0.87853 0.24089 0.55311 0.0
H394 H 0.93137 0.1879 0.50145 0.0
H395 H 0.96076 0.22314 0.54935 0.0
C396 C 0.9138 0.49309 0.37257 0.0
C397 C 0.90326 0.47463 0.3691 0.0
N398 N 0.91446 0.46802 0.36493 0.0
N399 N 0.93155 0.49813 0.3704 0.0
C400 C 0.93152 0.48262 0.36573 0.0
H401 H 0.90884 0.50207 0.3771 0.0
Co402 Co 0.9518 0.52056 0.37624 0.0
C403 C 0.97579 0.53132 0.3419 0.0
O404 O 0.97986 0.54826 0.34525 0.0
N405 N 0.9726 0.54299 0.38301 0.0
C406 C 0.00162 0.56213 0.39091 0.0
C407 C 0.98942 0.54489 0.38449 0.0
C408 C 0.97496 0.55926 0.38913 0.0
N409 N 0.99249 0.57115 0.39384 0.0
O410 O 0.96084 0.50853 0.39263 0.0
H411 H 0.99263 0.53429 0.38119 0.0
H412 H 0.9642 0.56251 0.39034 0.0
O413 O 0.96462 0.51844 0.3531 0.0
C414 C 0.95393 0.5069 0.40943 0.0
O415 O 0.94165 0.51196 0.41176 0.0
N416 N 0.94158 0.53217 0.3618 0.0
C417 C 0.92087 0.54598 0.34509 0.0
C418 C 0.92804 0.53733 0.33368 0.0
C419 C 0.93807 0.53019 0.34236 0.0
C420 C 0.93396 0.53977 0.37314 0.0
C421 C 0.92394 0.54714 0.36509 0.0
H422 H 0.9421 0.52229 0.33353 0.0
H423 H 0.93501 0.5394 0.3887 0.0
H424 H 0.94387 0.48191 0.36409 0.0
H425 H 0.88853 0.46667 0.37003 0.0
H426 H 0.01599 0.56741 0.39374 0.0
H427 H 0.92554 0.53566 0.31824 0.0
H428 H 0.91792 0.55289 0.37458 0.0
C429 C 0.50116 0.43357 0.41261 0.0
C430 C 0.5194 0.43889 0.41171 0.0
N431 N 0.52564 0.44616 0.39411 0.0
N432 N 0.49603 0.43764 0.39574 0.0
C433 C 0.51124 0.44527 0.38471 0.0
H434 H 0.49217 0.42713 0.42479 0.0
Co435 Co 0.47264 0.43307 0.39079 0.0
C436 C 0.47174 0.44219 0.34997 0.0
O437 O 0.45617 0.4267 0.34886 0.0
N438 N 0.44869 0.42872 0.38653 0.0
C439 C 0.42639 0.43503 0.38155 0.0
C440 C 0.44492 0.44189 0.38122 0.0
C441 C 0.43213 0.41407 0.3904 0.0
N442 N 0.41836 0.41752 0.38742 0.0
O443 O 0.47788 0.45447 0.40532 0.0
H444 H 0.4551 0.45587 0.37794 0.0
H445 H 0.43001 0.40125 0.39593 0.0
O446 O 0.48051 0.44701 0.36605 0.0
C447 C 0.47104 0.44911 0.42214 0.0
O448 O 0.4617 0.43143 0.4255 0.0
N449 N 0.4677 0.41105 0.3788 0.0
C450 C 0.46118 0.37653 0.36739 0.0
C451 C 0.47268 0.39216 0.35648 0.0
C452 C 0.47607 0.40934 0.36265 0.0
C453 C 0.45783 0.39627 0.39035 0.0
C454 C 0.45382 0.37885 0.38464 0.0
H455 H 0.48591 0.42122 0.35474 0.0
H456 H 0.45337 0.39808 0.40442 0.0
H457 H 0.51186 0.45029 0.37017 0.0
H458 H 0.52739 0.43734 0.423 0.0
H459 H 0.41947 0.44264 0.37868 0.0
H460 H 0.47953 0.39127 0.34364 0.0
H461 H 0.44514 0.36738 0.39384 0.0
C462 C 0.57371 0.08222 0.38079 0.0
C463 C 0.56535 0.09214 0.37618 0.0
N464 N 0.54793 0.08034 0.3711 0.0
N465 N 0.56161 0.06428 0.37851 0.0
C466 C 0.54608 0.06357 0.37265 0.0
H467 H 0.58752 0.0877 0.38603 0.0
Co468 Co 0.56438 0.04449 0.38486 0.0
C469 C 0.54928 0.01882 0.35186 0.0
O470 O 0.56208 0.01456 0.35455 0.0
N471 N 0.56661 0.02411 0.39202 0.0
C472 C 0.55766 0.99524 0.39999 0.0
C473 C 0.55196 0.00725 0.39477 0.0
C474 C 0.58108 0.022 0.39626 0.0
N475 N 0.57598 0.00458 0.40093 0.0
O476 O 0.54404 0.03594 0.40215 0.0
H477 H 0.5379 0.00381 0.39281 0.0
H478 H 0.59514 0.03279 0.39586 0.0
O479 O 0.54851 0.03067 0.3628 0.0
C480 C 0.54993 0.04371 0.41848 0.0
O481 O 0.56731 0.05611 0.41994 0.0
N482 N 0.58551 0.05439 0.36946 0.0
C483 C 0.61938 0.07518 0.35146 0.0
C484 C 0.60323 0.0669 0.34053 0.0
C485 C 0.58637 0.05682 0.34985 0.0
C486 C 0.60102 0.06299 0.38028 0.0
C487 C 0.61808 0.07311 0.37161 0.0
H488 H 0.57413 0.05186 0.34131 0.0
H489 H 0.60004 0.06245 0.3959 0.0
H490 H 0.53337 0.0509 0.37053 0.0
H491 H 0.57154 0.10687 0.37683 0.0
H492 H 0.54902 0.98084 0.40312 0.0
H493 H 0.60356 0.06855 0.32497 0.0
H494 H 0.63008 0.07993 0.38072 0.0
C495 C 0.83157 0.59035 0.78182 0.0
C496 C 0.8137 0.578 0.78617 0.0
N497 N 0.80672 0.58675 0.79626 0.0
N498 N 0.83594 0.60678 0.78925 0.0
C499 C 0.82051 0.60423 0.79787 0.0
H500 H 0.84071 0.58761 0.77339 0.0
Co501 Co 0.85831 0.62788 0.78594 0.0
C502 C 0.8657 0.64925 0.82197 0.0
O503 O 0.88293 0.65376 0.8203 0.0
N504 N 0.88092 0.6494 0.78159 0.0
C505 C 0.90081 0.67882 0.77593 0.0
C506 C 0.88323 0.66645 0.78135 0.0
C507 C 0.89725 0.65181 0.77574 0.0
N508 N 0.90957 0.66953 0.77231 0.0
O509 O 0.84703 0.63772 0.76985 0.0
H510 H 0.87264 0.66966 0.78462 0.0
H511 H 0.90019 0.64091 0.77366 0.0
O512 O 0.85408 0.63875 0.80934 0.0
C513 C 0.84678 0.63235 0.75257 0.0
O514 O 0.85307 0.62116 0.74938 0.0
N515 N 0.86914 0.61688 0.80025 0.0
C516 C 0.87975 0.593 0.81545 0.0
C517 C 0.87175 0.6005 0.82736 0.0
C518 C 0.8661 0.61207 0.81936 0.0
C519 C 0.8767 0.60947 0.78853 0.0
C520 C 0.88241 0.59781 0.79585 0.0
H521 H 0.85817 0.61596 0.82832 0.0
H522 H 0.87726 0.61175 0.77309 0.0
H523 H 0.81939 0.61501 0.80504 0.0
H524 H 0.80629 0.56384 0.78168 0.0
H525 H 0.9065 0.6934 0.77411 0.0
H526 H 0.86879 0.59651 0.8424 0.0
H527 H 0.88822 0.59206 0.78608 0.0
C528 C 0.40151 0.23506 0.79408 0.0
C529 C 0.41239 0.22742 0.79698 0.0
N530 N 0.40321 0.21264 0.80837 0.0
N531 N 0.38558 0.22501 0.80352 0.0
C532 C 0.38702 0.21147 0.81212 0.0
H533 H 0.40464 0.2467 0.78501 0.0
Co534 Co 0.36532 0.22767 0.80118 0.0
C535 C 0.34458 0.21445 0.83764 0.0
O536 O 0.34124 0.22803 0.83639 0.0
N537 N 0.34438 0.22997 0.79785 0.0
C538 C 0.31494 0.22129 0.79419 0.0
C539 C 0.32718 0.2155 0.79796 0.0
C540 C 0.34218 0.24434 0.79332 0.0
N541 N 0.32444 0.23943 0.79122 0.0
O542 O 0.3545 0.20681 0.78436 0.0
H543 H 0.32373 0.20151 0.80058 0.0
H544 H 0.35317 0.25816 0.79136 0.0
O545 O 0.35422 0.21239 0.82463 0.0
C546 C 0.35855 0.21268 0.76703 0.0
O547 O 0.36836 0.23045 0.76436 0.0
N548 N 0.37746 0.24918 0.81606 0.0
C549 C 0.40068 0.28295 0.83326 0.0
C550 C 0.39423 0.2667 0.8438 0.0
C551 C 0.38291 0.24992 0.83483 0.0
C552 C 0.38453 0.2648 0.80535 0.0
C553 C 0.39571 0.28185 0.81376 0.0
H554 H 0.37943 0.23763 0.84277 0.0
H555 H 0.38205 0.26396 0.78994 0.0
H556 H 0.37604 0.20029 0.81997 0.0
H557 H 0.42577 0.23206 0.79082 0.0
H558 H 0.30025 0.21275 0.79312 0.0
H559 H 0.39826 0.26692 0.85872 0.0
H560 H 0.40114 0.29401 0.80484 0.0
C561 C 0.75986 0.18367 0.77857 0.0
C562 C 0.77111 0.20232 0.77689 0.0
N563 N 0.78637 0.20727 0.78731 0.0
N564 N 0.76792 0.17697 0.79017 0.0
C565 C 0.78405 0.19159 0.79511 0.0
H566 H 0.74671 0.17548 0.77171 0.0
Co567 Co 0.75952 0.15264 0.79653 0.0
C568 C 0.77384 0.16222 0.83792 0.0
O569 O 0.75814 0.15893 0.84505 0.0
N570 N 0.7516 0.12803 0.80273 0.0
C571 C 0.74142 0.10173 0.81849 0.0
C572 C 0.74809 0.12016 0.82042 0.0
C573 C 0.74698 0.11402 0.7903 0.0
N574 N 0.74068 0.09788 0.79952 0.0
O575 O 0.77879 0.15358 0.78113 0.0
H576 H 0.74946 0.12703 0.83394 0.0
H577 H 0.74736 0.1154 0.77475 0.0
O578 O 0.77547 0.16 0.81983 0.0
C579 C 0.77311 0.15058 0.76367 0.0
O580 O 0.75642 0.14722 0.76021 0.0
N581 N 0.73901 0.15138 0.80945 0.0
C582 C 0.70656 0.1467 0.82535 0.0
C583 C 0.72295 0.16328 0.82769 0.0
C584 C 0.73899 0.1655 0.8192 0.0
C585 C 0.72273 0.13609 0.80532 0.0
C586 C 0.70652 0.13327 0.8135 0.0
H587 H 0.75154 0.17835 0.82115 0.0
H588 H 0.72208 0.12591 0.79543 0.0
H589 H 0.79391 0.19073 0.80434 0.0
H590 H 0.76834 0.21142 0.76838 0.0
H591 H 0.73717 0.09188 0.83015 0.0
H592 H 0.72345 0.17425 0.83626 0.0
H593 H 0.69396 0.12071 0.81032 0.0
C594 C 0.40728 0.1697 0.29483 0.0
C595 C 0.41881 0.1879 0.29879 0.0
N596 N 0.40972 0.19377 0.30993 0.0
N597 N 0.39103 0.16423 0.30339 0.0
C598 C 0.39292 0.17918 0.31254 0.0
H599 H 0.41027 0.16117 0.28563 0.0
Co600 Co 0.37033 0.14182 0.29947 0.0
C601 C 0.34892 0.13235 0.33557 0.0
O602 O 0.34525 0.11544 0.33293 0.0
N603 N 0.34907 0.11917 0.29453 0.0
C604 C 0.31961 0.0994 0.28925 0.0
C605 C 0.3321 0.11702 0.29432 0.0
C606 C 0.34647 0.10265 0.28905 0.0
N607 N 0.32869 0.09039 0.28591 0.0
O608 O 0.36029 0.15348 0.28397 0.0
H609 H 0.329 0.1277 0.29761 0.0
H610 H 0.35721 0.09945 0.28726 0.0
O611 O 0.35911 0.14482 0.32345 0.0
C612 C 0.36539 0.15363 0.26657 0.0
O613 O 0.37597 0.14668 0.2631 0.0
N614 N 0.38164 0.13085 0.31296 0.0
C615 C 0.40471 0.11888 0.32741 0.0
C616 C 0.39793 0.12739 0.33961 0.0
C617 C 0.3867 0.13363 0.33201 0.0
C618 C 0.38879 0.12334 0.30084 0.0
C619 C 0.39997 0.11687 0.30779 0.0
H620 H 0.38302 0.14154 0.34128 0.0
H621 H 0.38643 0.1231 0.28544 0.0
H622 H 0.38192 0.17969 0.31997 0.0
H623 H 0.43262 0.1963 0.2935 0.0
H624 H 0.30503 0.09379 0.28766 0.0
H625 H 0.4017 0.1297 0.35475 0.0
H626 H 0.4056 0.11121 0.29765 0.0
C627 C 0.82489 0.23747 0.28854 0.0
C628 C 0.80626 0.22878 0.29109 0.0
N629 N 0.8006 0.2118 0.29787 0.0
N630 N 0.83094 0.22607 0.29384 0.0
C631 C 0.81585 0.21055 0.29937 0.0
H632 H 0.8334 0.25106 0.28276 0.0
Co633 Co 0.8544 0.22981 0.29156 0.0
C634 C 0.8617 0.21624 0.32794 0.0
O635 O 0.87854 0.23003 0.32732 0.0
N636 N 0.8781 0.23308 0.28857 0.0
C637 C 0.89964 0.22539 0.28548 0.0
C638 C 0.88136 0.21894 0.28827 0.0
C639 C 0.89469 0.24797 0.28535 0.0
N640 N 0.90798 0.24365 0.28362 0.0
O641 O 0.84535 0.20925 0.27452 0.0
H642 H 0.87103 0.20474 0.29011 0.0
H643 H 0.89723 0.26179 0.2843 0.0
O644 O 0.85032 0.21442 0.31469 0.0
C645 C 0.8468 0.21564 0.25748 0.0
O646 O 0.8533 0.23332 0.25558 0.0
N647 N 0.86301 0.25116 0.30639 0.0
C648 C 0.87115 0.28503 0.32151 0.0
C649 C 0.86348 0.26942 0.3333 0.0
C650 C 0.85906 0.25246 0.32532 0.0
C651 C 0.87025 0.26621 0.2948 0.0
C652 C 0.87471 0.28329 0.30209 0.0
H653 H 0.85151 0.24039 0.33409 0.0
H654 H 0.87179 0.26477 0.27948 0.0
H655 H 0.816 0.19829 0.3036 0.0
H656 H 0.79759 0.2345 0.28801 0.0
H657 H 0.90624 0.21725 0.28448 0.0
H658 H 0.85994 0.27014 0.34821 0.0
H659 H 0.8804 0.29495 0.29243 0.0
C660 C 0.75852 0.58459 0.27084 0.0
C661 C 0.77093 0.5786 0.27057 0.0
N662 N 0.78232 0.58607 0.28575 0.0
N663 N 0.76203 0.59578 0.28608 0.0
C664 C 0.7766 0.59646 0.29492 0.0
H665 H 0.74766 0.58113 0.26051 0.0
Co666 Co 0.7487 0.60712 0.29151 0.0
C667 C 0.75868 0.62144 0.33134 0.0
O668 O 0.74136 0.61559 0.33469 0.0
N669 N 0.73472 0.61889 0.29647 0.0
C670 C 0.71304 0.62531 0.30503 0.0
C671 C 0.71787 0.61205 0.30443 0.0
C672 C 0.73964 0.63648 0.29232 0.0
N673 N 0.72672 0.64062 0.29731 0.0
O674 O 0.76523 0.62704 0.27566 0.0
H675 H 0.70951 0.59845 0.31009 0.0
H676 H 0.7525 0.64624 0.2858 0.0
O677 O 0.76375 0.61894 0.31471 0.0
C678 C 0.75881 0.62521 0.25859 0.0
O679 O 0.74201 0.612 0.25535 0.0
N680 N 0.73204 0.5861 0.30491 0.0
C681 C 0.70398 0.5534 0.31973 0.0
C682 C 0.72053 0.56328 0.32981 0.0
C683 C 0.73464 0.57943 0.32188 0.0
C684 C 0.71688 0.5757 0.29403 0.0
C685 C 0.70251 0.55955 0.30132 0.0
H686 H 0.74756 0.58643 0.32937 0.0
H687 H 0.71561 0.58056 0.27995 0.0
H688 H 0.78277 0.60423 0.30792 0.0
H689 H 0.77165 0.56968 0.25981 0.0
H690 H 0.70026 0.62369 0.31029 0.0
H691 H 0.72256 0.55858 0.34367 0.0
H692 H 0.6901 0.55239 0.29288 0.0
C693 C 0.49775 0.08114 0.89791 0.0
C694 C 0.5157 0.09348 0.89385 0.0
N695 N 0.52316 0.08445 0.88524 0.0
N696 N 0.49384 0.06444 0.89167 0.0
C697 C 0.50961 0.06684 0.88414 0.0
H698 H 0.48824 0.08406 0.90531 0.0
Co699 Co 0.47168 0.04314 0.89499 0.0
C700 C 0.46321 0.02326 0.85815 0.0
O701 O 0.44642 0.0199 0.86077 0.0
N702 N 0.44928 0.02121 0.89921 0.0
C703 C 0.43032 0.99131 0.90326 0.0
C704 C 0.44789 0.00454 0.899 0.0
C705 C 0.43226 0.01763 0.90398 0.0
N706 N 0.42048 -0.00042 0.90637 0.0
O707 O 0.48357 0.03331 0.91034 0.0
H708 H 0.45902 0.00211 0.89579 0.0
H709 H 0.4284 0.02785 0.90615 0.0
O710 O 0.47548 0.03272 0.87079 0.0
C711 C 0.48393 0.03825 0.92783 0.0
O712 O 0.47723 0.04898 0.93171 0.0
N713 N 0.46041 0.05422 0.88151 0.0
C714 C 0.44829 0.07721 0.86694 0.0
C715 C 0.45852 0.07195 0.85535 0.0
C716 C 0.46468 0.06068 0.86299 0.0
C717 C 0.45127 0.05992 0.89318 0.0
C718 C 0.44449 0.07077 0.88605 0.0
H719 H 0.4739 0.05826 0.85436 0.0
H720 H 0.45002 0.05678 0.90846 0.0
H721 H 0.51114 0.05583 0.87818 0.0
H722 H 0.52287 0.10784 0.8976 0.0
H723 H 0.42517 0.97673 0.9038 0.0
H724 H 0.46264 0.07727 0.84085 0.0
H725 H 0.43684 0.07451 0.89574 0.0
C726 C 0.9216 0.42905 0.87644 0.0
C727 C 0.91111 0.43698 0.87267 0.0
N728 N 0.92236 0.45462 0.86784 0.0
N729 N 0.93933 0.44162 0.87382 0.0
C730 C 0.93937 0.45702 0.86866 0.0
H731 H 0.91664 0.41518 0.88126 0.0
Co732 Co 0.95956 0.43935 0.87897 0.0
C733 C 0.98393 0.4549 0.84504 0.0
O734 O 0.9885 0.44225 0.84712 0.0
N735 N 0.98039 0.43753 0.88506 0.0
C736 C 0.00928 0.44695 0.89306 0.0
C737 C -0.00281 0.45234 0.88725 0.0
C738 C 0.98266 0.42329 0.89007 0.0
N739 N 0.00012 0.42864 0.89487 0.0
O740 O 0.96835 0.45974 0.89628 0.0
H741 H 0.00047 0.46631 0.88477 0.0
H742 H 0.97178 0.4093 0.89093 0.0
O743 O 0.97245 0.45549 0.85672 0.0
C744 C 0.96197 0.45416 0.91318 0.0
O745 O 0.95072 0.43657 0.91569 0.0
N746 N 0.94952 0.41829 0.86325 0.0
C747 C 0.92821 0.38492 0.84444 0.0
C748 C 0.9356 0.40141 0.83416 0.0
C749 C 0.94602 0.41798 0.84388 0.0
C750 C 0.94173 0.40239 0.87352 0.0
C751 C 0.93147 0.38554 0.86436 0.0
H752 H 0.9502 0.43045 0.83597 0.0
H753 H 0.9427 0.40284 0.88913 0.0
H754 H 0.95175 0.46997 0.86646 0.0
H755 H 0.89639 0.43029 0.87367 0.0
H756 H 0.02372 0.45588 0.89568 0.0
H757 H 0.93288 0.40151 0.81886 0.0
H758 H 0.92529 0.37317 0.87298 0.0
C759 C 0.56814 0.48464 0.90056 0.0
C760 C 0.55694 0.46596 0.90172 0.0
N761 N 0.54199 0.46117 0.89081 0.0
N762 N 0.56034 0.49154 0.88883 0.0
C763 C 0.54442 0.47698 0.88325 0.0
H764 H 0.5811 0.49272 0.90781 0.0
Co765 Co 0.56919 0.51601 0.88288 0.0
C766 C 0.55577 0.5073 0.84103 0.0
O767 O 0.57145 0.51038 0.83403 0.0
N768 N 0.57768 0.54076 0.877 0.0
C769 C 0.5897 0.56751 0.86174 0.0
C770 C 0.58287 0.54906 0.85957 0.0
C771 C 0.58141 0.55451 0.8895 0.0
N772 N 0.58878 0.57089 0.88058 0.0
O773 O 0.54967 0.51517 0.89782 0.0
H774 H 0.58262 0.54242 0.84618 0.0
H775 H 0.57968 0.55278 0.90499 0.0
O776 O 0.55391 0.50931 0.85912 0.0
C777 C 0.55511 0.51761 0.91537 0.0
O778 O 0.57166 0.52057 0.91887 0.0
N779 N 0.58989 0.51713 0.87077 0.0
C780 C 0.62312 0.52034 0.85949 0.0
C781 C 0.60655 0.50495 0.85418 0.0
C782 C 0.59006 0.50331 0.86055 0.0
C783 C 0.60602 0.53157 0.87692 0.0
C784 C 0.62268 0.53364 0.87114 0.0
H785 H 0.57742 0.49094 0.85724 0.0
H786 H 0.60615 0.54145 0.88691 0.0
H787 H 0.53483 0.47797 0.8737 0.0
H788 H 0.55954 0.45673 0.91019 0.0
H789 H 0.59528 0.5777 0.8504 0.0
H790 H 0.60638 0.49408 0.8457 0.0
H791 H 0.63516 0.54557 0.8759 0.0
C792 C 0.58851 0.83471 0.7294 0.0
C793 C 0.57798 0.81595 0.72871 0.0
N794 N 0.58734 0.80941 0.719 0.0
N795 N 0.60434 0.83993 0.72004 0.0
C796 C 0.60329 0.82428 0.71396 0.0
H797 H 0.58501 0.84396 0.73648 0.0
Co798 Co 0.62366 0.86353 0.71787 0.0
C799 C 0.63723 0.86626 0.67816 0.0
O800 O 0.63741 0.88189 0.67706 0.0
N801 N 0.64384 0.88756 0.71648 0.0
C802 C 0.67291 0.90979 0.71405 0.0
C803 C 0.66088 0.89151 0.71132 0.0
C804 C 0.64617 0.90365 0.72316 0.0
N805 N 0.66362 0.91738 0.72157 0.0
O806 O 0.63789 0.85715 0.73427 0.0
H807 H 0.66453 0.88155 0.70662 0.0
H808 H 0.63565 0.90533 0.72994 0.0
O809 O 0.63226 0.85699 0.69393 0.0
C810 C 0.63542 0.86077 0.75156 0.0
O811 O 0.62488 0.86791 0.75417 0.0
N812 N 0.6083 0.86954 0.70353 0.0
C813 C 0.58318 0.8775 0.68639 0.0
C814 C 0.58718 0.86486 0.67786 0.0
C815 C 0.59945 0.86073 0.68692 0.0
C816 C 0.60314 0.88043 0.71286 0.0
C817 C 0.59109 0.88508 0.7043 0.0
H818 H 0.60146 0.85012 0.68075 0.0
H819 H 0.60757 0.88475 0.7275 0.0
H820 H 0.61408 0.82385 0.706 0.0
H821 H 0.56467 0.80779 0.73525 0.0
H822 H 0.68752 0.91672 0.71173 0.0
H823 H 0.58079 0.85812 0.66441 0.0
H824 H 0.58742 0.89396 0.712 0.0
C825 C 0.1806 0.77598 0.74638 0.0
C826 C 0.19876 0.78899 0.7457 0.0
N827 N 0.20263 0.79618 0.72776 0.0
N828 N 0.17296 0.77495 0.72899 0.0
C829 C 0.18673 0.78734 0.71784 0.0
H830 H 0.17343 0.76759 0.75873 0.0
Co831 Co 0.14854 0.75884 0.72403 0.0
C832 C 0.14456 0.78608 0.69967 0.0
O833 O 0.13807 0.79143 0.71394 0.0
N834 N 0.12382 0.74221 0.71977 0.0
C835 C 0.09786 0.71572 0.71793 0.0
C836 C 0.11647 0.72388 0.71926 0.0
C837 C 0.10932 0.74485 0.71915 0.0
N838 N 0.09333 0.7289 0.71797 0.0
O839 O 0.14225 0.77186 0.74228 0.0
H840 H 0.12408 0.71678 0.72062 0.0
H841 H 0.11039 0.75811 0.72035 0.0
O842 O 0.14895 0.77387 0.70255 0.0
C843 C 0.13733 0.76429 0.75883 0.0
O844 O 0.13572 0.74811 0.76131 0.0
N845 N 0.15489 0.74547 0.70728 0.0
C846 C 0.15664 0.71753 0.6878 0.0
C847 C 0.15017 0.72791 0.67839 0.0
C848 C 0.14934 0.74184 0.68843 0.0
C849 C 0.16254 0.73652 0.71612 0.0
C850 C 0.16365 0.72255 0.7066 0.0
H851 H 0.14273 0.74848 0.68156 0.0
H852 H 0.16653 0.73925 0.73116 0.0
H853 H 0.18511 0.78987 0.70283 0.0
H854 H 0.20845 0.79257 0.75742 0.0
H855 H 0.08832 0.70115 0.71817 0.0
H856 H 0.14441 0.72436 0.66399 0.0
H857 H 0.16896 0.71504 0.71431 0.0
C858 C 0.22836 0.40974 0.73868 0.0
C859 C 0.21851 0.4187 0.73907 0.0
N860 N 0.20458 0.41035 0.72646 0.0
N861 N 0.22063 0.39584 0.7259 0.0
C862 C 0.20606 0.39644 0.71886 0.0
H863 H 0.24063 0.41337 0.74683 0.0
Co864 Co 0.22903 0.37991 0.71958 0.0
C865 C 0.21519 0.37526 0.67797 0.0
O866 O 0.23094 0.38773 0.67098 0.0
N867 N 0.23714 0.3634 0.7135 0.0
C868 C 0.24849 0.34811 0.69814 0.0
C869 C 0.24155 0.35963 0.69596 0.0
C870 C 0.24142 0.35385 0.72607 0.0
N871 N 0.2484 0.34453 0.7171 0.0
O872 O 0.2096 0.36137 0.7349 0.0
H873 H 0.24072 0.3655 0.68244 0.0
H874 H 0.24042 0.35448 0.7416 0.0
O875 O 0.21332 0.37129 0.69605 0.0
C876 C 0.21518 0.36423 0.75241 0.0
O877 O 0.23183 0.37767 0.75582 0.0
N878 N 0.24963 0.39937 0.70695 0.0
C879 C 0.2825 0.42942 0.6946 0.0
C880 C 0.26578 0.42839 0.6905 0.0
C881 C 0.24953 0.41349 0.69729 0.0
C882 C 0.26596 0.40086 0.7119 0.0
C883 C 0.28241 0.41542 0.70551 0.0
H884 H 0.23684 0.41329 0.6946 0.0
H885 H 0.26647 0.39099 0.7214 0.0
H886 H 0.19677 0.38699 0.70821 0.0
H887 H 0.22173 0.43079 0.74742 0.0
H888 H 0.25358 0.34309 0.68671 0.0
H889 H 0.26529 0.43921 0.68261 0.0
H890 H 0.295 0.41576 0.7093 0.0
C891 C 0.48717 0.91203 0.11186 0.0
C892 C 0.46838 0.903 0.11262 0.0
N893 N 0.46344 0.91193 0.12518 0.0
N894 N 0.49395 0.92661 0.12378 0.0
C895 C 0.47916 0.92619 0.13167 0.0
H896 H 0.49541 0.90816 0.1033 0.0
Co897 Co 0.5185 0.94315 0.12776 0.0
C898 C 0.51596 0.96909 0.15466 0.0
O899 O 0.52401 0.98233 0.14195 0.0
N900 N 0.54323 0.95965 0.13177 0.0
C901 C 0.5703 0.97556 0.14596 0.0
C902 C 0.55186 0.96481 0.14901 0.0
C903 C 0.55669 0.96738 0.11848 0.0
N904 N 0.5733 0.97713 0.12675 0.0
O905 O 0.51665 0.96001 0.11062 0.0
H906 H 0.54524 0.96049 0.16294 0.0
H907 H 0.55449 0.96519 0.10308 0.0
O908 O 0.51275 0.95304 0.15042 0.0
C909 C 0.5183 0.95621 0.09315 0.0
O910 O 0.52128 0.94257 0.08997 0.0
N911 N 0.52041 0.92592 0.14284 0.0
C912 C 0.52458 0.89894 0.16135 0.0
C913 C 0.51336 0.90511 0.16934 0.0
C914 C 0.51129 0.91855 0.15972 0.0
C915 C 0.53113 0.91992 0.13476 0.0
C916 C 0.53354 0.90657 0.14383 0.0
H917 H 0.50209 0.92268 0.16558 0.0
H918 H 0.53785 0.92557 0.1211 0.0
H919 H 0.47979 0.9362 0.14186 0.0
H920 H 0.45909 0.89065 0.10488 0.0
H921 H 0.58072 0.98154 0.15703 0.0
H922 H 0.50591 0.89931 0.18264 0.0
H923 H 0.54245 0.90235 0.1372 0.0
C924 C 0.06743 0.55527 0.09516 0.0
C925 C 0.07383 0.54335 0.09744 0.0
N926 N 0.07346 0.53958 0.11642 0.0
N927 N 0.06287 0.55895 0.11258 0.0
C928 C 0.06682 0.5493 0.12535 0.0
H929 H 0.06659 0.56125 0.08166 0.0
Co930 Co 0.05443 0.57522 0.11562 0.0
C931 C 0.02517 0.5478 0.14211 0.0
O932 O 0.01409 0.53808 0.12807 0.0
N933 N 0.04619 0.59191 0.11787 0.0
C934 C 0.04648 0.61815 0.11421 0.0
C935 C 0.05706 0.61014 0.11574 0.0
C936 C 0.029 0.58914 0.11759 0.0
N937 N 0.02883 0.60493 0.11516 0.0
O938 O 0.0347 0.5606 0.09825 0.0
H939 H 0.07173 0.61708 0.11407 0.0
H940 H 0.01689 0.57572 0.11738 0.0
O941 O 0.04045 0.56196 0.13821 0.0
C942 C 0.03674 0.56724 0.08126 0.0
O943 O 0.05088 0.5835 0.07788 0.0
N944 N 0.07444 0.59006 0.13148 0.0
C945 C 0.10475 0.61817 0.15002 0.0
C946 C 0.08766 0.60936 0.15918 0.0
C947 C 0.07261 0.5954 0.1496 0.0
C948 C 0.09111 0.59779 0.12276 0.0
C949 C 0.10649 0.61185 0.13181 0.0
H950 H 0.0593 0.59 0.15613 0.0
H951 H 0.09229 0.59377 0.10821 0.0
H952 H 0.06502 0.54954 0.14083 0.0
H953 H 0.07898 0.53836 0.08604 0.0
H954 H 0.05135 0.63248 0.11146 0.0
H955 H 0.08563 0.61407 0.17303 0.0
H956 H 0.11945 0.61824 0.12427 0.0
C957 C 0.4272 0.50198 0.12176 0.0
C958 C 0.43526 0.52049 0.1251 0.0
N959 N 0.45211 0.52644 0.1324 0.0
N960 N 0.43884 0.49626 0.12707 0.0
C961 C 0.45387 0.51141 0.13344 0.0
H962 H 0.41395 0.49336 0.1153 0.0
Co963 Co 0.4358 0.47315 0.12348 0.0
C964 C 0.44954 0.46482 0.159 0.0
O965 O 0.43578 0.44799 0.15768 0.0
N966 N 0.43327 0.44981 0.11899 0.0
C967 C 0.44208 0.42933 0.11342 0.0
C968 C 0.44776 0.44713 0.11836 0.0
C969 C 0.41896 0.43339 0.11383 0.0
N970 N 0.42395 0.42072 0.11051 0.0
O971 O 0.45617 0.48337 0.1061 0.0
H972 H 0.46174 0.4576 0.12112 0.0
H973 H 0.40513 0.43057 0.11225 0.0
O974 O 0.45148 0.47671 0.14628 0.0
C975 C 0.44954 0.48242 0.08928 0.0
O976 O 0.4318 0.47564 0.08778 0.0
N977 N 0.41458 0.46345 0.13881 0.0
C978 C 0.38068 0.45283 0.15592 0.0
C979 C 0.39693 0.46223 0.16665 0.0
C980 C 0.41377 0.46767 0.15775 0.0
C981 C 0.39904 0.45512 0.12803 0.0
C982 C 0.38199 0.44913 0.13637 0.0
H983 H 0.42608 0.47619 0.16583 0.0
H984 H 0.39994 0.45381 0.11258 0.0
H985 H 0.46599 0.5114 0.13838 0.0
H986 H 0.42937 0.52895 0.1217 0.0
H987 H 0.45071 0.42337 0.1115 0.0
H988 H 0.39678 0.46617 0.18152 0.0
H989 H 0.37 0.44205 0.12732 0.0
C990 C 0.0786 0.51029 0.60149 0.0
C991 C 0.09075 0.52881 0.60192 0.0
N992 N 0.08443 0.53651 0.61451 0.0
N993 N 0.06463 0.50639 0.61362 0.0
C994 C 0.06856 0.52265 0.62132 0.0
H995 H 0.08007 0.50023 0.59324 0.0
Co996 Co 0.04538 0.48303 0.61876 0.0
C997 C 0.02321 0.49104 0.64598 0.0
O998 O 0.00935 0.48395 0.63391 0.0
N999 N 0.02622 0.45945 0.62395 0.0
C1000 C 0.0083 0.4336 0.63968 0.0
C1001 C 0.02051 0.45193 0.64165 0.0
C1002 C 0.01728 0.44542 0.61147 0.0
N1003 N 0.00635 0.42953 0.6207 0.0
O1004 O 0.03014 0.48725 0.60138 0.0
H1005 H 0.02571 0.45907 0.6552 0.0
H1006 H 0.01969 0.44651 0.59603 0.0
O1007 O 0.0382 0.49196 0.64112 0.0
C1008 C 0.03332 0.48403 0.5842 0.0
O1009 O 0.04511 0.47834 0.58189 0.0
N1010 N 0.06086 0.4785 0.63399 0.0
C1011 C 0.08487 0.46999 0.65266 0.0
C1012 C 0.08203 0.48398 0.65972 0.0
C1013 C 0.06998 0.48811 0.65006 0.0
C1014 C 0.06365 0.46511 0.62679 0.0
C1015 C 0.07534 0.46044 0.63604 0.0
H1016 H 0.06838 0.4993 0.65519 0.0
H1017 H 0.05673 0.45801 0.61371 0.0
H1018 H 0.06009 0.52435 0.63189 0.0
H1019 H 0.10357 0.53594 0.59416 0.0
H1020 H 0.00188 0.42388 0.65134 0.0
H1021 H 0.08936 0.49196 0.67226 0.0
H1022 H 0.07684 0.44937 0.63017 0.0
C1023 C 0.48837 0.57707 0.61527 0.0
C1024 C 0.46984 0.57016 0.61704 0.0
N1025 N 0.46333 0.55638 0.62996 0.0
N1026 N 0.49343 0.56764 0.62699 0.0
C1027 C 0.4779 0.55509 0.63569 0.0
H1028 H 0.4976 0.5882 0.60599 0.0
Co1029 Co 0.51683 0.57138 0.62911 0.0
C1030 C 0.51962 0.56036 0.6687 0.0
O1031 O 0.53525 0.57578 0.66987 0.0
N1032 N 0.54068 0.57473 0.63055 0.0
C1033 C 0.56219 0.56691 0.63297 0.0
C1034 C 0.54395 0.56103 0.63504 0.0
C1035 C 0.55721 0.58861 0.62503 0.0
N1036 N 0.57049 0.58426 0.6266 0.0
O1037 O 0.51003 0.55067 0.61279 0.0
H1038 H 0.53357 0.54731 0.63895 0.0
H1039 H 0.55959 0.60146 0.61925 0.0
O1040 O 0.51025 0.55623 0.65302 0.0
C1041 C 0.51523 0.55681 0.59572 0.0
O1042 O 0.52377 0.57462 0.59311 0.0
N1043 N 0.52326 0.59284 0.64324 0.0
C1044 C 0.53251 0.62651 0.6597 0.0
C1045 C 0.51988 0.61021 0.66882 0.0
C1046 C 0.51509 0.59347 0.6601 0.0
C1047 C 0.53401 0.60857 0.63333 0.0
C1048 C 0.53931 0.62556 0.64153 0.0
H1049 H 0.50459 0.58109 0.66676 0.0
H1050 H 0.5379 0.60793 0.61861 0.0
H1051 H 0.47717 0.54491 0.64571 0.0
H1052 H 0.46182 0.575 0.60956 0.0
H1053 H 0.56866 0.55875 0.63499 0.0
H1054 H 0.51372 0.61038 0.6825 0.0
H1055 H 0.54816 0.63785 0.63343 0.0
C1056 C 0.42878 0.9311 0.61999 0.0
C1057 C 0.43669 0.92028 0.61995 0.0
N1058 N 0.45339 0.92979 0.62808 0.0
N1059 N 0.4404 0.94731 0.62817 0.0
C1060 C 0.45525 0.94615 0.63287 0.0
H1061 H 0.41547 0.92747 0.6143 0.0
Co1062 Co 0.4367 0.96704 0.6313 0.0
C1063 C 0.46595 0.9902 0.65868 0.0
O1064 O 0.47196 0.00397 0.64652 0.0
N1065 N 0.43285 0.9868 0.63448 0.0
C1066 C 0.42719 0.00749 0.6475 0.0
C1067 C 0.43072 0.9936 0.65133 0.0
C1068 C 0.43025 0.99653 0.62063 0.0
N1069 N 0.42686 0.0093 0.62817 0.0
O1070 O 0.45666 0.9811 0.61401 0.0
H1071 H 0.43118 0.98844 0.66551 0.0
H1072 H 0.4305 0.99409 0.60531 0.0
O1073 O 0.45235 0.97476 0.65403 0.0
C1074 C 0.45041 0.97629 0.59689 0.0
O1075 O 0.433 0.96412 0.59489 0.0
N1076 N 0.41618 0.9526 0.64625 0.0
C1077 C 0.38254 0.92762 0.66209 0.0
C1078 C 0.39883 0.93202 0.67183 0.0
C1079 C 0.41565 0.94453 0.66354 0.0
C1080 C 0.40053 0.94877 0.63687 0.0
C1081 C 0.38357 0.93644 0.64457 0.0
H1082 H 0.42813 0.94716 0.67061 0.0
H1083 H 0.40127 0.95502 0.62298 0.0
H1084 H 0.46716 0.95711 0.6398 0.0
H1085 H 0.43066 0.9066 0.6141 0.0
H1086 H 0.42425 0.01509 0.65811 0.0
H1087 H 0.39859 0.92535 0.68529 0.0
H1088 H 0.37136 0.93364 0.63671 0.0
C1089 C 0.17969 0.40976 0.23689 0.0
C1090 C 0.1984 0.41743 0.23661 0.0
N1091 N 0.20263 0.40859 0.22319 0.0
N1092 N 0.17223 0.39608 0.22384 0.0
C1093 C 0.18656 0.39573 0.21569 0.0
H1094 H 0.172 0.41386 0.24605 0.0
Co1095 Co 0.14738 0.38106 0.21946 0.0
C1096 C 0.14753 0.35489 0.19122 0.0
O1097 O 0.13833 0.34149 0.20351 0.0
N1098 N 0.12231 0.36612 0.21495 0.0
C1099 C 0.09548 0.35298 0.19991 0.0
C1100 C 0.11407 0.36295 0.1975 0.0
C1101 C 0.10843 0.35793 0.22774 0.0
N1102 N 0.09198 0.34986 0.21894 0.0
O1103 O 0.14764 0.36281 0.23577 0.0
H1104 H 0.1211 0.36805 0.18388 0.0
H1105 H 0.11021 0.35848 0.24326 0.0
O1106 O 0.15231 0.37127 0.19608 0.0
C1107 C 0.14536 0.36652 0.25309 0.0
O1108 O 0.14301 0.38061 0.2559 0.0
N1109 N 0.14697 0.39972 0.20572 0.0
C1110 C 0.14276 0.42768 0.18991 0.0
C1111 C 0.1516 0.42008 0.17942 0.0
C1112 C 0.15377 0.40615 0.18773 0.0
C1113 C 0.13881 0.40725 0.21625 0.0
C1114 C 0.1365 0.42119 0.20862 0.0
H1115 H 0.16081 0.40057 0.17972 0.0
H1116 H 0.13376 0.40211 0.2306 0.0
H1117 H 0.18533 0.38605 0.20471 0.0
H1118 H 0.20814 0.42877 0.24535 0.0
H1119 H 0.08532 0.34852 0.18856 0.0
H1120 H 0.15684 0.4249 0.16502 0.0
H1121 H 0.12943 0.42649 0.21715 0.0
C1122 C 0.58638 0.75304 0.23483 0.0
C1123 C 0.57433 0.75951 0.23539 0.0
N1124 N 0.5824 0.77621 0.2271 0.0
N1125 N 0.60189 0.76553 0.2261 0.0
C1126 C 0.59912 0.77951 0.22167 0.0
H1127 H 0.58404 0.74009 0.24044 0.0
Co1128 Co 0.62261 0.76376 0.22206 0.0
C1129 C 0.64248 0.79434 0.19437 0.0
O1130 O 0.65588 0.80298 0.20679 0.0
N1131 N 0.64349 0.76187 0.21815 0.0
C1132 C 0.66569 0.75884 0.20478 0.0
C1133 C 0.65184 0.76249 0.20132 0.0
C1134 C 0.65231 0.75755 0.23156 0.0
N1135 N 0.66594 0.75558 0.22386 0.0
O1136 O 0.63592 0.78423 0.23904 0.0
H1137 H 0.64769 0.76468 0.18724 0.0
H1138 H 0.64806 0.75488 0.2465 0.0
O1139 O 0.62859 0.77913 0.19914 0.0
C1140 C 0.6329 0.77846 0.25647 0.0
O1141 O 0.62235 0.76081 0.25941 0.0
N1142 N 0.60895 0.74276 0.20718 0.0
C1143 C 0.58502 0.70869 0.19108 0.0
C1144 C 0.58682 0.72478 0.18299 0.0
C1145 C 0.59885 0.74175 0.19134 0.0
C1146 C 0.60761 0.72735 0.21501 0.0
C1147 C 0.59597 0.71024 0.20704 0.0
H1148 H 0.59931 0.75389 0.1857 0.0
H1149 H 0.61521 0.72828 0.22795 0.0
H1150 H 0.60916 0.7918 0.21441 0.0
H1151 H 0.56079 0.75253 0.24165 0.0
H1152 H 0.67448 0.75816 0.19386 0.0
H1153 H 0.57842 0.72424 0.1709 0.0
H1154 H 0.59529 0.69829 0.21364 0.0
C1155 C 0.23522 0.82343 0.23977 0.0
C1156 C 0.22967 0.80513 0.23838 0.0
N1157 N 0.21771 0.79801 0.22364 0.0
N1158 N 0.22674 0.82778 0.22603 0.0
C1159 C 0.21614 0.81202 0.21642 0.0
H1160 H 0.24481 0.83301 0.25014 0.0
Co1161 Co 0.22972 0.85086 0.22292 0.0
C1162 C 0.21794 0.8523 0.18335 0.0
O1163 O 0.23289 0.86832 0.18197 0.0
N1164 N 0.23237 0.87442 0.22056 0.0
C1165 C 0.22377 0.89533 0.21769 0.0
C1166 C 0.21821 0.87707 0.21651 0.0
C1167 C 0.24627 0.89137 0.22481 0.0
N1168 N 0.24142 0.9043 0.223 0.0
O1169 O 0.20908 0.84399 0.23944 0.0
H1170 H 0.20444 0.86627 0.21344 0.0
H1171 H 0.25954 0.89436 0.22978 0.0
O1172 O 0.21434 0.8431 0.19912 0.0
C1173 C 0.2154 0.8502 0.25625 0.0
O1174 O 0.23322 0.85973 0.25844 0.0
N1175 N 0.25115 0.85739 0.20872 0.0
C1176 C 0.28496 0.86551 0.19321 0.0
C1177 C 0.26861 0.8531 0.18393 0.0
C1178 C 0.25186 0.84892 0.19214 0.0
C1179 C 0.26681 0.86831 0.21863 0.0
C1180 C 0.28383 0.87307 0.21088 0.0
H1181 H 0.23953 0.83831 0.18552 0.0
H1182 H 0.2661 0.87273 0.23309 0.0
H1183 H 0.20721 0.81072 0.20458 0.0
H1184 H 0.23424 0.79769 0.24736 0.0
H1185 H 0.21524 0.90141 0.21577 0.0
H1186 H 0.2687 0.8461 0.17084 0.0
H1187 H 0.29595 0.88238 0.21892 0.0
C1188 C 0.3216 0.19721 0.8629 0.0
C1189 C 0.33929 0.20377 0.85572 0.0
C1190 C 0.3174 0.19139 0.88206 0.0
C1191 C 0.33532 0.18232 0.92796 0.0
H1192 H 0.30342 0.19792 0.9507 0.0
C1193 C 0.29322 0.17507 1.00306 0.0
C1194 C 0.30706 0.18203 0.01718 0.0
C1195 C 0.29749 0.1757 0.98347 0.0
C1196 C 0.31223 0.19332 0.94456 0.0
H1197 H 0.3663 0.20855 0.86251 0.0
H1198 H 0.35925 0.19907 0.89638 0.0
H1199 H 0.3099 0.20209 0.91637 0.0
H1200 H 0.33621 0.19409 0.02173 0.0
H1201 H 0.34366 0.19504 0.98726 0.0
H1202 H 0.33805 0.17424 0.95674 0.0
C1203 C 0.34841 0.19793 0.88712 0.0
C1204 C 0.31587 0.19557 0.92477 0.0
C1205 C 0.35248 0.20334 0.86769 0.0
C1206 C 0.32524 0.18872 0.01124 0.0
C1207 C 0.32951 0.18922 0.99152 0.0
C1208 C 0.33184 0.18028 0.94795 0.0
C1209 C 0.33098 0.19259 0.89477 0.0
C1210 C 0.32727 0.1899 0.91605 0.0
C1211 C 0.31569 0.18314 0.97742 0.0
C1212 C 0.32007 0.18559 0.9564 0.0
H1213 H 0.31119 0.1974 0.8539 0.0
H1214 H 0.30364 0.18672 0.88712 0.0
H1215 H 0.34413 0.17774 0.92183 0.0
H1216 H 0.27902 0.16937 0.00707 0.0
H1217 H 0.28651 0.1706 0.97297 0.0
C1218 C 0.81968 0.11359 0.97686 0.0
C1219 C 0.8139 0.11968 0.99277 0.0
C1220 C 0.82315 0.12261 0.9591 0.0
C1221 C 0.81281 0.13255 0.92131 0.0
H1222 H 0.82695 0.18347 0.91427 0.0
C1223 C 0.79867 0.1564 0.84923 0.0
C1224 C 0.78818 0.16489 0.8519 0.0
C1225 C 0.80849 0.15486 0.86477 0.0
C1226 C 0.8231 0.16924 0.91597 0.0
H1227 H 0.80776 0.14015 1.00308 0.0
H1228 H 0.81324 0.15572 0.97188 0.0
H1229 H 0.83203 0.17316 0.9455 0.0
H1230 H 0.78112 0.17995 0.87214 0.0
H1231 H 0.79827 0.17746 0.89901 0.0
H1232 H 0.80328 0.12845 0.89211 0.0
C1233 C 0.81569 0.14434 0.97311 0.0
C1234 C 0.82592 0.1633 0.9339 0.0
C1235 C 0.81251 0.13545 0.99101 0.0
C1236 C 0.78906 0.17328 0.86972 0.0
C1237 C 0.79898 0.17192 0.88512 0.0
C1238 C 0.8101 0.1385 0.90341 0.0
C1239 C 0.82042 0.13763 0.95673 0.0
C1240 C 0.82028 0.14475 0.93699 0.0
C1241 C 0.80813 0.16197 0.8831 0.0
C1242 C 0.81466 0.15678 0.90069 0.0
H1243 H 0.82073 0.10135 0.97794 0.0
H1244 H 0.82719 0.11729 0.94699 0.0
H1245 H 0.80797 0.11811 0.9231 0.0
H1246 H 0.79815 0.14974 0.83566 0.0
H1247 H 0.81558 0.14728 0.86271 0.0
C1248 C 0.84253 0.64315 0.84807 0.0
C1249 C 0.85988 0.65441 0.83993 0.0
C1250 C 0.83848 0.64682 0.86668 0.0
C1251 C 0.8553 0.68272 0.90506 0.0
H1252 H 0.83853 0.6422 0.94099 0.0
C1253 C 0.88133 0.69058 0.98208 0.0
C1254 C 0.86949 0.68074 0.99728 0.0
C1255 C 0.87496 0.68816 0.96312 0.0
C1256 C 0.84279 0.65358 0.93112 0.0
H1257 H 0.88611 0.67885 0.84429 0.0
H1258 H 0.87908 0.68532 0.87634 0.0
H1259 H 0.83652 0.63639 0.90616 0.0
H1260 H 0.84167 0.66082 1.00484 0.0
H1261 H 0.83045 0.65604 0.97114 0.0
H1262 H 0.8627 0.70001 0.93002 0.0
C1263 C 0.86854 0.67369 0.86856 0.0
C1264 C 0.84164 0.65027 0.91115 0.0
C1265 C 0.87265 0.6699 0.85021 0.0
C1266 C 0.85097 0.66867 0.99329 0.0
C1267 C 0.84462 0.6659 0.97409 0.0
C1268 C 0.85652 0.68602 0.92496 0.0
C1269 C 0.85159 0.66198 0.87727 0.0
C1270 C 0.84866 0.6649 0.89792 0.0
C1271 C 0.85665 0.67554 0.95881 0.0
C1272 C 0.85102 0.67158 0.9382 0.0
H1273 H 0.83246 0.63104 0.84051 0.0
H1274 H 0.82527 0.63758 0.87296 0.0
H1275 H 0.86048 0.69425 0.89525 0.0
H1276 H 0.8957 0.69988 0.9848 0.0
H1277 H 0.88463 0.69558 0.95168 0.0
C1278 C 0.1847 0.29555 0.53452 0.0
C1279 C 0.18059 0.30141 0.5172 0.0
C1280 C 0.18128 0.30096 0.55237 0.0
C1281 C 0.18202 0.33964 0.57456 0.0
H1282 H 0.16325 0.30817 0.61956 0.0
C1283 C 0.19565 0.37193 0.64978 0.0
C1284 C 0.20114 0.36367 0.66381 0.0
C1285 C 0.18681 0.36248 0.63293 0.0
C1286 C 0.16864 0.31721 0.60721 0.0
H1287 H 0.16915 0.31702 0.50483 0.0
H1288 H 0.16373 0.32716 0.53634 0.0
H1289 H 0.15945 0.29471 0.58743 0.0
H1290 H 0.20113 0.33893 0.67179 0.0
H1291 H 0.18636 0.32257 0.64217 0.0
H1292 H 0.19253 0.36216 0.59409 0.0
C1293 C 0.16933 0.3181 0.53599 0.0
C1294 C 0.1663 0.30946 0.58877 0.0
C1295 C 0.17235 0.31228 0.51802 0.0
C1296 C 0.19665 0.34542 0.66133 0.0
C1297 C 0.18819 0.33608 0.64424 0.0
C1298 C 0.18464 0.34741 0.59299 0.0
C1299 C 0.17403 0.31268 0.55333 0.0
C1300 C 0.17337 0.32061 0.57231 0.0
C1301 C 0.18383 0.34475 0.62941 0.0
C1302 C 0.17842 0.33634 0.60968 0.0
H1303 H 0.19099 0.28709 0.53425 0.0
H1304 H 0.18523 0.29672 0.56543 0.0
H1305 H 0.18783 0.34859 0.56217 0.0
H1306 H 0.19912 0.38607 0.65137 0.0
H1307 H 0.18318 0.36947 0.62223 0.0
C1308 C 0.65264 0.85185 0.66007 0.0
C1309 C 0.64082 0.85901 0.6603 0.0
C1310 C 0.6583 0.84817 0.64235 0.0
C1311 C 0.64866 0.84244 0.5895 0.0
H1312 H 0.70123 0.87028 0.58375 0.0
C1313 C 0.68392 0.87234 0.51647 0.0
C1314 C 0.70228 0.87728 0.51405 0.0
C1315 C 0.67472 0.86397 0.53365 0.0
C1316 C 0.68654 0.86195 0.585 0.0
H1317 H 0.62461 0.86669 0.64257 0.0
H1318 H 0.63405 0.85987 0.61189 0.0
H1319 H 0.68782 0.86598 0.61567 0.0
H1320 H 0.72499 0.87598 0.52669 0.0
H1321 H 0.70869 0.86026 0.55602 0.0
H1322 H 0.64731 0.83868 0.55879 0.0
C1323 C 0.63912 0.85721 0.62518 0.0
C1324 C 0.67885 0.85954 0.60344 0.0
C1325 C 0.63381 0.86124 0.64275 0.0
C1326 C 0.71078 0.87224 0.52824 0.0
C1327 C 0.7015 0.86349 0.54519 0.0
C1328 C 0.65636 0.84463 0.57105 0.0
C1329 C 0.65186 0.85118 0.62471 0.0
C1330 C 0.65983 0.85029 0.60583 0.0
C1331 C 0.68367 0.86014 0.54864 0.0
C1332 C 0.67541 0.85497 0.56843 0.0
H1333 H 0.65828 0.85012 0.67344 0.0
H1334 H 0.66813 0.84351 0.64241 0.0
H1335 H 0.63393 0.8351 0.59094 0.0
H1336 H 0.6772 0.87643 0.50587 0.0
H1337 H 0.66109 0.8618 0.53569 0.0
C1338 C 0.13318 0.81243 0.52639 0.0
C1339 C 0.117 0.81302 0.52404 0.0
C1340 C 0.14056 0.81387 0.54492 0.0
C1341 C 0.13858 0.82641 0.59606 0.0
H1342 H 0.14463 0.785 0.60843 0.0
C1343 C 0.13561 0.80181 0.67473 0.0
C1344 C 0.1455 0.79311 0.67977 0.0
C1345 C 0.13532 0.80707 0.65557 0.0
C1346 C 0.14343 0.79691 0.60528 0.0
H1347 H 0.09632 0.81641 0.53875 0.0
H1348 H 0.10947 0.81956 0.57093 0.0
H1349 H 0.13973 0.79053 0.57504 0.0
H1350 H 0.16356 0.78392 0.66876 0.0
H1351 H 0.16357 0.7936 0.63558 0.0
H1352 H 0.14214 0.83278 0.62628 0.0
C1353 C 0.11652 0.818 0.55864 0.0
C1354 C 0.1406 0.80006 0.58604 0.0
C1355 C 0.10899 0.81623 0.54022 0.0
C1356 C 0.15562 0.7904 0.66534 0.0
C1357 C 0.15553 0.79587 0.64624 0.0
C1358 C 0.14163 0.8234 0.61529 0.0
C1359 C 0.132 0.81617 0.56131 0.0
C1360 C 0.13775 0.81461 0.58126 0.0
C1361 C 0.14511 0.80398 0.64097 0.0
C1362 C 0.14368 0.80835 0.62026 0.0
H1363 H 0.13935 0.80959 0.51413 0.0
H1364 H 0.15255 0.81248 0.54654 0.0
H1365 H 0.13657 0.83783 0.5928 0.0
H1366 H 0.12758 0.80402 0.68546 0.0
H1367 H 0.12689 0.81299 0.65215 0.0
C1368 C 0.68916 0.81932 0.02473 0.0
C1369 C 0.67654 0.80498 0.013 0.0
C1370 C 0.68439 0.82136 0.04367 0.0
C1371 C 0.65158 0.7922 0.08151 0.0
H1372 H 0.67148 0.83717 0.11102 0.0
C1373 C 0.66218 0.8134 0.16668 0.0
C1374 C 0.645 0.80004 0.17372 0.0
C1375 C 0.6652 0.81657 0.14674 0.0
C1376 C 0.66586 0.8245 0.10294 0.0
H1377 H 0.64874 0.7826 0.01099 0.0
H1378 H 0.64003 0.78678 0.04332 0.0
H1379 H 0.67798 0.83838 0.0763 0.0
H1380 H 0.61716 0.78063 0.16533 0.0
H1381 H 0.6224 0.78619 0.13076 0.0
H1382 H 0.6396 0.77829 0.10796 0.0
C1383 C 0.65384 0.79599 0.03847 0.0
C1384 C 0.6696 0.82518 0.08305 0.0
C1385 C 0.65872 0.79373 0.01982 0.0
C1386 C 0.63064 0.79079 0.16045 0.0
C1387 C 0.63366 0.79394 0.14059 0.0
C1388 C 0.64775 0.79154 0.10122 0.0
C1389 C 0.66684 0.80922 0.05103 0.0
C1390 C 0.66249 0.809 0.07205 0.0
C1391 C 0.6511 0.80645 0.13343 0.0
C1392 C 0.65482 0.80764 0.11223 0.0
H1393 H 0.70308 0.82802 0.01985 0.0
H1394 H 0.6948 0.83168 0.05287 0.0
H1395 H 0.64631 0.77938 0.07381 0.0
H1396 H 0.67355 0.8208 0.17647 0.0
H1397 H 0.67881 0.82627 0.14172 0.0
C1398 C 0.16805 0.85991 0.02246 0.0
C1399 C 0.18439 0.86579 0.01214 0.0
C1400 C 0.16578 0.85203 0.04089 0.0
C1401 C 0.18479 0.83114 0.07424 0.0
H1402 H 0.17394 0.85578 0.11501 0.0
C1403 C 0.21676 0.84351 0.14912 0.0
C1404 C 0.20743 0.84436 0.16549 0.0
C1405 C 0.20865 0.84007 0.13089 0.0
C1406 C 0.17654 0.84837 0.10385 0.0
H1407 H 0.21064 0.86711 0.01246 0.0
H1408 H 0.20659 0.85317 0.04417 0.0
H1409 H 0.16911 0.86083 0.08127 0.0
H1410 H 0.18214 0.84176 0.17594 0.0
H1411 H 0.16776 0.83578 0.14375 0.0
H1412 H 0.193 0.81932 0.0967 0.0
C1413 C 0.19554 0.85463 0.03823 0.0
C1414 C 0.17379 0.8513 0.08448 0.0
C1415 C 0.19792 0.86275 0.02008 0.0
C1416 C 0.18945 0.84086 0.16351 0.0
C1417 C 0.18135 0.83764 0.14509 0.0
C1418 C 0.18748 0.82817 0.09356 0.0
C1419 C 0.17965 0.84956 0.04908 0.0
C1420 C 0.17862 0.84331 0.06944 0.0
C1421 C 0.19107 0.83767 0.1285 0.0
C1422 C 0.18415 0.83737 0.10857 0.0
H1423 H 0.15744 0.8622 0.01672 0.0
H1424 H 0.15337 0.84821 0.04889 0.0
H1425 H 0.18833 0.82453 0.06298 0.0
H1426 H 0.23075 0.84642 0.15031 0.0
H1427 H 0.2167 0.8405 0.1185 0.0
C1428 C 0.13287 0.33246 0.0167 0.0
C1429 C 0.12448 0.3141 0.01096 0.0
C1430 C 0.1399 0.33766 0.03536 0.0
C1431 C 0.14871 0.3208 0.0823 0.0
H1432 H 0.13846 0.3573 0.10332 0.0
C1433 C 0.14246 0.33251 0.16454 0.0
C1434 C 0.14982 0.35072 0.17083 0.0
C1435 C 0.1426 0.32851 0.14488 0.0
C1436 C 0.14167 0.34727 0.09765 0.0
H1437 H 0.11765 0.28684 0.01982 0.0
H1438 H 0.12919 0.29568 0.05281 0.0
H1439 H 0.13317 0.34959 0.06931 0.0
H1440 H 0.16422 0.37899 0.16138 0.0
H1441 H 0.1642 0.37199 0.1272 0.0
H1442 H 0.15634 0.31801 0.11124 0.0
C1443 C 0.13087 0.30626 0.04279 0.0
C1444 C 0.13873 0.34287 0.07802 0.0
C1445 C 0.12424 0.30114 0.02385 0.0
C1446 C 0.15814 0.36482 0.15709 0.0
C1447 C 0.15813 0.36081 0.13746 0.0
C1448 C 0.15142 0.32506 0.1021 0.0
C1449 C 0.13813 0.3245 0.04904 0.0
C1450 C 0.14222 0.32959 0.06996 0.0
C1451 C 0.14999 0.3426 0.13106 0.0
C1452 C 0.14793 0.33836 0.10998 0.0
H1453 H 0.13324 0.34271 0.00698 0.0
H1454 H 0.146 0.35193 0.03929 0.0
H1455 H 0.15173 0.31063 0.07669 0.0
H1456 H 0.136 0.32129 0.17471 0.0
H1457 H 0.13616 0.31433 0.1404 0.0
C1458 C 0.82046 0.69286 0.48377 0.0
C1459 C 0.80492 0.68133 0.49479 0.0
C1460 C 0.82319 0.68709 0.46565 0.0
C1461 C 0.80712 0.64621 0.43396 0.0
H1462 H 0.80823 0.67788 0.39272 0.0
C1463 C 0.76481 0.6194 0.36597 0.0
C1464 C 0.77129 0.6279 0.34798 0.0
C1465 C 0.77544 0.62629 0.38255 0.0
C1466 C 0.80842 0.66904 0.40396 0.0
H1467 H 0.78086 0.65448 0.49637 0.0
H1468 H 0.78583 0.64422 0.46528 0.0
H1469 H 0.8159 0.68966 0.42573 0.0
H1470 H 0.79422 0.64992 0.333 0.0
H1471 H 0.81286 0.66253 0.36248 0.0
H1472 H 0.79845 0.62525 0.41246 0.0
C1473 C 0.79589 0.65769 0.47036 0.0
C1474 C 0.81282 0.6758 0.4229 0.0
C1475 C 0.79297 0.66358 0.48815 0.0
C1476 C 0.78897 0.64312 0.34674 0.0
C1477 C 0.79956 0.65033 0.36356 0.0
C1478 C 0.80274 0.63948 0.41509 0.0
C1479 C 0.81066 0.66956 0.45858 0.0
C1480 C 0.81128 0.66416 0.43824 0.0
C1481 C 0.79276 0.64207 0.38168 0.0
C1482 C 0.80241 0.65055 0.40008 0.0
H1483 H 0.82975 0.7067 0.48854 0.0
H1484 H 0.8347 0.69651 0.45688 0.0
H1485 H 0.8061 0.63701 0.44544 0.0
H1486 H 0.75126 0.60756 0.36731 0.0
H1487 H 0.76965 0.61975 0.39627 0.0
C1488 C 0.28943 0.09791 0.48943 0.0
C1489 C 0.29815 0.10663 0.50671 0.0
C1490 C 0.29506 0.10696 0.47177 0.0
C1491 C 0.33506 0.14067 0.4464 0.0
H1492 H 0.29944 0.13295 0.40675 0.0
C1493 C 0.35393 0.15239 0.36458 0.0
C1494 C 0.3426 0.13664 0.35373 0.0
C1495 C 0.34895 0.15431 0.38348 0.0
C1496 C 0.30961 0.13539 0.41766 0.0
H1497 H 0.31941 0.13186 0.51917 0.0
H1498 H 0.32982 0.14777 0.48778 0.0
H1499 H 0.28984 0.12622 0.44046 0.0
H1500 H 0.31687 0.11114 0.35355 0.0
H1501 H 0.30802 0.11462 0.386 0.0
H1502 H 0.35462 0.14878 0.42335 0.0
C1503 C 0.31841 0.13391 0.48812 0.0
C1504 C 0.30411 0.13156 0.43697 0.0
C1505 C 0.31244 0.12488 0.50603 0.0
C1506 C 0.32583 0.12344 0.36158 0.0
C1507 C 0.32073 0.12549 0.38018 0.0
C1508 C 0.34058 0.14448 0.42699 0.0
C1509 C 0.3098 0.12495 0.47079 0.0
C1510 C 0.31659 0.13337 0.45144 0.0
C1511 C 0.33239 0.1407 0.39159 0.0
C1512 C 0.32772 0.14108 0.41231 0.0
H1513 H 0.2783 0.08388 0.48953 0.0
H1514 H 0.28829 0.09957 0.45872 0.0
H1515 H 0.34497 0.14212 0.45721 0.0
H1516 H 0.36704 0.16268 0.3589 0.0
H1517 H 0.35821 0.16619 0.39191 0.0
C1518 C 0.85297 0.1817 0.49717 0.0
C1519 C 0.87061 0.18451 0.50012 0.0
C1520 C 0.84531 0.1779 0.47853 0.0
C1521 C 0.85232 0.16602 0.42822 0.0
H1522 H 0.83626 0.19975 0.41236 0.0
C1523 C 0.8686 0.20109 0.35474 0.0
C1524 C 0.8559 0.20447 0.34529 0.0
C1525 C 0.86462 0.19256 0.37279 0.0
C1526 C 0.84027 0.1899 0.41657 0.0
H1527 H 0.89384 0.18503 0.48635 0.0
H1528 H 0.88055 0.17812 0.45421 0.0
H1529 H 0.83939 0.19525 0.44672 0.0
H1530 H 0.82878 0.20105 0.34693 0.0
H1531 H 0.82192 0.18644 0.37901 0.0
H1532 H 0.85441 0.16167 0.39801 0.0
C1533 C 0.87238 0.17854 0.46605 0.0
C1534 C 0.84205 0.18729 0.4363 0.0
C1535 C 0.88005 0.18252 0.4845 0.0
C1536 C 0.83875 0.19845 0.35388 0.0
C1537 C 0.83488 0.19022 0.37224 0.0
C1538 C 0.85066 0.16872 0.40854 0.0
C1539 C 0.85516 0.17673 0.46266 0.0
C1540 C 0.8489 0.17595 0.44232 0.0
C1541 C 0.84794 0.18749 0.38201 0.0
C1542 C 0.84537 0.18128 0.40249 0.0
H1543 H 0.84562 0.18351 0.50899 0.0
H1544 H 0.832 0.17654 0.47641 0.0
H1545 H 0.85725 0.15689 0.43237 0.0
H1546 H 0.88192 0.20561 0.34844 0.0
H1547 H 0.87506 0.19088 0.38 0.0
C1548 C -0.00053 0.54008 0.31657 0.0
C1549 C 0.98195 0.52755 0.32335 0.0
C1550 C 0.00433 0.53955 0.29739 0.0
C1551 C 0.98986 0.51307 0.25105 0.0
H1552 H 0.01827 0.56168 0.2292 0.0
C1553 C 0.00213 0.52938 0.16801 0.0
C1554 C 0.01997 0.54278 0.16271 0.0
C1555 C -0.00278 0.52561 0.1876 0.0
C1556 C 0.01048 0.54799 0.23508 0.0
H1557 H 0.95602 0.50398 0.31571 0.0
H1558 H 0.96429 0.50329 0.28184 0.0
H1559 H 0.01052 0.5582 0.26328 0.0
H1560 H 0.04686 0.56186 0.17399 0.0
H1561 H 0.03826 0.55555 0.20782 0.0
H1562 H 0.98955 0.50304 0.22235 0.0
C1563 C 0.97446 0.51336 0.29145 0.0
C1564 C 0.00609 0.54595 0.25472 0.0
C1565 C 0.9697 0.51369 0.31087 0.0
C1566 C 0.03289 0.55181 0.17744 0.0
C1567 C 0.02797 0.54816 0.1969 0.0
C1568 C 0.99415 0.51514 0.23122 0.0
C1569 C 0.99162 0.52675 0.28428 0.0
C1570 C 0.99594 0.52849 0.26311 0.0
C1571 C 0.01002 0.53525 0.20226 0.0
C1572 C 0.00471 0.53265 0.22308 0.0
H1573 H 0.0092 0.55085 0.32594 0.0
H1574 H 0.01789 0.54968 0.29266 0.0
H1575 H 0.98206 0.49941 0.25695 0.0
H1576 H 0.99185 0.52208 0.15705 0.0
H1577 H 0.98326 0.51561 0.19126 0.0
C1578 C 0.46719 0.4868 0.18581 0.0
C1579 C 0.46106 0.4699 0.17655 0.0
C1580 C 0.47509 0.48991 0.20432 0.0
C1581 C 0.49516 0.47188 0.24002 0.0
H1582 H 0.47026 0.48466 0.27872 0.0
C1583 C 0.48044 0.44197 0.31593 0.0
C1584 C 0.47977 0.452 0.33176 0.0
C1585 C 0.48435 0.44955 0.29743 0.0
C1586 C 0.47774 0.48152 0.26813 0.0
H1587 H 0.45935 0.44351 0.17872 0.0
H1588 H 0.4734 0.44902 0.21053 0.0
H1589 H 0.46598 0.48848 0.24444 0.0
H1590 H 0.4832 0.478 0.34094 0.0
H1591 H 0.4899 0.49142 0.30823 0.0
H1592 H 0.50621 0.46407 0.26361 0.0
C1593 C 0.47212 0.45988 0.20373 0.0
C1594 C 0.47527 0.48371 0.24845 0.0
C1595 C 0.46396 0.45667 0.18553 0.0
C1596 C 0.4839 0.47013 0.32895 0.0
C1597 C 0.48755 0.4777 0.31024 0.0
C1598 C 0.49767 0.46975 0.25964 0.0
C1599 C 0.47734 0.47632 0.21361 0.0
C1600 C 0.48332 0.47815 0.23417 0.0
C1601 C 0.4874 0.46731 0.2942 0.0
C1602 C 0.48834 0.47376 0.27392 0.0
H1603 H 0.46495 0.49717 0.17927 0.0
H1604 H 0.47902 0.50273 0.21156 0.0
H1605 H 0.50182 0.46778 0.22937 0.0
H1606 H 0.47714 0.42789 0.31774 0.0
H1607 H 0.48382 0.44102 0.28546 0.0
C1608 C 0.51921 0.99133 0.18077 0.0
C1609 C 0.5133 0.97326 0.17489 0.0
C1610 C 0.51893 0.99549 0.20037 0.0
C1611 C 0.52324 0.97894 0.24748 0.0
H1612 H 0.50818 0.01174 0.26897 0.0
C1613 C 0.53173 0.99396 0.32832 0.0
C1614 C 0.5382 0.01207 0.33412 0.0
C1615 C 0.52483 0.98825 0.3097 0.0
C1616 C 0.5126 0.00268 0.2632 0.0
H1617 H 0.50128 0.94525 0.18498 0.0
H1618 H 0.50106 0.95254 0.21898 0.0
H1619 H 0.50356 0.00403 0.23448 0.0
H1620 H 0.54173 0.03827 0.32547 0.0
H1621 H 0.53048 0.02862 0.29252 0.0
H1622 H 0.53316 0.97814 0.27554 0.0
C1623 C 0.50607 0.96351 0.20847 0.0
C1624 C 0.50988 0.99823 0.24345 0.0
C1625 C 0.5062 0.95934 0.18893 0.0
C1626 C 0.53666 0.02416 0.32135 0.0
C1627 C 0.53019 0.01858 0.30245 0.0
C1628 C 0.5262 0.98356 0.26704 0.0
C1629 C 0.51288 0.98167 0.21447 0.0
C1630 C 0.51513 0.98625 0.23543 0.0
C1631 C 0.52483 0.00071 0.29615 0.0
C1632 C 0.52087 0.99544 0.27528 0.0
H1633 H 0.52469 0.00239 0.17035 0.0
H1634 H 0.52431 0.00962 0.20457 0.0
H1635 H 0.52781 0.97 0.24165 0.0
H1636 H 0.53267 0.98436 0.33799 0.0
H1637 H 0.52019 0.9742 0.30573 0.0
C1638 C 0.46941 0.97869 0.69092 0.0
C1639 C 0.47224 0.99338 0.67906 0.0
C1640 C 0.47293 0.98123 0.7108 0.0
C1641 C 0.4923 0.01725 0.74993 0.0
H1642 H 0.45626 0.97748 0.7812 0.0
C1643 C 0.48577 0.025 0.83293 0.0
C1644 C 0.4677 0.01773 0.83948 0.0
C1645 C 0.4893 0.02088 0.81426 0.0
C1646 C 0.46643 0.98879 0.77273 0.0
H1647 H 0.4816 0.0224 0.67863 0.0
H1648 H 0.48695 0.02671 0.71326 0.0
H1649 H 0.45725 0.97323 0.74675 0.0
H1650 H 0.43926 -8e-05 0.83177 0.0
H1651 H 0.44528 0.99316 0.79964 0.0
H1652 H 0.50046 0.0332 0.77594 0.0
C1653 C 0.48257 0.01329 0.70731 0.0
C1654 C 0.46722 0.98624 0.75286 0.0
C1655 C 0.4794 0.01082 0.68736 0.0
C1656 C 0.45336 0.00583 0.82726 0.0
C1657 C 0.45684 0.00177 0.80877 0.0
C1658 C 0.49131 0.01988 0.76983 0.0
C1659 C 0.47896 -0.00156 0.71944 0.0
C1660 C 0.47986 0.00056 0.74102 0.0
C1661 C 0.47482 0.00935 0.80185 0.0
C1662 C 0.47798 0.00584 0.7814 0.0
H1663 H 0.46406 0.96512 0.68489 0.0
H1664 H 0.47047 0.96953 0.71944 0.0
H1665 H 0.50254 0.0285 0.74147 0.0
H1666 H 0.49713 0.03425 0.84198 0.0
H1667 H 0.50333 0.02686 0.80949 0.0
C1668 C 0.03502 0.50073 0.67971 0.0
C1669 C 0.02041 0.4942 0.66654 0.0
C1670 C 0.03197 0.50064 0.69959 0.0
C1671 C 0.01823 0.48253 0.7386 0.0
H1672 H 0.98758 0.49801 0.76452 0.0
C1673 C 0.00745 0.4721 0.82006 0.0
C1674 C 0.98983 0.46604 0.82724 0.0
C1675 C 0.01222 0.47928 0.8014 0.0
C1676 C 0.99605 0.49345 0.75751 0.0
H1677 H 0.99127 0.4838 0.66398 0.0
H1678 H 0.98601 0.48383 0.69879 0.0
H1679 H 0.9936 0.50363 0.72979 0.0
H1680 H 0.96357 0.46347 0.82097 0.0
H1681 H 0.97155 0.47523 0.78794 0.0
H1682 H 0.02008 0.47152 0.76564 0.0
C1683 C -0.00019 0.4889 0.69364 0.0
C1684 C -0.00046 0.49675 0.73761 0.0
C1685 C 0.00285 0.48886 0.67369 0.0
C1686 C 0.97732 0.4682 0.8158 0.0
C1687 C 0.98194 0.47497 0.79685 0.0
C1688 C 0.01455 0.47901 0.75829 0.0
C1689 C 0.01426 0.4942 0.70682 0.0
C1690 C 0.01074 0.49137 0.72799 0.0
C1691 C -0.00072 0.48 0.78915 0.0
C1692 C 0.00348 0.48447 0.76814 0.0
H1693 H 0.04877 0.50526 0.67477 0.0
H1694 H 0.04343 0.5051 0.70938 0.0
H1695 H 0.02657 0.47783 0.73152 0.0
H1696 H 0.01738 0.47071 0.82868 0.0
H1697 H 0.02592 0.48363 0.79637 0.0
C1698 C 0.53726 0.49201 0.8119 0.0
C1699 C 0.54156 0.50463 0.82697 0.0
C1700 C 0.52758 0.49243 0.79571 0.0
C1701 C 0.52297 0.50638 0.75742 0.0
H1702 H 0.49221 0.5283 0.75606 0.0
C1703 C 0.50705 0.53008 0.6855 0.0
C1704 C 0.51296 0.54883 0.68615 0.0
C1705 C 0.50457 0.52031 0.70274 0.0
C1706 C 0.50064 0.52197 0.75622 0.0
H1707 H 0.53853 0.52706 0.8375 0.0
H1708 H 0.52232 0.52845 0.80894 0.0
H1709 H 0.49834 0.51835 0.78695 0.0
H1710 H 0.51959 0.5718 0.705 0.0
H1711 H 0.51479 0.55474 0.73493 0.0
H1712 H 0.52549 0.51032 0.72674 0.0
C1713 C 0.52577 0.51774 0.80972 0.0
C1714 C 0.5043 0.5164 0.77394 0.0
C1715 C 0.53508 0.51698 0.82617 0.0
C1716 C 0.51503 0.55732 0.70416 0.0
C1717 C 0.51218 0.54753 0.7213 0.0
C1718 C 0.51909 0.51169 0.73972 0.0
C1719 C 0.52253 0.50592 0.7939 0.0
C1720 C 0.51603 0.50907 0.77489 0.0
C1721 C 0.50756 0.52909 0.72081 0.0
C1722 C 0.50837 0.52009 0.73898 0.0
H1723 H 0.54215 0.48235 0.81224 0.0
H1724 H 0.52485 0.4827 0.78421 0.0
H1725 H 0.53233 0.50116 0.75738 0.0
H1726 H 0.50553 0.52331 0.67174 0.0
H1727 H 0.50098 0.50609 0.70195 0.0
C1728 C 0.39704 0.39726 0.09272 0.0
C1729 C 0.41248 0.4021 0.10423 0.0
C1730 C 0.38599 0.37924 0.08654 0.0
C1731 C 0.385 0.33505 0.08016 0.0
H1732 H 0.33265 0.3156 0.07986 0.0
C1733 C 0.33013 0.25789 0.07115 0.0
C1734 C 0.31458 0.25412 0.06029 0.0
C1735 C 0.34364 0.27602 0.07485 0.0
C1736 C 0.34725 0.32088 0.07963 0.0
H1737 H 0.42837 0.39178 0.11839 0.0
H1738 H 0.40891 0.36021 0.10787 0.0
H1739 H 0.35277 0.34691 0.09016 0.0
H1740 H 0.30175 0.26616 0.04336 0.0
H1741 H 0.32528 0.29768 0.04962 0.0
H1742 H 0.37925 0.30868 0.06994 0.0
C1743 C 0.40554 0.37042 0.10328 0.0
C1744 C 0.35881 0.33887 0.08552 0.0
C1745 C 0.41666 0.3885 0.10936 0.0
C1746 C 0.31343 0.26871 0.05207 0.0
C1747 C 0.32686 0.28673 0.05571 0.0
C1748 C 0.37337 0.31694 0.07436 0.0
C1749 C 0.39002 0.36555 0.09184 0.0
C1750 C 0.37784 0.34625 0.08574 0.0
C1751 C 0.34177 0.29061 0.06771 0.0
C1752 C 0.35438 0.30973 0.07388 0.0
H1753 H 0.39365 0.40748 0.0882 0.0
H1754 H 0.37436 0.37608 0.07741 0.0
H1755 H 0.3996 0.34035 0.07999 0.0
H1756 H 0.33129 0.24689 0.07774 0.0
H1757 H 0.35499 0.27861 0.08416 0.0
C1758 C 0.73021 0.05462 0.07069 0.0
C1759 C 0.73461 0.06667 0.055 0.0
C1760 C 0.71208 0.04372 0.07654 0.0
C1761 C 0.66724 0.04121 0.07372 0.0
H1762 H 0.6497 0.99254 0.09438 0.0
C1763 C 0.59257 0.99419 0.09885 0.0
C1764 C 0.59072 0.98618 0.11714 0.0
C1765 C 0.60959 0.00317 0.08967 0.0
C1766 C 0.65445 0.00614 0.08869 0.0
H1767 H 0.72347 0.07626 0.03268 0.0
H1768 H 0.69173 0.05698 0.04262 0.0
H1769 H 0.68038 0.00946 0.08078 0.0
H1770 H 0.60507 0.98088 0.13992 0.0
H1771 H 0.63473 0.99655 0.12395 0.0
H1772 H 0.64124 0.0378 0.08167 0.0
C1773 C 0.70231 0.05626 0.05072 0.0
C1774 C 0.67203 0.01586 0.08096 0.0
C1775 C 0.72047 0.06727 0.04498 0.0
C1776 C 0.60613 0.98712 0.12595 0.0
C1777 C 0.62306 0.9959 0.11671 0.0
C1778 C 0.6496 0.03141 0.08131 0.0
C1779 C 0.69792 0.04451 0.06672 0.0
C1780 C 0.67875 0.03363 0.07365 0.0
C1781 C 0.62498 0.00409 0.09853 0.0
C1782 C 0.64314 0.0139 0.08914 0.0
H1783 H 0.74083 0.05408 0.07889 0.0
H1784 H 0.70925 0.03508 0.08913 0.0
H1785 H 0.67205 0.05496 0.06849 0.0
H1786 H 0.58093 0.99376 0.09179 0.0
H1787 H 0.61069 0.00931 0.07561 0.0
C1788 C 0.92271 0.65742 0.08421 0.0
C1789 C 0.90942 0.64895 0.06971 0.0
C1790 C 0.93336 0.64987 0.09005 0.0
C1791 C 0.95136 0.62139 0.07212 0.0
H1792 H 0.96342 0.61965 0.12595 0.0
C1793 C 0.01511 0.61935 0.09576 0.0
C1794 C 0.01344 0.60703 0.11035 0.0
C1795 C 0.00045 0.62178 0.09107 0.0
C1796 C 0.95997 0.61984 0.11089 0.0
H1797 H 0.89685 0.62593 0.05002 0.0
H1798 H 0.91552 0.61279 0.06016 0.0
H1799 H 0.94116 0.62909 0.11765 0.0
H1800 H 0.99515 0.58744 0.13135 0.0
H1801 H 0.96929 0.592 0.12338 0.0
H1802 H 0.97052 0.61267 0.06531 0.0
C1803 C 0.91766 0.62524 0.06702 0.0
C1804 C 0.9474 0.6254 0.10613 0.0
C1805 C 0.90691 0.6327 0.0613 0.0
C1806 C 0.99671 0.59701 0.12006 0.0
C1807 C 0.98203 0.59967 0.11557 0.0
C1808 C 0.96404 0.61604 0.07686 0.0
C1809 C 0.93104 0.63379 0.0814 0.0
C1810 C 0.94319 0.6265 0.08667 0.0
C1811 C 0.98381 0.61208 0.10098 0.0
C1812 C 0.96871 0.61552 0.09626 0.0
H1813 H 0.9248 0.66982 0.09113 0.0
H1814 H 0.9437 0.65686 0.10104 0.0
H1815 H 0.94847 0.62221 0.05699 0.0
H1816 H 0.02777 0.62704 0.08784 0.0
H1817 H 0.00226 0.63154 0.0799 0.0
C1818 C 0.25725 0.32074 0.43231 0.0
C1819 C 0.25233 0.32967 0.4462 0.0
C1820 C 0.27509 0.32906 0.42515 0.0
C1821 C 0.31545 0.37452 0.41867 0.0
H1822 H 0.34145 0.34801 0.41113 0.0
C1823 C 0.39379 0.39219 0.40611 0.0
C1824 C 0.39929 0.40572 0.39174 0.0
C1825 C 0.37541 0.38163 0.41122 0.0
C1826 C 0.33434 0.35558 0.41318 0.0
H1827 H 0.26248 0.35388 0.46413 0.0
H1828 H 0.29353 0.36839 0.45163 0.0
H1829 H 0.31034 0.33205 0.424 0.0
H1830 H 0.38969 0.41816 0.37086 0.0
H1831 H 0.35759 0.39976 0.37985 0.0
H1832 H 0.33949 0.39811 0.40832 0.0
C1833 C 0.28352 0.35513 0.44599 0.0
C1834 C 0.31651 0.34642 0.4204 0.0
C1835 C 0.26574 0.34682 0.45316 0.0
C1836 C 0.38593 0.40808 0.38221 0.0
C1837 C 0.36756 0.39753 0.38734 0.0
C1838 C 0.3332 0.38364 0.4114 0.0
C1839 C 0.28832 0.34647 0.43171 0.0
C1840 C 0.30697 0.35586 0.42341 0.0
C1841 C 0.36214 0.38438 0.4021 0.0
C1842 C 0.3429 0.37431 0.40873 0.0
H1843 H 0.2472 0.30761 0.42649 0.0
H1844 H 0.27838 0.32211 0.41404 0.0
H1845 H 0.30834 0.3821 0.42059 0.0
H1846 H 0.40371 0.39018 0.41396 0.0
H1847 H 0.3717 0.37178 0.42283 0.0
C1848 C 0.67437 0.95065 0.46661 0.0
C1849 C 0.67226 0.93454 0.45834 0.0
C1850 C 0.66443 0.95854 0.45962 0.0
C1851 C 0.63678 0.95814 0.41757 0.0
H1852 H 0.61999 0.9813 0.45427 0.0
C1853 C 0.58305 0.97961 0.40042 0.0
C1854 C 0.5876 0.99736 0.40609 0.0
C1855 C 0.594 0.97233 0.40592 0.0
C1856 C 0.62474 0.975 0.44386 0.0
H1857 H 0.65815 0.91396 0.43636 0.0
H1858 H 0.64018 0.92733 0.42447 0.0
H1859 H 0.63734 0.96726 0.46577 0.0
H1860 H 0.60707 0.02145 0.42185 0.0
H1861 H 0.62613 0.00857 0.4318 0.0
H1862 H 0.62349 0.96544 0.3958 0.0
C1863 C 0.64988 0.93419 0.43604 0.0
C1864 C 0.63474 0.96702 0.4504 0.0
C1865 C 0.66007 0.92646 0.44287 0.0
C1866 C 0.60337 0.00778 0.41721 0.0
C1867 C 0.61416 0.00039 0.42299 0.0
C1868 C 0.62651 0.9659 0.41109 0.0
C1869 C 0.65192 0.95034 0.44436 0.0
C1870 C 0.641 0.95857 0.43734 0.0
C1871 C 0.60951 0.98257 0.41744 0.0
C1872 C 0.6205 0.97447 0.42418 0.0
H1873 H 0.68397 0.95734 0.4783 0.0
H1874 H 0.66674 0.9712 0.46607 0.0
H1875 H 0.6416 0.95203 0.40705 0.0
H1876 H 0.57104 0.97139 0.39169 0.0
H1877 H 0.5901 0.95853 0.40155 0.0
C1878 C 0.98915 0.59434 0.41242 0.0
C1879 C -7e-05 0.58943 0.40128 0.0
C1880 C 0.99672 0.61186 0.42038 0.0
C1881 C 0.04116 0.65115 0.43435 0.0
H1882 H 0.0149 0.67787 0.43474 0.0
C1883 C 0.05802 0.72961 0.44614 0.0
C1884 C 0.06961 0.73437 0.4623 0.0
C1885 C 0.04804 0.71144 0.44002 0.0
C1886 C 0.02242 0.67059 0.43468 0.0
H1887 H 0.02687 0.59923 0.3891 0.0
H1888 H 0.04005 0.62977 0.40284 0.0
H1889 H 0.00066 0.64731 0.42055 0.0
H1890 H 0.07909 0.72375 0.48529 0.0
H1891 H 0.06153 0.69198 0.47474 0.0
H1892 H 0.06312 0.67455 0.44789 0.0
C1893 C 0.02586 0.61999 0.40582 0.0
C1894 C 0.01419 0.65303 0.42673 0.0
C1895 C 0.01831 0.6025 0.39792 0.0
C1896 C 0.07049 0.72051 0.47261 0.0
C1897 C 0.06046 0.70234 0.46655 0.0
C1898 C 0.04937 0.66867 0.44227 0.0
C1899 C 0.01522 0.62481 0.41732 0.0
C1900 C 0.02356 0.6432 0.42631 0.0
C1901 C 0.04939 0.69765 0.44996 0.0
C1902 C 0.04015 0.67865 0.44243 0.0
H1903 H 0.975 0.58451 0.41545 0.0
H1904 H 0.98821 0.61511 0.42933 0.0
H1905 H 0.04864 0.64383 0.43451 0.0
H1906 H 0.05723 0.73999 0.43773 0.0
H1907 H 0.03982 0.70832 0.42705 0.0
C1908 C 0.61164 0.60366 0.88223 0.0
C1909 C 0.5958 0.5885 0.88952 0.0
C1910 C 0.6186 0.62078 0.8909 0.0
C1911 C 0.6056 0.64883 0.91869 0.0
H1912 H 0.65733 0.67762 0.93022 0.0
C1913 C 0.63733 0.72102 0.95229 0.0
C1914 C 0.65453 0.73422 0.94528 0.0
C1915 C 0.62998 0.70261 0.94738 0.0
C1916 C 0.64289 0.66986 0.9269 0.0
H1917 H 0.57476 0.5793 0.91146 0.0
H1918 H 0.58682 0.6095 0.92652 0.0
H1919 H 0.64473 0.64655 0.91797 0.0
H1920 H 0.67739 0.73861 0.92738 0.0
H1921 H 0.66448 0.70666 0.91837 0.0
H1922 H 0.6038 0.6723 0.92682 0.0
C1923 C 0.59385 0.60801 0.91416 0.0
C1924 C 0.63569 0.65205 0.91999 0.0
C1925 C 0.58703 0.59078 0.90565 0.0
C1926 C 0.66424 0.72868 0.93325 0.0
C1927 C 0.65683 0.71034 0.92815 0.0
C1928 C 0.61285 0.66676 0.92537 0.0
C1929 C 0.60975 0.62313 0.90688 0.0
C1930 C 0.61703 0.64146 0.91561 0.0
C1931 C 0.63961 0.69705 0.93516 0.0
C1932 C 0.63164 0.67758 0.92931 0.0
H1933 H 0.61877 0.60223 0.86996 0.0
H1934 H 0.6308 0.63226 0.88492 0.0
H1935 H 0.59119 0.64097 0.91525 0.0
H1936 H 0.62967 0.72493 0.96177 0.0
H1937 H 0.61682 0.69273 0.95328 0.0
C1938 C 0.26014 0.90545 0.94753 0.0
C1939 C 0.24826 0.91198 0.9428 0.0
C1940 C 0.2789 0.91629 0.94453 0.0
C1941 C 0.31276 0.95475 0.91559 0.0
H1942 H 0.34676 0.95551 0.95375 0.0
C1943 C 0.39106 -0.00071 0.90654 0.0
C1944 C 0.40138 0.99097 0.91132 0.0
C1945 C 0.37249 0.9908 0.91113 0.0
C1946 C 0.33744 0.95532 0.94288 0.0
H1947 H 0.24679 0.93505 0.93119 0.0
H1948 H 0.2797 0.95412 0.92603 0.0
H1949 H 0.31409 0.93871 0.96049 0.0
H1950 H 0.40028 0.96733 0.92498 0.0
H1951 H 0.36789 0.95236 0.9326 0.0
H1952 H 0.3361 0.9711 0.89784 0.0
C1953 C 0.27441 0.94053 0.932 0.0
C1954 C 0.31873 0.94572 0.94675 0.0
C1955 C 0.25561 0.92969 0.9351 0.0
C1956 C 0.39272 0.97402 0.9209 0.0
C1957 C 0.37418 0.96555 0.92549 0.0
C1958 C 0.33149 0.96433 0.91169 0.0
C1959 C 0.28625 0.93393 0.93667 0.0
C1960 C 0.30617 0.94514 0.93305 0.0
C1961 C 0.36384 0.97381 0.92064 0.0
C1962 C 0.34403 0.96453 0.92519 0.0
H1963 H 0.25496 0.89198 0.95371 0.0
H1964 H 0.28764 0.91073 0.94809 0.0
H1965 H 0.3034 0.95439 0.90466 0.0
H1966 H 0.39723 0.01223 0.89896 0.0
H1967 H 0.36494 0.9976 0.90732 0.0
C1968 C 0.06067 0.32724 0.93388 0.0
C1969 C 0.0779 0.33689 0.94278 0.0
C1970 C 0.0508 0.33601 0.92952 0.0
C1971 C 0.04659 0.37606 0.94238 0.0
H1972 H 0.02545 0.36995 0.89123 0.0
C1973 C 0.02322 0.42458 0.91262 0.0
C1974 C 0.00738 0.41727 0.90114 0.0
C1975 C 0.0305 0.41372 0.91843 0.0
C1976 C 0.03101 0.37158 0.90569 0.0
H1977 H 0.09807 0.36315 0.95446 0.0
H1978 H 0.08092 0.37848 0.94674 0.0
H1979 H 0.04045 0.35273 0.90021 0.0
H1980 H 0.98681 0.39269 0.8868 0.0
H1981 H -0.00071 0.37361 0.89733 0.0
H1982 H 0.03724 0.39493 0.94789 0.0
C1983 C 0.07502 0.36413 0.9432 0.0
C1984 C 0.03962 0.36174 0.91081 0.0
C1985 C 0.08493 0.35541 0.94743 0.0
C1986 C -0.00109 0.39874 0.89578 0.0
C1987 C 0.00618 0.38784 0.90164 0.0
C1988 C 0.03791 0.38583 0.93731 0.0
C1989 C 0.0579 0.35455 0.93411 0.0
C1990 C 0.04772 0.36407 0.92911 0.0
C1991 C 0.02211 0.39523 0.91298 0.0
C1992 C 0.03024 0.38391 0.9188 0.0
H1993 H 0.05498 0.31301 0.92997 0.0
H1994 H 0.03759 0.32826 0.92261 0.0
H1995 H 0.05244 0.37791 0.95671 0.0
H1996 H 0.02999 0.4387 0.91725 0.0
H1997 H 0.04291 0.41993 0.92695 0.0
C1998 C 0.6028 0.59294 0.63036 0.0
C1999 C 0.5893 0.59505 0.62085 0.0
C2000 C 0.62087 0.60239 0.62401 0.0
C2001 C 0.65428 0.61328 0.59961 0.0
H2002 H 0.67737 0.66306 0.58041 0.0
C2003 C 0.72286 0.64531 0.55962 0.0
C2004 C 0.73581 0.66347 0.56417 0.0
C2005 C 0.70488 0.63768 0.56608 0.0
C2006 C 0.67115 0.6492 0.58585 0.0
H2007 H 0.58417 0.60891 0.59739 0.0
H2008 H 0.61572 0.62529 0.58609 0.0
H2009 H 0.64654 0.64894 0.59374 0.0
H2010 H 0.74007 0.68794 0.57893 0.0
H2011 H 0.70869 0.67456 0.59044 0.0
H2012 H 0.67896 0.61363 0.59223 0.0
C2013 C 0.61241 0.61657 0.59869 0.0
C2014 C 0.65342 0.64105 0.5933 0.0
C2015 C 0.59432 0.60719 0.60515 0.0
C2016 C 0.73033 0.67398 0.575 0.0
C2017 C 0.71235 0.6663 0.58158 0.0
C2018 C 0.67198 0.62144 0.59224 0.0
C2019 C 0.62584 0.61407 0.60788 0.0
C2020 C 0.64478 0.62298 0.60026 0.0
C2021 C 0.69947 0.64799 0.57738 0.0
C2022 C 0.68062 0.63946 0.58521 0.0
H2023 H 0.59934 0.5839 0.6427 0.0
H2024 H 0.63095 0.60047 0.63169 0.0
H2025 H 0.64795 0.59926 0.60457 0.0
H2026 H 0.72663 0.63701 0.55101 0.0
H2027 H 0.69521 0.62366 0.56222 0.0
C2028 C 0.41247 0.01545 0.60026 0.0
C2029 C 0.42184 0.02099 0.61796 0.0
C2030 C 0.4057 0.02577 0.59154 0.0
C2031 C 0.3897 0.05722 0.60533 0.0
H2032 H 0.38369 0.05933 0.54996 0.0
C2033 C 0.342 0.0811 0.57528 0.0
C2034 C 0.32906 0.06852 0.56226 0.0
C2035 C 0.35775 0.08034 0.5797 0.0
C2036 C 0.38534 0.05893 0.56546 0.0
H2037 H 0.43266 0.04239 0.63964 0.0
H2038 H 0.42093 0.0605 0.62437 0.0
H2039 H 0.40371 0.04855 0.56236 0.0
H2040 H 0.32318 0.04641 0.54241 0.0
H2041 H 0.35043 0.04488 0.55025 0.0
H2042 H 0.37081 0.06684 0.60851 0.0
C2043 C 0.41847 0.04796 0.61745 0.0
C2044 C 0.39676 0.05272 0.57255 0.0
C2045 C 0.42517 0.03759 0.6262 0.0
C2046 C 0.33279 0.05607 0.55273 0.0
C2047 C 0.34853 0.05536 0.55706 0.0
C2048 C 0.37833 0.06344 0.59825 0.0
C2049 C 0.40822 0.04191 0.60029 0.0
C2050 C 0.39862 0.05127 0.59259 0.0
C2051 C 0.36089 0.06707 0.57108 0.0
C2052 C 0.37557 0.06382 0.57825 0.0
H2053 H 0.40954 0.00266 0.59363 0.0
H2054 H 0.39766 0.02057 0.57847 0.0
H2055 H 0.39061 0.05606 0.62085 0.0
H2056 H 0.33946 0.09081 0.58288 0.0
H2057 H 0.36713 0.08968 0.5904 0.0
C2058 C 0.98794 0.40865 0.59437 0.0
C2059 C 0.99674 0.41156 0.61233 0.0
C2060 C 0.97852 0.39107 0.58638 0.0
C2061 C 0.97657 0.34687 0.58702 0.0
H2062 H 0.9257 0.326 0.57255 0.0
C2063 C 0.93007 0.26956 0.57638 0.0
C2064 C 0.9162 0.26327 0.56239 0.0
C2065 C 0.94047 0.28817 0.58061 0.0
C2066 C 0.93999 0.33169 0.57615 0.0
H2067 H 0.00308 0.39861 0.63575 0.0
H2068 H 0.98687 0.36802 0.62175 0.0
H2069 H 0.94306 0.35789 0.58283 0.0
H2070 H 0.90262 0.2715 0.54151 0.0
H2071 H 0.9211 0.30414 0.54848 0.0
H2072 H 0.97372 0.32089 0.58025 0.0
C2073 C 0.9871 0.37924 0.61392 0.0
C2074 C 0.94989 0.34994 0.58208 0.0
C2075 C 0.99621 0.39669 0.62202 0.0
C2076 C 0.9131 0.27599 0.55252 0.0
C2077 C 0.92366 0.29467 0.55657 0.0
C2078 C 0.96678 0.32872 0.58085 0.0
C2079 C 0.97812 0.37625 0.59608 0.0
C2080 C 0.96816 0.35756 0.58793 0.0
C2081 C 0.93742 0.30099 0.57076 0.0
C2082 C 0.94824 0.32076 0.57572 0.0
H2083 H 0.98814 0.41992 0.58668 0.0
H2084 H 0.97172 0.38908 0.57258 0.0
H2085 H 0.99073 0.35253 0.59122 0.0
H2086 H 0.93254 0.26003 0.58445 0.0
H2087 H 0.95064 0.29244 0.59193 0.0
C2088 C 0.93242 0.66632 0.75313 0.0
C2089 C 0.92794 0.67684 0.76525 0.0
C2090 C 0.95026 0.67323 0.74651 0.0
C2091 C 0.99467 0.71605 0.74025 0.0
H2092 H 0.01332 0.68244 0.73898 0.0
C2093 C 0.07133 0.73755 0.73075 0.0
C2094 C 0.07505 0.72592 0.71951 0.0
C2095 C 0.05327 0.73293 0.73463 0.0
C2096 C 0.00826 0.69196 0.739 0.0
H2097 H 0.93864 0.7029 0.77985 0.0
H2098 H 0.96998 0.71493 0.76856 0.0
H2099 H 0.98218 0.67162 0.74954 0.0
H2100 H 0.06289 0.70122 0.70222 0.0
H2101 H 0.03146 0.69319 0.70892 0.0
H2102 H 0.02109 0.73648 0.73004 0.0
C2103 C 0.9596 0.70144 0.76388 0.0
C2104 C 0.99038 0.68575 0.74505 0.0
C2105 C 0.94167 0.69455 0.7704 0.0
C2106 C 0.06042 0.71023 0.71126 0.0
C2107 C 0.04244 0.70563 0.71512 0.0
C2108 C 0.01267 0.72231 0.73429 0.0
C2109 C 0.96414 0.69079 0.75197 0.0
C2110 C 0.9833 0.69766 0.74565 0.0
C2111 C 0.03865 0.71662 0.72733 0.0
C2112 C 0.01959 0.71027 0.73348 0.0
H2113 H 0.92206 0.65279 0.74855 0.0
H2114 H 0.95316 0.6648 0.737 0.0
H2115 H 0.9896 0.72555 0.74037 0.0
H2116 H 0.08232 0.74966 0.73741 0.0
H2117 H 0.05076 0.74163 0.74414 0.0
C2118 C 0.30024 0.24753 0.7932 0.0
C2119 C 0.31715 0.25096 0.78588 0.0
C2120 C 0.29288 0.25839 0.78758 0.0
C2121 C 0.30506 0.30256 0.76364 0.0
H2122 H 0.2529 0.27888 0.75432 0.0
C2123 C 0.27138 0.33476 0.71818 0.0
C2124 C 0.25588 0.33436 0.72606 0.0
C2125 C 0.27886 0.32514 0.72698 0.0
C2126 C 0.26745 0.28568 0.75708 0.0
H2127 H 0.33957 0.26827 0.76687 0.0
H2128 H 0.32657 0.28692 0.75658 0.0
H2129 H 0.26609 0.26104 0.76685 0.0
H2130 H 0.23594 0.32353 0.74917 0.0
H2131 H 0.2489 0.30633 0.76447 0.0
H2132 H 0.3064 0.32705 0.75308 0.0
C2133 C 0.31918 0.27622 0.76711 0.0
C2134 C 0.27503 0.27551 0.76432 0.0
C2135 C 0.32663 0.26551 0.77294 0.0
C2136 C 0.24795 0.3241 0.74289 0.0
C2137 C 0.25528 0.31422 0.75154 0.0
C2138 C 0.2975 0.31266 0.75615 0.0
C2139 C 0.30217 0.27276 0.7743 0.0
C2140 C 0.29396 0.28379 0.76754 0.0
C2141 C 0.27085 0.31474 0.74369 0.0
C2142 C 0.27866 0.30427 0.75266 0.0
H2143 H 0.29279 0.23653 0.8034 0.0
H2144 H 0.27993 0.25553 0.79371 0.0
H2145 H 0.31962 0.3095 0.76632 0.0
H2146 H 0.27788 0.34274 0.70535 0.0
H2147 H 0.2908 0.32563 0.72057 0.0
C2148 C 0.71934 0.06464 0.80032 0.0
C2149 C 0.73333 0.08004 0.79095 0.0
C2150 C 0.71219 0.0473 0.79217 0.0
C2151 C 0.70832 0.02339 0.74609 0.0
H2152 H 0.69567 0.98228 0.7802 0.0
C2153 C 0.68636 0.95022 0.71905 0.0
C2154 C 0.6712 0.93587 0.72838 0.0
C2155 C 0.69416 0.9681 0.72604 0.0
C2156 C 0.69901 0.99361 0.77052 0.0
H2157 H 0.75085 0.08936 0.76572 0.0
H2158 H 0.73853 0.05893 0.75151 0.0
H2159 H 0.70937 0.013 0.79361 0.0
H2160 H 0.65237 0.92896 0.75238 0.0
H2161 H 0.66593 0.96017 0.76456 0.0
H2162 H 0.69808 0.00385 0.72297 0.0
C2163 C 0.73288 0.06033 0.76504 0.0
C2164 C 0.70683 0.01122 0.77819 0.0
C2165 C 0.73996 0.07774 0.77316 0.0
C2166 C 0.6639 0.93976 0.74475 0.0
C2167 C 0.67179 0.95758 0.75184 0.0
C2168 C 0.70061 0.00575 0.73839 0.0
C2169 C 0.71894 0.04489 0.7745 0.0
C2170 C 0.71139 0.0263 0.7661 0.0
C2171 C 0.68705 0.97191 0.74263 0.0
C2172 C 0.69571 0.99069 0.75058 0.0
H2173 H 0.71368 0.06602 0.81384 0.0
H2174 H 0.70117 0.03579 0.79963 0.0
H2175 H 0.71148 0.03467 0.7364 0.0
H2176 H 0.69216 0.94761 0.70632 0.0
H2177 H 0.70598 0.97887 0.71872 0.0
C2178 C 0.33106 0.06637 0.26786 0.0
C2179 C 0.32099 0.07171 0.27965 0.0
C2180 C 0.32329 0.04836 0.26128 0.0
C2181 C 0.30682 0.00714 0.25779 0.0
H2182 H 0.25593 0.98232 0.24231 0.0
C2183 C 0.26525 0.92946 0.24248 0.0
C2184 C 0.25214 0.92342 0.22765 0.0
C2185 C 0.27465 0.94785 0.24794 0.0
C2186 C 0.27021 0.9891 0.24635 0.0
H2187 H 0.29515 0.06222 0.29432 0.0
H2188 H 0.28164 0.03078 0.28304 0.0
H2189 H 0.27035 0.01377 0.25352 0.0
H2190 H 0.23923 0.932 0.20631 0.0
H2191 H 0.25578 0.96416 0.21559 0.0
H2192 H 0.30673 0.98252 0.25018 0.0
C2193 C 0.29539 0.04059 0.27848 0.0
C2194 C 0.27841 0.00707 0.25306 0.0
C2195 C 0.30312 0.0586 0.28498 0.0
C2196 C 0.24904 0.93624 0.21799 0.0
C2197 C 0.2585 0.95463 0.22335 0.0
C2198 C 0.29861 0.98916 0.251 0.0
C2199 C 0.30531 0.03529 0.2664 0.0
C2200 C 0.29677 0.01627 0.25897 0.0
C2201 C 0.27119 0.96061 0.23861 0.0
C2202 C 0.28019 0.97991 0.24527 0.0
H2203 H 0.34477 0.07622 0.26331 0.0
H2204 H 0.33122 0.04479 0.2518 0.0
H2205 H 0.32095 0.01379 0.26237 0.0
H2206 H 0.26777 0.91986 0.25036 0.0
H2207 H 0.28416 0.95194 0.25991 0.0
C2208 C 0.05973 0.34199 0.21997 0.0
C2209 C 0.07428 0.34064 0.22795 0.0
C2210 C 0.0424 0.33268 0.22833 0.0
C2211 C 0.01293 0.29218 0.25641 0.0
H2212 H 0.98409 0.31565 0.26469 0.0
C2213 C 0.94025 0.25227 0.28787 0.0
C2214 C 0.92706 0.25583 0.27991 0.0
C2215 C 0.95873 0.26358 0.28361 0.0
C2216 C 0.99186 0.30882 0.26227 0.0
H2217 H 0.08221 0.32861 0.25093 0.0
H2218 H 0.05169 0.31199 0.26545 0.0
H2219 H 0.01553 0.33369 0.25333 0.0
H2220 H 0.92281 0.27398 0.26133 0.0
H2221 H 0.955 0.29347 0.25334 0.0
H2222 H 0.9892 0.26719 0.2645 0.0
C2223 C 0.05379 0.32037 0.25279 0.0
C2224 C 0.0099 0.31919 0.25587 0.0
C2225 C 0.07123 0.32993 0.24458 0.0
C2226 C 0.93273 0.27107 0.26782 0.0
C2227 C 0.9512 0.28226 0.26333 0.0
C2228 C 0.99483 0.28175 0.26257 0.0
C2229 C 0.03921 0.32163 0.24469 0.0
C2230 C 0.02054 0.31094 0.25273 0.0
C2231 C 0.96444 0.27858 0.27104 0.0
C2232 C 0.984 0.2899 0.26544 0.0
H2233 H 0.06177 0.35032 0.20729 0.0
H2234 H 0.03137 0.33378 0.22171 0.0
H2235 H 0.02078 0.28544 0.25386 0.0
H2236 H 0.93624 0.24076 0.29748 0.0
H2237 H 0.96854 0.26054 0.29016 0.0
C2238 C 0.71831 0.66358 0.30656 0.0
C2239 C 0.7264 0.65715 0.29335 0.0
C2240 C 0.71569 0.67814 0.3017 0.0
C2241 C 0.72628 0.71413 0.26417 0.0
H2242 H 0.67884 0.70655 0.27937 0.0
C2243 C 0.68654 0.74254 0.22282 0.0
C2244 C 0.67683 0.74911 0.23353 0.0
C2245 C 0.6957 0.73478 0.23211 0.0
C2246 C 0.69227 0.70906 0.27527 0.0
H2247 H 0.73873 0.66124 0.26504 0.0
H2248 H 0.73359 0.68624 0.25612 0.0
H2249 H 0.68929 0.68659 0.29211 0.0
H2250 H 0.6704 0.75365 0.26275 0.0
H2251 H 0.6859 0.73957 0.2788 0.0
H2252 H 0.72861 0.73603 0.24641 0.0
C2253 C 0.72969 0.68045 0.27048 0.0
C2254 C 0.69833 0.69764 0.28263 0.0
C2255 C 0.7326 0.66608 0.27552 0.0
C2256 C 0.67725 0.74837 0.25388 0.0
C2257 C 0.68624 0.74039 0.26315 0.0
C2258 C 0.72008 0.72541 0.2566 0.0
C2259 C 0.72075 0.68636 0.28332 0.0
C2260 C 0.71531 0.69982 0.27697 0.0
C2261 C 0.69528 0.73324 0.25233 0.0
C2262 C 0.70289 0.7228 0.26187 0.0
H2263 H 0.71367 0.65704 0.32052 0.0
H2264 H 0.70924 0.68262 0.31218 0.0
H2265 H 0.73956 0.71645 0.25974 0.0
H2266 H 0.68661 0.7427 0.20719 0.0
H2267 H 0.7024 0.72921 0.22339 0.0
C2268 C 0.29458 0.1926 0.13382 0.0
C2269 C 0.29885 0.18901 0.11525 0.0
C2270 C 0.30326 0.19085 0.1502 0.0
C2271 C 0.32746 0.16713 0.16672 0.0
H2272 H 0.33835 0.19813 0.21194 0.0
C2273 C 0.36605 0.16076 0.23154 0.0
C2274 C 0.35909 0.16034 0.25013 0.0
C2275 C 0.35952 0.16569 0.21548 0.0
C2276 C 0.33522 0.18928 0.19947 0.0
H2277 H 0.31624 0.18159 0.09928 0.0
H2278 H 0.33171 0.17888 0.12789 0.0
H2279 H 0.32654 0.20487 0.18267 0.0
H2280 H 0.34019 0.16538 0.2665 0.0
H2281 H 0.32869 0.17409 0.23817 0.0
H2282 H 0.33617 0.15159 0.18345 0.0
C2283 C 0.32132 0.18267 0.1298 0.0
C2284 C 0.32848 0.19313 0.18269 0.0
C2285 C 0.31257 0.18436 0.11338 0.0
C2286 C 0.34581 0.16556 0.25236 0.0
C2287 C 0.33927 0.17058 0.23617 0.0
C2288 C 0.33427 0.16336 0.18342 0.0
C2289 C 0.31651 0.18555 0.14846 0.0
C2290 C 0.32449 0.18208 0.16609 0.0
C2291 C 0.34586 0.17037 0.2175 0.0
C2292 C 0.33826 0.17438 0.19999 0.0
H2293 H 0.28409 0.19623 0.13582 0.0
H2294 H 0.29903 0.19299 0.16428 0.0
H2295 H 0.32415 0.15806 0.15443 0.0
H2296 H 0.37643 0.15702 0.22925 0.0
H2297 H 0.36515 0.16574 0.20138 0.0
C2298 C 0.81962 0.14 0.09901 0.0
C2299 C 0.81135 0.12088 0.10017 0.0
C2300 C 0.82278 0.15043 0.11586 0.0
C2301 C 0.80896 0.1465 0.16763 0.0
H2302 H 0.85537 0.19126 0.17349 0.0
C2303 C 0.83424 0.18505 0.24089 0.0
C2304 C 0.84209 0.20413 0.2399 0.0
C2305 C 0.83008 0.17466 0.22387 0.0
C2306 C 0.84228 0.17885 0.17202 0.0
H2307 H 0.79965 0.09774 0.11989 0.0
H2308 H 0.80535 0.11579 0.14892 0.0
H2309 H 0.84844 0.17417 0.14327 0.0
H2310 H 0.85163 0.22723 0.22027 0.0
H2311 H 0.8444 0.20923 0.19094 0.0
H2312 H 0.80294 0.15113 0.19651 0.0
C2313 C 0.80919 0.1228 0.13513 0.0
C2314 C 0.83827 0.16911 0.15465 0.0
C2315 C 0.80605 0.11244 0.1184 0.0
C2316 C 0.84564 0.21256 0.22163 0.0
C2317 C 0.8416 0.20226 0.20474 0.0
C2318 C 0.81301 0.15621 0.18504 0.0
C2319 C 0.81767 0.14192 0.13414 0.0
C2320 C 0.82158 0.15279 0.15225 0.0
C2321 C 0.83384 0.18321 0.20561 0.0
C2322 C 0.82971 0.1725 0.18741 0.0
H2323 H 0.82384 0.14689 0.08518 0.0
H2324 H 0.82918 0.16515 0.11458 0.0
H2325 H 0.79586 0.13412 0.16619 0.0
H2326 H 0.83135 0.17817 0.25475 0.0
H2327 H 0.82417 0.15998 0.22498 0.0
C2328 C 0.78948 0.64533 0.24344 0.0
C2329 C 0.77036 0.63575 0.24204 0.0
C2330 C 0.80022 0.65255 0.22683 0.0
C2331 C 0.79906 0.66392 0.175 0.0
H2332 H 0.83853 0.65334 0.17033 0.0
C2333 C 0.83886 0.67309 0.10314 0.0
C2334 C 0.85791 0.6815 0.10515 0.0
C2335 C 0.8276 0.6676 0.11959 0.0
C2336 C 0.82765 0.65654 0.17145 0.0
H2337 H 0.7475 0.6273 0.2224 0.0
H2338 H 0.76614 0.63978 0.19358 0.0
H2339 H 0.82082 0.64558 0.20006 0.0
H2340 H 0.88003 0.69056 0.12597 0.0
H2341 H 0.86061 0.68117 0.15424 0.0
H2342 H 0.80595 0.67483 0.14624 0.0
C2343 C 0.77291 0.64177 0.20741 0.0
C2344 C 0.81757 0.65219 0.18855 0.0
C2345 C 0.76222 0.63452 0.22395 0.0
C2346 C 0.86541 0.6841 0.12382 0.0
C2347 C 0.85425 0.67861 0.14011 0.0
C2348 C 0.80919 0.6683 0.15784 0.0
C2349 C 0.79202 0.6504 0.20855 0.0
C2350 C 0.80319 0.65587 0.19058 0.0
C2351 C 0.83523 0.67031 0.13825 0.0
C2352 C 0.82367 0.66475 0.15593 0.0
H2353 H 0.79615 0.64651 0.25718 0.0
H2354 H 0.81494 0.65941 0.22822 0.0
H2355 H 0.78812 0.66701 0.17614 0.0
H2356 H 0.83271 0.67096 0.08894 0.0
H2357 H 0.81296 0.66113 0.1177 0.0
C2358 C 0.16211 0.30876 0.41063 0.0
C2359 C 0.16986 0.29747 0.40921 0.0
C2360 C 0.158 0.31536 0.39383 0.0
C2361 C 0.15077 0.30673 0.34079 0.0
H2362 H 0.16224 0.3572 0.33858 0.0
C2363 C 0.15259 0.34402 0.26914 0.0
C2364 C 0.14569 0.35606 0.27012 0.0
C2365 C 0.15432 0.33578 0.28605 0.0
C2366 C 0.15876 0.343 0.33901 0.0
H2367 H 0.17949 0.2844 0.38903 0.0
H2368 H 0.17266 0.29602 0.36018 0.0
H2369 H 0.16709 0.34511 0.36859 0.0
H2370 H 0.13427 0.36808 0.28938 0.0
H2371 H 0.13708 0.35368 0.31846 0.0
H2372 H 0.14268 0.30474 0.31109 0.0
C2373 C 0.16936 0.29953 0.37409 0.0
C2374 C 0.1615 0.33607 0.35626 0.0
C2375 C 0.17342 0.29297 0.39074 0.0
C2376 C 0.1399 0.35909 0.28811 0.0
C2377 C 0.1416 0.35091 0.30487 0.0
C2378 C 0.14809 0.31369 0.32351 0.0
C2379 C 0.16156 0.31076 0.37535 0.0
C2380 C 0.15764 0.31787 0.35735 0.0
C2381 C 0.14917 0.33945 0.30415 0.0
C2382 C 0.15208 0.33192 0.32241 0.0
H2383 H 0.15918 0.31243 0.42464 0.0
H2384 H 0.15188 0.3239 0.39531 0.0
H2385 H 0.14739 0.29256 0.34119 0.0
H2386 H 0.15717 0.34143 0.25548 0.0
H2387 H 0.16025 0.32702 0.28503 0.0
C2388 C 0.68699 0.88684 0.39249 0.0
C2389 C 0.68745 0.87918 0.41039 0.0
C2390 C 0.67979 0.87589 0.37612 0.0
C2391 C 0.6513 0.82843 0.35879 0.0
H2392 H 0.68081 0.84738 0.31241 0.0
C2393 C 0.63882 0.78323 0.29187 0.0
C2394 C 0.64017 0.79081 0.27341 0.0
C2395 C 0.64431 0.79423 0.30835 0.0
C2396 C 0.67225 0.84198 0.32512 0.0
H2397 H 0.6799 0.85385 0.42538 0.0
H2398 H 0.6672 0.83452 0.39658 0.0
H2399 H 0.68991 0.86559 0.34192 0.0
H2400 H 0.64871 0.81602 0.25775 0.0
H2401 H 0.65823 0.8354 0.28673 0.0
H2402 H 0.63364 0.80482 0.34198 0.0
C2403 C 0.6724 0.84908 0.3953 0.0
C2404 C 0.67748 0.85241 0.34208 0.0
C2405 C 0.67962 0.86012 0.4118 0.0
C2406 C 0.64757 0.8098 0.27177 0.0
C2407 C 0.65303 0.82087 0.28837 0.0
C2408 C 0.64603 0.81801 0.34179 0.0
C2409 C 0.67289 0.85695 0.37715 0.0
C2410 C 0.66709 0.84576 0.35914 0.0
C2411 C 0.65124 0.81315 0.30691 0.0
C2412 C 0.65651 0.8246 0.32476 0.0
H2413 H 0.69273 0.90147 0.39096 0.0
H2414 H 0.67997 0.88234 0.36252 0.0
H2415 H 0.64288 0.823 0.37158 0.0
H2416 H 0.63338 0.76867 0.29369 0.0
H2417 H 0.64316 0.78784 0.32227 0.0
C2418 C 0.1442 0.82415 0.41695 0.0
C2419 C 0.1265 0.80893 0.41757 0.0
C2420 C 0.15456 0.82839 0.39989 0.0
C2421 C 0.15699 0.80925 0.35199 0.0
H2422 H 0.1813 0.85992 0.33562 0.0
C2423 C 0.1859 0.83134 0.27441 0.0
C2424 C 0.20367 0.84643 0.27349 0.0
C2425 C 0.17609 0.82687 0.29186 0.0
C2426 C 0.17467 0.84572 0.34003 0.0
H2427 H 0.10619 0.78564 0.40128 0.0
H2428 H 0.12405 0.79297 0.37184 0.0
H2429 H 0.16661 0.85154 0.36725 0.0
H2430 H 0.22474 0.86916 0.28981 0.0
H2431 H 0.20776 0.86146 0.31991 0.0
H2432 H 0.16496 0.80344 0.32468 0.0
C2433 C 0.13008 0.80167 0.38435 0.0
C2434 C 0.16636 0.84094 0.35823 0.0
C2435 C 0.11978 0.79752 0.40125 0.0
C2436 C 0.2111 0.85737 0.29005 0.0
C2437 C 0.20131 0.85303 0.30732 0.0
C2438 C 0.16526 0.81403 0.33376 0.0
C2439 C 0.14743 0.81737 0.38325 0.0
C2440 C 0.15737 0.82263 0.36444 0.0
C2441 C 0.18382 0.83755 0.30858 0.0
C2442 C 0.1742 0.83232 0.32755 0.0
H2443 H 0.14969 0.83322 0.42928 0.0
H2444 H 0.168 0.84047 0.3996 0.0
H2445 H 0.15037 0.79505 0.35638 0.0
H2446 H 0.17986 0.82263 0.2619 0.0
H2447 H 0.16254 0.81495 0.29232 0.0
C2448 C 0.64034 0.86171 0.78718 0.0
C2449 C 0.64342 0.85679 0.7687 0.0
C2450 C 0.64701 0.85761 0.80373 0.0
C2451 C 0.66257 0.82673 0.8222 0.0
H2452 H 0.68052 0.86099 0.86506 0.0
C2453 C 0.69637 0.81563 0.88916 0.0
C2454 C 0.69182 0.81936 0.90753 0.0
C2455 C 0.69068 0.82043 0.87234 0.0
C2456 C 0.67535 0.85119 0.85331 0.0
H2457 H 0.65618 0.84386 0.75315 0.0
H2458 H 0.66812 0.8368 0.78226 0.0
H2459 H 0.67135 0.86934 0.83505 0.0
H2460 H 0.67772 0.8312 0.92257 0.0
H2461 H 0.66769 0.83968 0.89296 0.0
H2462 H 0.66666 0.80861 0.84046 0.0
C2463 C 0.6603 0.84369 0.78386 0.0
C2464 C 0.67012 0.85598 0.83607 0.0
C2465 C 0.65357 0.84782 0.76717 0.0
C2466 C 0.68147 0.82815 0.90865 0.0
C2467 C 0.6758 0.83307 0.8917 0.0
C2468 C 0.66786 0.82197 0.83942 0.0
C2469 C 0.65704 0.84851 0.80236 0.0
C2470 C 0.66357 0.84377 0.82031 0.0
C2471 C 0.68028 0.82915 0.87335 0.0
C2472 C 0.67428 0.83413 0.8552 0.0
H2473 H 0.63255 0.8686 0.78898 0.0
H2474 H 0.64393 0.86125 0.81769 0.0
H2475 H 0.65731 0.81686 0.81052 0.0
H2476 H 0.70438 0.80892 0.88768 0.0
H2477 H 0.69463 0.81749 0.85849 0.0
C2478 C 0.15349 0.86612 0.89296 0.0
C2479 C 0.15582 0.86013 0.91117 0.0
C2480 C 0.14919 0.8549 0.87673 0.0
C2481 C 0.13076 0.80758 0.86004 0.0
H2482 H 0.16054 0.83075 0.81474 0.0
C2483 C 0.13292 0.76647 0.79428 0.0
C2484 C 0.13579 0.77425 0.77572 0.0
C2485 C 0.13336 0.77639 0.81064 0.0
C2486 C 0.15183 0.82409 0.82708 0.0
H2487 H 0.1547 0.83731 0.92673 0.0
H2488 H 0.14701 0.81753 0.89817 0.0
H2489 H 0.16494 0.84866 0.84384 0.0
H2490 H 0.14052 0.79829 0.75971 0.0
H2491 H 0.14083 0.81551 0.78825 0.0
H2492 H 0.11755 0.78301 0.84324 0.0
C2493 C 0.14856 0.83099 0.89658 0.0
C2494 C 0.15444 0.83437 0.84383 0.0
C2495 C 0.15299 0.84231 0.91291 0.0
C2496 C 0.13837 0.79195 0.77382 0.0
C2497 C 0.13869 0.80185 0.79021 0.0
C2498 C 0.12803 0.7973 0.84319 0.0
C2499 C 0.14701 0.83736 0.87824 0.0
C2500 C 0.14398 0.82623 0.86052 0.0
C2501 C 0.13655 0.79433 0.80888 0.0
C2502 C 0.13861 0.80541 0.82651 0.0
H2503 H 0.1554 0.87969 0.89108 0.0
H2504 H 0.14776 0.86008 0.86288 0.0
H2505 H 0.12237 0.80099 0.87261 0.0
H2506 H 0.13091 0.75286 0.79631 0.0
H2507 H 0.13189 0.77018 0.82472 0.0
C2508 C 0.18495 0.34096 0.76723 0.0
C2509 C 0.20373 0.35349 0.76903 0.0
C2510 C 0.17442 0.33222 0.78371 0.0
C2511 C 0.17467 0.33894 0.83649 0.0
H2512 H 0.13891 0.28728 0.83876 0.0
C2513 C 0.13904 0.30466 0.90829 0.0
C2514 C 0.12026 0.29199 0.90729 0.0
C2515 C 0.14945 0.31111 0.89132 0.0
C2516 C 0.14873 0.30178 0.83833 0.0
H2517 H 0.22628 0.36595 0.78944 0.0
H2518 H 0.20811 0.35085 0.81772 0.0
H2519 H 0.1558 0.30041 0.80878 0.0
H2520 H 0.0978 0.27583 0.88767 0.0
H2521 H 0.11574 0.28724 0.85835 0.0
H2522 H 0.16754 0.34051 0.86581 0.0
C2523 C 0.20137 0.34798 0.80378 0.0
C2524 C 0.15837 0.30928 0.82112 0.0
C2525 C 0.21181 0.35659 0.78746 0.0
C2526 C 0.11225 0.28558 0.88902 0.0
C2527 C 0.12259 0.29205 0.87213 0.0
C2528 C 0.16499 0.3315 0.85362 0.0
C2529 C 0.18252 0.33596 0.80221 0.0
C2530 C 0.17154 0.32793 0.82006 0.0
C2531 C 0.14128 0.30507 0.873 0.0
C2532 C 0.15193 0.31281 0.85482 0.0
H2533 H 0.17834 0.33828 0.75323 0.0
H2534 H 0.15988 0.323 0.78207 0.0
H2535 H 0.18452 0.35343 0.83606 0.0
H2536 H 0.14563 0.30983 0.92213 0.0
H2537 H 0.16388 0.32092 0.89257 0.0
C2538 C 0.83906 0.63126 0.7177 0.0
C2539 C 0.84116 0.6394 0.73595 0.0
C2540 C 0.83557 0.63868 0.70136 0.0
C2541 C 0.84173 0.68199 0.68239 0.0
H2542 H 0.80949 0.65099 0.64172 0.0
C2543 C 0.82285 0.71035 0.61577 0.0
C2544 C 0.8215 0.70206 0.59774 0.0
C2545 C 0.82564 0.70302 0.63265 0.0
C2546 C 0.81872 0.65982 0.65284 0.0
H2547 H 0.8407 0.66144 0.75151 0.0
H2548 H 0.8344 0.67444 0.72279 0.0
H2549 H 0.81197 0.63727 0.67176 0.0
H2550 H 0.82249 0.67984 0.58319 0.0
H2551 H 0.82752 0.66704 0.6128 0.0
H2552 H 0.84848 0.70454 0.66342 0.0
C2553 C 0.83567 0.66237 0.72118 0.0
C2554 C 0.82008 0.65197 0.67009 0.0
C2555 C 0.83911 0.65486 0.73763 0.0
C2556 C 0.8235 0.68654 0.59687 0.0
C2557 C 0.82622 0.67914 0.61384 0.0
C2558 C 0.84034 0.68985 0.66513 0.0
C2559 C 0.83409 0.65447 0.70281 0.0
C2560 C 0.83169 0.66295 0.68503 0.0
C2561 C 0.82709 0.68719 0.63194 0.0
C2562 C 0.82888 0.67884 0.65012 0.0
H2563 H 0.84051 0.61931 0.71589 0.0
H2564 H 0.83466 0.63237 0.68745 0.0
H2565 H 0.85103 0.69081 0.69346 0.0
H2566 H 0.82139 0.72234 0.61695 0.0
H2567 H 0.82607 0.70946 0.64635 0.0
C2568 C 0.34367 0.18127 0.75176 0.0
C2569 C 0.35264 0.2004 0.74995 0.0
C2570 C 0.33857 0.17015 0.73519 0.0
C2571 C 0.32925 0.17086 0.68293 0.0
H2572 H 0.33733 0.12965 0.67944 0.0
C2573 C 0.31588 0.13041 0.61173 0.0
C2574 C 0.30628 0.11129 0.61361 0.0
C2575 C 0.32331 0.14156 0.62809 0.0
C2576 C 0.33486 0.14104 0.68022 0.0
H2577 H 0.36326 0.22279 0.7293 0.0
H2578 H 0.35448 0.20358 0.7008 0.0
H2579 H 0.34551 0.14783 0.70909 0.0
H2580 H 0.29784 0.08889 0.63393 0.0
H2581 H 0.31054 0.10818 0.66223 0.0
H2582 H 0.3184 0.16402 0.65426 0.0
C2583 C 0.35119 0.19708 0.71488 0.0
C2584 C 0.3395 0.15141 0.69725 0.0
C2585 C 0.35633 0.20812 0.73131 0.0
C2586 C 0.3051 0.10358 0.63196 0.0
C2587 C 0.3125 0.11467 0.64824 0.0
C2588 C 0.32457 0.16048 0.66596 0.0
C2589 C 0.34222 0.17797 0.71656 0.0
C2590 C 0.33677 0.16647 0.69878 0.0
C2591 C 0.32131 0.1338 0.64662 0.0
C2592 C 0.3273 0.14542 0.66436 0.0
H2593 H 0.34066 0.17492 0.76591 0.0
H2594 H 0.33157 0.15544 0.73696 0.0
H2595 H 0.32672 0.18221 0.68372 0.0
H2596 H 0.31703 0.13676 0.5978 0.0
H2597 H 0.33029 0.15626 0.62627 0.0
C2598 C 0.87719 0.18819 0.62659 0.0
C2599 C 0.86895 0.18231 0.60834 0.0
C2600 C 0.86667 0.18353 0.64338 0.0
C2601 C 0.82024 0.16857 0.66111 0.0
H2602 H 0.83757 0.15615 0.7075 0.0
C2603 C 0.77616 0.14367 0.72942 0.0
C2604 C 0.78462 0.15143 0.74716 0.0
C2605 C 0.78652 0.14611 0.71286 0.0
C2606 C 0.83264 0.15975 0.69472 0.0
H2607 H 0.84309 0.16693 0.59341 0.0
H2608 H 0.82454 0.15861 0.62292 0.0
H2609 H 0.85496 0.16264 0.67748 0.0
H2610 H 0.81065 0.16717 0.76165 0.0
H2611 H 0.82896 0.1716 0.73245 0.0
H2612 H 0.79798 0.16576 0.67833 0.0
C2613 C 0.83923 0.167 0.62415 0.0
C2614 C 0.84258 0.16346 0.6775 0.0
C2615 C 0.84983 0.17172 0.60725 0.0
C2616 C 0.80378 0.161 0.74818 0.0
C2617 C 0.81422 0.16352 0.73147 0.0
C2618 C 0.81029 0.16483 0.6783 0.0
C2619 C 0.84757 0.1728 0.64243 0.0
C2620 C 0.83655 0.16801 0.6605 0.0
C2621 C 0.80565 0.15646 0.71352 0.0
C2622 C 0.81638 0.16039 0.69532 0.0
H2623 H 0.89188 0.19648 0.62801 0.0
H2624 H 0.87354 0.18855 0.65712 0.0
H2625 H 0.81536 0.17233 0.64842 0.0
H2626 H 0.76142 0.13596 0.72819 0.0
H2627 H 0.77949 0.14008 0.69941 0.0
C2628 C 0.00941 0.48919 0.56811 0.0
C2629 C 0.02456 0.48662 0.56685 0.0
C2630 C 0.00118 0.49098 0.55121 0.0
C2631 C 0.01061 0.50308 0.49937 0.0
H2632 H 0.95805 0.47526 0.4932 0.0
C2633 C 0.97648 0.5001 0.4259 0.0
C2634 C 0.96071 0.50164 0.42665 0.0
C2635 C 0.98375 0.4972 0.4429 0.0
C2636 C 0.97274 0.48327 0.49473 0.0
H2637 H 0.04309 0.48419 0.54689 0.0
H2638 H 0.02892 0.48735 0.51784 0.0
H2639 H 0.97178 0.47365 0.52367 0.0
H2640 H 0.93983 0.50065 0.44573 0.0
H2641 H 0.95254 0.49591 0.47509 0.0
H2642 H 0.01165 0.51289 0.47061 0.0
C2643 C 0.02337 0.48806 0.53172 0.0
C2644 C 0.98059 0.48237 0.51224 0.0
C2645 C 0.03142 0.48612 0.54846 0.0
C2646 C 0.95203 0.49956 0.44459 0.0
C2647 C 0.95926 0.4967 0.46149 0.0
C2648 C 0.00277 0.50406 0.48193 0.0
C2649 C 0.00815 0.49047 0.53284 0.0
C2650 C -0.00038 0.49219 0.51472 0.0
C2651 C 0.97538 0.49577 0.46097 0.0
C2652 C 0.98373 0.49414 0.47934 0.0
H2653 H 0.0038 0.4896 0.58207 0.0
H2654 H 0.9895 0.49291 0.55252 0.0
H2655 H 0.02531 0.51099 0.50091 0.0
H2656 H 0.98349 0.50165 0.41232 0.0
H2657 H 0.99603 0.49626 0.44191 0.0
C2658 C 0.52137 0.55239 0.56155 0.0
C2659 C 0.51157 0.54481 0.57873 0.0
C2660 C 0.51715 0.542 0.54469 0.0
C2661 C 0.47935 0.50262 0.52073 0.0
H2662 H 0.51721 0.50629 0.48619 0.0
C2663 C 0.46391 0.45501 0.45533 0.0
C2664 C 0.47437 0.46183 0.43838 0.0
C2665 C 0.46808 0.46584 0.47184 0.0
C2666 C 0.50648 0.50535 0.49551 0.0
H2667 H 0.48994 0.52018 0.59187 0.0
H2668 H 0.48246 0.50184 0.56217 0.0
H2669 H 0.52562 0.52258 0.51698 0.0
H2670 H 0.49702 0.48565 0.42522 0.0
H2671 H 0.50427 0.50485 0.45421 0.0
H2672 H 0.4602 0.48551 0.49925 0.0
C2673 C 0.49338 0.51595 0.56183 0.0
C2674 C 0.51129 0.51458 0.51323 0.0
C2675 C 0.49774 0.52637 0.57885 0.0
C2676 C 0.48871 0.48004 0.43806 0.0
C2677 C 0.49295 0.49094 0.45471 0.0
C2678 C 0.47454 0.49345 0.50299 0.0
C2679 C 0.50294 0.52375 0.54451 0.0
C2680 C 0.49779 0.51329 0.52607 0.0
C2681 C 0.48284 0.48383 0.4719 0.0
C2682 C 0.48803 0.49462 0.49018 0.0
H2683 H 0.53217 0.56656 0.56098 0.0
H2684 H 0.52467 0.54849 0.53161 0.0
H2685 H 0.46864 0.50163 0.53012 0.0
H2686 H 0.45271 0.44104 0.45607 0.0
H2687 H 0.46013 0.4598 0.48481 0.0
C2688 C 0.52111 0.02219 0.43642 0.0
C2689 C 0.53843 0.038 0.4361 0.0
C2690 C 0.51139 0.01605 0.45383 0.0
C2691 C 0.50944 0.03055 0.50433 0.0
H2692 H 0.48539 0.97855 0.51482 0.0
C2693 C 0.47937 -0.00082 0.57983 0.0
C2694 C 0.46179 0.98374 0.57931 0.0
C2695 C 0.48933 0.00621 0.56264 0.0
C2696 C 0.49196 0.99311 0.51207 0.0
H2697 H 0.55881 0.06013 0.45367 0.0
H2698 H 0.54208 0.04939 0.48379 0.0
H2699 H 0.50039 0.99016 0.48377 0.0
H2700 H 0.44103 0.9634 0.56041 0.0
H2701 H 0.45824 0.97554 0.53084 0.0
H2702 H 0.50102 0.03343 0.53277 0.0
C2703 C 0.53584 0.04176 0.47069 0.0
C2704 C 0.50046 -0.00025 0.49421 0.0
C2705 C 0.54551 0.04786 0.45337 0.0
C2706 C 0.45453 0.97534 0.56139 0.0
C2707 C 0.46446 0.98222 0.54438 0.0
C2708 C 0.50097 0.0239 0.52225 0.0
C2709 C 0.51879 0.02564 0.47124 0.0
C2710 C 0.50925 0.01855 0.49007 0.0
C2711 C 0.48193 0.99776 0.54473 0.0
C2712 C 0.49203 0.00508 0.52627 0.0
H2713 H 0.51529 0.0143 0.42336 0.0
H2714 H 0.49815 0.00371 0.45369 0.0
H2715 H 0.51592 0.0451 0.50157 0.0
H2716 H 0.4853 0.00595 0.59342 0.0
H2717 H 0.50284 0.01816 0.56335 0.0
C2718 C 0.51866 0.96124 0.05759 0.0
C2719 C 0.51662 0.96626 0.07643 0.0
C2720 C 0.51647 0.96989 0.04149 0.0
C2721 C 0.5166 0.01145 0.02529 0.0
H2722 H 0.48842 0.98074 0.9823 0.0
C2723 C 0.49115 0.03804 0.96277 0.0
C2724 C 0.49043 0.0314 0.94394 0.0
C2725 C 0.49585 0.03089 0.97849 0.0
C2726 C 0.49659 0.98957 0.994 0.0
H2727 H 0.51103 0.98463 0.09312 0.0
H2728 H 0.50714 -0.00014 0.06476 0.0
H2729 H 0.49322 0.96688 0.01093 0.0
H2730 H 0.49463 0.01233 0.9268 0.0
H2731 H 0.50314 -9e-05 0.95436 0.0
H2732 H 0.51996 0.03415 0.00835 0.0
C2733 C 0.51052 0.9892 0.06257 0.0
C2734 C 0.49927 0.98161 0.01048 0.0
C2735 C 0.51267 0.98045 0.0788 0.0
C2736 C 0.49504 0.01772 0.94112 0.0
C2737 C 0.49977 0.01053 0.95694 0.0
C2738 C 0.51397 0.01944 0.00876 0.0
C2739 C 0.5122 0.98384 0.04373 0.0
C2740 C 0.50927 0.99244 0.02634 0.0
C2741 C 0.50003 0.01691 0.97585 0.0
C2742 C 0.50384 0.00858 0.99295 0.0
H2743 H 0.52183 0.95046 0.05517 0.0
H2744 H 0.51819 0.96566 0.02722 0.0
H2745 H 0.52458 0.0202 0.03714 0.0
H2746 H 0.4877 0.04858 0.9655 0.0
H2747 H 0.49564 0.03597 0.99281 0.0
C2748 C 0.96052 0.45943 0.94849 0.0
C2749 C 0.96757 0.46661 0.93009 0.0
C2750 C 0.96628 0.47059 0.96485 0.0
C2751 C 0.98806 0.51831 0.98154 0.0
H2752 H 0.00053 0.49937 0.02656 0.0
C2753 C 0.0287 0.56374 0.04617 0.0
C2754 C 0.0253 0.55613 0.06485 0.0
C2755 C 0.01975 0.55293 0.0301 0.0
C2756 C -0.00321 0.50477 0.01429 0.0
H2757 H 0.98591 0.49131 0.91441 0.0
H2758 H 0.99604 0.51095 0.94319 0.0
H2759 H 0.98909 0.48068 0.99757 0.0
H2760 H 0.00911 0.53135 0.08139 0.0
H2761 H 0.99313 0.51248 0.05331 0.0
H2762 H 0.99574 0.54242 0.99827 0.0
C2763 C 0.98597 0.49662 0.94483 0.0
C2764 C 0.99031 0.49407 0.99761 0.0
C2765 C 0.98023 0.48538 0.92838 0.0
C2766 C 0.01209 0.53761 0.06719 0.0
C2767 C 0.00305 0.52677 0.05106 0.0
C2768 C 0.99443 0.529 0.9983 0.0
C2769 C 0.97922 0.48925 0.96328 0.0
C2770 C 0.98596 0.50074 0.981 0.0
C2771 C 0.00708 0.53422 0.03226 0.0
C2772 C -0.00098 0.52242 0.01486 0.0
H2773 H 0.95065 0.44506 0.95037 0.0
H2774 H 0.9606 0.46455 0.97878 0.0
H2775 H 0.98459 0.52373 0.96906 0.0
H2776 H 0.03877 0.57797 0.04381 0.0
H2777 H 0.02339 0.55914 0.01589 0.0
C2778 C 0.45212 0.48512 0.05338 0.0
C2779 C 0.46079 0.48789 0.07145 0.0
C2780 C 0.46212 0.48959 0.03625 0.0
C2781 C 0.50802 0.51777 0.01589 0.0
H2782 H 0.48909 0.48275 0.97374 0.0
C2783 C 0.55172 0.5224 0.95025 0.0
C2784 C 0.5436 0.51681 0.9319 0.0
C2785 C 0.54119 0.52033 0.96656 0.0
C2786 C 0.49441 0.49284 0.9852 0.0
H2787 H 0.48691 0.4978 0.08565 0.0
H2788 H 0.50458 0.50574 0.05546 0.0
H2789 H 0.47211 0.47603 1.00399 0.0
H2790 H 0.51805 0.50523 0.91621 0.0
H2791 H 0.49946 0.50175 0.94492 0.0
H2792 H 0.5303 0.53462 0.99712 0.0
C2793 C 0.48993 0.50011 0.05471 0.0
C2794 C 0.48473 0.48894 1.0026 0.0
C2795 C 0.47984 0.49551 0.07197 0.0
C2796 C 0.52468 0.50964 0.93015 0.0
C2797 C 0.51405 0.50754 0.94661 0.0
C2798 C 0.51765 0.52174 0.99844 0.0
C2799 C 0.48112 0.49702 0.03666 0.0
C2800 C 0.49149 0.50129 0.0182 0.0
C2801 C 0.5222 0.51266 0.96507 0.0
C2802 C 0.51108 0.50923 0.98294 0.0
H2803 H 0.43747 0.47935 0.05237 0.0
H2804 H 0.45496 0.48731 0.02264 0.0
H2805 H 0.51342 0.5277 0.02751 0.0
H2806 H 0.56628 0.52806 0.95217 0.0
H2807 H 0.54795 0.52418 0.98049 0.0
C2808 C 0.25849 0.107 0.03932 0.0
C2809 C 0.24777 0.10811 0.05423 0.0
C2810 C 0.25467 0.08998 0.03201 0.0
C2811 C 0.23068 0.04077 0.04487 0.0
H2812 H 0.23317 0.0335 0.98984 0.0
C2813 C 0.21924 0.9723 0.0134 0.0
C2814 C 0.20869 0.96608 0.99645 0.0
C2815 C 0.22518 0.98997 0.02035 0.0
C2816 C 0.23233 0.03529 1.00525 0.0
H2817 H 0.22416 0.09224 0.0725 0.0
H2818 H 0.21744 0.06272 0.05974 0.0
H2819 H 0.24094 0.06368 1.00192 0.0
H2820 H 0.19567 0.97336 0.97385 0.0
H2821 H 0.20591 0.00401 0.98599 0.0
H2822 H 0.22152 0.01229 0.04816 0.0
C2823 C 0.2291 0.07492 0.05403 0.0
C2824 C 0.23699 0.05264 0.01219 0.0
C2825 C 0.23293 0.09187 0.06133 0.0
C2826 C 0.20411 0.97785 0.98672 0.0
C2827 C 0.21 0.99545 0.99367 0.0
C2828 C 0.22602 0.02344 0.03793 0.0
C2829 C 0.24002 0.07373 0.03943 0.0
C2830 C 0.23601 0.05554 0.03206 0.0
C2831 C 0.22065 0.00176 0.01054 0.0
C2832 C 0.22659 0.02043 0.01802 0.0
H2833 H 0.27011 0.11925 0.03366 0.0
H2834 H 0.26343 0.08954 0.02086 0.0
H2835 H 0.23004 0.04259 0.0603 0.0
H2836 H 0.22313 0.96361 0.02112 0.0
H2837 H 0.23351 0.99446 0.03329 0.0
C2838 C 0.88459 0.15091 0.04628 0.0
C2839 C 0.88124 0.13315 0.05031 0.0
C2840 C 0.90227 0.16512 0.04257 0.0
C2841 C 0.95078 0.18051 0.04934 0.0
H2842 H 0.95726 0.2084 1.00251 0.0
C2843 C 0.02174 0.22843 0.01609 0.0
C2844 C 0.02437 0.24392 1.00586 0.0
C2845 C 0.00455 0.21596 0.02347 0.0
C2846 C 0.95572 0.20105 0.01586 0.0
H2847 H 0.89418 0.11671 0.05407 0.0
H2848 H 0.92511 0.14169 0.04795 0.0
H2849 H 0.92682 0.18466 0.01194 0.0
H2850 H 0.01146 0.25911 0.99618 0.0
H2851 H 0.98157 0.23774 0.00968 0.0
H2852 H 0.97965 0.19701 0.05342 0.0
C2853 C 0.91392 0.14448 0.04765 0.0
C2854 C 0.93825 0.18736 0.02118 0.0
C2855 C 0.89618 0.13017 0.05117 0.0
C2856 C 0.00971 0.24715 1.00386 0.0
C2857 C 0.99258 0.23484 0.01148 0.0
C2858 C 0.96827 0.19439 0.04415 0.0
C2859 C 0.91707 0.16201 0.04303 0.0
C2860 C 0.93562 0.17688 0.03789 0.0
C2861 C 0.98966 0.21884 0.02098 0.0
C2862 C 0.97098 0.20475 0.02724 0.0
H2863 H 0.87361 0.15396 0.04597 0.0
H2864 H 0.90437 0.17859 0.03933 0.0
H2865 H 0.94907 0.17272 0.0624 0.0
H2866 H 0.03278 0.22551 0.01761 0.0
H2867 H 0.00281 0.20371 0.03044 0.0
C2868 C 0.74583 0.76069 1.00009 0.0
C2869 C 0.74932 0.77867 1.00236 0.0
C2870 C 0.75819 0.75565 0.00701 0.0
C2871 C 0.79891 0.77079 0.03881 0.0
H2872 H 0.8067 0.73788 1.00631 0.0
C2873 C 0.85983 0.75785 0.04772 0.0
C2874 C 0.85554 0.73945 0.04715 0.0
C2875 C 0.84664 0.76265 0.04323 0.0
C2876 C 0.80457 0.74697 0.01561 0.0
H2877 H 0.76828 0.80542 0.01389 0.0
H2878 H 0.79018 0.79681 0.02557 0.0
H2879 H 0.78401 0.74612 0.99702 0.0
H2880 H 0.83357 0.71168 0.04177 0.0
H2881 H 0.81093 0.72017 0.03348 0.0
H2882 H 0.81997 0.77194 0.05708 0.0
C2883 C 0.7777 0.78644 0.01886 0.0
C2884 C 0.79148 0.75163 0.01036 0.0
C2885 C 0.76518 0.79141 0.01215 0.0
C2886 C 0.83765 0.72601 0.04202 0.0
C2887 C 0.82457 0.73085 0.03733 0.0
C2888 C 0.81217 0.76627 0.04394 0.0
C2889 C 0.7745 0.76855 0.0161 0.0
C2890 C 0.78839 0.76354 0.02193 0.0
C2891 C 0.82892 0.7492 0.03785 0.0
C2892 C 0.81506 0.75424 0.03242 0.0
H2893 H 0.73358 0.75056 0.99277 0.0
H2894 H 0.75502 0.74164 1.00505 0.0
H2895 H 0.79676 0.77981 0.04821 0.0
H2896 H 0.87343 0.76865 0.05136 0.0
H2897 H 0.85041 0.77694 0.04356 0.0
C2898 C 0.98053 0.2291 0.51386 0.0
C2899 C 0.96597 0.21103 0.51475 0.0
C2900 C -0.00251 0.23287 0.50667 0.0
C2901 C 0.02083 0.21271 0.47886 0.0
H2902 H 0.06358 0.24987 0.50581 0.0
C2903 C 0.09381 0.22341 0.46953 0.0
C2904 C 0.108 0.24163 0.46753 0.0
C2905 C 0.0761 0.21948 0.47413 0.0
C2906 C 0.05176 0.23956 0.49804 0.0
H2907 H 0.95763 0.18273 0.50874 0.0
H2908 H 0.98734 0.18923 0.49657 0.0
H2909 H 0.03337 0.24349 0.51581 0.0
H2910 H 0.11433 0.26994 0.46798 0.0
H2911 H 0.08368 0.26306 0.4764 0.0
H2912 H 0.03942 0.20856 0.46141 0.0
C2913 C 0.9856 0.20056 0.50097 0.0
C2914 C 0.03444 0.23595 0.5037 0.0
C2915 C 0.96858 0.19682 0.50798 0.0
C2916 C 0.10395 0.25577 0.46989 0.0
C2917 C 0.08633 0.25185 0.47463 0.0
C2918 C 0.03819 0.21621 0.47332 0.0
C2919 C 0.00033 0.21862 0.50045 0.0
C2920 C 0.01875 0.22253 0.49414 0.0
C2921 C 0.07227 0.2337 0.47695 0.0
C2922 C 0.05381 0.22973 0.48282 0.0
H2923 H 0.9788 0.24031 0.5188 0.0
H2924 H 0.0084 0.24697 0.50608 0.0
H2925 H 0.00906 0.20244 0.47102 0.0
H2926 H 0.09642 0.21218 0.46798 0.0
H2927 H 0.06551 0.20535 0.47598 0.0
C2928 C 0.7599 0.75022 0.49959 0.0
C2929 C 0.77777 0.75346 0.49728 0.0
C2930 C 0.75463 0.76185 0.49108 0.0
C2931 C 0.76873 0.79948 0.45517 0.0
H2932 H 0.73961 0.81239 0.48784 0.0
C2933 C 0.76217 0.86403 0.4445 0.0
C2934 C 0.74487 0.86215 0.44755 0.0
C2935 C 0.76511 0.84942 0.44812 0.0
C2936 C 0.74753 0.80875 0.47842 0.0
H2937 H 0.80404 0.77112 0.48397 0.0
H2938 H 0.79502 0.79172 0.46945 0.0
H2939 H 0.74658 0.78919 0.49861 0.0
H2940 H 0.71682 0.84301 0.45557 0.0
H2941 H 0.72203 0.81768 0.46216 0.0
H2942 H 0.77012 0.81965 0.4353 0.0
C2943 C 0.78492 0.77998 0.47745 0.0
C2944 C 0.75149 0.79539 0.48456 0.0
C2945 C 0.79012 0.76821 0.4858 0.0
C2946 C 0.73042 0.84511 0.45355 0.0
C2947 C 0.73337 0.83056 0.45726 0.0
C2948 C 0.76487 0.81299 0.4491 0.0
C2949 C 0.7672 0.77713 0.48028 0.0
C2950 C 0.76221 0.79064 0.47307 0.0
C2951 C 0.75081 0.83266 0.45492 0.0
C2952 C 0.75429 0.81779 0.46072 0.0
H2953 H 0.75006 0.73879 0.50819 0.0
H2954 H 0.74077 0.75901 0.4932 0.0
H2955 H 0.77682 0.79599 0.44585 0.0
H2956 H 0.77363 0.87698 0.44003 0.0
H2957 H 0.77873 0.85146 0.44635 0.0
C2958 C 0.19378 0.01297 0.53806 0.0
C2959 C 0.20911 0.025 0.52697 0.0
C2960 C 0.18089 0.9959 0.53073 0.0
C2961 C 0.16285 0.96832 0.4867 0.0
H2962 H 0.15619 0.92797 0.51912 0.0
C2963 C 0.13258 0.89506 0.45693 0.0
C2964 C 0.12238 0.88024 0.46936 0.0
C2965 C 0.14133 0.91295 0.464 0.0
C2966 C 0.15751 0.93898 0.51 0.0
H2967 H 0.22222 0.02876 0.49899 0.0
H2968 H 0.19939 -0.00079 0.48607 0.0
H2969 H 0.17381 0.95911 0.53113 0.0
H2970 H 0.11273 0.87245 0.49872 0.0
H2971 H 0.12745 0.90368 0.51105 0.0
H2972 H 0.14643 0.94827 0.4656 0.0
C2973 C 0.19749 0.00302 0.50049 0.0
C2974 C 0.16768 0.95686 0.5169 0.0
C2975 C 0.21053 0.02 0.5079 0.0
C2976 C 0.12076 0.88365 0.48892 0.0
C2977 C 0.12926 0.90156 0.49595 0.0
C2978 C 0.15241 0.9504 0.47989 0.0
C2979 C 0.18287 0.99062 0.51205 0.0
C2980 C 0.17066 0.9717 0.50523 0.0
C2981 C 0.13985 0.91646 0.48363 0.0
C2982 C 0.14984 0.93549 0.49133 0.0
H2983 H 0.19195 0.01652 0.55261 0.0
H2984 H 0.16957 0.98665 0.53983 0.0
H2985 H 0.16486 0.97956 0.47748 0.0
H2986 H 0.13419 0.89277 0.44183 0.0
H2987 H 0.14964 0.92397 0.45412 0.0
C2988 C 0.77436 0.01073 0.00815 0.0
C2989 C 0.79262 0.02486 0.00919 0.0
C2990 C 0.77002 0.99358 1.00102 0.0
C2991 C 0.78867 0.96323 0.99682 0.0
H2992 H 0.7479 0.93585 0.96205 0.0
C2993 C 0.76807 0.89026 0.97118 0.0
C2994 C 0.74927 0.87757 0.96974 0.0
C2995 C 0.77423 0.90878 0.97446 0.0
C2996 C 0.7592 0.94322 0.97193 0.0
H2997 H 0.82068 0.03232 1.00333 0.0
H2998 H 0.81308 0.0021 0.99099 0.0
H2999 H 0.75719 0.96747 0.96992 0.0
H3000 H 0.72227 0.87469 0.97066 0.0
H3001 H 0.73296 0.90666 0.97714 0.0
H3002 H 0.79033 0.93888 0.99944 0.0
C3003 C 0.80215 0.00438 0.99565 0.0
C3004 C 0.76457 0.96136 0.97633 0.0
C3005 C 0.80648 0.02166 1.00256 0.0
C3006 C 0.73682 0.8839 0.97186 0.0
C3007 C 0.74298 0.90237 0.97529 0.0
C3008 C 0.78319 0.94503 0.99257 0.0
C3009 C 0.78389 0.99014 0.99499 0.0
C3010 C 0.77922 0.97147 0.98899 0.0
C3011 C 0.76176 0.91507 0.97654 0.0
C3012 C 0.76824 0.93473 0.98026 0.0
H3013 H 0.76343 0.0129 0.01308 0.0
H3014 H 0.75585 0.98281 1.00083 0.0
H3015 H 0.79987 0.97066 0.00681 0.0
H3016 H 0.77809 0.88595 0.96986 0.0
H3017 H 0.7888 0.91818 0.97517 0.0
C3018 C 0.965 0.76644 0.01163 0.0
C3019 C 0.96204 0.75059 0.02142 0.0
C3020 C 0.9826 0.7797 1.00601 0.0
C3021 C 0.03087 0.79683 0.01809 0.0
H3022 H 0.04026 0.82114 0.96836 0.0
C3023 C 0.10396 0.84564 0.99085 0.0
C3024 C 0.10714 0.86137 0.98062 0.0
C3025 C 0.08622 0.83214 0.99567 0.0
C3026 C 0.03784 0.81465 0.98241 0.0
H3027 H 0.97514 0.73594 0.03235 0.0
H3028 H 0.00586 0.75907 0.02251 0.0
H3029 H 0.00932 0.79734 0.9766 0.0
H3030 H 0.09389 0.87513 0.96761 0.0
H3031 H 0.0631 0.85192 0.97658 0.0
H3032 H 0.05929 0.8142 0.02403 0.0
C3033 C 0.9946 0.76139 0.01948 0.0
C3034 C 0.02011 0.80098 0.9871 0.0
C3035 C 0.97702 0.74813 0.02509 0.0
C3036 C 0.09208 0.86333 0.97561 0.0
C3037 C 0.07434 0.84987 0.98053 0.0
C3038 C 0.04857 0.81053 0.01344 0.0
C3039 C -0.00237 0.77742 0.01007 0.0
C3040 C 0.01644 0.79189 1.00497 0.0
C3041 C 0.07118 0.83406 0.99053 0.0
C3042 C 0.05229 0.81959 0.99553 0.0
H3043 H 0.95379 0.76888 0.00884 0.0
H3044 H 0.98451 0.792 0.99899 0.0
H3045 H 0.02843 0.79031 0.03212 0.0
H3046 H 0.11516 0.8437 0.99522 0.0
H3047 H 0.08429 0.82006 1.00321 0.0
C3048 C 0.19247 0.16908 0.01882 0.0
C3049 C 0.21134 0.18144 0.01748 0.0
C3050 C 0.17988 0.17398 0.01214 0.0
C3051 C 0.1757 0.20772 0.98133 0.0
H3052 H 0.13521 0.19777 0.0152 0.0
C3053 C 0.13504 0.24538 0.97384 0.0
C3054 C 0.11596 0.23503 0.97584 0.0
C3055 C 0.14592 0.23769 0.97809 0.0
C3056 C 0.1463 0.20045 1.00546 0.0
H3057 H 0.23169 0.20867 0.00804 0.0
H3058 H 0.20986 0.21706 0.99633 0.0
H3059 H 0.15526 0.18571 0.02327 0.0
H3060 H 0.09342 0.2086 0.9843 0.0
H3061 H 0.1124 0.19512 0.99153 0.0
H3062 H 0.16694 0.22272 0.9637 0.0
C3063 C 0.20475 0.20347 1.00221 0.0
C3064 C 0.15776 0.1935 0.01005 0.0
C3065 C 0.21729 0.19861 0.00889 0.0
C3066 C 0.10805 0.21688 0.9824 0.0
C3067 C 0.11893 0.20921 0.98672 0.0
C3068 C 0.16427 0.21469 0.97676 0.0
C3069 C 0.1859 0.19133 1.00397 0.0
C3070 C 0.17274 0.19726 0.99817 0.0
C3071 C 0.13799 0.2195 0.9845 0.0
C3072 C 0.14959 0.21134 0.9889 0.0
H3073 H 0.18744 0.1557 0.02521 0.0
H3074 H 0.16543 0.16425 0.0135 0.0
H3075 H 0.18694 0.21061 0.97171 0.0
H3076 H 0.14157 0.25932 0.96864 0.0
H3077 H 0.16058 0.24606 0.97647 0.0
C3078 C 0.89144 0.76782 0.5443 0.0
C3079 C 0.87734 0.75689 0.53141 0.0
C3080 C 0.90949 0.77284 0.54004 0.0
C3081 C 0.93689 0.76046 0.50754 0.0
H3082 H 0.97693 0.80704 0.52487 0.0
C3083 C 0.01077 0.79296 0.47913 0.0
C3084 C 0.02369 0.79523 0.49334 0.0
C3085 C 0.99318 0.7888 0.48437 0.0
C3086 C 0.96582 0.79397 0.52007 0.0
H3087 H 0.87089 0.74307 0.50379 0.0
H3088 H 0.90247 0.75254 0.49572 0.0
H3089 H 0.94552 0.79902 0.53217 0.0
H3090 H 0.02818 0.79543 0.52432 0.0
H3091 H -0.00245 0.78899 0.53337 0.0
H3092 H 0.95738 0.75595 0.49467 0.0
C3093 C 0.89967 0.7567 0.50951 0.0
C3094 C 0.94783 0.78928 0.52431 0.0
C3095 C 0.88159 0.75136 0.514 0.0
C3096 C 0.01872 0.79397 0.51297 0.0
C3097 C 0.00118 0.79018 0.5182 0.0
C3098 C 0.95483 0.76535 0.50296 0.0
C3099 C 0.91388 0.76733 0.52258 0.0
C3100 C 0.9331 0.77243 0.5181 0.0
C3101 C 0.98825 0.78728 0.5039 0.0
C3102 C 0.9694 0.78211 0.5092 0.0
H3103 H 0.8884 0.77203 0.55794 0.0
H3104 H 0.91992 0.7807 0.55066 0.0
H3105 H 0.92604 0.74719 0.50291 0.0
H3106 H 0.01418 0.79438 0.4639 0.0
H3107 H 0.98341 0.78681 0.47314 0.0
C3108 C 0.24823 0.14571 0.56967 0.0
C3109 C 0.25008 0.13348 0.55739 0.0
C3110 C 0.24302 0.1578 0.56229 0.0
C3111 C 0.23963 0.17902 0.51674 0.0
H3112 H 0.20561 0.18747 0.54643 0.0
C3113 C 0.20414 0.21646 0.48534 0.0
C3114 C 0.20365 0.22979 0.49713 0.0
C3115 C 0.20991 0.20484 0.4928 0.0
C3116 C 0.21525 0.18537 0.53807 0.0
H3117 H 0.24791 0.12433 0.52773 0.0
H3118 H 0.23856 0.14527 0.5148 0.0
H3119 H 0.21563 0.16697 0.55905 0.0
H3120 H 0.20878 0.24124 0.52607 0.0
H3121 H 0.21863 0.22072 0.53917 0.0
H3122 H 0.239 0.19725 0.49564 0.0
C3123 C 0.24147 0.14576 0.53012 0.0
C3124 C 0.22103 0.17366 0.5453 0.0
C3125 C 0.24681 0.13374 0.5375 0.0
C3126 C 0.20879 0.231 0.51666 0.0
C3127 C 0.21447 0.21928 0.52415 0.0
C3128 C 0.23376 0.19064 0.50946 0.0
C3129 C 0.23941 0.15787 0.54245 0.0
C3130 C 0.23331 0.17036 0.53474 0.0
C3131 C 0.2152 0.20618 0.51225 0.0
C3132 C 0.22151 0.19393 0.52005 0.0
H3133 H 0.25097 0.14604 0.58501 0.0
H3134 H 0.24195 0.16719 0.57214 0.0
H3135 H 0.24932 0.17702 0.50837 0.0
H3136 H 0.19988 0.21486 0.47035 0.0
H3137 H 0.21004 0.19465 0.48338 0.0
C3138 C 0.78801 0.97751 0.50865 0.0
C3139 C 0.78301 0.97544 0.48905 0.0
C3140 C 0.80065 0.99475 0.51596 0.0
C3141 C 0.81757 0.0432 0.50502 0.0
H3142 H 0.85277 0.05234 0.54561 0.0
C3143 C 0.85305 0.1115 0.54571 0.0
C3144 C 0.87188 0.11941 0.54912 0.0
C3145 C 0.84287 0.09354 0.53908 0.0
C3146 C 0.84308 0.05001 0.53418 0.0
H3147 H 0.7883 0.98924 0.4614 0.0
H3148 H 0.8106 0.01918 0.47399 0.0
H3149 H 0.83504 0.02164 0.53186 0.0
H3150 H 0.89473 0.11454 0.54844 0.0
H3151 H 0.87696 0.08316 0.53674 0.0
H3152 H 0.8257 0.07149 0.50704 0.0
C3153 C 0.8044 0.00771 0.48388 0.0
C3154 C 0.83283 0.03241 0.52643 0.0
C3155 C 0.79171 0.99057 0.47664 0.0
C3156 C 0.88022 0.10879 0.54614 0.0
C3157 C 0.87004 0.09081 0.53945 0.0
C3158 C 0.82778 0.06072 0.51273 0.0
C3159 C 0.80855 0.01013 0.50373 0.0
C3160 C 0.81996 0.02882 0.51175 0.0
C3161 C 0.85128 0.08305 0.53563 0.0
C3162 C 0.84059 0.06434 0.52746 0.0
H3163 H 0.78141 0.96605 0.51852 0.0
H3164 H 0.8035 0.99616 0.53133 0.0
H3165 H 0.80757 0.04087 0.49395 0.0
H3166 H 0.84615 0.11918 0.54824 0.0
H3167 H 0.82837 0.08784 0.53666 0.0
C3168 C 0.86823 0.31284 0.31775 0.0
C3169 C 0.87416 0.30283 0.32878 0.0
C3170 C 0.87167 0.33 0.32388 0.0
C3171 C 0.87252 0.36178 0.34508 0.0
H3172 H 0.92178 0.3969 0.36122 0.0
C3173 C 0.89295 0.43495 0.36954 0.0
C3174 C 0.90946 0.44916 0.36208 0.0
C3175 C 0.8883 0.4167 0.36715 0.0
C3176 C 0.90797 0.38724 0.35671 0.0
H3177 H 0.88799 0.30269 0.3551 0.0
H3178 H 0.89412 0.33294 0.3659 0.0
H3179 H 0.91378 0.36535 0.35444 0.0
H3180 H 0.93387 0.45519 0.346 0.0
H3181 H 0.92577 0.42336 0.34189 0.0
H3182 H 0.86681 0.38372 0.34682 0.0
C3183 C 0.88687 0.32746 0.35243 0.0
C3184 C 0.90334 0.36914 0.35305 0.0
C3185 C 0.88327 0.31015 0.34634 0.0
C3186 C 0.92119 0.44464 0.35218 0.0
C3187 C 0.91657 0.42639 0.34984 0.0
C3188 C 0.87711 0.37983 0.34883 0.0
C3189 C 0.88118 0.33759 0.34117 0.0
C3190 C 0.88564 0.3563 0.3469 0.0
C3191 C 0.90006 0.41222 0.3573 0.0
C3192 C 0.89496 0.39282 0.35441 0.0
H3193 H 0.86096 0.30742 0.30427 0.0
H3194 H 0.86726 0.33752 0.3148 0.0
H3195 H 0.85872 0.35214 0.34052 0.0
H3196 H 0.88372 0.43787 0.37755 0.0
H3197 H 0.87559 0.40609 0.37326 0.0
C3198 C 0.55894 0.46309 0.39933 0.0
C3199 C 0.54395 0.45358 0.38692 0.0
C3200 C 0.57674 0.47095 0.3922 0.0
C3201 C 0.60247 0.48664 0.34619 0.0
H3202 H 0.64264 0.49189 0.37794 0.0
C3203 C 0.6756 0.52263 0.31718 0.0
C3204 C 0.68785 0.53753 0.32863 0.0
C3205 C 0.65877 0.50942 0.32463 0.0
C3206 C 0.63152 0.49045 0.36893 0.0
H3207 H 0.5357 0.44408 0.35759 0.0
H3208 H 0.56675 0.45729 0.34514 0.0
H3209 H 0.61135 0.47414 0.39 0.0
H3210 H 0.69254 0.54945 0.35734 0.0
H3211 H 0.66327 0.52614 0.37044 0.0
H3212 H 0.62264 0.50292 0.32515 0.0
C3213 C 0.56485 0.45924 0.36027 0.0
C3214 C 0.61361 0.4804 0.37584 0.0
C3215 C 0.54706 0.45163 0.36736 0.0
C3216 C 0.68349 0.5381 0.34816 0.0
C3217 C 0.66671 0.52478 0.35566 0.0
C3218 C 0.6203 0.49644 0.3392 0.0
C3219 C 0.57994 0.46925 0.37253 0.0
C3220 C 0.59887 0.47862 0.36468 0.0
C3221 C 0.65394 0.51071 0.34376 0.0
C3222 C 0.63502 0.49867 0.3506 0.0
H3223 H 0.55687 0.46492 0.41443 0.0
H3224 H 0.58795 0.47883 0.40202 0.0
H3225 H 0.59158 0.48593 0.33731 0.0
H3226 H 0.67872 0.52153 0.30221 0.0
H3227 H 0.64926 0.49853 0.31525 0.0
C3228 C 0.43247 0.12525 0.34663 0.0
C3229 C 0.41793 0.11352 0.33452 0.0
C3230 C 0.44603 0.12112 0.35159 0.0
C3231 C 0.46708 0.09496 0.33363 0.0
H3232 H 0.48898 0.10409 0.38465 0.0
C3233 C 0.5187 0.07238 0.35523 0.0
C3234 C 0.53373 0.08446 0.36657 0.0
C3235 C 0.5045 0.07589 0.35154 0.0
C3236 C 0.48314 0.10167 0.37027 0.0
H3237 H 0.40569 0.08779 0.31895 0.0
H3238 H 0.42929 0.08052 0.32769 0.0
H3239 H 0.46375 0.10969 0.37858 0.0
H3240 H 0.54564 0.1098 0.38286 0.0
H3241 H 0.52104 0.11612 0.3761 0.0
H3242 H 0.48649 0.08703 0.32526 0.0
C3243 C 0.43041 0.0931 0.33303 0.0
C3244 C 0.46867 0.10484 0.36681 0.0
C3245 C 0.41688 0.09724 0.32807 0.0
C3246 C 0.53436 0.10029 0.37392 0.0
C3247 C 0.52014 0.1038 0.37025 0.0
C3248 C 0.48154 0.0918 0.33708 0.0
C3249 C 0.44533 0.10517 0.34454 0.0
C3250 C 0.46047 0.1015 0.34845 0.0
C3251 C 0.50501 0.09158 0.3591 0.0
C3252 C 0.48973 0.09511 0.35544 0.0
H3253 H 0.43381 0.13802 0.35162 0.0
H3254 H 0.45743 0.13078 0.36032 0.0
H3255 H 0.46131 0.09259 0.31922 0.0
H3256 H 0.51788 0.06018 0.34916 0.0
H3257 H 0.49297 0.06613 0.34302 0.0
C3258 C 0.64444 0.52104 0.83381 0.0
C3259 C 0.64098 0.52277 0.85334 0.0
C3260 C 0.66216 0.52618 0.82771 0.0
C3261 C 0.70967 0.55719 0.8423 0.0
H3262 H 0.72163 0.53211 0.80302 0.0
C3263 C 0.78043 0.59024 0.80589 0.0
C3264 C 0.78819 0.57908 0.80304 0.0
C3265 C 0.76232 0.58267 0.81199 0.0
C3266 C 0.7185 0.53919 0.8141 0.0
H3267 H 0.65288 0.52973 0.88203 0.0
H3268 H 0.68366 0.53846 0.87146 0.0
H3269 H 0.69004 0.51895 0.81406 0.0
H3270 H 0.78303 0.55124 0.80482 0.0
H3271 H 0.75146 0.53807 0.8154 0.0
H3272 H 0.73805 0.57733 0.84252 0.0
C3273 C 0.67288 0.53366 0.86076 0.0
C3274 C 0.7004 0.53174 0.82028 0.0
C3275 C 0.65525 0.5286 0.86682 0.0
C3276 C 0.77742 0.56019 0.80655 0.0
C3277 C 0.75931 0.55263 0.81261 0.0
C3278 C 0.7277 0.56465 0.83608 0.0
C3279 C 0.67665 0.53305 0.84107 0.0
C3280 C 0.69581 0.54065 0.8345 0.0
C3281 C 0.75155 0.56377 0.81536 0.0
C3282 C 0.73233 0.55575 0.82191 0.0
H3283 H 0.63367 0.51665 0.82313 0.0
H3284 H 0.66465 0.52559 0.81243 0.0
H3285 H 0.70654 0.56454 0.85306 0.0
H3286 H 0.7882 0.60477 0.80305 0.0
H3287 H 0.75665 0.59159 0.81374 0.0
C3288 C 0.4044 0.19165 0.83215 0.0
C3289 C 0.40847 0.1995 0.81367 0.0
C3290 C 0.40869 0.17822 0.83709 0.0
C3291 C 0.43605 0.15702 0.82099 0.0
H3292 H 0.40415 0.11904 0.85683 0.0
C3293 C 0.43854 0.09073 0.84006 0.0
C3294 C 0.44286 0.09044 0.8597 0.0
C3295 C 0.43402 0.10359 0.83332 0.0
C3296 C 0.41309 0.12955 0.84675 0.0
H3297 H 0.41999 0.1995 0.78573 0.0
H3298 H 0.42683 0.17547 0.79394 0.0
H3299 H 0.3968 0.14233 0.84698 0.0
H3300 H 0.44616 0.10395 0.88745 0.0
H3301 H 0.43724 0.1255 0.87578 0.0
H3302 H 0.45195 0.14362 0.82048 0.0
C3303 C 0.42092 0.18005 0.80495 0.0
C3304 C 0.40905 0.14303 0.84125 0.0
C3305 C 0.41697 0.19378 0.80018 0.0
C3306 C 0.4424 0.10327 0.87239 0.0
C3307 C 0.43748 0.11578 0.86572 0.0
C3308 C 0.43986 0.14327 0.8262 0.0
C3309 C 0.41676 0.17201 0.82346 0.0
C3310 C 0.42064 0.15715 0.82855 0.0
C3311 C 0.43336 0.11609 0.84616 0.0
C3312 C 0.42853 0.12963 0.83932 0.0
H3313 H 0.398 0.19603 0.84281 0.0
H3314 H 0.40572 0.17277 0.85165 0.0
H3315 H 0.44547 0.16776 0.81143 0.0
H3316 H 0.43851 0.08097 0.82989 0.0
H3317 H 0.4308 0.10362 0.81815 0.0
C3318 C 0.80014 0.24101 0.78718 0.0
C3319 C 0.80183 0.22542 0.78999 0.0
C3320 C 0.81486 0.2585 0.79088 0.0
C3321 C 0.85598 0.28159 0.82058 0.0
H3322 H 0.86995 0.32289 0.78639 0.0
C3323 C 0.91763 0.35187 0.83843 0.0
C3324 C 0.91577 0.36723 0.83498 0.0
C3325 C 0.90487 0.33478 0.83103 0.0
C3326 C 0.86611 0.31155 0.7962 0.0
H3327 H 0.82084 0.21627 0.79793 0.0
H3328 H 0.84622 0.24663 0.80477 0.0
H3329 H 0.84515 0.29267 0.77708 0.0
H3330 H 0.89928 0.37688 0.82088 0.0
H3331 H 0.87673 0.34701 0.80834 0.0
H3332 H 0.87636 0.30033 0.84003 0.0
C3333 C 0.83341 0.24526 0.79992 0.0
C3334 C 0.85194 0.29425 0.79082 0.0
C3335 C 0.81878 0.22783 0.79607 0.0
C3336 C 0.90117 0.36529 0.82355 0.0
C3337 C 0.88827 0.34815 0.81634 0.0
C3338 C 0.86998 0.29887 0.82606 0.0
C3339 C 0.83155 0.26076 0.7976 0.0
C3340 C 0.84675 0.2791 0.80297 0.0
C3341 C 0.88978 0.33261 0.82024 0.0
C3342 C 0.87525 0.31411 0.81396 0.0
H3343 H 0.7873 0.23973 0.78267 0.0
H3344 H 0.81301 0.27021 0.7891 0.0
H3345 H 0.85207 0.27021 0.83038 0.0
H3346 H 0.92887 0.35305 0.84705 0.0
H3347 H 0.90674 0.32323 0.83396 0.0
C3348 C 0.41142 0.21579 0.33433 0.0
C3349 C 0.41588 0.21222 0.31593 0.0
C3350 C 0.41715 0.23372 0.34004 0.0
C3351 C 0.44917 0.28241 0.32635 0.0
H3352 H 0.41783 0.29127 0.36019 0.0
C3353 C 0.45577 0.35336 0.34149 0.0
C3354 C 0.45731 0.35803 0.36123 0.0
C3355 C 0.45154 0.33578 0.3358 0.0
C3356 C 0.4267 0.28892 0.35078 0.0
H3357 H 0.42942 0.22432 0.2889 0.0
H3358 H 0.43873 0.25555 0.29837 0.0
H3359 H 0.40849 0.2601 0.3504 0.0
H3360 H 0.45631 0.34786 0.39039 0.0
H3361 H 0.44801 0.31703 0.38036 0.0
H3362 H 0.46694 0.31151 0.32621 0.0
C3363 C 0.43147 0.24472 0.30879 0.0
C3364 C 0.42147 0.27107 0.34527 0.0
C3365 C 0.42607 0.22682 0.30328 0.0
C3366 C 0.45473 0.34471 0.37509 0.0
C3367 C 0.45014 0.32707 0.3694 0.0
C3368 C 0.45419 0.3003 0.33154 0.0
C3369 C 0.4271 0.24844 0.32727 0.0
C3370 C 0.43268 0.26753 0.33307 0.0
C3371 C 0.44844 0.32247 0.34974 0.0
C3372 C 0.44304 0.30365 0.34388 0.0
H3373 H 0.40369 0.20469 0.34435 0.0
H3374 H 0.41385 0.23601 0.35452 0.0
H3375 H 0.45836 0.28027 0.31726 0.0
H3376 H 0.45742 0.36312 0.33039 0.0
H3377 H 0.4502 0.33243 0.32054 0.0
C3378 C 0.7673 0.19755 0.29236 0.0
C3379 C 0.78209 0.19759 0.30171 0.0
C3380 C 0.7494 0.18361 0.29587 0.0
C3381 C 0.72263 0.13632 0.31427 0.0
H3382 H 0.68484 0.14886 0.3224 0.0
C3383 C 0.65301 0.08681 0.34888 0.0
C3384 C 0.63742 0.08709 0.3423 0.0
C3385 C 0.6703 0.09933 0.3418 0.0
C3386 C 0.69514 0.14507 0.31984 0.0
H3387 H 0.78954 0.18312 0.3224 0.0
H3388 H 0.75836 0.15881 0.32847 0.0
H3389 H 0.71574 0.17281 0.31445 0.0
H3390 H 0.62774 0.10043 0.32265 0.0
H3391 H 0.65791 0.12206 0.30997 0.0
H3392 H 0.70207 0.1086 0.31986 0.0
C3393 C 0.76065 0.16941 0.31817 0.0
C3394 C 0.71287 0.15881 0.31532 0.0
C3395 C 0.77853 0.18337 0.3147 0.0
C3396 C 0.63945 0.09974 0.32792 0.0
C3397 C 0.65676 0.11229 0.32083 0.0
C3398 C 0.70488 0.12257 0.31875 0.0
C3399 C 0.74588 0.16936 0.30879 0.0
C3400 C 0.72686 0.15463 0.3127 0.0
C3401 C 0.67242 0.11245 0.32795 0.0
C3402 C 0.69097 0.12681 0.32179 0.0
H3403 H 0.76953 0.20811 0.28205 0.0
H3404 H 0.73833 0.18384 0.28824 0.0
H3405 H 0.73304 0.13262 0.31201 0.0
H3406 H 0.65188 0.0771 0.3598 0.0
H3407 H 0.68206 0.09915 0.34771 0.0
C3408 C 0.7978 0.5678 0.28481 0.0
C3409 C 0.79739 0.58346 0.29097 0.0
C3410 C 0.81241 0.56528 0.28968 0.0
C3411 C 0.84925 0.57887 0.32525 0.0
H3412 H 0.86905 0.55974 0.28717 0.0
C3413 C 0.91039 0.56896 0.3428 0.0
C3414 C 0.90896 0.55244 0.33661 0.0
C3415 C 0.89814 0.57427 0.33609 0.0
C3416 C 0.86359 0.56496 0.29801 0.0
H3417 H 0.81227 0.60886 0.30697 0.0
H3418 H 0.83769 0.60434 0.31564 0.0
H3419 H 0.84489 0.56602 0.27789 0.0
H3420 H 0.8937 0.52865 0.31836 0.0
H3421 H 0.8723 0.53785 0.30673 0.0
H3422 H 0.86766 0.57749 0.34547 0.0
C3423 C 0.82657 0.59395 0.30715 0.0
C3424 C 0.84975 0.56856 0.29269 0.0
C3425 C 0.81197 0.59652 0.30221 0.0
C3426 C 0.89534 0.54159 0.32317 0.0
C3427 C 0.88306 0.54687 0.31651 0.0
C3428 C 0.86304 0.57521 0.33059 0.0
C3429 C 0.82696 0.57832 0.3009 0.0
C3430 C 0.8423 0.57538 0.3063 0.0
C3431 C 0.88415 0.56315 0.3231 0.0
C3432 C 0.87026 0.56805 0.31708 0.0
H3433 H 0.78669 0.55729 0.27645 0.0
H3434 H 0.81214 0.55292 0.28495 0.0
H3435 H 0.84364 0.58391 0.33612 0.0
H3436 H 0.9209 0.57773 0.35296 0.0
H3437 H 0.89957 0.58705 0.34119 0.0
C3438 C 0.5503 0.08115 0.88017 0.0
C3439 C 0.54198 0.09196 0.87966 0.0
C3440 C 0.56879 0.08871 0.87566 0.0
C3441 C 0.6067 0.12672 0.84974 0.0
H3442 H 0.63669 0.11448 0.88181 0.0
C3443 C 0.68366 0.15614 0.83456 0.0
C3444 C 0.68938 0.14313 0.83488 0.0
C3445 C 0.66651 0.15176 0.84191 0.0
C3446 C 0.62848 0.11797 0.87266 0.0
H3447 H 0.54641 0.11905 0.87351 0.0
H3448 H 0.57874 0.13229 0.86569 0.0
H3449 H 0.60472 0.10269 0.8902 0.0
H3450 H 0.68216 0.11578 0.84407 0.0
H3451 H 0.65231 0.10807 0.85655 0.0
H3452 H 0.63034 0.14163 0.83192 0.0
C3453 C 0.57095 0.11797 0.8696 0.0
C3454 C 0.61017 0.11119 0.87745 0.0
C3455 C 0.55248 0.11043 0.87423 0.0
C3456 C 0.67801 0.126 0.84341 0.0
C3457 C 0.66097 0.12166 0.85076 0.0
C3458 C 0.62502 0.13345 0.84489 0.0
C3459 C 0.57933 0.10723 0.87043 0.0
C3460 C 0.59901 0.11526 0.86588 0.0
C3461 C 0.65487 0.13435 0.84983 0.0
C3462 C 0.63603 0.1289 0.85612 0.0
H3463 H 0.54263 0.06694 0.88447 0.0
H3464 H 0.57483 0.08004 0.87619 0.0
H3465 H 0.59839 0.12999 0.84047 0.0
H3466 H 0.69214 0.16942 0.82803 0.0
H3467 H 0.66227 0.1619 0.84118 0.0
C3468 C 0.8927 0.58116 0.8406 0.0
C3469 C 0.88365 0.57887 0.82288 0.0
C3470 C 0.89639 0.56771 0.84732 0.0
C3471 C 0.91256 0.54235 0.84996 0.0
H3472 H 0.87555 0.49116 0.84539 0.0
C3473 C 0.9293 0.48414 0.85327 0.0
C3474 C 0.9175 0.46842 0.86394 0.0
C3475 C 0.92488 0.49776 0.8499 0.0
C3476 C 0.88597 0.50539 0.84694 0.0
H3477 H 0.87085 0.5605 0.79865 0.0
H3478 H 0.87739 0.53717 0.81028 0.0
H3479 H 0.86802 0.5147 0.8371 0.0
H3480 H 0.89179 0.45484 0.87955 0.0
H3481 H 0.88396 0.4785 0.8734 0.0
H3482 H 0.93057 0.53302 0.85963 0.0
C3483 C 0.88164 0.54931 0.81898 0.0
C3484 C 0.88171 0.51885 0.84204 0.0
C3485 C 0.8781 0.56277 0.81221 0.0
C3486 C 0.90108 0.4666 0.87103 0.0
C3487 C 0.89661 0.4802 0.86758 0.0
C3488 C 0.91687 0.52888 0.85474 0.0
C3489 C 0.89087 0.55165 0.83656 0.0
C3490 C 0.89502 0.53746 0.84326 0.0
C3491 C 0.90849 0.49594 0.85703 0.0
C3492 C 0.90367 0.51026 0.85305 0.0
H3493 H 0.89712 0.59345 0.8491 0.0
H3494 H 0.90344 0.5698 0.86098 0.0
H3495 H 0.92312 0.55659 0.85093 0.0
H3496 H 0.94189 0.48587 0.84729 0.0
H3497 H 0.93414 0.50959 0.84141 0.0
C3498 C 0.42874 0.30308 0.85263 0.0
C3499 C 0.41363 0.30087 0.84197 0.0
C3500 C 0.44173 0.32029 0.85957 0.0
C3501 C 0.45915 0.36948 0.85053 0.0
H3502 H 0.48434 0.37564 0.89925 0.0
C3503 C 0.50986 0.44054 0.88108 0.0
C3504 C 0.52675 0.44303 0.8875 0.0
C3505 C 0.49541 0.4231 0.87686 0.0
C3506 C 0.47747 0.37408 0.88557 0.0
H3507 H 0.39982 0.31475 0.8309 0.0
H3508 H 0.42222 0.34473 0.84339 0.0
H3509 H 0.45987 0.34533 0.88975 0.0
H3510 H 0.54142 0.42885 0.89483 0.0
H3511 H 0.51606 0.39838 0.88772 0.0
H3512 H 0.47668 0.39824 0.84642 0.0
C3513 C 0.42435 0.33329 0.84597 0.0
C3514 C 0.46348 0.35673 0.88009 0.0
C3515 C 0.41147 0.31611 0.83888 0.0
C3516 C 0.52861 0.42751 0.89012 0.0
C3517 C 0.51408 0.41002 0.88602 0.0
C3518 C 0.473 0.38681 0.85608 0.0
C3519 C 0.43981 0.33567 0.85613 0.0
C3520 C 0.45421 0.35419 0.86244 0.0
C3521 C 0.49742 0.40768 0.8791 0.0
C3522 C 0.48237 0.38929 0.8736 0.0
H3523 H 0.43089 0.29161 0.85501 0.0
H3524 H 0.45358 0.32163 0.86707 0.0
H3525 H 0.45261 0.36802 0.83665 0.0
H3526 H 0.50772 0.45206 0.87931 0.0
H3527 H 0.48262 0.42167 0.87185 0.0
C3528 C 0.52497 0.64844 0.67603 0.0
C3529 C 0.53806 0.64453 0.66848 0.0
C3530 C 0.53023 0.66594 0.68297 0.0
C3531 C 0.56776 0.71376 0.67838 0.0
H3532 H 0.54485 0.72207 0.72282 0.0
C3533 C 0.59469 0.78526 0.71101 0.0
C3534 C 0.58167 0.79055 0.71497 0.0
C3535 C 0.58922 0.76716 0.70641 0.0
C3536 C 0.55126 0.71992 0.71031 0.0
H3537 H 0.56691 0.65545 0.66309 0.0
H3538 H 0.57617 0.68584 0.67557 0.0
H3539 H 0.53571 0.69079 0.71319 0.0
H3540 H 0.55263 0.78073 0.71743 0.0
H3541 H 0.54312 0.74904 0.70961 0.0
H3542 H 0.58339 0.74285 0.67558 0.0
C3543 C 0.56179 0.67562 0.67564 0.0
C3544 C 0.54602 0.70203 0.70477 0.0
C3545 C 0.55653 0.65821 0.66857 0.0
C3546 C 0.56304 0.77715 0.71466 0.0
C3547 C 0.55757 0.75898 0.71017 0.0
C3548 C 0.57307 0.73159 0.68399 0.0
C3549 C 0.54868 0.67981 0.6826 0.0
C3550 C 0.55424 0.69875 0.68874 0.0
C3551 C 0.57062 0.75387 0.70578 0.0
C3552 C 0.5649 0.73486 0.70001 0.0
H3553 H 0.51062 0.63816 0.67596 0.0
H3554 H 0.51975 0.66875 0.68802 0.0
H3555 H 0.57408 0.71176 0.6657 0.0
H3556 H 0.60915 0.79505 0.71154 0.0
H3557 H 0.59959 0.76353 0.70341 0.0
C3558 C 0.35992 0.91282 0.68917 0.0
C3559 C 0.36448 0.91344 0.66954 0.0
C3560 C 0.34242 0.90005 0.69571 0.0
C3561 C 0.29523 0.87109 0.67789 0.0
H3562 H 0.28778 0.84562 0.72664 0.0
C3563 C 0.22507 0.8108 0.70127 0.0
C3564 C 0.22026 0.81006 0.72085 0.0
C3565 C 0.2426 0.82365 0.69494 0.0
C3566 C 0.28962 0.85278 0.71308 0.0
H3567 H 0.35463 0.90054 0.64158 0.0
H3568 H 0.32427 0.8783 0.65297 0.0
H3569 H 0.31873 0.8674 0.71608 0.0
H3570 H 0.22982 0.82281 0.74891 0.0
H3571 H 0.26027 0.84517 0.73789 0.0
H3572 H 0.26613 0.85646 0.67488 0.0
C3573 C 0.33399 0.88795 0.66324 0.0
C3574 C 0.30736 0.86525 0.70705 0.0
C3575 C 0.3514 0.90068 0.65672 0.0
C3576 C 0.2332 0.82274 0.73382 0.0
C3577 C 0.25067 0.83556 0.72751 0.0
C3578 C 0.2775 0.85861 0.68393 0.0
C3579 C 0.32919 0.88763 0.68275 0.0
C3580 C 0.31036 0.87452 0.68936 0.0
C3581 C 0.25566 0.83605 0.70805 0.0
C3582 C 0.27449 0.84931 0.70159 0.0
H3583 H 0.36969 0.92254 0.69935 0.0
H3584 H 0.33911 0.90023 0.71082 0.0
H3585 H 0.29706 0.87823 0.66434 0.0
H3586 H 0.21548 0.80112 0.69096 0.0
H3587 H 0.24607 0.82357 0.67987 0.0
C3588 C 0.10843 0.46032 0.65094 0.0
C3589 C 0.09781 0.46538 0.66221 0.0
C3590 C 0.11949 0.4545 0.65968 0.0
C3591 C 0.14458 0.45661 0.703 0.0
H3592 H 0.13829 0.41043 0.68455 0.0
C3593 C 0.18582 0.42445 0.73429 0.0
C3594 C 0.19177 0.41602 0.7209 0.0
C3595 C 0.17352 0.43011 0.7287 0.0
C3596 C 0.14039 0.42344 0.68973 0.0
H3597 H 0.09117 0.469 0.69162 0.0
H3598 H 0.11107 0.45927 0.70691 0.0
H3599 H 0.11897 0.42176 0.67182 0.0
H3600 H 0.18997 0.40743 0.69106 0.0
H3601 H 0.16892 0.41757 0.68118 0.0
H3602 H 0.16649 0.45867 0.72038 0.0
C3603 C 0.11054 0.45967 0.69127 0.0
C3604 C 0.12925 0.42986 0.6825 0.0
C3605 C 0.09922 0.46529 0.6825 0.0
C3606 C 0.18531 0.41351 0.70181 0.0
C3607 C 0.1732 0.41931 0.69617 0.0
C3608 C 0.15594 0.45029 0.71009 0.0
C3609 C 0.12045 0.45386 0.6799 0.0
C3610 C 0.13142 0.44662 0.68883 0.0
C3611 C 0.16706 0.4276 0.70954 0.0
C3612 C 0.15417 0.43376 0.70328 0.0
H3613 H 0.10814 0.46073 0.63529 0.0
H3614 H 0.1273 0.45044 0.6506 0.0
H3615 H 0.14653 0.46961 0.70804 0.0
H3616 H 0.1905 0.42643 0.74914 0.0
H3617 H 0.16892 0.43626 0.73943 0.0
C3618 C 0.30599 0.8711 0.16496 0.0
C3619 C 0.303 0.86984 0.18509 0.0
C3620 C 0.32306 0.87545 0.15745 0.0
C3621 C 0.37131 0.89963 0.16949 0.0
H3622 H 0.37663 0.86919 0.13103 0.0
C3623 C 0.44182 0.90989 0.15024 0.0
C3624 C 0.44526 0.90703 0.13107 0.0
C3625 C 0.42423 0.90528 0.15605 0.0
C3626 C 0.3754 0.87804 0.14151 0.0
H3627 H 0.31563 0.87151 0.21299 0.0
H3628 H 0.34546 0.87981 0.19985 0.0
H3629 H 0.34618 0.86144 0.14222 0.0
H3630 H 0.43312 0.89726 0.10289 0.0
H3631 H 0.40239 0.88972 0.1128 0.0
H3632 H 0.40031 0.91652 0.16859 0.0
C3633 C 0.33457 0.8775 0.18996 0.0
C3634 C 0.35796 0.87353 0.14796 0.0
C3635 C 0.31748 0.87287 0.19746 0.0
C3636 C 0.43076 0.89944 0.1178 0.0
C3637 C 0.41317 0.89507 0.12353 0.0
C3638 C 0.38869 0.90431 0.16285 0.0
C3639 C 0.33753 0.87889 0.16992 0.0
C3640 C 0.35581 0.88415 0.1622 0.0
C3641 C 0.40968 0.89797 0.14274 0.0
C3642 C 0.39102 0.89343 0.149 0.0
H3643 H 0.29526 0.86907 0.15499 0.0
H3644 H 0.32508 0.87655 0.14193 0.0
H3645 H 0.36996 0.90817 0.1803 0.0
H3646 H 0.45271 0.91542 0.16083 0.0
H3647 H 0.42204 0.90727 0.17107 0.0
C3648 C 0.07941 0.5139 0.11434 0.0
C3649 C 0.07995 0.52833 0.12498 0.0
C3650 C 0.08712 0.50394 0.1217 0.0
C3651 C 0.10248 0.49224 0.16654 0.0
H3652 H 0.13074 0.48049 0.13113 0.0
C3653 C 0.14134 0.45652 0.19269 0.0
C3654 C 0.13926 0.44175 0.18139 0.0
C3655 C 0.13576 0.46844 0.18567 0.0
C3656 C 0.12279 0.48355 0.14116 0.0
H3657 H 0.08858 0.5433 0.15199 0.0
H3658 H 0.10209 0.5258 0.16499 0.0
H3659 H 0.11707 0.49826 0.11972 0.0
H3660 H 0.13033 0.42832 0.15358 0.0
H3661 H 0.12058 0.44917 0.14125 0.0
H3662 H 0.10803 0.47737 0.18794 0.0
C3663 C 0.0956 0.52218 0.15092 0.0
C3664 C 0.11494 0.49371 0.13463 0.0
C3665 C 0.08783 0.53217 0.14352 0.0
C3666 C 0.13227 0.43967 0.16255 0.0
C3667 C 0.12666 0.45161 0.15551 0.0
C3668 C 0.11033 0.48207 0.17308 0.0
C3669 C 0.09559 0.50815 0.13993 0.0
C3670 C 0.10454 0.49801 0.14719 0.0
C3671 C 0.12797 0.46588 0.16716 0.0
C3672 C 0.12045 0.47749 0.16042 0.0
H3673 H 0.07307 0.51034 0.1002 0.0
H3674 H 0.08646 0.49291 0.11308 0.0
H3675 H 0.09438 0.49516 0.17652 0.0
H3676 H 0.14697 0.45864 0.20716 0.0
H3677 H 0.13732 0.47953 0.19483 0.0
C3678 C 0.56146 0.67586 0.19686 0.0
C3679 C 0.57119 0.6903 0.18377 0.0
C3680 C 0.54881 0.65843 0.19025 0.0
C3681 C 0.5189 0.63334 0.14963 0.0
H3682 H 0.52017 0.59196 0.17229 0.0
C3683 C 0.48433 0.55036 0.13809 0.0
C3684 C 0.46569 0.54505 0.13712 0.0
C3685 C 0.49744 0.56831 0.14277 0.0
C3686 C 0.51971 0.60337 0.16572 0.0
H3687 H 0.57486 0.69772 0.15338 0.0
H3688 H 0.55241 0.66717 0.14183 0.0
H3689 H 0.54269 0.62293 0.18211 0.0
H3690 H 0.44641 0.55474 0.1404 0.0
H3691 H 0.46934 0.58608 0.14834 0.0
H3692 H 0.49581 0.61369 0.13331 0.0
C3693 C 0.55473 0.66947 0.15725 0.0
C3694 C 0.53251 0.62109 0.17147 0.0
C3695 C 0.56755 0.68695 0.16387 0.0
C3696 C 0.46059 0.5583 0.14075 0.0
C3697 C 0.47375 0.5763 0.1453 0.0
C3698 C 0.50596 0.61557 0.144 0.0
C3699 C 0.54539 0.65499 0.17039 0.0
C3700 C 0.53218 0.63627 0.16358 0.0
C3701 C 0.4923 0.58147 0.14648 0.0
C3702 C 0.50621 0.60039 0.15204 0.0
H3703 H 0.56348 0.67801 0.21232 0.0
H3704 H 0.54155 0.64765 0.20075 0.0
H3705 H 0.51827 0.64478 0.14339 0.0
H3706 H 0.48891 0.54075 0.13502 0.0
H3707 H 0.51167 0.57195 0.14331 0.0
C3708 C 0.14658 0.68433 0.69071 0.0
C3709 C 0.15368 0.70014 0.67919 0.0
C3710 C 0.14181 0.66743 0.68255 0.0
C3711 C 0.12841 0.64284 0.63601 0.0
H3712 H 0.13261 0.606 0.66541 0.0
C3713 C 0.1044 0.56941 0.60759 0.0
C3714 C 0.09349 0.55532 0.62059 0.0
C3715 C 0.11346 0.58766 0.61365 0.0
C3716 C 0.13133 0.61615 0.65706 0.0
H3717 H 0.16187 0.71066 0.65011 0.0
H3718 H 0.15378 0.68104 0.63579 0.0
H3719 H 0.14658 0.63717 0.67773 0.0
H3720 H 0.08373 0.54926 0.65015 0.0
H3721 H 0.09959 0.58109 0.66075 0.0
H3722 H 0.11312 0.62166 0.61534 0.0
C3723 C 0.15164 0.68173 0.65114 0.0
C3724 C 0.13929 0.634 0.66411 0.0
C3725 C 0.15635 0.6987 0.65933 0.0
C3726 C 0.09187 0.55983 0.63976 0.0
C3727 C 0.1011 0.57802 0.64588 0.0
C3728 C 0.1206 0.62499 0.62885 0.0
C3729 C 0.14407 0.66584 0.66263 0.0
C3730 C 0.13756 0.64748 0.65392 0.0
C3731 C 0.112 0.59212 0.6329 0.0
C3732 C 0.12164 0.61139 0.63953 0.0
H3733 H 0.14392 0.68484 0.70596 0.0
H3734 H 0.13566 0.65548 0.69179 0.0
H3735 H 0.12661 0.65278 0.62787 0.0
H3736 H 0.10579 0.56631 0.59271 0.0
H3737 H 0.12181 0.59827 0.60337 0.0
C3738 C 0.30232 0.45175 0.66904 0.0
C3739 C 0.30011 0.44507 0.68806 0.0
C3740 C 0.31955 0.46514 0.66243 0.0
C3741 C 0.36784 0.48162 0.67207 0.0
H3742 H 0.3773 0.52382 0.64126 0.0
C3743 C 0.44098 0.53772 0.65501 0.0
C3744 C 0.44474 0.54516 0.63629 0.0
C3745 C 0.42301 0.52633 0.66102 0.0
C3746 C 0.37483 0.51198 0.64967 0.0
H3747 H 0.31386 0.44816 0.71547 0.0
H3748 H 0.3438 0.47133 0.70393 0.0
H3749 H 0.34618 0.5026 0.65225 0.0
H3750 H 0.43261 0.54665 0.60924 0.0
H3751 H 0.40112 0.52648 0.61963 0.0
H3752 H 0.39625 0.49064 0.66936 0.0
C3753 C 0.33236 0.46596 0.694 0.0
C3754 C 0.35704 0.49988 0.65597 0.0
C3755 C 0.31522 0.45269 0.70059 0.0
C3756 C 0.4301 0.54123 0.6238 0.0
C3757 C 0.41208 0.5297 0.62978 0.0
C3758 C 0.38553 0.49359 0.6657 0.0
C3759 C 0.33481 0.47201 0.67474 0.0
C3760 C 0.35344 0.4847 0.66743 0.0
C3761 C 0.40834 0.52197 0.6484 0.0
C3762 C 0.38931 0.50904 0.65461 0.0
H3763 H 0.29093 0.44609 0.65905 0.0
H3764 H 0.32107 0.46954 0.64749 0.0
H3765 H 0.3654 0.4698 0.68053 0.0
H3766 H 0.45195 0.54081 0.66508 0.0
H3767 H 0.42062 0.52096 0.67562 0.0
C3768 C 0.57413 0.90036 0.67651 0.0
C3769 C 0.57011 0.8821 0.67732 0.0
C3770 C 0.56152 0.90472 0.6688 0.0
C3771 C 0.5126 0.88547 0.66126 0.0
H3772 H 0.52752 0.92706 0.62721 0.0
C3773 C 0.46079 0.905 0.63169 0.0
C3774 C 0.46643 0.92374 0.63125 0.0
C3775 C 0.47333 0.89917 0.63536 0.0
C3776 C 0.52316 0.9155 0.63686 0.0
H3777 H 0.5498 0.85408 0.67061 0.0
H3778 H 0.52766 0.86171 0.65719 0.0
H3779 H 0.54977 0.91829 0.63716 0.0
H3780 H 0.48998 0.95103 0.63381 0.0
H3781 H 0.51158 0.9409 0.64091 0.0
H3782 H 0.48617 0.88297 0.66153 0.0
C3783 C 0.54061 0.87263 0.6625 0.0
C3784 C 0.53589 0.91046 0.64249 0.0
C3785 C 0.55331 0.86829 0.67003 0.0
C3786 C 0.485 0.93649 0.63432 0.0
C3787 C 0.4975 0.93067 0.63811 0.0
C3788 C 0.4999 0.8906 0.65577 0.0
C3789 C 0.54455 0.89089 0.66192 0.0
C3790 C 0.53079 0.8955 0.6549 0.0
C3791 C 0.49182 0.91194 0.63879 0.0
C3792 C 0.50506 0.90581 0.64367 0.0
H3793 H 0.58703 0.91128 0.68191 0.0
H3794 H 0.56487 0.91889 0.6687 0.0
H3795 H 0.50834 0.87401 0.67103 0.0
H3796 H 0.44662 0.89475 0.62954 0.0
H3797 H 0.46851 0.88464 0.63553 0.0
C3798 C 0.22448 0.41067 0.19835 0.0
C3799 C 0.22057 0.41225 0.21774 0.0
C3800 C 0.24193 0.41442 0.19293 0.0
C3801 C 0.29018 0.43721 0.21025 0.0
H3802 H 0.29536 0.41103 0.16688 0.0
C3803 C 0.35873 0.44281 0.18416 0.0
C3804 C 0.3626 0.44787 0.16455 0.0
C3805 C 0.34162 0.43801 0.19199 0.0
C3806 C 0.29407 0.41839 0.17905 0.0
H3807 H 0.23162 0.41862 0.24674 0.0
H3808 H 0.26196 0.4245 0.23751 0.0
H3809 H 0.26496 0.4029 0.17826 0.0
H3810 H 0.35149 0.45257 0.13818 0.0
H3811 H 0.32159 0.44331 0.15164 0.0
H3812 H 0.3195 0.45236 0.21114 0.0
C3813 C 0.25178 0.42094 0.22631 0.0
C3814 C 0.27666 0.41389 0.18549 0.0
C3815 C 0.23439 0.4175 0.23166 0.0
C3816 C 0.34896 0.44818 0.15312 0.0
C3817 C 0.33182 0.44303 0.16084 0.0
C3818 C 0.30761 0.44147 0.20401 0.0
C3819 C 0.25583 0.4195 0.20684 0.0
C3820 C 0.27444 0.42348 0.20093 0.0
C3821 C 0.32798 0.43786 0.1803 0.0
C3822 C 0.30967 0.43231 0.18814 0.0
H3823 H 0.21413 0.40692 0.18731 0.0
H3824 H 0.24454 0.41361 0.17774 0.0
H3825 H 0.2891 0.44509 0.222 0.0
H3826 H 0.36877 0.44224 0.19339 0.0
H3827 H 0.3389 0.43403 0.20706 0.0
C3828 C 0.58609 0.80682 0.22145 0.0
C3829 C 0.57469 0.7879 0.22414 0.0
C3830 C 0.57869 0.81801 0.21754 0.0
C3831 C 0.53728 0.8159 0.19763 0.0
H3832 H 0.5603 0.86597 0.21589 0.0
C3833 C 0.52728 0.87075 0.15983 0.0
C3834 C 0.52693 0.88451 0.17094 0.0
C3835 C 0.53086 0.85795 0.16847 0.0
C3836 C 0.55351 0.85194 0.21089 0.0
H3837 H 0.54645 0.76604 0.22525 0.0
H3838 H 0.53354 0.78562 0.21891 0.0
H3839 H 0.57085 0.84572 0.2279 0.0
H3840 H 0.5295 0.89526 0.19997 0.0
H3841 H 0.53547 0.87262 0.21518 0.0
H3842 H 0.5199 0.82209 0.18068 0.0
C3843 C 0.54825 0.79175 0.21952 0.0
C3844 C 0.55973 0.84039 0.21758 0.0
C3845 C 0.55566 0.78054 0.22337 0.0
C3846 C 0.52962 0.88479 0.19103 0.0
C3847 C 0.53322 0.87194 0.19971 0.0
C3848 C 0.53103 0.82742 0.19099 0.0
C3849 C 0.55968 0.81059 0.21631 0.0
C3850 C 0.55193 0.82234 0.21073 0.0
C3851 C 0.53411 0.85851 0.18847 0.0
C3852 C 0.53933 0.84569 0.19722 0.0
H3853 H 0.60079 0.81305 0.22225 0.0
H3854 H 0.58792 0.83242 0.21495 0.0
H3855 H 0.53103 0.80213 0.19192 0.0
H3856 H 0.52499 0.86999 0.14436 0.0
H3857 H 0.53164 0.84795 0.15933 0.0
C3858 C 0.12985 0.65059 0.14645 0.0
C3859 C 0.11995 0.63521 0.15832 0.0
C3860 C 0.14262 0.66737 0.15442 0.0
C3861 C 0.15344 0.69275 0.20045 0.0
H3862 H 0.19654 0.72781 0.1723 0.0
C3863 C 0.20379 0.76492 0.2301 0.0
C3864 C 0.20845 0.77935 0.21703 0.0
C3865 C 0.19448 0.74678 0.22373 0.0
C3866 C 0.18452 0.71816 0.18029 0.0
H3867 H 0.11629 0.62515 0.18776 0.0
H3868 H 0.13888 0.65445 0.20171 0.0
H3869 H 0.17827 0.69671 0.15999 0.0
H3870 H 0.20743 0.78611 0.18699 0.0
H3871 H 0.19117 0.75443 0.17585 0.0
H3872 H 0.15972 0.7143 0.2207 0.0
C3873 C 0.13648 0.65362 0.18626 0.0
C3874 C 0.17403 0.70035 0.17324 0.0
C3875 C 0.1236 0.63682 0.17828 0.0
C3876 C 0.20385 0.77527 0.19742 0.0
C3877 C 0.19472 0.75716 0.19102 0.0
C3878 C 0.16403 0.71052 0.20758 0.0
C3879 C 0.14588 0.66919 0.17447 0.0
C3880 C 0.15815 0.68752 0.18303 0.0
C3881 C 0.18985 0.74272 0.20413 0.0
C3882 C 0.17948 0.72349 0.19738 0.0
H3883 H 0.12712 0.64991 0.13108 0.0
H3884 H 0.14932 0.6791 0.14492 0.0
H3885 H 0.14116 0.68335 0.20823 0.0
H3886 H 0.20704 0.76765 0.24532 0.0
H3887 H 0.19096 0.73593 0.23414 0.0
loop_
_geom_bond_atom_site_label_1
_geom_bond_atom_site_label_2
_geom_bond_distance
_geom_bond_site_symmetry_2
_ccdc_geom_bond_type
C0 C1 1.351 . S
C0 N3 1.368 . S
C0 H5 0.931 . S
C1 C0 1.351 . S
C1 N2 1.373 . S
C1 H29 0.930 . S
N2 C1 1.373 . S
N2 C4 1.340 . S
N3 C0 1.368 . S
N3 C4 1.321 . S
N3 Co6 2.135 . S
C4 N2 1.340 . S
C4 N3 1.321 . S
C4 H28 0.930 . S
H5 C0 0.931 . S
Co6 N3 2.135 . S
Co6 N9 2.121 . S
Co6 O14 2.055 . S
Co6 O17 2.039 . S
Co6 N20 2.140 . S
C7 O8 1.232 . S
C7 O17 1.265 . S
O8 C7 1.232 . S
N9 Co6 2.121 . S
N9 C11 1.375 . S
N9 C12 1.313 . S
C10 C11 1.338 . S
C10 N13 1.377 . S
C10 H30 0.930 . S
C11 N9 1.375 . S
C11 C10 1.338 . S
C11 H15 0.931 . S
C12 N9 1.313 . S
C12 N13 1.344 . S
C12 H16 0.930 . S
N13 C10 1.377 . S
N13 C12 1.344 . S
O14 Co6 2.055 . S
O14 C18 1.253 . S
H15 C11 0.931 . S
H16 C12 0.930 . S
O17 Co6 2.039 . S
O17 C7 1.265 . S
C18 O14 1.253 . S
C18 O19 1.227 . S
O19 C18 1.227 . S
N20 Co6 2.140 . S
N20 C23 1.346 . S
N20 C24 1.345 . S
C21 C22 1.387 . S
C21 C25 1.391 . S
C22 C21 1.387 . S
C22 C23 1.369 . S
C22 H31 0.929 . S
C23 N20 1.346 . S
C23 C22 1.369 . S
C23 H26 0.928 . S
C24 N20 1.345 . S
C24 C25 1.371 . S
C24 H27 0.931 . S
C25 C21 1.391 . S
C25 C24 1.371 . S
C25 H32 0.930 . S
H26 C23 0.928 . S
H27 C24 0.931 . S
H28 C4 0.930 . S
H29 C1 0.930 . S
H30 C10 0.930 . S
H31 C22 0.929 . S
H32 C25 0.930 . S
C33 C34 1.351 . S
C33 N36 1.368 . S
C33 H38 0.931 . S
C34 C33 1.351 . S
C34 N35 1.373 . S
C34 H62 0.930 . S
N35 C34 1.373 . S
N35 C37 1.340 . S
N36 C33 1.368 . S
N36 C37 1.321 . S
N36 Co39 2.135 . S
C37 N35 1.340 . S
C37 N36 1.321 . S
C37 H61 0.930 . S
H38 C33 0.931 . S
Co39 N36 2.135 . S
Co39 N42 2.121 . S
Co39 O47 2.055 . S
Co39 O50 2.039 . S
Co39 N53 2.140 . S
C40 O41 1.232 . S
C40 O50 1.265 . S
O41 C40 1.232 . S
N42 Co39 2.121 . S
N42 C44 1.375 . S
N42 C45 1.313 . S
C43 C44 1.338 . S
C43 N46 1.377 . S
C43 H63 0.930 . S
C44 N42 1.375 . S
C44 C43 1.338 . S
C44 H48 0.931 . S
C45 N42 1.313 . S
C45 N46 1.344 . S
C45 H49 0.930 . S
N46 C43 1.377 . S
N46 C45 1.344 . S
O47 Co39 2.055 . S
O47 C51 1.253 . S
H48 C44 0.931 . S
H49 C45 0.930 . S
O50 Co39 2.039 . S
O50 C40 1.265 . S
C51 O47 1.253 . S
C51 O52 1.227 . S
O52 C51 1.227 . S
N53 Co39 2.140 . S
N53 C56 1.346 . S
N53 C57 1.345 . S
C54 C55 1.387 . S
C54 C58 1.391 . S
C55 C54 1.387 . S
C55 C56 1.369 . S
C55 H64 0.929 . S
C56 N53 1.346 . S
C56 C55 1.369 . S
C56 H59 0.928 . S
C57 N53 1.345 . S
C57 C58 1.371 . S
C57 H60 0.931 . S
C58 C54 1.391 . S
C58 C57 1.371 . S
C58 H65 0.930 . S
H59 C56 0.928 . S
H60 C57 0.931 . S
H61 C37 0.930 . S
H62 C34 0.930 . S
H63 C43 0.930 . S
H64 C55 0.929 . S
H65 C58 0.930 . S
C66 C67 1.351 . S
C66 N69 1.368 . S
C66 H71 0.931 . S
C67 C66 1.351 . S
C67 N68 1.373 . S
C67 H95 0.930 . S
N68 C67 1.373 . S
N68 C70 1.340 . S
N69 C66 1.368 . S
N69 C70 1.321 . S
N69 Co72 2.135 . S
C70 N68 1.340 . S
C70 N69 1.321 . S
C70 H94 0.930 . S
H71 C66 0.931 . S
Co72 N69 2.135 . S
Co72 N75 2.121 . S
Co72 O80 2.055 . S
Co72 O83 2.039 . S
Co72 N86 2.140 . S
C73 O74 1.232 . S
C73 O83 1.265 . S
O74 C73 1.232 . S
N75 Co72 2.121 . S
N75 C77 1.375 . S
N75 C78 1.313 . S
C76 C77 1.338 . S
C76 N79 1.377 . S
C76 H96 0.930 . S
C77 N75 1.375 . S
C77 C76 1.338 . S
C77 H81 0.931 . S
C78 N75 1.313 . S
C78 N79 1.344 . S
C78 H82 0.930 . S
N79 C76 1.377 . S
N79 C78 1.344 . S
O80 Co72 2.055 . S
O80 C84 1.253 . S
H81 C77 0.931 . S
H82 C78 0.930 . S
O83 Co72 2.039 . S
O83 C73 1.265 . S
C84 O80 1.253 . S
C84 O85 1.227 . S
O85 C84 1.227 . S
N86 Co72 2.140 . S
N86 C89 1.346 . S
N86 C90 1.345 . S
C87 C88 1.387 . S
C87 C91 1.391 . S
C88 C87 1.387 . S
C88 C89 1.369 . S
C88 H97 0.929 . S
C89 N86 1.346 . S
C89 C88 1.369 . S
C89 H92 0.928 . S
C90 N86 1.345 . S
C90 C91 1.371 . S
C90 H93 0.931 . S
C91 C87 1.391 . S
C91 C90 1.371 . S
C91 H98 0.930 . S
H92 C89 0.928 . S
H93 C90 0.931 . S
H94 C70 0.930 . S
H95 C67 0.930 . S
H96 C76 0.930 . S
H97 C88 0.929 . S
H98 C91 0.930 . S
C99 C100 1.351 . S
C99 N102 1.368 . S
C99 H104 0.931 . S
C100 C99 1.351 . S
C100 N101 1.373 . S
C100 H128 0.930 . S
N101 C100 1.373 . S
N101 C103 1.340 . S
N102 C99 1.368 . S
N102 C103 1.321 . S
N102 Co105 2.135 . S
C103 N101 1.340 . S
C103 N102 1.321 . S
C103 H127 0.930 . S
H104 C99 0.931 . S
Co105 N102 2.135 . S
Co105 N108 2.121 . S
Co105 O113 2.055 . S
Co105 O116 2.039 . S
Co105 N119 2.140 . S
C106 O107 1.227 . S
C106 O116 1.265 . S
O107 C106 1.227 . S
N108 Co105 2.121 . S
N108 C110 1.375 . S
N108 C111 1.313 . S
C109 C110 1.338 . S
C109 N112 1.377 . S
C109 H129 0.930 . S
C110 N108 1.375 . S
C110 C109 1.338 . S
C110 H114 0.931 . S
C111 N108 1.313 . S
C111 N112 1.344 . S
C111 H115 0.930 . S
N112 C109 1.377 . S
N112 C111 1.344 . S
O113 Co105 2.055 . S
O113 C117 1.253 . S
H114 C110 0.931 . S
H115 C111 0.930 . S
O116 Co105 2.039 . S
O116 C106 1.265 . S
C117 O113 1.253 . S
C117 O118 1.227 . S
O118 C117 1.227 . S
N119 Co105 2.140 . S
N119 C122 1.346 . S
N119 C123 1.345 . S
C120 C121 1.387 . S
C120 C124 1.391 . S
C121 C120 1.387 . S
C121 C122 1.369 . S
C121 H130 0.929 . S
C122 N119 1.346 . S
C122 C121 1.369 . S
C122 H125 0.928 . S
C123 N119 1.345 . S
C123 C124 1.371 . S
C123 H126 0.931 . S
C124 C120 1.391 . S
C124 C123 1.371 . S
C124 H131 0.930 . S
H125 C122 0.928 . S
H126 C123 0.931 . S
H127 C103 0.930 . S
H128 C100 0.930 . S
H129 C109 0.930 . S
H130 C121 0.929 . S
H131 C124 0.930 . S
C132 C133 1.351 . S
C132 N135 1.368 . S
C132 H137 0.931 . S
C133 C132 1.351 . S
C133 N134 1.373 . S
C133 H161 0.930 . S
N134 C133 1.373 . S
N134 C136 1.340 . S
N135 C132 1.368 . S
N135 C136 1.321 . S
N135 Co138 2.135 . S
C136 N134 1.340 . S
C136 N135 1.321 . S
C136 H160 0.930 . S
H137 C132 0.931 . S
Co138 N135 2.135 . S
Co138 N141 2.121 . S
Co138 O146 2.055 . S
Co138 O149 2.039 . S
Co138 N152 2.140 . S
C139 O140 1.227 . S
C139 O149 1.265 . S
O140 C139 1.227 . S
N141 Co138 2.121 . S
N141 C143 1.375 . S
N141 C144 1.313 . S
C142 C143 1.338 . S
C142 N145 1.377 . S
C142 H162 0.930 . S
C143 N141 1.375 . S
C143 C142 1.338 . S
C143 H147 0.931 . S
C144 N141 1.313 . S
C144 N145 1.344 . S
C144 H148 0.930 . S
N145 C142 1.377 . S
N145 C144 1.344 . S
O146 Co138 2.055 . S
O146 C150 1.253 . S
H147 C143 0.931 . S
H148 C144 0.930 . S
O149 Co138 2.039 . S
O149 C139 1.265 . S
C150 O146 1.253 . S
C150 O151 1.227 . S
O151 C150 1.227 . S
N152 Co138 2.140 . S
N152 C155 1.346 . S
N152 C156 1.345 . S
C153 C154 1.387 . S
C153 C157 1.391 . S
C154 C153 1.387 . S
C154 C155 1.369 . S
C154 H163 0.929 . S
C155 N152 1.346 . S
C155 C154 1.369 . S
C155 H158 0.928 . S
C156 N152 1.345 . S
C156 C157 1.371 . S
C156 H159 0.931 . S
C157 C153 1.391 . S
C157 C156 1.371 . S
C157 H164 0.930 . S
H158 C155 0.928 . S
H159 C156 0.931 . S
H160 C136 0.930 . S
H161 C133 0.930 . S
H162 C142 0.930 . S
H163 C154 0.929 . S
H164 C157 0.930 . S
C165 C166 1.351 . S
C165 N168 1.368 . S
C165 H170 0.931 . S
C166 C165 1.351 . S
C166 N167 1.373 . S
C166 H194 0.930 . S
N167 C166 1.373 . S
N167 C169 1.340 . S
N168 C165 1.368 . S
N168 C169 1.321 . S
N168 Co171 2.135 . S
C169 N167 1.340 . S
C169 N168 1.321 . S
C169 H193 0.930 . S
H170 C165 0.931 . S
Co171 N168 2.135 . S
Co171 N174 2.121 . S
Co171 O179 2.055 . S
Co171 O182 2.039 . S
Co171 N185 2.140 . S
C172 O173 1.227 . S
C172 O182 1.265 . S
O173 C172 1.227 . S
N174 Co171 2.121 . S
N174 C176 1.375 . S
N174 C177 1.313 . S
C175 C176 1.338 . S
C175 N178 1.377 . S
C175 H195 0.930 . S
C176 N174 1.375 . S
C176 C175 1.338 . S
C176 H180 0.931 . S
C177 N174 1.313 . S
C177 N178 1.344 . S
C177 H181 0.930 . S
N178 C175 1.377 . S
N178 C177 1.344 . S
O179 Co171 2.055 . S
O179 C183 1.253 . S
H180 C176 0.931 . S
H181 C177 0.930 . S
O182 Co171 2.039 . S
O182 C172 1.265 . S
C183 O179 1.253 . S
C183 O184 1.227 . S
O184 C183 1.227 . S
N185 Co171 2.140 . S
N185 C188 1.346 . S
N185 C189 1.345 . S
C186 C187 1.387 . S
C186 C190 1.391 . S
C187 C186 1.387 . S
C187 C188 1.369 . S
C187 H196 0.929 . S
C188 N185 1.346 . S
C188 C187 1.369 . S
C188 H191 0.928 . S
C189 N185 1.345 . S
C189 C190 1.371 . S
C189 H192 0.931 . S
C190 C186 1.391 . S
C190 C189 1.371 . S
C190 H197 0.930 . S
H191 C188 0.928 . S
H192 C189 0.931 . S
H193 C169 0.930 . S
H194 C166 0.930 . S
H195 C175 0.930 . S
H196 C187 0.929 . S
H197 C190 0.930 . S
C198 C199 1.351 . S
C198 N201 1.368 . S
C198 H203 0.931 . S
C199 C198 1.351 . S
C199 N200 1.373 . S
C199 H227 0.930 . S
N200 C199 1.373 . S
N200 C202 1.340 . S
N201 C198 1.368 . S
N201 C202 1.321 . S
N201 Co204 2.135 . S
C202 N200 1.340 . S
C202 N201 1.321 . S
C202 H226 0.930 . S
H203 C198 0.931 . S
Co204 N201 2.135 . S
Co204 N207 2.121 . S
Co204 O212 2.055 . S
Co204 O215 2.039 . S
Co204 N218 2.140 . S
C205 O206 1.232 . S
C205 O215 1.265 . S
O206 C205 1.232 . S
N207 Co204 2.121 . S
N207 C209 1.375 . S
N207 C210 1.313 . S
C208 C209 1.338 . S
C208 N211 1.377 . S
C208 H228 0.930 . S
C209 N207 1.375 . S
C209 C208 1.338 . S
C209 H213 0.931 . S
C210 N207 1.313 . S
C210 N211 1.344 . S
C210 H214 0.930 . S
N211 C208 1.377 . S
N211 C210 1.344 . S
O212 Co204 2.055 . S
O212 C216 1.253 . S
H213 C209 0.931 . S
H214 C210 0.930 . S
O215 Co204 2.039 . S
O215 C205 1.265 . S
C216 O212 1.253 . S
C216 O217 1.227 . S
O217 C216 1.227 . S
N218 Co204 2.140 . S
N218 C221 1.346 . S
N218 C222 1.345 . S
C219 C220 1.387 . S
C219 C223 1.391 . S
C220 C219 1.387 . S
C220 C221 1.369 . S
C220 H229 0.929 . S
C221 N218 1.346 . S
C221 C220 1.369 . S
C221 H224 0.928 . S
C222 N218 1.345 . S
C222 C223 1.371 . S
C222 H225 0.931 . S
C223 C219 1.391 . S
C223 C222 1.371 . S
C223 H230 0.930 . S
H224 C221 0.928 . S
H225 C222 0.931 . S
H226 C202 0.930 . S
H227 C199 0.930 . S
H228 C208 0.930 . S
H229 C220 0.929 . S
H230 C223 0.930 . S
C231 C232 1.351 . S
C231 N234 1.368 . S
C231 H236 0.931 . S
C232 C231 1.351 . S
C232 N233 1.373 . S
C232 H260 0.930 . S
N233 C232 1.373 . S
N233 C235 1.340 . S
N234 C231 1.368 . S
N234 C235 1.321 . S
N234 Co237 2.135 . S
C235 N233 1.340 . S
C235 N234 1.321 . S
C235 H259 0.930 . S
H236 C231 0.931 . S
Co237 N234 2.135 . S
Co237 N240 2.121 . S
Co237 O245 2.055 . S
Co237 O248 2.039 . S
Co237 N251 2.140 . S
C238 O239 1.232 . S
C238 O248 1.265 . S
O239 C238 1.232 . S
N240 Co237 2.121 . S
N240 C242 1.375 . S
N240 C243 1.313 . S
C241 C242 1.338 . S
C241 N244 1.377 . S
C241 H261 0.930 . S
C242 N240 1.375 . S
C242 C241 1.338 . S
C242 H246 0.931 . S
C243 N240 1.313 . S
C243 N244 1.344 . S
C243 H247 0.930 . S
N244 C241 1.377 . S
N244 C243 1.344 . S
O245 Co237 2.055 . S
O245 C249 1.253 . S
H246 C242 0.931 . S
H247 C243 0.930 . S
O248 Co237 2.039 . S
O248 C238 1.265 . S
C249 O245 1.253 . S
C249 O250 1.227 . S
O250 C249 1.227 . S
N251 Co237 2.140 . S
N251 C254 1.346 . S
N251 C255 1.345 . S
C252 C253 1.387 . S
C252 C256 1.391 . S
C253 C252 1.387 . S
C253 C254 1.369 . S
C253 H262 0.929 . S
C254 N251 1.346 . S
C254 C253 1.369 . S
C254 H257 0.928 . S
C255 N251 1.345 . S
C255 C256 1.371 . S
C255 H258 0.931 . S
C256 C252 1.391 . S
C256 C255 1.371 . S
C256 H263 0.930 . S
H257 C254 0.928 . S
H258 C255 0.931 . S
H259 C235 0.930 . S
H260 C232 0.930 . S
H261 C241 0.930 . S
H262 C253 0.929 . S
H263 C256 0.930 . S
C264 C265 1.351 . S
C264 N267 1.368 . S
C264 H269 0.931 . S
C265 C264 1.351 . S
C265 N266 1.373 . S
C265 H293 0.930 . S
N266 C265 1.373 . S
N266 C268 1.340 . S
N267 C264 1.368 . S
N267 C268 1.321 . S
N267 Co270 2.135 . S
C268 N266 1.340 . S
C268 N267 1.321 . S
C268 H292 0.930 . S
H269 C264 0.931 . S
Co270 N267 2.135 . S
Co270 N273 2.121 . S
Co270 O278 2.055 . S
Co270 O281 2.039 . S
Co270 N284 2.140 . S
C271 O272 1.232 . S
C271 O281 1.265 . S
O272 C271 1.232 . S
N273 Co270 2.121 . S
N273 C275 1.375 . S
N273 C276 1.313 . S
C274 C275 1.338 . S
C274 N277 1.377 . S
C274 H294 0.930 . S
C275 N273 1.375 . S
C275 C274 1.338 . S
C275 H279 0.931 . S
C276 N273 1.313 . S
C276 N277 1.344 . S
C276 H280 0.930 . S
N277 C274 1.377 . S
N277 C276 1.344 . S
O278 Co270 2.055 . S
O278 C282 1.253 . S
H279 C275 0.931 . S
H280 C276 0.930 . S
O281 Co270 2.039 . S
O281 C271 1.265 . S
C282 O278 1.253 . S
C282 O283 1.227 . S
O283 C282 1.227 . S
N284 Co270 2.140 . S
N284 C287 1.346 . S
N284 C288 1.345 . S
C285 C286 1.387 . S
C285 C289 1.391 . S
C286 C285 1.387 . S
C286 C287 1.369 . S
C286 H295 0.929 . S
C287 N284 1.346 . S
C287 C286 1.369 . S
C287 H290 0.928 . S
C288 N284 1.345 . S
C288 C289 1.371 . S
C288 H291 0.931 . S
C289 C285 1.391 . S
C289 C288 1.371 . S
C289 H296 0.930 . S
H290 C287 0.928 . S
H291 C288 0.931 . S
H292 C268 0.930 . S
H293 C265 0.930 . S
H294 C274 0.930 . S
H295 C286 0.929 . S
H296 C289 0.930 . S
C297 C298 1.351 . S
C297 N300 1.368 . S
C297 H302 0.931 . S
C298 C297 1.351 . S
C298 N299 1.373 . S
C298 H326 0.930 . S
N299 C298 1.373 . S
N299 C301 1.340 . S
N300 C297 1.368 . S
N300 C301 1.321 . S
N300 Co303 2.135 . S
C301 N299 1.340 . S
C301 N300 1.321 . S
C301 H325 0.930 . S
H302 C297 0.931 . S
Co303 N300 2.135 . S
Co303 N306 2.121 . S
Co303 O311 2.055 . S
Co303 O314 2.039 . S
Co303 N317 2.140 . S
C304 O305 1.227 . S
C304 O314 1.265 . S
O305 C304 1.227 . S
N306 Co303 2.121 . S
N306 C308 1.375 . S
N306 C309 1.313 . S
C307 C308 1.338 . S
C307 N310 1.377 . S
C307 H327 0.930 . S
C308 N306 1.375 . S
C308 C307 1.338 . S
C308 H312 0.931 . S
C309 N306 1.313 . S
C309 N310 1.344 . S
C309 H313 0.930 . S
N310 C307 1.377 . S
N310 C309 1.344 . S
O311 Co303 2.055 . S
O311 C315 1.253 . S
H312 C308 0.931 . S
H313 C309 0.930 . S
O314 Co303 2.039 . S
O314 C304 1.265 . S
C315 O311 1.253 . S
C315 O316 1.227 . S
O316 C315 1.227 . S
N317 Co303 2.140 . S
N317 C320 1.346 . S
N317 C321 1.345 . S
C318 C319 1.387 . S
C318 C322 1.391 . S
C319 C318 1.387 . S
C319 C320 1.369 . S
C319 H328 0.929 . S
C320 N317 1.346 . S
C320 C319 1.369 . S
C320 H323 0.928 . S
C321 N317 1.345 . S
C321 C322 1.371 . S
C321 H324 0.931 . S
C322 C318 1.391 . S
C322 C321 1.371 . S
C322 H329 0.930 . S
H323 C320 0.928 . S
H324 C321 0.931 . S
H325 C301 0.930 . S
H326 C298 0.930 . S
H327 C307 0.930 . S
H328 C319 0.929 . S
H329 C322 0.930 . S
C330 C331 1.351 . S
C330 N333 1.368 . S
C330 H335 0.931 . S
C331 C330 1.351 . S
C331 N332 1.373 . S
C331 H359 0.930 . S
N332 C331 1.373 . S
N332 C334 1.340 . S
N333 C330 1.368 . S
N333 C334 1.321 . S
N333 Co336 2.135 . S
C334 N332 1.340 . S
C334 N333 1.321 . S
C334 H358 0.930 . S
H335 C330 0.931 . S
Co336 N333 2.135 . S
Co336 N339 2.121 . S
Co336 O344 2.055 . S
Co336 O347 2.039 . S
Co336 N350 2.140 . S
C337 O338 1.227 . S
C337 O347 1.265 . S
O338 C337 1.227 . S
N339 Co336 2.121 . S
N339 C341 1.375 . S
N339 C342 1.313 . S
C340 C341 1.338 . S
C340 N343 1.377 . S
C340 H360 0.930 . S
C341 N339 1.375 . S
C341 C340 1.338 . S
C341 H345 0.931 . S
C342 N339 1.313 . S
C342 N343 1.344 . S
C342 H346 0.930 . S
N343 C340 1.377 . S
N343 C342 1.344 . S
O344 Co336 2.055 . S
O344 C348 1.253 . S
H345 C341 0.931 . S
H346 C342 0.930 . S
O347 Co336 2.039 . S
O347 C337 1.265 . S
C348 O344 1.253 . S
C348 O349 1.227 . S
O349 C348 1.227 . S
N350 Co336 2.140 . S
N350 C353 1.346 . S
N350 C354 1.345 . S
C351 C352 1.387 . S
C351 C355 1.391 . S
C352 C351 1.387 . S
C352 C353 1.369 . S
C352 H361 0.929 . S
C353 N350 1.346 . S
C353 C352 1.369 . S
C353 H356 0.928 . S
C354 N350 1.345 . S
C354 C355 1.371 . S
C354 H357 0.931 . S
C355 C351 1.391 . S
C355 C354 1.371 . S
C355 H362 0.930 . S
H356 C353 0.928 . S
H357 C354 0.931 . S
H358 C334 0.930 . S
H359 C331 0.930 . S
H360 C340 0.930 . S
H361 C352 0.929 . S
H362 C355 0.930 . S
C363 C364 1.351 . S
C363 N366 1.368 . S
C363 H368 0.931 . S
C364 C363 1.351 . S
C364 N365 1.373 . S
C364 H392 0.930 . S
N365 C364 1.373 . S
N365 C367 1.340 . S
N366 C363 1.368 . S
N366 C367 1.321 . S
N366 Co369 2.135 . S
C367 N365 1.340 . S
C367 N366 1.321 . S
C367 H391 0.930 . S
H368 C363 0.931 . S
Co369 N366 2.135 . S
Co369 N372 2.121 . S
Co369 O377 2.055 . S
Co369 O380 2.039 . S
Co369 N383 2.140 . S
C370 O371 1.227 . S
C370 O380 1.265 . S
O371 C370 1.227 . S
N372 Co369 2.121 . S
N372 C374 1.375 . S
N372 C375 1.313 . S
C373 C374 1.338 . S
C373 N376 1.377 . S
C373 H393 0.930 . S
C374 N372 1.375 . S
C374 C373 1.338 . S
C374 H378 0.931 . S
C375 N372 1.313 . S
C375 N376 1.344 . S
C375 H379 0.930 . S
N376 C373 1.377 . S
N376 C375 1.344 . S
O377 Co369 2.055 . S
O377 C381 1.253 . S
H378 C374 0.931 . S
H379 C375 0.930 . S
O380 Co369 2.039 . S
O380 C370 1.265 . S
C381 O377 1.253 . S
C381 O382 1.227 . S
O382 C381 1.227 . S
N383 Co369 2.140 . S
N383 C386 1.346 . S
N383 C387 1.345 . S
C384 C385 1.387 . S
C384 C388 1.391 . S
C385 C384 1.387 . S
C385 C386 1.369 . S
C385 H394 0.929 . S
C386 N383 1.346 . S
C386 C385 1.369 . S
C386 H389 0.928 . S
C387 N383 1.345 . S
C387 C388 1.371 . S
C387 H390 0.931 . S
C388 C384 1.391 . S
C388 C387 1.371 . S
C388 H395 0.930 . S
H389 C386 0.928 . S
H390 C387 0.931 . S
H391 C367 0.930 . S
H392 C364 0.930 . S
H393 C373 0.930 . S
H394 C385 0.929 . S
H395 C388 0.930 . S
C396 C397 1.351 . S
C396 N399 1.368 . S
C396 H401 0.931 . S
C397 C396 1.351 . S
C397 N398 1.373 . S
C397 H425 0.930 . S
N398 C397 1.373 . S
N398 C400 1.340 . S
N399 C396 1.368 . S
N399 C400 1.321 . S
N399 Co402 2.135 . S
C400 N398 1.340 . S
C400 N399 1.321 . S
C400 H424 0.930 . S
H401 C396 0.931 . S
Co402 N399 2.135 . S
Co402 N405 2.121 . S
Co402 O410 2.055 . S
Co402 O413 2.039 . S
Co402 N416 2.140 . S
C403 O404 1.227 . S
C403 O413 1.265 . S
O404 C403 1.227 . S
N405 Co402 2.121 . S
N405 C407 1.375 . S
N405 C408 1.313 . S
C406 C407 1.338 . S
C406 N409 1.377 . S
C406 H426 0.930 . S
C407 N405 1.375 . S
C407 C406 1.338 . S
C407 H411 0.931 . S
C408 N405 1.313 . S
C408 N409 1.344 . S
C408 H412 0.930 . S
N409 C406 1.377 . S
N409 C408 1.344 . S
O410 Co402 2.055 . S
O410 C414 1.253 . S
H411 C407 0.931 . S
H412 C408 0.930 . S
O413 Co402 2.039 . S
O413 C403 1.265 . S
C414 O410 1.253 . S
C414 O415 1.227 . S
O415 C414 1.227 . S
N416 Co402 2.140 . S
N416 C419 1.346 . S
N416 C420 1.345 . S
C417 C418 1.387 . S
C417 C421 1.391 . S
C418 C417 1.387 . S
C418 C419 1.369 . S
C418 H427 0.929 . S
C419 N416 1.346 . S
C419 C418 1.369 . S
C419 H422 0.928 . S
C420 N416 1.345 . S
C420 C421 1.371 . S
C420 H423 0.931 . S
C421 C417 1.391 . S
C421 C420 1.371 . S
C421 H428 0.930 . S
H422 C419 0.928 . S
H423 C420 0.931 . S
H424 C400 0.930 . S
H425 C397 0.930 . S
H426 C406 0.930 . S
H427 C418 0.929 . S
H428 C421 0.930 . S
C429 C430 1.351 . S
C429 N432 1.368 . S
C429 H434 0.931 . S
C430 C429 1.351 . S
C430 N431 1.373 . S
C430 H458 0.930 . S
N431 C430 1.373 . S
N431 C433 1.340 . S
N432 C429 1.368 . S
N432 C433 1.321 . S
N432 Co435 2.135 . S
C433 N431 1.340 . S
C433 N432 1.321 . S
C433 H457 0.930 . S
H434 C429 0.931 . S
Co435 N432 2.135 . S
Co435 N438 2.121 . S
Co435 O443 2.055 . S
Co435 O446 2.039 . S
Co435 N449 2.140 . S
C436 O437 1.227 . S
C436 O446 1.265 . S
O437 C436 1.227 . S
N438 Co435 2.121 . S
N438 C440 1.375 . S
N438 C441 1.313 . S
C439 C440 1.338 . S
C439 N442 1.377 . S
C439 H459 0.930 . S
C440 N438 1.375 . S
C440 C439 1.338 . S
C440 H444 0.931 . S
C441 N438 1.313 . S
C441 N442 1.344 . S
C441 H445 0.930 . S
N442 C439 1.377 . S
N442 C441 1.344 . S
O443 Co435 2.055 . S
O443 C447 1.253 . S
H444 C440 0.931 . S
H445 C441 0.930 . S
O446 Co435 2.039 . S
O446 C436 1.265 . S
C447 O443 1.253 . S
C447 O448 1.227 . S
O448 C447 1.227 . S
N449 Co435 2.140 . S
N449 C452 1.346 . S
N449 C453 1.345 . S
C450 C451 1.387 . S
C450 C454 1.391 . S
C451 C450 1.387 . S
C451 C452 1.369 . S
C451 H460 0.929 . S
C452 N449 1.346 . S
C452 C451 1.369 . S
C452 H455 0.928 . S
C453 N449 1.345 . S
C453 C454 1.371 . S
C453 H456 0.931 . S
C454 C450 1.391 . S
C454 C453 1.371 . S
C454 H461 0.930 . S
H455 C452 0.928 . S
H456 C453 0.931 . S
H457 C433 0.930 . S
H458 C430 0.930 . S
H459 C439 0.930 . S
H460 C451 0.929 . S
H461 C454 0.930 . S
C462 C463 1.351 . S
C462 N465 1.368 . S
C462 H467 0.931 . S
C463 C462 1.351 . S
C463 N464 1.373 . S
C463 H491 0.930 . S
N464 C463 1.373 . S
N464 C466 1.340 . S
N465 C462 1.368 . S
N465 C466 1.321 . S
N465 Co468 2.135 . S
C466 N464 1.340 . S
C466 N465 1.321 . S
C466 H490 0.930 . S
H467 C462 0.931 . S
Co468 N465 2.135 . S
Co468 N471 2.121 . S
Co468 O476 2.055 . S
Co468 O479 2.039 . S
Co468 N482 2.140 . S
C469 O470 1.227 . S
C469 O479 1.265 . S
O470 C469 1.227 . S
N471 Co468 2.121 . S
N471 C473 1.375 . S
N471 C474 1.313 . S
C472 C473 1.338 . S
C472 N475 1.377 . S
C472 H492 0.930 . S
C473 N471 1.375 . S
C473 C472 1.338 . S
C473 H477 0.931 . S
C474 N471 1.313 . S
C474 N475 1.344 . S
C474 H478 0.930 . S
N475 C472 1.377 . S
N475 C474 1.344 . S
O476 Co468 2.055 . S
O476 C480 1.253 . S
H477 C473 0.931 . S
H478 C474 0.930 . S
O479 Co468 2.039 . S
O479 C469 1.265 . S
C480 O476 1.253 . S
C480 O481 1.227 . S
O481 C480 1.227 . S
N482 Co468 2.140 . S
N482 C485 1.346 . S
N482 C486 1.345 . S
C483 C484 1.387 . S
C483 C487 1.391 . S
C484 C483 1.387 . S
C484 C485 1.369 . S
C484 H493 0.929 . S
C485 N482 1.346 . S
C485 C484 1.369 . S
C485 H488 0.928 . S
C486 N482 1.345 . S
C486 C487 1.371 . S
C486 H489 0.931 . S
C487 C483 1.391 . S
C487 C486 1.371 . S
C487 H494 0.930 . S
H488 C485 0.928 . S
H489 C486 0.931 . S
H490 C466 0.930 . S
H491 C463 0.930 . S
H492 C472 0.930 . S
H493 C484 0.929 . S
H494 C487 0.930 . S
C495 C496 1.351 . S
C495 N498 1.368 . S
C495 H500 0.931 . S
C496 C495 1.351 . S
C496 N497 1.373 . S
C496 H524 0.930 . S
N497 C496 1.373 . S
N497 C499 1.340 . S
N498 C495 1.368 . S
N498 C499 1.321 . S
N498 Co501 2.135 . S
C499 N497 1.340 . S
C499 N498 1.321 . S
C499 H523 0.930 . S
H500 C495 0.931 . S
Co501 N498 2.135 . S
Co501 N504 2.121 . S
Co501 O509 2.055 . S
Co501 O512 2.039 . S
Co501 N515 2.140 . S
C502 O503 1.227 . S
C502 O512 1.265 . S
O503 C502 1.227 . S
N504 Co501 2.121 . S
N504 C506 1.375 . S
N504 C507 1.313 . S
C505 C506 1.338 . S
C505 N508 1.377 . S
C505 H525 0.930 . S
C506 N504 1.375 . S
C506 C505 1.338 . S
C506 H510 0.931 . S
C507 N504 1.313 . S
C507 N508 1.344 . S
C507 H511 0.930 . S
N508 C505 1.377 . S
N508 C507 1.344 . S
O509 Co501 2.055 . S
O509 C513 1.253 . S
H510 C506 0.931 . S
H511 C507 0.930 . S
O512 Co501 2.039 . S
O512 C502 1.265 . S
C513 O509 1.253 . S
C513 O514 1.227 . S
O514 C513 1.227 . S
N515 Co501 2.140 . S
N515 C518 1.346 . S
N515 C519 1.345 . S
C516 C517 1.387 . S
C516 C520 1.391 . S
C517 C516 1.387 . S
C517 C518 1.369 . S
C517 H526 0.929 . S
C518 N515 1.346 . S
C518 C517 1.369 . S
C518 H521 0.928 . S
C519 N515 1.345 . S
C519 C520 1.371 . S
C519 H522 0.931 . S
C520 C516 1.391 . S
C520 C519 1.371 . S
C520 H527 0.930 . S
H521 C518 0.928 . S
H522 C519 0.931 . S
H523 C499 0.930 . S
H524 C496 0.930 . S
H525 C505 0.930 . S
H526 C517 0.929 . S
H527 C520 0.930 . S
C528 C529 1.351 . S
C528 N531 1.368 . S
C528 H533 0.931 . S
C529 C528 1.351 . S
C529 N530 1.373 . S
C529 H557 0.930 . S
N530 C529 1.373 . S
N530 C532 1.340 . S
N531 C528 1.368 . S
N531 C532 1.321 . S
N531 Co534 2.135 . S
C532 N530 1.340 . S
C532 N531 1.321 . S
C532 H556 0.930 . S
H533 C528 0.931 . S
Co534 N531 2.135 . S
Co534 N537 2.121 . S
Co534 O542 2.055 . S
Co534 O545 2.039 . S
Co534 N548 2.140 . S
C535 O536 1.227 . S
C535 O545 1.265 . S
O536 C535 1.227 . S
N537 Co534 2.121 . S
N537 C539 1.375 . S
N537 C540 1.313 . S
C538 C539 1.338 . S
C538 N541 1.377 . S
C538 H558 0.930 . S
C539 N537 1.375 . S
C539 C538 1.338 . S
C539 H543 0.931 . S
C540 N537 1.313 . S
C540 N541 1.344 . S
C540 H544 0.930 . S
N541 C538 1.377 . S
N541 C540 1.344 . S
O542 Co534 2.055 . S
O542 C546 1.253 . S
H543 C539 0.931 . S
H544 C540 0.930 . S
O545 Co534 2.039 . S
O545 C535 1.265 . S
C546 O542 1.253 . S
C546 O547 1.227 . S
O547 C546 1.227 . S
N548 Co534 2.140 . S
N548 C551 1.346 . S
N548 C552 1.345 . S
C549 C550 1.387 . S
C549 C553 1.391 . S
C550 C549 1.387 . S
C550 C551 1.369 . S
C550 H559 0.929 . S
C551 N548 1.346 . S
C551 C550 1.369 . S
C551 H554 0.928 . S
C552 N548 1.345 . S
C552 C553 1.371 . S
C552 H555 0.931 . S
C553 C549 1.391 . S
C553 C552 1.371 . S
C553 H560 0.930 . S
H554 C551 0.928 . S
H555 C552 0.931 . S
H556 C532 0.930 . S
H557 C529 0.930 . S
H558 C538 0.930 . S
H559 C550 0.929 . S
H560 C553 0.930 . S
C561 C562 1.351 . S
C561 N564 1.368 . S
C561 H566 0.931 . S
C562 C561 1.351 . S
C562 N563 1.373 . S
C562 H590 0.930 . S
N563 C562 1.373 . S
N563 C565 1.340 . S
N564 C561 1.368 . S
N564 C565 1.321 . S
N564 Co567 2.135 . S
C565 N563 1.340 . S
C565 N564 1.321 . S
C565 H589 0.930 . S
H566 C561 0.931 . S
Co567 N564 2.135 . S
Co567 N570 2.121 . S
Co567 O575 2.055 . S
Co567 O578 2.039 . S
Co567 N581 2.140 . S
C568 O569 1.227 . S
C568 O578 1.265 . S
O569 C568 1.227 . S
N570 Co567 2.121 . S
N570 C572 1.375 . S
N570 C573 1.313 . S
C571 C572 1.338 . S
C571 N574 1.377 . S
C571 H591 0.930 . S
C572 N570 1.375 . S
C572 C571 1.338 . S
C572 H576 0.931 . S
C573 N570 1.313 . S
C573 N574 1.344 . S
C573 H577 0.930 . S
N574 C571 1.377 . S
N574 C573 1.344 . S
O575 Co567 2.055 . S
O575 C579 1.253 . S
H576 C572 0.931 . S
H577 C573 0.930 . S
O578 Co567 2.039 . S
O578 C568 1.265 . S
C579 O575 1.253 . S
C579 O580 1.227 . S
O580 C579 1.227 . S
N581 Co567 2.140 . S
N581 C584 1.346 . S
N581 C585 1.345 . S
C582 C583 1.387 . S
C582 C586 1.391 . S
C583 C582 1.387 . S
C583 C584 1.369 . S
C583 H592 0.929 . S
C584 N581 1.346 . S
C584 C583 1.369 . S
C584 H587 0.928 . S
C585 N581 1.345 . S
C585 C586 1.371 . S
C585 H588 0.931 . S
C586 C582 1.391 . S
C586 C585 1.371 . S
C586 H593 0.930 . S
H587 C584 0.928 . S
H588 C585 0.931 . S
H589 C565 0.930 . S
H590 C562 0.930 . S
H591 C571 0.930 . S
H592 C583 0.929 . S
H593 C586 0.930 . S
C594 C595 1.351 . S
C594 N597 1.368 . S
C594 H599 0.931 . S
C595 C594 1.351 . S
C595 N596 1.373 . S
C595 H623 0.930 . S
N596 C595 1.373 . S
N596 C598 1.340 . S
N597 C594 1.368 . S
N597 C598 1.321 . S
N597 Co600 2.135 . S
C598 N596 1.340 . S
C598 N597 1.321 . S
C598 H622 0.930 . S
H599 C594 0.931 . S
Co600 N597 2.135 . S
Co600 N603 2.121 . S
Co600 O608 2.055 . S
Co600 O611 2.039 . S
Co600 N614 2.140 . S
C601 O602 1.227 . S
C601 O611 1.265 . S
O602 C601 1.227 . S
N603 Co600 2.121 . S
N603 C605 1.375 . S
N603 C606 1.313 . S
C604 C605 1.338 . S
C604 N607 1.377 . S
C604 H624 0.930 . S
C605 N603 1.375 . S
C605 C604 1.338 . S
C605 H609 0.931 . S
C606 N603 1.313 . S
C606 N607 1.344 . S
C606 H610 0.930 . S
N607 C604 1.377 . S
N607 C606 1.344 . S
O608 Co600 2.055 . S
O608 C612 1.253 . S
H609 C605 0.931 . S
H610 C606 0.930 . S
O611 Co600 2.039 . S
O611 C601 1.265 . S
C612 O608 1.253 . S
C612 O613 1.227 . S
O613 C612 1.227 . S
N614 Co600 2.140 . S
N614 C617 1.346 . S
N614 C618 1.345 . S
C615 C616 1.387 . S
C615 C619 1.391 . S
C616 C615 1.387 . S
C616 C617 1.369 . S
C616 H625 0.929 . S
C617 N614 1.346 . S
C617 C616 1.369 . S
C617 H620 0.928 . S
C618 N614 1.345 . S
C618 C619 1.371 . S
C618 H621 0.931 . S
C619 C615 1.391 . S
C619 C618 1.371 . S
C619 H626 0.930 . S
H620 C617 0.928 . S
H621 C618 0.931 . S
H622 C598 0.930 . S
H623 C595 0.930 . S
H624 C604 0.930 . S
H625 C616 0.929 . S
H626 C619 0.930 . S
C627 C628 1.351 . S
C627 N630 1.368 . S
C627 H632 0.931 . S
C628 C627 1.351 . S
C628 N629 1.373 . S
C628 H656 0.930 . S
N629 C628 1.373 . S
N629 C631 1.340 . S
N630 C627 1.368 . S
N630 C631 1.321 . S
N630 Co633 2.135 . S
C631 N629 1.340 . S
C631 N630 1.321 . S
C631 H655 0.930 . S
H632 C627 0.931 . S
Co633 N630 2.135 . S
Co633 N636 2.121 . S
Co633 O641 2.055 . S
Co633 O644 2.039 . S
Co633 N647 2.140 . S
C634 O635 1.227 . S
C634 O644 1.265 . S
O635 C634 1.227 . S
N636 Co633 2.121 . S
N636 C638 1.375 . S
N636 C639 1.313 . S
C637 C638 1.338 . S
C637 N640 1.377 . S
C637 H657 0.930 . S
C638 N636 1.375 . S
C638 C637 1.338 . S
C638 H642 0.931 . S
C639 N636 1.313 . S
C639 N640 1.344 . S
C639 H643 0.930 . S
N640 C637 1.377 . S
N640 C639 1.344 . S
O641 Co633 2.055 . S
O641 C645 1.253 . S
H642 C638 0.931 . S
H643 C639 0.930 . S
O644 Co633 2.039 . S
O644 C634 1.265 . S
C645 O641 1.253 . S
C645 O646 1.227 . S
O646 C645 1.227 . S
N647 Co633 2.140 . S
N647 C650 1.346 . S
N647 C651 1.345 . S
C648 C649 1.387 . S
C648 C652 1.391 . S
C649 C648 1.387 . S
C649 C650 1.369 . S
C649 H658 0.929 . S
C650 N647 1.346 . S
C650 C649 1.369 . S
C650 H653 0.928 . S
C651 N647 1.345 . S
C651 C652 1.371 . S
C651 H654 0.931 . S
C652 C648 1.391 . S
C652 C651 1.371 . S
C652 H659 0.930 . S
H653 C650 0.928 . S
H654 C651 0.931 . S
H655 C631 0.930 . S
H656 C628 0.930 . S
H657 C637 0.930 . S
H658 C649 0.929 . S
H659 C652 0.930 . S
C660 C661 1.351 . S
C660 N663 1.368 . S
C660 H665 0.931 . S
C661 C660 1.351 . S
C661 N662 1.373 . S
C661 H689 0.930 . S
N662 C661 1.373 . S
N662 C664 1.340 . S
N663 C660 1.368 . S
N663 C664 1.321 . S
N663 Co666 2.135 . S
C664 N662 1.340 . S
C664 N663 1.321 . S
C664 H688 0.930 . S
H665 C660 0.931 . S
Co666 N663 2.135 . S
Co666 N669 2.121 . S
Co666 O674 2.055 . S
Co666 O677 2.039 . S
Co666 N680 2.140 . S
C667 O668 1.227 . S
C667 O677 1.265 . S
O668 C667 1.227 . S
N669 Co666 2.121 . S
N669 C671 1.375 . S
N669 C672 1.313 . S
C670 C671 1.338 . S
C670 N673 1.377 . S
C670 H690 0.930 . S
C671 N669 1.375 . S
C671 C670 1.338 . S
C671 H675 0.931 . S
C672 N669 1.313 . S
C672 N673 1.344 . S
C672 H676 0.930 . S
N673 C670 1.377 . S
N673 C672 1.344 . S
O674 Co666 2.055 . S
O674 C678 1.253 . S
H675 C671 0.931 . S
H676 C672 0.930 . S
O677 Co666 2.039 . S
O677 C667 1.265 . S
C678 O674 1.253 . S
C678 O679 1.227 . S
O679 C678 1.227 . S
N680 Co666 2.140 . S
N680 C683 1.346 . S
N680 C684 1.345 . S
C681 C682 1.387 . S
C681 C685 1.391 . S
C682 C681 1.387 . S
C682 C683 1.369 . S
C682 H691 0.929 . S
C683 N680 1.346 . S
C683 C682 1.369 . S
C683 H686 0.928 . S
C684 N680 1.345 . S
C684 C685 1.371 . S
C684 H687 0.931 . S
C685 C681 1.391 . S
C685 C684 1.371 . S
C685 H692 0.930 . S
H686 C683 0.928 . S
H687 C684 0.931 . S
H688 C664 0.930 . S
H689 C661 0.930 . S
H690 C670 0.930 . S
H691 C682 0.929 . S
H692 C685 0.930 . S
C693 C694 1.351 . S
C693 N696 1.368 . S
C693 H698 0.931 . S
C694 C693 1.351 . S
C694 N695 1.373 . S
C694 H722 0.930 . S
N695 C694 1.373 . S
N695 C697 1.340 . S
N696 C693 1.368 . S
N696 C697 1.321 . S
N696 Co699 2.135 . S
C697 N695 1.340 . S
C697 N696 1.321 . S
C697 H721 0.930 . S
H698 C693 0.931 . S
Co699 N696 2.135 . S
Co699 N702 2.121 . S
Co699 O707 2.055 . S
Co699 O710 2.039 . S
Co699 N713 2.140 . S
C700 O701 1.227 . S
C700 O710 1.265 . S
O701 C700 1.227 . S
N702 Co699 2.121 . S
N702 C704 1.375 . S
N702 C705 1.313 . S
C703 C704 1.338 . S
C703 N706 1.377 . S
C703 H723 0.930 . S
C704 N702 1.375 . S
C704 C703 1.338 . S
C704 H708 0.931 . S
C705 N702 1.313 . S
C705 N706 1.344 . S
C705 H709 0.930 . S
N706 C703 1.377 . S
N706 C705 1.344 . S
O707 Co699 2.055 . S
O707 C711 1.253 . S
H708 C704 0.931 . S
H709 C705 0.930 . S
O710 Co699 2.039 . S
O710 C700 1.265 . S
C711 O707 1.253 . S
C711 O712 1.227 . S
O712 C711 1.227 . S
N713 Co699 2.140 . S
N713 C716 1.346 . S
N713 C717 1.345 . S
C714 C715 1.387 . S
C714 C718 1.391 . S
C715 C714 1.387 . S
C715 C716 1.369 . S
C715 H724 0.929 . S
C716 N713 1.346 . S
C716 C715 1.369 . S
C716 H719 0.928 . S
C717 N713 1.345 . S
C717 C718 1.371 . S
C717 H720 0.931 . S
C718 C714 1.391 . S
C718 C717 1.371 . S
C718 H725 0.930 . S
H719 C716 0.928 . S
H720 C717 0.931 . S
H721 C697 0.930 . S
H722 C694 0.930 . S
H723 C703 0.930 . S
H724 C715 0.929 . S
H725 C718 0.930 . S
C726 C727 1.351 . S
C726 N729 1.368 . S
C726 H731 0.931 . S
C727 C726 1.351 . S
C727 N728 1.373 . S
C727 H755 0.930 . S
N728 C727 1.373 . S
N728 C730 1.340 . S
N729 C726 1.368 . S
N729 C730 1.321 . S
N729 Co732 2.135 . S
C730 N728 1.340 . S
C730 N729 1.321 . S
C730 H754 0.930 . S
H731 C726 0.931 . S
Co732 N729 2.135 . S
Co732 N735 2.121 . S
Co732 O740 2.055 . S
Co732 O743 2.039 . S
Co732 N746 2.140 . S
C733 O734 1.227 . S
C733 O743 1.265 . S
O734 C733 1.227 . S
N735 Co732 2.121 . S
N735 C737 1.375 . S
N735 C738 1.313 . S
C736 C737 1.338 . S
C736 N739 1.377 . S
C736 H756 0.930 . S
C737 N735 1.375 . S
C737 C736 1.338 . S
C737 H741 0.931 . S
C738 N735 1.313 . S
C738 N739 1.344 . S
C738 H742 0.930 . S
N739 C736 1.377 . S
N739 C738 1.344 . S
O740 Co732 2.055 . S
O740 C744 1.253 . S
H741 C737 0.931 . S
H742 C738 0.930 . S
O743 Co732 2.039 . S
O743 C733 1.265 . S
C744 O740 1.253 . S
C744 O745 1.227 . S
O745 C744 1.227 . S
N746 Co732 2.140 . S
N746 C749 1.346 . S
N746 C750 1.345 . S
C747 C748 1.387 . S
C747 C751 1.391 . S
C748 C747 1.387 . S
C748 C749 1.369 . S
C748 H757 0.929 . S
C749 N746 1.346 . S
C749 C748 1.369 . S
C749 H752 0.928 . S
C750 N746 1.345 . S
C750 C751 1.371 . S
C750 H753 0.931 . S
C751 C747 1.391 . S
C751 C750 1.371 . S
C751 H758 0.930 . S
H752 C749 0.928 . S
H753 C750 0.931 . S
H754 C730 0.930 . S
H755 C727 0.930 . S
H756 C736 0.930 . S
H757 C748 0.929 . S
H758 C751 0.930 . S
C759 C760 1.351 . S
C759 N762 1.368 . S
C759 H764 0.931 . S
C760 C759 1.351 . S
C760 N761 1.373 . S
C760 H788 0.930 . S
N761 C760 1.373 . S
N761 C763 1.340 . S
N762 C759 1.368 . S
N762 C763 1.321 . S
N762 Co765 2.135 . S
C763 N761 1.340 . S
C763 N762 1.321 . S
C763 H787 0.930 . S
H764 C759 0.931 . S
Co765 N762 2.135 . S
Co765 N768 2.121 . S
Co765 O773 2.055 . S
Co765 O776 2.039 . S
Co765 N779 2.140 . S
C766 O767 1.227 . S
C766 O776 1.265 . S
O767 C766 1.227 . S
N768 Co765 2.121 . S
N768 C770 1.375 . S
N768 C771 1.313 . S
C769 C770 1.338 . S
C769 N772 1.377 . S
C769 H789 0.930 . S
C770 N768 1.375 . S
C770 C769 1.338 . S
C770 H774 0.931 . S
C771 N768 1.313 . S
C771 N772 1.344 . S
C771 H775 0.930 . S
N772 C769 1.377 . S
N772 C771 1.344 . S
O773 Co765 2.055 . S
O773 C777 1.253 . S
H774 C770 0.931 . S
H775 C771 0.930 . S
O776 Co765 2.039 . S
O776 C766 1.265 . S
C777 O773 1.253 . S
C777 O778 1.227 . S
O778 C777 1.227 . S
N779 Co765 2.140 . S
N779 C782 1.346 . S
N779 C783 1.345 . S
C780 C781 1.387 . S
C780 C784 1.391 . S
C781 C780 1.387 . S
C781 C782 1.369 . S
C781 H790 0.929 . S
C782 N779 1.346 . S
C782 C781 1.369 . S
C782 H785 0.928 . S
C783 N779 1.345 . S
C783 C784 1.371 . S
C783 H786 0.931 . S
C784 C780 1.391 . S
C784 C783 1.371 . S
C784 H791 0.930 . S
H785 C782 0.928 . S
H786 C783 0.931 . S
H787 C763 0.930 . S
H788 C760 0.930 . S
H789 C769 0.930 . S
H790 C781 0.929 . S
H791 C784 0.930 . S
C792 C793 1.351 . S
C792 N795 1.368 . S
C792 H797 0.931 . S
C793 C792 1.351 . S
C793 N794 1.373 . S
C793 H821 0.930 . S
N794 C793 1.373 . S
N794 C796 1.340 . S
N795 C792 1.368 . S
N795 C796 1.321 . S
N795 Co798 2.135 . S
C796 N794 1.340 . S
C796 N795 1.321 . S
C796 H820 0.930 . S
H797 C792 0.931 . S
Co798 N795 2.135 . S
Co798 N801 2.121 . S
Co798 O806 2.055 . S
Co798 O809 2.039 . S
Co798 N812 2.140 . S
C799 O800 1.227 . S
C799 O809 1.265 . S
O800 C799 1.227 . S
N801 Co798 2.121 . S
N801 C803 1.375 . S
N801 C804 1.313 . S
C802 C803 1.338 . S
C802 N805 1.377 . S
C802 H822 0.930 . S
C803 N801 1.375 . S
C803 C802 1.338 . S
C803 H807 0.931 . S
C804 N801 1.313 . S
C804 N805 1.344 . S
C804 H808 0.930 . S
N805 C802 1.377 . S
N805 C804 1.344 . S
O806 Co798 2.055 . S
O806 C810 1.253 . S
H807 C803 0.931 . S
H808 C804 0.930 . S
O809 Co798 2.039 . S
O809 C799 1.265 . S
C810 O806 1.253 . S
C810 O811 1.227 . S
O811 C810 1.227 . S
N812 Co798 2.140 . S
N812 C815 1.346 . S
N812 C816 1.345 . S
C813 C814 1.387 . S
C813 C817 1.391 . S
C814 C813 1.387 . S
C814 C815 1.369 . S
C814 H823 0.929 . S
C815 N812 1.346 . S
C815 C814 1.369 . S
C815 H818 0.928 . S
C816 N812 1.345 . S
C816 C817 1.371 . S
C816 H819 0.931 . S
C817 C813 1.391 . S
C817 C816 1.371 . S
C817 H824 0.930 . S
H818 C815 0.928 . S
H819 C816 0.931 . S
H820 C796 0.930 . S
H821 C793 0.930 . S
H822 C802 0.930 . S
H823 C814 0.929 . S
H824 C817 0.930 . S
C825 C826 1.351 . S
C825 N828 1.368 . S
C825 H830 0.931 . S
C826 C825 1.351 . S
C826 N827 1.373 . S
C826 H854 0.930 . S
N827 C826 1.373 . S
N827 C829 1.340 . S
N828 C825 1.368 . S
N828 C829 1.321 . S
N828 Co831 2.135 . S
C829 N827 1.340 . S
C829 N828 1.321 . S
C829 H853 0.930 . S
H830 C825 0.931 . S
Co831 N828 2.135 . S
Co831 N834 2.121 . S
Co831 O839 2.055 . S
Co831 O842 2.039 . S
Co831 N845 2.140 . S
C832 O833 1.227 . S
C832 O842 1.265 . S
O833 C832 1.227 . S
N834 Co831 2.121 . S
N834 C836 1.375 . S
N834 C837 1.313 . S
C835 C836 1.338 . S
C835 N838 1.377 . S
C835 H855 0.930 . S
C836 N834 1.375 . S
C836 C835 1.338 . S
C836 H840 0.931 . S
C837 N834 1.313 . S
C837 N838 1.344 . S
C837 H841 0.930 . S
N838 C835 1.377 . S
N838 C837 1.344 . S
O839 Co831 2.055 . S
O839 C843 1.253 . S
H840 C836 0.931 . S
H841 C837 0.930 . S
O842 Co831 2.039 . S
O842 C832 1.265 . S
C843 O839 1.253 . S
C843 O844 1.227 . S
O844 C843 1.227 . S
N845 Co831 2.140 . S
N845 C848 1.346 . S
N845 C849 1.345 . S
C846 C847 1.387 . S
C846 C850 1.391 . S
C847 C846 1.387 . S
C847 C848 1.369 . S
C847 H856 0.929 . S
C848 N845 1.346 . S
C848 C847 1.369 . S
C848 H851 0.928 . S
C849 N845 1.345 . S
C849 C850 1.371 . S
C849 H852 0.931 . S
C850 C846 1.391 . S
C850 C849 1.371 . S
C850 H857 0.930 . S
H851 C848 0.928 . S
H852 C849 0.931 . S
H853 C829 0.930 . S
H854 C826 0.930 . S
H855 C835 0.930 . S
H856 C847 0.929 . S
H857 C850 0.930 . S
C858 C859 1.351 . S
C858 N861 1.368 . S
C858 H863 0.931 . S
C859 C858 1.351 . S
C859 N860 1.373 . S
C859 H887 0.930 . S
N860 C859 1.373 . S
N860 C862 1.340 . S
N861 C858 1.368 . S
N861 C862 1.321 . S
N861 Co864 2.135 . S
C862 N860 1.340 . S
C862 N861 1.321 . S
C862 H886 0.930 . S
H863 C858 0.931 . S
Co864 N861 2.135 . S
Co864 N867 2.121 . S
Co864 O872 2.055 . S
Co864 O875 2.039 . S
Co864 N878 2.140 . S
C865 O866 1.227 . S
C865 O875 1.265 . S
O866 C865 1.227 . S
N867 Co864 2.121 . S
N867 C869 1.375 . S
N867 C870 1.313 . S
C868 C869 1.338 . S
C868 N871 1.377 . S
C868 H888 0.930 . S
C869 N867 1.375 . S
C869 C868 1.338 . S
C869 H873 0.931 . S
C870 N867 1.313 . S
C870 N871 1.344 . S
C870 H874 0.930 . S
N871 C868 1.377 . S
N871 C870 1.344 . S
O872 Co864 2.055 . S
O872 C876 1.253 . S
H873 C869 0.931 . S
H874 C870 0.930 . S
O875 Co864 2.039 . S
O875 C865 1.265 . S
C876 O872 1.253 . S
C876 O877 1.227 . S
O877 C876 1.227 . S
N878 Co864 2.140 . S
N878 C881 1.346 . S
N878 C882 1.345 . S
C879 C880 1.387 . S
C879 C883 1.391 . S
C880 C879 1.387 . S
C880 C881 1.369 . S
C880 H889 0.929 . S
C881 N878 1.346 . S
C881 C880 1.369 . S
C881 H884 0.928 . S
C882 N878 1.345 . S
C882 C883 1.371 . S
C882 H885 0.931 . S
C883 C879 1.391 . S
C883 C882 1.371 . S
C883 H890 0.930 . S
H884 C881 0.928 . S
H885 C882 0.931 . S
H886 C862 0.930 . S
H887 C859 0.930 . S
H888 C868 0.930 . S
H889 C880 0.929 . S
H890 C883 0.930 . S
C891 C892 1.351 . S
C891 N894 1.368 . S
C891 H896 0.931 . S
C892 C891 1.351 . S
C892 N893 1.373 . S
C892 H920 0.930 . S
N893 C892 1.373 . S
N893 C895 1.340 . S
N894 C891 1.368 . S
N894 C895 1.321 . S
N894 Co897 2.135 . S
C895 N893 1.340 . S
C895 N894 1.321 . S
C895 H919 0.930 . S
H896 C891 0.931 . S
Co897 N894 2.135 . S
Co897 N900 2.121 . S
Co897 O905 2.055 . S
Co897 O908 2.039 . S
Co897 N911 2.140 . S
C898 O899 1.227 . S
C898 O908 1.265 . S
O899 C898 1.227 . S
N900 Co897 2.121 . S
N900 C902 1.375 . S
N900 C903 1.313 . S
C901 C902 1.338 . S
C901 N904 1.377 . S
C901 H921 0.930 . S
C902 N900 1.375 . S
C902 C901 1.338 . S
C902 H906 0.931 . S
C903 N900 1.313 . S
C903 N904 1.344 . S
C903 H907 0.930 . S
N904 C901 1.377 . S
N904 C903 1.344 . S
O905 Co897 2.055 . S
O905 C909 1.253 . S
H906 C902 0.931 . S
H907 C903 0.930 . S
O908 Co897 2.039 . S
O908 C898 1.265 . S
C909 O905 1.253 . S
C909 O910 1.227 . S
O910 C909 1.227 . S
N911 Co897 2.140 . S
N911 C914 1.346 . S
N911 C915 1.345 . S
C912 C913 1.387 . S
C912 C916 1.391 . S
C913 C912 1.387 . S
C913 C914 1.369 . S
C913 H922 0.929 . S
C914 N911 1.346 . S
C914 C913 1.369 . S
C914 H917 0.928 . S
C915 N911 1.345 . S
C915 C916 1.371 . S
C915 H918 0.931 . S
C916 C912 1.391 . S
C916 C915 1.371 . S
C916 H923 0.930 . S
H917 C914 0.928 . S
H918 C915 0.931 . S
H919 C895 0.930 . S
H920 C892 0.930 . S
H921 C901 0.930 . S
H922 C913 0.929 . S
H923 C916 0.930 . S
C924 C925 1.351 . S
C924 N927 1.368 . S
C924 H929 0.931 . S
C925 C924 1.351 . S
C925 N926 1.373 . S
C925 H953 0.930 . S
N926 C925 1.373 . S
N926 C928 1.340 . S
N927 C924 1.368 . S
N927 C928 1.321 . S
N927 Co930 2.135 . S
C928 N926 1.340 . S
C928 N927 1.321 . S
C928 H952 0.930 . S
H929 C924 0.931 . S
Co930 N927 2.135 . S
Co930 N933 2.121 . S
Co930 O938 2.055 . S
Co930 O941 2.039 . S
Co930 N944 2.140 . S
C931 O932 1.227 . S
C931 O941 1.265 . S
O932 C931 1.227 . S
N933 Co930 2.121 . S
N933 C935 1.375 . S
N933 C936 1.313 . S
C934 C935 1.338 . S
C934 N937 1.377 . S
C934 H954 0.930 . S
C935 N933 1.375 . S
C935 C934 1.338 . S
C935 H939 0.931 . S
C936 N933 1.313 . S
C936 N937 1.344 . S
C936 H940 0.930 . S
N937 C934 1.377 . S
N937 C936 1.344 . S
O938 Co930 2.055 . S
O938 C942 1.253 . S
H939 C935 0.931 . S
H940 C936 0.930 . S
O941 Co930 2.039 . S
O941 C931 1.265 . S
C942 O938 1.253 . S
C942 O943 1.227 . S
O943 C942 1.227 . S
N944 Co930 2.140 . S
N944 C947 1.346 . S
N944 C948 1.345 . S
C945 C946 1.387 . S
C945 C949 1.391 . S
C946 C945 1.387 . S
C946 C947 1.369 . S
C946 H955 0.929 . S
C947 N944 1.346 . S
C947 C946 1.369 . S
C947 H950 0.928 . S
C948 N944 1.345 . S
C948 C949 1.371 . S
C948 H951 0.931 . S
C949 C945 1.391 . S
C949 C948 1.371 . S
C949 H956 0.930 . S
H950 C947 0.928 . S
H951 C948 0.931 . S
H952 C928 0.930 . S
H953 C925 0.930 . S
H954 C934 0.930 . S
H955 C946 0.929 . S
H956 C949 0.930 . S
C957 C958 1.351 . S
C957 N960 1.368 . S
C957 H962 0.931 . S
C958 C957 1.351 . S
C958 N959 1.373 . S
C958 H986 0.930 . S
N959 C958 1.373 . S
N959 C961 1.340 . S
N960 C957 1.368 . S
N960 C961 1.321 . S
N960 Co963 2.135 . S
C961 N959 1.340 . S
C961 N960 1.321 . S
C961 H985 0.930 . S
H962 C957 0.931 . S
Co963 N960 2.135 . S
Co963 N966 2.121 . S
Co963 O971 2.055 . S
Co963 O974 2.039 . S
Co963 N977 2.140 . S
C964 O965 1.227 . S
C964 O974 1.265 . S
O965 C964 1.227 . S
N966 Co963 2.121 . S
N966 C968 1.375 . S
N966 C969 1.313 . S
C967 C968 1.338 . S
C967 N970 1.377 . S
C967 H987 0.930 . S
C968 N966 1.375 . S
C968 C967 1.338 . S
C968 H972 0.931 . S
C969 N966 1.313 . S
C969 N970 1.344 . S
C969 H973 0.930 . S
N970 C967 1.377 . S
N970 C969 1.344 . S
O971 Co963 2.055 . S
O971 C975 1.253 . S
H972 C968 0.931 . S
H973 C969 0.930 . S
O974 Co963 2.039 . S
O974 C964 1.265 . S
C975 O971 1.253 . S
C975 O976 1.227 . S
O976 C975 1.227 . S
N977 Co963 2.140 . S
N977 C980 1.346 . S
N977 C981 1.345 . S
C978 C979 1.387 . S
C978 C982 1.391 . S
C979 C978 1.387 . S
C979 C980 1.369 . S
C979 H988 0.929 . S
C980 N977 1.346 . S
C980 C979 1.369 . S
C980 H983 0.928 . S
C981 N977 1.345 . S
C981 C982 1.371 . S
C981 H984 0.931 . S
C982 C978 1.391 . S
C982 C981 1.371 . S
C982 H989 0.930 . S
H983 C980 0.928 . S
H984 C981 0.931 . S
H985 C961 0.930 . S
H986 C958 0.930 . S
H987 C967 0.930 . S
H988 C979 0.929 . S
H989 C982 0.930 . S
C990 C991 1.351 . S
C990 N993 1.368 . S
C990 H995 0.931 . S
C991 C990 1.351 . S
C991 N992 1.373 . S
C991 H1019 0.930 . S
N992 C991 1.373 . S
N992 C994 1.340 . S
N993 C990 1.368 . S
N993 C994 1.321 . S
N993 Co996 2.135 . S
C994 N992 1.340 . S
C994 N993 1.321 . S
C994 H1018 0.930 . S
H995 C990 0.931 . S
Co996 N993 2.135 . S
Co996 N999 2.121 . S
Co996 O1004 2.055 . S
Co996 O1007 2.039 . S
Co996 N1010 2.140 . S
C997 O998 1.227 . S
C997 O1007 1.265 . S
O998 C997 1.227 . S
N999 Co996 2.121 . S
N999 C1001 1.375 . S
N999 C1002 1.313 . S
C1000 C1001 1.338 . S
C1000 N1003 1.377 . S
C1000 H1020 0.930 . S
C1001 N999 1.375 . S
C1001 C1000 1.338 . S
C1001 H1005 0.931 . S
C1002 N999 1.313 . S
C1002 N1003 1.344 . S
C1002 H1006 0.930 . S
N1003 C1000 1.377 . S
N1003 C1002 1.344 . S
O1004 Co996 2.055 . S
O1004 C1008 1.253 . S
H1005 C1001 0.931 . S
H1006 C1002 0.930 . S
O1007 Co996 2.039 . S
O1007 C997 1.265 . S
C1008 O1004 1.253 . S
C1008 O1009 1.227 . S
O1009 C1008 1.227 . S
N1010 Co996 2.140 . S
N1010 C1013 1.346 . S
N1010 C1014 1.345 . S
C1011 C1012 1.387 . S
C1011 C1015 1.391 . S
C1012 C1011 1.387 . S
C1012 C1013 1.369 . S
C1012 H1021 0.929 . S
C1013 N1010 1.346 . S
C1013 C1012 1.369 . S
C1013 H1016 0.928 . S
C1014 N1010 1.345 . S
C1014 C1015 1.371 . S
C1014 H1017 0.931 . S
C1015 C1011 1.391 . S
C1015 C1014 1.371 . S
C1015 H1022 0.930 . S
H1016 C1013 0.928 . S
H1017 C1014 0.931 . S
H1018 C994 0.930 . S
H1019 C991 0.930 . S
H1020 C1000 0.930 . S
H1021 C1012 0.929 . S
H1022 C1015 0.930 . S
C1023 C1024 1.351 . S
C1023 N1026 1.368 . S
C1023 H1028 0.931 . S
C1024 C1023 1.351 . S
C1024 N1025 1.373 . S
C1024 H1052 0.930 . S
N1025 C1024 1.373 . S
N1025 C1027 1.340 . S
N1026 C1023 1.368 . S
N1026 C1027 1.321 . S
N1026 Co1029 2.135 . S
C1027 N1025 1.340 . S
C1027 N1026 1.321 . S
C1027 H1051 0.930 . S
H1028 C1023 0.931 . S
Co1029 N1026 2.135 . S
Co1029 N1032 2.121 . S
Co1029 O1037 2.055 . S
Co1029 O1040 2.039 . S
Co1029 N1043 2.140 . S
C1030 O1031 1.227 . S
C1030 O1040 1.265 . S
O1031 C1030 1.227 . S
N1032 Co1029 2.121 . S
N1032 C1034 1.375 . S
N1032 C1035 1.313 . S
C1033 C1034 1.338 . S
C1033 N1036 1.377 . S
C1033 H1053 0.930 . S
C1034 N1032 1.375 . S
C1034 C1033 1.338 . S
C1034 H1038 0.931 . S
C1035 N1032 1.313 . S
C1035 N1036 1.344 . S
C1035 H1039 0.930 . S
N1036 C1033 1.377 . S
N1036 C1035 1.344 . S
O1037 Co1029 2.055 . S
O1037 C1041 1.253 . S
H1038 C1034 0.931 . S
H1039 C1035 0.930 . S
O1040 Co1029 2.039 . S
O1040 C1030 1.265 . S
C1041 O1037 1.253 . S
C1041 O1042 1.227 . S
O1042 C1041 1.227 . S
N1043 Co1029 2.140 . S
N1043 C1046 1.346 . S
N1043 C1047 1.345 . S
C1044 C1045 1.387 . S
C1044 C1048 1.391 . S
C1045 C1044 1.387 . S
C1045 C1046 1.369 . S
C1045 H1054 0.929 . S
C1046 N1043 1.346 . S
C1046 C1045 1.369 . S
C1046 H1049 0.928 . S
C1047 N1043 1.345 . S
C1047 C1048 1.371 . S
C1047 H1050 0.931 . S
C1048 C1044 1.391 . S
C1048 C1047 1.371 . S
C1048 H1055 0.930 . S
H1049 C1046 0.928 . S
H1050 C1047 0.931 . S
H1051 C1027 0.930 . S
H1052 C1024 0.930 . S
H1053 C1033 0.930 . S
H1054 C1045 0.929 . S
H1055 C1048 0.930 . S
C1056 C1057 1.351 . S
C1056 N1059 1.368 . S
C1056 H1061 0.931 . S
C1057 C1056 1.351 . S
C1057 N1058 1.373 . S
C1057 H1085 0.930 . S
N1058 C1057 1.373 . S
N1058 C1060 1.340 . S
N1059 C1056 1.368 . S
N1059 C1060 1.321 . S
N1059 Co1062 2.135 . S
C1060 N1058 1.340 . S
C1060 N1059 1.321 . S
C1060 H1084 0.930 . S
H1061 C1056 0.931 . S
Co1062 N1059 2.135 . S
Co1062 N1065 2.121 . S
Co1062 O1070 2.055 . S
Co1062 O1073 2.039 . S
Co1062 N1076 2.140 . S
C1063 O1064 1.227 . S
C1063 O1073 1.265 . S
O1064 C1063 1.227 . S
N1065 Co1062 2.121 . S
N1065 C1067 1.375 . S
N1065 C1068 1.313 . S
C1066 C1067 1.338 . S
C1066 N1069 1.377 . S
C1066 H1086 0.930 . S
C1067 N1065 1.375 . S
C1067 C1066 1.338 . S
C1067 H1071 0.931 . S
C1068 N1065 1.313 . S
C1068 N1069 1.344 . S
C1068 H1072 0.930 . S
N1069 C1066 1.377 . S
N1069 C1068 1.344 . S
O1070 Co1062 2.055 . S
O1070 C1074 1.253 . S
H1071 C1067 0.931 . S
H1072 C1068 0.930 . S
O1073 Co1062 2.039 . S
O1073 C1063 1.265 . S
C1074 O1070 1.253 . S
C1074 O1075 1.227 . S
O1075 C1074 1.227 . S
N1076 Co1062 2.140 . S
N1076 C1079 1.346 . S
N1076 C1080 1.345 . S
C1077 C1078 1.387 . S
C1077 C1081 1.391 . S
C1078 C1077 1.387 . S
C1078 C1079 1.369 . S
C1078 H1087 0.929 . S
C1079 N1076 1.346 . S
C1079 C1078 1.369 . S
C1079 H1082 0.928 . S
C1080 N1076 1.345 . S
C1080 C1081 1.371 . S
C1080 H1083 0.931 . S
C1081 C1077 1.391 . S
C1081 C1080 1.371 . S
C1081 H1088 0.930 . S
H1082 C1079 0.928 . S
H1083 C1080 0.931 . S
H1084 C1060 0.930 . S
H1085 C1057 0.930 . S
H1086 C1066 0.930 . S
H1087 C1078 0.929 . S
H1088 C1081 0.930 . S
C1089 C1090 1.351 . S
C1089 N1092 1.368 . S
C1089 H1094 0.931 . S
C1090 C1089 1.351 . S
C1090 N1091 1.373 . S
C1090 H1118 0.930 . S
N1091 C1090 1.373 . S
N1091 C1093 1.340 . S
N1092 C1089 1.368 . S
N1092 C1093 1.321 . S
N1092 Co1095 2.135 . S
C1093 N1091 1.340 . S
C1093 N1092 1.321 . S
C1093 H1117 0.930 . S
H1094 C1089 0.931 . S
Co1095 N1092 2.135 . S
Co1095 N1098 2.121 . S
Co1095 O1103 2.055 . S
Co1095 O1106 2.039 . S
Co1095 N1109 2.140 . S
C1096 O1097 1.227 . S
C1096 O1106 1.265 . S
O1097 C1096 1.227 . S
N1098 Co1095 2.121 . S
N1098 C1100 1.375 . S
N1098 C1101 1.313 . S
C1099 C1100 1.338 . S
C1099 N1102 1.377 . S
C1099 H1119 0.930 . S
C1100 N1098 1.375 . S
C1100 C1099 1.338 . S
C1100 H1104 0.931 . S
C1101 N1098 1.313 . S
C1101 N1102 1.344 . S
C1101 H1105 0.930 . S
N1102 C1099 1.377 . S
N1102 C1101 1.344 . S
O1103 Co1095 2.055 . S
O1103 C1107 1.253 . S
H1104 C1100 0.931 . S
H1105 C1101 0.930 . S
O1106 Co1095 2.039 . S
O1106 C1096 1.265 . S
C1107 O1103 1.253 . S
C1107 O1108 1.227 . S
O1108 C1107 1.227 . S
N1109 Co1095 2.140 . S
N1109 C1112 1.346 . S
N1109 C1113 1.345 . S
C1110 C1111 1.387 . S
C1110 C1114 1.391 . S
C1111 C1110 1.387 . S
C1111 C1112 1.369 . S
C1111 H1120 0.929 . S
C1112 N1109 1.346 . S
C1112 C1111 1.369 . S
C1112 H1115 0.928 . S
C1113 N1109 1.345 . S
C1113 C1114 1.371 . S
C1113 H1116 0.931 . S
C1114 C1110 1.391 . S
C1114 C1113 1.371 . S
C1114 H1121 0.930 . S
H1115 C1112 0.928 . S
H1116 C1113 0.931 . S
H1117 C1093 0.930 . S
H1118 C1090 0.930 . S
H1119 C1099 0.930 . S
H1120 C1111 0.929 . S
H1121 C1114 0.930 . S
C1122 C1123 1.351 . S
C1122 N1125 1.368 . S
C1122 H1127 0.931 . S
C1123 C1122 1.351 . S
C1123 N1124 1.373 . S
C1123 H1151 0.930 . S
N1124 C1123 1.373 . S
N1124 C1126 1.340 . S
N1125 C1122 1.368 . S
N1125 C1126 1.321 . S
N1125 Co1128 2.135 . S
C1126 N1124 1.340 . S
C1126 N1125 1.321 . S
C1126 H1150 0.930 . S
H1127 C1122 0.931 . S
Co1128 N1125 2.135 . S
Co1128 N1131 2.121 . S
Co1128 O1136 2.055 . S
Co1128 O1139 2.039 . S
Co1128 N1142 2.140 . S
C1129 O1130 1.227 . S
C1129 O1139 1.265 . S
O1130 C1129 1.227 . S
N1131 Co1128 2.121 . S
N1131 C1133 1.375 . S
N1131 C1134 1.313 . S
C1132 C1133 1.338 . S
C1132 N1135 1.377 . S
C1132 H1152 0.930 . S
C1133 N1131 1.375 . S
C1133 C1132 1.338 . S
C1133 H1137 0.931 . S
C1134 N1131 1.313 . S
C1134 N1135 1.344 . S
C1134 H1138 0.930 . S
N1135 C1132 1.377 . S
N1135 C1134 1.344 . S
O1136 Co1128 2.055 . S
O1136 C1140 1.253 . S
H1137 C1133 0.931 . S
H1138 C1134 0.930 . S
O1139 Co1128 2.039 . S
O1139 C1129 1.265 . S
C1140 O1136 1.253 . S
C1140 O1141 1.227 . S
O1141 C1140 1.227 . S
N1142 Co1128 2.140 . S
N1142 C1145 1.346 . S
N1142 C1146 1.345 . S
C1143 C1144 1.387 . S
C1143 C1147 1.391 . S
C1144 C1143 1.387 . S
C1144 C1145 1.369 . S
C1144 H1153 0.929 . S
C1145 N1142 1.346 . S
C1145 C1144 1.369 . S
C1145 H1148 0.928 . S
C1146 N1142 1.345 . S
C1146 C1147 1.371 . S
C1146 H1149 0.931 . S
C1147 C1143 1.391 . S
C1147 C1146 1.371 . S
C1147 H1154 0.930 . S
H1148 C1145 0.928 . S
H1149 C1146 0.931 . S
H1150 C1126 0.930 . S
H1151 C1123 0.930 . S
H1152 C1132 0.930 . S
H1153 C1144 0.929 . S
H1154 C1147 0.930 . S
C1155 C1156 1.351 . S
C1155 N1158 1.368 . S
C1155 H1160 0.931 . S
C1156 C1155 1.351 . S
C1156 N1157 1.373 . S
C1156 H1184 0.930 . S
N1157 C1156 1.373 . S
N1157 C1159 1.340 . S
N1158 C1155 1.368 . S
N1158 C1159 1.321 . S
N1158 Co1161 2.135 . S
C1159 N1157 1.340 . S
C1159 N1158 1.321 . S
C1159 H1183 0.930 . S
H1160 C1155 0.931 . S
Co1161 N1158 2.135 . S
Co1161 N1164 2.121 . S
Co1161 O1169 2.055 . S
Co1161 O1172 2.039 . S
Co1161 N1175 2.140 . S
C1162 O1163 1.227 . S
C1162 O1172 1.265 . S
O1163 C1162 1.227 . S
N1164 Co1161 2.121 . S
N1164 C1166 1.375 . S
N1164 C1167 1.313 . S
C1165 C1166 1.338 . S
C1165 N1168 1.377 . S
C1165 H1185 0.930 . S
C1166 N1164 1.375 . S
C1166 C1165 1.338 . S
C1166 H1170 0.931 . S
C1167 N1164 1.313 . S
C1167 N1168 1.344 . S
C1167 H1171 0.930 . S
N1168 C1165 1.377 . S
N1168 C1167 1.344 . S
O1169 Co1161 2.055 . S
O1169 C1173 1.253 . S
H1170 C1166 0.931 . S
H1171 C1167 0.930 . S
O1172 Co1161 2.039 . S
O1172 C1162 1.265 . S
C1173 O1169 1.253 . S
C1173 O1174 1.227 . S
O1174 C1173 1.227 . S
N1175 Co1161 2.140 . S
N1175 C1178 1.346 . S
N1175 C1179 1.345 . S
C1176 C1177 1.387 . S
C1176 C1180 1.391 . S
C1177 C1176 1.387 . S
C1177 C1178 1.369 . S
C1177 H1186 0.929 . S
C1178 N1175 1.346 . S
C1178 C1177 1.369 . S
C1178 H1181 0.928 . S
C1179 N1175 1.345 . S
C1179 C1180 1.371 . S
C1179 H1182 0.931 . S
C1180 C1176 1.391 . S
C1180 C1179 1.371 . S
C1180 H1187 0.930 . S
H1181 C1178 0.928 . S
H1182 C1179 0.931 . S
H1183 C1159 0.930 . S
H1184 C1156 0.930 . S
H1185 C1165 0.930 . S
H1186 C1177 0.929 . S
H1187 C1180 0.930 . S
C1188 C1189 1.349 . S
C1188 C1190 1.327 . S
C1188 H1213 0.950 . S
C1189 C1188 1.349 . S
C1189 C1205 1.349 . S
C1190 C1188 1.327 . S
C1190 C1209 1.429 . S
C1190 H1214 0.950 . S
C1191 C1208 1.574 . S
C1191 C1210 1.368 . S
C1191 H1215 0.949 . S
H1192 C1196 0.949 . S
C1193 C1194 1.349 . S
C1193 C1195 1.327 . S
C1193 H1216 0.950 . S
C1194 C1193 1.349 . S
C1194 C1206 1.349 . S
C1195 C1193 1.327 . S
C1195 C1211 1.429 . S
C1195 H1217 0.950 . S
C1196 H1192 0.949 . S
C1196 C1204 1.574 . S
C1196 C1212 1.368 . S
H1197 C1205 0.950 . S
H1198 C1203 0.950 . S
H1199 C1204 0.949 . S
H1200 C1206 0.950 . S
H1201 C1207 0.950 . S
H1202 C1208 0.949 . S
C1203 H1198 0.950 . S
C1203 C1205 1.327 . S
C1203 C1209 1.429 . S
C1204 C1196 1.574 . S
C1204 H1199 0.949 . S
C1204 C1210 1.368 . S
C1205 C1189 1.349 . S
C1205 H1197 0.950 . S
C1205 C1203 1.327 . S
C1206 C1194 1.349 . S
C1206 H1200 0.950 . S
C1206 C1207 1.327 . S
C1207 H1201 0.950 . S
C1207 C1206 1.327 . S
C1207 C1211 1.429 . S
C1208 C1191 1.574 . S
C1208 H1202 0.949 . S
C1208 C1212 1.368 . S
C1209 C1190 1.429 . S
C1209 C1203 1.429 . S
C1209 C1210 1.523 . S
C1210 C1191 1.368 . S
C1210 C1204 1.368 . S
C1210 C1209 1.523 . S
C1211 C1195 1.429 . S
C1211 C1207 1.429 . S
C1211 C1212 1.523 . S
C1212 C1196 1.368 . S
C1212 C1208 1.368 . S
C1212 C1211 1.523 . S
H1213 C1188 0.950 . S
H1214 C1190 0.950 . S
H1215 C1191 0.949 . S
H1216 C1193 0.950 . S
H1217 C1195 0.950 . S
C1218 C1219 1.349 . S
C1218 C1220 1.327 . S
C1218 H1243 0.950 . S
C1219 C1218 1.349 . S
C1219 C1235 1.349 . S
C1220 C1218 1.327 . S
C1220 C1239 1.429 . S
C1220 H1244 0.950 . S
C1221 C1238 1.574 . S
C1221 C1240 1.368 . S
C1221 H1245 0.949 . S
H1222 C1226 0.949 . S
C1223 C1224 1.349 . S
C1223 C1225 1.327 . S
C1223 H1246 0.950 . S
C1224 C1223 1.349 . S
C1224 C1236 1.349 . S
C1225 C1223 1.327 . S
C1225 C1241 1.429 . S
C1225 H1247 0.950 . S
C1226 H1222 0.949 . S
C1226 C1234 1.574 . S
C1226 C1242 1.368 . S
H1227 C1235 0.950 . S
H1228 C1233 0.950 . S
H1229 C1234 0.949 . S
H1230 C1236 0.950 . S
H1231 C1237 0.950 . S
H1232 C1238 0.949 . S
C1233 H1228 0.950 . S
C1233 C1235 1.327 . S
C1233 C1239 1.429 . S
C1234 C1226 1.574 . S
C1234 H1229 0.949 . S
C1234 C1240 1.368 . S
C1235 C1219 1.349 . S
C1235 H1227 0.950 . S
C1235 C1233 1.327 . S
C1236 C1224 1.349 . S
C1236 H1230 0.950 . S
C1236 C1237 1.327 . S
C1237 H1231 0.950 . S
C1237 C1236 1.327 . S
C1237 C1241 1.429 . S
C1238 C1221 1.574 . S
C1238 H1232 0.949 . S
C1238 C1242 1.368 . S
C1239 C1220 1.429 . S
C1239 C1233 1.429 . S
C1239 C1240 1.523 . S
C1240 C1221 1.368 . S
C1240 C1234 1.368 . S
C1240 C1239 1.523 . S
C1241 C1225 1.429 . S
C1241 C1237 1.429 . S
C1241 C1242 1.523 . S
C1242 C1226 1.368 . S
C1242 C1238 1.368 . S
C1242 C1241 1.523 . S
H1243 C1218 0.950 . S
H1244 C1220 0.950 . S
H1245 C1221 0.949 . S
H1246 C1223 0.950 . S
H1247 C1225 0.950 . S
C1248 C1249 1.349 . S
C1248 C1250 1.327 . S
C1248 H1273 0.950 . S
C1249 C1248 1.349 . S
C1249 C1265 1.349 . S
C1250 C1248 1.327 . S
C1250 C1269 1.429 . S
C1250 H1274 0.950 . S
C1251 C1268 1.574 . S
C1251 C1270 1.368 . S
C1251 H1275 0.949 . S
H1252 C1256 0.949 . S
C1253 C1254 1.349 . S
C1253 C1255 1.327 . S
C1253 H1276 0.950 . S
C1254 C1253 1.349 . S
C1254 C1266 1.349 . S
C1255 C1253 1.327 . S
C1255 C1271 1.429 . S
C1255 H1277 0.950 . S
C1256 H1252 0.949 . S
C1256 C1264 1.574 . S
C1256 C1272 1.368 . S
H1257 C1265 0.950 . S
H1258 C1263 0.950 . S
H1259 C1264 0.949 . S
H1260 C1266 0.950 . S
H1261 C1267 0.950 . S
H1262 C1268 0.949 . S
C1263 H1258 0.950 . S
C1263 C1265 1.327 . S
C1263 C1269 1.429 . S
C1264 C1256 1.574 . S
C1264 H1259 0.949 . S
C1264 C1270 1.368 . S
C1265 C1249 1.349 . S
C1265 H1257 0.950 . S
C1265 C1263 1.327 . S
C1266 C1254 1.349 . S
C1266 H1260 0.950 . S
C1266 C1267 1.327 . S
C1267 H1261 0.950 . S
C1267 C1266 1.327 . S
C1267 C1271 1.429 . S
C1268 C1251 1.574 . S
C1268 H1262 0.949 . S
C1268 C1272 1.368 . S
C1269 C1250 1.429 . S
C1269 C1263 1.429 . S
C1269 C1270 1.523 . S
C1270 C1251 1.368 . S
C1270 C1264 1.368 . S
C1270 C1269 1.523 . S
C1271 C1255 1.429 . S
C1271 C1267 1.429 . S
C1271 C1272 1.523 . S
C1272 C1256 1.368 . S
C1272 C1268 1.368 . S
C1272 C1271 1.523 . S
H1273 C1248 0.950 . S
H1274 C1250 0.950 . S
H1275 C1251 0.949 . S
H1276 C1253 0.950 . S
H1277 C1255 0.950 . S
C1278 C1279 1.349 . S
C1278 C1280 1.327 . S
C1278 H1303 0.950 . S
C1279 C1278 1.349 . S
C1279 C1295 1.349 . S
C1280 C1278 1.327 . S
C1280 C1299 1.429 . S
C1280 H1304 0.950 . S
C1281 C1298 1.574 . S
C1281 C1300 1.368 . S
C1281 H1305 0.949 . S
H1282 C1286 0.949 . S
C1283 C1284 1.349 . S
C1283 C1285 1.327 . S
C1283 H1306 0.950 . S
C1284 C1283 1.349 . S
C1284 C1296 1.349 . S
C1285 C1283 1.327 . S
C1285 C1301 1.429 . S
C1285 H1307 0.950 . S
C1286 H1282 0.949 . S
C1286 C1294 1.574 . S
C1286 C1302 1.368 . S
H1287 C1295 0.950 . S
H1288 C1293 0.950 . S
H1289 C1294 0.949 . S
H1290 C1296 0.950 . S
H1291 C1297 0.950 . S
H1292 C1298 0.949 . S
C1293 H1288 0.950 . S
C1293 C1295 1.327 . S
C1293 C1299 1.429 . S
C1294 C1286 1.574 . S
C1294 H1289 0.949 . S
C1294 C1300 1.368 . S
C1295 C1279 1.349 . S
C1295 H1287 0.950 . S
C1295 C1293 1.327 . S
C1296 C1284 1.349 . S
C1296 H1290 0.950 . S
C1296 C1297 1.327 . S
C1297 H1291 0.950 . S
C1297 C1296 1.327 . S
C1297 C1301 1.429 . S
C1298 C1281 1.574 . S
C1298 H1292 0.949 . S
C1298 C1302 1.368 . S
C1299 C1280 1.429 . S
C1299 C1293 1.429 . S
C1299 C1300 1.523 . S
C1300 C1281 1.368 . S
C1300 C1294 1.368 . S
C1300 C1299 1.523 . S
C1301 C1285 1.429 . S
C1301 C1297 1.429 . S
C1301 C1302 1.523 . S
C1302 C1286 1.368 . S
C1302 C1298 1.368 . S
C1302 C1301 1.523 . S
H1303 C1278 0.950 . S
H1304 C1280 0.950 . S
H1305 C1281 0.949 . S
H1306 C1283 0.950 . S
H1307 C1285 0.950 . S
C1308 C1309 1.349 . S
C1308 C1310 1.327 . S
C1308 H1333 0.950 . S
C1309 C1308 1.349 . S
C1309 C1325 1.349 . S
C1310 C1308 1.327 . S
C1310 C1329 1.429 . S
C1310 H1334 0.950 . S
C1311 C1328 1.574 . S
C1311 C1330 1.368 . S
C1311 H1335 0.949 . S
H1312 C1316 0.949 . S
C1313 C1314 1.349 . S
C1313 C1315 1.327 . S
C1313 H1336 0.950 . S
C1314 C1313 1.349 . S
C1314 C1326 1.349 . S
C1315 C1313 1.327 . S
C1315 C1331 1.429 . S
C1315 H1337 0.950 . S
C1316 H1312 0.949 . S
C1316 C1324 1.574 . S
C1316 C1332 1.368 . S
H1317 C1325 0.950 . S
H1318 C1323 0.950 . S
H1319 C1324 0.949 . S
H1320 C1326 0.950 . S
H1321 C1327 0.950 . S
H1322 C1328 0.949 . S
C1323 H1318 0.950 . S
C1323 C1325 1.327 . S
C1323 C1329 1.429 . S
C1324 C1316 1.574 . S
C1324 H1319 0.949 . S
C1324 C1330 1.368 . S
C1325 C1309 1.349 . S
C1325 H1317 0.950 . S
C1325 C1323 1.327 . S
C1326 C1314 1.349 . S
C1326 H1320 0.950 . S
C1326 C1327 1.327 . S
C1327 H1321 0.950 . S
C1327 C1326 1.327 . S
C1327 C1331 1.429 . S
C1328 C1311 1.574 . S
C1328 H1322 0.949 . S
C1328 C1332 1.368 . S
C1329 C1310 1.429 . S
C1329 C1323 1.429 . S
C1329 C1330 1.523 . S
C1330 C1311 1.368 . S
C1330 C1324 1.368 . S
C1330 C1329 1.523 . S
C1331 C1315 1.429 . S
C1331 C1327 1.429 . S
C1331 C1332 1.523 . S
C1332 C1316 1.368 . S
C1332 C1328 1.368 . S
C1332 C1331 1.523 . S
H1333 C1308 0.950 . S
H1334 C1310 0.950 . S
H1335 C1311 0.949 . S
H1336 C1313 0.950 . S
H1337 C1315 0.950 . S
C1338 C1339 1.349 . S
C1338 C1340 1.327 . S
C1338 H1363 0.950 . S
C1339 C1338 1.349 . S
C1339 C1355 1.349 . S
C1340 C1338 1.327 . S
C1340 C1359 1.429 . S
C1340 H1364 0.950 . S
C1341 C1358 1.574 . S
C1341 C1360 1.368 . S
C1341 H1365 0.949 . S
H1342 C1346 0.949 . S
C1343 C1344 1.349 . S
C1343 C1345 1.327 . S
C1343 H1366 0.950 . S
C1344 C1343 1.349 . S
C1344 C1356 1.349 . S
C1345 C1343 1.327 . S
C1345 C1361 1.429 . S
C1345 H1367 0.950 . S
C1346 H1342 0.949 . S
C1346 C1354 1.574 . S
C1346 C1362 1.368 . S
H1347 C1355 0.950 . S
H1348 C1353 0.950 . S
H1349 C1354 0.949 . S
H1350 C1356 0.950 . S
H1351 C1357 0.950 . S
H1352 C1358 0.949 . S
C1353 H1348 0.950 . S
C1353 C1355 1.327 . S
C1353 C1359 1.429 . S
C1354 C1346 1.574 . S
C1354 H1349 0.949 . S
C1354 C1360 1.368 . S
C1355 C1339 1.349 . S
C1355 H1347 0.950 . S
C1355 C1353 1.327 . S
C1356 C1344 1.349 . S
C1356 H1350 0.950 . S
C1356 C1357 1.327 . S
C1357 H1351 0.950 . S
C1357 C1356 1.327 . S
C1357 C1361 1.429 . S
C1358 C1341 1.574 . S
C1358 H1352 0.949 . S
C1358 C1362 1.368 . S
C1359 C1340 1.429 . S
C1359 C1353 1.429 . S
C1359 C1360 1.523 . S
C1360 C1341 1.368 . S
C1360 C1354 1.368 . S
C1360 C1359 1.523 . S
C1361 C1345 1.429 . S
C1361 C1357 1.429 . S
C1361 C1362 1.523 . S
C1362 C1346 1.368 . S
C1362 C1358 1.368 . S
C1362 C1361 1.523 . S
H1363 C1338 0.950 . S
H1364 C1340 0.950 . S
H1365 C1341 0.949 . S
H1366 C1343 0.950 . S
H1367 C1345 0.950 . S
C1368 C1369 1.349 . S
C1368 C1370 1.327 . S
C1368 H1393 0.950 . S
C1369 C1368 1.349 . S
C1369 C1385 1.349 . S
C1370 C1368 1.327 . S
C1370 C1389 1.429 . S
C1370 H1394 0.950 . S
C1371 C1388 1.574 . S
C1371 C1390 1.368 . S
C1371 H1395 0.949 . S
H1372 C1376 0.949 . S
C1373 C1374 1.349 . S
C1373 C1375 1.327 . S
C1373 H1396 0.950 . S
C1374 C1373 1.349 . S
C1374 C1386 1.349 . S
C1375 C1373 1.327 . S
C1375 C1391 1.429 . S
C1375 H1397 0.950 . S
C1376 H1372 0.949 . S
C1376 C1384 1.574 . S
C1376 C1392 1.368 . S
H1377 C1385 0.950 . S
H1378 C1383 0.950 . S
H1379 C1384 0.949 . S
H1380 C1386 0.950 . S
H1381 C1387 0.950 . S
H1382 C1388 0.949 . S
C1383 H1378 0.950 . S
C1383 C1385 1.327 . S
C1383 C1389 1.429 . S
C1384 C1376 1.574 . S
C1384 H1379 0.949 . S
C1384 C1390 1.368 . S
C1385 C1369 1.349 . S
C1385 H1377 0.950 . S
C1385 C1383 1.327 . S
C1386 C1374 1.349 . S
C1386 H1380 0.950 . S
C1386 C1387 1.327 . S
C1387 H1381 0.950 . S
C1387 C1386 1.327 . S
C1387 C1391 1.429 . S
C1388 C1371 1.574 . S
C1388 H1382 0.949 . S
C1388 C1392 1.368 . S
C1389 C1370 1.429 . S
C1389 C1383 1.429 . S
C1389 C1390 1.523 . S
C1390 C1371 1.368 . S
C1390 C1384 1.368 . S
C1390 C1389 1.523 . S
C1391 C1375 1.429 . S
C1391 C1387 1.429 . S
C1391 C1392 1.523 . S
C1392 C1376 1.368 . S
C1392 C1388 1.368 . S
C1392 C1391 1.523 . S
H1393 C1368 0.950 . S
H1394 C1370 0.950 . S
H1395 C1371 0.949 . S
H1396 C1373 0.950 . S
H1397 C1375 0.950 . S
C1398 C1399 1.349 . S
C1398 C1400 1.327 . S
C1398 H1423 0.950 . S
C1399 C1398 1.349 . S
C1399 C1415 1.349 . S
C1400 C1398 1.327 . S
C1400 C1419 1.429 . S
C1400 H1424 0.950 . S
C1401 C1418 1.574 . S
C1401 C1420 1.368 . S
C1401 H1425 0.949 . S
H1402 C1406 0.949 . S
C1403 C1404 1.349 . S
C1403 C1405 1.327 . S
C1403 H1426 0.950 . S
C1404 C1403 1.349 . S
C1404 C1416 1.349 . S
C1405 C1403 1.327 . S
C1405 C1421 1.429 . S
C1405 H1427 0.950 . S
C1406 H1402 0.949 . S
C1406 C1414 1.574 . S
C1406 C1422 1.368 . S
H1407 C1415 0.950 . S
H1408 C1413 0.950 . S
H1409 C1414 0.949 . S
H1410 C1416 0.950 . S
H1411 C1417 0.950 . S
H1412 C1418 0.949 . S
C1413 H1408 0.950 . S
C1413 C1415 1.327 . S
C1413 C1419 1.429 . S
C1414 C1406 1.574 . S
C1414 H1409 0.949 . S
C1414 C1420 1.368 . S
C1415 C1399 1.349 . S
C1415 H1407 0.950 . S
C1415 C1413 1.327 . S
C1416 C1404 1.349 . S
C1416 H1410 0.950 . S
C1416 C1417 1.327 . S
C1417 H1411 0.950 . S
C1417 C1416 1.327 . S
C1417 C1421 1.429 . S
C1418 C1401 1.574 . S
C1418 H1412 0.949 . S
C1418 C1422 1.368 . S
C1419 C1400 1.429 . S
C1419 C1413 1.429 . S
C1419 C1420 1.523 . S
C1420 C1401 1.368 . S
C1420 C1414 1.368 . S
C1420 C1419 1.523 . S
C1421 C1405 1.429 . S
C1421 C1417 1.429 . S
C1421 C1422 1.523 . S
C1422 C1406 1.368 . S
C1422 C1418 1.368 . S
C1422 C1421 1.523 . S
H1423 C1398 0.950 . S
H1424 C1400 0.950 . S
H1425 C1401 0.949 . S
H1426 C1403 0.950 . S
H1427 C1405 0.950 . S
C1428 C1429 1.349 . S
C1428 C1430 1.327 . S
C1428 H1453 0.950 . S
C1429 C1428 1.349 . S
C1429 C1445 1.349 . S
C1430 C1428 1.327 . S
C1430 C1449 1.429 . S
C1430 H1454 0.950 . S
C1431 C1448 1.574 . S
C1431 C1450 1.368 . S
C1431 H1455 0.949 . S
H1432 C1436 0.949 . S
C1433 C1434 1.349 . S
C1433 C1435 1.327 . S
C1433 H1456 0.950 . S
C1434 C1433 1.349 . S
C1434 C1446 1.349 . S
C1435 C1433 1.327 . S
C1435 C1451 1.429 . S
C1435 H1457 0.950 . S
C1436 H1432 0.949 . S
C1436 C1444 1.574 . S
C1436 C1452 1.368 . S
H1437 C1445 0.950 . S
H1438 C1443 0.950 . S
H1439 C1444 0.949 . S
H1440 C1446 0.950 . S
H1441 C1447 0.950 . S
H1442 C1448 0.949 . S
C1443 H1438 0.950 . S
C1443 C1445 1.327 . S
C1443 C1449 1.429 . S
C1444 C1436 1.574 . S
C1444 H1439 0.949 . S
C1444 C1450 1.368 . S
C1445 C1429 1.349 . S
C1445 H1437 0.950 . S
C1445 C1443 1.327 . S
C1446 C1434 1.349 . S
C1446 H1440 0.950 . S
C1446 C1447 1.327 . S
C1447 H1441 0.950 . S
C1447 C1446 1.327 . S
C1447 C1451 1.429 . S
C1448 C1431 1.574 . S
C1448 H1442 0.949 . S
C1448 C1452 1.368 . S
C1449 C1430 1.429 . S
C1449 C1443 1.429 . S
C1449 C1450 1.523 . S
C1450 C1431 1.368 . S
C1450 C1444 1.368 . S
C1450 C1449 1.523 . S
C1451 C1435 1.429 . S
C1451 C1447 1.429 . S
C1451 C1452 1.523 . S
C1452 C1436 1.368 . S
C1452 C1448 1.368 . S
C1452 C1451 1.523 . S
H1453 C1428 0.950 . S
H1454 C1430 0.950 . S
H1455 C1431 0.949 . S
H1456 C1433 0.950 . S
H1457 C1435 0.950 . S
C1458 C1459 1.349 . S
C1458 C1460 1.327 . S
C1458 H1483 0.950 . S
C1459 C1458 1.349 . S
C1459 C1475 1.349 . S
C1460 C1458 1.327 . S
C1460 C1479 1.429 . S
C1460 H1484 0.950 . S
C1461 C1478 1.574 . S
C1461 C1480 1.368 . S
C1461 H1485 0.949 . S
H1462 C1466 0.949 . S
C1463 C1464 1.349 . S
C1463 C1465 1.327 . S
C1463 H1486 0.950 . S
C1464 C1463 1.349 . S
C1464 C1476 1.349 . S
C1465 C1463 1.327 . S
C1465 C1481 1.429 . S
C1465 H1487 0.950 . S
C1466 H1462 0.949 . S
C1466 C1474 1.574 . S
C1466 C1482 1.368 . S
H1467 C1475 0.950 . S
H1468 C1473 0.950 . S
H1469 C1474 0.949 . S
H1470 C1476 0.950 . S
H1471 C1477 0.950 . S
H1472 C1478 0.949 . S
C1473 H1468 0.950 . S
C1473 C1475 1.327 . S
C1473 C1479 1.429 . S
C1474 C1466 1.574 . S
C1474 H1469 0.949 . S
C1474 C1480 1.368 . S
C1475 C1459 1.349 . S
C1475 H1467 0.950 . S
C1475 C1473 1.327 . S
C1476 C1464 1.349 . S
C1476 H1470 0.950 . S
C1476 C1477 1.327 . S
C1477 H1471 0.950 . S
C1477 C1476 1.327 . S
C1477 C1481 1.429 . S
C1478 C1461 1.574 . S
C1478 H1472 0.949 . S
C1478 C1482 1.368 . S
C1479 C1460 1.429 . S
C1479 C1473 1.429 . S
C1479 C1480 1.523 . S
C1480 C1461 1.368 . S
C1480 C1474 1.368 . S
C1480 C1479 1.523 . S
C1481 C1465 1.429 . S
C1481 C1477 1.429 . S
C1481 C1482 1.523 . S
C1482 C1466 1.368 . S
C1482 C1478 1.368 . S
C1482 C1481 1.523 . S
H1483 C1458 0.950 . S
H1484 C1460 0.950 . S
H1485 C1461 0.949 . S
H1486 C1463 0.950 . S
H1487 C1465 0.950 . S
C1488 C1489 1.349 . S
C1488 C1490 1.327 . S
C1488 H1513 0.950 . S
C1489 C1488 1.349 . S
C1489 C1505 1.349 . S
C1490 C1488 1.327 . S
C1490 C1509 1.429 . S
C1490 H1514 0.950 . S
C1491 C1508 1.574 . S
C1491 C1510 1.368 . S
C1491 H1515 0.949 . S
H1492 C1496 0.949 . S
C1493 C1494 1.349 . S
C1493 C1495 1.327 . S
C1493 H1516 0.950 . S
C1494 C1493 1.349 . S
C1494 C1506 1.349 . S
C1495 C1493 1.327 . S
C1495 C1511 1.429 . S
C1495 H1517 0.950 . S
C1496 H1492 0.949 . S
C1496 C1504 1.574 . S
C1496 C1512 1.368 . S
H1497 C1505 0.950 . S
H1498 C1503 0.950 . S
H1499 C1504 0.949 . S
H1500 C1506 0.950 . S
H1501 C1507 0.950 . S
H1502 C1508 0.949 . S
C1503 H1498 0.950 . S
C1503 C1505 1.327 . S
C1503 C1509 1.429 . S
C1504 C1496 1.574 . S
C1504 H1499 0.949 . S
C1504 C1510 1.368 . S
C1505 C1489 1.349 . S
C1505 H1497 0.950 . S
C1505 C1503 1.327 . S
C1506 C1494 1.349 . S
C1506 H1500 0.950 . S
C1506 C1507 1.327 . S
C1507 H1501 0.950 . S
C1507 C1506 1.327 . S
C1507 C1511 1.429 . S
C1508 C1491 1.574 . S
C1508 H1502 0.949 . S
C1508 C1512 1.368 . S
C1509 C1490 1.429 . S
C1509 C1503 1.429 . S
C1509 C1510 1.523 . S
C1510 C1491 1.368 . S
C1510 C1504 1.368 . S
C1510 C1509 1.523 . S
C1511 C1495 1.429 . S
C1511 C1507 1.429 . S
C1511 C1512 1.523 . S
C1512 C1496 1.368 . S
C1512 C1508 1.368 . S
C1512 C1511 1.523 . S
H1513 C1488 0.950 . S
H1514 C1490 0.950 . S
H1515 C1491 0.949 . S
H1516 C1493 0.950 . S
H1517 C1495 0.950 . S
C1518 C1519 1.349 . S
C1518 C1520 1.327 . S
C1518 H1543 0.950 . S
C1519 C1518 1.349 . S
C1519 C1535 1.349 . S
C1520 C1518 1.327 . S
C1520 C1539 1.429 . S
C1520 H1544 0.950 . S
C1521 C1538 1.574 . S
C1521 C1540 1.368 . S
C1521 H1545 0.949 . S
H1522 C1526 0.949 . S
C1523 C1524 1.349 . S
C1523 C1525 1.327 . S
C1523 H1546 0.950 . S
C1524 C1523 1.349 . S
C1524 C1536 1.349 . S
C1525 C1523 1.327 . S
C1525 C1541 1.429 . S
C1525 H1547 0.950 . S
C1526 H1522 0.949 . S
C1526 C1534 1.574 . S
C1526 C1542 1.368 . S
H1527 C1535 0.950 . S
H1528 C1533 0.950 . S
H1529 C1534 0.949 . S
H1530 C1536 0.950 . S
H1531 C1537 0.950 . S
H1532 C1538 0.949 . S
C1533 H1528 0.950 . S
C1533 C1535 1.327 . S
C1533 C1539 1.429 . S
C1534 C1526 1.574 . S
C1534 H1529 0.949 . S
C1534 C1540 1.368 . S
C1535 C1519 1.349 . S
C1535 H1527 0.950 . S
C1535 C1533 1.327 . S
C1536 C1524 1.349 . S
C1536 H1530 0.950 . S
C1536 C1537 1.327 . S
C1537 H1531 0.950 . S
C1537 C1536 1.327 . S
C1537 C1541 1.429 . S
C1538 C1521 1.574 . S
C1538 H1532 0.949 . S
C1538 C1542 1.368 . S
C1539 C1520 1.429 . S
C1539 C1533 1.429 . S
C1539 C1540 1.523 . S
C1540 C1521 1.368 . S
C1540 C1534 1.368 . S
C1540 C1539 1.523 . S
C1541 C1525 1.429 . S
C1541 C1537 1.429 . S
C1541 C1542 1.523 . S
C1542 C1526 1.368 . S
C1542 C1538 1.368 . S
C1542 C1541 1.523 . S
H1543 C1518 0.950 . S
H1544 C1520 0.950 . S
H1545 C1521 0.949 . S
H1546 C1523 0.950 . S
H1547 C1525 0.950 . S
C1548 C1549 1.349 . S
C1548 C1550 1.327 . S
C1548 H1573 0.950 . S
C1549 C1548 1.349 . S
C1549 C1565 1.349 . S
C1550 C1548 1.327 . S
C1550 C1569 1.429 . S
C1550 H1574 0.950 1_655 S
C1551 C1568 1.574 . S
C1551 C1570 1.368 . S
C1551 H1575 0.949 . S
H1552 C1556 0.949 . S
C1553 C1554 1.349 . S
C1553 C1555 1.327 . S
C1553 H1576 0.950 . S
C1554 C1553 1.349 . S
C1554 C1566 1.349 . S
C1555 C1553 1.327 . S
C1555 C1571 1.429 . S
C1555 H1577 0.950 1_455 S
C1556 H1552 0.949 . S
C1556 C1564 1.574 . S
C1556 C1572 1.368 . S
H1557 C1565 0.950 . S
H1558 C1563 0.950 . S
H1559 C1564 0.949 . S
H1560 C1566 0.950 . S
H1561 C1567 0.950 . S
H1562 C1568 0.949 . S
C1563 H1558 0.950 . S
C1563 C1565 1.327 . S
C1563 C1569 1.429 . S
C1564 C1556 1.574 . S
C1564 H1559 0.949 . S
C1564 C1570 1.368 1_455 S
C1565 C1549 1.349 . S
C1565 H1557 0.950 . S
C1565 C1563 1.327 . S
C1566 C1554 1.349 . S
C1566 H1560 0.950 . S
C1566 C1567 1.327 . S
C1567 H1561 0.950 . S
C1567 C1566 1.327 . S
C1567 C1571 1.429 . S
C1568 C1551 1.574 . S
C1568 H1562 0.949 . S
C1568 C1572 1.368 1_655 S
C1569 C1550 1.429 . S
C1569 C1563 1.429 . S
C1569 C1570 1.523 . S
C1570 C1551 1.368 . S
C1570 C1564 1.368 1_655 S
C1570 C1569 1.523 . S
C1571 C1555 1.429 . S
C1571 C1567 1.429 . S
C1571 C1572 1.523 . S
C1572 C1556 1.368 . S
C1572 C1568 1.368 1_455 S
C1572 C1571 1.523 . S
H1573 C1548 0.950 . S
H1574 C1550 0.950 1_455 S
H1575 C1551 0.949 . S
H1576 C1553 0.950 . S
H1577 C1555 0.950 1_655 S
C1578 C1579 1.349 . S
C1578 C1580 1.327 . S
C1578 H1603 0.950 . S
C1579 C1578 1.349 . S
C1579 C1595 1.349 . S
C1580 C1578 1.327 . S
C1580 C1599 1.429 . S
C1580 H1604 0.950 . S
C1581 C1598 1.574 . S
C1581 C1600 1.368 . S
C1581 H1605 0.949 . S
H1582 C1586 0.949 . S
C1583 C1584 1.349 . S
C1583 C1585 1.327 . S
C1583 H1606 0.950 . S
C1584 C1583 1.349 . S
C1584 C1596 1.349 . S
C1585 C1583 1.327 . S
C1585 C1601 1.429 . S
C1585 H1607 0.950 . S
C1586 H1582 0.949 . S
C1586 C1594 1.574 . S
C1586 C1602 1.368 . S
H1587 C1595 0.950 . S
H1588 C1593 0.950 . S
H1589 C1594 0.949 . S
H1590 C1596 0.950 . S
H1591 C1597 0.950 . S
H1592 C1598 0.949 . S
C1593 H1588 0.950 . S
C1593 C1595 1.327 . S
C1593 C1599 1.429 . S
C1594 C1586 1.574 . S
C1594 H1589 0.949 . S
C1594 C1600 1.368 . S
C1595 C1579 1.349 . S
C1595 H1587 0.950 . S
C1595 C1593 1.327 . S
C1596 C1584 1.349 . S
C1596 H1590 0.950 . S
C1596 C1597 1.327 . S
C1597 H1591 0.950 . S
C1597 C1596 1.327 . S
C1597 C1601 1.429 . S
C1598 C1581 1.574 . S
C1598 H1592 0.949 . S
C1598 C1602 1.368 . S
C1599 C1580 1.429 . S
C1599 C1593 1.429 . S
C1599 C1600 1.523 . S
C1600 C1581 1.368 . S
C1600 C1594 1.368 . S
C1600 C1599 1.523 . S
C1601 C1585 1.429 . S
C1601 C1597 1.429 . S
C1601 C1602 1.523 . S
C1602 C1586 1.368 . S
C1602 C1598 1.368 . S
C1602 C1601 1.523 . S
H1603 C1578 0.950 . S
H1604 C1580 0.950 . S
H1605 C1581 0.949 . S
H1606 C1583 0.950 . S
H1607 C1585 0.950 . S
C1608 C1609 1.349 . S
C1608 C1610 1.327 . S
C1608 H1633 0.950 . S
C1609 C1608 1.349 . S
C1609 C1625 1.349 . S
C1610 C1608 1.327 . S
C1610 C1629 1.429 . S
C1610 H1634 0.950 1_565 S
C1611 C1628 1.574 . S
C1611 C1630 1.368 . S
C1611 H1635 0.949 . S
H1612 C1616 0.949 . S
C1613 C1614 1.349 . S
C1613 C1615 1.327 . S
C1613 H1636 0.950 . S
C1614 C1613 1.349 . S
C1614 C1626 1.349 . S
C1615 C1613 1.327 . S
C1615 C1631 1.429 . S
C1615 H1637 0.950 1_545 S
C1616 H1612 0.949 . S
C1616 C1624 1.574 . S
C1616 C1632 1.368 . S
H1617 C1625 0.950 . S
H1618 C1623 0.950 . S
H1619 C1624 0.949 . S
H1620 C1626 0.950 . S
H1621 C1627 0.950 . S
H1622 C1628 0.949 . S
C1623 H1618 0.950 . S
C1623 C1625 1.327 . S
C1623 C1629 1.429 . S
C1624 C1616 1.574 . S
C1624 H1619 0.949 . S
C1624 C1630 1.368 1_545 S
C1625 C1609 1.349 . S
C1625 H1617 0.950 . S
C1625 C1623 1.327 . S
C1626 C1614 1.349 . S
C1626 H1620 0.950 . S
C1626 C1627 1.327 . S
C1627 H1621 0.950 . S
C1627 C1626 1.327 . S
C1627 C1631 1.429 . S
C1628 C1611 1.574 . S
C1628 H1622 0.949 . S
C1628 C1632 1.368 1_565 S
C1629 C1610 1.429 . S
C1629 C1623 1.429 . S
C1629 C1630 1.523 . S
C1630 C1611 1.368 . S
C1630 C1624 1.368 1_565 S
C1630 C1629 1.523 . S
C1631 C1615 1.429 . S
C1631 C1627 1.429 . S
C1631 C1632 1.523 . S
C1632 C1616 1.368 . S
C1632 C1628 1.368 1_545 S
C1632 C1631 1.523 . S
H1633 C1608 0.950 . S
H1634 C1610 0.950 1_545 S
H1635 C1611 0.949 . S
H1636 C1613 0.950 . S
H1637 C1615 0.950 1_565 S
C1638 C1639 1.349 . S
C1638 C1640 1.327 . S
C1638 H1663 0.950 . S
C1639 C1638 1.349 . S
C1639 C1655 1.349 . S
C1640 C1638 1.327 . S
C1640 C1659 1.429 . S
C1640 H1664 0.950 . S
C1641 C1658 1.574 . S
C1641 C1660 1.368 1_545 S
C1641 H1665 0.949 . S
H1642 C1646 0.949 . S
C1643 C1644 1.349 . S
C1643 C1645 1.327 . S
C1643 H1666 0.950 . S
C1644 C1643 1.349 . S
C1644 C1656 1.349 . S
C1645 C1643 1.327 . S
C1645 C1661 1.429 . S
C1645 H1667 0.950 . S
C1646 H1642 0.949 . S
C1646 C1654 1.574 . S
C1646 C1662 1.368 1_565 S
H1647 C1655 0.950 . S
H1648 C1653 0.950 1_545 S
H1649 C1654 0.949 . S
H1650 C1656 0.950 . S
H1651 C1657 0.950 1_565 S
H1652 C1658 0.949 . S
C1653 H1648 0.950 1_565 S
C1653 C1655 1.327 . S
C1653 C1659 1.429 . S
C1654 C1646 1.574 . S
C1654 H1649 0.949 . S
C1654 C1660 1.368 . S
C1655 C1639 1.349 . S
C1655 H1647 0.950 . S
C1655 C1653 1.327 . S
C1656 C1644 1.349 . S
C1656 H1650 0.950 . S
C1656 C1657 1.327 . S
C1657 H1651 0.950 1_545 S
C1657 C1656 1.327 . S
C1657 C1661 1.429 . S
C1658 C1641 1.574 . S
C1658 H1652 0.949 . S
C1658 C1662 1.368 . S
C1659 C1640 1.429 . S
C1659 C1653 1.429 . S
C1659 C1660 1.523 . S
C1660 C1641 1.368 1_565 S
C1660 C1654 1.368 . S
C1660 C1659 1.523 . S
C1661 C1645 1.429 . S
C1661 C1657 1.429 . S
C1661 C1662 1.523 . S
C1662 C1646 1.368 1_545 S
C1662 C1658 1.368 . S
C1662 C1661 1.523 . S
H1663 C1638 0.950 . S
H1664 C1640 0.950 . S
H1665 C1641 0.949 . S
H1666 C1643 0.950 . S
H1667 C1645 0.950 . S
C1668 C1669 1.349 . S
C1668 C1670 1.327 . S
C1668 H1693 0.950 . S
C1669 C1668 1.349 . S
C1669 C1685 1.349 . S
C1670 C1668 1.327 . S
C1670 C1689 1.429 . S
C1670 H1694 0.950 . S
C1671 C1688 1.574 1_455 S
C1671 C1690 1.368 . S
C1671 H1695 0.949 . S
H1672 C1676 0.949 . S
C1673 C1674 1.349 . S
C1673 C1675 1.327 . S
C1673 H1696 0.950 . S
C1674 C1673 1.349 . S
C1674 C1686 1.349 . S
C1675 C1673 1.327 . S
C1675 C1691 1.429 . S
C1675 H1697 0.950 . S
C1676 H1672 0.949 . S
C1676 C1684 1.574 1_655 S
C1676 C1692 1.368 . S
H1677 C1685 0.950 . S
H1678 C1683 0.950 . S
H1679 C1684 0.949 . S
H1680 C1686 0.950 . S
H1681 C1687 0.950 . S
H1682 C1688 0.949 . S
C1683 H1678 0.950 . S
C1683 C1685 1.327 . S
C1683 C1689 1.429 . S
C1684 C1676 1.574 1_455 S
C1684 H1679 0.949 . S
C1684 C1690 1.368 . S
C1685 C1669 1.349 . S
C1685 H1677 0.950 . S
C1685 C1683 1.327 . S
C1686 C1674 1.349 . S
C1686 H1680 0.950 . S
C1686 C1687 1.327 . S
C1687 H1681 0.950 . S
C1687 C1686 1.327 . S
C1687 C1691 1.429 . S
C1688 C1671 1.574 1_655 S
C1688 H1682 0.949 . S
C1688 C1692 1.368 . S
C1689 C1670 1.429 . S
C1689 C1683 1.429 . S
C1689 C1690 1.523 . S
C1690 C1671 1.368 . S
C1690 C1684 1.368 . S
C1690 C1689 1.523 . S
C1691 C1675 1.429 . S
C1691 C1687 1.429 . S
C1691 C1692 1.523 . S
C1692 C1676 1.368 . S
C1692 C1688 1.368 . S
C1692 C1691 1.523 . S
H1693 C1668 0.950 . S
H1694 C1670 0.950 . S
H1695 C1671 0.949 . S
H1696 C1673 0.950 . S
H1697 C1675 0.950 . S
C1698 C1699 1.349 . S
C1698 C1700 1.327 . S
C1698 H1723 0.950 . S
C1699 C1698 1.349 . S
C1699 C1715 1.349 . S
C1700 C1698 1.327 . S
C1700 C1719 1.429 . S
C1700 H1724 0.950 . S
C1701 C1718 1.574 . S
C1701 C1720 1.368 . S
C1701 H1725 0.949 . S
H1702 C1706 0.949 . S
C1703 C1704 1.349 . S
C1703 C1705 1.327 . S
C1703 H1726 0.950 . S
C1704 C1703 1.349 . S
C1704 C1716 1.349 . S
C1705 C1703 1.327 . S
C1705 C1721 1.429 . S
C1705 H1727 0.950 . S
C1706 H1702 0.949 . S
C1706 C1714 1.574 . S
C1706 C1722 1.368 . S
H1707 C1715 0.950 . S
H1708 C1713 0.950 . S
H1709 C1714 0.949 . S
H1710 C1716 0.950 . S
H1711 C1717 0.950 . S
H1712 C1718 0.949 . S
C1713 H1708 0.950 . S
C1713 C1715 1.327 . S
C1713 C1719 1.429 . S
C1714 C1706 1.574 . S
C1714 H1709 0.949 . S
C1714 C1720 1.368 . S
C1715 C1699 1.349 . S
C1715 H1707 0.950 . S
C1715 C1713 1.327 . S
C1716 C1704 1.349 . S
C1716 H1710 0.950 . S
C1716 C1717 1.327 . S
C1717 H1711 0.950 . S
C1717 C1716 1.327 . S
C1717 C1721 1.429 . S
C1718 C1701 1.574 . S
C1718 H1712 0.949 . S
C1718 C1722 1.368 . S
C1719 C1700 1.429 . S
C1719 C1713 1.429 . S
C1719 C1720 1.523 . S
C1720 C1701 1.368 . S
C1720 C1714 1.368 . S
C1720 C1719 1.523 . S
C1721 C1705 1.429 . S
C1721 C1717 1.429 . S
C1721 C1722 1.523 . S
C1722 C1706 1.368 . S
C1722 C1718 1.368 . S
C1722 C1721 1.523 . S
H1723 C1698 0.950 . S
H1724 C1700 0.950 . S
H1725 C1701 0.949 . S
H1726 C1703 0.950 . S
H1727 C1705 0.950 . S
C1728 C1729 1.349 . S
C1728 C1730 1.327 . S
C1728 H1753 0.950 . S
C1729 C1728 1.349 . S
C1729 C1745 1.349 . S
C1730 C1728 1.327 . S
C1730 C1749 1.429 . S
C1730 H1754 0.950 . S
C1731 C1748 1.574 . S
C1731 C1750 1.368 . S
C1731 H1755 0.949 . S
H1732 C1736 0.949 . S
C1733 C1734 1.349 . S
C1733 C1735 1.327 . S
C1733 H1756 0.950 . S
C1734 C1733 1.349 . S
C1734 C1746 1.349 . S
C1735 C1733 1.327 . S
C1735 C1751 1.429 . S
C1735 H1757 0.950 . S
C1736 H1732 0.949 . S
C1736 C1744 1.574 . S
C1736 C1752 1.368 . S
H1737 C1745 0.950 . S
H1738 C1743 0.950 . S
H1739 C1744 0.949 . S
H1740 C1746 0.950 . S
H1741 C1747 0.950 . S
H1742 C1748 0.949 . S
C1743 H1738 0.950 . S
C1743 C1745 1.327 . S
C1743 C1749 1.429 . S
C1744 C1736 1.574 . S
C1744 H1739 0.949 . S
C1744 C1750 1.368 . S
C1745 C1729 1.349 . S
C1745 H1737 0.950 . S
C1745 C1743 1.327 . S
C1746 C1734 1.349 . S
C1746 H1740 0.950 . S
C1746 C1747 1.327 . S
C1747 H1741 0.950 . S
C1747 C1746 1.327 . S
C1747 C1751 1.429 . S
C1748 C1731 1.574 . S
C1748 H1742 0.949 . S
C1748 C1752 1.368 . S
C1749 C1730 1.429 . S
C1749 C1743 1.429 . S
C1749 C1750 1.523 . S
C1750 C1731 1.368 . S
C1750 C1744 1.368 . S
C1750 C1749 1.523 . S
C1751 C1735 1.429 . S
C1751 C1747 1.429 . S
C1751 C1752 1.523 . S
C1752 C1736 1.368 . S
C1752 C1748 1.368 . S
C1752 C1751 1.523 . S
H1753 C1728 0.950 . S
H1754 C1730 0.950 . S
H1755 C1731 0.949 . S
H1756 C1733 0.950 . S
H1757 C1735 0.950 . S
C1758 C1759 1.349 . S
C1758 C1760 1.327 . S
C1758 H1783 0.950 . S
C1759 C1758 1.349 . S
C1759 C1775 1.349 . S
C1760 C1758 1.327 . S
C1760 C1779 1.429 . S
C1760 H1784 0.950 . S
C1761 C1778 1.574 . S
C1761 C1780 1.368 . S
C1761 H1785 0.949 . S
H1762 C1766 0.949 . S
C1763 C1764 1.349 . S
C1763 C1765 1.327 . S
C1763 H1786 0.950 . S
C1764 C1763 1.349 . S
C1764 C1776 1.349 1_565 S
C1765 C1763 1.327 . S
C1765 C1781 1.429 1_565 S
C1765 H1787 0.950 . S
C1766 H1762 0.949 . S
C1766 C1774 1.574 . S
C1766 C1782 1.368 . S
H1767 C1775 0.950 . S
H1768 C1773 0.950 . S
H1769 C1774 0.949 . S
H1770 C1776 0.950 . S
H1771 C1777 0.950 . S
H1772 C1778 0.949 1_565 S
C1773 H1768 0.950 . S
C1773 C1775 1.327 . S
C1773 C1779 1.429 . S
C1774 C1766 1.574 . S
C1774 H1769 0.949 . S
C1774 C1780 1.368 . S
C1775 C1759 1.349 . S
C1775 H1767 0.950 . S
C1775 C1773 1.327 . S
C1776 C1764 1.349 1_545 S
C1776 H1770 0.950 . S
C1776 C1777 1.327 . S
C1777 H1771 0.950 . S
C1777 C1776 1.327 . S
C1777 C1781 1.429 . S
C1778 C1761 1.574 . S
C1778 H1772 0.949 1_545 S
C1778 C1782 1.368 . S
C1779 C1760 1.429 . S
C1779 C1773 1.429 . S
C1779 C1780 1.523 . S
C1780 C1761 1.368 . S
C1780 C1774 1.368 . S
C1780 C1779 1.523 . S
C1781 C1765 1.429 1_545 S
C1781 C1777 1.429 . S
C1781 C1782 1.523 . S
C1782 C1766 1.368 . S
C1782 C1778 1.368 . S
C1782 C1781 1.523 . S
H1783 C1758 0.950 . S
H1784 C1760 0.950 . S
H1785 C1761 0.949 . S
H1786 C1763 0.950 . S
H1787 C1765 0.950 . S
C1788 C1789 1.349 . S
C1788 C1790 1.327 . S
C1788 H1813 0.950 . S
C1789 C1788 1.349 . S
C1789 C1805 1.349 . S
C1790 C1788 1.327 . S
C1790 C1809 1.429 . S
C1790 H1814 0.950 . S
C1791 C1808 1.574 . S
C1791 C1810 1.368 . S
C1791 H1815 0.949 . S
H1792 C1796 0.949 . S
C1793 C1794 1.349 . S
C1793 C1795 1.327 . S
C1793 H1816 0.950 . S
C1794 C1793 1.349 . S
C1794 C1806 1.349 . S
C1795 C1793 1.327 . S
C1795 C1811 1.429 1_455 S
C1795 H1817 0.947 1_455 S
C1796 H1792 0.949 . S
C1796 C1804 1.574 . S
C1796 C1812 1.368 . S
H1797 C1805 0.950 . S
H1798 C1803 0.950 . S
H1799 C1804 0.949 . S
H1800 C1806 0.950 . S
H1801 C1807 0.979 . S
H1802 C1808 0.949 . S
C1803 H1798 0.950 . S
C1803 C1805 1.327 . S
C1803 C1809 1.429 . S
C1804 C1796 1.574 . S
C1804 H1799 0.949 . S
C1804 C1810 1.368 . S
C1805 C1789 1.349 . S
C1805 H1797 0.950 . S
C1805 C1803 1.327 . S
C1806 C1794 1.349 . S
C1806 H1800 0.950 . S
C1806 C1807 1.283 1_455 S
C1807 H1801 0.979 . S
C1807 C1806 1.283 1_655 S
C1807 C1811 1.446 . S
C1808 C1791 1.574 . S
C1808 H1802 0.949 . S
C1808 C1812 1.368 . S
C1809 C1790 1.429 . S
C1809 C1803 1.429 . S
C1809 C1810 1.523 . S
C1810 C1791 1.368 . S
C1810 C1804 1.368 . S
C1810 C1809 1.523 . S
C1811 C1795 1.429 1_655 S
C1811 C1807 1.446 . S
C1811 C1812 1.523 . S
C1812 C1796 1.368 . S
C1812 C1808 1.368 . S
C1812 C1811 1.523 . S
H1813 C1788 0.950 . S
H1814 C1790 0.950 . S
H1815 C1791 0.949 . S
H1816 C1793 0.950 . S
H1817 C1795 0.947 1_655 S
C1818 C1819 1.349 . S
C1818 C1820 1.327 . S
C1818 H1843 0.950 . S
C1819 C1818 1.349 . S
C1819 C1835 1.349 . S
C1820 C1818 1.327 . S
C1820 C1839 1.429 . S
C1820 H1844 0.950 . S
C1821 C1838 1.574 . S
C1821 C1840 1.368 . S
C1821 H1845 0.949 . S
H1822 C1826 0.949 . S
C1823 C1824 1.349 . S
C1823 C1825 1.327 . S
C1823 H1846 0.950 . S
C1824 C1823 1.349 . S
C1824 C1836 1.349 . S
C1825 C1823 1.327 . S
C1825 C1841 1.429 . S
C1825 H1847 0.950 . S
C1826 H1822 0.949 . S
C1826 C1834 1.574 . S
C1826 C1842 1.368 . S
H1827 C1835 0.950 . S
H1828 C1833 0.950 . S
H1829 C1834 0.949 . S
H1830 C1836 0.950 . S
H1831 C1837 0.950 . S
H1832 C1838 0.949 . S
C1833 H1828 0.950 . S
C1833 C1835 1.327 . S
C1833 C1839 1.429 . S
C1834 C1826 1.574 . S
C1834 H1829 0.949 . S
C1834 C1840 1.368 . S
C1835 C1819 1.349 . S
C1835 H1827 0.950 . S
C1835 C1833 1.327 . S
C1836 C1824 1.349 . S
C1836 H1830 0.950 . S
C1836 C1837 1.327 . S
C1837 H1831 0.950 . S
C1837 C1836 1.327 . S
C1837 C1841 1.429 . S
C1838 C1821 1.574 . S
C1838 H1832 0.949 . S
C1838 C1842 1.368 . S
C1839 C1820 1.429 . S
C1839 C1833 1.429 . S
C1839 C1840 1.523 . S
C1840 C1821 1.368 . S
C1840 C1834 1.368 . S
C1840 C1839 1.523 . S
C1841 C1825 1.429 . S
C1841 C1837 1.429 . S
C1841 C1842 1.523 . S
C1842 C1826 1.368 . S
C1842 C1838 1.368 . S
C1842 C1841 1.523 . S
H1843 C1818 0.950 . S
H1844 C1820 0.950 . S
H1845 C1821 0.949 . S
H1846 C1823 0.950 . S
H1847 C1825 0.950 . S
C1848 C1849 1.349 . S
C1848 C1850 1.327 . S
C1848 H1873 0.950 . S
C1849 C1848 1.349 . S
C1849 C1865 1.349 . S
C1850 C1848 1.327 . S
C1850 C1869 1.429 . S
C1850 H1874 0.950 . S
C1851 C1868 1.574 . S
C1851 C1870 1.368 . S
C1851 H1875 0.949 . S
H1852 C1856 0.949 1_545 S
C1853 C1854 1.349 1_565 S
C1853 C1855 1.327 . S
C1853 H1876 0.950 . S
C1854 C1853 1.349 1_545 S
C1854 C1866 1.349 . S
C1855 C1853 1.327 . S
C1855 C1871 1.429 . S
C1855 H1877 0.950 . S
C1856 H1852 0.949 1_565 S
C1856 C1864 1.574 . S
C1856 C1872 1.368 . S
H1857 C1865 0.950 . S
H1858 C1863 0.950 . S
H1859 C1864 0.949 . S
H1860 C1866 0.950 . S
H1861 C1867 0.950 . S
H1862 C1868 0.949 . S
C1863 H1858 0.950 . S
C1863 C1865 1.327 . S
C1863 C1869 1.429 . S
C1864 C1856 1.574 . S
C1864 H1859 0.949 . S
C1864 C1870 1.368 . S
C1865 C1849 1.349 . S
C1865 H1857 0.950 . S
C1865 C1863 1.327 . S
C1866 C1854 1.349 . S
C1866 H1860 0.950 . S
C1866 C1867 1.327 . S
C1867 H1861 0.950 . S
C1867 C1866 1.327 . S
C1867 C1871 1.429 1_545 S
C1868 C1851 1.574 . S
C1868 H1862 0.949 . S
C1868 C1872 1.368 . S
C1869 C1850 1.429 . S
C1869 C1863 1.429 . S
C1869 C1870 1.523 . S
C1870 C1851 1.368 . S
C1870 C1864 1.368 . S
C1870 C1869 1.523 . S
C1871 C1855 1.429 . S
C1871 C1867 1.429 1_565 S
C1871 C1872 1.523 . S
C1872 C1856 1.368 . S
C1872 C1868 1.368 . S
C1872 C1871 1.523 . S
H1873 C1848 0.950 . S
H1874 C1850 0.950 . S
H1875 C1851 0.949 . S
H1876 C1853 0.950 . S
H1877 C1855 0.950 . S
C1878 C1879 1.349 . S
C1878 C1880 1.327 1_655 S
C1878 H1903 0.950 . S
C1879 C1878 1.349 . S
C1879 C1895 1.349 . S
C1880 C1878 1.327 1_455 S
C1880 C1899 1.429 . S
C1880 H1904 0.950 . S
C1881 C1898 1.574 . S
C1881 C1900 1.368 . S
C1881 H1905 0.949 . S
H1882 C1886 0.949 . S
C1883 C1884 1.349 . S
C1883 C1885 1.327 . S
C1883 H1906 0.950 . S
C1884 C1883 1.349 . S
C1884 C1896 1.349 . S
C1885 C1883 1.327 . S
C1885 C1901 1.429 . S
C1885 H1907 0.950 . S
C1886 H1882 0.949 . S
C1886 C1894 1.574 . S
C1886 C1902 1.368 . S
H1887 C1895 0.950 . S
H1888 C1893 0.950 . S
H1889 C1894 0.949 . S
H1890 C1896 0.950 . S
H1891 C1897 0.950 . S
H1892 C1898 0.949 . S
C1893 H1888 0.950 . S
C1893 C1895 1.327 . S
C1893 C1899 1.429 1_655 S
C1894 C1886 1.574 . S
C1894 H1889 0.949 . S
C1894 C1900 1.368 . S
C1895 C1879 1.349 . S
C1895 H1887 0.950 . S
C1895 C1893 1.327 . S
C1896 C1884 1.349 . S
C1896 H1890 0.950 . S
C1896 C1897 1.327 . S
C1897 H1891 0.950 . S
C1897 C1896 1.327 . S
C1897 C1901 1.429 . S
C1898 C1881 1.574 . S
C1898 H1892 0.949 . S
C1898 C1902 1.368 . S
C1899 C1880 1.429 . S
C1899 C1893 1.429 1_455 S
C1899 C1900 1.523 . S
C1900 C1881 1.368 . S
C1900 C1894 1.368 . S
C1900 C1899 1.523 . S
C1901 C1885 1.429 . S
C1901 C1897 1.429 . S
C1901 C1902 1.523 . S
C1902 C1886 1.368 . S
C1902 C1898 1.368 . S
C1902 C1901 1.523 . S
H1903 C1878 0.950 . S
H1904 C1880 0.950 . S
H1905 C1881 0.949 . S
H1906 C1883 0.950 . S
H1907 C1885 0.950 . S
C1908 C1909 1.349 . S
C1908 C1910 1.327 . S
C1908 H1933 0.950 . S
C1909 C1908 1.349 . S
C1909 C1925 1.349 . S
C1910 C1908 1.327 . S
C1910 C1929 1.429 . S
C1910 H1934 0.950 . S
C1911 C1928 1.574 . S
C1911 C1930 1.368 . S
C1911 H1935 0.949 . S
H1912 C1916 0.949 . S
C1913 C1914 1.349 . S
C1913 C1915 1.327 . S
C1913 H1936 0.950 . S
C1914 C1913 1.349 . S
C1914 C1926 1.349 . S
C1915 C1913 1.327 . S
C1915 C1931 1.429 . S
C1915 H1937 0.950 . S
C1916 H1912 0.949 . S
C1916 C1924 1.574 . S
C1916 C1932 1.368 . S
H1917 C1925 0.950 . S
H1918 C1923 0.950 . S
H1919 C1924 0.949 . S
H1920 C1926 0.950 . S
H1921 C1927 0.950 . S
H1922 C1928 0.949 . S
C1923 H1918 0.950 . S
C1923 C1925 1.327 . S
C1923 C1929 1.429 . S
C1924 C1916 1.574 . S
C1924 H1919 0.949 . S
C1924 C1930 1.368 . S
C1925 C1909 1.349 . S
C1925 H1917 0.950 . S
C1925 C1923 1.327 . S
C1926 C1914 1.349 . S
C1926 H1920 0.950 . S
C1926 C1927 1.327 . S
C1927 H1921 0.950 . S
C1927 C1926 1.327 . S
C1927 C1931 1.429 . S
C1928 C1911 1.574 . S
C1928 H1922 0.949 . S
C1928 C1932 1.368 . S
C1929 C1910 1.429 . S
C1929 C1923 1.429 . S
C1929 C1930 1.523 . S
C1930 C1911 1.368 . S
C1930 C1924 1.368 . S
C1930 C1929 1.523 . S
C1931 C1915 1.429 . S
C1931 C1927 1.429 . S
C1931 C1932 1.523 . S
C1932 C1916 1.368 . S
C1932 C1928 1.368 . S
C1932 C1931 1.523 . S
H1933 C1908 0.950 . S
H1934 C1910 0.950 . S
H1935 C1911 0.949 . S
H1936 C1913 0.950 . S
H1937 C1915 0.950 . S
C1938 C1939 1.349 . S
C1938 C1940 1.327 . S
C1938 H1963 0.950 . S
C1939 C1938 1.349 . S
C1939 C1955 1.349 . S
C1940 C1938 1.327 . S
C1940 C1959 1.429 . S
C1940 H1964 0.950 . S
C1941 C1958 1.574 . S
C1941 C1960 1.368 . S
C1941 H1965 0.949 . S
H1942 C1946 0.949 . S
C1943 C1944 1.349 . S
C1943 C1945 1.327 . S
C1943 H1966 0.950 . S
C1944 C1943 1.349 . S
C1944 C1956 1.349 . S
C1945 C1943 1.327 . S
C1945 C1961 1.429 1_545 S
C1945 H1967 0.937 . S
C1946 H1942 0.949 . S
C1946 C1954 1.574 . S
C1946 C1962 1.368 . S
H1947 C1955 0.950 . S
H1948 C1953 0.950 . S
H1949 C1954 0.949 . S
H1950 C1956 0.950 . S
H1951 C1957 0.950 . S
H1952 C1958 0.949 . S
C1953 H1948 0.950 . S
C1953 C1955 1.327 . S
C1953 C1959 1.429 . S
C1954 C1946 1.574 . S
C1954 H1949 0.949 . S
C1954 C1960 1.368 . S
C1955 C1939 1.349 . S
C1955 H1947 0.950 . S
C1955 C1953 1.327 . S
C1956 C1944 1.349 . S
C1956 H1950 0.950 . S
C1956 C1957 1.327 1_545 S
C1957 H1951 0.950 . S
C1957 C1956 1.327 1_565 S
C1957 C1961 1.429 . S
C1958 C1941 1.574 . S
C1958 H1952 0.949 . S
C1958 C1962 1.368 . S
C1959 C1940 1.429 . S
C1959 C1953 1.429 . S
C1959 C1960 1.523 . S
C1960 C1941 1.368 . S
C1960 C1954 1.368 . S
C1960 C1959 1.523 . S
C1961 C1945 1.429 1_565 S
C1961 C1957 1.429 . S
C1961 C1962 1.523 . S
C1962 C1946 1.368 . S
C1962 C1958 1.368 . S
C1962 C1961 1.523 . S
H1963 C1938 0.950 . S
H1964 C1940 0.950 . S
H1965 C1941 0.949 . S
H1966 C1943 0.950 . S
H1967 C1945 0.937 . S
C1968 C1969 1.349 . S
C1968 C1970 1.327 . S
C1968 H1993 0.950 . S
C1969 C1968 1.349 . S
C1969 C1985 1.349 . S
C1970 C1968 1.327 . S
C1970 C1989 1.429 . S
C1970 H1994 0.950 . S
C1971 C1988 1.574 . S
C1971 C1990 1.368 . S
C1971 H1995 0.949 . S
H1972 C1976 0.949 1_655 S
C1973 C1974 1.349 1_455 S
C1973 C1975 1.327 . S
C1973 H1996 0.950 . S
C1974 C1973 1.349 1_655 S
C1974 C1986 1.349 . S
C1975 C1973 1.327 . S
C1975 C1991 1.429 . S
C1975 H1997 0.950 . S
C1976 H1972 0.949 1_455 S
C1976 C1984 1.574 . S
C1976 C1992 1.368 . S
H1977 C1985 0.950 . S
H1978 C1983 0.950 . S
H1979 C1984 0.949 . S
H1980 C1986 0.950 . S
H1981 C1987 0.950 . S
H1982 C1988 0.949 . S
C1983 H1978 0.950 . S
C1983 C1985 1.327 . S
C1983 C1989 1.429 . S
C1984 C1976 1.574 . S
C1984 H1979 0.949 . S
C1984 C1990 1.368 . S
C1985 C1969 1.349 . S
C1985 H1977 0.950 . S
C1985 C1983 1.327 . S
C1986 C1974 1.349 . S
C1986 H1980 0.950 . S
C1986 C1987 1.327 . S
C1987 H1981 0.950 . S
C1987 C1986 1.327 . S
C1987 C1991 1.429 1_655 S
C1988 C1971 1.574 . S
C1988 H1982 0.949 . S
C1988 C1992 1.368 . S
C1989 C1970 1.429 . S
C1989 C1983 1.429 . S
C1989 C1990 1.523 . S
C1990 C1971 1.368 . S
C1990 C1984 1.368 . S
C1990 C1989 1.523 . S
C1991 C1975 1.429 . S
C1991 C1987 1.429 1_455 S
C1991 C1992 1.523 . S
C1992 C1976 1.368 . S
C1992 C1988 1.368 . S
C1992 C1991 1.523 . S
H1993 C1968 0.950 . S
H1994 C1970 0.950 . S
H1995 C1971 0.949 . S
H1996 C1973 0.950 . S
H1997 C1975 0.950 . S
C1998 C1999 1.349 . S
C1998 C2000 1.327 . S
C1998 H2023 0.950 . S
C1999 C1998 1.349 . S
C1999 C2015 1.349 . S
C2000 C1998 1.327 . S
C2000 C2019 1.429 . S
C2000 H2024 0.950 . S
C2001 C2018 1.574 . S
C2001 C2020 1.368 . S
C2001 H2025 0.949 . S
H2002 C2006 0.949 . S
C2003 C2004 1.349 . S
C2003 C2005 1.327 . S
C2003 H2026 0.950 . S
C2004 C2003 1.349 . S
C2004 C2016 1.349 . S
C2005 C2003 1.327 . S
C2005 C2021 1.429 . S
C2005 H2027 0.950 . S
C2006 H2002 0.949 . S
C2006 C2014 1.574 . S
C2006 C2022 1.368 . S
H2007 C2015 0.950 . S
H2008 C2013 0.950 . S
H2009 C2014 0.949 . S
H2010 C2016 0.950 . S
H2011 C2017 0.950 . S
H2012 C2018 0.949 . S
C2013 H2008 0.950 . S
C2013 C2015 1.327 . S
C2013 C2019 1.429 . S
C2014 C2006 1.574 . S
C2014 H2009 0.949 . S
C2014 C2020 1.368 . S
C2015 C1999 1.349 . S
C2015 H2007 0.950 . S
C2015 C2013 1.327 . S
C2016 C2004 1.349 . S
C2016 H2010 0.950 . S
C2016 C2017 1.327 . S
C2017 H2011 0.950 . S
C2017 C2016 1.327 . S
C2017 C2021 1.429 . S
C2018 C2001 1.574 . S
C2018 H2012 0.949 . S
C2018 C2022 1.368 . S
C2019 C2000 1.429 . S
C2019 C2013 1.429 . S
C2019 C2020 1.523 . S
C2020 C2001 1.368 . S
C2020 C2014 1.368 . S
C2020 C2019 1.523 . S
C2021 C2005 1.429 . S
C2021 C2017 1.429 . S
C2021 C2022 1.523 . S
C2022 C2006 1.368 . S
C2022 C2018 1.368 . S
C2022 C2021 1.523 . S
H2023 C1998 0.950 . S
H2024 C2000 0.950 . S
H2025 C2001 0.949 . S
H2026 C2003 0.950 . S
H2027 C2005 0.950 . S
C2028 C2029 1.349 . S
C2028 C2030 1.327 . S
C2028 H2053 0.950 . S
C2029 C2028 1.349 . S
C2029 C2045 1.349 1_565 S
C2030 C2028 1.327 . S
C2030 C2049 1.429 1_565 S
C2030 H2054 0.950 . S
C2031 C2048 1.574 . S
C2031 C2050 1.368 . S
C2031 H2055 0.949 . S
H2032 C2036 0.949 . S
C2033 C2034 1.349 . S
C2033 C2035 1.327 . S
C2033 H2056 0.950 . S
C2034 C2033 1.349 . S
C2034 C2046 1.349 . S
C2035 C2033 1.327 . S
C2035 C2051 1.429 . S
C2035 H2057 0.950 . S
C2036 H2032 0.949 . S
C2036 C2044 1.574 . S
C2036 C2052 1.368 . S
H2037 C2045 0.950 . S
H2038 C2043 0.950 . S
H2039 C2044 0.949 1_565 S
H2040 C2046 0.950 . S
H2041 C2047 0.950 . S
H2042 C2048 0.949 . S
C2043 H2038 0.950 . S
C2043 C2045 1.327 . S
C2043 C2049 1.429 . S
C2044 C2036 1.574 . S
C2044 H2039 0.949 1_545 S
C2044 C2050 1.368 . S
C2045 C2029 1.349 1_545 S
C2045 H2037 0.950 . S
C2045 C2043 1.327 . S
C2046 C2034 1.349 . S
C2046 H2040 0.950 . S
C2046 C2047 1.327 . S
C2047 H2041 0.950 . S
C2047 C2046 1.327 . S
C2047 C2051 1.429 . S
C2048 C2031 1.574 . S
C2048 H2042 0.949 . S
C2048 C2052 1.368 . S
C2049 C2030 1.429 1_545 S
C2049 C2043 1.429 . S
C2049 C2050 1.523 . S
C2050 C2031 1.368 . S
C2050 C2044 1.368 . S
C2050 C2049 1.523 . S
C2051 C2035 1.429 . S
C2051 C2047 1.429 . S
C2051 C2052 1.523 . S
C2052 C2036 1.368 . S
C2052 C2048 1.368 . S
C2052 C2051 1.523 . S
H2053 C2028 0.950 . S
H2054 C2030 0.950 . S
H2055 C2031 0.949 . S
H2056 C2033 0.950 . S
H2057 C2035 0.950 . S
C2058 C2059 1.349 . S
C2058 C2060 1.327 . S
C2058 H2083 0.950 . S
C2059 C2058 1.349 . S
C2059 C2075 1.351 1_455 S
C2060 C2058 1.327 . S
C2060 C2079 1.429 1_455 S
C2060 H2084 0.950 . S
C2061 C2078 1.574 . S
C2061 C2080 1.368 . S
C2061 H2085 0.949 . S
H2062 C2066 0.949 . S
C2063 C2064 1.349 . S
C2063 C2065 1.327 . S
C2063 H2086 0.950 . S
C2064 C2063 1.349 . S
C2064 C2076 1.349 . S
C2065 C2063 1.327 . S
C2065 C2081 1.429 . S
C2065 H2087 0.950 . S
C2066 H2062 0.949 . S
C2066 C2074 1.574 . S
C2066 C2082 1.368 . S
H2067 C2075 0.948 . S
H2068 C2073 0.950 . S
H2069 C2074 0.949 1_455 S
H2070 C2076 0.950 . S
H2071 C2077 0.950 . S
H2072 C2078 0.949 . S
C2073 H2068 0.950 . S
C2073 C2075 1.327 . S
C2073 C2079 1.429 . S
C2074 C2066 1.574 . S
C2074 H2069 0.949 1_655 S
C2074 C2080 1.368 . S
C2075 C2059 1.351 1_655 S
C2075 H2067 0.948 . S
C2075 C2073 1.327 . S
C2076 C2064 1.349 . S
C2076 H2070 0.950 . S
C2076 C2077 1.327 . S
C2077 H2071 0.950 . S
C2077 C2076 1.327 . S
C2077 C2081 1.429 . S
C2078 C2061 1.574 . S
C2078 H2072 0.949 . S
C2078 C2082 1.368 . S
C2079 C2060 1.429 1_655 S
C2079 C2073 1.429 . S
C2079 C2080 1.523 . S
C2080 C2061 1.368 . S
C2080 C2074 1.368 . S
C2080 C2079 1.523 . S
C2081 C2065 1.429 . S
C2081 C2077 1.429 . S
C2081 C2082 1.523 . S
C2082 C2066 1.368 . S
C2082 C2078 1.368 . S
C2082 C2081 1.523 . S
H2083 C2058 0.950 . S
H2084 C2060 0.950 . S
H2085 C2061 0.949 . S
H2086 C2063 0.950 . S
H2087 C2065 0.950 . S
C2088 C2089 1.349 . S
C2088 C2090 1.327 . S
C2088 H2113 0.950 . S
C2089 C2088 1.349 . S
C2089 C2105 1.349 . S
C2090 C2088 1.327 . S
C2090 C2109 1.429 . S
C2090 H2114 0.950 . S
C2091 C2108 1.574 1_655 S
C2091 C2110 1.368 . S
C2091 H2115 0.949 . S
H2092 C2096 0.949 . S
C2093 C2094 1.349 . S
C2093 C2095 1.327 . S
C2093 H2116 0.950 . S
C2094 C2093 1.349 . S
C2094 C2106 1.349 . S
C2095 C2093 1.327 . S
C2095 C2111 1.429 . S
C2095 H2117 0.950 . S
C2096 H2092 0.949 . S
C2096 C2104 1.574 1_455 S
C2096 C2112 1.368 . S
H2097 C2105 0.950 . S
H2098 C2103 0.950 . S
H2099 C2104 0.949 . S
H2100 C2106 0.950 . S
H2101 C2107 0.950 . S
H2102 C2108 0.949 . S
C2103 H2098 0.950 . S
C2103 C2105 1.327 . S
C2103 C2109 1.429 . S
C2104 C2096 1.574 1_655 S
C2104 H2099 0.949 . S
C2104 C2110 1.368 . S
C2105 C2089 1.349 . S
C2105 H2097 0.950 . S
C2105 C2103 1.327 . S
C2106 C2094 1.349 . S
C2106 H2100 0.950 . S
C2106 C2107 1.327 . S
C2107 H2101 0.950 . S
C2107 C2106 1.327 . S
C2107 C2111 1.429 . S
C2108 C2091 1.574 1_455 S
C2108 H2102 0.949 . S
C2108 C2112 1.368 . S
C2109 C2090 1.429 . S
C2109 C2103 1.429 . S
C2109 C2110 1.523 . S
C2110 C2091 1.368 . S
C2110 C2104 1.368 . S
C2110 C2109 1.523 . S
C2111 C2095 1.429 . S
C2111 C2107 1.429 . S
C2111 C2112 1.523 . S
C2112 C2096 1.368 . S
C2112 C2108 1.368 . S
C2112 C2111 1.523 . S
H2113 C2088 0.950 . S
H2114 C2090 0.950 . S
H2115 C2091 0.949 . S
H2116 C2093 0.950 . S
H2117 C2095 0.950 . S
C2118 C2119 1.349 . S
C2118 C2120 1.327 . S
C2118 H2143 0.950 . S
C2119 C2118 1.349 . S
C2119 C2135 1.349 . S
C2120 C2118 1.327 . S
C2120 C2139 1.429 . S
C2120 H2144 0.950 . S
C2121 C2138 1.574 . S
C2121 C2140 1.368 . S
C2121 H2145 0.949 . S
H2122 C2126 0.949 . S
C2123 C2124 1.349 . S
C2123 C2125 1.327 . S
C2123 H2146 0.950 . S
C2124 C2123 1.349 . S
C2124 C2136 1.349 . S
C2125 C2123 1.327 . S
C2125 C2141 1.429 . S
C2125 H2147 0.950 . S
C2126 H2122 0.949 . S
C2126 C2134 1.574 . S
C2126 C2142 1.368 . S
H2127 C2135 0.950 . S
H2128 C2133 0.950 . S
H2129 C2134 0.949 . S
H2130 C2136 0.950 . S
H2131 C2137 0.950 . S
H2132 C2138 0.949 . S
C2133 H2128 0.950 . S
C2133 C2135 1.327 . S
C2133 C2139 1.429 . S
C2134 C2126 1.574 . S
C2134 H2129 0.949 . S
C2134 C2140 1.368 . S
C2135 C2119 1.349 . S
C2135 H2127 0.950 . S
C2135 C2133 1.327 . S
C2136 C2124 1.349 . S
C2136 H2130 0.950 . S
C2136 C2137 1.327 . S
C2137 H2131 0.950 . S
C2137 C2136 1.327 . S
C2137 C2141 1.429 . S
C2138 C2121 1.574 . S
C2138 H2132 0.949 . S
C2138 C2142 1.368 . S
C2139 C2120 1.429 . S
C2139 C2133 1.429 . S
C2139 C2140 1.523 . S
C2140 C2121 1.368 . S
C2140 C2134 1.368 . S
C2140 C2139 1.523 . S
C2141 C2125 1.429 . S
C2141 C2137 1.429 . S
C2141 C2142 1.523 . S
C2142 C2126 1.368 . S
C2142 C2138 1.368 . S
C2142 C2141 1.523 . S
H2143 C2118 0.950 . S
H2144 C2120 0.950 . S
H2145 C2121 0.949 . S
H2146 C2123 0.950 . S
H2147 C2125 0.950 . S
C2148 C2149 1.349 . S
C2148 C2150 1.327 . S
C2148 H2173 0.950 . S
C2149 C2148 1.349 . S
C2149 C2165 1.349 . S
C2150 C2148 1.327 . S
C2150 C2169 1.429 . S
C2150 H2174 0.950 . S
C2151 C2168 1.574 1_545 S
C2151 C2170 1.368 . S
C2151 H2175 0.949 . S
H2152 C2156 0.949 . S
C2153 C2154 1.349 . S
C2153 C2155 1.327 . S
C2153 H2176 0.950 . S
C2154 C2153 1.349 . S
C2154 C2166 1.349 . S
C2155 C2153 1.327 . S
C2155 C2171 1.429 . S
C2155 H2177 0.950 . S
C2156 H2152 0.949 . S
C2156 C2164 1.574 1_565 S
C2156 C2172 1.368 . S
H2157 C2165 0.950 . S
H2158 C2163 0.950 . S
H2159 C2164 0.949 . S
H2160 C2166 0.950 . S
H2161 C2167 0.950 . S
H2162 C2168 0.949 . S
C2163 H2158 0.950 . S
C2163 C2165 1.327 . S
C2163 C2169 1.429 . S
C2164 C2156 1.574 1_545 S
C2164 H2159 0.949 . S
C2164 C2170 1.368 . S
C2165 C2149 1.349 . S
C2165 H2157 0.950 . S
C2165 C2163 1.327 . S
C2166 C2154 1.349 . S
C2166 H2160 0.950 . S
C2166 C2167 1.327 . S
C2167 H2161 0.950 . S
C2167 C2166 1.327 . S
C2167 C2171 1.429 . S
C2168 C2151 1.574 1_565 S
C2168 H2162 0.949 . S
C2168 C2172 1.368 . S
C2169 C2150 1.429 . S
C2169 C2163 1.429 . S
C2169 C2170 1.523 . S
C2170 C2151 1.368 . S
C2170 C2164 1.368 . S
C2170 C2169 1.523 . S
C2171 C2155 1.429 . S
C2171 C2167 1.429 . S
C2171 C2172 1.523 . S
C2172 C2156 1.368 . S
C2172 C2168 1.368 . S
C2172 C2171 1.523 . S
H2173 C2148 0.950 . S
H2174 C2150 0.950 . S
H2175 C2151 0.949 . S
H2176 C2153 0.950 . S
H2177 C2155 0.950 . S
C2178 C2179 1.349 . S
C2178 C2180 1.327 . S
C2178 H2203 0.950 . S
C2179 C2178 1.349 . S
C2179 C2195 1.349 . S
C2180 C2178 1.327 . S
C2180 C2199 1.429 . S
C2180 H2204 0.950 . S
C2181 C2198 1.574 1_545 S
C2181 C2200 1.368 . S
C2181 H2205 0.949 . S
H2182 C2186 0.949 . S
C2183 C2184 1.349 . S
C2183 C2185 1.327 . S
C2183 H2206 0.950 . S
C2184 C2183 1.349 . S
C2184 C2196 1.349 . S
C2185 C2183 1.327 . S
C2185 C2201 1.429 . S
C2185 H2207 0.950 . S
C2186 H2182 0.949 . S
C2186 C2194 1.574 1_565 S
C2186 C2202 1.368 . S
H2187 C2195 0.950 . S
H2188 C2193 0.950 . S
H2189 C2194 0.949 . S
H2190 C2196 0.950 . S
H2191 C2197 0.950 . S
H2192 C2198 0.949 . S
C2193 H2188 0.950 . S
C2193 C2195 1.327 . S
C2193 C2199 1.429 . S
C2194 C2186 1.574 1_545 S
C2194 H2189 0.949 . S
C2194 C2200 1.368 . S
C2195 C2179 1.349 . S
C2195 H2187 0.950 . S
C2195 C2193 1.327 . S
C2196 C2184 1.349 . S
C2196 H2190 0.950 . S
C2196 C2197 1.327 . S
C2197 H2191 0.950 . S
C2197 C2196 1.327 . S
C2197 C2201 1.429 . S
C2198 C2181 1.574 1_565 S
C2198 H2192 0.949 . S
C2198 C2202 1.368 . S
C2199 C2180 1.429 . S
C2199 C2193 1.429 . S
C2199 C2200 1.523 . S
C2200 C2181 1.368 . S
C2200 C2194 1.368 . S
C2200 C2199 1.523 . S
C2201 C2185 1.429 . S
C2201 C2197 1.429 . S
C2201 C2202 1.523 . S
C2202 C2186 1.368 . S
C2202 C2198 1.368 . S
C2202 C2201 1.523 . S
H2203 C2178 0.950 . S
H2204 C2180 0.950 . S
H2205 C2181 0.949 . S
H2206 C2183 0.950 . S
H2207 C2185 0.950 . S
C2208 C2209 1.349 . S
C2208 C2210 1.327 . S
C2208 H2233 0.950 . S
C2209 C2208 1.349 . S
C2209 C2225 1.349 . S
C2210 C2208 1.327 . S
C2210 C2229 1.429 . S
C2210 H2234 0.950 . S
C2211 C2228 1.574 1_455 S
C2211 C2230 1.368 . S
C2211 H2235 0.949 . S
H2212 C2216 0.949 . S
C2213 C2214 1.349 . S
C2213 C2215 1.327 . S
C2213 H2236 0.950 . S
C2214 C2213 1.349 . S
C2214 C2226 1.349 . S
C2215 C2213 1.327 . S
C2215 C2231 1.429 . S
C2215 H2237 0.950 . S
C2216 H2212 0.949 . S
C2216 C2224 1.574 1_655 S
C2216 C2232 1.368 . S
H2217 C2225 0.950 . S
H2218 C2223 0.950 . S
H2219 C2224 0.949 . S
H2220 C2226 0.950 . S
H2221 C2227 0.950 . S
H2222 C2228 0.949 . S
C2223 H2218 0.950 . S
C2223 C2225 1.327 . S
C2223 C2229 1.429 . S
C2224 C2216 1.574 1_455 S
C2224 H2219 0.949 . S
C2224 C2230 1.368 . S
C2225 C2209 1.349 . S
C2225 H2217 0.950 . S
C2225 C2223 1.327 . S
C2226 C2214 1.349 . S
C2226 H2220 0.950 . S
C2226 C2227 1.327 . S
C2227 H2221 0.950 . S
C2227 C2226 1.327 . S
C2227 C2231 1.429 . S
C2228 C2211 1.574 1_655 S
C2228 H2222 0.949 . S
C2228 C2232 1.368 . S
C2229 C2210 1.429 . S
C2229 C2223 1.429 . S
C2229 C2230 1.523 . S
C2230 C2211 1.368 . S
C2230 C2224 1.368 . S
C2230 C2229 1.523 . S
C2231 C2215 1.429 . S
C2231 C2227 1.429 . S
C2231 C2232 1.523 . S
C2232 C2216 1.368 . S
C2232 C2228 1.368 . S
C2232 C2231 1.523 . S
H2233 C2208 0.950 . S
H2234 C2210 0.950 . S
H2235 C2211 0.949 . S
H2236 C2213 0.950 . S
H2237 C2215 0.950 . S
C2238 C2239 1.349 . S
C2238 C2240 1.327 . S
C2238 H2263 0.950 . S
C2239 C2238 1.349 . S
C2239 C2255 1.349 . S
C2240 C2238 1.327 . S
C2240 C2259 1.429 . S
C2240 H2264 0.950 . S
C2241 C2258 1.574 . S
C2241 C2260 1.368 . S
C2241 H2265 0.949 . S
H2242 C2246 0.949 . S
C2243 C2244 1.349 . S
C2243 C2245 1.327 . S
C2243 H2266 0.950 . S
C2244 C2243 1.349 . S
C2244 C2256 1.349 . S
C2245 C2243 1.327 . S
C2245 C2261 1.429 . S
C2245 H2267 0.950 . S
C2246 H2242 0.949 . S
C2246 C2254 1.574 . S
C2246 C2262 1.368 . S
H2247 C2255 0.950 . S
H2248 C2253 0.950 . S
H2249 C2254 0.949 . S
H2250 C2256 0.950 . S
H2251 C2257 0.950 . S
H2252 C2258 0.949 . S
C2253 H2248 0.950 . S
C2253 C2255 1.327 . S
C2253 C2259 1.429 . S
C2254 C2246 1.574 . S
C2254 H2249 0.949 . S
C2254 C2260 1.368 . S
C2255 C2239 1.349 . S
C2255 H2247 0.950 . S
C2255 C2253 1.327 . S
C2256 C2244 1.349 . S
C2256 H2250 0.950 . S
C2256 C2257 1.327 . S
C2257 H2251 0.950 . S
C2257 C2256 1.327 . S
C2257 C2261 1.429 . S
C2258 C2241 1.574 . S
C2258 H2252 0.949 . S
C2258 C2262 1.368 . S
C2259 C2240 1.429 . S
C2259 C2253 1.429 . S
C2259 C2260 1.523 . S
C2260 C2241 1.368 . S
C2260 C2254 1.368 . S
C2260 C2259 1.523 . S
C2261 C2245 1.429 . S
C2261 C2257 1.429 . S
C2261 C2262 1.523 . S
C2262 C2246 1.368 . S
C2262 C2258 1.368 . S
C2262 C2261 1.523 . S
H2263 C2238 0.950 . S
H2264 C2240 0.950 . S
H2265 C2241 0.949 . S
H2266 C2243 0.950 . S
H2267 C2245 0.950 . S
C2268 C2269 1.349 . S
C2268 C2270 1.327 . S
C2268 H2293 0.950 . S
C2269 C2268 1.349 . S
C2269 C2285 1.349 . S
C2270 C2268 1.327 . S
C2270 C2289 1.429 . S
C2270 H2294 0.950 . S
C2271 C2288 1.574 . S
C2271 C2290 1.368 . S
C2271 H2295 0.949 . S
H2272 C2276 0.949 . S
C2273 C2274 1.349 . S
C2273 C2275 1.327 . S
C2273 H2296 0.950 . S
C2274 C2273 1.349 . S
C2274 C2286 1.349 . S
C2275 C2273 1.327 . S
C2275 C2291 1.429 . S
C2275 H2297 0.950 . S
C2276 H2272 0.949 . S
C2276 C2284 1.574 . S
C2276 C2292 1.368 . S
H2277 C2285 0.950 . S
H2278 C2283 0.950 . S
H2279 C2284 0.949 . S
H2280 C2286 0.950 . S
H2281 C2287 0.950 . S
H2282 C2288 0.949 . S
C2283 H2278 0.950 . S
C2283 C2285 1.327 . S
C2283 C2289 1.429 . S
C2284 C2276 1.574 . S
C2284 H2279 0.949 . S
C2284 C2290 1.368 . S
C2285 C2269 1.349 . S
C2285 H2277 0.950 . S
C2285 C2283 1.327 . S
C2286 C2274 1.349 . S
C2286 H2280 0.950 . S
C2286 C2287 1.327 . S
C2287 H2281 0.950 . S
C2287 C2286 1.327 . S
C2287 C2291 1.429 . S
C2288 C2271 1.574 . S
C2288 H2282 0.949 . S
C2288 C2292 1.368 . S
C2289 C2270 1.429 . S
C2289 C2283 1.429 . S
C2289 C2290 1.523 . S
C2290 C2271 1.368 . S
C2290 C2284 1.368 . S
C2290 C2289 1.523 . S
C2291 C2275 1.429 . S
C2291 C2287 1.429 . S
C2291 C2292 1.523 . S
C2292 C2276 1.368 . S
C2292 C2288 1.368 . S
C2292 C2291 1.523 . S
H2293 C2268 0.950 . S
H2294 C2270 0.950 . S
H2295 C2271 0.949 . S
H2296 C2273 0.950 . S
H2297 C2275 0.950 . S
C2298 C2299 1.349 . S
C2298 C2300 1.327 . S
C2298 H2323 0.950 . S
C2299 C2298 1.349 . S
C2299 C2315 1.349 . S
C2300 C2298 1.327 . S
C2300 C2319 1.429 . S
C2300 H2324 0.950 . S
C2301 C2318 1.574 . S
C2301 C2320 1.368 . S
C2301 H2325 0.949 . S
H2302 C2306 0.949 . S
C2303 C2304 1.349 . S
C2303 C2305 1.327 . S
C2303 H2326 0.950 . S
C2304 C2303 1.349 . S
C2304 C2316 1.349 . S
C2305 C2303 1.327 . S
C2305 C2321 1.429 . S
C2305 H2327 0.950 . S
C2306 H2302 0.949 . S
C2306 C2314 1.574 . S
C2306 C2322 1.368 . S
H2307 C2315 0.950 . S
H2308 C2313 0.950 . S
H2309 C2314 0.949 . S
H2310 C2316 0.950 . S
H2311 C2317 0.950 . S
H2312 C2318 0.949 . S
C2313 H2308 0.950 . S
C2313 C2315 1.327 . S
C2313 C2319 1.429 . S
C2314 C2306 1.574 . S
C2314 H2309 0.949 . S
C2314 C2320 1.368 . S
C2315 C2299 1.349 . S
C2315 H2307 0.950 . S
C2315 C2313 1.327 . S
C2316 C2304 1.349 . S
C2316 H2310 0.950 . S
C2316 C2317 1.327 . S
C2317 H2311 0.950 . S
C2317 C2316 1.327 . S
C2317 C2321 1.429 . S
C2318 C2301 1.574 . S
C2318 H2312 0.949 . S
C2318 C2322 1.368 . S
C2319 C2300 1.429 . S
C2319 C2313 1.429 . S
C2319 C2320 1.523 . S
C2320 C2301 1.368 . S
C2320 C2314 1.368 . S
C2320 C2319 1.523 . S
C2321 C2305 1.429 . S
C2321 C2317 1.429 . S
C2321 C2322 1.523 . S
C2322 C2306 1.368 . S
C2322 C2318 1.368 . S
C2322 C2321 1.523 . S
H2323 C2298 0.950 . S
H2324 C2300 0.950 . S
H2325 C2301 0.949 . S
H2326 C2303 0.950 . S
H2327 C2305 0.950 . S
C2328 C2329 1.349 . S
C2328 C2330 1.327 . S
C2328 H2353 0.950 . S
C2329 C2328 1.349 . S
C2329 C2345 1.349 . S
C2330 C2328 1.327 . S
C2330 C2349 1.429 . S
C2330 H2354 0.950 . S
C2331 C2348 1.574 . S
C2331 C2350 1.368 . S
C2331 H2355 0.949 . S
H2332 C2336 0.949 . S
C2333 C2334 1.349 . S
C2333 C2335 1.327 . S
C2333 H2356 0.950 . S
C2334 C2333 1.349 . S
C2334 C2346 1.349 . S
C2335 C2333 1.327 . S
C2335 C2351 1.429 . S
C2335 H2357 0.950 . S
C2336 H2332 0.949 . S
C2336 C2344 1.574 . S
C2336 C2352 1.368 . S
H2337 C2345 0.950 . S
H2338 C2343 0.950 . S
H2339 C2344 0.949 . S
H2340 C2346 0.950 . S
H2341 C2347 0.950 . S
H2342 C2348 0.949 . S
C2343 H2338 0.950 . S
C2343 C2345 1.327 . S
C2343 C2349 1.429 . S
C2344 C2336 1.574 . S
C2344 H2339 0.949 . S
C2344 C2350 1.368 . S
C2345 C2329 1.349 . S
C2345 H2337 0.950 . S
C2345 C2343 1.327 . S
C2346 C2334 1.349 . S
C2346 H2340 0.950 . S
C2346 C2347 1.327 . S
C2347 H2341 0.950 . S
C2347 C2346 1.327 . S
C2347 C2351 1.429 . S
C2348 C2331 1.574 . S
C2348 H2342 0.949 . S
C2348 C2352 1.368 . S
C2349 C2330 1.429 . S
C2349 C2343 1.429 . S
C2349 C2350 1.523 . S
C2350 C2331 1.368 . S
C2350 C2344 1.368 . S
C2350 C2349 1.523 . S
C2351 C2335 1.429 . S
C2351 C2347 1.429 . S
C2351 C2352 1.523 . S
C2352 C2336 1.368 . S
C2352 C2348 1.368 . S
C2352 C2351 1.523 . S
H2353 C2328 0.950 . S
H2354 C2330 0.950 . S
H2355 C2331 0.949 . S
H2356 C2333 0.950 . S
H2357 C2335 0.950 . S
C2358 C2359 1.349 . S
C2358 C2360 1.327 . S
C2358 H2383 0.950 . S
C2359 C2358 1.349 . S
C2359 C2375 1.349 . S
C2360 C2358 1.327 . S
C2360 C2379 1.429 . S
C2360 H2384 0.950 . S
C2361 C2378 1.574 . S
C2361 C2380 1.368 . S
C2361 H2385 0.949 . S
H2362 C2366 0.949 . S
C2363 C2364 1.349 . S
C2363 C2365 1.327 . S
C2363 H2386 0.950 . S
C2364 C2363 1.349 . S
C2364 C2376 1.349 . S
C2365 C2363 1.327 . S
C2365 C2381 1.429 . S
C2365 H2387 0.950 . S
C2366 H2362 0.949 . S
C2366 C2374 1.574 . S
C2366 C2382 1.368 . S
H2367 C2375 0.950 . S
H2368 C2373 0.950 . S
H2369 C2374 0.949 . S
H2370 C2376 0.950 . S
H2371 C2377 0.950 . S
H2372 C2378 0.949 . S
C2373 H2368 0.950 . S
C2373 C2375 1.327 . S
C2373 C2379 1.429 . S
C2374 C2366 1.574 . S
C2374 H2369 0.949 . S
C2374 C2380 1.368 . S
C2375 C2359 1.349 . S
C2375 H2367 0.950 . S
C2375 C2373 1.327 . S
C2376 C2364 1.349 . S
C2376 H2370 0.950 . S
C2376 C2377 1.327 . S
C2377 H2371 0.950 . S
C2377 C2376 1.327 . S
C2377 C2381 1.429 . S
C2378 C2361 1.574 . S
C2378 H2372 0.949 . S
C2378 C2382 1.368 . S
C2379 C2360 1.429 . S
C2379 C2373 1.429 . S
C2379 C2380 1.523 . S
C2380 C2361 1.368 . S
C2380 C2374 1.368 . S
C2380 C2379 1.523 . S
C2381 C2365 1.429 . S
C2381 C2377 1.429 . S
C2381 C2382 1.523 . S
C2382 C2366 1.368 . S
C2382 C2378 1.368 . S
C2382 C2381 1.523 . S
H2383 C2358 0.950 . S
H2384 C2360 0.950 . S
H2385 C2361 0.949 . S
H2386 C2363 0.950 . S
H2387 C2365 0.950 . S
C2388 C2389 1.349 . S
C2388 C2390 1.327 . S
C2388 H2413 0.950 . S
C2389 C2388 1.349 . S
C2389 C2405 1.349 . S
C2390 C2388 1.327 . S
C2390 C2409 1.429 . S
C2390 H2414 0.950 . S
C2391 C2408 1.574 . S
C2391 C2410 1.368 . S
C2391 H2415 0.949 . S
H2392 C2396 0.949 . S
C2393 C2394 1.349 . S
C2393 C2395 1.327 . S
C2393 H2416 0.950 . S
C2394 C2393 1.349 . S
C2394 C2406 1.349 . S
C2395 C2393 1.327 . S
C2395 C2411 1.429 . S
C2395 H2417 0.950 . S
C2396 H2392 0.949 . S
C2396 C2404 1.574 . S
C2396 C2412 1.368 . S
H2397 C2405 0.950 . S
H2398 C2403 0.950 . S
H2399 C2404 0.949 . S
H2400 C2406 0.950 . S
H2401 C2407 0.950 . S
H2402 C2408 0.949 . S
C2403 H2398 0.950 . S
C2403 C2405 1.327 . S
C2403 C2409 1.429 . S
C2404 C2396 1.574 . S
C2404 H2399 0.949 . S
C2404 C2410 1.368 . S
C2405 C2389 1.349 . S
C2405 H2397 0.950 . S
C2405 C2403 1.327 . S
C2406 C2394 1.349 . S
C2406 H2400 0.950 . S
C2406 C2407 1.327 . S
C2407 H2401 0.950 . S
C2407 C2406 1.327 . S
C2407 C2411 1.429 . S
C2408 C2391 1.574 . S
C2408 H2402 0.949 . S
C2408 C2412 1.368 . S
C2409 C2390 1.429 . S
C2409 C2403 1.429 . S
C2409 C2410 1.523 . S
C2410 C2391 1.368 . S
C2410 C2404 1.368 . S
C2410 C2409 1.523 . S
C2411 C2395 1.429 . S
C2411 C2407 1.429 . S
C2411 C2412 1.523 . S
C2412 C2396 1.368 . S
C2412 C2408 1.368 . S
C2412 C2411 1.523 . S
H2413 C2388 0.950 . S
H2414 C2390 0.950 . S
H2415 C2391 0.949 . S
H2416 C2393 0.950 . S
H2417 C2395 0.950 . S
C2418 C2419 1.349 . S
C2418 C2420 1.327 . S
C2418 H2443 0.950 . S
C2419 C2418 1.349 . S
C2419 C2435 1.349 . S
C2420 C2418 1.327 . S
C2420 C2439 1.429 . S
C2420 H2444 0.950 . S
C2421 C2438 1.574 . S
C2421 C2440 1.368 . S
C2421 H2445 0.949 . S
H2422 C2426 0.949 . S
C2423 C2424 1.349 . S
C2423 C2425 1.327 . S
C2423 H2446 0.950 . S
C2424 C2423 1.349 . S
C2424 C2436 1.349 . S
C2425 C2423 1.327 . S
C2425 C2441 1.429 . S
C2425 H2447 0.950 . S
C2426 H2422 0.949 . S
C2426 C2434 1.574 . S
C2426 C2442 1.368 . S
H2427 C2435 0.950 . S
H2428 C2433 0.950 . S
H2429 C2434 0.949 . S
H2430 C2436 0.950 . S
H2431 C2437 0.950 . S
H2432 C2438 0.949 . S
C2433 H2428 0.950 . S
C2433 C2435 1.327 . S
C2433 C2439 1.429 . S
C2434 C2426 1.574 . S
C2434 H2429 0.949 . S
C2434 C2440 1.368 . S
C2435 C2419 1.349 . S
C2435 H2427 0.950 . S
C2435 C2433 1.327 . S
C2436 C2424 1.349 . S
C2436 H2430 0.950 . S
C2436 C2437 1.327 . S
C2437 H2431 0.950 . S
C2437 C2436 1.327 . S
C2437 C2441 1.429 . S
C2438 C2421 1.574 . S
C2438 H2432 0.949 . S
C2438 C2442 1.368 . S
C2439 C2420 1.429 . S
C2439 C2433 1.429 . S
C2439 C2440 1.523 . S
C2440 C2421 1.368 . S
C2440 C2434 1.368 . S
C2440 C2439 1.523 . S
C2441 C2425 1.429 . S
C2441 C2437 1.429 . S
C2441 C2442 1.523 . S
C2442 C2426 1.368 . S
C2442 C2438 1.368 . S
C2442 C2441 1.523 . S
H2443 C2418 0.950 . S
H2444 C2420 0.950 . S
H2445 C2421 0.949 . S
H2446 C2423 0.950 . S
H2447 C2425 0.950 . S
C2448 C2449 1.349 . S
C2448 C2450 1.327 . S
C2448 H2473 0.950 . S
C2449 C2448 1.349 . S
C2449 C2465 1.349 . S
C2450 C2448 1.327 . S
C2450 C2469 1.429 . S
C2450 H2474 0.950 . S
C2451 C2468 1.574 . S
C2451 C2470 1.368 . S
C2451 H2475 0.949 . S
H2452 C2456 0.949 . S
C2453 C2454 1.349 . S
C2453 C2455 1.327 . S
C2453 H2476 0.950 . S
C2454 C2453 1.349 . S
C2454 C2466 1.349 . S
C2455 C2453 1.327 . S
C2455 C2471 1.429 . S
C2455 H2477 0.950 . S
C2456 H2452 0.949 . S
C2456 C2464 1.574 . S
C2456 C2472 1.368 . S
H2457 C2465 0.950 . S
H2458 C2463 0.950 . S
H2459 C2464 0.949 . S
H2460 C2466 0.950 . S
H2461 C2467 0.950 . S
H2462 C2468 0.949 . S
C2463 H2458 0.950 . S
C2463 C2465 1.327 . S
C2463 C2469 1.429 . S
C2464 C2456 1.574 . S
C2464 H2459 0.949 . S
C2464 C2470 1.368 . S
C2465 C2449 1.349 . S
C2465 H2457 0.950 . S
C2465 C2463 1.327 . S
C2466 C2454 1.349 . S
C2466 H2460 0.950 . S
C2466 C2467 1.327 . S
C2467 H2461 0.950 . S
C2467 C2466 1.327 . S
C2467 C2471 1.429 . S
C2468 C2451 1.574 . S
C2468 H2462 0.949 . S
C2468 C2472 1.368 . S
C2469 C2450 1.429 . S
C2469 C2463 1.429 . S
C2469 C2470 1.523 . S
C2470 C2451 1.368 . S
C2470 C2464 1.368 . S
C2470 C2469 1.523 . S
C2471 C2455 1.429 . S
C2471 C2467 1.429 . S
C2471 C2472 1.523 . S
C2472 C2456 1.368 . S
C2472 C2468 1.368 . S
C2472 C2471 1.523 . S
H2473 C2448 0.950 . S
H2474 C2450 0.950 . S
H2475 C2451 0.949 . S
H2476 C2453 0.950 . S
H2477 C2455 0.950 . S
C2478 C2479 1.349 . S
C2478 C2480 1.327 . S
C2478 H2503 0.950 . S
C2479 C2478 1.349 . S
C2479 C2495 1.349 . S
C2480 C2478 1.327 . S
C2480 C2499 1.429 . S
C2480 H2504 0.950 . S
C2481 C2498 1.574 . S
C2481 C2500 1.368 . S
C2481 H2505 0.949 . S
H2482 C2486 0.949 . S
C2483 C2484 1.349 . S
C2483 C2485 1.327 . S
C2483 H2506 0.950 . S
C2484 C2483 1.349 . S
C2484 C2496 1.349 . S
C2485 C2483 1.327 . S
C2485 C2501 1.429 . S
C2485 H2507 0.950 . S
C2486 H2482 0.949 . S
C2486 C2494 1.574 . S
C2486 C2502 1.368 . S
H2487 C2495 0.950 . S
H2488 C2493 0.950 . S
H2489 C2494 0.949 . S
H2490 C2496 0.950 . S
H2491 C2497 0.950 . S
H2492 C2498 0.949 . S
C2493 H2488 0.950 . S
C2493 C2495 1.327 . S
C2493 C2499 1.429 . S
C2494 C2486 1.574 . S
C2494 H2489 0.949 . S
C2494 C2500 1.368 . S
C2495 C2479 1.349 . S
C2495 H2487 0.950 . S
C2495 C2493 1.327 . S
C2496 C2484 1.349 . S
C2496 H2490 0.950 . S
C2496 C2497 1.327 . S
C2497 H2491 0.950 . S
C2497 C2496 1.327 . S
C2497 C2501 1.429 . S
C2498 C2481 1.574 . S
C2498 H2492 0.949 . S
C2498 C2502 1.368 . S
C2499 C2480 1.429 . S
C2499 C2493 1.429 . S
C2499 C2500 1.523 . S
C2500 C2481 1.368 . S
C2500 C2494 1.368 . S
C2500 C2499 1.523 . S
C2501 C2485 1.429 . S
C2501 C2497 1.429 . S
C2501 C2502 1.523 . S
C2502 C2486 1.368 . S
C2502 C2498 1.368 . S
C2502 C2501 1.523 . S
H2503 C2478 0.950 . S
H2504 C2480 0.950 . S
H2505 C2481 0.949 . S
H2506 C2483 0.950 . S
H2507 C2485 0.950 . S
C2508 C2509 1.349 . S
C2508 C2510 1.327 . S
C2508 H2533 0.950 . S
C2509 C2508 1.349 . S
C2509 C2525 1.349 . S
C2510 C2508 1.327 . S
C2510 C2529 1.429 . S
C2510 H2534 0.950 . S
C2511 C2528 1.574 . S
C2511 C2530 1.368 . S
C2511 H2535 0.949 . S
H2512 C2516 0.949 . S
C2513 C2514 1.349 . S
C2513 C2515 1.327 . S
C2513 H2536 0.950 . S
C2514 C2513 1.349 . S
C2514 C2526 1.349 . S
C2515 C2513 1.327 . S
C2515 C2531 1.429 . S
C2515 H2537 0.950 . S
C2516 H2512 0.949 . S
C2516 C2524 1.574 . S
C2516 C2532 1.368 . S
H2517 C2525 0.950 . S
H2518 C2523 0.950 . S
H2519 C2524 0.949 . S
H2520 C2526 0.950 . S
H2521 C2527 0.950 . S
H2522 C2528 0.949 . S
C2523 H2518 0.950 . S
C2523 C2525 1.327 . S
C2523 C2529 1.429 . S
C2524 C2516 1.574 . S
C2524 H2519 0.949 . S
C2524 C2530 1.368 . S
C2525 C2509 1.349 . S
C2525 H2517 0.950 . S
C2525 C2523 1.327 . S
C2526 C2514 1.349 . S
C2526 H2520 0.950 . S
C2526 C2527 1.327 . S
C2527 H2521 0.950 . S
C2527 C2526 1.327 . S
C2527 C2531 1.429 . S
C2528 C2511 1.574 . S
C2528 H2522 0.949 . S
C2528 C2532 1.368 . S
C2529 C2510 1.429 . S
C2529 C2523 1.429 . S
C2529 C2530 1.523 . S
C2530 C2511 1.368 . S
C2530 C2524 1.368 . S
C2530 C2529 1.523 . S
C2531 C2515 1.429 . S
C2531 C2527 1.429 . S
C2531 C2532 1.523 . S
C2532 C2516 1.368 . S
C2532 C2528 1.368 . S
C2532 C2531 1.523 . S
H2533 C2508 0.950 . S
H2534 C2510 0.950 . S
H2535 C2511 0.949 . S
H2536 C2513 0.950 . S
H2537 C2515 0.950 . S
C2538 C2539 1.349 . S
C2538 C2540 1.327 . S
C2538 H2563 0.950 . S
C2539 C2538 1.349 . S
C2539 C2555 1.349 . S
C2540 C2538 1.327 . S
C2540 C2559 1.429 . S
C2540 H2564 0.950 . S
C2541 C2558 1.574 . S
C2541 C2560 1.368 . S
C2541 H2565 0.949 . S
H2542 C2546 0.949 . S
C2543 C2544 1.349 . S
C2543 C2545 1.327 . S
C2543 H2566 0.950 . S
C2544 C2543 1.349 . S
C2544 C2556 1.349 . S
C2545 C2543 1.327 . S
C2545 C2561 1.429 . S
C2545 H2567 0.950 . S
C2546 H2542 0.949 . S
C2546 C2554 1.574 . S
C2546 C2562 1.368 . S
H2547 C2555 0.950 . S
H2548 C2553 0.950 . S
H2549 C2554 0.949 . S
H2550 C2556 0.950 . S
H2551 C2557 0.950 . S
H2552 C2558 0.949 . S
C2553 H2548 0.950 . S
C2553 C2555 1.327 . S
C2553 C2559 1.429 . S
C2554 C2546 1.574 . S
C2554 H2549 0.949 . S
C2554 C2560 1.368 . S
C2555 C2539 1.349 . S
C2555 H2547 0.950 . S
C2555 C2553 1.327 . S
C2556 C2544 1.349 . S
C2556 H2550 0.950 . S
C2556 C2557 1.327 . S
C2557 H2551 0.950 . S
C2557 C2556 1.327 . S
C2557 C2561 1.429 . S
C2558 C2541 1.574 . S
C2558 H2552 0.949 . S
C2558 C2562 1.368 . S
C2559 C2540 1.429 . S
C2559 C2553 1.429 . S
C2559 C2560 1.523 . S
C2560 C2541 1.368 . S
C2560 C2554 1.368 . S
C2560 C2559 1.523 . S
C2561 C2545 1.429 . S
C2561 C2557 1.429 . S
C2561 C2562 1.523 . S
C2562 C2546 1.368 . S
C2562 C2558 1.368 . S
C2562 C2561 1.523 . S
H2563 C2538 0.950 . S
H2564 C2540 0.950 . S
H2565 C2541 0.949 . S
H2566 C2543 0.950 . S
H2567 C2545 0.950 . S
C2568 C2569 1.349 . S
C2568 C2570 1.327 . S
C2568 H2593 0.950 . S
C2569 C2568 1.349 . S
C2569 C2585 1.349 . S
C2570 C2568 1.327 . S
C2570 C2589 1.429 . S
C2570 H2594 0.950 . S
C2571 C2588 1.574 . S
C2571 C2590 1.368 . S
C2571 H2595 0.949 . S
H2572 C2576 0.949 . S
C2573 C2574 1.349 . S
C2573 C2575 1.327 . S
C2573 H2596 0.950 . S
C2574 C2573 1.349 . S
C2574 C2586 1.349 . S
C2575 C2573 1.327 . S
C2575 C2591 1.429 . S
C2575 H2597 0.950 . S
C2576 H2572 0.949 . S
C2576 C2584 1.574 . S
C2576 C2592 1.368 . S
H2577 C2585 0.950 . S
H2578 C2583 0.950 . S
H2579 C2584 0.949 . S
H2580 C2586 0.950 . S
H2581 C2587 0.950 . S
H2582 C2588 0.949 . S
C2583 H2578 0.950 . S
C2583 C2585 1.327 . S
C2583 C2589 1.429 . S
C2584 C2576 1.574 . S
C2584 H2579 0.949 . S
C2584 C2590 1.368 . S
C2585 C2569 1.349 . S
C2585 H2577 0.950 . S
C2585 C2583 1.327 . S
C2586 C2574 1.349 . S
C2586 H2580 0.950 . S
C2586 C2587 1.327 . S
C2587 H2581 0.950 . S
C2587 C2586 1.327 . S
C2587 C2591 1.429 . S
C2588 C2571 1.574 . S
C2588 H2582 0.949 . S
C2588 C2592 1.368 . S
C2589 C2570 1.429 . S
C2589 C2583 1.429 . S
C2589 C2590 1.523 . S
C2590 C2571 1.368 . S
C2590 C2584 1.368 . S
C2590 C2589 1.523 . S
C2591 C2575 1.429 . S
C2591 C2587 1.429 . S
C2591 C2592 1.523 . S
C2592 C2576 1.368 . S
C2592 C2588 1.368 . S
C2592 C2591 1.523 . S
H2593 C2568 0.950 . S
H2594 C2570 0.950 . S
H2595 C2571 0.949 . S
H2596 C2573 0.950 . S
H2597 C2575 0.950 . S
C2598 C2599 1.349 . S
C2598 C2600 1.327 . S
C2598 H2623 0.950 . S
C2599 C2598 1.349 . S
C2599 C2615 1.349 . S
C2600 C2598 1.327 . S
C2600 C2619 1.429 . S
C2600 H2624 0.950 . S
C2601 C2618 1.574 . S
C2601 C2620 1.368 . S
C2601 H2625 0.949 . S
H2602 C2606 0.949 . S
C2603 C2604 1.349 . S
C2603 C2605 1.327 . S
C2603 H2626 0.950 . S
C2604 C2603 1.349 . S
C2604 C2616 1.349 . S
C2605 C2603 1.327 . S
C2605 C2621 1.429 . S
C2605 H2627 0.950 . S
C2606 H2602 0.949 . S
C2606 C2614 1.574 . S
C2606 C2622 1.368 . S
H2607 C2615 0.950 . S
H2608 C2613 0.950 . S
H2609 C2614 0.949 . S
H2610 C2616 0.950 . S
H2611 C2617 0.950 . S
H2612 C2618 0.949 . S
C2613 H2608 0.950 . S
C2613 C2615 1.327 . S
C2613 C2619 1.429 . S
C2614 C2606 1.574 . S
C2614 H2609 0.949 . S
C2614 C2620 1.368 . S
C2615 C2599 1.349 . S
C2615 H2607 0.950 . S
C2615 C2613 1.327 . S
C2616 C2604 1.349 . S
C2616 H2610 0.950 . S
C2616 C2617 1.327 . S
C2617 H2611 0.950 . S
C2617 C2616 1.327 . S
C2617 C2621 1.429 . S
C2618 C2601 1.574 . S
C2618 H2612 0.949 . S
C2618 C2622 1.368 . S
C2619 C2600 1.429 . S
C2619 C2613 1.429 . S
C2619 C2620 1.523 . S
C2620 C2601 1.368 . S
C2620 C2614 1.368 . S
C2620 C2619 1.523 . S
C2621 C2605 1.429 . S
C2621 C2617 1.429 . S
C2621 C2622 1.523 . S
C2622 C2606 1.368 . S
C2622 C2618 1.368 . S
C2622 C2621 1.523 . S
H2623 C2598 0.950 . S
H2624 C2600 0.950 . S
H2625 C2601 0.949 . S
H2626 C2603 0.950 . S
H2627 C2605 0.950 . S
C2628 C2629 1.349 . S
C2628 C2630 1.327 . S
C2628 H2653 0.950 . S
C2629 C2628 1.349 . S
C2629 C2645 1.349 . S
C2630 C2628 1.327 . S
C2630 C2649 1.429 . S
C2630 H2654 0.950 1_455 S
C2631 C2648 1.574 . S
C2631 C2650 1.368 . S
C2631 H2655 0.949 . S
H2632 C2636 0.949 . S
C2633 C2634 1.349 . S
C2633 C2635 1.327 . S
C2633 H2656 0.950 . S
C2634 C2633 1.349 . S
C2634 C2646 1.349 . S
C2635 C2633 1.327 . S
C2635 C2651 1.429 . S
C2635 H2657 0.950 1_655 S
C2636 H2632 0.949 . S
C2636 C2644 1.574 . S
C2636 C2652 1.368 . S
H2637 C2645 0.950 . S
H2638 C2643 0.950 . S
H2639 C2644 0.949 . S
H2640 C2646 0.950 . S
H2641 C2647 0.950 . S
H2642 C2648 0.949 . S
C2643 H2638 0.950 . S
C2643 C2645 1.327 . S
C2643 C2649 1.429 . S
C2644 C2636 1.574 . S
C2644 H2639 0.949 . S
C2644 C2650 1.368 1_655 S
C2645 C2629 1.349 . S
C2645 H2637 0.950 . S
C2645 C2643 1.327 . S
C2646 C2634 1.349 . S
C2646 H2640 0.950 . S
C2646 C2647 1.327 . S
C2647 H2641 0.950 . S
C2647 C2646 1.327 . S
C2647 C2651 1.429 . S
C2648 C2631 1.574 . S
C2648 H2642 0.949 . S
C2648 C2652 1.368 1_455 S
C2649 C2630 1.429 . S
C2649 C2643 1.429 . S
C2649 C2650 1.523 . S
C2650 C2631 1.368 . S
C2650 C2644 1.368 1_455 S
C2650 C2649 1.523 . S
C2651 C2635 1.429 . S
C2651 C2647 1.429 . S
C2651 C2652 1.523 . S
C2652 C2636 1.368 . S
C2652 C2648 1.368 1_655 S
C2652 C2651 1.523 . S
H2653 C2628 0.950 . S
H2654 C2630 0.950 1_655 S
H2655 C2631 0.949 . S
H2656 C2633 0.950 . S
H2657 C2635 0.950 1_455 S
C2658 C2659 1.349 . S
C2658 C2660 1.327 . S
C2658 H2683 0.950 . S
C2659 C2658 1.349 . S
C2659 C2675 1.349 . S
C2660 C2658 1.327 . S
C2660 C2679 1.429 . S
C2660 H2684 0.950 . S
C2661 C2678 1.574 . S
C2661 C2680 1.368 . S
C2661 H2685 0.949 . S
H2662 C2666 0.949 . S
C2663 C2664 1.349 . S
C2663 C2665 1.327 . S
C2663 H2686 0.950 . S
C2664 C2663 1.349 . S
C2664 C2676 1.349 . S
C2665 C2663 1.327 . S
C2665 C2681 1.429 . S
C2665 H2687 0.950 . S
C2666 H2662 0.949 . S
C2666 C2674 1.574 . S
C2666 C2682 1.368 . S
H2667 C2675 0.950 . S
H2668 C2673 0.950 . S
H2669 C2674 0.949 . S
H2670 C2676 0.950 . S
H2671 C2677 0.950 . S
H2672 C2678 0.949 . S
C2673 H2668 0.950 . S
C2673 C2675 1.327 . S
C2673 C2679 1.429 . S
C2674 C2666 1.574 . S
C2674 H2669 0.949 . S
C2674 C2680 1.368 . S
C2675 C2659 1.349 . S
C2675 H2667 0.950 . S
C2675 C2673 1.327 . S
C2676 C2664 1.349 . S
C2676 H2670 0.950 . S
C2676 C2677 1.327 . S
C2677 H2671 0.950 . S
C2677 C2676 1.327 . S
C2677 C2681 1.429 . S
C2678 C2661 1.574 . S
C2678 H2672 0.949 . S
C2678 C2682 1.368 . S
C2679 C2660 1.429 . S
C2679 C2673 1.429 . S
C2679 C2680 1.523 . S
C2680 C2661 1.368 . S
C2680 C2674 1.368 . S
C2680 C2679 1.523 . S
C2681 C2665 1.429 . S
C2681 C2677 1.429 . S
C2681 C2682 1.523 . S
C2682 C2666 1.368 . S
C2682 C2678 1.368 . S
C2682 C2681 1.523 . S
H2683 C2658 0.950 . S
H2684 C2660 0.950 . S
H2685 C2661 0.949 . S
H2686 C2663 0.950 . S
H2687 C2665 0.950 . S
C2688 C2689 1.349 . S
C2688 C2690 1.327 . S
C2688 H2713 0.950 . S
C2689 C2688 1.349 . S
C2689 C2705 1.349 . S
C2690 C2688 1.327 . S
C2690 C2709 1.429 . S
C2690 H2714 0.950 1_545 S
C2691 C2708 1.574 . S
C2691 C2710 1.368 . S
C2691 H2715 0.949 . S
H2692 C2696 0.949 . S
C2693 C2694 1.349 . S
C2693 C2695 1.327 . S
C2693 H2716 0.950 . S
C2694 C2693 1.349 . S
C2694 C2706 1.349 . S
C2695 C2693 1.327 . S
C2695 C2711 1.429 . S
C2695 H2717 0.950 1_565 S
C2696 H2692 0.949 . S
C2696 C2704 1.574 . S
C2696 C2712 1.368 . S
H2697 C2705 0.950 . S
H2698 C2703 0.950 . S
H2699 C2704 0.949 . S
H2700 C2706 0.950 . S
H2701 C2707 0.950 . S
H2702 C2708 0.949 . S
C2703 H2698 0.950 . S
C2703 C2705 1.327 . S
C2703 C2709 1.429 . S
C2704 C2696 1.574 . S
C2704 H2699 0.949 . S
C2704 C2710 1.368 1_565 S
C2705 C2689 1.349 . S
C2705 H2697 0.950 . S
C2705 C2703 1.327 . S
C2706 C2694 1.349 . S
C2706 H2700 0.950 . S
C2706 C2707 1.327 . S
C2707 H2701 0.950 . S
C2707 C2706 1.327 . S
C2707 C2711 1.429 . S
C2708 C2691 1.574 . S
C2708 H2702 0.949 . S
C2708 C2712 1.368 1_545 S
C2709 C2690 1.429 . S
C2709 C2703 1.429 . S
C2709 C2710 1.523 . S
C2710 C2691 1.368 . S
C2710 C2704 1.368 1_545 S
C2710 C2709 1.523 . S
C2711 C2695 1.429 . S
C2711 C2707 1.429 . S
C2711 C2712 1.523 . S
C2712 C2696 1.368 . S
C2712 C2708 1.368 1_565 S
C2712 C2711 1.523 . S
H2713 C2688 0.950 . S
H2714 C2690 0.950 1_565 S
H2715 C2691 0.949 . S
H2716 C2693 0.950 . S
H2717 C2695 0.950 1_545 S
C2718 C2719 1.349 . S
C2718 C2720 1.327 . S
C2718 H2743 0.950 . S
C2719 C2718 1.349 . S
C2719 C2735 1.349 . S
C2720 C2718 1.327 . S
C2720 C2739 1.429 . S
C2720 H2744 0.950 . S
C2721 C2738 1.574 1_554 S
C2721 C2740 1.368 1_545 S
C2721 H2745 0.949 . S
H2722 C2726 0.949 . S
C2723 C2724 1.349 . S
C2723 C2725 1.327 . S
C2723 H2746 0.950 . S
C2724 C2723 1.349 . S
C2724 C2736 1.349 . S
C2725 C2723 1.327 . S
C2725 C2741 1.429 . S
C2725 H2747 0.950 . S
C2726 H2722 0.949 . S
C2726 C2734 1.574 1_556 S
C2726 C2742 1.368 1_565 S
H2727 C2735 0.950 . S
H2728 C2733 0.950 1_545 S
H2729 C2734 0.949 . S
H2730 C2736 0.950 . S
H2731 C2737 0.950 1_565 S
H2732 C2738 0.949 . S
C2733 H2728 0.950 1_565 S
C2733 C2735 1.327 . S
C2733 C2739 1.429 . S
C2734 C2726 1.574 1_554 S
C2734 H2729 0.949 . S
C2734 C2740 1.368 . S
C2735 C2719 1.349 . S
C2735 H2727 0.950 . S
C2735 C2733 1.327 . S
C2736 C2724 1.349 . S
C2736 H2730 0.950 . S
C2736 C2737 1.327 . S
C2737 H2731 0.950 1_545 S
C2737 C2736 1.327 . S
C2737 C2741 1.429 . S
C2738 C2721 1.574 1_556 S
C2738 H2732 0.949 . S
C2738 C2742 1.368 . S
C2739 C2720 1.429 . S
C2739 C2733 1.429 . S
C2739 C2740 1.523 . S
C2740 C2721 1.368 1_565 S
C2740 C2734 1.368 . S
C2740 C2739 1.523 . S
C2741 C2725 1.429 . S
C2741 C2737 1.429 . S
C2741 C2742 1.523 . S
C2742 C2726 1.368 1_545 S
C2742 C2738 1.368 . S
C2742 C2741 1.523 . S
H2743 C2718 0.950 . S
H2744 C2720 0.950 . S
H2745 C2721 0.949 . S
H2746 C2723 0.950 . S
H2747 C2725 0.950 . S
C2748 C2749 1.349 . S
C2748 C2750 1.327 . S
C2748 H2773 0.950 . S
C2749 C2748 1.349 . S
C2749 C2765 1.349 . S
C2750 C2748 1.327 . S
C2750 C2769 1.429 . S
C2750 H2774 0.950 . S
C2751 C2768 1.574 1_656 S
C2751 C2770 1.368 . S
C2751 H2775 0.949 . S
H2752 C2756 0.949 . S
C2753 C2754 1.349 . S
C2753 C2755 1.327 . S
C2753 H2776 0.950 . S
C2754 C2753 1.349 . S
C2754 C2766 1.349 . S
C2755 C2753 1.327 . S
C2755 C2771 1.429 . S
C2755 H2777 0.950 . S
C2756 H2752 0.949 . S
C2756 C2764 1.574 1_454 S
C2756 C2772 1.368 . S
H2757 C2765 0.950 . S
H2758 C2763 0.950 . S
H2759 C2764 0.949 . S
H2760 C2766 0.950 . S
H2761 C2767 0.950 . S
H2762 C2768 0.949 . S
C2763 H2758 0.950 . S
C2763 C2765 1.327 . S
C2763 C2769 1.429 . S
C2764 C2756 1.574 1_656 S
C2764 H2759 0.949 . S
C2764 C2770 1.368 . S
C2765 C2749 1.349 . S
C2765 H2757 0.950 . S
C2765 C2763 1.327 . S
C2766 C2754 1.349 . S
C2766 H2760 0.950 . S
C2766 C2767 1.327 . S
C2767 H2761 0.950 . S
C2767 C2766 1.327 . S
C2767 C2771 1.429 . S
C2768 C2751 1.574 1_454 S
C2768 H2762 0.949 . S
C2768 C2772 1.368 . S
C2769 C2750 1.429 . S
C2769 C2763 1.429 . S
C2769 C2770 1.523 . S
C2770 C2751 1.368 . S
C2770 C2764 1.368 . S
C2770 C2769 1.523 . S
C2771 C2755 1.429 . S
C2771 C2767 1.429 . S
C2771 C2772 1.523 . S
C2772 C2756 1.368 . S
C2772 C2768 1.368 . S
C2772 C2771 1.523 . S
H2773 C2748 0.950 . S
H2774 C2750 0.950 . S
H2775 C2751 0.949 . S
H2776 C2753 0.950 . S
H2777 C2755 0.950 . S
C2778 C2779 1.349 . S
C2778 C2780 1.327 . S
C2778 H2803 0.950 . S
C2779 C2778 1.349 . S
C2779 C2795 1.349 . S
C2780 C2778 1.327 . S
C2780 C2799 1.429 . S
C2780 H2804 0.950 . S
C2781 C2798 1.536 1_554 S
C2781 C2800 1.368 . S
C2781 H2805 0.949 . S
H2782 C2786 0.949 . S
C2783 C2784 1.349 . S
C2783 C2785 1.327 . S
C2783 H2806 0.950 . S
C2784 C2783 1.349 . S
C2784 C2796 1.349 . S
C2785 C2783 1.327 . S
C2785 C2801 1.429 . S
C2785 H2807 0.950 . S
C2786 H2782 0.949 . S
C2786 C2794 1.536 1_556 S
C2786 C2802 1.368 . S
H2787 C2795 0.950 . S
H2788 C2793 0.950 . S
H2789 C2794 0.953 . S
H2790 C2796 0.950 . S
H2791 C2797 0.950 . S
H2792 C2798 0.953 . S
C2793 H2788 0.950 . S
C2793 C2795 1.327 . S
C2793 C2799 1.429 . S
C2794 C2786 1.536 1_554 S
C2794 H2789 0.953 . S
C2794 C2800 1.404 . S
C2795 C2779 1.349 . S
C2795 H2787 0.950 . S
C2795 C2793 1.327 . S
C2796 C2784 1.349 . S
C2796 H2790 0.950 . S
C2796 C2797 1.327 . S
C2797 H2791 0.950 . S
C2797 C2796 1.327 . S
C2797 C2801 1.429 . S
C2798 C2781 1.536 1_556 S
C2798 H2792 0.953 . S
C2798 C2802 1.404 . S
C2799 C2780 1.429 . S
C2799 C2793 1.429 . S
C2799 C2800 1.523 . S
C2800 C2781 1.368 . S
C2800 C2794 1.404 . S
C2800 C2799 1.523 . S
C2801 C2785 1.429 . S
C2801 C2797 1.429 . S
C2801 C2802 1.523 . S
C2802 C2786 1.368 . S
C2802 C2798 1.404 . S
C2802 C2801 1.523 . S
H2803 C2778 0.950 . S
H2804 C2780 0.950 . S
H2805 C2781 0.949 . S
H2806 C2783 0.950 . S
H2807 C2785 0.950 . S
C2808 C2809 1.349 . S
C2808 C2810 1.327 1_554 S
C2808 H2833 0.950 1_554 S
C2809 C2808 1.349 . S
C2809 C2825 1.349 . S
C2810 C2808 1.327 1_556 S
C2810 C2829 1.429 1_556 S
C2810 H2834 0.950 . S
C2811 C2828 1.574 . S
C2811 C2830 1.341 1_554 S
C2811 H2835 0.949 . S
H2812 C2816 0.949 . S
C2813 C2814 1.349 . S
C2813 C2815 1.327 . S
C2813 H2836 0.950 . S
C2814 C2813 1.349 . S
C2814 C2826 1.349 . S
C2815 C2813 1.327 . S
C2815 C2831 1.429 1_565 S
C2815 H2837 0.950 1_556 S
C2816 H2812 0.949 . S
C2816 C2824 1.574 . S
C2816 C2832 1.368 . S
H2817 C2825 0.950 . S
H2818 C2823 0.950 . S
H2819 C2824 0.949 . S
H2820 C2826 0.950 . S
H2821 C2827 0.950 . S
H2822 C2828 0.949 . S
C2823 H2818 0.950 . S
C2823 C2825 1.327 . S
C2823 C2829 1.429 . S
C2824 C2816 1.574 . S
C2824 H2819 0.949 . S
C2824 C2830 1.407 . S
C2825 C2809 1.349 . S
C2825 H2817 0.950 . S
C2825 C2823 1.327 . S
C2826 C2814 1.349 . S
C2826 H2820 0.950 . S
C2826 C2827 1.327 1_565 S
C2827 H2821 0.950 . S
C2827 C2826 1.327 1_545 S
C2827 C2831 1.429 . S
C2828 C2811 1.574 . S
C2828 H2822 0.949 . S
C2828 C2832 1.368 1_554 S
C2829 C2810 1.429 1_554 S
C2829 C2823 1.429 . S
C2829 C2830 1.509 1_554 S
C2830 C2811 1.341 1_556 S
C2830 C2824 1.407 . S
C2830 C2829 1.509 1_556 S
C2831 C2815 1.429 1_545 S
C2831 C2827 1.429 . S
C2831 C2832 1.523 . S
C2832 C2816 1.368 . S
C2832 C2828 1.368 1_556 S
C2832 C2831 1.523 . S
H2833 C2808 0.950 1_556 S
H2834 C2810 0.950 . S
H2835 C2811 0.949 . S
H2836 C2813 0.950 . S
H2837 C2815 0.950 1_554 S
C2838 C2839 1.349 . S
C2838 C2840 1.327 1_554 S
C2838 H2863 0.947 . S
C2839 C2838 1.349 . S
C2839 C2855 1.349 . S
C2840 C2838 1.327 1_556 S
C2840 C2859 1.429 1_556 S
C2840 H2864 0.950 . S
C2841 C2858 1.574 . S
C2841 C2860 1.348 1_554 S
C2841 H2865 0.949 . S
H2842 C2846 0.949 . S
C2843 C2844 1.349 . S
C2843 C2845 1.327 . S
C2843 H2866 0.950 . S
C2844 C2843 1.349 . S
C2844 C2856 1.349 . S
C2845 C2843 1.327 . S
C2845 C2861 1.429 1_455 S
C2845 H2867 0.950 . S
C2846 H2842 0.949 . S
C2846 C2854 1.574 . S
C2846 C2862 1.368 . S
H2847 C2855 0.950 . S
H2848 C2853 0.950 . S
H2849 C2854 0.949 . S
H2850 C2856 0.950 . S
H2851 C2857 1.010 . S
H2852 C2858 0.949 . S
C2853 H2848 0.950 . S
C2853 C2855 1.327 . S
C2853 C2859 1.429 . S
C2854 C2846 1.574 . S
C2854 H2849 0.949 . S
C2854 C2860 1.401 . S
C2855 C2839 1.349 . S
C2855 H2847 0.950 . S
C2855 C2853 1.327 . S
C2856 C2844 1.349 . S
C2856 H2850 0.950 . S
C2856 C2857 1.275 1_455 S
C2857 H2851 1.010 . S
C2857 C2856 1.275 1_655 S
C2857 C2861 1.424 . S
C2858 C2841 1.574 . S
C2858 H2852 0.949 . S
C2858 C2862 1.368 1_554 S
C2859 C2840 1.429 1_554 S
C2859 C2853 1.429 . S
C2859 C2860 1.509 1_554 S
C2860 C2841 1.348 1_556 S
C2860 C2854 1.401 . S
C2860 C2859 1.509 1_556 S
C2861 C2845 1.429 1_655 S
C2861 C2857 1.424 . S
C2861 C2862 1.523 . S
C2862 C2846 1.368 . S
C2862 C2858 1.368 1_556 S
C2862 C2861 1.523 . S
H2863 C2838 0.947 . S
H2864 C2840 0.950 . S
H2865 C2841 0.949 . S
H2866 C2843 0.950 . S
H2867 C2845 0.950 . S
C2868 C2869 1.349 . S
C2868 C2870 1.327 . S
C2868 H2893 0.950 . S
C2869 C2868 1.349 . S
C2869 C2885 1.349 . S
C2870 C2868 1.327 . S
C2870 C2889 1.429 . S
C2870 H2894 0.950 . S
C2871 C2888 1.574 1_556 S
C2871 C2890 1.368 . S
C2871 H2895 0.947 1_556 S
H2872 C2876 0.949 . S
C2873 C2874 1.349 . S
C2873 C2875 1.327 . S
C2873 H2896 0.950 . S
C2874 C2873 1.349 . S
C2874 C2886 1.349 . S
C2875 C2873 1.327 . S
C2875 C2891 1.429 . S
C2875 H2897 0.950 . S
C2876 H2872 0.949 . S
C2876 C2884 1.574 . S
C2876 C2892 1.393 . S
H2877 C2885 0.950 . S
H2878 C2883 0.950 . S
H2879 C2884 0.949 . S
H2880 C2886 0.950 . S
H2881 C2887 0.950 1_556 S
H2882 C2888 0.949 . S
C2883 H2878 0.950 . S
C2883 C2885 1.327 . S
C2883 C2889 1.429 . S
C2884 C2876 1.574 . S
C2884 H2879 0.949 . S
C2884 C2890 1.368 . S
C2885 C2869 1.349 . S
C2885 H2877 0.950 . S
C2885 C2883 1.327 . S
C2886 C2874 1.349 . S
C2886 H2880 0.950 . S
C2886 C2887 1.327 . S
C2887 H2881 0.950 1_554 S
C2887 C2886 1.327 . S
C2887 C2891 1.429 . S
C2888 C2871 1.574 1_554 S
C2888 H2882 0.949 . S
C2888 C2892 1.356 1_554 S
C2889 C2870 1.429 . S
C2889 C2883 1.429 . S
C2889 C2890 1.523 . S
C2890 C2871 1.368 . S
C2890 C2884 1.368 . S
C2890 C2889 1.523 . S
C2891 C2875 1.429 . S
C2891 C2887 1.429 . S
C2891 C2892 1.509 1_554 S
C2892 C2876 1.393 . S
C2892 C2888 1.356 1_556 S
C2892 C2891 1.509 1_556 S
H2893 C2868 0.950 . S
H2894 C2870 0.950 . S
H2895 C2871 0.947 1_554 S
H2896 C2873 0.950 . S
H2897 C2875 0.950 . S
C2898 C2899 1.349 . S
C2898 C2900 1.356 . S
C2898 H2923 0.950 . S
C2899 C2898 1.349 . S
C2899 C2915 1.349 . S
C2900 C2898 1.356 . S
C2900 C2919 1.405 1_655 S
C2900 H2924 0.945 1_655 S
C2901 C2918 1.574 . S
C2901 C2920 1.368 . S
C2901 H2925 0.949 . S
H2902 C2906 0.949 . S
C2903 C2904 1.349 . S
C2903 C2905 1.327 . S
C2903 H2926 0.950 . S
C2904 C2903 1.349 . S
C2904 C2916 1.349 . S
C2905 C2903 1.327 . S
C2905 C2921 1.429 . S
C2905 H2927 0.950 . S
C2906 H2902 0.949 . S
C2906 C2914 1.574 . S
C2906 C2922 1.368 . S
H2907 C2915 0.950 . S
H2908 C2913 0.950 . S
H2909 C2914 0.949 . S
H2910 C2916 0.950 . S
H2911 C2917 0.950 . S
H2912 C2918 0.949 . S
C2913 H2908 0.950 . S
C2913 C2915 1.327 . S
C2913 C2919 1.429 1_655 S
C2914 C2906 1.574 . S
C2914 H2909 0.949 . S
C2914 C2920 1.368 . S
C2915 C2899 1.349 . S
C2915 H2907 0.950 . S
C2915 C2913 1.327 . S
C2916 C2904 1.349 . S
C2916 H2910 0.950 . S
C2916 C2917 1.327 . S
C2917 H2911 0.950 . S
C2917 C2916 1.327 . S
C2917 C2921 1.429 . S
C2918 C2901 1.574 . S
C2918 H2912 0.949 . S
C2918 C2922 1.368 . S
C2919 C2900 1.405 1_455 S
C2919 C2913 1.429 1_455 S
C2919 C2920 1.523 . S
C2920 C2901 1.368 . S
C2920 C2914 1.368 . S
C2920 C2919 1.523 . S
C2921 C2905 1.429 . S
C2921 C2917 1.429 . S
C2921 C2922 1.523 . S
C2922 C2906 1.368 . S
C2922 C2918 1.368 . S
C2922 C2921 1.523 . S
H2923 C2898 0.950 . S
H2924 C2900 0.945 1_455 S
H2925 C2901 0.949 . S
H2926 C2903 0.950 . S
H2927 C2905 0.950 . S
C2928 C2929 1.349 . S
C2928 C2930 1.327 . S
C2928 H2953 0.950 . S
C2929 C2928 1.349 . S
C2929 C2945 1.349 . S
C2930 C2928 1.327 . S
C2930 C2949 1.429 . S
C2930 H2954 0.950 . S
C2931 C2948 1.574 . S
C2931 C2950 1.368 . S
C2931 H2955 0.949 . S
H2932 C2936 0.949 . S
C2933 C2934 1.349 . S
C2933 C2935 1.327 . S
C2933 H2956 0.950 . S
C2934 C2933 1.349 . S
C2934 C2946 1.349 . S
C2935 C2933 1.327 . S
C2935 C2951 1.429 . S
C2935 H2957 0.950 . S
C2936 H2932 0.949 . S
C2936 C2944 1.574 . S
C2936 C2952 1.368 . S
H2937 C2945 0.950 . S
H2938 C2943 0.950 . S
H2939 C2944 0.949 . S
H2940 C2946 0.950 . S
H2941 C2947 0.950 . S
H2942 C2948 0.949 . S
C2943 H2938 0.950 . S
C2943 C2945 1.327 . S
C2943 C2949 1.429 . S
C2944 C2936 1.574 . S
C2944 H2939 0.949 . S
C2944 C2950 1.368 . S
C2945 C2929 1.349 . S
C2945 H2937 0.950 . S
C2945 C2943 1.327 . S
C2946 C2934 1.349 . S
C2946 H2940 0.950 . S
C2946 C2947 1.327 . S
C2947 H2941 0.950 . S
C2947 C2946 1.327 . S
C2947 C2951 1.429 . S
C2948 C2931 1.574 . S
C2948 H2942 0.949 . S
C2948 C2952 1.368 . S
C2949 C2930 1.429 . S
C2949 C2943 1.429 . S
C2949 C2950 1.523 . S
C2950 C2931 1.368 . S
C2950 C2944 1.368 . S
C2950 C2949 1.523 . S
C2951 C2935 1.429 . S
C2951 C2947 1.429 . S
C2951 C2952 1.523 . S
C2952 C2936 1.368 . S
C2952 C2948 1.368 . S
C2952 C2951 1.523 . S
H2953 C2928 0.950 . S
H2954 C2930 0.950 . S
H2955 C2931 0.949 . S
H2956 C2933 0.950 . S
H2957 C2935 0.950 . S
C2958 C2959 1.349 . S
C2958 C2960 1.309 1_545 S
C2958 H2983 0.950 . S
C2959 C2958 1.349 . S
C2959 C2975 1.349 . S
C2960 C2958 1.309 1_565 S
C2960 C2979 1.439 . S
C2960 H2984 0.958 . S
C2961 C2978 1.574 . S
C2961 C2980 1.368 . S
C2961 H2985 0.949 . S
H2962 C2966 0.949 . S
C2963 C2964 1.349 . S
C2963 C2965 1.327 . S
C2963 H2986 0.950 . S
C2964 C2963 1.349 . S
C2964 C2976 1.349 . S
C2965 C2963 1.327 . S
C2965 C2981 1.429 . S
C2965 H2987 0.950 . S
C2966 H2962 0.949 . S
C2966 C2974 1.574 . S
C2966 C2982 1.368 . S
H2967 C2975 0.950 . S
H2968 C2973 0.950 . S
H2969 C2974 0.949 . S
H2970 C2976 0.950 . S
H2971 C2977 0.950 . S
H2972 C2978 0.949 . S
C2973 H2968 0.950 . S
C2973 C2975 1.327 . S
C2973 C2979 1.429 1_545 S
C2974 C2966 1.574 . S
C2974 H2969 0.949 . S
C2974 C2980 1.368 . S
C2975 C2959 1.349 . S
C2975 H2967 0.950 . S
C2975 C2973 1.327 . S
C2976 C2964 1.349 . S
C2976 H2970 0.950 . S
C2976 C2977 1.327 . S
C2977 H2971 0.950 . S
C2977 C2976 1.327 . S
C2977 C2981 1.429 . S
C2978 C2961 1.574 . S
C2978 H2972 0.949 . S
C2978 C2982 1.368 . S
C2979 C2960 1.439 . S
C2979 C2973 1.429 1_565 S
C2979 C2980 1.523 . S
C2980 C2961 1.368 . S
C2980 C2974 1.368 . S
C2980 C2979 1.523 . S
C2981 C2965 1.429 . S
C2981 C2977 1.429 . S
C2981 C2982 1.523 . S
C2982 C2966 1.368 . S
C2982 C2978 1.368 . S
C2982 C2981 1.523 . S
H2983 C2958 0.950 . S
H2984 C2960 0.958 . S
H2985 C2961 0.949 . S
H2986 C2963 0.950 . S
H2987 C2965 0.950 . S
C2988 C2989 1.349 . S
C2988 C2990 1.327 . S
C2988 H3013 0.950 . S
C2989 C2988 1.349 . S
C2989 C3005 1.349 . S
C2990 C2988 1.327 . S
C2990 C3009 1.429 1_545 S
C2990 H3014 0.950 . S
C2991 C3008 1.574 . S
C2991 C3010 1.368 . S
C2991 H3015 0.949 . S
H2992 C2996 0.949 . S
C2993 C2994 1.349 . S
C2993 C2995 1.310 1_556 S
C2993 H3016 0.959 . S
C2994 C2993 1.349 . S
C2994 C3006 1.349 . S
C2995 C2993 1.310 1_554 S
C2995 C3011 1.410 1_554 S
C2995 H3017 0.989 . S
C2996 H2992 0.949 . S
C2996 C3004 1.592 . S
C2996 C3012 1.349 1_556 S
H2997 C3005 0.950 . S
H2998 C3003 0.950 1_565 S
H2999 C3004 0.969 . S
H3000 C3006 0.950 . S
H3001 C3007 0.950 . S
H3002 C3008 0.949 . S
C3003 H2998 0.950 1_545 S
C3003 C3005 1.327 . S
C3003 C3009 1.429 1_545 S
C3004 C2996 1.592 . S
C3004 H2999 0.969 . S
C3004 C3010 1.331 1_556 S
C3005 C2989 1.349 . S
C3005 H2997 0.950 . S
C3005 C3003 1.327 . S
C3006 C2994 1.349 . S
C3006 H3000 0.950 . S
C3006 C3007 1.327 . S
C3007 H3001 0.950 . S
C3007 C3006 1.327 . S
C3007 C3011 1.429 . S
C3008 C2991 1.574 . S
C3008 H3002 0.949 . S
C3008 C3012 1.400 . S
C3009 C2990 1.429 1_565 S
C3009 C3003 1.429 1_565 S
C3009 C3010 1.523 . S
C3010 C2991 1.368 . S
C3010 C3004 1.331 1_554 S
C3010 C3009 1.523 . S
C3011 C2995 1.410 1_556 S
C3011 C3007 1.429 . S
C3011 C3012 1.509 1_556 S
C3012 C2996 1.349 1_554 S
C3012 C3008 1.400 . S
C3012 C3011 1.509 1_554 S
H3013 C2988 0.950 . S
H3014 C2990 0.950 . S
H3015 C2991 0.949 . S
H3016 C2993 0.959 . S
H3017 C2995 0.989 . S
C3018 C3019 1.349 . S
C3018 C3020 1.327 . S
C3018 H3043 0.950 . S
C3019 C3018 1.349 . S
C3019 C3035 1.349 . S
C3020 C3018 1.327 . S
C3020 C3039 1.429 1_655 S
C3020 H3044 0.974 . S
C3021 C3038 1.574 . S
C3021 C3040 1.368 . S
C3021 H3045 0.949 . S
H3022 C3026 0.949 . S
C3023 C3024 1.349 . S
C3023 C3025 1.327 1_556 S
C3023 H3046 0.950 1_556 S
C3024 C3023 1.349 . S
C3024 C3036 1.349 . S
C3025 C3023 1.327 1_554 S
C3025 C3041 1.429 1_554 S
C3025 H3047 0.950 . S
C3026 H3022 0.949 . S
C3026 C3034 1.574 . S
C3026 C3042 1.345 1_556 S
H3027 C3035 0.950 . S
H3028 C3033 0.950 . S
H3029 C3034 0.949 . S
H3030 C3036 0.950 . S
H3031 C3037 0.950 . S
H3032 C3038 0.949 . S
C3033 H3028 0.950 . S
C3033 C3035 1.327 1_455 S
C3033 C3039 1.429 . S
C3034 C3026 1.574 . S
C3034 H3029 0.949 . S
C3034 C3040 1.368 1_556 S
C3035 C3019 1.349 . S
C3035 H3027 0.950 . S
C3035 C3033 1.327 1_655 S
C3036 C3024 1.349 . S
C3036 H3030 0.950 . S
C3036 C3037 1.327 . S
C3037 H3031 0.950 . S
C3037 C3036 1.327 . S
C3037 C3041 1.429 . S
C3038 C3021 1.574 . S
C3038 H3032 0.949 . S
C3038 C3042 1.404 . S
C3039 C3020 1.429 1_455 S
C3039 C3033 1.429 . S
C3039 C3040 1.523 . S
C3040 C3021 1.368 . S
C3040 C3034 1.368 1_554 S
C3040 C3039 1.523 . S
C3041 C3025 1.429 1_556 S
C3041 C3037 1.429 . S
C3041 C3042 1.509 1_556 S
C3042 C3026 1.345 1_554 S
C3042 C3038 1.404 . S
C3042 C3041 1.509 1_554 S
H3043 C3018 0.950 . S
H3044 C3020 0.974 . S
H3045 C3021 0.949 . S
H3046 C3023 0.950 1_554 S
H3047 C3025 0.950 . S
C3048 C3049 1.349 . S
C3048 C3050 1.327 . S
C3048 H3073 0.950 . S
C3049 C3048 1.349 . S
C3049 C3065 1.349 . S
C3050 C3048 1.327 . S
C3050 C3069 1.429 . S
C3050 H3074 0.950 . S
C3051 C3068 1.574 1_554 S
C3051 C3070 1.368 . S
C3051 H3075 0.949 . S
H3052 C3056 0.949 . S
C3053 C3054 1.349 . S
C3053 C3055 1.327 . S
C3053 H3076 0.950 . S
C3054 C3053 1.349 . S
C3054 C3066 1.349 . S
C3055 C3053 1.327 . S
C3055 C3071 1.429 . S
C3055 H3077 0.950 . S
C3056 H3052 0.949 . S
C3056 C3064 1.574 . S
C3056 C3072 1.390 . S
H3057 C3065 0.950 . S
H3058 C3063 0.950 . S
H3059 C3064 0.949 . S
H3060 C3066 0.950 . S
H3061 C3067 0.950 1_554 S
H3062 C3068 0.949 . S
C3063 H3058 0.950 . S
C3063 C3065 1.327 . S
C3063 C3069 1.429 . S
C3064 C3056 1.574 . S
C3064 H3059 0.949 . S
C3064 C3070 1.368 . S
C3065 C3049 1.349 . S
C3065 H3057 0.950 . S
C3065 C3063 1.327 . S
C3066 C3054 1.349 . S
C3066 H3060 0.950 . S
C3066 C3067 1.327 . S
C3067 H3061 0.950 1_556 S
C3067 C3066 1.327 . S
C3067 C3071 1.429 . S
C3068 C3051 1.574 1_556 S
C3068 H3062 0.949 . S
C3068 C3072 1.359 1_556 S
C3069 C3050 1.429 . S
C3069 C3063 1.429 . S
C3069 C3070 1.523 . S
C3070 C3051 1.368 . S
C3070 C3064 1.368 . S
C3070 C3069 1.523 . S
C3071 C3055 1.429 . S
C3071 C3067 1.429 . S
C3071 C3072 1.509 1_556 S
C3072 C3056 1.390 . S
C3072 C3068 1.359 1_554 S
C3072 C3071 1.509 1_554 S
H3073 C3048 0.950 . S
H3074 C3050 0.950 . S
H3075 C3051 0.949 . S
H3076 C3053 0.950 . S
H3077 C3055 0.950 . S
C3078 C3079 1.349 . S
C3078 C3080 1.327 . S
C3078 H3103 0.950 . S
C3079 C3078 1.349 . S
C3079 C3095 1.349 . S
C3080 C3078 1.327 . S
C3080 C3099 1.429 . S
C3080 H3104 0.950 . S
C3081 C3098 1.574 . S
C3081 C3100 1.368 . S
C3081 H3105 0.949 . S
H3082 C3086 0.949 . S
C3083 C3084 1.349 . S
C3083 C3085 1.327 1_455 S
C3083 H3106 0.950 . S
C3084 C3083 1.349 . S
C3084 C3096 1.349 . S
C3085 C3083 1.327 1_655 S
C3085 C3101 1.429 . S
C3085 H3107 0.950 . S
C3086 H3082 0.949 . S
C3086 C3094 1.574 . S
C3086 C3102 1.368 . S
H3087 C3095 0.950 . S
H3088 C3093 0.950 . S
H3089 C3094 0.949 . S
H3090 C3096 0.950 . S
H3091 C3097 0.950 . S
H3092 C3098 0.949 . S
C3093 H3088 0.950 . S
C3093 C3095 1.327 . S
C3093 C3099 1.429 . S
C3094 C3086 1.574 . S
C3094 H3089 0.949 . S
C3094 C3100 1.368 . S
C3095 C3079 1.349 . S
C3095 H3087 0.950 . S
C3095 C3093 1.327 . S
C3096 C3084 1.349 . S
C3096 H3090 0.950 . S
C3096 C3097 1.327 . S
C3097 H3091 0.950 . S
C3097 C3096 1.327 . S
C3097 C3101 1.429 1_455 S
C3098 C3081 1.574 . S
C3098 H3092 0.949 . S
C3098 C3102 1.368 . S
C3099 C3080 1.429 . S
C3099 C3093 1.429 . S
C3099 C3100 1.523 . S
C3100 C3081 1.368 . S
C3100 C3094 1.368 . S
C3100 C3099 1.523 . S
C3101 C3085 1.429 . S
C3101 C3097 1.429 1_655 S
C3101 C3102 1.523 . S
C3102 C3086 1.368 . S
C3102 C3098 1.368 . S
C3102 C3101 1.523 . S
H3103 C3078 0.950 . S
H3104 C3080 0.950 . S
H3105 C3081 0.949 . S
H3106 C3083 0.950 . S
H3107 C3085 0.950 . S
C3108 C3109 1.349 . S
C3108 C3110 1.327 . S
C3108 H3133 0.950 . S
C3109 C3108 1.349 . S
C3109 C3125 1.349 . S
C3110 C3108 1.327 . S
C3110 C3129 1.429 . S
C3110 H3134 0.950 . S
C3111 C3128 1.574 . S
C3111 C3130 1.368 . S
C3111 H3135 0.949 . S
H3112 C3116 0.949 . S
C3113 C3114 1.349 . S
C3113 C3115 1.327 . S
C3113 H3136 0.950 . S
C3114 C3113 1.349 . S
C3114 C3126 1.349 . S
C3115 C3113 1.327 . S
C3115 C3131 1.429 . S
C3115 H3137 0.950 . S
C3116 H3112 0.949 . S
C3116 C3124 1.574 . S
C3116 C3132 1.368 . S
H3117 C3125 0.950 . S
H3118 C3123 0.950 . S
H3119 C3124 0.949 . S
H3120 C3126 0.950 . S
H3121 C3127 0.950 . S
H3122 C3128 0.949 . S
C3123 H3118 0.950 . S
C3123 C3125 1.327 . S
C3123 C3129 1.429 . S
C3124 C3116 1.574 . S
C3124 H3119 0.949 . S
C3124 C3130 1.368 . S
C3125 C3109 1.349 . S
C3125 H3117 0.950 . S
C3125 C3123 1.327 . S
C3126 C3114 1.349 . S
C3126 H3120 0.950 . S
C3126 C3127 1.327 . S
C3127 H3121 0.950 . S
C3127 C3126 1.327 . S
C3127 C3131 1.429 . S
C3128 C3111 1.574 . S
C3128 H3122 0.949 . S
C3128 C3132 1.368 . S
C3129 C3110 1.429 . S
C3129 C3123 1.429 . S
C3129 C3130 1.523 . S
C3130 C3111 1.368 . S
C3130 C3124 1.368 . S
C3130 C3129 1.523 . S
C3131 C3115 1.429 . S
C3131 C3127 1.429 . S
C3131 C3132 1.523 . S
C3132 C3116 1.368 . S
C3132 C3128 1.368 . S
C3132 C3131 1.523 . S
H3133 C3108 0.950 . S
H3134 C3110 0.950 . S
H3135 C3111 0.949 . S
H3136 C3113 0.950 . S
H3137 C3115 0.950 . S
C3138 C3139 1.349 . S
C3138 C3140 1.327 . S
C3138 H3163 0.950 . S
C3139 C3138 1.349 . S
C3139 C3155 1.349 . S
C3140 C3138 1.327 . S
C3140 C3159 1.429 1_565 S
C3140 H3164 0.950 . S
C3141 C3158 1.574 . S
C3141 C3160 1.368 . S
C3141 H3165 0.949 . S
H3142 C3146 0.949 . S
C3143 C3144 1.349 . S
C3143 C3145 1.327 . S
C3143 H3166 0.950 . S
C3144 C3143 1.349 . S
C3144 C3156 1.349 . S
C3145 C3143 1.327 . S
C3145 C3161 1.429 . S
C3145 H3167 0.950 . S
C3146 H3142 0.949 . S
C3146 C3154 1.574 . S
C3146 C3162 1.368 . S
H3147 C3155 0.950 . S
H3148 C3153 0.950 . S
H3149 C3154 0.949 . S
H3150 C3156 0.950 . S
H3151 C3157 0.950 . S
H3152 C3158 0.949 . S
C3153 H3148 0.950 . S
C3153 C3155 1.327 1_545 S
C3153 C3159 1.429 . S
C3154 C3146 1.574 . S
C3154 H3149 0.949 . S
C3154 C3160 1.368 . S
C3155 C3139 1.349 . S
C3155 H3147 0.950 . S
C3155 C3153 1.327 1_565 S
C3156 C3144 1.349 . S
C3156 H3150 0.950 . S
C3156 C3157 1.327 . S
C3157 H3151 0.950 . S
C3157 C3156 1.327 . S
C3157 C3161 1.429 . S
C3158 C3141 1.574 . S
C3158 H3152 0.949 . S
C3158 C3162 1.368 . S
C3159 C3140 1.429 1_545 S
C3159 C3153 1.429 . S
C3159 C3160 1.523 . S
C3160 C3141 1.368 . S
C3160 C3154 1.368 . S
C3160 C3159 1.523 . S
C3161 C3145 1.429 . S
C3161 C3157 1.429 . S
C3161 C3162 1.523 . S
C3162 C3146 1.368 . S
C3162 C3158 1.368 . S
C3162 C3161 1.523 . S
H3163 C3138 0.950 . S
H3164 C3140 0.950 . S
H3165 C3141 0.949 . S
H3166 C3143 0.950 . S
H3167 C3145 0.950 . S
C3168 C3169 1.349 . S
C3168 C3170 1.327 . S
C3168 H3193 0.950 . S
C3169 C3168 1.349 . S
C3169 C3185 1.349 . S
C3170 C3168 1.327 . S
C3170 C3189 1.429 . S
C3170 H3194 0.950 . S
C3171 C3188 1.574 . S
C3171 C3190 1.368 . S
C3171 H3195 0.949 . S
H3172 C3176 0.949 . S
C3173 C3174 1.349 . S
C3173 C3175 1.327 . S
C3173 H3196 0.950 . S
C3174 C3173 1.349 . S
C3174 C3186 1.349 . S
C3175 C3173 1.327 . S
C3175 C3191 1.429 . S
C3175 H3197 0.950 . S
C3176 H3172 0.949 . S
C3176 C3184 1.574 . S
C3176 C3192 1.368 . S
H3177 C3185 0.950 . S
H3178 C3183 0.950 . S
H3179 C3184 0.949 . S
H3180 C3186 0.950 . S
H3181 C3187 0.950 . S
H3182 C3188 0.949 . S
C3183 H3178 0.950 . S
C3183 C3185 1.327 . S
C3183 C3189 1.429 . S
C3184 C3176 1.574 . S
C3184 H3179 0.949 . S
C3184 C3190 1.368 . S
C3185 C3169 1.349 . S
C3185 H3177 0.950 . S
C3185 C3183 1.327 . S
C3186 C3174 1.349 . S
C3186 H3180 0.950 . S
C3186 C3187 1.327 . S
C3187 H3181 0.950 . S
C3187 C3186 1.327 . S
C3187 C3191 1.429 . S
C3188 C3171 1.574 . S
C3188 H3182 0.949 . S
C3188 C3192 1.368 . S
C3189 C3170 1.429 . S
C3189 C3183 1.429 . S
C3189 C3190 1.523 . S
C3190 C3171 1.368 . S
C3190 C3184 1.368 . S
C3190 C3189 1.523 . S
C3191 C3175 1.429 . S
C3191 C3187 1.429 . S
C3191 C3192 1.523 . S
C3192 C3176 1.368 . S
C3192 C3188 1.368 . S
C3192 C3191 1.523 . S
H3193 C3168 0.950 . S
H3194 C3170 0.950 . S
H3195 C3171 0.949 . S
H3196 C3173 0.950 . S
H3197 C3175 0.950 . S
C3198 C3199 1.349 . S
C3198 C3200 1.327 . S
C3198 H3223 0.950 . S
C3199 C3198 1.349 . S
C3199 C3215 1.349 . S
C3200 C3198 1.327 . S
C3200 C3219 1.429 . S
C3200 H3224 0.950 . S
C3201 C3218 1.574 . S
C3201 C3220 1.368 . S
C3201 H3225 0.949 . S
H3202 C3206 0.949 . S
C3203 C3204 1.349 . S
C3203 C3205 1.327 . S
C3203 H3226 0.950 . S
C3204 C3203 1.349 . S
C3204 C3216 1.349 . S
C3205 C3203 1.327 . S
C3205 C3221 1.429 . S
C3205 H3227 0.950 . S
C3206 H3202 0.949 . S
C3206 C3214 1.574 . S
C3206 C3222 1.368 . S
H3207 C3215 0.950 . S
H3208 C3213 0.950 . S
H3209 C3214 0.949 . S
H3210 C3216 0.950 . S
H3211 C3217 0.950 . S
H3212 C3218 0.949 . S
C3213 H3208 0.950 . S
C3213 C3215 1.327 . S
C3213 C3219 1.429 . S
C3214 C3206 1.574 . S
C3214 H3209 0.949 . S
C3214 C3220 1.368 . S
C3215 C3199 1.349 . S
C3215 H3207 0.950 . S
C3215 C3213 1.327 . S
C3216 C3204 1.349 . S
C3216 H3210 0.950 . S
C3216 C3217 1.327 . S
C3217 H3211 0.950 . S
C3217 C3216 1.327 . S
C3217 C3221 1.429 . S
C3218 C3201 1.574 . S
C3218 H3212 0.949 . S
C3218 C3222 1.368 . S
C3219 C3200 1.429 . S
C3219 C3213 1.429 . S
C3219 C3220 1.523 . S
C3220 C3201 1.368 . S
C3220 C3214 1.368 . S
C3220 C3219 1.523 . S
C3221 C3205 1.429 . S
C3221 C3217 1.429 . S
C3221 C3222 1.523 . S
C3222 C3206 1.368 . S
C3222 C3218 1.368 . S
C3222 C3221 1.523 . S
H3223 C3198 0.950 . S
H3224 C3200 0.950 . S
H3225 C3201 0.949 . S
H3226 C3203 0.950 . S
H3227 C3205 0.950 . S
C3228 C3229 1.349 . S
C3228 C3230 1.327 . S
C3228 H3253 0.950 . S
C3229 C3228 1.349 . S
C3229 C3245 1.349 . S
C3230 C3228 1.327 . S
C3230 C3249 1.429 . S
C3230 H3254 0.950 . S
C3231 C3248 1.574 . S
C3231 C3250 1.368 . S
C3231 H3255 0.949 . S
H3232 C3236 0.949 . S
C3233 C3234 1.349 . S
C3233 C3235 1.327 . S
C3233 H3256 0.950 . S
C3234 C3233 1.349 . S
C3234 C3246 1.349 . S
C3235 C3233 1.327 . S
C3235 C3251 1.429 . S
C3235 H3257 0.950 . S
C3236 H3232 0.949 . S
C3236 C3244 1.574 . S
C3236 C3252 1.368 . S
H3237 C3245 0.950 . S
H3238 C3243 0.950 . S
H3239 C3244 0.949 . S
H3240 C3246 0.950 . S
H3241 C3247 0.950 . S
H3242 C3248 0.949 . S
C3243 H3238 0.950 . S
C3243 C3245 1.327 . S
C3243 C3249 1.429 . S
C3244 C3236 1.574 . S
C3244 H3239 0.949 . S
C3244 C3250 1.368 . S
C3245 C3229 1.349 . S
C3245 H3237 0.950 . S
C3245 C3243 1.327 . S
C3246 C3234 1.349 . S
C3246 H3240 0.950 . S
C3246 C3247 1.327 . S
C3247 H3241 0.950 . S
C3247 C3246 1.327 . S
C3247 C3251 1.429 . S
C3248 C3231 1.574 . S
C3248 H3242 0.949 . S
C3248 C3252 1.368 . S
C3249 C3230 1.429 . S
C3249 C3243 1.429 . S
C3249 C3250 1.523 . S
C3250 C3231 1.368 . S
C3250 C3244 1.368 . S
C3250 C3249 1.523 . S
C3251 C3235 1.429 . S
C3251 C3247 1.429 . S
C3251 C3252 1.523 . S
C3252 C3236 1.368 . S
C3252 C3248 1.368 . S
C3252 C3251 1.523 . S
H3253 C3228 0.950 . S
H3254 C3230 0.950 . S
H3255 C3231 0.949 . S
H3256 C3233 0.950 . S
H3257 C3235 0.950 . S
C3258 C3259 1.349 . S
C3258 C3260 1.327 . S
C3258 H3283 0.950 . S
C3259 C3258 1.349 . S
C3259 C3275 1.349 . S
C3260 C3258 1.327 . S
C3260 C3279 1.429 . S
C3260 H3284 0.950 . S
C3261 C3278 1.574 . S
C3261 C3280 1.368 . S
C3261 H3285 0.949 . S
H3262 C3266 0.949 . S
C3263 C3264 1.349 . S
C3263 C3265 1.327 . S
C3263 H3286 0.950 . S
C3264 C3263 1.349 . S
C3264 C3276 1.349 . S
C3265 C3263 1.327 . S
C3265 C3281 1.429 . S
C3265 H3287 0.950 . S
C3266 H3262 0.949 . S
C3266 C3274 1.574 . S
C3266 C3282 1.368 . S
H3267 C3275 0.950 . S
H3268 C3273 0.950 . S
H3269 C3274 0.949 . S
H3270 C3276 0.950 . S
H3271 C3277 0.950 . S
H3272 C3278 0.949 . S
C3273 H3268 0.950 . S
C3273 C3275 1.327 . S
C3273 C3279 1.429 . S
C3274 C3266 1.574 . S
C3274 H3269 0.949 . S
C3274 C3280 1.368 . S
C3275 C3259 1.349 . S
C3275 H3267 0.950 . S
C3275 C3273 1.327 . S
C3276 C3264 1.349 . S
C3276 H3270 0.950 . S
C3276 C3277 1.327 . S
C3277 H3271 0.950 . S
C3277 C3276 1.327 . S
C3277 C3281 1.429 . S
C3278 C3261 1.574 . S
C3278 H3272 0.949 . S
C3278 C3282 1.368 . S
C3279 C3260 1.429 . S
C3279 C3273 1.429 . S
C3279 C3280 1.523 . S
C3280 C3261 1.368 . S
C3280 C3274 1.368 . S
C3280 C3279 1.523 . S
C3281 C3265 1.429 . S
C3281 C3277 1.429 . S
C3281 C3282 1.523 . S
C3282 C3266 1.368 . S
C3282 C3278 1.368 . S
C3282 C3281 1.523 . S
H3283 C3258 0.950 . S
H3284 C3260 0.950 . S
H3285 C3261 0.949 . S
H3286 C3263 0.950 . S
H3287 C3265 0.950 . S
C3288 C3289 1.349 . S
C3288 C3290 1.327 . S
C3288 H3313 0.950 . S
C3289 C3288 1.349 . S
C3289 C3305 1.349 . S
C3290 C3288 1.327 . S
C3290 C3309 1.429 . S
C3290 H3314 0.950 . S
C3291 C3308 1.574 . S
C3291 C3310 1.368 . S
C3291 H3315 0.949 . S
H3292 C3296 0.949 . S
C3293 C3294 1.349 . S
C3293 C3295 1.327 . S
C3293 H3316 0.950 . S
C3294 C3293 1.349 . S
C3294 C3306 1.349 . S
C3295 C3293 1.327 . S
C3295 C3311 1.429 . S
C3295 H3317 0.950 . S
C3296 H3292 0.949 . S
C3296 C3304 1.574 . S
C3296 C3312 1.368 . S
H3297 C3305 0.950 . S
H3298 C3303 0.950 . S
H3299 C3304 0.949 . S
H3300 C3306 0.950 . S
H3301 C3307 0.950 . S
H3302 C3308 0.949 . S
C3303 H3298 0.950 . S
C3303 C3305 1.327 . S
C3303 C3309 1.429 . S
C3304 C3296 1.574 . S
C3304 H3299 0.949 . S
C3304 C3310 1.368 . S
C3305 C3289 1.349 . S
C3305 H3297 0.950 . S
C3305 C3303 1.327 . S
C3306 C3294 1.349 . S
C3306 H3300 0.950 . S
C3306 C3307 1.327 . S
C3307 H3301 0.950 . S
C3307 C3306 1.327 . S
C3307 C3311 1.429 . S
C3308 C3291 1.574 . S
C3308 H3302 0.949 . S
C3308 C3312 1.368 . S
C3309 C3290 1.429 . S
C3309 C3303 1.429 . S
C3309 C3310 1.523 . S
C3310 C3291 1.368 . S
C3310 C3304 1.368 . S
C3310 C3309 1.523 . S
C3311 C3295 1.429 . S
C3311 C3307 1.429 . S
C3311 C3312 1.523 . S
C3312 C3296 1.368 . S
C3312 C3308 1.368 . S
C3312 C3311 1.523 . S
H3313 C3288 0.950 . S
H3314 C3290 0.950 . S
H3315 C3291 0.949 . S
H3316 C3293 0.950 . S
H3317 C3295 0.950 . S
C3318 C3319 1.349 . S
C3318 C3320 1.327 . S
C3318 H3343 0.950 . S
C3319 C3318 1.349 . S
C3319 C3335 1.349 . S
C3320 C3318 1.327 . S
C3320 C3339 1.429 . S
C3320 H3344 0.950 . S
C3321 C3338 1.574 . S
C3321 C3340 1.368 . S
C3321 H3345 0.949 . S
H3322 C3326 0.949 . S
C3323 C3324 1.349 . S
C3323 C3325 1.327 . S
C3323 H3346 0.950 . S
C3324 C3323 1.349 . S
C3324 C3336 1.349 . S
C3325 C3323 1.327 . S
C3325 C3341 1.429 . S
C3325 H3347 0.950 . S
C3326 H3322 0.949 . S
C3326 C3334 1.574 . S
C3326 C3342 1.368 . S
H3327 C3335 0.950 . S
H3328 C3333 0.950 . S
H3329 C3334 0.949 . S
H3330 C3336 0.950 . S
H3331 C3337 0.950 . S
H3332 C3338 0.949 . S
C3333 H3328 0.950 . S
C3333 C3335 1.327 . S
C3333 C3339 1.429 . S
C3334 C3326 1.574 . S
C3334 H3329 0.949 . S
C3334 C3340 1.368 . S
C3335 C3319 1.349 . S
C3335 H3327 0.950 . S
C3335 C3333 1.327 . S
C3336 C3324 1.349 . S
C3336 H3330 0.950 . S
C3336 C3337 1.327 . S
C3337 H3331 0.950 . S
C3337 C3336 1.327 . S
C3337 C3341 1.429 . S
C3338 C3321 1.574 . S
C3338 H3332 0.949 . S
C3338 C3342 1.368 . S
C3339 C3320 1.429 . S
C3339 C3333 1.429 . S
C3339 C3340 1.523 . S
C3340 C3321 1.368 . S
C3340 C3334 1.368 . S
C3340 C3339 1.523 . S
C3341 C3325 1.429 . S
C3341 C3337 1.429 . S
C3341 C3342 1.523 . S
C3342 C3326 1.368 . S
C3342 C3338 1.368 . S
C3342 C3341 1.523 . S
H3343 C3318 0.950 . S
H3344 C3320 0.950 . S
H3345 C3321 0.949 . S
H3346 C3323 0.950 . S
H3347 C3325 0.950 . S
C3348 C3349 1.349 . S
C3348 C3350 1.327 . S
C3348 H3373 0.950 . S
C3349 C3348 1.349 . S
C3349 C3365 1.349 . S
C3350 C3348 1.327 . S
C3350 C3369 1.429 . S
C3350 H3374 0.950 . S
C3351 C3368 1.574 . S
C3351 C3370 1.368 . S
C3351 H3375 0.949 . S
H3352 C3356 0.949 . S
C3353 C3354 1.349 . S
C3353 C3355 1.327 . S
C3353 H3376 0.950 . S
C3354 C3353 1.349 . S
C3354 C3366 1.349 . S
C3355 C3353 1.327 . S
C3355 C3371 1.429 . S
C3355 H3377 0.950 . S
C3356 H3352 0.949 . S
C3356 C3364 1.574 . S
C3356 C3372 1.368 . S
H3357 C3365 0.950 . S
H3358 C3363 0.950 . S
H3359 C3364 0.949 . S
H3360 C3366 0.950 . S
H3361 C3367 0.950 . S
H3362 C3368 0.949 . S
C3363 H3358 0.950 . S
C3363 C3365 1.327 . S
C3363 C3369 1.429 . S
C3364 C3356 1.574 . S
C3364 H3359 0.949 . S
C3364 C3370 1.368 . S
C3365 C3349 1.349 . S
C3365 H3357 0.950 . S
C3365 C3363 1.327 . S
C3366 C3354 1.349 . S
C3366 H3360 0.950 . S
C3366 C3367 1.327 . S
C3367 H3361 0.950 . S
C3367 C3366 1.327 . S
C3367 C3371 1.429 . S
C3368 C3351 1.574 . S
C3368 H3362 0.949 . S
C3368 C3372 1.368 . S
C3369 C3350 1.429 . S
C3369 C3363 1.429 . S
C3369 C3370 1.523 . S
C3370 C3351 1.368 . S
C3370 C3364 1.368 . S
C3370 C3369 1.523 . S
C3371 C3355 1.429 . S
C3371 C3367 1.429 . S
C3371 C3372 1.523 . S
C3372 C3356 1.368 . S
C3372 C3368 1.368 . S
C3372 C3371 1.523 . S
H3373 C3348 0.950 . S
H3374 C3350 0.950 . S
H3375 C3351 0.949 . S
H3376 C3353 0.950 . S
H3377 C3355 0.950 . S
C3378 C3379 1.349 . S
C3378 C3380 1.327 . S
C3378 H3403 0.950 . S
C3379 C3378 1.349 . S
C3379 C3395 1.349 . S
C3380 C3378 1.327 . S
C3380 C3399 1.429 . S
C3380 H3404 0.950 . S
C3381 C3398 1.574 . S
C3381 C3400 1.368 . S
C3381 H3405 0.949 . S
H3382 C3386 0.949 . S
C3383 C3384 1.349 . S
C3383 C3385 1.327 . S
C3383 H3406 0.950 . S
C3384 C3383 1.349 . S
C3384 C3396 1.349 . S
C3385 C3383 1.327 . S
C3385 C3401 1.429 . S
C3385 H3407 0.950 . S
C3386 H3382 0.949 . S
C3386 C3394 1.574 . S
C3386 C3402 1.368 . S
H3387 C3395 0.950 . S
H3388 C3393 0.950 . S
H3389 C3394 0.949 . S
H3390 C3396 0.950 . S
H3391 C3397 0.950 . S
H3392 C3398 0.949 . S
C3393 H3388 0.950 . S
C3393 C3395 1.327 . S
C3393 C3399 1.429 . S
C3394 C3386 1.574 . S
C3394 H3389 0.949 . S
C3394 C3400 1.368 . S
C3395 C3379 1.349 . S
C3395 H3387 0.950 . S
C3395 C3393 1.327 . S
C3396 C3384 1.349 . S
C3396 H3390 0.950 . S
C3396 C3397 1.327 . S
C3397 H3391 0.950 . S
C3397 C3396 1.327 . S
C3397 C3401 1.429 . S
C3398 C3381 1.574 . S
C3398 H3392 0.949 . S
C3398 C3402 1.368 . S
C3399 C3380 1.429 . S
C3399 C3393 1.429 . S
C3399 C3400 1.523 . S
C3400 C3381 1.368 . S
C3400 C3394 1.368 . S
C3400 C3399 1.523 . S
C3401 C3385 1.429 . S
C3401 C3397 1.429 . S
C3401 C3402 1.523 . S
C3402 C3386 1.368 . S
C3402 C3398 1.368 . S
C3402 C3401 1.523 . S
H3403 C3378 0.950 . S
H3404 C3380 0.950 . S
H3405 C3381 0.949 . S
H3406 C3383 0.950 . S
H3407 C3385 0.950 . S
C3408 C3409 1.349 . S
C3408 C3410 1.327 . S
C3408 H3433 0.950 . S
C3409 C3408 1.349 . S
C3409 C3425 1.349 . S
C3410 C3408 1.327 . S
C3410 C3429 1.429 . S
C3410 H3434 0.950 . S
C3411 C3428 1.574 . S
C3411 C3430 1.368 . S
C3411 H3435 0.949 . S
H3412 C3416 0.949 . S
C3413 C3414 1.349 . S
C3413 C3415 1.327 . S
C3413 H3436 0.950 . S
C3414 C3413 1.349 . S
C3414 C3426 1.349 . S
C3415 C3413 1.327 . S
C3415 C3431 1.429 . S
C3415 H3437 0.950 . S
C3416 H3412 0.949 . S
C3416 C3424 1.574 . S
C3416 C3432 1.368 . S
H3417 C3425 0.950 . S
H3418 C3423 0.950 . S
H3419 C3424 0.949 . S
H3420 C3426 0.950 . S
H3421 C3427 0.950 . S
H3422 C3428 0.949 . S
C3423 H3418 0.950 . S
C3423 C3425 1.327 . S
C3423 C3429 1.429 . S
C3424 C3416 1.574 . S
C3424 H3419 0.949 . S
C3424 C3430 1.368 . S
C3425 C3409 1.349 . S
C3425 H3417 0.950 . S
C3425 C3423 1.327 . S
C3426 C3414 1.349 . S
C3426 H3420 0.950 . S
C3426 C3427 1.327 . S
C3427 H3421 0.950 . S
C3427 C3426 1.327 . S
C3427 C3431 1.429 . S
C3428 C3411 1.574 . S
C3428 H3422 0.949 . S
C3428 C3432 1.368 . S
C3429 C3410 1.429 . S
C3429 C3423 1.429 . S
C3429 C3430 1.523 . S
C3430 C3411 1.368 . S
C3430 C3424 1.368 . S
C3430 C3429 1.523 . S
C3431 C3415 1.429 . S
C3431 C3427 1.429 . S
C3431 C3432 1.523 . S
C3432 C3416 1.368 . S
C3432 C3428 1.368 . S
C3432 C3431 1.523 . S
H3433 C3408 0.950 . S
H3434 C3410 0.950 . S
H3435 C3411 0.949 . S
H3436 C3413 0.950 . S
H3437 C3415 0.950 . S
C3438 C3439 1.349 . S
C3438 C3440 1.327 . S
C3438 H3463 0.950 . S
C3439 C3438 1.349 . S
C3439 C3455 1.349 . S
C3440 C3438 1.327 . S
C3440 C3459 1.429 . S
C3440 H3464 0.950 . S
C3441 C3458 1.574 . S
C3441 C3460 1.368 . S
C3441 H3465 0.949 . S
H3442 C3446 0.949 . S
C3443 C3444 1.349 . S
C3443 C3445 1.327 . S
C3443 H3466 0.950 . S
C3444 C3443 1.349 . S
C3444 C3456 1.349 . S
C3445 C3443 1.327 . S
C3445 C3461 1.429 . S
C3445 H3467 0.950 . S
C3446 H3442 0.949 . S
C3446 C3454 1.574 . S
C3446 C3462 1.368 . S
H3447 C3455 0.950 . S
H3448 C3453 0.950 . S
H3449 C3454 0.949 . S
H3450 C3456 0.950 . S
H3451 C3457 0.950 . S
H3452 C3458 0.949 . S
C3453 H3448 0.950 . S
C3453 C3455 1.327 . S
C3453 C3459 1.429 . S
C3454 C3446 1.574 . S
C3454 H3449 0.949 . S
C3454 C3460 1.368 . S
C3455 C3439 1.349 . S
C3455 H3447 0.950 . S
C3455 C3453 1.327 . S
C3456 C3444 1.349 . S
C3456 H3450 0.950 . S
C3456 C3457 1.327 . S
C3457 H3451 0.950 . S
C3457 C3456 1.327 . S
C3457 C3461 1.429 . S
C3458 C3441 1.574 . S
C3458 H3452 0.949 . S
C3458 C3462 1.368 . S
C3459 C3440 1.429 . S
C3459 C3453 1.429 . S
C3459 C3460 1.523 . S
C3460 C3441 1.368 . S
C3460 C3454 1.368 . S
C3460 C3459 1.523 . S
C3461 C3445 1.429 . S
C3461 C3457 1.429 . S
C3461 C3462 1.523 . S
C3462 C3446 1.368 . S
C3462 C3458 1.368 . S
C3462 C3461 1.523 . S
H3463 C3438 0.950 . S
H3464 C3440 0.950 . S
H3465 C3441 0.949 . S
H3466 C3443 0.950 . S
H3467 C3445 0.950 . S
C3468 C3469 1.349 . S
C3468 C3470 1.327 . S
C3468 H3493 0.950 . S
C3469 C3468 1.349 . S
C3469 C3485 1.349 . S
C3470 C3468 1.327 . S
C3470 C3489 1.429 . S
C3470 H3494 0.950 . S
C3471 C3488 1.574 . S
C3471 C3490 1.368 . S
C3471 H3495 0.949 . S
H3472 C3476 0.949 . S
C3473 C3474 1.349 . S
C3473 C3475 1.327 . S
C3473 H3496 0.950 . S
C3474 C3473 1.349 . S
C3474 C3486 1.349 . S
C3475 C3473 1.327 . S
C3475 C3491 1.429 . S
C3475 H3497 0.950 . S
C3476 H3472 0.949 . S
C3476 C3484 1.574 . S
C3476 C3492 1.368 . S
H3477 C3485 0.950 . S
H3478 C3483 0.950 . S
H3479 C3484 0.949 . S
H3480 C3486 0.950 . S
H3481 C3487 0.950 . S
H3482 C3488 0.949 . S
C3483 H3478 0.950 . S
C3483 C3485 1.327 . S
C3483 C3489 1.429 . S
C3484 C3476 1.574 . S
C3484 H3479 0.949 . S
C3484 C3490 1.368 . S
C3485 C3469 1.349 . S
C3485 H3477 0.950 . S
C3485 C3483 1.327 . S
C3486 C3474 1.349 . S
C3486 H3480 0.950 . S
C3486 C3487 1.327 . S
C3487 H3481 0.950 . S
C3487 C3486 1.327 . S
C3487 C3491 1.429 . S
C3488 C3471 1.574 . S
C3488 H3482 0.949 . S
C3488 C3492 1.368 . S
C3489 C3470 1.429 . S
C3489 C3483 1.429 . S
C3489 C3490 1.523 . S
C3490 C3471 1.368 . S
C3490 C3484 1.368 . S
C3490 C3489 1.523 . S
C3491 C3475 1.429 . S
C3491 C3487 1.429 . S
C3491 C3492 1.523 . S
C3492 C3476 1.368 . S
C3492 C3488 1.368 . S
C3492 C3491 1.523 . S
H3493 C3468 0.950 . S
H3494 C3470 0.950 . S
H3495 C3471 0.949 . S
H3496 C3473 0.950 . S
H3497 C3475 0.950 . S
C3498 C3499 1.349 . S
C3498 C3500 1.327 . S
C3498 H3523 0.950 . S
C3499 C3498 1.349 . S
C3499 C3515 1.349 . S
C3500 C3498 1.327 . S
C3500 C3519 1.429 . S
C3500 H3524 0.950 . S
C3501 C3518 1.574 . S
C3501 C3520 1.368 . S
C3501 H3525 0.949 . S
H3502 C3506 0.949 . S
C3503 C3504 1.349 . S
C3503 C3505 1.327 . S
C3503 H3526 0.950 . S
C3504 C3503 1.349 . S
C3504 C3516 1.349 . S
C3505 C3503 1.327 . S
C3505 C3521 1.429 . S
C3505 H3527 0.950 . S
C3506 H3502 0.949 . S
C3506 C3514 1.574 . S
C3506 C3522 1.368 . S
H3507 C3515 0.950 . S
H3508 C3513 0.950 . S
H3509 C3514 0.949 . S
H3510 C3516 0.950 . S
H3511 C3517 0.950 . S
H3512 C3518 0.949 . S
C3513 H3508 0.950 . S
C3513 C3515 1.327 . S
C3513 C3519 1.429 . S
C3514 C3506 1.574 . S
C3514 H3509 0.949 . S
C3514 C3520 1.368 . S
C3515 C3499 1.349 . S
C3515 H3507 0.950 . S
C3515 C3513 1.327 . S
C3516 C3504 1.349 . S
C3516 H3510 0.950 . S
C3516 C3517 1.327 . S
C3517 H3511 0.950 . S
C3517 C3516 1.327 . S
C3517 C3521 1.429 . S
C3518 C3501 1.574 . S
C3518 H3512 0.949 . S
C3518 C3522 1.368 . S
C3519 C3500 1.429 . S
C3519 C3513 1.429 . S
C3519 C3520 1.523 . S
C3520 C3501 1.368 . S
C3520 C3514 1.368 . S
C3520 C3519 1.523 . S
C3521 C3505 1.429 . S
C3521 C3517 1.429 . S
C3521 C3522 1.523 . S
C3522 C3506 1.368 . S
C3522 C3518 1.368 . S
C3522 C3521 1.523 . S
H3523 C3498 0.950 . S
H3524 C3500 0.950 . S
H3525 C3501 0.949 . S
H3526 C3503 0.950 . S
H3527 C3505 0.950 . S
C3528 C3529 1.349 . S
C3528 C3530 1.327 . S
C3528 H3553 0.950 . S
C3529 C3528 1.349 . S
C3529 C3545 1.349 . S
C3530 C3528 1.327 . S
C3530 C3549 1.429 . S
C3530 H3554 0.950 . S
C3531 C3548 1.574 . S
C3531 C3550 1.368 . S
C3531 H3555 0.949 . S
H3532 C3536 0.949 . S
C3533 C3534 1.349 . S
C3533 C3535 1.327 . S
C3533 H3556 0.950 . S
C3534 C3533 1.349 . S
C3534 C3546 1.349 . S
C3535 C3533 1.327 . S
C3535 C3551 1.429 . S
C3535 H3557 0.950 . S
C3536 H3532 0.949 . S
C3536 C3544 1.574 . S
C3536 C3552 1.368 . S
H3537 C3545 0.950 . S
H3538 C3543 0.950 . S
H3539 C3544 0.949 . S
H3540 C3546 0.950 . S
H3541 C3547 0.950 . S
H3542 C3548 0.949 . S
C3543 H3538 0.950 . S
C3543 C3545 1.327 . S
C3543 C3549 1.429 . S
C3544 C3536 1.574 . S
C3544 H3539 0.949 . S
C3544 C3550 1.368 . S
C3545 C3529 1.349 . S
C3545 H3537 0.950 . S
C3545 C3543 1.327 . S
C3546 C3534 1.349 . S
C3546 H3540 0.950 . S
C3546 C3547 1.327 . S
C3547 H3541 0.950 . S
C3547 C3546 1.327 . S
C3547 C3551 1.429 . S
C3548 C3531 1.574 . S
C3548 H3542 0.949 . S
C3548 C3552 1.368 . S
C3549 C3530 1.429 . S
C3549 C3543 1.429 . S
C3549 C3550 1.523 . S
C3550 C3531 1.368 . S
C3550 C3544 1.368 . S
C3550 C3549 1.523 . S
C3551 C3535 1.429 . S
C3551 C3547 1.429 . S
C3551 C3552 1.523 . S
C3552 C3536 1.368 . S
C3552 C3548 1.368 . S
C3552 C3551 1.523 . S
H3553 C3528 0.950 . S
H3554 C3530 0.950 . S
H3555 C3531 0.949 . S
H3556 C3533 0.950 . S
H3557 C3535 0.950 . S
C3558 C3559 1.349 . S
C3558 C3560 1.327 . S
C3558 H3583 0.950 . S
C3559 C3558 1.349 . S
C3559 C3575 1.349 . S
C3560 C3558 1.327 . S
C3560 C3579 1.429 . S
C3560 H3584 0.950 . S
C3561 C3578 1.574 . S
C3561 C3580 1.368 . S
C3561 H3585 0.949 . S
H3562 C3566 0.949 . S
C3563 C3564 1.349 . S
C3563 C3565 1.327 . S
C3563 H3586 0.950 . S
C3564 C3563 1.349 . S
C3564 C3576 1.349 . S
C3565 C3563 1.327 . S
C3565 C3581 1.429 . S
C3565 H3587 0.950 . S
C3566 H3562 0.949 . S
C3566 C3574 1.574 . S
C3566 C3582 1.368 . S
H3567 C3575 0.950 . S
H3568 C3573 0.950 . S
H3569 C3574 0.949 . S
H3570 C3576 0.950 . S
H3571 C3577 0.950 . S
H3572 C3578 0.949 . S
C3573 H3568 0.950 . S
C3573 C3575 1.327 . S
C3573 C3579 1.429 . S
C3574 C3566 1.574 . S
C3574 H3569 0.949 . S
C3574 C3580 1.368 . S
C3575 C3559 1.349 . S
C3575 H3567 0.950 . S
C3575 C3573 1.327 . S
C3576 C3564 1.349 . S
C3576 H3570 0.950 . S
C3576 C3577 1.327 . S
C3577 H3571 0.950 . S
C3577 C3576 1.327 . S
C3577 C3581 1.429 . S
C3578 C3561 1.574 . S
C3578 H3572 0.949 . S
C3578 C3582 1.368 . S
C3579 C3560 1.429 . S
C3579 C3573 1.429 . S
C3579 C3580 1.523 . S
C3580 C3561 1.368 . S
C3580 C3574 1.368 . S
C3580 C3579 1.523 . S
C3581 C3565 1.429 . S
C3581 C3577 1.429 . S
C3581 C3582 1.523 . S
C3582 C3566 1.368 . S
C3582 C3578 1.368 . S
C3582 C3581 1.523 . S
H3583 C3558 0.950 . S
H3584 C3560 0.950 . S
H3585 C3561 0.949 . S
H3586 C3563 0.950 . S
H3587 C3565 0.950 . S
C3588 C3589 1.349 . S
C3588 C3590 1.327 . S
C3588 H3613 0.950 . S
C3589 C3588 1.349 . S
C3589 C3605 1.349 . S
C3590 C3588 1.327 . S
C3590 C3609 1.429 . S
C3590 H3614 0.950 . S
C3591 C3608 1.574 . S
C3591 C3610 1.368 . S
C3591 H3615 0.949 . S
H3592 C3596 0.949 . S
C3593 C3594 1.349 . S
C3593 C3595 1.327 . S
C3593 H3616 0.950 . S
C3594 C3593 1.349 . S
C3594 C3606 1.349 . S
C3595 C3593 1.327 . S
C3595 C3611 1.429 . S
C3595 H3617 0.950 . S
C3596 H3592 0.949 . S
C3596 C3604 1.574 . S
C3596 C3612 1.368 . S
H3597 C3605 0.950 . S
H3598 C3603 0.950 . S
H3599 C3604 0.949 . S
H3600 C3606 0.950 . S
H3601 C3607 0.950 . S
H3602 C3608 0.949 . S
C3603 H3598 0.950 . S
C3603 C3605 1.327 . S
C3603 C3609 1.429 . S
C3604 C3596 1.574 . S
C3604 H3599 0.949 . S
C3604 C3610 1.368 . S
C3605 C3589 1.349 . S
C3605 H3597 0.950 . S
C3605 C3603 1.327 . S
C3606 C3594 1.349 . S
C3606 H3600 0.950 . S
C3606 C3607 1.327 . S
C3607 H3601 0.950 . S
C3607 C3606 1.327 . S
C3607 C3611 1.429 . S
C3608 C3591 1.574 . S
C3608 H3602 0.949 . S
C3608 C3612 1.368 . S
C3609 C3590 1.429 . S
C3609 C3603 1.429 . S
C3609 C3610 1.523 . S
C3610 C3591 1.368 . S
C3610 C3604 1.368 . S
C3610 C3609 1.523 . S
C3611 C3595 1.429 . S
C3611 C3607 1.429 . S
C3611 C3612 1.523 . S
C3612 C3596 1.368 . S
C3612 C3608 1.368 . S
C3612 C3611 1.523 . S
H3613 C3588 0.950 . S
H3614 C3590 0.950 . S
H3615 C3591 0.949 . S
H3616 C3593 0.950 . S
H3617 C3595 0.950 . S
C3618 C3619 1.349 . S
C3618 C3620 1.327 . S
C3618 H3643 0.950 . S
C3619 C3618 1.349 . S
C3619 C3635 1.349 . S
C3620 C3618 1.327 . S
C3620 C3639 1.429 . S
C3620 H3644 0.950 . S
C3621 C3638 1.574 . S
C3621 C3640 1.368 . S
C3621 H3645 0.949 . S
H3622 C3626 0.949 . S
C3623 C3624 1.349 . S
C3623 C3625 1.327 . S
C3623 H3646 0.950 . S
C3624 C3623 1.349 . S
C3624 C3636 1.349 . S
C3625 C3623 1.327 . S
C3625 C3641 1.429 . S
C3625 H3647 0.950 . S
C3626 H3622 0.949 . S
C3626 C3634 1.574 . S
C3626 C3642 1.368 . S
H3627 C3635 0.950 . S
H3628 C3633 0.950 . S
H3629 C3634 0.949 . S
H3630 C3636 0.950 . S
H3631 C3637 0.950 . S
H3632 C3638 0.949 . S
C3633 H3628 0.950 . S
C3633 C3635 1.327 . S
C3633 C3639 1.429 . S
C3634 C3626 1.574 . S
C3634 H3629 0.949 . S
C3634 C3640 1.368 . S
C3635 C3619 1.349 . S
C3635 H3627 0.950 . S
C3635 C3633 1.327 . S
C3636 C3624 1.349 . S
C3636 H3630 0.950 . S
C3636 C3637 1.327 . S
C3637 H3631 0.950 . S
C3637 C3636 1.327 . S
C3637 C3641 1.429 . S
C3638 C3621 1.574 . S
C3638 H3632 0.949 . S
C3638 C3642 1.368 . S
C3639 C3620 1.429 . S
C3639 C3633 1.429 . S
C3639 C3640 1.523 . S
C3640 C3621 1.368 . S
C3640 C3634 1.368 . S
C3640 C3639 1.523 . S
C3641 C3625 1.429 . S
C3641 C3637 1.429 . S
C3641 C3642 1.523 . S
C3642 C3626 1.368 . S
C3642 C3638 1.368 . S
C3642 C3641 1.523 . S
H3643 C3618 0.950 . S
H3644 C3620 0.950 . S
H3645 C3621 0.949 . S
H3646 C3623 0.950 . S
H3647 C3625 0.950 . S
C3648 C3649 1.349 . S
C3648 C3650 1.327 . S
C3648 H3673 0.950 . S
C3649 C3648 1.349 . S
C3649 C3665 1.349 . S
C3650 C3648 1.327 . S
C3650 C3669 1.429 . S
C3650 H3674 0.950 . S
C3651 C3668 1.574 . S
C3651 C3670 1.368 . S
C3651 H3675 0.949 . S
H3652 C3656 0.949 . S
C3653 C3654 1.349 . S
C3653 C3655 1.327 . S
C3653 H3676 0.950 . S
C3654 C3653 1.349 . S
C3654 C3666 1.349 . S
C3655 C3653 1.327 . S
C3655 C3671 1.429 . S
C3655 H3677 0.950 . S
C3656 H3652 0.949 . S
C3656 C3664 1.574 . S
C3656 C3672 1.368 . S
H3657 C3665 0.950 . S
H3658 C3663 0.950 . S
H3659 C3664 0.949 . S
H3660 C3666 0.950 . S
H3661 C3667 0.950 . S
H3662 C3668 0.949 . S
C3663 H3658 0.950 . S
C3663 C3665 1.327 . S
C3663 C3669 1.429 . S
C3664 C3656 1.574 . S
C3664 H3659 0.949 . S
C3664 C3670 1.368 . S
C3665 C3649 1.349 . S
C3665 H3657 0.950 . S
C3665 C3663 1.327 . S
C3666 C3654 1.349 . S
C3666 H3660 0.950 . S
C3666 C3667 1.327 . S
C3667 H3661 0.950 . S
C3667 C3666 1.327 . S
C3667 C3671 1.429 . S
C3668 C3651 1.574 . S
C3668 H3662 0.949 . S
C3668 C3672 1.368 . S
C3669 C3650 1.429 . S
C3669 C3663 1.429 . S
C3669 C3670 1.523 . S
C3670 C3651 1.368 . S
C3670 C3664 1.368 . S
C3670 C3669 1.523 . S
C3671 C3655 1.429 . S
C3671 C3667 1.429 . S
C3671 C3672 1.523 . S
C3672 C3656 1.368 . S
C3672 C3668 1.368 . S
C3672 C3671 1.523 . S
H3673 C3648 0.950 . S
H3674 C3650 0.950 . S
H3675 C3651 0.949 . S
H3676 C3653 0.950 . S
H3677 C3655 0.950 . S
C3678 C3679 1.349 . S
C3678 C3680 1.327 . S
C3678 H3703 0.950 . S
C3679 C3678 1.349 . S
C3679 C3695 1.349 . S
C3680 C3678 1.327 . S
C3680 C3699 1.429 . S
C3680 H3704 0.950 . S
C3681 C3698 1.574 . S
C3681 C3700 1.368 . S
C3681 H3705 0.949 . S
H3682 C3686 0.949 . S
C3683 C3684 1.349 . S
C3683 C3685 1.327 . S
C3683 H3706 0.950 . S
C3684 C3683 1.349 . S
C3684 C3696 1.349 . S
C3685 C3683 1.327 . S
C3685 C3701 1.429 . S
C3685 H3707 0.950 . S
C3686 H3682 0.949 . S
C3686 C3694 1.574 . S
C3686 C3702 1.368 . S
H3687 C3695 0.950 . S
H3688 C3693 0.950 . S
H3689 C3694 0.949 . S
H3690 C3696 0.950 . S
H3691 C3697 0.950 . S
H3692 C3698 0.949 . S
C3693 H3688 0.950 . S
C3693 C3695 1.327 . S
C3693 C3699 1.429 . S
C3694 C3686 1.574 . S
C3694 H3689 0.949 . S
C3694 C3700 1.368 . S
C3695 C3679 1.349 . S
C3695 H3687 0.950 . S
C3695 C3693 1.327 . S
C3696 C3684 1.349 . S
C3696 H3690 0.950 . S
C3696 C3697 1.327 . S
C3697 H3691 0.950 . S
C3697 C3696 1.327 . S
C3697 C3701 1.429 . S
C3698 C3681 1.574 . S
C3698 H3692 0.949 . S
C3698 C3702 1.368 . S
C3699 C3680 1.429 . S
C3699 C3693 1.429 . S
C3699 C3700 1.523 . S
C3700 C3681 1.368 . S
C3700 C3694 1.368 . S
C3700 C3699 1.523 . S
C3701 C3685 1.429 . S
C3701 C3697 1.429 . S
C3701 C3702 1.523 . S
C3702 C3686 1.368 . S
C3702 C3698 1.368 . S
C3702 C3701 1.523 . S
H3703 C3678 0.950 . S
H3704 C3680 0.950 . S
H3705 C3681 0.949 . S
H3706 C3683 0.950 . S
H3707 C3685 0.950 . S
C3708 C3709 1.349 . S
C3708 C3710 1.327 . S
C3708 H3733 0.950 . S
C3709 C3708 1.349 . S
C3709 C3725 1.349 . S
C3710 C3708 1.327 . S
C3710 C3729 1.429 . S
C3710 H3734 0.950 . S
C3711 C3728 1.574 . S
C3711 C3730 1.368 . S
C3711 H3735 0.949 . S
H3712 C3716 0.949 . S
C3713 C3714 1.349 . S
C3713 C3715 1.327 . S
C3713 H3736 0.950 . S
C3714 C3713 1.349 . S
C3714 C3726 1.349 . S
C3715 C3713 1.327 . S
C3715 C3731 1.429 . S
C3715 H3737 0.950 . S
C3716 H3712 0.949 . S
C3716 C3724 1.574 . S
C3716 C3732 1.368 . S
H3717 C3725 0.950 . S
H3718 C3723 0.950 . S
H3719 C3724 0.949 . S
H3720 C3726 0.950 . S
H3721 C3727 0.950 . S
H3722 C3728 0.949 . S
C3723 H3718 0.950 . S
C3723 C3725 1.327 . S
C3723 C3729 1.429 . S
C3724 C3716 1.574 . S
C3724 H3719 0.949 . S
C3724 C3730 1.368 . S
C3725 C3709 1.349 . S
C3725 H3717 0.950 . S
C3725 C3723 1.327 . S
C3726 C3714 1.349 . S
C3726 H3720 0.950 . S
C3726 C3727 1.327 . S
C3727 H3721 0.950 . S
C3727 C3726 1.327 . S
C3727 C3731 1.429 . S
C3728 C3711 1.574 . S
C3728 H3722 0.949 . S
C3728 C3732 1.368 . S
C3729 C3710 1.429 . S
C3729 C3723 1.429 . S
C3729 C3730 1.523 . S
C3730 C3711 1.368 . S
C3730 C3724 1.368 . S
C3730 C3729 1.523 . S
C3731 C3715 1.429 . S
C3731 C3727 1.429 . S
C3731 C3732 1.523 . S
C3732 C3716 1.368 . S
C3732 C3728 1.368 . S
C3732 C3731 1.523 . S
H3733 C3708 0.950 . S
H3734 C3710 0.950 . S
H3735 C3711 0.949 . S
H3736 C3713 0.950 . S
H3737 C3715 0.950 . S
C3738 C3739 1.349 . S
C3738 C3740 1.327 . S
C3738 H3763 0.950 . S
C3739 C3738 1.349 . S
C3739 C3755 1.349 . S
C3740 C3738 1.327 . S
C3740 C3759 1.429 . S
C3740 H3764 0.950 . S
C3741 C3758 1.574 . S
C3741 C3760 1.368 . S
C3741 H3765 0.949 . S
H3742 C3746 0.949 . S
C3743 C3744 1.349 . S
C3743 C3745 1.327 . S
C3743 H3766 0.950 . S
C3744 C3743 1.349 . S
C3744 C3756 1.349 . S
C3745 C3743 1.327 . S
C3745 C3761 1.429 . S
C3745 H3767 0.950 . S
C3746 H3742 0.949 . S
C3746 C3754 1.574 . S
C3746 C3762 1.368 . S
H3747 C3755 0.950 . S
H3748 C3753 0.950 . S
H3749 C3754 0.949 . S
H3750 C3756 0.950 . S
H3751 C3757 0.950 . S
H3752 C3758 0.949 . S
C3753 H3748 0.950 . S
C3753 C3755 1.327 . S
C3753 C3759 1.429 . S
C3754 C3746 1.574 . S
C3754 H3749 0.949 . S
C3754 C3760 1.368 . S
C3755 C3739 1.349 . S
C3755 H3747 0.950 . S
C3755 C3753 1.327 . S
C3756 C3744 1.349 . S
C3756 H3750 0.950 . S
C3756 C3757 1.327 . S
C3757 H3751 0.950 . S
C3757 C3756 1.327 . S
C3757 C3761 1.429 . S
C3758 C3741 1.574 . S
C3758 H3752 0.949 . S
C3758 C3762 1.368 . S
C3759 C3740 1.429 . S
C3759 C3753 1.429 . S
C3759 C3760 1.523 . S
C3760 C3741 1.368 . S
C3760 C3754 1.368 . S
C3760 C3759 1.523 . S
C3761 C3745 1.429 . S
C3761 C3757 1.429 . S
C3761 C3762 1.523 . S
C3762 C3746 1.368 . S
C3762 C3758 1.368 . S
C3762 C3761 1.523 . S
H3763 C3738 0.950 . S
H3764 C3740 0.950 . S
H3765 C3741 0.949 . S
H3766 C3743 0.950 . S
H3767 C3745 0.950 . S
C3768 C3769 1.349 . S
C3768 C3770 1.327 . S
C3768 H3793 0.950 . S
C3769 C3768 1.349 . S
C3769 C3785 1.349 . S
C3770 C3768 1.327 . S
C3770 C3789 1.429 . S
C3770 H3794 0.950 . S
C3771 C3788 1.574 . S
C3771 C3790 1.368 . S
C3771 H3795 0.949 . S
H3772 C3776 0.949 . S
C3773 C3774 1.349 . S
C3773 C3775 1.327 . S
C3773 H3796 0.950 . S
C3774 C3773 1.349 . S
C3774 C3786 1.349 . S
C3775 C3773 1.327 . S
C3775 C3791 1.429 . S
C3775 H3797 0.950 . S
C3776 H3772 0.949 . S
C3776 C3784 1.574 . S
C3776 C3792 1.368 . S
H3777 C3785 0.950 . S
H3778 C3783 0.950 . S
H3779 C3784 0.949 . S
H3780 C3786 0.950 . S
H3781 C3787 0.950 . S
H3782 C3788 0.949 . S
C3783 H3778 0.950 . S
C3783 C3785 1.327 . S
C3783 C3789 1.429 . S
C3784 C3776 1.574 . S
C3784 H3779 0.949 . S
C3784 C3790 1.368 . S
C3785 C3769 1.349 . S
C3785 H3777 0.950 . S
C3785 C3783 1.327 . S
C3786 C3774 1.349 . S
C3786 H3780 0.950 . S
C3786 C3787 1.327 . S
C3787 H3781 0.950 . S
C3787 C3786 1.327 . S
C3787 C3791 1.429 . S
C3788 C3771 1.574 . S
C3788 H3782 0.949 . S
C3788 C3792 1.368 . S
C3789 C3770 1.429 . S
C3789 C3783 1.429 . S
C3789 C3790 1.523 . S
C3790 C3771 1.368 . S
C3790 C3784 1.368 . S
C3790 C3789 1.523 . S
C3791 C3775 1.429 . S
C3791 C3787 1.429 . S
C3791 C3792 1.523 . S
C3792 C3776 1.368 . S
C3792 C3788 1.368 . S
C3792 C3791 1.523 . S
H3793 C3768 0.950 . S
H3794 C3770 0.950 . S
H3795 C3771 0.949 . S
H3796 C3773 0.950 . S
H3797 C3775 0.950 . S
C3798 C3799 1.349 . S
C3798 C3800 1.327 . S
C3798 H3823 0.950 . S
C3799 C3798 1.349 . S
C3799 C3815 1.349 . S
C3800 C3798 1.327 . S
C3800 C3819 1.429 . S
C3800 H3824 0.950 . S
C3801 C3818 1.574 . S
C3801 C3820 1.368 . S
C3801 H3825 0.949 . S
H3802 C3806 0.949 . S
C3803 C3804 1.349 . S
C3803 C3805 1.327 . S
C3803 H3826 0.950 . S
C3804 C3803 1.349 . S
C3804 C3816 1.349 . S
C3805 C3803 1.327 . S
C3805 C3821 1.429 . S
C3805 H3827 0.950 . S
C3806 H3802 0.949 . S
C3806 C3814 1.574 . S
C3806 C3822 1.368 . S
H3807 C3815 0.950 . S
H3808 C3813 0.950 . S
H3809 C3814 0.949 . S
H3810 C3816 0.950 . S
H3811 C3817 0.950 . S
H3812 C3818 0.949 . S
C3813 H3808 0.950 . S
C3813 C3815 1.327 . S
C3813 C3819 1.429 . S
C3814 C3806 1.574 . S
C3814 H3809 0.949 . S
C3814 C3820 1.368 . S
C3815 C3799 1.349 . S
C3815 H3807 0.950 . S
C3815 C3813 1.327 . S
C3816 C3804 1.349 . S
C3816 H3810 0.950 . S
C3816 C3817 1.327 . S
C3817 H3811 0.950 . S
C3817 C3816 1.327 . S
C3817 C3821 1.429 . S
C3818 C3801 1.574 . S
C3818 H3812 0.949 . S
C3818 C3822 1.368 . S
C3819 C3800 1.429 . S
C3819 C3813 1.429 . S
C3819 C3820 1.523 . S
C3820 C3801 1.368 . S
C3820 C3814 1.368 . S
C3820 C3819 1.523 . S
C3821 C3805 1.429 . S
C3821 C3817 1.429 . S
C3821 C3822 1.523 . S
C3822 C3806 1.368 . S
C3822 C3818 1.368 . S
C3822 C3821 1.523 . S
H3823 C3798 0.950 . S
H3824 C3800 0.950 . S
H3825 C3801 0.949 . S
H3826 C3803 0.950 . S
H3827 C3805 0.950 . S
C3828 C3829 1.349 . S
C3828 C3830 1.327 . S
C3828 H3853 0.950 . S
C3829 C3828 1.349 . S
C3829 C3845 1.349 . S
C3830 C3828 1.327 . S
C3830 C3849 1.429 . S
C3830 H3854 0.950 . S
C3831 C3848 1.574 . S
C3831 C3850 1.368 . S
C3831 H3855 0.949 . S
H3832 C3836 0.949 . S
C3833 C3834 1.349 . S
C3833 C3835 1.327 . S
C3833 H3856 0.950 . S
C3834 C3833 1.349 . S
C3834 C3846 1.349 . S
C3835 C3833 1.327 . S
C3835 C3851 1.429 . S
C3835 H3857 0.950 . S
C3836 H3832 0.949 . S
C3836 C3844 1.574 . S
C3836 C3852 1.368 . S
H3837 C3845 0.950 . S
H3838 C3843 0.950 . S
H3839 C3844 0.949 . S
H3840 C3846 0.950 . S
H3841 C3847 0.950 . S
H3842 C3848 0.949 . S
C3843 H3838 0.950 . S
C3843 C3845 1.327 . S
C3843 C3849 1.429 . S
C3844 C3836 1.574 . S
C3844 H3839 0.949 . S
C3844 C3850 1.368 . S
C3845 C3829 1.349 . S
C3845 H3837 0.950 . S
C3845 C3843 1.327 . S
C3846 C3834 1.349 . S
C3846 H3840 0.950 . S
C3846 C3847 1.327 . S
C3847 H3841 0.950 . S
C3847 C3846 1.327 . S
C3847 C3851 1.429 . S
C3848 C3831 1.574 . S
C3848 H3842 0.949 . S
C3848 C3852 1.368 . S
C3849 C3830 1.429 . S
C3849 C3843 1.429 . S
C3849 C3850 1.523 . S
C3850 C3831 1.368 . S
C3850 C3844 1.368 . S
C3850 C3849 1.523 . S
C3851 C3835 1.429 . S
C3851 C3847 1.429 . S
C3851 C3852 1.523 . S
C3852 C3836 1.368 . S
C3852 C3848 1.368 . S
C3852 C3851 1.523 . S
H3853 C3828 0.950 . S
H3854 C3830 0.950 . S
H3855 C3831 0.949 . S
H3856 C3833 0.950 . S
H3857 C3835 0.950 . S
C3858 C3859 1.349 . S
C3858 C3860 1.327 . S
C3858 H3883 0.950 . S
C3859 C3858 1.349 . S
C3859 C3875 1.349 . S
C3860 C3858 1.327 . S
C3860 C3879 1.429 . S
C3860 H3884 0.950 . S
C3861 C3878 1.574 . S
C3861 C3880 1.368 . S
C3861 H3885 0.949 . S
H3862 C3866 0.949 . S
C3863 C3864 1.349 . S
C3863 C3865 1.327 . S
C3863 H3886 0.950 . S
C3864 C3863 1.349 . S
C3864 C3876 1.349 . S
C3865 C3863 1.327 . S
C3865 C3881 1.429 . S
C3865 H3887 0.950 . S
C3866 H3862 0.949 . S
C3866 C3874 1.574 . S
C3866 C3882 1.368 . S
H3867 C3875 0.950 . S
H3868 C3873 0.950 . S
H3869 C3874 0.949 . S
H3870 C3876 0.950 . S
H3871 C3877 0.950 . S
H3872 C3878 0.949 . S
C3873 H3868 0.950 . S
C3873 C3875 1.327 . S
C3873 C3879 1.429 . S
C3874 C3866 1.574 . S
C3874 H3869 0.949 . S
C3874 C3880 1.368 . S
C3875 C3859 1.349 . S
C3875 H3867 0.950 . S
C3875 C3873 1.327 . S
C3876 C3864 1.349 . S
C3876 H3870 0.950 . S
C3876 C3877 1.327 . S
C3877 H3871 0.950 . S
C3877 C3876 1.327 . S
C3877 C3881 1.429 . S
C3878 C3861 1.574 . S
C3878 H3872 0.949 . S
C3878 C3882 1.368 . S
C3879 C3860 1.429 . S
C3879 C3873 1.429 . S
C3879 C3880 1.523 . S
C3880 C3861 1.368 . S
C3880 C3874 1.368 . S
C3880 C3879 1.523 . S
C3881 C3865 1.429 . S
C3881 C3877 1.429 . S
C3881 C3882 1.523 . S
C3882 C3866 1.368 . S
C3882 C3878 1.368 . S
C3882 C3881 1.523 . S
H3883 C3858 0.950 . S
H3884 C3860 0.950 . S
H3885 C3861 0.949 . S
H3886 C3863 0.950 . S
H3887 C3865 0.950 . S
C1189 C535 1.197 . S
C1194 C7 1.197 1_556 S
C1219 C40 1.197 1_556 S
C1224 C568 1.197 . S
C1249 C502 1.197 . S
C1254 C73 1.197 1_556 S
C1279 C106 1.197 . S
C1284 C865 1.197 . S
C1309 C799 1.197 . S
C1314 C139 1.197 . S
C1339 C172 1.197 . S
C1344 C832 1.197 . S
C1369 C205 1.197 1_554 S
C1374 C1129 1.197 . S
C1399 C238 1.197 1_554 S
C1404 C1162 1.197 . S
C1429 C271 1.197 1_554 S
C1434 C1096 1.197 . S
C1459 C304 1.197 . S
C1464 C667 1.197 . S
C1489 C337 1.197 . S
C1494 C601 1.197 . S
C1519 C370 1.197 . S
C1524 C634 1.197 . S
C1549 C403 1.197 . S
C1554 C931 1.197 . S
C1579 C964 1.197 . S
C1584 C436 1.197 . S
C1609 C898 1.197 . S
C1614 C469 1.197 . S
C1639 C1063 1.197 . S
C1644 C700 1.197 . S
C1669 C997 1.197 . S
C1674 C733 1.197 . S
C1699 C766 1.197 . S
C1704 C1030 1.197 . S
C1729 N970 1.570 . S
C1734 N13 1.570 . S
C1759 N46 1.570 . S
C1764 N904 1.570 . S
C1789 N79 1.570 . S
C1794 N937 1.570 . S
C1819 N112 1.570 . S
C1824 N442 1.570 . S
C1849 N145 1.570 . S
C1854 N475 1.570 . S
C1879 N409 1.570 . S
C1884 N178 1.570 . S
C1909 N772 1.570 . S
C1914 N211 1.570 . S
C1939 N244 1.570 . S
C1944 N706 1.570 . S
C1969 N277 1.570 . S
C1974 N739 1.570 . S
C1999 N1036 1.570 . S
C2004 N310 1.570 . S
C2029 N1069 1.570 . S
C2034 N343 1.570 . S
C2059 N1003 1.570 . S
C2064 N376 1.570 . S
C2089 N508 1.570 . S
C2094 N838 1.570 . S
C2119 N541 1.570 . S
C2124 N871 1.570 . S
C2149 N574 1.570 . S
C2154 N805 1.570 . S
C2179 N607 1.570 . S
C2184 N1168 1.570 . S
C2209 N1102 1.570 . S
C2214 N640 1.570 . S
C2239 N673 1.570 . S
C2244 N1135 1.570 . S
C2269 C18 2.012 . S
C2274 C612 2.012 . S
C2299 C51 2.012 . S
C2304 C645 2.012 . S
C2329 C678 2.012 . S
C2334 C84 2.012 . S
C2359 C117 2.012 . S
C2364 C1107 2.012 . S
C2389 C150 2.012 . S
C2394 C1140 2.012 . S
C2419 C183 2.012 . S
C2424 C1173 2.012 . S
C2449 C810 2.012 . S
C2454 C216 2.012 . S
C2479 C249 2.012 . S
C2484 C843 2.012 . S
C2509 C876 2.012 . S
C2514 C282 2.012 . S
C2539 C513 2.012 . S
C2544 C315 2.012 . S
C2569 C546 2.012 . S
C2574 C348 2.012 . S
C2599 C381 2.012 . S
C2604 C579 2.012 . S
C2629 C1008 2.012 . S
C2634 C414 2.012 . S
C2659 C1041 2.012 . S
C2664 C447 2.012 . S
C2689 C480 2.012 . S
C2694 C1074 2.012 . S
C2719 C909 2.012 . S
C2724 C711 2.012 . S
C2749 C744 2.012 . S
C2754 C942 2.012 . S
C2779 C975 2.012 . S
C2784 C777 2.012 . S
C2809 N2 0.857 . S
C2814 C252 0.855 . S
C2839 N35 0.857 . S
C2844 C285 0.855 . S
C2869 C219 0.856 . S
C2874 N68 0.857 . S
C2899 C384 0.855 . S
C2904 N101 0.857 . S
C2929 C318 0.856 . S
C2934 N134 0.857 . S
C2959 C351 0.855 . S
C2964 N167 0.857 . S
C2989 C54 0.855 . S
C2994 N200 0.857 . S
C3019 C87 0.855 . S
C3024 N233 0.857 . S
C3049 C21 0.856 . S
C3054 N266 0.857 . S
C3079 N299 0.857 . S
C3084 C186 0.855 . S
C3109 N332 0.857 . S
C3114 C120 0.856 . S
C3139 C153 0.855 . S
C3144 N365 0.857 . S
C3169 C648 0.856 . S
C3174 N398 0.857 . S
C3199 N431 0.857 . S
C3204 C681 0.855 . S
C3229 C615 0.856 . S
C3234 N464 0.857 . S
C3259 C780 0.855 . S
C3264 N497 0.857 . S
C3289 N530 0.857 . S
C3294 C714 0.855 . S
C3319 N563 0.857 . S
C3324 C747 0.855 . S
C3349 N596 0.857 . S
C3354 C450 0.855 . S
C3379 N629 0.857 . S
C3384 C483 0.855 . S
C3409 N662 0.857 . S
C3414 C417 0.855 . S
C3439 N695 0.857 . S
C3444 C582 0.856 . S
C3469 C516 0.855 . S
C3474 N728 0.857 . S
C3499 C549 0.855 . S
C3504 N761 0.857 . S
C3529 C1044 0.855 . S
C3534 N794 0.857 . S
C3559 C1077 0.855 . S
C3564 N827 0.857 . S
C3589 C1011 0.855 . S
C3594 N860 0.857 . S
C3619 C1176 0.856 . S
C3624 N893 0.857 . S
C3649 N926 0.857 . S
C3654 C1110 0.855 . S
C3679 C1143 0.855 . S
C3684 N959 0.857 . S
C3709 C846 0.856 . S
C3714 N992 0.857 . S
C3739 C879 0.855 . S
C3744 N1025 0.857 . S
C3769 C813 0.856 . S
C3774 N1058 0.857 . S
C3799 N1091 0.857 . S
C3804 C978 0.855 . S
C3829 N1124 0.857 . S
C3834 C912 0.855 . S
C3859 C945 0.855 . S
C3864 N1157 0.857 . S
