# Generated by pormake.
# Topology lta, (4)-cn, num edge types: 1
# Building blocks:
#     Node 0, Type 0, BuildingBlock: KUFVIS_clean_sbu_0, # of connection points: 4
#     Node 1, Type 0, BuildingBlock: KUFVIS_clean_sbu_0, # of connection points: 4
#     Node 2, Type 0, BuildingBlock: KUFVIS_clean_sbu_0, # of connection points: 4
#     Node 3, Type 0, BuildingBlock: KUFVIS_clean_sbu_0, # of connection points: 4
#     Node 4, Type 0, BuildingBlock: KUFVIS_clean_sbu_0, # of connection points: 4
#     Node 5, Type 0, BuildingBlock: KUFVIS_clean_sbu_0, # of connection points: 4
#     Node 6, Type 0, BuildingBlock: KUFVIS_clean_sbu_0, # of connection points: 4
#     Node 7, Type 0, BuildingBlock: KUFVIS_clean_sbu_0, # of connection points: 4
#     Node 8, Type 0, BuildingBlock: KUFVIS_clean_sbu_0, # of connection points: 4
#     Node 9, Type 0, BuildingBlock: KUFVIS_clean_sbu_0, # of connection points: 4
#     Node 10, Type 0, BuildingBlock: KUFVIS_clean_sbu_0, # of connection points: 4
#     Node 11, Type 0, BuildingBlock: KUFVIS_clean_sbu_0, # of connection points: 4
#     Node 12, Type 0, BuildingBlock: KUFVIS_clean_sbu_0, # of connection points: 4
#     Node 13, Type 0, BuildingBlock: KUFVIS_clean_sbu_0, # of connection points: 4
#     Node 14, Type 0, BuildingBlock: KUFVIS_clean_sbu_0, # of connection points: 4
#     Node 15, Type 0, BuildingBlock: KUFVIS_clean_sbu_0, # of connection points: 4
#     Node 16, Type 0, BuildingBlock: KUFVIS_clean_sbu_0, # of connection points: 4
#     Node 17, Type 0, BuildingBlock: KUFVIS_clean_sbu_0, # of connection points: 4
#     Node 18, Type 0, BuildingBlock: KUFVIS_clean_sbu_0, # of connection points: 4
#     Node 19, Type 0, BuildingBlock: KUFVIS_clean_sbu_0, # of connection points: 4
#     Node 20, Type 0, BuildingBlock: KUFVIS_clean_sbu_0, # of connection points: 4
#     Node 21, Type 0, BuildingBlock: KUFVIS_clean_sbu_0, # of connection points: 4
#     Node 22, Type 0, BuildingBlock: KUFVIS_clean_sbu_0, # of connection points: 4
#     Node 23, Type 0, BuildingBlock: KUFVIS_clean_sbu_0, # of connection points: 4
#     Edge 24, Type (0, 0), BuildingBlock: MIFKUJ_clean_linker_0, # of connection points: 2
#     Edge 25, Type (0, 0), BuildingBlock: MIFKUJ_clean_linker_0, # of connection points: 2
#     Edge 26, Type (0, 0), BuildingBlock: MIFKUJ_clean_linker_0, # of connection points: 2
#     Edge 27, Type (0, 0), BuildingBlock: MIFKUJ_clean_linker_0, # of connection points: 2
#     Edge 28, Type (0, 0), BuildingBlock: MIFKUJ_clean_linker_0, # of connection points: 2
#     Edge 29, Type (0, 0), BuildingBlock: MIFKUJ_clean_linker_0, # of connection points: 2
#     Edge 30, Type (0, 0), BuildingBlock: MIFKUJ_clean_linker_0, # of connection points: 2
#     Edge 31, Type (0, 0), BuildingBlock: MIFKUJ_clean_linker_0, # of connection points: 2
#     Edge 32, Type (0, 0), BuildingBlock: MIFKUJ_clean_linker_0, # of connection points: 2
#     Edge 33, Type (0, 0), BuildingBlock: MIFKUJ_clean_linker_0, # of connection points: 2
#     Edge 34, Type (0, 0), BuildingBlock: MIFKUJ_clean_linker_0, # of connection points: 2
#     Edge 35, Type (0, 0), BuildingBlock: MIFKUJ_clean_linker_0, # of connection points: 2
#     Edge 36, Type (0, 0), BuildingBlock: MIFKUJ_clean_linker_0, # of connection points: 2
#     Edge 37, Type (0, 0), BuildingBlock: MIFKUJ_clean_linker_0, # of connection points: 2
#     Edge 38, Type (0, 0), BuildingBlock: MIFKUJ_clean_linker_0, # of connection points: 2
#     Edge 39, Type (0, 0), BuildingBlock: MIFKUJ_clean_linker_0, # of connection points: 2
#     Edge 40, Type (0, 0), BuildingBlock: MIFKUJ_clean_linker_0, # of connection points: 2
#     Edge 41, Type (0, 0), BuildingBlock: MIFKUJ_clean_linker_0, # of connection points: 2
#     Edge 42, Type (0, 0), BuildingBlock: MIFKUJ_clean_linker_0, # of connection points: 2
#     Edge 43, Type (0, 0), BuildingBlock: MIFKUJ_clean_linker_0, # of connection points: 2
#     Edge 44, Type (0, 0), BuildingBlock: MIFKUJ_clean_linker_0, # of connection points: 2
#     Edge 45, Type (0, 0), BuildingBlock: MIFKUJ_clean_linker_0, # of connection points: 2
#     Edge 46, Type (0, 0), BuildingBlock: MIFKUJ_clean_linker_0, # of connection points: 2
#     Edge 47, Type (0, 0), BuildingBlock: MIFKUJ_clean_linker_0, # of connection points: 2
#     Edge 48, Type (0, 0), BuildingBlock: MIFKUJ_clean_linker_0, # of connection points: 2
#     Edge 49, Type (0, 0), BuildingBlock: MIFKUJ_clean_linker_0, # of connection points: 2
#     Edge 50, Type (0, 0), BuildingBlock: MIFKUJ_clean_linker_0, # of connection points: 2
#     Edge 51, Type (0, 0), BuildingBlock: MIFKUJ_clean_linker_0, # of connection points: 2
#     Edge 52, Type (0, 0), BuildingBlock: MIFKUJ_clean_linker_0, # of connection points: 2
#     Edge 53, Type (0, 0), BuildingBlock: MIFKUJ_clean_linker_0, # of connection points: 2
#     Edge 54, Type (0, 0), BuildingBlock: MIFKUJ_clean_linker_0, # of connection points: 2
#     Edge 55, Type (0, 0), BuildingBlock: MIFKUJ_clean_linker_0, # of connection points: 2
#     Edge 56, Type (0, 0), BuildingBlock: MIFKUJ_clean_linker_0, # of connection points: 2
#     Edge 57, Type (0, 0), BuildingBlock: MIFKUJ_clean_linker_0, # of connection points: 2
#     Edge 58, Type (0, 0), BuildingBlock: MIFKUJ_clean_linker_0, # of connection points: 2
#     Edge 59, Type (0, 0), BuildingBlock: MIFKUJ_clean_linker_0, # of connection points: 2
#     Edge 60, Type (0, 0), BuildingBlock: MIFKUJ_clean_linker_0, # of connection points: 2
#     Edge 61, Type (0, 0), BuildingBlock: MIFKUJ_clean_linker_0, # of connection points: 2
#     Edge 62, Type (0, 0), BuildingBlock: MIFKUJ_clean_linker_0, # of connection points: 2
#     Edge 63, Type (0, 0), BuildingBlock: MIFKUJ_clean_linker_0, # of connection points: 2
#     Edge 64, Type (0, 0), BuildingBlock: MIFKUJ_clean_linker_0, # of connection points: 2
#     Edge 65, Type (0, 0), BuildingBlock: MIFKUJ_clean_linker_0, # of connection points: 2
#     Edge 66, Type (0, 0), BuildingBlock: MIFKUJ_clean_linker_0, # of connection points: 2
#     Edge 67, Type (0, 0), BuildingBlock: MIFKUJ_clean_linker_0, # of connection points: 2
#     Edge 68, Type (0, 0), BuildingBlock: MIFKUJ_clean_linker_0, # of connection points: 2
#     Edge 69, Type (0, 0), BuildingBlock: MIFKUJ_clean_linker_0, # of connection points: 2
#     Edge 70, Type (0, 0), BuildingBlock: MIFKUJ_clean_linker_0, # of connection points: 2
#     Edge 71, Type (0, 0), BuildingBlock: MIFKUJ_clean_linker_0, # of connection points: 2
# Relax obj value: 0.255
# Max RMSD: 0.133
# Mean RMSD: 0.133
data_MOF--net-lta--node1-KUFVIS_clean_sbu_0--edge1-MIFKUJ_clean_linker_0
_symmetry_space_group_name_H-M    P1
_symmetry_Int_Tables_number       1
_symmetry_cell_setting            triclinic
loop_
_symmetry_equiv_pos_as_xyz
'x, y, z'
_cell_length_a     73.175358
_cell_length_b     73.180779
_cell_length_c     73.172046
_cell_angle_alpha  89.998444
_cell_angle_beta   89.99209
_cell_angle_gamma 90.002223
loop_
_atom_site_label
_atom_site_type_symbol
_atom_site_fract_x
_atom_site_fract_y
_atom_site_fract_z
_atom_type_partial_charge
Mn0 Mn 0.12968 0.32449 0.50988 0.0
Mn1 Mn 0.16765 0.35022 0.50535 0.0
C2 C 0.14264 0.33793 0.53542 0.0
C3 C 0.09799 0.32187 0.50905 0.0
C4 C 0.16784 0.30879 0.504 0.0
O5 O 0.13047 0.32996 0.4826 0.0
O6 O 0.15485 0.34884 0.48147 0.0
C7 C 0.1507 0.38613 0.49762 0.0
N8 N 0.16189 0.37553 0.50805 0.0
C9 C 0.17015 0.40117 0.52689 0.0
C10 C 0.15878 0.41239 0.5163 0.0
C11 C 0.14897 0.40481 0.50163 0.0
C12 C 0.17135 0.38266 0.52222 0.0
H13 H 0.14316 0.38036 0.48632 0.0
C14 C 0.14138 0.34052 0.47405 0.0
O15 O 0.10847 0.30777 0.50656 0.0
O16 O 0.10593 0.33745 0.51195 0.0
N17 N 0.18118 0.35288 0.52753 0.0
C18 C 0.19048 0.33994 0.53715 0.0
C19 C 0.20062 0.34515 0.55257 0.0
C20 C 0.20118 0.3636 0.55782 0.0
C21 C 0.19139 0.37665 0.54779 0.0
C22 C 0.1816 0.37066 0.53251 0.0
H23 H 0.19019 0.32577 0.53306 0.0
O24 O 0.13189 0.3239 0.53705 0.0
O25 O 0.14536 0.34374 0.51882 0.0
O26 O 0.15092 0.30645 0.5074 0.0
O27 O 0.17526 0.32451 0.50254 0.0
C28 C 0.19085 0.39534 0.55241 0.0
C29 C 0.18014 0.40756 0.54205 0.0
H30 H 0.15738 0.42679 0.51938 0.0
H31 H 0.14012 0.41336 0.49343 0.0
H32 H 0.20808 0.33501 0.56032 0.0
H33 H 0.2092 0.36757 0.56953 0.0
H34 H 0.19851 0.40045 0.56397 0.0
H35 H 0.17959 0.42184 0.54594 0.0
Mn36 Mn 0.67963 0.12699 0.51587 0.0
Mn37 Mn 0.6546 0.1654 0.52055 0.0
C38 C 0.66893 0.13567 0.54429 0.0
C39 C 0.68149 0.09569 0.51064 0.0
C40 C 0.69569 0.16568 0.51558 0.0
O41 O 0.67127 0.13197 0.48983 0.0
O42 O 0.65465 0.15748 0.49452 0.0
C43 C 0.61839 0.14969 0.51162 0.0
N44 N 0.6295 0.15878 0.52348 0.0
C45 C 0.60525 0.16147 0.54553 0.0
C46 C 0.59353 0.15225 0.5335 0.0
C47 C 0.60014 0.14631 0.51649 0.0
C48 C 0.62328 0.16456 0.53989 0.0
H49 H 0.62342 0.145 0.49856 0.0
C50 C 0.66109 0.14493 0.48411 0.0
O51 O 0.69539 0.10631 0.50762 0.0
O52 O 0.66649 0.10331 0.51618 0.0
N53 N 0.65311 0.17431 0.5451 0.0
C54 C 0.66645 0.18203 0.55555 0.0
C55 C 0.66219 0.18827 0.5732 0.0
C56 C 0.64427 0.18656 0.57989 0.0
C57 C 0.63075 0.17867 0.56885 0.0
C58 C 0.63576 0.17286 0.55131 0.0
H59 H 0.68025 0.18331 0.5505 0.0
O60 O 0.68305 0.12503 0.54297 0.0
O61 O 0.66178 0.14107 0.52897 0.0
O62 O 0.69763 0.14839 0.51442 0.0
O63 O 0.68024 0.17347 0.51802 0.0
C64 C 0.61259 0.176 0.57468 0.0
C65 C 0.59986 0.16738 0.56305 0.0
H66 H 0.57947 0.14951 0.53726 0.0
H67 H 0.5912 0.1391 0.50717 0.0
H68 H 0.67271 0.1943 0.58166 0.0
H69 H 0.64108 0.19124 0.59357 0.0
H70 H 0.60831 0.18027 0.58817 0.0
H71 H 0.58602 0.16517 0.5678 0.0
Mn72 Mn 0.87338 0.67862 0.50849 0.0
Mn73 Mn 0.83656 0.65109 0.51179 0.0
C74 C 0.8645 0.66722 0.53658 0.0
C75 C 0.90463 0.68216 0.50376 0.0
C76 C 0.83382 0.69219 0.50709 0.0
O77 O 0.86946 0.67047 0.48218 0.0
O78 O 0.84542 0.65152 0.48612 0.0
C79 C 0.85503 0.61596 0.50391 0.0
N80 N 0.84466 0.6265 0.51523 0.0
C81 C 0.84186 0.602 0.53698 0.0
C82 C 0.85241 0.59085 0.5255 0.0
C83 C 0.85908 0.59789 0.50893 0.0
C84 C 0.83836 0.61993 0.5313 0.0
H85 H 0.86017 0.62131 0.49116 0.0
C86 C 0.85754 0.65927 0.47617 0.0
O87 O 0.89339 0.69566 0.50113 0.0
O88 O 0.89765 0.66669 0.50881 0.0
N89 N 0.82664 0.64913 0.53592 0.0
C90 C 0.81725 0.66187 0.54573 0.0
C91 C 0.80988 0.65709 0.5628 0.0
C92 C 0.81203 0.63922 0.56949 0.0
C93 C 0.82161 0.6263 0.55908 0.0
C94 C 0.82868 0.63187 0.54218 0.0
H95 H 0.8154 0.67557 0.54057 0.0
O96 O 0.87459 0.68177 0.53564 0.0
O97 O 0.86001 0.65983 0.52109 0.0
O98 O 0.85097 0.69538 0.50701 0.0
O99 O 0.82704 0.67616 0.50869 0.0
C100 C 0.82447 0.60813 0.5648 0.0
C101 C 0.83476 0.59605 0.55385 0.0
H102 H 0.85554 0.57689 0.52931 0.0
H103 H 0.86729 0.5894 0.50004 0.0
H104 H 0.80249 0.66713 0.57075 0.0
H105 H 0.80631 0.63559 0.58265 0.0
H106 H 0.81892 0.6033 0.57764 0.0
H107 H 0.83711 0.58221 0.55855 0.0
Mn108 Mn 0.32293 0.86978 0.51244 0.0
Mn109 Mn 0.34944 0.8324 0.51652 0.0
C110 C 0.33373 0.8615 0.54121 0.0
C111 C 0.32045 0.90098 0.50674 0.0
C112 C 0.30842 0.83088 0.51019 0.0
O113 O 0.33128 0.86502 0.4863 0.0
O114 O 0.3512 0.84212 0.49127 0.0
C115 C 0.38604 0.84879 0.5114 0.0
N116 N 0.37403 0.83926 0.52196 0.0
C117 C 0.39696 0.83395 0.5449 0.0
C118 C 0.40962 0.84356 0.5342 0.0
C119 C 0.40411 0.85108 0.51741 0.0
C120 C 0.37913 0.83215 0.53821 0.0
H121 H 0.38191 0.85444 0.4984 0.0
C122 C 0.34346 0.85382 0.4808 0.0
O123 O 0.30668 0.89006 0.50422 0.0
O124 O 0.33562 0.89371 0.51231 0.0
N125 N 0.34926 0.82139 0.54023 0.0
C126 C 0.33591 0.81097 0.54802 0.0
C127 C 0.33939 0.80203 0.56465 0.0
C128 C 0.35663 0.80364 0.57294 0.0
C129 C 0.37034 0.81393 0.56437 0.0
C130 C 0.36609 0.8225 0.54778 0.0
H131 H 0.32272 0.80943 0.5416 0.0
O132 O 0.31946 0.87185 0.53941 0.0
O133 O 0.34111 0.85615 0.52593 0.0
O134 O 0.30542 0.84802 0.51122 0.0
O135 O 0.32437 0.8239 0.51132 0.0
C136 C 0.38811 0.81586 0.57153 0.0
C137 C 0.4014 0.82588 0.56181 0.0
H138 H 0.42359 0.84529 0.53876 0.0
H139 H 0.41379 0.85856 0.50911 0.0
H140 H 0.32882 0.79388 0.57103 0.0
H141 H 0.35926 0.79674 0.58578 0.0
H142 H 0.39174 0.80955 0.58441 0.0
H143 H 0.41506 0.82715 0.56737 0.0
Mn144 Mn 0.13096 0.67901 0.49217 0.0
Mn145 Mn 0.16781 0.65177 0.48727 0.0
C146 C 0.13781 0.66649 0.46396 0.0
C147 C 0.10005 0.68227 0.49903 0.0
C148 C 0.17027 0.69307 0.49054 0.0
O149 O 0.13706 0.67205 0.51843 0.0
O150 O 0.16047 0.65269 0.5134 0.0
C151 C 0.15073 0.61647 0.49719 0.0
N152 N 0.16005 0.62694 0.48494 0.0
C153 C 0.16148 0.60213 0.46341 0.0
C154 C 0.152 0.59104 0.47584 0.0
C155 C 0.14657 0.59826 0.49278 0.0
C156 C 0.16532 0.62015 0.4686 0.0
H157 H 0.14646 0.62198 0.5102 0.0
C158 C 0.14915 0.66079 0.52405 0.0
O159 O 0.11124 0.696 0.50036 0.0
O160 O 0.10693 0.66672 0.49412 0.0
N161 N 0.17611 0.64946 0.46256 0.0
C162 C 0.1842 0.66225 0.45172 0.0
C163 C 0.18999 0.65738 0.43408 0.0
C164 C 0.18751 0.6394 0.42782 0.0
C165 C 0.17926 0.62644 0.43927 0.0
C166 C 0.17391 0.63205 0.45677 0.0
H167 H 0.18613 0.67609 0.45646 0.0
O168 O 0.12764 0.68097 0.46505 0.0
O169 O 0.14363 0.6599 0.47937 0.0
O170 O 0.15311 0.69614 0.49134 0.0
O171 O 0.17708 0.67704 0.4892 0.0
C172 C 0.17584 0.60826 0.43391 0.0
C173 C 0.16693 0.59613 0.44595 0.0
H174 H 0.14867 0.57703 0.47245 0.0
H175 H 0.13917 0.58982 0.50241 0.0
H176 H 0.19631 0.66746 0.4253 0.0
H177 H 0.19187 0.63573 0.41416 0.0
H178 H 0.17976 0.60352 0.42047 0.0
H179 H 0.16412 0.58228 0.44155 0.0
Mn180 Mn 0.31743 0.128 0.48786 0.0
Mn181 Mn 0.34137 0.16711 0.48414 0.0
C182 C 0.32784 0.13706 0.45917 0.0
C183 C 0.31684 0.09667 0.49337 0.0
C184 C 0.30049 0.16564 0.49079 0.0
O185 O 0.32544 0.13331 0.51409 0.0
O186 O 0.34436 0.15711 0.50913 0.0
C187 C 0.37918 0.1533 0.48795 0.0
N188 N 0.36625 0.16222 0.47797 0.0
C189 C 0.3881 0.16961 0.45453 0.0
C190 C 0.40168 0.16064 0.46463 0.0
C191 C 0.39717 0.15238 0.48135 0.0
C192 C 0.37041 0.17007 0.46177 0.0
H193 H 0.37579 0.14706 0.50089 0.0
C194 C 0.33714 0.14506 0.51956 0.0
O195 O 0.30245 0.10674 0.49591 0.0
O196 O 0.3316 0.10487 0.48801 0.0
N197 N 0.33975 0.17844 0.46064 0.0
C198 C 0.32534 0.1876 0.45317 0.0
C199 C 0.32768 0.197 0.43659 0.0
C200 C 0.34485 0.19709 0.42799 0.0
C201 C 0.35958 0.18794 0.43615 0.0
C202 C 0.35645 0.17889 0.45273 0.0
H203 H 0.31218 0.18783 0.45983 0.0
O204 O 0.31427 0.12577 0.46087 0.0
O205 O 0.33469 0.1429 0.47453 0.0
O206 O 0.29847 0.14848 0.48884 0.0
O207 O 0.31592 0.17373 0.49026 0.0
C208 C 0.37724 0.18746 0.4285 0.0
C209 C 0.39149 0.17825 0.43766 0.0
H210 H 0.41559 0.1599 0.45961 0.0
H211 H 0.40758 0.14531 0.48909 0.0
H212 H 0.3163 0.20419 0.43049 0.0
H213 H 0.34659 0.2043 0.41518 0.0
H214 H 0.38004 0.19419 0.41561 0.0
H215 H 0.40503 0.17803 0.43168 0.0
Mn216 Mn 0.87104 0.31857 0.48953 0.0
Mn217 Mn 0.83193 0.34269 0.48595 0.0
C218 C 0.86195 0.33025 0.46156 0.0
C219 C 0.90234 0.31743 0.49511 0.0
C220 C 0.83289 0.30149 0.49009 0.0
O221 O 0.86591 0.32597 0.51581 0.0
O222 O 0.8404 0.34295 0.51182 0.0
C223 C 0.84606 0.37962 0.49461 0.0
N224 N 0.83733 0.36806 0.48291 0.0
C225 C 0.83176 0.39242 0.46154 0.0
C226 C 0.8406 0.40461 0.47339 0.0
C227 C 0.84786 0.39815 0.48996 0.0
C228 C 0.83047 0.37409 0.46686 0.0
H229 H 0.85158 0.37473 0.50739 0.0
C230 C 0.8531 0.33616 0.5218 0.0
O231 O 0.89209 0.30307 0.49713 0.0
O232 O 0.89436 0.3324 0.49 0.0
N233 N 0.8226 0.34375 0.46154 0.0
C234 C 0.81575 0.32999 0.45103 0.0
C235 C 0.80868 0.33401 0.43365 0.0
C236 C 0.80858 0.35213 0.42733 0.0
C237 C 0.81567 0.36606 0.4384 0.0
C238 C 0.82264 0.36122 0.45555 0.0
H239 H 0.81579 0.31604 0.45582 0.0
O240 O 0.87301 0.31639 0.46226 0.0
O241 O 0.85639 0.3365 0.47719 0.0
O242 O 0.85024 0.29983 0.49038 0.0
O243 O 0.82475 0.31684 0.4886 0.0
C244 C 0.81627 0.38453 0.43304 0.0
C245 C 0.82434 0.39771 0.44458 0.0
H246 H 0.84201 0.41891 0.46986 0.0
H247 H 0.85476 0.40745 0.49915 0.0
H248 H 0.8033 0.32316 0.42515 0.0
H249 H 0.80313 0.35518 0.4139 0.0
H250 H 0.81087 0.38871 0.4199 0.0
H251 H 0.82504 0.41181 0.44013 0.0
Mn252 Mn 0.68134 0.86917 0.48492 0.0
Mn253 Mn 0.65497 0.83193 0.47854 0.0
C254 C 0.67158 0.86136 0.4559 0.0
C255 C 0.68388 0.90028 0.49073 0.0
C256 C 0.69573 0.82993 0.4859 0.0
O257 O 0.67157 0.86404 0.51047 0.0
O258 O 0.65336 0.83988 0.50451 0.0
C259 C 0.61865 0.84877 0.48458 0.0
N260 N 0.63039 0.83933 0.47364 0.0
C261 C 0.60792 0.83736 0.4497 0.0
C262 C 0.59557 0.84697 0.46075 0.0
C263 C 0.60098 0.85274 0.47822 0.0
C264 C 0.62532 0.83372 0.45678 0.0
H265 H 0.62277 0.85331 0.498 0.0
C266 C 0.66014 0.85181 0.51543 0.0
O267 O 0.69732 0.88924 0.49428 0.0
O268 O 0.66896 0.8932 0.48436 0.0
N269 N 0.65518 0.82314 0.45389 0.0
C270 C 0.66915 0.81526 0.44443 0.0
C271 C 0.6662 0.80938 0.42639 0.0
C272 C 0.64893 0.81161 0.41831 0.0
C273 C 0.63474 0.81966 0.42836 0.0
C274 C 0.63844 0.82512 0.44633 0.0
H275 H 0.68247 0.81359 0.45055 0.0
O276 O 0.68602 0.87145 0.458 0.0
O277 O 0.66365 0.85597 0.47082 0.0
O278 O 0.69855 0.84712 0.48672 0.0
O279 O 0.67998 0.82294 0.48308 0.0
C280 C 0.61718 0.82285 0.42113 0.0
C281 C 0.60379 0.83171 0.43177 0.0
H282 H 0.58197 0.85019 0.45586 0.0
H283 H 0.59155 0.86032 0.4867 0.0
H284 H 0.67724 0.80323 0.41871 0.0
H285 H 0.64676 0.80724 0.40433 0.0
H286 H 0.6139 0.81879 0.4073 0.0
H287 H 0.59045 0.83436 0.42593 0.0
Mn288 Mn 0.51006 0.12802 0.32314 0.0
Mn289 Mn 0.50671 0.16586 0.34934 0.0
C290 C 0.53584 0.1394 0.3377 0.0
C291 C 0.50798 0.09634 0.32006 0.0
C292 C 0.50676 0.16682 0.30788 0.0
O293 O 0.48272 0.12984 0.328 0.0
O294 O 0.48227 0.15441 0.34656 0.0
C295 C 0.49637 0.1487 0.3845 0.0
N296 N 0.50776 0.15966 0.37468 0.0
C297 C 0.52523 0.16716 0.4015 0.0
C298 C 0.51365 0.156 0.41194 0.0
C299 C 0.49919 0.14669 0.40338 0.0
C300 C 0.52173 0.16864 0.38275 0.0
H301 H 0.48523 0.14155 0.37798 0.0
C302 C 0.47435 0.14122 0.33822 0.0
O303 O 0.50625 0.1071 0.30605 0.0
O304 O 0.51085 0.104 0.33578 0.0
N305 N 0.52931 0.17831 0.35341 0.0
C306 C 0.53985 0.18762 0.34121 0.0
C307 C 0.55489 0.19772 0.34754 0.0
C308 C 0.55888 0.19814 0.36631 0.0
C309 C 0.54809 0.18812 0.37854 0.0
C310 C 0.53309 0.17859 0.37149 0.0
H311 H 0.53665 0.18756 0.32681 0.0
O312 O 0.53735 0.12906 0.32337 0.0
O313 O 0.51921 0.14294 0.34298 0.0
O314 O 0.50876 0.14969 0.3053 0.0
O315 O 0.5057 0.174 0.32373 0.0
C316 C 0.55164 0.18718 0.39745 0.0
C317 C 0.54028 0.17662 0.40891 0.0
H318 H 0.51581 0.15438 0.42649 0.0
H319 H 0.49024 0.138 0.41133 0.0
H320 H 0.56326 0.20532 0.33801 0.0
H321 H 0.57023 0.20623 0.37122 0.0
H322 H 0.5632 0.19436 0.40328 0.0
H323 H 0.54332 0.17577 0.42337 0.0
Mn324 Mn 0.86914 0.50882 0.3213 0.0
Mn325 Mn 0.83132 0.50183 0.34671 0.0
C326 C 0.85468 0.53333 0.3353 0.0
C327 C 0.90085 0.50999 0.31849 0.0
C328 C 0.83085 0.50247 0.30538 0.0
O329 O 0.87012 0.48142 0.32615 0.0
O330 O 0.84455 0.47848 0.34305 0.0
C331 C 0.85048 0.49246 0.38109 0.0
N332 N 0.83788 0.50266 0.37195 0.0
C333 C 0.82976 0.51891 0.39933 0.0
C334 C 0.84247 0.50842 0.40911 0.0
C335 C 0.85303 0.4953 0.39989 0.0
C336 C 0.82799 0.51564 0.38057 0.0
H337 H 0.85856 0.48231 0.37407 0.0
C338 C 0.85871 0.47189 0.33524 0.0
O339 O 0.89044 0.50713 0.30441 0.0
O340 O 0.89283 0.51213 0.33416 0.0
N341 N 0.81703 0.52307 0.35165 0.0
C342 C 0.8066 0.53307 0.33991 0.0
C343 C 0.79554 0.54712 0.34682 0.0
C344 C 0.79524 0.5506 0.36568 0.0
C345 C 0.80623 0.54028 0.37747 0.0
C346 C 0.81679 0.52632 0.36983 0.0
H347 H 0.80662 0.53024 0.32543 0.0
O348 O 0.86524 0.53585 0.32128 0.0
O349 O 0.85298 0.5165 0.3408 0.0
O350 O 0.84794 0.5053 0.30325 0.0
O351 O 0.82327 0.50108 0.32104 0.0
C352 C 0.80719 0.54332 0.39646 0.0
C353 C 0.81908 0.53277 0.40736 0.0
H354 H 0.84443 0.51051 0.42363 0.0
H355 H 0.86307 0.48735 0.40728 0.0
H356 H 0.78712 0.55512 0.33767 0.0
H357 H 0.78642 0.56112 0.37098 0.0
H358 H 0.79902 0.55388 0.40281 0.0
H359 H 0.82002 0.53553 0.42187 0.0
Mn360 Mn 0.49373 0.86864 0.32123 0.0
Mn361 Mn 0.49324 0.83052 0.34715 0.0
C362 C 0.46667 0.85913 0.33481 0.0
C363 C 0.4982 0.90014 0.31881 0.0
C364 C 0.49447 0.82991 0.30565 0.0
O365 O 0.52075 0.86439 0.32665 0.0
O366 O 0.51852 0.84017 0.34549 0.0
C367 C 0.50332 0.84661 0.38288 0.0
N368 N 0.49154 0.83665 0.37247 0.0
C369 C 0.47225 0.83058 0.39839 0.0
C370 C 0.4842 0.84072 0.40943 0.0
C371 C 0.49977 0.84881 0.40162 0.0
C372 C 0.4765 0.82886 0.37982 0.0
H373 H 0.51531 0.85282 0.37693 0.0
C374 C 0.52784 0.85252 0.33729 0.0
O375 O 0.49958 0.88953 0.30463 0.0
O376 O 0.49451 0.89239 0.33431 0.0
N377 N 0.46961 0.81981 0.35011 0.0
C378 C 0.45893 0.81144 0.33737 0.0
C379 C 0.44277 0.8027 0.34291 0.0
C380 C 0.43786 0.80262 0.36145 0.0
C381 C 0.44886 0.81164 0.37426 0.0
C382 C 0.46493 0.81985 0.36799 0.0
H383 H 0.46281 0.81124 0.32314 0.0
O384 O 0.46641 0.86986 0.3207 0.0
O385 O 0.48279 0.85429 0.34054 0.0
O386 O 0.49365 0.84715 0.30315 0.0
O387 O 0.49472 0.82256 0.32147 0.0
C388 C 0.4445 0.81281 0.39298 0.0
C389 C 0.45613 0.82238 0.40502 0.0
H390 H 0.48148 0.84249 0.42387 0.0
H391 H 0.50902 0.8567 0.41003 0.0
H392 H 0.43426 0.79584 0.33295 0.0
H393 H 0.42572 0.79544 0.36576 0.0
H394 H 0.43214 0.80659 0.39822 0.0
H395 H 0.45249 0.82344 0.41933 0.0
Mn396 Mn 0.12705 0.49113 0.32046 0.0
Mn397 Mn 0.16368 0.48482 0.34767 0.0
C398 C 0.13397 0.46225 0.33135 0.0
C399 C 0.09619 0.49847 0.31758 0.0
C400 C 0.16644 0.49044 0.30659 0.0
O401 O 0.13312 0.51694 0.3289 0.0
O402 O 0.15616 0.5109 0.3484 0.0
C403 C 0.14608 0.49225 0.38334 0.0
N404 N 0.15567 0.48082 0.37221 0.0
C405 C 0.15761 0.45799 0.39579 0.0
C406 C 0.14784 0.46955 0.40755 0.0
C407 C 0.14199 0.48673 0.40126 0.0
C408 C 0.16119 0.46419 0.37805 0.0
H409 H 0.14158 0.50547 0.37857 0.0
C410 C 0.14492 0.52195 0.34074 0.0
O411 O 0.10739 0.50038 0.30392 0.0
O412 O 0.10298 0.49249 0.3328 0.0
N413 N 0.17223 0.46011 0.3485 0.0
C414 C 0.18082 0.45028 0.33521 0.0
C415 C 0.18726 0.43264 0.33919 0.0
C416 C 0.18501 0.42539 0.35683 0.0
C417 C 0.17625 0.43581 0.37031 0.0
C418 C 0.17009 0.45328 0.36554 0.0
H419 H 0.18274 0.45586 0.32169 0.0
O420 O 0.12374 0.46414 0.31699 0.0
O421 O 0.13967 0.47728 0.33884 0.0
O422 O 0.14929 0.49122 0.30343 0.0
O423 O 0.17315 0.48841 0.32261 0.0
C424 C 0.17332 0.42952 0.38829 0.0
C425 C 0.16384 0.44052 0.40096 0.0
H426 H 0.14468 0.46536 0.42139 0.0
H427 H 0.13439 0.4957 0.41022 0.0
H428 H 0.194 0.42468 0.32871 0.0
H429 H 0.19 0.41178 0.35984 0.0
H430 H 0.1782 0.4162 0.3925 0.0
H431 H 0.1614 0.4354 0.41463 0.0
Mn432 Mn 0.51218 0.87548 0.68082 0.0
Mn433 Mn 0.5099 0.83772 0.65451 0.0
C434 C 0.53797 0.86475 0.66586 0.0
C435 C 0.50952 0.90707 0.68392 0.0
C436 C 0.50999 0.83658 0.69596 0.0
O437 O 0.48486 0.87286 0.67608 0.0
O438 O 0.4851 0.84837 0.65732 0.0
C439 C 0.49914 0.85485 0.61948 0.0
N440 N 0.51107 0.8445 0.62932 0.0
C441 C 0.52962 0.83894 0.60275 0.0
C442 C 0.5175 0.84948 0.5923 0.0
C443 C 0.50224 0.85754 0.60073 0.0
C444 C 0.52591 0.83687 0.6214 0.0
H445 H 0.48734 0.86099 0.62587 0.0
C446 C 0.47682 0.8613 0.66575 0.0
O447 O 0.50809 0.8963 0.69796 0.0
O448 O 0.51227 0.89946 0.66816 0.0
N449 N 0.5331 0.82631 0.65053 0.0
C450 C 0.54384 0.81715 0.66267 0.0
C451 C 0.55997 0.80874 0.65653 0.0
C452 C 0.56477 0.80967 0.63796 0.0
C453 C 0.5534 0.81902 0.6257 0.0
C454 C 0.53755 0.82719 0.63261 0.0
H455 H 0.54017 0.81631 0.67693 0.0
O456 O 0.53964 0.87516 0.68013 0.0
O457 O 0.52137 0.86089 0.66105 0.0
O458 O 0.51158 0.85376 0.69853 0.0
O459 O 0.50903 0.82933 0.68011 0.0
C460 C 0.5572 0.82059 0.60689 0.0
C461 C 0.54528 0.8305 0.59542 0.0
H462 H 0.51981 0.85154 0.57782 0.0
H463 H 0.49285 0.86574 0.59277 0.0
H464 H 0.56866 0.80154 0.66608 0.0
H465 H 0.57723 0.80319 0.63328 0.0
H466 H 0.56934 0.81438 0.60114 0.0
H467 H 0.54842 0.83174 0.581 0.0
Mn468 Mn 0.1267 0.51276 0.67926 0.0
Mn469 Mn 0.16562 0.51143 0.65468 0.0
C470 C 0.13899 0.53973 0.66788 0.0
C471 C 0.09495 0.5101 0.68026 0.0
C472 C 0.16419 0.50652 0.69593 0.0
O473 O 0.12913 0.4859 0.67216 0.0
O474 O 0.15306 0.48749 0.65269 0.0
C475 C 0.15108 0.50763 0.61712 0.0
N476 N 0.16146 0.51686 0.62951 0.0
C477 C 0.17165 0.53811 0.60658 0.0
C478 C 0.16111 0.52881 0.59355 0.0
C479 C 0.15073 0.51355 0.59887 0.0
C480 C 0.17143 0.5316 0.62456 0.0
H481 H 0.14316 0.49586 0.62116 0.0
C482 C 0.14001 0.47884 0.66049 0.0
O483 O 0.10491 0.50725 0.69468 0.0
O484 O 0.10344 0.51453 0.66535 0.0
N485 N 0.17895 0.53387 0.65538 0.0
C486 C 0.18731 0.54204 0.66988 0.0
C487 C 0.19795 0.55772 0.667 0.0
C488 C 0.19996 0.56475 0.64926 0.0
C489 C 0.19105 0.55625 0.63459 0.0
C490 C 0.18072 0.5406 0.63827 0.0
H491 H 0.18601 0.53655 0.68351 0.0
O492 O 0.12759 0.54005 0.68147 0.0
O493 O 0.14271 0.52363 0.66134 0.0
O494 O 0.14727 0.51003 0.69808 0.0
O495 O 0.17187 0.5059 0.68029 0.0
C496 C 0.19198 0.56267 0.61646 0.0
C497 C 0.18216 0.55371 0.60249 0.0
H498 H 0.16078 0.53334 0.57946 0.0
H499 H 0.14251 0.50634 0.58891 0.0
H500 H 0.20475 0.56426 0.67839 0.0
H501 H 0.20847 0.5766 0.64709 0.0
H502 H 0.20013 0.57454 0.61311 0.0
H503 H 0.18272 0.55899 0.58867 0.0
Mn504 Mn 0.49086 0.13365 0.6801 0.0
Mn505 Mn 0.48862 0.17088 0.65314 0.0
C506 C 0.46363 0.14147 0.6659 0.0
C507 C 0.49692 0.10256 0.68342 0.0
C508 C 0.49032 0.17271 0.69459 0.0
O509 O 0.51764 0.13912 0.67454 0.0
O510 O 0.51433 0.16233 0.65454 0.0
C511 C 0.49875 0.15442 0.61761 0.0
N512 N 0.48656 0.16378 0.6281 0.0
C513 C 0.46622 0.16773 0.60259 0.0
C514 C 0.47858 0.1582 0.59148 0.0
C515 C 0.49487 0.15143 0.59905 0.0
C516 C 0.47074 0.17014 0.62102 0.0
H517 H 0.51136 0.14931 0.62334 0.0
C518 C 0.52418 0.15071 0.66322 0.0
O519 O 0.49765 0.11361 0.6973 0.0
O520 O 0.4929 0.10965 0.66768 0.0
N521 N 0.46433 0.1802 0.65049 0.0
C522 C 0.4535 0.18838 0.66325 0.0
C523 C 0.43636 0.19528 0.65805 0.0
C524 C 0.43065 0.19391 0.63977 0.0
C525 C 0.44211 0.18559 0.62686 0.0
C526 C 0.45897 0.17886 0.63287 0.0
H527 H 0.45789 0.18958 0.67729 0.0
O528 O 0.46351 0.1311 0.68029 0.0
O529 O 0.4796 0.14691 0.6605 0.0
O530 O 0.48974 0.15554 0.69751 0.0
O531 O 0.49037 0.17969 0.67859 0.0
C532 C 0.43745 0.18369 0.60828 0.0
C533 C 0.44955 0.17485 0.59614 0.0
H534 H 0.47566 0.15592 0.57715 0.0
H535 H 0.50446 0.14401 0.59057 0.0
H536 H 0.4276 0.20169 0.66809 0.0
H537 H 0.41742 0.19926 0.63581 0.0
H538 H 0.42453 0.18884 0.60322 0.0
H539 H 0.44577 0.17336 0.5819 0.0
Mn540 Mn 0.86734 0.48988 0.67456 0.0
Mn541 Mn 0.8286 0.49528 0.65009 0.0
C542 C 0.85377 0.46479 0.66079 0.0
C543 C 0.89915 0.49068 0.67645 0.0
C544 C 0.82923 0.49429 0.69146 0.0
O545 O 0.86675 0.51726 0.66992 0.0
O546 O 0.84094 0.51924 0.65324 0.0
C547 C 0.84521 0.50615 0.61481 0.0
N548 N 0.83421 0.49476 0.6246 0.0
C549 C 0.82577 0.47813 0.59753 0.0
C550 C 0.83696 0.48972 0.58714 0.0
C551 C 0.84676 0.50376 0.59583 0.0
C552 C 0.82478 0.48118 0.61639 0.0
H553 H 0.85272 0.51699 0.62143 0.0
C554 C 0.85497 0.52633 0.66087 0.0
O555 O 0.88898 0.49266 0.69086 0.0
O556 O 0.89083 0.48808 0.66101 0.0
N557 N 0.81519 0.47335 0.64569 0.0
C558 C 0.80574 0.46284 0.65782 0.0
C559 C 0.79532 0.44811 0.65136 0.0
C560 C 0.79462 0.44448 0.63254 0.0
C561 C 0.80458 0.45535 0.62034 0.0
C562 C 0.81459 0.46993 0.62755 0.0
H563 H 0.8061 0.46573 0.67228 0.0
O564 O 0.8649 0.46273 0.67445 0.0
O565 O 0.85108 0.48154 0.65538 0.0
O566 O 0.84644 0.49208 0.69324 0.0
O567 O 0.82133 0.4957 0.67597 0.0
C568 C 0.80502 0.45226 0.60134 0.0
C569 C 0.8157 0.46357 0.58995 0.0
H570 H 0.8382 0.4879 0.5725 0.0
H571 H 0.85545 0.51273 0.58792 0.0
H572 H 0.7877 0.43968 0.66083 0.0
H573 H 0.78629 0.43342 0.6276 0.0
H574 H 0.79731 0.44116 0.59534 0.0
H575 H 0.81613 0.46091 0.57539 0.0
Mn576 Mn 0.31983 0.506 0.1295 0.0
Mn577 Mn 0.34692 0.50389 0.16669 0.0
C578 C 0.3353 0.53178 0.13945 0.0
C579 C 0.31639 0.50256 0.09802 0.0
C580 C 0.30543 0.50418 0.1686 0.0
O581 O 0.32416 0.47867 0.13269 0.0
O582 O 0.34432 0.47901 0.15611 0.0
C583 C 0.38191 0.49352 0.1492 0.0
N584 N 0.37201 0.50538 0.15959 0.0
C585 C 0.39831 0.52451 0.16443 0.0
C586 C 0.4088 0.51246 0.15385 0.0
C587 C 0.40054 0.49694 0.14614 0.0
C588 C 0.37978 0.52045 0.16692 0.0
H589 H 0.37563 0.48154 0.1433 0.0
C590 C 0.33506 0.47074 0.14377 0.0
O591 O 0.3024 0.5017 0.10893 0.0
O592 O 0.33224 0.50528 0.10543 0.0
N593 N 0.35071 0.52722 0.1779 0.0
C594 C 0.3385 0.5379 0.18705 0.0
C595 C 0.34446 0.55429 0.19507 0.0
C596 C 0.3629 0.55944 0.19374 0.0
C597 C 0.37524 0.54815 0.18439 0.0
C598 C 0.36852 0.53199 0.17665 0.0
H599 H 0.32433 0.53398 0.18818 0.0
O600 O 0.32093 0.53342 0.12918 0.0
O601 O 0.33994 0.51519 0.14357 0.0
O602 O 0.30249 0.50623 0.15153 0.0
O603 O 0.32143 0.50268 0.17543 0.0
C604 C 0.39392 0.55234 0.18235 0.0
C605 C 0.40546 0.54048 0.17244 0.0
H606 H 0.42318 0.51505 0.15147 0.0
H607 H 0.40853 0.48761 0.13791 0.0
H608 H 0.33485 0.56293 0.20227 0.0
H609 H 0.36743 0.57211 0.1999 0.0
H610 H 0.39953 0.56472 0.1882 0.0
H611 H 0.41978 0.54392 0.17085 0.0
Mn612 Mn 0.31874 0.48715 0.87093 0.0
Mn613 Mn 0.3442 0.48228 0.83282 0.0
C614 C 0.3301 0.45871 0.86279 0.0
C615 C 0.31661 0.49305 0.90216 0.0
C616 C 0.30305 0.48763 0.83223 0.0
O617 O 0.32677 0.51329 0.86536 0.0
O618 O 0.34512 0.50815 0.84107 0.0
C619 C 0.38077 0.4892 0.84877 0.0
N620 N 0.36919 0.47815 0.83927 0.0
C621 C 0.39243 0.45509 0.83602 0.0
C622 C 0.40464 0.46628 0.84561 0.0
C623 C 0.39875 0.48333 0.85212 0.0
C624 C 0.37467 0.46161 0.8331 0.0
H625 H 0.37627 0.50229 0.85387 0.0
C626 C 0.33789 0.51875 0.85303 0.0
O627 O 0.30269 0.49534 0.89138 0.0
O628 O 0.3318 0.4878 0.89469 0.0
N629 N 0.34454 0.45775 0.82371 0.0
C630 C 0.33062 0.44788 0.81624 0.0
C631 C 0.33402 0.43011 0.80986 0.0
C632 C 0.35168 0.42269 0.81116 0.0
C633 C 0.36579 0.43314 0.81883 0.0
C634 C 0.36162 0.45083 0.82482 0.0
H635 H 0.31701 0.45349 0.81526 0.0
O636 O 0.31597 0.45994 0.87344 0.0
O637 O 0.33682 0.4741 0.85713 0.0
O638 O 0.30072 0.48776 0.8495 0.0
O639 O 0.31873 0.48601 0.82472 0.0
C640 C 0.38372 0.42656 0.82113 0.0
C641 C 0.39702 0.43748 0.82977 0.0
H642 H 0.41848 0.46179 0.84834 0.0
H643 H 0.40806 0.49182 0.85982 0.0
H644 H 0.32304 0.42211 0.80402 0.0
H645 H 0.35421 0.40891 0.8064 0.0
H646 H 0.38736 0.413 0.81658 0.0
H647 H 0.41065 0.43208 0.83182 0.0
Mn648 Mn 0.51071 0.32301 0.87334 0.0
Mn649 Mn 0.51472 0.35056 0.8366 0.0
C650 C 0.53879 0.33543 0.86584 0.0
C651 C 0.50468 0.31949 0.90441 0.0
C652 C 0.51119 0.30929 0.83389 0.0
O653 O 0.48434 0.33016 0.86799 0.0
O654 O 0.48877 0.34983 0.8447 0.0
C655 C 0.50569 0.38586 0.85418 0.0
N656 N 0.51754 0.37532 0.84443 0.0
C657 C 0.53928 0.39991 0.84252 0.0
C658 C 0.52726 0.41107 0.85243 0.0
C659 C 0.5104 0.40399 0.85831 0.0
C660 C 0.53379 0.38198 0.83871 0.0
H661 H 0.49275 0.38045 0.85879 0.0
C662 C 0.47842 0.34164 0.85624 0.0
O663 O 0.50301 0.30586 0.89314 0.0
O664 O 0.50944 0.3351 0.89753 0.0
N665 N 0.5392 0.35268 0.82759 0.0
C666 C 0.54968 0.33982 0.81914 0.0
C667 C 0.5672 0.34454 0.81287 0.0
C668 C 0.57371 0.36244 0.81527 0.0
C669 C 0.56263 0.37547 0.8239 0.0
C670 C 0.54523 0.37001 0.82972 0.0
H671 H 0.54475 0.32604 0.81728 0.0
O672 O 0.53788 0.32088 0.87592 0.0
O673 O 0.52327 0.34218 0.86049 0.0
O674 O 0.51089 0.30606 0.85104 0.0
O675 O 0.5123 0.32538 0.82719 0.0
C676 C 0.5683 0.39357 0.82727 0.0
C677 C 0.55665 0.40577 0.8366 0.0
H678 H 0.5309 0.42503 0.85575 0.0
H679 H 0.50109 0.41249 0.86605 0.0
H680 H 0.57569 0.3344 0.80626 0.0
H681 H 0.58728 0.36599 0.81053 0.0
H682 H 0.58168 0.39818 0.82301 0.0
H683 H 0.56128 0.41955 0.83937 0.0
Mn684 Mn 0.67694 0.51321 0.8684 0.0
Mn685 Mn 0.65166 0.51556 0.82993 0.0
C686 C 0.6645 0.54099 0.85948 0.0
C687 C 0.67911 0.50798 0.89975 0.0
C688 C 0.69306 0.51235 0.82996 0.0
O689 O 0.67036 0.48656 0.86356 0.0
O690 O 0.65189 0.49007 0.83919 0.0
C691 C 0.61514 0.50686 0.84504 0.0
N692 N 0.62631 0.51831 0.83554 0.0
C693 C 0.60141 0.5388 0.82911 0.0
C694 C 0.58962 0.5272 0.83879 0.0
C695 C 0.59653 0.51119 0.84683 0.0
C696 C 0.61982 0.53377 0.82778 0.0
H697 H 0.62039 0.49453 0.85121 0.0
C698 C 0.65945 0.48019 0.85152 0.0
O699 O 0.6932 0.50619 0.8891 0.0
O700 O 0.66376 0.51249 0.89212 0.0
N701 N 0.65003 0.5395 0.81962 0.0
C702 C 0.66342 0.54971 0.81167 0.0
C703 C 0.65879 0.56615 0.80294 0.0
C704 C 0.64047 0.57187 0.80246 0.0
C705 C 0.62701 0.56136 0.81109 0.0
C706 C 0.63238 0.54495 0.81928 0.0
H707 H 0.67747 0.54521 0.81176 0.0
O708 O 0.67861 0.54042 0.87022 0.0
O709 O 0.65824 0.52522 0.85411 0.0
O710 O 0.69524 0.5129 0.84723 0.0
O711 O 0.67739 0.51294 0.82233 0.0
C712 C 0.60847 0.56652 0.81189 0.0
C713 C 0.5957 0.5553 0.821 0.0
H714 H 0.57526 0.53052 0.84025 0.0
H715 H 0.58752 0.5022 0.85438 0.0
H716 H 0.66927 0.57429 0.79641 0.0
H717 H 0.63686 0.58434 0.79538 0.0
H718 H 0.60393 0.57919 0.80573 0.0
H719 H 0.58154 0.55955 0.82178 0.0
Mn720 Mn 0.4872 0.6821 0.87052 0.0
Mn721 Mn 0.48731 0.65596 0.83264 0.0
C722 C 0.4605 0.66825 0.86055 0.0
C723 C 0.49104 0.68472 0.90198 0.0
C724 C 0.48893 0.69737 0.83165 0.0
O725 O 0.51424 0.67637 0.86699 0.0
O726 O 0.51252 0.6578 0.84246 0.0
C727 C 0.49734 0.62049 0.84933 0.0
N728 N 0.48543 0.63081 0.83941 0.0
C729 C 0.4658 0.60495 0.83433 0.0
C730 C 0.47788 0.59401 0.84442 0.0
C731 C 0.49368 0.60185 0.85202 0.0
C732 C 0.47008 0.62347 0.83225 0.0
H733 H 0.50956 0.62643 0.8551 0.0
C734 C 0.52155 0.66589 0.8551 0.0
O735 O 0.49288 0.69881 0.89134 0.0
O736 O 0.48719 0.66922 0.89433 0.0
N737 N 0.46362 0.65288 0.82201 0.0
C738 C 0.45302 0.66545 0.81328 0.0
C739 C 0.43639 0.65995 0.80544 0.0
C740 C 0.43095 0.64157 0.80646 0.0
C741 C 0.44218 0.62884 0.81535 0.0
C742 C 0.45855 0.63514 0.823 0.0
H743 H 0.45721 0.67957 0.81236 0.0
O744 O 0.45973 0.68251 0.87108 0.0
O745 O 0.47679 0.66286 0.85613 0.0
O746 O 0.48785 0.69991 0.84888 0.0
O747 O 0.48897 0.68154 0.8243 0.0
C748 C 0.43779 0.61017 0.81693 0.0
C749 C 0.44964 0.59821 0.82634 0.0
H750 H 0.47513 0.57961 0.84647 0.0
H751 H 0.50304 0.59351 0.85986 0.0
H752 H 0.4278 0.66985 0.79858 0.0
H753 H 0.41811 0.63738 0.80039 0.0
H754 H 0.42525 0.60488 0.8111 0.0
H755 H 0.44606 0.58391 0.82758 0.0
Mn756 Mn 0.67899 0.49195 0.12714 0.0
Mn757 Mn 0.65347 0.49471 0.16543 0.0
C758 C 0.66355 0.4665 0.13785 0.0
C759 C 0.68149 0.49515 0.09556 0.0
C760 C 0.69493 0.49331 0.1657 0.0
O761 O 0.67521 0.51934 0.13025 0.0
O762 O 0.65657 0.51957 0.15489 0.0
C763 C 0.61824 0.50634 0.1493 0.0
N764 N 0.62809 0.49414 0.15933 0.0
C765 C 0.60131 0.47603 0.16532 0.0
C766 C 0.59086 0.48843 0.15512 0.0
C767 C 0.59938 0.50362 0.14702 0.0
C768 C 0.62006 0.47942 0.16706 0.0
H769 H 0.62473 0.51806 0.1431 0.0
C770 C 0.66528 0.52758 0.14199 0.0
O771 O 0.69581 0.49587 0.10604 0.0
O772 O 0.66583 0.49269 0.10346 0.0
N773 N 0.64929 0.47151 0.17677 0.0
C774 C 0.66147 0.46036 0.18537 0.0
C775 C 0.65525 0.44423 0.1937 0.0
C776 C 0.63656 0.43983 0.19325 0.0
C777 C 0.62428 0.45161 0.18444 0.0
C778 C 0.63128 0.46746 0.17635 0.0
H779 H 0.67583 0.4637 0.18583 0.0
O780 O 0.67751 0.46459 0.12707 0.0
O781 O 0.65922 0.48319 0.14202 0.0
O782 O 0.69715 0.49158 0.14849 0.0
O783 O 0.67926 0.49496 0.1732 0.0
C784 C 0.60538 0.44816 0.18327 0.0
C785 C 0.5939 0.46035 0.17369 0.0
H786 H 0.57631 0.48638 0.15334 0.0
H787 H 0.59142 0.51323 0.13909 0.0
H788 H 0.66482 0.43521 0.20046 0.0
H789 H 0.63182 0.42735 0.19964 0.0
H790 H 0.59956 0.43605 0.18947 0.0
H791 H 0.57943 0.45739 0.17265 0.0
Mn792 Mn 0.51532 0.67745 0.12868 0.0
Mn793 Mn 0.52141 0.6514 0.16619 0.0
C794 C 0.54441 0.6688 0.13764 0.0
C795 C 0.51046 0.68008 0.09738 0.0
C796 C 0.51308 0.69194 0.16793 0.0
O797 O 0.48989 0.66687 0.1329 0.0
O798 O 0.49568 0.64954 0.1577 0.0
C799 C 0.51627 0.61522 0.14874 0.0
N800 N 0.52676 0.62694 0.15869 0.0
C801 C 0.55044 0.60435 0.16201 0.0
C802 C 0.53986 0.59202 0.15187 0.0
C803 C 0.52277 0.59752 0.1451 0.0
C804 C 0.54336 0.62187 0.16501 0.0
H805 H 0.50308 0.61935 0.14357 0.0
C806 C 0.48489 0.65574 0.14538 0.0
O807 O 0.5061 0.69326 0.10844 0.0
O808 O 0.51712 0.66531 0.10452 0.0
N809 N 0.54576 0.65171 0.17575 0.0
C810 C 0.55466 0.66551 0.18454 0.0
C811 C 0.57215 0.66235 0.19179 0.0
C812 C 0.58018 0.64498 0.19018 0.0
C813 C 0.57069 0.63095 0.18123 0.0
C814 C 0.55336 0.63494 0.17418 0.0
H815 H 0.54846 0.67882 0.18599 0.0
O816 O 0.54213 0.68308 0.12738 0.0
O817 O 0.52962 0.66024 0.14239 0.0
O818 O 0.51221 0.69451 0.15069 0.0
O819 O 0.51643 0.67638 0.17513 0.0
C820 C 0.57776 0.61318 0.17899 0.0
C821 C 0.56775 0.59996 0.16919 0.0
H822 H 0.54478 0.57833 0.14909 0.0
H823 H 0.51466 0.5881 0.13713 0.0
H824 H 0.57938 0.67324 0.19869 0.0
H825 H 0.59366 0.6426 0.19581 0.0
H826 H 0.59093 0.60954 0.18466 0.0
H827 H 0.57351 0.58645 0.16725 0.0
Mn828 Mn 0.48546 0.31934 0.13091 0.0
Mn829 Mn 0.47906 0.34559 0.16824 0.0
C830 C 0.45637 0.32886 0.13896 0.0
C831 C 0.49169 0.3169 0.09979 0.0
C832 C 0.48659 0.30482 0.17008 0.0
O833 O 0.51106 0.32905 0.13617 0.0
O834 O 0.50486 0.34756 0.16004 0.0
C835 C 0.48407 0.3817 0.15064 0.0
N836 N 0.47367 0.37004 0.16076 0.0
C837 C 0.44977 0.39244 0.1637 0.0
C838 C 0.46028 0.40474 0.15344 0.0
C839 C 0.47741 0.39929 0.14675 0.0
C840 C 0.45699 0.37501 0.16693 0.0
H841 H 0.49727 0.37757 0.14549 0.0
C842 C 0.51586 0.3407 0.14825 0.0
O843 O 0.4947 0.30334 0.11086 0.0
O844 O 0.48537 0.33185 0.10688 0.0
N845 N 0.45459 0.34513 0.17752 0.0
C846 C 0.44563 0.33124 0.18609 0.0
C847 C 0.42802 0.33427 0.19312 0.0
C848 C 0.41991 0.3516 0.19145 0.0
C849 C 0.42946 0.36572 0.1827 0.0
C850 C 0.44695 0.36188 0.17595 0.0
H851 H 0.45186 0.31794 0.18756 0.0
O852 O 0.45853 0.31469 0.12852 0.0
O853 O 0.47125 0.33689 0.14427 0.0
O854 O 0.48708 0.30205 0.15287 0.0
O855 O 0.48403 0.32058 0.17718 0.0
C856 C 0.42228 0.38343 0.18033 0.0
C857 C 0.43232 0.39671 0.17062 0.0
H858 H 0.45523 0.41833 0.15044 0.0
H859 H 0.4854 0.40863 0.13855 0.0
H860 H 0.42074 0.3233 0.19985 0.0
H861 H 0.40632 0.35388 0.19685 0.0
H862 H 0.40897 0.38696 0.18575 0.0
H863 H 0.42645 0.41013 0.1685 0.0
H864 H 0.14513 0.42852 0.31962 0.0
H865 H 0.14433 0.39976 0.33728 0.0
H866 H 0.12033 0.42859 0.38278 0.0
H867 H 0.12149 0.45711 0.36544 0.0
H868 H 0.16154 0.39481 0.37344 0.0
H869 H 0.08664 0.40055 0.39945 0.0
H870 H 0.05665 0.4102 0.38752 0.0
H871 H 0.07423 0.39842 0.3328 0.0
H872 H 0.10424 0.38842 0.34439 0.0
H873 H 0.1162 0.36476 0.46301 0.0
H874 H 0.11329 0.37824 0.43262 0.0
H875 H 0.15412 0.34082 0.41212 0.0
H876 H 0.15776 0.32813 0.44301 0.0
H877 H 0.10434 0.37038 0.40031 0.0
H878 H 0.17985 0.36131 0.37949 0.0
H879 H 0.21026 0.35725 0.39356 0.0
H880 H 0.1917 0.38442 0.44216 0.0
H881 H 0.16129 0.38881 0.42828 0.0
C882 C 0.13973 0.42857 0.3334 0.0
C883 C 0.1338 0.44493 0.34145 0.0
C884 C 0.13922 0.41223 0.3434 0.0
C885 C 0.13208 0.41208 0.36122 0.0
C886 C 0.12567 0.42839 0.36896 0.0
C887 C 0.12651 0.44467 0.35916 0.0
C888 C 0.13224 0.39537 0.37256 0.0
C889 C 0.14908 0.3892 0.37915 0.0
C890 C 0.11591 0.38812 0.37987 0.0
C891 C 0.09774 0.39379 0.37281 0.0
C892 C 0.08408 0.39988 0.38488 0.0
C893 C 0.06708 0.40545 0.37817 0.0
C894 C 0.06355 0.40495 0.35942 0.0
C895 C 0.077 0.39884 0.34732 0.0
C896 C 0.09402 0.39325 0.35396 0.0
C897 C 0.12423 0.3592 0.45187 0.0
C898 C 0.13712 0.34545 0.45514 0.0
C899 C 0.12258 0.36687 0.4345 0.0
C900 C 0.1337 0.36079 0.42005 0.0
C901 C 0.14568 0.34605 0.42309 0.0
C902 C 0.14764 0.33867 0.44063 0.0
C903 C 0.13372 0.37109 0.40249 0.0
C904 C 0.11688 0.3758 0.39455 0.0
C905 C 0.15007 0.37776 0.39448 0.0
C906 C 0.16824 0.37504 0.40299 0.0
C907 C 0.18228 0.36636 0.39319 0.0
C908 C 0.19951 0.36404 0.40112 0.0
C909 C 0.20287 0.37048 0.41878 0.0
C910 C 0.18904 0.37934 0.42852 0.0
C911 C 0.17181 0.38173 0.42065 0.0
H912 H 0.21622 0.36866 0.4249 0.0
H913 H 0.05038 0.40928 0.35425 0.0
H914 H 0.64489 0.17269 0.46515 0.0
H915 H 0.62959 0.17074 0.43564 0.0
H916 H 0.64764 0.11496 0.42973 0.0
H917 H 0.66296 0.11671 0.45943 0.0
H918 H 0.63781 0.16203 0.39949 0.0
H919 H 0.60998 0.09088 0.41536 0.0
H920 H 0.60525 0.07046 0.44181 0.0
H921 H 0.59854 0.11701 0.47693 0.0
H922 H 0.60294 0.13765 0.45065 0.0
H923 H 0.57164 0.14459 0.32825 0.0
H924 H 0.59821 0.14354 0.34853 0.0
H925 H 0.56206 0.13842 0.39501 0.0
H926 H 0.53628 0.13593 0.37442 0.0
H927 H 0.58619 0.11821 0.40162 0.0
H928 H 0.59287 0.18268 0.37837 0.0
H929 H 0.59778 0.20519 0.35344 0.0
H930 H 0.64494 0.17536 0.33552 0.0
H931 H 0.64032 0.15287 0.36025 0.0
C932 C 0.64594 0.16009 0.45745 0.0
C933 C 0.65491 0.14475 0.46481 0.0
C934 C 0.63729 0.15906 0.44049 0.0
C935 C 0.63731 0.14266 0.43061 0.0
C936 C 0.64737 0.12772 0.43723 0.0
C937 C 0.65613 0.12876 0.45421 0.0
C938 C 0.62476 0.14062 0.41483 0.0
C939 C 0.6265 0.15244 0.39986 0.0
C940 C 0.61012 0.12806 0.41528 0.0
C941 C 0.60703 0.11577 0.43109 0.0
C942 C 0.60743 0.09673 0.42872 0.0
C943 C 0.6048 0.08512 0.44368 0.0
C944 C 0.60166 0.09243 0.46105 0.0
C945 C 0.60103 0.11136 0.46348 0.0
C946 C 0.60359 0.12301 0.44856 0.0
C947 C 0.56951 0.14345 0.34285 0.0
C948 C 0.55175 0.14161 0.34993 0.0
C949 C 0.58472 0.14309 0.35453 0.0
C950 C 0.58241 0.14153 0.37359 0.0
C951 C 0.56453 0.13975 0.38048 0.0
C952 C 0.54957 0.13902 0.36875 0.0
C953 C 0.59822 0.14065 0.38658 0.0
C954 C 0.59738 0.12792 0.40101 0.0
C955 C 0.61346 0.15265 0.38576 0.0
C956 C 0.61605 0.16605 0.37088 0.0
C957 C 0.60413 0.18094 0.36895 0.0
C958 C 0.60689 0.19366 0.35493 0.0
C959 C 0.62154 0.1916 0.34286 0.0
C960 C 0.63356 0.1769 0.34483 0.0
C961 C 0.6309 0.16421 0.35885 0.0
H962 H 0.62363 0.20145 0.33202 0.0
H963 H 0.59968 0.08342 0.47261 0.0
H964 H 0.88174 0.6357 0.4616 0.0
H965 H 0.87935 0.62032 0.43208 0.0
H966 H 0.83287 0.65406 0.41831 0.0
H967 H 0.83468 0.66856 0.44849 0.0
H968 H 0.82402 0.6226 0.41132 0.0
H969 H 0.87607 0.65554 0.39421 0.0
H970 H 0.90675 0.66927 0.39634 0.0
H971 H 0.93086 0.61584 0.39884 0.0
H972 H 0.9003 0.60176 0.39701 0.0
H973 H 0.84182 0.56645 0.324 0.0
H974 H 0.83868 0.59428 0.34258 0.0
H975 H 0.85369 0.5638 0.39068 0.0
H976 H 0.85833 0.53653 0.37197 0.0
H977 H 0.87535 0.60054 0.37307 0.0
H978 H 0.80761 0.59089 0.41388 0.0
H979 H 0.77452 0.58634 0.40937 0.0
H980 H 0.77962 0.60287 0.3533 0.0
H981 H 0.81263 0.60786 0.3576 0.0
C982 C 0.87138 0.64014 0.45199 0.0
C983 C 0.85853 0.65338 0.45705 0.0
C984 C 0.87004 0.63143 0.43506 0.0
C985 C 0.85605 0.63612 0.42272 0.0
C986 C 0.84378 0.65014 0.42752 0.0
C987 C 0.84488 0.65854 0.44466 0.0
C988 C 0.85292 0.62484 0.40604 0.0
C989 C 0.83526 0.618 0.40284 0.0
C990 C 0.86737 0.61925 0.39443 0.0
C991 C 0.88584 0.62759 0.39556 0.0
C992 C 0.8879 0.64671 0.39534 0.0
C993 C 0.90527 0.65456 0.39648 0.0
C994 C 0.92074 0.64344 0.39775 0.0
C995 C 0.91886 0.62444 0.39785 0.0
C996 C 0.90151 0.61651 0.39673 0.0
C997 C 0.84395 0.56565 0.33863 0.0
C998 C 0.84951 0.54914 0.34672 0.0
C999 C 0.84199 0.58149 0.34923 0.0
C1000 C 0.84529 0.58094 0.36812 0.0
C1001 C 0.85049 0.56437 0.37623 0.0
C1002 C 0.85294 0.54873 0.36558 0.0
C1003 C 0.8467 0.59789 0.37906 0.0
C1004 C 0.86413 0.60555 0.38136 0.0
C1005 C 0.83189 0.60486 0.38928 0.0
C1006 C 0.81271 0.5993 0.38595 0.0
C1007 C 0.80171 0.59331 0.40052 0.0
C1008 C 0.78292 0.59086 0.39806 0.0
C1009 C 0.77494 0.59443 0.38109 0.0
C1010 C 0.78581 0.60012 0.36645 0.0
C1011 C 0.80461 0.60259 0.36885 0.0
H1012 H 0.76038 0.59261 0.37923 0.0
H1013 H 0.93418 0.64955 0.39863 0.0
H1014 H 0.36378 0.82858 0.46248 0.0
H1015 H 0.37774 0.83155 0.43249 0.0
H1016 H 0.35189 0.88403 0.42532 0.0
H1017 H 0.33788 0.88128 0.45566 0.0
H1018 H 0.36585 0.83619 0.39747 0.0
H1019 H 0.38487 0.91136 0.40288 0.0
H1020 H 0.38787 0.93582 0.42591 0.0
H1021 H 0.40159 0.89604 0.46681 0.0
H1022 H 0.39909 0.87141 0.44392 0.0
H1023 H 0.43137 0.85416 0.32368 0.0
H1024 H 0.40385 0.85603 0.3426 0.0
H1025 H 0.43752 0.86238 0.39064 0.0
H1026 H 0.46455 0.86333 0.37138 0.0
H1027 H 0.41209 0.88539 0.39224 0.0
H1028 H 0.39922 0.81161 0.38546 0.0
H1029 H 0.39318 0.78589 0.36438 0.0
H1030 H 0.3659 0.82229 0.32736 0.0
H1031 H 0.37117 0.848 0.34858 0.0
C1032 C 0.36083 0.8407 0.4545 0.0
C1033 C 0.34987 0.8548 0.46161 0.0
C1034 C 0.36874 0.8423 0.43726 0.0
C1035 C 0.36599 0.85806 0.42673 0.0
C1036 C 0.35429 0.8718 0.4333 0.0
C1037 C 0.34627 0.87018 0.45062 0.0
C1038 C 0.37687 0.86051 0.4098 0.0
C1039 C 0.3759 0.84703 0.39622 0.0
C1040 C 0.38962 0.87489 0.40791 0.0
C1041 C 0.39148 0.88955 0.42176 0.0
C1042 C 0.38855 0.90786 0.41679 0.0
C1043 C 0.39017 0.92175 0.42981 0.0
C1044 C 0.39476 0.91748 0.44785 0.0
C1045 C 0.39792 0.89932 0.45286 0.0
C1046 C 0.39642 0.8854 0.43986 0.0
C1047 C 0.43277 0.85565 0.33835 0.0
C1048 C 0.45015 0.85749 0.34627 0.0
C1049 C 0.417 0.85639 0.34924 0.0
C1050 C 0.41839 0.85858 0.36829 0.0
C1051 C 0.43588 0.86045 0.37605 0.0
C1052 C 0.45146 0.86049 0.36511 0.0
C1053 C 0.40207 0.86028 0.38043 0.0
C1054 C 0.40184 0.87471 0.39315 0.0
C1055 C 0.38819 0.84681 0.38149 0.0
C1056 C 0.38633 0.8318 0.36815 0.0
C1057 C 0.3922 0.81412 0.37267 0.0
C1058 C 0.38873 0.79953 0.36082 0.0
C1059 C 0.37948 0.80252 0.34438 0.0
C1060 C 0.37332 0.82003 0.33995 0.0
C1061 C 0.37646 0.83458 0.35193 0.0
H1062 H 0.37689 0.79122 0.33519 0.0
H1063 H 0.39595 0.92825 0.45792 0.0
H1064 H 0.13645 0.54448 0.63143 0.0
H1065 H 0.14043 0.5725 0.61401 0.0
H1066 H 0.14835 0.60236 0.66422 0.0
H1067 H 0.14697 0.57365 0.68143 0.0
H1068 H 0.11719 0.60113 0.61796 0.0
H1069 H 0.16482 0.62843 0.65919 0.0
H1070 H 0.19337 0.62807 0.67709 0.0
H1071 H 0.22261 0.60788 0.63039 0.0
H1072 H 0.19397 0.60722 0.61259 0.0
H1073 H 0.1257 0.67157 0.55152 0.0
H1074 H 0.12438 0.65961 0.58278 0.0
H1075 H 0.17169 0.62614 0.57196 0.0
H1076 H 0.17342 0.63822 0.54114 0.0
H1077 H 0.17255 0.63837 0.60633 0.0
H1078 H 0.12668 0.61021 0.56555 0.0
H1079 H 0.09961 0.61219 0.54551 0.0
H1080 H 0.06872 0.63617 0.58931 0.0
H1081 H 0.09563 0.63446 0.60947 0.0
C1082 C 0.14032 0.55681 0.63862 0.0
C1083 C 0.1427 0.55668 0.6576 0.0
C1084 C 0.14221 0.57295 0.62871 0.0
C1085 C 0.14542 0.58964 0.63764 0.0
C1086 C 0.14706 0.5897 0.65678 0.0
C1087 C 0.14593 0.57329 0.66667 0.0
C1088 C 0.14482 0.60671 0.62658 0.0
C1089 C 0.12919 0.60958 0.61577 0.0
C1090 C 0.1603 0.618 0.62375 0.0
C1091 C 0.17707 0.61671 0.63494 0.0
C1092 C 0.17717 0.62311 0.65303 0.0
C1093 C 0.19341 0.62327 0.6631 0.0
C1094 C 0.20976 0.61767 0.65499 0.0
C1095 C 0.2099 0.61198 0.63676 0.0
C1096 C 0.19363 0.61144 0.62677 0.0
C1097 C 0.13603 0.66193 0.55592 0.0
C1098 C 0.14951 0.65567 0.54368 0.0
C1099 C 0.13523 0.65509 0.57379 0.0
C1100 C 0.14778 0.64178 0.57964 0.0
C1101 C 0.16186 0.6364 0.5678 0.0
C1102 C 0.16273 0.64326 0.55006 0.0
C1103 C 0.14542 0.63179 0.59714 0.0
C1104 C 0.16037 0.63034 0.60904 0.0
C1105 C 0.12938 0.62173 0.60098 0.0
C1106 C 0.11316 0.62238 0.58892 0.0
C1107 C 0.1141 0.61595 0.57085 0.0
C1108 C 0.09879 0.61702 0.55947 0.0
C1109 C 0.08244 0.62434 0.56609 0.0
C1110 C 0.08135 0.63052 0.58414 0.0
C1111 C 0.09662 0.6295 0.59555 0.0
H1112 H 0.07061 0.62518 0.55725 0.0
H1113 H 0.22234 0.61794 0.66274 0.0
H1114 H 0.34962 0.1734 0.53993 0.0
H1115 H 0.36634 0.17174 0.5687 0.0
H1116 H 0.35726 0.11356 0.57087 0.0
H1117 H 0.34005 0.11518 0.54208 0.0
H1118 H 0.35871 0.13043 0.60638 0.0
H1119 H 0.39494 0.12582 0.55146 0.0
H1120 H 0.4053 0.13507 0.52081 0.0
H1121 H 0.42069 0.18778 0.54157 0.0
H1122 H 0.41029 0.1788 0.57238 0.0
H1123 H 0.4637 0.12778 0.63197 0.0
H1124 H 0.43839 0.12595 0.61047 0.0
H1125 H 0.40326 0.15294 0.64955 0.0
H1126 H 0.42857 0.15347 0.67167 0.0
H1127 H 0.42243 0.14943 0.59356 0.0
H1128 H 0.35814 0.14486 0.64003 0.0
H1129 H 0.34914 0.13168 0.66974 0.0
H1130 H 0.39187 0.09172 0.6653 0.0
H1131 H 0.40097 0.1045 0.63548 0.0
C1132 C 0.35078 0.1603 0.54674 0.0
C1133 C 0.3438 0.14436 0.53862 0.0
C1134 C 0.36027 0.1594 0.56322 0.0
C1135 C 0.36328 0.1425 0.57175 0.0
C1136 C 0.35505 0.12674 0.5645 0.0
C1137 C 0.34529 0.12767 0.54804 0.0
C1138 C 0.37733 0.14108 0.58626 0.0
C1139 C 0.37265 0.13473 0.60374 0.0
C1140 C 0.39559 0.14619 0.58264 0.0
C1141 C 0.40174 0.15169 0.56415 0.0
C1142 C 0.40042 0.13942 0.54944 0.0
C1143 C 0.40632 0.14462 0.53204 0.0
C1144 C 0.41359 0.16205 0.5292 0.0
C1145 C 0.41503 0.17429 0.54378 0.0
C1146 C 0.40918 0.16915 0.56122 0.0
C1147 C 0.45052 0.13321 0.63597 0.0
C1148 C 0.44806 0.14109 0.65324 0.0
C1149 C 0.43602 0.13217 0.62369 0.0
C1150 C 0.41877 0.13925 0.62828 0.0
C1151 C 0.41626 0.147 0.64573 0.0
C1152 C 0.43074 0.14753 0.65829 0.0
C1153 C 0.404 0.13944 0.61424 0.0
C1154 C 0.40853 0.14549 0.59662 0.0
C1155 C 0.38581 0.13367 0.61778 0.0
C1156 C 0.38035 0.12577 0.63562 0.0
C1157 C 0.36557 0.13322 0.64537 0.0
C1158 C 0.36046 0.12583 0.66224 0.0
C1159 C 0.36997 0.11091 0.66943 0.0
C1160 C 0.38456 0.10332 0.65975 0.0
C1161 C 0.38972 0.11065 0.64288 0.0
H1162 H 0.36599 0.10522 0.68249 0.0
H1163 H 0.41817 0.16606 0.51572 0.0
H1164 H 0.85608 0.46109 0.62402 0.0
H1165 H 0.85137 0.43338 0.60594 0.0
H1166 H 0.83916 0.40336 0.65512 0.0
H1167 H 0.84235 0.43156 0.67309 0.0
H1168 H 0.87462 0.39788 0.62223 0.0
H1169 H 0.81353 0.38796 0.64249 0.0
H1170 H 0.78075 0.39158 0.64921 0.0
H1171 H 0.7708 0.40716 0.59351 0.0
H1172 H 0.80366 0.40413 0.58663 0.0
H1173 H 0.83127 0.32723 0.55061 0.0
H1174 H 0.83064 0.34224 0.58063 0.0
H1175 H 0.87543 0.37692 0.56384 0.0
H1176 H 0.87685 0.36093 0.53466 0.0
H1177 H 0.82148 0.37308 0.58839 0.0
H1178 H 0.89787 0.39695 0.59668 0.0
H1179 H 0.92872 0.38388 0.59307 0.0
H1180 H 0.90674 0.32973 0.59823 0.0
H1181 H 0.8758 0.34245 0.60214 0.0
C1182 C 0.8513 0.44885 0.63082 0.0
C1183 C 0.84864 0.44867 0.64979 0.0
C1184 C 0.8488 0.43297 0.62053 0.0
C1185 C 0.84429 0.41642 0.6291 0.0
C1186 C 0.84183 0.41611 0.64812 0.0
C1187 C 0.84386 0.43216 0.65838 0.0
C1188 C 0.84553 0.39932 0.61837 0.0
C1189 C 0.86302 0.39228 0.61489 0.0
C1190 C 0.83028 0.39153 0.60947 0.0
C1191 C 0.81118 0.39632 0.61419 0.0
C1192 C 0.80449 0.39281 0.63185 0.0
C1193 C 0.78583 0.39448 0.63562 0.0
C1194 C 0.77367 0.39948 0.62177 0.0
C1195 C 0.78021 0.40319 0.60421 0.0
C1196 C 0.79887 0.40162 0.60041 0.0
C1197 C 0.84134 0.33763 0.55374 0.0
C1198 C 0.85429 0.34282 0.54064 0.0
C1199 C 0.84092 0.3463 0.57079 0.0
C1200 C 0.85311 0.36067 0.57474 0.0
C1201 C 0.86627 0.36552 0.56158 0.0
C1202 C 0.86702 0.35649 0.54481 0.0
C1203 C 0.85077 0.37206 0.59148 0.0
C1204 C 0.83315 0.37826 0.59592 0.0
C1205 C 0.86581 0.37841 0.6019 0.0
C1206 C 0.88446 0.37068 0.59963 0.0
C1207 C 0.89962 0.38226 0.59717 0.0
C1208 C 0.91712 0.3749 0.59503 0.0
C1209 C 0.91968 0.35599 0.59542 0.0
C1210 C 0.90473 0.34438 0.5979 0.0
C1211 C 0.8872 0.35166 0.60005 0.0
H1212 H 0.93325 0.35032 0.59384 0.0
H1213 H 0.75921 0.40064 0.62468 0.0
H1214 H 0.57178 0.84917 0.6704 0.0
H1215 H 0.59604 0.84677 0.64726 0.0
H1216 H 0.56254 0.87734 0.6094 0.0
H1217 H 0.53805 0.8783 0.63189 0.0
H1218 H 0.57534 0.85279 0.59176 0.0
H1219 H 0.60317 0.89453 0.63321 0.0
H1220 H 0.61465 0.90595 0.66277 0.0
H1221 H 0.65259 0.86128 0.66563 0.0
H1222 H 0.64117 0.84947 0.63617 0.0
H1223 H 0.66062 0.88024 0.53991 0.0
H1224 H 0.6439 0.88205 0.56887 0.0
H1225 H 0.62734 0.82582 0.5629 0.0
H1226 H 0.64362 0.82398 0.53388 0.0
H1227 H 0.64116 0.86443 0.60262 0.0
H1228 H 0.58282 0.82342 0.56894 0.0
H1229 H 0.57066 0.81705 0.53811 0.0
H1230 H 0.59219 0.86816 0.51884 0.0
H1231 H 0.60432 0.87481 0.5495 0.0
C1232 C 0.56973 0.85525 0.65706 0.0
C1233 C 0.55302 0.86351 0.65264 0.0
C1234 C 0.58364 0.85409 0.64392 0.0
C1235 C 0.58129 0.86199 0.6265 0.0
C1236 C 0.56474 0.87091 0.62255 0.0
C1237 C 0.55073 0.8715 0.63541 0.0
C1238 C 0.59546 0.86029 0.61194 0.0
C1239 C 0.58969 0.85512 0.59438 0.0
C1240 C 0.61428 0.86395 0.6149 0.0
C1241 C 0.62119 0.87102 0.63259 0.0
C1242 C 0.61387 0.88707 0.64021 0.0
C1243 C 0.62038 0.89362 0.65693 0.0
C1244 C 0.63431 0.88431 0.6661 0.0
C1245 C 0.64179 0.86846 0.65853 0.0
C1246 C 0.63531 0.86184 0.64181 0.0
C1247 C 0.65377 0.86813 0.54497 0.0
C1248 C 0.65315 0.85206 0.53442 0.0
C1249 C 0.64429 0.86918 0.56158 0.0
C1250 C 0.63417 0.85415 0.56787 0.0
C1251 C 0.63488 0.83764 0.55815 0.0
C1252 C 0.64414 0.83664 0.54152 0.0
C1253 C 0.62082 0.85636 0.58297 0.0
C1254 C 0.62676 0.86171 0.6004 0.0
C1255 C 0.60199 0.85342 0.57989 0.0
C1256 C 0.59461 0.84951 0.56144 0.0
C1257 C 0.5849 0.83328 0.55811 0.0
C1258 C 0.57805 0.82961 0.54065 0.0
C1259 C 0.58074 0.84213 0.52647 0.0
C1260 C 0.59021 0.85838 0.52975 0.0
C1261 C 0.5971 0.8621 0.54716 0.0
H1262 H 0.57543 0.83926 0.51297 0.0
H1263 H 0.63933 0.88941 0.67904 0.0
H1264 H 0.34796 0.10752 0.45115 0.0
H1265 H 0.36692 0.10215 0.42441 0.0
H1266 H 0.35419 0.15648 0.40489 0.0
H1267 H 0.33165 0.15943 0.42925 0.0
H1268 H 0.36044 0.14109 0.37818 0.0
H1269 H 0.39962 0.13593 0.43395 0.0
H1270 H 0.40982 0.12144 0.46284 0.0
H1271 H 0.4136 0.06958 0.43588 0.0
H1272 H 0.40355 0.08369 0.40694 0.0
H1273 H 0.44893 0.16671 0.34753 0.0
H1274 H 0.41901 0.16111 0.36119 0.0
H1275 H 0.42607 0.10315 0.3532 0.0
H1276 H 0.45602 0.10869 0.33923 0.0
H1277 H 0.42132 0.11372 0.38943 0.0
H1278 H 0.39146 0.12239 0.3326 0.0
H1279 H 0.38432 0.13771 0.30347 0.0
H1280 H 0.36534 0.18497 0.3326 0.0
H1281 H 0.37262 0.17005 0.36193 0.0
C1282 C 0.34925 0.11825 0.44103 0.0
C1283 C 0.33959 0.13468 0.44301 0.0
C1284 C 0.36048 0.11535 0.42587 0.0
C1285 C 0.36347 0.1294 0.41307 0.0
C1286 C 0.35282 0.14543 0.41462 0.0
C1287 C 0.34038 0.14757 0.42898 0.0
C1288 C 0.37754 0.12768 0.39823 0.0
C1289 C 0.37383 0.1354 0.38095 0.0
C1290 C 0.39486 0.11922 0.40097 0.0
C1291 C 0.4006 0.11082 0.41845 0.0
C1292 C 0.40253 0.12144 0.4343 0.0
C1293 C 0.40829 0.11332 0.45062 0.0
C1294 C 0.4122 0.09464 0.45121 0.0
C1295 C 0.41049 0.08403 0.43544 0.0
C1296 C 0.40481 0.09208 0.41908 0.0
C1297 C 0.44387 0.15281 0.34817 0.0
C1298 C 0.45485 0.13812 0.34245 0.0
C1299 C 0.42672 0.14964 0.35588 0.0
C1300 C 0.42033 0.13172 0.35818 0.0
C1301 C 0.43074 0.11709 0.35142 0.0
C1302 C 0.44781 0.12028 0.34341 0.0
C1303 C 0.4045 0.12835 0.37034 0.0
C1304 C 0.40787 0.11946 0.38692 0.0
C1305 C 0.38714 0.13609 0.36711 0.0
C1306 C 0.38269 0.14511 0.34949 0.0
C1307 C 0.3859 0.1361 0.33281 0.0
C1308 C 0.3818 0.14471 0.31625 0.0
C1309 C 0.3744 0.16231 0.31618 0.0
C1310 C 0.37106 0.17133 0.33268 0.0
C1311 C 0.37515 0.16279 0.34927 0.0
H1312 H 0.37124 0.16895 0.30335 0.0
H1313 H 0.41664 0.08841 0.46387 0.0
H1314 H 0.85341 0.32049 0.42635 0.0
H1315 H 0.85363 0.34058 0.39928 0.0
H1316 H 0.87156 0.3855 0.4331 0.0
H1317 H 0.87084 0.36574 0.45985 0.0
H1318 H 0.84558 0.39646 0.41288 0.0
H1319 H 0.90033 0.36184 0.40292 0.0
H1320 H 0.91871 0.33396 0.39839 0.0
H1321 H 0.88797 0.32119 0.35006 0.0
H1322 H 0.86923 0.34889 0.35445 0.0
H1323 H 0.88819 0.45842 0.35294 0.0
H1324 H 0.88952 0.42881 0.36859 0.0
H1325 H 0.83933 0.41257 0.34239 0.0
H1326 H 0.83742 0.44258 0.32754 0.0
H1327 H 0.87965 0.38511 0.3555 0.0
H1328 H 0.8215 0.41943 0.37003 0.0
H1329 H 0.80504 0.44811 0.37659 0.0
H1330 H 0.84343 0.46066 0.41914 0.0
H1331 H 0.86068 0.43256 0.4121 0.0
C1332 C 0.85729 0.3347 0.42785 0.0
C1333 C 0.86157 0.34181 0.44514 0.0
C1334 C 0.85756 0.3461 0.41243 0.0
C1335 C 0.86266 0.36457 0.41413 0.0
C1336 C 0.86743 0.37138 0.43142 0.0
C1337 C 0.86693 0.36012 0.44672 0.0
C1338 C 0.8624 0.37728 0.39829 0.0
C1339 C 0.85277 0.3937 0.40029 0.0
C1340 C 0.872 0.37394 0.38179 0.0
C1341 C 0.88324 0.35731 0.37914 0.0
C1342 C 0.89738 0.353 0.39142 0.0
C1343 C 0.90789 0.33725 0.38886 0.0
C1344 C 0.90447 0.32578 0.37398 0.0
C1345 C 0.89057 0.33006 0.3616 0.0
C1346 C 0.88002 0.34579 0.36411 0.0
C1347 C 0.87789 0.44821 0.34993 0.0
C1348 C 0.86273 0.45263 0.33908 0.0
C1349 C 0.87864 0.43135 0.35888 0.0
C1350 C 0.86442 0.41865 0.35674 0.0
C1351 C 0.85037 0.42226 0.34424 0.0
C1352 C 0.84932 0.43932 0.33572 0.0
C1353 C 0.86237 0.4038 0.37024 0.0
C1354 C 0.8718 0.38727 0.36789 0.0
C1355 C 0.85255 0.40691 0.38655 0.0
C1356 C 0.84267 0.42421 0.39015 0.0
C1357 C 0.82673 0.42858 0.3804 0.0
C1358 C 0.81723 0.44471 0.38424 0.0
C1359 C 0.8233 0.45632 0.39813 0.0
C1360 C 0.83889 0.45181 0.4082 0.0
C1361 C 0.84861 0.43587 0.4042 0.0
H1362 H 0.81588 0.46875 0.40117 0.0
H1363 H 0.91262 0.31359 0.37201 0.0
H1364 H 0.5527 0.87885 0.32689 0.0
H1365 H 0.58427 0.88214 0.33757 0.0
H1366 H 0.5789 0.83229 0.36862 0.0
H1367 H 0.54787 0.82865 0.35774 0.0
H1368 H 0.59471 0.88836 0.37005 0.0
H1369 H 0.61823 0.811 0.37627 0.0
H1370 H 0.61729 0.78339 0.35714 0.0
H1371 H 0.60992 0.81641 0.30922 0.0
H1372 H 0.61109 0.8443 0.32802 0.0
H1373 H 0.63689 0.87215 0.45141 0.0
H1374 H 0.61911 0.87293 0.42339 0.0
H1375 H 0.66626 0.8549 0.39278 0.0
H1376 H 0.68396 0.8532 0.42143 0.0
H1377 H 0.63822 0.83751 0.38091 0.0
H1378 H 0.64955 0.89985 0.3889 0.0
H1379 H 0.65301 0.92914 0.40518 0.0
H1380 H 0.5958 0.92905 0.41819 0.0
H1381 H 0.59202 0.89962 0.40225 0.0
C1382 C 0.55841 0.86837 0.33565 0.0
C1383 C 0.54765 0.85356 0.34155 0.0
C1384 C 0.57646 0.87029 0.34176 0.0
C1385 C 0.58408 0.85739 0.35379 0.0
C1386 C 0.57357 0.84223 0.35903 0.0
C1387 C 0.55566 0.84028 0.35292 0.0
C1388 C 0.60193 0.86072 0.36292 0.0
C1389 C 0.60439 0.87734 0.37216 0.0
C1390 C 0.6151 0.84667 0.36506 0.0
C1391 C 0.6146 0.82983 0.35366 0.0
C1392 C 0.6165 0.81245 0.36167 0.0
C1393 C 0.61591 0.79671 0.35086 0.0
C1394 C 0.61349 0.79813 0.33198 0.0
C1395 C 0.61172 0.81531 0.32386 0.0
C1396 C 0.61231 0.8311 0.3346 0.0
C1397 C 0.64341 0.86818 0.43872 0.0
C1398 C 0.66152 0.862 0.43855 0.0
C1399 C 0.63335 0.86897 0.42263 0.0
C1400 C 0.6414 0.8643 0.40584 0.0
C1401 C 0.65976 0.8586 0.40555 0.0
C1402 C 0.66984 0.85764 0.42183 0.0
C1403 C 0.63003 0.86459 0.38901 0.0
C1404 C 0.62885 0.84869 0.37833 0.0
C1405 C 0.61846 0.87957 0.38497 0.0
C1406 C 0.62051 0.89749 0.39434 0.0
C1407 C 0.63771 0.90604 0.39528 0.0
C1408 C 0.63973 0.92267 0.40446 0.0
C1409 C 0.62463 0.93095 0.41271 0.0
C1410 C 0.60747 0.92263 0.41176 0.0
C1411 C 0.60538 0.90599 0.40261 0.0
H1412 H 0.62623 0.94381 0.41983 0.0
H1413 H 0.61303 0.78593 0.32364 0.0
H1414 H 0.14694 0.67712 0.4293 0.0
H1415 H 0.14622 0.6581 0.4015 0.0
H1416 H 0.127 0.61244 0.43358 0.0
H1417 H 0.12717 0.63149 0.46091 0.0
H1418 H 0.16441 0.62875 0.39232 0.0
H1419 H 0.09994 0.58522 0.41113 0.0
H1420 H 0.06992 0.58995 0.42567 0.0
H1421 H 0.07195 0.64699 0.41208 0.0
H1422 H 0.10185 0.64257 0.39719 0.0
H1423 H 0.16867 0.53803 0.36464 0.0
H1424 H 0.16651 0.56821 0.37823 0.0
H1425 H 0.11925 0.58006 0.34504 0.0
H1426 H 0.12106 0.54952 0.33153 0.0
H1427 H 0.11212 0.5878 0.37871 0.0
H1428 H 0.15944 0.60354 0.33896 0.0
H1429 H 0.18838 0.60097 0.32193 0.0
H1430 H 0.21857 0.60367 0.37216 0.0
H1431 H 0.18985 0.60597 0.38952 0.0
C1432 C 0.14251 0.66303 0.43023 0.0
C1433 C 0.13766 0.65549 0.44718 0.0
C1434 C 0.1421 0.6522 0.41444 0.0
C1435 C 0.1364 0.63388 0.4154 0.0
C1436 C 0.13112 0.62661 0.43236 0.0
C1437 C 0.13149 0.63739 0.44803 0.0
C1438 C 0.1366 0.62188 0.39904 0.0
C1439 C 0.15295 0.6199 0.3892 0.0
C1440 C 0.12137 0.61087 0.39442 0.0
C1441 C 0.1032 0.61356 0.40309 0.0
C1442 C 0.09393 0.59875 0.41111 0.0
C1443 C 0.07694 0.60138 0.41945 0.0
C1444 C 0.06905 0.61876 0.41982 0.0
C1445 C 0.0781 0.63354 0.41181 0.0
C1446 C 0.09508 0.63098 0.40344 0.0
C1447 C 0.15795 0.54709 0.35995 0.0
C1448 C 0.14495 0.54122 0.34705 0.0
C1449 C 0.15684 0.56448 0.36766 0.0
C1450 C 0.14282 0.57652 0.36256 0.0
C1451 C 0.13022 0.57102 0.34916 0.0
C1452 C 0.1313 0.55355 0.34142 0.0
C1453 C 0.14031 0.59387 0.37279 0.0
C1454 C 0.1235 0.59688 0.38149 0.0
C1455 C 0.15496 0.60614 0.37594 0.0
C1456 C 0.1724 0.6048 0.3656 0.0
C1457 C 0.17223 0.60344 0.34641 0.0
C1458 C 0.18862 0.60205 0.33668 0.0
C1459 C 0.2053 0.60211 0.34596 0.0
C1460 C 0.20563 0.60361 0.36499 0.0
C1461 C 0.18929 0.60498 0.37478 0.0
H1462 H 0.21797 0.60104 0.3384 0.0
H1463 H 0.05591 0.62078 0.42631 0.0
H1464 H 0.35269 0.89174 0.54952 0.0
H1465 H 0.37066 0.89792 0.57679 0.0
H1466 H 0.35924 0.84326 0.59624 0.0
H1467 H 0.33752 0.83944 0.57131 0.0
H1468 H 0.36407 0.85893 0.623 0.0
H1469 H 0.40466 0.86599 0.56806 0.0
H1470 H 0.41482 0.88145 0.53967 0.0
H1471 H 0.41617 0.93283 0.56775 0.0
H1472 H 0.40605 0.91777 0.59618 0.0
H1473 H 0.45203 0.8353 0.65618 0.0
H1474 H 0.42238 0.84032 0.64175 0.0
H1475 H 0.42816 0.89841 0.64978 0.0
H1476 H 0.45786 0.89346 0.66449 0.0
H1477 H 0.42445 0.88803 0.61358 0.0
H1478 H 0.39327 0.87831 0.66947 0.0
H1479 H 0.38568 0.86273 0.69836 0.0
H1480 H 0.36874 0.81509 0.6686 0.0
H1481 H 0.37648 0.83027 0.63952 0.0
C1482 C 0.35408 0.88112 0.55975 0.0
C1483 C 0.34503 0.86436 0.55761 0.0
C1484 C 0.36474 0.88448 0.57522 0.0
C1485 C 0.36783 0.87061 0.58819 0.0
C1486 C 0.35779 0.85423 0.58642 0.0
C1487 C 0.34584 0.85158 0.57174 0.0
C1488 C 0.38136 0.87286 0.60347 0.0
C1489 C 0.37737 0.86499 0.62062 0.0
C1490 C 0.39848 0.88187 0.60128 0.0
C1491 C 0.40437 0.89079 0.58409 0.0
C1492 C 0.40705 0.88057 0.56808 0.0
C1493 C 0.41279 0.88924 0.55203 0.0
C1494 C 0.41601 0.90806 0.5519 0.0
C1495 C 0.4136 0.91826 0.56784 0.0
C1496 C 0.40789 0.90968 0.58391 0.0
C1497 C 0.44672 0.8491 0.6554 0.0
C1498 C 0.4573 0.864 0.66133 0.0
C1499 C 0.42973 0.85194 0.64724 0.0
C1500 C 0.42309 0.86973 0.6447 0.0
C1501 C 0.43304 0.88457 0.65171 0.0
C1502 C 0.44995 0.88171 0.66016 0.0
C1503 C 0.40753 0.87279 0.63211 0.0
C1504 C 0.41111 0.88188 0.61568 0.0
C1505 C 0.39029 0.86461 0.63483 0.0
C1506 C 0.38555 0.85542 0.6523 0.0
C1507 C 0.38806 0.86446 0.66908 0.0
C1508 C 0.3837 0.85571 0.6855 0.0
C1509 C 0.37675 0.83792 0.68532 0.0
C1510 C 0.37412 0.82887 0.66872 0.0
C1511 C 0.37846 0.83755 0.65226 0.0
H1512 H 0.37339 0.83117 0.69804 0.0
H1513 H 0.42045 0.91471 0.53945 0.0
H1514 H 0.1203 0.46853 0.63129 0.0
H1515 H 0.12004 0.43842 0.61689 0.0
H1516 H 0.15298 0.41704 0.66096 0.0
H1517 H 0.15354 0.44752 0.67513 0.0
H1518 H 0.16798 0.40867 0.63051 0.0
H1519 H 0.10872 0.40097 0.65315 0.0
H1520 H 0.07673 0.40786 0.6611 0.0
H1521 H 0.06344 0.41346 0.60424 0.0
H1522 H 0.09543 0.4069 0.59591 0.0
H1523 H 0.1531 0.3262 0.56918 0.0
H1524 H 0.15348 0.34423 0.59747 0.0
H1525 H 0.14046 0.39273 0.56667 0.0
H1526 H 0.13828 0.37445 0.53885 0.0
H1527 H 0.11592 0.37943 0.59855 0.0
H1528 H 0.188 0.40963 0.59885 0.0
H1529 H 0.22062 0.40126 0.59707 0.0
H1530 H 0.20792 0.34687 0.61504 0.0
H1531 H 0.17538 0.35516 0.61758 0.0
C1532 C 0.12699 0.45722 0.63813 0.0
C1533 C 0.13675 0.4601 0.65433 0.0
C1534 C 0.12679 0.44 0.62997 0.0
C1535 C 0.13632 0.42534 0.63793 0.0
C1536 C 0.14544 0.42809 0.65462 0.0
C1537 C 0.14569 0.44541 0.66276 0.0
C1538 C 0.13868 0.40809 0.62748 0.0
C1539 C 0.15653 0.40205 0.62382 0.0
C1540 C 0.12378 0.39911 0.61904 0.0
C1541 C 0.10454 0.40346 0.62391 0.0
C1542 C 0.09903 0.40382 0.64233 0.0
C1543 C 0.08088 0.40764 0.64691 0.0
C1544 C 0.06806 0.41103 0.63318 0.0
C1545 C 0.07339 0.41076 0.61485 0.0
C1546 C 0.09153 0.40696 0.61019 0.0
C1547 C 0.15085 0.34081 0.56846 0.0
C1548 C 0.14654 0.34914 0.5517 0.0
C1549 C 0.15129 0.35113 0.58459 0.0
C1550 C 0.14775 0.36998 0.58409 0.0
C1551 C 0.14378 0.37831 0.56729 0.0
C1552 C 0.14281 0.36792 0.55133 0.0
C1553 C 0.14519 0.38075 0.60103 0.0
C1554 C 0.12726 0.38574 0.60572 0.0
C1555 C 0.15996 0.38834 0.61085 0.0
C1556 C 0.17916 0.3828 0.60771 0.0
C1557 C 0.19216 0.39582 0.60221 0.0
C1558 C 0.21067 0.39117 0.6013 0.0
C1559 C 0.21634 0.37353 0.6059 0.0
C1560 C 0.2035 0.36049 0.61134 0.0
C1561 C 0.185 0.36514 0.61242 0.0
H1562 H 0.23068 0.36995 0.60519 0.0
H1563 H 0.05399 0.41383 0.63676 0.0
H1564 H 0.54991 0.12573 0.67467 0.0
H1565 H 0.58117 0.12231 0.66324 0.0
H1566 H 0.57393 0.16993 0.62922 0.0
H1567 H 0.54315 0.17373 0.64082 0.0
H1568 H 0.59042 0.11426 0.63059 0.0
H1569 H 0.61292 0.19092 0.61884 0.0
H1570 H 0.6115 0.21996 0.63573 0.0
H1571 H 0.6054 0.19073 0.68622 0.0
H1572 H 0.6071 0.16145 0.6697 0.0
H1573 H 0.63369 0.12636 0.54833 0.0
H1574 H 0.61528 0.12722 0.57602 0.0
H1575 H 0.66231 0.14504 0.60689 0.0
H1576 H 0.68074 0.14475 0.57867 0.0
H1577 H 0.63386 0.16438 0.61656 0.0
H1578 H 0.64502 0.10143 0.61245 0.0
H1579 H 0.64825 0.07114 0.59807 0.0
H1580 H 0.5911 0.07098 0.5848 0.0
H1581 H 0.58756 0.1014 0.59882 0.0
C1582 C 0.55514 0.13573 0.66509 0.0
C1583 C 0.54391 0.14993 0.65858 0.0
C1584 C 0.57301 0.13373 0.65854 0.0
C1585 C 0.58001 0.14593 0.64545 0.0
C1586 C 0.56908 0.16055 0.63959 0.0
C1587 C 0.55132 0.1626 0.64615 0.0
C1588 C 0.59765 0.14227 0.63604 0.0
C1589 C 0.60006 0.12515 0.62776 0.0
C1590 C 0.61068 0.15625 0.63288 0.0
C1591 C 0.60999 0.1739 0.64294 0.0
C1592 C 0.61139 0.19062 0.63354 0.0
C1593 C 0.61051 0.20716 0.64307 0.0
C1594 C 0.60831 0.2072 0.66203 0.0
C1595 C 0.60704 0.19069 0.67152 0.0
C1596 C 0.60794 0.17411 0.66207 0.0
C1597 C 0.64005 0.13059 0.56101 0.0
C1598 C 0.65839 0.13608 0.56138 0.0
C1599 C 0.62962 0.1308 0.5769 0.0
C1600 C 0.63744 0.13597 0.59364 0.0
C1601 C 0.65599 0.141 0.59414 0.0
C1602 C 0.66648 0.14083 0.5781 0.0
C1603 C 0.62574 0.13683 0.61021 0.0
C1604 C 0.62448 0.15339 0.61981 0.0
C1605 C 0.61408 0.12216 0.61505 0.0
C1606 C 0.61604 0.10375 0.60669 0.0
C1607 C 0.63315 0.09498 0.60639 0.0
C1608 C 0.63504 0.07778 0.59829 0.0
C1609 C 0.61989 0.06914 0.59052 0.0
C1610 C 0.60282 0.07768 0.59085 0.0
C1611 C 0.60086 0.09489 0.5989 0.0
H1612 H 0.62138 0.05583 0.58425 0.0
H1613 H 0.6076 0.22002 0.66937 0.0
H1614 H 0.83404 0.55595 0.66899 0.0
H1615 H 0.83712 0.58663 0.65586 0.0
H1616 H 0.88614 0.56941 0.62777 0.0
H1617 H 0.88383 0.53942 0.64219 0.0
H1618 H 0.88982 0.6026 0.63308 0.0
H1619 H 0.84025 0.56726 0.60885 0.0
H1620 H 0.81153 0.54962 0.60922 0.0
H1621 H 0.78273 0.5964 0.62987 0.0
H1622 H 0.81136 0.61425 0.62986 0.0
H1623 H 0.87668 0.63308 0.54244 0.0
H1624 H 0.87641 0.61588 0.57112 0.0
H1625 H 0.85039 0.66124 0.5983 0.0
H1626 H 0.85113 0.67881 0.56949 0.0
H1627 H 0.83382 0.62183 0.60018 0.0
H1628 H 0.88694 0.6573 0.61319 0.0
H1629 H 0.91666 0.67148 0.60608 0.0
H1630 H 0.94023 0.61846 0.59735 0.0
H1631 H 0.91057 0.60396 0.60413 0.0
C1632 C 0.8458 0.55907 0.66054 0.0
C1633 C 0.85875 0.54552 0.65659 0.0
C1634 C 0.84746 0.57648 0.65286 0.0
C1635 C 0.86153 0.58024 0.64029 0.0
C1636 C 0.87512 0.56696 0.63735 0.0
C1637 C 0.87383 0.5498 0.64559 0.0
C1638 C 0.86118 0.59703 0.62876 0.0
C1639 C 0.87756 0.60665 0.62581 0.0
C1640 C 0.84516 0.6027 0.61939 0.0
C1641 C 0.82798 0.59197 0.61968 0.0
C1642 C 0.82782 0.57372 0.61365 0.0
C1643 C 0.81156 0.5637 0.61376 0.0
C1644 C 0.79533 0.57186 0.61965 0.0
C1645 C 0.79532 0.59007 0.62539 0.0
C1646 C 0.81156 0.60014 0.62535 0.0
C1647 C 0.87088 0.63935 0.55455 0.0
C1648 C 0.8635 0.65701 0.55381 0.0
C1649 C 0.8709 0.62962 0.5709 0.0
C1650 C 0.86353 0.6374 0.58678 0.0
C1651 C 0.85624 0.65512 0.58616 0.0
C1652 C 0.85659 0.66506 0.56979 0.0
C1653 C 0.86259 0.6262 0.60353 0.0
C1654 C 0.84595 0.61776 0.60761 0.0
C1655 C 0.87855 0.6209 0.61298 0.0
C1656 C 0.89648 0.62955 0.60909 0.0
C1657 C 0.89842 0.64867 0.60962 0.0
C1658 C 0.91527 0.65676 0.60567 0.0
C1659 C 0.93032 0.64588 0.60125 0.0
C1660 C 0.92856 0.62688 0.60079 0.0
C1661 C 0.91174 0.61871 0.60472 0.0
H1662 H 0.94335 0.65218 0.59819 0.0
H1663 H 0.78275 0.56408 0.61971 0.0
H1664 H 0.32251 0.44076 0.16211 0.0
H1665 H 0.33458 0.40947 0.15973 0.0
H1666 H 0.37151 0.42729 0.11722 0.0
H1667 H 0.35863 0.45798 0.11889 0.0
H1668 H 0.36286 0.39505 0.10974 0.0
H1669 H 0.38293 0.42455 0.16551 0.0
H1670 H 0.37932 0.43939 0.19557 0.0
H1671 H 0.35143 0.39195 0.21596 0.0
H1672 H 0.35472 0.37691 0.18592 0.0
H1673 H 0.45014 0.36281 0.12678 0.0
H1674 H 0.42117 0.37936 0.12601 0.0
H1675 H 0.39384 0.33308 0.15023 0.0
H1676 H 0.42309 0.31618 0.15064 0.0
H1677 H 0.38821 0.3699 0.1673 0.0
H1678 H 0.38137 0.33923 0.11091 0.0
H1679 H 0.3912 0.32692 0.08114 0.0
H1680 H 0.4022 0.38125 0.06193 0.0
H1681 H 0.39271 0.39389 0.09168 0.0
C1682 C 0.33281 0.43769 0.15193 0.0
C1683 C 0.33962 0.45153 0.14055 0.0
C1684 C 0.33984 0.41993 0.15068 0.0
C1685 C 0.35425 0.41601 0.13854 0.0
C1686 C 0.36038 0.42981 0.12664 0.0
C1687 C 0.35306 0.44737 0.12759 0.0
C1688 C 0.36416 0.39823 0.13901 0.0
C1689 C 0.36848 0.38967 0.12235 0.0
C1690 C 0.37105 0.39067 0.15549 0.0
C1691 C 0.36874 0.39977 0.17341 0.0
C1692 C 0.37586 0.41738 0.17636 0.0
C1693 C 0.37391 0.4258 0.19339 0.0
C1694 C 0.36506 0.41665 0.20764 0.0
C1695 C 0.3582 0.39904 0.20489 0.0
C1696 C 0.36009 0.39057 0.18787 0.0
C1697 C 0.43794 0.35618 0.13194 0.0
C1698 C 0.43877 0.33846 0.13914 0.0
C1699 C 0.42141 0.36555 0.13134 0.0
C1700 C 0.40538 0.35735 0.13789 0.0
C1701 C 0.40609 0.33954 0.14501 0.0
C1702 C 0.4227 0.32997 0.14529 0.0
C1703 C 0.38837 0.36822 0.13803 0.0
C1704 C 0.38241 0.37526 0.15478 0.0
C1705 C 0.3808 0.375 0.12162 0.0
C1706 C 0.38633 0.36751 0.10358 0.0
C1707 C 0.38597 0.34855 0.10038 0.0
C1708 C 0.39148 0.34151 0.0835 0.0
C1709 C 0.39732 0.35329 0.06965 0.0
C1710 C 0.39764 0.37214 0.07266 0.0
C1711 C 0.39216 0.37926 0.08952 0.0
H1712 H 0.40159 0.34781 0.05659 0.0
H1713 H 0.36359 0.42319 0.22083 0.0
H1714 H 0.42611 0.67358 0.84645 0.0
H1715 H 0.40116 0.65104 0.84535 0.0
H1716 H 0.4351 0.61255 0.87461 0.0
H1717 H 0.46013 0.63441 0.87435 0.0
H1718 H 0.42117 0.59537 0.85024 0.0
H1719 H 0.39587 0.63701 0.89341 0.0
H1720 H 0.38524 0.66667 0.90537 0.0
H1721 H 0.34514 0.66987 0.86265 0.0
H1722 H 0.35568 0.64032 0.8503 0.0
H1723 H 0.33855 0.54276 0.88188 0.0
H1724 H 0.35473 0.57211 0.88308 0.0
H1725 H 0.36728 0.56757 0.82569 0.0
H1726 H 0.35154 0.53823 0.82444 0.0
H1727 H 0.35613 0.6067 0.86529 0.0
H1728 H 0.41119 0.57255 0.82079 0.0
H1729 H 0.42326 0.54177 0.81398 0.0
H1730 H 0.40613 0.52319 0.86699 0.0
H1731 H 0.39399 0.55372 0.87399 0.0
C1732 C 0.42809 0.66023 0.85253 0.0
C1733 C 0.44505 0.65544 0.86006 0.0
C1734 C 0.41381 0.64744 0.85212 0.0
C1735 C 0.4161 0.63001 0.86 0.0
C1736 C 0.43293 0.62572 0.86822 0.0
C1737 C 0.44726 0.63822 0.86809 0.0
C1738 C 0.40165 0.61568 0.85884 0.0
C1739 C 0.40698 0.59812 0.85327 0.0
C1740 C 0.38307 0.6188 0.86343 0.0
C1741 C 0.37669 0.63655 0.87082 0.0
C1742 C 0.38487 0.64411 0.88649 0.0
C1743 C 0.37885 0.66089 0.89335 0.0
C1744 C 0.36456 0.67018 0.88475 0.0
C1745 C 0.35623 0.66268 0.86929 0.0
C1746 C 0.36221 0.64591 0.86236 0.0
C1747 C 0.34433 0.54827 0.86942 0.0
C1748 C 0.34407 0.53802 0.85314 0.0
C1749 C 0.3535 0.56508 0.87011 0.0
C1750 C 0.3624 0.57187 0.85453 0.0
C1751 C 0.36067 0.56246 0.83792 0.0
C1752 C 0.35173 0.54565 0.83725 0.0
C1753 C 0.37588 0.58694 0.85611 0.0
C1754 C 0.37035 0.6044 0.86181 0.0
C1755 C 0.39449 0.58377 0.85212 0.0
C1756 C 0.40156 0.56531 0.84782 0.0
C1757 C 0.41001 0.56184 0.83094 0.0
C1758 C 0.41682 0.54442 0.82703 0.0
C1759 C 0.41537 0.53045 0.83997 0.0
C1760 C 0.40712 0.53389 0.85686 0.0
C1761 C 0.40022 0.55123 0.86079 0.0
H1762 H 0.4207 0.51699 0.83694 0.0
H1763 H 0.35992 0.68316 0.89008 0.0
H1764 H 0.45207 0.33164 0.88118 0.0
H1765 H 0.42071 0.34314 0.88323 0.0
H1766 H 0.42923 0.37509 0.83441 0.0
H1767 H 0.46024 0.36352 0.83206 0.0
H1768 H 0.41053 0.37621 0.88933 0.0
H1769 H 0.39097 0.38216 0.81108 0.0
H1770 H 0.39346 0.36304 0.78355 0.0
H1771 H 0.39874 0.31511 0.81697 0.0
H1772 H 0.39597 0.33393 0.84474 0.0
H1773 H 0.36524 0.45609 0.87272 0.0
H1774 H 0.38464 0.42911 0.87277 0.0
H1775 H 0.33914 0.39616 0.85471 0.0
H1776 H 0.3197 0.42372 0.85399 0.0
H1777 H 0.36872 0.3862 0.83686 0.0
H1778 H 0.35472 0.39282 0.89884 0.0
H1779 H 0.34941 0.40864 0.92806 0.0
H1780 H 0.40597 0.42409 0.93036 0.0
H1781 H 0.41157 0.40865 0.90094 0.0
C1782 C 0.44715 0.34083 0.87067 0.0
C1783 C 0.45877 0.34673 0.85652 0.0
C1784 C 0.42921 0.34742 0.87189 0.0
C1785 C 0.42252 0.35988 0.85891 0.0
C1786 C 0.43389 0.36521 0.84441 0.0
C1787 C 0.45176 0.35868 0.84318 0.0
C1788 C 0.40456 0.36905 0.86141 0.0
C1789 C 0.40125 0.37817 0.87794 0.0
C1790 C 0.39194 0.37096 0.84684 0.0
C1791 C 0.39337 0.35956 0.83007 0.0
C1792 C 0.39253 0.36757 0.81261 0.0
C1793 C 0.39402 0.35676 0.79693 0.0
C1794 C 0.3963 0.33787 0.7985 0.0
C1795 C 0.39704 0.32975 0.81576 0.0
C1796 C 0.39553 0.3405 0.83148 0.0
C1797 C 0.35942 0.44311 0.86859 0.0
C1798 C 0.34121 0.44198 0.86282 0.0
C1799 C 0.37044 0.42763 0.86888 0.0
C1800 C 0.36332 0.4105 0.86399 0.0
C1801 C 0.34493 0.40922 0.85854 0.0
C1802 C 0.33385 0.42488 0.85817 0.0
C1803 C 0.37554 0.39427 0.86434 0.0
C1804 C 0.37774 0.38384 0.84838 0.0
C1805 C 0.38669 0.3905 0.87972 0.0
C1806 C 0.38356 0.39957 0.89763 0.0
C1807 C 0.36602 0.39965 0.90553 0.0
C1808 C 0.36296 0.40856 0.92214 0.0
C1809 C 0.37734 0.41737 0.93108 0.0
C1810 C 0.39484 0.41724 0.92343 0.0
C1811 C 0.39798 0.40838 0.9068 0.0
H1812 H 0.37495 0.42429 0.94393 0.0
H1813 H 0.39747 0.32953 0.78635 0.0
H1814 H 0.66999 0.45411 0.87656 0.0
H1815 H 0.65765 0.42317 0.87992 0.0
H1816 H 0.62357 0.43166 0.83255 0.0
H1817 H 0.63608 0.46207 0.82878 0.0
H1818 H 0.62494 0.41421 0.888 0.0
H1819 H 0.61233 0.39341 0.81111 0.0
H1820 H 0.62896 0.39511 0.78191 0.0
H1821 H 0.67984 0.39973 0.81076 0.0
H1822 H 0.66356 0.39775 0.84017 0.0
H1823 H 0.54256 0.37039 0.8764 0.0
H1824 H 0.57007 0.38913 0.87573 0.0
H1825 H 0.60108 0.34306 0.85575 0.0
H1826 H 0.57306 0.32439 0.85581 0.0
H1827 H 0.61028 0.37171 0.83727 0.0
H1828 H 0.60714 0.35944 0.90006 0.0
H1829 H 0.59322 0.35558 0.9305 0.0
H1830 H 0.57954 0.41261 0.93183 0.0
H1831 H 0.59313 0.41678 0.90129 0.0
C1832 C 0.66017 0.44922 0.86663 0.0
C1833 C 0.65399 0.46068 0.85246 0.0
C1834 C 0.6531 0.43154 0.86859 0.0
C1835 C 0.63979 0.42497 0.8564 0.0
C1836 C 0.63413 0.43617 0.8419 0.0
C1837 C 0.64122 0.45372 0.83987 0.0
C1838 C 0.63012 0.40743 0.85982 0.0
C1839 C 0.62195 0.40478 0.87697 0.0
C1840 C 0.62675 0.39466 0.84566 0.0
C1841 C 0.63665 0.39556 0.82792 0.0
C1842 C 0.62706 0.39467 0.81128 0.0
C1843 C 0.63644 0.3957 0.79466 0.0
C1844 C 0.65544 0.39757 0.79448 0.0
C1845 C 0.66511 0.39834 0.81092 0.0
C1846 C 0.65581 0.39729 0.82757 0.0
C1847 C 0.55524 0.36434 0.87173 0.0
C1848 C 0.55569 0.34624 0.86553 0.0
C1849 C 0.57103 0.37494 0.87165 0.0
C1850 C 0.58776 0.36747 0.8659 0.0
C1851 C 0.58834 0.34912 0.86022 0.0
C1852 C 0.57241 0.33849 0.86025 0.0
C1853 C 0.60421 0.37934 0.86503 0.0
C1854 C 0.61365 0.38089 0.8484 0.0
C1855 C 0.60923 0.39074 0.87984 0.0
C1856 C 0.60115 0.38841 0.89834 0.0
C1857 C 0.60109 0.37115 0.9068 0.0
C1858 C 0.59326 0.3689 0.92408 0.0
C1859 C 0.5855 0.38384 0.93309 0.0
C1860 C 0.58558 0.40106 0.92485 0.0
C1861 C 0.59339 0.40338 0.90756 0.0
H1862 H 0.57943 0.38207 0.94647 0.0
H1863 H 0.66267 0.39839 0.7816 0.0
H1864 H 0.62784 0.54334 0.86251 0.0
H1865 H 0.6089 0.57045 0.86251 0.0
H1866 H 0.65755 0.60401 0.86199 0.0
H1867 H 0.67623 0.57649 0.85842 0.0
H1868 H 0.60315 0.59304 0.88486 0.0
H1869 H 0.64791 0.6475 0.85704 0.0
H1870 H 0.67406 0.65318 0.83647 0.0
H1871 H 0.65583 0.61028 0.80095 0.0
H1872 H 0.62946 0.60433 0.82149 0.0
H1873 H 0.54358 0.66852 0.88538 0.0
H1874 H 0.57386 0.65471 0.88925 0.0
H1875 H 0.5738 0.63864 0.83253 0.0
H1876 H 0.54383 0.65247 0.82852 0.0
H1877 H 0.60853 0.64721 0.84455 0.0
H1878 H 0.55576 0.61076 0.86426 0.0
H1879 H 0.5284 0.60587 0.88334 0.0
H1880 H 0.56089 0.6116 0.93188 0.0
H1881 H 0.5884 0.61683 0.91303 0.0
C1882 C 0.63437 0.5565 0.86096 0.0
C1883 C 0.65333 0.55778 0.85887 0.0
C1884 C 0.62359 0.57215 0.8617 0.0
C1885 C 0.63156 0.58965 0.86191 0.0
C1886 C 0.65076 0.59094 0.86093 0.0
C1887 C 0.66151 0.57515 0.85911 0.0
C1888 C 0.61944 0.60604 0.86389 0.0
C1889 C 0.60449 0.60483 0.87597 0.0
C1890 C 0.62131 0.62207 0.85311 0.0
C1891 C 0.637 0.62527 0.84084 0.0
C1892 C 0.64954 0.63924 0.84486 0.0
C1893 C 0.66436 0.64249 0.83326 0.0
C1894 C 0.66664 0.63197 0.81749 0.0
C1895 C 0.65407 0.61823 0.81328 0.0
C1896 C 0.63924 0.61487 0.82489 0.0
C1897 C 0.55028 0.66254 0.87361 0.0
C1898 C 0.54118 0.6613 0.85672 0.0
C1899 C 0.56756 0.65464 0.87586 0.0
C1900 C 0.57595 0.64543 0.86123 0.0
C1901 C 0.56759 0.64566 0.844 0.0
C1902 C 0.55036 0.65345 0.84177 0.0
C1903 C 0.59178 0.63315 0.86419 0.0
C1904 C 0.60747 0.63538 0.85343 0.0
C1905 C 0.5905 0.61788 0.87595 0.0
C1906 C 0.57407 0.6144 0.88727 0.0
C1907 C 0.55704 0.61107 0.879 0.0
C1908 C 0.54151 0.60825 0.88977 0.0
C1909 C 0.54289 0.6085 0.90881 0.0
C1910 C 0.55983 0.61148 0.91713 0.0
C1911 C 0.57539 0.61439 0.90642 0.0
H1912 H 0.53085 0.60632 0.91712 0.0
H1913 H 0.6781 0.63452 0.80849 0.0
H1914 H 0.67612 0.55637 0.16299 0.0
H1915 H 0.66472 0.58788 0.16106 0.0
H1916 H 0.63216 0.57285 0.11411 0.0
H1917 H 0.64475 0.54201 0.11526 0.0
H1918 H 0.64028 0.60528 0.10956 0.0
H1919 H 0.6163 0.57281 0.16178 0.0
H1920 H 0.61733 0.55612 0.19106 0.0
H1921 H 0.64373 0.60192 0.21655 0.0
H1922 H 0.64303 0.6188 0.18732 0.0
H1923 H 0.55145 0.63502 0.1254 0.0
H1924 H 0.58074 0.61903 0.12492 0.0
H1925 H 0.60688 0.66569 0.1497 0.0
H1926 H 0.57732 0.68209 0.14973 0.0
H1927 H 0.61139 0.62736 0.16669 0.0
H1928 H 0.62142 0.6609 0.11238 0.0
H1929 H 0.61317 0.67462 0.08274 0.0
H1930 H 0.60354 0.62124 0.06036 0.0
H1931 H 0.61143 0.6072 0.08994 0.0
C1932 C 0.66699 0.56011 0.15196 0.0
C1933 C 0.66133 0.547 0.13919 0.0
C1934 C 0.6603 0.57801 0.15096 0.0
C1935 C 0.64716 0.58274 0.13772 0.0
C1936 C 0.64229 0.56972 0.12444 0.0
C1937 C 0.64944 0.55206 0.12509 0.0
C1938 C 0.63712 0.60046 0.13848 0.0
C1939 C 0.63387 0.60995 0.12208 0.0
C1940 C 0.62913 0.60711 0.15487 0.0
C1941 C 0.62995 0.5969 0.17232 0.0
C1942 C 0.62251 0.57923 0.17359 0.0
C1943 C 0.62299 0.56976 0.19017 0.0
C1944 C 0.63068 0.57792 0.20563 0.0
C1945 C 0.63786 0.59559 0.20454 0.0
C1946 C 0.63744 0.6051 0.18797 0.0
C1947 C 0.56346 0.64187 0.13073 0.0
C1948 C 0.56221 0.65956 0.13797 0.0
C1949 C 0.58016 0.63282 0.13029 0.0
C1950 C 0.59594 0.64129 0.13709 0.0
C1951 C 0.59482 0.65905 0.14425 0.0
C1952 C 0.57804 0.66832 0.14433 0.0
C1953 C 0.61305 0.63061 0.13764 0.0
C1954 C 0.61795 0.62265 0.15429 0.0
C1955 C 0.62156 0.62466 0.12137 0.0
C1956 C 0.61699 0.633 0.10344 0.0
C1957 C 0.61743 0.65209 0.10118 0.0
C1958 C 0.61283 0.65992 0.08437 0.0
C1959 C 0.60782 0.64881 0.06968 0.0
C1960 C 0.60744 0.62983 0.07175 0.0
C1961 C 0.61201 0.62193 0.08853 0.0
H1962 H 0.60426 0.6549 0.05668 0.0
H1963 H 0.63102 0.57058 0.21847 0.0
H1964 H 0.33111 0.566 0.15414 0.0
H1965 H 0.35419 0.59043 0.15507 0.0
H1966 H 0.39166 0.55577 0.12533 0.0
H1967 H 0.36919 0.53123 0.12564 0.0
H1968 H 0.40959 0.57004 0.14929 0.0
H1969 H 0.36723 0.59477 0.10641 0.0
H1970 H 0.33734 0.60521 0.09485 0.0
H1971 H 0.33487 0.64586 0.13709 0.0
H1972 H 0.36465 0.63551 0.14904 0.0
H1973 H 0.46085 0.65397 0.11655 0.0
H1974 H 0.43209 0.63674 0.11548 0.0
H1975 H 0.43751 0.62406 0.17277 0.0
H1976 H 0.46622 0.64089 0.17391 0.0
H1977 H 0.39796 0.63487 0.13351 0.0
H1978 H 0.43256 0.57921 0.17761 0.0
H1979 H 0.4636 0.56786 0.18444 0.0
H1980 H 0.4823 0.58694 0.13216 0.0
H1981 H 0.45147 0.59828 0.12506 0.0
C1982 C 0.34436 0.56373 0.14795 0.0
C1983 C 0.34866 0.54672 0.14023 0.0
C1984 C 0.35747 0.57771 0.14827 0.0
C1985 C 0.37472 0.5751 0.14012 0.0
C1986 C 0.37861 0.55819 0.13188 0.0
C1987 C 0.36577 0.54414 0.13205 0.0
C1988 C 0.38916 0.58946 0.14074 0.0
C1989 C 0.40682 0.58419 0.14603 0.0
C1990 C 0.38596 0.60797 0.13589 0.0
C1991 C 0.36808 0.61424 0.12873 0.0
C1992 C 0.36025 0.60585 0.11331 0.0
C1993 C 0.34334 0.61176 0.10668 0.0
C1994 C 0.33419 0.62616 0.11526 0.0
C1995 C 0.34196 0.6347 0.13047 0.0
C1996 C 0.35886 0.62883 0.13717 0.0
C1997 C 0.45568 0.64787 0.12901 0.0
C1998 C 0.46599 0.64849 0.14523 0.0
C1999 C 0.43921 0.6381 0.12839 0.0
C2000 C 0.43284 0.62891 0.14399 0.0
C2001 C 0.44232 0.63086 0.16053 0.0
C2002 C 0.45878 0.64043 0.16112 0.0
C2003 C 0.41792 0.61527 0.14258 0.0
C2004 C 0.40036 0.62069 0.1371 0.0
C2005 C 0.42122 0.5967 0.14672 0.0
C2006 C 0.43979 0.58978 0.15091 0.0
C2007 C 0.44333 0.58095 0.1676 0.0
C2008 C 0.4609 0.57455 0.17153 0.0
C2009 C 0.47498 0.57679 0.15881 0.0
C2010 C 0.47149 0.58534 0.1421 0.0
C2011 C 0.45397 0.59179 0.13813 0.0
H2012 H 0.48858 0.57183 0.16187 0.0
H2013 H 0.3211 0.63072 0.11011 0.0
H2014 H 0.66927 0.43211 0.15145 0.0
H2015 H 0.64664 0.40734 0.15378 0.0
H2016 H 0.60616 0.44233 0.1288 0.0
H2017 H 0.62841 0.46707 0.12739 0.0
H2018 H 0.59107 0.42671 0.15472 0.0
H2019 H 0.62882 0.40549 0.10594 0.0
H2020 H 0.65747 0.39634 0.09074 0.0
H2021 H 0.66479 0.35321 0.12985 0.0
H2022 H 0.63629 0.36227 0.14544 0.0
H2023 H 0.539 0.34405 0.11898 0.0
H2024 H 0.56742 0.36179 0.1179 0.0
H2025 H 0.56377 0.37119 0.17598 0.0
H2026 H 0.53519 0.35404 0.17704 0.0
H2027 H 0.60141 0.36338 0.13309 0.0
H2028 H 0.57139 0.41494 0.18472 0.0
H2029 H 0.54133 0.42574 0.1956 0.0
H2030 H 0.51722 0.41101 0.14418 0.0
H2031 H 0.54704 0.40019 0.13304 0.0
C2032 C 0.65547 0.43439 0.14661 0.0
C2033 C 0.65033 0.45152 0.13971 0.0
C2034 C 0.6426 0.42024 0.14776 0.0
C2035 C 0.62465 0.42286 0.14135 0.0
C2036 C 0.61981 0.43993 0.134 0.0
C2037 C 0.6325 0.45409 0.13322 0.0
C2038 C 0.61057 0.40824 0.14272 0.0
C2039 C 0.59356 0.41285 0.15024 0.0
C2040 C 0.61342 0.39017 0.13631 0.0
C2041 C 0.63053 0.38468 0.12697 0.0
C2042 C 0.63662 0.39415 0.11138 0.0
C2043 C 0.65282 0.38896 0.10268 0.0
C2044 C 0.66297 0.37424 0.10935 0.0
C2045 C 0.65693 0.36463 0.12472 0.0
C2046 C 0.64074 0.36978 0.13348 0.0
C2047 C 0.54451 0.34954 0.13157 0.0
C2048 C 0.53473 0.34794 0.14804 0.0
C2049 C 0.56077 0.35964 0.13095 0.0
C2050 C 0.56751 0.36812 0.1468 0.0
C2051 C 0.55863 0.36507 0.16352 0.0
C2052 C 0.54229 0.35527 0.16411 0.0
C2053 C 0.58231 0.38196 0.14556 0.0
C2054 C 0.59929 0.3772 0.13801 0.0
C2055 C 0.57939 0.40012 0.15151 0.0
C2056 C 0.56137 0.40656 0.15815 0.0
C2057 C 0.55964 0.41402 0.17576 0.0
C2058 C 0.54263 0.42011 0.18199 0.0
C2059 C 0.52731 0.41894 0.17065 0.0
C2060 C 0.529 0.41175 0.15304 0.0
C2061 C 0.54594 0.4056 0.14677 0.0
H2062 H 0.51414 0.42367 0.17547 0.0
H2063 H 0.67551 0.37024 0.1026 0.0
H2064 H 0.0773 0.29074 0.50911 0.0
H2065 H 0.04395 0.28847 0.50853 0.0
H2066 H 0.03995 0.34729 0.50678 0.0
H2067 H 0.0732 0.34964 0.508 0.0
H2068 H 0.01565 0.33466 0.52935 0.0
H2069 H 0.03396 0.31963 0.46809 0.0
H2070 H 0.05079 0.30275 0.44426 0.0
H2071 H 0.02539 0.25269 0.46138 0.0
H2072 H 0.00858 0.26926 0.48548 0.0
H2073 H 0.92624 0.34596 0.49432 0.0
H2074 H 0.95932 0.34501 0.49851 0.0
H2075 H 0.95677 0.28672 0.5069 0.0
H2076 H 0.92354 0.28753 0.50264 0.0
H2077 H 0.98399 0.29704 0.48267 0.0
H2078 H 0.96342 0.31411 0.54262 0.0
H2079 H 0.94598 0.33255 0.56478 0.0
H2080 H 0.97536 0.38062 0.54838 0.0
H2081 H 0.99277 0.36253 0.52589 0.0
C2082 C 0.0693 0.30318 0.5086 0.0
C2083 C 0.07786 0.32037 0.50854 0.0
C2084 C 0.05023 0.30187 0.5082 0.0
C2085 C 0.03941 0.31771 0.50737 0.0
C2086 C 0.04798 0.33488 0.50744 0.0
C2087 C 0.06701 0.3362 0.50808 0.0
C2088 C 0.01916 0.31651 0.50641 0.0
C2089 C 0.00875 0.32656 0.51903 0.0
C2090 C 0.0101 0.30564 0.4932 0.0
C2091 C 0.02017 0.29565 0.47871 0.0
C2092 C 0.03208 0.305 0.46686 0.0
C2093 C 0.04159 0.29549 0.4533 0.0
C2094 C 0.0392 0.27665 0.45135 0.0
C2095 C 0.02725 0.26729 0.46293 0.0
C2096 C 0.01772 0.27673 0.47654 0.0
C2097 C 0.93268 0.33293 0.49714 0.0
C2098 C 0.92229 0.31682 0.49819 0.0
C2099 C 0.95159 0.33243 0.49959 0.0
C2100 C 0.96046 0.31582 0.50318 0.0
C2101 C 0.95015 0.29968 0.50419 0.0
C2102 C 0.93119 0.30018 0.50181 0.0
C2103 C 0.98057 0.31535 0.50544 0.0
C2104 C 0.99093 0.30499 0.49308 0.0
C2105 C 0.98958 0.32613 0.51872 0.0
C2106 C 0.97931 0.33698 0.53246 0.0
C2107 C 0.96608 0.32864 0.54365 0.0
C2108 C 0.95621 0.33903 0.55629 0.0
C2109 C 0.95954 0.35775 0.55797 0.0
C2110 C 0.97279 0.36612 0.54706 0.0
C2111 C 0.98267 0.3558 0.53437 0.0
H2112 H 0.95187 0.36579 0.56773 0.0
H2113 H 0.04658 0.26931 0.44083 0.0
H2114 H 0.66033 0.07039 0.52748 0.0
H2115 H 0.66257 0.03724 0.5255 0.0
H2116 H 0.70702 0.04251 0.487 0.0
H2117 H 0.70547 0.07585 0.48986 0.0
H2118 H 0.65673 0.01492 0.50084 0.0
H2119 H 0.73463 0.00568 0.48774 0.0
H2120 H 0.7637 0.02064 0.49598 0.0
H2121 H 0.7388 0.04326 0.54406 0.0
H2122 H 0.70965 0.02826 0.53624 0.0
H2123 H 0.66876 0.92616 0.46926 0.0
H2124 H 0.67035 0.95924 0.47285 0.0
H2125 H 0.7033 0.95243 0.52135 0.0
H2126 H 0.70279 0.91915 0.51691 0.0
H2127 H 0.71495 0.98044 0.50485 0.0
H2128 H 0.65515 0.96181 0.52245 0.0
H2129 H 0.62541 0.94623 0.51944 0.0
H2130 H 0.61287 0.97864 0.47216 0.0
H2131 H 0.64263 0.99426 0.47475 0.0
C2132 C 0.67062 0.06448 0.51864 0.0
C2133 C 0.68274 0.07566 0.50883 0.0
C2134 C 0.67188 0.0455 0.51749 0.0
C2135 C 0.68508 0.03726 0.50624 0.0
C2136 C 0.69701 0.04846 0.49614 0.0
C2137 C 0.69604 0.06751 0.49765 0.0
C2138 C 0.68586 0.01698 0.50478 0.0
C2139 C 0.66949 0.00743 0.50177 0.0
C2140 C 0.7024 0.00703 0.5064 0.0
C2141 C 0.71991 0.016 0.51129 0.0
C2142 C 0.73538 0.0138 0.5001 0.0
C2143 C 0.75187 0.0223 0.5047 0.0
C2144 C 0.75308 0.03294 0.5205 0.0
C2145 C 0.73782 0.03507 0.53178 0.0
C2146 C 0.72131 0.02659 0.52726 0.0
C2147 C 0.6764 0.93175 0.48064 0.0
C2148 C 0.68548 0.92019 0.49295 0.0
C2149 C 0.67723 0.95066 0.48276 0.0
C2150 C 0.68647 0.95839 0.4977 0.0
C2151 C 0.69598 0.94682 0.50977 0.0
C2152 C 0.69564 0.92784 0.50729 0.0
C2153 C 0.68584 0.97848 0.50082 0.0
C2154 C 0.70221 0.98798 0.50403 0.0
C2155 C 0.66919 0.98835 0.50023 0.0
C2156 C 0.65118 0.97911 0.49872 0.0
C2157 C 0.64609 0.96555 0.51136 0.0
C2158 C 0.62922 0.95672 0.50973 0.0
C2159 C 0.61728 0.96142 0.4956 0.0
C2160 C 0.62214 0.975 0.48309 0.0
C2161 C 0.639 0.98387 0.48465 0.0
H2162 H 0.60423 0.95455 0.49436 0.0
H2163 H 0.76585 0.03952 0.52402 0.0
H2164 H 0.92451 0.71389 0.50208 0.0
H2165 H 0.9579 0.71684 0.50228 0.0
H2166 H 0.96304 0.65809 0.50134 0.0
H2167 H 0.92989 0.65509 0.50169 0.0
H2168 H 0.98397 0.67147 0.52664 0.0
H2169 H 0.97232 0.68591 0.46342 0.0
H2170 H 0.95834 0.70295 0.43793 0.0
H2171 H 0.98277 0.75264 0.45736 0.0
H2172 H 0.99672 0.73592 0.48311 0.0
H2173 H 0.07461 0.65519 0.49942 0.0
H2174 H 0.04157 0.65825 0.50196 0.0
H2175 H 0.04718 0.71664 0.50779 0.0
H2176 H 0.0805 0.7137 0.50506 0.0
H2177 H 0.02102 0.7074 0.48271 0.0
H2178 H 0.03567 0.69057 0.54435 0.0
H2179 H 0.0491 0.67227 0.56928 0.0
H2180 H 0.0188 0.62527 0.55156 0.0
H2181 H 0.00541 0.64316 0.52635 0.0
C2182 C 0.93281 0.70164 0.50171 0.0
C2183 C 0.92462 0.68427 0.50196 0.0
C2184 C 0.95187 0.70334 0.50178 0.0
C2185 C 0.963 0.68768 0.5018 0.0
C2186 C 0.95476 0.67036 0.50147 0.0
C2187 C 0.93579 0.66867 0.50161 0.0
C2188 C 0.98322 0.68906 0.50305 0.0
C2189 C 0.99207 0.67919 0.51691 0.0
C2190 C 0.99376 0.69964 0.49076 0.0
C2191 C 0.98537 0.70971 0.47531 0.0
C2192 C 0.97458 0.7005 0.46235 0.0
C2193 C 0.96669 0.71009 0.44783 0.0
C2194 C 0.96961 0.72888 0.44606 0.0
C2195 C 0.98048 0.7381 0.45877 0.0
C2196 C 0.98839 0.72857 0.47332 0.0
C2197 C 0.06888 0.66869 0.50141 0.0
C2198 C 0.08017 0.68422 0.50205 0.0
C2199 C 0.04997 0.6704 0.50294 0.0
C2200 C 0.04192 0.68765 0.50524 0.0
C2201 C 0.05314 0.7032 0.50608 0.0
C2202 C 0.07215 0.70149 0.5046 0.0
C2203 C 0.02173 0.68932 0.50594 0.0
C2204 C 0.01289 0.69983 0.49254 0.0
C2205 C 0.01116 0.67911 0.5185 0.0
C2206 C 0.01959 0.66822 0.5334 0.0
C2207 C 0.032 0.67629 0.54565 0.0
C2208 C 0.03958 0.66599 0.55985 0.0
C2209 C 0.03476 0.64765 0.56201 0.0
C2210 C 0.02248 0.6395 0.54989 0.0
C2211 C 0.01489 0.64971 0.53565 0.0
H2212 H 0.04044 0.63973 0.57311 0.0
H2213 H 0.96349 0.73628 0.43481 0.0
H2214 H 0.28687 0.07484 0.49806 0.0
H2215 H 0.28612 0.04146 0.49974 0.0
H2216 H 0.34495 0.0399 0.49576 0.0
H2217 H 0.34572 0.07318 0.4935 0.0
H2218 H 0.33103 0.01545 0.47401 0.0
H2219 H 0.32147 0.03213 0.53676 0.0
H2220 H 0.30646 0.04785 0.56252 0.0
H2221 H 0.25593 0.02075 0.55003 0.0
H2222 H 0.27059 0.00505 0.52403 0.0
H2223 H 0.34815 0.92578 0.50604 0.0
H2224 H 0.34581 0.95891 0.50283 0.0
H2225 H 0.28721 0.95453 0.4983 0.0
H2226 H 0.28943 0.92121 0.50142 0.0
H2227 H 0.29911 0.98151 0.52327 0.0
H2228 H 0.31001 0.96359 0.4612 0.0
H2229 H 0.32607 0.94729 0.43647 0.0
H2230 H 0.37547 0.97639 0.44896 0.0
H2231 H 0.35975 0.99271 0.47394 0.0
C2232 C 0.29964 0.06737 0.49769 0.0
C2233 C 0.31636 0.07662 0.49568 0.0
C2234 C 0.29921 0.0483 0.4987 0.0
C2235 C 0.3155 0.03814 0.49804 0.0
C2236 C 0.3322 0.04741 0.49625 0.0
C2237 C 0.33263 0.06645 0.49503 0.0
C2238 C 0.31519 0.01785 0.49875 0.0
C2239 C 0.32422 0.00807 0.48491 0.0
C2240 C 0.30591 0.00815 0.51271 0.0
C2241 C 0.29708 0.01757 0.52833 0.0
C2242 C 0.30712 0.02964 0.53942 0.0
C2243 C 0.29868 0.03852 0.55408 0.0
C2244 C 0.28024 0.03534 0.55788 0.0
C2245 C 0.27021 0.02323 0.54705 0.0
C2246 C 0.27857 0.01432 0.53236 0.0
C2247 C 0.33476 0.93183 0.50425 0.0
C2248 C 0.31896 0.9209 0.50395 0.0
C2249 C 0.33346 0.95076 0.50239 0.0
C2250 C 0.31635 0.95913 0.50024 0.0
C2251 C 0.30053 0.94829 0.49993 0.0
C2252 C 0.30184 0.92929 0.50162 0.0
C2253 C 0.3151 0.97926 0.49869 0.0
C2254 C 0.30579 0.98897 0.51234 0.0
C2255 C 0.32426 0.9889 0.48468 0.0
C2256 C 0.33372 0.97928 0.46953 0.0
C2257 C 0.32433 0.96643 0.45876 0.0
C2258 C 0.33336 0.9572 0.44468 0.0
C2259 C 0.35178 0.96079 0.44117 0.0
C2260 C 0.3612 0.97363 0.4517 0.0
C2261 C 0.35222 0.9829 0.46581 0.0
H2262 H 0.35873 0.95366 0.43023 0.0
H2263 H 0.27373 0.04223 0.56923 0.0
H2264 H 0.50194 0.92104 0.2879 0.0
H2265 H 0.50338 0.95445 0.286 0.0
H2266 H 0.50035 0.95793 0.34479 0.0
H2267 H 0.49852 0.92471 0.34674 0.0
H2268 H 0.47772 0.98157 0.32995 0.0
H2269 H 0.54075 0.96495 0.32092 0.0
H2270 H 0.56645 0.94903 0.30603 0.0
H2271 H 0.5537 0.97535 0.25515 0.0
H2272 H 0.52775 0.99126 0.26969 0.0
H2273 H 0.50784 0.07125 0.34756 0.0
H2274 H 0.50579 0.03806 0.34499 0.0
H2275 H 0.50338 0.04254 0.28627 0.0
H2276 H 0.50545 0.07593 0.28873 0.0
H2277 H 0.52731 0.01525 0.29826 0.0
H2278 H 0.46538 0.0336 0.30853 0.0
H2279 H 0.44045 0.04995 0.32423 0.0
H2280 H 0.45179 0.02043 0.37366 0.0
H2281 H 0.47699 0.0041 0.35834 0.0
C2282 C 0.5017 0.92894 0.30041 0.0
C2283 C 0.50011 0.92024 0.31746 0.0
C2284 C 0.50257 0.94804 0.29932 0.0
C2285 C 0.50208 0.95873 0.31527 0.0
C2286 C 0.50068 0.95 0.33229 0.0
C2287 C 0.4997 0.93098 0.33338 0.0
C2288 C 0.5026 0.97903 0.31438 0.0
C2289 C 0.48867 0.9889 0.32316 0.0
C2290 C 0.51659 0.98866 0.3051 0.0
C2291 C 0.53219 0.97913 0.29634 0.0
C2292 C 0.54333 0.96723 0.30652 0.0
C2293 C 0.55796 0.95823 0.29815 0.0
C2294 C 0.56167 0.96114 0.27964 0.0
C2295 C 0.55079 0.97309 0.26948 0.0
C2296 C 0.53613 0.98211 0.27778 0.0
C2297 C 0.50686 0.06521 0.33408 0.0
C2298 C 0.50674 0.07623 0.31834 0.0
C2299 C 0.50564 0.04623 0.33265 0.0
C2300 C 0.50426 0.03785 0.31545 0.0
C2301 C 0.5044 0.04876 0.29967 0.0
C2302 C 0.50551 0.06781 0.3011 0.0
C2303 C 0.50265 0.01768 0.31412 0.0
C2304 C 0.5163 0.00786 0.30491 0.0
C2305 C 0.48847 0.00808 0.3231 0.0
C2306 C 0.47318 0.01773 0.33231 0.0
C2307 C 0.46265 0.03069 0.32279 0.0
C2308 C 0.44846 0.03994 0.33161 0.0
C2309 C 0.44456 0.03626 0.34994 0.0
C2310 C 0.45483 0.02328 0.35947 0.0
C2311 C 0.46906 0.01401 0.35071 0.0
H2312 H 0.43357 0.04344 0.35675 0.0
H2313 H 0.57301 0.95416 0.27319 0.0
H2314 H 0.92138 0.51052 0.28723 0.0
H2315 H 0.95472 0.51136 0.28476 0.0
H2316 H 0.95909 0.51128 0.34358 0.0
H2317 H 0.92583 0.51101 0.34612 0.0
H2318 H 0.9826 0.5345 0.32995 0.0
H2319 H 0.96599 0.47211 0.3171 0.0
H2320 H 0.9498 0.44738 0.30092 0.0
H2321 H 0.97473 0.46371 0.25037 0.0
H2322 H 0.99091 0.4887 0.26623 0.0
H2323 H 0.0712 0.49972 0.34505 0.0
H2324 H 0.03833 0.50465 0.34262 0.0
H2325 H 0.04339 0.51089 0.28422 0.0
H2326 H 0.0765 0.50593 0.28655 0.0
H2327 H 0.01556 0.48705 0.29447 0.0
H2328 H 0.03506 0.54764 0.30932 0.0
H2329 H 0.05177 0.57106 0.32685 0.0
H2330 H 0.02174 0.55676 0.3752 0.0
H2331 H 0.00503 0.53306 0.35803 0.0
C2332 C 0.92946 0.51071 0.29963 0.0
C2333 C 0.92099 0.51062 0.31687 0.0
C2334 C 0.94852 0.51113 0.2982 0.0
C2335 C 0.95945 0.51115 0.31399 0.0
C2336 C 0.95097 0.5113 0.3312 0.0
C2337 C 0.93194 0.51107 0.33263 0.0
C2338 C 0.97973 0.5108 0.3127 0.0
C2339 C 0.98979 0.52403 0.32229 0.0
C2340 C 0.98916 0.49743 0.30235 0.0
C2341 C 0.97949 0.4824 0.29281 0.0
C2342 C 0.96791 0.47051 0.30251 0.0
C2343 C 0.95875 0.45643 0.29341 0.0
C2344 C 0.96119 0.45401 0.27462 0.0
C2345 C 0.97283 0.46563 0.26491 0.0
C2346 C 0.982 0.47974 0.27395 0.0
C2347 C 0.06538 0.50226 0.33168 0.0
C2348 C 0.07644 0.50244 0.31598 0.0
C2349 C 0.04659 0.50516 0.33033 0.0
C2350 C 0.03845 0.50829 0.31326 0.0
C2351 C 0.04944 0.50855 0.29753 0.0
C2352 C 0.06833 0.50578 0.29889 0.0
C2353 C 0.01835 0.51053 0.31196 0.0
C2354 C 0.00834 0.49765 0.3019 0.0
C2355 C 0.00897 0.52409 0.32206 0.0
C2356 C 0.01887 0.53848 0.3324 0.0
C2357 C 0.0321 0.5494 0.32372 0.0
C2358 C 0.04156 0.56274 0.33359 0.0
C2359 C 0.03784 0.56538 0.35214 0.0
C2360 C 0.02461 0.5547 0.36084 0.0
C2361 C 0.01512 0.54133 0.35103 0.0
H2362 H 0.04519 0.5757 0.35976 0.0
H2363 H 0.95409 0.4431 0.26759 0.0
H2364 H 0.50833 0.9275 0.7153 0.0
H2365 H 0.50782 0.96089 0.71781 0.0
H2366 H 0.50758 0.9653 0.659 0.0
H2367 H 0.50854 0.9321 0.65642 0.0
H2368 H 0.53116 0.98855 0.67289 0.0
H2369 H 0.46855 0.97197 0.68546 0.0
H2370 H 0.44381 0.95594 0.70179 0.0
H2371 H 0.45991 0.98164 0.75203 0.0
H2372 H 0.48491 0.99764 0.73602 0.0
H2373 H 0.49828 0.07724 0.65622 0.0
H2374 H 0.50226 0.0443 0.65913 0.0
H2375 H 0.50651 0.04976 0.71767 0.0
H2376 H 0.50239 0.08293 0.71487 0.0
H2377 H 0.48329 0.02192 0.70741 0.0
H2378 H 0.54414 0.04105 0.69342 0.0
H2379 H 0.568 0.05753 0.67625 0.0
H2380 H 0.55453 0.02725 0.62783 0.0
H2381 H 0.53039 0.01077 0.64464 0.0
C2382 C 0.5081 0.93561 0.70293 0.0
C2383 C 0.50846 0.92718 0.68567 0.0
C2384 C 0.50776 0.95468 0.70437 0.0
C2385 C 0.50754 0.96562 0.68858 0.0
C2386 C 0.50782 0.95717 0.67137 0.0
C2387 C 0.50829 0.93817 0.66992 0.0
C2388 C 0.5072 0.98589 0.68981 0.0
C2389 C 0.5206 0.99583 0.68033 0.0
C2390 C 0.49376 0.99542 0.69996 0.0
C2391 C 0.47873 0.98583 0.70958 0.0
C2392 C 0.46691 0.97408 0.70001 0.0
C2393 C 0.45282 0.96502 0.70921 0.0
C2394 C 0.45033 0.96772 0.72795 0.0
C2395 C 0.46188 0.97953 0.73752 0.0
C2396 C 0.47601 0.98861 0.72839 0.0
C2397 C 0.50016 0.07149 0.66972 0.0
C2398 C 0.50006 0.0827 0.68532 0.0
C2399 C 0.5025 0.05265 0.67136 0.0
C2400 C 0.50487 0.0446 0.6886 0.0
C2401 C 0.50476 0.05572 0.70423 0.0
C2402 C 0.50247 0.07465 0.70261 0.0
C2403 C 0.50699 0.02451 0.69014 0.0
C2404 C 0.49397 0.01461 0.70017 0.0
C2405 C 0.52071 0.015 0.68039 0.0
C2406 C 0.53536 0.02475 0.67028 0.0
C2407 C 0.54618 0.03798 0.67908 0.0
C2408 C 0.55976 0.04732 0.66941 0.0
C2409 C 0.56275 0.04346 0.65095 0.0
C2410 C 0.55219 0.03022 0.64213 0.0
C2411 C 0.53857 0.02087 0.65173 0.0
H2412 H 0.57327 0.05071 0.64349 0.0
H2413 H 0.43941 0.9607 0.73504 0.0
H2414 H 0.92075 0.48915 0.70691 0.0
H2415 H 0.95406 0.49149 0.7084 0.0
H2416 H 0.95627 0.49785 0.64979 0.0
H2417 H 0.92307 0.49475 0.64819 0.0
H2418 H 0.98246 0.4767 0.65959 0.0
H2419 H 0.96079 0.53477 0.68076 0.0
H2420 H 0.94294 0.55589 0.70002 0.0
H2421 H 0.97045 0.53601 0.74789 0.0
H2422 H 0.98831 0.51459 0.72893 0.0
H2423 H 0.07114 0.51465 0.65194 0.0
H2424 H 0.03798 0.5108 0.65228 0.0
H2425 H 0.03999 0.49711 0.70958 0.0
H2426 H 0.07324 0.50113 0.70941 0.0
H2427 H 0.01208 0.52109 0.70141 0.0
H2428 H 0.03528 0.46396 0.67791 0.0
H2429 H 0.05385 0.44529 0.65687 0.0
H2430 H 0.02349 0.46604 0.61115 0.0
H2431 H 0.00495 0.48508 0.63188 0.0
C2432 C 0.92836 0.491 0.69435 0.0
C2433 C 0.9193 0.49182 0.67744 0.0
C2434 C 0.9474 0.49244 0.69522 0.0
C2435 C 0.95772 0.49517 0.67924 0.0
C2436 C 0.94866 0.49576 0.66232 0.0
C2437 C 0.92966 0.49403 0.66142 0.0
C2438 C 0.97793 0.49741 0.68006 0.0
C2439 C 0.98889 0.48656 0.66862 0.0
C2440 C 0.98644 0.51005 0.69202 0.0
C2441 C 0.97574 0.52294 0.70345 0.0
C2442 C 0.96294 0.5348 0.69541 0.0
C2443 C 0.95283 0.54685 0.70627 0.0
C2444 C 0.95552 0.54726 0.72517 0.0
C2445 C 0.96836 0.53566 0.73325 0.0
C2446 C 0.97849 0.52357 0.72245 0.0
C2447 C 0.06454 0.51084 0.66464 0.0
C2448 C 0.07483 0.50811 0.68064 0.0
C2449 C 0.04559 0.50859 0.66479 0.0
C2450 C 0.03655 0.50343 0.6809 0.0
C2451 C 0.04672 0.50103 0.69699 0.0
C2452 C 0.06571 0.50329 0.69685 0.0
C2453 C 0.01648 0.50049 0.68089 0.0
C2454 C 0.00559 0.51119 0.69249 0.0
C2455 C 0.00802 0.48794 0.66885 0.0
C2456 C 0.01882 0.47606 0.65645 0.0
C2457 C 0.03262 0.46461 0.66336 0.0
C2458 C 0.04315 0.45396 0.65149 0.0
C2459 C 0.03988 0.45452 0.63268 0.0
C2460 C 0.02601 0.46564 0.62572 0.0
C2461 C 0.01549 0.47635 0.63753 0.0
H2462 H 0.04809 0.44635 0.62348 0.0
H2463 H 0.94769 0.55659 0.73355 0.0
H2464 H 0.34399 0.49084 0.92726 0.0
H2465 H 0.34139 0.49219 0.96046 0.0
H2466 H 0.28331 0.50112 0.95576 0.0
H2467 H 0.28586 0.50011 0.92236 0.0
H2468 H 0.29772 0.52251 0.98189 0.0
H2469 H 0.29967 0.45913 0.96702 0.0
H2470 H 0.3113 0.43095 0.95267 0.0
H2471 H 0.36191 0.43661 0.98181 0.0
H2472 H 0.35068 0.46498 0.99616 0.0
H2473 H 0.285 0.50274 0.07751 0.0
H2474 H 0.28257 0.50083 0.04409 0.0
H2475 H 0.3412 0.49641 0.04004 0.0
H2476 H 0.34375 0.49839 0.07323 0.0
H2477 H 0.32302 0.47126 0.0184 0.0
H2478 H 0.3213 0.53606 0.03137 0.0
H2479 H 0.30909 0.56387 0.04597 0.0
H2480 H 0.25703 0.55477 0.02046 0.0
H2481 H 0.26887 0.52674 0.00591 0.0
C2482 C 0.33067 0.49321 0.93326 0.0
C2483 C 0.31511 0.49526 0.92219 0.0
C2484 C 0.32919 0.49388 0.95226 0.0
C2485 C 0.3121 0.49639 0.96061 0.0
C2486 C 0.29661 0.49906 0.9496 0.0
C2487 C 0.29809 0.49847 0.93053 0.0
C2488 C 0.31051 0.49601 0.98084 0.0
C2489 C 0.30295 0.51115 0.98986 0.0
C2490 C 0.3175 0.48127 0.99126 0.0
C2491 C 0.32437 0.46426 0.98258 0.0
C2492 C 0.31334 0.45445 0.97026 0.0
C2493 C 0.31985 0.43843 0.96215 0.0
C2494 C 0.33733 0.432 0.96634 0.0
C2495 C 0.34836 0.4416 0.9786 0.0
C2496 C 0.34192 0.45764 0.98675 0.0
C2497 C 0.29735 0.50129 0.06948 0.0
C2498 C 0.31457 0.50077 0.07798 0.0
C2499 C 0.29594 0.50027 0.05041 0.0
C2500 C 0.31172 0.49858 0.03961 0.0
C2501 C 0.32886 0.4977 0.04812 0.0
C2502 C 0.33029 0.49889 0.0671 0.0
C2503 C 0.31059 0.49789 0.0194 0.0
C2504 C 0.31761 0.48251 0.01039 0.0
C2505 C 0.30301 0.51234 0.00902 0.0
C2506 C 0.2959 0.52919 0.01774 0.0
C2507 C 0.3072 0.5399 0.02901 0.0
C2508 C 0.30036 0.55572 0.03725 0.0
C2509 C 0.28228 0.56105 0.03419 0.0
C2510 C 0.27102 0.5506 0.02285 0.0
C2511 C 0.27779 0.53475 0.0146 0.0
H2512 H 0.27701 0.57331 0.04058 0.0
H2513 H 0.3423 0.41953 0.96014 0.0
H2514 H 0.50202 0.28775 0.92415 0.0
H2515 H 0.50074 0.28469 0.95749 0.0
H2516 H 0.50036 0.34343 0.96284 0.0
H2517 H 0.50216 0.34653 0.92973 0.0
H2518 H 0.52405 0.32954 0.98553 0.0
H2519 H 0.46149 0.31635 0.96958 0.0
H2520 H 0.43669 0.29996 0.9537 0.0
H2521 H 0.45364 0.24959 0.97857 0.0
H2522 H 0.4787 0.26566 0.99443 0.0
H2523 H 0.49108 0.34434 0.07472 0.0
H2524 H 0.49465 0.34191 0.04166 0.0
H2525 H 0.50237 0.28369 0.04654 0.0
H2526 H 0.49886 0.28601 0.07984 0.0
H2527 H 0.47723 0.2938 0.0191 0.0
H2528 H 0.53821 0.30856 0.03744 0.0
H2529 H 0.562 0.32594 0.05378 0.0
H2530 H 0.54702 0.37455 0.02453 0.0
H2531 H 0.52294 0.35752 0.00821 0.0
C2532 C 0.50148 0.29998 0.93246 0.0
C2533 C 0.50222 0.31737 0.92434 0.0
C2534 C 0.50072 0.29823 0.95151 0.0
C2535 C 0.50039 0.31384 0.9627 0.0
C2536 C 0.50072 0.33119 0.95452 0.0
C2537 C 0.50166 0.33294 0.93557 0.0
C2538 C 0.50029 0.31232 0.98295 0.0
C2539 C 0.5137 0.32185 0.99285 0.0
C2540 C 0.48714 0.30183 0.99253 0.0
C2541 C 0.47209 0.29217 0.98302 0.0
C2542 C 0.46002 0.30175 0.97154 0.0
C2543 C 0.4459 0.29253 0.96257 0.0
C2544 C 0.44363 0.27374 0.96508 0.0
C2545 C 0.45544 0.26414 0.97661 0.0
C2546 C 0.4696 0.2733 0.98561 0.0
C2547 C 0.49364 0.33102 0.06881 0.0
C2548 C 0.49473 0.31537 0.07988 0.0
C2549 C 0.49572 0.32966 0.04991 0.0
C2550 C 0.49888 0.31264 0.04168 0.0
C2551 C 0.49996 0.29695 0.05266 0.0
C2552 C 0.49804 0.29832 0.07165 0.0
C2553 C 0.50069 0.31139 0.02156 0.0
C2554 C 0.48767 0.30132 0.01172 0.0
C2555 C 0.51409 0.32151 0.012 0.0
C2556 C 0.52867 0.33178 0.0217 0.0
C2557 C 0.53989 0.32298 0.03459 0.0
C2558 C 0.55344 0.33277 0.04383 0.0
C2559 C 0.55599 0.35134 0.04022 0.0
C2560 C 0.54502 0.36016 0.02732 0.0
C2561 C 0.53143 0.35044 0.01805 0.0
H2562 H 0.56649 0.3589 0.0474 0.0
H2563 H 0.43269 0.26662 0.95812 0.0
H2564 H 0.70989 0.50169 0.92009 0.0
H2565 H 0.71216 0.49958 0.9534 0.0
H2566 H 0.65381 0.50678 0.95789 0.0
H2567 H 0.6515 0.50925 0.9247 0.0
H2568 H 0.67094 0.52809 0.98151 0.0
H2569 H 0.67437 0.46481 0.96411 0.0
H2570 H 0.68662 0.43811 0.9476 0.0
H2571 H 0.73901 0.4462 0.97277 0.0
H2572 H 0.72713 0.47312 0.98925 0.0
H2573 H 0.65346 0.49803 0.07129 0.0
H2574 H 0.65531 0.5006 0.0381 0.0
H2575 H 0.71415 0.49869 0.04101 0.0
H2576 H 0.71242 0.49612 0.07442 0.0
H2577 H 0.69946 0.47583 0.01395 0.0
H2578 H 0.69477 0.53823 0.03296 0.0
H2579 H 0.68165 0.56426 0.04985 0.0
H2580 H 0.63063 0.55717 0.02175 0.0
H2581 H 0.64336 0.53091 0.00488 0.0
C2582 C 0.69754 0.5027 0.92818 0.0
C2583 C 0.68051 0.50564 0.91977 0.0
C2584 C 0.69885 0.50144 0.94721 0.0
C2585 C 0.68314 0.50291 0.95815 0.0
C2586 C 0.66612 0.50566 0.94974 0.0
C2587 C 0.66481 0.507 0.93075 0.0
C2588 C 0.68436 0.50206 0.97839 0.0
C2589 C 0.67701 0.51656 0.98858 0.0
C2590 C 0.69275 0.48728 0.98764 0.0
C2591 C 0.69992 0.4711 0.97775 0.0
C2592 C 0.68855 0.46099 0.966 0.0
C2593 C 0.69542 0.4458 0.95667 0.0
C2594 C 0.7136 0.4405 0.95909 0.0
C2595 C 0.72494 0.45035 0.97088 0.0
C2596 C 0.71814 0.46556 0.98023 0.0
C2597 C 0.66681 0.49819 0.06491 0.0
C2598 C 0.68281 0.49693 0.07548 0.0
C2599 C 0.66784 0.49971 0.04594 0.0
C2600 C 0.68487 0.49999 0.03713 0.0
C2601 C 0.70088 0.49854 0.04758 0.0
C2602 C 0.69987 0.49715 0.06664 0.0
C2603 C 0.68577 0.50169 0.01697 0.0
C2604 C 0.69353 0.4874 0.00682 0.0
C2605 C 0.67766 0.51661 0.00774 0.0
C2606 C 0.66999 0.5325 0.01776 0.0
C2607 C 0.68071 0.54213 0.03047 0.0
C2608 C 0.67335 0.55695 0.04003 0.0
C2609 C 0.6553 0.56234 0.0369 0.0
C2610 C 0.6446 0.55297 0.02417 0.0
C2611 C 0.65189 0.53813 0.01459 0.0
H2612 H 0.64963 0.57381 0.04432 0.0
H2613 H 0.71889 0.42873 0.95186 0.0
H2614 H 0.50962 0.71061 0.9216 0.0
H2615 H 0.51439 0.7113 0.95478 0.0
H2616 H 0.4809 0.66306 0.96051 0.0
H2617 H 0.47696 0.66181 0.92746 0.0
H2618 H 0.49486 0.71522 0.98338 0.0
H2619 H 0.49481 0.63597 0.99388 0.0
H2620 H 0.5041 0.60833 0.97695 0.0
H2621 H 0.5419 0.64007 0.94522 0.0
H2622 H 0.53309 0.66782 0.96215 0.0
H2623 H 0.48381 0.69749 0.07786 0.0
H2624 H 0.48126 0.69957 0.04452 0.0
H2625 H 0.53229 0.67035 0.03894 0.0
H2626 H 0.53392 0.66698 0.07206 0.0
H2627 H 0.51265 0.65816 0.01533 0.0
H2628 H 0.52606 0.71957 0.0316 0.0
H2629 H 0.52277 0.74893 0.04782 0.0
H2630 H 0.46913 0.75584 0.02507 0.0
H2631 H 0.472 0.72641 0.00888 0.0
C2632 C 0.50332 0.70018 0.93 0.0
C2633 C 0.49313 0.68602 0.92199 0.0
C2634 C 0.506 0.7006 0.94894 0.0
C2635 C 0.49832 0.68701 0.96016 0.0
C2636 C 0.48744 0.67338 0.95215 0.0
C2637 C 0.48512 0.67272 0.93325 0.0
C2638 C 0.50183 0.6868 0.98018 0.0
C2639 C 0.49883 0.70277 0.99038 0.0
C2640 C 0.5076 0.67073 0.9893 0.0
C2641 C 0.51314 0.65401 0.97919 0.0
C2642 C 0.50517 0.63703 0.98335 0.0
C2643 C 0.51035 0.62135 0.97375 0.0
C2644 C 0.52355 0.62244 0.95999 0.0
C2645 C 0.53165 0.63923 0.95584 0.0
C2646 C 0.52655 0.65495 0.96544 0.0
C2647 C 0.49441 0.69153 0.06941 0.0
C2648 C 0.50901 0.68203 0.07741 0.0
C2649 C 0.49308 0.69286 0.05037 0.0
C2650 C 0.50675 0.68539 0.03905 0.0
C2651 C 0.52147 0.67614 0.04722 0.0
C2652 C 0.52244 0.67425 0.06617 0.0
C2653 C 0.50548 0.68656 0.01873 0.0
C2654 C 0.50883 0.6707 0.00842 0.0
C2655 C 0.50099 0.70299 0.00947 0.0
C2656 C 0.49919 0.7207 0.01916 0.0
C2657 C 0.51351 0.72729 0.03015 0.0
C2658 C 0.51173 0.74396 0.03933 0.0
C2659 C 0.49573 0.75422 0.03751 0.0
C2660 C 0.4815 0.74787 0.02648 0.0
C2661 C 0.48321 0.7312 0.01729 0.0
H2662 H 0.49438 0.76712 0.04462 0.0
H2663 H 0.52754 0.61028 0.95259 0.0
H2664 H 0.19933 0.30648 0.48441 0.0
H2665 H 0.21963 0.28025 0.48134 0.0
H2666 H 0.18407 0.24857 0.51619 0.0
H2667 H 0.16322 0.27462 0.51857 0.0
H2668 H 0.23936 0.26421 0.50411 0.0
H2669 H 0.18842 0.20324 0.50772 0.0
H2670 H 0.15684 0.19596 0.49841 0.0
H2671 H 0.15946 0.23688 0.45644 0.0
H2672 H 0.19112 0.24423 0.46533 0.0
H2673 H 0.29306 0.18744 0.51965 0.0
H2674 H 0.26792 0.20933 0.52255 0.0
H2675 H 0.24734 0.19256 0.46982 0.0
H2676 H 0.27183 0.16975 0.46761 0.0
H2677 H 0.21991 0.20091 0.48965 0.0
H2678 H 0.27617 0.23097 0.47595 0.0
H2679 H 0.30864 0.239 0.48007 0.0
H2680 H 0.29658 0.26197 0.53271 0.0
H2681 H 0.26407 0.25383 0.52901 0.0
C2682 C 0.19575 0.29387 0.4913 0.0
C2683 C 0.17969 0.29259 0.50173 0.0
C2684 C 0.20739 0.27888 0.48957 0.0
C2685 C 0.2034 0.26234 0.49844 0.0
C2686 C 0.18731 0.26102 0.50888 0.0
C2687 C 0.17543 0.27594 0.51031 0.0
C2688 C 0.21653 0.24686 0.49735 0.0
C2689 C 0.23505 0.25039 0.50092 0.0
C2690 C 0.21107 0.22883 0.49287 0.0
C2691 C 0.19207 0.22442 0.48735 0.0
C2692 C 0.18227 0.21064 0.49648 0.0
C2693 C 0.16436 0.20651 0.49127 0.0
C2694 C 0.15613 0.216 0.47689 0.0
C2695 C 0.16582 0.2296 0.46763 0.0
C2696 C 0.18374 0.23377 0.47276 0.0
C2697 C 0.2829 0.18824 0.50891 0.0
C2698 C 0.28425 0.17707 0.49342 0.0
C2699 C 0.26864 0.2008 0.51047 0.0
C2700 C 0.256 0.20299 0.49617 0.0
C2701 C 0.25693 0.1912 0.48102 0.0
C2702 C 0.2709 0.17821 0.47973 0.0
C2703 C 0.24265 0.21832 0.49647 0.0
C2704 C 0.22415 0.21475 0.49283 0.0
C2705 C 0.24821 0.23652 0.50009 0.0
C2706 C 0.26772 0.24165 0.50227 0.0
C2707 C 0.28046 0.23765 0.48844 0.0
C2708 C 0.29887 0.24222 0.4907 0.0
C2709 C 0.30468 0.25096 0.50666 0.0
C2710 C 0.29207 0.25519 0.52036 0.0
C2711 C 0.27365 0.25061 0.51819 0.0
H2712 H 0.31894 0.25448 0.50838 0.0
H2713 H 0.14226 0.21278 0.47288 0.0
H2714 H 0.72955 0.15621 0.50258 0.0
H2715 H 0.75625 0.17605 0.49879 0.0
H2716 H 0.72571 0.22145 0.52065 0.0
H2717 H 0.69899 0.20185 0.52443 0.0
H2718 H 0.7592 0.20784 0.47778 0.0
H2719 H 0.75511 0.2473 0.54619 0.0
H2720 H 0.74521 0.24196 0.57797 0.0
H2721 H 0.7558 0.18457 0.57195 0.0
H2722 H 0.76602 0.1896 0.54024 0.0
H2723 H 0.79775 0.29688 0.47858 0.0
H2724 H 0.7782 0.27016 0.48277 0.0
H2725 H 0.82205 0.2421 0.51034 0.0
H2726 H 0.84198 0.26873 0.50583 0.0
H2727 H 0.78648 0.24271 0.52917 0.0
H2728 H 0.81367 0.22672 0.4719 0.0
H2729 H 0.82355 0.23207 0.44014 0.0
H2730 H 0.76789 0.24137 0.42407 0.0
H2731 H 0.75769 0.23636 0.45582 0.0
C2732 C 0.72854 0.17039 0.5067 0.0
C2733 C 0.71211 0.17743 0.51381 0.0
C2734 C 0.74379 0.1817 0.50445 0.0
C2735 C 0.74297 0.20016 0.50956 0.0
C2736 C 0.72667 0.20719 0.5168 0.0
C2737 C 0.71139 0.19596 0.51888 0.0
C2738 C 0.75894 0.21232 0.50687 0.0
C2739 C 0.76527 0.21535 0.48902 0.0
C2740 C 0.76697 0.22195 0.52159 0.0
C2741 C 0.76121 0.21883 0.54078 0.0
C2742 C 0.75543 0.23356 0.55168 0.0
C2743 C 0.74974 0.23058 0.56968 0.0
C2744 C 0.74983 0.21293 0.57696 0.0
C2745 C 0.75568 0.19822 0.56628 0.0
C2746 C 0.7614 0.20113 0.54828 0.0
C2747 C 0.80333 0.28499 0.4854 0.0
C2748 C 0.82144 0.28491 0.49185 0.0
C2749 C 0.79214 0.26973 0.48774 0.0
C2750 C 0.79872 0.2542 0.49682 0.0
C2751 C 0.81677 0.25399 0.50326 0.0
C2752 C 0.82813 0.26916 0.50061 0.0
C2753 C 0.78636 0.23853 0.50005 0.0
C2754 C 0.78062 0.23495 0.51798 0.0
C2755 C 0.77889 0.22837 0.48542 0.0
C2756 C 0.78494 0.2313 0.46628 0.0
C2757 C 0.80355 0.23006 0.46163 0.0
C2758 C 0.8092 0.233 0.44362 0.0
C2759 C 0.79636 0.23709 0.4301 0.0
C2760 C 0.77782 0.23821 0.43456 0.0
C2761 C 0.7721 0.2353 0.45256 0.0
H2762 H 0.80076 0.23937 0.41616 0.0
H2763 H 0.7454 0.21065 0.59089 0.0
H2764 H 0.84184 0.72888 0.50522 0.0
H2765 H 0.8204 0.75424 0.50115 0.0
H2766 H 0.77541 0.71619 0.50016 0.0
H2767 H 0.79658 0.69082 0.50415 0.0
H2768 H 0.77348 0.74108 0.47238 0.0
H2769 H 0.78395 0.74127 0.53769 0.0
H2770 H 0.80297 0.74282 0.56547 0.0
H2771 H 0.82261 0.79574 0.54942 0.0
H2772 H 0.80389 0.79438 0.5214 0.0
H2773 H 0.69481 0.79264 0.48724 0.0
H2774 H 0.72035 0.77162 0.49032 0.0
H2775 H 0.75786 0.81703 0.4925 0.0
H2776 H 0.7322 0.83838 0.48974 0.0
H2777 H 0.76649 0.79112 0.51761 0.0
H2778 H 0.75402 0.79237 0.45377 0.0
H2779 H 0.73482 0.79117 0.42611 0.0
H2780 H 0.71944 0.73599 0.43882 0.0
H2781 H 0.73831 0.73696 0.46673 0.0
C2782 C 0.82738 0.72589 0.50418 0.0
C2783 C 0.82097 0.70776 0.50501 0.0
C2784 C 0.81515 0.74042 0.5019 0.0
C2785 C 0.79632 0.73709 0.50041 0.0
C2786 C 0.7899 0.71905 0.50123 0.0
C2787 C 0.80206 0.70455 0.50357 0.0
C2788 C 0.78315 0.75227 0.49781 0.0
C2789 C 0.77186 0.75195 0.48233 0.0
C2790 C 0.78149 0.76678 0.51049 0.0
C2791 C 0.7927 0.76762 0.52735 0.0
C2792 C 0.79245 0.75316 0.54 0.0
C2793 C 0.80315 0.75402 0.55581 0.0
C2794 C 0.81403 0.76934 0.55918 0.0
C2795 C 0.8142 0.78386 0.54677 0.0
C2796 C 0.80354 0.78306 0.53093 0.0
C2797 C 0.70845 0.79826 0.48838 0.0
C2798 C 0.71141 0.81726 0.48812 0.0
C2799 C 0.72307 0.78617 0.49007 0.0
C2800 C 0.74104 0.79274 0.49132 0.0
C2801 C 0.7441 0.81167 0.49146 0.0
C2802 C 0.72941 0.82384 0.48984 0.0
C2803 C 0.7565 0.77965 0.49241 0.0
C2804 C 0.76826 0.78038 0.50754 0.0
C2805 C 0.75868 0.76554 0.47935 0.0
C2806 C 0.7475 0.76479 0.46242 0.0
C2807 C 0.74646 0.78002 0.45073 0.0
C2808 C 0.73564 0.77937 0.435 0.0
C2809 C 0.72589 0.76352 0.43073 0.0
C2810 C 0.72699 0.74826 0.44215 0.0
C2811 C 0.73777 0.74884 0.45792 0.0
H2812 H 0.71751 0.76306 0.41855 0.0
H2813 H 0.8223 0.76999 0.57143 0.0
H2814 H 0.16215 0.72971 0.49315 0.0
H2815 H 0.18365 0.75512 0.49659 0.0
H2816 H 0.22882 0.71736 0.49416 0.0
H2817 H 0.20761 0.69196 0.49079 0.0
H2818 H 0.23193 0.74111 0.52268 0.0
H2819 H 0.21851 0.7438 0.45805 0.0
H2820 H 0.19836 0.74631 0.43115 0.0
H2821 H 0.17921 0.79848 0.44999 0.0
H2822 H 0.19907 0.79616 0.47715 0.0
H2823 H 0.3095 0.79378 0.50625 0.0
H2824 H 0.28395 0.77278 0.50311 0.0
H2825 H 0.24612 0.81789 0.50572 0.0
H2826 H 0.27176 0.83925 0.50861 0.0
H2827 H 0.23654 0.79303 0.47929 0.0
H2828 H 0.25199 0.79165 0.54255 0.0
H2829 H 0.27269 0.78945 0.56904 0.0
H2830 H 0.28783 0.73505 0.5531 0.0
H2831 H 0.26745 0.73703 0.52632 0.0
C2832 C 0.17666 0.7268 0.49325 0.0
C2833 C 0.18311 0.70873 0.49174 0.0
C2834 C 0.18892 0.74136 0.49518 0.0
C2835 C 0.20783 0.73811 0.49561 0.0
C2836 C 0.21428 0.72015 0.49393 0.0
C2837 C 0.20209 0.70564 0.49195 0.0
C2838 C 0.22103 0.75326 0.49819 0.0
C2839 C 0.23302 0.7524 0.51312 0.0
C2840 C 0.22203 0.76829 0.48605 0.0
C2841 C 0.21011 0.7697 0.46974 0.0
C2842 C 0.20987 0.75573 0.45654 0.0
C2843 C 0.19853 0.75713 0.44123 0.0
C2844 C 0.18746 0.77251 0.4389 0.0
C2845 C 0.18776 0.78655 0.45184 0.0
C2846 C 0.19906 0.7852 0.46719 0.0
C2847 C 0.29579 0.79935 0.50613 0.0
C2848 C 0.29273 0.81826 0.50782 0.0
C2849 C 0.28117 0.78727 0.50438 0.0
C2850 C 0.26313 0.79374 0.50447 0.0
C2851 C 0.25995 0.81261 0.5057 0.0
C2852 C 0.27462 0.82478 0.50741 0.0
C2853 C 0.24773 0.7806 0.50351 0.0
C2854 C 0.23529 0.78187 0.48897 0.0
C2855 C 0.24625 0.76594 0.51604 0.0
C2856 C 0.25827 0.76454 0.53234 0.0
C2857 C 0.25981 0.77925 0.54463 0.0
C2858 C 0.27148 0.77804 0.5597 0.0
C2859 C 0.28159 0.76213 0.56273 0.0
C2860 C 0.28 0.74737 0.55073 0.0
C2861 C 0.26837 0.74852 0.5356 0.0
H2862 H 0.29064 0.76124 0.5744 0.0
H2863 H 0.17869 0.77358 0.42703 0.0
H2864 H 0.50565 0.15796 0.27123 0.0
H2865 H 0.50176 0.17894 0.24536 0.0
H2866 H 0.50057 0.22464 0.28256 0.0
H2867 H 0.50431 0.20402 0.30829 0.0
H2868 H 0.47295 0.22637 0.25821 0.0
H2869 H 0.53826 0.21507 0.25707 0.0
H2870 H 0.56572 0.19564 0.25502 0.0
H2871 H 0.54839 0.17615 0.20245 0.0
H2872 H 0.52069 0.1953 0.2043 0.0
H2873 H 0.48859 0.30536 0.2074 0.0
H2874 H 0.49161 0.27952 0.2281 0.0
H2875 H 0.49255 0.2425 0.18226 0.0
H2876 H 0.48986 0.26841 0.16125 0.0
H2877 H 0.51779 0.23301 0.20777 0.0
H2878 H 0.45417 0.24685 0.20737 0.0
H2879 H 0.42701 0.26672 0.20912 0.0
H2880 H 0.44072 0.28112 0.26433 0.0
H2881 H 0.46814 0.26157 0.26281 0.0
C2882 C 0.50465 0.17248 0.27389 0.0
C2883 C 0.50523 0.17924 0.2919 0.0
C2884 C 0.50245 0.18445 0.25908 0.0
C2885 C 0.50087 0.20336 0.26204 0.0
C2886 C 0.50164 0.2101 0.27995 0.0
C2887 C 0.50383 0.19823 0.29468 0.0
C2888 C 0.49812 0.21635 0.2467 0.0
C2889 C 0.48281 0.22788 0.24723 0.0
C2890 C 0.51065 0.21791 0.23205 0.0
C2891 C 0.52731 0.20644 0.23092 0.0
C2892 C 0.54023 0.20652 0.24514 0.0
C2893 C 0.55585 0.19558 0.24401 0.0
C2894 C 0.55877 0.18462 0.22865 0.0
C2895 C 0.54609 0.18462 0.21436 0.0
C2896 C 0.53044 0.19551 0.21544 0.0
C2897 C 0.48946 0.29176 0.20162 0.0
C2898 C 0.48886 0.28901 0.1826 0.0
C2899 C 0.49112 0.27697 0.21353 0.0
C2900 C 0.49199 0.25905 0.20675 0.0
C2901 C 0.49182 0.25621 0.18778 0.0
C2902 C 0.49023 0.27105 0.1758 0.0
C2903 C 0.49292 0.2434 0.21963 0.0
C2904 C 0.5078 0.23133 0.2186 0.0
C2905 C 0.47995 0.24128 0.23384 0.0
C2906 C 0.46328 0.25282 0.23493 0.0
C2907 C 0.45145 0.25433 0.21985 0.0
C2908 C 0.43601 0.26554 0.2208 0.0
C2909 C 0.43216 0.2752 0.23681 0.0
C2910 C 0.44372 0.27363 0.25193 0.0
C2911 C 0.45921 0.26247 0.25104 0.0
H2912 H 0.42021 0.28388 0.23752 0.0
H2913 H 0.57087 0.17616 0.22779 0.0
H2914 H 0.84106 0.50219 0.26914 0.0
H2915 H 0.82117 0.4988 0.24242 0.0
H2916 H 0.77414 0.49549 0.27781 0.0
H2917 H 0.79374 0.49862 0.30445 0.0
H2918 H 0.77293 0.4696 0.25203 0.0
H2919 H 0.78506 0.53477 0.25454 0.0
H2920 H 0.80492 0.56201 0.25462 0.0
H2921 H 0.82637 0.5469 0.20213 0.0
H2922 H 0.8068 0.51942 0.20185 0.0
H2923 H 0.6953 0.49341 0.20298 0.0
H2924 H 0.7216 0.49312 0.22322 0.0
H2925 H 0.75782 0.49259 0.17674 0.0
H2926 H 0.73137 0.49305 0.15611 0.0
H2927 H 0.76864 0.51718 0.2039 0.0
H2928 H 0.75257 0.45427 0.19973 0.0
H2929 H 0.73171 0.42782 0.19975 0.0
H2930 H 0.71722 0.43887 0.25552 0.0
H2931 H 0.73778 0.46557 0.25577 0.0
C2932 C 0.82648 0.50076 0.27124 0.0
C2933 C 0.81904 0.50067 0.28899 0.0
C2934 C 0.81514 0.49886 0.25594 0.0
C2935 C 0.79616 0.49696 0.25813 0.0
C2936 C 0.78875 0.49684 0.2758 0.0
C2937 C 0.80002 0.49869 0.29104 0.0
C2938 C 0.78378 0.49512 0.24217 0.0
C2939 C 0.77196 0.48003 0.24154 0.0
C2940 C 0.78294 0.50841 0.22813 0.0
C2941 C 0.79465 0.52494 0.22828 0.0
C2942 C 0.79413 0.53718 0.24308 0.0
C2943 C 0.80531 0.55267 0.24315 0.0
C2944 C 0.81695 0.55615 0.22842 0.0
C2945 C 0.81738 0.54416 0.21355 0.0
C2946 C 0.80625 0.52864 0.21343 0.0
C2947 C 0.70881 0.49325 0.19694 0.0
C2948 C 0.71116 0.4932 0.17785 0.0
C2949 C 0.72386 0.493 0.20858 0.0
C2950 C 0.74165 0.49258 0.20148 0.0
C2951 C 0.74417 0.49282 0.18247 0.0
C2952 C 0.72905 0.49302 0.17072 0.0
C2953 C 0.75741 0.49199 0.21419 0.0
C2954 C 0.76987 0.50657 0.21418 0.0
C2955 C 0.75884 0.47824 0.2277 0.0
C2956 C 0.74667 0.46199 0.22773 0.0
C2957 C 0.74486 0.45113 0.21197 0.0
C2958 C 0.7331 0.43608 0.21194 0.0
C2959 C 0.72313 0.43168 0.22762 0.0
C2960 C 0.72495 0.44229 0.24339 0.0
C2961 C 0.73668 0.45737 0.24349 0.0
H2962 H 0.71401 0.42003 0.22756 0.0
H2963 H 0.82559 0.56815 0.22849 0.0
H2964 H 0.51303 0.69196 0.20532 0.0
H2965 H 0.50788 0.71769 0.22577 0.0
H2966 H 0.50127 0.75356 0.17949 0.0
H2967 H 0.50654 0.72782 0.15874 0.0
H2968 H 0.52299 0.76867 0.20643 0.0
H2969 H 0.46427 0.74062 0.20241 0.0
H2970 H 0.44221 0.71516 0.20293 0.0
H2971 H 0.45574 0.70415 0.25896 0.0
H2972 H 0.47808 0.72938 0.2587 0.0
H2973 H 0.49315 0.83877 0.269 0.0
H2974 H 0.49429 0.81773 0.24294 0.0
H2975 H 0.49874 0.77208 0.27997 0.0
H2976 H 0.49728 0.79273 0.30588 0.0
H2977 H 0.47481 0.76475 0.25398 0.0
H2978 H 0.53609 0.78989 0.25676 0.0
H2979 H 0.55886 0.81474 0.25638 0.0
H2980 H 0.5408 0.83089 0.20293 0.0
H2981 H 0.51775 0.80626 0.20309 0.0
C2982 C 0.51046 0.70528 0.19939 0.0
C2983 C 0.51009 0.70774 0.18032 0.0
C2984 C 0.50746 0.71999 0.21115 0.0
C2985 C 0.50395 0.73749 0.20415 0.0
C2986 C 0.50389 0.74014 0.18516 0.0
C2987 C 0.50685 0.72538 0.17333 0.0
C2988 C 0.50042 0.7529 0.21684 0.0
C2989 C 0.51223 0.76802 0.21661 0.0
C2990 C 0.4865 0.75193 0.23023 0.0
C2991 C 0.47295 0.73683 0.2305 0.0
C2992 C 0.46263 0.7327 0.21481 0.0
C2993 C 0.45006 0.71831 0.21506 0.0
C2994 C 0.44759 0.70803 0.23096 0.0
C2995 C 0.45766 0.71213 0.24665 0.0
C2996 C 0.47027 0.72649 0.24647 0.0
C2997 C 0.49436 0.82425 0.27159 0.0
C2998 C 0.49515 0.8175 0.28959 0.0
C2999 C 0.49506 0.81225 0.25667 0.0
C3000 C 0.49671 0.79332 0.2595 0.0
C3001 C 0.4974 0.78661 0.27743 0.0
C3002 C 0.49663 0.79851 0.29227 0.0
C3003 C 0.49776 0.78025 0.24399 0.0
C3004 C 0.4854 0.76558 0.24364 0.0
C3005 C 0.51121 0.78162 0.23014 0.0
C3006 C 0.52506 0.79639 0.23003 0.0
C3007 C 0.53688 0.79884 0.24499 0.0
C3008 C 0.54985 0.81287 0.2448 0.0
C3009 C 0.55123 0.82443 0.22966 0.0
C3010 C 0.53968 0.82195 0.21466 0.0
C3011 C 0.52667 0.80796 0.21479 0.0
H3012 H 0.56129 0.83527 0.22954 0.0
H3013 H 0.43786 0.69689 0.23112 0.0
H3014 H 0.15853 0.49591 0.27023 0.0
H3015 H 0.18016 0.49945 0.24496 0.0
H3016 H 0.22515 0.4923 0.28235 0.0
H3017 H 0.20378 0.48892 0.30764 0.0
H3018 H 0.23079 0.52096 0.25991 0.0
H3019 H 0.21157 0.45802 0.25393 0.0
H3020 H 0.18903 0.43323 0.25023 0.0
H3021 H 0.17129 0.45656 0.19939 0.0
H3022 H 0.19357 0.48164 0.20292 0.0
H3023 H 0.30629 0.49964 0.20566 0.0
H3024 H 0.28069 0.49862 0.22679 0.0
H3025 H 0.24307 0.50638 0.18211 0.0
H3026 H 0.26874 0.50712 0.16059 0.0
H3027 H 0.23113 0.48015 0.20575 0.0
H3028 H 0.25251 0.5415 0.21029 0.0
H3029 H 0.27546 0.56591 0.21381 0.0
H3030 H 0.28909 0.54581 0.26723 0.0
H3031 H 0.26642 0.5211 0.26392 0.0
C3032 C 0.17302 0.49504 0.27309 0.0
C3033 C 0.17937 0.49215 0.29103 0.0
C3034 C 0.18537 0.49702 0.2586 0.0
C3035 C 0.20427 0.49607 0.26176 0.0
C3036 C 0.21062 0.49316 0.27961 0.0
C3037 C 0.19834 0.49117 0.29406 0.0
C3038 C 0.2176 0.49826 0.24661 0.0
C3039 C 0.23094 0.51195 0.24813 0.0
C3040 C 0.21743 0.4869 0.23095 0.0
C3041 C 0.20408 0.47181 0.2288 0.0
C3042 C 0.20275 0.45795 0.24204 0.0
C3043 C 0.19005 0.44383 0.23996 0.0
C3044 C 0.1787 0.44336 0.22461 0.0
C3045 C 0.18006 0.45697 0.21129 0.0
C3046 C 0.19273 0.47113 0.21332 0.0
C3047 C 0.29261 0.50114 0.20021 0.0
C3048 C 0.28964 0.50355 0.18135 0.0
C3049 C 0.27796 0.50063 0.21238 0.0
C3050 C 0.25998 0.50271 0.20608 0.0
C3051 C 0.25685 0.50483 0.18726 0.0
C3052 C 0.27156 0.50531 0.175 0.0
C3053 C 0.24458 0.50255 0.2193 0.0
C3054 C 0.23084 0.48931 0.21741 0.0
C3055 C 0.24434 0.51435 0.23464 0.0
C3056 C 0.25783 0.52936 0.2368 0.0
C3057 C 0.26047 0.54222 0.22275 0.0
C3058 C 0.27343 0.55611 0.22471 0.0
C3059 C 0.28375 0.55739 0.24072 0.0
C3060 C 0.2811 0.5448 0.25483 0.0
C3061 C 0.26817 0.53086 0.25293 0.0
H3062 H 0.29379 0.56815 0.2422 0.0
H3063 H 0.16887 0.43242 0.22302 0.0
H3064 H 0.48656 0.73386 0.84058 0.0
H3065 H 0.49094 0.76011 0.82023 0.0
H3066 H 0.5001 0.72357 0.77492 0.0
H3067 H 0.49577 0.69738 0.79496 0.0
H3068 H 0.52612 0.75063 0.77709 0.0
H3069 H 0.46029 0.74501 0.77902 0.0
H3070 H 0.43024 0.74375 0.79422 0.0
H3071 H 0.43886 0.7974 0.81636 0.0
H3072 H 0.46911 0.79886 0.80149 0.0
H3073 H 0.51276 0.7994 0.69617 0.0
H3074 H 0.51037 0.77882 0.72217 0.0
H3075 H 0.50262 0.82477 0.75824 0.0
H3076 H 0.50493 0.84568 0.73211 0.0
H3077 H 0.47783 0.79656 0.7646 0.0
H3078 H 0.54223 0.80357 0.75938 0.0
H3079 H 0.57197 0.80481 0.74359 0.0
H3080 H 0.56618 0.74866 0.72761 0.0
H3081 H 0.53626 0.74715 0.74306 0.0
C3082 C 0.48944 0.73141 0.82627 0.0
C3083 C 0.49082 0.71347 0.81944 0.0
C3084 C 0.49191 0.74643 0.81467 0.0
C3085 C 0.49585 0.74377 0.79608 0.0
C3086 C 0.49715 0.72592 0.78924 0.0
C3087 C 0.49458 0.71095 0.80074 0.0
C3088 C 0.49881 0.75944 0.78359 0.0
C3089 C 0.51554 0.76063 0.77429 0.0
C3090 C 0.48521 0.77282 0.78041 0.0
C3091 C 0.46705 0.77195 0.78934 0.0
C3092 C 0.45586 0.75646 0.78728 0.0
C3093 C 0.43878 0.75573 0.7958 0.0
C3094 C 0.43267 0.77046 0.8063 0.0
C3095 C 0.44362 0.78598 0.80826 0.0
C3096 C 0.46073 0.78677 0.79978 0.0
C3097 C 0.51059 0.80523 0.7096 0.0
C3098 C 0.50906 0.82424 0.71202 0.0
C3099 C 0.50931 0.79341 0.72448 0.0
C3100 C 0.50649 0.80028 0.74215 0.0
C3101 C 0.50485 0.81922 0.7447 0.0
C3102 C 0.50626 0.83113 0.72977 0.0
C3103 C 0.50496 0.78743 0.75775 0.0
C3104 C 0.48854 0.78677 0.76764 0.0
C3105 C 0.51885 0.77451 0.76151 0.0
C3106 C 0.53693 0.77529 0.7523 0.0
C3107 C 0.54723 0.79152 0.75239 0.0
C3108 C 0.56413 0.79227 0.74352 0.0
C3109 C 0.57094 0.77683 0.73458 0.0
C3110 C 0.56088 0.76061 0.73454 0.0
C3111 C 0.54396 0.75979 0.74338 0.0
H3112 H 0.58403 0.77744 0.72771 0.0
H3113 H 0.41944 0.76987 0.81289 0.0
H3114 H 0.26723 0.49383 0.84197 0.0
H3115 H 0.24102 0.49802 0.8216 0.0
H3116 H 0.27602 0.49012 0.77483 0.0
H3117 H 0.30221 0.48612 0.79491 0.0
H3118 H 0.25425 0.51914 0.77013 0.0
H3119 H 0.24729 0.45647 0.79019 0.0
H3120 H 0.24372 0.43199 0.81309 0.0
H3121 H 0.19429 0.45696 0.83251 0.0
H3122 H 0.19771 0.48173 0.80987 0.0
H3123 H 0.2 0.49629 0.69631 0.0
H3124 H 0.22035 0.49396 0.7224 0.0
H3125 H 0.17611 0.50809 0.75866 0.0
H3126 H 0.15531 0.51039 0.7324 0.0
H3127 H 0.19924 0.4795 0.77198 0.0
H3128 H 0.20454 0.54017 0.74867 0.0
H3129 H 0.20781 0.56322 0.72432 0.0
H3130 H 0.26053 0.54152 0.71043 0.0
H3131 H 0.25742 0.51809 0.73446 0.0
C3132 C 0.26935 0.49292 0.82735 0.0
C3133 C 0.28689 0.48966 0.82012 0.0
C3134 C 0.25433 0.49529 0.81573 0.0
C3135 C 0.25655 0.49433 0.79669 0.0
C3136 C 0.27399 0.49101 0.78947 0.0
C3137 C 0.28897 0.48867 0.80102 0.0
C3138 C 0.24087 0.49692 0.78407 0.0
C3139 C 0.24226 0.51042 0.77052 0.0
C3140 C 0.22494 0.48594 0.78491 0.0
C3141 C 0.22288 0.47106 0.7985 0.0
C3142 C 0.23575 0.45682 0.79945 0.0
C3143 C 0.23374 0.44288 0.81236 0.0
C3144 C 0.21882 0.44295 0.82429 0.0
C3145 C 0.20586 0.45694 0.82329 0.0
C3146 C 0.20782 0.47093 0.81042 0.0
C3147 C 0.19444 0.49882 0.70979 0.0
C3148 C 0.176 0.50374 0.71219 0.0
C3149 C 0.20615 0.49748 0.72471 0.0
C3150 C 0.1998 0.50114 0.74241 0.0
C3151 C 0.18126 0.5053 0.74507 0.0
C3152 C 0.16943 0.50664 0.73005 0.0
C3153 C 0.21296 0.50131 0.75779 0.0
C3154 C 0.21108 0.48842 0.77185 0.0
C3155 C 0.22849 0.51283 0.75743 0.0
C3156 C 0.23069 0.52729 0.74333 0.0
C3157 C 0.2168 0.54025 0.74037 0.0
C3158 C 0.21862 0.55338 0.72661 0.0
C3159 C 0.23436 0.55382 0.71582 0.0
C3160 C 0.24834 0.54116 0.71881 0.0
C3161 C 0.24656 0.52796 0.73251 0.0
H3162 H 0.23572 0.56397 0.70515 0.0
H3163 H 0.21728 0.43215 0.83427 0.0
H3164 H 0.49244 0.21 0.69389 0.0
H3165 H 0.49663 0.23073 0.71956 0.0
H3166 H 0.49548 0.18521 0.75694 0.0
H3167 H 0.49123 0.16416 0.73123 0.0
H3168 H 0.47523 0.21532 0.76919 0.0
H3169 H 0.53534 0.20295 0.7468 0.0
H3170 H 0.55934 0.19987 0.72335 0.0
H3171 H 0.55397 0.25673 0.70992 0.0
H3172 H 0.52973 0.2601 0.73311 0.0
H3173 H 0.5075 0.27268 0.84173 0.0
H3174 H 0.50477 0.24738 0.82003 0.0
H3175 H 0.50909 0.28532 0.77512 0.0
H3176 H 0.51214 0.31055 0.79656 0.0
H3177 H 0.52955 0.25594 0.76899 0.0
H3178 H 0.4677 0.26772 0.78885 0.0
H3179 H 0.44302 0.27111 0.81156 0.0
H3180 H 0.45127 0.21577 0.82924 0.0
H3181 H 0.47618 0.21213 0.80678 0.0
C3182 C 0.49299 0.2043 0.70754 0.0
C3183 C 0.49165 0.18533 0.71043 0.0
C3184 C 0.49544 0.21621 0.72221 0.0
C3185 C 0.49665 0.20947 0.74011 0.0
C3186 C 0.49468 0.19065 0.74319 0.0
C3187 C 0.49228 0.17866 0.72847 0.0
C3188 C 0.50031 0.22221 0.75543 0.0
C3189 C 0.48727 0.22398 0.76937 0.0
C3190 C 0.51589 0.23366 0.75546 0.0
C3191 C 0.53061 0.23174 0.74162 0.0
C3192 C 0.53918 0.21477 0.73876 0.0
C3193 C 0.55284 0.21298 0.72552 0.0
C3194 C 0.55815 0.22808 0.71512 0.0
C3195 C 0.54984 0.24503 0.71798 0.0
C3196 C 0.53615 0.2469 0.73119 0.0
C3197 C 0.50793 0.27565 0.82724 0.0
C3198 C 0.50996 0.29371 0.82094 0.0
C3199 C 0.50629 0.26116 0.81485 0.0
C3200 C 0.50654 0.26447 0.79594 0.0
C3201 C 0.50887 0.28242 0.78964 0.0
C3202 C 0.51054 0.29687 0.80197 0.0
C3203 C 0.50426 0.24939 0.78256 0.0
C3204 C 0.51761 0.24714 0.76897 0.0
C3205 C 0.48893 0.23757 0.78283 0.0
C3206 C 0.47394 0.23972 0.7963 0.0
C3207 C 0.46435 0.25632 0.79769 0.0
C3208 C 0.45031 0.25828 0.81049 0.0
C3209 C 0.44562 0.24368 0.82188 0.0
C3210 C 0.45494 0.22707 0.82044 0.0
C3211 C 0.46902 0.22505 0.80767 0.0
H3212 H 0.43474 0.24522 0.83178 0.0
H3213 H 0.56872 0.22666 0.70488 0.0
H3214 H 0.69371 0.50973 0.79273 0.0
H3215 H 0.72003 0.50515 0.77299 0.0
H3216 H 0.75579 0.50609 0.8198 0.0
H3217 H 0.72935 0.51074 0.83992 0.0
H3218 H 0.76913 0.52639 0.78989 0.0
H3219 H 0.74712 0.46636 0.8018 0.0
H3220 H 0.72396 0.44208 0.80486 0.0
H3221 H 0.71068 0.44715 0.74793 0.0
H3222 H 0.73356 0.47167 0.74458 0.0
H3223 H 0.83977 0.49601 0.72762 0.0
H3224 H 0.81984 0.49753 0.75456 0.0
H3225 H 0.77242 0.49589 0.71959 0.0
H3226 H 0.79199 0.49425 0.69283 0.0
H3227 H 0.76895 0.47282 0.74829 0.0
H3228 H 0.78742 0.53574 0.73783 0.0
H3229 H 0.8099 0.56065 0.73465 0.0
H3230 H 0.82971 0.55008 0.78887 0.0
H3231 H 0.80748 0.52493 0.79227 0.0
C3232 C 0.70713 0.50902 0.79895 0.0
C3233 C 0.70934 0.51047 0.818 0.0
C3234 C 0.72218 0.50634 0.78759 0.0
C3235 C 0.73981 0.50501 0.79496 0.0
C3236 C 0.74225 0.50699 0.81388 0.0
C3237 C 0.72712 0.50961 0.82533 0.0
C3238 C 0.7555 0.50132 0.78268 0.0
C3239 C 0.76936 0.51447 0.78106 0.0
C3240 C 0.75566 0.48585 0.77109 0.0
C3241 C 0.742 0.47095 0.77297 0.0
C3242 C 0.73918 0.46239 0.78996 0.0
C3243 C 0.72611 0.44857 0.79174 0.0
C3244 C 0.71584 0.44309 0.77661 0.0
C3245 C 0.71865 0.4514 0.75965 0.0
C3246 C 0.73168 0.46525 0.75779 0.0
C3247 C 0.8251 0.49593 0.72568 0.0
C3248 C 0.81752 0.49507 0.70801 0.0
C3249 C 0.81374 0.49685 0.74109 0.0
C3250 C 0.79465 0.49689 0.73906 0.0
C3251 C 0.78711 0.49582 0.72149 0.0
C3252 C 0.79838 0.49498 0.70616 0.0
C3253 C 0.78223 0.4982 0.75504 0.0
C3254 C 0.76898 0.48454 0.75737 0.0
C3255 C 0.78264 0.5132 0.76725 0.0
C3256 C 0.79596 0.52832 0.76521 0.0
C3257 C 0.79668 0.53863 0.74901 0.0
C3258 C 0.80935 0.55281 0.74718 0.0
C3259 C 0.82127 0.5569 0.76152 0.0
C3260 C 0.8205 0.54686 0.77775 0.0
C3261 C 0.80787 0.53265 0.77964 0.0
H3262 H 0.83107 0.56789 0.76008 0.0
H3263 H 0.70572 0.43239 0.77802 0.0
loop_
_geom_bond_atom_site_label_1
_geom_bond_atom_site_label_2
_geom_bond_distance
_geom_bond_site_symmetry_2
_ccdc_geom_bond_type
Mn0 O5 2.095 . S
Mn0 O15 2.162 . S
Mn0 O16 2.297 . S
Mn0 O24 2.385 . S
Mn0 O25 2.209 . S
Mn0 O26 2.094 . S
Mn1 O6 2.121 . S
Mn1 N8 2.257 . S
Mn1 N17 2.282 . S
Mn1 O25 2.215 . S
Mn1 O27 2.117 . S
C2 O24 1.234 . S
C2 O25 1.283 . S
C3 O15 1.281 . S
C3 O16 1.236 . S
C4 O26 1.240 . S
C4 O27 1.264 . S
O5 Mn0 2.095 . S
O5 C14 1.250 . S
O6 Mn1 2.121 . S
O6 C14 1.258 . S
C7 N8 1.326 . S
C7 C11 1.460 . S
C7 H13 0.929 . S
N8 Mn1 2.257 . S
N8 C7 1.326 . S
N8 C12 1.362 . S
C9 C10 1.258 . S
C9 C12 1.431 . S
C9 C29 1.449 . S
C10 C9 1.258 . S
C10 C11 1.477 . S
C10 H30 0.931 . S
C11 C7 1.460 . S
C11 C10 1.477 . S
C11 H31 0.930 . S
C12 N8 1.362 . S
C12 C9 1.431 . S
C12 C22 1.476 . S
H13 C7 0.929 . S
C14 O5 1.250 . S
C14 O6 1.258 . S
O15 Mn0 2.162 . S
O15 C3 1.281 . S
O16 Mn0 2.297 . S
O16 C3 1.236 . S
N17 Mn1 2.282 . S
N17 C18 1.328 . S
N17 C22 1.318 . S
C18 N17 1.328 . S
C18 C19 1.457 . S
C18 H23 0.929 . S
C19 C18 1.457 . S
C19 C20 1.291 . S
C19 H32 0.931 . S
C20 C19 1.291 . S
C20 C21 1.373 . S
C20 H33 0.929 . S
C21 C20 1.373 . S
C21 C22 1.396 . S
C21 C28 1.403 . S
C22 C12 1.476 . S
C22 N17 1.318 . S
C22 C21 1.396 . S
H23 C18 0.929 . S
O24 Mn0 2.385 . S
O24 C2 1.234 . S
O25 Mn0 2.209 . S
O25 Mn1 2.215 . S
O25 C2 1.283 . S
O26 Mn0 2.094 . S
O26 C4 1.240 . S
O27 Mn1 2.117 . S
O27 C4 1.264 . S
C28 C21 1.403 . S
C28 C29 1.399 . S
C28 H34 0.929 . S
C29 C9 1.449 . S
C29 C28 1.399 . S
C29 H35 0.930 . S
H30 C10 0.931 . S
H31 C11 0.930 . S
H32 C19 0.931 . S
H33 C20 0.929 . S
H34 C28 0.929 . S
H35 C29 0.930 . S
Mn36 O41 2.095 . S
Mn36 O51 2.162 . S
Mn36 O52 2.297 . S
Mn36 O60 2.385 . S
Mn36 O61 2.209 . S
Mn36 O62 2.094 . S
Mn37 O42 2.121 . S
Mn37 N44 2.257 . S
Mn37 N53 2.282 . S
Mn37 O61 2.215 . S
Mn37 O63 2.117 . S
C38 O60 1.234 . S
C38 O61 1.283 . S
C39 O51 1.281 . S
C39 O52 1.236 . S
C40 O62 1.240 . S
C40 O63 1.264 . S
O41 Mn36 2.095 . S
O41 C50 1.250 . S
O42 Mn37 2.121 . S
O42 C50 1.258 . S
C43 N44 1.326 . S
C43 C47 1.460 . S
C43 H49 0.929 . S
N44 Mn37 2.257 . S
N44 C43 1.326 . S
N44 C48 1.362 . S
C45 C46 1.258 . S
C45 C48 1.431 . S
C45 C65 1.449 . S
C46 C45 1.258 . S
C46 C47 1.477 . S
C46 H66 0.931 . S
C47 C43 1.460 . S
C47 C46 1.477 . S
C47 H67 0.930 . S
C48 N44 1.362 . S
C48 C45 1.431 . S
C48 C58 1.476 . S
H49 C43 0.929 . S
C50 O41 1.250 . S
C50 O42 1.258 . S
O51 Mn36 2.162 . S
O51 C39 1.281 . S
O52 Mn36 2.297 . S
O52 C39 1.236 . S
N53 Mn37 2.282 . S
N53 C54 1.328 . S
N53 C58 1.318 . S
C54 N53 1.328 . S
C54 C55 1.457 . S
C54 H59 0.929 . S
C55 C54 1.457 . S
C55 C56 1.291 . S
C55 H68 0.931 . S
C56 C55 1.291 . S
C56 C57 1.373 . S
C56 H69 0.929 . S
C57 C56 1.373 . S
C57 C58 1.396 . S
C57 C64 1.403 . S
C58 C48 1.476 . S
C58 N53 1.318 . S
C58 C57 1.396 . S
H59 C54 0.929 . S
O60 Mn36 2.385 . S
O60 C38 1.234 . S
O61 Mn36 2.209 . S
O61 Mn37 2.215 . S
O61 C38 1.283 . S
O62 Mn36 2.094 . S
O62 C40 1.240 . S
O63 Mn37 2.117 . S
O63 C40 1.264 . S
C64 C57 1.403 . S
C64 C65 1.399 . S
C64 H70 0.929 . S
C65 C45 1.449 . S
C65 C64 1.399 . S
C65 H71 0.930 . S
H66 C46 0.931 . S
H67 C47 0.930 . S
H68 C55 0.931 . S
H69 C56 0.929 . S
H70 C64 0.929 . S
H71 C65 0.930 . S
Mn72 O77 2.095 . S
Mn72 O87 2.162 . S
Mn72 O88 2.297 . S
Mn72 O96 2.385 . S
Mn72 O97 2.209 . S
Mn72 O98 2.094 . S
Mn73 O78 2.121 . S
Mn73 N80 2.257 . S
Mn73 N89 2.282 . S
Mn73 O97 2.215 . S
Mn73 O99 2.117 . S
C74 O96 1.234 . S
C74 O97 1.283 . S
C75 O87 1.281 . S
C75 O88 1.236 . S
C76 O98 1.240 . S
C76 O99 1.264 . S
O77 Mn72 2.095 . S
O77 C86 1.250 . S
O78 Mn73 2.121 . S
O78 C86 1.258 . S
C79 N80 1.326 . S
C79 C83 1.460 . S
C79 H85 0.929 . S
N80 Mn73 2.257 . S
N80 C79 1.326 . S
N80 C84 1.362 . S
C81 C82 1.258 . S
C81 C84 1.431 . S
C81 C101 1.449 . S
C82 C81 1.258 . S
C82 C83 1.477 . S
C82 H102 0.931 . S
C83 C79 1.460 . S
C83 C82 1.477 . S
C83 H103 0.930 . S
C84 N80 1.362 . S
C84 C81 1.431 . S
C84 C94 1.476 . S
H85 C79 0.929 . S
C86 O77 1.250 . S
C86 O78 1.258 . S
O87 Mn72 2.162 . S
O87 C75 1.281 . S
O88 Mn72 2.297 . S
O88 C75 1.236 . S
N89 Mn73 2.282 . S
N89 C90 1.328 . S
N89 C94 1.318 . S
C90 N89 1.328 . S
C90 C91 1.457 . S
C90 H95 0.929 . S
C91 C90 1.457 . S
C91 C92 1.291 . S
C91 H104 0.931 . S
C92 C91 1.291 . S
C92 C93 1.373 . S
C92 H105 0.929 . S
C93 C92 1.373 . S
C93 C94 1.396 . S
C93 C100 1.403 . S
C94 C84 1.476 . S
C94 N89 1.318 . S
C94 C93 1.396 . S
H95 C90 0.929 . S
O96 Mn72 2.385 . S
O96 C74 1.234 . S
O97 Mn72 2.209 . S
O97 Mn73 2.215 . S
O97 C74 1.283 . S
O98 Mn72 2.094 . S
O98 C76 1.240 . S
O99 Mn73 2.117 . S
O99 C76 1.264 . S
C100 C93 1.403 . S
C100 C101 1.399 . S
C100 H106 0.929 . S
C101 C81 1.449 . S
C101 C100 1.399 . S
C101 H107 0.930 . S
H102 C82 0.931 . S
H103 C83 0.930 . S
H104 C91 0.931 . S
H105 C92 0.929 . S
H106 C100 0.929 . S
H107 C101 0.930 . S
Mn108 O113 2.095 . S
Mn108 O123 2.162 . S
Mn108 O124 2.297 . S
Mn108 O132 2.385 . S
Mn108 O133 2.209 . S
Mn108 O134 2.094 . S
Mn109 O114 2.121 . S
Mn109 N116 2.257 . S
Mn109 N125 2.282 . S
Mn109 O133 2.215 . S
Mn109 O135 2.117 . S
C110 O132 1.234 . S
C110 O133 1.283 . S
C111 O123 1.281 . S
C111 O124 1.236 . S
C112 O134 1.240 . S
C112 O135 1.264 . S
O113 Mn108 2.095 . S
O113 C122 1.250 . S
O114 Mn109 2.121 . S
O114 C122 1.258 . S
C115 N116 1.326 . S
C115 C119 1.460 . S
C115 H121 0.929 . S
N116 Mn109 2.257 . S
N116 C115 1.326 . S
N116 C120 1.362 . S
C117 C118 1.258 . S
C117 C120 1.431 . S
C117 C137 1.449 . S
C118 C117 1.258 . S
C118 C119 1.477 . S
C118 H138 0.931 . S
C119 C115 1.460 . S
C119 C118 1.477 . S
C119 H139 0.930 . S
C120 N116 1.362 . S
C120 C117 1.431 . S
C120 C130 1.476 . S
H121 C115 0.929 . S
C122 O113 1.250 . S
C122 O114 1.258 . S
O123 Mn108 2.162 . S
O123 C111 1.281 . S
O124 Mn108 2.297 . S
O124 C111 1.236 . S
N125 Mn109 2.282 . S
N125 C126 1.328 . S
N125 C130 1.318 . S
C126 N125 1.328 . S
C126 C127 1.457 . S
C126 H131 0.929 . S
C127 C126 1.457 . S
C127 C128 1.291 . S
C127 H140 0.931 . S
C128 C127 1.291 . S
C128 C129 1.373 . S
C128 H141 0.929 . S
C129 C128 1.373 . S
C129 C130 1.396 . S
C129 C136 1.403 . S
C130 C120 1.476 . S
C130 N125 1.318 . S
C130 C129 1.396 . S
H131 C126 0.929 . S
O132 Mn108 2.385 . S
O132 C110 1.234 . S
O133 Mn108 2.209 . S
O133 Mn109 2.215 . S
O133 C110 1.283 . S
O134 Mn108 2.094 . S
O134 C112 1.240 . S
O135 Mn109 2.117 . S
O135 C112 1.264 . S
C136 C129 1.403 . S
C136 C137 1.399 . S
C136 H142 0.929 . S
C137 C117 1.449 . S
C137 C136 1.399 . S
C137 H143 0.930 . S
H138 C118 0.931 . S
H139 C119 0.930 . S
H140 C127 0.931 . S
H141 C128 0.929 . S
H142 C136 0.929 . S
H143 C137 0.930 . S
Mn144 O149 2.095 . S
Mn144 O159 2.162 . S
Mn144 O160 2.297 . S
Mn144 O168 2.385 . S
Mn144 O169 2.209 . S
Mn144 O170 2.094 . S
Mn145 O150 2.121 . S
Mn145 N152 2.257 . S
Mn145 N161 2.282 . S
Mn145 O169 2.215 . S
Mn145 O171 2.117 . S
C146 O168 1.234 . S
C146 O169 1.283 . S
C147 O159 1.281 . S
C147 O160 1.236 . S
C148 O170 1.240 . S
C148 O171 1.264 . S
O149 Mn144 2.095 . S
O149 C158 1.250 . S
O150 Mn145 2.121 . S
O150 C158 1.258 . S
C151 N152 1.326 . S
C151 C155 1.460 . S
C151 H157 0.929 . S
N152 Mn145 2.257 . S
N152 C151 1.326 . S
N152 C156 1.362 . S
C153 C154 1.258 . S
C153 C156 1.431 . S
C153 C173 1.449 . S
C154 C153 1.258 . S
C154 C155 1.477 . S
C154 H174 0.931 . S
C155 C151 1.460 . S
C155 C154 1.477 . S
C155 H175 0.930 . S
C156 N152 1.362 . S
C156 C153 1.431 . S
C156 C166 1.476 . S
H157 C151 0.929 . S
C158 O149 1.250 . S
C158 O150 1.258 . S
O159 Mn144 2.162 . S
O159 C147 1.281 . S
O160 Mn144 2.297 . S
O160 C147 1.236 . S
N161 Mn145 2.282 . S
N161 C162 1.328 . S
N161 C166 1.318 . S
C162 N161 1.328 . S
C162 C163 1.457 . S
C162 H167 0.929 . S
C163 C162 1.457 . S
C163 C164 1.291 . S
C163 H176 0.931 . S
C164 C163 1.291 . S
C164 C165 1.373 . S
C164 H177 0.929 . S
C165 C164 1.373 . S
C165 C166 1.396 . S
C165 C172 1.403 . S
C166 C156 1.476 . S
C166 N161 1.318 . S
C166 C165 1.396 . S
H167 C162 0.929 . S
O168 Mn144 2.385 . S
O168 C146 1.234 . S
O169 Mn144 2.209 . S
O169 Mn145 2.215 . S
O169 C146 1.283 . S
O170 Mn144 2.094 . S
O170 C148 1.240 . S
O171 Mn145 2.117 . S
O171 C148 1.264 . S
C172 C165 1.403 . S
C172 C173 1.399 . S
C172 H178 0.929 . S
C173 C153 1.449 . S
C173 C172 1.399 . S
C173 H179 0.930 . S
H174 C154 0.931 . S
H175 C155 0.930 . S
H176 C163 0.931 . S
H177 C164 0.929 . S
H178 C172 0.929 . S
H179 C173 0.930 . S
Mn180 O185 2.095 . S
Mn180 O195 2.162 . S
Mn180 O196 2.297 . S
Mn180 O204 2.385 . S
Mn180 O205 2.209 . S
Mn180 O206 2.094 . S
Mn181 O186 2.121 . S
Mn181 N188 2.257 . S
Mn181 N197 2.282 . S
Mn181 O205 2.215 . S
Mn181 O207 2.117 . S
C182 O204 1.234 . S
C182 O205 1.283 . S
C183 O195 1.281 . S
C183 O196 1.236 . S
C184 O206 1.240 . S
C184 O207 1.264 . S
O185 Mn180 2.095 . S
O185 C194 1.250 . S
O186 Mn181 2.121 . S
O186 C194 1.258 . S
C187 N188 1.326 . S
C187 C191 1.460 . S
C187 H193 0.929 . S
N188 Mn181 2.257 . S
N188 C187 1.326 . S
N188 C192 1.362 . S
C189 C190 1.258 . S
C189 C192 1.431 . S
C189 C209 1.449 . S
C190 C189 1.258 . S
C190 C191 1.477 . S
C190 H210 0.931 . S
C191 C187 1.460 . S
C191 C190 1.477 . S
C191 H211 0.930 . S
C192 N188 1.362 . S
C192 C189 1.431 . S
C192 C202 1.476 . S
H193 C187 0.929 . S
C194 O185 1.250 . S
C194 O186 1.258 . S
O195 Mn180 2.162 . S
O195 C183 1.281 . S
O196 Mn180 2.297 . S
O196 C183 1.236 . S
N197 Mn181 2.282 . S
N197 C198 1.328 . S
N197 C202 1.318 . S
C198 N197 1.328 . S
C198 C199 1.457 . S
C198 H203 0.929 . S
C199 C198 1.457 . S
C199 C200 1.291 . S
C199 H212 0.931 . S
C200 C199 1.291 . S
C200 C201 1.373 . S
C200 H213 0.929 . S
C201 C200 1.373 . S
C201 C202 1.396 . S
C201 C208 1.403 . S
C202 C192 1.476 . S
C202 N197 1.318 . S
C202 C201 1.396 . S
H203 C198 0.929 . S
O204 Mn180 2.385 . S
O204 C182 1.234 . S
O205 Mn180 2.209 . S
O205 Mn181 2.215 . S
O205 C182 1.283 . S
O206 Mn180 2.094 . S
O206 C184 1.240 . S
O207 Mn181 2.117 . S
O207 C184 1.264 . S
C208 C201 1.403 . S
C208 C209 1.399 . S
C208 H214 0.929 . S
C209 C189 1.449 . S
C209 C208 1.399 . S
C209 H215 0.930 . S
H210 C190 0.931 . S
H211 C191 0.930 . S
H212 C199 0.931 . S
H213 C200 0.929 . S
H214 C208 0.929 . S
H215 C209 0.930 . S
Mn216 O221 2.095 . S
Mn216 O231 2.162 . S
Mn216 O232 2.297 . S
Mn216 O240 2.385 . S
Mn216 O241 2.209 . S
Mn216 O242 2.094 . S
Mn217 O222 2.121 . S
Mn217 N224 2.257 . S
Mn217 N233 2.282 . S
Mn217 O241 2.215 . S
Mn217 O243 2.117 . S
C218 O240 1.234 . S
C218 O241 1.283 . S
C219 O231 1.281 . S
C219 O232 1.236 . S
C220 O242 1.240 . S
C220 O243 1.264 . S
O221 Mn216 2.095 . S
O221 C230 1.250 . S
O222 Mn217 2.121 . S
O222 C230 1.258 . S
C223 N224 1.326 . S
C223 C227 1.460 . S
C223 H229 0.929 . S
N224 Mn217 2.257 . S
N224 C223 1.326 . S
N224 C228 1.362 . S
C225 C226 1.258 . S
C225 C228 1.431 . S
C225 C245 1.449 . S
C226 C225 1.258 . S
C226 C227 1.477 . S
C226 H246 0.931 . S
C227 C223 1.460 . S
C227 C226 1.477 . S
C227 H247 0.930 . S
C228 N224 1.362 . S
C228 C225 1.431 . S
C228 C238 1.476 . S
H229 C223 0.929 . S
C230 O221 1.250 . S
C230 O222 1.258 . S
O231 Mn216 2.162 . S
O231 C219 1.281 . S
O232 Mn216 2.297 . S
O232 C219 1.236 . S
N233 Mn217 2.282 . S
N233 C234 1.328 . S
N233 C238 1.318 . S
C234 N233 1.328 . S
C234 C235 1.457 . S
C234 H239 0.929 . S
C235 C234 1.457 . S
C235 C236 1.291 . S
C235 H248 0.931 . S
C236 C235 1.291 . S
C236 C237 1.373 . S
C236 H249 0.929 . S
C237 C236 1.373 . S
C237 C238 1.396 . S
C237 C244 1.403 . S
C238 C228 1.476 . S
C238 N233 1.318 . S
C238 C237 1.396 . S
H239 C234 0.929 . S
O240 Mn216 2.385 . S
O240 C218 1.234 . S
O241 Mn216 2.209 . S
O241 Mn217 2.215 . S
O241 C218 1.283 . S
O242 Mn216 2.094 . S
O242 C220 1.240 . S
O243 Mn217 2.117 . S
O243 C220 1.264 . S
C244 C237 1.403 . S
C244 C245 1.399 . S
C244 H250 0.929 . S
C245 C225 1.449 . S
C245 C244 1.399 . S
C245 H251 0.930 . S
H246 C226 0.931 . S
H247 C227 0.930 . S
H248 C235 0.931 . S
H249 C236 0.929 . S
H250 C244 0.929 . S
H251 C245 0.930 . S
Mn252 O257 2.095 . S
Mn252 O267 2.162 . S
Mn252 O268 2.297 . S
Mn252 O276 2.385 . S
Mn252 O277 2.209 . S
Mn252 O278 2.094 . S
Mn253 O258 2.121 . S
Mn253 N260 2.257 . S
Mn253 N269 2.282 . S
Mn253 O277 2.215 . S
Mn253 O279 2.117 . S
C254 O276 1.234 . S
C254 O277 1.283 . S
C255 O267 1.281 . S
C255 O268 1.236 . S
C256 O278 1.240 . S
C256 O279 1.264 . S
O257 Mn252 2.095 . S
O257 C266 1.250 . S
O258 Mn253 2.121 . S
O258 C266 1.258 . S
C259 N260 1.326 . S
C259 C263 1.460 . S
C259 H265 0.929 . S
N260 Mn253 2.257 . S
N260 C259 1.326 . S
N260 C264 1.362 . S
C261 C262 1.258 . S
C261 C264 1.431 . S
C261 C281 1.449 . S
C262 C261 1.258 . S
C262 C263 1.477 . S
C262 H282 0.931 . S
C263 C259 1.460 . S
C263 C262 1.477 . S
C263 H283 0.930 . S
C264 N260 1.362 . S
C264 C261 1.431 . S
C264 C274 1.476 . S
H265 C259 0.929 . S
C266 O257 1.250 . S
C266 O258 1.258 . S
O267 Mn252 2.162 . S
O267 C255 1.281 . S
O268 Mn252 2.297 . S
O268 C255 1.236 . S
N269 Mn253 2.282 . S
N269 C270 1.328 . S
N269 C274 1.318 . S
C270 N269 1.328 . S
C270 C271 1.457 . S
C270 H275 0.929 . S
C271 C270 1.457 . S
C271 C272 1.291 . S
C271 H284 0.931 . S
C272 C271 1.291 . S
C272 C273 1.373 . S
C272 H285 0.929 . S
C273 C272 1.373 . S
C273 C274 1.396 . S
C273 C280 1.403 . S
C274 C264 1.476 . S
C274 N269 1.318 . S
C274 C273 1.396 . S
H275 C270 0.929 . S
O276 Mn252 2.385 . S
O276 C254 1.234 . S
O277 Mn252 2.209 . S
O277 Mn253 2.215 . S
O277 C254 1.283 . S
O278 Mn252 2.094 . S
O278 C256 1.240 . S
O279 Mn253 2.117 . S
O279 C256 1.264 . S
C280 C273 1.403 . S
C280 C281 1.399 . S
C280 H286 0.929 . S
C281 C261 1.449 . S
C281 C280 1.399 . S
C281 H287 0.930 . S
H282 C262 0.931 . S
H283 C263 0.930 . S
H284 C271 0.931 . S
H285 C272 0.929 . S
H286 C280 0.929 . S
H287 C281 0.930 . S
Mn288 O293 2.095 . S
Mn288 O303 2.162 . S
Mn288 O304 2.297 . S
Mn288 O312 2.385 . S
Mn288 O313 2.209 . S
Mn288 O314 2.094 . S
Mn289 O294 2.121 . S
Mn289 N296 2.257 . S
Mn289 N305 2.282 . S
Mn289 O313 2.215 . S
Mn289 O315 2.117 . S
C290 O312 1.234 . S
C290 O313 1.283 . S
C291 O303 1.281 . S
C291 O304 1.236 . S
C292 O314 1.240 . S
C292 O315 1.264 . S
O293 Mn288 2.095 . S
O293 C302 1.250 . S
O294 Mn289 2.121 . S
O294 C302 1.258 . S
C295 N296 1.326 . S
C295 C299 1.460 . S
C295 H301 0.929 . S
N296 Mn289 2.257 . S
N296 C295 1.326 . S
N296 C300 1.362 . S
C297 C298 1.258 . S
C297 C300 1.431 . S
C297 C317 1.449 . S
C298 C297 1.258 . S
C298 C299 1.477 . S
C298 H318 0.931 . S
C299 C295 1.460 . S
C299 C298 1.477 . S
C299 H319 0.930 . S
C300 N296 1.362 . S
C300 C297 1.431 . S
C300 C310 1.476 . S
H301 C295 0.929 . S
C302 O293 1.250 . S
C302 O294 1.258 . S
O303 Mn288 2.162 . S
O303 C291 1.281 . S
O304 Mn288 2.297 . S
O304 C291 1.236 . S
N305 Mn289 2.282 . S
N305 C306 1.328 . S
N305 C310 1.318 . S
C306 N305 1.328 . S
C306 C307 1.457 . S
C306 H311 0.929 . S
C307 C306 1.457 . S
C307 C308 1.291 . S
C307 H320 0.931 . S
C308 C307 1.291 . S
C308 C309 1.373 . S
C308 H321 0.929 . S
C309 C308 1.373 . S
C309 C310 1.396 . S
C309 C316 1.403 . S
C310 C300 1.476 . S
C310 N305 1.318 . S
C310 C309 1.396 . S
H311 C306 0.929 . S
O312 Mn288 2.385 . S
O312 C290 1.234 . S
O313 Mn288 2.209 . S
O313 Mn289 2.215 . S
O313 C290 1.283 . S
O314 Mn288 2.094 . S
O314 C292 1.240 . S
O315 Mn289 2.117 . S
O315 C292 1.264 . S
C316 C309 1.403 . S
C316 C317 1.399 . S
C316 H322 0.929 . S
C317 C297 1.449 . S
C317 C316 1.399 . S
C317 H323 0.930 . S
H318 C298 0.931 . S
H319 C299 0.930 . S
H320 C307 0.931 . S
H321 C308 0.929 . S
H322 C316 0.929 . S
H323 C317 0.930 . S
Mn324 O329 2.095 . S
Mn324 O339 2.162 . S
Mn324 O340 2.297 . S
Mn324 O348 2.385 . S
Mn324 O349 2.209 . S
Mn324 O350 2.094 . S
Mn325 O330 2.121 . S
Mn325 N332 2.257 . S
Mn325 N341 2.282 . S
Mn325 O349 2.215 . S
Mn325 O351 2.117 . S
C326 O348 1.234 . S
C326 O349 1.283 . S
C327 O339 1.281 . S
C327 O340 1.236 . S
C328 O350 1.240 . S
C328 O351 1.264 . S
O329 Mn324 2.095 . S
O329 C338 1.250 . S
O330 Mn325 2.121 . S
O330 C338 1.258 . S
C331 N332 1.326 . S
C331 C335 1.460 . S
C331 H337 0.929 . S
N332 Mn325 2.257 . S
N332 C331 1.326 . S
N332 C336 1.362 . S
C333 C334 1.258 . S
C333 C336 1.431 . S
C333 C353 1.449 . S
C334 C333 1.258 . S
C334 C335 1.477 . S
C334 H354 0.931 . S
C335 C331 1.460 . S
C335 C334 1.477 . S
C335 H355 0.930 . S
C336 N332 1.362 . S
C336 C333 1.431 . S
C336 C346 1.476 . S
H337 C331 0.929 . S
C338 O329 1.250 . S
C338 O330 1.258 . S
O339 Mn324 2.162 . S
O339 C327 1.281 . S
O340 Mn324 2.297 . S
O340 C327 1.236 . S
N341 Mn325 2.282 . S
N341 C342 1.328 . S
N341 C346 1.318 . S
C342 N341 1.328 . S
C342 C343 1.457 . S
C342 H347 0.929 . S
C343 C342 1.457 . S
C343 C344 1.291 . S
C343 H356 0.931 . S
C344 C343 1.291 . S
C344 C345 1.373 . S
C344 H357 0.929 . S
C345 C344 1.373 . S
C345 C346 1.396 . S
C345 C352 1.403 . S
C346 C336 1.476 . S
C346 N341 1.318 . S
C346 C345 1.396 . S
H347 C342 0.929 . S
O348 Mn324 2.385 . S
O348 C326 1.234 . S
O349 Mn324 2.209 . S
O349 Mn325 2.215 . S
O349 C326 1.283 . S
O350 Mn324 2.094 . S
O350 C328 1.240 . S
O351 Mn325 2.117 . S
O351 C328 1.264 . S
C352 C345 1.403 . S
C352 C353 1.399 . S
C352 H358 0.929 . S
C353 C333 1.449 . S
C353 C352 1.399 . S
C353 H359 0.930 . S
H354 C334 0.931 . S
H355 C335 0.930 . S
H356 C343 0.931 . S
H357 C344 0.929 . S
H358 C352 0.929 . S
H359 C353 0.930 . S
Mn360 O365 2.095 . S
Mn360 O375 2.162 . S
Mn360 O376 2.297 . S
Mn360 O384 2.385 . S
Mn360 O385 2.209 . S
Mn360 O386 2.094 . S
Mn361 O366 2.121 . S
Mn361 N368 2.257 . S
Mn361 N377 2.282 . S
Mn361 O385 2.215 . S
Mn361 O387 2.117 . S
C362 O384 1.234 . S
C362 O385 1.283 . S
C363 O375 1.281 . S
C363 O376 1.236 . S
C364 O386 1.240 . S
C364 O387 1.264 . S
O365 Mn360 2.095 . S
O365 C374 1.250 . S
O366 Mn361 2.121 . S
O366 C374 1.258 . S
C367 N368 1.326 . S
C367 C371 1.460 . S
C367 H373 0.929 . S
N368 Mn361 2.257 . S
N368 C367 1.326 . S
N368 C372 1.362 . S
C369 C370 1.258 . S
C369 C372 1.431 . S
C369 C389 1.449 . S
C370 C369 1.258 . S
C370 C371 1.477 . S
C370 H390 0.931 . S
C371 C367 1.460 . S
C371 C370 1.477 . S
C371 H391 0.930 . S
C372 N368 1.362 . S
C372 C369 1.431 . S
C372 C382 1.476 . S
H373 C367 0.929 . S
C374 O365 1.250 . S
C374 O366 1.258 . S
O375 Mn360 2.162 . S
O375 C363 1.281 . S
O376 Mn360 2.297 . S
O376 C363 1.236 . S
N377 Mn361 2.282 . S
N377 C378 1.328 . S
N377 C382 1.318 . S
C378 N377 1.328 . S
C378 C379 1.457 . S
C378 H383 0.929 . S
C379 C378 1.457 . S
C379 C380 1.291 . S
C379 H392 0.931 . S
C380 C379 1.291 . S
C380 C381 1.373 . S
C380 H393 0.929 . S
C381 C380 1.373 . S
C381 C382 1.396 . S
C381 C388 1.403 . S
C382 C372 1.476 . S
C382 N377 1.318 . S
C382 C381 1.396 . S
H383 C378 0.929 . S
O384 Mn360 2.385 . S
O384 C362 1.234 . S
O385 Mn360 2.209 . S
O385 Mn361 2.215 . S
O385 C362 1.283 . S
O386 Mn360 2.094 . S
O386 C364 1.240 . S
O387 Mn361 2.117 . S
O387 C364 1.264 . S
C388 C381 1.403 . S
C388 C389 1.399 . S
C388 H394 0.929 . S
C389 C369 1.449 . S
C389 C388 1.399 . S
C389 H395 0.930 . S
H390 C370 0.931 . S
H391 C371 0.930 . S
H392 C379 0.931 . S
H393 C380 0.929 . S
H394 C388 0.929 . S
H395 C389 0.930 . S
Mn396 O401 2.095 . S
Mn396 O411 2.162 . S
Mn396 O412 2.297 . S
Mn396 O420 2.385 . S
Mn396 O421 2.209 . S
Mn396 O422 2.094 . S
Mn397 O402 2.121 . S
Mn397 N404 2.257 . S
Mn397 N413 2.282 . S
Mn397 O421 2.215 . S
Mn397 O423 2.117 . S
C398 O420 1.234 . S
C398 O421 1.283 . S
C399 O411 1.281 . S
C399 O412 1.236 . S
C400 O422 1.240 . S
C400 O423 1.264 . S
O401 Mn396 2.095 . S
O401 C410 1.250 . S
O402 Mn397 2.121 . S
O402 C410 1.258 . S
C403 N404 1.326 . S
C403 C407 1.460 . S
C403 H409 0.929 . S
N404 Mn397 2.257 . S
N404 C403 1.326 . S
N404 C408 1.362 . S
C405 C406 1.258 . S
C405 C408 1.431 . S
C405 C425 1.449 . S
C406 C405 1.258 . S
C406 C407 1.477 . S
C406 H426 0.931 . S
C407 C403 1.460 . S
C407 C406 1.477 . S
C407 H427 0.930 . S
C408 N404 1.362 . S
C408 C405 1.431 . S
C408 C418 1.476 . S
H409 C403 0.929 . S
C410 O401 1.250 . S
C410 O402 1.258 . S
O411 Mn396 2.162 . S
O411 C399 1.281 . S
O412 Mn396 2.297 . S
O412 C399 1.236 . S
N413 Mn397 2.282 . S
N413 C414 1.328 . S
N413 C418 1.318 . S
C414 N413 1.328 . S
C414 C415 1.457 . S
C414 H419 0.929 . S
C415 C414 1.457 . S
C415 C416 1.291 . S
C415 H428 0.931 . S
C416 C415 1.291 . S
C416 C417 1.373 . S
C416 H429 0.929 . S
C417 C416 1.373 . S
C417 C418 1.396 . S
C417 C424 1.403 . S
C418 C408 1.476 . S
C418 N413 1.318 . S
C418 C417 1.396 . S
H419 C414 0.929 . S
O420 Mn396 2.385 . S
O420 C398 1.234 . S
O421 Mn396 2.209 . S
O421 Mn397 2.215 . S
O421 C398 1.283 . S
O422 Mn396 2.094 . S
O422 C400 1.240 . S
O423 Mn397 2.117 . S
O423 C400 1.264 . S
C424 C417 1.403 . S
C424 C425 1.399 . S
C424 H430 0.929 . S
C425 C405 1.449 . S
C425 C424 1.399 . S
C425 H431 0.930 . S
H426 C406 0.931 . S
H427 C407 0.930 . S
H428 C415 0.931 . S
H429 C416 0.929 . S
H430 C424 0.929 . S
H431 C425 0.930 . S
Mn432 O437 2.095 . S
Mn432 O447 2.162 . S
Mn432 O448 2.297 . S
Mn432 O456 2.385 . S
Mn432 O457 2.209 . S
Mn432 O458 2.094 . S
Mn433 O438 2.121 . S
Mn433 N440 2.257 . S
Mn433 N449 2.282 . S
Mn433 O457 2.215 . S
Mn433 O459 2.117 . S
C434 O456 1.234 . S
C434 O457 1.283 . S
C435 O447 1.281 . S
C435 O448 1.236 . S
C436 O458 1.240 . S
C436 O459 1.264 . S
O437 Mn432 2.095 . S
O437 C446 1.250 . S
O438 Mn433 2.121 . S
O438 C446 1.258 . S
C439 N440 1.326 . S
C439 C443 1.460 . S
C439 H445 0.929 . S
N440 Mn433 2.257 . S
N440 C439 1.326 . S
N440 C444 1.362 . S
C441 C442 1.258 . S
C441 C444 1.431 . S
C441 C461 1.449 . S
C442 C441 1.258 . S
C442 C443 1.477 . S
C442 H462 0.931 . S
C443 C439 1.460 . S
C443 C442 1.477 . S
C443 H463 0.930 . S
C444 N440 1.362 . S
C444 C441 1.431 . S
C444 C454 1.476 . S
H445 C439 0.929 . S
C446 O437 1.250 . S
C446 O438 1.258 . S
O447 Mn432 2.162 . S
O447 C435 1.281 . S
O448 Mn432 2.297 . S
O448 C435 1.236 . S
N449 Mn433 2.282 . S
N449 C450 1.328 . S
N449 C454 1.318 . S
C450 N449 1.328 . S
C450 C451 1.457 . S
C450 H455 0.929 . S
C451 C450 1.457 . S
C451 C452 1.291 . S
C451 H464 0.931 . S
C452 C451 1.291 . S
C452 C453 1.373 . S
C452 H465 0.929 . S
C453 C452 1.373 . S
C453 C454 1.396 . S
C453 C460 1.403 . S
C454 C444 1.476 . S
C454 N449 1.318 . S
C454 C453 1.396 . S
H455 C450 0.929 . S
O456 Mn432 2.385 . S
O456 C434 1.234 . S
O457 Mn432 2.209 . S
O457 Mn433 2.215 . S
O457 C434 1.283 . S
O458 Mn432 2.094 . S
O458 C436 1.240 . S
O459 Mn433 2.117 . S
O459 C436 1.264 . S
C460 C453 1.403 . S
C460 C461 1.399 . S
C460 H466 0.929 . S
C461 C441 1.449 . S
C461 C460 1.399 . S
C461 H467 0.930 . S
H462 C442 0.931 . S
H463 C443 0.930 . S
H464 C451 0.931 . S
H465 C452 0.929 . S
H466 C460 0.929 . S
H467 C461 0.930 . S
Mn468 O473 2.095 . S
Mn468 O483 2.162 . S
Mn468 O484 2.297 . S
Mn468 O492 2.385 . S
Mn468 O493 2.209 . S
Mn468 O494 2.094 . S
Mn469 O474 2.121 . S
Mn469 N476 2.257 . S
Mn469 N485 2.282 . S
Mn469 O493 2.215 . S
Mn469 O495 2.117 . S
C470 O492 1.234 . S
C470 O493 1.283 . S
C471 O483 1.281 . S
C471 O484 1.236 . S
C472 O494 1.240 . S
C472 O495 1.264 . S
O473 Mn468 2.095 . S
O473 C482 1.250 . S
O474 Mn469 2.121 . S
O474 C482 1.258 . S
C475 N476 1.326 . S
C475 C479 1.460 . S
C475 H481 0.929 . S
N476 Mn469 2.257 . S
N476 C475 1.326 . S
N476 C480 1.362 . S
C477 C478 1.258 . S
C477 C480 1.431 . S
C477 C497 1.449 . S
C478 C477 1.258 . S
C478 C479 1.477 . S
C478 H498 0.931 . S
C479 C475 1.460 . S
C479 C478 1.477 . S
C479 H499 0.930 . S
C480 N476 1.362 . S
C480 C477 1.431 . S
C480 C490 1.476 . S
H481 C475 0.929 . S
C482 O473 1.250 . S
C482 O474 1.258 . S
O483 Mn468 2.162 . S
O483 C471 1.281 . S
O484 Mn468 2.297 . S
O484 C471 1.236 . S
N485 Mn469 2.282 . S
N485 C486 1.328 . S
N485 C490 1.318 . S
C486 N485 1.328 . S
C486 C487 1.457 . S
C486 H491 0.929 . S
C487 C486 1.457 . S
C487 C488 1.291 . S
C487 H500 0.931 . S
C488 C487 1.291 . S
C488 C489 1.373 . S
C488 H501 0.929 . S
C489 C488 1.373 . S
C489 C490 1.396 . S
C489 C496 1.403 . S
C490 C480 1.476 . S
C490 N485 1.318 . S
C490 C489 1.396 . S
H491 C486 0.929 . S
O492 Mn468 2.385 . S
O492 C470 1.234 . S
O493 Mn468 2.209 . S
O493 Mn469 2.215 . S
O493 C470 1.283 . S
O494 Mn468 2.094 . S
O494 C472 1.240 . S
O495 Mn469 2.117 . S
O495 C472 1.264 . S
C496 C489 1.403 . S
C496 C497 1.399 . S
C496 H502 0.929 . S
C497 C477 1.449 . S
C497 C496 1.399 . S
C497 H503 0.930 . S
H498 C478 0.931 . S
H499 C479 0.930 . S
H500 C487 0.931 . S
H501 C488 0.929 . S
H502 C496 0.929 . S
H503 C497 0.930 . S
Mn504 O509 2.095 . S
Mn504 O519 2.162 . S
Mn504 O520 2.297 . S
Mn504 O528 2.385 . S
Mn504 O529 2.209 . S
Mn504 O530 2.094 . S
Mn505 O510 2.121 . S
Mn505 N512 2.257 . S
Mn505 N521 2.282 . S
Mn505 O529 2.215 . S
Mn505 O531 2.117 . S
C506 O528 1.234 . S
C506 O529 1.283 . S
C507 O519 1.281 . S
C507 O520 1.236 . S
C508 O530 1.240 . S
C508 O531 1.264 . S
O509 Mn504 2.095 . S
O509 C518 1.250 . S
O510 Mn505 2.121 . S
O510 C518 1.258 . S
C511 N512 1.326 . S
C511 C515 1.460 . S
C511 H517 0.929 . S
N512 Mn505 2.257 . S
N512 C511 1.326 . S
N512 C516 1.362 . S
C513 C514 1.258 . S
C513 C516 1.431 . S
C513 C533 1.449 . S
C514 C513 1.258 . S
C514 C515 1.477 . S
C514 H534 0.931 . S
C515 C511 1.460 . S
C515 C514 1.477 . S
C515 H535 0.930 . S
C516 N512 1.362 . S
C516 C513 1.431 . S
C516 C526 1.476 . S
H517 C511 0.929 . S
C518 O509 1.250 . S
C518 O510 1.258 . S
O519 Mn504 2.162 . S
O519 C507 1.281 . S
O520 Mn504 2.297 . S
O520 C507 1.236 . S
N521 Mn505 2.282 . S
N521 C522 1.328 . S
N521 C526 1.318 . S
C522 N521 1.328 . S
C522 C523 1.457 . S
C522 H527 0.929 . S
C523 C522 1.457 . S
C523 C524 1.291 . S
C523 H536 0.931 . S
C524 C523 1.291 . S
C524 C525 1.373 . S
C524 H537 0.929 . S
C525 C524 1.373 . S
C525 C526 1.396 . S
C525 C532 1.403 . S
C526 C516 1.476 . S
C526 N521 1.318 . S
C526 C525 1.396 . S
H527 C522 0.929 . S
O528 Mn504 2.385 . S
O528 C506 1.234 . S
O529 Mn504 2.209 . S
O529 Mn505 2.215 . S
O529 C506 1.283 . S
O530 Mn504 2.094 . S
O530 C508 1.240 . S
O531 Mn505 2.117 . S
O531 C508 1.264 . S
C532 C525 1.403 . S
C532 C533 1.399 . S
C532 H538 0.929 . S
C533 C513 1.449 . S
C533 C532 1.399 . S
C533 H539 0.930 . S
H534 C514 0.931 . S
H535 C515 0.930 . S
H536 C523 0.931 . S
H537 C524 0.929 . S
H538 C532 0.929 . S
H539 C533 0.930 . S
Mn540 O545 2.095 . S
Mn540 O555 2.162 . S
Mn540 O556 2.297 . S
Mn540 O564 2.385 . S
Mn540 O565 2.209 . S
Mn540 O566 2.094 . S
Mn541 O546 2.121 . S
Mn541 N548 2.257 . S
Mn541 N557 2.282 . S
Mn541 O565 2.215 . S
Mn541 O567 2.117 . S
C542 O564 1.234 . S
C542 O565 1.283 . S
C543 O555 1.281 . S
C543 O556 1.236 . S
C544 O566 1.240 . S
C544 O567 1.264 . S
O545 Mn540 2.095 . S
O545 C554 1.250 . S
O546 Mn541 2.121 . S
O546 C554 1.258 . S
C547 N548 1.326 . S
C547 C551 1.460 . S
C547 H553 0.929 . S
N548 Mn541 2.257 . S
N548 C547 1.326 . S
N548 C552 1.362 . S
C549 C550 1.258 . S
C549 C552 1.431 . S
C549 C569 1.449 . S
C550 C549 1.258 . S
C550 C551 1.477 . S
C550 H570 0.931 . S
C551 C547 1.460 . S
C551 C550 1.477 . S
C551 H571 0.930 . S
C552 N548 1.362 . S
C552 C549 1.431 . S
C552 C562 1.476 . S
H553 C547 0.929 . S
C554 O545 1.250 . S
C554 O546 1.258 . S
O555 Mn540 2.162 . S
O555 C543 1.281 . S
O556 Mn540 2.297 . S
O556 C543 1.236 . S
N557 Mn541 2.282 . S
N557 C558 1.328 . S
N557 C562 1.318 . S
C558 N557 1.328 . S
C558 C559 1.457 . S
C558 H563 0.929 . S
C559 C558 1.457 . S
C559 C560 1.291 . S
C559 H572 0.931 . S
C560 C559 1.291 . S
C560 C561 1.373 . S
C560 H573 0.929 . S
C561 C560 1.373 . S
C561 C562 1.396 . S
C561 C568 1.403 . S
C562 C552 1.476 . S
C562 N557 1.318 . S
C562 C561 1.396 . S
H563 C558 0.929 . S
O564 Mn540 2.385 . S
O564 C542 1.234 . S
O565 Mn540 2.209 . S
O565 Mn541 2.215 . S
O565 C542 1.283 . S
O566 Mn540 2.094 . S
O566 C544 1.240 . S
O567 Mn541 2.117 . S
O567 C544 1.264 . S
C568 C561 1.403 . S
C568 C569 1.399 . S
C568 H574 0.929 . S
C569 C549 1.449 . S
C569 C568 1.399 . S
C569 H575 0.930 . S
H570 C550 0.931 . S
H571 C551 0.930 . S
H572 C559 0.931 . S
H573 C560 0.929 . S
H574 C568 0.929 . S
H575 C569 0.930 . S
Mn576 O581 2.095 . S
Mn576 O591 2.162 . S
Mn576 O592 2.297 . S
Mn576 O600 2.385 . S
Mn576 O601 2.209 . S
Mn576 O602 2.094 . S
Mn577 O582 2.121 . S
Mn577 N584 2.257 . S
Mn577 N593 2.282 . S
Mn577 O601 2.215 . S
Mn577 O603 2.117 . S
C578 O600 1.234 . S
C578 O601 1.283 . S
C579 O591 1.281 . S
C579 O592 1.236 . S
C580 O602 1.240 . S
C580 O603 1.264 . S
O581 Mn576 2.095 . S
O581 C590 1.250 . S
O582 Mn577 2.121 . S
O582 C590 1.258 . S
C583 N584 1.326 . S
C583 C587 1.460 . S
C583 H589 0.929 . S
N584 Mn577 2.257 . S
N584 C583 1.326 . S
N584 C588 1.362 . S
C585 C586 1.258 . S
C585 C588 1.431 . S
C585 C605 1.449 . S
C586 C585 1.258 . S
C586 C587 1.477 . S
C586 H606 0.931 . S
C587 C583 1.460 . S
C587 C586 1.477 . S
C587 H607 0.930 . S
C588 N584 1.362 . S
C588 C585 1.431 . S
C588 C598 1.476 . S
H589 C583 0.929 . S
C590 O581 1.250 . S
C590 O582 1.258 . S
O591 Mn576 2.162 . S
O591 C579 1.281 . S
O592 Mn576 2.297 . S
O592 C579 1.236 . S
N593 Mn577 2.282 . S
N593 C594 1.328 . S
N593 C598 1.318 . S
C594 N593 1.328 . S
C594 C595 1.457 . S
C594 H599 0.929 . S
C595 C594 1.457 . S
C595 C596 1.291 . S
C595 H608 0.931 . S
C596 C595 1.291 . S
C596 C597 1.373 . S
C596 H609 0.929 . S
C597 C596 1.373 . S
C597 C598 1.396 . S
C597 C604 1.403 . S
C598 C588 1.476 . S
C598 N593 1.318 . S
C598 C597 1.396 . S
H599 C594 0.929 . S
O600 Mn576 2.385 . S
O600 C578 1.234 . S
O601 Mn576 2.209 . S
O601 Mn577 2.215 . S
O601 C578 1.283 . S
O602 Mn576 2.094 . S
O602 C580 1.240 . S
O603 Mn577 2.117 . S
O603 C580 1.264 . S
C604 C597 1.403 . S
C604 C605 1.399 . S
C604 H610 0.929 . S
C605 C585 1.449 . S
C605 C604 1.399 . S
C605 H611 0.930 . S
H606 C586 0.931 . S
H607 C587 0.930 . S
H608 C595 0.931 . S
H609 C596 0.929 . S
H610 C604 0.929 . S
H611 C605 0.930 . S
Mn612 O617 2.095 . S
Mn612 O627 2.162 . S
Mn612 O628 2.297 . S
Mn612 O636 2.385 . S
Mn612 O637 2.209 . S
Mn612 O638 2.094 . S
Mn613 O618 2.121 . S
Mn613 N620 2.257 . S
Mn613 N629 2.282 . S
Mn613 O637 2.215 . S
Mn613 O639 2.117 . S
C614 O636 1.234 . S
C614 O637 1.283 . S
C615 O627 1.281 . S
C615 O628 1.236 . S
C616 O638 1.240 . S
C616 O639 1.264 . S
O617 Mn612 2.095 . S
O617 C626 1.250 . S
O618 Mn613 2.121 . S
O618 C626 1.258 . S
C619 N620 1.326 . S
C619 C623 1.460 . S
C619 H625 0.929 . S
N620 Mn613 2.257 . S
N620 C619 1.326 . S
N620 C624 1.362 . S
C621 C622 1.258 . S
C621 C624 1.431 . S
C621 C641 1.449 . S
C622 C621 1.258 . S
C622 C623 1.477 . S
C622 H642 0.931 . S
C623 C619 1.460 . S
C623 C622 1.477 . S
C623 H643 0.930 . S
C624 N620 1.362 . S
C624 C621 1.431 . S
C624 C634 1.476 . S
H625 C619 0.929 . S
C626 O617 1.250 . S
C626 O618 1.258 . S
O627 Mn612 2.162 . S
O627 C615 1.281 . S
O628 Mn612 2.297 . S
O628 C615 1.236 . S
N629 Mn613 2.282 . S
N629 C630 1.328 . S
N629 C634 1.318 . S
C630 N629 1.328 . S
C630 C631 1.457 . S
C630 H635 0.929 . S
C631 C630 1.457 . S
C631 C632 1.291 . S
C631 H644 0.931 . S
C632 C631 1.291 . S
C632 C633 1.373 . S
C632 H645 0.929 . S
C633 C632 1.373 . S
C633 C634 1.396 . S
C633 C640 1.403 . S
C634 C624 1.476 . S
C634 N629 1.318 . S
C634 C633 1.396 . S
H635 C630 0.929 . S
O636 Mn612 2.385 . S
O636 C614 1.234 . S
O637 Mn612 2.209 . S
O637 Mn613 2.215 . S
O637 C614 1.283 . S
O638 Mn612 2.094 . S
O638 C616 1.240 . S
O639 Mn613 2.117 . S
O639 C616 1.264 . S
C640 C633 1.403 . S
C640 C641 1.399 . S
C640 H646 0.929 . S
C641 C621 1.449 . S
C641 C640 1.399 . S
C641 H647 0.930 . S
H642 C622 0.931 . S
H643 C623 0.930 . S
H644 C631 0.931 . S
H645 C632 0.929 . S
H646 C640 0.929 . S
H647 C641 0.930 . S
Mn648 O653 2.095 . S
Mn648 O663 2.162 . S
Mn648 O664 2.297 . S
Mn648 O672 2.385 . S
Mn648 O673 2.209 . S
Mn648 O674 2.094 . S
Mn649 O654 2.121 . S
Mn649 N656 2.257 . S
Mn649 N665 2.282 . S
Mn649 O673 2.215 . S
Mn649 O675 2.117 . S
C650 O672 1.234 . S
C650 O673 1.283 . S
C651 O663 1.281 . S
C651 O664 1.236 . S
C652 O674 1.240 . S
C652 O675 1.264 . S
O653 Mn648 2.095 . S
O653 C662 1.250 . S
O654 Mn649 2.121 . S
O654 C662 1.258 . S
C655 N656 1.326 . S
C655 C659 1.460 . S
C655 H661 0.929 . S
N656 Mn649 2.257 . S
N656 C655 1.326 . S
N656 C660 1.362 . S
C657 C658 1.258 . S
C657 C660 1.431 . S
C657 C677 1.449 . S
C658 C657 1.258 . S
C658 C659 1.477 . S
C658 H678 0.931 . S
C659 C655 1.460 . S
C659 C658 1.477 . S
C659 H679 0.930 . S
C660 N656 1.362 . S
C660 C657 1.431 . S
C660 C670 1.476 . S
H661 C655 0.929 . S
C662 O653 1.250 . S
C662 O654 1.258 . S
O663 Mn648 2.162 . S
O663 C651 1.281 . S
O664 Mn648 2.297 . S
O664 C651 1.236 . S
N665 Mn649 2.282 . S
N665 C666 1.328 . S
N665 C670 1.318 . S
C666 N665 1.328 . S
C666 C667 1.457 . S
C666 H671 0.929 . S
C667 C666 1.457 . S
C667 C668 1.291 . S
C667 H680 0.931 . S
C668 C667 1.291 . S
C668 C669 1.373 . S
C668 H681 0.929 . S
C669 C668 1.373 . S
C669 C670 1.396 . S
C669 C676 1.403 . S
C670 C660 1.476 . S
C670 N665 1.318 . S
C670 C669 1.396 . S
H671 C666 0.929 . S
O672 Mn648 2.385 . S
O672 C650 1.234 . S
O673 Mn648 2.209 . S
O673 Mn649 2.215 . S
O673 C650 1.283 . S
O674 Mn648 2.094 . S
O674 C652 1.240 . S
O675 Mn649 2.117 . S
O675 C652 1.264 . S
C676 C669 1.403 . S
C676 C677 1.399 . S
C676 H682 0.929 . S
C677 C657 1.449 . S
C677 C676 1.399 . S
C677 H683 0.930 . S
H678 C658 0.931 . S
H679 C659 0.930 . S
H680 C667 0.931 . S
H681 C668 0.929 . S
H682 C676 0.929 . S
H683 C677 0.930 . S
Mn684 O689 2.095 . S
Mn684 O699 2.162 . S
Mn684 O700 2.297 . S
Mn684 O708 2.385 . S
Mn684 O709 2.209 . S
Mn684 O710 2.094 . S
Mn685 O690 2.121 . S
Mn685 N692 2.257 . S
Mn685 N701 2.282 . S
Mn685 O709 2.215 . S
Mn685 O711 2.117 . S
C686 O708 1.234 . S
C686 O709 1.283 . S
C687 O699 1.281 . S
C687 O700 1.236 . S
C688 O710 1.240 . S
C688 O711 1.264 . S
O689 Mn684 2.095 . S
O689 C698 1.250 . S
O690 Mn685 2.121 . S
O690 C698 1.258 . S
C691 N692 1.326 . S
C691 C695 1.460 . S
C691 H697 0.929 . S
N692 Mn685 2.257 . S
N692 C691 1.326 . S
N692 C696 1.362 . S
C693 C694 1.258 . S
C693 C696 1.431 . S
C693 C713 1.449 . S
C694 C693 1.258 . S
C694 C695 1.477 . S
C694 H714 0.931 . S
C695 C691 1.460 . S
C695 C694 1.477 . S
C695 H715 0.930 . S
C696 N692 1.362 . S
C696 C693 1.431 . S
C696 C706 1.476 . S
H697 C691 0.929 . S
C698 O689 1.250 . S
C698 O690 1.258 . S
O699 Mn684 2.162 . S
O699 C687 1.281 . S
O700 Mn684 2.297 . S
O700 C687 1.236 . S
N701 Mn685 2.282 . S
N701 C702 1.328 . S
N701 C706 1.318 . S
C702 N701 1.328 . S
C702 C703 1.457 . S
C702 H707 0.929 . S
C703 C702 1.457 . S
C703 C704 1.291 . S
C703 H716 0.931 . S
C704 C703 1.291 . S
C704 C705 1.373 . S
C704 H717 0.929 . S
C705 C704 1.373 . S
C705 C706 1.396 . S
C705 C712 1.403 . S
C706 C696 1.476 . S
C706 N701 1.318 . S
C706 C705 1.396 . S
H707 C702 0.929 . S
O708 Mn684 2.385 . S
O708 C686 1.234 . S
O709 Mn684 2.209 . S
O709 Mn685 2.215 . S
O709 C686 1.283 . S
O710 Mn684 2.094 . S
O710 C688 1.240 . S
O711 Mn685 2.117 . S
O711 C688 1.264 . S
C712 C705 1.403 . S
C712 C713 1.399 . S
C712 H718 0.929 . S
C713 C693 1.449 . S
C713 C712 1.399 . S
C713 H719 0.930 . S
H714 C694 0.931 . S
H715 C695 0.930 . S
H716 C703 0.931 . S
H717 C704 0.929 . S
H718 C712 0.929 . S
H719 C713 0.930 . S
Mn720 O725 2.095 . S
Mn720 O735 2.162 . S
Mn720 O736 2.297 . S
Mn720 O744 2.385 . S
Mn720 O745 2.209 . S
Mn720 O746 2.094 . S
Mn721 O726 2.121 . S
Mn721 N728 2.257 . S
Mn721 N737 2.282 . S
Mn721 O745 2.215 . S
Mn721 O747 2.117 . S
C722 O744 1.234 . S
C722 O745 1.283 . S
C723 O735 1.281 . S
C723 O736 1.236 . S
C724 O746 1.240 . S
C724 O747 1.264 . S
O725 Mn720 2.095 . S
O725 C734 1.250 . S
O726 Mn721 2.121 . S
O726 C734 1.258 . S
C727 N728 1.326 . S
C727 C731 1.460 . S
C727 H733 0.929 . S
N728 Mn721 2.257 . S
N728 C727 1.326 . S
N728 C732 1.362 . S
C729 C730 1.258 . S
C729 C732 1.431 . S
C729 C749 1.449 . S
C730 C729 1.258 . S
C730 C731 1.477 . S
C730 H750 0.931 . S
C731 C727 1.460 . S
C731 C730 1.477 . S
C731 H751 0.930 . S
C732 N728 1.362 . S
C732 C729 1.431 . S
C732 C742 1.476 . S
H733 C727 0.929 . S
C734 O725 1.250 . S
C734 O726 1.258 . S
O735 Mn720 2.162 . S
O735 C723 1.281 . S
O736 Mn720 2.297 . S
O736 C723 1.236 . S
N737 Mn721 2.282 . S
N737 C738 1.328 . S
N737 C742 1.318 . S
C738 N737 1.328 . S
C738 C739 1.457 . S
C738 H743 0.929 . S
C739 C738 1.457 . S
C739 C740 1.291 . S
C739 H752 0.931 . S
C740 C739 1.291 . S
C740 C741 1.373 . S
C740 H753 0.929 . S
C741 C740 1.373 . S
C741 C742 1.396 . S
C741 C748 1.403 . S
C742 C732 1.476 . S
C742 N737 1.318 . S
C742 C741 1.396 . S
H743 C738 0.929 . S
O744 Mn720 2.385 . S
O744 C722 1.234 . S
O745 Mn720 2.209 . S
O745 Mn721 2.215 . S
O745 C722 1.283 . S
O746 Mn720 2.094 . S
O746 C724 1.240 . S
O747 Mn721 2.117 . S
O747 C724 1.264 . S
C748 C741 1.403 . S
C748 C749 1.399 . S
C748 H754 0.929 . S
C749 C729 1.449 . S
C749 C748 1.399 . S
C749 H755 0.930 . S
H750 C730 0.931 . S
H751 C731 0.930 . S
H752 C739 0.931 . S
H753 C740 0.929 . S
H754 C748 0.929 . S
H755 C749 0.930 . S
Mn756 O761 2.095 . S
Mn756 O771 2.162 . S
Mn756 O772 2.297 . S
Mn756 O780 2.385 . S
Mn756 O781 2.209 . S
Mn756 O782 2.094 . S
Mn757 O762 2.121 . S
Mn757 N764 2.257 . S
Mn757 N773 2.282 . S
Mn757 O781 2.215 . S
Mn757 O783 2.117 . S
C758 O780 1.234 . S
C758 O781 1.283 . S
C759 O771 1.281 . S
C759 O772 1.236 . S
C760 O782 1.240 . S
C760 O783 1.264 . S
O761 Mn756 2.095 . S
O761 C770 1.250 . S
O762 Mn757 2.121 . S
O762 C770 1.258 . S
C763 N764 1.326 . S
C763 C767 1.460 . S
C763 H769 0.929 . S
N764 Mn757 2.257 . S
N764 C763 1.326 . S
N764 C768 1.362 . S
C765 C766 1.258 . S
C765 C768 1.431 . S
C765 C785 1.449 . S
C766 C765 1.258 . S
C766 C767 1.477 . S
C766 H786 0.931 . S
C767 C763 1.460 . S
C767 C766 1.477 . S
C767 H787 0.930 . S
C768 N764 1.362 . S
C768 C765 1.431 . S
C768 C778 1.476 . S
H769 C763 0.929 . S
C770 O761 1.250 . S
C770 O762 1.258 . S
O771 Mn756 2.162 . S
O771 C759 1.281 . S
O772 Mn756 2.297 . S
O772 C759 1.236 . S
N773 Mn757 2.282 . S
N773 C774 1.328 . S
N773 C778 1.318 . S
C774 N773 1.328 . S
C774 C775 1.457 . S
C774 H779 0.929 . S
C775 C774 1.457 . S
C775 C776 1.291 . S
C775 H788 0.931 . S
C776 C775 1.291 . S
C776 C777 1.373 . S
C776 H789 0.929 . S
C777 C776 1.373 . S
C777 C778 1.396 . S
C777 C784 1.403 . S
C778 C768 1.476 . S
C778 N773 1.318 . S
C778 C777 1.396 . S
H779 C774 0.929 . S
O780 Mn756 2.385 . S
O780 C758 1.234 . S
O781 Mn756 2.209 . S
O781 Mn757 2.215 . S
O781 C758 1.283 . S
O782 Mn756 2.094 . S
O782 C760 1.240 . S
O783 Mn757 2.117 . S
O783 C760 1.264 . S
C784 C777 1.403 . S
C784 C785 1.399 . S
C784 H790 0.929 . S
C785 C765 1.449 . S
C785 C784 1.399 . S
C785 H791 0.930 . S
H786 C766 0.931 . S
H787 C767 0.930 . S
H788 C775 0.931 . S
H789 C776 0.929 . S
H790 C784 0.929 . S
H791 C785 0.930 . S
Mn792 O797 2.095 . S
Mn792 O807 2.162 . S
Mn792 O808 2.297 . S
Mn792 O816 2.385 . S
Mn792 O817 2.209 . S
Mn792 O818 2.094 . S
Mn793 O798 2.121 . S
Mn793 N800 2.257 . S
Mn793 N809 2.282 . S
Mn793 O817 2.215 . S
Mn793 O819 2.117 . S
C794 O816 1.234 . S
C794 O817 1.283 . S
C795 O807 1.281 . S
C795 O808 1.236 . S
C796 O818 1.240 . S
C796 O819 1.264 . S
O797 Mn792 2.095 . S
O797 C806 1.250 . S
O798 Mn793 2.121 . S
O798 C806 1.258 . S
C799 N800 1.326 . S
C799 C803 1.460 . S
C799 H805 0.929 . S
N800 Mn793 2.257 . S
N800 C799 1.326 . S
N800 C804 1.362 . S
C801 C802 1.258 . S
C801 C804 1.431 . S
C801 C821 1.449 . S
C802 C801 1.258 . S
C802 C803 1.477 . S
C802 H822 0.931 . S
C803 C799 1.460 . S
C803 C802 1.477 . S
C803 H823 0.930 . S
C804 N800 1.362 . S
C804 C801 1.431 . S
C804 C814 1.476 . S
H805 C799 0.929 . S
C806 O797 1.250 . S
C806 O798 1.258 . S
O807 Mn792 2.162 . S
O807 C795 1.281 . S
O808 Mn792 2.297 . S
O808 C795 1.236 . S
N809 Mn793 2.282 . S
N809 C810 1.328 . S
N809 C814 1.318 . S
C810 N809 1.328 . S
C810 C811 1.457 . S
C810 H815 0.929 . S
C811 C810 1.457 . S
C811 C812 1.291 . S
C811 H824 0.931 . S
C812 C811 1.291 . S
C812 C813 1.373 . S
C812 H825 0.929 . S
C813 C812 1.373 . S
C813 C814 1.396 . S
C813 C820 1.403 . S
C814 C804 1.476 . S
C814 N809 1.318 . S
C814 C813 1.396 . S
H815 C810 0.929 . S
O816 Mn792 2.385 . S
O816 C794 1.234 . S
O817 Mn792 2.209 . S
O817 Mn793 2.215 . S
O817 C794 1.283 . S
O818 Mn792 2.094 . S
O818 C796 1.240 . S
O819 Mn793 2.117 . S
O819 C796 1.264 . S
C820 C813 1.403 . S
C820 C821 1.399 . S
C820 H826 0.929 . S
C821 C801 1.449 . S
C821 C820 1.399 . S
C821 H827 0.930 . S
H822 C802 0.931 . S
H823 C803 0.930 . S
H824 C811 0.931 . S
H825 C812 0.929 . S
H826 C820 0.929 . S
H827 C821 0.930 . S
Mn828 O833 2.095 . S
Mn828 O843 2.162 . S
Mn828 O844 2.297 . S
Mn828 O852 2.385 . S
Mn828 O853 2.209 . S
Mn828 O854 2.094 . S
Mn829 O834 2.121 . S
Mn829 N836 2.257 . S
Mn829 N845 2.282 . S
Mn829 O853 2.215 . S
Mn829 O855 2.117 . S
C830 O852 1.234 . S
C830 O853 1.283 . S
C831 O843 1.281 . S
C831 O844 1.236 . S
C832 O854 1.240 . S
C832 O855 1.264 . S
O833 Mn828 2.095 . S
O833 C842 1.250 . S
O834 Mn829 2.121 . S
O834 C842 1.258 . S
C835 N836 1.326 . S
C835 C839 1.460 . S
C835 H841 0.929 . S
N836 Mn829 2.257 . S
N836 C835 1.326 . S
N836 C840 1.362 . S
C837 C838 1.258 . S
C837 C840 1.431 . S
C837 C857 1.449 . S
C838 C837 1.258 . S
C838 C839 1.477 . S
C838 H858 0.931 . S
C839 C835 1.460 . S
C839 C838 1.477 . S
C839 H859 0.930 . S
C840 N836 1.362 . S
C840 C837 1.431 . S
C840 C850 1.476 . S
H841 C835 0.929 . S
C842 O833 1.250 . S
C842 O834 1.258 . S
O843 Mn828 2.162 . S
O843 C831 1.281 . S
O844 Mn828 2.297 . S
O844 C831 1.236 . S
N845 Mn829 2.282 . S
N845 C846 1.328 . S
N845 C850 1.318 . S
C846 N845 1.328 . S
C846 C847 1.457 . S
C846 H851 0.929 . S
C847 C846 1.457 . S
C847 C848 1.291 . S
C847 H860 0.931 . S
C848 C847 1.291 . S
C848 C849 1.373 . S
C848 H861 0.929 . S
C849 C848 1.373 . S
C849 C850 1.396 . S
C849 C856 1.403 . S
C850 C840 1.476 . S
C850 N845 1.318 . S
C850 C849 1.396 . S
H851 C846 0.929 . S
O852 Mn828 2.385 . S
O852 C830 1.234 . S
O853 Mn828 2.209 . S
O853 Mn829 2.215 . S
O853 C830 1.283 . S
O854 Mn828 2.094 . S
O854 C832 1.240 . S
O855 Mn829 2.117 . S
O855 C832 1.264 . S
C856 C849 1.403 . S
C856 C857 1.399 . S
C856 H862 0.929 . S
C857 C837 1.449 . S
C857 C856 1.399 . S
C857 H863 0.930 . S
H858 C838 0.931 . S
H859 C839 0.930 . S
H860 C847 0.931 . S
H861 C848 0.929 . S
H862 C856 0.929 . S
H863 C857 0.930 . S
H864 C882 0.951 . S
H865 C884 0.951 . S
H866 C886 0.950 . S
H867 C887 0.950 . S
H868 C889 0.950 . S
H869 C892 0.950 . S
H870 C893 0.950 . S
H871 C895 0.950 . S
H872 C896 0.950 . S
H873 C897 0.951 . S
H874 C899 0.951 . S
H875 C901 0.950 . S
H876 C902 0.950 . S
H877 C904 0.950 . S
H878 C907 0.950 . S
H879 C908 0.950 . S
H880 C910 0.950 . S
H881 C911 0.950 . S
C882 H864 0.951 . S
C882 C883 1.366 . S
C882 C884 1.388 . S
C883 C882 1.366 . S
C883 C887 1.385 . S
C884 H865 0.951 . S
C884 C882 1.388 . S
C884 C885 1.366 . S
C885 C884 1.366 . S
C885 C886 1.414 . S
C885 C888 1.499 . S
C886 H866 0.950 . S
C886 C885 1.414 . S
C886 C887 1.374 . S
C887 H867 0.950 . S
C887 C883 1.385 . S
C887 C886 1.374 . S
C888 C885 1.499 . S
C888 C889 1.373 . S
C888 C890 1.389 . S
C889 H868 0.950 . S
C889 C888 1.373 . S
C889 C905 1.377 . S
C890 C888 1.389 . S
C890 C891 1.524 . S
C890 C904 1.377 . S
C891 C890 1.524 . S
C891 C892 1.397 . S
C891 C896 1.363 . S
C892 H869 0.950 . S
C892 C891 1.397 . S
C892 C893 1.334 . S
C893 H870 0.950 . S
C893 C892 1.334 . S
C893 C894 1.287 . S
C894 C893 1.287 . S
C894 C895 1.524 . S
C894 H913 0.913 . S
C895 H871 0.950 . S
C895 C894 1.524 . S
C895 C896 1.415 . S
C896 H872 0.950 . S
C896 C891 1.363 . S
C896 C895 1.415 . S
C897 H873 0.951 . S
C897 C898 1.366 . S
C897 C899 1.388 . S
C898 C897 1.366 . S
C898 C902 1.385 . S
C899 H874 0.951 . S
C899 C897 1.388 . S
C899 C900 1.366 . S
C900 C899 1.366 . S
C900 C901 1.414 . S
C900 C903 1.499 . S
C901 H875 0.950 . S
C901 C900 1.414 . S
C901 C902 1.374 . S
C902 H876 0.950 . S
C902 C898 1.385 . S
C902 C901 1.374 . S
C903 C900 1.499 . S
C903 C904 1.373 . S
C903 C905 1.389 . S
C904 H877 0.950 . S
C904 C890 1.377 . S
C904 C903 1.373 . S
C905 C889 1.377 . S
C905 C903 1.389 . S
C905 C906 1.524 . S
C906 C905 1.524 . S
C906 C907 1.397 . S
C906 C911 1.363 . S
C907 H878 0.950 . S
C907 C906 1.397 . S
C907 C908 1.334 . S
C908 H879 0.950 . S
C908 C907 1.334 . S
C908 C909 1.287 . S
C909 C908 1.287 . S
C909 C910 1.524 . S
C909 H912 0.999 . S
C910 H880 0.950 . S
C910 C909 1.524 . S
C910 C911 1.415 . S
C911 H881 0.950 . S
C911 C906 1.363 . S
C911 C910 1.415 . S
H912 C909 0.999 . S
H913 C894 0.913 . S
H914 C932 0.951 . S
H915 C934 0.951 . S
H916 C936 0.950 . S
H917 C937 0.950 . S
H918 C939 0.950 . S
H919 C942 0.950 . S
H920 C943 0.950 . S
H921 C945 0.950 . S
H922 C946 0.950 . S
H923 C947 0.951 . S
H924 C949 0.951 . S
H925 C951 0.950 . S
H926 C952 0.950 . S
H927 C954 0.950 . S
H928 C957 0.950 . S
H929 C958 0.950 . S
H930 C960 0.950 . S
H931 C961 0.950 . S
C932 H914 0.951 . S
C932 C933 1.366 . S
C932 C934 1.388 . S
C933 C932 1.366 . S
C933 C937 1.385 . S
C934 H915 0.951 . S
C934 C932 1.388 . S
C934 C935 1.366 . S
C935 C934 1.366 . S
C935 C936 1.414 . S
C935 C938 1.499 . S
C936 H916 0.950 . S
C936 C935 1.414 . S
C936 C937 1.374 . S
C937 H917 0.950 . S
C937 C933 1.385 . S
C937 C936 1.374 . S
C938 C935 1.499 . S
C938 C939 1.373 . S
C938 C940 1.389 . S
C939 H918 0.950 . S
C939 C938 1.373 . S
C939 C955 1.377 . S
C940 C938 1.389 . S
C940 C941 1.524 . S
C940 C954 1.377 . S
C941 C940 1.524 . S
C941 C942 1.397 . S
C941 C946 1.363 . S
C942 H919 0.950 . S
C942 C941 1.397 . S
C942 C943 1.334 . S
C943 H920 0.950 . S
C943 C942 1.334 . S
C943 C944 1.287 . S
C944 C943 1.287 . S
C944 C945 1.524 . S
C944 H963 0.913 . S
C945 H921 0.950 . S
C945 C944 1.524 . S
C945 C946 1.415 . S
C946 H922 0.950 . S
C946 C941 1.363 . S
C946 C945 1.415 . S
C947 H923 0.951 . S
C947 C948 1.366 . S
C947 C949 1.388 . S
C948 C947 1.366 . S
C948 C952 1.385 . S
C949 H924 0.951 . S
C949 C947 1.388 . S
C949 C950 1.366 . S
C950 C949 1.366 . S
C950 C951 1.414 . S
C950 C953 1.499 . S
C951 H925 0.950 . S
C951 C950 1.414 . S
C951 C952 1.374 . S
C952 H926 0.950 . S
C952 C948 1.385 . S
C952 C951 1.374 . S
C953 C950 1.499 . S
C953 C954 1.373 . S
C953 C955 1.389 . S
C954 H927 0.950 . S
C954 C940 1.377 . S
C954 C953 1.373 . S
C955 C939 1.377 . S
C955 C953 1.389 . S
C955 C956 1.524 . S
C956 C955 1.524 . S
C956 C957 1.397 . S
C956 C961 1.363 . S
C957 H928 0.950 . S
C957 C956 1.397 . S
C957 C958 1.334 . S
C958 H929 0.950 . S
C958 C957 1.334 . S
C958 C959 1.287 . S
C959 C958 1.287 . S
C959 C960 1.524 . S
C959 H962 0.999 . S
C960 H930 0.950 . S
C960 C959 1.524 . S
C960 C961 1.415 . S
C961 H931 0.950 . S
C961 C956 1.363 . S
C961 C960 1.415 . S
H962 C959 0.999 . S
H963 C944 0.913 . S
H964 C982 0.951 . S
H965 C984 0.951 . S
H966 C986 0.950 . S
H967 C987 0.950 . S
H968 C989 0.950 . S
H969 C992 0.950 . S
H970 C993 0.950 . S
H971 C995 0.950 . S
H972 C996 0.950 . S
H973 C997 0.951 . S
H974 C999 0.951 . S
H975 C1001 0.950 . S
H976 C1002 0.950 . S
H977 C1004 0.950 . S
H978 C1007 0.950 . S
H979 C1008 0.950 . S
H980 C1010 0.950 . S
H981 C1011 0.950 . S
C982 H964 0.951 . S
C982 C983 1.366 . S
C982 C984 1.388 . S
C983 C982 1.366 . S
C983 C987 1.385 . S
C984 H965 0.951 . S
C984 C982 1.388 . S
C984 C985 1.366 . S
C985 C984 1.366 . S
C985 C986 1.414 . S
C985 C988 1.499 . S
C986 H966 0.950 . S
C986 C985 1.414 . S
C986 C987 1.374 . S
C987 H967 0.950 . S
C987 C983 1.385 . S
C987 C986 1.374 . S
C988 C985 1.499 . S
C988 C989 1.373 . S
C988 C990 1.389 . S
C989 H968 0.950 . S
C989 C988 1.373 . S
C989 C1005 1.377 . S
C990 C988 1.389 . S
C990 C991 1.524 . S
C990 C1004 1.377 . S
C991 C990 1.524 . S
C991 C992 1.397 . S
C991 C996 1.363 . S
C992 H969 0.950 . S
C992 C991 1.397 . S
C992 C993 1.334 . S
C993 H970 0.950 . S
C993 C992 1.334 . S
C993 C994 1.287 . S
C994 C993 1.287 . S
C994 C995 1.524 . S
C994 H1013 0.913 . S
C995 H971 0.950 . S
C995 C994 1.524 . S
C995 C996 1.415 . S
C996 H972 0.950 . S
C996 C991 1.363 . S
C996 C995 1.415 . S
C997 H973 0.951 . S
C997 C998 1.366 . S
C997 C999 1.388 . S
C998 C997 1.366 . S
C998 C1002 1.385 . S
C999 H974 0.951 . S
C999 C997 1.388 . S
C999 C1000 1.366 . S
C1000 C999 1.366 . S
C1000 C1001 1.414 . S
C1000 C1003 1.499 . S
C1001 H975 0.950 . S
C1001 C1000 1.414 . S
C1001 C1002 1.374 . S
C1002 H976 0.950 . S
C1002 C998 1.385 . S
C1002 C1001 1.374 . S
C1003 C1000 1.499 . S
C1003 C1004 1.373 . S
C1003 C1005 1.389 . S
C1004 H977 0.950 . S
C1004 C990 1.377 . S
C1004 C1003 1.373 . S
C1005 C989 1.377 . S
C1005 C1003 1.389 . S
C1005 C1006 1.524 . S
C1006 C1005 1.524 . S
C1006 C1007 1.397 . S
C1006 C1011 1.363 . S
C1007 H978 0.950 . S
C1007 C1006 1.397 . S
C1007 C1008 1.334 . S
C1008 H979 0.950 . S
C1008 C1007 1.334 . S
C1008 C1009 1.287 . S
C1009 C1008 1.287 . S
C1009 C1010 1.524 . S
C1009 H1012 0.999 . S
C1010 H980 0.950 . S
C1010 C1009 1.524 . S
C1010 C1011 1.415 . S
C1011 H981 0.950 . S
C1011 C1006 1.363 . S
C1011 C1010 1.415 . S
H1012 C1009 0.999 . S
H1013 C994 0.913 . S
H1014 C1032 0.951 . S
H1015 C1034 0.951 . S
H1016 C1036 0.950 . S
H1017 C1037 0.950 . S
H1018 C1039 0.950 . S
H1019 C1042 0.950 . S
H1020 C1043 0.950 . S
H1021 C1045 0.950 . S
H1022 C1046 0.950 . S
H1023 C1047 0.951 . S
H1024 C1049 0.951 . S
H1025 C1051 0.950 . S
H1026 C1052 0.950 . S
H1027 C1054 0.950 . S
H1028 C1057 0.950 . S
H1029 C1058 0.950 . S
H1030 C1060 0.950 . S
H1031 C1061 0.950 . S
C1032 H1014 0.951 . S
C1032 C1033 1.366 . S
C1032 C1034 1.388 . S
C1033 C1032 1.366 . S
C1033 C1037 1.385 . S
C1034 H1015 0.951 . S
C1034 C1032 1.388 . S
C1034 C1035 1.366 . S
C1035 C1034 1.366 . S
C1035 C1036 1.414 . S
C1035 C1038 1.499 . S
C1036 H1016 0.950 . S
C1036 C1035 1.414 . S
C1036 C1037 1.374 . S
C1037 H1017 0.950 . S
C1037 C1033 1.385 . S
C1037 C1036 1.374 . S
C1038 C1035 1.499 . S
C1038 C1039 1.373 . S
C1038 C1040 1.389 . S
C1039 H1018 0.950 . S
C1039 C1038 1.373 . S
C1039 C1055 1.377 . S
C1040 C1038 1.389 . S
C1040 C1041 1.524 . S
C1040 C1054 1.377 . S
C1041 C1040 1.524 . S
C1041 C1042 1.397 . S
C1041 C1046 1.363 . S
C1042 H1019 0.950 . S
C1042 C1041 1.397 . S
C1042 C1043 1.334 . S
C1043 H1020 0.950 . S
C1043 C1042 1.334 . S
C1043 C1044 1.287 . S
C1044 C1043 1.287 . S
C1044 C1045 1.524 . S
C1044 H1063 0.913 . S
C1045 H1021 0.950 . S
C1045 C1044 1.524 . S
C1045 C1046 1.415 . S
C1046 H1022 0.950 . S
C1046 C1041 1.363 . S
C1046 C1045 1.415 . S
C1047 H1023 0.951 . S
C1047 C1048 1.366 . S
C1047 C1049 1.388 . S
C1048 C1047 1.366 . S
C1048 C1052 1.385 . S
C1049 H1024 0.951 . S
C1049 C1047 1.388 . S
C1049 C1050 1.366 . S
C1050 C1049 1.366 . S
C1050 C1051 1.414 . S
C1050 C1053 1.499 . S
C1051 H1025 0.950 . S
C1051 C1050 1.414 . S
C1051 C1052 1.374 . S
C1052 H1026 0.950 . S
C1052 C1048 1.385 . S
C1052 C1051 1.374 . S
C1053 C1050 1.499 . S
C1053 C1054 1.373 . S
C1053 C1055 1.389 . S
C1054 H1027 0.950 . S
C1054 C1040 1.377 . S
C1054 C1053 1.373 . S
C1055 C1039 1.377 . S
C1055 C1053 1.389 . S
C1055 C1056 1.524 . S
C1056 C1055 1.524 . S
C1056 C1057 1.397 . S
C1056 C1061 1.363 . S
C1057 H1028 0.950 . S
C1057 C1056 1.397 . S
C1057 C1058 1.334 . S
C1058 H1029 0.950 . S
C1058 C1057 1.334 . S
C1058 C1059 1.287 . S
C1059 C1058 1.287 . S
C1059 C1060 1.524 . S
C1059 H1062 0.999 . S
C1060 H1030 0.950 . S
C1060 C1059 1.524 . S
C1060 C1061 1.415 . S
C1061 H1031 0.950 . S
C1061 C1056 1.363 . S
C1061 C1060 1.415 . S
H1062 C1059 0.999 . S
H1063 C1044 0.913 . S
H1064 C1082 0.951 . S
H1065 C1084 0.951 . S
H1066 C1086 0.950 . S
H1067 C1087 0.950 . S
H1068 C1089 0.950 . S
H1069 C1092 0.950 . S
H1070 C1093 0.950 . S
H1071 C1095 0.950 . S
H1072 C1096 0.950 . S
H1073 C1097 0.951 . S
H1074 C1099 0.951 . S
H1075 C1101 0.950 . S
H1076 C1102 0.950 . S
H1077 C1104 0.950 . S
H1078 C1107 0.950 . S
H1079 C1108 0.950 . S
H1080 C1110 0.950 . S
H1081 C1111 0.950 . S
C1082 H1064 0.951 . S
C1082 C1083 1.366 . S
C1082 C1084 1.388 . S
C1083 C1082 1.366 . S
C1083 C1087 1.385 . S
C1084 H1065 0.951 . S
C1084 C1082 1.388 . S
C1084 C1085 1.366 . S
C1085 C1084 1.366 . S
C1085 C1086 1.414 . S
C1085 C1088 1.499 . S
C1086 H1066 0.950 . S
C1086 C1085 1.414 . S
C1086 C1087 1.374 . S
C1087 H1067 0.950 . S
C1087 C1083 1.385 . S
C1087 C1086 1.374 . S
C1088 C1085 1.499 . S
C1088 C1089 1.373 . S
C1088 C1090 1.389 . S
C1089 H1068 0.950 . S
C1089 C1088 1.373 . S
C1089 C1105 1.377 . S
C1090 C1088 1.389 . S
C1090 C1091 1.524 . S
C1090 C1104 1.377 . S
C1091 C1090 1.524 . S
C1091 C1092 1.397 . S
C1091 C1096 1.363 . S
C1092 H1069 0.950 . S
C1092 C1091 1.397 . S
C1092 C1093 1.334 . S
C1093 H1070 0.950 . S
C1093 C1092 1.334 . S
C1093 C1094 1.287 . S
C1094 C1093 1.287 . S
C1094 C1095 1.524 . S
C1094 H1113 0.913 . S
C1095 H1071 0.950 . S
C1095 C1094 1.524 . S
C1095 C1096 1.415 . S
C1096 H1072 0.950 . S
C1096 C1091 1.363 . S
C1096 C1095 1.415 . S
C1097 H1073 0.951 . S
C1097 C1098 1.366 . S
C1097 C1099 1.388 . S
C1098 C1097 1.366 . S
C1098 C1102 1.385 . S
C1099 H1074 0.951 . S
C1099 C1097 1.388 . S
C1099 C1100 1.366 . S
C1100 C1099 1.366 . S
C1100 C1101 1.414 . S
C1100 C1103 1.499 . S
C1101 H1075 0.950 . S
C1101 C1100 1.414 . S
C1101 C1102 1.374 . S
C1102 H1076 0.950 . S
C1102 C1098 1.385 . S
C1102 C1101 1.374 . S
C1103 C1100 1.499 . S
C1103 C1104 1.373 . S
C1103 C1105 1.389 . S
C1104 H1077 0.950 . S
C1104 C1090 1.377 . S
C1104 C1103 1.373 . S
C1105 C1089 1.377 . S
C1105 C1103 1.389 . S
C1105 C1106 1.524 . S
C1106 C1105 1.524 . S
C1106 C1107 1.397 . S
C1106 C1111 1.363 . S
C1107 H1078 0.950 . S
C1107 C1106 1.397 . S
C1107 C1108 1.334 . S
C1108 H1079 0.950 . S
C1108 C1107 1.334 . S
C1108 C1109 1.287 . S
C1109 C1108 1.287 . S
C1109 C1110 1.524 . S
C1109 H1112 0.999 . S
C1110 H1080 0.950 . S
C1110 C1109 1.524 . S
C1110 C1111 1.415 . S
C1111 H1081 0.950 . S
C1111 C1106 1.363 . S
C1111 C1110 1.415 . S
H1112 C1109 0.999 . S
H1113 C1094 0.913 . S
H1114 C1132 0.951 . S
H1115 C1134 0.951 . S
H1116 C1136 0.950 . S
H1117 C1137 0.950 . S
H1118 C1139 0.950 . S
H1119 C1142 0.950 . S
H1120 C1143 0.950 . S
H1121 C1145 0.950 . S
H1122 C1146 0.950 . S
H1123 C1147 0.951 . S
H1124 C1149 0.951 . S
H1125 C1151 0.950 . S
H1126 C1152 0.950 . S
H1127 C1154 0.950 . S
H1128 C1157 0.950 . S
H1129 C1158 0.950 . S
H1130 C1160 0.950 . S
H1131 C1161 0.950 . S
C1132 H1114 0.951 . S
C1132 C1133 1.366 . S
C1132 C1134 1.388 . S
C1133 C1132 1.366 . S
C1133 C1137 1.385 . S
C1134 H1115 0.951 . S
C1134 C1132 1.388 . S
C1134 C1135 1.366 . S
C1135 C1134 1.366 . S
C1135 C1136 1.414 . S
C1135 C1138 1.499 . S
C1136 H1116 0.950 . S
C1136 C1135 1.414 . S
C1136 C1137 1.374 . S
C1137 H1117 0.950 . S
C1137 C1133 1.385 . S
C1137 C1136 1.374 . S
C1138 C1135 1.499 . S
C1138 C1139 1.373 . S
C1138 C1140 1.389 . S
C1139 H1118 0.950 . S
C1139 C1138 1.373 . S
C1139 C1155 1.377 . S
C1140 C1138 1.389 . S
C1140 C1141 1.524 . S
C1140 C1154 1.377 . S
C1141 C1140 1.524 . S
C1141 C1142 1.397 . S
C1141 C1146 1.363 . S
C1142 H1119 0.950 . S
C1142 C1141 1.397 . S
C1142 C1143 1.334 . S
C1143 H1120 0.950 . S
C1143 C1142 1.334 . S
C1143 C1144 1.287 . S
C1144 C1143 1.287 . S
C1144 C1145 1.524 . S
C1144 H1163 0.913 . S
C1145 H1121 0.950 . S
C1145 C1144 1.524 . S
C1145 C1146 1.415 . S
C1146 H1122 0.950 . S
C1146 C1141 1.363 . S
C1146 C1145 1.415 . S
C1147 H1123 0.951 . S
C1147 C1148 1.366 . S
C1147 C1149 1.388 . S
C1148 C1147 1.366 . S
C1148 C1152 1.385 . S
C1149 H1124 0.951 . S
C1149 C1147 1.388 . S
C1149 C1150 1.366 . S
C1150 C1149 1.366 . S
C1150 C1151 1.414 . S
C1150 C1153 1.499 . S
C1151 H1125 0.950 . S
C1151 C1150 1.414 . S
C1151 C1152 1.374 . S
C1152 H1126 0.950 . S
C1152 C1148 1.385 . S
C1152 C1151 1.374 . S
C1153 C1150 1.499 . S
C1153 C1154 1.373 . S
C1153 C1155 1.389 . S
C1154 H1127 0.950 . S
C1154 C1140 1.377 . S
C1154 C1153 1.373 . S
C1155 C1139 1.377 . S
C1155 C1153 1.389 . S
C1155 C1156 1.524 . S
C1156 C1155 1.524 . S
C1156 C1157 1.397 . S
C1156 C1161 1.363 . S
C1157 H1128 0.950 . S
C1157 C1156 1.397 . S
C1157 C1158 1.334 . S
C1158 H1129 0.950 . S
C1158 C1157 1.334 . S
C1158 C1159 1.287 . S
C1159 C1158 1.287 . S
C1159 C1160 1.524 . S
C1159 H1162 0.999 . S
C1160 H1130 0.950 . S
C1160 C1159 1.524 . S
C1160 C1161 1.415 . S
C1161 H1131 0.950 . S
C1161 C1156 1.363 . S
C1161 C1160 1.415 . S
H1162 C1159 0.999 . S
H1163 C1144 0.913 . S
H1164 C1182 0.951 . S
H1165 C1184 0.951 . S
H1166 C1186 0.950 . S
H1167 C1187 0.950 . S
H1168 C1189 0.950 . S
H1169 C1192 0.950 . S
H1170 C1193 0.950 . S
H1171 C1195 0.950 . S
H1172 C1196 0.950 . S
H1173 C1197 0.951 . S
H1174 C1199 0.951 . S
H1175 C1201 0.950 . S
H1176 C1202 0.950 . S
H1177 C1204 0.950 . S
H1178 C1207 0.950 . S
H1179 C1208 0.950 . S
H1180 C1210 0.950 . S
H1181 C1211 0.950 . S
C1182 H1164 0.951 . S
C1182 C1183 1.366 . S
C1182 C1184 1.388 . S
C1183 C1182 1.366 . S
C1183 C1187 1.385 . S
C1184 H1165 0.951 . S
C1184 C1182 1.388 . S
C1184 C1185 1.366 . S
C1185 C1184 1.366 . S
C1185 C1186 1.414 . S
C1185 C1188 1.499 . S
C1186 H1166 0.950 . S
C1186 C1185 1.414 . S
C1186 C1187 1.374 . S
C1187 H1167 0.950 . S
C1187 C1183 1.385 . S
C1187 C1186 1.374 . S
C1188 C1185 1.499 . S
C1188 C1189 1.373 . S
C1188 C1190 1.389 . S
C1189 H1168 0.950 . S
C1189 C1188 1.373 . S
C1189 C1205 1.377 . S
C1190 C1188 1.389 . S
C1190 C1191 1.524 . S
C1190 C1204 1.377 . S
C1191 C1190 1.524 . S
C1191 C1192 1.397 . S
C1191 C1196 1.363 . S
C1192 H1169 0.950 . S
C1192 C1191 1.397 . S
C1192 C1193 1.334 . S
C1193 H1170 0.950 . S
C1193 C1192 1.334 . S
C1193 C1194 1.287 . S
C1194 C1193 1.287 . S
C1194 C1195 1.524 . S
C1194 H1213 0.913 . S
C1195 H1171 0.950 . S
C1195 C1194 1.524 . S
C1195 C1196 1.415 . S
C1196 H1172 0.950 . S
C1196 C1191 1.363 . S
C1196 C1195 1.415 . S
C1197 H1173 0.951 . S
C1197 C1198 1.366 . S
C1197 C1199 1.388 . S
C1198 C1197 1.366 . S
C1198 C1202 1.385 . S
C1199 H1174 0.951 . S
C1199 C1197 1.388 . S
C1199 C1200 1.366 . S
C1200 C1199 1.366 . S
C1200 C1201 1.414 . S
C1200 C1203 1.499 . S
C1201 H1175 0.950 . S
C1201 C1200 1.414 . S
C1201 C1202 1.374 . S
C1202 H1176 0.950 . S
C1202 C1198 1.385 . S
C1202 C1201 1.374 . S
C1203 C1200 1.499 . S
C1203 C1204 1.373 . S
C1203 C1205 1.389 . S
C1204 H1177 0.950 . S
C1204 C1190 1.377 . S
C1204 C1203 1.373 . S
C1205 C1189 1.377 . S
C1205 C1203 1.389 . S
C1205 C1206 1.524 . S
C1206 C1205 1.524 . S
C1206 C1207 1.397 . S
C1206 C1211 1.363 . S
C1207 H1178 0.950 . S
C1207 C1206 1.397 . S
C1207 C1208 1.334 . S
C1208 H1179 0.950 . S
C1208 C1207 1.334 . S
C1208 C1209 1.287 . S
C1209 C1208 1.287 . S
C1209 C1210 1.524 . S
C1209 H1212 0.999 . S
C1210 H1180 0.950 . S
C1210 C1209 1.524 . S
C1210 C1211 1.415 . S
C1211 H1181 0.950 . S
C1211 C1206 1.363 . S
C1211 C1210 1.415 . S
H1212 C1209 0.999 . S
H1213 C1194 0.913 . S
H1214 C1232 0.951 . S
H1215 C1234 0.951 . S
H1216 C1236 0.950 . S
H1217 C1237 0.950 . S
H1218 C1239 0.950 . S
H1219 C1242 0.950 . S
H1220 C1243 0.950 . S
H1221 C1245 0.950 . S
H1222 C1246 0.950 . S
H1223 C1247 0.951 . S
H1224 C1249 0.951 . S
H1225 C1251 0.950 . S
H1226 C1252 0.950 . S
H1227 C1254 0.950 . S
H1228 C1257 0.950 . S
H1229 C1258 0.950 . S
H1230 C1260 0.950 . S
H1231 C1261 0.950 . S
C1232 H1214 0.951 . S
C1232 C1233 1.366 . S
C1232 C1234 1.388 . S
C1233 C1232 1.366 . S
C1233 C1237 1.385 . S
C1234 H1215 0.951 . S
C1234 C1232 1.388 . S
C1234 C1235 1.366 . S
C1235 C1234 1.366 . S
C1235 C1236 1.414 . S
C1235 C1238 1.499 . S
C1236 H1216 0.950 . S
C1236 C1235 1.414 . S
C1236 C1237 1.374 . S
C1237 H1217 0.950 . S
C1237 C1233 1.385 . S
C1237 C1236 1.374 . S
C1238 C1235 1.499 . S
C1238 C1239 1.373 . S
C1238 C1240 1.389 . S
C1239 H1218 0.950 . S
C1239 C1238 1.373 . S
C1239 C1255 1.377 . S
C1240 C1238 1.389 . S
C1240 C1241 1.524 . S
C1240 C1254 1.377 . S
C1241 C1240 1.524 . S
C1241 C1242 1.397 . S
C1241 C1246 1.363 . S
C1242 H1219 0.950 . S
C1242 C1241 1.397 . S
C1242 C1243 1.334 . S
C1243 H1220 0.950 . S
C1243 C1242 1.334 . S
C1243 C1244 1.287 . S
C1244 C1243 1.287 . S
C1244 C1245 1.524 . S
C1244 H1263 0.913 . S
C1245 H1221 0.950 . S
C1245 C1244 1.524 . S
C1245 C1246 1.415 . S
C1246 H1222 0.950 . S
C1246 C1241 1.363 . S
C1246 C1245 1.415 . S
C1247 H1223 0.951 . S
C1247 C1248 1.366 . S
C1247 C1249 1.388 . S
C1248 C1247 1.366 . S
C1248 C1252 1.385 . S
C1249 H1224 0.951 . S
C1249 C1247 1.388 . S
C1249 C1250 1.366 . S
C1250 C1249 1.366 . S
C1250 C1251 1.414 . S
C1250 C1253 1.499 . S
C1251 H1225 0.950 . S
C1251 C1250 1.414 . S
C1251 C1252 1.374 . S
C1252 H1226 0.950 . S
C1252 C1248 1.385 . S
C1252 C1251 1.374 . S
C1253 C1250 1.499 . S
C1253 C1254 1.373 . S
C1253 C1255 1.389 . S
C1254 H1227 0.950 . S
C1254 C1240 1.377 . S
C1254 C1253 1.373 . S
C1255 C1239 1.377 . S
C1255 C1253 1.389 . S
C1255 C1256 1.524 . S
C1256 C1255 1.524 . S
C1256 C1257 1.397 . S
C1256 C1261 1.363 . S
C1257 H1228 0.950 . S
C1257 C1256 1.397 . S
C1257 C1258 1.334 . S
C1258 H1229 0.950 . S
C1258 C1257 1.334 . S
C1258 C1259 1.287 . S
C1259 C1258 1.287 . S
C1259 C1260 1.524 . S
C1259 H1262 0.999 . S
C1260 H1230 0.950 . S
C1260 C1259 1.524 . S
C1260 C1261 1.415 . S
C1261 H1231 0.950 . S
C1261 C1256 1.363 . S
C1261 C1260 1.415 . S
H1262 C1259 0.999 . S
H1263 C1244 0.913 . S
H1264 C1282 0.951 . S
H1265 C1284 0.951 . S
H1266 C1286 0.950 . S
H1267 C1287 0.950 . S
H1268 C1289 0.950 . S
H1269 C1292 0.950 . S
H1270 C1293 0.950 . S
H1271 C1295 0.950 . S
H1272 C1296 0.950 . S
H1273 C1297 0.951 . S
H1274 C1299 0.951 . S
H1275 C1301 0.950 . S
H1276 C1302 0.950 . S
H1277 C1304 0.950 . S
H1278 C1307 0.950 . S
H1279 C1308 0.950 . S
H1280 C1310 0.950 . S
H1281 C1311 0.950 . S
C1282 H1264 0.951 . S
C1282 C1283 1.366 . S
C1282 C1284 1.388 . S
C1283 C1282 1.366 . S
C1283 C1287 1.385 . S
C1284 H1265 0.951 . S
C1284 C1282 1.388 . S
C1284 C1285 1.366 . S
C1285 C1284 1.366 . S
C1285 C1286 1.414 . S
C1285 C1288 1.499 . S
C1286 H1266 0.950 . S
C1286 C1285 1.414 . S
C1286 C1287 1.374 . S
C1287 H1267 0.950 . S
C1287 C1283 1.385 . S
C1287 C1286 1.374 . S
C1288 C1285 1.499 . S
C1288 C1289 1.373 . S
C1288 C1290 1.389 . S
C1289 H1268 0.950 . S
C1289 C1288 1.373 . S
C1289 C1305 1.377 . S
C1290 C1288 1.389 . S
C1290 C1291 1.524 . S
C1290 C1304 1.377 . S
C1291 C1290 1.524 . S
C1291 C1292 1.397 . S
C1291 C1296 1.363 . S
C1292 H1269 0.950 . S
C1292 C1291 1.397 . S
C1292 C1293 1.334 . S
C1293 H1270 0.950 . S
C1293 C1292 1.334 . S
C1293 C1294 1.287 . S
C1294 C1293 1.287 . S
C1294 C1295 1.524 . S
C1294 H1313 0.913 . S
C1295 H1271 0.950 . S
C1295 C1294 1.524 . S
C1295 C1296 1.415 . S
C1296 H1272 0.950 . S
C1296 C1291 1.363 . S
C1296 C1295 1.415 . S
C1297 H1273 0.951 . S
C1297 C1298 1.366 . S
C1297 C1299 1.388 . S
C1298 C1297 1.366 . S
C1298 C1302 1.385 . S
C1299 H1274 0.951 . S
C1299 C1297 1.388 . S
C1299 C1300 1.366 . S
C1300 C1299 1.366 . S
C1300 C1301 1.414 . S
C1300 C1303 1.499 . S
C1301 H1275 0.950 . S
C1301 C1300 1.414 . S
C1301 C1302 1.374 . S
C1302 H1276 0.950 . S
C1302 C1298 1.385 . S
C1302 C1301 1.374 . S
C1303 C1300 1.499 . S
C1303 C1304 1.373 . S
C1303 C1305 1.389 . S
C1304 H1277 0.950 . S
C1304 C1290 1.377 . S
C1304 C1303 1.373 . S
C1305 C1289 1.377 . S
C1305 C1303 1.389 . S
C1305 C1306 1.524 . S
C1306 C1305 1.524 . S
C1306 C1307 1.397 . S
C1306 C1311 1.363 . S
C1307 H1278 0.950 . S
C1307 C1306 1.397 . S
C1307 C1308 1.334 . S
C1308 H1279 0.950 . S
C1308 C1307 1.334 . S
C1308 C1309 1.287 . S
C1309 C1308 1.287 . S
C1309 C1310 1.524 . S
C1309 H1312 0.999 . S
C1310 H1280 0.950 . S
C1310 C1309 1.524 . S
C1310 C1311 1.415 . S
C1311 H1281 0.950 . S
C1311 C1306 1.363 . S
C1311 C1310 1.415 . S
H1312 C1309 0.999 . S
H1313 C1294 0.913 . S
H1314 C1332 0.951 . S
H1315 C1334 0.951 . S
H1316 C1336 0.950 . S
H1317 C1337 0.950 . S
H1318 C1339 0.950 . S
H1319 C1342 0.950 . S
H1320 C1343 0.950 . S
H1321 C1345 0.950 . S
H1322 C1346 0.950 . S
H1323 C1347 0.951 . S
H1324 C1349 0.951 . S
H1325 C1351 0.950 . S
H1326 C1352 0.950 . S
H1327 C1354 0.950 . S
H1328 C1357 0.950 . S
H1329 C1358 0.950 . S
H1330 C1360 0.950 . S
H1331 C1361 0.950 . S
C1332 H1314 0.951 . S
C1332 C1333 1.366 . S
C1332 C1334 1.388 . S
C1333 C1332 1.366 . S
C1333 C1337 1.385 . S
C1334 H1315 0.951 . S
C1334 C1332 1.388 . S
C1334 C1335 1.366 . S
C1335 C1334 1.366 . S
C1335 C1336 1.414 . S
C1335 C1338 1.499 . S
C1336 H1316 0.950 . S
C1336 C1335 1.414 . S
C1336 C1337 1.374 . S
C1337 H1317 0.950 . S
C1337 C1333 1.385 . S
C1337 C1336 1.374 . S
C1338 C1335 1.499 . S
C1338 C1339 1.373 . S
C1338 C1340 1.389 . S
C1339 H1318 0.950 . S
C1339 C1338 1.373 . S
C1339 C1355 1.377 . S
C1340 C1338 1.389 . S
C1340 C1341 1.524 . S
C1340 C1354 1.377 . S
C1341 C1340 1.524 . S
C1341 C1342 1.397 . S
C1341 C1346 1.363 . S
C1342 H1319 0.950 . S
C1342 C1341 1.397 . S
C1342 C1343 1.334 . S
C1343 H1320 0.950 . S
C1343 C1342 1.334 . S
C1343 C1344 1.287 . S
C1344 C1343 1.287 . S
C1344 C1345 1.524 . S
C1344 H1363 0.913 . S
C1345 H1321 0.950 . S
C1345 C1344 1.524 . S
C1345 C1346 1.415 . S
C1346 H1322 0.950 . S
C1346 C1341 1.363 . S
C1346 C1345 1.415 . S
C1347 H1323 0.951 . S
C1347 C1348 1.366 . S
C1347 C1349 1.388 . S
C1348 C1347 1.366 . S
C1348 C1352 1.385 . S
C1349 H1324 0.951 . S
C1349 C1347 1.388 . S
C1349 C1350 1.366 . S
C1350 C1349 1.366 . S
C1350 C1351 1.414 . S
C1350 C1353 1.499 . S
C1351 H1325 0.950 . S
C1351 C1350 1.414 . S
C1351 C1352 1.374 . S
C1352 H1326 0.950 . S
C1352 C1348 1.385 . S
C1352 C1351 1.374 . S
C1353 C1350 1.499 . S
C1353 C1354 1.373 . S
C1353 C1355 1.389 . S
C1354 H1327 0.950 . S
C1354 C1340 1.377 . S
C1354 C1353 1.373 . S
C1355 C1339 1.377 . S
C1355 C1353 1.389 . S
C1355 C1356 1.524 . S
C1356 C1355 1.524 . S
C1356 C1357 1.397 . S
C1356 C1361 1.363 . S
C1357 H1328 0.950 . S
C1357 C1356 1.397 . S
C1357 C1358 1.334 . S
C1358 H1329 0.950 . S
C1358 C1357 1.334 . S
C1358 C1359 1.287 . S
C1359 C1358 1.287 . S
C1359 C1360 1.524 . S
C1359 H1362 0.999 . S
C1360 H1330 0.950 . S
C1360 C1359 1.524 . S
C1360 C1361 1.415 . S
C1361 H1331 0.950 . S
C1361 C1356 1.363 . S
C1361 C1360 1.415 . S
H1362 C1359 0.999 . S
H1363 C1344 0.913 . S
H1364 C1382 0.951 . S
H1365 C1384 0.951 . S
H1366 C1386 0.950 . S
H1367 C1387 0.950 . S
H1368 C1389 0.950 . S
H1369 C1392 0.950 . S
H1370 C1393 0.950 . S
H1371 C1395 0.950 . S
H1372 C1396 0.950 . S
H1373 C1397 0.951 . S
H1374 C1399 0.951 . S
H1375 C1401 0.950 . S
H1376 C1402 0.950 . S
H1377 C1404 0.950 . S
H1378 C1407 0.950 . S
H1379 C1408 0.950 . S
H1380 C1410 0.950 . S
H1381 C1411 0.950 . S
C1382 H1364 0.951 . S
C1382 C1383 1.366 . S
C1382 C1384 1.388 . S
C1383 C1382 1.366 . S
C1383 C1387 1.385 . S
C1384 H1365 0.951 . S
C1384 C1382 1.388 . S
C1384 C1385 1.366 . S
C1385 C1384 1.366 . S
C1385 C1386 1.414 . S
C1385 C1388 1.499 . S
C1386 H1366 0.950 . S
C1386 C1385 1.414 . S
C1386 C1387 1.374 . S
C1387 H1367 0.950 . S
C1387 C1383 1.385 . S
C1387 C1386 1.374 . S
C1388 C1385 1.499 . S
C1388 C1389 1.373 . S
C1388 C1390 1.389 . S
C1389 H1368 0.950 . S
C1389 C1388 1.373 . S
C1389 C1405 1.377 . S
C1390 C1388 1.389 . S
C1390 C1391 1.524 . S
C1390 C1404 1.377 . S
C1391 C1390 1.524 . S
C1391 C1392 1.397 . S
C1391 C1396 1.363 . S
C1392 H1369 0.950 . S
C1392 C1391 1.397 . S
C1392 C1393 1.334 . S
C1393 H1370 0.950 . S
C1393 C1392 1.334 . S
C1393 C1394 1.287 . S
C1394 C1393 1.287 . S
C1394 C1395 1.524 . S
C1394 H1413 0.913 . S
C1395 H1371 0.950 . S
C1395 C1394 1.524 . S
C1395 C1396 1.415 . S
C1396 H1372 0.950 . S
C1396 C1391 1.363 . S
C1396 C1395 1.415 . S
C1397 H1373 0.951 . S
C1397 C1398 1.366 . S
C1397 C1399 1.388 . S
C1398 C1397 1.366 . S
C1398 C1402 1.385 . S
C1399 H1374 0.951 . S
C1399 C1397 1.388 . S
C1399 C1400 1.366 . S
C1400 C1399 1.366 . S
C1400 C1401 1.414 . S
C1400 C1403 1.499 . S
C1401 H1375 0.950 . S
C1401 C1400 1.414 . S
C1401 C1402 1.374 . S
C1402 H1376 0.950 . S
C1402 C1398 1.385 . S
C1402 C1401 1.374 . S
C1403 C1400 1.499 . S
C1403 C1404 1.373 . S
C1403 C1405 1.389 . S
C1404 H1377 0.950 . S
C1404 C1390 1.377 . S
C1404 C1403 1.373 . S
C1405 C1389 1.377 . S
C1405 C1403 1.389 . S
C1405 C1406 1.524 . S
C1406 C1405 1.524 . S
C1406 C1407 1.397 . S
C1406 C1411 1.363 . S
C1407 H1378 0.950 . S
C1407 C1406 1.397 . S
C1407 C1408 1.334 . S
C1408 H1379 0.950 . S
C1408 C1407 1.334 . S
C1408 C1409 1.287 . S
C1409 C1408 1.287 . S
C1409 C1410 1.524 . S
C1409 H1412 0.999 . S
C1410 H1380 0.950 . S
C1410 C1409 1.524 . S
C1410 C1411 1.415 . S
C1411 H1381 0.950 . S
C1411 C1406 1.363 . S
C1411 C1410 1.415 . S
H1412 C1409 0.999 . S
H1413 C1394 0.913 . S
H1414 C1432 0.951 . S
H1415 C1434 0.951 . S
H1416 C1436 0.950 . S
H1417 C1437 0.950 . S
H1418 C1439 0.950 . S
H1419 C1442 0.950 . S
H1420 C1443 0.950 . S
H1421 C1445 0.950 . S
H1422 C1446 0.950 . S
H1423 C1447 0.951 . S
H1424 C1449 0.951 . S
H1425 C1451 0.950 . S
H1426 C1452 0.950 . S
H1427 C1454 0.950 . S
H1428 C1457 0.950 . S
H1429 C1458 0.950 . S
H1430 C1460 0.950 . S
H1431 C1461 0.950 . S
C1432 H1414 0.951 . S
C1432 C1433 1.366 . S
C1432 C1434 1.388 . S
C1433 C1432 1.366 . S
C1433 C1437 1.385 . S
C1434 H1415 0.951 . S
C1434 C1432 1.388 . S
C1434 C1435 1.366 . S
C1435 C1434 1.366 . S
C1435 C1436 1.414 . S
C1435 C1438 1.499 . S
C1436 H1416 0.950 . S
C1436 C1435 1.414 . S
C1436 C1437 1.374 . S
C1437 H1417 0.950 . S
C1437 C1433 1.385 . S
C1437 C1436 1.374 . S
C1438 C1435 1.499 . S
C1438 C1439 1.373 . S
C1438 C1440 1.389 . S
C1439 H1418 0.950 . S
C1439 C1438 1.373 . S
C1439 C1455 1.377 . S
C1440 C1438 1.389 . S
C1440 C1441 1.524 . S
C1440 C1454 1.377 . S
C1441 C1440 1.524 . S
C1441 C1442 1.397 . S
C1441 C1446 1.363 . S
C1442 H1419 0.950 . S
C1442 C1441 1.397 . S
C1442 C1443 1.334 . S
C1443 H1420 0.950 . S
C1443 C1442 1.334 . S
C1443 C1444 1.287 . S
C1444 C1443 1.287 . S
C1444 C1445 1.524 . S
C1444 H1463 0.913 . S
C1445 H1421 0.950 . S
C1445 C1444 1.524 . S
C1445 C1446 1.415 . S
C1446 H1422 0.950 . S
C1446 C1441 1.363 . S
C1446 C1445 1.415 . S
C1447 H1423 0.951 . S
C1447 C1448 1.366 . S
C1447 C1449 1.388 . S
C1448 C1447 1.366 . S
C1448 C1452 1.385 . S
C1449 H1424 0.951 . S
C1449 C1447 1.388 . S
C1449 C1450 1.366 . S
C1450 C1449 1.366 . S
C1450 C1451 1.414 . S
C1450 C1453 1.499 . S
C1451 H1425 0.950 . S
C1451 C1450 1.414 . S
C1451 C1452 1.374 . S
C1452 H1426 0.950 . S
C1452 C1448 1.385 . S
C1452 C1451 1.374 . S
C1453 C1450 1.499 . S
C1453 C1454 1.373 . S
C1453 C1455 1.389 . S
C1454 H1427 0.950 . S
C1454 C1440 1.377 . S
C1454 C1453 1.373 . S
C1455 C1439 1.377 . S
C1455 C1453 1.389 . S
C1455 C1456 1.524 . S
C1456 C1455 1.524 . S
C1456 C1457 1.397 . S
C1456 C1461 1.363 . S
C1457 H1428 0.950 . S
C1457 C1456 1.397 . S
C1457 C1458 1.334 . S
C1458 H1429 0.950 . S
C1458 C1457 1.334 . S
C1458 C1459 1.287 . S
C1459 C1458 1.287 . S
C1459 C1460 1.524 . S
C1459 H1462 0.999 . S
C1460 H1430 0.950 . S
C1460 C1459 1.524 . S
C1460 C1461 1.415 . S
C1461 H1431 0.950 . S
C1461 C1456 1.363 . S
C1461 C1460 1.415 . S
H1462 C1459 0.999 . S
H1463 C1444 0.913 . S
H1464 C1482 0.951 . S
H1465 C1484 0.951 . S
H1466 C1486 0.950 . S
H1467 C1487 0.950 . S
H1468 C1489 0.950 . S
H1469 C1492 0.950 . S
H1470 C1493 0.950 . S
H1471 C1495 0.950 . S
H1472 C1496 0.950 . S
H1473 C1497 0.951 . S
H1474 C1499 0.951 . S
H1475 C1501 0.950 . S
H1476 C1502 0.950 . S
H1477 C1504 0.950 . S
H1478 C1507 0.950 . S
H1479 C1508 0.950 . S
H1480 C1510 0.950 . S
H1481 C1511 0.950 . S
C1482 H1464 0.951 . S
C1482 C1483 1.366 . S
C1482 C1484 1.388 . S
C1483 C1482 1.366 . S
C1483 C1487 1.385 . S
C1484 H1465 0.951 . S
C1484 C1482 1.388 . S
C1484 C1485 1.366 . S
C1485 C1484 1.366 . S
C1485 C1486 1.414 . S
C1485 C1488 1.499 . S
C1486 H1466 0.950 . S
C1486 C1485 1.414 . S
C1486 C1487 1.374 . S
C1487 H1467 0.950 . S
C1487 C1483 1.385 . S
C1487 C1486 1.374 . S
C1488 C1485 1.499 . S
C1488 C1489 1.373 . S
C1488 C1490 1.389 . S
C1489 H1468 0.950 . S
C1489 C1488 1.373 . S
C1489 C1505 1.377 . S
C1490 C1488 1.389 . S
C1490 C1491 1.524 . S
C1490 C1504 1.377 . S
C1491 C1490 1.524 . S
C1491 C1492 1.397 . S
C1491 C1496 1.363 . S
C1492 H1469 0.950 . S
C1492 C1491 1.397 . S
C1492 C1493 1.334 . S
C1493 H1470 0.950 . S
C1493 C1492 1.334 . S
C1493 C1494 1.287 . S
C1494 C1493 1.287 . S
C1494 C1495 1.524 . S
C1494 H1513 0.913 . S
C1495 H1471 0.950 . S
C1495 C1494 1.524 . S
C1495 C1496 1.415 . S
C1496 H1472 0.950 . S
C1496 C1491 1.363 . S
C1496 C1495 1.415 . S
C1497 H1473 0.951 . S
C1497 C1498 1.366 . S
C1497 C1499 1.388 . S
C1498 C1497 1.366 . S
C1498 C1502 1.385 . S
C1499 H1474 0.951 . S
C1499 C1497 1.388 . S
C1499 C1500 1.366 . S
C1500 C1499 1.366 . S
C1500 C1501 1.414 . S
C1500 C1503 1.499 . S
C1501 H1475 0.950 . S
C1501 C1500 1.414 . S
C1501 C1502 1.374 . S
C1502 H1476 0.950 . S
C1502 C1498 1.385 . S
C1502 C1501 1.374 . S
C1503 C1500 1.499 . S
C1503 C1504 1.373 . S
C1503 C1505 1.389 . S
C1504 H1477 0.950 . S
C1504 C1490 1.377 . S
C1504 C1503 1.373 . S
C1505 C1489 1.377 . S
C1505 C1503 1.389 . S
C1505 C1506 1.524 . S
C1506 C1505 1.524 . S
C1506 C1507 1.397 . S
C1506 C1511 1.363 . S
C1507 H1478 0.950 . S
C1507 C1506 1.397 . S
C1507 C1508 1.334 . S
C1508 H1479 0.950 . S
C1508 C1507 1.334 . S
C1508 C1509 1.287 . S
C1509 C1508 1.287 . S
C1509 C1510 1.524 . S
C1509 H1512 0.999 . S
C1510 H1480 0.950 . S
C1510 C1509 1.524 . S
C1510 C1511 1.415 . S
C1511 H1481 0.950 . S
C1511 C1506 1.363 . S
C1511 C1510 1.415 . S
H1512 C1509 0.999 . S
H1513 C1494 0.913 . S
H1514 C1532 0.951 . S
H1515 C1534 0.951 . S
H1516 C1536 0.950 . S
H1517 C1537 0.950 . S
H1518 C1539 0.950 . S
H1519 C1542 0.950 . S
H1520 C1543 0.950 . S
H1521 C1545 0.950 . S
H1522 C1546 0.950 . S
H1523 C1547 0.951 . S
H1524 C1549 0.951 . S
H1525 C1551 0.950 . S
H1526 C1552 0.950 . S
H1527 C1554 0.950 . S
H1528 C1557 0.950 . S
H1529 C1558 0.950 . S
H1530 C1560 0.950 . S
H1531 C1561 0.950 . S
C1532 H1514 0.951 . S
C1532 C1533 1.366 . S
C1532 C1534 1.388 . S
C1533 C1532 1.366 . S
C1533 C1537 1.385 . S
C1534 H1515 0.951 . S
C1534 C1532 1.388 . S
C1534 C1535 1.366 . S
C1535 C1534 1.366 . S
C1535 C1536 1.414 . S
C1535 C1538 1.499 . S
C1536 H1516 0.950 . S
C1536 C1535 1.414 . S
C1536 C1537 1.374 . S
C1537 H1517 0.950 . S
C1537 C1533 1.385 . S
C1537 C1536 1.374 . S
C1538 C1535 1.499 . S
C1538 C1539 1.373 . S
C1538 C1540 1.389 . S
C1539 H1518 0.950 . S
C1539 C1538 1.373 . S
C1539 C1555 1.377 . S
C1540 C1538 1.389 . S
C1540 C1541 1.524 . S
C1540 C1554 1.377 . S
C1541 C1540 1.524 . S
C1541 C1542 1.397 . S
C1541 C1546 1.363 . S
C1542 H1519 0.950 . S
C1542 C1541 1.397 . S
C1542 C1543 1.334 . S
C1543 H1520 0.950 . S
C1543 C1542 1.334 . S
C1543 C1544 1.287 . S
C1544 C1543 1.287 . S
C1544 C1545 1.524 . S
C1544 H1563 0.913 . S
C1545 H1521 0.950 . S
C1545 C1544 1.524 . S
C1545 C1546 1.415 . S
C1546 H1522 0.950 . S
C1546 C1541 1.363 . S
C1546 C1545 1.415 . S
C1547 H1523 0.951 . S
C1547 C1548 1.366 . S
C1547 C1549 1.388 . S
C1548 C1547 1.366 . S
C1548 C1552 1.385 . S
C1549 H1524 0.951 . S
C1549 C1547 1.388 . S
C1549 C1550 1.366 . S
C1550 C1549 1.366 . S
C1550 C1551 1.414 . S
C1550 C1553 1.499 . S
C1551 H1525 0.950 . S
C1551 C1550 1.414 . S
C1551 C1552 1.374 . S
C1552 H1526 0.950 . S
C1552 C1548 1.385 . S
C1552 C1551 1.374 . S
C1553 C1550 1.499 . S
C1553 C1554 1.373 . S
C1553 C1555 1.389 . S
C1554 H1527 0.950 . S
C1554 C1540 1.377 . S
C1554 C1553 1.373 . S
C1555 C1539 1.377 . S
C1555 C1553 1.389 . S
C1555 C1556 1.524 . S
C1556 C1555 1.524 . S
C1556 C1557 1.397 . S
C1556 C1561 1.363 . S
C1557 H1528 0.950 . S
C1557 C1556 1.397 . S
C1557 C1558 1.334 . S
C1558 H1529 0.950 . S
C1558 C1557 1.334 . S
C1558 C1559 1.287 . S
C1559 C1558 1.287 . S
C1559 C1560 1.524 . S
C1559 H1562 0.999 . S
C1560 H1530 0.950 . S
C1560 C1559 1.524 . S
C1560 C1561 1.415 . S
C1561 H1531 0.950 . S
C1561 C1556 1.363 . S
C1561 C1560 1.415 . S
H1562 C1559 0.999 . S
H1563 C1544 0.913 . S
H1564 C1582 0.951 . S
H1565 C1584 0.951 . S
H1566 C1586 0.950 . S
H1567 C1587 0.950 . S
H1568 C1589 0.950 . S
H1569 C1592 0.950 . S
H1570 C1593 0.950 . S
H1571 C1595 0.950 . S
H1572 C1596 0.950 . S
H1573 C1597 0.951 . S
H1574 C1599 0.951 . S
H1575 C1601 0.950 . S
H1576 C1602 0.950 . S
H1577 C1604 0.950 . S
H1578 C1607 0.950 . S
H1579 C1608 0.950 . S
H1580 C1610 0.950 . S
H1581 C1611 0.950 . S
C1582 H1564 0.951 . S
C1582 C1583 1.366 . S
C1582 C1584 1.388 . S
C1583 C1582 1.366 . S
C1583 C1587 1.385 . S
C1584 H1565 0.951 . S
C1584 C1582 1.388 . S
C1584 C1585 1.366 . S
C1585 C1584 1.366 . S
C1585 C1586 1.414 . S
C1585 C1588 1.499 . S
C1586 H1566 0.950 . S
C1586 C1585 1.414 . S
C1586 C1587 1.374 . S
C1587 H1567 0.950 . S
C1587 C1583 1.385 . S
C1587 C1586 1.374 . S
C1588 C1585 1.499 . S
C1588 C1589 1.373 . S
C1588 C1590 1.389 . S
C1589 H1568 0.950 . S
C1589 C1588 1.373 . S
C1589 C1605 1.377 . S
C1590 C1588 1.389 . S
C1590 C1591 1.524 . S
C1590 C1604 1.377 . S
C1591 C1590 1.524 . S
C1591 C1592 1.397 . S
C1591 C1596 1.363 . S
C1592 H1569 0.950 . S
C1592 C1591 1.397 . S
C1592 C1593 1.334 . S
C1593 H1570 0.950 . S
C1593 C1592 1.334 . S
C1593 C1594 1.287 . S
C1594 C1593 1.287 . S
C1594 C1595 1.524 . S
C1594 H1613 0.913 . S
C1595 H1571 0.950 . S
C1595 C1594 1.524 . S
C1595 C1596 1.415 . S
C1596 H1572 0.950 . S
C1596 C1591 1.363 . S
C1596 C1595 1.415 . S
C1597 H1573 0.951 . S
C1597 C1598 1.366 . S
C1597 C1599 1.388 . S
C1598 C1597 1.366 . S
C1598 C1602 1.385 . S
C1599 H1574 0.951 . S
C1599 C1597 1.388 . S
C1599 C1600 1.366 . S
C1600 C1599 1.366 . S
C1600 C1601 1.414 . S
C1600 C1603 1.499 . S
C1601 H1575 0.950 . S
C1601 C1600 1.414 . S
C1601 C1602 1.374 . S
C1602 H1576 0.950 . S
C1602 C1598 1.385 . S
C1602 C1601 1.374 . S
C1603 C1600 1.499 . S
C1603 C1604 1.373 . S
C1603 C1605 1.389 . S
C1604 H1577 0.950 . S
C1604 C1590 1.377 . S
C1604 C1603 1.373 . S
C1605 C1589 1.377 . S
C1605 C1603 1.389 . S
C1605 C1606 1.524 . S
C1606 C1605 1.524 . S
C1606 C1607 1.397 . S
C1606 C1611 1.363 . S
C1607 H1578 0.950 . S
C1607 C1606 1.397 . S
C1607 C1608 1.334 . S
C1608 H1579 0.950 . S
C1608 C1607 1.334 . S
C1608 C1609 1.287 . S
C1609 C1608 1.287 . S
C1609 C1610 1.524 . S
C1609 H1612 0.999 . S
C1610 H1580 0.950 . S
C1610 C1609 1.524 . S
C1610 C1611 1.415 . S
C1611 H1581 0.950 . S
C1611 C1606 1.363 . S
C1611 C1610 1.415 . S
H1612 C1609 0.999 . S
H1613 C1594 0.913 . S
H1614 C1632 0.951 . S
H1615 C1634 0.951 . S
H1616 C1636 0.950 . S
H1617 C1637 0.950 . S
H1618 C1639 0.950 . S
H1619 C1642 0.950 . S
H1620 C1643 0.950 . S
H1621 C1645 0.950 . S
H1622 C1646 0.950 . S
H1623 C1647 0.951 . S
H1624 C1649 0.951 . S
H1625 C1651 0.950 . S
H1626 C1652 0.950 . S
H1627 C1654 0.950 . S
H1628 C1657 0.950 . S
H1629 C1658 0.950 . S
H1630 C1660 0.950 . S
H1631 C1661 0.950 . S
C1632 H1614 0.951 . S
C1632 C1633 1.366 . S
C1632 C1634 1.388 . S
C1633 C1632 1.366 . S
C1633 C1637 1.385 . S
C1634 H1615 0.951 . S
C1634 C1632 1.388 . S
C1634 C1635 1.366 . S
C1635 C1634 1.366 . S
C1635 C1636 1.414 . S
C1635 C1638 1.499 . S
C1636 H1616 0.950 . S
C1636 C1635 1.414 . S
C1636 C1637 1.374 . S
C1637 H1617 0.950 . S
C1637 C1633 1.385 . S
C1637 C1636 1.374 . S
C1638 C1635 1.499 . S
C1638 C1639 1.373 . S
C1638 C1640 1.389 . S
C1639 H1618 0.950 . S
C1639 C1638 1.373 . S
C1639 C1655 1.377 . S
C1640 C1638 1.389 . S
C1640 C1641 1.524 . S
C1640 C1654 1.377 . S
C1641 C1640 1.524 . S
C1641 C1642 1.397 . S
C1641 C1646 1.363 . S
C1642 H1619 0.950 . S
C1642 C1641 1.397 . S
C1642 C1643 1.334 . S
C1643 H1620 0.950 . S
C1643 C1642 1.334 . S
C1643 C1644 1.287 . S
C1644 C1643 1.287 . S
C1644 C1645 1.524 . S
C1644 H1663 0.913 . S
C1645 H1621 0.950 . S
C1645 C1644 1.524 . S
C1645 C1646 1.415 . S
C1646 H1622 0.950 . S
C1646 C1641 1.363 . S
C1646 C1645 1.415 . S
C1647 H1623 0.951 . S
C1647 C1648 1.366 . S
C1647 C1649 1.388 . S
C1648 C1647 1.366 . S
C1648 C1652 1.385 . S
C1649 H1624 0.951 . S
C1649 C1647 1.388 . S
C1649 C1650 1.366 . S
C1650 C1649 1.366 . S
C1650 C1651 1.414 . S
C1650 C1653 1.499 . S
C1651 H1625 0.950 . S
C1651 C1650 1.414 . S
C1651 C1652 1.374 . S
C1652 H1626 0.950 . S
C1652 C1648 1.385 . S
C1652 C1651 1.374 . S
C1653 C1650 1.499 . S
C1653 C1654 1.373 . S
C1653 C1655 1.389 . S
C1654 H1627 0.950 . S
C1654 C1640 1.377 . S
C1654 C1653 1.373 . S
C1655 C1639 1.377 . S
C1655 C1653 1.389 . S
C1655 C1656 1.524 . S
C1656 C1655 1.524 . S
C1656 C1657 1.397 . S
C1656 C1661 1.363 . S
C1657 H1628 0.950 . S
C1657 C1656 1.397 . S
C1657 C1658 1.334 . S
C1658 H1629 0.950 . S
C1658 C1657 1.334 . S
C1658 C1659 1.287 . S
C1659 C1658 1.287 . S
C1659 C1660 1.524 . S
C1659 H1662 0.999 . S
C1660 H1630 0.950 . S
C1660 C1659 1.524 . S
C1660 C1661 1.415 . S
C1661 H1631 0.950 . S
C1661 C1656 1.363 . S
C1661 C1660 1.415 . S
H1662 C1659 0.999 . S
H1663 C1644 0.913 . S
H1664 C1682 0.951 . S
H1665 C1684 0.951 . S
H1666 C1686 0.950 . S
H1667 C1687 0.950 . S
H1668 C1689 0.950 . S
H1669 C1692 0.950 . S
H1670 C1693 0.950 . S
H1671 C1695 0.950 . S
H1672 C1696 0.950 . S
H1673 C1697 0.951 . S
H1674 C1699 0.951 . S
H1675 C1701 0.950 . S
H1676 C1702 0.950 . S
H1677 C1704 0.950 . S
H1678 C1707 0.950 . S
H1679 C1708 0.950 . S
H1680 C1710 0.950 . S
H1681 C1711 0.950 . S
C1682 H1664 0.951 . S
C1682 C1683 1.366 . S
C1682 C1684 1.388 . S
C1683 C1682 1.366 . S
C1683 C1687 1.385 . S
C1684 H1665 0.951 . S
C1684 C1682 1.388 . S
C1684 C1685 1.366 . S
C1685 C1684 1.366 . S
C1685 C1686 1.414 . S
C1685 C1688 1.499 . S
C1686 H1666 0.950 . S
C1686 C1685 1.414 . S
C1686 C1687 1.374 . S
C1687 H1667 0.950 . S
C1687 C1683 1.385 . S
C1687 C1686 1.374 . S
C1688 C1685 1.499 . S
C1688 C1689 1.373 . S
C1688 C1690 1.389 . S
C1689 H1668 0.950 . S
C1689 C1688 1.373 . S
C1689 C1705 1.377 . S
C1690 C1688 1.389 . S
C1690 C1691 1.524 . S
C1690 C1704 1.377 . S
C1691 C1690 1.524 . S
C1691 C1692 1.397 . S
C1691 C1696 1.363 . S
C1692 H1669 0.950 . S
C1692 C1691 1.397 . S
C1692 C1693 1.334 . S
C1693 H1670 0.950 . S
C1693 C1692 1.334 . S
C1693 C1694 1.287 . S
C1694 C1693 1.287 . S
C1694 C1695 1.524 . S
C1694 H1713 0.913 . S
C1695 H1671 0.950 . S
C1695 C1694 1.524 . S
C1695 C1696 1.415 . S
C1696 H1672 0.950 . S
C1696 C1691 1.363 . S
C1696 C1695 1.415 . S
C1697 H1673 0.951 . S
C1697 C1698 1.366 . S
C1697 C1699 1.388 . S
C1698 C1697 1.366 . S
C1698 C1702 1.385 . S
C1699 H1674 0.951 . S
C1699 C1697 1.388 . S
C1699 C1700 1.366 . S
C1700 C1699 1.366 . S
C1700 C1701 1.414 . S
C1700 C1703 1.499 . S
C1701 H1675 0.950 . S
C1701 C1700 1.414 . S
C1701 C1702 1.374 . S
C1702 H1676 0.950 . S
C1702 C1698 1.385 . S
C1702 C1701 1.374 . S
C1703 C1700 1.499 . S
C1703 C1704 1.373 . S
C1703 C1705 1.389 . S
C1704 H1677 0.950 . S
C1704 C1690 1.377 . S
C1704 C1703 1.373 . S
C1705 C1689 1.377 . S
C1705 C1703 1.389 . S
C1705 C1706 1.524 . S
C1706 C1705 1.524 . S
C1706 C1707 1.397 . S
C1706 C1711 1.363 . S
C1707 H1678 0.950 . S
C1707 C1706 1.397 . S
C1707 C1708 1.334 . S
C1708 H1679 0.950 . S
C1708 C1707 1.334 . S
C1708 C1709 1.287 . S
C1709 C1708 1.287 . S
C1709 C1710 1.524 . S
C1709 H1712 0.999 . S
C1710 H1680 0.950 . S
C1710 C1709 1.524 . S
C1710 C1711 1.415 . S
C1711 H1681 0.950 . S
C1711 C1706 1.363 . S
C1711 C1710 1.415 . S
H1712 C1709 0.999 . S
H1713 C1694 0.913 . S
H1714 C1732 0.951 . S
H1715 C1734 0.951 . S
H1716 C1736 0.950 . S
H1717 C1737 0.950 . S
H1718 C1739 0.950 . S
H1719 C1742 0.950 . S
H1720 C1743 0.950 . S
H1721 C1745 0.950 . S
H1722 C1746 0.950 . S
H1723 C1747 0.951 . S
H1724 C1749 0.951 . S
H1725 C1751 0.950 . S
H1726 C1752 0.950 . S
H1727 C1754 0.950 . S
H1728 C1757 0.950 . S
H1729 C1758 0.950 . S
H1730 C1760 0.950 . S
H1731 C1761 0.950 . S
C1732 H1714 0.951 . S
C1732 C1733 1.366 . S
C1732 C1734 1.388 . S
C1733 C1732 1.366 . S
C1733 C1737 1.385 . S
C1734 H1715 0.951 . S
C1734 C1732 1.388 . S
C1734 C1735 1.366 . S
C1735 C1734 1.366 . S
C1735 C1736 1.414 . S
C1735 C1738 1.499 . S
C1736 H1716 0.950 . S
C1736 C1735 1.414 . S
C1736 C1737 1.374 . S
C1737 H1717 0.950 . S
C1737 C1733 1.385 . S
C1737 C1736 1.374 . S
C1738 C1735 1.499 . S
C1738 C1739 1.373 . S
C1738 C1740 1.389 . S
C1739 H1718 0.950 . S
C1739 C1738 1.373 . S
C1739 C1755 1.377 . S
C1740 C1738 1.389 . S
C1740 C1741 1.524 . S
C1740 C1754 1.377 . S
C1741 C1740 1.524 . S
C1741 C1742 1.397 . S
C1741 C1746 1.363 . S
C1742 H1719 0.950 . S
C1742 C1741 1.397 . S
C1742 C1743 1.334 . S
C1743 H1720 0.950 . S
C1743 C1742 1.334 . S
C1743 C1744 1.287 . S
C1744 C1743 1.287 . S
C1744 C1745 1.524 . S
C1744 H1763 0.913 . S
C1745 H1721 0.950 . S
C1745 C1744 1.524 . S
C1745 C1746 1.415 . S
C1746 H1722 0.950 . S
C1746 C1741 1.363 . S
C1746 C1745 1.415 . S
C1747 H1723 0.951 . S
C1747 C1748 1.366 . S
C1747 C1749 1.388 . S
C1748 C1747 1.366 . S
C1748 C1752 1.385 . S
C1749 H1724 0.951 . S
C1749 C1747 1.388 . S
C1749 C1750 1.366 . S
C1750 C1749 1.366 . S
C1750 C1751 1.414 . S
C1750 C1753 1.499 . S
C1751 H1725 0.950 . S
C1751 C1750 1.414 . S
C1751 C1752 1.374 . S
C1752 H1726 0.950 . S
C1752 C1748 1.385 . S
C1752 C1751 1.374 . S
C1753 C1750 1.499 . S
C1753 C1754 1.373 . S
C1753 C1755 1.389 . S
C1754 H1727 0.950 . S
C1754 C1740 1.377 . S
C1754 C1753 1.373 . S
C1755 C1739 1.377 . S
C1755 C1753 1.389 . S
C1755 C1756 1.524 . S
C1756 C1755 1.524 . S
C1756 C1757 1.397 . S
C1756 C1761 1.363 . S
C1757 H1728 0.950 . S
C1757 C1756 1.397 . S
C1757 C1758 1.334 . S
C1758 H1729 0.950 . S
C1758 C1757 1.334 . S
C1758 C1759 1.287 . S
C1759 C1758 1.287 . S
C1759 C1760 1.524 . S
C1759 H1762 0.999 . S
C1760 H1730 0.950 . S
C1760 C1759 1.524 . S
C1760 C1761 1.415 . S
C1761 H1731 0.950 . S
C1761 C1756 1.363 . S
C1761 C1760 1.415 . S
H1762 C1759 0.999 . S
H1763 C1744 0.913 . S
H1764 C1782 0.951 . S
H1765 C1784 0.951 . S
H1766 C1786 0.950 . S
H1767 C1787 0.950 . S
H1768 C1789 0.950 . S
H1769 C1792 0.950 . S
H1770 C1793 0.950 . S
H1771 C1795 0.950 . S
H1772 C1796 0.950 . S
H1773 C1797 0.951 . S
H1774 C1799 0.951 . S
H1775 C1801 0.950 . S
H1776 C1802 0.950 . S
H1777 C1804 0.950 . S
H1778 C1807 0.950 . S
H1779 C1808 0.950 . S
H1780 C1810 0.950 . S
H1781 C1811 0.950 . S
C1782 H1764 0.951 . S
C1782 C1783 1.366 . S
C1782 C1784 1.388 . S
C1783 C1782 1.366 . S
C1783 C1787 1.385 . S
C1784 H1765 0.951 . S
C1784 C1782 1.388 . S
C1784 C1785 1.366 . S
C1785 C1784 1.366 . S
C1785 C1786 1.414 . S
C1785 C1788 1.499 . S
C1786 H1766 0.950 . S
C1786 C1785 1.414 . S
C1786 C1787 1.374 . S
C1787 H1767 0.950 . S
C1787 C1783 1.385 . S
C1787 C1786 1.374 . S
C1788 C1785 1.499 . S
C1788 C1789 1.373 . S
C1788 C1790 1.389 . S
C1789 H1768 0.950 . S
C1789 C1788 1.373 . S
C1789 C1805 1.377 . S
C1790 C1788 1.389 . S
C1790 C1791 1.524 . S
C1790 C1804 1.377 . S
C1791 C1790 1.524 . S
C1791 C1792 1.397 . S
C1791 C1796 1.363 . S
C1792 H1769 0.950 . S
C1792 C1791 1.397 . S
C1792 C1793 1.334 . S
C1793 H1770 0.950 . S
C1793 C1792 1.334 . S
C1793 C1794 1.287 . S
C1794 C1793 1.287 . S
C1794 C1795 1.524 . S
C1794 H1813 0.913 . S
C1795 H1771 0.950 . S
C1795 C1794 1.524 . S
C1795 C1796 1.415 . S
C1796 H1772 0.950 . S
C1796 C1791 1.363 . S
C1796 C1795 1.415 . S
C1797 H1773 0.951 . S
C1797 C1798 1.366 . S
C1797 C1799 1.388 . S
C1798 C1797 1.366 . S
C1798 C1802 1.385 . S
C1799 H1774 0.951 . S
C1799 C1797 1.388 . S
C1799 C1800 1.366 . S
C1800 C1799 1.366 . S
C1800 C1801 1.414 . S
C1800 C1803 1.499 . S
C1801 H1775 0.950 . S
C1801 C1800 1.414 . S
C1801 C1802 1.374 . S
C1802 H1776 0.950 . S
C1802 C1798 1.385 . S
C1802 C1801 1.374 . S
C1803 C1800 1.499 . S
C1803 C1804 1.373 . S
C1803 C1805 1.389 . S
C1804 H1777 0.950 . S
C1804 C1790 1.377 . S
C1804 C1803 1.373 . S
C1805 C1789 1.377 . S
C1805 C1803 1.389 . S
C1805 C1806 1.524 . S
C1806 C1805 1.524 . S
C1806 C1807 1.397 . S
C1806 C1811 1.363 . S
C1807 H1778 0.950 . S
C1807 C1806 1.397 . S
C1807 C1808 1.334 . S
C1808 H1779 0.950 . S
C1808 C1807 1.334 . S
C1808 C1809 1.287 . S
C1809 C1808 1.287 . S
C1809 C1810 1.524 . S
C1809 H1812 0.999 . S
C1810 H1780 0.950 . S
C1810 C1809 1.524 . S
C1810 C1811 1.415 . S
C1811 H1781 0.950 . S
C1811 C1806 1.363 . S
C1811 C1810 1.415 . S
H1812 C1809 0.999 . S
H1813 C1794 0.913 . S
H1814 C1832 0.951 . S
H1815 C1834 0.951 . S
H1816 C1836 0.950 . S
H1817 C1837 0.950 . S
H1818 C1839 0.950 . S
H1819 C1842 0.950 . S
H1820 C1843 0.950 . S
H1821 C1845 0.950 . S
H1822 C1846 0.950 . S
H1823 C1847 0.951 . S
H1824 C1849 0.951 . S
H1825 C1851 0.950 . S
H1826 C1852 0.950 . S
H1827 C1854 0.950 . S
H1828 C1857 0.950 . S
H1829 C1858 0.950 . S
H1830 C1860 0.950 . S
H1831 C1861 0.950 . S
C1832 H1814 0.951 . S
C1832 C1833 1.366 . S
C1832 C1834 1.388 . S
C1833 C1832 1.366 . S
C1833 C1837 1.385 . S
C1834 H1815 0.951 . S
C1834 C1832 1.388 . S
C1834 C1835 1.366 . S
C1835 C1834 1.366 . S
C1835 C1836 1.414 . S
C1835 C1838 1.499 . S
C1836 H1816 0.950 . S
C1836 C1835 1.414 . S
C1836 C1837 1.374 . S
C1837 H1817 0.950 . S
C1837 C1833 1.385 . S
C1837 C1836 1.374 . S
C1838 C1835 1.499 . S
C1838 C1839 1.373 . S
C1838 C1840 1.389 . S
C1839 H1818 0.950 . S
C1839 C1838 1.373 . S
C1839 C1855 1.377 . S
C1840 C1838 1.389 . S
C1840 C1841 1.524 . S
C1840 C1854 1.377 . S
C1841 C1840 1.524 . S
C1841 C1842 1.397 . S
C1841 C1846 1.363 . S
C1842 H1819 0.950 . S
C1842 C1841 1.397 . S
C1842 C1843 1.334 . S
C1843 H1820 0.950 . S
C1843 C1842 1.334 . S
C1843 C1844 1.287 . S
C1844 C1843 1.287 . S
C1844 C1845 1.524 . S
C1844 H1863 0.913 . S
C1845 H1821 0.950 . S
C1845 C1844 1.524 . S
C1845 C1846 1.415 . S
C1846 H1822 0.950 . S
C1846 C1841 1.363 . S
C1846 C1845 1.415 . S
C1847 H1823 0.951 . S
C1847 C1848 1.366 . S
C1847 C1849 1.388 . S
C1848 C1847 1.366 . S
C1848 C1852 1.385 . S
C1849 H1824 0.951 . S
C1849 C1847 1.388 . S
C1849 C1850 1.366 . S
C1850 C1849 1.366 . S
C1850 C1851 1.414 . S
C1850 C1853 1.499 . S
C1851 H1825 0.950 . S
C1851 C1850 1.414 . S
C1851 C1852 1.374 . S
C1852 H1826 0.950 . S
C1852 C1848 1.385 . S
C1852 C1851 1.374 . S
C1853 C1850 1.499 . S
C1853 C1854 1.373 . S
C1853 C1855 1.389 . S
C1854 H1827 0.950 . S
C1854 C1840 1.377 . S
C1854 C1853 1.373 . S
C1855 C1839 1.377 . S
C1855 C1853 1.389 . S
C1855 C1856 1.524 . S
C1856 C1855 1.524 . S
C1856 C1857 1.397 . S
C1856 C1861 1.363 . S
C1857 H1828 0.950 . S
C1857 C1856 1.397 . S
C1857 C1858 1.334 . S
C1858 H1829 0.950 . S
C1858 C1857 1.334 . S
C1858 C1859 1.287 . S
C1859 C1858 1.287 . S
C1859 C1860 1.524 . S
C1859 H1862 0.999 . S
C1860 H1830 0.950 . S
C1860 C1859 1.524 . S
C1860 C1861 1.415 . S
C1861 H1831 0.950 . S
C1861 C1856 1.363 . S
C1861 C1860 1.415 . S
H1862 C1859 0.999 . S
H1863 C1844 0.913 . S
H1864 C1882 0.951 . S
H1865 C1884 0.951 . S
H1866 C1886 0.950 . S
H1867 C1887 0.950 . S
H1868 C1889 0.950 . S
H1869 C1892 0.950 . S
H1870 C1893 0.950 . S
H1871 C1895 0.950 . S
H1872 C1896 0.950 . S
H1873 C1897 0.951 . S
H1874 C1899 0.951 . S
H1875 C1901 0.950 . S
H1876 C1902 0.950 . S
H1877 C1904 0.950 . S
H1878 C1907 0.950 . S
H1879 C1908 0.950 . S
H1880 C1910 0.950 . S
H1881 C1911 0.950 . S
C1882 H1864 0.951 . S
C1882 C1883 1.366 . S
C1882 C1884 1.388 . S
C1883 C1882 1.366 . S
C1883 C1887 1.385 . S
C1884 H1865 0.951 . S
C1884 C1882 1.388 . S
C1884 C1885 1.366 . S
C1885 C1884 1.366 . S
C1885 C1886 1.414 . S
C1885 C1888 1.499 . S
C1886 H1866 0.950 . S
C1886 C1885 1.414 . S
C1886 C1887 1.374 . S
C1887 H1867 0.950 . S
C1887 C1883 1.385 . S
C1887 C1886 1.374 . S
C1888 C1885 1.499 . S
C1888 C1889 1.373 . S
C1888 C1890 1.389 . S
C1889 H1868 0.950 . S
C1889 C1888 1.373 . S
C1889 C1905 1.377 . S
C1890 C1888 1.389 . S
C1890 C1891 1.524 . S
C1890 C1904 1.377 . S
C1891 C1890 1.524 . S
C1891 C1892 1.397 . S
C1891 C1896 1.363 . S
C1892 H1869 0.950 . S
C1892 C1891 1.397 . S
C1892 C1893 1.334 . S
C1893 H1870 0.950 . S
C1893 C1892 1.334 . S
C1893 C1894 1.287 . S
C1894 C1893 1.287 . S
C1894 C1895 1.524 . S
C1894 H1913 0.913 . S
C1895 H1871 0.950 . S
C1895 C1894 1.524 . S
C1895 C1896 1.415 . S
C1896 H1872 0.950 . S
C1896 C1891 1.363 . S
C1896 C1895 1.415 . S
C1897 H1873 0.951 . S
C1897 C1898 1.366 . S
C1897 C1899 1.388 . S
C1898 C1897 1.366 . S
C1898 C1902 1.385 . S
C1899 H1874 0.951 . S
C1899 C1897 1.388 . S
C1899 C1900 1.366 . S
C1900 C1899 1.366 . S
C1900 C1901 1.414 . S
C1900 C1903 1.499 . S
C1901 H1875 0.950 . S
C1901 C1900 1.414 . S
C1901 C1902 1.374 . S
C1902 H1876 0.950 . S
C1902 C1898 1.385 . S
C1902 C1901 1.374 . S
C1903 C1900 1.499 . S
C1903 C1904 1.373 . S
C1903 C1905 1.389 . S
C1904 H1877 0.950 . S
C1904 C1890 1.377 . S
C1904 C1903 1.373 . S
C1905 C1889 1.377 . S
C1905 C1903 1.389 . S
C1905 C1906 1.524 . S
C1906 C1905 1.524 . S
C1906 C1907 1.397 . S
C1906 C1911 1.363 . S
C1907 H1878 0.950 . S
C1907 C1906 1.397 . S
C1907 C1908 1.334 . S
C1908 H1879 0.950 . S
C1908 C1907 1.334 . S
C1908 C1909 1.287 . S
C1909 C1908 1.287 . S
C1909 C1910 1.524 . S
C1909 H1912 0.999 . S
C1910 H1880 0.950 . S
C1910 C1909 1.524 . S
C1910 C1911 1.415 . S
C1911 H1881 0.950 . S
C1911 C1906 1.363 . S
C1911 C1910 1.415 . S
H1912 C1909 0.999 . S
H1913 C1894 0.913 . S
H1914 C1932 0.951 . S
H1915 C1934 0.951 . S
H1916 C1936 0.950 . S
H1917 C1937 0.950 . S
H1918 C1939 0.950 . S
H1919 C1942 0.950 . S
H1920 C1943 0.950 . S
H1921 C1945 0.950 . S
H1922 C1946 0.950 . S
H1923 C1947 0.951 . S
H1924 C1949 0.951 . S
H1925 C1951 0.950 . S
H1926 C1952 0.950 . S
H1927 C1954 0.950 . S
H1928 C1957 0.950 . S
H1929 C1958 0.950 . S
H1930 C1960 0.950 . S
H1931 C1961 0.950 . S
C1932 H1914 0.951 . S
C1932 C1933 1.366 . S
C1932 C1934 1.388 . S
C1933 C1932 1.366 . S
C1933 C1937 1.385 . S
C1934 H1915 0.951 . S
C1934 C1932 1.388 . S
C1934 C1935 1.366 . S
C1935 C1934 1.366 . S
C1935 C1936 1.414 . S
C1935 C1938 1.499 . S
C1936 H1916 0.950 . S
C1936 C1935 1.414 . S
C1936 C1937 1.374 . S
C1937 H1917 0.950 . S
C1937 C1933 1.385 . S
C1937 C1936 1.374 . S
C1938 C1935 1.499 . S
C1938 C1939 1.373 . S
C1938 C1940 1.389 . S
C1939 H1918 0.950 . S
C1939 C1938 1.373 . S
C1939 C1955 1.377 . S
C1940 C1938 1.389 . S
C1940 C1941 1.524 . S
C1940 C1954 1.377 . S
C1941 C1940 1.524 . S
C1941 C1942 1.397 . S
C1941 C1946 1.363 . S
C1942 H1919 0.950 . S
C1942 C1941 1.397 . S
C1942 C1943 1.334 . S
C1943 H1920 0.950 . S
C1943 C1942 1.334 . S
C1943 C1944 1.287 . S
C1944 C1943 1.287 . S
C1944 C1945 1.524 . S
C1944 H1963 0.913 . S
C1945 H1921 0.950 . S
C1945 C1944 1.524 . S
C1945 C1946 1.415 . S
C1946 H1922 0.950 . S
C1946 C1941 1.363 . S
C1946 C1945 1.415 . S
C1947 H1923 0.951 . S
C1947 C1948 1.366 . S
C1947 C1949 1.388 . S
C1948 C1947 1.366 . S
C1948 C1952 1.385 . S
C1949 H1924 0.951 . S
C1949 C1947 1.388 . S
C1949 C1950 1.366 . S
C1950 C1949 1.366 . S
C1950 C1951 1.414 . S
C1950 C1953 1.499 . S
C1951 H1925 0.950 . S
C1951 C1950 1.414 . S
C1951 C1952 1.374 . S
C1952 H1926 0.950 . S
C1952 C1948 1.385 . S
C1952 C1951 1.374 . S
C1953 C1950 1.499 . S
C1953 C1954 1.373 . S
C1953 C1955 1.389 . S
C1954 H1927 0.950 . S
C1954 C1940 1.377 . S
C1954 C1953 1.373 . S
C1955 C1939 1.377 . S
C1955 C1953 1.389 . S
C1955 C1956 1.524 . S
C1956 C1955 1.524 . S
C1956 C1957 1.397 . S
C1956 C1961 1.363 . S
C1957 H1928 0.950 . S
C1957 C1956 1.397 . S
C1957 C1958 1.334 . S
C1958 H1929 0.950 . S
C1958 C1957 1.334 . S
C1958 C1959 1.287 . S
C1959 C1958 1.287 . S
C1959 C1960 1.524 . S
C1959 H1962 0.999 . S
C1960 H1930 0.950 . S
C1960 C1959 1.524 . S
C1960 C1961 1.415 . S
C1961 H1931 0.950 . S
C1961 C1956 1.363 . S
C1961 C1960 1.415 . S
H1962 C1959 0.999 . S
H1963 C1944 0.913 . S
H1964 C1982 0.951 . S
H1965 C1984 0.951 . S
H1966 C1986 0.950 . S
H1967 C1987 0.950 . S
H1968 C1989 0.950 . S
H1969 C1992 0.950 . S
H1970 C1993 0.950 . S
H1971 C1995 0.950 . S
H1972 C1996 0.950 . S
H1973 C1997 0.951 . S
H1974 C1999 0.951 . S
H1975 C2001 0.950 . S
H1976 C2002 0.950 . S
H1977 C2004 0.950 . S
H1978 C2007 0.950 . S
H1979 C2008 0.950 . S
H1980 C2010 0.950 . S
H1981 C2011 0.950 . S
C1982 H1964 0.951 . S
C1982 C1983 1.366 . S
C1982 C1984 1.388 . S
C1983 C1982 1.366 . S
C1983 C1987 1.385 . S
C1984 H1965 0.951 . S
C1984 C1982 1.388 . S
C1984 C1985 1.366 . S
C1985 C1984 1.366 . S
C1985 C1986 1.414 . S
C1985 C1988 1.499 . S
C1986 H1966 0.950 . S
C1986 C1985 1.414 . S
C1986 C1987 1.374 . S
C1987 H1967 0.950 . S
C1987 C1983 1.385 . S
C1987 C1986 1.374 . S
C1988 C1985 1.499 . S
C1988 C1989 1.373 . S
C1988 C1990 1.389 . S
C1989 H1968 0.950 . S
C1989 C1988 1.373 . S
C1989 C2005 1.377 . S
C1990 C1988 1.389 . S
C1990 C1991 1.524 . S
C1990 C2004 1.377 . S
C1991 C1990 1.524 . S
C1991 C1992 1.397 . S
C1991 C1996 1.363 . S
C1992 H1969 0.950 . S
C1992 C1991 1.397 . S
C1992 C1993 1.334 . S
C1993 H1970 0.950 . S
C1993 C1992 1.334 . S
C1993 C1994 1.287 . S
C1994 C1993 1.287 . S
C1994 C1995 1.524 . S
C1994 H2013 0.913 . S
C1995 H1971 0.950 . S
C1995 C1994 1.524 . S
C1995 C1996 1.415 . S
C1996 H1972 0.950 . S
C1996 C1991 1.363 . S
C1996 C1995 1.415 . S
C1997 H1973 0.951 . S
C1997 C1998 1.366 . S
C1997 C1999 1.388 . S
C1998 C1997 1.366 . S
C1998 C2002 1.385 . S
C1999 H1974 0.951 . S
C1999 C1997 1.388 . S
C1999 C2000 1.366 . S
C2000 C1999 1.366 . S
C2000 C2001 1.414 . S
C2000 C2003 1.499 . S
C2001 H1975 0.950 . S
C2001 C2000 1.414 . S
C2001 C2002 1.374 . S
C2002 H1976 0.950 . S
C2002 C1998 1.385 . S
C2002 C2001 1.374 . S
C2003 C2000 1.499 . S
C2003 C2004 1.373 . S
C2003 C2005 1.389 . S
C2004 H1977 0.950 . S
C2004 C1990 1.377 . S
C2004 C2003 1.373 . S
C2005 C1989 1.377 . S
C2005 C2003 1.389 . S
C2005 C2006 1.524 . S
C2006 C2005 1.524 . S
C2006 C2007 1.397 . S
C2006 C2011 1.363 . S
C2007 H1978 0.950 . S
C2007 C2006 1.397 . S
C2007 C2008 1.334 . S
C2008 H1979 0.950 . S
C2008 C2007 1.334 . S
C2008 C2009 1.287 . S
C2009 C2008 1.287 . S
C2009 C2010 1.524 . S
C2009 H2012 0.999 . S
C2010 H1980 0.950 . S
C2010 C2009 1.524 . S
C2010 C2011 1.415 . S
C2011 H1981 0.950 . S
C2011 C2006 1.363 . S
C2011 C2010 1.415 . S
H2012 C2009 0.999 . S
H2013 C1994 0.913 . S
H2014 C2032 0.951 . S
H2015 C2034 0.951 . S
H2016 C2036 0.950 . S
H2017 C2037 0.950 . S
H2018 C2039 0.950 . S
H2019 C2042 0.950 . S
H2020 C2043 0.950 . S
H2021 C2045 0.950 . S
H2022 C2046 0.950 . S
H2023 C2047 0.951 . S
H2024 C2049 0.951 . S
H2025 C2051 0.950 . S
H2026 C2052 0.950 . S
H2027 C2054 0.950 . S
H2028 C2057 0.950 . S
H2029 C2058 0.950 . S
H2030 C2060 0.950 . S
H2031 C2061 0.950 . S
C2032 H2014 0.951 . S
C2032 C2033 1.366 . S
C2032 C2034 1.388 . S
C2033 C2032 1.366 . S
C2033 C2037 1.385 . S
C2034 H2015 0.951 . S
C2034 C2032 1.388 . S
C2034 C2035 1.366 . S
C2035 C2034 1.366 . S
C2035 C2036 1.414 . S
C2035 C2038 1.499 . S
C2036 H2016 0.950 . S
C2036 C2035 1.414 . S
C2036 C2037 1.374 . S
C2037 H2017 0.950 . S
C2037 C2033 1.385 . S
C2037 C2036 1.374 . S
C2038 C2035 1.499 . S
C2038 C2039 1.373 . S
C2038 C2040 1.389 . S
C2039 H2018 0.950 . S
C2039 C2038 1.373 . S
C2039 C2055 1.377 . S
C2040 C2038 1.389 . S
C2040 C2041 1.524 . S
C2040 C2054 1.377 . S
C2041 C2040 1.524 . S
C2041 C2042 1.397 . S
C2041 C2046 1.363 . S
C2042 H2019 0.950 . S
C2042 C2041 1.397 . S
C2042 C2043 1.334 . S
C2043 H2020 0.950 . S
C2043 C2042 1.334 . S
C2043 C2044 1.287 . S
C2044 C2043 1.287 . S
C2044 C2045 1.524 . S
C2044 H2063 0.913 . S
C2045 H2021 0.950 . S
C2045 C2044 1.524 . S
C2045 C2046 1.415 . S
C2046 H2022 0.950 . S
C2046 C2041 1.363 . S
C2046 C2045 1.415 . S
C2047 H2023 0.951 . S
C2047 C2048 1.366 . S
C2047 C2049 1.388 . S
C2048 C2047 1.366 . S
C2048 C2052 1.385 . S
C2049 H2024 0.951 . S
C2049 C2047 1.388 . S
C2049 C2050 1.366 . S
C2050 C2049 1.366 . S
C2050 C2051 1.414 . S
C2050 C2053 1.499 . S
C2051 H2025 0.950 . S
C2051 C2050 1.414 . S
C2051 C2052 1.374 . S
C2052 H2026 0.950 . S
C2052 C2048 1.385 . S
C2052 C2051 1.374 . S
C2053 C2050 1.499 . S
C2053 C2054 1.373 . S
C2053 C2055 1.389 . S
C2054 H2027 0.950 . S
C2054 C2040 1.377 . S
C2054 C2053 1.373 . S
C2055 C2039 1.377 . S
C2055 C2053 1.389 . S
C2055 C2056 1.524 . S
C2056 C2055 1.524 . S
C2056 C2057 1.397 . S
C2056 C2061 1.363 . S
C2057 H2028 0.950 . S
C2057 C2056 1.397 . S
C2057 C2058 1.334 . S
C2058 H2029 0.950 . S
C2058 C2057 1.334 . S
C2058 C2059 1.287 . S
C2059 C2058 1.287 . S
C2059 C2060 1.524 . S
C2059 H2062 0.999 . S
C2060 H2030 0.950 . S
C2060 C2059 1.524 . S
C2060 C2061 1.415 . S
C2061 H2031 0.950 . S
C2061 C2056 1.363 . S
C2061 C2060 1.415 . S
H2062 C2059 0.999 . S
H2063 C2044 0.913 . S
H2064 C2082 0.951 . S
H2065 C2084 0.951 . S
H2066 C2086 0.950 . S
H2067 C2087 0.950 . S
H2068 C2089 0.950 . S
H2069 C2092 0.950 . S
H2070 C2093 0.950 . S
H2071 C2095 0.950 . S
H2072 C2096 0.950 . S
H2073 C2097 0.951 . S
H2074 C2099 0.951 . S
H2075 C2101 0.950 . S
H2076 C2102 0.950 . S
H2077 C2104 0.950 . S
H2078 C2107 0.950 . S
H2079 C2108 0.950 . S
H2080 C2110 0.950 . S
H2081 C2111 0.950 . S
C2082 H2064 0.951 . S
C2082 C2083 1.366 . S
C2082 C2084 1.388 . S
C2083 C2082 1.366 . S
C2083 C2087 1.385 . S
C2084 H2065 0.951 . S
C2084 C2082 1.388 . S
C2084 C2085 1.366 . S
C2085 C2084 1.366 . S
C2085 C2086 1.414 . S
C2085 C2088 1.499 . S
C2086 H2066 0.950 . S
C2086 C2085 1.414 . S
C2086 C2087 1.374 . S
C2087 H2067 0.950 . S
C2087 C2083 1.385 . S
C2087 C2086 1.374 . S
C2088 C2085 1.499 . S
C2088 C2089 1.373 . S
C2088 C2090 1.389 . S
C2089 H2068 0.950 . S
C2089 C2088 1.373 . S
C2089 C2105 1.377 1_455 S
C2090 C2088 1.389 . S
C2090 C2091 1.524 . S
C2090 C2104 1.377 1_455 S
C2091 C2090 1.524 . S
C2091 C2092 1.397 . S
C2091 C2096 1.363 . S
C2092 H2069 0.950 . S
C2092 C2091 1.397 . S
C2092 C2093 1.334 . S
C2093 H2070 0.950 . S
C2093 C2092 1.334 . S
C2093 C2094 1.287 . S
C2094 C2093 1.287 . S
C2094 C2095 1.524 . S
C2094 H2113 0.913 . S
C2095 H2071 0.950 . S
C2095 C2094 1.524 . S
C2095 C2096 1.415 . S
C2096 H2072 0.950 . S
C2096 C2091 1.363 . S
C2096 C2095 1.415 . S
C2097 H2073 0.951 . S
C2097 C2098 1.366 . S
C2097 C2099 1.388 . S
C2098 C2097 1.366 . S
C2098 C2102 1.385 . S
C2099 H2074 0.951 . S
C2099 C2097 1.388 . S
C2099 C2100 1.366 . S
C2100 C2099 1.366 . S
C2100 C2101 1.414 . S
C2100 C2103 1.499 . S
C2101 H2075 0.950 . S
C2101 C2100 1.414 . S
C2101 C2102 1.374 . S
C2102 H2076 0.950 . S
C2102 C2098 1.385 . S
C2102 C2101 1.374 . S
C2103 C2100 1.499 . S
C2103 C2104 1.373 . S
C2103 C2105 1.389 . S
C2104 H2077 0.950 . S
C2104 C2090 1.377 1_655 S
C2104 C2103 1.373 . S
C2105 C2089 1.377 1_655 S
C2105 C2103 1.389 . S
C2105 C2106 1.524 . S
C2106 C2105 1.524 . S
C2106 C2107 1.397 . S
C2106 C2111 1.363 . S
C2107 H2078 0.950 . S
C2107 C2106 1.397 . S
C2107 C2108 1.334 . S
C2108 H2079 0.950 . S
C2108 C2107 1.334 . S
C2108 C2109 1.287 . S
C2109 C2108 1.287 . S
C2109 C2110 1.524 . S
C2109 H2112 0.999 . S
C2110 H2080 0.950 . S
C2110 C2109 1.524 . S
C2110 C2111 1.415 . S
C2111 H2081 0.950 . S
C2111 C2106 1.363 . S
C2111 C2110 1.415 . S
H2112 C2109 0.999 . S
H2113 C2094 0.913 . S
H2114 C2132 0.951 . S
H2115 C2134 0.951 . S
H2116 C2136 0.950 . S
H2117 C2137 0.950 . S
H2118 C2139 0.950 . S
H2119 C2142 0.950 . S
H2120 C2143 0.950 . S
H2121 C2145 0.950 . S
H2122 C2146 0.950 . S
H2123 C2147 0.951 . S
H2124 C2149 0.951 . S
H2125 C2151 0.950 . S
H2126 C2152 0.950 . S
H2127 C2154 0.950 . S
H2128 C2157 0.950 . S
H2129 C2158 0.950 . S
H2130 C2160 0.950 . S
H2131 C2161 0.950 . S
C2132 H2114 0.951 . S
C2132 C2133 1.366 . S
C2132 C2134 1.388 . S
C2133 C2132 1.366 . S
C2133 C2137 1.385 . S
C2134 H2115 0.951 . S
C2134 C2132 1.388 . S
C2134 C2135 1.366 . S
C2135 C2134 1.366 . S
C2135 C2136 1.414 . S
C2135 C2138 1.499 . S
C2136 H2116 0.950 . S
C2136 C2135 1.414 . S
C2136 C2137 1.374 . S
C2137 H2117 0.950 . S
C2137 C2133 1.385 . S
C2137 C2136 1.374 . S
C2138 C2135 1.499 . S
C2138 C2139 1.373 . S
C2138 C2140 1.389 . S
C2139 H2118 0.950 . S
C2139 C2138 1.373 . S
C2139 C2155 1.377 1_545 S
C2140 C2138 1.389 . S
C2140 C2141 1.524 . S
C2140 C2154 1.377 1_545 S
C2141 C2140 1.524 . S
C2141 C2142 1.397 . S
C2141 C2146 1.363 . S
C2142 H2119 0.950 . S
C2142 C2141 1.397 . S
C2142 C2143 1.334 . S
C2143 H2120 0.950 . S
C2143 C2142 1.334 . S
C2143 C2144 1.287 . S
C2144 C2143 1.287 . S
C2144 C2145 1.524 . S
C2144 H2163 0.913 . S
C2145 H2121 0.950 . S
C2145 C2144 1.524 . S
C2145 C2146 1.415 . S
C2146 H2122 0.950 . S
C2146 C2141 1.363 . S
C2146 C2145 1.415 . S
C2147 H2123 0.951 . S
C2147 C2148 1.366 . S
C2147 C2149 1.388 . S
C2148 C2147 1.366 . S
C2148 C2152 1.385 . S
C2149 H2124 0.951 . S
C2149 C2147 1.388 . S
C2149 C2150 1.366 . S
C2150 C2149 1.366 . S
C2150 C2151 1.414 . S
C2150 C2153 1.499 . S
C2151 H2125 0.950 . S
C2151 C2150 1.414 . S
C2151 C2152 1.374 . S
C2152 H2126 0.950 . S
C2152 C2148 1.385 . S
C2152 C2151 1.374 . S
C2153 C2150 1.499 . S
C2153 C2154 1.373 . S
C2153 C2155 1.389 . S
C2154 H2127 0.950 . S
C2154 C2140 1.377 1_565 S
C2154 C2153 1.373 . S
C2155 C2139 1.377 1_565 S
C2155 C2153 1.389 . S
C2155 C2156 1.524 . S
C2156 C2155 1.524 . S
C2156 C2157 1.397 . S
C2156 C2161 1.363 . S
C2157 H2128 0.950 . S
C2157 C2156 1.397 . S
C2157 C2158 1.334 . S
C2158 H2129 0.950 . S
C2158 C2157 1.334 . S
C2158 C2159 1.287 . S
C2159 C2158 1.287 . S
C2159 C2160 1.524 . S
C2159 H2162 0.999 . S
C2160 H2130 0.950 . S
C2160 C2159 1.524 . S
C2160 C2161 1.415 . S
C2161 H2131 0.950 . S
C2161 C2156 1.363 . S
C2161 C2160 1.415 . S
H2162 C2159 0.999 . S
H2163 C2144 0.913 . S
H2164 C2182 0.951 . S
H2165 C2184 0.951 . S
H2166 C2186 0.950 . S
H2167 C2187 0.950 . S
H2168 C2189 0.950 . S
H2169 C2192 0.950 . S
H2170 C2193 0.950 . S
H2171 C2195 0.950 . S
H2172 C2196 0.950 . S
H2173 C2197 0.951 . S
H2174 C2199 0.951 . S
H2175 C2201 0.950 . S
H2176 C2202 0.950 . S
H2177 C2204 0.950 . S
H2178 C2207 0.950 . S
H2179 C2208 0.950 . S
H2180 C2210 0.950 . S
H2181 C2211 0.950 . S
C2182 H2164 0.951 . S
C2182 C2183 1.366 . S
C2182 C2184 1.388 . S
C2183 C2182 1.366 . S
C2183 C2187 1.385 . S
C2184 H2165 0.951 . S
C2184 C2182 1.388 . S
C2184 C2185 1.366 . S
C2185 C2184 1.366 . S
C2185 C2186 1.414 . S
C2185 C2188 1.499 . S
C2186 H2166 0.950 . S
C2186 C2185 1.414 . S
C2186 C2187 1.374 . S
C2187 H2167 0.950 . S
C2187 C2183 1.385 . S
C2187 C2186 1.374 . S
C2188 C2185 1.499 . S
C2188 C2189 1.373 . S
C2188 C2190 1.389 . S
C2189 H2168 0.950 . S
C2189 C2188 1.373 . S
C2189 C2205 1.377 1_655 S
C2190 C2188 1.389 . S
C2190 C2191 1.524 . S
C2190 C2204 1.377 1_655 S
C2191 C2190 1.524 . S
C2191 C2192 1.397 . S
C2191 C2196 1.363 . S
C2192 H2169 0.950 . S
C2192 C2191 1.397 . S
C2192 C2193 1.334 . S
C2193 H2170 0.950 . S
C2193 C2192 1.334 . S
C2193 C2194 1.287 . S
C2194 C2193 1.287 . S
C2194 C2195 1.524 . S
C2194 H2213 0.913 . S
C2195 H2171 0.950 . S
C2195 C2194 1.524 . S
C2195 C2196 1.415 . S
C2196 H2172 0.950 . S
C2196 C2191 1.363 . S
C2196 C2195 1.415 . S
C2197 H2173 0.951 . S
C2197 C2198 1.366 . S
C2197 C2199 1.388 . S
C2198 C2197 1.366 . S
C2198 C2202 1.385 . S
C2199 H2174 0.951 . S
C2199 C2197 1.388 . S
C2199 C2200 1.366 . S
C2200 C2199 1.366 . S
C2200 C2201 1.414 . S
C2200 C2203 1.499 . S
C2201 H2175 0.950 . S
C2201 C2200 1.414 . S
C2201 C2202 1.374 . S
C2202 H2176 0.950 . S
C2202 C2198 1.385 . S
C2202 C2201 1.374 . S
C2203 C2200 1.499 . S
C2203 C2204 1.373 . S
C2203 C2205 1.389 . S
C2204 H2177 0.950 . S
C2204 C2190 1.377 1_455 S
C2204 C2203 1.373 . S
C2205 C2189 1.377 1_455 S
C2205 C2203 1.389 . S
C2205 C2206 1.524 . S
C2206 C2205 1.524 . S
C2206 C2207 1.397 . S
C2206 C2211 1.363 . S
C2207 H2178 0.950 . S
C2207 C2206 1.397 . S
C2207 C2208 1.334 . S
C2208 H2179 0.950 . S
C2208 C2207 1.334 . S
C2208 C2209 1.287 . S
C2209 C2208 1.287 . S
C2209 C2210 1.524 . S
C2209 H2212 0.999 . S
C2210 H2180 0.950 . S
C2210 C2209 1.524 . S
C2210 C2211 1.415 . S
C2211 H2181 0.950 . S
C2211 C2206 1.363 . S
C2211 C2210 1.415 . S
H2212 C2209 0.999 . S
H2213 C2194 0.913 . S
H2214 C2232 0.951 . S
H2215 C2234 0.951 . S
H2216 C2236 0.950 . S
H2217 C2237 0.950 . S
H2218 C2239 0.950 . S
H2219 C2242 0.950 . S
H2220 C2243 0.950 . S
H2221 C2245 0.950 . S
H2222 C2246 0.950 . S
H2223 C2247 0.951 . S
H2224 C2249 0.951 . S
H2225 C2251 0.950 . S
H2226 C2252 0.950 . S
H2227 C2254 0.950 . S
H2228 C2257 0.950 . S
H2229 C2258 0.950 . S
H2230 C2260 0.950 . S
H2231 C2261 0.950 . S
C2232 H2214 0.951 . S
C2232 C2233 1.366 . S
C2232 C2234 1.388 . S
C2233 C2232 1.366 . S
C2233 C2237 1.385 . S
C2234 H2215 0.951 . S
C2234 C2232 1.388 . S
C2234 C2235 1.366 . S
C2235 C2234 1.366 . S
C2235 C2236 1.414 . S
C2235 C2238 1.499 . S
C2236 H2216 0.950 . S
C2236 C2235 1.414 . S
C2236 C2237 1.374 . S
C2237 H2217 0.950 . S
C2237 C2233 1.385 . S
C2237 C2236 1.374 . S
C2238 C2235 1.499 . S
C2238 C2239 1.373 . S
C2238 C2240 1.389 . S
C2239 H2218 0.950 . S
C2239 C2238 1.373 . S
C2239 C2255 1.377 1_545 S
C2240 C2238 1.389 . S
C2240 C2241 1.524 . S
C2240 C2254 1.377 1_545 S
C2241 C2240 1.524 . S
C2241 C2242 1.397 . S
C2241 C2246 1.363 . S
C2242 H2219 0.950 . S
C2242 C2241 1.397 . S
C2242 C2243 1.334 . S
C2243 H2220 0.950 . S
C2243 C2242 1.334 . S
C2243 C2244 1.287 . S
C2244 C2243 1.287 . S
C2244 C2245 1.524 . S
C2244 H2263 0.913 . S
C2245 H2221 0.950 . S
C2245 C2244 1.524 . S
C2245 C2246 1.415 . S
C2246 H2222 0.950 . S
C2246 C2241 1.363 . S
C2246 C2245 1.415 . S
C2247 H2223 0.951 . S
C2247 C2248 1.366 . S
C2247 C2249 1.388 . S
C2248 C2247 1.366 . S
C2248 C2252 1.385 . S
C2249 H2224 0.951 . S
C2249 C2247 1.388 . S
C2249 C2250 1.366 . S
C2250 C2249 1.366 . S
C2250 C2251 1.414 . S
C2250 C2253 1.499 . S
C2251 H2225 0.950 . S
C2251 C2250 1.414 . S
C2251 C2252 1.374 . S
C2252 H2226 0.950 . S
C2252 C2248 1.385 . S
C2252 C2251 1.374 . S
C2253 C2250 1.499 . S
C2253 C2254 1.373 . S
C2253 C2255 1.389 . S
C2254 H2227 0.950 . S
C2254 C2240 1.377 1_565 S
C2254 C2253 1.373 . S
C2255 C2239 1.377 1_565 S
C2255 C2253 1.389 . S
C2255 C2256 1.524 . S
C2256 C2255 1.524 . S
C2256 C2257 1.397 . S
C2256 C2261 1.363 . S
C2257 H2228 0.950 . S
C2257 C2256 1.397 . S
C2257 C2258 1.334 . S
C2258 H2229 0.950 . S
C2258 C2257 1.334 . S
C2258 C2259 1.287 . S
C2259 C2258 1.287 . S
C2259 C2260 1.524 . S
C2259 H2262 0.999 . S
C2260 H2230 0.950 . S
C2260 C2259 1.524 . S
C2260 C2261 1.415 . S
C2261 H2231 0.950 . S
C2261 C2256 1.363 . S
C2261 C2260 1.415 . S
H2262 C2259 0.999 . S
H2263 C2244 0.913 . S
H2264 C2282 0.951 . S
H2265 C2284 0.951 . S
H2266 C2286 0.950 . S
H2267 C2287 0.950 . S
H2268 C2289 0.950 . S
H2269 C2292 0.950 . S
H2270 C2293 0.950 . S
H2271 C2295 0.950 . S
H2272 C2296 0.950 . S
H2273 C2297 0.951 . S
H2274 C2299 0.951 . S
H2275 C2301 0.950 . S
H2276 C2302 0.950 . S
H2277 C2304 0.950 . S
H2278 C2307 0.950 . S
H2279 C2308 0.950 . S
H2280 C2310 0.950 . S
H2281 C2311 0.950 . S
C2282 H2264 0.951 . S
C2282 C2283 1.366 . S
C2282 C2284 1.388 . S
C2283 C2282 1.366 . S
C2283 C2287 1.385 . S
C2284 H2265 0.951 . S
C2284 C2282 1.388 . S
C2284 C2285 1.366 . S
C2285 C2284 1.366 . S
C2285 C2286 1.414 . S
C2285 C2288 1.499 . S
C2286 H2266 0.950 . S
C2286 C2285 1.414 . S
C2286 C2287 1.374 . S
C2287 H2267 0.950 . S
C2287 C2283 1.385 . S
C2287 C2286 1.374 . S
C2288 C2285 1.499 . S
C2288 C2289 1.373 . S
C2288 C2290 1.389 . S
C2289 H2268 0.950 . S
C2289 C2288 1.373 . S
C2289 C2305 1.377 1_565 S
C2290 C2288 1.389 . S
C2290 C2291 1.524 . S
C2290 C2304 1.377 1_565 S
C2291 C2290 1.524 . S
C2291 C2292 1.397 . S
C2291 C2296 1.363 . S
C2292 H2269 0.950 . S
C2292 C2291 1.397 . S
C2292 C2293 1.334 . S
C2293 H2270 0.950 . S
C2293 C2292 1.334 . S
C2293 C2294 1.287 . S
C2294 C2293 1.287 . S
C2294 C2295 1.524 . S
C2294 H2313 0.913 . S
C2295 H2271 0.950 . S
C2295 C2294 1.524 . S
C2295 C2296 1.415 . S
C2296 H2272 0.950 . S
C2296 C2291 1.363 . S
C2296 C2295 1.415 . S
C2297 H2273 0.951 . S
C2297 C2298 1.366 . S
C2297 C2299 1.388 . S
C2298 C2297 1.366 . S
C2298 C2302 1.385 . S
C2299 H2274 0.951 . S
C2299 C2297 1.388 . S
C2299 C2300 1.366 . S
C2300 C2299 1.366 . S
C2300 C2301 1.414 . S
C2300 C2303 1.499 . S
C2301 H2275 0.950 . S
C2301 C2300 1.414 . S
C2301 C2302 1.374 . S
C2302 H2276 0.950 . S
C2302 C2298 1.385 . S
C2302 C2301 1.374 . S
C2303 C2300 1.499 . S
C2303 C2304 1.373 . S
C2303 C2305 1.389 . S
C2304 H2277 0.950 . S
C2304 C2290 1.377 1_545 S
C2304 C2303 1.373 . S
C2305 C2289 1.377 1_545 S
C2305 C2303 1.389 . S
C2305 C2306 1.524 . S
C2306 C2305 1.524 . S
C2306 C2307 1.397 . S
C2306 C2311 1.363 . S
C2307 H2278 0.950 . S
C2307 C2306 1.397 . S
C2307 C2308 1.334 . S
C2308 H2279 0.950 . S
C2308 C2307 1.334 . S
C2308 C2309 1.287 . S
C2309 C2308 1.287 . S
C2309 C2310 1.524 . S
C2309 H2312 0.999 . S
C2310 H2280 0.950 . S
C2310 C2309 1.524 . S
C2310 C2311 1.415 . S
C2311 H2281 0.950 . S
C2311 C2306 1.363 . S
C2311 C2310 1.415 . S
H2312 C2309 0.999 . S
H2313 C2294 0.913 . S
H2314 C2332 0.951 . S
H2315 C2334 0.951 . S
H2316 C2336 0.950 . S
H2317 C2337 0.950 . S
H2318 C2339 0.950 . S
H2319 C2342 0.950 . S
H2320 C2343 0.950 . S
H2321 C2345 0.950 . S
H2322 C2346 0.950 . S
H2323 C2347 0.951 . S
H2324 C2349 0.951 . S
H2325 C2351 0.950 . S
H2326 C2352 0.950 . S
H2327 C2354 0.950 . S
H2328 C2357 0.950 . S
H2329 C2358 0.950 . S
H2330 C2360 0.950 . S
H2331 C2361 0.950 . S
C2332 H2314 0.951 . S
C2332 C2333 1.366 . S
C2332 C2334 1.388 . S
C2333 C2332 1.366 . S
C2333 C2337 1.385 . S
C2334 H2315 0.951 . S
C2334 C2332 1.388 . S
C2334 C2335 1.366 . S
C2335 C2334 1.366 . S
C2335 C2336 1.414 . S
C2335 C2338 1.499 . S
C2336 H2316 0.950 . S
C2336 C2335 1.414 . S
C2336 C2337 1.374 . S
C2337 H2317 0.950 . S
C2337 C2333 1.385 . S
C2337 C2336 1.374 . S
C2338 C2335 1.499 . S
C2338 C2339 1.373 . S
C2338 C2340 1.389 . S
C2339 H2318 0.950 . S
C2339 C2338 1.373 . S
C2339 C2355 1.377 1_655 S
C2340 C2338 1.389 . S
C2340 C2341 1.524 . S
C2340 C2354 1.377 1_655 S
C2341 C2340 1.524 . S
C2341 C2342 1.397 . S
C2341 C2346 1.363 . S
C2342 H2319 0.950 . S
C2342 C2341 1.397 . S
C2342 C2343 1.334 . S
C2343 H2320 0.950 . S
C2343 C2342 1.334 . S
C2343 C2344 1.287 . S
C2344 C2343 1.287 . S
C2344 C2345 1.524 . S
C2344 H2363 0.913 . S
C2345 H2321 0.950 . S
C2345 C2344 1.524 . S
C2345 C2346 1.415 . S
C2346 H2322 0.950 . S
C2346 C2341 1.363 . S
C2346 C2345 1.415 . S
C2347 H2323 0.951 . S
C2347 C2348 1.366 . S
C2347 C2349 1.388 . S
C2348 C2347 1.366 . S
C2348 C2352 1.385 . S
C2349 H2324 0.951 . S
C2349 C2347 1.388 . S
C2349 C2350 1.366 . S
C2350 C2349 1.366 . S
C2350 C2351 1.414 . S
C2350 C2353 1.499 . S
C2351 H2325 0.950 . S
C2351 C2350 1.414 . S
C2351 C2352 1.374 . S
C2352 H2326 0.950 . S
C2352 C2348 1.385 . S
C2352 C2351 1.374 . S
C2353 C2350 1.499 . S
C2353 C2354 1.373 . S
C2353 C2355 1.389 . S
C2354 H2327 0.950 . S
C2354 C2340 1.377 1_455 S
C2354 C2353 1.373 . S
C2355 C2339 1.377 1_455 S
C2355 C2353 1.389 . S
C2355 C2356 1.524 . S
C2356 C2355 1.524 . S
C2356 C2357 1.397 . S
C2356 C2361 1.363 . S
C2357 H2328 0.950 . S
C2357 C2356 1.397 . S
C2357 C2358 1.334 . S
C2358 H2329 0.950 . S
C2358 C2357 1.334 . S
C2358 C2359 1.287 . S
C2359 C2358 1.287 . S
C2359 C2360 1.524 . S
C2359 H2362 0.999 . S
C2360 H2330 0.950 . S
C2360 C2359 1.524 . S
C2360 C2361 1.415 . S
C2361 H2331 0.950 . S
C2361 C2356 1.363 . S
C2361 C2360 1.415 . S
H2362 C2359 0.999 . S
H2363 C2344 0.913 . S
H2364 C2382 0.951 . S
H2365 C2384 0.951 . S
H2366 C2386 0.950 . S
H2367 C2387 0.950 . S
H2368 C2389 0.950 . S
H2369 C2392 0.950 . S
H2370 C2393 0.950 . S
H2371 C2395 0.950 . S
H2372 C2396 0.950 . S
H2373 C2397 0.951 . S
H2374 C2399 0.951 . S
H2375 C2401 0.950 . S
H2376 C2402 0.950 . S
H2377 C2404 0.950 . S
H2378 C2407 0.950 . S
H2379 C2408 0.950 . S
H2380 C2410 0.950 . S
H2381 C2411 0.950 . S
C2382 H2364 0.951 . S
C2382 C2383 1.366 . S
C2382 C2384 1.388 . S
C2383 C2382 1.366 . S
C2383 C2387 1.385 . S
C2384 H2365 0.951 . S
C2384 C2382 1.388 . S
C2384 C2385 1.366 . S
C2385 C2384 1.366 . S
C2385 C2386 1.414 . S
C2385 C2388 1.499 . S
C2386 H2366 0.950 . S
C2386 C2385 1.414 . S
C2386 C2387 1.374 . S
C2387 H2367 0.950 . S
C2387 C2383 1.385 . S
C2387 C2386 1.374 . S
C2388 C2385 1.499 . S
C2388 C2389 1.373 . S
C2388 C2390 1.389 . S
C2389 H2368 0.950 . S
C2389 C2388 1.373 . S
C2389 C2405 1.377 1_565 S
C2390 C2388 1.389 . S
C2390 C2391 1.524 . S
C2390 C2404 1.377 1_565 S
C2391 C2390 1.524 . S
C2391 C2392 1.397 . S
C2391 C2396 1.363 . S
C2392 H2369 0.950 . S
C2392 C2391 1.397 . S
C2392 C2393 1.334 . S
C2393 H2370 0.950 . S
C2393 C2392 1.334 . S
C2393 C2394 1.287 . S
C2394 C2393 1.287 . S
C2394 C2395 1.524 . S
C2394 H2413 0.913 . S
C2395 H2371 0.950 . S
C2395 C2394 1.524 . S
C2395 C2396 1.415 . S
C2396 H2372 0.950 . S
C2396 C2391 1.363 . S
C2396 C2395 1.415 . S
C2397 H2373 0.951 . S
C2397 C2398 1.366 . S
C2397 C2399 1.388 . S
C2398 C2397 1.366 . S
C2398 C2402 1.385 . S
C2399 H2374 0.951 . S
C2399 C2397 1.388 . S
C2399 C2400 1.366 . S
C2400 C2399 1.366 . S
C2400 C2401 1.414 . S
C2400 C2403 1.499 . S
C2401 H2375 0.950 . S
C2401 C2400 1.414 . S
C2401 C2402 1.374 . S
C2402 H2376 0.950 . S
C2402 C2398 1.385 . S
C2402 C2401 1.374 . S
C2403 C2400 1.499 . S
C2403 C2404 1.373 . S
C2403 C2405 1.389 . S
C2404 H2377 0.950 . S
C2404 C2390 1.377 1_545 S
C2404 C2403 1.373 . S
C2405 C2389 1.377 1_545 S
C2405 C2403 1.389 . S
C2405 C2406 1.524 . S
C2406 C2405 1.524 . S
C2406 C2407 1.397 . S
C2406 C2411 1.363 . S
C2407 H2378 0.950 . S
C2407 C2406 1.397 . S
C2407 C2408 1.334 . S
C2408 H2379 0.950 . S
C2408 C2407 1.334 . S
C2408 C2409 1.287 . S
C2409 C2408 1.287 . S
C2409 C2410 1.524 . S
C2409 H2412 0.999 . S
C2410 H2380 0.950 . S
C2410 C2409 1.524 . S
C2410 C2411 1.415 . S
C2411 H2381 0.950 . S
C2411 C2406 1.363 . S
C2411 C2410 1.415 . S
H2412 C2409 0.999 . S
H2413 C2394 0.913 . S
H2414 C2432 0.951 . S
H2415 C2434 0.951 . S
H2416 C2436 0.950 . S
H2417 C2437 0.950 . S
H2418 C2439 0.950 . S
H2419 C2442 0.950 . S
H2420 C2443 0.950 . S
H2421 C2445 0.950 . S
H2422 C2446 0.950 . S
H2423 C2447 0.951 . S
H2424 C2449 0.951 . S
H2425 C2451 0.950 . S
H2426 C2452 0.950 . S
H2427 C2454 0.950 . S
H2428 C2457 0.950 . S
H2429 C2458 0.950 . S
H2430 C2460 0.950 . S
H2431 C2461 0.950 . S
C2432 H2414 0.951 . S
C2432 C2433 1.366 . S
C2432 C2434 1.388 . S
C2433 C2432 1.366 . S
C2433 C2437 1.385 . S
C2434 H2415 0.951 . S
C2434 C2432 1.388 . S
C2434 C2435 1.366 . S
C2435 C2434 1.366 . S
C2435 C2436 1.414 . S
C2435 C2438 1.499 . S
C2436 H2416 0.950 . S
C2436 C2435 1.414 . S
C2436 C2437 1.374 . S
C2437 H2417 0.950 . S
C2437 C2433 1.385 . S
C2437 C2436 1.374 . S
C2438 C2435 1.499 . S
C2438 C2439 1.373 . S
C2438 C2440 1.389 . S
C2439 H2418 0.950 . S
C2439 C2438 1.373 . S
C2439 C2455 1.377 1_655 S
C2440 C2438 1.389 . S
C2440 C2441 1.524 . S
C2440 C2454 1.377 1_655 S
C2441 C2440 1.524 . S
C2441 C2442 1.397 . S
C2441 C2446 1.363 . S
C2442 H2419 0.950 . S
C2442 C2441 1.397 . S
C2442 C2443 1.334 . S
C2443 H2420 0.950 . S
C2443 C2442 1.334 . S
C2443 C2444 1.287 . S
C2444 C2443 1.287 . S
C2444 C2445 1.524 . S
C2444 H2463 0.913 . S
C2445 H2421 0.950 . S
C2445 C2444 1.524 . S
C2445 C2446 1.415 . S
C2446 H2422 0.950 . S
C2446 C2441 1.363 . S
C2446 C2445 1.415 . S
C2447 H2423 0.951 . S
C2447 C2448 1.366 . S
C2447 C2449 1.388 . S
C2448 C2447 1.366 . S
C2448 C2452 1.385 . S
C2449 H2424 0.951 . S
C2449 C2447 1.388 . S
C2449 C2450 1.366 . S
C2450 C2449 1.366 . S
C2450 C2451 1.414 . S
C2450 C2453 1.499 . S
C2451 H2425 0.950 . S
C2451 C2450 1.414 . S
C2451 C2452 1.374 . S
C2452 H2426 0.950 . S
C2452 C2448 1.385 . S
C2452 C2451 1.374 . S
C2453 C2450 1.499 . S
C2453 C2454 1.373 . S
C2453 C2455 1.389 . S
C2454 H2427 0.950 . S
C2454 C2440 1.377 1_455 S
C2454 C2453 1.373 . S
C2455 C2439 1.377 1_455 S
C2455 C2453 1.389 . S
C2455 C2456 1.524 . S
C2456 C2455 1.524 . S
C2456 C2457 1.397 . S
C2456 C2461 1.363 . S
C2457 H2428 0.950 . S
C2457 C2456 1.397 . S
C2457 C2458 1.334 . S
C2458 H2429 0.950 . S
C2458 C2457 1.334 . S
C2458 C2459 1.287 . S
C2459 C2458 1.287 . S
C2459 C2460 1.524 . S
C2459 H2462 0.999 . S
C2460 H2430 0.950 . S
C2460 C2459 1.524 . S
C2460 C2461 1.415 . S
C2461 H2431 0.950 . S
C2461 C2456 1.363 . S
C2461 C2460 1.415 . S
H2462 C2459 0.999 . S
H2463 C2444 0.913 . S
H2464 C2482 0.951 . S
H2465 C2484 0.951 . S
H2466 C2486 0.950 . S
H2467 C2487 0.950 . S
H2468 C2489 0.950 . S
H2469 C2492 0.950 . S
H2470 C2493 0.950 . S
H2471 C2495 0.950 . S
H2472 C2496 0.950 . S
H2473 C2497 0.951 . S
H2474 C2499 0.951 . S
H2475 C2501 0.950 . S
H2476 C2502 0.950 . S
H2477 C2504 0.950 . S
H2478 C2507 0.950 . S
H2479 C2508 0.950 . S
H2480 C2510 0.950 . S
H2481 C2511 0.950 . S
C2482 H2464 0.951 . S
C2482 C2483 1.366 . S
C2482 C2484 1.388 . S
C2483 C2482 1.366 . S
C2483 C2487 1.385 . S
C2484 H2465 0.951 . S
C2484 C2482 1.388 . S
C2484 C2485 1.366 . S
C2485 C2484 1.366 . S
C2485 C2486 1.414 . S
C2485 C2488 1.499 . S
C2486 H2466 0.950 . S
C2486 C2485 1.414 . S
C2486 C2487 1.374 . S
C2487 H2467 0.950 . S
C2487 C2483 1.385 . S
C2487 C2486 1.374 . S
C2488 C2485 1.499 . S
C2488 C2489 1.373 . S
C2488 C2490 1.389 . S
C2489 H2468 0.950 . S
C2489 C2488 1.373 . S
C2489 C2505 1.377 1_556 S
C2490 C2488 1.389 . S
C2490 C2491 1.524 . S
C2490 C2504 1.377 1_556 S
C2491 C2490 1.524 . S
C2491 C2492 1.397 . S
C2491 C2496 1.363 . S
C2492 H2469 0.950 . S
C2492 C2491 1.397 . S
C2492 C2493 1.334 . S
C2493 H2470 0.950 . S
C2493 C2492 1.334 . S
C2493 C2494 1.287 . S
C2494 C2493 1.287 . S
C2494 C2495 1.524 . S
C2494 H2513 0.913 . S
C2495 H2471 0.950 . S
C2495 C2494 1.524 . S
C2495 C2496 1.415 . S
C2496 H2472 0.950 . S
C2496 C2491 1.363 . S
C2496 C2495 1.415 . S
C2497 H2473 0.951 . S
C2497 C2498 1.366 . S
C2497 C2499 1.388 . S
C2498 C2497 1.366 . S
C2498 C2502 1.385 . S
C2499 H2474 0.951 . S
C2499 C2497 1.388 . S
C2499 C2500 1.366 . S
C2500 C2499 1.366 . S
C2500 C2501 1.414 . S
C2500 C2503 1.499 . S
C2501 H2475 0.950 . S
C2501 C2500 1.414 . S
C2501 C2502 1.374 . S
C2502 H2476 0.950 . S
C2502 C2498 1.385 . S
C2502 C2501 1.374 . S
C2503 C2500 1.499 . S
C2503 C2504 1.373 . S
C2503 C2505 1.389 . S
C2504 H2477 0.950 . S
C2504 C2490 1.377 1_554 S
C2504 C2503 1.373 . S
C2505 C2489 1.377 1_554 S
C2505 C2503 1.389 . S
C2505 C2506 1.524 . S
C2506 C2505 1.524 . S
C2506 C2507 1.397 . S
C2506 C2511 1.363 . S
C2507 H2478 0.950 . S
C2507 C2506 1.397 . S
C2507 C2508 1.334 . S
C2508 H2479 0.950 . S
C2508 C2507 1.334 . S
C2508 C2509 1.287 . S
C2509 C2508 1.287 . S
C2509 C2510 1.524 . S
C2509 H2512 0.999 . S
C2510 H2480 0.950 . S
C2510 C2509 1.524 . S
C2510 C2511 1.415 . S
C2511 H2481 0.950 . S
C2511 C2506 1.363 . S
C2511 C2510 1.415 . S
H2512 C2509 0.999 . S
H2513 C2494 0.913 . S
H2514 C2532 0.951 . S
H2515 C2534 0.951 . S
H2516 C2536 0.950 . S
H2517 C2537 0.950 . S
H2518 C2539 0.950 . S
H2519 C2542 0.950 . S
H2520 C2543 0.950 . S
H2521 C2545 0.950 . S
H2522 C2546 0.950 . S
H2523 C2547 0.951 . S
H2524 C2549 0.951 . S
H2525 C2551 0.950 . S
H2526 C2552 0.950 . S
H2527 C2554 0.950 . S
H2528 C2557 0.950 . S
H2529 C2558 0.950 . S
H2530 C2560 0.950 . S
H2531 C2561 0.950 . S
C2532 H2514 0.951 . S
C2532 C2533 1.366 . S
C2532 C2534 1.388 . S
C2533 C2532 1.366 . S
C2533 C2537 1.385 . S
C2534 H2515 0.951 . S
C2534 C2532 1.388 . S
C2534 C2535 1.366 . S
C2535 C2534 1.366 . S
C2535 C2536 1.414 . S
C2535 C2538 1.499 . S
C2536 H2516 0.950 . S
C2536 C2535 1.414 . S
C2536 C2537 1.374 . S
C2537 H2517 0.950 . S
C2537 C2533 1.385 . S
C2537 C2536 1.374 . S
C2538 C2535 1.499 . S
C2538 C2539 1.373 . S
C2538 C2540 1.389 . S
C2539 H2518 0.950 . S
C2539 C2538 1.373 . S
C2539 C2555 1.377 1_556 S
C2540 C2538 1.389 . S
C2540 C2541 1.524 . S
C2540 C2554 1.377 1_556 S
C2541 C2540 1.524 . S
C2541 C2542 1.397 . S
C2541 C2546 1.363 . S
C2542 H2519 0.950 . S
C2542 C2541 1.397 . S
C2542 C2543 1.334 . S
C2543 H2520 0.950 . S
C2543 C2542 1.334 . S
C2543 C2544 1.287 . S
C2544 C2543 1.287 . S
C2544 C2545 1.524 . S
C2544 H2563 0.913 . S
C2545 H2521 0.950 . S
C2545 C2544 1.524 . S
C2545 C2546 1.415 . S
C2546 H2522 0.950 . S
C2546 C2541 1.363 . S
C2546 C2545 1.415 . S
C2547 H2523 0.951 . S
C2547 C2548 1.366 . S
C2547 C2549 1.388 . S
C2548 C2547 1.366 . S
C2548 C2552 1.385 . S
C2549 H2524 0.951 . S
C2549 C2547 1.388 . S
C2549 C2550 1.366 . S
C2550 C2549 1.366 . S
C2550 C2551 1.414 . S
C2550 C2553 1.499 . S
C2551 H2525 0.950 . S
C2551 C2550 1.414 . S
C2551 C2552 1.374 . S
C2552 H2526 0.950 . S
C2552 C2548 1.385 . S
C2552 C2551 1.374 . S
C2553 C2550 1.499 . S
C2553 C2554 1.373 . S
C2553 C2555 1.389 . S
C2554 H2527 0.950 . S
C2554 C2540 1.377 1_554 S
C2554 C2553 1.373 . S
C2555 C2539 1.377 1_554 S
C2555 C2553 1.389 . S
C2555 C2556 1.524 . S
C2556 C2555 1.524 . S
C2556 C2557 1.397 . S
C2556 C2561 1.363 . S
C2557 H2528 0.950 . S
C2557 C2556 1.397 . S
C2557 C2558 1.334 . S
C2558 H2529 0.950 . S
C2558 C2557 1.334 . S
C2558 C2559 1.287 . S
C2559 C2558 1.287 . S
C2559 C2560 1.524 . S
C2559 H2562 0.999 . S
C2560 H2530 0.950 . S
C2560 C2559 1.524 . S
C2560 C2561 1.415 . S
C2561 H2531 0.950 . S
C2561 C2556 1.363 . S
C2561 C2560 1.415 . S
H2562 C2559 0.999 . S
H2563 C2544 0.913 . S
H2564 C2582 0.951 . S
H2565 C2584 0.951 . S
H2566 C2586 0.950 . S
H2567 C2587 0.950 . S
H2568 C2589 0.950 . S
H2569 C2592 0.950 . S
H2570 C2593 0.950 . S
H2571 C2595 0.950 . S
H2572 C2596 0.950 . S
H2573 C2597 0.951 . S
H2574 C2599 0.951 . S
H2575 C2601 0.950 . S
H2576 C2602 0.950 . S
H2577 C2604 0.950 . S
H2578 C2607 0.950 . S
H2579 C2608 0.950 . S
H2580 C2610 0.950 . S
H2581 C2611 0.950 . S
C2582 H2564 0.951 . S
C2582 C2583 1.366 . S
C2582 C2584 1.388 . S
C2583 C2582 1.366 . S
C2583 C2587 1.385 . S
C2584 H2565 0.951 . S
C2584 C2582 1.388 . S
C2584 C2585 1.366 . S
C2585 C2584 1.366 . S
C2585 C2586 1.414 . S
C2585 C2588 1.499 . S
C2586 H2566 0.950 . S
C2586 C2585 1.414 . S
C2586 C2587 1.374 . S
C2587 H2567 0.950 . S
C2587 C2583 1.385 . S
C2587 C2586 1.374 . S
C2588 C2585 1.499 . S
C2588 C2589 1.373 . S
C2588 C2590 1.389 . S
C2589 H2568 0.950 . S
C2589 C2588 1.373 . S
C2589 C2605 1.377 1_556 S
C2590 C2588 1.389 . S
C2590 C2591 1.524 . S
C2590 C2604 1.377 1_556 S
C2591 C2590 1.524 . S
C2591 C2592 1.397 . S
C2591 C2596 1.363 . S
C2592 H2569 0.950 . S
C2592 C2591 1.397 . S
C2592 C2593 1.334 . S
C2593 H2570 0.950 . S
C2593 C2592 1.334 . S
C2593 C2594 1.287 . S
C2594 C2593 1.287 . S
C2594 C2595 1.524 . S
C2594 H2613 0.913 . S
C2595 H2571 0.950 . S
C2595 C2594 1.524 . S
C2595 C2596 1.415 . S
C2596 H2572 0.950 . S
C2596 C2591 1.363 . S
C2596 C2595 1.415 . S
C2597 H2573 0.951 . S
C2597 C2598 1.366 . S
C2597 C2599 1.388 . S
C2598 C2597 1.366 . S
C2598 C2602 1.385 . S
C2599 H2574 0.951 . S
C2599 C2597 1.388 . S
C2599 C2600 1.366 . S
C2600 C2599 1.366 . S
C2600 C2601 1.414 . S
C2600 C2603 1.499 . S
C2601 H2575 0.950 . S
C2601 C2600 1.414 . S
C2601 C2602 1.374 . S
C2602 H2576 0.950 . S
C2602 C2598 1.385 . S
C2602 C2601 1.374 . S
C2603 C2600 1.499 . S
C2603 C2604 1.373 . S
C2603 C2605 1.389 . S
C2604 H2577 0.950 . S
C2604 C2590 1.377 1_554 S
C2604 C2603 1.373 . S
C2605 C2589 1.377 1_554 S
C2605 C2603 1.389 . S
C2605 C2606 1.524 . S
C2606 C2605 1.524 . S
C2606 C2607 1.397 . S
C2606 C2611 1.363 . S
C2607 H2578 0.950 . S
C2607 C2606 1.397 . S
C2607 C2608 1.334 . S
C2608 H2579 0.950 . S
C2608 C2607 1.334 . S
C2608 C2609 1.287 . S
C2609 C2608 1.287 . S
C2609 C2610 1.524 . S
C2609 H2612 0.999 . S
C2610 H2580 0.950 . S
C2610 C2609 1.524 . S
C2610 C2611 1.415 . S
C2611 H2581 0.950 . S
C2611 C2606 1.363 . S
C2611 C2610 1.415 . S
H2612 C2609 0.999 . S
H2613 C2594 0.913 . S
H2614 C2632 0.951 . S
H2615 C2634 0.951 . S
H2616 C2636 0.950 . S
H2617 C2637 0.950 . S
H2618 C2639 0.950 . S
H2619 C2642 0.950 . S
H2620 C2643 0.950 . S
H2621 C2645 0.950 . S
H2622 C2646 0.950 . S
H2623 C2647 0.951 . S
H2624 C2649 0.951 . S
H2625 C2651 0.950 . S
H2626 C2652 0.950 . S
H2627 C2654 0.950 . S
H2628 C2657 0.950 . S
H2629 C2658 0.950 . S
H2630 C2660 0.950 . S
H2631 C2661 0.950 . S
C2632 H2614 0.951 . S
C2632 C2633 1.366 . S
C2632 C2634 1.388 . S
C2633 C2632 1.366 . S
C2633 C2637 1.385 . S
C2634 H2615 0.951 . S
C2634 C2632 1.388 . S
C2634 C2635 1.366 . S
C2635 C2634 1.366 . S
C2635 C2636 1.414 . S
C2635 C2638 1.499 . S
C2636 H2616 0.950 . S
C2636 C2635 1.414 . S
C2636 C2637 1.374 . S
C2637 H2617 0.950 . S
C2637 C2633 1.385 . S
C2637 C2636 1.374 . S
C2638 C2635 1.499 . S
C2638 C2639 1.373 . S
C2638 C2640 1.389 . S
C2639 H2618 0.950 . S
C2639 C2638 1.373 . S
C2639 C2655 1.377 1_556 S
C2640 C2638 1.389 . S
C2640 C2641 1.524 . S
C2640 C2654 1.377 1_556 S
C2641 C2640 1.524 . S
C2641 C2642 1.397 . S
C2641 C2646 1.363 . S
C2642 H2619 0.950 . S
C2642 C2641 1.397 . S
C2642 C2643 1.334 . S
C2643 H2620 0.950 . S
C2643 C2642 1.334 . S
C2643 C2644 1.287 . S
C2644 C2643 1.287 . S
C2644 C2645 1.524 . S
C2644 H2663 0.913 . S
C2645 H2621 0.950 . S
C2645 C2644 1.524 . S
C2645 C2646 1.415 . S
C2646 H2622 0.950 . S
C2646 C2641 1.363 . S
C2646 C2645 1.415 . S
C2647 H2623 0.951 . S
C2647 C2648 1.366 . S
C2647 C2649 1.388 . S
C2648 C2647 1.366 . S
C2648 C2652 1.385 . S
C2649 H2624 0.951 . S
C2649 C2647 1.388 . S
C2649 C2650 1.366 . S
C2650 C2649 1.366 . S
C2650 C2651 1.414 . S
C2650 C2653 1.499 . S
C2651 H2625 0.950 . S
C2651 C2650 1.414 . S
C2651 C2652 1.374 . S
C2652 H2626 0.950 . S
C2652 C2648 1.385 . S
C2652 C2651 1.374 . S
C2653 C2650 1.499 . S
C2653 C2654 1.373 . S
C2653 C2655 1.389 . S
C2654 H2627 0.950 . S
C2654 C2640 1.377 1_554 S
C2654 C2653 1.373 . S
C2655 C2639 1.377 1_554 S
C2655 C2653 1.389 . S
C2655 C2656 1.524 . S
C2656 C2655 1.524 . S
C2656 C2657 1.397 . S
C2656 C2661 1.363 . S
C2657 H2628 0.950 . S
C2657 C2656 1.397 . S
C2657 C2658 1.334 . S
C2658 H2629 0.950 . S
C2658 C2657 1.334 . S
C2658 C2659 1.287 . S
C2659 C2658 1.287 . S
C2659 C2660 1.524 . S
C2659 H2662 0.999 . S
C2660 H2630 0.950 . S
C2660 C2659 1.524 . S
C2660 C2661 1.415 . S
C2661 H2631 0.950 . S
C2661 C2656 1.363 . S
C2661 C2660 1.415 . S
H2662 C2659 0.999 . S
H2663 C2644 0.913 . S
H2664 C2682 0.951 . S
H2665 C2684 0.951 . S
H2666 C2686 0.950 . S
H2667 C2687 0.950 . S
H2668 C2689 0.950 . S
H2669 C2692 0.950 . S
H2670 C2693 0.950 . S
H2671 C2695 0.950 . S
H2672 C2696 0.950 . S
H2673 C2697 0.951 . S
H2674 C2699 0.951 . S
H2675 C2701 0.950 . S
H2676 C2702 0.950 . S
H2677 C2704 0.950 . S
H2678 C2707 0.950 . S
H2679 C2708 0.950 . S
H2680 C2710 0.950 . S
H2681 C2711 0.950 . S
C2682 H2664 0.951 . S
C2682 C2683 1.366 . S
C2682 C2684 1.388 . S
C2683 C2682 1.366 . S
C2683 C2687 1.385 . S
C2684 H2665 0.951 . S
C2684 C2682 1.388 . S
C2684 C2685 1.366 . S
C2685 C2684 1.366 . S
C2685 C2686 1.414 . S
C2685 C2688 1.499 . S
C2686 H2666 0.950 . S
C2686 C2685 1.414 . S
C2686 C2687 1.374 . S
C2687 H2667 0.950 . S
C2687 C2683 1.385 . S
C2687 C2686 1.374 . S
C2688 C2685 1.499 . S
C2688 C2689 1.373 . S
C2688 C2690 1.389 . S
C2689 H2668 0.950 . S
C2689 C2688 1.373 . S
C2689 C2705 1.377 . S
C2690 C2688 1.389 . S
C2690 C2691 1.524 . S
C2690 C2704 1.377 . S
C2691 C2690 1.524 . S
C2691 C2692 1.397 . S
C2691 C2696 1.363 . S
C2692 H2669 0.950 . S
C2692 C2691 1.397 . S
C2692 C2693 1.334 . S
C2693 H2670 0.950 . S
C2693 C2692 1.334 . S
C2693 C2694 1.287 . S
C2694 C2693 1.287 . S
C2694 C2695 1.524 . S
C2694 H2713 0.913 . S
C2695 H2671 0.950 . S
C2695 C2694 1.524 . S
C2695 C2696 1.415 . S
C2696 H2672 0.950 . S
C2696 C2691 1.363 . S
C2696 C2695 1.415 . S
C2697 H2673 0.951 . S
C2697 C2698 1.366 . S
C2697 C2699 1.388 . S
C2698 C2697 1.366 . S
C2698 C2702 1.385 . S
C2699 H2674 0.951 . S
C2699 C2697 1.388 . S
C2699 C2700 1.366 . S
C2700 C2699 1.366 . S
C2700 C2701 1.414 . S
C2700 C2703 1.499 . S
C2701 H2675 0.950 . S
C2701 C2700 1.414 . S
C2701 C2702 1.374 . S
C2702 H2676 0.950 . S
C2702 C2698 1.385 . S
C2702 C2701 1.374 . S
C2703 C2700 1.499 . S
C2703 C2704 1.373 . S
C2703 C2705 1.389 . S
C2704 H2677 0.950 . S
C2704 C2690 1.377 . S
C2704 C2703 1.373 . S
C2705 C2689 1.377 . S
C2705 C2703 1.389 . S
C2705 C2706 1.524 . S
C2706 C2705 1.524 . S
C2706 C2707 1.397 . S
C2706 C2711 1.363 . S
C2707 H2678 0.950 . S
C2707 C2706 1.397 . S
C2707 C2708 1.334 . S
C2708 H2679 0.950 . S
C2708 C2707 1.334 . S
C2708 C2709 1.287 . S
C2709 C2708 1.287 . S
C2709 C2710 1.524 . S
C2709 H2712 0.999 . S
C2710 H2680 0.950 . S
C2710 C2709 1.524 . S
C2710 C2711 1.415 . S
C2711 H2681 0.950 . S
C2711 C2706 1.363 . S
C2711 C2710 1.415 . S
H2712 C2709 0.999 . S
H2713 C2694 0.913 . S
H2714 C2732 0.951 . S
H2715 C2734 0.951 . S
H2716 C2736 0.950 . S
H2717 C2737 0.950 . S
H2718 C2739 0.950 . S
H2719 C2742 0.950 . S
H2720 C2743 0.950 . S
H2721 C2745 0.950 . S
H2722 C2746 0.950 . S
H2723 C2747 0.951 . S
H2724 C2749 0.951 . S
H2725 C2751 0.950 . S
H2726 C2752 0.950 . S
H2727 C2754 0.950 . S
H2728 C2757 0.950 . S
H2729 C2758 0.950 . S
H2730 C2760 0.950 . S
H2731 C2761 0.950 . S
C2732 H2714 0.951 . S
C2732 C2733 1.366 . S
C2732 C2734 1.388 . S
C2733 C2732 1.366 . S
C2733 C2737 1.385 . S
C2734 H2715 0.951 . S
C2734 C2732 1.388 . S
C2734 C2735 1.366 . S
C2735 C2734 1.366 . S
C2735 C2736 1.414 . S
C2735 C2738 1.499 . S
C2736 H2716 0.950 . S
C2736 C2735 1.414 . S
C2736 C2737 1.374 . S
C2737 H2717 0.950 . S
C2737 C2733 1.385 . S
C2737 C2736 1.374 . S
C2738 C2735 1.499 . S
C2738 C2739 1.373 . S
C2738 C2740 1.389 . S
C2739 H2718 0.950 . S
C2739 C2738 1.373 . S
C2739 C2755 1.377 . S
C2740 C2738 1.389 . S
C2740 C2741 1.524 . S
C2740 C2754 1.377 . S
C2741 C2740 1.524 . S
C2741 C2742 1.397 . S
C2741 C2746 1.363 . S
C2742 H2719 0.950 . S
C2742 C2741 1.397 . S
C2742 C2743 1.334 . S
C2743 H2720 0.950 . S
C2743 C2742 1.334 . S
C2743 C2744 1.287 . S
C2744 C2743 1.287 . S
C2744 C2745 1.524 . S
C2744 H2763 0.913 . S
C2745 H2721 0.950 . S
C2745 C2744 1.524 . S
C2745 C2746 1.415 . S
C2746 H2722 0.950 . S
C2746 C2741 1.363 . S
C2746 C2745 1.415 . S
C2747 H2723 0.951 . S
C2747 C2748 1.366 . S
C2747 C2749 1.388 . S
C2748 C2747 1.366 . S
C2748 C2752 1.385 . S
C2749 H2724 0.951 . S
C2749 C2747 1.388 . S
C2749 C2750 1.366 . S
C2750 C2749 1.366 . S
C2750 C2751 1.414 . S
C2750 C2753 1.499 . S
C2751 H2725 0.950 . S
C2751 C2750 1.414 . S
C2751 C2752 1.374 . S
C2752 H2726 0.950 . S
C2752 C2748 1.385 . S
C2752 C2751 1.374 . S
C2753 C2750 1.499 . S
C2753 C2754 1.373 . S
C2753 C2755 1.389 . S
C2754 H2727 0.950 . S
C2754 C2740 1.377 . S
C2754 C2753 1.373 . S
C2755 C2739 1.377 . S
C2755 C2753 1.389 . S
C2755 C2756 1.524 . S
C2756 C2755 1.524 . S
C2756 C2757 1.397 . S
C2756 C2761 1.363 . S
C2757 H2728 0.950 . S
C2757 C2756 1.397 . S
C2757 C2758 1.334 . S
C2758 H2729 0.950 . S
C2758 C2757 1.334 . S
C2758 C2759 1.287 . S
C2759 C2758 1.287 . S
C2759 C2760 1.524 . S
C2759 H2762 0.999 . S
C2760 H2730 0.950 . S
C2760 C2759 1.524 . S
C2760 C2761 1.415 . S
C2761 H2731 0.950 . S
C2761 C2756 1.363 . S
C2761 C2760 1.415 . S
H2762 C2759 0.999 . S
H2763 C2744 0.913 . S
H2764 C2782 0.951 . S
H2765 C2784 0.951 . S
H2766 C2786 0.950 . S
H2767 C2787 0.950 . S
H2768 C2789 0.950 . S
H2769 C2792 0.950 . S
H2770 C2793 0.950 . S
H2771 C2795 0.950 . S
H2772 C2796 0.950 . S
H2773 C2797 0.951 . S
H2774 C2799 0.951 . S
H2775 C2801 0.950 . S
H2776 C2802 0.950 . S
H2777 C2804 0.950 . S
H2778 C2807 0.950 . S
H2779 C2808 0.950 . S
H2780 C2810 0.950 . S
H2781 C2811 0.950 . S
C2782 H2764 0.951 . S
C2782 C2783 1.366 . S
C2782 C2784 1.388 . S
C2783 C2782 1.366 . S
C2783 C2787 1.385 . S
C2784 H2765 0.951 . S
C2784 C2782 1.388 . S
C2784 C2785 1.366 . S
C2785 C2784 1.366 . S
C2785 C2786 1.414 . S
C2785 C2788 1.499 . S
C2786 H2766 0.950 . S
C2786 C2785 1.414 . S
C2786 C2787 1.374 . S
C2787 H2767 0.950 . S
C2787 C2783 1.385 . S
C2787 C2786 1.374 . S
C2788 C2785 1.499 . S
C2788 C2789 1.373 . S
C2788 C2790 1.389 . S
C2789 H2768 0.950 . S
C2789 C2788 1.373 . S
C2789 C2805 1.377 . S
C2790 C2788 1.389 . S
C2790 C2791 1.524 . S
C2790 C2804 1.377 . S
C2791 C2790 1.524 . S
C2791 C2792 1.397 . S
C2791 C2796 1.363 . S
C2792 H2769 0.950 . S
C2792 C2791 1.397 . S
C2792 C2793 1.334 . S
C2793 H2770 0.950 . S
C2793 C2792 1.334 . S
C2793 C2794 1.287 . S
C2794 C2793 1.287 . S
C2794 C2795 1.524 . S
C2794 H2813 0.913 . S
C2795 H2771 0.950 . S
C2795 C2794 1.524 . S
C2795 C2796 1.415 . S
C2796 H2772 0.950 . S
C2796 C2791 1.363 . S
C2796 C2795 1.415 . S
C2797 H2773 0.951 . S
C2797 C2798 1.366 . S
C2797 C2799 1.388 . S
C2798 C2797 1.366 . S
C2798 C2802 1.385 . S
C2799 H2774 0.951 . S
C2799 C2797 1.388 . S
C2799 C2800 1.366 . S
C2800 C2799 1.366 . S
C2800 C2801 1.414 . S
C2800 C2803 1.499 . S
C2801 H2775 0.950 . S
C2801 C2800 1.414 . S
C2801 C2802 1.374 . S
C2802 H2776 0.950 . S
C2802 C2798 1.385 . S
C2802 C2801 1.374 . S
C2803 C2800 1.499 . S
C2803 C2804 1.373 . S
C2803 C2805 1.389 . S
C2804 H2777 0.950 . S
C2804 C2790 1.377 . S
C2804 C2803 1.373 . S
C2805 C2789 1.377 . S
C2805 C2803 1.389 . S
C2805 C2806 1.524 . S
C2806 C2805 1.524 . S
C2806 C2807 1.397 . S
C2806 C2811 1.363 . S
C2807 H2778 0.950 . S
C2807 C2806 1.397 . S
C2807 C2808 1.334 . S
C2808 H2779 0.950 . S
C2808 C2807 1.334 . S
C2808 C2809 1.287 . S
C2809 C2808 1.287 . S
C2809 C2810 1.524 . S
C2809 H2812 0.999 . S
C2810 H2780 0.950 . S
C2810 C2809 1.524 . S
C2810 C2811 1.415 . S
C2811 H2781 0.950 . S
C2811 C2806 1.363 . S
C2811 C2810 1.415 . S
H2812 C2809 0.999 . S
H2813 C2794 0.913 . S
H2814 C2832 0.951 . S
H2815 C2834 0.951 . S
H2816 C2836 0.950 . S
H2817 C2837 0.950 . S
H2818 C2839 0.950 . S
H2819 C2842 0.950 . S
H2820 C2843 0.950 . S
H2821 C2845 0.950 . S
H2822 C2846 0.950 . S
H2823 C2847 0.951 . S
H2824 C2849 0.951 . S
H2825 C2851 0.950 . S
H2826 C2852 0.950 . S
H2827 C2854 0.950 . S
H2828 C2857 0.950 . S
H2829 C2858 0.950 . S
H2830 C2860 0.950 . S
H2831 C2861 0.950 . S
C2832 H2814 0.951 . S
C2832 C2833 1.366 . S
C2832 C2834 1.388 . S
C2833 C2832 1.366 . S
C2833 C2837 1.385 . S
C2834 H2815 0.951 . S
C2834 C2832 1.388 . S
C2834 C2835 1.366 . S
C2835 C2834 1.366 . S
C2835 C2836 1.414 . S
C2835 C2838 1.499 . S
C2836 H2816 0.950 . S
C2836 C2835 1.414 . S
C2836 C2837 1.374 . S
C2837 H2817 0.950 . S
C2837 C2833 1.385 . S
C2837 C2836 1.374 . S
C2838 C2835 1.499 . S
C2838 C2839 1.373 . S
C2838 C2840 1.389 . S
C2839 H2818 0.950 . S
C2839 C2838 1.373 . S
C2839 C2855 1.377 . S
C2840 C2838 1.389 . S
C2840 C2841 1.524 . S
C2840 C2854 1.377 . S
C2841 C2840 1.524 . S
C2841 C2842 1.397 . S
C2841 C2846 1.363 . S
C2842 H2819 0.950 . S
C2842 C2841 1.397 . S
C2842 C2843 1.334 . S
C2843 H2820 0.950 . S
C2843 C2842 1.334 . S
C2843 C2844 1.287 . S
C2844 C2843 1.287 . S
C2844 C2845 1.524 . S
C2844 H2863 0.913 . S
C2845 H2821 0.950 . S
C2845 C2844 1.524 . S
C2845 C2846 1.415 . S
C2846 H2822 0.950 . S
C2846 C2841 1.363 . S
C2846 C2845 1.415 . S
C2847 H2823 0.951 . S
C2847 C2848 1.366 . S
C2847 C2849 1.388 . S
C2848 C2847 1.366 . S
C2848 C2852 1.385 . S
C2849 H2824 0.951 . S
C2849 C2847 1.388 . S
C2849 C2850 1.366 . S
C2850 C2849 1.366 . S
C2850 C2851 1.414 . S
C2850 C2853 1.499 . S
C2851 H2825 0.950 . S
C2851 C2850 1.414 . S
C2851 C2852 1.374 . S
C2852 H2826 0.950 . S
C2852 C2848 1.385 . S
C2852 C2851 1.374 . S
C2853 C2850 1.499 . S
C2853 C2854 1.373 . S
C2853 C2855 1.389 . S
C2854 H2827 0.950 . S
C2854 C2840 1.377 . S
C2854 C2853 1.373 . S
C2855 C2839 1.377 . S
C2855 C2853 1.389 . S
C2855 C2856 1.524 . S
C2856 C2855 1.524 . S
C2856 C2857 1.397 . S
C2856 C2861 1.363 . S
C2857 H2828 0.950 . S
C2857 C2856 1.397 . S
C2857 C2858 1.334 . S
C2858 H2829 0.950 . S
C2858 C2857 1.334 . S
C2858 C2859 1.287 . S
C2859 C2858 1.287 . S
C2859 C2860 1.524 . S
C2859 H2862 0.999 . S
C2860 H2830 0.950 . S
C2860 C2859 1.524 . S
C2860 C2861 1.415 . S
C2861 H2831 0.950 . S
C2861 C2856 1.363 . S
C2861 C2860 1.415 . S
H2862 C2859 0.999 . S
H2863 C2844 0.913 . S
H2864 C2882 0.951 . S
H2865 C2884 0.951 . S
H2866 C2886 0.950 . S
H2867 C2887 0.950 . S
H2868 C2889 0.950 . S
H2869 C2892 0.950 . S
H2870 C2893 0.950 . S
H2871 C2895 0.950 . S
H2872 C2896 0.950 . S
H2873 C2897 0.951 . S
H2874 C2899 0.951 . S
H2875 C2901 0.950 . S
H2876 C2902 0.950 . S
H2877 C2904 0.950 . S
H2878 C2907 0.950 . S
H2879 C2908 0.950 . S
H2880 C2910 0.950 . S
H2881 C2911 0.950 . S
C2882 H2864 0.951 . S
C2882 C2883 1.366 . S
C2882 C2884 1.388 . S
C2883 C2882 1.366 . S
C2883 C2887 1.385 . S
C2884 H2865 0.951 . S
C2884 C2882 1.388 . S
C2884 C2885 1.366 . S
C2885 C2884 1.366 . S
C2885 C2886 1.414 . S
C2885 C2888 1.499 . S
C2886 H2866 0.950 . S
C2886 C2885 1.414 . S
C2886 C2887 1.374 . S
C2887 H2867 0.950 . S
C2887 C2883 1.385 . S
C2887 C2886 1.374 . S
C2888 C2885 1.499 . S
C2888 C2889 1.373 . S
C2888 C2890 1.389 . S
C2889 H2868 0.950 . S
C2889 C2888 1.373 . S
C2889 C2905 1.377 . S
C2890 C2888 1.389 . S
C2890 C2891 1.524 . S
C2890 C2904 1.377 . S
C2891 C2890 1.524 . S
C2891 C2892 1.397 . S
C2891 C2896 1.363 . S
C2892 H2869 0.950 . S
C2892 C2891 1.397 . S
C2892 C2893 1.334 . S
C2893 H2870 0.950 . S
C2893 C2892 1.334 . S
C2893 C2894 1.287 . S
C2894 C2893 1.287 . S
C2894 C2895 1.524 . S
C2894 H2913 0.913 . S
C2895 H2871 0.950 . S
C2895 C2894 1.524 . S
C2895 C2896 1.415 . S
C2896 H2872 0.950 . S
C2896 C2891 1.363 . S
C2896 C2895 1.415 . S
C2897 H2873 0.951 . S
C2897 C2898 1.366 . S
C2897 C2899 1.388 . S
C2898 C2897 1.366 . S
C2898 C2902 1.385 . S
C2899 H2874 0.951 . S
C2899 C2897 1.388 . S
C2899 C2900 1.366 . S
C2900 C2899 1.366 . S
C2900 C2901 1.414 . S
C2900 C2903 1.499 . S
C2901 H2875 0.950 . S
C2901 C2900 1.414 . S
C2901 C2902 1.374 . S
C2902 H2876 0.950 . S
C2902 C2898 1.385 . S
C2902 C2901 1.374 . S
C2903 C2900 1.499 . S
C2903 C2904 1.373 . S
C2903 C2905 1.389 . S
C2904 H2877 0.950 . S
C2904 C2890 1.377 . S
C2904 C2903 1.373 . S
C2905 C2889 1.377 . S
C2905 C2903 1.389 . S
C2905 C2906 1.524 . S
C2906 C2905 1.524 . S
C2906 C2907 1.397 . S
C2906 C2911 1.363 . S
C2907 H2878 0.950 . S
C2907 C2906 1.397 . S
C2907 C2908 1.334 . S
C2908 H2879 0.950 . S
C2908 C2907 1.334 . S
C2908 C2909 1.287 . S
C2909 C2908 1.287 . S
C2909 C2910 1.524 . S
C2909 H2912 0.999 . S
C2910 H2880 0.950 . S
C2910 C2909 1.524 . S
C2910 C2911 1.415 . S
C2911 H2881 0.950 . S
C2911 C2906 1.363 . S
C2911 C2910 1.415 . S
H2912 C2909 0.999 . S
H2913 C2894 0.913 . S
H2914 C2932 0.951 . S
H2915 C2934 0.951 . S
H2916 C2936 0.950 . S
H2917 C2937 0.950 . S
H2918 C2939 0.950 . S
H2919 C2942 0.950 . S
H2920 C2943 0.950 . S
H2921 C2945 0.950 . S
H2922 C2946 0.950 . S
H2923 C2947 0.951 . S
H2924 C2949 0.951 . S
H2925 C2951 0.950 . S
H2926 C2952 0.950 . S
H2927 C2954 0.950 . S
H2928 C2957 0.950 . S
H2929 C2958 0.950 . S
H2930 C2960 0.950 . S
H2931 C2961 0.950 . S
C2932 H2914 0.951 . S
C2932 C2933 1.366 . S
C2932 C2934 1.388 . S
C2933 C2932 1.366 . S
C2933 C2937 1.385 . S
C2934 H2915 0.951 . S
C2934 C2932 1.388 . S
C2934 C2935 1.366 . S
C2935 C2934 1.366 . S
C2935 C2936 1.414 . S
C2935 C2938 1.499 . S
C2936 H2916 0.950 . S
C2936 C2935 1.414 . S
C2936 C2937 1.374 . S
C2937 H2917 0.950 . S
C2937 C2933 1.385 . S
C2937 C2936 1.374 . S
C2938 C2935 1.499 . S
C2938 C2939 1.373 . S
C2938 C2940 1.389 . S
C2939 H2918 0.950 . S
C2939 C2938 1.373 . S
C2939 C2955 1.377 . S
C2940 C2938 1.389 . S
C2940 C2941 1.524 . S
C2940 C2954 1.377 . S
C2941 C2940 1.524 . S
C2941 C2942 1.397 . S
C2941 C2946 1.363 . S
C2942 H2919 0.950 . S
C2942 C2941 1.397 . S
C2942 C2943 1.334 . S
C2943 H2920 0.950 . S
C2943 C2942 1.334 . S
C2943 C2944 1.287 . S
C2944 C2943 1.287 . S
C2944 C2945 1.524 . S
C2944 H2963 0.913 . S
C2945 H2921 0.950 . S
C2945 C2944 1.524 . S
C2945 C2946 1.415 . S
C2946 H2922 0.950 . S
C2946 C2941 1.363 . S
C2946 C2945 1.415 . S
C2947 H2923 0.951 . S
C2947 C2948 1.366 . S
C2947 C2949 1.388 . S
C2948 C2947 1.366 . S
C2948 C2952 1.385 . S
C2949 H2924 0.951 . S
C2949 C2947 1.388 . S
C2949 C2950 1.366 . S
C2950 C2949 1.366 . S
C2950 C2951 1.414 . S
C2950 C2953 1.499 . S
C2951 H2925 0.950 . S
C2951 C2950 1.414 . S
C2951 C2952 1.374 . S
C2952 H2926 0.950 . S
C2952 C2948 1.385 . S
C2952 C2951 1.374 . S
C2953 C2950 1.499 . S
C2953 C2954 1.373 . S
C2953 C2955 1.389 . S
C2954 H2927 0.950 . S
C2954 C2940 1.377 . S
C2954 C2953 1.373 . S
C2955 C2939 1.377 . S
C2955 C2953 1.389 . S
C2955 C2956 1.524 . S
C2956 C2955 1.524 . S
C2956 C2957 1.397 . S
C2956 C2961 1.363 . S
C2957 H2928 0.950 . S
C2957 C2956 1.397 . S
C2957 C2958 1.334 . S
C2958 H2929 0.950 . S
C2958 C2957 1.334 . S
C2958 C2959 1.287 . S
C2959 C2958 1.287 . S
C2959 C2960 1.524 . S
C2959 H2962 0.999 . S
C2960 H2930 0.950 . S
C2960 C2959 1.524 . S
C2960 C2961 1.415 . S
C2961 H2931 0.950 . S
C2961 C2956 1.363 . S
C2961 C2960 1.415 . S
H2962 C2959 0.999 . S
H2963 C2944 0.913 . S
H2964 C2982 0.951 . S
H2965 C2984 0.951 . S
H2966 C2986 0.950 . S
H2967 C2987 0.950 . S
H2968 C2989 0.950 . S
H2969 C2992 0.950 . S
H2970 C2993 0.950 . S
H2971 C2995 0.950 . S
H2972 C2996 0.950 . S
H2973 C2997 0.951 . S
H2974 C2999 0.951 . S
H2975 C3001 0.950 . S
H2976 C3002 0.950 . S
H2977 C3004 0.950 . S
H2978 C3007 0.950 . S
H2979 C3008 0.950 . S
H2980 C3010 0.950 . S
H2981 C3011 0.950 . S
C2982 H2964 0.951 . S
C2982 C2983 1.366 . S
C2982 C2984 1.388 . S
C2983 C2982 1.366 . S
C2983 C2987 1.385 . S
C2984 H2965 0.951 . S
C2984 C2982 1.388 . S
C2984 C2985 1.366 . S
C2985 C2984 1.366 . S
C2985 C2986 1.414 . S
C2985 C2988 1.499 . S
C2986 H2966 0.950 . S
C2986 C2985 1.414 . S
C2986 C2987 1.374 . S
C2987 H2967 0.950 . S
C2987 C2983 1.385 . S
C2987 C2986 1.374 . S
C2988 C2985 1.499 . S
C2988 C2989 1.373 . S
C2988 C2990 1.389 . S
C2989 H2968 0.950 . S
C2989 C2988 1.373 . S
C2989 C3005 1.377 . S
C2990 C2988 1.389 . S
C2990 C2991 1.524 . S
C2990 C3004 1.377 . S
C2991 C2990 1.524 . S
C2991 C2992 1.397 . S
C2991 C2996 1.363 . S
C2992 H2969 0.950 . S
C2992 C2991 1.397 . S
C2992 C2993 1.334 . S
C2993 H2970 0.950 . S
C2993 C2992 1.334 . S
C2993 C2994 1.287 . S
C2994 C2993 1.287 . S
C2994 C2995 1.524 . S
C2994 H3013 0.913 . S
C2995 H2971 0.950 . S
C2995 C2994 1.524 . S
C2995 C2996 1.415 . S
C2996 H2972 0.950 . S
C2996 C2991 1.363 . S
C2996 C2995 1.415 . S
C2997 H2973 0.951 . S
C2997 C2998 1.366 . S
C2997 C2999 1.388 . S
C2998 C2997 1.366 . S
C2998 C3002 1.385 . S
C2999 H2974 0.951 . S
C2999 C2997 1.388 . S
C2999 C3000 1.366 . S
C3000 C2999 1.366 . S
C3000 C3001 1.414 . S
C3000 C3003 1.499 . S
C3001 H2975 0.950 . S
C3001 C3000 1.414 . S
C3001 C3002 1.374 . S
C3002 H2976 0.950 . S
C3002 C2998 1.385 . S
C3002 C3001 1.374 . S
C3003 C3000 1.499 . S
C3003 C3004 1.373 . S
C3003 C3005 1.389 . S
C3004 H2977 0.950 . S
C3004 C2990 1.377 . S
C3004 C3003 1.373 . S
C3005 C2989 1.377 . S
C3005 C3003 1.389 . S
C3005 C3006 1.524 . S
C3006 C3005 1.524 . S
C3006 C3007 1.397 . S
C3006 C3011 1.363 . S
C3007 H2978 0.950 . S
C3007 C3006 1.397 . S
C3007 C3008 1.334 . S
C3008 H2979 0.950 . S
C3008 C3007 1.334 . S
C3008 C3009 1.287 . S
C3009 C3008 1.287 . S
C3009 C3010 1.524 . S
C3009 H3012 0.999 . S
C3010 H2980 0.950 . S
C3010 C3009 1.524 . S
C3010 C3011 1.415 . S
C3011 H2981 0.950 . S
C3011 C3006 1.363 . S
C3011 C3010 1.415 . S
H3012 C3009 0.999 . S
H3013 C2994 0.913 . S
H3014 C3032 0.951 . S
H3015 C3034 0.951 . S
H3016 C3036 0.950 . S
H3017 C3037 0.950 . S
H3018 C3039 0.950 . S
H3019 C3042 0.950 . S
H3020 C3043 0.950 . S
H3021 C3045 0.950 . S
H3022 C3046 0.950 . S
H3023 C3047 0.951 . S
H3024 C3049 0.951 . S
H3025 C3051 0.950 . S
H3026 C3052 0.950 . S
H3027 C3054 0.950 . S
H3028 C3057 0.950 . S
H3029 C3058 0.950 . S
H3030 C3060 0.950 . S
H3031 C3061 0.950 . S
C3032 H3014 0.951 . S
C3032 C3033 1.366 . S
C3032 C3034 1.388 . S
C3033 C3032 1.366 . S
C3033 C3037 1.385 . S
C3034 H3015 0.951 . S
C3034 C3032 1.388 . S
C3034 C3035 1.366 . S
C3035 C3034 1.366 . S
C3035 C3036 1.414 . S
C3035 C3038 1.499 . S
C3036 H3016 0.950 . S
C3036 C3035 1.414 . S
C3036 C3037 1.374 . S
C3037 H3017 0.950 . S
C3037 C3033 1.385 . S
C3037 C3036 1.374 . S
C3038 C3035 1.499 . S
C3038 C3039 1.373 . S
C3038 C3040 1.389 . S
C3039 H3018 0.950 . S
C3039 C3038 1.373 . S
C3039 C3055 1.377 . S
C3040 C3038 1.389 . S
C3040 C3041 1.524 . S
C3040 C3054 1.377 . S
C3041 C3040 1.524 . S
C3041 C3042 1.397 . S
C3041 C3046 1.363 . S
C3042 H3019 0.950 . S
C3042 C3041 1.397 . S
C3042 C3043 1.334 . S
C3043 H3020 0.950 . S
C3043 C3042 1.334 . S
C3043 C3044 1.287 . S
C3044 C3043 1.287 . S
C3044 C3045 1.524 . S
C3044 H3063 0.913 . S
C3045 H3021 0.950 . S
C3045 C3044 1.524 . S
C3045 C3046 1.415 . S
C3046 H3022 0.950 . S
C3046 C3041 1.363 . S
C3046 C3045 1.415 . S
C3047 H3023 0.951 . S
C3047 C3048 1.366 . S
C3047 C3049 1.388 . S
C3048 C3047 1.366 . S
C3048 C3052 1.385 . S
C3049 H3024 0.951 . S
C3049 C3047 1.388 . S
C3049 C3050 1.366 . S
C3050 C3049 1.366 . S
C3050 C3051 1.414 . S
C3050 C3053 1.499 . S
C3051 H3025 0.950 . S
C3051 C3050 1.414 . S
C3051 C3052 1.374 . S
C3052 H3026 0.950 . S
C3052 C3048 1.385 . S
C3052 C3051 1.374 . S
C3053 C3050 1.499 . S
C3053 C3054 1.373 . S
C3053 C3055 1.389 . S
C3054 H3027 0.950 . S
C3054 C3040 1.377 . S
C3054 C3053 1.373 . S
C3055 C3039 1.377 . S
C3055 C3053 1.389 . S
C3055 C3056 1.524 . S
C3056 C3055 1.524 . S
C3056 C3057 1.397 . S
C3056 C3061 1.363 . S
C3057 H3028 0.950 . S
C3057 C3056 1.397 . S
C3057 C3058 1.334 . S
C3058 H3029 0.950 . S
C3058 C3057 1.334 . S
C3058 C3059 1.287 . S
C3059 C3058 1.287 . S
C3059 C3060 1.524 . S
C3059 H3062 0.999 . S
C3060 H3030 0.950 . S
C3060 C3059 1.524 . S
C3060 C3061 1.415 . S
C3061 H3031 0.950 . S
C3061 C3056 1.363 . S
C3061 C3060 1.415 . S
H3062 C3059 0.999 . S
H3063 C3044 0.913 . S
H3064 C3082 0.951 . S
H3065 C3084 0.951 . S
H3066 C3086 0.950 . S
H3067 C3087 0.950 . S
H3068 C3089 0.950 . S
H3069 C3092 0.950 . S
H3070 C3093 0.950 . S
H3071 C3095 0.950 . S
H3072 C3096 0.950 . S
H3073 C3097 0.951 . S
H3074 C3099 0.951 . S
H3075 C3101 0.950 . S
H3076 C3102 0.950 . S
H3077 C3104 0.950 . S
H3078 C3107 0.950 . S
H3079 C3108 0.950 . S
H3080 C3110 0.950 . S
H3081 C3111 0.950 . S
C3082 H3064 0.951 . S
C3082 C3083 1.366 . S
C3082 C3084 1.388 . S
C3083 C3082 1.366 . S
C3083 C3087 1.385 . S
C3084 H3065 0.951 . S
C3084 C3082 1.388 . S
C3084 C3085 1.366 . S
C3085 C3084 1.366 . S
C3085 C3086 1.414 . S
C3085 C3088 1.499 . S
C3086 H3066 0.950 . S
C3086 C3085 1.414 . S
C3086 C3087 1.374 . S
C3087 H3067 0.950 . S
C3087 C3083 1.385 . S
C3087 C3086 1.374 . S
C3088 C3085 1.499 . S
C3088 C3089 1.373 . S
C3088 C3090 1.389 . S
C3089 H3068 0.950 . S
C3089 C3088 1.373 . S
C3089 C3105 1.377 . S
C3090 C3088 1.389 . S
C3090 C3091 1.524 . S
C3090 C3104 1.377 . S
C3091 C3090 1.524 . S
C3091 C3092 1.397 . S
C3091 C3096 1.363 . S
C3092 H3069 0.950 . S
C3092 C3091 1.397 . S
C3092 C3093 1.334 . S
C3093 H3070 0.950 . S
C3093 C3092 1.334 . S
C3093 C3094 1.287 . S
C3094 C3093 1.287 . S
C3094 C3095 1.524 . S
C3094 H3113 0.913 . S
C3095 H3071 0.950 . S
C3095 C3094 1.524 . S
C3095 C3096 1.415 . S
C3096 H3072 0.950 . S
C3096 C3091 1.363 . S
C3096 C3095 1.415 . S
C3097 H3073 0.951 . S
C3097 C3098 1.366 . S
C3097 C3099 1.388 . S
C3098 C3097 1.366 . S
C3098 C3102 1.385 . S
C3099 H3074 0.951 . S
C3099 C3097 1.388 . S
C3099 C3100 1.366 . S
C3100 C3099 1.366 . S
C3100 C3101 1.414 . S
C3100 C3103 1.499 . S
C3101 H3075 0.950 . S
C3101 C3100 1.414 . S
C3101 C3102 1.374 . S
C3102 H3076 0.950 . S
C3102 C3098 1.385 . S
C3102 C3101 1.374 . S
C3103 C3100 1.499 . S
C3103 C3104 1.373 . S
C3103 C3105 1.389 . S
C3104 H3077 0.950 . S
C3104 C3090 1.377 . S
C3104 C3103 1.373 . S
C3105 C3089 1.377 . S
C3105 C3103 1.389 . S
C3105 C3106 1.524 . S
C3106 C3105 1.524 . S
C3106 C3107 1.397 . S
C3106 C3111 1.363 . S
C3107 H3078 0.950 . S
C3107 C3106 1.397 . S
C3107 C3108 1.334 . S
C3108 H3079 0.950 . S
C3108 C3107 1.334 . S
C3108 C3109 1.287 . S
C3109 C3108 1.287 . S
C3109 C3110 1.524 . S
C3109 H3112 0.999 . S
C3110 H3080 0.950 . S
C3110 C3109 1.524 . S
C3110 C3111 1.415 . S
C3111 H3081 0.950 . S
C3111 C3106 1.363 . S
C3111 C3110 1.415 . S
H3112 C3109 0.999 . S
H3113 C3094 0.913 . S
H3114 C3132 0.951 . S
H3115 C3134 0.951 . S
H3116 C3136 0.950 . S
H3117 C3137 0.950 . S
H3118 C3139 0.950 . S
H3119 C3142 0.950 . S
H3120 C3143 0.950 . S
H3121 C3145 0.950 . S
H3122 C3146 0.950 . S
H3123 C3147 0.951 . S
H3124 C3149 0.951 . S
H3125 C3151 0.950 . S
H3126 C3152 0.950 . S
H3127 C3154 0.950 . S
H3128 C3157 0.950 . S
H3129 C3158 0.950 . S
H3130 C3160 0.950 . S
H3131 C3161 0.950 . S
C3132 H3114 0.951 . S
C3132 C3133 1.366 . S
C3132 C3134 1.388 . S
C3133 C3132 1.366 . S
C3133 C3137 1.385 . S
C3134 H3115 0.951 . S
C3134 C3132 1.388 . S
C3134 C3135 1.366 . S
C3135 C3134 1.366 . S
C3135 C3136 1.414 . S
C3135 C3138 1.499 . S
C3136 H3116 0.950 . S
C3136 C3135 1.414 . S
C3136 C3137 1.374 . S
C3137 H3117 0.950 . S
C3137 C3133 1.385 . S
C3137 C3136 1.374 . S
C3138 C3135 1.499 . S
C3138 C3139 1.373 . S
C3138 C3140 1.389 . S
C3139 H3118 0.950 . S
C3139 C3138 1.373 . S
C3139 C3155 1.377 . S
C3140 C3138 1.389 . S
C3140 C3141 1.524 . S
C3140 C3154 1.377 . S
C3141 C3140 1.524 . S
C3141 C3142 1.397 . S
C3141 C3146 1.363 . S
C3142 H3119 0.950 . S
C3142 C3141 1.397 . S
C3142 C3143 1.334 . S
C3143 H3120 0.950 . S
C3143 C3142 1.334 . S
C3143 C3144 1.287 . S
C3144 C3143 1.287 . S
C3144 C3145 1.524 . S
C3144 H3163 0.913 . S
C3145 H3121 0.950 . S
C3145 C3144 1.524 . S
C3145 C3146 1.415 . S
C3146 H3122 0.950 . S
C3146 C3141 1.363 . S
C3146 C3145 1.415 . S
C3147 H3123 0.951 . S
C3147 C3148 1.366 . S
C3147 C3149 1.388 . S
C3148 C3147 1.366 . S
C3148 C3152 1.385 . S
C3149 H3124 0.951 . S
C3149 C3147 1.388 . S
C3149 C3150 1.366 . S
C3150 C3149 1.366 . S
C3150 C3151 1.414 . S
C3150 C3153 1.499 . S
C3151 H3125 0.950 . S
C3151 C3150 1.414 . S
C3151 C3152 1.374 . S
C3152 H3126 0.950 . S
C3152 C3148 1.385 . S
C3152 C3151 1.374 . S
C3153 C3150 1.499 . S
C3153 C3154 1.373 . S
C3153 C3155 1.389 . S
C3154 H3127 0.950 . S
C3154 C3140 1.377 . S
C3154 C3153 1.373 . S
C3155 C3139 1.377 . S
C3155 C3153 1.389 . S
C3155 C3156 1.524 . S
C3156 C3155 1.524 . S
C3156 C3157 1.397 . S
C3156 C3161 1.363 . S
C3157 H3128 0.950 . S
C3157 C3156 1.397 . S
C3157 C3158 1.334 . S
C3158 H3129 0.950 . S
C3158 C3157 1.334 . S
C3158 C3159 1.287 . S
C3159 C3158 1.287 . S
C3159 C3160 1.524 . S
C3159 H3162 0.999 . S
C3160 H3130 0.950 . S
C3160 C3159 1.524 . S
C3160 C3161 1.415 . S
C3161 H3131 0.950 . S
C3161 C3156 1.363 . S
C3161 C3160 1.415 . S
H3162 C3159 0.999 . S
H3163 C3144 0.913 . S
H3164 C3182 0.951 . S
H3165 C3184 0.951 . S
H3166 C3186 0.950 . S
H3167 C3187 0.950 . S
H3168 C3189 0.950 . S
H3169 C3192 0.950 . S
H3170 C3193 0.950 . S
H3171 C3195 0.950 . S
H3172 C3196 0.950 . S
H3173 C3197 0.951 . S
H3174 C3199 0.951 . S
H3175 C3201 0.950 . S
H3176 C3202 0.950 . S
H3177 C3204 0.950 . S
H3178 C3207 0.950 . S
H3179 C3208 0.950 . S
H3180 C3210 0.950 . S
H3181 C3211 0.950 . S
C3182 H3164 0.951 . S
C3182 C3183 1.366 . S
C3182 C3184 1.388 . S
C3183 C3182 1.366 . S
C3183 C3187 1.385 . S
C3184 H3165 0.951 . S
C3184 C3182 1.388 . S
C3184 C3185 1.366 . S
C3185 C3184 1.366 . S
C3185 C3186 1.414 . S
C3185 C3188 1.499 . S
C3186 H3166 0.950 . S
C3186 C3185 1.414 . S
C3186 C3187 1.374 . S
C3187 H3167 0.950 . S
C3187 C3183 1.385 . S
C3187 C3186 1.374 . S
C3188 C3185 1.499 . S
C3188 C3189 1.373 . S
C3188 C3190 1.389 . S
C3189 H3168 0.950 . S
C3189 C3188 1.373 . S
C3189 C3205 1.377 . S
C3190 C3188 1.389 . S
C3190 C3191 1.524 . S
C3190 C3204 1.377 . S
C3191 C3190 1.524 . S
C3191 C3192 1.397 . S
C3191 C3196 1.363 . S
C3192 H3169 0.950 . S
C3192 C3191 1.397 . S
C3192 C3193 1.334 . S
C3193 H3170 0.950 . S
C3193 C3192 1.334 . S
C3193 C3194 1.287 . S
C3194 C3193 1.287 . S
C3194 C3195 1.524 . S
C3194 H3213 0.913 . S
C3195 H3171 0.950 . S
C3195 C3194 1.524 . S
C3195 C3196 1.415 . S
C3196 H3172 0.950 . S
C3196 C3191 1.363 . S
C3196 C3195 1.415 . S
C3197 H3173 0.951 . S
C3197 C3198 1.366 . S
C3197 C3199 1.388 . S
C3198 C3197 1.366 . S
C3198 C3202 1.385 . S
C3199 H3174 0.951 . S
C3199 C3197 1.388 . S
C3199 C3200 1.366 . S
C3200 C3199 1.366 . S
C3200 C3201 1.414 . S
C3200 C3203 1.499 . S
C3201 H3175 0.950 . S
C3201 C3200 1.414 . S
C3201 C3202 1.374 . S
C3202 H3176 0.950 . S
C3202 C3198 1.385 . S
C3202 C3201 1.374 . S
C3203 C3200 1.499 . S
C3203 C3204 1.373 . S
C3203 C3205 1.389 . S
C3204 H3177 0.950 . S
C3204 C3190 1.377 . S
C3204 C3203 1.373 . S
C3205 C3189 1.377 . S
C3205 C3203 1.389 . S
C3205 C3206 1.524 . S
C3206 C3205 1.524 . S
C3206 C3207 1.397 . S
C3206 C3211 1.363 . S
C3207 H3178 0.950 . S
C3207 C3206 1.397 . S
C3207 C3208 1.334 . S
C3208 H3179 0.950 . S
C3208 C3207 1.334 . S
C3208 C3209 1.287 . S
C3209 C3208 1.287 . S
C3209 C3210 1.524 . S
C3209 H3212 0.999 . S
C3210 H3180 0.950 . S
C3210 C3209 1.524 . S
C3210 C3211 1.415 . S
C3211 H3181 0.950 . S
C3211 C3206 1.363 . S
C3211 C3210 1.415 . S
H3212 C3209 0.999 . S
H3213 C3194 0.913 . S
H3214 C3232 0.951 . S
H3215 C3234 0.951 . S
H3216 C3236 0.950 . S
H3217 C3237 0.950 . S
H3218 C3239 0.950 . S
H3219 C3242 0.950 . S
H3220 C3243 0.950 . S
H3221 C3245 0.950 . S
H3222 C3246 0.950 . S
H3223 C3247 0.951 . S
H3224 C3249 0.951 . S
H3225 C3251 0.950 . S
H3226 C3252 0.950 . S
H3227 C3254 0.950 . S
H3228 C3257 0.950 . S
H3229 C3258 0.950 . S
H3230 C3260 0.950 . S
H3231 C3261 0.950 . S
C3232 H3214 0.951 . S
C3232 C3233 1.366 . S
C3232 C3234 1.388 . S
C3233 C3232 1.366 . S
C3233 C3237 1.385 . S
C3234 H3215 0.951 . S
C3234 C3232 1.388 . S
C3234 C3235 1.366 . S
C3235 C3234 1.366 . S
C3235 C3236 1.414 . S
C3235 C3238 1.499 . S
C3236 H3216 0.950 . S
C3236 C3235 1.414 . S
C3236 C3237 1.374 . S
C3237 H3217 0.950 . S
C3237 C3233 1.385 . S
C3237 C3236 1.374 . S
C3238 C3235 1.499 . S
C3238 C3239 1.373 . S
C3238 C3240 1.389 . S
C3239 H3218 0.950 . S
C3239 C3238 1.373 . S
C3239 C3255 1.377 . S
C3240 C3238 1.389 . S
C3240 C3241 1.524 . S
C3240 C3254 1.377 . S
C3241 C3240 1.524 . S
C3241 C3242 1.397 . S
C3241 C3246 1.363 . S
C3242 H3219 0.950 . S
C3242 C3241 1.397 . S
C3242 C3243 1.334 . S
C3243 H3220 0.950 . S
C3243 C3242 1.334 . S
C3243 C3244 1.287 . S
C3244 C3243 1.287 . S
C3244 C3245 1.524 . S
C3244 H3263 0.913 . S
C3245 H3221 0.950 . S
C3245 C3244 1.524 . S
C3245 C3246 1.415 . S
C3246 H3222 0.950 . S
C3246 C3241 1.363 . S
C3246 C3245 1.415 . S
C3247 H3223 0.951 . S
C3247 C3248 1.366 . S
C3247 C3249 1.388 . S
C3248 C3247 1.366 . S
C3248 C3252 1.385 . S
C3249 H3224 0.951 . S
C3249 C3247 1.388 . S
C3249 C3250 1.366 . S
C3250 C3249 1.366 . S
C3250 C3251 1.414 . S
C3250 C3253 1.499 . S
C3251 H3225 0.950 . S
C3251 C3250 1.414 . S
C3251 C3252 1.374 . S
C3252 H3226 0.950 . S
C3252 C3248 1.385 . S
C3252 C3251 1.374 . S
C3253 C3250 1.499 . S
C3253 C3254 1.373 . S
C3253 C3255 1.389 . S
C3254 H3227 0.950 . S
C3254 C3240 1.377 . S
C3254 C3253 1.373 . S
C3255 C3239 1.377 . S
C3255 C3253 1.389 . S
C3255 C3256 1.524 . S
C3256 C3255 1.524 . S
C3256 C3257 1.397 . S
C3256 C3261 1.363 . S
C3257 H3228 0.950 . S
C3257 C3256 1.397 . S
C3257 C3258 1.334 . S
C3258 H3229 0.950 . S
C3258 C3257 1.334 . S
C3258 C3259 1.287 . S
C3259 C3258 1.287 . S
C3259 C3260 1.524 . S
C3259 H3262 0.999 . S
C3260 H3230 0.950 . S
C3260 C3259 1.524 . S
C3260 C3261 1.415 . S
C3261 H3231 0.950 . S
C3261 C3256 1.363 . S
C3261 C3260 1.415 . S
H3262 C3259 0.999 . S
H3263 C3244 0.913 . S
C883 C398 1.356 . S
C898 C14 1.314 . S
C933 C50 1.313 . S
C948 C290 1.356 . S
C983 C86 1.313 . S
C998 C326 1.356 . S
C1033 C122 1.313 . S
C1048 C362 1.356 . S
C1083 C470 1.356 . S
C1098 C158 1.313 . S
C1133 C194 1.314 . S
C1148 C506 1.356 . S
C1183 C542 1.356 . S
C1198 C230 1.313 . S
C1233 C434 1.356 . S
C1248 C266 1.314 . S
C1283 C182 1.356 . S
C1298 C302 1.313 . S
C1333 C218 1.356 . S
C1348 C338 1.314 . S
C1383 C374 1.313 . S
C1398 C254 1.356 . S
C1433 C146 1.356 . S
C1448 C410 1.314 . S
C1483 C110 1.356 . S
C1498 C446 1.313 . S
C1533 C482 1.313 . S
C1548 C2 1.356 . S
C1583 C518 1.314 . S
C1598 C38 1.356 . S
C1633 C554 1.314 . S
C1648 C74 1.356 . S
C1683 C590 1.314 . S
C1698 C830 1.356 . S
C1733 C722 1.356 . S
C1748 C626 1.314 . S
C1783 C662 1.314 . S
C1798 C614 1.356 . S
C1833 C698 1.313 . S
C1848 C650 1.356 . S
C1883 C686 1.356 . S
C1898 C734 1.313 . S
C1933 C770 1.314 . S
C1948 C794 1.356 . S
C1983 C578 1.356 . S
C1998 C806 1.314 . S
C2033 C758 1.356 . S
C2048 C842 1.314 . S
C2083 C3 1.505 . S
C2098 C219 1.505 . S
C2133 C39 1.505 . S
C2148 C255 1.505 . S
C2183 C75 1.505 . S
C2198 C147 1.505 . S
C2233 C183 1.505 . S
C2248 C111 1.505 . S
C2283 C363 1.505 . S
C2298 C291 1.505 . S
C2333 C327 1.505 . S
C2348 C399 1.505 . S
C2383 C435 1.505 . S
C2398 C507 1.505 . S
C2433 C543 1.505 . S
C2448 C471 1.505 . S
C2483 C615 1.505 . S
C2498 C579 1.505 . S
C2533 C651 1.505 . S
C2548 C831 1.505 . S
C2583 C687 1.505 . S
C2598 C759 1.505 . S
C2633 C723 1.505 . S
C2648 C795 1.505 . S
C2683 C4 0.848 . S
C2698 C184 0.848 . S
C2733 C40 0.848 . S
C2748 C220 0.848 . S
C2783 C76 0.848 . S
C2798 C256 0.848 . S
C2833 C148 0.848 . S
C2848 C112 0.848 . S
C2883 C292 0.848 . S
C2898 C832 0.848 . S
C2933 C328 0.848 . S
C2948 C760 0.848 . S
C2983 C796 0.848 . S
C2998 C364 0.848 . S
C3033 C400 0.848 . S
C3048 C580 0.848 . S
C3083 C724 0.848 . S
C3098 C436 0.848 . S
C3133 C616 0.848 . S
C3148 C472 0.848 . S
C3183 C508 0.848 . S
C3198 C652 0.848 . S
C3233 C688 0.848 . S
C3248 C544 0.848 . S
