# Generated by pormake.
# Topology snp, (6)-cn, num edge types: 1
# Building blocks:
#     Node 0, Type 0, BuildingBlock: JUFBIX_clean_sbu_0, # of connection points: 6
#     Node 1, Type 0, BuildingBlock: JUFBIX_clean_sbu_0, # of connection points: 6
#     Node 2, Type 0, BuildingBlock: JUFBIX_clean_sbu_0, # of connection points: 6
#     Node 3, Type 0, BuildingBlock: JUFBIX_clean_sbu_0, # of connection points: 6
#     Edge 4, Type (0, 0), BuildingBlock: FUNLAD_clean_linker_0, # of connection points: 2
#     Edge 5, Type (0, 0), BuildingBlock: FUNLAD_clean_linker_0, # of connection points: 2
#     Edge 6, Type (0, 0), BuildingBlock: FUNLAD_clean_linker_0, # of connection points: 2
#     Edge 7, Type (0, 0), BuildingBlock: FUNLAD_clean_linker_0, # of connection points: 2
#     Edge 8, Type (0, 0), BuildingBlock: FUNLAD_clean_linker_0, # of connection points: 2
#     Edge 9, Type (0, 0), BuildingBlock: FUNLAD_clean_linker_0, # of connection points: 2
#     Edge 10, Type (0, 0), BuildingBlock: FUNLAD_clean_linker_0, # of connection points: 2
#     Edge 11, Type (0, 0), BuildingBlock: FUNLAD_clean_linker_0, # of connection points: 2
#     Edge 12, Type (0, 0), BuildingBlock: FUNLAD_clean_linker_0, # of connection points: 2
#     Edge 13, Type (0, 0), BuildingBlock: FUNLAD_clean_linker_0, # of connection points: 2
#     Edge 14, Type (0, 0), BuildingBlock: FUNLAD_clean_linker_0, # of connection points: 2
#     Edge 15, Type (0, 0), BuildingBlock: FUNLAD_clean_linker_0, # of connection points: 2
# Relax obj value: 0.708
# Max RMSD: 0.265
# Mean RMSD: 0.262
data_MOF--net-snp--node1-JUFBIX_clean_sbu_0--edge1-FUNLAD_clean_linker_0
_symmetry_space_group_name_H-M    P1
_symmetry_Int_Tables_number       1
_symmetry_cell_setting            triclinic
loop_
_symmetry_equiv_pos_as_xyz
'x, y, z'
_cell_length_a     30.50441
_cell_length_b     31.289589
_cell_length_c     31.620637
_cell_angle_alpha  88.880541
_cell_angle_beta   97.367382
_cell_angle_gamma 98.09722
loop_
_atom_site_label
_atom_site_type_symbol
_atom_site_fract_x
_atom_site_fract_y
_atom_site_fract_z
_atom_type_partial_charge
Co0 Co 0.24512 0.04257 0.09003 0.0
C1 C 0.31374 0.02304 0.04804 0.0
Co2 Co 0.22522 -0.01252 0.0456 0.0
C3 C 0.25206 0.08773 0.16928 0.0
C4 C 0.28642 0.12581 0.12356 0.0
N5 N 0.26242 0.08697 0.1291 0.0
N6 N 0.26823 0.12558 0.18902 0.0
C7 C 0.28992 0.14969 0.16031 0.0
H8 H 0.23195 0.06131 0.18333 0.0
H9 H 0.30002 0.13625 0.09451 0.0
C10 C 0.15815 0.00482 0.0914 0.0
N11 N 0.20705 0.94295 0.00595 0.0
C12 C 0.2047 0.94593 0.963 0.0
C13 C 0.1891 0.90198 0.01329 0.0
N14 N 0.18546 0.90883 0.94325 0.0
C15 C 0.17596 0.88093 0.97488 0.0
C16 C 0.2531 0.96138 0.12657 0.0
O17 O 0.18685 0.03653 0.105 0.0
O18 O 0.16688 -0.01912 0.06237 0.0
O19 O 0.24057 0.94748 0.08884 0.0
O20 O 0.259 0.00184 0.13327 0.0
O21 O 0.28416 -0.00613 0.03028 0.0
H22 H 0.18402 0.88875 0.04443 0.0
H23 H 0.21591 0.97514 0.94634 0.0
O24 O 0.30342 0.04768 0.07551 0.0
O25 O 0.2308 0.08294 0.04662 0.0
O26 O 0.20974 0.02813 1.00325 0.0
C27 C 0.21582 0.06858 0.00954 0.0
H28 H 0.30709 0.18223 0.16542 0.0
H29 H 0.15847 0.84843 0.97055 0.0
Co30 Co 0.02899 0.24921 0.64181 0.0
C31 C 0.05743 0.33423 0.6269 0.0
Co32 Co 0.08938 0.25923 0.60909 0.0
C33 C 0.97675 0.21351 0.70594 0.0
C34 C 0.94218 0.25756 0.66648 0.0
N35 N 0.98024 0.23971 0.67182 0.0
N36 N 0.93816 0.21418 0.72236 0.0
C37 C 0.91624 0.24198 0.69762 0.0
H38 H 0.00272 0.19499 0.71907 0.0
H39 H 0.93402 0.28063 0.64181 0.0
C40 C 0.06001 0.17414 0.62287 0.0
N41 N 0.13844 0.26807 0.57947 0.0
C42 C 0.14315 0.24802 0.54327 0.0
C43 C 0.17638 0.29584 0.58825 0.0
N44 N 0.18244 0.26216 0.52882 0.0
C45 C 0.20349 0.29232 0.55717 0.0
C46 C 0.10924 0.26024 0.69615 0.0
O47 O 0.03125 0.18958 0.64141 0.0
O48 O 0.08993 0.19953 0.60717 0.0
O49 O 0.12737 0.26231 0.66202 0.0
O50 O 0.06702 0.25505 0.69389 0.0
O51 O 0.08822 0.31922 0.61091 0.0
H52 H 0.18371 0.31743 0.61532 0.0
H53 H 0.11759 0.22411 0.52738 0.0
O54 O 0.02698 0.30864 0.64169 0.0
O55 O -0.00906 0.24301 0.58904 0.0
O56 O 0.05064 0.25514 0.55631 0.0
C57 C 0.00846 0.24604 0.55452 0.0
H58 H 0.88368 0.2502 0.70145 0.0
H59 H 0.23619 0.31048 0.5558 0.0
Co60 Co 0.79043 -0.00783 0.11829 0.0
C61 C 0.86484 0.95136 0.1174 0.0
Co62 Co 0.78048 0.93883 0.07184 0.0
C63 C 0.82241 0.0419 0.19606 0.0
C64 C 0.78149 0.07507 0.15022 0.0
N65 N 0.79837 0.03761 0.15695 0.0
N66 N 0.82109 0.0806 0.21399 0.0
C67 C 0.79526 0.10141 0.18506 0.0
H68 H 0.84054 0.01708 0.21098 0.0
H69 H 0.76105 0.08305 0.12142 0.0
C70 C 0.70529 0.97782 0.07349 0.0
N71 N 0.77189 0.89407 0.03334 0.0
C72 C 0.7972 0.88803 1.00265 0.0
C73 C 0.73714 0.86209 0.02779 0.0
N74 N 0.77939 0.85384 0.97765 0.0
C75 C 0.74163 0.83731 0.99359 0.0
C76 C 0.76216 0.91178 0.15195 0.0
O77 O 0.72966 0.00049 0.10281 0.0
O78 O 0.72151 0.94904 0.0553 0.0
O79 O 0.76152 0.90036 0.11365 0.0
O80 O 0.77325 0.95151 0.16181 0.0
O81 O 0.83963 0.92817 0.08903 0.0
H82 H 0.70954 0.85796 0.04651 0.0
H83 H 0.82771 0.90895 0.99841 0.0
O84 O 0.85056 -0.01708 0.13336 0.0
O85 O 0.80815 0.03187 0.07432 0.0
O86 O 0.79983 0.97769 0.02981 0.0
C87 C 0.81012 0.01778 0.0372 0.0
H88 H 0.78783 0.13393 0.18817 0.0
H89 H 0.71783 0.81046 0.98042 0.0
Co90 Co 0.93248 0.76517 0.53483 0.0
C91 C 0.95142 0.83851 0.48681 0.0
Co92 Co 0.98997 0.76459 0.49933 0.0
C93 C 0.88473 0.75969 0.60691 0.0
C94 C 0.84408 0.7773 0.55082 0.0
N95 N 0.88479 0.76667 0.56478 0.0
N96 N 0.84589 0.76611 0.62018 0.0
C97 C 0.82003 0.77696 0.58488 0.0
H98 H 0.91312 0.75073 0.62754 0.0
H99 H 0.83315 0.78601 0.51829 0.0
C100 C 0.97168 0.69182 0.54776 0.0
N101 N 0.0383 0.76341 0.46949 0.0
C102 C 0.04537 0.78254 0.43186 0.0
C103 C 0.07589 0.74625 0.48262 0.0
N104 N 0.08606 0.77842 0.42114 0.0
C105 C 0.10522 0.75531 0.45297 0.0
C106 C 0.01351 0.79848 0.581 0.0
O107 O 0.94064 0.71069 0.55846 0.0
O108 O -0.00431 0.70906 0.5204 0.0
O109 O 0.02974 0.7883 0.54806 0.0
O110 O 0.97152 0.79208 0.58103 0.0
O111 O 0.98402 0.82034 0.47879 0.0
H112 H 0.08228 0.72966 0.51262 0.0
H113 H 0.02141 0.79999 0.41317 0.0
O114 O 0.92459 0.81978 0.51111 0.0
O115 O 0.894 0.73904 0.48901 0.0
O116 O 0.94958 0.74154 0.45103 0.0
C117 C 0.90788 0.73348 0.45368 0.0
H118 H 0.78692 0.7859 0.58398 0.0
H119 H 0.13887 0.74735 0.45577 0.0
C120 C 0.94011 0.96708 0.1599 0.0
C121 C 0.90735 0.93777 0.13638 0.0
C122 C 0.97731 0.95263 0.18313 0.0
C123 C 0.98189 0.90856 0.18368 0.0
C124 C 0.94966 0.87938 0.15972 0.0
C125 C 0.91299 0.89395 0.13567 0.0
C126 C 0.01844 0.89241 0.21185 0.0
C127 C 0.06156 0.90872 0.21211 0.0
C128 C 0.07834 0.93849 0.17909 0.0
C129 C 0.10673 0.97643 0.19141 0.0
C130 C 0.12833 0.00149 0.16122 0.0
C131 C 0.12341 -0.01207 0.11841 0.0
H132 H 0.04839 0.89743 0.12571 0.0
C133 C 0.09257 0.95134 0.10567 0.0
C134 C 0.06998 0.92693 0.13578 0.0
H135 H 0.0883 0.93984 0.0731 0.0
H136 H 0.93634 0.00092 0.1613 0.0
H137 H 0.00152 0.97557 0.20207 0.0
H138 H 0.95255 0.84525 0.1601 0.0
H139 H 0.88789 0.87052 0.11834 0.0
H140 H 0.00968 0.8672 0.23463 0.0
H141 H 0.08584 0.89815 0.23684 0.0
H142 H 0.11353 -0.0142 0.22467 0.0
H143 H 0.15188 0.02938 0.17233 0.0
C144 C 0.91667 0.90548 0.48811 0.0
C145 C 0.94902 0.88348 0.47383 0.0
C146 C 0.92372 0.95032 0.49013 0.0
C147 C 0.96317 0.9731 0.47802 0.0
C148 C -0.00908 0.95172 0.4564 0.0
C149 C 0.98393 0.90681 0.45436 0.0
C150 C 0.98212 0.01435 0.49855 0.0
C151 C 0.98655 0.01655 0.54138 0.0
C152 C 0.01146 0.05355 0.56593 0.0
C153 C -0.00197 0.06326 0.60495 0.0
C154 C 0.01748 0.10087 0.62661 0.0
C155 C 0.05102 0.12883 0.60963 0.0
H156 H 0.06073 0.07102 0.52241 0.0
C157 C 0.06801 0.11638 0.57322 0.0
C158 C 0.04816 0.07905 0.55133 0.0
H159 H 0.09414 0.13714 0.55959 0.0
H160 H 0.88863 0.88823 0.50203 0.0
H161 H 0.9014 0.96669 0.50602 0.0
H162 H 0.02116 0.96905 0.4463 0.0
H163 H 0.00863 0.89053 0.44191 0.0
H164 H -0.00218 0.04002 0.47962 0.0
H165 H 0.97117 -0.01009 0.55953 0.0
H166 H 0.97062 0.04316 0.61735 0.0
H167 H 0.00408 0.10956 0.65488 0.0
C168 C 0.6405 0.01771 0.07824 0.0
C169 C 0.65829 -0.01611 0.06104 0.0
C170 C 0.59553 0.02221 0.06747 0.0
C171 C 0.56754 -0.00706 0.03917 0.0
C172 C 0.58546 0.95936 0.02186 0.0
C173 C 0.63043 0.95502 0.0324 0.0
C174 C 0.51888 -0.00586 0.03007 0.0
C175 C 0.50039 0.03052 0.03194 0.0
C176 C 0.45163 0.03039 0.03061 0.0
C177 C 0.43683 0.06302 0.0525 0.0
C178 C 0.39174 0.06136 0.05685 0.0
C179 C 0.36039 0.02718 0.03896 0.0
H180 H 0.42988 0.97278 0.99176 0.0
C181 C 0.3747 -0.00399 0.01458 0.0
C182 C 0.41994 -0.0024 0.01035 0.0
H183 H 0.35119 0.96965 0.99987 0.0
H184 H 0.66112 0.04033 0.10053 0.0
H185 H 0.58262 0.04767 0.0826 0.0
H186 H 0.5645 0.93613 1.00041 0.0
H187 H 0.64309 0.9285 0.01867 0.0
H188 H 0.49783 0.96347 0.02337 0.0
H189 H 0.52173 0.06109 0.0385 0.0
H190 H 0.46045 0.08892 0.06793 0.0
H191 H 0.38169 0.08627 0.07533 0.0
C192 C 0.02044 0.39715 0.64207 0.0
C193 C 0.0565 0.38093 0.62767 0.0
C194 C 0.01772 0.44115 0.6399 0.0
C195 C 0.05134 0.46979 0.62361 0.0
C196 C 0.08819 0.45365 0.61077 0.0
C197 C 0.09082 0.4096 0.61281 0.0
C198 C 0.0468 0.51549 0.61455 0.0
C199 C 0.01771 0.53697 0.63098 0.0
C200 C 0.00757 0.57899 0.61339 0.0
C201 C 0.9641 0.58917 0.61247 0.0
C202 C 0.95204 0.62605 0.59112 0.0
C203 C 0.98334 0.65287 0.57022 0.0
H204 H 0.07391 0.60189 0.59669 0.0
C205 C 0.02731 0.64374 0.57287 0.0
C206 C 0.03952 0.60753 0.59479 0.0
H207 H 0.05253 0.66487 0.5584 0.0
H208 H -0.00651 0.37572 0.65373 0.0
H209 H 0.98816 0.45186 0.64914 0.0
H210 H 0.11441 0.47503 0.59791 0.0
H211 H 0.11921 0.39799 0.6018 0.0
H212 H 0.06618 0.53079 0.59049 0.0
H213 H -0.0024 0.52201 0.65458 0.0
H214 H 0.93908 0.56784 0.62702 0.0
H215 H 0.91814 0.63304 0.59016 0.0
C216 C 0.17972 0.20884 0.47129 0.0
C217 C 0.19765 0.24882 0.49035 0.0
C218 C 0.193 0.19659 0.43315 0.0
C219 C 0.22509 0.22385 0.41324 0.0
C220 C 0.24317 0.26366 0.43241 0.0
C221 C 0.22975 0.27598 0.47049 0.0
C222 C 0.23892 0.21313 0.3716 0.0
C223 C 0.23262 0.17292 0.35518 0.0
C224 C 0.24425 0.16229 0.31259 0.0
C225 C 0.24583 0.11889 0.30314 0.0
C226 C 0.25434 0.10694 0.26295 0.0
C227 C 0.26143 0.13816 0.23108 0.0
H228 H 0.24929 0.22724 0.28578 0.0
C229 C 0.26027 0.18165 0.24052 0.0
C230 C 0.25152 0.19361 0.28065 0.0
H231 H 0.26475 0.20638 0.21643 0.0
H232 H 0.15524 0.18684 0.48573 0.0
H233 H 0.17711 0.16618 0.41915 0.0
H234 H 0.26758 0.28557 0.41767 0.0
H235 H 0.24387 0.30724 0.48376 0.0
H236 H 0.25584 0.23959 0.35455 0.0
H237 H 0.21913 0.14598 0.37392 0.0
H238 H 0.24018 0.09398 0.32691 0.0
H239 H 0.25544 0.07321 0.25689 0.0
C240 C 0.89456 0.20551 0.78377 0.0
C241 C 0.92402 0.19017 0.75882 0.0
C242 C 0.88142 0.18221 0.8194 0.0
C243 C 0.89757 0.14301 0.8308 0.0
C244 C 0.92663 0.12764 0.80558 0.0
C245 C 0.93981 0.15091 0.77017 0.0
C246 C 0.88343 0.11587 0.86713 0.0
C247 C 0.86552 0.13024 0.9001 0.0
C248 C 0.85099 0.10123 0.9351 0.0
C249 C 0.85035 0.11835 0.97576 0.0
C250 C 0.83711 0.0915 0.00921 0.0
C251 C 0.82392 0.04703 1.00243 0.0
H252 H 0.83494 0.04259 0.89708 0.0
C253 C 0.82369 0.03017 0.9615 0.0
C254 C 0.83675 0.05688 0.92825 0.0
H255 H 0.81316 -0.00384 0.95491 0.0
H256 H 0.88193 0.2357 0.77599 0.0
H257 H 0.85809 0.1947 0.83728 0.0
H258 H 0.93919 0.09732 0.8132 0.0
H259 H 0.96186 0.1377 0.7513 0.0
H260 H 0.88965 0.08253 0.86721 0.0
H261 H 0.863 0.16432 0.90267 0.0
H262 H 0.86059 0.15249 0.98179 0.0
H263 H 0.83736 0.10553 0.0403 0.0
C264 C 0.88899 0.73703 0.3745 0.0
C265 C 0.87491 0.72925 0.41487 0.0
C266 C 0.85922 0.74874 0.34028 0.0
C267 C 0.81496 0.75285 0.34603 0.0
C268 C 0.79983 0.74045 0.38501 0.0
C269 C 0.82933 0.72812 0.41895 0.0
C270 C 0.7871 0.77726 0.31527 0.0
C271 C 0.79036 0.77844 0.2734 0.0
C272 C 0.77265 0.81164 0.24472 0.0
C273 C 0.75936 0.80152 0.20169 0.0
C274 C 0.7515 0.83403 0.17211 0.0
C275 C 0.75811 0.87763 0.1848 0.0
H276 H 0.78631 0.86361 0.29117 0.0
C277 C 0.7683 0.8875 0.22838 0.0
C278 C 0.77537 0.85471 0.25819 0.0
H279 H 0.77378 0.92071 0.23914 0.0
H280 H 0.92382 0.73815 0.37026 0.0
H281 H 0.87218 0.75849 0.31073 0.0
H282 H 0.76587 0.74314 0.39013 0.0
H283 H 0.81719 0.72181 0.44952 0.0
H284 H 0.76547 0.79722 0.32804 0.0
H285 H 0.80868 0.7558 0.25986 0.0
H286 H 0.75711 0.76863 0.1906 0.0
H287 H 0.74334 0.82513 0.1388 0.0
C288 C 0.02401 0.83446 0.65218 0.0
C289 C 0.04253 0.81527 0.62006 0.0
C290 C 0.04978 0.84694 0.69085 0.0
C291 C 0.09478 0.8403 0.69855 0.0
C292 C 0.11348 0.82155 0.66629 0.0
C293 C 0.08778 0.80957 0.62723 0.0
C294 C 0.12156 0.84956 0.74101 0.0
C295 C 0.11479 0.8812 0.76678 0.0
C296 C 0.13761 0.88826 0.81113 0.0
C297 C 0.14184 0.92949 0.82922 0.0
C298 C 0.15907 0.93656 0.87206 0.0
C299 C 0.17175 0.90232 0.89813 0.0
H300 H 0.14779 0.82172 0.82435 0.0
C301 C 0.16818 0.86114 0.87991 0.0
C302 C 0.15146 0.85416 0.83685 0.0
H303 H 0.17776 0.83417 0.89917 0.0
H304 H 0.98917 0.8391 0.6478 0.0
H305 H 0.03376 0.86018 0.71525 0.0
H306 H 0.14793 0.81569 0.67152 0.0
H307 H 0.1029 0.79451 0.60327 0.0
H308 H 0.14773 0.82993 0.751 0.0
H309 H 0.09167 0.90339 0.75488 0.0
H310 H 0.13101 0.95624 0.81033 0.0
H311 H 0.16072 0.96853 0.88515 0.0
C312 C 0.78077 0.79878 0.9229 0.0
C313 C 0.79478 0.84062 0.93936 0.0
C314 C 0.79331 0.78693 0.8843 0.0
C315 C 0.82018 0.81673 0.86141 0.0
C316 C 0.83556 0.85788 0.87858 0.0
C317 C 0.82278 0.86985 0.91693 0.0
C318 C 0.83278 0.80628 0.81955 0.0
C319 C 0.80678 0.77848 0.79179 0.0
C320 C 0.81765 0.77228 0.74817 0.0
C321 C 0.78282 0.76222 0.71487 0.0
C322 C 0.792 0.75944 0.6729 0.0
C323 C 0.83628 0.7662 0.66358 0.0
H324 H 0.88977 0.78362 0.76415 0.0
C325 C 0.87116 0.77448 0.69728 0.0
C326 C 0.86199 0.77726 0.7391 0.0
H327 H 0.90566 0.78008 0.6914 0.0
H328 H 0.7601 0.77513 0.93978 0.0
H329 H 0.78211 0.75442 0.87266 0.0
H330 H 0.85655 0.88132 0.86166 0.0
H331 H 0.83391 0.90246 0.9282 0.0
H332 H 0.86251 0.82521 0.80984 0.0
H333 H 0.77471 0.76289 0.79964 0.0
H334 H 0.74837 0.7577 0.72114 0.0
H335 H 0.76446 0.75228 0.64776 0.0
C336 C 0.25374 0.94785 0.20464 0.0
C337 C 0.25061 0.93131 0.16316 0.0
C338 C 0.23969 0.92139 0.23775 0.0
C339 C 0.22241 0.87778 0.23011 0.0
C340 C 0.22332 0.86026 0.18979 0.0
C341 C 0.237 0.88684 0.15645 0.0
C342 C 0.20111 0.8508 0.26301 0.0
C343 C 0.17602 0.86733 0.28898 0.0
C344 C 0.15175 0.84192 0.32111 0.0
C345 C 0.11635 0.85864 0.33625 0.0
C346 C 0.09405 0.83728 0.36816 0.0
C347 C 0.10688 0.79874 0.38601 0.0
H348 H 0.19185 0.78939 0.32825 0.0
C349 C 0.14193 0.78162 0.37045 0.0
C350 C 0.1642 0.80296 0.33839 0.0
H351 H 0.15244 0.75187 0.38333 0.0
H352 H 0.26437 -0.01813 0.21109 0.0
H353 H 0.24094 0.93548 0.26897 0.0
H354 H 0.21083 0.82655 0.18336 0.0
H355 H 0.23432 0.87304 0.12492 0.0
H356 H 0.20283 0.81639 0.26303 0.0
H357 H 0.17118 0.90104 0.28525 0.0
H358 H 0.10618 0.8887 0.3237 0.0
H359 H 0.06773 0.85182 0.37974 0.0
C360 C 0.17793 0.24531 0.74288 0.0
C361 C 0.13593 0.25951 0.73835 0.0
C362 C 0.19834 0.23532 0.7833 0.0
C363 C 0.17712 0.23982 0.81963 0.0
C364 C 0.13762 0.2584 0.8154 0.0
C365 C 0.11691 0.26777 0.77504 0.0
C366 C 0.1917 0.21996 0.86097 0.0
C367 C 0.20346 0.18008 0.86221 0.0
C368 C 0.20596 0.15304 0.90115 0.0
C369 C 0.1962 0.10817 0.89623 0.0
C370 C 0.19769 0.08104 0.93163 0.0
C371 C 0.20977 0.09812 0.97291 0.0
H372 H 0.22578 0.20494 0.94727 0.0
C373 C 0.21936 0.14316 0.97805 0.0
C374 C 0.21738 0.17047 0.94244 0.0
H375 H 0.22922 0.15725 0.00944 0.0
H376 H 0.19348 0.23903 0.71512 0.0
H377 H 0.22946 0.22197 0.7859 0.0
H378 H 0.12092 0.26252 0.843 0.0
H379 H 0.08482 0.27933 0.77245 0.0
H380 H 0.18483 0.23451 0.88988 0.0
H381 H 0.20561 0.16423 0.83238 0.0
H382 H 0.18714 0.09394 0.86479 0.0
H383 H 0.19017 0.04654 0.92641 0.0
C384 C 0.828 0.13057 0.27509 0.0
C385 C 0.84398 0.09759 0.25437 0.0
C386 C 0.85135 0.14902 0.31282 0.0
C387 C 0.89129 0.13473 0.33114 0.0
C388 C 0.90699 0.10145 0.31069 0.0
C389 C 0.88358 0.08295 0.27292 0.0
C390 C 0.91854 0.15493 0.37016 0.0
C391 C 0.90246 0.17834 0.39861 0.0
C392 C 0.93017 0.1982 0.43745 0.0
C393 C 0.90932 0.20554 0.47325 0.0
C394 C 0.93443 0.22264 0.51083 0.0
C395 C 0.98101 0.23344 0.51326 0.0
H396 H -0.00627 0.20689 0.412 0.0
C397 C 0.00165 0.22795 0.47678 0.0
C398 C 0.97657 0.21055 0.43933 0.0
H399 H 0.03745 0.23599 0.47743 0.0
H400 H 0.79744 0.14243 0.26203 0.0
H401 H 0.83839 0.17518 0.32671 0.0
H402 H 0.93779 0.08991 0.32379 0.0
H403 H 0.89723 0.05804 0.25768 0.0
H404 H 0.95297 0.14886 0.37629 0.0
H405 H 0.86715 0.18126 0.3949 0.0
H406 H 0.87356 0.19693 0.47256 0.0
H407 H 0.91743 0.22645 0.53828 0.0
loop_
_geom_bond_atom_site_label_1
_geom_bond_atom_site_label_2
_geom_bond_distance
_geom_bond_site_symmetry_2
_ccdc_geom_bond_type
Co0 N5 2.057 . S
Co0 O17 2.021 . S
Co0 O20 2.062 . S
Co0 O24 2.117 . S
Co0 O25 2.020 . S
C1 O21 1.259 . S
C1 O24 1.258 . S
Co2 N11 2.057 1_544 S
Co2 O18 2.117 . S
Co2 O19 2.020 1_545 S
Co2 O21 2.021 . S
Co2 O26 2.062 1_554 S
C3 N5 1.316 . S
C3 N6 1.347 . S
C3 H8 0.931 . S
C4 N5 1.375 . S
C4 C7 1.350 . S
C4 H9 0.930 . S
N5 Co0 2.057 . S
N5 C3 1.316 . S
N5 C4 1.375 . S
N6 C3 1.347 . S
N6 C7 1.373 . S
C7 C4 1.350 . S
C7 N6 1.373 . S
C7 H28 0.931 . S
H8 C3 0.931 . S
H9 C4 0.930 . S
C10 O17 1.259 . S
C10 O18 1.258 . S
N11 Co2 2.057 1_566 S
N11 C12 1.316 . S
N11 C13 1.375 . S
C12 N11 1.316 . S
C12 N14 1.347 . S
C12 H23 0.931 . S
C13 N11 1.375 . S
C13 C15 1.350 . S
C13 H22 0.930 . S
N14 C12 1.347 . S
N14 C15 1.373 . S
C15 C13 1.350 . S
C15 N14 1.373 . S
C15 H29 0.931 . S
C16 O19 1.256 . S
C16 O20 1.255 1_565 S
O17 Co0 2.021 . S
O17 C10 1.259 . S
O18 Co2 2.117 . S
O18 C10 1.258 . S
O19 Co2 2.020 1_565 S
O19 C16 1.256 . S
O20 Co0 2.062 . S
O20 C16 1.255 1_545 S
O21 C1 1.259 . S
O21 Co2 2.021 . S
H22 C13 0.930 . S
H23 C12 0.931 . S
O24 Co0 2.117 . S
O24 C1 1.258 . S
O25 Co0 2.020 . S
O25 C27 1.256 1_554 S
O26 Co2 2.062 1_556 S
O26 C27 1.255 . S
C27 O25 1.256 1_556 S
C27 O26 1.255 . S
H28 C7 0.931 . S
H29 C15 0.931 . S
Co30 N35 2.057 1_455 S
Co30 O47 2.021 . S
Co30 O50 2.062 . S
Co30 O54 2.117 . S
Co30 O55 2.020 1_455 S
C31 O51 1.259 . S
C31 O54 1.258 . S
Co32 N41 2.057 . S
Co32 O48 2.117 . S
Co32 O49 2.020 . S
Co32 O51 2.021 . S
Co32 O56 2.062 . S
C33 N35 1.316 . S
C33 N36 1.347 . S
C33 H38 0.931 . S
C34 N35 1.375 . S
C34 C37 1.350 . S
C34 H39 0.930 . S
N35 Co30 2.057 1_655 S
N35 C33 1.316 . S
N35 C34 1.375 . S
N36 C33 1.347 . S
N36 C37 1.373 . S
C37 C34 1.350 . S
C37 N36 1.373 . S
C37 H58 0.931 . S
H38 C33 0.931 . S
H39 C34 0.930 . S
C40 O47 1.259 . S
C40 O48 1.258 . S
N41 Co32 2.057 . S
N41 C42 1.316 . S
N41 C43 1.375 . S
C42 N41 1.316 . S
C42 N44 1.347 . S
C42 H53 0.931 . S
C43 N41 1.375 . S
C43 C45 1.350 . S
C43 H52 0.930 . S
N44 C42 1.347 . S
N44 C45 1.373 . S
C45 C43 1.350 . S
C45 N44 1.373 . S
C45 H59 0.931 . S
C46 O49 1.256 . S
C46 O50 1.255 . S
O47 Co30 2.021 . S
O47 C40 1.259 . S
O48 Co32 2.117 . S
O48 C40 1.258 . S
O49 Co32 2.020 . S
O49 C46 1.256 . S
O50 Co30 2.062 . S
O50 C46 1.255 . S
O51 C31 1.259 . S
O51 Co32 2.021 . S
H52 C43 0.930 . S
H53 C42 0.931 . S
O54 Co30 2.117 . S
O54 C31 1.258 . S
O55 Co30 2.020 1_655 S
O55 C57 1.256 . S
O56 Co32 2.062 . S
O56 C57 1.255 1_455 S
C57 O55 1.256 . S
C57 O56 1.255 1_655 S
H58 C37 0.931 . S
H59 C45 0.931 . S
Co60 N65 2.057 . S
Co60 O77 2.021 . S
Co60 O80 2.062 1_545 S
Co60 O84 2.117 . S
Co60 O85 2.020 . S
C61 O81 1.259 . S
C61 O84 1.258 1_565 S
Co62 N71 2.057 . S
Co62 O78 2.117 . S
Co62 O79 2.020 . S
Co62 O81 2.021 . S
Co62 O86 2.062 1_565 S
C63 N65 1.316 . S
C63 N66 1.347 . S
C63 H68 0.931 . S
C64 N65 1.375 . S
C64 C67 1.350 . S
C64 H69 0.930 . S
N65 Co60 2.057 . S
N65 C63 1.316 . S
N65 C64 1.375 . S
N66 C63 1.347 . S
N66 C67 1.373 . S
C67 C64 1.350 . S
C67 N66 1.373 . S
C67 H88 0.931 . S
H68 C63 0.931 . S
H69 C64 0.930 . S
C70 O77 1.259 . S
C70 O78 1.258 1_545 S
N71 Co62 2.057 . S
N71 C72 1.316 1_554 S
N71 C73 1.378 . S
C72 N71 1.316 1_556 S
C72 N74 1.347 . S
C72 H83 0.931 . S
C73 N71 1.378 . S
C73 C75 1.337 1_554 S
C73 H82 0.938 . S
N74 C72 1.347 . S
N74 C75 1.373 . S
C75 C73 1.337 1_556 S
C75 N74 1.373 . S
C75 H89 0.931 . S
C76 O79 1.256 . S
C76 O80 1.255 . S
O77 Co60 2.021 . S
O77 C70 1.259 . S
O78 Co62 2.117 . S
O78 C70 1.258 1_565 S
O79 Co62 2.020 . S
O79 C76 1.256 . S
O80 Co60 2.062 1_565 S
O80 C76 1.255 . S
O81 C61 1.259 . S
O81 Co62 2.021 . S
H82 C73 0.938 . S
H83 C72 0.931 . S
O84 Co60 2.117 . S
O84 C61 1.258 1_545 S
O85 Co60 2.020 . S
O85 C87 1.256 . S
O86 Co62 2.062 1_545 S
O86 C87 1.255 . S
C87 O85 1.256 . S
C87 O86 1.255 . S
H88 C67 0.931 . S
H89 C75 0.931 . S
Co90 N95 2.057 . S
Co90 O107 2.021 . S
Co90 O110 2.062 1_655 S
Co90 O114 2.117 . S
Co90 O115 2.020 . S
C91 O111 1.259 . S
C91 O114 1.258 1_455 S
Co92 N101 2.057 . S
Co92 O108 2.117 . S
Co92 O109 2.020 . S
Co92 O111 2.021 . S
Co92 O116 2.062 1_455 S
C93 N95 1.316 . S
C93 N96 1.347 . S
C93 H98 0.931 . S
C94 N95 1.375 . S
C94 C97 1.350 . S
C94 H99 0.930 . S
N95 Co90 2.057 . S
N95 C93 1.316 . S
N95 C94 1.375 . S
N96 C93 1.347 . S
N96 C97 1.373 . S
C97 C94 1.350 . S
C97 N96 1.373 . S
C97 H118 0.931 . S
H98 C93 0.931 . S
H99 C94 0.930 . S
C100 O107 1.259 . S
C100 O108 1.258 1_655 S
N101 Co92 2.057 . S
N101 C102 1.316 . S
N101 C103 1.375 . S
C102 N101 1.316 . S
C102 N104 1.347 . S
C102 H113 0.931 . S
C103 N101 1.375 . S
C103 C105 1.350 . S
C103 H112 0.930 . S
N104 C102 1.347 . S
N104 C105 1.373 . S
C105 C103 1.350 . S
C105 N104 1.373 . S
C105 H119 0.931 . S
C106 O109 1.256 . S
C106 O110 1.255 . S
O107 Co90 2.021 . S
O107 C100 1.259 . S
O108 Co92 2.117 . S
O108 C100 1.258 1_455 S
O109 Co92 2.020 . S
O109 C106 1.256 . S
O110 Co90 2.062 1_455 S
O110 C106 1.255 . S
O111 C91 1.259 . S
O111 Co92 2.021 . S
H112 C103 0.930 . S
H113 C102 0.931 . S
O114 Co90 2.117 . S
O114 C91 1.258 1_655 S
O115 Co90 2.020 . S
O115 C117 1.256 . S
O116 Co92 2.062 1_655 S
O116 C117 1.255 . S
C117 O115 1.256 . S
C117 O116 1.255 . S
H118 C97 0.931 . S
H119 C105 0.931 . S
C120 C121 1.386 1_545 S
C120 C122 1.383 . S
C120 H136 0.951 . S
C121 C120 1.386 1_565 S
C121 C125 1.383 . S
C122 C120 1.383 . S
C122 C123 1.402 1_545 S
C122 H137 0.951 . S
C123 C122 1.402 1_565 S
C123 C124 1.375 . S
C123 C126 1.481 1_655 S
C124 C123 1.375 . S
C124 C125 1.367 . S
C124 H138 0.951 . S
C125 C121 1.383 . S
C125 C124 1.367 . S
C125 H139 0.950 . S
C126 C123 1.481 1_455 S
C126 C127 1.297 1_565 S
C126 H140 0.950 . S
C127 C126 1.297 1_545 S
C127 C128 1.479 . S
C127 H141 0.950 . S
C128 C127 1.479 . S
C128 C129 1.375 . S
C128 C134 1.404 1_545 S
C129 C128 1.375 . S
C129 C130 1.369 . S
C129 H142 0.950 . S
C130 C129 1.369 . S
C130 C131 1.392 . S
C130 H143 0.951 . S
C131 C130 1.392 . S
C131 C133 1.384 1_545 S
H132 C134 0.949 . S
C133 C131 1.384 1_565 S
C133 C134 1.385 . S
C133 H135 0.950 . S
C134 C128 1.404 1_565 S
C134 H132 0.949 . S
C134 C133 1.385 . S
H135 C133 0.950 . S
H136 C120 0.951 . S
H137 C122 0.951 . S
H138 C124 0.951 . S
H139 C125 0.950 . S
H140 C126 0.950 . S
H141 C127 0.950 . S
H142 C129 0.950 . S
H143 C130 0.951 . S
C144 C145 1.390 . S
C144 C146 1.383 . S
C144 H160 0.951 . S
C145 C144 1.390 . S
C145 C149 1.381 1_455 S
C146 C144 1.383 . S
C146 C147 1.402 . S
C146 H161 0.951 . S
C147 C146 1.402 . S
C147 C148 1.375 . S
C147 C150 1.481 1_565 S
C148 C147 1.375 . S
C148 C149 1.367 1_455 S
C148 H162 0.952 . S
C149 C145 1.381 1_655 S
C149 C148 1.367 1_655 S
C149 H163 0.950 . S
C150 C147 1.481 1_545 S
C150 C151 1.297 . S
C150 H164 0.950 . S
C151 C150 1.297 . S
C151 C152 1.479 . S
C151 H165 0.950 . S
C152 C151 1.479 . S
C152 C153 1.375 . S
C152 C158 1.404 . S
C153 C152 1.375 . S
C153 C154 1.369 . S
C153 H166 0.950 . S
C154 C153 1.369 . S
C154 C155 1.392 . S
C154 H167 0.951 . S
C155 C154 1.392 . S
C155 C157 1.384 . S
H156 C158 0.949 . S
C157 C155 1.384 . S
C157 C158 1.385 . S
C157 H159 0.950 . S
C158 C152 1.404 . S
C158 H156 0.949 . S
C158 C157 1.385 . S
H159 C157 0.950 . S
H160 C144 0.951 . S
H161 C146 0.951 . S
H162 C148 0.952 . S
H163 C149 0.950 . S
H164 C150 0.950 . S
H165 C151 0.950 . S
H166 C153 0.950 . S
H167 C154 0.951 . S
C168 C169 1.386 1_545 S
C168 C170 1.383 . S
C168 H184 0.951 . S
C169 C168 1.386 1_565 S
C169 C173 1.383 . S
C170 C168 1.383 . S
C170 C171 1.402 1_545 S
C170 H185 0.951 . S
C171 C170 1.402 1_565 S
C171 C172 1.375 . S
C171 C174 1.481 . S
C172 C171 1.375 . S
C172 C173 1.367 . S
C172 H186 0.951 . S
C173 C169 1.383 . S
C173 C172 1.367 . S
C173 H187 0.950 . S
C174 C171 1.481 . S
C174 C175 1.297 1_565 S
C174 H188 0.950 . S
C175 C174 1.297 1_545 S
C175 C176 1.479 . S
C175 H189 0.950 . S
C176 C175 1.479 . S
C176 C177 1.375 . S
C176 C182 1.404 1_545 S
C177 C176 1.375 . S
C177 C178 1.369 . S
C177 H190 0.950 . S
C178 C177 1.369 . S
C178 C179 1.392 . S
C178 H191 0.951 . S
C179 C178 1.392 . S
C179 C181 1.384 1_545 S
H180 C182 0.949 . S
C181 C179 1.384 1_565 S
C181 C182 1.385 . S
C181 H183 0.950 . S
C182 C176 1.404 1_565 S
C182 H180 0.949 . S
C182 C181 1.385 . S
H183 C181 0.950 . S
H184 C168 0.951 . S
H185 C170 0.951 . S
H186 C172 0.951 . S
H187 C173 0.950 . S
H188 C174 0.950 . S
H189 C175 0.950 . S
H190 C177 0.950 . S
H191 C178 0.951 . S
C192 C193 1.386 . S
C192 C194 1.383 . S
C192 H208 0.951 1_455 S
C193 C192 1.386 . S
C193 C197 1.383 . S
C194 C192 1.383 . S
C194 C195 1.402 . S
C194 H209 0.951 1_455 S
C195 C194 1.402 . S
C195 C196 1.375 . S
C195 C198 1.481 . S
C196 C195 1.375 . S
C196 C197 1.367 . S
C196 H210 0.951 . S
C197 C193 1.383 . S
C197 C196 1.367 . S
C197 H211 0.950 . S
C198 C195 1.481 . S
C198 C199 1.297 . S
C198 H212 0.950 . S
C199 C198 1.297 . S
C199 C200 1.479 . S
C199 H213 0.950 1_455 S
C200 C199 1.479 . S
C200 C201 1.375 1_455 S
C200 C206 1.404 . S
C201 C200 1.375 1_655 S
C201 C202 1.369 . S
C201 H214 0.950 . S
C202 C201 1.369 . S
C202 C203 1.402 . S
C202 H215 0.951 . S
C203 C202 1.402 . S
C203 C205 1.370 1_655 S
H204 C206 0.949 . S
C205 C203 1.370 1_455 S
C205 C206 1.385 . S
C205 H207 0.950 . S
C206 C200 1.404 . S
C206 H204 0.949 . S
C206 C205 1.385 . S
H207 C205 0.950 . S
H208 C192 0.951 1_655 S
H209 C194 0.951 1_655 S
H210 C196 0.951 . S
H211 C197 0.950 . S
H212 C198 0.950 . S
H213 C199 0.950 1_655 S
H214 C201 0.950 . S
H215 C202 0.951 . S
C216 C217 1.386 . S
C216 C218 1.383 . S
C216 H232 0.951 . S
C217 C216 1.386 . S
C217 C221 1.383 . S
C218 C216 1.383 . S
C218 C219 1.402 . S
C218 H233 0.951 . S
C219 C218 1.402 . S
C219 C220 1.375 . S
C219 C222 1.481 . S
C220 C219 1.375 . S
C220 C221 1.367 . S
C220 H234 0.951 . S
C221 C217 1.383 . S
C221 C220 1.367 . S
C221 H235 0.950 . S
C222 C219 1.481 . S
C222 C223 1.297 . S
C222 H236 0.950 . S
C223 C222 1.297 . S
C223 C224 1.479 . S
C223 H237 0.950 . S
C224 C223 1.479 . S
C224 C225 1.375 . S
C224 C230 1.404 . S
C225 C224 1.375 . S
C225 C226 1.369 . S
C225 H238 0.950 . S
C226 C225 1.369 . S
C226 C227 1.392 . S
C226 H239 0.951 . S
C227 C226 1.392 . S
C227 C229 1.384 . S
H228 C230 0.949 . S
C229 C227 1.384 . S
C229 C230 1.385 . S
C229 H231 0.950 . S
C230 C224 1.404 . S
C230 H228 0.949 . S
C230 C229 1.385 . S
H231 C229 0.950 . S
H232 C216 0.951 . S
H233 C218 0.951 . S
H234 C220 0.951 . S
H235 C221 0.950 . S
H236 C222 0.950 . S
H237 C223 0.950 . S
H238 C225 0.950 . S
H239 C226 0.951 . S
C240 C241 1.386 . S
C240 C242 1.383 . S
C240 H256 0.951 . S
C241 C240 1.386 . S
C241 C245 1.383 . S
C242 C240 1.383 . S
C242 C243 1.402 . S
C242 H257 0.951 . S
C243 C242 1.402 . S
C243 C244 1.375 . S
C243 C246 1.481 . S
C244 C243 1.375 . S
C244 C245 1.367 . S
C244 H258 0.951 . S
C245 C241 1.383 . S
C245 C244 1.367 . S
C245 H259 0.950 . S
C246 C243 1.481 . S
C246 C247 1.297 . S
C246 H260 0.950 . S
C247 C246 1.297 . S
C247 C248 1.479 . S
C247 H261 0.950 . S
C248 C247 1.479 . S
C248 C249 1.375 . S
C248 C254 1.404 . S
C249 C248 1.375 . S
C249 C250 1.369 . S
C249 H262 0.950 . S
C250 C249 1.369 . S
C250 C251 1.392 . S
C250 H263 0.951 1_556 S
C251 C250 1.392 . S
C251 C253 1.384 . S
H252 C254 0.949 . S
C253 C251 1.384 . S
C253 C254 1.385 . S
C253 H255 0.950 . S
C254 C248 1.404 . S
C254 H252 0.949 . S
C254 C253 1.385 . S
H255 C253 0.950 . S
H256 C240 0.951 . S
H257 C242 0.951 . S
H258 C244 0.951 . S
H259 C245 0.950 . S
H260 C246 0.950 . S
H261 C247 0.950 . S
H262 C249 0.950 . S
H263 C250 0.951 1_554 S
C264 C265 1.386 . S
C264 C266 1.383 . S
C264 H280 0.951 . S
C265 C264 1.386 . S
C265 C269 1.383 . S
C266 C264 1.383 . S
C266 C267 1.402 . S
C266 H281 0.951 . S
C267 C266 1.402 . S
C267 C268 1.375 . S
C267 C270 1.481 . S
C268 C267 1.375 . S
C268 C269 1.367 . S
C268 H282 0.951 . S
C269 C265 1.383 . S
C269 C268 1.367 . S
C269 H283 0.950 . S
C270 C267 1.481 . S
C270 C271 1.297 . S
C270 H284 0.950 . S
C271 C270 1.297 . S
C271 C272 1.479 . S
C271 H285 0.950 . S
C272 C271 1.479 . S
C272 C273 1.375 . S
C272 C278 1.404 . S
C273 C272 1.375 . S
C273 C274 1.369 . S
C273 H286 0.950 . S
C274 C273 1.369 . S
C274 C275 1.392 . S
C274 H287 0.951 . S
C275 C274 1.392 . S
C275 C277 1.384 . S
H276 C278 0.949 . S
C277 C275 1.384 . S
C277 C278 1.385 . S
C277 H279 0.950 . S
C278 C272 1.404 . S
C278 H276 0.949 . S
C278 C277 1.385 . S
H279 C277 0.950 . S
H280 C264 0.951 . S
H281 C266 0.951 . S
H282 C268 0.951 . S
H283 C269 0.950 . S
H284 C270 0.950 . S
H285 C271 0.950 . S
H286 C273 0.950 . S
H287 C274 0.951 . S
C288 C289 1.386 . S
C288 C290 1.383 . S
C288 H304 0.951 . S
C289 C288 1.386 . S
C289 C293 1.383 . S
C290 C288 1.383 . S
C290 C291 1.402 . S
C290 H305 0.951 . S
C291 C290 1.402 . S
C291 C292 1.375 . S
C291 C294 1.481 . S
C292 C291 1.375 . S
C292 C293 1.367 . S
C292 H306 0.951 . S
C293 C289 1.383 . S
C293 C292 1.367 . S
C293 H307 0.950 . S
C294 C291 1.481 . S
C294 C295 1.297 . S
C294 H308 0.950 . S
C295 C294 1.297 . S
C295 C296 1.479 . S
C295 H309 0.950 . S
C296 C295 1.479 . S
C296 C297 1.375 . S
C296 C302 1.404 . S
C297 C296 1.375 . S
C297 C298 1.369 . S
C297 H310 0.950 . S
C298 C297 1.369 . S
C298 C299 1.392 . S
C298 H311 0.951 . S
C299 C298 1.392 . S
C299 C301 1.384 . S
H300 C302 0.949 . S
C301 C299 1.384 . S
C301 C302 1.385 . S
C301 H303 0.950 . S
C302 C296 1.404 . S
C302 H300 0.949 . S
C302 C301 1.385 . S
H303 C301 0.950 . S
H304 C288 0.951 . S
H305 C290 0.951 . S
H306 C292 0.951 . S
H307 C293 0.950 . S
H308 C294 0.950 . S
H309 C295 0.950 . S
H310 C297 0.950 . S
H311 C298 0.951 . S
C312 C313 1.386 . S
C312 C314 1.383 . S
C312 H328 0.951 . S
C313 C312 1.386 . S
C313 C317 1.383 . S
C314 C312 1.383 . S
C314 C315 1.402 . S
C314 H329 0.951 . S
C315 C314 1.402 . S
C315 C316 1.375 . S
C315 C318 1.481 . S
C316 C315 1.375 . S
C316 C317 1.367 . S
C316 H330 0.951 . S
C317 C313 1.383 . S
C317 C316 1.367 . S
C317 H331 0.950 . S
C318 C315 1.481 . S
C318 C319 1.297 . S
C318 H332 0.950 . S
C319 C318 1.297 . S
C319 C320 1.479 . S
C319 H333 0.950 . S
C320 C319 1.479 . S
C320 C321 1.375 . S
C320 C326 1.404 . S
C321 C320 1.375 . S
C321 C322 1.369 . S
C321 H334 0.950 . S
C322 C321 1.369 . S
C322 C323 1.392 . S
C322 H335 0.951 . S
C323 C322 1.392 . S
C323 C325 1.384 . S
H324 C326 0.949 . S
C325 C323 1.384 . S
C325 C326 1.385 . S
C325 H327 0.950 . S
C326 C320 1.404 . S
C326 H324 0.949 . S
C326 C325 1.385 . S
H327 C325 0.950 . S
H328 C312 0.951 . S
H329 C314 0.951 . S
H330 C316 0.951 . S
H331 C317 0.950 . S
H332 C318 0.950 . S
H333 C319 0.950 . S
H334 C321 0.950 . S
H335 C322 0.951 . S
C336 C337 1.386 . S
C336 C338 1.383 . S
C336 H352 0.951 . S
C337 C336 1.386 . S
C337 C341 1.383 . S
C338 C336 1.383 . S
C338 C339 1.402 . S
C338 H353 0.951 . S
C339 C338 1.402 . S
C339 C340 1.375 . S
C339 C342 1.481 . S
C340 C339 1.375 . S
C340 C341 1.367 . S
C340 H354 0.951 . S
C341 C337 1.383 . S
C341 C340 1.367 . S
C341 H355 0.950 . S
C342 C339 1.481 . S
C342 C343 1.297 . S
C342 H356 0.950 . S
C343 C342 1.297 . S
C343 C344 1.479 . S
C343 H357 0.950 . S
C344 C343 1.479 . S
C344 C345 1.375 . S
C344 C350 1.404 . S
C345 C344 1.375 . S
C345 C346 1.369 . S
C345 H358 0.950 . S
C346 C345 1.369 . S
C346 C347 1.392 . S
C346 H359 0.951 . S
C347 C346 1.392 . S
C347 C349 1.384 . S
H348 C350 0.949 . S
C349 C347 1.384 . S
C349 C350 1.385 . S
C349 H351 0.950 . S
C350 C344 1.404 . S
C350 H348 0.949 . S
C350 C349 1.385 . S
H351 C349 0.950 . S
H352 C336 0.951 . S
H353 C338 0.951 . S
H354 C340 0.951 . S
H355 C341 0.950 . S
H356 C342 0.950 . S
H357 C343 0.950 . S
H358 C345 0.950 . S
H359 C346 0.951 . S
C360 C361 1.386 . S
C360 C362 1.383 . S
C360 H376 0.951 . S
C361 C360 1.386 . S
C361 C365 1.383 . S
C362 C360 1.383 . S
C362 C363 1.402 . S
C362 H377 0.951 . S
C363 C362 1.402 . S
C363 C364 1.375 . S
C363 C366 1.481 . S
C364 C363 1.375 . S
C364 C365 1.367 . S
C364 H378 0.951 . S
C365 C361 1.383 . S
C365 C364 1.367 . S
C365 H379 0.950 . S
C366 C363 1.481 . S
C366 C367 1.297 . S
C366 H380 0.950 . S
C367 C366 1.297 . S
C367 C368 1.479 . S
C367 H381 0.950 . S
C368 C367 1.479 . S
C368 C369 1.375 . S
C368 C374 1.404 . S
C369 C368 1.375 . S
C369 C370 1.369 . S
C369 H382 0.950 . S
C370 C369 1.369 . S
C370 C371 1.392 . S
C370 H383 0.951 . S
C371 C370 1.392 . S
C371 C373 1.384 . S
H372 C374 0.949 . S
C373 C371 1.384 . S
C373 C374 1.385 . S
C373 H375 0.950 . S
C374 C368 1.404 . S
C374 H372 0.949 . S
C374 C373 1.385 . S
H375 C373 0.950 . S
H376 C360 0.951 . S
H377 C362 0.951 . S
H378 C364 0.951 . S
H379 C365 0.950 . S
H380 C366 0.950 . S
H381 C367 0.950 . S
H382 C369 0.950 . S
H383 C370 0.951 . S
C384 C385 1.386 . S
C384 C386 1.383 . S
C384 H400 0.951 . S
C385 C384 1.386 . S
C385 C389 1.383 . S
C386 C384 1.383 . S
C386 C387 1.402 . S
C386 H401 0.951 . S
C387 C386 1.402 . S
C387 C388 1.375 . S
C387 C390 1.481 . S
C388 C387 1.375 . S
C388 C389 1.367 . S
C388 H402 0.951 . S
C389 C385 1.383 . S
C389 C388 1.367 . S
C389 H403 0.950 . S
C390 C387 1.481 . S
C390 C391 1.297 . S
C390 H404 0.950 . S
C391 C390 1.297 . S
C391 C392 1.479 . S
C391 H405 0.950 . S
C392 C391 1.479 . S
C392 C393 1.375 . S
C392 C398 1.404 . S
C393 C392 1.375 . S
C393 C394 1.369 . S
C393 H406 0.950 . S
C394 C393 1.369 . S
C394 C395 1.392 . S
C394 H407 0.951 . S
C395 C394 1.392 . S
C395 C397 1.384 . S
H396 C398 0.949 . S
C397 C395 1.384 . S
C397 C398 1.385 . S
C397 H399 0.950 . S
C398 C392 1.404 . S
C398 H396 0.949 . S
C398 C397 1.385 . S
H399 C397 0.950 . S
H400 C384 0.951 . S
H401 C386 0.951 . S
H402 C388 0.951 . S
H403 C389 0.950 . S
H404 C390 0.950 . S
H405 C391 0.950 . S
H406 C393 0.950 . S
H407 C394 0.951 . S
C121 C61 0.270 . S
C131 C10 0.110 . S
C145 C91 0.379 . S
C155 C40 0.443 . S
C169 C70 0.603 1_565 S
C179 C1 0.549 . S
C193 C31 0.631 . S
C203 C100 0.579 . S
C217 N44 1.086 . S
C227 N6 1.099 . S
C241 N36 1.436 . S
C251 C87 1.431 1_556 S
C265 C117 1.487 . S
C275 C76 1.499 . S
C289 C106 1.258 . S
C299 N14 1.102 . S
C313 N74 1.097 . S
C323 N96 0.967 . S
C337 C16 1.429 . S
C347 N104 1.432 . S
C361 C46 1.491 . S
C371 C27 1.508 . S
C385 N66 1.158 . S
C395 C57 1.239 . S
