# Generated by pormake.
# Topology wjd, (6)-cn, num edge types: 1
# Building blocks:
#     Node 0, Type 0, BuildingBlock: HISSIN_clean_sbu_0, # of connection points: 6
#     Node 1, Type 0, BuildingBlock: HISSIN_clean_sbu_0, # of connection points: 6
#     Node 2, Type 0, BuildingBlock: HISSIN_clean_sbu_0, # of connection points: 6
#     Node 3, Type 0, BuildingBlock: HISSIN_clean_sbu_0, # of connection points: 6
#     Node 4, Type 0, BuildingBlock: HISSIN_clean_sbu_0, # of connection points: 6
#     Node 5, Type 0, BuildingBlock: HISSIN_clean_sbu_0, # of connection points: 6
#     Node 6, Type 0, BuildingBlock: HISSIN_clean_sbu_0, # of connection points: 6
#     Node 7, Type 0, BuildingBlock: HISSIN_clean_sbu_0, # of connection points: 6
#     Node 8, Type 0, BuildingBlock: HISSIN_clean_sbu_0, # of connection points: 6
#     Node 9, Type 0, BuildingBlock: HISSIN_clean_sbu_0, # of connection points: 6
#     Node 10, Type 0, BuildingBlock: HISSIN_clean_sbu_0, # of connection points: 6
#     Node 11, Type 0, BuildingBlock: HISSIN_clean_sbu_0, # of connection points: 6
#     Edge 12, Type (0, 0), BuildingBlock: XUDNAN_clean_linker_2, # of connection points: 2
#     Edge 13, Type (0, 0), BuildingBlock: XUDNAN_clean_linker_2, # of connection points: 2
#     Edge 14, Type (0, 0), BuildingBlock: XUDNAN_clean_linker_2, # of connection points: 2
#     Edge 15, Type (0, 0), BuildingBlock: XUDNAN_clean_linker_2, # of connection points: 2
#     Edge 16, Type (0, 0), BuildingBlock: XUDNAN_clean_linker_2, # of connection points: 2
#     Edge 17, Type (0, 0), BuildingBlock: XUDNAN_clean_linker_2, # of connection points: 2
#     Edge 18, Type (0, 0), BuildingBlock: XUDNAN_clean_linker_2, # of connection points: 2
#     Edge 19, Type (0, 0), BuildingBlock: XUDNAN_clean_linker_2, # of connection points: 2
#     Edge 20, Type (0, 0), BuildingBlock: XUDNAN_clean_linker_2, # of connection points: 2
#     Edge 21, Type (0, 0), BuildingBlock: XUDNAN_clean_linker_2, # of connection points: 2
#     Edge 22, Type (0, 0), BuildingBlock: XUDNAN_clean_linker_2, # of connection points: 2
#     Edge 23, Type (0, 0), BuildingBlock: XUDNAN_clean_linker_2, # of connection points: 2
#     Edge 24, Type (0, 0), BuildingBlock: XUDNAN_clean_linker_2, # of connection points: 2
#     Edge 25, Type (0, 0), BuildingBlock: XUDNAN_clean_linker_2, # of connection points: 2
#     Edge 26, Type (0, 0), BuildingBlock: XUDNAN_clean_linker_2, # of connection points: 2
#     Edge 27, Type (0, 0), BuildingBlock: XUDNAN_clean_linker_2, # of connection points: 2
#     Edge 28, Type (0, 0), BuildingBlock: XUDNAN_clean_linker_2, # of connection points: 2
#     Edge 29, Type (0, 0), BuildingBlock: XUDNAN_clean_linker_2, # of connection points: 2
#     Edge 30, Type (0, 0), BuildingBlock: XUDNAN_clean_linker_2, # of connection points: 2
#     Edge 31, Type (0, 0), BuildingBlock: XUDNAN_clean_linker_2, # of connection points: 2
#     Edge 32, Type (0, 0), BuildingBlock: XUDNAN_clean_linker_2, # of connection points: 2
#     Edge 33, Type (0, 0), BuildingBlock: XUDNAN_clean_linker_2, # of connection points: 2
#     Edge 34, Type (0, 0), BuildingBlock: XUDNAN_clean_linker_2, # of connection points: 2
#     Edge 35, Type (0, 0), BuildingBlock: XUDNAN_clean_linker_2, # of connection points: 2
#     Edge 36, Type (0, 0), BuildingBlock: XUDNAN_clean_linker_2, # of connection points: 2
#     Edge 37, Type (0, 0), BuildingBlock: XUDNAN_clean_linker_2, # of connection points: 2
#     Edge 38, Type (0, 0), BuildingBlock: XUDNAN_clean_linker_2, # of connection points: 2
#     Edge 39, Type (0, 0), BuildingBlock: XUDNAN_clean_linker_2, # of connection points: 2
#     Edge 40, Type (0, 0), BuildingBlock: XUDNAN_clean_linker_2, # of connection points: 2
#     Edge 41, Type (0, 0), BuildingBlock: XUDNAN_clean_linker_2, # of connection points: 2
#     Edge 42, Type (0, 0), BuildingBlock: XUDNAN_clean_linker_2, # of connection points: 2
#     Edge 43, Type (0, 0), BuildingBlock: XUDNAN_clean_linker_2, # of connection points: 2
#     Edge 44, Type (0, 0), BuildingBlock: XUDNAN_clean_linker_2, # of connection points: 2
#     Edge 45, Type (0, 0), BuildingBlock: XUDNAN_clean_linker_2, # of connection points: 2
#     Edge 46, Type (0, 0), BuildingBlock: XUDNAN_clean_linker_2, # of connection points: 2
#     Edge 47, Type (0, 0), BuildingBlock: XUDNAN_clean_linker_2, # of connection points: 2
# Relax obj value: 0.092
# Max RMSD: 0.206
# Mean RMSD: 0.206
data_MOF--net-wjd--node1-HISSIN_clean_sbu_0--edge1-XUDNAN_clean_linker_2
_symmetry_space_group_name_H-M    P1
_symmetry_Int_Tables_number       1
_symmetry_cell_setting            triclinic
loop_
_symmetry_equiv_pos_as_xyz
'x, y, z'
_cell_length_a     40.207674
_cell_length_b     40.362336
_cell_length_c     53.92061
_cell_angle_alpha  90.33425
_cell_angle_beta   89.854332
_cell_angle_gamma 120.18555
loop_
_atom_site_label
_atom_site_type_symbol
_atom_site_fract_x
_atom_site_fract_y
_atom_site_fract_z
_atom_type_partial_charge
Eu0 Eu 0.38764 0.18649 0.11781 0.0
Eu1 Eu 0.33181 0.09464 0.13397 0.0
C2 C 0.37475 0.15945 0.17478 0.0
C3 C 0.45987 0.29925 0.10243 0.0
C4 C 0.49938 0.31326 0.10532 0.0
C5 C 0.47323 0.36472 0.09734 0.0
C6 C 0.52557 0.35262 0.10453 0.0
C7 C 0.44704 0.32514 0.09772 0.0
C8 C 0.5128 0.37907 0.10139 0.0
C9 C 0.4322 0.25864 0.10775 0.0
O10 O 0.296 0.12198 0.14157 0.0
O11 O 0.32701 0.17648 0.11768 0.0
C12 C 0.29725 0.15176 0.13085 0.0
O13 O 0.37982 0.14799 0.08474 0.0
O14 O 0.29127 0.04945 0.15849 0.0
O15 O 0.3075 0.03442 0.12362 0.0
O16 O 0.31861 0.10537 0.09551 0.0
C17 C 0.3459 0.11889 0.07891 0.0
O18 O 0.42933 0.16597 0.12479 0.0
O19 O 0.38959 0.10028 0.12501 0.0
O20 O 0.3664 0.12491 0.16776 0.0
O21 O 0.40197 0.23668 0.09417 0.0
O22 O 0.43835 0.2413 0.12596 0.0
O23 O 0.37604 0.18466 0.15892 0.0
C24 C 0.24465 0.99246 0.1383 0.0
C25 C 0.21581 1.002 0.13492 0.0
C26 C 0.19715 0.92537 0.13175 0.0
C27 C 0.17777 0.97325 0.12999 0.0
C28 C 0.23496 0.95399 0.13679 0.0
C29 C 0.16811 0.93461 0.1281 0.0
C30 C 0.28505 0.02194 0.14299 0.0
C31 C 0.4241 0.13112 0.1245 0.0
H32 H 0.50997 0.29379 0.10889 0.0
H33 H 0.46216 0.38403 0.09501 0.0
H34 H 0.55583 0.36229 0.10692 0.0
H35 H 0.41659 0.31495 0.09572 0.0
H36 H 0.22276 0.03162 0.13588 0.0
H37 H 0.19062 0.89589 0.13078 0.0
H38 H 0.15614 0.98132 0.12709 0.0
H39 H 0.25676 0.94605 0.13939 0.0
Eu40 Eu 0.80418 0.71321 0.39247 0.0
Eu41 Eu 0.84568 0.66316 0.40816 0.0
C42 C 0.81073 0.69596 0.4469 0.0
C43 C 0.79509 0.80148 0.38395 0.0
C44 C 0.77398 0.81882 0.3914 0.0
C45 C 0.8516 0.8647 0.37885 0.0
C46 C 0.79157 0.85879 0.3928 0.0
C47 C 0.83402 0.8247 0.37761 0.0
C48 C 0.83074 0.88234 0.38676 0.0
C49 C 0.77726 0.75943 0.38516 0.0
O50 O 0.78193 0.62035 0.40618 0.0
O51 O 0.75796 0.65243 0.38374 0.0
C52 C 0.75408 0.62084 0.39362 0.0
O53 O 0.8322 0.70744 0.35792 0.0
O54 O 0.84634 0.61922 0.43171 0.0
O55 O 0.8933 0.65206 0.40632 0.0
O56 O 0.83406 0.65274 0.36702 0.0
C57 C 0.83495 0.67762 0.35095 0.0
O58 O 0.86477 0.756 0.40463 0.0
O59 O 0.89358 0.72074 0.39599 0.0
O60 O 0.84323 0.69756 0.44111 0.0
O61 O 0.78508 0.74256 0.3672 0.0
O62 O 0.77883 0.74617 0.40682 0.0
O63 O 0.78472 0.68607 0.42971 0.0
C64 C 0.8794 0.58871 0.41505 0.0
C65 C 0.88146 0.56586 0.43382 0.0
C66 C 0.88696 0.54853 0.38425 0.0
C67 C 0.88666 0.5349 0.42791 0.0
C68 C 0.88154 0.57936 0.39016 0.0
C69 C 0.89016 0.52621 0.40306 0.0
C70 C 0.87802 0.62363 0.42189 0.0
C71 C 0.89567 0.75384 0.39985 0.0
H72 H 0.74408 0.80139 0.39676 0.0
H73 H 0.88161 0.88175 0.37371 0.0
H74 H 0.77468 0.87114 0.39938 0.0
H75 H 0.85103 0.81191 0.37211 0.0
H76 H 0.88008 0.57261 0.45314 0.0
H77 H 0.88893 0.54232 0.36491 0.0
H78 H 0.88931 0.5186 0.44289 0.0
H79 H 0.87983 0.59636 0.37528 0.0
Eu80 Eu 0.86893 0.21506 0.11102 0.0
Eu81 Eu 0.96052 0.25728 0.12881 0.0
C82 C 0.8915 0.22281 0.16822 0.0
C83 C 0.75867 0.1762 0.10308 0.0
C84 C 0.73694 0.15257 0.12287 0.0
C85 C 0.70398 0.18363 0.09195 0.0
C86 C 0.69906 0.14407 0.12688 0.0
C87 C 0.74188 0.19198 0.08785 0.0
C88 C 0.68185 0.15893 0.11122 0.0
C89 C 0.79683 0.18103 0.09662 0.0
O90 O 0.94548 0.19875 0.11464 0.0
O91 O 0.88058 0.16807 0.12179 0.0
C92 C 0.91235 0.16721 0.11783 0.0
O93 O 0.90628 0.21929 0.07826 0.0
O94 O 1.0068 0.27651 0.15617 0.0
O95 O 1.02045 0.28533 0.11707 0.0
O96 O 0.95552 0.27646 0.09082 0.0
C97 C 0.93864 0.25089 0.07334 0.0
O98 O 0.89012 0.27848 0.11252 0.0
O99 O 0.94382 0.3015 0.13759 0.0
O100 O 0.92388 0.22472 0.16147 0.0
O101 O 0.82341 0.214 0.08795 0.0
O102 O 0.81096 0.16577 0.11143 0.0
O103 O 0.86904 0.22623 0.15202 0.0
C104 C 0.05971 0.27041 0.14157 0.0
C105 C 0.08681 0.27758 0.1228 0.0
C106 C 0.08082 0.23098 0.16265 0.0
C107 C 0.11009 0.26103 0.12366 0.0
C108 C 0.05734 0.24735 0.16171 0.0
C109 C 0.10711 0.23714 0.14346 0.0
C110 C 0.03344 0.28601 0.13931 0.0
C111 C 0.91717 0.30569 0.12634 0.0
H112 H 0.74877 0.13972 0.13495 0.0
H113 H 0.69153 0.19532 0.07942 0.0
H114 H 0.68305 0.12541 0.14211 0.0
H115 H 0.75766 0.20987 0.07227 0.0
H116 H 0.08942 0.29538 0.1071 0.0
H117 H 0.07826 0.21339 0.17844 0.0
H118 H 0.12966 0.26614 0.10842 0.0
H119 H 0.03702 0.24148 0.1766 0.0
Eu120 Eu 0.33862 0.09461 0.3941 0.0
Eu121 Eu 0.39018 0.18355 0.4145 0.0
C122 C 0.36705 0.11219 0.44852 0.0
C123 C 0.24935 0.99864 0.38124 0.0
C124 C 0.23165 0.96011 0.38827 0.0
C125 C 0.1862 0.99208 0.37615 0.0
C126 C 0.19156 0.93779 0.38955 0.0
C127 C 0.22637 1.01449 0.37509 0.0
C128 C 0.16823 0.95351 0.38371 0.0
C129 C 0.29149 0.02272 0.38301 0.0
O130 O 0.43346 0.16514 0.4063 0.0
O131 O 0.39904 0.11026 0.38258 0.0
C132 C 0.43172 0.13776 0.39197 0.0
O133 O 0.34196 0.13214 0.36275 0.0
O134 O 0.43765 0.22673 0.43715 0.0
O135 O 0.39927 0.24126 0.41833 0.0
O136 O 0.39855 0.18676 0.37281 0.0
C137 C 0.37255 0.16446 0.35641 0.0
O138 O 0.29695 0.11039 0.41133 0.0
O139 O 0.33199 0.175 0.40542 0.0
O140 O 0.3636 0.14284 0.44726 0.0
O141 O 0.30891 0.04939 0.36633 0.0
O142 O 0.30446 0.03494 0.40531 0.0
O143 O 0.37093 0.09696 0.42819 0.0
C144 C 0.46395 0.29091 0.42334 0.0
C145 C 0.48933 0.31621 0.44129 0.0
C146 C 0.49974 0.33822 0.39149 0.0
C147 C 0.51952 0.35235 0.43446 0.0
C148 C 0.4697 0.30197 0.39832 0.0
C149 C 0.52481 0.364 0.40952 0.0
C150 C 0.43081 0.25401 0.43121 0.0
C151 C 0.29892 0.14368 0.40887 0.0
H152 H 0.24891 0.94756 0.39351 0.0
H153 H 0.16929 1.00512 0.37121 0.0
H154 H 0.179 0.90853 0.39593 0.0
H155 H 0.23946 0.04439 0.36997 0.0
H156 H 0.48536 0.30828 0.46069 0.0
H157 H 0.50334 0.34608 0.37209 0.0
H158 H 0.53804 0.37159 0.44884 0.0
H159 H 0.45066 0.28282 0.38408 0.0
Eu160 Eu 0.82079 0.65153 0.11212 0.0
Eu161 Eu 0.80649 0.72128 0.12964 0.0
C162 C 0.82598 0.67454 0.16915 0.0
C163 C 0.85116 0.5756 0.10117 0.0
C164 C 0.85569 0.55456 0.08208 0.0
C165 C 0.88074 0.55207 0.13004 0.0
C166 C 0.87177 0.53167 0.08701 0.0
C167 C 0.86466 0.57506 0.12507 0.0
C168 C 0.88345 0.52931 0.11119 0.0
C169 C 0.82899 0.59469 0.09622 0.0
O170 O 0.87141 0.74963 0.12943 0.0
O171 O 0.87831 0.70486 0.10679 0.0
C172 C 0.89283 0.73892 0.11718 0.0
O173 O 0.78975 0.66431 0.08193 0.0
O174 O 0.81243 0.76534 0.15573 0.0
O175 O 0.77876 0.75484 0.12219 0.0
O176 O 0.8221 0.72796 0.08938 0.0
C177 C 0.801 0.6993 0.07457 0.0
O178 O 0.76313 0.62401 0.13059 0.0
O179 O 0.74753 0.66954 0.12142 0.0
O180 O 0.80329 0.68819 0.16377 0.0
O181 O 0.80462 0.59152 0.11331 0.0
O182 O 0.84719 0.62888 0.0866 0.0
O183 O 0.84223 0.66461 0.15166 0.0
C184 C 0.81315 0.8187 0.13679 0.0
C185 C 0.79128 0.83384 0.12713 0.0
C186 C 0.86927 0.88281 0.13757 0.0
C187 C 0.80816 0.87309 0.12275 0.0
C188 C 0.85242 0.84344 0.14176 0.0
C189 C 0.84728 0.89815 0.12816 0.0
C190 C 0.79441 0.77717 0.14139 0.0
C191 C 0.73721 0.63382 0.12651 0.0
H192 H 0.84552 0.55475 0.06352 0.0
H193 H 0.88932 0.55072 0.14886 0.0
H194 H 0.87415 0.51502 0.072 0.0
H195 H 0.86142 0.59122 0.14006 0.0
H196 H 0.76104 0.81522 0.12296 0.0
H197 H 0.89935 0.90126 0.14218 0.0
H198 H 0.79052 0.88375 0.11502 0.0
H199 H 0.87009 0.8325 0.14906 0.0
Eu200 Eu 0.95912 0.24554 0.3892 0.0
Eu201 Eu 0.86877 0.20733 0.40732 0.0
C202 C 0.93879 0.24054 0.44492 0.0
C203 C 0.05518 0.2513 0.38305 0.0
C204 C 0.04344 0.22123 0.40006 0.0
C205 C 0.11174 0.24648 0.37353 0.0
C206 C 0.0656 0.20386 0.40376 0.0
C207 C 0.08945 0.2638 0.36981 0.0
C208 C 0.10004 0.2162 0.39052 0.0
C209 C 1.03125 0.26894 0.37883 0.0
O210 O 0.89238 0.27132 0.40613 0.0
O211 O 0.94496 0.29186 0.38031 0.0
C212 C 0.91937 0.29766 0.39195 0.0
O213 O 0.92254 0.21813 0.35553 0.0
O214 O 0.82479 0.20924 0.43051 0.0
O215 O 0.81 0.15941 0.40769 0.0
O216 O 0.86772 0.21892 0.3665 0.0
C217 C 0.89011 0.21656 0.34961 0.0
O218 O 0.94063 0.1863 0.40376 0.0
O219 O 0.87686 0.15865 0.39448 0.0
O220 O 0.9056 0.20975 0.44001 0.0
O221 O 1.00334 0.25147 0.36289 0.0
O222 O 1.02008 0.27915 0.39869 0.0
O223 O 0.9564 0.26556 0.42746 0.0
C224 C 0.76095 0.17452 0.4146 0.0
C225 C 0.73545 0.17319 0.43286 0.0
C226 C 0.71435 0.16636 0.38289 0.0
C227 C 0.69956 0.1682 0.42626 0.0
C228 C 0.75037 0.17164 0.3895 0.0
C229 C 0.68835 0.16419 0.40121 0.0
C230 C 0.7972 0.17649 0.42216 0.0
C231 C 0.90727 0.1557 0.39901 0.0
H232 H 1.01711 0.21119 0.41054 0.0
H233 H 0.13783 0.2564 0.3628 0.0
H234 H 0.05594 0.18104 0.41722 0.0
H235 H 0.09888 0.28682 0.3565 0.0
H236 H 0.74296 0.1752 0.45232 0.0
H237 H 0.7068 0.16389 0.36343 0.0
H238 H 0.68012 0.16629 0.44085 0.0
H239 H 0.76966 0.17279 0.37502 0.0
Eu240 Eu 0.11239 0.32216 0.63315 0.0
Eu241 Eu 0.20016 0.37112 0.60982 0.0
C242 C 0.12768 0.31031 0.57839 0.0
C243 C 1.01618 0.23492 0.64608 0.0
C244 C 1.0305 0.21041 0.65159 0.0
C245 C 0.95496 0.17931 0.63453 0.0
C246 C 1.00723 0.17073 0.64866 0.0
C247 C 0.97818 0.21901 0.63767 0.0
C248 C 0.96925 0.15461 0.63982 0.0
C249 C 0.04142 0.277 0.64711 0.0
O250 O 0.18105 0.41346 0.61854 0.0
O251 O 0.1166 0.37294 0.61271 0.0
C252 C 0.14671 0.40769 0.61332 0.0
O253 O 0.14588 0.36737 0.66172 0.0
O254 O 0.24167 0.41698 0.58568 0.0
O255 O 0.2589 0.38221 0.60622 0.0
O256 O 0.20618 0.37818 0.65161 0.0
C257 C 0.18205 0.37984 0.66749 0.0
O258 O 0.1446 0.29347 0.64637 0.0
O259 O 0.18847 0.31061 0.61481 0.0
O260 O 0.15684 0.3457 0.57801 0.0
O261 O 0.07072 0.29047 0.66228 0.0
O262 O 0.05071 0.29415 0.62567 0.0
O263 O 0.11658 0.29227 0.59943 0.0
C264 C 0.30663 0.44697 0.59939 0.0
C265 C 0.3332 0.46917 0.58101 0.0
C266 C 0.35169 0.48895 0.63091 0.0
C267 C 0.36888 0.5008 0.5875 0.0
C268 C 0.31593 0.45745 0.6244 0.0
C269 C 0.37884 0.51081 0.61255 0.0
C270 C 0.27021 0.41225 0.59223 0.0
C271 C 0.16935 0.28821 0.6335 0.0
H272 H 0.05989 0.22191 0.65784 0.0
H273 H 0.92614 0.16813 0.62732 0.0
H274 H 1.01912 0.15272 0.65331 0.0
H275 H 0.96671 0.2374 0.63298 0.0
H276 H 0.32664 0.46159 0.56161 0.0
H277 H 0.35811 0.49613 0.65035 0.0
H278 H 0.38913 0.51671 0.57288 0.0
H279 H 0.29577 0.44094 0.63892 0.0
Eu280 Eu 0.21262 0.8527 0.9112 0.0
Eu281 Eu 0.25309 0.9429 0.89171 0.0
C282 C 0.22115 0.87265 0.85249 0.0
C283 C 0.1785 0.74437 0.92074 0.0
C284 C 0.19787 0.72916 0.93391 0.0
C285 C 0.14407 0.68408 0.8978 0.0
C286 C 0.19027 0.69178 0.92923 0.0
C287 C 0.15179 0.72151 0.90241 0.0
C288 C 0.1628 0.6685 0.91139 0.0
C289 C 0.18414 0.78255 0.9278 0.0
O290 O 0.18932 0.91864 0.88829 0.0
O291 O 0.16776 0.87003 0.91694 0.0
C292 C 0.16225 0.89329 0.90277 0.0
O293 O 0.24763 0.89417 0.94229 0.0
O294 O 0.26556 0.98622 0.86369 0.0
O295 O 0.28839 1.00403 0.90076 0.0
O296 O 0.23411 0.93997 0.93104 0.0
C297 C 0.24573 0.92492 0.94777 0.0
O298 O 0.26655 0.86568 0.89105 0.0
O299 O 0.30112 0.93023 0.89927 0.0
O300 O 0.24728 0.9083 0.85767 0.0
O301 O 0.21919 0.81009 0.93227 0.0
O302 O 0.16396 0.79482 0.91621 0.0
O303 O 0.20044 0.84783 0.86985 0.0
C304 C 0.26798 0.04189 0.87954 0.0
C305 C 0.29349 0.08149 0.8815 0.0
C306 C 0.2146 0.05382 0.87641 0.0
C307 C 0.27966 0.10719 0.88064 0.0
C308 C 0.22841 0.02828 0.87735 0.0
C309 C 0.24007 0.09362 0.87766 0.0
C310 C 0.28255 1.01485 0.87923 0.0
C311 C 0.29945 0.89785 0.89298 0.0
H312 H 0.21828 0.74588 0.94834 0.0
H313 H 0.12313 0.6672 0.88368 0.0
H314 H 0.20494 0.68067 0.94024 0.0
H315 H 0.13625 0.7322 0.89191 0.0
H316 H 0.32413 0.09256 0.88328 0.0
H317 H 0.1839 0.04236 0.87453 0.0
H318 H 0.30003 0.13767 0.88153 0.0
H319 H 0.20822 0.99783 0.87593 0.0
Eu320 Eu 0.72709 0.79401 0.63362 0.0
Eu321 Eu 0.67821 0.83319 0.61165 0.0
C322 C 0.7161 0.79729 0.57667 0.0
C323 C 0.8125 0.77928 0.64535 0.0
C324 C 0.84173 0.81786 0.64314 0.0
C325 C 0.86009 0.75984 0.63892 0.0
C326 C 0.87992 0.8273 0.63884 0.0
C327 C 0.82209 0.75046 0.64344 0.0
C328 C 0.88937 0.79832 0.63631 0.0
C329 C 0.77183 0.76842 0.6489 0.0
O330 O 0.63652 0.76921 0.6127 0.0
O331 O 0.66516 0.74978 0.64166 0.0
C332 C 0.63509 0.74351 0.6283 0.0
O333 O 0.71524 0.82189 0.6658 0.0
O334 O 0.63198 0.83047 0.5886 0.0
O335 O 0.67282 0.88376 0.60631 0.0
O336 O 0.66253 0.82482 0.65242 0.0
C337 C 0.68501 0.82535 0.67031 0.0
O338 O 0.77025 0.85202 0.61834 0.0
O339 O 0.73479 0.88056 0.62626 0.0
O340 O 0.71409 0.82846 0.58043 0.0
O341 O 0.76524 0.79209 0.66157 0.0
O342 O 0.74967 0.75494 0.62947 0.0
O343 O 0.70872 0.77327 0.59476 0.0
C344 C 0.60955 0.87341 0.59999 0.0
C345 C 0.57321 0.85202 0.58877 0.0
C346 C 0.58744 0.91321 0.6201 0.0
C347 C 0.54435 0.86113 0.59313 0.0
C348 C 0.61624 0.90404 0.61581 0.0
C349 C 0.55121 0.8921 0.60866 0.0
C350 C 0.64105 0.86571 0.59358 0.0
C351 C 0.76815 0.883 0.62246 0.0
H352 H 0.83498 0.84064 0.64437 0.0
H353 H 0.86656 0.73691 0.63726 0.0
H354 H 0.9018 0.85713 0.63667 0.0
H355 H 0.80005 0.72058 0.64511 0.0
H356 H 0.5673 0.82865 0.5762 0.0
H357 H 0.5936 0.93693 0.63241 0.0
H358 H 0.51699 0.84454 0.58375 0.0
H359 H 0.64395 0.9214 0.62463 0.0
Eu360 Eu 0.1964 0.37792 0.90533 0.0
Eu361 Eu 0.10999 0.32618 0.88046 0.0
C362 C 0.18052 0.38294 0.84651 0.0
C363 C 0.30402 0.44954 0.92024 0.0
C364 C 0.31051 0.47902 0.90374 0.0
C365 C 0.37292 0.47982 0.92719 0.0
C366 C 0.34816 0.50879 0.89901 0.0
C367 C 0.33545 0.45032 0.93196 0.0
C368 C 0.37986 0.50932 0.91052 0.0
C369 C 0.26515 0.41701 0.92517 0.0
O370 O 0.1441 0.2981 0.86941 0.0
O371 O 0.18476 0.31704 0.9027 0.0
C372 C 0.16794 0.29383 0.88382 0.0
O373 O 0.15193 0.35557 0.93647 0.0
O374 O 0.06955 0.28567 0.8531 0.0
O375 O 0.04833 0.30333 0.88446 0.0
O376 O 0.1121 0.30019 0.91635 0.0
C377 C 0.12303 0.3201 0.93683 0.0
O378 O 0.17904 0.42097 0.89497 0.0
O379 O 0.11357 0.38062 0.89553 0.0
O380 O 0.1437 0.36871 0.85105 0.0
O381 O 0.23754 0.4244 0.92931 0.0
O382 O 0.25396 0.38668 0.91131 0.0
O383 O 0.20459 0.38378 0.86347 0.0
C384 C 1.0119 0.23864 0.87198 0.0
C385 C 1.01511 0.22294 0.8944 0.0
C386 C 0.95525 0.17744 0.86168 0.0
C387 C 0.98829 0.18516 0.90064 0.0
C388 C 0.98206 0.21549 0.85552 0.0
C389 C 0.95775 0.16205 0.88451 0.0
C390 C 0.0394 0.27913 0.86606 0.0
C391 C 0.14397 0.41542 0.89602 0.0
H392 H 0.28659 0.4788 0.89439 0.0
H393 H 0.3965 0.47963 0.93671 0.0
H394 H 0.35252 0.53093 0.88597 0.0
H395 H 0.33103 0.42786 0.94477 0.0
H396 H 0.03813 0.2401 0.90726 0.0
H397 H 0.93194 0.16044 0.84893 0.0
H398 H 0.9914 0.17407 0.91819 0.0
H399 H 0.97917 0.227 0.83808 0.0
Eu400 Eu 0.25159 0.93365 0.63455 0.0
Eu401 Eu 0.22579 0.84722 0.61428 0.0
C402 C 0.25513 0.9192 0.57838 0.0
C403 C 0.25674 0.02937 0.64999 0.0
C404 C 0.24587 0.03919 0.62768 0.0
C405 C 0.24052 0.07163 0.67242 0.0
C406 C 0.23249 0.06519 0.6278 0.0
C407 C 0.25411 0.04592 0.67228 0.0
C408 C 0.22944 0.08145 0.65021 0.0
C409 C 0.27093 1.00212 0.65068 0.0
O410 O 0.287 0.87113 0.62607 0.0
O411 O 0.30813 0.93564 0.62608 0.0
C412 C 0.31497 0.90692 0.62621 0.0
O413 O 0.25658 0.90004 0.66562 0.0
O414 O 0.19696 0.79987 0.58722 0.0
O415 O 0.22447 0.79346 0.6207 0.0
O416 O 0.20558 0.84301 0.65405 0.0
C417 C 0.22839 0.86601 0.67146 0.0
O418 O 0.18596 0.9014 0.63535 0.0
O419 O 0.17504 0.85436 0.60701 0.0
O420 O 0.25994 0.89017 0.58403 0.0
O421 O 0.25051 0.971 0.66356 0.0
O422 O 0.28372 0.99565 0.62999 0.0
O423 O 0.23814 0.93059 0.59413 0.0
C424 C 0.19555 0.73905 0.59297 0.0
C425 C 0.22416 0.72896 0.59322 0.0
C426 C 0.14736 0.6724 0.58572 0.0
C427 C 0.21445 0.69078 0.58994 0.0
C428 C 0.15727 0.71079 0.58847 0.0
C429 C 0.17574 0.66173 0.58704 0.0
C430 C 0.20487 0.77777 0.60054 0.0
C431 C 0.16282 0.8735 0.62022 0.0
H432 H 0.24752 0.0267 0.61021 0.0
H433 H 0.239 0.08411 0.68993 0.0
H434 H 0.22389 0.07206 0.61044 0.0
H435 H 0.26255 0.03889 0.68965 0.0
H436 H 0.25393 0.75049 0.59661 0.0
H437 H 0.11723 0.651 0.5838 0.0
H438 H 0.2373 0.68401 0.59031 0.0
H439 H 0.13475 0.71807 0.58849 0.0
Eu440 Eu 0.66517 0.83304 0.9105 0.0
Eu441 Eu 0.72364 0.80464 0.89009 0.0
C442 C 0.67629 0.8246 0.85179 0.0
C443 C 0.5893 0.86322 0.91918 0.0
C444 C 0.58205 0.86398 0.89382 0.0
C445 C 0.53541 0.87218 0.92902 0.0
C446 C 0.55173 0.86902 0.8861 0.0
C447 C 0.56584 0.86731 0.9367 0.0
C448 C 0.528 0.87314 0.90362 0.0
C449 C 0.62155 0.85889 0.92767 0.0
O450 O 0.75563 0.86936 0.8871 0.0
O451 O 0.72565 0.87907 0.91985 0.0
C452 C 0.75453 0.89198 0.90425 0.0
O453 O 0.67461 0.80018 0.9411 0.0
O454 O 0.76535 0.80631 0.86347 0.0
O455 O 0.74972 0.7691 0.89542 0.0
O456 O 0.73613 0.81886 0.93039 0.0
C457 C 0.70828 0.80427 0.9466 0.0
O458 O 0.62549 0.77505 0.89412 0.0
O459 O 0.66615 0.75075 0.8973 0.0
O460 O 0.68808 0.80061 0.85736 0.0
O461 O 0.61441 0.82397 0.93117 0.0
O462 O 0.65439 0.88015 0.91659 0.0
O463 O 0.67073 0.84467 0.86898 0.0
C464 C 0.8139 0.79891 0.88207 0.0
C465 C 0.83456 0.8325 0.8962 0.0
C466 C 0.87181 0.79487 0.87755 0.0
C467 C 0.87375 0.84748 0.90071 0.0
C468 C 0.83258 0.77997 0.87297 0.0
C469 C 0.8929 0.82904 0.89122 0.0
C470 C 0.77306 0.78397 0.87665 0.0
C471 C 0.63128 0.74582 0.89487 0.0
H472 H 0.59996 0.86089 0.88002 0.0
H473 H 0.51732 0.87454 0.943 0.0
H474 H 0.54708 0.86999 0.86641 0.0
H475 H 0.57102 0.86668 0.95636 0.0
H476 H 0.82041 0.84732 0.90351 0.0
H477 H 0.88586 0.78024 0.8698 0.0
H478 H 0.88909 0.87356 0.91157 0.0
H479 H 0.81695 0.75395 0.86207 0.0
H480 H 0.18249 0.26617 0.12851 0.0
H481 H 0.08443 0.16397 0.15854 0.0
H482 H 0.12243 0.13146 0.1586 0.0
H483 H 0.21379 0.21633 0.08736 0.0
H484 H 0.26425 0.24993 0.09196 0.0
H485 H 0.2297 0.26569 0.09482 0.0
H486 H 0.25468 0.29125 0.1391 0.0
H487 H 0.28931 0.27559 0.13637 0.0
H488 H 0.25586 0.25936 0.16191 0.0
H489 H 0.17081 0.10991 0.15551 0.0
H490 H 0.22625 0.10056 0.14925 0.0
H491 H 0.29242 0.21585 0.11975 0.0
C492 C 0.16884 0.23686 0.13495 0.0
C493 C 0.13042 0.2178 0.1437 0.0
C494 C 0.11397 0.17956 0.15222 0.0
C495 C 0.13524 0.16069 0.15214 0.0
C496 C 0.1729 0.1803 0.14336 0.0
C497 C 0.18958 0.21749 0.13487 0.0
C498 C 0.23052 0.23192 0.12625 0.0
C499 C 0.2348 0.24153 0.09845 0.0
C500 C 0.25929 0.26658 0.14184 0.0
C501 C 0.23426 0.19703 0.13128 0.0
C502 C 0.20068 0.16762 0.14119 0.0
C503 C 0.19723 0.1327 0.14771 0.0
C504 C 0.22898 0.12772 0.14411 0.0
C505 C 0.26378 0.15744 0.13397 0.0
C506 C 0.26622 0.19247 0.12738 0.0
H507 H 0.12111 0.8765 0.37375 0.0
H508 H 0.1183 0.977 0.40005 0.0
H509 H 0.04804 0.93759 0.40576 0.0
H510 H 1.03015 0.83115 0.34162 0.0
H511 H 1.01806 0.78354 0.35087 0.0
H512 H 0.06774 0.82023 0.34743 0.0
H513 H 0.08145 0.80862 0.39255 0.0
H514 H 0.03182 0.77194 0.39613 0.0
H515 H 0.05328 0.81171 0.41757 0.0
H516 H 0.97758 0.88628 0.40952 0.0
H517 H 0.91367 0.82745 0.41165 0.0
H518 H 0.96402 0.76069 0.38492 0.0
C519 C 0.10591 0.89036 0.38082 0.0
C520 C 0.12552 0.93006 0.38631 0.0
C521 C 0.10407 0.94687 0.3952 0.0
C522 C 0.06411 0.92464 0.3987 0.0
C523 C 0.04589 0.88556 0.39334 0.0
C524 C 0.06616 0.86859 0.38463 0.0
C525 C 0.04011 0.82586 0.38101 0.0
C526 C 0.03895 0.81455 0.3536 0.0
C527 C 0.0524 0.80321 0.39782 0.0
C528 C 1.00201 0.82133 0.38919 0.0
C529 C 1.00579 0.85608 0.39608 0.0
C530 C 0.97434 0.85892 0.40421 0.0
C531 C 0.93814 0.82532 0.40537 0.0
C532 C 0.93378 0.78935 0.39861 0.0
C533 C 0.9663 0.78761 0.39039 0.0
H534 H 0.85132 0.09748 0.13045 0.0
H535 H 0.96936 0.15206 0.10427 0.0
H536 H 0.96575 0.08904 0.10364 0.0
H537 H 0.85722 0.03059 0.17084 0.0
H538 H 0.80885 0.99269 0.16437 0.0
H539 H 0.82081 0.04197 0.16226 0.0
H540 H 0.79567 0.03031 0.11698 0.0
H541 H 0.78372 0.981 0.11893 0.0
H542 H 0.81499 1.01108 0.09462 0.0
H543 H 0.94852 1.01936 0.10559 0.0
H544 H 0.91978 0.94944 0.11087 0.0
H545 H 0.8142 0.94213 0.13734 0.0
C546 C 0.87644 0.09629 0.12447 0.0
C547 C 0.91058 0.12971 0.1173 0.0
C548 C 0.94286 0.12683 0.10983 0.0
C549 C 0.94107 0.09117 0.10938 0.0
C550 C 0.90689 0.05879 0.11657 0.0
C551 C 0.87524 0.06113 0.12407 0.0
C552 C 0.84212 0.02233 0.13132 0.0
C553 C 0.83166 0.02189 0.15883 0.0
C554 C 0.80706 1.01049 0.11445 0.0
C555 C 0.85997 0.99767 0.12666 0.0
C556 C 0.89729 1.01911 0.11809 0.0
C557 C 0.91938 1.00234 0.11241 0.0
C558 C 0.90288 0.96263 0.11561 0.0
C559 C 0.86468 0.94016 0.12452 0.0
C560 C 0.84321 0.95822 0.13012 0.0
H561 H 0.29363 0.20846 0.4048 0.0
H562 H 0.22357 0.08482 0.41173 0.0
H563 H 0.16479 0.08976 0.40861 0.0
H564 H 0.23173 0.23249 0.44004 0.0
H565 H 0.24102 0.27198 0.42016 0.0
H566 H 0.27711 0.25849 0.42406 0.0
H567 H 0.27946 0.25088 0.37643 0.0
H568 H 0.24321 0.26408 0.37239 0.0
H569 H 0.23575 0.21933 0.35989 0.0
H570 H 0.11354 0.10864 0.40327 0.0
H571 H 0.07454 0.13946 0.39655 0.0
H572 H 0.1789 0.25061 0.39332 0.0
C573 C 0.26599 0.18234 0.40591 0.0
C574 C 0.26331 0.14622 0.40864 0.0
C575 C 0.22644 0.11284 0.40982 0.0
C576 C 0.19287 0.11537 0.40801 0.0
C577 C 0.19667 0.15146 0.40506 0.0
C578 C 0.23236 0.18433 0.4041 0.0
C579 C 0.22885 0.2196 0.40026 0.0
C580 C 0.24567 0.24726 0.42246 0.0
C581 C 0.24795 0.23964 0.37579 0.0
C582 C 0.18557 0.20152 0.399 0.0
C583 C 0.16745 0.16222 0.40189 0.0
C584 C 0.12749 0.13941 0.40116 0.0
C585 C 0.10556 0.15723 0.39744 0.0
C586 C 0.12356 0.19753 0.39444 0.0
C587 C 0.16417 0.21975 0.39527 0.0
H588 H 0.09908 0.92362 0.14674 0.0
H589 H 0.14713 0.87595 0.09507 0.0
H590 H 0.082 0.8225 0.08591 0.0
H591 H 1.02671 0.83493 0.17145 0.0
H592 H 0.99051 0.8486 0.17409 0.0
H593 H 0.0407 0.88459 0.17579 0.0
H594 H 0.03173 0.92156 0.13977 0.0
H595 H 0.98143 0.88572 0.13802 0.0
H596 H 1.01137 0.89715 0.11085 0.0
H597 H 1.01291 0.77283 0.08368 0.0
H598 H 0.94316 0.72985 0.08784 0.0
H599 H 0.93801 0.80902 0.14057 0.0
C600 C 0.09578 0.90222 0.13323 0.0
C601 C 0.12831 0.90388 0.12173 0.0
C602 C 0.12279 0.87503 0.10439 0.0
C603 C 0.08586 0.84466 0.09893 0.0
C604 C 0.05455 0.84349 0.11087 0.0
C605 C 0.05895 0.87151 0.12757 0.0
C606 C 1.02031 0.8625 0.13831 0.0
C607 C 1.01953 0.85734 0.16659 0.0
C608 C 1.01065 0.89358 0.13131 0.0
C609 C 0.99371 0.82481 0.12527 0.0
C610 C 1.0142 0.81459 0.10947 0.0
C611 C 0.99648 0.78062 0.09586 0.0
C612 C 0.95673 0.7563 0.09844 0.0
C613 C 0.93485 0.76591 0.11453 0.0
C614 C 0.95375 0.80087 0.12801 0.0
H615 H 0.80059 0.92917 0.37704 0.0
H616 H 0.90437 0.93237 0.40296 0.0
H617 H 0.93573 1.0025 0.40807 0.0
H618 H 0.84678 1.01818 0.34368 0.0
H619 H 0.81168 0.03128 0.35265 0.0
H620 H 0.79792 0.98148 0.35013 0.0
H621 H 0.77308 0.97041 0.39544 0.0
H622 H 0.78677 1.02017 0.39809 0.0
H623 H 0.80498 0.99955 0.41997 0.0
H624 H 0.95571 0.07284 0.4109 0.0
H625 H 0.96204 0.13701 0.41163 0.0
H626 H 0.84434 0.08712 0.38545 0.0
C627 C 0.82984 0.94445 0.38393 0.0
C628 C 0.84995 0.92495 0.38943 0.0
C629 C 0.88844 0.94647 0.39811 0.0
C630 C 0.90648 0.98639 0.40128 0.0
C631 C 0.8857 1.00455 0.3958 0.0
C632 C 0.8482 0.98425 0.38736 0.0
C633 C 0.83194 1.01047 0.38322 0.0
C634 C 0.82147 1.01034 0.35579 0.0
C635 C 0.79714 0.99949 0.4002 0.0
C636 C 0.8661 0.04869 0.39074 0.0
C637 C 0.89692 0.04475 0.39783 0.0
C638 C 0.93171 0.07621 0.40541 0.0
C639 C 0.93503 0.11259 0.40576 0.0
C640 C 0.90369 0.11723 0.39868 0.0
C641 C 0.86884 0.08467 0.39109 0.0
H642 H 0.2483 0.14227 0.61921 0.0
H643 H 0.17694 0.08137 0.6824 0.0
H644 H 0.15386 0.12755 0.68471 0.0
H645 H 0.27646 0.23646 0.64084 0.0
H646 H 0.27497 0.25481 0.61072 0.0
H647 H 0.28507 0.21627 0.61334 0.0
H648 H 0.2283 0.17438 0.58378 0.0
H649 H 0.21817 0.21289 0.58095 0.0
H650 H 0.18095 0.16625 0.59094 0.0
H651 H 0.1395 0.18042 0.68085 0.0
H652 H 0.13387 0.23675 0.67084 0.0
H653 H 0.2146 0.26409 0.61002 0.0
C654 C 0.22747 0.13843 0.63332 0.0
C655 C 0.21446 0.10833 0.65069 0.0
C656 C 0.18759 0.1045 0.66911 0.0
C657 C 0.1742 0.13046 0.6705 0.0
C658 C 0.18795 0.16008 0.65333 0.0
C659 C 0.21388 0.16422 0.63505 0.0
C660 C 0.22457 0.19912 0.61923 0.0
C661 C 0.26784 0.22839 0.62116 0.0
C662 C 0.21225 0.18745 0.59212 0.0
C663 C 0.20069 0.21398 0.63158 0.0
C664 C 0.17975 0.19091 0.65117 0.0
C665 C 0.15569 0.1987 0.66553 0.0
C666 C 0.15277 0.23087 0.65969 0.0
C667 C 0.17385 0.25499 0.63965 0.0
C668 C 0.19818 0.24634 0.62548 0.0
H669 H 0.09087 0.8306 0.91115 0.0
H670 H 0.14906 0.95214 0.89478 0.0
H671 H 0.08654 0.94945 0.89252 0.0
H672 H 1.014 0.80389 0.86922 0.0
H673 H 0.97779 0.76727 0.88866 0.0
H674 H 1.02721 0.7792 0.89137 0.0
H675 H 1.02628 0.793 0.93828 0.0
H676 H 0.97674 0.78093 0.93574 0.0
H677 H 1.01211 0.82684 0.94823 0.0
H678 H 1.01824 0.93335 0.89007 0.0
H679 H 0.94791 0.90437 0.88625 0.0
H680 H 0.93316 0.79278 0.90336 0.0
C681 C 0.09038 0.85672 0.90753 0.0
C682 C 0.12475 0.89163 0.90317 0.0
C683 C 0.12304 0.92508 0.89799 0.0
C684 C 0.08768 0.92388 0.89682 0.0
C685 C 0.05426 0.88894 0.90077 0.0
C686 C 0.05519 0.85591 0.90597 0.0
C687 C 1.01485 0.82164 0.90786 0.0
C688 C 1.00808 0.79122 0.8881 0.0
C689 C 1.00705 0.80461 0.93409 0.0
C690 C 0.99123 0.84054 0.90258 0.0
C691 C 1.01458 0.87944 0.89884 0.0
C692 C 0.99959 0.90297 0.89318 0.0
C693 C 0.95961 0.88628 0.89115 0.0
C694 C 0.93505 0.84637 0.89462 0.0
C695 C 0.95121 0.82333 0.90052 0.0
H696 H 0.77473 0.95139 0.63652 0.0
H697 H 0.8419 0.90109 0.61044 0.0
H698 H 0.90072 0.96504 0.6119 0.0
H699 H 0.82536 0.03969 0.60306 0.0
H700 H 0.82226 0.0682 0.62784 0.0
H701 H 0.78561 1.01859 0.62451 0.0
H702 H 0.79744 1.00572 0.66975 0.0
H703 H 0.83409 0.0553 0.67324 0.0
H704 H 0.8453 1.01811 0.67925 0.0
H705 H 0.95209 0.03513 0.61561 0.0
H706 H 0.99204 0.10491 0.62225 0.0
H707 H 0.89122 0.10835 0.64768 0.0
C708 C 0.80175 0.95372 0.63102 0.0
C709 C 0.80363 0.92117 0.62325 0.0
C710 C 0.83969 0.92558 0.61643 0.0
C711 C 0.87326 0.9618 0.61718 0.0
C712 C 0.87031 0.99327 0.62492 0.0
C713 C 0.83547 0.98951 0.63182 0.0
C714 C 0.84004 0.02764 0.6398 0.0
C715 C 0.81695 0.0392 0.62278 0.0
C716 C 0.82854 0.02661 0.66713 0.0
C717 C 0.88292 0.05358 0.63621 0.0
C718 C 0.89986 0.03327 0.62755 0.0
C719 C 0.93914 0.05123 0.62258 0.0
C720 C 0.96167 0.09093 0.62661 0.0
C721 C 0.945 0.11238 0.63569 0.0
C722 C 0.90498 0.09312 0.64051 0.0
H723 H 0.21767 0.27642 0.90809 0.0
H724 H 0.13331 0.23758 0.84866 0.0
H725 H 0.14324 0.18306 0.84067 0.0
H726 H 0.28255 0.25129 0.87789 0.0
H727 H 0.29457 0.23583 0.90606 0.0
H728 H 0.28116 0.2722 0.90723 0.0
H729 H 0.22721 0.23159 0.93871 0.0
H730 H 0.24046 0.1951 0.93764 0.0
H731 H 0.1917 0.1829 0.93089 0.0
H732 H 0.16118 0.13229 0.83927 0.0
H733 H 0.1869 0.08869 0.84421 0.0
H734 H 0.25996 0.15971 0.90439 0.0
C735 C 0.20133 0.2565 0.89337 0.0
C736 C 0.17468 0.26142 0.87901 0.0
C737 C 0.15393 0.23462 0.85991 0.0
C738 C 0.15933 0.20346 0.85521 0.0
C739 C 0.18569 0.19943 0.86969 0.0
C740 C 0.20645 0.22519 0.88834 0.0
C741 C 0.23292 0.214 0.90115 0.0
C742 C 0.27532 0.24519 0.89788 0.0
C743 C 0.22243 0.20538 0.92873 0.0
C744 C 0.22365 0.17788 0.88682 0.0
C745 C 0.19627 0.17005 0.86879 0.0
C746 C 0.18261 0.13808 0.85334 0.0
C747 C 0.19724 0.11335 0.8564 0.0
C748 C 0.2253 0.12061 0.87476 0.0
C749 C 0.23876 0.15352 0.89006 0.0
H750 H 0.11963 0.89712 0.64797 0.0
H751 H 0.11173 0.82245 0.58702 0.0
H752 H 0.04254 0.79802 0.58392 0.0
H753 H 1.03119 0.83146 0.67672 0.0
H754 H 1.01783 0.86647 0.68518 0.0
H755 H 0.06785 0.88065 0.6821 0.0
H756 H 0.07726 0.93241 0.65023 0.0
H757 H 1.02725 0.91849 0.65329 0.0
H758 H 0.04686 0.91872 0.62316 0.0
H759 H 0.97418 0.77785 0.58853 0.0
H760 H 0.90937 0.76493 0.59989 0.0
H761 H 0.95871 0.85253 0.65721 0.0
C762 C 0.1034 0.87604 0.63378 0.0
C763 C 0.12145 0.86177 0.61782 0.0
C764 C 0.09894 0.83392 0.5996 0.0
C765 C 0.05942 0.81978 0.5976 0.0
C766 C 0.04245 0.83381 0.61377 0.0
C767 C 0.06352 0.86151 0.6314 0.0
C768 C 0.03733 0.87066 0.64677 0.0
C769 C 0.03863 0.86177 0.67433 0.0
C770 C 0.0478 0.91256 0.64314 0.0
C771 C 0.99838 0.84313 0.6353 0.0
C772 C 1.00228 0.82233 0.61625 0.0
C773 C 0.97069 0.79413 0.6033 0.0
C774 C 0.93397 0.78681 0.60998 0.0
C775 C 0.92896 0.80761 0.62944 0.0
C776 C 0.96173 0.83644 0.6421 0.0
H777 H 0.92476 0.0952 0.85668 0.0
H778 H 0.92263 0.14017 0.92962 0.0
H779 H 0.87265 0.07567 0.94284 0.0
H780 H 0.82344 0.02915 0.85202 0.0
H781 H 0.82856 0.99217 0.83666 0.0
H782 H 0.86502 0.04172 0.83298 0.0
H783 H 0.91678 0.02641 0.84841 0.0
H784 H 0.88042 0.97681 0.8522 0.0
H785 H 0.91066 1.00349 0.87801 0.0
H786 H 0.82108 1.00749 0.94776 0.0
H787 H 0.77174 0.93915 0.9444 0.0
H788 H 0.80759 0.93672 0.86871 0.0
C789 C 0.91371 0.09142 0.87541 0.0
C790 C 0.92778 0.12277 0.89216 0.0
C791 C 0.91274 0.11656 0.91657 0.0
C792 C 0.88422 0.08004 0.92424 0.0
C793 C 0.87107 0.0498 0.90735 0.0
C794 C 0.88537 0.05494 0.88348 0.0
C795 C 0.86592 1.01743 0.86905 0.0
C796 C 0.84446 1.0203 0.84634 0.0
C797 C 0.8952 1.00533 0.86147 0.0
C798 C 0.83809 0.99062 0.88843 0.0
C799 C 0.84163 1.01 0.91037 0.0
C800 C 0.81822 0.99192 0.93074 0.0
C801 C 0.79019 0.95307 0.92862 0.0
C802 C 0.78586 0.93248 0.90634 0.0
C803 C 0.8105 0.95154 0.88608 0.0
H804 H 0.34406 0.11357 0.31845 0.0
H805 H 0.41541 0.23512 0.33409 0.0
H806 H 0.42434 0.24799 0.2888 0.0
H807 H 0.40019 0.11114 0.26773 0.0
H808 H 0.35888 0.0756 0.25078 0.0
H809 H 0.35765 0.07684 0.28414 0.0
H810 H 0.29617 0.08237 0.28236 0.0
H811 H 0.29715 0.08107 0.249 0.0
H812 H 0.29668 0.1204 0.26468 0.0
H813 H 0.42249 0.24658 0.24109 0.0
H814 H 0.41417 0.23099 0.19617 0.0
H815 H 0.34743 0.10992 0.21357 0.0
C816 C 0.36134 0.14302 0.31244 0.0
C817 C 0.37861 0.17347 0.32971 0.0
C818 C 0.40176 0.21144 0.32108 0.0
C819 C 0.40691 0.21895 0.29545 0.0
C820 C 0.38923 0.18807 0.27891 0.0
C821 C 0.36727 0.15084 0.28719 0.0
C822 C 0.35221 0.12237 0.26601 0.0
C823 C 0.3682 0.09488 0.26725 0.0
C824 C 0.30793 0.10027 0.26549 0.0
C825 C 0.36873 0.14928 0.24431 0.0
C826 C 0.38974 0.18712 0.25198 0.0
C827 C 0.40641 0.21703 0.23495 0.0
C828 C 0.40147 0.20793 0.20952 0.0
C829 C 0.38051 0.16924 0.20145 0.0
C830 C 0.36415 0.13972 0.21916 0.0
H831 H 0.82056 0.7128 0.31298 0.0
H832 H 0.85565 0.62927 0.328 0.0
H833 H 0.85967 0.62031 0.28274 0.0
H834 H 0.76031 0.66367 0.26182 0.0
H835 H 0.77254 0.70693 0.24517 0.0
H836 H 0.77444 0.70762 0.27852 0.0
H837 H 0.84562 0.76246 0.27713 0.0
H838 H 0.84395 0.76193 0.24376 0.0
H839 H 0.88011 0.756 0.25948 0.0
H840 H 0.85966 0.62127 0.23486 0.0
H841 H 0.85195 0.62928 0.18998 0.0
H842 H 0.8148 0.71049 0.20825 0.0
C843 C 0.82946 0.69282 0.30688 0.0
C844 C 0.83809 0.67195 0.32406 0.0
C845 C 0.84897 0.64565 0.31516 0.0
C846 C 0.85143 0.64046 0.2895 0.0
C847 C 0.84264 0.6616 0.27308 0.0
C848 C 0.83166 0.68708 0.28155 0.0
C849 C 0.82219 0.70536 0.26044 0.0
C850 C 0.77986 0.69527 0.26156 0.0
C851 C 0.84961 0.74902 0.2602 0.0
C852 C 0.82941 0.68621 0.23864 0.0
C853 C 0.84154 0.66129 0.24611 0.0
C854 C 0.85009 0.64066 0.22888 0.0
C855 C 0.84573 0.64543 0.20346 0.0
C856 C 0.8325 0.67026 0.19564 0.0
C857 C 0.82458 0.69095 0.21358 0.0
H858 H 0.9302 0.21239 0.20607 0.0
H859 H 0.82956 0.2222 0.19071 0.0
H860 H 0.81522 0.21761 0.23565 0.0
H861 H 0.88929 0.14514 0.25729 0.0
H862 H 0.93409 0.16729 0.27413 0.0
H863 H 0.93434 0.16853 0.24074 0.0
H864 H 0.97629 0.24266 0.24205 0.0
H865 H 0.97611 0.24167 0.2754 0.0
H866 H 0.95974 0.26994 0.2594 0.0
H867 H 0.81477 0.21599 0.28312 0.0
H868 H 0.82834 0.21749 0.32806 0.0
H869 H 0.92912 0.20859 0.31078 0.0
C870 C 0.90484 0.21315 0.21201 0.0
C871 C 0.881 0.21763 0.19482 0.0
C872 C 0.84822 0.21867 0.20352 0.0
C873 C 0.83983 0.21605 0.22902 0.0
C874 C 0.86436 0.21219 0.24548 0.0
C875 C 0.89609 0.21056 0.23722 0.0
C876 C 0.919 0.20798 0.25851 0.0
C877 C 0.91916 0.16997 0.25761 0.0
C878 C 0.9602 0.24263 0.25885 0.0
C879 C 0.89566 0.2091 0.28014 0.0
C880 C 0.86409 0.21127 0.2724 0.0
C881 C 0.83925 0.21398 0.28935 0.0
C882 C 0.84718 0.21482 0.31483 0.0
C883 C 0.87977 0.21315 0.323 0.0
C884 C 0.90388 0.20982 0.30529 0.0
H885 H 0.14066 0.38883 0.70444 0.0
H886 H 0.25122 0.39842 0.68926 0.0
H887 H 0.26745 0.40999 0.73385 0.0
H888 H 0.17313 0.46013 0.75637 0.0
H889 H 0.12873 0.43155 0.77294 0.0
H890 H 0.12906 0.43096 0.73951 0.0
H891 H 0.09778 0.35696 0.73991 0.0
H892 H 0.09753 0.35733 0.77321 0.0
H893 H 0.12087 0.33561 0.75678 0.0
H894 H 0.26714 0.41074 0.78101 0.0
H895 H 0.25021 0.40067 0.82559 0.0
H896 H 0.14017 0.39113 0.80888 0.0
C897 C 0.16875 0.39438 0.7103 0.0
C898 C 0.19465 0.39273 0.69331 0.0
C899 C 0.23094 0.39973 0.70189 0.0
C900 C 0.24045 0.4064 0.7272 0.0
C901 C 0.21358 0.40647 0.7436 0.0
C902 C 0.17863 0.40105 0.73537 0.0
C903 C 0.15309 0.39856 0.75673 0.0
C904 C 0.14558 0.43232 0.75636 0.0
C905 C 0.11511 0.35982 0.75664 0.0
C906 C 0.17838 0.40176 0.77835 0.0
C907 C 0.21344 0.40693 0.77054 0.0
C908 C 0.24008 0.40744 0.78733 0.0
C909 C 0.23023 0.4017 0.81263 0.0
C910 C 0.19388 0.39513 0.82077 0.0
C911 C 0.16829 0.39628 0.80337 0.0
H912 H 0.26897 0.91162 0.81434 0.0
H913 H 0.16249 0.80679 0.83086 0.0
H914 H 0.15395 0.79032 0.786 0.0
H915 H 0.23757 0.93486 0.7604 0.0
H916 H 0.28313 0.95399 0.74467 0.0
H917 H 0.28166 0.95525 0.77798 0.0
H918 H 0.31923 0.91864 0.78047 0.0
H919 H 0.32087 0.91731 0.74711 0.0
H920 H 0.30096 0.87341 0.7645 0.0
H921 H 0.15573 0.78865 0.73802 0.0
H922 H 0.16792 0.80173 0.69297 0.0
H923 H 0.27355 0.90732 0.71018 0.0
C924 C 0.24389 0.88497 0.8087 0.0
C925 C 0.2163 0.86056 0.82613 0.0
C926 C 0.18407 0.82591 0.81782 0.0
C927 C 0.17901 0.81636 0.79239 0.0
C928 C 0.20663 0.84158 0.77567 0.0
C929 C 0.23855 0.87505 0.78366 0.0
C930 C 0.26353 0.89835 0.76231 0.0
C931 C 0.26662 0.93793 0.76129 0.0
C932 C 0.30351 0.90213 0.76369 0.0
C933 C 0.24045 0.87324 0.74085 0.0
C934 C 0.20779 0.84047 0.74871 0.0
C935 C 0.18144 0.81406 0.73175 0.0
C936 C 0.18859 0.82168 0.70622 0.0
C937 C 0.22169 0.85551 0.69801 0.0
C938 C 0.248 0.88111 0.71571 0.0
H939 H 0.71502 0.80942 0.71017 0.0
H940 H 0.63608 0.84866 0.69029 0.0
H941 H 0.62496 0.85464 0.73515 0.0
H942 H 0.66218 0.75251 0.76124 0.0
H943 H 0.7048 0.76401 0.77877 0.0
H944 H 0.70624 0.76406 0.74542 0.0
H945 H 0.76321 0.83417 0.74609 0.0
H946 H 0.76191 0.83436 0.77945 0.0
H947 H 0.75802 0.87048 0.76232 0.0
H948 H 0.62471 0.85706 0.78398 0.0
H949 H 0.63234 0.85172 0.8294 0.0
H950 H 0.71029 0.80937 0.81382 0.0
C951 C 0.69549 0.81955 0.71502 0.0
C952 C 0.67669 0.82893 0.69667 0.0
C953 C 0.65089 0.8414 0.70407 0.0
C954 C 0.64452 0.84496 0.72948 0.0
C955 C 0.66397 0.83564 0.74709 0.0
C956 C 0.68872 0.82295 0.73992 0.0
C957 C 0.70579 0.81372 0.76179 0.0
C958 C 0.69403 0.77105 0.7618 0.0
C959 C 0.74983 0.83974 0.76244 0.0
C960 C 0.68689 0.82308 0.78264 0.0
C961 C 0.66303 0.836 0.77414 0.0
C962 C 0.64321 0.84675 0.79069 0.0
C963 C 0.64775 0.84376 0.81641 0.0
C964 C 0.67152 0.82969 0.82512 0.0
C965 C 0.69136 0.81963 0.80786 0.0
H966 H 0.22042 0.96294 0.97693 0.0
H967 H 0.31525 0.94192 0.96718 0.0
H968 H 0.35333 0.99254 0.99826 0.0
H969 H 0.27363 0.06246 0.98378 0.0
H970 H 0.24391 0.06556 1.00772 0.0
H971 H 0.22338 0.02653 0.98575 0.0
H972 H 0.19958 0.97647 0.02149 0.0
H973 H 0.21904 1.01535 0.04359 0.0
H974 H 0.23348 0.97973 0.04457 0.0
H975 H 0.38286 0.04998 0.02736 0.0
H976 H 0.39727 0.1011 0.05836 0.0
H977 H 0.28096 0.08024 0.05106 0.0
C978 C 0.24885 0.96838 0.98185 0.0
C979 C 0.26489 0.94843 0.96992 0.0
C980 C 0.30227 0.95647 0.97652 0.0
C981 C 0.32423 0.98547 0.9939 0.0
C982 C 0.30801 1.00556 1.00477 0.0
C983 C 0.27071 0.9965 0.99955 0.0
C984 C 0.25922 0.02093 0.01416 0.0
C985 C 0.24954 0.04544 0.99681 0.0
C986 C 0.22587 0.99668 0.03201 0.0
C987 C 0.29628 0.04608 0.02809 0.0
C988 C 0.32416 0.03689 0.02217 0.0
C989 C 0.3611 0.05712 0.03229 0.0
C990 C 0.36921 0.08644 0.04961 0.0
C991 C 0.34031 0.09474 0.05687 0.0
C992 C 0.30364 0.07462 0.04567 0.0
H993 H 0.74878 0.67019 0.47726 0.0
H994 H 0.86253 0.76729 0.46435 0.0
H995 H 0.8492 0.80594 0.49444 0.0
H996 H 0.69884 0.72 0.48272 0.0
H997 H 0.66759 0.69132 0.50749 0.0
H998 H 0.68666 0.67073 0.48604 0.0
H999 H 0.71605 0.65192 0.52226 0.0
H1000 H 0.69601 0.67135 0.54388 0.0
H1001 H 0.74685 0.68798 0.54439 0.0
H1002 H 0.81993 0.83559 0.52306 0.0
H1003 H 0.78294 0.84965 0.55414 0.0
H1004 H 0.69056 0.73153 0.55014 0.0
C1005 C 0.77125 0.69925 0.48138 0.0
C1006 C 0.80687 0.71569 0.46888 0.0
C1007 C 0.83542 0.75398 0.47425 0.0
C1008 C 0.82785 0.77625 0.49102 0.0
C1009 C 0.79183 0.75952 0.50248 0.0
C1010 C 0.76448 0.72149 0.49842 0.0
C1011 C 0.72838 0.70992 0.51339 0.0
C1012 C 0.69331 0.69725 0.49639 0.0
C1013 C 0.72143 0.67844 0.5321 0.0
C1014 C 0.73937 0.74745 0.52631 0.0
C1015 C 0.77578 0.77598 0.51948 0.0
C1016 C 0.79154 0.81334 0.52866 0.0
C1017 C 0.77016 0.82124 0.546 0.0
C1018 C 0.73381 0.79177 0.5542 0.0
C1019 C 0.71813 0.75465 0.54392 0.0
H1020 H 0.11282 0.3569 0.97712 0.0
H1021 H 0.07596 0.2444 0.94566 0.0
H1022 H 1.02401 0.21505 0.97645 0.0
H1023 H 0.09077 0.32292 0.04277 0.0
H1024 H 0.07497 0.35638 0.0503 0.0
H1025 H 0.11133 0.36824 0.02695 0.0
H1026 H 0.07001 0.38082 0.99566 0.0
H1027 H 0.03279 0.36743 0.01873 0.0
H1028 H 1.02146 0.34312 0.98938 0.0
H1029 H 0.97189 0.19832 1.00743 0.0
H1030 H 0.92847 0.19344 0.04153 0.0
H1031 H 0.99992 0.31588 0.05444 0.0
C1032 C 0.09457 0.32601 0.97725 0.0
C1033 C 0.09832 0.303 0.95887 0.0
C1034 C 0.07344 0.26268 0.95941 0.0
C1035 C 0.04375 0.24567 0.97681 0.0
C1036 C 0.03957 0.26923 0.9939 0.0
C1037 C 0.06478 0.30838 0.99474 0.0
C1038 C 0.05293 0.32632 0.01492 0.0
C1039 C 0.08437 0.34453 0.03492 0.0
C1040 C 0.04391 0.35649 1.00401 0.0
C1041 C 1.01702 0.29163 0.02484 0.0
C1042 C 1.00952 0.25867 0.01231 0.0
C1043 C 0.97734 0.22321 0.01761 0.0
C1044 C 0.95279 0.22114 0.03683 0.0
C1045 C 0.9608 0.25428 0.05063 0.0
C1046 C 0.99307 0.29002 0.04424 0.0
H1047 H 0.31292 0.09377 0.48537 0.0
H1048 H 0.40807 0.07928 0.46194 0.0
H1049 H 0.38993 0.02836 0.49291 0.0
H1050 H 0.31668 0.07222 0.55309 0.0
H1051 H 0.265 0.04712 0.55571 0.0
H1052 H 0.28891 0.0863 0.53427 0.0
H1053 H 0.24662 0.04163 0.49872 0.0
H1054 H 0.22336 1.00204 0.51986 0.0
H1055 H 0.24682 0.99778 0.4925 0.0
H1056 H 0.35661 0.97322 0.52184 0.0
H1057 H 0.31579 0.9237 0.55228 0.0
H1058 H 0.24237 0.97371 0.5577 0.0
C1059 C 0.33088 0.08106 0.48764 0.0
C1060 C 0.36224 0.09078 0.47159 0.0
C1061 C 0.38423 0.07249 0.47433 0.0
C1062 C 0.37401 0.04337 0.49174 0.0
C1063 C 0.34174 0.03288 0.50639 0.0
C1064 C 0.32097 0.05169 0.50503 0.0
C1065 C 0.28629 0.03318 0.5221 0.0
C1066 C 0.28942 0.06138 0.54251 0.0
C1067 C 0.24855 1.01775 0.50741 0.0
C1068 C 0.29048 1.00071 0.5327 0.0
C1069 C 0.32257 1.00099 0.52332 0.0
C1070 C 0.33166 0.97298 0.52962 0.0
C1071 C 0.30804 0.94467 0.54668 0.0
C1072 C 0.27588 0.94475 0.55733 0.0
C1073 C 0.26681 0.97289 0.5499 0.0
H1074 H 0.82969 0.76269 0.04525 0.0
H1075 H 0.7277 0.65221 0.05802 0.0
H1076 H 0.69136 0.66865 0.02842 0.0
H1077 H 0.78422 0.81765 0.03998 0.0
H1078 H 0.81435 0.84756 0.01521 0.0
H1079 H 0.83282 0.82693 0.03685 0.0
H1080 H 0.85003 0.79592 1.00073 0.0
H1081 H 0.83248 0.81721 0.97894 0.0
H1082 H 0.81328 0.76611 0.97867 0.0
H1083 H 0.66528 0.70038 0.99997 0.0
H1084 H 0.65389 0.73841 0.9688 0.0
H1085 H 0.77428 0.82651 0.97267 0.0
C1086 C 0.79989 0.74173 0.04144 0.0
C1087 C 0.78147 0.70617 0.05379 0.0
C1088 C 0.74245 0.67943 0.04847 0.0
C1089 C 0.72149 0.68869 0.03191 0.0
C1090 C 0.74021 0.72451 0.02056 0.0
C1091 C 0.77882 0.75017 0.02459 0.0
C1092 C 0.79281 0.7869 1.0095 0.0
C1093 C 0.8068 0.82168 0.0264 0.0
C1094 C 0.82399 0.7918 0.99085 0.0
C1095 C 0.75579 0.77771 0.99651 0.0
C1096 C 0.72579 0.74227 1.00346 0.0
C1097 C 0.68863 0.72803 0.99425 0.0
C1098 C 0.68232 0.74999 0.97679 0.0
C1099 C 0.71318 0.78538 0.96848 0.0
C1100 C 0.75017 0.79958 0.9788 0.0
H1101 H 0.11684 0.34565 0.538 0.0
H1102 H 0.07802 0.23442 0.57124 0.0
H1103 H 1.02449 0.20466 0.54141 0.0
H1104 H 1.02575 0.334 0.528 0.0
H1105 H 0.03645 0.35778 0.49843 0.0
H1106 H 0.07434 0.37048 0.52069 0.0
H1107 H 0.11325 0.35573 0.48853 0.0
H1108 H 0.0759 0.34392 0.46596 0.0
H1109 H 0.09074 0.30972 0.47315 0.0
H1110 H 0.97135 0.18769 0.5108 0.0
H1111 H 0.92763 0.18342 0.47712 0.0
H1112 H 1.00107 0.30509 0.46331 0.0
C1113 C 0.09785 0.31488 0.53843 0.0
C1114 C 0.10175 0.29237 0.55689 0.0
C1115 C 0.07567 0.25227 0.55723 0.0
C1116 C 0.045 0.23506 0.54044 0.0
C1117 C 0.04083 0.25824 0.52323 0.0
C1118 C 0.06694 0.29712 0.52171 0.0
C1119 C 0.05513 0.31553 0.50179 0.0
C1120 C 0.04747 0.34626 0.5129 0.0
C1121 C 0.08556 0.3322 0.48113 0.0
C1122 C 1.0182 0.28104 0.49267 0.0
C1123 C 1.01032 0.24831 0.50538 0.0
C1124 C 0.97737 0.21307 0.50054 0.0
C1125 C 0.95247 0.21097 0.48157 0.0
C1126 C 0.96086 0.24387 0.46763 0.0
C1127 C 0.99385 0.2794 0.47364 0.0
H1128 H 0.64854 0.2042 0.10872 0.0
H1129 H 0.62141 0.08695 0.12049 0.0
H1130 H 0.55272 0.06685 0.1252 0.0
H1131 H 0.58052 0.20312 0.15277 0.0
H1132 H 0.56836 0.23237 0.13406 0.0
H1133 H 0.61539 0.23747 0.13157 0.0
H1134 H 0.60553 0.22468 0.08425 0.0
H1135 H 0.55847 0.21955 0.08662 0.0
H1136 H 0.56392 0.18159 0.07312 0.0
H1137 H 0.48629 0.05923 0.12782 0.0
H1138 H 0.42812 0.06535 0.12955 0.0
H1139 H 0.49895 0.18766 0.11655 0.0
C1140 C 0.62813 0.17427 0.11217 0.0
C1141 C 0.64049 0.1472 0.11432 0.0
C1142 C 0.61281 0.10835 0.11911 0.0
C1143 C 0.57364 0.09659 0.12167 0.0
C1144 C 0.56246 0.12399 0.11946 0.0
C1145 C 0.58892 0.16206 0.11493 0.0
C1146 C 0.56945 0.18585 0.11364 0.0
C1147 C 0.58432 0.2165 0.13424 0.0
C1148 C 0.57465 0.20398 0.08787 0.0
C1149 C 0.52793 0.15521 0.11809 0.0
C1150 C 0.52442 0.11968 0.12131 0.0
C1151 C 0.48873 0.08696 0.12541 0.0
C1152 C 0.45581 0.09071 0.12633 0.0
C1153 C 0.45879 0.12696 0.1233 0.0
C1154 C 0.4955 0.1595 0.11911 0.0
H1155 H 0.73232 0.55258 0.41683 0.0
H1156 H 0.69078 0.6066 0.36583 0.0
H1157 H 0.62828 0.54617 0.36321 0.0
H1158 H 0.68479 0.45859 0.3882 0.0
H1159 H 0.67428 0.43382 0.41741 0.0
H1160 H 0.71603 0.48086 0.41446 0.0
H1161 H 0.69235 0.50497 0.45137 0.0
H1162 H 0.65051 0.45806 0.45442 0.0
H1163 H 0.64494 0.4993 0.45031 0.0
H1164 H 0.5697 0.47958 0.36679 0.0
H1165 H 0.51949 0.41344 0.37724 0.0
H1166 H 0.59965 0.40372 0.42617 0.0
C1167 C 0.71027 0.5518 0.40494 0.0
C1168 C 0.71664 0.58448 0.39146 0.0
C1169 C 0.68671 0.58205 0.37633 0.0
C1170 C 0.6511 0.54779 0.37469 0.0
C1171 C 0.64582 0.51622 0.38833 0.0
C1172 C 0.6746 0.518 0.4032 0.0
C1173 C 0.6614 0.48047 0.41654 0.0
C1174 C 0.68556 0.46237 0.40867 0.0
C1175 C 0.66235 0.48605 0.44483 0.0
C1176 C 0.62052 0.45728 0.40703 0.0
C1177 C 0.61214 0.47827 0.39063 0.0
C1178 C 0.57604 0.46288 0.37954 0.0
C1179 C 0.54776 0.42519 0.38549 0.0
C1180 C 0.55558 0.4033 0.4025 0.0
C1181 C 0.59261 0.41974 0.41326 0.0
H1182 H 0.86887 0.32576 0.10404 0.0
H1183 H 0.96796 0.36984 0.15296 0.0
H1184 H 0.9703 0.43221 0.15487 0.0
H1185 H 0.90061 0.41077 0.06914 0.0
H1186 H 0.85323 0.40472 0.06612 0.0
H1187 H 0.8588 0.36339 0.06932 0.0
H1188 H 0.81343 0.34134 0.10748 0.0
H1189 H 0.80751 0.38247 0.10431 0.0
H1190 H 0.82403 0.37378 0.13327 0.0
H1191 H 0.96189 0.49044 0.15074 0.0
H1192 H 0.94339 0.53893 0.14087 0.0
H1193 H 0.85012 0.45534 0.09486 0.0
C1194 C 0.89103 0.34836 0.11529 0.0
C1195 C 0.91823 0.34282 0.12836 0.0
C1196 C 0.94676 0.37334 0.14278 0.0
C1197 C 0.94834 0.40889 0.14398 0.0
C1198 C 0.92119 0.41338 0.13067 0.0
C1199 C 0.89306 0.38385 0.11665 0.0
C1200 C 0.86751 0.3959 0.10378 0.0
C1201 C 0.87023 0.39356 0.07541 0.0
C1202 C 0.82565 0.37195 0.11276 0.0
C1203 C 0.88575 0.43695 0.1126 0.0
C1204 C 0.91659 0.44661 0.12816 0.0
C1205 C 0.93775 0.48315 0.13859 0.0
C1206 C 0.927 0.51043 0.13295 0.0
C1207 C 0.89555 0.50101 0.11694 0.0
C1208 C 0.87476 0.4637 0.10678 0.0
H1209 H 0.5012 0.18309 0.41448 0.0
H1210 H 0.44462 0.09114 0.36044 0.0
H1211 H 0.50515 0.08969 0.35534 0.0
H1212 H 0.59496 0.23204 0.38525 0.0
H1213 H 0.62024 0.24399 0.41444 0.0
H1214 H 0.57319 0.23896 0.41257 0.0
H1215 H 0.54912 0.18833 0.44756 0.0
H1216 H 0.59601 0.19309 0.4495 0.0
H1217 H 0.55424 0.14666 0.44408 0.0
H1218 H 0.57225 0.09759 0.35731 0.0
H1219 H 0.63844 0.1124 0.36706 0.0
H1220 H 0.64958 0.19851 0.4202 0.0
C1221 C 0.50141 0.16283 0.40132 0.0
C1222 C 0.46804 0.13733 0.38774 0.0
C1223 C 0.46976 0.11103 0.37101 0.0
C1224 C 0.50405 0.11006 0.36797 0.0
C1225 C 0.53629 0.13548 0.38184 0.0
C1226 C 0.53512 0.16132 0.3982 0.0
C1227 C 0.57299 0.18458 0.41173 0.0
C1228 C 0.59143 0.22743 0.40562 0.0
C1229 C 0.56776 0.17774 0.43988 0.0
C1230 C 0.59575 0.16762 0.40063 0.0
C1231 C 0.57429 0.13957 0.38326 0.0
C1232 C 0.58929 0.11963 0.37078 0.0
C1233 C 0.627 0.12838 0.37636 0.0
C1234 C 0.64925 0.15664 0.39439 0.0
C1235 C 0.63327 0.17656 0.40648 0.0
H1236 H 0.5754 0.41552 0.13238 0.0
H1237 H 0.51333 0.43851 0.07563 0.0
H1238 H 0.55987 0.50789 0.07959 0.0
H1239 H 0.60438 0.50029 0.17015 0.0
H1240 H 0.65112 0.50647 0.17669 0.0
H1241 H 0.61077 0.45919 0.17109 0.0
H1242 H 0.64836 0.44852 0.13577 0.0
H1243 H 0.68889 0.49549 0.14148 0.0
H1244 H 0.66814 0.48272 0.11088 0.0
H1245 H 0.61641 0.57543 0.0884 0.0
H1246 H 0.67938 0.63257 0.09859 0.0
H1247 H 0.70446 0.56356 0.148 0.0
C1248 C 0.57148 0.43491 0.1206 0.0
C1249 C 0.54048 0.42119 0.10364 0.0
C1250 C 0.5364 0.44808 0.08903 0.0
C1251 C 0.56279 0.48764 0.09112 0.0
C1252 C 0.59315 0.49999 0.10791 0.0
C1253 C 0.59763 0.47425 0.12227 0.0
C1254 C 0.63393 0.49417 0.13771 0.0
C1255 C 0.62446 0.48976 0.16556 0.0
C1256 C 0.66145 0.47935 0.13105 0.0
C1257 C 0.64974 0.53514 0.12947 0.0
C1258 C 0.62563 0.53822 0.11259 0.0
C1259 C 0.63529 0.57331 0.10176 0.0
C1260 C 0.67098 0.6057 0.10779 0.0
C1261 C 0.6967 0.60254 0.12418 0.0
C1262 C 0.68531 0.56695 0.13553 0.0
H1263 H 0.85917 0.4544 0.42395 0.0
H1264 H 0.94102 0.52773 0.36838 0.0
H1265 H 0.95711 0.47742 0.35902 0.0
H1266 H 0.91496 0.41464 0.44707 0.0
H1267 H 0.87405 0.36745 0.45172 0.0
H1268 H 0.86833 0.40887 0.45355 0.0
H1269 H 0.81508 0.37949 0.41995 0.0
H1270 H 0.8206 0.33794 0.41805 0.0
H1271 H 0.82526 0.36507 0.39052 0.0
H1272 H 0.96595 0.41931 0.35676 0.0
H1273 H 0.96476 0.35767 0.36078 0.0
H1274 H 0.87682 0.32256 0.41761 0.0
C1275 C 0.88054 0.45995 0.40984 0.0
C1276 C 0.89873 0.49512 0.39687 0.0
C1277 C 0.92624 0.50091 0.37835 0.0
C1278 C 0.93578 0.47256 0.373 0.0
C1279 C 0.91747 0.43836 0.38624 0.0
C1280 C 0.89025 0.43188 0.40418 0.0
C1281 C 0.87473 0.39267 0.41573 0.0
C1282 C 0.88356 0.39613 0.44367 0.0
C1283 C 0.83135 0.3673 0.41075 0.0
C1284 C 0.89767 0.37823 0.40166 0.0
C1285 C 0.92224 0.40496 0.38474 0.0
C1286 C 0.94668 0.39812 0.36989 0.0
C1287 C 0.94587 0.36301 0.37234 0.0
C1288 C 0.92069 0.33505 0.38946 0.0
C1289 C 0.89635 0.34307 0.40424 0.0
H1290 H 0.20974 0.62838 0.61328 0.0
H1291 H 0.11683 0.60113 0.56137 0.0
H1292 H 0.09727 0.53263 0.56378 0.0
H1293 H 0.23539 0.56159 0.58759 0.0
H1294 H 0.24734 0.55044 0.61741 0.0
H1295 H 0.25282 0.59693 0.6121 0.0
H1296 H 0.209 0.58742 0.64993 0.0
H1297 H 0.20304 0.54072 0.6552 0.0
H1298 H 0.1614 0.54589 0.65108 0.0
H1299 H 0.08711 0.46628 0.57287 0.0
H1300 H 0.09093 0.40913 0.58493 0.0
H1301 H 0.19336 0.48166 0.6282 0.0
C1302 C 0.18568 0.60834 0.60199 0.0
C1303 C 0.16488 0.6205 0.58714 0.0
C1304 C 0.13296 0.59272 0.57323 0.0
C1305 C 0.12171 0.55368 0.57437 0.0
C1306 C 0.14284 0.54286 0.58932 0.0
C1307 C 0.17444 0.56952 0.60262 0.0
C1308 C 0.19306 0.55086 0.61678 0.0
C1309 C 0.23461 0.56584 0.60793 0.0
C1310 C 0.19151 0.55656 0.64491 0.0
C1311 C 0.16702 0.50945 0.60938 0.0
C1312 C 0.1379 0.50523 0.59378 0.0
C1313 C 0.10993 0.46932 0.58496 0.0
C1314 C 0.11219 0.43704 0.592 0.0
C1315 C 0.14251 0.44107 0.6074 0.0
C1316 C 0.17003 0.47775 0.61625 0.0
H1317 H 0.36912 0.9356 0.91699 0.0
H1318 H 0.30804 0.85578 0.85709 0.0
H1319 H 0.36326 0.84604 0.85054 0.0
H1320 H 0.46829 0.97628 0.89065 0.0
H1321 H 0.48902 0.97848 0.92064 0.0
H1322 H 0.44737 0.984 0.91812 0.0
H1323 H 0.41091 0.92841 0.94917 0.0
H1324 H 0.45223 0.92246 0.95161 0.0
H1325 H 0.4063 0.8824 0.94269 0.0
H1326 H 0.421 0.83923 0.85333 0.0
H1327 H 0.47804 0.83548 0.86544 0.0
H1328 H 0.50245 0.91925 0.92385 0.0
C1329 C 0.36805 0.91707 0.90203 0.0
C1330 C 0.33468 0.89671 0.88735 0.0
C1331 C 0.33354 0.87169 0.86845 0.0
C1332 C 0.36477 0.86609 0.86453 0.0
C1333 C 0.39687 0.88561 0.87975 0.0
C1334 C 0.39889 0.9107 0.89809 0.0
C1335 C 0.4352 0.92502 0.9134 0.0
C1336 C 0.46153 0.96854 0.91052 0.0
C1337 C 0.42556 0.91389 0.94084 0.0
C1338 C 0.45258 0.90326 0.90122 0.0
C1339 C 0.43024 0.88114 0.88164 0.0
C1340 C 0.43916 0.85694 0.86834 0.0
C1341 C 0.47174 0.85512 0.87531 0.0
C1342 C 0.49495 0.87723 0.8955 0.0
C1343 C 0.48528 0.90188 0.90839 0.0
H1344 H 0.56966 0.7167 0.59982 0.0
H1345 H 0.61743 0.68546 0.6615 0.0
H1346 H 0.55681 0.62343 0.66476 0.0
H1347 H 0.47231 0.67317 0.62305 0.0
H1348 H 0.45071 0.65728 0.59287 0.0
H1349 H 0.49752 0.69952 0.59577 0.0
H1350 H 0.5256 0.6701 0.56524 0.0
H1351 H 0.47891 0.62776 0.56226 0.0
H1352 H 0.51966 0.62364 0.57167 0.0
H1353 H 0.49072 0.56435 0.66112 0.0
H1354 H 0.42548 0.51233 0.65012 0.0
H1355 H 0.42094 0.58189 0.59061 0.0
C1356 C 0.56744 0.69696 0.61411 0.0
C1357 C 0.5985 0.70618 0.63045 0.0
C1358 C 0.59422 0.67922 0.64874 0.0
C1359 C 0.55981 0.64387 0.65077 0.0
C1360 C 0.52987 0.63574 0.63434 0.0
C1361 C 0.5334 0.66149 0.61632 0.0
C1362 C 0.49721 0.6455 0.60064 0.0
C1363 C 0.47832 0.67035 0.60325 0.0
C1364 C 0.50588 0.64151 0.57334 0.0
C1365 C 0.47279 0.60661 0.61257 0.0
C1366 C 0.49207 0.60164 0.63208 0.0
C1367 C 0.47536 0.56802 0.64593 0.0
C1368 C 0.43813 0.53869 0.63962 0.0
C1369 C 0.41786 0.54291 0.61953 0.0
C1370 C 0.43565 0.57753 0.60593 0.0
H1371 H 0.21115 0.63833 0.90997 0.0
H1372 H 0.09079 0.60591 0.90503 0.0
H1373 H 0.07292 0.5381 0.90017 0.0
H1374 H 0.2072 0.56955 0.865 0.0
H1375 H 0.24024 0.56011 0.8818 0.0
H1376 H 0.24364 0.60623 0.88448 0.0
H1377 H 0.23756 0.59883 0.93224 0.0
H1378 H 0.23409 0.55269 0.92968 0.0
H1379 H 0.1969 0.55713 0.94542 0.0
H1380 H 0.06784 0.47319 0.89701 0.0
H1381 H 0.07628 0.41671 0.89451 0.0
H1382 H 0.19993 0.49132 0.90135 0.0
C1383 C 0.18102 0.61698 0.90793 0.0
C1384 C 0.15241 0.62765 0.90778 0.0
C1385 C 0.11334 0.59869 0.90482 0.0
C1386 C 0.10285 0.55999 0.90221 0.0
C1387 C 0.13172 0.5505 0.90251 0.0
C1388 C 0.17003 0.57817 0.90519 0.0
C1389 C 0.19542 0.56031 0.90487 0.0
C1390 C 0.22326 0.57492 0.88272 0.0
C1391 C 0.21727 0.56768 0.92952 0.0
C1392 C 0.16539 0.51828 0.90177 0.0
C1393 C 0.12881 0.5132 0.90049 0.0
C1394 C 0.09639 0.47686 0.89791 0.0
C1395 C 0.10148 0.44489 0.89654 0.0
C1396 C 0.13875 0.44937 0.89767 0.0
C1397 C 0.17102 0.48673 0.90032 0.0
H1398 H 0.33752 0.8533 0.62604 0.0
H1399 H 0.38323 0.97627 0.62402 0.0
H1400 H 0.44919 0.98635 0.62048 0.0
H1401 H 0.41439 0.85512 0.66175 0.0
H1402 H 0.41269 0.81578 0.64467 0.0
H1403 H 0.36978 0.81888 0.64815 0.0
H1404 H 0.3615 0.81585 0.6004 0.0
H1405 H 0.40446 0.81293 0.59673 0.0
H1406 H 0.40035 0.85024 0.58135 0.0
H1407 H 0.51035 0.98214 0.61584 0.0
H1408 H 0.56052 0.96443 0.61031 0.0
H1409 H 0.47342 0.84412 0.61541 0.0
C1410 C 0.36127 0.8825 0.62507 0.0
C1411 C 0.35504 0.91405 0.62541 0.0
C1412 C 0.38718 0.95164 0.62393 0.0
C1413 C 0.42476 0.95761 0.62189 0.0
C1414 C 0.42967 0.92571 0.62137 0.0
C1415 C 0.39869 0.88891 0.62298 0.0
C1416 C 0.4112 0.85928 0.62137 0.0
C1417 C 0.40144 0.8359 0.64542 0.0
C1418 C 0.39332 0.83304 0.59861 0.0
C1419 C 0.45417 0.88505 0.61838 0.0
C1420 C 0.4644 0.92328 0.61855 0.0
C1421 C 0.5026 0.95228 0.61584 0.0
C1422 C 0.53094 0.94192 0.61283 0.0
C1423 C 0.52104 0.90284 0.61247 0.0
C1424 C 0.48202 0.87421 0.61536 0.0
H1425 H 0.55472 0.72456 0.89684 0.0
H1426 H 0.63093 0.67768 0.89196 0.0
H1427 H 0.57461 0.61218 0.89315 0.0
H1428 H 0.48968 0.65709 0.93983 0.0
H1429 H 0.44741 0.65452 0.92642 0.0
H1430 H 0.49343 0.69761 0.9234 0.0
H1431 H 0.48569 0.6941 0.87562 0.0
H1432 H 0.43959 0.65096 0.87848 0.0
H1433 H 0.47653 0.65116 0.85936 0.0
H1434 H 0.5102 0.55182 0.89674 0.0
H1435 H 0.4427 0.50107 0.90292 0.0
H1436 H 0.40835 0.58718 0.90627 0.0
C1437 C 0.55965 0.70058 0.89568 0.0
C1438 C 0.5974 0.70639 0.89416 0.0
C1439 C 0.6024 0.67408 0.89305 0.0
C1440 C 0.57054 0.63672 0.89368 0.0
C1441 C 0.53382 0.63208 0.89544 0.0
C1442 C 0.52821 0.66312 0.8964 0.0
C1443 C 0.48589 0.65033 0.89935 0.0
C1444 C 0.4787 0.66581 0.9237 0.0
C1445 C 0.47106 0.66235 0.87686 0.0
C1446 C 0.46857 0.60721 0.90018 0.0
C1447 C 0.49672 0.5973 0.89775 0.0
C1448 C 0.48794 0.55927 0.89861 0.0
C1449 C 0.4495 0.53064 0.90229 0.0
C1450 C 0.42013 0.54005 0.90519 0.0
C1451 C 0.42996 0.57894 0.90382 0.0
loop_
_geom_bond_atom_site_label_1
_geom_bond_atom_site_label_2
_geom_bond_distance
_geom_bond_site_symmetry_2
_ccdc_geom_bond_type
Eu0 C9 2.828 . S
Eu0 O11 2.392 . S
Eu0 O13 2.418 . S
Eu0 O18 2.373 . S
Eu0 O21 2.488 . S
Eu0 O22 2.471 . S
Eu0 O23 2.349 . S
Eu1 O10 2.373 . S
Eu1 O14 2.488 . S
Eu1 O15 2.471 . S
Eu1 O16 2.349 . S
Eu1 O19 2.392 . S
Eu1 O20 2.418 . S
Eu1 C30 2.828 . S
C2 O20 1.244 . S
C2 O23 1.265 . S
C3 C4 1.379 . S
C3 C7 1.373 . S
C3 C9 1.505 . S
C4 C3 1.379 . S
C4 C6 1.369 . S
C4 H32 0.930 . S
C5 C7 1.383 . S
C5 C8 1.382 . S
C5 H33 0.930 . S
C6 C4 1.369 . S
C6 C8 1.392 . S
C6 H34 0.930 . S
C7 C3 1.373 . S
C7 C5 1.383 . S
C7 H35 0.931 . S
C8 C5 1.382 . S
C8 C6 1.392 . S
C9 Eu0 2.828 . S
C9 C3 1.505 . S
C9 O21 1.249 . S
C9 O22 1.244 . S
O10 Eu1 2.373 . S
O10 C12 1.258 . S
O11 Eu0 2.392 . S
O11 C12 1.242 . S
C12 O10 1.258 . S
C12 O11 1.242 . S
O13 Eu0 2.418 . S
O13 C17 1.244 . S
O14 Eu1 2.488 . S
O14 C30 1.249 . S
O15 Eu1 2.471 . S
O15 C30 1.244 . S
O16 Eu1 2.349 . S
O16 C17 1.265 . S
C17 O13 1.244 . S
C17 O16 1.265 . S
O18 Eu0 2.373 . S
O18 C31 1.258 . S
O19 Eu1 2.392 . S
O19 C31 1.242 . S
O20 Eu1 2.418 . S
O20 C2 1.244 . S
O21 Eu0 2.488 . S
O21 C9 1.249 . S
O22 Eu0 2.471 . S
O22 C9 1.244 . S
O23 Eu0 2.349 . S
O23 C2 1.265 . S
C24 C25 1.379 . S
C24 C28 1.373 . S
C24 C30 1.505 1_565 S
C25 C24 1.379 . S
C25 C27 1.369 . S
C25 H36 0.939 . S
C26 C28 1.383 . S
C26 C29 1.382 . S
C26 H37 0.930 . S
C27 C25 1.369 . S
C27 C29 1.392 . S
C27 H38 0.930 . S
C28 C24 1.373 . S
C28 C26 1.383 . S
C28 H39 0.931 . S
C29 C26 1.382 . S
C29 C27 1.392 . S
C30 Eu1 2.828 . S
C30 O14 1.249 . S
C30 O15 1.244 . S
C30 C24 1.505 1_545 S
C31 O18 1.258 . S
C31 O19 1.242 . S
H32 C4 0.930 . S
H33 C5 0.930 . S
H34 C6 0.930 . S
H35 C7 0.931 . S
H36 C25 0.939 . S
H37 C26 0.930 . S
H38 C27 0.930 . S
H39 C28 0.931 . S
Eu40 C49 2.828 . S
Eu40 O51 2.392 . S
Eu40 O53 2.418 . S
Eu40 O58 2.373 . S
Eu40 O61 2.488 . S
Eu40 O62 2.471 . S
Eu40 O63 2.349 . S
Eu41 O50 2.373 . S
Eu41 O54 2.488 . S
Eu41 O55 2.471 . S
Eu41 O56 2.349 . S
Eu41 O59 2.392 . S
Eu41 O60 2.418 . S
Eu41 C70 2.828 . S
C42 O60 1.244 . S
C42 O63 1.265 . S
C43 C44 1.379 . S
C43 C47 1.373 . S
C43 C49 1.505 . S
C44 C43 1.379 . S
C44 C46 1.369 . S
C44 H72 0.930 . S
C45 C47 1.383 . S
C45 C48 1.382 . S
C45 H73 0.930 . S
C46 C44 1.369 . S
C46 C48 1.392 . S
C46 H74 0.930 . S
C47 C43 1.373 . S
C47 C45 1.383 . S
C47 H75 0.931 . S
C48 C45 1.382 . S
C48 C46 1.392 . S
C49 Eu40 2.828 . S
C49 C43 1.505 . S
C49 O61 1.249 . S
C49 O62 1.244 . S
O50 Eu41 2.373 . S
O50 C52 1.258 . S
O51 Eu40 2.392 . S
O51 C52 1.242 . S
C52 O50 1.258 . S
C52 O51 1.242 . S
O53 Eu40 2.418 . S
O53 C57 1.244 . S
O54 Eu41 2.488 . S
O54 C70 1.249 . S
O55 Eu41 2.471 . S
O55 C70 1.244 . S
O56 Eu41 2.349 . S
O56 C57 1.265 . S
C57 O53 1.244 . S
C57 O56 1.265 . S
O58 Eu40 2.373 . S
O58 C71 1.258 . S
O59 Eu41 2.392 . S
O59 C71 1.242 . S
O60 Eu41 2.418 . S
O60 C42 1.244 . S
O61 Eu40 2.488 . S
O61 C49 1.249 . S
O62 Eu40 2.471 . S
O62 C49 1.244 . S
O63 Eu40 2.349 . S
O63 C42 1.265 . S
C64 C65 1.379 . S
C64 C68 1.373 . S
C64 C70 1.505 . S
C65 C64 1.379 . S
C65 C67 1.369 . S
C65 H76 0.930 . S
C66 C68 1.383 . S
C66 C69 1.382 . S
C66 H77 0.930 . S
C67 C65 1.369 . S
C67 C69 1.392 . S
C67 H78 0.930 . S
C68 C64 1.373 . S
C68 C66 1.383 . S
C68 H79 0.931 . S
C69 C66 1.382 . S
C69 C67 1.392 . S
C70 Eu41 2.828 . S
C70 O54 1.249 . S
C70 O55 1.244 . S
C70 C64 1.505 . S
C71 O58 1.258 . S
C71 O59 1.242 . S
H72 C44 0.930 . S
H73 C45 0.930 . S
H74 C46 0.930 . S
H75 C47 0.931 . S
H76 C65 0.930 . S
H77 C66 0.930 . S
H78 C67 0.930 . S
H79 C68 0.931 . S
Eu80 C89 2.828 . S
Eu80 O91 2.392 . S
Eu80 O93 2.418 . S
Eu80 O98 2.373 . S
Eu80 O101 2.488 . S
Eu80 O102 2.471 . S
Eu80 O103 2.349 . S
Eu81 O90 2.373 . S
Eu81 O94 2.488 . S
Eu81 O95 2.471 . S
Eu81 O96 2.349 . S
Eu81 O99 2.392 . S
Eu81 O100 2.418 . S
Eu81 C110 2.828 . S
C82 O100 1.244 . S
C82 O103 1.265 . S
C83 C84 1.379 . S
C83 C87 1.373 . S
C83 C89 1.505 . S
C84 C83 1.379 . S
C84 C86 1.369 . S
C84 H112 0.930 . S
C85 C87 1.383 . S
C85 C88 1.382 . S
C85 H113 0.930 . S
C86 C84 1.369 . S
C86 C88 1.392 . S
C86 H114 0.930 . S
C87 C83 1.373 . S
C87 C85 1.383 . S
C87 H115 0.931 . S
C88 C85 1.382 . S
C88 C86 1.392 . S
C89 Eu80 2.828 . S
C89 C83 1.505 . S
C89 O101 1.249 . S
C89 O102 1.244 . S
O90 Eu81 2.373 . S
O90 C92 1.258 . S
O91 Eu80 2.392 . S
O91 C92 1.242 . S
C92 O90 1.258 . S
C92 O91 1.242 . S
O93 Eu80 2.418 . S
O93 C97 1.244 . S
O94 Eu81 2.488 . S
O94 C110 1.249 . S
O95 Eu81 2.471 . S
O95 C110 1.244 . S
O96 Eu81 2.349 . S
O96 C97 1.265 . S
C97 O93 1.244 . S
C97 O96 1.265 . S
O98 Eu80 2.373 . S
O98 C111 1.258 . S
O99 Eu81 2.392 . S
O99 C111 1.242 . S
O100 Eu81 2.418 . S
O100 C82 1.244 . S
O101 Eu80 2.488 . S
O101 C89 1.249 . S
O102 Eu80 2.471 . S
O102 C89 1.244 . S
O103 Eu80 2.349 . S
O103 C82 1.265 . S
C104 C105 1.379 . S
C104 C108 1.373 . S
C104 C110 1.505 1_455 S
C105 C104 1.379 . S
C105 C107 1.369 . S
C105 H116 0.943 . S
C106 C108 1.383 . S
C106 C109 1.382 . S
C106 H117 0.930 . S
C107 C105 1.369 . S
C107 C109 1.392 . S
C107 H118 0.930 . S
C108 C104 1.373 . S
C108 C106 1.383 . S
C108 H119 0.931 . S
C109 C106 1.382 . S
C109 C107 1.392 . S
C110 Eu81 2.828 . S
C110 O94 1.249 . S
C110 O95 1.244 . S
C110 C104 1.505 1_655 S
C111 O98 1.258 . S
C111 O99 1.242 . S
H112 C84 0.930 . S
H113 C85 0.930 . S
H114 C86 0.930 . S
H115 C87 0.931 . S
H116 C105 0.943 . S
H117 C106 0.930 . S
H118 C107 0.930 . S
H119 C108 0.931 . S
Eu120 C129 2.828 . S
Eu120 O131 2.392 . S
Eu120 O133 2.418 . S
Eu120 O138 2.373 . S
Eu120 O141 2.488 . S
Eu120 O142 2.471 . S
Eu120 O143 2.349 . S
Eu121 O130 2.373 . S
Eu121 O134 2.488 . S
Eu121 O135 2.471 . S
Eu121 O136 2.349 . S
Eu121 O139 2.392 . S
Eu121 O140 2.418 . S
Eu121 C150 2.828 . S
C122 O140 1.244 . S
C122 O143 1.265 . S
C123 C124 1.379 . S
C123 C127 1.373 . S
C123 C129 1.505 1_565 S
C124 C123 1.379 . S
C124 C126 1.369 . S
C124 H152 0.939 . S
C125 C127 1.383 . S
C125 C128 1.382 . S
C125 H153 0.930 . S
C126 C124 1.369 . S
C126 C128 1.392 . S
C126 H154 0.930 . S
C127 C123 1.373 . S
C127 C125 1.383 . S
C127 H155 0.931 . S
C128 C125 1.382 . S
C128 C126 1.392 . S
C129 Eu120 2.828 . S
C129 C123 1.505 1_545 S
C129 O141 1.249 . S
C129 O142 1.244 . S
O130 Eu121 2.373 . S
O130 C132 1.258 . S
O131 Eu120 2.392 . S
O131 C132 1.242 . S
C132 O130 1.258 . S
C132 O131 1.242 . S
O133 Eu120 2.418 . S
O133 C137 1.244 . S
O134 Eu121 2.488 . S
O134 C150 1.249 . S
O135 Eu121 2.471 . S
O135 C150 1.244 . S
O136 Eu121 2.349 . S
O136 C137 1.265 . S
C137 O133 1.244 . S
C137 O136 1.265 . S
O138 Eu120 2.373 . S
O138 C151 1.258 . S
O139 Eu121 2.392 . S
O139 C151 1.242 . S
O140 Eu121 2.418 . S
O140 C122 1.244 . S
O141 Eu120 2.488 . S
O141 C129 1.249 . S
O142 Eu120 2.471 . S
O142 C129 1.244 . S
O143 Eu120 2.349 . S
O143 C122 1.265 . S
C144 C145 1.379 . S
C144 C148 1.373 . S
C144 C150 1.505 . S
C145 C144 1.379 . S
C145 C147 1.369 . S
C145 H156 0.930 . S
C146 C148 1.383 . S
C146 C149 1.382 . S
C146 H157 0.930 . S
C147 C145 1.369 . S
C147 C149 1.392 . S
C147 H158 0.930 . S
C148 C144 1.373 . S
C148 C146 1.383 . S
C148 H159 0.931 . S
C149 C146 1.382 . S
C149 C147 1.392 . S
C150 Eu121 2.828 . S
C150 O134 1.249 . S
C150 O135 1.244 . S
C150 C144 1.505 . S
C151 O138 1.258 . S
C151 O139 1.242 . S
H152 C124 0.939 . S
H153 C125 0.930 . S
H154 C126 0.930 . S
H155 C127 0.931 . S
H156 C145 0.930 . S
H157 C146 0.930 . S
H158 C147 0.930 . S
H159 C148 0.931 . S
Eu160 C169 2.828 . S
Eu160 O171 2.392 . S
Eu160 O173 2.418 . S
Eu160 O178 2.373 . S
Eu160 O181 2.488 . S
Eu160 O182 2.471 . S
Eu160 O183 2.349 . S
Eu161 O170 2.373 . S
Eu161 O174 2.488 . S
Eu161 O175 2.471 . S
Eu161 O176 2.349 . S
Eu161 O179 2.392 . S
Eu161 O180 2.418 . S
Eu161 C190 2.828 . S
C162 O180 1.244 . S
C162 O183 1.265 . S
C163 C164 1.379 . S
C163 C167 1.373 . S
C163 C169 1.505 . S
C164 C163 1.379 . S
C164 C166 1.369 . S
C164 H192 0.930 . S
C165 C167 1.383 . S
C165 C168 1.382 . S
C165 H193 0.930 . S
C166 C164 1.369 . S
C166 C168 1.392 . S
C166 H194 0.930 . S
C167 C163 1.373 . S
C167 C165 1.383 . S
C167 H195 0.931 . S
C168 C165 1.382 . S
C168 C166 1.392 . S
C169 Eu160 2.828 . S
C169 C163 1.505 . S
C169 O181 1.249 . S
C169 O182 1.244 . S
O170 Eu161 2.373 . S
O170 C172 1.258 . S
O171 Eu160 2.392 . S
O171 C172 1.242 . S
C172 O170 1.258 . S
C172 O171 1.242 . S
O173 Eu160 2.418 . S
O173 C177 1.244 . S
O174 Eu161 2.488 . S
O174 C190 1.249 . S
O175 Eu161 2.471 . S
O175 C190 1.244 . S
O176 Eu161 2.349 . S
O176 C177 1.265 . S
C177 O173 1.244 . S
C177 O176 1.265 . S
O178 Eu160 2.373 . S
O178 C191 1.258 . S
O179 Eu161 2.392 . S
O179 C191 1.242 . S
O180 Eu161 2.418 . S
O180 C162 1.244 . S
O181 Eu160 2.488 . S
O181 C169 1.249 . S
O182 Eu160 2.471 . S
O182 C169 1.244 . S
O183 Eu160 2.349 . S
O183 C162 1.265 . S
C184 C185 1.379 . S
C184 C188 1.373 . S
C184 C190 1.505 . S
C185 C184 1.379 . S
C185 C187 1.369 . S
C185 H196 0.930 . S
C186 C188 1.383 . S
C186 C189 1.382 . S
C186 H197 0.930 . S
C187 C185 1.369 . S
C187 C189 1.392 . S
C187 H198 0.930 . S
C188 C184 1.373 . S
C188 C186 1.383 . S
C188 H199 0.931 . S
C189 C186 1.382 . S
C189 C187 1.392 . S
C190 Eu161 2.828 . S
C190 O174 1.249 . S
C190 O175 1.244 . S
C190 C184 1.505 . S
C191 O178 1.258 . S
C191 O179 1.242 . S
H192 C164 0.930 . S
H193 C165 0.930 . S
H194 C166 0.930 . S
H195 C167 0.931 . S
H196 C185 0.930 . S
H197 C186 0.930 . S
H198 C187 0.930 . S
H199 C188 0.931 . S
Eu200 C209 2.828 . S
Eu200 O211 2.392 . S
Eu200 O213 2.418 . S
Eu200 O218 2.373 . S
Eu200 O221 2.488 . S
Eu200 O222 2.471 . S
Eu200 O223 2.349 . S
Eu201 O210 2.373 . S
Eu201 O214 2.488 . S
Eu201 O215 2.471 . S
Eu201 O216 2.349 . S
Eu201 O219 2.392 . S
Eu201 O220 2.418 . S
Eu201 C230 2.828 . S
C202 O220 1.244 . S
C202 O223 1.265 . S
C203 C204 1.379 . S
C203 C207 1.373 . S
C203 C209 1.505 1_455 S
C204 C203 1.379 . S
C204 C206 1.369 . S
C204 H232 0.943 . S
C205 C207 1.383 . S
C205 C208 1.382 . S
C205 H233 0.930 . S
C206 C204 1.369 . S
C206 C208 1.392 . S
C206 H234 0.930 . S
C207 C203 1.373 . S
C207 C205 1.383 . S
C207 H235 0.931 . S
C208 C205 1.382 . S
C208 C206 1.392 . S
C209 Eu200 2.828 . S
C209 C203 1.505 1_655 S
C209 O221 1.249 . S
C209 O222 1.244 . S
O210 Eu201 2.373 . S
O210 C212 1.258 . S
O211 Eu200 2.392 . S
O211 C212 1.242 . S
C212 O210 1.258 . S
C212 O211 1.242 . S
O213 Eu200 2.418 . S
O213 C217 1.244 . S
O214 Eu201 2.488 . S
O214 C230 1.249 . S
O215 Eu201 2.471 . S
O215 C230 1.244 . S
O216 Eu201 2.349 . S
O216 C217 1.265 . S
C217 O213 1.244 . S
C217 O216 1.265 . S
O218 Eu200 2.373 . S
O218 C231 1.258 . S
O219 Eu201 2.392 . S
O219 C231 1.242 . S
O220 Eu201 2.418 . S
O220 C202 1.244 . S
O221 Eu200 2.488 . S
O221 C209 1.249 . S
O222 Eu200 2.471 . S
O222 C209 1.244 . S
O223 Eu200 2.349 . S
O223 C202 1.265 . S
C224 C225 1.379 . S
C224 C228 1.373 . S
C224 C230 1.505 . S
C225 C224 1.379 . S
C225 C227 1.369 . S
C225 H236 0.930 . S
C226 C228 1.383 . S
C226 C229 1.382 . S
C226 H237 0.930 . S
C227 C225 1.369 . S
C227 C229 1.392 . S
C227 H238 0.930 . S
C228 C224 1.373 . S
C228 C226 1.383 . S
C228 H239 0.931 . S
C229 C226 1.382 . S
C229 C227 1.392 . S
C230 Eu201 2.828 . S
C230 O214 1.249 . S
C230 O215 1.244 . S
C230 C224 1.505 . S
C231 O218 1.258 . S
C231 O219 1.242 . S
H232 C204 0.943 . S
H233 C205 0.930 . S
H234 C206 0.930 . S
H235 C207 0.931 . S
H236 C225 0.930 . S
H237 C226 0.930 . S
H238 C227 0.930 . S
H239 C228 0.931 . S
Eu240 C249 2.828 . S
Eu240 O251 2.392 . S
Eu240 O253 2.418 . S
Eu240 O258 2.373 . S
Eu240 O261 2.488 . S
Eu240 O262 2.471 . S
Eu240 O263 2.349 . S
Eu241 O250 2.373 . S
Eu241 O254 2.488 . S
Eu241 O255 2.471 . S
Eu241 O256 2.349 . S
Eu241 O259 2.392 . S
Eu241 O260 2.418 . S
Eu241 C270 2.828 . S
C242 O260 1.244 . S
C242 O263 1.265 . S
C243 C244 1.379 . S
C243 C247 1.373 . S
C243 C249 1.505 1_655 S
C244 C243 1.379 . S
C244 C246 1.369 . S
C244 H272 0.939 . S
C245 C247 1.383 . S
C245 C248 1.382 . S
C245 H273 0.930 . S
C246 C244 1.369 . S
C246 C248 1.392 . S
C246 H274 0.930 . S
C247 C243 1.373 . S
C247 C245 1.383 . S
C247 H275 0.931 . S
C248 C245 1.382 . S
C248 C246 1.392 . S
C249 Eu240 2.828 . S
C249 C243 1.505 1_455 S
C249 O261 1.249 . S
C249 O262 1.244 . S
O250 Eu241 2.373 . S
O250 C252 1.258 . S
O251 Eu240 2.392 . S
O251 C252 1.242 . S
C252 O250 1.258 . S
C252 O251 1.242 . S
O253 Eu240 2.418 . S
O253 C257 1.244 . S
O254 Eu241 2.488 . S
O254 C270 1.249 . S
O255 Eu241 2.471 . S
O255 C270 1.244 . S
O256 Eu241 2.349 . S
O256 C257 1.265 . S
C257 O253 1.244 . S
C257 O256 1.265 . S
O258 Eu240 2.373 . S
O258 C271 1.258 . S
O259 Eu241 2.392 . S
O259 C271 1.242 . S
O260 Eu241 2.418 . S
O260 C242 1.244 . S
O261 Eu240 2.488 . S
O261 C249 1.249 . S
O262 Eu240 2.471 . S
O262 C249 1.244 . S
O263 Eu240 2.349 . S
O263 C242 1.265 . S
C264 C265 1.379 . S
C264 C268 1.373 . S
C264 C270 1.505 . S
C265 C264 1.379 . S
C265 C267 1.369 . S
C265 H276 0.930 . S
C266 C268 1.383 . S
C266 C269 1.382 . S
C266 H277 0.930 . S
C267 C265 1.369 . S
C267 C269 1.392 . S
C267 H278 0.930 . S
C268 C264 1.373 . S
C268 C266 1.383 . S
C268 H279 0.931 . S
C269 C266 1.382 . S
C269 C267 1.392 . S
C270 Eu241 2.828 . S
C270 O254 1.249 . S
C270 O255 1.244 . S
C270 C264 1.505 . S
C271 O258 1.258 . S
C271 O259 1.242 . S
H272 C244 0.939 . S
H273 C245 0.930 . S
H274 C246 0.930 . S
H275 C247 0.931 . S
H276 C265 0.930 . S
H277 C266 0.930 . S
H278 C267 0.930 . S
H279 C268 0.931 . S
Eu280 C289 2.828 . S
Eu280 O291 2.392 . S
Eu280 O293 2.418 . S
Eu280 O298 2.373 . S
Eu280 O301 2.488 . S
Eu280 O302 2.471 . S
Eu280 O303 2.349 . S
Eu281 O290 2.373 . S
Eu281 O294 2.488 . S
Eu281 O295 2.471 . S
Eu281 O296 2.349 . S
Eu281 O299 2.392 . S
Eu281 O300 2.418 . S
Eu281 C310 2.828 . S
C282 O300 1.244 . S
C282 O303 1.265 . S
C283 C284 1.379 . S
C283 C287 1.373 . S
C283 C289 1.505 . S
C284 C283 1.379 . S
C284 C286 1.369 . S
C284 H312 0.930 . S
C285 C287 1.383 . S
C285 C288 1.382 . S
C285 H313 0.930 . S
C286 C284 1.369 . S
C286 C288 1.392 . S
C286 H314 0.930 . S
C287 C283 1.373 . S
C287 C285 1.383 . S
C287 H315 0.931 . S
C288 C285 1.382 . S
C288 C286 1.392 . S
C289 Eu280 2.828 . S
C289 C283 1.505 . S
C289 O301 1.249 . S
C289 O302 1.244 . S
O290 Eu281 2.373 . S
O290 C292 1.258 . S
O291 Eu280 2.392 . S
O291 C292 1.242 . S
C292 O290 1.258 . S
C292 O291 1.242 . S
O293 Eu280 2.418 . S
O293 C297 1.244 . S
O294 Eu281 2.488 . S
O294 C310 1.249 . S
O295 Eu281 2.471 . S
O295 C310 1.244 . S
O296 Eu281 2.349 . S
O296 C297 1.265 . S
C297 O293 1.244 . S
C297 O296 1.265 . S
O298 Eu280 2.373 . S
O298 C311 1.258 . S
O299 Eu281 2.392 . S
O299 C311 1.242 . S
O300 Eu281 2.418 . S
O300 C282 1.244 . S
O301 Eu280 2.488 . S
O301 C289 1.249 . S
O302 Eu280 2.471 . S
O302 C289 1.244 . S
O303 Eu280 2.349 . S
O303 C282 1.265 . S
C304 C305 1.379 . S
C304 C308 1.373 . S
C304 C310 1.505 1_545 S
C305 C304 1.379 . S
C305 C307 1.369 . S
C305 H316 0.943 . S
C306 C308 1.383 . S
C306 C309 1.382 . S
C306 H317 0.930 . S
C307 C305 1.369 . S
C307 C309 1.392 . S
C307 H318 0.930 . S
C308 C304 1.373 . S
C308 C306 1.383 . S
C308 H319 0.931 . S
C309 C306 1.382 . S
C309 C307 1.392 . S
C310 Eu281 2.828 . S
C310 O294 1.249 . S
C310 O295 1.244 . S
C310 C304 1.505 1_565 S
C311 O298 1.258 . S
C311 O299 1.242 . S
H312 C284 0.930 . S
H313 C285 0.930 . S
H314 C286 0.930 . S
H315 C287 0.931 . S
H316 C305 0.943 . S
H317 C306 0.930 . S
H318 C307 0.930 . S
H319 C308 0.931 . S
Eu320 C329 2.828 . S
Eu320 O331 2.392 . S
Eu320 O333 2.418 . S
Eu320 O338 2.373 . S
Eu320 O341 2.488 . S
Eu320 O342 2.471 . S
Eu320 O343 2.349 . S
Eu321 O330 2.373 . S
Eu321 O334 2.488 . S
Eu321 O335 2.471 . S
Eu321 O336 2.349 . S
Eu321 O339 2.392 . S
Eu321 O340 2.418 . S
Eu321 C350 2.828 . S
C322 O340 1.244 . S
C322 O343 1.265 . S
C323 C324 1.379 . S
C323 C327 1.373 . S
C323 C329 1.505 . S
C324 C323 1.379 . S
C324 C326 1.369 . S
C324 H352 0.930 . S
C325 C327 1.383 . S
C325 C328 1.382 . S
C325 H353 0.930 . S
C326 C324 1.369 . S
C326 C328 1.392 . S
C326 H354 0.930 . S
C327 C323 1.373 . S
C327 C325 1.383 . S
C327 H355 0.931 . S
C328 C325 1.382 . S
C328 C326 1.392 . S
C329 Eu320 2.828 . S
C329 C323 1.505 . S
C329 O341 1.249 . S
C329 O342 1.244 . S
O330 Eu321 2.373 . S
O330 C332 1.258 . S
O331 Eu320 2.392 . S
O331 C332 1.242 . S
C332 O330 1.258 . S
C332 O331 1.242 . S
O333 Eu320 2.418 . S
O333 C337 1.244 . S
O334 Eu321 2.488 . S
O334 C350 1.249 . S
O335 Eu321 2.471 . S
O335 C350 1.244 . S
O336 Eu321 2.349 . S
O336 C337 1.265 . S
C337 O333 1.244 . S
C337 O336 1.265 . S
O338 Eu320 2.373 . S
O338 C351 1.258 . S
O339 Eu321 2.392 . S
O339 C351 1.242 . S
O340 Eu321 2.418 . S
O340 C322 1.244 . S
O341 Eu320 2.488 . S
O341 C329 1.249 . S
O342 Eu320 2.471 . S
O342 C329 1.244 . S
O343 Eu320 2.349 . S
O343 C322 1.265 . S
C344 C345 1.379 . S
C344 C348 1.373 . S
C344 C350 1.505 . S
C345 C344 1.379 . S
C345 C347 1.369 . S
C345 H356 0.930 . S
C346 C348 1.383 . S
C346 C349 1.382 . S
C346 H357 0.930 . S
C347 C345 1.369 . S
C347 C349 1.392 . S
C347 H358 0.930 . S
C348 C344 1.373 . S
C348 C346 1.383 . S
C348 H359 0.931 . S
C349 C346 1.382 . S
C349 C347 1.392 . S
C350 Eu321 2.828 . S
C350 O334 1.249 . S
C350 O335 1.244 . S
C350 C344 1.505 . S
C351 O338 1.258 . S
C351 O339 1.242 . S
H352 C324 0.930 . S
H353 C325 0.930 . S
H354 C326 0.930 . S
H355 C327 0.931 . S
H356 C345 0.930 . S
H357 C346 0.930 . S
H358 C347 0.930 . S
H359 C348 0.931 . S
Eu360 C369 2.828 . S
Eu360 O371 2.392 . S
Eu360 O373 2.418 . S
Eu360 O378 2.373 . S
Eu360 O381 2.488 . S
Eu360 O382 2.471 . S
Eu360 O383 2.349 . S
Eu361 O370 2.373 . S
Eu361 O374 2.488 . S
Eu361 O375 2.471 . S
Eu361 O376 2.349 . S
Eu361 O379 2.392 . S
Eu361 O380 2.418 . S
Eu361 C390 2.828 . S
C362 O380 1.244 . S
C362 O383 1.265 . S
C363 C364 1.379 . S
C363 C367 1.373 . S
C363 C369 1.505 . S
C364 C363 1.379 . S
C364 C366 1.369 . S
C364 H392 0.930 . S
C365 C367 1.383 . S
C365 C368 1.382 . S
C365 H393 0.930 . S
C366 C364 1.369 . S
C366 C368 1.392 . S
C366 H394 0.930 . S
C367 C363 1.373 . S
C367 C365 1.383 . S
C367 H395 0.931 . S
C368 C365 1.382 . S
C368 C366 1.392 . S
C369 Eu360 2.828 . S
C369 C363 1.505 . S
C369 O381 1.249 . S
C369 O382 1.244 . S
O370 Eu361 2.373 . S
O370 C372 1.258 . S
O371 Eu360 2.392 . S
O371 C372 1.242 . S
C372 O370 1.258 . S
C372 O371 1.242 . S
O373 Eu360 2.418 . S
O373 C377 1.244 . S
O374 Eu361 2.488 . S
O374 C390 1.249 . S
O375 Eu361 2.471 . S
O375 C390 1.244 . S
O376 Eu361 2.349 . S
O376 C377 1.265 . S
C377 O373 1.244 . S
C377 O376 1.265 . S
O378 Eu360 2.373 . S
O378 C391 1.258 . S
O379 Eu361 2.392 . S
O379 C391 1.242 . S
O380 Eu361 2.418 . S
O380 C362 1.244 . S
O381 Eu360 2.488 . S
O381 C369 1.249 . S
O382 Eu360 2.471 . S
O382 C369 1.244 . S
O383 Eu360 2.349 . S
O383 C362 1.265 . S
C384 C385 1.379 . S
C384 C388 1.373 . S
C384 C390 1.505 1_655 S
C385 C384 1.379 . S
C385 C387 1.369 . S
C385 H396 0.939 . S
C386 C388 1.383 . S
C386 C389 1.382 . S
C386 H397 0.930 . S
C387 C385 1.369 . S
C387 C389 1.392 . S
C387 H398 0.930 . S
C388 C384 1.373 . S
C388 C386 1.383 . S
C388 H399 0.931 . S
C389 C386 1.382 . S
C389 C387 1.392 . S
C390 Eu361 2.828 . S
C390 O374 1.249 . S
C390 O375 1.244 . S
C390 C384 1.505 1_455 S
C391 O378 1.258 . S
C391 O379 1.242 . S
H392 C364 0.930 . S
H393 C365 0.930 . S
H394 C366 0.930 . S
H395 C367 0.931 . S
H396 C385 0.939 . S
H397 C386 0.930 . S
H398 C387 0.930 . S
H399 C388 0.931 . S
Eu400 C409 2.828 . S
Eu400 O411 2.392 . S
Eu400 O413 2.418 . S
Eu400 O418 2.373 . S
Eu400 O421 2.488 . S
Eu400 O422 2.471 . S
Eu400 O423 2.349 . S
Eu401 O410 2.373 . S
Eu401 O414 2.488 . S
Eu401 O415 2.471 . S
Eu401 O416 2.349 . S
Eu401 O419 2.392 . S
Eu401 O420 2.418 . S
Eu401 C430 2.828 . S
C402 O420 1.244 . S
C402 O423 1.265 . S
C403 C404 1.379 . S
C403 C407 1.373 . S
C403 C409 1.505 1_545 S
C404 C403 1.379 . S
C404 C406 1.369 . S
C404 H432 0.943 . S
C405 C407 1.383 . S
C405 C408 1.382 . S
C405 H433 0.930 . S
C406 C404 1.369 . S
C406 C408 1.392 . S
C406 H434 0.930 . S
C407 C403 1.373 . S
C407 C405 1.383 . S
C407 H435 0.931 . S
C408 C405 1.382 . S
C408 C406 1.392 . S
C409 Eu400 2.828 . S
C409 C403 1.505 1_565 S
C409 O421 1.249 . S
C409 O422 1.244 . S
O410 Eu401 2.373 . S
O410 C412 1.258 . S
O411 Eu400 2.392 . S
O411 C412 1.242 . S
C412 O410 1.258 . S
C412 O411 1.242 . S
O413 Eu400 2.418 . S
O413 C417 1.244 . S
O414 Eu401 2.488 . S
O414 C430 1.249 . S
O415 Eu401 2.471 . S
O415 C430 1.244 . S
O416 Eu401 2.349 . S
O416 C417 1.265 . S
C417 O413 1.244 . S
C417 O416 1.265 . S
O418 Eu400 2.373 . S
O418 C431 1.258 . S
O419 Eu401 2.392 . S
O419 C431 1.242 . S
O420 Eu401 2.418 . S
O420 C402 1.244 . S
O421 Eu400 2.488 . S
O421 C409 1.249 . S
O422 Eu400 2.471 . S
O422 C409 1.244 . S
O423 Eu400 2.349 . S
O423 C402 1.265 . S
C424 C425 1.379 . S
C424 C428 1.373 . S
C424 C430 1.505 . S
C425 C424 1.379 . S
C425 C427 1.369 . S
C425 H436 0.930 . S
C426 C428 1.383 . S
C426 C429 1.382 . S
C426 H437 0.930 . S
C427 C425 1.369 . S
C427 C429 1.392 . S
C427 H438 0.930 . S
C428 C424 1.373 . S
C428 C426 1.383 . S
C428 H439 0.931 . S
C429 C426 1.382 . S
C429 C427 1.392 . S
C430 Eu401 2.828 . S
C430 O414 1.249 . S
C430 O415 1.244 . S
C430 C424 1.505 . S
C431 O418 1.258 . S
C431 O419 1.242 . S
H432 C404 0.943 . S
H433 C405 0.930 . S
H434 C406 0.930 . S
H435 C407 0.931 . S
H436 C425 0.930 . S
H437 C426 0.930 . S
H438 C427 0.930 . S
H439 C428 0.931 . S
Eu440 C449 2.828 . S
Eu440 O451 2.392 . S
Eu440 O453 2.418 . S
Eu440 O458 2.373 . S
Eu440 O461 2.488 . S
Eu440 O462 2.471 . S
Eu440 O463 2.349 . S
Eu441 O450 2.373 . S
Eu441 O454 2.488 . S
Eu441 O455 2.471 . S
Eu441 O456 2.349 . S
Eu441 O459 2.392 . S
Eu441 O460 2.418 . S
Eu441 C470 2.828 . S
C442 O460 1.244 . S
C442 O463 1.265 . S
C443 C444 1.379 . S
C443 C447 1.373 . S
C443 C449 1.505 . S
C444 C443 1.379 . S
C444 C446 1.369 . S
C444 H472 0.930 . S
C445 C447 1.383 . S
C445 C448 1.382 . S
C445 H473 0.930 . S
C446 C444 1.369 . S
C446 C448 1.392 . S
C446 H474 0.930 . S
C447 C443 1.373 . S
C447 C445 1.383 . S
C447 H475 0.931 . S
C448 C445 1.382 . S
C448 C446 1.392 . S
C449 Eu440 2.828 . S
C449 C443 1.505 . S
C449 O461 1.249 . S
C449 O462 1.244 . S
O450 Eu441 2.373 . S
O450 C452 1.258 . S
O451 Eu440 2.392 . S
O451 C452 1.242 . S
C452 O450 1.258 . S
C452 O451 1.242 . S
O453 Eu440 2.418 . S
O453 C457 1.244 . S
O454 Eu441 2.488 . S
O454 C470 1.249 . S
O455 Eu441 2.471 . S
O455 C470 1.244 . S
O456 Eu441 2.349 . S
O456 C457 1.265 . S
C457 O453 1.244 . S
C457 O456 1.265 . S
O458 Eu440 2.373 . S
O458 C471 1.258 . S
O459 Eu441 2.392 . S
O459 C471 1.242 . S
O460 Eu441 2.418 . S
O460 C442 1.244 . S
O461 Eu440 2.488 . S
O461 C449 1.249 . S
O462 Eu440 2.471 . S
O462 C449 1.244 . S
O463 Eu440 2.349 . S
O463 C442 1.265 . S
C464 C465 1.379 . S
C464 C468 1.373 . S
C464 C470 1.505 . S
C465 C464 1.379 . S
C465 C467 1.369 . S
C465 H476 0.930 . S
C466 C468 1.383 . S
C466 C469 1.382 . S
C466 H477 0.930 . S
C467 C465 1.369 . S
C467 C469 1.392 . S
C467 H478 0.930 . S
C468 C464 1.373 . S
C468 C466 1.383 . S
C468 H479 0.931 . S
C469 C466 1.382 . S
C469 C467 1.392 . S
C470 Eu441 2.828 . S
C470 O454 1.249 . S
C470 O455 1.244 . S
C470 C464 1.505 . S
C471 O458 1.258 . S
C471 O459 1.242 . S
H472 C444 0.930 . S
H473 C445 0.930 . S
H474 C446 0.930 . S
H475 C447 0.931 . S
H476 C465 0.930 . S
H477 C466 0.930 . S
H478 C467 0.930 . S
H479 C468 0.931 . S
H480 C492 0.930 . S
H481 C494 0.930 . S
H482 C495 0.930 . S
H483 C499 0.959 . S
H484 C499 0.959 . S
H485 C499 0.961 . S
H486 C500 0.960 . S
H487 C500 0.961 . S
H488 C500 0.959 . S
H489 C503 0.929 . S
H490 C504 0.931 . S
H491 C506 0.930 . S
C492 H480 0.930 . S
C492 C493 1.399 . S
C492 C497 1.399 . S
C493 C492 1.399 . S
C493 C494 1.376 . S
C494 H481 0.930 . S
C494 C493 1.376 . S
C494 C495 1.388 . S
C495 H482 0.930 . S
C495 C494 1.388 . S
C495 C496 1.390 . S
C496 C495 1.390 . S
C496 C497 1.394 . S
C496 C502 1.465 . S
C497 C492 1.399 . S
C497 C496 1.394 . S
C497 C498 1.516 . S
C498 C497 1.516 . S
C498 C499 1.502 . S
C498 C500 1.561 . S
C498 C501 1.526 . S
C499 H483 0.959 . S
C499 H484 0.959 . S
C499 H485 0.961 . S
C499 C498 1.502 . S
C500 H486 0.960 . S
C500 H487 0.961 . S
C500 H488 0.959 . S
C500 C498 1.561 . S
C501 C498 1.526 . S
C501 C502 1.396 . S
C501 C506 1.390 . S
C502 C496 1.465 . S
C502 C501 1.396 . S
C502 C503 1.399 . S
C503 H489 0.929 . S
C503 C502 1.399 . S
C503 C504 1.385 . S
C504 H490 0.931 . S
C504 C503 1.385 . S
C504 C505 1.389 . S
C505 C504 1.389 . S
C505 C506 1.387 . S
C506 H491 0.930 . S
C506 C501 1.390 . S
C506 C505 1.387 . S
H507 C519 0.930 . S
H508 C521 0.930 . S
H509 C522 0.930 . S
H510 C526 0.959 . S
H511 C526 0.959 1_655 S
H512 C526 0.961 . S
H513 C527 0.960 1_455 S
H514 C527 0.961 . S
H515 C527 0.959 . S
H516 C530 0.929 . S
H517 C531 0.931 . S
H518 C533 0.930 . S
C519 H507 0.930 . S
C519 C520 1.399 . S
C519 C524 1.399 . S
C520 C519 1.399 . S
C520 C521 1.376 . S
C521 H508 0.930 . S
C521 C520 1.376 . S
C521 C522 1.388 . S
C522 H509 0.930 . S
C522 C521 1.388 . S
C522 C523 1.390 . S
C523 C522 1.390 . S
C523 C524 1.394 . S
C523 C529 1.465 1_455 S
C524 C519 1.399 . S
C524 C523 1.394 . S
C524 C525 1.516 . S
C525 C524 1.516 . S
C525 C526 1.502 . S
C525 C527 1.561 1_455 S
C525 C528 1.526 1_455 S
C526 H510 0.959 . S
C526 H511 0.959 1_455 S
C526 H512 0.961 . S
C526 C525 1.502 . S
C527 H513 0.960 1_655 S
C527 H514 0.961 . S
C527 H515 0.959 . S
C527 C525 1.561 1_655 S
C528 C525 1.526 1_655 S
C528 C529 1.396 . S
C528 C533 1.390 . S
C529 C523 1.465 1_655 S
C529 C528 1.396 . S
C529 C530 1.399 . S
C530 H516 0.929 . S
C530 C529 1.399 . S
C530 C531 1.385 . S
C531 H517 0.931 . S
C531 C530 1.385 . S
C531 C532 1.389 . S
C532 C531 1.389 . S
C532 C533 1.387 . S
C533 H518 0.930 . S
C533 C528 1.390 . S
C533 C532 1.387 . S
H534 C546 0.930 . S
H535 C548 0.930 . S
H536 C549 0.930 . S
H537 C553 0.959 . S
H538 C553 0.959 . S
H539 C553 0.961 1_545 S
H540 C554 0.960 . S
H541 C554 0.961 1_565 S
H542 C554 0.959 . S
H543 C557 0.929 . S
H544 C558 0.931 . S
H545 C560 0.930 . S
C546 H534 0.930 . S
C546 C547 1.399 . S
C546 C551 1.399 . S
C547 C546 1.399 . S
C547 C548 1.376 . S
C548 H535 0.930 . S
C548 C547 1.376 . S
C548 C549 1.388 . S
C549 H536 0.930 . S
C549 C548 1.388 . S
C549 C550 1.390 . S
C550 C549 1.390 . S
C550 C551 1.394 . S
C550 C556 1.465 1_545 S
C551 C546 1.399 . S
C551 C550 1.394 . S
C551 C552 1.516 1_545 S
C552 C551 1.516 1_565 S
C552 C553 1.502 . S
C552 C554 1.561 1_565 S
C552 C555 1.526 . S
C553 H537 0.959 . S
C553 H538 0.959 . S
C553 H539 0.961 1_565 S
C553 C552 1.502 . S
C554 H540 0.960 . S
C554 H541 0.961 1_545 S
C554 H542 0.959 . S
C554 C552 1.561 1_545 S
C555 C552 1.526 . S
C555 C556 1.396 . S
C555 C560 1.390 . S
C556 C550 1.465 1_565 S
C556 C555 1.396 . S
C556 C557 1.399 . S
C557 H543 0.929 . S
C557 C556 1.399 . S
C557 C558 1.385 . S
C558 H544 0.931 . S
C558 C557 1.385 . S
C558 C559 1.389 . S
C559 C558 1.389 . S
C559 C560 1.387 . S
C560 H545 0.930 . S
C560 C555 1.390 . S
C560 C559 1.387 . S
H561 C573 0.930 . S
H562 C575 0.930 . S
H563 C576 0.930 . S
H564 C580 0.959 . S
H565 C580 0.959 . S
H566 C580 0.961 . S
H567 C581 0.960 . S
H568 C581 0.961 . S
H569 C581 0.959 . S
H570 C584 0.929 . S
H571 C585 0.931 . S
H572 C587 0.930 . S
C573 H561 0.930 . S
C573 C574 1.399 . S
C573 C578 1.399 . S
C574 C573 1.399 . S
C574 C575 1.376 . S
C575 H562 0.930 . S
C575 C574 1.376 . S
C575 C576 1.388 . S
C576 H563 0.930 . S
C576 C575 1.388 . S
C576 C577 1.390 . S
C577 C576 1.390 . S
C577 C578 1.394 . S
C577 C583 1.465 . S
C578 C573 1.399 . S
C578 C577 1.394 . S
C578 C579 1.516 . S
C579 C578 1.516 . S
C579 C580 1.502 . S
C579 C581 1.561 . S
C579 C582 1.526 . S
C580 H564 0.959 . S
C580 H565 0.959 . S
C580 H566 0.961 . S
C580 C579 1.502 . S
C581 H567 0.960 . S
C581 H568 0.961 . S
C581 H569 0.959 . S
C581 C579 1.561 . S
C582 C579 1.526 . S
C582 C583 1.396 . S
C582 C587 1.390 . S
C583 C577 1.465 . S
C583 C582 1.396 . S
C583 C584 1.399 . S
C584 H570 0.929 . S
C584 C583 1.399 . S
C584 C585 1.385 . S
C585 H571 0.931 . S
C585 C584 1.385 . S
C585 C586 1.389 . S
C586 C585 1.389 . S
C586 C587 1.387 . S
C587 H572 0.930 . S
C587 C582 1.390 . S
C587 C586 1.387 . S
H588 C600 0.930 . S
H589 C602 0.930 . S
H590 C603 0.930 . S
H591 C607 0.959 . S
H592 C607 0.959 . S
H593 C607 0.961 . S
H594 C608 0.960 . S
H595 C608 0.961 1_655 S
H596 C608 0.959 . S
H597 C611 0.929 . S
H598 C612 0.931 . S
H599 C614 0.930 . S
C600 H588 0.930 . S
C600 C601 1.399 . S
C600 C605 1.399 . S
C601 C600 1.399 . S
C601 C602 1.376 . S
C602 H589 0.930 . S
C602 C601 1.376 . S
C602 C603 1.388 . S
C603 H590 0.930 . S
C603 C602 1.388 . S
C603 C604 1.390 . S
C604 C603 1.390 . S
C604 C605 1.394 . S
C604 C610 1.465 1_455 S
C605 C600 1.399 . S
C605 C604 1.394 . S
C605 C606 1.516 1_455 S
C606 C605 1.516 1_655 S
C606 C607 1.502 . S
C606 C608 1.561 1_655 S
C606 C609 1.526 . S
C607 H591 0.959 . S
C607 H592 0.959 . S
C607 H593 0.961 . S
C607 C606 1.502 . S
C608 H594 0.960 . S
C608 H595 0.961 1_455 S
C608 H596 0.959 . S
C608 C606 1.561 1_455 S
C609 C606 1.526 . S
C609 C610 1.396 . S
C609 C614 1.390 . S
C610 C604 1.465 1_655 S
C610 C609 1.396 . S
C610 C611 1.399 . S
C611 H597 0.929 . S
C611 C610 1.399 . S
C611 C612 1.385 . S
C612 H598 0.931 . S
C612 C611 1.385 . S
C612 C613 1.389 . S
C613 C612 1.389 . S
C613 C614 1.387 . S
C614 H599 0.930 . S
C614 C609 1.390 . S
C614 C613 1.387 . S
H615 C627 0.930 . S
H616 C629 0.930 . S
H617 C630 0.930 . S
H618 C634 0.959 . S
H619 C634 0.959 1_545 S
H620 C634 0.961 . S
H621 C635 0.960 1_565 S
H622 C635 0.961 . S
H623 C635 0.959 . S
H624 C638 0.929 . S
H625 C639 0.931 . S
H626 C641 0.930 . S
C627 H615 0.930 . S
C627 C628 1.399 . S
C627 C632 1.399 . S
C628 C627 1.399 . S
C628 C629 1.376 . S
C629 H616 0.930 . S
C629 C628 1.376 . S
C629 C630 1.388 . S
C630 H617 0.930 . S
C630 C629 1.388 . S
C630 C631 1.390 . S
C631 C630 1.390 . S
C631 C632 1.394 . S
C631 C637 1.465 1_565 S
C632 C627 1.399 . S
C632 C631 1.394 . S
C632 C633 1.516 1_565 S
C633 C632 1.516 1_545 S
C633 C634 1.502 1_545 S
C633 C635 1.561 . S
C633 C636 1.526 . S
C634 H618 0.959 . S
C634 H619 0.959 1_565 S
C634 H620 0.961 . S
C634 C633 1.502 1_565 S
C635 H621 0.960 1_545 S
C635 H622 0.961 . S
C635 H623 0.959 . S
C635 C633 1.561 . S
C636 C633 1.526 . S
C636 C637 1.396 . S
C636 C641 1.390 . S
C637 C631 1.465 1_545 S
C637 C636 1.396 . S
C637 C638 1.399 . S
C638 H624 0.929 . S
C638 C637 1.399 . S
C638 C639 1.385 . S
C639 H625 0.931 . S
C639 C638 1.385 . S
C639 C640 1.389 . S
C640 C639 1.389 . S
C640 C641 1.387 . S
C641 H626 0.930 . S
C641 C636 1.390 . S
C641 C640 1.387 . S
H642 C654 0.930 . S
H643 C656 0.930 . S
H644 C657 0.930 . S
H645 C661 0.959 . S
H646 C661 0.959 . S
H647 C661 0.961 . S
H648 C662 0.960 . S
H649 C662 0.961 . S
H650 C662 0.959 . S
H651 C665 0.929 . S
H652 C666 0.931 . S
H653 C668 0.930 . S
C654 H642 0.930 . S
C654 C655 1.399 . S
C654 C659 1.399 . S
C655 C654 1.399 . S
C655 C656 1.376 . S
C656 H643 0.930 . S
C656 C655 1.376 . S
C656 C657 1.388 . S
C657 H644 0.930 . S
C657 C656 1.388 . S
C657 C658 1.390 . S
C658 C657 1.390 . S
C658 C659 1.394 . S
C658 C664 1.465 . S
C659 C654 1.399 . S
C659 C658 1.394 . S
C659 C660 1.516 . S
C660 C659 1.516 . S
C660 C661 1.502 . S
C660 C662 1.561 . S
C660 C663 1.526 . S
C661 H645 0.959 . S
C661 H646 0.959 . S
C661 H647 0.961 . S
C661 C660 1.502 . S
C662 H648 0.960 . S
C662 H649 0.961 . S
C662 H650 0.959 . S
C662 C660 1.561 . S
C663 C660 1.526 . S
C663 C664 1.396 . S
C663 C668 1.390 . S
C664 C658 1.465 . S
C664 C663 1.396 . S
C664 C665 1.399 . S
C665 H651 0.929 . S
C665 C664 1.399 . S
C665 C666 1.385 . S
C666 H652 0.931 . S
C666 C665 1.385 . S
C666 C667 1.389 . S
C667 C666 1.389 . S
C667 C668 1.387 . S
C668 H653 0.930 . S
C668 C663 1.390 . S
C668 C667 1.387 . S
H669 C681 0.930 . S
H670 C683 0.930 . S
H671 C684 0.930 . S
H672 C688 0.959 . S
H673 C688 0.959 . S
H674 C688 0.961 . S
H675 C689 0.960 . S
H676 C689 0.961 . S
H677 C689 0.959 . S
H678 C692 0.929 . S
H679 C693 0.931 . S
H680 C695 0.930 . S
C681 H669 0.930 . S
C681 C682 1.399 . S
C681 C686 1.399 . S
C682 C681 1.399 . S
C682 C683 1.376 . S
C683 H670 0.930 . S
C683 C682 1.376 . S
C683 C684 1.388 . S
C684 H671 0.930 . S
C684 C683 1.388 . S
C684 C685 1.390 . S
C685 C684 1.390 . S
C685 C686 1.394 . S
C685 C691 1.465 1_455 S
C686 C681 1.399 . S
C686 C685 1.394 . S
C686 C687 1.516 1_455 S
C687 C686 1.516 1_655 S
C687 C688 1.502 . S
C687 C689 1.561 . S
C687 C690 1.526 . S
C688 H672 0.959 . S
C688 H673 0.959 . S
C688 H674 0.961 . S
C688 C687 1.502 . S
C689 H675 0.960 . S
C689 H676 0.961 . S
C689 H677 0.959 . S
C689 C687 1.561 . S
C690 C687 1.526 . S
C690 C691 1.396 . S
C690 C695 1.390 . S
C691 C685 1.465 1_655 S
C691 C690 1.396 . S
C691 C692 1.399 . S
C692 H678 0.929 . S
C692 C691 1.399 . S
C692 C693 1.385 . S
C693 H679 0.931 . S
C693 C692 1.385 . S
C693 C694 1.389 . S
C694 C693 1.389 . S
C694 C695 1.387 . S
C695 H680 0.930 . S
C695 C690 1.390 . S
C695 C694 1.387 . S
H696 C708 0.930 . S
H697 C710 0.930 . S
H698 C711 0.930 . S
H699 C715 0.959 . S
H700 C715 0.959 . S
H701 C715 0.961 1_565 S
H702 C716 0.960 . S
H703 C716 0.962 1_545 S
H704 C716 0.959 . S
H705 C719 0.929 . S
H706 C720 0.931 . S
H707 C722 0.930 . S
C708 H696 0.930 . S
C708 C709 1.399 . S
C708 C713 1.399 . S
C709 C708 1.399 . S
C709 C710 1.376 . S
C710 H697 0.930 . S
C710 C709 1.376 . S
C710 C711 1.388 . S
C711 H698 0.930 . S
C711 C710 1.388 . S
C711 C712 1.390 . S
C712 C711 1.390 . S
C712 C713 1.394 . S
C712 C718 1.465 1_565 S
C713 C708 1.399 . S
C713 C712 1.394 . S
C713 C714 1.516 . S
C714 C713 1.516 . S
C714 C715 1.502 1_565 S
C714 C716 1.561 . S
C714 C717 1.526 1_565 S
C715 H699 0.959 . S
C715 H700 0.959 . S
C715 H701 0.961 1_545 S
C715 C714 1.502 1_545 S
C716 H702 0.960 . S
C716 H703 0.962 1_565 S
C716 H704 0.959 . S
C716 C714 1.561 . S
C717 C714 1.526 1_545 S
C717 C718 1.396 . S
C717 C722 1.390 . S
C718 C712 1.465 1_545 S
C718 C717 1.396 . S
C718 C719 1.399 . S
C719 H705 0.929 . S
C719 C718 1.399 . S
C719 C720 1.385 . S
C720 H706 0.931 . S
C720 C719 1.385 . S
C720 C721 1.389 . S
C721 C720 1.389 . S
C721 C722 1.387 . S
C722 H707 0.930 . S
C722 C717 1.390 . S
C722 C721 1.387 . S
H723 C735 0.930 . S
H724 C737 0.930 . S
H725 C738 0.930 . S
H726 C742 0.959 . S
H727 C742 0.959 . S
H728 C742 0.961 . S
H729 C743 0.960 . S
H730 C743 0.961 . S
H731 C743 0.959 . S
H732 C746 0.929 . S
H733 C747 0.931 . S
H734 C749 0.930 . S
C735 H723 0.930 . S
C735 C736 1.399 . S
C735 C740 1.399 . S
C736 C735 1.399 . S
C736 C737 1.376 . S
C737 H724 0.930 . S
C737 C736 1.376 . S
C737 C738 1.388 . S
C738 H725 0.930 . S
C738 C737 1.388 . S
C738 C739 1.390 . S
C739 C738 1.390 . S
C739 C740 1.394 . S
C739 C745 1.465 . S
C740 C735 1.399 . S
C740 C739 1.394 . S
C740 C741 1.516 . S
C741 C740 1.516 . S
C741 C742 1.502 . S
C741 C743 1.561 . S
C741 C744 1.526 . S
C742 H726 0.959 . S
C742 H727 0.959 . S
C742 H728 0.961 . S
C742 C741 1.502 . S
C743 H729 0.960 . S
C743 H730 0.961 . S
C743 H731 0.959 . S
C743 C741 1.561 . S
C744 C741 1.526 . S
C744 C745 1.396 . S
C744 C749 1.390 . S
C745 C739 1.465 . S
C745 C744 1.396 . S
C745 C746 1.399 . S
C746 H732 0.929 . S
C746 C745 1.399 . S
C746 C747 1.385 . S
C747 H733 0.931 . S
C747 C746 1.385 . S
C747 C748 1.389 . S
C748 C747 1.389 . S
C748 C749 1.387 . S
C749 H734 0.930 . S
C749 C744 1.390 . S
C749 C748 1.387 . S
H750 C762 0.930 . S
H751 C764 0.930 . S
H752 C765 0.930 . S
H753 C769 0.959 . S
H754 C769 0.959 . S
H755 C769 0.961 . S
H756 C770 0.960 . S
H757 C770 0.961 1_655 S
H758 C770 0.959 1_655 S
H759 C773 0.929 . S
H760 C774 0.931 . S
H761 C776 0.930 . S
C762 H750 0.930 . S
C762 C763 1.399 . S
C762 C767 1.399 . S
C763 C762 1.399 . S
C763 C764 1.376 . S
C764 H751 0.930 . S
C764 C763 1.376 . S
C764 C765 1.388 . S
C765 H752 0.930 . S
C765 C764 1.388 . S
C765 C766 1.390 . S
C766 C765 1.390 . S
C766 C767 1.394 . S
C766 C772 1.465 1_455 S
C767 C762 1.399 . S
C767 C766 1.394 . S
C767 C768 1.516 . S
C768 C767 1.516 . S
C768 C769 1.502 . S
C768 C770 1.561 . S
C768 C771 1.526 1_455 S
C769 H753 0.959 . S
C769 H754 0.959 . S
C769 H755 0.961 . S
C769 C768 1.502 . S
C770 H756 0.960 . S
C770 H757 0.961 1_455 S
C770 H758 0.959 1_455 S
C770 C768 1.561 . S
C771 C768 1.526 1_655 S
C771 C772 1.396 . S
C771 C776 1.390 . S
C772 C766 1.465 1_655 S
C772 C771 1.396 . S
C772 C773 1.399 . S
C773 H759 0.929 . S
C773 C772 1.399 . S
C773 C774 1.385 . S
C774 H760 0.931 . S
C774 C773 1.385 . S
C774 C775 1.389 . S
C775 C774 1.389 . S
C775 C776 1.387 . S
C776 H761 0.930 . S
C776 C771 1.390 . S
C776 C775 1.387 . S
H777 C789 0.930 . S
H778 C791 0.930 . S
H779 C792 0.930 . S
H780 C796 0.959 . S
H781 C796 0.959 1_565 S
H782 C796 0.961 . S
H783 C797 0.966 . S
H784 C797 0.961 . S
H785 C797 0.959 . S
H786 C800 0.929 . S
H787 C801 0.931 . S
H788 C803 0.930 . S
C789 H777 0.930 . S
C789 C790 1.399 . S
C789 C794 1.399 . S
C790 C789 1.399 . S
C790 C791 1.376 . S
C791 H778 0.930 . S
C791 C790 1.376 . S
C791 C792 1.388 . S
C792 H779 0.930 . S
C792 C791 1.388 . S
C792 C793 1.390 . S
C793 C792 1.390 . S
C793 C794 1.394 . S
C793 C799 1.465 1_545 S
C794 C789 1.399 . S
C794 C793 1.394 . S
C794 C795 1.516 1_545 S
C795 C794 1.516 1_565 S
C795 C796 1.502 1_565 S
C795 C797 1.561 . S
C795 C798 1.526 . S
C796 H780 0.959 . S
C796 H781 0.959 1_545 S
C796 H782 0.961 . S
C796 C795 1.502 1_545 S
C797 H783 0.966 . S
C797 H784 0.961 . S
C797 H785 0.959 . S
C797 C795 1.561 . S
C798 C795 1.526 . S
C798 C799 1.396 . S
C798 C803 1.390 . S
C799 C793 1.465 1_565 S
C799 C798 1.396 . S
C799 C800 1.399 . S
C800 H786 0.929 . S
C800 C799 1.399 . S
C800 C801 1.385 . S
C801 H787 0.931 . S
C801 C800 1.385 . S
C801 C802 1.389 . S
C802 C801 1.389 . S
C802 C803 1.387 . S
C803 H788 0.930 . S
C803 C798 1.390 . S
C803 C802 1.387 . S
H804 C816 0.930 . S
H805 C818 0.930 . S
H806 C819 0.930 . S
H807 C823 0.959 . S
H808 C823 0.959 . S
H809 C823 0.961 . S
H810 C824 0.960 . S
H811 C824 0.961 . S
H812 C824 0.959 . S
H813 C827 0.929 . S
H814 C828 0.931 . S
H815 C830 0.930 . S
C816 H804 0.930 . S
C816 C817 1.399 . S
C816 C821 1.399 . S
C817 C816 1.399 . S
C817 C818 1.376 . S
C818 H805 0.930 . S
C818 C817 1.376 . S
C818 C819 1.388 . S
C819 H806 0.930 . S
C819 C818 1.388 . S
C819 C820 1.390 . S
C820 C819 1.390 . S
C820 C821 1.394 . S
C820 C826 1.465 . S
C821 C816 1.399 . S
C821 C820 1.394 . S
C821 C822 1.516 . S
C822 C821 1.516 . S
C822 C823 1.502 . S
C822 C824 1.561 . S
C822 C825 1.526 . S
C823 H807 0.959 . S
C823 H808 0.959 . S
C823 H809 0.961 . S
C823 C822 1.502 . S
C824 H810 0.960 . S
C824 H811 0.961 . S
C824 H812 0.959 . S
C824 C822 1.561 . S
C825 C822 1.526 . S
C825 C826 1.396 . S
C825 C830 1.390 . S
C826 C820 1.465 . S
C826 C825 1.396 . S
C826 C827 1.399 . S
C827 H813 0.929 . S
C827 C826 1.399 . S
C827 C828 1.385 . S
C828 H814 0.931 . S
C828 C827 1.385 . S
C828 C829 1.389 . S
C829 C828 1.389 . S
C829 C830 1.387 . S
C830 H815 0.930 . S
C830 C825 1.390 . S
C830 C829 1.387 . S
H831 C843 0.930 . S
H832 C845 0.930 . S
H833 C846 0.930 . S
H834 C850 0.959 . S
H835 C850 0.959 . S
H836 C850 0.961 . S
H837 C851 0.960 . S
H838 C851 0.961 . S
H839 C851 0.959 . S
H840 C854 0.929 . S
H841 C855 0.931 . S
H842 C857 0.930 . S
C843 H831 0.930 . S
C843 C844 1.399 . S
C843 C848 1.399 . S
C844 C843 1.399 . S
C844 C845 1.376 . S
C845 H832 0.930 . S
C845 C844 1.376 . S
C845 C846 1.388 . S
C846 H833 0.930 . S
C846 C845 1.388 . S
C846 C847 1.390 . S
C847 C846 1.390 . S
C847 C848 1.394 . S
C847 C853 1.465 . S
C848 C843 1.399 . S
C848 C847 1.394 . S
C848 C849 1.516 . S
C849 C848 1.516 . S
C849 C850 1.502 . S
C849 C851 1.561 . S
C849 C852 1.526 . S
C850 H834 0.959 . S
C850 H835 0.959 . S
C850 H836 0.961 . S
C850 C849 1.502 . S
C851 H837 0.960 . S
C851 H838 0.961 . S
C851 H839 0.959 . S
C851 C849 1.561 . S
C852 C849 1.526 . S
C852 C853 1.396 . S
C852 C857 1.390 . S
C853 C847 1.465 . S
C853 C852 1.396 . S
C853 C854 1.399 . S
C854 H840 0.929 . S
C854 C853 1.399 . S
C854 C855 1.385 . S
C855 H841 0.931 . S
C855 C854 1.385 . S
C855 C856 1.389 . S
C856 C855 1.389 . S
C856 C857 1.387 . S
C857 H842 0.930 . S
C857 C852 1.390 . S
C857 C856 1.387 . S
H858 C870 0.930 . S
H859 C872 0.930 . S
H860 C873 0.930 . S
H861 C877 0.959 . S
H862 C877 0.959 . S
H863 C877 0.961 . S
H864 C878 0.960 . S
H865 C878 0.961 . S
H866 C878 0.959 . S
H867 C881 0.929 . S
H868 C882 0.931 . S
H869 C884 0.930 . S
C870 H858 0.930 . S
C870 C871 1.399 . S
C870 C875 1.399 . S
C871 C870 1.399 . S
C871 C872 1.376 . S
C872 H859 0.930 . S
C872 C871 1.376 . S
C872 C873 1.388 . S
C873 H860 0.930 . S
C873 C872 1.388 . S
C873 C874 1.390 . S
C874 C873 1.390 . S
C874 C875 1.394 . S
C874 C880 1.465 . S
C875 C870 1.399 . S
C875 C874 1.394 . S
C875 C876 1.516 . S
C876 C875 1.516 . S
C876 C877 1.502 . S
C876 C878 1.561 . S
C876 C879 1.526 . S
C877 H861 0.959 . S
C877 H862 0.959 . S
C877 H863 0.961 . S
C877 C876 1.502 . S
C878 H864 0.960 . S
C878 H865 0.961 . S
C878 H866 0.959 . S
C878 C876 1.561 . S
C879 C876 1.526 . S
C879 C880 1.396 . S
C879 C884 1.390 . S
C880 C874 1.465 . S
C880 C879 1.396 . S
C880 C881 1.399 . S
C881 H867 0.929 . S
C881 C880 1.399 . S
C881 C882 1.385 . S
C882 H868 0.931 . S
C882 C881 1.385 . S
C882 C883 1.389 . S
C883 C882 1.389 . S
C883 C884 1.387 . S
C884 H869 0.930 . S
C884 C879 1.390 . S
C884 C883 1.387 . S
H885 C897 0.930 . S
H886 C899 0.930 . S
H887 C900 0.930 . S
H888 C904 0.959 . S
H889 C904 0.959 . S
H890 C904 0.961 . S
H891 C905 0.960 . S
H892 C905 0.961 . S
H893 C905 0.959 . S
H894 C908 0.929 . S
H895 C909 0.931 . S
H896 C911 0.930 . S
C897 H885 0.930 . S
C897 C898 1.399 . S
C897 C902 1.399 . S
C898 C897 1.399 . S
C898 C899 1.376 . S
C899 H886 0.930 . S
C899 C898 1.376 . S
C899 C900 1.388 . S
C900 H887 0.930 . S
C900 C899 1.388 . S
C900 C901 1.390 . S
C901 C900 1.390 . S
C901 C902 1.394 . S
C901 C907 1.465 . S
C902 C897 1.399 . S
C902 C901 1.394 . S
C902 C903 1.516 . S
C903 C902 1.516 . S
C903 C904 1.502 . S
C903 C905 1.561 . S
C903 C906 1.526 . S
C904 H888 0.959 . S
C904 H889 0.959 . S
C904 H890 0.961 . S
C904 C903 1.502 . S
C905 H891 0.960 . S
C905 H892 0.961 . S
C905 H893 0.959 . S
C905 C903 1.561 . S
C906 C903 1.526 . S
C906 C907 1.396 . S
C906 C911 1.390 . S
C907 C901 1.465 . S
C907 C906 1.396 . S
C907 C908 1.399 . S
C908 H894 0.929 . S
C908 C907 1.399 . S
C908 C909 1.385 . S
C909 H895 0.931 . S
C909 C908 1.385 . S
C909 C910 1.389 . S
C910 C909 1.389 . S
C910 C911 1.387 . S
C911 H896 0.930 . S
C911 C906 1.390 . S
C911 C910 1.387 . S
H912 C924 0.930 . S
H913 C926 0.930 . S
H914 C927 0.930 . S
H915 C931 0.959 . S
H916 C931 0.959 . S
H917 C931 0.961 . S
H918 C932 0.960 . S
H919 C932 0.961 . S
H920 C932 0.959 . S
H921 C935 0.929 . S
H922 C936 0.931 . S
H923 C938 0.930 . S
C924 H912 0.930 . S
C924 C925 1.399 . S
C924 C929 1.399 . S
C925 C924 1.399 . S
C925 C926 1.376 . S
C926 H913 0.930 . S
C926 C925 1.376 . S
C926 C927 1.388 . S
C927 H914 0.930 . S
C927 C926 1.388 . S
C927 C928 1.390 . S
C928 C927 1.390 . S
C928 C929 1.394 . S
C928 C934 1.465 . S
C929 C924 1.399 . S
C929 C928 1.394 . S
C929 C930 1.516 . S
C930 C929 1.516 . S
C930 C931 1.502 . S
C930 C932 1.561 . S
C930 C933 1.526 . S
C931 H915 0.959 . S
C931 H916 0.959 . S
C931 H917 0.961 . S
C931 C930 1.502 . S
C932 H918 0.960 . S
C932 H919 0.961 . S
C932 H920 0.959 . S
C932 C930 1.561 . S
C933 C930 1.526 . S
C933 C934 1.396 . S
C933 C938 1.390 . S
C934 C928 1.465 . S
C934 C933 1.396 . S
C934 C935 1.399 . S
C935 H921 0.929 . S
C935 C934 1.399 . S
C935 C936 1.385 . S
C936 H922 0.931 . S
C936 C935 1.385 . S
C936 C937 1.389 . S
C937 C936 1.389 . S
C937 C938 1.387 . S
C938 H923 0.930 . S
C938 C933 1.390 . S
C938 C937 1.387 . S
H939 C951 0.930 . S
H940 C953 0.930 . S
H941 C954 0.930 . S
H942 C958 0.959 . S
H943 C958 0.959 . S
H944 C958 0.961 . S
H945 C959 0.960 . S
H946 C959 0.961 . S
H947 C959 0.959 . S
H948 C962 0.929 . S
H949 C963 0.931 . S
H950 C965 0.930 . S
C951 H939 0.930 . S
C951 C952 1.399 . S
C951 C956 1.399 . S
C952 C951 1.399 . S
C952 C953 1.376 . S
C953 H940 0.930 . S
C953 C952 1.376 . S
C953 C954 1.388 . S
C954 H941 0.930 . S
C954 C953 1.388 . S
C954 C955 1.390 . S
C955 C954 1.390 . S
C955 C956 1.394 . S
C955 C961 1.465 . S
C956 C951 1.399 . S
C956 C955 1.394 . S
C956 C957 1.516 . S
C957 C956 1.516 . S
C957 C958 1.502 . S
C957 C959 1.561 . S
C957 C960 1.526 . S
C958 H942 0.959 . S
C958 H943 0.959 . S
C958 H944 0.961 . S
C958 C957 1.502 . S
C959 H945 0.960 . S
C959 H946 0.961 . S
C959 H947 0.959 . S
C959 C957 1.561 . S
C960 C957 1.526 . S
C960 C961 1.396 . S
C960 C965 1.390 . S
C961 C955 1.465 . S
C961 C960 1.396 . S
C961 C962 1.399 . S
C962 H948 0.929 . S
C962 C961 1.399 . S
C962 C963 1.385 . S
C963 H949 0.931 . S
C963 C962 1.385 . S
C963 C964 1.389 . S
C964 C963 1.389 . S
C964 C965 1.387 . S
C965 H950 0.930 . S
C965 C960 1.390 . S
C965 C964 1.387 . S
H966 C978 0.930 . S
H967 C980 0.930 . S
H968 C981 0.930 . S
H969 C985 0.959 1_546 S
H970 C985 0.959 1_545 S
H971 C985 0.961 1_556 S
H972 C986 0.960 . S
H973 C986 0.961 . S
H974 C986 0.959 . S
H975 C989 0.946 . S
H976 C990 0.931 . S
H977 C992 0.930 . S
C978 H966 0.930 . S
C978 C979 1.399 . S
C978 C983 1.399 . S
C979 C978 1.399 . S
C979 C980 1.376 . S
C980 H967 0.930 . S
C980 C979 1.376 . S
C980 C981 1.388 . S
C981 H968 0.930 . S
C981 C980 1.388 . S
C981 C982 1.390 . S
C982 C981 1.390 . S
C982 C983 1.394 . S
C982 C988 1.465 1_566 S
C983 C978 1.399 . S
C983 C982 1.394 . S
C983 C984 1.516 1_556 S
C984 C983 1.516 1_554 S
C984 C985 1.502 . S
C984 C986 1.561 . S
C984 C987 1.526 1_565 S
C985 H969 0.959 1_564 S
C985 H970 0.959 1_565 S
C985 H971 0.961 1_554 S
C985 C984 1.502 . S
C986 H972 0.960 . S
C986 H973 0.961 . S
C986 H974 0.959 . S
C986 C984 1.561 . S
C987 C984 1.526 1_545 S
C987 C988 1.396 . S
C987 C992 1.390 . S
C988 C982 1.465 1_544 S
C988 C987 1.396 . S
C988 C989 1.399 . S
C989 H975 0.946 . S
C989 C988 1.399 . S
C989 C990 1.385 . S
C990 H976 0.931 . S
C990 C989 1.385 . S
C990 C991 1.389 . S
C991 C990 1.389 . S
C991 C992 1.387 . S
C992 H977 0.930 . S
C992 C987 1.390 . S
C992 C991 1.387 . S
H993 C1005 0.930 . S
H994 C1007 0.930 . S
H995 C1008 0.930 . S
H996 C1012 0.959 . S
H997 C1012 0.959 . S
H998 C1012 0.961 . S
H999 C1013 0.960 . S
H1000 C1013 0.961 . S
H1001 C1013 0.959 . S
H1002 C1016 0.929 . S
H1003 C1017 0.931 . S
H1004 C1019 0.930 . S
C1005 H993 0.930 . S
C1005 C1006 1.399 . S
C1005 C1010 1.399 . S
C1006 C1005 1.399 . S
C1006 C1007 1.376 . S
C1007 H994 0.930 . S
C1007 C1006 1.376 . S
C1007 C1008 1.388 . S
C1008 H995 0.930 . S
C1008 C1007 1.388 . S
C1008 C1009 1.390 . S
C1009 C1008 1.390 . S
C1009 C1010 1.394 . S
C1009 C1015 1.465 . S
C1010 C1005 1.399 . S
C1010 C1009 1.394 . S
C1010 C1011 1.516 . S
C1011 C1010 1.516 . S
C1011 C1012 1.502 . S
C1011 C1013 1.561 . S
C1011 C1014 1.526 . S
C1012 H996 0.959 . S
C1012 H997 0.959 . S
C1012 H998 0.961 . S
C1012 C1011 1.502 . S
C1013 H999 0.960 . S
C1013 H1000 0.961 . S
C1013 H1001 0.959 . S
C1013 C1011 1.561 . S
C1014 C1011 1.526 . S
C1014 C1015 1.396 . S
C1014 C1019 1.390 . S
C1015 C1009 1.465 . S
C1015 C1014 1.396 . S
C1015 C1016 1.399 . S
C1016 H1002 0.929 . S
C1016 C1015 1.399 . S
C1016 C1017 1.385 . S
C1017 H1003 0.931 . S
C1017 C1016 1.385 . S
C1017 C1018 1.389 . S
C1018 C1017 1.389 . S
C1018 C1019 1.387 . S
C1019 H1004 0.930 . S
C1019 C1014 1.390 . S
C1019 C1018 1.387 . S
H1020 C1032 0.930 . S
H1021 C1034 0.930 . S
H1022 C1035 0.930 . S
H1023 C1039 0.965 . S
H1024 C1039 0.949 1_655 S
H1025 C1039 0.964 1_556 S
H1026 C1040 0.960 . S
H1027 C1040 0.961 . S
H1028 C1040 0.959 . S
H1029 C1043 0.929 . S
H1030 C1044 0.931 . S
H1031 C1046 0.930 . S
C1032 H1020 0.930 . S
C1032 C1033 1.399 . S
C1032 C1037 1.399 . S
C1033 C1032 1.399 . S
C1033 C1034 1.376 . S
C1034 H1021 0.930 . S
C1034 C1033 1.376 . S
C1034 C1035 1.388 . S
C1035 H1022 0.930 . S
C1035 C1034 1.388 . S
C1035 C1036 1.390 . S
C1036 C1035 1.390 . S
C1036 C1037 1.394 . S
C1036 C1042 1.465 1_456 S
C1037 C1032 1.399 . S
C1037 C1036 1.394 . S
C1037 C1038 1.516 1_455 S
C1038 C1037 1.516 1_655 S
C1038 C1039 1.504 1_656 S
C1038 C1040 1.561 . S
C1038 C1041 1.526 1_556 S
C1039 H1023 0.965 . S
C1039 H1024 0.949 1_455 S
C1039 H1025 0.964 1_554 S
C1039 C1038 1.504 1_454 S
C1040 H1026 0.960 . S
C1040 H1027 0.961 . S
C1040 H1028 0.959 . S
C1040 C1038 1.561 . S
C1041 C1038 1.526 1_554 S
C1041 C1042 1.396 . S
C1041 C1046 1.390 . S
C1042 C1036 1.465 1_654 S
C1042 C1041 1.396 . S
C1042 C1043 1.399 . S
C1043 H1029 0.929 . S
C1043 C1042 1.399 . S
C1043 C1044 1.385 . S
C1044 H1030 0.931 . S
C1044 C1043 1.385 . S
C1044 C1045 1.389 . S
C1045 C1044 1.389 . S
C1045 C1046 1.387 . S
C1046 H1031 0.930 . S
C1046 C1041 1.390 . S
C1046 C1045 1.387 . S
H1047 C1059 0.930 . S
H1048 C1061 0.930 . S
H1049 C1062 0.930 . S
H1050 C1066 0.959 . S
H1051 C1066 0.959 . S
H1052 C1066 0.961 . S
H1053 C1067 0.960 . S
H1054 C1067 0.961 . S
H1055 C1067 0.959 . S
H1056 C1070 0.929 1_545 S
H1057 C1071 0.931 . S
H1058 C1073 0.930 . S
C1059 H1047 0.930 . S
C1059 C1060 1.399 . S
C1059 C1064 1.399 . S
C1060 C1059 1.399 . S
C1060 C1061 1.376 . S
C1061 H1048 0.930 . S
C1061 C1060 1.376 . S
C1061 C1062 1.388 . S
C1062 H1049 0.930 . S
C1062 C1061 1.388 . S
C1062 C1063 1.390 . S
C1063 C1062 1.390 . S
C1063 C1064 1.394 . S
C1063 C1069 1.465 1_545 S
C1064 C1059 1.399 . S
C1064 C1063 1.394 . S
C1064 C1065 1.516 1_545 S
C1065 C1064 1.516 1_565 S
C1065 C1066 1.502 . S
C1065 C1067 1.561 . S
C1065 C1068 1.526 . S
C1066 H1050 0.959 . S
C1066 H1051 0.959 . S
C1066 H1052 0.961 . S
C1066 C1065 1.502 . S
C1067 H1053 0.960 . S
C1067 H1054 0.961 . S
C1067 H1055 0.959 . S
C1067 C1065 1.561 . S
C1068 C1065 1.526 . S
C1068 C1069 1.396 . S
C1068 C1073 1.390 . S
C1069 C1063 1.465 1_565 S
C1069 C1068 1.396 . S
C1069 C1070 1.399 . S
C1070 H1056 0.929 1_565 S
C1070 C1069 1.399 . S
C1070 C1071 1.385 . S
C1071 H1057 0.931 . S
C1071 C1070 1.385 . S
C1071 C1072 1.389 . S
C1072 C1071 1.389 . S
C1072 C1073 1.387 . S
C1073 H1058 0.930 . S
C1073 C1068 1.390 . S
C1073 C1072 1.387 . S
H1074 C1086 0.930 . S
H1075 C1088 0.930 . S
H1076 C1089 0.930 . S
H1077 C1093 0.959 . S
H1078 C1093 0.959 . S
H1079 C1093 0.961 . S
H1080 C1094 0.960 . S
H1081 C1094 0.961 . S
H1082 C1094 0.959 . S
H1083 C1097 0.929 . S
H1084 C1098 0.931 . S
H1085 C1100 0.930 . S
C1086 H1074 0.930 . S
C1086 C1087 1.399 . S
C1086 C1091 1.399 . S
C1087 C1086 1.399 . S
C1087 C1088 1.376 . S
C1088 H1075 0.930 . S
C1088 C1087 1.376 . S
C1088 C1089 1.388 . S
C1089 H1076 0.930 . S
C1089 C1088 1.388 . S
C1089 C1090 1.390 . S
C1090 C1089 1.390 . S
C1090 C1091 1.394 . S
C1090 C1096 1.465 1_554 S
C1091 C1086 1.399 . S
C1091 C1090 1.394 . S
C1091 C1092 1.498 1_554 S
C1092 C1091 1.498 1_556 S
C1092 C1093 1.476 1_556 S
C1092 C1094 1.591 . S
C1092 C1095 1.545 . S
C1093 H1077 0.959 . S
C1093 H1078 0.959 . S
C1093 H1079 0.961 . S
C1093 C1092 1.476 1_554 S
C1094 H1080 0.960 . S
C1094 H1081 0.961 . S
C1094 H1082 0.959 . S
C1094 C1092 1.591 . S
C1095 C1092 1.545 . S
C1095 C1096 1.396 . S
C1095 C1100 1.390 . S
C1096 C1090 1.465 1_556 S
C1096 C1095 1.396 . S
C1096 C1097 1.399 . S
C1097 H1083 0.929 . S
C1097 C1096 1.399 . S
C1097 C1098 1.385 . S
C1098 H1084 0.931 . S
C1098 C1097 1.385 . S
C1098 C1099 1.389 . S
C1099 C1098 1.389 . S
C1099 C1100 1.387 . S
C1100 H1085 0.930 . S
C1100 C1095 1.390 . S
C1100 C1099 1.387 . S
H1101 C1113 0.930 . S
H1102 C1115 0.930 . S
H1103 C1116 0.930 . S
H1104 C1120 0.959 . S
H1105 C1120 0.959 . S
H1106 C1120 0.961 . S
H1107 C1121 0.960 1_455 S
H1108 C1121 0.961 . S
H1109 C1121 0.959 1_455 S
H1110 C1124 0.929 . S
H1111 C1125 0.931 . S
H1112 C1127 0.930 . S
C1113 H1101 0.930 . S
C1113 C1114 1.399 . S
C1113 C1118 1.399 . S
C1114 C1113 1.399 . S
C1114 C1115 1.376 . S
C1115 H1102 0.930 . S
C1115 C1114 1.376 . S
C1115 C1116 1.388 . S
C1116 H1103 0.930 . S
C1116 C1115 1.388 . S
C1116 C1117 1.390 . S
C1117 C1116 1.390 . S
C1117 C1118 1.394 . S
C1117 C1123 1.465 1_455 S
C1118 C1113 1.399 . S
C1118 C1117 1.394 . S
C1118 C1119 1.516 1_455 S
C1119 C1118 1.516 1_655 S
C1119 C1120 1.502 . S
C1119 C1121 1.561 . S
C1119 C1122 1.526 . S
C1120 H1104 0.959 . S
C1120 H1105 0.959 . S
C1120 H1106 0.961 . S
C1120 C1119 1.502 . S
C1121 H1107 0.960 1_655 S
C1121 H1108 0.961 . S
C1121 H1109 0.959 1_655 S
C1121 C1119 1.561 . S
C1122 C1119 1.526 . S
C1122 C1123 1.396 . S
C1122 C1127 1.390 . S
C1123 C1117 1.465 1_655 S
C1123 C1122 1.396 . S
C1123 C1124 1.399 . S
C1124 H1110 0.929 . S
C1124 C1123 1.399 . S
C1124 C1125 1.385 . S
C1125 H1111 0.931 . S
C1125 C1124 1.385 . S
C1125 C1126 1.389 . S
C1126 C1125 1.389 . S
C1126 C1127 1.387 . S
C1127 H1112 0.930 . S
C1127 C1122 1.390 . S
C1127 C1126 1.387 . S
H1128 C1140 0.930 . S
H1129 C1142 0.930 . S
H1130 C1143 0.930 . S
H1131 C1147 0.959 . S
H1132 C1147 0.959 . S
H1133 C1147 0.961 . S
H1134 C1148 0.960 . S
H1135 C1148 0.961 . S
H1136 C1148 0.959 . S
H1137 C1151 0.929 . S
H1138 C1152 0.931 . S
H1139 C1154 0.930 . S
C1140 H1128 0.930 . S
C1140 C1141 1.399 . S
C1140 C1145 1.399 . S
C1141 C1140 1.399 . S
C1141 C1142 1.376 . S
C1142 H1129 0.930 . S
C1142 C1141 1.376 . S
C1142 C1143 1.388 . S
C1143 H1130 0.930 . S
C1143 C1142 1.388 . S
C1143 C1144 1.390 . S
C1144 C1143 1.390 . S
C1144 C1145 1.394 . S
C1144 C1150 1.465 . S
C1145 C1140 1.399 . S
C1145 C1144 1.394 . S
C1145 C1146 1.516 . S
C1146 C1145 1.516 . S
C1146 C1147 1.502 . S
C1146 C1148 1.561 . S
C1146 C1149 1.526 . S
C1147 H1131 0.959 . S
C1147 H1132 0.959 . S
C1147 H1133 0.961 . S
C1147 C1146 1.502 . S
C1148 H1134 0.960 . S
C1148 H1135 0.961 . S
C1148 H1136 0.959 . S
C1148 C1146 1.561 . S
C1149 C1146 1.526 . S
C1149 C1150 1.396 . S
C1149 C1154 1.390 . S
C1150 C1144 1.465 . S
C1150 C1149 1.396 . S
C1150 C1151 1.399 . S
C1151 H1137 0.929 . S
C1151 C1150 1.399 . S
C1151 C1152 1.385 . S
C1152 H1138 0.931 . S
C1152 C1151 1.385 . S
C1152 C1153 1.389 . S
C1153 C1152 1.389 . S
C1153 C1154 1.387 . S
C1154 H1139 0.930 . S
C1154 C1149 1.390 . S
C1154 C1153 1.387 . S
H1155 C1167 0.930 . S
H1156 C1169 0.930 . S
H1157 C1170 0.930 . S
H1158 C1174 0.959 . S
H1159 C1174 0.959 . S
H1160 C1174 0.961 . S
H1161 C1175 0.960 . S
H1162 C1175 0.961 . S
H1163 C1175 0.959 . S
H1164 C1178 0.929 . S
H1165 C1179 0.931 . S
H1166 C1181 0.930 . S
C1167 H1155 0.930 . S
C1167 C1168 1.399 . S
C1167 C1172 1.399 . S
C1168 C1167 1.399 . S
C1168 C1169 1.376 . S
C1169 H1156 0.930 . S
C1169 C1168 1.376 . S
C1169 C1170 1.388 . S
C1170 H1157 0.930 . S
C1170 C1169 1.388 . S
C1170 C1171 1.390 . S
C1171 C1170 1.390 . S
C1171 C1172 1.394 . S
C1171 C1177 1.465 . S
C1172 C1167 1.399 . S
C1172 C1171 1.394 . S
C1172 C1173 1.516 . S
C1173 C1172 1.516 . S
C1173 C1174 1.502 . S
C1173 C1175 1.561 . S
C1173 C1176 1.526 . S
C1174 H1158 0.959 . S
C1174 H1159 0.959 . S
C1174 H1160 0.961 . S
C1174 C1173 1.502 . S
C1175 H1161 0.960 . S
C1175 H1162 0.961 . S
C1175 H1163 0.959 . S
C1175 C1173 1.561 . S
C1176 C1173 1.526 . S
C1176 C1177 1.396 . S
C1176 C1181 1.390 . S
C1177 C1171 1.465 . S
C1177 C1176 1.396 . S
C1177 C1178 1.399 . S
C1178 H1164 0.929 . S
C1178 C1177 1.399 . S
C1178 C1179 1.385 . S
C1179 H1165 0.931 . S
C1179 C1178 1.385 . S
C1179 C1180 1.389 . S
C1180 C1179 1.389 . S
C1180 C1181 1.387 . S
C1181 H1166 0.930 . S
C1181 C1176 1.390 . S
C1181 C1180 1.387 . S
H1182 C1194 0.930 . S
H1183 C1196 0.930 . S
H1184 C1197 0.930 . S
H1185 C1201 0.959 . S
H1186 C1201 0.959 . S
H1187 C1201 0.961 . S
H1188 C1202 0.960 . S
H1189 C1202 0.961 . S
H1190 C1202 0.959 . S
H1191 C1205 0.929 . S
H1192 C1206 0.931 . S
H1193 C1208 0.930 . S
C1194 H1182 0.930 . S
C1194 C1195 1.399 . S
C1194 C1199 1.399 . S
C1195 C1194 1.399 . S
C1195 C1196 1.376 . S
C1196 H1183 0.930 . S
C1196 C1195 1.376 . S
C1196 C1197 1.388 . S
C1197 H1184 0.930 . S
C1197 C1196 1.388 . S
C1197 C1198 1.390 . S
C1198 C1197 1.390 . S
C1198 C1199 1.394 . S
C1198 C1204 1.465 . S
C1199 C1194 1.399 . S
C1199 C1198 1.394 . S
C1199 C1200 1.516 . S
C1200 C1199 1.516 . S
C1200 C1201 1.502 . S
C1200 C1202 1.561 . S
C1200 C1203 1.526 . S
C1201 H1185 0.959 . S
C1201 H1186 0.959 . S
C1201 H1187 0.961 . S
C1201 C1200 1.502 . S
C1202 H1188 0.960 . S
C1202 H1189 0.961 . S
C1202 H1190 0.959 . S
C1202 C1200 1.561 . S
C1203 C1200 1.526 . S
C1203 C1204 1.396 . S
C1203 C1208 1.390 . S
C1204 C1198 1.465 . S
C1204 C1203 1.396 . S
C1204 C1205 1.399 . S
C1205 H1191 0.929 . S
C1205 C1204 1.399 . S
C1205 C1206 1.385 . S
C1206 H1192 0.931 . S
C1206 C1205 1.385 . S
C1206 C1207 1.389 . S
C1207 C1206 1.389 . S
C1207 C1208 1.387 . S
C1208 H1193 0.930 . S
C1208 C1203 1.390 . S
C1208 C1207 1.387 . S
H1209 C1221 0.930 . S
H1210 C1223 0.930 . S
H1211 C1224 0.930 . S
H1212 C1228 0.959 . S
H1213 C1228 0.959 . S
H1214 C1228 0.961 . S
H1215 C1229 0.960 . S
H1216 C1229 0.961 . S
H1217 C1229 0.959 . S
H1218 C1232 0.929 . S
H1219 C1233 0.931 . S
H1220 C1235 0.930 . S
C1221 H1209 0.930 . S
C1221 C1222 1.399 . S
C1221 C1226 1.399 . S
C1222 C1221 1.399 . S
C1222 C1223 1.376 . S
C1223 H1210 0.930 . S
C1223 C1222 1.376 . S
C1223 C1224 1.388 . S
C1224 H1211 0.930 . S
C1224 C1223 1.388 . S
C1224 C1225 1.390 . S
C1225 C1224 1.390 . S
C1225 C1226 1.394 . S
C1225 C1231 1.465 . S
C1226 C1221 1.399 . S
C1226 C1225 1.394 . S
C1226 C1227 1.516 . S
C1227 C1226 1.516 . S
C1227 C1228 1.502 . S
C1227 C1229 1.561 . S
C1227 C1230 1.526 . S
C1228 H1212 0.959 . S
C1228 H1213 0.959 . S
C1228 H1214 0.961 . S
C1228 C1227 1.502 . S
C1229 H1215 0.960 . S
C1229 H1216 0.961 . S
C1229 H1217 0.959 . S
C1229 C1227 1.561 . S
C1230 C1227 1.526 . S
C1230 C1231 1.396 . S
C1230 C1235 1.390 . S
C1231 C1225 1.465 . S
C1231 C1230 1.396 . S
C1231 C1232 1.399 . S
C1232 H1218 0.929 . S
C1232 C1231 1.399 . S
C1232 C1233 1.385 . S
C1233 H1219 0.931 . S
C1233 C1232 1.385 . S
C1233 C1234 1.389 . S
C1234 C1233 1.389 . S
C1234 C1235 1.387 . S
C1235 H1220 0.930 . S
C1235 C1230 1.390 . S
C1235 C1234 1.387 . S
H1236 C1248 0.930 . S
H1237 C1250 0.930 . S
H1238 C1251 0.930 . S
H1239 C1255 0.959 . S
H1240 C1255 0.959 . S
H1241 C1255 0.961 . S
H1242 C1256 0.960 . S
H1243 C1256 0.961 . S
H1244 C1256 0.959 . S
H1245 C1259 0.929 . S
H1246 C1260 0.931 . S
H1247 C1262 0.930 . S
C1248 H1236 0.930 . S
C1248 C1249 1.399 . S
C1248 C1253 1.399 . S
C1249 C1248 1.399 . S
C1249 C1250 1.376 . S
C1250 H1237 0.930 . S
C1250 C1249 1.376 . S
C1250 C1251 1.388 . S
C1251 H1238 0.930 . S
C1251 C1250 1.388 . S
C1251 C1252 1.390 . S
C1252 C1251 1.390 . S
C1252 C1253 1.394 . S
C1252 C1258 1.465 . S
C1253 C1248 1.399 . S
C1253 C1252 1.394 . S
C1253 C1254 1.516 . S
C1254 C1253 1.516 . S
C1254 C1255 1.502 . S
C1254 C1256 1.561 . S
C1254 C1257 1.526 . S
C1255 H1239 0.959 . S
C1255 H1240 0.959 . S
C1255 H1241 0.961 . S
C1255 C1254 1.502 . S
C1256 H1242 0.960 . S
C1256 H1243 0.961 . S
C1256 H1244 0.959 . S
C1256 C1254 1.561 . S
C1257 C1254 1.526 . S
C1257 C1258 1.396 . S
C1257 C1262 1.390 . S
C1258 C1252 1.465 . S
C1258 C1257 1.396 . S
C1258 C1259 1.399 . S
C1259 H1245 0.929 . S
C1259 C1258 1.399 . S
C1259 C1260 1.385 . S
C1260 H1246 0.931 . S
C1260 C1259 1.385 . S
C1260 C1261 1.389 . S
C1261 C1260 1.389 . S
C1261 C1262 1.387 . S
C1262 H1247 0.930 . S
C1262 C1257 1.390 . S
C1262 C1261 1.387 . S
H1263 C1275 0.930 . S
H1264 C1277 0.930 . S
H1265 C1278 0.930 . S
H1266 C1282 0.959 . S
H1267 C1282 0.959 . S
H1268 C1282 0.961 . S
H1269 C1283 0.960 . S
H1270 C1283 0.961 . S
H1271 C1283 0.959 . S
H1272 C1286 0.929 . S
H1273 C1287 0.931 . S
H1274 C1289 0.930 . S
C1275 H1263 0.930 . S
C1275 C1276 1.399 . S
C1275 C1280 1.399 . S
C1276 C1275 1.399 . S
C1276 C1277 1.376 . S
C1277 H1264 0.930 . S
C1277 C1276 1.376 . S
C1277 C1278 1.388 . S
C1278 H1265 0.930 . S
C1278 C1277 1.388 . S
C1278 C1279 1.390 . S
C1279 C1278 1.390 . S
C1279 C1280 1.394 . S
C1279 C1285 1.465 . S
C1280 C1275 1.399 . S
C1280 C1279 1.394 . S
C1280 C1281 1.516 . S
C1281 C1280 1.516 . S
C1281 C1282 1.502 . S
C1281 C1283 1.561 . S
C1281 C1284 1.526 . S
C1282 H1266 0.959 . S
C1282 H1267 0.959 . S
C1282 H1268 0.961 . S
C1282 C1281 1.502 . S
C1283 H1269 0.960 . S
C1283 H1270 0.961 . S
C1283 H1271 0.959 . S
C1283 C1281 1.561 . S
C1284 C1281 1.526 . S
C1284 C1285 1.396 . S
C1284 C1289 1.390 . S
C1285 C1279 1.465 . S
C1285 C1284 1.396 . S
C1285 C1286 1.399 . S
C1286 H1272 0.929 . S
C1286 C1285 1.399 . S
C1286 C1287 1.385 . S
C1287 H1273 0.931 . S
C1287 C1286 1.385 . S
C1287 C1288 1.389 . S
C1288 C1287 1.389 . S
C1288 C1289 1.387 . S
C1289 H1274 0.930 . S
C1289 C1284 1.390 . S
C1289 C1288 1.387 . S
H1290 C1302 0.930 . S
H1291 C1304 0.930 . S
H1292 C1305 0.930 . S
H1293 C1309 0.959 . S
H1294 C1309 0.959 . S
H1295 C1309 0.961 . S
H1296 C1310 0.960 . S
H1297 C1310 0.961 . S
H1298 C1310 0.959 . S
H1299 C1313 0.929 . S
H1300 C1314 0.931 . S
H1301 C1316 0.930 . S
C1302 H1290 0.930 . S
C1302 C1303 1.399 . S
C1302 C1307 1.399 . S
C1303 C1302 1.399 . S
C1303 C1304 1.376 . S
C1304 H1291 0.930 . S
C1304 C1303 1.376 . S
C1304 C1305 1.388 . S
C1305 H1292 0.930 . S
C1305 C1304 1.388 . S
C1305 C1306 1.390 . S
C1306 C1305 1.390 . S
C1306 C1307 1.394 . S
C1306 C1312 1.465 . S
C1307 C1302 1.399 . S
C1307 C1306 1.394 . S
C1307 C1308 1.516 . S
C1308 C1307 1.516 . S
C1308 C1309 1.502 . S
C1308 C1310 1.561 . S
C1308 C1311 1.526 . S
C1309 H1293 0.959 . S
C1309 H1294 0.959 . S
C1309 H1295 0.961 . S
C1309 C1308 1.502 . S
C1310 H1296 0.960 . S
C1310 H1297 0.961 . S
C1310 H1298 0.959 . S
C1310 C1308 1.561 . S
C1311 C1308 1.526 . S
C1311 C1312 1.396 . S
C1311 C1316 1.390 . S
C1312 C1306 1.465 . S
C1312 C1311 1.396 . S
C1312 C1313 1.399 . S
C1313 H1299 0.929 . S
C1313 C1312 1.399 . S
C1313 C1314 1.385 . S
C1314 H1300 0.931 . S
C1314 C1313 1.385 . S
C1314 C1315 1.389 . S
C1315 C1314 1.389 . S
C1315 C1316 1.387 . S
C1316 H1301 0.930 . S
C1316 C1311 1.390 . S
C1316 C1315 1.387 . S
H1317 C1329 0.930 . S
H1318 C1331 0.930 . S
H1319 C1332 0.930 . S
H1320 C1336 0.959 . S
H1321 C1336 0.959 . S
H1322 C1336 0.961 . S
H1323 C1337 0.960 . S
H1324 C1337 0.961 . S
H1325 C1337 0.959 . S
H1326 C1340 0.929 . S
H1327 C1341 0.931 . S
H1328 C1343 0.930 . S
C1329 H1317 0.930 . S
C1329 C1330 1.399 . S
C1329 C1334 1.399 . S
C1330 C1329 1.399 . S
C1330 C1331 1.376 . S
C1331 H1318 0.930 . S
C1331 C1330 1.376 . S
C1331 C1332 1.388 . S
C1332 H1319 0.930 . S
C1332 C1331 1.388 . S
C1332 C1333 1.390 . S
C1333 C1332 1.390 . S
C1333 C1334 1.394 . S
C1333 C1339 1.465 . S
C1334 C1329 1.399 . S
C1334 C1333 1.394 . S
C1334 C1335 1.516 . S
C1335 C1334 1.516 . S
C1335 C1336 1.502 . S
C1335 C1337 1.561 . S
C1335 C1338 1.526 . S
C1336 H1320 0.959 . S
C1336 H1321 0.959 . S
C1336 H1322 0.961 . S
C1336 C1335 1.502 . S
C1337 H1323 0.960 . S
C1337 H1324 0.961 . S
C1337 H1325 0.959 . S
C1337 C1335 1.561 . S
C1338 C1335 1.526 . S
C1338 C1339 1.396 . S
C1338 C1343 1.390 . S
C1339 C1333 1.465 . S
C1339 C1338 1.396 . S
C1339 C1340 1.399 . S
C1340 H1326 0.929 . S
C1340 C1339 1.399 . S
C1340 C1341 1.385 . S
C1341 H1327 0.931 . S
C1341 C1340 1.385 . S
C1341 C1342 1.389 . S
C1342 C1341 1.389 . S
C1342 C1343 1.387 . S
C1343 H1328 0.930 . S
C1343 C1338 1.390 . S
C1343 C1342 1.387 . S
H1344 C1356 0.930 . S
H1345 C1358 0.930 . S
H1346 C1359 0.930 . S
H1347 C1363 0.959 . S
H1348 C1363 0.959 . S
H1349 C1363 0.961 . S
H1350 C1364 0.960 . S
H1351 C1364 0.961 . S
H1352 C1364 0.959 . S
H1353 C1367 0.929 . S
H1354 C1368 0.931 . S
H1355 C1370 0.930 . S
C1356 H1344 0.930 . S
C1356 C1357 1.399 . S
C1356 C1361 1.399 . S
C1357 C1356 1.399 . S
C1357 C1358 1.376 . S
C1358 H1345 0.930 . S
C1358 C1357 1.376 . S
C1358 C1359 1.388 . S
C1359 H1346 0.930 . S
C1359 C1358 1.388 . S
C1359 C1360 1.390 . S
C1360 C1359 1.390 . S
C1360 C1361 1.394 . S
C1360 C1366 1.465 . S
C1361 C1356 1.399 . S
C1361 C1360 1.394 . S
C1361 C1362 1.516 . S
C1362 C1361 1.516 . S
C1362 C1363 1.502 . S
C1362 C1364 1.561 . S
C1362 C1365 1.526 . S
C1363 H1347 0.959 . S
C1363 H1348 0.959 . S
C1363 H1349 0.961 . S
C1363 C1362 1.502 . S
C1364 H1350 0.960 . S
C1364 H1351 0.961 . S
C1364 H1352 0.959 . S
C1364 C1362 1.561 . S
C1365 C1362 1.526 . S
C1365 C1366 1.396 . S
C1365 C1370 1.390 . S
C1366 C1360 1.465 . S
C1366 C1365 1.396 . S
C1366 C1367 1.399 . S
C1367 H1353 0.929 . S
C1367 C1366 1.399 . S
C1367 C1368 1.385 . S
C1368 H1354 0.931 . S
C1368 C1367 1.385 . S
C1368 C1369 1.389 . S
C1369 C1368 1.389 . S
C1369 C1370 1.387 . S
C1370 H1355 0.930 . S
C1370 C1365 1.390 . S
C1370 C1369 1.387 . S
H1371 C1383 0.930 . S
H1372 C1385 0.930 . S
H1373 C1386 0.930 . S
H1374 C1390 0.959 . S
H1375 C1390 0.959 . S
H1376 C1390 0.961 . S
H1377 C1391 0.960 . S
H1378 C1391 0.961 . S
H1379 C1391 0.959 . S
H1380 C1394 0.929 . S
H1381 C1395 0.931 . S
H1382 C1397 0.930 . S
C1383 H1371 0.930 . S
C1383 C1384 1.399 . S
C1383 C1388 1.399 . S
C1384 C1383 1.399 . S
C1384 C1385 1.376 . S
C1385 H1372 0.930 . S
C1385 C1384 1.376 . S
C1385 C1386 1.388 . S
C1386 H1373 0.930 . S
C1386 C1385 1.388 . S
C1386 C1387 1.390 . S
C1387 C1386 1.390 . S
C1387 C1388 1.394 . S
C1387 C1393 1.465 . S
C1388 C1383 1.399 . S
C1388 C1387 1.394 . S
C1388 C1389 1.516 . S
C1389 C1388 1.516 . S
C1389 C1390 1.502 . S
C1389 C1391 1.561 . S
C1389 C1392 1.526 . S
C1390 H1374 0.959 . S
C1390 H1375 0.959 . S
C1390 H1376 0.961 . S
C1390 C1389 1.502 . S
C1391 H1377 0.960 . S
C1391 H1378 0.961 . S
C1391 H1379 0.959 . S
C1391 C1389 1.561 . S
C1392 C1389 1.526 . S
C1392 C1393 1.396 . S
C1392 C1397 1.390 . S
C1393 C1387 1.465 . S
C1393 C1392 1.396 . S
C1393 C1394 1.399 . S
C1394 H1380 0.929 . S
C1394 C1393 1.399 . S
C1394 C1395 1.385 . S
C1395 H1381 0.931 . S
C1395 C1394 1.385 . S
C1395 C1396 1.389 . S
C1396 C1395 1.389 . S
C1396 C1397 1.387 . S
C1397 H1382 0.930 . S
C1397 C1392 1.390 . S
C1397 C1396 1.387 . S
H1398 C1410 0.930 . S
H1399 C1412 0.930 . S
H1400 C1413 0.930 . S
H1401 C1417 0.959 . S
H1402 C1417 0.959 . S
H1403 C1417 0.961 . S
H1404 C1418 0.960 . S
H1405 C1418 0.961 . S
H1406 C1418 0.959 . S
H1407 C1421 0.929 . S
H1408 C1422 0.931 . S
H1409 C1424 0.930 . S
C1410 H1398 0.930 . S
C1410 C1411 1.399 . S
C1410 C1415 1.399 . S
C1411 C1410 1.399 . S
C1411 C1412 1.376 . S
C1412 H1399 0.930 . S
C1412 C1411 1.376 . S
C1412 C1413 1.388 . S
C1413 H1400 0.930 . S
C1413 C1412 1.388 . S
C1413 C1414 1.390 . S
C1414 C1413 1.390 . S
C1414 C1415 1.394 . S
C1414 C1420 1.465 . S
C1415 C1410 1.399 . S
C1415 C1414 1.394 . S
C1415 C1416 1.516 . S
C1416 C1415 1.516 . S
C1416 C1417 1.502 . S
C1416 C1418 1.561 . S
C1416 C1419 1.526 . S
C1417 H1401 0.959 . S
C1417 H1402 0.959 . S
C1417 H1403 0.961 . S
C1417 C1416 1.502 . S
C1418 H1404 0.960 . S
C1418 H1405 0.961 . S
C1418 H1406 0.959 . S
C1418 C1416 1.561 . S
C1419 C1416 1.526 . S
C1419 C1420 1.396 . S
C1419 C1424 1.390 . S
C1420 C1414 1.465 . S
C1420 C1419 1.396 . S
C1420 C1421 1.399 . S
C1421 H1407 0.929 . S
C1421 C1420 1.399 . S
C1421 C1422 1.385 . S
C1422 H1408 0.931 . S
C1422 C1421 1.385 . S
C1422 C1423 1.389 . S
C1423 C1422 1.389 . S
C1423 C1424 1.387 . S
C1424 H1409 0.930 . S
C1424 C1419 1.390 . S
C1424 C1423 1.387 . S
H1425 C1437 0.930 . S
H1426 C1439 0.930 . S
H1427 C1440 0.930 . S
H1428 C1444 0.959 . S
H1429 C1444 0.959 . S
H1430 C1444 0.961 . S
H1431 C1445 0.960 . S
H1432 C1445 0.961 . S
H1433 C1445 0.959 . S
H1434 C1448 0.929 . S
H1435 C1449 0.931 . S
H1436 C1451 0.930 . S
C1437 H1425 0.930 . S
C1437 C1438 1.399 . S
C1437 C1442 1.399 . S
C1438 C1437 1.399 . S
C1438 C1439 1.376 . S
C1439 H1426 0.930 . S
C1439 C1438 1.376 . S
C1439 C1440 1.388 . S
C1440 H1427 0.930 . S
C1440 C1439 1.388 . S
C1440 C1441 1.390 . S
C1441 C1440 1.390 . S
C1441 C1442 1.394 . S
C1441 C1447 1.465 . S
C1442 C1437 1.399 . S
C1442 C1441 1.394 . S
C1442 C1443 1.516 . S
C1443 C1442 1.516 . S
C1443 C1444 1.502 . S
C1443 C1445 1.561 . S
C1443 C1446 1.526 . S
C1444 H1428 0.959 . S
C1444 H1429 0.959 . S
C1444 H1430 0.961 . S
C1444 C1443 1.502 . S
C1445 H1431 0.960 . S
C1445 H1432 0.961 . S
C1445 H1433 0.959 . S
C1445 C1443 1.561 . S
C1446 C1443 1.526 . S
C1446 C1447 1.396 . S
C1446 C1451 1.390 . S
C1447 C1441 1.465 . S
C1447 C1446 1.396 . S
C1447 C1448 1.399 . S
C1448 H1434 0.929 . S
C1448 C1447 1.399 . S
C1448 C1449 1.385 . S
C1449 H1435 0.931 . S
C1449 C1448 1.385 . S
C1449 C1450 1.389 . S
C1450 C1449 1.389 . S
C1450 C1451 1.387 . S
C1451 H1436 0.930 . S
C1451 C1446 1.390 . S
C1451 C1450 1.387 . S
C493 C109 1.271 . S
C505 C12 1.246 . S
C520 C128 1.272 . S
C532 C71 1.260 . S
C547 C92 1.264 . S
C559 C189 1.273 . S
C574 C151 1.279 . S
C586 C208 1.264 . S
C601 C29 1.267 . S
C613 C172 1.235 . S
C628 C48 1.273 . S
C640 C231 1.254 . S
C655 C408 1.272 . S
C667 C271 1.260 . S
C682 C292 1.279 . S
C694 C469 1.269 . S
C709 C351 1.276 . S
C721 C248 1.262 . S
C736 C372 1.246 . S
C748 C309 1.271 . S
C763 C431 1.230 . S
C775 C328 1.268 . S
C790 C389 1.263 . S
C802 C452 1.270 . S
C817 C137 1.708 . S
C829 C2 1.704 . S
C844 C57 1.782 . S
C856 C162 1.777 . S
C871 C82 1.703 . S
C883 C217 1.709 . S
C898 C257 1.703 . S
C910 C362 1.710 . S
C925 C282 1.714 . S
C937 C417 1.708 . S
C952 C337 1.756 . S
C964 C442 1.744 . S
C979 C297 2.311 . S
C991 C17 2.314 . S
C1006 C42 2.304 . S
C1018 C322 2.317 . S
C1033 C377 2.308 . S
C1045 C97 2.308 . S
C1060 C122 2.321 . S
C1072 C402 2.299 . S
C1087 C177 2.316 . S
C1099 C457 2.308 . S
C1114 C242 2.320 . S
C1126 C202 2.301 . S
C1141 C88 1.642 . S
C1153 C31 1.719 . S
C1168 C52 1.696 . S
C1180 C149 1.694 . S
C1195 C111 1.712 . S
C1207 C168 1.661 . S
C1222 C132 1.700 . S
C1234 C229 1.672 . S
C1249 C8 1.689 . S
C1261 C191 1.701 . S
C1276 C69 1.689 . S
C1288 C212 1.696 . S
C1303 C429 1.657 . S
C1315 C252 1.706 . S
C1330 C311 1.700 . S
C1342 C448 1.686 . S
C1357 C332 1.697 . S
C1369 C269 1.683 . S
C1384 C288 1.692 . S
C1396 C391 1.699 . S
C1411 C412 1.697 . S
C1423 C349 1.684 . S
C1438 C471 1.714 . S
C1450 C368 1.657 . S
