# Generated by pormake.
# Topology wir, (6)-cn, num edge types: 1
# Building blocks:
#     Node 0, Type 0, BuildingBlock: BETDAH_clean_sbu_0, # of connection points: 6
#     Node 1, Type 0, BuildingBlock: BETDAH_clean_sbu_0, # of connection points: 6
#     Node 2, Type 0, BuildingBlock: BETDAH_clean_sbu_0, # of connection points: 6
#     Node 3, Type 0, BuildingBlock: BETDAH_clean_sbu_0, # of connection points: 6
#     Node 4, Type 0, BuildingBlock: BETDAH_clean_sbu_0, # of connection points: 6
#     Node 5, Type 0, BuildingBlock: BETDAH_clean_sbu_0, # of connection points: 6
#     Node 6, Type 0, BuildingBlock: BETDAH_clean_sbu_0, # of connection points: 6
#     Node 7, Type 0, BuildingBlock: BETDAH_clean_sbu_0, # of connection points: 6
#     Node 8, Type 0, BuildingBlock: BETDAH_clean_sbu_0, # of connection points: 6
#     Node 9, Type 0, BuildingBlock: BETDAH_clean_sbu_0, # of connection points: 6
#     Node 10, Type 0, BuildingBlock: BETDAH_clean_sbu_0, # of connection points: 6
#     Node 11, Type 0, BuildingBlock: BETDAH_clean_sbu_0, # of connection points: 6
#     Node 12, Type 0, BuildingBlock: BETDAH_clean_sbu_0, # of connection points: 6
#     Node 13, Type 0, BuildingBlock: BETDAH_clean_sbu_0, # of connection points: 6
#     Node 14, Type 0, BuildingBlock: BETDAH_clean_sbu_0, # of connection points: 6
#     Node 15, Type 0, BuildingBlock: BETDAH_clean_sbu_0, # of connection points: 6
#     Node 16, Type 0, BuildingBlock: BETDAH_clean_sbu_0, # of connection points: 6
#     Node 17, Type 0, BuildingBlock: BETDAH_clean_sbu_0, # of connection points: 6
#     Node 18, Type 0, BuildingBlock: BETDAH_clean_sbu_0, # of connection points: 6
#     Node 19, Type 0, BuildingBlock: BETDAH_clean_sbu_0, # of connection points: 6
#     Node 20, Type 0, BuildingBlock: BETDAH_clean_sbu_0, # of connection points: 6
#     Node 21, Type 0, BuildingBlock: BETDAH_clean_sbu_0, # of connection points: 6
#     Node 22, Type 0, BuildingBlock: BETDAH_clean_sbu_0, # of connection points: 6
#     Node 23, Type 0, BuildingBlock: BETDAH_clean_sbu_0, # of connection points: 6
#     Node 24, Type 0, BuildingBlock: BETDAH_clean_sbu_0, # of connection points: 6
#     Node 25, Type 0, BuildingBlock: BETDAH_clean_sbu_0, # of connection points: 6
#     Node 26, Type 0, BuildingBlock: BETDAH_clean_sbu_0, # of connection points: 6
#     Node 27, Type 0, BuildingBlock: BETDAH_clean_sbu_0, # of connection points: 6
#     Node 28, Type 0, BuildingBlock: BETDAH_clean_sbu_0, # of connection points: 6
#     Node 29, Type 0, BuildingBlock: BETDAH_clean_sbu_0, # of connection points: 6
#     Node 30, Type 0, BuildingBlock: BETDAH_clean_sbu_0, # of connection points: 6
#     Node 31, Type 0, BuildingBlock: BETDAH_clean_sbu_0, # of connection points: 6
#     Edge 32, Type (0, 0), BuildingBlock: EZIPEK_clean_linker_0, # of connection points: 2
#     Edge 33, Type (0, 0), BuildingBlock: EZIPEK_clean_linker_0, # of connection points: 2
#     Edge 34, Type (0, 0), BuildingBlock: EZIPEK_clean_linker_0, # of connection points: 2
#     Edge 35, Type (0, 0), BuildingBlock: EZIPEK_clean_linker_0, # of connection points: 2
#     Edge 36, Type (0, 0), BuildingBlock: EZIPEK_clean_linker_0, # of connection points: 2
#     Edge 37, Type (0, 0), BuildingBlock: EZIPEK_clean_linker_0, # of connection points: 2
#     Edge 38, Type (0, 0), BuildingBlock: EZIPEK_clean_linker_0, # of connection points: 2
#     Edge 39, Type (0, 0), BuildingBlock: EZIPEK_clean_linker_0, # of connection points: 2
#     Edge 40, Type (0, 0), BuildingBlock: EZIPEK_clean_linker_0, # of connection points: 2
#     Edge 41, Type (0, 0), BuildingBlock: EZIPEK_clean_linker_0, # of connection points: 2
#     Edge 42, Type (0, 0), BuildingBlock: EZIPEK_clean_linker_0, # of connection points: 2
#     Edge 43, Type (0, 0), BuildingBlock: EZIPEK_clean_linker_0, # of connection points: 2
#     Edge 44, Type (0, 0), BuildingBlock: EZIPEK_clean_linker_0, # of connection points: 2
#     Edge 45, Type (0, 0), BuildingBlock: EZIPEK_clean_linker_0, # of connection points: 2
#     Edge 46, Type (0, 0), BuildingBlock: EZIPEK_clean_linker_0, # of connection points: 2
#     Edge 47, Type (0, 0), BuildingBlock: EZIPEK_clean_linker_0, # of connection points: 2
#     Edge 48, Type (0, 0), BuildingBlock: EZIPEK_clean_linker_0, # of connection points: 2
#     Edge 49, Type (0, 0), BuildingBlock: EZIPEK_clean_linker_0, # of connection points: 2
#     Edge 50, Type (0, 0), BuildingBlock: EZIPEK_clean_linker_0, # of connection points: 2
#     Edge 51, Type (0, 0), BuildingBlock: EZIPEK_clean_linker_0, # of connection points: 2
#     Edge 52, Type (0, 0), BuildingBlock: EZIPEK_clean_linker_0, # of connection points: 2
#     Edge 53, Type (0, 0), BuildingBlock: EZIPEK_clean_linker_0, # of connection points: 2
#     Edge 54, Type (0, 0), BuildingBlock: EZIPEK_clean_linker_0, # of connection points: 2
#     Edge 55, Type (0, 0), BuildingBlock: EZIPEK_clean_linker_0, # of connection points: 2
#     Edge 56, Type (0, 0), BuildingBlock: EZIPEK_clean_linker_0, # of connection points: 2
#     Edge 57, Type (0, 0), BuildingBlock: EZIPEK_clean_linker_0, # of connection points: 2
#     Edge 58, Type (0, 0), BuildingBlock: EZIPEK_clean_linker_0, # of connection points: 2
#     Edge 59, Type (0, 0), BuildingBlock: EZIPEK_clean_linker_0, # of connection points: 2
#     Edge 60, Type (0, 0), BuildingBlock: EZIPEK_clean_linker_0, # of connection points: 2
#     Edge 61, Type (0, 0), BuildingBlock: EZIPEK_clean_linker_0, # of connection points: 2
#     Edge 62, Type (0, 0), BuildingBlock: EZIPEK_clean_linker_0, # of connection points: 2
#     Edge 63, Type (0, 0), BuildingBlock: EZIPEK_clean_linker_0, # of connection points: 2
#     Edge 64, Type (0, 0), BuildingBlock: EZIPEK_clean_linker_0, # of connection points: 2
#     Edge 65, Type (0, 0), BuildingBlock: EZIPEK_clean_linker_0, # of connection points: 2
#     Edge 66, Type (0, 0), BuildingBlock: EZIPEK_clean_linker_0, # of connection points: 2
#     Edge 67, Type (0, 0), BuildingBlock: EZIPEK_clean_linker_0, # of connection points: 2
#     Edge 68, Type (0, 0), BuildingBlock: EZIPEK_clean_linker_0, # of connection points: 2
#     Edge 69, Type (0, 0), BuildingBlock: EZIPEK_clean_linker_0, # of connection points: 2
#     Edge 70, Type (0, 0), BuildingBlock: EZIPEK_clean_linker_0, # of connection points: 2
#     Edge 71, Type (0, 0), BuildingBlock: EZIPEK_clean_linker_0, # of connection points: 2
#     Edge 72, Type (0, 0), BuildingBlock: EZIPEK_clean_linker_0, # of connection points: 2
#     Edge 73, Type (0, 0), BuildingBlock: EZIPEK_clean_linker_0, # of connection points: 2
#     Edge 74, Type (0, 0), BuildingBlock: EZIPEK_clean_linker_0, # of connection points: 2
#     Edge 75, Type (0, 0), BuildingBlock: EZIPEK_clean_linker_0, # of connection points: 2
#     Edge 76, Type (0, 0), BuildingBlock: EZIPEK_clean_linker_0, # of connection points: 2
#     Edge 77, Type (0, 0), BuildingBlock: EZIPEK_clean_linker_0, # of connection points: 2
#     Edge 78, Type (0, 0), BuildingBlock: EZIPEK_clean_linker_0, # of connection points: 2
#     Edge 79, Type (0, 0), BuildingBlock: EZIPEK_clean_linker_0, # of connection points: 2
#     Edge 80, Type (0, 0), BuildingBlock: EZIPEK_clean_linker_0, # of connection points: 2
#     Edge 81, Type (0, 0), BuildingBlock: EZIPEK_clean_linker_0, # of connection points: 2
#     Edge 82, Type (0, 0), BuildingBlock: EZIPEK_clean_linker_0, # of connection points: 2
#     Edge 83, Type (0, 0), BuildingBlock: EZIPEK_clean_linker_0, # of connection points: 2
#     Edge 84, Type (0, 0), BuildingBlock: EZIPEK_clean_linker_0, # of connection points: 2
#     Edge 85, Type (0, 0), BuildingBlock: EZIPEK_clean_linker_0, # of connection points: 2
#     Edge 86, Type (0, 0), BuildingBlock: EZIPEK_clean_linker_0, # of connection points: 2
#     Edge 87, Type (0, 0), BuildingBlock: EZIPEK_clean_linker_0, # of connection points: 2
#     Edge 88, Type (0, 0), BuildingBlock: EZIPEK_clean_linker_0, # of connection points: 2
#     Edge 89, Type (0, 0), BuildingBlock: EZIPEK_clean_linker_0, # of connection points: 2
#     Edge 90, Type (0, 0), BuildingBlock: EZIPEK_clean_linker_0, # of connection points: 2
#     Edge 91, Type (0, 0), BuildingBlock: EZIPEK_clean_linker_0, # of connection points: 2
#     Edge 92, Type (0, 0), BuildingBlock: EZIPEK_clean_linker_0, # of connection points: 2
#     Edge 93, Type (0, 0), BuildingBlock: EZIPEK_clean_linker_0, # of connection points: 2
#     Edge 94, Type (0, 0), BuildingBlock: EZIPEK_clean_linker_0, # of connection points: 2
#     Edge 95, Type (0, 0), BuildingBlock: EZIPEK_clean_linker_0, # of connection points: 2
#     Edge 96, Type (0, 0), BuildingBlock: EZIPEK_clean_linker_0, # of connection points: 2
#     Edge 97, Type (0, 0), BuildingBlock: EZIPEK_clean_linker_0, # of connection points: 2
#     Edge 98, Type (0, 0), BuildingBlock: EZIPEK_clean_linker_0, # of connection points: 2
#     Edge 99, Type (0, 0), BuildingBlock: EZIPEK_clean_linker_0, # of connection points: 2
#     Edge 100, Type (0, 0), BuildingBlock: EZIPEK_clean_linker_0, # of connection points: 2
#     Edge 101, Type (0, 0), BuildingBlock: EZIPEK_clean_linker_0, # of connection points: 2
#     Edge 102, Type (0, 0), BuildingBlock: EZIPEK_clean_linker_0, # of connection points: 2
#     Edge 103, Type (0, 0), BuildingBlock: EZIPEK_clean_linker_0, # of connection points: 2
#     Edge 104, Type (0, 0), BuildingBlock: EZIPEK_clean_linker_0, # of connection points: 2
#     Edge 105, Type (0, 0), BuildingBlock: EZIPEK_clean_linker_0, # of connection points: 2
#     Edge 106, Type (0, 0), BuildingBlock: EZIPEK_clean_linker_0, # of connection points: 2
#     Edge 107, Type (0, 0), BuildingBlock: EZIPEK_clean_linker_0, # of connection points: 2
#     Edge 108, Type (0, 0), BuildingBlock: EZIPEK_clean_linker_0, # of connection points: 2
#     Edge 109, Type (0, 0), BuildingBlock: EZIPEK_clean_linker_0, # of connection points: 2
#     Edge 110, Type (0, 0), BuildingBlock: EZIPEK_clean_linker_0, # of connection points: 2
#     Edge 111, Type (0, 0), BuildingBlock: EZIPEK_clean_linker_0, # of connection points: 2
#     Edge 112, Type (0, 0), BuildingBlock: EZIPEK_clean_linker_0, # of connection points: 2
#     Edge 113, Type (0, 0), BuildingBlock: EZIPEK_clean_linker_0, # of connection points: 2
#     Edge 114, Type (0, 0), BuildingBlock: EZIPEK_clean_linker_0, # of connection points: 2
#     Edge 115, Type (0, 0), BuildingBlock: EZIPEK_clean_linker_0, # of connection points: 2
#     Edge 116, Type (0, 0), BuildingBlock: EZIPEK_clean_linker_0, # of connection points: 2
#     Edge 117, Type (0, 0), BuildingBlock: EZIPEK_clean_linker_0, # of connection points: 2
#     Edge 118, Type (0, 0), BuildingBlock: EZIPEK_clean_linker_0, # of connection points: 2
#     Edge 119, Type (0, 0), BuildingBlock: EZIPEK_clean_linker_0, # of connection points: 2
#     Edge 120, Type (0, 0), BuildingBlock: EZIPEK_clean_linker_0, # of connection points: 2
#     Edge 121, Type (0, 0), BuildingBlock: EZIPEK_clean_linker_0, # of connection points: 2
#     Edge 122, Type (0, 0), BuildingBlock: EZIPEK_clean_linker_0, # of connection points: 2
#     Edge 123, Type (0, 0), BuildingBlock: EZIPEK_clean_linker_0, # of connection points: 2
#     Edge 124, Type (0, 0), BuildingBlock: EZIPEK_clean_linker_0, # of connection points: 2
#     Edge 125, Type (0, 0), BuildingBlock: EZIPEK_clean_linker_0, # of connection points: 2
#     Edge 126, Type (0, 0), BuildingBlock: EZIPEK_clean_linker_0, # of connection points: 2
#     Edge 127, Type (0, 0), BuildingBlock: EZIPEK_clean_linker_0, # of connection points: 2
# Relax obj value: 0.591
# Max RMSD: 0.211
# Mean RMSD: 0.211
data_MOF--net-wir--node1-BETDAH_clean_sbu_0--edge1-EZIPEK_clean_linker_0
_symmetry_space_group_name_H-M    P1
_symmetry_Int_Tables_number       1
_symmetry_cell_setting            triclinic
loop_
_symmetry_equiv_pos_as_xyz
'x, y, z'
_cell_length_a     29.189849
_cell_length_b     29.307268
_cell_length_c     82.256326
_cell_angle_alpha  90.475313
_cell_angle_beta   90.362829
_cell_angle_gamma 90.317038
loop_
_atom_site_label
_atom_site_type_symbol
_atom_site_fract_x
_atom_site_fract_y
_atom_site_fract_z
_atom_type_partial_charge
Ho0 Ho 0.28293 0.24381 0.43451 0.0
Ho1 Ho 0.26345 0.21359 0.42772 0.0
C2 C 0.23056 0.18693 0.45896 0.0
C3 C 0.3076 0.32722 0.44141 0.0
C4 C 0.27825 0.36726 0.44294 0.0
C5 C 0.23873 0.37079 0.43312 0.0
C6 C 0.20195 0.39718 0.43831 0.0
C7 C 0.20456 0.41931 0.45342 0.0
C8 C 0.24639 0.42141 0.4619 0.0
C9 C 0.28326 0.39537 0.45666 0.0
C10 C 0.33323 0.18298 0.46087 0.0
C11 C 0.29876 0.26182 0.39675 0.0
C12 C 0.25725 0.14445 0.40785 0.0
C13 C 0.29317 0.1245 0.39788 0.0
C14 C 0.33875 0.13959 0.39987 0.0
C15 C 0.37034 0.13318 0.38739 0.0
C16 C 0.3564 0.11117 0.37302 0.0
C17 C 0.31242 0.0915 0.37195 0.0
C18 C 0.28074 0.09859 0.38425 0.0
C19 C 0.17127 0.26905 0.42387 0.0
O20 O 0.25028 0.22703 0.45888 0.0
O21 O 0.22781 0.16801 0.44482 0.0
O22 O 0.30024 0.29633 0.45226 0.0
O23 O 0.3104 0.30931 0.42704 0.0
O24 O 0.33294 0.19126 0.44499 0.0
O25 O 0.3307 0.19297 0.4448 0.0
O26 O 0.25926 0.25887 0.40379 0.0
O27 O 0.32425 0.2463 0.40876 0.0
O28 O 0.2472 0.18579 0.40389 0.0
O29 O 0.26174 0.14031 0.42344 0.0
O30 O 0.1987 0.25168 0.43498 0.0
O31 O 0.20037 0.2511 0.43452 0.0
H32 H 0.23432 0.34958 0.42238 0.0
H33 H 0.16984 0.39549 0.43165 0.0
H34 H 0.24878 0.43885 0.47355 0.0
H35 H 0.31356 0.39321 0.46429 0.0
H36 H 0.34882 0.15949 0.41047 0.0
H37 H 0.40423 0.1482 0.38843 0.0
H38 H 0.30148 0.07365 0.36101 0.0
H39 H 0.24573 0.08693 0.38253 0.0
Ho40 Ho 0.1064 1.02601 0.68109 0.0
Ho41 Ho 0.14872 0.99648 0.67275 0.0
C42 C 0.14941 0.96284 0.70662 0.0
C43 C 1.03294 0.06963 0.68938 0.0
C44 C 0.98597 1.05285 0.68851 0.0
C45 C 0.97944 1.01043 0.68074 0.0
C46 C 0.95273 0.97743 0.68822 0.0
C47 C 0.93102 0.98815 0.70287 0.0
C48 C 0.92738 1.03406 0.70781 0.0
C49 C 0.95577 0.06663 0.70072 0.0
C50 C 0.17723 0.06384 0.70695 0.0
C51 C 0.09146 1.03752 0.64268 0.0
C52 C 0.22259 1.00315 0.65564 0.0
C53 C 0.25416 1.0413 0.65316 0.0
C54 C 0.24058 0.08621 0.65673 0.0
C55 C 0.26609 0.12318 0.65106 0.0
C56 C 0.30479 0.11556 0.64141 0.0
C57 C 0.3207 0.07039 0.63944 0.0
C58 C 0.29545 1.0336 0.64523 0.0
C59 C 0.10334 0.91011 0.67436 0.0
O60 O 0.11167 0.98636 0.70467 0.0
O61 O 0.17371 0.95778 0.69367 0.0
O62 O 1.05834 1.0469 0.69947 0.0
O63 O 1.05313 0.07507 0.67553 0.0
O64 O 0.17044 0.06306 0.69093 0.0
O65 O 0.16863 0.06149 0.69075 0.0
O66 O 0.11043 0.99866 0.64695 0.0
O67 O 0.09222 0.06308 0.65587 0.0
O68 O 0.18168 1.00971 0.64988 0.0
O69 O 0.2219 0.98549 0.67007 0.0
O70 O 0.14719 0.91789 0.674 0.0
O71 O 0.08425 0.95066 0.67389 0.0
H72 H 1.00187 0.99976 0.67098 0.0
H73 H 0.95531 0.94232 0.68411 0.0
H74 H 0.90991 1.04281 0.71898 0.0
H75 H 0.96 0.09952 0.70667 0.0
H76 H 0.20861 0.09269 0.6629 0.0
H77 H 0.25387 0.15735 0.65339 0.0
H78 H 0.35064 0.06294 0.63223 0.0
H79 H 0.30651 0.99917 0.64247 0.0
Ho80 Ho 0.3413 0.84322 0.93643 0.0
Ho81 Ho 0.36428 0.8901 0.92915 0.0
C82 C 0.39685 0.8763 0.96366 0.0
C83 C 0.30097 0.76836 0.94438 0.0
C84 C 0.32059 0.72269 0.94321 0.0
C85 C 0.35484 0.71534 0.93147 0.0
C86 C 0.3953 0.69331 0.93585 0.0
C87 C 0.40072 0.67808 0.9518 0.0
C88 C 0.36298 0.67782 0.96231 0.0
C89 C 0.32221 0.69839 0.95774 0.0
C90 C 0.29509 0.91295 0.96186 0.0
C91 C 0.32346 0.83887 0.8976 0.0
C92 C 0.39747 0.96738 0.91979 0.0
C93 C 0.37882 1.01309 0.92067 0.0
C94 C 0.34326 1.02341 0.93155 0.0
C95 C 0.31641 0.06209 0.92912 0.0
C96 C 0.32476 0.08984 0.91568 0.0
C97 C 0.36331 0.08144 0.90589 0.0
C98 C 0.39019 1.04338 0.9084 0.0
C99 C 0.45864 0.83988 0.93487 0.0
O100 O 0.38641 0.83614 0.95818 0.0
O101 O 0.38632 0.90988 0.95419 0.0
O102 O 0.3235 0.79428 0.95465 0.0
O103 O 0.29219 0.78921 0.93076 0.0
O104 O 0.29777 0.90512 0.94578 0.0
O105 O 0.29879 0.90411 0.9457 0.0
O106 O 0.33037 0.88109 0.90283 0.0
O107 O 0.32891 0.81193 0.91008 0.0
O108 O 0.37437 0.93985 0.91032 0.0
O109 O 0.40787 0.94888 0.93357 0.0
O110 O 0.4191 0.83439 0.92702 0.0
O111 O 0.41835 0.83553 0.92725 0.0
H112 H 0.35395 0.73292 0.91997 0.0
H113 H 0.42413 0.69382 0.92762 0.0
H114 H 0.36694 0.66743 0.97484 0.0
H115 H 0.29616 0.70347 0.96691 0.0
H116 H 0.33441 1.00006 0.94118 0.0
H117 H 0.28785 0.06878 0.9371 0.0
H118 H 0.37075 0.1025 0.8955 0.0
H119 H 0.41739 1.03566 0.89991 0.0
Ho120 Ho 0.4994 0.09766 0.17795 0.0
Ho121 Ho 0.47479 0.11709 0.17503 0.0
C122 C 0.49019 0.13806 0.21015 0.0
C123 C 0.58075 0.06116 0.1756 0.0
C124 C 0.61388 1.043 0.18702 0.0
C125 C 0.65908 1.05771 0.18467 0.0
C126 C 0.68405 0.07436 0.19789 0.0
C127 C 0.66447 0.07351 0.21336 0.0
C128 C 0.62412 1.04862 0.21604 0.0
C129 C 0.59861 1.03307 0.20274 0.0
C130 C 0.43401 1.05695 0.20722 0.0
C131 C 0.51813 0.08555 0.14185 0.0
C132 C 0.39798 0.12808 0.15904 0.0
C133 C 0.37252 0.09424 0.14938 0.0
C134 C 0.38183 1.04754 0.1514 0.0
C135 C 0.37238 1.01658 0.13881 0.0
C136 C 0.35337 1.03236 0.12426 0.0
C137 C 0.33833 0.0777 0.12321 0.0
C138 C 0.34822 0.10867 0.13569 0.0
C139 C 0.51955 0.21309 0.16931 0.0
O140 O 0.52194 0.11347 0.20372 0.0
O141 O 0.45761 0.14685 0.1998 0.0
O142 O 0.54299 1.03873 0.17322 0.0
O143 O 0.57321 0.10417 0.1781 0.0
O144 O 0.44994 1.05031 0.19223 0.0
O145 O 0.45144 1.05306 0.19209 0.0
O146 O 0.5291 0.11686 0.15249 0.0
O147 O 0.487 0.06587 0.15084 0.0
O148 O 0.43774 0.13795 0.15326 0.0
O149 O 0.40033 0.12118 0.17449 0.0
O150 O 0.50893 0.18407 0.18079 0.0
O151 O 0.50802 0.18176 0.18022 0.0
H152 H 0.67145 0.06484 0.17254 0.0
H153 H 0.71575 0.09277 0.1958 0.0
H154 H 0.60933 1.04712 0.22807 0.0
H155 H 0.56391 1.02109 0.20472 0.0
H156 H 0.40073 1.03583 0.16193 0.0
H157 H 0.3842 0.98173 0.13975 0.0
H158 H 0.3232 0.09019 0.11206 0.0
H159 H 0.34093 0.14452 0.13393 0.0
Ho160 Ho 0.27822 0.86385 0.28551 0.0
Ho161 Ho 0.25194 0.89802 0.29017 0.0
C162 C 0.22724 0.88185 0.25548 0.0
C163 C 0.32124 0.78689 0.28236 0.0
C164 C 0.30146 0.74106 0.28173 0.0
C165 C 0.2595 0.73376 0.28964 0.0
C166 C 0.22698 0.70476 0.28264 0.0
C167 C 0.23678 0.68305 0.26788 0.0
C168 C 0.28181 0.68271 0.262 0.0
C169 C 0.31435 0.71202 0.26896 0.0
C170 C 0.32221 0.92554 0.25751 0.0
C171 C 0.28842 0.85471 0.32378 0.0
C172 C 0.23001 0.97514 0.30373 0.0
C173 C 0.25591 1.0179 0.30503 0.0
C174 C 0.29667 1.0227 0.29623 0.0
C175 C 0.33103 1.05255 0.30153 0.0
C176 C 0.32554 0.07608 0.3162 0.0
C177 C 0.2823 0.07631 0.32371 0.0
C178 C 0.24759 1.04715 0.31816 0.0
C179 C 0.15528 0.85697 0.29383 0.0
O180 O 0.24713 0.84612 0.26127 0.0
O181 O 0.22504 0.91616 0.26558 0.0
O182 O 0.30913 0.81226 0.27021 0.0
O183 O 0.31735 0.80852 0.29609 0.0
O184 O 0.31808 0.92337 0.27364 0.0
O185 O 0.31676 0.92186 0.27381 0.0
O186 O 0.24919 0.86498 0.31692 0.0
O187 O 0.31612 0.86077 0.31148 0.0
O188 O 0.24984 0.94186 0.31131 0.0
O189 O 0.21578 0.96274 0.28934 0.0
O190 O 0.19435 0.84682 0.28696 0.0
O191 O 0.19572 0.84742 0.28694 0.0
H192 H 0.24894 0.75561 0.29961 0.0
H193 H 0.19233 0.705 0.28729 0.0
H194 H 0.28964 0.66572 0.25061 0.0
H195 H 0.34663 0.71715 0.26277 0.0
H196 H 0.30429 0.9996 0.28649 0.0
H197 H 0.36368 1.05288 0.29533 0.0
H198 H 0.27689 0.09559 0.3348 0.0
H199 H 0.21647 1.0439 0.32518 0.0
Ho200 Ho 0.51066 1.00923 0.53964 0.0
Ho201 Ho 0.48741 0.98978 0.54254 0.0
C202 C 0.5081 0.96866 0.50762 0.0
C203 C 0.58976 1.05081 0.5432 0.0
C204 C 0.62065 0.07474 0.53245 0.0
C205 C 0.66674 0.06169 0.53333 0.0
C206 C 0.68971 1.05155 0.519 0.0
C207 C 0.66652 1.05642 0.50417 0.0
C208 C 0.62566 0.08109 0.50343 0.0
C209 C 0.60243 0.09045 0.51773 0.0
C210 C 0.46063 1.05901 0.50901 0.0
C211 C 0.52789 1.02442 0.57571 0.0
C212 C 0.41052 0.98159 0.55836 0.0
C213 C 0.38751 1.01841 0.5673 0.0
C214 C 0.39386 0.06411 0.56256 0.0
C215 C 0.38123 0.09989 0.57285 0.0
C216 C 0.36191 0.09031 0.58794 0.0
C217 C 0.35302 1.04486 0.59228 0.0
C218 C 0.36597 1.00905 0.58205 0.0
C219 C 0.5367 0.89561 0.54841 0.0
O220 O 0.53861 0.99436 0.51454 0.0
O221 O 0.47396 0.96045 0.51728 0.0
O222 O 0.55075 0.06978 0.54621 0.0
O223 O 0.58481 1.00796 0.53938 0.0
O224 O 0.45899 1.05264 0.52498 0.0
O225 O 0.46056 1.05117 0.52517 0.0
O226 O 0.54166 0.99389 0.56526 0.0
O227 O 0.49598 1.04158 0.5664 0.0
O228 O 0.44958 0.96973 0.56432 0.0
O229 O 0.41291 0.98623 0.5428 0.0
O230 O 0.51735 0.92097 0.53723 0.0
O231 O 0.51685 0.92394 0.53796 0.0
H232 H 0.68145 1.05042 0.54474 0.0
H233 H 0.72192 1.03348 0.5196 0.0
H234 H 0.60871 0.08698 0.49189 0.0
H235 H 0.5672 0.10175 0.51691 0.0
H236 H 0.41103 0.07228 0.55136 0.0
H237 H 0.38823 0.13479 0.56936 0.0
H238 H 0.33773 1.03708 0.6039 0.0
H239 H 0.36126 0.97417 0.58599 0.0
Ho240 Ho 0.34303 0.24854 0.7855 0.0
Ho241 Ho 0.37185 0.21383 0.79203 0.0
C242 C 0.40311 0.20974 0.7589 0.0
C243 C 0.29972 0.32298 0.77876 0.0
C244 C 0.32186 0.36473 0.77332 0.0
C245 C 0.34976 0.36229 0.75954 0.0
C246 C 0.38005 0.39688 0.75628 0.0
C247 C 0.38214 0.43572 0.7663 0.0
C248 C 0.35332 0.43959 0.77978 0.0
C249 C 0.3234 0.40374 0.7834 0.0
C250 C 0.29846 0.19012 0.75741 0.0
C251 C 0.33428 0.2668 0.82247 0.0
C252 C 0.35749 0.14942 0.81307 0.0
C253 C 0.33789 0.1489 0.82952 0.0
C254 C 0.29196 0.16186 0.83218 0.0
C255 C 0.27399 0.16283 0.84782 0.0
C256 C 0.30098 0.14896 0.86093 0.0
C257 C 0.34639 0.13515 0.85829 0.0
C258 C 0.3648 0.13529 0.84271 0.0
C259 C 0.45976 0.25524 0.78962 0.0
O260 O 0.38529 0.24943 0.76253 0.0
O261 O 0.40374 0.18128 0.77078 0.0
O262 O 0.30275 0.28867 0.76888 0.0
O263 O 0.30997 0.31129 0.79344 0.0
O264 O 0.30699 0.18761 0.77323 0.0
O265 O 0.30838 0.18935 0.77354 0.0
O266 O 0.37358 0.26428 0.81499 0.0
O267 O 0.3071 0.24828 0.81148 0.0
O268 O 0.39727 0.16872 0.81108 0.0
O269 O 0.329 0.16053 0.80172 0.0
O270 O 0.45076 0.21134 0.78986 0.0
O271 O 0.41939 0.27513 0.78971 0.0
H272 H 0.3498 0.33284 0.75149 0.0
H273 H 0.40115 0.39385 0.74553 0.0
H274 H 0.35395 0.47001 0.78735 0.0
H275 H 0.30258 0.40577 0.79424 0.0
H276 H 0.26982 0.17185 0.82224 0.0
H277 H 0.23908 0.17401 0.84968 0.0
H278 H 0.36784 0.12468 0.86834 0.0
H279 H 0.40001 0.12489 0.84098 0.0
Ho280 Ho 0.10127 0.08857 1.03661 0.0
Ho281 Ho 0.14998 0.11065 1.0435 0.0
C282 C 0.12912 0.14404 1.00913 0.0
C283 C 1.02551 1.04725 1.0295 0.0
C284 C 0.97931 0.0658 1.03073 0.0
C285 C 0.97324 0.10476 1.04063 0.0
C286 C 0.9479 0.14146 1.03478 0.0
C287 C 0.92863 0.13852 1.01919 0.0
C288 C 0.9265 0.09617 1.01113 0.0
C289 C 0.95113 1.05939 1.0171 0.0
C290 C 0.17101 1.04208 1.01092 0.0
C291 C 0.09827 0.07326 1.07539 0.0
C292 C 0.23014 0.1401 1.05252 0.0
C293 C 0.27311 0.11523 1.05369 0.0
C294 C 0.27857 0.07422 1.0449 0.0
C295 C 0.30793 1.04057 1.05076 0.0
C296 C 0.33092 1.04771 1.06556 0.0
C297 C 0.3307 0.09149 1.07277 0.0
C298 C 0.3019 0.12508 1.06686 0.0
C299 C 0.0997 0.20511 1.03809 0.0
O300 O 0.09011 0.13325 1.01533 0.0
O301 O 0.16466 0.13406 1.01803 0.0
O302 O 1.05016 0.06921 1.01894 0.0
O303 O 1.04772 1.04031 1.04307 0.0
O304 O 0.16231 1.04399 1.02695 0.0
O305 O 0.16136 1.04503 1.02698 0.0
O306 O 0.14053 0.07508 1.06953 0.0
O307 O 0.07095 0.08237 1.06318 0.0
O308 O 0.19918 0.12555 1.06252 0.0
O309 O 0.2136 0.14587 1.03803 0.0
O310 O 0.09528 0.16632 1.04612 0.0
O311 O 0.09638 0.1656 1.04587 0.0
H312 H 0.99415 0.11022 1.05138 0.0
H313 H 0.94948 0.17389 1.04119 0.0
H314 H 0.91207 0.0935 0.99902 0.0
H315 H 0.95516 1.02957 1.00936 0.0
H316 H 0.25689 0.06642 1.03451 0.0
H317 H 0.30953 1.00793 1.04454 0.0
H318 H 0.34916 0.09832 1.084 0.0
H319 H 0.29821 0.15658 1.07372 0.0
Ho320 Ho 0.86657 0.89686 0.79315 0.0
Ho321 Ho 0.84468 0.85114 0.78635 0.0
C322 C 0.83236 0.84365 0.82493 0.0
C323 C 0.89533 0.97433 0.8047 0.0
C324 C 0.86673 1.01364 0.80869 0.0
C325 C 0.82574 1.02059 0.79995 0.0
C326 C 0.79045 1.04622 0.80674 0.0
C327 C 0.79626 0.06519 0.82224 0.0
C328 C 0.8395 0.06349 0.82988 0.0
C329 C 0.87448 1.03742 0.82322 0.0
C330 C 0.95656 0.83731 0.80073 0.0
C331 C 0.89396 0.88732 0.75803 0.0
C332 C 0.80233 0.77537 0.78002 0.0
C333 C 0.82136 0.72944 0.78128 0.0
C334 C 0.8621 0.72459 0.79037 0.0
C335 C 0.89831 0.69973 0.7839 0.0
C336 C 0.89275 0.67862 0.76873 0.0
C337 C 0.84865 0.67391 0.76196 0.0
C338 C 0.81274 0.69956 0.76825 0.0
C339 C 0.79521 0.91894 0.76126 0.0
O340 O 0.82741 0.88469 0.81862 0.0
O341 O 0.84861 0.8193 0.81292 0.0
O342 O 0.88805 0.93876 0.81372 0.0
O343 O 0.89683 0.96354 0.78941 0.0
O344 O 0.92545 0.84587 0.7896 0.0
O345 O 0.92483 0.84613 0.78948 0.0
O346 O 0.88353 0.84666 0.76297 0.0
O347 O 0.88593 0.92023 0.76835 0.0
O348 O 0.82316 0.79965 0.7691 0.0
O349 O 0.79666 0.79805 0.79357 0.0
O350 O 0.7991 0.912 0.77736 0.0
O351 O 0.80008 0.91108 0.77737 0.0
H352 H 0.81962 1.003 0.78853 0.0
H353 H 0.75764 1.04809 0.8006 0.0
H354 H 0.84492 0.0791 0.8417 0.0
H355 H 0.90588 1.03265 0.83008 0.0
H356 H 0.86929 0.74625 0.80074 0.0
H357 H 0.93205 0.70328 0.78935 0.0
H358 H 0.84387 0.65697 0.7503 0.0
H359 H 0.78143 0.70232 0.76118 0.0
Ho360 Ho 0.96778 0.13066 0.53916 0.0
Ho361 Ho 1.00262 0.0953 0.53546 0.0
C362 C 1.01382 0.08937 0.57234 0.0
C363 C 0.89053 0.13771 0.55457 0.0
C364 C 0.85328 0.10526 0.55758 0.0
C365 C 0.85638 1.0601 0.55177 0.0
C366 C 0.83201 1.02503 0.55923 0.0
C367 C 0.80624 1.03462 0.5731 0.0
C368 C 0.79879 0.08046 0.57762 0.0
C369 C 0.82207 0.11559 0.56984 0.0
C370 C 1.01508 0.21389 0.53926 0.0
C371 C 1.01037 0.15377 0.50712 0.0
C372 C 0.06519 1.03302 0.53193 0.0
C373 C 0.11481 1.03453 0.53015 0.0
C374 C 0.14023 0.06909 0.53811 0.0
C375 C 0.17644 0.09 0.52998 0.0
C376 C 0.18467 0.07756 0.51375 0.0
C377 C 0.16627 1.03662 0.50755 0.0
C378 C 0.13201 1.01432 0.51601 0.0
C379 C 0.94016 0.06373 0.50514 0.0
O380 O 1.01425 0.12804 0.56405 0.0
O381 O 0.99576 0.06203 0.56146 0.0
O382 O 0.92883 0.12567 0.56123 0.0
O383 O 0.89634 0.15227 0.53984 0.0
O384 O 0.97189 0.20785 0.5358 0.0
O385 O 1.03146 0.17238 0.54158 0.0
O386 O 1.03966 0.13161 0.51576 0.0
O387 O 0.9698 0.15667 0.51354 0.0
O388 O 1.04358 1.05252 0.52004 0.0
O389 O 1.04841 1.04461 0.54591 0.0
O390 O 0.93861 0.06958 0.52124 0.0
O391 O 0.94015 0.07043 0.52141 0.0
H392 H 0.88114 1.05096 0.54271 0.0
H393 H 0.83718 0.99012 0.55525 0.0
H394 H 0.77856 0.08883 0.58822 0.0
H395 H 0.8195 0.15005 0.57462 0.0
H396 H 0.12795 0.08458 0.54925 0.0
H397 H 0.19174 0.1207 0.5351 0.0
H398 H 0.17355 1.02549 0.49524 0.0
H399 H 0.11337 0.98689 0.50996 0.0
Ho400 Ho 0.75596 0.22393 0.29465 0.0
Ho401 Ho 0.77701 0.2542 0.28773 0.0
C402 C 0.79257 0.27409 0.32576 0.0
C403 C 0.74984 0.15382 0.31363 0.0
C404 C 0.78764 0.12465 0.31878 0.0
C405 C 0.83039 0.12928 0.3112 0.0
C406 C 0.86969 0.11049 0.31802 0.0
C407 C 0.86664 0.08701 0.33265 0.0
C408 C 0.82373 0.08139 0.34012 0.0
C409 C 0.78437 0.10006 0.3332 0.0
C410 C 0.65697 0.26327 0.2971 0.0
C411 C 0.71635 0.1959 0.2649 0.0
C412 C 0.81083 0.33383 0.2804 0.0
C413 C 0.78993 0.37868 0.27988 0.0
C414 C 0.74701 0.38448 0.28722 0.0
C415 C 0.71471 0.41237 0.27984 0.0
C416 C 0.7258 0.43378 0.26523 0.0
C417 C 0.77181 0.43665 0.26041 0.0
C418 C 0.80405 0.4085 0.2677 0.0
C419 C 0.82745 0.19709 0.26049 0.0
O420 O 0.75245 0.26271 0.32008 0.0
O421 O 0.81854 0.2637 0.31322 0.0
O422 O 0.75416 0.19529 0.31885 0.0
O423 O 0.73855 0.1524 0.2983 0.0
O424 O 0.69546 0.27085 0.28924 0.0
O425 O 0.69637 0.27036 0.28928 0.0
O426 O 0.73877 0.23469 0.26417 0.0
O427 O 0.71393 0.1792 0.27921 0.0
O428 O 0.79406 0.30509 0.26985 0.0
O429 O 0.81419 0.31579 0.29465 0.0
O430 O 0.82275 0.19905 0.27656 0.0
O431 O 0.82097 0.20073 0.27685 0.0
H432 H 0.83395 0.14993 0.30058 0.0
H433 H 0.90257 0.11593 0.31229 0.0
H434 H 0.821 0.06429 0.35168 0.0
H435 H 0.75207 0.09752 0.33956 0.0
H436 H 0.736 0.36221 0.29691 0.0
H437 H 0.67961 0.41116 0.28398 0.0
H438 H 0.7809 0.45393 0.24928 0.0
H439 H 0.83734 0.40473 0.2621 0.0
Ho440 Ho 0.64892 1.00646 1.04043 0.0
Ho441 Ho 0.60172 1.02632 1.03352 0.0
C442 C 0.598 1.04314 1.07178 0.0
C443 C 0.72782 0.98142 1.05179 0.0
C444 C 0.76453 1.01097 1.05795 0.0
C445 C 0.76387 1.05768 1.05413 0.0
C446 C 0.78582 0.08946 1.06425 0.0
C447 C 0.80661 0.0747 1.07862 0.0
C448 C 0.81209 1.02772 1.08133 0.0
C449 C 0.79119 0.99591 1.07099 0.0
C450 C 0.60558 0.9084 1.03524 0.0
C451 C 0.62849 0.97203 1.00568 0.0
C452 C 0.52609 0.06968 1.02923 0.0
C453 C 0.48078 1.04908 1.03135 0.0
C454 C 0.47963 1.00621 1.03894 0.0
C455 C 0.45176 0.9716 1.03278 0.0
C456 C 0.42604 0.97966 1.01875 0.0
C457 C 0.4186 1.02487 1.01378 0.0
C458 C 0.44637 1.05986 1.02009 0.0
C459 C 0.66858 0.07397 1.00771 0.0
O460 O 0.63815 1.05059 1.06491 0.0
O461 O 0.57332 1.02385 1.06041 0.0
O462 O 0.69095 0.98384 1.06045 0.0
O463 O 0.71874 0.98375 1.03636 0.0
O464 O 0.59567 0.94857 1.04175 0.0
O465 O 0.59637 0.94914 1.04164 0.0
O466 O 0.58928 0.98397 1.01144 0.0
O467 O 0.6638 0.98045 1.01508 0.0
O468 O 0.54883 1.05031 1.0175 0.0
O469 O 0.55111 0.07487 1.04232 0.0
O470 O 0.66225 0.07107 1.02381 0.0
O471 O 0.66148 0.07026 1.02384 0.0
H472 H 0.74215 0.07012 1.04447 0.0
H473 H 0.7818 0.12555 1.06193 0.0
H474 H 0.82865 1.01578 1.09232 0.0
H475 H 0.79161 0.96013 1.07421 0.0
H476 H 0.50495 0.99678 1.04783 0.0
H477 H 0.4572 0.93707 1.03696 0.0
H478 H 0.39814 1.03158 1.00304 0.0
H479 H 0.44659 0.0926 1.01407 0.0
Ho480 Ho 0.86155 0.21759 0.92739 0.0
Ho481 Ho 0.84453 0.26479 0.93415 0.0
C482 C 0.83041 0.2727 0.89584 0.0
C483 C 0.87813 0.13942 0.91418 0.0
C484 C 0.84332 0.11351 0.90507 0.0
C485 C 0.797 0.12588 0.90685 0.0
C486 C 0.76536 0.11642 0.89448 0.0
C487 C 0.77991 0.09432 0.88033 0.0
C488 C 0.82453 0.0766 0.87956 0.0
C489 C 0.85634 0.08661 0.89182 0.0
C490 C 0.95288 0.27594 0.91932 0.0
C491 C 0.89264 0.23096 0.96282 0.0
C492 C 0.80744 0.34279 0.94014 0.0
C493 C 0.82981 0.38752 0.94027 0.0
C494 C 0.87013 0.39295 0.93113 0.0
C495 C 0.90773 0.41609 0.9379 0.0
C496 C 0.90472 0.4336 0.95374 0.0
C497 C 0.86218 0.4344 0.96157 0.0
C498 C 0.82426 0.41316 0.95452 0.0
C499 C 0.79537 0.19371 0.9588 0.0
O500 O 0.81961 0.2337 0.90275 0.0
O501 O 0.85191 0.2951 0.90742 0.0
O502 O 0.88865 0.17794 0.90738 0.0
O503 O 0.87071 0.14439 0.92965 0.0
O504 O 0.92539 0.26324 0.93104 0.0
O505 O 0.92461 0.26284 0.93099 0.0
O506 O 0.88281 0.27129 0.95756 0.0
O507 O 0.88516 0.19726 0.95257 0.0
O508 O 0.82451 0.31637 0.95124 0.0
O509 O 0.80248 0.32178 0.92617 0.0
O510 O 0.79468 0.20685 0.94315 0.0
O511 O 0.79601 0.20769 0.94327 0.0
H512 H 0.78631 0.147 0.91698 0.0
H513 H 0.73101 0.13005 0.89527 0.0
H514 H 0.8359 1.05847 0.86883 0.0
H515 H 0.89182 0.07702 0.89019 0.0
H516 H 0.87519 0.37362 0.92004 0.0
H517 H 0.94046 0.41478 0.93178 0.0
H518 H 0.85973 0.44544 0.97412 0.0
H519 H 0.79371 0.40901 0.9618 0.0
Ho520 Ho 0.64765 0.11767 0.67867 0.0
Ho521 Ho 0.61423 0.09192 0.68363 0.0
C522 C 0.60559 0.07662 0.64557 0.0
C523 C 0.7239 0.13648 0.66407 0.0
C524 C 0.75284 0.10297 0.65579 0.0
C525 C 0.74534 1.05622 0.6587 0.0
C526 C 0.75677 1.02354 0.64698 0.0
C527 C 0.77576 1.03749 0.63225 0.0
C528 C 0.78767 0.08353 0.63007 0.0
C529 C 0.77613 0.11617 0.64176 0.0
C530 C 0.59536 0.21009 0.67276 0.0
C531 C 0.63377 0.14823 0.71287 0.0
C532 C 0.53839 1.04649 0.68581 0.0
C533 C 0.49162 0.06229 0.68642 0.0
C534 C 0.47852 0.10036 0.67713 0.0
C535 C 0.44863 0.13225 0.68376 0.0
C536 C 0.43447 0.1268 0.69984 0.0
C537 C 0.44162 0.08466 0.70764 0.0
C538 C 0.46824 1.05159 0.70053 0.0
C539 C 0.67682 1.04933 0.71165 0.0
O540 O 0.6179 0.1164 0.65138 0.0
O541 O 0.60865 1.05108 0.65846 0.0
O542 O 0.68398 0.13952 0.65731 0.0
O543 O 0.72068 0.13401 0.67978 0.0
O544 O 0.59735 0.17584 0.68294 0.0
O545 O 0.59826 0.17435 0.68287 0.0
O546 O 0.59863 0.12471 0.70774 0.0
O547 O 0.66741 0.14947 0.70253 0.0
O548 O 0.56315 1.05918 0.6983 0.0
O549 O 0.55931 1.05309 0.67223 0.0
O550 O 0.67313 1.05146 0.69551 0.0
O551 O 0.67148 1.05299 0.69531 0.0
H552 H 0.7265 1.04534 0.66926 0.0
H553 H 0.74739 0.98815 0.6488 0.0
H554 H 0.80254 0.09469 0.61873 0.0
H555 H 0.78131 0.15198 0.63911 0.0
H556 H 0.49555 0.10845 0.66584 0.0
H557 H 0.44099 0.16314 0.67716 0.0
H558 H 0.43009 0.0786 0.71993 0.0
H559 H 0.47743 1.02189 0.7076 0.0
Ho560 Ho 0.7422 0.91821 0.41884 0.0
Ho561 Ho 0.76826 0.88409 0.42718 0.0
C562 C 0.77915 0.85859 0.38983 0.0
C563 C 0.76195 0.97988 0.39767 0.0
C564 C 0.80679 0.98821 0.39022 0.0
C565 C 0.84554 0.99966 0.3997 0.0
C566 C 0.88826 1.00549 0.39242 0.0
C567 C 0.89309 1.00019 0.37553 0.0
C568 C 0.85449 0.98542 0.36636 0.0
C569 C 0.81194 0.98009 0.37359 0.0
C570 C 0.65351 0.87721 0.42204 0.0
C571 C 0.70208 0.94392 0.44829 0.0
C572 C 0.80271 0.80927 0.43811 0.0
C573 C 0.77689 0.77025 0.44417 0.0
C574 C 0.75656 0.77367 0.45952 0.0
C575 C 0.7263 0.7407 0.46457 0.0
C576 C 0.71651 0.7029 0.45462 0.0
C577 C 0.73619 0.699 0.4392 0.0
C578 C 0.76659 0.73268 0.43399 0.0
C579 C 0.8096 0.94986 0.45367 0.0
O580 O 0.73896 0.8682 0.39584 0.0
O581 O 0.80689 0.87316 0.40153 0.0
O582 O 0.74287 0.94138 0.39385 0.0
O583 O 0.75832 0.98869 0.41307 0.0
O584 O 0.66271 0.91954 0.41841 0.0
O585 O 0.69317 0.85831 0.42456 0.0
O586 O 0.72261 0.90399 0.44886 0.0
O587 O 0.70026 0.96179 0.43413 0.0
O588 O 0.79879 0.84616 0.44667 0.0
O589 O 0.79829 0.81743 0.42274 0.0
O590 O 0.80963 0.94378 0.43762 0.0
O591 O 0.80741 0.94158 0.4374 0.0
H592 H 0.84286 1.00469 0.4127 0.0
H593 H 0.91702 1.01546 0.40001 0.0
H594 H 0.85592 0.98053 0.35333 0.0
H595 H 0.78284 0.96999 0.36611 0.0
H596 H 0.76336 0.80221 0.46766 0.0
H597 H 0.71187 0.74369 0.47665 0.0
H598 H 0.72938 0.66938 0.43159 0.0
H599 H 0.7816 0.72968 0.42201 0.0
Ho600 Ho 0.97632 1.00156 0.17957 0.0
Ho601 Ho 1.02348 1.02415 0.18644 0.0
C602 C 1.02806 1.03802 0.14784 0.0
C603 C 0.89738 0.97494 0.16847 0.0
C604 C 0.86342 1.00534 0.16127 0.0
C605 C 0.86451 1.05196 0.16562 0.0
C606 C 0.85008 0.08488 0.15457 0.0
C607 C 0.83451 0.0712 0.13918 0.0
C608 C 0.82799 1.02462 0.13567 0.0
C609 C 0.84238 0.99177 0.14669 0.0
C610 C 1.02056 0.90514 0.18439 0.0
C611 C 1.00106 0.96947 0.21444 0.0
C612 C 0.0967 0.07238 0.19184 0.0
C613 C 0.14461 1.05806 0.19057 0.0
C614 C 0.1534 1.01829 0.18146 0.0
C615 C 0.18128 0.9846 0.188 0.0
C616 C 0.20117 0.99158 0.20334 0.0
C617 C 0.20221 1.03573 0.21013 0.0
C618 C 0.17369 0.06926 0.20367 0.0
C619 C 0.9489 0.06735 0.21148 0.0
O620 O 0.98671 1.04143 0.15432 0.0
O621 O 1.05395 1.02345 0.15972 0.0
O622 O 0.93478 0.97336 0.1601 0.0
O623 O 0.90588 0.98017 0.18389 0.0
O624 O 1.03067 0.94549 0.17826 0.0
O625 O 1.03001 0.94618 0.17834 0.0
O626 O 1.03909 0.98317 0.20825 0.0
O627 O 0.96474 0.9755 0.2053 0.0
O628 O 0.07464 1.05011 0.203 0.0
O629 O 0.07295 0.07494 0.17839 0.0
O630 O 0.96104 0.06743 0.19573 0.0
O631 O 0.962 0.06632 0.19578 0.0
H632 H 0.88101 0.06326 0.17678 0.0
H633 H 0.85481 0.12073 0.15746 0.0
H634 H 0.81546 1.01368 0.12383 0.0
H635 H 0.84186 0.95616 0.14302 0.0
H636 H 0.13256 1.00934 0.171 0.0
H637 H 0.18108 0.95096 0.18244 0.0
H638 H 0.21817 1.04173 0.22189 0.0
H639 H 0.16799 0.10007 0.21073 0.0
Ho640 Ho 0.77991 0.76034 0.93526 0.0
Ho641 Ho 0.75636 0.71603 0.9289 0.0
C642 C 0.72842 0.73298 0.96402 0.0
C643 C 0.82205 0.83614 0.94126 0.0
C644 C 0.8019 0.88144 0.93996 0.0
C645 C 0.76039 0.88494 0.93125 0.0
C646 C 0.72547 0.91219 0.93732 0.0
C647 C 0.73262 0.93623 0.95187 0.0
C648 C 0.77707 0.94072 0.95831 0.0
C649 C 0.81193 0.91305 0.95234 0.0
C650 C 0.82614 0.69368 0.96137 0.0
C651 C 0.79179 0.76896 0.89629 0.0
C652 C 0.73676 0.63673 0.91688 0.0
C653 C 0.77184 0.60918 0.90866 0.0
C654 C 0.81841 0.61832 0.91209 0.0
C655 C 0.85252 0.60545 0.90121 0.0
C656 C 0.84034 0.58401 0.88659 0.0
C657 C 0.79447 0.57099 0.88382 0.0
C658 C 0.76032 0.5837 0.89477 0.0
C659 C 0.66069 0.76347 0.92302 0.0
O660 O 0.74447 0.77146 0.95885 0.0
O661 O 0.73001 0.69881 0.95371 0.0
O662 O 0.80273 0.81154 0.95245 0.0
O663 O 0.82698 0.81356 0.92766 0.0
O664 O 0.8237 0.7001 0.94526 0.0
O665 O 0.82258 0.70119 0.94516 0.0
O666 O 0.77801 0.72822 0.90097 0.0
O667 O 0.79548 0.79352 0.90954 0.0
O668 O 0.72776 0.67445 0.90939 0.0
O669 O 0.74265 0.64367 0.93238 0.0
O670 O 0.69727 0.76626 0.93236 0.0
O671 O 0.69813 0.76615 0.9325 0.0
H672 H 0.75181 0.861 0.9216 0.0
H673 H 0.69128 0.9086 0.93222 0.0
H674 H 0.78288 0.95955 0.96953 0.0
H675 H 0.84372 0.91084 0.95915 0.0
H676 H 0.82823 0.63911 0.92241 0.0
H677 H 0.88772 0.61561 0.90355 0.0
H678 H 0.78465 0.55383 0.87261 0.0
H679 H 0.72475 0.57697 0.8917 0.0
Ho680 Ho 0.59839 0.52633 0.18017 0.0
Ho681 Ho 0.64652 0.5092 0.17336 0.0
C682 C 0.6319 0.47242 0.20783 0.0
C683 C 0.5245 0.5727 0.18449 0.0
C684 C 0.50684 0.60192 0.19734 0.0
C685 C 0.53388 0.60447 0.2115 0.0
C686 C 0.51554 0.58834 0.22598 0.0
C687 C 0.46996 0.57327 0.22615 0.0
C688 C 0.44052 0.58389 0.21323 0.0
C689 C 0.45909 0.59989 0.1988 0.0
C690 C 0.66546 0.57268 0.2075 0.0
C691 C 0.59302 0.54496 0.14254 0.0
C692 C 0.72507 0.4923 0.16028 0.0
C693 C 0.75308 0.52675 0.15218 0.0
C694 C 0.74235 0.57311 0.15457 0.0
C695 C 0.7534 0.60529 0.14278 0.0
C696 C 0.77461 0.59109 0.12842 0.0
C697 C 0.79038 0.54594 0.12704 0.0
C698 C 0.77942 0.51381 0.13882 0.0
C699 C 0.59787 0.41235 0.1798 0.0
O700 O 0.59199 0.48668 0.20309 0.0
O701 O 0.66532 0.47949 0.19765 0.0
O702 O 0.55827 0.58771 0.17568 0.0
O703 O 0.53096 0.53104 0.18938 0.0
O704 O 0.65724 0.57196 0.19143 0.0
O705 O 0.65649 0.57109 0.1914 0.0
O706 O 0.63235 0.55491 0.14982 0.0
O707 O 0.56985 0.52238 0.15328 0.0
O708 O 0.68625 0.48545 0.15295 0.0
O709 O 0.71979 0.497 0.17587 0.0
O710 O 0.595 0.44962 0.17087 0.0
O711 O 0.59602 0.45022 0.17118 0.0
H712 H 0.57071 0.60827 0.21066 0.0
H713 H 0.53799 0.58227 0.23625 0.0
H714 H 0.40478 0.57377 0.2135 0.0
H715 H 0.43748 0.59997 0.18803 0.0
H716 H 0.72107 0.58359 0.16463 0.0
H717 H 0.74188 0.64015 0.14422 0.0
H718 H 0.80792 0.53463 0.11619 0.0
H719 H 0.78754 0.47824 0.13667 0.0
Ho720 Ho 0.8519 0.35473 0.43589 0.0
Ho721 Ho 0.87251 0.3908 0.42912 0.0
C722 C 0.90273 0.41135 0.46184 0.0
C723 C 0.82468 0.2721 0.442 0.0
C724 C 0.85153 0.23039 0.44125 0.0
C725 C 0.89228 0.23103 0.4322 0.0
C726 C 0.93015 0.20698 0.43774 0.0
C727 C 0.92665 0.18216 0.45212 0.0
C728 C 0.88336 0.17325 0.4588 0.0
C729 C 0.84561 0.19796 0.45344 0.0
C730 C 0.79871 0.41267 0.46199 0.0
C731 C 0.83693 0.34068 0.39756 0.0
C732 C 0.88167 0.46304 0.41145 0.0
C733 C 0.84633 0.48896 0.40303 0.0
C734 C 0.79997 0.4769 0.40504 0.0
C735 C 0.76735 0.48978 0.39347 0.0
C736 C 0.78119 0.51441 0.37982 0.0
C737 C 0.82664 0.53005 0.37871 0.0
C738 C 0.85913 0.51721 0.39023 0.0
C739 C 0.96591 0.33953 0.42398 0.0
O740 O 0.88405 0.37061 0.46072 0.0
O741 O 0.90606 0.4324 0.44821 0.0
O742 O 0.83829 0.3009 0.45312 0.0
O743 O 0.81823 0.292 0.42818 0.0
O744 O 0.8026 0.40864 0.44595 0.0
O745 O 0.80431 0.40722 0.44572 0.0
O746 O 0.87539 0.3583 0.40261 0.0
O747 O 0.81153 0.34158 0.41065 0.0
O748 O 0.8854 0.42176 0.4059 0.0
O749 O 0.88157 0.46432 0.42725 0.0
O750 O 0.93536 0.34813 0.43533 0.0
O751 O 0.93417 0.34879 0.43504 0.0
H752 H 0.89722 0.25559 0.42258 0.0
H753 H 0.96337 0.21391 0.43246 0.0
H754 H 0.88037 0.15368 0.46987 0.0
H755 H 0.81425 0.19687 0.46042 0.0
H756 H 0.78977 0.45432 0.41474 0.0
H757 H 0.73243 0.47746 0.39445 0.0
H758 H 0.8377 0.54929 0.36824 0.0
H759 H 0.89478 0.52615 0.38839 0.0
Ho760 Ho 1.0217 0.59371 0.68374 0.0
Ho761 Ho 0.97455 0.60994 0.67729 0.0
C762 C 0.98521 0.64073 0.71247 0.0
C763 C 0.10257 0.56273 0.68969 0.0
C764 C 0.14415 0.5908 0.68871 0.0
C765 C 0.14059 0.63233 0.68031 0.0
C766 C 0.16143 0.67173 0.68652 0.0
C767 C 0.18518 0.66951 0.70129 0.0
C768 C 0.19707 0.62668 0.70758 0.0
C769 C 0.17644 0.58718 0.70128 0.0
C770 C 0.95658 0.53989 0.70929 0.0
C771 C 1.02775 0.57685 0.64548 0.0
C772 C 0.89708 0.62588 0.66333 0.0
C773 C 0.87214 0.5899 0.65444 0.0
C774 C 0.88226 0.54421 0.65814 0.0
C775 C 0.87362 0.50943 0.64688 0.0
C776 C 0.85503 0.5201 0.63172 0.0
C777 C 0.84094 0.56498 0.62854 0.0
C778 C 0.84963 0.59987 0.63985 0.0
C779 C 1.03227 0.70319 0.66953 0.0
O780 O 1.02573 0.63212 0.70708 0.0
O781 O 0.95155 0.63152 0.70236 0.0
O782 O 0.07513 0.57762 0.7009 0.0
O783 O 0.0808 0.55393 0.67609 0.0
O784 O 0.96493 0.54286 0.69322 0.0
O785 O 0.96575 0.54396 0.69325 0.0
O786 O 0.98952 0.56578 0.65294 0.0
O787 O 1.05011 0.60018 0.65659 0.0
O788 O 0.9362 0.63585 0.65675 0.0
O789 O 0.901 0.62023 0.67896 0.0
O790 O 1.01977 0.67452 0.68093 0.0
O791 O 1.01936 0.6737 0.68092 0.0
H792 H 0.11612 0.63627 0.67055 0.0
H793 H 0.15207 0.70445 0.68148 0.0
H794 H 0.21593 0.62452 0.71894 0.0
H795 H 0.17964 0.55566 0.70798 0.0
H796 H 0.90112 0.53597 0.66903 0.0
H797 H 0.8846 0.47499 0.64949 0.0
H798 H 0.82598 0.5735 0.61688 0.0
H799 H 0.84233 0.63486 0.63663 0.0
Ho800 Ho 0.77911 0.35427 0.78486 0.0
Ho801 Ho 0.75679 0.38999 0.79132 0.0
C802 C 0.72722 0.40518 0.75823 0.0
C803 C 0.81131 0.27284 0.78 0.0
C804 C 0.78719 0.22962 0.78221 0.0
C805 C 0.74656 0.2303 0.79134 0.0
C806 C 0.70871 0.20538 0.78581 0.0
C807 C 0.71239 0.18023 0.7714 0.0
C808 C 0.75612 0.16927 0.76549 0.0
C809 C 0.79377 0.19504 0.77068 0.0
C810 C 0.83044 0.4137 0.75831 0.0
C811 C 0.78938 0.34145 0.82369 0.0
C812 C 0.74397 0.46491 0.80756 0.0
C813 C 0.77577 0.50186 0.8117 0.0
C814 C 0.82073 0.50086 0.80567 0.0
C815 C 0.85593 0.52407 0.8139 0.0
C816 C 0.84608 0.548 0.82824 0.0
C817 C 0.80014 0.55381 0.8329 0.0
C818 C 0.76516 0.53061 0.82472 0.0
C819 C 0.66535 0.33141 0.79626 0.0
O820 O 0.74655 0.3651 0.75981 0.0
O821 O 0.72425 0.4283 0.77156 0.0
O822 O 0.79461 0.29813 0.76851 0.0
O823 O 0.81828 0.29624 0.7932 0.0
O824 O 0.82673 0.40982 0.77439 0.0
O825 O 0.82493 0.40824 0.77464 0.0
O826 O 0.75131 0.35853 0.81804 0.0
O827 O 0.81617 0.34285 0.8109 0.0
O828 O 0.755 0.42639 0.81419 0.0
O829 O 0.7328 0.46004 0.79231 0.0
O830 O 0.69543 0.34377 0.78518 0.0
O831 O 0.69672 0.34454 0.78549 0.0
H832 H 0.7413 0.25612 0.80064 0.0
H833 H 0.67533 0.21309 0.79066 0.0
H834 H 0.75952 0.14852 0.7546 0.0
H835 H 0.82523 0.1934 0.76378 0.0
H836 H 0.82932 0.4787 0.79561 0.0
H837 H 0.89101 0.5199 0.80996 0.0
H838 H 0.79176 0.57276 0.84383 0.0
H839 H 0.73072 0.53161 0.82955 0.0
Ho840 Ho 1.00741 0.52492 1.04016 0.0
Ho841 Ho 0.97398 0.49746 1.04377 0.0
C842 C 0.99575 0.47638 1.00905 0.0
C843 C 0.08122 0.57556 1.03944 0.0
C844 C 0.12577 0.57295 1.03155 0.0
C845 C 0.15845 0.54121 1.03683 0.0
C846 C 0.1884 0.52242 1.02557 0.0
C847 C 0.18498 0.53565 1.00931 0.0
C848 C 0.15956 0.57401 1.00499 0.0
C849 C 0.13043 0.59337 1.01627 0.0
C850 C 0.94261 0.5654 1.01171 0.0
C851 C 1.01773 0.53338 1.07763 0.0
C852 C 0.8962 0.47262 1.0562 0.0
C853 C 0.8531 0.4975 1.05777 0.0
C854 C 0.84613 0.5374 1.04871 0.0
C855 C 0.81923 0.57261 1.055 0.0
C856 C 0.79924 0.56762 1.07032 0.0
C857 C 0.7995 0.5246 1.07776 0.0
C858 C 0.82675 0.48978 1.07161 0.0
C859 C 1.0207 0.40453 1.04933 0.0
O860 O 1.03019 0.49702 1.01598 0.0
O861 O 0.96 0.47218 1.01834 0.0
O862 O 1.04696 0.57849 1.02942 0.0
O863 O 0.07278 0.54619 1.05079 0.0
O864 O 0.94758 0.56395 1.02787 0.0
O865 O 0.94926 0.56241 1.02797 0.0
O866 O 1.0114 0.4942 1.07012 0.0
O867 O 1.00631 0.56166 1.06615 0.0
O868 O 0.92948 0.49131 1.06448 0.0
O869 O 0.90896 0.4611 1.04165 0.0
O870 O 1.02434 0.44035 1.04003 0.0
O871 O 1.02346 0.44198 1.04005 0.0
H872 H 0.15679 0.5265 1.04885 0.0
H873 H 0.20914 0.49345 1.02899 0.0
H874 H 0.15762 0.58497 0.99245 0.0
H875 H 0.10669 0.6193 1.01223 0.0
H876 H 0.86526 0.54339 1.03773 0.0
H877 H 0.81811 0.60507 1.04881 0.0
H878 H 0.78292 0.51963 1.08935 0.0
H879 H 0.83141 0.45914 1.0787 0.0
Ho880 Ho 0.83991 0.77068 0.28116 0.0
Ho881 Ho 0.85937 0.72259 0.28948 0.0
C882 C 0.89685 0.73105 0.2553 0.0
C883 C 0.80191 0.84616 0.27276 0.0
C884 C 0.82107 0.89213 0.27443 0.0
C885 C 0.85478 0.89962 0.28653 0.0
C886 C 0.89562 0.92168 0.28254 0.0
C887 C 0.90172 0.93688 0.26664 0.0
C888 C 0.86419 0.93779 0.25588 0.0
C889 C 0.82313 0.91702 0.26005 0.0
C890 C 0.7926 0.69914 0.25645 0.0
C891 C 0.82061 0.77782 0.3197 0.0
C892 C 0.88364 0.64483 0.30142 0.0
C893 C 0.85405 0.60619 0.30531 0.0
C894 C 0.80928 0.60448 0.29887 0.0
C895 C 0.775 0.5801 0.30685 0.0
C896 C 0.78557 0.55769 0.32134 0.0
C897 C 0.83148 0.55481 0.32653 0.0
C898 C 0.86558 0.57911 0.31858 0.0
C899 C 0.95604 0.77139 0.28337 0.0
O900 O 0.88604 0.77222 0.25959 0.0
O901 O 0.88505 0.69928 0.26539 0.0
O902 O 0.82569 0.82065 0.26289 0.0
O903 O 0.79152 0.82501 0.28615 0.0
O904 O 0.79342 0.70996 0.27231 0.0
O905 O 0.7945 0.71089 0.27236 0.0
O906 O 0.81995 0.73526 0.31435 0.0
O907 O 0.83336 0.80333 0.30752 0.0
O908 O 0.87522 0.68075 0.31021 0.0
O909 O 0.88755 0.65471 0.28614 0.0
O910 O 0.91682 0.7768 0.29121 0.0
O911 O 0.91621 0.77573 0.29097 0.0
H912 H 0.85321 0.88209 0.29801 0.0
H913 H 0.9242 0.92103 0.29101 0.0
H914 H 0.86856 0.94864 0.24343 0.0
H915 H 0.79727 0.91215 0.25066 0.0
H916 H 0.79995 0.62548 0.28863 0.0
H917 H 0.73988 0.58217 0.3026 0.0
H918 H 0.84027 0.53716 0.33764 0.0
H919 H 0.89979 0.58037 0.32376 0.0
Ho920 Ho 0.60555 0.57663 0.53686 0.0
Ho921 Ho 0.65186 0.60619 0.54492 0.0
C922 C 0.64983 0.63687 0.51091 0.0
C923 C 0.53068 0.53543 0.52784 0.0
C924 C 0.48426 0.55346 0.52821 0.0
C925 C 0.47734 0.59411 0.53705 0.0
C926 C 0.45037 0.62835 0.53037 0.0
C927 C 0.4302 0.62125 0.51507 0.0
C928 C 0.42842 0.57692 0.5084 0.0
C929 C 0.4556 0.54282 0.51503 0.0
C930 C 0.67221 0.5343 0.51119 0.0
C931 C 0.5934 0.57128 0.57553 0.0
C932 C 0.72631 0.60215 0.56214 0.0
C933 C 0.76487 0.57076 0.56328 0.0
C934 C 0.76114 0.52633 0.55689 0.0
C935 C 0.78987 0.49188 0.56253 0.0
C936 C 0.82186 0.50165 0.57487 0.0
C937 C 0.82967 0.54764 0.57941 0.0
C938 C 0.80113 0.5819 0.57371 0.0
C939 C 0.60591 0.69154 0.54327 0.0
O940 O 0.60951 0.61909 0.51404 0.0
O941 O 0.67856 0.63779 0.52287 0.0
O942 O 0.55725 0.55762 0.51803 0.0
O943 O 0.55025 0.52887 0.54184 0.0
O944 O 0.66846 0.53833 0.52727 0.0
O945 O 0.66695 0.53965 0.52746 0.0
O946 O 0.61691 0.60747 0.57099 0.0
O947 O 0.5888 0.54502 0.56259 0.0
O948 O 0.68731 0.58446 0.56647 0.0
O949 O 0.7228 0.62649 0.54905 0.0
O950 O 0.6496 0.68408 0.54224 0.0
O951 O 0.58698 0.65119 0.5449 0.0
H952 H 0.49895 0.60264 0.54741 0.0
H953 H 0.45162 0.66221 0.53575 0.0
H954 H 0.41326 0.57086 0.49655 0.0
H955 H 0.46043 0.51154 0.50815 0.0
H956 H 0.73321 0.51741 0.54881 0.0
H957 H 0.78425 0.45722 0.55832 0.0
H958 H 0.85449 0.55665 0.58874 0.0
H959 H 0.80461 0.61609 0.57871 0.0
Ho960 Ho 0.36762 0.39557 0.29691 0.0
Ho961 Ho 0.34734 0.35958 0.28616 0.0
C962 C 0.34221 0.33373 0.32551 0.0
C963 C 0.32387 0.44123 0.31876 0.0
C964 C 0.30788 0.43636 0.33563 0.0
C965 C 0.26349 0.41933 0.33874 0.0
C966 C 0.24651 0.41822 0.35457 0.0
C967 C 0.27298 0.43581 0.36741 0.0
C968 C 0.31825 0.4501 0.3644 0.0
C969 C 0.33548 0.45063 0.34868 0.0
C970 C 0.45759 0.35345 0.29467 0.0
C971 C 0.41011 0.43776 0.2714 0.0
C972 C 0.31488 0.28867 0.27101 0.0
C973 C 0.32881 0.24126 0.27213 0.0
C974 C 0.36221 0.23008 0.28382 0.0
C975 C 0.39622 0.19868 0.27988 0.0
C976 C 0.39644 0.17944 0.26426 0.0
C977 C 0.35762 0.18336 0.25421 0.0
C978 C 0.32349 0.21424 0.25821 0.0
C979 C 0.30894 0.42926 0.26039 0.0
O980 O 0.37686 0.36003 0.32203 0.0
O981 O 0.31776 0.33076 0.3118 0.0
O982 O 0.36794 0.44676 0.31609 0.0
O983 O 0.3037 0.41427 0.30812 0.0
O984 O 0.44807 0.39652 0.29744 0.0
O985 O 0.41761 0.33371 0.29319 0.0
O986 O 0.39774 0.39483 0.2684 0.0
O987 O 0.40201 0.45212 0.28586 0.0
O988 O 0.34687 0.3149 0.26526 0.0
O989 O 0.2959 0.30615 0.28385 0.0
O990 O 0.30656 0.42004 0.2762 0.0
O991 O 0.30861 0.41811 0.27635 0.0
H992 H 0.24144 0.40767 0.3289 0.0
H993 H 0.21236 0.40502 0.35666 0.0
H994 H 0.34008 0.46215 0.37421 0.0
H995 H 0.36988 0.46341 0.34674 0.0
H996 H 0.36645 0.25072 0.29472 0.0
H997 H 0.42586 0.19568 0.28778 0.0
H998 H 0.3576 0.16901 0.24206 0.0
H999 H 0.29782 0.22248 0.24913 0.0
Ho1000 Ho 0.47029 0.61683 1.0391 0.0
Ho1001 Ho 0.51875 0.59407 1.03289 0.0
C1002 C 0.52112 0.58061 1.07115 0.0
C1003 C 0.39058 0.64357 1.04892 0.0
C1004 C 0.35616 0.61419 1.05646 0.0
C1005 C 0.35618 0.56714 1.05277 0.0
C1006 C 0.34232 0.53559 1.06441 0.0
C1007 C 0.32882 0.55109 1.07977 0.0
C1008 C 0.32276 0.59799 1.08257 0.0
C1009 C 0.3362 0.62947 1.07092 0.0
C1010 C 0.5169 0.71199 1.03314 0.0
C1011 C 0.49939 0.64602 1.00422 0.0
C1012 C 0.59206 0.54638 1.02859 0.0
C1013 C 0.63964 0.56181 1.03057 0.0
C1014 C 0.64687 0.60292 1.03918 0.0
C1015 C 0.67507 0.63644 1.03264 0.0
C1016 C 0.69669 0.62808 1.01781 0.0
C1017 C 0.69919 0.58312 1.01181 0.0
C1018 C 0.67038 0.54969 1.01825 0.0
C1019 C 0.44496 0.54977 1.00753 0.0
O1020 O 0.47977 0.5776 1.06445 0.0
O1021 O 0.54813 0.59456 1.05965 0.0
O1022 O 0.42763 0.64685 1.0576 0.0
O1023 O 0.39977 0.63598 1.03372 0.0
O1024 O 0.52457 0.67343 1.04088 0.0
O1025 O 0.52368 0.67265 1.04073 0.0
O1026 O 0.5368 0.63319 1.01107 0.0
O1027 O 0.46219 0.64081 1.01288 0.0
O1028 O 0.57065 0.56771 1.017 0.0
O1029 O 0.56732 0.54397 1.04169 0.0
O1030 O 0.45651 0.55006 1.02336 0.0
O1031 O 0.45745 0.55118 1.02329 0.0
H1032 H 0.37175 0.55452 1.04171 0.0
H1033 H 0.34644 0.49945 1.06203 0.0
H1034 H 0.31169 0.61036 1.09436 0.0
H1035 H 0.33634 0.66546 1.07406 0.0
H1036 H 0.62489 0.61263 1.04911 0.0
H1037 H 0.67384 0.67071 1.03765 0.0
H1038 H 0.71654 0.57605 1.00047 0.0
H1039 H 0.66591 0.51788 1.01161 0.0
Ho1040 Ho 0.24308 0.71404 0.79265 0.0
Ho1041 Ho 0.27587 0.76712 0.78672 0.0
C1042 C 0.28353 0.76854 0.82567 0.0
C1043 C 0.24057 0.6318 0.8036 0.0
C1044 C 0.27986 0.61028 0.81153 0.0
C1045 C 0.32345 0.63053 0.81002 0.0
C1046 C 0.36011 0.61621 0.81956 0.0
C1047 C 0.35316 0.58253 0.83119 0.0
C1048 C 0.30995 0.56138 0.83247 0.0
C1049 C 0.27344 0.57509 0.82265 0.0
C1050 C 0.15972 0.76355 0.79286 0.0
C1051 C 0.21102 0.75065 0.7593 0.0
C1052 C 0.32288 0.84 0.78186 0.0
C1053 C 0.30312 0.8848 0.78522 0.0
C1054 C 0.25669 0.88343 0.78955 0.0
C1055 C 0.2255 0.90754 0.7802 0.0
C1056 C 0.24176 0.93814 0.76854 0.0
C1057 C 0.28825 0.95179 0.76936 0.0
C1058 C 0.31969 0.92296 0.77699 0.0
C1059 C 0.31191 0.69553 0.75986 0.0
O1060 O 0.25985 0.73216 0.82071 0.0
O1061 O 0.29759 0.79065 0.81293 0.0
O1062 O 0.22463 0.66655 0.81158 0.0
O1063 O 0.24554 0.64081 0.78826 0.0
O1064 O 0.16534 0.72073 0.78917 0.0
O1065 O 0.20082 0.77962 0.79624 0.0
O1066 O 0.23021 0.78583 0.76621 0.0
O1067 O 0.21347 0.71216 0.76725 0.0
O1068 O 0.3013 0.8181 0.77017 0.0
O1069 O 0.32914 0.81453 0.79459 0.0
O1070 O 0.31108 0.7026 0.77593 0.0
O1071 O 0.30989 0.70402 0.77605 0.0
H1072 H 0.32865 0.65928 0.80214 0.0
H1073 H 0.393 0.63324 0.81859 0.0
H1074 H 0.30383 0.53574 0.84158 0.0
H1075 H 0.23986 0.55998 0.82432 0.0
H1076 H 0.24372 0.85578 0.79686 0.0
H1077 H 0.18997 0.89677 0.78039 0.0
H1078 H 0.30123 0.97741 0.76113 0.0
H1079 H 0.3557 0.92588 0.77404 0.0
Ho1080 Ho 0.14749 0.49976 0.53985 0.0
Ho1081 Ho 0.11235 0.53317 0.53613 0.0
C1082 C 0.10103 0.53647 0.57334 0.0
C1083 C 0.22194 0.49636 0.55742 0.0
C1084 C 0.24186 0.53285 0.56744 0.0
C1085 C 0.2287 0.57832 0.56475 0.0
C1086 C 0.23472 0.61124 0.57695 0.0
C1087 C 0.25416 0.59881 0.59183 0.0
C1088 C 0.27056 0.55433 0.59403 0.0
C1089 C 0.2643 0.52142 0.58189 0.0
C1090 C 0.10247 0.415 0.5387 0.0
C1091 C 0.11651 0.47309 0.50661 0.0
C1092 C 1.04404 0.58949 0.53352 0.0
C1093 C 0.99475 0.58122 0.53299 0.0
C1094 C 0.97676 0.54371 0.54148 0.0
C1095 C 0.94422 0.51557 0.53389 0.0
C1096 C 0.93198 0.52447 0.51772 0.0
C1097 C 0.94162 0.56755 0.51114 0.0
C1098 C 0.97216 0.59665 0.51908 0.0
C1099 C 0.1718 0.57415 0.50714 0.0
O1100 O 0.09966 0.49947 0.56409 0.0
O1101 O 0.11976 0.56446 0.56298 0.0
O1102 O 0.18218 0.48335 0.56235 0.0
O1103 O 0.22209 0.50195 0.54184 0.0
O1104 O 0.14503 0.42285 0.53472 0.0
O1105 O 0.08523 0.45592 0.54143 0.0
O1106 O 0.08482 0.49623 0.51393 0.0
O1107 O 0.15438 0.46941 0.51488 0.0
O1108 O 0.06544 0.57137 0.52131 0.0
O1109 O 0.06501 0.58159 0.54711 0.0
O1110 O 0.17464 0.56469 0.52296 0.0
O1111 O 0.17303 0.56362 0.52318 0.0
H1112 H 0.21055 0.58758 0.55376 0.0
H1113 H 0.22178 0.64541 0.57517 0.0
H1114 H 0.28561 0.54441 0.60554 0.0
H1115 H 0.2738 0.48641 0.58429 0.0
H1116 H 0.993 0.53186 0.55254 0.0
H1117 H 0.93538 0.48323 0.53936 0.0
H1118 H 0.9309 0.57601 0.4989 0.0
H1119 H 0.98481 0.62623 0.51263 0.0
Ho1120 Ho 0.36772 0.72841 0.42714 0.0
Ho1121 Ho 0.34308 0.77392 0.43479 0.0
C1122 C 0.3302 0.78173 0.39548 0.0
C1123 C 0.39779 0.65191 0.41597 0.0
C1124 C 0.37372 0.60813 0.41593 0.0
C1125 C 0.34509 0.59613 0.429 0.0
C1126 C 0.31446 0.55959 0.42745 0.0
C1127 C 0.31203 0.53536 0.41277 0.0
C1128 C 0.34167 0.54648 0.4 0.0
C1129 C 0.37253 0.58243 0.40159 0.0
C1130 C 0.45185 0.79496 0.41903 0.0
C1131 C 0.3966 0.73279 0.46204 0.0
C1132 C 0.30667 0.84967 0.44407 0.0
C1133 C 0.33097 0.8935 0.44379 0.0
C1134 C 0.36903 0.89701 0.43339 0.0
C1135 C 0.40888 0.91885 0.43882 0.0
C1136 C 0.41007 0.93802 0.45444 0.0
C1137 C 0.36913 0.94317 0.46315 0.0
C1138 C 0.32944 0.9208 0.45781 0.0
C1139 C 0.29881 0.69784 0.45831 0.0
O1140 O 0.34385 0.74076 0.39972 0.0
O1141 O 0.32778 0.80638 0.40884 0.0
O1142 O 0.37893 0.68263 0.4068 0.0
O1143 O 0.40916 0.66807 0.43016 0.0
O1144 O 0.42366 0.7829 0.43061 0.0
O1145 O 0.42294 0.78242 0.43062 0.0
O1146 O 0.38479 0.77384 0.45793 0.0
O1147 O 0.38905 0.7013 0.45114 0.0
O1148 O 0.32542 0.82096 0.45404 0.0
O1149 O 0.29756 0.83084 0.43 0.0
O1150 O 0.29886 0.71094 0.44269 0.0
O1151 O 0.30029 0.7122 0.4427 0.0
H1152 H 0.34485 0.6162 0.44011 0.0
H1153 H 0.29167 0.55137 0.43736 0.0
H1154 H 0.33961 0.52847 0.3885 0.0
H1155 H 0.39354 0.59181 0.39131 0.0
H1156 H 0.371 0.8765 0.42242 0.0
H1157 H 0.44019 0.91469 0.43196 0.0
H1158 H 0.36964 0.95832 0.47521 0.0
H1159 H 0.30049 0.91865 0.46596 0.0
Ho1160 Ho 0.15579 0.614 0.17884 0.0
Ho1161 Ho 0.1092 0.59233 0.18561 0.0
C1162 C 0.10236 0.57739 0.14749 0.0
C1163 C 0.23451 0.64152 0.16799 0.0
C1164 C 0.27222 0.61358 0.16196 0.0
C1165 C 0.27416 0.56724 0.16623 0.0
C1166 C 0.29619 0.53589 0.15616 0.0
C1167 C 0.31418 0.55051 0.14136 0.0
C1168 C 0.31769 0.59751 0.13824 0.0
C1169 C 0.29692 0.629 0.14856 0.0
C1170 C 0.11135 0.7103 0.18488 0.0
C1171 C 0.13238 0.64567 0.21382 0.0
C1172 C 1.0365 0.54265 0.18939 0.0
C1173 C 0.98862 0.55668 0.18746 0.0
C1174 C 0.9809 0.59779 0.17922 0.0
C1175 C 0.95448 0.63145 0.18653 0.0
C1176 C 0.93376 0.62277 0.20147 0.0
C1177 C 0.93029 0.57734 0.20679 0.0
C1178 C 0.95829 0.54408 0.1998 0.0
C1179 C 0.17912 0.54726 0.21134 0.0
O1180 O 0.14307 0.57033 0.1542 0.0
O1181 O 0.0785 0.59615 0.15903 0.0
O1182 O 0.19781 0.6379 0.15911 0.0
O1183 O 0.22524 0.63859 0.18335 0.0
O1184 O 0.10216 0.67086 0.17761 0.0
O1185 O 0.10302 0.67015 0.17774 0.0
O1186 O 0.09363 0.63257 0.20773 0.0
O1187 O 0.16815 0.63938 0.20459 0.0
O1188 O 1.0574 0.56469 0.20111 0.0
O1189 O 1.06141 0.54072 0.17628 0.0
O1190 O 0.17173 0.55005 0.19524 0.0
O1191 O 0.17096 0.5508 0.19524 0.0
H1192 H 0.25417 0.55437 0.17622 0.0
H1193 H 0.29412 0.49986 0.1589 0.0
H1194 H 0.33216 0.60946 0.12693 0.0
H1195 H 0.2955 0.6645 0.14501 0.0
H1196 H 1.00184 0.60762 0.16907 0.0
H1197 H 0.95618 0.66577 0.18189 0.0
H1198 H 0.91331 0.56971 0.21813 0.0
H1199 H 0.96272 0.51206 0.2061 0.0
Ho1200 Ho 0.25411 0.39257 0.92382 0.0
Ho1201 Ho 0.27347 0.36474 0.93049 0.0
C1202 C 0.29078 0.34167 0.8934 0.0
C1203 C 0.25082 0.45885 0.90329 0.0
C1204 C 0.29082 0.47943 0.89545 0.0
C1205 C 0.32768 0.49668 0.90475 0.0
C1206 C 0.36854 0.50965 0.89733 0.0
C1207 C 0.37314 0.50591 0.8804 0.0
C1208 C 0.33647 0.48704 0.87125 0.0
C1209 C 0.29577 0.4744 0.87865 0.0
C1210 C 0.16013 0.34195 0.91897 0.0
C1211 C 0.21929 0.42288 0.95405 0.0
C1212 C 0.30237 0.28318 0.9373 0.0
C1213 C 0.27621 0.24102 0.93759 0.0
C1214 C 0.233 0.24003 0.92996 0.0
C1215 C 0.19792 0.21429 0.93671 0.0
C1216 C 0.20707 0.18904 0.95069 0.0
C1217 C 0.25259 0.18138 0.95555 0.0
C1218 C 0.28715 0.20876 0.94936 0.0
C1219 C 0.32642 0.41938 0.95792 0.0
O1220 O 0.25112 0.34421 0.90037 0.0
O1221 O 0.31519 0.3618 0.90495 0.0
O1222 O 0.24331 0.4169 0.89918 0.0
O1223 O 0.2469 0.4649 0.91885 0.0
O1224 O 0.18928 0.35401 0.93051 0.0
O1225 O 0.19086 0.35472 0.93013 0.0
O1226 O 0.239 0.38302 0.95448 0.0
O1227 O 0.21704 0.44008 0.93977 0.0
O1228 O 0.28963 0.31276 0.9481 0.0
O1229 O 0.3066 0.30156 0.92319 0.0
O1230 O 0.32128 0.41844 0.94185 0.0
O1231 O 0.31944 0.41674 0.94159 0.0
H1232 H 0.32507 0.4997 0.91779 0.0
H1233 H 0.39616 0.52277 0.90485 0.0
H1234 H 0.33856 0.48297 0.85821 0.0
H1235 H 0.2684 0.45979 0.87128 0.0
H1236 H 0.2245 0.26432 0.92058 0.0
H1237 H 0.16297 0.22009 0.93276 0.0
H1238 H 0.25994 0.16116 0.96623 0.0
H1239 H 0.32053 0.20897 0.95521 0.0
Ho1240 Ho 0.4612 0.49442 0.67739 0.0
Ho1241 Ho 0.50278 0.52737 0.68438 0.0
C1242 C 0.51742 0.53086 0.64618 0.0
C1243 C 0.38707 0.49599 0.65984 0.0
C1244 C 0.35205 0.53113 0.65794 0.0
C1245 C 0.36172 0.57621 0.66276 0.0
C1246 C 0.33296 0.61177 0.65826 0.0
C1247 C 0.29539 0.60321 0.64798 0.0
C1248 C 0.2841 0.55727 0.64413 0.0
C1249 C 0.31212 0.52159 0.64915 0.0
C1250 C 0.51051 0.41092 0.67929 0.0
C1251 C 0.46568 0.47099 0.71235 0.0
C1252 C 0.57265 0.57841 0.69167 0.0
C1253 C 0.62154 0.57093 0.69054 0.0
C1254 C 0.63685 0.53421 0.68092 0.0
C1255 C 0.6699 0.50485 0.68719 0.0
C1256 C 0.68519 0.5118 0.7032 0.0
C1257 C 0.67741 0.55413 0.71089 0.0
C1258 C 0.64667 0.58454 0.70421 0.0
C1259 C 0.43746 0.5704 0.71043 0.0
O1260 O 0.49842 0.49283 0.65148 0.0
O1261 O 0.51696 0.55912 0.65858 0.0
O1262 O 0.4271 0.5085 0.65471 0.0
O1263 O 0.38949 0.47561 0.67381 0.0
O1264 O 0.46644 0.41637 0.68042 0.0
O1265 O 0.5274 0.45239 0.67759 0.0
O1266 O 0.50338 0.49291 0.7087 0.0
O1267 O 0.43917 0.46172 0.70013 0.0
O1268 O 0.55281 0.55087 0.7018 0.0
O1269 O 0.55015 0.58165 0.67808 0.0
O1270 O 0.43858 0.56269 0.69444 0.0
O1271 O 0.44024 0.5614 0.6942 0.0
H1272 H 0.39333 0.58447 0.66899 0.0
H1273 H 0.34199 0.64597 0.66207 0.0
H1274 H 0.25555 0.54881 0.63618 0.0
H1275 H 0.30437 0.48706 0.64515 0.0
H1276 H 0.6182 0.52389 0.67005 0.0
H1277 H 0.67752 0.47341 0.68077 0.0
H1278 H 0.69044 0.56129 0.72302 0.0
H1279 H 0.63589 0.61351 0.7115 0.0
C1280 C 0.14698 0.47488 0.46376 0.0
C1281 C 0.16259 0.42943 0.46258 0.0
C1282 C 0.12071 0.40883 0.48706 0.0
C1283 C 0.11303 0.45572 0.48978 0.0
N1284 N 0.09812 0.52861 0.47798 0.0
N1285 N 0.15529 0.35025 0.47012 0.0
C1286 C 0.11889 0.48718 0.47708 0.0
C1287 C 0.14541 0.39513 0.47307 0.0
N1288 N 0.16179 0.50657 0.45288 0.0
N1289 N 0.1054 0.37829 0.49823 0.0
H1290 H 0.17323 0.33933 0.4599 0.0
H1291 H 0.14461 0.32331 0.47732 0.0
H1292 H 0.08495 0.38879 0.50785 0.0
H1293 H 0.11078 0.34328 0.49778 0.0
H1294 H 0.15612 0.54145 0.4542 0.0
H1295 H 0.18131 0.49765 0.44276 0.0
H1296 H 0.0978 0.55169 0.46843 0.0
H1297 H 0.07703 0.53742 0.4877 0.0
C1298 C 0.89598 0.91693 0.71439 0.0
C1299 C 0.9287 0.95258 0.71542 0.0
C1300 C 0.95184 0.9291 0.74265 0.0
C1301 C 0.91504 0.89761 0.74238 0.0
N1302 N 0.86515 0.84837 0.7266 0.0
N1303 N 0.99803 0.98286 0.7277 0.0
C1304 C 0.89169 0.88674 0.7277 0.0
C1305 C 0.96028 0.95525 0.72865 0.0
N1306 N 0.86743 0.91372 0.70119 0.0
N1307 N 0.97772 0.93429 0.75649 0.0
H1308 H 1.00796 0.99808 0.71691 0.0
H1309 H 1.02138 0.98868 0.73707 0.0
H1310 H 0.97388 0.91304 0.76651 0.0
H1311 H 1.00223 0.95966 0.75838 0.0
H1312 H 0.84058 0.8904 0.70018 0.0
H1313 H 0.8692 0.93608 0.69142 0.0
H1314 H 0.85103 0.83622 0.71574 0.0
H1315 H 0.85985 0.82664 0.73634 0.0
C1316 C 0.46672 0.63137 0.96078 0.0
C1317 C 0.44661 0.67466 0.95922 0.0
C1318 C 0.48983 0.70298 0.98265 0.0
C1319 C 0.49742 0.65742 0.9869 0.0
N1320 N 0.50782 0.57941 0.97851 0.0
N1321 N 0.44598 0.75453 0.96602 0.0
C1322 C 0.49172 0.62198 0.97523 0.0
C1323 C 0.46183 0.71181 0.96902 0.0
N1324 N 0.45953 0.59938 0.94889 0.0
N1325 N 0.50949 0.73709 0.99169 0.0
H1326 H 0.42788 0.76185 0.9554 0.0
H1327 H 0.44959 0.78166 0.97417 0.0
H1328 H 0.53224 0.72982 1.00114 0.0
H1329 H 0.50729 0.77154 0.98881 0.0
H1330 H 0.47349 0.56682 0.94896 0.0
H1331 H 0.44099 0.60695 0.93836 0.0
H1332 H 0.5018 0.55082 0.97122 0.0
H1333 H 0.52782 0.57294 0.98876 0.0
C1334 C 0.72881 0.1243 0.2489 0.0
C1335 C 0.70588 0.167 0.25072 0.0
C1336 C 0.65568 0.14805 0.22789 0.0
C1337 C 0.68022 0.1066 0.22568 0.0
N1338 N 0.74557 1.05967 0.23151 0.0
N1339 N 0.65147 0.22223 0.24115 0.0
C1340 C 0.7186 0.09622 0.23535 0.0
C1341 C 0.67066 0.17985 0.2399 0.0
N1342 N 0.75896 0.10922 0.26042 0.0
N1343 N 0.61747 0.15646 0.21875 0.0
H1344 H 0.6606 0.2458 0.25019 0.0
H1345 H 0.6284 0.23527 0.23273 0.0
H1346 H 0.60819 0.13684 0.20862 0.0
H1347 H 0.59363 0.18139 0.22173 0.0
H1348 H 0.77083 0.0758 0.26083 0.0
H1349 H 0.77017 0.12857 0.27027 0.0
H1350 H 0.77755 1.0541 0.23682 0.0
H1351 H 0.73792 1.03689 0.22206 0.0
C1352 C 0.17521 0.6338 0.25553 0.0
C1353 C 0.199 0.67599 0.25624 0.0
C1354 C 0.15425 0.70455 0.23337 0.0
C1355 C 0.13809 0.66014 0.23072 0.0
N1356 N 0.11703 0.58775 0.24176 0.0
N1357 N 0.21115 0.75274 0.24613 0.0
C1358 C 0.1432 0.62636 0.24271 0.0
C1359 C 0.188 0.7121 0.24541 0.0
N1360 N 0.18567 0.60022 0.26634 0.0
N1361 N 0.13596 0.73932 0.22458 0.0
H1362 H 0.23496 0.76073 0.25518 0.0
H1363 H 0.20826 0.77786 0.23731 0.0
H1364 H 0.10874 0.7334 0.21655 0.0
H1365 H 0.14336 0.77367 0.2267 0.0
H1366 H 0.17319 0.56696 0.26548 0.0
H1367 H 0.20866 0.6053 0.27597 0.0
H1368 H 0.1152 0.5637 0.25096 0.0
H1369 H 0.09377 0.58209 0.23227 0.0
C1370 C 0.71249 1.01738 0.4638 0.0
C1371 C 0.69302 0.97241 0.46273 0.0
C1372 C 0.66173 0.98103 0.48996 0.0
C1373 C 0.67812 1.02692 0.49036 0.0
N1374 N 0.71226 0.09132 0.47707 0.0
N1375 N 0.64225 0.91506 0.47333 0.0
C1376 C 0.70137 1.04582 0.4771 0.0
C1377 C 0.66598 0.95504 0.47546 0.0
N1378 N 0.7437 1.03251 0.45272 0.0
N1379 N 0.64175 0.96241 0.50338 0.0
H1380 H 0.6438 0.89585 0.46264 0.0
H1381 H 0.6177 0.90314 0.4814 0.0
H1382 H 0.63541 0.9808 0.51399 0.0
H1383 H 0.63397 0.92785 0.50441 0.0
H1384 H 0.76362 0.06176 0.45446 0.0
H1385 H 0.75373 1.01444 0.4425 0.0
H1386 H 0.72318 0.10855 0.46675 0.0
H1387 H 0.70724 0.11284 0.48706 0.0
C1388 C 0.47555 0.46466 0.74277 0.0
C1389 C 0.44658 0.47317 0.72904 0.0
C1390 C 0.38527 0.49564 0.74771 0.0
C1391 C 0.40889 0.47404 0.76014 0.0
N1392 N 0.47947 0.45317 0.77221 0.0
N1393 N 0.36988 0.49679 0.71923 0.0
C1394 C 0.45595 0.46563 0.7586 0.0
C1395 C 0.40037 0.48909 0.73163 0.0
N1396 N 0.52038 0.45296 0.74064 0.0
N1397 N 0.34581 0.51819 0.75131 0.0
H1398 H 0.37736 0.4993 0.70699 0.0
H1399 H 0.33484 0.50037 0.7212 0.0
H1400 H 0.33437 0.52095 0.76329 0.0
H1401 H 0.32774 0.53765 0.7429 0.0
H1402 H 0.54398 0.45035 0.75009 0.0
H1403 H 0.53454 0.44582 0.72933 0.0
H1404 H 0.51364 0.44347 0.77245 0.0
H1405 H 0.46342 0.45316 0.78354 0.0
C1406 C 0.9605 0.19061 0.99882 0.0
C1407 C 0.92356 0.17963 1.00916 0.0
C1408 C 0.87238 0.2238 0.99206 0.0
C1409 C 0.9062 0.22269 0.97971 0.0
N1410 N 0.98301 0.20507 0.97112 0.0
N1411 N 0.84503 0.18857 1.01685 0.0
C1412 C 0.95082 0.20694 0.9831 0.0
C1413 C 0.87979 0.19804 1.00636 0.0
N1414 N 1.00446 0.18407 1.00393 0.0
N1415 N 0.83311 0.24816 0.98995 0.0
H1416 H 0.85064 0.17111 1.02769 0.0
H1417 H 0.81085 0.19624 1.01449 0.0
H1418 H 0.82681 0.26744 0.97961 0.0
H1419 H 0.80879 0.25253 0.99903 0.0
H1420 H 1.03281 0.19474 0.9973 0.0
H1421 H 1.01209 0.17296 1.01563 0.0
H1422 H 1.01476 0.18954 0.97259 0.0
H1423 H 0.9767 0.21623 0.95933 0.0
C1424 C 0.93335 0.71163 0.74538 0.0
C1425 C 0.9316 0.67758 0.75743 0.0
C1426 C 0.98934 0.63502 0.74277 0.0
C1427 C 0.97735 0.66004 0.72867 0.0
N1428 N 0.94298 0.72688 0.71684 0.0
N1429 N 0.96399 0.61062 0.76943 0.0
C1430 C 0.9516 0.70041 0.7301 0.0
C1431 C 0.96222 0.6407 0.75688 0.0
N1432 N 0.91772 0.75438 0.74864 0.0
N1433 N 1.0262 0.60668 0.74273 0.0
H1434 H 0.94472 0.61504 0.77996 0.0
H1435 H 0.98343 0.58097 0.76916 0.0
H1436 H 1.04699 0.60217 0.73262 0.0
H1437 H 1.03857 0.59104 0.75318 0.0
H1438 H 0.92374 0.78174 0.74093 0.0
H1439 H 0.9047 0.76318 0.75999 0.0
H1440 H 0.92017 0.75413 0.71705 0.0
H1441 H 0.95706 0.72022 0.70545 0.0
C1442 C 0.17759 0.1514 0.49851 0.0
C1443 C 0.20254 0.11088 0.50197 0.0
C1444 C 0.24363 0.11853 0.47652 0.0
C1445 C 0.22178 0.16138 0.4739 0.0
N1446 N 0.17566 0.22316 0.4844 0.0
N1447 N 0.26692 0.06264 0.4964 0.0
C1448 C 0.19195 0.17966 0.48569 0.0
C1449 C 0.23826 0.09688 0.49167 0.0
N1450 N 0.13752 0.16092 0.50624 0.0
N1451 N 0.2691 0.09783 0.46471 0.0
H1452 H 0.26397 1.04669 0.50765 0.0
H1453 H 0.2963 1.0536 0.49002 0.0
H1454 H 0.27724 0.11243 0.45365 0.0
H1455 H 0.28024 0.06421 0.46552 0.0
H1456 H 0.11537 0.18656 0.50245 0.0
H1457 H 0.12369 0.14073 0.51528 0.0
H1458 H 0.15775 0.2393 0.49373 0.0
H1459 H 0.18275 0.2444 0.47464 0.0
C1460 C 0.67202 0.41439 0.22453 0.0
C1461 C 0.64117 0.45153 0.22381 0.0
C1462 C 0.65672 0.47018 0.25235 0.0
C1463 C 0.69055 0.43607 0.25238 0.0
N1464 N 0.71356 0.3626 0.24178 0.0
N1465 N 0.58905 0.49931 0.23899 0.0
C1466 C 0.69251 0.40365 0.23954 0.0
C1467 C 0.62819 0.4743 0.23839 0.0
N1468 N 0.68316 0.39039 0.21082 0.0
N1469 N 0.65309 0.49946 0.26527 0.0
H1470 H 0.56697 0.50224 0.22913 0.0
H1471 H 0.57608 0.51301 0.24973 0.0
H1472 H 0.6738 0.49706 0.27561 0.0
H1473 H 0.63108 0.52725 0.26545 0.0
H1474 H 0.71006 0.3672 0.21035 0.0
H1475 H 0.66677 0.39503 0.1997 0.0
H1476 H 0.71231 0.33614 0.23324 0.0
H1477 H 0.72754 0.35304 0.25292 0.0
C1478 C 0.39596 0.87363 0.99379 0.0
C1479 C 0.41873 0.8859 0.9793 0.0
C1480 C 0.45857 0.9469 0.99344 0.0
C1481 C 0.42605 0.94353 1.00617 0.0
N1482 N 0.36924 0.89949 1.02029 0.0
N1483 N 0.47629 0.9302 0.96555 0.0
C1484 C 0.39676 0.90503 1.00708 0.0
C1485 C 0.45241 0.9205 0.97937 0.0
N1486 N 0.37334 0.83287 0.99461 0.0
N1487 N 0.4962 0.97426 0.99504 0.0
H1488 H 0.47429 0.90993 0.95512 0.0
H1489 H 0.496 0.95961 0.96408 0.0
H1490 H 0.50297 0.99235 1.0056 0.0
H1491 H 0.5234 0.9742 0.98691 0.0
H1492 H 0.35795 0.8207 1.00511 0.0
H1493 H 0.37376 0.80917 0.98511 0.0
H1494 H 0.34554 0.87313 1.02145 0.0
H1495 H 0.36913 0.92251 1.03003 0.0
C1496 C 0.96804 0.48202 0.96536 0.0
C1497 C 0.94617 0.43901 0.96395 0.0
C1498 C 0.98022 0.4141 0.9895 0.0
C1499 C 0.99514 0.45947 0.99218 0.0
N1500 N 1.02018 0.53077 0.98092 0.0
N1501 N 0.94135 0.36001 0.97159 0.0
C1502 C 0.99534 0.49137 0.97937 0.0
C1503 C 0.9566 0.4033 0.97488 0.0
N1504 N 0.9598 0.51457 0.95394 0.0
N1505 N 0.98649 0.38257 1.00144 0.0
H1506 H 0.92371 0.35175 0.9609 0.0
H1507 H 0.94818 0.33175 0.97875 0.0
H1508 H 1.00496 0.39029 1.012 0.0
H1509 H 0.97382 0.34936 1.00112 0.0
H1510 H 0.97023 0.54845 0.9551 0.0
H1511 H 0.94087 0.5076 0.94339 0.0
H1512 H 1.0237 0.55454 0.97168 0.0
H1513 H 1.04095 0.53756 0.99101 0.0
C1514 C 0.37806 0.14996 0.71912 0.0
C1515 C 0.41492 0.16424 0.70964 0.0
C1516 C 0.43598 0.21907 0.73103 0.0
C1517 C 0.4083 0.19412 0.74195 0.0
N1518 N 0.36498 0.12314 0.74604 0.0
N1519 N 0.48096 0.21376 0.70665 0.0
C1520 C 0.38219 0.156 0.73603 0.0
C1521 C 0.44368 0.20038 0.71531 0.0
N1522 N 0.34559 0.12196 0.71231 0.0
N1523 N 0.45701 0.25871 0.73583 0.0
H1524 H 0.48769 0.20275 0.69488 0.0
H1525 H 0.50636 0.23451 0.7117 0.0
H1526 H 0.45559 0.27123 0.74768 0.0
H1527 H 0.47357 0.28031 0.72772 0.0
H1528 H 0.3202 0.10567 0.71895 0.0
H1529 H 0.34395 0.11659 0.69974 0.0
H1530 H 0.35082 0.09271 0.74164 0.0
H1531 H 0.36802 0.12294 0.75859 0.0
C1532 C 0.7216 0.63867 0.47234 0.0
C1533 C 0.69279 0.66506 0.46246 0.0
C1534 C 0.63526 0.67017 0.48353 0.0
C1535 C 0.66523 0.64688 0.49425 0.0
N1536 N 0.73723 0.60529 0.49832 0.0
N1537 N 0.61815 0.69123 0.45563 0.0
C1538 C 0.70851 0.62992 0.48856 0.0
C1539 C 0.64752 0.67434 0.467 0.0
N1540 N 0.76374 0.62669 0.46653 0.0
N1541 N 0.59797 0.69266 0.48946 0.0
H1542 H 0.62852 0.69575 0.4436 0.0
H1543 H 0.58351 0.69686 0.45775 0.0
H1544 H 0.58986 0.69357 0.50178 0.0
H1545 H 0.57751 0.71393 0.48244 0.0
H1546 H 0.79085 0.61479 0.47354 0.0
H1547 H 0.77196 0.62993 0.45428 0.0
H1548 H 0.76525 0.58731 0.49406 0.0
H1549 H 0.73356 0.59982 0.51064 0.0
C1550 C 0.17063 0.90756 0.23631 0.0
C1551 C 0.2132 0.88702 0.23855 0.0
C1552 C 0.2438 0.92417 0.21448 0.0
C1553 C 0.20431 0.95209 0.21433 0.0
N1554 N 0.12854 0.96933 0.22464 0.0
N1555 N 0.28272 0.85958 0.22678 0.0
C1556 C 0.16678 0.94286 0.22491 0.0
C1557 C 0.24737 0.8898 0.22652 0.0
N1558 N 0.13449 0.89342 0.24549 0.0
N1559 N 0.27861 0.93256 0.20387 0.0
H1560 H 0.28438 0.8335 0.23531 0.0
H1561 H 0.30768 0.85751 0.21784 0.0
H1562 H 0.27639 0.95738 0.19488 0.0
H1563 H 0.31027 0.91649 0.20432 0.0
H1564 H 0.10085 0.90402 0.2437 0.0
H1565 H 0.13813 0.8673 0.25396 0.0
H1566 H 0.10318 0.96834 0.23346 0.0
H1567 H 0.12311 0.99396 0.21591 0.0
C1568 C 0.65294 0.91265 0.98671 0.0
C1569 C 0.63489 0.95641 0.98893 0.0
C1570 C 0.66838 0.98217 0.96348 0.0
C1571 C 0.69384 0.94125 0.96306 0.0
N1572 N 0.70986 0.86603 0.97374 0.0
N1573 N 0.60984 1.02663 0.97719 0.0
C1574 C 0.68526 0.90555 0.97432 0.0
C1575 C 0.63734 0.98922 0.97648 0.0
N1576 N 0.638 0.87801 0.99633 0.0
N1577 N 0.67638 1.01513 0.95218 0.0
H1578 H 0.58696 1.0319 0.9867 0.0
H1579 H 0.6066 1.05005 0.96783 0.0
H1580 H 0.69829 1.01007 0.94236 0.0
H1581 H 0.66281 1.04785 0.95276 0.0
H1582 H 0.64703 0.84395 0.99475 0.0
H1583 H 0.61169 0.88317 1.00461 0.0
H1584 H 0.70923 0.84151 0.98282 0.0
H1585 H 0.73247 0.85831 0.96442 0.0
C1586 C 0.40801 0.51674 0.26036 0.0
C1587 C 0.42473 0.47098 0.25917 0.0
C1588 C 0.46588 0.4916 0.23479 0.0
C1589 C 0.45572 0.53838 0.23781 0.0
N1590 N 0.42364 0.59627 0.25514 0.0
N1591 N 0.47631 0.41717 0.24651 0.0
C1592 C 0.42916 0.55124 0.25122 0.0
C1593 C 0.45572 0.45893 0.24677 0.0
N1594 N 0.3699 0.52709 0.26923 0.0
N1595 N 0.48306 0.47795 0.22019 0.0
H1596 H 0.47003 0.39198 0.25507 0.0
H1597 H 0.50296 0.4092 0.23861 0.0
H1598 H 0.48854 0.50067 0.21083 0.0
H1599 H 0.4871 0.44381 0.21687 0.0
H1600 H 0.35454 0.5591 0.26899 0.0
H1601 H 0.34986 0.50297 0.27509 0.0
H1602 H 0.40813 0.60705 0.26588 0.0
H1603 H 0.4382 0.62264 0.24843 0.0
C1604 C 1.02392 0.13925 0.47803 0.0
C1605 C 1.01941 0.17118 0.49083 0.0
C1606 C 0.96985 0.21861 0.47487 0.0
C1607 C 0.9661 0.18234 0.4633 0.0
N1608 N 0.99634 0.11373 0.45138 0.0
N1609 N 1.0119 0.24944 0.49801 0.0
C1610 C 0.99628 0.14471 0.46386 0.0
C1611 C 1.00097 0.21411 0.48783 0.0
N1612 N 1.05323 0.1036 0.47991 0.0
N1613 N 0.9413 0.25536 0.47425 0.0
H1614 H 1.0358 0.24507 0.50735 0.0
H1615 H 1.00162 0.28295 0.49609 0.0
H1616 H 0.91949 0.26174 0.46449 0.0
H1617 H 0.93832 0.27886 0.48375 0.0
H1618 H 1.0589 0.07856 0.47114 0.0
H1619 H 0.07388 0.1008 0.49025 0.0
H1620 H 1.01684 0.08486 0.45104 0.0
H1621 H 0.97598 0.11772 0.44101 0.0
C1622 C 0.21477 0.74168 0.71458 0.0
C1623 C 0.1808 0.70759 0.71303 0.0
C1624 C 0.15109 0.7253 0.73987 0.0
C1625 C 0.19078 0.75181 0.74279 0.0
N1626 N 0.24688 0.80279 0.73141 0.0
N1627 N 0.105 0.68331 0.72043 0.0
C1628 C 0.21793 0.76646 0.72952 0.0
C1629 C 0.14478 0.70522 0.72442 0.0
N1630 N 0.24404 0.74914 0.70199 0.0
N1631 N 0.12117 0.71716 0.7522 0.0
H1632 H 0.0998 0.66879 0.70901 0.0
H1633 H 0.07581 0.68427 0.7276 0.0
H1634 H 0.1235 0.73465 0.7632 0.0
H1635 H 0.09498 0.69292 0.75168 0.0
H1636 H 0.27133 0.77208 0.70243 0.0
H1637 H 0.24087 0.73147 0.69097 0.0
H1638 H 0.26736 0.81567 0.72221 0.0
H1639 H 0.24675 0.82299 0.74186 0.0
C1640 C 0.66794 0.20819 0.73092 0.0
C1641 C 0.63636 0.17166 0.7288 0.0
C1642 C 0.63898 0.15497 0.75774 0.0
C1643 C 0.6761 0.18558 0.75905 0.0
N1644 N 0.70702 0.25748 0.75021 0.0
N1645 N 0.57376 0.13077 0.74134 0.0
C1646 C 0.68392 0.218 0.74672 0.0
C1647 C 0.61537 0.1519 0.74263 0.0
N1648 N 0.68392 0.23221 0.71793 0.0
N1649 N 0.62759 0.12825 0.77061 0.0
H1650 H 0.5538 0.13241 0.73082 0.0
H1651 H 0.55642 0.11739 0.75126 0.0
H1652 H 0.64423 0.13131 0.78184 0.0
H1653 H 0.60311 0.10231 0.76993 0.0
H1654 H 0.71179 0.25449 0.71862 0.0
H1655 H 0.67019 0.22909 0.70625 0.0
H1656 H 0.71296 0.28312 0.7418 0.0
H1657 H 0.71521 0.26674 0.76211 0.0
C1658 C 0.1787 0.43616 0.97999 0.0
C1659 C 0.21144 0.45061 0.96856 0.0
C1660 C 0.23298 0.51552 0.98586 0.0
C1661 C 0.19724 0.50367 0.9964 0.0
N1662 N 0.12837 0.45963 1.00152 0.0
N1663 N 0.26322 0.51 0.95891 0.0
C1664 C 0.16805 0.46567 0.99305 0.0
C1665 C 0.2367 0.49202 0.97093 0.0
N1666 N 0.15699 0.39494 0.97821 0.0
N1667 N 0.26352 0.54912 0.9902 0.0
H1668 H 0.27046 0.49358 0.94803 0.0
H1669 H 0.27603 0.54325 0.95934 0.0
H1670 H 0.26148 0.5671 1.00117 0.0
H1671 H 0.29309 0.55624 0.98365 0.0
H1672 H 0.13616 0.38092 0.98712 0.0
H1673 H 0.16197 0.37332 0.96826 0.0
H1674 H 0.10275 0.43685 0.99782 0.0
H1675 H 0.11881 0.48019 1.01129 0.0
C1676 C 0.99498 0.99103 0.24372 0.0
C1677 C 0.99745 0.95631 0.23163 0.0
C1678 C 0.96151 0.90205 0.24975 0.0
C1679 C 0.94774 0.93953 0.25948 0.0
N1680 N 0.96109 1.01523 0.26944 0.0
N1681 N 0.9989 0.87665 0.22495 0.0
C1682 C 0.96891 0.98248 0.25791 0.0
C1683 C 0.9864 0.91073 0.23538 0.0
N1684 N 1.01558 1.03225 0.24117 0.0
N1685 N 0.94821 0.85904 0.25395 0.0
H1686 H 1.02084 0.88305 0.2153 0.0
H1687 H 0.98995 0.84248 0.22618 0.0
H1688 H 0.93074 0.85278 0.26473 0.0
H1689 H 0.95577 0.82971 0.24735 0.0
H1690 H 1.0152 1.05938 0.24938 0.0
H1691 H 1.03545 1.0385 0.23096 0.0
H1692 H 0.97285 1.04871 0.26883 0.0
H1693 H 0.9425 1.00807 0.27993 0.0
C1694 C 0.39113 0.6914 0.50436 0.0
C1695 C 0.42777 0.66011 0.5038 0.0
C1696 C 0.45386 0.69113 0.478 0.0
C1697 C 0.41531 0.72013 0.47796 0.0
N1698 N 0.35673 0.75937 0.49305 0.0
N1699 N 0.50192 0.63961 0.4932 0.0
C1700 C 0.38736 0.7245 0.49191 0.0
C1701 C 0.46201 0.66345 0.49166 0.0
N1702 N 0.35858 0.68752 0.51614 0.0
N1703 N 0.48129 0.68874 0.46459 0.0
H1704 H 0.51053 0.62202 0.50371 0.0
H1705 H 0.5281 0.63967 0.48472 0.0
H1706 H 0.47767 0.7107 0.45477 0.0
H1707 H 0.50598 0.66381 0.46274 0.0
H1708 H 0.328 0.70563 0.51606 0.0
H1709 H 0.36092 0.66384 0.5255 0.0
H1710 H 0.33765 0.76613 0.50344 0.0
H1711 H 0.35399 0.78458 0.48426 0.0
C1712 C 0.45376 0.12529 0.25297 0.0
C1713 C 0.44012 0.17059 0.25601 0.0
C1714 C 0.47791 0.19684 0.23154 0.0
C1715 C 0.48723 0.15082 0.22748 0.0
N1716 N 0.50147 0.07451 0.2371 0.0
N1717 N 0.45478 0.25091 0.25228 0.0
C1718 C 0.48163 0.11612 0.23926 0.0
C1719 C 0.45846 0.20693 0.24681 0.0
N1720 N 0.43752 0.09113 0.26256 0.0
N1721 N 0.48472 0.23039 0.22039 0.0
H1722 H 0.4403 0.2592 0.26345 0.0
H1723 H 0.47024 0.27858 0.24659 0.0
H1724 H 0.50021 0.22405 0.20927 0.0
H1725 H 0.47308 0.26371 0.2218 0.0
H1726 H 0.44161 1.0566 0.25989 0.0
H1727 H 0.41828 0.09791 0.27296 0.0
H1728 H 0.50061 1.04892 0.24581 0.0
H1729 H 0.52264 0.06724 0.2273 0.0
C1730 C 0.66405 0.67141 0.99444 0.0
C1731 C 0.69988 0.6661 1.00618 0.0
C1732 C 0.74244 0.72838 0.99377 0.0
C1733 C 0.71151 0.72612 0.98051 0.0
N1734 N 0.63552 0.71205 0.97085 0.0
N1735 N 0.77137 0.69135 1.01804 0.0
C1736 C 0.66959 0.70315 0.98183 0.0
C1737 C 0.73811 0.69599 1.00642 0.0
N1738 N 0.62619 0.64404 0.99477 0.0
N1739 N 0.77492 0.76194 0.99433 0.0
H1740 H 0.76862 0.66814 1.02754 0.0
H1741 H 0.80253 0.70876 1.01784 0.0
H1742 H 0.77767 0.78646 0.98529 0.0
H1743 H 0.7956 0.76839 1.00446 0.0
H1744 H 0.60208 0.64151 0.98544 0.0
H1745 H 0.61973 0.62229 1.00432 0.0
H1746 H 0.60211 0.69975 0.9717 0.0
H1747 H 0.64012 0.73557 0.96154 0.0
C1748 C 0.16815 0.95187 0.7524 0.0
C1749 C 0.21595 0.94298 0.75298 0.0
C1750 C 0.21978 0.95285 0.72395 0.0
C1751 C 0.17106 0.95417 0.7227 0.0
N1752 N 0.0992 0.94073 0.73642 0.0
N1753 N 0.27887 0.91133 0.73723 0.0
C1754 C 0.14506 0.94913 0.73712 0.0
C1755 C 0.23921 0.93565 0.73814 0.0
N1756 N 0.14517 0.96505 0.76601 0.0
N1757 N 0.24833 0.97082 0.71253 0.0
H1758 H 0.29155 0.89236 0.74689 0.0
H1759 H 0.29485 0.90464 0.72614 0.0
H1760 H 0.2376 0.99231 0.70328 0.0
H1761 H 0.28388 0.97077 0.71402 0.0
H1762 H 0.11087 0.9748 0.7657 0.0
H1763 H 0.16174 0.97124 0.77709 0.0
H1764 H 0.08023 0.93303 0.74676 0.0
H1765 H 0.08167 0.93616 0.72547 0.0
C1766 C 0.94911 0.45112 0.50257 0.0
C1767 C 0.91848 0.48745 0.50631 0.0
C1768 C 0.88043 0.47615 0.48035 0.0
C1769 C 0.9074 0.43646 0.47737 0.0
N1770 N 0.96088 0.3809 0.48758 0.0
N1771 N 0.84639 0.52357 0.5011 0.0
C1772 C 0.93885 0.4216 0.4893 0.0
C1773 C 0.88088 0.49569 0.49604 0.0
N1774 N 0.99029 0.44735 0.51037 0.0
N1775 N 0.85579 0.49689 0.46834 0.0
H1776 H 0.84593 0.53805 0.51274 0.0
H1777 H 0.81642 0.52786 0.49437 0.0
H1778 H 0.85307 0.48503 0.45647 0.0
H1779 H 0.84028 0.52855 0.46999 0.0
H1780 H 1.0153 0.42442 0.50669 0.0
H1781 H 1.00184 0.46986 0.5193 0.0
H1782 H 0.98087 0.3669 0.49681 0.0
H1783 H 0.95637 0.35969 0.47748 0.0
C1784 C 0.49077 0.90744 0.48795 0.0
C1785 C 0.50904 0.95125 0.49075 0.0
C1786 C 0.48204 0.97678 0.46437 0.0
C1787 C 0.45332 0.93783 0.46382 0.0
N1788 N 0.43904 0.86004 0.4719 0.0
N1789 N 0.54607 1.01444 0.47813 0.0
C1790 C 0.46151 0.90052 0.47438 0.0
C1791 C 0.51274 0.9819 0.47773 0.0
N1792 N 0.50151 0.87342 0.4985 0.0
N1793 N 0.4781 1.00932 0.4527 0.0
H1794 H 0.56917 1.01647 0.4878 0.0
H1795 H 0.55352 1.03562 0.46838 0.0
H1796 H 0.45594 1.00546 0.44276 0.0
H1797 H 0.49633 1.0399 0.45292 0.0
H1798 H 0.49087 0.83965 0.4972 0.0
H1799 H 0.52477 0.87908 0.50801 0.0
H1800 H 0.44024 0.83261 0.47982 0.0
H1801 H 0.41898 0.8539 0.46159 0.0
C1802 C 0.90238 0.73112 0.225 0.0
C1803 C 0.92074 0.71851 0.24029 0.0
C1804 C 0.96251 0.65723 0.22737 0.0
C1805 C 0.93248 0.66002 0.21377 0.0
N1806 N 0.87839 0.70401 0.19822 0.0
N1807 N 0.97321 0.6723 0.25588 0.0
C1808 C 0.90429 0.6989 0.21195 0.0
C1809 C 0.95309 0.68299 0.24134 0.0
N1810 N 0.88274 0.77288 0.22312 0.0
N1811 N 1.00086 0.63106 0.22673 0.0
H1812 H 0.96954 0.69219 0.26633 0.0
H1813 H 0.99178 0.64249 0.25772 0.0
H1814 H 1.01002 0.61378 0.21625 0.0
H1815 H 1.02617 0.6315 0.23572 0.0
H1816 H 0.87106 0.78509 0.212 0.0
H1817 H 0.88269 0.79734 0.23237 0.0
H1818 H 0.85622 0.73114 0.19633 0.0
H1819 H 0.87728 0.67965 0.18891 0.0
C1820 C 0.17896 0.21812 0.97683 0.0
C1821 C 0.17253 0.18784 0.96353 0.0
C1822 C 0.11627 0.14536 0.97897 0.0
C1823 C 0.13422 0.16639 0.99334 0.0
N1824 N 0.18161 0.2252 1.00593 0.0
N1825 N 0.13147 0.12611 0.9507 0.0
C1826 C 0.16458 0.20415 0.99227 0.0
C1827 C 0.13922 0.15302 0.96407 0.0
N1828 N 0.20001 0.25939 0.9747 0.0
N1829 N 0.0788 0.11736 0.97956 0.0
H1830 H 0.1476 0.13198 0.93962 0.0
H1831 H 0.11064 0.09717 0.95073 0.0
H1832 H 1.06083 0.111 0.99017 0.0
H1833 H 0.06269 0.10403 0.96923 0.0
H1834 H 0.20202 0.28438 0.98377 0.0
H1835 H 0.21084 0.27051 0.96334 0.0
H1836 H 0.2085 0.24872 1.00573 0.0
H1837 H 0.17023 0.21789 1.01759 0.0
C1838 C 0.67427 0.43682 0.71777 0.0
C1839 C 0.70296 0.47432 0.71334 0.0
C1840 C 0.74496 0.46788 0.73861 0.0
C1841 C 0.71983 0.4275 0.74247 0.0
N1842 N 0.66525 0.36939 0.73431 0.0
N1843 N 0.77395 0.51483 0.71693 0.0
C1844 C 0.68684 0.40992 0.73136 0.0
C1845 C 0.74197 0.48501 0.72273 0.0
N1846 N 0.6328 0.42954 0.71035 0.0
N1847 N 0.76942 0.49195 0.75007 0.0
H1848 H 0.77214 0.52754 0.70512 0.0
H1849 H 0.80379 0.52357 0.72326 0.0
H1850 H 0.77304 0.48273 0.76215 0.0
H1851 H 0.78337 0.5241 0.74783 0.0
H1852 H 0.60859 0.40664 0.71477 0.0
H1853 H 0.62035 0.44856 0.70071 0.0
H1854 H 0.64467 0.3528 0.72568 0.0
H1855 H 0.66999 0.35114 0.74501 0.0
C1856 C 0.09929 0.31565 0.41379 0.0
C1857 C 0.11921 0.28842 0.42654 0.0
C1858 C 1.04075 0.30083 0.44034 0.0
C1859 C 1.01898 0.32201 0.42638 0.0
N1860 N 1.03269 0.34218 0.39846 0.0
N1861 N 0.09984 0.24975 0.45139 0.0
C1862 C 1.05012 0.32687 0.41287 0.0
C1863 C 0.08732 0.27989 0.43967 0.0
N1864 N 0.12814 0.33302 0.40233 0.0
N1865 N 1.018 0.30139 0.45469 0.0
H1866 H 0.1312 0.23313 0.45127 0.0
H1867 H 0.07735 0.23787 0.4602 0.0
H1868 H 0.98548 0.31514 0.4558 0.0
H1869 H 1.03348 0.29275 0.46568 0.0
H1870 H 0.11825 0.35787 0.39405 0.0
H1871 H 0.16324 0.32654 0.40216 0.0
H1872 H 1.05083 0.34085 0.3876 0.0
H1873 H 0.99886 0.35262 0.39693 0.0
C1874 C 1.05171 0.78415 0.68701 0.0
C1875 C 1.05046 0.7567 0.67213 0.0
C1876 C 0.0812 0.83101 0.65874 0.0
C1877 C 0.08102 0.85835 0.67339 0.0
N1878 N 1.05726 0.85892 0.70114 0.0
N1879 N 0.07423 0.75758 0.64418 0.0
C1880 C 0.0638 0.83385 0.68732 0.0
C1881 C 0.06776 0.78187 0.65821 0.0
N1882 N 1.04448 0.76257 0.70138 0.0
N1883 N 0.09244 0.85299 0.64472 0.0
H1884 H 0.06542 0.72328 0.64297 0.0
H1885 H 0.09192 0.7697 0.63415 0.0
H1886 H 0.10247 0.88722 0.6446 0.0
H1887 H 0.08817 0.83917 0.63313 0.0
H1888 H 1.05016 0.77763 0.71271 0.0
H1889 H 1.03766 0.72795 0.70214 0.0
H1890 H 1.03984 0.84703 0.71128 0.0
H1891 H 0.06542 0.89358 0.70177 0.0
C1892 C 0.54418 0.81838 0.9438 0.0
C1893 C 0.50866 0.81609 0.93129 0.0
C1894 C 0.57237 0.77753 0.91461 0.0
C1895 C 0.60908 0.78428 0.92655 0.0
N1896 N 0.62509 0.824 0.95176 0.0
N1897 N 0.49754 0.79868 0.90292 0.0
C1898 C 0.5933 0.80823 0.94088 0.0
C1899 C 0.52542 0.7969 0.91625 0.0
N1900 N 0.5309 0.82933 0.95922 0.0
N1901 N 0.58191 0.75119 0.90131 0.0
H1902 H 0.46444 0.81152 0.90333 0.0
H1903 H 0.50865 0.79132 0.89118 0.0
H1904 H 0.61438 0.73802 0.89902 0.0
H1905 H 0.55683 0.7393 0.89324 0.0
H1906 H 0.55223 0.82627 0.96935 0.0
H1907 H 0.49707 0.83648 0.96217 0.0
H1908 H 0.61699 0.84584 0.96135 0.0
H1909 H 0.66006 0.81989 0.95019 0.0
C1910 C 0.56165 0.28146 0.18679 0.0
C1911 C 0.53797 0.26496 0.17253 0.0
C1912 C 0.55541 0.34517 0.16121 0.0
C1913 C 0.57319 0.3632 0.17641 0.0
N1914 N 0.58017 0.34535 0.2049 0.0
N1915 N 0.50876 0.28817 0.14644 0.0
C1916 C 0.57212 0.33018 0.18942 0.0
C1917 C 0.53401 0.2992 0.15995 0.0
N1918 N 0.57827 0.25051 0.19753 0.0
N1919 N 0.56063 0.37046 0.14751 0.0
H1920 H 0.49394 0.25603 0.14464 0.0
H1921 H 0.49918 0.31197 0.13773 0.0
H1922 H 0.57573 0.40263 0.14752 0.0
H1923 H 0.55401 0.35771 0.13587 0.0
H1924 H 0.59989 0.25972 0.20714 0.0
H1925 H 0.5754 0.21549 0.19557 0.0
H1926 H 0.57596 0.32467 0.21505 0.0
H1927 H 0.58556 0.37971 0.2077 0.0
C1928 C 1.01902 0.82763 0.2997 0.0
C1929 C 1.00572 0.79667 0.2867 0.0
C1930 C 0.09128 0.80087 0.2785 0.0
C1931 C 0.10487 0.83259 0.29113 0.0
N1932 N 0.07797 0.8703 0.31534 0.0
N1933 N 1.03167 0.76923 0.26067 0.0
C1934 C 0.06716 0.84429 0.30196 0.0
C1935 C 1.04292 0.78778 0.27546 0.0
N1936 N 0.98524 0.84404 0.3095 0.0
N1937 N 0.1245 0.78047 0.26953 0.0
H1938 H 0.99797 0.76239 0.25721 0.0
H1939 H 1.05462 0.76666 0.25106 0.0
H1940 H 0.15916 0.78732 0.27108 0.0
H1941 H 0.11774 0.75256 0.26198 0.0
H1942 H 0.98952 0.8708 0.31775 0.0
H1943 H 0.95126 0.8338 0.30846 0.0
H1944 H 1.0561 0.87586 0.32507 0.0
H1945 H 0.11063 0.88374 0.31747 0.0
C1946 C 0.52718 0.80663 0.53746 0.0
C1947 C 0.55296 0.84286 0.54551 0.0
C1948 C 0.60695 0.77828 0.55422 0.0
C1949 C 0.58437 0.74287 0.54477 0.0
N1950 N 0.52324 0.72889 0.52567 0.0
N1951 N 0.62339 0.85913 0.55974 0.0
C1952 C 0.54451 0.75898 0.53598 0.0
C1953 C 0.59432 0.82695 0.55331 0.0
N1954 N 0.48436 0.81665 0.53189 0.0
N1955 N 0.63952 0.76522 0.5652 0.0
H1956 H 0.61621 0.89396 0.55968 0.0
H1957 H 0.65653 0.85187 0.56367 0.0
H1958 H 0.64816 0.73119 0.56704 0.0
H1959 H 0.65386 0.78721 0.57386 0.0
H1960 H 0.4613 0.7921 0.52757 0.0
H1961 H 0.47049 0.84922 0.53288 0.0
H1962 H 0.49801 0.73828 0.51736 0.0
H1963 H 0.53342 0.69493 0.52466 0.0
C1964 C 0.57892 0.33037 0.78185 0.0
C1965 C 0.61312 0.31118 0.79272 0.0
C1966 C 0.54561 0.26064 0.80256 0.0
C1967 C 0.5121 0.27732 0.79101 0.0
N1968 N 0.50099 0.33097 0.76954 0.0
N1969 N 0.62461 0.25354 0.81288 0.0
C1970 C 0.53042 0.31306 0.7807 0.0
C1971 C 0.59453 0.27528 0.80283 0.0
N1972 N 0.59206 0.3673 0.773 0.0
N1973 N 0.52987 0.23241 0.81445 0.0
H1974 H 0.65883 0.26341 0.81411 0.0
H1975 H 0.61728 0.22319 0.81882 0.0
H1976 H 0.49569 0.22232 0.81525 0.0
H1977 H 0.54903 0.22281 0.82454 0.0
H1978 H 0.57033 0.38604 0.76564 0.0
H1979 H 0.62504 0.38092 0.77363 0.0
H1980 H 0.51055 0.35277 0.76024 0.0
H1981 H 0.46628 0.3224 0.76929 0.0
C1982 C 0.0788 0.28984 1.02949 0.0
C1983 C 0.0755 0.25449 1.04171 0.0
C1984 C 1.03404 0.31717 1.05785 0.0
C1985 C 1.04267 0.35372 1.0463 0.0
N1986 N 0.08926 0.37043 1.02302 0.0
N1987 N 1.05422 0.24284 1.06963 0.0
C1988 C 0.06959 0.33858 1.03272 0.0
C1989 C 1.0542 0.27072 1.05645 0.0
N1990 N 0.08903 0.27679 1.014 0.0
N1991 N 1.0053 0.32636 1.07047 0.0
H1992 H 0.06738 0.20997 1.06934 0.0
H1993 H 1.04489 0.25377 1.08122 0.0
H1994 H 0.99137 0.35856 1.07255 0.0
H1995 H 0.99239 0.30123 1.07809 0.0
H1996 H 0.08811 0.29914 1.00421 0.0
H1997 H 0.0922 0.24262 1.01067 0.0
H1998 H 0.1131 0.36193 1.01414 0.0
H1999 H 0.08662 0.40524 1.02528 0.0
C2000 C 0.08463 0.80897 0.78214 0.0
C2001 C 0.10912 0.78646 0.79512 0.0
C2002 C 1.03505 0.79966 0.81115 0.0
C2003 C 1.00846 0.81734 0.7976 0.0
N2004 N 1.01221 0.82634 0.76836 0.0
N2005 N 0.09984 0.75497 0.82168 0.0
C2006 C 1.03465 0.81838 0.78262 0.0
C2007 C 0.08167 0.78033 0.80942 0.0
N2008 N 0.10957 0.82321 0.76916 0.0
N2009 N 1.01608 0.80193 0.82625 0.0
H2010 H 0.13324 0.74249 0.82134 0.0
H2011 H 0.08084 0.74353 0.83154 0.0
H2012 H 0.98319 0.81421 0.8283 0.0
H2013 H 1.03428 0.79533 0.8369 0.0
H2014 H 0.09632 0.84402 0.76008 0.0
H2015 H 0.14484 0.81825 0.76852 0.0
H2016 H 1.02774 0.82314 0.75705 0.0
H2017 H 0.97702 0.83044 0.76758 0.0
C2018 C 1.01306 0.30602 0.54412 0.0
C2019 C 1.03909 0.26499 0.54053 0.0
C2020 C 0.10691 0.32148 0.53929 0.0
C2021 C 0.07971 0.36317 0.54011 0.0
N2022 N 1.0016 0.38874 0.54233 0.0
N2023 N 0.11389 0.23989 0.53265 0.0
C2024 C 1.03141 0.35313 0.54215 0.0
C2025 C 0.08671 0.27501 0.53751 0.0
N2026 N 0.97077 0.3006 0.55086 0.0
N2027 N 0.15315 0.32496 0.54156 0.0
H2028 H 0.10216 0.20636 0.5321 0.0
H2029 H 0.14662 0.24469 0.52795 0.0
H2030 H 0.16953 0.35508 0.54501 0.0
H2031 H 0.17448 0.29675 0.54262 0.0
H2032 H 0.95162 0.32761 0.55546 0.0
H2033 H 0.95751 0.26886 0.55399 0.0
H2034 H 0.96624 0.38452 0.54122 0.0
H2035 H 1.01216 0.42261 0.54249 0.0
C2036 C 0.59427 0.3272 0.28516 0.0
C2037 C 0.60666 0.28822 0.29496 0.0
C2038 C 0.52027 0.28809 0.30251 0.0
C2039 C 0.50919 0.33033 0.29449 0.0
N2040 N 0.54376 0.39236 0.27972 0.0
N2041 N 0.57618 0.23641 0.31485 0.0
C2042 C 0.54881 0.35024 0.28639 0.0
C2043 C 0.56778 0.27051 0.30401 0.0
N2044 N 0.62482 0.34176 0.27385 0.0
N2045 N 0.48502 0.26351 0.30894 0.0
H2046 H 0.60805 0.22095 0.31618 0.0
H2047 H 0.5526 0.22589 0.32351 0.0
H2048 H 0.45157 0.27546 0.30947 0.0
H2049 H 0.48826 0.22979 0.31266 0.0
H2050 H 0.61679 0.36558 0.26497 0.0
H2051 H 0.65663 0.3267 0.27225 0.0
H2052 H 0.57117 0.41175 0.2755 0.0
H2053 H 0.51267 0.40954 0.2796 0.0
C2054 C 0.5982 0.82259 1.04653 0.0
C2055 C 0.57803 0.86053 1.03786 0.0
C2056 C 0.51774 0.80157 1.0289 0.0
C2057 C 0.54 0.76242 1.03618 0.0
N2058 N 0.60767 0.73988 1.05088 0.0
N2059 N 0.52107 0.87914 1.01802 0.0
C2060 C 0.58177 0.77444 1.04483 0.0
C2061 C 0.53844 0.84764 1.02842 0.0
N2062 N 0.63348 0.83276 1.05692 0.0
N2063 N 0.47473 0.79543 1.02256 0.0
H2064 H 0.53278 0.91279 1.01786 0.0
H2065 H 0.49805 0.87066 1.00875 0.0
H2066 H 0.45797 0.76392 1.02219 0.0
H2067 H 0.45393 0.82238 1.019 0.0
H2068 H 0.64724 0.80964 1.06512 0.0
H2069 H 0.64605 0.86597 1.05838 0.0
H2070 H 0.6406 0.74442 1.05556 0.0
H2071 H 0.59779 0.70582 1.05001 0.0
C2072 C 0.0836 0.31055 0.93572 0.0
C2073 C 0.10703 0.32524 0.92117 0.0
C2074 C 1.03171 0.30315 0.90671 0.0
C2075 C 1.00613 0.29361 0.92129 0.0
N2076 N 1.01178 0.29926 0.9506 0.0
N2077 N 0.09437 0.34217 0.89288 0.0
C2078 C 1.03342 0.30046 0.93601 0.0
C2079 C 0.07807 0.32328 0.90686 0.0
N2080 N 0.10919 0.30369 0.94938 0.0
N2081 N 1.0123 0.29135 0.8921 0.0
H2082 H 0.12719 0.35603 0.89184 0.0
H2083 H 0.07379 0.34815 0.88273 0.0
H2084 H 0.97974 0.2769 0.89096 0.0
H2085 H 1.0303 0.29137 0.8812 0.0
H2086 H 0.0963 0.28826 0.95977 0.0
H2087 H 0.14449 0.30858 0.94964 0.0
H2088 H 1.02764 0.30856 0.96152 0.0
H2089 H 0.9768 0.2938 0.95159 0.0
C2090 C 0.54177 0.33613 0.66288 0.0
C2091 C 0.53505 0.3603 0.67805 0.0
C2092 C 0.56698 0.2862 0.69093 0.0
C2093 C 0.57121 0.26073 0.67576 0.0
N2094 N 0.55431 0.26533 0.64717 0.0
N2095 N 0.53564 0.35039 0.70694 0.0
C2096 C 0.55641 0.28746 0.66185 0.0
C2097 C 0.54628 0.33269 0.69206 0.0
N2098 N 0.53455 0.36021 0.64898 0.0
N2099 N 0.58413 0.26688 0.70463 0.0
H2100 H 0.52223 0.38309 0.70836 0.0
H2101 H 0.53715 0.33188 0.71767 0.0
H2102 H 0.59352 0.23285 0.70497 0.0
H2103 H 0.58985 0.28475 0.71545 0.0
H2104 H 0.54391 0.34886 0.63746 0.0
H2105 H 0.52224 0.39354 0.64917 0.0
H2106 H 0.53887 0.27875 0.63685 0.0
H2107 H 0.56434 0.23149 0.64561 0.0
C2108 C 0.58269 0.8286 0.43502 0.0
C2109 C 0.60221 0.85433 0.4218 0.0
C2110 C 0.52343 0.84245 0.40809 0.0
C2111 C 0.50311 0.8177 0.42146 0.0
N2112 N 0.51609 0.79854 0.44967 0.0
N2113 N 0.58982 0.87596 0.3941 0.0
C2114 C 0.53375 0.81391 0.43541 0.0
C2115 C 0.5716 0.85883 0.40806 0.0
N2116 N 0.61166 0.81614 0.44726 0.0
N2117 N 0.49533 0.85287 0.3953 0.0
H2118 H 0.62374 0.88698 0.39329 0.0
H2119 H 0.57333 0.8751 0.38286 0.0
H2120 H 0.46131 0.84202 0.39448 0.0
H2121 H 0.50393 0.87568 0.38618 0.0
H2122 H 0.603 0.79291 0.45626 0.0
H2123 H 0.64611 0.82568 0.44751 0.0
H2124 H 0.53373 0.79978 0.4607 0.0
H2125 H 0.482 0.78945 0.45102 0.0
C2126 C 0.09198 0.84711 0.18788 0.0
C2127 C 1.0475 0.8572 0.18133 0.0
C2128 C 1.04187 0.76993 0.17602 0.0
C2129 C 0.08735 0.76016 0.18209 0.0
N2130 N 0.15792 0.79618 0.19082 0.0
N2131 N 0.98313 0.82484 0.16704 0.0
C2132 C 0.11249 0.80099 0.1871 0.0
C2133 C 1.02373 0.81728 0.17487 0.0
N2134 N 0.11464 0.88154 0.19578 0.0
N2135 N 1.01448 0.73387 0.17184 0.0
H2136 H 0.96908 0.85737 0.16602 0.0
H2137 H 0.96544 0.80018 0.1603 0.0
H2138 H 1.02589 0.70037 0.17202 0.0
H2139 H 0.97972 0.73662 0.16922 0.0
H2140 H 0.1438 0.87635 0.20281 0.0
H2141 H 0.10222 0.91482 0.19619 0.0
H2142 H 0.18036 0.82359 0.19247 0.0
H2143 H 0.1745 0.76476 0.1908 0.0
C2144 C 0.35495 0.29414 0.37302 0.0
C2145 C 0.31038 0.27813 0.37813 0.0
C2146 C 0.28514 0.30025 0.34895 0.0
C2147 C 0.33049 0.31385 0.34367 0.0
N2148 N 0.41016 0.30839 0.35136 0.0
N2149 N 0.23191 0.26959 0.36926 0.0
C2150 C 0.3654 0.30693 0.35604 0.0
C2151 C 0.27565 0.28203 0.36544 0.0
N2152 N 0.38816 0.29954 0.38463 0.0
N2153 N 0.2502 0.30288 0.33789 0.0
H2154 H 0.22405 0.24875 0.379 0.0
H2155 H 0.20291 0.28006 0.36295 0.0
H2156 H 0.2529 0.32009 0.32696 0.0
H2157 H 0.21846 0.28713 0.33912 0.0
H2158 H 0.41898 0.31653 0.38253 0.0
H2159 H 0.38319 0.29152 0.39678 0.0
H2160 H 0.43714 0.29829 0.35883 0.0
H2161 H 0.42019 0.31342 0.33939 0.0
C2162 C 1.05249 0.10966 0.60221 0.0
C2163 C 1.03433 0.07647 0.59055 0.0
C2164 C 1.04906 1.01929 0.61383 0.0
C2165 C 0.07168 1.05135 0.62464 0.0
N2166 N 0.10123 0.12805 0.62595 0.0
N2167 N 1.02884 0.99448 0.58631 0.0
C2168 C 0.07474 0.0967 0.61784 0.0
C2169 C 1.03653 1.03008 0.59678 0.0
N2170 N 1.04771 0.15484 0.59878 0.0
N2171 N 1.03701 0.97784 0.61997 0.0
H2172 H 1.02196 0.99827 0.57402 0.0
H2173 H 1.03502 0.96065 0.5894 0.0
H2174 H 1.04385 0.96859 0.63194 0.0
H2175 H 1.01559 0.95489 0.61381 0.0
H2176 H 1.05455 0.18077 0.6072 0.0
H2177 H 1.0326 0.1666 0.58816 0.0
H2178 H 0.11028 0.15954 0.62112 0.0
H2179 H 0.11841 0.12067 0.63674 0.0
C2180 C 0.3447 0.82627 0.86587 0.0
C2181 C 0.3125 0.82157 0.87902 0.0
C2182 C 0.26045 0.78341 0.85735 0.0
C2183 C 0.29387 0.78523 0.84443 0.0
N2184 N 0.37285 0.80283 0.83894 0.0
N2185 N 0.24045 0.78803 0.88639 0.0
C2186 C 0.33708 0.80562 0.84952 0.0
C2187 C 0.27092 0.79764 0.87437 0.0
N2188 N 0.38377 0.8507 0.86899 0.0
N2189 N 0.21689 0.7704 0.85328 0.0
H2190 H 0.245 0.7996 0.89832 0.0
H2191 H 0.21255 0.76613 0.88483 0.0
H2192 H 0.20744 0.76082 0.8415 0.0
H2193 H 0.18917 0.7732 0.86112 0.0
H2194 H 0.40647 0.86105 0.86002 0.0
H2195 H 0.39184 0.86358 0.88052 0.0
H2196 H 0.40641 0.81174 0.84196 0.0
H2197 H 0.3701 0.78682 0.82763 0.0
C2198 C 0.54102 1.02911 0.1168 0.0
C2199 C 0.53955 0.07436 0.12389 0.0
C2200 C 0.58354 0.09794 1.0981 0.0
C2201 C 0.58023 1.05379 1.09024 0.0
N2202 N 0.54861 0.97822 1.09311 0.0
N2203 N 0.55535 0.1534 0.11821 0.0
C2204 C 0.55665 1.02009 1.09995 0.0
C2205 C 0.5602 0.10882 0.11365 0.0
N2206 N 0.52908 0.99329 0.12641 0.0
N2207 N 0.60928 0.13057 1.09068 0.0
H2208 H 0.53801 0.16335 0.12866 0.0
H2209 H 0.56413 0.18073 0.11083 0.0
H2210 H 0.62456 0.12525 1.07941 0.0
H2211 H 0.61869 0.16126 1.09626 0.0
H2212 H 0.53408 0.95931 0.12312 0.0
H2213 H 0.51823 0.99745 0.13835 0.0
H2214 H 0.52598 0.95448 1.09799 0.0
H2215 H 0.56242 0.96815 1.08201 0.0
C2216 C 0.27549 0.81866 0.3722 0.0
C2217 C 0.31901 0.79956 0.377 0.0
C2218 C 0.34266 0.81579 0.3474 0.0
C2219 C 0.29937 0.83633 0.34245 0.0
N2220 N 0.22297 0.8521 0.35209 0.0
N2221 N 0.39676 0.79048 0.36859 0.0
C2222 C 0.2658 0.83626 0.35555 0.0
C2223 C 0.35283 0.80098 0.3643 0.0
N2224 N 0.24284 0.82153 0.38398 0.0
N2225 N 0.37451 0.80729 0.3357 0.0
H2226 H 0.40557 0.77908 0.38017 0.0
H2227 H 0.42501 0.7972 0.36131 0.0
H2228 H 0.37059 0.81634 0.32363 0.0
H2229 H 0.40322 0.78704 0.33757 0.0
H2230 H 0.21259 0.83983 0.38295 0.0
H2231 H 0.24709 0.80708 0.39543 0.0
H2232 H 0.19429 0.84596 0.35919 0.0
H2233 H 0.2152 0.87076 0.34179 0.0
C2234 C 0.58644 1.01704 0.6209 0.0
C2235 C 0.58565 0.06307 0.62751 0.0
C2236 C 0.54743 0.08376 0.60025 0.0
C2237 C 0.54698 1.03772 0.59383 0.0
N2238 N 0.57193 0.9611 0.59894 0.0
N2239 N 0.55193 0.13705 0.62333 0.0
C2240 C 0.56794 1.00486 0.60457 0.0
C2241 C 0.56271 0.09528 0.61699 0.0
N2242 N 0.60425 0.98357 0.63046 0.0
N2243 N 0.53563 0.1181 0.58995 0.0
H2244 H 0.55885 0.14646 0.6353 0.0
H2245 H 0.53123 0.16055 0.6174 0.0
H2246 H 0.52481 0.11231 0.57803 0.0
H2247 H 0.5409 0.15251 0.59263 0.0
H2248 H 0.59932 0.94884 0.62839 0.0
H2249 H 0.62345 0.99027 0.6409 0.0
H2250 H 0.59337 0.93682 0.60404 0.0
H2251 H 0.55496 0.94906 0.58859 0.0
C2252 C 0.27801 0.2858 0.84792 0.0
C2253 C 0.32281 0.28805 0.8405 0.0
C2254 C 0.34708 0.32739 0.86749 0.0
C2255 C 0.30267 0.32312 0.8751 0.0
N2256 N 0.23103 0.2818 0.87226 0.0
N2257 N 0.3956 0.32715 0.84331 0.0
C2258 C 0.26969 0.29835 0.86507 0.0
C2259 C 0.356 0.3129 0.85048 0.0
N2260 N 0.24124 0.2741 0.83841 0.0
N2261 N 0.38276 0.3432 0.87679 0.0
H2262 H 0.40325 0.32119 0.83118 0.0
H2263 H 0.41838 0.35031 0.84867 0.0
H2264 H 0.3791 0.3553 0.88859 0.0
H2265 H 0.41694 0.34023 0.87342 0.0
H2266 H 0.20748 0.2779 0.8422 0.0
H2267 H 0.24345 0.26624 0.82613 0.0
H2268 H 0.20885 0.25865 0.86656 0.0
H2269 H 0.22427 0.28507 0.88459 0.0
C2270 C 1.03863 1.03961 1.09788 0.0
C2271 C 0.08109 0.06327 1.09413 0.0
C2272 C 0.0898 0.06864 0.12538 0.0
C2273 C 1.04548 1.04835 0.12913 0.0
N2274 N 0.97614 1.01998 0.11659 0.0
N2275 N 0.14171 0.10752 1.10642 0.0
C2276 C 1.01971 1.03599 0.11461 0.0
C2277 C 0.10503 0.07917 1.10857 0.0
N2278 N 1.01695 1.01714 1.08541 0.0
N2279 N 0.11855 0.07876 0.13804 0.0
H2280 H 0.15355 0.11664 1.09498 0.0
H2281 H 0.15758 0.12566 0.11584 0.0
H2282 H 0.10845 0.07758 0.1501 0.0
H2283 H 0.15323 0.08611 0.1366 0.0
H2284 H 0.98946 0.99489 1.087 0.0
H2285 H 1.02976 1.01641 1.07364 0.0
H2286 H 0.95266 1.0165 1.10707 0.0
H2287 H 0.96208 1.01365 0.12795 0.0
C2288 C 0.846 0.7842 0.86998 0.0
C2289 C 0.80173 0.78701 0.8777 0.0
C2290 C 0.77757 0.82899 0.85137 0.0
C2291 C 0.82179 0.82543 0.84352 0.0
N2292 N 0.89613 0.79143 0.84612 0.0
N2293 N 0.72664 0.8187 0.87508 0.0
C2294 C 0.85501 0.8006 0.85319 0.0
C2295 C 0.76817 0.81121 0.86802 0.0
N2296 N 0.88112 0.76744 0.87914 0.0
N2297 N 0.74288 0.84737 0.8424 0.0
H2298 H 0.71824 0.80553 0.88643 0.0
H2299 H 0.70148 0.83979 0.87032 0.0
H2300 H 0.74808 0.86052 0.83081 0.0
H2301 H 0.70863 0.84706 0.84578 0.0
H2302 H 0.91541 0.76919 0.87583 0.0
H2303 H 0.8761 0.75441 0.89077 0.0
H2304 H 0.91998 0.76876 0.85084 0.0
H2305 H 0.90525 0.80442 0.83485 0.0
C2306 C 0.85723 0.29695 0.36951 0.0
C2307 C 0.82495 0.32258 0.37922 0.0
C2308 C 0.77241 0.31632 0.35412 0.0
C2309 C 0.80476 0.29098 0.34428 0.0
N2310 N 0.88183 0.26221 0.3437 0.0
N2311 N 0.74668 0.34731 0.38035 0.0
C2312 C 0.84809 0.28301 0.3524 0.0
C2313 C 0.7812 0.32907 0.37132 0.0
N2314 N 0.89584 0.28175 0.37718 0.0
N2315 N 0.7339 0.33235 0.3466 0.0
H2316 H 0.75173 0.36088 0.39196 0.0
H2317 H 0.7124 0.34653 0.37679 0.0
H2318 H 0.72726 0.32795 0.33426 0.0
H2319 H 0.71108 0.35496 0.35199 0.0
H2320 H 0.91835 0.25818 0.37219 0.0
H2321 H 0.90317 0.28886 0.38935 0.0
H2322 H 0.91603 0.26152 0.34732 0.0
H2323 H 0.87633 0.24753 0.33231 0.0
C2324 C 0.76761 0.29856 0.85195 0.0
C2325 C 0.80039 0.32377 0.84229 0.0
C2326 C 0.8537 0.31364 0.86729 0.0
C2327 C 0.81996 0.29036 0.8772 0.0
N2328 N 0.74027 0.27019 0.8783 0.0
N2329 N 0.87527 0.35798 0.84299 0.0
C2330 C 0.77592 0.28562 0.86917 0.0
C2331 C 0.84357 0.33157 0.85071 0.0
N2332 N 0.72841 0.28403 0.84436 0.0
N2333 N 0.89683 0.31797 0.87365 0.0
H2334 H 0.86935 0.37213 0.83161 0.0
H2335 H 0.90609 0.36889 0.8481 0.0
H2336 H 0.90547 0.30621 0.88516 0.0
H2337 H 0.92503 0.33025 0.86737 0.0
H2338 H 0.70554 0.26088 0.84944 0.0
H2339 H 0.72109 0.29129 0.83225 0.0
H2340 H 0.70626 0.27091 0.87444 0.0
H2341 H 0.74428 0.26041 0.89038 0.0
C2342 C 0.76374 0.84895 0.35727 0.0
C2343 C 0.79045 0.83801 0.37168 0.0
C2344 C 0.83551 0.78551 0.35218 0.0
C2345 C 0.80892 0.79683 0.3379 0.0
N2346 N 0.75061 0.84629 0.32766 0.0
N2347 N 0.84886 0.78806 0.38181 0.0
C2348 C 0.77398 0.83042 0.34087 0.0
C2349 C 0.82577 0.80447 0.36863 0.0
N2350 N 0.7267 0.87667 0.35912 0.0
N2351 N 0.87249 0.75791 0.3499 0.0
H2352 H 0.84348 0.80021 0.39357 0.0
H2353 H 0.87062 0.76012 0.38145 0.0
H2354 H 0.88004 0.7432 0.33865 0.0
H2355 H 0.89756 0.75209 0.35867 0.0
H2356 H 0.70112 0.88038 0.35038 0.0
H2357 H 0.71969 0.89434 0.36977 0.0
H2358 H 0.73036 0.87538 0.32782 0.0
H2359 H 0.75371 0.83181 0.31612 0.0
C2360 C 0.60049 0.54395 0.10987 0.0
C2361 C 0.57512 0.556 0.12422 0.0
C2362 C 0.51327 0.58398 1.10411 0.0
C2363 C 0.538 0.57 1.08974 0.0
N2364 N 0.60247 0.52591 1.08075 0.0
N2365 N 0.50472 0.58778 0.13397 0.0
C2366 C 0.58107 0.54762 1.09328 0.0
C2367 C 0.53061 0.57568 0.12087 0.0
N2368 N 0.6441 0.52835 0.11196 0.0
N2369 N 0.47317 0.60692 1.10179 0.0
H2370 H 0.51701 0.58619 0.14587 0.0
H2371 H 0.4709 0.59848 0.13338 0.0
H2372 H 0.45983 0.61352 1.09028 0.0
H2373 H 0.45362 0.62132 0.11098 0.0
H2374 H 0.66738 0.52456 1.10252 0.0
H2375 H 0.65855 0.52286 0.12338 0.0
H2376 H 0.6307 0.50476 1.08215 0.0
H2377 H 0.58857 0.52437 1.06912 0.0
C2378 C 1.05052 0.52034 0.62014 0.0
C2379 C 1.04425 0.56585 0.62668 0.0
C2380 C 0.07213 0.59192 0.5984 0.0
C2381 C 0.08085 0.54639 0.59192 0.0
N2382 N 0.07006 0.46667 0.59802 0.0
N2383 N 1.05698 0.64489 0.62113 0.0
C2384 C 0.06764 0.51082 0.60333 0.0
C2385 C 1.05744 0.60108 0.61542 0.0
N2386 N 1.04252 0.48512 0.63052 0.0
N2387 N 0.07476 0.62777 0.58795 0.0
H2388 H 1.04301 0.65354 0.63235 0.0
H2389 H 0.07314 0.67196 0.61533 0.0
H2390 H 0.08359 0.62442 0.57582 0.0
H2391 H 0.06339 0.66047 0.59076 0.0
H2392 H 1.0511 0.45133 0.62822 0.0
H2393 H 1.02955 0.49026 0.64218 0.0
H2394 H 1.05469 0.43926 0.60383 0.0
H2395 H 0.08571 0.45712 0.58723 0.0
C2396 C 0.09073 0.52416 0.12043 0.0
C2397 C 0.08282 0.56629 0.12916 0.0
C2398 C 1.02993 0.58555 1.10488 0.0
C2399 C 1.04008 0.54453 1.09564 0.0
N2400 N 0.09052 0.47958 1.09502 0.0
N2401 N 1.0477 0.64004 0.1271 0.0
C2402 C 0.07315 0.51534 1.1037 0.0
C2403 C 1.05301 0.59741 0.12054 0.0
N2404 N 0.11382 0.49069 0.12842 0.0
N2405 N 0.99653 0.61342 1.09893 0.0
H2406 H 0.06466 0.65085 0.13764 0.0
H2407 H 1.03033 0.66649 0.12147 0.0
H2408 H 0.97808 0.60602 1.08836 0.0
H2409 H 0.98371 0.64171 1.10505 0.0
H2410 H 0.11604 0.45723 0.12415 0.0
H2411 H 0.12736 0.49536 0.14007 0.0
H2412 H 0.11823 0.46026 1.09895 0.0
H2413 H 0.08067 0.47211 1.08312 0.0
C2414 C 0.53742 0.58645 0.62073 0.0
C2415 C 0.53672 0.54133 0.62789 0.0
C2416 C 0.57354 0.51575 0.60089 0.0
C2417 C 0.57424 0.5608 0.59377 0.0
N2418 N 0.54681 0.63733 0.59732 0.0
N2419 N 0.56649 0.46551 0.62452 0.0
C2420 C 0.55411 0.5955 0.60405 0.0
C2421 C 0.55756 0.50682 0.61766 0.0
N2422 N 0.52236 0.62214 0.62998 0.0
N2423 N 0.58832 0.48015 0.59154 0.0
H2424 H 0.55901 0.4582 0.63656 0.0
H2425 H 0.58602 0.44015 0.61905 0.0
H2426 H 0.60534 0.4845 0.58058 0.0
H2427 H 0.58164 0.4461 0.59419 0.0
H2428 H 0.52995 0.65612 0.6275 0.0
H2429 H 0.50372 0.61807 0.64058 0.0
H2430 H 0.52733 0.66289 0.60269 0.0
H2431 H 0.55628 0.64537 0.5855 0.0
C2432 C 0.35747 0.14368 0.48974 0.0
C2433 C 0.36832 0.15094 0.47249 0.0
C2434 C 0.4419 0.10719 0.48112 0.0
C2435 C 0.42748 0.09335 0.49744 0.0
N2436 N 0.36204 0.0982 0.5149 0.0
N2437 N 0.42524 0.13067 0.45283 0.0
C2438 C 0.38254 0.11174 0.5009 0.0
C2439 C 0.41162 0.12959 0.46861 0.0
N2440 N 0.32316 0.16953 0.49613 0.0
N2441 N 0.48724 0.10255 0.47776 0.0
H2442 H 0.40616 0.14688 0.44385 0.0
H2443 H 0.45324 0.11244 0.44852 0.0
H2444 H 0.51051 0.0911 0.48646 0.0
H2445 H 0.50246 0.11575 0.46738 0.0
H2446 H 0.31604 0.17101 0.50851 0.0
H2447 H 0.30482 0.19314 0.48932 0.0
H2448 H 0.32823 0.10585 0.51777 0.0
H2449 H 0.37749 0.07565 0.52292 0.0
C2450 C 0.24318 0.11376 0.74852 0.0
C2451 C 0.266 0.15652 0.74508 0.0
C2452 C 0.23548 0.13904 0.71523 0.0
C2453 C 0.20956 0.09822 0.71906 0.0
N2454 N 0.18129 1.05894 0.74265 0.0
N2455 N 0.27483 0.21068 0.72337 0.0
C2456 C 0.21197 0.08954 0.73663 0.0
C2457 C 0.25892 0.16884 0.72791 0.0
N2458 N 0.25162 0.09439 0.76322 0.0
N2459 N 0.23958 0.14948 0.6992 0.0
H2460 H 0.29289 0.23239 0.73124 0.0
H2461 H 0.26706 0.22549 0.71223 0.0
H2462 H 0.22315 0.13055 0.69012 0.0
H2463 H 0.26226 0.17397 0.69485 0.0
H2464 H 0.2415 0.06122 0.76602 0.0
H2465 H 0.27263 0.10981 0.77196 0.0
H2466 H 0.17639 1.05417 0.75506 0.0
H2467 H 0.15665 1.04286 0.73537 0.0
C2468 C 0.23474 0.97047 1.00352 0.0
C2469 C 0.20299 1.00628 0.99907 0.0
C2470 C 0.23106 0.98406 0.9692 0.0
C2471 C 0.26013 0.94606 0.97358 0.0
N2472 N 0.2776 0.90038 0.99701 0.0
N2473 N 0.16787 1.03722 0.97499 0.0
C2474 C 0.25829 0.93943 0.99136 0.0
C2475 C 0.20111 1.00975 0.98114 0.0
N2476 N 0.2441 0.96596 1.01966 0.0
N2477 N 0.23229 0.99731 0.95338 0.0
H2478 H 0.14584 1.05574 0.98239 0.0
H2479 H 0.15887 1.03771 0.96273 0.0
H2480 H 0.25107 0.97958 0.94468 0.0
H2481 H 0.21795 1.02755 0.94923 0.0
H2482 H 0.27061 0.94585 1.02411 0.0
H2483 H 0.22769 0.98561 1.02846 0.0
H2484 H 0.27266 0.88859 1.00878 0.0
H2485 H 0.29385 0.87701 0.98941 0.0
C2486 C 0.38617 0.9429 0.23354 0.0
C2487 C 0.35503 0.96048 0.24605 0.0
C2488 C 0.37091 1.03732 0.23087 0.0
C2489 C 0.40481 1.02035 0.21923 0.0
N2490 N 0.44648 0.95263 0.21264 0.0
N2491 N 0.31652 1.02883 0.25376 0.0
C2492 C 0.41229 0.97183 0.22153 0.0
C2493 C 0.34775 1.00903 0.24375 0.0
N2494 N 0.3902 0.89661 0.23262 0.0
N2495 N 0.35791 0.08162 0.22894 0.0
H2496 H 0.29386 1.00927 0.26054 0.0
H2497 H 0.31357 0.06382 0.25565 0.0
H2498 H 0.37317 0.10331 0.22054 0.0
H2499 H 0.32965 0.09609 0.23454 0.0
H2500 H 0.40541 0.87962 0.22291 0.0
H2501 H 0.37517 0.87492 0.24108 0.0
H2502 H 0.45892 0.91991 0.2146 0.0
H2503 H 0.46493 0.9711 0.20409 0.0
C2504 C 0.7591 0.94515 0.73188 0.0
C2505 C 0.76122 0.9527 0.7496 0.0
C2506 C 0.70501 1.01825 0.74171 0.0
C2507 C 0.70803 1.01436 0.72384 0.0
N2508 N 0.74866 0.97172 0.70359 0.0
N2509 N 0.73268 1.00395 0.76984 0.0
C2510 C 0.73837 0.97717 0.71961 0.0
C2511 C 0.73316 0.99158 0.75387 0.0
N2512 N 0.77421 0.90393 0.72644 0.0
N2513 N 0.6722 1.04677 0.74755 0.0
H2514 H 0.74776 0.98382 0.77874 0.0
H2515 H 0.71965 1.03487 0.77403 0.0
H2516 H 0.65131 0.06597 0.73996 0.0
H2517 H 0.66233 1.04752 0.75968 0.0
H2518 H 0.76894 0.89227 0.71458 0.0
H2519 H 0.78586 0.87889 0.73434 0.0
H2520 H 0.77404 0.94968 0.69949 0.0
H2521 H 0.73473 0.99238 0.69462 0.0
C2522 C 0.9197 1.0208 0.47607 0.0
C2523 C 0.9047 1.0341 0.49248 0.0
C2524 C 0.83081 0.991 0.48292 0.0
C2525 C 0.84399 0.9818 0.46595 0.0
N2526 N 0.90486 0.99806 0.4474 0.0
N2527 N 0.83593 1.03748 0.50814 0.0
C2528 C 0.88944 1.00005 0.46297 0.0
C2529 C 0.85743 1.02046 0.49479 0.0
N2530 N 0.96527 1.02569 0.47298 0.0
N2531 N 0.79206 0.96992 0.48833 0.0
H2532 H 0.85242 1.05966 0.51623 0.0
H2533 H 0.80084 1.03415 0.51003 0.0
H2534 H 0.77201 0.94861 0.48096 0.0
H2535 H 0.78233 0.96997 0.50049 0.0
H2536 H 0.98102 1.01223 0.46269 0.0
H2537 H 0.98827 1.03881 0.48157 0.0
H2538 H 0.93408 1.01523 0.4435 0.0
H2539 H 0.88606 0.98246 0.43809 0.0
C2540 C 0.90514 0.15086 0.22067 0.0
C2541 C 0.91546 0.10283 0.22274 0.0
C2542 C 0.87532 0.11698 0.25118 0.0
C2543 C 0.86159 0.16384 0.24866 0.0
N2544 N 0.8602 0.21983 0.22732 0.0
N2545 N 0.89425 1.04121 0.24022 0.0
C2546 C 0.8758 0.17841 0.23229 0.0
C2547 C 0.89619 0.08713 0.23818 0.0
N2548 N 0.92448 0.17171 0.20765 0.0
N2549 N 0.86859 0.09958 0.26628 0.0
H2550 H 0.90638 1.01815 0.23156 0.0
H2551 H 0.87539 1.02644 0.24948 0.0
H2552 H 0.85339 0.11847 0.27551 0.0
H2553 H 0.88162 0.06835 0.27002 0.0
H2554 H 0.92432 0.20689 0.20599 0.0
H2555 H 0.94394 0.15373 0.19919 0.0
H2556 H 0.86276 0.23116 0.2154 0.0
H2557 H 0.84151 0.24149 0.23487 0.0
C2558 C 0.75064 0.11014 0.99609 0.0
C2559 C 0.70105 0.10987 0.99663 0.0
C2560 C 0.71014 0.16251 0.97081 0.0
C2561 C 0.75972 0.16096 0.96988 0.0
N2562 N 0.82389 0.12278 0.98196 0.0
N2563 N 0.63577 0.13379 0.98095 0.0
C2564 C 0.77828 0.13219 0.98284 0.0
C2565 C 0.68217 0.13549 0.98285 0.0
N2566 N 0.77255 0.08867 1.00851 0.0
N2567 N 0.6888 0.1916 0.96042 0.0
H2568 H 0.6144 0.11871 0.98952 0.0
H2569 H 0.61878 0.14471 0.97054 0.0
H2570 H 0.70691 0.20981 0.95169 0.0
H2571 H 0.65428 0.19999 0.96116 0.0
H2572 H 0.80747 0.09195 1.01093 0.0
H2573 H 0.75462 0.07013 1.01716 0.0
H2574 H 0.83953 0.09745 0.98874 0.0
H2575 H 0.84511 0.1365 0.97308 0.0
C2576 C 0.86717 0.61164 0.97171 0.0
C2577 C 0.8607 0.66057 0.973 0.0
C2578 C 0.90579 0.64913 1.00084 0.0
C2579 C 0.90982 0.59982 0.99996 0.0
N2580 N 0.88456 0.53651 0.98356 0.0
N2581 N 0.8737 0.72272 0.99176 0.0
C2582 C 0.88816 0.58266 0.98493 0.0
C2583 C 0.87998 0.67752 0.98852 0.0
N2584 N 0.8533 0.59174 0.95747 0.0
N2585 N 0.92883 0.67016 1.01329 0.0
H2586 H 0.86049 0.74505 0.98313 0.0
H2587 H 0.87941 0.73768 1.00311 0.0
H2588 H 0.94611 0.65174 1.0222 0.0
H2589 H 0.9337 0.70528 1.01421 0.0
H2590 H 0.86181 0.55866 0.95397 0.0
H2591 H 0.83628 0.61016 0.94854 0.0
H2592 H 0.86359 0.52083 0.97494 0.0
H2593 H 0.89819 0.51429 0.99215 0.0
C2594 C 0.73639 0.63643 0.21514 0.0
C2595 C 0.69701 0.60885 0.21934 0.0
C2596 C 0.71907 0.63703 0.24918 0.0
C2597 C 0.75628 0.66736 0.24475 0.0
N2598 N 0.7875 0.70162 0.22066 0.0
N2599 N 0.64773 0.5956 0.24219 0.0
C2600 C 0.76081 0.66793 0.22693 0.0
C2601 C 0.68834 0.61292 0.23693 0.0
N2602 N 0.75267 0.63192 0.19975 0.0
N2603 N 0.71255 0.62999 0.26533 0.0
H2604 H 0.62441 0.57984 0.2343 0.0
H2605 H 0.63487 0.60193 0.25376 0.0
H2606 H 0.73157 0.64745 0.27418 0.0
H2607 H 0.69102 0.60464 0.26982 0.0
H2608 H 0.78383 0.64584 0.19607 0.0
H2609 H 0.7369 0.61057 0.1912 0.0
H2610 H 0.78718 0.70949 0.20834 0.0
H2611 H 0.80485 0.72535 0.22794 0.0
C2612 C 0.72915 0.47708 0.46926 0.0
C2613 C 0.76387 0.44441 0.47383 0.0
C2614 C 0.73728 0.46553 0.50368 0.0
C2615 C 0.70528 0.50091 0.49924 0.0
N2616 N 0.67221 0.53668 0.47565 0.0
N2617 N 0.80134 0.41378 0.49758 0.0
C2618 C 0.70222 0.50497 0.48139 0.0
C2619 C 0.76731 0.44092 0.49166 0.0
N2620 N 0.72014 0.48087 0.45304 0.0
N2621 N 0.73751 0.45258 0.51955 0.0
H2622 H 0.82176 0.39336 0.49019 0.0
H2623 H 0.81208 0.41434 0.50967 0.0
H2624 H 0.71581 0.46729 0.52806 0.0
H2625 H 0.75488 0.42423 0.52389 0.0
H2626 H 0.69262 0.49856 0.44816 0.0
H2627 H 0.73885 0.46337 0.44429 0.0
H2628 H 0.67164 0.54838 0.46376 0.0
H2629 H 0.64885 0.55355 0.48308 0.0
C2630 C 0.90289 0.47648 0.75061 0.0
C2631 C 0.86535 0.44596 0.7463 0.0
C2632 C 0.88536 0.47497 0.71649 0.0
C2633 C 0.92495 0.50294 0.72074 0.0
N2634 N 0.97578 0.51392 0.74354 0.0
N2635 N 0.83042 0.41269 0.72225 0.0
C2636 C 0.93395 0.49897 0.73833 0.0
C2637 C 0.86006 0.44471 0.7284 0.0
N2638 N 0.90984 0.48497 0.76673 0.0
N2639 N 0.87004 0.47788 0.70088 0.0
H2640 H 0.81119 0.39112 0.7296 0.0
H2641 H 0.82768 0.40483 0.70992 0.0
H2642 H 0.88721 0.49744 0.69234 0.0
H2643 H 0.83894 0.46427 0.69684 0.0
H2644 H 0.93197 0.51037 0.77105 0.0
H2645 H 0.89048 0.46904 0.77565 0.0
H2646 H 0.9884 0.50805 0.75521 0.0
H2647 H 1.00032 0.52594 0.73547 0.0
C2648 C 0.29038 0.48015 0.23315 0.0
C2649 C 0.27392 0.46097 0.24854 0.0
C2650 C 0.19558 0.4895 0.23691 0.0
C2651 C 0.21286 0.51229 0.22233 0.0
N2652 N 0.28415 0.53647 0.211 0.0
N2653 N 0.20544 0.45677 0.26444 0.0
C2654 C 0.26237 0.50919 0.22185 0.0
C2655 C 0.225 0.46877 0.2501 0.0
N2656 N 0.33423 0.47012 0.22883 0.0
N2657 N 0.14915 0.48535 0.23795 0.0
H2658 H 0.22394 0.44108 0.27368 0.0
H2659 H 0.17237 0.46605 0.26772 0.0
H2660 H 0.12719 0.49797 0.22902 0.0
H2661 H 0.13268 0.46566 0.24665 0.0
H2662 H 0.34768 0.47775 0.21746 0.0
H2663 H 0.35581 0.45044 0.23603 0.0
H2664 H 0.31958 0.54092 0.21081 0.0
H2665 H 0.26604 0.5584 0.20345 0.0
C2666 C 0.39337 0.52963 0.98068 0.0
C2667 C 0.41208 0.51404 0.99621 0.0
C2668 C 0.37351 0.43803 0.98641 0.0
C2669 C 0.36005 0.45264 0.96996 0.0
N2670 N 0.36887 0.51638 0.95223 0.0
N2671 N 0.42153 0.44534 1.01137 0.0
C2672 C 0.37388 0.49946 0.96748 0.0
C2673 C 0.40227 0.4659 0.99824 0.0
N2674 N 0.3907 0.57551 0.97869 0.0
N2675 N 0.35791 0.39634 0.9912 0.0
H2676 H 0.44073 0.46361 1.01998 0.0
H2677 H 0.42156 0.41014 1.013 0.0
H2678 H 0.33956 0.37445 0.98347 0.0
H2679 H 0.3602 0.38495 1.00313 0.0
H2680 H 0.37192 0.5897 0.96925 0.0
H2681 H 0.40187 0.59882 0.98753 0.0
H2682 H 0.38127 0.54815 0.94873 0.0
H2683 H 0.35617 0.49646 0.94271 0.0
C2684 C 0.36737 0.63504 0.71809 0.0
C2685 C 0.4036 0.60366 0.72239 0.0
C2686 C 0.3792 0.62783 0.75233 0.0
C2687 C 0.34586 0.66223 0.74796 0.0
N2688 N 0.32086 0.7027 0.72417 0.0
N2689 N 0.44821 0.58303 0.74604 0.0
C2690 C 0.34384 0.66612 0.73013 0.0
C2691 C 0.41009 0.60428 0.74021 0.0
N2692 N 0.35422 0.63581 0.70221 0.0
N2693 N 0.38122 0.61574 0.76825 0.0
H2694 H 0.47157 0.56658 0.7385 0.0
H2695 H 0.45885 0.58531 0.75813 0.0
H2696 H 0.36067 0.63117 0.77697 0.0
H2697 H 0.39954 0.58768 0.7724 0.0
H2698 H 0.32501 0.65256 0.6981 0.0
H2699 H 0.37069 0.61624 0.69347 0.0
H2700 H 0.32332 0.71276 0.7121 0.0
H2701 H 0.30437 0.72613 0.73167 0.0
C2702 C 0.25577 0.60942 0.49492 0.0
C2703 C 0.20602 0.60737 0.49529 0.0
C2704 C 0.21457 0.66243 0.4699 0.0
C2705 C 0.26419 0.66216 0.46893 0.0
N2706 N 0.32892 0.62472 0.48084 0.0
N2707 N 0.14061 0.63212 0.47978 0.0
C2708 C 0.28309 0.63287 0.48173 0.0
C2709 C 0.18701 0.63387 0.48168 0.0
N2710 N 0.27819 0.5889 0.50744 0.0
N2711 N 0.19267 0.6922 0.45992 0.0
H2712 H 0.11918 0.61686 0.48827 0.0
H2713 H 0.1236 0.64335 0.46941 0.0
H2714 H 0.21037 0.71148 0.45137 0.0
H2715 H 0.15809 0.70021 0.46085 0.0
H2716 H 0.31309 0.5929 0.50974 0.0
H2717 H 0.2608 0.57081 0.51636 0.0
H2718 H 0.34531 0.59987 0.48761 0.0
H2719 H 0.34965 0.63926 0.47198 0.0
C2720 C 0.39992 0.07239 0.35177 0.0
C2721 C 0.38335 0.1139 0.35795 0.0
C2722 C 0.36451 0.13887 0.33059 0.0
C2723 C 0.36541 0.09272 0.32576 0.0
N2724 N 0.39722 1.01766 0.32949 0.0
N2725 N 0.36305 0.19179 0.35338 0.0
C2726 C 0.38928 0.06049 0.33542 0.0
C2727 C 0.37209 0.14961 0.34721 0.0
N2728 N 0.42209 1.04362 0.36207 0.0
N2729 N 0.35218 0.17088 0.31948 0.0
H2730 H 0.36972 0.19994 0.36553 0.0
H2731 H 0.34851 0.21779 0.34662 0.0
H2732 H 0.34468 0.16153 0.30748 0.0
H2733 H 0.3523 0.20585 0.3218 0.0
H2734 H 0.43673 1.01286 0.35851 0.0
H2735 H 0.42828 1.05296 0.37418 0.0
H2736 H 0.40971 0.99095 0.33646 0.0
H2737 H 0.39167 1.00895 0.31735 0.0
C2738 C 0.29447 0.16054 0.61689 0.0
C2739 C 0.32283 0.15142 0.63042 0.0
C2740 C 0.38622 0.13476 0.61251 0.0
C2741 C 0.35339 0.12688 0.59996 0.0
N2742 N 0.2791 0.14233 0.5885 0.0
N2743 N 0.39882 0.15806 0.6408 0.0
C2744 C 0.30855 0.14439 0.60143 0.0
C2745 C 0.37039 0.15027 0.62788 0.0
N2746 N 0.25404 0.18258 0.61911 0.0
N2747 N 0.43078 0.12279 0.61017 0.0
H2748 H 0.38541 0.16675 0.65216 0.0
H2749 H 0.43441 0.1587 0.64003 0.0
H2750 H 0.44264 0.11181 0.59886 0.0
H2751 H 0.45534 0.12286 0.61938 0.0
H2752 H 0.2323 0.19175 0.60961 0.0
H2753 H 0.24505 0.19574 0.63045 0.0
H2754 H 0.24443 0.15016 0.58927 0.0
H2755 H 0.28975 0.13164 0.57699 0.0
C2756 C 0.25496 0.11411 0.88327 0.0
C2757 C 0.28347 0.15001 0.87772 0.0
C2758 C 0.30996 0.16568 0.90535 0.0
C2759 C 0.29101 0.12324 0.90972 0.0
N2760 N 0.22599 0.07355 0.90678 0.0
N2761 N 0.32565 0.21887 0.88366 0.0
C2762 C 0.25559 0.10408 0.90009 0.0
C2763 C 0.30528 0.17991 0.88902 0.0
N2764 N 0.2312 0.08724 0.87248 0.0
N2765 N 0.34017 0.18624 0.91582 0.0
H2766 H 0.32599 0.22721 0.87137 0.0
H2767 H 0.33997 0.24357 0.89132 0.0
H2768 H 0.34644 0.17264 0.92732 0.0
H2769 H 0.35966 0.21497 0.91313 0.0
H2770 H 0.21431 1.05732 0.87574 0.0
H2771 H 0.22982 0.09399 0.86007 0.0
H2772 H 0.19813 1.05944 0.90052 0.0
H2773 H 0.22711 0.06621 0.91916 0.0
C2774 C 0.31498 0.98571 1.08464 0.0
C2775 C 0.34817 1.00954 1.07552 0.0
C2776 C 0.39725 1.01689 1.09924 0.0
C2777 C 0.35855 1.00644 1.10893 0.0
N2778 N 0.28506 0.9707 0.11168 0.0
N2779 N 0.42667 1.02843 1.07201 0.0
C2780 C 0.31927 0.98594 1.10186 0.0
C2781 C 0.39215 1.01621 1.08214 0.0
N2782 N 0.27871 0.96567 1.07683 0.0
N2783 N 0.43598 1.0341 1.10639 0.0
H2784 H 0.41985 1.03335 1.0597 0.0
H2785 H 0.4609 1.03133 1.07553 0.0
H2786 H 0.44088 1.03422 0.11895 0.0
H2787 H 0.46201 1.04997 1.09994 0.0
H2788 H 0.25337 0.94692 1.08265 0.0
H2789 H 0.27643 0.9647 1.06419 0.0
H2790 H 0.25337 0.95903 1.10749 0.0
H2791 H 0.28895 0.97028 0.12432 0.0
C2792 C 0.75867 0.12524 0.83755 0.0
C2793 C 0.75684 0.07986 0.83208 0.0
C2794 C 0.73415 1.05494 0.85903 0.0
C2795 C 0.75283 0.09618 0.86513 0.0
N2796 N 0.77504 0.17443 0.86059 0.0
N2797 N 0.72633 1.00448 0.8355 0.0
C2798 C 0.76052 0.13341 0.85452 0.0
C2799 C 0.7371 1.04606 0.84208 0.0
N2800 N 0.76353 0.1591 0.82644 0.0
N2801 N 0.71688 1.02388 0.86966 0.0
H2802 H 0.7279 0.99859 0.82299 0.0
H2803 H 0.71565 0.97647 0.8422 0.0
H2804 H 0.71542 1.03099 0.88211 0.0
H2805 H 0.70173 0.99308 0.86618 0.0
H2806 H 0.76298 0.19371 0.82941 0.0
H2807 H 0.76428 0.15151 0.814 0.0
H2808 H 0.78769 0.20045 0.85333 0.0
H2809 H 0.77604 0.1815 0.87303 0.0
C2810 C 0.82074 0.99024 0.61311 0.0
C2811 C 0.77756 1.00653 0.618 0.0
C2812 C 0.74902 0.99832 0.5902 0.0
C2813 C 0.7948 0.99887 0.58506 0.0
N2814 N 0.87264 0.97711 0.59055 0.0
N2815 N 0.69759 1.01835 0.61205 0.0
C2816 C 0.82997 0.98701 0.5962 0.0
C2817 C 0.74012 1.00615 0.6069 0.0
N2818 N 0.85288 0.98056 0.62468 0.0
N2819 N 0.71507 0.9954 0.57879 0.0
H2820 H 0.69035 1.024 0.62429 0.0
H2821 H 0.67036 1.02448 0.60416 0.0
H2822 H 0.72292 0.99186 0.56646 0.0
H2823 H 0.68041 0.99281 0.58159 0.0
H2824 H 0.88513 0.96742 0.62219 0.0
H2825 H 0.8455 0.98323 0.63706 0.0
H2826 H 0.90133 0.97264 0.59791 0.0
H2827 H 0.87894 0.97235 0.57821 0.0
C2828 C 0.94156 1.00105 0.35129 0.0
C2829 C 0.93411 1.01895 0.36699 0.0
C2830 C 0.92044 0.09354 0.35595 0.0
C2831 C 0.90806 0.0712 0.34122 0.0
N2832 N 0.92048 1.00836 0.3227 0.0
N2833 N 0.95717 0.08497 0.3824 0.0
C2834 C 0.92496 1.0268 0.3379 0.0
C2835 C 0.93852 0.0666 0.36863 0.0
N2836 N 0.95707 0.95758 0.34977 0.0
N2837 N 0.91139 0.13878 0.35808 0.0
H2838 H 0.97127 0.06412 0.39135 0.0
H2839 H 0.96232 0.11989 0.3841 0.0
H2840 H 0.89883 0.15868 0.34858 0.0
H2841 H 0.91546 0.15577 0.36918 0.0
H2842 H 0.96345 0.94168 0.33866 0.0
H2843 H 0.96561 0.93881 0.3601 0.0
H2844 H 0.92886 0.97481 0.31981 0.0
H2845 H 0.90824 1.02739 0.31295 0.0
C2846 C 0.78593 0.11375 0.12013 0.0
C2847 C 0.83038 0.10369 0.12566 0.0
C2848 C 0.86039 0.10999 1.0982 0.0
C2849 C 0.81486 0.10608 1.09249 0.0
N2850 N 0.73418 0.11782 1.09698 0.0
N2851 N 0.91164 0.10872 0.12167 0.0
C2852 C 0.77757 0.11428 1.10313 0.0
C2853 C 0.86844 0.10863 0.11523 0.0
N2854 N 0.75202 0.11982 0.13127 0.0
N2855 N 0.89515 0.11048 1.08718 0.0
H2856 H 0.91736 0.10758 0.13419 0.0
H2857 H 0.94139 0.11203 0.1149 0.0
H2858 H 0.88838 0.11153 1.07469 0.0
H2859 H 0.92981 0.11085 1.09018 0.0
H2860 H 0.71843 0.12841 0.12839 0.0
H2861 H 0.75898 0.11893 0.14374 0.0
H2862 H 0.70477 0.11923 1.10402 0.0
H2863 H 0.72758 0.12 1.08456 0.0
C2864 C 0.88825 0.53609 0.86861 0.0
C2865 C 0.87318 0.58009 0.87304 0.0
C2866 C 0.88362 0.60578 0.84519 0.0
C2867 C 0.88193 0.55971 0.84037 0.0
N2868 N 0.90097 0.48216 0.84645 0.0
N2869 N 0.86787 0.66012 0.86682 0.0
C2870 C 0.89227 0.52539 0.85181 0.0
C2871 C 0.87634 0.61651 0.86181 0.0
N2872 N 0.89579 0.5047 0.88048 0.0
N2873 N 0.88734 0.63829 0.83351 0.0
H2874 H 0.86323 0.66861 0.87903 0.0
H2875 H 0.86499 0.68758 0.85895 0.0
H2876 H 0.89072 0.62907 0.82127 0.0
H2877 H 0.89028 0.6731 0.83595 0.0
H2878 H 0.90756 0.47178 0.87835 0.0
H2879 H 0.89258 0.51329 0.89277 0.0
H2880 H 0.90506 0.45422 0.85401 0.0
H2881 H 0.90498 0.47475 0.83412 0.0
C2882 C 0.8237 0.6267 1.08993 0.0
C2883 C 0.78736 0.60743 1.08062 0.0
C2884 C 0.73593 0.61804 1.10345 0.0
C2885 C 0.77514 0.6198 0.11369 0.0
N2886 N 0.85414 0.63954 0.11724 0.0
N2887 N 0.70691 0.59735 1.07655 0.0
C2888 C 0.81823 0.6304 1.10701 0.0
C2889 C 0.74232 0.60916 1.08664 0.0
N2890 N 0.86384 0.63792 1.08254 0.0
N2891 N 0.69336 0.62219 0.10999 0.0
H2892 H 0.71257 0.59051 1.06424 0.0
H2893 H 0.67312 0.59368 1.08028 0.0
H2894 H 0.68856 0.6283 0.12236 0.0
H2895 H 0.66347 0.62364 1.10305 0.0
H2896 H 0.89149 0.6532 1.08854 0.0
H2897 H 0.86767 0.63546 1.06997 0.0
H2898 H 0.88792 0.64316 0.11348 0.0
H2899 H 0.84932 0.64279 0.12977 0.0
C2900 C 0.7539 0.48428 0.35312 0.0
C2901 C 0.75153 0.51875 0.36531 0.0
C2902 C 0.737 0.57623 0.34481 0.0
C2903 C 0.74983 0.54358 0.3329 0.0
N2904 N 0.74793 0.46575 0.32428 0.0
N2905 N 0.72379 0.59198 0.37355 0.0
C2906 C 0.74895 0.49696 0.33665 0.0
C2907 C 0.73605 0.5628 0.36134 0.0
N2908 N 0.76646 0.4411 0.35716 0.0
N2909 N 0.73088 0.62054 0.34038 0.0
H2910 H 0.72397 0.58169 0.38568 0.0
H2911 H 0.71055 0.62441 0.37165 0.0
H2912 H 0.73039 0.63023 0.32821 0.0
H2913 H 0.72654 0.64738 0.34857 0.0
H2914 H 0.77573 0.41655 0.34861 0.0
H2915 H 0.76972 0.43081 0.3692 0.0
H2916 H 0.74491 0.43071 0.32607 0.0
H2917 H 0.74615 0.47615 0.31216 0.0
C2918 C 0.88382 0.47031 0.59125 0.0
C2919 C 0.83808 0.4656 0.58607 0.0
C2920 C 0.81201 0.46542 0.61402 0.0
C2921 C 0.85422 0.48611 0.61838 0.0
N2922 N 0.93442 0.49812 0.61275 0.0
N2923 N 0.76729 0.42843 0.59254 0.0
C2924 C 0.89219 0.48359 0.60766 0.0
C2925 C 0.80529 0.45181 0.5976 0.0
N2926 N 0.9175 0.46758 0.57991 0.0
N2927 N 0.778 0.46202 0.62526 0.0
H2928 H 0.76346 0.41775 0.58049 0.0
H2929 H 0.74233 0.41614 0.60038 0.0
H2930 H 0.78344 0.47078 0.63746 0.0
H2931 H 0.74474 0.45139 0.62251 0.0
H2932 H 0.95235 0.46984 0.58258 0.0
H2933 H 0.9094 0.46005 0.56778 0.0
H2934 H 0.96247 0.50111 0.60509 0.0
H2935 H 0.94109 0.50768 0.62478 0.0
C2936 C 0.23954 0.51113 0.4002 0.0
C2937 C 0.2778 0.49918 0.40981 0.0
C2938 C 0.28044 0.42482 0.3968 0.0
C2939 C 0.2543 0.44309 0.38397 0.0
N2940 N 0.19436 0.49423 0.37589 0.0
N2941 N 0.32634 0.44182 0.42092 0.0
C2942 C 0.22773 0.48263 0.38675 0.0
C2943 C 0.29409 0.45406 0.40974 0.0
N2944 N 0.21816 0.55157 0.40322 0.0
N2945 N 0.29592 0.38139 0.39529 0.0
H2946 H 0.33561 0.4637 0.4305 0.0
H2947 H 0.34347 0.41081 0.4208 0.0
H2948 H 0.28495 0.36124 0.38551 0.0
H2949 H 0.31709 0.36541 0.40366 0.0
H2950 H 0.19047 0.56383 0.39659 0.0
H2951 H 0.22773 0.57214 0.41312 0.0
H2952 H 0.17502 0.52384 0.37661 0.0
H2953 H 0.18469 0.47268 0.36633 0.0
C2954 C 0.36765 0.5156 1.10328 0.0
C2955 C 0.32704 0.52047 1.09392 0.0
C2956 C 0.28088 0.50823 0.118 0.0
C2957 C 0.32033 0.51868 0.12751 0.0
N2958 N 0.40182 0.51934 0.13038 0.0
N2959 N 0.24591 0.51085 1.09109 0.0
C2960 C 0.36421 0.51646 0.12049 0.0
C2961 C 0.28389 0.51173 1.10087 0.0
N2962 N 0.40898 0.51323 1.09566 0.0
N2963 N 0.24055 0.49768 0.12543 0.0
H2964 H 0.24854 0.51215 1.07844 0.0
H2965 H 0.21244 0.50974 1.09535 0.0
H2966 H 0.23793 0.49445 0.13798 0.0
H2967 H 0.21093 0.48792 0.11919 0.0
H2968 H 0.44 0.50814 1.10165 0.0
H2969 H 0.41167 0.51301 1.08303 0.0
H2970 H 0.43536 0.5213 0.12626 0.0
H2971 H 0.39866 0.51963 0.14303 0.0
C2972 C 0.4119 0.52955 0.84223 0.0
C2973 C 0.38902 0.57201 0.84328 0.0
C2974 C 0.40854 0.57662 0.87197 0.0
C2975 C 0.41139 0.52877 0.87172 0.0
N2976 N 0.44163 0.46471 0.8575 0.0
N2977 N 0.37441 0.64132 0.85854 0.0
C2978 C 0.42453 0.5078 0.85699 0.0
C2979 C 0.39149 0.59811 0.85788 0.0
N2980 N 0.41787 0.50937 0.8274 0.0
N2981 N 0.41941 0.60023 0.88579 0.0
H2982 H 0.36242 0.65814 0.84825 0.0
H2983 H 0.37091 0.65965 0.86936 0.0
H2984 H 0.43325 0.58377 0.89588 0.0
H2985 H 0.4194 0.63574 0.88651 0.0
H2986 H 0.43341 0.47786 0.82568 0.0
H2987 H 0.40835 0.52573 0.81667 0.0
H2988 H 0.4501 0.44546 0.84728 0.0
H2989 H 0.4478 0.44899 0.86866 0.0
C2990 C 0.29379 0.65343 0.61044 0.0
C2991 C 0.25325 0.62972 0.60604 0.0
C2992 C 0.22767 0.63322 0.63413 0.0
C2993 C 0.27362 0.64075 0.63857 0.0
N2994 N 0.33584 0.6913 0.63233 0.0
N2995 N 0.17688 0.60523 0.61282 0.0
C2996 C 0.30194 0.66255 0.62714 0.0
C2997 C 0.21759 0.62423 0.61753 0.0
N2998 N 0.3253 0.66397 0.59888 0.0
N2999 N 0.19625 0.62834 0.64611 0.0
H3000 H 0.16911 0.5988 0.60062 0.0
H3001 H 0.15196 0.59467 0.62098 0.0
H3002 H 0.20652 0.63182 0.65824 0.0
H3003 H 0.16127 0.62397 0.64402 0.0
H3004 H 0.35779 0.67688 0.6016 0.0
H3005 H 0.31874 0.65845 0.58652 0.0
H3006 H 0.35662 0.70972 0.62447 0.0
H3007 H 0.33902 0.70062 0.64454 0.0
loop_
_geom_bond_atom_site_label_1
_geom_bond_atom_site_label_2
_geom_bond_distance
_geom_bond_site_symmetry_2
_ccdc_geom_bond_type
Ho0 C3 2.811 . S
Ho0 O20 2.322 . S
Ho0 O22 2.378 . S
Ho0 O23 2.524 . S
Ho0 O24 2.381 . S
Ho0 O25 2.669 . S
Ho0 O27 2.346 . S
Ho0 O31 2.305 . S
Ho1 C12 2.811 . S
Ho1 O21 2.346 . S
Ho1 O25 2.305 . S
Ho1 O26 2.322 . S
Ho1 O28 2.378 . S
Ho1 O29 2.524 . S
Ho1 O30 2.381 . S
Ho1 O31 2.669 . S
C2 O20 1.259 . S
C2 O21 1.268 . S
C3 Ho0 2.811 . S
C3 C4 1.488 . S
C3 O22 1.215 . S
C3 O23 1.289 . S
C4 C3 1.488 . S
C4 C5 1.348 . S
C4 C9 1.413 . S
C5 C4 1.348 . S
C5 C6 1.442 . S
C5 H32 0.930 . S
C6 C5 1.442 . S
C6 C7 1.381 . S
C6 H33 0.931 . S
C7 C6 1.381 . S
C7 C8 1.321 . S
C8 C7 1.321 . S
C8 C9 1.403 . S
C8 H34 0.934 . S
C9 C4 1.413 . S
C9 C8 1.403 . S
C9 H35 0.930 . S
C10 O24 1.275 . S
C10 O25 1.256 . S
C11 O26 1.259 . S
C11 O27 1.268 . S
C12 Ho1 2.811 . S
C12 C13 1.488 . S
C12 O28 1.215 . S
C12 O29 1.289 . S
C13 C12 1.488 . S
C13 C14 1.348 . S
C13 C18 1.413 . S
C14 C13 1.348 . S
C14 C15 1.442 . S
C14 H36 0.930 . S
C15 C14 1.442 . S
C15 C16 1.381 . S
C15 H37 0.931 . S
C16 C15 1.381 . S
C16 C17 1.321 . S
C17 C16 1.321 . S
C17 C18 1.403 . S
C17 H38 0.934 . S
C18 C13 1.413 . S
C18 C17 1.403 . S
C18 H39 0.930 . S
C19 O30 1.275 . S
C19 O31 1.256 . S
O20 Ho0 2.322 . S
O20 C2 1.259 . S
O21 Ho1 2.346 . S
O21 C2 1.268 . S
O22 Ho0 2.378 . S
O22 C3 1.215 . S
O23 Ho0 2.524 . S
O23 C3 1.289 . S
O24 Ho0 2.381 . S
O24 C10 1.275 . S
O25 Ho0 2.669 . S
O25 Ho1 2.305 . S
O25 C10 1.256 . S
O26 Ho1 2.322 . S
O26 C11 1.259 . S
O27 Ho0 2.346 . S
O27 C11 1.268 . S
O28 Ho1 2.378 . S
O28 C12 1.215 . S
O29 Ho1 2.524 . S
O29 C12 1.289 . S
O30 Ho1 2.381 . S
O30 C19 1.275 . S
O31 Ho0 2.305 . S
O31 Ho1 2.669 . S
O31 C19 1.256 . S
H32 C5 0.930 . S
H33 C6 0.931 . S
H34 C8 0.934 . S
H35 C9 0.930 . S
H36 C14 0.930 . S
H37 C15 0.931 . S
H38 C17 0.934 . S
H39 C18 0.930 . S
Ho40 C43 2.811 . S
Ho40 O60 2.322 1_655 S
Ho40 O62 2.378 . S
Ho40 O63 2.524 . S
Ho40 O64 2.381 1_665 S
Ho40 O65 2.669 1_655 S
Ho40 O67 2.346 . S
Ho40 O71 2.305 1_655 S
Ho41 C52 2.811 . S
Ho41 O61 2.346 . S
Ho41 O65 2.305 . S
Ho41 O66 2.322 . S
Ho41 O68 2.378 . S
Ho41 O69 2.524 . S
Ho41 O70 2.381 . S
Ho41 O71 2.669 . S
C42 O60 1.259 . S
C42 O61 1.268 . S
C43 Ho40 2.811 . S
C43 C44 1.488 . S
C43 O62 1.215 . S
C43 O63 1.289 . S
C44 C43 1.488 . S
C44 C45 1.348 . S
C44 C49 1.413 . S
C45 C44 1.348 . S
C45 C46 1.442 . S
C45 H72 0.930 . S
C46 C45 1.442 . S
C46 C47 1.381 . S
C46 H73 0.931 . S
C47 C46 1.381 . S
C47 C48 1.321 . S
C48 C47 1.321 . S
C48 C49 1.403 . S
C48 H74 0.934 . S
C49 C44 1.413 . S
C49 C48 1.403 . S
C49 H75 0.930 . S
C50 O64 1.275 . S
C50 O65 1.256 1_545 S
C51 O66 1.259 . S
C51 O67 1.268 1_455 S
C52 Ho41 2.811 . S
C52 C53 1.488 . S
C52 O68 1.215 . S
C52 O69 1.289 . S
C53 C52 1.488 . S
C53 C54 1.348 1_565 S
C53 C58 1.413 . S
C54 C53 1.348 1_545 S
C54 C55 1.442 . S
C54 H76 0.930 . S
C55 C54 1.442 . S
C55 C56 1.381 1_545 S
C55 H77 0.931 . S
C56 C55 1.381 1_565 S
C56 C57 1.321 . S
C57 C56 1.321 . S
C57 C58 1.403 . S
C57 H78 0.934 . S
C58 C53 1.413 . S
C58 C57 1.403 . S
C58 H79 0.930 . S
C59 O70 1.275 . S
C59 O71 1.256 . S
O60 Ho40 2.322 1_455 S
O60 C42 1.259 . S
O61 Ho41 2.346 . S
O61 C42 1.268 . S
O62 Ho40 2.378 . S
O62 C43 1.215 . S
O63 Ho40 2.524 . S
O63 C43 1.289 . S
O64 Ho40 2.381 1_445 S
O64 C50 1.275 . S
O65 Ho40 2.669 1_455 S
O65 Ho41 2.305 . S
O65 C50 1.256 1_565 S
O66 Ho41 2.322 . S
O66 C51 1.259 . S
O67 Ho40 2.346 . S
O67 C51 1.268 1_655 S
O68 Ho41 2.378 . S
O68 C52 1.215 . S
O69 Ho41 2.524 . S
O69 C52 1.289 . S
O70 Ho41 2.381 . S
O70 C59 1.275 . S
O71 Ho40 2.305 1_455 S
O71 Ho41 2.669 . S
O71 C59 1.256 . S
H72 C45 0.930 . S
H73 C46 0.931 . S
H74 C48 0.934 . S
H75 C49 0.930 . S
H76 C54 0.930 . S
H77 C55 0.931 . S
H78 C57 0.934 . S
H79 C58 0.930 . S
Ho80 C83 2.811 . S
Ho80 O100 2.322 . S
Ho80 O102 2.378 . S
Ho80 O103 2.524 . S
Ho80 O104 2.381 . S
Ho80 O105 2.669 . S
Ho80 O107 2.346 . S
Ho80 O111 2.305 . S
Ho81 C92 2.811 . S
Ho81 O101 2.346 . S
Ho81 O105 2.305 . S
Ho81 O106 2.322 . S
Ho81 O108 2.378 . S
Ho81 O109 2.524 . S
Ho81 O110 2.381 . S
Ho81 O111 2.669 . S
C82 O100 1.259 . S
C82 O101 1.268 . S
C83 Ho80 2.811 . S
C83 C84 1.488 . S
C83 O102 1.215 . S
C83 O103 1.289 . S
C84 C83 1.488 . S
C84 C85 1.348 . S
C84 C89 1.413 . S
C85 C84 1.348 . S
C85 C86 1.442 . S
C85 H112 0.930 . S
C86 C85 1.442 . S
C86 C87 1.381 . S
C86 H113 0.931 . S
C87 C86 1.381 . S
C87 C88 1.321 . S
C88 C87 1.321 . S
C88 C89 1.403 . S
C88 H114 0.934 . S
C89 C84 1.413 . S
C89 C88 1.403 . S
C89 H115 0.930 . S
C90 O104 1.275 . S
C90 O105 1.256 . S
C91 O106 1.259 . S
C91 O107 1.268 . S
C92 Ho81 2.811 . S
C92 C93 1.488 . S
C92 O108 1.215 . S
C92 O109 1.289 . S
C93 C92 1.488 . S
C93 C94 1.348 . S
C93 C98 1.413 . S
C94 C93 1.348 . S
C94 C95 1.442 . S
C94 H116 0.930 . S
C95 C94 1.442 . S
C95 C96 1.381 . S
C95 H117 0.931 . S
C96 C95 1.381 . S
C96 C97 1.321 . S
C97 C96 1.321 . S
C97 C98 1.403 . S
C97 H118 0.934 . S
C98 C93 1.413 . S
C98 C97 1.403 . S
C98 H119 0.930 . S
C99 O110 1.275 . S
C99 O111 1.256 . S
O100 Ho80 2.322 . S
O100 C82 1.259 . S
O101 Ho81 2.346 . S
O101 C82 1.268 . S
O102 Ho80 2.378 . S
O102 C83 1.215 . S
O103 Ho80 2.524 . S
O103 C83 1.289 . S
O104 Ho80 2.381 . S
O104 C90 1.275 . S
O105 Ho80 2.669 . S
O105 Ho81 2.305 . S
O105 C90 1.256 . S
O106 Ho81 2.322 . S
O106 C91 1.259 . S
O107 Ho80 2.346 . S
O107 C91 1.268 . S
O108 Ho81 2.378 . S
O108 C92 1.215 . S
O109 Ho81 2.524 . S
O109 C92 1.289 . S
O110 Ho81 2.381 . S
O110 C99 1.275 . S
O111 Ho80 2.305 . S
O111 Ho81 2.669 . S
O111 C99 1.256 . S
H112 C85 0.930 . S
H113 C86 0.931 . S
H114 C88 0.934 . S
H115 C89 0.930 . S
H116 C94 0.930 . S
H117 C95 0.931 . S
H118 C97 0.934 . S
H119 C98 0.930 . S
Ho120 C123 2.811 . S
Ho120 O140 2.322 . S
Ho120 O142 2.378 . S
Ho120 O143 2.524 . S
Ho120 O144 2.381 1_545 S
Ho120 O145 2.669 . S
Ho120 O147 2.346 . S
Ho120 O151 2.305 . S
Ho121 C132 2.811 . S
Ho121 O141 2.346 . S
Ho121 O145 2.305 . S
Ho121 O146 2.322 . S
Ho121 O148 2.378 . S
Ho121 O149 2.524 . S
Ho121 O150 2.381 . S
Ho121 O151 2.669 . S
C122 O140 1.259 . S
C122 O141 1.268 . S
C123 Ho120 2.811 . S
C123 C124 1.488 . S
C123 O142 1.215 . S
C123 O143 1.289 . S
C124 C123 1.488 . S
C124 C125 1.348 . S
C124 C129 1.413 . S
C125 C124 1.348 . S
C125 C126 1.442 . S
C125 H152 0.930 . S
C126 C125 1.442 . S
C126 C127 1.381 . S
C126 H153 0.931 . S
C127 C126 1.381 . S
C127 C128 1.321 . S
C128 C127 1.321 . S
C128 C129 1.403 . S
C128 H154 0.934 . S
C129 C124 1.413 . S
C129 C128 1.403 . S
C129 H155 0.930 . S
C130 O144 1.275 . S
C130 O145 1.256 1_565 S
C131 O146 1.259 . S
C131 O147 1.268 . S
C132 Ho121 2.811 . S
C132 C133 1.488 . S
C132 O148 1.215 . S
C132 O149 1.289 . S
C133 C132 1.488 . S
C133 C134 1.348 1_545 S
C133 C138 1.413 . S
C134 C133 1.348 1_565 S
C134 C135 1.442 . S
C134 H156 0.930 . S
C135 C134 1.442 . S
C135 C136 1.381 1_565 S
C135 H157 0.931 . S
C136 C135 1.381 1_545 S
C136 C137 1.321 . S
C137 C136 1.321 . S
C137 C138 1.403 . S
C137 H158 0.934 . S
C138 C133 1.413 . S
C138 C137 1.403 . S
C138 H159 0.930 . S
C139 O150 1.275 . S
C139 O151 1.256 . S
O140 Ho120 2.322 . S
O140 C122 1.259 . S
O141 Ho121 2.346 . S
O141 C122 1.268 . S
O142 Ho120 2.378 . S
O142 C123 1.215 . S
O143 Ho120 2.524 . S
O143 C123 1.289 . S
O144 Ho120 2.381 1_565 S
O144 C130 1.275 . S
O145 Ho120 2.669 . S
O145 Ho121 2.305 . S
O145 C130 1.256 1_545 S
O146 Ho121 2.322 . S
O146 C131 1.259 . S
O147 Ho120 2.346 . S
O147 C131 1.268 . S
O148 Ho121 2.378 . S
O148 C132 1.215 . S
O149 Ho121 2.524 . S
O149 C132 1.289 . S
O150 Ho121 2.381 . S
O150 C139 1.275 . S
O151 Ho120 2.305 . S
O151 Ho121 2.669 . S
O151 C139 1.256 . S
H152 C125 0.930 . S
H153 C126 0.931 . S
H154 C128 0.934 . S
H155 C129 0.930 . S
H156 C134 0.930 . S
H157 C135 0.931 . S
H158 C137 0.934 . S
H159 C138 0.930 . S
Ho160 C163 2.811 . S
Ho160 O180 2.322 . S
Ho160 O182 2.378 . S
Ho160 O183 2.524 . S
Ho160 O184 2.381 . S
Ho160 O185 2.669 . S
Ho160 O187 2.346 . S
Ho160 O191 2.305 . S
Ho161 C172 2.811 . S
Ho161 O181 2.346 . S
Ho161 O185 2.305 . S
Ho161 O186 2.322 . S
Ho161 O188 2.378 . S
Ho161 O189 2.524 . S
Ho161 O190 2.381 . S
Ho161 O191 2.669 . S
C162 O180 1.259 . S
C162 O181 1.268 . S
C163 Ho160 2.811 . S
C163 C164 1.488 . S
C163 O182 1.215 . S
C163 O183 1.289 . S
C164 C163 1.488 . S
C164 C165 1.348 . S
C164 C169 1.413 . S
C165 C164 1.348 . S
C165 C166 1.442 . S
C165 H192 0.930 . S
C166 C165 1.442 . S
C166 C167 1.381 . S
C166 H193 0.931 . S
C167 C166 1.381 . S
C167 C168 1.321 . S
C168 C167 1.321 . S
C168 C169 1.403 . S
C168 H194 0.934 . S
C169 C164 1.413 . S
C169 C168 1.403 . S
C169 H195 0.930 . S
C170 O184 1.275 . S
C170 O185 1.256 . S
C171 O186 1.259 . S
C171 O187 1.268 . S
C172 Ho161 2.811 . S
C172 C173 1.488 . S
C172 O188 1.215 . S
C172 O189 1.289 . S
C173 C172 1.488 . S
C173 C174 1.348 . S
C173 C178 1.413 . S
C174 C173 1.348 . S
C174 C175 1.442 . S
C174 H196 0.930 . S
C175 C174 1.442 . S
C175 C176 1.381 . S
C175 H197 0.931 . S
C176 C175 1.381 . S
C176 C177 1.321 . S
C177 C176 1.321 . S
C177 C178 1.403 . S
C177 H198 0.934 . S
C178 C173 1.413 . S
C178 C177 1.403 . S
C178 H199 0.930 . S
C179 O190 1.275 . S
C179 O191 1.256 . S
O180 Ho160 2.322 . S
O180 C162 1.259 . S
O181 Ho161 2.346 . S
O181 C162 1.268 . S
O182 Ho160 2.378 . S
O182 C163 1.215 . S
O183 Ho160 2.524 . S
O183 C163 1.289 . S
O184 Ho160 2.381 . S
O184 C170 1.275 . S
O185 Ho160 2.669 . S
O185 Ho161 2.305 . S
O185 C170 1.256 . S
O186 Ho161 2.322 . S
O186 C171 1.259 . S
O187 Ho160 2.346 . S
O187 C171 1.268 . S
O188 Ho161 2.378 . S
O188 C172 1.215 . S
O189 Ho161 2.524 . S
O189 C172 1.289 . S
O190 Ho161 2.381 . S
O190 C179 1.275 . S
O191 Ho160 2.305 . S
O191 Ho161 2.669 . S
O191 C179 1.256 . S
H192 C165 0.930 . S
H193 C166 0.931 . S
H194 C168 0.934 . S
H195 C169 0.930 . S
H196 C174 0.930 . S
H197 C175 0.931 . S
H198 C177 0.934 . S
H199 C178 0.930 . S
Ho200 C203 2.811 . S
Ho200 O220 2.322 . S
Ho200 O222 2.378 . S
Ho200 O223 2.524 . S
Ho200 O224 2.381 1_565 S
Ho200 O225 2.669 . S
Ho200 O227 2.346 . S
Ho200 O231 2.305 . S
Ho201 C212 2.811 . S
Ho201 O221 2.346 . S
Ho201 O225 2.305 . S
Ho201 O226 2.322 . S
Ho201 O228 2.378 . S
Ho201 O229 2.524 . S
Ho201 O230 2.381 . S
Ho201 O231 2.669 . S
C202 O220 1.259 . S
C202 O221 1.268 . S
C203 Ho200 2.811 . S
C203 C204 1.488 . S
C203 O222 1.215 . S
C203 O223 1.289 . S
C204 C203 1.488 . S
C204 C205 1.348 . S
C204 C209 1.413 . S
C205 C204 1.348 . S
C205 C206 1.442 . S
C205 H232 0.930 . S
C206 C205 1.442 . S
C206 C207 1.381 . S
C206 H233 0.931 . S
C207 C206 1.381 . S
C207 C208 1.321 . S
C208 C207 1.321 . S
C208 C209 1.403 . S
C208 H234 0.934 . S
C209 C204 1.413 . S
C209 C208 1.403 . S
C209 H235 0.930 . S
C210 O224 1.275 . S
C210 O225 1.256 1_545 S
C211 O226 1.259 . S
C211 O227 1.268 . S
C212 Ho201 2.811 . S
C212 C213 1.488 . S
C212 O228 1.215 . S
C212 O229 1.289 . S
C213 C212 1.488 . S
C213 C214 1.348 1_565 S
C213 C218 1.413 . S
C214 C213 1.348 1_545 S
C214 C215 1.442 . S
C214 H236 0.930 . S
C215 C214 1.442 . S
C215 C216 1.381 1_545 S
C215 H237 0.931 . S
C216 C215 1.381 1_565 S
C216 C217 1.321 . S
C217 C216 1.321 . S
C217 C218 1.403 . S
C217 H238 0.934 . S
C218 C213 1.413 . S
C218 C217 1.403 . S
C218 H239 0.930 . S
C219 O230 1.275 . S
C219 O231 1.256 . S
O220 Ho200 2.322 . S
O220 C202 1.259 . S
O221 Ho201 2.346 . S
O221 C202 1.268 . S
O222 Ho200 2.378 . S
O222 C203 1.215 . S
O223 Ho200 2.524 . S
O223 C203 1.289 . S
O224 Ho200 2.381 1_545 S
O224 C210 1.275 . S
O225 Ho200 2.669 . S
O225 Ho201 2.305 . S
O225 C210 1.256 1_565 S
O226 Ho201 2.322 . S
O226 C211 1.259 . S
O227 Ho200 2.346 . S
O227 C211 1.268 . S
O228 Ho201 2.378 . S
O228 C212 1.215 . S
O229 Ho201 2.524 . S
O229 C212 1.289 . S
O230 Ho201 2.381 . S
O230 C219 1.275 . S
O231 Ho200 2.305 . S
O231 Ho201 2.669 . S
O231 C219 1.256 . S
H232 C205 0.930 . S
H233 C206 0.931 . S
H234 C208 0.934 . S
H235 C209 0.930 . S
H236 C214 0.930 . S
H237 C215 0.931 . S
H238 C217 0.934 . S
H239 C218 0.930 . S
Ho240 C243 2.811 . S
Ho240 O260 2.322 . S
Ho240 O262 2.378 . S
Ho240 O263 2.524 . S
Ho240 O264 2.381 . S
Ho240 O265 2.669 . S
Ho240 O267 2.346 . S
Ho240 O271 2.305 . S
Ho241 C252 2.811 . S
Ho241 O261 2.346 . S
Ho241 O265 2.305 . S
Ho241 O266 2.322 . S
Ho241 O268 2.378 . S
Ho241 O269 2.524 . S
Ho241 O270 2.381 . S
Ho241 O271 2.669 . S
C242 O260 1.259 . S
C242 O261 1.268 . S
C243 Ho240 2.811 . S
C243 C244 1.488 . S
C243 O262 1.215 . S
C243 O263 1.289 . S
C244 C243 1.488 . S
C244 C245 1.348 . S
C244 C249 1.413 . S
C245 C244 1.348 . S
C245 C246 1.442 . S
C245 H272 0.930 . S
C246 C245 1.442 . S
C246 C247 1.381 . S
C246 H273 0.931 . S
C247 C246 1.381 . S
C247 C248 1.321 . S
C248 C247 1.321 . S
C248 C249 1.403 . S
C248 H274 0.934 . S
C249 C244 1.413 . S
C249 C248 1.403 . S
C249 H275 0.930 . S
C250 O264 1.275 . S
C250 O265 1.256 . S
C251 O266 1.259 . S
C251 O267 1.268 . S
C252 Ho241 2.811 . S
C252 C253 1.488 . S
C252 O268 1.215 . S
C252 O269 1.289 . S
C253 C252 1.488 . S
C253 C254 1.348 . S
C253 C258 1.413 . S
C254 C253 1.348 . S
C254 C255 1.442 . S
C254 H276 0.930 . S
C255 C254 1.442 . S
C255 C256 1.381 . S
C255 H277 0.931 . S
C256 C255 1.381 . S
C256 C257 1.321 . S
C257 C256 1.321 . S
C257 C258 1.403 . S
C257 H278 0.934 . S
C258 C253 1.413 . S
C258 C257 1.403 . S
C258 H279 0.930 . S
C259 O270 1.275 . S
C259 O271 1.256 . S
O260 Ho240 2.322 . S
O260 C242 1.259 . S
O261 Ho241 2.346 . S
O261 C242 1.268 . S
O262 Ho240 2.378 . S
O262 C243 1.215 . S
O263 Ho240 2.524 . S
O263 C243 1.289 . S
O264 Ho240 2.381 . S
O264 C250 1.275 . S
O265 Ho240 2.669 . S
O265 Ho241 2.305 . S
O265 C250 1.256 . S
O266 Ho241 2.322 . S
O266 C251 1.259 . S
O267 Ho240 2.346 . S
O267 C251 1.268 . S
O268 Ho241 2.378 . S
O268 C252 1.215 . S
O269 Ho241 2.524 . S
O269 C252 1.289 . S
O270 Ho241 2.381 . S
O270 C259 1.275 . S
O271 Ho240 2.305 . S
O271 Ho241 2.669 . S
O271 C259 1.256 . S
H272 C245 0.930 . S
H273 C246 0.931 . S
H274 C248 0.934 . S
H275 C249 0.930 . S
H276 C254 0.930 . S
H277 C255 0.931 . S
H278 C257 0.934 . S
H279 C258 0.930 . S
Ho280 C283 2.811 . S
Ho280 O300 2.322 1_655 S
Ho280 O302 2.378 . S
Ho280 O303 2.524 . S
Ho280 O304 2.381 1_645 S
Ho280 O305 2.669 1_655 S
Ho280 O307 2.346 . S
Ho280 O311 2.305 1_655 S
Ho281 C292 2.811 . S
Ho281 O301 2.346 . S
Ho281 O305 2.305 . S
Ho281 O306 2.322 . S
Ho281 O308 2.378 . S
Ho281 O309 2.524 . S
Ho281 O310 2.381 . S
Ho281 O311 2.669 . S
C282 O300 1.259 . S
C282 O301 1.268 . S
C283 Ho280 2.811 . S
C283 C284 1.488 . S
C283 O302 1.215 . S
C283 O303 1.289 . S
C284 C283 1.488 . S
C284 C285 1.348 . S
C284 C289 1.413 . S
C285 C284 1.348 . S
C285 C286 1.442 . S
C285 H312 0.930 . S
C286 C285 1.442 . S
C286 C287 1.381 . S
C286 H313 0.931 . S
C287 C286 1.381 . S
C287 C288 1.321 . S
C288 C287 1.321 . S
C288 C289 1.403 . S
C288 H314 0.934 . S
C289 C284 1.413 . S
C289 C288 1.403 . S
C289 H315 0.930 . S
C290 O304 1.275 . S
C290 O305 1.256 1_565 S
C291 O306 1.259 . S
C291 O307 1.268 1_455 S
C292 Ho281 2.811 . S
C292 C293 1.488 . S
C292 O308 1.215 . S
C292 O309 1.289 . S
C293 C292 1.488 . S
C293 C294 1.348 1_545 S
C293 C298 1.413 . S
C294 C293 1.348 1_565 S
C294 C295 1.442 . S
C294 H316 0.930 . S
C295 C294 1.442 . S
C295 C296 1.381 1_565 S
C295 H317 0.931 . S
C296 C295 1.381 1_545 S
C296 C297 1.321 . S
C297 C296 1.321 . S
C297 C298 1.403 . S
C297 H318 0.934 . S
C298 C293 1.413 . S
C298 C297 1.403 . S
C298 H319 0.930 . S
C299 O310 1.275 . S
C299 O311 1.256 . S
O300 Ho280 2.322 1_455 S
O300 C282 1.259 . S
O301 Ho281 2.346 . S
O301 C282 1.268 . S
O302 Ho280 2.378 . S
O302 C283 1.215 . S
O303 Ho280 2.524 . S
O303 C283 1.289 . S
O304 Ho280 2.381 1_465 S
O304 C290 1.275 . S
O305 Ho280 2.669 1_455 S
O305 Ho281 2.305 . S
O305 C290 1.256 1_545 S
O306 Ho281 2.322 . S
O306 C291 1.259 . S
O307 Ho280 2.346 . S
O307 C291 1.268 1_655 S
O308 Ho281 2.378 . S
O308 C292 1.215 . S
O309 Ho281 2.524 . S
O309 C292 1.289 . S
O310 Ho281 2.381 . S
O310 C299 1.275 . S
O311 Ho280 2.305 1_455 S
O311 Ho281 2.669 . S
O311 C299 1.256 . S
H312 C285 0.930 . S
H313 C286 0.931 . S
H314 C288 0.934 . S
H315 C289 0.930 . S
H316 C294 0.930 . S
H317 C295 0.931 . S
H318 C297 0.934 . S
H319 C298 0.930 . S
Ho320 C323 2.811 . S
Ho320 O340 2.322 . S
Ho320 O342 2.378 . S
Ho320 O343 2.524 . S
Ho320 O344 2.381 . S
Ho320 O345 2.669 . S
Ho320 O347 2.346 . S
Ho320 O351 2.305 . S
Ho321 C332 2.811 . S
Ho321 O341 2.346 . S
Ho321 O345 2.305 . S
Ho321 O346 2.322 . S
Ho321 O348 2.378 . S
Ho321 O349 2.524 . S
Ho321 O350 2.381 . S
Ho321 O351 2.669 . S
C322 O340 1.259 . S
C322 O341 1.268 . S
C323 Ho320 2.811 . S
C323 C324 1.488 . S
C323 O342 1.215 . S
C323 O343 1.289 . S
C324 C323 1.488 . S
C324 C325 1.348 . S
C324 C329 1.413 . S
C325 C324 1.348 . S
C325 C326 1.442 . S
C325 H352 0.930 . S
C326 C325 1.442 . S
C326 C327 1.381 . S
C326 H353 0.931 . S
C327 C326 1.381 . S
C327 C328 1.321 . S
C328 C327 1.321 . S
C328 C329 1.403 . S
C328 H354 0.934 . S
C329 C324 1.413 . S
C329 C328 1.403 . S
C329 H355 0.930 . S
C330 O344 1.275 . S
C330 O345 1.256 . S
C331 O346 1.259 . S
C331 O347 1.268 . S
C332 Ho321 2.811 . S
C332 C333 1.488 . S
C332 O348 1.215 . S
C332 O349 1.289 . S
C333 C332 1.488 . S
C333 C334 1.348 . S
C333 C338 1.413 . S
C334 C333 1.348 . S
C334 C335 1.442 . S
C334 H356 0.930 . S
C335 C334 1.442 . S
C335 C336 1.381 . S
C335 H357 0.931 . S
C336 C335 1.381 . S
C336 C337 1.321 . S
C337 C336 1.321 . S
C337 C338 1.403 . S
C337 H358 0.934 . S
C338 C333 1.413 . S
C338 C337 1.403 . S
C338 H359 0.930 . S
C339 O350 1.275 . S
C339 O351 1.256 . S
O340 Ho320 2.322 . S
O340 C322 1.259 . S
O341 Ho321 2.346 . S
O341 C322 1.268 . S
O342 Ho320 2.378 . S
O342 C323 1.215 . S
O343 Ho320 2.524 . S
O343 C323 1.289 . S
O344 Ho320 2.381 . S
O344 C330 1.275 . S
O345 Ho320 2.669 . S
O345 Ho321 2.305 . S
O345 C330 1.256 . S
O346 Ho321 2.322 . S
O346 C331 1.259 . S
O347 Ho320 2.346 . S
O347 C331 1.268 . S
O348 Ho321 2.378 . S
O348 C332 1.215 . S
O349 Ho321 2.524 . S
O349 C332 1.289 . S
O350 Ho321 2.381 . S
O350 C339 1.275 . S
O351 Ho320 2.305 . S
O351 Ho321 2.669 . S
O351 C339 1.256 . S
H352 C325 0.930 . S
H353 C326 0.931 . S
H354 C328 0.934 . S
H355 C329 0.930 . S
H356 C334 0.930 . S
H357 C335 0.931 . S
H358 C337 0.934 . S
H359 C338 0.930 . S
Ho360 C363 2.811 . S
Ho360 O380 2.322 . S
Ho360 O382 2.378 . S
Ho360 O383 2.524 . S
Ho360 O384 2.381 . S
Ho360 O385 2.669 . S
Ho360 O387 2.346 . S
Ho360 O391 2.305 . S
Ho361 C372 2.811 . S
Ho361 O381 2.346 . S
Ho361 O385 2.305 1_455 S
Ho361 O386 2.322 1_455 S
Ho361 O388 2.378 . S
Ho361 O389 2.524 . S
Ho361 O390 2.381 1_445 S
Ho361 O391 2.669 1_455 S
C362 O380 1.259 . S
C362 O381 1.268 1_655 S
C363 Ho360 2.811 . S
C363 C364 1.488 . S
C363 O382 1.215 . S
C363 O383 1.289 . S
C364 C363 1.488 . S
C364 C365 1.348 1_545 S
C364 C369 1.413 . S
C365 C364 1.348 1_565 S
C365 C366 1.442 . S
C365 H392 0.930 . S
C366 C365 1.442 . S
C366 C367 1.381 1_565 S
C366 H393 0.931 . S
C367 C366 1.381 1_545 S
C367 C368 1.321 . S
C368 C367 1.321 . S
C368 C369 1.403 . S
C368 H394 0.934 . S
C369 C364 1.413 . S
C369 C368 1.403 . S
C369 H395 0.930 . S
C370 O384 1.275 . S
C370 O385 1.256 . S
C371 O386 1.259 . S
C371 O387 1.268 . S
C372 Ho361 2.811 . S
C372 C373 1.488 . S
C372 O388 1.215 . S
C372 O389 1.289 . S
C373 C372 1.488 . S
C373 C374 1.348 . S
C373 C378 1.413 . S
C374 C373 1.348 . S
C374 C375 1.442 . S
C374 H396 0.930 . S
C375 C374 1.442 . S
C375 C376 1.381 . S
C375 H397 0.931 . S
C376 C375 1.381 . S
C376 C377 1.321 . S
C377 C376 1.321 . S
C377 C378 1.403 . S
C377 H398 0.934 . S
C378 C373 1.413 . S
C378 C377 1.403 . S
C378 H399 0.930 . S
C379 O390 1.275 . S
C379 O391 1.256 1_565 S
O380 Ho360 2.322 . S
O380 C362 1.259 . S
O381 Ho361 2.346 . S
O381 C362 1.268 1_455 S
O382 Ho360 2.378 . S
O382 C363 1.215 . S
O383 Ho360 2.524 . S
O383 C363 1.289 . S
O384 Ho360 2.381 . S
O384 C370 1.275 . S
O385 Ho360 2.669 . S
O385 Ho361 2.305 1_655 S
O385 C370 1.256 . S
O386 Ho361 2.322 1_655 S
O386 C371 1.259 . S
O387 Ho360 2.346 . S
O387 C371 1.268 . S
O388 Ho361 2.378 . S
O388 C372 1.215 . S
O389 Ho361 2.524 . S
O389 C372 1.289 . S
O390 Ho361 2.381 1_665 S
O390 C379 1.275 . S
O391 Ho360 2.305 . S
O391 Ho361 2.669 1_655 S
O391 C379 1.256 1_545 S
H392 C365 0.930 . S
H393 C366 0.931 . S
H394 C368 0.934 . S
H395 C369 0.930 . S
H396 C374 0.930 . S
H397 C375 0.931 . S
H398 C377 0.934 . S
H399 C378 0.930 . S
Ho400 C403 2.811 . S
Ho400 O420 2.322 . S
Ho400 O422 2.378 . S
Ho400 O423 2.524 . S
Ho400 O424 2.381 . S
Ho400 O425 2.669 . S
Ho400 O427 2.346 . S
Ho400 O431 2.305 . S
Ho401 C412 2.811 . S
Ho401 O421 2.346 . S
Ho401 O425 2.305 . S
Ho401 O426 2.322 . S
Ho401 O428 2.378 . S
Ho401 O429 2.524 . S
Ho401 O430 2.381 . S
Ho401 O431 2.669 . S
C402 O420 1.259 . S
C402 O421 1.268 . S
C403 Ho400 2.811 . S
C403 C404 1.488 . S
C403 O422 1.215 . S
C403 O423 1.289 . S
C404 C403 1.488 . S
C404 C405 1.348 . S
C404 C409 1.413 . S
C405 C404 1.348 . S
C405 C406 1.442 . S
C405 H432 0.930 . S
C406 C405 1.442 . S
C406 C407 1.381 . S
C406 H433 0.931 . S
C407 C406 1.381 . S
C407 C408 1.321 . S
C408 C407 1.321 . S
C408 C409 1.403 . S
C408 H434 0.934 . S
C409 C404 1.413 . S
C409 C408 1.403 . S
C409 H435 0.930 . S
C410 O424 1.275 . S
C410 O425 1.256 . S
C411 O426 1.259 . S
C411 O427 1.268 . S
C412 Ho401 2.811 . S
C412 C413 1.488 . S
C412 O428 1.215 . S
C412 O429 1.289 . S
C413 C412 1.488 . S
C413 C414 1.348 . S
C413 C418 1.413 . S
C414 C413 1.348 . S
C414 C415 1.442 . S
C414 H436 0.930 . S
C415 C414 1.442 . S
C415 C416 1.381 . S
C415 H437 0.931 . S
C416 C415 1.381 . S
C416 C417 1.321 . S
C417 C416 1.321 . S
C417 C418 1.403 . S
C417 H438 0.934 . S
C418 C413 1.413 . S
C418 C417 1.403 . S
C418 H439 0.930 . S
C419 O430 1.275 . S
C419 O431 1.256 . S
O420 Ho400 2.322 . S
O420 C402 1.259 . S
O421 Ho401 2.346 . S
O421 C402 1.268 . S
O422 Ho400 2.378 . S
O422 C403 1.215 . S
O423 Ho400 2.524 . S
O423 C403 1.289 . S
O424 Ho400 2.381 . S
O424 C410 1.275 . S
O425 Ho400 2.669 . S
O425 Ho401 2.305 . S
O425 C410 1.256 . S
O426 Ho401 2.322 . S
O426 C411 1.259 . S
O427 Ho400 2.346 . S
O427 C411 1.268 . S
O428 Ho401 2.378 . S
O428 C412 1.215 . S
O429 Ho401 2.524 . S
O429 C412 1.289 . S
O430 Ho401 2.381 . S
O430 C419 1.275 . S
O431 Ho400 2.305 . S
O431 Ho401 2.669 . S
O431 C419 1.256 . S
H432 C405 0.930 . S
H433 C406 0.931 . S
H434 C408 0.934 . S
H435 C409 0.930 . S
H436 C414 0.930 . S
H437 C415 0.931 . S
H438 C417 0.934 . S
H439 C418 0.930 . S
Ho440 C443 2.811 . S
Ho440 O460 2.322 . S
Ho440 O462 2.378 . S
Ho440 O463 2.524 . S
Ho440 O464 2.381 . S
Ho440 O465 2.669 . S
Ho440 O467 2.346 . S
Ho440 O471 2.305 . S
Ho441 C452 2.811 . S
Ho441 O461 2.346 . S
Ho441 O465 2.305 . S
Ho441 O466 2.322 . S
Ho441 O468 2.378 . S
Ho441 O469 2.524 . S
Ho441 O470 2.381 1_565 S
Ho441 O471 2.669 . S
C442 O460 1.259 . S
C442 O461 1.268 . S
C443 Ho440 2.811 . S
C443 C444 1.488 . S
C443 O462 1.215 . S
C443 O463 1.289 . S
C444 C443 1.488 . S
C444 C445 1.348 1_565 S
C444 C449 1.413 . S
C445 C444 1.348 1_545 S
C445 C446 1.442 . S
C445 H472 0.930 . S
C446 C445 1.442 . S
C446 C447 1.381 1_545 S
C446 H473 0.931 . S
C447 C446 1.381 1_565 S
C447 C448 1.321 . S
C448 C447 1.321 . S
C448 C449 1.403 . S
C448 H474 0.934 . S
C449 C444 1.413 . S
C449 C448 1.403 . S
C449 H475 0.930 . S
C450 O464 1.275 . S
C450 O465 1.256 . S
C451 O466 1.259 . S
C451 O467 1.268 . S
C452 Ho441 2.811 . S
C452 C453 1.488 . S
C452 O468 1.215 . S
C452 O469 1.289 . S
C453 C452 1.488 . S
C453 C454 1.348 . S
C453 C458 1.413 . S
C454 C453 1.348 . S
C454 C455 1.442 . S
C454 H476 0.930 . S
C455 C454 1.442 . S
C455 C456 1.381 . S
C455 H477 0.931 . S
C456 C455 1.381 . S
C456 C457 1.321 . S
C457 C456 1.321 . S
C457 C458 1.403 . S
C457 H478 0.934 . S
C458 C453 1.413 . S
C458 C457 1.403 . S
C458 H479 0.930 . S
C459 O470 1.275 . S
C459 O471 1.256 1_545 S
O460 Ho440 2.322 . S
O460 C442 1.259 . S
O461 Ho441 2.346 . S
O461 C442 1.268 . S
O462 Ho440 2.378 . S
O462 C443 1.215 . S
O463 Ho440 2.524 . S
O463 C443 1.289 . S
O464 Ho440 2.381 . S
O464 C450 1.275 . S
O465 Ho440 2.669 . S
O465 Ho441 2.305 . S
O465 C450 1.256 . S
O466 Ho441 2.322 . S
O466 C451 1.259 . S
O467 Ho440 2.346 . S
O467 C451 1.268 . S
O468 Ho441 2.378 . S
O468 C452 1.215 . S
O469 Ho441 2.524 . S
O469 C452 1.289 . S
O470 Ho441 2.381 1_545 S
O470 C459 1.275 . S
O471 Ho440 2.305 . S
O471 Ho441 2.669 . S
O471 C459 1.256 1_565 S
H472 C445 0.930 . S
H473 C446 0.931 . S
H474 C448 0.934 . S
H475 C449 0.930 . S
H476 C454 0.930 . S
H477 C455 0.931 . S
H478 C457 0.934 . S
H479 C458 0.930 . S
Ho480 C483 2.811 . S
Ho480 O500 2.322 . S
Ho480 O502 2.378 . S
Ho480 O503 2.524 . S
Ho480 O504 2.381 . S
Ho480 O505 2.669 . S
Ho480 O507 2.346 . S
Ho480 O511 2.305 . S
Ho481 C492 2.811 . S
Ho481 O501 2.346 . S
Ho481 O505 2.305 . S
Ho481 O506 2.322 . S
Ho481 O508 2.378 . S
Ho481 O509 2.524 . S
Ho481 O510 2.381 . S
Ho481 O511 2.669 . S
C482 O500 1.259 . S
C482 O501 1.268 . S
C483 Ho480 2.811 . S
C483 C484 1.488 . S
C483 O502 1.215 . S
C483 O503 1.289 . S
C484 C483 1.488 . S
C484 C485 1.348 . S
C484 C489 1.413 . S
C485 C484 1.348 . S
C485 C486 1.442 . S
C485 H512 0.930 . S
C486 C485 1.442 . S
C486 C487 1.381 . S
C486 H513 0.931 . S
C487 C486 1.381 . S
C487 C488 1.321 . S
C488 C487 1.321 . S
C488 C489 1.403 . S
C488 H514 0.934 . S
C489 C484 1.413 . S
C489 C488 1.403 . S
C489 H515 0.930 . S
C490 O504 1.275 . S
C490 O505 1.256 . S
C491 O506 1.259 . S
C491 O507 1.268 . S
C492 Ho481 2.811 . S
C492 C493 1.488 . S
C492 O508 1.215 . S
C492 O509 1.289 . S
C493 C492 1.488 . S
C493 C494 1.348 . S
C493 C498 1.413 . S
C494 C493 1.348 . S
C494 C495 1.442 . S
C494 H516 0.930 . S
C495 C494 1.442 . S
C495 C496 1.381 . S
C495 H517 0.931 . S
C496 C495 1.381 . S
C496 C497 1.321 . S
C497 C496 1.321 . S
C497 C498 1.403 . S
C497 H518 0.934 . S
C498 C493 1.413 . S
C498 C497 1.403 . S
C498 H519 0.930 . S
C499 O510 1.275 . S
C499 O511 1.256 . S
O500 Ho480 2.322 . S
O500 C482 1.259 . S
O501 Ho481 2.346 . S
O501 C482 1.268 . S
O502 Ho480 2.378 . S
O502 C483 1.215 . S
O503 Ho480 2.524 . S
O503 C483 1.289 . S
O504 Ho480 2.381 . S
O504 C490 1.275 . S
O505 Ho480 2.669 . S
O505 Ho481 2.305 . S
O505 C490 1.256 . S
O506 Ho481 2.322 . S
O506 C491 1.259 . S
O507 Ho480 2.346 . S
O507 C491 1.268 . S
O508 Ho481 2.378 . S
O508 C492 1.215 . S
O509 Ho481 2.524 . S
O509 C492 1.289 . S
O510 Ho481 2.381 . S
O510 C499 1.275 . S
O511 Ho480 2.305 . S
O511 Ho481 2.669 . S
O511 C499 1.256 . S
H512 C485 0.930 . S
H513 C486 0.931 . S
H514 C488 0.934 . S
H515 C489 0.930 . S
H516 C494 0.930 . S
H517 C495 0.931 . S
H518 C497 0.934 . S
H519 C498 0.930 . S
Ho520 C523 2.811 . S
Ho520 O540 2.322 . S
Ho520 O542 2.378 . S
Ho520 O543 2.524 . S
Ho520 O544 2.381 . S
Ho520 O545 2.669 . S
Ho520 O547 2.346 . S
Ho520 O551 2.305 . S
Ho521 C532 2.811 . S
Ho521 O541 2.346 . S
Ho521 O545 2.305 . S
Ho521 O546 2.322 . S
Ho521 O548 2.378 . S
Ho521 O549 2.524 . S
Ho521 O550 2.381 1_545 S
Ho521 O551 2.669 . S
C522 O540 1.259 . S
C522 O541 1.268 . S
C523 Ho520 2.811 . S
C523 C524 1.488 . S
C523 O542 1.215 . S
C523 O543 1.289 . S
C524 C523 1.488 . S
C524 C525 1.348 1_545 S
C524 C529 1.413 . S
C525 C524 1.348 1_565 S
C525 C526 1.442 . S
C525 H552 0.930 . S
C526 C525 1.442 . S
C526 C527 1.381 1_565 S
C526 H553 0.931 . S
C527 C526 1.381 1_545 S
C527 C528 1.321 . S
C528 C527 1.321 . S
C528 C529 1.403 . S
C528 H554 0.934 . S
C529 C524 1.413 . S
C529 C528 1.403 . S
C529 H555 0.930 . S
C530 O544 1.275 . S
C530 O545 1.256 . S
C531 O546 1.259 . S
C531 O547 1.268 . S
C532 Ho521 2.811 . S
C532 C533 1.488 . S
C532 O548 1.215 . S
C532 O549 1.289 . S
C533 C532 1.488 . S
C533 C534 1.348 . S
C533 C538 1.413 . S
C534 C533 1.348 . S
C534 C535 1.442 . S
C534 H556 0.930 . S
C535 C534 1.442 . S
C535 C536 1.381 . S
C535 H557 0.931 . S
C536 C535 1.381 . S
C536 C537 1.321 . S
C537 C536 1.321 . S
C537 C538 1.403 . S
C537 H558 0.934 . S
C538 C533 1.413 . S
C538 C537 1.403 . S
C538 H559 0.930 . S
C539 O550 1.275 . S
C539 O551 1.256 1_565 S
O540 Ho520 2.322 . S
O540 C522 1.259 . S
O541 Ho521 2.346 . S
O541 C522 1.268 . S
O542 Ho520 2.378 . S
O542 C523 1.215 . S
O543 Ho520 2.524 . S
O543 C523 1.289 . S
O544 Ho520 2.381 . S
O544 C530 1.275 . S
O545 Ho520 2.669 . S
O545 Ho521 2.305 . S
O545 C530 1.256 . S
O546 Ho521 2.322 . S
O546 C531 1.259 . S
O547 Ho520 2.346 . S
O547 C531 1.268 . S
O548 Ho521 2.378 . S
O548 C532 1.215 . S
O549 Ho521 2.524 . S
O549 C532 1.289 . S
O550 Ho521 2.381 1_565 S
O550 C539 1.275 . S
O551 Ho520 2.305 . S
O551 Ho521 2.669 . S
O551 C539 1.256 1_545 S
H552 C525 0.930 . S
H553 C526 0.931 . S
H554 C528 0.934 . S
H555 C529 0.930 . S
H556 C534 0.930 . S
H557 C535 0.931 . S
H558 C537 0.934 . S
H559 C538 0.930 . S
Ho560 C563 2.811 . S
Ho560 O580 2.322 . S
Ho560 O582 2.378 . S
Ho560 O583 2.524 . S
Ho560 O584 2.381 . S
Ho560 O585 2.669 . S
Ho560 O587 2.346 . S
Ho560 O591 2.305 . S
Ho561 C572 2.811 . S
Ho561 O581 2.346 . S
Ho561 O585 2.305 . S
Ho561 O586 2.322 . S
Ho561 O588 2.378 . S
Ho561 O589 2.524 . S
Ho561 O590 2.381 . S
Ho561 O591 2.669 . S
C562 O580 1.259 . S
C562 O581 1.268 . S
C563 Ho560 2.811 . S
C563 C564 1.488 . S
C563 O582 1.215 . S
C563 O583 1.289 . S
C564 C563 1.488 . S
C564 C565 1.348 . S
C564 C569 1.413 . S
C565 C564 1.348 . S
C565 C566 1.442 . S
C565 H592 0.930 . S
C566 C565 1.442 . S
C566 C567 1.381 . S
C566 H593 0.931 . S
C567 C566 1.381 . S
C567 C568 1.321 . S
C568 C567 1.321 . S
C568 C569 1.403 . S
C568 H594 0.934 . S
C569 C564 1.413 . S
C569 C568 1.403 . S
C569 H595 0.930 . S
C570 O584 1.275 . S
C570 O585 1.256 . S
C571 O586 1.259 . S
C571 O587 1.268 . S
C572 Ho561 2.811 . S
C572 C573 1.488 . S
C572 O588 1.215 . S
C572 O589 1.289 . S
C573 C572 1.488 . S
C573 C574 1.348 . S
C573 C578 1.413 . S
C574 C573 1.348 . S
C574 C575 1.442 . S
C574 H596 0.930 . S
C575 C574 1.442 . S
C575 C576 1.381 . S
C575 H597 0.931 . S
C576 C575 1.381 . S
C576 C577 1.321 . S
C577 C576 1.321 . S
C577 C578 1.403 . S
C577 H598 0.934 . S
C578 C573 1.413 . S
C578 C577 1.403 . S
C578 H599 0.930 . S
C579 O590 1.275 . S
C579 O591 1.256 . S
O580 Ho560 2.322 . S
O580 C562 1.259 . S
O581 Ho561 2.346 . S
O581 C562 1.268 . S
O582 Ho560 2.378 . S
O582 C563 1.215 . S
O583 Ho560 2.524 . S
O583 C563 1.289 . S
O584 Ho560 2.381 . S
O584 C570 1.275 . S
O585 Ho560 2.669 . S
O585 Ho561 2.305 . S
O585 C570 1.256 . S
O586 Ho561 2.322 . S
O586 C571 1.259 . S
O587 Ho560 2.346 . S
O587 C571 1.268 . S
O588 Ho561 2.378 . S
O588 C572 1.215 . S
O589 Ho561 2.524 . S
O589 C572 1.289 . S
O590 Ho561 2.381 . S
O590 C579 1.275 . S
O591 Ho560 2.305 . S
O591 Ho561 2.669 . S
O591 C579 1.256 . S
H592 C565 0.930 . S
H593 C566 0.931 . S
H594 C568 0.934 . S
H595 C569 0.930 . S
H596 C574 0.930 . S
H597 C575 0.931 . S
H598 C577 0.934 . S
H599 C578 0.930 . S
Ho600 C603 2.811 . S
Ho600 O620 2.322 . S
Ho600 O622 2.378 . S
Ho600 O623 2.524 . S
Ho600 O624 2.381 . S
Ho600 O625 2.669 . S
Ho600 O627 2.346 . S
Ho600 O631 2.305 . S
Ho601 C612 2.811 . S
Ho601 O621 2.346 . S
Ho601 O625 2.305 1_455 S
Ho601 O626 2.322 1_455 S
Ho601 O628 2.378 . S
Ho601 O629 2.524 . S
Ho601 O630 2.381 1_465 S
Ho601 O631 2.669 1_455 S
C602 O620 1.259 . S
C602 O621 1.268 1_655 S
C603 Ho600 2.811 . S
C603 C604 1.488 . S
C603 O622 1.215 . S
C603 O623 1.289 . S
C604 C603 1.488 . S
C604 C605 1.348 1_565 S
C604 C609 1.413 . S
C605 C604 1.348 1_545 S
C605 C606 1.442 . S
C605 H632 0.930 . S
C606 C605 1.442 . S
C606 C607 1.381 1_545 S
C606 H633 0.931 . S
C607 C606 1.381 1_565 S
C607 C608 1.321 . S
C608 C607 1.321 . S
C608 C609 1.403 . S
C608 H634 0.934 . S
C609 C604 1.413 . S
C609 C608 1.403 . S
C609 H635 0.930 . S
C610 O624 1.275 . S
C610 O625 1.256 . S
C611 O626 1.259 . S
C611 O627 1.268 . S
C612 Ho601 2.811 . S
C612 C613 1.488 . S
C612 O628 1.215 . S
C612 O629 1.289 . S
C613 C612 1.488 . S
C613 C614 1.348 . S
C613 C618 1.413 . S
C614 C613 1.348 . S
C614 C615 1.442 . S
C614 H636 0.930 . S
C615 C614 1.442 . S
C615 C616 1.381 . S
C615 H637 0.931 . S
C616 C615 1.381 . S
C616 C617 1.321 . S
C617 C616 1.321 . S
C617 C618 1.403 . S
C617 H638 0.934 . S
C618 C613 1.413 . S
C618 C617 1.403 . S
C618 H639 0.930 . S
C619 O630 1.275 . S
C619 O631 1.256 1_545 S
O620 Ho600 2.322 . S
O620 C602 1.259 . S
O621 Ho601 2.346 . S
O621 C602 1.268 1_455 S
O622 Ho600 2.378 . S
O622 C603 1.215 . S
O623 Ho600 2.524 . S
O623 C603 1.289 . S
O624 Ho600 2.381 . S
O624 C610 1.275 . S
O625 Ho600 2.669 . S
O625 Ho601 2.305 1_655 S
O625 C610 1.256 . S
O626 Ho601 2.322 1_655 S
O626 C611 1.259 . S
O627 Ho600 2.346 . S
O627 C611 1.268 . S
O628 Ho601 2.378 . S
O628 C612 1.215 . S
O629 Ho601 2.524 . S
O629 C612 1.289 . S
O630 Ho601 2.381 1_645 S
O630 C619 1.275 . S
O631 Ho600 2.305 . S
O631 Ho601 2.669 1_655 S
O631 C619 1.256 1_565 S
H632 C605 0.930 . S
H633 C606 0.931 . S
H634 C608 0.934 . S
H635 C609 0.930 . S
H636 C614 0.930 . S
H637 C615 0.931 . S
H638 C617 0.934 . S
H639 C618 0.930 . S
Ho640 C643 2.811 . S
Ho640 O660 2.322 . S
Ho640 O662 2.378 . S
Ho640 O663 2.524 . S
Ho640 O664 2.381 . S
Ho640 O665 2.669 . S
Ho640 O667 2.346 . S
Ho640 O671 2.305 . S
Ho641 C652 2.811 . S
Ho641 O661 2.346 . S
Ho641 O665 2.305 . S
Ho641 O666 2.322 . S
Ho641 O668 2.378 . S
Ho641 O669 2.524 . S
Ho641 O670 2.381 . S
Ho641 O671 2.669 . S
C642 O660 1.259 . S
C642 O661 1.268 . S
C643 Ho640 2.811 . S
C643 C644 1.488 . S
C643 O662 1.215 . S
C643 O663 1.289 . S
C644 C643 1.488 . S
C644 C645 1.348 . S
C644 C649 1.413 . S
C645 C644 1.348 . S
C645 C646 1.442 . S
C645 H672 0.930 . S
C646 C645 1.442 . S
C646 C647 1.381 . S
C646 H673 0.931 . S
C647 C646 1.381 . S
C647 C648 1.321 . S
C648 C647 1.321 . S
C648 C649 1.403 . S
C648 H674 0.934 . S
C649 C644 1.413 . S
C649 C648 1.403 . S
C649 H675 0.930 . S
C650 O664 1.275 . S
C650 O665 1.256 . S
C651 O666 1.259 . S
C651 O667 1.268 . S
C652 Ho641 2.811 . S
C652 C653 1.488 . S
C652 O668 1.215 . S
C652 O669 1.289 . S
C653 C652 1.488 . S
C653 C654 1.348 . S
C653 C658 1.413 . S
C654 C653 1.348 . S
C654 C655 1.442 . S
C654 H676 0.930 . S
C655 C654 1.442 . S
C655 C656 1.381 . S
C655 H677 0.931 . S
C656 C655 1.381 . S
C656 C657 1.321 . S
C657 C656 1.321 . S
C657 C658 1.403 . S
C657 H678 0.934 . S
C658 C653 1.413 . S
C658 C657 1.403 . S
C658 H679 0.930 . S
C659 O670 1.275 . S
C659 O671 1.256 . S
O660 Ho640 2.322 . S
O660 C642 1.259 . S
O661 Ho641 2.346 . S
O661 C642 1.268 . S
O662 Ho640 2.378 . S
O662 C643 1.215 . S
O663 Ho640 2.524 . S
O663 C643 1.289 . S
O664 Ho640 2.381 . S
O664 C650 1.275 . S
O665 Ho640 2.669 . S
O665 Ho641 2.305 . S
O665 C650 1.256 . S
O666 Ho641 2.322 . S
O666 C651 1.259 . S
O667 Ho640 2.346 . S
O667 C651 1.268 . S
O668 Ho641 2.378 . S
O668 C652 1.215 . S
O669 Ho641 2.524 . S
O669 C652 1.289 . S
O670 Ho641 2.381 . S
O670 C659 1.275 . S
O671 Ho640 2.305 . S
O671 Ho641 2.669 . S
O671 C659 1.256 . S
H672 C645 0.930 . S
H673 C646 0.931 . S
H674 C648 0.934 . S
H675 C649 0.930 . S
H676 C654 0.930 . S
H677 C655 0.931 . S
H678 C657 0.934 . S
H679 C658 0.930 . S
Ho680 C683 2.811 . S
Ho680 O700 2.322 . S
Ho680 O702 2.378 . S
Ho680 O703 2.524 . S
Ho680 O704 2.381 . S
Ho680 O705 2.669 . S
Ho680 O707 2.346 . S
Ho680 O711 2.305 . S
Ho681 C692 2.811 . S
Ho681 O701 2.346 . S
Ho681 O705 2.305 . S
Ho681 O706 2.322 . S
Ho681 O708 2.378 . S
Ho681 O709 2.524 . S
Ho681 O710 2.381 . S
Ho681 O711 2.669 . S
C682 O700 1.259 . S
C682 O701 1.268 . S
C683 Ho680 2.811 . S
C683 C684 1.488 . S
C683 O702 1.215 . S
C683 O703 1.289 . S
C684 C683 1.488 . S
C684 C685 1.348 . S
C684 C689 1.413 . S
C685 C684 1.348 . S
C685 C686 1.442 . S
C685 H712 0.930 . S
C686 C685 1.442 . S
C686 C687 1.381 . S
C686 H713 0.931 . S
C687 C686 1.381 . S
C687 C688 1.321 . S
C688 C687 1.321 . S
C688 C689 1.403 . S
C688 H714 0.934 . S
C689 C684 1.413 . S
C689 C688 1.403 . S
C689 H715 0.930 . S
C690 O704 1.275 . S
C690 O705 1.256 . S
C691 O706 1.259 . S
C691 O707 1.268 . S
C692 Ho681 2.811 . S
C692 C693 1.488 . S
C692 O708 1.215 . S
C692 O709 1.289 . S
C693 C692 1.488 . S
C693 C694 1.348 . S
C693 C698 1.413 . S
C694 C693 1.348 . S
C694 C695 1.442 . S
C694 H716 0.930 . S
C695 C694 1.442 . S
C695 C696 1.381 . S
C695 H717 0.931 . S
C696 C695 1.381 . S
C696 C697 1.321 . S
C697 C696 1.321 . S
C697 C698 1.403 . S
C697 H718 0.934 . S
C698 C693 1.413 . S
C698 C697 1.403 . S
C698 H719 0.930 . S
C699 O710 1.275 . S
C699 O711 1.256 . S
O700 Ho680 2.322 . S
O700 C682 1.259 . S
O701 Ho681 2.346 . S
O701 C682 1.268 . S
O702 Ho680 2.378 . S
O702 C683 1.215 . S
O703 Ho680 2.524 . S
O703 C683 1.289 . S
O704 Ho680 2.381 . S
O704 C690 1.275 . S
O705 Ho680 2.669 . S
O705 Ho681 2.305 . S
O705 C690 1.256 . S
O706 Ho681 2.322 . S
O706 C691 1.259 . S
O707 Ho680 2.346 . S
O707 C691 1.268 . S
O708 Ho681 2.378 . S
O708 C692 1.215 . S
O709 Ho681 2.524 . S
O709 C692 1.289 . S
O710 Ho681 2.381 . S
O710 C699 1.275 . S
O711 Ho680 2.305 . S
O711 Ho681 2.669 . S
O711 C699 1.256 . S
H712 C685 0.930 . S
H713 C686 0.931 . S
H714 C688 0.934 . S
H715 C689 0.930 . S
H716 C694 0.930 . S
H717 C695 0.931 . S
H718 C697 0.934 . S
H719 C698 0.930 . S
Ho720 C723 2.811 . S
Ho720 O740 2.322 . S
Ho720 O742 2.378 . S
Ho720 O743 2.524 . S
Ho720 O744 2.381 . S
Ho720 O745 2.669 . S
Ho720 O747 2.346 . S
Ho720 O751 2.305 . S
Ho721 C732 2.811 . S
Ho721 O741 2.346 . S
Ho721 O745 2.305 . S
Ho721 O746 2.322 . S
Ho721 O748 2.378 . S
Ho721 O749 2.524 . S
Ho721 O750 2.381 . S
Ho721 O751 2.669 . S
C722 O740 1.259 . S
C722 O741 1.268 . S
C723 Ho720 2.811 . S
C723 C724 1.488 . S
C723 O742 1.215 . S
C723 O743 1.289 . S
C724 C723 1.488 . S
C724 C725 1.348 . S
C724 C729 1.413 . S
C725 C724 1.348 . S
C725 C726 1.442 . S
C725 H752 0.930 . S
C726 C725 1.442 . S
C726 C727 1.381 . S
C726 H753 0.931 . S
C727 C726 1.381 . S
C727 C728 1.321 . S
C728 C727 1.321 . S
C728 C729 1.403 . S
C728 H754 0.934 . S
C729 C724 1.413 . S
C729 C728 1.403 . S
C729 H755 0.930 . S
C730 O744 1.275 . S
C730 O745 1.256 . S
C731 O746 1.259 . S
C731 O747 1.268 . S
C732 Ho721 2.811 . S
C732 C733 1.488 . S
C732 O748 1.215 . S
C732 O749 1.289 . S
C733 C732 1.488 . S
C733 C734 1.348 . S
C733 C738 1.413 . S
C734 C733 1.348 . S
C734 C735 1.442 . S
C734 H756 0.930 . S
C735 C734 1.442 . S
C735 C736 1.381 . S
C735 H757 0.931 . S
C736 C735 1.381 . S
C736 C737 1.321 . S
C737 C736 1.321 . S
C737 C738 1.403 . S
C737 H758 0.934 . S
C738 C733 1.413 . S
C738 C737 1.403 . S
C738 H759 0.930 . S
C739 O750 1.275 . S
C739 O751 1.256 . S
O740 Ho720 2.322 . S
O740 C722 1.259 . S
O741 Ho721 2.346 . S
O741 C722 1.268 . S
O742 Ho720 2.378 . S
O742 C723 1.215 . S
O743 Ho720 2.524 . S
O743 C723 1.289 . S
O744 Ho720 2.381 . S
O744 C730 1.275 . S
O745 Ho720 2.669 . S
O745 Ho721 2.305 . S
O745 C730 1.256 . S
O746 Ho721 2.322 . S
O746 C731 1.259 . S
O747 Ho720 2.346 . S
O747 C731 1.268 . S
O748 Ho721 2.378 . S
O748 C732 1.215 . S
O749 Ho721 2.524 . S
O749 C732 1.289 . S
O750 Ho721 2.381 . S
O750 C739 1.275 . S
O751 Ho720 2.305 . S
O751 Ho721 2.669 . S
O751 C739 1.256 . S
H752 C725 0.930 . S
H753 C726 0.931 . S
H754 C728 0.934 . S
H755 C729 0.930 . S
H756 C734 0.930 . S
H757 C735 0.931 . S
H758 C737 0.934 . S
H759 C738 0.930 . S
Ho760 C763 2.811 . S
Ho760 O780 2.322 1_455 S
Ho760 O782 2.378 . S
Ho760 O783 2.524 . S
Ho760 O784 2.381 1_455 S
Ho760 O785 2.669 1_455 S
Ho760 O787 2.346 . S
Ho760 O791 2.305 1_455 S
Ho761 C772 2.811 . S
Ho761 O781 2.346 . S
Ho761 O785 2.305 . S
Ho761 O786 2.322 . S
Ho761 O788 2.378 . S
Ho761 O789 2.524 . S
Ho761 O790 2.381 . S
Ho761 O791 2.669 . S
C762 O780 1.259 . S
C762 O781 1.268 . S
C763 Ho760 2.811 . S
C763 C764 1.488 . S
C763 O782 1.215 . S
C763 O783 1.289 . S
C764 C763 1.488 . S
C764 C765 1.348 . S
C764 C769 1.413 . S
C765 C764 1.348 . S
C765 C766 1.442 . S
C765 H792 0.930 . S
C766 C765 1.442 . S
C766 C767 1.381 . S
C766 H793 0.931 . S
C767 C766 1.381 . S
C767 C768 1.321 . S
C768 C767 1.321 . S
C768 C769 1.403 . S
C768 H794 0.934 . S
C769 C764 1.413 . S
C769 C768 1.403 . S
C769 H795 0.930 . S
C770 O784 1.275 . S
C770 O785 1.256 . S
C771 O786 1.259 . S
C771 O787 1.268 1_655 S
C772 Ho761 2.811 . S
C772 C773 1.488 . S
C772 O788 1.215 . S
C772 O789 1.289 . S
C773 C772 1.488 . S
C773 C774 1.348 . S
C773 C778 1.413 . S
C774 C773 1.348 . S
C774 C775 1.442 . S
C774 H796 0.930 . S
C775 C774 1.442 . S
C775 C776 1.381 . S
C775 H797 0.931 . S
C776 C775 1.381 . S
C776 C777 1.321 . S
C777 C776 1.321 . S
C777 C778 1.403 . S
C777 H798 0.934 . S
C778 C773 1.413 . S
C778 C777 1.403 . S
C778 H799 0.930 . S
C779 O790 1.275 . S
C779 O791 1.256 . S
O780 Ho760 2.322 1_655 S
O780 C762 1.259 . S
O781 Ho761 2.346 . S
O781 C762 1.268 . S
O782 Ho760 2.378 . S
O782 C763 1.215 . S
O783 Ho760 2.524 . S
O783 C763 1.289 . S
O784 Ho760 2.381 1_655 S
O784 C770 1.275 . S
O785 Ho760 2.669 1_655 S
O785 Ho761 2.305 . S
O785 C770 1.256 . S
O786 Ho761 2.322 . S
O786 C771 1.259 . S
O787 Ho760 2.346 . S
O787 C771 1.268 1_455 S
O788 Ho761 2.378 . S
O788 C772 1.215 . S
O789 Ho761 2.524 . S
O789 C772 1.289 . S
O790 Ho761 2.381 . S
O790 C779 1.275 . S
O791 Ho760 2.305 1_655 S
O791 Ho761 2.669 . S
O791 C779 1.256 . S
H792 C765 0.930 . S
H793 C766 0.931 . S
H794 C768 0.934 . S
H795 C769 0.930 . S
H796 C774 0.930 . S
H797 C775 0.931 . S
H798 C777 0.934 . S
H799 C778 0.930 . S
Ho800 C803 2.811 . S
Ho800 O820 2.322 . S
Ho800 O822 2.378 . S
Ho800 O823 2.524 . S
Ho800 O824 2.381 . S
Ho800 O825 2.669 . S
Ho800 O827 2.346 . S
Ho800 O831 2.305 . S
Ho801 C812 2.811 . S
Ho801 O821 2.346 . S
Ho801 O825 2.305 . S
Ho801 O826 2.322 . S
Ho801 O828 2.378 . S
Ho801 O829 2.524 . S
Ho801 O830 2.381 . S
Ho801 O831 2.669 . S
C802 O820 1.259 . S
C802 O821 1.268 . S
C803 Ho800 2.811 . S
C803 C804 1.488 . S
C803 O822 1.215 . S
C803 O823 1.289 . S
C804 C803 1.488 . S
C804 C805 1.348 . S
C804 C809 1.413 . S
C805 C804 1.348 . S
C805 C806 1.442 . S
C805 H832 0.930 . S
C806 C805 1.442 . S
C806 C807 1.381 . S
C806 H833 0.931 . S
C807 C806 1.381 . S
C807 C808 1.321 . S
C808 C807 1.321 . S
C808 C809 1.403 . S
C808 H834 0.934 . S
C809 C804 1.413 . S
C809 C808 1.403 . S
C809 H835 0.930 . S
C810 O824 1.275 . S
C810 O825 1.256 . S
C811 O826 1.259 . S
C811 O827 1.268 . S
C812 Ho801 2.811 . S
C812 C813 1.488 . S
C812 O828 1.215 . S
C812 O829 1.289 . S
C813 C812 1.488 . S
C813 C814 1.348 . S
C813 C818 1.413 . S
C814 C813 1.348 . S
C814 C815 1.442 . S
C814 H836 0.930 . S
C815 C814 1.442 . S
C815 C816 1.381 . S
C815 H837 0.931 . S
C816 C815 1.381 . S
C816 C817 1.321 . S
C817 C816 1.321 . S
C817 C818 1.403 . S
C817 H838 0.934 . S
C818 C813 1.413 . S
C818 C817 1.403 . S
C818 H839 0.930 . S
C819 O830 1.275 . S
C819 O831 1.256 . S
O820 Ho800 2.322 . S
O820 C802 1.259 . S
O821 Ho801 2.346 . S
O821 C802 1.268 . S
O822 Ho800 2.378 . S
O822 C803 1.215 . S
O823 Ho800 2.524 . S
O823 C803 1.289 . S
O824 Ho800 2.381 . S
O824 C810 1.275 . S
O825 Ho800 2.669 . S
O825 Ho801 2.305 . S
O825 C810 1.256 . S
O826 Ho801 2.322 . S
O826 C811 1.259 . S
O827 Ho800 2.346 . S
O827 C811 1.268 . S
O828 Ho801 2.378 . S
O828 C812 1.215 . S
O829 Ho801 2.524 . S
O829 C812 1.289 . S
O830 Ho801 2.381 . S
O830 C819 1.275 . S
O831 Ho800 2.305 . S
O831 Ho801 2.669 . S
O831 C819 1.256 . S
H832 C805 0.930 . S
H833 C806 0.931 . S
H834 C808 0.934 . S
H835 C809 0.930 . S
H836 C814 0.930 . S
H837 C815 0.931 . S
H838 C817 0.934 . S
H839 C818 0.930 . S
Ho840 C843 2.811 . S
Ho840 O860 2.322 1_455 S
Ho840 O862 2.378 . S
Ho840 O863 2.524 . S
Ho840 O864 2.381 1_455 S
Ho840 O865 2.669 1_455 S
Ho840 O867 2.346 . S
Ho840 O871 2.305 1_455 S
Ho841 C852 2.811 . S
Ho841 O861 2.346 . S
Ho841 O865 2.305 . S
Ho841 O866 2.322 . S
Ho841 O868 2.378 . S
Ho841 O869 2.524 . S
Ho841 O870 2.381 . S
Ho841 O871 2.669 . S
C842 O860 1.259 . S
C842 O861 1.268 . S
C843 Ho840 2.811 . S
C843 C844 1.488 . S
C843 O862 1.215 . S
C843 O863 1.289 . S
C844 C843 1.488 . S
C844 C845 1.348 . S
C844 C849 1.413 . S
C845 C844 1.348 . S
C845 C846 1.442 . S
C845 H872 0.930 . S
C846 C845 1.442 . S
C846 C847 1.381 . S
C846 H873 0.931 . S
C847 C846 1.381 . S
C847 C848 1.321 . S
C848 C847 1.321 . S
C848 C849 1.403 . S
C848 H874 0.934 . S
C849 C844 1.413 . S
C849 C848 1.403 . S
C849 H875 0.930 . S
C850 O864 1.275 . S
C850 O865 1.256 . S
C851 O866 1.259 . S
C851 O867 1.268 1_655 S
C852 Ho841 2.811 . S
C852 C853 1.488 . S
C852 O868 1.215 . S
C852 O869 1.289 . S
C853 C852 1.488 . S
C853 C854 1.348 . S
C853 C858 1.413 . S
C854 C853 1.348 . S
C854 C855 1.442 . S
C854 H876 0.930 . S
C855 C854 1.442 . S
C855 C856 1.381 . S
C855 H877 0.931 . S
C856 C855 1.381 . S
C856 C857 1.321 . S
C857 C856 1.321 . S
C857 C858 1.403 . S
C857 H878 0.934 . S
C858 C853 1.413 . S
C858 C857 1.403 . S
C858 H879 0.930 . S
C859 O870 1.275 . S
C859 O871 1.256 . S
O860 Ho840 2.322 1_655 S
O860 C842 1.259 . S
O861 Ho841 2.346 . S
O861 C842 1.268 . S
O862 Ho840 2.378 . S
O862 C843 1.215 . S
O863 Ho840 2.524 . S
O863 C843 1.289 . S
O864 Ho840 2.381 1_655 S
O864 C850 1.275 . S
O865 Ho840 2.669 1_655 S
O865 Ho841 2.305 . S
O865 C850 1.256 . S
O866 Ho841 2.322 . S
O866 C851 1.259 . S
O867 Ho840 2.346 . S
O867 C851 1.268 1_455 S
O868 Ho841 2.378 . S
O868 C852 1.215 . S
O869 Ho841 2.524 . S
O869 C852 1.289 . S
O870 Ho841 2.381 . S
O870 C859 1.275 . S
O871 Ho840 2.305 1_655 S
O871 Ho841 2.669 . S
O871 C859 1.256 . S
H872 C845 0.930 . S
H873 C846 0.931 . S
H874 C848 0.934 . S
H875 C849 0.930 . S
H876 C854 0.930 . S
H877 C855 0.931 . S
H878 C857 0.934 . S
H879 C858 0.930 . S
Ho880 C883 2.811 . S
Ho880 O900 2.322 . S
Ho880 O902 2.378 . S
Ho880 O903 2.524 . S
Ho880 O904 2.381 . S
Ho880 O905 2.669 . S
Ho880 O907 2.346 . S
Ho880 O911 2.305 . S
Ho881 C892 2.811 . S
Ho881 O901 2.346 . S
Ho881 O905 2.305 . S
Ho881 O906 2.322 . S
Ho881 O908 2.378 . S
Ho881 O909 2.524 . S
Ho881 O910 2.381 . S
Ho881 O911 2.669 . S
C882 O900 1.259 . S
C882 O901 1.268 . S
C883 Ho880 2.811 . S
C883 C884 1.488 . S
C883 O902 1.215 . S
C883 O903 1.289 . S
C884 C883 1.488 . S
C884 C885 1.348 . S
C884 C889 1.413 . S
C885 C884 1.348 . S
C885 C886 1.442 . S
C885 H912 0.930 . S
C886 C885 1.442 . S
C886 C887 1.381 . S
C886 H913 0.931 . S
C887 C886 1.381 . S
C887 C888 1.321 . S
C888 C887 1.321 . S
C888 C889 1.403 . S
C888 H914 0.934 . S
C889 C884 1.413 . S
C889 C888 1.403 . S
C889 H915 0.930 . S
C890 O904 1.275 . S
C890 O905 1.256 . S
C891 O906 1.259 . S
C891 O907 1.268 . S
C892 Ho881 2.811 . S
C892 C893 1.488 . S
C892 O908 1.215 . S
C892 O909 1.289 . S
C893 C892 1.488 . S
C893 C894 1.348 . S
C893 C898 1.413 . S
C894 C893 1.348 . S
C894 C895 1.442 . S
C894 H916 0.930 . S
C895 C894 1.442 . S
C895 C896 1.381 . S
C895 H917 0.931 . S
C896 C895 1.381 . S
C896 C897 1.321 . S
C897 C896 1.321 . S
C897 C898 1.403 . S
C897 H918 0.934 . S
C898 C893 1.413 . S
C898 C897 1.403 . S
C898 H919 0.930 . S
C899 O910 1.275 . S
C899 O911 1.256 . S
O900 Ho880 2.322 . S
O900 C882 1.259 . S
O901 Ho881 2.346 . S
O901 C882 1.268 . S
O902 Ho880 2.378 . S
O902 C883 1.215 . S
O903 Ho880 2.524 . S
O903 C883 1.289 . S
O904 Ho880 2.381 . S
O904 C890 1.275 . S
O905 Ho880 2.669 . S
O905 Ho881 2.305 . S
O905 C890 1.256 . S
O906 Ho881 2.322 . S
O906 C891 1.259 . S
O907 Ho880 2.346 . S
O907 C891 1.268 . S
O908 Ho881 2.378 . S
O908 C892 1.215 . S
O909 Ho881 2.524 . S
O909 C892 1.289 . S
O910 Ho881 2.381 . S
O910 C899 1.275 . S
O911 Ho880 2.305 . S
O911 Ho881 2.669 . S
O911 C899 1.256 . S
H912 C885 0.930 . S
H913 C886 0.931 . S
H914 C888 0.934 . S
H915 C889 0.930 . S
H916 C894 0.930 . S
H917 C895 0.931 . S
H918 C897 0.934 . S
H919 C898 0.930 . S
Ho920 C923 2.811 . S
Ho920 O940 2.322 . S
Ho920 O942 2.378 . S
Ho920 O943 2.524 . S
Ho920 O944 2.381 . S
Ho920 O945 2.669 . S
Ho920 O947 2.346 . S
Ho920 O951 2.305 . S
Ho921 C932 2.811 . S
Ho921 O941 2.346 . S
Ho921 O945 2.305 . S
Ho921 O946 2.322 . S
Ho921 O948 2.378 . S
Ho921 O949 2.524 . S
Ho921 O950 2.381 . S
Ho921 O951 2.669 . S
C922 O940 1.259 . S
C922 O941 1.268 . S
C923 Ho920 2.811 . S
C923 C924 1.488 . S
C923 O942 1.215 . S
C923 O943 1.289 . S
C924 C923 1.488 . S
C924 C925 1.348 . S
C924 C929 1.413 . S
C925 C924 1.348 . S
C925 C926 1.442 . S
C925 H952 0.930 . S
C926 C925 1.442 . S
C926 C927 1.381 . S
C926 H953 0.931 . S
C927 C926 1.381 . S
C927 C928 1.321 . S
C928 C927 1.321 . S
C928 C929 1.403 . S
C928 H954 0.934 . S
C929 C924 1.413 . S
C929 C928 1.403 . S
C929 H955 0.930 . S
C930 O944 1.275 . S
C930 O945 1.256 . S
C931 O946 1.259 . S
C931 O947 1.268 . S
C932 Ho921 2.811 . S
C932 C933 1.488 . S
C932 O948 1.215 . S
C932 O949 1.289 . S
C933 C932 1.488 . S
C933 C934 1.348 . S
C933 C938 1.413 . S
C934 C933 1.348 . S
C934 C935 1.442 . S
C934 H956 0.930 . S
C935 C934 1.442 . S
C935 C936 1.381 . S
C935 H957 0.931 . S
C936 C935 1.381 . S
C936 C937 1.321 . S
C937 C936 1.321 . S
C937 C938 1.403 . S
C937 H958 0.934 . S
C938 C933 1.413 . S
C938 C937 1.403 . S
C938 H959 0.930 . S
C939 O950 1.275 . S
C939 O951 1.256 . S
O940 Ho920 2.322 . S
O940 C922 1.259 . S
O941 Ho921 2.346 . S
O941 C922 1.268 . S
O942 Ho920 2.378 . S
O942 C923 1.215 . S
O943 Ho920 2.524 . S
O943 C923 1.289 . S
O944 Ho920 2.381 . S
O944 C930 1.275 . S
O945 Ho920 2.669 . S
O945 Ho921 2.305 . S
O945 C930 1.256 . S
O946 Ho921 2.322 . S
O946 C931 1.259 . S
O947 Ho920 2.346 . S
O947 C931 1.268 . S
O948 Ho921 2.378 . S
O948 C932 1.215 . S
O949 Ho921 2.524 . S
O949 C932 1.289 . S
O950 Ho921 2.381 . S
O950 C939 1.275 . S
O951 Ho920 2.305 . S
O951 Ho921 2.669 . S
O951 C939 1.256 . S
H952 C925 0.930 . S
H953 C926 0.931 . S
H954 C928 0.934 . S
H955 C929 0.930 . S
H956 C934 0.930 . S
H957 C935 0.931 . S
H958 C937 0.934 . S
H959 C938 0.930 . S
Ho960 C963 2.811 . S
Ho960 O980 2.322 . S
Ho960 O982 2.378 . S
Ho960 O983 2.524 . S
Ho960 O984 2.381 . S
Ho960 O985 2.669 . S
Ho960 O987 2.346 . S
Ho960 O991 2.305 . S
Ho961 C972 2.811 . S
Ho961 O981 2.346 . S
Ho961 O985 2.305 . S
Ho961 O986 2.322 . S
Ho961 O988 2.378 . S
Ho961 O989 2.524 . S
Ho961 O990 2.381 . S
Ho961 O991 2.669 . S
C962 O980 1.259 . S
C962 O981 1.268 . S
C963 Ho960 2.811 . S
C963 C964 1.488 . S
C963 O982 1.215 . S
C963 O983 1.289 . S
C964 C963 1.488 . S
C964 C965 1.348 . S
C964 C969 1.413 . S
C965 C964 1.348 . S
C965 C966 1.442 . S
C965 H992 0.930 . S
C966 C965 1.442 . S
C966 C967 1.381 . S
C966 H993 0.931 . S
C967 C966 1.381 . S
C967 C968 1.321 . S
C968 C967 1.321 . S
C968 C969 1.403 . S
C968 H994 0.934 . S
C969 C964 1.413 . S
C969 C968 1.403 . S
C969 H995 0.930 . S
C970 O984 1.275 . S
C970 O985 1.256 . S
C971 O986 1.259 . S
C971 O987 1.268 . S
C972 Ho961 2.811 . S
C972 C973 1.488 . S
C972 O988 1.215 . S
C972 O989 1.289 . S
C973 C972 1.488 . S
C973 C974 1.348 . S
C973 C978 1.413 . S
C974 C973 1.348 . S
C974 C975 1.442 . S
C974 H996 0.930 . S
C975 C974 1.442 . S
C975 C976 1.381 . S
C975 H997 0.931 . S
C976 C975 1.381 . S
C976 C977 1.321 . S
C977 C976 1.321 . S
C977 C978 1.403 . S
C977 H998 0.934 . S
C978 C973 1.413 . S
C978 C977 1.403 . S
C978 H999 0.930 . S
C979 O990 1.275 . S
C979 O991 1.256 . S
O980 Ho960 2.322 . S
O980 C962 1.259 . S
O981 Ho961 2.346 . S
O981 C962 1.268 . S
O982 Ho960 2.378 . S
O982 C963 1.215 . S
O983 Ho960 2.524 . S
O983 C963 1.289 . S
O984 Ho960 2.381 . S
O984 C970 1.275 . S
O985 Ho960 2.669 . S
O985 Ho961 2.305 . S
O985 C970 1.256 . S
O986 Ho961 2.322 . S
O986 C971 1.259 . S
O987 Ho960 2.346 . S
O987 C971 1.268 . S
O988 Ho961 2.378 . S
O988 C972 1.215 . S
O989 Ho961 2.524 . S
O989 C972 1.289 . S
O990 Ho961 2.381 . S
O990 C979 1.275 . S
O991 Ho960 2.305 . S
O991 Ho961 2.669 . S
O991 C979 1.256 . S
H992 C965 0.930 . S
H993 C966 0.931 . S
H994 C968 0.934 . S
H995 C969 0.930 . S
H996 C974 0.930 . S
H997 C975 0.931 . S
H998 C977 0.934 . S
H999 C978 0.930 . S
Ho1000 C1003 2.811 . S
Ho1000 O1020 2.322 . S
Ho1000 O1022 2.378 . S
Ho1000 O1023 2.524 . S
Ho1000 O1024 2.381 . S
Ho1000 O1025 2.669 . S
Ho1000 O1027 2.346 . S
Ho1000 O1031 2.305 . S
Ho1001 C1012 2.811 . S
Ho1001 O1021 2.346 . S
Ho1001 O1025 2.305 . S
Ho1001 O1026 2.322 . S
Ho1001 O1028 2.378 . S
Ho1001 O1029 2.524 . S
Ho1001 O1030 2.381 . S
Ho1001 O1031 2.669 . S
C1002 O1020 1.259 . S
C1002 O1021 1.268 . S
C1003 Ho1000 2.811 . S
C1003 C1004 1.488 . S
C1003 O1022 1.215 . S
C1003 O1023 1.289 . S
C1004 C1003 1.488 . S
C1004 C1005 1.348 . S
C1004 C1009 1.413 . S
C1005 C1004 1.348 . S
C1005 C1006 1.442 . S
C1005 H1032 0.930 . S
C1006 C1005 1.442 . S
C1006 C1007 1.381 . S
C1006 H1033 0.931 . S
C1007 C1006 1.381 . S
C1007 C1008 1.321 . S
C1008 C1007 1.321 . S
C1008 C1009 1.403 . S
C1008 H1034 0.934 . S
C1009 C1004 1.413 . S
C1009 C1008 1.403 . S
C1009 H1035 0.930 . S
C1010 O1024 1.275 . S
C1010 O1025 1.256 . S
C1011 O1026 1.259 . S
C1011 O1027 1.268 . S
C1012 Ho1001 2.811 . S
C1012 C1013 1.488 . S
C1012 O1028 1.215 . S
C1012 O1029 1.289 . S
C1013 C1012 1.488 . S
C1013 C1014 1.348 . S
C1013 C1018 1.413 . S
C1014 C1013 1.348 . S
C1014 C1015 1.442 . S
C1014 H1036 0.930 . S
C1015 C1014 1.442 . S
C1015 C1016 1.381 . S
C1015 H1037 0.931 . S
C1016 C1015 1.381 . S
C1016 C1017 1.321 . S
C1017 C1016 1.321 . S
C1017 C1018 1.403 . S
C1017 H1038 0.934 . S
C1018 C1013 1.413 . S
C1018 C1017 1.403 . S
C1018 H1039 0.930 . S
C1019 O1030 1.275 . S
C1019 O1031 1.256 . S
O1020 Ho1000 2.322 . S
O1020 C1002 1.259 . S
O1021 Ho1001 2.346 . S
O1021 C1002 1.268 . S
O1022 Ho1000 2.378 . S
O1022 C1003 1.215 . S
O1023 Ho1000 2.524 . S
O1023 C1003 1.289 . S
O1024 Ho1000 2.381 . S
O1024 C1010 1.275 . S
O1025 Ho1000 2.669 . S
O1025 Ho1001 2.305 . S
O1025 C1010 1.256 . S
O1026 Ho1001 2.322 . S
O1026 C1011 1.259 . S
O1027 Ho1000 2.346 . S
O1027 C1011 1.268 . S
O1028 Ho1001 2.378 . S
O1028 C1012 1.215 . S
O1029 Ho1001 2.524 . S
O1029 C1012 1.289 . S
O1030 Ho1001 2.381 . S
O1030 C1019 1.275 . S
O1031 Ho1000 2.305 . S
O1031 Ho1001 2.669 . S
O1031 C1019 1.256 . S
H1032 C1005 0.930 . S
H1033 C1006 0.931 . S
H1034 C1008 0.934 . S
H1035 C1009 0.930 . S
H1036 C1014 0.930 . S
H1037 C1015 0.931 . S
H1038 C1017 0.934 . S
H1039 C1018 0.930 . S
Ho1040 C1043 2.811 . S
Ho1040 O1060 2.322 . S
Ho1040 O1062 2.378 . S
Ho1040 O1063 2.524 . S
Ho1040 O1064 2.381 . S
Ho1040 O1065 2.669 . S
Ho1040 O1067 2.346 . S
Ho1040 O1071 2.305 . S
Ho1041 C1052 2.811 . S
Ho1041 O1061 2.346 . S
Ho1041 O1065 2.305 . S
Ho1041 O1066 2.322 . S
Ho1041 O1068 2.378 . S
Ho1041 O1069 2.524 . S
Ho1041 O1070 2.381 . S
Ho1041 O1071 2.669 . S
C1042 O1060 1.259 . S
C1042 O1061 1.268 . S
C1043 Ho1040 2.811 . S
C1043 C1044 1.488 . S
C1043 O1062 1.215 . S
C1043 O1063 1.289 . S
C1044 C1043 1.488 . S
C1044 C1045 1.348 . S
C1044 C1049 1.413 . S
C1045 C1044 1.348 . S
C1045 C1046 1.442 . S
C1045 H1072 0.930 . S
C1046 C1045 1.442 . S
C1046 C1047 1.381 . S
C1046 H1073 0.931 . S
C1047 C1046 1.381 . S
C1047 C1048 1.321 . S
C1048 C1047 1.321 . S
C1048 C1049 1.403 . S
C1048 H1074 0.934 . S
C1049 C1044 1.413 . S
C1049 C1048 1.403 . S
C1049 H1075 0.930 . S
C1050 O1064 1.275 . S
C1050 O1065 1.256 . S
C1051 O1066 1.259 . S
C1051 O1067 1.268 . S
C1052 Ho1041 2.811 . S
C1052 C1053 1.488 . S
C1052 O1068 1.215 . S
C1052 O1069 1.289 . S
C1053 C1052 1.488 . S
C1053 C1054 1.348 . S
C1053 C1058 1.413 . S
C1054 C1053 1.348 . S
C1054 C1055 1.442 . S
C1054 H1076 0.930 . S
C1055 C1054 1.442 . S
C1055 C1056 1.381 . S
C1055 H1077 0.931 . S
C1056 C1055 1.381 . S
C1056 C1057 1.321 . S
C1057 C1056 1.321 . S
C1057 C1058 1.403 . S
C1057 H1078 0.934 . S
C1058 C1053 1.413 . S
C1058 C1057 1.403 . S
C1058 H1079 0.930 . S
C1059 O1070 1.275 . S
C1059 O1071 1.256 . S
O1060 Ho1040 2.322 . S
O1060 C1042 1.259 . S
O1061 Ho1041 2.346 . S
O1061 C1042 1.268 . S
O1062 Ho1040 2.378 . S
O1062 C1043 1.215 . S
O1063 Ho1040 2.524 . S
O1063 C1043 1.289 . S
O1064 Ho1040 2.381 . S
O1064 C1050 1.275 . S
O1065 Ho1040 2.669 . S
O1065 Ho1041 2.305 . S
O1065 C1050 1.256 . S
O1066 Ho1041 2.322 . S
O1066 C1051 1.259 . S
O1067 Ho1040 2.346 . S
O1067 C1051 1.268 . S
O1068 Ho1041 2.378 . S
O1068 C1052 1.215 . S
O1069 Ho1041 2.524 . S
O1069 C1052 1.289 . S
O1070 Ho1041 2.381 . S
O1070 C1059 1.275 . S
O1071 Ho1040 2.305 . S
O1071 Ho1041 2.669 . S
O1071 C1059 1.256 . S
H1072 C1045 0.930 . S
H1073 C1046 0.931 . S
H1074 C1048 0.934 . S
H1075 C1049 0.930 . S
H1076 C1054 0.930 . S
H1077 C1055 0.931 . S
H1078 C1057 0.934 . S
H1079 C1058 0.930 . S
Ho1080 C1083 2.811 . S
Ho1080 O1100 2.322 . S
Ho1080 O1102 2.378 . S
Ho1080 O1103 2.524 . S
Ho1080 O1104 2.381 . S
Ho1080 O1105 2.669 . S
Ho1080 O1107 2.346 . S
Ho1080 O1111 2.305 . S
Ho1081 C1092 2.811 . S
Ho1081 O1101 2.346 . S
Ho1081 O1105 2.305 1_655 S
Ho1081 O1106 2.322 1_655 S
Ho1081 O1108 2.378 . S
Ho1081 O1109 2.524 . S
Ho1081 O1110 2.381 1_655 S
Ho1081 O1111 2.669 1_655 S
C1082 O1100 1.259 . S
C1082 O1101 1.268 1_455 S
C1083 Ho1080 2.811 . S
C1083 C1084 1.488 . S
C1083 O1102 1.215 . S
C1083 O1103 1.289 . S
C1084 C1083 1.488 . S
C1084 C1085 1.348 . S
C1084 C1089 1.413 . S
C1085 C1084 1.348 . S
C1085 C1086 1.442 . S
C1085 H1112 0.930 . S
C1086 C1085 1.442 . S
C1086 C1087 1.381 . S
C1086 H1113 0.931 . S
C1087 C1086 1.381 . S
C1087 C1088 1.321 . S
C1088 C1087 1.321 . S
C1088 C1089 1.403 . S
C1088 H1114 0.934 . S
C1089 C1084 1.413 . S
C1089 C1088 1.403 . S
C1089 H1115 0.930 . S
C1090 O1104 1.275 . S
C1090 O1105 1.256 . S
C1091 O1106 1.259 . S
C1091 O1107 1.268 . S
C1092 Ho1081 2.811 . S
C1092 C1093 1.488 . S
C1092 O1108 1.215 . S
C1092 O1109 1.289 . S
C1093 C1092 1.488 . S
C1093 C1094 1.348 . S
C1093 C1098 1.413 . S
C1094 C1093 1.348 . S
C1094 C1095 1.442 . S
C1094 H1116 0.930 . S
C1095 C1094 1.442 . S
C1095 C1096 1.381 . S
C1095 H1117 0.931 . S
C1096 C1095 1.381 . S
C1096 C1097 1.321 . S
C1097 C1096 1.321 . S
C1097 C1098 1.403 . S
C1097 H1118 0.934 . S
C1098 C1093 1.413 . S
C1098 C1097 1.403 . S
C1098 H1119 0.930 . S
C1099 O1110 1.275 . S
C1099 O1111 1.256 . S
O1100 Ho1080 2.322 . S
O1100 C1082 1.259 . S
O1101 Ho1081 2.346 . S
O1101 C1082 1.268 1_655 S
O1102 Ho1080 2.378 . S
O1102 C1083 1.215 . S
O1103 Ho1080 2.524 . S
O1103 C1083 1.289 . S
O1104 Ho1080 2.381 . S
O1104 C1090 1.275 . S
O1105 Ho1080 2.669 . S
O1105 Ho1081 2.305 1_455 S
O1105 C1090 1.256 . S
O1106 Ho1081 2.322 1_455 S
O1106 C1091 1.259 . S
O1107 Ho1080 2.346 . S
O1107 C1091 1.268 . S
O1108 Ho1081 2.378 . S
O1108 C1092 1.215 . S
O1109 Ho1081 2.524 . S
O1109 C1092 1.289 . S
O1110 Ho1081 2.381 1_455 S
O1110 C1099 1.275 . S
O1111 Ho1080 2.305 . S
O1111 Ho1081 2.669 1_455 S
O1111 C1099 1.256 . S
H1112 C1085 0.930 . S
H1113 C1086 0.931 . S
H1114 C1088 0.934 . S
H1115 C1089 0.930 . S
H1116 C1094 0.930 . S
H1117 C1095 0.931 . S
H1118 C1097 0.934 . S
H1119 C1098 0.930 . S
Ho1120 C1123 2.811 . S
Ho1120 O1140 2.322 . S
Ho1120 O1142 2.378 . S
Ho1120 O1143 2.524 . S
Ho1120 O1144 2.381 . S
Ho1120 O1145 2.669 . S
Ho1120 O1147 2.346 . S
Ho1120 O1151 2.305 . S
Ho1121 C1132 2.811 . S
Ho1121 O1141 2.346 . S
Ho1121 O1145 2.305 . S
Ho1121 O1146 2.322 . S
Ho1121 O1148 2.378 . S
Ho1121 O1149 2.524 . S
Ho1121 O1150 2.381 . S
Ho1121 O1151 2.669 . S
C1122 O1140 1.259 . S
C1122 O1141 1.268 . S
C1123 Ho1120 2.811 . S
C1123 C1124 1.488 . S
C1123 O1142 1.215 . S
C1123 O1143 1.289 . S
C1124 C1123 1.488 . S
C1124 C1125 1.348 . S
C1124 C1129 1.413 . S
C1125 C1124 1.348 . S
C1125 C1126 1.442 . S
C1125 H1152 0.930 . S
C1126 C1125 1.442 . S
C1126 C1127 1.381 . S
C1126 H1153 0.931 . S
C1127 C1126 1.381 . S
C1127 C1128 1.321 . S
C1128 C1127 1.321 . S
C1128 C1129 1.403 . S
C1128 H1154 0.934 . S
C1129 C1124 1.413 . S
C1129 C1128 1.403 . S
C1129 H1155 0.930 . S
C1130 O1144 1.275 . S
C1130 O1145 1.256 . S
C1131 O1146 1.259 . S
C1131 O1147 1.268 . S
C1132 Ho1121 2.811 . S
C1132 C1133 1.488 . S
C1132 O1148 1.215 . S
C1132 O1149 1.289 . S
C1133 C1132 1.488 . S
C1133 C1134 1.348 . S
C1133 C1138 1.413 . S
C1134 C1133 1.348 . S
C1134 C1135 1.442 . S
C1134 H1156 0.930 . S
C1135 C1134 1.442 . S
C1135 C1136 1.381 . S
C1135 H1157 0.931 . S
C1136 C1135 1.381 . S
C1136 C1137 1.321 . S
C1137 C1136 1.321 . S
C1137 C1138 1.403 . S
C1137 H1158 0.934 . S
C1138 C1133 1.413 . S
C1138 C1137 1.403 . S
C1138 H1159 0.930 . S
C1139 O1150 1.275 . S
C1139 O1151 1.256 . S
O1140 Ho1120 2.322 . S
O1140 C1122 1.259 . S
O1141 Ho1121 2.346 . S
O1141 C1122 1.268 . S
O1142 Ho1120 2.378 . S
O1142 C1123 1.215 . S
O1143 Ho1120 2.524 . S
O1143 C1123 1.289 . S
O1144 Ho1120 2.381 . S
O1144 C1130 1.275 . S
O1145 Ho1120 2.669 . S
O1145 Ho1121 2.305 . S
O1145 C1130 1.256 . S
O1146 Ho1121 2.322 . S
O1146 C1131 1.259 . S
O1147 Ho1120 2.346 . S
O1147 C1131 1.268 . S
O1148 Ho1121 2.378 . S
O1148 C1132 1.215 . S
O1149 Ho1121 2.524 . S
O1149 C1132 1.289 . S
O1150 Ho1121 2.381 . S
O1150 C1139 1.275 . S
O1151 Ho1120 2.305 . S
O1151 Ho1121 2.669 . S
O1151 C1139 1.256 . S
H1152 C1125 0.930 . S
H1153 C1126 0.931 . S
H1154 C1128 0.934 . S
H1155 C1129 0.930 . S
H1156 C1134 0.930 . S
H1157 C1135 0.931 . S
H1158 C1137 0.934 . S
H1159 C1138 0.930 . S
Ho1160 C1163 2.811 . S
Ho1160 O1180 2.322 . S
Ho1160 O1182 2.378 . S
Ho1160 O1183 2.524 . S
Ho1160 O1184 2.381 . S
Ho1160 O1185 2.669 . S
Ho1160 O1187 2.346 . S
Ho1160 O1191 2.305 . S
Ho1161 C1172 2.811 . S
Ho1161 O1181 2.346 . S
Ho1161 O1185 2.305 1_655 S
Ho1161 O1186 2.322 1_655 S
Ho1161 O1188 2.378 . S
Ho1161 O1189 2.524 . S
Ho1161 O1190 2.381 1_655 S
Ho1161 O1191 2.669 1_655 S
C1162 O1180 1.259 . S
C1162 O1181 1.268 1_455 S
C1163 Ho1160 2.811 . S
C1163 C1164 1.488 . S
C1163 O1182 1.215 . S
C1163 O1183 1.289 . S
C1164 C1163 1.488 . S
C1164 C1165 1.348 . S
C1164 C1169 1.413 . S
C1165 C1164 1.348 . S
C1165 C1166 1.442 . S
C1165 H1192 0.930 . S
C1166 C1165 1.442 . S
C1166 C1167 1.381 . S
C1166 H1193 0.931 . S
C1167 C1166 1.381 . S
C1167 C1168 1.321 . S
C1168 C1167 1.321 . S
C1168 C1169 1.403 . S
C1168 H1194 0.934 . S
C1169 C1164 1.413 . S
C1169 C1168 1.403 . S
C1169 H1195 0.930 . S
C1170 O1184 1.275 . S
C1170 O1185 1.256 . S
C1171 O1186 1.259 . S
C1171 O1187 1.268 . S
C1172 Ho1161 2.811 . S
C1172 C1173 1.488 . S
C1172 O1188 1.215 . S
C1172 O1189 1.289 . S
C1173 C1172 1.488 . S
C1173 C1174 1.348 . S
C1173 C1178 1.413 . S
C1174 C1173 1.348 . S
C1174 C1175 1.442 . S
C1174 H1196 0.930 . S
C1175 C1174 1.442 . S
C1175 C1176 1.381 . S
C1175 H1197 0.931 . S
C1176 C1175 1.381 . S
C1176 C1177 1.321 . S
C1177 C1176 1.321 . S
C1177 C1178 1.403 . S
C1177 H1198 0.934 . S
C1178 C1173 1.413 . S
C1178 C1177 1.403 . S
C1178 H1199 0.930 . S
C1179 O1190 1.275 . S
C1179 O1191 1.256 . S
O1180 Ho1160 2.322 . S
O1180 C1162 1.259 . S
O1181 Ho1161 2.346 . S
O1181 C1162 1.268 1_655 S
O1182 Ho1160 2.378 . S
O1182 C1163 1.215 . S
O1183 Ho1160 2.524 . S
O1183 C1163 1.289 . S
O1184 Ho1160 2.381 . S
O1184 C1170 1.275 . S
O1185 Ho1160 2.669 . S
O1185 Ho1161 2.305 1_455 S
O1185 C1170 1.256 . S
O1186 Ho1161 2.322 1_455 S
O1186 C1171 1.259 . S
O1187 Ho1160 2.346 . S
O1187 C1171 1.268 . S
O1188 Ho1161 2.378 . S
O1188 C1172 1.215 . S
O1189 Ho1161 2.524 . S
O1189 C1172 1.289 . S
O1190 Ho1161 2.381 1_455 S
O1190 C1179 1.275 . S
O1191 Ho1160 2.305 . S
O1191 Ho1161 2.669 1_455 S
O1191 C1179 1.256 . S
H1192 C1165 0.930 . S
H1193 C1166 0.931 . S
H1194 C1168 0.934 . S
H1195 C1169 0.930 . S
H1196 C1174 0.930 . S
H1197 C1175 0.931 . S
H1198 C1177 0.934 . S
H1199 C1178 0.930 . S
Ho1200 C1203 2.811 . S
Ho1200 O1220 2.322 . S
Ho1200 O1222 2.378 . S
Ho1200 O1223 2.524 . S
Ho1200 O1224 2.381 . S
Ho1200 O1225 2.669 . S
Ho1200 O1227 2.346 . S
Ho1200 O1231 2.305 . S
Ho1201 C1212 2.811 . S
Ho1201 O1221 2.346 . S
Ho1201 O1225 2.305 . S
Ho1201 O1226 2.322 . S
Ho1201 O1228 2.378 . S
Ho1201 O1229 2.524 . S
Ho1201 O1230 2.381 . S
Ho1201 O1231 2.669 . S
C1202 O1220 1.259 . S
C1202 O1221 1.268 . S
C1203 Ho1200 2.811 . S
C1203 C1204 1.488 . S
C1203 O1222 1.215 . S
C1203 O1223 1.289 . S
C1204 C1203 1.488 . S
C1204 C1205 1.348 . S
C1204 C1209 1.413 . S
C1205 C1204 1.348 . S
C1205 C1206 1.442 . S
C1205 H1232 0.930 . S
C1206 C1205 1.442 . S
C1206 C1207 1.381 . S
C1206 H1233 0.931 . S
C1207 C1206 1.381 . S
C1207 C1208 1.321 . S
C1208 C1207 1.321 . S
C1208 C1209 1.403 . S
C1208 H1234 0.934 . S
C1209 C1204 1.413 . S
C1209 C1208 1.403 . S
C1209 H1235 0.930 . S
C1210 O1224 1.275 . S
C1210 O1225 1.256 . S
C1211 O1226 1.259 . S
C1211 O1227 1.268 . S
C1212 Ho1201 2.811 . S
C1212 C1213 1.488 . S
C1212 O1228 1.215 . S
C1212 O1229 1.289 . S
C1213 C1212 1.488 . S
C1213 C1214 1.348 . S
C1213 C1218 1.413 . S
C1214 C1213 1.348 . S
C1214 C1215 1.442 . S
C1214 H1236 0.930 . S
C1215 C1214 1.442 . S
C1215 C1216 1.381 . S
C1215 H1237 0.931 . S
C1216 C1215 1.381 . S
C1216 C1217 1.321 . S
C1217 C1216 1.321 . S
C1217 C1218 1.403 . S
C1217 H1238 0.934 . S
C1218 C1213 1.413 . S
C1218 C1217 1.403 . S
C1218 H1239 0.930 . S
C1219 O1230 1.275 . S
C1219 O1231 1.256 . S
O1220 Ho1200 2.322 . S
O1220 C1202 1.259 . S
O1221 Ho1201 2.346 . S
O1221 C1202 1.268 . S
O1222 Ho1200 2.378 . S
O1222 C1203 1.215 . S
O1223 Ho1200 2.524 . S
O1223 C1203 1.289 . S
O1224 Ho1200 2.381 . S
O1224 C1210 1.275 . S
O1225 Ho1200 2.669 . S
O1225 Ho1201 2.305 . S
O1225 C1210 1.256 . S
O1226 Ho1201 2.322 . S
O1226 C1211 1.259 . S
O1227 Ho1200 2.346 . S
O1227 C1211 1.268 . S
O1228 Ho1201 2.378 . S
O1228 C1212 1.215 . S
O1229 Ho1201 2.524 . S
O1229 C1212 1.289 . S
O1230 Ho1201 2.381 . S
O1230 C1219 1.275 . S
O1231 Ho1200 2.305 . S
O1231 Ho1201 2.669 . S
O1231 C1219 1.256 . S
H1232 C1205 0.930 . S
H1233 C1206 0.931 . S
H1234 C1208 0.934 . S
H1235 C1209 0.930 . S
H1236 C1214 0.930 . S
H1237 C1215 0.931 . S
H1238 C1217 0.934 . S
H1239 C1218 0.930 . S
Ho1240 C1243 2.811 . S
Ho1240 O1260 2.322 . S
Ho1240 O1262 2.378 . S
Ho1240 O1263 2.524 . S
Ho1240 O1264 2.381 . S
Ho1240 O1265 2.669 . S
Ho1240 O1267 2.346 . S
Ho1240 O1271 2.305 . S
Ho1241 C1252 2.811 . S
Ho1241 O1261 2.346 . S
Ho1241 O1265 2.305 . S
Ho1241 O1266 2.322 . S
Ho1241 O1268 2.378 . S
Ho1241 O1269 2.524 . S
Ho1241 O1270 2.381 . S
Ho1241 O1271 2.669 . S
C1242 O1260 1.259 . S
C1242 O1261 1.268 . S
C1243 Ho1240 2.811 . S
C1243 C1244 1.488 . S
C1243 O1262 1.215 . S
C1243 O1263 1.289 . S
C1244 C1243 1.488 . S
C1244 C1245 1.348 . S
C1244 C1249 1.413 . S
C1245 C1244 1.348 . S
C1245 C1246 1.442 . S
C1245 H1272 0.930 . S
C1246 C1245 1.442 . S
C1246 C1247 1.381 . S
C1246 H1273 0.931 . S
C1247 C1246 1.381 . S
C1247 C1248 1.321 . S
C1248 C1247 1.321 . S
C1248 C1249 1.403 . S
C1248 H1274 0.934 . S
C1249 C1244 1.413 . S
C1249 C1248 1.403 . S
C1249 H1275 0.930 . S
C1250 O1264 1.275 . S
C1250 O1265 1.256 . S
C1251 O1266 1.259 . S
C1251 O1267 1.268 . S
C1252 Ho1241 2.811 . S
C1252 C1253 1.488 . S
C1252 O1268 1.215 . S
C1252 O1269 1.289 . S
C1253 C1252 1.488 . S
C1253 C1254 1.348 . S
C1253 C1258 1.413 . S
C1254 C1253 1.348 . S
C1254 C1255 1.442 . S
C1254 H1276 0.930 . S
C1255 C1254 1.442 . S
C1255 C1256 1.381 . S
C1255 H1277 0.931 . S
C1256 C1255 1.381 . S
C1256 C1257 1.321 . S
C1257 C1256 1.321 . S
C1257 C1258 1.403 . S
C1257 H1278 0.934 . S
C1258 C1253 1.413 . S
C1258 C1257 1.403 . S
C1258 H1279 0.930 . S
C1259 O1270 1.275 . S
C1259 O1271 1.256 . S
O1260 Ho1240 2.322 . S
O1260 C1242 1.259 . S
O1261 Ho1241 2.346 . S
O1261 C1242 1.268 . S
O1262 Ho1240 2.378 . S
O1262 C1243 1.215 . S
O1263 Ho1240 2.524 . S
O1263 C1243 1.289 . S
O1264 Ho1240 2.381 . S
O1264 C1250 1.275 . S
O1265 Ho1240 2.669 . S
O1265 Ho1241 2.305 . S
O1265 C1250 1.256 . S
O1266 Ho1241 2.322 . S
O1266 C1251 1.259 . S
O1267 Ho1240 2.346 . S
O1267 C1251 1.268 . S
O1268 Ho1241 2.378 . S
O1268 C1252 1.215 . S
O1269 Ho1241 2.524 . S
O1269 C1252 1.289 . S
O1270 Ho1241 2.381 . S
O1270 C1259 1.275 . S
O1271 Ho1240 2.305 . S
O1271 Ho1241 2.669 . S
O1271 C1259 1.256 . S
H1272 C1245 0.930 . S
H1273 C1246 0.931 . S
H1274 C1248 0.934 . S
H1275 C1249 0.930 . S
H1276 C1254 0.930 . S
H1277 C1255 0.931 . S
H1278 C1257 0.934 . S
H1279 C1258 0.930 . S
C1280 C1281 1.363 . S
C1280 C1286 1.379 . S
C1280 N1288 1.356 . S
C1281 C1280 1.363 . S
C1281 C1287 1.363 . S
C1282 C1283 1.363 . S
C1282 C1287 1.379 . S
C1282 N1289 1.356 . S
C1283 C1282 1.363 . S
C1283 C1286 1.363 . S
N1284 C1286 1.356 . S
N1284 H1296 0.984 . S
N1284 H1297 0.985 . S
N1285 C1287 1.356 . S
N1285 H1290 0.984 . S
N1285 H1291 0.985 . S
C1286 C1280 1.379 . S
C1286 C1283 1.363 . S
C1286 N1284 1.356 . S
C1287 C1281 1.363 . S
C1287 C1282 1.379 . S
C1287 N1285 1.356 . S
N1288 C1280 1.356 . S
N1288 H1294 0.984 . S
N1288 H1295 0.984 . S
N1289 C1282 1.356 . S
N1289 H1292 0.984 . S
N1289 H1293 0.985 . S
H1290 N1285 0.984 . S
H1291 N1285 0.985 . S
H1292 N1289 0.984 . S
H1293 N1289 0.985 . S
H1294 N1288 0.984 . S
H1295 N1288 0.984 . S
H1296 N1284 0.984 . S
H1297 N1284 0.985 . S
C1298 C1299 1.363 . S
C1298 C1304 1.379 . S
C1298 N1306 1.356 . S
C1299 C1298 1.363 . S
C1299 C1305 1.363 . S
C1300 C1301 1.363 . S
C1300 C1305 1.379 . S
C1300 N1307 1.356 . S
C1301 C1300 1.363 . S
C1301 C1304 1.363 . S
N1302 C1304 1.356 . S
N1302 H1314 0.984 . S
N1302 H1315 0.985 . S
N1303 C1305 1.356 . S
N1303 H1308 0.984 . S
N1303 H1309 0.985 . S
C1304 C1298 1.379 . S
C1304 C1301 1.363 . S
C1304 N1302 1.356 . S
C1305 C1299 1.363 . S
C1305 C1300 1.379 . S
C1305 N1303 1.356 . S
N1306 C1298 1.356 . S
N1306 H1312 0.984 . S
N1306 H1313 0.984 . S
N1307 C1300 1.356 . S
N1307 H1310 0.984 . S
N1307 H1311 0.985 . S
H1308 N1303 0.984 . S
H1309 N1303 0.985 . S
H1310 N1307 0.984 . S
H1311 N1307 0.985 . S
H1312 N1306 0.984 . S
H1313 N1306 0.984 . S
H1314 N1302 0.984 . S
H1315 N1302 0.985 . S
C1316 C1317 1.363 . S
C1316 C1322 1.379 . S
C1316 N1324 1.356 . S
C1317 C1316 1.363 . S
C1317 C1323 1.363 . S
C1318 C1319 1.363 . S
C1318 C1323 1.379 . S
C1318 N1325 1.356 . S
C1319 C1318 1.363 . S
C1319 C1322 1.363 . S
N1320 C1322 1.356 . S
N1320 H1332 0.984 . S
N1320 H1333 0.985 . S
N1321 C1323 1.356 . S
N1321 H1326 0.984 . S
N1321 H1327 0.985 . S
C1322 C1316 1.379 . S
C1322 C1319 1.363 . S
C1322 N1320 1.356 . S
C1323 C1317 1.363 . S
C1323 C1318 1.379 . S
C1323 N1321 1.356 . S
N1324 C1316 1.356 . S
N1324 H1330 0.984 . S
N1324 H1331 0.984 . S
N1325 C1318 1.356 . S
N1325 H1328 0.984 . S
N1325 H1329 0.985 . S
H1326 N1321 0.984 . S
H1327 N1321 0.985 . S
H1328 N1325 0.984 . S
H1329 N1325 0.985 . S
H1330 N1324 0.984 . S
H1331 N1324 0.984 . S
H1332 N1320 0.984 . S
H1333 N1320 0.985 . S
C1334 C1335 1.363 . S
C1334 C1340 1.379 . S
C1334 N1342 1.356 . S
C1335 C1334 1.363 . S
C1335 C1341 1.363 . S
C1336 C1337 1.363 . S
C1336 C1341 1.379 . S
C1336 N1343 1.356 . S
C1337 C1336 1.363 . S
C1337 C1340 1.363 . S
N1338 C1340 1.356 . S
N1338 H1350 0.984 . S
N1338 H1351 0.985 . S
N1339 C1341 1.356 . S
N1339 H1344 0.984 . S
N1339 H1345 0.985 . S
C1340 C1334 1.379 . S
C1340 C1337 1.363 . S
C1340 N1338 1.356 . S
C1341 C1335 1.363 . S
C1341 C1336 1.379 . S
C1341 N1339 1.356 . S
N1342 C1334 1.356 . S
N1342 H1348 0.984 . S
N1342 H1349 0.984 . S
N1343 C1336 1.356 . S
N1343 H1346 0.984 . S
N1343 H1347 0.985 . S
H1344 N1339 0.984 . S
H1345 N1339 0.985 . S
H1346 N1343 0.984 . S
H1347 N1343 0.985 . S
H1348 N1342 0.984 . S
H1349 N1342 0.984 . S
H1350 N1338 0.984 . S
H1351 N1338 0.985 . S
C1352 C1353 1.363 . S
C1352 C1358 1.379 . S
C1352 N1360 1.356 . S
C1353 C1352 1.363 . S
C1353 C1359 1.363 . S
C1354 C1355 1.363 . S
C1354 C1359 1.379 . S
C1354 N1361 1.356 . S
C1355 C1354 1.363 . S
C1355 C1358 1.363 . S
N1356 C1358 1.356 . S
N1356 H1368 0.984 . S
N1356 H1369 0.985 . S
N1357 C1359 1.356 . S
N1357 H1362 0.984 . S
N1357 H1363 0.985 . S
C1358 C1352 1.379 . S
C1358 C1355 1.363 . S
C1358 N1356 1.356 . S
C1359 C1353 1.363 . S
C1359 C1354 1.379 . S
C1359 N1357 1.356 . S
N1360 C1352 1.356 . S
N1360 H1366 0.984 . S
N1360 H1367 0.984 . S
N1361 C1354 1.356 . S
N1361 H1364 0.984 . S
N1361 H1365 0.985 . S
H1362 N1357 0.984 . S
H1363 N1357 0.985 . S
H1364 N1361 0.984 . S
H1365 N1361 0.985 . S
H1366 N1360 0.984 . S
H1367 N1360 0.984 . S
H1368 N1356 0.984 . S
H1369 N1356 0.985 . S
C1370 C1371 1.363 . S
C1370 C1376 1.379 . S
C1370 N1378 1.356 . S
C1371 C1370 1.363 . S
C1371 C1377 1.363 . S
C1372 C1373 1.363 . S
C1372 C1377 1.379 . S
C1372 N1379 1.356 . S
C1373 C1372 1.363 . S
C1373 C1376 1.363 . S
N1374 C1376 1.356 . S
N1374 H1386 0.984 . S
N1374 H1387 0.985 . S
N1375 C1377 1.356 . S
N1375 H1380 0.984 . S
N1375 H1381 0.985 . S
C1376 C1370 1.379 . S
C1376 C1373 1.363 . S
C1376 N1374 1.356 . S
C1377 C1371 1.363 . S
C1377 C1372 1.379 . S
C1377 N1375 1.356 . S
N1378 C1370 1.356 . S
N1378 H1384 0.984 . S
N1378 H1385 0.984 . S
N1379 C1372 1.356 . S
N1379 H1382 0.984 . S
N1379 H1383 0.985 . S
H1380 N1375 0.984 . S
H1381 N1375 0.985 . S
H1382 N1379 0.984 . S
H1383 N1379 0.985 . S
H1384 N1378 0.984 . S
H1385 N1378 0.984 . S
H1386 N1374 0.984 . S
H1387 N1374 0.985 . S
C1388 C1389 1.363 . S
C1388 C1394 1.379 . S
C1388 N1396 1.356 . S
C1389 C1388 1.363 . S
C1389 C1395 1.363 . S
C1390 C1391 1.363 . S
C1390 C1395 1.379 . S
C1390 N1397 1.356 . S
C1391 C1390 1.363 . S
C1391 C1394 1.363 . S
N1392 C1394 1.356 . S
N1392 H1404 0.984 . S
N1392 H1405 0.985 . S
N1393 C1395 1.356 . S
N1393 H1398 0.984 . S
N1393 H1399 0.985 . S
C1394 C1388 1.379 . S
C1394 C1391 1.363 . S
C1394 N1392 1.356 . S
C1395 C1389 1.363 . S
C1395 C1390 1.379 . S
C1395 N1393 1.356 . S
N1396 C1388 1.356 . S
N1396 H1402 0.984 . S
N1396 H1403 0.984 . S
N1397 C1390 1.356 . S
N1397 H1400 0.984 . S
N1397 H1401 0.985 . S
H1398 N1393 0.984 . S
H1399 N1393 0.985 . S
H1400 N1397 0.984 . S
H1401 N1397 0.985 . S
H1402 N1396 0.984 . S
H1403 N1396 0.984 . S
H1404 N1392 0.984 . S
H1405 N1392 0.985 . S
C1406 C1407 1.363 . S
C1406 C1412 1.379 . S
C1406 N1414 1.356 . S
C1407 C1406 1.363 . S
C1407 C1413 1.363 . S
C1408 C1409 1.363 . S
C1408 C1413 1.379 . S
C1408 N1415 1.356 . S
C1409 C1408 1.363 . S
C1409 C1412 1.363 . S
N1410 C1412 1.356 . S
N1410 H1422 0.984 . S
N1410 H1423 0.985 . S
N1411 C1413 1.356 . S
N1411 H1416 0.984 . S
N1411 H1417 0.985 . S
C1412 C1406 1.379 . S
C1412 C1409 1.363 . S
C1412 N1410 1.356 . S
C1413 C1407 1.363 . S
C1413 C1408 1.379 . S
C1413 N1411 1.356 . S
N1414 C1406 1.356 . S
N1414 H1420 0.984 . S
N1414 H1421 0.984 . S
N1415 C1408 1.356 . S
N1415 H1418 0.984 . S
N1415 H1419 0.985 . S
H1416 N1411 0.984 . S
H1417 N1411 0.985 . S
H1418 N1415 0.984 . S
H1419 N1415 0.985 . S
H1420 N1414 0.984 . S
H1421 N1414 0.984 . S
H1422 N1410 0.984 . S
H1423 N1410 0.985 . S
C1424 C1425 1.363 . S
C1424 C1430 1.379 . S
C1424 N1432 1.356 . S
C1425 C1424 1.363 . S
C1425 C1431 1.363 . S
C1426 C1427 1.363 . S
C1426 C1431 1.379 . S
C1426 N1433 1.356 . S
C1427 C1426 1.363 . S
C1427 C1430 1.363 . S
N1428 C1430 1.356 . S
N1428 H1440 0.984 . S
N1428 H1441 0.985 . S
N1429 C1431 1.356 . S
N1429 H1434 0.984 . S
N1429 H1435 0.985 . S
C1430 C1424 1.379 . S
C1430 C1427 1.363 . S
C1430 N1428 1.356 . S
C1431 C1425 1.363 . S
C1431 C1426 1.379 . S
C1431 N1429 1.356 . S
N1432 C1424 1.356 . S
N1432 H1438 0.984 . S
N1432 H1439 0.984 . S
N1433 C1426 1.356 . S
N1433 H1436 0.984 . S
N1433 H1437 0.985 . S
H1434 N1429 0.984 . S
H1435 N1429 0.985 . S
H1436 N1433 0.984 . S
H1437 N1433 0.985 . S
H1438 N1432 0.984 . S
H1439 N1432 0.984 . S
H1440 N1428 0.984 . S
H1441 N1428 0.985 . S
C1442 C1443 1.363 . S
C1442 C1448 1.379 . S
C1442 N1450 1.356 . S
C1443 C1442 1.363 . S
C1443 C1449 1.363 . S
C1444 C1445 1.363 . S
C1444 C1449 1.379 . S
C1444 N1451 1.356 . S
C1445 C1444 1.363 . S
C1445 C1448 1.363 . S
N1446 C1448 1.356 . S
N1446 H1458 0.984 . S
N1446 H1459 0.985 . S
N1447 C1449 1.356 . S
N1447 H1452 0.984 . S
N1447 H1453 0.985 . S
C1448 C1442 1.379 . S
C1448 C1445 1.363 . S
C1448 N1446 1.356 . S
C1449 C1443 1.363 . S
C1449 C1444 1.379 . S
C1449 N1447 1.356 . S
N1450 C1442 1.356 . S
N1450 H1456 0.984 . S
N1450 H1457 0.984 . S
N1451 C1444 1.356 . S
N1451 H1454 0.984 . S
N1451 H1455 0.985 . S
H1452 N1447 0.984 . S
H1453 N1447 0.985 . S
H1454 N1451 0.984 . S
H1455 N1451 0.985 . S
H1456 N1450 0.984 . S
H1457 N1450 0.984 . S
H1458 N1446 0.984 . S
H1459 N1446 0.985 . S
C1460 C1461 1.363 . S
C1460 C1466 1.379 . S
C1460 N1468 1.356 . S
C1461 C1460 1.363 . S
C1461 C1467 1.363 . S
C1462 C1463 1.363 . S
C1462 C1467 1.379 . S
C1462 N1469 1.356 . S
C1463 C1462 1.363 . S
C1463 C1466 1.363 . S
N1464 C1466 1.356 . S
N1464 H1476 0.984 . S
N1464 H1477 0.985 . S
N1465 C1467 1.356 . S
N1465 H1470 0.984 . S
N1465 H1471 0.985 . S
C1466 C1460 1.379 . S
C1466 C1463 1.363 . S
C1466 N1464 1.356 . S
C1467 C1461 1.363 . S
C1467 C1462 1.379 . S
C1467 N1465 1.356 . S
N1468 C1460 1.356 . S
N1468 H1474 0.984 . S
N1468 H1475 0.984 . S
N1469 C1462 1.356 . S
N1469 H1472 0.984 . S
N1469 H1473 0.985 . S
H1470 N1465 0.984 . S
H1471 N1465 0.985 . S
H1472 N1469 0.984 . S
H1473 N1469 0.985 . S
H1474 N1468 0.984 . S
H1475 N1468 0.984 . S
H1476 N1464 0.984 . S
H1477 N1464 0.985 . S
C1478 C1479 1.363 . S
C1478 C1484 1.379 . S
C1478 N1486 1.356 . S
C1479 C1478 1.363 . S
C1479 C1485 1.363 . S
C1480 C1481 1.363 . S
C1480 C1485 1.379 . S
C1480 N1487 1.356 . S
C1481 C1480 1.363 . S
C1481 C1484 1.363 . S
N1482 C1484 1.356 . S
N1482 H1494 0.984 . S
N1482 H1495 0.985 . S
N1483 C1485 1.356 . S
N1483 H1488 0.984 . S
N1483 H1489 0.985 . S
C1484 C1478 1.379 . S
C1484 C1481 1.363 . S
C1484 N1482 1.356 . S
C1485 C1479 1.363 . S
C1485 C1480 1.379 . S
C1485 N1483 1.356 . S
N1486 C1478 1.356 . S
N1486 H1492 0.984 . S
N1486 H1493 0.984 . S
N1487 C1480 1.356 . S
N1487 H1490 0.984 . S
N1487 H1491 0.985 . S
H1488 N1483 0.984 . S
H1489 N1483 0.985 . S
H1490 N1487 0.984 . S
H1491 N1487 0.985 . S
H1492 N1486 0.984 . S
H1493 N1486 0.984 . S
H1494 N1482 0.984 . S
H1495 N1482 0.985 . S
C1496 C1497 1.363 . S
C1496 C1502 1.379 . S
C1496 N1504 1.356 . S
C1497 C1496 1.363 . S
C1497 C1503 1.363 . S
C1498 C1499 1.363 . S
C1498 C1503 1.379 . S
C1498 N1505 1.356 . S
C1499 C1498 1.363 . S
C1499 C1502 1.363 . S
N1500 C1502 1.356 . S
N1500 H1512 0.984 . S
N1500 H1513 0.985 . S
N1501 C1503 1.356 . S
N1501 H1506 0.984 . S
N1501 H1507 0.985 . S
C1502 C1496 1.379 . S
C1502 C1499 1.363 . S
C1502 N1500 1.356 . S
C1503 C1497 1.363 . S
C1503 C1498 1.379 . S
C1503 N1501 1.356 . S
N1504 C1496 1.356 . S
N1504 H1510 0.984 . S
N1504 H1511 0.984 . S
N1505 C1498 1.356 . S
N1505 H1508 0.984 . S
N1505 H1509 0.985 . S
H1506 N1501 0.984 . S
H1507 N1501 0.985 . S
H1508 N1505 0.984 . S
H1509 N1505 0.985 . S
H1510 N1504 0.984 . S
H1511 N1504 0.984 . S
H1512 N1500 0.984 . S
H1513 N1500 0.985 . S
C1514 C1515 1.363 . S
C1514 C1520 1.379 . S
C1514 N1522 1.356 . S
C1515 C1514 1.363 . S
C1515 C1521 1.363 . S
C1516 C1517 1.363 . S
C1516 C1521 1.379 . S
C1516 N1523 1.356 . S
C1517 C1516 1.363 . S
C1517 C1520 1.363 . S
N1518 C1520 1.356 . S
N1518 H1530 0.984 . S
N1518 H1531 0.985 . S
N1519 C1521 1.356 . S
N1519 H1524 0.984 . S
N1519 H1525 0.985 . S
C1520 C1514 1.379 . S
C1520 C1517 1.363 . S
C1520 N1518 1.356 . S
C1521 C1515 1.363 . S
C1521 C1516 1.379 . S
C1521 N1519 1.356 . S
N1522 C1514 1.356 . S
N1522 H1528 0.984 . S
N1522 H1529 0.984 . S
N1523 C1516 1.356 . S
N1523 H1526 0.984 . S
N1523 H1527 0.985 . S
H1524 N1519 0.984 . S
H1525 N1519 0.985 . S
H1526 N1523 0.984 . S
H1527 N1523 0.985 . S
H1528 N1522 0.984 . S
H1529 N1522 0.984 . S
H1530 N1518 0.984 . S
H1531 N1518 0.985 . S
C1532 C1533 1.363 . S
C1532 C1538 1.379 . S
C1532 N1540 1.356 . S
C1533 C1532 1.363 . S
C1533 C1539 1.363 . S
C1534 C1535 1.363 . S
C1534 C1539 1.379 . S
C1534 N1541 1.356 . S
C1535 C1534 1.363 . S
C1535 C1538 1.363 . S
N1536 C1538 1.356 . S
N1536 H1548 0.984 . S
N1536 H1549 0.985 . S
N1537 C1539 1.356 . S
N1537 H1542 0.984 . S
N1537 H1543 0.985 . S
C1538 C1532 1.379 . S
C1538 C1535 1.363 . S
C1538 N1536 1.356 . S
C1539 C1533 1.363 . S
C1539 C1534 1.379 . S
C1539 N1537 1.356 . S
N1540 C1532 1.356 . S
N1540 H1546 0.984 . S
N1540 H1547 0.984 . S
N1541 C1534 1.356 . S
N1541 H1544 0.984 . S
N1541 H1545 0.985 . S
H1542 N1537 0.984 . S
H1543 N1537 0.985 . S
H1544 N1541 0.984 . S
H1545 N1541 0.985 . S
H1546 N1540 0.984 . S
H1547 N1540 0.984 . S
H1548 N1536 0.984 . S
H1549 N1536 0.985 . S
C1550 C1551 1.363 . S
C1550 C1556 1.379 . S
C1550 N1558 1.356 . S
C1551 C1550 1.363 . S
C1551 C1557 1.363 . S
C1552 C1553 1.363 . S
C1552 C1557 1.379 . S
C1552 N1559 1.356 . S
C1553 C1552 1.363 . S
C1553 C1556 1.363 . S
N1554 C1556 1.356 . S
N1554 H1566 0.984 . S
N1554 H1567 0.985 . S
N1555 C1557 1.356 . S
N1555 H1560 0.984 . S
N1555 H1561 0.985 . S
C1556 C1550 1.379 . S
C1556 C1553 1.363 . S
C1556 N1554 1.356 . S
C1557 C1551 1.363 . S
C1557 C1552 1.379 . S
C1557 N1555 1.356 . S
N1558 C1550 1.356 . S
N1558 H1564 0.984 . S
N1558 H1565 0.984 . S
N1559 C1552 1.356 . S
N1559 H1562 0.984 . S
N1559 H1563 0.985 . S
H1560 N1555 0.984 . S
H1561 N1555 0.985 . S
H1562 N1559 0.984 . S
H1563 N1559 0.985 . S
H1564 N1558 0.984 . S
H1565 N1558 0.984 . S
H1566 N1554 0.984 . S
H1567 N1554 0.985 . S
C1568 C1569 1.363 . S
C1568 C1574 1.379 . S
C1568 N1576 1.356 . S
C1569 C1568 1.363 . S
C1569 C1575 1.363 . S
C1570 C1571 1.363 . S
C1570 C1575 1.379 . S
C1570 N1577 1.356 . S
C1571 C1570 1.363 . S
C1571 C1574 1.363 . S
N1572 C1574 1.356 . S
N1572 H1584 0.984 . S
N1572 H1585 0.985 . S
N1573 C1575 1.356 . S
N1573 H1578 0.984 . S
N1573 H1579 0.985 . S
C1574 C1568 1.379 . S
C1574 C1571 1.363 . S
C1574 N1572 1.356 . S
C1575 C1569 1.363 . S
C1575 C1570 1.379 . S
C1575 N1573 1.356 . S
N1576 C1568 1.356 . S
N1576 H1582 0.984 . S
N1576 H1583 0.984 . S
N1577 C1570 1.356 . S
N1577 H1580 0.984 . S
N1577 H1581 0.985 . S
H1578 N1573 0.984 . S
H1579 N1573 0.985 . S
H1580 N1577 0.984 . S
H1581 N1577 0.985 . S
H1582 N1576 0.984 . S
H1583 N1576 0.984 . S
H1584 N1572 0.984 . S
H1585 N1572 0.985 . S
C1586 C1587 1.363 . S
C1586 C1592 1.379 . S
C1586 N1594 1.356 . S
C1587 C1586 1.363 . S
C1587 C1593 1.363 . S
C1588 C1589 1.363 . S
C1588 C1593 1.379 . S
C1588 N1595 1.356 . S
C1589 C1588 1.363 . S
C1589 C1592 1.363 . S
N1590 C1592 1.356 . S
N1590 H1602 0.984 . S
N1590 H1603 0.985 . S
N1591 C1593 1.356 . S
N1591 H1596 0.984 . S
N1591 H1597 0.985 . S
C1592 C1586 1.379 . S
C1592 C1589 1.363 . S
C1592 N1590 1.356 . S
C1593 C1587 1.363 . S
C1593 C1588 1.379 . S
C1593 N1591 1.356 . S
N1594 C1586 1.356 . S
N1594 H1600 0.984 . S
N1594 H1601 0.984 . S
N1595 C1588 1.356 . S
N1595 H1598 0.984 . S
N1595 H1599 0.985 . S
H1596 N1591 0.984 . S
H1597 N1591 0.985 . S
H1598 N1595 0.984 . S
H1599 N1595 0.985 . S
H1600 N1594 0.984 . S
H1601 N1594 0.984 . S
H1602 N1590 0.984 . S
H1603 N1590 0.985 . S
C1604 C1605 1.363 . S
C1604 C1610 1.379 . S
C1604 N1612 1.356 . S
C1605 C1604 1.363 . S
C1605 C1611 1.363 . S
C1606 C1607 1.363 . S
C1606 C1611 1.379 . S
C1606 N1613 1.356 . S
C1607 C1606 1.363 . S
C1607 C1610 1.363 . S
N1608 C1610 1.356 . S
N1608 H1620 0.984 . S
N1608 H1621 0.985 . S
N1609 C1611 1.356 . S
N1609 H1614 0.984 . S
N1609 H1615 0.985 . S
C1610 C1604 1.379 . S
C1610 C1607 1.363 . S
C1610 N1608 1.356 . S
C1611 C1605 1.363 . S
C1611 C1606 1.379 . S
C1611 N1609 1.356 . S
N1612 C1604 1.356 . S
N1612 H1618 0.984 . S
N1612 H1619 0.984 . S
N1613 C1606 1.356 . S
N1613 H1616 0.984 . S
N1613 H1617 0.985 . S
H1614 N1609 0.984 . S
H1615 N1609 0.985 . S
H1616 N1613 0.984 . S
H1617 N1613 0.985 . S
H1618 N1612 0.984 . S
H1619 N1612 0.984 . S
H1620 N1608 0.984 . S
H1621 N1608 0.985 . S
C1622 C1623 1.363 . S
C1622 C1628 1.379 . S
C1622 N1630 1.356 . S
C1623 C1622 1.363 . S
C1623 C1629 1.363 . S
C1624 C1625 1.363 . S
C1624 C1629 1.379 . S
C1624 N1631 1.356 . S
C1625 C1624 1.363 . S
C1625 C1628 1.363 . S
N1626 C1628 1.356 . S
N1626 H1638 0.984 . S
N1626 H1639 0.985 . S
N1627 C1629 1.356 . S
N1627 H1632 0.984 . S
N1627 H1633 0.985 . S
C1628 C1622 1.379 . S
C1628 C1625 1.363 . S
C1628 N1626 1.356 . S
C1629 C1623 1.363 . S
C1629 C1624 1.379 . S
C1629 N1627 1.356 . S
N1630 C1622 1.356 . S
N1630 H1636 0.984 . S
N1630 H1637 0.984 . S
N1631 C1624 1.356 . S
N1631 H1634 0.984 . S
N1631 H1635 0.985 . S
H1632 N1627 0.984 . S
H1633 N1627 0.985 . S
H1634 N1631 0.984 . S
H1635 N1631 0.985 . S
H1636 N1630 0.984 . S
H1637 N1630 0.984 . S
H1638 N1626 0.984 . S
H1639 N1626 0.985 . S
C1640 C1641 1.363 . S
C1640 C1646 1.379 . S
C1640 N1648 1.356 . S
C1641 C1640 1.363 . S
C1641 C1647 1.363 . S
C1642 C1643 1.363 . S
C1642 C1647 1.379 . S
C1642 N1649 1.356 . S
C1643 C1642 1.363 . S
C1643 C1646 1.363 . S
N1644 C1646 1.356 . S
N1644 H1656 0.984 . S
N1644 H1657 0.985 . S
N1645 C1647 1.356 . S
N1645 H1650 0.984 . S
N1645 H1651 0.985 . S
C1646 C1640 1.379 . S
C1646 C1643 1.363 . S
C1646 N1644 1.356 . S
C1647 C1641 1.363 . S
C1647 C1642 1.379 . S
C1647 N1645 1.356 . S
N1648 C1640 1.356 . S
N1648 H1654 0.984 . S
N1648 H1655 0.984 . S
N1649 C1642 1.356 . S
N1649 H1652 0.984 . S
N1649 H1653 0.985 . S
H1650 N1645 0.984 . S
H1651 N1645 0.985 . S
H1652 N1649 0.984 . S
H1653 N1649 0.985 . S
H1654 N1648 0.984 . S
H1655 N1648 0.984 . S
H1656 N1644 0.984 . S
H1657 N1644 0.985 . S
C1658 C1659 1.363 . S
C1658 C1664 1.379 . S
C1658 N1666 1.356 . S
C1659 C1658 1.363 . S
C1659 C1665 1.363 . S
C1660 C1661 1.363 . S
C1660 C1665 1.379 . S
C1660 N1667 1.356 . S
C1661 C1660 1.363 . S
C1661 C1664 1.363 . S
N1662 C1664 1.356 . S
N1662 H1674 0.984 . S
N1662 H1675 0.985 . S
N1663 C1665 1.356 . S
N1663 H1668 0.984 . S
N1663 H1669 0.985 . S
C1664 C1658 1.379 . S
C1664 C1661 1.363 . S
C1664 N1662 1.356 . S
C1665 C1659 1.363 . S
C1665 C1660 1.379 . S
C1665 N1663 1.356 . S
N1666 C1658 1.356 . S
N1666 H1672 0.984 . S
N1666 H1673 0.984 . S
N1667 C1660 1.356 . S
N1667 H1670 0.984 . S
N1667 H1671 0.985 . S
H1668 N1663 0.984 . S
H1669 N1663 0.985 . S
H1670 N1667 0.984 . S
H1671 N1667 0.985 . S
H1672 N1666 0.984 . S
H1673 N1666 0.984 . S
H1674 N1662 0.984 . S
H1675 N1662 0.985 . S
C1676 C1677 1.363 . S
C1676 C1682 1.379 . S
C1676 N1684 1.356 . S
C1677 C1676 1.363 . S
C1677 C1683 1.363 . S
C1678 C1679 1.363 . S
C1678 C1683 1.379 . S
C1678 N1685 1.356 . S
C1679 C1678 1.363 . S
C1679 C1682 1.363 . S
N1680 C1682 1.356 . S
N1680 H1692 0.984 . S
N1680 H1693 0.985 . S
N1681 C1683 1.356 . S
N1681 H1686 0.984 . S
N1681 H1687 0.985 . S
C1682 C1676 1.379 . S
C1682 C1679 1.363 . S
C1682 N1680 1.356 . S
C1683 C1677 1.363 . S
C1683 C1678 1.379 . S
C1683 N1681 1.356 . S
N1684 C1676 1.356 . S
N1684 H1690 0.984 . S
N1684 H1691 0.984 . S
N1685 C1678 1.356 . S
N1685 H1688 0.984 . S
N1685 H1689 0.985 . S
H1686 N1681 0.984 . S
H1687 N1681 0.985 . S
H1688 N1685 0.984 . S
H1689 N1685 0.985 . S
H1690 N1684 0.984 . S
H1691 N1684 0.984 . S
H1692 N1680 0.984 . S
H1693 N1680 0.985 . S
C1694 C1695 1.363 . S
C1694 C1700 1.379 . S
C1694 N1702 1.356 . S
C1695 C1694 1.363 . S
C1695 C1701 1.363 . S
C1696 C1697 1.363 . S
C1696 C1701 1.379 . S
C1696 N1703 1.356 . S
C1697 C1696 1.363 . S
C1697 C1700 1.363 . S
N1698 C1700 1.356 . S
N1698 H1710 0.984 . S
N1698 H1711 0.985 . S
N1699 C1701 1.356 . S
N1699 H1704 0.984 . S
N1699 H1705 0.985 . S
C1700 C1694 1.379 . S
C1700 C1697 1.363 . S
C1700 N1698 1.356 . S
C1701 C1695 1.363 . S
C1701 C1696 1.379 . S
C1701 N1699 1.356 . S
N1702 C1694 1.356 . S
N1702 H1708 0.984 . S
N1702 H1709 0.984 . S
N1703 C1696 1.356 . S
N1703 H1706 0.984 . S
N1703 H1707 0.985 . S
H1704 N1699 0.984 . S
H1705 N1699 0.985 . S
H1706 N1703 0.984 . S
H1707 N1703 0.985 . S
H1708 N1702 0.984 . S
H1709 N1702 0.984 . S
H1710 N1698 0.984 . S
H1711 N1698 0.985 . S
C1712 C1713 1.363 . S
C1712 C1718 1.379 . S
C1712 N1720 1.356 . S
C1713 C1712 1.363 . S
C1713 C1719 1.363 . S
C1714 C1715 1.363 . S
C1714 C1719 1.379 . S
C1714 N1721 1.356 . S
C1715 C1714 1.363 . S
C1715 C1718 1.363 . S
N1716 C1718 1.356 . S
N1716 H1728 0.984 . S
N1716 H1729 0.985 . S
N1717 C1719 1.356 . S
N1717 H1722 0.984 . S
N1717 H1723 0.985 . S
C1718 C1712 1.379 . S
C1718 C1715 1.363 . S
C1718 N1716 1.356 . S
C1719 C1713 1.363 . S
C1719 C1714 1.379 . S
C1719 N1717 1.356 . S
N1720 C1712 1.356 . S
N1720 H1726 0.984 . S
N1720 H1727 0.984 . S
N1721 C1714 1.356 . S
N1721 H1724 0.984 . S
N1721 H1725 0.985 . S
H1722 N1717 0.984 . S
H1723 N1717 0.985 . S
H1724 N1721 0.984 . S
H1725 N1721 0.985 . S
H1726 N1720 0.984 . S
H1727 N1720 0.984 . S
H1728 N1716 0.984 . S
H1729 N1716 0.985 . S
C1730 C1731 1.363 . S
C1730 C1736 1.379 . S
C1730 N1738 1.356 . S
C1731 C1730 1.363 . S
C1731 C1737 1.363 . S
C1732 C1733 1.363 . S
C1732 C1737 1.379 . S
C1732 N1739 1.356 . S
C1733 C1732 1.363 . S
C1733 C1736 1.363 . S
N1734 C1736 1.356 . S
N1734 H1746 0.984 . S
N1734 H1747 0.985 . S
N1735 C1737 1.356 . S
N1735 H1740 0.984 . S
N1735 H1741 0.985 . S
C1736 C1730 1.379 . S
C1736 C1733 1.363 . S
C1736 N1734 1.356 . S
C1737 C1731 1.363 . S
C1737 C1732 1.379 . S
C1737 N1735 1.356 . S
N1738 C1730 1.356 . S
N1738 H1744 0.984 . S
N1738 H1745 0.984 . S
N1739 C1732 1.356 . S
N1739 H1742 0.984 . S
N1739 H1743 0.985 . S
H1740 N1735 0.984 . S
H1741 N1735 0.985 . S
H1742 N1739 0.984 . S
H1743 N1739 0.985 . S
H1744 N1738 0.984 . S
H1745 N1738 0.984 . S
H1746 N1734 0.984 . S
H1747 N1734 0.985 . S
C1748 C1749 1.363 . S
C1748 C1754 1.379 . S
C1748 N1756 1.356 . S
C1749 C1748 1.363 . S
C1749 C1755 1.363 . S
C1750 C1751 1.363 . S
C1750 C1755 1.379 . S
C1750 N1757 1.356 . S
C1751 C1750 1.363 . S
C1751 C1754 1.363 . S
N1752 C1754 1.356 . S
N1752 H1764 0.984 . S
N1752 H1765 0.985 . S
N1753 C1755 1.356 . S
N1753 H1758 0.984 . S
N1753 H1759 0.985 . S
C1754 C1748 1.379 . S
C1754 C1751 1.363 . S
C1754 N1752 1.356 . S
C1755 C1749 1.363 . S
C1755 C1750 1.379 . S
C1755 N1753 1.356 . S
N1756 C1748 1.356 . S
N1756 H1762 0.984 . S
N1756 H1763 0.984 . S
N1757 C1750 1.356 . S
N1757 H1760 0.984 . S
N1757 H1761 0.985 . S
H1758 N1753 0.984 . S
H1759 N1753 0.985 . S
H1760 N1757 0.984 . S
H1761 N1757 0.985 . S
H1762 N1756 0.984 . S
H1763 N1756 0.984 . S
H1764 N1752 0.984 . S
H1765 N1752 0.985 . S
C1766 C1767 1.363 . S
C1766 C1772 1.379 . S
C1766 N1774 1.356 . S
C1767 C1766 1.363 . S
C1767 C1773 1.363 . S
C1768 C1769 1.363 . S
C1768 C1773 1.379 . S
C1768 N1775 1.356 . S
C1769 C1768 1.363 . S
C1769 C1772 1.363 . S
N1770 C1772 1.356 . S
N1770 H1782 0.984 . S
N1770 H1783 0.985 . S
N1771 C1773 1.356 . S
N1771 H1776 0.984 . S
N1771 H1777 0.985 . S
C1772 C1766 1.379 . S
C1772 C1769 1.363 . S
C1772 N1770 1.356 . S
C1773 C1767 1.363 . S
C1773 C1768 1.379 . S
C1773 N1771 1.356 . S
N1774 C1766 1.356 . S
N1774 H1780 0.984 . S
N1774 H1781 0.984 . S
N1775 C1768 1.356 . S
N1775 H1778 0.984 . S
N1775 H1779 0.985 . S
H1776 N1771 0.984 . S
H1777 N1771 0.985 . S
H1778 N1775 0.984 . S
H1779 N1775 0.985 . S
H1780 N1774 0.984 . S
H1781 N1774 0.984 . S
H1782 N1770 0.984 . S
H1783 N1770 0.985 . S
C1784 C1785 1.363 . S
C1784 C1790 1.379 . S
C1784 N1792 1.356 . S
C1785 C1784 1.363 . S
C1785 C1791 1.363 . S
C1786 C1787 1.363 . S
C1786 C1791 1.379 . S
C1786 N1793 1.356 . S
C1787 C1786 1.363 . S
C1787 C1790 1.363 . S
N1788 C1790 1.356 . S
N1788 H1800 0.984 . S
N1788 H1801 0.985 . S
N1789 C1791 1.356 . S
N1789 H1794 0.984 . S
N1789 H1795 0.985 . S
C1790 C1784 1.379 . S
C1790 C1787 1.363 . S
C1790 N1788 1.356 . S
C1791 C1785 1.363 . S
C1791 C1786 1.379 . S
C1791 N1789 1.356 . S
N1792 C1784 1.356 . S
N1792 H1798 0.984 . S
N1792 H1799 0.984 . S
N1793 C1786 1.356 . S
N1793 H1796 0.984 . S
N1793 H1797 0.985 . S
H1794 N1789 0.984 . S
H1795 N1789 0.985 . S
H1796 N1793 0.984 . S
H1797 N1793 0.985 . S
H1798 N1792 0.984 . S
H1799 N1792 0.984 . S
H1800 N1788 0.984 . S
H1801 N1788 0.985 . S
C1802 C1803 1.363 . S
C1802 C1808 1.379 . S
C1802 N1810 1.356 . S
C1803 C1802 1.363 . S
C1803 C1809 1.363 . S
C1804 C1805 1.363 . S
C1804 C1809 1.379 . S
C1804 N1811 1.356 . S
C1805 C1804 1.363 . S
C1805 C1808 1.363 . S
N1806 C1808 1.356 . S
N1806 H1818 0.984 . S
N1806 H1819 0.985 . S
N1807 C1809 1.356 . S
N1807 H1812 0.984 . S
N1807 H1813 0.985 . S
C1808 C1802 1.379 . S
C1808 C1805 1.363 . S
C1808 N1806 1.356 . S
C1809 C1803 1.363 . S
C1809 C1804 1.379 . S
C1809 N1807 1.356 . S
N1810 C1802 1.356 . S
N1810 H1816 0.984 . S
N1810 H1817 0.984 . S
N1811 C1804 1.356 . S
N1811 H1814 0.984 . S
N1811 H1815 0.985 . S
H1812 N1807 0.984 . S
H1813 N1807 0.985 . S
H1814 N1811 0.984 . S
H1815 N1811 0.985 . S
H1816 N1810 0.984 . S
H1817 N1810 0.984 . S
H1818 N1806 0.984 . S
H1819 N1806 0.985 . S
C1820 C1821 1.363 . S
C1820 C1826 1.379 . S
C1820 N1828 1.356 . S
C1821 C1820 1.363 . S
C1821 C1827 1.363 . S
C1822 C1823 1.363 . S
C1822 C1827 1.379 . S
C1822 N1829 1.356 . S
C1823 C1822 1.363 . S
C1823 C1826 1.363 . S
N1824 C1826 1.356 . S
N1824 H1836 0.984 . S
N1824 H1837 0.985 . S
N1825 C1827 1.356 . S
N1825 H1830 0.984 . S
N1825 H1831 0.985 . S
C1826 C1820 1.379 . S
C1826 C1823 1.363 . S
C1826 N1824 1.356 . S
C1827 C1821 1.363 . S
C1827 C1822 1.379 . S
C1827 N1825 1.356 . S
N1828 C1820 1.356 . S
N1828 H1834 0.984 . S
N1828 H1835 0.984 . S
N1829 C1822 1.356 . S
N1829 H1832 0.984 . S
N1829 H1833 0.985 . S
H1830 N1825 0.984 . S
H1831 N1825 0.985 . S
H1832 N1829 0.984 . S
H1833 N1829 0.985 . S
H1834 N1828 0.984 . S
H1835 N1828 0.984 . S
H1836 N1824 0.984 . S
H1837 N1824 0.985 . S
C1838 C1839 1.363 . S
C1838 C1844 1.379 . S
C1838 N1846 1.356 . S
C1839 C1838 1.363 . S
C1839 C1845 1.363 . S
C1840 C1841 1.363 . S
C1840 C1845 1.379 . S
C1840 N1847 1.356 . S
C1841 C1840 1.363 . S
C1841 C1844 1.363 . S
N1842 C1844 1.356 . S
N1842 H1854 0.984 . S
N1842 H1855 0.985 . S
N1843 C1845 1.356 . S
N1843 H1848 0.984 . S
N1843 H1849 0.985 . S
C1844 C1838 1.379 . S
C1844 C1841 1.363 . S
C1844 N1842 1.356 . S
C1845 C1839 1.363 . S
C1845 C1840 1.379 . S
C1845 N1843 1.356 . S
N1846 C1838 1.356 . S
N1846 H1852 0.984 . S
N1846 H1853 0.984 . S
N1847 C1840 1.356 . S
N1847 H1850 0.984 . S
N1847 H1851 0.985 . S
H1848 N1843 0.984 . S
H1849 N1843 0.985 . S
H1850 N1847 0.984 . S
H1851 N1847 0.985 . S
H1852 N1846 0.984 . S
H1853 N1846 0.984 . S
H1854 N1842 0.984 . S
H1855 N1842 0.985 . S
C1856 C1857 1.363 . S
C1856 C1862 1.379 1_455 S
C1856 N1864 1.356 . S
C1857 C1856 1.363 . S
C1857 C1863 1.363 . S
C1858 C1859 1.363 . S
C1858 C1863 1.379 1_655 S
C1858 N1865 1.356 . S
C1859 C1858 1.363 . S
C1859 C1862 1.363 . S
N1860 C1862 1.356 . S
N1860 H1872 0.984 . S
N1860 H1873 0.985 . S
N1861 C1863 1.356 . S
N1861 H1866 0.984 . S
N1861 H1867 0.985 . S
C1862 C1856 1.379 1_655 S
C1862 C1859 1.363 . S
C1862 N1860 1.356 . S
C1863 C1857 1.363 . S
C1863 C1858 1.379 1_455 S
C1863 N1861 1.356 . S
N1864 C1856 1.356 . S
N1864 H1870 0.984 . S
N1864 H1871 0.984 . S
N1865 C1858 1.356 . S
N1865 H1868 0.984 . S
N1865 H1869 0.985 . S
H1866 N1861 0.984 . S
H1867 N1861 0.985 . S
H1868 N1865 0.984 . S
H1869 N1865 0.985 . S
H1870 N1864 0.984 . S
H1871 N1864 0.984 . S
H1872 N1860 0.984 . S
H1873 N1860 0.985 . S
C1874 C1875 1.363 1_655 S
C1874 C1880 1.379 . S
C1874 N1882 1.356 . S
C1875 C1874 1.363 1_455 S
C1875 C1881 1.363 . S
C1876 C1877 1.363 1_455 S
C1876 C1881 1.379 . S
C1876 N1883 1.356 . S
C1877 C1876 1.363 1_655 S
C1877 C1880 1.363 . S
N1878 C1880 1.356 . S
N1878 H1890 0.984 . S
N1878 H1891 0.985 . S
N1879 C1881 1.356 . S
N1879 H1884 0.984 . S
N1879 H1885 0.985 . S
C1880 C1874 1.379 . S
C1880 C1877 1.363 . S
C1880 N1878 1.356 . S
C1881 C1875 1.363 . S
C1881 C1876 1.379 . S
C1881 N1879 1.356 . S
N1882 C1874 1.356 . S
N1882 H1888 0.984 . S
N1882 H1889 0.984 . S
N1883 C1876 1.356 . S
N1883 H1886 0.984 . S
N1883 H1887 0.985 . S
H1884 N1879 0.984 . S
H1885 N1879 0.985 . S
H1886 N1883 0.984 . S
H1887 N1883 0.985 . S
H1888 N1882 0.984 . S
H1889 N1882 0.984 . S
H1890 N1878 0.984 . S
H1891 N1878 0.985 . S
C1892 C1893 1.363 . S
C1892 C1898 1.379 . S
C1892 N1900 1.356 . S
C1893 C1892 1.363 . S
C1893 C1899 1.363 . S
C1894 C1895 1.363 . S
C1894 C1899 1.379 . S
C1894 N1901 1.356 . S
C1895 C1894 1.363 . S
C1895 C1898 1.363 . S
N1896 C1898 1.356 . S
N1896 H1908 0.984 . S
N1896 H1909 0.985 . S
N1897 C1899 1.356 . S
N1897 H1902 0.984 . S
N1897 H1903 0.985 . S
C1898 C1892 1.379 . S
C1898 C1895 1.363 . S
C1898 N1896 1.356 . S
C1899 C1893 1.363 . S
C1899 C1894 1.379 . S
C1899 N1897 1.356 . S
N1900 C1892 1.356 . S
N1900 H1906 0.984 . S
N1900 H1907 0.984 . S
N1901 C1894 1.356 . S
N1901 H1904 0.984 . S
N1901 H1905 0.985 . S
H1902 N1897 0.984 . S
H1903 N1897 0.985 . S
H1904 N1901 0.984 . S
H1905 N1901 0.985 . S
H1906 N1900 0.984 . S
H1907 N1900 0.984 . S
H1908 N1896 0.984 . S
H1909 N1896 0.985 . S
C1910 C1911 1.363 . S
C1910 C1916 1.379 . S
C1910 N1918 1.356 . S
C1911 C1910 1.363 . S
C1911 C1917 1.363 . S
C1912 C1913 1.363 . S
C1912 C1917 1.379 . S
C1912 N1919 1.356 . S
C1913 C1912 1.363 . S
C1913 C1916 1.363 . S
N1914 C1916 1.356 . S
N1914 H1926 0.984 . S
N1914 H1927 0.985 . S
N1915 C1917 1.356 . S
N1915 H1920 0.984 . S
N1915 H1921 0.985 . S
C1916 C1910 1.379 . S
C1916 C1913 1.363 . S
C1916 N1914 1.356 . S
C1917 C1911 1.363 . S
C1917 C1912 1.379 . S
C1917 N1915 1.356 . S
N1918 C1910 1.356 . S
N1918 H1924 0.984 . S
N1918 H1925 0.984 . S
N1919 C1912 1.356 . S
N1919 H1922 0.984 . S
N1919 H1923 0.985 . S
H1920 N1915 0.984 . S
H1921 N1915 0.985 . S
H1922 N1919 0.984 . S
H1923 N1919 0.985 . S
H1924 N1918 0.984 . S
H1925 N1918 0.984 . S
H1926 N1914 0.984 . S
H1927 N1914 0.985 . S
C1928 C1929 1.363 . S
C1928 C1934 1.379 1_655 S
C1928 N1936 1.356 . S
C1929 C1928 1.363 . S
C1929 C1935 1.363 . S
C1930 C1931 1.363 . S
C1930 C1935 1.379 1_455 S
C1930 N1937 1.356 . S
C1931 C1930 1.363 . S
C1931 C1934 1.363 . S
N1932 C1934 1.356 . S
N1932 H1944 0.984 . S
N1932 H1945 0.985 . S
N1933 C1935 1.356 . S
N1933 H1938 0.984 . S
N1933 H1939 0.985 . S
C1934 C1928 1.379 1_455 S
C1934 C1931 1.363 . S
C1934 N1932 1.356 . S
C1935 C1929 1.363 . S
C1935 C1930 1.379 1_655 S
C1935 N1933 1.356 . S
N1936 C1928 1.356 . S
N1936 H1942 0.984 . S
N1936 H1943 0.984 . S
N1937 C1930 1.356 . S
N1937 H1940 0.984 . S
N1937 H1941 0.985 . S
H1938 N1933 0.984 . S
H1939 N1933 0.985 . S
H1940 N1937 0.984 . S
H1941 N1937 0.985 . S
H1942 N1936 0.984 . S
H1943 N1936 0.984 . S
H1944 N1932 0.984 . S
H1945 N1932 0.985 . S
C1946 C1947 1.363 . S
C1946 C1952 1.379 . S
C1946 N1954 1.356 . S
C1947 C1946 1.363 . S
C1947 C1953 1.363 . S
C1948 C1949 1.363 . S
C1948 C1953 1.379 . S
C1948 N1955 1.356 . S
C1949 C1948 1.363 . S
C1949 C1952 1.363 . S
N1950 C1952 1.356 . S
N1950 H1962 0.984 . S
N1950 H1963 0.985 . S
N1951 C1953 1.356 . S
N1951 H1956 0.984 . S
N1951 H1957 0.985 . S
C1952 C1946 1.379 . S
C1952 C1949 1.363 . S
C1952 N1950 1.356 . S
C1953 C1947 1.363 . S
C1953 C1948 1.379 . S
C1953 N1951 1.356 . S
N1954 C1946 1.356 . S
N1954 H1960 0.984 . S
N1954 H1961 0.984 . S
N1955 C1948 1.356 . S
N1955 H1958 0.984 . S
N1955 H1959 0.985 . S
H1956 N1951 0.984 . S
H1957 N1951 0.985 . S
H1958 N1955 0.984 . S
H1959 N1955 0.985 . S
H1960 N1954 0.984 . S
H1961 N1954 0.984 . S
H1962 N1950 0.984 . S
H1963 N1950 0.985 . S
C1964 C1965 1.363 . S
C1964 C1970 1.379 . S
C1964 N1972 1.356 . S
C1965 C1964 1.363 . S
C1965 C1971 1.363 . S
C1966 C1967 1.363 . S
C1966 C1971 1.379 . S
C1966 N1973 1.356 . S
C1967 C1966 1.363 . S
C1967 C1970 1.363 . S
N1968 C1970 1.356 . S
N1968 H1980 0.984 . S
N1968 H1981 0.985 . S
N1969 C1971 1.356 . S
N1969 H1974 0.984 . S
N1969 H1975 0.985 . S
C1970 C1964 1.379 . S
C1970 C1967 1.363 . S
C1970 N1968 1.356 . S
C1971 C1965 1.363 . S
C1971 C1966 1.379 . S
C1971 N1969 1.356 . S
N1972 C1964 1.356 . S
N1972 H1978 0.984 . S
N1972 H1979 0.984 . S
N1973 C1966 1.356 . S
N1973 H1976 0.984 . S
N1973 H1977 0.985 . S
H1974 N1969 0.984 . S
H1975 N1969 0.985 . S
H1976 N1973 0.984 . S
H1977 N1973 0.985 . S
H1978 N1972 0.984 . S
H1979 N1972 0.984 . S
H1980 N1968 0.984 . S
H1981 N1968 0.985 . S
C1982 C1983 1.363 1_455 S
C1982 C1988 1.379 . S
C1982 N1990 1.356 . S
C1983 C1982 1.363 1_655 S
C1983 C1989 1.363 . S
C1984 C1985 1.363 1_655 S
C1984 C1989 1.379 . S
C1984 N1991 1.356 . S
C1985 C1984 1.363 1_455 S
C1985 C1988 1.363 . S
N1986 C1988 1.356 . S
N1986 H1998 0.984 . S
N1986 H1999 0.985 . S
N1987 C1989 1.356 . S
N1987 H1992 0.984 . S
N1987 H1993 0.985 . S
C1988 C1982 1.379 . S
C1988 C1985 1.363 . S
C1988 N1986 1.356 . S
C1989 C1983 1.363 . S
C1989 C1984 1.379 . S
C1989 N1987 1.356 . S
N1990 C1982 1.356 . S
N1990 H1996 0.984 . S
N1990 H1997 0.984 . S
N1991 C1984 1.356 . S
N1991 H1994 0.984 . S
N1991 H1995 0.985 . S
H1992 N1987 0.984 . S
H1993 N1987 0.985 . S
H1994 N1991 0.984 . S
H1995 N1991 0.985 . S
H1996 N1990 0.984 . S
H1997 N1990 0.984 . S
H1998 N1986 0.984 . S
H1999 N1986 0.985 . S
C2000 C2001 1.363 . S
C2000 C2006 1.379 1_455 S
C2000 N2008 1.356 . S
C2001 C2000 1.363 . S
C2001 C2007 1.363 . S
C2002 C2003 1.363 . S
C2002 C2007 1.379 1_655 S
C2002 N2009 1.356 . S
C2003 C2002 1.363 . S
C2003 C2006 1.363 . S
N2004 C2006 1.356 . S
N2004 H2016 0.984 . S
N2004 H2017 0.985 . S
N2005 C2007 1.356 . S
N2005 H2010 0.984 . S
N2005 H2011 0.985 . S
C2006 C2000 1.379 1_655 S
C2006 C2003 1.363 . S
C2006 N2004 1.356 . S
C2007 C2001 1.363 . S
C2007 C2002 1.379 1_455 S
C2007 N2005 1.356 . S
N2008 C2000 1.356 . S
N2008 H2014 0.984 . S
N2008 H2015 0.984 . S
N2009 C2002 1.356 . S
N2009 H2012 0.984 . S
N2009 H2013 0.985 . S
H2010 N2005 0.984 . S
H2011 N2005 0.985 . S
H2012 N2009 0.984 . S
H2013 N2009 0.985 . S
H2014 N2008 0.984 . S
H2015 N2008 0.984 . S
H2016 N2004 0.984 . S
H2017 N2004 0.985 . S
C2018 C2019 1.363 1_655 S
C2018 C2024 1.379 . S
C2018 N2026 1.356 . S
C2019 C2018 1.363 1_455 S
C2019 C2025 1.363 . S
C2020 C2021 1.363 1_455 S
C2020 C2025 1.379 . S
C2020 N2027 1.356 . S
C2021 C2020 1.363 1_655 S
C2021 C2024 1.363 . S
N2022 C2024 1.356 . S
N2022 H2034 0.984 . S
N2022 H2035 0.985 . S
N2023 C2025 1.356 . S
N2023 H2028 0.984 . S
N2023 H2029 0.985 . S
C2024 C2018 1.379 . S
C2024 C2021 1.363 . S
C2024 N2022 1.356 . S
C2025 C2019 1.363 . S
C2025 C2020 1.379 . S
C2025 N2023 1.356 . S
N2026 C2018 1.356 . S
N2026 H2032 0.984 . S
N2026 H2033 0.984 . S
N2027 C2020 1.356 . S
N2027 H2030 0.984 . S
N2027 H2031 0.985 . S
H2028 N2023 0.984 . S
H2029 N2023 0.985 . S
H2030 N2027 0.984 . S
H2031 N2027 0.985 . S
H2032 N2026 0.984 . S
H2033 N2026 0.984 . S
H2034 N2022 0.984 . S
H2035 N2022 0.985 . S
C2036 C2037 1.363 . S
C2036 C2042 1.379 . S
C2036 N2044 1.356 . S
C2037 C2036 1.363 . S
C2037 C2043 1.363 . S
C2038 C2039 1.363 . S
C2038 C2043 1.379 . S
C2038 N2045 1.356 . S
C2039 C2038 1.363 . S
C2039 C2042 1.363 . S
N2040 C2042 1.356 . S
N2040 H2052 0.984 . S
N2040 H2053 0.985 . S
N2041 C2043 1.356 . S
N2041 H2046 0.984 . S
N2041 H2047 0.985 . S
C2042 C2036 1.379 . S
C2042 C2039 1.363 . S
C2042 N2040 1.356 . S
C2043 C2037 1.363 . S
C2043 C2038 1.379 . S
C2043 N2041 1.356 . S
N2044 C2036 1.356 . S
N2044 H2050 0.984 . S
N2044 H2051 0.984 . S
N2045 C2038 1.356 . S
N2045 H2048 0.984 . S
N2045 H2049 0.985 . S
H2046 N2041 0.984 . S
H2047 N2041 0.985 . S
H2048 N2045 0.984 . S
H2049 N2045 0.985 . S
H2050 N2044 0.984 . S
H2051 N2044 0.984 . S
H2052 N2040 0.984 . S
H2053 N2040 0.985 . S
C2054 C2055 1.363 . S
C2054 C2060 1.379 . S
C2054 N2062 1.356 . S
C2055 C2054 1.363 . S
C2055 C2061 1.363 . S
C2056 C2057 1.363 . S
C2056 C2061 1.379 . S
C2056 N2063 1.356 . S
C2057 C2056 1.363 . S
C2057 C2060 1.363 . S
N2058 C2060 1.356 . S
N2058 H2070 0.984 . S
N2058 H2071 0.985 . S
N2059 C2061 1.356 . S
N2059 H2064 0.984 . S
N2059 H2065 0.985 . S
C2060 C2054 1.379 . S
C2060 C2057 1.363 . S
C2060 N2058 1.356 . S
C2061 C2055 1.363 . S
C2061 C2056 1.379 . S
C2061 N2059 1.356 . S
N2062 C2054 1.356 . S
N2062 H2068 0.984 . S
N2062 H2069 0.984 . S
N2063 C2056 1.356 . S
N2063 H2066 0.984 . S
N2063 H2067 0.985 . S
H2064 N2059 0.984 . S
H2065 N2059 0.985 . S
H2066 N2063 0.984 . S
H2067 N2063 0.985 . S
H2068 N2062 0.984 . S
H2069 N2062 0.984 . S
H2070 N2058 0.984 . S
H2071 N2058 0.985 . S
C2072 C2073 1.363 . S
C2072 C2078 1.379 1_455 S
C2072 N2080 1.356 . S
C2073 C2072 1.363 . S
C2073 C2079 1.363 . S
C2074 C2075 1.363 . S
C2074 C2079 1.379 1_655 S
C2074 N2081 1.356 . S
C2075 C2074 1.363 . S
C2075 C2078 1.363 . S
N2076 C2078 1.356 . S
N2076 H2088 0.984 . S
N2076 H2089 0.985 . S
N2077 C2079 1.356 . S
N2077 H2082 0.984 . S
N2077 H2083 0.985 . S
C2078 C2072 1.379 1_655 S
C2078 C2075 1.363 . S
C2078 N2076 1.356 . S
C2079 C2073 1.363 . S
C2079 C2074 1.379 1_455 S
C2079 N2077 1.356 . S
N2080 C2072 1.356 . S
N2080 H2086 0.984 . S
N2080 H2087 0.984 . S
N2081 C2074 1.356 . S
N2081 H2084 0.984 . S
N2081 H2085 0.985 . S
H2082 N2077 0.984 . S
H2083 N2077 0.985 . S
H2084 N2081 0.984 . S
H2085 N2081 0.985 . S
H2086 N2080 0.984 . S
H2087 N2080 0.984 . S
H2088 N2076 0.984 . S
H2089 N2076 0.985 . S
C2090 C2091 1.363 . S
C2090 C2096 1.379 . S
C2090 N2098 1.356 . S
C2091 C2090 1.363 . S
C2091 C2097 1.363 . S
C2092 C2093 1.363 . S
C2092 C2097 1.379 . S
C2092 N2099 1.356 . S
C2093 C2092 1.363 . S
C2093 C2096 1.363 . S
N2094 C2096 1.356 . S
N2094 H2106 0.984 . S
N2094 H2107 0.985 . S
N2095 C2097 1.356 . S
N2095 H2100 0.984 . S
N2095 H2101 0.985 . S
C2096 C2090 1.379 . S
C2096 C2093 1.363 . S
C2096 N2094 1.356 . S
C2097 C2091 1.363 . S
C2097 C2092 1.379 . S
C2097 N2095 1.356 . S
N2098 C2090 1.356 . S
N2098 H2104 0.984 . S
N2098 H2105 0.984 . S
N2099 C2092 1.356 . S
N2099 H2102 0.984 . S
N2099 H2103 0.985 . S
H2100 N2095 0.984 . S
H2101 N2095 0.985 . S
H2102 N2099 0.984 . S
H2103 N2099 0.985 . S
H2104 N2098 0.984 . S
H2105 N2098 0.984 . S
H2106 N2094 0.984 . S
H2107 N2094 0.985 . S
C2108 C2109 1.363 . S
C2108 C2114 1.379 . S
C2108 N2116 1.356 . S
C2109 C2108 1.363 . S
C2109 C2115 1.363 . S
C2110 C2111 1.363 . S
C2110 C2115 1.379 . S
C2110 N2117 1.356 . S
C2111 C2110 1.363 . S
C2111 C2114 1.363 . S
N2112 C2114 1.356 . S
N2112 H2124 0.984 . S
N2112 H2125 0.985 . S
N2113 C2115 1.356 . S
N2113 H2118 0.984 . S
N2113 H2119 0.985 . S
C2114 C2108 1.379 . S
C2114 C2111 1.363 . S
C2114 N2112 1.356 . S
C2115 C2109 1.363 . S
C2115 C2110 1.379 . S
C2115 N2113 1.356 . S
N2116 C2108 1.356 . S
N2116 H2122 0.984 . S
N2116 H2123 0.984 . S
N2117 C2110 1.356 . S
N2117 H2120 0.984 . S
N2117 H2121 0.985 . S
H2118 N2113 0.984 . S
H2119 N2113 0.985 . S
H2120 N2117 0.984 . S
H2121 N2117 0.985 . S
H2122 N2116 0.984 . S
H2123 N2116 0.984 . S
H2124 N2112 0.984 . S
H2125 N2112 0.985 . S
C2126 C2127 1.363 . S
C2126 C2132 1.379 . S
C2126 N2134 1.356 . S
C2127 C2126 1.363 . S
C2127 C2133 1.363 1_455 S
C2128 C2129 1.363 . S
C2128 C2133 1.379 . S
C2128 N2135 1.356 . S
C2129 C2128 1.363 . S
C2129 C2132 1.363 1_655 S
N2130 C2132 1.356 . S
N2130 H2142 0.984 . S
N2130 H2143 0.985 . S
N2131 C2133 1.356 . S
N2131 H2136 0.984 . S
N2131 H2137 0.985 . S
C2132 C2126 1.379 . S
C2132 C2129 1.363 1_455 S
C2132 N2130 1.356 . S
C2133 C2127 1.363 1_655 S
C2133 C2128 1.379 . S
C2133 N2131 1.356 . S
N2134 C2126 1.356 . S
N2134 H2140 0.984 . S
N2134 H2141 0.984 . S
N2135 C2128 1.356 . S
N2135 H2138 0.984 . S
N2135 H2139 0.985 . S
H2136 N2131 0.984 . S
H2137 N2131 0.985 . S
H2138 N2135 0.984 . S
H2139 N2135 0.985 . S
H2140 N2134 0.984 . S
H2141 N2134 0.984 . S
H2142 N2130 0.984 . S
H2143 N2130 0.985 . S
C2144 C2145 1.363 . S
C2144 C2150 1.379 . S
C2144 N2152 1.356 . S
C2145 C2144 1.363 . S
C2145 C2151 1.363 . S
C2146 C2147 1.363 . S
C2146 C2151 1.379 . S
C2146 N2153 1.356 . S
C2147 C2146 1.363 . S
C2147 C2150 1.363 . S
N2148 C2150 1.356 . S
N2148 H2160 0.984 . S
N2148 H2161 0.985 . S
N2149 C2151 1.356 . S
N2149 H2154 0.984 . S
N2149 H2155 0.985 . S
C2150 C2144 1.379 . S
C2150 C2147 1.363 . S
C2150 N2148 1.356 . S
C2151 C2145 1.363 . S
C2151 C2146 1.379 . S
C2151 N2149 1.356 . S
N2152 C2144 1.356 . S
N2152 H2158 0.984 . S
N2152 H2159 0.984 . S
N2153 C2146 1.356 . S
N2153 H2156 0.984 . S
N2153 H2157 0.985 . S
H2154 N2149 0.984 . S
H2155 N2149 0.985 . S
H2156 N2153 0.984 . S
H2157 N2153 0.985 . S
H2158 N2152 0.984 . S
H2159 N2152 0.984 . S
H2160 N2148 0.984 . S
H2161 N2148 0.985 . S
C2162 C2163 1.363 1_445 S
C2162 C2168 1.379 . S
C2162 N2170 1.356 . S
C2163 C2162 1.363 1_665 S
C2163 C2169 1.363 . S
C2164 C2165 1.363 1_665 S
C2164 C2169 1.379 . S
C2164 N2171 1.356 . S
C2165 C2164 1.363 1_445 S
C2165 C2168 1.363 . S
N2166 C2168 1.356 . S
N2166 H2178 0.984 . S
N2166 H2179 0.985 . S
N2167 C2169 1.356 . S
N2167 H2172 0.984 . S
N2167 H2173 0.985 . S
C2168 C2162 1.379 . S
C2168 C2165 1.363 . S
C2168 N2166 1.356 . S
C2169 C2163 1.363 . S
C2169 C2164 1.379 . S
C2169 N2167 1.356 . S
N2170 C2162 1.356 . S
N2170 H2176 0.984 . S
N2170 H2177 0.984 . S
N2171 C2164 1.356 . S
N2171 H2174 0.984 . S
N2171 H2175 0.985 . S
H2172 N2167 0.984 . S
H2173 N2167 0.985 . S
H2174 N2171 0.984 . S
H2175 N2171 0.985 . S
H2176 N2170 0.984 . S
H2177 N2170 0.984 . S
H2178 N2166 0.984 . S
H2179 N2166 0.985 . S
C2180 C2181 1.363 . S
C2180 C2186 1.379 . S
C2180 N2188 1.356 . S
C2181 C2180 1.363 . S
C2181 C2187 1.363 . S
C2182 C2183 1.363 . S
C2182 C2187 1.379 . S
C2182 N2189 1.356 . S
C2183 C2182 1.363 . S
C2183 C2186 1.363 . S
N2184 C2186 1.356 . S
N2184 H2196 0.984 . S
N2184 H2197 0.985 . S
N2185 C2187 1.356 . S
N2185 H2190 0.984 . S
N2185 H2191 0.985 . S
C2186 C2180 1.379 . S
C2186 C2183 1.363 . S
C2186 N2184 1.356 . S
C2187 C2181 1.363 . S
C2187 C2182 1.379 . S
C2187 N2185 1.356 . S
N2188 C2180 1.356 . S
N2188 H2194 0.984 . S
N2188 H2195 0.984 . S
N2189 C2182 1.356 . S
N2189 H2192 0.984 . S
N2189 H2193 0.985 . S
H2190 N2185 0.984 . S
H2191 N2185 0.985 . S
H2192 N2189 0.984 . S
H2193 N2189 0.985 . S
H2194 N2188 0.984 . S
H2195 N2188 0.984 . S
H2196 N2184 0.984 . S
H2197 N2184 0.985 . S
C2198 C2199 1.363 . S
C2198 C2204 1.379 1_554 S
C2198 N2206 1.356 . S
C2199 C2198 1.363 . S
C2199 C2205 1.363 1_565 S
C2200 C2201 1.363 . S
C2200 C2205 1.379 1_556 S
C2200 N2207 1.356 . S
C2201 C2200 1.363 . S
C2201 C2204 1.363 1_545 S
N2202 C2204 1.356 . S
N2202 H2214 0.984 . S
N2202 H2215 0.985 . S
N2203 C2205 1.356 . S
N2203 H2208 0.984 . S
N2203 H2209 0.985 . S
C2204 C2198 1.379 1_556 S
C2204 C2201 1.363 1_565 S
C2204 N2202 1.356 . S
C2205 C2199 1.363 1_545 S
C2205 C2200 1.379 1_554 S
C2205 N2203 1.356 . S
N2206 C2198 1.356 . S
N2206 H2212 0.984 . S
N2206 H2213 0.984 . S
N2207 C2200 1.356 . S
N2207 H2210 0.984 . S
N2207 H2211 0.985 . S
H2208 N2203 0.984 . S
H2209 N2203 0.985 . S
H2210 N2207 0.984 . S
H2211 N2207 0.985 . S
H2212 N2206 0.984 . S
H2213 N2206 0.984 . S
H2214 N2202 0.984 . S
H2215 N2202 0.985 . S
C2216 C2217 1.363 . S
C2216 C2222 1.379 . S
C2216 N2224 1.356 . S
C2217 C2216 1.363 . S
C2217 C2223 1.363 . S
C2218 C2219 1.363 . S
C2218 C2223 1.379 . S
C2218 N2225 1.356 . S
C2219 C2218 1.363 . S
C2219 C2222 1.363 . S
N2220 C2222 1.356 . S
N2220 H2232 0.984 . S
N2220 H2233 0.985 . S
N2221 C2223 1.356 . S
N2221 H2226 0.984 . S
N2221 H2227 0.985 . S
C2222 C2216 1.379 . S
C2222 C2219 1.363 . S
C2222 N2220 1.356 . S
C2223 C2217 1.363 . S
C2223 C2218 1.379 . S
C2223 N2221 1.356 . S
N2224 C2216 1.356 . S
N2224 H2230 0.984 . S
N2224 H2231 0.984 . S
N2225 C2218 1.356 . S
N2225 H2228 0.984 . S
N2225 H2229 0.985 . S
H2226 N2221 0.984 . S
H2227 N2221 0.985 . S
H2228 N2225 0.984 . S
H2229 N2225 0.985 . S
H2230 N2224 0.984 . S
H2231 N2224 0.984 . S
H2232 N2220 0.984 . S
H2233 N2220 0.985 . S
C2234 C2235 1.363 . S
C2234 C2240 1.379 . S
C2234 N2242 1.356 . S
C2235 C2234 1.363 . S
C2235 C2241 1.363 1_565 S
C2236 C2237 1.363 . S
C2236 C2241 1.379 . S
C2236 N2243 1.356 . S
C2237 C2236 1.363 . S
C2237 C2240 1.363 1_545 S
N2238 C2240 1.356 . S
N2238 H2250 0.984 . S
N2238 H2251 0.985 . S
N2239 C2241 1.356 . S
N2239 H2244 0.984 . S
N2239 H2245 0.985 . S
C2240 C2234 1.379 . S
C2240 C2237 1.363 1_565 S
C2240 N2238 1.356 . S
C2241 C2235 1.363 1_545 S
C2241 C2236 1.379 . S
C2241 N2239 1.356 . S
N2242 C2234 1.356 . S
N2242 H2248 0.984 . S
N2242 H2249 0.984 . S
N2243 C2236 1.356 . S
N2243 H2246 0.984 . S
N2243 H2247 0.985 . S
H2244 N2239 0.984 . S
H2245 N2239 0.985 . S
H2246 N2243 0.984 . S
H2247 N2243 0.985 . S
H2248 N2242 0.984 . S
H2249 N2242 0.984 . S
H2250 N2238 0.984 . S
H2251 N2238 0.985 . S
C2252 C2253 1.363 . S
C2252 C2258 1.379 . S
C2252 N2260 1.356 . S
C2253 C2252 1.363 . S
C2253 C2259 1.363 . S
C2254 C2255 1.363 . S
C2254 C2259 1.379 . S
C2254 N2261 1.356 . S
C2255 C2254 1.363 . S
C2255 C2258 1.363 . S
N2256 C2258 1.356 . S
N2256 H2268 0.984 . S
N2256 H2269 0.985 . S
N2257 C2259 1.356 . S
N2257 H2262 0.984 . S
N2257 H2263 0.985 . S
C2258 C2252 1.379 . S
C2258 C2255 1.363 . S
C2258 N2256 1.356 . S
C2259 C2253 1.363 . S
C2259 C2254 1.379 . S
C2259 N2257 1.356 . S
N2260 C2252 1.356 . S
N2260 H2266 0.984 . S
N2260 H2267 0.984 . S
N2261 C2254 1.356 . S
N2261 H2264 0.984 . S
N2261 H2265 0.985 . S
H2262 N2257 0.984 . S
H2263 N2257 0.985 . S
H2264 N2261 0.984 . S
H2265 N2261 0.985 . S
H2266 N2260 0.984 . S
H2267 N2260 0.984 . S
H2268 N2256 0.984 . S
H2269 N2256 0.985 . S
C2270 C2271 1.363 1_655 S
C2270 C2276 1.379 1_556 S
C2270 N2278 1.356 . S
C2271 C2270 1.363 1_455 S
C2271 C2277 1.363 1_565 S
C2272 C2273 1.363 1_455 S
C2272 C2277 1.379 1_554 S
C2272 N2279 1.356 . S
C2273 C2272 1.363 1_655 S
C2273 C2276 1.363 1_545 S
N2274 C2276 1.356 . S
N2274 H2286 0.984 . S
N2274 H2287 0.985 . S
N2275 C2277 1.356 . S
N2275 H2280 0.984 . S
N2275 H2281 0.985 . S
C2276 C2270 1.379 1_554 S
C2276 C2273 1.363 1_565 S
C2276 N2274 1.356 . S
C2277 C2271 1.363 1_545 S
C2277 C2272 1.379 1_556 S
C2277 N2275 1.356 . S
N2278 C2270 1.356 . S
N2278 H2284 0.984 . S
N2278 H2285 0.984 . S
N2279 C2272 1.356 . S
N2279 H2282 0.984 . S
N2279 H2283 0.985 . S
H2280 N2275 0.984 . S
H2281 N2275 0.985 . S
H2282 N2279 0.984 . S
H2283 N2279 0.985 . S
H2284 N2278 0.984 . S
H2285 N2278 0.984 . S
H2286 N2274 0.984 . S
H2287 N2274 0.985 . S
C2288 C2289 1.363 . S
C2288 C2294 1.379 . S
C2288 N2296 1.356 . S
C2289 C2288 1.363 . S
C2289 C2295 1.363 . S
C2290 C2291 1.363 . S
C2290 C2295 1.379 . S
C2290 N2297 1.356 . S
C2291 C2290 1.363 . S
C2291 C2294 1.363 . S
N2292 C2294 1.356 . S
N2292 H2304 0.984 . S
N2292 H2305 0.985 . S
N2293 C2295 1.356 . S
N2293 H2298 0.984 . S
N2293 H2299 0.985 . S
C2294 C2288 1.379 . S
C2294 C2291 1.363 . S
C2294 N2292 1.356 . S
C2295 C2289 1.363 . S
C2295 C2290 1.379 . S
C2295 N2293 1.356 . S
N2296 C2288 1.356 . S
N2296 H2302 0.984 . S
N2296 H2303 0.984 . S
N2297 C2290 1.356 . S
N2297 H2300 0.984 . S
N2297 H2301 0.985 . S
H2298 N2293 0.984 . S
H2299 N2293 0.985 . S
H2300 N2297 0.984 . S
H2301 N2297 0.985 . S
H2302 N2296 0.984 . S
H2303 N2296 0.984 . S
H2304 N2292 0.984 . S
H2305 N2292 0.985 . S
C2306 C2307 1.363 . S
C2306 C2312 1.379 . S
C2306 N2314 1.356 . S
C2307 C2306 1.363 . S
C2307 C2313 1.363 . S
C2308 C2309 1.363 . S
C2308 C2313 1.379 . S
C2308 N2315 1.356 . S
C2309 C2308 1.363 . S
C2309 C2312 1.363 . S
N2310 C2312 1.356 . S
N2310 H2322 0.984 . S
N2310 H2323 0.985 . S
N2311 C2313 1.356 . S
N2311 H2316 0.984 . S
N2311 H2317 0.985 . S
C2312 C2306 1.379 . S
C2312 C2309 1.363 . S
C2312 N2310 1.356 . S
C2313 C2307 1.363 . S
C2313 C2308 1.379 . S
C2313 N2311 1.356 . S
N2314 C2306 1.356 . S
N2314 H2320 0.984 . S
N2314 H2321 0.984 . S
N2315 C2308 1.356 . S
N2315 H2318 0.984 . S
N2315 H2319 0.985 . S
H2316 N2311 0.984 . S
H2317 N2311 0.985 . S
H2318 N2315 0.984 . S
H2319 N2315 0.985 . S
H2320 N2314 0.984 . S
H2321 N2314 0.984 . S
H2322 N2310 0.984 . S
H2323 N2310 0.985 . S
C2324 C2325 1.363 . S
C2324 C2330 1.379 . S
C2324 N2332 1.356 . S
C2325 C2324 1.363 . S
C2325 C2331 1.363 . S
C2326 C2327 1.363 . S
C2326 C2331 1.379 . S
C2326 N2333 1.356 . S
C2327 C2326 1.363 . S
C2327 C2330 1.363 . S
N2328 C2330 1.356 . S
N2328 H2340 0.984 . S
N2328 H2341 0.985 . S
N2329 C2331 1.356 . S
N2329 H2334 0.984 . S
N2329 H2335 0.985 . S
C2330 C2324 1.379 . S
C2330 C2327 1.363 . S
C2330 N2328 1.356 . S
C2331 C2325 1.363 . S
C2331 C2326 1.379 . S
C2331 N2329 1.356 . S
N2332 C2324 1.356 . S
N2332 H2338 0.984 . S
N2332 H2339 0.984 . S
N2333 C2326 1.356 . S
N2333 H2336 0.984 . S
N2333 H2337 0.985 . S
H2334 N2329 0.984 . S
H2335 N2329 0.985 . S
H2336 N2333 0.984 . S
H2337 N2333 0.985 . S
H2338 N2332 0.984 . S
H2339 N2332 0.984 . S
H2340 N2328 0.984 . S
H2341 N2328 0.985 . S
C2342 C2343 1.363 . S
C2342 C2348 1.379 . S
C2342 N2350 1.356 . S
C2343 C2342 1.363 . S
C2343 C2349 1.363 . S
C2344 C2345 1.363 . S
C2344 C2349 1.379 . S
C2344 N2351 1.356 . S
C2345 C2344 1.363 . S
C2345 C2348 1.363 . S
N2346 C2348 1.356 . S
N2346 H2358 0.984 . S
N2346 H2359 0.985 . S
N2347 C2349 1.356 . S
N2347 H2352 0.984 . S
N2347 H2353 0.985 . S
C2348 C2342 1.379 . S
C2348 C2345 1.363 . S
C2348 N2346 1.356 . S
C2349 C2343 1.363 . S
C2349 C2344 1.379 . S
C2349 N2347 1.356 . S
N2350 C2342 1.356 . S
N2350 H2356 0.984 . S
N2350 H2357 0.984 . S
N2351 C2344 1.356 . S
N2351 H2354 0.984 . S
N2351 H2355 0.985 . S
H2352 N2347 0.984 . S
H2353 N2347 0.985 . S
H2354 N2351 0.984 . S
H2355 N2351 0.985 . S
H2356 N2350 0.984 . S
H2357 N2350 0.984 . S
H2358 N2346 0.984 . S
H2359 N2346 0.985 . S
C2360 C2361 1.363 . S
C2360 C2366 1.379 1_554 S
C2360 N2368 1.356 . S
C2361 C2360 1.363 . S
C2361 C2367 1.363 . S
C2362 C2363 1.363 . S
C2362 C2367 1.379 1_556 S
C2362 N2369 1.356 . S
C2363 C2362 1.363 . S
C2363 C2366 1.363 . S
N2364 C2366 1.356 . S
N2364 H2376 0.984 . S
N2364 H2377 0.985 . S
N2365 C2367 1.356 . S
N2365 H2370 0.984 . S
N2365 H2371 0.985 . S
C2366 C2360 1.379 1_556 S
C2366 C2363 1.363 . S
C2366 N2364 1.356 . S
C2367 C2361 1.363 . S
C2367 C2362 1.379 1_554 S
C2367 N2365 1.356 . S
N2368 C2360 1.356 . S
N2368 H2374 0.984 . S
N2368 H2375 0.984 . S
N2369 C2362 1.356 . S
N2369 H2372 0.984 . S
N2369 H2373 0.985 . S
H2370 N2365 0.984 . S
H2371 N2365 0.985 . S
H2372 N2369 0.984 . S
H2373 N2369 0.985 . S
H2374 N2368 0.984 . S
H2375 N2368 0.984 . S
H2376 N2364 0.984 . S
H2377 N2364 0.985 . S
C2378 C2379 1.363 . S
C2378 C2384 1.379 . S
C2378 N2386 1.356 . S
C2379 C2378 1.363 . S
C2379 C2385 1.363 1_655 S
C2380 C2381 1.363 . S
C2380 C2385 1.379 . S
C2380 N2387 1.356 . S
C2381 C2380 1.363 . S
C2381 C2384 1.363 1_455 S
N2382 C2384 1.356 . S
N2382 H2394 0.984 . S
N2382 H2395 0.985 . S
N2383 C2385 1.356 . S
N2383 H2388 0.984 . S
N2383 H2389 0.985 . S
C2384 C2378 1.379 . S
C2384 C2381 1.363 1_655 S
C2384 N2382 1.356 . S
C2385 C2379 1.363 1_455 S
C2385 C2380 1.379 . S
C2385 N2383 1.356 . S
N2386 C2378 1.356 . S
N2386 H2392 0.984 . S
N2386 H2393 0.984 . S
N2387 C2380 1.356 . S
N2387 H2390 0.984 . S
N2387 H2391 0.985 . S
H2388 N2383 0.984 . S
H2389 N2383 0.985 . S
H2390 N2387 0.984 . S
H2391 N2387 0.985 . S
H2392 N2386 0.984 . S
H2393 N2386 0.984 . S
H2394 N2382 0.984 . S
H2395 N2382 0.985 . S
C2396 C2397 1.363 . S
C2396 C2402 1.379 1_554 S
C2396 N2404 1.356 . S
C2397 C2396 1.363 . S
C2397 C2403 1.363 1_455 S
C2398 C2399 1.363 . S
C2398 C2403 1.379 1_556 S
C2398 N2405 1.356 . S
C2399 C2398 1.363 . S
C2399 C2402 1.363 1_655 S
N2400 C2402 1.356 . S
N2400 H2412 0.984 . S
N2400 H2413 0.985 . S
N2401 C2403 1.356 . S
N2401 H2406 0.984 . S
N2401 H2407 0.985 . S
C2402 C2396 1.379 1_556 S
C2402 C2399 1.363 1_455 S
C2402 N2400 1.356 . S
C2403 C2397 1.363 1_655 S
C2403 C2398 1.379 1_554 S
C2403 N2401 1.356 . S
N2404 C2396 1.356 . S
N2404 H2410 0.984 . S
N2404 H2411 0.984 . S
N2405 C2398 1.356 . S
N2405 H2408 0.984 . S
N2405 H2409 0.985 . S
H2406 N2401 0.984 . S
H2407 N2401 0.985 . S
H2408 N2405 0.984 . S
H2409 N2405 0.985 . S
H2410 N2404 0.984 . S
H2411 N2404 0.984 . S
H2412 N2400 0.984 . S
H2413 N2400 0.985 . S
C2414 C2415 1.363 . S
C2414 C2420 1.379 . S
C2414 N2422 1.356 . S
C2415 C2414 1.363 . S
C2415 C2421 1.363 . S
C2416 C2417 1.363 . S
C2416 C2421 1.379 . S
C2416 N2423 1.356 . S
C2417 C2416 1.363 . S
C2417 C2420 1.363 . S
N2418 C2420 1.356 . S
N2418 H2430 0.984 . S
N2418 H2431 0.985 . S
N2419 C2421 1.356 . S
N2419 H2424 0.984 . S
N2419 H2425 0.985 . S
C2420 C2414 1.379 . S
C2420 C2417 1.363 . S
C2420 N2418 1.356 . S
C2421 C2415 1.363 . S
C2421 C2416 1.379 . S
C2421 N2419 1.356 . S
N2422 C2414 1.356 . S
N2422 H2428 0.984 . S
N2422 H2429 0.984 . S
N2423 C2416 1.356 . S
N2423 H2426 0.984 . S
N2423 H2427 0.985 . S
H2424 N2419 0.984 . S
H2425 N2419 0.985 . S
H2426 N2423 0.984 . S
H2427 N2423 0.985 . S
H2428 N2422 0.984 . S
H2429 N2422 0.984 . S
H2430 N2418 0.984 . S
H2431 N2418 0.985 . S
C2432 C2433 1.363 . S
C2432 C2438 1.379 . S
C2432 N2440 1.356 . S
C2433 C2432 1.363 . S
C2433 C2439 1.363 . S
C2434 C2435 1.363 . S
C2434 C2439 1.379 . S
C2434 N2441 1.356 . S
C2435 C2434 1.363 . S
C2435 C2438 1.363 . S
N2436 C2438 1.356 . S
N2436 H2448 0.984 . S
N2436 H2449 0.985 . S
N2437 C2439 1.356 . S
N2437 H2442 0.984 . S
N2437 H2443 0.985 . S
C2438 C2432 1.379 . S
C2438 C2435 1.363 . S
C2438 N2436 1.356 . S
C2439 C2433 1.363 . S
C2439 C2434 1.379 . S
C2439 N2437 1.356 . S
N2440 C2432 1.356 . S
N2440 H2446 0.984 . S
N2440 H2447 0.984 . S
N2441 C2434 1.356 . S
N2441 H2444 0.984 . S
N2441 H2445 0.985 . S
H2442 N2437 0.984 . S
H2443 N2437 0.985 . S
H2444 N2441 0.984 . S
H2445 N2441 0.985 . S
H2446 N2440 0.984 . S
H2447 N2440 0.984 . S
H2448 N2436 0.984 . S
H2449 N2436 0.985 . S
C2450 C2451 1.363 . S
C2450 C2456 1.379 . S
C2450 N2458 1.356 . S
C2451 C2450 1.363 . S
C2451 C2457 1.363 . S
C2452 C2453 1.363 . S
C2452 C2457 1.379 . S
C2452 N2459 1.356 . S
C2453 C2452 1.363 . S
C2453 C2456 1.363 . S
N2454 C2456 1.356 . S
N2454 H2466 0.984 . S
N2454 H2467 0.985 . S
N2455 C2457 1.356 . S
N2455 H2460 0.984 . S
N2455 H2461 0.985 . S
C2456 C2450 1.379 . S
C2456 C2453 1.363 . S
C2456 N2454 1.356 . S
C2457 C2451 1.363 . S
C2457 C2452 1.379 . S
C2457 N2455 1.356 . S
N2458 C2450 1.356 . S
N2458 H2464 0.984 . S
N2458 H2465 0.984 . S
N2459 C2452 1.356 . S
N2459 H2462 0.984 . S
N2459 H2463 0.985 . S
H2460 N2455 0.984 . S
H2461 N2455 0.985 . S
H2462 N2459 0.984 . S
H2463 N2459 0.985 . S
H2464 N2458 0.984 . S
H2465 N2458 0.984 . S
H2466 N2454 0.984 . S
H2467 N2454 0.985 . S
C2468 C2469 1.363 . S
C2468 C2474 1.379 . S
C2468 N2476 1.356 . S
C2469 C2468 1.363 . S
C2469 C2475 1.363 . S
C2470 C2471 1.363 . S
C2470 C2475 1.379 . S
C2470 N2477 1.356 . S
C2471 C2470 1.363 . S
C2471 C2474 1.363 . S
N2472 C2474 1.356 . S
N2472 H2484 0.984 . S
N2472 H2485 0.985 . S
N2473 C2475 1.356 . S
N2473 H2478 0.984 . S
N2473 H2479 0.985 . S
C2474 C2468 1.379 . S
C2474 C2471 1.363 . S
C2474 N2472 1.356 . S
C2475 C2469 1.363 . S
C2475 C2470 1.379 . S
C2475 N2473 1.356 . S
N2476 C2468 1.356 . S
N2476 H2482 0.984 . S
N2476 H2483 0.984 . S
N2477 C2470 1.356 . S
N2477 H2480 0.984 . S
N2477 H2481 0.985 . S
H2478 N2473 0.984 . S
H2479 N2473 0.985 . S
H2480 N2477 0.984 . S
H2481 N2477 0.985 . S
H2482 N2476 0.984 . S
H2483 N2476 0.984 . S
H2484 N2472 0.984 . S
H2485 N2472 0.985 . S
C2486 C2487 1.363 . S
C2486 C2492 1.379 . S
C2486 N2494 1.356 . S
C2487 C2486 1.363 . S
C2487 C2493 1.363 . S
C2488 C2489 1.363 . S
C2488 C2493 1.379 . S
C2488 N2495 1.356 . S
C2489 C2488 1.363 . S
C2489 C2492 1.363 . S
N2490 C2492 1.356 . S
N2490 H2502 0.984 . S
N2490 H2503 0.985 . S
N2491 C2493 1.356 . S
N2491 H2496 0.984 . S
N2491 H2497 0.985 . S
C2492 C2486 1.379 . S
C2492 C2489 1.363 . S
C2492 N2490 1.356 . S
C2493 C2487 1.363 . S
C2493 C2488 1.379 . S
C2493 N2491 1.356 . S
N2494 C2486 1.356 . S
N2494 H2500 0.984 . S
N2494 H2501 0.984 . S
N2495 C2488 1.356 . S
N2495 H2498 0.984 . S
N2495 H2499 0.985 . S
H2496 N2491 0.984 . S
H2497 N2491 0.985 . S
H2498 N2495 0.984 . S
H2499 N2495 0.985 . S
H2500 N2494 0.984 . S
H2501 N2494 0.984 . S
H2502 N2490 0.984 . S
H2503 N2490 0.985 . S
C2504 C2505 1.363 . S
C2504 C2510 1.379 . S
C2504 N2512 1.356 . S
C2505 C2504 1.363 . S
C2505 C2511 1.363 . S
C2506 C2507 1.363 . S
C2506 C2511 1.379 . S
C2506 N2513 1.356 . S
C2507 C2506 1.363 . S
C2507 C2510 1.363 . S
N2508 C2510 1.356 . S
N2508 H2520 0.984 . S
N2508 H2521 0.985 . S
N2509 C2511 1.356 . S
N2509 H2514 0.984 . S
N2509 H2515 0.985 . S
C2510 C2504 1.379 . S
C2510 C2507 1.363 . S
C2510 N2508 1.356 . S
C2511 C2505 1.363 . S
C2511 C2506 1.379 . S
C2511 N2509 1.356 . S
N2512 C2504 1.356 . S
N2512 H2518 0.984 . S
N2512 H2519 0.984 . S
N2513 C2506 1.356 . S
N2513 H2516 0.984 . S
N2513 H2517 0.985 . S
H2514 N2509 0.984 . S
H2515 N2509 0.985 . S
H2516 N2513 0.984 . S
H2517 N2513 0.985 . S
H2518 N2512 0.984 . S
H2519 N2512 0.984 . S
H2520 N2508 0.984 . S
H2521 N2508 0.985 . S
C2522 C2523 1.363 . S
C2522 C2528 1.379 . S
C2522 N2530 1.356 . S
C2523 C2522 1.363 . S
C2523 C2529 1.363 . S
C2524 C2525 1.363 . S
C2524 C2529 1.379 . S
C2524 N2531 1.356 . S
C2525 C2524 1.363 . S
C2525 C2528 1.363 . S
N2526 C2528 1.356 . S
N2526 H2538 0.984 . S
N2526 H2539 0.985 . S
N2527 C2529 1.356 . S
N2527 H2532 0.984 . S
N2527 H2533 0.985 . S
C2528 C2522 1.379 . S
C2528 C2525 1.363 . S
C2528 N2526 1.356 . S
C2529 C2523 1.363 . S
C2529 C2524 1.379 . S
C2529 N2527 1.356 . S
N2530 C2522 1.356 . S
N2530 H2536 0.984 . S
N2530 H2537 0.984 . S
N2531 C2524 1.356 . S
N2531 H2534 0.984 . S
N2531 H2535 0.985 . S
H2532 N2527 0.984 . S
H2533 N2527 0.985 . S
H2534 N2531 0.984 . S
H2535 N2531 0.985 . S
H2536 N2530 0.984 . S
H2537 N2530 0.984 . S
H2538 N2526 0.984 . S
H2539 N2526 0.985 . S
C2540 C2541 1.363 . S
C2540 C2546 1.379 . S
C2540 N2548 1.356 . S
C2541 C2540 1.363 . S
C2541 C2547 1.363 . S
C2542 C2543 1.363 . S
C2542 C2547 1.379 . S
C2542 N2549 1.356 . S
C2543 C2542 1.363 . S
C2543 C2546 1.363 . S
N2544 C2546 1.356 . S
N2544 H2556 0.984 . S
N2544 H2557 0.985 . S
N2545 C2547 1.356 . S
N2545 H2550 0.984 . S
N2545 H2551 0.985 . S
C2546 C2540 1.379 . S
C2546 C2543 1.363 . S
C2546 N2544 1.356 . S
C2547 C2541 1.363 . S
C2547 C2542 1.379 . S
C2547 N2545 1.356 . S
N2548 C2540 1.356 . S
N2548 H2554 0.984 . S
N2548 H2555 0.984 . S
N2549 C2542 1.356 . S
N2549 H2552 0.984 . S
N2549 H2553 0.985 . S
H2550 N2545 0.984 . S
H2551 N2545 0.985 . S
H2552 N2549 0.984 . S
H2553 N2549 0.985 . S
H2554 N2548 0.984 . S
H2555 N2548 0.984 . S
H2556 N2544 0.984 . S
H2557 N2544 0.985 . S
C2558 C2559 1.363 . S
C2558 C2564 1.379 . S
C2558 N2566 1.356 . S
C2559 C2558 1.363 . S
C2559 C2565 1.363 . S
C2560 C2561 1.363 . S
C2560 C2565 1.379 . S
C2560 N2567 1.356 . S
C2561 C2560 1.363 . S
C2561 C2564 1.363 . S
N2562 C2564 1.356 . S
N2562 H2574 0.984 . S
N2562 H2575 0.985 . S
N2563 C2565 1.356 . S
N2563 H2568 0.984 . S
N2563 H2569 0.985 . S
C2564 C2558 1.379 . S
C2564 C2561 1.363 . S
C2564 N2562 1.356 . S
C2565 C2559 1.363 . S
C2565 C2560 1.379 . S
C2565 N2563 1.356 . S
N2566 C2558 1.356 . S
N2566 H2572 0.984 . S
N2566 H2573 0.984 . S
N2567 C2560 1.356 . S
N2567 H2570 0.984 . S
N2567 H2571 0.985 . S
H2568 N2563 0.984 . S
H2569 N2563 0.985 . S
H2570 N2567 0.984 . S
H2571 N2567 0.985 . S
H2572 N2566 0.984 . S
H2573 N2566 0.984 . S
H2574 N2562 0.984 . S
H2575 N2562 0.985 . S
C2576 C2577 1.363 . S
C2576 C2582 1.379 . S
C2576 N2584 1.356 . S
C2577 C2576 1.363 . S
C2577 C2583 1.363 . S
C2578 C2579 1.363 . S
C2578 C2583 1.379 . S
C2578 N2585 1.356 . S
C2579 C2578 1.363 . S
C2579 C2582 1.363 . S
N2580 C2582 1.356 . S
N2580 H2592 0.984 . S
N2580 H2593 0.985 . S
N2581 C2583 1.356 . S
N2581 H2586 0.984 . S
N2581 H2587 0.985 . S
C2582 C2576 1.379 . S
C2582 C2579 1.363 . S
C2582 N2580 1.356 . S
C2583 C2577 1.363 . S
C2583 C2578 1.379 . S
C2583 N2581 1.356 . S
N2584 C2576 1.356 . S
N2584 H2590 0.984 . S
N2584 H2591 0.984 . S
N2585 C2578 1.356 . S
N2585 H2588 0.984 . S
N2585 H2589 0.985 . S
H2586 N2581 0.984 . S
H2587 N2581 0.985 . S
H2588 N2585 0.984 . S
H2589 N2585 0.985 . S
H2590 N2584 0.984 . S
H2591 N2584 0.984 . S
H2592 N2580 0.984 . S
H2593 N2580 0.985 . S
C2594 C2595 1.363 . S
C2594 C2600 1.379 . S
C2594 N2602 1.356 . S
C2595 C2594 1.363 . S
C2595 C2601 1.363 . S
C2596 C2597 1.363 . S
C2596 C2601 1.379 . S
C2596 N2603 1.356 . S
C2597 C2596 1.363 . S
C2597 C2600 1.363 . S
N2598 C2600 1.356 . S
N2598 H2610 0.984 . S
N2598 H2611 0.985 . S
N2599 C2601 1.356 . S
N2599 H2604 0.984 . S
N2599 H2605 0.985 . S
C2600 C2594 1.379 . S
C2600 C2597 1.363 . S
C2600 N2598 1.356 . S
C2601 C2595 1.363 . S
C2601 C2596 1.379 . S
C2601 N2599 1.356 . S
N2602 C2594 1.356 . S
N2602 H2608 0.984 . S
N2602 H2609 0.984 . S
N2603 C2596 1.356 . S
N2603 H2606 0.984 . S
N2603 H2607 0.985 . S
H2604 N2599 0.984 . S
H2605 N2599 0.985 . S
H2606 N2603 0.984 . S
H2607 N2603 0.985 . S
H2608 N2602 0.984 . S
H2609 N2602 0.984 . S
H2610 N2598 0.984 . S
H2611 N2598 0.985 . S
C2612 C2613 1.363 . S
C2612 C2618 1.379 . S
C2612 N2620 1.356 . S
C2613 C2612 1.363 . S
C2613 C2619 1.363 . S
C2614 C2615 1.363 . S
C2614 C2619 1.379 . S
C2614 N2621 1.356 . S
C2615 C2614 1.363 . S
C2615 C2618 1.363 . S
N2616 C2618 1.356 . S
N2616 H2628 0.984 . S
N2616 H2629 0.985 . S
N2617 C2619 1.356 . S
N2617 H2622 0.984 . S
N2617 H2623 0.985 . S
C2618 C2612 1.379 . S
C2618 C2615 1.363 . S
C2618 N2616 1.356 . S
C2619 C2613 1.363 . S
C2619 C2614 1.379 . S
C2619 N2617 1.356 . S
N2620 C2612 1.356 . S
N2620 H2626 0.984 . S
N2620 H2627 0.984 . S
N2621 C2614 1.356 . S
N2621 H2624 0.984 . S
N2621 H2625 0.985 . S
H2622 N2617 0.984 . S
H2623 N2617 0.985 . S
H2624 N2621 0.984 . S
H2625 N2621 0.985 . S
H2626 N2620 0.984 . S
H2627 N2620 0.984 . S
H2628 N2616 0.984 . S
H2629 N2616 0.985 . S
C2630 C2631 1.363 . S
C2630 C2636 1.379 . S
C2630 N2638 1.356 . S
C2631 C2630 1.363 . S
C2631 C2637 1.363 . S
C2632 C2633 1.363 . S
C2632 C2637 1.379 . S
C2632 N2639 1.356 . S
C2633 C2632 1.363 . S
C2633 C2636 1.363 . S
N2634 C2636 1.356 . S
N2634 H2646 0.984 . S
N2634 H2647 0.985 . S
N2635 C2637 1.356 . S
N2635 H2640 0.984 . S
N2635 H2641 0.985 . S
C2636 C2630 1.379 . S
C2636 C2633 1.363 . S
C2636 N2634 1.356 . S
C2637 C2631 1.363 . S
C2637 C2632 1.379 . S
C2637 N2635 1.356 . S
N2638 C2630 1.356 . S
N2638 H2644 0.984 . S
N2638 H2645 0.984 . S
N2639 C2632 1.356 . S
N2639 H2642 0.984 . S
N2639 H2643 0.985 . S
H2640 N2635 0.984 . S
H2641 N2635 0.985 . S
H2642 N2639 0.984 . S
H2643 N2639 0.985 . S
H2644 N2638 0.984 . S
H2645 N2638 0.984 . S
H2646 N2634 0.984 . S
H2647 N2634 0.985 . S
C2648 C2649 1.363 . S
C2648 C2654 1.379 . S
C2648 N2656 1.356 . S
C2649 C2648 1.363 . S
C2649 C2655 1.363 . S
C2650 C2651 1.363 . S
C2650 C2655 1.379 . S
C2650 N2657 1.356 . S
C2651 C2650 1.363 . S
C2651 C2654 1.363 . S
N2652 C2654 1.356 . S
N2652 H2664 0.984 . S
N2652 H2665 0.985 . S
N2653 C2655 1.356 . S
N2653 H2658 0.984 . S
N2653 H2659 0.985 . S
C2654 C2648 1.379 . S
C2654 C2651 1.363 . S
C2654 N2652 1.356 . S
C2655 C2649 1.363 . S
C2655 C2650 1.379 . S
C2655 N2653 1.356 . S
N2656 C2648 1.356 . S
N2656 H2662 0.984 . S
N2656 H2663 0.984 . S
N2657 C2650 1.356 . S
N2657 H2660 0.984 . S
N2657 H2661 0.985 . S
H2658 N2653 0.984 . S
H2659 N2653 0.985 . S
H2660 N2657 0.984 . S
H2661 N2657 0.985 . S
H2662 N2656 0.984 . S
H2663 N2656 0.984 . S
H2664 N2652 0.984 . S
H2665 N2652 0.985 . S
C2666 C2667 1.363 . S
C2666 C2672 1.379 . S
C2666 N2674 1.356 . S
C2667 C2666 1.363 . S
C2667 C2673 1.363 . S
C2668 C2669 1.363 . S
C2668 C2673 1.379 . S
C2668 N2675 1.356 . S
C2669 C2668 1.363 . S
C2669 C2672 1.363 . S
N2670 C2672 1.356 . S
N2670 H2682 0.984 . S
N2670 H2683 0.985 . S
N2671 C2673 1.356 . S
N2671 H2676 0.984 . S
N2671 H2677 0.985 . S
C2672 C2666 1.379 . S
C2672 C2669 1.363 . S
C2672 N2670 1.356 . S
C2673 C2667 1.363 . S
C2673 C2668 1.379 . S
C2673 N2671 1.356 . S
N2674 C2666 1.356 . S
N2674 H2680 0.984 . S
N2674 H2681 0.984 . S
N2675 C2668 1.356 . S
N2675 H2678 0.984 . S
N2675 H2679 0.985 . S
H2676 N2671 0.984 . S
H2677 N2671 0.985 . S
H2678 N2675 0.984 . S
H2679 N2675 0.985 . S
H2680 N2674 0.984 . S
H2681 N2674 0.984 . S
H2682 N2670 0.984 . S
H2683 N2670 0.985 . S
C2684 C2685 1.363 . S
C2684 C2690 1.379 . S
C2684 N2692 1.356 . S
C2685 C2684 1.363 . S
C2685 C2691 1.363 . S
C2686 C2687 1.363 . S
C2686 C2691 1.379 . S
C2686 N2693 1.356 . S
C2687 C2686 1.363 . S
C2687 C2690 1.363 . S
N2688 C2690 1.356 . S
N2688 H2700 0.984 . S
N2688 H2701 0.985 . S
N2689 C2691 1.356 . S
N2689 H2694 0.984 . S
N2689 H2695 0.985 . S
C2690 C2684 1.379 . S
C2690 C2687 1.363 . S
C2690 N2688 1.356 . S
C2691 C2685 1.363 . S
C2691 C2686 1.379 . S
C2691 N2689 1.356 . S
N2692 C2684 1.356 . S
N2692 H2698 0.984 . S
N2692 H2699 0.984 . S
N2693 C2686 1.356 . S
N2693 H2696 0.984 . S
N2693 H2697 0.985 . S
H2694 N2689 0.984 . S
H2695 N2689 0.985 . S
H2696 N2693 0.984 . S
H2697 N2693 0.985 . S
H2698 N2692 0.984 . S
H2699 N2692 0.984 . S
H2700 N2688 0.984 . S
H2701 N2688 0.985 . S
C2702 C2703 1.363 . S
C2702 C2708 1.379 . S
C2702 N2710 1.356 . S
C2703 C2702 1.363 . S
C2703 C2709 1.363 . S
C2704 C2705 1.363 . S
C2704 C2709 1.379 . S
C2704 N2711 1.356 . S
C2705 C2704 1.363 . S
C2705 C2708 1.363 . S
N2706 C2708 1.356 . S
N2706 H2718 0.984 . S
N2706 H2719 0.985 . S
N2707 C2709 1.356 . S
N2707 H2712 0.984 . S
N2707 H2713 0.985 . S
C2708 C2702 1.379 . S
C2708 C2705 1.363 . S
C2708 N2706 1.356 . S
C2709 C2703 1.363 . S
C2709 C2704 1.379 . S
C2709 N2707 1.356 . S
N2710 C2702 1.356 . S
N2710 H2716 0.984 . S
N2710 H2717 0.984 . S
N2711 C2704 1.356 . S
N2711 H2714 0.984 . S
N2711 H2715 0.985 . S
H2712 N2707 0.984 . S
H2713 N2707 0.985 . S
H2714 N2711 0.984 . S
H2715 N2711 0.985 . S
H2716 N2710 0.984 . S
H2717 N2710 0.984 . S
H2718 N2706 0.984 . S
H2719 N2706 0.985 . S
C2720 C2721 1.363 . S
C2720 C2726 1.379 1_545 S
C2720 N2728 1.356 . S
C2721 C2720 1.363 . S
C2721 C2727 1.363 . S
C2722 C2723 1.363 . S
C2722 C2727 1.379 1_565 S
C2722 N2729 1.356 . S
C2723 C2722 1.363 . S
C2723 C2726 1.363 . S
N2724 C2726 1.356 . S
N2724 H2736 0.984 . S
N2724 H2737 0.985 . S
N2725 C2727 1.356 . S
N2725 H2730 0.984 . S
N2725 H2731 0.985 . S
C2726 C2720 1.379 1_565 S
C2726 C2723 1.363 . S
C2726 N2724 1.356 . S
C2727 C2721 1.363 . S
C2727 C2722 1.379 1_545 S
C2727 N2725 1.356 . S
N2728 C2720 1.356 . S
N2728 H2734 0.984 . S
N2728 H2735 0.984 . S
N2729 C2722 1.356 . S
N2729 H2732 0.984 . S
N2729 H2733 0.985 . S
H2730 N2725 0.984 . S
H2731 N2725 0.985 . S
H2732 N2729 0.984 . S
H2733 N2729 0.985 . S
H2734 N2728 0.984 . S
H2735 N2728 0.984 . S
H2736 N2724 0.984 . S
H2737 N2724 0.985 . S
C2738 C2739 1.363 1_545 S
C2738 C2744 1.379 . S
C2738 N2746 1.356 . S
C2739 C2738 1.363 1_565 S
C2739 C2745 1.363 . S
C2740 C2741 1.363 . S
C2740 C2745 1.379 . S
C2740 N2747 1.356 . S
C2741 C2740 1.363 . S
C2741 C2744 1.363 1_565 S
N2742 C2744 1.356 . S
N2742 H2754 0.984 . S
N2742 H2755 0.985 . S
N2743 C2745 1.356 . S
N2743 H2748 0.984 . S
N2743 H2749 0.985 . S
C2744 C2738 1.379 . S
C2744 C2741 1.363 1_545 S
C2744 N2742 1.356 . S
C2745 C2739 1.363 . S
C2745 C2740 1.379 . S
C2745 N2743 1.356 . S
N2746 C2738 1.356 . S
N2746 H2752 0.984 . S
N2746 H2753 0.984 . S
N2747 C2740 1.356 . S
N2747 H2750 0.984 . S
N2747 H2751 0.985 . S
H2748 N2743 0.984 . S
H2749 N2743 0.985 . S
H2750 N2747 0.984 . S
H2751 N2747 0.985 . S
H2752 N2746 0.984 . S
H2753 N2746 0.984 . S
H2754 N2742 0.984 . S
H2755 N2742 0.985 . S
C2756 C2757 1.363 . S
C2756 C2762 1.379 1_545 S
C2756 N2764 1.356 . S
C2757 C2756 1.363 . S
C2757 C2763 1.363 . S
C2758 C2759 1.363 . S
C2758 C2763 1.379 1_565 S
C2758 N2765 1.356 . S
C2759 C2758 1.363 . S
C2759 C2762 1.363 . S
N2760 C2762 1.356 . S
N2760 H2772 0.984 . S
N2760 H2773 0.985 . S
N2761 C2763 1.356 . S
N2761 H2766 0.984 . S
N2761 H2767 0.985 . S
C2762 C2756 1.379 1_565 S
C2762 C2759 1.363 . S
C2762 N2760 1.356 . S
C2763 C2757 1.363 . S
C2763 C2758 1.379 1_545 S
C2763 N2761 1.356 . S
N2764 C2756 1.356 . S
N2764 H2770 0.984 . S
N2764 H2771 0.984 . S
N2765 C2758 1.356 . S
N2765 H2768 0.984 . S
N2765 H2769 0.985 . S
H2766 N2761 0.984 . S
H2767 N2761 0.985 . S
H2768 N2765 0.984 . S
H2769 N2765 0.985 . S
H2770 N2764 0.984 . S
H2771 N2764 0.984 . S
H2772 N2760 0.984 . S
H2773 N2760 0.985 . S
C2774 C2775 1.333 1_564 S
C2774 C2780 1.379 . S
C2774 N2782 1.356 . S
C2775 C2774 1.333 1_546 S
C2775 C2781 1.392 . S
C2776 C2777 1.333 1_556 S
C2776 C2781 1.379 . S
C2776 N2783 1.356 . S
C2777 C2776 1.333 1_554 S
C2777 C2780 1.392 1_545 S
N2778 C2780 1.356 . S
N2778 H2790 0.984 . S
N2778 H2791 0.985 . S
N2779 C2781 1.356 . S
N2779 H2784 0.984 . S
N2779 H2785 0.985 . S
C2780 C2774 1.379 . S
C2780 C2777 1.392 1_565 S
C2780 N2778 1.356 . S
C2781 C2775 1.392 . S
C2781 C2776 1.379 . S
C2781 N2779 1.356 . S
N2782 C2774 1.356 . S
N2782 H2788 0.984 . S
N2782 H2789 0.984 . S
N2783 C2776 1.356 . S
N2783 H2786 0.984 . S
N2783 H2787 0.985 . S
H2784 N2779 0.984 . S
H2785 N2779 0.985 . S
H2786 N2783 0.984 . S
H2787 N2783 0.985 . S
H2788 N2782 0.984 . S
H2789 N2782 0.984 . S
H2790 N2778 0.984 . S
H2791 N2778 0.985 . S
C2792 C2793 1.363 . S
C2792 C2798 1.379 1_565 S
C2792 N2800 1.356 . S
C2793 C2792 1.363 . S
C2793 C2799 1.363 . S
C2794 C2795 1.363 . S
C2794 C2799 1.379 1_545 S
C2794 N2801 1.356 . S
C2795 C2794 1.363 . S
C2795 C2798 1.363 . S
N2796 C2798 1.356 . S
N2796 H2808 0.984 . S
N2796 H2809 0.985 . S
N2797 C2799 1.356 . S
N2797 H2802 0.984 . S
N2797 H2803 0.985 . S
C2798 C2792 1.379 1_545 S
C2798 C2795 1.363 . S
C2798 N2796 1.356 . S
C2799 C2793 1.363 . S
C2799 C2794 1.379 1_565 S
C2799 N2797 1.356 . S
N2800 C2792 1.356 . S
N2800 H2806 0.984 . S
N2800 H2807 0.984 . S
N2801 C2794 1.356 . S
N2801 H2804 0.984 . S
N2801 H2805 0.985 . S
H2802 N2797 0.984 . S
H2803 N2797 0.985 . S
H2804 N2801 0.984 . S
H2805 N2801 0.985 . S
H2806 N2800 0.984 . S
H2807 N2800 0.984 . S
H2808 N2796 0.984 . S
H2809 N2796 0.985 . S
C2810 C2811 1.363 1_565 S
C2810 C2816 1.379 . S
C2810 N2818 1.356 . S
C2811 C2810 1.363 1_545 S
C2811 C2817 1.363 . S
C2812 C2813 1.363 . S
C2812 C2817 1.379 . S
C2812 N2819 1.356 . S
C2813 C2812 1.363 . S
C2813 C2816 1.363 1_545 S
N2814 C2816 1.356 . S
N2814 H2826 0.984 . S
N2814 H2827 0.985 . S
N2815 C2817 1.356 . S
N2815 H2820 0.984 . S
N2815 H2821 0.985 . S
C2816 C2810 1.379 . S
C2816 C2813 1.363 1_565 S
C2816 N2814 1.356 . S
C2817 C2811 1.363 . S
C2817 C2812 1.379 . S
C2817 N2815 1.356 . S
N2818 C2810 1.356 . S
N2818 H2824 0.984 . S
N2818 H2825 0.984 . S
N2819 C2812 1.356 . S
N2819 H2822 0.984 . S
N2819 H2823 0.985 . S
H2820 N2815 0.984 . S
H2821 N2815 0.985 . S
H2822 N2819 0.984 . S
H2823 N2819 0.985 . S
H2824 N2818 0.984 . S
H2825 N2818 0.984 . S
H2826 N2814 0.984 . S
H2827 N2814 0.985 . S
C2828 C2829 1.363 . S
C2828 C2834 1.379 1_565 S
C2828 N2836 1.356 . S
C2829 C2828 1.363 . S
C2829 C2835 1.363 . S
C2830 C2831 1.363 . S
C2830 C2835 1.379 1_545 S
C2830 N2837 1.356 . S
C2831 C2830 1.363 . S
C2831 C2834 1.363 . S
N2832 C2834 1.356 . S
N2832 H2844 0.984 . S
N2832 H2845 0.985 . S
N2833 C2835 1.356 . S
N2833 H2838 0.984 . S
N2833 H2839 0.985 . S
C2834 C2828 1.379 1_545 S
C2834 C2831 1.363 . S
C2834 N2832 1.356 . S
C2835 C2829 1.363 . S
C2835 C2830 1.379 1_565 S
C2835 N2833 1.356 . S
N2836 C2828 1.356 . S
N2836 H2842 0.984 . S
N2836 H2843 0.984 . S
N2837 C2830 1.356 . S
N2837 H2840 0.984 . S
N2837 H2841 0.985 . S
H2838 N2833 0.984 . S
H2839 N2833 0.985 . S
H2840 N2837 0.984 . S
H2841 N2837 0.985 . S
H2842 N2836 0.984 . S
H2843 N2836 0.984 . S
H2844 N2832 0.984 . S
H2845 N2832 0.985 . S
C2846 C2847 1.392 1_545 S
C2846 C2852 1.379 . S
C2846 N2854 1.356 . S
C2847 C2846 1.392 1_565 S
C2847 C2853 1.333 1_554 S
C2848 C2849 1.392 . S
C2848 C2853 1.379 . S
C2848 N2855 1.356 . S
C2849 C2848 1.392 . S
C2849 C2852 1.333 1_566 S
N2850 C2852 1.356 . S
N2850 H2862 0.984 . S
N2850 H2863 0.985 . S
N2851 C2853 1.356 . S
N2851 H2856 0.984 . S
N2851 H2857 0.985 . S
C2852 C2846 1.379 . S
C2852 C2849 1.333 1_544 S
C2852 N2850 1.356 . S
C2853 C2847 1.333 1_556 S
C2853 C2848 1.379 . S
C2853 N2851 1.356 . S
N2854 C2846 1.356 . S
N2854 H2860 0.984 . S
N2854 H2861 0.984 . S
N2855 C2848 1.356 . S
N2855 H2858 0.984 . S
N2855 H2859 0.985 . S
H2856 N2851 0.984 . S
H2857 N2851 0.985 . S
H2858 N2855 0.984 . S
H2859 N2855 0.985 . S
H2860 N2854 0.984 . S
H2861 N2854 0.984 . S
H2862 N2850 0.984 . S
H2863 N2850 0.985 . S
C2864 C2865 1.363 . S
C2864 C2870 1.379 . S
C2864 N2872 1.356 . S
C2865 C2864 1.363 . S
C2865 C2871 1.363 . S
C2866 C2867 1.363 . S
C2866 C2871 1.379 . S
C2866 N2873 1.356 . S
C2867 C2866 1.363 . S
C2867 C2870 1.363 . S
N2868 C2870 1.356 . S
N2868 H2880 0.984 . S
N2868 H2881 0.985 . S
N2869 C2871 1.356 . S
N2869 H2874 0.984 . S
N2869 H2875 0.985 . S
C2870 C2864 1.379 . S
C2870 C2867 1.363 . S
C2870 N2868 1.356 . S
C2871 C2865 1.363 . S
C2871 C2866 1.379 . S
C2871 N2869 1.356 . S
N2872 C2864 1.356 . S
N2872 H2878 0.984 . S
N2872 H2879 0.984 . S
N2873 C2866 1.356 . S
N2873 H2876 0.984 . S
N2873 H2877 0.985 . S
H2874 N2869 0.984 . S
H2875 N2869 0.985 . S
H2876 N2873 0.984 . S
H2877 N2873 0.985 . S
H2878 N2872 0.984 . S
H2879 N2872 0.984 . S
H2880 N2868 0.984 . S
H2881 N2868 0.985 . S
C2882 C2883 1.333 1_554 S
C2882 C2888 1.379 . S
C2882 N2890 1.356 . S
C2883 C2882 1.333 1_556 S
C2883 C2889 1.392 . S
C2884 C2885 1.333 1_556 S
C2884 C2889 1.379 . S
C2884 N2891 1.356 . S
C2885 C2884 1.333 1_554 S
C2885 C2888 1.392 . S
N2886 C2888 1.356 . S
N2886 H2898 0.984 . S
N2886 H2899 0.985 . S
N2887 C2889 1.356 . S
N2887 H2892 0.984 . S
N2887 H2893 0.985 . S
C2888 C2882 1.379 . S
C2888 C2885 1.392 . S
C2888 N2886 1.356 . S
C2889 C2883 1.392 . S
C2889 C2884 1.379 . S
C2889 N2887 1.356 . S
N2890 C2882 1.356 . S
N2890 H2896 0.984 . S
N2890 H2897 0.984 . S
N2891 C2884 1.356 . S
N2891 H2894 0.984 . S
N2891 H2895 0.985 . S
H2892 N2887 0.984 . S
H2893 N2887 0.985 . S
H2894 N2891 0.984 . S
H2895 N2891 0.985 . S
H2896 N2890 0.984 . S
H2897 N2890 0.984 . S
H2898 N2886 0.984 . S
H2899 N2886 0.985 . S
C2900 C2901 1.363 . S
C2900 C2906 1.379 . S
C2900 N2908 1.356 . S
C2901 C2900 1.363 . S
C2901 C2907 1.363 . S
C2902 C2903 1.363 . S
C2902 C2907 1.379 . S
C2902 N2909 1.356 . S
C2903 C2902 1.363 . S
C2903 C2906 1.363 . S
N2904 C2906 1.356 . S
N2904 H2916 0.984 . S
N2904 H2917 0.985 . S
N2905 C2907 1.356 . S
N2905 H2910 0.984 . S
N2905 H2911 0.985 . S
C2906 C2900 1.379 . S
C2906 C2903 1.363 . S
C2906 N2904 1.356 . S
C2907 C2901 1.363 . S
C2907 C2902 1.379 . S
C2907 N2905 1.356 . S
N2908 C2900 1.356 . S
N2908 H2914 0.984 . S
N2908 H2915 0.984 . S
N2909 C2902 1.356 . S
N2909 H2912 0.984 . S
N2909 H2913 0.985 . S
H2910 N2905 0.984 . S
H2911 N2905 0.985 . S
H2912 N2909 0.984 . S
H2913 N2909 0.985 . S
H2914 N2908 0.984 . S
H2915 N2908 0.984 . S
H2916 N2904 0.984 . S
H2917 N2904 0.985 . S
C2918 C2919 1.363 . S
C2918 C2924 1.379 . S
C2918 N2926 1.356 . S
C2919 C2918 1.363 . S
C2919 C2925 1.363 . S
C2920 C2921 1.363 . S
C2920 C2925 1.379 . S
C2920 N2927 1.356 . S
C2921 C2920 1.363 . S
C2921 C2924 1.363 . S
N2922 C2924 1.356 . S
N2922 H2934 0.984 . S
N2922 H2935 0.985 . S
N2923 C2925 1.356 . S
N2923 H2928 0.984 . S
N2923 H2929 0.985 . S
C2924 C2918 1.379 . S
C2924 C2921 1.363 . S
C2924 N2922 1.356 . S
C2925 C2919 1.363 . S
C2925 C2920 1.379 . S
C2925 N2923 1.356 . S
N2926 C2918 1.356 . S
N2926 H2932 0.984 . S
N2926 H2933 0.984 . S
N2927 C2920 1.356 . S
N2927 H2930 0.984 . S
N2927 H2931 0.985 . S
H2928 N2923 0.984 . S
H2929 N2923 0.985 . S
H2930 N2927 0.984 . S
H2931 N2927 0.985 . S
H2932 N2926 0.984 . S
H2933 N2926 0.984 . S
H2934 N2922 0.984 . S
H2935 N2922 0.985 . S
C2936 C2937 1.363 . S
C2936 C2942 1.379 . S
C2936 N2944 1.356 . S
C2937 C2936 1.363 . S
C2937 C2943 1.363 . S
C2938 C2939 1.363 . S
C2938 C2943 1.379 . S
C2938 N2945 1.356 . S
C2939 C2938 1.363 . S
C2939 C2942 1.363 . S
N2940 C2942 1.356 . S
N2940 H2952 0.984 . S
N2940 H2953 0.985 . S
N2941 C2943 1.356 . S
N2941 H2946 0.984 . S
N2941 H2947 0.985 . S
C2942 C2936 1.379 . S
C2942 C2939 1.363 . S
C2942 N2940 1.356 . S
C2943 C2937 1.363 . S
C2943 C2938 1.379 . S
C2943 N2941 1.356 . S
N2944 C2936 1.356 . S
N2944 H2950 0.984 . S
N2944 H2951 0.984 . S
N2945 C2938 1.356 . S
N2945 H2948 0.984 . S
N2945 H2949 0.985 . S
H2946 N2941 0.984 . S
H2947 N2941 0.985 . S
H2948 N2945 0.984 . S
H2949 N2945 0.985 . S
H2950 N2944 0.984 . S
H2951 N2944 0.984 . S
H2952 N2940 0.984 . S
H2953 N2940 0.985 . S
C2954 C2955 1.333 1_554 S
C2954 C2960 1.379 . S
C2954 N2962 1.356 . S
C2955 C2954 1.333 1_556 S
C2955 C2961 1.392 . S
C2956 C2957 1.333 1_556 S
C2956 C2961 1.379 . S
C2956 N2963 1.356 . S
C2957 C2956 1.333 1_554 S
C2957 C2960 1.392 . S
N2958 C2960 1.356 . S
N2958 H2970 0.984 . S
N2958 H2971 0.985 . S
N2959 C2961 1.356 . S
N2959 H2964 0.984 . S
N2959 H2965 0.985 . S
C2960 C2954 1.379 . S
C2960 C2957 1.392 . S
C2960 N2958 1.356 . S
C2961 C2955 1.392 . S
C2961 C2956 1.379 . S
C2961 N2959 1.356 . S
N2962 C2954 1.356 . S
N2962 H2968 0.984 . S
N2962 H2969 0.984 . S
N2963 C2956 1.356 . S
N2963 H2966 0.984 . S
N2963 H2967 0.985 . S
H2964 N2959 0.984 . S
H2965 N2959 0.985 . S
H2966 N2963 0.984 . S
H2967 N2963 0.985 . S
H2968 N2962 0.984 . S
H2969 N2962 0.984 . S
H2970 N2958 0.984 . S
H2971 N2958 0.985 . S
C2972 C2973 1.363 . S
C2972 C2978 1.379 . S
C2972 N2980 1.356 . S
C2973 C2972 1.363 . S
C2973 C2979 1.363 . S
C2974 C2975 1.363 . S
C2974 C2979 1.379 . S
C2974 N2981 1.356 . S
C2975 C2974 1.363 . S
C2975 C2978 1.363 . S
N2976 C2978 1.356 . S
N2976 H2988 0.984 . S
N2976 H2989 0.985 . S
N2977 C2979 1.356 . S
N2977 H2982 0.984 . S
N2977 H2983 0.985 . S
C2978 C2972 1.379 . S
C2978 C2975 1.363 . S
C2978 N2976 1.356 . S
C2979 C2973 1.363 . S
C2979 C2974 1.379 . S
C2979 N2977 1.356 . S
N2980 C2972 1.356 . S
N2980 H2986 0.984 . S
N2980 H2987 0.984 . S
N2981 C2974 1.356 . S
N2981 H2984 0.984 . S
N2981 H2985 0.985 . S
H2982 N2977 0.984 . S
H2983 N2977 0.985 . S
H2984 N2981 0.984 . S
H2985 N2981 0.985 . S
H2986 N2980 0.984 . S
H2987 N2980 0.984 . S
H2988 N2976 0.984 . S
H2989 N2976 0.985 . S
C2990 C2991 1.363 . S
C2990 C2996 1.379 . S
C2990 N2998 1.356 . S
C2991 C2990 1.363 . S
C2991 C2997 1.363 . S
C2992 C2993 1.363 . S
C2992 C2997 1.379 . S
C2992 N2999 1.356 . S
C2993 C2992 1.363 . S
C2993 C2996 1.363 . S
N2994 C2996 1.356 . S
N2994 H3006 0.984 . S
N2994 H3007 0.985 . S
N2995 C2997 1.356 . S
N2995 H3000 0.984 . S
N2995 H3001 0.985 . S
C2996 C2990 1.379 . S
C2996 C2993 1.363 . S
C2996 N2994 1.356 . S
C2997 C2991 1.363 . S
C2997 C2992 1.379 . S
C2997 N2995 1.356 . S
N2998 C2990 1.356 . S
N2998 H3004 0.984 . S
N2998 H3005 0.984 . S
N2999 C2992 1.356 . S
N2999 H3002 0.984 . S
N2999 H3003 0.985 . S
H3000 N2995 0.984 . S
H3001 N2995 0.985 . S
H3002 N2999 0.984 . S
H3003 N2999 0.985 . S
H3004 N2998 0.984 . S
H3005 N2998 0.984 . S
H3006 N2994 0.984 . S
H3007 N2994 0.985 . S
C1281 C7 0.994 . S
C1283 C1091 0.949 . S
C1299 C47 0.994 . S
C1301 C331 0.949 . S
C1317 C87 0.994 . S
C1319 C1011 0.949 . S
C1335 C411 0.949 . S
C1337 C127 0.994 . S
C1353 C167 0.994 . S
C1355 C1171 0.949 . S
C1371 C571 0.949 . S
C1373 C207 0.994 . S
C1389 C1251 0.949 . S
C1391 C247 0.994 . S
C1407 C287 0.994 . S
C1409 C491 0.949 . S
C1425 C336 0.994 . S
C1427 C762 0.949 . S
C1443 C376 0.994 . S
C1445 C2 0.949 . S
C1461 C682 0.949 . S
C1463 C416 0.994 . S
C1479 C82 0.949 . S
C1481 C456 0.994 . S
C1497 C496 0.994 . S
C1499 C842 0.949 . S
C1515 C536 0.994 . S
C1517 C242 0.949 . S
C1533 C576 0.994 . S
C1535 C922 0.949 . S
C1551 C162 0.949 . S
C1553 C616 0.994 . S
C1569 C451 0.949 . S
C1571 C647 0.994 . S
C1587 C971 0.949 . S
C1589 C687 0.994 . S
C1605 C371 0.949 . S
C1607 C727 0.994 . S
C1623 C767 0.994 . S
C1625 C1051 0.949 . S
C1641 C531 0.949 . S
C1643 C807 0.994 . S
C1659 C1211 0.949 . S
C1661 C847 0.994 . S
C1677 C611 0.949 . S
C1679 C887 0.994 . S
C1695 C927 0.994 . S
C1697 C1131 0.949 . S
C1713 C976 0.994 . S
C1715 C122 0.949 . S
C1731 C1016 0.994 . S
C1733 C642 0.949 . S
C1749 C1056 0.994 . S
C1751 C42 0.949 . S
C1767 C1096 0.994 . S
C1769 C722 0.949 . S
C1785 C202 0.949 . S
C1787 C1136 0.994 . S
C1803 C882 0.949 . S
C1805 C1176 0.994 . S
C1821 C1216 0.994 . S
C1823 C282 0.949 . S
C1839 C1256 0.994 . S
C1841 C802 0.949 . S
C1857 C19 3.007 . S
C1859 C739 3.007 . S
C1875 C779 3.007 1_455 S
C1877 C59 3.007 1_655 S
C1893 C99 3.008 . S
C1895 C659 3.008 . S
C1911 C139 3.007 . S
C1913 C699 3.007 . S
C1929 C899 3.007 . S
C1931 C179 3.007 . S
C1947 C219 3.007 . S
C1949 C939 3.007 . S
C1965 C819 3.008 . S
C1967 C259 3.008 . S
C1983 C299 3.007 1_655 S
C1985 C859 3.007 1_455 S
C2001 C1050 3.007 . S
C2003 C330 3.007 . S
C2019 C370 3.007 1_455 S
C2021 C1090 3.007 1_655 S
C2037 C410 3.008 . S
C2039 C970 3.008 . S
C2055 C450 3.007 . S
C2057 C1010 3.007 . S
C2073 C1210 3.007 . S
C2075 C490 3.007 . S
C2091 C1250 3.007 . S
C2093 C530 3.007 . S
C2109 C570 3.008 . S
C2111 C1130 3.008 . S
C2127 C610 3.007 1_455 S
C2129 C1170 3.007 1_655 S
C2145 C11 3.541 . S
C2147 C962 3.541 . S
C2163 C362 3.541 1_565 S
C2165 C51 3.541 1_545 S
C2181 C91 3.541 . S
C2183 C1042 3.541 . S
C2199 C131 3.541 1_565 S
C2201 C442 3.541 1_545 S
C2217 C1122 3.541 . S
C2219 C171 3.541 . S
C2235 C522 3.541 1_565 S
C2237 C211 3.541 1_545 S
C2253 C251 3.541 . S
C2255 C1202 3.541 . S
C2271 C291 3.541 1_565 S
C2273 C602 3.541 1_545 S
C2289 C651 3.541 . S
C2291 C322 3.541 . S
C2307 C731 3.541 . S
C2309 C402 3.541 . S
C2325 C811 3.541 . S
C2327 C482 3.541 . S
C2343 C562 3.541 . S
C2345 C891 3.541 . S
C2361 C691 3.541 . S
C2363 C1002 3.541 . S
C2379 C771 3.541 . S
C2381 C1082 3.541 . S
C2397 C1162 3.541 . S
C2399 C851 3.541 . S
C2415 C1242 3.541 . S
C2417 C931 3.541 . S
C2433 C10 4.570 . S
C2435 C210 4.570 . S
C2451 C250 4.570 . S
C2453 C50 4.570 . S
C2469 C290 4.570 . S
C2471 C90 4.570 . S
C2487 C170 4.570 . S
C2489 C130 4.570 . S
C2505 C339 4.570 . S
C2507 C539 4.570 . S
C2523 C379 4.570 . S
C2525 C579 4.570 . S
C2541 C619 4.570 . S
C2543 C419 4.570 . S
C2559 C459 4.570 . S
C2561 C499 4.570 . S
C2577 C650 4.570 . S
C2579 C850 4.570 . S
C2595 C690 4.570 . S
C2597 C890 4.570 . S
C2613 C730 4.570 . S
C2615 C930 4.570 . S
C2631 C810 4.570 . S
C2633 C770 4.570 . S
C2649 C979 4.570 . S
C2651 C1179 4.570 . S
C2667 C1019 4.570 . S
C2669 C1219 4.570 . S
C2685 C1259 4.570 . S
C2687 C1059 4.570 . S
C2703 C1099 4.570 . S
C2705 C1139 4.570 . S
C2721 C16 0.711 . S
C2723 C176 0.711 . S
C2739 C56 0.710 . S
C2741 C216 0.710 . S
C2757 C256 0.711 . S
C2759 C96 0.711 . S
C2775 C296 0.761 . S
C2777 C136 0.761 . S
C2793 C327 0.711 . S
C2795 C487 0.711 . S
C2811 C527 0.710 . S
C2813 C367 0.710 . S
C2829 C567 0.711 . S
C2831 C407 0.711 . S
C2847 C607 0.761 . S
C2849 C447 0.761 . S
C2865 C656 0.711 . S
C2867 C816 0.711 . S
C2883 C856 0.761 . S
C2885 C696 0.761 . S
C2901 C736 0.711 . S
C2903 C896 0.711 . S
C2919 C936 0.710 . S
C2921 C776 0.710 . S
C2937 C1127 0.711 . S
C2939 C967 0.711 . S
C2955 C1007 0.761 . S
C2957 C1167 0.761 . S
C2973 C1047 0.711 . S
C2975 C1207 0.711 . S
C2991 C1087 0.710 . S
C2993 C1247 0.710 . S
