# Generated by pormake.
# Topology sml, (6)-cn, num edge types: 1
# Building blocks:
#     Node 0, Type 0, BuildingBlock: KUMJIN_clean_sbu_1, # of connection points: 6
#     Node 1, Type 0, BuildingBlock: KUMJIN_clean_sbu_1, # of connection points: 6
#     Node 2, Type 0, BuildingBlock: KUMJIN_clean_sbu_1, # of connection points: 6
#     Node 3, Type 0, BuildingBlock: KUMJIN_clean_sbu_1, # of connection points: 6
#     Node 4, Type 0, BuildingBlock: KUMJIN_clean_sbu_1, # of connection points: 6
#     Node 5, Type 0, BuildingBlock: KUMJIN_clean_sbu_1, # of connection points: 6
#     Edge 6, Type (0, 0), BuildingBlock: XUDNAN_clean_linker_2, # of connection points: 2
#     Edge 7, Type (0, 0), BuildingBlock: XUDNAN_clean_linker_2, # of connection points: 2
#     Edge 8, Type (0, 0), BuildingBlock: XUDNAN_clean_linker_2, # of connection points: 2
#     Edge 9, Type (0, 0), BuildingBlock: XUDNAN_clean_linker_2, # of connection points: 2
#     Edge 10, Type (0, 0), BuildingBlock: XUDNAN_clean_linker_2, # of connection points: 2
#     Edge 11, Type (0, 0), BuildingBlock: XUDNAN_clean_linker_2, # of connection points: 2
#     Edge 12, Type (0, 0), BuildingBlock: XUDNAN_clean_linker_2, # of connection points: 2
#     Edge 13, Type (0, 0), BuildingBlock: XUDNAN_clean_linker_2, # of connection points: 2
#     Edge 14, Type (0, 0), BuildingBlock: XUDNAN_clean_linker_2, # of connection points: 2
#     Edge 15, Type (0, 0), BuildingBlock: XUDNAN_clean_linker_2, # of connection points: 2
#     Edge 16, Type (0, 0), BuildingBlock: XUDNAN_clean_linker_2, # of connection points: 2
#     Edge 17, Type (0, 0), BuildingBlock: XUDNAN_clean_linker_2, # of connection points: 2
#     Edge 18, Type (0, 0), BuildingBlock: XUDNAN_clean_linker_2, # of connection points: 2
#     Edge 19, Type (0, 0), BuildingBlock: XUDNAN_clean_linker_2, # of connection points: 2
#     Edge 20, Type (0, 0), BuildingBlock: XUDNAN_clean_linker_2, # of connection points: 2
#     Edge 21, Type (0, 0), BuildingBlock: XUDNAN_clean_linker_2, # of connection points: 2
#     Edge 22, Type (0, 0), BuildingBlock: XUDNAN_clean_linker_2, # of connection points: 2
#     Edge 23, Type (0, 0), BuildingBlock: XUDNAN_clean_linker_2, # of connection points: 2
# Relax obj value: 0.063
# Max RMSD: 0.175
# Mean RMSD: 0.175
data_MOF--net-sml--node1-KUMJIN_clean_sbu_1--edge1-XUDNAN_clean_linker_2
_symmetry_space_group_name_H-M    P1
_symmetry_Int_Tables_number       1
_symmetry_cell_setting            triclinic
loop_
_symmetry_equiv_pos_as_xyz
'x, y, z'
_cell_length_a     33.19249
_cell_length_b     33.170558
_cell_length_c     24.300242
_cell_angle_alpha  90.051843
_cell_angle_beta   90.104912
_cell_angle_gamma 119.8588
loop_
_atom_site_label
_atom_site_type_symbol
_atom_site_fract_x
_atom_site_fract_y
_atom_site_fract_z
_atom_type_partial_charge
Eu0 Eu 0.17878 0.41487 0.95378 0.0
C1 C 0.36531 0.47497 0.08685 0.0
N2 N 0.32991 0.43218 0.07318 0.0
C3 C 0.38401 0.40749 0.04806 0.0
C4 C 0.41196 0.48607 0.08018 0.0
C5 C 0.33838 0.39811 0.05547 0.0
C6 C 0.421 0.45176 0.06011 0.0
C7 C 0.39103 0.55212 0.12309 0.0
C8 C 0.35482 0.5076 0.10778 0.0
C9 C 0.4375 0.56382 0.11489 0.0
C10 C 0.44793 0.53084 0.09359 0.0
Eu11 Eu 0.25416 0.41832 0.08853 0.0
N12 N 0.30948 0.49508 0.11591 0.0
C13 C 0.37955 0.583 0.14816 0.0
C14 C 0.29843 0.52398 0.14388 0.0
C15 C 0.33314 0.56844 0.15965 0.0
H16 H 0.30993 0.36362 0.04734 0.0
H17 H 0.32424 0.59101 0.18202 0.0
H18 H 0.15053 0.49906 0.97783 0.0
H19 H 0.06136 0.23232 0.90636 0.0
H20 H 0.26317 0.51256 0.15605 0.0
H21 H 0.40632 0.61737 0.1609 0.0
H22 H 0.13686 0.30599 0.91016 0.0
H23 H 0.39063 0.38051 0.03339 0.0
H24 H 0.46567 0.59794 0.12607 0.0
H25 H 0.48393 0.54009 0.08835 0.0
H26 H 0.08313 0.5042 0.01051 0.0
H27 H 0.45633 0.45895 0.05434 0.0
H28 H 0.99047 0.22977 0.94265 0.0
N29 N 0.11549 0.425 0.98013 0.0
C30 C 0.07347 0.38543 0.98347 0.0
C31 C 0.0801 0.47052 1.00398 0.0
C32 C 0.03348 0.38685 1.0001 0.0
C33 C 0.11857 0.46738 0.98653 0.0
C34 C 0.03758 0.43003 0.01198 0.0
N35 N 0.10852 0.34354 0.94929 0.0
C36 C 0.10584 0.30482 0.92593 0.0
C37 C 0.02608 0.30262 0.96539 0.0
C38 C 0.06967 0.34371 0.96641 0.0
C39 C 0.02335 0.26201 0.94425 0.0
C40 C 0.06331 0.26329 0.92373 0.0
H41 H 0.00771 0.4326 0.0249 0.0
H42 H 0.95945 0.34593 0.01538 0.0
H43 H 0.95298 0.27219 0.98484 0.0
O44 O 0.1979 0.40822 0.86912 0.0
O45 O 0.15112 0.35594 0.01679 0.0
O46 O 0.17832 0.39654 0.09634 0.0
O47 O 0.1521 0.4356 0.88377 0.0
O48 O 0.22158 0.37937 0.94429 0.0
O49 O 0.22991 0.35549 0.03167 0.0
O50 O 0.27074 0.42218 0.17622 0.0
O51 O 0.29218 0.4461 1.00718 0.0
O52 O 0.25065 0.47665 0.96689 0.0
O53 O 0.23858 0.35577 0.13474 0.0
O54 O 0.21081 0.45375 0.09322 0.0
O55 O 0.20903 0.48118 1.00623 0.0
C56 C 0.14562 0.3615 0.06911 0.0
C57 C 0.19589 0.45873 0.8011 0.0
C58 C 0.2183 0.47178 0.70431 0.0
C59 C 0.22902 0.51818 0.70965 0.0
C60 C 0.20757 0.50554 0.80602 0.0
C61 C 0.22387 0.53497 0.76037 0.0
C62 C 0.20163 0.4421 0.75009 0.0
C63 C 0.2307 0.35339 0.97734 0.0
C64 C 0.17441 0.42584 0.84708 0.0
C65 C 0.99039 0.34553 1.00209 0.0
C66 C 0.98667 0.30354 0.98456 0.0
C67 C 0.28854 0.47366 0.97099 0.0
C68 C 0.21594 0.3576 0.2274 0.0
C69 C 0.19611 0.35839 0.32461 0.0
C70 C 0.15094 0.3217 0.31336 0.0
C71 C 0.17046 0.32131 0.2175 0.0
C72 C 0.22847 0.37606 0.28102 0.0
C73 C 0.13836 0.30352 0.26027 0.0
C74 C 0.20804 0.4838 0.06035 0.0
C75 C 0.25017 0.3773 0.18207 0.0
H76 H 0.2417 0.54143 0.67467 0.0
H77 H 0.20354 0.5192 0.84484 0.0
H78 H 0.23255 0.57092 0.76432 0.0
H79 H 0.19242 0.40596 0.74574 0.0
H80 H 0.1253 0.30647 0.34569 0.0
H81 H 0.15952 0.30662 0.17672 0.0
H82 H 0.26323 0.40473 0.28839 0.0
H83 H 0.10349 0.27538 0.25221 0.0
Eu84 Eu 0.83189 0.25433 0.40715 0.0
C85 C 0.64086 0.11056 0.30472 0.0
N86 N 0.67872 0.10503 0.30876 0.0
C87 C 0.63092 0.02626 0.33816 0.0
C88 C 0.59629 0.07389 0.31841 0.0
C89 C 0.67444 0.06365 0.32448 0.0
C90 C 0.59168 0.03142 0.33529 0.0
C91 C 0.60833 0.16047 0.28542 0.0
C92 C 0.64695 0.1536 0.28852 0.0
C93 C 0.56389 0.12387 0.29878 0.0
C94 C 0.5579 0.08077 0.31526 0.0
Eu95 Eu 0.7502 0.16962 0.2839 0.0
N96 N 0.69061 0.18891 0.27697 0.0
C97 C 0.61549 0.20397 0.26898 0.0
C98 C 0.69736 0.23065 0.25861 0.0
C99 C 0.66012 0.23905 0.25511 0.0
H100 H 0.70449 0.05924 0.32538 0.0
H101 H 0.66581 0.27246 0.24111 0.0
H102 H 0.85483 0.36428 0.39312 0.0
H103 H 0.94911 0.18435 0.43118 0.0
H104 H 0.73102 0.25732 0.24545 0.0
H105 H 0.58672 0.21062 0.26614 0.0
H106 H 0.87301 0.18052 0.42492 0.0
H107 H 0.62764 0.99344 0.35064 0.0
H108 H 0.53389 0.12861 0.2967 0.0
H109 H 0.5234 0.05301 0.32568 0.0
H110 H 0.92373 0.44288 0.3855 0.0
H111 H 0.55801 0.0024 0.34605 0.0
H112 H 0.02159 0.26025 0.42423 0.0
N113 N 0.89473 0.33059 0.40146 0.0
C114 C 0.93768 0.33516 0.40448 0.0
C115 C 0.9281 0.41288 0.3908 0.0
C116 C 0.97785 0.37934 0.40105 0.0
C117 C 0.88924 0.36842 0.39477 0.0
C118 C 0.97259 0.41837 0.39391 0.0
N119 N 0.90219 0.25319 0.41291 0.0
C120 C 0.90436 0.21368 0.42143 0.0
C121 C 0.98569 0.29931 0.41453 0.0
C122 C 0.94157 0.29551 0.41086 0.0
C123 C 0.98828 0.25874 0.42135 0.0
C124 C 0.94743 0.21581 0.42519 0.0
H125 H 1.00262 0.45284 0.39074 0.0
H126 H 0.05309 0.41681 0.40162 0.0
H127 H 0.05985 0.34676 0.41286 0.0
O128 O 0.80439 0.22462 0.48793 0.0
O129 O 0.87064 0.24885 0.33374 0.0
O130 O 0.82314 0.17941 0.28859 0.0
O131 O 0.84573 0.29919 0.47912 0.0
O132 O 0.79297 0.17595 0.42227 0.0
O133 O 0.78119 0.13731 0.33908 0.0
O134 O 0.74881 0.17862 0.19418 0.0
O135 O 0.71744 0.17306 0.36567 0.0
O136 O 0.76546 0.24928 0.37952 0.0
O137 O 0.73116 0.11085 0.22868 0.0
O138 O 0.79949 0.24558 0.2634 0.0
O139 O 0.80745 0.28745 0.34283 0.0
C140 C 0.86333 0.21784 0.29555 0.0
C141 C 0.85147 0.26615 0.56314 0.0
C142 C 0.85278 0.25168 0.66155 0.0
C143 C 0.89958 0.26336 0.6567 0.0
C144 C 0.89823 0.27787 0.55942 0.0
C145 C 0.9221 0.27653 0.606 0.0
C146 C 0.82888 0.25339 0.6144 0.0
C147 C 0.78203 0.13825 0.39323 0.0
C148 C 0.82539 0.26455 0.51335 0.0
C149 C 0.02184 0.38318 0.40457 0.0
C150 C 0.02572 0.34329 0.41128 0.0
C151 C 0.72701 0.21164 0.39115 0.0
C152 C 0.7279 0.11469 0.12886 0.0
C153 C 0.7367 0.12258 0.02877 0.0
C154 C 0.71581 0.074 0.02434 0.0
C155 C 0.70708 0.06623 0.12307 0.0
C156 C 0.74221 0.14284 0.08132 0.0
C157 C 0.70102 0.04614 0.07113 0.0
C158 C 0.81278 0.28522 0.2892 0.0
C159 C 0.73627 0.13524 0.18465 0.0
H160 H 0.91891 0.26269 0.69232 0.0
H161 H 0.91622 0.28777 0.52051 0.0
H162 H 0.95815 0.28553 0.60275 0.0
H163 H 0.79257 0.24373 0.61728 0.0
H164 H 0.71071 0.05746 0.98447 0.0
H165 H 0.6957 0.04375 0.15878 0.0
H166 H 0.75886 0.18031 0.08523 0.0
H167 H 0.68515 0.00883 0.06712 0.0
Eu168 Eu 0.56205 0.73975 0.61628 0.0
C169 C 0.55034 0.90203 0.76221 0.0
N170 N 0.59051 0.90235 0.75063 0.0
C171 C 0.63159 0.98554 0.74552 0.0
C172 C 0.54947 0.94403 0.76622 0.0
C173 C 0.6309 0.94311 0.74255 0.0
C174 C 0.59072 0.98603 0.75756 0.0
C175 C 0.46777 0.85856 0.78218 0.0
C176 C 0.50994 0.8596 0.77026 0.0
C177 C 0.46693 0.90035 0.78649 0.0
C178 C 0.50773 0.94291 0.77906 0.0
Eu179 Eu 0.5868 0.8297 0.74929 0.0
N180 N 0.51182 0.81954 0.76666 0.0
C181 C 0.42774 0.81554 0.79035 0.0
C182 C 0.47311 0.77775 0.77685 0.0
C183 C 0.43051 0.77501 0.78792 0.0
H184 H 0.66282 0.94296 0.73438 0.0
H185 H 0.39995 0.74161 0.79546 0.0
H186 H 0.47013 0.63619 0.64796 0.0
H187 H 0.73988 0.78533 0.56385 0.0
H188 H 0.47457 0.74636 0.77787 0.0
H189 H 0.39476 0.81331 0.79954 0.0
H190 H 0.67584 0.80049 0.58386 0.0
H191 H 0.66369 0.01781 0.73896 0.0
H192 H 0.43496 0.90015 0.79614 0.0
H193 H 0.50673 0.97482 0.78387 0.0
H194 H 0.45155 0.55456 0.65798 0.0
H195 H 0.59138 0.01898 0.76016 0.0
H196 H 0.72674 0.70524 0.56995 0.0
N197 N 0.54069 0.6609 0.62677 0.0
C198 C 0.57436 0.64998 0.61637 0.0
C199 C 0.48625 0.58107 0.64643 0.0
C200 C 0.56512 0.60374 0.62086 0.0
C201 C 0.49698 0.62735 0.64125 0.0
C202 C 0.52046 0.56919 0.63622 0.0
N203 N 0.62663 0.72973 0.59936 0.0
C204 C 0.6694 0.76537 0.58536 0.0
C205 C 0.65422 0.67509 0.59138 0.0
C206 C 0.61841 0.68525 0.60172 0.0
C207 C 0.6983 0.71161 0.57764 0.0
C208 C 0.70585 0.75688 0.57429 0.0
H209 H 0.51202 0.5333 0.64019 0.0
H210 H 0.59417 0.55814 0.61328 0.0
H211 H 0.67215 0.6206 0.5875 0.0
O212 O 0.56445 0.7632 0.53038 0.0
O213 O 0.60909 0.73882 0.68378 0.0
O214 O 0.64124 0.81297 0.71824 0.0
O215 O 0.51258 0.69291 0.55566 0.0
O216 O 0.6117 0.81659 0.60075 0.0
O217 O 0.63501 0.86738 0.67705 0.0
O218 O 0.58116 0.8205 0.83965 0.0
O219 O 0.54952 0.83879 0.67612 0.0
O220 O 0.51458 0.76348 0.65109 0.0
O221 O 0.64465 0.87568 0.8025 0.0
O222 O 0.55312 0.75139 0.76406 0.0
O223 O 0.51027 0.71888 0.68565 0.0
C224 C 0.63748 0.77174 0.71754 0.0
C225 C 0.50963 0.7114 0.45958 0.0
C226 C 0.51131 0.72897 0.36127 0.0
C227 C 0.47121 0.68543 0.35353 0.0
C228 C 0.46988 0.66794 0.45015 0.0
C229 C 0.4507 0.65532 0.39764 0.0
C230 C 0.53014 0.74215 0.41486 0.0
C231 C 0.63603 0.85808 0.624 0.0
C232 C 0.52965 0.72295 0.51584 0.0
C233 C 0.60064 0.59347 0.61014 0.0
C234 C 0.64506 0.62904 0.59543 0.0
C235 C 0.52191 0.80545 0.64261 0.0
C236 C 0.64462 0.87144 0.90256 0.0
C237 C 0.64047 0.87284 1.00326 0.0
C238 C 0.68763 0.90713 1.00473 0.0
C239 C 0.69185 0.90555 0.90561 0.0
C240 C 0.61903 0.85449 0.9519 0.0
C241 C 0.71311 0.92304 0.95631 0.0
C242 C 0.52212 0.71494 0.73616 0.0
C243 C 0.62275 0.85567 0.84758 0.0
H244 H 0.45545 0.6747 0.31318 0.0
H245 H 0.45328 0.64355 0.4835 0.0
H246 H 0.41985 0.6219 0.39107 0.0
H247 H 0.56117 0.7755 0.42138 0.0
H248 H 0.70489 0.9215 0.04364 0.0
H249 H 0.71247 0.91908 0.86866 0.0
H250 H 0.58255 0.82833 0.95039 0.0
H251 H 0.74948 0.94938 0.95805 0.0
Eu252 Eu 0.74506 0.5848 0.09081 0.0
C253 C 0.90176 0.56234 0.9503 0.0
N254 N 0.89824 0.60007 0.96488 0.0
C255 C 0.98008 0.64338 0.9834 0.0
C256 C 0.94482 0.56352 0.95295 0.0
C257 C 0.93683 0.64078 0.97946 0.0
C258 C 0.98405 0.60449 0.97052 0.0
C259 C 0.8651 0.4831 0.91561 0.0
C260 C 0.86229 0.52248 0.93197 0.0
C261 C 0.90784 0.48412 0.91867 0.0
C262 C 0.94753 0.52414 0.93745 0.0
Eu263 Eu 0.82361 0.59187 0.9556 0.0
N264 N 0.82088 0.52166 0.93165 0.0
C265 C 0.82461 0.44353 0.89761 0.0
C266 C 0.78164 0.48371 0.9126 0.0
C267 C 0.78277 0.44395 0.89587 0.0
H268 H 0.93453 0.67161 0.98737 0.0
H269 H 0.75143 0.41378 0.88124 0.0
H270 H 0.63267 0.51403 0.06176 0.0
H271 H 0.84396 0.77341 0.11976 0.0
H272 H 0.74955 0.48411 0.90937 0.0
H273 H 0.82531 0.41257 0.88484 0.0
H274 H 0.83337 0.69456 0.11387 0.0
H275 H 0.01042 0.67554 0.99578 0.0
H276 H 0.91054 0.45407 0.90673 0.0
H277 H 0.98028 0.5244 0.93944 0.0
H278 H 0.56196 0.52012 0.04779 0.0
H279 H 0.01769 0.60672 0.97326 0.0
H280 H 0.77649 0.78521 0.1081 0.0
N281 N 0.67617 0.58626 0.07617 0.0
C282 C 0.6796 0.62868 0.08147 0.0
C283 C 0.59484 0.55087 0.057 0.0
C284 C 0.64026 0.6337 0.07374 0.0
C285 C 0.63483 0.54753 0.06453 0.0
C286 C 0.59758 0.59417 0.06145 0.0
N287 N 0.76118 0.66227 0.0965 0.0
C288 C 0.80392 0.69928 0.10748 0.0
C289 C 0.72758 0.71208 0.09548 0.0
C290 C 0.72312 0.66763 0.09194 0.0
C291 C 0.77165 0.75047 0.10519 0.0
C292 C 0.80989 0.74399 0.1115 0.0
H293 H 0.56663 0.59676 0.0551 0.0
H294 H 0.615 0.68222 0.07006 0.0
H295 H 0.69111 0.75095 0.09053 0.0
O296 O 0.76031 0.5995 0.17838 0.0
O297 O 0.73777 0.61613 0.01028 0.0
O298 O 0.81257 0.65026 0.98301 0.0
O299 O 0.69333 0.54295 0.15275 0.0
O300 O 0.8215 0.61138 0.10369 0.0
O301 O 0.85588 0.64697 0.02223 0.0
O302 O 0.80078 0.5905 0.86888 0.0
O303 O 0.81789 0.53991 0.02048 0.0
O304 O 0.7615 0.52637 0.08717 0.0
O305 O 0.87334 0.63406 0.89396 0.0
O306 O 0.74423 0.55095 0.94827 0.0
O307 O 0.71255 0.52211 0.03484 0.0
C308 C 0.77138 0.6458 0.9786 0.0
C309 C 0.69751 0.57893 0.23905 0.0
C310 C 0.69059 0.5883 0.33759 0.0
C311 C 0.65458 0.59779 0.32691 0.0
C312 C 0.66174 0.58893 0.22898 0.0
C313 C 0.64057 0.5985 0.2728 0.0
C314 C 0.71225 0.57929 0.29343 0.0
C315 C 0.85841 0.63689 0.07396 0.0
C316 C 0.71938 0.56701 0.19406 0.0
C317 C 0.64481 0.67792 0.07727 0.0
C318 C 0.6882 0.71696 0.08847 0.0
C319 C 0.79272 0.51823 0.06411 0.0
C320 C 0.85912 0.63566 0.79714 0.0
C321 C 0.84328 0.63578 0.69842 0.0
C322 C 0.8916 0.65856 0.68883 0.0
C323 C 0.90699 0.65952 0.78596 0.0
C324 C 0.82736 0.6246 0.75337 0.0
C325 C 0.92296 0.67091 0.73225 0.0
C326 C 0.71093 0.52032 0.98055 0.0
C327 C 0.84347 0.61911 0.85382 0.0
H328 H 0.63756 0.60495 0.36043 0.0
H329 H 0.64985 0.5889 0.18753 0.0
H330 H 0.61296 0.60612 0.26484 0.0
H331 H 0.73986 0.57158 0.30151 0.0
H332 H 0.90567 0.66612 0.64762 0.0
H333 H 0.93231 0.66833 0.8186 0.0
H334 H 0.79055 0.60696 0.76231 0.0
H335 H 0.9599 0.68843 0.72407 0.0
Eu336 Eu 0.26131 0.83316 0.27065 0.0
C337 C 0.08766 0.65955 0.39815 0.0
N338 N 0.09772 0.70426 0.39118 0.0
C339 C 0.01759 0.67854 0.37218 0.0
C340 C 0.04192 0.62231 0.39127 0.0
C341 C 0.0634 0.71431 0.37973 0.0
C342 C 0.00684 0.63232 0.37759 0.0
C343 C 0.11384 0.60499 0.42073 0.0
C344 C 0.12316 0.65096 0.41272 0.0
C345 C 0.06845 0.56782 0.4134 0.0
C346 C 0.03259 0.57643 0.39862 0.0
Eu347 Eu 0.17638 0.76205 0.40307 0.0
N348 N 0.16702 0.68753 0.41808 0.0
C349 C 0.15051 0.59776 0.43571 0.0
C350 C 0.20249 0.68083 0.43468 0.0
C351 C 0.19496 0.63591 0.44315 0.0
H352 H 0.07139 0.75003 0.37635 0.0
H353 H 0.22339 0.63077 0.45571 0.0
H354 H 0.37352 0.89053 0.30391 0.0
H355 H 0.14732 0.90237 0.2115 0.0
H356 H 0.23649 0.71002 0.44187 0.0
H357 H 0.14479 0.56297 0.4422 0.0
H358 H 0.17179 0.84389 0.21542 0.0
H359 H 0.9906 0.68665 0.36233 0.0
H360 H 0.06072 0.53232 0.41927 0.0
H361 H 0.9977 0.54737 0.39334 0.0
H362 H 0.43468 0.97095 0.32627 0.0
H363 H 0.9713 0.60469 0.37181 0.0
H364 H 0.20037 0.98255 0.24372 0.0
N365 N 0.32203 0.90928 0.28831 0.0
C366 C 0.31148 0.94387 0.28552 0.0
C367 C 0.40018 0.9638 0.31494 0.0
C368 C 0.345 0.99006 0.29872 0.0
C369 C 0.36564 0.91845 0.30211 0.0
C370 C 0.38976 0.99975 0.31356 0.0
N371 N 0.23521 0.88768 0.25766 0.0
C372 C 0.19399 0.87742 0.23352 0.0
C373 C 0.25492 0.96803 0.26669 0.0
C374 C 0.26668 0.93267 0.27046 0.0
C375 C 0.21074 0.95642 0.2473 0.0
C376 C 0.18058 0.91114 0.22945 0.0
H377 H 0.41652 0.03481 0.32388 0.0
H378 H 0.35797 0.06057 0.30732 0.0
H379 H 0.27927 0.04142 0.27877 0.0
O380 O 0.25395 0.82877 0.18062 0.0
O381 O 0.27204 0.86844 0.3534 0.0
O382 O 0.197 0.83572 0.37919 0.0
O383 O 0.31972 0.844 0.21854 0.0
O384 O 0.18457 0.78411 0.25642 0.0
O385 O 0.15265 0.79276 0.33586 0.0
O386 O 0.20037 0.77945 0.48991 0.0
O387 O 0.17777 0.71687 0.33323 0.0
O388 O 0.24752 0.76006 0.28682 0.0
O389 O 0.12945 0.76038 0.46592 0.0
O390 O 0.25393 0.78746 0.4135 0.0
O391 O 0.29756 0.80976 0.33135 0.0
C392 C 0.24012 0.86896 0.38427 0.0
C393 C 0.31611 0.83921 0.11841 0.0
C394 C 0.30681 0.82347 0.01946 0.0
C395 C 0.35526 0.84361 0.01477 0.0
C396 C 0.36437 0.85888 0.11263 0.0
C397 C 0.38372 0.86102 0.06109 0.0
C398 C 0.28733 0.82116 0.07164 0.0
C399 C 0.14839 0.77766 0.28504 0.0
C400 C 0.29618 0.83696 0.17335 0.0
C401 C 0.33281 0.02494 0.2969 0.0
C402 C 0.28791 0.01397 0.28089 0.0
C403 C 0.20841 0.72117 0.29576 0.0
C404 C 0.14755 0.77893 0.56198 0.0
C405 C 0.15386 0.77584 0.66192 0.0
C406 C 0.11772 0.78583 0.6679 0.0
C407 C 0.11156 0.78917 0.5692 0.0
C408 C 0.1693 0.77294 0.60877 0.0
C409 C 0.09695 0.79276 0.62179 0.0
C410 C 0.2921 0.79965 0.3845 0.0
C411 C 0.15967 0.77225 0.50546 0.0
H412 H 0.37112 0.84553 0.97521 0.0
H413 H 0.38723 0.87278 0.14795 0.0
H414 H 0.42096 0.87628 0.057 0.0
H415 H 0.25002 0.80583 0.07564 0.0
H416 H 0.10572 0.7885 0.70847 0.0
H417 H 0.09441 0.79417 0.53404 0.0
H418 H 0.19699 0.76489 0.60396 0.0
H419 H 0.06917 0.8006 0.6268 0.0
Eu420 Eu 0.4446 0.1687 0.76491 0.0
C421 C 0.42885 0.33309 0.63007 0.0
N422 N 0.39436 0.28806 0.63392 0.0
C423 C 0.33701 0.31191 0.63412 0.0
C424 C 0.41852 0.36954 0.62912 0.0
C425 C 0.34889 0.27697 0.63541 0.0
C426 C 0.37196 0.35841 0.63145 0.0
C427 C 0.51099 0.38923 0.62092 0.0
C428 C 0.47459 0.34279 0.62571 0.0
C429 C 0.50085 0.42559 0.62115 0.0
C430 C 0.45475 0.41577 0.62512 0.0
Eu431 Eu 0.4177 0.23149 0.63524 0.0
N432 N 0.48348 0.30688 0.62612 0.0
C433 C 0.55653 0.39778 0.61551 0.0
C434 C 0.52766 0.31507 0.61871 0.0
C435 C 0.56481 0.36049 0.61391 0.0
H436 H 0.32169 0.24101 0.63791 0.0
H437 H 0.59982 0.36667 0.60871 0.0
H438 H 0.53671 0.15753 0.73484 0.0
H439 H 0.26045 0.03663 0.778 0.0
H440 H 0.53468 0.28697 0.61585 0.0
H441 H 0.58542 0.43294 0.61181 0.0
H442 H 0.32743 0.11553 0.78116 0.0
H443 H 0.30091 0.30295 0.63522 0.0
H444 H 0.5284 0.46144 0.61769 0.0
H445 H 0.44745 0.44417 0.62458 0.0
H446 H 0.55391 0.09472 0.71366 0.0
H447 H 0.36262 0.3854 0.63062 0.0
H448 H 0.27206 0.96986 0.7608 0.0
N449 N 0.465 0.11122 0.74941 0.0
C450 C 0.42992 0.06639 0.75205 0.0
C451 C 0.51898 0.08631 0.72457 0.0
C452 C 0.43813 0.02956 0.73944 0.0
C453 C 0.50912 0.12172 0.73636 0.0
C454 C 0.48327 0.04007 0.72567 0.0
N455 N 0.37733 0.09422 0.7679 0.0
C456 C 0.33348 0.087 0.77502 0.0
C457 C 0.3471 0.01179 0.7578 0.0
C458 C 0.38478 0.0576 0.7613 0.0
C459 C 0.30199 0.00438 0.76393 0.0
C460 C 0.29523 0.04208 0.77318 0.0
H461 H 0.49063 0.01289 0.71407 0.0
H462 H 0.40622 0.95522 0.72674 0.0
H463 H 0.32685 0.94029 0.74031 0.0
O464 O 0.43324 0.17114 0.85387 0.0
O465 O 0.41662 0.12874 0.68563 0.0
O466 O 0.36929 0.15476 0.65251 0.0
O467 O 0.49566 0.17179 0.82368 0.0
O468 O 0.39495 0.19536 0.78143 0.0
O469 O 0.36127 0.20468 0.701 0.0
O470 O 0.43388 0.22486 0.54976 0.0
O471 O 0.45022 0.27779 0.7108 0.0
O472 O 0.49063 0.24412 0.74375 0.0
O473 O 0.36776 0.21922 0.56963 0.0
O474 O 0.46838 0.20418 0.62296 0.0
O475 O 0.50376 0.21113 0.70703 0.0
C476 C 0.38386 0.12453 0.65189 0.0
C477 C 0.48891 0.17443 0.92276 0.0
C478 C 0.48059 0.17898 0.02177 0.0
C479 C 0.52353 0.18131 0.02988 0.0
C480 C 0.53173 0.17641 0.93173 0.0
C481 C 0.54883 0.17978 0.98502 0.0
C482 C 0.46315 0.17538 0.9682 0.0
C483 C 0.36478 0.20337 0.75528 0.0
C484 C 0.47212 0.17234 0.86603 0.0
C485 C 0.4007 0.98388 0.73715 0.0
C486 C 0.35539 0.9752 0.74557 0.0
C487 C 0.47817 0.2756 0.74738 0.0
C488 C 0.39848 0.2469 0.48091 0.0
C489 C 0.40216 0.25228 0.38072 0.0
C490 C 0.4051 0.29601 0.38441 0.0
C491 C 0.40142 0.29052 0.48379 0.0
C492 C 0.39891 0.22798 0.42943 0.0
C493 C 0.40473 0.3149 0.43567 0.0
C494 C 0.50124 0.20423 0.65355 0.0
C495 C 0.39513 0.22035 0.53067 0.0
H496 H 0.53741 0.18426 0.07103 0.0
H497 H 0.55225 0.17565 0.89755 0.0
H498 H 0.5819 0.18146 0.99153 0.0
H499 H 0.43015 0.17407 0.96207 0.0
H500 H 0.40718 0.3154 0.34766 0.0
H501 H 0.40102 0.30569 0.52293 0.0
H502 H 0.39736 0.19457 0.42748 0.0
H503 H 0.40688 0.34851 0.4381 0.0
H504 H 0.33574 0.26704 0.74075 0.0
H505 H 0.32924 0.1639 0.85493 0.0
H506 H 0.2896 0.18757 0.92231 0.0
H507 H 0.3628 0.35339 0.83672 0.0
H508 H 0.32896 0.37651 0.80639 0.0
H509 H 0.35103 0.3475 0.7638 0.0
H510 H 0.26772 0.2898 0.72924 0.0
H511 H 0.24579 0.31966 0.77071 0.0
H512 H 0.2223 0.25791 0.77847 0.0
H513 H 0.25721 0.22735 0.98072 0.0
H514 H 0.23244 0.27889 0.02426 0.0
H515 H 0.26007 0.35601 0.87151 0.0
C516 C 0.3238 0.24775 0.77844 0.0
C517 C 0.33396 0.21228 0.79123 0.0
C518 C 0.32075 0.19031 0.84334 0.0
C519 C 0.29834 0.20365 0.8821 0.0
C520 C 0.28951 0.23926 0.86842 0.0
C521 C 0.30151 0.26083 0.81766 0.0
C522 C 0.29146 0.30064 0.81485 0.0
C523 C 0.33623 0.34725 0.80487 0.0
C524 C 0.25462 0.29144 0.7707 0.0
C525 C 0.27254 0.29838 0.87216 0.0
C526 C 0.27154 0.26268 0.90239 0.0
C527 C 0.25725 0.25505 0.9572 0.0
C528 C 0.24338 0.28457 0.98165 0.0
C529 C 0.24391 0.32124 0.95129 0.0
C530 C 0.25855 0.32789 0.89573 0.0
H531 H 0.10837 0.3827 0.15656 0.0
H532 H 0.0829 0.27027 0.04533 0.0
H533 H 0.0076 0.21973 0.0914 0.0
H534 H 0.05691 0.31485 0.28041 0.0
H535 H 0.03567 0.35338 0.29903 0.0
H536 H 0.08722 0.37466 0.258 0.0
H537 H 0.04459 0.4019 0.18834 0.0
H538 H 0.99264 0.37548 0.22949 0.0
H539 H 0.99022 0.35893 0.15836 0.0
H540 H 0.93425 0.18173 0.15141 0.0
H541 H 0.86988 0.16082 0.21729 0.0
H542 H 0.94539 0.29974 0.28712 0.0
C543 C 0.08701 0.34747 0.1418 0.0
C544 C 0.10108 0.33054 0.09686 0.0
C545 C 0.07226 0.28412 0.0791 0.0
C546 C 0.02963 0.25514 0.10525 0.0
C547 C 0.0165 0.27321 0.14916 0.0
C548 C 0.04441 0.31843 0.16703 0.0
C549 C 0.02213 0.33034 0.21368 0.0
C550 C 0.05239 0.34408 0.26582 0.0
C551 C 0.01177 0.36893 0.19641 0.0
C552 C 0.97787 0.28429 0.22073 0.0
C553 C 0.97488 0.25174 0.18299 0.0
C554 C 0.93641 0.20694 0.1813 0.0
C555 C 0.90007 0.1953 0.21901 0.0
C556 C 0.90266 0.22826 0.25808 0.0
C557 C 0.94236 0.27322 0.25868 0.0
H558 H 0.75002 0.11551 0.49958 0.0
H559 H 0.78272 0.06126 0.35418 0.0
H560 H 0.7536 0.98559 0.40029 0.0
H561 H 0.77991 0.05245 0.60178 0.0
H562 H 0.73248 0.04205 0.64662 0.0
H563 H 0.75894 0.0932 0.60392 0.0
H564 H 0.67852 0.07009 0.56182 0.0
H565 H 0.65197 0.01897 0.6044 0.0
H566 H 0.64451 0.01352 0.53076 0.0
H567 H 0.71463 0.91432 0.45773 0.0
H568 H 0.67096 0.8521 0.52432 0.0
H569 H 0.66539 0.95183 0.63525 0.0
C570 C 0.75196 0.08801 0.47787 0.0
C571 C 0.76877 0.09438 0.42315 0.0
C572 C 0.76995 0.05723 0.39594 0.0
C573 C 0.75354 0.01412 0.42186 0.0
C574 C 0.73639 0.00869 0.47526 0.0
C575 C 0.7357 0.04462 0.50324 0.0
C576 C 0.71339 0.02868 0.5595 0.0
C577 C 0.74827 0.0557 0.60569 0.0
C578 C 0.6695 0.03307 0.56437 0.0
C579 C 0.70128 0.97807 0.55843 0.0
C580 C 0.71488 0.96745 0.50936 0.0
C581 C 0.70473 0.92242 0.49683 0.0
C582 C 0.67993 0.8872 0.53526 0.0
C583 C 0.66586 0.89699 0.58629 0.0
C584 C 0.67703 0.9433 0.59785 0.0
H585 H 0.62352 0.74155 0.82305 0.0
H586 H 0.72079 0.78062 0.68822 0.0
H587 H 0.76838 0.75621 0.74238 0.0
H588 H 0.70915 0.77528 0.93441 0.0
H589 H 0.67045 0.72703 0.97685 0.0
H590 H 0.64721 0.75161 0.92908 0.0
H591 H 0.59639 0.67025 0.88701 0.0
H592 H 0.62047 0.6451 0.93264 0.0
H593 H 0.62325 0.63892 0.85921 0.0
H594 H 0.80425 0.72591 0.81152 0.0
H595 H 0.82317 0.68819 0.8869 0.0
H596 H 0.69807 0.66218 0.97265 0.0
C597 C 0.65499 0.74509 0.80525 0.0
C598 C 0.66871 0.76271 0.75164 0.0
C599 C 0.71 0.76717 0.72933 0.0
C600 C 0.73715 0.75347 0.75985 0.0
C601 C 0.7222 0.73522 0.81241 0.0
C602 C 0.68196 0.73086 0.83483 0.0
C603 C 0.67241 0.70836 0.89108 0.0
C604 C 0.67498 0.74264 0.93546 0.0
C605 C 0.62536 0.66294 0.89247 0.0
C606 C 0.71265 0.69916 0.89607 0.0
C607 C 0.74162 0.71596 0.85092 0.0
C608 C 0.78161 0.71238 0.84687 0.0
C609 C 0.79198 0.69066 0.8898 0.0
C610 C 0.76173 0.67143 0.93534 0.0
C611 C 0.72174 0.67613 0.93838 0.0
H612 H 0.08648 0.80404 0.24859 0.0
H613 H 0.10853 0.68627 0.26211 0.0
H614 H 0.03697 0.63791 0.20912 0.0
H615 H 0.95868 0.73868 0.25387 0.0
H616 H 0.95246 0.77476 0.20302 0.0
H617 H 0.00298 0.79881 0.24693 0.0
H618 H 0.05587 0.82494 0.16081 0.0
H619 H 0.00553 0.80038 0.1166 0.0
H620 H 0.04839 0.78247 0.10947 0.0
H621 H 0.96493 0.60294 0.15297 0.0
H622 H 0.89475 0.58258 0.09779 0.0
H623 H 0.92111 0.72388 0.11299 0.0
C624 C 0.07548 0.7678 0.24123 0.0
C625 C 0.10239 0.74841 0.26004 0.0
C626 C 0.088 0.70139 0.24849 0.0
C627 C 0.04748 0.67374 0.21832 0.0
C628 C 0.02223 0.69402 0.19896 0.0
C629 C 0.03544 0.73989 0.20992 0.0
C630 C 0.00321 0.7535 0.18146 0.0
C631 C 0.97782 0.76724 0.22385 0.0
C632 C 0.02985 0.79265 0.1396 0.0
C633 C 0.97 0.70815 0.15285 0.0
C634 C 0.98162 0.67431 0.16392 0.0
C635 C 0.9556 0.62916 0.14372 0.0
C636 C 0.91603 0.61797 0.11229 0.0
C637 C 0.90347 0.65196 0.10042 0.0
C638 C 0.93089 0.69771 0.12051 0.0
H639 H 0.31406 0.09644 0.57054 0.0
H640 H 0.41007 0.05946 0.64551 0.0
H641 H 0.37442 0.98648 0.59596 0.0
H642 H 0.21362 0.98054 0.55283 0.0
H643 H 0.20062 0.99004 0.48359 0.0
H644 H 0.22856 0.03824 0.53086 0.0
H645 H 0.29625 0.08205 0.46196 0.0
H646 H 0.26814 0.03415 0.41438 0.0
H647 H 0.32693 0.05386 0.4363 0.0
H648 H 0.33056 0.9178 0.54111 0.0
H649 H 0.29009 0.86197 0.46711 0.0
H650 H 0.22834 0.94331 0.41178 0.0
C651 C 0.32693 0.07256 0.57698 0.0
C652 C 0.36272 0.08252 0.61586 0.0
C653 C 0.38038 0.05151 0.62017 0.0
C654 C 0.36072 0.00984 0.59128 0.0
C655 C 0.32468 1.00014 0.55525 0.0
C656 C 0.30893 0.03105 0.54588 0.0
C657 C 0.2741 0.01375 0.49845 0.0
C658 C 0.22638 0.00513 0.5176 0.0
C659 C 0.29245 0.04799 0.44991 0.0
C660 C 0.27257 0.96822 0.48407 0.0
C661 C 0.30166 0.96121 0.51842 0.0
C662 C 0.30764 0.92276 0.51373 0.0
C663 C 0.28441 0.89109 0.47152 0.0
C664 C 0.25583 0.89799 0.43416 0.0
C665 C 0.24916 0.93672 0.44083 0.0
H666 H 0.1532 0.43212 0.62354 0.0
H667 H 0.2957 0.47356 0.66414 0.0
H668 H 0.30612 0.44855 0.57139 0.0
H669 H 0.12978 0.33028 0.54375 0.0
H670 H 0.094 0.33767 0.4938 0.0
H671 H 0.09692 0.35792 0.56322 0.0
H672 H 0.12202 0.44037 0.52875 0.0
H673 H 0.11994 0.42237 0.45842 0.0
H674 H 0.17253 0.4703 0.48551 0.0
H675 H 0.30074 0.42048 0.4728 0.0
H676 H 0.28011 0.3902 0.37797 0.0
H677 H 0.14169 0.37028 0.4013 0.0
C678 C 0.18638 0.43545 0.61281 0.0
C679 C 0.22367 0.45439 0.65049 0.0
C680 C 0.26681 0.45879 0.63548 0.0
C681 C 0.27297 0.44479 0.58303 0.0
C682 C 0.23558 0.42659 0.5463 0.0
C683 C 0.19309 0.42175 0.56068 0.0
C684 C 0.15864 0.40173 0.51365 0.0
C685 C 0.1174 0.35412 0.52954 0.0
C686 C 0.14233 0.43572 0.49554 0.0
C687 C 0.18855 0.39685 0.47009 0.0
C688 C 0.2327 0.41102 0.48977 0.0
C689 C 0.26628 0.40939 0.45696 0.0
C690 C 0.2543 0.39249 0.40284 0.0
C691 C 0.20916 0.37767 0.38168 0.0
C692 C 0.1762 0.38041 0.4161 0.0
H693 H 0.78981 0.1167 0.94725 0.0
H694 H 0.72048 0.19258 0.99567 0.0
H695 H 0.74154 0.23393 0.90606 0.0
H696 H 0.88533 0.21171 0.8741 0.0
H697 H 0.88699 0.17367 0.82227 0.0
H698 H 0.86779 0.15229 0.89086 0.0
H699 H 0.79073 0.08566 0.85074 0.0
H700 H 0.80931 0.10727 0.78211 0.0
H701 H 0.75506 0.09967 0.80781 0.0
H702 H 0.76618 0.26272 0.8071 0.0
H703 H 0.79969 0.28275 0.71321 0.0
H704 H 0.85335 0.18819 0.73244 0.0
C705 C 0.77928 0.14223 0.93913 0.0
C706 C 0.75325 0.15128 0.97811 0.0
C707 C 0.74061 0.18533 0.96635 0.0
C708 C 0.75216 0.2087 0.91549 0.0
C709 C 0.77677 0.19791 0.87727 0.0
C710 C 0.79078 0.16597 0.88904 0.0
C711 C 0.81696 0.16042 0.84148 0.0
C712 C 0.86724 0.17543 0.85819 0.0
C713 C 0.79148 0.11029 0.81923 0.0
C714 C 0.8153 0.19393 0.80069 0.0
C715 C 0.79172 0.21507 0.82169 0.0
C716 C 0.78505 0.24665 0.79057 0.0
C717 C 0.80389 0.25758 0.73721 0.0
C718 C 0.82942 0.23732 0.71587 0.0
C719 C 0.83456 0.20471 0.748 0.0
H720 H 0.52905 0.70432 0.26051 0.0
H721 H 0.54213 0.82259 0.35202 0.0
H722 H 0.57161 0.87119 0.26814 0.0
H723 H 0.63246 0.76916 0.18341 0.0
H724 H 0.61111 0.7379 0.11995 0.0
H725 H 0.58852 0.70846 0.18445 0.0
H726 H 0.50442 0.68384 0.15852 0.0
H727 H 0.52437 0.70845 0.09126 0.0
H728 H 0.49067 0.72632 0.13213 0.0
H729 H 0.59891 0.90627 0.17319 0.0
H730 H 0.62885 0.92702 0.07821 0.0
H731 H 0.59706 0.7854 0.04874 0.0
C732 C 0.53784 0.74041 0.26288 0.0
C733 C 0.53284 0.7596 0.31269 0.0
C734 C 0.54585 0.80723 0.31439 0.0
C735 C 0.56218 0.83492 0.26682 0.0
C736 C 0.56547 0.81446 0.21801 0.0
C737 C 0.55418 0.76842 0.21601 0.0
C738 C 0.56291 0.75524 0.15938 0.0
C739 C 0.60097 0.7418 0.16211 0.0
C740 C 0.51791 0.71616 0.1338 0.0
C741 C 0.57988 0.80073 0.12905 0.0
C742 C 0.58123 0.83453 0.1637 0.0
C743 C 0.59778 0.87998 0.14581 0.0
C744 C 0.61462 0.89144 0.0918 0.0
C745 C 0.61481 0.85772 0.05614 0.0
C746 C 0.59631 0.81155 0.07475 0.0
H747 H 0.8579 0.68021 0.59803 0.0
H748 H 0.7537 0.56064 0.68872 0.0
H749 H 0.70235 0.53719 0.60757 0.0
H750 H 0.78409 0.70445 0.51378 0.0
H751 H 0.82046 0.71698 0.45417 0.0
H752 H 0.84557 0.72678 0.52203 0.0
H753 H 0.88013 0.674 0.49702 0.0
H754 H 0.8538 0.66337 0.42981 0.0
H755 H 0.8419 0.61523 0.47426 0.0
H756 H 0.66236 0.52644 0.51506 0.0
H757 H 0.63919 0.52739 0.41814 0.0
H758 H 0.77399 0.64735 0.38577 0.0
C759 C 0.82463 0.64871 0.60131 0.0
C760 C 0.81038 0.62253 0.65066 0.0
C761 C 0.7656 0.58225 0.65238 0.0
C762 C 0.73617 0.56824 0.60611 0.0
C763 C 0.75221 0.59426 0.55795 0.0
C764 C 0.79562 0.63338 0.55518 0.0
C765 C 0.80629 0.65345 0.4976 0.0
C766 C 0.81458 0.70337 0.49691 0.0
C767 C 0.84799 0.65136 0.47324 0.0
C768 C 0.76157 0.62008 0.46847 0.0
C769 C 0.73062 0.58635 0.50406 0.0
C770 C 0.68644 0.55248 0.48683 0.0
C771 C 0.67356 0.55328 0.43193 0.0
C772 C 0.70499 0.58724 0.39491 0.0
C773 C 0.7496 0.62079 0.41334 0.0
H774 H 0.23489 0.83857 0.71049 0.0
H775 H 0.1173 0.69994 0.72863 0.0
H776 H 0.14439 0.69483 0.8223 0.0
H777 H 0.32197 0.82342 0.79183 0.0
H778 H 0.34576 0.88183 0.81776 0.0
H779 H 0.3186 0.86663 0.75082 0.0
H780 H 0.25918 0.89622 0.7867 0.0
H781 H 0.29283 0.91159 0.84946 0.0
H782 H 0.23077 0.87353 0.85099 0.0
H783 H 0.18106 0.70914 0.91839 0.0
H784 H 0.22732 0.73903 1.00429 0.0
H785 H 0.31958 0.8686 0.92188 0.0
C786 C 0.21594 0.80658 0.73357 0.0
C787 C 0.17485 0.76914 0.71224 0.0
C788 C 0.14954 0.72848 0.74418 0.0
C789 C 0.16451 0.72546 0.79741 0.0
C790 C 0.20463 0.76363 0.8181 0.0
C791 C 0.23013 0.80323 0.78689 0.0
C792 C 0.2697 0.84081 0.81982 0.0
C793 C 0.3168 0.85404 0.79352 0.0
C794 C 0.26289 0.88312 0.82719 0.0
C795 C 0.26341 0.81608 0.87392 0.0
C796 C 0.22533 0.77178 0.8727 0.0
C797 C 0.21132 0.74357 0.91941 0.0
C798 C 0.23751 0.7609 0.96808 0.0
C799 C 0.27732 0.80585 0.96941 0.0
C800 C 0.28992 0.83371 0.92174 0.0
H801 H 0.45793 0.29784 0.29298 0.0
H802 H 0.34951 0.16167 0.3458 0.0
H803 H 0.35287 0.12888 0.25563 0.0
H804 H 0.42002 0.2871 0.14977 0.0
H805 H 0.4786 0.31802 0.12387 0.0
H806 H 0.4658 0.33122 0.19136 0.0
H807 H 0.528 0.31507 0.23436 0.0
H808 H 0.54137 0.30251 0.16702 0.0
H809 H 0.52508 0.26016 0.22121 0.0
H810 H 0.37046 0.11057 0.16052 0.0
H811 H 0.40494 0.10777 0.07093 0.0
H812 H 0.50127 0.25569 0.08169 0.0
C813 C 0.43426 0.26129 0.2853 0.0
C814 C 0.40321 0.23243 0.32629 0.0
C815 C 0.37375 0.18445 0.31509 0.0
C816 C 0.37513 0.16557 0.26387 0.0
C817 C 0.40607 0.19514 0.22432 0.0
C818 C 0.43522 0.24194 0.23461 0.0
C819 C 0.46704 0.26589 0.18645 0.0
C820 C 0.45727 0.30273 0.16139 0.0
C821 C 0.51839 0.28713 0.20329 0.0
C822 C 0.45212 0.22507 0.14792 0.0
C823 C 0.41638 0.18463 0.17001 0.0
C824 C 0.3981 0.14209 0.1426 0.0
C825 C 0.41764 0.14077 0.09187 0.0
C826 C 0.45517 0.18161 0.06985 0.0
C827 C 0.47209 0.22425 0.09773 0.0
H828 H 0.25467 0.57948 0.06173 0.0
H829 H 0.13113 0.45729 0.1203 0.0
H830 H 0.11411 0.50602 0.18179 0.0
H831 H 0.29147 0.63786 0.18817 0.0
H832 H 0.31176 0.69453 0.15919 0.0
H833 H 0.30937 0.64882 0.11693 0.0
H834 H 0.25812 0.66577 0.04818 0.0
H835 H 0.25922 0.70874 0.09461 0.0
H836 H 0.20447 0.66064 0.07244 0.0
H837 H 0.1168 0.56486 0.24637 0.0
H838 H 0.13527 0.63206 0.30532 0.0
H839 H 0.25721 0.71779 0.2061 0.0
C840 C 0.22317 0.56356 0.08597 0.0
C841 C 0.19383 0.51485 0.08627 0.0
C842 C 0.15377 0.49461 0.11975 0.0
C843 C 0.1438 0.52201 0.1546 0.0
C844 C 0.17429 0.56973 0.15538 0.0
C845 C 0.21279 0.59067 0.1214 0.0
C846 C 0.24145 0.6424 0.1336 0.0
C847 C 0.29149 0.65664 0.15037 0.0
C848 C 0.24076 0.67107 0.08428 0.0
C849 C 0.21465 0.6463 0.18185 0.0
C850 C 0.17566 0.60414 0.19303 0.0
C851 C 0.14691 0.59827 0.23756 0.0
C852 C 0.15808 0.63663 0.27139 0.0
C853 C 0.19801 0.68028 0.26109 0.0
C854 C 0.2265 0.68495 0.21545 0.0
H855 H 0.63395 0.15208 0.41389 0.0
H856 H 0.75651 0.27669 0.47147 0.0
H857 H 0.7139 0.27981 0.55174 0.0
H858 H 0.56069 0.19905 0.44314 0.0
H859 H 0.51067 0.14454 0.46198 0.0
H860 H 0.5525 0.14538 0.41433 0.0
H861 H 0.56354 0.08819 0.4761 0.0
H862 H 0.52182 0.08716 0.52435 0.0
H863 H 0.57938 0.10255 0.54741 0.0
H864 H 0.65969 0.27109 0.62498 0.0
H865 H 0.59194 0.26121 0.6777 0.0
H866 H 0.4999 0.15159 0.5659 0.0
C867 C 0.65189 0.17927 0.44416 0.0
C868 C 0.69946 0.21251 0.43821 0.0
C869 C 0.72104 0.24923 0.47685 0.0
C870 C 0.69699 0.25154 0.52254 0.0
C871 C 0.65052 0.2181 0.52782 0.0
C872 C 0.62756 0.18355 0.48893 0.0
C873 C 0.57573 0.157 0.50028 0.0
C874 C 0.54829 0.16181 0.45208 0.0
C875 C 0.55915 0.10567 0.51279 0.0
C876 C 0.57358 0.18249 0.55118 0.0
C877 C 0.61745 0.21653 0.56716 0.0
C878 C 0.62502 0.24472 0.61294 0.0
C879 C 0.58649 0.2388 0.64267 0.0
C880 C 0.54111 0.20603 0.62533 0.0
C881 C 0.53448 0.17713 0.57946 0.0
H882 H 0.29068 0.52373 0.87951 0.0
H883 H 0.37705 0.48788 0.9783 0.0
H884 H 0.44569 0.54229 0.92537 0.0
H885 H 0.35942 0.53361 0.74741 0.0
H886 H 0.3435 0.57504 0.7228 0.0
H887 H 0.30571 0.52897 0.76894 0.0
H888 H 0.30947 0.59744 0.83069 0.0
H889 H 0.35193 0.64063 0.78566 0.0
H890 H 0.36526 0.64037 0.85754 0.0
H891 H 0.50603 0.60684 0.86828 0.0
H892 H 0.55289 0.67288 0.8062 0.0
H893 H 0.42717 0.66106 0.73692 0.0
C894 C 0.324 0.52722 0.88991 0.0
C895 C 0.32878 0.50307 0.93513 0.0
C896 C 0.37274 0.50751 0.94596 0.0
C897 C 0.41194 0.5379 0.91539 0.0
C898 C 0.40628 0.56213 0.8722 0.0
C899 C 0.36327 0.55616 0.85836 0.0
C900 C 0.3667 0.58542 0.80881 0.0
C901 C 0.3424 0.55402 0.75894 0.0
C902 C 0.34719 0.61788 0.82146 0.0
C903 C 0.41881 0.61208 0.80049 0.0
C904 C 0.44089 0.59729 0.83677 0.0
C905 C 0.48911 0.61825 0.83913 0.0
C906 C 0.51545 0.65586 0.80415 0.0
C907 C 0.49358 0.67192 0.76733 0.0
C908 C 0.44464 0.64896 0.76439 0.0
H909 H 0.79387 0.35614 0.30736 0.0
H910 H 0.85474 0.30326 0.19 0.0
H911 H 0.85964 0.36013 0.12143 0.0
H912 H 0.72239 0.36997 0.21611 0.0
H913 H 0.72941 0.42352 0.24389 0.0
H914 H 0.7371 0.38413 0.28768 0.0
H915 H 0.81986 0.44945 0.31408 0.0
H916 H 0.81207 0.48944 0.27129 0.0
H917 H 0.86116 0.48113 0.26056 0.0
H918 H 0.84802 0.41362 0.06204 0.0
H919 H 0.82788 0.46744 0.01737 0.0
H920 H 0.77605 0.4885 0.1718 0.0
C921 C 0.80975 0.3578 0.26792 0.0
C922 C 0.82404 0.3255 0.25382 0.0
C923 C 0.84355 0.32775 0.2014 0.0
C924 C 0.84649 0.35989 0.16222 0.0
C925 C 0.83007 0.38978 0.17627 0.0
C926 C 0.81283 0.38976 0.22804 0.0
C927 C 0.79481 0.42374 0.23083 0.0
C928 C 0.74285 0.39883 0.24548 0.0
C929 C 0.8237 0.46329 0.27161 0.0
C930 C 0.80301 0.44132 0.17202 0.0
C931 C 0.82375 0.42147 0.1416 0.0
C932 C 0.83286 0.43033 0.08577 0.0
C933 C 0.82146 0.46119 0.06057 0.0
C934 C 0.8013 0.48304 0.09078 0.0
C935 C 0.79154 0.47248 0.14734 0.0
H936 H 0.31394 0.73681 0.42951 0.0
H937 H 0.36394 0.88407 0.4105 0.0
H938 H 0.43083 0.90211 0.47094 0.0
H939 H 0.34028 0.74119 0.5707 0.0
H940 H 0.35785 0.69784 0.56765 0.0
H941 H 0.31642 0.69645 0.51867 0.0
H942 H 0.36889 0.69941 0.43748 0.0
H943 H 0.40893 0.69905 0.48725 0.0
H944 H 0.42906 0.74455 0.43643 0.0
H945 H 0.48804 0.90382 0.53989 0.0
H946 H 0.53432 0.88936 0.60857 0.0
H947 H 0.44747 0.74071 0.58253 0.0
C948 C 0.3391 0.77276 0.43794 0.0
C949 C 0.33399 0.80918 0.41561 0.0
C950 C 0.36784 0.85584 0.42676 0.0
C951 C 0.40573 0.86636 0.46125 0.0
C952 C 0.40936 0.82969 0.48379 0.0
C953 C 0.37728 0.78382 0.47215 0.0
C954 C 0.38831 0.75098 0.5034 0.0
C955 C 0.34834 0.71979 0.54242 0.0
C956 C 0.39949 0.72182 0.46369 0.0
C957 C 0.43113 0.7855 0.53507 0.0
C958 C 0.44269 0.83072 0.52314 0.0
C959 C 0.47968 0.86858 0.54909 0.0
C960 C 0.50565 0.86002 0.58818 0.0
C961 C 0.4946 0.81396 0.60079 0.0
C962 C 0.457 0.77633 0.57351 0.0
H963 H 0.68626 0.50834 0.87055 0.0
H964 H 0.63995 0.44484 0.03142 0.0
H965 H 0.57052 0.38019 0.98902 0.0
H966 H 0.57025 0.47216 0.8128 0.0
H967 H 0.58513 0.4606 0.74557 0.0
H968 H 0.62932 0.50483 0.78871 0.0
H969 H 0.67871 0.46446 0.78071 0.0
H970 H 0.63484 0.42033 0.73742 0.0
H971 H 0.65337 0.40404 0.79917 0.0
H972 H 0.51001 0.31929 0.9299 0.0
H973 H 0.46295 0.26459 0.85622 0.0
H974 H 0.54688 0.36596 0.73306 0.0
C975 C 0.66126 0.48115 0.89699 0.0
C976 C 0.66854 0.48211 0.95455 0.0
C977 C 0.63511 0.44543 0.98741 0.0
C978 C 0.59541 0.40846 0.96372 0.0
C979 C 0.58942 0.4085 0.90702 0.0
C980 C 0.62136 0.44376 0.87393 0.0
C981 C 0.608 0.43354 0.81362 0.0
C982 C 0.59755 0.46996 0.78872 0.0
C983 C 0.64598 0.43038 0.78082 0.0
C984 C 0.56418 0.38652 0.81809 0.0
C985 C 0.55393 0.37307 0.87249 0.0
C986 C 0.51711 0.32976 0.88723 0.0
C987 C 0.49056 0.29897 0.84526 0.0
C988 C 0.50084 0.31173 0.78946 0.0
C989 C 0.53758 0.35623 0.77558 0.0
loop_
_geom_bond_atom_site_label_1
_geom_bond_atom_site_label_2
_geom_bond_distance
_geom_bond_site_symmetry_2
_ccdc_geom_bond_type
Eu0 N29 2.600 . S
Eu0 N35 2.562 . S
Eu0 O44 2.462 . S
Eu0 O45 2.373 1_556 S
Eu0 O47 2.432 . S
Eu0 O48 2.291 . S
Eu0 O52 2.335 . S
Eu0 O55 2.372 . S
Eu0 C64 2.787 . S
C1 N2 1.365 . S
C1 C4 1.405 . S
C1 C8 1.448 . S
N2 C1 1.365 . S
N2 C5 1.319 . S
N2 Eu11 2.600 . S
C3 C5 1.397 . S
C3 C6 1.367 . S
C3 H23 0.931 . S
C4 C1 1.405 . S
C4 C6 1.403 . S
C4 C10 1.439 . S
C5 N2 1.319 . S
C5 C3 1.397 . S
C5 H16 0.930 . S
C6 C3 1.367 . S
C6 C4 1.403 . S
C6 H27 0.929 . S
C7 C8 1.430 . S
C7 C9 1.387 . S
C7 C13 1.404 . S
C8 C1 1.448 . S
C8 C7 1.430 . S
C8 N12 1.351 . S
C9 C7 1.387 . S
C9 C10 1.374 . S
C9 H24 0.931 . S
C10 C4 1.439 . S
C10 C9 1.374 . S
C10 H25 0.931 . S
Eu11 N2 2.600 . S
Eu11 N12 2.562 . S
Eu11 O46 2.335 . S
Eu11 O49 2.372 . S
Eu11 O50 2.462 . S
Eu11 O51 2.373 1_554 S
Eu11 O53 2.432 . S
Eu11 O54 2.291 . S
Eu11 C75 2.787 . S
N12 C8 1.351 . S
N12 Eu11 2.562 . S
N12 C14 1.325 . S
C13 C7 1.404 . S
C13 C15 1.366 . S
C13 H21 0.930 . S
C14 N12 1.325 . S
C14 C15 1.416 . S
C14 H20 0.929 . S
C15 C13 1.366 . S
C15 C14 1.416 . S
C15 H17 0.930 . S
H16 C5 0.930 . S
H17 C15 0.930 . S
H18 C33 0.930 . S
H19 C40 0.930 . S
H20 C14 0.929 . S
H21 C13 0.930 . S
H22 C36 0.929 . S
H23 C3 0.931 . S
H24 C9 0.931 . S
H25 C10 0.931 . S
H26 C31 0.931 . S
H27 C6 0.929 . S
H28 C39 0.930 1_655 S
N29 Eu0 2.600 . S
N29 C30 1.365 . S
N29 C33 1.319 . S
C30 N29 1.365 . S
C30 C32 1.417 . S
C30 C38 1.448 . S
C31 H26 0.931 . S
C31 C33 1.397 . S
C31 C34 1.367 . S
C32 C30 1.417 . S
C32 C34 1.398 . S
C32 C65 1.434 1_455 S
C33 H18 0.930 . S
C33 N29 1.319 . S
C33 C31 1.397 . S
C34 C31 1.367 . S
C34 C32 1.398 . S
C34 H41 0.929 1_455 S
N35 Eu0 2.562 . S
N35 C36 1.325 . S
N35 C38 1.351 . S
C36 H22 0.929 . S
C36 N35 1.325 . S
C36 C40 1.416 . S
C37 C38 1.430 . S
C37 C39 1.404 . S
C37 C66 1.387 1_455 S
C38 C30 1.448 . S
C38 N35 1.351 . S
C38 C37 1.430 . S
C39 H28 0.930 1_455 S
C39 C37 1.404 . S
C39 C40 1.366 . S
C40 H19 0.930 . S
C40 C36 1.416 . S
C40 C39 1.366 . S
H41 C34 0.929 1_655 S
H42 C65 0.931 . S
H43 C66 0.931 . S
O44 Eu0 2.462 . S
O44 C64 1.252 . S
O45 Eu0 2.373 1_554 S
O45 C56 1.249 . S
O46 Eu11 2.335 . S
O46 C56 1.264 . S
O47 Eu0 2.432 . S
O47 C64 1.268 . S
O48 Eu0 2.291 . S
O48 C63 1.255 . S
O49 Eu11 2.372 . S
O49 C63 1.257 1_554 S
O50 Eu11 2.462 . S
O50 C75 1.252 . S
O51 Eu11 2.373 1_556 S
O51 C67 1.249 . S
O52 Eu0 2.335 . S
O52 C67 1.264 . S
O53 Eu11 2.432 . S
O53 C75 1.268 . S
O54 Eu11 2.291 . S
O54 C74 1.255 . S
O55 Eu0 2.372 . S
O55 C74 1.257 1_556 S
C56 O45 1.249 . S
C56 O46 1.264 . S
C57 C60 1.382 . S
C57 C62 1.390 . S
C57 C64 1.506 . S
C58 C59 1.398 . S
C58 C62 1.392 . S
C59 C58 1.398 . S
C59 C61 1.372 . S
C59 H76 0.931 . S
C60 C57 1.382 . S
C60 C61 1.390 . S
C60 H77 0.931 . S
C61 C59 1.372 . S
C61 C60 1.390 . S
C61 H78 0.929 . S
C62 C57 1.390 . S
C62 C58 1.392 . S
C62 H79 0.930 . S
C63 O48 1.255 . S
C63 O49 1.257 1_556 S
C64 Eu0 2.787 . S
C64 O44 1.252 . S
C64 O47 1.268 . S
C64 C57 1.506 . S
C65 C32 1.434 1_655 S
C65 H42 0.931 . S
C65 C66 1.374 . S
C66 C37 1.387 1_655 S
C66 H43 0.931 . S
C66 C65 1.374 . S
C67 O51 1.249 . S
C67 O52 1.264 . S
C68 C71 1.382 . S
C68 C72 1.390 . S
C68 C75 1.506 . S
C69 C70 1.398 . S
C69 C72 1.392 . S
C70 C69 1.398 . S
C70 C73 1.372 . S
C70 H80 0.931 . S
C71 C68 1.382 . S
C71 C73 1.390 . S
C71 H81 0.931 . S
C72 C68 1.390 . S
C72 C69 1.392 . S
C72 H82 0.930 . S
C73 C70 1.372 . S
C73 C71 1.390 . S
C73 H83 0.929 . S
C74 O54 1.255 . S
C74 O55 1.257 1_554 S
C75 Eu11 2.787 . S
C75 O50 1.252 . S
C75 O53 1.268 . S
C75 C68 1.506 . S
H76 C59 0.931 . S
H77 C60 0.931 . S
H78 C61 0.929 . S
H79 C62 0.930 . S
H80 C70 0.931 . S
H81 C71 0.931 . S
H82 C72 0.930 . S
H83 C73 0.929 . S
Eu84 N113 2.600 . S
Eu84 N119 2.562 . S
Eu84 O128 2.462 . S
Eu84 O129 2.373 . S
Eu84 O131 2.432 . S
Eu84 O132 2.291 . S
Eu84 O136 2.335 . S
Eu84 O139 2.372 . S
Eu84 C148 2.787 . S
C85 N86 1.365 . S
C85 C88 1.405 . S
C85 C92 1.448 . S
N86 C85 1.365 . S
N86 C89 1.319 . S
N86 Eu95 2.600 . S
C87 C89 1.397 . S
C87 C90 1.367 1_545 S
C87 H107 0.931 1_545 S
C88 C85 1.405 . S
C88 C90 1.403 1_545 S
C88 C94 1.439 . S
C89 N86 1.319 . S
C89 C87 1.397 . S
C89 H100 0.930 . S
C90 C87 1.367 1_565 S
C90 C88 1.403 1_565 S
C90 H111 0.929 . S
C91 C92 1.430 . S
C91 C93 1.387 . S
C91 C97 1.404 . S
C92 C85 1.448 . S
C92 C91 1.430 . S
C92 N96 1.351 . S
C93 C91 1.387 . S
C93 C94 1.374 . S
C93 H108 0.931 . S
C94 C88 1.439 . S
C94 C93 1.374 . S
C94 H109 0.931 . S
Eu95 N86 2.600 . S
Eu95 N96 2.562 . S
Eu95 O130 2.335 . S
Eu95 O133 2.372 . S
Eu95 O134 2.462 . S
Eu95 O135 2.373 . S
Eu95 O137 2.432 . S
Eu95 O138 2.291 . S
Eu95 C159 2.787 . S
N96 C92 1.351 . S
N96 Eu95 2.562 . S
N96 C98 1.325 . S
C97 C91 1.404 . S
C97 C99 1.366 . S
C97 H105 0.930 . S
C98 N96 1.325 . S
C98 C99 1.416 . S
C98 H104 0.929 . S
C99 C97 1.366 . S
C99 C98 1.416 . S
C99 H101 0.930 . S
H100 C89 0.930 . S
H101 C99 0.930 . S
H102 C117 0.930 . S
H103 C124 0.930 . S
H104 C98 0.929 . S
H105 C97 0.930 . S
H106 C120 0.929 . S
H107 C87 0.931 1_565 S
H108 C93 0.931 . S
H109 C94 0.931 . S
H110 C115 0.931 . S
H111 C90 0.929 . S
H112 C123 0.930 1_455 S
N113 Eu84 2.600 . S
N113 C114 1.365 . S
N113 C117 1.319 . S
C114 N113 1.365 . S
C114 C116 1.412 . S
C114 C122 1.448 . S
C115 H110 0.931 . S
C115 C117 1.397 . S
C115 C118 1.367 . S
C116 C114 1.412 . S
C116 C118 1.409 . S
C116 C149 1.427 1_655 S
C117 H102 0.930 . S
C117 N113 1.319 . S
C117 C115 1.397 . S
C118 C115 1.367 . S
C118 C116 1.409 . S
C118 H125 0.929 1_655 S
N119 Eu84 2.562 . S
N119 C120 1.325 . S
N119 C122 1.351 . S
C120 H106 0.929 . S
C120 N119 1.325 . S
C120 C124 1.416 . S
C121 C122 1.430 . S
C121 C123 1.404 . S
C121 C150 1.387 1_655 S
C122 C114 1.448 . S
C122 N119 1.351 . S
C122 C121 1.430 . S
C123 H112 0.930 1_655 S
C123 C121 1.404 . S
C123 C124 1.366 . S
C124 H103 0.930 . S
C124 C120 1.416 . S
C124 C123 1.366 . S
H125 C118 0.929 1_455 S
H126 C149 0.931 . S
H127 C150 0.931 . S
O128 Eu84 2.462 . S
O128 C148 1.252 . S
O129 Eu84 2.373 . S
O129 C140 1.249 . S
O130 Eu95 2.335 . S
O130 C140 1.264 . S
O131 Eu84 2.432 . S
O131 C148 1.268 . S
O132 Eu84 2.291 . S
O132 C147 1.255 . S
O133 Eu95 2.372 . S
O133 C147 1.257 . S
O134 Eu95 2.462 . S
O134 C159 1.252 . S
O135 Eu95 2.373 . S
O135 C151 1.249 . S
O136 Eu84 2.335 . S
O136 C151 1.264 . S
O137 Eu95 2.432 . S
O137 C159 1.268 . S
O138 Eu95 2.291 . S
O138 C158 1.255 . S
O139 Eu84 2.372 . S
O139 C158 1.257 . S
C140 O129 1.249 . S
C140 O130 1.264 . S
C141 C144 1.382 . S
C141 C146 1.390 . S
C141 C148 1.506 . S
C142 C143 1.398 . S
C142 C146 1.392 . S
C143 C142 1.398 . S
C143 C145 1.372 . S
C143 H160 0.931 . S
C144 C141 1.382 . S
C144 C145 1.390 . S
C144 H161 0.931 . S
C145 C143 1.372 . S
C145 C144 1.390 . S
C145 H162 0.929 . S
C146 C141 1.390 . S
C146 C142 1.392 . S
C146 H163 0.930 . S
C147 O132 1.255 . S
C147 O133 1.257 . S
C148 Eu84 2.787 . S
C148 O128 1.252 . S
C148 O131 1.268 . S
C148 C141 1.506 . S
C149 C116 1.427 1_455 S
C149 H126 0.931 . S
C149 C150 1.374 . S
C150 C121 1.387 1_455 S
C150 H127 0.931 . S
C150 C149 1.374 . S
C151 O135 1.249 . S
C151 O136 1.264 . S
C152 C155 1.382 . S
C152 C156 1.390 . S
C152 C159 1.506 . S
C153 C154 1.398 . S
C153 C156 1.392 . S
C154 C153 1.398 . S
C154 C157 1.372 . S
C154 H164 0.931 1_554 S
C155 C152 1.382 . S
C155 C157 1.390 . S
C155 H165 0.931 . S
C156 C152 1.390 . S
C156 C153 1.392 . S
C156 H166 0.930 . S
C157 C154 1.372 . S
C157 C155 1.390 . S
C157 H167 0.929 . S
C158 O138 1.255 . S
C158 O139 1.257 . S
C159 Eu95 2.787 . S
C159 O134 1.252 . S
C159 O137 1.268 . S
C159 C152 1.506 . S
H160 C143 0.931 . S
H161 C144 0.931 . S
H162 C145 0.929 . S
H163 C146 0.930 . S
H164 C154 0.931 1_556 S
H165 C155 0.931 . S
H166 C156 0.930 . S
H167 C157 0.929 . S
Eu168 N197 2.600 . S
Eu168 N203 2.562 . S
Eu168 O212 2.462 . S
Eu168 O213 2.373 . S
Eu168 O215 2.432 . S
Eu168 O216 2.291 . S
Eu168 O220 2.335 . S
Eu168 O223 2.372 . S
Eu168 C232 2.787 . S
C169 N170 1.365 . S
C169 C172 1.405 . S
C169 C176 1.448 . S
N170 C169 1.365 . S
N170 C173 1.319 . S
N170 Eu179 2.600 . S
C171 C173 1.397 . S
C171 C174 1.367 1_565 S
C171 H191 0.931 1_565 S
C172 C169 1.405 . S
C172 C174 1.403 1_565 S
C172 C178 1.439 . S
C173 N170 1.319 . S
C173 C171 1.397 . S
C173 H184 0.930 . S
C174 C171 1.367 1_545 S
C174 C172 1.403 1_545 S
C174 H195 0.929 . S
C175 C176 1.430 . S
C175 C177 1.387 . S
C175 C181 1.404 . S
C176 C169 1.448 . S
C176 C175 1.430 . S
C176 N180 1.351 . S
C177 C175 1.387 . S
C177 C178 1.374 . S
C177 H192 0.931 . S
C178 C172 1.439 . S
C178 C177 1.374 . S
C178 H193 0.931 . S
Eu179 N170 2.600 . S
Eu179 N180 2.562 . S
Eu179 O214 2.335 . S
Eu179 O217 2.372 . S
Eu179 O218 2.462 . S
Eu179 O219 2.373 . S
Eu179 O221 2.432 . S
Eu179 O222 2.291 . S
Eu179 C243 2.787 . S
N180 C176 1.351 . S
N180 Eu179 2.562 . S
N180 C182 1.325 . S
C181 C175 1.404 . S
C181 C183 1.366 . S
C181 H189 0.930 . S
C182 N180 1.325 . S
C182 C183 1.416 . S
C182 H188 0.929 . S
C183 C181 1.366 . S
C183 C182 1.416 . S
C183 H185 0.930 . S
H184 C173 0.930 . S
H185 C183 0.930 . S
H186 C201 0.930 . S
H187 C208 0.930 . S
H188 C182 0.929 . S
H189 C181 0.930 . S
H190 C204 0.929 . S
H191 C171 0.931 1_545 S
H192 C177 0.931 . S
H193 C178 0.931 . S
H194 C199 0.931 . S
H195 C174 0.929 . S
H196 C207 0.930 . S
N197 Eu168 2.600 . S
N197 C198 1.365 . S
N197 C201 1.319 . S
C198 N197 1.365 . S
C198 C200 1.405 . S
C198 C206 1.448 . S
C199 H194 0.931 . S
C199 C201 1.397 . S
C199 C202 1.367 . S
C200 C198 1.405 . S
C200 C202 1.403 . S
C200 C233 1.439 . S
C201 H186 0.930 . S
C201 N197 1.319 . S
C201 C199 1.397 . S
C202 C199 1.367 . S
C202 C200 1.403 . S
C202 H209 0.929 . S
N203 Eu168 2.562 . S
N203 C204 1.325 . S
N203 C206 1.351 . S
C204 H190 0.929 . S
C204 N203 1.325 . S
C204 C208 1.416 . S
C205 C206 1.430 . S
C205 C207 1.404 . S
C205 C234 1.387 . S
C206 C198 1.448 . S
C206 N203 1.351 . S
C206 C205 1.430 . S
C207 H196 0.930 . S
C207 C205 1.404 . S
C207 C208 1.366 . S
C208 H187 0.930 . S
C208 C204 1.416 . S
C208 C207 1.366 . S
H209 C202 0.929 . S
H210 C233 0.931 . S
H211 C234 0.931 . S
O212 Eu168 2.462 . S
O212 C232 1.252 . S
O213 Eu168 2.373 . S
O213 C224 1.249 . S
O214 Eu179 2.335 . S
O214 C224 1.264 . S
O215 Eu168 2.432 . S
O215 C232 1.268 . S
O216 Eu168 2.291 . S
O216 C231 1.255 . S
O217 Eu179 2.372 . S
O217 C231 1.257 . S
O218 Eu179 2.462 . S
O218 C243 1.252 . S
O219 Eu179 2.373 . S
O219 C235 1.249 . S
O220 Eu168 2.335 . S
O220 C235 1.264 . S
O221 Eu179 2.432 . S
O221 C243 1.268 . S
O222 Eu179 2.291 . S
O222 C242 1.255 . S
O223 Eu168 2.372 . S
O223 C242 1.257 . S
C224 O213 1.249 . S
C224 O214 1.264 . S
C225 C228 1.382 . S
C225 C230 1.390 . S
C225 C232 1.506 . S
C226 C227 1.398 . S
C226 C230 1.392 . S
C227 C226 1.398 . S
C227 C229 1.372 . S
C227 H244 0.931 . S
C228 C225 1.382 . S
C228 C229 1.390 . S
C228 H245 0.931 . S
C229 C227 1.372 . S
C229 C228 1.390 . S
C229 H246 0.929 . S
C230 C225 1.390 . S
C230 C226 1.392 . S
C230 H247 0.930 . S
C231 O216 1.255 . S
C231 O217 1.257 . S
C232 Eu168 2.787 . S
C232 O212 1.252 . S
C232 O215 1.268 . S
C232 C225 1.506 . S
C233 C200 1.439 . S
C233 H210 0.931 . S
C233 C234 1.374 . S
C234 C205 1.387 . S
C234 H211 0.931 . S
C234 C233 1.374 . S
C235 O219 1.249 . S
C235 O220 1.264 . S
C236 C239 1.382 . S
C236 C240 1.390 . S
C236 C243 1.506 . S
C237 C238 1.398 1_556 S
C237 C240 1.392 . S
C238 C237 1.398 1_554 S
C238 C241 1.372 1_554 S
C238 H248 0.931 . S
C239 C236 1.382 . S
C239 C241 1.390 . S
C239 H249 0.931 . S
C240 C236 1.390 . S
C240 C237 1.392 . S
C240 H250 0.930 . S
C241 C238 1.372 1_556 S
C241 C239 1.390 . S
C241 H251 0.929 . S
C242 O222 1.255 . S
C242 O223 1.257 . S
C243 Eu179 2.787 . S
C243 O218 1.252 . S
C243 O221 1.268 . S
C243 C236 1.506 . S
H244 C227 0.931 . S
H245 C228 0.931 . S
H246 C229 0.929 . S
H247 C230 0.930 . S
H248 C238 0.931 . S
H249 C239 0.931 . S
H250 C240 0.930 . S
H251 C241 0.929 . S
Eu252 N281 2.600 . S
Eu252 N287 2.562 . S
Eu252 O296 2.462 . S
Eu252 O297 2.373 1_554 S
Eu252 O299 2.432 . S
Eu252 O300 2.291 . S
Eu252 O304 2.335 . S
Eu252 O307 2.372 . S
Eu252 C316 2.787 . S
C253 N254 1.365 . S
C253 C256 1.405 . S
C253 C260 1.448 . S
N254 C253 1.365 . S
N254 C257 1.319 . S
N254 Eu263 2.600 . S
C255 C257 1.397 . S
C255 C258 1.367 1_655 S
C255 H275 0.931 1_655 S
C256 C253 1.405 . S
C256 C258 1.403 1_655 S
C256 C262 1.439 . S
C257 N254 1.319 . S
C257 C255 1.397 . S
C257 H268 0.930 . S
C258 C255 1.367 1_455 S
C258 C256 1.403 1_455 S
C258 H279 0.929 . S
C259 C260 1.430 . S
C259 C261 1.387 . S
C259 C265 1.404 . S
C260 C253 1.448 . S
C260 C259 1.430 . S
C260 N264 1.351 . S
C261 C259 1.387 . S
C261 C262 1.374 . S
C261 H276 0.931 . S
C262 C256 1.439 . S
C262 C261 1.374 . S
C262 H277 0.931 . S
Eu263 N254 2.600 . S
Eu263 N264 2.562 . S
Eu263 O298 2.335 . S
Eu263 O301 2.372 1_556 S
Eu263 O302 2.462 . S
Eu263 O303 2.373 1_556 S
Eu263 O305 2.432 . S
Eu263 O306 2.291 . S
Eu263 C327 2.787 . S
N264 C260 1.351 . S
N264 Eu263 2.562 . S
N264 C266 1.325 . S
C265 C259 1.404 . S
C265 C267 1.366 . S
C265 H273 0.930 . S
C266 N264 1.325 . S
C266 C267 1.416 . S
C266 H272 0.929 . S
C267 C265 1.366 . S
C267 C266 1.416 . S
C267 H269 0.930 . S
H268 C257 0.930 . S
H269 C267 0.930 . S
H270 C285 0.930 . S
H271 C292 0.930 . S
H272 C266 0.929 . S
H273 C265 0.930 . S
H274 C288 0.929 . S
H275 C255 0.931 1_455 S
H276 C261 0.931 . S
H277 C262 0.931 . S
H278 C283 0.931 . S
H279 C258 0.929 . S
H280 C291 0.930 . S
N281 Eu252 2.600 . S
N281 C282 1.365 . S
N281 C285 1.319 . S
C282 N281 1.365 . S
C282 C284 1.405 . S
C282 C290 1.448 . S
C283 H278 0.931 . S
C283 C285 1.397 . S
C283 C286 1.367 . S
C284 C282 1.405 . S
C284 C286 1.403 . S
C284 C317 1.439 . S
C285 H270 0.930 . S
C285 N281 1.319 . S
C285 C283 1.397 . S
C286 C283 1.367 . S
C286 C284 1.403 . S
C286 H293 0.929 . S
N287 Eu252 2.562 . S
N287 C288 1.325 . S
N287 C290 1.351 . S
C288 H274 0.929 . S
C288 N287 1.325 . S
C288 C292 1.416 . S
C289 C290 1.430 . S
C289 C291 1.404 . S
C289 C318 1.387 . S
C290 C282 1.448 . S
C290 N287 1.351 . S
C290 C289 1.430 . S
C291 H280 0.930 . S
C291 C289 1.404 . S
C291 C292 1.366 . S
C292 H271 0.930 . S
C292 C288 1.416 . S
C292 C291 1.366 . S
H293 C286 0.929 . S
H294 C317 0.931 . S
H295 C318 0.931 . S
O296 Eu252 2.462 . S
O296 C316 1.252 . S
O297 Eu252 2.373 1_556 S
O297 C308 1.249 . S
O298 Eu263 2.335 . S
O298 C308 1.264 . S
O299 Eu252 2.432 . S
O299 C316 1.268 . S
O300 Eu252 2.291 . S
O300 C315 1.255 . S
O301 Eu263 2.372 1_554 S
O301 C315 1.257 . S
O302 Eu263 2.462 . S
O302 C327 1.252 . S
O303 Eu263 2.373 1_554 S
O303 C319 1.249 . S
O304 Eu252 2.335 . S
O304 C319 1.264 . S
O305 Eu263 2.432 . S
O305 C327 1.268 . S
O306 Eu263 2.291 . S
O306 C326 1.255 . S
O307 Eu252 2.372 . S
O307 C326 1.257 1_554 S
C308 O297 1.249 . S
C308 O298 1.264 . S
C309 C312 1.382 . S
C309 C314 1.390 . S
C309 C316 1.506 . S
C310 C311 1.398 . S
C310 C314 1.392 . S
C311 C310 1.398 . S
C311 C313 1.372 . S
C311 H328 0.931 . S
C312 C309 1.382 . S
C312 C313 1.390 . S
C312 H329 0.931 . S
C313 C311 1.372 . S
C313 C312 1.390 . S
C313 H330 0.929 . S
C314 C309 1.390 . S
C314 C310 1.392 . S
C314 H331 0.930 . S
C315 O300 1.255 . S
C315 O301 1.257 . S
C316 Eu252 2.787 . S
C316 O296 1.252 . S
C316 O299 1.268 . S
C316 C309 1.506 . S
C317 C284 1.439 . S
C317 H294 0.931 . S
C317 C318 1.374 . S
C318 C289 1.387 . S
C318 H295 0.931 . S
C318 C317 1.374 . S
C319 O303 1.249 . S
C319 O304 1.264 . S
C320 C323 1.382 . S
C320 C324 1.390 . S
C320 C327 1.506 . S
C321 C322 1.398 . S
C321 C324 1.392 . S
C322 C321 1.398 . S
C322 C325 1.372 . S
C322 H332 0.931 . S
C323 C320 1.382 . S
C323 C325 1.390 . S
C323 H333 0.931 . S
C324 C320 1.390 . S
C324 C321 1.392 . S
C324 H334 0.930 . S
C325 C322 1.372 . S
C325 C323 1.390 . S
C325 H335 0.929 . S
C326 O306 1.255 . S
C326 O307 1.257 1_556 S
C327 Eu263 2.787 . S
C327 O302 1.252 . S
C327 O305 1.268 . S
C327 C320 1.506 . S
H328 C311 0.931 . S
H329 C312 0.931 . S
H330 C313 0.929 . S
H331 C314 0.930 . S
H332 C322 0.931 . S
H333 C323 0.931 . S
H334 C324 0.930 . S
H335 C325 0.929 . S
Eu336 N365 2.600 . S
Eu336 N371 2.562 . S
Eu336 O380 2.462 . S
Eu336 O381 2.373 . S
Eu336 O383 2.432 . S
Eu336 O384 2.291 . S
Eu336 O388 2.335 . S
Eu336 O391 2.372 . S
Eu336 C400 2.787 . S
C337 N338 1.365 . S
C337 C340 1.405 . S
C337 C344 1.448 . S
N338 C337 1.365 . S
N338 C341 1.319 . S
N338 Eu347 2.600 . S
C339 C341 1.397 . S
C339 C342 1.367 1_455 S
C339 H359 0.931 1_455 S
C340 C337 1.405 . S
C340 C342 1.403 1_455 S
C340 C346 1.439 . S
C341 N338 1.319 . S
C341 C339 1.397 . S
C341 H352 0.930 . S
C342 C339 1.367 1_655 S
C342 C340 1.403 1_655 S
C342 H363 0.929 . S
C343 C344 1.430 . S
C343 C345 1.387 . S
C343 C349 1.404 . S
C344 C337 1.448 . S
C344 C343 1.430 . S
C344 N348 1.351 . S
C345 C343 1.387 . S
C345 C346 1.374 . S
C345 H360 0.931 . S
C346 C340 1.439 . S
C346 C345 1.374 . S
C346 H361 0.931 . S
Eu347 N338 2.600 . S
Eu347 N348 2.562 . S
Eu347 O382 2.335 . S
Eu347 O385 2.372 . S
Eu347 O386 2.462 . S
Eu347 O387 2.373 . S
Eu347 O389 2.432 . S
Eu347 O390 2.291 . S
Eu347 C411 2.787 . S
N348 C344 1.351 . S
N348 Eu347 2.562 . S
N348 C350 1.325 . S
C349 C343 1.404 . S
C349 C351 1.366 . S
C349 H357 0.930 . S
C350 N348 1.325 . S
C350 C351 1.416 . S
C350 H356 0.929 . S
C351 C349 1.366 . S
C351 C350 1.416 . S
C351 H353 0.930 . S
H352 C341 0.930 . S
H353 C351 0.930 . S
H354 C369 0.930 . S
H355 C376 0.930 . S
H356 C350 0.929 . S
H357 C349 0.930 . S
H358 C372 0.929 . S
H359 C339 0.931 1_655 S
H360 C345 0.931 . S
H361 C346 0.931 . S
H362 C367 0.931 . S
H363 C342 0.929 . S
H364 C375 0.930 1_545 S
N365 Eu336 2.600 . S
N365 C366 1.365 . S
N365 C369 1.319 . S
C366 N365 1.365 . S
C366 C368 1.412 . S
C366 C374 1.448 . S
C367 H362 0.931 . S
C367 C369 1.397 . S
C367 C370 1.367 . S
C368 C366 1.412 . S
C368 C370 1.410 . S
C368 C401 1.427 1_565 S
C369 H354 0.930 . S
C369 N365 1.319 . S
C369 C367 1.397 . S
C370 C367 1.367 . S
C370 C368 1.410 . S
C370 H377 0.929 1_565 S
N371 Eu336 2.562 . S
N371 C372 1.325 . S
N371 C374 1.351 . S
C372 H358 0.929 . S
C372 N371 1.325 . S
C372 C376 1.416 . S
C373 C374 1.430 . S
C373 C375 1.404 . S
C373 C402 1.387 1_565 S
C374 C366 1.448 . S
C374 N371 1.351 . S
C374 C373 1.430 . S
C375 H364 0.930 1_565 S
C375 C373 1.404 . S
C375 C376 1.366 . S
C376 H355 0.930 . S
C376 C372 1.416 . S
C376 C375 1.366 . S
H377 C370 0.929 1_545 S
H378 C401 0.931 . S
H379 C402 0.931 . S
O380 Eu336 2.462 . S
O380 C400 1.252 . S
O381 Eu336 2.373 . S
O381 C392 1.249 . S
O382 Eu347 2.335 . S
O382 C392 1.264 . S
O383 Eu336 2.432 . S
O383 C400 1.268 . S
O384 Eu336 2.291 . S
O384 C399 1.255 . S
O385 Eu347 2.372 . S
O385 C399 1.257 . S
O386 Eu347 2.462 . S
O386 C411 1.252 . S
O387 Eu347 2.373 . S
O387 C403 1.249 . S
O388 Eu336 2.335 . S
O388 C403 1.264 . S
O389 Eu347 2.432 . S
O389 C411 1.268 . S
O390 Eu347 2.291 . S
O390 C410 1.255 . S
O391 Eu336 2.372 . S
O391 C410 1.257 . S
C392 O381 1.249 . S
C392 O382 1.264 . S
C393 C396 1.382 . S
C393 C398 1.390 . S
C393 C400 1.506 . S
C394 C395 1.398 1_554 S
C394 C398 1.392 . S
C395 C394 1.398 1_556 S
C395 C397 1.372 1_556 S
C395 H412 0.931 . S
C396 C393 1.382 . S
C396 C397 1.390 . S
C396 H413 0.931 . S
C397 C395 1.372 1_554 S
C397 C396 1.390 . S
C397 H414 0.929 . S
C398 C393 1.390 . S
C398 C394 1.392 . S
C398 H415 0.930 . S
C399 O384 1.255 . S
C399 O385 1.257 . S
C400 Eu336 2.787 . S
C400 O380 1.252 . S
C400 O383 1.268 . S
C400 C393 1.506 . S
C401 C368 1.427 1_545 S
C401 H378 0.931 . S
C401 C402 1.374 . S
C402 C373 1.387 1_545 S
C402 H379 0.931 . S
C402 C401 1.374 . S
C403 O387 1.249 . S
C403 O388 1.264 . S
C404 C407 1.382 . S
C404 C408 1.390 . S
C404 C411 1.506 . S
C405 C406 1.398 . S
C405 C408 1.392 . S
C406 C405 1.398 . S
C406 C409 1.372 . S
C406 H416 0.931 . S
C407 C404 1.382 . S
C407 C409 1.390 . S
C407 H417 0.931 . S
C408 C404 1.390 . S
C408 C405 1.392 . S
C408 H418 0.930 . S
C409 C406 1.372 . S
C409 C407 1.390 . S
C409 H419 0.929 . S
C410 O390 1.255 . S
C410 O391 1.257 . S
C411 Eu347 2.787 . S
C411 O386 1.252 . S
C411 O389 1.268 . S
C411 C404 1.506 . S
H412 C395 0.931 . S
H413 C396 0.931 . S
H414 C397 0.929 . S
H415 C398 0.930 . S
H416 C406 0.931 . S
H417 C407 0.931 . S
H418 C408 0.930 . S
H419 C409 0.929 . S
Eu420 N449 2.600 . S
Eu420 N455 2.562 . S
Eu420 O464 2.462 . S
Eu420 O465 2.373 . S
Eu420 O467 2.432 . S
Eu420 O468 2.291 . S
Eu420 O472 2.335 . S
Eu420 O475 2.372 . S
Eu420 C484 2.787 . S
C421 N422 1.365 . S
C421 C424 1.405 . S
C421 C428 1.448 . S
N422 C421 1.365 . S
N422 C425 1.319 . S
N422 Eu431 2.600 . S
C423 C425 1.397 . S
C423 C426 1.367 . S
C423 H443 0.931 . S
C424 C421 1.405 . S
C424 C426 1.403 . S
C424 C430 1.439 . S
C425 N422 1.319 . S
C425 C423 1.397 . S
C425 H436 0.930 . S
C426 C423 1.367 . S
C426 C424 1.403 . S
C426 H447 0.929 . S
C427 C428 1.430 . S
C427 C429 1.387 . S
C427 C433 1.404 . S
C428 C421 1.448 . S
C428 C427 1.430 . S
C428 N432 1.351 . S
C429 C427 1.387 . S
C429 C430 1.374 . S
C429 H444 0.931 . S
C430 C424 1.439 . S
C430 C429 1.374 . S
C430 H445 0.931 . S
Eu431 N422 2.600 . S
Eu431 N432 2.562 . S
Eu431 O466 2.335 . S
Eu431 O469 2.372 . S
Eu431 O470 2.462 . S
Eu431 O471 2.373 . S
Eu431 O473 2.432 . S
Eu431 O474 2.291 . S
Eu431 C495 2.787 . S
N432 C428 1.351 . S
N432 Eu431 2.562 . S
N432 C434 1.325 . S
C433 C427 1.404 . S
C433 C435 1.366 . S
C433 H441 0.930 . S
C434 N432 1.325 . S
C434 C435 1.416 . S
C434 H440 0.929 . S
C435 C433 1.366 . S
C435 C434 1.416 . S
C435 H437 0.930 . S
H436 C425 0.930 . S
H437 C435 0.930 . S
H438 C453 0.930 . S
H439 C460 0.930 . S
H440 C434 0.929 . S
H441 C433 0.930 . S
H442 C456 0.929 . S
H443 C423 0.931 . S
H444 C429 0.931 . S
H445 C430 0.931 . S
H446 C451 0.931 . S
H447 C426 0.929 . S
H448 C459 0.930 1_565 S
N449 Eu420 2.600 . S
N449 C450 1.365 . S
N449 C453 1.319 . S
C450 N449 1.365 . S
C450 C452 1.417 . S
C450 C458 1.448 . S
C451 H446 0.931 . S
C451 C453 1.397 . S
C451 C454 1.367 . S
C452 C450 1.417 . S
C452 C454 1.398 . S
C452 C485 1.433 1_545 S
C453 H438 0.930 . S
C453 N449 1.319 . S
C453 C451 1.397 . S
C454 C451 1.367 . S
C454 C452 1.398 . S
C454 H461 0.929 1_545 S
N455 Eu420 2.562 . S
N455 C456 1.325 . S
N455 C458 1.351 . S
C456 H442 0.929 . S
C456 N455 1.325 . S
C456 C460 1.416 . S
C457 C458 1.430 . S
C457 C459 1.404 . S
C457 C486 1.387 1_545 S
C458 C450 1.448 . S
C458 N455 1.351 . S
C458 C457 1.430 . S
C459 H448 0.930 1_545 S
C459 C457 1.404 . S
C459 C460 1.366 . S
C460 H439 0.930 . S
C460 C456 1.416 . S
C460 C459 1.366 . S
H461 C454 0.929 1_565 S
H462 C485 0.931 . S
H463 C486 0.931 . S
O464 Eu420 2.462 . S
O464 C484 1.252 . S
O465 Eu420 2.373 . S
O465 C476 1.249 . S
O466 Eu431 2.335 . S
O466 C476 1.264 . S
O467 Eu420 2.432 . S
O467 C484 1.268 . S
O468 Eu420 2.291 . S
O468 C483 1.255 . S
O469 Eu431 2.372 . S
O469 C483 1.257 . S
O470 Eu431 2.462 . S
O470 C495 1.252 . S
O471 Eu431 2.373 . S
O471 C487 1.249 . S
O472 Eu420 2.335 . S
O472 C487 1.264 . S
O473 Eu431 2.432 . S
O473 C495 1.268 . S
O474 Eu431 2.291 . S
O474 C494 1.255 . S
O475 Eu420 2.372 . S
O475 C494 1.257 . S
C476 O465 1.249 . S
C476 O466 1.264 . S
C477 C480 1.382 . S
C477 C482 1.390 . S
C477 C484 1.506 . S
C478 C479 1.398 . S
C478 C482 1.392 1_554 S
C479 C478 1.398 . S
C479 C481 1.372 1_554 S
C479 H496 0.931 . S
C480 C477 1.382 . S
C480 C481 1.390 . S
C480 H497 0.931 . S
C481 C479 1.372 1_556 S
C481 C480 1.390 . S
C481 H498 0.929 . S
C482 C477 1.390 . S
C482 C478 1.392 1_556 S
C482 H499 0.930 . S
C483 O468 1.255 . S
C483 O469 1.257 . S
C484 Eu420 2.787 . S
C484 O464 1.252 . S
C484 O467 1.268 . S
C484 C477 1.506 . S
C485 C452 1.433 1_565 S
C485 H462 0.931 . S
C485 C486 1.374 . S
C486 C457 1.387 1_565 S
C486 H463 0.931 . S
C486 C485 1.374 . S
C487 O471 1.249 . S
C487 O472 1.264 . S
C488 C491 1.382 . S
C488 C492 1.390 . S
C488 C495 1.506 . S
C489 C490 1.398 . S
C489 C492 1.392 . S
C490 C489 1.398 . S
C490 C493 1.372 . S
C490 H500 0.931 . S
C491 C488 1.382 . S
C491 C493 1.390 . S
C491 H501 0.931 . S
C492 C488 1.390 . S
C492 C489 1.392 . S
C492 H502 0.930 . S
C493 C490 1.372 . S
C493 C491 1.390 . S
C493 H503 0.929 . S
C494 O474 1.255 . S
C494 O475 1.257 . S
C495 Eu431 2.787 . S
C495 O470 1.252 . S
C495 O473 1.268 . S
C495 C488 1.506 . S
H496 C479 0.931 . S
H497 C480 0.931 . S
H498 C481 0.929 . S
H499 C482 0.930 . S
H500 C490 0.931 . S
H501 C491 0.931 . S
H502 C492 0.930 . S
H503 C493 0.929 . S
H504 C516 0.930 . S
H505 C518 0.930 . S
H506 C519 0.930 . S
H507 C523 0.959 . S
H508 C523 0.959 . S
H509 C523 0.961 . S
H510 C524 0.960 . S
H511 C524 0.961 . S
H512 C524 0.959 . S
H513 C527 0.929 . S
H514 C528 0.931 . S
H515 C530 0.930 . S
C516 H504 0.930 . S
C516 C517 1.399 . S
C516 C521 1.399 . S
C517 C516 1.399 . S
C517 C518 1.376 . S
C518 H505 0.930 . S
C518 C517 1.376 . S
C518 C519 1.388 . S
C519 H506 0.930 . S
C519 C518 1.388 . S
C519 C520 1.390 . S
C520 C519 1.390 . S
C520 C521 1.394 . S
C520 C526 1.465 . S
C521 C516 1.399 . S
C521 C520 1.394 . S
C521 C522 1.516 . S
C522 C521 1.516 . S
C522 C523 1.502 . S
C522 C524 1.561 . S
C522 C525 1.526 . S
C523 H507 0.959 . S
C523 H508 0.959 . S
C523 H509 0.961 . S
C523 C522 1.502 . S
C524 H510 0.960 . S
C524 H511 0.961 . S
C524 H512 0.959 . S
C524 C522 1.561 . S
C525 C522 1.526 . S
C525 C526 1.396 . S
C525 C530 1.390 . S
C526 C520 1.465 . S
C526 C525 1.396 . S
C526 C527 1.399 . S
C527 H513 0.929 . S
C527 C526 1.399 . S
C527 C528 1.385 . S
C528 H514 0.931 . S
C528 C527 1.385 . S
C528 C529 1.389 . S
C529 C528 1.389 . S
C529 C530 1.387 . S
C530 H515 0.930 . S
C530 C525 1.390 . S
C530 C529 1.387 . S
H531 C543 0.930 . S
H532 C545 0.930 . S
H533 C546 0.930 1_655 S
H534 C550 0.959 . S
H535 C550 0.959 . S
H536 C550 0.961 . S
H537 C551 0.960 . S
H538 C551 0.961 . S
H539 C551 0.959 . S
H540 C554 0.929 . S
H541 C555 0.931 . S
H542 C557 0.930 . S
C543 H531 0.930 . S
C543 C544 1.399 . S
C543 C548 1.399 . S
C544 C543 1.399 . S
C544 C545 1.376 . S
C545 H532 0.930 . S
C545 C544 1.376 . S
C545 C546 1.388 . S
C546 H533 0.930 1_455 S
C546 C545 1.388 . S
C546 C547 1.390 . S
C547 C546 1.390 . S
C547 C548 1.394 . S
C547 C553 1.465 1_455 S
C548 C543 1.399 . S
C548 C547 1.394 . S
C548 C549 1.516 . S
C549 C548 1.516 . S
C549 C550 1.502 . S
C549 C551 1.561 . S
C549 C552 1.526 1_455 S
C550 H534 0.959 . S
C550 H535 0.959 . S
C550 H536 0.961 . S
C550 C549 1.502 . S
C551 H537 0.960 . S
C551 H538 0.961 . S
C551 H539 0.959 . S
C551 C549 1.561 . S
C552 C549 1.526 1_655 S
C552 C553 1.396 . S
C552 C557 1.390 . S
C553 C547 1.465 1_655 S
C553 C552 1.396 . S
C553 C554 1.399 . S
C554 H540 0.929 . S
C554 C553 1.399 . S
C554 C555 1.385 . S
C555 H541 0.931 . S
C555 C554 1.385 . S
C555 C556 1.389 . S
C556 C555 1.389 . S
C556 C557 1.387 . S
C557 H542 0.930 . S
C557 C552 1.390 . S
C557 C556 1.387 . S
H558 C570 0.930 . S
H559 C572 0.930 . S
H560 C573 0.930 1_565 S
H561 C577 0.959 . S
H562 C577 0.959 . S
H563 C577 0.961 . S
H564 C578 0.960 . S
H565 C578 0.961 . S
H566 C578 0.959 . S
H567 C581 0.929 . S
H568 C582 0.931 . S
H569 C584 0.930 . S
C570 H558 0.930 . S
C570 C571 1.399 . S
C570 C575 1.399 . S
C571 C570 1.399 . S
C571 C572 1.376 . S
C572 H559 0.930 . S
C572 C571 1.376 . S
C572 C573 1.388 . S
C573 H560 0.930 1_545 S
C573 C572 1.388 . S
C573 C574 1.390 . S
C574 C573 1.390 . S
C574 C575 1.394 . S
C574 C580 1.465 1_545 S
C575 C570 1.399 . S
C575 C574 1.394 . S
C575 C576 1.516 . S
C576 C575 1.516 . S
C576 C577 1.502 . S
C576 C578 1.561 . S
C576 C579 1.526 1_545 S
C577 H561 0.959 . S
C577 H562 0.959 . S
C577 H563 0.961 . S
C577 C576 1.502 . S
C578 H564 0.960 . S
C578 H565 0.961 . S
C578 H566 0.959 . S
C578 C576 1.561 . S
C579 C576 1.526 1_565 S
C579 C580 1.396 . S
C579 C584 1.390 . S
C580 C574 1.465 1_565 S
C580 C579 1.396 . S
C580 C581 1.399 . S
C581 H567 0.929 . S
C581 C580 1.399 . S
C581 C582 1.385 . S
C582 H568 0.931 . S
C582 C581 1.385 . S
C582 C583 1.389 . S
C583 C582 1.389 . S
C583 C584 1.387 . S
C584 H569 0.930 . S
C584 C579 1.390 . S
C584 C583 1.387 . S
H585 C597 0.930 . S
H586 C599 0.930 . S
H587 C600 0.930 . S
H588 C604 0.959 . S
H589 C604 0.959 . S
H590 C604 0.961 . S
H591 C605 0.960 . S
H592 C605 0.961 . S
H593 C605 0.959 . S
H594 C608 0.929 . S
H595 C609 0.931 . S
H596 C611 0.930 . S
C597 H585 0.930 . S
C597 C598 1.399 . S
C597 C602 1.399 . S
C598 C597 1.399 . S
C598 C599 1.376 . S
C599 H586 0.930 . S
C599 C598 1.376 . S
C599 C600 1.388 . S
C600 H587 0.930 . S
C600 C599 1.388 . S
C600 C601 1.390 . S
C601 C600 1.390 . S
C601 C602 1.394 . S
C601 C607 1.465 . S
C602 C597 1.399 . S
C602 C601 1.394 . S
C602 C603 1.516 . S
C603 C602 1.516 . S
C603 C604 1.502 . S
C603 C605 1.561 . S
C603 C606 1.526 . S
C604 H588 0.959 . S
C604 H589 0.959 . S
C604 H590 0.961 . S
C604 C603 1.502 . S
C605 H591 0.960 . S
C605 H592 0.961 . S
C605 H593 0.959 . S
C605 C603 1.561 . S
C606 C603 1.526 . S
C606 C607 1.396 . S
C606 C611 1.390 . S
C607 C601 1.465 . S
C607 C606 1.396 . S
C607 C608 1.399 . S
C608 H594 0.929 . S
C608 C607 1.399 . S
C608 C609 1.385 . S
C609 H595 0.931 . S
C609 C608 1.385 . S
C609 C610 1.389 . S
C610 C609 1.389 . S
C610 C611 1.387 . S
C611 H596 0.930 . S
C611 C606 1.390 . S
C611 C610 1.387 . S
H612 C624 0.930 . S
H613 C626 0.930 . S
H614 C627 0.930 . S
H615 C631 0.959 . S
H616 C631 0.959 . S
H617 C631 0.961 . S
H618 C632 0.960 . S
H619 C632 0.961 . S
H620 C632 0.959 . S
H621 C635 0.929 . S
H622 C636 0.931 . S
H623 C638 0.930 . S
C624 H612 0.930 . S
C624 C625 1.399 . S
C624 C629 1.399 . S
C625 C624 1.399 . S
C625 C626 1.376 . S
C626 H613 0.930 . S
C626 C625 1.376 . S
C626 C627 1.388 . S
C627 H614 0.930 . S
C627 C626 1.388 . S
C627 C628 1.390 . S
C628 C627 1.390 . S
C628 C629 1.394 . S
C628 C634 1.465 1_455 S
C629 C624 1.399 . S
C629 C628 1.394 . S
C629 C630 1.501 1_455 S
C630 C629 1.501 1_655 S
C630 C631 1.515 . S
C630 C632 1.559 1_655 S
C630 C633 1.529 . S
C631 H615 0.959 . S
C631 H616 0.959 . S
C631 H617 0.961 . S
C631 C630 1.515 . S
C632 H618 0.960 . S
C632 H619 0.961 . S
C632 H620 0.959 . S
C632 C630 1.559 1_455 S
C633 C630 1.529 . S
C633 C634 1.396 . S
C633 C638 1.390 . S
C634 C628 1.465 1_655 S
C634 C633 1.396 . S
C634 C635 1.399 . S
C635 H621 0.929 . S
C635 C634 1.399 . S
C635 C636 1.385 . S
C636 H622 0.931 . S
C636 C635 1.385 . S
C636 C637 1.389 . S
C637 C636 1.389 . S
C637 C638 1.387 . S
C638 H623 0.930 . S
C638 C633 1.390 . S
C638 C637 1.387 . S
H639 C651 0.930 . S
H640 C653 0.930 . S
H641 C654 0.930 . S
H642 C658 0.959 . S
H643 C658 0.959 . S
H644 C658 0.961 1_545 S
H645 C659 0.960 . S
H646 C659 0.961 . S
H647 C659 0.959 . S
H648 C662 0.929 . S
H649 C663 0.931 . S
H650 C665 0.930 . S
C651 H639 0.930 . S
C651 C652 1.399 . S
C651 C656 1.399 . S
C652 C651 1.399 . S
C652 C653 1.376 . S
C653 H640 0.930 . S
C653 C652 1.376 . S
C653 C654 1.388 . S
C654 H641 0.930 . S
C654 C653 1.388 . S
C654 C655 1.390 . S
C655 C654 1.390 . S
C655 C656 1.394 . S
C655 C661 1.465 1_545 S
C656 C651 1.399 . S
C656 C655 1.394 . S
C656 C657 1.516 . S
C657 C656 1.516 . S
C657 C658 1.502 1_545 S
C657 C659 1.561 . S
C657 C660 1.526 1_545 S
C658 H642 0.959 . S
C658 H643 0.959 . S
C658 H644 0.961 1_565 S
C658 C657 1.502 1_565 S
C659 H645 0.960 . S
C659 H646 0.961 . S
C659 H647 0.959 . S
C659 C657 1.561 . S
C660 C657 1.526 1_565 S
C660 C661 1.396 . S
C660 C665 1.390 . S
C661 C655 1.465 1_565 S
C661 C660 1.396 . S
C661 C662 1.399 . S
C662 H648 0.929 . S
C662 C661 1.399 . S
C662 C663 1.385 . S
C663 H649 0.931 . S
C663 C662 1.385 . S
C663 C664 1.389 . S
C664 C663 1.389 . S
C664 C665 1.387 . S
C665 H650 0.930 . S
C665 C660 1.390 . S
C665 C664 1.387 . S
H666 C678 0.930 . S
H667 C680 0.930 . S
H668 C681 0.930 . S
H669 C685 0.959 . S
H670 C685 0.959 . S
H671 C685 0.961 . S
H672 C686 0.960 . S
H673 C686 0.961 . S
H674 C686 0.959 . S
H675 C689 0.929 . S
H676 C690 0.931 . S
H677 C692 0.930 . S
C678 H666 0.930 . S
C678 C679 1.399 . S
C678 C683 1.399 . S
C679 C678 1.399 . S
C679 C680 1.376 . S
C680 H667 0.930 . S
C680 C679 1.376 . S
C680 C681 1.388 . S
C681 H668 0.930 . S
C681 C680 1.388 . S
C681 C682 1.390 . S
C682 C681 1.390 . S
C682 C683 1.394 . S
C682 C688 1.465 . S
C683 C678 1.399 . S
C683 C682 1.394 . S
C683 C684 1.516 . S
C684 C683 1.516 . S
C684 C685 1.502 . S
C684 C686 1.561 . S
C684 C687 1.526 . S
C685 H669 0.959 . S
C685 H670 0.959 . S
C685 H671 0.961 . S
C685 C684 1.502 . S
C686 H672 0.960 . S
C686 H673 0.961 . S
C686 H674 0.959 . S
C686 C684 1.561 . S
C687 C684 1.526 . S
C687 C688 1.396 . S
C687 C692 1.390 . S
C688 C682 1.465 . S
C688 C687 1.396 . S
C688 C689 1.399 . S
C689 H675 0.929 . S
C689 C688 1.399 . S
C689 C690 1.385 . S
C690 H676 0.931 . S
C690 C689 1.385 . S
C690 C691 1.389 . S
C691 C690 1.389 . S
C691 C692 1.387 . S
C692 H677 0.930 . S
C692 C687 1.390 . S
C692 C691 1.387 . S
H693 C705 0.930 . S
H694 C707 0.930 . S
H695 C708 0.930 . S
H696 C712 0.959 . S
H697 C712 0.959 . S
H698 C712 0.961 . S
H699 C713 0.960 . S
H700 C713 0.961 . S
H701 C713 0.959 . S
H702 C716 0.929 . S
H703 C717 0.931 . S
H704 C719 0.930 . S
C705 H693 0.930 . S
C705 C706 1.399 . S
C705 C710 1.399 . S
C706 C705 1.399 . S
C706 C707 1.376 . S
C707 H694 0.930 . S
C707 C706 1.376 . S
C707 C708 1.388 . S
C708 H695 0.930 . S
C708 C707 1.388 . S
C708 C709 1.390 . S
C709 C708 1.390 . S
C709 C710 1.394 . S
C709 C715 1.465 . S
C710 C705 1.399 . S
C710 C709 1.394 . S
C710 C711 1.516 . S
C711 C710 1.516 . S
C711 C712 1.502 . S
C711 C713 1.561 . S
C711 C714 1.526 . S
C712 H696 0.959 . S
C712 H697 0.959 . S
C712 H698 0.961 . S
C712 C711 1.502 . S
C713 H699 0.960 . S
C713 H700 0.961 . S
C713 H701 0.959 . S
C713 C711 1.561 . S
C714 C711 1.526 . S
C714 C715 1.396 . S
C714 C719 1.390 . S
C715 C709 1.465 . S
C715 C714 1.396 . S
C715 C716 1.399 . S
C716 H702 0.929 . S
C716 C715 1.399 . S
C716 C717 1.385 . S
C717 H703 0.931 . S
C717 C716 1.385 . S
C717 C718 1.389 . S
C718 C717 1.389 . S
C718 C719 1.387 . S
C719 H704 0.930 . S
C719 C714 1.390 . S
C719 C718 1.387 . S
H720 C732 0.930 . S
H721 C734 0.930 . S
H722 C735 0.930 . S
H723 C739 0.959 . S
H724 C739 0.959 . S
H725 C739 0.961 . S
H726 C740 0.960 . S
H727 C740 0.961 . S
H728 C740 0.959 . S
H729 C743 0.929 . S
H730 C744 0.931 . S
H731 C746 0.930 . S
C732 H720 0.930 . S
C732 C733 1.399 . S
C732 C737 1.399 . S
C733 C732 1.399 . S
C733 C734 1.376 . S
C734 H721 0.930 . S
C734 C733 1.376 . S
C734 C735 1.388 . S
C735 H722 0.930 . S
C735 C734 1.388 . S
C735 C736 1.390 . S
C736 C735 1.390 . S
C736 C737 1.394 . S
C736 C742 1.465 . S
C737 C732 1.399 . S
C737 C736 1.394 . S
C737 C738 1.516 . S
C738 C737 1.516 . S
C738 C739 1.502 . S
C738 C740 1.561 . S
C738 C741 1.526 . S
C739 H723 0.959 . S
C739 H724 0.959 . S
C739 H725 0.961 . S
C739 C738 1.502 . S
C740 H726 0.960 . S
C740 H727 0.961 . S
C740 H728 0.959 . S
C740 C738 1.561 . S
C741 C738 1.526 . S
C741 C742 1.396 . S
C741 C746 1.390 . S
C742 C736 1.465 . S
C742 C741 1.396 . S
C742 C743 1.399 . S
C743 H729 0.929 . S
C743 C742 1.399 . S
C743 C744 1.385 . S
C744 H730 0.931 . S
C744 C743 1.385 . S
C744 C745 1.389 . S
C745 C744 1.389 . S
C745 C746 1.387 . S
C746 H731 0.930 . S
C746 C741 1.390 . S
C746 C745 1.387 . S
H747 C759 0.930 . S
H748 C761 0.930 . S
H749 C762 0.930 . S
H750 C766 0.959 . S
H751 C766 0.959 . S
H752 C766 0.961 . S
H753 C767 0.960 . S
H754 C767 0.961 . S
H755 C767 0.959 . S
H756 C770 0.929 . S
H757 C771 0.931 . S
H758 C773 0.930 . S
C759 H747 0.930 . S
C759 C760 1.399 . S
C759 C764 1.399 . S
C760 C759 1.399 . S
C760 C761 1.376 . S
C761 H748 0.930 . S
C761 C760 1.376 . S
C761 C762 1.388 . S
C762 H749 0.930 . S
C762 C761 1.388 . S
C762 C763 1.390 . S
C763 C762 1.390 . S
C763 C764 1.394 . S
C763 C769 1.465 . S
C764 C759 1.399 . S
C764 C763 1.394 . S
C764 C765 1.516 . S
C765 C764 1.516 . S
C765 C766 1.502 . S
C765 C767 1.561 . S
C765 C768 1.526 . S
C766 H750 0.959 . S
C766 H751 0.959 . S
C766 H752 0.961 . S
C766 C765 1.502 . S
C767 H753 0.960 . S
C767 H754 0.961 . S
C767 H755 0.959 . S
C767 C765 1.561 . S
C768 C765 1.526 . S
C768 C769 1.396 . S
C768 C773 1.390 . S
C769 C763 1.465 . S
C769 C768 1.396 . S
C769 C770 1.399 . S
C770 H756 0.929 . S
C770 C769 1.399 . S
C770 C771 1.385 . S
C771 H757 0.931 . S
C771 C770 1.385 . S
C771 C772 1.389 . S
C772 C771 1.389 . S
C772 C773 1.387 . S
C773 H758 0.930 . S
C773 C768 1.390 . S
C773 C772 1.387 . S
H774 C786 0.930 . S
H775 C788 0.930 . S
H776 C789 0.930 . S
H777 C793 0.959 . S
H778 C793 0.959 . S
H779 C793 0.961 . S
H780 C794 0.960 . S
H781 C794 0.961 . S
H782 C794 0.959 . S
H783 C797 0.929 . S
H784 C798 0.931 . S
H785 C800 0.930 . S
C786 H774 0.930 . S
C786 C787 1.399 . S
C786 C791 1.399 . S
C787 C786 1.399 . S
C787 C788 1.376 . S
C788 H775 0.930 . S
C788 C787 1.376 . S
C788 C789 1.388 . S
C789 H776 0.930 . S
C789 C788 1.388 . S
C789 C790 1.390 . S
C790 C789 1.390 . S
C790 C791 1.394 . S
C790 C796 1.465 . S
C791 C786 1.399 . S
C791 C790 1.394 . S
C791 C792 1.516 . S
C792 C791 1.516 . S
C792 C793 1.502 . S
C792 C794 1.561 . S
C792 C795 1.526 . S
C793 H777 0.959 . S
C793 H778 0.959 . S
C793 H779 0.961 . S
C793 C792 1.502 . S
C794 H780 0.960 . S
C794 H781 0.961 . S
C794 H782 0.959 . S
C794 C792 1.561 . S
C795 C792 1.526 . S
C795 C796 1.396 . S
C795 C800 1.390 . S
C796 C790 1.465 . S
C796 C795 1.396 . S
C796 C797 1.399 . S
C797 H783 0.929 . S
C797 C796 1.399 . S
C797 C798 1.385 . S
C798 H784 0.931 . S
C798 C797 1.385 . S
C798 C799 1.389 . S
C799 C798 1.389 . S
C799 C800 1.387 . S
C800 H785 0.930 . S
C800 C795 1.390 . S
C800 C799 1.387 . S
H801 C813 0.930 . S
H802 C815 0.930 . S
H803 C816 0.930 . S
H804 C820 0.959 . S
H805 C820 0.959 . S
H806 C820 0.961 . S
H807 C821 0.960 . S
H808 C821 0.961 . S
H809 C821 0.959 . S
H810 C824 0.929 . S
H811 C825 0.931 . S
H812 C827 0.930 . S
C813 H801 0.930 . S
C813 C814 1.399 . S
C813 C818 1.399 . S
C814 C813 1.399 . S
C814 C815 1.376 . S
C815 H802 0.930 . S
C815 C814 1.376 . S
C815 C816 1.388 . S
C816 H803 0.930 . S
C816 C815 1.388 . S
C816 C817 1.390 . S
C817 C816 1.390 . S
C817 C818 1.394 . S
C817 C823 1.465 . S
C818 C813 1.399 . S
C818 C817 1.394 . S
C818 C819 1.516 . S
C819 C818 1.516 . S
C819 C820 1.502 . S
C819 C821 1.561 . S
C819 C822 1.526 . S
C820 H804 0.959 . S
C820 H805 0.959 . S
C820 H806 0.961 . S
C820 C819 1.502 . S
C821 H807 0.960 . S
C821 H808 0.961 . S
C821 H809 0.959 . S
C821 C819 1.561 . S
C822 C819 1.526 . S
C822 C823 1.396 . S
C822 C827 1.390 . S
C823 C817 1.465 . S
C823 C822 1.396 . S
C823 C824 1.399 . S
C824 H810 0.929 . S
C824 C823 1.399 . S
C824 C825 1.385 . S
C825 H811 0.931 . S
C825 C824 1.385 . S
C825 C826 1.389 . S
C826 C825 1.389 . S
C826 C827 1.387 . S
C827 H812 0.930 . S
C827 C822 1.390 . S
C827 C826 1.387 . S
H828 C840 0.930 . S
H829 C842 0.930 . S
H830 C843 0.930 . S
H831 C847 0.959 . S
H832 C847 0.959 . S
H833 C847 0.961 . S
H834 C848 0.960 . S
H835 C848 0.961 . S
H836 C848 0.959 . S
H837 C851 0.929 . S
H838 C852 0.931 . S
H839 C854 0.930 . S
C840 H828 0.930 . S
C840 C841 1.399 . S
C840 C845 1.399 . S
C841 C840 1.399 . S
C841 C842 1.376 . S
C842 H829 0.930 . S
C842 C841 1.376 . S
C842 C843 1.388 . S
C843 H830 0.930 . S
C843 C842 1.388 . S
C843 C844 1.390 . S
C844 C843 1.390 . S
C844 C845 1.394 . S
C844 C850 1.465 . S
C845 C840 1.399 . S
C845 C844 1.394 . S
C845 C846 1.516 . S
C846 C845 1.516 . S
C846 C847 1.502 . S
C846 C848 1.561 . S
C846 C849 1.526 . S
C847 H831 0.959 . S
C847 H832 0.959 . S
C847 H833 0.961 . S
C847 C846 1.502 . S
C848 H834 0.960 . S
C848 H835 0.961 . S
C848 H836 0.959 . S
C848 C846 1.561 . S
C849 C846 1.526 . S
C849 C850 1.396 . S
C849 C854 1.390 . S
C850 C844 1.465 . S
C850 C849 1.396 . S
C850 C851 1.399 . S
C851 H837 0.929 . S
C851 C850 1.399 . S
C851 C852 1.385 . S
C852 H838 0.931 . S
C852 C851 1.385 . S
C852 C853 1.389 . S
C853 C852 1.389 . S
C853 C854 1.387 . S
C854 H839 0.930 . S
C854 C849 1.390 . S
C854 C853 1.387 . S
H855 C867 0.930 . S
H856 C869 0.930 . S
H857 C870 0.930 . S
H858 C874 0.959 . S
H859 C874 0.959 . S
H860 C874 0.961 . S
H861 C875 0.960 . S
H862 C875 0.961 . S
H863 C875 0.959 . S
H864 C878 0.929 . S
H865 C879 0.931 . S
H866 C881 0.930 . S
C867 H855 0.930 . S
C867 C868 1.399 . S
C867 C872 1.399 . S
C868 C867 1.399 . S
C868 C869 1.376 . S
C869 H856 0.930 . S
C869 C868 1.376 . S
C869 C870 1.388 . S
C870 H857 0.930 . S
C870 C869 1.388 . S
C870 C871 1.390 . S
C871 C870 1.390 . S
C871 C872 1.394 . S
C871 C877 1.465 . S
C872 C867 1.399 . S
C872 C871 1.394 . S
C872 C873 1.516 . S
C873 C872 1.516 . S
C873 C874 1.502 . S
C873 C875 1.561 . S
C873 C876 1.526 . S
C874 H858 0.959 . S
C874 H859 0.959 . S
C874 H860 0.961 . S
C874 C873 1.502 . S
C875 H861 0.960 . S
C875 H862 0.961 . S
C875 H863 0.959 . S
C875 C873 1.561 . S
C876 C873 1.526 . S
C876 C877 1.396 . S
C876 C881 1.390 . S
C877 C871 1.465 . S
C877 C876 1.396 . S
C877 C878 1.399 . S
C878 H864 0.929 . S
C878 C877 1.399 . S
C878 C879 1.385 . S
C879 H865 0.931 . S
C879 C878 1.385 . S
C879 C880 1.389 . S
C880 C879 1.389 . S
C880 C881 1.387 . S
C881 H866 0.930 . S
C881 C876 1.390 . S
C881 C880 1.387 . S
H882 C894 0.930 . S
H883 C896 0.930 . S
H884 C897 0.930 . S
H885 C901 0.959 . S
H886 C901 0.959 . S
H887 C901 0.961 . S
H888 C902 0.960 . S
H889 C902 0.961 . S
H890 C902 0.959 . S
H891 C905 0.929 . S
H892 C906 0.931 . S
H893 C908 0.930 . S
C894 H882 0.930 . S
C894 C895 1.399 . S
C894 C899 1.399 . S
C895 C894 1.399 . S
C895 C896 1.376 . S
C896 H883 0.930 . S
C896 C895 1.376 . S
C896 C897 1.388 . S
C897 H884 0.930 . S
C897 C896 1.388 . S
C897 C898 1.390 . S
C898 C897 1.390 . S
C898 C899 1.394 . S
C898 C904 1.465 . S
C899 C894 1.399 . S
C899 C898 1.394 . S
C899 C900 1.516 . S
C900 C899 1.516 . S
C900 C901 1.502 . S
C900 C902 1.561 . S
C900 C903 1.526 . S
C901 H885 0.959 . S
C901 H886 0.959 . S
C901 H887 0.961 . S
C901 C900 1.502 . S
C902 H888 0.960 . S
C902 H889 0.961 . S
C902 H890 0.959 . S
C902 C900 1.561 . S
C903 C900 1.526 . S
C903 C904 1.396 . S
C903 C908 1.390 . S
C904 C898 1.465 . S
C904 C903 1.396 . S
C904 C905 1.399 . S
C905 H891 0.929 . S
C905 C904 1.399 . S
C905 C906 1.385 . S
C906 H892 0.931 . S
C906 C905 1.385 . S
C906 C907 1.389 . S
C907 C906 1.389 . S
C907 C908 1.387 . S
C908 H893 0.930 . S
C908 C903 1.390 . S
C908 C907 1.387 . S
H909 C921 0.930 . S
H910 C923 0.930 . S
H911 C924 0.930 . S
H912 C928 0.959 . S
H913 C928 0.959 . S
H914 C928 0.961 . S
H915 C929 0.960 . S
H916 C929 0.961 . S
H917 C929 0.959 . S
H918 C932 0.929 . S
H919 C933 0.931 . S
H920 C935 0.930 . S
C921 H909 0.930 . S
C921 C922 1.399 . S
C921 C926 1.399 . S
C922 C921 1.399 . S
C922 C923 1.376 . S
C923 H910 0.930 . S
C923 C922 1.376 . S
C923 C924 1.388 . S
C924 H911 0.930 . S
C924 C923 1.388 . S
C924 C925 1.390 . S
C925 C924 1.390 . S
C925 C926 1.394 . S
C925 C931 1.465 . S
C926 C921 1.399 . S
C926 C925 1.394 . S
C926 C927 1.516 . S
C927 C926 1.516 . S
C927 C928 1.502 . S
C927 C929 1.561 . S
C927 C930 1.526 . S
C928 H912 0.959 . S
C928 H913 0.959 . S
C928 H914 0.961 . S
C928 C927 1.502 . S
C929 H915 0.960 . S
C929 H916 0.961 . S
C929 H917 0.959 . S
C929 C927 1.561 . S
C930 C927 1.526 . S
C930 C931 1.396 . S
C930 C935 1.390 . S
C931 C925 1.465 . S
C931 C930 1.396 . S
C931 C932 1.399 . S
C932 H918 0.929 . S
C932 C931 1.399 . S
C932 C933 1.385 . S
C933 H919 0.931 . S
C933 C932 1.385 . S
C933 C934 1.389 . S
C934 C933 1.389 . S
C934 C935 1.387 . S
C935 H920 0.930 . S
C935 C930 1.390 . S
C935 C934 1.387 . S
H936 C948 0.930 . S
H937 C950 0.930 . S
H938 C951 0.930 . S
H939 C955 0.959 . S
H940 C955 0.959 . S
H941 C955 0.961 . S
H942 C956 0.960 . S
H943 C956 0.961 . S
H944 C956 0.959 . S
H945 C959 0.929 . S
H946 C960 0.931 . S
H947 C962 0.930 . S
C948 H936 0.930 . S
C948 C949 1.399 . S
C948 C953 1.399 . S
C949 C948 1.399 . S
C949 C950 1.376 . S
C950 H937 0.930 . S
C950 C949 1.376 . S
C950 C951 1.388 . S
C951 H938 0.930 . S
C951 C950 1.388 . S
C951 C952 1.390 . S
C952 C951 1.390 . S
C952 C953 1.394 . S
C952 C958 1.465 . S
C953 C948 1.399 . S
C953 C952 1.394 . S
C953 C954 1.516 . S
C954 C953 1.516 . S
C954 C955 1.502 . S
C954 C956 1.561 . S
C954 C957 1.526 . S
C955 H939 0.959 . S
C955 H940 0.959 . S
C955 H941 0.961 . S
C955 C954 1.502 . S
C956 H942 0.960 . S
C956 H943 0.961 . S
C956 H944 0.959 . S
C956 C954 1.561 . S
C957 C954 1.526 . S
C957 C958 1.396 . S
C957 C962 1.390 . S
C958 C952 1.465 . S
C958 C957 1.396 . S
C958 C959 1.399 . S
C959 H945 0.929 . S
C959 C958 1.399 . S
C959 C960 1.385 . S
C960 H946 0.931 . S
C960 C959 1.385 . S
C960 C961 1.389 . S
C961 C960 1.389 . S
C961 C962 1.387 . S
C962 H947 0.930 . S
C962 C957 1.390 . S
C962 C961 1.387 . S
H963 C975 0.930 . S
H964 C977 0.930 . S
H965 C978 0.930 . S
H966 C982 0.959 . S
H967 C982 0.959 . S
H968 C982 0.961 . S
H969 C983 0.960 . S
H970 C983 0.961 . S
H971 C983 0.959 . S
H972 C986 0.929 . S
H973 C987 0.931 . S
H974 C989 0.930 . S
C975 H963 0.930 . S
C975 C976 1.399 . S
C975 C980 1.399 . S
C976 C975 1.399 . S
C976 C977 1.376 . S
C977 H964 0.930 . S
C977 C976 1.376 . S
C977 C978 1.388 . S
C978 H965 0.930 . S
C978 C977 1.388 . S
C978 C979 1.390 . S
C979 C978 1.390 . S
C979 C980 1.394 . S
C979 C985 1.465 . S
C980 C975 1.399 . S
C980 C979 1.394 . S
C980 C981 1.516 . S
C981 C980 1.516 . S
C981 C982 1.502 . S
C981 C983 1.561 . S
C981 C984 1.526 . S
C982 H966 0.959 . S
C982 H967 0.959 . S
C982 H968 0.961 . S
C982 C981 1.502 . S
C983 H969 0.960 . S
C983 H970 0.961 . S
C983 H971 0.959 . S
C983 C981 1.561 . S
C984 C981 1.526 . S
C984 C985 1.396 . S
C984 C989 1.390 . S
C985 C979 1.465 . S
C985 C984 1.396 . S
C985 C986 1.399 . S
C986 H972 0.929 . S
C986 C985 1.399 . S
C986 C987 1.385 . S
C987 H973 0.931 . S
C987 C986 1.385 . S
C987 C988 1.389 . S
C988 C987 1.389 . S
C988 C989 1.387 . S
C989 H974 0.930 . S
C989 C984 1.390 . S
C989 C988 1.387 . S
C517 C483 1.379 . S
C529 C63 1.352 . S
C544 C56 1.340 . S
C556 C140 1.322 . S
C571 C147 1.344 . S
C583 C231 1.367 . S
C598 C224 1.291 . S
C610 C308 1.280 . S
C625 C399 1.356 . S
C637 C315 1.345 . S
C652 C476 1.276 . S
C664 C392 1.279 . S
C679 C58 1.087 . S
C691 C69 1.116 . S
C706 C153 1.165 1_556 S
C718 C142 1.049 . S
C733 C226 1.137 . S
C745 C237 1.069 1_554 S
C760 C321 1.169 . S
C772 C310 1.047 . S
C787 C405 1.058 . S
C799 C394 1.148 1_556 S
C814 C489 1.162 . S
C826 C478 1.075 . S
C841 C74 1.635 . S
C853 C403 1.631 . S
C868 C151 1.615 . S
C880 C494 1.604 . S
C895 C67 1.637 . S
C907 C242 1.630 . S
C922 C158 1.623 . S
C934 C319 1.634 . S
C949 C410 1.619 . S
C961 C235 1.614 . S
C976 C326 1.616 . S
C988 C487 1.629 . S
