# Generated by pormake.
# Topology kag, (6)-cn, num edge types: 1
# Building blocks:
#     Node 0, Type 0, BuildingBlock: KUMBUR_clean_sbu_0, # of connection points: 6
#     Node 1, Type 0, BuildingBlock: KUMBUR_clean_sbu_0, # of connection points: 6
#     Node 2, Type 0, BuildingBlock: KUMBUR_clean_sbu_0, # of connection points: 6
#     Edge 3, Type (0, 0), BuildingBlock: OJICUG_clean_linker_0, # of connection points: 2
#     Edge 4, Type (0, 0), BuildingBlock: OJICUG_clean_linker_0, # of connection points: 2
#     Edge 5, Type (0, 0), BuildingBlock: OJICUG_clean_linker_0, # of connection points: 2
#     Edge 6, Type (0, 0), BuildingBlock: OJICUG_clean_linker_0, # of connection points: 2
#     Edge 7, Type (0, 0), BuildingBlock: OJICUG_clean_linker_0, # of connection points: 2
#     Edge 8, Type (0, 0), BuildingBlock: OJICUG_clean_linker_0, # of connection points: 2
#     Edge 9, Type (0, 0), BuildingBlock: OJICUG_clean_linker_0, # of connection points: 2
#     Edge 10, Type (0, 0), BuildingBlock: OJICUG_clean_linker_0, # of connection points: 2
#     Edge 11, Type (0, 0), BuildingBlock: OJICUG_clean_linker_0, # of connection points: 2
# Relax obj value: 0.105
# Max RMSD: 0.224
# Mean RMSD: 0.162
data_MOF--net-kag--node1-KUMBUR_clean_sbu_0--edge1-OJICUG_clean_linker_0
_symmetry_space_group_name_H-M    P1
_symmetry_Int_Tables_number       1
_symmetry_cell_setting            triclinic
loop_
_symmetry_equiv_pos_as_xyz
'x, y, z'
_cell_length_a     31.501123
_cell_length_b     22.061394
_cell_length_c     11.065763
_cell_angle_alpha  94.88784
_cell_angle_beta   114.07922
_cell_angle_gamma 92.579131
loop_
_atom_site_label
_atom_site_type_symbol
_atom_site_fract_x
_atom_site_fract_y
_atom_site_fract_z
_atom_type_partial_charge
Tb0 Tb 1.00894 0.48291 0.97761 0.0
C1 C 0.99104 0.74237 0.17321 0.0
C2 C 0.91106 0.75881 0.03435 0.0
C3 C 0.94984 0.81309 0.25724 0.0
C4 C 0.95195 0.72963 0.05461 0.0
C5 C 0.99086 0.78515 0.27505 0.0
C6 C 0.90997 0.79985 0.13717 0.0
C7 C 0.07256 0.77239 0.40007 0.0
N8 N 0.0299 0.71429 0.1865 0.0
C9 C 0.07101 0.73033 0.29594 0.0
C10 C 0.03219 0.79942 0.39029 0.0
Tb11 Tb 0.02353 0.64608 0.01065 0.0
N12 N 0.95451 0.6899 0.95771 0.0
C13 C 0.91808 0.68014 0.83462 0.0
C14 C 0.87286 0.7466 0.9107 0.0
C15 C 0.87658 0.70757 0.80997 0.0
H16 H 0.10235 0.70957 0.30448 0.0
H17 H 0.84749 0.69855 0.71327 0.0
H18 H 0.87877 0.82241 0.12392 0.0
H19 H 0.10489 0.78396 0.48773 0.0
H20 H 0.92038 0.65013 0.75567 0.0
H21 H 0.18494 0.43037 0.27522 0.0
H22 H 0.84071 0.76787 0.89122 0.0
H23 H 0.93015 0.41947 0.68366 0.0
H24 H 0.11206 0.47883 0.23271 0.0
H25 H 0.92764 0.3451 0.50044 0.0
H26 H 0.94882 0.84574 0.33472 0.0
H27 H 0.19173 0.36103 0.09731 0.0
H28 H 0.15371 0.30651 0.86459 0.0
H29 H 0.03352 0.83206 0.47095 0.0
H30 H 0.08369 0.28323 0.65371 0.0
N31 N 0.07794 0.43905 0.03067 0.0
C32 C 0.11436 0.44881 0.15378 0.0
C33 C 0.15959 0.38232 0.07779 0.0
C34 C 0.1214 0.37013 0.9541 0.0
C35 C 0.15586 0.42136 0.17849 0.0
C36 C 0.08052 0.39932 0.93378 0.0
H37 H 0.99901 0.29696 0.51733 0.0
N38 N 1.00259 0.41473 0.80176 0.0
C39 C 0.95996 0.35665 0.58814 0.0
C40 C 0.04145 0.38662 0.81512 0.0
C41 C 0.9615 0.39871 0.69226 0.0
C42 C 1.00033 0.32959 0.59799 0.0
C43 C 0.04164 0.34384 0.7133 0.0
O44 O 0.9515 0.42528 0.96096 0.0
O45 O 0.97796 0.56671 -0.00535 0.0
O46 O 0.01835 0.62229 0.19161 0.0
O47 O 0.03767 0.52168 0.19048 0.0
O48 O 0.93478 0.498 0.86606 0.0
O49 O 0.0191 0.42263 0.12276 0.0
O50 O 0.08092 0.70379 0.02725 0.0
O51 O 0.05448 0.56231 0.99385 0.0
O52 O 1.01416 0.50671 0.79675 0.0
O53 O 0.99479 0.60729 0.79782 0.0
O54 O 0.09772 0.631 0.12201 0.0
O55 O 1.01332 0.70627 0.86532 0.0
C56 C 0.93517 0.55216 0.9201 0.0
C57 C 0.96829 0.33158 0.04705 0.0
C58 C 0.92229 0.24145 0.05437 0.0
C59 C 0.93354 0.30487 0.07875 0.0
C60 C 0.94615 0.20475 -0.00254 0.0
C61 C 0.99274 0.29434 0.9934 0.0
C62 C 0.98151 0.23119 0.96821 0.0
C63 C 0.02893 0.5717 0.24959 0.0
C64 C 0.97609 0.39843 0.0643 0.0
C65 C 0.08266 0.31587 0.73117 0.0
C66 C 0.12251 0.32909 0.8513 0.0
C67 C 0.0973 0.57678 0.06816 0.0
C68 C 0.06401 0.79741 0.94086 0.0
C69 C 0.09874 0.82419 0.90914 0.0
C70 C 0.10989 0.88763 0.93334 0.0
C71 C 0.08596 0.92429 0.99007 0.0
C72 C 0.03949 0.83461 -0.00569 0.0
C73 C 0.05062 0.89779 0.01931 0.0
C74 C 1.00358 0.5573 0.73876 0.0
C75 C 0.0563 0.73056 0.9238 0.0
H76 H 0.91461 0.3336 0.12033 0.0
H77 H 0.93806 0.15568 0.97816 0.0
H78 H 0.02021 0.3138 0.97057 0.0
H79 H 1.00026 0.20269 0.92594 0.0
H80 H 0.11773 0.79549 0.8677 0.0
H81 H 0.09398 0.97336 0.00922 0.0
H82 H 1.01203 0.81511 0.01714 0.0
H83 H 0.0318 0.92625 0.06143 0.0
Tb84 Tb 0.57458 0.08142 0.07402 0.0
C85 C 0.40601 0.15211 0.74761 0.0
C86 C 0.38942 0.22475 0.89629 0.0
C87 C 0.3598 0.23677 0.6613 0.0
C88 C 0.40972 0.17139 0.87397 0.0
C89 C 0.38032 0.18439 0.63942 0.0
C90 C 0.36523 0.25779 0.78984 0.0
C91 C 0.38774 0.10399 0.49037 0.0
N92 N 0.42252 0.09806 0.72774 0.0
C93 C 0.4104 0.07201 0.59924 0.0
C94 C 0.37309 0.16091 0.51065 0.0
Tb95 Tb 0.45765 1.04752 0.91445 0.0
N96 N 0.43027 0.1358 0.97293 0.0
C97 C 0.42866 0.14982 0.09405 0.0
C98 C 0.39165 0.24155 0.02336 0.0
C99 C 0.41086 0.20344 0.12221 0.0
H100 H 0.4164 1.02528 0.57837 0.0
H101 H 0.4105 0.21419 0.21908 0.0
H102 H 0.34894 0.29828 0.80491 0.0
H103 H 0.37976 0.08343 0.39031 0.0
H104 H 0.43863 0.11905 0.16865 0.0
H105 H 0.62188 0.91437 0.77052 0.0
H106 H 0.37671 0.28227 0.04441 0.0
H107 H 0.61592 0.10426 0.41002 0.0
H108 H 0.59352 1.00947 0.82015 0.0
H109 H 0.65267 1.04646 0.59868 0.0
H110 H 0.33856 0.26051 0.57851 0.0
H111 H 0.65591 0.84669 0.94589 0.0
H112 H 0.68373 0.83106 0.18561 0.0
H113 H 0.35389 0.18467 0.42558 0.0
H114 H 0.69398 0.86908 0.41178 0.0
N115 N 0.60209 0.99311 0.01625 0.0
C116 C 0.60364 0.97888 0.89512 0.0
C117 C 0.64089 0.88739 0.96662 0.0
C118 C 0.64311 0.90437 0.09361 0.0
C119 C 0.62156 0.92529 0.86739 0.0
C120 C 0.62271 0.95771 0.11552 0.0
H121 H 0.67862 0.94518 0.56419 0.0
N122 N 0.60984 1.03123 0.26122 0.0
C123 C 0.64469 1.02573 0.49874 0.0
C124 C 0.6264 0.97717 0.24177 0.0
C125 C 0.62197 1.0575 0.38956 0.0
C126 C 0.65938 0.96878 0.47889 0.0
C127 C 0.65215 0.94509 0.35026 0.0
O128 O 0.63337 0.13809 0.20696 0.0
O129 O 0.51128 0.12678 0.95719 0.0
O130 O 0.48557 1.02732 0.76745 0.0
O131 O 0.55208 0.09284 0.86148 0.0
O132 O 0.5592 0.17358 0.13036 0.0
O133 O 0.62789 0.10626 0.01281 0.0
O134 O 0.39883 0.99106 0.78102 0.0
O135 O 0.52092 1.00225 0.03101 0.0
O136 O 0.54661 0.10154 0.22094 0.0
O137 O 0.48016 1.03594 0.12692 0.0
O138 O 0.47312 0.95532 0.85823 0.0
O139 O 0.40429 1.02254 0.97532 0.0
C140 C 0.52083 0.17998 0.02955 0.0
C141 C 0.70393 0.11985 0.18824 0.0
C142 C 0.78334 0.13375 0.20386 0.0
C143 C 0.73569 0.14317 0.14053 0.0
C144 C 0.79877 0.09917 0.31218 0.0
C145 C 0.72039 0.08592 0.29791 0.0
C146 C 0.76729 0.07504 0.35816 0.0
C147 C 0.51943 1.05981 0.75723 0.0
C148 C 0.65478 0.13472 0.12871 0.0
C149 C 0.67274 0.89271 0.32879 0.0
C150 C 0.66737 0.87153 0.20036 0.0
C151 C 0.51154 0.94899 0.95896 0.0
C152 C 0.32828 1.00927 0.79978 0.0
C153 C 0.29649 0.98593 0.84737 0.0
C154 C 0.24886 0.99545 0.78411 0.0
C155 C 0.23348 1.03015 0.67598 0.0
C156 C 0.31187 1.04333 0.69031 0.0
C157 C 0.26498 1.0543 0.63013 0.0
C158 C 0.5128 0.06896 0.2312 0.0
C159 C 0.3774 0.99428 0.85921 0.0
H160 H 0.72375 0.17056 0.05793 0.0
H161 H 0.83529 0.0913 0.36182 0.0
H162 H 0.69761 0.0689 0.33989 0.0
H163 H 0.77942 1.04888 0.44257 0.0
H164 H 0.30839 0.95845 0.92981 0.0
H165 H 0.19696 1.03809 0.6264 0.0
H166 H 0.33468 1.06039 0.64845 0.0
H167 H 0.25289 0.08056 0.54588 0.0
Tb168 Tb 0.4561 0.56401 0.92771 0.0
C169 C 0.63725 0.55015 0.36475 0.0
C170 C 0.66559 0.6518 0.48052 0.0
C171 C 0.6851 0.56357 0.60345 0.0
C172 C 0.64101 0.61244 0.36229 0.0
C173 C 0.6599 0.52483 0.48532 0.0
C174 C 0.68784 0.62701 0.60133 0.0
C175 C 0.63302 0.42506 0.3625 0.0
N176 N 0.61196 0.51456 0.24785 0.0
C177 C 0.6114 0.45239 0.24538 0.0
C178 C 0.65695 0.46141 0.48337 0.0
Tb179 Tb 0.57639 0.56494 0.06077 0.0
N180 N 0.6176 0.63443 0.24372 0.0
C181 C 0.61988 0.69567 0.23598 0.0
C182 C 0.66544 0.71476 0.47402 0.0
C183 C 0.64204 0.73655 0.35121 0.0
H184 H 0.59579 0.42271 0.15413 0.0
H185 H 0.64039 0.7847 0.34506 0.0
H186 H 0.70693 0.65641 0.69351 0.0
H187 H 0.63175 0.37579 0.35897 0.0
H188 H 0.60469 0.71288 0.14074 0.0
H189 H 0.39219 0.3444 0.64249 0.0
H190 H 0.68283 0.74681 0.56289 0.0
H191 H 0.43654 0.70635 0.83487 0.0
H192 H 0.42774 0.41607 0.8471 0.0
H193 H 0.40069 0.75341 0.63023 0.0
H194 H 0.70243 0.54476 0.69666 0.0
H195 H 0.34987 0.38247 0.42481 0.0
H196 H 0.32583 0.47298 0.29454 0.0
H197 H 0.67386 0.4401 0.57382 0.0
H198 H 0.33031 0.58466 0.29184 0.0
N199 N 0.41492 0.49463 0.74446 0.0
C200 C 0.41262 0.43337 0.75194 0.0
C201 C 0.36719 0.41445 0.51382 0.0
C202 C 0.36704 0.47743 0.50757 0.0
C203 C 0.39053 0.39256 0.63655 0.0
C204 C 0.39157 0.51672 0.62596 0.0
H205 H 0.35875 0.68925 0.41512 0.0
N206 N 0.42054 0.61454 0.74083 0.0
C207 C 0.39946 0.70414 0.6265 0.0
C208 C 0.39531 0.57902 0.62378 0.0
C209 C 0.42103 0.67672 0.74353 0.0
C210 C 0.37563 0.66787 0.50549 0.0
C211 C 0.37271 0.60443 0.50329 0.0
O212 O 0.40481 0.60924 0.96822 0.0
O213 O 0.52019 0.62743 0.97679 0.0
O214 O 0.5519 0.59289 0.21701 0.0
O215 O 0.48394 0.53189 0.12596 0.0
O216 O 0.47158 0.65893 0.03158 0.0
O217 O 0.40258 0.51234 0.9557 0.0
O218 O 0.62761 0.51955 0.02025 0.0
O219 O 0.51234 0.50161 0.01166 0.0
O220 O 0.48063 0.53605 0.77153 0.0
O221 O 0.54857 0.59709 0.86256 0.0
O222 O 0.56085 0.46994 0.95699 0.0
O223 O 0.62995 0.61645 0.03266 0.0
C224 C 0.51099 0.67662 0.03123 0.0
C225 C 0.32916 0.55716 0.89905 0.0
C226 C 0.24874 0.55337 0.89105 0.0
C227 C 0.29815 0.55216 0.9638 0.0
C228 C 0.23198 0.56037 0.75434 0.0
C229 C 0.3099 0.5638 0.76297 0.0
C230 C 0.26208 0.56514 0.69155 0.0
C231 C 0.51684 0.56421 0.23081 0.0
C232 C 0.38151 0.55978 0.97225 0.0
C233 C 0.34758 0.56578 0.38498 0.0
C234 C 0.34485 0.50232 0.38685 0.0
C235 C 0.52139 0.45232 0.9572 0.0
C236 C 0.70331 0.57148 0.08928 0.0
C237 C 0.73431 0.57657 0.02451 0.0
C238 C 0.78372 0.57527 0.09717 0.0
C239 C 0.80048 0.5681 0.23379 0.0
C240 C 0.72258 0.56465 0.22527 0.0
C241 C 0.7704 0.56324 0.2966 0.0
C242 C 0.51568 0.56475 0.75772 0.0
C243 C 0.65097 0.56894 0.01614 0.0
H244 H 0.3123 0.54723 0.06899 0.0
H245 H 0.19523 0.5637 0.69503 0.0
H246 H 0.33187 0.56949 0.71158 0.0
H247 H 0.24824 0.57099 0.58661 0.0
H248 H 0.72016 0.58163 0.91939 0.0
H249 H 0.83724 0.56473 0.29302 0.0
H250 H 0.70061 0.55886 0.27665 0.0
H251 H 0.78424 0.55725 0.40148 0.0
C252 C 1.00067 0.61399 0.5477 0.0
C253 C 1.00796 0.56024 0.61029 0.0
H254 H 1.0021 0.6601 0.38726 0.0
C255 C 0.0237 0.51084 0.55511 0.0
H256 H 0.98897 0.65318 0.58746 0.0
C257 C 0.03186 0.51502 0.44067 0.0
C258 C 0.02457 0.56876 0.37808 0.0
H259 H 0.03042 0.46891 0.6011 0.0
H260 H 0.04355 0.47583 0.4009 0.0
C261 C 1.00882 0.61817 0.43326 0.0
C262 C 0.49289 1.01607 0.39433 0.0
C263 C 0.51318 0.06729 0.36451 0.0
H264 H 0.48042 0.97274 0.54396 0.0
C265 C 0.53619 0.1157 0.46527 0.0
H266 H 0.47542 0.97786 0.31891 0.0
C267 C 0.53934 0.11267 0.5941 0.0
C268 C 0.51905 1.06146 0.62393 0.0
H269 H 0.55179 0.15603 0.44447 0.0
H270 H 0.55681 0.15089 0.66951 0.0
C271 C 0.49603 1.01305 0.52316 0.0
C272 C 0.54731 0.60512 0.60106 0.0
C273 C 0.51606 0.56455 0.62294 0.0
H274 H 0.57128 0.63792 0.46098 0.0
C275 C 0.48519 0.52373 0.51439 0.0
H276 H 0.57156 0.63735 0.68181 0.0
C277 C 0.48523 0.52382 0.38749 0.0
C278 C 0.51648 0.56439 0.3656 0.0
H279 H 0.46128 0.49099 0.52759 0.0
H280 H 0.46098 0.49159 0.30674 0.0
C281 C 0.54736 0.6052 0.47416 0.0
C282 C 0.1312 0.52699 0.91405 0.0
C283 C 0.13791 0.56129 0.03437 0.0
H284 H 0.16051 0.49346 0.78063 0.0
C285 C 0.18368 0.58773 0.1155 0.0
H286 H 0.09707 0.50698 0.84637 0.0
C287 C 0.22063 0.58237 0.07448 0.0
C288 C 0.21317 0.5498 0.95127 0.0
H289 H 0.1905 0.61518 0.20846 0.0
H290 H 0.25422 0.60674 0.13572 0.0
C291 C 0.16811 0.52012 0.87501 0.0
C292 C 0.85568 0.20087 0.25681 0.0
C293 C 0.81779 0.16245 0.16283 0.0
H294 H 0.91835 0.25632 0.29506 0.0
C295 C 0.81403 0.15034 0.03211 0.0
H296 H 0.85911 0.21091 0.35813 0.0
C297 C 0.84835 0.17543 -0.00332 0.0
C298 C 0.8862 0.21395 0.09088 0.0
H299 H 0.78511 0.12059 0.95847 0.0
H300 H 0.84514 0.1653 0.89562 0.0
C301 C 0.88939 0.22684 0.22083 0.0
C302 C 0.52538 0.83598 0.89975 0.0
C303 C 0.52253 0.88176 -0.00467 0.0
H304 H 0.52656 0.74013 0.83494 0.0
C305 C 0.52021 0.85775 0.10789 0.0
H306 H 0.52583 0.85006 0.80889 0.0
C307 C 0.51915 0.79301 0.12084 0.0
C308 C 0.52152 0.74718 0.02453 0.0
H309 H 0.51642 0.88877 0.18341 0.0
H310 H 0.5149 0.77842 0.20652 0.0
C311 C 0.52581 0.77147 0.91469 0.0
C312 C 0.84879 0.54105 0.87271 0.0
C313 C 0.89453 0.56756 0.95383 0.0
H314 H 0.77826 0.52192 0.85252 0.0
C315 C 0.90122 0.60187 0.07413 0.0
H316 H 0.84199 0.51359 0.77978 0.0
C317 C 0.86431 0.60866 0.11317 0.0
C318 C 0.81926 0.57893 0.03691 0.0
H319 H 0.93534 0.62192 0.1418 0.0
H320 H 0.87188 0.63531 0.20756 0.0
C321 C 0.81183 0.54635 0.91373 0.0
C322 C 0.1838 0.95371 0.99111 0.0
C323 C 0.14597 0.91518 0.89687 0.0
H324 H 0.24703 1.00858 0.02942 0.0
C325 C 0.1428 0.90232 0.76693 0.0
H326 H 0.187 0.96382 0.09216 0.0
C327 C 0.17651 0.92833 0.731 0.0
C328 C 0.21439 0.96674 0.82504 0.0
H329 H 0.11385 0.87283 0.69268 0.0
H330 H 0.1731 0.9183 0.6297 0.0
C331 C 0.21812 0.97884 0.95575 0.0
C332 C 0.51302 0.33594 0.86752 0.0
C333 C 0.51084 0.3818 0.96407 0.0
H334 H 0.51561 0.24017 0.80478 0.0
C335 C 0.50674 0.35755 0.0742 0.0
H336 H 0.51712 0.3505 0.78161 0.0
C337 C 0.50718 0.29304 0.08917 0.0
C338 C 0.50987 0.24723 0.99337 0.0
H339 H 0.50613 0.38892 0.1541 0.0
H340 H 0.50687 0.27898 0.18021 0.0
C341 C 0.51197 0.2712 0.88052 0.0
loop_
_geom_bond_atom_site_label_1
_geom_bond_atom_site_label_2
_geom_bond_distance
_geom_bond_site_symmetry_2
_ccdc_geom_bond_type
Tb0 N31 2.660 1_656 S
Tb0 N38 2.600 . S
Tb0 O44 2.546 . S
Tb0 O45 2.610 . S
Tb0 O47 2.320 1_656 S
Tb0 O48 2.552 . S
Tb0 O49 2.413 1_556 S
Tb0 O51 2.362 1_656 S
Tb0 O52 2.421 . S
Tb0 C64 2.833 . S
C1 C4 1.432 1_554 S
C1 C5 1.414 . S
C1 N8 1.359 1_655 S
C2 C4 1.417 . S
C2 C6 1.432 1_556 S
C2 C14 1.410 . S
C3 C5 1.444 . S
C3 C6 1.317 . S
C3 H26 0.929 . S
C4 C1 1.432 1_556 S
C4 C2 1.417 . S
C4 N12 1.360 . S
C5 C1 1.414 . S
C5 C3 1.444 . S
C5 C10 1.385 . S
C6 C2 1.432 1_554 S
C6 C3 1.317 . S
C6 H18 0.930 1_554 S
C7 C9 1.392 . S
C7 C10 1.370 1_455 S
C7 H19 0.931 . S
N8 C1 1.359 1_455 S
N8 C9 1.327 . S
N8 Tb11 2.600 . S
C9 C7 1.392 . S
C9 N8 1.327 . S
C9 H16 0.930 . S
C10 C5 1.385 . S
C10 C7 1.370 1_655 S
C10 H29 0.930 . S
Tb11 N8 2.600 . S
Tb11 N12 2.660 1_454 S
Tb11 O45 2.362 1_454 S
Tb11 O46 2.421 . S
Tb11 O50 2.546 . S
Tb11 O51 2.610 . S
Tb11 O53 2.320 1_454 S
Tb11 O54 2.552 . S
Tb11 O55 2.413 1_554 S
Tb11 C75 2.833 . S
N12 C4 1.360 . S
N12 Tb11 2.660 1_656 S
N12 C13 1.305 . S
C13 N12 1.305 . S
C13 C15 1.407 . S
C13 H20 0.930 . S
C14 C2 1.410 . S
C14 C15 1.345 . S
C14 H22 0.930 . S
C15 C13 1.407 . S
C15 C14 1.345 . S
C15 H17 0.930 . S
H16 C9 0.930 . S
H17 C15 0.930 . S
H18 C6 0.930 1_556 S
H19 C7 0.931 . S
H20 C13 0.930 . S
H21 C35 0.930 . S
H22 C14 0.930 . S
H23 C41 0.930 . S
H24 C32 0.930 . S
H25 C39 0.931 . S
H26 C3 0.929 . S
H27 C33 0.930 . S
H28 C66 0.930 1_554 S
H29 C10 0.930 . S
H30 C65 0.929 . S
N31 Tb0 2.660 1_454 S
N31 C32 1.305 . S
N31 C36 1.360 . S
C32 H24 0.930 . S
C32 N31 1.305 . S
C32 C35 1.407 . S
C33 H27 0.930 . S
C33 C34 1.410 . S
C33 C35 1.345 . S
C34 C33 1.410 . S
C34 C36 1.417 . S
C34 C66 1.432 1_554 S
C35 H21 0.930 . S
C35 C32 1.407 . S
C35 C33 1.345 . S
C36 N31 1.360 . S
C36 C34 1.417 . S
C36 C40 1.432 1_554 S
H37 C42 0.930 . S
N38 Tb0 2.600 . S
N38 C40 1.359 1_655 S
N38 C41 1.327 . S
C39 H25 0.931 . S
C39 C41 1.392 . S
C39 C42 1.370 1_655 S
C40 C36 1.432 1_556 S
C40 N38 1.359 1_455 S
C40 C43 1.414 . S
C41 H23 0.930 . S
C41 N38 1.327 . S
C41 C39 1.392 . S
C42 H37 0.930 . S
C42 C39 1.370 1_455 S
C42 C43 1.385 . S
C43 C40 1.414 . S
C43 C42 1.385 . S
C43 C65 1.444 . S
O44 Tb0 2.546 . S
O44 C64 1.251 . S
O45 Tb0 2.610 . S
O45 Tb11 2.362 1_656 S
O45 C56 1.283 . S
O46 Tb11 2.421 . S
O46 C63 1.262 . S
O47 Tb0 2.320 1_454 S
O47 C63 1.260 . S
O48 Tb0 2.552 . S
O48 C56 1.243 . S
O49 Tb0 2.413 1_554 S
O49 C64 1.256 1_554 S
O50 Tb11 2.546 . S
O50 C75 1.251 . S
O51 Tb0 2.362 1_454 S
O51 Tb11 2.610 . S
O51 C67 1.283 . S
O52 Tb0 2.421 . S
O52 C74 1.262 . S
O53 Tb11 2.320 1_656 S
O53 C74 1.260 . S
O54 Tb11 2.552 . S
O54 C67 1.243 . S
O55 Tb11 2.413 1_556 S
O55 C75 1.256 1_556 S
C56 O45 1.283 . S
C56 O48 1.243 . S
C57 C59 1.382 1_556 S
C57 C61 1.393 . S
C57 C64 1.500 . S
C58 C59 1.400 1_556 S
C58 C60 1.384 . S
C59 C57 1.382 1_554 S
C59 C58 1.400 1_554 S
C59 H76 0.930 . S
C60 C58 1.384 . S
C60 C62 1.392 . S
C60 H77 0.931 . S
C61 C57 1.393 . S
C61 C62 1.401 . S
C61 H78 0.930 . S
C62 C60 1.392 . S
C62 C61 1.401 . S
C62 H79 0.930 . S
C63 O46 1.262 . S
C63 O47 1.260 . S
C64 Tb0 2.833 . S
C64 O44 1.251 . S
C64 O49 1.256 1_556 S
C64 C57 1.500 . S
C65 H30 0.929 . S
C65 C43 1.444 . S
C65 C66 1.317 . S
C66 H28 0.930 1_556 S
C66 C34 1.432 1_556 S
C66 C65 1.317 . S
C67 O51 1.283 . S
C67 O54 1.243 . S
C68 C69 1.382 1_554 S
C68 C72 1.393 . S
C68 C75 1.500 . S
C69 C68 1.382 1_556 S
C69 C70 1.400 1_556 S
C69 H80 0.930 . S
C70 C69 1.400 1_554 S
C70 C71 1.384 . S
C71 C70 1.384 . S
C71 C73 1.392 . S
C71 H81 0.931 . S
C72 C68 1.393 . S
C72 C73 1.401 . S
C72 H82 0.930 . S
C73 C71 1.392 . S
C73 C72 1.401 . S
C73 H83 0.930 . S
C74 O52 1.262 . S
C74 O53 1.260 . S
C75 Tb11 2.833 . S
C75 O50 1.251 . S
C75 O55 1.256 1_554 S
C75 C68 1.500 . S
H76 C59 0.930 . S
H77 C60 0.931 . S
H78 C61 0.930 . S
H79 C62 0.930 . S
H80 C69 0.930 . S
H81 C71 0.931 . S
H82 C72 0.930 . S
H83 C73 0.930 . S
Tb84 N115 2.660 1_545 S
Tb84 N122 2.600 1_545 S
Tb84 O128 2.546 . S
Tb84 O129 2.610 1_554 S
Tb84 O131 2.320 1_554 S
Tb84 O132 2.552 . S
Tb84 O133 2.413 . S
Tb84 O135 2.362 1_545 S
Tb84 O136 2.421 . S
Tb84 C148 2.833 . S
C85 C88 1.432 . S
C85 C89 1.414 . S
C85 N92 1.359 . S
C86 C88 1.417 . S
C86 C90 1.432 . S
C86 C98 1.410 1_556 S
C87 C89 1.444 . S
C87 C90 1.317 . S
C87 H110 0.929 . S
C88 C85 1.432 . S
C88 C86 1.417 . S
C88 N96 1.360 . S
C89 C85 1.414 . S
C89 C87 1.444 . S
C89 C94 1.385 . S
C90 C86 1.432 . S
C90 C87 1.317 . S
C90 H102 0.930 . S
C91 C93 1.392 . S
C91 C94 1.370 . S
C91 H103 0.931 . S
N92 C85 1.359 . S
N92 C93 1.327 . S
N92 Tb95 2.600 1_545 S
C93 C91 1.392 . S
C93 N92 1.327 . S
C93 H100 0.930 1_545 S
C94 C89 1.385 . S
C94 C91 1.370 . S
C94 H113 0.930 . S
Tb95 N92 2.600 1_565 S
Tb95 N96 2.660 1_565 S
Tb95 O129 2.362 1_565 S
Tb95 O130 2.421 . S
Tb95 O134 2.546 . S
Tb95 O135 2.610 1_556 S
Tb95 O137 2.320 1_556 S
Tb95 O138 2.552 . S
Tb95 O139 2.413 . S
Tb95 C159 2.833 . S
N96 C88 1.360 . S
N96 Tb95 2.660 1_545 S
N96 C97 1.305 1_556 S
C97 N96 1.305 1_554 S
C97 C99 1.407 . S
C97 H104 0.930 . S
C98 C86 1.410 1_554 S
C98 C99 1.345 . S
C98 H106 0.930 . S
C99 C97 1.407 . S
C99 C98 1.345 . S
C99 H101 0.930 . S
H100 C93 0.930 1_565 S
H101 C99 0.930 . S
H102 C90 0.930 . S
H103 C91 0.931 . S
H104 C97 0.930 . S
H105 C119 0.930 . S
H106 C98 0.930 . S
H107 C125 0.930 1_545 S
H108 C116 0.930 . S
H109 C123 0.931 . S
H110 C87 0.929 . S
H111 C117 0.930 . S
H112 C150 0.930 . S
H113 C94 0.930 . S
H114 C149 0.929 . S
N115 Tb84 2.660 1_565 S
N115 C116 1.305 1_554 S
N115 C120 1.360 . S
C116 H108 0.930 . S
C116 N115 1.305 1_556 S
C116 C119 1.407 . S
C117 H111 0.930 . S
C117 C118 1.410 1_556 S
C117 C119 1.345 . S
C118 C117 1.410 1_554 S
C118 C120 1.417 . S
C118 C150 1.432 . S
C119 H105 0.930 . S
C119 C116 1.407 . S
C119 C117 1.345 . S
C120 N115 1.360 . S
C120 C118 1.417 . S
C120 C124 1.432 . S
H121 C126 0.930 . S
N122 Tb84 2.600 1_565 S
N122 C124 1.359 . S
N122 C125 1.327 . S
C123 H109 0.931 . S
C123 C125 1.392 . S
C123 C126 1.370 . S
C124 C120 1.432 . S
C124 N122 1.359 . S
C124 C127 1.414 . S
C125 H107 0.930 1_565 S
C125 N122 1.327 . S
C125 C123 1.392 . S
C126 H121 0.930 . S
C126 C123 1.370 . S
C126 C127 1.385 . S
C127 C124 1.414 . S
C127 C126 1.385 . S
C127 C149 1.444 . S
O128 Tb84 2.546 . S
O128 C148 1.251 . S
O129 Tb84 2.610 1_556 S
O129 Tb95 2.362 1_545 S
O129 C140 1.283 . S
O130 Tb95 2.421 . S
O130 C147 1.255 1_565 S
O131 Tb84 2.320 1_556 S
O131 C147 1.258 . S
O132 Tb84 2.552 . S
O132 C140 1.243 1_554 S
O133 Tb84 2.413 . S
O133 C148 1.256 . S
O134 Tb95 2.546 . S
O134 C159 1.251 . S
O135 Tb84 2.362 1_565 S
O135 Tb95 2.610 1_554 S
O135 C151 1.283 . S
O136 Tb84 2.421 . S
O136 C158 1.266 . S
O137 Tb95 2.320 1_554 S
O137 C158 1.261 1_565 S
O138 Tb95 2.552 . S
O138 C151 1.243 1_556 S
O139 Tb95 2.413 . S
O139 C159 1.256 . S
C140 O129 1.283 . S
C140 O132 1.243 1_556 S
C141 C143 1.382 . S
C141 C145 1.393 . S
C141 C148 1.500 . S
C142 C143 1.400 . S
C142 C144 1.384 . S
C143 C141 1.382 . S
C143 C142 1.400 . S
C143 H160 0.930 1_554 S
C144 C142 1.384 . S
C144 C146 1.392 . S
C144 H161 0.931 . S
C145 C141 1.393 . S
C145 C146 1.401 . S
C145 H162 0.930 . S
C146 C144 1.392 . S
C146 C145 1.401 . S
C146 H163 0.930 . S
C147 O130 1.255 1_545 S
C147 O131 1.258 . S
C148 Tb84 2.833 . S
C148 O128 1.251 . S
C148 O133 1.256 . S
C148 C141 1.500 . S
C149 H114 0.929 . S
C149 C127 1.444 . S
C149 C150 1.317 . S
C150 H112 0.930 . S
C150 C118 1.432 . S
C150 C149 1.317 . S
C151 O135 1.283 . S
C151 O138 1.243 1_554 S
C152 C153 1.382 . S
C152 C156 1.393 . S
C152 C159 1.500 . S
C153 C152 1.382 . S
C153 C154 1.400 . S
C153 H164 0.930 1_556 S
C154 C153 1.400 . S
C154 C155 1.384 . S
C155 C154 1.384 . S
C155 C157 1.392 . S
C155 H165 0.931 . S
C156 C152 1.393 . S
C156 C157 1.401 . S
C156 H166 0.930 . S
C157 C155 1.392 . S
C157 C156 1.401 . S
C157 H167 0.930 . S
C158 O136 1.266 . S
C158 O137 1.261 1_545 S
C159 Tb95 2.833 . S
C159 O134 1.251 . S
C159 O139 1.256 . S
C159 C152 1.500 . S
H160 C143 0.930 1_556 S
H161 C144 0.931 . S
H162 C145 0.930 . S
H163 C146 0.930 . S
H164 C153 0.930 1_554 S
H165 C155 0.931 . S
H166 C156 0.930 . S
H167 C157 0.930 . S
Tb168 N199 2.660 . S
Tb168 N206 2.600 . S
Tb168 O212 2.546 . S
Tb168 O213 2.610 1_556 S
Tb168 O215 2.320 1_556 S
Tb168 O216 2.552 . S
Tb168 O217 2.413 . S
Tb168 O219 2.362 . S
Tb168 O220 2.421 . S
Tb168 C232 2.833 . S
C169 C172 1.432 . S
C169 C173 1.414 . S
C169 N176 1.359 . S
C170 C172 1.417 . S
C170 C174 1.432 . S
C170 C182 1.410 1_554 S
C171 C173 1.444 . S
C171 C174 1.317 . S
C171 H194 0.929 . S
C172 C169 1.432 . S
C172 C170 1.417 . S
C172 N180 1.360 . S
C173 C169 1.414 . S
C173 C171 1.444 . S
C173 C178 1.385 . S
C174 C170 1.432 . S
C174 C171 1.317 . S
C174 H186 0.930 . S
C175 C177 1.392 . S
C175 C178 1.370 . S
C175 H187 0.931 . S
N176 C169 1.359 . S
N176 C177 1.327 . S
N176 Tb179 2.600 . S
C177 C175 1.392 . S
C177 N176 1.327 . S
C177 H184 0.930 . S
C178 C173 1.385 . S
C178 C175 1.370 . S
C178 H197 0.930 . S
Tb179 N176 2.600 . S
Tb179 N180 2.660 . S
Tb179 O213 2.362 . S
Tb179 O214 2.421 . S
Tb179 O218 2.546 . S
Tb179 O219 2.610 1_554 S
Tb179 O221 2.320 1_554 S
Tb179 O222 2.552 . S
Tb179 O223 2.413 . S
Tb179 C243 2.833 . S
N180 C172 1.360 . S
N180 Tb179 2.660 . S
N180 C181 1.305 1_554 S
C181 N180 1.305 1_556 S
C181 C183 1.407 . S
C181 H188 0.930 . S
C182 C170 1.410 1_556 S
C182 C183 1.345 . S
C182 H190 0.930 . S
C183 C181 1.407 . S
C183 C182 1.345 . S
C183 H185 0.930 . S
H184 C177 0.930 . S
H185 C183 0.930 . S
H186 C174 0.930 . S
H187 C175 0.931 . S
H188 C181 0.930 . S
H189 C203 0.930 . S
H190 C182 0.930 . S
H191 C209 0.930 . S
H192 C200 0.930 . S
H193 C207 0.931 . S
H194 C171 0.929 . S
H195 C201 0.930 . S
H196 C234 0.930 . S
H197 C178 0.930 . S
H198 C233 0.929 . S
N199 Tb168 2.660 . S
N199 C200 1.305 1_556 S
N199 C204 1.360 . S
C200 H192 0.930 . S
C200 N199 1.305 1_554 S
C200 C203 1.407 . S
C201 H195 0.930 . S
C201 C202 1.410 1_554 S
C201 C203 1.345 . S
C202 C201 1.410 1_556 S
C202 C204 1.417 . S
C202 C234 1.432 . S
C203 H189 0.930 . S
C203 C200 1.407 . S
C203 C201 1.345 . S
C204 N199 1.360 . S
C204 C202 1.417 . S
C204 C208 1.432 . S
H205 C210 0.930 . S
N206 Tb168 2.600 . S
N206 C208 1.359 . S
N206 C209 1.327 . S
C207 H193 0.931 . S
C207 C209 1.392 . S
C207 C210 1.370 . S
C208 C204 1.432 . S
C208 N206 1.359 . S
C208 C211 1.414 . S
C209 H191 0.930 . S
C209 N206 1.327 . S
C209 C207 1.392 . S
C210 H205 0.930 . S
C210 C207 1.370 . S
C210 C211 1.385 . S
C211 C208 1.414 . S
C211 C210 1.385 . S
C211 C233 1.444 . S
O212 Tb168 2.546 . S
O212 C232 1.251 . S
O213 Tb168 2.610 1_554 S
O213 Tb179 2.362 . S
O213 C224 1.283 . S
O214 Tb179 2.421 . S
O214 C231 1.262 . S
O215 Tb168 2.320 1_554 S
O215 C231 1.260 . S
O216 Tb168 2.552 . S
O216 C224 1.243 1_556 S
O217 Tb168 2.413 . S
O217 C232 1.256 . S
O218 Tb179 2.546 . S
O218 C243 1.251 . S
O219 Tb168 2.362 . S
O219 Tb179 2.610 1_556 S
O219 C235 1.283 . S
O220 Tb168 2.421 . S
O220 C242 1.262 . S
O221 Tb179 2.320 1_556 S
O221 C242 1.260 . S
O222 Tb179 2.552 . S
O222 C235 1.243 1_554 S
O223 Tb179 2.413 . S
O223 C243 1.256 . S
C224 O213 1.283 . S
C224 O216 1.243 1_554 S
C225 C227 1.382 . S
C225 C229 1.393 . S
C225 C232 1.500 . S
C226 C227 1.400 . S
C226 C228 1.384 . S
C227 C225 1.382 . S
C227 C226 1.400 . S
C227 H244 0.930 1_556 S
C228 C226 1.384 . S
C228 C230 1.392 . S
C228 H245 0.931 . S
C229 C225 1.393 . S
C229 C230 1.401 . S
C229 H246 0.930 . S
C230 C228 1.392 . S
C230 C229 1.401 . S
C230 H247 0.930 . S
C231 O214 1.262 . S
C231 O215 1.260 . S
C232 Tb168 2.833 . S
C232 O212 1.251 . S
C232 O217 1.256 . S
C232 C225 1.500 . S
C233 H198 0.929 . S
C233 C211 1.444 . S
C233 C234 1.317 . S
C234 H196 0.930 . S
C234 C202 1.432 . S
C234 C233 1.317 . S
C235 O219 1.283 . S
C235 O222 1.243 1_556 S
C236 C237 1.382 . S
C236 C240 1.393 . S
C236 C243 1.500 . S
C237 C236 1.382 . S
C237 C238 1.400 . S
C237 H248 0.930 1_554 S
C238 C237 1.400 . S
C238 C239 1.384 . S
C239 C238 1.384 . S
C239 C241 1.392 . S
C239 H249 0.931 . S
C240 C236 1.393 . S
C240 C241 1.401 . S
C240 H250 0.930 . S
C241 C239 1.392 . S
C241 C240 1.401 . S
C241 H251 0.930 . S
C242 O220 1.262 . S
C242 O221 1.260 . S
C243 Tb179 2.833 . S
C243 O218 1.251 . S
C243 O223 1.256 . S
C243 C236 1.500 . S
H244 C227 0.930 1_554 S
H245 C228 0.931 . S
H246 C229 0.930 . S
H247 C230 0.930 . S
H248 C237 0.930 1_556 S
H249 C239 0.931 . S
H250 C240 0.930 . S
H251 C241 0.930 . S
C252 C253 1.387 1_455 S
C252 H256 0.950 . S
C252 C261 1.390 . S
C253 C252 1.387 1_655 S
C253 C255 1.387 . S
H254 C261 0.950 . S
C255 C253 1.387 . S
C255 C257 1.390 . S
C255 H259 0.950 . S
H256 C252 0.950 . S
C257 C255 1.390 . S
C257 C258 1.387 1_655 S
C257 H260 0.950 . S
C258 C257 1.387 1_455 S
C258 C261 1.387 . S
H259 C255 0.950 . S
H260 C257 0.950 . S
C261 C252 1.390 . S
C261 H254 0.950 . S
C261 C258 1.387 . S
C262 C263 1.387 . S
C262 H266 0.950 . S
C262 C271 1.390 . S
C263 C262 1.387 . S
C263 C265 1.387 1_565 S
H264 C271 0.950 . S
C265 C263 1.387 1_545 S
C265 C267 1.390 . S
C265 H269 0.950 . S
H266 C262 0.950 . S
C267 C265 1.390 . S
C267 C268 1.387 . S
C267 H270 0.950 . S
C268 C267 1.387 . S
C268 C271 1.387 1_545 S
H269 C265 0.950 . S
H270 C267 0.950 . S
C271 C262 1.390 . S
C271 H264 0.950 . S
C271 C268 1.387 1_565 S
C272 C273 1.387 . S
C272 H276 0.950 . S
C272 C281 1.390 . S
C273 C272 1.387 . S
C273 C275 1.387 . S
H274 C281 0.950 . S
C275 C273 1.387 . S
C275 C277 1.390 . S
C275 H279 0.950 . S
H276 C272 0.950 . S
C277 C275 1.390 . S
C277 C278 1.387 . S
C277 H280 0.950 . S
C278 C277 1.387 . S
C278 C281 1.387 . S
H279 C275 0.950 . S
H280 C277 0.950 . S
C281 C272 1.390 . S
C281 H274 0.950 . S
C281 C278 1.387 . S
C282 C283 1.387 1_556 S
C282 H286 0.950 . S
C282 C291 1.390 . S
C283 C282 1.387 1_554 S
C283 C285 1.387 . S
H284 C291 0.950 . S
C285 C283 1.387 . S
C285 C287 1.390 . S
C285 H289 0.950 . S
H286 C282 0.950 . S
C287 C285 1.390 . S
C287 C288 1.387 . S
C287 H290 0.950 . S
C288 C287 1.387 . S
C288 C291 1.387 1_554 S
H289 C285 0.950 . S
H290 C287 0.950 . S
C291 C282 1.390 . S
C291 H284 0.950 . S
C291 C288 1.387 1_556 S
C292 C293 1.387 . S
C292 H296 0.950 . S
C292 C301 1.390 . S
C293 C292 1.387 . S
C293 C295 1.387 1_554 S
H294 C301 0.950 . S
C295 C293 1.387 1_556 S
C295 C297 1.390 . S
C295 H299 0.950 . S
H296 C292 0.950 . S
C297 C295 1.390 . S
C297 C298 1.387 1_556 S
C297 H300 0.950 . S
C298 C297 1.387 1_554 S
C298 C301 1.387 . S
H299 C295 0.950 . S
H300 C297 0.950 . S
C301 C292 1.390 . S
C301 H294 0.950 . S
C301 C298 1.387 . S
C302 C303 1.387 1_556 S
C302 H306 0.950 . S
C302 C311 1.390 . S
C303 C302 1.387 1_554 S
C303 C305 1.387 . S
H304 C311 0.950 . S
C305 C303 1.387 . S
C305 C307 1.390 . S
C305 H309 0.950 . S
H306 C302 0.950 . S
C307 C305 1.390 . S
C307 C308 1.387 . S
C307 H310 0.950 . S
C308 C307 1.387 . S
C308 C311 1.387 1_554 S
H309 C305 0.950 . S
H310 C307 0.950 . S
C311 C302 1.390 . S
C311 H304 0.950 . S
C311 C308 1.387 1_556 S
C312 C313 1.387 . S
C312 H316 0.950 . S
C312 C321 1.390 . S
C313 C312 1.387 . S
C313 C315 1.387 1_556 S
H314 C321 0.950 . S
C315 C313 1.387 1_554 S
C315 C317 1.390 . S
C315 H319 0.950 . S
H316 C312 0.950 . S
C317 C315 1.390 . S
C317 C318 1.387 1_554 S
C317 H320 0.950 . S
C318 C317 1.387 1_556 S
C318 C321 1.387 . S
H319 C315 0.950 . S
H320 C317 0.950 . S
C321 C312 1.390 . S
C321 H314 0.950 . S
C321 C318 1.387 . S
C322 C323 1.387 1_554 S
C322 H326 0.950 . S
C322 C331 1.390 . S
C323 C322 1.387 1_556 S
C323 C325 1.387 . S
H324 C331 0.950 . S
C325 C323 1.387 . S
C325 C327 1.390 . S
C325 H329 0.950 . S
H326 C322 0.950 . S
C327 C325 1.390 . S
C327 C328 1.387 . S
C327 H330 0.950 . S
C328 C327 1.387 . S
C328 C331 1.387 1_556 S
H329 C325 0.950 . S
H330 C327 0.950 . S
C331 C322 1.390 . S
C331 H324 0.950 . S
C331 C328 1.387 1_554 S
C332 C333 1.387 . S
C332 H336 0.950 . S
C332 C341 1.390 . S
C333 C332 1.387 . S
C333 C335 1.387 1_556 S
H334 C341 0.950 . S
C335 C333 1.387 1_554 S
C335 C337 1.390 . S
C335 H339 0.950 . S
H336 C332 0.950 . S
C337 C335 1.390 . S
C337 C338 1.387 1_554 S
C337 H340 0.950 . S
C338 C337 1.387 1_556 S
C338 C341 1.387 . S
H339 C335 0.950 . S
H340 C337 0.950 . S
C341 C332 1.390 . S
C341 H334 0.950 . S
C341 C338 1.387 . S
C253 C74 1.492 . S
C258 C63 1.492 . S
C263 C158 1.466 1_565 S
C268 C147 1.473 . S
C273 C242 1.483 . S
C278 C231 1.483 . S
C283 C67 1.683 . S
C288 C226 1.636 1_554 S
C293 C142 0.830 . S
C298 C58 0.854 1_554 S
C303 C151 2.350 . S
C308 C224 2.451 . S
C313 C56 1.683 . S
C318 C238 1.636 1_556 S
C323 C70 0.854 1_556 S
C328 C154 0.830 . S
C333 C235 2.450 . S
C338 C140 2.351 . S
