# Generated by pormake.
# Topology uob, (4)-cn, num edge types: 1
# Building blocks:
#     Node 0, Type 0, BuildingBlock: MUDLON_clean_sbu_0, # of connection points: 4
#     Node 1, Type 0, BuildingBlock: MUDLON_clean_sbu_0, # of connection points: 4
#     Node 2, Type 0, BuildingBlock: MUDLON_clean_sbu_0, # of connection points: 4
#     Node 3, Type 0, BuildingBlock: MUDLON_clean_sbu_0, # of connection points: 4
#     Node 4, Type 0, BuildingBlock: MUDLON_clean_sbu_0, # of connection points: 4
#     Node 5, Type 0, BuildingBlock: MUDLON_clean_sbu_0, # of connection points: 4
#     Node 6, Type 0, BuildingBlock: MUDLON_clean_sbu_0, # of connection points: 4
#     Node 7, Type 0, BuildingBlock: MUDLON_clean_sbu_0, # of connection points: 4
#     Node 8, Type 0, BuildingBlock: MUDLON_clean_sbu_0, # of connection points: 4
#     Node 9, Type 0, BuildingBlock: MUDLON_clean_sbu_0, # of connection points: 4
#     Node 10, Type 0, BuildingBlock: MUDLON_clean_sbu_0, # of connection points: 4
#     Node 11, Type 0, BuildingBlock: MUDLON_clean_sbu_0, # of connection points: 4
#     Node 12, Type 0, BuildingBlock: MUDLON_clean_sbu_0, # of connection points: 4
#     Node 13, Type 0, BuildingBlock: MUDLON_clean_sbu_0, # of connection points: 4
#     Node 14, Type 0, BuildingBlock: MUDLON_clean_sbu_0, # of connection points: 4
#     Node 15, Type 0, BuildingBlock: MUDLON_clean_sbu_0, # of connection points: 4
#     Edge 16, Type (0, 0), BuildingBlock: XIVTED_clean_linker_0, # of connection points: 2
#     Edge 17, Type (0, 0), BuildingBlock: XIVTED_clean_linker_0, # of connection points: 2
#     Edge 18, Type (0, 0), BuildingBlock: XIVTED_clean_linker_0, # of connection points: 2
#     Edge 19, Type (0, 0), BuildingBlock: XIVTED_clean_linker_0, # of connection points: 2
#     Edge 20, Type (0, 0), BuildingBlock: XIVTED_clean_linker_0, # of connection points: 2
#     Edge 21, Type (0, 0), BuildingBlock: XIVTED_clean_linker_0, # of connection points: 2
#     Edge 22, Type (0, 0), BuildingBlock: XIVTED_clean_linker_0, # of connection points: 2
#     Edge 23, Type (0, 0), BuildingBlock: XIVTED_clean_linker_0, # of connection points: 2
#     Edge 24, Type (0, 0), BuildingBlock: XIVTED_clean_linker_0, # of connection points: 2
#     Edge 25, Type (0, 0), BuildingBlock: XIVTED_clean_linker_0, # of connection points: 2
#     Edge 26, Type (0, 0), BuildingBlock: XIVTED_clean_linker_0, # of connection points: 2
#     Edge 27, Type (0, 0), BuildingBlock: XIVTED_clean_linker_0, # of connection points: 2
#     Edge 28, Type (0, 0), BuildingBlock: XIVTED_clean_linker_0, # of connection points: 2
#     Edge 29, Type (0, 0), BuildingBlock: XIVTED_clean_linker_0, # of connection points: 2
#     Edge 30, Type (0, 0), BuildingBlock: XIVTED_clean_linker_0, # of connection points: 2
#     Edge 31, Type (0, 0), BuildingBlock: XIVTED_clean_linker_0, # of connection points: 2
#     Edge 32, Type (0, 0), BuildingBlock: XIVTED_clean_linker_0, # of connection points: 2
#     Edge 33, Type (0, 0), BuildingBlock: XIVTED_clean_linker_0, # of connection points: 2
#     Edge 34, Type (0, 0), BuildingBlock: XIVTED_clean_linker_0, # of connection points: 2
#     Edge 35, Type (0, 0), BuildingBlock: XIVTED_clean_linker_0, # of connection points: 2
#     Edge 36, Type (0, 0), BuildingBlock: XIVTED_clean_linker_0, # of connection points: 2
#     Edge 37, Type (0, 0), BuildingBlock: XIVTED_clean_linker_0, # of connection points: 2
#     Edge 38, Type (0, 0), BuildingBlock: XIVTED_clean_linker_0, # of connection points: 2
#     Edge 39, Type (0, 0), BuildingBlock: XIVTED_clean_linker_0, # of connection points: 2
#     Edge 40, Type (0, 0), BuildingBlock: XIVTED_clean_linker_0, # of connection points: 2
#     Edge 41, Type (0, 0), BuildingBlock: XIVTED_clean_linker_0, # of connection points: 2
#     Edge 42, Type (0, 0), BuildingBlock: XIVTED_clean_linker_0, # of connection points: 2
#     Edge 43, Type (0, 0), BuildingBlock: XIVTED_clean_linker_0, # of connection points: 2
#     Edge 44, Type (0, 0), BuildingBlock: XIVTED_clean_linker_0, # of connection points: 2
#     Edge 45, Type (0, 0), BuildingBlock: XIVTED_clean_linker_0, # of connection points: 2
#     Edge 46, Type (0, 0), BuildingBlock: XIVTED_clean_linker_0, # of connection points: 2
#     Edge 47, Type (0, 0), BuildingBlock: XIVTED_clean_linker_0, # of connection points: 2
# Relax obj value: 0.172
# Max RMSD: 0.257
# Mean RMSD: 0.257
data_MOF--net-uob--node1-MUDLON_clean_sbu_0--edge1-XIVTED_clean_linker_0
_symmetry_space_group_name_H-M    P1
_symmetry_Int_Tables_number       1
_symmetry_cell_setting            triclinic
loop_
_symmetry_equiv_pos_as_xyz
'x, y, z'
_cell_length_a     55.034211
_cell_length_b     55.040084
_cell_length_c     29.019375
_cell_angle_alpha  89.964079
_cell_angle_beta   89.872635
_cell_angle_gamma 89.973393
loop_
_atom_site_label
_atom_site_type_symbol
_atom_site_fract_x
_atom_site_fract_y
_atom_site_fract_z
_atom_type_partial_charge
Mg0 Mg 0.1384 0.06683 0.31024 0.0
C1 C 0.1407 0.08233 0.40828 0.0
O2 O 0.15299 0.06187 0.4085 0.0
C3 C 0.11819 0.0983 0.23483 0.0
O4 O 0.10029 0.09875 0.26487 0.0
C5 C 0.18992 0.06852 0.33335 0.0
O6 O 0.18322 0.09125 0.32761 0.0
O7 O 0.17464 0.05189 0.32384 0.0
O8 O 0.13167 0.08981 0.37041 0.0
O9 O 0.10792 0.04127 0.30703 0.0
C10 C 0.09624 0.03554 0.34335 0.0
O11 O 0.10451 0.04277 0.38344 0.0
O12 O 0.13757 0.08696 0.24525 0.0
Mg13 Mg 0.95175 0.63908 0.55569 0.0
C14 C 0.94493 0.61975 0.64781 0.0
O15 O 0.96825 0.61707 0.63947 0.0
C16 C 0.9376 0.6467 0.45608 0.0
O17 O 0.96055 0.65321 0.45395 0.0
C18 C 0.96357 0.69369 0.56293 0.0
O19 O 0.94882 0.69551 0.52758 0.0
O20 O 0.96909 0.67274 0.57818 0.0
O21 O 0.93149 0.6289 0.61675 0.0
O22 O 0.97623 0.60843 0.54423 0.0
C23 C 0.96539 0.58811 0.53995 0.0
O24 O 0.94152 0.58786 0.54069 0.0
O25 O 0.92849 0.6413 0.49509 0.0
Mg26 Mg 0.38171 0.44224 0.8181 0.0
C27 C 0.37806 0.42478 0.91292 0.0
O28 O 0.37116 0.44758 0.91499 0.0
C29 C 0.38275 0.44082 0.71601 0.0
O30 O 0.38288 0.46419 0.72522 0.0
C31 C 0.32847 0.45643 0.8271 0.0
O32 O 0.32593 0.43814 0.79843 0.0
O33 O 0.34977 0.46381 0.83669 0.0
O34 O 0.38417 0.41599 0.874 0.0
O35 O 0.41584 0.46227 0.82102 0.0
C36 C 0.41855 0.48458 0.81095 0.0
O37 O 0.39944 0.49757 0.7996 0.0
O38 O 0.38063 0.42596 0.74938 0.0
Mg39 Mg 0.57541 0.8763 0.06228 0.0
C40 C 0.585 0.89496 0.15588 0.0
O41 O 0.56354 0.9042 0.14673 0.0
C42 C 0.59089 0.86913 0.96296 0.0
O43 O 0.56941 0.85877 0.96117 0.0
C44 C 0.54482 0.84028 0.11336 0.0
O45 O 0.53826 0.86073 0.13307 0.0
O46 O 0.55847 0.84125 0.0779 0.0
O47 O 0.59607 0.88316 0.12458 0.0
O48 O 0.5514 0.90758 0.0544 0.0
C49 C 0.56296 0.92692 0.04437 0.0
O50 O 0.58657 0.92548 0.03801 0.0
O51 O 0.59877 0.87657 1.00161 0.0
Mg52 Mg 0.13535 0.44426 0.05106 0.0
C53 C 0.13297 0.43635 0.95331 0.0
O54 O 0.13493 0.45995 0.95901 0.0
C55 C 0.14424 0.43094 0.15091 0.0
O56 O 0.15339 0.45298 0.15104 0.0
C57 C 0.18897 0.45633 0.04218 0.0
O58 O 0.19092 0.43682 0.06798 0.0
O59 O 0.16797 0.46514 0.03466 0.0
O60 O 0.13181 0.42289 0.98888 0.0
O61 O 0.10187 0.46528 0.0557 0.0
C62 C 0.08266 0.45241 0.05453 0.0
O63 O 0.0849 0.42873 0.05057 0.0
O64 O 0.13679 0.42202 0.11308 0.0
Mg65 Mg 0.56811 0.63631 0.31641 0.0
C66 C 0.59956 0.6413 0.23154 0.0
O67 O 0.59548 0.66452 0.23868 0.0
C68 C 0.57851 0.64396 0.41844 0.0
O69 O 0.55531 0.6496 0.41893 0.0
C70 C 0.55426 0.69042 0.30617 0.0
O71 O 0.56693 0.69308 0.34415 0.0
O72 O 0.55068 0.66919 0.29036 0.0
O73 O 0.59199 0.62588 0.26083 0.0
O74 O 0.54383 0.60524 0.32199 0.0
C75 C 0.53538 0.59594 0.28524 0.0
O76 O 0.53951 0.60692 0.24577 0.0
O77 O 0.58868 0.63909 0.38015 0.0
Mg78 Mg 0.38222 0.07098 0.56828 0.0
C79 C 0.37507 0.10436 0.48601 0.0
O80 O 0.35211 0.09926 0.49369 0.0
C81 C 0.40173 0.10019 0.6469 0.0
O82 O 0.41889 0.10296 0.61578 0.0
C83 C 0.34305 0.04427 0.51364 0.0
O84 O 0.36209 0.03592 0.49134 0.0
O85 O 0.34632 0.05717 0.54954 0.0
O86 O 0.39108 0.09678 0.51413 0.0
O87 O 0.41204 0.04479 0.56676 0.0
C88 C 0.42398 0.04197 0.52952 0.0
O89 O 0.41619 0.05271 0.49189 0.0
O90 O 0.38293 0.08798 0.6363 0.0
Mg91 Mg 0.94411 0.8836 0.79247 0.0
C92 C 0.9346 0.89742 0.69611 0.0
O93 O 0.95652 0.90599 0.70322 0.0
C94 C 0.92728 0.87486 0.89096 0.0
O95 O 0.94706 0.86148 0.89168 0.0
C96 C 0.97625 0.8465 0.7464 0.0
O97 O 0.98408 0.86644 0.72648 0.0
O98 O 0.96162 0.84836 0.78029 0.0
O99 O 0.92312 0.88792 0.72966 0.0
O100 O 0.96698 0.91596 0.79701 0.0
C101 C 0.95446 0.9354 0.79474 0.0
O102 O 0.93074 0.93352 0.79104 0.0
O103 O 0.92097 0.8849 0.85336 0.0
Mg104 Mg 0.63662 0.57016 0.81748 0.0
C105 C 0.61565 0.58224 0.90888 0.0
O106 O 0.60568 0.56102 0.90058 0.0
C107 C 0.64405 0.58459 0.71744 0.0
O108 O 0.65343 0.56265 0.71567 0.0
C109 C 0.6727 0.54313 0.87453 0.0
O110 O 0.65229 0.53892 0.89662 0.0
O111 O 0.67172 0.55392 0.83572 0.0
O112 O 0.62877 0.59202 0.87792 0.0
O113 O 0.60555 0.5458 0.80968 0.0
C114 C 0.58627 0.55698 0.79782 0.0
O115 O 0.58766 0.58041 0.78953 0.0
O116 O 0.63708 0.59293 0.75612 0.0
Mg117 Mg 0.45029 0.13222 0.07312 0.0
C118 C 0.43932 0.12991 0.16905 0.0
O119 O 0.46309 0.12976 0.1646 0.0
C120 C 0.44582 0.14209 0.9721 0.0
O121 O 0.46861 0.14791 0.97974 0.0
C122 C 0.46637 0.18464 0.08545 0.0
O123 O 0.44817 0.18854 0.05719 0.0
O124 O 0.47304 0.1629 0.09321 0.0
O125 O 0.42643 0.13004 0.13267 0.0
O126 O 0.46949 0.09767 0.07196 0.0
C127 C 0.49074 0.09464 0.05577 0.0
O128 O 0.50272 0.11348 0.03971 0.0
O129 O 0.43259 0.13595 1.00618 0.0
Mg130 Mg 0.88047 0.94674 0.29659 0.0
C131 C 0.87303 0.9121 0.37645 0.0
O132 O 0.85011 0.91758 0.36951 0.0
C133 C 0.87184 0.94061 0.19343 0.0
O134 O 0.86803 0.96415 0.19585 0.0
C135 C 0.82719 0.96084 0.31546 0.0
O136 O 0.82286 0.94658 0.28013 0.0
O137 O 0.8491 0.96554 0.32616 0.0
O138 O 0.88901 0.91988 0.34841 0.0
O139 O 0.91334 0.96894 0.29386 0.0
C140 C 0.92497 0.9721 0.33125 0.0
O141 O 0.91545 0.96397 0.36986 0.0
O142 O 0.87593 0.92884 0.23031 0.0
Mg143 Mg 0.07168 0.3792 0.55486 0.0
C144 C 0.10581 0.37364 0.6361 0.0
O145 O 0.10326 0.35046 0.62654 0.0
C146 C 0.08166 0.37094 0.45285 0.0
O147 O 0.05894 0.36363 0.45384 0.0
C148 C 0.04725 0.34589 0.62066 0.0
O149 O 0.04674 0.36688 0.64221 0.0
O150 O 0.05516 0.34536 0.57936 0.0
O151 O 0.09604 0.38939 0.60996 0.0
O152 O 0.04701 0.41005 0.54897 0.0
C153 C 0.05775 0.43033 0.54321 0.0
O154 O 0.0816 0.43048 0.54067 0.0
O155 O 0.09186 0.37707 0.49035 0.0
Mg156 Mg 0.63746 0.94595 0.56004 0.0
C157 C 0.64382 0.91256 0.47804 0.0
O158 O 0.66693 0.91678 0.48589 0.0
C159 C 0.64628 0.9368 0.66245 0.0
O160 O 0.65068 0.96026 0.6623 0.0
C161 C 0.69103 0.95917 0.54184 0.0
O162 O 0.69511 0.94403 0.57598 0.0
O163 O 0.66922 0.96458 0.53165 0.0
O164 O 0.62801 0.92071 0.50604 0.0
O165 O 0.60523 0.96893 0.56548 0.0
C166 C 0.5935 0.97356 0.52874 0.0
O167 O 0.60257 0.96636 0.48911 0.0
O168 O 0.64178 0.92619 0.62451 0.0
Mg169 Mg 0.06941 0.13995 0.8115 0.0
C170 C 0.08351 0.14141 0.71389 0.0
O171 O 0.06174 0.15115 0.71455 0.0
C172 C 0.07478 0.14701 0.91263 0.0
O173 O 0.05198 0.153 0.9055 0.0
C174 C 0.05856 0.19378 0.80639 0.0
O175 O 0.07744 0.19426 0.83399 0.0
O176 O 0.04963 0.17334 0.79502 0.0
O177 O 0.09291 0.13456 0.75183 0.0
O178 O 0.04749 0.10709 0.81538 0.0
C179 C 0.02957 0.1019 0.78968 0.0
O180 O 0.02196 0.11791 0.75938 0.0
O181 O 0.08797 0.14166 0.878 0.0
Mg182 Mg 0.88014 0.56901 0.06092 0.0
C183 C 0.89256 0.57211 0.9652 0.0
O184 O 0.89098 0.54887 0.9751 0.0
C185 C 0.87237 0.58471 0.15938 0.0
O186 O 0.86464 0.56216 0.16181 0.0
C187 C 0.82585 0.55827 0.05557 0.0
O188 O 0.82481 0.57629 0.08516 0.0
O189 O 0.84651 0.55019 0.04318 0.0
O190 O 0.88857 0.5875 0.99699 0.0
O191 O 0.91206 0.54628 0.07181 0.0
C192 C 0.91438 0.52366 0.06426 0.0
O193 O 0.89546 0.51101 0.05072 0.0
O194 O 0.87855 0.59323 0.1203 0.0
Mg195 Mg 0.45386 0.37643 0.30874 0.0
C196 C 0.43454 0.36835 0.21539 0.0
O197 O 0.45695 0.36031 0.21264 0.0
C198 C 0.44746 0.39249 0.40585 0.0
O199 O 0.46707 0.40413 0.39249 0.0
C200 C 0.46659 0.32304 0.30091 0.0
O201 O 0.44662 0.32119 0.32555 0.0
O202 O 0.47548 0.34404 0.29365 0.0
O203 O 0.42687 0.37643 0.25388 0.0
O204 O 0.47453 0.41017 0.30022 0.0
C205 C 0.46593 0.42723 0.27547 0.0
O206 O 0.44568 0.42352 0.2527 0.0
O207 O 0.43755 0.37768 0.37791 0.0
H208 H 0.32769 0.01529 0.44218 0.0
H209 H 0.21587 0.09988 0.38599 0.0
H210 H 0.30321 0.07213 0.53358 0.0
H211 H 0.21527 0.02516 0.34088 0.0
H212 H 0.25153 0.09138 0.43267 0.0
H213 H 0.28954 0.01912 0.39878 0.0
C214 C 0.31418 0.0283 0.45356 0.0
C215 C 0.31873 0.04346 0.49156 0.0
C216 C 0.24363 0.07681 0.4126 0.0
C217 C 0.27548 0.04828 0.44144 0.0
C218 C 0.22336 0.08167 0.3855 0.0
C219 C 0.21256 0.06321 0.35922 0.0
C220 C 0.25364 0.05339 0.41304 0.0
C221 C 0.22304 0.03992 0.36057 0.0
C222 C 0.29246 0.03046 0.42875 0.0
C223 C 0.30057 0.06002 0.50464 0.0
N224 N 0.24319 0.03569 0.38679 0.0
N225 N 0.27997 0.06223 0.47923 0.0
H226 H 0.96687 0.80041 0.77934 0.0
H227 H 0.96589 0.74068 0.53219 0.0
H228 H 0.99302 0.83858 0.65909 0.0
H229 H 0.9762 0.69695 0.65403 0.0
H230 H 0.97304 0.77725 0.57837 0.0
H231 H 0.96766 0.76238 0.73499 0.0
C232 C 0.97309 0.80076 0.74391 0.0
C233 C 0.97985 0.82276 0.72297 0.0
C234 C 0.97402 0.75962 0.59486 0.0
C235 C 0.98023 0.77951 0.67187 0.0
C236 C 0.96991 0.73876 0.56854 0.0
C237 C 0.9705 0.71573 0.58922 0.0
C238 C 0.97815 0.75751 0.64247 0.0
C239 C 0.97573 0.71434 0.63658 0.0
C240 C 0.97353 0.77907 0.71864 0.0
C241 C 0.98769 0.8221 0.67682 0.0
N242 N 0.97899 0.73495 0.66175 0.0
N243 N 0.9873 0.80095 0.65268 0.0
H244 H 0.28001 0.45364 0.80648 0.0
H245 H 0.23739 0.45328 0.06263 0.0
H246 H 0.3292 0.4757 0.91415 0.0
H247 H 0.18809 0.4755 0.95521 0.0
H248 H 0.27156 0.45935 0.00931 0.0
H249 H 0.24582 0.4596 0.85973 0.0
C250 C 0.28359 0.46013 0.84104 0.0
C251 C 0.30751 0.46411 0.85587 0.0
C252 C 0.25328 0.46333 0.99775 0.0
C253 C 0.2686 0.47025 0.91725 0.0
C254 C 0.23381 0.45987 0.02812 0.0
C255 C 0.20989 0.46398 0.01341 0.0
C256 C 0.24873 0.47019 0.95194 0.0
C257 C 0.20626 0.47232 0.96814 0.0
C258 C 0.26409 0.46353 0.87137 0.0
C259 C 0.31108 0.47243 0.90116 0.0
N260 N 0.22542 0.47468 0.93871 0.0
N261 N 0.2919 0.47473 0.93053 0.0
H262 H 0.55401 0.79363 0.08328 0.0
H263 H 0.54934 0.73765 0.33442 0.0
H264 H 0.52694 0.83381 0.20035 0.0
H265 H 0.54508 0.69231 0.21347 0.0
H266 H 0.5429 0.77345 0.28574 0.0
H267 H 0.55238 0.7563 0.1296 0.0
C268 C 0.54741 0.79457 0.11842 0.0
C269 C 0.54071 0.81695 0.13793 0.0
C270 C 0.54309 0.75563 0.26993 0.0
C271 C 0.53928 0.77445 0.19129 0.0
C272 C 0.5468 0.73521 0.29771 0.0
C273 C 0.54772 0.71195 0.27804 0.0
C274 C 0.54083 0.75287 0.22197 0.0
C275 C 0.54435 0.70988 0.23017 0.0
C276 C 0.5465 0.77328 0.14483 0.0
C277 C 0.53233 0.81704 0.18375 0.0
N278 N 0.5414 0.73009 0.20369 0.0
N279 N 0.5322 0.79623 0.209 0.0
H280 H 0.7194 0.54691 0.8401 0.0
H281 H 0.77887 0.56075 0.08592 0.0
H282 H 0.6795 0.53245 0.96539 0.0
H283 H 0.82203 0.53931 0.96853 0.0
H284 H 0.74199 0.55292 0.04123 0.0
H285 H 0.75733 0.54642 0.88476 0.0
C286 C 0.71861 0.54333 0.87678 0.0
C287 C 0.69618 0.5398 0.89896 0.0
C288 C 0.75954 0.54963 0.02544 0.0
C289 C 0.73935 0.53973 0.95023 0.0
C290 C 0.78057 0.5541 0.05093 0.0
C291 C 0.80354 0.5506 0.031 0.0
C292 C 0.76144 0.5422 0.97924 0.0
C293 C 0.80468 0.54206 0.98537 0.0
C294 C 0.74025 0.54304 0.90221 0.0
C295 C 0.6963 0.53528 0.94667 0.0
N296 N 0.78392 0.53851 0.96076 0.0
N297 N 0.71745 0.53574 0.97073 0.0
H298 H 0.49107 0.32369 0.21848 0.0
H299 H 0.48179 0.18089 0.17465 0.0
H300 H 0.45977 0.27459 0.31822 0.0
H301 H 0.46822 0.23346 0.06742 0.0
H302 H 0.48757 0.21425 0.22956 0.0
H303 H 0.49656 0.28948 0.16538 0.0
C304 C 0.48588 0.30566 0.22971 0.0
C305 C 0.4747 0.30204 0.27276 0.0
C306 C 0.48381 0.21841 0.1938 0.0
C307 C 0.4813 0.26289 0.21236 0.0
C308 C 0.4807 0.19944 0.16234 0.0
C309 C 0.47449 0.20444 0.11635 0.0
C310 C 0.48125 0.24253 0.17895 0.0
C311 C 0.47293 0.22884 0.10256 0.0
C312 C 0.48891 0.28621 0.19924 0.0
C313 C 0.46831 0.27823 0.28528 0.0
N314 N 0.47627 0.247 0.13374 0.0
N315 N 0.47165 0.25955 0.25519 0.0
H316 H 0.83093 0.97418 0.40615 0.0
H317 H 0.68754 0.97486 0.45244 0.0
H318 H 0.77803 0.96073 0.29963 0.0
H319 H 0.74018 0.95769 0.55754 0.0
H320 H 0.72069 0.9798 0.39682 0.0
H321 H 0.79786 0.97826 0.46217 0.0
C322 C 0.81235 0.97256 0.39429 0.0
C323 C 0.80727 0.96701 0.34803 0.0
C324 C 0.72497 0.97524 0.4322 0.0
C325 C 0.76934 0.97168 0.41217 0.0
C326 C 0.70608 0.97258 0.46411 0.0
C327 C 0.71107 0.96575 0.5098 0.0
C328 C 0.74907 0.97141 0.44613 0.0
C329 C 0.73548 0.96285 0.52268 0.0
C330 C 0.79351 0.97472 0.42642 0.0
C331 C 0.78281 0.9649 0.33491 0.0
N332 N 0.75357 0.96565 0.49101 0.0
N333 N 0.76477 0.96719 0.36681 0.0
H334 H 0.04427 0.29877 0.58855 0.0
H335 H 0.06443 0.24065 0.83505 0.0
H336 H 0.04188 0.34104 0.71372 0.0
H337 H 0.03654 0.19825 0.72196 0.0
H338 H 0.05749 0.27765 0.7902 0.0
H339 H 0.04258 0.26151 0.63517 0.0
C340 C 0.04308 0.30025 0.6257 0.0
C341 C 0.04328 0.32311 0.64717 0.0
C342 C 0.05257 0.26028 0.7754 0.0
C343 C 0.04178 0.28061 0.70063 0.0
C344 C 0.05653 0.23916 0.80101 0.0
C345 C 0.05104 0.21633 0.78229 0.0
C346 C 0.04358 0.2586 0.73022 0.0
C347 C 0.0409 0.21549 0.73787 0.0
C348 C 0.0421 0.27898 0.65227 0.0
C349 C 0.04176 0.32388 0.69553 0.0
N350 N 0.03785 0.23628 0.71305 0.0
N351 N 0.04141 0.303 0.72054 0.0
H352 H 0.06797 0.0194 0.41447 0.0
H353 H 0.95292 0.98655 0.25715 0.0
H354 H 0.06883 0.02561 0.26619 0.0
H355 H 0.95417 0.98064 0.40546 0.0
H356 H 0.99517 1.00076 0.25881 0.0
H357 H 0.02648 1.00419 0.41078 0.0
C358 C 0.05952 0.01738 0.38102 0.0
C359 C 0.07197 0.02386 0.34059 0.0
C360 C 0.98614 0.99639 0.29095 0.0
C361 C 0.02407 1.0066 0.33611 0.0
C362 C 0.96198 0.98839 0.29006 0.0
C363 C 0.94991 0.98239 0.33124 0.0
C364 C 0.99832 0.99841 0.33332 0.0
C365 C 0.96265 0.98503 0.37282 0.0
C366 C 0.03572 1.00875 0.37895 0.0
C367 C 0.05998 0.02079 0.29826 0.0
N368 N 0.98608 0.99277 0.37274 0.0
N369 N 0.03665 0.0125 0.29714 0.0
H370 H 0.94674 0.5422 0.53504 0.0
H371 H 0.07635 0.47615 0.53525 0.0
H372 H 0.01494 0.58083 0.53926 0.0
H373 H 1.00821 0.43765 0.54515 0.0
H374 H 0.05416 0.51447 0.53234 0.0
H375 H 0.96891 0.50384 0.53416 0.0
C376 C 0.96641 0.54266 0.53558 0.0
C377 C 0.97898 0.56486 0.5373 0.0
C378 C 0.04403 0.49767 0.5351 0.0
C379 C 1.00455 0.52076 0.53638 0.0
C380 C 0.05668 0.47571 0.53672 0.0
C381 C 0.04414 0.45356 0.54054 0.0
C382 C 0.01855 0.49762 0.53717 0.0
C383 C 0.01865 0.45425 0.54227 0.0
C384 C 0.97906 0.52068 0.53518 0.0
C385 C 1.00448 0.5642 0.53795 0.0
N386 N 1.00671 0.47591 0.54059 0.0
N387 N 0.01641 0.54252 0.53754 0.0
H388 H 0.43152 0.5309 0.78634 0.0
H389 H 0.5746 0.51 0.82281 0.0
H390 H 0.46205 0.46274 0.83177 0.0
H391 H 0.54288 0.57657 0.77217 0.0
H392 H 0.53383 0.49196 0.826 0.0
H393 H 0.47245 0.54781 0.78162 0.0
C394 C 0.44681 0.51949 0.79548 0.0
C395 C 0.44327 0.49535 0.8095 0.0
C396 C 0.53586 0.51049 0.81404 0.0
C397 C 0.49038 0.51461 0.80397 0.0
C398 C 0.55913 0.52076 0.81207 0.0
C399 C 0.5622 0.54486 0.79728 0.0
C400 C 0.51553 0.52444 0.8012 0.0
C401 C 0.54146 0.55796 0.78394 0.0
C402 C 0.47023 0.52915 0.79266 0.0
C403 C 0.46387 0.48145 0.8208 0.0
N404 N 0.51909 0.54763 0.78635 0.0
N405 N 0.48651 0.49127 0.81778 0.0
H406 H 0.51568 0.93863 0.06699 0.0
H407 H 0.53625 0.08147 0.02642 0.0
H408 H 0.58307 0.9703 0.01998 0.0
H409 H 0.46949 0.05136 0.07999 0.0
H410 H 0.55315 0.04051 0.02184 0.0
H411 H 0.49764 0.97941 0.06922 0.0
C412 C 0.52662 0.9541 0.05685 0.0
C413 C 0.55093 0.95102 0.04336 0.0
C414 C 0.53479 0.04283 0.0346 0.0
C415 C 0.53051 0.99768 0.04608 0.0
C416 C 0.52513 0.06626 0.03726 0.0
C417 C 0.50142 0.06992 0.05364 0.0
C418 C 0.52064 0.02281 0.04831 0.0
C419 C 0.48789 0.04944 0.06722 0.0
C420 C 0.51635 0.97738 0.05829 0.0
C421 C 0.56428 0.97174 0.03074 0.0
N422 N 0.49768 0.0268 0.06421 0.0
N423 N 0.55392 0.99411 0.03251 0.0
H424 H 0.07038 0.50043 0.06797 0.0
H425 H 0.92699 0.47598 0.04944 0.0
H426 H 0.03885 0.42942 0.04803 0.0
H427 H 0.95778 0.54583 0.08334 0.0
H428 H 0.96793 0.45865 0.04847 0.0
H429 H 0.02935 0.51763 0.07279 0.0
C430 C 0.05487 0.48846 0.0646 0.0
C431 C 0.05811 0.46344 0.05755 0.0
C432 C 0.96572 0.47776 0.05633 0.0
C433 C 0.0111 0.48298 0.06301 0.0
C434 C 0.94232 0.48766 0.05695 0.0
C435 C 0.93888 0.51242 0.06642 0.0
C436 C 0.9859 0.49273 0.06501 0.0
C437 C 0.9595 0.52665 0.07585 0.0
C438 C 0.03144 0.49828 0.06744 0.0
C439 C 0.0373 0.44881 0.0535 0.0
N440 N 0.98208 0.51664 0.07469 0.0
N441 N 0.01475 0.45879 0.05619 0.0
H442 H 0.45759 0.46433 0.21508 0.0
H443 H 0.53423 0.56268 0.35584 0.0
H444 H 0.49923 0.44615 0.33614 0.0
H445 H 0.51041 0.57364 0.21575 0.0
H446 H 0.51786 0.52131 0.35331 0.0
H447 H 0.47373 0.50563 0.21823 0.0
C448 C 0.47024 0.46899 0.24222 0.0
C449 C 0.47711 0.45172 0.27534 0.0
C450 C 0.51618 0.53281 0.3232 0.0
C451 C 0.49541 0.49916 0.27951 0.0
C452 C 0.52534 0.5565 0.32471 0.0
C453 C 0.5237 0.57167 0.28591 0.0
C454 C 0.50503 0.52433 0.28279 0.0
C455 C 0.51214 0.56259 0.24644 0.0
C456 C 0.47944 0.49259 0.24398 0.0
C457 C 0.49357 0.45883 0.30972 0.0
N458 N 0.50323 0.53955 0.24592 0.0
N459 N 0.50203 0.48206 0.31111 0.0
H460 H 0.45245 0.03089 0.45522 0.0
H461 H 0.56599 0.98533 0.60499 0.0
H462 H 0.45058 0.02558 0.60359 0.0
H463 H 0.56457 0.98638 0.45628 0.0
H464 H 0.52418 1.00075 0.60593 0.0
H465 H 0.4936 0.01449 0.45559 0.0
C466 C 0.46061 0.02609 0.48793 0.0
C467 C 0.44798 0.02967 0.52945 0.0
C468 C 0.53306 0.99764 0.57312 0.0
C469 C 0.49545 0.01105 0.53016 0.0
C470 C 0.55699 0.98896 0.57256 0.0
C471 C 0.56887 0.98454 0.53048 0.0
C472 C 0.52095 1.00201 0.53133 0.0
C473 C 0.55621 0.98948 0.48956 0.0
C474 C 0.4842 0.01677 0.48811 0.0
C475 C 0.45958 0.02308 0.57073 0.0
N476 N 0.533 0.99789 0.49104 0.0
N477 N 0.4827 0.01422 0.57006 0.0
H478 H 0.04678 0.06165 0.83477 0.0
H479 H 0.9332 0.97827 0.7711 0.0
H480 H 0.98735 0.08604 0.74962 0.0
H481 H 1.00149 0.94827 0.81688 0.0
H482 H 0.95139 0.01861 0.77037 0.0
H483 H 0.02903 0.02089 0.83602 0.0
C484 C 0.02993 0.05849 0.81651 0.0
C485 C 0.01852 0.07736 0.79205 0.0
C486 C 0.96244 1.00323 0.7805 0.0
C487 C 0.99813 0.03069 0.79351 0.0
C488 C 0.95206 0.98015 0.78111 0.0
C489 C 0.96585 0.9598 0.79413 0.0
C490 C 0.98678 1.0062 0.79354 0.0
C491 C 0.99022 0.96343 0.80652 0.0
C492 C 0.01991 0.03517 0.81708 0.0
C493 C 0.9968 0.0721 0.76887 0.0
N494 N 0.9999 0.98623 0.80616 0.0
N495 N 0.98728 0.04931 0.77033 0.0
H496 H 0.07014 0.15886 0.62984 0.0
H497 H 0.16176 0.07339 0.49147 0.0
H498 H 0.12391 0.11348 0.69548 0.0
H499 H 0.10872 0.11965 0.42594 0.0
H500 H 0.15102 0.09097 0.56581 0.0
H501 H 0.08688 0.14793 0.5549 0.0
C502 C 0.08562 0.14671 0.62854 0.0
C503 C 0.09548 0.13684 0.66904 0.0
C504 C 0.14184 0.09745 0.53519 0.0
C505 C 0.11468 0.12413 0.583 0.0
C506 C 0.14794 0.08739 0.49264 0.0
C507 C 0.1359 0.09486 0.45243 0.0
C508 C 0.12345 0.11505 0.53775 0.0
C509 C 0.11837 0.11326 0.45607 0.0
C510 C 0.09518 0.14049 0.58563 0.0
C511 C 0.11568 0.12142 0.66516 0.0
N512 N 0.1125 0.12256 0.49808 0.0
N513 N 0.12446 0.11534 0.62283 0.0
H514 H 0.90463 0.63749 0.69278 0.0
H515 H 0.91597 0.54482 0.90142 0.0
H516 H 0.96332 0.58595 0.70593 0.0
H517 H 0.88479 0.616 0.92185 0.0
H518 H 0.92721 0.55633 0.82319 0.0
H519 H 0.89085 0.6265 0.77094 0.0
C520 C 0.91443 0.62374 0.71192 0.0
C521 C 0.93513 0.61259 0.69309 0.0
C522 C 0.91792 0.56945 0.84478 0.0
C523 C 0.9195 0.59996 0.78145 0.0
C524 C 0.91143 0.5629 0.88938 0.0
C525 C 0.89952 0.57954 0.91818 0.0
C526 C 0.91213 0.5927 0.82841 0.0
C527 C 0.89414 0.60273 0.90076 0.0
C528 C 0.9067 0.61765 0.75644 0.0
C529 C 0.94734 0.59505 0.71929 0.0
N530 N 0.90037 0.60863 0.85669 0.0
N531 N 0.93926 0.58918 0.76202 0.0
H532 H 0.39313 0.39525 0.20131 0.0
H533 H 0.40296 0.3821 0.92745 0.0
H534 H 0.44357 0.3475 0.13202 0.0
H535 H 0.35929 0.43598 0.99703 0.0
H536 H 0.41171 0.36326 1.00217 0.0
H537 H 0.37418 0.40427 0.12697 0.0
C538 C 0.39994 0.38634 0.17061 0.0
C539 C 0.4202 0.37094 0.17271 0.0
C540 C 0.39996 0.37903 1.00096 0.0
C541 C 0.3988 0.38128 0.08764 0.0
C542 C 0.39492 0.38972 0.95832 0.0
C543 C 0.38075 0.41087 0.95616 0.0
C544 C 0.3907 0.38956 0.04154 0.0
C545 C 0.37068 0.41994 0.9972 0.0
C546 C 0.38919 0.39156 0.12815 0.0
C547 C 0.42823 0.35983 0.13186 0.0
N548 N 0.37605 0.40939 0.0382 0.0
N549 N 0.4177 0.36542 0.09096 0.0
H550 H 0.67216 0.8996 0.40396 0.0
H551 H 0.56054 0.90925 0.23261 0.0
H552 H 0.59737 0.90565 0.44794 0.0
H553 H 0.63029 0.88196 0.18791 0.0
H554 H 0.57482 0.90899 0.31169 0.0
H555 H 0.65819 0.89257 0.32499 0.0
C556 C 0.65282 0.89901 0.39723 0.0
C557 C 0.63591 0.90355 0.43253 0.0
C558 C 0.58704 0.90296 0.28471 0.0
C559 C 0.61993 0.89594 0.34239 0.0
C560 C 0.57896 0.90331 0.23938 0.0
C561 C 0.59431 0.89575 0.20352 0.0
C562 C 0.61078 0.89527 0.29449 0.0
C563 C 0.61791 0.88802 0.21457 0.0
C564 C 0.64488 0.89508 0.35213 0.0
C565 C 0.61109 0.9025 0.42182 0.0
N566 N 0.62552 0.88813 0.25918 0.0
N567 N 0.60388 0.89914 0.37764 0.0
H568 H 0.11527 0.3454 0.71187 0.0
H569 H 0.13828 0.46094 0.87262 0.0
H570 H 0.11814 0.41948 0.66314 0.0
H571 H 0.12687 0.3887 0.92655 0.0
H572 H 0.1363 0.44481 0.79483 0.0
H573 H 0.12533 0.35969 0.78941 0.0
C574 C 0.11845 0.36461 0.71727 0.0
C575 C 0.11568 0.38132 0.68107 0.0
C576 C 0.13429 0.43241 0.82358 0.0
C577 C 0.12693 0.39774 0.76961 0.0
C578 C 0.13536 0.44163 0.86814 0.0
C579 C 0.13246 0.42618 0.90622 0.0
C580 C 0.13022 0.40752 0.81676 0.0
C581 C 0.12901 0.40127 0.89814 0.0
C582 C 0.12402 0.37275 0.7616 0.0
C583 C 0.11989 0.40598 0.6901 0.0
N584 N 0.12784 0.39271 0.8542 0.0
N585 N 0.12513 0.41344 0.73349 0.0
H586 H 0.60535 0.59445 0.20274 0.0
H587 H 0.63079 0.62721 0.93884 0.0
H588 H 0.6121 0.66866 0.15593 0.0
H589 H 0.59874 0.56007 0.98625 0.0
H590 H 0.63095 0.64201 0.01876 0.0
H591 H 0.6116 0.58057 0.12398 0.0
C592 C 0.60852 0.60785 0.17604 0.0
C593 C 0.60785 0.63279 0.18587 0.0
C594 C 0.62389 0.62407 0.01141 0.0
C595 C 0.61476 0.61696 0.09544 0.0
C596 C 0.62371 0.61566 0.96594 0.0
C597 C 0.61462 0.59243 0.95587 0.0
C598 C 0.61528 0.60895 0.04685 0.0
C599 C 0.60577 0.57815 0.99227 0.0
C600 C 0.61191 0.5999 0.13099 0.0
C601 C 0.61226 0.64927 0.1498 0.0
N602 N 0.60644 0.5866 0.03608 0.0
N603 N 0.61532 0.64106 0.10596 0.0
H604 H 0.34703 0.11228 0.40937 0.0
H605 H 0.46301 0.13656 0.24999 0.0
H606 H 0.4206 0.11849 0.45934 0.0
H607 H 0.39126 0.12434 0.19482 0.0
H608 H 0.44633 0.13522 0.3274 0.0
H609 H 0.36142 0.12225 0.33176 0.0
C610 C 0.36613 0.11616 0.40424 0.0
C611 C 0.38268 0.11433 0.44089 0.0
C612 C 0.43414 0.1329 0.2985 0.0
C613 C 0.39924 0.12553 0.35214 0.0
C614 C 0.44367 0.13359 0.25412 0.0
C615 C 0.42855 0.13022 0.21577 0.0
C616 C 0.40923 0.12868 0.30497 0.0
C617 C 0.40358 0.12684 0.22343 0.0
C618 C 0.37434 0.12171 0.35984 0.0
C619 C 0.40721 0.1195 0.43213 0.0
N620 N 0.3947 0.12595 0.26728 0.0
N621 N 0.41474 0.12466 0.38864 0.0
H622 H 0.9594 0.90578 0.61677 0.0
H623 H 0.84487 0.90157 0.45213 0.0
H624 H 0.88806 0.88681 0.66747 0.0
H625 H 0.9192 0.90138 0.4041 0.0
H626 H 0.85943 0.89433 0.53061 0.0
H627 H 0.9442 0.90385 0.53845 0.0
C628 C 0.94045 0.90128 0.61144 0.0
C629 C 0.92491 0.89665 0.64877 0.0
C630 C 0.87248 0.89547 0.50271 0.0
C631 C 0.90734 0.89428 0.55867 0.0
C632 C 0.8642 0.8995 0.45786 0.0
C633 C 0.88088 0.90247 0.42157 0.0
C634 C 0.89757 0.89461 0.51118 0.0
C635 C 0.90569 0.89954 0.43104 0.0
C636 C 0.93182 0.89997 0.56656 0.0
C637 C 0.90061 0.89062 0.63962 0.0
N638 N 0.91327 0.89613 0.47498 0.0
N639 N 0.89247 0.88982 0.59536 0.0
H640 H 0.05176 0.15972 0.99243 0.0
H641 H 0.14827 0.09515 0.1589 0.0
H642 H 0.11799 0.12694 0.94238 0.0
H643 H 0.07991 0.12543 0.20408 0.0
H644 H 0.13988 0.1099 0.08071 0.0
H645 H 0.06422 0.15079 0.07109 0.0
C646 C 0.06906 0.1508 0.99795 0.0
C647 C 0.08375 0.14392 0.96056 0.0
C648 C 0.12682 0.11346 0.10786 0.0
C649 C 0.09814 0.13339 0.05116 0.0
C650 C 0.13163 0.10509 0.15255 0.0
C651 C 0.1147 0.1089 0.18818 0.0
C652 C 0.10497 0.12577 0.09871 0.0
C653 C 0.09344 0.1219 0.1778 0.0
C654 C 0.07617 0.14566 0.04303 0.0
C655 C 0.10605 0.13253 0.9701 0.0
N656 N 0.08916 0.12972 0.13413 0.0
N657 N 0.11247 0.12744 0.01443 0.0
H658 H 0.89431 0.62256 0.44562 0.0
H659 H 0.89905 0.62652 0.16964 0.0
H660 H 0.94958 0.6605 0.36819 0.0
H661 H 0.85747 0.57401 0.24718 0.0
H662 H 0.91171 0.64541 0.24208 0.0
H663 H 0.8748 0.61101 0.37315 0.0
C664 C 0.90216 0.62879 0.41345 0.0
C665 C 0.92377 0.64235 0.41303 0.0
C666 C 0.8996 0.62991 0.24317 0.0
C667 C 0.9015 0.62913 0.32992 0.0
C668 C 0.89226 0.61918 0.20182 0.0
C669 C 0.87735 0.59848 0.20229 0.0
C670 C 0.89183 0.62002 0.28535 0.0
C671 C 0.86915 0.58979 0.24513 0.0
C672 C 0.89106 0.62208 0.37207 0.0
C673 C 0.93307 0.64985 0.3702 0.0
N674 N 0.87661 0.60051 0.28489 0.0
N675 N 0.92198 0.64304 0.33041 0.0
H676 H 0.38296 0.39396 0.68133 0.0
H677 H 0.45579 0.43267 0.45741 0.0
H678 H 0.39618 0.46854 0.64255 0.0
H679 H 0.41395 0.36637 0.45736 0.0
H680 H 0.43779 0.44359 0.53107 0.0
H681 H 0.3969 0.38111 0.60432 0.0
C682 C 0.38854 0.40762 0.65662 0.0
C683 C 0.38852 0.43238 0.66861 0.0
C684 C 0.43244 0.42666 0.51501 0.0
C685 C 0.40478 0.41778 0.58122 0.0
C686 C 0.44285 0.4203 0.47298 0.0
C687 C 0.43639 0.39853 0.45108 0.0
C688 C 0.41566 0.41103 0.5361 0.0
C689 C 0.41937 0.38336 0.47302 0.0
C690 C 0.39645 0.40027 0.61276 0.0
C691 C 0.39592 0.44927 0.63514 0.0
N692 N 0.40969 0.38979 0.51465 0.0
N693 N 0.40399 0.44164 0.59337 0.0
H694 H 0.62804 0.891 0.67612 0.0
H695 H 0.62868 0.90107 0.95142 0.0
H696 H 0.65694 0.95264 0.74976 0.0
H697 H 0.58241 0.85199 0.87587 0.0
H698 H 0.6461 0.91515 0.87846 0.0
H699 H 0.61828 0.87168 0.74975 0.0
C700 C 0.63264 0.90036 0.70774 0.0
C701 C 0.64313 0.92362 0.70668 0.0
C702 C 0.63232 0.90112 0.87793 0.0
C703 C 0.63195 0.90153 0.79116 0.0
C704 C 0.62244 0.89296 0.91958 0.0
C705 C 0.6039 0.87543 0.91977 0.0
C706 C 0.62378 0.89153 0.83617 0.0
C707 C 0.59652 0.86566 0.87737 0.0
C708 C 0.62696 0.88934 0.74977 0.0
C709 C 0.64868 0.9348 0.74887 0.0
N710 N 0.60639 0.87391 0.8373 0.0
N711 N 0.64292 0.92371 0.78937 0.0
H712 H 0.06702 0.35671 0.36675 0.0
H713 H 0.16135 0.44234 0.23679 0.0
H714 H 0.12437 0.39523 0.4368 0.0
H715 H 0.11557 0.3909 0.16592 0.0
H716 H 0.14902 0.42438 0.31028 0.0
H717 H 0.08528 0.36795 0.29285 0.0
C718 C 0.08359 0.36731 0.36664 0.0
C719 C 0.09407 0.37516 0.40811 0.0
C720 C 0.14189 0.41683 0.27864 0.0
C721 C 0.11494 0.38835 0.32349 0.0
C722 C 0.14892 0.42709 0.23662 0.0
C723 C 0.13938 0.41823 0.19507 0.0
C724 C 0.12492 0.39776 0.27926 0.0
C725 C 0.12338 0.39836 0.19705 0.0
C726 C 0.09403 0.37371 0.32439 0.0
C727 C 0.11561 0.38881 0.40575 0.0
N728 N 0.11643 0.38901 0.23843 0.0
N729 N 0.12516 0.3952 0.3642 0.0
H730 H 0.61454 0.62433 0.7064 0.0
H731 H 0.62311 0.62272 0.4309 0.0
H732 H 0.6601 0.57476 0.62994 0.0
H733 H 0.5639 0.65567 0.50608 0.0
H734 H 0.64216 0.61173 0.50407 0.0
H735 H 0.60129 0.64254 0.63372 0.0
C736 C 0.62205 0.6175 0.6744 0.0
C737 C 0.63834 0.59783 0.67428 0.0
C738 C 0.62511 0.62156 0.50452 0.0
C739 C 0.62317 0.61861 0.59098 0.0
C740 C 0.61425 0.62795 0.46276 0.0
C741 C 0.59172 0.63995 0.46229 0.0
C742 C 0.61349 0.62738 0.5462 0.0
C743 C 0.58116 0.64625 0.50474 0.0
C744 C 0.61437 0.62783 0.63292 0.0
C745 C 0.64739 0.58974 0.63169 0.0
N746 N 0.59207 0.63979 0.54496 0.0
N747 N 0.63961 0.60009 0.59177 0.0
H748 H 0.37265 0.09379 0.72348 0.0
H749 H 0.46884 0.15624 0.89308 0.0
H750 H 0.43941 0.12767 0.67892 0.0
H751 H 0.40263 0.12267 0.94124 0.0
H752 H 0.45626 0.14879 0.81391 0.0
H753 H 0.38126 0.10684 0.8026 0.0
C754 C 0.389 0.10414 0.7302 0.0
C755 C 0.4054 0.1095 0.69443 0.0
C756 C 0.44435 0.14318 0.84169 0.0
C757 C 0.4154 0.12441 0.78495 0.0
C758 C 0.45152 0.14748 0.88704 0.0
C759 C 0.43686 0.13994 0.92402 0.0
C760 C 0.42236 0.1311 0.8329 0.0
C761 C 0.41455 0.12876 0.91385 0.0
C762 C 0.39392 0.11155 0.77542 0.0
C763 C 0.42628 0.12297 0.70529 0.0
N764 N 0.40807 0.12449 0.86927 0.0
N765 N 0.43071 0.12982 0.74946 0.0
H766 H 0.8622 0.95929 0.10773 0.0
H767 H 0.93324 0.8541 0.97604 0.0
H768 H 0.88868 0.89467 0.17543 0.0
H769 H 0.89279 0.91005 0.90558 0.0
H770 H 0.91588 0.86783 0.04914 0.0
H771 H 0.87189 0.94093 0.03318 0.0
C772 C 0.8698 0.94114 0.10694 0.0
C773 C 0.87479 0.9286 0.148 0.0
C774 C 0.91057 0.87694 0.01764 0.0
C775 C 0.8862 0.90756 0.06267 0.0
C776 C 0.9205 0.8691 0.97585 0.0
C777 C 0.91461 0.88103 0.93458 0.0
C778 C 0.89485 0.89706 0.01835 0.0
C779 C 0.89791 0.90033 0.9365 0.0
C780 C 0.87532 0.93065 0.06432 0.0
C781 C 0.88458 0.90508 0.14475 0.0
N782 N 0.88886 0.90792 0.97772 0.0
N783 N 0.89022 0.89546 0.10291 0.0
loop_
_geom_bond_atom_site_label_1
_geom_bond_atom_site_label_2
_geom_bond_distance
_geom_bond_site_symmetry_2
_ccdc_geom_bond_type
Mg0 O7 2.141 . S
Mg0 O8 2.048 . S
Mg0 O9 2.048 . S
Mg0 O12 2.141 . S
C1 O2 1.313 . S
C1 O8 1.195 . S
O2 C1 1.313 . S
C3 O4 1.245 . S
C3 O12 1.289 . S
O4 C3 1.245 . S
C5 O6 1.245 . S
C5 O7 1.289 . S
O6 C5 1.245 . S
O7 Mg0 2.141 . S
O7 C5 1.289 . S
O8 Mg0 2.048 . S
O8 C1 1.195 . S
O9 Mg0 2.048 . S
O9 C10 1.195 . S
C10 O9 1.195 . S
C10 O11 1.313 . S
O11 C10 1.313 . S
O12 Mg0 2.141 . S
O12 C3 1.289 . S
Mg13 O20 2.141 . S
Mg13 O21 2.048 . S
Mg13 O22 2.048 . S
Mg13 O25 2.141 . S
C14 O15 1.313 . S
C14 O21 1.195 . S
O15 C14 1.313 . S
C16 O17 1.245 . S
C16 O25 1.289 . S
O17 C16 1.245 . S
C18 O19 1.245 . S
C18 O20 1.289 . S
O19 C18 1.245 . S
O20 Mg13 2.141 . S
O20 C18 1.289 . S
O21 Mg13 2.048 . S
O21 C14 1.195 . S
O22 Mg13 2.048 . S
O22 C23 1.195 . S
C23 O22 1.195 . S
C23 O24 1.313 . S
O24 C23 1.313 . S
O25 Mg13 2.141 . S
O25 C16 1.289 . S
Mg26 O33 2.141 . S
Mg26 O34 2.048 . S
Mg26 O35 2.048 . S
Mg26 O38 2.141 . S
C27 O28 1.313 . S
C27 O34 1.195 . S
O28 C27 1.313 . S
C29 O30 1.245 . S
C29 O38 1.289 . S
O30 C29 1.245 . S
C31 O32 1.245 . S
C31 O33 1.289 . S
O32 C31 1.245 . S
O33 Mg26 2.141 . S
O33 C31 1.289 . S
O34 Mg26 2.048 . S
O34 C27 1.195 . S
O35 Mg26 2.048 . S
O35 C36 1.195 . S
C36 O35 1.195 . S
C36 O37 1.313 . S
O37 C36 1.313 . S
O38 Mg26 2.141 . S
O38 C29 1.289 . S
Mg39 O46 2.141 . S
Mg39 O47 2.048 . S
Mg39 O48 2.048 . S
Mg39 O51 2.141 . S
C40 O41 1.313 . S
C40 O47 1.195 . S
O41 C40 1.313 . S
C42 O43 1.245 . S
C42 O51 1.289 1_556 S
O43 C42 1.245 . S
C44 O45 1.245 . S
C44 O46 1.289 . S
O45 C44 1.245 . S
O46 Mg39 2.141 . S
O46 C44 1.289 . S
O47 Mg39 2.048 . S
O47 C40 1.195 . S
O48 Mg39 2.048 . S
O48 C49 1.195 . S
C49 O48 1.195 . S
C49 O50 1.313 . S
O50 C49 1.313 . S
O51 Mg39 2.141 . S
O51 C42 1.289 1_554 S
Mg52 O59 2.141 . S
Mg52 O60 2.048 1_554 S
Mg52 O61 2.048 . S
Mg52 O64 2.141 . S
C53 O54 1.313 . S
C53 O60 1.195 . S
O54 C53 1.313 . S
C55 O56 1.245 . S
C55 O64 1.289 . S
O56 C55 1.245 . S
C57 O58 1.245 . S
C57 O59 1.289 . S
O58 C57 1.245 . S
O59 Mg52 2.141 . S
O59 C57 1.289 . S
O60 Mg52 2.048 1_556 S
O60 C53 1.195 . S
O61 Mg52 2.048 . S
O61 C62 1.195 . S
C62 O61 1.195 . S
C62 O63 1.313 . S
O63 C62 1.313 . S
O64 Mg52 2.141 . S
O64 C55 1.289 . S
Mg65 O72 2.141 . S
Mg65 O73 2.048 . S
Mg65 O74 2.048 . S
Mg65 O77 2.141 . S
C66 O67 1.313 . S
C66 O73 1.195 . S
O67 C66 1.313 . S
C68 O69 1.245 . S
C68 O77 1.289 . S
O69 C68 1.245 . S
C70 O71 1.245 . S
C70 O72 1.289 . S
O71 C70 1.245 . S
O72 Mg65 2.141 . S
O72 C70 1.289 . S
O73 Mg65 2.048 . S
O73 C66 1.195 . S
O74 Mg65 2.048 . S
O74 C75 1.195 . S
C75 O74 1.195 . S
C75 O76 1.313 . S
O76 C75 1.313 . S
O77 Mg65 2.141 . S
O77 C68 1.289 . S
Mg78 O85 2.141 . S
Mg78 O86 2.048 . S
Mg78 O87 2.048 . S
Mg78 O90 2.141 . S
C79 O80 1.313 . S
C79 O86 1.195 . S
O80 C79 1.313 . S
C81 O82 1.245 . S
C81 O90 1.289 . S
O82 C81 1.245 . S
C83 O84 1.245 . S
C83 O85 1.289 . S
O84 C83 1.245 . S
O85 Mg78 2.141 . S
O85 C83 1.289 . S
O86 Mg78 2.048 . S
O86 C79 1.195 . S
O87 Mg78 2.048 . S
O87 C88 1.195 . S
C88 O87 1.195 . S
C88 O89 1.313 . S
O89 C88 1.313 . S
O90 Mg78 2.141 . S
O90 C81 1.289 . S
Mg91 O98 2.141 . S
Mg91 O99 2.048 . S
Mg91 O100 2.048 . S
Mg91 O103 2.141 . S
C92 O93 1.313 . S
C92 O99 1.195 . S
O93 C92 1.313 . S
C94 O95 1.245 . S
C94 O103 1.289 . S
O95 C94 1.245 . S
C96 O97 1.245 . S
C96 O98 1.289 . S
O97 C96 1.245 . S
O98 Mg91 2.141 . S
O98 C96 1.289 . S
O99 Mg91 2.048 . S
O99 C92 1.195 . S
O100 Mg91 2.048 . S
O100 C101 1.195 . S
C101 O100 1.195 . S
C101 O102 1.313 . S
O102 C101 1.313 . S
O103 Mg91 2.141 . S
O103 C94 1.289 . S
Mg104 O111 2.141 . S
Mg104 O112 2.048 . S
Mg104 O113 2.048 . S
Mg104 O116 2.141 . S
C105 O106 1.313 . S
C105 O112 1.195 . S
O106 C105 1.313 . S
C107 O108 1.245 . S
C107 O116 1.289 . S
O108 C107 1.245 . S
C109 O110 1.245 . S
C109 O111 1.289 . S
O110 C109 1.245 . S
O111 Mg104 2.141 . S
O111 C109 1.289 . S
O112 Mg104 2.048 . S
O112 C105 1.195 . S
O113 Mg104 2.048 . S
O113 C114 1.195 . S
C114 O113 1.195 . S
C114 O115 1.313 . S
O115 C114 1.313 . S
O116 Mg104 2.141 . S
O116 C107 1.289 . S
Mg117 O124 2.141 . S
Mg117 O125 2.048 . S
Mg117 O126 2.048 . S
Mg117 O129 2.141 . S
C118 O119 1.313 . S
C118 O125 1.195 . S
O119 C118 1.313 . S
C120 O121 1.245 . S
C120 O129 1.289 1_556 S
O121 C120 1.245 . S
C122 O123 1.245 . S
C122 O124 1.289 . S
O123 C122 1.245 . S
O124 Mg117 2.141 . S
O124 C122 1.289 . S
O125 Mg117 2.048 . S
O125 C118 1.195 . S
O126 Mg117 2.048 . S
O126 C127 1.195 . S
C127 O126 1.195 . S
C127 O128 1.313 . S
O128 C127 1.313 . S
O129 Mg117 2.141 . S
O129 C120 1.289 1_554 S
Mg130 O137 2.141 . S
Mg130 O138 2.048 . S
Mg130 O139 2.048 . S
Mg130 O142 2.141 . S
C131 O132 1.313 . S
C131 O138 1.195 . S
O132 C131 1.313 . S
C133 O134 1.245 . S
C133 O142 1.289 . S
O134 C133 1.245 . S
C135 O136 1.245 . S
C135 O137 1.289 . S
O136 C135 1.245 . S
O137 Mg130 2.141 . S
O137 C135 1.289 . S
O138 Mg130 2.048 . S
O138 C131 1.195 . S
O139 Mg130 2.048 . S
O139 C140 1.195 . S
C140 O139 1.195 . S
C140 O141 1.313 . S
O141 C140 1.313 . S
O142 Mg130 2.141 . S
O142 C133 1.289 . S
Mg143 O150 2.141 . S
Mg143 O151 2.048 . S
Mg143 O152 2.048 . S
Mg143 O155 2.141 . S
C144 O145 1.313 . S
C144 O151 1.195 . S
O145 C144 1.313 . S
C146 O147 1.245 . S
C146 O155 1.289 . S
O147 C146 1.245 . S
C148 O149 1.245 . S
C148 O150 1.289 . S
O149 C148 1.245 . S
O150 Mg143 2.141 . S
O150 C148 1.289 . S
O151 Mg143 2.048 . S
O151 C144 1.195 . S
O152 Mg143 2.048 . S
O152 C153 1.195 . S
C153 O152 1.195 . S
C153 O154 1.313 . S
O154 C153 1.313 . S
O155 Mg143 2.141 . S
O155 C146 1.289 . S
Mg156 O163 2.141 . S
Mg156 O164 2.048 . S
Mg156 O165 2.048 . S
Mg156 O168 2.141 . S
C157 O158 1.313 . S
C157 O164 1.195 . S
O158 C157 1.313 . S
C159 O160 1.245 . S
C159 O168 1.289 . S
O160 C159 1.245 . S
C161 O162 1.245 . S
C161 O163 1.289 . S
O162 C161 1.245 . S
O163 Mg156 2.141 . S
O163 C161 1.289 . S
O164 Mg156 2.048 . S
O164 C157 1.195 . S
O165 Mg156 2.048 . S
O165 C166 1.195 . S
C166 O165 1.195 . S
C166 O167 1.313 . S
O167 C166 1.313 . S
O168 Mg156 2.141 . S
O168 C159 1.289 . S
Mg169 O176 2.141 . S
Mg169 O177 2.048 . S
Mg169 O178 2.048 . S
Mg169 O181 2.141 . S
C170 O171 1.313 . S
C170 O177 1.195 . S
O171 C170 1.313 . S
C172 O173 1.245 . S
C172 O181 1.289 . S
O173 C172 1.245 . S
C174 O175 1.245 . S
C174 O176 1.289 . S
O175 C174 1.245 . S
O176 Mg169 2.141 . S
O176 C174 1.289 . S
O177 Mg169 2.048 . S
O177 C170 1.195 . S
O178 Mg169 2.048 . S
O178 C179 1.195 . S
C179 O178 1.195 . S
C179 O180 1.313 . S
O180 C179 1.313 . S
O181 Mg169 2.141 . S
O181 C172 1.289 . S
Mg182 O189 2.141 . S
Mg182 O190 2.048 1_554 S
Mg182 O191 2.048 . S
Mg182 O194 2.141 . S
C183 O184 1.313 . S
C183 O190 1.195 . S
O184 C183 1.313 . S
C185 O186 1.245 . S
C185 O194 1.289 . S
O186 C185 1.245 . S
C187 O188 1.245 . S
C187 O189 1.289 . S
O188 C187 1.245 . S
O189 Mg182 2.141 . S
O189 C187 1.289 . S
O190 Mg182 2.048 1_556 S
O190 C183 1.195 . S
O191 Mg182 2.048 . S
O191 C192 1.195 . S
C192 O191 1.195 . S
C192 O193 1.313 . S
O193 C192 1.313 . S
O194 Mg182 2.141 . S
O194 C185 1.289 . S
Mg195 O202 2.141 . S
Mg195 O203 2.048 . S
Mg195 O204 2.048 . S
Mg195 O207 2.141 . S
C196 O197 1.313 . S
C196 O203 1.195 . S
O197 C196 1.313 . S
C198 O199 1.245 . S
C198 O207 1.289 . S
O199 C198 1.245 . S
C200 O201 1.245 . S
C200 O202 1.289 . S
O201 C200 1.245 . S
O202 Mg195 2.141 . S
O202 C200 1.289 . S
O203 Mg195 2.048 . S
O203 C196 1.195 . S
O204 Mg195 2.048 . S
O204 C205 1.195 . S
C205 O204 1.195 . S
C205 O206 1.313 . S
O206 C205 1.313 . S
O207 Mg195 2.141 . S
O207 C198 1.289 . S
H208 C214 0.930 . S
H209 C218 0.930 . S
H210 C223 0.929 . S
H211 C221 0.929 . S
H212 C216 0.929 . S
H213 C222 0.929 . S
C214 H208 0.930 . S
C214 C215 1.367 . S
C214 C222 1.378 . S
C215 C214 1.367 . S
C215 C223 1.433 . S
C216 H212 0.929 . S
C216 C218 1.378 . S
C216 C220 1.350 . S
C217 C220 1.463 . S
C217 C222 1.350 . S
C217 N225 1.427 . S
C218 H209 0.930 . S
C218 C216 1.378 . S
C218 C219 1.367 . S
C219 C218 1.367 . S
C219 C221 1.433 . S
C220 C216 1.350 . S
C220 C217 1.463 . S
C220 N224 1.427 . S
C221 H211 0.929 . S
C221 C219 1.433 . S
C221 N224 1.384 . S
C222 H213 0.929 . S
C222 C214 1.378 . S
C222 C217 1.350 . S
C223 H210 0.929 . S
C223 C215 1.433 . S
C223 N225 1.384 . S
N224 C220 1.427 . S
N224 C221 1.384 . S
N225 C217 1.427 . S
N225 C223 1.384 . S
H226 C232 0.930 . S
H227 C236 0.930 . S
H228 C241 0.929 . S
H229 C239 0.929 . S
H230 C234 0.929 . S
H231 C240 0.929 . S
C232 H226 0.930 . S
C232 C233 1.367 . S
C232 C240 1.378 . S
C233 C232 1.367 . S
C233 C241 1.433 . S
C234 H230 0.929 . S
C234 C236 1.378 . S
C234 C238 1.350 . S
C235 C238 1.463 . S
C235 C240 1.350 . S
C235 N243 1.427 . S
C236 H227 0.930 . S
C236 C234 1.378 . S
C236 C237 1.367 . S
C237 C236 1.367 . S
C237 C239 1.433 . S
C238 C234 1.350 . S
C238 C235 1.463 . S
C238 N242 1.427 . S
C239 H229 0.929 . S
C239 C237 1.433 . S
C239 N242 1.384 . S
C240 H231 0.929 . S
C240 C232 1.378 . S
C240 C235 1.350 . S
C241 H228 0.929 . S
C241 C233 1.433 . S
C241 N243 1.384 . S
N242 C238 1.427 . S
N242 C239 1.384 . S
N243 C235 1.427 . S
N243 C241 1.384 . S
H244 C250 0.930 . S
H245 C254 0.938 . S
H246 C259 0.929 . S
H247 C257 0.929 . S
H248 C252 0.929 . S
H249 C258 0.929 . S
C250 H244 0.930 . S
C250 C251 1.367 . S
C250 C258 1.378 . S
C251 C250 1.367 . S
C251 C259 1.433 . S
C252 H248 0.929 . S
C252 C254 1.378 . S
C252 C256 1.350 . S
C253 C256 1.463 . S
C253 C258 1.350 . S
C253 N261 1.427 . S
C254 H245 0.938 . S
C254 C252 1.378 . S
C254 C255 1.367 . S
C255 C254 1.367 . S
C255 C257 1.433 . S
C256 C252 1.350 . S
C256 C253 1.463 . S
C256 N260 1.427 . S
C257 H247 0.929 . S
C257 C255 1.433 . S
C257 N260 1.384 . S
C258 H249 0.929 . S
C258 C250 1.378 . S
C258 C253 1.350 . S
C259 H246 0.929 . S
C259 C251 1.433 . S
C259 N261 1.384 . S
N260 C256 1.427 . S
N260 C257 1.384 . S
N261 C253 1.427 . S
N261 C259 1.384 . S
H262 C268 0.930 . S
H263 C272 0.930 . S
H264 C277 0.929 . S
H265 C275 0.929 . S
H266 C270 0.929 . S
H267 C276 0.929 . S
C268 H262 0.930 . S
C268 C269 1.367 . S
C268 C276 1.378 . S
C269 C268 1.367 . S
C269 C277 1.433 . S
C270 H266 0.929 . S
C270 C272 1.378 . S
C270 C274 1.350 . S
C271 C274 1.463 . S
C271 C276 1.350 . S
C271 N279 1.427 . S
C272 H263 0.930 . S
C272 C270 1.378 . S
C272 C273 1.367 . S
C273 C272 1.367 . S
C273 C275 1.433 . S
C274 C270 1.350 . S
C274 C271 1.463 . S
C274 N278 1.427 . S
C275 H265 0.929 . S
C275 C273 1.433 . S
C275 N278 1.384 . S
C276 H267 0.929 . S
C276 C268 1.378 . S
C276 C271 1.350 . S
C277 H264 0.929 . S
C277 C269 1.433 . S
C277 N279 1.384 . S
N278 C274 1.427 . S
N278 C275 1.384 . S
N279 C271 1.427 . S
N279 C277 1.384 . S
H280 C286 0.930 . S
H281 C290 0.930 . S
H282 C295 0.929 . S
H283 C293 0.929 . S
H284 C288 0.929 . S
H285 C294 0.929 . S
C286 H280 0.930 . S
C286 C287 1.367 . S
C286 C294 1.378 . S
C287 C286 1.367 . S
C287 C295 1.433 . S
C288 H284 0.929 . S
C288 C290 1.378 1_556 S
C288 C292 1.350 . S
C289 C292 1.463 . S
C289 C294 1.350 . S
C289 N297 1.427 . S
C290 H281 0.930 . S
C290 C288 1.378 1_554 S
C290 C291 1.367 1_554 S
C291 C290 1.367 1_556 S
C291 C293 1.433 . S
C292 C288 1.350 . S
C292 C289 1.463 . S
C292 N296 1.427 . S
C293 H283 0.929 . S
C293 C291 1.433 . S
C293 N296 1.384 . S
C294 H285 0.929 . S
C294 C286 1.378 . S
C294 C289 1.350 . S
C295 H282 0.929 . S
C295 C287 1.433 . S
C295 N297 1.384 . S
N296 C292 1.427 . S
N296 C293 1.384 . S
N297 C289 1.427 . S
N297 C295 1.384 . S
H298 C304 0.930 . S
H299 C308 0.930 . S
H300 C313 0.929 . S
H301 C311 0.929 . S
H302 C306 0.929 . S
H303 C312 0.929 . S
C304 H298 0.930 . S
C304 C305 1.367 . S
C304 C312 1.378 . S
C305 C304 1.367 . S
C305 C313 1.433 . S
C306 H302 0.929 . S
C306 C308 1.378 . S
C306 C310 1.350 . S
C307 C310 1.463 . S
C307 C312 1.350 . S
C307 N315 1.427 . S
C308 H299 0.930 . S
C308 C306 1.378 . S
C308 C309 1.367 . S
C309 C308 1.367 . S
C309 C311 1.433 . S
C310 C306 1.350 . S
C310 C307 1.463 . S
C310 N314 1.427 . S
C311 H301 0.929 . S
C311 C309 1.433 . S
C311 N314 1.384 . S
C312 H303 0.929 . S
C312 C304 1.378 . S
C312 C307 1.350 . S
C313 H300 0.929 . S
C313 C305 1.433 . S
C313 N315 1.384 . S
N314 C310 1.427 . S
N314 C311 1.384 . S
N315 C307 1.427 . S
N315 C313 1.384 . S
H316 C322 0.930 . S
H317 C326 0.930 . S
H318 C331 0.929 . S
H319 C329 0.929 . S
H320 C324 0.929 . S
H321 C330 0.929 . S
C322 H316 0.930 . S
C322 C323 1.367 . S
C322 C330 1.378 . S
C323 C322 1.367 . S
C323 C331 1.433 . S
C324 H320 0.929 . S
C324 C326 1.378 . S
C324 C328 1.350 . S
C325 C328 1.463 . S
C325 C330 1.350 . S
C325 N333 1.427 . S
C326 H317 0.930 . S
C326 C324 1.378 . S
C326 C327 1.367 . S
C327 C326 1.367 . S
C327 C329 1.433 . S
C328 C324 1.350 . S
C328 C325 1.463 . S
C328 N332 1.427 . S
C329 H319 0.929 . S
C329 C327 1.433 . S
C329 N332 1.384 . S
C330 H321 0.929 . S
C330 C322 1.378 . S
C330 C325 1.350 . S
C331 H318 0.929 . S
C331 C323 1.433 . S
C331 N333 1.384 . S
N332 C328 1.427 . S
N332 C329 1.384 . S
N333 C325 1.427 . S
N333 C331 1.384 . S
H334 C340 0.930 . S
H335 C344 0.930 . S
H336 C349 0.929 . S
H337 C347 0.929 . S
H338 C342 0.929 . S
H339 C348 0.929 . S
C340 H334 0.930 . S
C340 C341 1.367 . S
C340 C348 1.378 . S
C341 C340 1.367 . S
C341 C349 1.433 . S
C342 H338 0.929 . S
C342 C344 1.378 . S
C342 C346 1.350 . S
C343 C346 1.463 . S
C343 C348 1.350 . S
C343 N351 1.427 . S
C344 H335 0.930 . S
C344 C342 1.378 . S
C344 C345 1.367 . S
C345 C344 1.367 . S
C345 C347 1.433 . S
C346 C342 1.350 . S
C346 C343 1.463 . S
C346 N350 1.427 . S
C347 H337 0.929 . S
C347 C345 1.433 . S
C347 N350 1.384 . S
C348 H339 0.929 . S
C348 C340 1.378 . S
C348 C343 1.350 . S
C349 H336 0.929 . S
C349 C341 1.433 . S
C349 N351 1.384 . S
N350 C346 1.427 . S
N350 C347 1.384 . S
N351 C343 1.427 . S
N351 C349 1.384 . S
H352 C358 0.930 . S
H353 C362 0.930 . S
H354 C367 0.929 . S
H355 C365 0.929 . S
H356 C360 0.929 . S
H357 C366 0.929 . S
C358 H352 0.930 . S
C358 C359 1.367 . S
C358 C366 1.378 . S
C359 C358 1.367 . S
C359 C367 1.433 . S
C360 H356 0.929 . S
C360 C362 1.378 . S
C360 C364 1.350 . S
C361 C364 1.463 1_445 S
C361 C366 1.350 . S
C361 N369 1.427 . S
C362 H353 0.930 . S
C362 C360 1.378 . S
C362 C363 1.367 . S
C363 C362 1.367 . S
C363 C365 1.433 . S
C364 C360 1.350 . S
C364 C361 1.463 1_665 S
C364 N368 1.427 . S
C365 H355 0.929 . S
C365 C363 1.433 . S
C365 N368 1.384 . S
C366 H357 0.929 . S
C366 C358 1.378 . S
C366 C361 1.350 . S
C367 H354 0.929 . S
C367 C359 1.433 . S
C367 N369 1.384 . S
N368 C364 1.427 . S
N368 C365 1.384 . S
N369 C361 1.427 . S
N369 C367 1.384 . S
H370 C376 0.930 . S
H371 C380 0.930 . S
H372 C385 0.929 . S
H373 C383 0.929 . S
H374 C378 0.929 . S
H375 C384 0.929 . S
C376 H370 0.930 . S
C376 C377 1.367 . S
C376 C384 1.378 . S
C377 C376 1.367 . S
C377 C385 1.433 . S
C378 H374 0.929 . S
C378 C380 1.378 . S
C378 C382 1.350 . S
C379 C382 1.463 1_655 S
C379 C384 1.350 . S
C379 N387 1.427 . S
C380 H371 0.930 . S
C380 C378 1.378 . S
C380 C381 1.367 . S
C381 C380 1.367 . S
C381 C383 1.433 . S
C382 C378 1.350 . S
C382 C379 1.463 1_455 S
C382 N386 1.427 . S
C383 H373 0.929 . S
C383 C381 1.433 . S
C383 N386 1.384 . S
C384 H375 0.929 . S
C384 C376 1.378 . S
C384 C379 1.350 . S
C385 H372 0.929 . S
C385 C377 1.433 . S
C385 N387 1.384 . S
N386 C382 1.427 . S
N386 C383 1.384 . S
N387 C379 1.427 . S
N387 C385 1.384 . S
H388 C394 0.930 . S
H389 C398 0.930 . S
H390 C403 0.929 . S
H391 C401 0.929 . S
H392 C396 0.929 . S
H393 C402 0.929 . S
C394 H388 0.930 . S
C394 C395 1.367 . S
C394 C402 1.378 . S
C395 C394 1.367 . S
C395 C403 1.433 . S
C396 H392 0.929 . S
C396 C398 1.378 . S
C396 C400 1.350 . S
C397 C400 1.463 . S
C397 C402 1.350 . S
C397 N405 1.427 . S
C398 H389 0.930 . S
C398 C396 1.378 . S
C398 C399 1.367 . S
C399 C398 1.367 . S
C399 C401 1.433 . S
C400 C396 1.350 . S
C400 C397 1.463 . S
C400 N404 1.427 . S
C401 H391 0.929 . S
C401 C399 1.433 . S
C401 N404 1.384 . S
C402 H393 0.929 . S
C402 C394 1.378 . S
C402 C397 1.350 . S
C403 H390 0.929 . S
C403 C395 1.433 . S
C403 N405 1.384 . S
N404 C400 1.427 . S
N404 C401 1.384 . S
N405 C397 1.427 . S
N405 C403 1.384 . S
H406 C412 0.930 . S
H407 C416 0.930 . S
H408 C421 0.929 . S
H409 C419 0.929 . S
H410 C414 0.929 . S
H411 C420 0.929 . S
C412 H406 0.930 . S
C412 C413 1.367 . S
C412 C420 1.378 . S
C413 C412 1.367 . S
C413 C421 1.433 . S
C414 H410 0.929 . S
C414 C416 1.378 . S
C414 C418 1.350 . S
C415 C418 1.463 1_565 S
C415 C420 1.350 . S
C415 N423 1.427 . S
C416 H407 0.930 . S
C416 C414 1.378 . S
C416 C417 1.367 . S
C417 C416 1.367 . S
C417 C419 1.433 . S
C418 C414 1.350 . S
C418 C415 1.463 1_545 S
C418 N422 1.427 . S
C419 H409 0.929 . S
C419 C417 1.433 . S
C419 N422 1.384 . S
C420 H411 0.929 . S
C420 C412 1.378 . S
C420 C415 1.350 . S
C421 H408 0.929 . S
C421 C413 1.433 . S
C421 N423 1.384 . S
N422 C418 1.427 . S
N422 C419 1.384 . S
N423 C415 1.427 . S
N423 C421 1.384 . S
H424 C430 0.930 . S
H425 C434 0.930 . S
H426 C439 0.929 . S
H427 C437 0.929 . S
H428 C432 0.929 . S
H429 C438 0.929 . S
C430 H424 0.930 . S
C430 C431 1.367 . S
C430 C438 1.378 . S
C431 C430 1.367 . S
C431 C439 1.433 . S
C432 H428 0.929 . S
C432 C434 1.378 . S
C432 C436 1.350 . S
C433 C436 1.463 1_455 S
C433 C438 1.350 . S
C433 N441 1.428 1_455 S
C434 H425 0.930 . S
C434 C432 1.378 . S
C434 C435 1.367 . S
C435 C434 1.367 . S
C435 C437 1.433 . S
C436 C432 1.350 . S
C436 C433 1.463 1_655 S
C436 N440 1.428 1_655 S
C437 H427 0.929 . S
C437 C435 1.433 . S
C437 N440 1.386 1_655 S
C438 H429 0.929 . S
C438 C430 1.378 . S
C438 C433 1.350 . S
C439 H426 0.929 . S
C439 C431 1.433 . S
C439 N441 1.386 1_455 S
N440 C436 1.428 1_455 S
N440 C437 1.386 1_455 S
N441 C433 1.428 1_655 S
N441 C439 1.386 1_655 S
H442 C448 0.930 . S
H443 C452 0.930 . S
H444 C457 0.929 . S
H445 C455 0.929 . S
H446 C450 0.929 . S
H447 C456 0.929 . S
C448 H442 0.930 . S
C448 C449 1.367 . S
C448 C456 1.378 . S
C449 C448 1.367 . S
C449 C457 1.433 . S
C450 H446 0.929 . S
C450 C452 1.378 . S
C450 C454 1.350 . S
C451 C454 1.463 . S
C451 C456 1.350 . S
C451 N459 1.427 . S
C452 H443 0.930 . S
C452 C450 1.378 . S
C452 C453 1.367 . S
C453 C452 1.367 . S
C453 C455 1.433 . S
C454 C450 1.350 . S
C454 C451 1.463 . S
C454 N458 1.427 . S
C455 H445 0.929 . S
C455 C453 1.433 . S
C455 N458 1.384 . S
C456 H447 0.929 . S
C456 C448 1.378 . S
C456 C451 1.350 . S
C457 H444 0.929 . S
C457 C449 1.433 . S
C457 N459 1.384 . S
N458 C454 1.427 . S
N458 C455 1.384 . S
N459 C451 1.427 . S
N459 C457 1.384 . S
H460 C466 0.930 . S
H461 C470 0.930 . S
H462 C475 0.929 . S
H463 C473 0.929 . S
H464 C468 0.929 . S
H465 C474 0.929 . S
C466 H460 0.930 . S
C466 C467 1.367 . S
C466 C474 1.378 . S
C467 C466 1.367 . S
C467 C475 1.433 . S
C468 H464 0.929 . S
C468 C470 1.378 . S
C468 C472 1.350 . S
C469 C472 1.463 1_545 S
C469 C474 1.350 . S
C469 N477 1.427 . S
C470 H461 0.930 . S
C470 C468 1.378 . S
C470 C471 1.367 . S
C471 C470 1.367 . S
C471 C473 1.433 . S
C472 C468 1.350 . S
C472 C469 1.463 1_565 S
C472 N476 1.427 . S
C473 H463 0.929 . S
C473 C471 1.433 . S
C473 N476 1.384 . S
C474 H465 0.929 . S
C474 C466 1.378 . S
C474 C469 1.350 . S
C475 H462 0.929 . S
C475 C467 1.433 . S
C475 N477 1.384 . S
N476 C472 1.427 . S
N476 C473 1.384 . S
N477 C469 1.427 . S
N477 C475 1.384 . S
H478 C484 0.930 . S
H479 C488 0.930 . S
H480 C493 0.929 . S
H481 C491 0.929 . S
H482 C486 0.929 . S
H483 C492 0.929 . S
C484 H478 0.930 . S
C484 C485 1.367 . S
C484 C492 1.378 . S
C485 C484 1.367 . S
C485 C493 1.433 . S
C486 H482 0.929 . S
C486 C488 1.378 . S
C486 C490 1.350 . S
C487 C490 1.463 1_445 S
C487 C492 1.350 . S
C487 N495 1.427 . S
C488 H479 0.930 . S
C488 C486 1.378 . S
C488 C489 1.367 . S
C489 C488 1.367 . S
C489 C491 1.433 . S
C490 C486 1.350 . S
C490 C487 1.463 1_665 S
C490 N494 1.427 . S
C491 H481 0.929 . S
C491 C489 1.433 . S
C491 N494 1.384 . S
C492 H483 0.929 . S
C492 C484 1.378 . S
C492 C487 1.350 . S
C493 H480 0.929 . S
C493 C485 1.433 . S
C493 N495 1.384 . S
N494 C490 1.427 . S
N494 C491 1.384 . S
N495 C487 1.427 . S
N495 C493 1.384 . S
H496 C502 0.930 . S
H497 C506 0.930 . S
H498 C511 0.929 . S
H499 C509 0.929 . S
H500 C504 0.929 . S
H501 C510 0.929 . S
C502 H496 0.930 . S
C502 C503 1.367 . S
C502 C510 1.378 . S
C503 C502 1.367 . S
C503 C511 1.433 . S
C504 H500 0.929 . S
C504 C506 1.378 . S
C504 C508 1.350 . S
C505 C508 1.463 . S
C505 C510 1.350 . S
C505 N513 1.427 . S
C506 H497 0.930 . S
C506 C504 1.378 . S
C506 C507 1.367 . S
C507 C506 1.367 . S
C507 C509 1.433 . S
C508 C504 1.350 . S
C508 C505 1.463 . S
C508 N512 1.427 . S
C509 H499 0.929 . S
C509 C507 1.433 . S
C509 N512 1.384 . S
C510 H501 0.929 . S
C510 C502 1.378 . S
C510 C505 1.350 . S
C511 H498 0.929 . S
C511 C503 1.433 . S
C511 N513 1.384 . S
N512 C508 1.427 . S
N512 C509 1.384 . S
N513 C505 1.427 . S
N513 C511 1.384 . S
H514 C520 0.930 . S
H515 C524 0.930 . S
H516 C529 0.929 . S
H517 C527 0.929 . S
H518 C522 0.929 . S
H519 C528 0.929 . S
C520 H514 0.930 . S
C520 C521 1.367 . S
C520 C528 1.378 . S
C521 C520 1.367 . S
C521 C529 1.433 . S
C522 H518 0.929 . S
C522 C524 1.378 . S
C522 C526 1.350 . S
C523 C526 1.463 . S
C523 C528 1.350 . S
C523 N531 1.427 . S
C524 H515 0.930 . S
C524 C522 1.378 . S
C524 C525 1.367 . S
C525 C524 1.367 . S
C525 C527 1.433 . S
C526 C522 1.350 . S
C526 C523 1.463 . S
C526 N530 1.427 . S
C527 H517 0.929 . S
C527 C525 1.433 . S
C527 N530 1.384 . S
C528 H519 0.929 . S
C528 C520 1.378 . S
C528 C523 1.350 . S
C529 H516 0.929 . S
C529 C521 1.433 . S
C529 N531 1.384 . S
N530 C526 1.427 . S
N530 C527 1.384 . S
N531 C523 1.427 . S
N531 C529 1.384 . S
H532 C538 0.930 . S
H533 C542 0.930 . S
H534 C547 0.929 . S
H535 C545 0.929 . S
H536 C540 0.929 1_554 S
H537 C546 0.929 . S
C538 H532 0.930 . S
C538 C539 1.367 . S
C538 C546 1.378 . S
C539 C538 1.367 . S
C539 C547 1.433 . S
C540 H536 0.929 1_556 S
C540 C542 1.378 . S
C540 C544 1.350 1_556 S
C541 C544 1.463 . S
C541 C546 1.350 . S
C541 N549 1.427 . S
C542 H533 0.930 . S
C542 C540 1.378 . S
C542 C543 1.367 . S
C543 C542 1.367 . S
C543 C545 1.433 . S
C544 C540 1.350 1_554 S
C544 C541 1.463 . S
C544 N548 1.427 . S
C545 H535 0.929 . S
C545 C543 1.433 . S
C545 N548 1.384 1_556 S
C546 H537 0.929 . S
C546 C538 1.378 . S
C546 C541 1.350 . S
C547 H534 0.929 . S
C547 C539 1.433 . S
C547 N549 1.384 . S
N548 C544 1.427 . S
N548 C545 1.384 1_554 S
N549 C541 1.427 . S
N549 C547 1.384 . S
H550 C556 0.930 . S
H551 C560 0.930 . S
H552 C565 0.929 . S
H553 C563 0.929 . S
H554 C558 0.929 . S
H555 C564 0.929 . S
C556 H550 0.930 . S
C556 C557 1.367 . S
C556 C564 1.378 . S
C557 C556 1.367 . S
C557 C565 1.433 . S
C558 H554 0.929 . S
C558 C560 1.378 . S
C558 C562 1.350 . S
C559 C562 1.463 . S
C559 C564 1.350 . S
C559 N567 1.427 . S
C560 H551 0.930 . S
C560 C558 1.378 . S
C560 C561 1.367 . S
C561 C560 1.367 . S
C561 C563 1.433 . S
C562 C558 1.350 . S
C562 C559 1.463 . S
C562 N566 1.427 . S
C563 H553 0.929 . S
C563 C561 1.433 . S
C563 N566 1.384 . S
C564 H555 0.929 . S
C564 C556 1.378 . S
C564 C559 1.350 . S
C565 H552 0.929 . S
C565 C557 1.433 . S
C565 N567 1.384 . S
N566 C562 1.427 . S
N566 C563 1.384 . S
N567 C559 1.427 . S
N567 C565 1.384 . S
H568 C574 0.930 . S
H569 C578 0.930 . S
H570 C583 0.929 . S
H571 C581 0.929 . S
H572 C576 0.929 . S
H573 C582 0.929 . S
C574 H568 0.930 . S
C574 C575 1.367 . S
C574 C582 1.378 . S
C575 C574 1.367 . S
C575 C583 1.433 . S
C576 H572 0.929 . S
C576 C578 1.378 . S
C576 C580 1.350 . S
C577 C580 1.463 . S
C577 C582 1.350 . S
C577 N585 1.427 . S
C578 H569 0.930 . S
C578 C576 1.378 . S
C578 C579 1.367 . S
C579 C578 1.367 . S
C579 C581 1.433 . S
C580 C576 1.350 . S
C580 C577 1.463 . S
C580 N584 1.427 . S
C581 H571 0.929 . S
C581 C579 1.433 . S
C581 N584 1.384 . S
C582 H573 0.929 . S
C582 C574 1.378 . S
C582 C577 1.350 . S
C583 H570 0.929 . S
C583 C575 1.433 . S
C583 N585 1.384 . S
N584 C580 1.427 . S
N584 C581 1.384 . S
N585 C577 1.427 . S
N585 C583 1.384 . S
H586 C592 0.930 . S
H587 C596 0.930 . S
H588 C601 0.929 . S
H589 C599 0.929 . S
H590 C594 0.929 . S
H591 C600 0.929 . S
C592 H586 0.930 . S
C592 C593 1.367 . S
C592 C600 1.378 . S
C593 C592 1.367 . S
C593 C601 1.433 . S
C594 H590 0.929 . S
C594 C596 1.378 1_554 S
C594 C598 1.350 . S
C595 C598 1.463 . S
C595 C600 1.350 . S
C595 N603 1.427 . S
C596 H587 0.930 . S
C596 C594 1.378 1_556 S
C596 C597 1.367 . S
C597 C596 1.367 . S
C597 C599 1.433 . S
C598 C594 1.350 . S
C598 C595 1.463 . S
C598 N602 1.427 . S
C599 H589 0.929 . S
C599 C597 1.433 . S
C599 N602 1.384 1_556 S
C600 H591 0.929 . S
C600 C592 1.378 . S
C600 C595 1.350 . S
C601 H588 0.929 . S
C601 C593 1.433 . S
C601 N603 1.384 . S
N602 C598 1.427 . S
N602 C599 1.384 1_554 S
N603 C595 1.427 . S
N603 C601 1.384 . S
H604 C610 0.930 . S
H605 C614 0.930 . S
H606 C619 0.929 . S
H607 C617 0.929 . S
H608 C612 0.929 . S
H609 C618 0.929 . S
C610 H604 0.930 . S
C610 C611 1.367 . S
C610 C618 1.378 . S
C611 C610 1.367 . S
C611 C619 1.433 . S
C612 H608 0.929 . S
C612 C614 1.378 . S
C612 C616 1.350 . S
C613 C616 1.463 . S
C613 C618 1.350 . S
C613 N621 1.427 . S
C614 H605 0.930 . S
C614 C612 1.378 . S
C614 C615 1.367 . S
C615 C614 1.367 . S
C615 C617 1.433 . S
C616 C612 1.350 . S
C616 C613 1.463 . S
C616 N620 1.427 . S
C617 H607 0.929 . S
C617 C615 1.433 . S
C617 N620 1.384 . S
C618 H609 0.929 . S
C618 C610 1.378 . S
C618 C613 1.350 . S
C619 H606 0.929 . S
C619 C611 1.433 . S
C619 N621 1.384 . S
N620 C616 1.427 . S
N620 C617 1.384 . S
N621 C613 1.427 . S
N621 C619 1.384 . S
H622 C628 0.930 . S
H623 C632 0.930 . S
H624 C637 0.929 . S
H625 C635 0.929 . S
H626 C630 0.929 . S
H627 C636 0.929 . S
C628 H622 0.930 . S
C628 C629 1.367 . S
C628 C636 1.378 . S
C629 C628 1.367 . S
C629 C637 1.433 . S
C630 H626 0.929 . S
C630 C632 1.378 . S
C630 C634 1.350 . S
C631 C634 1.463 . S
C631 C636 1.350 . S
C631 N639 1.427 . S
C632 H623 0.930 . S
C632 C630 1.378 . S
C632 C633 1.367 . S
C633 C632 1.367 . S
C633 C635 1.433 . S
C634 C630 1.350 . S
C634 C631 1.463 . S
C634 N638 1.427 . S
C635 H625 0.929 . S
C635 C633 1.433 . S
C635 N638 1.384 . S
C636 H627 0.929 . S
C636 C628 1.378 . S
C636 C631 1.350 . S
C637 H624 0.929 . S
C637 C629 1.433 . S
C637 N639 1.384 . S
N638 C634 1.427 . S
N638 C635 1.384 . S
N639 C631 1.427 . S
N639 C637 1.384 . S
H640 C646 0.930 . S
H641 C650 0.930 . S
H642 C655 0.929 . S
H643 C653 0.929 . S
H644 C648 0.929 . S
H645 C654 0.929 . S
C646 H640 0.930 . S
C646 C647 1.367 . S
C646 C654 1.378 1_556 S
C647 C646 1.367 . S
C647 C655 1.433 . S
C648 H644 0.929 . S
C648 C650 1.378 . S
C648 C652 1.350 . S
C649 C652 1.463 . S
C649 C654 1.350 . S
C649 N657 1.427 . S
C650 H641 0.930 . S
C650 C648 1.378 . S
C650 C651 1.367 . S
C651 C650 1.367 . S
C651 C653 1.433 . S
C652 C648 1.350 . S
C652 C649 1.463 . S
C652 N656 1.427 . S
C653 H643 0.929 . S
C653 C651 1.433 . S
C653 N656 1.384 . S
C654 H645 0.929 . S
C654 C646 1.378 1_554 S
C654 C649 1.350 . S
C655 H642 0.929 . S
C655 C647 1.433 . S
C655 N657 1.384 1_556 S
N656 C652 1.427 . S
N656 C653 1.384 . S
N657 C649 1.427 . S
N657 C655 1.384 1_554 S
H658 C664 0.930 . S
H659 C668 0.930 . S
H660 C673 0.929 . S
H661 C671 0.929 . S
H662 C666 0.929 . S
H663 C672 0.929 . S
C664 H658 0.930 . S
C664 C665 1.367 . S
C664 C672 1.378 . S
C665 C664 1.367 . S
C665 C673 1.433 . S
C666 H662 0.929 . S
C666 C668 1.378 . S
C666 C670 1.350 . S
C667 C670 1.463 . S
C667 C672 1.350 . S
C667 N675 1.427 . S
C668 H659 0.930 . S
C668 C666 1.378 . S
C668 C669 1.367 . S
C669 C668 1.367 . S
C669 C671 1.433 . S
C670 C666 1.350 . S
C670 C667 1.463 . S
C670 N674 1.427 . S
C671 H661 0.929 . S
C671 C669 1.433 . S
C671 N674 1.384 . S
C672 H663 0.929 . S
C672 C664 1.378 . S
C672 C667 1.350 . S
C673 H660 0.929 . S
C673 C665 1.433 . S
C673 N675 1.384 . S
N674 C670 1.427 . S
N674 C671 1.384 . S
N675 C667 1.427 . S
N675 C673 1.384 . S
H676 C682 0.930 . S
H677 C686 0.930 . S
H678 C691 0.929 . S
H679 C689 0.929 . S
H680 C684 0.929 . S
H681 C690 0.929 . S
C682 H676 0.930 . S
C682 C683 1.367 . S
C682 C690 1.378 . S
C683 C682 1.367 . S
C683 C691 1.433 . S
C684 H680 0.929 . S
C684 C686 1.378 . S
C684 C688 1.350 . S
C685 C688 1.463 . S
C685 C690 1.350 . S
C685 N693 1.427 . S
C686 H677 0.930 . S
C686 C684 1.378 . S
C686 C687 1.367 . S
C687 C686 1.367 . S
C687 C689 1.433 . S
C688 C684 1.350 . S
C688 C685 1.463 . S
C688 N692 1.427 . S
C689 H679 0.929 . S
C689 C687 1.433 . S
C689 N692 1.384 . S
C690 H681 0.929 . S
C690 C682 1.378 . S
C690 C685 1.350 . S
C691 H678 0.929 . S
C691 C683 1.433 . S
C691 N693 1.384 . S
N692 C688 1.427 . S
N692 C689 1.384 . S
N693 C685 1.427 . S
N693 C691 1.384 . S
H694 C700 0.930 . S
H695 C704 0.930 . S
H696 C709 0.929 . S
H697 C707 0.929 . S
H698 C702 0.929 . S
H699 C708 0.929 . S
C700 H694 0.930 . S
C700 C701 1.367 . S
C700 C708 1.378 . S
C701 C700 1.367 . S
C701 C709 1.433 . S
C702 H698 0.929 . S
C702 C704 1.378 . S
C702 C706 1.350 . S
C703 C706 1.463 . S
C703 C708 1.350 . S
C703 N711 1.427 . S
C704 H695 0.930 . S
C704 C702 1.378 . S
C704 C705 1.367 . S
C705 C704 1.367 . S
C705 C707 1.433 . S
C706 C702 1.350 . S
C706 C703 1.463 . S
C706 N710 1.427 . S
C707 H697 0.929 . S
C707 C705 1.433 . S
C707 N710 1.384 . S
C708 H699 0.929 . S
C708 C700 1.378 . S
C708 C703 1.350 . S
C709 H696 0.929 . S
C709 C701 1.433 . S
C709 N711 1.384 . S
N710 C706 1.427 . S
N710 C707 1.384 . S
N711 C703 1.427 . S
N711 C709 1.384 . S
H712 C718 0.930 . S
H713 C722 0.930 . S
H714 C727 0.929 . S
H715 C725 0.929 . S
H716 C720 0.929 . S
H717 C726 0.929 . S
C718 H712 0.930 . S
C718 C719 1.367 . S
C718 C726 1.378 . S
C719 C718 1.367 . S
C719 C727 1.433 . S
C720 H716 0.929 . S
C720 C722 1.378 . S
C720 C724 1.350 . S
C721 C724 1.463 . S
C721 C726 1.350 . S
C721 N729 1.427 . S
C722 H713 0.930 . S
C722 C720 1.378 . S
C722 C723 1.367 . S
C723 C722 1.367 . S
C723 C725 1.433 . S
C724 C720 1.350 . S
C724 C721 1.463 . S
C724 N728 1.427 . S
C725 H715 0.929 . S
C725 C723 1.433 . S
C725 N728 1.384 . S
C726 H717 0.929 . S
C726 C718 1.378 . S
C726 C721 1.350 . S
C727 H714 0.929 . S
C727 C719 1.433 . S
C727 N729 1.384 . S
N728 C724 1.427 . S
N728 C725 1.384 . S
N729 C721 1.427 . S
N729 C727 1.384 . S
H730 C736 0.930 . S
H731 C740 0.930 . S
H732 C745 0.929 . S
H733 C743 0.929 . S
H734 C738 0.929 . S
H735 C744 0.929 . S
C736 H730 0.930 . S
C736 C737 1.367 . S
C736 C744 1.378 . S
C737 C736 1.367 . S
C737 C745 1.433 . S
C738 H734 0.929 . S
C738 C740 1.378 . S
C738 C742 1.350 . S
C739 C742 1.463 . S
C739 C744 1.350 . S
C739 N747 1.427 . S
C740 H731 0.930 . S
C740 C738 1.378 . S
C740 C741 1.367 . S
C741 C740 1.367 . S
C741 C743 1.433 . S
C742 C738 1.350 . S
C742 C739 1.463 . S
C742 N746 1.427 . S
C743 H733 0.929 . S
C743 C741 1.433 . S
C743 N746 1.384 . S
C744 H735 0.929 . S
C744 C736 1.378 . S
C744 C739 1.350 . S
C745 H732 0.929 . S
C745 C737 1.433 . S
C745 N747 1.384 . S
N746 C742 1.427 . S
N746 C743 1.384 . S
N747 C739 1.427 . S
N747 C745 1.384 . S
H748 C754 0.930 . S
H749 C758 0.930 . S
H750 C763 0.929 . S
H751 C761 0.929 . S
H752 C756 0.929 . S
H753 C762 0.929 . S
C754 H748 0.930 . S
C754 C755 1.367 . S
C754 C762 1.378 . S
C755 C754 1.367 . S
C755 C763 1.433 . S
C756 H752 0.929 . S
C756 C758 1.378 . S
C756 C760 1.350 . S
C757 C760 1.463 . S
C757 C762 1.350 . S
C757 N765 1.427 . S
C758 H749 0.930 . S
C758 C756 1.378 . S
C758 C759 1.367 . S
C759 C758 1.367 . S
C759 C761 1.433 . S
C760 C756 1.350 . S
C760 C757 1.463 . S
C760 N764 1.427 . S
C761 H751 0.929 . S
C761 C759 1.433 . S
C761 N764 1.384 . S
C762 H753 0.929 . S
C762 C754 1.378 . S
C762 C757 1.350 . S
C763 H750 0.929 . S
C763 C755 1.433 . S
C763 N765 1.384 . S
N764 C760 1.427 . S
N764 C761 1.384 . S
N765 C757 1.427 . S
N765 C763 1.384 . S
H766 C772 0.930 . S
H767 C776 0.930 . S
H768 C781 0.929 . S
H769 C779 0.929 . S
H770 C774 0.929 . S
H771 C780 0.929 . S
C772 H766 0.930 . S
C772 C773 1.367 . S
C772 C780 1.378 . S
C773 C772 1.367 . S
C773 C781 1.433 . S
C774 H770 0.929 . S
C774 C776 1.378 1_554 S
C774 C778 1.350 . S
C775 C778 1.463 . S
C775 C780 1.350 . S
C775 N783 1.427 . S
C776 H767 0.930 . S
C776 C774 1.378 1_556 S
C776 C777 1.367 . S
C777 C776 1.367 . S
C777 C779 1.433 . S
C778 C774 1.350 . S
C778 C775 1.463 . S
C778 N782 1.427 1_554 S
C779 H769 0.929 . S
C779 C777 1.433 . S
C779 N782 1.384 . S
C780 H771 0.929 . S
C780 C772 1.378 . S
C780 C775 1.350 . S
C781 H768 0.929 . S
C781 C773 1.433 . S
C781 N783 1.384 . S
N782 C778 1.427 1_556 S
N782 C779 1.384 . S
N783 C775 1.427 . S
N783 C781 1.384 . S
C215 C83 2.066 . S
C219 C5 2.076 . S
C233 C96 2.076 . S
C237 C18 2.068 . S
C251 C31 2.066 . S
C255 C57 2.076 1_556 S
C269 C44 2.074 . S
C273 C70 2.072 . S
C287 C109 2.075 . S
C291 C187 2.070 1_556 S
C305 C200 2.066 . S
C309 C122 2.068 . S
C323 C135 2.069 . S
C327 C161 2.065 . S
C341 C148 2.076 . S
C345 C174 2.068 . S
C359 C10 1.974 . S
C363 C140 1.978 . S
C377 C23 1.984 . S
C381 C153 1.984 . S
C395 C36 1.969 . S
C399 C114 1.970 . S
C413 C49 1.972 . S
C417 C127 1.970 . S
C431 C62 1.971 . S
C435 C192 1.969 . S
C449 C205 1.978 . S
C453 C75 1.982 . S
C467 C88 1.974 . S
C471 C166 1.978 . S
C485 C179 1.980 . S
C489 C101 1.977 . S
C503 C170 0.443 . S
C507 C1 0.449 . S
C521 C14 0.449 . S
C525 C183 0.443 . S
C539 C196 0.445 . S
C543 C27 0.444 . S
C557 C157 0.446 . S
C561 C40 0.449 . S
C575 C144 0.449 . S
C579 C53 0.443 . S
C593 C66 0.442 . S
C597 C105 0.448 . S
C611 C79 0.446 . S
C615 C118 0.448 . S
C629 C92 0.445 . S
C633 C131 0.448 . S
C647 C172 1.844 . S
C651 C3 1.847 . S
C665 C16 1.845 . S
C669 C185 1.846 . S
C683 C29 1.847 . S
C687 C198 1.844 . S
C701 C159 1.846 . S
C705 C42 1.844 . S
C719 C146 1.847 . S
C723 C55 1.847 . S
C737 C107 1.845 . S
C741 C68 1.844 . S
C755 C81 1.848 . S
C759 C120 1.845 . S
C773 C133 1.846 . S
C777 C94 1.847 . S
