# Generated by pormake.
# Topology fna, (5)-cn, num edge types: 1
# Building blocks:
#     Node 0, Type 0, BuildingBlock: BEQFEK_clean_sbu_0, # of connection points: 5
#     Node 1, Type 0, BuildingBlock: BEQFEK_clean_sbu_0, # of connection points: 5
#     Node 2, Type 0, BuildingBlock: BEQFEK_clean_sbu_0, # of connection points: 5
#     Node 3, Type 0, BuildingBlock: BEQFEK_clean_sbu_0, # of connection points: 5
#     Node 4, Type 0, BuildingBlock: BEQFEK_clean_sbu_0, # of connection points: 5
#     Node 5, Type 0, BuildingBlock: BEQFEK_clean_sbu_0, # of connection points: 5
#     Node 6, Type 0, BuildingBlock: BEQFEK_clean_sbu_0, # of connection points: 5
#     Node 7, Type 0, BuildingBlock: BEQFEK_clean_sbu_0, # of connection points: 5
#     Node 8, Type 0, BuildingBlock: BEQFEK_clean_sbu_0, # of connection points: 5
#     Node 9, Type 0, BuildingBlock: BEQFEK_clean_sbu_0, # of connection points: 5
#     Node 10, Type 0, BuildingBlock: BEQFEK_clean_sbu_0, # of connection points: 5
#     Node 11, Type 0, BuildingBlock: BEQFEK_clean_sbu_0, # of connection points: 5
#     Edge 12, Type (0, 0), BuildingBlock: EYOCIG_clean_linker_4, # of connection points: 2
#     Edge 13, Type (0, 0), BuildingBlock: EYOCIG_clean_linker_4, # of connection points: 2
#     Edge 14, Type (0, 0), BuildingBlock: EYOCIG_clean_linker_4, # of connection points: 2
#     Edge 15, Type (0, 0), BuildingBlock: EYOCIG_clean_linker_4, # of connection points: 2
#     Edge 16, Type (0, 0), BuildingBlock: EYOCIG_clean_linker_4, # of connection points: 2
#     Edge 17, Type (0, 0), BuildingBlock: EYOCIG_clean_linker_4, # of connection points: 2
#     Edge 18, Type (0, 0), BuildingBlock: EYOCIG_clean_linker_4, # of connection points: 2
#     Edge 19, Type (0, 0), BuildingBlock: EYOCIG_clean_linker_4, # of connection points: 2
#     Edge 20, Type (0, 0), BuildingBlock: EYOCIG_clean_linker_4, # of connection points: 2
#     Edge 21, Type (0, 0), BuildingBlock: EYOCIG_clean_linker_4, # of connection points: 2
#     Edge 22, Type (0, 0), BuildingBlock: EYOCIG_clean_linker_4, # of connection points: 2
#     Edge 23, Type (0, 0), BuildingBlock: EYOCIG_clean_linker_4, # of connection points: 2
#     Edge 24, Type (0, 0), BuildingBlock: EYOCIG_clean_linker_4, # of connection points: 2
#     Edge 25, Type (0, 0), BuildingBlock: EYOCIG_clean_linker_4, # of connection points: 2
#     Edge 26, Type (0, 0), BuildingBlock: EYOCIG_clean_linker_4, # of connection points: 2
#     Edge 27, Type (0, 0), BuildingBlock: EYOCIG_clean_linker_4, # of connection points: 2
#     Edge 28, Type (0, 0), BuildingBlock: EYOCIG_clean_linker_4, # of connection points: 2
#     Edge 29, Type (0, 0), BuildingBlock: EYOCIG_clean_linker_4, # of connection points: 2
#     Edge 30, Type (0, 0), BuildingBlock: EYOCIG_clean_linker_4, # of connection points: 2
#     Edge 31, Type (0, 0), BuildingBlock: EYOCIG_clean_linker_4, # of connection points: 2
#     Edge 32, Type (0, 0), BuildingBlock: EYOCIG_clean_linker_4, # of connection points: 2
#     Edge 33, Type (0, 0), BuildingBlock: EYOCIG_clean_linker_4, # of connection points: 2
#     Edge 34, Type (0, 0), BuildingBlock: EYOCIG_clean_linker_4, # of connection points: 2
#     Edge 35, Type (0, 0), BuildingBlock: EYOCIG_clean_linker_4, # of connection points: 2
#     Edge 36, Type (0, 0), BuildingBlock: EYOCIG_clean_linker_4, # of connection points: 2
#     Edge 37, Type (0, 0), BuildingBlock: EYOCIG_clean_linker_4, # of connection points: 2
#     Edge 38, Type (0, 0), BuildingBlock: EYOCIG_clean_linker_4, # of connection points: 2
#     Edge 39, Type (0, 0), BuildingBlock: EYOCIG_clean_linker_4, # of connection points: 2
#     Edge 40, Type (0, 0), BuildingBlock: EYOCIG_clean_linker_4, # of connection points: 2
#     Edge 41, Type (0, 0), BuildingBlock: EYOCIG_clean_linker_4, # of connection points: 2
# Relax obj value: 0.684
# Max RMSD: 0.273
# Mean RMSD: 0.273
data_MOF--net-fna--node1-BEQFEK_clean_sbu_0--edge1-EYOCIG_clean_linker_4
_symmetry_space_group_name_H-M    P1
_symmetry_Int_Tables_number       1
_symmetry_cell_setting            triclinic
loop_
_symmetry_equiv_pos_as_xyz
'x, y, z'
_cell_length_a     36.11628
_cell_length_b     36.123815
_cell_length_c     33.534396
_cell_angle_alpha  90.003339
_cell_angle_beta   90.031456
_cell_angle_gamma 119.98277
loop_
_atom_site_label
_atom_site_type_symbol
_atom_site_fract_x
_atom_site_fract_y
_atom_site_fract_z
_atom_type_partial_charge
Co0 Co 0.36502 0.36816 0.49794 0.0
Co1 Co 0.34476 0.31661 0.41782 0.0
C2 C 0.42392 0.40183 0.42839 0.0
O3 O 0.4124 0.40514 0.46319 0.0
O4 O 0.40146 0.36928 0.40652 0.0
C5 C 0.41937 0.41522 0.56238 0.0
O6 O 0.45019 0.42258 0.53734 0.0
C7 C 0.3552 0.26235 0.35855 0.0
C8 C 0.29105 0.22792 0.33113 0.0
C9 C 0.3305 0.23043 0.33155 0.0
N10 N 0.33122 0.27778 0.37398 0.0
N11 N 0.29315 0.2576 0.35684 0.0
C12 C 0.39985 0.27595 0.37149 0.0
H13 H 0.40716 0.29318 0.4004 0.0
H14 H 0.40445 0.24786 0.37391 0.0
H15 H 0.42245 0.29772 0.34864 0.0
C16 C 0.35655 0.28872 0.53035 0.0
N17 N 0.35732 0.31263 0.49925 0.0
N18 N 0.34742 0.2897 0.4663 0.0
C19 C 0.3393 0.24993 0.4759 0.0
C20 C 0.34534 0.24853 0.51656 0.0
C21 C 0.36444 0.3035 0.57281 0.0
H22 H 0.34362 0.31681 0.5808 0.0
H23 H 0.39821 0.32913 0.57617 0.0
H24 H 0.3581 0.2771 0.59364 0.0
O25 O 0.31132 0.36498 0.48108 0.0
O26 O 0.2972 0.33015 0.42317 0.0
H27 H 0.30028 0.21388 0.42632 0.0
H28 H 0.30743 0.18215 0.46395 0.0
C29 C 0.32326 0.21302 0.44766 0.0
H30 H 0.35058 0.21496 0.43088 0.0
H31 H 0.26796 0.26272 0.36402 0.0
O32 O 0.38053 0.39334 0.55168 0.0
C33 C 0.28795 0.34886 0.45042 0.0
Co34 Co 1.00003 0.36574 0.66449 0.0
Co35 Co 0.03123 0.34555 0.5843 0.0
C36 C 0.02523 0.42473 0.59499 0.0
O37 O 0.01042 0.41317 0.62979 0.0
O38 O 0.0353 0.40228 0.57308 0.0
C39 C 0.00752 0.42009 0.72894 0.0
O40 O 0.03109 0.45086 0.70393 0.0
C41 C 0.09591 0.35604 0.52502 0.0
C42 C 0.06618 0.29198 0.49748 0.0
C43 C 0.10314 0.3314 0.49797 0.0
N44 N 0.0565 0.33206 0.54042 0.0
N45 N 0.0386 0.29405 0.5232 0.0
C46 C 0.12695 0.40064 0.53806 0.0
H47 H 0.11704 0.40788 0.567 0.0
H48 H 0.15964 0.4052 0.54046 0.0
H49 H 0.1278 0.42331 0.51527 0.0
C50 C 0.07099 0.35715 0.69681 0.0
N51 N 0.04783 0.35797 0.66573 0.0
N52 N 0.06081 0.34808 0.63276 0.0
C53 C 0.09246 0.33992 0.64232 0.0
C54 C 0.09995 0.34593 0.68296 0.0
C55 C 0.06417 0.36502 0.73928 0.0
H56 H 0.03004 0.34427 0.74728 0.0
H57 H 0.07239 0.39882 0.74268 0.0
H58 H 0.08421 0.3586 0.76008 0.0
O59 O 0.94948 0.31211 0.64759 0.0
O60 O 0.97013 0.29804 0.58964 0.0
H61 H 0.08944 0.30098 0.59266 0.0
H62 H 0.12829 0.30797 0.63029 0.0
C63 C 0.11329 0.32388 0.61403 0.0
H64 H 0.1387 0.35121 0.5973 0.0
H65 H 0.00828 0.26886 0.53033 0.0
O66 O 0.99042 0.38125 0.71824 0.0
C67 C 0.94219 0.28879 0.6169 0.0
Co68 Co 0.63746 1.00096 0.83099 0.0
Co69 Co 0.68886 0.03223 0.75082 0.0
C70 C 0.60365 0.02617 0.76147 0.0
O71 O 0.60042 0.01135 0.79626 0.0
O72 O 0.63616 0.03627 0.73957 0.0
C73 C 0.59049 0.0083 0.8954 0.0
O74 O 0.58316 0.03179 0.87036 0.0
C75 C 0.74297 0.09688 0.6915 0.0
C76 C 0.77746 0.06723 0.66412 0.0
C77 C 0.77488 0.10413 0.6645 0.0
N78 N 0.72762 0.05751 0.70696 0.0
N79 N 0.74783 0.03966 0.68984 0.0
C80 C 0.7293 0.12788 0.70442 0.0
H81 H 0.71216 0.118 0.73336 0.0
H82 H 0.75736 0.16059 0.70677 0.0
H83 H 0.70743 0.12861 0.68159 0.0
C84 C 0.71694 0.07197 0.86333 0.0
N85 N 0.69299 0.04879 0.83225 0.0
N86 N 0.71586 0.06182 0.79929 0.0
C87 C 0.75562 0.09353 0.80886 0.0
C88 C 0.75708 0.101 0.8495 0.0
C89 C 0.70222 0.06513 0.9058 0.0
H90 H 0.68892 0.03101 0.91381 0.0
H91 H 0.67659 0.07328 0.90916 0.0
H92 H 0.72866 0.0852 0.92661 0.0
O93 O 0.64063 0.95046 0.81411 0.0
O94 O 0.67533 0.97115 0.75617 0.0
H95 H 0.79164 0.09065 0.75924 0.0
H96 H 0.82338 0.12957 0.79685 0.0
C97 C 0.79247 0.11446 0.78058 0.0
H98 H 0.79041 0.13978 0.76382 0.0
H99 H 0.74277 0.00937 0.69704 0.0
O100 O 0.61234 0.99131 0.88473 0.0
C101 C 0.65668 0.9432 0.78342 0.0
Co102 Co 0.63977 0.63844 -0.00241 0.0
Co103 Co 0.65988 0.6898 0.91739 0.0
C104 C 0.58069 0.60468 0.92809 0.0
O105 O 0.5923 0.60144 0.96288 0.0
O106 O 0.60311 0.63717 0.90617 0.0
C107 C 0.58545 0.59164 0.06201 0.0
O108 O 0.55467 0.58452 0.03698 0.0
C109 C 0.64938 0.74397 0.85806 0.0
C110 C 0.71347 0.77829 0.8306 0.0
C111 C 0.67404 0.77583 0.83102 0.0
N112 N 0.67336 0.72854 0.87351 0.0
N113 N 0.71139 0.74865 0.85633 0.0
C114 C 0.60477 0.73044 0.87103 0.0
H115 H 0.59752 0.7133 0.89997 0.0
H116 H 0.60019 0.75855 0.87339 0.0
H117 H 0.5821 0.7086 0.84822 0.0
C118 C 0.64841 0.71799 0.0299 0.0
N119 N 0.64756 0.694 -0.00117 0.0
N120 N 0.65739 0.71685 0.96585 0.0
C121 C 0.66553 0.75664 0.9754 0.0
C122 C 0.65958 0.75814 0.01605 0.0
C123 C 0.64059 0.7033 0.07238 0.0
H124 H 0.66133 0.68989 0.08036 0.0
H125 H 0.60679 0.67777 0.07579 0.0
H126 H 0.64708 0.72977 0.09318 0.0
O127 O 0.69339 0.64149 0.9807 0.0
O128 O 0.70738 0.67616 0.92274 0.0
H129 H 0.70439 0.79257 0.92574 0.0
H130 H 0.69737 0.8244 0.96335 0.0
C131 C 0.68148 0.79348 0.9471 0.0
H132 H 0.65411 0.79151 0.93037 0.0
H133 H 0.73659 0.74351 0.86351 0.0
O134 O 0.62429 0.61332 0.05133 0.0
C135 C 0.71667 0.65749 0.95 0.0
Co136 Co 1.00454 0.64065 0.16443 0.0
Co137 Co 0.97328 0.66074 0.08419 0.0
C138 C 0.97936 0.58161 0.09494 0.0
O139 O 0.99417 0.5932 0.12975 0.0
O140 O 0.96926 0.60402 0.073 0.0
C141 C 0.9971 0.58638 0.22892 0.0
O142 O 0.97351 0.55558 0.2039 0.0
C143 C 0.90862 0.65016 0.02477 0.0
C144 C 0.93829 0.71425 -0.00268 0.0
C145 C 0.90138 0.6748 -0.00229 0.0
N146 N 0.948 0.67418 0.04026 0.0
N147 N 0.96587 0.71221 0.0231 0.0
C148 C 0.87761 0.60554 0.03772 0.0
H149 H 0.8875 0.59831 0.06669 0.0
H150 H 0.8449 0.6009 0.04003 0.0
H151 H 0.87687 0.58291 0.01493 0.0
C152 C 0.93352 0.64917 0.19665 0.0
N153 N 0.9567 0.64837 0.16561 0.0
N154 N 0.94367 0.65819 0.13261 0.0
C155 C 0.91196 0.66626 0.14211 0.0
C156 C 0.90449 0.66029 0.18275 0.0
C157 C 0.94038 0.64135 0.23914 0.0
H158 H 0.97451 0.66213 0.24716 0.0
H159 H 0.93217 0.60757 0.24256 0.0
H160 H 0.92034 0.64779 0.25991 0.0
O161 O 0.05505 0.69428 0.14758 0.0
O162 O 0.03437 0.70828 0.08959 0.0
H163 H 0.91485 0.70511 0.09243 0.0
H164 H 0.87594 0.698 0.12999 0.0
C165 C 0.89104 0.68217 0.11377 0.0
H166 H 0.86569 0.65479 0.09701 0.0
H167 H 0.99616 0.73743 0.03031 0.0
O168 O 0.01419 0.62521 0.21821 0.0
C169 C 0.06231 0.71758 0.11688 0.0
Co170 Co 0.36722 0.00533 0.3313 0.0
Co171 Co 0.31572 0.97407 0.25114 0.0
C172 C 0.40098 0.98018 0.26173 0.0
O173 O 0.40425 0.99497 0.29656 0.0
O174 O 0.36843 0.97009 0.23985 0.0
C175 C 0.41427 0.99806 0.39577 0.0
O176 O 0.42168 0.97463 0.37073 0.0
C177 C 0.26155 0.90944 0.19174 0.0
C178 C 0.22701 0.9391 0.16442 0.0
C179 C 0.22961 0.90221 0.16474 0.0
N180 N 0.2769 0.9488 0.20726 0.0
N181 N 0.25666 0.96665 0.19018 0.0
C182 C 0.27525 0.87845 0.2046 0.0
H183 H 0.29244 0.88832 0.23354 0.0
H184 H 0.2472 0.84573 0.20692 0.0
H185 H 0.29709 0.87773 0.18175 0.0
C186 C 0.28779 0.93432 0.36362 0.0
N187 N 0.31169 0.9575 0.33254 0.0
N188 N 0.28879 0.94446 0.29958 0.0
C189 C 0.24904 0.91275 0.30913 0.0
C190 C 0.24763 0.90529 0.34978 0.0
C191 C 0.30255 0.94119 0.40609 0.0
H192 H 0.31583 0.9753 0.41411 0.0
H193 H 0.3282 0.93306 0.40945 0.0
H194 H 0.27614 0.92111 0.42689 0.0
O195 O 0.36401 0.05583 0.31448 0.0
O196 O 0.3292 0.03513 0.25655 0.0
H197 H 0.21294 0.91563 0.25954 0.0
H198 H 0.18126 0.87667 0.2971 0.0
C199 C 0.21216 0.89182 0.28085 0.0
H200 H 0.21422 0.86652 0.26403 0.0
H201 H 0.26171 0.99693 0.19743 0.0
O202 O 0.39236 0.01499 0.38505 0.0
C203 C 0.34789 0.06308 0.28382 0.0
Co204 Co 0.63742 0.64035 0.32088 0.0
Co205 Co 0.6889 0.66059 0.40106 0.0
C206 C 0.60367 0.58146 0.39044 0.0
O207 O 0.60039 0.59297 0.35562 0.0
O208 O 0.63621 0.6039 0.41233 0.0
C209 C 0.59047 0.58601 0.25641 0.0
O210 O 0.58319 0.55521 0.28145 0.0
C211 C 0.74315 0.65018 0.46042 0.0
C212 C 0.77753 0.71431 0.48782 0.0
C213 C 0.77506 0.67489 0.48744 0.0
N214 N 0.7277 0.67413 0.44494 0.0
N215 N 0.74785 0.71219 0.46208 0.0
C216 C 0.72957 0.60555 0.44749 0.0
H217 H 0.71236 0.59823 0.41856 0.0
H218 H 0.75768 0.60097 0.44511 0.0
H219 H 0.7078 0.58294 0.47033 0.0
C220 C 0.71691 0.64885 0.28858 0.0
N221 N 0.69296 0.64806 0.31965 0.0
N222 N 0.71587 0.65795 0.35262 0.0
C223 C 0.75566 0.66608 0.34307 0.0
C224 C 0.75709 0.66005 0.30243 0.0
C225 C 0.70217 0.64098 0.2461 0.0
H226 H 0.68882 0.66177 0.2381 0.0
H227 H 0.67658 0.6072 0.24271 0.0
H228 H 0.72861 0.64736 0.22531 0.0
O229 O 0.64057 0.69403 0.3377 0.0
O230 O 0.67535 0.70813 0.39565 0.0
H231 H 0.79166 0.70508 0.39268 0.0
H232 H 0.82344 0.69797 0.35509 0.0
C233 C 0.79255 0.68212 0.37135 0.0
H234 H 0.79062 0.6548 0.38814 0.0
H235 H 0.74271 0.73738 0.45488 0.0
O236 O 0.61228 0.62484 0.26712 0.0
C237 C 0.65666 0.71739 0.36837 0.0
Co238 Co 1.00036 0.63847 0.48779 0.0
Co239 Co 0.03154 0.68983 0.56802 0.0
C240 C 0.02545 0.60461 0.55735 0.0
O241 O 0.01069 0.6014 0.52252 0.0
O242 O 0.03553 0.63712 0.57928 0.0
C243 C 0.00782 0.59159 0.42333 0.0
O244 O 0.03135 0.58431 0.44837 0.0
C245 C 0.09611 0.74395 0.62748 0.0
C246 C 0.06638 0.77842 0.65477 0.0
C247 C 0.10331 0.77587 0.65447 0.0
N248 N 0.05675 0.72858 0.61193 0.0
N249 N 0.03885 0.74877 0.62901 0.0
C250 C 0.12715 0.73032 0.61464 0.0
H251 H 0.11732 0.71316 0.58569 0.0
H252 H 0.15987 0.75838 0.61234 0.0
H253 H 0.12789 0.70848 0.63749 0.0
C254 C 0.0714 0.71794 0.45558 0.0
N255 N 0.0482 0.69399 0.48662 0.0
N256 N 0.0612 0.71684 0.51961 0.0
C257 C 0.09291 0.7566 0.51011 0.0
C258 C 0.10041 0.75808 0.46947 0.0
C259 C 0.06457 0.70326 0.4131 0.0
H260 H 0.03045 0.68994 0.40505 0.0
H261 H 0.07276 0.67766 0.40971 0.0
H262 H 0.08463 0.7297 0.39233 0.0
O263 O 0.94982 0.64163 0.50457 0.0
O264 O 0.97046 0.67632 0.56255 0.0
H265 H 0.08997 0.7926 0.55973 0.0
H266 H 0.12894 0.82435 0.5222 0.0
C267 C 0.11381 0.79344 0.53843 0.0
H268 H 0.13912 0.79138 0.55525 0.0
H269 H 0.00856 0.74369 0.62173 0.0
O270 O 0.99076 0.61338 0.43402 0.0
C271 C 0.94253 0.65767 0.53524 0.0
Co272 Co 0.36477 1.00112 0.65461 0.0
Co273 Co 0.34472 0.03236 0.73485 0.0
C274 C 0.42385 0.0263 0.7241 0.0
O275 O 0.41222 0.01149 0.68929 0.0
O276 O 0.40146 0.0364 0.74604 0.0
C277 C 0.4191 0.00872 0.59017 0.0
O278 O 0.44985 0.03241 0.6152 0.0
C279 C 0.35533 0.09702 0.79423 0.0
C280 C 0.29124 0.06739 0.82169 0.0
C281 C 0.33071 0.10429 0.82127 0.0
N282 N 0.3313 0.05764 0.77877 0.0
N283 N 0.29327 0.03979 0.79595 0.0
C284 C 0.39995 0.12801 0.78126 0.0
H285 H 0.40716 0.11813 0.75229 0.0
H286 H 0.4046 0.16073 0.77895 0.0
H287 H 0.42261 0.12875 0.80404 0.0
C288 C 0.35621 0.07212 0.62238 0.0
N289 N 0.35703 0.04894 0.65343 0.0
N290 N 0.34723 0.06196 0.68643 0.0
C291 C 0.33915 0.09367 0.67692 0.0
C292 C 0.3451 0.10114 0.63628 0.0
C293 C 0.36399 0.06526 0.57989 0.0
H294 H 0.34326 0.03112 0.5719 0.0
H295 H 0.3978 0.07354 0.57645 0.0
H296 H 0.35747 0.08525 0.55912 0.0
O297 O 0.31114 0.95061 0.67148 0.0
O298 O 0.29719 0.97128 0.72948 0.0
H299 H 0.30033 0.09078 0.72661 0.0
H300 H 0.3074 0.12968 0.68904 0.0
C301 C 0.32325 0.11459 0.70526 0.0
H302 H 0.35065 0.13993 0.722 0.0
H303 H 0.26804 0.00951 0.78875 0.0
O304 O 0.38024 0.99151 0.60085 0.0
C305 C 0.28787 0.94333 0.7022 0.0
Co306 Co 0.36709 0.36591 0.82119 0.0
Co307 Co 0.31573 0.34577 0.90138 0.0
C308 C 0.40086 0.42495 0.8907 0.0
O309 O 0.40409 0.41335 0.8559 0.0
O310 O 0.36836 0.40253 0.91261 0.0
C311 C 0.41382 0.42027 0.75677 0.0
O312 O 0.42089 0.45102 0.78179 0.0
C313 C 0.26151 0.3562 0.96069 0.0
C314 C 0.22725 0.29213 0.98817 0.0
C315 C 0.22966 0.33152 0.98772 0.0
N316 N 0.27699 0.33226 0.94526 0.0
N317 N 0.25691 0.29424 0.96245 0.0
C318 C 0.275 0.40079 0.94769 0.0
H319 H 0.29215 0.40806 0.91876 0.0
H320 H 0.24686 0.40532 0.9453 0.0
H321 H 0.29681 0.42347 0.97051 0.0
C322 C 0.28749 0.35723 0.78887 0.0
N323 N 0.3115 0.3581 0.81995 0.0
N324 N 0.28865 0.34825 0.85292 0.0
C325 C 0.24883 0.34007 0.84337 0.0
C326 C 0.24732 0.34602 0.80271 0.0
C327 C 0.30216 0.36504 0.74639 0.0
H328 H 0.31561 0.34433 0.73843 0.0
H329 H 0.32766 0.39885 0.74296 0.0
H330 H 0.27567 0.35852 0.72559 0.0
O331 O 0.36405 0.3123 0.83807 0.0
O332 O 0.32939 0.2983 0.89604 0.0
H333 H 0.21295 0.30117 0.89302 0.0
H334 H 0.18106 0.30812 0.8554 0.0
C335 C 0.21198 0.32405 0.87165 0.0
H336 H 0.2139 0.35139 0.88839 0.0
H337 H 0.26209 0.26907 0.95529 0.0
O338 O 0.39219 0.38142 0.76745 0.0
C339 C 0.34806 0.28902 0.86878 0.0
Co340 Co 1.00435 0.36797 0.98776 0.0
Co341 Co 0.97315 0.31655 0.06792 0.0
C342 C 0.97923 0.40177 0.05733 0.0
O343 O 0.99401 0.40501 0.02251 0.0
O344 O 0.96914 0.36924 0.07921 0.0
C345 C 0.99697 0.41495 0.92334 0.0
O346 O 0.97351 0.42229 0.94839 0.0
C347 C 0.90851 0.26238 0.12723 0.0
C348 C 0.93821 0.22791 0.1546 0.0
C349 C 0.90128 0.23045 0.15421 0.0
N350 N 0.94789 0.27777 0.11178 0.0
N351 N 0.96578 0.25758 0.1289 0.0
C352 C 0.87748 0.27601 0.1143 0.0
H353 H 0.88736 0.29319 0.08538 0.0
H354 H 0.84477 0.24794 0.11192 0.0
H355 H 0.8767 0.29783 0.13715 0.0
C356 C 0.93332 0.28852 0.95542 0.0
N357 N 0.95652 0.31245 0.98651 0.0
N358 N 0.94352 0.28957 0.01946 0.0
C359 C 0.91184 0.24981 0.00989 0.0
C360 C 0.90433 0.24836 0.96925 0.0
C361 C 0.94015 0.30324 0.91296 0.0
H362 H 0.97426 0.31654 0.90494 0.0
H363 H 0.93199 0.32887 0.90961 0.0
H364 H 0.92005 0.27682 0.89215 0.0
O365 O 0.05488 0.3648 0.00461 0.0
O366 O 0.03423 0.33007 0.06255 0.0
H367 H 0.91482 0.2138 0.05948 0.0
H368 H 0.8759 0.18204 0.02188 0.0
C369 C 0.89098 0.21294 0.03816 0.0
H370 H 0.86562 0.21493 0.05494 0.0
H371 H 0.99608 0.26267 0.1217 0.0
O372 O 0.01396 0.39309 0.93402 0.0
C373 C 0.06217 0.34873 0.03529 0.0
Co374 Co 0.63959 0.00522 0.15424 0.0
Co375 Co 0.65988 0.97405 0.23442 0.0
C376 C 0.58069 0.9801 0.22379 0.0
O377 O 0.5922 0.99487 0.18897 0.0
O378 O 0.60316 0.97003 0.24568 0.0
C379 C 0.58519 0.99772 0.08979 0.0
O380 O 0.55443 0.97416 0.11483 0.0
C381 C 0.64941 0.90938 0.29371 0.0
C382 C 0.7135 0.93909 0.32124 0.0
C383 C 0.67407 0.90215 0.32076 0.0
N384 N 0.67339 0.94878 0.27831 0.0
N385 N 0.71142 0.96667 0.29552 0.0
C386 C 0.6048 0.87834 0.28068 0.0
H387 H 0.59753 0.88826 0.25175 0.0
H388 H 0.60023 0.84567 0.27827 0.0
H389 H 0.58213 0.87749 0.30349 0.0
C390 C 0.64815 0.93425 0.12194 0.0
N391 N 0.64734 0.95741 0.15301 0.0
N392 N 0.65727 0.94444 0.18598 0.0
C393 C 0.66544 0.91281 0.17643 0.0
C394 C 0.65941 0.90531 0.13578 0.0
C395 C 0.64026 0.94108 0.07946 0.0
H396 H 0.66101 0.9752 0.07146 0.0
H397 H 0.60645 0.93286 0.07607 0.0
H398 H 0.64667 0.92104 0.05867 0.0
O399 O 0.69327 0.05575 0.17109 0.0
O400 O 0.7074 0.03512 0.22905 0.0
H401 H 0.70447 0.91588 0.22605 0.0
H402 H 0.69746 0.87703 0.18844 0.0
C403 C 0.68154 0.89202 0.20471 0.0
H404 H 0.65425 0.86661 0.22146 0.0
H405 H 0.73662 0.99699 0.28838 0.0
O406 O 0.62405 0.01481 0.10049 0.0
C407 C 0.71663 0.06304 0.20177 0.0
C408 C 0.33811 0.15659 0.59024 0.0
C409 C 0.34074 0.13206 0.61277 0.0
C410 C 0.33817 0.18611 0.56273 0.0
C411 C 0.34088 0.21328 0.54017 0.0
C412 C 0.1553 0.33879 0.72908 0.0
C413 C 0.1308 0.34149 0.70653 0.0
C414 C 0.18481 0.33881 0.7566 0.0
C415 C 0.21201 0.34154 0.77915 0.0
C416 C 0.81949 0.15642 0.89562 0.0
C417 C 0.79232 0.13189 0.87307 0.0
C418 C 0.84898 0.18593 0.92313 0.0
C419 C 0.87348 0.21311 0.94567 0.0
C420 C 0.66666 0.82058 0.06215 0.0
C421 C 0.66399 0.79341 0.0396 0.0
C422 C 0.66662 0.85004 0.08967 0.0
C423 C 0.66389 0.87451 0.11222 0.0
C424 C 0.84906 0.66729 0.2288 0.0
C425 C 0.87359 0.66465 0.20627 0.0
C426 C 0.81955 0.66724 0.25631 0.0
C427 C 0.79237 0.66452 0.27886 0.0
C428 C 0.18526 0.84995 0.3959 0.0
C429 C 0.2124 0.87444 0.37335 0.0
C430 C 0.15579 0.82048 0.42341 0.0
C431 C 0.13129 0.79333 0.44595 0.0
C432 C 0.34526 0.17222 0.29911 0.0
C433 C 0.33956 0.19928 0.31429 0.0
C434 C 0.34769 0.13594 0.28713 0.0
C435 C 0.34647 0.10214 0.28297 0.0
C436 C 0.21486 0.34865 0.45366 0.0
C437 C 0.24745 0.34743 0.44954 0.0
C438 C 0.17613 0.34619 0.4656 0.0
C439 C 0.14335 0.34046 0.48074 0.0
C440 C 0.83302 0.17709 0.63209 0.0
C441 C 0.80599 0.14434 0.64725 0.0
C442 C 0.8693 0.21579 0.62013 0.0
C443 C 0.90311 0.24833 0.616 0.0
C444 C 0.65686 0.87033 0.78663 0.0
C445 C 0.65809 0.90413 0.78251 0.0
C446 C 0.65928 0.83404 0.79859 0.0
C447 C 0.66499 0.80699 0.81376 0.0
C448 C 0.78968 0.65757 0.95323 0.0
C449 C 0.75713 0.65884 0.9491 0.0
C450 C 0.82839 0.65998 0.96521 0.0
C451 C 0.86116 0.6657 0.98042 0.0
C452 C 0.17147 0.82928 0.1322 0.0
C453 C 0.19851 0.86202 0.14742 0.0
C454 C 0.13519 0.79059 0.12018 0.0
C455 C 0.10139 0.75804 0.11601 0.0
C456 C 0.86962 0.6578 0.53191 0.0
C457 C 0.90344 0.65906 0.53609 0.0
C458 C 0.83331 0.66019 0.51991 0.0
C459 C 0.80623 0.66586 0.50472 0.0
C460 C 0.2149 0.87041 0.69898 0.0
C461 C 0.24743 0.90424 0.70311 0.0
C462 C 0.17623 0.83409 0.68699 0.0
C463 C 0.1435 0.80702 0.67178 0.0
C464 C 0.34798 0.21602 0.8656 0.0
C465 C 0.34671 0.24857 0.86969 0.0
C466 C 0.34556 0.1773 0.85367 0.0
C467 C 0.33981 0.14452 0.83851 0.0
C468 C 0.13507 0.3486 0.03205 0.0
C469 C 0.10126 0.34735 0.03618 0.0
C470 C 0.17139 0.34621 0.02011 0.0
C471 C 0.19847 0.34053 0.00496 0.0
C472 C 0.78963 0.13594 0.19852 0.0
C473 C 0.75709 0.10213 0.20264 0.0
C474 C 0.82832 0.17224 0.18657 0.0
C475 C 0.86108 0.1993 0.17143 0.0
C476 C 0.65929 0.82917 0.35314 0.0
C477 C 0.66501 0.86194 0.338 0.0
C478 C 0.65685 0.79044 0.36509 0.0
C479 C 0.65807 0.75787 0.36922 0.0
C480 C 0.49876 0.46764 0.41057 0.0
C481 C 0.46444 0.43589 0.41509 0.0
C482 C 0.53781 0.50666 0.40825 0.0
C483 C 0.56958 0.54095 0.40373 0.0
C484 C 0.03431 0.49963 0.57731 0.0
C485 C 0.03173 0.46529 0.58176 0.0
C486 C 0.03436 0.5387 0.57508 0.0
C487 C 0.03185 0.57049 0.57062 0.0
C488 C 0.53779 0.03524 0.74383 0.0
C489 C 0.56956 0.03267 0.74824 0.0
C490 C 0.49875 0.03527 0.74168 0.0
C491 C 0.46442 0.03274 0.7373 0.0
C492 C 0.50575 0.53888 0.91047 0.0
C493 C 0.5401 0.57063 0.91487 0.0
C494 C 0.4667 0.49985 0.90832 0.0
C495 C 0.43493 0.46552 0.90392 0.0
C496 C 0.97029 0.46766 0.07507 0.0
C497 C 0.9728 0.43587 0.07061 0.0
C498 C 0.97032 0.50672 0.07729 0.0
C499 C 0.97289 0.54105 0.08173 0.0
C500 C 0.46683 0.97118 0.24392 0.0
C501 C 0.43506 0.97373 0.24844 0.0
C502 C 0.50587 0.97116 0.2416 0.0
C503 C 0.54018 0.97369 0.23708 0.0
C504 C 0.4314 0.43398 0.68048 0.0
C505 C 0.42437 0.42991 0.71566 0.0
C506 C 0.43291 0.43264 0.63872 0.0
C507 C 0.42896 0.42573 0.60351 0.0
C508 C 1.00364 0.43374 0.80525 0.0
C509 C 0.0066 0.42971 0.77007 0.0
C510 C 1.00082 0.43237 0.84702 0.0
C511 C 0.99787 0.42545 0.88221 0.0
C512 C 0.57297 0.00439 0.97171 0.0
C513 C 0.57994 0.00736 0.93652 0.0
C514 C 0.57155 1.00155 0.01347 0.0
C515 C 0.57556 0.9986 0.04867 0.0
C516 C 0.57177 0.57402 0.1383 0.0
C517 C 0.57583 0.58106 0.10312 0.0
C518 C 0.5731 0.5725 0.18006 0.0
C519 C 0.57999 0.57643 0.21527 0.0
C520 C 1.00107 0.57279 0.30523 0.0
C521 C 0.99807 0.5768 0.27004 0.0
C522 C 1.00394 0.57417 0.34699 0.0
C523 C 0.00691 0.58109 0.3822 0.0
C524 C 0.43285 0.00479 0.51389 0.0
C525 C 0.42874 0.00776 0.54906 0.0
C526 C 0.43158 1.00194 0.47213 0.0
C527 C 0.42473 0.99897 0.43691 0.0
loop_
_geom_bond_atom_site_label_1
_geom_bond_atom_site_label_2
_geom_bond_distance
_geom_bond_site_symmetry_2
_ccdc_geom_bond_type
Co0 O3 1.970 . S
Co0 N17 1.989 . S
Co0 O25 1.967 . S
Co0 O32 1.920 . S
Co1 O4 1.966 . S
Co1 N10 2.022 . S
Co1 N18 1.993 . S
Co1 O26 1.941 . S
C2 O3 1.258 . S
C2 O4 1.263 . S
O3 Co0 1.970 . S
O3 C2 1.258 . S
O4 Co1 1.966 . S
O4 C2 1.263 . S
C5 O6 1.235 . S
C5 O32 1.289 . S
O6 C5 1.235 . S
C7 C9 1.400 . S
C7 N10 1.351 . S
C7 C12 1.501 . S
C8 C9 1.387 . S
C8 N11 1.341 . S
C9 C7 1.400 . S
C9 C8 1.387 . S
N10 Co1 2.022 . S
N10 C7 1.351 . S
N10 N11 1.365 . S
N11 C8 1.341 . S
N11 N10 1.365 . S
N11 H31 0.862 . S
C12 C7 1.501 . S
C12 H13 0.961 . S
C12 H14 0.961 . S
C12 H15 0.960 . S
H13 C12 0.961 . S
H14 C12 0.961 . S
H15 C12 0.960 . S
C16 N17 1.342 . S
C16 C20 1.401 . S
C16 C21 1.499 . S
N17 Co0 1.989 . S
N17 C16 1.342 . S
N17 N18 1.388 . S
N18 Co1 1.993 . S
N18 N17 1.388 . S
N18 C19 1.346 . S
C19 N18 1.346 . S
C19 C20 1.396 . S
C19 C29 1.510 . S
C20 C16 1.401 . S
C20 C19 1.396 . S
C21 C16 1.499 . S
C21 H22 0.959 . S
C21 H23 0.960 . S
C21 H24 0.961 . S
H22 C21 0.959 . S
H23 C21 0.960 . S
H24 C21 0.961 . S
O25 Co0 1.967 . S
O25 C33 1.258 . S
O26 Co1 1.941 . S
O26 C33 1.266 . S
H27 C29 0.959 . S
H28 C29 0.961 . S
C29 C19 1.510 . S
C29 H27 0.959 . S
C29 H28 0.961 . S
C29 H30 0.960 . S
H30 C29 0.960 . S
H31 N11 0.862 . S
O32 Co0 1.920 . S
O32 C5 1.289 . S
C33 O25 1.258 . S
C33 O26 1.266 . S
Co34 O37 1.970 . S
Co34 N51 1.989 . S
Co34 O59 1.967 1_455 S
Co34 O66 1.920 . S
Co35 O38 1.966 . S
Co35 N44 2.022 . S
Co35 N52 1.993 . S
Co35 O60 1.958 . S
C36 O37 1.258 . S
C36 O38 1.263 . S
O37 Co34 1.970 . S
O37 C36 1.258 . S
O38 Co35 1.966 . S
O38 C36 1.263 . S
C39 O40 1.235 . S
C39 O66 1.289 . S
O40 C39 1.235 . S
C41 C43 1.400 . S
C41 N44 1.351 . S
C41 C46 1.501 . S
C42 C43 1.387 . S
C42 N45 1.341 . S
C43 C41 1.400 . S
C43 C42 1.387 . S
N44 Co35 2.022 . S
N44 C41 1.351 . S
N44 N45 1.365 . S
N45 C42 1.341 . S
N45 N44 1.365 . S
N45 H65 0.862 . S
C46 C41 1.501 . S
C46 H47 0.961 . S
C46 H48 0.961 . S
C46 H49 0.960 . S
H47 C46 0.961 . S
H48 C46 0.961 . S
H49 C46 0.960 . S
C50 N51 1.342 . S
C50 C54 1.401 . S
C50 C55 1.499 . S
N51 Co34 1.989 . S
N51 C50 1.342 . S
N51 N52 1.388 . S
N52 Co35 1.993 . S
N52 N51 1.388 . S
N52 C53 1.346 . S
C53 N52 1.346 . S
C53 C54 1.396 . S
C53 C63 1.510 . S
C54 C50 1.401 . S
C54 C53 1.396 . S
C55 C50 1.499 . S
C55 H56 0.959 . S
C55 H57 0.960 . S
C55 H58 0.961 . S
H56 C55 0.959 . S
H57 C55 0.960 . S
H58 C55 0.961 . S
O59 Co34 1.967 1_655 S
O59 C67 1.258 . S
O60 Co35 1.958 . S
O60 C67 1.247 1_455 S
H61 C63 0.959 . S
H62 C63 0.961 . S
C63 C53 1.510 . S
C63 H61 0.959 . S
C63 H62 0.961 . S
C63 H64 0.960 . S
H64 C63 0.960 . S
H65 N45 0.862 . S
O66 Co34 1.920 . S
O66 C39 1.289 . S
C67 O59 1.258 . S
C67 O60 1.247 1_655 S
Co68 O71 1.970 . S
Co68 N85 1.989 . S
Co68 O93 1.967 1_545 S
Co68 O100 1.920 . S
Co69 O72 1.966 . S
Co69 N78 2.022 . S
Co69 N86 1.993 . S
Co69 O94 1.941 . S
C70 O71 1.258 . S
C70 O72 1.263 . S
O71 Co68 1.970 . S
O71 C70 1.258 . S
O72 Co69 1.966 . S
O72 C70 1.263 . S
C73 O74 1.235 . S
C73 O100 1.289 . S
O74 C73 1.235 . S
C75 C77 1.400 . S
C75 N78 1.351 . S
C75 C80 1.501 . S
C76 C77 1.387 . S
C76 N79 1.341 . S
C77 C75 1.400 . S
C77 C76 1.387 . S
N78 Co69 2.022 . S
N78 C75 1.351 . S
N78 N79 1.365 . S
N79 C76 1.341 . S
N79 N78 1.365 . S
N79 H99 0.862 . S
C80 C75 1.501 . S
C80 H81 0.961 . S
C80 H82 0.961 . S
C80 H83 0.960 . S
H81 C80 0.961 . S
H82 C80 0.961 . S
H83 C80 0.960 . S
C84 N85 1.342 . S
C84 C88 1.401 . S
C84 C89 1.499 . S
N85 Co68 1.989 . S
N85 C84 1.342 . S
N85 N86 1.388 . S
N86 Co69 1.993 . S
N86 N85 1.388 . S
N86 C87 1.346 . S
C87 N86 1.346 . S
C87 C88 1.396 . S
C87 C97 1.510 . S
C88 C84 1.401 . S
C88 C87 1.396 . S
C89 C84 1.499 . S
C89 H90 0.959 . S
C89 H91 0.960 . S
C89 H92 0.961 . S
H90 C89 0.959 . S
H91 C89 0.960 . S
H92 C89 0.961 . S
O93 Co68 1.967 1_565 S
O93 C101 1.258 . S
O94 Co69 1.941 . S
O94 C101 1.266 1_545 S
H95 C97 0.959 . S
H96 C97 0.961 . S
C97 C87 1.510 . S
C97 H95 0.959 . S
C97 H96 0.961 . S
C97 H98 0.960 . S
H98 C97 0.960 . S
H99 N79 0.862 . S
O100 Co68 1.920 . S
O100 C73 1.289 . S
C101 O93 1.258 . S
C101 O94 1.266 1_565 S
Co102 O105 1.979 . S
Co102 N119 1.988 1_556 S
Co102 O127 1.972 . S
Co102 O134 1.909 1_556 S
Co103 O106 1.966 . S
Co103 N112 2.022 . S
Co103 N120 1.993 . S
Co103 O128 1.941 . S
C104 O105 1.258 . S
C104 O106 1.263 . S
O105 Co102 1.979 . S
O105 C104 1.258 . S
O106 Co103 1.966 . S
O106 C104 1.263 . S
C107 O108 1.235 . S
C107 O134 1.289 . S
O108 C107 1.235 . S
C109 C111 1.400 . S
C109 N112 1.351 . S
C109 C114 1.501 . S
C110 C111 1.387 . S
C110 N113 1.341 . S
C111 C109 1.400 . S
C111 C110 1.387 . S
N112 Co103 2.022 . S
N112 C109 1.351 . S
N112 N113 1.365 . S
N113 C110 1.341 . S
N113 N112 1.365 . S
N113 H133 0.862 . S
C114 C109 1.501 . S
C114 H115 0.961 . S
C114 H116 0.961 . S
C114 H117 0.960 . S
H115 C114 0.961 . S
H116 C114 0.961 . S
H117 C114 0.960 . S
C118 N119 1.342 . S
C118 C122 1.401 . S
C118 C123 1.499 . S
N119 Co102 1.988 1_554 S
N119 C118 1.342 . S
N119 N120 1.388 1_554 S
N120 Co103 1.993 . S
N120 N119 1.388 1_556 S
N120 C121 1.346 . S
C121 N120 1.346 . S
C121 C122 1.396 1_556 S
C121 C131 1.510 . S
C122 C118 1.401 . S
C122 C121 1.396 1_554 S
C123 C118 1.499 . S
C123 H124 0.959 . S
C123 H125 0.960 . S
C123 H126 0.961 . S
H124 C123 0.959 . S
H125 C123 0.960 . S
H126 C123 0.961 . S
O127 Co102 1.972 . S
O127 C135 1.258 . S
O128 Co103 1.941 . S
O128 C135 1.266 . S
H129 C131 0.959 . S
H130 C131 0.961 . S
C131 C121 1.510 . S
C131 H129 0.959 . S
C131 H130 0.961 . S
C131 H132 0.960 . S
H132 C131 0.960 . S
H133 N113 0.862 . S
O134 Co102 1.909 1_554 S
O134 C107 1.289 . S
C135 O127 1.258 . S
C135 O128 1.266 . S
Co136 O139 1.970 . S
Co136 N153 1.989 . S
Co136 O161 1.967 1_655 S
Co136 O168 1.920 . S
Co137 O140 1.966 . S
Co137 N146 2.022 . S
Co137 N154 1.993 . S
Co137 O162 1.941 . S
C138 O139 1.258 . S
C138 O140 1.263 . S
O139 Co136 1.970 . S
O139 C138 1.258 . S
O140 Co137 1.966 . S
O140 C138 1.263 . S
C141 O142 1.235 . S
C141 O168 1.289 . S
O142 C141 1.235 . S
C143 C145 1.400 1_554 S
C143 N146 1.351 . S
C143 C148 1.501 . S
C144 C145 1.387 1_554 S
C144 N147 1.341 . S
C145 C143 1.400 1_556 S
C145 C144 1.387 1_556 S
N146 Co137 2.022 . S
N146 C143 1.351 . S
N146 N147 1.365 . S
N147 C144 1.341 . S
N147 N146 1.365 . S
N147 H167 0.862 . S
C148 C143 1.501 . S
C148 H149 0.961 . S
C148 H150 0.961 . S
C148 H151 0.960 1_554 S
H149 C148 0.961 . S
H150 C148 0.961 . S
H151 C148 0.960 1_556 S
C152 N153 1.342 . S
C152 C156 1.401 . S
C152 C157 1.499 . S
N153 Co136 1.989 . S
N153 C152 1.342 . S
N153 N154 1.388 . S
N154 Co137 1.993 . S
N154 N153 1.388 . S
N154 C155 1.346 . S
C155 N154 1.346 . S
C155 C156 1.396 . S
C155 C165 1.510 . S
C156 C152 1.401 . S
C156 C155 1.396 . S
C157 C152 1.499 . S
C157 H158 0.959 . S
C157 H159 0.960 . S
C157 H160 0.961 . S
H158 C157 0.959 . S
H159 C157 0.960 . S
H160 C157 0.961 . S
O161 Co136 1.967 1_455 S
O161 C169 1.258 . S
O162 Co137 1.941 . S
O162 C169 1.266 1_655 S
H163 C165 0.959 . S
H164 C165 0.961 . S
C165 C155 1.510 . S
C165 H163 0.959 . S
C165 H164 0.961 . S
C165 H166 0.960 . S
H166 C165 0.960 . S
H167 N147 0.862 . S
O168 Co136 1.920 . S
O168 C141 1.289 . S
C169 O161 1.258 . S
C169 O162 1.266 1_455 S
Co170 O173 1.970 . S
Co170 N187 1.989 . S
Co170 O195 1.967 1_565 S
Co170 O202 1.920 . S
Co171 O174 1.966 . S
Co171 N180 2.022 . S
Co171 N188 1.993 . S
Co171 O196 1.941 . S
C172 O173 1.258 . S
C172 O174 1.263 . S
O173 Co170 1.970 . S
O173 C172 1.258 . S
O174 Co171 1.966 . S
O174 C172 1.263 . S
C175 O176 1.235 . S
C175 O202 1.289 . S
O176 C175 1.235 . S
C177 C179 1.400 . S
C177 N180 1.351 . S
C177 C182 1.501 . S
C178 C179 1.387 . S
C178 N181 1.341 . S
C179 C177 1.400 . S
C179 C178 1.387 . S
N180 Co171 2.022 . S
N180 C177 1.351 . S
N180 N181 1.365 . S
N181 C178 1.341 . S
N181 N180 1.365 . S
N181 H201 0.862 . S
C182 C177 1.501 . S
C182 H183 0.961 . S
C182 H184 0.961 . S
C182 H185 0.960 . S
H183 C182 0.961 . S
H184 C182 0.961 . S
H185 C182 0.960 . S
C186 N187 1.342 . S
C186 C190 1.401 . S
C186 C191 1.499 . S
N187 Co170 1.989 . S
N187 C186 1.342 . S
N187 N188 1.388 . S
N188 Co171 1.993 . S
N188 N187 1.388 . S
N188 C189 1.346 . S
C189 N188 1.346 . S
C189 C190 1.396 . S
C189 C199 1.510 . S
C190 C186 1.401 . S
C190 C189 1.396 . S
C191 C186 1.499 . S
C191 H192 0.959 . S
C191 H193 0.960 . S
C191 H194 0.961 . S
H192 C191 0.959 . S
H193 C191 0.960 . S
H194 C191 0.961 . S
O195 Co170 1.967 1_545 S
O195 C203 1.258 . S
O196 Co171 1.941 . S
O196 C203 1.266 1_565 S
H197 C199 0.959 . S
H198 C199 0.961 . S
C199 C189 1.510 . S
C199 H197 0.959 . S
C199 H198 0.961 . S
C199 H200 0.960 . S
H200 C199 0.960 . S
H201 N181 0.862 . S
O202 Co170 1.920 . S
O202 C175 1.289 . S
C203 O195 1.258 . S
C203 O196 1.266 1_545 S
Co204 O207 1.970 . S
Co204 N221 1.989 . S
Co204 O229 1.967 . S
Co204 O236 1.920 . S
Co205 O208 1.966 . S
Co205 N214 2.022 . S
Co205 N222 1.993 . S
Co205 O230 1.941 . S
C206 O207 1.258 . S
C206 O208 1.263 . S
O207 Co204 1.970 . S
O207 C206 1.258 . S
O208 Co205 1.966 . S
O208 C206 1.263 . S
C209 O210 1.235 . S
C209 O236 1.289 . S
O210 C209 1.235 . S
C211 C213 1.400 . S
C211 N214 1.351 . S
C211 C216 1.501 . S
C212 C213 1.387 . S
C212 N215 1.341 . S
C213 C211 1.400 . S
C213 C212 1.387 . S
N214 Co205 2.022 . S
N214 C211 1.351 . S
N214 N215 1.365 . S
N215 C212 1.341 . S
N215 N214 1.365 . S
N215 H235 0.862 . S
C216 C211 1.501 . S
C216 H217 0.961 . S
C216 H218 0.961 . S
C216 H219 0.960 . S
H217 C216 0.961 . S
H218 C216 0.961 . S
H219 C216 0.960 . S
C220 N221 1.342 . S
C220 C224 1.401 . S
C220 C225 1.499 . S
N221 Co204 1.989 . S
N221 C220 1.342 . S
N221 N222 1.388 . S
N222 Co205 1.993 . S
N222 N221 1.388 . S
N222 C223 1.346 . S
C223 N222 1.346 . S
C223 C224 1.396 . S
C223 C233 1.510 . S
C224 C220 1.401 . S
C224 C223 1.396 . S
C225 C220 1.499 . S
C225 H226 0.959 . S
C225 H227 0.960 . S
C225 H228 0.961 . S
H226 C225 0.959 . S
H227 C225 0.960 . S
H228 C225 0.961 . S
O229 Co204 1.967 . S
O229 C237 1.258 . S
O230 Co205 1.941 . S
O230 C237 1.266 . S
H231 C233 0.959 . S
H232 C233 0.961 . S
C233 C223 1.510 . S
C233 H231 0.959 . S
C233 H232 0.961 . S
C233 H234 0.960 . S
H234 C233 0.960 . S
H235 N215 0.862 . S
O236 Co204 1.920 . S
O236 C209 1.289 . S
C237 O229 1.258 . S
C237 O230 1.266 . S
Co238 O241 1.970 . S
Co238 N255 1.989 . S
Co238 O263 1.967 1_455 S
Co238 O270 1.920 . S
Co239 O242 1.966 . S
Co239 N248 2.022 . S
Co239 N256 1.993 . S
Co239 O264 1.968 . S
C240 O241 1.258 . S
C240 O242 1.263 . S
O241 Co238 1.970 . S
O241 C240 1.258 . S
O242 Co239 1.966 . S
O242 C240 1.263 . S
C243 O244 1.235 . S
C243 O270 1.289 . S
O244 C243 1.235 . S
C245 C247 1.400 . S
C245 N248 1.351 . S
C245 C250 1.501 . S
C246 C247 1.387 . S
C246 N249 1.341 . S
C247 C245 1.400 . S
C247 C246 1.387 . S
N248 Co239 2.022 . S
N248 C245 1.351 . S
N248 N249 1.365 . S
N249 C246 1.341 . S
N249 N248 1.365 . S
N249 H269 0.862 . S
C250 C245 1.501 . S
C250 H251 0.961 . S
C250 H252 0.961 . S
C250 H253 0.960 . S
H251 C250 0.961 . S
H252 C250 0.961 . S
H253 C250 0.960 . S
C254 N255 1.342 . S
C254 C258 1.401 . S
C254 C259 1.499 . S
N255 Co238 1.989 . S
N255 C254 1.342 . S
N255 N256 1.388 . S
N256 Co239 1.993 . S
N256 N255 1.388 . S
N256 C257 1.346 . S
C257 N256 1.346 . S
C257 C258 1.396 . S
C257 C267 1.510 . S
C258 C254 1.401 . S
C258 C257 1.396 . S
C259 C254 1.499 . S
C259 H260 0.959 . S
C259 H261 0.960 . S
C259 H262 0.961 . S
H260 C259 0.959 . S
H261 C259 0.960 . S
H262 C259 0.961 . S
O263 Co238 1.967 1_655 S
O263 C271 1.258 . S
O264 Co239 1.968 . S
O264 C271 1.255 1_455 S
H265 C267 0.959 . S
H266 C267 0.961 . S
C267 C257 1.510 . S
C267 H265 0.959 . S
C267 H266 0.961 . S
C267 H268 0.960 . S
H268 C267 0.960 . S
H269 N249 0.862 . S
O270 Co238 1.920 . S
O270 C243 1.289 . S
C271 O263 1.258 . S
C271 O264 1.255 1_655 S
Co272 O275 1.970 . S
Co272 N289 1.989 . S
Co272 O297 1.967 1_545 S
Co272 O304 1.920 . S
Co273 O276 1.966 . S
Co273 N282 2.022 . S
Co273 N290 1.993 . S
Co273 O298 1.941 . S
C274 O275 1.258 . S
C274 O276 1.263 . S
O275 Co272 1.970 . S
O275 C274 1.258 . S
O276 Co273 1.966 . S
O276 C274 1.263 . S
C277 O278 1.235 . S
C277 O304 1.289 . S
O278 C277 1.235 . S
C279 C281 1.400 . S
C279 N282 1.351 . S
C279 C284 1.501 . S
C280 C281 1.387 . S
C280 N283 1.341 . S
C281 C279 1.400 . S
C281 C280 1.387 . S
N282 Co273 2.022 . S
N282 C279 1.351 . S
N282 N283 1.365 . S
N283 C280 1.341 . S
N283 N282 1.365 . S
N283 H303 0.862 . S
C284 C279 1.501 . S
C284 H285 0.961 . S
C284 H286 0.961 . S
C284 H287 0.960 . S
H285 C284 0.961 . S
H286 C284 0.961 . S
H287 C284 0.960 . S
C288 N289 1.342 . S
C288 C292 1.401 . S
C288 C293 1.499 . S
N289 Co272 1.989 . S
N289 C288 1.342 . S
N289 N290 1.388 . S
N290 Co273 1.993 . S
N290 N289 1.388 . S
N290 C291 1.346 . S
C291 N290 1.346 . S
C291 C292 1.396 . S
C291 C301 1.510 . S
C292 C288 1.401 . S
C292 C291 1.396 . S
C293 C288 1.499 . S
C293 H294 0.959 . S
C293 H295 0.960 . S
C293 H296 0.961 . S
H294 C293 0.959 . S
H295 C293 0.960 . S
H296 C293 0.961 . S
O297 Co272 1.967 1_565 S
O297 C305 1.258 . S
O298 Co273 1.941 . S
O298 C305 1.266 1_545 S
H299 C301 0.959 . S
H300 C301 0.961 . S
C301 C291 1.510 . S
C301 H299 0.959 . S
C301 H300 0.961 . S
C301 H302 0.960 . S
H302 C301 0.960 . S
H303 N283 0.862 . S
O304 Co272 1.920 . S
O304 C277 1.289 . S
C305 O297 1.258 . S
C305 O298 1.266 1_565 S
Co306 O309 1.970 . S
Co306 N323 1.989 . S
Co306 O331 1.967 . S
Co306 O338 1.920 . S
Co307 O310 1.966 . S
Co307 N316 2.022 . S
Co307 N324 1.993 . S
Co307 O332 1.941 . S
C308 O309 1.258 . S
C308 O310 1.263 . S
O309 Co306 1.970 . S
O309 C308 1.258 . S
O310 Co307 1.966 . S
O310 C308 1.263 . S
C311 O312 1.235 . S
C311 O338 1.289 . S
O312 C311 1.235 . S
C313 C315 1.400 1_556 S
C313 N316 1.351 . S
C313 C318 1.501 . S
C314 C315 1.387 1_556 S
C314 N317 1.341 . S
C315 C313 1.400 1_554 S
C315 C314 1.387 1_554 S
N316 Co307 2.022 . S
N316 C313 1.351 . S
N316 N317 1.365 . S
N317 C314 1.341 . S
N317 N316 1.365 . S
N317 H337 0.862 . S
C318 C313 1.501 . S
C318 H319 0.961 . S
C318 H320 0.961 . S
C318 H321 0.960 1_556 S
H319 C318 0.961 . S
H320 C318 0.961 . S
H321 C318 0.960 1_554 S
C322 N323 1.342 . S
C322 C326 1.401 . S
C322 C327 1.499 . S
N323 Co306 1.989 . S
N323 C322 1.342 . S
N323 N324 1.388 . S
N324 Co307 1.993 . S
N324 N323 1.388 . S
N324 C325 1.346 . S
C325 N324 1.346 . S
C325 C326 1.396 . S
C325 C335 1.510 . S
C326 C322 1.401 . S
C326 C325 1.396 . S
C327 C322 1.499 . S
C327 H328 0.959 . S
C327 H329 0.960 . S
C327 H330 0.961 . S
H328 C327 0.959 . S
H329 C327 0.960 . S
H330 C327 0.961 . S
O331 Co306 1.967 . S
O331 C339 1.258 . S
O332 Co307 1.941 . S
O332 C339 1.266 . S
H333 C335 0.959 . S
H334 C335 0.961 . S
C335 C325 1.510 . S
C335 H333 0.959 . S
C335 H334 0.961 . S
C335 H336 0.960 . S
H336 C335 0.960 . S
H337 N317 0.862 . S
O338 Co306 1.920 . S
O338 C311 1.289 . S
C339 O331 1.258 . S
C339 O332 1.266 . S
Co340 O343 1.978 . S
Co340 N357 1.988 1_554 S
Co340 O365 1.972 1_655 S
Co340 O372 1.909 1_554 S
Co341 O344 1.966 . S
Co341 N350 2.022 . S
Co341 N358 1.993 . S
Co341 O366 1.941 . S
C342 O343 1.258 . S
C342 O344 1.263 . S
O343 Co340 1.978 . S
O343 C342 1.258 . S
O344 Co341 1.966 . S
O344 C342 1.263 . S
C345 O346 1.235 . S
C345 O372 1.289 . S
O346 C345 1.235 . S
C347 C349 1.400 . S
C347 N350 1.351 . S
C347 C352 1.501 . S
C348 C349 1.387 . S
C348 N351 1.341 . S
C349 C347 1.400 . S
C349 C348 1.387 . S
N350 Co341 2.022 . S
N350 C347 1.351 . S
N350 N351 1.365 . S
N351 C348 1.341 . S
N351 N350 1.365 . S
N351 H371 0.862 . S
C352 C347 1.501 . S
C352 H353 0.961 . S
C352 H354 0.961 . S
C352 H355 0.960 . S
H353 C352 0.961 . S
H354 C352 0.961 . S
H355 C352 0.960 . S
C356 N357 1.342 . S
C356 C360 1.401 . S
C356 C361 1.499 . S
N357 Co340 1.988 1_556 S
N357 C356 1.342 . S
N357 N358 1.388 1_556 S
N358 Co341 1.993 . S
N358 N357 1.388 1_554 S
N358 C359 1.346 . S
C359 N358 1.346 . S
C359 C360 1.396 1_554 S
C359 C369 1.510 . S
C360 C356 1.401 . S
C360 C359 1.396 1_556 S
C361 C356 1.499 . S
C361 H362 0.959 . S
C361 H363 0.960 . S
C361 H364 0.961 . S
H362 C361 0.959 . S
H363 C361 0.960 . S
H364 C361 0.961 . S
O365 Co340 1.972 1_455 S
O365 C373 1.258 . S
O366 Co341 1.941 . S
O366 C373 1.266 1_655 S
H367 C369 0.959 . S
H368 C369 0.961 . S
C369 C359 1.510 . S
C369 H367 0.959 . S
C369 H368 0.961 . S
C369 H370 0.960 . S
H370 C369 0.960 . S
H371 N351 0.862 . S
O372 Co340 1.909 1_556 S
O372 C345 1.289 . S
C373 O365 1.258 . S
C373 O366 1.266 1_455 S
Co374 O377 1.970 . S
Co374 N391 1.989 . S
Co374 O399 1.967 1_565 S
Co374 O406 1.920 . S
Co375 O378 1.966 . S
Co375 N384 2.022 . S
Co375 N392 1.993 . S
Co375 O400 1.941 . S
C376 O377 1.258 . S
C376 O378 1.263 . S
O377 Co374 1.970 . S
O377 C376 1.258 . S
O378 Co375 1.966 . S
O378 C376 1.263 . S
C379 O380 1.235 . S
C379 O406 1.289 . S
O380 C379 1.235 . S
C381 C383 1.400 . S
C381 N384 1.351 . S
C381 C386 1.501 . S
C382 C383 1.387 . S
C382 N385 1.341 . S
C383 C381 1.400 . S
C383 C382 1.387 . S
N384 Co375 2.022 . S
N384 C381 1.351 . S
N384 N385 1.365 . S
N385 C382 1.341 . S
N385 N384 1.365 . S
N385 H405 0.862 . S
C386 C381 1.501 . S
C386 H387 0.961 . S
C386 H388 0.961 . S
C386 H389 0.960 . S
H387 C386 0.961 . S
H388 C386 0.961 . S
H389 C386 0.960 . S
C390 N391 1.342 . S
C390 C394 1.401 . S
C390 C395 1.499 . S
N391 Co374 1.989 . S
N391 C390 1.342 . S
N391 N392 1.388 . S
N392 Co375 1.993 . S
N392 N391 1.388 . S
N392 C393 1.346 . S
C393 N392 1.346 . S
C393 C394 1.396 . S
C393 C403 1.510 . S
C394 C390 1.401 . S
C394 C393 1.396 . S
C395 C390 1.499 . S
C395 H396 0.959 . S
C395 H397 0.960 . S
C395 H398 0.961 . S
H396 C395 0.959 . S
H397 C395 0.960 . S
H398 C395 0.961 . S
O399 Co374 1.967 1_545 S
O399 C407 1.258 . S
O400 Co375 1.941 . S
O400 C407 1.266 1_565 S
H401 C403 0.959 . S
H402 C403 0.961 . S
C403 C393 1.510 . S
C403 H401 0.959 . S
C403 H402 0.961 . S
C403 H404 0.960 . S
H404 C403 0.960 . S
H405 N385 0.862 . S
O406 Co374 1.920 . S
O406 C379 1.289 . S
C407 O399 1.258 . S
C407 O400 1.266 1_545 S
C408 C409 1.170 . S
C408 C410 1.380 . S
C409 C408 1.170 . S
C410 C408 1.380 . S
C410 C411 1.170 . S
C411 C410 1.170 . S
C412 C413 1.170 . S
C412 C414 1.380 . S
C413 C412 1.170 . S
C414 C412 1.380 . S
C414 C415 1.170 . S
C415 C414 1.170 . S
C416 C417 1.170 . S
C416 C418 1.380 . S
C417 C416 1.170 . S
C418 C416 1.380 . S
C418 C419 1.170 . S
C419 C418 1.170 . S
C420 C421 1.170 . S
C420 C422 1.380 . S
C421 C420 1.170 . S
C422 C420 1.380 . S
C422 C423 1.170 . S
C423 C422 1.170 . S
C424 C425 1.170 . S
C424 C426 1.380 . S
C425 C424 1.170 . S
C426 C424 1.380 . S
C426 C427 1.170 . S
C427 C426 1.170 . S
C428 C429 1.170 . S
C428 C430 1.380 . S
C429 C428 1.170 . S
C430 C428 1.380 . S
C430 C431 1.170 . S
C431 C430 1.170 . S
C432 C433 1.170 . S
C432 C434 1.380 . S
C433 C432 1.170 . S
C434 C432 1.380 . S
C434 C435 1.170 . S
C435 C434 1.170 . S
C436 C437 1.170 . S
C436 C438 1.380 . S
C437 C436 1.170 . S
C438 C436 1.380 . S
C438 C439 1.170 . S
C439 C438 1.170 . S
C440 C441 1.170 . S
C440 C442 1.380 . S
C441 C440 1.170 . S
C442 C440 1.380 . S
C442 C443 1.170 . S
C443 C442 1.170 . S
C444 C445 1.170 . S
C444 C446 1.380 . S
C445 C444 1.170 . S
C446 C444 1.380 . S
C446 C447 1.170 . S
C447 C446 1.170 . S
C448 C449 1.170 . S
C448 C450 1.380 . S
C449 C448 1.170 . S
C450 C448 1.380 . S
C450 C451 1.170 . S
C451 C450 1.170 . S
C452 C453 1.170 . S
C452 C454 1.380 . S
C453 C452 1.170 . S
C454 C452 1.380 . S
C454 C455 1.170 . S
C455 C454 1.170 . S
C456 C457 1.170 . S
C456 C458 1.380 . S
C457 C456 1.170 . S
C458 C456 1.380 . S
C458 C459 1.170 . S
C459 C458 1.170 . S
C460 C461 1.170 . S
C460 C462 1.380 . S
C461 C460 1.170 . S
C462 C460 1.380 . S
C462 C463 1.170 . S
C463 C462 1.170 . S
C464 C465 1.170 . S
C464 C466 1.380 . S
C465 C464 1.170 . S
C466 C464 1.380 . S
C466 C467 1.170 . S
C467 C466 1.170 . S
C468 C469 1.170 . S
C468 C470 1.380 . S
C469 C468 1.170 . S
C470 C468 1.380 . S
C470 C471 1.170 . S
C471 C470 1.170 . S
C472 C473 1.170 . S
C472 C474 1.380 . S
C473 C472 1.170 . S
C474 C472 1.380 . S
C474 C475 1.170 . S
C475 C474 1.170 . S
C476 C477 1.170 . S
C476 C478 1.380 . S
C477 C476 1.170 . S
C478 C476 1.380 . S
C478 C479 1.170 . S
C479 C478 1.170 . S
C480 C481 1.170 . S
C480 C482 1.380 . S
C481 C480 1.170 . S
C482 C480 1.380 . S
C482 C483 1.170 . S
C483 C482 1.170 . S
C484 C485 1.170 . S
C484 C486 1.380 . S
C485 C484 1.170 . S
C486 C484 1.380 . S
C486 C487 1.170 . S
C487 C486 1.170 . S
C488 C489 1.170 . S
C488 C490 1.380 . S
C489 C488 1.170 . S
C490 C488 1.380 . S
C490 C491 1.170 . S
C491 C490 1.170 . S
C492 C493 1.170 . S
C492 C494 1.380 . S
C493 C492 1.170 . S
C494 C492 1.380 . S
C494 C495 1.170 . S
C495 C494 1.170 . S
C496 C497 1.170 . S
C496 C498 1.380 . S
C497 C496 1.170 . S
C498 C496 1.380 . S
C498 C499 1.170 . S
C499 C498 1.170 . S
C500 C501 1.170 . S
C500 C502 1.380 . S
C501 C500 1.170 . S
C502 C500 1.380 . S
C502 C503 1.170 . S
C503 C502 1.170 . S
C504 C505 1.170 . S
C504 C506 1.380 . S
C505 C504 1.170 . S
C506 C504 1.380 . S
C506 C507 1.170 . S
C507 C506 1.170 . S
C508 C509 1.170 1_655 S
C508 C510 1.380 . S
C509 C508 1.170 1_455 S
C510 C508 1.380 . S
C510 C511 1.170 . S
C511 C510 1.170 . S
C512 C513 1.170 . S
C512 C514 1.380 1_546 S
C513 C512 1.170 . S
C514 C512 1.380 1_564 S
C514 C515 1.170 . S
C515 C514 1.170 . S
C516 C517 1.170 . S
C516 C518 1.380 . S
C517 C516 1.170 . S
C518 C516 1.380 . S
C518 C519 1.170 . S
C519 C518 1.170 . S
C520 C521 1.170 . S
C520 C522 1.380 1_655 S
C521 C520 1.170 . S
C522 C520 1.380 1_455 S
C522 C523 1.170 . S
C523 C522 1.170 . S
C524 C525 1.170 . S
C524 C526 1.380 1_545 S
C525 C524 1.170 . S
C526 C524 1.380 1_565 S
C526 C527 1.170 . S
C527 C526 1.170 . S
C409 C292 1.083 . S
C411 C20 1.052 . S
C413 C54 1.080 . S
C415 C326 1.074 . S
C417 C88 1.074 . S
C419 C360 1.042 . S
C421 C122 1.082 . S
C423 C394 1.070 . S
C425 C156 1.082 . S
C427 C224 1.050 . S
C429 C190 1.040 . S
C431 C258 1.067 . S
C433 C9 1.660 . S
C435 C203 1.888 . S
C437 C33 1.897 . S
C439 C43 1.663 . S
C441 C77 1.674 . S
C443 C67 1.890 . S
C445 C101 1.900 . S
C447 C111 1.706 . S
C449 C135 1.899 . S
C451 C145 1.705 . S
C453 C179 1.707 . S
C455 C169 1.900 . S
C457 C271 1.892 . S
C459 C213 1.651 . S
C461 C305 1.903 . S
C463 C247 1.704 . S
C465 C339 1.897 . S
C467 C281 1.700 . S
C469 C373 1.891 . S
C471 C315 1.679 . S
C473 C407 1.890 . S
C475 C349 1.650 . S
C477 C383 1.662 . S
C479 C237 1.888 . S
C481 C2 1.193 . S
C483 C206 1.192 . S
C485 C36 1.215 . S
C487 C240 1.169 . S
C489 C70 1.217 . S
C491 C274 1.166 . S
C493 C104 1.166 . S
C495 C308 1.217 . S
C497 C342 1.219 . S
C499 C138 1.163 . S
C501 C172 1.183 . S
C503 C376 1.202 . S
C505 C311 1.410 . S
C507 C5 1.428 . S
C509 C39 1.420 . S
C511 C345 1.400 . S
C513 C73 1.427 . S
C515 C379 1.427 . S
C517 C107 1.405 . S
C519 C209 1.395 . S
C521 C141 1.408 . S
C523 C243 1.395 . S
C525 C277 1.395 . S
C527 C175 1.407 . S
