# Generated by pormake.
# Topology umd, (4)-cn, num edge types: 1
# Building blocks:
#     Node 0, Type 0, BuildingBlock: ICAMEG_clean_sbu_1, # of connection points: 4
#     Node 1, Type 0, BuildingBlock: ICAMEG_clean_sbu_1, # of connection points: 4
#     Node 2, Type 0, BuildingBlock: ICAMEG_clean_sbu_1, # of connection points: 4
#     Node 3, Type 0, BuildingBlock: ICAMEG_clean_sbu_1, # of connection points: 4
#     Node 4, Type 0, BuildingBlock: ICAMEG_clean_sbu_1, # of connection points: 4
#     Node 5, Type 0, BuildingBlock: ICAMEG_clean_sbu_1, # of connection points: 4
#     Node 6, Type 0, BuildingBlock: ICAMEG_clean_sbu_1, # of connection points: 4
#     Node 7, Type 0, BuildingBlock: ICAMEG_clean_sbu_1, # of connection points: 4
#     Node 8, Type 0, BuildingBlock: ICAMEG_clean_sbu_1, # of connection points: 4
#     Node 9, Type 0, BuildingBlock: ICAMEG_clean_sbu_1, # of connection points: 4
#     Node 10, Type 0, BuildingBlock: ICAMEG_clean_sbu_1, # of connection points: 4
#     Node 11, Type 0, BuildingBlock: ICAMEG_clean_sbu_1, # of connection points: 4
#     Node 12, Type 0, BuildingBlock: ICAMEG_clean_sbu_1, # of connection points: 4
#     Node 13, Type 0, BuildingBlock: ICAMEG_clean_sbu_1, # of connection points: 4
#     Node 14, Type 0, BuildingBlock: ICAMEG_clean_sbu_1, # of connection points: 4
#     Node 15, Type 0, BuildingBlock: ICAMEG_clean_sbu_1, # of connection points: 4
#     Edge 16, Type (0, 0), None
#     Edge 17, Type (0, 0), None
#     Edge 18, Type (0, 0), None
#     Edge 19, Type (0, 0), None
#     Edge 20, Type (0, 0), None
#     Edge 21, Type (0, 0), None
#     Edge 22, Type (0, 0), None
#     Edge 23, Type (0, 0), None
#     Edge 24, Type (0, 0), None
#     Edge 25, Type (0, 0), None
#     Edge 26, Type (0, 0), None
#     Edge 27, Type (0, 0), None
#     Edge 28, Type (0, 0), None
#     Edge 29, Type (0, 0), None
#     Edge 30, Type (0, 0), None
#     Edge 31, Type (0, 0), None
#     Edge 32, Type (0, 0), None
#     Edge 33, Type (0, 0), None
#     Edge 34, Type (0, 0), None
#     Edge 35, Type (0, 0), None
#     Edge 36, Type (0, 0), None
#     Edge 37, Type (0, 0), None
#     Edge 38, Type (0, 0), None
#     Edge 39, Type (0, 0), None
#     Edge 40, Type (0, 0), None
#     Edge 41, Type (0, 0), None
#     Edge 42, Type (0, 0), None
#     Edge 43, Type (0, 0), None
#     Edge 44, Type (0, 0), None
#     Edge 45, Type (0, 0), None
#     Edge 46, Type (0, 0), None
#     Edge 47, Type (0, 0), None
# Relax obj value: 0.060
# Max RMSD: 0.150
# Mean RMSD: 0.150
data_MOF--net-umd--node1-ICAMEG_clean_sbu_1--edge1-none
_symmetry_space_group_name_H-M    P1
_symmetry_Int_Tables_number       1
_symmetry_cell_setting            triclinic
loop_
_symmetry_equiv_pos_as_xyz
'x, y, z'
_cell_length_a     19.93232
_cell_length_b     19.79355
_cell_length_c     29.179518
_cell_angle_alpha  90.003015
_cell_angle_beta   90.015463
_cell_angle_gamma 90.538752
loop_
_atom_site_label
_atom_site_type_symbol
_atom_site_fract_x
_atom_site_fract_y
_atom_site_fract_z
_atom_type_partial_charge
Co0 Co 0.17438 0.57168 0.11684 0.0
Co1 Co 0.1612 0.40047 0.14882 0.0
O2 O 0.2004 0.4749 0.1117 0.0
C3 C 0.15839 0.53813 0.01749 0.0
O4 O 0.12996 0.4845 0.03498 0.0
C5 C 0.30749 0.36375 0.16628 0.0
O6 O 0.31612 0.41779 0.19162 0.0
O7 O 0.18954 0.44841 0.20338 0.0
O8 O 0.16151 0.55687 0.18961 0.0
H9 H 0.19462 0.22864 0.27273 0.0
H10 H 0.31815 0.56103 0.06904 0.0
O11 O 0.18601 0.58004 0.04547 0.0
H12 H 0.3105 0.70812 0.2426 0.0
H13 H 0.20052 0.79761 0.04555 0.0
H14 H 0.05722 0.65522 0.14244 0.0
H15 H 0.21169 0.66225 0.19084 0.0
H16 H 0.23498 0.68611 0.06856 0.0
O17 O 0.25209 0.35383 0.14511 0.0
H18 H 0.22207 0.32822 0.22565 0.0
H19 H 0.04048 0.31341 0.1561 0.0
H20 H 0.02617 0.77836 0.12694 0.0
H21 H 0.44819 0.59201 0.09344 0.0
H22 H 0.09581 0.84598 0.07679 0.0
H23 H 0.44407 0.69205 0.2185 0.0
O24 O 0.07632 0.54382 0.10927 0.0
H25 H 0.12317 0.1749 0.08674 0.0
H26 H 0.05457 0.41068 0.07182 0.0
H27 H 0.99263 0.32232 0.03075 0.0
H28 H 0.023 0.20327 0.04096 0.0
H29 H 0.19353 0.26369 0.11748 0.0
H30 H 0.01023 0.20814 0.20003 0.0
H31 H 0.0862 0.16873 0.25986 0.0
O32 O 0.06709 0.44859 0.15191 0.0
C33 C 0.17563 0.50644 0.21768 0.0
C34 C 0.15966 0.24672 0.24724 0.0
C35 C 0.05626 0.23573 0.20631 0.0
N36 N 0.13118 0.3278 0.18919 0.0
C37 C 0.17487 0.30358 0.22087 0.0
C38 C 0.0725 0.29479 0.18208 0.0
C39 C 0.09945 0.21281 0.23982 0.0
C40 C 0.32683 0.58958 0.10009 0.0
N41 N 0.26576 0.60846 0.13137 0.0
C42 C 0.40733 0.60784 0.11594 0.0
C43 C 0.40446 0.67185 0.19637 0.0
C44 C 0.32309 0.68067 0.21191 0.0
C45 C 0.26071 0.65015 0.1781 0.0
C46 C 0.17042 0.76948 0.06981 0.0
C47 C 0.09061 0.68999 0.12584 0.0
C48 C 0.18981 0.7056 0.08373 0.0
N49 N 0.15058 0.66647 0.11228 0.0
C50 C 0.07233 0.75689 0.11577 0.0
C51 C 0.1118 0.79604 0.08693 0.0
C52 C 0.04056 0.50208 0.13307 0.0
C53 C 0.11082 0.22708 0.0804 0.0
C54 C 0.07473 0.36082 0.07191 0.0
C55 C 0.03676 0.31033 0.05023 0.0
C56 C 0.05371 0.24293 0.05586 0.0
N57 N 0.13109 0.34517 0.09645 0.0
C58 C 0.15166 0.27905 0.09712 0.0
Co59 Co 0.43393 0.17182 0.63064 0.0
Co60 Co 0.60209 0.17414 0.66029 0.0
O61 O 0.52619 0.20625 0.62342 0.0
C62 C 0.47269 0.15964 0.53247 0.0
O63 O 0.52756 0.13753 0.55102 0.0
C64 C 0.64221 0.32249 0.66902 0.0
O65 O 0.59142 0.33574 0.69601 0.0
O66 O 0.55598 0.20731 0.71538 0.0
O67 O 0.45159 0.16535 0.70326 0.0
H68 H 0.70846 0.06875 0.79625 0.0
H69 H 0.44518 0.30878 0.57708 0.0
O70 O 0.42474 0.17825 0.55927 0.0
H71 H 0.28938 0.31871 0.74609 0.0
H72 H 0.19848 0.1525 0.57274 0.0
H73 H 0.3699 0.04731 0.66735 0.0
H74 H 0.33991 0.2136 0.70233 0.0
H75 H 0.30749 0.20948 0.58475 0.0
O76 O 0.6448 0.26607 0.64823 0.0
H77 H 0.61936 0.08471 0.74033 0.0
H78 H 0.74458 0.23013 0.67547 0.0
H79 H 0.25718 0.99301 0.65957 0.0
H80 H 0.41733 0.4419 0.59485 0.0
H81 H 0.16933 0.04971 0.61514 0.0
H82 H 0.31233 0.45098 0.71743 0.0
O83 O 0.46755 0.0771 0.62459 0.0
H84 H 0.81416 0.14962 0.57184 0.0
H85 H 0.58968 0.05276 0.59232 0.0
H86 H 0.67063 0.99163 0.54792 0.0
H87 H 0.78762 0.03442 0.54321 0.0
H88 H 0.72595 0.21766 0.60442 0.0
H89 H 0.81686 0.23339 0.74113 0.0
H90 H 0.80374 0.14783 0.80189 0.0
O91 O 0.55728 0.07745 0.67056 0.0
C92 C 0.50112 0.18416 0.73095 0.0
C93 C 0.7129 0.1083 0.77221 0.0
C94 C 0.77718 0.19624 0.73897 0.0
N95 N 0.67701 0.15434 0.70106 0.0
C96 C 0.66507 0.11406 0.73775 0.0
C97 C 0.73369 0.19457 0.70159 0.0
C98 C 0.76827 0.15052 0.77386 0.0
C99 C 0.41548 0.32059 0.60696 0.0
N100 N 0.39355 0.26234 0.6405 0.0
C101 C 0.3995 0.40323 0.61884 0.0
C102 C 0.33283 0.40891 0.6978 0.0
C103 C 0.32061 0.32839 0.71669 0.0
C104 C 0.35099 0.26188 0.68672 0.0
C105 C 0.23329 0.13338 0.59731 0.0
C106 C 0.33043 0.07355 0.64993 0.0
C107 C 0.29584 0.1642 0.60392 0.0
N108 N 0.34317 0.13514 0.63146 0.0
C109 C 0.26702 0.04274 0.64551 0.0
C110 C 0.21765 0.07406 0.62009 0.0
C111 C 0.50562 0.04607 0.65262 0.0
C112 C 0.76446 0.12822 0.5765 0.0
C113 C 0.63742 0.0762 0.58826 0.0
C114 C 0.68398 0.04019 0.56257 0.0
C115 C 0.74946 0.06403 0.56006 0.0
N116 N 0.65296 0.13774 0.6074 0.0
C117 C 0.71387 0.16623 0.59653 0.0
Co118 Co 0.82956 0.44362 0.11872 0.0
Co119 Co 0.84331 0.61226 0.14906 0.0
O120 O 0.80244 0.53813 0.11454 0.0
C121 C 0.85753 0.43134 0.01673 0.0
O122 O 0.91852 0.41578 0.02897 0.0
C123 C 0.69888 0.65082 0.16452 0.0
O124 O 0.68981 0.59545 0.18839 0.0
O125 O 0.81554 0.5671 0.20484 0.0
O126 O 0.84349 0.45783 0.19127 0.0
H127 H 0.81416 0.78601 0.27215 0.0
H128 H 0.68648 0.45493 0.07119 0.0
O129 O 0.81383 0.44343 0.0482 0.0
H130 H 0.69389 0.30524 0.24371 0.0
H131 H 0.80413 0.21946 0.04477 0.0
H132 H 0.94534 0.35844 0.14578 0.0
H133 H 0.79292 0.35241 0.19259 0.0
H134 H 0.7703 0.33167 0.0678 0.0
O135 O 0.75462 0.66179 0.144 0.0
H136 H 0.784 0.6875 0.22485 0.0
H137 H 0.96449 0.69854 0.1543 0.0
H138 H 0.97467 0.23519 0.13076 0.0
H139 H 0.55674 0.42295 0.09486 0.0
H140 H 0.90705 0.16955 0.07771 0.0
H141 H 0.56036 0.32109 0.21923 0.0
O142 O 0.92733 0.47082 0.11025 0.0
H143 H 0.92091 0.8186 0.07146 0.0
H144 H 0.91164 0.57062 0.06153 0.0
H145 H 0.99951 0.63258 0.01911 0.0
H146 H 0.00689 0.75751 0.02626 0.0
H147 H 0.83496 0.75377 0.11363 0.0
H148 H 0.99758 0.80378 0.19807 0.0
H149 H 0.92304 0.8446 0.25831 0.0
O150 O 0.93733 0.56462 0.1532 0.0
C151 C 0.82928 0.50871 0.21911 0.0
C152 C 0.84837 0.76755 0.24631 0.0
C153 C 0.95126 0.77689 0.20466 0.0
N154 N 0.87434 0.68665 0.18757 0.0
C155 C 0.83159 0.71138 0.21972 0.0
C156 C 0.93367 0.71809 0.18051 0.0
C157 C 0.90897 0.80052 0.23849 0.0
C158 C 0.67787 0.42584 0.102 0.0
N159 N 0.73878 0.40669 0.13335 0.0
C160 C 0.5975 0.40693 0.1174 0.0
C161 C 0.60004 0.34172 0.19737 0.0
C162 C 0.68136 0.3331 0.21318 0.0
C163 C 0.74385 0.36446 0.17983 0.0
C164 C 0.83386 0.24718 0.0695 0.0
C165 C 0.9122 0.32462 0.12797 0.0
C166 C 0.81482 0.31125 0.08332 0.0
N167 N 0.85349 0.3493 0.11281 0.0
C168 C 0.92987 0.25764 0.11794 0.0
C169 C 0.89146 0.21968 0.08767 0.0
C170 C 0.96381 0.51203 0.13361 0.0
C171 C 0.91955 0.76403 0.06932 0.0
C172 C 0.91423 0.6247 0.06428 0.0
C173 C 0.96412 0.65957 0.04029 0.0
C174 C 0.96813 0.72965 0.04429 0.0
N175 N 0.87325 0.6582 0.09379 0.0
C176 C 0.86968 0.72706 0.09196 0.0
Co177 Co 0.57243 0.84309 0.6315 0.0
Co178 Co 0.40436 0.84021 0.66074 0.0
O179 O 0.48055 0.80803 0.62436 0.0
C180 C 0.53354 0.85097 0.53233 0.0
O181 O 0.47513 0.86561 0.54935 0.0
C182 C 0.3638 0.69224 0.67011 0.0
O183 O 0.41394 0.67946 0.69779 0.0
O184 O 0.45004 0.80736 0.71609 0.0
O185 O 0.55458 0.84904 0.70416 0.0
H186 H 0.29782 0.94658 0.79606 0.0
H187 H 0.56139 0.70694 0.57749 0.0
O188 O 0.58219 0.83783 0.56016 0.0
H189 H 0.7165 0.69533 0.74682 0.0
H190 H 0.80845 0.86325 0.57477 0.0
H191 H 0.63581 0.9676 0.66883 0.0
H192 H 0.66638 0.80093 0.7033 0.0
H193 H 0.69934 0.80612 0.58597 0.0
O194 O 0.36184 0.74818 0.64868 0.0
H195 H 0.38685 0.93 0.74038 0.0
H196 H 0.2619 0.78372 0.67608 0.0
H197 H 0.74839 0.0224 0.66145 0.0
H198 H 0.58896 0.57366 0.59477 0.0
H199 H 0.83685 0.96605 0.6174 0.0
H200 H 0.69359 0.56336 0.71748 0.0
O201 O 0.5385 0.93742 0.62511 0.0
H202 H 0.19267 0.86655 0.57218 0.0
H203 H 0.41991 0.95818 0.5904 0.0
H204 H 0.3392 0.02121 0.54656 0.0
H205 H 0.22132 0.98072 0.54255 0.0
H206 H 0.27972 0.79758 0.60549 0.0
H207 H 0.19027 0.78043 0.74188 0.0
H208 H 0.20254 0.86711 0.80197 0.0
O209 O 0.44867 0.9372 0.67085 0.0
C210 C 0.50507 0.82994 0.73175 0.0
C211 C 0.29329 0.90673 0.77216 0.0
C212 C 0.22949 0.818 0.73944 0.0
N213 N 0.32923 0.86012 0.70124 0.0
C214 C 0.34116 0.90064 0.73781 0.0
C215 C 0.27278 0.8196 0.702 0.0
C216 C 0.23807 0.86429 0.77401 0.0
C217 C 0.591 0.69483 0.60736 0.0
N218 N 0.61297 0.75275 0.64117 0.0
C219 C 0.60681 0.6121 0.61894 0.0
C220 C 0.67326 0.60564 0.69797 0.0
C221 C 0.68553 0.68597 0.71723 0.0
C222 C 0.65535 0.75279 0.68747 0.0
C223 C 0.77328 0.88227 0.59912 0.0
C224 C 0.67547 0.94164 0.65141 0.0
C225 C 0.7107 0.85132 0.6053 0.0
N226 N 0.66305 0.88014 0.63268 0.0
C227 C 0.73883 0.97268 0.64728 0.0
C228 C 0.78853 0.94157 0.62206 0.0
C229 C 0.5002 0.96861 0.65282 0.0
C230 C 0.24277 0.88711 0.57661 0.0
C231 C 0.37106 0.93664 0.58745 0.0
C232 C 0.32493 0.97332 0.56181 0.0
C233 C 0.25897 0.95071 0.55961 0.0
N234 N 0.35408 0.87616 0.60753 0.0
C235 C 0.29261 0.84863 0.59708 0.0
Co236 Co 0.16472 0.4328 0.36645 0.0
Co237 Co 0.16242 0.60394 0.34503 0.0
O238 O 0.19752 0.52541 0.37895 0.0
C239 C 0.17931 0.4502 0.47026 0.0
O240 O 0.21365 0.50646 0.46464 0.0
C241 C 0.3078 0.64763 0.33575 0.0
O242 O 0.31767 0.59628 0.30827 0.0
O243 O 0.19571 0.56583 0.28731 0.0
O244 O 0.16312 0.45725 0.2953 0.0
H245 H 0.04865 0.69085 0.20966 0.0
H246 H 0.29898 0.44682 0.42633 0.0
O247 O 0.16088 0.41421 0.43571 0.0
H248 H 0.32188 0.29267 0.25801 0.0
H249 H 0.12399 0.19188 0.4108 0.0
H250 H 0.06115 0.37299 0.30432 0.0
H251 H 0.2147 0.34484 0.29832 0.0
H252 H 0.18709 0.29972 0.41023 0.0
O253 O 0.25217 0.6524 0.35763 0.0
H254 H 0.05961 0.6183 0.27145 0.0
H255 H 0.21156 0.74732 0.32745 0.0
H256 H 1.00147 0.26188 0.30238 0.0
H257 H 0.43151 0.42149 0.41339 0.0
H258 H 0.03442 0.17119 0.35442 0.0
H259 H 0.4515 0.31891 0.29021 0.0
O260 O 0.07023 0.46154 0.372 0.0
H261 H 0.0318 0.78183 0.42601 0.0
H262 H 0.10582 0.5467 0.43045 0.0
H263 H 0.01225 0.58022 0.4778 0.0
H264 H 0.96881 0.69769 0.47213 0.0
H265 H 0.1273 0.74683 0.38029 0.0
H266 H 0.21528 0.80689 0.25715 0.0
H267 H 0.12531 0.78947 0.1985 0.0
O268 O 0.07089 0.55956 0.33529 0.0
C269 C 0.17654 0.51056 0.26977 0.0
C270 C 0.08432 0.70462 0.23471 0.0
C271 C 0.17561 0.77113 0.26219 0.0
N272 N 0.13452 0.67793 0.30644 0.0
C273 C 0.08954 0.66357 0.27244 0.0
C274 C 0.17566 0.73315 0.30182 0.0
C275 C 0.12754 0.75896 0.22902 0.0
C276 C 0.31219 0.41816 0.39667 0.0
N277 N 0.25718 0.39594 0.36079 0.0
C278 C 0.39534 0.40348 0.38785 0.0
C279 C 0.40801 0.33815 0.30867 0.0
C280 C 0.32967 0.32534 0.28686 0.0
C281 C 0.26125 0.35475 0.31459 0.0
C282 C 0.11295 0.22999 0.38574 0.0
C283 C 0.07667 0.33265 0.32677 0.0
C284 C 0.14716 0.29179 0.38572 0.0
N285 N 0.12826 0.34262 0.35684 0.0
C286 C 0.04219 0.27081 0.32573 0.0
C287 C 0.06126 0.21898 0.3548 0.0
C288 C 0.03988 0.50816 0.35128 0.0
C289 C 0.04682 0.72949 0.42603 0.0
C290 C 0.09228 0.5988 0.43007 0.0
C291 C 0.03689 0.61725 0.45622 0.0
C292 C 0.01223 0.68246 0.4526 0.0
N293 N 0.12171 0.64292 0.39992 0.0
C294 C 0.10217 0.70904 0.40034 0.0
Co295 Co 0.55356 0.18712 0.88586 0.0
Co296 Co 0.38743 0.15701 0.85326 0.0
O297 O 0.45667 0.20309 0.88886 0.0
C298 C 0.51632 0.15799 0.98225 0.0
O299 O 0.47185 0.11821 0.96309 0.0
C300 C 0.35392 0.30339 0.82886 0.0
O301 O 0.40736 0.30581 0.80281 0.0
O302 O 0.43414 0.18029 0.79635 0.0
O303 O 0.54582 0.18056 0.81242 0.0
H304 H 0.31089 0.01866 0.72389 0.0
H305 H 0.46541 0.31506 0.886 0.0
O306 O 0.55404 0.19438 0.95647 0.0
H307 H 0.68403 0.45831 0.80238 0.0
H308 H 0.77346 0.18846 0.96806 0.0
H309 H 0.63737 0.08035 0.84828 0.0
H310 H 0.6946 0.27772 0.86873 0.0
H311 H 0.66547 0.23527 0.9458 0.0
O312 O 0.33761 0.248 0.84954 0.0
H313 H 0.3918 0.07302 0.77161 0.0
H314 H 0.23221 0.14824 0.8519 0.0
H315 H 0.75043 0.03532 0.86601 0.0
H316 H 0.45416 0.42534 0.84077 0.0
H317 H 0.81919 0.08989 0.92594 0.0
H318 H 0.55552 0.49617 0.79716 0.0
O319 O 0.53625 0.08533 0.88967 0.0
H320 H 0.18142 0.16184 0.9448 0.0
H321 H 0.39052 0.03879 0.92308 0.0
H322 H 0.30231 0.9884 0.96843 0.0
H323 H 0.19032 0.04238 0.96943 0.0
H324 H 0.2796 0.221 0.9145 0.0
H325 H 0.15286 0.07481 0.8098 0.0
H326 H 0.1902 0.02101 0.739 0.0
O327 O 0.43846 0.06594 0.85386 0.0
C328 C 0.49457 0.18149 0.78329 0.0
C329 C 0.29289 0.05069 0.74956 0.0
C330 C 0.20463 0.08012 0.79967 0.0
N331 N 0.31837 0.11415 0.81627 0.0
C332 C 0.33915 0.0799 0.77872 0.0
C333 C 0.25119 0.11712 0.82555 0.0
C334 C 0.2253 0.04948 0.75992 0.0
C335 C 0.51184 0.331 0.87087 0.0
N336 N 0.57704 0.28717 0.87879 0.0
C337 C 0.50437 0.40581 0.84236 0.0
C338 C 0.5659 0.45225 0.81743 0.0
C339 C 0.646 0.42715 0.81953 0.0
C340 C 0.65199 0.31049 0.86428 0.0
C341 C 0.74585 0.16615 0.93991 0.0
C342 C 0.67009 0.10754 0.87135 0.0
C343 C 0.68403 0.19222 0.92705 0.0
N344 N 0.648 0.16507 0.89123 0.0
C345 C 0.73301 0.08102 0.88221 0.0
C346 C 0.77137 0.11115 0.91635 0.0
C347 C 0.49453 0.04464 0.87048 0.0
C348 C 0.22844 0.13577 0.94146 0.0
C349 C 0.34658 0.06835 0.92833 0.0
C350 C 0.29524 0.03772 0.95332 0.0
C351 C 0.23311 0.06845 0.95464 0.0
N352 N 0.33879 0.13147 0.90969 0.0
C353 C 0.28511 0.16879 0.92384 0.0
Co354 Co 0.84126 0.58265 0.36696 0.0
Co355 Co 0.8427 0.41138 0.34587 0.0
O356 O 0.80821 0.49017 0.3798 0.0
C357 C 0.8268 0.56586 0.47064 0.0
O358 O 0.79234 0.50966 0.46511 0.0
C359 C 0.69735 0.36767 0.33678 0.0
O360 O 0.68739 0.41887 0.30918 0.0
O361 O 0.80903 0.44959 0.28848 0.0
O362 O 0.84278 0.55786 0.2962 0.0
H363 H 0.95866 0.32103 0.2119 0.0
H364 H 0.7071 0.56917 0.42654 0.0
O365 O 0.84512 0.60182 0.43608 0.0
H366 H 0.68406 0.72155 0.25739 0.0
H367 H 0.88234 0.82407 0.40998 0.0
H368 H 0.94508 0.64145 0.30468 0.0
H369 H 0.79141 0.67034 0.29802 0.0
H370 H 0.81914 0.71628 0.41003 0.0
O371 O 0.7529 0.3632 0.35882 0.0
H372 H 0.94598 0.39566 0.27248 0.0
H373 H 0.79216 0.26838 0.3279 0.0
H374 H 0.00503 0.75235 0.30215 0.0
H375 H 0.57451 0.59392 0.41325 0.0
H376 H 0.97211 0.84385 0.3536 0.0
H377 H 0.55456 0.69544 0.28965 0.0
O378 O 0.93561 0.55352 0.37261 0.0
H379 H 0.97404 0.23336 0.42601 0.0
H380 H 0.89992 0.46845 0.43118 0.0
H381 H 0.9939 0.43481 0.4781 0.0
H382 H 0.03738 0.31737 0.47208 0.0
H383 H 0.87806 0.26851 0.38071 0.0
H384 H 0.78948 0.2078 0.25789 0.0
H385 H 0.88189 0.22268 0.20079 0.0
O386 O 0.93425 0.4556 0.33572 0.0
C387 C 0.82868 0.50463 0.27092 0.0
C388 C 0.9219 0.30848 0.23644 0.0
C389 C 0.82923 0.24344 0.26319 0.0
N390 N 0.86996 0.33714 0.30719 0.0
C391 C 0.91571 0.35064 0.27354 0.0
C392 C 0.82845 0.28217 0.30248 0.0
C393 C 0.87856 0.25428 0.23074 0.0
C394 C 0.69387 0.59752 0.39675 0.0
N395 N 0.74895 0.61967 0.3609 0.0
C396 C 0.61071 0.61183 0.3877 0.0
C397 C 0.59806 0.67649 0.30826 0.0
C398 C 0.67641 0.68936 0.28651 0.0
C399 C 0.7449 0.66045 0.31446 0.0
C400 C 0.8934 0.7856 0.38518 0.0
C401 C 0.9296 0.68211 0.32688 0.0
C402 C 0.85911 0.72385 0.38551 0.0
N403 N 0.87795 0.67262 0.35696 0.0
C404 C 0.96421 0.74385 0.32551 0.0
C405 C 0.94518 0.79611 0.35423 0.0
C406 C 0.96558 0.50692 0.3516 0.0
C407 C 0.95901 0.2857 0.42617 0.0
C408 C 0.91349 0.41635 0.43066 0.0
C409 C 0.96912 0.39784 0.45655 0.0
C410 C 0.99379 0.33264 0.45272 0.0
N411 N 0.88381 0.37232 0.40056 0.0
C412 C 0.90341 0.30621 0.40074 0.0
Co413 Co 0.45186 0.82602 0.88652 0.0
Co414 Co 0.61818 0.8569 0.85458 0.0
O415 O 0.54878 0.8107 0.88986 0.0
C416 C 0.48865 0.85685 0.98252 0.0
O417 O 0.53161 0.89791 0.96316 0.0
C418 C 0.65261 0.7106 0.83026 0.0
O419 O 0.59957 0.7086 0.80379 0.0
O420 O 0.57192 0.83327 0.7974 0.0
O421 O 0.46 0.83234 0.8131 0.0
H422 H 0.69519 0.99536 0.72573 0.0
H423 H 0.54079 0.69866 0.8859 0.0
O424 O 0.45174 0.81927 0.95703 0.0
H425 H 0.32146 0.55434 0.80387 0.0
H426 H 0.23269 0.82371 0.9692 0.0
H427 H 0.3667 0.93128 0.84845 0.0
H428 H 0.31085 0.73389 0.87122 0.0
H429 H 0.3411 0.7784 0.94745 0.0
O430 O 0.6685 0.76579 0.85146 0.0
H431 H 0.61425 0.9412 0.77331 0.0
H432 H 0.77355 0.86506 0.85368 0.0
H433 H 0.25175 0.97369 0.86476 0.0
H434 H 0.55194 0.58876 0.84012 0.0
H435 H 0.18375 0.91869 0.92488 0.0
H436 H 0.45021 0.51754 0.79719 0.0
O437 O 0.46826 0.92806 0.88967 0.0
H438 H 0.82289 0.85737 0.94858 0.0
H439 H 0.61223 0.97542 0.92399 0.0
H440 H 0.69614 0.02621 0.97242 0.0
H441 H 0.80887 0.97442 0.97634 0.0
H442 H 0.72797 0.79606 0.91544 0.0
H443 H 0.85347 0.9372 0.81095 0.0
H444 H 0.81607 0.99201 0.74056 0.0
O445 O 0.56654 0.94763 0.85451 0.0
C446 C 0.5115 0.83197 0.78414 0.0
C447 C 0.71319 0.96325 0.75134 0.0
C448 C 0.80154 0.93254 0.80107 0.0
N449 N 0.68753 0.89968 0.81791 0.0
C450 C 0.66687 0.93418 0.78045 0.0
C451 C 0.75474 0.89608 0.82713 0.0
C452 C 0.78084 0.96379 0.76153 0.0
C453 C 0.49419 0.68237 0.8712 0.0
N454 N 0.42885 0.72565 0.87989 0.0
C455 C 0.50161 0.60786 0.84231 0.0
C456 C 0.4399 0.56115 0.81778 0.0
C457 C 0.35965 0.58561 0.82079 0.0
C458 C 0.35375 0.70177 0.86607 0.0
C459 C 0.25937 0.84545 0.94048 0.0
C460 C 0.33404 0.90375 0.87131 0.0
C461 C 0.32181 0.82057 0.92814 0.0
N462 N 0.35723 0.84725 0.89188 0.0
C463 C 0.27022 0.9288 0.88148 0.0
C464 C 0.23225 0.89855 0.91579 0.0
C465 C 0.51006 0.96878 0.87056 0.0
C466 C 0.77495 0.88152 0.9454 0.0
C467 C 0.65603 0.94621 0.93032 0.0
C468 C 0.70495 0.97713 0.95735 0.0
C469 C 0.76752 0.94771 0.96021 0.0
N470 N 0.66593 0.88357 0.9113 0.0
C471 C 0.72024 0.84752 0.92584 0.0
Co472 Co 0.83425 0.42894 0.86635 0.0
Co473 Co 0.8402 0.60146 0.84747 0.0
O474 O 0.80012 0.5199 0.87529 0.0
C475 C 0.84823 0.45371 0.9682 0.0
O476 O 0.87844 0.50997 0.95624 0.0
C477 C 0.69671 0.64978 0.83107 0.0
O478 O 0.6825 0.59743 0.80516 0.0
O479 O 0.81906 0.56429 0.78576 0.0
O480 O 0.84068 0.45203 0.79556 0.0
H481 H 0.91805 0.75166 0.718 0.0
H482 H 0.70573 0.44452 0.92334 0.0
O483 O 0.82824 0.41287 0.93655 0.0
H484 H 0.66998 0.29078 0.75454 0.0
H485 H 0.87561 0.19893 0.92612 0.0
H486 H 0.94158 0.36815 0.81095 0.0
H487 H 0.782 0.33846 0.79295 0.0
H488 H 0.80436 0.29826 0.91175 0.0
O489 O 0.75215 0.65228 0.85234 0.0
H490 H 0.90074 0.64106 0.75584 0.0
H491 H 0.83667 0.7466 0.8746 0.0
H492 H 0.00959 0.2681 0.82374 0.0
H493 H 0.57095 0.4216 0.91191 0.0
H494 H 0.97722 0.18143 0.88004 0.0
H495 H 0.54359 0.31794 0.7896 0.0
O496 O 0.93055 0.45911 0.87456 0.0
H497 H 0.76369 0.68751 0.99405 0.0
H498 H 0.96055 0.66299 0.89388 0.0
H499 H 0.95864 0.75651 0.94947 0.0
H500 H 0.85516 0.77434 0.99553 0.0
H501 H 0.76351 0.60471 0.93277 0.0
H502 H 0.88856 0.84902 0.84638 0.0
H503 H 0.91856 0.85574 0.76297 0.0
O504 O 0.93532 0.56153 0.84301 0.0
C505 C 0.83074 0.5055 0.76951 0.0
C506 C 0.90391 0.74907 0.75319 0.0
C507 C 0.88546 0.80536 0.82436 0.0
N508 N 0.87248 0.6851 0.81959 0.0
C509 C 0.89343 0.68693 0.77505 0.0
C510 C 0.86224 0.7448 0.84217 0.0
C511 C 0.90352 0.80834 0.77854 0.0
C512 C 0.6896 0.41539 0.89397 0.0
N513 N 0.74272 0.39143 0.85759 0.0
C514 C 0.60574 0.40236 0.88613 0.0
C515 C 0.5883 0.33615 0.80757 0.0
C516 C 0.66547 0.32148 0.78463 0.0
C517 C 0.73632 0.34965 0.81119 0.0
C518 C 0.88739 0.23359 0.89881 0.0
C519 C 0.92431 0.32922 0.83423 0.0
C520 C 0.84822 0.2905 0.89076 0.0
N521 N 0.86874 0.33888 0.86015 0.0
C522 C 0.96343 0.2724 0.84125 0.0
C523 C 0.94532 0.22435 0.87357 0.0
C524 C 0.96441 0.50811 0.85794 0.0
C525 C 0.80688 0.68408 0.97196 0.0
C526 C 0.91825 0.66789 0.91658 0.0
C527 C 0.91688 0.72137 0.94741 0.0
C528 C 0.85909 0.73103 0.9736 0.0
N529 N 0.86019 0.63339 0.90797 0.0
C530 C 0.80793 0.63547 0.93807 0.0
Co531 Co 0.56509 0.82839 0.38314 0.0
Co532 Co 0.39733 0.851 0.35526 0.0
O533 O 0.47013 0.81032 0.38843 0.0
C534 C 0.53995 0.86363 0.48199 0.0
O535 O 0.50151 0.91098 0.46522 0.0
C536 C 0.3567 0.7053 0.33419 0.0
O537 O 0.40688 0.7022 0.30534 0.0
O538 O 0.44155 0.82916 0.2955 0.0
O539 O 0.55411 0.83171 0.31034 0.0
H540 H 0.28783 0.96339 0.22214 0.0
H541 H 0.4737 0.69985 0.38542 0.0
O542 O 0.56826 0.82275 0.45412 0.0
H543 H 0.68918 0.55245 0.30575 0.0
H544 H 0.78537 0.83979 0.46319 0.0
H545 H 0.65221 0.92751 0.33422 0.0
H546 H 0.70448 0.73411 0.37112 0.0
H547 H 0.6785 0.78762 0.44268 0.0
O548 O 0.34646 0.76007 0.3563 0.0
H549 H 0.38305 0.92889 0.26913 0.0
H550 H 0.24843 0.84897 0.3687 0.0
H551 H 0.76157 0.98231 0.35534 0.0
H552 H 0.45973 0.59015 0.34098 0.0
H553 H 0.82915 0.93646 0.4178 0.0
H554 H 0.55838 0.5166 0.2995 0.0
O555 O 0.54638 0.93098 0.38441 0.0
H556 H 0.28492 0.78776 0.49947 0.0
H557 H 0.3389 0.97516 0.39623 0.0
H558 H 0.2403 0.9831 0.44771 0.0
H559 H 0.20347 0.88189 0.48992 0.0
H560 H 0.37425 0.7759 0.44205 0.0
H561 H 0.1529 0.89904 0.32852 0.0
H562 H 0.17136 0.95227 0.25273 0.0
O563 O 0.4427 0.944 0.35526 0.0
C564 C 0.50249 0.82836 0.28173 0.0
C565 C 0.27884 0.94131 0.25546 0.0
C566 C 0.20323 0.90571 0.31524 0.0
N567 N 0.32195 0.8883 0.32238 0.0
C568 C 0.33278 0.92057 0.28186 0.0
C569 C 0.25788 0.87838 0.33819 0.0
C570 C 0.21373 0.9358 0.27283 0.0
C571 C 0.51991 0.68433 0.37034 0.0
N572 N 0.58637 0.72759 0.37858 0.0
C573 C 0.5105 0.60915 0.34257 0.0
C574 C 0.57071 0.56104 0.31901 0.0
C575 C 0.65176 0.58465 0.32195 0.0
C576 C 0.66071 0.70248 0.36572 0.0
C577 C 0.75759 0.8585 0.43402 0.0
C578 C 0.68335 0.9056 0.36055 0.0
C579 C 0.69636 0.82937 0.42205 0.0
N580 N 0.66004 0.85184 0.38507 0.0
C581 C 0.74455 0.93685 0.37229 0.0
C582 C 0.78208 0.91235 0.40857 0.0
C583 C 0.49833 0.96899 0.37004 0.0
C584 C 0.29347 0.82694 0.47473 0.0
C585 C 0.32653 0.9338 0.41868 0.0
C586 C 0.27022 0.93817 0.44668 0.0
C587 C 0.25039 0.88159 0.47145 0.0
N588 N 0.35672 0.87283 0.41306 0.0
C589 C 0.3462 0.8223 0.44396 0.0
Co590 Co 0.17183 0.58197 0.86794 0.0
Co591 Co 0.16534 0.4101 0.84674 0.0
O592 O 0.20605 0.49102 0.87406 0.0
C593 C 0.15116 0.54522 0.96614 0.0
O594 O 0.11301 0.49907 0.94708 0.0
C595 C 0.30952 0.36382 0.82992 0.0
O596 O 0.32397 0.41719 0.80506 0.0
O597 O 0.18478 0.44912 0.7853 0.0
O598 O 0.16543 0.5621 0.79639 0.0
H599 H 0.09514 0.25841 0.71604 0.0
H600 H 0.3022 0.56658 0.92497 0.0
O601 O 0.17921 0.58955 0.9397 0.0
H602 H 0.33337 0.72202 0.75639 0.0
H603 H 0.1288 0.80629 0.93675 0.0
H604 H 0.06766 0.64973 0.81241 0.0
H605 H 0.22253 0.67407 0.79599 0.0
H606 H 0.19891 0.70678 0.92038 0.0
O607 O 0.25347 0.35975 0.85024 0.0
H608 H 0.10995 0.36925 0.75375 0.0
H609 H 0.16561 0.26493 0.87513 0.0
H610 H 1.00138 0.75161 0.82666 0.0
H611 H 0.43666 0.59088 0.91243 0.0
H612 H 0.03209 0.83158 0.88746 0.0
H613 H 0.46063 0.69577 0.79029 0.0
O614 O 0.07471 0.55284 0.87352 0.0
H615 H 0.24493 0.32912 0.9948 0.0
H616 H 0.04605 0.34909 0.89571 0.0
H617 H 0.04699 0.2617 0.95579 0.0
H618 H 0.15326 0.24405 0.99943 0.0
H619 H 0.2451 0.40693 0.93043 0.0
H620 H 0.11588 0.16227 0.84581 0.0
H621 H 0.09027 0.15508 0.76171 0.0
O622 O 0.06979 0.44938 0.84356 0.0
C623 C 0.17447 0.50873 0.76977 0.0
C624 C 0.10647 0.26142 0.75175 0.0
C625 C 0.11982 0.20593 0.82381 0.0
N626 N 0.13321 0.32627 0.81887 0.0
C627 C 0.11571 0.32379 0.77359 0.0
C628 C 0.14179 0.26675 0.84209 0.0
C629 C 0.10451 0.20256 0.7775 0.0
C630 C 0.31747 0.5963 0.89567 0.0
N631 N 0.2634 0.6202 0.85989 0.0
C632 C 0.40116 0.6101 0.88708 0.0
C633 C 0.41642 0.67714 0.80863 0.0
C634 C 0.3387 0.69141 0.78648 0.0
C635 C 0.26863 0.66257 0.81364 0.0
C636 C 0.11824 0.7745 0.9076 0.0
C637 C 0.0841 0.68611 0.83777 0.0
C638 C 0.1566 0.71738 0.89849 0.0
N639 N 0.13756 0.67264 0.86506 0.0
C640 C 0.04617 0.74378 0.8455 0.0
C641 C 0.06307 0.78816 0.88044 0.0
C642 C 0.04078 0.50332 0.8577 0.0
C643 C 0.2012 0.33203 0.97309 0.0
C644 C 0.08891 0.34526 0.91805 0.0
C645 C 0.08954 0.29551 0.95167 0.0
C646 C 0.14807 0.28669 0.97724 0.0
N647 N 0.14746 0.37779 0.9075 0.0
C648 C 0.20035 0.37735 0.9372 0.0
Co649 Co 0.4406 0.18654 0.38345 0.0
Co650 Co 0.6085 0.16389 0.35563 0.0
O651 O 0.53564 0.20458 0.38881 0.0
C652 C 0.4699 0.15255 0.48136 0.0
O653 O 0.51235 0.10998 0.46324 0.0
C654 C 0.64877 0.30973 0.33504 0.0
O655 O 0.59859 0.31273 0.30617 0.0
O656 O 0.56444 0.1858 0.29585 0.0
O657 O 0.45186 0.18337 0.31062 0.0
H658 H 0.71816 0.05185 0.22241 0.0
H659 H 0.53201 0.3151 0.38629 0.0
O660 O 0.43688 0.19115 0.4545 0.0
H661 H 0.31735 0.46249 0.30552 0.0
H662 H 0.22039 0.17478 0.46325 0.0
H663 H 0.35359 0.08752 0.33421 0.0
H664 H 0.30125 0.28138 0.37159 0.0
H665 H 0.32705 0.22728 0.44273 0.0
O666 O 0.65935 0.25481 0.35689 0.0
H667 H 0.62292 0.08636 0.26932 0.0
H668 H 0.75748 0.16561 0.36924 0.0
H669 H 0.24433 0.03254 0.35523 0.0
H670 H 0.54648 0.42444 0.3414 0.0
H671 H 0.17666 0.0782 0.41772 0.0
H672 H 0.44827 0.49778 0.29932 0.0
O673 O 0.45931 0.08388 0.38461 0.0
H674 H 0.72149 0.22679 0.49966 0.0
H675 H 0.66652 0.03946 0.39656 0.0
H676 H 0.76522 0.03123 0.44795 0.0
H677 H 0.80272 0.13248 0.48983 0.0
H678 H 0.63188 0.23883 0.44246 0.0
H679 H 0.85296 0.11537 0.32914 0.0
H680 H 0.83457 0.06243 0.25321 0.0
O681 O 0.56301 0.07094 0.35545 0.0
C682 C 0.50353 0.18644 0.28202 0.0
C683 C 0.72713 0.07388 0.25576 0.0
C684 C 0.80266 0.10891 0.31576 0.0
N685 N 0.68394 0.12661 0.32277 0.0
C686 C 0.67317 0.09458 0.28214 0.0
C687 C 0.74801 0.13631 0.33868 0.0
C688 C 0.79221 0.07907 0.27326 0.0
C689 C 0.48596 0.33056 0.37092 0.0
N690 N 0.41938 0.2875 0.37915 0.0
C691 C 0.49569 0.4055 0.3429 0.0
C692 C 0.43572 0.45359 0.31903 0.0
C693 C 0.35462 0.43029 0.32191 0.0
C694 C 0.34514 0.31281 0.36613 0.0
C695 C 0.24814 0.15621 0.43403 0.0
C696 C 0.32243 0.10937 0.36053 0.0
C697 C 0.30925 0.18554 0.42205 0.0
N698 N 0.34564 0.16314 0.3851 0.0
C699 C 0.26127 0.078 0.37224 0.0
C700 C 0.22371 0.10238 0.40852 0.0
C701 C 0.50733 0.04591 0.37013 0.0
C702 C 0.71268 0.18758 0.47498 0.0
C703 C 0.67906 0.08079 0.419 0.0
C704 C 0.73543 0.07624 0.44695 0.0
C705 C 0.75559 0.13281 0.4716 0.0
N706 N 0.64906 0.14186 0.41342 0.0
C707 C 0.65983 0.19236 0.44431 0.0
Co708 Co 0.82229 0.56813 0.61974 0.0
Co709 Co 0.84731 0.39858 0.63992 0.0
O710 O 0.80383 0.47453 0.61349 0.0
C711 C 0.84801 0.58351 0.5176 0.0
O712 O 0.90815 0.60829 0.5254 0.0
C713 C 0.7041 0.3654 0.67093 0.0
O714 O 0.70882 0.41214 0.70263 0.0
O715 O 0.83777 0.43967 0.70205 0.0
O716 O 0.83074 0.55412 0.6911 0.0
H717 H 0.98129 0.26994 0.75389 0.0
H718 H 0.69518 0.47621 0.62361 0.0
O719 O 0.80914 0.56831 0.55087 0.0
H720 H 0.54878 0.69585 0.69889 0.0
H721 H 0.85581 0.77799 0.53374 0.0
H722 H 0.91914 0.65089 0.67162 0.0
H723 H 0.72761 0.70883 0.63071 0.0
H724 H 0.78454 0.68598 0.56182 0.0
O725 O 0.75442 0.35316 0.64474 0.0
H726 H 0.93989 0.37213 0.71757 0.0
H727 H 0.83452 0.25091 0.62119 0.0
H728 H 0.98426 0.75244 0.64898 0.0
H729 H 0.58788 0.46352 0.67066 0.0
H730 H 0.95508 0.81478 0.57905 0.0
H731 H 0.51475 0.56378 0.70936 0.0
O732 O 0.92419 0.54972 0.61339 0.0
H733 H 0.76103 0.33189 0.48572 0.0
H734 H 0.95529 0.32688 0.58928 0.0
H735 H 0.94935 0.2456 0.52529 0.0
H736 H 0.84917 0.2454 0.47447 0.0
H737 H 0.75983 0.39571 0.55761 0.0
H738 H 0.88394 0.14787 0.65311 0.0
H739 H 0.95777 0.15676 0.72165 0.0
O740 O 0.94177 0.44203 0.63432 0.0
C741 C 0.83326 0.50006 0.71757 0.0
C742 C 0.95106 0.26521 0.72437 0.0
C743 C 0.89653 0.19674 0.66754 0.0
N744 N 0.88583 0.31798 0.6665 0.0
C745 C 0.92656 0.32322 0.70366 0.0
C746 C 0.86914 0.25557 0.64934 0.0
C747 C 0.93745 0.20168 0.70594 0.0
C748 C 0.68036 0.52297 0.63835 0.0
N749 N 0.72235 0.58969 0.62756 0.0
C750 C 0.60658 0.51445 0.66731 0.0
C751 C 0.55865 0.57592 0.68943 0.0
C752 C 0.58103 0.65755 0.68368 0.0
C753 C 0.6967 0.66508 0.6383 0.0
C754 C 0.86806 0.7531 0.56566 0.0
C755 C 0.90151 0.68234 0.64394 0.0
C756 C 0.82793 0.70042 0.5819 0.0
N757 N 0.84669 0.66306 0.61927 0.0
C758 C 0.93995 0.73839 0.63045 0.0
C759 C 0.92383 0.77321 0.59073 0.0
C760 C 0.96458 0.50095 0.62277 0.0
C761 C 0.8025 0.32784 0.50946 0.0
C762 C 0.91191 0.32628 0.56727 0.0
C763 C 0.90874 0.28044 0.53119 0.0
C764 C 0.85282 0.28067 0.50256 0.0
N765 N 0.85628 0.36196 0.57894 0.0
C766 C 0.80327 0.36581 0.54944 0.0
Co767 Co 0.44725 0.82647 0.12837 0.0
Co768 Co 0.61467 0.85329 0.15473 0.0
O769 O 0.54162 0.81198 0.12189 0.0
C770 C 0.48603 0.85842 0.03337 0.0
O771 O 0.52733 0.90065 0.05374 0.0
C772 C 0.65157 0.70717 0.17059 0.0
O773 O 0.60237 0.70149 0.20008 0.0
O774 O 0.57213 0.82949 0.21496 0.0
O775 O 0.45958 0.8276 0.20094 0.0
H776 H 0.7426 0.95114 0.28656 0.0
H777 H 0.53905 0.70113 0.1273 0.0
O778 O 0.4456 0.82291 0.05789 0.0
H779 H 0.31687 0.54432 0.19099 0.0
H780 H 0.24214 0.92389 0.05819 0.0
H781 H 0.33286 0.81976 0.19832 0.0
H782 H 0.30969 0.72625 0.12319 0.0
H783 H 0.35805 0.89351 0.06244 0.0
O784 O 0.66285 0.76347 0.151 0.0
H785 H 0.63975 0.92411 0.2443 0.0
H786 H 0.76071 0.84111 0.13936 0.0
H787 H 0.21455 0.86002 0.19524 0.0
H788 H 0.54949 0.59218 0.17392 0.0
H789 H 0.17055 0.91462 0.12756 0.0
H790 H 0.44667 0.51588 0.20922 0.0
O791 O 0.46322 0.92896 0.12977 0.0
H792 H 0.74471 0.78486 0.02437 0.0
H793 H 0.67723 0.97951 0.11688 0.0
H794 H 0.78579 0.98226 0.07614 0.0
H795 H 0.8241 0.88091 0.0357 0.0
H796 H 0.63943 0.78147 0.06708 0.0
H797 H 0.86149 0.89016 0.1734 0.0
H798 H 0.85335 0.94181 0.2509 0.0
O799 O 0.56817 0.94653 0.15673 0.0
C800 C 0.51148 0.82727 0.22923 0.0
C801 C 0.74625 0.92932 0.2537 0.0
C802 C 0.81332 0.89653 0.18985 0.0
N803 N 0.69317 0.88623 0.18697 0.0
C804 C 0.68817 0.91412 0.22924 0.0
C805 C 0.75533 0.87137 0.16966 0.0
C806 C 0.80873 0.92483 0.23304 0.0
C807 C 0.49225 0.68422 0.14085 0.0
N808 N 0.42692 0.72482 0.12822 0.0
C809 C 0.49897 0.60916 0.16883 0.0
C810 C 0.43655 0.55817 0.18738 0.0
C811 C 0.35605 0.57797 0.17784 0.0
C812 C 0.35181 0.69599 0.13419 0.0
C813 C 0.26154 0.90241 0.08949 0.0
C814 C 0.31312 0.84185 0.16739 0.0
C815 C 0.32744 0.88096 0.0915 0.0
N816 N 0.35254 0.84901 0.12954 0.0
C817 C 0.24655 0.86403 0.16628 0.0
C818 C 0.22135 0.89582 0.12778 0.0
C819 C 0.51004 0.96895 0.1442 0.0
C820 C 0.73018 0.82786 0.04405 0.0
C821 C 0.68976 0.93825 0.09427 0.0
C822 C 0.75196 0.93994 0.07223 0.0
C823 C 0.77401 0.88228 0.04988 0.0
N824 N 0.65535 0.87828 0.09697 0.0
C825 C 0.66944 0.82727 0.06727 0.0
Co826 Co 0.18386 0.44724 0.61962 0.0
Co827 Co 0.15879 0.61665 0.64042 0.0
O828 O 0.20232 0.54083 0.61385 0.0
C829 C 0.15818 0.43256 0.5173 0.0
O830 O 0.09817 0.40744 0.52506 0.0
C831 C 0.30189 0.64938 0.67171 0.0
O832 O 0.29696 0.60246 0.70325 0.0
O833 O 0.1682 0.57531 0.70249 0.0
O834 O 0.17515 0.46092 0.69108 0.0
H835 H 0.02967 0.74561 0.75691 0.0
H836 H 0.31097 0.53898 0.62393 0.0
O837 O 0.19703 0.44769 0.55064 0.0
H838 H 0.45742 0.31886 0.69856 0.0
H839 H 0.15113 0.23832 0.53257 0.0
H840 H 0.0869 0.3635 0.67108 0.0
H841 H 0.27879 0.30625 0.63004 0.0
H842 H 0.222 0.33016 0.56131 0.0
O843 O 0.2517 0.66189 0.64544 0.0
H844 H 0.0682 0.64327 0.71924 0.0
H845 H 0.1706 0.76447 0.62134 0.0
H846 H 0.02242 0.26187 0.64774 0.0
H847 H 0.41804 0.55141 0.67121 0.0
H848 H 0.05196 0.20053 0.57757 0.0
H849 H 0.49135 0.45091 0.70953 0.0
O850 O 0.08195 0.46572 0.61326 0.0
H851 H 0.24498 0.68285 0.48608 0.0
H852 H 0.05079 0.68819 0.58962 0.0
H853 H 0.0564 0.7689 0.5253 0.0
H854 H 0.15657 0.76894 0.47445 0.0
H855 H 0.24652 0.61984 0.55827 0.0
H856 H 0.12173 0.86737 0.6537 0.0
H857 H 0.05069 0.8586 0.72356 0.0
O858 O 0.06434 0.57323 0.63465 0.0
C859 C 0.17245 0.51479 0.71779 0.0
C860 C 0.05766 0.75018 0.72631 0.0
C861 C 0.10961 0.81851 0.66832 0.0
N862 N 0.12032 0.69725 0.66715 0.0
C863 C 0.08096 0.69211 0.705 0.0
C864 C 0.13652 0.75969 0.64979 0.0
C865 C 0.07017 0.81364 0.70742 0.0
C866 C 0.32579 0.49212 0.63851 0.0
N867 N 0.28387 0.42547 0.6274 0.0
C868 C 0.39947 0.50046 0.66761 0.0
C869 C 0.44744 0.43887 0.68955 0.0
C870 C 0.42518 0.35725 0.68343 0.0
C871 C 0.30963 0.34998 0.63785 0.0
C872 C 0.13871 0.26275 0.56462 0.0
C873 C 0.10471 0.33253 0.64321 0.0
C874 C 0.17859 0.31538 0.58122 0.0
N875 N 0.15954 0.3523 0.61872 0.0
C876 C 0.06663 0.27641 0.62938 0.0
C877 C 0.08298 0.24212 0.5895 0.0
C878 C 0.04155 0.51441 0.62282 0.0
C879 C 0.20354 0.68705 0.50982 0.0
C880 C 0.09416 0.68877 0.56763 0.0
C881 C 0.09713 0.73425 0.53133 0.0
C882 C 0.15303 0.73393 0.50269 0.0
N883 N 0.14993 0.6534 0.57945 0.0
C884 C 0.20297 0.64952 0.54999 0.0
Co885 Co 0.55894 0.18796 0.12855 0.0
Co886 Co 0.39193 0.16082 0.15479 0.0
O887 O 0.46486 0.20233 0.12233 0.0
C888 C 0.52008 0.1558 0.03322 0.0
O889 O 0.47953 0.11292 0.05362 0.0
C890 C 0.35458 0.30676 0.17149 0.0
O891 O 0.40383 0.31151 0.20101 0.0
O892 O 0.43398 0.18437 0.21522 0.0
O893 O 0.54658 0.18668 0.2012 0.0
H894 H 0.26244 0.06482 0.28654 0.0
H895 H 0.46625 0.31306 0.12724 0.0
O896 O 0.56028 0.19167 0.05782 0.0
H897 H 0.687 0.46975 0.1933 0.0
H898 H 0.76365 0.08916 0.05869 0.0
H899 H 0.67335 0.19508 0.19835 0.0
H900 H 0.69579 0.28908 0.12406 0.0
H901 H 0.648 0.12098 0.06261 0.0
O902 O 0.34322 0.2508 0.15128 0.0
H903 H 0.36581 0.09168 0.24492 0.0
H904 H 0.24632 0.1686 0.13712 0.0
H905 H 0.79156 0.15492 0.19545 0.0
H906 H 0.45476 0.42087 0.17464 0.0
H907 H 0.83537 0.09931 0.12799 0.0
H908 H 0.55674 0.49775 0.21074 0.0
O909 O 0.54344 0.08542 0.12978 0.0
H910 H 0.26926 0.22793 0.01959 0.0
H911 H 0.33044 0.03496 0.11608 0.0
H912 H 0.22512 0.03132 0.07151 0.0
H913 H 0.18978 0.13147 0.02928 0.0
H914 H 0.36979 0.23346 0.06742 0.0
H915 H 0.14494 0.12195 0.17183 0.0
H916 H 0.15238 0.07222 0.24988 0.0
O917 O 0.43863 0.06771 0.15678 0.0
C918 C 0.49463 0.187 0.2295 0.0
C919 C 0.25925 0.08576 0.2534 0.0
C920 C 0.19298 0.11617 0.1886 0.0
N921 N 0.3132 0.1271 0.18646 0.0
C922 C 0.31763 0.10077 0.22924 0.0
C923 C 0.25124 0.14033 0.16823 0.0
C924 C 0.19712 0.08916 0.23217 0.0
C925 C 0.51284 0.32971 0.14135 0.0
N926 N 0.57854 0.28967 0.12873 0.0
C927 C 0.50544 0.40427 0.16984 0.0
C928 C 0.56739 0.45538 0.18903 0.0
C929 C 0.6481 0.43614 0.17973 0.0
C930 C 0.65336 0.3188 0.13525 0.0
C931 C 0.74451 0.11168 0.08975 0.0
C932 C 0.69313 0.17299 0.16744 0.0
C933 C 0.67872 0.13359 0.09162 0.0
N934 N 0.65371 0.16577 0.12959 0.0
C935 C 0.75965 0.15076 0.16641 0.0
C936 C 0.78472 0.11851 0.12805 0.0
C937 C 0.49674 0.04534 0.14424 0.0
C938 C 0.28241 0.18544 0.04039 0.0
C939 C 0.31929 0.07597 0.09291 0.0
C940 C 0.2592 0.07351 0.06849 0.0
C941 C 0.23888 0.13058 0.04487 0.0
N942 N 0.35268 0.13634 0.09669 0.0
C943 C 0.34045 0.18727 0.0665 0.0
loop_
_geom_bond_atom_site_label_1
_geom_bond_atom_site_label_2
_geom_bond_distance
_geom_bond_site_symmetry_2
_ccdc_geom_bond_type
Co0 O2 2.143 . S
Co0 O8 2.074 . S
Co0 O11 2.093 . S
Co0 O24 2.097 . S
Co0 N41 2.151 . S
Co0 N49 2.214 . S
Co1 O2 2.160 . S
Co1 O7 2.058 . S
Co1 O17 2.057 . S
Co1 O32 2.037 . S
Co1 N36 2.145 . S
Co1 N57 2.257 . S
O2 Co0 2.143 . S
O2 Co1 2.160 . S
C3 O4 1.278 . S
C3 O11 1.224 . S
O4 C3 1.278 . S
C5 O6 1.245 . S
C5 O17 1.232 . S
O6 C5 1.245 . S
O7 Co1 2.058 . S
O7 C33 1.269 . S
O8 Co0 2.074 . S
O8 C33 1.257 . S
H9 C34 0.930 1_655 S
H10 C40 0.930 . S
O11 Co0 2.093 . S
O11 C3 1.224 . S
H12 C44 0.929 . S
H13 C46 0.930 . S
H14 C47 0.930 . S
H15 C45 0.929 . S
H16 C48 0.928 . S
O17 Co1 2.057 . S
O17 C5 1.232 . S
H18 C37 0.929 . S
H19 C38 0.929 . S
H20 C50 0.931 . S
H21 C42 0.929 . S
H22 C51 0.930 . S
H23 C43 0.931 . S
O24 Co0 2.097 . S
O24 C52 1.214 . S
H25 C53 0.929 . S
H26 C54 0.929 . S
H27 C55 0.930 1_655 S
H28 C56 0.929 . S
H29 C58 0.930 . S
H30 C35 0.930 . S
H31 C39 0.930 . S
O32 Co1 2.037 . S
O32 C52 1.234 . S
C33 O7 1.269 . S
C33 O8 1.257 . S
C34 H9 0.930 1_455 S
C34 C37 1.388 . S
C34 C39 1.418 . S
C35 H30 0.930 . S
C35 C38 1.404 . S
C35 C39 1.353 . S
N36 Co1 2.145 . S
N36 C37 1.397 . S
N36 C38 1.334 . S
C37 H18 0.929 . S
C37 C34 1.388 . S
C37 N36 1.397 . S
C38 H19 0.929 . S
C38 C35 1.404 . S
C38 N36 1.334 . S
C39 H31 0.930 . S
C39 C34 1.418 . S
C39 C35 1.353 . S
C40 H10 0.930 . S
C40 N41 1.330 . S
C40 C42 1.446 . S
N41 Co0 2.151 . S
N41 C40 1.330 . S
N41 C45 1.418 . S
C42 H21 0.929 . S
C42 C40 1.446 . S
C42 C43 1.332 . S
C43 H23 0.931 . S
C43 C42 1.332 . S
C43 C44 1.267 . S
C44 H12 0.929 . S
C44 C43 1.267 . S
C44 C45 1.251 . S
C45 H15 0.929 . S
C45 N41 1.418 . S
C45 C44 1.251 . S
C46 H13 0.930 . S
C46 C48 1.406 . S
C46 C51 1.261 . S
C47 H14 0.930 . S
C47 N49 1.325 . S
C47 C50 1.357 . S
C48 H16 0.928 . S
C48 C46 1.406 . S
C48 N49 1.261 . S
N49 Co0 2.214 . S
N49 C47 1.325 . S
N49 C48 1.261 . S
C50 H20 0.931 . S
C50 C47 1.357 . S
C50 C51 1.312 . S
C51 H22 0.930 . S
C51 C46 1.261 . S
C51 C50 1.312 . S
C52 O24 1.214 . S
C52 O32 1.234 . S
C53 H25 0.929 . S
C53 C56 1.391 . S
C53 C58 1.391 . S
C54 H26 0.929 . S
C54 C55 1.390 . S
C54 N57 1.391 . S
C55 H27 0.930 1_455 S
C55 C54 1.390 . S
C55 C56 1.392 . S
C56 H28 0.929 . S
C56 C53 1.391 . S
C56 C55 1.392 . S
N57 Co1 2.257 . S
N57 C54 1.391 . S
N57 C58 1.388 . S
C58 H29 0.930 . S
C58 C53 1.391 . S
C58 N57 1.388 . S
Co59 O61 2.143 . S
Co59 O67 2.074 . S
Co59 O70 2.093 . S
Co59 O83 2.097 . S
Co59 N100 2.151 . S
Co59 N108 2.214 . S
Co60 O61 2.160 . S
Co60 O66 2.058 . S
Co60 O76 2.057 . S
Co60 O91 2.037 . S
Co60 N95 2.145 . S
Co60 N116 2.257 . S
O61 Co59 2.143 . S
O61 Co60 2.160 . S
C62 O63 1.278 . S
C62 O70 1.224 . S
O63 C62 1.278 . S
C64 O65 1.245 . S
C64 O76 1.232 . S
O65 C64 1.245 . S
O66 Co60 2.058 . S
O66 C92 1.269 . S
O67 Co59 2.074 . S
O67 C92 1.257 . S
H68 C93 0.930 1_565 S
H69 C99 0.930 . S
O70 Co59 2.093 . S
O70 C62 1.224 . S
H71 C103 0.929 . S
H72 C105 0.930 . S
H73 C106 0.930 . S
H74 C104 0.929 . S
H75 C107 0.928 . S
O76 Co60 2.057 . S
O76 C64 1.232 . S
H77 C96 0.929 . S
H78 C97 0.929 . S
H79 C109 0.931 . S
H80 C101 0.929 . S
H81 C110 0.930 . S
H82 C102 0.931 . S
O83 Co59 2.097 . S
O83 C111 1.214 . S
H84 C112 0.929 . S
H85 C113 0.929 . S
H86 C114 0.930 1_565 S
H87 C115 0.929 . S
H88 C117 0.930 . S
H89 C94 0.930 . S
H90 C98 0.930 . S
O91 Co60 2.037 . S
O91 C111 1.234 . S
C92 O66 1.269 . S
C92 O67 1.257 . S
C93 H68 0.930 1_545 S
C93 C96 1.388 . S
C93 C98 1.418 . S
C94 H89 0.930 . S
C94 C97 1.404 . S
C94 C98 1.353 . S
N95 Co60 2.145 . S
N95 C96 1.397 . S
N95 C97 1.334 . S
C96 H77 0.929 . S
C96 C93 1.388 . S
C96 N95 1.397 . S
C97 H78 0.929 . S
C97 C94 1.404 . S
C97 N95 1.334 . S
C98 H90 0.930 . S
C98 C93 1.418 . S
C98 C94 1.353 . S
C99 H69 0.930 . S
C99 N100 1.330 . S
C99 C101 1.446 . S
N100 Co59 2.151 . S
N100 C99 1.330 . S
N100 C104 1.418 . S
C101 H80 0.929 . S
C101 C99 1.446 . S
C101 C102 1.332 . S
C102 H82 0.931 . S
C102 C101 1.332 . S
C102 C103 1.267 . S
C103 H71 0.929 . S
C103 C102 1.267 . S
C103 C104 1.251 . S
C104 H74 0.929 . S
C104 N100 1.418 . S
C104 C103 1.251 . S
C105 H72 0.930 . S
C105 C107 1.406 . S
C105 C110 1.261 . S
C106 H73 0.930 . S
C106 N108 1.325 . S
C106 C109 1.357 . S
C107 H75 0.928 . S
C107 C105 1.406 . S
C107 N108 1.261 . S
N108 Co59 2.214 . S
N108 C106 1.325 . S
N108 C107 1.261 . S
C109 H79 0.931 . S
C109 C106 1.357 . S
C109 C110 1.312 . S
C110 H81 0.930 . S
C110 C105 1.261 . S
C110 C109 1.312 . S
C111 O83 1.214 . S
C111 O91 1.234 . S
C112 H84 0.929 . S
C112 C115 1.391 . S
C112 C117 1.391 . S
C113 H85 0.929 . S
C113 C114 1.390 . S
C113 N116 1.391 . S
C114 H86 0.930 1_545 S
C114 C113 1.390 . S
C114 C115 1.392 . S
C115 H87 0.929 . S
C115 C112 1.391 . S
C115 C114 1.392 . S
N116 Co60 2.257 . S
N116 C113 1.391 . S
N116 C117 1.388 . S
C117 H88 0.930 . S
C117 C112 1.391 . S
C117 N116 1.388 . S
Co118 O120 2.143 . S
Co118 O126 2.074 . S
Co118 O129 2.093 . S
Co118 O142 2.097 . S
Co118 N159 2.151 . S
Co118 N167 2.214 . S
Co119 O120 2.160 . S
Co119 O125 2.058 . S
Co119 O135 2.057 . S
Co119 O150 2.037 . S
Co119 N154 2.145 . S
Co119 N175 2.257 . S
O120 Co118 2.143 . S
O120 Co119 2.160 . S
C121 O122 1.278 . S
C121 O129 1.224 . S
O122 C121 1.278 . S
C123 O124 1.245 . S
C123 O135 1.232 . S
O124 C123 1.245 . S
O125 Co119 2.058 . S
O125 C151 1.269 . S
O126 Co118 2.074 . S
O126 C151 1.257 . S
H127 C152 0.930 1_455 S
H128 C158 0.930 . S
O129 Co118 2.093 . S
O129 C121 1.224 . S
H130 C162 0.929 . S
H131 C164 0.930 . S
H132 C165 0.930 . S
H133 C163 0.929 . S
H134 C166 0.928 . S
O135 Co119 2.057 . S
O135 C123 1.232 . S
H136 C155 0.929 . S
H137 C156 0.929 . S
H138 C168 0.931 . S
H139 C160 0.929 . S
H140 C169 0.930 . S
H141 C161 0.931 . S
O142 Co118 2.097 . S
O142 C170 1.214 . S
H143 C171 0.929 . S
H144 C172 0.929 . S
H145 C173 0.930 1_455 S
H146 C174 0.929 . S
H147 C176 0.930 . S
H148 C153 0.930 . S
H149 C157 0.930 . S
O150 Co119 2.037 . S
O150 C170 1.234 . S
C151 O125 1.269 . S
C151 O126 1.257 . S
C152 H127 0.930 1_655 S
C152 C155 1.388 . S
C152 C157 1.418 . S
C153 H148 0.930 . S
C153 C156 1.404 . S
C153 C157 1.353 . S
N154 Co119 2.145 . S
N154 C155 1.397 . S
N154 C156 1.334 . S
C155 H136 0.929 . S
C155 C152 1.388 . S
C155 N154 1.397 . S
C156 H137 0.929 . S
C156 C153 1.404 . S
C156 N154 1.334 . S
C157 H149 0.930 . S
C157 C152 1.418 . S
C157 C153 1.353 . S
C158 H128 0.930 . S
C158 N159 1.330 . S
C158 C160 1.446 . S
N159 Co118 2.151 . S
N159 C158 1.330 . S
N159 C163 1.418 . S
C160 H139 0.929 . S
C160 C158 1.446 . S
C160 C161 1.332 . S
C161 H141 0.931 . S
C161 C160 1.332 . S
C161 C162 1.267 . S
C162 H130 0.929 . S
C162 C161 1.267 . S
C162 C163 1.251 . S
C163 H133 0.929 . S
C163 N159 1.418 . S
C163 C162 1.251 . S
C164 H131 0.930 . S
C164 C166 1.406 . S
C164 C169 1.261 . S
C165 H132 0.930 . S
C165 N167 1.325 . S
C165 C168 1.357 . S
C166 H134 0.928 . S
C166 C164 1.406 . S
C166 N167 1.261 . S
N167 Co118 2.214 . S
N167 C165 1.325 . S
N167 C166 1.261 . S
C168 H138 0.931 . S
C168 C165 1.357 . S
C168 C169 1.312 . S
C169 H140 0.930 . S
C169 C164 1.261 . S
C169 C168 1.312 . S
C170 O142 1.214 . S
C170 O150 1.234 . S
C171 H143 0.929 . S
C171 C174 1.391 . S
C171 C176 1.391 . S
C172 H144 0.929 . S
C172 C173 1.390 . S
C172 N175 1.391 . S
C173 H145 0.930 1_655 S
C173 C172 1.390 . S
C173 C174 1.392 . S
C174 H146 0.929 . S
C174 C171 1.391 . S
C174 C173 1.392 . S
N175 Co119 2.257 . S
N175 C172 1.391 . S
N175 C176 1.388 . S
C176 H147 0.930 . S
C176 C171 1.391 . S
C176 N175 1.388 . S
Co177 O179 2.143 . S
Co177 O185 2.074 . S
Co177 O188 2.093 . S
Co177 O201 2.097 . S
Co177 N218 2.151 . S
Co177 N226 2.214 . S
Co178 O179 2.160 . S
Co178 O184 2.058 . S
Co178 O194 2.057 . S
Co178 O209 2.037 . S
Co178 N213 2.145 . S
Co178 N234 2.257 . S
O179 Co177 2.143 . S
O179 Co178 2.160 . S
C180 O181 1.278 . S
C180 O188 1.224 . S
O181 C180 1.278 . S
C182 O183 1.245 . S
C182 O194 1.232 . S
O183 C182 1.245 . S
O184 Co178 2.058 . S
O184 C210 1.269 . S
O185 Co177 2.074 . S
O185 C210 1.257 . S
H186 C211 0.930 1_545 S
H187 C217 0.930 . S
O188 Co177 2.093 . S
O188 C180 1.224 . S
H189 C221 0.929 . S
H190 C223 0.930 . S
H191 C224 0.930 . S
H192 C222 0.929 . S
H193 C225 0.928 . S
O194 Co178 2.057 . S
O194 C182 1.232 . S
H195 C214 0.929 . S
H196 C215 0.929 . S
H197 C227 0.931 . S
H198 C219 0.929 . S
H199 C228 0.930 . S
H200 C220 0.931 . S
O201 Co177 2.097 . S
O201 C229 1.214 . S
H202 C230 0.929 . S
H203 C231 0.929 . S
H204 C232 0.930 1_545 S
H205 C233 0.929 . S
H206 C235 0.930 . S
H207 C212 0.930 . S
H208 C216 0.930 . S
O209 Co178 2.037 . S
O209 C229 1.234 . S
C210 O184 1.269 . S
C210 O185 1.257 . S
C211 H186 0.930 1_565 S
C211 C214 1.388 . S
C211 C216 1.418 . S
C212 H207 0.930 . S
C212 C215 1.404 . S
C212 C216 1.353 . S
N213 Co178 2.145 . S
N213 C214 1.397 . S
N213 C215 1.334 . S
C214 H195 0.929 . S
C214 C211 1.388 . S
C214 N213 1.397 . S
C215 H196 0.929 . S
C215 C212 1.404 . S
C215 N213 1.334 . S
C216 H208 0.930 . S
C216 C211 1.418 . S
C216 C212 1.353 . S
C217 H187 0.930 . S
C217 N218 1.330 . S
C217 C219 1.446 . S
N218 Co177 2.151 . S
N218 C217 1.330 . S
N218 C222 1.418 . S
C219 H198 0.929 . S
C219 C217 1.446 . S
C219 C220 1.332 . S
C220 H200 0.931 . S
C220 C219 1.332 . S
C220 C221 1.267 . S
C221 H189 0.929 . S
C221 C220 1.267 . S
C221 C222 1.251 . S
C222 H192 0.929 . S
C222 N218 1.418 . S
C222 C221 1.251 . S
C223 H190 0.930 . S
C223 C225 1.406 . S
C223 C228 1.261 . S
C224 H191 0.930 . S
C224 N226 1.325 . S
C224 C227 1.357 . S
C225 H193 0.928 . S
C225 C223 1.406 . S
C225 N226 1.261 . S
N226 Co177 2.214 . S
N226 C224 1.325 . S
N226 C225 1.261 . S
C227 H197 0.931 . S
C227 C224 1.357 . S
C227 C228 1.312 . S
C228 H199 0.930 . S
C228 C223 1.261 . S
C228 C227 1.312 . S
C229 O201 1.214 . S
C229 O209 1.234 . S
C230 H202 0.929 . S
C230 C233 1.391 . S
C230 C235 1.391 . S
C231 H203 0.929 . S
C231 C232 1.390 . S
C231 N234 1.391 . S
C232 H204 0.930 1_565 S
C232 C231 1.390 . S
C232 C233 1.392 . S
C233 H205 0.929 . S
C233 C230 1.391 . S
C233 C232 1.392 . S
N234 Co178 2.257 . S
N234 C231 1.391 . S
N234 C235 1.388 . S
C235 H206 0.930 . S
C235 C230 1.391 . S
C235 N234 1.388 . S
Co236 O238 2.143 . S
Co236 O244 2.074 . S
Co236 O247 2.093 . S
Co236 O260 2.097 . S
Co236 N277 2.151 . S
Co236 N285 2.214 . S
Co237 O238 2.160 . S
Co237 O243 2.058 . S
Co237 O253 2.057 . S
Co237 O268 2.037 . S
Co237 N272 2.145 . S
Co237 N293 2.257 . S
O238 Co236 2.143 . S
O238 Co237 2.160 . S
C239 O240 1.278 . S
C239 O247 1.224 . S
O240 C239 1.278 . S
C241 O242 1.245 . S
C241 O253 1.232 . S
O242 C241 1.245 . S
O243 Co237 2.058 . S
O243 C269 1.269 . S
O244 Co236 2.074 . S
O244 C269 1.257 . S
H245 C270 0.930 1_655 S
H246 C276 0.930 . S
O247 Co236 2.093 . S
O247 C239 1.224 . S
H248 C280 0.929 . S
H249 C282 0.930 . S
H250 C283 0.930 . S
H251 C281 0.929 . S
H252 C284 0.928 . S
O253 Co237 2.057 . S
O253 C241 1.232 . S
H254 C273 0.929 . S
H255 C274 0.929 . S
H256 C286 0.931 . S
H257 C278 0.929 . S
H258 C287 0.930 . S
H259 C279 0.931 . S
O260 Co236 2.097 . S
O260 C288 1.214 . S
H261 C289 0.929 . S
H262 C290 0.929 . S
H263 C291 0.930 1_655 S
H264 C292 0.929 . S
H265 C294 0.930 . S
H266 C271 0.930 . S
H267 C275 0.930 . S
O268 Co237 2.037 . S
O268 C288 1.234 . S
C269 O243 1.269 . S
C269 O244 1.257 . S
C270 H245 0.930 1_455 S
C270 C273 1.388 . S
C270 C275 1.418 . S
C271 H266 0.930 . S
C271 C274 1.404 . S
C271 C275 1.353 . S
N272 Co237 2.145 . S
N272 C273 1.397 . S
N272 C274 1.334 . S
C273 H254 0.929 . S
C273 C270 1.388 . S
C273 N272 1.397 . S
C274 H255 0.929 . S
C274 C271 1.404 . S
C274 N272 1.334 . S
C275 H267 0.930 . S
C275 C270 1.418 . S
C275 C271 1.353 . S
C276 H246 0.930 . S
C276 N277 1.330 . S
C276 C278 1.446 . S
N277 Co236 2.151 . S
N277 C276 1.330 . S
N277 C281 1.418 . S
C278 H257 0.929 . S
C278 C276 1.446 . S
C278 C279 1.332 . S
C279 H259 0.931 . S
C279 C278 1.332 . S
C279 C280 1.267 . S
C280 H248 0.929 . S
C280 C279 1.267 . S
C280 C281 1.251 . S
C281 H251 0.929 . S
C281 N277 1.418 . S
C281 C280 1.251 . S
C282 H249 0.930 . S
C282 C284 1.406 . S
C282 C287 1.261 . S
C283 H250 0.930 . S
C283 N285 1.325 . S
C283 C286 1.357 . S
C284 H252 0.928 . S
C284 C282 1.406 . S
C284 N285 1.261 . S
N285 Co236 2.214 . S
N285 C283 1.325 . S
N285 C284 1.261 . S
C286 H256 0.931 . S
C286 C283 1.357 . S
C286 C287 1.312 . S
C287 H258 0.930 . S
C287 C282 1.261 . S
C287 C286 1.312 . S
C288 O260 1.214 . S
C288 O268 1.234 . S
C289 H261 0.929 . S
C289 C292 1.391 . S
C289 C294 1.391 . S
C290 H262 0.929 . S
C290 C291 1.390 . S
C290 N293 1.391 . S
C291 H263 0.930 1_455 S
C291 C290 1.390 . S
C291 C292 1.392 . S
C292 H264 0.929 . S
C292 C289 1.391 . S
C292 C291 1.392 . S
N293 Co237 2.257 . S
N293 C290 1.391 . S
N293 C294 1.388 . S
C294 H265 0.930 . S
C294 C289 1.391 . S
C294 N293 1.388 . S
Co295 O297 2.143 . S
Co295 O303 2.074 . S
Co295 O306 2.093 . S
Co295 O319 2.097 . S
Co295 N336 2.151 . S
Co295 N344 2.214 . S
Co296 O297 2.160 . S
Co296 O302 2.058 . S
Co296 O312 2.057 . S
Co296 O327 2.037 . S
Co296 N331 2.145 . S
Co296 N352 2.257 . S
O297 Co295 2.143 . S
O297 Co296 2.160 . S
C298 O299 1.278 . S
C298 O306 1.224 . S
O299 C298 1.278 . S
C300 O301 1.245 . S
C300 O312 1.232 . S
O301 C300 1.245 . S
O302 Co296 2.058 . S
O302 C328 1.269 . S
O303 Co295 2.074 . S
O303 C328 1.257 . S
H304 C329 0.930 1_565 S
H305 C335 0.930 . S
O306 Co295 2.093 . S
O306 C298 1.224 . S
H307 C339 0.929 . S
H308 C341 0.930 . S
H309 C342 0.930 . S
H310 C340 0.929 . S
H311 C343 0.928 . S
O312 Co296 2.057 . S
O312 C300 1.232 . S
H313 C332 0.929 . S
H314 C333 0.929 . S
H315 C345 0.931 . S
H316 C337 0.929 . S
H317 C346 0.930 . S
H318 C338 0.931 . S
O319 Co295 2.097 . S
O319 C347 1.214 . S
H320 C348 0.929 . S
H321 C349 0.929 . S
H322 C350 0.930 1_565 S
H323 C351 0.929 . S
H324 C353 0.930 . S
H325 C330 0.930 . S
H326 C334 0.930 . S
O327 Co296 2.037 . S
O327 C347 1.234 . S
C328 O302 1.269 . S
C328 O303 1.257 . S
C329 H304 0.930 1_545 S
C329 C332 1.388 . S
C329 C334 1.418 . S
C330 H325 0.930 . S
C330 C333 1.404 . S
C330 C334 1.353 . S
N331 Co296 2.145 . S
N331 C332 1.397 . S
N331 C333 1.334 . S
C332 H313 0.929 . S
C332 C329 1.388 . S
C332 N331 1.397 . S
C333 H314 0.929 . S
C333 C330 1.404 . S
C333 N331 1.334 . S
C334 H326 0.930 . S
C334 C329 1.418 . S
C334 C330 1.353 . S
C335 H305 0.930 . S
C335 N336 1.330 . S
C335 C337 1.446 . S
N336 Co295 2.151 . S
N336 C335 1.330 . S
N336 C340 1.418 . S
C337 H316 0.929 . S
C337 C335 1.446 . S
C337 C338 1.332 . S
C338 H318 0.931 . S
C338 C337 1.332 . S
C338 C339 1.267 . S
C339 H307 0.929 . S
C339 C338 1.267 . S
C339 C340 1.251 . S
C340 H310 0.929 . S
C340 N336 1.418 . S
C340 C339 1.251 . S
C341 H308 0.930 . S
C341 C343 1.406 . S
C341 C346 1.261 . S
C342 H309 0.930 . S
C342 N344 1.325 . S
C342 C345 1.357 . S
C343 H311 0.928 . S
C343 C341 1.406 . S
C343 N344 1.261 . S
N344 Co295 2.214 . S
N344 C342 1.325 . S
N344 C343 1.261 . S
C345 H315 0.931 . S
C345 C342 1.357 . S
C345 C346 1.312 . S
C346 H317 0.930 . S
C346 C341 1.261 . S
C346 C345 1.312 . S
C347 O319 1.214 . S
C347 O327 1.234 . S
C348 H320 0.929 . S
C348 C351 1.391 . S
C348 C353 1.391 . S
C349 H321 0.929 . S
C349 C350 1.390 . S
C349 N352 1.391 . S
C350 H322 0.930 1_545 S
C350 C349 1.390 . S
C350 C351 1.392 . S
C351 H323 0.929 . S
C351 C348 1.391 . S
C351 C350 1.392 . S
N352 Co296 2.257 . S
N352 C349 1.391 . S
N352 C353 1.388 . S
C353 H324 0.930 . S
C353 C348 1.391 . S
C353 N352 1.388 . S
Co354 O356 2.143 . S
Co354 O362 2.074 . S
Co354 O365 2.093 . S
Co354 O378 2.097 . S
Co354 N395 2.151 . S
Co354 N403 2.214 . S
Co355 O356 2.160 . S
Co355 O361 2.058 . S
Co355 O371 2.057 . S
Co355 O386 2.037 . S
Co355 N390 2.145 . S
Co355 N411 2.257 . S
O356 Co354 2.143 . S
O356 Co355 2.160 . S
C357 O358 1.278 . S
C357 O365 1.224 . S
O358 C357 1.278 . S
C359 O360 1.245 . S
C359 O371 1.232 . S
O360 C359 1.245 . S
O361 Co355 2.058 . S
O361 C387 1.269 . S
O362 Co354 2.074 . S
O362 C387 1.257 . S
H363 C388 0.930 1_455 S
H364 C394 0.930 . S
O365 Co354 2.093 . S
O365 C357 1.224 . S
H366 C398 0.929 . S
H367 C400 0.930 . S
H368 C401 0.930 . S
H369 C399 0.929 . S
H370 C402 0.928 . S
O371 Co355 2.057 . S
O371 C359 1.232 . S
H372 C391 0.929 . S
H373 C392 0.929 . S
H374 C404 0.931 . S
H375 C396 0.929 . S
H376 C405 0.930 . S
H377 C397 0.931 . S
O378 Co354 2.097 . S
O378 C406 1.214 . S
H379 C407 0.929 . S
H380 C408 0.929 . S
H381 C409 0.930 1_455 S
H382 C410 0.929 . S
H383 C412 0.930 . S
H384 C389 0.930 . S
H385 C393 0.930 . S
O386 Co355 2.037 . S
O386 C406 1.234 . S
C387 O361 1.269 . S
C387 O362 1.257 . S
C388 H363 0.930 1_655 S
C388 C391 1.388 . S
C388 C393 1.418 . S
C389 H384 0.930 . S
C389 C392 1.404 . S
C389 C393 1.353 . S
N390 Co355 2.145 . S
N390 C391 1.397 . S
N390 C392 1.334 . S
C391 H372 0.929 . S
C391 C388 1.388 . S
C391 N390 1.397 . S
C392 H373 0.929 . S
C392 C389 1.404 . S
C392 N390 1.334 . S
C393 H385 0.930 . S
C393 C388 1.418 . S
C393 C389 1.353 . S
C394 H364 0.930 . S
C394 N395 1.330 . S
C394 C396 1.446 . S
N395 Co354 2.151 . S
N395 C394 1.330 . S
N395 C399 1.418 . S
C396 H375 0.929 . S
C396 C394 1.446 . S
C396 C397 1.332 . S
C397 H377 0.931 . S
C397 C396 1.332 . S
C397 C398 1.267 . S
C398 H366 0.929 . S
C398 C397 1.267 . S
C398 C399 1.251 . S
C399 H369 0.929 . S
C399 N395 1.418 . S
C399 C398 1.251 . S
C400 H367 0.930 . S
C400 C402 1.406 . S
C400 C405 1.261 . S
C401 H368 0.930 . S
C401 N403 1.325 . S
C401 C404 1.357 . S
C402 H370 0.928 . S
C402 C400 1.406 . S
C402 N403 1.261 . S
N403 Co354 2.214 . S
N403 C401 1.325 . S
N403 C402 1.261 . S
C404 H374 0.931 . S
C404 C401 1.357 . S
C404 C405 1.312 . S
C405 H376 0.930 . S
C405 C400 1.261 . S
C405 C404 1.312 . S
C406 O378 1.214 . S
C406 O386 1.234 . S
C407 H379 0.929 . S
C407 C410 1.391 . S
C407 C412 1.391 . S
C408 H380 0.929 . S
C408 C409 1.390 . S
C408 N411 1.391 . S
C409 H381 0.930 1_655 S
C409 C408 1.390 . S
C409 C410 1.392 . S
C410 H382 0.929 . S
C410 C407 1.391 . S
C410 C409 1.392 . S
N411 Co355 2.257 . S
N411 C408 1.391 . S
N411 C412 1.388 . S
C412 H383 0.930 . S
C412 C407 1.391 . S
C412 N411 1.388 . S
Co413 O415 2.143 . S
Co413 O421 2.074 . S
Co413 O424 2.093 . S
Co413 O437 2.097 . S
Co413 N454 2.151 . S
Co413 N462 2.214 . S
Co414 O415 2.160 . S
Co414 O420 2.058 . S
Co414 O430 2.057 . S
Co414 O445 2.037 . S
Co414 N449 2.145 . S
Co414 N470 2.257 . S
O415 Co413 2.143 . S
O415 Co414 2.160 . S
C416 O417 1.278 . S
C416 O424 1.224 . S
O417 C416 1.278 . S
C418 O419 1.245 . S
C418 O430 1.232 . S
O419 C418 1.245 . S
O420 Co414 2.058 . S
O420 C446 1.269 . S
O421 Co413 2.074 . S
O421 C446 1.257 . S
H422 C447 0.930 1_545 S
H423 C453 0.930 . S
O424 Co413 2.093 . S
O424 C416 1.224 . S
H425 C457 0.929 . S
H426 C459 0.930 . S
H427 C460 0.930 . S
H428 C458 0.929 . S
H429 C461 0.928 . S
O430 Co414 2.057 . S
O430 C418 1.232 . S
H431 C450 0.929 . S
H432 C451 0.929 . S
H433 C463 0.931 . S
H434 C455 0.929 . S
H435 C464 0.930 . S
H436 C456 0.931 . S
O437 Co413 2.097 . S
O437 C465 1.214 . S
H438 C466 0.929 . S
H439 C467 0.929 . S
H440 C468 0.930 1_545 S
H441 C469 0.929 . S
H442 C471 0.930 . S
H443 C448 0.930 . S
H444 C452 0.930 . S
O445 Co414 2.037 . S
O445 C465 1.234 . S
C446 O420 1.269 . S
C446 O421 1.257 . S
C447 H422 0.930 1_565 S
C447 C450 1.388 . S
C447 C452 1.418 . S
C448 H443 0.930 . S
C448 C451 1.404 . S
C448 C452 1.353 . S
N449 Co414 2.145 . S
N449 C450 1.397 . S
N449 C451 1.334 . S
C450 H431 0.929 . S
C450 C447 1.388 . S
C450 N449 1.397 . S
C451 H432 0.929 . S
C451 C448 1.404 . S
C451 N449 1.334 . S
C452 H444 0.930 . S
C452 C447 1.418 . S
C452 C448 1.353 . S
C453 H423 0.930 . S
C453 N454 1.330 . S
C453 C455 1.446 . S
N454 Co413 2.151 . S
N454 C453 1.330 . S
N454 C458 1.418 . S
C455 H434 0.929 . S
C455 C453 1.446 . S
C455 C456 1.332 . S
C456 H436 0.931 . S
C456 C455 1.332 . S
C456 C457 1.267 . S
C457 H425 0.929 . S
C457 C456 1.267 . S
C457 C458 1.251 . S
C458 H428 0.929 . S
C458 N454 1.418 . S
C458 C457 1.251 . S
C459 H426 0.930 . S
C459 C461 1.406 . S
C459 C464 1.261 . S
C460 H427 0.930 . S
C460 N462 1.325 . S
C460 C463 1.357 . S
C461 H429 0.928 . S
C461 C459 1.406 . S
C461 N462 1.261 . S
N462 Co413 2.214 . S
N462 C460 1.325 . S
N462 C461 1.261 . S
C463 H433 0.931 . S
C463 C460 1.357 . S
C463 C464 1.312 . S
C464 H435 0.930 . S
C464 C459 1.261 . S
C464 C463 1.312 . S
C465 O437 1.214 . S
C465 O445 1.234 . S
C466 H438 0.929 . S
C466 C469 1.391 . S
C466 C471 1.391 . S
C467 H439 0.929 . S
C467 C468 1.390 . S
C467 N470 1.391 . S
C468 H440 0.930 1_565 S
C468 C467 1.390 . S
C468 C469 1.392 . S
C469 H441 0.929 . S
C469 C466 1.391 . S
C469 C468 1.392 . S
N470 Co414 2.257 . S
N470 C467 1.391 . S
N470 C471 1.388 . S
C471 H442 0.930 . S
C471 C466 1.391 . S
C471 N470 1.388 . S
Co472 O474 2.143 . S
Co472 O480 2.074 . S
Co472 O483 2.093 . S
Co472 O496 2.097 . S
Co472 N513 2.151 . S
Co472 N521 2.214 . S
Co473 O474 2.160 . S
Co473 O479 2.058 . S
Co473 O489 2.057 . S
Co473 O504 2.037 . S
Co473 N508 2.145 . S
Co473 N529 2.257 . S
O474 Co472 2.143 . S
O474 Co473 2.160 . S
C475 O476 1.278 . S
C475 O483 1.224 . S
O476 C475 1.278 . S
C477 O478 1.245 . S
C477 O489 1.232 . S
O478 C477 1.245 . S
O479 Co473 2.058 . S
O479 C505 1.269 . S
O480 Co472 2.074 . S
O480 C505 1.257 . S
H481 C506 0.930 1_455 S
H482 C512 0.930 . S
O483 Co472 2.093 . S
O483 C475 1.224 . S
H484 C516 0.929 . S
H485 C518 0.930 . S
H486 C519 0.930 . S
H487 C517 0.929 . S
H488 C520 0.928 . S
O489 Co473 2.057 . S
O489 C477 1.232 . S
H490 C509 0.929 . S
H491 C510 0.929 . S
H492 C522 0.931 . S
H493 C514 0.929 . S
H494 C523 0.930 . S
H495 C515 0.931 . S
O496 Co472 2.097 . S
O496 C524 1.214 . S
H497 C525 0.929 . S
H498 C526 0.929 . S
H499 C527 0.930 1_455 S
H500 C528 0.929 . S
H501 C530 0.930 . S
H502 C507 0.930 . S
H503 C511 0.930 . S
O504 Co473 2.037 . S
O504 C524 1.234 . S
C505 O479 1.269 . S
C505 O480 1.257 . S
C506 H481 0.930 1_655 S
C506 C509 1.388 . S
C506 C511 1.418 . S
C507 H502 0.930 . S
C507 C510 1.404 . S
C507 C511 1.353 . S
N508 Co473 2.145 . S
N508 C509 1.397 . S
N508 C510 1.334 . S
C509 H490 0.929 . S
C509 C506 1.388 . S
C509 N508 1.397 . S
C510 H491 0.929 . S
C510 C507 1.404 . S
C510 N508 1.334 . S
C511 H503 0.930 . S
C511 C506 1.418 . S
C511 C507 1.353 . S
C512 H482 0.930 . S
C512 N513 1.330 . S
C512 C514 1.446 . S
N513 Co472 2.151 . S
N513 C512 1.330 . S
N513 C517 1.418 . S
C514 H493 0.929 . S
C514 C512 1.446 . S
C514 C515 1.332 . S
C515 H495 0.931 . S
C515 C514 1.332 . S
C515 C516 1.267 . S
C516 H484 0.929 . S
C516 C515 1.267 . S
C516 C517 1.251 . S
C517 H487 0.929 . S
C517 N513 1.418 . S
C517 C516 1.251 . S
C518 H485 0.930 . S
C518 C520 1.406 . S
C518 C523 1.261 . S
C519 H486 0.930 . S
C519 N521 1.325 . S
C519 C522 1.357 . S
C520 H488 0.928 . S
C520 C518 1.406 . S
C520 N521 1.261 . S
N521 Co472 2.214 . S
N521 C519 1.325 . S
N521 C520 1.261 . S
C522 H492 0.931 . S
C522 C519 1.357 . S
C522 C523 1.312 . S
C523 H494 0.930 . S
C523 C518 1.261 . S
C523 C522 1.312 . S
C524 O496 1.214 . S
C524 O504 1.234 . S
C525 H497 0.929 . S
C525 C528 1.391 . S
C525 C530 1.391 . S
C526 H498 0.929 . S
C526 C527 1.390 . S
C526 N529 1.391 . S
C527 H499 0.930 1_655 S
C527 C526 1.390 . S
C527 C528 1.392 . S
C528 H500 0.929 . S
C528 C525 1.391 . S
C528 C527 1.392 . S
N529 Co473 2.257 . S
N529 C526 1.391 . S
N529 C530 1.388 . S
C530 H501 0.930 . S
C530 C525 1.391 . S
C530 N529 1.388 . S
Co531 O533 2.143 . S
Co531 O539 2.074 . S
Co531 O542 2.093 . S
Co531 O555 2.097 . S
Co531 N572 2.151 . S
Co531 N580 2.214 . S
Co532 O533 2.160 . S
Co532 O538 2.058 . S
Co532 O548 2.057 . S
Co532 O563 2.037 . S
Co532 N567 2.145 . S
Co532 N588 2.257 . S
O533 Co531 2.143 . S
O533 Co532 2.160 . S
C534 O535 1.278 . S
C534 O542 1.224 . S
O535 C534 1.278 . S
C536 O537 1.245 . S
C536 O548 1.232 . S
O537 C536 1.245 . S
O538 Co532 2.058 . S
O538 C564 1.269 . S
O539 Co531 2.074 . S
O539 C564 1.257 . S
H540 C565 0.930 1_545 S
H541 C571 0.930 . S
O542 Co531 2.093 . S
O542 C534 1.224 . S
H543 C575 0.929 . S
H544 C577 0.930 . S
H545 C578 0.930 . S
H546 C576 0.929 . S
H547 C579 0.928 . S
O548 Co532 2.057 . S
O548 C536 1.232 . S
H549 C568 0.929 . S
H550 C569 0.929 . S
H551 C581 0.931 . S
H552 C573 0.929 . S
H553 C582 0.930 . S
H554 C574 0.931 . S
O555 Co531 2.097 . S
O555 C583 1.214 . S
H556 C584 0.929 . S
H557 C585 0.929 . S
H558 C586 0.930 1_545 S
H559 C587 0.929 . S
H560 C589 0.930 . S
H561 C566 0.930 . S
H562 C570 0.930 . S
O563 Co532 2.037 . S
O563 C583 1.234 . S
C564 O538 1.269 . S
C564 O539 1.257 . S
C565 H540 0.930 1_565 S
C565 C568 1.388 . S
C565 C570 1.418 . S
C566 H561 0.930 . S
C566 C569 1.404 . S
C566 C570 1.353 . S
N567 Co532 2.145 . S
N567 C568 1.397 . S
N567 C569 1.334 . S
C568 H549 0.929 . S
C568 C565 1.388 . S
C568 N567 1.397 . S
C569 H550 0.929 . S
C569 C566 1.404 . S
C569 N567 1.334 . S
C570 H562 0.930 . S
C570 C565 1.418 . S
C570 C566 1.353 . S
C571 H541 0.930 . S
C571 N572 1.330 . S
C571 C573 1.446 . S
N572 Co531 2.151 . S
N572 C571 1.330 . S
N572 C576 1.418 . S
C573 H552 0.929 . S
C573 C571 1.446 . S
C573 C574 1.332 . S
C574 H554 0.931 . S
C574 C573 1.332 . S
C574 C575 1.267 . S
C575 H543 0.929 . S
C575 C574 1.267 . S
C575 C576 1.251 . S
C576 H546 0.929 . S
C576 N572 1.418 . S
C576 C575 1.251 . S
C577 H544 0.930 . S
C577 C579 1.406 . S
C577 C582 1.261 . S
C578 H545 0.930 . S
C578 N580 1.325 . S
C578 C581 1.357 . S
C579 H547 0.928 . S
C579 C577 1.406 . S
C579 N580 1.261 . S
N580 Co531 2.214 . S
N580 C578 1.325 . S
N580 C579 1.261 . S
C581 H551 0.931 . S
C581 C578 1.357 . S
C581 C582 1.312 . S
C582 H553 0.930 . S
C582 C577 1.261 . S
C582 C581 1.312 . S
C583 O555 1.214 . S
C583 O563 1.234 . S
C584 H556 0.929 . S
C584 C587 1.391 . S
C584 C589 1.391 . S
C585 H557 0.929 . S
C585 C586 1.390 . S
C585 N588 1.391 . S
C586 H558 0.930 1_565 S
C586 C585 1.390 . S
C586 C587 1.392 . S
C587 H559 0.929 . S
C587 C584 1.391 . S
C587 C586 1.392 . S
N588 Co532 2.257 . S
N588 C585 1.391 . S
N588 C589 1.388 . S
C589 H560 0.930 . S
C589 C584 1.391 . S
C589 N588 1.388 . S
Co590 O592 2.143 . S
Co590 O598 2.074 . S
Co590 O601 2.093 . S
Co590 O614 2.097 . S
Co590 N631 2.151 . S
Co590 N639 2.214 . S
Co591 O592 2.160 . S
Co591 O597 2.058 . S
Co591 O607 2.057 . S
Co591 O622 2.037 . S
Co591 N626 2.145 . S
Co591 N647 2.257 . S
O592 Co590 2.143 . S
O592 Co591 2.160 . S
C593 O594 1.278 . S
C593 O601 1.224 . S
O594 C593 1.278 . S
C595 O596 1.245 . S
C595 O607 1.232 . S
O596 C595 1.245 . S
O597 Co591 2.058 . S
O597 C623 1.269 . S
O598 Co590 2.074 . S
O598 C623 1.257 . S
H599 C624 0.930 1_655 S
H600 C630 0.930 . S
O601 Co590 2.093 . S
O601 C593 1.224 . S
H602 C634 0.929 . S
H603 C636 0.930 . S
H604 C637 0.930 . S
H605 C635 0.929 . S
H606 C638 0.928 . S
O607 Co591 2.057 . S
O607 C595 1.232 . S
H608 C627 0.929 . S
H609 C628 0.929 . S
H610 C640 0.931 . S
H611 C632 0.929 . S
H612 C641 0.930 . S
H613 C633 0.931 . S
O614 Co590 2.097 . S
O614 C642 1.214 . S
H615 C643 0.929 . S
H616 C644 0.929 . S
H617 C645 0.930 1_655 S
H618 C646 0.929 . S
H619 C648 0.930 . S
H620 C625 0.930 . S
H621 C629 0.930 . S
O622 Co591 2.037 . S
O622 C642 1.234 . S
C623 O597 1.269 . S
C623 O598 1.257 . S
C624 H599 0.930 1_455 S
C624 C627 1.388 . S
C624 C629 1.418 . S
C625 H620 0.930 . S
C625 C628 1.404 . S
C625 C629 1.353 . S
N626 Co591 2.145 . S
N626 C627 1.397 . S
N626 C628 1.334 . S
C627 H608 0.929 . S
C627 C624 1.388 . S
C627 N626 1.397 . S
C628 H609 0.929 . S
C628 C625 1.404 . S
C628 N626 1.334 . S
C629 H621 0.930 . S
C629 C624 1.418 . S
C629 C625 1.353 . S
C630 H600 0.930 . S
C630 N631 1.330 . S
C630 C632 1.446 . S
N631 Co590 2.151 . S
N631 C630 1.330 . S
N631 C635 1.418 . S
C632 H611 0.929 . S
C632 C630 1.446 . S
C632 C633 1.332 . S
C633 H613 0.931 . S
C633 C632 1.332 . S
C633 C634 1.267 . S
C634 H602 0.929 . S
C634 C633 1.267 . S
C634 C635 1.251 . S
C635 H605 0.929 . S
C635 N631 1.418 . S
C635 C634 1.251 . S
C636 H603 0.930 . S
C636 C638 1.406 . S
C636 C641 1.261 . S
C637 H604 0.930 . S
C637 N639 1.325 . S
C637 C640 1.357 . S
C638 H606 0.928 . S
C638 C636 1.406 . S
C638 N639 1.261 . S
N639 Co590 2.214 . S
N639 C637 1.325 . S
N639 C638 1.261 . S
C640 H610 0.931 . S
C640 C637 1.357 . S
C640 C641 1.312 . S
C641 H612 0.930 . S
C641 C636 1.261 . S
C641 C640 1.312 . S
C642 O614 1.214 . S
C642 O622 1.234 . S
C643 H615 0.929 . S
C643 C646 1.391 . S
C643 C648 1.391 . S
C644 H616 0.929 . S
C644 C645 1.390 . S
C644 N647 1.391 . S
C645 H617 0.930 1_455 S
C645 C644 1.390 . S
C645 C646 1.392 . S
C646 H618 0.929 . S
C646 C643 1.391 . S
C646 C645 1.392 . S
N647 Co591 2.257 . S
N647 C644 1.391 . S
N647 C648 1.388 . S
C648 H619 0.930 . S
C648 C643 1.391 . S
C648 N647 1.388 . S
Co649 O651 2.143 . S
Co649 O657 2.074 . S
Co649 O660 2.093 . S
Co649 O673 2.097 . S
Co649 N690 2.151 . S
Co649 N698 2.214 . S
Co650 O651 2.160 . S
Co650 O656 2.058 . S
Co650 O666 2.057 . S
Co650 O681 2.037 . S
Co650 N685 2.145 . S
Co650 N706 2.257 . S
O651 Co649 2.143 . S
O651 Co650 2.160 . S
C652 O653 1.278 . S
C652 O660 1.224 . S
O653 C652 1.278 . S
C654 O655 1.245 . S
C654 O666 1.232 . S
O655 C654 1.245 . S
O656 Co650 2.058 . S
O656 C682 1.269 . S
O657 Co649 2.074 . S
O657 C682 1.257 . S
H658 C683 0.930 1_565 S
H659 C689 0.930 . S
O660 Co649 2.093 . S
O660 C652 1.224 . S
H661 C693 0.929 . S
H662 C695 0.930 . S
H663 C696 0.930 . S
H664 C694 0.929 . S
H665 C697 0.928 . S
O666 Co650 2.057 . S
O666 C654 1.232 . S
H667 C686 0.929 . S
H668 C687 0.929 . S
H669 C699 0.931 . S
H670 C691 0.929 . S
H671 C700 0.930 . S
H672 C692 0.931 . S
O673 Co649 2.097 . S
O673 C701 1.214 . S
H674 C702 0.929 . S
H675 C703 0.929 . S
H676 C704 0.930 1_565 S
H677 C705 0.929 . S
H678 C707 0.930 . S
H679 C684 0.930 . S
H680 C688 0.930 . S
O681 Co650 2.037 . S
O681 C701 1.234 . S
C682 O656 1.269 . S
C682 O657 1.257 . S
C683 H658 0.930 1_545 S
C683 C686 1.388 . S
C683 C688 1.418 . S
C684 H679 0.930 . S
C684 C687 1.404 . S
C684 C688 1.353 . S
N685 Co650 2.145 . S
N685 C686 1.397 . S
N685 C687 1.334 . S
C686 H667 0.929 . S
C686 C683 1.388 . S
C686 N685 1.397 . S
C687 H668 0.929 . S
C687 C684 1.404 . S
C687 N685 1.334 . S
C688 H680 0.930 . S
C688 C683 1.418 . S
C688 C684 1.353 . S
C689 H659 0.930 . S
C689 N690 1.330 . S
C689 C691 1.446 . S
N690 Co649 2.151 . S
N690 C689 1.330 . S
N690 C694 1.418 . S
C691 H670 0.929 . S
C691 C689 1.446 . S
C691 C692 1.332 . S
C692 H672 0.931 . S
C692 C691 1.332 . S
C692 C693 1.267 . S
C693 H661 0.929 . S
C693 C692 1.267 . S
C693 C694 1.251 . S
C694 H664 0.929 . S
C694 N690 1.418 . S
C694 C693 1.251 . S
C695 H662 0.930 . S
C695 C697 1.406 . S
C695 C700 1.261 . S
C696 H663 0.930 . S
C696 N698 1.325 . S
C696 C699 1.357 . S
C697 H665 0.928 . S
C697 C695 1.406 . S
C697 N698 1.261 . S
N698 Co649 2.214 . S
N698 C696 1.325 . S
N698 C697 1.261 . S
C699 H669 0.931 . S
C699 C696 1.357 . S
C699 C700 1.312 . S
C700 H671 0.930 . S
C700 C695 1.261 . S
C700 C699 1.312 . S
C701 O673 1.214 . S
C701 O681 1.234 . S
C702 H674 0.929 . S
C702 C705 1.391 . S
C702 C707 1.391 . S
C703 H675 0.929 . S
C703 C704 1.390 . S
C703 N706 1.391 . S
C704 H676 0.930 1_545 S
C704 C703 1.390 . S
C704 C705 1.392 . S
C705 H677 0.929 . S
C705 C702 1.391 . S
C705 C704 1.392 . S
N706 Co650 2.257 . S
N706 C703 1.391 . S
N706 C707 1.388 . S
C707 H678 0.930 . S
C707 C702 1.391 . S
C707 N706 1.388 . S
Co708 O710 2.143 . S
Co708 O716 2.074 . S
Co708 O719 2.093 . S
Co708 O732 2.097 . S
Co708 N749 2.151 . S
Co708 N757 2.214 . S
Co709 O710 2.160 . S
Co709 O715 2.058 . S
Co709 O725 2.057 . S
Co709 O740 2.037 . S
Co709 N744 2.145 . S
Co709 N765 2.257 . S
O710 Co708 2.143 . S
O710 Co709 2.160 . S
C711 O712 1.278 . S
C711 O719 1.224 . S
O712 C711 1.278 . S
C713 O714 1.245 . S
C713 O725 1.232 . S
O714 C713 1.245 . S
O715 Co709 2.058 . S
O715 C741 1.269 . S
O716 Co708 2.074 . S
O716 C741 1.257 . S
H717 C742 0.930 1_455 S
H718 C748 0.930 . S
O719 Co708 2.093 . S
O719 C711 1.224 . S
H720 C752 0.929 . S
H721 C754 0.930 . S
H722 C755 0.930 . S
H723 C753 0.929 . S
H724 C756 0.928 . S
O725 Co709 2.057 . S
O725 C713 1.232 . S
H726 C745 0.929 . S
H727 C746 0.929 . S
H728 C758 0.931 . S
H729 C750 0.929 . S
H730 C759 0.930 . S
H731 C751 0.931 . S
O732 Co708 2.097 . S
O732 C760 1.214 . S
H733 C761 0.929 . S
H734 C762 0.929 . S
H735 C763 0.930 1_455 S
H736 C764 0.929 . S
H737 C766 0.930 . S
H738 C743 0.930 . S
H739 C747 0.930 . S
O740 Co709 2.037 . S
O740 C760 1.234 . S
C741 O715 1.269 . S
C741 O716 1.257 . S
C742 H717 0.930 1_655 S
C742 C745 1.388 . S
C742 C747 1.418 . S
C743 H738 0.930 . S
C743 C746 1.404 . S
C743 C747 1.353 . S
N744 Co709 2.145 . S
N744 C745 1.397 . S
N744 C746 1.334 . S
C745 H726 0.929 . S
C745 C742 1.388 . S
C745 N744 1.397 . S
C746 H727 0.929 . S
C746 C743 1.404 . S
C746 N744 1.334 . S
C747 H739 0.930 . S
C747 C742 1.418 . S
C747 C743 1.353 . S
C748 H718 0.930 . S
C748 N749 1.330 . S
C748 C750 1.446 . S
N749 Co708 2.151 . S
N749 C748 1.330 . S
N749 C753 1.418 . S
C750 H729 0.929 . S
C750 C748 1.446 . S
C750 C751 1.332 . S
C751 H731 0.931 . S
C751 C750 1.332 . S
C751 C752 1.267 . S
C752 H720 0.929 . S
C752 C751 1.267 . S
C752 C753 1.251 . S
C753 H723 0.929 . S
C753 N749 1.418 . S
C753 C752 1.251 . S
C754 H721 0.930 . S
C754 C756 1.406 . S
C754 C759 1.261 . S
C755 H722 0.930 . S
C755 N757 1.325 . S
C755 C758 1.357 . S
C756 H724 0.928 . S
C756 C754 1.406 . S
C756 N757 1.261 . S
N757 Co708 2.214 . S
N757 C755 1.325 . S
N757 C756 1.261 . S
C758 H728 0.931 . S
C758 C755 1.357 . S
C758 C759 1.312 . S
C759 H730 0.930 . S
C759 C754 1.261 . S
C759 C758 1.312 . S
C760 O732 1.214 . S
C760 O740 1.234 . S
C761 H733 0.929 . S
C761 C764 1.391 . S
C761 C766 1.391 . S
C762 H734 0.929 . S
C762 C763 1.390 . S
C762 N765 1.391 . S
C763 H735 0.930 1_655 S
C763 C762 1.390 . S
C763 C764 1.392 . S
C764 H736 0.929 . S
C764 C761 1.391 . S
C764 C763 1.392 . S
N765 Co709 2.257 . S
N765 C762 1.391 . S
N765 C766 1.388 . S
C766 H737 0.930 . S
C766 C761 1.391 . S
C766 N765 1.388 . S
Co767 O769 2.143 . S
Co767 O775 2.074 . S
Co767 O778 2.093 . S
Co767 O791 2.097 . S
Co767 N808 2.151 . S
Co767 N816 2.214 . S
Co768 O769 2.160 . S
Co768 O774 2.058 . S
Co768 O784 2.057 . S
Co768 O799 2.037 . S
Co768 N803 2.145 . S
Co768 N824 2.257 . S
O769 Co767 2.143 . S
O769 Co768 2.160 . S
C770 O771 1.278 . S
C770 O778 1.224 . S
O771 C770 1.278 . S
C772 O773 1.245 . S
C772 O784 1.232 . S
O773 C772 1.245 . S
O774 Co768 2.058 . S
O774 C800 1.269 . S
O775 Co767 2.074 . S
O775 C800 1.257 . S
H776 C801 0.930 1_545 S
H777 C807 0.930 . S
O778 Co767 2.093 . S
O778 C770 1.224 . S
H779 C811 0.929 . S
H780 C813 0.930 . S
H781 C814 0.930 . S
H782 C812 0.929 . S
H783 C815 0.928 . S
O784 Co768 2.057 . S
O784 C772 1.232 . S
H785 C804 0.929 . S
H786 C805 0.929 . S
H787 C817 0.931 . S
H788 C809 0.929 . S
H789 C818 0.930 . S
H790 C810 0.931 . S
O791 Co767 2.097 . S
O791 C819 1.214 . S
H792 C820 0.929 . S
H793 C821 0.929 . S
H794 C822 0.930 1_545 S
H795 C823 0.929 . S
H796 C825 0.930 . S
H797 C802 0.930 . S
H798 C806 0.930 . S
O799 Co768 2.037 . S
O799 C819 1.234 . S
C800 O774 1.269 . S
C800 O775 1.257 . S
C801 H776 0.930 1_565 S
C801 C804 1.388 . S
C801 C806 1.418 . S
C802 H797 0.930 . S
C802 C805 1.404 . S
C802 C806 1.353 . S
N803 Co768 2.145 . S
N803 C804 1.397 . S
N803 C805 1.334 . S
C804 H785 0.929 . S
C804 C801 1.388 . S
C804 N803 1.397 . S
C805 H786 0.929 . S
C805 C802 1.404 . S
C805 N803 1.334 . S
C806 H798 0.930 . S
C806 C801 1.418 . S
C806 C802 1.353 . S
C807 H777 0.930 . S
C807 N808 1.330 . S
C807 C809 1.446 . S
N808 Co767 2.151 . S
N808 C807 1.330 . S
N808 C812 1.418 . S
C809 H788 0.929 . S
C809 C807 1.446 . S
C809 C810 1.332 . S
C810 H790 0.931 . S
C810 C809 1.332 . S
C810 C811 1.267 . S
C811 H779 0.929 . S
C811 C810 1.267 . S
C811 C812 1.251 . S
C812 H782 0.929 . S
C812 N808 1.418 . S
C812 C811 1.251 . S
C813 H780 0.930 . S
C813 C815 1.406 . S
C813 C818 1.261 . S
C814 H781 0.930 . S
C814 N816 1.325 . S
C814 C817 1.357 . S
C815 H783 0.928 . S
C815 C813 1.406 . S
C815 N816 1.261 . S
N816 Co767 2.214 . S
N816 C814 1.325 . S
N816 C815 1.261 . S
C817 H787 0.931 . S
C817 C814 1.357 . S
C817 C818 1.312 . S
C818 H789 0.930 . S
C818 C813 1.261 . S
C818 C817 1.312 . S
C819 O791 1.214 . S
C819 O799 1.234 . S
C820 H792 0.929 . S
C820 C823 1.391 . S
C820 C825 1.391 . S
C821 H793 0.929 . S
C821 C822 1.390 . S
C821 N824 1.391 . S
C822 H794 0.930 1_565 S
C822 C821 1.390 . S
C822 C823 1.392 . S
C823 H795 0.929 . S
C823 C820 1.391 . S
C823 C822 1.392 . S
N824 Co768 2.257 . S
N824 C821 1.391 . S
N824 C825 1.388 . S
C825 H796 0.930 . S
C825 C820 1.391 . S
C825 N824 1.388 . S
Co826 O828 2.143 . S
Co826 O834 2.074 . S
Co826 O837 2.093 . S
Co826 O850 2.097 . S
Co826 N867 2.151 . S
Co826 N875 2.214 . S
Co827 O828 2.160 . S
Co827 O833 2.058 . S
Co827 O843 2.057 . S
Co827 O858 2.037 . S
Co827 N862 2.145 . S
Co827 N883 2.257 . S
O828 Co826 2.143 . S
O828 Co827 2.160 . S
C829 O830 1.278 . S
C829 O837 1.224 . S
O830 C829 1.278 . S
C831 O832 1.245 . S
C831 O843 1.232 . S
O832 C831 1.245 . S
O833 Co827 2.058 . S
O833 C859 1.269 . S
O834 Co826 2.074 . S
O834 C859 1.257 . S
H835 C860 0.930 1_655 S
H836 C866 0.930 . S
O837 Co826 2.093 . S
O837 C829 1.224 . S
H838 C870 0.929 . S
H839 C872 0.930 . S
H840 C873 0.930 . S
H841 C871 0.929 . S
H842 C874 0.928 . S
O843 Co827 2.057 . S
O843 C831 1.232 . S
H844 C863 0.929 . S
H845 C864 0.929 . S
H846 C876 0.931 . S
H847 C868 0.929 . S
H848 C877 0.930 . S
H849 C869 0.931 . S
O850 Co826 2.097 . S
O850 C878 1.214 . S
H851 C879 0.929 . S
H852 C880 0.929 . S
H853 C881 0.930 1_655 S
H854 C882 0.929 . S
H855 C884 0.930 . S
H856 C861 0.930 . S
H857 C865 0.930 . S
O858 Co827 2.037 . S
O858 C878 1.234 . S
C859 O833 1.269 . S
C859 O834 1.257 . S
C860 H835 0.930 1_455 S
C860 C863 1.388 . S
C860 C865 1.418 . S
C861 H856 0.930 . S
C861 C864 1.404 . S
C861 C865 1.353 . S
N862 Co827 2.145 . S
N862 C863 1.397 . S
N862 C864 1.334 . S
C863 H844 0.929 . S
C863 C860 1.388 . S
C863 N862 1.397 . S
C864 H845 0.929 . S
C864 C861 1.404 . S
C864 N862 1.334 . S
C865 H857 0.930 . S
C865 C860 1.418 . S
C865 C861 1.353 . S
C866 H836 0.930 . S
C866 N867 1.330 . S
C866 C868 1.446 . S
N867 Co826 2.151 . S
N867 C866 1.330 . S
N867 C871 1.418 . S
C868 H847 0.929 . S
C868 C866 1.446 . S
C868 C869 1.332 . S
C869 H849 0.931 . S
C869 C868 1.332 . S
C869 C870 1.267 . S
C870 H838 0.929 . S
C870 C869 1.267 . S
C870 C871 1.251 . S
C871 H841 0.929 . S
C871 N867 1.418 . S
C871 C870 1.251 . S
C872 H839 0.930 . S
C872 C874 1.406 . S
C872 C877 1.261 . S
C873 H840 0.930 . S
C873 N875 1.325 . S
C873 C876 1.357 . S
C874 H842 0.928 . S
C874 C872 1.406 . S
C874 N875 1.261 . S
N875 Co826 2.214 . S
N875 C873 1.325 . S
N875 C874 1.261 . S
C876 H846 0.931 . S
C876 C873 1.357 . S
C876 C877 1.312 . S
C877 H848 0.930 . S
C877 C872 1.261 . S
C877 C876 1.312 . S
C878 O850 1.214 . S
C878 O858 1.234 . S
C879 H851 0.929 . S
C879 C882 1.391 . S
C879 C884 1.391 . S
C880 H852 0.929 . S
C880 C881 1.390 . S
C880 N883 1.391 . S
C881 H853 0.930 1_455 S
C881 C880 1.390 . S
C881 C882 1.392 . S
C882 H854 0.929 . S
C882 C879 1.391 . S
C882 C881 1.392 . S
N883 Co827 2.257 . S
N883 C880 1.391 . S
N883 C884 1.388 . S
C884 H855 0.930 . S
C884 C879 1.391 . S
C884 N883 1.388 . S
Co885 O887 2.143 . S
Co885 O893 2.074 . S
Co885 O896 2.093 . S
Co885 O909 2.097 . S
Co885 N926 2.151 . S
Co885 N934 2.214 . S
Co886 O887 2.160 . S
Co886 O892 2.058 . S
Co886 O902 2.057 . S
Co886 O917 2.037 . S
Co886 N921 2.145 . S
Co886 N942 2.257 . S
O887 Co885 2.143 . S
O887 Co886 2.160 . S
C888 O889 1.278 . S
C888 O896 1.224 . S
O889 C888 1.278 . S
C890 O891 1.245 . S
C890 O902 1.232 . S
O891 C890 1.245 . S
O892 Co886 2.058 . S
O892 C918 1.269 . S
O893 Co885 2.074 . S
O893 C918 1.257 . S
H894 C919 0.930 1_565 S
H895 C925 0.930 . S
O896 Co885 2.093 . S
O896 C888 1.224 . S
H897 C929 0.929 . S
H898 C931 0.930 . S
H899 C932 0.930 . S
H900 C930 0.929 . S
H901 C933 0.928 . S
O902 Co886 2.057 . S
O902 C890 1.232 . S
H903 C922 0.929 . S
H904 C923 0.929 . S
H905 C935 0.931 . S
H906 C927 0.929 . S
H907 C936 0.930 . S
H908 C928 0.931 . S
O909 Co885 2.097 . S
O909 C937 1.214 . S
H910 C938 0.929 . S
H911 C939 0.929 . S
H912 C940 0.930 1_565 S
H913 C941 0.929 . S
H914 C943 0.930 . S
H915 C920 0.930 . S
H916 C924 0.930 . S
O917 Co886 2.037 . S
O917 C937 1.234 . S
C918 O892 1.269 . S
C918 O893 1.257 . S
C919 H894 0.930 1_545 S
C919 C922 1.388 . S
C919 C924 1.418 . S
C920 H915 0.930 . S
C920 C923 1.404 . S
C920 C924 1.353 . S
N921 Co886 2.145 . S
N921 C922 1.397 . S
N921 C923 1.334 . S
C922 H903 0.929 . S
C922 C919 1.388 . S
C922 N921 1.397 . S
C923 H904 0.929 . S
C923 C920 1.404 . S
C923 N921 1.334 . S
C924 H916 0.930 . S
C924 C919 1.418 . S
C924 C920 1.353 . S
C925 H895 0.930 . S
C925 N926 1.330 . S
C925 C927 1.446 . S
N926 Co885 2.151 . S
N926 C925 1.330 . S
N926 C930 1.418 . S
C927 H906 0.929 . S
C927 C925 1.446 . S
C927 C928 1.332 . S
C928 H908 0.931 . S
C928 C927 1.332 . S
C928 C929 1.267 . S
C929 H897 0.929 . S
C929 C928 1.267 . S
C929 C930 1.251 . S
C930 H900 0.929 . S
C930 N926 1.418 . S
C930 C929 1.251 . S
C931 H898 0.930 . S
C931 C933 1.406 . S
C931 C936 1.261 . S
C932 H899 0.930 . S
C932 N934 1.325 . S
C932 C935 1.357 . S
C933 H901 0.928 . S
C933 C931 1.406 . S
C933 N934 1.261 . S
N934 Co885 2.214 . S
N934 C932 1.325 . S
N934 C933 1.261 . S
C935 H905 0.931 . S
C935 C932 1.357 . S
C935 C936 1.312 . S
C936 H907 0.930 . S
C936 C931 1.261 . S
C936 C935 1.312 . S
C937 O909 1.214 . S
C937 O917 1.234 . S
C938 H910 0.929 . S
C938 C941 1.391 . S
C938 C943 1.391 . S
C939 H911 0.929 . S
C939 C940 1.390 . S
C939 N942 1.391 . S
C940 H912 0.930 1_545 S
C940 C939 1.390 . S
C940 C941 1.392 . S
C941 H913 0.929 . S
C941 C938 1.391 . S
C941 C940 1.392 . S
N942 Co886 2.257 . S
N942 C939 1.391 . S
N942 C943 1.388 . S
C943 H914 0.930 . S
C943 C938 1.391 . S
C943 N942 1.388 . S
C52 C170 1.442 1_455 S
C229 C111 1.442 1_565 S
C288 C406 1.442 1_455 S
C465 C347 1.442 1_565 S
C524 C642 1.442 1_655 S
C701 C583 1.442 1_545 S
C760 C878 1.442 1_655 S
C937 C819 1.442 1_545 S
C269 C33 1.635 . S
C92 C328 1.635 . S
C151 C387 1.635 . S
C446 C210 1.635 . S
C505 C741 1.635 . S
C564 C800 1.635 . S
C623 C859 1.635 . S
C682 C918 1.635 . S
C593 C3 1.474 1_556 S
C652 C62 1.474 . S
C121 C475 1.474 1_554 S
C180 C534 1.474 . S
C239 C829 1.474 . S
C298 C888 1.474 1_556 S
C357 C711 1.474 . S
C770 C416 1.474 1_554 S
C5 C890 1.487 . S
C713 C64 1.487 . S
C123 C772 1.487 . S
C831 C182 1.487 . S
C536 C241 1.487 . S
C300 C595 1.487 . S
C654 C359 1.487 . S
C477 C418 1.487 . S
