# Generated by pormake.
# Topology wjq, (5)-cn, num edge types: 1
# Building blocks:
#     Node 0, Type 0, BuildingBlock: XOMCOT_clean_sbu_1, # of connection points: 5
#     Node 1, Type 0, BuildingBlock: XOMCOT_clean_sbu_1, # of connection points: 5
#     Node 2, Type 0, BuildingBlock: XOMCOT_clean_sbu_1, # of connection points: 5
#     Node 3, Type 0, BuildingBlock: XOMCOT_clean_sbu_1, # of connection points: 5
#     Node 4, Type 0, BuildingBlock: XOMCOT_clean_sbu_1, # of connection points: 5
#     Node 5, Type 0, BuildingBlock: XOMCOT_clean_sbu_1, # of connection points: 5
#     Node 6, Type 0, BuildingBlock: XOMCOT_clean_sbu_1, # of connection points: 5
#     Node 7, Type 0, BuildingBlock: XOMCOT_clean_sbu_1, # of connection points: 5
#     Node 8, Type 0, BuildingBlock: XOMCOT_clean_sbu_1, # of connection points: 5
#     Node 9, Type 0, BuildingBlock: XOMCOT_clean_sbu_1, # of connection points: 5
#     Node 10, Type 0, BuildingBlock: XOMCOT_clean_sbu_1, # of connection points: 5
#     Node 11, Type 0, BuildingBlock: XOMCOT_clean_sbu_1, # of connection points: 5
#     Edge 12, Type (0, 0), BuildingBlock: UVAHIK_clean_linker_0, # of connection points: 2
#     Edge 13, Type (0, 0), BuildingBlock: UVAHIK_clean_linker_0, # of connection points: 2
#     Edge 14, Type (0, 0), BuildingBlock: UVAHIK_clean_linker_0, # of connection points: 2
#     Edge 15, Type (0, 0), BuildingBlock: UVAHIK_clean_linker_0, # of connection points: 2
#     Edge 16, Type (0, 0), BuildingBlock: UVAHIK_clean_linker_0, # of connection points: 2
#     Edge 17, Type (0, 0), BuildingBlock: UVAHIK_clean_linker_0, # of connection points: 2
#     Edge 18, Type (0, 0), BuildingBlock: UVAHIK_clean_linker_0, # of connection points: 2
#     Edge 19, Type (0, 0), BuildingBlock: UVAHIK_clean_linker_0, # of connection points: 2
#     Edge 20, Type (0, 0), BuildingBlock: UVAHIK_clean_linker_0, # of connection points: 2
#     Edge 21, Type (0, 0), BuildingBlock: UVAHIK_clean_linker_0, # of connection points: 2
#     Edge 22, Type (0, 0), BuildingBlock: UVAHIK_clean_linker_0, # of connection points: 2
#     Edge 23, Type (0, 0), BuildingBlock: UVAHIK_clean_linker_0, # of connection points: 2
#     Edge 24, Type (0, 0), BuildingBlock: UVAHIK_clean_linker_0, # of connection points: 2
#     Edge 25, Type (0, 0), BuildingBlock: UVAHIK_clean_linker_0, # of connection points: 2
#     Edge 26, Type (0, 0), BuildingBlock: UVAHIK_clean_linker_0, # of connection points: 2
#     Edge 27, Type (0, 0), BuildingBlock: UVAHIK_clean_linker_0, # of connection points: 2
#     Edge 28, Type (0, 0), BuildingBlock: UVAHIK_clean_linker_0, # of connection points: 2
#     Edge 29, Type (0, 0), BuildingBlock: UVAHIK_clean_linker_0, # of connection points: 2
#     Edge 30, Type (0, 0), BuildingBlock: UVAHIK_clean_linker_0, # of connection points: 2
#     Edge 31, Type (0, 0), BuildingBlock: UVAHIK_clean_linker_0, # of connection points: 2
#     Edge 32, Type (0, 0), BuildingBlock: UVAHIK_clean_linker_0, # of connection points: 2
#     Edge 33, Type (0, 0), BuildingBlock: UVAHIK_clean_linker_0, # of connection points: 2
#     Edge 34, Type (0, 0), BuildingBlock: UVAHIK_clean_linker_0, # of connection points: 2
#     Edge 35, Type (0, 0), BuildingBlock: UVAHIK_clean_linker_0, # of connection points: 2
#     Edge 36, Type (0, 0), BuildingBlock: UVAHIK_clean_linker_0, # of connection points: 2
#     Edge 37, Type (0, 0), BuildingBlock: UVAHIK_clean_linker_0, # of connection points: 2
#     Edge 38, Type (0, 0), BuildingBlock: UVAHIK_clean_linker_0, # of connection points: 2
#     Edge 39, Type (0, 0), BuildingBlock: UVAHIK_clean_linker_0, # of connection points: 2
#     Edge 40, Type (0, 0), BuildingBlock: UVAHIK_clean_linker_0, # of connection points: 2
#     Edge 41, Type (0, 0), BuildingBlock: UVAHIK_clean_linker_0, # of connection points: 2
# Relax obj value: 0.543
# Max RMSD: 0.289
# Mean RMSD: 0.289
data_MOF--net-wjq--node1-XOMCOT_clean_sbu_1--edge1-UVAHIK_clean_linker_0
_symmetry_space_group_name_H-M    P1
_symmetry_Int_Tables_number       1
_symmetry_cell_setting            triclinic
loop_
_symmetry_equiv_pos_as_xyz
'x, y, z'
_cell_length_a     35.21379
_cell_length_b     35.23385
_cell_length_c     110.12341
_cell_angle_alpha  90.042122
_cell_angle_beta   90.004509
_cell_angle_gamma 119.99179
loop_
_atom_site_label
_atom_site_type_symbol
_atom_site_fract_x
_atom_site_fract_y
_atom_site_fract_z
_atom_type_partial_charge
C0 C 0.34932 0.23792 0.04112 0.0
C1 C 0.3282 0.24629 0.0319 0.0
N2 N 0.28512 0.22615 0.03455 0.0
N3 N 0.31967 0.21218 0.04949 0.0
C4 C 0.28083 0.20594 0.04531 0.0
H5 H 0.3841 0.24959 0.04166 0.0
Co6 Co 0.33325 0.19074 0.06327 0.0
C7 C 0.25623 0.10427 0.06825 0.0
O8 O 0.28327 0.08945 0.07031 0.0
N9 N 0.34738 0.16991 0.07745 0.0
C10 C 0.37591 0.14801 0.09206 0.0
C11 C 0.37758 0.1579 0.07991 0.0
C12 C 0.32786 0.1667 0.08826 0.0
N13 N 0.34475 0.15392 0.09728 0.0
O14 O 0.32394 0.23012 0.07306 0.0
H15 H 0.40027 0.15694 0.07354 0.0
H16 H 0.30161 0.17387 0.0895 0.0
O17 O 0.27152 0.1442 0.06499 0.0
C18 C 0.3622 0.26271 0.07477 0.0
O19 O 0.39586 0.26252 0.06971 0.0
N20 N 0.34774 0.15742 0.05324 0.0
C21 C 0.38417 0.13278 0.0346 0.0
C22 C 0.33849 0.11128 0.0362 0.0
C23 C 0.32075 0.12479 0.04547 0.0
C24 C 0.39209 0.1781 0.05181 0.0
C25 C 0.41106 0.16582 0.04272 0.0
H26 H 0.28571 0.11144 0.04573 0.0
H27 H 0.41289 0.20622 0.05739 0.0
H28 H 0.2499 0.18637 0.04993 0.0
H29 H 0.34342 0.26605 0.02392 0.0
H30 H 0.39726 0.13901 0.09676 0.0
H31 H 0.31666 0.08678 0.02977 0.0
H32 H 0.44636 0.18371 0.04163 0.0
C33 C 0.08668 0.3063 0.39786 0.0
C34 C 0.06071 0.2917 0.38766 0.0
N35 N 0.0376 0.24761 0.38799 0.0
N36 N 0.0804 0.27162 0.40455 0.0
C37 C 0.04987 0.23619 0.39837 0.0
H38 H 0.1097 0.34006 0.40012 0.0
Co39 Co 0.11349 0.27729 0.41836 0.0
C40 C 0.11154 0.19304 0.42102 0.0
O41 O 0.15391 0.2153 0.42301 0.0
N42 N 0.14792 0.28414 0.43267 0.0
C43 C 0.20286 0.3004 0.44563 0.0
C44 C 0.19132 0.29778 0.43365 0.0
C45 C 0.13417 0.2784 0.44438 0.0
N46 N 0.16695 0.28858 0.45237 0.0
O47 O 0.0661 0.27196 0.42809 0.0
H48 H 0.21389 0.30493 0.42624 0.0
H49 H 0.10079 0.26741 0.44712 0.0
O50 O 0.09073 0.21339 0.41869 0.0
C51 C 0.07732 0.31135 0.43092 0.0
O52 O 0.1167 0.34272 0.42784 0.0
N53 N 0.16011 0.28892 0.40826 0.0
C54 C 0.22598 0.32493 0.39085 0.0
C55 C 0.19504 0.27982 0.39076 0.0
C56 C 0.16178 0.26245 0.39949 0.0
C57 C 0.18924 0.33278 0.40826 0.0
C58 C 0.22318 0.35123 0.39991 0.0
H59 H 0.13611 0.22865 0.39872 0.0
H60 H 0.18569 0.35373 0.41479 0.0
H61 H 0.03807 0.20267 0.40113 0.0
H62 H 0.05913 0.31191 0.38051 0.0
H63 H 0.23557 0.31176 0.44911 0.0
H64 H 0.19493 0.25863 0.38362 0.0
H65 H 0.2462 0.38609 0.40036 0.0
C66 C 0.71567 0.02248 0.72323 0.0
C67 C 0.70411 0.99969 0.71242 0.0
N68 N 0.72636 0.97788 0.71143 0.0
N69 N 0.74504 0.01512 0.72904 0.0
C70 C 0.75078 0.98774 0.72164 0.0
H71 H 0.70428 0.04402 0.72649 0.0
Co72 Co 0.77404 0.04224 0.74343 0.0
C73 C 0.8151 0.99137 0.7507 0.0
O74 O 0.79551 0.98505 0.76127 0.0
N75 N 0.80433 0.07034 0.75779 0.0
C76 C 0.86025 0.10891 0.77032 0.0
C77 C 0.84832 0.08989 0.75907 0.0
C78 C 0.79032 0.07813 0.76844 0.0
N79 N 0.82373 0.10157 0.77621 0.0
O80 O 0.7278 0.99533 0.75238 0.0
H81 H 0.87053 0.09045 0.7522 0.0
H82 H 0.75652 0.06778 0.77046 0.0
O83 O 0.80862 0.01307 0.7425 0.0
C84 C 0.70044 0.00841 0.75435 0.0
O85 O 0.71139 0.0485 0.7511 0.0
N86 N 0.81431 0.0895 0.73456 0.0
C87 C 0.85639 0.16212 0.71967 0.0
C88 C 0.86637 0.12826 0.71886 0.0
C89 C 0.84435 0.09152 0.72638 0.0
C90 C 0.80587 0.123 0.73577 0.0
C91 C 0.82652 0.15968 0.7284 0.0
H92 H 0.84988 0.06418 0.72527 0.0
H93 H 0.78136 0.12022 0.74218 0.0
H94 H 0.77383 0.97665 0.72341 0.0
H95 H 0.68143 0.99961 0.70578 0.0
H96 H 0.89326 0.12641 0.77392 0.0
H97 H 0.88907 0.12917 0.71207 0.0
H98 H 0.81819 0.18531 0.72924 0.0
C99 C 0.69474 0.69291 0.05625 0.0
C100 C 0.71458 0.68865 0.04596 0.0
N101 N 0.75192 0.72685 0.04405 0.0
N102 N 0.71945 0.73361 0.06081 0.0
C103 C 0.75406 0.75348 0.05317 0.0
H104 H 0.66352 0.66837 0.05991 0.0
Co105 Co 0.70454 0.75872 0.07356 0.0
C106 C 0.79196 0.82142 0.08562 0.0
O107 O 0.77512 0.83798 0.09312 0.0
N108 N 0.6879 0.78353 0.08636 0.0
C109 C 0.6581 0.81699 0.09643 0.0
C110 C 0.66653 0.80627 0.08517 0.0
C111 C 0.69011 0.77915 0.09852 0.0
N112 N 0.67321 0.80016 0.10484 0.0
O113 O 0.69334 0.71018 0.08379 0.0
H114 H 0.6568 0.8142 0.07668 0.0
H115 H 0.70523 0.76212 0.10266 0.0
O116 O 0.76723 0.7914 0.0781 0.0
C117 C 0.65178 0.68658 0.08479 0.0
O118 O 0.62682 0.69887 0.07914 0.0
N119 N 0.71058 0.80274 0.06314 0.0
C120 C 0.69846 0.86006 0.04861 0.0
C121 C 0.73433 0.87592 0.05656 0.0
C122 C 0.73993 0.84657 0.06379 0.0
C123 C 0.67657 0.78676 0.05513 0.0
C124 C 0.66994 0.81483 0.04774 0.0
H125 H 0.76643 0.85951 0.07022 0.0
H126 H 0.65316 0.75201 0.05495 0.0
H127 H 0.779 0.78765 0.05388 0.0
H128 H 0.70219 0.65989 0.04023 0.0
H129 H 0.64146 0.83519 0.09828 0.0
H130 H 0.75734 0.91071 0.05735 0.0
H131 H 0.64166 0.80136 0.04178 0.0
C132 C 0.00528 0.66859 0.38106 0.0
C133 C 0.03714 0.69847 0.37344 0.0
N134 N 0.02966 0.73201 0.37169 0.0
N135 N 0.97786 0.68325 0.38423 0.0
C136 C 0.99351 0.72193 0.37832 0.0
H137 H 0.00213 0.63782 0.38392 0.0
Co138 Co 0.92792 0.65478 0.39409 0.0
C139 C 0.93486 0.72742 0.41081 0.0
O140 O 0.89545 0.70375 0.41539 0.0
N141 N 0.87737 0.62497 0.4039 0.0
C142 C 0.80891 0.58466 0.4106 0.0
C143 C 0.8349 0.60165 0.40048 0.0
C144 C 0.87631 0.61958 0.41607 0.0
N145 N 0.83509 0.59637 0.42045 0.0
O146 O 0.95797 0.63615 0.405 0.0
H147 H 0.82321 0.59736 0.39123 0.0
H148 H 0.90542 0.63512 0.42168 0.0
O149 O 0.94896 0.71099 0.40281 0.0
C150 C 0.94244 0.59582 0.40227 0.0
O151 O 0.9173 0.58056 0.3926 0.0
N152 N 0.89655 0.66776 0.38291 0.0
C153 C 0.83052 0.65918 0.3675 0.0
C154 C 0.84492 0.68955 0.37705 0.0
C155 C 0.87821 0.69347 0.38469 0.0
C156 C 0.88547 0.64078 0.37308 0.0
C157 C 0.85244 0.63599 0.3652 0.0
H158 H 0.88674 0.71504 0.39234 0.0
H159 H 0.90006 0.62032 0.3719 0.0
H160 H 0.97849 0.7422 0.37884 0.0
H161 H 0.06309 0.6951 0.36924 0.0
H162 H 0.77346 0.56577 0.41068 0.0
H163 H 0.8294 0.70885 0.37889 0.0
H164 H 0.8423 0.61234 0.35788 0.0
C165 C 0.22101 0.84821 0.69752 0.0
C166 C 0.22904 0.88049 0.6892 0.0
N167 N 0.21674 0.90773 0.69411 0.0
N168 N 0.20343 0.85481 0.70761 0.0
C169 C 0.20164 0.8916 0.70532 0.0
H170 H 0.22639 0.82085 0.69617 0.0
Co171 Co 0.18237 0.81625 0.72074 0.0
C172 C 0.10874 0.82329 0.73062 0.0
O173 O 0.08783 0.78027 0.73118 0.0
N174 N 0.16212 0.77777 0.73429 0.0
C175 C 0.13584 0.72393 0.74798 0.0
C176 C 0.14404 0.73397 0.73582 0.0
C177 C 0.16517 0.79329 0.74569 0.0
N178 N 0.14925 0.76147 0.75416 0.0
O179 O 0.23364 0.85501 0.72998 0.0
H180 H 0.13677 0.71017 0.72875 0.0
H181 H 0.17765 0.8276 0.74766 0.0
O182 O 0.14826 0.84374 0.72661 0.0
C183 C 0.25778 0.83795 0.72818 0.0
O184 O 0.24347 0.80477 0.72059 0.0
N185 N 0.1365 0.77659 0.71083 0.0
C186 C 0.08802 0.72332 0.69148 0.0
C187 C 0.08231 0.7582 0.6953 0.0
C188 C 0.10746 0.78498 0.70488 0.0
C189 C 0.14264 0.74316 0.70712 0.0
C190 C 0.11788 0.71533 0.69774 0.0
H191 H 0.10597 0.81426 0.70679 0.0
H192 H 0.16904 0.73975 0.71093 0.0
H193 H 0.18792 0.90538 0.71152 0.0
H194 H 0.24255 0.88346 0.68019 0.0
H195 H 0.12137 0.69156 0.75195 0.0
H196 H 0.06113 0.76689 0.69037 0.0
H197 H 0.12391 0.68928 0.69501 0.0
C198 C 0.77204 0.70284 0.59627 0.0
C199 C 0.76123 0.70872 0.60787 0.0
N200 N 0.76299 0.74783 0.60838 0.0
N201 N 0.78088 0.73817 0.58952 0.0
C202 C 0.77468 0.76478 0.5971 0.0
H203 H 0.77388 0.67487 0.59298 0.0
Co204 Co 0.79865 0.74736 0.57334 0.0
C205 C 0.8254 0.84005 0.56976 0.0
O206 O 0.79979 0.82959 0.5602 0.0
N207 N 0.81688 0.75649 0.55705 0.0
C208 C 0.86136 0.77915 0.54105 0.0
C209 C 0.85666 0.78747 0.55297 0.0
C210 C 0.798 0.72983 0.54741 0.0
N211 N 0.82447 0.74276 0.5376 0.0
O212 O 0.7441 0.74302 0.56922 0.0
H213 H 0.88184 0.81292 0.55853 0.0
H214 H 0.76698 0.69962 0.54774 0.0
O215 O 0.82709 0.81015 0.57582 0.0
C216 C 0.7171 0.70243 0.56752 0.0
O217 O 0.73189 0.67481 0.56789 0.0
N218 N 0.84935 0.74689 0.57757 0.0
C219 C 0.91239 0.72811 0.58614 0.0
C220 C 0.9104 0.76457 0.59056 0.0
C221 C 0.87851 0.77346 0.58613 0.0
C222 C 0.85199 0.71263 0.57279 0.0
C223 C 0.88377 0.70312 0.57678 0.0
H224 H 0.87534 0.79968 0.59019 0.0
H225 H 0.82787 0.69123 0.56624 0.0
H226 H 0.77964 0.7965 0.59446 0.0
H227 H 0.75268 0.68589 0.61533 0.0
H228 H 0.89035 0.79732 0.53551 0.0
H229 H 0.93112 0.78426 0.59796 0.0
H230 H 0.88441 0.67507 0.57299 0.0
C231 C 0.11602 0.81136 0.93962 0.0
C232 C 0.09246 0.80333 0.95018 0.0
N233 N 0.06052 0.81307 0.94832 0.0
N234 N 0.09956 0.82677 0.93115 0.0
C235 C 0.06522 0.82684 0.93667 0.0
H236 H 0.14362 0.8064 0.93822 0.0
Co237 Co 0.12365 0.84371 0.91564 0.0
C238 C 0.099 0.90816 0.90643 0.0
O239 O 0.13431 0.92634 0.89963 0.0
N240 N 0.14878 0.85982 0.8998 0.0
C241 C 0.19481 0.88749 0.88414 0.0
C242 C 0.19097 0.88734 0.89653 0.0
C243 C 0.12783 0.84386 0.88908 0.0
N244 N 0.15511 0.85998 0.87947 0.0
O245 O 0.0767 0.7902 0.90926 0.0
H246 H 0.21792 0.90666 0.90256 0.0
H247 H 0.09308 0.8209 0.88828 0.0
O248 O 0.091 0.87535 0.91319 0.0
C249 C 0.09326 0.76542 0.90803 0.0
O250 O 0.13432 0.78072 0.91125 0.0
N251 N 0.17169 0.89224 0.92247 0.0
C252 C 0.24969 0.9527 0.93354 0.0
C253 C 0.2162 0.96268 0.93162 0.0
C254 C 0.17683 0.9315 0.92619 0.0
C255 C 0.20355 0.8819 0.92459 0.0
C256 C 0.24299 0.9118 0.92991 0.0
H257 H 0.15054 0.93864 0.92538 0.0
H258 H 0.19846 0.85022 0.92186 0.0
H259 H 0.04445 0.83732 0.93233 0.0
H260 H 0.09806 0.79078 0.95855 0.0
H261 H 0.22485 0.9056 0.87901 0.0
H262 H 0.21974 0.99348 0.93471 0.0
H263 H 0.26792 0.90276 0.93127 0.0
C264 C 0.34565 0.14817 0.28314 0.0
C265 C 0.33061 0.1197 0.29281 0.0
N266 N 0.2884 0.08933 0.29071 0.0
N267 N 0.31315 0.13593 0.27496 0.0
C268 C 0.27862 0.09994 0.27981 0.0
H269 H 0.37828 0.17602 0.28208 0.0
Co270 Co 0.31962 0.16444 0.26025 0.0
C271 C 0.23168 0.14628 0.25296 0.0
O272 O 0.24999 0.18738 0.2495 0.0
N273 N 0.32692 0.19315 0.24504 0.0
C274 C 0.34225 0.23934 0.22955 0.0
C275 C 0.34507 0.23593 0.24188 0.0
C276 C 0.31364 0.17153 0.23433 0.0
N277 N 0.32258 0.19878 0.22483 0.0
O278 O 0.32761 0.12053 0.2523 0.0
H279 H 0.35953 0.26368 0.2479 0.0
H280 H 0.29704 0.13622 0.2335 0.0
O281 O 0.25534 0.13182 0.25765 0.0
C282 C 0.36912 0.13882 0.25099 0.0
O283 O 0.39357 0.179 0.25507 0.0
N284 N 0.31799 0.20942 0.26865 0.0
C285 C 0.33206 0.28045 0.28307 0.0
C286 C 0.29045 0.24225 0.28252 0.0
C287 C 0.28417 0.20688 0.27532 0.0
C288 C 0.35896 0.24474 0.26977 0.0
C289 C 0.36632 0.28134 0.27637 0.0
H290 H 0.25289 0.17693 0.27561 0.0
H291 H 0.38625 0.2447 0.26528 0.0
H292 H 0.24726 0.08122 0.27533 0.0
H293 H 0.34928 0.12146 0.30081 0.0
H294 H 0.35468 0.26943 0.22442 0.0
H295 H 0.26341 0.23859 0.28804 0.0
H296 H 0.399 0.30957 0.27636 0.0
C297 C 0.21946 0.34161 0.63747 0.0
C298 C 0.22025 0.31212 0.64544 0.0
N299 N 0.21958 0.27911 0.63905 0.0
N300 N 0.21777 0.32735 0.62602 0.0
C301 C 0.21806 0.28927 0.62725 0.0
H302 H 0.22032 0.37177 0.63988 0.0
Co303 Co 0.21726 0.35736 0.61208 0.0
C304 C 0.14729 0.29001 0.59667 0.0
O305 O 0.13572 0.31921 0.59402 0.0
N306 N 0.21831 0.38832 0.59795 0.0
C307 C 0.21564 0.43239 0.58389 0.0
C308 C 0.21411 0.42404 0.59613 0.0
C309 C 0.2246 0.37721 0.58668 0.0
N310 N 0.22195 0.40261 0.57797 0.0
O311 O 0.2699 0.36046 0.60651 0.0
H312 H 0.2097 0.44308 0.60305 0.0
H313 H 0.22849 0.34916 0.58485 0.0
O314 O 0.18011 0.30066 0.60372 0.0
C315 C 0.30101 0.39395 0.61169 0.0
O316 O 0.29094 0.41286 0.62041 0.0
N317 N 0.16844 0.35884 0.61831 0.0
C318 C 0.10525 0.37108 0.6299 0.0
C319 C 0.09516 0.32943 0.62578 0.0
C320 C 0.12773 0.32368 0.62037 0.0
C321 C 0.17924 0.39891 0.62291 0.0
C322 C 0.148 0.40603 0.62856 0.0
H323 H 0.1205 0.29078 0.61836 0.0
H324 H 0.2129 0.42529 0.62252 0.0
H325 H 0.21804 0.26998 0.6196 0.0
H326 H 0.22094 0.31494 0.65523 0.0
H327 H 0.2117 0.45795 0.57967 0.0
H328 H 0.06315 0.30111 0.62742 0.0
H329 H 0.15749 0.43816 0.63219 0.0
C330 C 0.93759 0.30089 0.95263 0.0
C331 C 0.9667 0.30532 0.9616 0.0
N332 N 0.97919 0.2754 0.95967 0.0
N333 N 0.93166 0.26832 0.94505 0.0
C334 C 0.95758 0.25346 0.94956 0.0
H335 H 0.92061 0.31925 0.95192 0.0
Co336 Co 0.89014 0.24676 0.93266 0.0
C337 C 0.89526 0.17263 0.92154 0.0
O338 O 0.8524 0.15181 0.92031 0.0
N339 N 0.84792 0.22597 0.92004 0.0
C340 C 0.78788 0.1998 0.90858 0.0
C341 C 0.80403 0.20957 0.92023 0.0
C342 C 0.85756 0.22686 0.90812 0.0
N343 N 0.82167 0.21067 0.90098 0.0
O344 O 0.92805 0.29554 0.9226 0.0
H345 H 0.78439 0.20491 0.92819 0.0
H346 H 0.89036 0.2379 0.90479 0.0
O347 O 0.91487 0.21089 0.92638 0.0
C348 C 0.91268 0.32146 0.92346 0.0
O349 O 0.87899 0.3102 0.93069 0.0
N350 N 0.85183 0.20317 0.94321 0.0
C351 C 0.79231 0.15069 0.96086 0.0
C352 C 0.82237 0.13972 0.95595 0.0
C353 C 0.85267 0.16703 0.94729 0.0
C354 C 0.82467 0.21554 0.94846 0.0
C355 C 0.79402 0.1894 0.95712 0.0
H356 H 0.87746 0.15973 0.94431 0.0
H357 H 0.82664 0.24599 0.94579 0.0
H358 H 0.95891 0.22564 0.94593 0.0
H359 H 0.97737 0.32837 0.96908 0.0
H360 H 0.75391 0.18607 0.90592 0.0
H361 H 0.82353 0.11119 0.95909 0.0
H362 H 0.772 0.1995 0.96085 0.0
C363 C 0.66676 0.97281 0.28344 0.0
C364 C 0.68769 0.99789 0.29348 0.0
N365 N 0.72857 0.00392 0.29388 0.0
N366 N 0.69425 0.96297 0.27753 0.0
C367 C 0.7318 0.98255 0.28409 0.0
H368 H 0.63297 0.96083 0.28092 0.0
Co369 Co 0.67747 0.92275 0.26482 0.0
C370 C 0.76029 0.93221 0.25453 0.0
O371 O 0.73966 0.89026 0.25184 0.0
N372 N 0.65912 0.88138 0.25194 0.0
C373 C 0.62786 0.82 0.24101 0.0
C374 C 0.63297 0.83736 0.25244 0.0
C375 C 0.66822 0.88991 0.23997 0.0
N376 N 0.65028 0.85303 0.23316 0.0
O377 O 0.66853 0.96151 0.25454 0.0
H378 H 0.61803 0.81837 0.26049 0.0
H379 H 0.68902 0.92252 0.23638 0.0
O380 O 0.73955 0.94896 0.25977 0.0
C381 C 0.62702 0.94546 0.25419 0.0
O382 O 0.60225 0.90933 0.26032 0.0
N383 N 0.6805 0.88347 0.27549 0.0
C384 C 0.66608 0.81571 0.2911 0.0
C385 C 0.70828 0.84421 0.28657 0.0
C386 C 0.71502 0.87852 0.27889 0.0
C387 C 0.64049 0.85887 0.28077 0.0
C388 C 0.63222 0.8242 0.2884 0.0
H389 H 0.74788 0.90086 0.2759 0.0
H390 H 0.61407 0.86484 0.27848 0.0
H391 H 0.75997 0.97893 0.28219 0.0
H392 H 0.67359 0.00989 0.30013 0.0
H393 H 0.60873 0.78563 0.23865 0.0
H394 H 0.73589 0.84021 0.28899 0.0
H395 H 0.5993 0.80351 0.29182 0.0
C396 C 0.63609 0.61022 0.08809 0.0
C397 C 0.63007 0.64514 0.09153 0.0
C398 C 0.60503 0.56728 0.09139 0.0
C399 C 0.53583 0.4773 0.1005 0.0
H400 H 0.41902 0.45866 0.09467 0.0
C401 C 0.39355 0.30388 0.09366 0.0
C402 C 0.37115 0.29947 0.08275 0.0
C403 C 0.41877 0.3451 0.099 0.0
C404 C 0.45133 0.46325 0.09642 0.0
H405 H 0.59006 0.66386 0.10201 0.0
H406 H 0.53704 0.58939 0.10825 0.0
H407 H 0.48063 0.53288 0.09632 0.0
H408 H 0.35475 0.33337 0.06925 0.0
H409 H 0.39842 0.40543 0.07852 0.0
H410 H 0.50687 0.40766 0.09973 0.0
C411 C 0.56465 0.59456 0.10271 0.0
C412 C 0.48673 0.50588 0.09751 0.0
C413 C 0.59526 0.63723 0.09928 0.0
C414 C 0.37088 0.33597 0.07784 0.0
C415 C 0.39621 0.37728 0.08315 0.0
C416 C 0.5004 0.43463 0.09939 0.0
C417 C 0.56776 0.55884 0.09824 0.0
C418 C 0.52966 0.51351 0.0992 0.0
C419 C 0.42238 0.38263 0.0934 0.0
C420 C 0.45792 0.42715 0.09695 0.0
H421 H 0.6623 0.6156 0.08193 0.0
H422 H 0.60841 0.54061 0.08772 0.0
H423 H 0.56831 0.48194 0.10194 0.0
H424 H 0.39472 0.2761 0.09746 0.0
H425 H 0.43787 0.34797 0.10701 0.0
C426 C 0.00291 0.30378 0.43188 0.0
C427 C 0.04658 0.32434 0.43582 0.0
C428 C 0.9791 0.3258 0.43279 0.0
C429 C 0.98819 0.43278 0.44278 0.0
H430 H 0.93872 0.42545 0.41086 0.0
C431 C 0.9831 0.57603 0.41759 0.0
C432 C 0.94616 0.56431 0.4103 0.0
C433 C 0.98729 0.54349 0.42381 0.0
C434 C 0.95175 0.42761 0.41991 0.0
H435 H 0.09755 0.38058 0.44535 0.0
H436 H 0.05703 0.41911 0.4467 0.0
H437 H 0.95596 0.3701 0.41709 0.0
H438 H 0.88279 0.51049 0.40477 0.0
H439 H 0.8899 0.45455 0.41562 0.0
H440 H 0.9862 0.49234 0.44512 0.0
C441 C 0.04051 0.38635 0.44293 0.0
C442 C 0.96132 0.39547 0.42355 0.0
C443 C 0.06401 0.36429 0.44209 0.0
C444 C 0.91225 0.52039 0.41006 0.0
C445 C 0.91621 0.48826 0.4163 0.0
C446 C 0.979 0.46538 0.43904 0.0
C447 C 0.99887 0.36873 0.43756 0.0
C448 C 0.98063 0.39802 0.43493 0.0
C449 C 0.9544 0.49908 0.42287 0.0
C450 C 0.96136 0.46343 0.42748 0.0
H451 H 0.98869 0.27289 0.42704 0.0
H452 H 0.9465 0.3106 0.4289 0.0
H453 H 0.00249 0.43558 0.45167 0.0
H454 H 0.00952 0.60973 0.41798 0.0
H455 H 0.01716 0.55274 0.42882 0.0
C456 C 0.63198 0.99803 0.76359 0.0
C457 C 0.65477 0.97915 0.75819 0.0
C458 C 0.58629 0.97582 0.7637 0.0
C459 C 0.49799 0.89528 0.74443 0.0
H460 H 0.42356 0.91581 0.76626 0.0
C461 C 0.31629 0.82267 0.73452 0.0
C462 C 0.29937 0.85136 0.73471 0.0
C463 C 0.357 0.83484 0.73954 0.0
C464 C 0.4441 0.91009 0.76007 0.0
H465 H 0.64799 0.9204 0.7499 0.0
H466 H 0.56771 0.88056 0.75043 0.0
H467 H 0.49879 0.93788 0.77231 0.0
H468 H 0.31101 0.91457 0.74097 0.0
H469 H 0.38353 0.93642 0.74979 0.0
H470 H 0.44369 0.86784 0.73219 0.0
C471 C 0.58522 0.91321 0.75427 0.0
C472 C 0.48711 0.92253 0.76353 0.0
C473 C 0.6312 0.93565 0.75413 0.0
C474 C 0.32337 0.89195 0.74063 0.0
C475 C 0.36467 0.90431 0.74569 0.0
C476 C 0.45512 0.88261 0.74104 0.0
C477 C 0.56228 0.93405 0.75843 0.0
C478 C 0.51478 0.91568 0.75568 0.0
C479 C 0.38225 0.87616 0.74489 0.0
C480 C 0.42776 0.8901 0.74877 0.0
H481 H 0.64948 0.03154 0.76686 0.0
H482 H 0.57011 0.99311 0.76697 0.0
H483 H 0.51845 0.89057 0.73797 0.0
H484 H 0.29837 0.79069 0.73028 0.0
H485 H 0.36917 0.81207 0.73902 0.0
C486 C 0.64237 0.64815 0.56083 0.0
C487 C 0.66948 0.68391 0.5683 0.0
C488 C 0.59901 0.61919 0.56416 0.0
C489 C 0.54332 0.57232 0.59187 0.0
H490 H 0.43542 0.51687 0.57326 0.0
C491 C 0.37921 0.45085 0.61359 0.0
C492 C 0.34566 0.41798 0.60654 0.0
C493 C 0.41877 0.48131 0.60831 0.0
C494 C 0.46547 0.53141 0.57849 0.0
H495 H 0.67216 0.71948 0.58461 0.0
H496 H 0.59624 0.66841 0.59055 0.0
H497 H 0.50123 0.579 0.56462 0.0
H498 H 0.32821 0.38943 0.58855 0.0
H499 H 0.39853 0.44189 0.57933 0.0
H500 H 0.50903 0.52413 0.60549 0.0
C501 C 0.6084 0.66313 0.58205 0.0
C502 C 0.5029 0.56735 0.5736 0.0
C503 C 0.65156 0.69263 0.57858 0.0
C504 C 0.35365 0.41425 0.59422 0.0
C505 C 0.39364 0.44479 0.58891 0.0
C506 C 0.50635 0.53603 0.59665 0.0
C507 C 0.58253 0.6251 0.57516 0.0
C508 C 0.54193 0.58849 0.58034 0.0
C509 C 0.4262 0.47952 0.59584 0.0
C510 C 0.46666 0.51543 0.59013 0.0
H511 H 0.65584 0.64054 0.55296 0.0
H512 H 0.57981 0.59006 0.55873 0.0
H513 H 0.57342 0.58723 0.5971 0.0
H514 H 0.37403 0.4546 0.62311 0.0
H515 H 0.44253 0.50769 0.61396 0.0
C516 C 0.97077 0.38222 0.91065 0.0
C517 C 0.92996 0.36273 0.91653 0.0
C518 C 0.9875 0.42358 0.9052 0.0
C519 C 0.9563 0.50742 0.89633 0.0
H520 H 0.07613 0.59013 0.90539 0.0
C521 C 0.02491 0.69213 0.90589 0.0
C522 C 0.06903 0.72075 0.90301 0.0
C523 C 0.00611 0.64714 0.90353 0.0
C524 C 0.04283 0.5674 0.90256 0.0
H525 H 0.87355 0.36996 0.92065 0.0
H526 H 0.90269 0.44126 0.91157 0.0
H527 H 0.048 0.51229 0.90832 0.0
H528 H 0.12667 0.72615 0.89425 0.0
H529 H 0.09385 0.6482 0.89002 0.0
H530 H 0.95064 0.56324 0.8913 0.0
C531 C 0.92189 0.42507 0.91093 0.0
C532 C 0.02674 0.52264 0.9042 0.0
C533 C 0.90538 0.38418 0.91632 0.0
C534 C 0.09272 0.70455 0.89675 0.0
C535 C 0.07403 0.65995 0.89435 0.0
C536 C 0.97228 0.55231 0.89483 0.0
C537 C 0.9635 0.44583 0.90551 0.0
C538 C 0.98287 0.49215 0.90146 0.0
C539 C 0.03126 0.63051 0.89823 0.0
C540 C 0.0154 0.58279 0.89821 0.0
H541 H 0.99028 0.36628 0.9106 0.0
H542 H 0.01955 0.43852 0.90099 0.0
H543 H 0.92257 0.48475 0.89388 0.0
H544 H 0.0061 0.70392 0.91076 0.0
H545 H 0.97303 0.62512 0.90664 0.0
C546 C 0.56008 0.94185 0.24576 0.0
C547 C 0.60549 0.96655 0.24782 0.0
C548 C 0.53678 0.96186 0.24185 0.0
C549 C 0.54397 0.06918 0.24362 0.0
H550 H 0.43179 0.00699 0.22705 0.0
C551 C 0.43338 0.14354 0.24045 0.0
C552 C 0.39125 0.11711 0.24533 0.0
C553 C 0.45935 0.12561 0.23727 0.0
C554 C 0.46307 0.0247 0.23166 0.0
H555 H 0.66284 0.03111 0.24641 0.0
H556 H 0.62209 0.06646 0.23924 0.0
H557 H 0.4813 0.97714 0.22684 0.0
H558 H 0.34179 0.05062 0.24978 0.0
H559 H 0.38767 0.01882 0.24419 0.0
H560 H 0.52562 0.11652 0.24849 0.0
C561 C 0.60434 0.03155 0.24097 0.0
C562 C 0.49148 0.00769 0.23158 0.0
C563 C 0.6278 0.01134 0.24496 0.0
C564 C 0.37414 0.07165 0.24604 0.0
C565 C 0.40038 0.05356 0.24285 0.0
C566 C 0.51591 0.08643 0.24355 0.0
C567 C 0.55825 0.00722 0.23978 0.0
C568 C 0.53177 0.02906 0.23787 0.0
C569 C 0.44387 0.08078 0.2389 0.0
C570 C 0.47477 0.06391 0.23782 0.0
H571 H 0.54192 0.90707 0.24773 0.0
H572 H 0.50145 0.94193 0.2412 0.0
H573 H 0.57416 0.08624 0.24875 0.0
H574 H 0.44717 0.17864 0.23959 0.0
H575 H 0.49238 0.14719 0.23403 0.0
C576 C 0.30418 0.96606 0.94971 0.0
C577 C 0.28989 0.98273 0.94031 0.0
C578 C 0.34009 0.99395 0.95678 0.0
C579 C 0.39182 0.10578 0.96779 0.0
H580 H 0.44906 0.05929 0.98809 0.0
C581 C 0.43158 0.162 0.01627 0.0
C582 C 0.40313 0.12581 0.02345 0.0
C583 C 0.44294 0.15575 0.00462 0.0
C584 C 0.43437 0.07342 0.98234 0.0
H585 H 0.30337 0.04125 0.93041 0.0
H586 H 0.36693 0.0906 0.94282 0.0
H587 H 0.42283 0.02825 0.96793 0.0
H588 H 0.36762 0.05504 0.02463 0.0
H589 H 0.38748 0.04395 0.00422 0.0
H590 H 0.4014 0.14941 0.98241 0.0
C591 C 0.3499 0.05585 0.9448 0.0
C592 C 0.41902 0.05551 0.97085 0.0
C593 C 0.31347 0.02776 0.93774 0.0
C594 C 0.38933 0.08336 0.01921 0.0
C595 C 0.40118 0.07712 0.00762 0.0
C596 C 0.40802 0.12428 0.97914 0.0
C597 C 0.36287 0.03937 0.95463 0.0
C598 C 0.39419 0.06897 0.96394 0.0
C599 C 0.42641 0.11325 3e-05 0.0
C600 C 0.42632 0.10595 0.98685 0.0
H601 H 0.28628 0.93153 0.95199 0.0
H602 H 0.34803 0.97994 0.96444 0.0
H603 H 0.37313 0.11726 0.96274 0.0
H604 H 0.44244 0.19514 0.0193 0.0
H605 H 0.46216 0.18402 -0.00111 0.0
C606 C 0.27842 0.32312 0.37583 0.0
C607 C 0.25845 0.34523 0.38094 0.0
C608 C 0.30519 0.34009 0.36565 0.0
C609 C 0.31582 0.40701 0.33925 0.0
H610 H 0.39882 0.36966 0.33087 0.0
C611 C 0.30698 0.32479 0.29505 0.0
C612 C 0.34079 0.31683 0.29159 0.0
C613 C 0.31257 0.35213 0.30486 0.0
C614 C 0.3768 0.38184 0.33294 0.0
H615 H 0.25268 0.40375 0.3797 0.0
H616 H 0.30063 0.43398 0.36222 0.0
H617 H 0.38291 0.37407 0.35193 0.0
H618 H 0.40933 0.33675 0.29492 0.0
H619 H 0.41983 0.38679 0.31113 0.0
H620 H 0.30948 0.41454 0.32024 0.0
C621 C 0.29503 0.40318 0.36596 0.0
C622 C 0.36715 0.38364 0.34511 0.0
C623 C 0.26786 0.38597 0.37607 0.0
C624 C 0.38209 0.34141 0.29721 0.0
C625 C 0.38809 0.3699 0.30673 0.0
C626 C 0.32622 0.40619 0.32707 0.0
C627 C 0.31292 0.37978 0.36041 0.0
C628 C 0.334 0.39279 0.34832 0.0
C629 C 0.35257 0.37316 0.31126 0.0
C630 C 0.35411 0.39011 0.32373 0.0
H631 H 0.27238 0.29206 0.37949 0.0
H632 H 0.31779 0.3207 0.36153 0.0
H633 H 0.29051 0.41485 0.34139 0.0
H634 H 0.27528 0.30807 0.29063 0.0
H635 H 0.28425 0.35373 0.30796 0.0
C636 C 0.03005 0.35944 0.63333 0.0
C637 C 0.07326 0.37596 0.63736 0.0
C638 C 0.99754 0.35469 0.64146 0.0
C639 C 0.97941 0.36455 0.67488 0.0
H640 H 0.8866 0.24466 0.66984 0.0
C641 C 0.84451 0.20514 0.70378 0.0
C642 C 0.87373 0.19813 0.71082 0.0
C643 C 0.86037 0.23819 0.69505 0.0
C644 C 0.91166 0.27851 0.67132 0.0
H645 H 0.11756 0.40424 0.65259 0.0
H646 H 0.06131 0.39388 0.66688 0.0
H647 H 0.92996 0.287 0.65274 0.0
H648 H 0.94194 0.22061 0.71473 0.0
H649 H 0.96997 0.27923 0.69948 0.0
H650 H 0.96372 0.35318 0.69384 0.0
C651 C 0.05186 0.38574 0.65747 0.0
C652 C 0.93652 0.30317 0.66147 0.0
C653 C 0.08437 0.39144 0.64928 0.0
C654 C 0.919 0.22547 0.70933 0.0
C655 C 0.93487 0.25915 0.70077 0.0
C656 C 0.95524 0.33935 0.68479 0.0
C657 C 0.00757 0.3649 0.65385 0.0
C658 C 0.97256 0.34559 0.66324 0.0
C659 C 0.90563 0.26525 0.69346 0.0
C660 C 0.92273 0.29551 0.6831 0.0
H661 H 0.02104 0.34798 0.62407 0.0
H662 H 0.9641 0.33998 0.63823 0.0
H663 H 0.00576 0.39765 0.67653 0.0
H664 H 0.8094 0.18418 0.7048 0.0
H665 H 0.83739 0.24207 0.68938 0.0
C666 C 0.6783 0.88169 0.02916 0.0
C667 C 0.68999 0.89043 0.04144 0.0
C668 C 0.67155 0.91088 0.02226 0.0
C669 C 0.71042 0.02712 0.02084 0.0
H670 H 0.63591 0.99119 0.99229 0.0
C671 C 0.73907 0.07752 0.96945 0.0
C672 C 0.76128 0.12334 0.97042 0.0
C673 C 0.71387 0.05161 0.97909 0.0
C674 C 0.65644 0.00183 0.00032 0.0
H675 H 0.70129 0.93502 0.05637 0.0
H676 H 0.68975 0.98647 0.04424 0.0
H677 H 0.62101 0.93857 0.00859 0.0
H678 H 0.7724 0.17813 0.98187 0.0
H679 H 0.72822 0.13267 -0.00125 0.0
H680 H 0.74755 0.08937 0.0123 0.0
C681 C 0.68627 0.95725 0.03993 0.0
C682 C 0.64803 0.97177 0.00962 0.0
C683 C 0.69322 0.92806 0.04683 0.0
C684 C 0.75556 0.14282 0.98088 0.0
C685 C 0.7304 0.11689 0.99054 0.0
C686 C 0.7187 0.05716 0.01159 0.0
C687 C 0.67619 0.94935 0.02751 0.0
C688 C 0.67655 0.98346 0.01962 0.0
C689 C 0.71055 0.07108 0.98989 0.0
C690 C 0.69334 0.04402 0.00094 0.0
H691 H 0.67586 0.85303 0.02476 0.0
H692 H 0.66483 0.90429 0.01265 0.0
H693 H 0.73314 0.03716 0.02839 0.0
H694 H 0.7424 0.06173 0.9614 0.0
H695 H 0.69942 0.01639 0.97837 0.0
C696 C 0.67766 0.75289 0.29575 0.0
C697 C 0.65751 0.77748 0.29862 0.0
C698 C 0.67272 0.71917 0.30335 0.0
C699 C 0.65943 0.69614 0.33544 0.0
H700 H 0.68071 0.60311 0.32517 0.0
C701 C 0.75377 0.64505 0.36633 0.0
C702 C 0.79141 0.65025 0.3604 0.0
C703 C 0.71806 0.64026 0.35963 0.0
C704 C 0.6741 0.62848 0.32822 0.0
H705 H 0.61378 0.78401 0.31126 0.0
H706 H 0.60455 0.72449 0.32444 0.0
H707 H 0.64883 0.63248 0.31089 0.0
H708 H 0.82025 0.65151 0.34293 0.0
H709 H 0.75847 0.64442 0.33118 0.0
H710 H 0.68742 0.69455 0.35243 0.0
C711 C 0.62465 0.73173 0.31638 0.0
C712 C 0.65593 0.64531 0.32006 0.0
C713 C 0.62986 0.76573 0.30881 0.0
C714 C 0.79165 0.64771 0.3477 0.0
C715 C 0.75603 0.64314 0.34099 0.0
C716 C 0.67735 0.67922 0.34359 0.0
C717 C 0.64729 0.70914 0.31396 0.0
C718 C 0.65128 0.68133 0.32336 0.0
C719 C 0.71949 0.64084 0.34689 0.0
C720 C 0.68754 0.64729 0.33979 0.0
H721 H 0.69825 0.76047 0.28778 0.0
H722 H 0.69112 0.7029 0.30126 0.0
H723 H 0.65643 0.72393 0.33831 0.0
H724 H 0.75237 0.64567 0.37615 0.0
H725 H 0.69012 0.63805 0.36441 0.0
C726 C 0.09281 0.691 0.67166 0.0
C727 C 0.06788 0.69981 0.68 0.0
C728 C 0.07692 0.6759 0.66001 0.0
C729 C 0.97915 0.63864 0.63999 0.0
H730 H 0.06588 0.7142 0.6164 0.0
C731 C 0.92216 0.66775 0.59475 0.0
C732 C 0.93946 0.71274 0.59245 0.0
C733 C 0.943 0.65362 0.60283 0.0
C734 C 0.04133 0.69252 0.62283 0.0
H735 H 0.00526 0.69605 0.68297 0.0
H736 H 0.97819 0.67144 0.66252 0.0
H737 H 0.08896 0.70909 0.63682 0.0
H738 H 0.99476 0.7776 0.59579 0.0
H739 H 0.03001 0.75332 0.6103 0.0
H740 H 0.93106 0.62536 0.62638 0.0
C741 C 0.00976 0.67549 0.66501 0.0
C742 C 0.05458 0.68913 0.63452 0.0
C743 C 0.02551 0.69026 0.6767 0.0
C744 C 0.98007 0.74284 0.59758 0.0
C745 C 1.00065 0.72875 0.60577 0.0
C746 C 0.96585 0.64235 0.62834 0.0
C747 C 0.03599 0.66972 0.6564 0.0
C748 C 0.02334 0.6639 0.6434 0.0
C749 C 0.98123 0.68417 0.60891 0.0
C750 C 0.99659 0.67112 0.61983 0.0
H751 H 0.12577 0.6983 0.67383 0.0
H752 H 0.09763 0.67118 0.65364 0.0
H753 H 0.95444 0.61818 0.64655 0.0
H754 H 0.89085 0.6435 0.59102 0.0
H755 H 0.92767 0.61899 0.60487 0.0
C756 C 0.17758 0.08559 0.06566 0.0
C757 C 0.20842 0.07414 0.0697 0.0
C758 C 0.13254 0.05647 0.06714 0.0
C759 C 0.05475 0.96376 0.08598 0.0
H760 H 0.972 0.94055 0.05987 0.0
C761 C 0.86721 0.87493 0.0931 0.0
C762 C 0.84038 0.84402 0.08435 0.0
C763 C 0.91243 0.90051 0.09132 0.0
C764 C 0.99479 0.94647 0.06721 0.0
H765 H 0.21601 0.02313 0.07846 0.0
H766 H 0.13794 0.97292 0.08109 0.0
H767 H 0.05023 0.99152 0.05658 0.0
H768 H 0.84061 0.81459 0.06707 0.0
H769 H 0.91967 0.85973 0.06389 0.0
H770 H 0.99946 0.91901 0.09664 0.0
C771 C 0.14844 0.00431 0.07681 0.0
C772 C 0.03946 0.976 0.06537 0.0
C773 C 0.19324 0.03309 0.07523 0.0
C774 C 0.86016 0.83822 0.07396 0.0
C775 C 0.90544 0.86427 0.0721 0.0
C776 C 0.01011 0.93465 0.08786 0.0
C777 C 0.11754 0.01563 0.07281 0.0
C778 C 0.06994 0.98491 0.07474 0.0
C779 C 0.93196 0.89611 0.0807 0.0
C780 C 0.97961 0.92567 0.07851 0.0
H781 H 0.18819 0.11693 0.06135 0.0
H782 H 0.10947 0.06621 0.06403 0.0
H783 H 0.07737 0.97016 0.0934 0.0
H784 H 0.85316 0.88021 0.10124 0.0
H785 H 0.93191 0.92487 0.09809 0.0
C786 C 0.11027 0.12397 0.42657 0.0
C787 C 0.08967 0.14459 0.42086 0.0
C788 C 0.09225 0.07867 0.42593 0.0
C789 C 0.02233 0.98325 0.4072 0.0
H790 H 0.02038 0.91799 0.43579 0.0
C791 C 0.98906 0.80475 0.40464 0.0
C792 C 0.95805 0.77535 0.41297 0.0
C793 C 0.0057 0.84996 0.40583 0.0
C794 C 0.02059 0.9357 0.42773 0.0
H795 H 0.03354 0.13362 0.4101 0.0
H796 H 0.00197 0.05378 0.40887 0.0
H797 H 0.04454 0.99586 0.43755 0.0
H798 H 0.92185 0.77052 0.42938 0.0
H799 H 0.95133 0.84911 0.43155 0.0
H800 H 0.9984 0.92293 0.39739 0.0
C801 C 0.03223 0.07308 0.41385 0.0
C802 C 0.0346 0.98033 0.42873 0.0
C803 C 0.05008 0.11866 0.41463 0.0
C804 C 0.94564 0.79226 0.4228 0.0
C805 C 0.9626 0.83734 0.42406 0.0
C806 C 0.00866 0.93859 0.40619 0.0
C807 C 0.0533 0.05268 0.41947 0.0
C808 C 0.03578 0.00467 0.41847 0.0
C809 C 0.99214 0.86667 0.41546 0.0
C810 C 0.00771 0.91435 0.41644 0.0
H811 H 0.14074 0.14294 0.43149 0.0
H812 H 0.10953 0.06408 0.43026 0.0
H813 H 0.02327 0.00122 0.39913 0.0
H814 H 0.99923 0.79283 0.39695 0.0
H815 H 0.02889 0.87184 0.39915 0.0
C816 C 0.86373 0.97627 0.7372 0.0
C817 C 0.84827 0.97769 0.74886 0.0
C818 C 0.89552 0.96382 0.73561 0.0
C819 C 0.9449 0.90585 0.75174 0.0
H820 H 0.02985 0.95239 0.72559 0.0
C821 C 0.04039 0.82139 0.73747 0.0
C822 C 0.0841 0.84621 0.73353 0.0
C823 C 0.01529 0.84111 0.73971 0.0
C824 C 0.00678 0.93951 0.73305 0.0
H825 H 0.85527 0.96867 0.76804 0.0
H826 H 0.91135 0.94856 0.76536 0.0
H827 H 0.97982 0.98061 0.72878 0.0
H828 H 0.1358 0.91171 0.72895 0.0
H829 H 0.09187 0.94672 0.73316 0.0
H830 H 0.97243 0.86577 0.75627 0.0
C831 C 0.89804 0.95546 0.75734 0.0
C832 C 0.97754 0.9552 0.73477 0.0
C833 C 0.86586 0.96719 0.7589 0.0
C834 C 0.10228 0.89167 0.73201 0.0
C835 C 0.07698 0.91163 0.73434 0.0
C836 C 0.97429 0.8906 0.75011 0.0
C837 C 0.91307 0.95309 0.74567 0.0
C838 C 0.94576 0.93815 0.74405 0.0
C839 C 0.03308 0.88647 0.73823 0.0
C840 C 0.00507 0.90649 0.7406 0.0
H841 H 0.85088 0.98426 0.72927 0.0
H842 H 0.90567 0.96184 0.72646 0.0
H843 H 0.92074 0.89134 0.75889 0.0
H844 H 0.025 0.78627 0.73869 0.0
H845 H 0.98143 0.82037 0.7424 0.0
C846 C 0.87259 0.91774 0.56308 0.0
C847 C 0.85751 0.88645 0.5724 0.0
C848 C 0.9058 0.96081 0.5653 0.0
C849 C 0.99224 0.03008 0.58813 0.0
H850 H 0.99298 0.12412 0.56977 0.0
C851 C 0.13006 0.21173 0.59415 0.0
C852 C 0.11755 0.24373 0.59315 0.0
C853 C 0.10048 0.1679 0.5911 0.0
C854 C 0.99315 0.09847 0.57513 0.0
H855 H 0.86452 0.87582 0.59144 0.0
H856 H 0.92047 0.95147 0.59555 0.0
H857 H 0.93584 0.04951 0.56616 0.0
H858 H 0.06384 0.25455 0.58843 0.0
H859 H 0.01241 0.179 0.58371 0.0
H860 H 0.04805 0.07967 0.59766 0.0
C861 C 0.90814 0.94265 0.58637 0.0
C862 C 0.96059 0.05523 0.57287 0.0
C863 C 0.87561 0.8993 0.58407 0.0
C864 C 0.07494 0.23097 0.58913 0.0
C865 C 0.04533 0.18737 0.58632 0.0
C866 C 0.02437 0.07354 0.59057 0.0
C867 C 0.92412 0.97404 0.57699 0.0
C868 C 0.95945 0.02028 0.57935 0.0
C869 C 0.05756 0.15509 0.58718 0.0
C870 C 0.02508 0.10844 0.58417 0.0
H871 H 0.8598 0.90861 0.55394 0.0
H872 H 0.91765 0.9834 0.55773 0.0
H873 H 0.99327 0.00423 0.59316 0.0
H874 H 0.16267 0.22056 0.59723 0.0
H875 H 0.11141 0.14421 0.59176 0.0
C876 C 0.07671 0.96028 0.89837 0.0
C877 C 0.07292 0.93051 0.90743 0.0
C878 C 0.05644 0.98543 0.89968 0.0
C879 C 0.01544 0.03127 0.92284 0.0
H880 H 0.95995 0.05246 0.89529 0.0
C881 C 0.96092 0.16229 0.92358 0.0
C882 C 0.91883 0.1485 0.9189 0.0
C883 C 0.98051 0.13635 0.92201 0.0
C884 C 0.97521 0.04681 0.90309 0.0
H885 H 0.04413 0.90335 0.92495 0.0
H886 H 0.00831 0.94733 0.92724 0.0
H887 H 0.98907 0.00295 0.89314 0.0
H888 H 0.86509 0.09744 0.90855 0.0
H889 H 0.89915 0.05276 0.90579 0.0
H890 H 1.0011 0.07494 0.93281 0.0
C891 C 0.0273 0.95125 0.91912 0.0
C892 C 0.99216 0.01862 0.90183 0.0
C893 C 0.04738 0.9257 0.91775 0.0
C894 C 0.89749 0.10906 0.9123 0.0
C895 C 0.91712 0.08346 0.91066 0.0
C896 C 0.99867 0.05973 0.92408 0.0
C897 C 0.03198 0.98173 0.91014 0.0
C898 C 0.01249 0.01048 0.91168 0.0
C899 C 0.95862 0.09643 0.91561 0.0
C900 C 0.97823 0.06773 0.91422 0.0
H901 H 0.09615 0.96483 0.8903 0.0
H902 H 0.06109 0.00882 0.89264 0.0
H903 H 0.03135 0.0261 0.93056 0.0
H904 H 0.97827 0.19248 0.9287 0.0
H905 H 0.01275 0.1475 0.92582 0.0
C906 C 0.16047 0.13048 0.24394 0.0
C907 C 0.18333 0.11912 0.25229 0.0
C908 C 0.11475 0.10853 0.24387 0.0
C909 C 0.01929 0.04714 0.26347 0.0
H910 H 0.95505 0.01534 0.23306 0.0
C911 C 0.83467 0.99499 0.26024 0.0
C912 C 0.80868 0.95719 0.25329 0.0
C913 C 0.88055 0.01499 0.25999 0.0
C914 C 0.97247 0.02391 0.24163 0.0
H915 H 0.1761 0.07525 0.26701 0.0
H916 H 0.09554 0.0367 0.26695 0.0
H917 H 0.03438 0.04607 0.23291 0.0
H918 H 0.8105 0.91183 0.24029 0.0
H919 H 0.89004 0.9469 0.23975 0.0
H920 H 0.95717 0.02493 0.27217 0.0
C921 C 0.11333 0.06277 0.26046 0.0
C922 C 0.01794 0.0417 0.24155 0.0
C923 C 0.15936 0.0845 0.26042 0.0
C924 C 0.82953 0.94085 0.24578 0.0
C925 C 0.87518 0.96104 0.24543 0.0
C926 C 0.97374 0.02967 0.26355 0.0
C927 C 0.09059 0.07485 0.25223 0.0
C928 C 0.04192 0.05361 0.25245 0.0
C929 C 0.90127 0.99795 0.25266 0.0
C930 C 0.94982 0.01784 0.25262 0.0
H931 H 0.178 0.15699 0.23755 0.0
H932 H 0.09832 0.11891 0.2375 0.0
H933 H 0.03691 0.05642 0.27201 0.0
H934 H 0.81963 0.00833 0.26614 0.0
H935 H 0.89981 0.0437 0.26557 0.0
C936 C 0.00781 0.27269 0.97993 0.0
C937 C 0.00736 0.26687 0.9673 0.0
C938 C 0.03555 0.26518 0.98737 0.0
C939 C 0.10617 0.21364 0.98766 0.0
H940 H 0.15737 0.28835 0.01583 0.0
C941 C 0.25405 0.22723 0.01453 0.0
C942 C 0.25116 0.22628 0.02727 0.0
C943 C 0.22213 0.22906 0.00741 0.0
C944 C 0.14297 0.26694 0.00807 0.0
H945 H 0.03558 0.24856 0.95256 0.0
H946 H 0.08527 0.23689 0.96544 0.0
H947 H 0.10706 0.29844 0.00289 0.0
H948 H 0.21241 0.22623 0.04254 0.0
H949 H 0.15676 0.23018 0.03007 0.0
H950 H 0.14373 0.18338 0.9927 0.0
C951 C 0.06337 0.24612 0.9697 0.0
C952 C 0.11392 0.27255 0.00064 0.0
C953 C 0.03505 0.253 0.96228 0.0
C954 C 0.21533 0.2267 0.03274 0.0
C955 C 0.18372 0.22927 0.02562 0.0
C956 C 0.13575 0.20849 0.995 0.0
C957 C 0.06416 0.25229 0.98237 0.0
C958 C 0.09501 0.24597 0.99032 0.0
C959 C 0.1869 0.23064 0.01288 0.0
C960 C 0.15444 0.23507 0.00528 0.0
H961 H 0.98621 0.28252 0.9841 0.0
H962 H 0.03422 0.26921 0.99708 0.0
H963 H 0.09179 0.19195 0.97996 0.0
H964 H 0.28105 0.22648 0.01006 0.0
H965 H 0.22558 0.23033 -0.00238 0.0
C966 C 0.96865 0.18117 0.38196 0.0
C967 C 0.00786 0.21915 0.37878 0.0
C968 C 0.93863 0.15519 0.37297 0.0
C969 C 0.92818 0.12505 0.34082 0.0
H970 H 0.80918 0.10323 0.34338 0.0
C971 C 0.8052 0.05055 0.3008 0.0
C972 C 0.76032 0.02512 0.30344 0.0
C973 C 0.83569 0.0725 0.3101 0.0
C974 C 0.84193 0.10804 0.34257 0.0
H975 H 0.04727 0.25874 0.36373 0.0
H976 H 0.99544 0.21277 0.34801 0.0
H977 H 0.86142 0.14235 0.35957 0.0
H978 H 0.71234 1.00094 0.3179 0.0
H979 H 0.76517 0.03716 0.33414 0.0
H980 H 0.90883 0.08983 0.32404 0.0
C981 C 0.98763 0.20343 0.35744 0.0
C982 C 0.87194 0.13076 0.35187 0.0
C983 C 0.0171 0.22986 0.36643 0.0
C984 C 0.74667 0.02103 0.31558 0.0
C985 C 0.77711 0.04212 0.3249 0.0
C986 C 0.89795 0.10152 0.33162 0.0
C987 C 0.94781 0.16616 0.36062 0.0
C988 C 0.91546 0.13984 0.35105 0.0
C989 C 0.82211 0.06877 0.32231 0.0
C990 C 0.85436 0.09292 0.33229 0.0
H991 H 0.96072 0.17233 0.39142 0.0
H992 H 0.90823 0.12652 0.37565 0.0
H993 H 0.96151 0.13139 0.34 0.0
H994 H 0.81652 0.0544 0.2915 0.0
H995 H 0.86977 0.09312 0.30763 0.0
C996 C 0.76297 0.75767 0.63067 0.0
C997 C 0.75605 0.76829 0.61887 0.0
C998 C 0.75778 0.77861 0.64081 0.0
C999 C 0.7066 0.843 0.651 0.0
H1000 H 0.79285 0.88047 0.67681 0.0
C1001 C 0.71648 0.95969 0.68948 0.0
C1002 C 0.72665 0.95207 0.70125 0.0
C1003 C 0.7184 0.93582 0.67957 0.0
C1004 C 0.76811 0.86973 0.66977 0.0
H1005 H 0.73711 0.80865 0.60858 0.0
H1006 H 0.7287 0.84559 0.62622 0.0
H1007 H 0.79905 0.84146 0.65934 0.0
H1008 H 0.74553 0.91224 0.71183 0.0
H1009 H 0.74871 0.87056 0.69459 0.0
H1010 H 0.67572 0.87138 0.66142 0.0
C1011 C 0.7379 0.82084 0.62764 0.0
C1012 C 0.77169 0.84735 0.65974 0.0
C1013 C 0.74321 0.79998 0.6175 0.0
C1014 C 0.7382 0.91952 0.70288 0.0
C1015 C 0.74005 0.89561 0.69297 0.0
C1016 C 0.70297 0.86534 0.66105 0.0
C1017 C 0.74541 0.81063 0.63942 0.0
C1018 C 0.74106 0.83379 0.6502 0.0
C1019 C 0.73047 0.90364 0.68117 0.0
C1020 C 0.73376 0.87911 0.67056 0.0
H1021 H 0.77325 0.73376 0.63209 0.0
H1022 H 0.76335 0.76957 0.64975 0.0
H1023 H 0.68206 0.83248 0.64391 0.0
H1024 H 0.70809 0.98488 0.68784 0.0
H1025 H 0.71143 0.94337 0.67059 0.0
C1026 C 0.82694 0.76674 0.03555 0.0
C1027 C 0.78184 0.73785 0.03398 0.0
C1028 C 0.85605 0.77693 0.02582 0.0
C1029 C 0.86413 0.73812 0.99476 0.0
H1030 H 0.96951 0.85208 0.9931 0.0
C1031 C 0.98487 0.79424 0.95385 0.0
C1032 C 0.02872 0.80959 0.95716 0.0
C1033 C 0.95351 0.78763 0.96271 0.0
C1034 C 0.94018 0.82011 0.99346 0.0
H1035 H 0.73171 0.69811 0.02087 0.0
H1036 H 0.78193 0.71689 0.0038 0.0
H1037 H 0.91699 0.83651 0.00944 0.0
H1038 H 0.0745 0.83185 0.97219 0.0
H1039 H 0.02012 0.82128 0.98759 0.0
H1040 H 0.88733 0.72232 0.97858 0.0
C1041 C 0.79535 0.73062 0.01262 0.0
C1042 C 0.91015 0.81096 0.00288 0.0
C1043 C 0.76639 0.7199 0.02241 0.0
C1044 C 0.04086 0.81964 0.96941 0.0
C1045 C 0.00981 0.81387 0.9782 0.0
C1046 C 0.89385 0.74757 0.98522 0.0
C1047 C 0.84072 0.75907 0.01418 0.0
C1048 C 0.8719 0.76959 0.00379 0.0
C1049 C 0.96567 0.79721 0.97499 0.0
C1050 C 0.93247 0.78846 0.98456 0.0
H1051 H 0.83982 0.78072 0.0444 0.0
H1052 H 0.8907 0.79823 0.02752 0.0
H1053 H 0.83563 0.70563 0.99519 0.0
H1054 H 0.97465 0.78605 0.94448 0.0
H1055 H 0.91973 0.77493 0.95998 0.0
C1056 C 0.21471 0.03591 0.29866 0.0
C1057 C 0.26033 0.05281 0.29845 0.0
C1058 C 0.18785 0.0011 0.30641 0.0
C1059 C 0.18461 0.90898 0.32322 0.0
H1060 H 0.09608 0.91362 0.34307 0.0
C1061 C 0.09923 0.78565 0.36192 0.0
C1062 C 0.05433 0.76953 0.36393 0.0
C1063 C 0.12292 0.82046 0.35393 0.0
C1064 C 0.12021 0.91144 0.33748 0.0
H1065 H 0.31323 0.04569 0.30602 0.0
H1066 H 0.26662 0.98523 0.31946 0.0
H1067 H 0.13922 0.97293 0.3288 0.0
H1068 H 0.99921 0.77781 0.35918 0.0
H1069 H 0.04036 0.83826 0.34507 0.0
H1070 H 0.16561 0.84752 0.33171 0.0
C1071 C 0.25153 0.99883 0.31367 0.0
C1072 C 0.14498 0.94551 0.3293 0.0
C1073 C 0.27834 0.03381 0.30605 0.0
C1074 C 0.03385 0.78971 0.35792 0.0
C1075 C 0.05751 0.82442 0.34983 0.0
C1076 C 0.15971 0.87485 0.3313 0.0
C1077 C 0.20598 0.98208 0.31397 0.0
C1078 C 0.17785 0.94491 0.32219 0.0
C1079 C 0.10232 0.83996 0.34762 0.0
C1080 C 0.12754 0.87581 0.33867 0.0
H1081 H 0.19987 0.05005 0.29299 0.0
H1082 H 0.15284 0.98876 0.30638 0.0
H1083 H 0.20912 0.90711 0.31772 0.0
H1084 H 0.11619 0.77141 0.36658 0.0
H1085 H 0.15757 0.83217 0.35275 0.0
C1086 C 0.21133 0.94485 0.67566 0.0
C1087 C 0.21723 0.94468 0.68829 0.0
C1088 C 0.21176 0.98058 0.66999 0.0
C1089 C 0.25301 0.09836 0.67358 0.0
H1090 H 0.16302 0.08023 0.65022 0.0
C1091 C 0.23453 0.24211 0.656 0.0
C1092 C 0.22088 0.24161 0.64396 0.0
C1093 C 0.23473 0.20575 0.66096 0.0
C1094 C 0.18886 0.08596 0.65656 0.0
H1095 H 0.2284 0.98201 0.70485 0.0
H1096 H 0.22958 0.04475 0.69493 0.0
H1097 H 0.16191 0.01717 0.65977 0.0
H1098 H 0.19709 0.2017 0.62768 0.0
H1099 H 0.19896 0.13883 0.63619 0.0
H1100 H 0.28062 0.16691 0.67027 0.0
C1101 C 0.22457 0.01712 0.68943 0.0
C1102 C 0.18806 0.04975 0.66208 0.0
C1103 C 0.22356 0.9811 0.69513 0.0
C1104 C 0.20808 0.20366 0.63695 0.0
C1105 C 0.20864 0.16726 0.6419 0.0
C1106 C 0.25414 0.13451 0.66797 0.0
C1107 C 0.21863 0.01724 0.6768 0.0
C1108 C 0.21989 0.05558 0.67074 0.0
C1109 C 0.22184 0.16776 0.654 0.0
C1110 C 0.2218 0.12891 0.65948 0.0
H1111 H 0.20585 0.91708 0.67017 0.0
H1112 H 0.20732 0.9798 0.66024 0.0
H1113 H 0.27843 0.10388 0.68006 0.0
H1114 H 0.24531 0.27066 0.66171 0.0
H1115 H 0.24444 0.20734 0.67036 0.0
C1116 C 0.32077 0.17992 0.11485 0.0
C1117 C 0.33501 0.15224 0.11001 0.0
C1118 C 0.31391 0.18054 0.12728 0.0
C1119 C 0.29605 0.11987 0.15581 0.0
H1120 H 0.34884 0.23579 0.17018 0.0
C1121 C 0.31941 0.15249 0.20761 0.0
C1122 C 0.31529 0.18748 0.21219 0.0
C1123 C 0.31675 0.14444 0.19513 0.0
C1124 C 0.33322 0.20316 0.16631 0.0
H1125 H 0.35173 0.1024 0.11436 0.0
H1126 H 0.34015 0.10383 0.13624 0.0
H1127 H 0.35358 0.22834 0.1484 0.0
H1128 H 0.30224 0.23952 0.2075 0.0
H1129 H 0.29673 0.22508 0.18573 0.0
H1130 H 0.2758 0.09476 0.17381 0.0
C1131 C 0.33412 0.12484 0.13034 0.0
C1132 C 0.33607 0.19892 0.15383 0.0
C1133 C 0.34116 0.12433 0.11786 0.0
C1134 C 0.30638 0.21291 0.20415 0.0
C1135 C 0.30332 0.20465 0.19171 0.0
C1136 C 0.29299 0.12411 0.16835 0.0
C1137 C 0.32115 0.15352 0.13517 0.0
C1138 C 0.31748 0.15729 0.14844 0.0
C1139 C 0.30962 0.17107 0.18703 0.0
C1140 C 0.31152 0.16586 0.17372 0.0
H1141 H 0.31627 0.20224 0.10909 0.0
H1142 H 0.30348 0.20266 0.13075 0.0
H1143 H 0.28121 0.08739 0.15186 0.0
H1144 H 0.32665 0.13264 0.21363 0.0
H1145 H 0.32213 0.11857 0.19181 0.0
C1146 C 0.13909 0.30679 0.47073 0.0
C1147 C 0.16592 0.29249 0.46535 0.0
C1148 C 0.1426 0.31641 0.48312 0.0
C1149 C 0.18395 0.29977 0.51224 0.0
H1150 H 0.1964 0.41228 0.52076 0.0
C1151 C 0.241 0.37459 0.5598 0.0
C1152 C 0.21909 0.39455 0.5651 0.0
C1153 C 0.23461 0.36255 0.54756 0.0
C1154 C 0.19246 0.38054 0.51857 0.0
H1155 H 0.21553 0.27465 0.46878 0.0
H1156 H 0.22165 0.29133 0.49045 0.0
H1157 H 0.18128 0.387 0.49978 0.0
H1158 H 0.17378 0.41809 0.5617 0.0
H1159 H 0.16235 0.39689 0.54039 0.0
H1160 H 0.19488 0.29312 0.53102 0.0
C1161 C 0.19802 0.29523 0.4851 0.0
C1162 C 0.18372 0.36604 0.50655 0.0
C1163 C 0.19475 0.28597 0.4727 0.0
C1164 C 0.19165 0.40338 0.55783 0.0
C1165 C 0.18504 0.39114 0.54561 0.0
C1166 C 0.19243 0.31414 0.52427 0.0
C1167 C 0.1727 0.31151 0.49038 0.0
C1168 C 0.17959 0.32562 0.50326 0.0
C1169 C 0.20596 0.37001 0.54038 0.0
C1170 C 0.19703 0.35482 0.52757 0.0
H1171 H 0.11687 0.31249 0.46526 0.0
H1172 H 0.12235 0.32847 0.487 0.0
H1173 H 0.1805 0.26828 0.50996 0.0
H1174 H 0.2628 0.36794 0.56516 0.0
H1175 H 0.25197 0.3472 0.54375 0.0
C1176 C 0.85626 0.23062 0.88072 0.0
C1177 C 0.81984 0.20396 0.88804 0.0
C1178 C 0.85546 0.22249 0.86829 0.0
C1179 C 0.78121 0.16409 0.84255 0.0
H1180 H 0.8849 0.16868 0.82888 0.0
C1181 C 0.78364 0.09214 0.79545 0.0
C1182 C 0.82131 0.116 0.78828 0.0
C1183 C 0.78236 0.10512 0.80737 0.0
C1184 C 0.85589 0.16781 0.83251 0.0
H1185 H 0.75381 0.14817 0.88801 0.0
H1186 H 0.75244 0.13382 0.86633 0.0
H1187 H 0.88476 0.18779 0.85011 0.0
H1188 H 0.88634 0.17336 0.78783 0.0
H1189 H 0.88414 0.19594 0.80858 0.0
H1190 H 0.75222 0.14354 0.82493 0.0
C1191 C 0.78141 0.16142 0.87017 0.0
C1192 C 0.85582 0.17881 0.84468 0.0
C1193 C 0.78219 0.16963 0.8826 0.0
C1194 C 0.8572 0.15372 0.79319 0.0
C1195 C 0.85593 0.16669 0.80508 0.0
C1196 C 0.78126 0.15302 0.83036 0.0
C1197 C 0.81823 0.18743 0.8629 0.0
C1198 C 0.81847 0.17699 0.84985 0.0
C1199 C 0.81873 0.14225 0.81236 0.0
C1200 C 0.8186 0.1547 0.82522 0.0
H1201 H 0.88543 0.25782 0.8846 0.0
H1202 H 0.88407 0.24363 0.8629 0.0
H1203 H 0.7521 0.16286 0.84624 0.0
H1204 H 0.75563 0.06272 0.79197 0.0
H1205 H 0.75339 0.08535 0.81279 0.0
C1206 C 0.65347 0.81099 0.21566 0.0
C1207 C 0.65532 0.84902 0.22032 0.0
C1208 C 0.65729 0.80627 0.20321 0.0
C1209 C 0.69522 0.86871 0.1745 0.0
H1210 H 0.61925 0.75519 0.15985 0.0
C1211 C 0.67444 0.84312 0.1227 0.0
C1212 C 0.67298 0.80554 0.11781 0.0
C1213 C 0.67398 0.84857 0.13523 0.0
C1214 C 0.64106 0.78693 0.16383 0.0
H1215 H 0.66294 0.9121 0.21557 0.0
H1216 H 0.66919 0.90377 0.19374 0.0
H1217 H 0.61494 0.76499 0.18161 0.0
H1218 H 0.66987 0.74417 0.12227 0.0
H1219 H 0.66929 0.75378 0.14427 0.0
H1220 H 0.72091 0.8907 0.15665 0.0
C1221 C 0.66538 0.8778 0.19976 0.0
C1222 C 0.63862 0.79259 0.1763 0.0
C1223 C 0.66174 0.88259 0.21226 0.0
C1224 C 0.6713 0.77358 0.12577 0.0
C1225 C 0.67058 0.77892 0.13835 0.0
C1226 C 0.69755 0.86307 0.16201 0.0
C1227 C 0.6629 0.83941 0.19509 0.0
C1228 C 0.66564 0.83356 0.1818 0.0
C1229 C 0.6719 0.81651 0.14321 0.0
C1230 C 0.67042 0.82214 0.15653 0.0
H1231 H 0.64953 0.78494 0.22165 0.0
H1232 H 0.65621 0.77672 0.19997 0.0
H1233 H 0.71699 0.90049 0.17846 0.0
H1234 H 0.67636 0.86863 0.11682 0.0
H1235 H 0.67459 0.87767 0.13868 0.0
C1236 C 0.78166 0.58789 0.43635 0.0
C1237 C 0.82237 0.59253 0.43304 0.0
C1238 C 0.77251 0.59184 0.44849 0.0
C1239 C 0.81501 0.60206 0.4802 0.0
H1240 H 0.76546 0.67788 0.48438 0.0
C1241 C 0.85256 0.71702 0.52094 0.0
C1242 C 0.81756 0.7187 0.5265 0.0
C1243 C 0.84589 0.69297 0.5103 0.0
C1244 C 0.77866 0.65609 0.48338 0.0
H1245 H 0.8835 0.60065 0.4401 0.0
H1246 H 0.86854 0.60947 0.46107 0.0
H1247 H 0.76572 0.64888 0.46433 0.0
H1248 H 0.74821 0.69665 0.52537 0.0
H1249 H 0.73664 0.65522 0.50646 0.0
H1250 H 0.83029 0.61178 0.49918 0.0
C1251 C 0.84337 0.60242 0.45436 0.0
C1252 C 0.77866 0.63923 0.47189 0.0
C1253 C 0.85231 0.59802 0.44226 0.0
C1254 C 0.77566 0.69577 0.52124 0.0
C1255 C 0.7691 0.67224 0.51045 0.0
C1256 C 0.81551 0.61942 0.49164 0.0
C1257 C 0.80394 0.60081 0.45758 0.0
C1258 C 0.79785 0.6129 0.47009 0.0
C1259 C 0.80418 0.67056 0.50493 0.0
C1260 C 0.79828 0.64742 0.49326 0.0
H1261 H 0.75768 0.58354 0.42955 0.0
H1262 H 0.74139 0.58941 0.45067 0.0
H1263 H 0.82918 0.58112 0.47921 0.0
H1264 H 0.88503 0.73386 0.52491 0.0
H1265 H 0.87359 0.6926 0.50615 0.0
C1266 C 0.11302 0.73334 0.77405 0.0
C1267 C 0.14575 0.76715 0.76699 0.0
C1268 C 0.10805 0.74025 0.78632 0.0
C1269 C 0.13181 0.82913 0.80785 0.0
H1270 H 0.12138 0.74693 0.83282 0.0
C1271 C 0.16994 0.87856 0.85779 0.0
C1272 C 0.1452 0.84829 0.86688 0.0
C1273 C 0.16328 0.86639 0.84559 0.0
C1274 C 0.12341 0.76983 0.82595 0.0
H1275 H 0.20037 0.83389 0.76752 0.0
H1276 H 0.19136 0.84599 0.78878 0.0
H1277 H 0.12313 0.72897 0.81146 0.0
H1278 H 0.09329 0.78173 0.87029 0.0
H1279 H 0.08111 0.76049 0.84887 0.0
H1280 H 0.13268 0.87027 0.82225 0.0
C1281 C 0.16898 0.81446 0.78477 0.0
C1282 C 0.12453 0.75957 0.81373 0.0
C1283 C 0.1741 0.80751 0.77258 0.0
C1284 C 0.1126 0.80586 0.86348 0.0
C1285 C 0.10598 0.79358 0.85123 0.0
C1286 C 0.13049 0.83928 0.82003 0.0
C1287 C 0.13558 0.78115 0.79174 0.0
C1288 C 0.12984 0.78963 0.80459 0.0
C1289 C 0.13164 0.82361 0.84217 0.0
C1290 C 0.12737 0.81025 0.82923 0.0
H1291 H 0.09045 0.70199 0.77001 0.0
H1292 H 0.08199 0.71402 0.79149 0.0
H1293 H 0.135 0.85252 0.80097 0.0
H1294 H 0.19494 0.9116 0.86013 0.0
H1295 H 0.184 0.89019 0.83887 0.0
loop_
_geom_bond_atom_site_label_1
_geom_bond_atom_site_label_2
_geom_bond_distance
_geom_bond_site_symmetry_2
_ccdc_geom_bond_type
C0 C1 1.351 . S
C0 N3 1.368 . S
C0 H5 0.931 . S
C1 C0 1.351 . S
C1 N2 1.373 . S
C1 H29 0.930 . S
N2 C1 1.373 . S
N2 C4 1.340 . S
N3 C0 1.368 . S
N3 C4 1.321 . S
N3 Co6 2.135 . S
C4 N2 1.340 . S
C4 N3 1.321 . S
C4 H28 0.930 . S
H5 C0 0.931 . S
Co6 N3 2.135 . S
Co6 N9 2.121 . S
Co6 O14 2.055 . S
Co6 O17 2.039 . S
Co6 N20 2.140 . S
C7 O8 1.227 . S
C7 O17 1.265 . S
O8 C7 1.227 . S
N9 Co6 2.121 . S
N9 C11 1.375 . S
N9 C12 1.313 . S
C10 C11 1.338 . S
C10 N13 1.377 . S
C10 H30 0.930 . S
C11 N9 1.375 . S
C11 C10 1.338 . S
C11 H15 0.931 . S
C12 N9 1.313 . S
C12 N13 1.344 . S
C12 H16 0.930 . S
N13 C10 1.377 . S
N13 C12 1.344 . S
O14 Co6 2.055 . S
O14 C18 1.253 . S
H15 C11 0.931 . S
H16 C12 0.930 . S
O17 Co6 2.039 . S
O17 C7 1.265 . S
C18 O14 1.253 . S
C18 O19 1.227 . S
O19 C18 1.227 . S
N20 Co6 2.140 . S
N20 C23 1.346 . S
N20 C24 1.345 . S
C21 C22 1.387 . S
C21 C25 1.391 . S
C22 C21 1.387 . S
C22 C23 1.369 . S
C22 H31 0.929 . S
C23 N20 1.346 . S
C23 C22 1.369 . S
C23 H26 0.928 . S
C24 N20 1.345 . S
C24 C25 1.371 . S
C24 H27 0.931 . S
C25 C21 1.391 . S
C25 C24 1.371 . S
C25 H32 0.930 . S
H26 C23 0.928 . S
H27 C24 0.931 . S
H28 C4 0.930 . S
H29 C1 0.930 . S
H30 C10 0.930 . S
H31 C22 0.929 . S
H32 C25 0.930 . S
C33 C34 1.351 . S
C33 N36 1.368 . S
C33 H38 0.931 . S
C34 C33 1.351 . S
C34 N35 1.373 . S
C34 H62 0.930 . S
N35 C34 1.373 . S
N35 C37 1.340 . S
N36 C33 1.368 . S
N36 C37 1.321 . S
N36 Co39 2.135 . S
C37 N35 1.340 . S
C37 N36 1.321 . S
C37 H61 0.930 . S
H38 C33 0.931 . S
Co39 N36 2.135 . S
Co39 N42 2.121 . S
Co39 O47 2.055 . S
Co39 O50 2.039 . S
Co39 N53 2.140 . S
C40 O41 1.227 . S
C40 O50 1.265 . S
O41 C40 1.227 . S
N42 Co39 2.121 . S
N42 C44 1.375 . S
N42 C45 1.313 . S
C43 C44 1.338 . S
C43 N46 1.377 . S
C43 H63 0.930 . S
C44 N42 1.375 . S
C44 C43 1.338 . S
C44 H48 0.931 . S
C45 N42 1.313 . S
C45 N46 1.344 . S
C45 H49 0.930 . S
N46 C43 1.377 . S
N46 C45 1.344 . S
O47 Co39 2.055 . S
O47 C51 1.253 . S
H48 C44 0.931 . S
H49 C45 0.930 . S
O50 Co39 2.039 . S
O50 C40 1.265 . S
C51 O47 1.253 . S
C51 O52 1.227 . S
O52 C51 1.227 . S
N53 Co39 2.140 . S
N53 C56 1.346 . S
N53 C57 1.345 . S
C54 C55 1.387 . S
C54 C58 1.391 . S
C55 C54 1.387 . S
C55 C56 1.369 . S
C55 H64 0.929 . S
C56 N53 1.346 . S
C56 C55 1.369 . S
C56 H59 0.928 . S
C57 N53 1.345 . S
C57 C58 1.371 . S
C57 H60 0.931 . S
C58 C54 1.391 . S
C58 C57 1.371 . S
C58 H65 0.930 . S
H59 C56 0.928 . S
H60 C57 0.931 . S
H61 C37 0.930 . S
H62 C34 0.930 . S
H63 C43 0.930 . S
H64 C55 0.929 . S
H65 C58 0.930 . S
C66 C67 1.351 . S
C66 N69 1.368 . S
C66 H71 0.931 . S
C67 C66 1.351 . S
C67 N68 1.373 . S
C67 H95 0.930 . S
N68 C67 1.373 . S
N68 C70 1.340 . S
N69 C66 1.368 . S
N69 C70 1.321 . S
N69 Co72 2.135 . S
C70 N68 1.340 . S
C70 N69 1.321 . S
C70 H94 0.930 . S
H71 C66 0.931 . S
Co72 N69 2.135 . S
Co72 N75 2.121 . S
Co72 O80 2.055 . S
Co72 O83 2.039 . S
Co72 N86 2.140 . S
C73 O74 1.227 . S
C73 O83 1.265 . S
O74 C73 1.227 . S
N75 Co72 2.121 . S
N75 C77 1.375 . S
N75 C78 1.313 . S
C76 C77 1.338 . S
C76 N79 1.377 . S
C76 H96 0.930 . S
C77 N75 1.375 . S
C77 C76 1.338 . S
C77 H81 0.931 . S
C78 N75 1.313 . S
C78 N79 1.344 . S
C78 H82 0.930 . S
N79 C76 1.377 . S
N79 C78 1.344 . S
O80 Co72 2.055 . S
O80 C84 1.253 . S
H81 C77 0.931 . S
H82 C78 0.930 . S
O83 Co72 2.039 . S
O83 C73 1.265 . S
C84 O80 1.253 . S
C84 O85 1.227 . S
O85 C84 1.227 . S
N86 Co72 2.140 . S
N86 C89 1.346 . S
N86 C90 1.345 . S
C87 C88 1.387 . S
C87 C91 1.391 . S
C88 C87 1.387 . S
C88 C89 1.369 . S
C88 H97 0.929 . S
C89 N86 1.346 . S
C89 C88 1.369 . S
C89 H92 0.928 . S
C90 N86 1.345 . S
C90 C91 1.371 . S
C90 H93 0.931 . S
C91 C87 1.391 . S
C91 C90 1.371 . S
C91 H98 0.930 . S
H92 C89 0.928 . S
H93 C90 0.931 . S
H94 C70 0.930 . S
H95 C67 0.930 . S
H96 C76 0.930 . S
H97 C88 0.929 . S
H98 C91 0.930 . S
C99 C100 1.351 . S
C99 N102 1.368 . S
C99 H104 0.931 . S
C100 C99 1.351 . S
C100 N101 1.373 . S
C100 H128 0.930 . S
N101 C100 1.373 . S
N101 C103 1.340 . S
N102 C99 1.368 . S
N102 C103 1.321 . S
N102 Co105 2.135 . S
C103 N101 1.340 . S
C103 N102 1.321 . S
C103 H127 0.930 . S
H104 C99 0.931 . S
Co105 N102 2.135 . S
Co105 N108 2.121 . S
Co105 O113 2.055 . S
Co105 O116 2.039 . S
Co105 N119 2.140 . S
C106 O107 1.227 . S
C106 O116 1.265 . S
O107 C106 1.227 . S
N108 Co105 2.121 . S
N108 C110 1.375 . S
N108 C111 1.313 . S
C109 C110 1.338 . S
C109 N112 1.377 . S
C109 H129 0.930 . S
C110 N108 1.375 . S
C110 C109 1.338 . S
C110 H114 0.931 . S
C111 N108 1.313 . S
C111 N112 1.344 . S
C111 H115 0.930 . S
N112 C109 1.377 . S
N112 C111 1.344 . S
O113 Co105 2.055 . S
O113 C117 1.253 . S
H114 C110 0.931 . S
H115 C111 0.930 . S
O116 Co105 2.039 . S
O116 C106 1.265 . S
C117 O113 1.253 . S
C117 O118 1.227 . S
O118 C117 1.227 . S
N119 Co105 2.140 . S
N119 C122 1.346 . S
N119 C123 1.345 . S
C120 C121 1.387 . S
C120 C124 1.391 . S
C121 C120 1.387 . S
C121 C122 1.369 . S
C121 H130 0.929 . S
C122 N119 1.346 . S
C122 C121 1.369 . S
C122 H125 0.928 . S
C123 N119 1.345 . S
C123 C124 1.371 . S
C123 H126 0.931 . S
C124 C120 1.391 . S
C124 C123 1.371 . S
C124 H131 0.930 . S
H125 C122 0.928 . S
H126 C123 0.931 . S
H127 C103 0.930 . S
H128 C100 0.930 . S
H129 C109 0.930 . S
H130 C121 0.929 . S
H131 C124 0.930 . S
C132 C133 1.351 . S
C132 N135 1.368 . S
C132 H137 0.931 . S
C133 C132 1.351 . S
C133 N134 1.373 . S
C133 H161 0.930 . S
N134 C133 1.373 . S
N134 C136 1.340 . S
N135 C132 1.368 . S
N135 C136 1.321 . S
N135 Co138 2.135 . S
C136 N134 1.340 . S
C136 N135 1.321 . S
C136 H160 0.930 . S
H137 C132 0.931 . S
Co138 N135 2.135 . S
Co138 N141 2.121 . S
Co138 O146 2.055 . S
Co138 O149 2.039 . S
Co138 N152 2.140 . S
C139 O140 1.227 . S
C139 O149 1.265 . S
O140 C139 1.227 . S
N141 Co138 2.121 . S
N141 C143 1.375 . S
N141 C144 1.313 . S
C142 C143 1.338 . S
C142 N145 1.377 . S
C142 H162 0.930 . S
C143 N141 1.375 . S
C143 C142 1.338 . S
C143 H147 0.931 . S
C144 N141 1.313 . S
C144 N145 1.344 . S
C144 H148 0.930 . S
N145 C142 1.377 . S
N145 C144 1.344 . S
O146 Co138 2.055 . S
O146 C150 1.253 . S
H147 C143 0.931 . S
H148 C144 0.930 . S
O149 Co138 2.039 . S
O149 C139 1.265 . S
C150 O146 1.253 . S
C150 O151 1.227 . S
O151 C150 1.227 . S
N152 Co138 2.140 . S
N152 C155 1.346 . S
N152 C156 1.345 . S
C153 C154 1.387 . S
C153 C157 1.391 . S
C154 C153 1.387 . S
C154 C155 1.369 . S
C154 H163 0.929 . S
C155 N152 1.346 . S
C155 C154 1.369 . S
C155 H158 0.928 . S
C156 N152 1.345 . S
C156 C157 1.371 . S
C156 H159 0.931 . S
C157 C153 1.391 . S
C157 C156 1.371 . S
C157 H164 0.930 . S
H158 C155 0.928 . S
H159 C156 0.931 . S
H160 C136 0.930 . S
H161 C133 0.930 . S
H162 C142 0.930 . S
H163 C154 0.929 . S
H164 C157 0.930 . S
C165 C166 1.351 . S
C165 N168 1.368 . S
C165 H170 0.931 . S
C166 C165 1.351 . S
C166 N167 1.373 . S
C166 H194 0.930 . S
N167 C166 1.373 . S
N167 C169 1.340 . S
N168 C165 1.368 . S
N168 C169 1.321 . S
N168 Co171 2.135 . S
C169 N167 1.340 . S
C169 N168 1.321 . S
C169 H193 0.930 . S
H170 C165 0.931 . S
Co171 N168 2.135 . S
Co171 N174 2.121 . S
Co171 O179 2.055 . S
Co171 O182 2.039 . S
Co171 N185 2.140 . S
C172 O173 1.227 . S
C172 O182 1.265 . S
O173 C172 1.227 . S
N174 Co171 2.121 . S
N174 C176 1.375 . S
N174 C177 1.313 . S
C175 C176 1.338 . S
C175 N178 1.377 . S
C175 H195 0.930 . S
C176 N174 1.375 . S
C176 C175 1.338 . S
C176 H180 0.931 . S
C177 N174 1.313 . S
C177 N178 1.344 . S
C177 H181 0.930 . S
N178 C175 1.377 . S
N178 C177 1.344 . S
O179 Co171 2.055 . S
O179 C183 1.253 . S
H180 C176 0.931 . S
H181 C177 0.930 . S
O182 Co171 2.039 . S
O182 C172 1.265 . S
C183 O179 1.253 . S
C183 O184 1.227 . S
O184 C183 1.227 . S
N185 Co171 2.140 . S
N185 C188 1.346 . S
N185 C189 1.345 . S
C186 C187 1.387 . S
C186 C190 1.391 . S
C187 C186 1.387 . S
C187 C188 1.369 . S
C187 H196 0.929 . S
C188 N185 1.346 . S
C188 C187 1.369 . S
C188 H191 0.928 . S
C189 N185 1.345 . S
C189 C190 1.371 . S
C189 H192 0.931 . S
C190 C186 1.391 . S
C190 C189 1.371 . S
C190 H197 0.930 . S
H191 C188 0.928 . S
H192 C189 0.931 . S
H193 C169 0.930 . S
H194 C166 0.930 . S
H195 C175 0.930 . S
H196 C187 0.929 . S
H197 C190 0.930 . S
C198 C199 1.351 . S
C198 N201 1.368 . S
C198 H203 0.931 . S
C199 C198 1.351 . S
C199 N200 1.373 . S
C199 H227 0.930 . S
N200 C199 1.373 . S
N200 C202 1.340 . S
N201 C198 1.368 . S
N201 C202 1.321 . S
N201 Co204 2.135 . S
C202 N200 1.340 . S
C202 N201 1.321 . S
C202 H226 0.930 . S
H203 C198 0.931 . S
Co204 N201 2.135 . S
Co204 N207 2.121 . S
Co204 O212 2.055 . S
Co204 O215 2.039 . S
Co204 N218 2.140 . S
C205 O206 1.227 . S
C205 O215 1.265 . S
O206 C205 1.227 . S
N207 Co204 2.121 . S
N207 C209 1.375 . S
N207 C210 1.313 . S
C208 C209 1.338 . S
C208 N211 1.377 . S
C208 H228 0.930 . S
C209 N207 1.375 . S
C209 C208 1.338 . S
C209 H213 0.931 . S
C210 N207 1.313 . S
C210 N211 1.344 . S
C210 H214 0.930 . S
N211 C208 1.377 . S
N211 C210 1.344 . S
O212 Co204 2.055 . S
O212 C216 1.253 . S
H213 C209 0.931 . S
H214 C210 0.930 . S
O215 Co204 2.039 . S
O215 C205 1.265 . S
C216 O212 1.253 . S
C216 O217 1.227 . S
O217 C216 1.227 . S
N218 Co204 2.140 . S
N218 C221 1.346 . S
N218 C222 1.345 . S
C219 C220 1.387 . S
C219 C223 1.391 . S
C220 C219 1.387 . S
C220 C221 1.369 . S
C220 H229 0.929 . S
C221 N218 1.346 . S
C221 C220 1.369 . S
C221 H224 0.928 . S
C222 N218 1.345 . S
C222 C223 1.371 . S
C222 H225 0.931 . S
C223 C219 1.391 . S
C223 C222 1.371 . S
C223 H230 0.930 . S
H224 C221 0.928 . S
H225 C222 0.931 . S
H226 C202 0.930 . S
H227 C199 0.930 . S
H228 C208 0.930 . S
H229 C220 0.929 . S
H230 C223 0.930 . S
C231 C232 1.351 . S
C231 N234 1.368 . S
C231 H236 0.931 . S
C232 C231 1.351 . S
C232 N233 1.373 . S
C232 H260 0.930 . S
N233 C232 1.373 . S
N233 C235 1.340 . S
N234 C231 1.368 . S
N234 C235 1.321 . S
N234 Co237 2.135 . S
C235 N233 1.340 . S
C235 N234 1.321 . S
C235 H259 0.930 . S
H236 C231 0.931 . S
Co237 N234 2.135 . S
Co237 N240 2.121 . S
Co237 O245 2.055 . S
Co237 O248 2.039 . S
Co237 N251 2.140 . S
C238 O239 1.227 . S
C238 O248 1.265 . S
O239 C238 1.227 . S
N240 Co237 2.121 . S
N240 C242 1.375 . S
N240 C243 1.313 . S
C241 C242 1.338 . S
C241 N244 1.377 . S
C241 H261 0.930 . S
C242 N240 1.375 . S
C242 C241 1.338 . S
C242 H246 0.931 . S
C243 N240 1.313 . S
C243 N244 1.344 . S
C243 H247 0.930 . S
N244 C241 1.377 . S
N244 C243 1.344 . S
O245 Co237 2.055 . S
O245 C249 1.253 . S
H246 C242 0.931 . S
H247 C243 0.930 . S
O248 Co237 2.039 . S
O248 C238 1.265 . S
C249 O245 1.253 . S
C249 O250 1.227 . S
O250 C249 1.227 . S
N251 Co237 2.140 . S
N251 C254 1.346 . S
N251 C255 1.345 . S
C252 C253 1.387 . S
C252 C256 1.391 . S
C253 C252 1.387 . S
C253 C254 1.369 . S
C253 H262 0.929 . S
C254 N251 1.346 . S
C254 C253 1.369 . S
C254 H257 0.928 . S
C255 N251 1.345 . S
C255 C256 1.371 . S
C255 H258 0.931 . S
C256 C252 1.391 . S
C256 C255 1.371 . S
C256 H263 0.930 . S
H257 C254 0.928 . S
H258 C255 0.931 . S
H259 C235 0.930 . S
H260 C232 0.930 . S
H261 C241 0.930 . S
H262 C253 0.929 . S
H263 C256 0.930 . S
C264 C265 1.351 . S
C264 N267 1.368 . S
C264 H269 0.931 . S
C265 C264 1.351 . S
C265 N266 1.373 . S
C265 H293 0.930 . S
N266 C265 1.373 . S
N266 C268 1.340 . S
N267 C264 1.368 . S
N267 C268 1.321 . S
N267 Co270 2.135 . S
C268 N266 1.340 . S
C268 N267 1.321 . S
C268 H292 0.930 . S
H269 C264 0.931 . S
Co270 N267 2.135 . S
Co270 N273 2.121 . S
Co270 O278 2.055 . S
Co270 O281 2.039 . S
Co270 N284 2.140 . S
C271 O272 1.227 . S
C271 O281 1.265 . S
O272 C271 1.227 . S
N273 Co270 2.121 . S
N273 C275 1.375 . S
N273 C276 1.313 . S
C274 C275 1.338 . S
C274 N277 1.377 . S
C274 H294 0.930 . S
C275 N273 1.375 . S
C275 C274 1.338 . S
C275 H279 0.931 . S
C276 N273 1.313 . S
C276 N277 1.344 . S
C276 H280 0.930 . S
N277 C274 1.377 . S
N277 C276 1.344 . S
O278 Co270 2.055 . S
O278 C282 1.253 . S
H279 C275 0.931 . S
H280 C276 0.930 . S
O281 Co270 2.039 . S
O281 C271 1.265 . S
C282 O278 1.253 . S
C282 O283 1.227 . S
O283 C282 1.227 . S
N284 Co270 2.140 . S
N284 C287 1.346 . S
N284 C288 1.345 . S
C285 C286 1.387 . S
C285 C289 1.391 . S
C286 C285 1.387 . S
C286 C287 1.369 . S
C286 H295 0.929 . S
C287 N284 1.346 . S
C287 C286 1.369 . S
C287 H290 0.928 . S
C288 N284 1.345 . S
C288 C289 1.371 . S
C288 H291 0.931 . S
C289 C285 1.391 . S
C289 C288 1.371 . S
C289 H296 0.930 . S
H290 C287 0.928 . S
H291 C288 0.931 . S
H292 C268 0.930 . S
H293 C265 0.930 . S
H294 C274 0.930 . S
H295 C286 0.929 . S
H296 C289 0.930 . S
C297 C298 1.351 . S
C297 N300 1.368 . S
C297 H302 0.931 . S
C298 C297 1.351 . S
C298 N299 1.373 . S
C298 H326 0.930 . S
N299 C298 1.373 . S
N299 C301 1.340 . S
N300 C297 1.368 . S
N300 C301 1.321 . S
N300 Co303 2.135 . S
C301 N299 1.340 . S
C301 N300 1.321 . S
C301 H325 0.930 . S
H302 C297 0.931 . S
Co303 N300 2.135 . S
Co303 N306 2.121 . S
Co303 O311 2.055 . S
Co303 O314 2.039 . S
Co303 N317 2.140 . S
C304 O305 1.227 . S
C304 O314 1.265 . S
O305 C304 1.227 . S
N306 Co303 2.121 . S
N306 C308 1.375 . S
N306 C309 1.313 . S
C307 C308 1.338 . S
C307 N310 1.377 . S
C307 H327 0.930 . S
C308 N306 1.375 . S
C308 C307 1.338 . S
C308 H312 0.931 . S
C309 N306 1.313 . S
C309 N310 1.344 . S
C309 H313 0.930 . S
N310 C307 1.377 . S
N310 C309 1.344 . S
O311 Co303 2.055 . S
O311 C315 1.253 . S
H312 C308 0.931 . S
H313 C309 0.930 . S
O314 Co303 2.039 . S
O314 C304 1.265 . S
C315 O311 1.253 . S
C315 O316 1.227 . S
O316 C315 1.227 . S
N317 Co303 2.140 . S
N317 C320 1.346 . S
N317 C321 1.345 . S
C318 C319 1.387 . S
C318 C322 1.391 . S
C319 C318 1.387 . S
C319 C320 1.369 . S
C319 H328 0.929 . S
C320 N317 1.346 . S
C320 C319 1.369 . S
C320 H323 0.928 . S
C321 N317 1.345 . S
C321 C322 1.371 . S
C321 H324 0.931 . S
C322 C318 1.391 . S
C322 C321 1.371 . S
C322 H329 0.930 . S
H323 C320 0.928 . S
H324 C321 0.931 . S
H325 C301 0.930 . S
H326 C298 0.930 . S
H327 C307 0.930 . S
H328 C319 0.929 . S
H329 C322 0.930 . S
C330 C331 1.351 . S
C330 N333 1.368 . S
C330 H335 0.931 . S
C331 C330 1.351 . S
C331 N332 1.373 . S
C331 H359 0.930 . S
N332 C331 1.373 . S
N332 C334 1.340 . S
N333 C330 1.368 . S
N333 C334 1.321 . S
N333 Co336 2.135 . S
C334 N332 1.340 . S
C334 N333 1.321 . S
C334 H358 0.930 . S
H335 C330 0.931 . S
Co336 N333 2.135 . S
Co336 N339 2.121 . S
Co336 O344 2.055 . S
Co336 O347 2.039 . S
Co336 N350 2.140 . S
C337 O338 1.227 . S
C337 O347 1.265 . S
O338 C337 1.227 . S
N339 Co336 2.121 . S
N339 C341 1.375 . S
N339 C342 1.313 . S
C340 C341 1.338 . S
C340 N343 1.377 . S
C340 H360 0.930 . S
C341 N339 1.375 . S
C341 C340 1.338 . S
C341 H345 0.931 . S
C342 N339 1.313 . S
C342 N343 1.344 . S
C342 H346 0.930 . S
N343 C340 1.377 . S
N343 C342 1.344 . S
O344 Co336 2.055 . S
O344 C348 1.253 . S
H345 C341 0.931 . S
H346 C342 0.930 . S
O347 Co336 2.039 . S
O347 C337 1.265 . S
C348 O344 1.253 . S
C348 O349 1.227 . S
O349 C348 1.227 . S
N350 Co336 2.140 . S
N350 C353 1.346 . S
N350 C354 1.345 . S
C351 C352 1.387 . S
C351 C355 1.391 . S
C352 C351 1.387 . S
C352 C353 1.369 . S
C352 H361 0.929 . S
C353 N350 1.346 . S
C353 C352 1.369 . S
C353 H356 0.928 . S
C354 N350 1.345 . S
C354 C355 1.371 . S
C354 H357 0.931 . S
C355 C351 1.391 . S
C355 C354 1.371 . S
C355 H362 0.930 . S
H356 C353 0.928 . S
H357 C354 0.931 . S
H358 C334 0.930 . S
H359 C331 0.930 . S
H360 C340 0.930 . S
H361 C352 0.929 . S
H362 C355 0.930 . S
C363 C364 1.351 . S
C363 N366 1.368 . S
C363 H368 0.931 . S
C364 C363 1.351 . S
C364 N365 1.373 . S
C364 H392 0.930 . S
N365 C364 1.373 . S
N365 C367 1.340 . S
N366 C363 1.368 . S
N366 C367 1.321 . S
N366 Co369 2.135 . S
C367 N365 1.340 . S
C367 N366 1.321 . S
C367 H391 0.930 . S
H368 C363 0.931 . S
Co369 N366 2.135 . S
Co369 N372 2.121 . S
Co369 O377 2.055 . S
Co369 O380 2.039 . S
Co369 N383 2.140 . S
C370 O371 1.227 . S
C370 O380 1.265 . S
O371 C370 1.227 . S
N372 Co369 2.121 . S
N372 C374 1.375 . S
N372 C375 1.313 . S
C373 C374 1.338 . S
C373 N376 1.377 . S
C373 H393 0.930 . S
C374 N372 1.375 . S
C374 C373 1.338 . S
C374 H378 0.931 . S
C375 N372 1.313 . S
C375 N376 1.344 . S
C375 H379 0.930 . S
N376 C373 1.377 . S
N376 C375 1.344 . S
O377 Co369 2.055 . S
O377 C381 1.253 . S
H378 C374 0.931 . S
H379 C375 0.930 . S
O380 Co369 2.039 . S
O380 C370 1.265 . S
C381 O377 1.253 . S
C381 O382 1.227 . S
O382 C381 1.227 . S
N383 Co369 2.140 . S
N383 C386 1.346 . S
N383 C387 1.345 . S
C384 C385 1.387 . S
C384 C388 1.391 . S
C385 C384 1.387 . S
C385 C386 1.369 . S
C385 H394 0.929 . S
C386 N383 1.346 . S
C386 C385 1.369 . S
C386 H389 0.928 . S
C387 N383 1.345 . S
C387 C388 1.371 . S
C387 H390 0.931 . S
C388 C384 1.391 . S
C388 C387 1.371 . S
C388 H395 0.930 . S
H389 C386 0.928 . S
H390 C387 0.931 . S
H391 C367 0.930 . S
H392 C364 0.930 . S
H393 C373 0.930 . S
H394 C385 0.929 . S
H395 C388 0.930 . S
C396 C397 1.349 . S
C396 C398 1.327 . S
C396 H421 0.950 . S
C397 C396 1.349 . S
C397 C413 1.349 . S
C398 C396 1.327 . S
C398 C417 1.429 . S
C398 H422 0.950 . S
C399 C416 1.574 . S
C399 C418 1.368 . S
C399 H423 0.949 . S
H400 C404 0.949 . S
C401 C402 1.349 . S
C401 C403 1.327 . S
C401 H424 0.950 . S
C402 C401 1.349 . S
C402 C414 1.349 . S
C403 C401 1.327 . S
C403 C419 1.429 . S
C403 H425 0.950 . S
C404 H400 0.949 . S
C404 C412 1.574 . S
C404 C420 1.368 . S
H405 C413 0.950 . S
H406 C411 0.950 . S
H407 C412 0.949 . S
H408 C414 0.950 . S
H409 C415 0.950 . S
H410 C416 0.949 . S
C411 H406 0.950 . S
C411 C413 1.327 . S
C411 C417 1.429 . S
C412 C404 1.574 . S
C412 H407 0.949 . S
C412 C418 1.368 . S
C413 C397 1.349 . S
C413 H405 0.950 . S
C413 C411 1.327 . S
C414 C402 1.349 . S
C414 H408 0.950 . S
C414 C415 1.327 . S
C415 H409 0.950 . S
C415 C414 1.327 . S
C415 C419 1.429 . S
C416 C399 1.574 . S
C416 H410 0.949 . S
C416 C420 1.368 . S
C417 C398 1.429 . S
C417 C411 1.429 . S
C417 C418 1.523 . S
C418 C399 1.368 . S
C418 C412 1.368 . S
C418 C417 1.523 . S
C419 C403 1.429 . S
C419 C415 1.429 . S
C419 C420 1.523 . S
C420 C404 1.368 . S
C420 C416 1.368 . S
C420 C419 1.523 . S
H421 C396 0.950 . S
H422 C398 0.950 . S
H423 C399 0.949 . S
H424 C401 0.950 . S
H425 C403 0.950 . S
C426 C427 1.349 . S
C426 C428 1.327 . S
C426 H451 0.950 . S
C427 C426 1.349 . S
C427 C443 1.349 . S
C428 C426 1.327 . S
C428 C447 1.429 . S
C428 H452 0.950 . S
C429 C446 1.574 . S
C429 C448 1.368 . S
C429 H453 0.949 . S
H430 C434 0.949 . S
C431 C432 1.349 . S
C431 C433 1.327 . S
C431 H454 0.950 . S
C432 C431 1.349 . S
C432 C444 1.349 . S
C433 C431 1.327 . S
C433 C449 1.429 . S
C433 H455 0.950 . S
C434 H430 0.949 . S
C434 C442 1.574 . S
C434 C450 1.368 . S
H435 C443 0.950 . S
H436 C441 0.950 . S
H437 C442 0.949 . S
H438 C444 0.950 . S
H439 C445 0.950 . S
H440 C446 0.949 . S
C441 H436 0.950 . S
C441 C443 1.327 . S
C441 C447 1.429 . S
C442 C434 1.574 . S
C442 H437 0.949 . S
C442 C448 1.368 1_655 S
C443 C427 1.349 . S
C443 H435 0.950 . S
C443 C441 1.327 . S
C444 C432 1.349 . S
C444 H438 0.950 . S
C444 C445 1.327 . S
C445 H439 0.950 . S
C445 C444 1.327 . S
C445 C449 1.429 . S
C446 C429 1.574 . S
C446 H440 0.949 . S
C446 C450 1.368 1_455 S
C447 C428 1.429 . S
C447 C441 1.429 . S
C447 C448 1.523 . S
C448 C429 1.368 . S
C448 C442 1.368 1_455 S
C448 C447 1.523 . S
C449 C433 1.429 . S
C449 C445 1.429 . S
C449 C450 1.523 . S
C450 C434 1.368 . S
C450 C446 1.368 1_655 S
C450 C449 1.523 . S
H451 C426 0.950 . S
H452 C428 0.950 . S
H453 C429 0.949 . S
H454 C431 0.950 . S
H455 C433 0.950 . S
C456 C457 1.349 . S
C456 C458 1.327 . S
C456 H481 0.950 . S
C457 C456 1.349 . S
C457 C473 1.349 . S
C458 C456 1.327 . S
C458 C477 1.429 . S
C458 H482 0.950 . S
C459 C476 1.574 . S
C459 C478 1.368 1_565 S
C459 H483 0.949 . S
H460 C464 0.949 . S
C461 C462 1.349 . S
C461 C463 1.327 . S
C461 H484 0.950 . S
C462 C461 1.349 . S
C462 C474 1.349 . S
C463 C461 1.327 . S
C463 C479 1.429 . S
C463 H485 0.950 . S
C464 H460 0.949 . S
C464 C472 1.574 . S
C464 C480 1.368 1_545 S
H465 C473 0.950 . S
H466 C471 0.950 . S
H467 C472 0.949 . S
H468 C474 0.950 . S
H469 C475 0.950 . S
H470 C476 0.949 . S
C471 H466 0.950 . S
C471 C473 1.327 . S
C471 C477 1.429 . S
C472 C464 1.574 . S
C472 H467 0.949 . S
C472 C478 1.368 . S
C473 C457 1.349 . S
C473 H465 0.950 . S
C473 C471 1.327 . S
C474 C462 1.349 . S
C474 H468 0.950 . S
C474 C475 1.327 . S
C475 H469 0.950 . S
C475 C474 1.327 . S
C475 C479 1.429 . S
C476 C459 1.574 . S
C476 H470 0.949 . S
C476 C480 1.368 . S
C477 C458 1.429 . S
C477 C471 1.429 . S
C477 C478 1.523 . S
C478 C459 1.368 1_545 S
C478 C472 1.368 . S
C478 C477 1.523 . S
C479 C463 1.429 . S
C479 C475 1.429 . S
C479 C480 1.523 . S
C480 C464 1.368 1_565 S
C480 C476 1.368 . S
C480 C479 1.523 . S
H481 C456 0.950 . S
H482 C458 0.950 . S
H483 C459 0.949 . S
H484 C461 0.950 . S
H485 C463 0.950 . S
C486 C487 1.349 . S
C486 C488 1.327 . S
C486 H511 0.950 . S
C487 C486 1.349 . S
C487 C503 1.349 . S
C488 C486 1.327 . S
C488 C507 1.429 . S
C488 H512 0.950 . S
C489 C506 1.574 . S
C489 C508 1.368 . S
C489 H513 0.949 . S
H490 C494 0.949 . S
C491 C492 1.349 . S
C491 C493 1.327 . S
C491 H514 0.950 . S
C492 C491 1.349 . S
C492 C504 1.349 . S
C493 C491 1.327 . S
C493 C509 1.429 . S
C493 H515 0.950 . S
C494 H490 0.949 . S
C494 C502 1.574 . S
C494 C510 1.368 . S
H495 C503 0.950 . S
H496 C501 0.950 . S
H497 C502 0.949 . S
H498 C504 0.950 . S
H499 C505 0.950 . S
H500 C506 0.949 . S
C501 H496 0.950 . S
C501 C503 1.327 . S
C501 C507 1.429 . S
C502 C494 1.574 . S
C502 H497 0.949 . S
C502 C508 1.368 . S
C503 C487 1.349 . S
C503 H495 0.950 . S
C503 C501 1.327 . S
C504 C492 1.349 . S
C504 H498 0.950 . S
C504 C505 1.327 . S
C505 H499 0.950 . S
C505 C504 1.327 . S
C505 C509 1.429 . S
C506 C489 1.574 . S
C506 H500 0.949 . S
C506 C510 1.368 . S
C507 C488 1.429 . S
C507 C501 1.429 . S
C507 C508 1.523 . S
C508 C489 1.368 . S
C508 C502 1.368 . S
C508 C507 1.523 . S
C509 C493 1.429 . S
C509 C505 1.429 . S
C509 C510 1.523 . S
C510 C494 1.368 . S
C510 C506 1.368 . S
C510 C509 1.523 . S
H511 C486 0.950 . S
H512 C488 0.950 . S
H513 C489 0.949 . S
H514 C491 0.950 . S
H515 C493 0.950 . S
C516 C517 1.349 . S
C516 C518 1.327 . S
C516 H541 0.950 . S
C517 C516 1.349 . S
C517 C533 1.349 . S
C518 C516 1.327 . S
C518 C537 1.429 . S
C518 H542 0.950 . S
C519 C536 1.574 . S
C519 C538 1.368 . S
C519 H543 0.949 . S
H520 C524 0.949 . S
C521 C522 1.349 . S
C521 C523 1.327 . S
C521 H544 0.950 . S
C522 C521 1.349 . S
C522 C534 1.349 . S
C523 C521 1.327 . S
C523 C539 1.429 . S
C523 H545 0.950 . S
C524 H520 0.949 . S
C524 C532 1.574 . S
C524 C540 1.368 . S
H525 C533 0.950 . S
H526 C531 0.950 . S
H527 C532 0.949 . S
H528 C534 0.950 . S
H529 C535 0.950 . S
H530 C536 0.949 . S
C531 H526 0.950 . S
C531 C533 1.327 . S
C531 C537 1.429 . S
C532 C524 1.574 . S
C532 H527 0.949 . S
C532 C538 1.368 1_455 S
C533 C517 1.349 . S
C533 H525 0.950 . S
C533 C531 1.327 . S
C534 C522 1.349 . S
C534 H528 0.950 . S
C534 C535 1.327 . S
C535 H529 0.950 . S
C535 C534 1.327 . S
C535 C539 1.429 . S
C536 C519 1.574 . S
C536 H530 0.949 . S
C536 C540 1.368 1_655 S
C537 C518 1.429 . S
C537 C531 1.429 . S
C537 C538 1.523 . S
C538 C519 1.368 . S
C538 C532 1.368 1_655 S
C538 C537 1.523 . S
C539 C523 1.429 . S
C539 C535 1.429 . S
C539 C540 1.523 . S
C540 C524 1.368 . S
C540 C536 1.368 1_455 S
C540 C539 1.523 . S
H541 C516 0.950 . S
H542 C518 0.950 . S
H543 C519 0.949 . S
H544 C521 0.950 . S
H545 C523 0.950 . S
C546 C547 1.349 . S
C546 C548 1.327 . S
C546 H571 0.950 . S
C547 C546 1.349 . S
C547 C563 1.349 . S
C548 C546 1.327 . S
C548 C567 1.429 . S
C548 H572 0.950 . S
C549 C566 1.574 . S
C549 C568 1.368 1_545 S
C549 H573 0.949 . S
H550 C554 0.949 . S
C551 C552 1.349 . S
C551 C553 1.327 . S
C551 H574 0.950 . S
C552 C551 1.349 . S
C552 C564 1.349 . S
C553 C551 1.327 . S
C553 C569 1.429 . S
C553 H575 0.950 . S
C554 H550 0.949 . S
C554 C562 1.574 . S
C554 C570 1.368 1_565 S
H555 C563 0.950 . S
H556 C561 0.950 . S
H557 C562 0.949 . S
H558 C564 0.950 . S
H559 C565 0.950 . S
H560 C566 0.949 . S
C561 H556 0.950 . S
C561 C563 1.327 . S
C561 C567 1.429 . S
C562 C554 1.574 . S
C562 H557 0.949 . S
C562 C568 1.368 . S
C563 C547 1.349 . S
C563 H555 0.950 . S
C563 C561 1.327 . S
C564 C552 1.349 . S
C564 H558 0.950 . S
C564 C565 1.327 . S
C565 H559 0.950 . S
C565 C564 1.327 . S
C565 C569 1.429 . S
C566 C549 1.574 . S
C566 H560 0.949 . S
C566 C570 1.368 . S
C567 C548 1.429 . S
C567 C561 1.429 . S
C567 C568 1.523 . S
C568 C549 1.368 1_565 S
C568 C562 1.368 . S
C568 C567 1.523 . S
C569 C553 1.429 . S
C569 C565 1.429 . S
C569 C570 1.523 . S
C570 C554 1.368 1_545 S
C570 C566 1.368 . S
C570 C569 1.523 . S
H571 C546 0.950 . S
H572 C548 0.950 . S
H573 C549 0.949 . S
H574 C551 0.950 . S
H575 C553 0.950 . S
C576 C577 1.349 . S
C576 C578 1.327 . S
C576 H601 0.950 . S
C577 C576 1.349 . S
C577 C593 1.349 . S
C578 C576 1.327 . S
C578 C597 1.429 . S
C578 H602 0.950 . S
C579 C596 1.574 1_556 S
C579 C598 1.368 1_545 S
C579 H603 0.949 . S
H580 C584 0.949 . S
C581 C582 1.349 . S
C581 C583 1.327 . S
C581 H604 0.950 . S
C582 C581 1.349 . S
C582 C594 1.349 . S
C583 C581 1.327 . S
C583 C599 1.429 . S
C583 H605 0.950 . S
C584 H580 0.949 . S
C584 C592 1.574 1_554 S
C584 C600 1.368 1_565 S
H585 C593 0.950 . S
H586 C591 0.950 . S
H587 C592 0.949 . S
H588 C594 0.950 . S
H589 C595 0.950 . S
H590 C596 0.949 . S
C591 H586 0.950 . S
C591 C593 1.327 . S
C591 C597 1.429 . S
C592 C584 1.574 1_556 S
C592 H587 0.949 . S
C592 C598 1.368 . S
C593 C577 1.349 . S
C593 H585 0.950 . S
C593 C591 1.327 . S
C594 C582 1.349 . S
C594 H588 0.950 . S
C594 C595 1.327 . S
C595 H589 0.950 . S
C595 C594 1.327 . S
C595 C599 1.429 . S
C596 C579 1.574 1_554 S
C596 H590 0.949 . S
C596 C600 1.368 . S
C597 C578 1.429 . S
C597 C591 1.429 . S
C597 C598 1.523 . S
C598 C579 1.368 1_565 S
C598 C592 1.368 . S
C598 C597 1.523 . S
C599 C583 1.429 . S
C599 C595 1.429 . S
C599 C600 1.523 . S
C600 C584 1.368 1_545 S
C600 C596 1.368 . S
C600 C599 1.523 . S
H601 C576 0.950 . S
H602 C578 0.950 . S
H603 C579 0.949 . S
H604 C581 0.950 . S
H605 C583 0.950 . S
C606 C607 1.349 . S
C606 C608 1.327 . S
C606 H631 0.950 . S
C607 C606 1.349 . S
C607 C623 1.349 . S
C608 C606 1.327 . S
C608 C627 1.429 . S
C608 H632 0.950 . S
C609 C626 1.574 . S
C609 C628 1.368 . S
C609 H633 0.949 . S
H610 C614 0.949 . S
C611 C612 1.349 . S
C611 C613 1.327 . S
C611 H634 0.950 . S
C612 C611 1.349 . S
C612 C624 1.349 . S
C613 C611 1.327 . S
C613 C629 1.429 . S
C613 H635 0.950 . S
C614 H610 0.949 . S
C614 C622 1.574 . S
C614 C630 1.368 . S
H615 C623 0.950 . S
H616 C621 0.950 . S
H617 C622 0.949 . S
H618 C624 0.950 . S
H619 C625 0.950 . S
H620 C626 0.949 . S
C621 H616 0.950 . S
C621 C623 1.327 . S
C621 C627 1.429 . S
C622 C614 1.574 . S
C622 H617 0.949 . S
C622 C628 1.368 . S
C623 C607 1.349 . S
C623 H615 0.950 . S
C623 C621 1.327 . S
C624 C612 1.349 . S
C624 H618 0.950 . S
C624 C625 1.327 . S
C625 H619 0.950 . S
C625 C624 1.327 . S
C625 C629 1.429 . S
C626 C609 1.574 . S
C626 H620 0.949 . S
C626 C630 1.368 . S
C627 C608 1.429 . S
C627 C621 1.429 . S
C627 C628 1.523 . S
C628 C609 1.368 . S
C628 C622 1.368 . S
C628 C627 1.523 . S
C629 C613 1.429 . S
C629 C625 1.429 . S
C629 C630 1.523 . S
C630 C614 1.368 . S
C630 C626 1.368 . S
C630 C629 1.523 . S
H631 C606 0.950 . S
H632 C608 0.950 . S
H633 C609 0.949 . S
H634 C611 0.950 . S
H635 C613 0.950 . S
C636 C637 1.349 . S
C636 C638 1.327 . S
C636 H661 0.950 . S
C637 C636 1.349 . S
C637 C653 1.349 . S
C638 C636 1.327 . S
C638 C657 1.429 . S
C638 H662 0.950 . S
C639 C656 1.574 1_455 S
C639 C658 1.368 . S
C639 H663 0.949 . S
H640 C644 0.949 . S
C641 C642 1.349 . S
C641 C643 1.327 . S
C641 H664 0.950 . S
C642 C641 1.349 . S
C642 C654 1.349 . S
C643 C641 1.327 . S
C643 C659 1.429 . S
C643 H665 0.950 . S
C644 H640 0.949 . S
C644 C652 1.574 1_655 S
C644 C660 1.368 . S
H645 C653 0.950 . S
H646 C651 0.950 . S
H647 C652 0.949 . S
H648 C654 0.950 . S
H649 C655 0.950 . S
H650 C656 0.949 . S
C651 H646 0.950 . S
C651 C653 1.327 . S
C651 C657 1.429 . S
C652 C644 1.574 1_455 S
C652 H647 0.949 . S
C652 C658 1.368 . S
C653 C637 1.349 . S
C653 H645 0.950 . S
C653 C651 1.327 . S
C654 C642 1.349 . S
C654 H648 0.950 . S
C654 C655 1.327 . S
C655 H649 0.950 . S
C655 C654 1.327 . S
C655 C659 1.429 . S
C656 C639 1.574 1_655 S
C656 H650 0.949 . S
C656 C660 1.368 . S
C657 C638 1.429 . S
C657 C651 1.429 . S
C657 C658 1.523 . S
C658 C639 1.368 . S
C658 C652 1.368 . S
C658 C657 1.523 . S
C659 C643 1.429 . S
C659 C655 1.429 . S
C659 C660 1.523 . S
C660 C644 1.368 . S
C660 C656 1.368 . S
C660 C659 1.523 . S
H661 C636 0.950 . S
H662 C638 0.950 . S
H663 C639 0.949 . S
H664 C641 0.950 . S
H665 C643 0.950 . S
C666 C667 1.349 . S
C666 C668 1.327 . S
C666 H691 0.950 . S
C667 C666 1.349 . S
C667 C683 1.349 . S
C668 C666 1.327 . S
C668 C687 1.429 . S
C668 H692 0.950 . S
C669 C686 1.574 1_564 S
C669 C688 1.368 . S
C669 H693 0.949 . S
H670 C674 0.949 . S
C671 C672 1.349 . S
C671 C673 1.327 . S
C671 H694 0.950 . S
C672 C671 1.349 . S
C672 C684 1.349 . S
C673 C671 1.327 . S
C673 C689 1.429 . S
C673 H695 0.950 . S
C674 H670 0.949 . S
C674 C682 1.574 1_546 S
C674 C690 1.368 . S
H675 C683 0.950 . S
H676 C681 0.950 . S
H677 C682 0.949 . S
H678 C684 0.950 . S
H679 C685 0.950 . S
H680 C686 0.949 . S
C681 H676 0.950 . S
C681 C683 1.327 . S
C681 C687 1.429 . S
C682 C674 1.574 1_564 S
C682 H677 0.949 . S
C682 C688 1.368 . S
C683 C667 1.349 . S
C683 H675 0.950 . S
C683 C681 1.327 . S
C684 C672 1.349 . S
C684 H678 0.950 . S
C684 C685 1.327 . S
C685 H679 0.950 . S
C685 C684 1.327 . S
C685 C689 1.429 . S
C686 C669 1.574 1_546 S
C686 H680 0.949 . S
C686 C690 1.368 . S
C687 C668 1.429 . S
C687 C681 1.429 . S
C687 C688 1.523 . S
C688 C669 1.368 . S
C688 C682 1.368 . S
C688 C687 1.523 . S
C689 C673 1.429 . S
C689 C685 1.429 . S
C689 C690 1.523 . S
C690 C674 1.368 . S
C690 C686 1.368 . S
C690 C689 1.523 . S
H691 C666 0.950 . S
H692 C668 0.950 . S
H693 C669 0.949 . S
H694 C671 0.950 . S
H695 C673 0.950 . S
C696 C697 1.349 . S
C696 C698 1.327 . S
C696 H721 0.950 . S
C697 C696 1.349 . S
C697 C713 1.349 . S
C698 C696 1.327 . S
C698 C717 1.429 . S
C698 H722 0.950 . S
C699 C716 1.574 . S
C699 C718 1.368 . S
C699 H723 0.949 . S
H700 C704 0.949 . S
C701 C702 1.349 . S
C701 C703 1.327 . S
C701 H724 0.950 . S
C702 C701 1.349 . S
C702 C714 1.349 . S
C703 C701 1.327 . S
C703 C719 1.429 . S
C703 H725 0.950 . S
C704 H700 0.949 . S
C704 C712 1.574 . S
C704 C720 1.368 . S
H705 C713 0.950 . S
H706 C711 0.950 . S
H707 C712 0.949 . S
H708 C714 0.950 . S
H709 C715 0.950 . S
H710 C716 0.949 . S
C711 H706 0.950 . S
C711 C713 1.327 . S
C711 C717 1.429 . S
C712 C704 1.574 . S
C712 H707 0.949 . S
C712 C718 1.368 . S
C713 C697 1.349 . S
C713 H705 0.950 . S
C713 C711 1.327 . S
C714 C702 1.349 . S
C714 H708 0.950 . S
C714 C715 1.327 . S
C715 H709 0.950 . S
C715 C714 1.327 . S
C715 C719 1.429 . S
C716 C699 1.574 . S
C716 H710 0.949 . S
C716 C720 1.368 . S
C717 C698 1.429 . S
C717 C711 1.429 . S
C717 C718 1.523 . S
C718 C699 1.368 . S
C718 C712 1.368 . S
C718 C717 1.523 . S
C719 C703 1.429 . S
C719 C715 1.429 . S
C719 C720 1.523 . S
C720 C704 1.368 . S
C720 C716 1.368 . S
C720 C719 1.523 . S
H721 C696 0.950 . S
H722 C698 0.950 . S
H723 C699 0.949 . S
H724 C701 0.950 . S
H725 C703 0.950 . S
C726 C727 1.349 . S
C726 C728 1.327 . S
C726 H751 0.950 . S
C727 C726 1.349 . S
C727 C743 1.349 . S
C728 C726 1.327 . S
C728 C747 1.429 . S
C728 H752 0.950 . S
C729 C746 1.574 . S
C729 C748 1.368 1_655 S
C729 H753 0.949 . S
H730 C734 0.949 . S
C731 C732 1.349 . S
C731 C733 1.327 . S
C731 H754 0.950 . S
C732 C731 1.349 . S
C732 C744 1.349 . S
C733 C731 1.327 . S
C733 C749 1.429 . S
C733 H755 0.950 . S
C734 H730 0.949 . S
C734 C742 1.574 . S
C734 C750 1.368 1_455 S
H735 C743 0.950 . S
H736 C741 0.950 1_655 S
H737 C742 0.949 . S
H738 C744 0.950 . S
H739 C745 0.950 1_455 S
H740 C746 0.949 . S
C741 H736 0.950 1_455 S
C741 C743 1.327 . S
C741 C747 1.429 . S
C742 C734 1.574 . S
C742 H737 0.949 . S
C742 C748 1.368 . S
C743 C727 1.349 . S
C743 H735 0.950 . S
C743 C741 1.327 . S
C744 C732 1.349 . S
C744 H738 0.950 . S
C744 C745 1.327 . S
C745 H739 0.950 1_655 S
C745 C744 1.327 . S
C745 C749 1.429 . S
C746 C729 1.574 . S
C746 H740 0.949 . S
C746 C750 1.368 . S
C747 C728 1.429 . S
C747 C741 1.429 . S
C747 C748 1.523 . S
C748 C729 1.368 1_455 S
C748 C742 1.368 . S
C748 C747 1.523 . S
C749 C733 1.429 . S
C749 C745 1.429 . S
C749 C750 1.523 . S
C750 C734 1.368 1_655 S
C750 C746 1.368 . S
C750 C749 1.523 . S
H751 C726 0.950 . S
H752 C728 0.950 . S
H753 C729 0.949 . S
H754 C731 0.950 . S
H755 C733 0.950 . S
C756 C757 1.349 . S
C756 C758 1.327 . S
C756 H781 0.950 . S
C757 C756 1.349 . S
C757 C773 1.349 . S
C758 C756 1.327 . S
C758 C777 1.429 . S
C758 H782 0.950 . S
C759 C776 1.574 1_455 S
C759 C778 1.368 . S
C759 H783 0.949 . S
H760 C764 0.949 . S
C761 C762 1.349 . S
C761 C763 1.327 . S
C761 H784 0.950 . S
C762 C761 1.349 . S
C762 C774 1.349 . S
C763 C761 1.327 . S
C763 C779 1.429 . S
C763 H785 0.950 . S
C764 H760 0.949 . S
C764 C772 1.574 1_655 S
C764 C780 1.368 . S
H765 C773 0.950 . S
H766 C771 0.950 . S
H767 C772 0.949 . S
H768 C774 0.950 . S
H769 C775 0.950 . S
H770 C776 0.949 . S
C771 H766 0.950 . S
C771 C773 1.327 . S
C771 C777 1.429 . S
C772 C764 1.574 1_455 S
C772 H767 0.949 . S
C772 C778 1.368 1_565 S
C773 C757 1.349 . S
C773 H765 0.950 . S
C773 C771 1.327 . S
C774 C762 1.349 . S
C774 H768 0.950 . S
C774 C775 1.327 . S
C775 H769 0.950 . S
C775 C774 1.327 . S
C775 C779 1.429 . S
C776 C759 1.574 1_655 S
C776 H770 0.949 . S
C776 C780 1.368 1_545 S
C777 C758 1.429 . S
C777 C771 1.429 . S
C777 C778 1.523 . S
C778 C759 1.368 . S
C778 C772 1.368 1_545 S
C778 C777 1.523 . S
C779 C763 1.429 . S
C779 C775 1.429 . S
C779 C780 1.523 . S
C780 C764 1.368 . S
C780 C776 1.368 1_565 S
C780 C779 1.523 . S
H781 C756 0.950 . S
H782 C758 0.950 . S
H783 C759 0.949 . S
H784 C761 0.950 . S
H785 C763 0.950 . S
C786 C787 1.349 . S
C786 C788 1.327 . S
C786 H811 0.950 . S
C787 C786 1.349 . S
C787 C803 1.349 . S
C788 C786 1.327 . S
C788 C807 1.429 . S
C788 H812 0.950 . S
C789 C806 1.574 1_545 S
C789 C808 1.368 . S
C789 H813 0.949 . S
H790 C794 0.949 . S
C791 C792 1.349 . S
C791 C793 1.327 . S
C791 H814 0.950 . S
C792 C791 1.349 . S
C792 C804 1.349 . S
C793 C791 1.327 . S
C793 C809 1.429 . S
C793 H815 0.950 . S
C794 H790 0.949 . S
C794 C802 1.574 1_565 S
C794 C810 1.368 . S
H795 C803 0.950 . S
H796 C801 0.950 . S
H797 C802 0.949 . S
H798 C804 0.950 . S
H799 C805 0.950 . S
H800 C806 0.949 . S
C801 H796 0.950 . S
C801 C803 1.327 . S
C801 C807 1.429 . S
C802 C794 1.574 1_545 S
C802 H797 0.949 . S
C802 C808 1.368 1_655 S
C803 C787 1.349 . S
C803 H795 0.950 . S
C803 C801 1.327 . S
C804 C792 1.349 . S
C804 H798 0.950 . S
C804 C805 1.327 . S
C805 H799 0.950 . S
C805 C804 1.327 . S
C805 C809 1.429 . S
C806 C789 1.574 1_565 S
C806 H800 0.949 . S
C806 C810 1.368 1_455 S
C807 C788 1.429 . S
C807 C801 1.429 . S
C807 C808 1.523 . S
C808 C789 1.368 . S
C808 C802 1.368 1_455 S
C808 C807 1.523 . S
C809 C793 1.429 . S
C809 C805 1.429 . S
C809 C810 1.523 . S
C810 C794 1.368 . S
C810 C806 1.368 1_655 S
C810 C809 1.523 . S
H811 C786 0.950 . S
H812 C788 0.950 . S
H813 C789 0.949 . S
H814 C791 0.950 . S
H815 C793 0.950 . S
C816 C817 1.349 . S
C816 C818 1.327 . S
C816 H841 0.950 . S
C817 C816 1.349 . S
C817 C833 1.349 . S
C818 C816 1.327 . S
C818 C837 1.429 . S
C818 H842 0.950 . S
C819 C836 1.574 . S
C819 C838 1.368 1_565 S
C819 H843 0.949 . S
H820 C824 0.949 . S
C821 C822 1.349 . S
C821 C823 1.327 . S
C821 H844 0.950 . S
C822 C821 1.349 . S
C822 C834 1.349 . S
C823 C821 1.327 . S
C823 C839 1.429 . S
C823 H845 0.950 . S
C824 H820 0.949 . S
C824 C832 1.574 . S
C824 C840 1.368 1_545 S
H825 C833 0.950 . S
H826 C831 0.950 . S
H827 C832 0.949 . S
H828 C834 0.950 . S
H829 C835 0.950 . S
H830 C836 0.949 . S
C831 H826 0.950 . S
C831 C833 1.327 . S
C831 C837 1.429 . S
C832 C824 1.574 . S
C832 H827 0.949 . S
C832 C838 1.368 1_455 S
C833 C817 1.349 . S
C833 H825 0.950 . S
C833 C831 1.327 . S
C834 C822 1.349 . S
C834 H828 0.950 . S
C834 C835 1.327 . S
C835 H829 0.950 . S
C835 C834 1.327 . S
C835 C839 1.429 . S
C836 C819 1.574 . S
C836 H830 0.949 . S
C836 C840 1.368 1_655 S
C837 C818 1.429 . S
C837 C831 1.429 . S
C837 C838 1.523 . S
C838 C819 1.368 1_545 S
C838 C832 1.368 1_655 S
C838 C837 1.523 . S
C839 C823 1.429 . S
C839 C835 1.429 . S
C839 C840 1.523 . S
C840 C824 1.368 1_565 S
C840 C836 1.368 1_455 S
C840 C839 1.523 . S
H841 C816 0.950 . S
H842 C818 0.950 . S
H843 C819 0.949 . S
H844 C821 0.950 . S
H845 C823 0.950 . S
C846 C847 1.349 . S
C846 C848 1.327 . S
C846 H871 0.950 . S
C847 C846 1.349 . S
C847 C863 1.349 . S
C848 C846 1.327 . S
C848 C867 1.429 . S
C848 H872 0.950 . S
C849 C866 1.574 1_565 S
C849 C868 1.368 1_455 S
C849 H873 0.949 . S
H850 C854 0.949 . S
C851 C852 1.349 . S
C851 C853 1.327 . S
C851 H874 0.950 . S
C852 C851 1.349 . S
C852 C864 1.349 . S
C853 C851 1.327 . S
C853 C869 1.429 . S
C853 H875 0.950 . S
C854 H850 0.949 . S
C854 C862 1.574 1_545 S
C854 C870 1.368 1_655 S
H855 C863 0.950 . S
H856 C861 0.950 . S
H857 C862 0.949 . S
H858 C864 0.950 . S
H859 C865 0.950 . S
H860 C866 0.949 . S
C861 H856 0.950 . S
C861 C863 1.327 . S
C861 C867 1.429 . S
C862 C854 1.574 1_565 S
C862 H857 0.949 . S
C862 C868 1.368 . S
C863 C847 1.349 . S
C863 H855 0.950 . S
C863 C861 1.327 . S
C864 C852 1.349 . S
C864 H858 0.950 . S
C864 C865 1.327 . S
C865 H859 0.950 . S
C865 C864 1.327 . S
C865 C869 1.429 . S
C866 C849 1.574 1_545 S
C866 H860 0.949 . S
C866 C870 1.368 . S
C867 C848 1.429 . S
C867 C861 1.429 . S
C867 C868 1.523 . S
C868 C849 1.368 1_655 S
C868 C862 1.368 . S
C868 C867 1.523 . S
C869 C853 1.429 . S
C869 C865 1.429 . S
C869 C870 1.523 . S
C870 C854 1.368 1_455 S
C870 C866 1.368 . S
C870 C869 1.523 . S
H871 C846 0.950 . S
H872 C848 0.950 . S
H873 C849 0.949 . S
H874 C851 0.950 . S
H875 C853 0.950 . S
C876 C877 1.349 . S
C876 C878 1.327 . S
C876 H901 0.950 . S
C877 C876 1.349 . S
C877 C893 1.349 . S
C878 C876 1.327 . S
C878 C897 1.429 . S
C878 H902 0.950 . S
C879 C896 1.574 . S
C879 C898 1.368 1_545 S
C879 H903 0.949 . S
H880 C884 0.949 . S
C881 C882 1.349 . S
C881 C883 1.327 . S
C881 H904 0.950 . S
C882 C881 1.349 . S
C882 C894 1.349 . S
C883 C881 1.327 . S
C883 C899 1.429 . S
C883 H905 0.950 . S
C884 H880 0.949 . S
C884 C892 1.574 . S
C884 C900 1.368 1_565 S
H885 C893 0.950 . S
H886 C891 0.950 . S
H887 C892 0.949 . S
H888 C894 0.950 . S
H889 C895 0.950 . S
H890 C896 0.949 . S
C891 H886 0.950 . S
C891 C893 1.327 . S
C891 C897 1.429 . S
C892 C884 1.574 . S
C892 H887 0.949 . S
C892 C898 1.368 1_655 S
C893 C877 1.349 . S
C893 H885 0.950 . S
C893 C891 1.327 . S
C894 C882 1.349 . S
C894 H888 0.950 . S
C894 C895 1.327 . S
C895 H889 0.950 . S
C895 C894 1.327 . S
C895 C899 1.429 . S
C896 C879 1.574 . S
C896 H890 0.949 . S
C896 C900 1.368 1_455 S
C897 C878 1.429 . S
C897 C891 1.429 . S
C897 C898 1.523 . S
C898 C879 1.368 1_565 S
C898 C892 1.368 1_455 S
C898 C897 1.523 . S
C899 C883 1.429 . S
C899 C895 1.429 . S
C899 C900 1.523 . S
C900 C884 1.368 1_545 S
C900 C896 1.368 1_655 S
C900 C899 1.523 . S
H901 C876 0.950 . S
H902 C878 0.950 . S
H903 C879 0.949 . S
H904 C881 0.950 . S
H905 C883 0.950 . S
C906 C907 1.349 . S
C906 C908 1.327 . S
C906 H931 0.950 . S
C907 C906 1.349 . S
C907 C923 1.349 . S
C908 C906 1.327 . S
C908 C927 1.429 . S
C908 H932 0.950 . S
C909 C926 1.574 1_455 S
C909 C928 1.368 . S
C909 H933 0.949 . S
H910 C914 0.949 . S
C911 C912 1.349 . S
C911 C913 1.327 . S
C911 H934 0.950 . S
C912 C911 1.349 . S
C912 C924 1.349 . S
C913 C911 1.327 . S
C913 C929 1.429 . S
C913 H935 0.950 . S
C914 H910 0.949 . S
C914 C922 1.574 1_655 S
C914 C930 1.368 . S
H915 C923 0.950 . S
H916 C921 0.950 . S
H917 C922 0.949 . S
H918 C924 0.950 . S
H919 C925 0.950 . S
H920 C926 0.949 . S
C921 H916 0.950 . S
C921 C923 1.327 . S
C921 C927 1.429 . S
C922 C914 1.574 1_455 S
C922 H917 0.949 . S
C922 C928 1.368 1_565 S
C923 C907 1.349 . S
C923 H915 0.950 . S
C923 C921 1.327 . S
C924 C912 1.349 . S
C924 H918 0.950 . S
C924 C925 1.327 . S
C925 H919 0.950 . S
C925 C924 1.327 . S
C925 C929 1.429 . S
C926 C909 1.574 1_655 S
C926 H920 0.949 . S
C926 C930 1.368 1_545 S
C927 C908 1.429 . S
C927 C921 1.429 . S
C927 C928 1.523 . S
C928 C909 1.368 . S
C928 C922 1.368 1_545 S
C928 C927 1.523 . S
C929 C913 1.429 . S
C929 C925 1.429 . S
C929 C930 1.523 . S
C930 C914 1.368 . S
C930 C926 1.368 1_565 S
C930 C929 1.523 . S
H931 C906 0.950 . S
H932 C908 0.950 . S
H933 C909 0.949 . S
H934 C911 0.950 . S
H935 C913 0.950 . S
C936 C937 1.349 . S
C936 C938 1.327 1_655 S
C936 H961 0.950 . S
C937 C936 1.349 . S
C937 C953 1.349 . S
C938 C936 1.327 1_455 S
C938 C957 1.429 . S
C938 H962 0.950 . S
C939 C956 1.574 . S
C939 C958 1.368 . S
C939 H963 0.949 . S
H940 C944 0.949 . S
C941 C942 1.349 . S
C941 C943 1.327 . S
C941 H964 0.950 . S
C942 C941 1.349 . S
C942 C954 1.349 . S
C943 C941 1.327 . S
C943 C959 1.429 . S
C943 H965 0.950 . S
C944 H940 0.949 . S
C944 C952 1.574 . S
C944 C960 1.368 . S
H945 C953 0.950 . S
H946 C951 0.950 . S
H947 C952 0.949 . S
H948 C954 0.950 . S
H949 C955 0.950 . S
H950 C956 0.949 . S
C951 H946 0.950 . S
C951 C953 1.327 1_455 S
C951 C957 1.429 . S
C952 C944 1.574 . S
C952 H947 0.949 . S
C952 C958 1.368 1_554 S
C953 C937 1.349 . S
C953 H945 0.950 . S
C953 C951 1.327 1_655 S
C954 C942 1.349 . S
C954 H948 0.950 . S
C954 C955 1.327 . S
C955 H949 0.950 . S
C955 C954 1.327 . S
C955 C959 1.429 . S
C956 C939 1.574 . S
C956 H950 0.949 . S
C956 C960 1.368 1_556 S
C957 C938 1.429 . S
C957 C951 1.429 . S
C957 C958 1.523 . S
C958 C939 1.368 . S
C958 C952 1.368 1_556 S
C958 C957 1.523 . S
C959 C943 1.429 . S
C959 C955 1.429 . S
C959 C960 1.523 . S
C960 C944 1.368 . S
C960 C956 1.368 1_554 S
C960 C959 1.523 . S
H961 C936 0.950 . S
H962 C938 0.950 . S
H963 C939 0.949 . S
H964 C941 0.950 . S
H965 C943 0.950 . S
C966 C967 1.349 1_655 S
C966 C968 1.327 . S
C966 H991 0.950 . S
C967 C966 1.349 1_455 S
C967 C983 1.349 . S
C968 C966 1.327 . S
C968 C987 1.429 . S
C968 H992 0.950 . S
C969 C986 1.574 . S
C969 C988 1.368 . S
C969 H993 0.949 . S
H970 C974 0.949 . S
C971 C972 1.349 1_545 S
C971 C973 1.327 . S
C971 H994 0.950 . S
C972 C971 1.349 1_565 S
C972 C984 1.349 . S
C973 C971 1.327 . S
C973 C989 1.429 . S
C973 H995 0.950 . S
C974 H970 0.949 . S
C974 C982 1.574 . S
C974 C990 1.368 . S
H975 C983 0.950 . S
H976 C981 0.950 . S
H977 C982 0.949 . S
H978 C984 0.950 . S
H979 C985 0.950 . S
H980 C986 0.949 . S
C981 H976 0.950 . S
C981 C983 1.327 . S
C981 C987 1.429 1_455 S
C982 C974 1.574 . S
C982 H977 0.949 . S
C982 C988 1.368 . S
C983 C967 1.349 . S
C983 H975 0.950 . S
C983 C981 1.327 . S
C984 C972 1.349 . S
C984 H978 0.950 . S
C984 C985 1.327 1_565 S
C985 H979 0.950 . S
C985 C984 1.327 1_545 S
C985 C989 1.429 . S
C986 C969 1.574 . S
C986 H980 0.949 . S
C986 C990 1.368 . S
C987 C968 1.429 . S
C987 C981 1.429 1_655 S
C987 C988 1.523 . S
C988 C969 1.368 . S
C988 C982 1.368 . S
C988 C987 1.523 . S
C989 C973 1.429 . S
C989 C985 1.429 . S
C989 C990 1.523 . S
C990 C974 1.368 . S
C990 C986 1.368 . S
C990 C989 1.523 . S
H991 C966 0.950 . S
H992 C968 0.950 . S
H993 C969 0.949 . S
H994 C971 0.950 . S
H995 C973 0.950 . S
C996 C997 1.349 . S
C996 C998 1.327 . S
C996 H1021 0.950 . S
C997 C996 1.349 . S
C997 C1013 1.349 . S
C998 C996 1.327 . S
C998 C1017 1.429 . S
C998 H1022 0.950 . S
C999 C1016 1.574 . S
C999 C1018 1.368 . S
C999 H1023 0.949 . S
H1000 C1004 0.949 . S
C1001 C1002 1.349 . S
C1001 C1003 1.327 1_545 S
C1001 H1024 0.950 . S
C1002 C1001 1.349 . S
C1002 C1014 1.349 1_545 S
C1003 C1001 1.327 1_565 S
C1003 C1019 1.429 . S
C1003 H1025 0.950 . S
C1004 H1000 0.949 . S
C1004 C1012 1.574 . S
C1004 C1020 1.368 . S
H1005 C1013 0.950 . S
H1006 C1011 0.950 . S
H1007 C1012 0.949 . S
H1008 C1014 0.950 . S
H1009 C1015 0.950 . S
H1010 C1016 0.949 . S
C1011 H1006 0.950 . S
C1011 C1013 1.327 . S
C1011 C1017 1.429 . S
C1012 C1004 1.574 . S
C1012 H1007 0.949 . S
C1012 C1018 1.368 . S
C1013 C997 1.349 . S
C1013 H1005 0.950 . S
C1013 C1011 1.327 . S
C1014 C1002 1.349 1_565 S
C1014 H1008 0.950 . S
C1014 C1015 1.327 . S
C1015 H1009 0.950 . S
C1015 C1014 1.327 . S
C1015 C1019 1.429 . S
C1016 C999 1.574 . S
C1016 H1010 0.949 . S
C1016 C1020 1.368 . S
C1017 C998 1.429 . S
C1017 C1011 1.429 . S
C1017 C1018 1.523 . S
C1018 C999 1.368 . S
C1018 C1012 1.368 . S
C1018 C1017 1.523 . S
C1019 C1003 1.429 . S
C1019 C1015 1.429 . S
C1019 C1020 1.523 . S
C1020 C1004 1.368 . S
C1020 C1016 1.368 . S
C1020 C1019 1.523 . S
H1021 C996 0.950 . S
H1022 C998 0.950 . S
H1023 C999 0.949 . S
H1024 C1001 0.950 . S
H1025 C1003 0.950 . S
C1026 C1027 1.349 . S
C1026 C1028 1.327 . S
C1026 H1051 0.950 . S
C1027 C1026 1.349 . S
C1027 C1043 1.349 . S
C1028 C1026 1.327 . S
C1028 C1047 1.429 . S
C1028 H1052 0.950 . S
C1029 C1046 1.574 . S
C1029 C1048 1.368 1_556 S
C1029 H1053 0.949 . S
H1030 C1034 0.949 . S
C1031 C1032 1.349 1_655 S
C1031 C1033 1.327 . S
C1031 H1054 0.950 . S
C1032 C1031 1.349 1_455 S
C1032 C1044 1.349 . S
C1033 C1031 1.327 . S
C1033 C1049 1.429 . S
C1033 H1055 0.950 . S
C1034 H1030 0.949 . S
C1034 C1042 1.574 . S
C1034 C1050 1.368 1_554 S
H1035 C1043 0.950 . S
H1036 C1041 0.950 . S
H1037 C1042 0.949 . S
H1038 C1044 0.950 . S
H1039 C1045 0.950 . S
H1040 C1046 0.949 . S
C1041 H1036 0.950 . S
C1041 C1043 1.327 . S
C1041 C1047 1.429 . S
C1042 C1034 1.574 . S
C1042 H1037 0.949 . S
C1042 C1048 1.368 . S
C1043 C1027 1.349 . S
C1043 H1035 0.950 . S
C1043 C1041 1.327 . S
C1044 C1032 1.349 . S
C1044 H1038 0.950 . S
C1044 C1045 1.327 . S
C1045 H1039 0.950 . S
C1045 C1044 1.327 . S
C1045 C1049 1.429 1_455 S
C1046 C1029 1.574 . S
C1046 H1040 0.949 . S
C1046 C1050 1.368 . S
C1047 C1028 1.429 . S
C1047 C1041 1.429 . S
C1047 C1048 1.523 . S
C1048 C1029 1.368 1_554 S
C1048 C1042 1.368 . S
C1048 C1047 1.523 . S
C1049 C1033 1.429 . S
C1049 C1045 1.429 1_655 S
C1049 C1050 1.523 . S
C1050 C1034 1.368 1_556 S
C1050 C1046 1.368 . S
C1050 C1049 1.523 . S
H1051 C1026 0.950 . S
H1052 C1028 0.950 . S
H1053 C1029 0.949 . S
H1054 C1031 0.950 . S
H1055 C1033 0.950 . S
C1056 C1057 1.349 . S
C1056 C1058 1.327 . S
C1056 H1081 0.950 . S
C1057 C1056 1.349 . S
C1057 C1073 1.349 1_545 S
C1058 C1056 1.327 . S
C1058 C1077 1.429 1_545 S
C1058 H1082 0.950 . S
C1059 C1076 1.574 . S
C1059 C1078 1.368 . S
C1059 H1083 0.949 . S
H1060 C1064 0.949 . S
C1061 C1062 1.349 1_455 S
C1061 C1063 1.327 . S
C1061 H1084 0.941 . S
C1062 C1061 1.349 1_655 S
C1062 C1074 1.349 . S
C1063 C1061 1.327 . S
C1063 C1079 1.429 . S
C1063 H1085 0.950 . S
C1064 H1060 0.949 . S
C1064 C1072 1.574 . S
C1064 C1080 1.368 . S
H1065 C1073 0.950 . S
H1066 C1071 0.950 . S
H1067 C1072 0.949 . S
H1068 C1074 0.950 . S
H1069 C1075 0.950 . S
H1070 C1076 0.949 . S
C1071 H1066 0.950 . S
C1071 C1073 1.327 . S
C1071 C1077 1.429 . S
C1072 C1064 1.574 . S
C1072 H1067 0.949 . S
C1072 C1078 1.368 . S
C1073 C1057 1.349 1_565 S
C1073 H1065 0.950 . S
C1073 C1071 1.327 . S
C1074 C1062 1.349 . S
C1074 H1068 0.950 . S
C1074 C1075 1.327 1_655 S
C1075 H1069 0.950 . S
C1075 C1074 1.327 1_455 S
C1075 C1079 1.429 . S
C1076 C1059 1.574 . S
C1076 H1070 0.949 . S
C1076 C1080 1.368 . S
C1077 C1058 1.429 1_565 S
C1077 C1071 1.429 . S
C1077 C1078 1.523 . S
C1078 C1059 1.368 . S
C1078 C1072 1.368 . S
C1078 C1077 1.523 . S
C1079 C1063 1.429 . S
C1079 C1075 1.429 . S
C1079 C1080 1.523 . S
C1080 C1064 1.368 . S
C1080 C1076 1.368 . S
C1080 C1079 1.523 . S
H1081 C1056 0.950 . S
H1082 C1058 0.950 . S
H1083 C1059 0.949 . S
H1084 C1061 0.941 . S
H1085 C1063 0.950 . S
C1086 C1087 1.349 . S
C1086 C1088 1.327 . S
C1086 H1111 0.950 . S
C1087 C1086 1.349 . S
C1087 C1103 1.349 1_565 S
C1088 C1086 1.327 . S
C1088 C1107 1.429 1_565 S
C1088 H1112 0.950 . S
C1089 C1106 1.574 . S
C1089 C1108 1.368 . S
C1089 H1113 0.949 . S
H1090 C1094 0.949 . S
C1091 C1092 1.349 . S
C1091 C1093 1.327 . S
C1091 H1114 0.950 . S
C1092 C1091 1.349 . S
C1092 C1104 1.349 . S
C1093 C1091 1.327 . S
C1093 C1109 1.429 . S
C1093 H1115 0.950 . S
C1094 H1090 0.949 . S
C1094 C1102 1.574 . S
C1094 C1110 1.368 . S
H1095 C1103 0.950 . S
H1096 C1101 0.950 . S
H1097 C1102 0.949 . S
H1098 C1104 0.950 . S
H1099 C1105 0.950 . S
H1100 C1106 0.949 . S
C1101 H1096 0.950 . S
C1101 C1103 1.327 . S
C1101 C1107 1.429 . S
C1102 C1094 1.574 . S
C1102 H1097 0.949 . S
C1102 C1108 1.368 . S
C1103 C1087 1.349 1_545 S
C1103 H1095 0.950 . S
C1103 C1101 1.327 . S
C1104 C1092 1.349 . S
C1104 H1098 0.950 . S
C1104 C1105 1.327 . S
C1105 H1099 0.950 . S
C1105 C1104 1.327 . S
C1105 C1109 1.429 . S
C1106 C1089 1.574 . S
C1106 H1100 0.949 . S
C1106 C1110 1.368 . S
C1107 C1088 1.429 1_545 S
C1107 C1101 1.429 . S
C1107 C1108 1.523 . S
C1108 C1089 1.368 . S
C1108 C1102 1.368 . S
C1108 C1107 1.523 . S
C1109 C1093 1.429 . S
C1109 C1105 1.429 . S
C1109 C1110 1.523 . S
C1110 C1094 1.368 . S
C1110 C1106 1.368 . S
C1110 C1109 1.523 . S
H1111 C1086 0.950 . S
H1112 C1088 0.950 . S
H1113 C1089 0.949 . S
H1114 C1091 0.950 . S
H1115 C1093 0.950 . S
C1116 C1117 1.349 . S
C1116 C1118 1.327 . S
C1116 H1141 0.950 . S
C1117 C1116 1.349 . S
C1117 C1133 1.349 . S
C1118 C1116 1.327 . S
C1118 C1137 1.429 . S
C1118 H1142 0.950 . S
C1119 C1136 1.574 . S
C1119 C1138 1.368 . S
C1119 H1143 0.949 . S
H1120 C1124 0.949 . S
C1121 C1122 1.349 . S
C1121 C1123 1.327 . S
C1121 H1144 0.950 . S
C1122 C1121 1.349 . S
C1122 C1134 1.349 . S
C1123 C1121 1.327 . S
C1123 C1139 1.429 . S
C1123 H1145 0.950 . S
C1124 H1120 0.949 . S
C1124 C1132 1.574 . S
C1124 C1140 1.368 . S
H1125 C1133 0.950 . S
H1126 C1131 0.950 . S
H1127 C1132 0.949 . S
H1128 C1134 0.950 . S
H1129 C1135 0.950 . S
H1130 C1136 0.949 . S
C1131 H1126 0.950 . S
C1131 C1133 1.327 . S
C1131 C1137 1.429 . S
C1132 C1124 1.574 . S
C1132 H1127 0.949 . S
C1132 C1138 1.368 . S
C1133 C1117 1.349 . S
C1133 H1125 0.950 . S
C1133 C1131 1.327 . S
C1134 C1122 1.349 . S
C1134 H1128 0.950 . S
C1134 C1135 1.327 . S
C1135 H1129 0.950 . S
C1135 C1134 1.327 . S
C1135 C1139 1.429 . S
C1136 C1119 1.574 . S
C1136 H1130 0.949 . S
C1136 C1140 1.368 . S
C1137 C1118 1.429 . S
C1137 C1131 1.429 . S
C1137 C1138 1.523 . S
C1138 C1119 1.368 . S
C1138 C1132 1.368 . S
C1138 C1137 1.523 . S
C1139 C1123 1.429 . S
C1139 C1135 1.429 . S
C1139 C1140 1.523 . S
C1140 C1124 1.368 . S
C1140 C1136 1.368 . S
C1140 C1139 1.523 . S
H1141 C1116 0.950 . S
H1142 C1118 0.950 . S
H1143 C1119 0.949 . S
H1144 C1121 0.950 . S
H1145 C1123 0.950 . S
C1146 C1147 1.349 . S
C1146 C1148 1.327 . S
C1146 H1171 0.950 . S
C1147 C1146 1.349 . S
C1147 C1163 1.349 . S
C1148 C1146 1.327 . S
C1148 C1167 1.429 . S
C1148 H1172 0.950 . S
C1149 C1166 1.574 . S
C1149 C1168 1.368 . S
C1149 H1173 0.949 . S
H1150 C1154 0.949 . S
C1151 C1152 1.349 . S
C1151 C1153 1.327 . S
C1151 H1174 0.950 . S
C1152 C1151 1.349 . S
C1152 C1164 1.349 . S
C1153 C1151 1.327 . S
C1153 C1169 1.429 . S
C1153 H1175 0.950 . S
C1154 H1150 0.949 . S
C1154 C1162 1.574 . S
C1154 C1170 1.368 . S
H1155 C1163 0.950 . S
H1156 C1161 0.950 . S
H1157 C1162 0.949 . S
H1158 C1164 0.950 . S
H1159 C1165 0.950 . S
H1160 C1166 0.949 . S
C1161 H1156 0.950 . S
C1161 C1163 1.327 . S
C1161 C1167 1.429 . S
C1162 C1154 1.574 . S
C1162 H1157 0.949 . S
C1162 C1168 1.368 . S
C1163 C1147 1.349 . S
C1163 H1155 0.950 . S
C1163 C1161 1.327 . S
C1164 C1152 1.349 . S
C1164 H1158 0.950 . S
C1164 C1165 1.327 . S
C1165 H1159 0.950 . S
C1165 C1164 1.327 . S
C1165 C1169 1.429 . S
C1166 C1149 1.574 . S
C1166 H1160 0.949 . S
C1166 C1170 1.368 . S
C1167 C1148 1.429 . S
C1167 C1161 1.429 . S
C1167 C1168 1.523 . S
C1168 C1149 1.368 . S
C1168 C1162 1.368 . S
C1168 C1167 1.523 . S
C1169 C1153 1.429 . S
C1169 C1165 1.429 . S
C1169 C1170 1.523 . S
C1170 C1154 1.368 . S
C1170 C1166 1.368 . S
C1170 C1169 1.523 . S
H1171 C1146 0.950 . S
H1172 C1148 0.950 . S
H1173 C1149 0.949 . S
H1174 C1151 0.950 . S
H1175 C1153 0.950 . S
C1176 C1177 1.349 . S
C1176 C1178 1.327 . S
C1176 H1201 0.950 . S
C1177 C1176 1.349 . S
C1177 C1193 1.349 . S
C1178 C1176 1.327 . S
C1178 C1197 1.429 . S
C1178 H1202 0.950 . S
C1179 C1196 1.574 . S
C1179 C1198 1.368 . S
C1179 H1203 0.949 . S
H1180 C1184 0.949 . S
C1181 C1182 1.349 . S
C1181 C1183 1.327 . S
C1181 H1204 0.950 . S
C1182 C1181 1.349 . S
C1182 C1194 1.349 . S
C1183 C1181 1.327 . S
C1183 C1199 1.429 . S
C1183 H1205 0.950 . S
C1184 H1180 0.949 . S
C1184 C1192 1.574 . S
C1184 C1200 1.368 . S
H1185 C1193 0.950 . S
H1186 C1191 0.950 . S
H1187 C1192 0.949 . S
H1188 C1194 0.950 . S
H1189 C1195 0.950 . S
H1190 C1196 0.949 . S
C1191 H1186 0.950 . S
C1191 C1193 1.327 . S
C1191 C1197 1.429 . S
C1192 C1184 1.574 . S
C1192 H1187 0.949 . S
C1192 C1198 1.368 . S
C1193 C1177 1.349 . S
C1193 H1185 0.950 . S
C1193 C1191 1.327 . S
C1194 C1182 1.349 . S
C1194 H1188 0.950 . S
C1194 C1195 1.327 . S
C1195 H1189 0.950 . S
C1195 C1194 1.327 . S
C1195 C1199 1.429 . S
C1196 C1179 1.574 . S
C1196 H1190 0.949 . S
C1196 C1200 1.368 . S
C1197 C1178 1.429 . S
C1197 C1191 1.429 . S
C1197 C1198 1.523 . S
C1198 C1179 1.368 . S
C1198 C1192 1.368 . S
C1198 C1197 1.523 . S
C1199 C1183 1.429 . S
C1199 C1195 1.429 . S
C1199 C1200 1.523 . S
C1200 C1184 1.368 . S
C1200 C1196 1.368 . S
C1200 C1199 1.523 . S
H1201 C1176 0.950 . S
H1202 C1178 0.950 . S
H1203 C1179 0.949 . S
H1204 C1181 0.950 . S
H1205 C1183 0.950 . S
C1206 C1207 1.349 . S
C1206 C1208 1.327 . S
C1206 H1231 0.950 . S
C1207 C1206 1.349 . S
C1207 C1223 1.349 . S
C1208 C1206 1.327 . S
C1208 C1227 1.429 . S
C1208 H1232 0.950 . S
C1209 C1226 1.574 . S
C1209 C1228 1.368 . S
C1209 H1233 0.949 . S
H1210 C1214 0.949 . S
C1211 C1212 1.349 . S
C1211 C1213 1.327 . S
C1211 H1234 0.950 . S
C1212 C1211 1.349 . S
C1212 C1224 1.349 . S
C1213 C1211 1.327 . S
C1213 C1229 1.429 . S
C1213 H1235 0.950 . S
C1214 H1210 0.949 . S
C1214 C1222 1.574 . S
C1214 C1230 1.368 . S
H1215 C1223 0.950 . S
H1216 C1221 0.950 . S
H1217 C1222 0.949 . S
H1218 C1224 0.950 . S
H1219 C1225 0.950 . S
H1220 C1226 0.949 . S
C1221 H1216 0.950 . S
C1221 C1223 1.327 . S
C1221 C1227 1.429 . S
C1222 C1214 1.574 . S
C1222 H1217 0.949 . S
C1222 C1228 1.368 . S
C1223 C1207 1.349 . S
C1223 H1215 0.950 . S
C1223 C1221 1.327 . S
C1224 C1212 1.349 . S
C1224 H1218 0.950 . S
C1224 C1225 1.327 . S
C1225 H1219 0.950 . S
C1225 C1224 1.327 . S
C1225 C1229 1.429 . S
C1226 C1209 1.574 . S
C1226 H1220 0.949 . S
C1226 C1230 1.368 . S
C1227 C1208 1.429 . S
C1227 C1221 1.429 . S
C1227 C1228 1.523 . S
C1228 C1209 1.368 . S
C1228 C1222 1.368 . S
C1228 C1227 1.523 . S
C1229 C1213 1.429 . S
C1229 C1225 1.429 . S
C1229 C1230 1.523 . S
C1230 C1214 1.368 . S
C1230 C1226 1.368 . S
C1230 C1229 1.523 . S
H1231 C1206 0.950 . S
H1232 C1208 0.950 . S
H1233 C1209 0.949 . S
H1234 C1211 0.950 . S
H1235 C1213 0.950 . S
C1236 C1237 1.349 . S
C1236 C1238 1.327 . S
C1236 H1261 0.950 . S
C1237 C1236 1.349 . S
C1237 C1253 1.349 . S
C1238 C1236 1.327 . S
C1238 C1257 1.429 . S
C1238 H1262 0.950 . S
C1239 C1256 1.574 . S
C1239 C1258 1.368 . S
C1239 H1263 0.949 . S
H1240 C1244 0.949 . S
C1241 C1242 1.349 . S
C1241 C1243 1.327 . S
C1241 H1264 0.950 . S
C1242 C1241 1.349 . S
C1242 C1254 1.349 . S
C1243 C1241 1.327 . S
C1243 C1259 1.429 . S
C1243 H1265 0.950 . S
C1244 H1240 0.949 . S
C1244 C1252 1.574 . S
C1244 C1260 1.368 . S
H1245 C1253 0.950 . S
H1246 C1251 0.950 . S
H1247 C1252 0.949 . S
H1248 C1254 0.950 . S
H1249 C1255 0.950 . S
H1250 C1256 0.949 . S
C1251 H1246 0.950 . S
C1251 C1253 1.327 . S
C1251 C1257 1.429 . S
C1252 C1244 1.574 . S
C1252 H1247 0.949 . S
C1252 C1258 1.368 . S
C1253 C1237 1.349 . S
C1253 H1245 0.950 . S
C1253 C1251 1.327 . S
C1254 C1242 1.349 . S
C1254 H1248 0.950 . S
C1254 C1255 1.327 . S
C1255 H1249 0.950 . S
C1255 C1254 1.327 . S
C1255 C1259 1.429 . S
C1256 C1239 1.574 . S
C1256 H1250 0.949 . S
C1256 C1260 1.368 . S
C1257 C1238 1.429 . S
C1257 C1251 1.429 . S
C1257 C1258 1.523 . S
C1258 C1239 1.368 . S
C1258 C1252 1.368 . S
C1258 C1257 1.523 . S
C1259 C1243 1.429 . S
C1259 C1255 1.429 . S
C1259 C1260 1.523 . S
C1260 C1244 1.368 . S
C1260 C1256 1.368 . S
C1260 C1259 1.523 . S
H1261 C1236 0.950 . S
H1262 C1238 0.950 . S
H1263 C1239 0.949 . S
H1264 C1241 0.950 . S
H1265 C1243 0.950 . S
C1266 C1267 1.349 . S
C1266 C1268 1.327 . S
C1266 H1291 0.950 . S
C1267 C1266 1.349 . S
C1267 C1283 1.349 . S
C1268 C1266 1.327 . S
C1268 C1287 1.429 . S
C1268 H1292 0.950 . S
C1269 C1286 1.574 . S
C1269 C1288 1.368 . S
C1269 H1293 0.949 . S
H1270 C1274 0.949 . S
C1271 C1272 1.349 . S
C1271 C1273 1.327 . S
C1271 H1294 0.950 . S
C1272 C1271 1.349 . S
C1272 C1284 1.349 . S
C1273 C1271 1.327 . S
C1273 C1289 1.429 . S
C1273 H1295 0.950 . S
C1274 H1270 0.949 . S
C1274 C1282 1.574 . S
C1274 C1290 1.368 . S
H1275 C1283 0.950 . S
H1276 C1281 0.950 . S
H1277 C1282 0.949 . S
H1278 C1284 0.950 . S
H1279 C1285 0.950 . S
H1280 C1286 0.949 . S
C1281 H1276 0.950 . S
C1281 C1283 1.327 . S
C1281 C1287 1.429 . S
C1282 C1274 1.574 . S
C1282 H1277 0.949 . S
C1282 C1288 1.368 . S
C1283 C1267 1.349 . S
C1283 H1275 0.950 . S
C1283 C1281 1.327 . S
C1284 C1272 1.349 . S
C1284 H1278 0.950 . S
C1284 C1285 1.327 . S
C1285 H1279 0.950 . S
C1285 C1284 1.327 . S
C1285 C1289 1.429 . S
C1286 C1269 1.574 . S
C1286 H1280 0.949 . S
C1286 C1290 1.368 . S
C1287 C1268 1.429 . S
C1287 C1281 1.429 . S
C1287 C1288 1.523 . S
C1288 C1269 1.368 . S
C1288 C1282 1.368 . S
C1288 C1287 1.523 . S
C1289 C1273 1.429 . S
C1289 C1285 1.429 . S
C1289 C1290 1.523 . S
C1290 C1274 1.368 . S
C1290 C1286 1.368 . S
C1290 C1289 1.523 . S
H1291 C1266 0.950 . S
H1292 C1268 0.950 . S
H1293 C1269 0.949 . S
H1294 C1271 0.950 . S
H1295 C1273 0.950 . S
C397 C117 1.500 . S
C402 C18 1.500 . S
C427 C51 1.499 . S
C432 C150 1.499 . S
C457 C84 1.500 . S
C462 C183 1.500 . S
C487 C216 1.500 . S
C492 C315 1.500 . S
C517 C348 1.500 . S
C522 C249 1.500 . S
C547 C381 1.499 . S
C552 C282 1.499 . S
C577 C252 0.513 . S
C582 C21 0.513 . S
C607 C54 0.513 . S
C612 C285 0.513 . S
C637 C318 0.513 . S
C642 C87 0.513 . S
C667 C120 0.513 . S
C672 C351 0.513 . S
C697 C384 0.513 . S
C702 C153 0.513 . S
C727 C186 0.513 . S
C732 C219 0.513 . S
C757 C7 0.861 . S
C762 C106 0.861 . S
C787 C40 0.861 . S
C792 C139 0.861 . S
C817 C73 0.861 . S
C822 C172 0.861 . S
C847 C205 0.861 . S
C852 C304 0.861 . S
C877 C238 0.861 . S
C882 C337 0.861 . S
C907 C271 0.861 . S
C912 C370 0.861 . S
C937 N332 0.699 . S
C942 N2 0.699 . S
C967 N35 0.699 . S
C972 N365 0.699 . S
C997 N200 0.699 . S
C1002 N68 0.699 . S
C1027 N101 0.699 . S
C1032 N233 0.699 . S
C1057 N266 0.699 . S
C1062 N134 0.699 . S
C1087 N167 0.699 . S
C1092 N299 0.699 . S
C1117 N13 1.732 . S
C1122 N277 1.732 . S
C1147 N46 1.732 . S
C1152 N310 1.732 . S
C1177 N343 1.732 . S
C1182 N79 1.732 . S
C1207 N376 1.732 . S
C1212 N112 1.732 . S
C1237 N145 1.732 . S
C1242 N211 1.732 . S
C1267 N178 1.732 . S
C1272 N244 1.732 . S
