# Generated by pormake.
# Topology und, (4)-cn, num edge types: 1
# Building blocks:
#     Node 0, Type 0, BuildingBlock: ICAMEG_clean_sbu_1, # of connection points: 4
#     Node 1, Type 0, BuildingBlock: ICAMEG_clean_sbu_1, # of connection points: 4
#     Node 2, Type 0, BuildingBlock: ICAMEG_clean_sbu_1, # of connection points: 4
#     Node 3, Type 0, BuildingBlock: ICAMEG_clean_sbu_1, # of connection points: 4
#     Node 4, Type 0, BuildingBlock: ICAMEG_clean_sbu_1, # of connection points: 4
#     Node 5, Type 0, BuildingBlock: ICAMEG_clean_sbu_1, # of connection points: 4
#     Node 6, Type 0, BuildingBlock: ICAMEG_clean_sbu_1, # of connection points: 4
#     Node 7, Type 0, BuildingBlock: ICAMEG_clean_sbu_1, # of connection points: 4
#     Node 8, Type 0, BuildingBlock: ICAMEG_clean_sbu_1, # of connection points: 4
#     Node 9, Type 0, BuildingBlock: ICAMEG_clean_sbu_1, # of connection points: 4
#     Node 10, Type 0, BuildingBlock: ICAMEG_clean_sbu_1, # of connection points: 4
#     Node 11, Type 0, BuildingBlock: ICAMEG_clean_sbu_1, # of connection points: 4
#     Node 12, Type 0, BuildingBlock: ICAMEG_clean_sbu_1, # of connection points: 4
#     Node 13, Type 0, BuildingBlock: ICAMEG_clean_sbu_1, # of connection points: 4
#     Node 14, Type 0, BuildingBlock: ICAMEG_clean_sbu_1, # of connection points: 4
#     Node 15, Type 0, BuildingBlock: ICAMEG_clean_sbu_1, # of connection points: 4
#     Edge 16, Type (0, 0), BuildingBlock: OJICUG_clean_linker_0, # of connection points: 2
#     Edge 17, Type (0, 0), BuildingBlock: OJICUG_clean_linker_0, # of connection points: 2
#     Edge 18, Type (0, 0), BuildingBlock: OJICUG_clean_linker_0, # of connection points: 2
#     Edge 19, Type (0, 0), BuildingBlock: OJICUG_clean_linker_0, # of connection points: 2
#     Edge 20, Type (0, 0), BuildingBlock: OJICUG_clean_linker_0, # of connection points: 2
#     Edge 21, Type (0, 0), BuildingBlock: OJICUG_clean_linker_0, # of connection points: 2
#     Edge 22, Type (0, 0), BuildingBlock: OJICUG_clean_linker_0, # of connection points: 2
#     Edge 23, Type (0, 0), BuildingBlock: OJICUG_clean_linker_0, # of connection points: 2
#     Edge 24, Type (0, 0), BuildingBlock: OJICUG_clean_linker_0, # of connection points: 2
#     Edge 25, Type (0, 0), BuildingBlock: OJICUG_clean_linker_0, # of connection points: 2
#     Edge 26, Type (0, 0), BuildingBlock: OJICUG_clean_linker_0, # of connection points: 2
#     Edge 27, Type (0, 0), BuildingBlock: OJICUG_clean_linker_0, # of connection points: 2
#     Edge 28, Type (0, 0), BuildingBlock: OJICUG_clean_linker_0, # of connection points: 2
#     Edge 29, Type (0, 0), BuildingBlock: OJICUG_clean_linker_0, # of connection points: 2
#     Edge 30, Type (0, 0), BuildingBlock: OJICUG_clean_linker_0, # of connection points: 2
#     Edge 31, Type (0, 0), BuildingBlock: OJICUG_clean_linker_0, # of connection points: 2
#     Edge 32, Type (0, 0), BuildingBlock: OJICUG_clean_linker_0, # of connection points: 2
#     Edge 33, Type (0, 0), BuildingBlock: OJICUG_clean_linker_0, # of connection points: 2
#     Edge 34, Type (0, 0), BuildingBlock: OJICUG_clean_linker_0, # of connection points: 2
#     Edge 35, Type (0, 0), BuildingBlock: OJICUG_clean_linker_0, # of connection points: 2
#     Edge 36, Type (0, 0), BuildingBlock: OJICUG_clean_linker_0, # of connection points: 2
#     Edge 37, Type (0, 0), BuildingBlock: OJICUG_clean_linker_0, # of connection points: 2
#     Edge 38, Type (0, 0), BuildingBlock: OJICUG_clean_linker_0, # of connection points: 2
#     Edge 39, Type (0, 0), BuildingBlock: OJICUG_clean_linker_0, # of connection points: 2
#     Edge 40, Type (0, 0), BuildingBlock: OJICUG_clean_linker_0, # of connection points: 2
#     Edge 41, Type (0, 0), BuildingBlock: OJICUG_clean_linker_0, # of connection points: 2
#     Edge 42, Type (0, 0), BuildingBlock: OJICUG_clean_linker_0, # of connection points: 2
#     Edge 43, Type (0, 0), BuildingBlock: OJICUG_clean_linker_0, # of connection points: 2
#     Edge 44, Type (0, 0), BuildingBlock: OJICUG_clean_linker_0, # of connection points: 2
#     Edge 45, Type (0, 0), BuildingBlock: OJICUG_clean_linker_0, # of connection points: 2
#     Edge 46, Type (0, 0), BuildingBlock: OJICUG_clean_linker_0, # of connection points: 2
#     Edge 47, Type (0, 0), BuildingBlock: OJICUG_clean_linker_0, # of connection points: 2
# Relax obj value: 0.026
# Max RMSD: 0.081
# Mean RMSD: 0.081
data_MOF--net-und--node1-ICAMEG_clean_sbu_1--edge1-OJICUG_clean_linker_0
_symmetry_space_group_name_H-M    P1
_symmetry_Int_Tables_number       1
_symmetry_cell_setting            triclinic
loop_
_symmetry_equiv_pos_as_xyz
'x, y, z'
_cell_length_a     49.038147
_cell_length_b     49.079544
_cell_length_c     16.446702
_cell_angle_alpha  89.964653
_cell_angle_beta   90.02178
_cell_angle_gamma 90.11953
loop_
_atom_site_label
_atom_site_type_symbol
_atom_site_fract_x
_atom_site_fract_y
_atom_site_fract_z
_atom_type_partial_charge
Co0 Co 0.29313 0.32367 0.02611 0.0
Co1 Co 0.22446 0.32871 0.01117 0.0
O2 O 0.26028 0.34664 0.02037 0.0
C3 C 0.31191 0.37156 0.92414 0.0
O4 O 0.28895 0.37225 0.88308 0.0
C5 C 0.2136 0.38177 0.1013 0.0
O6 O 0.23956 0.38829 0.10242 0.0
O7 O 0.23204 0.30937 0.11577 0.0
O8 O 0.27253 0.29311 0.07868 0.0
H9 H 0.16181 0.24769 0.02499 0.0
H10 H 0.29403 0.37909 0.09708 0.0
O11 O 0.31588 0.35339 0.97787 0.0
H12 H 0.31993 0.31785 0.32183 0.0
H13 H 0.39298 0.30412 0.07017 0.0
H14 H 0.3042 0.26573 0.98767 0.0
H15 H 0.31058 0.29952 0.18521 0.0
H16 H 0.35179 0.33279 0.06912 0.0
O17 O 0.20577 0.35896 0.07238 0.0
H18 H 0.20606 0.27154 0.03103 0.0
H19 H 0.1672 0.34686 0.9791 0.0
H20 H 0.34485 0.23629 0.9885 0.0
H21 H 0.3035 0.39839 0.2326 0.0
H22 H 0.38965 0.25545 0.02999 0.0
H23 H 0.31647 0.36767 0.34625 0.0
O24 O 0.28377 0.30889 0.91656 0.0
H25 H 0.2254 0.4091 0.81981 0.0
H26 H 0.20202 0.31194 0.85013 0.0
H27 H 0.19392 0.33477 0.71915 0.0
H28 H 0.20545 0.38379 0.70335 0.0
H29 H 0.23359 0.38542 0.94906 0.0
H30 H 0.12251 0.32385 0.97339 0.0
H31 H 0.11962 0.27389 0.996 0.0
O32 O 0.2407 0.29788 0.9471 0.0
C33 C 0.25215 0.29329 0.12662 0.0
C34 C 0.16281 0.26946 0.01484 0.0
C35 C 0.14075 0.31221 0.98601 0.0
N36 N 0.18928 0.31055 0.00505 0.0
C37 C 0.18782 0.28308 0.01803 0.0
C38 C 0.16612 0.32514 0.98964 0.0
C39 C 0.13914 0.28418 0.99865 0.0
C40 C 0.29964 0.36559 0.1462 0.0
N41 N 0.30141 0.33816 0.13333 0.0
C42 C 0.305 0.37664 0.22282 0.0
C43 C 0.31227 0.3594 0.28655 0.0
C44 C 0.31419 0.33145 0.27292 0.0
C45 C 0.3087 0.32115 0.19548 0.0
C46 C 0.37357 0.29553 0.05197 0.0
C47 C 0.32359 0.27424 0.00601 0.0
C48 C 0.35017 0.3117 0.05093 0.0
N49 N 0.32554 0.30097 0.02852 0.0
C50 C 0.34655 0.25745 0.00627 0.0
C51 C 0.37169 0.26822 0.02948 0.0
C52 C 0.26162 0.29609 0.9012 0.0
C53 C 0.22001 0.38781 0.82618 0.0
C54 C 0.20704 0.33329 0.84417 0.0
C55 C 0.20241 0.34611 0.76963 0.0
C56 C 0.20888 0.37359 0.7608 0.0
N57 N 0.21765 0.34743 0.90859 0.0
C58 C 0.22437 0.3743 0.89982 0.0
Co59 Co 0.93573 0.97403 0.25061 0.0
Co60 Co 0.93575 0.04335 0.25614 0.0
O61 O 0.91557 0.00866 0.25336 0.0
C62 C 0.88321 0.9622 0.34179 0.0
O63 O 0.87691 0.98813 0.34428 0.0
C64 C 0.88316 0.05501 0.16504 0.0
O65 O 0.87672 0.02908 0.16324 0.0
O66 O 0.95334 0.0331 0.15146 0.0
O67 O 0.96646 0.99126 0.18779 0.0
H68 H 0.02008 0.10077 0.22551 0.0
H69 H 0.87882 0.97595 0.18556 0.0
O70 O 0.90579 0.95446 0.31123 0.0
H71 H 0.93485 0.94027 0.96129 0.0
H72 H 0.94693 0.87227 0.22628 0.0
H73 H 0.99359 0.95957 0.27928 0.0
H74 H 0.95582 0.9517 0.09293 0.0
H75 H 0.92133 0.91544 0.22383 0.0
O76 O 0.90583 0.0628 0.19524 0.0
H77 H 0.99363 0.058 0.22782 0.0
H78 H 0.92136 0.1019 0.28258 0.0
H79 H 0.02001 0.91689 0.28162 0.0
H80 H 0.85697 0.96443 0.05551 0.0
H81 H 0.99666 0.87283 0.25498 0.0
H82 H 0.88502 0.9465 0.94188 0.0
O83 O 0.95329 0.98432 0.35533 0.0
H84 H 0.85698 0.05273 0.45104 0.0
H85 H 0.95584 0.06578 0.41381 0.0
H86 H 0.93488 0.07718 0.54536 0.0
H87 H 0.88504 0.0708 0.56467 0.0
H88 H 0.87882 0.04124 0.32109 0.0
H89 H 0.947 0.14516 0.28015 0.0
H90 H 0.99674 0.14477 0.25182 0.0
O91 O 0.96646 0.02624 0.31925 0.0
C92 C 0.96761 0.01172 0.13998 0.0
C93 C 0.99842 0.1012 0.23815 0.0
C94 C 0.9574 0.12612 0.2687 0.0
N95 N 0.95601 0.07739 0.25577 0.0
C96 C 0.98334 0.07704 0.23969 0.0
C97 C 0.94298 0.10155 0.26973 0.0
C98 C 0.98531 0.12588 0.25283 0.0
C99 C 0.8912 0.96796 0.13714 0.0
N100 N 0.91861 0.96447 0.14756 0.0
C101 C 0.87869 0.96155 0.06324 0.0
C102 C 0.89444 0.95153 0.99949 0.0
C103 C 0.92239 0.94805 0.01032 0.0
C104 C 0.93417 0.95467 0.08507 0.0
C105 C 0.95734 0.89135 0.23789 0.0
C106 C 0.9833 0.94051 0.26726 0.0
C107 C 0.94293 0.91586 0.23684 0.0
N108 N 0.95597 0.94006 0.25098 0.0
C109 C 0.99836 0.91639 0.26883 0.0
C110 C 0.98524 0.89167 0.25395 0.0
C111 C 0.9676 1.00573 0.36692 0.0
C112 C 0.87871 0.05569 0.44334 0.0
C113 C 0.93418 0.06275 0.42161 0.0
C114 C 0.92241 0.06935 0.49632 0.0
C115 C 0.89446 0.06578 0.5071 0.0
N116 N 0.91862 0.05288 0.3591 0.0
C117 C 0.89121 0.0493 0.36949 0.0
Co118 Co 0.22195 0.68928 0.49706 0.0
Co119 Co 0.29134 0.69015 0.49253 0.0
O120 O 0.25685 0.6696 0.49473 0.0
C121 C 0.21102 0.63663 0.4059 0.0
O122 O 0.23705 0.63064 0.40405 0.0
C123 C 0.30316 0.63809 0.58531 0.0
O124 O 0.2772 0.63172 0.58792 0.0
O125 O 0.28067 0.70758 0.59693 0.0
O126 O 0.23867 0.72017 0.56024 0.0
H127 H 0.3478 0.77504 0.52406 0.0
H128 H 0.22432 0.63237 0.562 0.0
O129 O 0.20291 0.65913 0.436 0.0
H130 H 0.18769 0.68791 0.78588 0.0
H131 H 0.11992 0.69905 0.51993 0.0
H132 H 0.20674 0.74691 0.46846 0.0
H133 H 0.19914 0.70903 0.65449 0.0
H134 H 0.16347 0.67407 0.52283 0.0
O135 O 0.31097 0.66053 0.55387 0.0
H136 H 0.30529 0.74814 0.52099 0.0
H137 H 0.35015 0.67642 0.46724 0.0
H138 H 0.16366 0.77272 0.46568 0.0
H139 H 0.21276 0.61037 0.69176 0.0
H140 H 0.11984 0.74877 0.49157 0.0
H141 H 0.19436 0.63817 0.80522 0.0
O142 O 0.23221 0.70705 0.39263 0.0
H143 H 0.30222 0.61135 0.29891 0.0
H144 H 0.31382 0.71036 0.33495 0.0
H145 H 0.32575 0.68939 0.20384 0.0
H146 H 0.32009 0.63948 0.18514 0.0
H147 H 0.29018 0.63321 0.42842 0.0
H148 H 0.39315 0.70252 0.47042 0.0
H149 H 0.39214 0.75222 0.49863 0.0
O150 O 0.27401 0.72062 0.429 0.0
C151 C 0.25904 0.72148 0.60837 0.0
C152 C 0.34849 0.75341 0.51146 0.0
C153 C 0.37395 0.7127 0.48148 0.0
N154 N 0.32518 0.71077 0.49345 0.0
C155 C 0.32448 0.73808 0.50948 0.0
C156 C 0.34953 0.69802 0.48 0.0
C157 C 0.37337 0.74059 0.49727 0.0
C158 C 0.21612 0.64465 0.61031 0.0
N159 N 0.2124 0.672 0.59992 0.0
C160 C 0.20969 0.63205 0.68406 0.0
C161 C 0.1994 0.64766 0.74772 0.0
C162 C 0.19568 0.67555 0.73693 0.0
C163 C 0.20232 0.68742 0.66232 0.0
C164 C 0.13889 0.70973 0.50865 0.0
C165 C 0.18778 0.73636 0.48013 0.0
C166 C 0.16362 0.69567 0.50996 0.0
N167 N 0.18768 0.70904 0.49624 0.0
C168 C 0.16344 0.75107 0.47833 0.0
C169 C 0.13886 0.73762 0.49277 0.0
C170 C 0.25348 0.72161 0.38133 0.0
C171 C 0.30484 0.63311 0.30633 0.0
C172 C 0.31108 0.68868 0.32736 0.0
C173 C 0.31799 0.67689 0.25293 0.0
C174 C 0.31483 0.6489 0.2425 0.0
N175 N 0.30129 0.67308 0.3899 0.0
C176 C 0.29813 0.64563 0.37989 0.0
Co177 Co 0.5758 0.04259 0.77113 0.0
Co178 Co 0.57554 0.97359 0.77902 0.0
O179 O 0.5957 0.00805 0.77571 0.0
C180 C 0.62855 0.05437 0.86108 0.0
O181 O 0.63507 0.02848 0.86243 0.0
C182 C 0.60801 0.94163 0.65906 0.0
O183 O 0.58659 0.94048 0.61126 0.0
O184 O 0.55863 0.9835 0.67252 0.0
O185 O 0.54541 0.02545 0.70718 0.0
H186 H 0.49258 0.91484 0.73981 0.0
H187 H 0.63247 0.03718 0.70575 0.0
O188 O 0.60563 0.06205 0.83256 0.0
H189 H 0.57869 0.07704 0.48253 0.0
H190 H 0.56542 0.14441 0.7452 0.0
H191 H 0.51785 0.05745 0.79606 0.0
H192 H 0.557 0.0662 0.61355 0.0
H193 H 0.59075 0.10108 0.74469 0.0
O194 O 0.6073 0.95554 0.7243 0.0
H195 H 0.51849 0.95793 0.74286 0.0
H196 H 0.58995 0.91549 0.81442 0.0
H197 H 0.4917 0.1003 0.79628 0.0
H198 H 0.65501 0.0481 0.57632 0.0
H199 H 0.5155 0.14419 0.7707 0.0
H200 H 0.62812 0.06819 0.46331 0.0
O201 O 0.55748 0.03246 0.87504 0.0
H202 H 0.65354 0.9645 0.97576 0.0
H203 H 0.55448 0.95284 0.93833 0.0
H204 H 0.57507 0.94258 0.07145 0.0
H205 H 0.62499 0.94832 0.09085 0.0
H206 H 0.63204 0.97486 0.84388 0.0
H207 H 0.56489 0.87192 0.81169 0.0
H208 H 0.5158 0.87141 0.77433 0.0
O209 O 0.544 0.99066 0.8383 0.0
C210 C 0.54453 1.00494 0.65964 0.0
C211 C 0.51396 0.91479 0.75621 0.0
C212 C 0.55454 0.8907 0.79649 0.0
N213 N 0.55573 0.93926 0.77871 0.0
C214 C 0.52874 0.93913 0.75807 0.0
C215 C 0.56866 0.91543 0.79772 0.0
C216 C 0.527 0.89043 0.77555 0.0
C217 C 0.62064 0.04637 0.65788 0.0
N218 N 0.59353 0.05168 0.6686 0.0
C219 C 0.63352 0.05232 0.58421 0.0
C220 C 0.61841 0.06353 0.52077 0.0
C221 C 0.5907 0.06851 0.53153 0.0
C222 C 0.57853 0.06234 0.60606 0.0
C223 C 0.55481 0.12542 0.75634 0.0
C224 C 0.52834 0.07644 0.78451 0.0
C225 C 0.56907 0.10081 0.75645 0.0
N226 N 0.55577 0.0767 0.76993 0.0
C227 C 0.51343 0.10065 0.78487 0.0
C228 C 0.5268 0.12528 0.77061 0.0
C229 C 0.54277 0.01122 0.88575 0.0
C230 C 0.63176 0.962 0.96818 0.0
C231 C 0.57614 0.95578 0.94646 0.0
C232 C 0.58772 0.94974 0.02192 0.0
C233 C 0.61573 0.95293 0.03273 0.0
N234 N 0.59196 0.96483 0.88348 0.0
C235 C 0.61945 0.96786 0.8936 0.0
Co236 Co 0.72144 0.68743 0.99401 0.0
Co237 Co 0.79085 0.68783 0.99869 0.0
O238 O 0.75622 0.6675 0.99595 0.0
C239 C 0.7102 0.63471 0.08503 0.0
O240 O 0.73621 0.62862 0.08695 0.0
C241 C 0.80264 0.63545 0.90707 0.0
O242 O 0.7767 0.62898 0.90511 0.0
O243 O 0.78032 0.7056 0.89444 0.0
O244 O 0.73834 0.71836 0.93092 0.0
H245 H 0.84788 0.77243 0.9688 0.0
H246 H 0.72356 0.63067 0.92846 0.0
O247 O 0.7022 0.65725 0.05478 0.0
H248 H 0.68693 0.68671 0.70537 0.0
H249 H 0.61946 0.69797 0.97201 0.0
H250 H 0.70667 0.74509 0.02346 0.0
H251 H 0.69858 0.70757 0.83694 0.0
H252 H 0.66282 0.67268 0.96832 0.0
O253 O 0.81039 0.65811 0.93726 0.0
H254 H 0.8052 0.74579 0.97102 0.0
H255 H 0.84955 0.6737 0.02444 0.0
H256 H 0.66379 0.7712 0.02703 0.0
H257 H 0.71182 0.60892 0.79846 0.0
H258 H 0.61977 0.74762 1.00118 0.0
H259 H 0.69341 0.63698 0.68543 0.0
O260 O 0.73186 0.70489 0.09883 0.0
H261 H 0.80095 0.60882 0.19248 0.0
H262 H 0.81342 0.70773 0.15641 0.0
H263 H 0.82512 0.68662 0.28758 0.0
H264 H 0.81903 0.63676 0.30631 0.0
H265 H 0.78915 0.6308 0.06294 0.0
H266 H 0.89271 0.69952 0.02208 0.0
H267 H 0.89205 0.74928 0.99448 0.0
O268 O 0.77367 0.71831 0.06235 0.0
C269 C 0.75885 0.71981 0.88327 0.0
C270 C 0.84843 0.75077 0.98111 0.0
C271 C 0.87359 0.70985 0.01089 0.0
N272 N 0.82482 0.70825 0.99828 0.0
C273 C 0.82431 0.73558 0.9826 0.0
C274 C 0.84908 0.69531 0.01188 0.0
C275 C 0.8732 0.73776 0.99544 0.0
C276 C 0.71536 0.64305 0.88029 0.0
N277 N 0.71173 0.6704 0.89101 0.0
C278 C 0.70883 0.6306 0.80643 0.0
C279 C 0.69854 0.64635 0.74301 0.0
C280 C 0.69492 0.67424 0.75414 0.0
C281 C 0.70167 0.68596 0.82884 0.0
C282 C 0.63851 0.70848 0.98327 0.0
C283 C 0.68762 0.7347 0.01176 0.0
C284 C 0.66314 0.69425 0.98152 0.0
N285 N 0.68731 0.70742 0.99524 0.0
C286 C 0.66339 0.74959 0.01403 0.0
C287 C 0.6387 0.73634 0.9996 0.0
C288 C 0.75327 0.71921 0.11046 0.0
C289 C 0.80378 0.63056 0.18504 0.0
C290 C 0.81051 0.68606 0.16396 0.0
C291 C 0.81728 0.6742 0.23845 0.0
C292 C 0.81388 0.64624 0.2489 0.0
N293 N 0.80062 0.67057 0.10134 0.0
C294 C 0.79721 0.64315 0.11141 0.0
Co295 Co 0.07451 0.04298 0.7565 0.0
Co296 Co 0.07414 0.97368 0.7509 0.0
O297 O 0.09447 0.00826 0.75394 0.0
C298 C 0.12722 0.0543 0.66589 0.0
O299 O 0.13302 0.02827 0.66226 0.0
C300 C 0.12623 0.96212 0.84396 0.0
O301 O 0.13208 0.98814 0.84843 0.0
O302 O 0.05649 0.984 0.85536 0.0
O303 O 0.04359 0.02592 0.81897 0.0
H304 H 0.98956 0.91659 0.78061 0.0
H305 H 0.13138 0.04097 0.82204 0.0
O306 O 0.10472 0.06231 0.69642 0.0
H307 H 0.07516 0.07663 0.04593 0.0
H308 H 0.06397 0.1448 0.78083 0.0
H309 H 0.0168 0.05782 0.72711 0.0
H310 H 0.05431 0.06528 0.91409 0.0
H311 H 0.08927 0.10146 0.78358 0.0
O312 O 0.10394 0.95414 0.81186 0.0
H313 H 0.01618 0.95926 0.7787 0.0
H314 H 0.08832 0.91509 0.72434 0.0
H315 H 0.99067 0.10068 0.72447 0.0
H316 H 0.15312 0.05245 0.95227 0.0
H317 H 0.01428 0.14458 0.75147 0.0
H318 H 0.12498 0.07036 0.06573 0.0
O319 O 0.05701 0.03279 0.65152 0.0
H320 H 0.15327 0.96363 0.55776 0.0
H321 H 0.05419 0.95153 0.59264 0.0
H322 H 0.07537 0.94003 0.46148 0.0
H323 H 0.12532 0.94594 0.44335 0.0
H324 H 0.1312 0.97526 0.68732 0.0
H325 H 0.06251 0.87194 0.72636 0.0
H326 H 0.01274 0.87252 0.75429 0.0
O327 O 0.04359 0.99095 0.68758 0.0
C328 C 0.04231 1.00545 0.86676 0.0
C329 C 0.01123 0.91608 0.76815 0.0
C330 C 0.05217 0.89102 0.73782 0.0
N331 N 0.05374 0.93972 0.75097 0.0
C332 C 0.0264 0.94019 0.76683 0.0
C333 C 0.06669 0.91553 0.73701 0.0
C334 C 0.02425 0.89135 0.75346 0.0
C335 C 0.11895 0.04896 0.87038 0.0
N336 N 0.09155 0.05244 0.85977 0.0
C337 C 0.1314 0.05534 0.94438 0.0
C338 C 0.1156 0.06535 0.00804 0.0
C339 C 0.08767 0.06885 0.997 0.0
C340 C 0.07595 0.06226 0.92214 0.0
C341 C 0.05345 0.1258 0.76906 0.0
C342 C 0.0272 0.07682 0.73927 0.0
C343 C 0.06768 0.10118 0.77026 0.0
N344 N 0.0545 0.07708 0.75589 0.0
C345 C 0.0123 0.10104 0.73754 0.0
C346 C 0.02556 0.12566 0.75262 0.0
C347 C 0.04259 0.01145 0.63987 0.0
C348 C 0.13149 0.96091 0.56491 0.0
C349 C 0.07589 0.9544 0.5853 0.0
C350 C 0.0878 0.94772 0.51083 0.0
C351 C 0.11581 0.95102 0.50073 0.0
N352 N 0.09139 0.96409 0.64818 0.0
C353 C 0.11886 0.96738 0.6385 0.0
Co354 Co 0.7904 0.32897 0.50362 0.0
Co355 Co 0.72097 0.32875 0.50845 0.0
O356 O 0.75566 0.34898 0.50576 0.0
C357 C 0.80192 0.38162 0.59442 0.0
O358 O 0.77597 0.38799 0.59588 0.0
C359 C 0.70941 0.38089 0.41505 0.0
O360 O 0.73537 0.38728 0.41327 0.0
O361 O 0.73143 0.31093 0.40433 0.0
O362 O 0.7734 0.29813 0.44075 0.0
H363 H 0.66376 0.24428 0.47908 0.0
H364 H 0.78842 0.38581 0.43815 0.0
O365 O 0.80975 0.359 0.56441 0.0
H366 H 0.82459 0.32976 0.21472 0.0
H367 H 0.89234 0.31828 0.48077 0.0
H368 H 0.80512 0.27124 0.5328 0.0
H369 H 0.81301 0.30887 0.34634 0.0
H370 H 0.84901 0.34364 0.47755 0.0
O371 O 0.70153 0.35844 0.4464 0.0
H372 H 0.7065 0.27081 0.48134 0.0
H373 H 0.6623 0.34306 0.53366 0.0
H374 H 0.84797 0.24507 0.5359 0.0
H375 H 0.8001 0.40758 0.30813 0.0
H376 H 0.89199 0.26861 0.50975 0.0
H377 H 0.81828 0.37952 0.19491 0.0
O378 O 0.78006 0.31142 0.60834 0.0
H379 H 0.71094 0.40803 0.70078 0.0
H380 H 0.6984 0.30907 0.66646 0.0
H381 H 0.68671 0.3304 0.79723 0.0
H382 H 0.69283 0.38029 0.81507 0.0
H383 H 0.72273 0.38582 0.57163 0.0
H384 H 0.61907 0.31733 0.53127 0.0
H385 H 0.61963 0.26755 0.50419 0.0
O386 O 0.73807 0.29826 0.57265 0.0
C387 C 0.75292 0.2968 0.39298 0.0
C388 C 0.66325 0.26595 0.49118 0.0
C389 C 0.63817 0.30695 0.52035 0.0
N390 N 0.68695 0.30842 0.5081 0.0
C391 C 0.6874 0.28107 0.4927 0.0
C392 C 0.66272 0.32143 0.52138 0.0
C393 C 0.6385 0.27902 0.50519 0.0
C394 C 0.79652 0.37342 0.38993 0.0
N395 N 0.80006 0.34605 0.40058 0.0
C396 C 0.80302 0.38589 0.31604 0.0
C397 C 0.81318 0.37014 0.25251 0.0
C398 C 0.8167 0.34223 0.26357 0.0
C399 C 0.80999 0.33049 0.33831 0.0
C400 C 0.87328 0.30779 0.49216 0.0
C401 C 0.82417 0.28162 0.52098 0.0
C402 C 0.84867 0.32206 0.49067 0.0
N403 N 0.8245 0.30891 0.50456 0.0
C404 C 0.84838 0.2667 0.52298 0.0
C405 C 0.87307 0.27992 0.50838 0.0
C406 C 0.75866 0.29709 0.62008 0.0
C407 C 0.7081 0.38629 0.69373 0.0
C408 C 0.70133 0.33075 0.67364 0.0
C409 C 0.69456 0.34274 0.7479 0.0
C410 C 0.69798 0.37072 0.75785 0.0
N411 N 0.71122 0.34614 0.61079 0.0
C412 C 0.71466 0.37357 0.62035 0.0
Co413 Co 0.43719 0.97394 0.2787 0.0
Co414 Co 0.43695 0.04295 0.2716 0.0
O415 O 0.41708 0.00833 0.27617 0.0
C416 C 0.40422 0.94251 0.15832 0.0
O417 O 0.4254 0.94164 0.10958 0.0
C418 C 0.3846 0.05415 0.36391 0.0
O419 O 0.37849 0.02814 0.36627 0.0
O420 O 0.45556 0.03272 0.375 0.0
O421 O 0.46888 0.99098 0.3376 0.0
H422 H 0.52109 0.10101 0.29557 0.0
H423 H 0.3808 0.9748 0.34451 0.0
O424 O 0.40529 0.95599 0.22429 0.0
H425 H 0.43829 0.94243 0.57062 0.0
H426 H 0.44759 0.87222 0.30917 0.0
H427 H 0.49416 0.95844 0.24168 0.0
H428 H 0.45858 0.95302 0.43732 0.0
H429 H 0.42266 0.91576 0.31299 0.0
O430 O 0.40723 0.06217 0.33395 0.0
H431 H 0.49495 0.05804 0.2955 0.0
H432 H 0.4219 0.10139 0.24613 0.0
H433 H 0.51994 0.91539 0.23754 0.0
H434 H 0.35959 0.9641 0.47657 0.0
H435 H 0.49663 0.87186 0.27139 0.0
H436 H 0.38841 0.94788 0.59095 0.0
O437 O 0.4539 0.98403 0.17217 0.0
H438 H 0.35709 0.04852 0.07925 0.0
H439 H 0.45528 0.06672 0.11366 0.0
H440 H 0.43315 0.0776 0.98332 0.0
H441 H 0.38363 0.06869 0.96553 0.0
H442 H 0.38007 0.03757 0.20801 0.0
H443 H 0.44721 0.14485 0.2465 0.0
H444 H 0.4972 0.14483 0.27092 0.0
O445 O 0.46718 0.02604 0.20662 0.0
C446 C 0.47021 0.01147 0.38533 0.0
C447 C 0.49932 0.10128 0.28464 0.0
C448 C 0.45785 0.12588 0.25723 0.0
N449 N 0.45695 0.07715 0.27038 0.0
C450 C 0.48442 0.077 0.28437 0.0
C451 C 0.44361 0.10121 0.25742 0.0
C452 C 0.4859 0.12586 0.27089 0.0
C453 C 0.39351 0.96779 0.39391 0.0
N454 N 0.42099 0.96495 0.38331 0.0
C455 C 0.38137 0.96174 0.4686 0.0
C456 C 0.39754 0.95265 0.53274 0.0
C457 C 0.42553 0.94962 0.52142 0.0
C458 C 0.43694 0.95585 0.44587 0.0
C459 C 0.45798 0.89105 0.29426 0.0
C460 C 0.48388 0.9396 0.25662 0.0
C461 C 0.44394 0.91576 0.29611 0.0
N462 N 0.45692 0.93965 0.27751 0.0
C463 C 0.49858 0.91528 0.25414 0.0
C464 C 0.48549 0.89086 0.27309 0.0
C465 C 0.46804 1.00549 0.15922 0.0
C466 C 0.37862 0.05275 0.08652 0.0
C467 C 0.43371 0.06282 0.10676 0.0
C468 C 0.42129 0.06903 0.03263 0.0
C469 C 0.39353 0.06401 0.02267 0.0
N470 N 0.41891 0.0521 0.16967 0.0
C471 C 0.39175 0.04678 0.15977 0.0
Co472 Co 0.79074 0.82674 0.49927 0.0
Co473 Co 0.72166 0.82614 0.49139 0.0
O474 O 0.75606 0.8464 0.49473 0.0
C475 C 0.80189 0.87916 0.40712 0.0
O476 O 0.77584 0.88504 0.4045 0.0
C477 C 0.68985 0.85879 0.61165 0.0
O478 O 0.68882 0.83757 0.66018 0.0
O479 O 0.7316 0.8092 0.59784 0.0
O480 O 0.77377 0.79632 0.56384 0.0
H481 H 0.66303 0.74309 0.53002 0.0
H482 H 0.78532 0.88346 0.5632 0.0
O483 O 0.80999 0.85664 0.43735 0.0
H484 H 0.82512 0.83031 0.78786 0.0
H485 H 0.89272 0.81702 0.52479 0.0
H486 H 0.80594 0.76891 0.47494 0.0
H487 H 0.81434 0.80831 0.65727 0.0
H488 H 0.84919 0.84207 0.52522 0.0
O489 O 0.70354 0.85785 0.54603 0.0
H490 H 0.70611 0.76906 0.52715 0.0
H491 H 0.66349 0.84047 0.45642 0.0
H492 H 0.84898 0.74303 0.47479 0.0
H493 H 0.79617 0.90632 0.69222 0.0
H494 H 0.89279 0.76711 0.49986 0.0
H495 H 0.81622 0.87974 0.80592 0.0
O496 O 0.78067 0.80827 0.3955 0.0
H497 H 0.71199 0.90407 0.2947 0.0
H498 H 0.70112 0.805 0.33203 0.0
H499 H 0.69074 0.8255 0.1989 0.0
H500 H 0.69609 0.87543 0.17954 0.0
H501 H 0.72249 0.88265 0.42657 0.0
H502 H 0.61993 0.81534 0.45897 0.0
H503 H 0.61952 0.76625 0.49581 0.0
O504 O 0.73886 0.79468 0.43219 0.0
C505 C 0.75308 0.79515 0.61079 0.0
C506 C 0.66294 0.76447 0.51384 0.0
C507 C 0.63875 0.80502 0.47404 0.0
N508 N 0.68735 0.80627 0.4917 0.0
C509 C 0.68728 0.77928 0.51208 0.0
C510 C 0.66348 0.81917 0.47291 0.0
C511 C 0.63853 0.77748 0.49468 0.0
C512 C 0.79447 0.87177 0.61146 0.0
N513 N 0.79978 0.84465 0.60144 0.0
C514 C 0.80039 0.88482 0.68485 0.0
C515 C 0.81158 0.86989 0.74868 0.0
C516 C 0.81659 0.84218 0.73857 0.0
C517 C 0.81044 0.82983 0.66431 0.0
C518 C 0.87376 0.8063 0.51388 0.0
C519 C 0.82489 0.77952 0.48628 0.0
C520 C 0.84905 0.82039 0.51374 0.0
N521 N 0.82499 0.80694 0.50053 0.0
C522 C 0.84921 0.76476 0.48595 0.0
C523 C 0.87378 0.77829 0.49993 0.0
C524 C 0.75944 0.79355 0.38467 0.0
C525 C 0.70968 0.88228 0.30226 0.0
C526 C 0.7039 0.82666 0.32391 0.0
C527 C 0.69779 0.83819 0.24845 0.0
C528 C 0.70076 0.8662 0.23767 0.0
N529 N 0.71283 0.84252 0.38692 0.0
C530 C 0.71561 0.87002 0.37684 0.0
Co531 Co 0.43423 0.47589 0.74076 0.0
Co532 Co 0.43745 0.54497 0.74726 0.0
O533 O 0.41604 0.51128 0.74502 0.0
C534 C 0.40257 0.44472 0.86346 0.0
O535 O 0.42565 0.44021 0.90175 0.0
C536 C 0.38617 0.55735 0.65195 0.0
O537 O 0.38089 0.53133 0.64356 0.0
O538 O 0.45487 0.53391 0.6429 0.0
O539 O 0.46587 0.49115 0.67721 0.0
H540 H 0.5237 0.59948 0.71711 0.0
H541 H 0.37677 0.4787 0.68349 0.0
O542 O 0.40229 0.46 0.80094 0.0
H543 H 0.42923 0.44467 0.44906 0.0
H544 H 0.43872 0.3738 0.70795 0.0
H545 H 0.49074 0.45729 0.77054 0.0
H546 H 0.45215 0.45467 0.57887 0.0
H547 H 0.41602 0.41858 0.7086 0.0
O548 O 0.40807 0.56525 0.68654 0.0
H549 H 0.49582 0.55762 0.71949 0.0
H550 H 0.425 0.604 0.77269 0.0
H551 H 0.51425 0.41293 0.77046 0.0
H552 H 0.35294 0.46845 0.55516 0.0
H553 H 0.4882 0.37077 0.73898 0.0
H554 H 0.37922 0.45144 0.43656 0.0
O555 O 0.45313 0.48512 0.8449 0.0
H556 H 0.35873 0.55501 0.94125 0.0
H557 H 0.45771 0.56763 0.90471 0.0
H558 H 0.4366 0.57952 0.03579 0.0
H559 H 0.38671 0.57338 0.05464 0.0
H560 H 0.38071 0.54304 0.81163 0.0
H561 H 0.45207 0.64637 0.77013 0.0
H562 H 0.50182 0.64427 0.74258 0.0
O563 O 0.46743 0.52687 0.81069 0.0
C564 C 0.4682 0.51193 0.63079 0.0
C565 C 0.50205 0.60066 0.72941 0.0
C566 C 0.46185 0.62698 0.75904 0.0
N567 N 0.45884 0.57831 0.7467 0.0
C568 C 0.48617 0.57701 0.73101 0.0
C569 C 0.44661 0.60291 0.76014 0.0
C570 C 0.48976 0.62578 0.74362 0.0
C571 C 0.38837 0.47119 0.6324 0.0
N572 N 0.41591 0.46763 0.63871 0.0
C573 C 0.37475 0.46547 0.55976 0.0
C574 C 0.3895 0.45596 0.49323 0.0
C575 C 0.41756 0.4522 0.50015 0.0
C576 C 0.43048 0.45812 0.57375 0.0
C577 C 0.4503 0.39202 0.7217 0.0
C578 C 0.47926 0.43905 0.75672 0.0
C579 C 0.43756 0.41744 0.72218 0.0
N580 N 0.45205 0.44056 0.73949 0.0
C581 C 0.49269 0.41398 0.75678 0.0
C582 C 0.47806 0.39034 0.73912 0.0
C583 C 0.46815 0.50603 0.85712 0.0
C584 C 0.38046 0.55795 0.93361 0.0
C585 C 0.436 0.56486 0.91227 0.0
C586 C 0.42415 0.57166 0.98672 0.0
C587 C 0.39617 0.56821 0.99725 0.0
N588 N 0.42044 0.55502 0.84976 0.0
C589 C 0.39302 0.55135 0.86003 0.0
Co590 Co 0.72173 0.19018 0.00959 0.0
Co591 Co 0.79111 0.19003 0.00401 0.0
O592 O 0.75635 0.17001 0.00722 0.0
C593 C 0.71018 0.13768 0.91864 0.0
O594 O 0.73624 0.132 0.91407 0.0
C595 C 0.80223 0.13797 0.09785 0.0
O596 O 0.77613 0.13233 0.10206 0.0
O597 O 0.78088 0.20794 0.10825 0.0
O598 O 0.739 0.22102 0.07175 0.0
H599 H 0.8489 0.27415 0.03242 0.0
H600 H 0.72327 0.13339 0.07524 0.0
O601 O 0.70219 0.16007 0.94979 0.0
H602 H 0.6881 0.1899 0.29911 0.0
H603 H 0.6199 0.20141 0.03394 0.0
H604 H 0.70725 0.24792 0.97974 0.0
H605 H 0.69958 0.21061 0.16714 0.0
H606 H 0.66311 0.17584 0.03681 0.0
O607 O 0.81042 0.16017 0.06559 0.0
H608 H 0.80599 0.24788 0.03084 0.0
H609 H 0.84965 0.17536 0.97796 0.0
H610 H 0.66453 0.2743 0.97695 0.0
H611 H 0.71166 0.1118 0.20563 0.0
H612 H 0.62044 0.25103 0.0042 0.0
H613 H 0.69401 0.14009 0.31906 0.0
O614 O 0.73203 0.20752 0.90451 0.0
H615 H 0.8008 0.11057 0.81218 0.0
H616 H 0.81341 0.20957 0.84546 0.0
H617 H 0.82487 0.18811 0.71469 0.0
H618 H 0.8187 0.1382 0.69737 0.0
H619 H 0.78922 0.13291 0.94133 0.0
H620 H 0.89304 0.20081 0.97968 0.0
H621 H 0.89284 0.25059 0.0067 0.0
O622 O 0.77408 0.22061 0.93998 0.0
C623 C 0.75949 0.22223 0.11953 0.0
C624 C 0.84925 0.25248 0.02036 0.0
C625 C 0.87402 0.21131 0.99088 0.0
N626 N 0.82526 0.21015 0.00388 0.0
C627 C 0.825 0.2375 0.01923 0.0
C628 C 0.84938 0.19699 0.99024 0.0
C629 C 0.87389 0.23924 0.006 0.0
C630 C 0.71541 0.14588 0.12361 0.0
N631 N 0.71215 0.17328 0.11295 0.0
C632 C 0.70895 0.13352 0.19768 0.0
C633 C 0.69908 0.1494 0.26133 0.0
C634 C 0.69579 0.17733 0.2502 0.0
C635 C 0.70245 0.18897 0.17528 0.0
C636 C 0.63898 0.21178 0.02206 0.0
C637 C 0.68817 0.23766 0.99201 0.0
C638 C 0.66352 0.19739 0.02334 0.0
N639 N 0.68773 0.2104 0.00885 0.0
C640 C 0.66404 0.2527 0.99019 0.0
C641 C 0.6393 0.23963 0.00541 0.0
C642 C 0.75347 0.22178 0.89258 0.0
C643 C 0.80364 0.13233 0.81899 0.0
C644 C 0.81044 0.18789 0.83848 0.0
C645 C 0.81708 0.17583 0.76423 0.0
C646 C 0.81364 0.14784 0.75457 0.0
N647 N 0.80063 0.17256 0.90159 0.0
C648 C 0.7972 0.14511 0.89235 0.0
Co649 Co 0.07662 0.54254 0.25 0.0
Co650 Co 0.07699 0.47322 0.25545 0.0
O651 O 0.09692 0.50803 0.25284 0.0
C652 C 0.12893 0.55426 0.34222 0.0
O653 O 0.13492 0.52828 0.34604 0.0
C654 C 0.12973 0.4623 0.16433 0.0
O655 O 0.13536 0.48839 0.16079 0.0
O656 O 0.05929 0.48343 0.15064 0.0
O657 O 0.04597 0.52521 0.18693 0.0
H658 H 0.99309 0.41521 0.22456 0.0
H659 H 0.13363 0.54122 0.18576 0.0
O660 O 0.10652 0.56212 0.31077 0.0
H661 H 0.07752 0.57638 0.96065 0.0
H662 H 0.0651 0.64426 0.2259 0.0
H663 H 0.0187 0.55677 0.27837 0.0
H664 H 0.0565 0.56472 0.09204 0.0
H665 H 0.09084 0.60118 0.22343 0.0
O666 O 0.10725 0.45406 0.19484 0.0
H667 H 0.01923 0.45817 0.22698 0.0
H668 H 0.09181 0.41476 0.28179 0.0
H669 H 0.99215 0.59937 0.28073 0.0
H670 H 0.15553 0.553 0.05598 0.0
H671 H 0.01536 0.64353 0.25435 0.0
H672 H 0.12744 0.57066 0.94192 0.0
O673 O 0.05905 0.53211 0.35459 0.0
H674 H 0.15582 0.46394 0.45041 0.0
H675 H 0.05699 0.45067 0.4131 0.0
H676 H 0.07799 0.43927 0.54467 0.0
H677 H 0.12782 0.44576 0.56402 0.0
H678 H 0.13394 0.47545 0.32045 0.0
H679 H 0.06649 0.37132 0.27923 0.0
H680 H 0.01674 0.37137 0.25082 0.0
O681 O 0.04612 0.4901 0.31869 0.0
C682 C 0.04487 0.50474 0.13918 0.0
C683 C 0.01475 0.41493 0.23721 0.0
C684 C 0.05595 0.39029 0.26777 0.0
N685 N 0.05699 0.43903 0.25491 0.0
C686 C 0.02965 0.4392 0.23881 0.0
C687 C 0.0702 0.41496 0.26887 0.0
C688 C 0.02804 0.39034 0.25187 0.0
C689 C 0.12122 0.54907 0.13711 0.0
N690 N 0.09376 0.55225 0.14712 0.0
C691 C 0.13376 0.55564 0.06339 0.0
C692 C 0.11799 0.56551 0.9994 0.0
C693 C 0.09 0.5687 0.00984 0.0
C694 C 0.07819 0.56193 0.08444 0.0
C695 C 0.05475 0.62515 0.23738 0.0
C696 C 0.02894 0.57588 0.26647 0.0
C697 C 0.06923 0.60068 0.23632 0.0
N698 N 0.05627 0.57643 0.25034 0.0
C699 C 0.0138 0.59995 0.26804 0.0
C700 C 0.02684 0.62472 0.25332 0.0
C701 C 0.04484 0.51064 0.36625 0.0
C702 C 0.1341 0.46095 0.44271 0.0
C703 C 0.07863 0.45378 0.42094 0.0
C704 C 0.09044 0.44717 0.49565 0.0
C705 C 0.11838 0.45079 0.50645 0.0
N706 N 0.09417 0.46373 0.35847 0.0
C707 C 0.12157 0.46735 0.36885 0.0
Co708 Co 0.22169 0.18869 0.51624 0.0
Co709 Co 0.29103 0.18863 0.51777 0.0
O710 O 0.25632 0.16849 0.51767 0.0
C711 C 0.21034 0.13607 0.60726 0.0
O712 O 0.23629 0.12969 0.60831 0.0
C713 C 0.30209 0.13577 0.42802 0.0
O714 O 0.27611 0.12942 0.4273 0.0
O715 O 0.27993 0.20569 0.41313 0.0
O716 O 0.23854 0.21933 0.45226 0.0
H717 H 0.34811 0.2728 0.47962 0.0
H718 H 0.22325 0.13177 0.45113 0.0
O719 O 0.20248 0.15881 0.57805 0.0
H720 H 0.18616 0.18779 0.2287 0.0
H721 H 0.11972 0.19988 0.49689 0.0
H722 H 0.2074 0.24655 0.54503 0.0
H723 H 0.19839 0.20874 0.35967 0.0
H724 H 0.16291 0.1743 0.49255 0.0
O725 O 0.31009 0.15851 0.457 0.0
H726 H 0.30538 0.24633 0.48603 0.0
H727 H 0.34985 0.17447 0.54129 0.0
H728 H 0.1647 0.27295 0.54921 0.0
H729 H 0.21094 0.10997 0.32176 0.0
H730 H 0.12045 0.2496 0.52502 0.0
H731 H 0.1923 0.13801 0.20903 0.0
O732 O 0.23272 0.20639 0.62005 0.0
H733 H 0.30167 0.11069 0.71497 0.0
H734 H 0.31485 0.20925 0.67311 0.0
H735 H 0.32719 0.18878 0.80468 0.0
H736 H 0.32075 0.13909 0.8263 0.0
H737 H 0.28925 0.13205 0.58499 0.0
H738 H 0.39307 0.20013 0.53481 0.0
H739 H 0.39237 0.24968 0.50414 0.0
O740 O 0.27435 0.21954 0.58081 0.0
C741 C 0.25847 0.21994 0.40249 0.0
C742 C 0.34868 0.25123 0.49328 0.0
C743 C 0.37391 0.21044 0.52412 0.0
N744 N 0.32506 0.20892 0.51447 0.0
C745 C 0.32453 0.23614 0.49714 0.0
C746 C 0.34936 0.196 0.52746 0.0
C747 C 0.3735 0.23824 0.50695 0.0
C748 C 0.21493 0.14416 0.40318 0.0
N749 N 0.21147 0.17153 0.41379 0.0
C750 C 0.20808 0.13167 0.32963 0.0
C751 C 0.19766 0.14741 0.26638 0.0
C752 C 0.19423 0.17533 0.27736 0.0
C753 C 0.20129 0.18709 0.35176 0.0
C754 C 0.13888 0.21029 0.50745 0.0
C755 C 0.18825 0.23625 0.53409 0.0
C756 C 0.16341 0.1959 0.50534 0.0
N757 N 0.1877 0.20894 0.51814 0.0
C758 C 0.16412 0.2513 0.53669 0.0
C759 C 0.1393 0.23819 0.52319 0.0
C760 C 0.25419 0.22081 0.62975 0.0
C761 C 0.30464 0.13235 0.70627 0.0
C762 C 0.31176 0.18766 0.68197 0.0
C763 C 0.31891 0.17616 0.75666 0.0
C764 C 0.31531 0.1483 0.76873 0.0
N765 N 0.30133 0.17191 0.62075 0.0
C766 C 0.29772 0.14458 0.6324 0.0
Co767 Co 0.57546 0.54174 0.24664 0.0
Co768 Co 0.57506 0.47231 0.24258 0.0
O769 O 0.59534 0.50697 0.24493 0.0
C770 C 0.62803 0.5528 0.1546 0.0
O771 O 0.634 0.52679 0.15247 0.0
C772 C 0.62678 0.46131 0.33845 0.0
O773 O 0.6323 0.48741 0.34282 0.0
O774 O 0.55705 0.48289 0.34642 0.0
O775 O 0.54458 0.52494 0.31 0.0
H776 H 0.49056 0.4151 0.27185 0.0
H777 H 0.63245 0.54003 0.31122 0.0
O778 O 0.60558 0.56087 0.18536 0.0
H779 H 0.57663 0.57629 0.53512 0.0
H780 H 0.56507 0.64364 0.26832 0.0
H781 H 0.51772 0.55657 0.21757 0.0
H782 H 0.55554 0.5645 0.40395 0.0
H783 H 0.59034 0.60029 0.27181 0.0
O784 O 0.60479 0.45304 0.30506 0.0
H785 H 0.51707 0.45784 0.26927 0.0
H786 H 0.58948 0.41368 0.21827 0.0
H787 H 0.49164 0.59945 0.21419 0.0
H788 H 0.65444 0.55197 0.44073 0.0
H789 H 0.51533 0.6434 0.23972 0.0
H790 H 0.62649 0.57017 0.5542 0.0
O791 O 0.5578 0.53127 0.14221 0.0
H792 H 0.65485 0.46166 0.05232 0.0
H793 H 0.55562 0.44977 0.08425 0.0
H794 H 0.57728 0.43786 0.95408 0.0
H795 H 0.6273 0.44367 0.93746 0.0
H796 H 0.63231 0.47367 0.18089 0.0
H797 H 0.56379 0.37046 0.221 0.0
H798 H 0.51394 0.371 0.24759 0.0
O799 O 0.54459 0.48929 0.17769 0.0
C800 C 0.54302 0.50445 0.35764 0.0
C801 C 0.51226 0.4146 0.25997 0.0
C802 C 0.55337 0.38955 0.23155 0.0
N803 N 0.55476 0.43831 0.24316 0.0
C804 C 0.52737 0.43875 0.25827 0.0
C805 C 0.56782 0.4141 0.23032 0.0
C806 C 0.52539 0.38986 0.24644 0.0
C807 C 0.62011 0.54815 0.35956 0.0
N808 N 0.59268 0.55153 0.34936 0.0
C809 C 0.6327 0.55479 0.43315 0.0
C810 C 0.61701 0.56496 0.49682 0.0
C811 C 0.58905 0.56837 0.48618 0.0
C812 C 0.57719 0.56152 0.41173 0.0
C813 C 0.55451 0.62462 0.25721 0.0
C814 C 0.52817 0.57559 0.22909 0.0
C815 C 0.56873 0.6 0.25884 0.0
N816 N 0.55549 0.57587 0.24532 0.0
C817 C 0.51329 0.59982 0.22694 0.0
C818 C 0.5266 0.62447 0.24119 0.0
C819 C 0.54345 0.5099 0.13034 0.0
C820 C 0.63304 0.45898 0.05883 0.0
C821 C 0.57735 0.45258 0.07754 0.0
C822 C 0.58953 0.44568 0.00365 0.0
C823 C 0.61758 0.44892 0.99439 0.0
N824 N 0.59264 0.46243 0.14068 0.0
C825 C 0.62015 0.46567 0.13184 0.0
Co826 Co 0.28944 0.82822 0.98963 0.0
Co827 Co 0.22037 0.82798 0.99781 0.0
O828 O 0.25489 0.8481 0.99345 0.0
C829 C 0.32134 0.8606 0.10998 0.0
O830 O 0.32258 0.83908 0.15732 0.0
C831 C 0.20869 0.88041 0.9067 0.0
O832 O 0.23466 0.88673 0.90439 0.0
O833 O 0.2305 0.80984 0.89372 0.0
O834 O 0.2724 0.7967 0.9303 0.0
H835 H 0.16282 0.74358 0.97225 0.0
H836 H 0.28816 0.88481 0.92566 0.0
O837 O 0.30742 0.85996 0.04473 0.0
H838 H 0.3201 0.82839 0.69694 0.0
H839 H 0.39119 0.81841 0.9559 0.0
H840 H 0.30537 0.77127 0.02489 0.0
H841 H 0.30997 0.80756 0.82981 0.0
H842 H 0.34749 0.84313 0.954 0.0
O843 O 0.20084 0.8577 0.93643 0.0
H844 H 0.20564 0.77 0.97265 0.0
H845 H 0.16181 0.84253 0.02419 0.0
H846 H 0.34859 0.74571 0.02711 0.0
H847 H 0.29841 0.90657 0.79406 0.0
H848 H 0.39192 0.76931 0.9925 0.0
H849 H 0.31441 0.87829 0.67838 0.0
O850 O 0.2797 0.81107 0.0958 0.0
H851 H 0.21446 0.90711 0.1922 0.0
H852 H 0.19702 0.80896 0.15556 0.0
H853 H 0.18616 0.83057 0.28659 0.0
H854 H 0.1947 0.88006 0.30551 0.0
H855 H 0.22539 0.88464 0.06273 0.0
H856 H 0.1185 0.81693 0.02352 0.0
H857 H 0.11883 0.76707 0.99783 0.0
O858 O 0.23763 0.79767 0.06178 0.0
C859 C 0.25185 0.79539 0.88276 0.0
C860 C 0.16241 0.76529 0.98374 0.0
C861 C 0.13754 0.80646 0.01239 0.0
N862 N 0.18629 0.80775 0.99889 0.0
C863 C 0.18661 0.78035 0.98421 0.0
C864 C 0.16213 0.82087 0.01238 0.0
C865 C 0.13774 0.77849 0.99801 0.0
C866 C 0.29509 0.87234 0.87569 0.0
N867 N 0.29806 0.84486 0.88534 0.0
C868 C 0.30088 0.88479 0.80127 0.0
C869 C 0.30984 0.86892 0.73639 0.0
C870 C 0.313 0.84093 0.74673 0.0
C871 C 0.30703 0.8292 0.82204 0.0
C872 C 0.37245 0.8079 0.97114 0.0
C873 C 0.32412 0.78168 0.00966 0.0
C874 C 0.34764 0.82182 0.97038 0.0
N875 N 0.32387 0.80869 0.98942 0.0
C876 C 0.34854 0.7671 0.01104 0.0
C877 C 0.37284 0.78035 0.99165 0.0
C878 C 0.25834 0.79675 0.10869 0.0
C879 C 0.2104 0.88558 0.18446 0.0
C880 C 0.20075 0.83051 0.16297 0.0
C881 C 0.19457 0.84264 0.23748 0.0
C882 C 0.19937 0.87039 0.24807 0.0
N883 N 0.21126 0.84559 0.10031 0.0
C884 C 0.21637 0.87274 0.11081 0.0
Co885 Co 0.93746 0.4735 0.75519 0.0
Co886 Co 0.93793 0.54286 0.75018 0.0
O887 O 0.9176 0.50828 0.75265 0.0
C888 C 0.88509 0.46258 0.66228 0.0
O889 O 0.87952 0.48866 0.65852 0.0
C890 C 0.88568 0.55427 0.84293 0.0
O891 O 0.8799 0.52822 0.8471 0.0
O892 O 0.95558 0.53236 0.8547 0.0
O893 O 0.96832 0.49037 0.81863 0.0
H894 H 0.02249 0.59991 0.78107 0.0
H895 H 0.88043 0.47536 0.81901 0.0
O896 O 0.90733 0.45436 0.69406 0.0
H897 H 0.93599 0.43952 0.04437 0.0
H898 H 0.94766 0.37162 0.77867 0.0
H899 H 0.99521 0.45855 0.727 0.0
H900 H 0.95724 0.45105 0.91321 0.0
H901 H 0.92247 0.41503 0.7812 0.0
O902 O 0.90803 0.56233 0.81125 0.0
H903 H 0.99588 0.55724 0.7784 0.0
H904 H 0.92375 0.6015 0.72432 0.0
H905 H 0.02122 0.41562 0.72457 0.0
H906 H 0.8583 0.46371 0.94856 0.0
H907 H 0.99743 0.37174 0.75055 0.0
H908 H 0.88612 0.44571 0.06273 0.0
O909 O 0.95524 0.48379 0.65071 0.0
H910 H 0.85887 0.55341 0.55678 0.0
H911 H 0.95796 0.56523 0.59228 0.0
H912 H 0.93684 0.57702 0.46117 0.0
H913 H 0.88689 0.57125 0.44273 0.0
H914 H 0.88087 0.5415 0.68627 0.0
H915 H 0.94955 0.64465 0.7271 0.0
H916 H 0.99931 0.64403 0.75528 0.0
O917 O 0.96853 0.52569 0.68664 0.0
C918 C 0.96971 0.51087 0.86623 0.0
C919 C 1.00083 0.60044 0.7685 0.0
C920 C 0.95989 0.62556 0.73833 0.0
N921 N 0.95832 0.57682 0.75079 0.0
C922 C 0.98566 0.57633 0.76676 0.0
C923 C 0.94537 0.60105 0.7371 0.0
C924 C 0.98781 0.62519 0.75411 0.0
C925 C 0.89271 0.46735 0.8677 0.0
N926 N 0.92015 0.46391 0.8579 0.0
C927 C 0.88005 0.46086 0.9413 0.0
C928 C 0.89566 0.4508 0.00536 0.0
C929 C 0.92363 0.44735 0.99511 0.0
C930 C 0.93557 0.45404 0.92065 0.0
C931 C 0.95827 0.39061 0.76736 0.0
C932 C 0.98472 0.43956 0.73872 0.0
C933 C 0.94409 0.41526 0.76846 0.0
N934 N 0.95738 0.43935 0.75467 0.0
C935 C 0.99955 0.41531 0.73711 0.0
C936 C 0.98619 0.39069 0.75161 0.0
C937 C 0.96964 0.50514 0.63911 0.0
C938 C 0.88065 0.55607 0.56407 0.0
C939 C 0.93626 0.56242 0.5848 0.0
C940 C 0.92439 0.56926 0.51036 0.0
C941 C 0.89637 0.56605 0.50008 0.0
N942 N 0.92072 0.55264 0.64749 0.0
C943 C 0.89324 0.54944 0.63764 0.0
C944 C 0.27367 0.25439 0.20134 0.0
C945 C 0.25248 0.27368 0.19543 0.0
H946 H 0.29244 0.22278 0.27112 0.0
C947 C 0.23303 0.27487 0.25789 0.0
H948 H 0.28899 0.25269 0.15423 0.0
C949 C 0.23504 0.2575 0.32525 0.0
C950 C 0.2566 0.23862 0.33172 0.0
H951 H 0.21653 0.28948 0.25547 0.0
H952 H 0.21978 0.25906 0.37258 0.0
C953 C 0.27578 0.23723 0.26872 0.0
C954 C 0.98803 0.98593 0.49415 0.0
C955 C 0.98703 0.00693 0.43623 0.0
H956 H 1.00591 0.97102 0.60387 0.0
C957 C 1.00438 0.02963 0.44627 0.0
H958 H 0.97495 0.96822 0.48866 0.0
C959 C 0.02219 0.03131 0.51259 0.0
C960 C 0.02318 0.01031 0.5705 0.0
H961 H 1.00427 0.04622 0.40285 0.0
H962 H 0.03528 0.04902 0.5181 0.0
C963 C 1.00582 0.98762 0.56046 0.0
C964 C 0.27794 0.7412 0.73765 0.0
C965 C 0.2574 0.74055 0.67826 0.0
H966 H 0.29212 0.75853 0.849 0.0
C967 C 0.23467 0.75782 0.68748 0.0
H968 H 0.29563 0.72812 0.73287 0.0
C969 C 0.23257 0.7753 0.75432 0.0
C970 C 0.25317 0.77601 0.81355 0.0
H971 H 0.21839 0.75793 0.64294 0.0
H972 H 0.21491 0.78842 0.75907 0.0
C973 C 0.27583 0.75864 0.80451 0.0
C974 C 0.48809 0.98569 0.03134 0.0
C975 C 0.48711 0.00673 0.08905 0.0
H976 H 0.50599 0.97076 0.92162 0.0
C977 C 0.50425 0.02955 0.07833 0.0
H978 H 0.47514 0.9679 0.03731 0.0
C979 C 0.52199 0.03124 0.01196 0.0
C980 C 0.52311 0.01015 0.95449 0.0
H981 H 0.50411 0.04622 0.12143 0.0
H982 H 0.53499 0.04901 0.0062 0.0
C983 C 0.50581 0.98741 0.9648 0.0
C984 C 0.27872 0.77624 0.2352 0.0
C985 C 0.25742 0.77742 0.17827 0.0
H986 H 0.29406 0.75811 0.34413 0.0
C987 C 0.23463 0.76024 0.18928 0.0
H988 H 0.29651 0.78919 0.22894 0.0
C989 C 0.23317 0.74237 0.25539 0.0
C990 C 0.25448 0.74114 0.31226 0.0
H991 H 0.21778 0.76051 0.14672 0.0
H992 H 0.21538 0.72942 0.26155 0.0
C993 C 0.27724 0.75838 0.30144 0.0
C994 C 0.50717 0.98754 0.46377 0.0
C995 C 0.4898 0.0102 0.45422 0.0
H996 H 0.53779 0.96789 0.53595 0.0
C997 C 0.4907 0.03097 0.51276 0.0
H998 H 0.50715 0.97114 0.41975 0.0
C999 C 0.50829 0.02903 0.57941 0.0
C1000 C 0.52552 0.0063 0.58935 0.0
H1001 H 0.47763 0.04865 0.50765 0.0
H1002 H 0.50826 0.04547 0.62333 0.0
C1003 C 0.52475 0.98558 0.5306 0.0
C1004 C 0.23466 0.24247 0.75516 0.0
C1005 C 0.25585 0.2405 0.6982 0.0
H1006 H 0.21991 0.26125 0.86343 0.0
C1007 C 0.27909 0.25716 0.70836 0.0
H1008 H 0.21648 0.23004 0.74944 0.0
C1009 C 0.2812 0.27506 0.77433 0.0
C1010 C 0.26003 0.27692 0.83144 0.0
H1011 H 0.29581 0.25637 0.66543 0.0
H1012 H 0.29935 0.28751 0.78029 0.0
C1013 C 0.23671 0.26043 0.82079 0.0
C1014 C 1.00565 0.02947 0.94575 0.0
C1015 C 0.02293 0.00677 0.93609 0.0
H1016 H 0.9749 0.049 0.01739 0.0
C1017 C 0.02196 0.98592 0.99451 0.0
H1018 H 1.00576 0.04595 0.90193 0.0
C1019 C 1.00426 0.98776 0.06093 0.0
C1020 C 0.98697 0.01045 0.07059 0.0
H1021 H 0.035 0.96822 0.98934 0.0
H1022 H 1.00417 0.97128 0.10474 0.0
C1023 C 0.98794 0.0313 0.01218 0.0
C1024 C 0.7789 0.74112 0.75758 0.0
C1025 C 0.75759 0.73943 0.81434 0.0
H1026 H 0.7941 0.75962 0.64915 0.0
C1027 C 0.7346 0.75629 0.80346 0.0
H1028 H 0.79687 0.72848 0.76374 0.0
C1029 C 0.73291 0.7742 0.73731 0.0
C1030 C 0.75422 0.77582 0.68047 0.0
H1031 H 0.71777 0.75567 0.84603 0.0
H1032 H 0.71496 0.78683 0.73099 0.0
C1033 C 0.77723 0.75902 0.69159 0.0
C1034 C 0.73354 0.27654 0.26488 0.0
C1035 C 0.75433 0.27747 0.32355 0.0
H1036 H 0.71903 0.25885 0.15437 0.0
C1037 C 0.77706 0.26022 0.31401 0.0
H1038 H 0.71583 0.28957 0.26992 0.0
C1039 C 0.77897 0.24255 0.2475 0.0
C1040 C 0.75818 0.24162 0.18886 0.0
H1041 H 0.7935 0.26029 0.358 0.0
H1042 H 0.79668 0.22951 0.24245 0.0
C1043 C 0.73547 0.2589 0.19836 0.0
C1044 C 0.73326 0.24255 0.76627 0.0
C1045 C 0.75455 0.24124 0.82326 0.0
H1046 H 0.71795 0.2608 0.65748 0.0
C1047 C 0.77737 0.25838 0.81242 0.0
H1048 H 0.71543 0.22965 0.77238 0.0
C1049 C 0.77889 0.27628 0.74631 0.0
C1050 C 0.7576 0.2776 0.68933 0.0
H1051 H 0.7942 0.25804 0.85509 0.0
H1052 H 0.79672 0.28918 0.7402 0.0
C1053 C 0.73478 0.26045 0.70014 0.0
C1054 C 0.73394 0.73886 0.23941 0.0
C1055 C 0.75462 0.73835 0.1804 0.0
H1056 H 0.71941 0.7562 0.35033 0.0
C1057 C 0.7772 0.7559 0.18998 0.0
H1058 H 0.71635 0.72558 0.23436 0.0
C1059 C 0.77903 0.77349 0.25669 0.0
C1060 C 0.75831 0.77406 0.31554 0.0
H1061 H 0.79356 0.75615 0.14578 0.0
H1062 H 0.7966 0.7868 0.26165 0.0
C1063 C 0.73579 0.75642 0.30617 0.0
C1064 C 0.52297 0.53031 0.00405 0.0
C1065 C 0.52404 0.50895 0.06076 0.0
H1066 H 0.505 0.54601 0.89551 0.0
C1067 C 0.50671 0.48629 0.04931 0.0
H1068 H 0.53601 0.54802 0.01052 0.0
C1069 C 0.48881 0.48507 0.98296 0.0
C1070 C 0.48772 0.50649 0.92637 0.0
H1071 H 0.5069 0.4694 0.09172 0.0
H1072 H 0.47572 0.46741 0.9764 0.0
C1073 C 0.50513 0.52908 0.93777 0.0
C1074 C 0.0242 0.5306 0.49298 0.0
C1075 C 0.02538 0.50945 0.43559 0.0
H1076 H 1.00613 0.54571 0.60217 0.0
C1077 C 0.00816 0.48668 0.44619 0.0
H1078 H 0.03717 0.54838 0.4871 0.0
C1079 C 0.99031 0.48508 0.51244 0.0
C1080 C 0.98912 0.50624 0.5698 0.0
H1081 H 0.00842 0.46996 0.40323 0.0
H1082 H 0.97733 0.4673 0.51834 0.0
C1083 C 0.00636 0.52899 0.55923 0.0
C1084 C 0.0242 0.48499 0.01185 0.0
C1085 C 0.02538 0.50594 0.06987 0.0
H1086 H 1.00611 0.47022 0.90208 0.0
C1087 C 0.00813 0.52866 0.05995 0.0
H1088 H 0.03718 0.46725 0.01725 0.0
C1089 C 0.99033 0.53046 0.99366 0.0
C1090 C 0.98916 0.50953 0.93559 0.0
H1091 H 0.00834 0.54522 0.10343 0.0
H1092 H 0.97736 0.54822 0.9883 0.0
C1093 C 0.00636 0.48678 0.94556 0.0
C1094 C 0.50406 0.48697 0.55081 0.0
C1095 C 0.48756 0.51019 0.56136 0.0
H1096 H 0.53428 0.4668 0.47864 0.0
C1097 C 0.48929 0.53125 0.50375 0.0
H1098 H 0.50333 0.47028 0.59389 0.0
C1099 C 0.50697 0.52914 0.43733 0.0
C1100 C 0.52357 0.50597 0.4269 0.0
H1101 H 0.47684 0.54936 0.50953 0.0
H1102 H 0.50761 0.5458 0.39418 0.0
C1103 C 0.52182 0.48488 0.48446 0.0
C1104 C 0.14467 0.41405 0.14162 0.0
C1105 C 0.1512 0.44192 0.1457 0.0
H1106 H 0.15914 0.37333 0.12547 0.0
C1107 C 0.17868 0.44981 0.1376 0.0
H1108 H 0.12377 0.4072 0.14802 0.0
C1109 C 0.19912 0.43026 0.12589 0.0
C1110 C 0.19251 0.40241 0.12116 0.0
H1111 H 0.18449 0.47107 0.14135 0.0
H1112 H 0.22003 0.43704 0.11913 0.0
C1113 C 0.16502 0.39458 0.12912 0.0
C1114 C 0.85022 0.89352 0.38157 0.0
C1115 C 0.82246 0.90036 0.38742 0.0
H1116 H 0.89109 0.90761 0.36348 0.0
C1117 C 0.81491 0.9279 0.38027 0.0
H1118 H 0.85679 0.87255 0.38719 0.0
C1119 C 0.83469 0.94813 0.368 0.0
C1120 C 0.86243 0.94123 0.36167 0.0
H1121 H 0.79375 0.93392 0.38537 0.0
H1122 H 0.82817 0.96911 0.36218 0.0
C1123 C 0.86993 0.91367 0.36842 0.0
C1124 C 0.35153 0.62522 0.61525 0.0
C1125 C 0.32408 0.61746 0.60597 0.0
H1126 H 0.39261 0.61239 0.63649 0.0
C1127 C 0.31729 0.58966 0.61036 0.0
H1128 H 0.35748 0.64646 0.61182 0.0
C1129 C 0.33755 0.57003 0.62292 0.0
C1130 C 0.36498 0.57783 0.63251 0.0
H1131 H 0.29639 0.58297 0.60256 0.0
H1132 H 0.33165 0.54879 0.62631 0.0
C1133 C 0.3717 0.60567 0.62894 0.0
C1134 C 0.69709 0.08884 0.89398 0.0
C1135 C 0.68954 0.11637 0.90092 0.0
H1136 H 0.68375 0.04757 0.87794 0.0
C1137 C 0.66172 0.12315 0.89704 0.0
H1138 H 0.71831 0.08288 0.89766 0.0
C1139 C 0.64194 0.10294 0.88602 0.0
C1140 C 0.64944 0.07539 0.87936 0.0
H1141 H 0.65516 0.14413 0.90257 0.0
H1142 H 0.62074 0.10897 0.88251 0.0
C1143 C 0.67724 0.06856 0.88376 0.0
C1144 C 0.14277 0.60273 0.36653 0.0
C1145 C 0.14995 0.57506 0.36153 0.0
H1146 H 0.15636 0.64377 0.38345 0.0
C1147 C 0.17758 0.56784 0.36903 0.0
H1148 H 0.12171 0.60903 0.36064 0.0
C1149 C 0.19758 0.58788 0.38083 0.0
C1150 C 0.19034 0.61554 0.38629 0.0
H1151 H 0.18384 0.54675 0.36455 0.0
H1152 H 0.21865 0.58164 0.38699 0.0
C1153 C 0.16269 0.62269 0.37916 0.0
C1154 C 0.63881 0.91474 0.5679 0.0
C1155 C 0.63103 0.92264 0.64641 0.0
H1156 H 0.66438 0.88912 0.49551 0.0
C1157 C 0.64414 0.91068 0.71376 0.0
H1158 H 0.62909 0.92365 0.51505 0.0
C1159 C 0.66359 0.89016 0.7028 0.0
C1160 C 0.67108 0.88198 0.62428 0.0
H1161 H 0.63857 0.91634 0.77516 0.0
H1162 H 0.67259 0.88054 0.75566 0.0
C1163 C 0.65902 0.89499 0.55692 0.0
C1164 C 0.35498 0.42834 0.83165 0.0
C1165 C 0.37799 0.42827 0.8832 0.0
H1166 H 0.31604 0.41047 0.80354 0.0
C1167 C 0.37819 0.41055 0.95009 0.0
H1168 H 0.35414 0.4417 0.77931 0.0
C1169 C 0.35646 0.39271 0.96366 0.0
C1170 C 0.3339 0.39195 0.91058 0.0
H1171 H 0.39544 0.40998 0.99121 0.0
H1172 H 0.35763 0.3792 0.0156 0.0
C1173 C 0.33315 0.41037 0.84523 0.0
C1174 C 0.81498 0.08929 0.12623 0.0
C1175 C 0.8227 0.11678 0.11795 0.0
H1176 H 0.82803 0.04813 0.14566 0.0
C1177 C 0.85051 0.12358 0.12315 0.0
H1178 H 0.79377 0.0833 0.12162 0.0
C1179 C 0.87012 0.10345 0.13683 0.0
C1180 C 0.86246 0.07594 0.14471 0.0
H1181 H 0.8572 0.14452 0.11666 0.0
H1182 H 0.89133 0.10949 0.14129 0.0
C1183 C 0.83467 0.06908 0.13898 0.0
C1184 C 0.81671 0.58694 0.88188 0.0
C1185 C 0.82362 0.61471 0.88738 0.0
H1186 H 0.83088 0.54602 0.86548 0.0
C1187 C 0.85119 0.62228 0.88007 0.0
H1188 H 0.79572 0.58036 0.88815 0.0
C1189 C 0.87133 0.60262 0.86716 0.0
C1190 C 0.86448 0.57483 0.8622 0.0
H1191 H 0.85728 0.64346 0.88441 0.0
H1192 H 0.89232 0.60923 0.86109 0.0
C1193 C 0.83693 0.56721 0.86991 0.0
C1194 C 0.16182 0.12253 0.6327 0.0
C1195 C 0.18941 0.11512 0.62593 0.0
H1196 H 0.12065 0.10924 0.64946 0.0
C1197 C 0.19633 0.08736 0.63043 0.0
H1198 H 0.15572 0.1437 0.62912 0.0
C1199 C 0.17609 0.06748 0.64089 0.0
C1200 C 0.14851 0.07495 0.64792 0.0
H1201 H 0.21735 0.08092 0.62449 0.0
H1202 H 0.18211 0.0463 0.64466 0.0
C1203 C 0.14166 0.10273 0.6439 0.0
C1204 C 0.66107 0.39371 0.38342 0.0
C1205 C 0.68854 0.40142 0.39252 0.0
H1206 H 0.62011 0.40647 0.35976 0.0
C1207 C 0.69544 0.42915 0.38545 0.0
H1208 H 0.655 0.37254 0.38884 0.0
C1209 C 0.6753 0.44872 0.37024 0.0
C1210 C 0.64786 0.44095 0.36068 0.0
H1211 H 0.71635 0.43583 0.39297 0.0
H1212 H 0.68133 0.46988 0.36475 0.0
C1213 C 0.64102 0.41319 0.36716 0.0
C1214 C 0.37269 0.91645 0.06693 0.0
C1215 C 0.38098 0.92376 0.14552 0.0
H1216 H 0.34641 0.89152 0.99428 0.0
C1217 C 0.36805 0.91151 0.21278 0.0
H1218 H 0.38225 0.92562 0.01417 0.0
C1219 C 0.34829 0.89126 0.20156 0.0
C1220 C 0.3403 0.88365 0.12295 0.0
H1221 H 0.37401 0.91674 0.27424 0.0
H1222 H 0.33945 0.88138 0.25428 0.0
C1223 C 0.35216 0.89697 0.05576 0.0
C1224 C 0.81606 0.4301 0.62086 0.0
C1225 C 0.82288 0.40235 0.61498 0.0
H1226 H 0.83038 0.47098 0.6385 0.0
C1227 C 0.85039 0.39475 0.62292 0.0
H1228 H 0.79511 0.43669 0.61415 0.0
C1229 C 0.87057 0.41436 0.63672 0.0
C1230 C 0.86382 0.44214 0.64208 0.0
H1231 H 0.8564 0.37358 0.61839 0.0
H1232 H 0.89151 0.40771 0.6432 0.0
C1233 C 0.83633 0.4498 0.63379 0.0
C1234 C 0.31583 0.08717 0.40294 0.0
C1235 C 0.32291 0.11489 0.40834 0.0
H1236 H 0.32976 0.04618 0.3866 0.0
C1237 C 0.35052 0.12231 0.401 0.0
H1238 H 0.2948 0.08071 0.40922 0.0
C1239 C 0.37054 0.10254 0.3883 0.0
C1240 C 0.36352 0.07479 0.38336 0.0
H1241 H 0.35673 0.14345 0.40519 0.0
H1242 H 0.39156 0.10905 0.38227 0.0
C1243 C 0.33593 0.06733 0.39101 0.0
C1244 C 0.67665 0.56619 0.12631 0.0
C1245 C 0.64904 0.57347 0.13376 0.0
H1246 H 0.71771 0.57981 0.10694 0.0
C1247 C 0.6419 0.60112 0.12698 0.0
H1248 H 0.6829 0.54512 0.13209 0.0
C1249 C 0.66182 0.62097 0.11271 0.0
C1250 C 0.68945 0.61375 0.1057 0.0
H1251 H 0.62085 0.60749 0.13276 0.0
H1252 H 0.6555 0.64203 0.10715 0.0
C1253 C 0.69666 0.58613 0.11289 0.0
C1254 C 0.19498 0.92901 0.88193 0.0
C1255 C 0.18785 0.90129 0.88748 0.0
H1256 H 0.18109 0.97004 0.8658 0.0
C1257 C 0.16022 0.89392 0.88071 0.0
H1258 H 0.21604 0.93542 0.88779 0.0
C1259 C 0.14022 0.91374 0.86825 0.0
C1260 C 0.1473 0.94147 0.86317 0.0
H1261 H 0.15398 0.87278 0.8851 0.0
H1262 H 0.11917 0.90728 0.86256 0.0
C1263 C 0.1749 0.94889 0.87038 0.0
loop_
_geom_bond_atom_site_label_1
_geom_bond_atom_site_label_2
_geom_bond_distance
_geom_bond_site_symmetry_2
_ccdc_geom_bond_type
Co0 O2 2.143 . S
Co0 O8 2.074 . S
Co0 O11 2.093 1_554 S
Co0 O24 2.097 1_554 S
Co0 N41 2.151 . S
Co0 N49 2.214 . S
Co1 O2 2.160 1_556 S
Co1 O7 2.058 1_556 S
Co1 O17 2.057 1_556 S
Co1 O32 2.037 . S
Co1 N36 2.145 . S
Co1 N57 2.257 . S
O2 Co0 2.143 . S
O2 Co1 2.160 1_554 S
C3 O4 1.278 . S
C3 O11 1.224 . S
O4 C3 1.278 . S
C5 O6 1.245 . S
C5 O17 1.232 . S
O6 C5 1.245 . S
O7 Co1 2.058 1_554 S
O7 C33 1.269 . S
O8 Co0 2.074 . S
O8 C33 1.257 . S
H9 C34 0.930 . S
H10 C40 0.930 . S
O11 Co0 2.093 1_556 S
O11 C3 1.224 . S
H12 C44 0.929 . S
H13 C46 0.930 . S
H14 C47 0.930 . S
H15 C45 0.929 . S
H16 C48 0.928 . S
O17 Co1 2.057 1_554 S
O17 C5 1.232 . S
H18 C37 0.929 . S
H19 C38 0.929 1_554 S
H20 C50 0.931 . S
H21 C42 0.929 . S
H22 C51 0.930 . S
H23 C43 0.931 . S
O24 Co0 2.097 1_556 S
O24 C52 1.214 . S
H25 C53 0.929 . S
H26 C54 0.929 . S
H27 C55 0.930 . S
H28 C56 0.929 . S
H29 C58 0.930 . S
H30 C35 0.930 . S
H31 C39 0.930 . S
O32 Co1 2.037 . S
O32 C52 1.234 . S
C33 O7 1.269 . S
C33 O8 1.257 . S
C34 H9 0.930 . S
C34 C37 1.388 . S
C34 C39 1.418 . S
C35 H30 0.930 . S
C35 C38 1.404 . S
C35 C39 1.353 . S
N36 Co1 2.145 . S
N36 C37 1.397 . S
N36 C38 1.334 . S
C37 H18 0.929 . S
C37 C34 1.388 . S
C37 N36 1.397 . S
C38 H19 0.929 1_556 S
C38 C35 1.404 . S
C38 N36 1.334 . S
C39 H31 0.930 . S
C39 C34 1.418 . S
C39 C35 1.353 . S
C40 H10 0.930 . S
C40 N41 1.330 . S
C40 C42 1.446 . S
N41 Co0 2.151 . S
N41 C40 1.330 . S
N41 C45 1.418 . S
C42 H21 0.929 . S
C42 C40 1.446 . S
C42 C43 1.332 . S
C43 H23 0.931 . S
C43 C42 1.332 . S
C43 C44 1.267 . S
C44 H12 0.929 . S
C44 C43 1.267 . S
C44 C45 1.251 . S
C45 H15 0.929 . S
C45 N41 1.418 . S
C45 C44 1.251 . S
C46 H13 0.930 . S
C46 C48 1.406 . S
C46 C51 1.261 . S
C47 H14 0.930 . S
C47 N49 1.325 1_556 S
C47 C50 1.357 . S
C48 H16 0.928 . S
C48 C46 1.406 . S
C48 N49 1.261 . S
N49 Co0 2.214 . S
N49 C47 1.325 1_554 S
N49 C48 1.261 . S
C50 H20 0.931 . S
C50 C47 1.357 . S
C50 C51 1.312 1_556 S
C51 H22 0.930 . S
C51 C46 1.261 . S
C51 C50 1.312 1_554 S
C52 O24 1.214 . S
C52 O32 1.234 . S
C53 H25 0.929 . S
C53 C56 1.391 . S
C53 C58 1.391 . S
C54 H26 0.929 . S
C54 C55 1.390 . S
C54 N57 1.391 . S
C55 H27 0.930 . S
C55 C54 1.390 . S
C55 C56 1.392 . S
C56 H28 0.929 . S
C56 C53 1.391 . S
C56 C55 1.392 . S
N57 Co1 2.257 . S
N57 C54 1.391 . S
N57 C58 1.388 . S
C58 H29 0.930 . S
C58 C53 1.391 . S
C58 N57 1.388 . S
Co59 O61 2.139 . S
Co59 O67 2.074 . S
Co59 O70 2.093 . S
Co59 O83 2.097 . S
Co59 N100 2.151 . S
Co59 N108 2.214 . S
Co60 O61 2.164 1_545 S
Co60 O66 2.058 . S
Co60 O76 2.057 . S
Co60 O91 2.037 . S
Co60 N95 2.145 . S
Co60 N116 2.257 . S
O61 Co59 2.139 . S
O61 Co60 2.164 1_565 S
C62 O63 1.278 . S
C62 O70 1.224 . S
O63 C62 1.278 . S
C64 O65 1.245 . S
C64 O76 1.232 . S
O65 C64 1.245 . S
O66 Co60 2.058 . S
O66 C92 1.269 . S
O67 Co59 2.074 . S
O67 C92 1.257 1_565 S
H68 C93 0.930 1_455 S
H69 C99 0.930 . S
O70 Co59 2.093 . S
O70 C62 1.224 . S
H71 C103 0.929 1_556 S
H72 C105 0.930 . S
H73 C106 0.930 . S
H74 C104 0.929 . S
H75 C107 0.928 . S
O76 Co60 2.057 . S
O76 C64 1.232 . S
H77 C96 0.929 . S
H78 C97 0.929 . S
H79 C109 0.963 . S
H80 C101 0.929 . S
H81 C110 0.930 1_455 S
H82 C102 0.931 1_556 S
O83 Co59 2.097 . S
O83 C111 1.214 . S
H84 C112 0.929 . S
H85 C113 0.929 . S
H86 C114 0.930 . S
H87 C115 0.929 . S
H88 C117 0.930 . S
H89 C94 0.930 . S
H90 C98 0.930 . S
O91 Co60 2.037 . S
O91 C111 1.234 1_545 S
C92 O66 1.269 . S
C92 O67 1.257 1_545 S
C93 H68 0.930 1_655 S
C93 C96 1.388 . S
C93 C98 1.418 . S
C94 H89 0.930 . S
C94 C97 1.404 . S
C94 C98 1.353 . S
N95 Co60 2.145 . S
N95 C96 1.397 . S
N95 C97 1.334 . S
C96 H77 0.929 . S
C96 C93 1.388 . S
C96 N95 1.397 . S
C97 H78 0.929 . S
C97 C94 1.404 . S
C97 N95 1.334 . S
C98 H90 0.930 . S
C98 C93 1.418 . S
C98 C94 1.353 . S
C99 H69 0.930 . S
C99 N100 1.330 . S
C99 C101 1.446 . S
N100 Co59 2.151 . S
N100 C99 1.330 . S
N100 C104 1.418 . S
C101 H80 0.929 . S
C101 C99 1.446 . S
C101 C102 1.332 . S
C102 H82 0.931 1_554 S
C102 C101 1.332 . S
C102 C103 1.267 . S
C103 H71 0.929 1_554 S
C103 C102 1.267 . S
C103 C104 1.251 . S
C104 H74 0.929 . S
C104 N100 1.418 . S
C104 C103 1.251 . S
C105 H72 0.930 . S
C105 C107 1.406 . S
C105 C110 1.261 . S
C106 H73 0.930 . S
C106 N108 1.325 . S
C106 C109 1.333 1_655 S
C107 H75 0.928 . S
C107 C105 1.406 . S
C107 N108 1.261 . S
N108 Co59 2.214 . S
N108 C106 1.325 . S
N108 C107 1.261 . S
C109 H79 0.963 . S
C109 C106 1.333 1_455 S
C109 C110 1.302 1_455 S
C110 H81 0.930 1_655 S
C110 C105 1.261 . S
C110 C109 1.302 1_655 S
C111 O83 1.214 . S
C111 O91 1.234 1_565 S
C112 H84 0.929 . S
C112 C115 1.391 . S
C112 C117 1.391 . S
C113 H85 0.929 . S
C113 C114 1.390 . S
C113 N116 1.391 . S
C114 H86 0.930 . S
C114 C113 1.390 . S
C114 C115 1.392 . S
C115 H87 0.929 . S
C115 C112 1.391 . S
C115 C114 1.392 . S
N116 Co60 2.257 . S
N116 C113 1.391 . S
N116 C117 1.388 . S
C117 H88 0.930 . S
C117 C112 1.391 . S
C117 N116 1.388 . S
Co118 O120 2.143 . S
Co118 O126 2.074 . S
Co118 O129 2.093 . S
Co118 O142 2.097 . S
Co118 N159 2.151 . S
Co118 N167 2.214 . S
Co119 O120 2.160 . S
Co119 O125 2.058 . S
Co119 O135 2.057 . S
Co119 O150 2.037 . S
Co119 N154 2.145 . S
Co119 N175 2.257 . S
O120 Co118 2.143 . S
O120 Co119 2.160 . S
C121 O122 1.278 . S
C121 O129 1.224 . S
O122 C121 1.278 . S
C123 O124 1.245 . S
C123 O135 1.232 . S
O124 C123 1.245 . S
O125 Co119 2.058 . S
O125 C151 1.269 . S
O126 Co118 2.074 . S
O126 C151 1.257 . S
H127 C152 0.930 . S
H128 C158 0.930 . S
O129 Co118 2.093 . S
O129 C121 1.224 . S
H130 C162 0.929 . S
H131 C164 0.930 . S
H132 C165 0.930 . S
H133 C163 0.929 . S
H134 C166 0.928 . S
O135 Co119 2.057 . S
O135 C123 1.232 . S
H136 C155 0.929 . S
H137 C156 0.929 . S
H138 C168 0.931 . S
H139 C160 0.929 . S
H140 C169 0.930 . S
H141 C161 0.931 . S
O142 Co118 2.097 . S
O142 C170 1.214 . S
H143 C171 0.929 . S
H144 C172 0.929 . S
H145 C173 0.930 . S
H146 C174 0.929 . S
H147 C176 0.930 . S
H148 C153 0.930 . S
H149 C157 0.930 . S
O150 Co119 2.037 . S
O150 C170 1.234 . S
C151 O125 1.269 . S
C151 O126 1.257 . S
C152 H127 0.930 . S
C152 C155 1.388 . S
C152 C157 1.418 . S
C153 H148 0.930 . S
C153 C156 1.404 . S
C153 C157 1.353 . S
N154 Co119 2.145 . S
N154 C155 1.397 . S
N154 C156 1.334 . S
C155 H136 0.929 . S
C155 C152 1.388 . S
C155 N154 1.397 . S
C156 H137 0.929 . S
C156 C153 1.404 . S
C156 N154 1.334 . S
C157 H149 0.930 . S
C157 C152 1.418 . S
C157 C153 1.353 . S
C158 H128 0.930 . S
C158 N159 1.330 . S
C158 C160 1.446 . S
N159 Co118 2.151 . S
N159 C158 1.330 . S
N159 C163 1.418 . S
C160 H139 0.929 . S
C160 C158 1.446 . S
C160 C161 1.332 . S
C161 H141 0.931 . S
C161 C160 1.332 . S
C161 C162 1.267 . S
C162 H130 0.929 . S
C162 C161 1.267 . S
C162 C163 1.251 . S
C163 H133 0.929 . S
C163 N159 1.418 . S
C163 C162 1.251 . S
C164 H131 0.930 . S
C164 C166 1.406 . S
C164 C169 1.261 . S
C165 H132 0.930 . S
C165 N167 1.325 . S
C165 C168 1.357 . S
C166 H134 0.928 . S
C166 C164 1.406 . S
C166 N167 1.261 . S
N167 Co118 2.214 . S
N167 C165 1.325 . S
N167 C166 1.261 . S
C168 H138 0.931 . S
C168 C165 1.357 . S
C168 C169 1.312 . S
C169 H140 0.930 . S
C169 C164 1.261 . S
C169 C168 1.312 . S
C170 O142 1.214 . S
C170 O150 1.234 . S
C171 H143 0.929 . S
C171 C174 1.391 . S
C171 C176 1.391 . S
C172 H144 0.929 . S
C172 C173 1.390 . S
C172 N175 1.391 . S
C173 H145 0.930 . S
C173 C172 1.390 . S
C173 C174 1.392 . S
C174 H146 0.929 . S
C174 C171 1.391 . S
C174 C173 1.392 . S
N175 Co119 2.257 . S
N175 C172 1.391 . S
N175 C176 1.388 . S
C176 H147 0.930 . S
C176 C171 1.391 . S
C176 N175 1.388 . S
Co177 O179 2.143 . S
Co177 O185 2.074 . S
Co177 O188 2.093 . S
Co177 O201 2.097 . S
Co177 N218 2.151 . S
Co177 N226 2.214 . S
Co178 O179 2.160 1_565 S
Co178 O184 2.058 . S
Co178 O194 2.057 . S
Co178 O209 2.037 . S
Co178 N213 2.145 . S
Co178 N234 2.257 . S
O179 Co177 2.143 . S
O179 Co178 2.160 1_545 S
C180 O181 1.278 . S
C180 O188 1.224 . S
O181 C180 1.278 . S
C182 O183 1.245 . S
C182 O194 1.232 . S
O183 C182 1.245 . S
O184 Co178 2.058 . S
O184 C210 1.269 . S
O185 Co177 2.074 . S
O185 C210 1.257 1_545 S
H186 C211 0.930 . S
H187 C217 0.930 . S
O188 Co177 2.093 . S
O188 C180 1.224 . S
H189 C221 0.929 . S
H190 C223 0.930 . S
H191 C224 0.930 . S
H192 C222 0.929 . S
H193 C225 0.928 . S
O194 Co178 2.057 . S
O194 C182 1.232 . S
H195 C214 0.929 . S
H196 C215 0.929 . S
H197 C227 0.931 . S
H198 C219 0.929 . S
H199 C228 0.930 . S
H200 C220 0.931 . S
O201 Co177 2.097 . S
O201 C229 1.214 . S
H202 C230 0.929 . S
H203 C231 0.929 . S
H204 C232 0.930 . S
H205 C233 0.929 . S
H206 C235 0.930 . S
H207 C212 0.930 . S
H208 C216 0.930 . S
O209 Co178 2.037 . S
O209 C229 1.234 1_565 S
C210 O184 1.269 . S
C210 O185 1.257 1_565 S
C211 H186 0.930 . S
C211 C214 1.388 . S
C211 C216 1.418 . S
C212 H207 0.930 . S
C212 C215 1.404 . S
C212 C216 1.353 . S
N213 Co178 2.145 . S
N213 C214 1.397 . S
N213 C215 1.334 . S
C214 H195 0.929 . S
C214 C211 1.388 . S
C214 N213 1.397 . S
C215 H196 0.929 . S
C215 C212 1.404 . S
C215 N213 1.334 . S
C216 H208 0.930 . S
C216 C211 1.418 . S
C216 C212 1.353 . S
C217 H187 0.930 . S
C217 N218 1.330 . S
C217 C219 1.446 . S
N218 Co177 2.151 . S
N218 C217 1.330 . S
N218 C222 1.418 . S
C219 H198 0.929 . S
C219 C217 1.446 . S
C219 C220 1.332 . S
C220 H200 0.931 . S
C220 C219 1.332 . S
C220 C221 1.267 . S
C221 H189 0.929 . S
C221 C220 1.267 . S
C221 C222 1.251 . S
C222 H192 0.929 . S
C222 N218 1.418 . S
C222 C221 1.251 . S
C223 H190 0.930 . S
C223 C225 1.406 . S
C223 C228 1.261 . S
C224 H191 0.930 . S
C224 N226 1.325 . S
C224 C227 1.357 . S
C225 H193 0.928 . S
C225 C223 1.406 . S
C225 N226 1.261 . S
N226 Co177 2.214 . S
N226 C224 1.325 . S
N226 C225 1.261 . S
C227 H197 0.931 . S
C227 C224 1.357 . S
C227 C228 1.312 . S
C228 H199 0.930 . S
C228 C223 1.261 . S
C228 C227 1.312 . S
C229 O201 1.214 . S
C229 O209 1.234 1_545 S
C230 H202 0.929 . S
C230 C233 1.391 1_556 S
C230 C235 1.391 . S
C231 H203 0.929 . S
C231 C232 1.390 1_556 S
C231 N234 1.391 . S
C232 H204 0.930 . S
C232 C231 1.390 1_554 S
C232 C233 1.392 . S
C233 H205 0.929 . S
C233 C230 1.391 1_554 S
C233 C232 1.392 . S
N234 Co178 2.257 . S
N234 C231 1.391 . S
N234 C235 1.388 . S
C235 H206 0.930 . S
C235 C230 1.391 . S
C235 N234 1.388 . S
Co236 O238 2.143 . S
Co236 O244 2.074 . S
Co236 O247 2.093 1_556 S
Co236 O260 2.097 1_556 S
Co236 N277 2.151 . S
Co236 N285 2.214 . S
Co237 O238 2.160 1_554 S
Co237 O243 2.058 1_554 S
Co237 O253 2.057 1_554 S
Co237 O268 2.037 . S
Co237 N272 2.145 . S
Co237 N293 2.257 . S
O238 Co236 2.143 . S
O238 Co237 2.160 1_556 S
C239 O240 1.278 . S
C239 O247 1.224 . S
O240 C239 1.278 . S
C241 O242 1.245 . S
C241 O253 1.232 . S
O242 C241 1.245 . S
O243 Co237 2.058 1_556 S
O243 C269 1.269 . S
O244 Co236 2.074 . S
O244 C269 1.257 . S
H245 C270 0.930 . S
H246 C276 0.930 . S
O247 Co236 2.093 1_554 S
O247 C239 1.224 . S
H248 C280 0.929 . S
H249 C282 0.930 . S
H250 C283 0.930 . S
H251 C281 0.929 . S
H252 C284 0.928 . S
O253 Co237 2.057 1_556 S
O253 C241 1.232 . S
H254 C273 0.929 . S
H255 C274 0.928 1_556 S
H256 C286 0.931 . S
H257 C278 0.929 . S
H258 C287 0.930 . S
H259 C279 0.931 . S
O260 Co236 2.097 1_554 S
O260 C288 1.214 . S
H261 C289 0.929 . S
H262 C290 0.929 . S
H263 C291 0.930 . S
H264 C292 0.929 . S
H265 C294 0.930 . S
H266 C271 0.930 . S
H267 C275 0.930 . S
O268 Co237 2.037 . S
O268 C288 1.234 . S
C269 O243 1.269 . S
C269 O244 1.257 . S
C270 H245 0.930 . S
C270 C273 1.388 . S
C270 C275 1.418 . S
C271 H266 0.930 . S
C271 C274 1.404 . S
C271 C275 1.353 . S
N272 Co237 2.145 . S
N272 C273 1.397 . S
N272 C274 1.334 . S
C273 H254 0.929 . S
C273 C270 1.388 . S
C273 N272 1.397 . S
C274 H255 0.928 1_554 S
C274 C271 1.404 . S
C274 N272 1.334 . S
C275 H267 0.930 . S
C275 C270 1.418 . S
C275 C271 1.353 . S
C276 H246 0.930 . S
C276 N277 1.330 . S
C276 C278 1.446 . S
N277 Co236 2.151 . S
N277 C276 1.330 . S
N277 C281 1.418 . S
C278 H257 0.929 . S
C278 C276 1.446 . S
C278 C279 1.332 . S
C279 H259 0.931 . S
C279 C278 1.332 . S
C279 C280 1.267 . S
C280 H248 0.929 . S
C280 C279 1.267 . S
C280 C281 1.251 . S
C281 H251 0.929 . S
C281 N277 1.418 . S
C281 C280 1.251 . S
C282 H249 0.930 . S
C282 C284 1.406 . S
C282 C287 1.261 . S
C283 H250 0.930 . S
C283 N285 1.325 1_554 S
C283 C286 1.357 . S
C284 H252 0.928 . S
C284 C282 1.406 . S
C284 N285 1.261 . S
N285 Co236 2.214 . S
N285 C283 1.325 1_556 S
N285 C284 1.261 . S
C286 H256 0.931 . S
C286 C283 1.357 . S
C286 C287 1.312 1_554 S
C287 H258 0.930 . S
C287 C282 1.261 . S
C287 C286 1.312 1_556 S
C288 O260 1.214 . S
C288 O268 1.234 . S
C289 H261 0.929 . S
C289 C292 1.391 . S
C289 C294 1.391 . S
C290 H262 0.929 . S
C290 C291 1.390 . S
C290 N293 1.391 . S
C291 H263 0.930 . S
C291 C290 1.390 . S
C291 C292 1.392 . S
C292 H264 0.929 . S
C292 C289 1.391 . S
C292 C291 1.392 . S
N293 Co237 2.257 . S
N293 C290 1.391 . S
N293 C294 1.388 . S
C294 H265 0.930 . S
C294 C289 1.391 . S
C294 N293 1.388 . S
Co295 O297 2.143 . S
Co295 O303 2.074 . S
Co295 O306 2.093 . S
Co295 O319 2.097 . S
Co295 N336 2.151 . S
Co295 N344 2.214 . S
Co296 O297 2.160 1_565 S
Co296 O302 2.058 . S
Co296 O312 2.057 . S
Co296 O327 2.037 . S
Co296 N331 2.145 . S
Co296 N352 2.257 . S
O297 Co295 2.143 . S
O297 Co296 2.160 1_545 S
C298 O299 1.278 . S
C298 O306 1.224 . S
O299 C298 1.278 . S
C300 O301 1.245 . S
C300 O312 1.232 . S
O301 C300 1.245 . S
O302 Co296 2.058 . S
O302 C328 1.269 . S
O303 Co295 2.074 . S
O303 C328 1.257 1_545 S
H304 C329 0.930 1_655 S
H305 C335 0.930 . S
O306 Co295 2.093 . S
O306 C298 1.224 . S
H307 C339 0.929 1_554 S
H308 C341 0.930 . S
H309 C342 0.930 . S
H310 C340 0.929 . S
H311 C343 0.928 . S
O312 Co296 2.057 . S
O312 C300 1.232 . S
H313 C332 0.929 . S
H314 C333 0.929 . S
H315 C345 0.963 . S
H316 C337 0.929 . S
H317 C346 0.930 1_655 S
H318 C338 0.931 1_554 S
O319 Co295 2.097 . S
O319 C347 1.214 . S
H320 C348 0.929 . S
H321 C349 0.929 . S
H322 C350 0.930 . S
H323 C351 0.929 . S
H324 C353 0.930 . S
H325 C330 0.930 . S
H326 C334 0.930 . S
O327 Co296 2.037 . S
O327 C347 1.234 1_565 S
C328 O302 1.269 . S
C328 O303 1.257 1_565 S
C329 H304 0.930 1_455 S
C329 C332 1.388 . S
C329 C334 1.418 . S
C330 H325 0.930 . S
C330 C333 1.404 . S
C330 C334 1.353 . S
N331 Co296 2.145 . S
N331 C332 1.397 . S
N331 C333 1.334 . S
C332 H313 0.929 . S
C332 C329 1.388 . S
C332 N331 1.397 . S
C333 H314 0.929 . S
C333 C330 1.404 . S
C333 N331 1.334 . S
C334 H326 0.930 . S
C334 C329 1.418 . S
C334 C330 1.353 . S
C335 H305 0.930 . S
C335 N336 1.330 . S
C335 C337 1.446 . S
N336 Co295 2.151 . S
N336 C335 1.330 . S
N336 C340 1.418 . S
C337 H316 0.929 . S
C337 C335 1.446 . S
C337 C338 1.332 . S
C338 H318 0.931 1_556 S
C338 C337 1.332 . S
C338 C339 1.267 . S
C339 H307 0.929 1_556 S
C339 C338 1.267 . S
C339 C340 1.251 . S
C340 H310 0.929 . S
C340 N336 1.418 . S
C340 C339 1.251 . S
C341 H308 0.930 . S
C341 C343 1.406 . S
C341 C346 1.261 . S
C342 H309 0.930 . S
C342 N344 1.325 . S
C342 C345 1.334 1_455 S
C343 H311 0.928 . S
C343 C341 1.406 . S
C343 N344 1.261 . S
N344 Co295 2.214 . S
N344 C342 1.325 . S
N344 C343 1.261 . S
C345 H315 0.963 . S
C345 C342 1.334 1_655 S
C345 C346 1.302 1_655 S
C346 H317 0.930 1_455 S
C346 C341 1.261 . S
C346 C345 1.302 1_455 S
C347 O319 1.214 . S
C347 O327 1.234 1_545 S
C348 H320 0.929 . S
C348 C351 1.391 . S
C348 C353 1.391 . S
C349 H321 0.929 . S
C349 C350 1.390 . S
C349 N352 1.391 . S
C350 H322 0.930 . S
C350 C349 1.390 . S
C350 C351 1.392 . S
C351 H323 0.929 . S
C351 C348 1.391 . S
C351 C350 1.392 . S
N352 Co296 2.257 . S
N352 C349 1.391 . S
N352 C353 1.388 . S
C353 H324 0.930 . S
C353 C348 1.391 . S
C353 N352 1.388 . S
Co354 O356 2.143 . S
Co354 O362 2.074 . S
Co354 O365 2.093 . S
Co354 O378 2.097 . S
Co354 N395 2.151 . S
Co354 N403 2.214 . S
Co355 O356 2.160 . S
Co355 O361 2.058 . S
Co355 O371 2.057 . S
Co355 O386 2.037 . S
Co355 N390 2.145 . S
Co355 N411 2.257 . S
O356 Co354 2.143 . S
O356 Co355 2.160 . S
C357 O358 1.278 . S
C357 O365 1.224 . S
O358 C357 1.278 . S
C359 O360 1.245 . S
C359 O371 1.232 . S
O360 C359 1.245 . S
O361 Co355 2.058 . S
O361 C387 1.269 . S
O362 Co354 2.074 . S
O362 C387 1.257 . S
H363 C388 0.930 . S
H364 C394 0.930 . S
O365 Co354 2.093 . S
O365 C357 1.224 . S
H366 C398 0.929 . S
H367 C400 0.930 . S
H368 C401 0.930 . S
H369 C399 0.929 . S
H370 C402 0.928 . S
O371 Co355 2.057 . S
O371 C359 1.232 . S
H372 C391 0.929 . S
H373 C392 0.929 . S
H374 C404 0.931 . S
H375 C396 0.929 . S
H376 C405 0.930 . S
H377 C397 0.931 . S
O378 Co354 2.097 . S
O378 C406 1.214 . S
H379 C407 0.929 . S
H380 C408 0.929 . S
H381 C409 0.930 . S
H382 C410 0.929 . S
H383 C412 0.930 . S
H384 C389 0.930 . S
H385 C393 0.930 . S
O386 Co355 2.037 . S
O386 C406 1.234 . S
C387 O361 1.269 . S
C387 O362 1.257 . S
C388 H363 0.930 . S
C388 C391 1.388 . S
C388 C393 1.418 . S
C389 H384 0.930 . S
C389 C392 1.404 . S
C389 C393 1.353 . S
N390 Co355 2.145 . S
N390 C391 1.397 . S
N390 C392 1.334 . S
C391 H372 0.929 . S
C391 C388 1.388 . S
C391 N390 1.397 . S
C392 H373 0.929 . S
C392 C389 1.404 . S
C392 N390 1.334 . S
C393 H385 0.930 . S
C393 C388 1.418 . S
C393 C389 1.353 . S
C394 H364 0.930 . S
C394 N395 1.330 . S
C394 C396 1.446 . S
N395 Co354 2.151 . S
N395 C394 1.330 . S
N395 C399 1.418 . S
C396 H375 0.929 . S
C396 C394 1.446 . S
C396 C397 1.332 . S
C397 H377 0.931 . S
C397 C396 1.332 . S
C397 C398 1.267 . S
C398 H366 0.929 . S
C398 C397 1.267 . S
C398 C399 1.251 . S
C399 H369 0.929 . S
C399 N395 1.418 . S
C399 C398 1.251 . S
C400 H367 0.930 . S
C400 C402 1.406 . S
C400 C405 1.261 . S
C401 H368 0.930 . S
C401 N403 1.325 . S
C401 C404 1.357 . S
C402 H370 0.928 . S
C402 C400 1.406 . S
C402 N403 1.261 . S
N403 Co354 2.214 . S
N403 C401 1.325 . S
N403 C402 1.261 . S
C404 H374 0.931 . S
C404 C401 1.357 . S
C404 C405 1.312 . S
C405 H376 0.930 . S
C405 C400 1.261 . S
C405 C404 1.312 . S
C406 O378 1.214 . S
C406 O386 1.234 . S
C407 H379 0.929 . S
C407 C410 1.391 . S
C407 C412 1.391 . S
C408 H380 0.929 . S
C408 C409 1.390 . S
C408 N411 1.391 . S
C409 H381 0.930 . S
C409 C408 1.390 . S
C409 C410 1.392 . S
C410 H382 0.929 . S
C410 C407 1.391 . S
C410 C409 1.392 . S
N411 Co355 2.257 . S
N411 C408 1.391 . S
N411 C412 1.388 . S
C412 H383 0.930 . S
C412 C407 1.391 . S
C412 N411 1.388 . S
Co413 O415 2.139 . S
Co413 O421 2.074 . S
Co413 O424 2.093 . S
Co413 O437 2.097 . S
Co413 N454 2.151 . S
Co413 N462 2.214 . S
Co414 O415 2.163 1_545 S
Co414 O420 2.058 . S
Co414 O430 2.057 . S
Co414 O445 2.037 . S
Co414 N449 2.145 . S
Co414 N470 2.257 . S
O415 Co413 2.139 . S
O415 Co414 2.163 1_565 S
C416 O417 1.278 . S
C416 O424 1.224 . S
O417 C416 1.278 . S
C418 O419 1.245 . S
C418 O430 1.232 . S
O419 C418 1.245 . S
O420 Co414 2.058 . S
O420 C446 1.269 . S
O421 Co413 2.074 . S
O421 C446 1.257 1_565 S
H422 C447 0.930 . S
H423 C453 0.930 . S
O424 Co413 2.093 . S
O424 C416 1.224 . S
H425 C457 0.929 . S
H426 C459 0.930 . S
H427 C460 0.930 . S
H428 C458 0.929 . S
H429 C461 0.928 . S
O430 Co414 2.057 . S
O430 C418 1.232 . S
H431 C450 0.929 . S
H432 C451 0.929 . S
H433 C463 0.931 . S
H434 C455 0.929 . S
H435 C464 0.930 . S
H436 C456 0.931 . S
O437 Co413 2.097 . S
O437 C465 1.214 . S
H438 C466 0.929 . S
H439 C467 0.929 . S
H440 C468 0.930 . S
H441 C469 0.929 . S
H442 C471 0.930 . S
H443 C448 0.930 . S
H444 C452 0.930 . S
O445 Co414 2.037 . S
O445 C465 1.234 1_545 S
C446 O420 1.269 . S
C446 O421 1.257 1_545 S
C447 H422 0.930 . S
C447 C450 1.388 . S
C447 C452 1.418 . S
C448 H443 0.930 . S
C448 C451 1.404 . S
C448 C452 1.353 . S
N449 Co414 2.145 . S
N449 C450 1.397 . S
N449 C451 1.334 . S
C450 H431 0.929 . S
C450 C447 1.388 . S
C450 N449 1.397 . S
C451 H432 0.929 . S
C451 C448 1.404 . S
C451 N449 1.334 . S
C452 H444 0.930 . S
C452 C447 1.418 . S
C452 C448 1.353 . S
C453 H423 0.930 . S
C453 N454 1.330 . S
C453 C455 1.446 . S
N454 Co413 2.151 . S
N454 C453 1.330 . S
N454 C458 1.418 . S
C455 H434 0.929 . S
C455 C453 1.446 . S
C455 C456 1.332 . S
C456 H436 0.931 . S
C456 C455 1.332 . S
C456 C457 1.267 . S
C457 H425 0.929 . S
C457 C456 1.267 . S
C457 C458 1.251 . S
C458 H428 0.929 . S
C458 N454 1.418 . S
C458 C457 1.251 . S
C459 H426 0.930 . S
C459 C461 1.406 . S
C459 C464 1.261 . S
C460 H427 0.930 . S
C460 N462 1.325 . S
C460 C463 1.357 . S
C461 H429 0.928 . S
C461 C459 1.406 . S
C461 N462 1.261 . S
N462 Co413 2.214 . S
N462 C460 1.325 . S
N462 C461 1.261 . S
C463 H433 0.931 . S
C463 C460 1.357 . S
C463 C464 1.312 . S
C464 H435 0.930 . S
C464 C459 1.261 . S
C464 C463 1.312 . S
C465 O437 1.214 . S
C465 O445 1.234 1_565 S
C466 H438 0.929 . S
C466 C469 1.391 1_554 S
C466 C471 1.391 . S
C467 H439 0.929 . S
C467 C468 1.390 1_554 S
C467 N470 1.391 . S
C468 H440 0.930 . S
C468 C467 1.390 1_556 S
C468 C469 1.392 . S
C469 H441 0.929 . S
C469 C466 1.391 1_556 S
C469 C468 1.392 . S
N470 Co414 2.257 . S
N470 C467 1.391 . S
N470 C471 1.388 . S
C471 H442 0.930 . S
C471 C466 1.391 . S
C471 N470 1.388 . S
Co472 O474 2.143 . S
Co472 O480 2.074 . S
Co472 O483 2.093 . S
Co472 O496 2.097 . S
Co472 N513 2.151 . S
Co472 N521 2.214 . S
Co473 O474 2.160 . S
Co473 O479 2.058 . S
Co473 O489 2.057 . S
Co473 O504 2.037 . S
Co473 N508 2.145 . S
Co473 N529 2.257 . S
O474 Co472 2.143 . S
O474 Co473 2.160 . S
C475 O476 1.278 . S
C475 O483 1.224 . S
O476 C475 1.278 . S
C477 O478 1.245 . S
C477 O489 1.232 . S
O478 C477 1.245 . S
O479 Co473 2.058 . S
O479 C505 1.269 . S
O480 Co472 2.074 . S
O480 C505 1.257 . S
H481 C506 0.930 . S
H482 C512 0.930 . S
O483 Co472 2.093 . S
O483 C475 1.224 . S
H484 C516 0.929 . S
H485 C518 0.930 . S
H486 C519 0.930 . S
H487 C517 0.929 . S
H488 C520 0.928 . S
O489 Co473 2.057 . S
O489 C477 1.232 . S
H490 C509 0.929 . S
H491 C510 0.929 . S
H492 C522 0.931 . S
H493 C514 0.929 . S
H494 C523 0.930 . S
H495 C515 0.931 . S
O496 Co472 2.097 . S
O496 C524 1.214 . S
H497 C525 0.929 . S
H498 C526 0.929 . S
H499 C527 0.930 . S
H500 C528 0.929 . S
H501 C530 0.930 . S
H502 C507 0.930 . S
H503 C511 0.930 . S
O504 Co473 2.037 . S
O504 C524 1.234 . S
C505 O479 1.269 . S
C505 O480 1.257 . S
C506 H481 0.930 . S
C506 C509 1.388 . S
C506 C511 1.418 . S
C507 H502 0.930 . S
C507 C510 1.404 . S
C507 C511 1.353 . S
N508 Co473 2.145 . S
N508 C509 1.397 . S
N508 C510 1.334 . S
C509 H490 0.929 . S
C509 C506 1.388 . S
C509 N508 1.397 . S
C510 H491 0.929 . S
C510 C507 1.404 . S
C510 N508 1.334 . S
C511 H503 0.930 . S
C511 C506 1.418 . S
C511 C507 1.353 . S
C512 H482 0.930 . S
C512 N513 1.330 . S
C512 C514 1.446 . S
N513 Co472 2.151 . S
N513 C512 1.330 . S
N513 C517 1.418 . S
C514 H493 0.929 . S
C514 C512 1.446 . S
C514 C515 1.332 . S
C515 H495 0.931 . S
C515 C514 1.332 . S
C515 C516 1.267 . S
C516 H484 0.929 . S
C516 C515 1.267 . S
C516 C517 1.251 . S
C517 H487 0.929 . S
C517 N513 1.418 . S
C517 C516 1.251 . S
C518 H485 0.930 . S
C518 C520 1.406 . S
C518 C523 1.261 . S
C519 H486 0.930 . S
C519 N521 1.325 . S
C519 C522 1.357 . S
C520 H488 0.928 . S
C520 C518 1.406 . S
C520 N521 1.261 . S
N521 Co472 2.214 . S
N521 C519 1.325 . S
N521 C520 1.261 . S
C522 H492 0.931 . S
C522 C519 1.357 . S
C522 C523 1.312 . S
C523 H494 0.930 . S
C523 C518 1.261 . S
C523 C522 1.312 . S
C524 O496 1.214 . S
C524 O504 1.234 . S
C525 H497 0.929 . S
C525 C528 1.391 . S
C525 C530 1.391 . S
C526 H498 0.929 . S
C526 C527 1.390 . S
C526 N529 1.391 . S
C527 H499 0.930 . S
C527 C526 1.390 . S
C527 C528 1.392 . S
C528 H500 0.929 . S
C528 C525 1.391 . S
C528 C527 1.392 . S
N529 Co473 2.257 . S
N529 C526 1.391 . S
N529 C530 1.388 . S
C530 H501 0.930 . S
C530 C525 1.391 . S
C530 N529 1.388 . S
Co531 O533 2.143 . S
Co531 O539 2.074 . S
Co531 O542 2.093 . S
Co531 O555 2.097 . S
Co531 N572 2.151 . S
Co531 N580 2.214 . S
Co532 O533 2.160 . S
Co532 O538 2.058 . S
Co532 O548 2.057 . S
Co532 O563 2.037 . S
Co532 N567 2.145 . S
Co532 N588 2.257 . S
O533 Co531 2.143 . S
O533 Co532 2.160 . S
C534 O535 1.278 . S
C534 O542 1.224 . S
O535 C534 1.278 . S
C536 O537 1.245 . S
C536 O548 1.232 . S
O537 C536 1.245 . S
O538 Co532 2.058 . S
O538 C564 1.269 . S
O539 Co531 2.074 . S
O539 C564 1.257 . S
H540 C565 0.930 . S
H541 C571 0.930 . S
O542 Co531 2.093 . S
O542 C534 1.224 . S
H543 C575 0.929 . S
H544 C577 0.930 . S
H545 C578 0.930 . S
H546 C576 0.929 . S
H547 C579 0.928 . S
O548 Co532 2.057 . S
O548 C536 1.232 . S
H549 C568 0.929 . S
H550 C569 0.929 . S
H551 C581 0.931 . S
H552 C573 0.929 . S
H553 C582 0.930 . S
H554 C574 0.931 . S
O555 Co531 2.097 . S
O555 C583 1.214 . S
H556 C584 0.929 . S
H557 C585 0.929 . S
H558 C586 0.930 . S
H559 C587 0.929 . S
H560 C589 0.930 . S
H561 C566 0.930 . S
H562 C570 0.930 . S
O563 Co532 2.037 . S
O563 C583 1.234 . S
C564 O538 1.269 . S
C564 O539 1.257 . S
C565 H540 0.930 . S
C565 C568 1.388 . S
C565 C570 1.418 . S
C566 H561 0.930 . S
C566 C569 1.404 . S
C566 C570 1.353 . S
N567 Co532 2.145 . S
N567 C568 1.397 . S
N567 C569 1.334 . S
C568 H549 0.929 . S
C568 C565 1.388 . S
C568 N567 1.397 . S
C569 H550 0.929 . S
C569 C566 1.404 . S
C569 N567 1.334 . S
C570 H562 0.930 . S
C570 C565 1.418 . S
C570 C566 1.353 . S
C571 H541 0.930 . S
C571 N572 1.330 . S
C571 C573 1.446 . S
N572 Co531 2.151 . S
N572 C571 1.330 . S
N572 C576 1.418 . S
C573 H552 0.929 . S
C573 C571 1.446 . S
C573 C574 1.332 . S
C574 H554 0.931 . S
C574 C573 1.332 . S
C574 C575 1.267 . S
C575 H543 0.929 . S
C575 C574 1.267 . S
C575 C576 1.251 . S
C576 H546 0.929 . S
C576 N572 1.418 . S
C576 C575 1.251 . S
C577 H544 0.930 . S
C577 C579 1.406 . S
C577 C582 1.261 . S
C578 H545 0.930 . S
C578 N580 1.325 . S
C578 C581 1.357 . S
C579 H547 0.928 . S
C579 C577 1.406 . S
C579 N580 1.261 . S
N580 Co531 2.214 . S
N580 C578 1.325 . S
N580 C579 1.261 . S
C581 H551 0.931 . S
C581 C578 1.357 . S
C581 C582 1.312 . S
C582 H553 0.930 . S
C582 C577 1.261 . S
C582 C581 1.312 . S
C583 O555 1.214 . S
C583 O563 1.234 . S
C584 H556 0.929 . S
C584 C587 1.391 1_556 S
C584 C589 1.391 . S
C585 H557 0.929 . S
C585 C586 1.390 1_556 S
C585 N588 1.391 . S
C586 H558 0.930 . S
C586 C585 1.390 1_554 S
C586 C587 1.392 . S
C587 H559 0.929 . S
C587 C584 1.391 1_554 S
C587 C586 1.392 . S
N588 Co532 2.257 . S
N588 C585 1.391 . S
N588 C589 1.388 . S
C589 H560 0.930 . S
C589 C584 1.391 . S
C589 N588 1.388 . S
Co590 O592 2.143 . S
Co590 O598 2.074 . S
Co590 O601 2.093 1_554 S
Co590 O614 2.097 1_554 S
Co590 N631 2.151 . S
Co590 N639 2.214 . S
Co591 O592 2.160 1_556 S
Co591 O597 2.058 1_556 S
Co591 O607 2.057 1_556 S
Co591 O622 2.037 . S
Co591 N626 2.145 . S
Co591 N647 2.257 . S
O592 Co590 2.143 . S
O592 Co591 2.160 1_554 S
C593 O594 1.278 . S
C593 O601 1.224 . S
O594 C593 1.278 . S
C595 O596 1.245 . S
C595 O607 1.232 . S
O596 C595 1.245 . S
O597 Co591 2.058 1_554 S
O597 C623 1.269 . S
O598 Co590 2.074 . S
O598 C623 1.257 . S
H599 C624 0.930 . S
H600 C630 0.930 . S
O601 Co590 2.093 1_556 S
O601 C593 1.224 . S
H602 C634 0.929 . S
H603 C636 0.930 . S
H604 C637 0.930 . S
H605 C635 0.929 . S
H606 C638 0.928 . S
O607 Co591 2.057 1_554 S
O607 C595 1.232 . S
H608 C627 0.929 . S
H609 C628 0.929 1_554 S
H610 C640 0.931 . S
H611 C632 0.929 . S
H612 C641 0.930 . S
H613 C633 0.931 . S
O614 Co590 2.097 1_556 S
O614 C642 1.214 . S
H615 C643 0.929 . S
H616 C644 0.929 . S
H617 C645 0.930 . S
H618 C646 0.929 . S
H619 C648 0.930 . S
H620 C625 0.930 . S
H621 C629 0.930 . S
O622 Co591 2.037 . S
O622 C642 1.234 . S
C623 O597 1.269 . S
C623 O598 1.257 . S
C624 H599 0.930 . S
C624 C627 1.388 . S
C624 C629 1.418 . S
C625 H620 0.930 . S
C625 C628 1.404 . S
C625 C629 1.353 . S
N626 Co591 2.145 . S
N626 C627 1.397 . S
N626 C628 1.334 . S
C627 H608 0.929 . S
C627 C624 1.388 . S
C627 N626 1.397 . S
C628 H609 0.929 1_556 S
C628 C625 1.404 . S
C628 N626 1.334 . S
C629 H621 0.930 . S
C629 C624 1.418 . S
C629 C625 1.353 . S
C630 H600 0.930 . S
C630 N631 1.330 . S
C630 C632 1.446 . S
N631 Co590 2.151 . S
N631 C630 1.330 . S
N631 C635 1.418 . S
C632 H611 0.929 . S
C632 C630 1.446 . S
C632 C633 1.332 . S
C633 H613 0.931 . S
C633 C632 1.332 . S
C633 C634 1.267 . S
C634 H602 0.929 . S
C634 C633 1.267 . S
C634 C635 1.251 . S
C635 H605 0.929 . S
C635 N631 1.418 . S
C635 C634 1.251 . S
C636 H603 0.930 . S
C636 C638 1.406 . S
C636 C641 1.261 . S
C637 H604 0.930 . S
C637 N639 1.325 1_556 S
C637 C640 1.357 . S
C638 H606 0.928 . S
C638 C636 1.406 . S
C638 N639 1.261 . S
N639 Co590 2.214 . S
N639 C637 1.325 1_554 S
N639 C638 1.261 . S
C640 H610 0.931 . S
C640 C637 1.357 . S
C640 C641 1.312 1_556 S
C641 H612 0.930 . S
C641 C636 1.261 . S
C641 C640 1.312 1_554 S
C642 O614 1.214 . S
C642 O622 1.234 . S
C643 H615 0.929 . S
C643 C646 1.391 . S
C643 C648 1.391 . S
C644 H616 0.929 . S
C644 C645 1.390 . S
C644 N647 1.391 . S
C645 H617 0.930 . S
C645 C644 1.390 . S
C645 C646 1.392 . S
C646 H618 0.929 . S
C646 C643 1.391 . S
C646 C645 1.392 . S
N647 Co591 2.257 . S
N647 C644 1.391 . S
N647 C648 1.388 . S
C648 H619 0.930 . S
C648 C643 1.391 . S
C648 N647 1.388 . S
Co649 O651 2.143 . S
Co649 O657 2.074 . S
Co649 O660 2.093 . S
Co649 O673 2.097 . S
Co649 N690 2.151 . S
Co649 N698 2.214 . S
Co650 O651 2.160 . S
Co650 O656 2.058 . S
Co650 O666 2.057 . S
Co650 O681 2.037 . S
Co650 N685 2.145 . S
Co650 N706 2.257 . S
O651 Co649 2.143 . S
O651 Co650 2.160 . S
C652 O653 1.278 . S
C652 O660 1.224 . S
O653 C652 1.278 . S
C654 O655 1.245 . S
C654 O666 1.232 . S
O655 C654 1.245 . S
O656 Co650 2.058 . S
O656 C682 1.269 . S
O657 Co649 2.074 . S
O657 C682 1.257 . S
H658 C683 0.930 1_655 S
H659 C689 0.930 . S
O660 Co649 2.093 . S
O660 C652 1.224 . S
H661 C693 0.929 1_556 S
H662 C695 0.930 . S
H663 C696 0.930 . S
H664 C694 0.929 . S
H665 C697 0.928 . S
O666 Co650 2.057 . S
O666 C654 1.232 . S
H667 C686 0.929 . S
H668 C687 0.929 . S
H669 C699 0.964 . S
H670 C691 0.929 . S
H671 C700 0.930 1_655 S
H672 C692 0.931 1_556 S
O673 Co649 2.097 . S
O673 C701 1.214 . S
H674 C702 0.929 . S
H675 C703 0.929 . S
H676 C704 0.930 . S
H677 C705 0.929 . S
H678 C707 0.930 . S
H679 C684 0.930 . S
H680 C688 0.930 . S
O681 Co650 2.037 . S
O681 C701 1.234 . S
C682 O656 1.269 . S
C682 O657 1.257 . S
C683 H658 0.930 1_455 S
C683 C686 1.388 . S
C683 C688 1.418 . S
C684 H679 0.930 . S
C684 C687 1.404 . S
C684 C688 1.353 . S
N685 Co650 2.145 . S
N685 C686 1.397 . S
N685 C687 1.334 . S
C686 H667 0.929 . S
C686 C683 1.388 . S
C686 N685 1.397 . S
C687 H668 0.929 . S
C687 C684 1.404 . S
C687 N685 1.334 . S
C688 H680 0.930 . S
C688 C683 1.418 . S
C688 C684 1.353 . S
C689 H659 0.930 . S
C689 N690 1.330 . S
C689 C691 1.446 . S
N690 Co649 2.151 . S
N690 C689 1.330 . S
N690 C694 1.418 . S
C691 H670 0.929 . S
C691 C689 1.446 . S
C691 C692 1.332 . S
C692 H672 0.931 1_554 S
C692 C691 1.332 . S
C692 C693 1.267 . S
C693 H661 0.929 1_554 S
C693 C692 1.267 . S
C693 C694 1.251 . S
C694 H664 0.929 . S
C694 N690 1.418 . S
C694 C693 1.251 . S
C695 H662 0.930 . S
C695 C697 1.406 . S
C695 C700 1.261 . S
C696 H663 0.930 . S
C696 N698 1.325 . S
C696 C699 1.333 1_455 S
C697 H665 0.928 . S
C697 C695 1.406 . S
C697 N698 1.261 . S
N698 Co649 2.214 . S
N698 C696 1.325 . S
N698 C697 1.261 . S
C699 H669 0.964 . S
C699 C696 1.333 1_655 S
C699 C700 1.302 1_655 S
C700 H671 0.930 1_455 S
C700 C695 1.261 . S
C700 C699 1.302 1_455 S
C701 O673 1.214 . S
C701 O681 1.234 . S
C702 H674 0.929 . S
C702 C705 1.391 . S
C702 C707 1.391 . S
C703 H675 0.929 . S
C703 C704 1.390 . S
C703 N706 1.391 . S
C704 H676 0.930 . S
C704 C703 1.390 . S
C704 C705 1.392 . S
C705 H677 0.929 . S
C705 C702 1.391 . S
C705 C704 1.392 . S
N706 Co650 2.257 . S
N706 C703 1.391 . S
N706 C707 1.388 . S
C707 H678 0.930 . S
C707 C702 1.391 . S
C707 N706 1.388 . S
Co708 O710 2.143 . S
Co708 O716 2.074 . S
Co708 O719 2.093 . S
Co708 O732 2.097 . S
Co708 N749 2.151 . S
Co708 N757 2.214 . S
Co709 O710 2.160 . S
Co709 O715 2.058 . S
Co709 O725 2.057 . S
Co709 O740 2.037 . S
Co709 N744 2.145 . S
Co709 N765 2.257 . S
O710 Co708 2.143 . S
O710 Co709 2.160 . S
C711 O712 1.278 . S
C711 O719 1.224 . S
O712 C711 1.278 . S
C713 O714 1.245 . S
C713 O725 1.232 . S
O714 C713 1.245 . S
O715 Co709 2.058 . S
O715 C741 1.269 . S
O716 Co708 2.074 . S
O716 C741 1.257 . S
H717 C742 0.930 . S
H718 C748 0.930 . S
O719 Co708 2.093 . S
O719 C711 1.224 . S
H720 C752 0.929 . S
H721 C754 0.930 . S
H722 C755 0.930 . S
H723 C753 0.929 . S
H724 C756 0.928 . S
O725 Co709 2.057 . S
O725 C713 1.232 . S
H726 C745 0.929 . S
H727 C746 0.929 . S
H728 C758 0.931 . S
H729 C750 0.929 . S
H730 C759 0.930 . S
H731 C751 0.931 . S
O732 Co708 2.097 . S
O732 C760 1.214 . S
H733 C761 0.929 . S
H734 C762 0.929 . S
H735 C763 0.930 . S
H736 C764 0.929 . S
H737 C766 0.930 . S
H738 C743 0.930 . S
H739 C747 0.930 . S
O740 Co709 2.037 . S
O740 C760 1.234 . S
C741 O715 1.269 . S
C741 O716 1.257 . S
C742 H717 0.930 . S
C742 C745 1.388 . S
C742 C747 1.418 . S
C743 H738 0.930 . S
C743 C746 1.404 . S
C743 C747 1.353 . S
N744 Co709 2.145 . S
N744 C745 1.397 . S
N744 C746 1.334 . S
C745 H726 0.929 . S
C745 C742 1.388 . S
C745 N744 1.397 . S
C746 H727 0.929 . S
C746 C743 1.404 . S
C746 N744 1.334 . S
C747 H739 0.930 . S
C747 C742 1.418 . S
C747 C743 1.353 . S
C748 H718 0.930 . S
C748 N749 1.330 . S
C748 C750 1.446 . S
N749 Co708 2.151 . S
N749 C748 1.330 . S
N749 C753 1.418 . S
C750 H729 0.929 . S
C750 C748 1.446 . S
C750 C751 1.332 . S
C751 H731 0.931 . S
C751 C750 1.332 . S
C751 C752 1.267 . S
C752 H720 0.929 . S
C752 C751 1.267 . S
C752 C753 1.251 . S
C753 H723 0.929 . S
C753 N749 1.418 . S
C753 C752 1.251 . S
C754 H721 0.930 . S
C754 C756 1.406 . S
C754 C759 1.261 . S
C755 H722 0.930 . S
C755 N757 1.325 . S
C755 C758 1.357 . S
C756 H724 0.928 . S
C756 C754 1.406 . S
C756 N757 1.261 . S
N757 Co708 2.214 . S
N757 C755 1.325 . S
N757 C756 1.261 . S
C758 H728 0.931 . S
C758 C755 1.357 . S
C758 C759 1.312 . S
C759 H730 0.930 . S
C759 C754 1.261 . S
C759 C758 1.312 . S
C760 O732 1.214 . S
C760 O740 1.234 . S
C761 H733 0.929 . S
C761 C764 1.391 . S
C761 C766 1.391 . S
C762 H734 0.929 . S
C762 C763 1.390 . S
C762 N765 1.391 . S
C763 H735 0.930 . S
C763 C762 1.390 . S
C763 C764 1.392 . S
C764 H736 0.929 . S
C764 C761 1.391 . S
C764 C763 1.392 . S
N765 Co709 2.257 . S
N765 C762 1.391 . S
N765 C766 1.388 . S
C766 H737 0.930 . S
C766 C761 1.391 . S
C766 N765 1.388 . S
Co767 O769 2.143 . S
Co767 O775 2.074 . S
Co767 O778 2.093 . S
Co767 O791 2.097 . S
Co767 N808 2.151 . S
Co767 N816 2.214 . S
Co768 O769 2.160 . S
Co768 O774 2.058 . S
Co768 O784 2.057 . S
Co768 O799 2.037 . S
Co768 N803 2.145 . S
Co768 N824 2.257 . S
O769 Co767 2.143 . S
O769 Co768 2.160 . S
C770 O771 1.278 . S
C770 O778 1.224 . S
O771 C770 1.278 . S
C772 O773 1.245 . S
C772 O784 1.232 . S
O773 C772 1.245 . S
O774 Co768 2.058 . S
O774 C800 1.269 . S
O775 Co767 2.074 . S
O775 C800 1.257 . S
H776 C801 0.930 . S
H777 C807 0.930 . S
O778 Co767 2.093 . S
O778 C770 1.224 . S
H779 C811 0.929 . S
H780 C813 0.930 . S
H781 C814 0.930 . S
H782 C812 0.929 . S
H783 C815 0.928 . S
O784 Co768 2.057 . S
O784 C772 1.232 . S
H785 C804 0.929 . S
H786 C805 0.929 . S
H787 C817 0.931 . S
H788 C809 0.929 . S
H789 C818 0.930 . S
H790 C810 0.931 . S
O791 Co767 2.097 . S
O791 C819 1.214 . S
H792 C820 0.929 . S
H793 C821 0.929 . S
H794 C822 0.930 . S
H795 C823 0.929 . S
H796 C825 0.930 . S
H797 C802 0.930 . S
H798 C806 0.930 . S
O799 Co768 2.037 . S
O799 C819 1.234 . S
C800 O774 1.269 . S
C800 O775 1.257 . S
C801 H776 0.930 . S
C801 C804 1.388 . S
C801 C806 1.418 . S
C802 H797 0.930 . S
C802 C805 1.404 . S
C802 C806 1.353 . S
N803 Co768 2.145 . S
N803 C804 1.397 . S
N803 C805 1.334 . S
C804 H785 0.929 . S
C804 C801 1.388 . S
C804 N803 1.397 . S
C805 H786 0.929 . S
C805 C802 1.404 . S
C805 N803 1.334 . S
C806 H798 0.930 . S
C806 C801 1.418 . S
C806 C802 1.353 . S
C807 H777 0.930 . S
C807 N808 1.330 . S
C807 C809 1.446 . S
N808 Co767 2.151 . S
N808 C807 1.330 . S
N808 C812 1.418 . S
C809 H788 0.929 . S
C809 C807 1.446 . S
C809 C810 1.332 . S
C810 H790 0.931 . S
C810 C809 1.332 . S
C810 C811 1.267 . S
C811 H779 0.929 . S
C811 C810 1.267 . S
C811 C812 1.251 . S
C812 H782 0.929 . S
C812 N808 1.418 . S
C812 C811 1.251 . S
C813 H780 0.930 . S
C813 C815 1.406 . S
C813 C818 1.261 . S
C814 H781 0.930 . S
C814 N816 1.325 . S
C814 C817 1.357 . S
C815 H783 0.928 . S
C815 C813 1.406 . S
C815 N816 1.261 . S
N816 Co767 2.214 . S
N816 C814 1.325 . S
N816 C815 1.261 . S
C817 H787 0.931 . S
C817 C814 1.357 . S
C817 C818 1.312 . S
C818 H789 0.930 . S
C818 C813 1.261 . S
C818 C817 1.312 . S
C819 O791 1.214 . S
C819 O799 1.234 . S
C820 H792 0.929 . S
C820 C823 1.391 1_554 S
C820 C825 1.391 . S
C821 H793 0.929 . S
C821 C822 1.390 1_554 S
C821 N824 1.391 . S
C822 H794 0.930 . S
C822 C821 1.390 1_556 S
C822 C823 1.392 . S
C823 H795 0.929 . S
C823 C820 1.391 1_556 S
C823 C822 1.392 . S
N824 Co768 2.257 . S
N824 C821 1.391 . S
N824 C825 1.388 . S
C825 H796 0.930 . S
C825 C820 1.391 . S
C825 N824 1.388 . S
Co826 O828 2.143 . S
Co826 O834 2.074 . S
Co826 O837 2.093 1_556 S
Co826 O850 2.097 1_556 S
Co826 N867 2.151 . S
Co826 N875 2.214 . S
Co827 O828 2.160 1_554 S
Co827 O833 2.058 1_554 S
Co827 O843 2.057 1_554 S
Co827 O858 2.037 . S
Co827 N862 2.145 . S
Co827 N883 2.257 . S
O828 Co826 2.143 . S
O828 Co827 2.160 1_556 S
C829 O830 1.278 . S
C829 O837 1.224 . S
O830 C829 1.278 . S
C831 O832 1.245 . S
C831 O843 1.232 . S
O832 C831 1.245 . S
O833 Co827 2.058 1_556 S
O833 C859 1.269 . S
O834 Co826 2.074 . S
O834 C859 1.257 . S
H835 C860 0.930 . S
H836 C866 0.930 . S
O837 Co826 2.093 1_554 S
O837 C829 1.224 . S
H838 C870 0.929 . S
H839 C872 0.930 . S
H840 C873 0.930 . S
H841 C871 0.929 . S
H842 C874 0.928 . S
O843 Co827 2.057 1_556 S
O843 C831 1.232 . S
H844 C863 0.929 . S
H845 C864 0.928 1_556 S
H846 C876 0.931 . S
H847 C868 0.929 . S
H848 C877 0.930 . S
H849 C869 0.931 . S
O850 Co826 2.097 1_554 S
O850 C878 1.214 . S
H851 C879 0.929 . S
H852 C880 0.929 . S
H853 C881 0.930 . S
H854 C882 0.929 . S
H855 C884 0.930 . S
H856 C861 0.930 . S
H857 C865 0.930 . S
O858 Co827 2.037 . S
O858 C878 1.234 . S
C859 O833 1.269 . S
C859 O834 1.257 . S
C860 H835 0.930 . S
C860 C863 1.388 . S
C860 C865 1.418 . S
C861 H856 0.930 . S
C861 C864 1.404 . S
C861 C865 1.353 . S
N862 Co827 2.145 . S
N862 C863 1.397 . S
N862 C864 1.334 . S
C863 H844 0.929 . S
C863 C860 1.388 . S
C863 N862 1.397 . S
C864 H845 0.928 1_554 S
C864 C861 1.404 . S
C864 N862 1.334 . S
C865 H857 0.930 . S
C865 C860 1.418 . S
C865 C861 1.353 . S
C866 H836 0.930 . S
C866 N867 1.330 . S
C866 C868 1.446 . S
N867 Co826 2.151 . S
N867 C866 1.330 . S
N867 C871 1.418 . S
C868 H847 0.929 . S
C868 C866 1.446 . S
C868 C869 1.332 . S
C869 H849 0.931 . S
C869 C868 1.332 . S
C869 C870 1.267 . S
C870 H838 0.929 . S
C870 C869 1.267 . S
C870 C871 1.251 . S
C871 H841 0.929 . S
C871 N867 1.418 . S
C871 C870 1.251 . S
C872 H839 0.930 . S
C872 C874 1.406 . S
C872 C877 1.261 . S
C873 H840 0.930 . S
C873 N875 1.325 1_554 S
C873 C876 1.357 . S
C874 H842 0.928 . S
C874 C872 1.406 . S
C874 N875 1.261 . S
N875 Co826 2.214 . S
N875 C873 1.325 1_556 S
N875 C874 1.261 . S
C876 H846 0.931 . S
C876 C873 1.357 . S
C876 C877 1.312 1_554 S
C877 H848 0.930 . S
C877 C872 1.261 . S
C877 C876 1.312 1_556 S
C878 O850 1.214 . S
C878 O858 1.234 . S
C879 H851 0.929 . S
C879 C882 1.391 . S
C879 C884 1.391 . S
C880 H852 0.929 . S
C880 C881 1.390 . S
C880 N883 1.391 . S
C881 H853 0.930 . S
C881 C880 1.390 . S
C881 C882 1.392 . S
C882 H854 0.929 . S
C882 C879 1.391 . S
C882 C881 1.392 . S
N883 Co827 2.257 . S
N883 C880 1.391 . S
N883 C884 1.388 . S
C884 H855 0.930 . S
C884 C879 1.391 . S
C884 N883 1.388 . S
Co885 O887 2.143 . S
Co885 O893 2.074 . S
Co885 O896 2.093 . S
Co885 O909 2.097 . S
Co885 N926 2.151 . S
Co885 N934 2.214 . S
Co886 O887 2.160 . S
Co886 O892 2.058 . S
Co886 O902 2.057 . S
Co886 O917 2.037 . S
Co886 N921 2.145 . S
Co886 N942 2.257 . S
O887 Co885 2.143 . S
O887 Co886 2.160 . S
C888 O889 1.278 . S
C888 O896 1.224 . S
O889 C888 1.278 . S
C890 O891 1.245 . S
C890 O902 1.232 . S
O891 C890 1.245 . S
O892 Co886 2.058 . S
O892 C918 1.269 . S
O893 Co885 2.074 . S
O893 C918 1.257 . S
H894 C919 0.930 1_455 S
H895 C925 0.930 . S
O896 Co885 2.093 . S
O896 C888 1.224 . S
H897 C929 0.929 1_554 S
H898 C931 0.930 . S
H899 C932 0.930 . S
H900 C930 0.929 . S
H901 C933 0.928 . S
O902 Co886 2.057 . S
O902 C890 1.232 . S
H903 C922 0.929 . S
H904 C923 0.929 . S
H905 C935 0.963 . S
H906 C927 0.929 . S
H907 C936 0.930 1_455 S
H908 C928 0.931 1_554 S
O909 Co885 2.097 . S
O909 C937 1.214 . S
H910 C938 0.929 . S
H911 C939 0.929 . S
H912 C940 0.930 . S
H913 C941 0.929 . S
H914 C943 0.930 . S
H915 C920 0.930 . S
H916 C924 0.930 . S
O917 Co886 2.037 . S
O917 C937 1.234 . S
C918 O892 1.269 . S
C918 O893 1.257 . S
C919 H894 0.930 1_655 S
C919 C922 1.388 . S
C919 C924 1.418 . S
C920 H915 0.930 . S
C920 C923 1.404 . S
C920 C924 1.353 . S
N921 Co886 2.145 . S
N921 C922 1.397 . S
N921 C923 1.334 . S
C922 H903 0.929 . S
C922 C919 1.388 . S
C922 N921 1.397 . S
C923 H904 0.929 . S
C923 C920 1.404 . S
C923 N921 1.334 . S
C924 H916 0.930 . S
C924 C919 1.418 . S
C924 C920 1.353 . S
C925 H895 0.930 . S
C925 N926 1.330 . S
C925 C927 1.446 . S
N926 Co885 2.151 . S
N926 C925 1.330 . S
N926 C930 1.418 . S
C927 H906 0.929 . S
C927 C925 1.446 . S
C927 C928 1.332 . S
C928 H908 0.931 1_556 S
C928 C927 1.332 . S
C928 C929 1.267 . S
C929 H897 0.929 1_556 S
C929 C928 1.267 . S
C929 C930 1.251 . S
C930 H900 0.929 . S
C930 N926 1.418 . S
C930 C929 1.251 . S
C931 H898 0.930 . S
C931 C933 1.406 . S
C931 C936 1.261 . S
C932 H899 0.930 . S
C932 N934 1.325 . S
C932 C935 1.334 1_655 S
C933 H901 0.928 . S
C933 C931 1.406 . S
C933 N934 1.261 . S
N934 Co885 2.214 . S
N934 C932 1.325 . S
N934 C933 1.261 . S
C935 H905 0.963 . S
C935 C932 1.334 1_455 S
C935 C936 1.302 1_455 S
C936 H907 0.930 1_655 S
C936 C931 1.261 . S
C936 C935 1.302 1_655 S
C937 O909 1.214 . S
C937 O917 1.234 . S
C938 H910 0.929 . S
C938 C941 1.391 . S
C938 C943 1.391 . S
C939 H911 0.929 . S
C939 C940 1.390 . S
C939 N942 1.391 . S
C940 H912 0.930 . S
C940 C939 1.390 . S
C940 C941 1.392 . S
C941 H913 0.929 . S
C941 C938 1.391 . S
C941 C940 1.392 . S
N942 Co886 2.257 . S
N942 C939 1.391 . S
N942 C943 1.388 . S
C943 H914 0.930 . S
C943 C938 1.391 . S
C943 N942 1.388 . S
C944 C945 1.387 . S
C944 H948 0.950 . S
C944 C953 1.390 . S
C945 C944 1.387 . S
C945 C947 1.387 . S
H946 C953 0.950 . S
C947 C945 1.387 . S
C947 C949 1.390 . S
C947 H951 0.950 . S
H948 C944 0.950 . S
C949 C947 1.390 . S
C949 C950 1.387 . S
C949 H952 0.950 . S
C950 C949 1.387 . S
C950 C953 1.387 . S
H951 C947 0.950 . S
H952 C949 0.950 . S
C953 C944 1.390 . S
C953 H946 0.950 . S
C953 C950 1.387 . S
C954 C955 1.423 . S
C954 H958 0.950 . S
C954 C963 1.390 1_655 S
C955 C954 1.423 . S
C955 C957 1.348 1_565 S
H956 C963 0.950 . S
C957 C955 1.348 1_545 S
C957 C959 1.390 1_655 S
C957 H961 0.950 . S
H958 C954 0.950 . S
C959 C957 1.390 1_455 S
C959 C960 1.387 . S
C959 H962 0.950 . S
C960 C959 1.387 . S
C960 C963 1.387 1_545 S
H961 C957 0.950 . S
H962 C959 0.950 . S
C963 C954 1.390 1_455 S
C963 H956 0.950 . S
C963 C960 1.387 1_565 S
C964 C965 1.387 . S
C964 H968 0.950 . S
C964 C973 1.390 . S
C965 C964 1.387 . S
C965 C967 1.387 . S
H966 C973 0.950 . S
C967 C965 1.387 . S
C967 C969 1.390 . S
C967 H971 0.950 . S
H968 C964 0.950 . S
C969 C967 1.390 . S
C969 C970 1.387 . S
C969 H972 0.950 . S
C970 C969 1.387 . S
C970 C973 1.387 . S
H971 C967 0.950 . S
H972 C969 0.950 . S
C973 C964 1.390 . S
C973 H966 0.950 . S
C973 C970 1.387 . S
C974 C975 1.387 . S
C974 H978 0.950 . S
C974 C983 1.390 1_554 S
C975 C974 1.387 . S
C975 C977 1.387 1_565 S
H976 C983 0.950 . S
C977 C975 1.387 1_545 S
C977 C979 1.392 . S
C977 H981 0.950 . S
H978 C974 0.950 . S
C979 C977 1.392 . S
C979 C980 1.386 1_554 S
C979 H982 0.950 1_554 S
C980 C979 1.386 1_556 S
C980 C983 1.387 1_545 S
H981 C977 0.950 . S
H982 C979 0.950 1_556 S
C983 C974 1.390 1_556 S
C983 H976 0.950 . S
C983 C980 1.387 1_565 S
C984 C985 1.387 . S
C984 H988 0.950 . S
C984 C993 1.390 . S
C985 C984 1.387 . S
C985 C987 1.387 . S
H986 C993 0.950 . S
C987 C985 1.387 . S
C987 C989 1.390 . S
C987 H991 0.950 . S
H988 C984 0.950 . S
C989 C987 1.390 . S
C989 C990 1.387 . S
C989 H992 0.950 . S
C990 C989 1.387 . S
C990 C993 1.387 . S
H991 C987 0.950 . S
H992 C989 0.950 . S
C993 C984 1.390 . S
C993 H986 0.950 . S
C993 C990 1.387 . S
C994 C995 1.387 1_565 S
C994 H998 0.950 . S
C994 C1003 1.390 . S
C995 C994 1.387 1_545 S
C995 C997 1.387 . S
H996 C1003 0.950 . S
C997 C995 1.387 . S
C997 C999 1.390 . S
C997 H1001 0.950 . S
H998 C994 0.950 . S
C999 C997 1.390 . S
C999 C1000 1.387 1_545 S
C999 H1002 0.950 . S
C1000 C999 1.387 1_565 S
C1000 C1003 1.387 . S
H1001 C997 0.950 . S
H1002 C999 0.950 . S
C1003 C994 1.390 . S
C1003 H996 0.950 . S
C1003 C1000 1.387 . S
C1004 C1005 1.387 . S
C1004 H1008 0.950 . S
C1004 C1013 1.390 . S
C1005 C1004 1.387 . S
C1005 C1007 1.387 . S
H1006 C1013 0.950 . S
C1007 C1005 1.387 . S
C1007 C1009 1.390 . S
C1007 H1011 0.950 . S
H1008 C1004 0.950 . S
C1009 C1007 1.390 . S
C1009 C1010 1.387 . S
C1009 H1012 0.950 . S
C1010 C1009 1.387 . S
C1010 C1013 1.387 . S
H1011 C1007 0.950 . S
H1012 C1009 0.950 . S
C1013 C1004 1.390 . S
C1013 H1006 0.950 . S
C1013 C1010 1.387 . S
C1014 C1015 1.387 1_545 S
C1014 H1018 0.950 . S
C1014 C1023 1.390 1_456 S
C1015 C1014 1.387 1_565 S
C1015 C1017 1.387 . S
H1016 C1023 0.950 . S
C1017 C1015 1.387 . S
C1017 C1019 1.390 1_456 S
C1017 H1021 0.950 . S
H1018 C1014 0.950 . S
C1019 C1017 1.390 1_654 S
C1019 C1020 1.387 1_565 S
C1019 H1022 0.950 . S
C1020 C1019 1.387 1_545 S
C1020 C1023 1.387 . S
H1021 C1017 0.950 . S
H1022 C1019 0.950 . S
C1023 C1014 1.390 1_654 S
C1023 H1016 0.950 . S
C1023 C1020 1.387 . S
C1024 C1025 1.387 . S
C1024 H1028 0.950 . S
C1024 C1033 1.390 . S
C1025 C1024 1.387 . S
C1025 C1027 1.387 . S
H1026 C1033 0.950 . S
C1027 C1025 1.387 . S
C1027 C1029 1.390 . S
C1027 H1031 0.950 . S
H1028 C1024 0.950 . S
C1029 C1027 1.390 . S
C1029 C1030 1.387 . S
C1029 H1032 0.950 . S
C1030 C1029 1.387 . S
C1030 C1033 1.387 . S
H1031 C1027 0.950 . S
H1032 C1029 0.950 . S
C1033 C1024 1.390 . S
C1033 H1026 0.950 . S
C1033 C1030 1.387 . S
C1034 C1035 1.387 . S
C1034 H1038 0.950 . S
C1034 C1043 1.390 . S
C1035 C1034 1.387 . S
C1035 C1037 1.387 . S
H1036 C1043 0.950 . S
C1037 C1035 1.387 . S
C1037 C1039 1.390 . S
C1037 H1041 0.950 . S
H1038 C1034 0.950 . S
C1039 C1037 1.390 . S
C1039 C1040 1.387 . S
C1039 H1042 0.950 . S
C1040 C1039 1.387 . S
C1040 C1043 1.387 . S
H1041 C1037 0.950 . S
H1042 C1039 0.950 . S
C1043 C1034 1.390 . S
C1043 H1036 0.950 . S
C1043 C1040 1.387 . S
C1044 C1045 1.387 . S
C1044 H1048 0.950 . S
C1044 C1053 1.390 . S
C1045 C1044 1.387 . S
C1045 C1047 1.387 . S
H1046 C1053 0.950 . S
C1047 C1045 1.387 . S
C1047 C1049 1.390 . S
C1047 H1051 0.950 . S
H1048 C1044 0.950 . S
C1049 C1047 1.390 . S
C1049 C1050 1.387 . S
C1049 H1052 0.950 . S
C1050 C1049 1.387 . S
C1050 C1053 1.387 . S
H1051 C1047 0.950 . S
H1052 C1049 0.950 . S
C1053 C1044 1.390 . S
C1053 H1046 0.950 . S
C1053 C1050 1.387 . S
C1054 C1055 1.387 . S
C1054 H1058 0.950 . S
C1054 C1063 1.390 . S
C1055 C1054 1.387 . S
C1055 C1057 1.387 . S
H1056 C1063 0.950 . S
C1057 C1055 1.387 . S
C1057 C1059 1.390 . S
C1057 H1061 0.950 . S
H1058 C1054 0.950 . S
C1059 C1057 1.390 . S
C1059 C1060 1.387 . S
C1059 H1062 0.950 . S
C1060 C1059 1.387 . S
C1060 C1063 1.387 . S
H1061 C1057 0.950 . S
H1062 C1059 0.950 . S
C1063 C1054 1.390 . S
C1063 H1056 0.950 . S
C1063 C1060 1.387 . S
C1064 C1065 1.387 . S
C1064 H1068 0.950 . S
C1064 C1073 1.390 1_554 S
C1065 C1064 1.387 . S
C1065 C1067 1.387 . S
H1066 C1073 0.950 . S
C1067 C1065 1.387 . S
C1067 C1069 1.390 1_554 S
C1067 H1071 0.950 . S
H1068 C1064 0.950 . S
C1069 C1067 1.390 1_556 S
C1069 C1070 1.387 . S
C1069 H1072 0.950 . S
C1070 C1069 1.387 . S
C1070 C1073 1.387 . S
H1071 C1067 0.950 . S
H1072 C1069 0.950 . S
C1073 C1064 1.390 1_556 S
C1073 H1066 0.950 . S
C1073 C1070 1.387 . S
C1074 C1075 1.387 . S
C1074 H1078 0.950 . S
C1074 C1083 1.390 1_455 S
C1075 C1074 1.387 . S
C1075 C1077 1.387 . S
H1076 C1083 0.950 . S
C1077 C1075 1.387 . S
C1077 C1079 1.390 1_455 S
C1077 H1081 0.950 . S
H1078 C1074 0.950 . S
C1079 C1077 1.390 1_655 S
C1079 C1080 1.387 . S
C1079 H1082 0.950 . S
C1080 C1079 1.387 . S
C1080 C1083 1.387 . S
H1081 C1077 0.950 . S
H1082 C1079 0.950 . S
C1083 C1074 1.390 1_655 S
C1083 H1076 0.950 . S
C1083 C1080 1.387 . S
C1084 C1085 1.387 . S
C1084 H1088 0.950 . S
C1084 C1093 1.390 1_454 S
C1085 C1084 1.387 . S
C1085 C1087 1.387 . S
H1086 C1093 0.950 . S
C1087 C1085 1.387 . S
C1087 C1089 1.390 1_454 S
C1087 H1091 0.950 . S
H1088 C1084 0.950 . S
C1089 C1087 1.390 1_656 S
C1089 C1090 1.387 . S
C1089 H1092 0.950 . S
C1090 C1089 1.387 . S
C1090 C1093 1.387 . S
H1091 C1087 0.950 . S
H1092 C1089 0.950 . S
C1093 C1084 1.390 1_656 S
C1093 H1086 0.950 . S
C1093 C1090 1.387 . S
C1094 C1095 1.387 . S
C1094 H1098 0.950 . S
C1094 C1103 1.390 . S
C1095 C1094 1.387 . S
C1095 C1097 1.387 . S
H1096 C1103 0.950 . S
C1097 C1095 1.387 . S
C1097 C1099 1.390 . S
C1097 H1101 0.950 . S
H1098 C1094 0.950 . S
C1099 C1097 1.390 . S
C1099 C1100 1.387 . S
C1099 H1102 0.950 . S
C1100 C1099 1.387 . S
C1100 C1103 1.387 . S
H1101 C1097 0.950 . S
H1102 C1099 0.950 . S
C1103 C1094 1.390 . S
C1103 H1096 0.950 . S
C1103 C1100 1.387 . S
C1104 C1105 1.387 . S
C1104 H1108 0.950 . S
C1104 C1113 1.390 . S
C1105 C1104 1.387 . S
C1105 C1107 1.387 . S
H1106 C1113 0.950 1_556 S
C1107 C1105 1.387 . S
C1107 C1109 1.390 . S
C1107 H1111 0.950 . S
H1108 C1104 0.950 . S
C1109 C1107 1.390 . S
C1109 C1110 1.387 . S
C1109 H1112 0.950 . S
C1110 C1109 1.387 . S
C1110 C1113 1.387 . S
H1111 C1107 0.950 . S
H1112 C1109 0.950 . S
C1113 C1104 1.390 . S
C1113 H1106 0.950 1_554 S
C1113 C1110 1.387 . S
C1114 C1115 1.387 . S
C1114 H1118 0.950 . S
C1114 C1123 1.390 . S
C1115 C1114 1.387 . S
C1115 C1117 1.387 . S
H1116 C1123 0.950 . S
C1117 C1115 1.387 . S
C1117 C1119 1.390 . S
C1117 H1121 0.950 . S
H1118 C1114 0.950 . S
C1119 C1117 1.390 . S
C1119 C1120 1.387 . S
C1119 H1122 0.950 . S
C1120 C1119 1.387 . S
C1120 C1123 1.387 . S
H1121 C1117 0.950 . S
H1122 C1119 0.950 . S
C1123 C1114 1.390 . S
C1123 H1116 0.950 . S
C1123 C1120 1.387 . S
C1124 C1125 1.387 . S
C1124 H1128 0.950 . S
C1124 C1133 1.390 . S
C1125 C1124 1.387 . S
C1125 C1127 1.387 . S
H1126 C1133 0.950 . S
C1127 C1125 1.387 . S
C1127 C1129 1.390 . S
C1127 H1131 0.950 . S
H1128 C1124 0.950 . S
C1129 C1127 1.390 . S
C1129 C1130 1.387 . S
C1129 H1132 0.950 . S
C1130 C1129 1.387 . S
C1130 C1133 1.387 . S
H1131 C1127 0.950 . S
H1132 C1129 0.950 . S
C1133 C1124 1.390 . S
C1133 H1126 0.950 . S
C1133 C1130 1.387 . S
C1134 C1135 1.387 . S
C1134 H1138 0.950 1_556 S
C1134 C1143 1.390 . S
C1135 C1134 1.387 . S
C1135 C1137 1.387 . S
H1136 C1143 0.950 . S
C1137 C1135 1.387 . S
C1137 C1139 1.390 . S
C1137 H1141 0.950 . S
H1138 C1134 0.950 1_554 S
C1139 C1137 1.390 . S
C1139 C1140 1.387 . S
C1139 H1142 0.950 . S
C1140 C1139 1.387 . S
C1140 C1143 1.387 . S
H1141 C1137 0.950 . S
H1142 C1139 0.950 . S
C1143 C1134 1.390 . S
C1143 H1136 0.950 . S
C1143 C1140 1.387 . S
C1144 C1145 1.387 . S
C1144 H1148 0.950 . S
C1144 C1153 1.390 . S
C1145 C1144 1.387 . S
C1145 C1147 1.387 . S
H1146 C1153 0.950 . S
C1147 C1145 1.387 . S
C1147 C1149 1.390 . S
C1147 H1151 0.950 . S
H1148 C1144 0.950 . S
C1149 C1147 1.390 . S
C1149 C1150 1.387 . S
C1149 H1152 0.950 . S
C1150 C1149 1.387 . S
C1150 C1153 1.387 . S
H1151 C1147 0.950 . S
H1152 C1149 0.950 . S
C1153 C1144 1.390 . S
C1153 H1146 0.950 . S
C1153 C1150 1.387 . S
C1154 C1155 1.387 . S
C1154 H1158 0.950 . S
C1154 C1163 1.390 . S
C1155 C1154 1.387 . S
C1155 C1157 1.387 . S
H1156 C1163 0.950 . S
C1157 C1155 1.387 . S
C1157 C1159 1.390 . S
C1157 H1161 0.950 . S
H1158 C1154 0.950 . S
C1159 C1157 1.390 . S
C1159 C1160 1.387 . S
C1159 H1162 0.950 . S
C1160 C1159 1.387 . S
C1160 C1163 1.387 . S
H1161 C1157 0.950 . S
H1162 C1159 0.950 . S
C1163 C1154 1.390 . S
C1163 H1156 0.950 . S
C1163 C1160 1.387 . S
C1164 C1165 1.387 . S
C1164 H1168 0.950 . S
C1164 C1173 1.390 . S
C1165 C1164 1.387 . S
C1165 C1167 1.387 . S
H1166 C1173 0.950 . S
C1167 C1165 1.387 . S
C1167 C1169 1.390 . S
C1167 H1171 0.950 . S
H1168 C1164 0.950 . S
C1169 C1167 1.390 . S
C1169 C1170 1.387 . S
C1169 H1172 0.950 1_556 S
C1170 C1169 1.387 . S
C1170 C1173 1.387 . S
H1171 C1167 0.950 . S
H1172 C1169 0.950 1_554 S
C1173 C1164 1.390 . S
C1173 H1166 0.950 . S
C1173 C1170 1.387 . S
C1174 C1175 1.387 . S
C1174 H1178 0.950 . S
C1174 C1183 1.390 . S
C1175 C1174 1.387 . S
C1175 C1177 1.387 . S
H1176 C1183 0.950 . S
C1177 C1175 1.387 . S
C1177 C1179 1.390 . S
C1177 H1181 0.950 . S
H1178 C1174 0.950 . S
C1179 C1177 1.390 . S
C1179 C1180 1.387 . S
C1179 H1182 0.950 . S
C1180 C1179 1.387 . S
C1180 C1183 1.387 . S
H1181 C1177 0.950 . S
H1182 C1179 0.950 . S
C1183 C1174 1.390 . S
C1183 H1176 0.950 . S
C1183 C1180 1.387 . S
C1184 C1185 1.387 . S
C1184 H1188 0.950 1_556 S
C1184 C1193 1.390 . S
C1185 C1184 1.387 . S
C1185 C1187 1.387 . S
H1186 C1193 0.950 . S
C1187 C1185 1.387 . S
C1187 C1189 1.390 . S
C1187 H1191 0.950 . S
H1188 C1184 0.950 1_554 S
C1189 C1187 1.390 . S
C1189 C1190 1.387 . S
C1189 H1192 0.950 . S
C1190 C1189 1.387 . S
C1190 C1193 1.387 . S
H1191 C1187 0.950 . S
H1192 C1189 0.950 . S
C1193 C1184 1.390 . S
C1193 H1186 0.950 . S
C1193 C1190 1.387 . S
C1194 C1195 1.387 . S
C1194 H1198 0.950 . S
C1194 C1203 1.390 . S
C1195 C1194 1.387 . S
C1195 C1197 1.387 . S
H1196 C1203 0.950 . S
C1197 C1195 1.387 . S
C1197 C1199 1.390 . S
C1197 H1201 0.950 . S
H1198 C1194 0.950 . S
C1199 C1197 1.390 . S
C1199 C1200 1.387 . S
C1199 H1202 0.950 . S
C1200 C1199 1.387 . S
C1200 C1203 1.387 . S
H1201 C1197 0.950 . S
H1202 C1199 0.950 . S
C1203 C1194 1.390 . S
C1203 H1196 0.950 . S
C1203 C1200 1.387 . S
C1204 C1205 1.387 . S
C1204 H1208 0.950 . S
C1204 C1213 1.390 . S
C1205 C1204 1.387 . S
C1205 C1207 1.387 . S
H1206 C1213 0.950 . S
C1207 C1205 1.387 . S
C1207 C1209 1.390 . S
C1207 H1211 0.950 . S
H1208 C1204 0.950 . S
C1209 C1207 1.390 . S
C1209 C1210 1.387 . S
C1209 H1212 0.950 . S
C1210 C1209 1.387 . S
C1210 C1213 1.387 . S
H1211 C1207 0.950 . S
H1212 C1209 0.950 . S
C1213 C1204 1.390 . S
C1213 H1206 0.950 . S
C1213 C1210 1.387 . S
C1214 C1215 1.387 . S
C1214 H1218 0.950 . S
C1214 C1223 1.390 . S
C1215 C1214 1.387 . S
C1215 C1217 1.387 . S
H1216 C1223 0.950 1_556 S
C1217 C1215 1.387 . S
C1217 C1219 1.390 . S
C1217 H1221 0.950 . S
H1218 C1214 0.950 . S
C1219 C1217 1.390 . S
C1219 C1220 1.387 . S
C1219 H1222 0.950 . S
C1220 C1219 1.387 . S
C1220 C1223 1.387 . S
H1221 C1217 0.950 . S
H1222 C1219 0.950 . S
C1223 C1214 1.390 . S
C1223 H1216 0.950 1_554 S
C1223 C1220 1.387 . S
C1224 C1225 1.387 . S
C1224 H1228 0.950 . S
C1224 C1233 1.390 . S
C1225 C1224 1.387 . S
C1225 C1227 1.387 . S
H1226 C1233 0.950 . S
C1227 C1225 1.387 . S
C1227 C1229 1.390 . S
C1227 H1231 0.950 . S
H1228 C1224 0.950 . S
C1229 C1227 1.390 . S
C1229 C1230 1.387 . S
C1229 H1232 0.950 . S
C1230 C1229 1.387 . S
C1230 C1233 1.387 . S
H1231 C1227 0.950 . S
H1232 C1229 0.950 . S
C1233 C1224 1.390 . S
C1233 H1226 0.950 . S
C1233 C1230 1.387 . S
C1234 C1235 1.387 . S
C1234 H1238 0.950 . S
C1234 C1243 1.390 . S
C1235 C1234 1.387 . S
C1235 C1237 1.387 . S
H1236 C1243 0.950 . S
C1237 C1235 1.387 . S
C1237 C1239 1.390 . S
C1237 H1241 0.950 . S
H1238 C1234 0.950 . S
C1239 C1237 1.390 . S
C1239 C1240 1.387 . S
C1239 H1242 0.950 . S
C1240 C1239 1.387 . S
C1240 C1243 1.387 . S
H1241 C1237 0.950 . S
H1242 C1239 0.950 . S
C1243 C1234 1.390 . S
C1243 H1236 0.950 . S
C1243 C1240 1.387 . S
C1244 C1245 1.387 . S
C1244 H1248 0.950 . S
C1244 C1253 1.390 . S
C1245 C1244 1.387 . S
C1245 C1247 1.387 . S
H1246 C1253 0.950 1_556 S
C1247 C1245 1.387 . S
C1247 C1249 1.390 . S
C1247 H1251 0.950 . S
H1248 C1244 0.950 . S
C1249 C1247 1.390 . S
C1249 C1250 1.387 . S
C1249 H1252 0.950 . S
C1250 C1249 1.387 . S
C1250 C1253 1.387 . S
H1251 C1247 0.950 . S
H1252 C1249 0.950 . S
C1253 C1244 1.390 . S
C1253 H1246 0.950 1_554 S
C1253 C1250 1.387 . S
C1254 C1255 1.387 . S
C1254 H1258 0.950 1_556 S
C1254 C1263 1.390 . S
C1255 C1254 1.387 . S
C1255 C1257 1.387 . S
H1256 C1263 0.950 . S
C1257 C1255 1.387 . S
C1257 C1259 1.390 . S
C1257 H1261 0.950 . S
H1258 C1254 0.950 1_554 S
C1259 C1257 1.390 . S
C1259 C1260 1.387 . S
C1259 H1262 0.950 . S
C1260 C1259 1.387 . S
C1260 C1263 1.387 . S
H1261 C1257 0.950 . S
H1262 C1259 0.950 . S
C1263 C1254 1.390 . S
C1263 H1256 0.950 . S
C1263 C1260 1.387 . S
C945 C33 1.650 . S
C950 C741 1.650 . S
C955 C111 1.641 . S
C960 C347 1.639 . S
C965 C151 1.649 . S
C970 C859 1.649 . S
C975 C465 1.640 . S
C980 C229 1.640 . S
C985 C878 1.640 . S
C990 C170 1.640 . S
C995 C446 1.649 . S
C1000 C210 1.649 . S
C1005 C760 1.640 . S
C1010 C52 1.640 . S
C1015 C328 1.649 . S
C1020 C92 1.649 . S
C1025 C269 1.650 . S
C1030 C505 1.650 . S
C1035 C387 1.650 . S
C1040 C623 1.650 . S
C1045 C642 1.639 . S
C1050 C406 1.639 . S
C1055 C288 1.640 . S
C1060 C524 1.640 . S
C1065 C819 1.640 . S
C1070 C583 1.640 . S
C1075 C701 1.639 . S
C1080 C937 1.639 . S
C1085 C682 1.649 . S
C1090 C918 1.649 . S
C1095 C564 1.650 . S
C1100 C800 1.650 . S
C1105 C654 1.515 . S
C1110 C5 1.515 . S
C1115 C475 1.514 . S
C1120 C62 1.515 . S
C1125 C123 1.515 . S
C1130 C536 1.515 . S
C1135 C593 1.515 . S
C1140 C180 1.514 . S
C1145 C652 1.515 . S
C1150 C121 1.514 . S
C1155 C182 1.515 . S
C1160 C477 1.515 . S
C1165 C534 1.515 . S
C1170 C3 1.514 . S
C1175 C595 1.515 . S
C1180 C64 1.515 . S
C1185 C241 1.515 . S
C1190 C890 1.515 . S
C1195 C711 1.515 . S
C1200 C298 1.514 . S
C1205 C359 1.515 . S
C1210 C772 1.515 . S
C1215 C416 1.515 . S
C1220 C829 1.514 . S
C1225 C357 1.514 . S
C1230 C888 1.515 . S
C1235 C713 1.515 . S
C1240 C418 1.515 . S
C1245 C770 1.515 . S
C1250 C239 1.514 . S
C1255 C831 1.515 . S
C1260 C300 1.515 . S
