# Generated by pormake.
# Topology fcu, (12)-cn, num edge types: 1
# Building blocks:
#     Node 0, Type 0, BuildingBlock: ENOWUB_clean_sbu_0, # of connection points: 12
#     Node 1, Type 0, BuildingBlock: ENOWUB_clean_sbu_0, # of connection points: 12
#     Node 2, Type 0, BuildingBlock: ENOWUB_clean_sbu_0, # of connection points: 12
#     Node 3, Type 0, BuildingBlock: ENOWUB_clean_sbu_0, # of connection points: 12
#     Edge 4, Type (0, 0), BuildingBlock: MIFKUJ_clean_linker_0, # of connection points: 2
#     Edge 5, Type (0, 0), BuildingBlock: MIFKUJ_clean_linker_0, # of connection points: 2
#     Edge 6, Type (0, 0), BuildingBlock: MIFKUJ_clean_linker_0, # of connection points: 2
#     Edge 7, Type (0, 0), BuildingBlock: MIFKUJ_clean_linker_0, # of connection points: 2
#     Edge 8, Type (0, 0), BuildingBlock: MIFKUJ_clean_linker_0, # of connection points: 2
#     Edge 9, Type (0, 0), BuildingBlock: MIFKUJ_clean_linker_0, # of connection points: 2
#     Edge 10, Type (0, 0), BuildingBlock: MIFKUJ_clean_linker_0, # of connection points: 2
#     Edge 11, Type (0, 0), BuildingBlock: MIFKUJ_clean_linker_0, # of connection points: 2
#     Edge 12, Type (0, 0), BuildingBlock: MIFKUJ_clean_linker_0, # of connection points: 2
#     Edge 13, Type (0, 0), BuildingBlock: MIFKUJ_clean_linker_0, # of connection points: 2
#     Edge 14, Type (0, 0), BuildingBlock: MIFKUJ_clean_linker_0, # of connection points: 2
#     Edge 15, Type (0, 0), BuildingBlock: MIFKUJ_clean_linker_0, # of connection points: 2
#     Edge 16, Type (0, 0), BuildingBlock: MIFKUJ_clean_linker_0, # of connection points: 2
#     Edge 17, Type (0, 0), BuildingBlock: MIFKUJ_clean_linker_0, # of connection points: 2
#     Edge 18, Type (0, 0), BuildingBlock: MIFKUJ_clean_linker_0, # of connection points: 2
#     Edge 19, Type (0, 0), BuildingBlock: MIFKUJ_clean_linker_0, # of connection points: 2
#     Edge 20, Type (0, 0), BuildingBlock: MIFKUJ_clean_linker_0, # of connection points: 2
#     Edge 21, Type (0, 0), BuildingBlock: MIFKUJ_clean_linker_0, # of connection points: 2
#     Edge 22, Type (0, 0), BuildingBlock: MIFKUJ_clean_linker_0, # of connection points: 2
#     Edge 23, Type (0, 0), BuildingBlock: MIFKUJ_clean_linker_0, # of connection points: 2
#     Edge 24, Type (0, 0), BuildingBlock: MIFKUJ_clean_linker_0, # of connection points: 2
#     Edge 25, Type (0, 0), BuildingBlock: MIFKUJ_clean_linker_0, # of connection points: 2
#     Edge 26, Type (0, 0), BuildingBlock: MIFKUJ_clean_linker_0, # of connection points: 2
#     Edge 27, Type (0, 0), BuildingBlock: MIFKUJ_clean_linker_0, # of connection points: 2
# Relax obj value: 0.000
# Max RMSD: 0.000
# Mean RMSD: 0.000
data_MOF--net-fcu--node1-ENOWUB_clean_sbu_0--edge1-MIFKUJ_clean_linker_0
_symmetry_space_group_name_H-M    P1
_symmetry_Int_Tables_number       1
_symmetry_cell_setting            triclinic
loop_
_symmetry_equiv_pos_as_xyz
'x, y, z'
_cell_length_a     33.29312
_cell_length_b     33.154062
_cell_length_c     33.184529
_cell_angle_alpha  89.871921
_cell_angle_beta   89.982334
_cell_angle_gamma 89.676781
loop_
_atom_site_label
_atom_site_type_symbol
_atom_site_fract_x
_atom_site_fract_y
_atom_site_fract_z
_atom_type_partial_charge
O0 O 0.1114 0.94277 0.96531 0.0
O1 O 0.04307 0.94991 0.02136 0.0
O2 O 0.02777 0.04826 0.96195 0.0
O3 O 0.03253 0.96865 0.9425 0.0
O4 O 0.03855 0.02888 0.04116 0.0
Zr5 Zr 0.07487 0.00229 0.98696 0.0
Zr6 Zr 0.00564 0.97651 0.07473 0.0
Zr7 Zr 0.00022 0.91683 0.97702 0.0
O8 O 0.95785 0.02233 0.0505 0.0
O9 O 0.95165 0.96142 0.95181 0.0
O10 O 0.96288 0.94281 0.03073 0.0
Zr11 Zr 0.99066 0.0741 0.01593 0.0
Zr12 Zr 0.98438 0.01403 0.91864 0.0
Zr13 Zr 0.91562 0.98859 0.00591 0.0
O14 O 0.94738 0.04108 0.9718 0.0
O15 O 0.87868 0.04928 0.02414 0.0
O16 O 0.88704 0.92247 0.99363 0.0
O17 O 0.10434 0.06629 0.00544 0.0
O18 O 0.98503 0.12226 0.96031 0.0
O19 O 0.00795 0.86884 0.03217 0.0
O20 O -0.00429 0.90049 0.90578 0.0
O21 O 0.99282 0.08971 0.08728 0.0
O22 O 0.94587 0.96253 0.11426 0.0
O23 O 0.04374 0.0259 0.8788 0.0
O24 O 0.91572 0.01942 0.89571 0.0
O25 O 0.07449 0.96924 0.09721 0.0
O26 O 0.92367 0.10133 0.02701 0.0
O27 O 0.06689 0.89034 0.96266 0.0
O28 O 0.93829 0.87924 0.97661 0.0
O29 O 0.05375 0.10981 0.02337 0.0
O30 O 0.11616 0.98336 0.04409 0.0
O31 O 0.87392 0.00317 0.94803 0.0
O32 O 0.8917 0.97006 0.07233 0.0
O33 O 0.09871 0.02219 0.92031 0.0
C34 C 0.10239 0.90549 0.9593 0.0
O35 O 0.00487 0.03177 0.1232 0.0
O36 O 0.01186 0.90523 0.09076 0.0
C37 C 0.88783 0.08674 0.02902 0.0
C38 C 0.90109 0.88747 0.98376 0.0
C39 C 0.09114 0.10062 0.01824 0.0
C40 C 0.98097 0.11904 0.92168 0.0
C41 C 0.01156 0.87185 0.07081 0.0
C42 C 0.98934 0.92015 0.87272 0.0
C43 C -0.00137 0.07021 0.12052 0.0
C44 C 0.90783 0.96201 0.10679 0.0
C45 C 0.08174 0.02793 0.88572 0.0
C46 C 0.88071 0.01426 0.91143 0.0
C47 C 0.10945 0.97228 0.08074 0.0
O48 O 0.98356 0.95867 0.87016 0.0
O49 O 0.97943 0.08536 0.90226 0.0
O50 O 0.10584 0.43548 0.50979 0.0
O51 O 0.03494 0.46747 0.54419 0.0
O52 O 0.03055 0.52646 0.44398 0.0
O53 O 0.03143 0.44753 0.46495 0.0
O54 O 0.03355 0.54738 0.52326 0.0
Zr55 Zr 0.07194 0.49739 0.49262 0.0
Zr56 Zr -0.0044 0.51755 0.57426 0.0
Zr57 Zr 0.99321 0.41843 0.51603 0.0
O58 O 0.95293 0.54744 0.52652 0.0
O59 O 0.95053 0.44729 0.46796 0.0
O60 O 0.95393 0.46814 0.54694 0.0
Zr61 Zr 0.99117 0.57588 0.47479 0.0
Zr62 Zr 0.98894 0.47687 0.41722 0.0
Zr63 Zr 0.91227 0.49774 0.49849 0.0
O64 O 0.94923 0.5272 0.44652 0.0
O65 O 0.87818 0.55966 0.47956 0.0
O66 O 0.87983 0.4358 0.51873 0.0
O67 O 0.10457 0.55939 0.4722 0.0
O68 O -0.00436 0.5904 0.40302 0.0
O69 O -0.00334 0.40346 0.58735 0.0
O70 O 0.9914 0.36915 0.46122 0.0
O71 O -0.00601 0.62496 0.52953 0.0
O72 O 0.93185 0.52805 0.60788 0.0
O73 O 0.05266 0.46287 0.38475 0.0
O74 O 0.92284 0.46698 0.38815 0.0
O75 O 0.0619 0.52731 0.60308 0.0
O76 O 0.92591 0.60721 0.46559 0.0
O77 O 0.05895 0.38667 0.52189 0.0
O78 O 0.92843 0.38766 0.52934 0.0
O79 O 0.05555 0.60735 0.46359 0.0
O80 O 0.1079 0.51608 0.553 0.0
O81 O 0.87661 0.47726 0.43827 0.0
O82 O 0.8818 0.51655 0.56201 0.0
O83 O 0.10257 0.4758 0.4303 0.0
C84 C 0.09546 0.3992 0.51867 0.0
O85 O -0.00109 0.58933 0.58877 0.0
O86 O -0.00236 0.46231 0.62343 0.0
C87 C 0.88921 0.59533 0.46881 0.0
C88 C 0.89157 0.39994 0.52843 0.0
C89 C 0.09247 0.59545 0.46368 0.0
C90 C -0.00423 0.56979 0.37003 0.0
C91 C -0.00216 0.42337 0.62069 0.0
C92 C 0.98968 0.37201 0.42237 0.0
C93 C -0.00236 0.62248 0.56826 0.0
C94 C 0.89461 0.52608 0.59739 0.0
C95 C 0.08983 0.46427 0.39555 0.0
C96 C 0.88657 0.46781 0.4019 0.0
C97 C 0.09815 0.52561 0.58936 0.0
O98 O 0.98841 0.40546 0.40247 0.0
O99 O 0.99236 0.53107 0.36769 0.0
O100 O 0.61286 0.97922 0.44582 0.0
O101 O 0.54122 0.02793 0.45278 0.0
O102 O 0.52628 0.96258 0.54876 0.0
O103 O 0.53448 0.94716 0.46879 0.0
O104 O 0.5313 0.04239 0.53311 0.0
Zr105 Zr 0.57248 0.99276 0.50535 0.0
Zr106 Zr 0.49864 0.07648 0.48101 0.0
Zr107 Zr 0.50159 0.98209 0.4175 0.0
O108 O 0.45111 0.04698 0.52369 0.0
O109 O 0.4544 0.95119 0.45931 0.0
O110 O 0.45956 0.03157 0.44421 0.0
Zr111 Zr 0.48407 0.01232 0.57539 0.0
Zr112 Zr 0.48745 0.91776 0.51173 0.0
Zr113 Zr 0.41313 0.00091 0.48686 0.0
O114 O 0.44502 0.96657 0.53943 0.0
O115 O 0.37304 0.01597 0.54611 0.0
O116 O 0.38732 0.98868 0.41937 0.0
O117 O 0.59778 0.00027 0.57312 0.0
O118 O 0.47608 0.95485 0.62055 0.0
O119 O 0.5042 0.03952 0.37194 0.0
O120 O 0.49987 0.91172 0.39804 0.0
O121 O 0.48973 0.08268 0.59544 0.0
O122 O 0.43596 0.11282 0.47073 0.0
O123 O 0.5496 0.88108 0.52249 0.0
O124 O 0.42098 0.88859 0.50948 0.0
O125 O 0.56564 0.10564 0.48408 0.0
O126 O 0.41605 0.02273 0.5996 0.0
O127 O 0.56938 0.97261 0.39281 0.0
O128 O 0.4413 0.97816 0.37764 0.0
O129 O 0.54461 0.01217 0.61544 0.0
O130 O 0.60949 0.05502 0.50169 0.0
O131 O 0.37585 0.93898 0.49513 0.0
O132 O 0.38519 0.06647 0.4718 0.0
O133 O 0.60075 0.92674 0.51805 0.0
C134 C 0.6049 0.97271 0.40833 0.0
O135 O 0.49642 0.12128 0.53837 0.0
O136 O 0.50267 0.09652 0.41079 0.0
C137 C 0.38072 0.02259 0.58362 0.0
C138 C 0.4034 0.98134 0.38471 0.0
C139 C 0.5823 0.00702 0.60809 0.0
C140 C 0.47564 0.91619 0.61577 0.0
C141 C 0.50352 0.07818 0.37652 0.0
C142 C 0.49761 0.87762 0.41663 0.0
C143 C 0.49391 0.1167 0.57687 0.0
C144 C 0.39867 0.10265 0.46827 0.0
C145 C 0.58704 0.89077 0.52277 0.0
C146 C 0.3851 0.90198 0.50302 0.0
C147 C 0.6009 0.09206 0.49344 0.0
O148 O 0.49388 0.87249 0.45493 0.0
O149 O 0.47926 0.89796 0.58163 0.0
O150 O 0.59485 0.41572 0.99427 0.0
O151 O 0.52261 0.44234 0.032 0.0
O152 O 0.53944 0.53713 0.96762 0.0
O153 O 0.52992 0.45711 0.95234 0.0
O154 O 0.53226 0.52241 0.04782 0.0
Zr155 Zr 0.57049 0.48431 0.0027 0.0
Zr156 Zr 0.48379 0.48041 0.07635 0.0
Zr157 Zr 0.48104 0.41637 0.98177 0.0
O158 O 0.45134 0.53333 0.04251 0.0
O159 O 0.44874 0.46819 0.94647 0.0
O160 O 0.44201 0.45369 0.02683 0.0
Zr161 Zr 0.49972 0.57412 0.01241 0.0
Zr162 Zr 0.49782 0.50979 0.91838 0.0
Zr163 Zr 0.41081 0.50644 0.99192 0.0
O164 O 0.45884 0.54756 0.96249 0.0
O165 O 0.38666 0.57538 -0.00421 0.0
O166 O 0.36991 0.44716 0.98221 0.0
O167 O 0.6113 0.54397 0.01335 0.0
O168 O 0.50572 0.61913 0.95499 0.0
O169 O 0.47013 0.37218 0.0388 0.0
O170 O 0.48482 0.39619 0.91157 0.0
O171 O 0.49618 0.59404 0.0826 0.0
O172 O 0.41756 0.48888 0.10507 0.0
O173 O 0.56469 0.5058 0.89035 0.0
O174 O 0.43698 0.52401 0.88126 0.0
O175 O 0.54482 0.46418 0.1131 0.0
O176 O 0.44032 0.61672 0.0077 0.0
O177 O 0.54098 0.37418 0.98372 0.0
O178 O 0.4124 0.39316 0.97371 0.0
O179 O 0.56797 0.59762 0.01885 0.0
O180 O 0.59745 0.46841 0.06885 0.0
O181 O 0.38406 0.52182 0.9254 0.0
O182 O 0.37328 0.50472 0.05445 0.0
O183 O 0.60874 0.48923 0.94091 0.0
C184 C 0.57886 0.38084 0.98842 0.0
O185 O 0.49176 0.53688 0.12168 0.0
O186 O 0.47044 0.41084 0.09596 0.0
C187 C 0.40277 0.61031 0.00077 0.0
C188 C 0.37713 0.40941 0.97615 0.0
C189 C 0.60346 0.58188 0.01782 0.0
C190 C 0.5062 0.61431 0.91642 0.0
C191 C 0.46711 0.37686 0.07724 0.0
C192 C 0.48928 0.41462 0.87756 0.0
C193 C 0.49457 0.57529 0.11665 0.0
C194 C 0.38231 0.49801 0.09167 0.0
C195 C 0.60005 0.49743 0.90392 0.0
C196 C 0.39937 0.52696 0.89 0.0
C197 C 0.58251 0.4621 0.10419 0.0
O198 O 0.49354 0.45298 0.87309 0.0
O199 O 0.50472 0.57994 0.89825 0.0
H200 H 0.97985 0.15001 0.12831 0.0
H201 H 0.9807 0.19073 0.18894 0.0
H202 H 0.01566 0.08689 0.25931 0.0
H203 H 0.01473 0.0451 0.19827 0.0
H204 H 0.95222 0.14223 0.29447 0.0
H205 H 0.08761 0.14485 0.24026 0.0
H206 H 0.13354 0.14944 0.18207 0.0
H207 H 0.08827 0.26771 0.15457 0.0
H208 H 0.0419 0.26389 0.21249 0.0
H209 H -0.00297 0.29289 0.44812 0.0
H210 H 0.00107 0.23231 0.40573 0.0
H211 H 0.98742 0.30616 0.29941 0.0
H212 H 0.9834 0.36611 0.3407 0.0
H213 H 0.04988 0.25478 0.29231 0.0
H214 H 0.91066 0.25191 0.33275 0.0
H215 H 0.85377 0.24899 0.38031 0.0
H216 H 0.89739 0.13584 0.42638 0.0
H217 H 0.95481 0.1383 0.37932 0.0
C218 C 0.98765 0.13547 0.15652 0.0
C219 C -0.00225 0.09423 0.15817 0.0
C220 C 0.98795 0.15889 0.19123 0.0
C221 C -0.00141 0.14183 0.22839 0.0
C222 C 0.00739 0.10049 0.23076 0.0
C223 C 0.00705 0.0768 0.19584 0.0
C224 C 0.00271 0.16849 0.26375 0.0
C225 C 0.97427 0.16619 0.29487 0.0
C226 C 0.03092 0.20019 0.26339 0.0
C227 C 0.06114 0.20397 0.23063 0.0
C228 C 0.08752 0.17188 0.22188 0.0
C229 C 0.11353 0.17429 0.18887 0.0
C230 C 0.11343 0.20859 0.16438 0.0
C231 C 0.08809 0.24104 0.17344 0.0
C232 C 0.06208 0.23886 0.20648 0.0
C233 C -0.00534 0.29615 0.41573 0.0
C234 C 0.99012 0.33454 0.39795 0.0
C235 C -0.00305 0.26152 0.3916 0.0
C236 C -0.00522 0.26486 0.34945 0.0
C237 C 0.98956 0.30295 0.33186 0.0
C238 C 0.98716 0.33729 0.35571 0.0
C239 C -0.00131 0.22929 0.3228 0.0
C240 C 0.02874 0.23 0.29309 0.0
C241 C 0.97139 0.19672 0.32409 0.0
C242 C 0.9374 0.19561 0.35299 0.0
C243 C 0.90841 0.22666 0.35338 0.0
C244 C 0.87598 0.22502 0.38013 0.0
C245 C 0.87207 0.19235 0.40648 0.0
C246 C 0.90053 0.1612 0.40605 0.0
C247 C 0.93301 0.16269 0.37933 0.0
H248 H 0.84693 0.19113 0.42714 0.0
H249 H 0.13306 0.21002 0.13843 0.0
H250 H 0.8267 0.9509 0.10316 0.0
H251 H 0.78007 0.94685 0.15935 0.0
H252 H 0.8788 0.94933 0.24329 0.0
H253 H 0.92623 0.95387 0.18713 0.0
H254 H 0.81674 0.89668 0.26675 0.0
H255 H 0.83314 0.03357 0.22296 0.0
H256 H 0.83581 0.08875 0.1731 0.0
H257 H 0.71218 0.069 0.14271 0.0
H258 H 0.70897 0.01302 0.19171 0.0
H259 H 0.68514 0.96588 0.42689 0.0
H260 H 0.74108 0.95735 0.37972 0.0
H261 H 0.6576 0.95411 0.28043 0.0
H262 H 0.60175 0.96278 0.32677 0.0
H263 H 0.71787 0.00926 0.27021 0.0
H264 H 0.70247 0.86994 0.3102 0.0
H265 H 0.69936 0.81383 0.35904 0.0
H266 H 0.81978 0.83892 0.39735 0.0
H267 H 0.82345 0.89555 0.34909 0.0
C268 C 0.83876 0.95017 0.13347 0.0
C269 C 0.88023 0.95361 0.14062 0.0
C270 C 0.812 0.94758 0.16552 0.0
C271 C 0.82607 0.94833 0.20528 0.0
C272 C 0.86749 0.94889 0.21269 0.0
C273 C 0.89446 0.95162 0.18055 0.0
C274 C 0.79713 0.95207 0.23868 0.0
C275 C 0.79546 0.92155 0.26801 0.0
C276 C 0.76933 0.9845 0.23983 0.0
C277 C 0.77097 0.01872 0.21077 0.0
C278 C 0.80661 0.04071 0.20542 0.0
C279 C 0.80822 0.07214 0.17729 0.0
C280 C 0.77427 0.08216 0.15458 0.0
C281 C 0.73852 0.06102 0.16018 0.0
C282 C 0.73679 0.02944 0.18813 0.0
C283 C 0.67865 0.96313 0.39504 0.0
C284 C 0.63892 0.96541 0.38063 0.0
C285 C 0.71062 0.95803 0.36823 0.0
C286 C 0.70327 0.95509 0.32676 0.0
C287 C 0.66374 0.95642 0.31242 0.0
C288 C 0.63186 0.96139 0.33904 0.0
C289 C 0.73662 0.9533 0.29764 0.0
C290 C 0.73931 0.98449 0.26922 0.0
C291 C 0.76518 0.92156 0.29746 0.0
C292 C 0.76306 0.88735 0.32636 0.0
C293 C 0.72817 0.86376 0.32929 0.0
C294 C 0.72633 0.83179 0.35682 0.0
C295 C 0.75929 0.82293 0.3814 0.0
C296 C 0.79423 0.84589 0.37836 0.0
C297 C 0.79622 0.8779 0.3509 0.0
H298 H 0.75779 0.79824 0.40274 0.0
H299 H 0.77563 0.10641 0.13275 0.0
H300 H 0.9814 0.79768 0.05172 0.0
H301 H 0.9819 0.73686 0.09397 0.0
H302 H 0.04821 0.80045 0.18539 0.0
H303 H 0.04758 0.86125 0.1437 0.0
H304 H 0.07792 0.72266 0.17018 0.0
H305 H 0.95228 0.79087 0.19744 0.0
H306 H 0.88557 0.82034 0.18322 0.0
H307 H 0.84572 0.70694 0.13598 0.0
H308 H 0.91242 0.67691 0.14947 0.0
H309 H 0.03782 0.6391 0.36043 0.0
H310 H 0.04645 0.67858 0.29896 0.0
H311 H 0.97717 0.59152 0.23259 0.0
H312 H 0.96877 0.55131 0.29428 0.0
H313 H 0.94942 0.67046 0.22449 0.0
H314 H 0.07337 0.60062 0.20257 0.0
H315 H 0.14025 0.57139 0.2165 0.0
H316 H 0.18246 0.68697 0.25569 0.0
H317 H 0.11603 0.71708 0.24115 0.0
C318 C -0.00352 0.7985 0.08063 0.0
C319 C 0.01436 0.83422 0.09451 0.0
C320 C -0.00345 0.76386 0.10475 0.0
C321 C 0.01492 0.76435 0.14279 0.0
C322 C 0.0339 0.79954 0.15608 0.0
C323 C 0.03335 0.83427 0.13232 0.0
C324 C 0.01351 0.72877 0.16963 0.0
C325 C 0.04985 0.71123 0.18214 0.0
C326 C 0.9768 0.71318 0.18417 0.0
C327 C 0.93748 0.73179 0.17399 0.0
C328 C 0.92951 0.77239 0.18342 0.0
C329 C 0.89166 0.78914 0.17567 0.0
C330 C 0.86146 0.76547 0.15881 0.0
C331 C 0.86917 0.72519 0.14911 0.0
C332 C 0.90698 0.7083 0.15677 0.0
C333 C 0.02456 0.62821 0.33272 0.0
C334 C 0.0021 0.59244 0.33222 0.0
C335 C 0.02998 0.65052 0.29751 0.0
C336 C 0.01276 0.63775 0.26118 0.0
C337 C 0.99095 0.60165 0.26032 0.0
C338 C 0.98608 0.57884 0.29552 0.0
C339 C 0.01389 0.66481 0.22571 0.0
C340 C 0.97747 0.68104 0.21171 0.0
C341 C 0.0505 0.67927 0.20988 0.0
C342 C 0.08971 0.66101 0.22098 0.0
C343 C 0.09682 0.61971 0.2145 0.0
C344 C 0.13472 0.60306 0.22221 0.0
C345 C 0.16558 0.62731 0.23698 0.0
C346 C 0.15857 0.66826 0.24414 0.0
C347 C 0.12088 0.68518 0.23593 0.0
H348 H 0.19492 0.61438 0.24289 0.0
H349 H 0.83195 0.7782 0.15364 0.0
H350 H 0.32735 0.95125 0.38478 0.0
H351 H 0.28391 0.94089 0.32609 0.0
H352 H 0.37584 0.98904 0.24828 0.0
H353 H 0.41957 -0.00094 0.30653 0.0
H354 H 0.29799 0.0235 0.23799 0.0
H355 H 0.36386 0.89549 0.24171 0.0
H356 H 0.38886 0.8311 0.2696 0.0
H357 H 0.26827 0.79612 0.29854 0.0
H358 H 0.24253 0.86055 0.27122 0.0
H359 H 0.18875 0.9846 0.06316 0.0
H360 H 0.2459 0.97483 0.10818 0.0
H361 H 0.16713 0.92764 0.19986 0.0
H362 H 0.10974 0.93678 0.15515 0.0
H363 H 0.24507 0.88991 0.19706 0.0
H364 H 0.18106 0.02165 0.20157 0.0
H365 H 0.15386 0.08079 0.1656 0.0
H366 H 0.27142 0.10802 0.12012 0.0
H367 H 0.29912 0.04796 0.15483 0.0
C368 C 0.33817 0.95967 0.35515 0.0
C369 C 0.37666 0.97596 0.35005 0.0
C370 C 0.31359 0.95344 0.32177 0.0
C371 C 0.32707 0.96392 0.28311 0.0
C372 C 0.36525 0.98059 0.27799 0.0
C373 C 0.39006 0.98623 0.3112 0.0
C374 C 0.30041 0.95925 0.24825 0.0
C375 C 0.287 0.99426 0.22853 0.0
C376 C 0.28584 0.92107 0.23655 0.0
C377 C 0.30128 0.88301 0.25463 0.0
C378 C 0.34269 0.87432 0.25448 0.0
C379 C 0.35699 0.83772 0.27001 0.0
C380 C 0.33014 0.80947 0.2856 0.0
C381 C 0.28899 0.81797 0.28623 0.0
C382 C 0.27453 0.85451 0.2707 0.0
C383 C 0.18358 0.97148 0.09262 0.0
C384 C 0.14455 0.96246 0.10599 0.0
C385 C 0.21631 0.96567 0.11811 0.0
C386 C 0.2104 0.95092 0.15724 0.0
C387 C 0.17207 0.93902 0.16963 0.0
C388 C 0.13929 0.94485 0.14423 0.0
C389 C 0.24254 0.95407 0.18732 0.0
C390 C 0.25667 0.91899 0.20625 0.0
C391 C 0.25777 0.99217 0.19848 0.0
C392 C 0.24206 0.03012 0.18044 0.0
C393 C 0.20112 0.04023 0.18389 0.0
C394 C 0.18559 0.07385 0.16364 0.0
C395 C 0.21087 0.09812 0.14048 0.0
C396 C 0.25186 0.08906 0.13794 0.0
C397 C 0.26749 0.0552 0.15786 0.0
H398 H 0.19866 0.12392 0.12451 0.0
H399 H 0.34121 0.78096 0.29715 0.0
H400 H 0.03114 0.85102 0.85869 0.0
H401 H 0.03368 0.81143 0.79694 0.0
H402 H 0.95235 0.89531 0.73941 0.0
H403 H 0.95003 0.93577 0.80144 0.0
H404 H 0.93167 0.81288 0.72882 0.0
H405 H 0.0438 0.89797 0.71071 0.0
H406 H 0.10631 0.93378 0.72732 0.0
H407 H 0.16808 0.8207 0.74178 0.0
H408 H 0.10568 0.78407 0.72645 0.0
H409 H 0.96536 0.69649 0.54975 0.0
H410 H 0.96608 0.75737 0.59176 0.0
H411 H 0.03792 0.6949 0.68046 0.0
H412 H 0.03698 0.63403 0.63909 0.0
H413 H 0.06175 0.77817 0.66385 0.0
H414 H 0.94325 0.69825 0.70442 0.0
H415 H 0.88487 0.65897 0.68124 0.0
H416 H 0.83966 0.76265 0.61799 0.0
H417 H 0.8975 0.80275 0.64123 0.0
C418 C 0.01374 0.86114 0.83296 0.0
C419 C 0.99036 0.89653 0.83494 0.0
C420 C 0.01546 0.83861 0.79759 0.0
C421 C -0.00643 0.85068 0.7635 0.0
C422 C 0.9697 0.8857 0.76536 0.0
C423 C 0.96849 0.90878 0.8007 0.0
C424 C -0.00484 0.82555 0.72665 0.0
C425 C 0.95997 0.80614 0.71399 0.0
C426 C 0.03219 0.81637 0.70754 0.0
C427 C 0.06981 0.8382 0.71766 0.0
C428 C 0.07054 0.88066 0.71794 0.0
C429 C 0.10599 0.90113 0.7271 0.0
C430 C 0.1411 0.87951 0.7357 0.0
C431 C 0.14081 0.83738 0.73522 0.0
C432 C 0.10538 0.81674 0.72631 0.0
C433 C 0.98169 0.69594 0.57798 0.0
C434 C 0.00068 0.66039 0.59141 0.0
C435 C 0.98203 0.73066 0.60191 0.0
C436 C 0.00194 0.73047 0.63922 0.0
C437 C 0.02249 0.69563 0.65172 0.0
C438 C 0.02162 0.66082 0.62821 0.0
C439 C -0.00136 0.76514 0.66707 0.0
C440 C 0.03345 0.78595 0.67814 0.0
C441 C 0.96145 0.77577 0.68469 0.0
C442 C 0.92448 0.75342 0.67462 0.0
C443 C 0.92049 0.71278 0.68604 0.0
C444 C 0.88759 0.6904 0.67281 0.0
C445 C 0.85854 0.70841 0.64819 0.0
C446 C 0.86198 0.74898 0.63734 0.0
C447 C 0.8947 0.77159 0.65067 0.0
H448 H 0.83348 0.6909 0.63729 0.0
H449 H 0.16854 0.89541 0.74265 0.0
H450 H 0.15715 0.06059 0.88444 0.0
H451 H 0.20099 0.06848 0.8255 0.0
H452 H 0.10869 0.01909 0.74928 0.0
H453 H 0.06466 0.01159 0.80747 0.0
H454 H 0.18346 0.97953 0.74514 0.0
H455 H 0.12632 0.11054 0.73832 0.0
H456 H 0.10571 0.17832 0.76082 0.0
H457 H 0.22906 0.20998 0.7796 0.0
H458 H 0.25048 0.1419 0.75873 0.0
H459 H 0.3051 0.04861 0.56374 0.0
H460 H 0.24724 0.05563 0.60898 0.0
H461 H 0.3205 0.01783 0.70941 0.0
H462 H 0.3785 0.01096 0.66484 0.0
H463 H 0.24703 0.10392 0.69235 0.0
H464 H 0.25215 0.93936 0.74817 0.0
H465 H 0.27006 0.87144 0.72383 0.0
H466 H 0.24538 0.90823 0.60213 0.0
H467 H 0.22609 0.97601 0.62592 0.0
C468 C 0.14613 0.05186 0.85504 0.0
C469 C 0.10761 0.0354 0.85054 0.0
C470 C 0.17098 0.05667 0.82147 0.0
C471 C 0.15775 0.04459 0.78325 0.0
C472 C 0.11913 0.02884 0.77859 0.0
C473 C 0.0941 0.02463 0.81188 0.0
C474 C 0.18562 0.04436 0.74889 0.0
C475 C 0.19707 0.00676 0.7333 0.0
C476 C 0.20283 0.08007 0.73342 0.0
C477 C 0.19001 0.12075 0.74739 0.0
C478 C 0.14908 0.13163 0.74799 0.0
C479 C 0.13724 0.17018 0.76041 0.0
C480 C 0.16606 0.19837 0.77186 0.0
C481 C 0.20677 0.18801 0.77106 0.0
C482 C 0.21877 0.1494 0.75897 0.0
C483 C 0.30891 0.04194 0.59549 0.0
C484 C 0.34628 0.02909 0.61076 0.0
C485 C 0.27597 0.04618 0.62119 0.0
C486 C 0.27993 0.03712 0.66222 0.0
C487 C 0.31716 0.02489 0.67768 0.0
C488 C 0.35019 0.02112 0.65221 0.0
C489 C 0.24504 0.03916 0.68921 0.0
C490 C 0.2327 0.07691 0.70373 0.0
C491 C 0.22663 0.00367 0.70355 0.0
C492 C 0.23836 0.96303 0.68879 0.0
C493 C 0.25054 0.93297 0.71621 0.0
C494 C 0.26084 0.89444 0.70251 0.0
C495 C 0.25915 0.88558 0.6614 0.0
C496 C 0.24693 0.9152 0.63394 0.0
C497 C 0.23634 0.95372 0.64753 0.0
H498 H 0.26715 0.85573 0.65084 0.0
H499 H 0.15689 0.22831 0.78116 0.0
H500 H -0.00092 0.34131 0.62677 0.0
H501 H -0.00464 0.30027 0.68715 0.0
H502 H -0.00553 0.40715 0.76081 0.0
H503 H -0.00194 0.44938 0.69987 0.0
H504 H 0.04814 0.33347 0.78569 0.0
H505 H 0.91088 0.37244 0.7539 0.0
H506 H 0.85761 0.38416 0.70348 0.0
H507 H 0.86263 0.25946 0.6692 0.0
H508 H 0.91628 0.24706 0.71912 0.0
H509 H -0.0048 0.1972 0.94579 0.0
H510 H -0.00398 0.25786 0.90344 0.0
H511 H 0.96439 0.18626 0.79994 0.0
H512 H 0.9629 0.12602 0.84167 0.0
H513 H 0.92288 0.25413 0.79962 0.0
H514 H 0.05999 0.21371 0.81896 0.0
H515 H 0.12195 0.19752 0.8564 0.0
H516 H 0.12497 0.31796 0.90347 0.0
H517 H 0.0623 0.33462 0.86711 0.0
C518 C -0.00162 0.3565 0.65563 0.0
C519 C -0.00154 0.3989 0.65825 0.0
C520 C -0.00364 0.3328 0.69018 0.0
C521 C -0.00562 0.35073 0.72825 0.0
C522 C -0.004 0.39288 0.73152 0.0
C523 C -0.00212 0.41688 0.69669 0.0
C524 C 0.98803 0.32466 0.76384 0.0
C525 C 0.0204 0.31694 0.7898 0.0
C526 C 0.95224 0.30228 0.76787 0.0
C527 C 0.91774 0.30888 0.74017 0.0
C528 C 0.90057 0.3475 0.73568 0.0
C529 C 0.87036 0.35427 0.70713 0.0
C530 C 0.85695 0.32262 0.683 0.0
C531 C 0.87315 0.28396 0.68787 0.0
C532 C 0.90336 0.27701 0.71639 0.0
C533 C 0.98803 0.19443 0.91409 0.0
C534 C 0.97919 0.15656 0.89719 0.0
C535 C 0.9887 0.22912 0.88991 0.0
C536 C 0.98055 0.22655 0.84846 0.0
C537 C 0.97069 0.18903 0.83185 0.0
C538 C 0.97007 0.15449 0.85584 0.0
C539 C 0.98324 0.26234 0.82165 0.0
C540 C 0.95018 0.27164 0.79693 0.0
C541 C 0.01882 0.28545 0.81819 0.0
C542 C 0.05598 0.27521 0.84088 0.0
C543 C 0.07346 0.23659 0.83779 0.0
C544 C 0.10876 0.22734 0.85876 0.0
C545 C 0.12728 0.25666 0.8824 0.0
C546 C 0.11048 0.29525 0.88524 0.0
C547 C 0.075 0.30458 0.86455 0.0
H548 H 0.15473 0.2495 0.89838 0.0
H549 H 0.8341 0.32808 0.66043 0.0
H550 H 0.56331 0.00395 0.68815 0.0
H551 H 0.60979 0.00593 0.74499 0.0
H552 H 0.70971 0.0153 0.66267 0.0
H553 H 0.66382 0.01298 0.60569 0.0
H554 H 0.72318 0.96062 0.72192 0.0
H555 H 0.67085 0.09481 0.70673 0.0
H556 H 0.61615 0.14483 0.70219 0.0
H557 H 0.58319 0.12058 0.8249 0.0
H558 H 0.63616 0.06843 0.82944 0.0
H559 H 0.88134 0.03595 0.8321 0.0
H560 H 0.82441 0.03824 0.78634 0.0
H561 H 0.74416 0.00933 0.88412 0.0
H562 H 0.801 0.00689 0.93071 0.0
H563 H 0.71595 0.0705 0.82324 0.0
H564 H 0.77013 0.93514 0.83628 0.0
H565 H 0.82583 0.88583 0.83827 0.0
H566 H 0.85866 0.91754 0.71719 0.0
H567 H 0.80354 0.9676 0.71474 0.0
C568 C 0.59517 0.00653 0.68213 0.0
C569 C 0.60994 0.00846 0.64246 0.0
C570 C 0.62157 0.00756 0.71459 0.0
C571 C 0.66291 0.01095 0.70774 0.0
C572 C 0.67778 0.0125 0.6683 0.0
C573 C 0.65151 0.01129 0.63586 0.0
C574 C 0.69101 0.01367 0.74157 0.0
C575 C 0.72168 0.98468 0.74401 0.0
C576 C 0.6883 0.04485 0.77053 0.0
C577 C 0.65718 0.07715 0.76823 0.0
C578 C 0.65166 0.09969 0.73263 0.0
C579 C 0.62092 0.12845 0.73003 0.0
C580 C 0.59632 0.13604 0.76329 0.0
C581 C 0.60225 0.11464 0.79914 0.0
C582 C 0.63247 0.08525 0.80165 0.0
C583 C 0.85162 0.03057 0.8442 0.0
C584 C 0.84581 0.02036 0.88492 0.0
C585 C 0.81919 0.03212 0.81801 0.0
C586 C 0.78057 0.02349 0.83209 0.0
C587 C 0.77402 0.01599 0.87304 0.0
C588 C 0.80654 0.01431 0.8994 0.0
C589 C 0.74818 0.01784 0.80296 0.0
C590 C 0.71686 0.04616 0.80145 0.0
C591 C 0.7504 0.98633 0.77446 0.0
C592 C 0.78288 0.95538 0.77546 0.0
C593 C 0.78937 0.9318 0.81017 0.0
C594 C 0.82084 0.9037 0.81137 0.0
C595 C 0.84584 0.89863 0.77791 0.0
C596 C 0.83929 0.92153 0.7431 0.0
C597 C 0.80791 0.94974 0.74178 0.0
H598 H 0.87024 0.87692 0.77892 0.0
H599 H 0.57268 0.15851 0.76127 0.0
H600 H 0.37396 0.33281 0.94632 0.0
H601 H 0.31996 0.28422 0.95567 0.0
H602 H 0.24844 0.3749 0.01569 0.0
H603 H 0.30228 0.42376 0.00662 0.0
H604 H 0.25715 0.30594 0.06009 0.0
H605 H 0.21521 0.34024 0.92593 0.0
H606 H 0.2233 0.35307 0.85312 0.0
H607 H 0.26923 0.23291 0.83676 0.0
H608 H 0.26108 0.21931 0.90934 0.0
H609 H 0.07863 0.17671 0.04862 0.0
H610 H 0.12718 0.23175 0.05062 0.0
H611 H 0.21999 0.1512 0.00826 0.0
H612 H 0.17225 0.09598 0.0063 0.0
H613 H 0.19562 0.21904 0.95606 0.0
H614 H 0.24388 0.1886 0.0915 0.0
H615 H 0.24149 0.17869 0.16526 0.0
H616 H 0.18325 0.29362 0.17926 0.0
H617 H 0.18494 0.30401 0.10562 0.0
C618 C 0.34645 0.34264 0.96082 0.0
C619 C 0.34243 0.38204 0.97583 0.0
C620 C 0.31556 0.31493 0.96594 0.0
C621 C 0.28026 0.32617 0.98617 0.0
C622 C 0.27546 0.36585 -0.00019 0.0
C623 C 0.3062 0.39371 0.99441 0.0
C624 C 0.2503 0.29532 -0.00351 0.0
C625 C 0.24273 0.28764 0.03738 0.0
C626 C 0.23273 0.27075 0.96675 0.0
C627 C 0.23785 0.27889 0.9231 0.0
C628 C 0.22723 0.31665 0.9068 0.0
C629 C 0.23162 0.32398 0.86553 0.0
C630 C 0.24669 0.2938 0.84028 0.0
C631 C 0.2573 0.25619 0.85625 0.0
C632 C 0.25269 0.24861 0.89743 0.0
C633 C 0.10954 0.17044 0.04048 0.0
C634 C 0.12125 0.13221 0.02609 0.0
C635 C 0.13727 0.20182 0.04211 0.0
C636 C 0.17687 0.19529 0.0294 0.0
C637 C 0.18942 0.15655 0.01823 0.0
C638 C 0.16193 0.12516 0.01681 0.0
C639 C 0.2026 0.22975 0.0197 0.0
C640 C 0.20929 0.23803 0.97878 0.0
C641 C 0.21901 0.25503 0.04944 0.0
C642 C 0.21432 0.24698 0.0931 0.0
C643 C 0.22995 0.21143 0.11027 0.0
C644 C 0.22888 0.20579 0.15205 0.0
C645 C 0.21212 0.23541 0.17689 0.0
C646 C 0.19627 0.27071 0.16001 0.0
C647 C 0.19727 0.27648 0.11828 0.0
H648 H 0.21144 0.23102 0.20921 0.0
H649 H 0.25017 0.29956 0.80835 0.0
H650 H 0.42474 0.68457 0.97314 0.0
H651 H 0.38009 0.73957 0.95217 0.0
H652 H 0.27749 0.67036 0.99069 0.0
H653 H 0.32176 0.61494 0.01059 0.0
H654 H 0.26599 0.70219 0.91682 0.0
H655 H 0.31937 0.75006 0.04719 0.0
H656 H 0.37501 0.77099 0.09153 0.0
H657 H 0.40957 0.86134 0.00554 0.0
H658 H 0.35447 0.84062 0.96053 0.0
H659 H 0.10325 0.82358 0.96668 0.0
H660 H 0.16056 0.77854 0.95898 0.0
H661 H 0.23435 0.87879 0.92228 0.0
H662 H 0.17719 0.9245 0.9311 0.0
H663 H 0.27065 0.83839 0.97808 0.0
H664 H 0.20936 0.80269 0.85571 0.0
H665 H 0.15483 0.78414 0.80924 0.0
H666 H 0.13734 0.67326 0.87372 0.0
H667 H 0.19109 0.69148 0.92126 0.0
C668 C 0.3927 0.68141 0.97778 0.0
C669 C 0.37667 0.6456 0.99373 0.0
C670 C 0.36726 0.71274 0.96556 0.0
C671 C 0.32552 0.70898 0.9699 0.0
C672 C 0.30963 0.67367 0.98677 0.0
C673 C 0.33493 0.6422 -0.00156 0.0
C674 C 0.29784 0.74154 0.95716 0.0
C675 C 0.26678 0.73198 0.93027 0.0
C676 C 0.30038 0.78101 0.97292 0.0
C677 C 0.33312 0.79353 0.00035 0.0
C678 C 0.339 0.77423 0.03768 0.0
C679 C 0.37041 0.78607 0.06293 0.0
C680 C 0.39586 0.8174 0.05128 0.0
C681 C 0.38988 0.83704 0.01447 0.0
C682 C 0.35858 0.82528 0.98911 0.0
C683 C 0.13143 0.83603 0.95626 0.0
C684 C 0.13575 0.87765 0.94979 0.0
C685 C 0.16417 0.81016 0.95161 0.0
C686 C 0.20165 0.82523 0.93958 0.0
C687 C 0.20568 0.86655 0.93154 0.0
C688 C 0.17301 0.89259 0.93666 0.0
C689 C 0.23718 0.79829 0.9397 0.0
C690 C 0.27003 0.80896 0.96386 0.0
C691 C 0.23649 0.76001 0.921 0.0
C692 C 0.20427 0.74859 0.89223 0.0
C693 C 0.19371 0.77448 0.86022 0.0
C694 C 0.16292 0.76401 0.83365 0.0
C695 C 0.14264 0.72757 0.83851 0.0
C696 C 0.15309 0.70149 0.86999 0.0
C697 C 0.18375 0.71187 0.89676 0.0
H698 H 0.11885 0.71951 0.81786 0.0
H699 H 0.42016 0.82661 0.07076 0.0
H700 H 0.65828 0.37933 0.96923 0.0
H701 H 0.70512 0.32291 0.97671 0.0
H702 H 0.60862 0.247 0.01803 0.0
H703 H 0.56124 0.30343 0.01035 0.0
H704 H 0.67775 0.24712 0.0686 0.0
H705 H 0.64393 0.22629 0.93066 0.0
H706 H 0.63203 0.24465 0.85959 0.0
H707 H 0.75459 0.28252 0.84796 0.0
H708 H 0.76717 0.26478 0.91912 0.0
H709 H 0.8106 0.07158 0.05341 0.0
H710 H 0.75326 0.11819 0.05024 0.0
H711 H 0.83164 0.21329 0.01015 0.0
H712 H 0.88901 0.16744 0.01356 0.0
H713 H 0.76477 0.19598 0.95837 0.0
H714 H 0.79715 0.2218 0.09688 0.0
H715 H 0.80904 0.20634 0.16855 0.0
H716 H 0.68909 0.16104 0.17962 0.0
H717 H 0.67664 0.17533 0.10769 0.0
C718 C 0.64692 0.35053 0.9795 0.0
C719 C 0.60615 0.34573 0.98921 0.0
C720 C 0.67365 0.31833 0.98362 0.0
C721 C 0.66016 0.28091 -0.00223 0.0
C722 C 0.61942 0.27573 0.00696 0.0
C723 C 0.59245 0.30785 0.00231 0.0
C724 C 0.68942 0.2481 0.00473 0.0
C725 C 0.69621 0.23509 0.04444 0.0
C726 C 0.71386 0.23337 0.97317 0.0
C727 C 0.70641 0.24442 0.93037 0.0
C728 C 0.66827 0.23885 0.91307 0.0
C729 C 0.66143 0.24906 0.87273 0.0
C730 C 0.69253 0.26475 0.84929 0.0
C731 C 0.73054 0.2703 0.86616 0.0
C732 C 0.73757 0.26011 0.90648 0.0
C733 C 0.81571 0.1026 0.04454 0.0
C734 C 0.85429 0.11574 0.03339 0.0
C735 C 0.78298 0.12912 0.04286 0.0
C736 C 0.7884 0.16891 0.02968 0.0
C737 C 0.82703 0.18256 0.02027 0.0
C738 C 0.85977 0.15633 0.02245 0.0
C739 C 0.75361 0.19557 0.02232 0.0
C740 C 0.74583 0.20738 0.98245 0.0
C741 C 0.72834 0.20914 0.05375 0.0
C742 C 0.73621 0.19898 0.09663 0.0
C743 C 0.77352 0.20782 0.11435 0.0
C744 C 0.78028 0.19947 0.1551 0.0
C745 C 0.74985 0.18258 0.17859 0.0
C746 C 0.71262 0.17398 0.16134 0.0
C747 C 0.70572 0.18214 0.12056 0.0
H748 H 0.75511 0.17618 0.21015 0.0
H749 H 0.6872 0.27251 0.81805 0.0
H750 H 0.81945 0.89075 0.9759 0.0
H751 H 0.77256 0.8346 0.9818 0.0
H752 H 0.87191 0.75183 -0.00274 0.0
H753 H 0.91901 0.80745 0.99048 0.0
H754 H 0.8142 0.72019 0.95049 0.0
H755 H 0.8223 0.79091 0.07617 0.0
H756 H 0.81823 0.84994 0.12113 0.0
H757 H 0.693 0.86402 0.09343 0.0
H758 H 0.69652 0.80588 0.0474 0.0
H759 H 0.68421 0.56445 0.0234 0.0
H760 H 0.73982 0.6124 0.01969 0.0
H761 H 0.65491 0.7107 0.0089 0.0
H762 H 0.59969 0.66383 0.01378 0.0
H763 H 0.71173 0.73 0.05861 0.0
H764 H 0.705 0.6664 0.92664 0.0
H765 H 0.70894 0.61019 0.87807 0.0
H766 H 0.82983 0.58462 0.91556 0.0
H767 H 0.82641 0.64013 0.96482 0.0
C768 C 0.8313 0.86054 0.98016 0.0
C769 C 0.87284 0.85353 0.9831 0.0
C770 C 0.80453 0.82857 0.98357 0.0
C771 C 0.81891 0.78934 0.99075 0.0
C772 C 0.86034 0.78197 0.99185 0.0
C773 C 0.88715 0.81382 0.98798 0.0
C774 C 0.79071 0.75629 -0.00096 0.0
C775 C 0.79205 0.722 0.97443 0.0
C776 C 0.76183 0.75908 0.03018 0.0
C777 C 0.75976 0.79406 0.0581 0.0
C778 C 0.79397 0.80679 0.07936 0.0
C779 C 0.79176 0.84013 0.10503 0.0
C780 C 0.75536 0.86063 0.11016 0.0
C781 C 0.72116 0.84805 0.08945 0.0
C782 C 0.72326 0.81494 0.06353 0.0
C783 C 0.67745 0.59633 0.02065 0.0
C784 C 0.63747 0.61024 0.01886 0.0
C785 C 0.70923 0.6236 0.01827 0.0
C786 C 0.7014 0.66498 0.01352 0.0
C787 C 0.6616 0.67888 0.01264 0.0
C788 C 0.63001 0.6519 0.01545 0.0
C789 C 0.73414 0.69446 0.00909 0.0
C790 C 0.73399 0.728 0.03479 0.0
C791 C 0.76381 0.69114 0.97871 0.0
C792 C 0.76525 0.65707 0.94982 0.0
C793 C 0.73223 0.64846 0.92488 0.0
C794 C 0.73441 0.6168 0.89716 0.0
C795 C 0.76959 0.59384 0.89385 0.0
C796 C 0.80259 0.60238 0.91826 0.0
C797 C 0.80053 0.63389 0.9461 0.0
H798 H 0.77144 0.56953 0.87229 0.0
H799 H 0.75356 0.88618 0.13025 0.0
H800 H 0.59415 0.49094 0.82245 0.0
H801 H 0.64847 0.49454 0.77338 0.0
H802 H 0.73468 0.50647 0.86954 0.0
H803 H 0.68044 0.50354 0.9192 0.0
H804 H 0.73666 0.56772 0.80728 0.0
H805 H 0.73759 0.42349 0.82235 0.0
H806 H 0.70723 0.35589 0.82535 0.0
H807 H 0.66494 0.36934 0.70383 0.0
H808 H 0.69477 0.43721 0.70019 0.0
H809 H 0.90702 0.54723 0.67617 0.0
H810 H 0.8577 0.54616 0.73046 0.0
H811 H 0.76431 0.51832 0.645 0.0
H812 H 0.81316 0.51895 0.59048 0.0
H813 H 0.76956 0.46321 0.70559 0.0
H814 H 0.75915 0.60778 0.69277 0.0
H815 H 0.7821 0.67828 0.68952 0.0
H816 H 0.83908 0.66511 0.80491 0.0
H817 H 0.81582 0.59465 0.80913 0.0
C818 C 0.62466 0.49428 0.83325 0.0
C819 C 0.63307 0.49735 0.87462 0.0
C820 C 0.65558 0.49597 0.80522 0.0
C821 C 0.69527 0.50075 0.81813 0.0
C822 C 0.70403 0.50297 0.85932 0.0
C823 C 0.6731 0.50109 0.8875 0.0
C824 C 0.727 0.50649 0.78816 0.0
C825 C 0.74487 0.54457 0.7857 0.0
C826 C 0.73587 0.47666 0.75918 0.0
C827 C 0.71816 0.43564 0.76114 0.0
C828 C 0.72157 0.41218 0.79636 0.0
C829 C 0.70454 0.37375 0.79813 0.0
C830 C 0.68408 0.35837 0.76482 0.0
C831 C 0.68074 0.38133 0.72963 0.0
C832 C 0.69782 0.41973 0.72765 0.0
C833 C 0.87589 0.54155 0.66873 0.0
C834 C 0.86419 0.53236 0.62906 0.0
C835 C 0.84776 0.5412 0.69979 0.0
C836 C 0.80762 0.53188 0.69155 0.0
C837 C 0.79534 0.5253 0.65177 0.0
C838 C 0.82335 0.5257 0.6207 0.0
C839 C 0.77939 0.52454 0.72474 0.0
C840 C 0.76209 0.48613 0.72771 0.0
C841 C 0.77086 0.55411 0.75407 0.0
C842 C 0.78621 0.59586 0.75101 0.0
C843 C 0.77695 0.61981 0.71724 0.0
C844 C 0.78985 0.65981 0.71531 0.0
C845 C 0.81237 0.67608 0.7468 0.0
C846 C 0.82176 0.65244 0.78047 0.0
C847 C 0.80854 0.61254 0.78275 0.0
H848 H 0.82243 0.70703 0.74516 0.0
H849 H 0.67089 0.32863 0.76621 0.0
H850 H 0.17883 0.52021 0.57473 0.0
H851 H 0.23339 0.53034 0.62239 0.0
H852 H 0.1479 0.56155 0.71503 0.0
H853 H 0.09274 0.5518 0.66754 0.0
H854 H 0.21806 0.61022 0.71461 0.0
H855 H 0.17997 0.46949 0.71084 0.0
H856 H 0.16687 0.4044 0.67769 0.0
H857 H 0.28871 0.39983 0.63543 0.0
H858 H 0.30238 0.46527 0.66778 0.0
H859 H 0.32203 0.555 0.89448 0.0
H860 H 0.27535 0.5657 0.83853 0.0
H861 H 0.36758 0.5304 0.75414 0.0
H862 H 0.41442 0.51956 0.8096 0.0
H863 H 0.29789 0.48734 0.74649 0.0
H864 H 0.33893 0.62406 0.75244 0.0
H865 H 0.35412 0.68966 0.78361 0.0
H866 H 0.23098 0.70246 0.81974 0.0
H867 H 0.21507 0.63665 0.78949 0.0
C868 C 0.17144 0.52959 0.6051 0.0
C869 C 0.13128 0.53456 0.61748 0.0
C870 C 0.20274 0.53543 0.63222 0.0
C871 C 0.19446 0.54623 0.67214 0.0
C872 C 0.15469 0.55315 0.68422 0.0
C873 C 0.12326 0.54724 0.65713 0.0
C874 C 0.22705 0.54708 0.70205 0.0
C875 C 0.23537 0.58337 0.72195 0.0
C876 C 0.25017 0.51215 0.71049 0.0
C877 C 0.24202 0.47262 0.69124 0.0
C878 C 0.20387 0.45483 0.69413 0.0
C879 C 0.19636 0.41782 0.67555 0.0
C880 C 0.2269 0.39808 0.65432 0.0
C881 C 0.26506 0.41522 0.65179 0.0
C882 C 0.2727 0.45228 0.67024 0.0
C883 C 0.33246 0.54981 0.864 0.0
C884 C 0.37176 0.53607 0.85648 0.0
C885 C 0.30592 0.55632 0.83212 0.0
C886 C 0.31828 0.54901 0.79239 0.0
C887 C 0.35771 0.53634 0.78469 0.0
C888 C 0.38435 0.53016 0.81644 0.0
C889 C 0.28885 0.55042 0.75937 0.0
C890 C 0.28096 0.51439 0.73894 0.0
C891 C 0.26649 0.58563 0.75031 0.0
C892 C 0.2759 0.62513 0.76904 0.0
C893 C 0.31515 0.64063 0.76746 0.0
C894 C 0.32387 0.67792 0.78492 0.0
C895 C 0.29354 0.70013 0.80389 0.0
C896 C 0.25443 0.68515 0.80528 0.0
C897 C 0.24553 0.64787 0.78792 0.0
H898 H 0.3003 0.729 0.81739 0.0
H899 H 0.22102 0.36944 0.63993 0.0
H900 H 0.17138 0.46592 0.40442 0.0
H901 H 0.22084 0.46548 0.3505 0.0
H902 H 0.12794 0.43983 0.26389 0.0
H903 H 0.07782 0.44024 0.31755 0.0
H904 H 0.20685 0.4049 0.24644 0.0
H905 H 0.14097 0.52911 0.28365 0.0
H906 H 0.11859 0.58179 0.33087 0.0
H907 H 0.24126 0.6092 0.35904 0.0
H908 H 0.26445 0.55586 0.31265 0.0
H909 H 0.30178 0.49123 0.0781 0.0
H910 H 0.24885 0.48698 0.12902 0.0
H911 H 0.33633 0.5054 0.22293 0.0
H912 H 0.38947 0.50993 0.17246 0.0
H913 H 0.25693 0.54545 0.23391 0.0
H914 H 0.32001 0.41186 0.21215 0.0
H915 H 0.34689 0.36308 0.16275 0.0
H916 H 0.23224 0.35967 0.10364 0.0
H917 H 0.20458 0.40769 0.1532 0.0
C918 C 0.1614 0.45931 0.3741 0.0
C919 C 0.12042 0.45472 0.36497 0.0
C920 C 0.1898 0.45881 0.34345 0.0
C921 C 0.17756 0.45361 0.30347 0.0
C922 C 0.13759 0.44418 0.29475 0.0
C923 C 0.10903 0.44484 0.3254 0.0
C924 C 0.20467 0.46515 0.27076 0.0
C925 C 0.21745 0.43565 0.24343 0.0
C926 C 0.21844 0.50541 0.2673 0.0
C927 C 0.2045 0.53799 0.29493 0.0
C928 C 0.16324 0.54585 0.30034 0.0
C929 C 0.15037 0.57594 0.32692 0.0
C930 C 0.17849 0.59874 0.34806 0.0
C931 C 0.21952 0.59148 0.34264 0.0
C932 C 0.23254 0.56131 0.31619 0.0
C933 C 0.30962 0.49521 0.10952 0.0
C934 C 0.34977 0.5002 0.12145 0.0
C935 C 0.27941 0.49289 0.13843 0.0
C936 C 0.28906 0.49573 0.17942 0.0
C937 C 0.32859 0.50332 0.19129 0.0
C938 C 0.35884 0.5054 0.16248 0.0
C939 C 0.25921 0.48518 0.21005 0.0
C940 C 0.24598 0.51483 0.23694 0.0
C941 C 0.24511 0.44523 0.21334 0.0
C942 C 0.26024 0.41308 0.18637 0.0
C943 C 0.30044 0.40016 0.18892 0.0
C944 C 0.31583 0.37273 0.16087 0.0
C945 C 0.29123 0.35805 0.13019 0.0
C946 C 0.25111 0.3705 0.12774 0.0
C947 C 0.23549 0.39767 0.15592 0.0
H948 H 0.30334 0.33716 0.10827 0.0
H949 H 0.16849 0.62212 0.36852 0.0
H950 H 0.66355 0.44886 0.09859 0.0
H951 H 0.71092 0.43827 0.15352 0.0
H952 H 0.6138 0.44318 0.23947 0.0
H953 H 0.56598 0.45435 0.18478 0.0
H954 H 0.67398 0.49232 0.26015 0.0
H955 H 0.66108 0.35513 0.22169 0.0
H956 H 0.65888 0.29713 0.1754 0.0
H957 H 0.78184 0.31715 0.1424 0.0
H958 H 0.78465 0.37576 0.188 0.0
H959 H 0.80767 0.45408 0.42017 0.0
H960 H 0.7529 0.44092 0.37333 0.0
H961 H 0.83605 0.44419 0.2737 0.0
H962 H 0.89129 0.45689 0.32023 0.0
H963 H 0.77776 0.38433 0.26565 0.0
H964 H 0.78593 0.52718 0.29746 0.0
H965 H 0.78898 0.58313 0.34628 0.0
H966 H 0.67342 0.55022 0.39293 0.0
H967 H 0.66995 0.49363 0.3448 0.0
C968 C 0.65207 0.44739 0.1291 0.0
C969 C 0.61091 0.45275 0.13722 0.0
C970 C 0.67922 0.441 0.16045 0.0
C971 C 0.66576 0.4396 0.20047 0.0
C972 C 0.62468 0.44406 0.20871 0.0
C973 C 0.59744 0.45041 0.17737 0.0
C974 C 0.6951 0.43671 0.23372 0.0
C975 C 0.69612 0.46822 0.26185 0.0
C976 C 0.72432 0.40558 0.23543 0.0
C977 C 0.72295 0.37015 0.20807 0.0
C978 C 0.68757 0.34742 0.20433 0.0
C979 C 0.68623 0.31438 0.17825 0.0
C980 C 0.72015 0.30358 0.15588 0.0
C981 C 0.75557 0.32564 0.15971 0.0
C982 C 0.75707 0.35875 0.18571 0.0
C983 C 0.81447 0.45179 0.38833 0.0
C984 C 0.85381 0.45727 0.37388 0.0
C985 C 0.78313 0.44405 0.36168 0.0
C986 C 0.7905 0.44208 0.32014 0.0
C987 C 0.82989 0.4456 0.30573 0.0
C988 C 0.86134 0.45314 0.33237 0.0
C989 C 0.75679 0.44015 0.29141 0.0
C990 C 0.75511 0.40794 0.26415 0.0
C991 C 0.72684 0.47056 0.29046 0.0
C992 C 0.72791 0.50588 0.31788 0.0
C993 C 0.76123 0.5318 0.31822 0.0
C994 C 0.76307 0.56356 0.3458 0.0
C995 C 0.7316 0.56993 0.37294 0.0
C996 C 0.6979 0.54503 0.37208 0.0
C997 C 0.69595 0.51314 0.34462 0.0
H998 H 0.73329 0.59426 0.39455 0.0
H999 H 0.71896 0.27813 0.13561 0.0
H1000 H 0.39029 0.82111 0.5188 0.0
H1001 H 0.33822 0.77082 0.50878 0.0
H1002 H 0.2541 0.86441 0.47517 0.0
H1003 H 0.30577 0.91524 0.48531 0.0
H1004 H 0.22081 0.80468 0.52361 0.0
H1005 H 0.30183 0.81678 0.40524 0.0
H1006 H 0.36582 0.81842 0.36801 0.0
H1007 H 0.38868 0.69481 0.39977 0.0
H1008 H 0.32578 0.69297 0.43894 0.0
H1009 H 0.08092 0.67319 0.43835 0.0
H1010 H 0.13028 0.72719 0.4385 0.0
H1011 H 0.22286 0.64222 0.47255 0.0
H1012 H 0.17393 0.5878 0.47238 0.0
H1013 H 0.24982 0.70084 0.41976 0.0
H1014 H 0.17373 0.69115 0.54365 0.0
H1015 H 0.11227 0.69017 0.58522 0.0
H1016 H 0.08103 0.8089 0.54343 0.0
H1017 H 0.14191 0.81031 0.501 0.0
C1018 C 0.36064 0.8312 0.50972 0.0
C1019 C 0.35242 0.87219 0.50216 0.0
C1020 C 0.33099 0.80238 0.504 0.0
C1021 C 0.2928 0.81406 0.49048 0.0
C1022 C 0.28363 0.85501 0.48534 0.0
C1023 C 0.31325 0.88392 0.49106 0.0
C1024 C 0.26321 0.78329 0.47948 0.0
C1025 C 0.22679 0.78233 0.50049 0.0
C1026 C 0.27162 0.75403 0.44961 0.0
C1027 C 0.30917 0.75485 0.42539 0.0
C1028 C 0.32069 0.79007 0.40474 0.0
C1029 C 0.35684 0.79107 0.38336 0.0
C1030 C 0.38118 0.7567 0.38141 0.0
C1031 C 0.36973 0.72139 0.40126 0.0
C1032 C 0.33392 0.72041 0.42324 0.0
C1033 C 0.11188 0.66576 0.44529 0.0
C1034 C 0.1233 0.62636 0.45644 0.0
C1035 C 0.13998 0.69667 0.44527 0.0
C1036 C 0.17978 0.68864 0.45646 0.0
C1037 C 0.19208 0.64888 0.46416 0.0
C1038 C 0.16402 0.61789 0.46418 0.0
C1039 C 0.20761 0.72199 0.46421 0.0
C1040 C 0.24369 0.72346 0.44256 0.0
C1041 C 0.19897 0.7517 0.49358 0.0
C1042 C 0.16213 0.75063 0.51877 0.0
C1043 C 0.15353 0.71686 0.54297 0.0
C1044 C 0.11885 0.71626 0.56674 0.0
C1045 C 0.09279 0.74943 0.56687 0.0
C1046 C 0.10126 0.78322 0.54321 0.0
C1047 C 0.13581 0.78393 0.51929 0.0
H1048 H 0.06614 0.74906 0.58541 0.0
H1049 H 0.40879 0.75737 0.36434 0.0
H1050 H 0.17589 0.4134 0.51315 0.0
H1051 H 0.22907 0.36356 0.50587 0.0
H1052 H 0.14383 0.26788 0.52452 0.0
H1053 H 0.08964 0.31757 0.53129 0.0
H1054 H 0.22249 0.25824 0.56337 0.0
H1055 H 0.16034 0.28407 0.43598 0.0
H1056 H 0.13366 0.32522 0.38004 0.0
H1057 H 0.25064 0.37519 0.35981 0.0
H1058 H 0.27796 0.33476 0.41622 0.0
H1059 H 0.31724 0.0949 0.47151 0.0
H1060 H 0.26809 0.14861 0.47961 0.0
H1061 H 0.36115 0.23761 0.46667 0.0
H1062 H 0.41133 0.18392 0.45891 0.0
H1063 H 0.28091 0.25266 0.42564 0.0
H1064 H 0.3425 0.21892 0.55354 0.0
H1065 H 0.36504 0.17239 0.6071 0.0
H1066 H 0.24366 0.13279 0.62452 0.0
H1067 H 0.22062 0.17815 0.57037 0.0
C1068 C 0.16825 0.38184 0.5163 0.0
C1069 C 0.12826 0.3694 0.52193 0.0
C1070 C 0.19879 0.3535 0.51216 0.0
C1071 C 0.18992 0.31241 0.51398 0.0
C1072 C 0.15083 0.29972 0.52282 0.0
C1073 C 0.12002 0.32811 0.5266 0.0
C1074 C 0.22098 0.2829 0.50336 0.0
C1075 C 0.23513 0.25671 0.53326 0.0
C1076 C 0.23745 0.28169 0.46408 0.0
C1077 C 0.2211 0.30674 0.43067 0.0
C1078 C 0.18029 0.30423 0.42 0.0
C1079 C 0.16507 0.32732 0.38812 0.0
C1080 C 0.19045 0.35276 0.3664 0.0
C1081 C 0.23105 0.35541 0.37669 0.0
C1082 C 0.24642 0.33242 0.40862 0.0
C1083 C 0.32746 0.12581 0.4696 0.0
C1084 C 0.36843 0.13511 0.46529 0.0
C1085 C 0.29923 0.15639 0.47428 0.0
C1086 C 0.31142 0.19665 0.47437 0.0
C1087 C 0.35158 0.20643 0.46688 0.0
C1088 C 0.38009 0.17576 0.46256 0.0
C1089 C 0.28246 0.228 0.48569 0.0
C1090 C 0.26863 0.25453 0.45588 0.0
C1091 C 0.26587 0.2291 0.52492 0.0
C1092 C 0.27988 0.20167 0.55753 0.0
C1093 C 0.32069 0.1999 0.56842 0.0
C1094 C 0.33358 0.17374 0.59897 0.0
C1095 C 0.30585 0.14952 0.61919 0.0
C1096 C 0.26519 0.15142 0.60886 0.0
C1097 C 0.25221 0.17733 0.5782 0.0
H1098 H 0.31584 0.12936 0.6429 0.0
H1099 H 0.17867 0.37021 0.34145 0.0
H1100 H 0.80855 0.58228 0.46037 0.0
H1101 H 0.75529 0.63303 0.46308 0.0
H1102 H 0.844 0.72734 0.46545 0.0
H1103 H 0.89755 0.67703 0.4632 0.0
H1104 H 0.79442 0.72748 0.53112 0.0
H1105 H 0.78303 0.71946 0.38783 0.0
H1106 H 0.77382 0.68823 0.3212 0.0
H1107 H 0.65671 0.6474 0.35615 0.0
H1108 H 0.66552 0.67756 0.42338 0.0
H1109 H 0.66847 0.89768 0.52737 0.0
H1110 H 0.71783 0.84481 0.51628 0.0
H1111 H 0.62346 0.75635 0.5098 0.0
H1112 H 0.57327 0.80941 0.51968 0.0
H1113 H 0.67422 0.75204 0.44606 0.0
H1114 H 0.6883 0.75305 0.59086 0.0
H1115 H 0.69541 0.78638 0.65689 0.0
H1116 H 0.8049 0.84173 0.61737 0.0
H1117 H 0.79851 0.80853 0.55117 0.0
C1118 C 0.81678 0.61385 0.46073 0.0
C1119 C 0.85728 0.62563 0.46253 0.0
C1120 C 0.78629 0.64276 0.46188 0.0
C1121 C 0.79593 0.68372 0.4647 0.0
C1122 C 0.83619 0.69573 0.4634 0.0
C1123 C 0.86669 0.66691 0.46212 0.0
C1124 C 0.76465 0.71331 0.47515 0.0
C1125 C 0.76839 0.73324 0.51222 0.0
C1126 C 0.73013 0.71951 0.45109 0.0
C1127 C 0.7252 0.70036 0.41096 0.0
C1128 C 0.75554 0.70332 0.38159 0.0
C1129 C 0.75031 0.68595 0.34361 0.0
C1130 C 0.71469 0.66588 0.33444 0.0
C1131 C 0.68422 0.66308 0.36325 0.0
C1132 C 0.68938 0.68021 0.40135 0.0
C1133 C 0.65804 0.86694 0.52431 0.0
C1134 C 0.61685 0.85784 0.5241 0.0
C1135 C 0.68639 0.83672 0.51815 0.0
C1136 C 0.67415 0.7968 0.51244 0.0
C1137 C 0.63329 0.78714 0.51416 0.0
C1138 C 0.60476 0.81745 0.52009 0.0
C1139 C 0.70412 0.76591 0.50186 0.0
C1140 C 0.70015 0.74584 0.46493 0.0
C1141 C 0.73834 0.75922 0.52605 0.0
C1142 C 0.74289 0.77838 0.56612 0.0
C1143 C 0.71388 0.77233 0.5963 0.0
C1144 C 0.71781 0.79115 0.63375 0.0
C1145 C 0.75058 0.81618 0.64131 0.0
C1146 C 0.77952 0.82236 0.61146 0.0
C1147 C 0.77589 0.80336 0.57406 0.0
H1148 H 0.75354 0.83078 0.67029 0.0
H1149 H 0.71072 0.65242 0.30503 0.0
H1150 H 0.60685 0.1669 0.45903 0.0
H1151 H 0.66001 0.21647 0.46995 0.0
H1152 H 0.72129 0.13336 0.54935 0.0
H1153 H 0.66874 0.08357 0.53844 0.0
H1154 H 0.71091 0.21088 0.58169 0.0
H1155 H 0.76194 0.14721 0.46432 0.0
H1156 H 0.76321 0.11992 0.39531 0.0
H1157 H 0.73856 0.23788 0.34739 0.0
H1158 H 0.7365 0.2658 0.41619 0.0
H1159 H 0.8982 0.32858 0.56988 0.0
H1160 H 0.84797 0.27481 0.57318 0.0
H1161 H 0.76433 0.34958 0.50724 0.0
H1162 H 0.81365 0.40346 0.50417 0.0
H1163 H 0.79179 0.27089 0.47151 0.0
H1164 H 0.73493 0.33297 0.59046 0.0
H1165 H 0.73457 0.35928 0.65985 0.0
H1166 H 0.77225 0.24354 0.70471 0.0
H1167 H 0.77364 0.21676 0.63538 0.0
C1168 C 0.63181 0.1591 0.47853 0.0
C1169 C 0.63373 0.12134 0.4977 0.0
C1170 C 0.66213 0.18731 0.48463 0.0
C1171 C 0.69446 0.17828 0.5103 0.0
C1172 C 0.69655 0.14066 0.52937 0.0
C1173 C 0.66662 0.11225 0.52286 0.0
C1174 C 0.72526 0.20886 0.51836 0.0
C1175 C 0.72898 0.22377 0.55775 0.0
C1176 C 0.74863 0.22539 0.48696 0.0
C1177 C 0.74852 0.20851 0.44553 0.0
C1178 C 0.75619 0.16724 0.43913 0.0
C1179 C 0.75722 0.15168 0.40002 0.0
C1180 C 0.75083 0.17712 0.36699 0.0
C1181 C 0.74342 0.21819 0.37301 0.0
C1182 C 0.74232 0.2339 0.41207 0.0
C1183 C 0.86882 0.33379 0.55677 0.0
C1184 C 0.86004 0.36995 0.53622 0.0
C1185 C 0.84019 0.30325 0.55897 0.0
C1186 C 0.80278 0.30852 0.54034 0.0
C1187 C 0.79314 0.34531 0.52189 0.0
C1188 C 0.82139 0.37597 0.52016 0.0
C1189 C 0.77609 0.27399 0.53439 0.0
C1190 C 0.77361 0.25802 0.49541 0.0
C1191 C 0.75401 0.25653 0.56616 0.0
C1192 C 0.75486 0.273 0.60766 0.0
C1193 C 0.7437 0.31328 0.61505 0.0
C1194 C 0.74306 0.32821 0.65441 0.0
C1195 C 0.75322 0.30306 0.68672 0.0
C1196 C 0.76432 0.26298 0.67967 0.0
C1197 C 0.76513 0.24794 0.64033 0.0
H1198 H 0.75269 0.31466 0.71717 0.0
H1199 H 0.75174 0.16504 0.33673 0.0
H1200 H 0.47798 0.43908 0.79956 0.0
H1201 H 0.48343 0.3977 0.73874 0.0
H1202 H 0.51049 0.29333 0.81189 0.0
H1203 H 0.50509 0.33411 0.8727 0.0
H1204 H 0.56354 0.30688 0.7446 0.0
H1205 H 0.41892 0.30459 0.77755 0.0
H1206 H 0.35351 0.33831 0.78823 0.0
H1207 H 0.35988 0.39045 0.66984 0.0
H1208 H 0.42547 0.35723 0.6586 0.0
H1209 H 0.51915 0.12205 0.65485 0.0
H1210 H 0.52572 0.18308 0.69534 0.0
H1211 H 0.48405 0.2551 0.59508 0.0
H1212 H 0.4774 0.19418 0.55428 0.0
H1213 H 0.44392 0.27234 0.66283 0.0
H1214 H 0.57725 0.26144 0.6221 0.0
H1215 H 0.64451 0.2341 0.60767 0.0
H1216 H 0.66533 0.216 0.73409 0.0
H1217 H 0.59746 0.24153 0.74935 0.0
C1218 C 0.48508 0.4073 0.80268 0.0
C1219 C 0.49102 0.38977 0.8409 0.0
C1220 C 0.48813 0.38383 0.76797 0.0
C1221 C 0.49741 0.34271 0.77112 0.0
C1222 C 0.50344 0.32517 0.8091 0.0
C1223 C 0.50003 0.34843 0.84376 0.0
C1224 C 0.50048 0.31724 0.73511 0.0
C1225 C 0.53753 0.29887 0.7267 0.0
C1226 C 0.46683 0.3092 0.71063 0.0
C1227 C 0.42728 0.32883 0.71742 0.0
C1228 C 0.40649 0.32348 0.75392 0.0
C1229 C 0.36935 0.34243 0.76004 0.0
C1230 C 0.35259 0.36661 0.72977 0.0
C1231 C 0.37289 0.37174 0.69327 0.0
C1232 C 0.41001 0.35283 0.687 0.0
C1233 C 0.51134 0.15087 0.64144 0.0
C1234 C 0.49747 0.15336 0.60153 0.0
C1235 C 0.51561 0.18572 0.6644 0.0
C1236 C 0.50582 0.22353 0.64793 0.0
C1237 C 0.49203 0.22616 0.60811 0.0
C1238 C 0.48819 0.19137 0.58495 0.0
C1239 C 0.50666 0.25964 0.67371 0.0
C1240 C 0.47036 0.28043 0.68006 0.0
C1241 C 0.54133 0.27036 0.69583 0.0
C1242 C 0.58174 0.25304 0.68684 0.0
C1243 C 0.59574 0.25091 0.64686 0.0
C1244 C 0.63412 0.23578 0.63852 0.0
C1245 C 0.65913 0.22314 0.66992 0.0
C1246 C 0.64589 0.22576 0.70977 0.0
C1247 C 0.60733 0.24036 0.71826 0.0
H1248 H 0.68874 0.21126 0.66339 0.0
H1249 H 0.32386 0.38129 0.73455 0.0
H1250 H 0.47416 0.83389 0.61896 0.0
H1251 H 0.47148 0.79107 0.67817 0.0
H1252 H 0.46495 0.89603 0.75455 0.0
H1253 H 0.46843 0.9397 0.69503 0.0
H1254 H 0.51894 0.84397 0.78243 0.0
H1255 H 0.38366 0.83551 0.74182 0.0
H1256 H 0.32538 0.8268 0.69708 0.0
H1257 H 0.36102 0.70448 0.67373 0.0
H1258 H 0.42027 0.71269 0.71731 0.0
H1259 H 0.49705 0.69309 0.94054 0.0
H1260 H 0.48585 0.75203 0.89746 0.0
H1261 H 0.50027 0.67764 0.79192 0.0
H1262 H 0.51119 0.61866 0.83434 0.0
H1263 H 0.4308 0.72412 0.79088 0.0
H1264 H 0.57361 0.74057 0.8216 0.0
H1265 H 0.63015 0.7496 0.8687 0.0
H1266 H 0.57544 0.85793 0.91415 0.0
H1267 H 0.5183 0.84922 0.86766 0.0
C1268 C 0.47182 0.84815 0.6482 0.0
C1269 C 0.47159 0.8904 0.65208 0.0
C1270 C 0.46997 0.82347 0.68212 0.0
C1271 C 0.46735 0.84032 0.72076 0.0
C1272 C 0.46671 0.88244 0.72494 0.0
C1273 C 0.46867 0.90731 0.69088 0.0
C1274 C 0.4681 0.81344 0.75645 0.0
C1275 C 0.49904 0.81827 0.78479 0.0
C1276 C 0.44213 0.77988 0.75957 0.0
C1277 C 0.4067 0.77487 0.73275 0.0
C1278 C 0.37939 0.80687 0.72683 0.0
C1279 C 0.3461 0.802 0.70168 0.0
C1280 C 0.33947 0.76514 0.68258 0.0
C1281 C 0.3662 0.73305 0.68851 0.0
C1282 C 0.39969 0.73782 0.71342 0.0
C1283 C 0.49842 0.68931 0.90816 0.0
C1284 C 0.50482 0.65098 0.89093 0.0
C1285 C 0.49193 0.72305 0.88365 0.0
C1286 C 0.49203 0.71902 0.84161 0.0
C1287 C 0.49976 0.68121 0.82438 0.0
C1288 C 0.50619 0.64755 0.84873 0.0
C1289 C 0.48289 0.7536 0.81498 0.0
C1290 C 0.45011 0.7503 0.78873 0.0
C1291 C 0.50689 0.78859 0.81399 0.0
C1292 C 0.54149 0.794 0.8415 0.0
C1293 C 0.57351 0.76615 0.84185 0.0
C1294 C 0.60569 0.77124 0.86839 0.0
C1295 C 0.60633 0.80425 0.89448 0.0
C1296 C 0.57487 0.83234 0.89397 0.0
C1297 C 0.5426 0.82735 0.86752 0.0
H1298 H 0.63125 0.80813 0.91503 0.0
H1299 H 0.31361 0.76143 0.6632 0.0
H1300 H 0.44133 0.63238 0.1387 0.0
H1301 H 0.4468 0.67845 0.19585 0.0
H1302 H 0.55858 0.62145 0.2307 0.0
H1303 H 0.5515 0.57344 0.17483 0.0
H1304 H 0.51842 0.64272 0.29529 0.0
H1305 H 0.55662 0.70975 0.17323 0.0
H1306 H 0.54859 0.73186 0.10262 0.0
H1307 H 0.44222 0.79833 0.1347 0.0
H1308 H 0.44927 0.77619 0.20516 0.0
H1309 H 0.55362 0.81815 0.41912 0.0
H1310 H 0.5605 0.76195 0.37156 0.0
H1311 H 0.45114 0.80034 0.31214 0.0
H1312 H 0.446 0.85768 0.35789 0.0
H1313 H 0.50473 0.78751 0.25957 0.0
H1314 H 0.4629 0.71107 0.38045 0.0
H1315 H 0.47241 0.68902 0.45089 0.0
H1316 H 0.58917 0.642 0.42106 0.0
H1317 H 0.58022 0.66403 0.35052 0.0
C1318 C 0.46666 0.62949 0.15905 0.0
C1319 C 0.49622 0.60008 0.15269 0.0
C1320 C 0.46995 0.6558 0.1914 0.0
C1321 C 0.50379 0.65412 0.21665 0.0
C1322 C 0.53247 0.62341 0.21131 0.0
C1323 C 0.52851 0.59622 0.17954 0.0
C1324 C 0.50984 0.68574 0.24719 0.0
C1325 C 0.51588 0.67443 0.28751 0.0
C1326 C 0.50709 0.72707 0.23686 0.0
C1327 C 0.50341 0.74116 0.19448 0.0
C1328 C 0.53146 0.72898 0.16515 0.0
C1329 C 0.52705 0.74151 0.12512 0.0
C1330 C 0.49487 0.76644 0.1141 0.0
C1331 C 0.46713 0.77902 0.14314 0.0
C1332 C 0.47135 0.76655 0.18316 0.0
C1333 C 0.53099 0.81398 0.39604 0.0
C1334 C 0.49933 0.84168 0.39169 0.0
C1335 C 0.53475 0.7819 0.36912 0.0
C1336 C 0.50607 0.77664 0.33857 0.0
C1337 C 0.47375 0.80391 0.33534 0.0
C1338 C 0.47063 0.83644 0.36145 0.0
C1339 C 0.51034 0.7445 0.3081 0.0
C1340 C 0.50726 0.75581 0.26748 0.0
C1341 C 0.51608 0.70337 0.31824 0.0
C1342 C 0.52097 0.68948 0.36041 0.0
C1343 C 0.49057 0.69615 0.38902 0.0
C1344 C 0.49587 0.68363 0.42893 0.0
C1345 C 0.53142 0.66419 0.44049 0.0
C1346 C 0.56165 0.65707 0.4121 0.0
C1347 C 0.55644 0.66949 0.37215 0.0
H1348 H 0.53552 0.65459 0.47141 0.0
H1349 H 0.49145 0.77606 0.08309 0.0
H1350 H 0.50349 0.0539 0.29728 0.0
H1351 H 0.48997 0.09571 0.23785 0.0
H1352 H 0.4804 0.20098 0.3134 0.0
H1353 H 0.49393 0.15999 0.37272 0.0
H1354 H 0.4155 0.19097 0.2584 0.0
H1355 H 0.56324 0.18499 0.2612 0.0
H1356 H 0.6274 0.1474 0.25941 0.0
H1357 H 0.59577 0.09698 0.14474 0.0
H1358 H 0.53115 0.13386 0.14613 0.0
H1359 H 0.44824 0.37203 0.15744 0.0
H1360 H 0.4445 0.31138 0.19879 0.0
H1361 H 0.46734 0.23773 0.09413 0.0
H1362 H 0.47169 0.29824 0.05247 0.0
H1363 H 0.51713 0.21838 0.15265 0.0
H1364 H 0.37708 0.23008 0.14107 0.0
H1365 H 0.30948 0.26085 0.13988 0.0
H1366 H 0.3213 0.2937 0.26435 0.0
H1367 H 0.38908 0.26333 0.2663 0.0
C1368 C 0.49896 0.08601 0.30126 0.0
C1369 C 0.49982 0.10351 0.3399 0.0
C1370 C 0.49109 0.10976 0.26727 0.0
C1371 C 0.48391 0.15125 0.27147 0.0
C1372 C 0.48552 0.16888 0.30973 0.0
C1373 C 0.4936 0.14536 0.34358 0.0
C1374 C 0.47475 0.17692 0.23628 0.0
C1375 C 0.43764 0.19717 0.23523 0.0
C1376 C 0.50294 0.18314 0.20511 0.0
C1377 C 0.54214 0.1617 0.20405 0.0
C1378 C 0.56984 0.16563 0.23577 0.0
C1379 C 0.60629 0.14449 0.23481 0.0
C1380 C 0.6155 0.11956 0.20214 0.0
C1381 C 0.58848 0.11611 0.17014 0.0
C1382 C 0.55197 0.13714 0.17098 0.0
C1383 C 0.45206 0.34297 0.14305 0.0
C1384 C 0.46074 0.3401 0.1017 0.0
C1385 C 0.44948 0.30825 0.16668 0.0
C1386 C 0.45538 0.27004 0.14943 0.0
C1387 C 0.4626 0.26694 0.10796 0.0
C1388 C 0.46506 0.30163 0.08424 0.0
C1389 C 0.45847 0.23411 0.17572 0.0
C1390 C 0.49443 0.21173 0.17513 0.0
C1391 C 0.4288 0.22529 0.20486 0.0
C1392 C 0.38834 0.24453 0.20377 0.0
C1393 C 0.36543 0.24413 0.16813 0.0
C1394 C 0.32699 0.26135 0.16736 0.0
C1395 C 0.31109 0.27912 0.20205 0.0
C1396 C 0.33362 0.27979 0.23755 0.0
C1397 C 0.37202 0.26247 0.23853 0.0
H1398 H 0.28138 0.29251 0.20138 0.0
H1399 H 0.64364 0.10306 0.20152 0.0
loop_
_geom_bond_atom_site_label_1
_geom_bond_atom_site_label_2
_geom_bond_distance
_geom_bond_site_symmetry_2
_ccdc_geom_bond_type
O0 Zr5 2.207 1_565 S
O0 C34 1.295 . S
O1 Zr5 2.133 1_565 S
O1 Zr6 2.133 1_565 S
O1 Zr7 2.133 . S
O2 Zr5 2.133 1_556 S
O2 Zr11 2.133 1_556 S
O2 Zr12 2.133 . S
O3 Zr5 2.133 1_566 S
O3 Zr7 2.133 1_556 S
O3 Zr12 2.133 1_565 S
O4 Zr5 2.133 . S
O4 Zr6 2.133 . S
O4 Zr11 2.133 . S
Zr5 O0 2.207 1_545 S
Zr5 O1 2.133 1_545 S
Zr5 O2 2.133 1_554 S
Zr5 O3 2.133 1_544 S
Zr5 O4 2.133 . S
Zr5 O17 2.207 . S
Zr5 O30 2.207 . S
Zr5 O33 2.207 1_554 S
Zr6 O1 2.133 1_545 S
Zr6 O4 2.133 . S
Zr6 O8 2.133 1_455 S
Zr6 O10 2.133 1_445 S
Zr6 O22 2.207 1_455 S
Zr6 O25 2.207 . S
Zr6 O35 2.207 . S
Zr6 O36 2.207 1_545 S
Zr7 O1 2.133 . S
Zr7 O3 2.133 1_554 S
Zr7 O9 2.133 1_454 S
Zr7 O10 2.133 1_455 S
Zr7 O19 2.207 . S
Zr7 O20 2.207 1_554 S
Zr7 O27 2.207 . S
Zr7 O28 2.207 1_455 S
O8 Zr6 2.133 1_655 S
O8 Zr11 2.133 1_655 S
O8 Zr13 2.133 . S
O9 Zr7 2.133 1_656 S
O9 Zr12 2.133 1_665 S
O9 Zr13 2.133 1_566 S
O10 Zr6 2.133 1_665 S
O10 Zr7 2.133 1_655 S
O10 Zr13 2.133 1_565 S
Zr11 O2 2.133 1_554 S
Zr11 O4 2.133 . S
Zr11 O8 2.133 1_455 S
Zr11 O14 2.133 1_454 S
Zr11 O18 2.207 1_554 S
Zr11 O21 2.207 . S
Zr11 O26 2.207 1_455 S
Zr11 O29 2.207 . S
Zr12 O2 2.133 . S
Zr12 O3 2.133 1_545 S
Zr12 O9 2.133 1_445 S
Zr12 O14 2.133 1_455 S
Zr12 O23 2.207 . S
Zr12 O24 2.207 1_455 S
Zr12 O48 2.207 1_545 S
Zr12 O49 2.207 . S
Zr13 O8 2.133 . S
Zr13 O9 2.133 1_544 S
Zr13 O10 2.133 1_545 S
Zr13 O14 2.133 1_554 S
Zr13 O15 2.207 . S
Zr13 O16 2.207 1_545 S
Zr13 O31 2.207 1_554 S
Zr13 O32 2.207 . S
O14 Zr11 2.133 1_656 S
O14 Zr12 2.133 1_655 S
O14 Zr13 2.133 1_556 S
O15 Zr13 2.207 . S
O15 C37 1.295 . S
O16 Zr13 2.207 1_565 S
O16 C38 1.295 . S
O17 Zr5 2.207 . S
O17 C39 1.295 . S
O18 Zr11 2.207 1_556 S
O18 C40 1.295 . S
O19 Zr7 2.207 . S
O19 C41 1.295 . S
O20 Zr7 2.207 1_556 S
O20 C42 1.295 . S
O21 Zr11 2.207 . S
O21 C43 1.295 . S
O22 Zr6 2.207 1_655 S
O22 C44 1.295 . S
O23 Zr12 2.207 . S
O23 C45 1.295 . S
O24 Zr12 2.207 1_655 S
O24 C46 1.295 . S
O25 Zr6 2.207 . S
O25 C47 1.295 . S
O26 Zr11 2.207 1_655 S
O26 C37 1.295 . S
O27 Zr7 2.207 . S
O27 C34 1.295 . S
O28 Zr7 2.207 1_655 S
O28 C38 1.295 . S
O29 Zr11 2.207 . S
O29 C39 1.295 . S
O30 Zr5 2.207 . S
O30 C47 1.295 . S
O31 Zr13 2.207 1_556 S
O31 C46 1.295 . S
O32 Zr13 2.207 . S
O32 C44 1.295 . S
O33 Zr5 2.207 1_556 S
O33 C45 1.295 . S
C34 O0 1.295 . S
C34 O27 1.295 . S
O35 Zr6 2.207 . S
O35 C43 1.295 . S
O36 Zr6 2.207 1_565 S
O36 C41 1.295 . S
C37 O15 1.295 . S
C37 O26 1.295 . S
C38 O16 1.295 . S
C38 O28 1.295 . S
C39 O17 1.295 . S
C39 O29 1.295 . S
C40 O18 1.295 . S
C40 O49 1.295 . S
C41 O19 1.295 . S
C41 O36 1.295 . S
C42 O20 1.295 . S
C42 O48 1.295 . S
C43 O21 1.295 . S
C43 O35 1.295 . S
C44 O22 1.295 . S
C44 O32 1.295 . S
C45 O23 1.295 . S
C45 O33 1.295 . S
C46 O24 1.295 . S
C46 O31 1.295 . S
C47 O25 1.295 . S
C47 O30 1.295 . S
O48 Zr12 2.207 1_565 S
O48 C42 1.295 . S
O49 Zr12 2.207 . S
O49 C40 1.295 . S
O50 Zr55 2.207 . S
O50 C84 1.295 . S
O51 Zr55 2.133 . S
O51 Zr56 2.133 . S
O51 Zr57 2.133 . S
O52 Zr55 2.133 . S
O52 Zr61 2.133 . S
O52 Zr62 2.133 . S
O53 Zr55 2.133 . S
O53 Zr57 2.133 . S
O53 Zr62 2.133 . S
O54 Zr55 2.133 . S
O54 Zr56 2.133 . S
O54 Zr61 2.133 . S
Zr55 O50 2.207 . S
Zr55 O51 2.133 . S
Zr55 O52 2.133 . S
Zr55 O53 2.133 . S
Zr55 O54 2.133 . S
Zr55 O67 2.207 . S
Zr55 O80 2.207 . S
Zr55 O83 2.207 . S
Zr56 O51 2.133 . S
Zr56 O54 2.133 . S
Zr56 O58 2.133 1_455 S
Zr56 O60 2.133 1_455 S
Zr56 O72 2.207 1_455 S
Zr56 O75 2.207 . S
Zr56 O85 2.207 . S
Zr56 O86 2.207 . S
Zr57 O51 2.133 . S
Zr57 O53 2.133 . S
Zr57 O59 2.133 1_455 S
Zr57 O60 2.133 1_455 S
Zr57 O69 2.207 . S
Zr57 O70 2.207 . S
Zr57 O77 2.207 . S
Zr57 O78 2.207 1_455 S
O58 Zr56 2.133 1_655 S
O58 Zr61 2.133 1_655 S
O58 Zr63 2.133 . S
O59 Zr57 2.133 1_655 S
O59 Zr62 2.133 1_655 S
O59 Zr63 2.133 . S
O60 Zr56 2.133 1_655 S
O60 Zr57 2.133 1_655 S
O60 Zr63 2.133 . S
Zr61 O52 2.133 . S
Zr61 O54 2.133 . S
Zr61 O58 2.133 1_455 S
Zr61 O64 2.133 1_455 S
Zr61 O68 2.207 . S
Zr61 O71 2.207 . S
Zr61 O76 2.207 1_455 S
Zr61 O79 2.207 . S
Zr62 O52 2.133 . S
Zr62 O53 2.133 . S
Zr62 O59 2.133 1_455 S
Zr62 O64 2.133 1_455 S
Zr62 O73 2.207 . S
Zr62 O74 2.207 1_455 S
Zr62 O98 2.207 . S
Zr62 O99 2.207 . S
Zr63 O58 2.133 . S
Zr63 O59 2.133 . S
Zr63 O60 2.133 . S
Zr63 O64 2.133 . S
Zr63 O65 2.207 . S
Zr63 O66 2.207 . S
Zr63 O81 2.207 . S
Zr63 O82 2.207 . S
O64 Zr61 2.133 1_655 S
O64 Zr62 2.133 1_655 S
O64 Zr63 2.133 . S
O65 Zr63 2.207 . S
O65 C87 1.295 . S
O66 Zr63 2.207 . S
O66 C88 1.295 . S
O67 Zr55 2.207 . S
O67 C89 1.295 . S
O68 Zr61 2.207 . S
O68 C90 1.295 . S
O69 Zr57 2.207 . S
O69 C91 1.295 . S
O70 Zr57 2.207 . S
O70 C92 1.295 . S
O71 Zr61 2.207 . S
O71 C93 1.295 . S
O72 Zr56 2.207 1_655 S
O72 C94 1.295 . S
O73 Zr62 2.207 . S
O73 C95 1.295 . S
O74 Zr62 2.207 1_655 S
O74 C96 1.295 . S
O75 Zr56 2.207 . S
O75 C97 1.295 . S
O76 Zr61 2.207 1_655 S
O76 C87 1.295 . S
O77 Zr57 2.207 . S
O77 C84 1.295 . S
O78 Zr57 2.207 1_655 S
O78 C88 1.295 . S
O79 Zr61 2.207 . S
O79 C89 1.295 . S
O80 Zr55 2.207 . S
O80 C97 1.295 . S
O81 Zr63 2.207 . S
O81 C96 1.295 . S
O82 Zr63 2.207 . S
O82 C94 1.295 . S
O83 Zr55 2.207 . S
O83 C95 1.295 . S
C84 O50 1.295 . S
C84 O77 1.295 . S
O85 Zr56 2.207 . S
O85 C93 1.295 . S
O86 Zr56 2.207 . S
O86 C91 1.295 . S
C87 O65 1.295 . S
C87 O76 1.295 . S
C88 O66 1.295 . S
C88 O78 1.295 . S
C89 O67 1.295 . S
C89 O79 1.295 . S
C90 O68 1.295 . S
C90 O99 1.295 . S
C91 O69 1.295 . S
C91 O86 1.295 . S
C92 O70 1.295 . S
C92 O98 1.295 . S
C93 O71 1.295 . S
C93 O85 1.295 . S
C94 O72 1.295 . S
C94 O82 1.295 . S
C95 O73 1.295 . S
C95 O83 1.295 . S
C96 O74 1.295 . S
C96 O81 1.295 . S
C97 O75 1.295 . S
C97 O80 1.295 . S
O98 Zr62 2.207 . S
O98 C92 1.295 . S
O99 Zr62 2.207 . S
O99 C90 1.295 . S
O100 Zr105 2.207 . S
O100 C134 1.295 . S
O101 Zr105 2.133 . S
O101 Zr106 2.133 . S
O101 Zr107 2.133 . S
O102 Zr105 2.133 1_565 S
O102 Zr111 2.133 1_565 S
O102 Zr112 2.133 . S
O103 Zr105 2.133 1_565 S
O103 Zr107 2.133 1_565 S
O103 Zr112 2.133 . S
O104 Zr105 2.133 . S
O104 Zr106 2.133 . S
O104 Zr111 2.133 . S
Zr105 O100 2.207 . S
Zr105 O101 2.133 . S
Zr105 O102 2.133 1_545 S
Zr105 O103 2.133 1_545 S
Zr105 O104 2.133 . S
Zr105 O117 2.207 . S
Zr105 O130 2.207 . S
Zr105 O133 2.207 1_545 S
Zr106 O101 2.133 . S
Zr106 O104 2.133 . S
Zr106 O108 2.133 . S
Zr106 O110 2.133 . S
Zr106 O122 2.207 . S
Zr106 O125 2.207 . S
Zr106 O135 2.207 . S
Zr106 O136 2.207 . S
Zr107 O101 2.133 . S
Zr107 O103 2.133 1_545 S
Zr107 O109 2.133 1_545 S
Zr107 O110 2.133 . S
Zr107 O119 2.207 . S
Zr107 O120 2.207 1_545 S
Zr107 O127 2.207 . S
Zr107 O128 2.207 . S
O108 Zr106 2.133 . S
O108 Zr111 2.133 . S
O108 Zr113 2.133 . S
O109 Zr107 2.133 1_565 S
O109 Zr112 2.133 . S
O109 Zr113 2.133 1_565 S
O110 Zr106 2.133 . S
O110 Zr107 2.133 . S
O110 Zr113 2.133 . S
Zr111 O102 2.133 1_545 S
Zr111 O104 2.133 . S
Zr111 O108 2.133 . S
Zr111 O114 2.133 1_545 S
Zr111 O118 2.207 1_545 S
Zr111 O121 2.207 . S
Zr111 O126 2.207 . S
Zr111 O129 2.207 . S
Zr112 O102 2.133 . S
Zr112 O103 2.133 . S
Zr112 O109 2.133 . S
Zr112 O114 2.133 . S
Zr112 O123 2.207 . S
Zr112 O124 2.207 . S
Zr112 O148 2.207 . S
Zr112 O149 2.207 . S
Zr113 O108 2.133 . S
Zr113 O109 2.133 1_545 S
Zr113 O110 2.133 . S
Zr113 O114 2.133 1_545 S
Zr113 O115 2.207 . S
Zr113 O116 2.207 . S
Zr113 O131 2.207 1_545 S
Zr113 O132 2.207 . S
O114 Zr111 2.133 1_565 S
O114 Zr112 2.133 . S
O114 Zr113 2.133 1_565 S
O115 Zr113 2.207 . S
O115 C137 1.295 . S
O116 Zr113 2.207 . S
O116 C138 1.295 . S
O117 Zr105 2.207 . S
O117 C139 1.295 . S
O118 Zr111 2.207 1_565 S
O118 C140 1.295 . S
O119 Zr107 2.207 . S
O119 C141 1.295 . S
O120 Zr107 2.207 1_565 S
O120 C142 1.295 . S
O121 Zr111 2.207 . S
O121 C143 1.295 . S
O122 Zr106 2.207 . S
O122 C144 1.295 . S
O123 Zr112 2.207 . S
O123 C145 1.295 . S
O124 Zr112 2.207 . S
O124 C146 1.295 . S
O125 Zr106 2.207 . S
O125 C147 1.295 . S
O126 Zr111 2.207 . S
O126 C137 1.295 . S
O127 Zr107 2.207 . S
O127 C134 1.295 . S
O128 Zr107 2.207 . S
O128 C138 1.295 . S
O129 Zr111 2.207 . S
O129 C139 1.295 . S
O130 Zr105 2.207 . S
O130 C147 1.295 . S
O131 Zr113 2.207 1_565 S
O131 C146 1.295 . S
O132 Zr113 2.207 . S
O132 C144 1.295 . S
O133 Zr105 2.207 1_565 S
O133 C145 1.295 . S
C134 O100 1.295 . S
C134 O127 1.295 . S
O135 Zr106 2.207 . S
O135 C143 1.295 . S
O136 Zr106 2.207 . S
O136 C141 1.295 . S
C137 O115 1.295 . S
C137 O126 1.295 . S
C138 O116 1.295 . S
C138 O128 1.295 . S
C139 O117 1.295 . S
C139 O129 1.295 . S
C140 O118 1.295 . S
C140 O149 1.295 . S
C141 O119 1.295 . S
C141 O136 1.295 . S
C142 O120 1.295 . S
C142 O148 1.295 . S
C143 O121 1.295 . S
C143 O135 1.295 . S
C144 O122 1.295 . S
C144 O132 1.295 . S
C145 O123 1.295 . S
C145 O133 1.295 . S
C146 O124 1.295 . S
C146 O131 1.295 . S
C147 O125 1.295 . S
C147 O130 1.295 . S
O148 Zr112 2.207 . S
O148 C142 1.295 . S
O149 Zr112 2.207 . S
O149 C140 1.295 . S
O150 Zr155 2.207 . S
O150 C184 1.295 . S
O151 Zr155 2.133 . S
O151 Zr156 2.133 . S
O151 Zr157 2.133 . S
O152 Zr155 2.133 1_556 S
O152 Zr161 2.133 1_556 S
O152 Zr162 2.133 . S
O153 Zr155 2.133 1_556 S
O153 Zr157 2.133 1_556 S
O153 Zr162 2.133 . S
O154 Zr155 2.133 . S
O154 Zr156 2.133 . S
O154 Zr161 2.133 . S
Zr155 O150 2.207 . S
Zr155 O151 2.133 . S
Zr155 O152 2.133 1_554 S
Zr155 O153 2.133 1_554 S
Zr155 O154 2.133 . S
Zr155 O167 2.207 . S
Zr155 O180 2.207 . S
Zr155 O183 2.207 1_554 S
Zr156 O151 2.133 . S
Zr156 O154 2.133 . S
Zr156 O158 2.133 . S
Zr156 O160 2.133 . S
Zr156 O172 2.207 . S
Zr156 O175 2.207 . S
Zr156 O185 2.207 . S
Zr156 O186 2.207 . S
Zr157 O151 2.133 . S
Zr157 O153 2.133 1_554 S
Zr157 O159 2.133 1_554 S
Zr157 O160 2.133 . S
Zr157 O169 2.207 . S
Zr157 O170 2.207 1_554 S
Zr157 O177 2.207 . S
Zr157 O178 2.207 . S
O158 Zr156 2.133 . S
O158 Zr161 2.133 . S
O158 Zr163 2.133 . S
O159 Zr157 2.133 1_556 S
O159 Zr162 2.133 . S
O159 Zr163 2.133 1_556 S
O160 Zr156 2.133 . S
O160 Zr157 2.133 . S
O160 Zr163 2.133 . S
Zr161 O152 2.133 1_554 S
Zr161 O154 2.133 . S
Zr161 O158 2.133 . S
Zr161 O164 2.133 1_554 S
Zr161 O168 2.207 1_554 S
Zr161 O171 2.207 . S
Zr161 O176 2.207 . S
Zr161 O179 2.207 . S
Zr162 O152 2.133 . S
Zr162 O153 2.133 . S
Zr162 O159 2.133 . S
Zr162 O164 2.133 . S
Zr162 O173 2.207 . S
Zr162 O174 2.207 . S
Zr162 O198 2.207 . S
Zr162 O199 2.207 . S
Zr163 O158 2.133 . S
Zr163 O159 2.133 1_554 S
Zr163 O160 2.133 . S
Zr163 O164 2.133 1_554 S
Zr163 O165 2.207 . S
Zr163 O166 2.207 . S
Zr163 O181 2.207 1_554 S
Zr163 O182 2.207 . S
O164 Zr161 2.133 1_556 S
O164 Zr162 2.133 . S
O164 Zr163 2.133 1_556 S
O165 Zr163 2.207 . S
O165 C187 1.295 . S
O166 Zr163 2.207 . S
O166 C188 1.295 . S
O167 Zr155 2.207 . S
O167 C189 1.295 . S
O168 Zr161 2.207 1_556 S
O168 C190 1.295 . S
O169 Zr157 2.207 . S
O169 C191 1.295 . S
O170 Zr157 2.207 1_556 S
O170 C192 1.295 . S
O171 Zr161 2.207 . S
O171 C193 1.295 . S
O172 Zr156 2.207 . S
O172 C194 1.295 . S
O173 Zr162 2.207 . S
O173 C195 1.295 . S
O174 Zr162 2.207 . S
O174 C196 1.295 . S
O175 Zr156 2.207 . S
O175 C197 1.295 . S
O176 Zr161 2.207 . S
O176 C187 1.295 . S
O177 Zr157 2.207 . S
O177 C184 1.295 . S
O178 Zr157 2.207 . S
O178 C188 1.295 . S
O179 Zr161 2.207 . S
O179 C189 1.295 . S
O180 Zr155 2.207 . S
O180 C197 1.295 . S
O181 Zr163 2.207 1_556 S
O181 C196 1.295 . S
O182 Zr163 2.207 . S
O182 C194 1.295 . S
O183 Zr155 2.207 1_556 S
O183 C195 1.295 . S
C184 O150 1.295 . S
C184 O177 1.295 . S
O185 Zr156 2.207 . S
O185 C193 1.295 . S
O186 Zr156 2.207 . S
O186 C191 1.295 . S
C187 O165 1.295 . S
C187 O176 1.295 . S
C188 O166 1.295 . S
C188 O178 1.295 . S
C189 O167 1.295 . S
C189 O179 1.295 . S
C190 O168 1.295 . S
C190 O199 1.295 . S
C191 O169 1.295 . S
C191 O186 1.295 . S
C192 O170 1.295 . S
C192 O198 1.295 . S
C193 O171 1.295 . S
C193 O185 1.295 . S
C194 O172 1.295 . S
C194 O182 1.295 . S
C195 O173 1.295 . S
C195 O183 1.295 . S
C196 O174 1.295 . S
C196 O181 1.295 . S
C197 O175 1.295 . S
C197 O180 1.295 . S
O198 Zr162 2.207 . S
O198 C192 1.295 . S
O199 Zr162 2.207 . S
O199 C190 1.295 . S
H200 C218 0.951 . S
H201 C220 0.951 . S
H202 C222 0.950 . S
H203 C223 0.950 . S
H204 C225 0.950 . S
H205 C228 0.950 . S
H206 C229 0.950 . S
H207 C231 0.950 . S
H208 C232 0.950 . S
H209 C233 0.951 . S
H210 C235 0.951 . S
H211 C237 0.950 . S
H212 C238 0.950 . S
H213 C240 0.950 . S
H214 C243 0.950 . S
H215 C244 0.950 . S
H216 C246 0.950 . S
H217 C247 0.950 . S
C218 H200 0.951 . S
C218 C219 1.366 1_655 S
C218 C220 1.388 . S
C219 C218 1.366 1_455 S
C219 C223 1.384 . S
C220 H201 0.951 . S
C220 C218 1.388 . S
C220 C221 1.366 1_655 S
C221 C220 1.366 1_455 S
C221 C222 1.414 . S
C221 C224 1.499 . S
C222 H202 0.950 . S
C222 C221 1.414 . S
C222 C223 1.374 . S
C223 H203 0.950 . S
C223 C219 1.384 . S
C223 C222 1.374 . S
C224 C221 1.499 . S
C224 C225 1.373 . S
C224 C226 1.389 1_455 S
C225 H204 0.950 . S
C225 C224 1.373 . S
C225 C241 1.377 . S
C226 C224 1.389 1_655 S
C226 C227 1.525 . S
C226 C240 1.377 . S
C227 C226 1.525 . S
C227 C228 1.376 1_655 S
C227 C232 1.381 . S
C228 H205 0.950 . S
C228 C227 1.376 1_455 S
C228 C229 1.334 . S
C229 H206 0.950 . S
C229 C228 1.334 . S
C229 C230 1.287 . S
C230 C229 1.287 . S
C230 C231 1.524 1_455 S
C230 H249 0.913 . S
C231 H207 0.950 . S
C231 C230 1.524 1_655 S
C231 C232 1.415 . S
C232 H208 0.950 . S
C232 C227 1.381 . S
C232 C231 1.415 . S
C233 H209 0.951 . S
C233 C234 1.366 . S
C233 C235 1.388 . S
C234 C233 1.366 . S
C234 C238 1.384 1_455 S
C235 H210 0.951 . S
C235 C233 1.388 . S
C235 C236 1.366 1_455 S
C236 C235 1.366 1_655 S
C236 C237 1.414 . S
C236 C239 1.499 . S
C237 H211 0.950 . S
C237 C236 1.414 . S
C237 C238 1.374 . S
C238 H212 0.950 . S
C238 C234 1.384 1_655 S
C238 C237 1.374 . S
C239 C236 1.499 . S
C239 C240 1.373 . S
C239 C241 1.389 1_655 S
C240 H213 0.950 . S
C240 C226 1.377 . S
C240 C239 1.373 . S
C241 C225 1.377 . S
C241 C239 1.389 1_455 S
C241 C242 1.524 . S
C242 C241 1.524 . S
C242 C243 1.397 1_455 S
C242 C247 1.363 . S
C243 H214 0.950 . S
C243 C242 1.397 1_655 S
C243 C244 1.334 . S
C244 H215 0.950 . S
C244 C243 1.334 . S
C244 C245 1.287 . S
C245 C244 1.287 . S
C245 C246 1.524 1_655 S
C245 H248 0.999 . S
C246 H216 0.950 . S
C246 C245 1.524 1_455 S
C246 C247 1.415 . S
C247 H217 0.950 . S
C247 C242 1.363 . S
C247 C246 1.415 . S
H248 C245 0.999 . S
H249 C230 0.913 . S
H250 C268 0.951 . S
H251 C270 0.951 . S
H252 C272 0.950 . S
H253 C273 0.950 . S
H254 C275 0.950 . S
H255 C278 0.950 . S
H256 C279 0.950 . S
H257 C281 0.950 . S
H258 C282 0.950 . S
H259 C283 0.951 . S
H260 C285 0.951 . S
H261 C287 0.950 . S
H262 C288 0.950 . S
H263 C290 0.950 . S
H264 C293 0.950 . S
H265 C294 0.950 . S
H266 C296 0.950 . S
H267 C297 0.950 . S
C268 H250 0.951 . S
C268 C269 1.366 1_565 S
C268 C270 1.388 . S
C269 C268 1.366 1_545 S
C269 C273 1.384 . S
C270 H251 0.951 . S
C270 C268 1.388 . S
C270 C271 1.366 1_565 S
C271 C270 1.366 1_545 S
C271 C272 1.414 . S
C271 C274 1.499 . S
C272 H252 0.950 . S
C272 C271 1.414 . S
C272 C273 1.374 . S
C273 H253 0.950 . S
C273 C269 1.384 . S
C273 C272 1.374 . S
C274 C271 1.499 . S
C274 C275 1.373 1_545 S
C274 C276 1.389 . S
C275 H254 0.950 . S
C275 C274 1.373 1_565 S
C275 C291 1.377 . S
C276 C274 1.389 . S
C276 C277 1.524 . S
C276 C290 1.377 . S
C277 C276 1.524 . S
C277 C278 1.397 . S
C277 C282 1.363 . S
C278 H255 0.950 . S
C278 C277 1.397 . S
C278 C279 1.334 . S
C279 H256 0.950 . S
C279 C278 1.334 . S
C279 C280 1.287 . S
C280 C279 1.287 . S
C280 C281 1.524 . S
C280 H299 0.913 . S
C281 H257 0.950 . S
C281 C280 1.524 . S
C281 C282 1.415 . S
C282 H258 0.950 . S
C282 C277 1.363 . S
C282 C281 1.415 . S
C283 H259 0.951 . S
C283 C284 1.366 . S
C283 C285 1.388 . S
C284 C283 1.366 . S
C284 C288 1.384 1_545 S
C285 H260 0.951 . S
C285 C283 1.388 . S
C285 C286 1.366 1_545 S
C286 C285 1.366 1_565 S
C286 C287 1.414 . S
C286 C289 1.499 . S
C287 H261 0.950 . S
C287 C286 1.414 . S
C287 C288 1.374 . S
C288 H262 0.950 . S
C288 C284 1.384 1_565 S
C288 C287 1.374 . S
C289 C286 1.499 . S
C289 C290 1.373 1_565 S
C289 C291 1.389 . S
C290 H263 0.950 . S
C290 C276 1.377 . S
C290 C289 1.373 1_545 S
C291 C275 1.377 . S
C291 C289 1.389 . S
C291 C292 1.524 . S
C292 C291 1.524 . S
C292 C293 1.397 . S
C292 C297 1.363 . S
C293 H264 0.950 . S
C293 C292 1.397 . S
C293 C294 1.334 . S
C294 H265 0.950 . S
C294 C293 1.334 . S
C294 C295 1.287 . S
C295 C294 1.287 . S
C295 C296 1.524 . S
C295 H298 0.999 . S
C296 H266 0.950 . S
C296 C295 1.524 . S
C296 C297 1.415 . S
C297 H267 0.950 . S
C297 C292 1.363 . S
C297 C296 1.415 . S
H298 C295 0.999 . S
H299 C280 0.913 . S
H300 C318 0.951 . S
H301 C320 0.951 . S
H302 C322 0.950 . S
H303 C323 0.950 . S
H304 C325 0.950 . S
H305 C328 0.950 . S
H306 C329 0.950 . S
H307 C331 0.950 . S
H308 C332 0.950 . S
H309 C333 0.951 . S
H310 C335 0.951 . S
H311 C337 0.950 . S
H312 C338 0.950 . S
H313 C340 0.950 . S
H314 C343 0.950 . S
H315 C344 0.950 . S
H316 C346 0.950 . S
H317 C347 0.950 . S
C318 H300 0.951 . S
C318 C319 1.365 1_655 S
C318 C320 1.388 . S
C319 C318 1.365 1_455 S
C319 C323 1.386 . S
C320 H301 0.951 . S
C320 C318 1.388 . S
C320 C321 1.366 . S
C321 C320 1.366 . S
C321 C322 1.414 1_655 S
C321 C324 1.499 . S
C322 H302 0.950 . S
C322 C321 1.414 1_455 S
C322 C323 1.374 . S
C323 H303 0.950 . S
C323 C319 1.386 . S
C323 C322 1.374 . S
C324 C321 1.499 . S
C324 C325 1.367 1_655 S
C324 C326 1.396 . S
C325 H304 0.950 . S
C325 C324 1.367 1_455 S
C325 C341 1.377 . S
C326 C324 1.396 . S
C326 C327 1.524 . S
C326 C340 1.377 . S
C327 C326 1.524 . S
C327 C328 1.397 . S
C327 C332 1.363 . S
C328 H305 0.950 . S
C328 C327 1.397 . S
C328 C329 1.334 . S
C329 H306 0.950 . S
C329 C328 1.334 . S
C329 C330 1.287 . S
C330 C329 1.287 . S
C330 C331 1.524 . S
C330 H349 0.913 . S
C331 H307 0.950 . S
C331 C330 1.524 . S
C331 C332 1.415 . S
C332 H308 0.950 . S
C332 C327 1.363 . S
C332 C331 1.415 . S
C333 H309 0.951 . S
C333 C334 1.365 . S
C333 C335 1.388 . S
C334 C333 1.365 . S
C334 C338 1.386 1_455 S
C335 H310 0.951 . S
C335 C333 1.388 . S
C335 C336 1.366 . S
C336 C335 1.366 . S
C336 C337 1.414 1_455 S
C336 C339 1.499 . S
C337 H311 0.950 . S
C337 C336 1.414 1_655 S
C337 C338 1.374 . S
C338 H312 0.950 . S
C338 C334 1.386 1_655 S
C338 C337 1.374 . S
C339 C336 1.499 . S
C339 C340 1.361 1_455 S
C339 C341 1.401 . S
C340 H313 0.950 . S
C340 C326 1.377 . S
C340 C339 1.361 1_655 S
C341 C325 1.377 . S
C341 C339 1.401 . S
C341 C342 1.524 . S
C342 C341 1.524 . S
C342 C343 1.397 . S
C342 C347 1.363 . S
C343 H314 0.950 . S
C343 C342 1.397 . S
C343 C344 1.334 . S
C344 H315 0.950 . S
C344 C343 1.334 . S
C344 C345 1.287 . S
C345 C344 1.287 . S
C345 C346 1.524 . S
C345 H348 0.999 . S
C346 H316 0.950 . S
C346 C345 1.524 . S
C346 C347 1.415 . S
C347 H317 0.950 . S
C347 C342 1.363 . S
C347 C346 1.415 . S
H348 C345 0.999 . S
H349 C330 0.913 . S
H350 C368 0.951 . S
H351 C370 0.951 . S
H352 C372 0.950 . S
H353 C373 0.950 . S
H354 C375 0.950 . S
H355 C378 0.950 . S
H356 C379 0.950 . S
H357 C381 0.950 . S
H358 C382 0.950 . S
H359 C383 0.951 . S
H360 C385 0.951 . S
H361 C387 0.950 . S
H362 C388 0.950 . S
H363 C390 0.950 . S
H364 C393 0.950 . S
H365 C394 0.950 . S
H366 C396 0.950 . S
H367 C397 0.950 . S
C368 H350 0.951 . S
C368 C369 1.365 1_565 S
C368 C370 1.388 . S
C369 C368 1.365 1_545 S
C369 C373 1.386 . S
C370 H351 0.951 . S
C370 C368 1.388 . S
C370 C371 1.366 . S
C371 C370 1.366 . S
C371 C372 1.414 1_565 S
C371 C374 1.499 . S
C372 H352 0.950 . S
C372 C371 1.414 1_545 S
C372 C373 1.374 . S
C373 H353 0.950 . S
C373 C369 1.386 . S
C373 C372 1.374 . S
C374 C371 1.499 . S
C374 C375 1.373 1_565 S
C374 C376 1.389 . S
C375 H354 0.950 . S
C375 C374 1.373 1_545 S
C375 C391 1.377 . S
C376 C374 1.389 . S
C376 C377 1.524 . S
C376 C390 1.377 . S
C377 C376 1.524 . S
C377 C378 1.397 . S
C377 C382 1.363 . S
C378 H355 0.950 . S
C378 C377 1.397 . S
C378 C379 1.334 . S
C379 H356 0.950 . S
C379 C378 1.334 . S
C379 C380 1.287 . S
C380 C379 1.287 . S
C380 C381 1.524 . S
C380 H399 0.913 . S
C381 H357 0.950 . S
C381 C380 1.524 . S
C381 C382 1.415 . S
C382 H358 0.950 . S
C382 C377 1.363 . S
C382 C381 1.415 . S
C383 H359 0.951 . S
C383 C384 1.365 . S
C383 C385 1.388 . S
C384 C383 1.365 . S
C384 C388 1.386 1_545 S
C385 H360 0.951 . S
C385 C383 1.388 . S
C385 C386 1.366 . S
C386 C385 1.366 . S
C386 C387 1.414 1_545 S
C386 C389 1.499 . S
C387 H361 0.950 . S
C387 C386 1.414 1_565 S
C387 C388 1.374 . S
C388 H362 0.950 . S
C388 C384 1.386 1_565 S
C388 C387 1.374 . S
C389 C386 1.499 . S
C389 C390 1.373 1_545 S
C389 C391 1.389 . S
C390 H363 0.950 . S
C390 C376 1.377 . S
C390 C389 1.373 1_565 S
C391 C375 1.377 . S
C391 C389 1.389 . S
C391 C392 1.524 . S
C392 C391 1.524 . S
C392 C393 1.397 . S
C392 C397 1.363 . S
C393 H364 0.950 . S
C393 C392 1.397 . S
C393 C394 1.334 . S
C394 H365 0.950 . S
C394 C393 1.334 . S
C394 C395 1.287 . S
C395 C394 1.287 . S
C395 C396 1.524 . S
C395 H398 0.999 . S
C396 H366 0.950 . S
C396 C395 1.524 . S
C396 C397 1.415 . S
C397 H367 0.950 . S
C397 C392 1.363 . S
C397 C396 1.415 . S
H398 C395 0.999 . S
H399 C380 0.913 . S
H400 C418 0.951 . S
H401 C420 0.951 . S
H402 C422 0.950 . S
H403 C423 0.950 . S
H404 C425 0.950 . S
H405 C428 0.950 . S
H406 C429 0.950 . S
H407 C431 0.950 . S
H408 C432 0.950 . S
H409 C433 0.951 . S
H410 C435 0.951 . S
H411 C437 0.950 . S
H412 C438 0.950 . S
H413 C440 0.950 . S
H414 C443 0.950 . S
H415 C444 0.950 . S
H416 C446 0.950 . S
H417 C447 0.950 . S
C418 H400 0.951 . S
C418 C419 1.366 . S
C418 C420 1.388 . S
C419 C418 1.366 . S
C419 C423 1.385 1_455 S
C420 H401 0.951 . S
C420 C418 1.388 . S
C420 C421 1.366 . S
C421 C420 1.366 . S
C421 C422 1.414 1_455 S
C421 C424 1.499 . S
C422 H402 0.950 . S
C422 C421 1.414 1_655 S
C422 C423 1.374 . S
C423 H403 0.950 . S
C423 C419 1.385 1_655 S
C423 C422 1.374 . S
C424 C421 1.499 . S
C424 C425 1.373 1_455 S
C424 C426 1.389 . S
C425 H404 0.950 . S
C425 C424 1.373 1_655 S
C425 C441 1.377 . S
C426 C424 1.389 . S
C426 C427 1.524 . S
C426 C440 1.377 . S
C427 C426 1.524 . S
C427 C428 1.397 . S
C427 C432 1.363 . S
C428 H405 0.950 . S
C428 C427 1.397 . S
C428 C429 1.334 . S
C429 H406 0.950 . S
C429 C428 1.334 . S
C429 C430 1.287 . S
C430 C429 1.287 . S
C430 C431 1.524 . S
C430 H449 0.913 . S
C431 H407 0.950 . S
C431 C430 1.524 . S
C431 C432 1.415 . S
C432 H408 0.950 . S
C432 C427 1.363 . S
C432 C431 1.415 . S
C433 H409 0.951 . S
C433 C434 1.366 1_655 S
C433 C435 1.388 . S
C434 C433 1.366 1_455 S
C434 C438 1.385 . S
C435 H410 0.951 . S
C435 C433 1.388 . S
C435 C436 1.366 . S
C436 C435 1.366 . S
C436 C437 1.414 1_655 S
C436 C439 1.499 . S
C437 H411 0.950 . S
C437 C436 1.414 1_455 S
C437 C438 1.374 . S
C438 H412 0.950 . S
C438 C434 1.385 . S
C438 C437 1.374 . S
C439 C436 1.499 . S
C439 C440 1.373 1_655 S
C439 C441 1.389 . S
C440 H413 0.950 . S
C440 C426 1.377 . S
C440 C439 1.373 1_455 S
C441 C425 1.377 . S
C441 C439 1.389 . S
C441 C442 1.524 . S
C442 C441 1.524 . S
C442 C443 1.397 . S
C442 C447 1.363 . S
C443 H414 0.950 . S
C443 C442 1.397 . S
C443 C444 1.334 . S
C444 H415 0.950 . S
C444 C443 1.334 . S
C444 C445 1.287 . S
C445 C444 1.287 . S
C445 C446 1.524 . S
C445 H448 0.999 . S
C446 H416 0.950 . S
C446 C445 1.524 . S
C446 C447 1.415 . S
C447 H417 0.950 . S
C447 C442 1.363 . S
C447 C446 1.415 . S
H448 C445 0.999 . S
H449 C430 0.913 . S
H450 C468 0.951 . S
H451 C470 0.951 . S
H452 C472 0.950 . S
H453 C473 0.950 . S
H454 C475 0.950 . S
H455 C478 0.950 . S
H456 C479 0.950 . S
H457 C481 0.950 . S
H458 C482 0.950 . S
H459 C483 0.951 . S
H460 C485 0.951 . S
H461 C487 0.950 . S
H462 C488 0.950 . S
H463 C490 0.950 . S
H464 C493 0.950 . S
H465 C494 0.950 . S
H466 C496 0.950 . S
H467 C497 0.950 . S
C468 H450 0.951 . S
C468 C469 1.365 . S
C468 C470 1.388 . S
C469 C468 1.365 . S
C469 C473 1.386 1_545 S
C470 H451 0.951 . S
C470 C468 1.388 . S
C470 C471 1.366 . S
C471 C470 1.366 . S
C471 C472 1.414 1_545 S
C471 C474 1.499 . S
C472 H452 0.950 . S
C472 C471 1.414 1_565 S
C472 C473 1.374 . S
C473 H453 0.950 . S
C473 C469 1.386 1_565 S
C473 C472 1.374 . S
C474 C471 1.499 . S
C474 C475 1.372 1_545 S
C474 C476 1.391 . S
C475 H454 0.950 . S
C475 C474 1.372 1_565 S
C475 C491 1.377 . S
C476 C474 1.391 . S
C476 C477 1.524 . S
C476 C490 1.377 . S
C477 C476 1.524 . S
C477 C478 1.397 . S
C477 C482 1.363 . S
C478 H455 0.950 . S
C478 C477 1.397 . S
C478 C479 1.334 . S
C479 H456 0.950 . S
C479 C478 1.334 . S
C479 C480 1.287 . S
C480 C479 1.287 . S
C480 C481 1.524 . S
C480 H499 0.913 . S
C481 H457 0.950 . S
C481 C480 1.524 . S
C481 C482 1.415 . S
C482 H458 0.950 . S
C482 C477 1.363 . S
C482 C481 1.415 . S
C483 H459 0.951 . S
C483 C484 1.365 1_565 S
C483 C485 1.388 . S
C484 C483 1.365 1_545 S
C484 C488 1.386 . S
C485 H460 0.951 . S
C485 C483 1.388 . S
C485 C486 1.385 . S
C486 C485 1.385 . S
C486 C487 1.394 1_565 S
C486 C489 1.498 1_565 S
C487 H461 0.950 . S
C487 C486 1.394 1_545 S
C487 C488 1.374 . S
C488 H462 0.950 . S
C488 C484 1.386 . S
C488 C487 1.374 . S
C489 C486 1.498 1_545 S
C489 C490 1.372 . S
C489 C491 1.391 1_545 S
C490 H463 0.950 . S
C490 C476 1.377 . S
C490 C489 1.372 . S
C491 C475 1.377 . S
C491 C489 1.391 1_565 S
C491 C492 1.524 . S
C492 C491 1.524 . S
C492 C493 1.397 . S
C492 C497 1.363 . S
C493 H464 0.950 . S
C493 C492 1.397 . S
C493 C494 1.334 . S
C494 H465 0.950 . S
C494 C493 1.334 . S
C494 C495 1.287 . S
C495 C494 1.287 . S
C495 C496 1.524 . S
C495 H498 0.999 . S
C496 H466 0.950 . S
C496 C495 1.524 . S
C496 C497 1.415 . S
C497 H467 0.950 . S
C497 C492 1.363 . S
C497 C496 1.415 . S
H498 C495 0.999 . S
H499 C480 0.913 . S
H500 C518 0.951 . S
H501 C520 0.951 . S
H502 C522 0.950 . S
H503 C523 0.950 . S
H504 C525 0.950 . S
H505 C528 0.950 . S
H506 C529 0.950 . S
H507 C531 0.950 . S
H508 C532 0.950 . S
H509 C533 0.951 . S
H510 C535 0.951 . S
H511 C537 0.950 . S
H512 C538 0.950 . S
H513 C540 0.950 . S
H514 C543 0.950 . S
H515 C544 0.950 . S
H516 C546 0.950 . S
H517 C547 0.950 . S
C518 H500 0.951 . S
C518 C519 1.365 1_655 S
C518 C520 1.388 . S
C519 C518 1.365 1_455 S
C519 C523 1.385 . S
C520 H501 0.951 . S
C520 C518 1.388 . S
C520 C521 1.366 . S
C521 C520 1.366 . S
C521 C522 1.414 1_655 S
C521 C524 1.499 . S
C522 H502 0.950 . S
C522 C521 1.414 1_455 S
C522 C523 1.374 . S
C523 H503 0.950 . S
C523 C519 1.385 . S
C523 C522 1.374 . S
C524 C521 1.499 . S
C524 C525 1.373 1_655 S
C524 C526 1.389 . S
C525 H504 0.950 . S
C525 C524 1.373 1_455 S
C525 C541 1.377 . S
C526 C524 1.389 . S
C526 C527 1.524 . S
C526 C540 1.377 . S
C527 C526 1.524 . S
C527 C528 1.397 . S
C527 C532 1.363 . S
C528 H505 0.950 . S
C528 C527 1.397 . S
C528 C529 1.334 . S
C529 H506 0.950 . S
C529 C528 1.334 . S
C529 C530 1.287 . S
C530 C529 1.287 . S
C530 C531 1.524 . S
C530 H549 0.913 . S
C531 H507 0.950 . S
C531 C530 1.524 . S
C531 C532 1.415 . S
C532 H508 0.950 . S
C532 C527 1.363 . S
C532 C531 1.415 . S
C533 H509 0.951 . S
C533 C534 1.365 . S
C533 C535 1.388 . S
C534 C533 1.365 . S
C534 C538 1.385 1_455 S
C535 H510 0.951 . S
C535 C533 1.388 . S
C535 C536 1.366 . S
C536 C535 1.366 . S
C536 C537 1.414 1_455 S
C536 C539 1.499 . S
C537 H511 0.950 . S
C537 C536 1.414 1_655 S
C537 C538 1.374 . S
C538 H512 0.950 . S
C538 C534 1.385 1_655 S
C538 C537 1.374 . S
C539 C536 1.499 . S
C539 C540 1.373 1_455 S
C539 C541 1.389 . S
C540 H513 0.950 . S
C540 C526 1.377 . S
C540 C539 1.373 1_655 S
C541 C525 1.377 . S
C541 C539 1.389 . S
C541 C542 1.524 . S
C542 C541 1.524 . S
C542 C543 1.397 . S
C542 C547 1.363 . S
C543 H514 0.950 . S
C543 C542 1.397 . S
C543 C544 1.334 . S
C544 H515 0.950 . S
C544 C543 1.334 . S
C544 C545 1.287 . S
C545 C544 1.287 . S
C545 C546 1.524 . S
C545 H548 0.999 . S
C546 H516 0.950 . S
C546 C545 1.524 . S
C546 C547 1.415 . S
C547 H517 0.950 . S
C547 C542 1.363 . S
C547 C546 1.415 . S
H548 C545 0.999 . S
H549 C530 0.913 . S
H550 C568 0.951 . S
H551 C570 0.951 . S
H552 C572 0.950 . S
H553 C573 0.950 . S
H554 C575 0.950 . S
H555 C578 0.950 . S
H556 C579 0.950 . S
H557 C581 0.950 . S
H558 C582 0.950 . S
H559 C583 0.951 . S
H560 C585 0.951 . S
H561 C587 0.950 . S
H562 C588 0.950 . S
H563 C590 0.950 . S
H564 C593 0.950 . S
H565 C594 0.950 . S
H566 C596 0.950 . S
H567 C597 0.950 . S
C568 H550 0.951 . S
C568 C569 1.366 1_565 S
C568 C570 1.388 . S
C569 C568 1.366 1_545 S
C569 C573 1.384 . S
C570 H551 0.951 . S
C570 C568 1.388 . S
C570 C571 1.366 1_565 S
C571 C570 1.366 1_545 S
C571 C572 1.414 . S
C571 C574 1.499 . S
C572 H552 0.950 . S
C572 C571 1.414 . S
C572 C573 1.374 . S
C573 H553 0.950 . S
C573 C569 1.384 . S
C573 C572 1.374 . S
C574 C571 1.499 . S
C574 C575 1.373 1_545 S
C574 C576 1.389 . S
C575 H554 0.950 . S
C575 C574 1.373 1_565 S
C575 C591 1.377 . S
C576 C574 1.389 . S
C576 C577 1.524 . S
C576 C590 1.377 . S
C577 C576 1.524 . S
C577 C578 1.397 . S
C577 C582 1.363 . S
C578 H555 0.950 . S
C578 C577 1.397 . S
C578 C579 1.334 . S
C579 H556 0.950 . S
C579 C578 1.334 . S
C579 C580 1.287 . S
C580 C579 1.287 . S
C580 C581 1.524 . S
C580 H599 0.913 . S
C581 H557 0.950 . S
C581 C580 1.524 . S
C581 C582 1.415 . S
C582 H558 0.950 . S
C582 C577 1.363 . S
C582 C581 1.415 . S
C583 H559 0.951 . S
C583 C584 1.366 . S
C583 C585 1.388 . S
C584 C583 1.366 . S
C584 C588 1.384 1_545 S
C585 H560 0.951 . S
C585 C583 1.388 . S
C585 C586 1.366 1_545 S
C586 C585 1.366 1_565 S
C586 C587 1.414 . S
C586 C589 1.499 . S
C587 H561 0.950 . S
C587 C586 1.414 . S
C587 C588 1.374 . S
C588 H562 0.950 . S
C588 C584 1.384 1_565 S
C588 C587 1.374 . S
C589 C586 1.499 . S
C589 C590 1.373 1_565 S
C589 C591 1.389 . S
C590 H563 0.950 . S
C590 C576 1.377 . S
C590 C589 1.373 1_545 S
C591 C575 1.377 . S
C591 C589 1.389 . S
C591 C592 1.524 . S
C592 C591 1.524 . S
C592 C593 1.397 . S
C592 C597 1.363 . S
C593 H564 0.950 . S
C593 C592 1.397 . S
C593 C594 1.334 . S
C594 H565 0.950 . S
C594 C593 1.334 . S
C594 C595 1.287 . S
C595 C594 1.287 . S
C595 C596 1.524 . S
C595 H598 0.999 . S
C596 H566 0.950 . S
C596 C595 1.524 . S
C596 C597 1.415 . S
C597 H567 0.950 . S
C597 C592 1.363 . S
C597 C596 1.415 . S
H598 C595 0.999 . S
H599 C580 0.913 . S
H600 C618 0.951 . S
H601 C620 0.951 . S
H602 C622 0.950 . S
H603 C623 0.950 . S
H604 C625 0.950 . S
H605 C628 0.950 . S
H606 C629 0.950 . S
H607 C631 0.950 . S
H608 C632 0.950 . S
H609 C633 0.951 . S
H610 C635 0.951 . S
H611 C637 0.950 . S
H612 C638 0.950 . S
H613 C640 0.950 . S
H614 C643 0.950 . S
H615 C644 0.950 . S
H616 C646 0.950 . S
H617 C647 0.950 . S
C618 H600 0.951 . S
C618 C619 1.365 1_556 S
C618 C620 1.388 . S
C619 C618 1.365 1_554 S
C619 C623 1.385 . S
C620 H601 0.951 . S
C620 C618 1.388 . S
C620 C621 1.366 . S
C621 C620 1.366 . S
C621 C622 1.414 1_556 S
C621 C624 1.499 . S
C622 H602 0.950 . S
C622 C621 1.414 1_554 S
C622 C623 1.374 . S
C623 H603 0.950 . S
C623 C619 1.385 . S
C623 C622 1.374 . S
C624 C621 1.499 . S
C624 C625 1.373 1_556 S
C624 C626 1.389 . S
C625 H604 0.950 . S
C625 C624 1.373 1_554 S
C625 C641 1.377 . S
C626 C624 1.389 . S
C626 C627 1.524 . S
C626 C640 1.377 . S
C627 C626 1.524 . S
C627 C628 1.397 . S
C627 C632 1.363 . S
C628 H605 0.950 . S
C628 C627 1.397 . S
C628 C629 1.334 . S
C629 H606 0.950 . S
C629 C628 1.334 . S
C629 C630 1.287 . S
C630 C629 1.287 . S
C630 C631 1.524 . S
C630 H649 0.913 . S
C631 H607 0.950 . S
C631 C630 1.524 . S
C631 C632 1.415 . S
C632 H608 0.950 . S
C632 C627 1.363 . S
C632 C631 1.415 . S
C633 H609 0.951 . S
C633 C634 1.365 . S
C633 C635 1.388 . S
C634 C633 1.365 . S
C634 C638 1.385 1_554 S
C635 H610 0.951 . S
C635 C633 1.388 . S
C635 C636 1.366 . S
C636 C635 1.366 . S
C636 C637 1.414 1_554 S
C636 C639 1.499 . S
C637 H611 0.950 . S
C637 C636 1.414 1_556 S
C637 C638 1.374 . S
C638 H612 0.950 . S
C638 C634 1.385 1_556 S
C638 C637 1.374 . S
C639 C636 1.499 . S
C639 C640 1.373 1_554 S
C639 C641 1.389 . S
C640 H613 0.950 . S
C640 C626 1.377 . S
C640 C639 1.373 1_556 S
C641 C625 1.377 . S
C641 C639 1.389 . S
C641 C642 1.524 . S
C642 C641 1.524 . S
C642 C643 1.397 . S
C642 C647 1.363 . S
C643 H614 0.950 . S
C643 C642 1.397 . S
C643 C644 1.334 . S
C644 H615 0.950 . S
C644 C643 1.334 . S
C644 C645 1.287 . S
C645 C644 1.287 . S
C645 C646 1.524 . S
C645 H648 0.999 . S
C646 H616 0.950 . S
C646 C645 1.524 . S
C646 C647 1.415 . S
C647 H617 0.950 . S
C647 C642 1.363 . S
C647 C646 1.415 . S
H648 C645 0.999 . S
H649 C630 0.913 . S
H650 C668 0.951 . S
H651 C670 0.951 . S
H652 C672 0.950 . S
H653 C673 0.950 . S
H654 C675 0.950 . S
H655 C678 0.950 . S
H656 C679 0.950 . S
H657 C681 0.950 . S
H658 C682 0.950 . S
H659 C683 0.951 . S
H660 C685 0.951 . S
H661 C687 0.950 . S
H662 C688 0.950 . S
H663 C690 0.950 . S
H664 C693 0.950 . S
H665 C694 0.950 . S
H666 C696 0.950 . S
H667 C697 0.950 . S
C668 H650 0.951 . S
C668 C669 1.366 1_556 S
C668 C670 1.388 . S
C669 C668 1.366 1_554 S
C669 C673 1.384 . S
C670 H651 0.951 . S
C670 C668 1.388 . S
C670 C671 1.366 1_556 S
C671 C670 1.366 1_554 S
C671 C672 1.414 . S
C671 C674 1.499 . S
C672 H652 0.950 . S
C672 C671 1.414 . S
C672 C673 1.374 . S
C673 H653 0.950 . S
C673 C669 1.384 . S
C673 C672 1.374 . S
C674 C671 1.499 . S
C674 C675 1.373 . S
C674 C676 1.389 1_554 S
C675 H654 0.950 . S
C675 C674 1.373 . S
C675 C691 1.377 . S
C676 C674 1.389 1_556 S
C676 C677 1.524 . S
C676 C690 1.377 . S
C677 C676 1.524 . S
C677 C678 1.397 1_556 S
C677 C682 1.363 . S
C678 H655 0.950 . S
C678 C677 1.397 1_554 S
C678 C679 1.334 . S
C679 H656 0.950 . S
C679 C678 1.334 . S
C679 C680 1.287 . S
C680 C679 1.287 . S
C680 C681 1.524 1_554 S
C680 H699 0.913 . S
C681 H657 0.950 . S
C681 C680 1.524 1_556 S
C681 C682 1.415 . S
C682 H658 0.950 . S
C682 C677 1.363 . S
C682 C681 1.415 . S
C683 H659 0.951 . S
C683 C684 1.366 . S
C683 C685 1.388 . S
C684 C683 1.366 . S
C684 C688 1.384 1_554 S
C685 H660 0.951 . S
C685 C683 1.388 . S
C685 C686 1.366 1_554 S
C686 C685 1.366 1_556 S
C686 C687 1.414 . S
C686 C689 1.499 . S
C687 H661 0.950 . S
C687 C686 1.414 . S
C687 C688 1.374 . S
C688 H662 0.950 . S
C688 C684 1.384 1_556 S
C688 C687 1.374 . S
C689 C686 1.499 . S
C689 C690 1.373 . S
C689 C691 1.389 1_556 S
C690 H663 0.950 . S
C690 C676 1.377 . S
C690 C689 1.373 . S
C691 C675 1.377 . S
C691 C689 1.389 1_554 S
C691 C692 1.524 . S
C692 C691 1.524 . S
C692 C693 1.397 1_554 S
C692 C697 1.363 . S
C693 H664 0.950 . S
C693 C692 1.397 1_556 S
C693 C694 1.334 . S
C694 H665 0.950 . S
C694 C693 1.334 . S
C694 C695 1.287 . S
C695 C694 1.287 . S
C695 C696 1.524 1_556 S
C695 H698 0.999 . S
C696 H666 0.950 . S
C696 C695 1.524 1_554 S
C696 C697 1.415 . S
C697 H667 0.950 . S
C697 C692 1.363 . S
C697 C696 1.415 . S
H698 C695 0.999 . S
H699 C680 0.913 . S
H700 C718 0.951 . S
H701 C720 0.951 . S
H702 C722 0.950 . S
H703 C723 0.950 . S
H704 C725 0.950 . S
H705 C728 0.950 . S
H706 C729 0.950 . S
H707 C731 0.950 . S
H708 C732 0.950 . S
H709 C733 0.951 . S
H710 C735 0.951 . S
H711 C737 0.950 . S
H712 C738 0.950 . S
H713 C740 0.950 . S
H714 C743 0.950 . S
H715 C744 0.950 . S
H716 C746 0.950 . S
H717 C747 0.950 . S
C718 H700 0.951 . S
C718 C719 1.365 1_556 S
C718 C720 1.388 . S
C719 C718 1.365 1_554 S
C719 C723 1.386 . S
C720 H701 0.951 . S
C720 C718 1.388 . S
C720 C721 1.366 . S
C721 C720 1.366 . S
C721 C722 1.414 1_556 S
C721 C724 1.499 . S
C722 H702 0.950 . S
C722 C721 1.414 1_554 S
C722 C723 1.374 . S
C723 H703 0.950 . S
C723 C719 1.386 . S
C723 C722 1.374 . S
C724 C721 1.499 . S
C724 C725 1.350 1_556 S
C724 C726 1.412 . S
C725 H704 0.950 . S
C725 C724 1.350 1_554 S
C725 C741 1.377 . S
C726 C724 1.412 . S
C726 C727 1.524 . S
C726 C740 1.377 . S
C727 C726 1.524 . S
C727 C728 1.397 . S
C727 C732 1.363 . S
C728 H705 0.950 . S
C728 C727 1.397 . S
C728 C729 1.334 . S
C729 H706 0.950 . S
C729 C728 1.334 . S
C729 C730 1.287 . S
C730 C729 1.287 . S
C730 C731 1.524 . S
C730 H749 0.913 . S
C731 H707 0.950 . S
C731 C730 1.524 . S
C731 C732 1.415 . S
C732 H708 0.950 . S
C732 C727 1.363 . S
C732 C731 1.415 . S
C733 H709 0.951 . S
C733 C734 1.365 . S
C733 C735 1.388 . S
C734 C733 1.365 . S
C734 C738 1.386 1_554 S
C735 H710 0.951 . S
C735 C733 1.388 . S
C735 C736 1.366 . S
C736 C735 1.366 . S
C736 C737 1.414 1_554 S
C736 C739 1.499 . S
C737 H711 0.950 . S
C737 C736 1.414 1_556 S
C737 C738 1.374 . S
C738 H712 0.950 . S
C738 C734 1.386 1_556 S
C738 C737 1.374 . S
C739 C736 1.499 . S
C739 C740 1.373 1_554 S
C739 C741 1.389 . S
C740 H713 0.950 . S
C740 C726 1.377 . S
C740 C739 1.373 1_556 S
C741 C725 1.377 . S
C741 C739 1.389 . S
C741 C742 1.524 . S
C742 C741 1.524 . S
C742 C743 1.397 . S
C742 C747 1.363 . S
C743 H714 0.950 . S
C743 C742 1.397 . S
C743 C744 1.334 . S
C744 H715 0.950 . S
C744 C743 1.334 . S
C744 C745 1.287 . S
C745 C744 1.287 . S
C745 C746 1.524 . S
C745 H748 0.999 . S
C746 H716 0.950 . S
C746 C745 1.524 . S
C746 C747 1.415 . S
C747 H717 0.950 . S
C747 C742 1.363 . S
C747 C746 1.415 . S
H748 C745 0.999 . S
H749 C730 0.913 . S
H750 C768 0.951 . S
H751 C770 0.951 . S
H752 C772 0.950 . S
H753 C773 0.950 . S
H754 C775 0.950 . S
H755 C778 0.950 . S
H756 C779 0.950 . S
H757 C781 0.950 . S
H758 C782 0.950 . S
H759 C783 0.951 . S
H760 C785 0.951 . S
H761 C787 0.950 . S
H762 C788 0.950 . S
H763 C790 0.950 . S
H764 C793 0.950 . S
H765 C794 0.950 . S
H766 C796 0.950 . S
H767 C797 0.950 . S
C768 H750 0.951 . S
C768 C769 1.366 1_556 S
C768 C770 1.388 . S
C769 C768 1.366 1_554 S
C769 C773 1.384 . S
C770 H751 0.951 . S
C770 C768 1.388 . S
C770 C771 1.366 1_556 S
C771 C770 1.366 1_554 S
C771 C772 1.414 . S
C771 C774 1.499 . S
C772 H752 0.950 . S
C772 C771 1.414 . S
C772 C773 1.374 . S
C773 H753 0.950 . S
C773 C769 1.384 . S
C773 C772 1.374 . S
C774 C771 1.499 . S
C774 C775 1.373 1_554 S
C774 C776 1.389 . S
C775 H754 0.950 . S
C775 C774 1.373 1_556 S
C775 C791 1.377 . S
C776 C774 1.389 . S
C776 C777 1.524 . S
C776 C790 1.377 . S
C777 C776 1.524 . S
C777 C778 1.397 . S
C777 C782 1.363 . S
C778 H755 0.950 . S
C778 C777 1.397 . S
C778 C779 1.334 . S
C779 H756 0.950 . S
C779 C778 1.334 . S
C779 C780 1.287 . S
C780 C779 1.287 . S
C780 C781 1.524 . S
C780 H799 0.913 . S
C781 H757 0.950 . S
C781 C780 1.524 . S
C781 C782 1.415 . S
C782 H758 0.950 . S
C782 C777 1.363 . S
C782 C781 1.415 . S
C783 H759 0.951 . S
C783 C784 1.366 . S
C783 C785 1.388 . S
C784 C783 1.366 . S
C784 C788 1.384 1_554 S
C785 H760 0.951 . S
C785 C783 1.388 . S
C785 C786 1.366 1_554 S
C786 C785 1.366 1_556 S
C786 C787 1.414 . S
C786 C789 1.499 . S
C787 H761 0.950 . S
C787 C786 1.414 . S
C787 C788 1.374 . S
C788 H762 0.950 . S
C788 C784 1.384 1_556 S
C788 C787 1.374 . S
C789 C786 1.499 . S
C789 C790 1.373 1_556 S
C789 C791 1.389 . S
C790 H763 0.950 . S
C790 C776 1.377 . S
C790 C789 1.373 1_554 S
C791 C775 1.377 . S
C791 C789 1.389 . S
C791 C792 1.524 . S
C792 C791 1.524 . S
C792 C793 1.397 . S
C792 C797 1.363 . S
C793 H764 0.950 . S
C793 C792 1.397 . S
C793 C794 1.334 . S
C794 H765 0.950 . S
C794 C793 1.334 . S
C794 C795 1.287 . S
C795 C794 1.287 . S
C795 C796 1.524 . S
C795 H798 0.999 . S
C796 H766 0.950 . S
C796 C795 1.524 . S
C796 C797 1.415 . S
C797 H767 0.950 . S
C797 C792 1.363 . S
C797 C796 1.415 . S
H798 C795 0.999 . S
H799 C780 0.913 . S
H800 C818 0.951 . S
H801 C820 0.951 . S
H802 C822 0.950 . S
H803 C823 0.950 . S
H804 C825 0.950 . S
H805 C828 0.950 . S
H806 C829 0.950 . S
H807 C831 0.950 . S
H808 C832 0.950 . S
H809 C833 0.951 . S
H810 C835 0.951 . S
H811 C837 0.950 . S
H812 C838 0.950 . S
H813 C840 0.950 . S
H814 C843 0.950 . S
H815 C844 0.950 . S
H816 C846 0.950 . S
H817 C847 0.950 . S
C818 H800 0.951 . S
C818 C819 1.366 . S
C818 C820 1.388 . S
C819 C818 1.366 . S
C819 C823 1.385 . S
C820 H801 0.951 . S
C820 C818 1.388 . S
C820 C821 1.366 . S
C821 C820 1.366 . S
C821 C822 1.414 . S
C821 C824 1.499 . S
C822 H802 0.950 . S
C822 C821 1.414 . S
C822 C823 1.374 . S
C823 H803 0.950 . S
C823 C819 1.385 . S
C823 C822 1.374 . S
C824 C821 1.499 . S
C824 C825 1.373 . S
C824 C826 1.389 . S
C825 H804 0.950 . S
C825 C824 1.373 . S
C825 C841 1.377 . S
C826 C824 1.389 . S
C826 C827 1.524 . S
C826 C840 1.377 . S
C827 C826 1.524 . S
C827 C828 1.397 . S
C827 C832 1.363 . S
C828 H805 0.950 . S
C828 C827 1.397 . S
C828 C829 1.334 . S
C829 H806 0.950 . S
C829 C828 1.334 . S
C829 C830 1.287 . S
C830 C829 1.287 . S
C830 C831 1.524 . S
C830 H849 0.913 . S
C831 H807 0.950 . S
C831 C830 1.524 . S
C831 C832 1.415 . S
C832 H808 0.950 . S
C832 C827 1.363 . S
C832 C831 1.415 . S
C833 H809 0.951 . S
C833 C834 1.366 . S
C833 C835 1.388 . S
C834 C833 1.366 . S
C834 C838 1.385 . S
C835 H810 0.951 . S
C835 C833 1.388 . S
C835 C836 1.366 . S
C836 C835 1.366 . S
C836 C837 1.414 . S
C836 C839 1.499 . S
C837 H811 0.950 . S
C837 C836 1.414 . S
C837 C838 1.374 . S
C838 H812 0.950 . S
C838 C834 1.385 . S
C838 C837 1.374 . S
C839 C836 1.499 . S
C839 C840 1.373 . S
C839 C841 1.389 . S
C840 H813 0.950 . S
C840 C826 1.377 . S
C840 C839 1.373 . S
C841 C825 1.377 . S
C841 C839 1.389 . S
C841 C842 1.524 . S
C842 C841 1.524 . S
C842 C843 1.397 . S
C842 C847 1.363 . S
C843 H814 0.950 . S
C843 C842 1.397 . S
C843 C844 1.334 . S
C844 H815 0.950 . S
C844 C843 1.334 . S
C844 C845 1.287 . S
C845 C844 1.287 . S
C845 C846 1.524 . S
C845 H848 0.999 . S
C846 H816 0.950 . S
C846 C845 1.524 . S
C846 C847 1.415 . S
C847 H817 0.950 . S
C847 C842 1.363 . S
C847 C846 1.415 . S
H848 C845 0.999 . S
H849 C830 0.913 . S
H850 C868 0.951 . S
H851 C870 0.951 . S
H852 C872 0.950 . S
H853 C873 0.950 . S
H854 C875 0.950 . S
H855 C878 0.950 . S
H856 C879 0.950 . S
H857 C881 0.950 . S
H858 C882 0.950 . S
H859 C883 0.951 . S
H860 C885 0.951 . S
H861 C887 0.950 . S
H862 C888 0.950 . S
H863 C890 0.950 . S
H864 C893 0.950 . S
H865 C894 0.950 . S
H866 C896 0.950 . S
H867 C897 0.950 . S
C868 H850 0.951 . S
C868 C869 1.366 . S
C868 C870 1.388 . S
C869 C868 1.366 . S
C869 C873 1.385 . S
C870 H851 0.951 . S
C870 C868 1.388 . S
C870 C871 1.366 . S
C871 C870 1.366 . S
C871 C872 1.414 . S
C871 C874 1.499 . S
C872 H852 0.950 . S
C872 C871 1.414 . S
C872 C873 1.374 . S
C873 H853 0.950 . S
C873 C869 1.385 . S
C873 C872 1.374 . S
C874 C871 1.499 . S
C874 C875 1.373 . S
C874 C876 1.389 . S
C875 H854 0.950 . S
C875 C874 1.373 . S
C875 C891 1.377 . S
C876 C874 1.389 . S
C876 C877 1.524 . S
C876 C890 1.377 . S
C877 C876 1.524 . S
C877 C878 1.397 . S
C877 C882 1.363 . S
C878 H855 0.950 . S
C878 C877 1.397 . S
C878 C879 1.334 . S
C879 H856 0.950 . S
C879 C878 1.334 . S
C879 C880 1.287 . S
C880 C879 1.287 . S
C880 C881 1.524 . S
C880 H899 0.913 . S
C881 H857 0.950 . S
C881 C880 1.524 . S
C881 C882 1.415 . S
C882 H858 0.950 . S
C882 C877 1.363 . S
C882 C881 1.415 . S
C883 H859 0.951 . S
C883 C884 1.366 . S
C883 C885 1.388 . S
C884 C883 1.366 . S
C884 C888 1.385 . S
C885 H860 0.951 . S
C885 C883 1.388 . S
C885 C886 1.366 . S
C886 C885 1.366 . S
C886 C887 1.414 . S
C886 C889 1.499 . S
C887 H861 0.950 . S
C887 C886 1.414 . S
C887 C888 1.374 . S
C888 H862 0.950 . S
C888 C884 1.385 . S
C888 C887 1.374 . S
C889 C886 1.499 . S
C889 C890 1.373 . S
C889 C891 1.389 . S
C890 H863 0.950 . S
C890 C876 1.377 . S
C890 C889 1.373 . S
C891 C875 1.377 . S
C891 C889 1.389 . S
C891 C892 1.524 . S
C892 C891 1.524 . S
C892 C893 1.397 . S
C892 C897 1.363 . S
C893 H864 0.950 . S
C893 C892 1.397 . S
C893 C894 1.334 . S
C894 H865 0.950 . S
C894 C893 1.334 . S
C894 C895 1.287 . S
C895 C894 1.287 . S
C895 C896 1.524 . S
C895 H898 0.999 . S
C896 H866 0.950 . S
C896 C895 1.524 . S
C896 C897 1.415 . S
C897 H867 0.950 . S
C897 C892 1.363 . S
C897 C896 1.415 . S
H898 C895 0.999 . S
H899 C880 0.913 . S
H900 C918 0.951 . S
H901 C920 0.951 . S
H902 C922 0.950 . S
H903 C923 0.950 . S
H904 C925 0.950 . S
H905 C928 0.950 . S
H906 C929 0.950 . S
H907 C931 0.950 . S
H908 C932 0.950 . S
H909 C933 0.951 . S
H910 C935 0.951 . S
H911 C937 0.950 . S
H912 C938 0.950 . S
H913 C940 0.950 . S
H914 C943 0.950 . S
H915 C944 0.950 . S
H916 C946 0.950 . S
H917 C947 0.950 . S
C918 H900 0.951 . S
C918 C919 1.366 . S
C918 C920 1.388 . S
C919 C918 1.366 . S
C919 C923 1.385 . S
C920 H901 0.951 . S
C920 C918 1.388 . S
C920 C921 1.366 . S
C921 C920 1.366 . S
C921 C922 1.414 . S
C921 C924 1.499 . S
C922 H902 0.950 . S
C922 C921 1.414 . S
C922 C923 1.374 . S
C923 H903 0.950 . S
C923 C919 1.385 . S
C923 C922 1.374 . S
C924 C921 1.499 . S
C924 C925 1.373 . S
C924 C926 1.389 . S
C925 H904 0.950 . S
C925 C924 1.373 . S
C925 C941 1.377 . S
C926 C924 1.389 . S
C926 C927 1.524 . S
C926 C940 1.377 . S
C927 C926 1.524 . S
C927 C928 1.397 . S
C927 C932 1.363 . S
C928 H905 0.950 . S
C928 C927 1.397 . S
C928 C929 1.334 . S
C929 H906 0.950 . S
C929 C928 1.334 . S
C929 C930 1.287 . S
C930 C929 1.287 . S
C930 C931 1.524 . S
C930 H949 0.913 . S
C931 H907 0.950 . S
C931 C930 1.524 . S
C931 C932 1.415 . S
C932 H908 0.950 . S
C932 C927 1.363 . S
C932 C931 1.415 . S
C933 H909 0.951 . S
C933 C934 1.366 . S
C933 C935 1.388 . S
C934 C933 1.366 . S
C934 C938 1.385 . S
C935 H910 0.951 . S
C935 C933 1.388 . S
C935 C936 1.366 . S
C936 C935 1.366 . S
C936 C937 1.414 . S
C936 C939 1.499 . S
C937 H911 0.950 . S
C937 C936 1.414 . S
C937 C938 1.374 . S
C938 H912 0.950 . S
C938 C934 1.385 . S
C938 C937 1.374 . S
C939 C936 1.499 . S
C939 C940 1.373 . S
C939 C941 1.389 . S
C940 H913 0.950 . S
C940 C926 1.377 . S
C940 C939 1.373 . S
C941 C925 1.377 . S
C941 C939 1.389 . S
C941 C942 1.524 . S
C942 C941 1.524 . S
C942 C943 1.397 . S
C942 C947 1.363 . S
C943 H914 0.950 . S
C943 C942 1.397 . S
C943 C944 1.334 . S
C944 H915 0.950 . S
C944 C943 1.334 . S
C944 C945 1.287 . S
C945 C944 1.287 . S
C945 C946 1.524 . S
C945 H948 0.999 . S
C946 H916 0.950 . S
C946 C945 1.524 . S
C946 C947 1.415 . S
C947 H917 0.950 . S
C947 C942 1.363 . S
C947 C946 1.415 . S
H948 C945 0.999 . S
H949 C930 0.913 . S
H950 C968 0.951 . S
H951 C970 0.951 . S
H952 C972 0.950 . S
H953 C973 0.950 . S
H954 C975 0.950 . S
H955 C978 0.950 . S
H956 C979 0.950 . S
H957 C981 0.950 . S
H958 C982 0.950 . S
H959 C983 0.951 . S
H960 C985 0.951 . S
H961 C987 0.950 . S
H962 C988 0.950 . S
H963 C990 0.950 . S
H964 C993 0.950 . S
H965 C994 0.950 . S
H966 C996 0.950 . S
H967 C997 0.950 . S
C968 H950 0.951 . S
C968 C969 1.366 . S
C968 C970 1.388 . S
C969 C968 1.366 . S
C969 C973 1.385 . S
C970 H951 0.951 . S
C970 C968 1.388 . S
C970 C971 1.366 . S
C971 C970 1.366 . S
C971 C972 1.414 . S
C971 C974 1.499 . S
C972 H952 0.950 . S
C972 C971 1.414 . S
C972 C973 1.374 . S
C973 H953 0.950 . S
C973 C969 1.385 . S
C973 C972 1.374 . S
C974 C971 1.499 . S
C974 C975 1.373 . S
C974 C976 1.389 . S
C975 H954 0.950 . S
C975 C974 1.373 . S
C975 C991 1.377 . S
C976 C974 1.389 . S
C976 C977 1.524 . S
C976 C990 1.377 . S
C977 C976 1.524 . S
C977 C978 1.397 . S
C977 C982 1.363 . S
C978 H955 0.950 . S
C978 C977 1.397 . S
C978 C979 1.334 . S
C979 H956 0.950 . S
C979 C978 1.334 . S
C979 C980 1.287 . S
C980 C979 1.287 . S
C980 C981 1.524 . S
C980 H999 0.913 . S
C981 H957 0.950 . S
C981 C980 1.524 . S
C981 C982 1.415 . S
C982 H958 0.950 . S
C982 C977 1.363 . S
C982 C981 1.415 . S
C983 H959 0.951 . S
C983 C984 1.366 . S
C983 C985 1.388 . S
C984 C983 1.366 . S
C984 C988 1.385 . S
C985 H960 0.951 . S
C985 C983 1.388 . S
C985 C986 1.366 . S
C986 C985 1.366 . S
C986 C987 1.414 . S
C986 C989 1.499 . S
C987 H961 0.950 . S
C987 C986 1.414 . S
C987 C988 1.374 . S
C988 H962 0.950 . S
C988 C984 1.385 . S
C988 C987 1.374 . S
C989 C986 1.499 . S
C989 C990 1.373 . S
C989 C991 1.389 . S
C990 H963 0.950 . S
C990 C976 1.377 . S
C990 C989 1.373 . S
C991 C975 1.377 . S
C991 C989 1.389 . S
C991 C992 1.524 . S
C992 C991 1.524 . S
C992 C993 1.397 . S
C992 C997 1.363 . S
C993 H964 0.950 . S
C993 C992 1.397 . S
C993 C994 1.334 . S
C994 H965 0.950 . S
C994 C993 1.334 . S
C994 C995 1.287 . S
C995 C994 1.287 . S
C995 C996 1.524 . S
C995 H998 0.999 . S
C996 H966 0.950 . S
C996 C995 1.524 . S
C996 C997 1.415 . S
C997 H967 0.950 . S
C997 C992 1.363 . S
C997 C996 1.415 . S
H998 C995 0.999 . S
H999 C980 0.913 . S
H1000 C1018 0.951 . S
H1001 C1020 0.951 . S
H1002 C1022 0.950 . S
H1003 C1023 0.950 . S
H1004 C1025 0.950 . S
H1005 C1028 0.950 . S
H1006 C1029 0.950 . S
H1007 C1031 0.950 . S
H1008 C1032 0.950 . S
H1009 C1033 0.951 . S
H1010 C1035 0.951 . S
H1011 C1037 0.950 . S
H1012 C1038 0.950 . S
H1013 C1040 0.950 . S
H1014 C1043 0.950 . S
H1015 C1044 0.950 . S
H1016 C1046 0.950 . S
H1017 C1047 0.950 . S
C1018 H1000 0.951 . S
C1018 C1019 1.366 . S
C1018 C1020 1.388 . S
C1019 C1018 1.366 . S
C1019 C1023 1.385 . S
C1020 H1001 0.951 . S
C1020 C1018 1.388 . S
C1020 C1021 1.366 . S
C1021 C1020 1.366 . S
C1021 C1022 1.414 . S
C1021 C1024 1.499 . S
C1022 H1002 0.950 . S
C1022 C1021 1.414 . S
C1022 C1023 1.374 . S
C1023 H1003 0.950 . S
C1023 C1019 1.385 . S
C1023 C1022 1.374 . S
C1024 C1021 1.499 . S
C1024 C1025 1.373 . S
C1024 C1026 1.389 . S
C1025 H1004 0.950 . S
C1025 C1024 1.373 . S
C1025 C1041 1.377 . S
C1026 C1024 1.389 . S
C1026 C1027 1.524 . S
C1026 C1040 1.377 . S
C1027 C1026 1.524 . S
C1027 C1028 1.397 . S
C1027 C1032 1.363 . S
C1028 H1005 0.950 . S
C1028 C1027 1.397 . S
C1028 C1029 1.334 . S
C1029 H1006 0.950 . S
C1029 C1028 1.334 . S
C1029 C1030 1.287 . S
C1030 C1029 1.287 . S
C1030 C1031 1.524 . S
C1030 H1049 0.913 . S
C1031 H1007 0.950 . S
C1031 C1030 1.524 . S
C1031 C1032 1.415 . S
C1032 H1008 0.950 . S
C1032 C1027 1.363 . S
C1032 C1031 1.415 . S
C1033 H1009 0.951 . S
C1033 C1034 1.366 . S
C1033 C1035 1.388 . S
C1034 C1033 1.366 . S
C1034 C1038 1.385 . S
C1035 H1010 0.951 . S
C1035 C1033 1.388 . S
C1035 C1036 1.366 . S
C1036 C1035 1.366 . S
C1036 C1037 1.414 . S
C1036 C1039 1.499 . S
C1037 H1011 0.950 . S
C1037 C1036 1.414 . S
C1037 C1038 1.374 . S
C1038 H1012 0.950 . S
C1038 C1034 1.385 . S
C1038 C1037 1.374 . S
C1039 C1036 1.499 . S
C1039 C1040 1.373 . S
C1039 C1041 1.389 . S
C1040 H1013 0.950 . S
C1040 C1026 1.377 . S
C1040 C1039 1.373 . S
C1041 C1025 1.377 . S
C1041 C1039 1.389 . S
C1041 C1042 1.524 . S
C1042 C1041 1.524 . S
C1042 C1043 1.397 . S
C1042 C1047 1.363 . S
C1043 H1014 0.950 . S
C1043 C1042 1.397 . S
C1043 C1044 1.334 . S
C1044 H1015 0.950 . S
C1044 C1043 1.334 . S
C1044 C1045 1.287 . S
C1045 C1044 1.287 . S
C1045 C1046 1.524 . S
C1045 H1048 0.999 . S
C1046 H1016 0.950 . S
C1046 C1045 1.524 . S
C1046 C1047 1.415 . S
C1047 H1017 0.950 . S
C1047 C1042 1.363 . S
C1047 C1046 1.415 . S
H1048 C1045 0.999 . S
H1049 C1030 0.913 . S
H1050 C1068 0.951 . S
H1051 C1070 0.951 . S
H1052 C1072 0.950 . S
H1053 C1073 0.950 . S
H1054 C1075 0.950 . S
H1055 C1078 0.950 . S
H1056 C1079 0.950 . S
H1057 C1081 0.950 . S
H1058 C1082 0.950 . S
H1059 C1083 0.951 . S
H1060 C1085 0.951 . S
H1061 C1087 0.950 . S
H1062 C1088 0.950 . S
H1063 C1090 0.950 . S
H1064 C1093 0.950 . S
H1065 C1094 0.950 . S
H1066 C1096 0.950 . S
H1067 C1097 0.950 . S
C1068 H1050 0.951 . S
C1068 C1069 1.366 . S
C1068 C1070 1.388 . S
C1069 C1068 1.366 . S
C1069 C1073 1.385 . S
C1070 H1051 0.951 . S
C1070 C1068 1.388 . S
C1070 C1071 1.366 . S
C1071 C1070 1.366 . S
C1071 C1072 1.414 . S
C1071 C1074 1.499 . S
C1072 H1052 0.950 . S
C1072 C1071 1.414 . S
C1072 C1073 1.374 . S
C1073 H1053 0.950 . S
C1073 C1069 1.385 . S
C1073 C1072 1.374 . S
C1074 C1071 1.499 . S
C1074 C1075 1.373 . S
C1074 C1076 1.389 . S
C1075 H1054 0.950 . S
C1075 C1074 1.373 . S
C1075 C1091 1.377 . S
C1076 C1074 1.389 . S
C1076 C1077 1.524 . S
C1076 C1090 1.377 . S
C1077 C1076 1.524 . S
C1077 C1078 1.397 . S
C1077 C1082 1.363 . S
C1078 H1055 0.950 . S
C1078 C1077 1.397 . S
C1078 C1079 1.334 . S
C1079 H1056 0.950 . S
C1079 C1078 1.334 . S
C1079 C1080 1.287 . S
C1080 C1079 1.287 . S
C1080 C1081 1.524 . S
C1080 H1099 0.913 . S
C1081 H1057 0.950 . S
C1081 C1080 1.524 . S
C1081 C1082 1.415 . S
C1082 H1058 0.950 . S
C1082 C1077 1.363 . S
C1082 C1081 1.415 . S
C1083 H1059 0.951 . S
C1083 C1084 1.366 . S
C1083 C1085 1.388 . S
C1084 C1083 1.366 . S
C1084 C1088 1.385 . S
C1085 H1060 0.951 . S
C1085 C1083 1.388 . S
C1085 C1086 1.366 . S
C1086 C1085 1.366 . S
C1086 C1087 1.414 . S
C1086 C1089 1.499 . S
C1087 H1061 0.950 . S
C1087 C1086 1.414 . S
C1087 C1088 1.374 . S
C1088 H1062 0.950 . S
C1088 C1084 1.385 . S
C1088 C1087 1.374 . S
C1089 C1086 1.499 . S
C1089 C1090 1.373 . S
C1089 C1091 1.389 . S
C1090 H1063 0.950 . S
C1090 C1076 1.377 . S
C1090 C1089 1.373 . S
C1091 C1075 1.377 . S
C1091 C1089 1.389 . S
C1091 C1092 1.524 . S
C1092 C1091 1.524 . S
C1092 C1093 1.397 . S
C1092 C1097 1.363 . S
C1093 H1064 0.950 . S
C1093 C1092 1.397 . S
C1093 C1094 1.334 . S
C1094 H1065 0.950 . S
C1094 C1093 1.334 . S
C1094 C1095 1.287 . S
C1095 C1094 1.287 . S
C1095 C1096 1.524 . S
C1095 H1098 0.999 . S
C1096 H1066 0.950 . S
C1096 C1095 1.524 . S
C1096 C1097 1.415 . S
C1097 H1067 0.950 . S
C1097 C1092 1.363 . S
C1097 C1096 1.415 . S
H1098 C1095 0.999 . S
H1099 C1080 0.913 . S
H1100 C1118 0.951 . S
H1101 C1120 0.951 . S
H1102 C1122 0.950 . S
H1103 C1123 0.950 . S
H1104 C1125 0.950 . S
H1105 C1128 0.950 . S
H1106 C1129 0.950 . S
H1107 C1131 0.950 . S
H1108 C1132 0.950 . S
H1109 C1133 0.951 . S
H1110 C1135 0.951 . S
H1111 C1137 0.950 . S
H1112 C1138 0.950 . S
H1113 C1140 0.950 . S
H1114 C1143 0.950 . S
H1115 C1144 0.950 . S
H1116 C1146 0.950 . S
H1117 C1147 0.950 . S
C1118 H1100 0.951 . S
C1118 C1119 1.366 . S
C1118 C1120 1.388 . S
C1119 C1118 1.366 . S
C1119 C1123 1.385 . S
C1120 H1101 0.951 . S
C1120 C1118 1.388 . S
C1120 C1121 1.366 . S
C1121 C1120 1.366 . S
C1121 C1122 1.414 . S
C1121 C1124 1.499 . S
C1122 H1102 0.950 . S
C1122 C1121 1.414 . S
C1122 C1123 1.374 . S
C1123 H1103 0.950 . S
C1123 C1119 1.385 . S
C1123 C1122 1.374 . S
C1124 C1121 1.499 . S
C1124 C1125 1.373 . S
C1124 C1126 1.389 . S
C1125 H1104 0.950 . S
C1125 C1124 1.373 . S
C1125 C1141 1.377 . S
C1126 C1124 1.389 . S
C1126 C1127 1.524 . S
C1126 C1140 1.377 . S
C1127 C1126 1.524 . S
C1127 C1128 1.397 . S
C1127 C1132 1.363 . S
C1128 H1105 0.950 . S
C1128 C1127 1.397 . S
C1128 C1129 1.334 . S
C1129 H1106 0.950 . S
C1129 C1128 1.334 . S
C1129 C1130 1.287 . S
C1130 C1129 1.287 . S
C1130 C1131 1.524 . S
C1130 H1149 0.913 . S
C1131 H1107 0.950 . S
C1131 C1130 1.524 . S
C1131 C1132 1.415 . S
C1132 H1108 0.950 . S
C1132 C1127 1.363 . S
C1132 C1131 1.415 . S
C1133 H1109 0.951 . S
C1133 C1134 1.366 . S
C1133 C1135 1.388 . S
C1134 C1133 1.366 . S
C1134 C1138 1.385 . S
C1135 H1110 0.951 . S
C1135 C1133 1.388 . S
C1135 C1136 1.366 . S
C1136 C1135 1.366 . S
C1136 C1137 1.414 . S
C1136 C1139 1.499 . S
C1137 H1111 0.950 . S
C1137 C1136 1.414 . S
C1137 C1138 1.374 . S
C1138 H1112 0.950 . S
C1138 C1134 1.385 . S
C1138 C1137 1.374 . S
C1139 C1136 1.499 . S
C1139 C1140 1.373 . S
C1139 C1141 1.389 . S
C1140 H1113 0.950 . S
C1140 C1126 1.377 . S
C1140 C1139 1.373 . S
C1141 C1125 1.377 . S
C1141 C1139 1.389 . S
C1141 C1142 1.524 . S
C1142 C1141 1.524 . S
C1142 C1143 1.397 . S
C1142 C1147 1.363 . S
C1143 H1114 0.950 . S
C1143 C1142 1.397 . S
C1143 C1144 1.334 . S
C1144 H1115 0.950 . S
C1144 C1143 1.334 . S
C1144 C1145 1.287 . S
C1145 C1144 1.287 . S
C1145 C1146 1.524 . S
C1145 H1148 0.999 . S
C1146 H1116 0.950 . S
C1146 C1145 1.524 . S
C1146 C1147 1.415 . S
C1147 H1117 0.950 . S
C1147 C1142 1.363 . S
C1147 C1146 1.415 . S
H1148 C1145 0.999 . S
H1149 C1130 0.913 . S
H1150 C1168 0.951 . S
H1151 C1170 0.951 . S
H1152 C1172 0.950 . S
H1153 C1173 0.950 . S
H1154 C1175 0.950 . S
H1155 C1178 0.950 . S
H1156 C1179 0.950 . S
H1157 C1181 0.950 . S
H1158 C1182 0.950 . S
H1159 C1183 0.951 . S
H1160 C1185 0.951 . S
H1161 C1187 0.950 . S
H1162 C1188 0.950 . S
H1163 C1190 0.950 . S
H1164 C1193 0.950 . S
H1165 C1194 0.950 . S
H1166 C1196 0.950 . S
H1167 C1197 0.950 . S
C1168 H1150 0.951 . S
C1168 C1169 1.366 . S
C1168 C1170 1.388 . S
C1169 C1168 1.366 . S
C1169 C1173 1.385 . S
C1170 H1151 0.951 . S
C1170 C1168 1.388 . S
C1170 C1171 1.366 . S
C1171 C1170 1.366 . S
C1171 C1172 1.414 . S
C1171 C1174 1.499 . S
C1172 H1152 0.950 . S
C1172 C1171 1.414 . S
C1172 C1173 1.374 . S
C1173 H1153 0.950 . S
C1173 C1169 1.385 . S
C1173 C1172 1.374 . S
C1174 C1171 1.499 . S
C1174 C1175 1.373 . S
C1174 C1176 1.389 . S
C1175 H1154 0.950 . S
C1175 C1174 1.373 . S
C1175 C1191 1.377 . S
C1176 C1174 1.389 . S
C1176 C1177 1.524 . S
C1176 C1190 1.377 . S
C1177 C1176 1.524 . S
C1177 C1178 1.397 . S
C1177 C1182 1.363 . S
C1178 H1155 0.950 . S
C1178 C1177 1.397 . S
C1178 C1179 1.334 . S
C1179 H1156 0.950 . S
C1179 C1178 1.334 . S
C1179 C1180 1.287 . S
C1180 C1179 1.287 . S
C1180 C1181 1.524 . S
C1180 H1199 0.913 . S
C1181 H1157 0.950 . S
C1181 C1180 1.524 . S
C1181 C1182 1.415 . S
C1182 H1158 0.950 . S
C1182 C1177 1.363 . S
C1182 C1181 1.415 . S
C1183 H1159 0.951 . S
C1183 C1184 1.366 . S
C1183 C1185 1.388 . S
C1184 C1183 1.366 . S
C1184 C1188 1.385 . S
C1185 H1160 0.951 . S
C1185 C1183 1.388 . S
C1185 C1186 1.366 . S
C1186 C1185 1.366 . S
C1186 C1187 1.414 . S
C1186 C1189 1.499 . S
C1187 H1161 0.950 . S
C1187 C1186 1.414 . S
C1187 C1188 1.374 . S
C1188 H1162 0.950 . S
C1188 C1184 1.385 . S
C1188 C1187 1.374 . S
C1189 C1186 1.499 . S
C1189 C1190 1.373 . S
C1189 C1191 1.389 . S
C1190 H1163 0.950 . S
C1190 C1176 1.377 . S
C1190 C1189 1.373 . S
C1191 C1175 1.377 . S
C1191 C1189 1.389 . S
C1191 C1192 1.524 . S
C1192 C1191 1.524 . S
C1192 C1193 1.397 . S
C1192 C1197 1.363 . S
C1193 H1164 0.950 . S
C1193 C1192 1.397 . S
C1193 C1194 1.334 . S
C1194 H1165 0.950 . S
C1194 C1193 1.334 . S
C1194 C1195 1.287 . S
C1195 C1194 1.287 . S
C1195 C1196 1.524 . S
C1195 H1198 0.999 . S
C1196 H1166 0.950 . S
C1196 C1195 1.524 . S
C1196 C1197 1.415 . S
C1197 H1167 0.950 . S
C1197 C1192 1.363 . S
C1197 C1196 1.415 . S
H1198 C1195 0.999 . S
H1199 C1180 0.913 . S
H1200 C1218 0.951 . S
H1201 C1220 0.951 . S
H1202 C1222 0.950 . S
H1203 C1223 0.950 . S
H1204 C1225 0.950 . S
H1205 C1228 0.950 . S
H1206 C1229 0.950 . S
H1207 C1231 0.950 . S
H1208 C1232 0.950 . S
H1209 C1233 0.951 . S
H1210 C1235 0.951 . S
H1211 C1237 0.950 . S
H1212 C1238 0.950 . S
H1213 C1240 0.950 . S
H1214 C1243 0.950 . S
H1215 C1244 0.950 . S
H1216 C1246 0.950 . S
H1217 C1247 0.950 . S
C1218 H1200 0.951 . S
C1218 C1219 1.366 . S
C1218 C1220 1.388 . S
C1219 C1218 1.366 . S
C1219 C1223 1.385 . S
C1220 H1201 0.951 . S
C1220 C1218 1.388 . S
C1220 C1221 1.366 . S
C1221 C1220 1.366 . S
C1221 C1222 1.414 . S
C1221 C1224 1.499 . S
C1222 H1202 0.950 . S
C1222 C1221 1.414 . S
C1222 C1223 1.374 . S
C1223 H1203 0.950 . S
C1223 C1219 1.385 . S
C1223 C1222 1.374 . S
C1224 C1221 1.499 . S
C1224 C1225 1.373 . S
C1224 C1226 1.389 . S
C1225 H1204 0.950 . S
C1225 C1224 1.373 . S
C1225 C1241 1.377 . S
C1226 C1224 1.389 . S
C1226 C1227 1.524 . S
C1226 C1240 1.377 . S
C1227 C1226 1.524 . S
C1227 C1228 1.397 . S
C1227 C1232 1.363 . S
C1228 H1205 0.950 . S
C1228 C1227 1.397 . S
C1228 C1229 1.334 . S
C1229 H1206 0.950 . S
C1229 C1228 1.334 . S
C1229 C1230 1.287 . S
C1230 C1229 1.287 . S
C1230 C1231 1.524 . S
C1230 H1249 0.913 . S
C1231 H1207 0.950 . S
C1231 C1230 1.524 . S
C1231 C1232 1.415 . S
C1232 H1208 0.950 . S
C1232 C1227 1.363 . S
C1232 C1231 1.415 . S
C1233 H1209 0.951 . S
C1233 C1234 1.366 . S
C1233 C1235 1.388 . S
C1234 C1233 1.366 . S
C1234 C1238 1.385 . S
C1235 H1210 0.951 . S
C1235 C1233 1.388 . S
C1235 C1236 1.366 . S
C1236 C1235 1.366 . S
C1236 C1237 1.414 . S
C1236 C1239 1.499 . S
C1237 H1211 0.950 . S
C1237 C1236 1.414 . S
C1237 C1238 1.374 . S
C1238 H1212 0.950 . S
C1238 C1234 1.385 . S
C1238 C1237 1.374 . S
C1239 C1236 1.499 . S
C1239 C1240 1.373 . S
C1239 C1241 1.389 . S
C1240 H1213 0.950 . S
C1240 C1226 1.377 . S
C1240 C1239 1.373 . S
C1241 C1225 1.377 . S
C1241 C1239 1.389 . S
C1241 C1242 1.524 . S
C1242 C1241 1.524 . S
C1242 C1243 1.397 . S
C1242 C1247 1.363 . S
C1243 H1214 0.950 . S
C1243 C1242 1.397 . S
C1243 C1244 1.334 . S
C1244 H1215 0.950 . S
C1244 C1243 1.334 . S
C1244 C1245 1.287 . S
C1245 C1244 1.287 . S
C1245 C1246 1.524 . S
C1245 H1248 0.999 . S
C1246 H1216 0.950 . S
C1246 C1245 1.524 . S
C1246 C1247 1.415 . S
C1247 H1217 0.950 . S
C1247 C1242 1.363 . S
C1247 C1246 1.415 . S
H1248 C1245 0.999 . S
H1249 C1230 0.913 . S
H1250 C1268 0.951 . S
H1251 C1270 0.951 . S
H1252 C1272 0.950 . S
H1253 C1273 0.950 . S
H1254 C1275 0.950 . S
H1255 C1278 0.950 . S
H1256 C1279 0.950 . S
H1257 C1281 0.950 . S
H1258 C1282 0.950 . S
H1259 C1283 0.951 . S
H1260 C1285 0.951 . S
H1261 C1287 0.950 . S
H1262 C1288 0.950 . S
H1263 C1290 0.950 . S
H1264 C1293 0.950 . S
H1265 C1294 0.950 . S
H1266 C1296 0.950 . S
H1267 C1297 0.950 . S
C1268 H1250 0.951 . S
C1268 C1269 1.366 . S
C1268 C1270 1.388 . S
C1269 C1268 1.366 . S
C1269 C1273 1.385 . S
C1270 H1251 0.951 . S
C1270 C1268 1.388 . S
C1270 C1271 1.366 . S
C1271 C1270 1.366 . S
C1271 C1272 1.414 . S
C1271 C1274 1.499 . S
C1272 H1252 0.950 . S
C1272 C1271 1.414 . S
C1272 C1273 1.374 . S
C1273 H1253 0.950 . S
C1273 C1269 1.385 . S
C1273 C1272 1.374 . S
C1274 C1271 1.499 . S
C1274 C1275 1.373 . S
C1274 C1276 1.389 . S
C1275 H1254 0.950 . S
C1275 C1274 1.373 . S
C1275 C1291 1.377 . S
C1276 C1274 1.389 . S
C1276 C1277 1.524 . S
C1276 C1290 1.377 . S
C1277 C1276 1.524 . S
C1277 C1278 1.397 . S
C1277 C1282 1.363 . S
C1278 H1255 0.950 . S
C1278 C1277 1.397 . S
C1278 C1279 1.334 . S
C1279 H1256 0.950 . S
C1279 C1278 1.334 . S
C1279 C1280 1.287 . S
C1280 C1279 1.287 . S
C1280 C1281 1.524 . S
C1280 H1299 0.913 . S
C1281 H1257 0.950 . S
C1281 C1280 1.524 . S
C1281 C1282 1.415 . S
C1282 H1258 0.950 . S
C1282 C1277 1.363 . S
C1282 C1281 1.415 . S
C1283 H1259 0.951 . S
C1283 C1284 1.366 . S
C1283 C1285 1.388 . S
C1284 C1283 1.366 . S
C1284 C1288 1.385 . S
C1285 H1260 0.951 . S
C1285 C1283 1.388 . S
C1285 C1286 1.366 . S
C1286 C1285 1.366 . S
C1286 C1287 1.414 . S
C1286 C1289 1.499 . S
C1287 H1261 0.950 . S
C1287 C1286 1.414 . S
C1287 C1288 1.374 . S
C1288 H1262 0.950 . S
C1288 C1284 1.385 . S
C1288 C1287 1.374 . S
C1289 C1286 1.499 . S
C1289 C1290 1.373 . S
C1289 C1291 1.389 . S
C1290 H1263 0.950 . S
C1290 C1276 1.377 . S
C1290 C1289 1.373 . S
C1291 C1275 1.377 . S
C1291 C1289 1.389 . S
C1291 C1292 1.524 . S
C1292 C1291 1.524 . S
C1292 C1293 1.397 . S
C1292 C1297 1.363 . S
C1293 H1264 0.950 . S
C1293 C1292 1.397 . S
C1293 C1294 1.334 . S
C1294 H1265 0.950 . S
C1294 C1293 1.334 . S
C1294 C1295 1.287 . S
C1295 C1294 1.287 . S
C1295 C1296 1.524 . S
C1295 H1298 0.999 . S
C1296 H1266 0.950 . S
C1296 C1295 1.524 . S
C1296 C1297 1.415 . S
C1297 H1267 0.950 . S
C1297 C1292 1.363 . S
C1297 C1296 1.415 . S
H1298 C1295 0.999 . S
H1299 C1280 0.913 . S
H1300 C1318 0.951 . S
H1301 C1320 0.951 . S
H1302 C1322 0.950 . S
H1303 C1323 0.950 . S
H1304 C1325 0.950 . S
H1305 C1328 0.950 . S
H1306 C1329 0.950 . S
H1307 C1331 0.950 . S
H1308 C1332 0.950 . S
H1309 C1333 0.951 . S
H1310 C1335 0.951 . S
H1311 C1337 0.950 . S
H1312 C1338 0.950 . S
H1313 C1340 0.950 . S
H1314 C1343 0.950 . S
H1315 C1344 0.950 . S
H1316 C1346 0.950 . S
H1317 C1347 0.950 . S
C1318 H1300 0.951 . S
C1318 C1319 1.366 . S
C1318 C1320 1.388 . S
C1319 C1318 1.366 . S
C1319 C1323 1.385 . S
C1320 H1301 0.951 . S
C1320 C1318 1.388 . S
C1320 C1321 1.366 . S
C1321 C1320 1.366 . S
C1321 C1322 1.414 . S
C1321 C1324 1.499 . S
C1322 H1302 0.950 . S
C1322 C1321 1.414 . S
C1322 C1323 1.374 . S
C1323 H1303 0.950 . S
C1323 C1319 1.385 . S
C1323 C1322 1.374 . S
C1324 C1321 1.499 . S
C1324 C1325 1.373 . S
C1324 C1326 1.389 . S
C1325 H1304 0.950 . S
C1325 C1324 1.373 . S
C1325 C1341 1.377 . S
C1326 C1324 1.389 . S
C1326 C1327 1.524 . S
C1326 C1340 1.377 . S
C1327 C1326 1.524 . S
C1327 C1328 1.397 . S
C1327 C1332 1.363 . S
C1328 H1305 0.950 . S
C1328 C1327 1.397 . S
C1328 C1329 1.334 . S
C1329 H1306 0.950 . S
C1329 C1328 1.334 . S
C1329 C1330 1.287 . S
C1330 C1329 1.287 . S
C1330 C1331 1.524 . S
C1330 H1349 0.913 . S
C1331 H1307 0.950 . S
C1331 C1330 1.524 . S
C1331 C1332 1.415 . S
C1332 H1308 0.950 . S
C1332 C1327 1.363 . S
C1332 C1331 1.415 . S
C1333 H1309 0.951 . S
C1333 C1334 1.366 . S
C1333 C1335 1.388 . S
C1334 C1333 1.366 . S
C1334 C1338 1.385 . S
C1335 H1310 0.951 . S
C1335 C1333 1.388 . S
C1335 C1336 1.366 . S
C1336 C1335 1.366 . S
C1336 C1337 1.414 . S
C1336 C1339 1.499 . S
C1337 H1311 0.950 . S
C1337 C1336 1.414 . S
C1337 C1338 1.374 . S
C1338 H1312 0.950 . S
C1338 C1334 1.385 . S
C1338 C1337 1.374 . S
C1339 C1336 1.499 . S
C1339 C1340 1.373 . S
C1339 C1341 1.389 . S
C1340 H1313 0.950 . S
C1340 C1326 1.377 . S
C1340 C1339 1.373 . S
C1341 C1325 1.377 . S
C1341 C1339 1.389 . S
C1341 C1342 1.524 . S
C1342 C1341 1.524 . S
C1342 C1343 1.397 . S
C1342 C1347 1.363 . S
C1343 H1314 0.950 . S
C1343 C1342 1.397 . S
C1343 C1344 1.334 . S
C1344 H1315 0.950 . S
C1344 C1343 1.334 . S
C1344 C1345 1.287 . S
C1345 C1344 1.287 . S
C1345 C1346 1.524 . S
C1345 H1348 0.999 . S
C1346 H1316 0.950 . S
C1346 C1345 1.524 . S
C1346 C1347 1.415 . S
C1347 H1317 0.950 . S
C1347 C1342 1.363 . S
C1347 C1346 1.415 . S
H1348 C1345 0.999 . S
H1349 C1330 0.913 . S
H1350 C1368 0.951 . S
H1351 C1370 0.951 . S
H1352 C1372 0.950 . S
H1353 C1373 0.950 . S
H1354 C1375 0.950 . S
H1355 C1378 0.950 . S
H1356 C1379 0.950 . S
H1357 C1381 0.950 . S
H1358 C1382 0.950 . S
H1359 C1383 0.951 . S
H1360 C1385 0.951 . S
H1361 C1387 0.950 . S
H1362 C1388 0.950 . S
H1363 C1390 0.950 . S
H1364 C1393 0.950 . S
H1365 C1394 0.950 . S
H1366 C1396 0.950 . S
H1367 C1397 0.950 . S
C1368 H1350 0.951 . S
C1368 C1369 1.366 . S
C1368 C1370 1.388 . S
C1369 C1368 1.366 . S
C1369 C1373 1.385 . S
C1370 H1351 0.951 . S
C1370 C1368 1.388 . S
C1370 C1371 1.366 . S
C1371 C1370 1.366 . S
C1371 C1372 1.414 . S
C1371 C1374 1.499 . S
C1372 H1352 0.950 . S
C1372 C1371 1.414 . S
C1372 C1373 1.374 . S
C1373 H1353 0.950 . S
C1373 C1369 1.385 . S
C1373 C1372 1.374 . S
C1374 C1371 1.499 . S
C1374 C1375 1.373 . S
C1374 C1376 1.389 . S
C1375 H1354 0.950 . S
C1375 C1374 1.373 . S
C1375 C1391 1.377 . S
C1376 C1374 1.389 . S
C1376 C1377 1.524 . S
C1376 C1390 1.377 . S
C1377 C1376 1.524 . S
C1377 C1378 1.397 . S
C1377 C1382 1.363 . S
C1378 H1355 0.950 . S
C1378 C1377 1.397 . S
C1378 C1379 1.334 . S
C1379 H1356 0.950 . S
C1379 C1378 1.334 . S
C1379 C1380 1.287 . S
C1380 C1379 1.287 . S
C1380 C1381 1.524 . S
C1380 H1399 0.913 . S
C1381 H1357 0.950 . S
C1381 C1380 1.524 . S
C1381 C1382 1.415 . S
C1382 H1358 0.950 . S
C1382 C1377 1.363 . S
C1382 C1381 1.415 . S
C1383 H1359 0.951 . S
C1383 C1384 1.366 . S
C1383 C1385 1.388 . S
C1384 C1383 1.366 . S
C1384 C1388 1.385 . S
C1385 H1360 0.951 . S
C1385 C1383 1.388 . S
C1385 C1386 1.366 . S
C1386 C1385 1.366 . S
C1386 C1387 1.414 . S
C1386 C1389 1.499 . S
C1387 H1361 0.950 . S
C1387 C1386 1.414 . S
C1387 C1388 1.374 . S
C1388 H1362 0.950 . S
C1388 C1384 1.385 . S
C1388 C1387 1.374 . S
C1389 C1386 1.499 . S
C1389 C1390 1.373 . S
C1389 C1391 1.389 . S
C1390 H1363 0.950 . S
C1390 C1376 1.377 . S
C1390 C1389 1.373 . S
C1391 C1375 1.377 . S
C1391 C1389 1.389 . S
C1391 C1392 1.524 . S
C1392 C1391 1.524 . S
C1392 C1393 1.397 . S
C1392 C1397 1.363 . S
C1393 H1364 0.950 . S
C1393 C1392 1.397 . S
C1393 C1394 1.334 . S
C1394 H1365 0.950 . S
C1394 C1393 1.334 . S
C1394 C1395 1.287 . S
C1395 C1394 1.287 . S
C1395 C1396 1.524 . S
C1395 H1398 0.999 . S
C1396 H1366 0.950 . S
C1396 C1395 1.524 . S
C1396 C1397 1.415 . S
C1397 H1367 0.950 . S
C1397 C1392 1.363 . S
C1397 C1396 1.415 . S
H1398 C1395 0.999 . S
H1399 C1380 0.913 . S
C219 C43 1.500 . S
C234 C92 1.495 . S
C269 C44 1.500 . S
C284 C134 1.500 . S
C319 C41 1.500 . S
C334 C90 1.500 . S
C369 C138 1.500 . S
C384 C47 1.495 . S
C419 C42 1.500 . S
C434 C93 1.505 . S
C469 C45 1.500 . S
C484 C137 1.500 . S
C519 C91 1.500 . S
C534 C40 1.500 . S
C569 C139 1.500 . S
C584 C46 1.505 . S
C619 C188 1.500 . S
C634 C39 1.495 . S
C669 C187 1.500 . S
C684 C34 1.500 . S
C719 C184 1.500 . S
C734 C37 1.500 . S
C769 C38 1.500 . S
C784 C189 1.505 . S
C819 C195 1.500 . S
C834 C94 1.505 . S
C869 C97 1.500 . S
C884 C196 1.500 . S
C919 C95 1.500 . S
C934 C194 1.495 . S
C969 C197 1.500 . S
C984 C96 1.500 . S
C1019 C146 1.500 . S
C1034 C89 1.500 . S
C1069 C84 1.500 . S
C1084 C144 1.495 . S
C1119 C87 1.500 . S
C1134 C145 1.505 . S
C1169 C147 1.500 . S
C1184 C88 1.500 . S
C1219 C192 1.500 . S
C1234 C143 1.500 . S
C1269 C140 1.500 . S
C1284 C190 1.505 . S
C1319 C193 1.500 . S
C1334 C142 1.500 . S
C1369 C141 1.500 . S
C1384 C191 1.495 . S
