# Generated by pormake.
# Topology uky, (4)-cn, num edge types: 1
# Building blocks:
#     Node 0, Type 0, BuildingBlock: CEKHIL_clean_sbu_0, # of connection points: 4
#     Node 1, Type 0, BuildingBlock: CEKHIL_clean_sbu_0, # of connection points: 4
#     Node 2, Type 0, BuildingBlock: CEKHIL_clean_sbu_0, # of connection points: 4
#     Node 3, Type 0, BuildingBlock: CEKHIL_clean_sbu_0, # of connection points: 4
#     Node 4, Type 0, BuildingBlock: CEKHIL_clean_sbu_0, # of connection points: 4
#     Node 5, Type 0, BuildingBlock: CEKHIL_clean_sbu_0, # of connection points: 4
#     Node 6, Type 0, BuildingBlock: CEKHIL_clean_sbu_0, # of connection points: 4
#     Node 7, Type 0, BuildingBlock: CEKHIL_clean_sbu_0, # of connection points: 4
#     Node 8, Type 0, BuildingBlock: CEKHIL_clean_sbu_0, # of connection points: 4
#     Node 9, Type 0, BuildingBlock: CEKHIL_clean_sbu_0, # of connection points: 4
#     Node 10, Type 0, BuildingBlock: CEKHIL_clean_sbu_0, # of connection points: 4
#     Node 11, Type 0, BuildingBlock: CEKHIL_clean_sbu_0, # of connection points: 4
#     Node 12, Type 0, BuildingBlock: CEKHIL_clean_sbu_0, # of connection points: 4
#     Node 13, Type 0, BuildingBlock: CEKHIL_clean_sbu_0, # of connection points: 4
#     Node 14, Type 0, BuildingBlock: CEKHIL_clean_sbu_0, # of connection points: 4
#     Node 15, Type 0, BuildingBlock: CEKHIL_clean_sbu_0, # of connection points: 4
#     Node 16, Type 0, BuildingBlock: CEKHIL_clean_sbu_0, # of connection points: 4
#     Node 17, Type 0, BuildingBlock: CEKHIL_clean_sbu_0, # of connection points: 4
#     Node 18, Type 0, BuildingBlock: CEKHIL_clean_sbu_0, # of connection points: 4
#     Node 19, Type 0, BuildingBlock: CEKHIL_clean_sbu_0, # of connection points: 4
#     Node 20, Type 0, BuildingBlock: CEKHIL_clean_sbu_0, # of connection points: 4
#     Node 21, Type 0, BuildingBlock: CEKHIL_clean_sbu_0, # of connection points: 4
#     Node 22, Type 0, BuildingBlock: CEKHIL_clean_sbu_0, # of connection points: 4
#     Node 23, Type 0, BuildingBlock: CEKHIL_clean_sbu_0, # of connection points: 4
#     Node 24, Type 0, BuildingBlock: CEKHIL_clean_sbu_0, # of connection points: 4
#     Node 25, Type 0, BuildingBlock: CEKHIL_clean_sbu_0, # of connection points: 4
#     Node 26, Type 0, BuildingBlock: CEKHIL_clean_sbu_0, # of connection points: 4
#     Node 27, Type 0, BuildingBlock: CEKHIL_clean_sbu_0, # of connection points: 4
#     Node 28, Type 0, BuildingBlock: CEKHIL_clean_sbu_0, # of connection points: 4
#     Node 29, Type 0, BuildingBlock: CEKHIL_clean_sbu_0, # of connection points: 4
#     Node 30, Type 0, BuildingBlock: CEKHIL_clean_sbu_0, # of connection points: 4
#     Node 31, Type 0, BuildingBlock: CEKHIL_clean_sbu_0, # of connection points: 4
#     Node 32, Type 0, BuildingBlock: CEKHIL_clean_sbu_0, # of connection points: 4
#     Node 33, Type 0, BuildingBlock: CEKHIL_clean_sbu_0, # of connection points: 4
#     Node 34, Type 0, BuildingBlock: CEKHIL_clean_sbu_0, # of connection points: 4
#     Node 35, Type 0, BuildingBlock: CEKHIL_clean_sbu_0, # of connection points: 4
#     Node 36, Type 0, BuildingBlock: CEKHIL_clean_sbu_0, # of connection points: 4
#     Node 37, Type 0, BuildingBlock: CEKHIL_clean_sbu_0, # of connection points: 4
#     Node 38, Type 0, BuildingBlock: CEKHIL_clean_sbu_0, # of connection points: 4
#     Node 39, Type 0, BuildingBlock: CEKHIL_clean_sbu_0, # of connection points: 4
#     Node 40, Type 0, BuildingBlock: CEKHIL_clean_sbu_0, # of connection points: 4
#     Node 41, Type 0, BuildingBlock: CEKHIL_clean_sbu_0, # of connection points: 4
#     Node 42, Type 0, BuildingBlock: CEKHIL_clean_sbu_0, # of connection points: 4
#     Node 43, Type 0, BuildingBlock: CEKHIL_clean_sbu_0, # of connection points: 4
#     Node 44, Type 0, BuildingBlock: CEKHIL_clean_sbu_0, # of connection points: 4
#     Node 45, Type 0, BuildingBlock: CEKHIL_clean_sbu_0, # of connection points: 4
#     Node 46, Type 0, BuildingBlock: CEKHIL_clean_sbu_0, # of connection points: 4
#     Node 47, Type 0, BuildingBlock: CEKHIL_clean_sbu_0, # of connection points: 4
#     Edge 48, Type (0, 0), BuildingBlock: XUDNAN_clean_linker_2, # of connection points: 2
#     Edge 49, Type (0, 0), BuildingBlock: XUDNAN_clean_linker_2, # of connection points: 2
#     Edge 50, Type (0, 0), BuildingBlock: XUDNAN_clean_linker_2, # of connection points: 2
#     Edge 51, Type (0, 0), BuildingBlock: XUDNAN_clean_linker_2, # of connection points: 2
#     Edge 52, Type (0, 0), BuildingBlock: XUDNAN_clean_linker_2, # of connection points: 2
#     Edge 53, Type (0, 0), BuildingBlock: XUDNAN_clean_linker_2, # of connection points: 2
#     Edge 54, Type (0, 0), BuildingBlock: XUDNAN_clean_linker_2, # of connection points: 2
#     Edge 55, Type (0, 0), BuildingBlock: XUDNAN_clean_linker_2, # of connection points: 2
#     Edge 56, Type (0, 0), BuildingBlock: XUDNAN_clean_linker_2, # of connection points: 2
#     Edge 57, Type (0, 0), BuildingBlock: XUDNAN_clean_linker_2, # of connection points: 2
#     Edge 58, Type (0, 0), BuildingBlock: XUDNAN_clean_linker_2, # of connection points: 2
#     Edge 59, Type (0, 0), BuildingBlock: XUDNAN_clean_linker_2, # of connection points: 2
#     Edge 60, Type (0, 0), BuildingBlock: XUDNAN_clean_linker_2, # of connection points: 2
#     Edge 61, Type (0, 0), BuildingBlock: XUDNAN_clean_linker_2, # of connection points: 2
#     Edge 62, Type (0, 0), BuildingBlock: XUDNAN_clean_linker_2, # of connection points: 2
#     Edge 63, Type (0, 0), BuildingBlock: XUDNAN_clean_linker_2, # of connection points: 2
#     Edge 64, Type (0, 0), BuildingBlock: XUDNAN_clean_linker_2, # of connection points: 2
#     Edge 65, Type (0, 0), BuildingBlock: XUDNAN_clean_linker_2, # of connection points: 2
#     Edge 66, Type (0, 0), BuildingBlock: XUDNAN_clean_linker_2, # of connection points: 2
#     Edge 67, Type (0, 0), BuildingBlock: XUDNAN_clean_linker_2, # of connection points: 2
#     Edge 68, Type (0, 0), BuildingBlock: XUDNAN_clean_linker_2, # of connection points: 2
#     Edge 69, Type (0, 0), BuildingBlock: XUDNAN_clean_linker_2, # of connection points: 2
#     Edge 70, Type (0, 0), BuildingBlock: XUDNAN_clean_linker_2, # of connection points: 2
#     Edge 71, Type (0, 0), BuildingBlock: XUDNAN_clean_linker_2, # of connection points: 2
#     Edge 72, Type (0, 0), BuildingBlock: XUDNAN_clean_linker_2, # of connection points: 2
#     Edge 73, Type (0, 0), BuildingBlock: XUDNAN_clean_linker_2, # of connection points: 2
#     Edge 74, Type (0, 0), BuildingBlock: XUDNAN_clean_linker_2, # of connection points: 2
#     Edge 75, Type (0, 0), BuildingBlock: XUDNAN_clean_linker_2, # of connection points: 2
#     Edge 76, Type (0, 0), BuildingBlock: XUDNAN_clean_linker_2, # of connection points: 2
#     Edge 77, Type (0, 0), BuildingBlock: XUDNAN_clean_linker_2, # of connection points: 2
#     Edge 78, Type (0, 0), BuildingBlock: XUDNAN_clean_linker_2, # of connection points: 2
#     Edge 79, Type (0, 0), BuildingBlock: XUDNAN_clean_linker_2, # of connection points: 2
#     Edge 80, Type (0, 0), BuildingBlock: XUDNAN_clean_linker_2, # of connection points: 2
#     Edge 81, Type (0, 0), BuildingBlock: XUDNAN_clean_linker_2, # of connection points: 2
#     Edge 82, Type (0, 0), BuildingBlock: XUDNAN_clean_linker_2, # of connection points: 2
#     Edge 83, Type (0, 0), BuildingBlock: XUDNAN_clean_linker_2, # of connection points: 2
#     Edge 84, Type (0, 0), BuildingBlock: XUDNAN_clean_linker_2, # of connection points: 2
#     Edge 85, Type (0, 0), BuildingBlock: XUDNAN_clean_linker_2, # of connection points: 2
#     Edge 86, Type (0, 0), BuildingBlock: XUDNAN_clean_linker_2, # of connection points: 2
#     Edge 87, Type (0, 0), BuildingBlock: XUDNAN_clean_linker_2, # of connection points: 2
#     Edge 88, Type (0, 0), BuildingBlock: XUDNAN_clean_linker_2, # of connection points: 2
#     Edge 89, Type (0, 0), BuildingBlock: XUDNAN_clean_linker_2, # of connection points: 2
#     Edge 90, Type (0, 0), BuildingBlock: XUDNAN_clean_linker_2, # of connection points: 2
#     Edge 91, Type (0, 0), BuildingBlock: XUDNAN_clean_linker_2, # of connection points: 2
#     Edge 92, Type (0, 0), BuildingBlock: XUDNAN_clean_linker_2, # of connection points: 2
#     Edge 93, Type (0, 0), BuildingBlock: XUDNAN_clean_linker_2, # of connection points: 2
#     Edge 94, Type (0, 0), BuildingBlock: XUDNAN_clean_linker_2, # of connection points: 2
#     Edge 95, Type (0, 0), BuildingBlock: XUDNAN_clean_linker_2, # of connection points: 2
#     Edge 96, Type (0, 0), BuildingBlock: XUDNAN_clean_linker_2, # of connection points: 2
#     Edge 97, Type (0, 0), BuildingBlock: XUDNAN_clean_linker_2, # of connection points: 2
#     Edge 98, Type (0, 0), BuildingBlock: XUDNAN_clean_linker_2, # of connection points: 2
#     Edge 99, Type (0, 0), BuildingBlock: XUDNAN_clean_linker_2, # of connection points: 2
#     Edge 100, Type (0, 0), BuildingBlock: XUDNAN_clean_linker_2, # of connection points: 2
#     Edge 101, Type (0, 0), BuildingBlock: XUDNAN_clean_linker_2, # of connection points: 2
#     Edge 102, Type (0, 0), BuildingBlock: XUDNAN_clean_linker_2, # of connection points: 2
#     Edge 103, Type (0, 0), BuildingBlock: XUDNAN_clean_linker_2, # of connection points: 2
#     Edge 104, Type (0, 0), BuildingBlock: XUDNAN_clean_linker_2, # of connection points: 2
#     Edge 105, Type (0, 0), BuildingBlock: XUDNAN_clean_linker_2, # of connection points: 2
#     Edge 106, Type (0, 0), BuildingBlock: XUDNAN_clean_linker_2, # of connection points: 2
#     Edge 107, Type (0, 0), BuildingBlock: XUDNAN_clean_linker_2, # of connection points: 2
#     Edge 108, Type (0, 0), BuildingBlock: XUDNAN_clean_linker_2, # of connection points: 2
#     Edge 109, Type (0, 0), BuildingBlock: XUDNAN_clean_linker_2, # of connection points: 2
#     Edge 110, Type (0, 0), BuildingBlock: XUDNAN_clean_linker_2, # of connection points: 2
#     Edge 111, Type (0, 0), BuildingBlock: XUDNAN_clean_linker_2, # of connection points: 2
#     Edge 112, Type (0, 0), BuildingBlock: XUDNAN_clean_linker_2, # of connection points: 2
#     Edge 113, Type (0, 0), BuildingBlock: XUDNAN_clean_linker_2, # of connection points: 2
#     Edge 114, Type (0, 0), BuildingBlock: XUDNAN_clean_linker_2, # of connection points: 2
#     Edge 115, Type (0, 0), BuildingBlock: XUDNAN_clean_linker_2, # of connection points: 2
#     Edge 116, Type (0, 0), BuildingBlock: XUDNAN_clean_linker_2, # of connection points: 2
#     Edge 117, Type (0, 0), BuildingBlock: XUDNAN_clean_linker_2, # of connection points: 2
#     Edge 118, Type (0, 0), BuildingBlock: XUDNAN_clean_linker_2, # of connection points: 2
#     Edge 119, Type (0, 0), BuildingBlock: XUDNAN_clean_linker_2, # of connection points: 2
#     Edge 120, Type (0, 0), BuildingBlock: XUDNAN_clean_linker_2, # of connection points: 2
#     Edge 121, Type (0, 0), BuildingBlock: XUDNAN_clean_linker_2, # of connection points: 2
#     Edge 122, Type (0, 0), BuildingBlock: XUDNAN_clean_linker_2, # of connection points: 2
#     Edge 123, Type (0, 0), BuildingBlock: XUDNAN_clean_linker_2, # of connection points: 2
#     Edge 124, Type (0, 0), BuildingBlock: XUDNAN_clean_linker_2, # of connection points: 2
#     Edge 125, Type (0, 0), BuildingBlock: XUDNAN_clean_linker_2, # of connection points: 2
#     Edge 126, Type (0, 0), BuildingBlock: XUDNAN_clean_linker_2, # of connection points: 2
#     Edge 127, Type (0, 0), BuildingBlock: XUDNAN_clean_linker_2, # of connection points: 2
#     Edge 128, Type (0, 0), BuildingBlock: XUDNAN_clean_linker_2, # of connection points: 2
#     Edge 129, Type (0, 0), BuildingBlock: XUDNAN_clean_linker_2, # of connection points: 2
#     Edge 130, Type (0, 0), BuildingBlock: XUDNAN_clean_linker_2, # of connection points: 2
#     Edge 131, Type (0, 0), BuildingBlock: XUDNAN_clean_linker_2, # of connection points: 2
#     Edge 132, Type (0, 0), BuildingBlock: XUDNAN_clean_linker_2, # of connection points: 2
#     Edge 133, Type (0, 0), BuildingBlock: XUDNAN_clean_linker_2, # of connection points: 2
#     Edge 134, Type (0, 0), BuildingBlock: XUDNAN_clean_linker_2, # of connection points: 2
#     Edge 135, Type (0, 0), BuildingBlock: XUDNAN_clean_linker_2, # of connection points: 2
#     Edge 136, Type (0, 0), BuildingBlock: XUDNAN_clean_linker_2, # of connection points: 2
#     Edge 137, Type (0, 0), BuildingBlock: XUDNAN_clean_linker_2, # of connection points: 2
#     Edge 138, Type (0, 0), BuildingBlock: XUDNAN_clean_linker_2, # of connection points: 2
#     Edge 139, Type (0, 0), BuildingBlock: XUDNAN_clean_linker_2, # of connection points: 2
#     Edge 140, Type (0, 0), BuildingBlock: XUDNAN_clean_linker_2, # of connection points: 2
#     Edge 141, Type (0, 0), BuildingBlock: XUDNAN_clean_linker_2, # of connection points: 2
#     Edge 142, Type (0, 0), BuildingBlock: XUDNAN_clean_linker_2, # of connection points: 2
#     Edge 143, Type (0, 0), BuildingBlock: XUDNAN_clean_linker_2, # of connection points: 2
# Relax obj value: 0.313
# Max RMSD: 0.250
# Mean RMSD: 0.250
data_MOF--net-uky--node1-CEKHIL_clean_sbu_0--edge1-XUDNAN_clean_linker_2
_symmetry_space_group_name_H-M    P1
_symmetry_Int_Tables_number       1
_symmetry_cell_setting            triclinic
loop_
_symmetry_equiv_pos_as_xyz
'x, y, z'
_cell_length_a     60.295111
_cell_length_b     60.309305
_cell_length_c     60.297369
_cell_angle_alpha  90.036972
_cell_angle_beta   90.03169
_cell_angle_gamma 89.989683
loop_
_atom_site_label
_atom_site_type_symbol
_atom_site_fract_x
_atom_site_fract_y
_atom_site_fract_z
_atom_type_partial_charge
Co0 Co 0.19644 0.23121 0.38243 0.0
O1 O 0.165 0.23108 0.37821 0.0
O2 O 0.1859 0.20105 0.38235 0.0
C3 C 0.20487 0.25454 0.355 0.0
O4 O 0.22945 0.22546 0.3853 0.0
Co5 Co 0.21923 0.275 0.39732 0.0
O6 O 0.24638 0.25866 0.3885 0.0
C7 C 0.19487 0.24874 0.42994 0.0
C8 C 0.1665 0.20963 0.3783 0.0
C9 C 0.24691 0.23776 0.38535 0.0
O10 O 0.19298 0.23298 0.41571 0.0
O11 O 0.20281 0.26783 0.4253 0.0
O12 O 0.2007 0.23387 0.35087 0.0
O13 O 0.20056 0.26115 0.37502 0.0
Co14 Co 0.04277 0.96172 0.63677 0.0
O15 O 0.04052 0.93664 0.65629 0.0
O16 O 0.07078 0.9465 0.63782 0.0
C17 C 0.01123 0.95525 0.6181 0.0
O18 O 0.0512 0.98523 0.61406 0.0
Co19 Co 0.00773 -0.00031 0.63697 0.0
O20 O 0.02304 0.00944 0.60981 0.0
C21 C 0.04047 0.99645 0.67312 0.0
C22 C 0.06097 0.93249 0.65092 0.0
C23 C 0.04182 0.00163 0.60417 0.0
O24 O 0.05117 0.98113 0.6628 0.0
O25 O 0.02217 0.00471 0.66633 0.0
O26 O 0.02922 0.94457 0.61301 0.0
O27 O 0.01236 0.9679 0.63537 0.0
Co28 Co 0.30124 0.77902 0.86098 0.0
O29 O 0.32838 0.79248 0.8697 0.0
O30 O 0.29676 0.81069 0.86418 0.0
C31 C 0.31598 0.7574 0.83451 0.0
O32 O 0.27033 0.77006 0.85088 0.0
Co33 Co 0.2959 0.72824 0.8683 0.0
O34 O 0.26729 0.73281 0.85281 0.0
C35 C 0.29104 0.75834 0.90626 0.0
C36 C 0.31767 0.8111 0.86958 0.0
C37 C 0.25951 0.75187 0.84804 0.0
O38 O 0.29253 0.77494 0.89299 0.0
O39 O 0.29375 0.73825 0.89996 0.0
O40 O 0.31137 0.77802 0.83028 0.0
O41 O 0.31372 0.75139 0.85495 0.0
Co42 Co 0.45019 0.03299 0.13598 0.0
O43 O 0.44003 0.06209 0.14331 0.0
O44 O 0.4187 0.03204 0.14151 0.0
C45 C 0.47095 0.04195 0.10661 0.0
O46 O 0.45464 0.0008 0.12742 0.0
Co47 Co 0.49998 0.02106 0.13981 0.0
O48 O 0.49092 0.99604 0.12044 0.0
C49 C 0.47303 0.02214 0.18021 0.0
C50 C 0.42048 0.05325 0.145 0.0
C51 C 0.4708 0.98973 0.119 0.0
O52 O 0.45588 0.02619 0.1682 0.0
O53 O 0.49264 0.02074 0.17223 0.0
O54 O 0.44956 0.04019 0.10467 0.0
O55 O 0.47862 0.04142 0.12668 0.0
Co56 Co 0.21132 0.77106 0.10083 0.0
O57 O 0.18357 0.77986 0.08818 0.0
O58 O 0.21037 0.80291 0.09885 0.0
C59 C 0.1977 0.74642 0.12504 0.0
O60 O 0.24117 0.76834 0.11588 0.0
Co61 Co 0.22917 0.72307 0.09575 0.0
O62 O 0.2529 0.73289 0.11632 0.0
C63 C 0.23216 0.7537 0.058 0.0
C64 C 0.19061 0.80006 0.09075 0.0
C65 C 0.25496 0.7532 0.12172 0.0
O66 O 0.2254 0.76955 0.07056 0.0
O67 O 0.23306 0.73349 0.0644 0.0
O68 O 0.1971 0.7675 0.12944 0.0
O69 O 0.20414 0.7411 0.10525 0.0
Co70 Co 0.4581 0.95386 0.37851 0.0
O71 O 0.43827 0.93135 0.36844 0.0
O72 O 0.42807 0.96493 0.37995 0.0
C73 C 0.47847 0.93186 0.40058 0.0
O74 O 0.47361 0.98106 0.39067 0.0
Co75 Co 0.50826 0.95221 0.36765 0.0
O76 O 0.51055 0.9795 0.38591 0.0
C77 C 0.47665 0.9659 0.333 0.0
C78 C 0.42256 0.94553 0.3724 0.0
C79 C 0.49319 0.98917 0.39304 0.0
O80 O 0.46099 0.96554 0.34744 0.0
O81 O 0.49646 0.95956 0.33729 0.0
O82 O 0.45967 0.93985 0.40743 0.0
O83 O 0.48343 0.93577 0.38006 0.0
Co84 Co 0.27885 0.22503 0.60375 0.0
O85 O 0.29636 0.23463 0.57906 0.0
O86 O 0.29132 0.19952 0.58884 0.0
C87 C 0.29284 0.24916 0.62854 0.0
O88 O 0.26264 0.20923 0.62891 0.0
Co89 Co 0.24538 0.25778 0.62557 0.0
O90 O 0.24635 0.23567 0.64977 0.0
C91 C 0.23477 0.23752 0.58226 0.0
C92 C 0.3006 0.21384 0.57563 0.0
C93 C 0.25284 0.21581 0.6467 0.0
O94 O 0.25165 0.22451 0.58404 0.0
O95 O 0.23043 0.25284 0.59632 0.0
O96 O 0.30343 0.23093 0.62414 0.0
O97 O 0.2757 0.25307 0.6163 0.0
Co98 Co 0.98708 0.04973 0.86364 0.0
O99 O 0.99168 0.08079 0.85825 0.0
O100 O 0.01597 0.05806 0.87405 0.0
C101 C 0.95297 0.05181 0.8783 0.0
O102 O 0.98829 0.01737 0.87274 0.0
Co103 Co 0.95054 0.02305 0.83893 0.0
O104 O 0.9596 -0.00172 0.85838 0.0
C105 C 0.99271 0.03271 0.81627 0.0
C106 C 0.01111 0.07788 0.86719 0.0
C107 C 0.97688 -0.0005 0.87046 0.0
O108 O -1e-05 0.04242 0.83375 0.0
O109 O 0.97316 0.02462 0.81458 0.0
O110 O 0.97037 0.05639 0.89015 0.0
O111 O 0.95645 0.04889 0.85729 0.0
Co112 Co 0.37243 0.2065 0.23982 0.0
O113 O 0.37239 0.1747 0.24071 0.0
O114 O 0.36395 0.19516 0.21123 0.0
C115 C 0.35439 0.2108 0.27203 0.0
O116 O 0.36938 0.23916 0.23266 0.0
Co117 Co 0.39614 0.23525 0.27501 0.0
O118 O 0.38116 0.2608 0.26055 0.0
C119 C 0.42223 0.21137 0.24119 0.0
C120 C 0.36605 0.17567 0.22015 0.0
C121 C 0.37209 0.25829 0.24163 0.0
O122 O 0.40441 0.20681 0.23048 0.0
O123 O 0.42231 0.22063 0.26032 0.0
O124 O 0.34352 0.2068 0.25385 0.0
O125 O 0.37577 0.21072 0.27051 0.0
Co126 Co 0.03758 0.1218 0.45536 0.0
O127 O 0.06411 0.12823 0.43961 0.0
O128 O 0.03089 0.12415 0.42404 0.0
C129 C 0.05249 0.09504 0.47661 0.0
O130 O 0.00688 0.11391 0.46654 0.0
Co131 Co 0.03505 0.12884 0.50641 0.0
O132 O 0.00871 0.10924 0.50355 0.0
C133 C 0.03221 0.16745 0.47638 0.0
C134 C 0.05205 0.12774 0.4218 0.0
C135 C -0.00133 0.10734 0.48506 0.0
O136 O 0.03131 0.15445 0.45946 0.0
O137 O 0.03545 0.16052 0.4962 0.0
O138 O 0.04597 0.0905 0.45657 0.0
O139 O 0.05154 0.11567 0.48225 0.0
Co140 Co 0.10927 0.75407 0.72289 0.0
O141 O 0.09268 0.78134 0.7237 0.0
O142 O 0.10985 0.7677 0.69414 0.0
C143 C 0.12886 0.75992 0.75402 0.0
O144 O 0.1291 0.72784 0.71559 0.0
Co145 Co 0.10571 0.71788 0.75921 0.0
O146 O 0.1332 0.70618 0.74558 0.0
C147 C 0.06952 0.72344 0.72656 0.0
C148 C 0.09854 0.7837 0.70309 0.0
C149 C 0.13881 0.712 0.72608 0.0
O150 O 0.08149 0.73703 0.71528 0.0
O151 O 0.07568 0.71533 0.74519 0.0
O152 O 0.1348 0.76914 0.7355 0.0
O153 O 0.11026 0.74924 0.75361 0.0
Co154 Co 0.47364 0.86396 0.96639 0.0
O155 O 0.44511 0.85019 0.96924 0.0
O156 O 0.45949 0.86281 0.93779 0.0
C157 C 0.46889 0.88656 0.99546 0.0
O158 O 0.50116 0.88098 0.957 0.0
Co159 Co 0.50944 0.86122 0.00304 0.0
O160 O 0.52445 0.88471 0.98587 0.0
C161 C 0.50082 0.82234 0.97447 0.0
C162 C 0.44256 0.85464 0.94832 0.0
C163 C 0.51853 0.88929 0.96613 0.0
O164 O 0.48842 0.83415 0.96167 0.0
O165 O 0.50911 0.82974 0.99257 0.0
O166 O 0.46057 0.89163 0.97629 0.0
O167 O 0.47849 0.86747 0.99699 0.0
Co168 Co 0.36687 0.81177 0.27262 0.0
O169 O 0.36628 0.84354 0.27414 0.0
O170 O 0.35572 0.82082 0.30108 0.0
C171 C 0.35144 0.80828 0.23903 0.0
O172 O 0.36371 0.77853 0.27676 0.0
Co173 Co 0.39483 0.78679 0.23707 0.0
O174 O 0.37865 0.76032 0.24781 0.0
C175 C 0.41695 0.80832 0.27481 0.0
C176 C 0.35828 0.84101 0.294 0.0
C177 C 0.3674 0.76068 0.26568 0.0
O178 O 0.39823 0.81157 0.28445 0.0
O179 O 0.41897 0.80049 0.25521 0.0
O180 O 0.3391 0.81182 0.25634 0.0
O181 O 0.3726 0.80946 0.24219 0.0
Co182 Co 0.46786 0.15428 0.48768 0.0
O183 O 0.44567 0.17645 0.48191 0.0
O184 O 0.44796 0.15622 0.51254 0.0
C185 C 0.46625 0.13589 0.45534 0.0
O186 O 0.48724 0.1289 0.49882 0.0
Co187 Co 0.51143 0.15326 0.46021 0.0
O188 O 0.51403 0.12338 0.47346 0.0
C189 C 0.50639 0.18655 0.49536 0.0
C190 C 0.43732 0.17102 0.50101 0.0
C191 C 0.503 0.1172 0.49038 0.0
O192 O 0.48809 0.17732 0.50133 0.0
O193 O 0.51739 0.1804 0.47829 0.0
O194 O 0.45125 0.13285 0.47048 0.0
O195 O 0.47932 0.1526 0.45874 0.0
Co196 Co 0.1329 0.20177 0.7856 0.0
O197 O 0.11662 0.17513 0.7914 0.0
O198 O 0.12507 0.20089 0.81651 0.0
C199 C 0.15998 0.18623 0.76526 0.0
O200 O 0.14992 0.23067 0.78639 0.0
Co201 Co 0.13915 0.22027 0.73813 0.0
O202 O 0.15935 0.24216 0.75227 0.0
C203 C 0.09514 0.22135 0.75926 0.0
C204 C 0.11555 0.18218 0.81174 0.0
C205 C 0.16015 0.24398 0.77331 0.0
O206 O 0.10417 0.21726 0.77816 0.0
O207 O 0.10599 0.2211 0.74102 0.0
O208 O 0.16109 0.18576 0.7868 0.0
O209 O 0.14195 0.19429 0.75698 0.0
Co210 Co 0.04045 0.86188 0.99466 0.0
O211 O 0.07196 0.85814 0.99594 0.0
O212 O 0.05032 0.86619 0.02472 0.0
C213 C 0.03955 0.88362 0.96456 0.0
O214 O 0.00787 0.86852 -0.0007 0.0
Co215 Co 0.01331 0.84431 0.95432 0.0
O216 O 0.98834 0.86049 0.96844 0.0
C217 C 0.02987 0.8131 0.98782 0.0
C218 C 0.07011 0.86283 0.01687 0.0
C219 C 0.9898 0.86847 0.98797 0.0
O220 O 0.03531 0.8293 0.00061 0.0
O221 O 0.02332 0.81569 0.96781 0.0
O222 O 0.04439 0.89199 0.98383 0.0
O223 O 0.03819 0.86226 0.96377 0.0
Co224 Co 0.24701 0.39162 0.21337 0.0
O225 O 0.23831 0.40751 0.1871 0.0
O226 O 0.2166 0.38509 0.20658 0.0
C227 C 0.27938 0.37829 0.20066 0.0
O228 O 0.24994 0.37123 0.23991 0.0
Co229 Co 0.28854 0.40395 0.24124 0.0
O230 O 0.28133 0.37747 0.25918 0.0
C231 C 0.2483 0.4315 0.24432 0.0
C232 C 0.21917 0.39781 0.18941 0.0
C233 C 0.26362 0.36665 0.25558 0.0
O234 O 0.23757 0.41736 0.23252 0.0
O235 O 0.26911 0.42994 0.24822 0.0
O236 O 0.26073 0.36904 0.19516 0.0
O237 O 0.27784 0.39673 0.21161 0.0
Co238 Co 0.7349 0.11818 0.81337 0.0
O239 O 0.73764 0.12036 0.84502 0.0
O240 O 0.70745 0.12882 0.82568 0.0
C241 C 0.76736 0.13405 0.80447 0.0
O242 O 0.72635 0.11933 0.78087 0.0
Co243 Co 0.76785 0.08976 0.78553 0.0
O244 O 0.7524 0.10305 0.75965 0.0
C245 C 0.73466 0.06817 0.81379 0.0
C246 C 0.71727 0.12739 0.84483 0.0
C247 C 0.73456 0.11419 0.76187 0.0
O248 O 0.72409 0.08656 0.81587 0.0
O249 O 0.75382 0.0667 0.8048 0.0
O250 O 0.75042 0.14635 0.80971 0.0
O251 O 0.76479 0.11303 0.8074 0.0
Co252 Co 0.10839 0.4571 0.03905 0.0
O253 O 0.12183 0.45816 0.06769 0.0
O254 O 0.11428 0.42721 0.04903 0.0
C255 C 0.08139 0.48185 0.04617 0.0
O256 O 0.09418 0.44996 0.00928 0.0
Co257 Co 0.10836 0.49983 0.01007 0.0
O258 O 0.0908 0.48137 0.98934 0.0
C259 C 0.14983 0.47513 0.01697 0.0
C260 C 0.12248 0.4367 0.06659 0.0
C261 C 0.08788 0.46059 0.99188 0.0
O262 O 0.13878 0.45882 0.02513 0.0
O263 O 0.14097 0.49377 0.01203 0.0
O264 O 0.07886 0.46124 0.05197 0.0
O265 O 0.10064 0.48694 0.03838 0.0
Co266 Co 0.79705 0.88883 0.27696 0.0
O267 O 0.79557 0.90556 0.30377 0.0
O268 O 0.82651 0.89156 0.28959 0.0
C269 C 0.76857 0.86609 0.2848 0.0
O270 O 0.8041 0.86977 0.2499 0.0
Co271 Co 0.75642 0.89123 0.24488 0.0
O272 O 0.77305 0.86792 0.22899 0.0
C273 C 0.78682 0.92923 0.24844 0.0
C274 C 0.81674 0.9024 0.30552 0.0
C275 C 0.793 0.86234 0.23321 0.0
O276 O 0.80071 0.91731 0.2595 0.0
O277 O 0.76746 0.9224 0.24303 0.0
O278 O 0.78812 0.86202 0.2928 0.0
O279 O 0.76646 0.88476 0.27456 0.0
Co280 Co 0.86402 0.00706 0.04602 0.0
O281 O 0.86659 0.01212 0.07748 0.0
O282 O 0.87237 0.0373 0.05132 0.0
C283 C 0.88326 0.97525 0.04479 0.0
O284 O 0.86445 0.00834 0.01245 0.0
Co285 Co 0.83983 0.96644 0.02566 0.0
O286 O 0.85206 0.97686 0.9969 0.0
C287 C 0.81394 0.00317 0.0451 0.0
C288 C 0.87244 0.0322 0.07224 0.0
C289 C 0.8608 0.99603 0.99542 0.0
O290 O 0.83154 0.01513 0.04663 0.0
O291 O 0.81424 0.98274 0.03931 0.0
O292 O 0.89351 0.99418 0.04562 0.0
O293 O 0.86195 0.97602 0.04697 0.0
Co294 Co 0.30362 0.60818 0.69021 0.0
O295 O 0.29901 0.58995 0.66476 0.0
O296 O 0.33049 0.60734 0.6727 0.0
C297 C 0.27201 0.62768 0.68727 0.0
O298 O 0.31363 0.62906 0.71474 0.0
Co299 Co 0.27045 0.60364 0.72971 0.0
O300 O 0.28763 0.62887 0.74168 0.0
C301 C 0.30249 0.5683 0.72046 0.0
C302 C 0.31931 0.59452 0.65939 0.0
C303 C 0.3056 0.63612 0.73321 0.0
O304 O 0.31336 0.58121 0.70748 0.0
O305 O 0.28371 0.57323 0.72897 0.0
O306 O 0.28922 0.63313 0.67553 0.0
O307 O 0.27377 0.60945 0.69835 0.0
Co308 Co 0.1088 0.52813 0.46243 0.0
O309 O 0.11853 0.53591 0.43328 0.0
O310 O 0.11506 0.55941 0.4616 0.0
C311 C 0.07957 0.50727 0.45298 0.0
O312 O 0.09854 0.52635 0.49436 0.0
Co313 Co 0.10931 0.47939 0.47877 0.0
O314 O 0.08845 0.49119 0.50147 0.0
C315 C 0.15136 0.5035 0.47307 0.0
C316 C 0.12048 0.5559 0.44105 0.0
C317 C 0.08829 0.51181 0.50608 0.0
O318 O 0.14045 0.52167 0.47085 0.0
O319 O 0.14198 0.48452 0.47476 0.0
O320 O 0.0778 0.52877 0.45324 0.0
O321 O 0.09939 0.49955 0.45565 0.0
Co322 Co 0.3589 0.48319 0.99093 0.0
O323 O 0.35496 0.48053 0.95959 0.0
O324 O 0.3613 0.4523 0.98221 0.0
C325 C 0.38296 0.51145 0.99019 0.0
O326 O 0.3651 0.48045 0.02404 0.0
Co327 Co 0.34279 0.52644 0.01395 0.0
O328 O 0.35892 0.51388 0.03964 0.0
C329 C 0.31009 0.49351 -0.00035 0.0
C330 C 0.3581 0.45942 0.96207 0.0
C331 C 0.36598 0.49397 0.0406 0.0
O332 O 0.32591 0.47977 0.99561 0.0
O333 O 0.31344 0.51375 0.00504 0.0
O334 O 0.38977 0.49131 0.98693 0.0
O335 O 0.3617 0.51418 0.99101 0.0
Co336 Co 0.6842 0.73403 0.87216 0.0
O337 O 0.65248 0.73376 0.86973 0.0
O338 O 0.67369 0.70403 0.87436 0.0
C339 C 0.6912 0.75587 0.84309 0.0
O340 O 0.71728 0.72805 0.87343 0.0
Co341 Co 0.70842 0.77826 0.88316 0.0
O342 O 0.73518 0.76085 0.87534 0.0
C343 C 0.68413 0.7552 0.91807 0.0
C344 C 0.65406 0.71233 0.87095 0.0
C345 C 0.73504 0.73987 0.87279 0.0
O346 O 0.68246 0.738 0.90552 0.0
O347 O 0.69159 0.77385 0.91135 0.0
O348 O 0.68666 0.73507 0.84012 0.0
O349 O 0.68821 0.76336 0.86301 0.0
Co350 Co 0.5331 0.47309 0.14263 0.0
O351 O 0.52432 0.45008 0.16262 0.0
O352 O 0.55346 0.44841 0.1403 0.0
C353 C 0.49884 0.47851 0.1288 0.0
O354 O 0.54651 0.4928 0.11873 0.0
Co355 Co 0.51469 0.52061 0.14738 0.0
O356 O 0.52929 0.52589 0.11862 0.0
C357 C 0.55053 0.50581 0.17711 0.0
C358 C 0.54078 0.43867 0.15478 0.0
C359 C 0.54303 0.51212 0.11043 0.0
O360 O 0.55173 0.48726 0.16662 0.0
O361 O 0.53615 0.52078 0.17271 0.0
O362 O 0.51145 0.46282 0.12119 0.0
O363 O 0.50661 0.4895 0.14554 0.0
Co364 Co 0.76705 0.25577 0.39349 0.0
O365 O 0.79155 0.25752 0.41375 0.0
O366 O 0.77688 0.28607 0.39573 0.0
C367 C 0.77884 0.22646 0.37361 0.0
O368 O 0.74264 0.26016 0.37062 0.0
Co369 Co 0.73647 0.21415 0.39328 0.0
O370 O 0.72556 0.22739 0.36536 0.0
C371 C 0.73149 0.24754 0.42863 0.0
C372 C 0.79181 0.2786 0.40939 0.0
C373 C 0.72903 0.24756 0.36007 0.0
O374 O 0.74555 0.26027 0.41885 0.0
O375 O 0.72689 0.22796 0.42185 0.0
O376 O 0.78668 0.24612 0.36965 0.0
O377 O 0.76662 0.22483 0.39113 0.0
Co378 Co 0.94241 0.54803 0.63124 0.0
O379 O 0.93044 0.57735 0.63179 0.0
O380 O 0.91036 0.54642 0.63067 0.0
C381 C 0.96848 0.55452 0.60573 0.0
O382 O 0.94919 0.51521 0.62891 0.0
Co383 Co 0.99141 0.53944 0.64521 0.0
O384 O 0.98584 0.50924 0.6332 0.0
C385 C 0.95791 0.55033 0.6788 0.0
C386 C 0.91111 0.56797 0.63102 0.0
C387 C 0.96636 0.50258 0.62837 0.0
O388 O 0.94227 0.54675 0.66472 0.0
O389 O 0.97846 0.55087 0.67357 0.0
O390 O 0.94825 0.55043 0.59947 0.0
O391 O 0.97165 0.5567 0.62674 0.0
Co392 Co 0.68577 0.24565 0.62814 0.0
O393 O 0.65558 0.25547 0.63093 0.0
O394 O 0.68529 0.27677 0.6351 0.0
C395 C 0.68265 0.21495 0.64885 0.0
O396 O 0.71916 0.24148 0.62759 0.0
Co397 Co 0.69766 0.20134 0.60468 0.0
O398 O 0.72843 0.20781 0.61454 0.0
C399 C 0.68495 0.24023 0.57804 0.0
C400 C 0.66382 0.27486 0.63549 0.0
C401 C 0.73363 0.22652 0.62288 0.0
O402 O 0.68569 0.25252 0.59544 0.0
O403 O 0.68691 0.21909 0.57865 0.0
O404 O 0.68501 0.23423 0.65816 0.0
O405 O 0.67979 0.21508 0.62759 0.0
Co406 Co 0.97195 0.44472 0.84523 0.0
O407 O 0.96878 0.42395 0.82145 0.0
O408 O 0.94098 0.43804 0.84115 0.0
C409 C -0.00047 0.42746 0.86357 0.0
O410 O 0.969 0.46602 0.87117 0.0
Co411 Co 0.01581 0.4713 0.85055 0.0
O412 O 0.00238 0.48083 0.87888 0.0
C413 C 0.98267 0.48593 0.81775 0.0
C414 C 0.94764 0.42489 0.82541 0.0
C415 C 0.98187 0.47812 0.88315 0.0
O416 O 0.96964 0.47015 0.82369 0.0
O417 O 0.00219 0.48858 0.82566 0.0
O418 O 0.97915 0.42092 0.8658 0.0
O419 O 0.00283 0.44205 0.84818 0.0
Co420 Co 0.7578 0.72997 0.10078 0.0
O421 O 0.78035 0.72692 0.07879 0.0
O422 O 0.75949 0.69929 0.09152 0.0
C423 C 0.7785 0.75048 0.12411 0.0
O424 O 0.73336 0.72715 0.1239 0.0
Co425 Co 0.73935 0.77641 0.11294 0.0
O426 O 0.72835 0.76062 0.13958 0.0
C427 C 0.72432 0.75421 0.07173 0.0
C428 C 0.77537 0.70604 0.07859 0.0
C429 C 0.72524 0.73974 0.1391 0.0
O430 O 0.73533 0.73669 0.07694 0.0
O431 O 0.72475 0.77207 0.08326 0.0
O432 O 0.78011 0.72901 0.12427 0.0
O433 O 0.76583 0.75875 0.10894 0.0
Co434 Co 0.54631 0.53382 0.3666 0.0
O435 O 0.53888 0.56065 0.35094 0.0
O436 O 0.56567 0.55733 0.37594 0.0
C437 C 0.5114 0.52437 0.3755 0.0
O438 O 0.55823 0.51025 0.3875 0.0
Co439 Co 0.53071 0.48696 0.35216 0.0
O440 O 0.54095 0.47774 0.38186 0.0
C441 C 0.56572 0.51006 0.32682 0.0
C442 C 0.55459 0.56994 0.36245 0.0
C443 C 0.55367 0.49023 0.39317 0.0
O444 O 0.5672 0.52517 0.34186 0.0
O445 O 0.55136 0.49445 0.32737 0.0
O446 O 0.52205 0.53898 0.38727 0.0
O447 O 0.52147 0.51727 0.35798 0.0
Co448 Co 0.86243 0.71534 0.72731 0.0
O449 O 0.86121 0.68402 0.72217 0.0
O450 O 0.85475 0.70978 0.69673 0.0
C451 C 0.84313 0.71481 0.75913 0.0
O452 O 0.86103 0.749 0.72669 0.0
Co453 Co 0.88638 0.73452 0.76874 0.0
O454 O 0.87505 0.76351 0.7581 0.0
C455 C 0.91217 0.71521 0.73214 0.0
C456 C 0.85591 0.68886 0.70187 0.0
C457 C 0.86561 0.7656 0.7393 0.0
O458 O 0.89496 0.71566 0.71956 0.0
O459 O 0.91154 0.71959 0.75291 0.0
O460 O 0.83283 0.7145 0.74018 0.0
O461 O 0.86447 0.71355 0.75821 0.0
Co462 Co 0.54395 0.61684 0.95546 0.0
O463 O 0.56708 0.62173 0.93466 0.0
O464 O 0.53165 0.61661 0.92579 0.0
C465 C 0.56216 0.59192 0.97636 0.0
O466 O 0.51595 0.61011 0.97289 0.0
Co467 Co 0.55124 0.63019 0.00468 0.0
O468 O 0.52422 0.61201 0.00925 0.0
C469 C 0.5416 0.66488 0.97188 0.0
C470 C 0.55194 0.62029 0.91944 0.0
C471 C 0.51113 0.60694 0.99344 0.0
O472 O 0.53806 0.64976 0.95727 0.0
O473 O 0.5487 0.66059 0.99143 0.0
O474 O 0.55258 0.58579 0.95804 0.0
O475 O 0.56258 0.61306 0.97992 0.0
Co476 Co 0.60831 0.26286 0.20583 0.0
O477 O 0.58489 0.28343 0.21144 0.0
O478 O 0.60065 0.27803 0.1786 0.0
C479 C 0.62916 0.27252 0.23512 0.0
O480 O 0.63372 0.24356 0.19447 0.0
Co481 Co 0.61865 0.2257 0.24019 0.0
O482 O 0.64733 0.22562 0.22428 0.0
C483 C 0.57768 0.22405 0.21342 0.0
C484 C 0.58622 0.28866 0.19064 0.0
C485 C 0.64912 0.23257 0.20442 0.0
O486 O 0.58542 0.23902 0.2003 0.0
O487 O 0.58778 0.21774 0.231 0.0
O488 O 0.6302 0.28409 0.21699 0.0
O489 O 0.61431 0.25712 0.23546 0.0
Co490 Co 0.94926 0.35546 0.50405 0.0
O491 O 0.92382 0.33609 0.50285 0.0
O492 O 0.93582 0.35736 0.47533 0.0
C493 C 0.94229 0.37183 0.53678 0.0
O494 O 0.97309 0.37855 0.49883 0.0
Co495 Co 0.98606 0.35199 0.53993 0.0
O496 O 0.99484 0.38176 0.52901 0.0
C497 C 0.98405 0.31886 0.50389 0.0
C498 C 0.92119 0.34343 0.48272 0.0
C499 C 0.98789 0.38865 0.51031 0.0
O500 O 0.96916 0.33046 0.49389 0.0
O501 O 0.99163 0.32386 0.5231 0.0
O502 O 0.93185 0.37809 0.51898 0.0
O503 O 0.95434 0.3542 0.53473 0.0
Co504 Co 0.89301 0.26716 0.72266 0.0
O505 O 0.90313 0.29741 0.72266 0.0
O506 O 0.88945 0.27944 0.75176 0.0
C507 C 0.87216 0.26854 0.69193 0.0
O508 O 0.87976 0.23701 0.72909 0.0
Co509 Co 0.90624 0.23396 0.68576 0.0
O510 O 0.8849 0.21367 0.70044 0.0
C511 C 0.93908 0.24647 0.71957 0.0
C512 C 0.89718 0.2977 0.7434 0.0
C513 C 0.87659 0.21838 0.71927 0.0
O514 O 0.92372 0.2565 0.73043 0.0
O515 O 0.93597 0.23801 0.70034 0.0
O516 O 0.86482 0.27635 0.7106 0.0
O517 O 0.89287 0.26273 0.69171 0.0
Co518 Co 0.93885 0.62842 0.00131 0.0
O519 O 0.91404 0.64587 0.99219 0.0
O520 O 0.92163 0.63695 0.02703 0.0
C521 C 0.93436 0.6012 0.97628 0.0
O522 O 0.9626 0.6094 0.01611 0.0
Co523 Co 0.97742 0.62238 0.96722 0.0
O524 O 0.98795 0.60113 0.98979 0.0
C525 C 0.97383 0.66414 0.99208 0.0
C526 C 0.9082 0.64622 0.01286 0.0
C527 C 0.9801 0.59917 0.00931 0.0
O528 O 0.95804 0.65592 0.00392 0.0
O529 O 0.98228 0.65406 0.97543 0.0
O530 O 0.92256 0.60141 0.99424 0.0
O531 O 0.94613 0.61877 0.97278 0.0
Co532 Co 0.59913 0.74149 0.28541 0.0
O533 O 0.57856 0.71782 0.29042 0.0
O534 O 0.59937 0.73348 0.3164 0.0
C535 C 0.61551 0.72658 0.25554 0.0
O536 O 0.62314 0.76522 0.28619 0.0
Co537 Co 0.59723 0.76949 0.24235 0.0
O538 O 0.62706 0.77914 0.25182 0.0
C539 C 0.56568 0.77883 0.27851 0.0
C540 C 0.58499 0.71834 0.31096 0.0
C541 C 0.63369 0.77687 0.27175 0.0
O542 O 0.57488 0.76393 0.29068 0.0
O543 O 0.57154 0.78295 0.25854 0.0
O544 O 0.62144 0.72058 0.27533 0.0
O545 O 0.59853 0.73964 0.2543 0.0
Co546 Co 0.55633 0.37838 0.55066 0.0
O547 O 0.58208 0.37635 0.56894 0.0
O548 O 0.54739 0.37701 0.58141 0.0
C549 C 0.56889 0.40526 0.5282 0.0
O550 O 0.52591 0.38142 0.53656 0.0
Co551 Co 0.55966 0.36629 0.50059 0.0
O552 O 0.52813 0.37573 0.49967 0.0
C553 C 0.55943 0.33079 0.53373 0.0
C554 C 0.56851 0.37584 0.58562 0.0
C555 C 0.51717 0.38055 0.5171 0.0
O556 O 0.5543 0.34499 0.54881 0.0
O557 O 0.56477 0.33636 0.51397 0.0
O558 O 0.56074 0.41033 0.54752 0.0
O559 O 0.57142 0.38436 0.52439 0.0
Co560 Co 0.7458 0.90276 0.72057 0.0
O561 O 0.7371 0.92661 0.70127 0.0
O562 O 0.71569 0.89827 0.71125 0.0
C563 C 0.77891 0.89431 0.7058 0.0
O564 O 0.74879 0.87494 0.7391 0.0
Co565 Co 0.78668 0.90627 0.7518 0.0
O566 O 0.78087 0.87461 0.75824 0.0
C567 C 0.74543 0.92991 0.76327 0.0
C568 C 0.71803 0.91657 0.70017 0.0
C569 C 0.76305 0.86536 0.7517 0.0
O570 O 0.73536 0.92047 0.747 0.0
O571 O 0.76621 0.92758 0.76695 0.0
O572 O 0.76071 0.88746 0.69646 0.0
O573 O 0.77632 0.90882 0.7214 0.0
Co574 Co 0.22483 0.62919 0.29443 0.0
O575 O 0.22461 0.61952 0.32472 0.0
O576 O 0.1958 0.63382 0.30673 0.0
C577 C 0.25683 0.64812 0.29626 0.0
O578 O 0.21875 0.64189 0.26391 0.0
Co579 Co 0.2619 0.61523 0.26143 0.0
O580 O 0.24732 0.63617 0.24068 0.0
C581 C 0.22948 0.58268 0.278 0.0
C582 C 0.20394 0.62565 0.32494 0.0
C583 C 0.22845 0.64459 0.24513 0.0
O584 O 0.21659 0.59832 0.28456 0.0
O585 O 0.24915 0.58599 0.27076 0.0
O586 O 0.2385 0.65719 0.30309 0.0
O587 O 0.25548 0.6276 0.29038 0.0
Co588 Co 0.60503 0.95976 0.54756 0.0
O589 O 0.61528 0.97377 0.574 0.0
O590 O 0.60995 0.93758 0.5703 0.0
C591 C 0.57758 0.98396 0.54049 0.0
O592 O 0.5935 0.94028 0.52251 0.0
Co593 Co 0.6097 0.98674 0.50363 0.0
O594 O 0.59358 0.96096 0.4913 0.0
C595 C 0.6491 0.96881 0.52531 0.0
C596 C 0.61608 0.95417 0.58274 0.0
C597 C 0.58928 0.94308 0.50175 0.0
O598 O 0.63671 0.95621 0.53721 0.0
O599 O 0.64147 0.9841 0.51276 0.0
O600 O 0.5744 0.96801 0.55462 0.0
O601 O 0.59761 0.98601 0.5333 0.0
Co602 Co 0.29956 0.37683 0.79723 0.0
O603 O 0.30243 0.39332 0.82411 0.0
O604 O 0.33003 0.37537 0.80756 0.0
C605 C 0.26876 0.35812 0.8069 0.0
O606 O 0.30187 0.35758 0.76937 0.0
Co607 Co 0.25739 0.38592 0.76833 0.0
O608 O 0.26958 0.36112 0.75084 0.0
C609 C 0.29429 0.41788 0.76804 0.0
C610 C 0.32313 0.38756 0.82399 0.0
C611 C 0.28869 0.35244 0.75331 0.0
O612 O 0.30621 0.40458 0.77971 0.0
O613 O 0.27395 0.41417 0.7632 0.0
O614 O 0.28809 0.35141 0.81355 0.0
O615 O 0.26848 0.37709 0.79698 0.0
Co616 Co 0.35711 0.48751 0.49714 0.0
O617 O 0.3447 0.49306 0.52586 0.0
O618 O 0.35928 0.51867 0.50382 0.0
C619 C 0.37791 0.4583 0.50667 0.0
O620 O 0.37257 0.48792 0.46725 0.0
Co621 Co 0.34648 0.44417 0.47167 0.0
O622 O 0.37017 0.45431 0.45125 0.0
C623 C 0.31211 0.47828 0.47675 0.0
C624 C 0.35026 0.51363 0.52272 0.0
C625 C 0.37788 0.47397 0.45201 0.0
O626 O 0.3271 0.49193 0.48329 0.0
O627 O 0.31602 0.45772 0.47318 0.0
O628 O 0.38468 0.47834 0.51062 0.0
O629 O 0.35779 0.45639 0.49933 0.0
Co630 Co 0.80783 0.13202 0.19565 0.0
O631 O 0.8243 0.12556 0.16953 0.0
O632 O 0.83919 0.13157 0.20275 0.0
C633 C 0.7849 0.15674 0.17999 0.0
O634 O 0.79571 0.14019 0.226 0.0
Co635 Co 0.75769 0.12048 0.19729 0.0
O636 O 0.75858 0.13581 0.2264 0.0
C637 C 0.79062 0.08478 0.20178 0.0
C638 C 0.84185 0.12675 0.18188 0.0
C639 C 0.77669 0.14177 0.23553 0.0
O640 O 0.80613 0.09937 0.20284 0.0
O641 O 0.77039 0.08974 0.19767 0.0
O642 O 0.80444 0.16293 0.1867 0.0
O643 O 0.78079 0.13578 0.18103 0.0
Co644 Co 0.62698 0.04015 0.97562 0.0
O645 O 0.64638 0.0532 0.95426 0.0
O646 O 0.62553 0.07208 0.97817 0.0
C647 C 0.61134 0.01534 0.95246 0.0
O648 O 0.60407 0.03235 -0.00085 0.0
Co649 Co 0.63064 0.99053 0.98886 0.0
O650 O 0.59978 0.9953 -0.00093 0.0
C651 C 0.66311 0.02288 0.00633 0.0
C652 C 0.63971 0.07215 0.96195 0.0
C653 C 0.59317 0.0147 0.00414 0.0
O654 O 0.65201 0.03902 -0.00214 0.0
O655 O 0.65794 0.00248 0.0035 0.0
O656 O 0.60439 0.03574 0.95276 0.0
O657 O 0.62863 0.01133 0.96446 0.0
Co658 Co 0.85312 0.97545 0.48541 0.0
O659 O 0.84012 0.97536 0.45641 0.0
O660 O 0.85483 0.94599 0.47296 0.0
C661 C 0.87375 0.0058 0.4803 0.0
O662 O 0.86929 0.96944 0.51429 0.0
Co663 Co 0.84569 0.01417 0.51849 0.0
O664 O 0.87209 0.00132 0.53333 0.0
C665 C 0.80978 0.98199 0.50973 0.0
C666 C 0.84576 0.95462 0.45539 0.0
C667 C 0.87791 0.98133 0.52976 0.0
O668 O 0.82327 0.96926 0.49917 0.0
O669 O 0.81512 0.00122 0.51699 0.0
O670 O 0.88073 0.98667 0.47335 0.0
O671 O 0.85395 0.0064 0.48842 0.0
H672 H 0.24091 0.21179 0.54496 0.0
H673 H 0.19648 0.26046 0.57403 0.0
H674 H 0.17631 0.26313 0.53875 0.0
H675 H 0.24781 0.2368 0.49589 0.0
H676 H 0.24801 0.21235 0.47868 0.0
H677 H 0.25594 0.21038 0.5073 0.0
H678 H 0.22606 0.1802 0.51371 0.0
H679 H 0.21804 0.18201 0.48494 0.0
H680 H 0.1976 0.18577 0.50642 0.0
H681 H 0.16686 0.26739 0.49914 0.0
H682 H 0.16735 0.27064 0.45823 0.0
H683 H 0.21542 0.21746 0.45452 0.0
C684 C 0.22646 0.22241 0.54415 0.0
C685 C 0.22041 0.23597 0.56232 0.0
C686 C 0.20157 0.24993 0.5604 0.0
C687 C 0.18986 0.25149 0.54042 0.0
C688 C 0.19685 0.23868 0.52254 0.0
C689 C 0.21444 0.22405 0.5243 0.0
C690 C 0.22008 0.21401 0.50195 0.0
C691 C 0.24439 0.21868 0.49559 0.0
C692 C 0.21514 0.18901 0.50175 0.0
C693 C 0.20402 0.2265 0.48718 0.0
C694 C 0.1905 0.24039 0.49945 0.0
C695 C 0.17669 0.25599 0.48936 0.0
C696 C 0.17707 0.25778 0.46618 0.0
C697 C 0.19089 0.24383 0.45344 0.0
C698 C 0.20401 0.22761 0.464 0.0
H699 H 0.03412 0.97188 0.70924 0.0
H700 H 0.05791 0.03568 0.68708 0.0
H701 H 0.05538 0.05008 0.72543 0.0
H702 H 0.99278 0.99176 0.73721 0.0
H703 H 0.9924 0.97245 0.76002 0.0
H704 H 0.00409 0.96426 0.73395 0.0
H705 H 0.04139 0.9545 0.75283 0.0
H706 H 0.02964 0.96204 0.77929 0.0
H707 H 0.05505 0.97478 0.77006 0.0
H708 H 0.04263 0.05967 0.76377 0.0
H709 H 0.0197 0.06396 0.79764 0.0
H710 H -0.00018 0.99512 0.7928 0.0
C711 C 0.04022 0.98838 0.71291 0.0
C712 C 0.04706 0.00248 0.69566 0.0
C713 C 0.05347 0.02449 0.70041 0.0
C714 C 0.05197 0.03277 0.72212 0.0
C715 C 0.04369 0.01887 0.73867 0.0
C716 C 0.03805 0.99702 0.7343 0.0
C717 C 0.02512 0.98694 0.75329 0.0
C718 C 0.00226 0.97838 0.74564 0.0
C719 C 0.03861 0.96847 0.76454 0.0
C720 C 0.02295 0.0069 0.76827 0.0
C721 C 0.03455 0.0249 0.76008 0.0
C722 C 0.03381 0.04558 0.7705 0.0
C723 C 0.02068 0.04792 0.78959 0.0
C724 C 0.00793 0.02991 0.79746 0.0
C725 C 0.00938 0.00913 0.78689 0.0
H726 H 0.28191 0.72759 0.9385 0.0
H727 H 0.28417 0.7986 0.92657 0.0
H728 H 0.26937 0.80529 0.96415 0.0
H729 H 0.23124 0.72725 0.96784 0.0
H730 H 0.23958 0.70598 0.98711 0.0
H731 H 0.25148 0.70679 0.95975 0.0
H732 H 0.291 0.70835 0.97668 0.0
H733 H 0.27923 0.70729 0.00411 0.0
H734 H 0.29762 0.72963 0.99663 0.0
H735 H 0.25248 0.80404 0.00253 0.0
H736 H 0.23699 0.79502 0.03933 0.0
H737 H 0.24603 0.72485 0.02565 0.0
C738 C 0.2796 0.74459 0.94381 0.0
C739 C 0.28423 0.76255 0.9295 0.0
C740 C 0.28077 0.78452 0.93718 0.0
C741 C 0.27232 0.78851 0.9585 0.0
C742 C 0.26749 0.77037 0.97195 0.0
C743 C 0.27118 0.74887 0.96496 0.0
C744 C 0.26423 0.73224 0.98239 0.0
C745 C 0.24552 0.71718 0.97375 0.0
C746 C 0.28421 0.71858 0.99043 0.0
C747 C 0.25594 0.74774 0.00027 0.0
C748 C 0.2579 0.76966 0.99396 0.0
C749 C 0.25099 0.78692 0.00769 0.0
C750 C 0.24214 0.78161 0.02855 0.0
C751 C 0.24032 0.7592 0.03548 0.0
C752 C 0.24722 0.74214 0.02097 0.0
H753 H 0.50556 0.9727 0.29838 0.0
H754 H 0.43635 0.97994 0.31715 0.0
H755 H 0.42831 0.99682 0.28081 0.0
H756 H 0.51017 0.02392 0.26836 0.0
H757 H 0.52788 0.0125 0.24715 0.0
H758 H 0.52834 0.00104 0.27473 0.0
H759 H 0.51953 0.96203 0.25891 0.0
H760 H 0.51928 0.97333 0.23129 0.0
H761 H 0.49552 0.95834 0.24147 0.0
H762 H 0.42776 0.01297 0.24243 0.0
H763 H 0.43429 0.02509 0.20394 0.0
H764 H 0.50385 0.00726 0.21034 0.0
C765 C 0.48869 0.97776 0.29488 0.0
C766 C 0.47163 0.97502 0.31073 0.0
C767 C 0.44976 0.98189 0.30537 0.0
C768 C 0.44501 0.99157 0.28478 0.0
C769 C 0.46228 0.99428 0.2697 0.0
C770 C 0.48364 0.98745 0.27443 0.0
C771 C 0.4991 0.99186 0.25517 0.0
C772 C 0.51745 0.00831 0.26175 0.0
C773 C 0.50893 0.9701 0.24618 0.0
C774 C 0.48307 0.00214 0.23881 0.0
C775 C 0.46195 0.0035 0.24756 0.0
C776 C 0.44424 0.01201 0.2354 0.0
C777 C 0.44815 0.01888 0.21354 0.0
C778 C 0.4696 0.01716 0.20403 0.0
C779 C 0.48729 0.00897 0.21708 0.0
H780 H 0.55174 0.20316 0.24363 0.0
H781 H 0.55145 0.22772 0.17602 0.0
H782 H 0.51118 0.2201 0.17364 0.0
H783 H 0.5057 0.16119 0.23827 0.0
H784 H 0.49541 0.16838 0.2654 0.0
H785 H 0.5247 0.16998 0.25962 0.0
H786 H 0.52482 0.21103 0.27241 0.0
H787 H 0.49562 0.20968 0.27795 0.0
H788 H 0.50625 0.23047 0.25931 0.0
H789 H 0.47014 0.21494 0.18072 0.0
H790 H 0.43258 0.21588 0.19731 0.0
H791 H 0.46038 0.19817 0.26116 0.0
C792 C 0.54349 0.20612 0.22796 0.0
C793 C 0.55484 0.21576 0.2099 0.0
C794 C 0.54315 0.22009 0.18999 0.0
C795 C 0.52029 0.21573 0.18848 0.0
C796 C 0.50943 0.20713 0.20703 0.0
C797 C 0.52075 0.20238 0.2264 0.0
C798 C 0.50509 0.1969 0.24519 0.0
C799 C 0.50789 0.17267 0.25254 0.0
C800 C 0.50813 0.21298 0.26485 0.0
C801 C 0.48311 0.20039 0.23374 0.0
C802 C 0.48585 0.20549 0.21154 0.0
C803 C 0.46782 0.21065 0.19799 0.0
C804 C 0.44658 0.21115 0.20752 0.0
C805 C 0.44376 0.20716 0.23048 0.0
C806 C 0.46217 0.20123 0.24355 0.0
H807 H 0.01329 0.28887 0.52127 0.0
H808 H 0.97344 0.30188 0.46269 0.0
H809 H 0.98546 0.26602 0.44678 0.0
H810 H 0.059 0.25914 0.49313 0.0
H811 H 0.06204 0.23999 0.51586 0.0
H812 H 0.0528 0.26794 0.52102 0.0
H813 H 0.01771 0.25276 0.54071 0.0
H814 H 0.02683 0.22486 0.53563 0.0
H815 H -0.00014 0.23367 0.52617 0.0
H816 H -0.00068 0.22691 0.43897 0.0
H817 H 0.01182 0.18788 0.44102 0.0
H818 H 0.04166 0.20107 0.5052 0.0
C819 C 0.00737 0.2845 0.50489 0.0
C820 C 0.99245 0.29832 0.49323 0.0
C821 C 0.98494 0.29166 0.47195 0.0
C822 C 0.99176 0.27135 0.46273 0.0
C823 C 0.00617 0.25796 0.47493 0.0
C824 C 0.01389 0.26436 0.49554 0.0
C825 C 0.0276 0.24632 0.50628 0.0
C826 C 0.05179 0.2538 0.50924 0.0
C827 C 0.01738 0.23897 0.52849 0.0
C828 C 0.02571 0.22839 0.48888 0.0
C829 C 0.01371 0.23549 0.47068 0.0
C830 C 0.00893 0.22128 0.45304 0.0
C831 C 0.01614 0.19915 0.45434 0.0
C832 C 0.02766 0.19139 0.47331 0.0
C833 C 0.0329 0.20645 0.49047 0.0
H834 H 0.03901 0.69719 0.7471 0.0
H835 H 0.0484 0.73816 0.68869 0.0
H836 H 0.00876 0.73361 0.67933 0.0
H837 H 0.99361 0.66037 0.72393 0.0
H838 H 0.9797 0.6602 0.75038 0.0
H839 H 0.00954 0.66184 0.74919 0.0
H840 H 0.00847 0.69766 0.77299 0.0
H841 H 0.9788 0.69618 0.77417 0.0
H842 H 0.99203 0.72086 0.76373 0.0
H843 H 0.96706 0.72992 0.67999 0.0
H844 H 0.92778 0.72964 0.69203 0.0
H845 H 0.9462 0.69275 0.75082 0.0
C846 C 0.03299 0.70465 0.73191 0.0
C847 C 0.04689 0.71799 0.71863 0.0
C848 C 0.03814 0.72774 0.69911 0.0
C849 C 0.01564 0.72514 0.69358 0.0
C850 C 0.00219 0.71261 0.70762 0.0
C851 C 0.01066 0.70241 0.72634 0.0
C852 C 0.99248 0.69271 0.7406 0.0
C853 C 0.99392 0.66727 0.74104 0.0
C854 C 0.99298 0.70245 0.76424 0.0
C855 C 0.97235 0.70035 0.72783 0.0
C856 C 0.97818 0.71108 0.70842 0.0
C857 C 0.9623 0.72117 0.69491 0.0
C858 C 0.94005 0.72092 0.70183 0.0
C859 C 0.93414 0.71117 0.72232 0.0
C860 C 0.95037 0.70018 0.73501 0.0
H861 H 0.52369 0.7922 -0.0007 0.0
H862 H 0.48953 0.79943 0.93629 0.0
H863 H 0.49816 0.76022 0.92741 0.0
H864 H 0.56756 0.75619 0.98024 0.0
H865 H 0.56773 0.74024 0.00551 0.0
H866 H 0.55976 0.76902 0.0061 0.0
H867 H 0.52237 0.75844 0.02452 0.0
H868 H 0.53024 0.72967 0.02406 0.0
H869 H 0.50465 0.73833 0.01125 0.0
H870 H 0.50998 0.71938 0.92632 0.0
H871 H 0.52218 0.68094 0.93372 0.0
H872 H 0.54795 0.7017 -0.00228 0.0
C873 C 0.5181 0.78574 0.9835 0.0
C874 C 0.50598 0.79902 0.96845 0.0
C875 C 0.49887 0.78964 0.94809 0.0
C876 C 0.50376 0.7674 0.94288 0.0
C877 C 0.51574 0.75484 0.95821 0.0
C878 C 0.52274 0.76375 0.97812 0.0
C879 C 0.53454 0.74678 0.99228 0.0
C880 C 0.55884 0.75346 0.99625 0.0
C881 C 0.52221 0.74309 0.01432 0.0
C882 C 0.53292 0.72672 0.97739 0.0
C883 C 0.52221 0.73163 0.95772 0.0
C884 C 0.51843 0.71542 0.94166 0.0
C885 C 0.52545 0.69362 0.94602 0.0
C886 C 0.536 0.6882 0.96636 0.0
C887 C 0.53998 0.70517 0.98201 0.0
H888 H 0.53134 0.76178 0.30202 0.0
H889 H 0.55605 0.82252 0.27296 0.0
H890 H 0.52027 0.84082 0.28048 0.0
H891 H 0.48423 0.76175 0.27587 0.0
H892 H 0.46671 0.75067 0.29741 0.0
H893 H 0.49583 0.74497 0.29774 0.0
H894 H 0.49876 0.76127 0.33739 0.0
H895 H 0.4694 0.76707 0.33715 0.0
H896 H 0.48893 0.78898 0.34281 0.0
H897 H 0.48073 0.84931 0.28153 0.0
H898 H 0.44076 0.8462 0.27325 0.0
H899 H 0.44017 0.7798 0.30012 0.0
C900 C 0.52946 0.77925 0.29836 0.0
C901 C 0.54638 0.79091 0.28726 0.0
C902 C 0.54325 0.81345 0.28169 0.0
C903 C 0.52304 0.824 0.28609 0.0
C904 C 0.5061 0.81175 0.29596 0.0
C905 C 0.50912 0.78982 0.30214 0.0
C906 C 0.48721 0.77894 0.30787 0.0
C907 C 0.48328 0.75788 0.29387 0.0
C908 C 0.48601 0.77377 0.33279 0.0
C909 C 0.47128 0.79739 0.30178 0.0
C910 C 0.48255 0.81655 0.29603 0.0
C911 C 0.47166 0.83473 0.28672 0.0
C912 C 0.44896 0.83289 0.28211 0.0
C913 C 0.43757 0.81301 0.28669 0.0
C914 C 0.44856 0.79544 0.29742 0.0
H915 H 0.57579 0.29588 0.51016 0.0
H916 H 0.53364 0.31198 0.56616 0.0
H917 H 0.51927 0.27367 0.56622 0.0
H918 H 0.53883 0.26812 0.48111 0.0
H919 H 0.55672 0.24679 0.47022 0.0
H920 H 0.56818 0.27307 0.47814 0.0
H921 H 0.59563 0.25378 0.50497 0.0
H922 H 0.58461 0.22722 0.49676 0.0
H923 H 0.58526 0.23488 0.52565 0.0
H924 H 0.50315 0.23706 0.55434 0.0
H925 H 0.48965 0.20406 0.53414 0.0
H926 H 0.54283 0.21196 0.48626 0.0
C927 C 0.56421 0.2911 0.52302 0.0
C928 C 0.55573 0.30693 0.53804 0.0
C929 C 0.54047 0.30011 0.55454 0.0
C930 C 0.53217 0.27836 0.55467 0.0
C931 C 0.53972 0.26357 0.53856 0.0
C932 C 0.55589 0.2695 0.52342 0.0
C933 C 0.5594 0.25158 0.50621 0.0
C934 C 0.55553 0.26043 0.48254 0.0
C935 C 0.5826 0.24125 0.50855 0.0
C936 C 0.54154 0.23537 0.51301 0.0
C937 C 0.53063 0.2423 0.53193 0.0
C938 C 0.51199 0.23115 0.53989 0.0
C939 C 0.50433 0.21251 0.52818 0.0
C940 C 0.51519 0.20532 0.50861 0.0
C941 C 0.53426 0.21679 0.50129 0.0
H942 H 0.97802 0.23394 0.69968 0.0
H943 H 0.95032 0.25385 0.76312 0.0
H944 H 0.98713 0.24925 0.78056 0.0
H945 H 0.01538 0.19262 0.72063 0.0
H946 H 0.03699 0.19921 0.70107 0.0
H947 H 0.00839 0.20376 0.69378 0.0
H948 H 0.01705 0.24499 0.68514 0.0
H949 H 0.04568 0.24054 0.69238 0.0
H950 H 0.02998 0.26198 0.70609 0.0
H951 H 0.02716 0.24137 0.79122 0.0
H952 H 0.06734 0.23318 0.79353 0.0
H953 H 0.06839 0.22001 0.72273 0.0
C954 C 0.97962 0.23731 0.71725 0.0
C955 C 0.96122 0.24418 0.73002 0.0
C956 C 0.96416 0.24859 0.75295 0.0
C957 C 0.98499 0.24596 0.76304 0.0
C958 C 0.00274 0.23908 0.74995 0.0
C959 C 0.00027 0.23498 0.72752 0.0
C960 C 0.02199 0.22822 0.717 0.0
C961 C 0.0206 0.20455 0.70757 0.0
C962 C 0.02909 0.24493 0.6991 0.0
C963 C 0.03712 0.22921 0.73698 0.0
C964 C 0.02574 0.23529 0.7559 0.0
C965 C 0.03627 0.23677 0.77646 0.0
C966 C 0.05908 0.23207 0.77762 0.0
C967 C 0.07109 0.22623 0.75828 0.0
C968 C 0.05981 0.22476 0.73778 0.0
H969 H 0.00421 0.68804 0.9686 0.0
H970 H 0.9651 0.68986 0.02901 0.0
H971 H 0.98139 0.72641 0.03821 0.0
H972 H 0.05371 0.7172 0.99066 0.0
H973 H 0.05804 0.73158 0.96483 0.0
H974 H 0.04593 0.70425 0.96485 0.0
H975 H 0.01185 0.71904 0.94309 0.0
H976 H 0.02403 0.74619 0.94273 0.0
H977 H 0.99659 0.74236 0.95395 0.0
H978 H -0.00036 0.76436 0.0389 0.0
H979 H 0.01365 0.8015 0.02845 0.0
H980 H 0.03964 0.7744 0.96723 0.0
C981 C -0.00075 0.69586 0.98398 0.0
C982 C 0.9834 0.68598 -0.00189 0.0
C983 C 0.97722 0.69707 0.0179 0.0
C984 C 0.98656 0.71773 0.02337 0.0
C985 C 0.00213 0.72698 0.00897 0.0
C986 C 0.00829 0.71638 0.98961 0.0
C987 C 0.02341 0.73064 0.97563 0.0
C988 C 0.04665 0.7203 0.9739 0.0
C989 C 0.01335 0.73481 0.95251 0.0
C990 C 0.02385 0.75148 0.98951 0.0
C991 C 0.01215 0.74887 0.00907 0.0
C992 C 0.00909 0.76647 0.02379 0.0
C993 C 0.01724 0.78746 0.01782 0.0
C994 C 0.02778 0.79064 0.9971 0.0
C995 C 0.03186 0.77226 0.98327 0.0
H996 H 0.26221 0.45918 0.27708 0.0
H997 H 0.20803 0.44843 0.23098 0.0
H998 H 0.19187 0.48454 0.24176 0.0
H999 H 0.2294 0.4928 0.31957 0.0
H1000 H 0.25314 0.51026 0.32451 0.0
H1001 H 0.25697 0.4814 0.31766 0.0
H1002 H 0.2824 0.49255 0.28482 0.0
H1003 H 0.27867 0.52124 0.29155 0.0
H1004 H 0.272 0.51143 0.26409 0.0
H1005 H 0.1861 0.52476 0.25174 0.0
H1006 H 0.19246 0.56483 0.25865 0.0
H1007 H 0.25063 0.54887 0.29748 0.0
C1008 C 0.24658 0.46409 0.26972 0.0
C1009 C 0.23644 0.45106 0.25316 0.0
C1010 C 0.21605 0.45811 0.24383 0.0
C1011 C 0.20669 0.47856 0.24993 0.0
C1012 C 0.2177 0.4915 0.26567 0.0
C1013 C 0.2371 0.48432 0.27563 0.0
C1014 C 0.24758 0.50233 0.28954 0.0
C1015 C 0.24671 0.49633 0.31429 0.0
C1016 C 0.27155 0.50717 0.28202 0.0
C1017 C 0.23215 0.52134 0.28437 0.0
C1018 C 0.2145 0.5147 0.27127 0.0
C1019 C 0.19949 0.53002 0.26247 0.0
C1020 C 0.20315 0.55271 0.26648 0.0
C1021 C 0.2219 0.55961 0.27871 0.0
C1022 C 0.236 0.54376 0.28838 0.0
H1023 H 0.75163 0.03302 0.83521 0.0
H1024 H 0.6937 0.05567 0.79972 0.0
H1025 H 0.68335 0.01696 0.79169 0.0
H1026 H 0.76962 0.00036 0.80055 0.0
H1027 H 0.77935 0.97761 0.81734 0.0
H1028 H 0.77674 0.00454 0.82933 0.0
H1029 H 0.75067 0.9894 0.85979 0.0
H1030 H 0.75362 0.96196 0.84821 0.0
H1031 H 0.72641 0.97368 0.85216 0.0
H1032 H 0.68763 0.97972 0.77548 0.0
H1033 H 0.70404 0.94775 0.75601 0.0
H1034 H 0.75909 0.94808 0.80226 0.0
C1035 C 0.73595 0.02956 0.82716 0.0
C1036 C 0.72338 0.04704 0.81817 0.0
C1037 C 0.70327 0.04238 0.8071 0.0
C1038 C 0.69735 0.02038 0.80239 0.0
C1039 C 0.71145 0.00337 0.80939 0.0
C1040 C 0.72997 0.00768 0.82236 0.0
C1041 C 0.74486 0.98752 0.82402 0.0
C1042 C 0.76902 0.99285 0.81737 0.0
C1043 C 0.74381 0.97755 0.84743 0.0
C1044 C 0.73366 0.97244 0.80741 0.0
C1045 C 0.71388 0.98135 0.7999 0.0
C1046 C 0.70261 0.97217 0.78185 0.0
C1047 C 0.71215 0.95405 0.77076 0.0
C1048 C 0.73295 0.94552 0.77755 0.0
C1049 C 0.74314 0.9542 0.79675 0.0
H1050 H 0.17968 0.50763 0.00691 0.0
H1051 H 0.1747 0.4368 0.01888 0.0
H1052 H 0.21515 0.43313 0.01297 0.0
H1053 H 0.22222 0.50549 0.96453 0.0
H1054 H 0.23575 0.53021 0.97451 0.0
H1055 H 0.20629 0.52681 0.97816 0.0
H1056 H 0.21074 0.53274 0.02054 0.0
H1057 H 0.24015 0.53623 0.01702 0.0
H1058 H 0.22977 0.51548 0.03584 0.0
H1059 H 0.25664 0.4377 0.00639 0.0
H1060 H 0.29549 0.45045 0.00279 0.0
H1061 H 0.27238 0.51832 0.99644 0.0
C1062 C 0.18695 0.49125 0.00805 0.0
C1063 C 0.17394 0.47247 0.01316 0.0
C1064 C 0.1843 0.45143 0.01488 0.0
C1065 C 0.20725 0.44917 0.01147 0.0
C1066 C 0.21954 0.4681 0.00644 0.0
C1067 C 0.20971 0.48874 0.0049 0.0
C1068 C 0.22659 0.50674 0.00064 0.0
C1069 C 0.22246 0.51797 0.97812 0.0
C1070 C 0.22683 0.52379 0.01964 0.0
C1071 C 0.24758 0.49309 0.00029 0.0
C1072 C 0.24323 0.4708 0.00334 0.0
C1073 C 0.26021 0.45511 0.00395 0.0
C1074 C 0.2822 0.4625 0.00181 0.0
C1075 C 0.28696 0.48539 -0.00058 0.0
C1076 C 0.26932 0.50073 -0.00166 0.0
H1077 H 0.76255 0.04919 0.20056 0.0
H1078 H 0.83068 0.06728 0.21537 0.0
H1079 H 0.83814 0.02881 0.22743 0.0
H1080 H 0.75445 0.01526 0.24674 0.0
H1081 H 0.73739 0.99534 0.23239 0.0
H1082 H 0.73816 0.02367 0.22311 0.0
H1083 H 0.7498 0.01072 0.18377 0.0
H1084 H 0.7489 0.98229 0.19288 0.0
H1085 H 0.77384 0.99322 0.18055 0.0
H1086 H 0.8369 0.98846 0.2409 0.0
H1087 H 0.82745 0.95021 0.25261 0.0
H1088 H 0.76027 0.95992 0.22848 0.0
C1089 C 0.77916 0.0451 0.20602 0.0
C1090 C 0.796 0.06134 0.20699 0.0
C1091 C 0.81747 0.05515 0.21439 0.0
C1092 C 0.82188 0.03333 0.22132 0.0
C1093 C 0.80467 0.01789 0.22065 0.0
C1094 C 0.78381 0.02354 0.21298 0.0
C1095 C 0.76783 0.00436 0.21468 0.0
C1096 C 0.74832 0.01 0.23015 0.0
C1097 C 0.75962 0.99723 0.19159 0.0
C1098 C 0.78281 0.98705 0.2248 0.0
C1099 C 0.80402 0.99501 0.22813 0.0
C1100 C 0.82038 0.98201 0.23813 0.0
C1101 C 0.81485 0.96033 0.24479 0.0
C1102 C 0.79314 0.95194 0.24141 0.0
C1103 C 0.77708 0.96562 0.2312 0.0
H1104 H 0.68615 0.99452 0.03279 0.0
H1105 H 0.68718 0.06172 0.00721 0.0
H1106 H 0.72493 0.06676 0.02244 0.0
H1107 H 0.72245 0.00475 0.08337 0.0
H1108 H 0.73544 0.97806 0.07987 0.0
H1109 H 0.70677 0.98187 0.07222 0.0
H1110 H 0.71542 0.96735 0.03267 0.0
H1111 H 0.74395 0.96359 0.04012 0.0
H1112 H 0.73685 0.98064 0.01661 0.0
H1113 H 0.76492 0.06175 0.0337 0.0
H1114 H 0.80284 0.04684 0.03847 0.0
H1115 H 0.7753 0.98285 0.05608 0.0
C1116 C 0.69399 0.01057 0.03098 0.0
C1117 C 0.68372 0.02771 0.0188 0.0
C1118 C 0.69464 0.04839 0.01665 0.0
C1119 C 0.71608 0.05142 0.02531 0.0
C1120 C 0.72616 0.03375 0.03636 0.0
C1121 C 0.71528 0.01379 0.03943 0.0
C1122 C 0.73053 0.99631 0.0489 0.0
C1123 C 0.72337 0.98988 0.07249 0.0
C1124 C 0.73176 0.9758 0.03366 0.0
C1125 C 0.75212 0.00898 0.04919 0.0
C1126 C 0.74923 0.03076 0.04261 0.0
C1127 C 0.76729 0.0449 0.03939 0.0
C1128 C 0.78878 0.0363 0.04217 0.0
C1129 C 0.79195 0.01369 0.04764 0.0
C1130 C 0.77334 0.00024 0.05205 0.0
H1131 H 0.28126 0.44177 0.7322 0.0
H1132 H 0.32922 0.44125 0.78581 0.0
H1133 H 0.3419 0.47869 0.77468 0.0
H1134 H 0.31578 0.47544 0.69209 0.0
H1135 H 0.2914 0.48946 0.68197 0.0
H1136 H 0.28956 0.46111 0.69129 0.0
H1137 H 0.25845 0.4722 0.71885 0.0
H1138 H 0.26019 0.50043 0.70966 0.0
H1139 H 0.26356 0.49402 0.73867 0.0
H1140 H 0.34441 0.51856 0.76174 0.0
H1141 H 0.33611 0.55667 0.74849 0.0
H1142 H 0.28666 0.53037 0.70365 0.0
C1143 C 0.29481 0.4493 0.74129 0.0
C1144 C 0.30421 0.43871 0.75989 0.0
C1145 C 0.32189 0.44906 0.77139 0.0
C1146 C 0.32923 0.47028 0.76514 0.0
C1147 C 0.31902 0.48061 0.7471 0.0
C1148 C 0.30238 0.47025 0.73517 0.0
C1149 C 0.29235 0.48553 0.71804 0.0
C1150 C 0.29759 0.47739 0.69445 0.0
C1151 C 0.26716 0.4882 0.72154 0.0
C1152 C 0.30474 0.50663 0.72324 0.0
C1153 C 0.32055 0.50342 0.73959 0.0
C1154 C 0.33252 0.52113 0.74853 0.0
C1155 C 0.32777 0.54265 0.74095 0.0
C1156 C 0.31107 0.54607 0.72488 0.0
C1157 C 0.29986 0.52788 0.71559 0.0
H1158 H 0.27385 0.45392 0.47354 0.0
H1159 H 0.29845 0.5216 0.47458 0.0
H1160 H 0.25999 0.53553 0.47277 0.0
H1161 H 0.22727 0.46341 0.43619 0.0
H1162 H 0.20938 0.44457 0.45094 0.0
H1163 H 0.23891 0.44004 0.45074 0.0
H1164 H 0.23914 0.4399 0.49375 0.0
H1165 H 0.20966 0.4446 0.49407 0.0
H1166 H 0.22792 0.46332 0.50857 0.0
H1167 H 0.21871 0.54206 0.47193 0.0
H1168 H 0.17781 0.54063 0.47257 0.0
H1169 H 0.18057 0.46862 0.4733 0.0
C1170 C 0.27122 0.47168 0.47304 0.0
C1171 C 0.2892 0.48666 0.47406 0.0
C1172 C 0.28495 0.50978 0.47376 0.0
C1173 C 0.26317 0.51787 0.47271 0.0
C1174 C 0.24583 0.50263 0.47207 0.0
C1175 C 0.24962 0.48003 0.4722 0.0
C1176 C 0.22809 0.46716 0.47238 0.0
C1177 C 0.22578 0.45296 0.4513 0.0
C1178 C 0.2261 0.45291 0.49345 0.0
C1179 C 0.2116 0.48605 0.47252 0.0
C1180 C 0.22212 0.50638 0.47216 0.0
C1181 C 0.21028 0.52622 0.47223 0.0
C1182 C 0.18704 0.52522 0.47265 0.0
C1183 C 0.17591 0.50451 0.47315 0.0
C1184 C 0.18849 0.48473 0.47308 0.0
H1185 H 0.72659 0.72473 0.03694 0.0
H1186 H 0.69206 0.78371 0.05966 0.0
H1187 H 0.67221 0.78577 0.02406 0.0
H1188 H 0.73682 0.74302 0.98447 0.0
H1189 H 0.73289 0.71683 0.97061 0.0
H1190 H 0.74118 0.71738 -0.00078 0.0
H1191 H 0.70731 0.69308 0.00954 0.0
H1192 H 0.69883 0.69253 0.98085 0.0
H1193 H 0.67982 0.70201 0.00188 0.0
H1194 H 0.66114 0.78552 0.9847 0.0
H1195 H 0.66033 0.7833 0.94382 0.0
H1196 H 0.70067 0.72393 0.94608 0.0
C1197 C 0.71437 0.73771 0.03467 0.0
C1198 C 0.71086 0.75403 0.05116 0.0
C1199 C 0.69509 0.77103 0.04731 0.0
C1200 C 0.68357 0.77224 0.02718 0.0
C1201 C 0.68781 0.75623 0.01108 0.0
C1202 C 0.70274 0.7392 0.01459 0.0
C1203 C 0.70616 0.72569 0.99364 0.0
C1204 C 0.73071 0.72576 0.98657 0.0
C1205 C 0.69751 0.70192 0.99667 0.0
C1206 C 0.69178 0.73857 0.97751 0.0
C1207 C 0.68098 0.75585 0.98807 0.0
C1208 C 0.66894 0.7717 0.97633 0.0
C1209 C 0.66854 0.77033 0.95315 0.0
C1210 C 0.67996 0.75315 0.94201 0.0
C1211 C 0.69108 0.73667 0.95435 0.0
H1212 H 0.57653 0.47737 0.29783 0.0
H1213 H 0.58201 0.54818 0.30841 0.0
H1214 H 0.59001 0.5534 0.26873 0.0
H1215 H 0.617 0.47463 0.24614 0.0
H1216 H 0.59926 0.4539 0.23393 0.0
H1217 H 0.60327 0.45463 0.26358 0.0
H1218 H 0.56075 0.45661 0.26892 0.0
H1219 H 0.55658 0.45635 0.23956 0.0
H1220 H 0.54536 0.47874 0.25591 0.0
H1221 H 0.58348 0.55256 0.22865 0.0
H1222 H 0.56654 0.54535 0.19216 0.0
H1223 H 0.56593 0.47494 0.20615 0.0
C1224 C 0.58067 0.49381 0.29194 0.0
C1225 C 0.57857 0.51236 0.30609 0.0
C1226 C 0.58378 0.5337 0.29792 0.0
C1227 C 0.58831 0.5368 0.27532 0.0
C1228 C 0.58809 0.51835 0.2613 0.0
C1229 C 0.58511 0.49709 0.26943 0.0
C1230 C 0.58141 0.48061 0.25079 0.0
C1231 C 0.60144 0.46503 0.24847 0.0
C1232 C 0.55974 0.46735 0.254 0.0
C1233 C 0.57995 0.49624 0.23123 0.0
C1234 C 0.58468 0.51784 0.23749 0.0
C1235 C 0.58062 0.53566 0.22333 0.0
C1236 C 0.57081 0.53144 0.20269 0.0
C1237 C 0.56516 0.50956 0.19637 0.0
C1238 C 0.57073 0.49172 0.21039 0.0
H1239 H 0.69789 0.22719 0.45097 0.0
H1240 H 0.74068 0.285 0.45325 0.0
H1241 H 0.7257 0.29443 0.49021 0.0
H1242 H 0.65046 0.2515 0.48515 0.0
H1243 H 0.64587 0.22504 0.49822 0.0
H1244 H 0.65535 0.22627 0.46988 0.0
H1245 H 0.68899 0.20143 0.48002 0.0
H1246 H 0.67965 0.20011 0.50819 0.0
H1247 H 0.70725 0.20989 0.50216 0.0
H1248 H 0.7115 0.29349 0.52931 0.0
H1249 H 0.70201 0.28077 0.56704 0.0
H1250 H 0.66951 0.22298 0.5393 0.0
C1251 C 0.7037 0.24222 0.4589 0.0
C1252 C 0.72051 0.25531 0.44921 0.0
C1253 C 0.72773 0.27474 0.46028 0.0
C1254 C 0.7192 0.28031 0.48124 0.0
C1255 C 0.70324 0.26648 0.49071 0.0
C1256 C 0.69543 0.24791 0.47975 0.0
C1257 C 0.68089 0.23386 0.49457 0.0
C1258 C 0.65671 0.2342 0.48647 0.0
C1259 C 0.68975 0.20994 0.49635 0.0
C1260 C 0.68328 0.24634 0.51617 0.0
C1261 C 0.69542 0.26563 0.51345 0.0
C1262 C 0.70158 0.27871 0.53153 0.0
C1263 C 0.69607 0.27137 0.55292 0.0
C1264 C 0.68505 0.25087 0.556 0.0
C1265 C 0.67779 0.23879 0.53735 0.0
H1266 H 0.9348 0.51944 0.70166 0.0
H1267 H 0.97234 0.58011 0.70912 0.0
H1268 H 0.97553 0.5734 0.74929 0.0
H1269 H 0.90893 0.519 0.76142 0.0
H1270 H 0.91229 0.48933 0.76257 0.0
H1271 H 0.90583 0.50264 0.73658 0.0
H1272 H 0.94022 0.48402 0.71896 0.0
H1273 H 0.94718 0.47117 0.74485 0.0
H1274 H 0.9672 0.48858 0.73109 0.0
H1275 H 0.98433 0.55548 0.78444 0.0
H1276 H 0.99524 0.52908 0.81361 0.0
H1277 H 0.9525 0.47911 0.78442 0.0
C1278 C 0.94236 0.53195 0.71211 0.0
C1279 C 0.95293 0.5505 0.7026 0.0
C1280 C 0.9638 0.56605 0.71633 0.0
C1281 C 0.96568 0.56234 0.73914 0.0
C1282 C 0.95661 0.54297 0.74789 0.0
C1283 C 0.9447 0.52819 0.73492 0.0
C1284 C 0.94022 0.50682 0.74741 0.0
C1285 C 0.91534 0.50431 0.75229 0.0
C1286 C 0.94926 0.48647 0.73483 0.0
C1287 C 0.95316 0.51112 0.76852 0.0
C1288 C 0.96195 0.5323 0.76869 0.0
C1289 C 0.97696 0.53913 0.78489 0.0
C1290 C 0.98329 0.52393 0.80122 0.0
C1291 C 0.97465 0.50211 0.80125 0.0
C1292 C 0.95899 0.49584 0.785 0.0
H1293 H 0.77356 0.0083 0.51339 0.0
H1294 H 0.79391 0.93932 0.51353 0.0
H1295 H 0.75484 0.92798 0.51994 0.0
H1296 H 0.73097 0.00461 0.55509 0.0
H1297 H 0.71289 0.02372 0.5409 0.0
H1298 H 0.7425 0.02609 0.5378 0.0
H1299 H 0.73837 0.02331 0.49505 0.0
H1300 H 0.70877 0.02103 0.49801 0.0
H1301 H 0.72393 -3e-05 0.48317 0.0
H1302 H 0.71297 0.92477 0.52699 0.0
H1303 H 0.67215 0.92972 0.52952 0.0
H1304 H 0.68044 0.00072 0.52203 0.0
C1305 C 0.76988 0.99079 0.515 0.0
C1306 C 0.78672 0.97467 0.51326 0.0
C1307 C 0.78118 0.95191 0.5149 0.0
C1308 C 0.75911 0.94536 0.51865 0.0
C1309 C 0.74289 0.96179 0.52039 0.0
C1310 C 0.74807 0.98402 0.51832 0.0
C1311 C 0.72768 -0.00151 0.51936 0.0
C1312 C 0.72857 0.01415 0.53949 0.0
C1313 C 0.72451 0.01145 0.4976 0.0
C1314 C 0.71007 0.98097 0.52222 0.0
C1315 C 0.71907 0.95991 0.5232 0.0
C1316 C 0.70578 0.94119 0.52611 0.0
C1317 C 0.68269 0.94414 0.52762 0.0
C1318 C 0.67329 0.96557 0.52574 0.0
C1319 C 0.68722 0.98413 0.52325 0.0
H1320 H 0.25252 0.36459 0.29934 0.0
H1321 H 0.2644 0.32468 0.24076 0.0
H1322 H 0.25416 0.29087 0.26155 0.0
H1323 H 0.2706 0.32255 0.34121 0.0
H1324 H 0.24884 0.33008 0.36027 0.0
H1325 H 0.26044 0.35066 0.34197 0.0
H1326 H 0.22112 0.35937 0.32693 0.0
H1327 H 0.20943 0.33875 0.34502 0.0
H1328 H 0.20452 0.33723 0.31557 0.0
H1329 H 0.23954 0.26259 0.28682 0.0
H1330 H 0.22032 0.24067 0.31517 0.0
H1331 H 0.2163 0.2987 0.35773 0.0
C1332 C 0.25343 0.34859 0.29122 0.0
C1333 C 0.25935 0.34686 0.2687 0.0
C1334 C 0.25992 0.326 0.25812 0.0
C1335 C 0.25427 0.30682 0.26979 0.0
C1336 C 0.24798 0.30899 0.2919 0.0
C1337 C 0.2475 0.32929 0.30258 0.0
C1338 C 0.23799 0.32717 0.32575 0.0
C1339 C 0.25552 0.33295 0.34334 0.0
C1340 C 0.21702 0.34148 0.32846 0.0
C1341 C 0.23251 0.30268 0.32607 0.0
C1342 C 0.23882 0.29252 0.3065 0.0
C1343 C 0.23468 0.27026 0.3023 0.0
C1344 C 0.22361 0.25801 0.31849 0.0
C1345 C 0.2167 0.26807 0.33857 0.0
C1346 C 0.22143 0.29063 0.34252 0.0
H1347 H 0.97745 0.98527 0.61621 0.0
H1348 H 0.00026 0.92296 0.58839 0.0
H1349 H 0.96686 0.9214 0.56459 0.0
H1350 H 0.91842 0.97374 0.61587 0.0
H1351 H 0.91113 0.00152 0.60761 0.0
H1352 H 0.93588 0.99673 0.62366 0.0
H1353 H 0.95909 0.01673 0.59374 0.0
H1354 H 0.93471 0.02136 0.57714 0.0
H1355 H 0.95824 0.00703 0.56549 0.0
H1356 H 0.93146 0.92712 0.54346 0.0
H1357 H 0.89822 0.94103 0.52413 0.0
H1358 H 0.89972 0.00054 0.5648 0.0
C1359 C 0.97528 0.97116 0.60532 0.0
C1360 C 0.99123 0.95411 0.60422 0.0
C1361 C 0.98811 0.93614 0.58945 0.0
C1362 C 0.96919 0.93507 0.57598 0.0
C1363 C 0.95377 0.95222 0.57741 0.0
C1364 C 0.95672 0.97003 0.59154 0.0
C1365 C 0.93858 0.98711 0.58872 0.0
C1366 C 0.92521 0.98993 0.61025 0.0
C1367 C 0.94822 0.00937 0.58079 0.0
C1368 C 0.9249 0.9761 0.57082 0.0
C1369 C 0.9338 0.9559 0.56468 0.0
C1370 C 0.92428 0.94288 0.54816 0.0
C1371 C 0.90535 0.95092 0.53733 0.0
C1372 C 0.89628 0.97187 0.54297 0.0
C1373 C 0.90611 0.98441 0.56015 0.0
H1374 H 0.31518 0.71249 0.83721 0.0
H1375 H 0.32886 0.76663 0.79199 0.0
H1376 H 0.33518 0.73967 0.7617 0.0
H1377 H 0.35326 0.67039 0.81206 0.0
H1378 H 0.33341 0.6485 0.81658 0.0
H1379 H 0.33477 0.6716 0.83552 0.0
H1380 H 0.29292 0.67938 0.82923 0.0
H1381 H 0.29142 0.65633 0.81044 0.0
H1382 H 0.28284 0.68349 0.80137 0.0
H1383 H 0.33528 0.70716 0.7355 0.0
H1384 H 0.3251 0.67287 0.71522 0.0
H1385 H 0.30957 0.64081 0.77758 0.0
C1386 C 0.32013 0.71865 0.8211 0.0
C1387 C 0.32174 0.74154 0.81691 0.0
C1388 C 0.32766 0.74906 0.79549 0.0
C1389 C 0.33146 0.73388 0.77826 0.0
C1390 C 0.32924 0.71132 0.78282 0.0
C1391 C 0.32361 0.70378 0.80374 0.0
C1392 C 0.31895 0.67919 0.80374 0.0
C1393 C 0.33613 0.66668 0.81781 0.0
C1394 C 0.29512 0.67433 0.81164 0.0
C1395 C 0.32182 0.6742 0.77937 0.0
C1396 C 0.32846 0.69274 0.76762 0.0
C1397 C 0.33047 0.69244 0.74456 0.0
C1398 C 0.32476 0.67293 0.73319 0.0
C1399 C 0.31667 0.65435 0.74496 0.0
C1400 C 0.31592 0.65481 0.7683 0.0
H1401 H 0.58399 0.04279 0.03842 0.0
H1402 H 0.5555 0.99104 0.99735 0.0
H1403 H 0.51999 0.99445 0.01763 0.0
H1404 H 0.5589 0.02393 0.08868 0.0
H1405 H 0.55488 0.05138 0.09983 0.0
H1406 H 0.57734 0.04613 0.08088 0.0
H1407 H 0.56291 0.07743 0.05517 0.0
H1408 H 0.54031 0.08267 0.074 0.0
H1409 H 0.53471 0.07652 0.04528 0.0
H1410 H 0.48768 0.00397 0.04176 0.0
H1411 H 0.46194 0.01531 0.07149 0.0
H1412 H 0.51262 0.05814 0.09932 0.0
C1413 C 0.57015 0.0324 0.0336 0.0
C1414 C 0.5722 0.01685 0.01626 0.0
C1415 C 0.55406 0.00308 0.01063 0.0
C1416 C 0.53387 0.00499 0.02193 0.0
C1417 C 0.53232 0.0205 0.03898 0.0
C1418 C 0.55006 0.03369 0.04508 0.0
C1419 C 0.54458 0.04772 0.06517 0.0
C1420 C 0.55983 0.04193 0.0848 0.0
C1421 C 0.54569 0.07256 0.05956 0.0
C1422 C 0.52097 0.04038 0.06939 0.0
C1423 C 0.5141 0.025 0.05381 0.0
C1424 C 0.49285 0.016 0.05405 0.0
C1425 C 0.47833 0.02265 0.07088 0.0
C1426 C 0.48539 0.03768 0.0875 0.0
C1427 C 0.50691 0.0467 0.0867 0.0
H1428 H 0.21828 0.70635 0.12937 0.0
H1429 H 0.17127 0.75043 0.16122 0.0
H1430 H 0.17031 0.7258 0.19393 0.0
H1431 H 0.1985 0.65297 0.15401 0.0
H1432 H 0.22646 0.64295 0.15743 0.0
H1433 H 0.21982 0.66133 0.1348 0.0
H1434 H 0.25066 0.68831 0.14779 0.0
H1435 H 0.25727 0.67023 0.17054 0.0
H1436 H 0.25015 0.69879 0.17579 0.0
H1437 H 0.17759 0.69907 0.22446 0.0
H1438 H 0.19391 0.67326 0.25159 0.0
H1439 H 0.23845 0.64815 0.20084 0.0
C1440 C 0.20725 0.71039 0.14292 0.0
C1441 C 0.19461 0.73004 0.14276 0.0
C1442 C 0.1809 0.73526 0.16106 0.0
C1443 C 0.1802 0.72136 0.17963 0.0
C1444 C 0.19349 0.70247 0.17966 0.0
C1445 C 0.20682 0.69699 0.16181 0.0
C1446 C 0.2218 0.67759 0.16721 0.0
C1447 C 0.21631 0.65752 0.15249 0.0
C1448 C 0.24642 0.68413 0.16522 0.0
C1449 C 0.21529 0.67346 0.19108 0.0
C1450 C 0.19858 0.68764 0.19776 0.0
C1451 C 0.19049 0.68768 0.21937 0.0
C1452 C 0.19991 0.67296 0.23467 0.0
C1453 C 0.21749 0.65869 0.22835 0.0
C1454 C 0.22503 0.65882 0.20618 0.0
H1455 H 0.59159 0.93367 0.45803 0.0
H1456 H 0.55625 0.91682 0.51813 0.0
H1457 H 0.52581 0.90118 0.49579 0.0
H1458 H 0.5521 0.95637 0.4328 0.0
H1459 H 0.55688 0.94713 0.40477 0.0
H1460 H 0.57944 0.94796 0.42399 0.0
H1461 H 0.58751 0.90631 0.41745 0.0
H1462 H 0.56513 0.90539 0.39759 0.0
H1463 H 0.56556 0.88626 0.42055 0.0
H1464 H 0.49517 0.9011 0.46912 0.0
H1465 H 0.46866 0.91252 0.44017 0.0
H1466 H 0.52323 0.92847 0.39635 0.0
C1467 C 0.57799 0.92544 0.46638 0.0
C1468 C 0.57614 0.92641 0.48967 0.0
C1469 C 0.55809 0.91594 0.50028 0.0
C1470 C 0.54068 0.90706 0.48766 0.0
C1471 C 0.54193 0.90837 0.46456 0.0
C1472 C 0.56054 0.91665 0.45396 0.0
C1473 C 0.55626 0.9203 0.42946 0.0
C1474 C 0.56145 0.94436 0.42239 0.0
C1475 C 0.56939 0.90356 0.41544 0.0
C1476 C 0.53169 0.91544 0.42849 0.0
C1477 C 0.52386 0.90786 0.4487 0.0
C1478 C 0.5012 0.90612 0.45299 0.0
C1479 C 0.48625 0.91286 0.43653 0.0
C1480 C 0.49403 0.92121 0.41606 0.0
C1481 C 0.51695 0.92161 0.41169 0.0
H1482 H 0.27045 0.2856 0.64224 0.0
H1483 H 0.32651 0.24376 0.65901 0.0
H1484 H 0.33329 0.26655 0.69265 0.0
H1485 H 0.29322 0.33746 0.66066 0.0
H1486 H 0.26697 0.34717 0.67115 0.0
H1487 H 0.2677 0.32815 0.64815 0.0
H1488 H 0.24224 0.30095 0.66973 0.0
H1489 H 0.24144 0.31988 0.69278 0.0
H1490 H 0.25044 0.2917 0.69695 0.0
H1491 H 0.33261 0.29419 0.72558 0.0
H1492 H 0.32397 0.32278 0.75404 0.0
H1493 H 0.26814 0.34464 0.71411 0.0
C1494 C 0.2843 0.28127 0.65283 0.0
C1495 C 0.29801 0.26301 0.64801 0.0
C1496 C 0.31586 0.25782 0.6624 0.0
C1497 C 0.31982 0.27064 0.68151 0.0
C1498 C 0.30574 0.28849 0.68588 0.0
C1499 C 0.28833 0.29368 0.67186 0.0
C1500 C 0.27492 0.31295 0.68036 0.0
C1501 C 0.27577 0.33259 0.66412 0.0
C1502 C 0.25085 0.30594 0.68525 0.0
C1503 C 0.28744 0.31792 0.70141 0.0
C1504 C 0.30522 0.30382 0.70448 0.0
C1505 C 0.31875 0.30536 0.72325 0.0
C1506 C 0.31377 0.32164 0.73929 0.0
C1507 C 0.29535 0.33594 0.73639 0.0
C1508 C 0.28231 0.334 0.71704 0.0
H1509 H 0.88593 0.03261 0.98723 0.0
H1510 H 0.85272 0.97798 0.9541 0.0
H1511 H 0.86796 0.99071 0.9182 0.0
H1512 H 0.88163 0.07386 0.94157 0.0
H1513 H 0.90894 0.0845 0.94747 0.0
H1514 H 0.89211 0.0735 0.96958 0.0
H1515 H 0.92366 0.0462 0.98011 0.0
H1516 H 0.94053 0.05714 0.95818 0.0
H1517 H 0.93469 0.02785 0.95922 0.0
H1518 H 0.89046 0.00717 0.88663 0.0
H1519 H 0.92033 0.0234 0.86364 0.0
H1520 H 0.93924 0.06591 0.91845 0.0
C1521 C 0.88131 0.02358 0.9724 0.0
C1522 C 0.86799 0.00438 0.97349 0.0
C1523 C 0.86282 0.99281 0.95368 0.0
C1524 C 0.87128 1e-05 0.93319 0.0
C1525 C 0.88477 0.01881 0.93283 0.0
C1526 C 0.88973 0.03038 0.952 0.0
C1527 C 0.90673 0.04829 0.94791 0.0
C1528 C 0.89674 0.07141 0.95186 0.0
C1529 C 0.92763 0.04463 0.96219 0.0
C1530 C 0.91133 0.04444 0.92362 0.0
C1531 C 0.89813 0.0278 0.91496 0.0
C1532 C 0.90066 0.02041 0.89316 0.0
C1533 C 0.91764 0.02974 0.88021 0.0
C1534 C 0.93208 0.04581 0.88938 0.0
C1535 C 0.92832 0.05371 0.91103 0.0
H1536 H 0.31246 0.19793 0.2821 0.0
H1537 H 0.37082 0.22935 0.31006 0.0
H1538 H 0.3511 0.23412 0.34577 0.0
H1539 H 0.27319 0.23219 0.30632 0.0
H1540 H 0.25316 0.2105 0.31093 0.0
H1541 H 0.27288 0.20796 0.28878 0.0
H1542 H 0.28571 0.17014 0.30498 0.0
H1543 H 0.26625 0.17295 0.3275 0.0
H1544 H 0.29528 0.16873 0.33328 0.0
H1545 H 0.32315 0.24046 0.37597 0.0
H1546 H 0.28931 0.24782 0.39799 0.0
H1547 H 0.25067 0.20899 0.35149 0.0
C1548 C 0.32115 0.20562 0.29582 0.0
C1549 C 0.34305 0.2134 0.29342 0.0
C1550 C 0.35399 0.22329 0.31167 0.0
C1551 C 0.34299 0.22593 0.332 0.0
C1552 C 0.32131 0.21809 0.33383 0.0
C1553 C 0.3106 0.20797 0.31625 0.0
C1554 C 0.28689 0.20225 0.32192 0.0
C1555 C 0.27059 0.21393 0.30606 0.0
C1556 C 0.28333 0.17701 0.32192 0.0
C1557 C 0.28557 0.21161 0.34512 0.0
C1558 C 0.30563 0.22055 0.35181 0.0
C1559 C 0.30756 0.23291 0.37127 0.0
C1560 C 0.28832 0.23696 0.38371 0.0
C1561 C 0.26763 0.22841 0.3767 0.0
C1562 C 0.26648 0.21485 0.35772 0.0
H1563 H 0.04853 0.04517 0.59649 0.0
H1564 H 0.05715 0.98002 0.56761 0.0
H1565 H 0.06617 0.99724 0.53138 0.0
H1566 H 0.02124 0.06868 0.55432 0.0
H1567 H 0.03384 0.09573 0.55591 0.0
H1568 H 0.03251 0.07859 0.58021 0.0
H1569 H 0.07521 0.0812 0.58496 0.0
H1570 H 0.07664 0.09872 0.56079 0.0
H1571 H 0.09306 0.07378 0.56216 0.0
H1572 H 0.06566 0.02149 0.49717 0.0
H1573 H 0.06044 0.05085 0.46889 0.0
H1574 H 0.05531 0.09994 0.52122 0.0
C1575 C 0.05323 0.03463 0.58271 0.0
C1576 C 0.0524 0.01141 0.58464 0.0
C1577 C 0.05815 -0.00209 0.56636 0.0
C1578 C 0.06318 0.00755 0.54578 0.0
C1579 C 0.06295 0.03062 0.54412 0.0
C1580 C 0.05874 0.04399 0.56231 0.0
C1581 C 0.05764 0.06817 0.55597 0.0
C1582 C 0.03496 0.07836 0.56195 0.0
C1583 C 0.07678 0.08123 0.5666 0.0
C1584 C 0.06058 0.06629 0.5312 0.0
C1585 C 0.06371 0.04457 0.52458 0.0
C1586 C 0.06395 0.03864 0.5022 0.0
C1587 C 0.06084 0.05535 0.48628 0.0
C1588 C 0.05766 0.07764 0.49291 0.0
C1589 C 0.05806 0.08311 0.51561 0.0
H1590 H 0.16712 0.78335 0.75993 0.0
H1591 H 0.12522 0.73365 0.79078 0.0
H1592 H 0.15303 0.7287 0.82041 0.0
H1593 H 0.21734 0.7572 0.76873 0.0
H1594 H 0.23299 0.78196 0.77473 0.0
H1595 H 0.20878 0.7835 0.75737 0.0
H1596 H 0.19169 0.81314 0.78339 0.0
H1597 H 0.21597 0.81182 0.80081 0.0
H1598 H 0.18887 0.80728 0.81257 0.0
H1599 H 0.18724 0.72538 0.8433 0.0
H1600 H 0.2247 0.72593 0.85987 0.0
H1601 H 0.24364 0.77934 0.81563 0.0
C1602 C 0.16361 0.77174 0.77317 0.0
C1603 C 0.1441 0.75881 0.77307 0.0
C1604 C 0.14008 0.74373 0.79057 0.0
C1605 C 0.15575 0.74083 0.80748 0.0
C1606 C 0.17509 0.75344 0.8068 0.0
C1607 C 0.17893 0.76886 0.79031 0.0
C1608 C 0.20155 0.77949 0.7928 0.0
C1609 C 0.21601 0.77527 0.77219 0.0
C1610 C 0.19938 0.80442 0.79769 0.0
C1611 C 0.21017 0.76702 0.81279 0.0
C1612 C 0.1946 0.75212 0.82063 0.0
C1613 C 0.1994 0.73731 0.83766 0.0
C1614 C 0.22071 0.73765 0.84685 0.0
C1615 C 0.23684 0.75284 0.83912 0.0
C1616 C 0.23139 0.76793 0.82213 0.0
H1617 H 0.49922 0.90176 0.02529 0.0
H1618 H 0.42925 0.90238 0.00885 0.0
H1619 H 0.42154 0.92521 0.04209 0.0
H1620 H 0.49469 0.90178 0.0855 0.0
H1621 H 0.51723 0.92105 0.08929 0.0
H1622 H 0.51703 0.90275 0.06565 0.0
H1623 H 0.52036 0.93653 0.03918 0.0
H1624 H 0.52083 0.95485 0.06273 0.0
H1625 H 0.50045 0.95873 0.04122 0.0
H1626 H 0.4216 0.94853 0.07614 0.0
H1627 H 0.42976 0.97542 0.10577 0.0
H1628 H 0.50016 0.96163 0.09867 0.0
C1629 C 0.48229 0.90653 0.02898 0.0
C1630 C 0.46471 0.90026 0.01496 0.0
C1631 C 0.44282 0.90712 0.01965 0.0
C1632 C 0.43829 0.91988 0.0385 0.0
C1633 C 0.45597 0.92587 0.05212 0.0
C1634 C 0.47759 0.91982 0.04737 0.0
C1635 C 0.49377 0.93053 0.06327 0.0
C1636 C 0.50642 0.91297 0.07673 0.0
C1637 C 0.50979 0.94608 0.05086 0.0
C1638 C 0.47785 0.94344 0.07774 0.0
C1639 C 0.45612 0.94024 0.07124 0.0
C1640 C 0.43853 0.95112 0.08149 0.0
C1641 C 0.44335 0.96629 0.09839 0.0
C1642 C 0.46561 0.97062 0.10461 0.0
C1643 C 0.48296 0.95856 0.09448 0.0
H1644 H 0.30918 0.81402 0.22469 0.0
H1645 H 0.37193 0.78376 0.20671 0.0
H1646 H 0.35425 0.76653 0.17399 0.0
H1647 H 0.27439 0.76989 0.20959 0.0
H1648 H 0.25266 0.78715 0.19848 0.0
H1649 H 0.27047 0.79764 0.22002 0.0
H1650 H 0.28109 0.83117 0.19529 0.0
H1651 H 0.26315 0.82089 0.17372 0.0
H1652 H 0.29195 0.82634 0.16786 0.0
H1653 H 0.3285 0.7495 0.14557 0.0
H1654 H 0.29773 0.73807 0.12073 0.0
H1655 H 0.25316 0.78231 0.15575 0.0
C1656 C 0.31924 0.80397 0.21372 0.0
C1657 C 0.34181 0.80002 0.21825 0.0
C1658 C 0.35456 0.78694 0.20351 0.0
C1659 C 0.34467 0.77704 0.18493 0.0
C1660 C 0.3222 0.7809 0.18118 0.0
C1661 C 0.30978 0.79443 0.1949 0.0
C1662 C 0.28602 0.7961 0.18718 0.0
C1663 C 0.26995 0.78716 0.20487 0.0
C1664 C 0.28022 0.82005 0.18062 0.0
C1665 C 0.2869 0.78108 0.16717 0.0
C1666 C 0.30781 0.77223 0.16408 0.0
C1667 C 0.31216 0.75666 0.14753 0.0
C1668 C 0.29465 0.75019 0.13362 0.0
C1669 C 0.27336 0.75965 0.13622 0.0
C1670 C 0.26949 0.77527 0.15316 0.0
H1671 H 0.46408 0.00948 0.42088 0.0
H1672 H 0.52611 0.0198 0.38593 0.0
H1673 H 0.52554 0.0594 0.39679 0.0
H1674 H 0.43821 0.05864 0.40629 0.0
H1675 H 0.42525 0.06334 0.43281 0.0
H1676 H 0.43149 0.03552 0.42401 0.0
H1677 H 0.45474 0.02879 0.45967 0.0
H1678 H 0.44798 0.05638 0.46891 0.0
H1679 H 0.47658 0.04795 0.4668 0.0
H1680 H 0.51603 0.09884 0.40898 0.0
H1681 H 0.50142 0.13316 0.42626 0.0
H1682 H 0.44591 0.09581 0.45275 0.0
C1683 C 0.47774 0.01998 0.41578 0.0
C1684 C 0.49506 0.01165 0.40249 0.0
C1685 C 0.51272 0.02585 0.39626 0.0
C1686 C 0.51245 0.04838 0.40219 0.0
C1687 C 0.49456 0.05625 0.41455 0.0
C1688 C 0.47783 0.04231 0.42169 0.0
C1689 C 0.46048 0.05467 0.43482 0.0
C1690 C 0.43751 0.05293 0.42381 0.0
C1691 C 0.45992 0.04646 0.45898 0.0
C1692 C 0.4696 0.0779 0.43332 0.0
C1693 C 0.48929 0.07859 0.42166 0.0
C1694 C 0.50071 0.09843 0.41832 0.0
C1695 C 0.49219 0.11786 0.42799 0.0
C1696 C 0.47261 0.11714 0.44095 0.0
C1697 C 0.46091 0.09699 0.44294 0.0
H1698 H 0.15859 0.17705 0.72145 0.0
H1699 H 0.2041 0.18487 0.77649 0.0
H1700 H 0.23575 0.18349 0.7504 0.0
H1701 H 0.19715 0.14171 0.68487 0.0
H1702 H 0.18688 0.15551 0.66042 0.0
H1703 H 0.16871 0.15086 0.68371 0.0
H1704 H 0.15976 0.19288 0.68517 0.0
H1705 H 0.17775 0.19761 0.66204 0.0
H1706 H 0.1822 0.2125 0.6876 0.0
H1707 H 0.26075 0.19094 0.71837 0.0
H1708 H 0.27637 0.20655 0.68381 0.0
H1709 H 0.21503 0.19261 0.64949 0.0
C1710 C 0.17528 0.17763 0.72806 0.0
C1711 C 0.17901 0.18103 0.75087 0.0
C1712 C 0.20097 0.18202 0.75903 0.0
C1713 C 0.21902 0.18117 0.74432 0.0
C1714 C 0.21475 0.1788 0.72167 0.0
C1715 C 0.19335 0.17665 0.71364 0.0
C1716 C 0.19272 0.17763 0.68859 0.0
C1717 C 0.18597 0.15508 0.67883 0.0
C1718 C 0.17722 0.19627 0.6804 0.0
C1719 C 0.2168 0.18266 0.68377 0.0
C1720 C 0.22943 0.18258 0.70298 0.0
C1721 C 0.2513 0.19017 0.70312 0.0
C1722 C 0.26011 0.19892 0.68344 0.0
C1723 C 0.24705 0.1999 0.66403 0.0
C1724 C 0.22554 0.19094 0.66397 0.0
H1725 H 0.0389 0.92885 0.96294 0.0
H1726 H 0.02151 0.86996 0.92529 0.0
H1727 H 0.00372 0.89339 0.89687 0.0
H1728 H 0.98967 0.95848 0.95313 0.0
H1729 H 0.00285 0.98517 0.95051 0.0
H1730 H 0.01539 0.96397 0.96737 0.0
H1731 H 0.05182 0.96698 0.94475 0.0
H1732 H 0.03953 0.98843 0.92798 0.0
H1733 H 0.05094 0.96403 0.91501 0.0
H1734 H 0.9851 0.9228 0.87442 0.0
H1735 H 0.9703 0.9568 0.85706 0.0
H1736 H 0.00131 0.99654 0.90851 0.0
C1737 C 0.03165 0.9209 0.94855 0.0
C1738 C 0.03146 0.89762 0.94633 0.0
C1739 C 0.02178 0.8878 0.92732 0.0
C1740 C 0.01161 0.90094 0.91112 0.0
C1741 C 0.01155 0.92383 0.91411 0.0
C1742 C 0.02162 0.93377 0.93215 0.0
C1743 C 0.01899 0.9587 0.93156 0.0
C1744 C 0.00595 0.96706 0.95184 0.0
C1745 C 0.04167 0.97021 0.9297 0.0
C1746 C 0.00567 0.96119 0.91046 0.0
C1747 C 0.0014 0.94086 0.90076 0.0
C1748 C 0.98855 0.93885 0.88168 0.0
C1749 C 0.98011 0.9582 0.87205 0.0
C1750 C 0.9848 0.97922 0.88142 0.0
C1751 C -0.0023 0.98068 0.90088 0.0
H1752 H 0.31238 0.37425 0.23148 0.0
H1753 H 0.2916 0.35217 0.16638 0.0
H1754 H 0.31994 0.32273 0.16727 0.0
H1755 H 0.37296 0.35557 0.22908 0.0
H1756 H 0.3717 0.3461 0.2574 0.0
H1757 H 0.35551 0.36972 0.24881 0.0
H1758 H 0.32012 0.35046 0.2635 0.0
H1759 H 0.33588 0.32658 0.27165 0.0
H1760 H 0.31268 0.32346 0.25304 0.0
H1761 H 0.34352 0.29151 0.1781 0.0
H1762 H 0.36087 0.2604 0.19787 0.0
H1763 H 0.36437 0.30032 0.25774 0.0
C1764 C 0.31446 0.36379 0.2171 0.0
C1765 C 0.30002 0.3655 0.19879 0.0
C1766 C 0.30279 0.35122 0.18042 0.0
C1767 C 0.31885 0.33448 0.1808 0.0
C1768 C 0.33178 0.33212 0.1998 0.0
C1769 C 0.32987 0.34645 0.21764 0.0
C1770 C 0.34243 0.33777 0.23764 0.0
C1771 C 0.36181 0.35321 0.24357 0.0
C1772 C 0.32684 0.33436 0.25761 0.0
C1773 C 0.35072 0.31585 0.22859 0.0
C1774 C 0.34488 0.31325 0.20656 0.0
C1775 C 0.34865 0.29353 0.19518 0.0
C1776 C 0.35835 0.27587 0.20664 0.0
C1777 C 0.364 0.27792 0.22937 0.0
C1778 C 0.36057 0.29837 0.24029 0.0
H1779 H 0.77715 0.17754 0.79573 0.0
H1780 H 0.80059 0.11031 0.78498 0.0
H1781 H 0.83077 0.12451 0.76144 0.0
H1782 H 0.78844 0.19807 0.74143 0.0
H1783 H 0.79763 0.22494 0.75078 0.0
H1784 H 0.77775 0.20955 0.76689 0.0
H1785 H 0.80339 0.21208 0.80134 0.0
H1786 H 0.82328 0.22762 0.78539 0.0
H1787 H 0.83166 0.20255 0.79936 0.0
H1788 H 0.85704 0.14576 0.7373 0.0
H1789 H 0.88018 0.17323 0.71743 0.0
H1790 H 0.84111 0.22654 0.74591 0.0
C1791 C 0.78874 0.16584 0.78856 0.0
C1792 C 0.78644 0.14283 0.79204 0.0
C1793 C 0.80196 0.12802 0.78245 0.0
C1794 C 0.81914 0.1359 0.76901 0.0
C1795 C 0.82074 0.15865 0.7656 0.0
C1796 C 0.80618 0.17344 0.77534 0.0
C1797 C 0.81184 0.19711 0.76932 0.0
C1798 C 0.79278 0.20805 0.75633 0.0
C1799 C 0.81791 0.21063 0.79009 0.0
C1800 C 0.83184 0.19327 0.75469 0.0
C1801 C 0.83653 0.17096 0.75249 0.0
C1802 C 0.85372 0.16331 0.73907 0.0
C1803 C 0.86668 0.17896 0.7278 0.0
C1804 C 0.86252 0.2019 0.7304 0.0
C1805 C 0.84485 0.20908 0.74395 0.0
H1806 H 0.02423 0.59394 0.01223 0.0
H1807 H 0.96216 0.5685 0.0378 0.0
H1808 H 0.98224 0.53657 0.05435 0.0
H1809 H 0.04422 0.54503 0.99427 0.0
H1810 H 0.07293 0.55015 0.00085 0.0
H1811 H 0.05467 0.57302 0.99533 0.0
H1812 H 0.06412 0.59058 0.03345 0.0
H1813 H 0.0829 0.56799 0.03896 0.0
H1814 H 0.06106 0.57433 0.05835 0.0
H1815 H 0.00865 0.50421 0.06188 0.0
H1816 H 0.039 0.47641 0.06235 0.0
H1817 H 0.08297 0.52428 0.03164 0.0
C1818 C 0.01499 0.58208 0.02206 0.0
C1819 C 0.99178 0.58364 0.02399 0.0
C1820 C 0.98006 0.56771 0.03657 0.0
C1821 C 0.99132 0.5495 0.04586 0.0
C1822 C 0.01422 0.54785 0.04262 0.0
C1823 C 0.02592 0.56403 0.03136 0.0
C1824 C 0.04987 0.55763 0.02801 0.0
C1825 C 0.05574 0.55638 0.00315 0.0
C1826 C 0.0654 0.57358 0.04045 0.0
C1827 C 0.0498 0.53496 0.03849 0.0
C1828 C 0.02921 0.52952 0.04698 0.0
C1829 C 0.02495 0.50853 0.05574 0.0
C1830 C 0.04221 0.49283 0.05583 0.0
C1831 C 0.06332 0.49828 0.04714 0.0
C1832 C 0.06709 0.51968 0.03863 0.0
H1833 H 0.65448 0.81062 0.25009 0.0
H1834 H 0.66034 0.7677 0.30759 0.0
H1835 H 0.69631 0.78522 0.31684 0.0
H1836 H 0.71225 0.81052 0.23523 0.0
H1837 H 0.71202 0.83914 0.22665 0.0
H1838 H 0.68716 0.82271 0.2245 0.0
H1839 H 0.66595 0.85174 0.24827 0.0
H1840 H 0.69078 0.86817 0.25049 0.0
H1841 H 0.67658 0.85921 0.27521 0.0
H1842 H 0.73227 0.80697 0.31895 0.0
H1843 H 0.76366 0.83325 0.31553 0.0
H1844 H 0.73257 0.86266 0.25772 0.0
C1845 C 0.66327 0.80487 0.26466 0.0
C1846 C 0.65462 0.78782 0.27814 0.0
C1847 C 0.66661 0.78086 0.29711 0.0
C1848 C 0.68709 0.7906 0.30241 0.0
C1849 C 0.69518 0.8073 0.28863 0.0
C1850 C 0.68352 0.81447 0.27026 0.0
C1851 C 0.69543 0.83302 0.25839 0.0
C1852 C 0.70211 0.82592 0.2348 0.0
C1853 C 0.68134 0.85429 0.25809 0.0
C1854 C 0.71549 0.83549 0.27316 0.0
C1855 C 0.7153 0.82027 0.2903 0.0
C1856 C 0.7325 0.81906 0.3057 0.0
C1857 C 0.75023 0.83398 0.30361 0.0
C1858 C 0.75031 0.85006 0.28652 0.0
C1859 C 0.73276 0.85072 0.27112 0.0
H1860 H 0.92765 0.96773 0.04685 0.0
H1861 H 0.86538 0.93701 0.02796 0.0
H1862 H 0.88582 0.9046 0.0134 0.0
H1863 H 0.95831 0.95166 0.00075 0.0
H1864 H 0.98368 0.94648 0.0157 0.0
H1865 H 0.96403 0.96632 0.02619 0.0
H1866 H 0.9623 0.94513 0.06359 0.0
H1867 H 0.98206 0.92525 0.05322 0.0
H1868 H 0.95564 0.91599 0.06368 0.0
H1869 H 0.91345 0.87803 0.99658 0.0
H1870 H 0.94607 0.85767 0.98206 0.0
H1871 H 0.98973 0.9047 0.01455 0.0
C1872 C 0.9183 0.95402 0.03997 0.0
C1873 C 0.895 0.95485 0.0384 0.0
C1874 C 0.88327 0.93665 0.02933 0.0
C1875 C 0.89473 0.91819 0.02101 0.0
C1876 C 0.9178 0.9181 0.02237 0.0
C1877 C 0.92942 0.93538 0.03197 0.0
C1878 C 0.95416 0.93161 0.03086 0.0
C1879 C 0.96571 0.95011 0.01758 0.0
C1880 C 0.96412 0.92936 0.05423 0.0
C1881 C 0.9547 0.9098 0.01856 0.0
C1882 C 0.9336 0.90227 0.01371 0.0
C1883 C 0.93005 0.88347 0.00071 0.0
C1884 C 0.9486 0.87209 0.99247 0.0
C1885 C 0.97029 0.87947 -0.00244 0.0
C1886 C 0.9733 0.89839 0.01095 0.0
H1887 H 0.23905 0.62628 0.71832 0.0
H1888 H 0.26069 0.6614 0.65939 0.0
H1889 H 0.22771 0.68564 0.66175 0.0
H1890 H 0.18006 0.62843 0.70777 0.0
H1891 H 0.17303 0.63306 0.73645 0.0
H1892 H 0.1977 0.61775 0.72942 0.0
H1893 H 0.22145 0.64498 0.75277 0.0
H1894 H 0.19685 0.66031 0.75993 0.0
H1895 H 0.21995 0.67429 0.74712 0.0
H1896 H 0.19273 0.70619 0.67081 0.0
H1897 H 0.1594 0.72329 0.68717 0.0
H1898 H 0.16144 0.67541 0.74097 0.0
C1899 C 0.23674 0.63894 0.7058 0.0
C1900 C 0.25225 0.64192 0.68857 0.0
C1901 C 0.24891 0.65887 0.6727 0.0
C1902 C 0.23022 0.67264 0.67386 0.0
C1903 C 0.21523 0.6693 0.6911 0.0
C1904 C 0.21837 0.653 0.70689 0.0
C1905 C 0.2004 0.65362 0.72438 0.0
C1906 C 0.18701 0.63192 0.7245 0.0
C1907 C 0.21025 0.6586 0.74741 0.0
C1908 C 0.18665 0.67282 0.71594 0.0
C1909 C 0.19537 0.68151 0.69664 0.0
C1910 C 0.1857 0.69951 0.6859 0.0
C1911 C 0.16673 0.70907 0.69531 0.0
C1912 C 0.15775 0.7007 0.71536 0.0
C1913 C 0.16782 0.68219 0.72562 0.0
H1914 H 0.02741 0.39337 0.48968 0.0
H1915 H 0.96896 0.42941 0.51068 0.0
H1916 H 0.98437 0.46402 0.49455 0.0
H1917 H 0.06651 0.43571 0.50114 0.0
H1918 H 0.08362 0.42955 0.47742 0.0
H1919 H 0.06727 0.40799 0.48994 0.0
H1920 H 0.04879 0.40015 0.4518 0.0
H1921 H 0.06487 0.422 0.4393 0.0
H1922 H 0.03504 0.42238 0.43729 0.0
H1923 H 0.0073 0.49479 0.47728 0.0
H1924 H 0.03689 0.51953 0.46332 0.0
H1925 H 0.07923 0.46241 0.45235 0.0
C1926 C 0.01793 0.4086 0.49075 0.0
C1927 C 0.99717 0.40907 0.50127 0.0
C1928 C 0.98497 0.42903 0.50253 0.0
C1929 C 0.99352 0.44863 0.49336 0.0
C1930 C 0.01406 0.44766 0.48278 0.0
C1931 C 0.0261 0.42814 0.48149 0.0
C1932 C 0.04806 0.43159 0.47001 0.0
C1933 C 0.0675 0.42588 0.48556 0.0
C1934 C 0.04925 0.41823 0.44831 0.0
C1935 C 0.0468 0.45616 0.46549 0.0
C1936 C 0.02702 0.46518 0.47274 0.0
C1937 C 0.02278 0.48788 0.47141 0.0
C1938 C 0.03959 0.50178 0.46328 0.0
C1939 C 0.06026 0.49281 0.45666 0.0
C1940 C 0.06351 0.46968 0.45711 0.0
H1941 H 0.47458 0.60148 0.96679 0.0
H1942 H 0.5003 0.58688 0.03248 0.0
H1943 H 0.46707 0.56466 0.04052 0.0
H1944 H 0.41461 0.60379 0.98373 0.0
H1945 H 0.40572 0.59108 0.95817 0.0
H1946 H 0.43007 0.60843 0.95858 0.0
H1947 H 0.4532 0.5764 0.94166 0.0
H1948 H 0.42903 0.55897 0.94126 0.0
H1949 H 0.45374 0.54987 0.95544 0.0
H1950 H 0.43565 0.53871 0.03884 0.0
H1951 H 0.40562 0.51305 0.0287 0.0
H1952 H 0.39747 0.54644 0.96573 0.0
C1953 C 0.47298 0.59401 0.98304 0.0
C1954 C 0.49003 0.5959 -0.001 0.0
C1955 C 0.4874 0.58579 0.02004 0.0
C1956 C 0.46856 0.57316 0.02479 0.0
C1957 C 0.4523 0.5712 0.00852 0.0
C1958 C 0.45408 0.58162 0.9882 0.0
C1959 C 0.43491 0.57554 0.97311 0.0
C1960 C 0.42047 0.59593 0.96811 0.0
C1961 C 0.44323 0.56454 0.95161 0.0
C1962 C 0.42274 0.55917 0.98774 0.0
C1963 C 0.43304 0.55706 0.00815 0.0
C1964 C 0.42681 0.54088 0.02336 0.0
C1965 C 0.40967 0.52644 0.01754 0.0
C1966 C 0.39865 0.52861 0.99698 0.0
C1967 C 0.40506 0.54527 0.98197 0.0
H1968 H 0.71759 0.79233 0.84849 0.0
H1969 H 0.6914 0.74732 0.79882 0.0
H1970 H 0.71174 0.76767 0.76967 0.0
H1971 H 0.71528 0.84083 0.81862 0.0
H1972 H 0.74125 0.85185 0.82856 0.0
H1973 H 0.72591 0.83264 0.84535 0.0
H1974 H 0.76034 0.8069 0.84733 0.0
H1975 H 0.77578 0.82601 0.83031 0.0
H1976 H 0.77312 0.7974 0.82204 0.0
H1977 H 0.73007 0.79614 0.74586 0.0
H1978 H 0.74657 0.82988 0.72929 0.0
H1979 H 0.76459 0.85335 0.79476 0.0
C1980 C 0.71627 0.78665 0.83152 0.0
C1981 C 0.70281 0.76844 0.82581 0.0
C1982 C 0.70156 0.76139 0.80345 0.0
C1983 C 0.71317 0.7727 0.78684 0.0
C1984 C 0.72641 0.79057 0.79304 0.0
C1985 C 0.72828 0.79729 0.81489 0.0
C1986 C 0.74308 0.81736 0.81712 0.0
C1987 C 0.73062 0.83681 0.82804 0.0
C1988 C 0.76434 0.81157 0.82996 0.0
C1989 C 0.74801 0.82182 0.79296 0.0
C1990 C 0.73843 0.80603 0.77932 0.0
C1991 C 0.73824 0.80824 0.75631 0.0
C1992 C 0.74755 0.82738 0.74706 0.0
C1993 C 0.75716 0.84372 0.76084 0.0
C1994 C 0.75801 0.84059 0.78394 0.0
H1995 H 0.48073 0.46002 0.09174 0.0
H1996 H 0.46597 0.50453 0.14634 0.0
H1997 H 0.42755 0.50863 0.13246 0.0
H1998 H 0.45064 0.48989 0.05123 0.0
H1999 H 0.44172 0.46545 0.03652 0.0
H2000 H 0.46721 0.465 0.05199 0.0
H2001 H 0.45284 0.43086 0.07395 0.0
H2002 H 0.42705 0.43163 0.05883 0.0
H2003 H 0.42691 0.43273 0.08871 0.0
H2004 H 0.39176 0.5097 0.11131 0.0
H2005 H 0.36277 0.51103 0.08245 0.0
H2006 H 0.40082 0.46523 0.04209 0.0
C2007 C 0.46936 0.4705 0.10089 0.0
C2008 C 0.47622 0.48187 0.12018 0.0
C2009 C 0.461 0.49567 0.13152 0.0
C2010 C 0.43913 0.49793 0.12388 0.0
C2011 C 0.43282 0.48624 0.10493 0.0
C2012 C 0.44757 0.47298 0.09347 0.0
C2013 C 0.43725 0.46363 0.07259 0.0
C2014 C 0.44996 0.47147 0.05187 0.0
C2015 C 0.43594 0.4382 0.07359 0.0
C2016 C 0.41444 0.47398 0.07387 0.0
C2017 C 0.41212 0.48675 0.09279 0.0
C2018 C 0.39325 0.49951 0.09661 0.0
C2019 C 0.37683 0.50008 0.08017 0.0
C2020 C 0.37943 0.48801 0.06017 0.0
C2021 C 0.39804 0.47407 0.05748 0.0
H2022 H 0.79985 0.22739 0.33332 0.0
H2023 H 0.75803 0.18625 0.375 0.0
H2024 H 0.75397 0.15942 0.3444 0.0
H2025 H 0.77031 0.21968 0.28378 0.0
H2026 H 0.79434 0.21866 0.26605 0.0
H2027 H 0.79536 0.234 0.29165 0.0
H2028 H 0.82961 0.21125 0.30428 0.0
H2029 H 0.82884 0.19599 0.27859 0.0
H2030 H 0.82809 0.1814 0.30467 0.0
H2031 H 0.75077 0.13953 0.30817 0.0
H2032 H 0.75246 0.12532 0.2697 0.0
H2033 H 0.79838 0.17779 0.25227 0.0
C2034 C 0.79021 0.21252 0.33616 0.0
C2035 C 0.77916 0.20894 0.3565 0.0
C2036 C 0.76659 0.18935 0.35954 0.0
C2037 C 0.76415 0.17403 0.34225 0.0
C2038 C 0.7747 0.17837 0.32218 0.0
C2039 C 0.78781 0.19692 0.31916 0.0
C2040 C 0.79692 0.1979 0.29577 0.0
C2041 C 0.78874 0.2188 0.28361 0.0
C2042 C 0.82238 0.19655 0.29584 0.0
C2043 C 0.78666 0.17715 0.28607 0.0
C2044 C 0.77371 0.16626 0.30153 0.0
C2045 C 0.76121 0.14763 0.29603 0.0
C2046 C 0.76216 0.13977 0.27418 0.0
C2047 C 0.77578 0.15033 0.25831 0.0
C2048 C 0.78823 0.16919 0.26433 0.0
H2049 H 0.97636 0.52198 0.57535 0.0
H2050 H 0.00377 0.58185 0.60422 0.0
H2051 H 0.03836 0.57643 0.58287 0.0
H2052 H 0.02724 0.49129 0.5782 0.0
H2053 H 0.02269 0.47634 0.5527 0.0
H2054 H -0.00062 0.4856 0.56894 0.0
H2055 H 0.98359 0.50691 0.53507 0.0
H2056 H 0.00651 0.49689 0.51884 0.0
H2057 H 0.00112 0.52626 0.52048 0.0
H2058 H 0.06929 0.56501 0.55845 0.0
H2059 H 0.09531 0.54828 0.53166 0.0
H2060 H 0.04918 0.49411 0.52063 0.0
C2061 C 0.98949 0.53418 0.57663 0.0
C2062 C 0.98745 0.55265 0.59082 0.0
C2063 C 0.00512 0.56786 0.59302 0.0
C2064 C 0.02478 0.56484 0.58111 0.0
C2065 C 0.02655 0.54624 0.56755 0.0
C2066 C 0.00946 0.53111 0.56526 0.0
C2067 C 0.01616 0.51199 0.55039 0.0
C2068 C 0.01638 0.49001 0.56334 0.0
C2069 C 0.00094 0.51046 0.52998 0.0
C2070 C 0.03943 0.51917 0.54415 0.0
C2071 C 0.04506 0.53892 0.55435 0.0
C2072 C 0.06523 0.54945 0.55049 0.0
C2073 C 0.07988 0.53983 0.53531 0.0
C2074 C 0.07433 0.51982 0.52438 0.0
C2075 C 0.05404 0.50915 0.5292 0.0
H2076 H 0.67868 0.21006 0.69326 0.0
H2077 H 0.69533 0.17409 0.63326 0.0
H2078 H 0.70671 0.14178 0.65585 0.0
H2079 H 0.72292 0.19345 0.7244 0.0
H2080 H 0.70814 0.19108 0.75026 0.0
H2081 H 0.6984 0.20986 0.72929 0.0
H2082 H 0.65992 0.19065 0.72955 0.0
H2083 H 0.66951 0.17182 0.75069 0.0
H2084 H 0.65814 0.16113 0.72519 0.0
H2085 H 0.72204 0.11624 0.68537 0.0
H2086 H 0.73725 0.09851 0.71914 0.0
H2087 H 0.70832 0.1507 0.75935 0.0
C2088 C 0.68422 0.19517 0.68486 0.0
C2089 C 0.68621 0.19449 0.6616 0.0
C2090 C 0.69358 0.17484 0.65111 0.0
C2091 C 0.70008 0.15644 0.6638 0.0
C2092 C 0.69856 0.15791 0.68684 0.0
C2093 C 0.6904 0.17666 0.69722 0.0
C2094 C 0.69173 0.17478 0.72215 0.0
C2095 C 0.70616 0.19338 0.73209 0.0
C2096 C 0.66843 0.17458 0.7325 0.0
C2097 C 0.70282 0.15243 0.72425 0.0
C2098 C 0.70656 0.14285 0.70375 0.0
C2099 C 0.71869 0.12329 0.70153 0.0
C2100 C 0.72735 0.11341 0.72076 0.0
C2101 C 0.72368 0.12308 0.74185 0.0
C2102 C 0.7109 0.14259 0.74353 0.0
H2103 H 0.08679 0.47206 0.94831 0.0
H2104 H 0.06419 0.42176 0.99445 0.0
H2105 H 0.04324 0.40356 0.96413 0.0
H2106 H 0.03781 0.47877 0.92014 0.0
H2107 H 0.05028 0.48278 0.89329 0.0
H2108 H 0.06557 0.48968 0.9179 0.0
H2109 H 0.09745 0.4636 0.90523 0.0
H2110 H 0.08199 0.45648 0.88063 0.0
H2111 H 0.09149 0.43496 0.89906 0.0
H2112 H 0.02 0.39498 0.93046 0.0
H2113 H 0.99733 0.39624 0.89634 0.0
H2114 H 0.03784 0.45022 0.8716 0.0
C2115 C 0.07773 0.457 0.95198 0.0
C2116 C 0.07697 0.44835 0.97371 0.0
C2117 C 0.06502 0.42859 0.97786 0.0
C2118 C 0.05315 0.41813 0.96075 0.0
C2119 C 0.0539 0.4274 0.93956 0.0
C2120 C 0.06616 0.44623 0.9351 0.0
C2121 C 0.06302 0.45392 0.91145 0.0
C2122 C 0.0536 0.47767 0.91067 0.0
C2123 C 0.08479 0.45212 0.89832 0.0
C2124 C 0.04624 0.4371 0.90353 0.0
C2125 C 0.04127 0.42181 0.91989 0.0
C2126 C 0.02417 0.40648 0.91733 0.0
C2127 C 0.01137 0.40733 0.89791 0.0
C2128 C 0.01584 0.42334 0.88133 0.0
C2129 C 0.03413 0.43766 0.88383 0.0
H2130 H 0.7905 0.86214 0.18877 0.0
H2131 H 0.81554 0.82457 0.24452 0.0
H2132 H 0.82098 0.79199 0.22001 0.0
H2133 H 0.75795 0.82365 0.16869 0.0
H2134 H 0.76197 0.82894 0.13955 0.0
H2135 H 0.7663 0.85077 0.15927 0.0
H2136 H 0.80642 0.85663 0.14501 0.0
H2137 H 0.80208 0.83507 0.12472 0.0
H2138 H 0.82518 0.83339 0.14363 0.0
H2139 H 0.81501 0.76166 0.19163 0.0
H2140 H 0.80078 0.73739 0.16168 0.0
H2141 H 0.77942 0.79539 0.125 0.0
C2142 C 0.79817 0.84736 0.19551 0.0
C2143 C 0.80284 0.84576 0.21832 0.0
C2144 C 0.81233 0.82614 0.22691 0.0
C2145 C 0.81535 0.80757 0.21312 0.0
C2146 C 0.80919 0.80922 0.19083 0.0
C2147 C 0.80129 0.82888 0.182 0.0
C2148 C 0.79289 0.82582 0.15858 0.0
C2149 C 0.76834 0.83269 0.15643 0.0
C2150 C 0.80752 0.83847 0.14201 0.0
C2151 C 0.79576 0.80111 0.1561 0.0
C2152 C 0.80564 0.7918 0.1746 0.0
C2153 C 0.80783 0.76887 0.17684 0.0
C2154 C 0.7996 0.75521 0.15983 0.0
C2155 C 0.78904 0.76458 0.14107 0.0
C2156 C 0.78757 0.78779 0.13908 0.0
H2157 H 0.40787 0.50777 0.45537 0.0
H2158 H 0.38667 0.45434 0.41196 0.0
H2159 H 0.41746 0.463 0.38639 0.0
H2160 H 0.42693 0.54604 0.41199 0.0
H2161 H 0.45028 0.55522 0.42826 0.0
H2162 H 0.4252 0.54632 0.44184 0.0
H2163 H 0.44779 0.51768 0.4646 0.0
H2164 H 0.47288 0.52634 0.45098 0.0
H2165 H 0.4647 0.49761 0.45027 0.0
H2166 H 0.45185 0.4758 0.36695 0.0
H2167 H 0.48754 0.49183 0.35496 0.0
H2168 H 0.48669 0.53621 0.41168 0.0
C2169 C 0.40936 0.49821 0.44023 0.0
C2170 C 0.39476 0.4805 0.43554 0.0
C2171 C 0.39763 0.46803 0.41583 0.0
C2172 C 0.41502 0.47285 0.4012 0.0
C2173 C 0.4294 0.49011 0.40658 0.0
C2174 C 0.42673 0.50263 0.42559 0.0
C2175 C 0.44533 0.51926 0.42834 0.0
C2176 C 0.43639 0.54313 0.42755 0.0
C2177 C 0.45845 0.51495 0.44981 0.0
C2178 C 0.45903 0.51395 0.40803 0.0
C2179 C 0.44947 0.49722 0.3956 0.0
C2180 C 0.45941 0.48903 0.37644 0.0
C2181 C 0.47969 0.49821 0.3698 0.0
C2182 C 0.48983 0.51526 0.3824 0.0
C2183 C 0.47928 0.52324 0.40169 0.0
H2184 H 0.73696 0.71548 0.83583 0.0
H2185 H 0.77784 0.74478 0.88708 0.0
H2186 H 0.81145 0.73672 0.86484 0.0
H2187 H 0.77742 0.67351 0.81333 0.0
H2188 H 0.76878 0.6794 0.78533 0.0
H2189 H 0.74919 0.68167 0.80779 0.0
H2190 H 0.74072 0.72207 0.79587 0.0
H2191 H 0.76068 0.72032 0.77383 0.0
H2192 H 0.76303 0.7419 0.7944 0.0
H2193 H 0.83963 0.73021 0.83486 0.0
H2194 H 0.86 0.72691 0.79942 0.0
H2195 H 0.79951 0.70596 0.76658 0.0
C2196 C 0.75312 0.71898 0.84289 0.0
C2197 C 0.75508 0.7299 0.86344 0.0
C2198 C 0.77626 0.73574 0.87163 0.0
C2199 C 0.79534 0.7313 0.85908 0.0
C2200 C 0.79275 0.72147 0.83828 0.0
C2201 C 0.77212 0.7154 0.83026 0.0
C2202 C 0.77315 0.70889 0.80606 0.0
C2203 C 0.76676 0.68441 0.80295 0.0
C2204 C 0.75855 0.72421 0.79171 0.0
C2205 C 0.79749 0.7126 0.80156 0.0
C2206 C 0.80863 0.7194 0.82043 0.0
C2207 C 0.83113 0.72464 0.82006 0.0
C2208 C 0.84253 0.72281 0.79987 0.0
C2209 C 0.83124 0.71627 0.78035 0.0
C2210 C 0.8085 0.71105 0.78128 0.0
H2211 H 0.55705 0.5533 0.09936 0.0
H2212 H 0.55382 0.48572 0.07518 0.0
H2213 H 0.56584 0.49846 0.03806 0.0
H2214 H 0.53374 0.57773 0.05618 0.0
H2215 H 0.55056 0.60242 0.05537 0.0
H2216 H 0.54715 0.58769 0.08098 0.0
H2217 H 0.58968 0.58345 0.08505 0.0
H2218 H 0.59345 0.59864 0.05957 0.0
H2219 H 0.60557 0.5715 0.06272 0.0
H2220 H 0.56902 0.51959 0.00247 0.0
H2221 H 0.56602 0.54692 0.97209 0.0
H2222 H 0.57003 0.60041 0.01998 0.0
C2223 C 0.55968 0.54111 0.08642 0.0
C2224 C 0.55457 0.5186 0.08996 0.0
C2225 C 0.55793 0.50304 0.07274 0.0
C2226 C 0.56474 0.51013 0.05166 0.0
C2227 C 0.5687 0.5327 0.04839 0.0
C2228 C 0.56683 0.54788 0.0655 0.0
C2229 C 0.56958 0.5714 0.05731 0.0
C2230 C 0.54904 0.58562 0.06277 0.0
C2231 C 0.59084 0.58186 0.06672 0.0
C2232 C 0.57167 0.56725 0.0327 0.0
C2233 C 0.57145 0.54483 0.02785 0.0
C2234 C 0.56996 0.53715 0.00608 0.0
C2235 C 0.56816 0.55277 0.98894 0.0
C2236 C 0.5679 0.57574 0.99373 0.0
C2237 C 0.57054 0.58297 0.01579 0.0
H2238 H 0.63369 0.24519 0.27037 0.0
H2239 H 0.66237 0.30358 0.23974 0.0
H2240 H 0.691 0.30482 0.26935 0.0
H2241 H 0.64256 0.25979 0.32703 0.0
H2242 H 0.64936 0.23181 0.33505 0.0
H2243 H 0.63082 0.23665 0.31215 0.0
H2244 H 0.65604 0.21294 0.28656 0.0
H2245 H 0.6747 0.20802 0.30934 0.0
H2246 H 0.68498 0.21992 0.28393 0.0
H2247 H 0.71671 0.2988 0.30291 0.0
H2248 H 0.73769 0.28525 0.33562 0.0
H2249 H 0.69188 0.23007 0.34165 0.0
C2250 C 0.64585 0.25837 0.26987 0.0
C2251 C 0.64579 0.27436 0.25288 0.0
C2252 C 0.66213 0.29122 0.25276 0.0
C2253 C 0.67841 0.29204 0.26946 0.0
C2254 C 0.67807 0.27576 0.2859 0.0
C2255 C 0.66223 0.2592 0.28604 0.0
C2256 C 0.66582 0.24296 0.30466 0.0
C2257 C 0.64596 0.24281 0.32067 0.0
C2258 C 0.67068 0.21959 0.29557 0.0
C2259 C 0.68607 0.25302 0.31526 0.0
C2260 C 0.69296 0.27198 0.3044 0.0
C2261 C 0.71144 0.28396 0.3115 0.0
C2262 C 0.7232 0.2762 0.3301 0.0
C2263 C 0.71645 0.25657 0.34112 0.0
C2264 C 0.69759 0.24504 0.33354 0.0
H2265 H 0.93963 0.48974 0.59471 0.0
H2266 H 0.98767 0.46482 0.64204 0.0
H2267 H 0.98394 0.42717 0.62586 0.0
H2268 H 0.90407 0.44138 0.59086 0.0
H2269 H 0.90039 0.44418 0.56132 0.0
H2270 H 0.90523 0.4684 0.57815 0.0
H2271 H 0.93905 0.47883 0.55365 0.0
H2272 H 0.9343 0.4547 0.53672 0.0
H2273 H 0.96094 0.45888 0.54962 0.0
H2274 H 0.9758 0.39268 0.60335 0.0
H2275 H 0.9666 0.36497 0.57455 0.0
H2276 H 0.92526 0.41353 0.54118 0.0
C2277 C 0.94896 0.47622 0.60199 0.0
C2278 C 0.96354 0.4799 0.61989 0.0
C2279 C 0.97621 0.46213 0.62846 0.0
C2280 C 0.97414 0.44075 0.61943 0.0
C2281 C 0.95961 0.43768 0.60167 0.0
C2282 C 0.94746 0.45502 0.5929 0.0
C2283 C 0.93474 0.44799 0.57247 0.0
C2284 C 0.90962 0.45064 0.57592 0.0
C2285 C 0.94274 0.46086 0.55191 0.0
C2286 C 0.94133 0.42386 0.57125 0.0
C2287 C 0.95558 0.41815 0.58829 0.0
C2288 C 0.96456 0.39693 0.59002 0.0
C2289 C 0.9592 0.38131 0.57362 0.0
C2290 C 0.94516 0.38709 0.55569 0.0
C2291 C 0.93583 0.40852 0.55481 0.0
H2292 H 0.83157 0.28637 0.68597 0.0
H2293 H 0.87661 0.23736 0.65881 0.0
H2294 H 0.84644 0.22315 0.63476 0.0
H2295 H 0.78689 0.25277 0.69108 0.0
H2296 H 0.76624 0.27309 0.68369 0.0
H2297 H 0.79212 0.28186 0.69557 0.0
H2298 H 0.79952 0.30736 0.66178 0.0
H2299 H 0.7734 0.29897 0.64989 0.0
H2300 H 0.79864 0.29591 0.63417 0.0
H2301 H 0.80958 0.21067 0.61857 0.0
H2302 H 0.77035 0.20294 0.60938 0.0
H2303 H 0.75033 0.26088 0.64718 0.0
C2304 C 0.83529 0.27308 0.67447 0.0
C2305 C 0.85633 0.2629 0.67421 0.0
C2306 C 0.8606 0.24546 0.65911 0.0
C2307 C 0.84355 0.23728 0.64545 0.0
C2308 C 0.82261 0.24706 0.6469 0.0
C2309 C 0.81861 0.2649 0.66074 0.0
C2310 C 0.79442 0.27143 0.66074 0.0
C2311 C 0.78434 0.26966 0.68415 0.0
C2312 C 0.79132 0.2948 0.65106 0.0
C2313 C 0.78517 0.25393 0.64542 0.0
C2314 C 0.80162 0.24011 0.63742 0.0
C2315 C 0.79664 0.22167 0.62437 0.0
C2316 C 0.7743 0.21733 0.61938 0.0
C2317 C 0.75725 0.23136 0.62748 0.0
C2318 C 0.76293 0.24998 0.64046 0.0
H2319 H -0.00073 0.51566 0.90093 0.0
H2320 H 0.94193 0.47226 0.90437 0.0
H2321 H 0.92376 0.49862 0.93009 0.0
H2322 H 0.99721 0.53683 0.95829 0.0
H2323 H 0.00538 0.56423 0.94966 0.0
H2324 H 0.0149 0.54033 0.93446 0.0
H2325 H -0.00135 0.55714 0.89832 0.0
H2326 H 0.9887 0.58084 0.91345 0.0
H2327 H 0.96967 0.56441 0.89726 0.0
H2328 H 0.91136 0.53086 0.95402 0.0
H2329 H 0.90551 0.56651 0.97356 0.0
H2330 H 0.9696 0.58954 0.95046 0.0
C2331 C 0.98314 0.51133 0.90753 0.0
C2332 C 0.97207 0.49182 0.90085 0.0
C2333 C 0.95073 0.48708 0.90942 0.0
C2334 C 0.94031 0.50193 0.92401 0.0
C2335 C 0.95144 0.5214 0.92963 0.0
C2336 C 0.9724 0.52607 0.92166 0.0
C2337 C 0.98009 0.54891 0.9285 0.0
C2338 C 0.0006 0.54748 0.94362 0.0
C2339 C 0.98452 0.56369 0.90817 0.0
C2340 C 0.95996 0.55661 0.94118 0.0
C2341 C 0.94379 0.5404 0.94209 0.0
C2342 C 0.92391 0.54367 0.95339 0.0
C2343 C 0.9207 0.56395 0.96432 0.0
C2344 C 0.93706 0.58075 0.96336 0.0
C2345 C 0.95674 0.57709 0.95137 0.0
H2346 H 0.65813 0.73976 0.25194 0.0
H2347 H 0.60545 0.7061 0.21655 0.0
H2348 H 0.63041 0.70111 0.18416 0.0
H2349 H 0.67482 0.7714 0.20624 0.0
H2350 H 0.70388 0.77147 0.21325 0.0
H2351 H 0.68342 0.76886 0.23476 0.0
H2352 H 0.70172 0.73249 0.24814 0.0
H2353 H 0.72238 0.73484 0.22667 0.0
H2354 H 0.70585 0.71003 0.22883 0.0
H2355 H 0.66094 0.70073 0.1556 0.0
H2356 H 0.69184 0.7107 0.13049 0.0
H2357 H 0.72242 0.74884 0.18323 0.0
C2358 C 0.65205 0.73103 0.23746 0.0
C2359 C 0.63018 0.72292 0.2366 0.0
C2360 C 0.62235 0.71215 0.21735 0.0
C2361 C 0.63641 0.70915 0.19905 0.0
C2362 C 0.65797 0.71751 0.20028 0.0
C2363 C 0.66557 0.72864 0.21885 0.0
C2364 C 0.68822 0.73868 0.21498 0.0
C2365 C 0.68753 0.7641 0.21744 0.0
C2366 C 0.70557 0.72838 0.23058 0.0
C2367 C 0.69209 0.73172 0.19119 0.0
C2368 C 0.67479 0.71892 0.18325 0.0
C2369 C 0.6746 0.7107 0.16163 0.0
C2370 C 0.69223 0.71631 0.14755 0.0
C2371 C 0.70937 0.73046 0.15505 0.0
C2372 C 0.70948 0.73792 0.17722 0.0
H2373 H 0.56075 0.44711 0.40477 0.0
H2374 H 0.56502 0.51445 0.42976 0.0
H2375 H 0.57357 0.50003 0.46716 0.0
H2376 H 0.53356 0.42456 0.4491 0.0
H2377 H 0.54792 0.39836 0.44899 0.0
H2378 H 0.54527 0.41392 0.42372 0.0
H2379 H 0.588 0.41368 0.41875 0.0
H2380 H 0.59078 0.39788 0.44397 0.0
H2381 H 0.60548 0.42371 0.44086 0.0
H2382 H 0.57496 0.4781 0.50274 0.0
H2383 H 0.573 0.45027 0.5329 0.0
H2384 H 0.57069 0.39771 0.48383 0.0
C2385 C 0.56403 0.45882 0.418 0.0
C2386 C 0.56224 0.48185 0.41445 0.0
C2387 C 0.56654 0.49671 0.43213 0.0
C2388 C 0.57135 0.48869 0.45342 0.0
C2389 C 0.57229 0.46582 0.45654 0.0
C2390 C 0.56922 0.45112 0.43919 0.0
C2391 C 0.56981 0.42735 0.44705 0.0
C2392 C 0.54784 0.41536 0.44191 0.0
C2393 C 0.58971 0.41493 0.43706 0.0
C2394 C 0.57276 0.43098 0.47165 0.0
C2395 C 0.57417 0.45324 0.47688 0.0
C2396 C 0.5745 0.4606 0.49882 0.0
C2397 C 0.57327 0.44473 0.51581 0.0
C2398 C 0.57194 0.42189 0.51064 0.0
C2399 C 0.57212 0.41502 0.48831 0.0
H2400 H 0.78306 0.85297 0.68797 0.0
H2401 H 0.81942 0.90365 0.72382 0.0
H2402 H 0.84911 0.87663 0.7318 0.0
H2403 H 0.79124 0.81252 0.72516 0.0
H2404 H 0.7939 0.78987 0.70584 0.0
H2405 H 0.77835 0.81409 0.69822 0.0
H2406 H 0.80308 0.81942 0.6634 0.0
H2407 H 0.81858 0.79494 0.6708 0.0
H2408 H 0.83278 0.82088 0.6665 0.0
H2409 H 0.8703 0.84281 0.74259 0.0
H2410 H 0.88309 0.80529 0.75281 0.0
H2411 H 0.83304 0.7766 0.70975 0.0
C2412 C 0.79775 0.85868 0.69659 0.0
C2413 C 0.79904 0.88043 0.70515 0.0
C2414 C 0.81822 0.88709 0.71695 0.0
C2415 C 0.83515 0.87185 0.72158 0.0
C2416 C 0.83272 0.85012 0.71407 0.0
C2417 C 0.81468 0.84363 0.70147 0.0
C2418 C 0.81449 0.81879 0.69786 0.0
C2419 C 0.79324 0.80822 0.70734 0.0
C2420 C 0.81742 0.81318 0.67317 0.0
C2421 C 0.83471 0.8122 0.71116 0.0
C2422 C 0.84513 0.83051 0.72021 0.0
C2423 C 0.86267 0.82839 0.73512 0.0
C2424 C 0.86969 0.80701 0.74097 0.0
C2425 C 0.85919 0.78805 0.7319 0.0
C2426 C 0.84173 0.79078 0.71654 0.0
H2427 H 0.26453 0.69136 0.30764 0.0
H2428 H 0.29564 0.63344 0.2783 0.0
H2429 H 0.32953 0.65517 0.27127 0.0
H2430 H 0.28466 0.72987 0.27003 0.0
H2431 H 0.28904 0.75171 0.28998 0.0
H2432 H 0.26825 0.73096 0.295 0.0
H2433 H 0.28668 0.72159 0.33273 0.0
H2434 H 0.30763 0.74232 0.32776 0.0
H2435 H 0.31562 0.71411 0.33355 0.0
H2436 H 0.35801 0.68401 0.26333 0.0
H2437 H 0.37932 0.71808 0.25546 0.0
H2438 H 0.33034 0.75685 0.29126 0.0
C2439 C 0.27862 0.68318 0.30008 0.0
C2440 C 0.2775 0.66077 0.29349 0.0
C2441 C 0.29617 0.65063 0.28349 0.0
C2442 C 0.31553 0.66279 0.27952 0.0
C2443 C 0.31602 0.68496 0.28593 0.0
C2444 C 0.29813 0.69503 0.29615 0.0
C2445 C 0.3024 0.71943 0.30007 0.0
C2446 C 0.28506 0.73383 0.28805 0.0
C2447 C 0.30313 0.72466 0.32501 0.0
C2448 C 0.3251 0.72166 0.28965 0.0
C2449 C 0.33277 0.70155 0.2818 0.0
C2450 C 0.35243 0.6998 0.26979 0.0
C2451 C 0.36437 0.71922 0.26535 0.0
C2452 C 0.35658 0.74003 0.27296 0.0
C2453 C 0.33698 0.74111 0.28569 0.0
H2454 H 0.53358 0.08766 0.47516 0.0
H2455 H 0.48483 0.09713 0.52731 0.0
H2456 H 0.49527 0.06079 0.54331 0.0
H2457 H 0.52704 0.02715 0.46977 0.0
H2458 H 0.55628 0.02326 0.46487 0.0
H2459 H 0.54285 0.0485 0.45613 0.0
H2460 H 0.57128 0.07161 0.47873 0.0
H2461 H 0.58483 0.04656 0.48745 0.0
H2462 H 0.57488 0.06599 0.50788 0.0
H2463 H 0.51359 0.02476 0.55522 0.0
H2464 H 0.53968 0.99407 0.56334 0.0
H2465 H 0.57651 0.0097 0.50364 0.0
C2466 C 0.52487 0.08212 0.48984 0.0
C2467 C 0.50848 0.09535 0.50007 0.0
C2468 C 0.49752 0.08732 0.51923 0.0
C2469 C 0.50322 0.06664 0.52833 0.0
C2470 C 0.51972 0.05419 0.51792 0.0
C2471 C 0.53034 0.0617 0.49907 0.0
C2472 C 0.54872 0.04628 0.49194 0.0
C2473 C 0.5434 0.03566 0.46934 0.0
C2474 C 0.57125 0.05833 0.49149 0.0
C2475 C 0.54763 0.02942 0.51038 0.0
C2476 C 0.53044 0.03385 0.52491 0.0
C2477 C 0.52695 0.02103 0.54383 0.0
C2478 C 0.5418 0.00365 0.54831 0.0
C2479 C 0.56009 -0.0003 0.53414 0.0
C2480 C 0.56266 0.01241 0.51474 0.0
H2481 H 0.23724 0.35128 0.77497 0.0
H2482 H 0.25761 0.33097 0.84082 0.0
H2483 H 0.2285 0.30209 0.84084 0.0
H2484 H 0.17757 0.33772 0.77825 0.0
H2485 H 0.17707 0.32656 0.75051 0.0
H2486 H 0.19613 0.34852 0.75746 0.0
H2487 H 0.22893 0.32439 0.74368 0.0
H2488 H 0.21006 0.30232 0.73685 0.0
H2489 H 0.23299 0.29718 0.75532 0.0
H2490 H 0.19976 0.27381 0.8326 0.0
H2491 H 0.1751 0.24588 0.81595 0.0
H2492 H 0.17658 0.2817 0.75346 0.0
C2493 C 0.23525 0.3411 0.78955 0.0
C2494 C 0.24941 0.34341 0.80801 0.0
C2495 C 0.24666 0.32949 0.82665 0.0
C2496 C 0.23019 0.31312 0.82679 0.0
C2497 C 0.21704 0.31064 0.80795 0.0
C2498 C 0.21952 0.32408 0.78956 0.0
C2499 C 0.20557 0.31591 0.7703 0.0
C2500 C 0.18804 0.33321 0.76376 0.0
C2501 C 0.22026 0.30957 0.75038 0.0
C2502 C 0.195 0.29566 0.78072 0.0
C2503 C 0.20151 0.29324 0.80257 0.0
C2504 C 0.19441 0.27557 0.81555 0.0
C2505 C 0.1804 0.25979 0.80591 0.0
C2506 C 0.17392 0.26158 0.78338 0.0
C2507 C 0.18125 0.27987 0.77071 0.0
H2508 H 0.41133 0.45475 0.53606 0.0
H2509 H 0.3799 0.42058 0.48119 0.0
H2510 H 0.41101 0.3937 0.48024 0.0
H2511 H 0.46417 0.4524 0.51754 0.0
H2512 H 0.47723 0.44768 0.54402 0.0
H2513 H 0.45102 0.46178 0.54271 0.0
H2514 H 0.43365 0.43292 0.56939 0.0
H2515 H 0.45998 0.41885 0.5711 0.0
H2516 H 0.43549 0.40381 0.56285 0.0
H2517 H 0.44883 0.37555 0.48095 0.0
H2518 H 0.48807 0.3646 0.48609 0.0
H2519 H 0.49317 0.40927 0.54224 0.0
C2520 C 0.4107 0.44118 0.52429 0.0
C2521 C 0.39341 0.43964 0.50865 0.0
C2522 C 0.39302 0.42186 0.49338 0.0
C2523 C 0.41062 0.40659 0.49272 0.0
C2524 C 0.42797 0.40912 0.50787 0.0
C2525 C 0.4278 0.42566 0.52375 0.0
C2526 C 0.44894 0.42583 0.53723 0.0
C2527 C 0.46104 0.44824 0.53523 0.0
C2528 C 0.44423 0.42 0.56159 0.0
C2529 C 0.46157 0.40752 0.52577 0.0
C2530 C 0.44924 0.398 0.50891 0.0
C2531 C 0.4584 0.38242 0.49449 0.0
C2532 C 0.48071 0.37645 0.49742 0.0
C2533 C 0.49346 0.38591 0.51474 0.0
C2534 C 0.48361 0.40137 0.52923 0.0
H2535 H 0.69046 0.23444 0.22132 0.0
H2536 H 0.65389 0.21739 0.16185 0.0
H2537 H 0.68802 0.20113 0.14567 0.0
H2538 H 0.74547 0.24614 0.19257 0.0
H2539 H 0.7606 0.23458 0.21563 0.0
H2540 H 0.73464 0.24867 0.22033 0.0
H2541 H 0.71957 0.21383 0.24049 0.0
H2542 H 0.74532 0.19969 0.23571 0.0
H2543 H 0.7197 0.18751 0.22628 0.0
H2544 H 0.72277 0.17907 0.14051 0.0
H2545 H 0.75681 0.1565 0.14486 0.0
H2546 H 0.77198 0.19078 0.20607 0.0
C2547 C 0.6899 0.22794 0.20457 0.0
C2548 C 0.66975 0.22707 0.19273 0.0
C2549 C 0.66934 0.21835 0.17099 0.0
C2550 C 0.68861 0.2091 0.16174 0.0
C2551 C 0.70811 0.20937 0.17427 0.0
C2552 C 0.709 0.21909 0.19502 0.0
C2553 C 0.73128 0.21547 0.20602 0.0
C2554 C 0.74374 0.23753 0.20879 0.0
C2555 C 0.7288 0.2034 0.22842 0.0
C2556 C 0.74233 0.20093 0.18886 0.0
C2557 C 0.72878 0.19772 0.17057 0.0
C2558 C 0.73392 0.18216 0.15424 0.0
C2559 C 0.75317 0.16938 0.15685 0.0
C2560 C 0.76713 0.17259 0.1754 0.0
C2561 C 0.76197 0.18888 0.19127 0.0
H2562 H 0.61832 0.97129 0.95817 0.0
H2563 H 0.57242 0.01821 0.92884 0.0
H2564 H 0.54597 0.98767 0.9217 0.0
H2565 H 0.60239 0.92037 0.92554 0.0
H2566 H 0.60479 0.90337 0.95 0.0
H2567 H 0.62245 0.92725 0.94663 0.0
H2568 H 0.60908 0.94244 0.98458 0.0
H2569 H 0.59132 0.91884 0.98802 0.0
H2570 H 0.57981 0.94641 0.98924 0.0
H2571 H 0.52227 0.95343 0.92361 0.0
H2572 H 0.50245 0.92025 0.9373 0.0
H2573 H 0.5628 0.89729 0.96889 0.0
C2574 C 0.60304 0.97509 0.94956 0.0
C2575 C 0.59742 0.99708 0.944 0.0
C2576 C 0.5771 0.00141 0.93309 0.0
C2577 C 0.56203 0.98414 0.92891 0.0
C2578 C 0.56758 0.96275 0.93579 0.0
C2579 C 0.58766 0.95824 0.94593 0.0
C2580 C 0.58817 0.93513 0.9556 0.0
C2581 C 0.60548 0.92068 0.94372 0.0
C2582 C 0.59232 0.93576 0.98084 0.0
C2583 C 0.5649 0.92763 0.95025 0.0
C2584 C 0.5535 0.94342 0.93812 0.0
C2585 C 0.53115 0.9408 0.93274 0.0
C2586 C 0.52005 0.9219 0.94055 0.0
C2587 C 0.5312 0.9063 0.95408 0.0
C2588 C 0.554 0.90893 0.95841 0.0
H2589 H 0.98778 0.06747 0.50255 0.0
H2590 H 0.96105 0.12324 0.466 0.0
H2591 H 0.92454 0.10446 0.46388 0.0
H2592 H 0.96219 0.02708 0.46953 0.0
H2593 H 0.95731 0.00775 0.49179 0.0
H2594 H 0.98012 0.02691 0.49347 0.0
H2595 H 0.96523 0.04131 0.53109 0.0
H2596 H 0.94215 0.02238 0.52942 0.0
H2597 H 0.93723 0.05164 0.53289 0.0
H2598 H 0.89131 0.07933 0.46539 0.0
H2599 H 0.86516 0.04756 0.46588 0.0
H2600 H 0.91528 0.00678 0.49731 0.0
C2601 C 0.97402 0.07585 0.49457 0.0
C2602 C 0.97681 0.09685 0.4848 0.0
C2603 C 0.95891 0.10718 0.47374 0.0
C2604 C 0.9382 0.09672 0.47258 0.0
C2605 C 0.93596 0.07583 0.4822 0.0
C2606 C 0.95347 0.06536 0.49271 0.0
C2607 C 0.94751 0.04193 0.49935 0.0
C2608 C 0.96268 0.02493 0.48784 0.0
C2609 C 0.94807 0.03917 0.5247 0.0
C2610 C 0.92406 0.04074 0.49061 0.0
C2611 C 0.91746 0.06065 0.48136 0.0
C2612 C 0.8963 0.06363 0.4725 0.0
C2613 C 0.88161 0.04562 0.47284 0.0
C2614 C 0.88853 0.02494 0.48135 0.0
C2615 C 0.90987 0.02249 0.49046 0.0
H2616 H 0.091 0.11265 0.40722 0.0
H2617 H 0.03694 0.15655 0.39056 0.0
H2618 H 0.0616 0.17756 0.36573 0.0
H2619 H 0.12571 0.14702 0.41865 0.0
H2620 H 0.15096 0.13584 0.40714 0.0
H2621 H 0.12851 0.11765 0.41351 0.0
H2622 H 0.1274 0.10316 0.37321 0.0
H2623 H 0.15063 0.12084 0.36667 0.0
H2624 H 0.12555 0.12245 0.35048 0.0
H2625 H 0.09279 0.20149 0.35741 0.0
H2626 H 0.1268 0.22351 0.36177 0.0
H2627 H 0.16219 0.16498 0.38374 0.0
C2628 C 0.08419 0.12576 0.39701 0.0
C2629 C 0.06235 0.13315 0.40056 0.0
C2630 C 0.05362 0.15054 0.38765 0.0
C2631 C 0.06761 0.16258 0.37356 0.0
C2632 C 0.08999 0.1566 0.3724 0.0
C2633 C 0.0981 0.13794 0.38312 0.0
C2634 C 0.12324 0.13771 0.38346 0.0
C2635 C 0.1326 0.13441 0.40709 0.0
C2636 C 0.13223 0.12 0.3675 0.0
C2637 C 0.12786 0.1607 0.37471 0.0
C2638 C 0.1086 0.17089 0.36738 0.0
C2639 C 0.10807 0.19341 0.36224 0.0
C2640 C 0.12741 0.20587 0.36511 0.0
C2641 C 0.14701 0.19585 0.37323 0.0
C2642 C 0.14743 0.17288 0.37726 0.0
H2643 H 0.0487 0.90458 0.6844 0.0
H2644 H 0.09662 0.91271 0.63134 0.0
H2645 H 0.11087 0.87497 0.63842 0.0
H2646 H 0.08561 0.87308 0.72117 0.0
H2647 H 0.06338 0.85587 0.73129 0.0
H2648 H 0.05774 0.88384 0.72248 0.0
H2649 H 0.02804 0.86899 0.69515 0.0
H2650 H 0.03389 0.84095 0.70355 0.0
H2651 H 0.03578 0.84857 0.67471 0.0
H2652 H 0.11744 0.83532 0.64897 0.0
H2653 H 0.12008 0.79828 0.66617 0.0
H2654 H 0.06923 0.81673 0.71366 0.0
C2655 C 0.06242 0.89852 0.6745 0.0
C2656 C 0.07156 0.91146 0.6573 0.0
C2657 C 0.08949 0.90306 0.6447 0.0
C2658 C 0.09758 0.88162 0.64849 0.0
C2659 C 0.08775 0.86901 0.66514 0.0
C2660 C 0.07091 0.87731 0.67829 0.0
C2661 C 0.06338 0.86044 0.69526 0.0
C2662 C 0.0678 0.8688 0.71895 0.0
C2663 C 0.03882 0.85438 0.69195 0.0
C2664 C 0.07839 0.84122 0.68936 0.0
C2665 C 0.09214 0.84643 0.67179 0.0
C2666 C 0.10696 0.83112 0.66291 0.0
C2667 C 0.1082 0.81008 0.67266 0.0
C2668 C 0.09489 0.80472 0.69125 0.0
C2669 C 0.07964 0.82043 0.69951 0.0
H2670 H 0.43251 0.8498 0.90438 0.0
H2671 H 0.40292 0.85828 0.96933 0.0
H2672 H 0.36571 0.85911 0.95238 0.0
H2673 H 0.38964 0.88194 0.8717 0.0
H2674 H 0.39057 0.86225 0.84922 0.0
H2675 H 0.41512 0.8676 0.86548 0.0
H2676 H 0.41875 0.82568 0.87465 0.0
H2677 H 0.39481 0.82035 0.85785 0.0
H2678 H 0.3953 0.81128 0.88634 0.0
H2679 H 0.33204 0.85423 0.92974 0.0
H2680 H 0.3053 0.83528 0.90522 0.0
H2681 H 0.35612 0.82814 0.85519 0.0
C2682 C 0.41816 0.8522 0.9149 0.0
C2683 C 0.42047 0.854 0.93807 0.0
C2684 C 0.40142 0.8567 0.9515 0.0
C2685 C 0.38026 0.85763 0.94199 0.0
C2686 C 0.37844 0.85578 0.91903 0.0
C2687 C 0.39687 0.85272 0.90569 0.0
C2688 C 0.39025 0.84711 0.88217 0.0
C2689 C 0.39679 0.86585 0.8662 0.0
C2690 C 0.40035 0.82478 0.87486 0.0
C2691 C 0.3653 0.84583 0.88478 0.0
C2692 C 0.35873 0.85209 0.90587 0.0
C2693 C 0.33683 0.84979 0.91303 0.0
C2694 C 0.32166 0.83924 0.89893 0.0
C2695 C 0.32877 0.83073 0.87834 0.0
C2696 C 0.35034 0.83525 0.87065 0.0
H2697 H 0.37777 0.16914 0.17747 0.0
H2698 H 0.34916 0.13643 0.23453 0.0
H2699 H 0.35074 0.10053 0.21486 0.0
H2700 H 0.35644 0.1286 0.13231 0.0
H2701 H 0.38264 0.13055 0.11808 0.0
H2702 H 0.37174 0.15427 0.13271 0.0
H2703 H 0.40822 0.15703 0.1553 0.0
H2704 H 0.41911 0.13346 0.14091 0.0
H2705 H 0.41765 0.13324 0.17078 0.0
H2706 H 0.36273 0.06801 0.19322 0.0
H2707 H 0.38789 0.04188 0.17408 0.0
H2708 H 0.41196 0.09535 0.13276 0.0
C2709 C 0.37083 0.15452 0.18526 0.0
C2710 C 0.36299 0.15536 0.20719 0.0
C2711 C 0.35499 0.13595 0.21754 0.0
C2712 C 0.35564 0.11558 0.20641 0.0
C2713 C 0.36455 0.11497 0.18508 0.0
C2714 C 0.37208 0.13399 0.17461 0.0
C2715 C 0.38554 0.12848 0.15419 0.0
C2716 C 0.37335 0.13591 0.13307 0.0
C2717 C 0.409 0.13863 0.15541 0.0
C2718 C 0.38606 0.10348 0.15591 0.0
C2719 C 0.37289 0.09592 0.1731 0.0
C2720 C 0.37265 0.07364 0.17938 0.0
C2721 C 0.38695 0.05891 0.16846 0.0
C2722 C 0.40164 0.06681 0.15206 0.0
C2723 C 0.40058 0.08906 0.14515 0.0
H2724 H 0.14738 0.80522 0.10059 0.0
H2725 H 0.20229 0.83604 0.06624 0.0
H2726 H 0.17645 0.86293 0.04908 0.0
H2727 H 0.11149 0.80415 0.06083 0.0
H2728 H 0.08671 0.81127 0.07598 0.0
H2729 H 0.1097 0.799 0.09024 0.0
H2730 H 0.11106 0.83215 0.11753 0.0
H2731 H 0.08774 0.84452 0.10345 0.0
H2732 H 0.11307 0.86001 0.10692 0.0
H2733 H 0.14476 0.87734 0.02772 0.0
H2734 H 0.10973 0.88152 0.00689 0.0
H2735 H 0.07486 0.8447 0.05761 0.0
C2736 C 0.15393 0.81829 0.09015 0.0
C2737 C 0.17655 0.81877 0.08452 0.0
C2738 C 0.18491 0.83572 0.07076 0.0
C2739 C 0.17037 0.85104 0.06106 0.0
C2740 C 0.14782 0.84952 0.06606 0.0
C2741 C 0.13972 0.83402 0.08091 0.0
C2742 C 0.11463 0.83403 0.08146 0.0
C2743 C 0.10511 0.81074 0.07682 0.0
C2744 C 0.10613 0.84323 0.10366 0.0
C2745 C 0.10985 0.84997 0.06274 0.0
C2746 C 0.1292 0.85917 0.05442 0.0
C2747 C 0.12942 0.8711 0.03463 0.0
C2748 C 0.10955 0.87322 0.02282 0.0
C2749 C 0.08979 0.86371 0.03102 0.0
C2750 C 0.08974 0.85271 0.05156 0.0
H2751 H 0.40319 0.95087 0.3331 0.0
H2752 H 0.3931 0.92457 0.39881 0.0
H2753 H 0.36268 0.90111 0.38494 0.0
H2754 H 0.34101 0.93943 0.3109 0.0
H2755 H 0.35277 0.93206 0.28443 0.0
H2756 H 0.36477 0.95427 0.30051 0.0
H2757 H 0.40289 0.93481 0.29829 0.0
H2758 H 0.39116 0.91252 0.28278 0.0
H2759 H 0.40563 0.90674 0.30832 0.0
H2760 H 0.34598 0.87172 0.36341 0.0
H2761 H 0.34385 0.8407 0.33701 0.0
H2762 H 0.36463 0.88438 0.28396 0.0
C2763 C 0.39326 0.94135 0.34465 0.0
C2764 C 0.39977 0.93974 0.36694 0.0
C2765 C 0.38768 0.92638 0.38177 0.0
C2766 C 0.37039 0.91301 0.37396 0.0
C2767 C 0.36559 0.91324 0.35129 0.0
C2768 C 0.37631 0.9276 0.33684 0.0
C2769 C 0.37237 0.92105 0.3129 0.0
C2770 C 0.35679 0.93769 0.30152 0.0
C2771 C 0.39431 0.9186 0.29987 0.0
C2772 C 0.36088 0.89902 0.31625 0.0
C2773 C 0.35597 0.89539 0.33838 0.0
C2774 C 0.34897 0.87468 0.34597 0.0
C2775 C 0.34798 0.85706 0.33088 0.0
C2776 C 0.35425 0.86022 0.30852 0.0
C2777 C 0.35956 0.88166 0.30096 0.0
H2778 H 0.41208 0.15689 0.53599 0.0
H2779 H 0.41374 0.20493 0.48243 0.0
H2780 H 0.37678 0.2186 0.4936 0.0
H2781 H 0.35316 0.14433 0.5319 0.0
H2782 H 0.34966 0.14168 0.56146 0.0
H2783 H 0.37597 0.13513 0.5489 0.0
H2784 H 0.39569 0.16316 0.57489 0.0
H2785 H 0.36951 0.16954 0.5877 0.0
H2786 H 0.38606 0.19145 0.57592 0.0
H2787 H 0.341 0.22853 0.51184 0.0
H2788 H 0.30919 0.23492 0.53684 0.0
H2789 H 0.32979 0.17927 0.57742 0.0
C2790 C 0.4047 0.17032 0.52665 0.0
C2791 C 0.41579 0.17995 0.50841 0.0
C2792 C 0.40553 0.19738 0.4965 0.0
C2793 C 0.38451 0.20516 0.50263 0.0
C2794 C 0.37391 0.19515 0.52054 0.0
C2795 C 0.38364 0.17813 0.53239 0.0
C2796 C 0.36898 0.17069 0.55137 0.0
C2797 C 0.3615 0.14652 0.5482 0.0
C2798 C 0.38076 0.17392 0.57379 0.0
C2799 C 0.34973 0.18659 0.54868 0.0
C2800 C 0.35286 0.20045 0.53069 0.0
C2801 C 0.33819 0.21759 0.52578 0.0
C2802 C 0.32019 0.22108 0.54003 0.0
C2803 C 0.31698 0.20739 0.55879 0.0
C2804 C 0.33159 0.18957 0.56283 0.0
H2805 H 0.07127 0.17841 0.81208 0.0
H2806 H 0.13069 0.15853 0.84707 0.0
H2807 H 0.10835 0.13338 0.87077 0.0
H2808 H 0.0324 0.17381 0.86201 0.0
H2809 H 0.01028 0.16394 0.84448 0.0
H2810 H 0.03023 0.18349 0.83381 0.0
H2811 H 0.03904 0.15666 0.80139 0.0
H2812 H 0.01934 0.13705 0.81196 0.0
H2813 H 0.04769 0.12868 0.80747 0.0
H2814 H 0.0811 0.10545 0.88464 0.0
H2815 H 0.05103 0.07798 0.88878 0.0
H2816 H 0.00894 0.11757 0.84594 0.0
C2817 C 0.07932 0.16926 0.82529 0.0
C2818 C 0.10242 0.17023 0.82809 0.0
C2819 C 0.11284 0.15798 0.84508 0.0
C2820 C 0.10029 0.14379 0.85858 0.0
C2821 C 0.07743 0.14264 0.85503 0.0
C2822 C 0.06699 0.15541 0.83907 0.0
C2823 C 0.04273 0.14954 0.83692 0.0
C2824 C 0.02804 0.16884 0.84478 0.0
C2825 C 0.03689 0.14256 0.81303 0.0
C2826 C 0.04151 0.13024 0.85282 0.0
C2827 C 0.06154 0.12681 0.8635 0.0
C2828 C 0.06516 0.10834 0.87691 0.0
C2829 C 0.04804 0.09277 0.87906 0.0
C2830 C 0.02767 0.09579 0.86777 0.0
C2831 C 0.0242 0.11509 0.85509 0.0
H2832 H 0.22128 0.42049 0.15034 0.0
H2833 H 0.17752 0.37969 0.19032 0.0
H2834 H 0.14875 0.38203 0.16119 0.0
H2835 H 0.1807 0.45724 0.13029 0.0
H2836 H 0.19277 0.45961 0.10305 0.0
H2837 H 0.21011 0.45337 0.12649 0.0
H2838 H 0.2243 0.41805 0.10639 0.0
H2839 H 0.20672 0.42408 0.08298 0.0
H2840 H 0.20464 0.39768 0.09681 0.0
H2841 H 0.12437 0.38974 0.12775 0.0
H2842 H 0.10549 0.40531 0.09455 0.0
H2843 H 0.1652 0.4414 0.07769 0.0
C2844 C 0.20566 0.41203 0.15299 0.0
C2845 C 0.2016 0.39993 0.17255 0.0
C2846 C 0.18096 0.38907 0.1754 0.0
C2847 C 0.16458 0.39018 0.15891 0.0
C2848 C 0.16921 0.40209 0.13968 0.0
C2849 C 0.18922 0.41291 0.13673 0.0
C2850 C 0.1898 0.42545 0.11508 0.0
C2851 C 0.19355 0.45039 0.11898 0.0
C2852 C 0.20741 0.41573 0.09939 0.0
C2853 C 0.16668 0.42073 0.10669 0.0
C2854 C 0.15518 0.40677 0.12077 0.0
C2855 C 0.13327 0.40053 0.11653 0.0
C2856 C 0.12273 0.4093 0.09768 0.0
C2857 C 0.13411 0.4243 0.0838 0.0
C2858 C 0.15636 0.42977 0.08814 0.0
H2859 H 0.67308 0.12323 0.85186 0.0
H2860 H 0.73494 0.13888 0.8848 0.0
H2861 H 0.71614 0.13732 0.92104 0.0
H2862 H 0.63345 0.14848 0.89663 0.0
H2863 H 0.61461 0.12561 0.89268 0.0
H2864 H 0.63019 0.13631 0.86951 0.0
H2865 H 0.64563 0.09698 0.86176 0.0
H2866 H 0.63023 0.08627 0.88472 0.0
H2867 H 0.65986 0.08231 0.88361 0.0
H2868 H 0.6946 0.12416 0.9527 0.0
H2869 H 0.67329 0.0983 0.97626 0.0
H2870 H 0.62552 0.08941 0.92359 0.0
C2871 C 0.6823 0.12745 0.86669 0.0
C2872 C 0.7053 0.13139 0.86568 0.0
C2873 C 0.71721 0.13598 0.88533 0.0
C2874 C 0.7066 0.13533 0.90597 0.0
C2875 C 0.6841 0.13002 0.90664 0.0
C2876 C 0.672 0.12631 0.88744 0.0
C2877 C 0.64963 0.11614 0.89258 0.0
C2878 C 0.63086 0.13263 0.88756 0.0
C2879 C 0.64619 0.09413 0.87995 0.0
C2880 C 0.65202 0.11254 0.9173 0.0
C2881 C 0.67151 0.1217 0.92531 0.0
C2882 C 0.67892 0.11763 0.94688 0.0
C2883 C 0.66676 0.10298 0.96019 0.0
C2884 C 0.64763 0.09256 0.95171 0.0
C2885 C 0.6397 0.09802 0.93048 0.0
H2886 H 0.80637 0.9374 0.33134 0.0
H2887 H 0.85165 0.88182 0.32626 0.0
H2888 H 0.86447 0.8889 0.36477 0.0
H2889 H 0.84271 0.97296 0.36566 0.0
H2890 H 0.81939 0.98383 0.38087 0.0
H2891 H 0.81601 0.9754 0.35241 0.0
H2892 H 0.78401 0.94926 0.36432 0.0
H2893 H 0.78769 0.9571 0.39288 0.0
H2894 H 0.78915 0.9283 0.38501 0.0
H2895 H 0.86858 0.89973 0.40564 0.0
H2896 H 0.86797 0.91681 0.44306 0.0
H2897 H 0.82032 0.96546 0.41988 0.0
C2898 C 0.81942 0.92708 0.33814 0.0
C2899 C 0.82814 0.90915 0.32597 0.0
C2900 C 0.84505 0.89586 0.33533 0.0
C2901 C 0.85224 0.89963 0.35721 0.0
C2902 C 0.84252 0.91693 0.36915 0.0
C2903 C 0.82687 0.93076 0.35968 0.0
C2904 C 0.81848 0.94784 0.37594 0.0
C2905 C 0.82452 0.9714 0.36826 0.0
C2906 C 0.79335 0.94547 0.37976 0.0
C2907 C 0.83145 0.94124 0.39628 0.0
C2908 C 0.84517 0.92333 0.39219 0.0
C2909 C 0.85811 0.91394 0.40891 0.0
C2910 C 0.85749 0.92358 0.43014 0.0
C2911 C 0.84412 0.94245 0.43427 0.0
C2912 C 0.83077 0.9511 0.41717 0.0
H2913 H 0.85762 0.08607 0.18733 0.0
H2914 H 0.86931 0.14795 0.15348 0.0
H2915 H 0.8898 0.12825 0.12421 0.0
H2916 H 0.90927 0.05269 0.16226 0.0
H2917 H 0.89168 0.02861 0.1602 0.0
H2918 H 0.88869 0.04743 0.18328 0.0
H2919 H 0.84714 0.05129 0.17391 0.0
H2920 H 0.84986 0.0335 0.15037 0.0
H2921 H 0.83898 0.06113 0.14685 0.0
H2922 H 0.89519 0.1028 0.0935 0.0
H2923 H 0.88828 0.07403 0.06539 0.0
H2924 H 0.87076 0.02749 0.11727 0.0
C2925 C 0.86625 0.09546 0.17469 0.0
C2926 C 0.86266 0.11843 0.17282 0.0
C2927 C 0.87269 0.13041 0.15547 0.0
C2928 C 0.88419 0.11925 0.13868 0.0
C2929 C 0.88526 0.09613 0.13951 0.0
C2930 C 0.87702 0.08431 0.15743 0.0
C2931 C 0.87507 0.05981 0.15202 0.0
C2932 C 0.89221 0.04634 0.16522 0.0
C2933 C 0.85136 0.05097 0.15599 0.0
C2934 C 0.88085 0.06016 0.12762 0.0
C2935 C 0.88762 0.08104 0.12097 0.0
C2936 C 0.8907 0.08622 0.09865 0.0
C2937 C 0.88646 0.06983 0.08275 0.0
C2938 C 0.87894 0.04858 0.08921 0.0
C2939 C 0.87676 0.04354 0.11194 0.0
H2940 H 0.32316 0.51075 0.55851 0.0
H2941 H 0.37224 0.55312 0.52744 0.0
H2942 H 0.37081 0.57844 0.5598 0.0
H2943 H 0.29035 0.55508 0.58214 0.0
H2944 H 0.28395 0.53946 0.6068 0.0
H2945 H 0.28893 0.52524 0.58101 0.0
H2946 H 0.31968 0.5019 0.60003 0.0
H2947 H 0.31502 0.51629 0.62578 0.0
H2948 H 0.34235 0.51581 0.61371 0.0
H2949 H 0.36538 0.59776 0.59713 0.0
H2950 H 0.35287 0.61178 0.63381 0.0
H2951 H 0.3065 0.55704 0.63857 0.0
C2952 C 0.33348 0.52545 0.55843 0.0
C2953 C 0.34784 0.53002 0.54061 0.0
C2954 C 0.36102 0.54945 0.54097 0.0
C2955 C 0.36043 0.56381 0.55931 0.0
C2956 C 0.34639 0.55853 0.57689 0.0
C2957 C 0.33289 0.54 0.57637 0.0
C2958 C 0.31893 0.53813 0.59703 0.0
C2959 C 0.29407 0.53958 0.5914 0.0
C2960 C 0.32433 0.51677 0.60989 0.0
C2961 C 0.32674 0.55842 0.60939 0.0
C2962 C 0.34277 0.56991 0.59773 0.0
C2963 C 0.35271 0.58899 0.60631 0.0
C2964 C 0.34565 0.59674 0.62715 0.0
C2965 C 0.32867 0.58552 0.63879 0.0
C2966 C 0.31937 0.56604 0.62987 0.0
H2967 H 0.21215 0.59782 0.35925 0.0
H2968 H 0.16409 0.64522 0.33444 0.0
H2969 H 0.13928 0.6365 0.36593 0.0
H2970 H 0.17461 0.55762 0.37162 0.0
H2971 H 0.18845 0.54747 0.3961 0.0
H2972 H 0.2042 0.56076 0.37463 0.0
H2973 H 0.21958 0.58901 0.40321 0.0
H2974 H 0.20383 0.57571 0.42485 0.0
H2975 H 0.20058 0.605 0.41986 0.0
H2976 H 0.11811 0.61956 0.39768 0.0
H2977 H 0.10134 0.59361 0.42494 0.0
H2978 H 0.16248 0.55602 0.42676 0.0
C2979 C 0.1967 0.60685 0.36083 0.0
C2980 C 0.19006 0.62232 0.34466 0.0
C2981 C 0.16946 0.63336 0.34682 0.0
C2982 C 0.15537 0.62864 0.3647 0.0
C2983 C 0.16218 0.61283 0.38013 0.0
C2984 C 0.18237 0.60207 0.3783 0.0
C2985 C 0.18459 0.58364 0.39509 0.0
C2986 C 0.18816 0.56105 0.38367 0.0
C2987 C 0.20325 0.58865 0.41174 0.0
C2988 C 0.16213 0.58503 0.406 0.0
C2989 C 0.14964 0.60239 0.39769 0.0
C2990 C 0.12783 0.60611 0.40452 0.0
C2991 C 0.11845 0.59139 0.41991 0.0
C2992 C 0.13081 0.57311 0.42766 0.0
C2993 C 0.15291 0.5701 0.42098 0.0
H2994 H 0.34713 0.47067 0.92 0.0
H2995 H 0.36897 0.41495 0.95989 0.0
H2996 H 0.36837 0.39101 0.92637 0.0
H2997 H 0.3087 0.44182 0.88893 0.0
H2998 H 0.31353 0.45721 0.86377 0.0
H2999 H 0.31876 0.46995 0.89018 0.0
H3000 H 0.35915 0.47839 0.87796 0.0
H3001 H 0.35407 0.46533 0.85155 0.0
H3002 H 0.37673 0.45606 0.8687 0.0
H3003 H 0.36246 0.37276 0.88846 0.0
H3004 H 0.34757 0.36134 0.85175 0.0
H3005 H 0.32878 0.42925 0.83831 0.0
C3006 C 0.35214 0.45351 0.92173 0.0
C3007 C 0.35821 0.44467 0.9425 0.0
C3008 C 0.3643 0.42205 0.94407 0.0
C3009 C 0.36418 0.40841 0.92511 0.0
C3010 C 0.35802 0.41774 0.90481 0.0
C3011 C 0.35199 0.43979 0.90315 0.0
C3012 C 0.34385 0.44553 0.88018 0.0
C3013 C 0.31979 0.45411 0.88082 0.0
C3014 C 0.35938 0.46232 0.86894 0.0
C3015 C 0.34541 0.42308 0.86926 0.0
C3016 C 0.35419 0.4073 0.88342 0.0
C3017 C 0.35589 0.38506 0.87716 0.0
C3018 C 0.34759 0.37873 0.85628 0.0
C3019 C 0.33743 0.39458 0.84232 0.0
C3020 C 0.33692 0.41701 0.84864 0.0
H3021 H 0.58797 0.60754 0.89711 0.0
H3022 H 0.53009 0.64943 0.89307 0.0
H3023 H 0.54995 0.67465 0.868 0.0
H3024 H 0.62134 0.64254 0.90893 0.0
H3025 H 0.64579 0.63503 0.89344 0.0
H3026 H 0.62554 0.61438 0.89964 0.0
H3027 H 0.62058 0.60496 0.85817 0.0
H3028 H 0.64174 0.62505 0.85161 0.0
H3029 H 0.61492 0.62674 0.8385 0.0
H3030 H 0.57847 0.70171 0.85929 0.0
H3031 H 0.6116 0.72541 0.86195 0.0
H3032 H 0.65249 0.66724 0.87239 0.0
C3033 C 0.57912 0.62112 0.88937 0.0
C3034 C 0.55774 0.62674 0.89681 0.0
C3035 C 0.5464 0.64474 0.88716 0.0
C3036 C 0.55771 0.65927 0.87301 0.0
C3037 C 0.58006 0.65512 0.86849 0.0
C3038 C 0.59047 0.63587 0.87562 0.0
C3039 C 0.61545 0.63755 0.87327 0.0
C3040 C 0.62769 0.63209 0.89512 0.0
C3041 C 0.62365 0.6227 0.85425 0.0
C3042 C 0.6176 0.66174 0.86722 0.0
C3043 C 0.59707 0.67132 0.86348 0.0
C3044 C 0.59466 0.69422 0.86126 0.0
C3045 C 0.61354 0.7076 0.86315 0.0
C3046 C 0.63454 0.69808 0.86752 0.0
C3047 C 0.63662 0.67487 0.86889 0.0
H3048 H 0.59882 0.31978 0.16017 0.0
H3049 H 0.5449 0.30016 0.20346 0.0
H3050 H 0.52597 0.33563 0.19617 0.0
H3051 H 0.60222 0.37317 0.17848 0.0
H3052 H 0.60816 0.38615 0.15223 0.0
H3053 H 0.61563 0.35763 0.15673 0.0
H3054 H 0.59291 0.34563 0.1223 0.0
H3055 H 0.58576 0.37423 0.11733 0.0
H3056 H 0.5642 0.3537 0.12004 0.0
H3057 H 0.51597 0.3745 0.18946 0.0
H3058 H 0.51337 0.41423 0.18083 0.0
H3059 H 0.57388 0.40982 0.14199 0.0
C3060 C 0.58258 0.32265 0.16728 0.0
C3061 C 0.57308 0.30727 0.18213 0.0
C3062 C 0.55225 0.31177 0.19189 0.0
C3063 C 0.54141 0.33184 0.18786 0.0
C3064 C 0.55168 0.34719 0.17405 0.0
C3065 C 0.57162 0.34281 0.16361 0.0
C3066 C 0.58006 0.36312 0.15141 0.0
C3067 C 0.60286 0.37044 0.16025 0.0
C3068 C 0.58076 0.35892 0.12628 0.0
C3069 C 0.56217 0.37975 0.15738 0.0
C3070 C 0.5459 0.37007 0.17027 0.0
C3071 C 0.52836 0.38221 0.17903 0.0
C3072 C 0.52715 0.40483 0.17418 0.0
C3073 C 0.54341 0.4151 0.16071 0.0
C3074 C 0.56117 0.40237 0.15224 0.0
H3075 H 0.81686 0.27107 0.44625 0.0
H3076 H 0.80611 0.31836 0.39313 0.0
H3077 H 0.83792 0.34054 0.40655 0.0
H3078 H 0.83275 0.31237 0.48815 0.0
H3079 H 0.85287 0.2942 0.50074 0.0
H3080 H 0.82867 0.28276 0.48744 0.0
H3081 H 0.85395 0.25852 0.46249 0.0
H3082 H 0.87822 0.27005 0.47552 0.0
H3083 H 0.87503 0.27163 0.44584 0.0
H3084 H 0.87278 0.35546 0.4237 0.0
H3085 H 0.90599 0.36459 0.44583 0.0
H3086 H 0.89272 0.30857 0.489 0.0
C3087 C 0.82107 0.28623 0.43761 0.0
C3088 C 0.80917 0.29303 0.41864 0.0
C3089 C 0.81501 0.31298 0.40778 0.0
C3090 C 0.83307 0.3256 0.41522 0.0
C3091 C 0.84477 0.31818 0.43373 0.0
C3092 C 0.83877 0.29918 0.44502 0.0
C3093 C 0.85406 0.29483 0.46445 0.0
C3094 C 0.84133 0.29612 0.4865 0.0
C3095 C 0.86602 0.27243 0.46191 0.0
C3096 C 0.86998 0.31403 0.46198 0.0
C3097 C 0.86437 0.32725 0.4441 0.0
C3098 C 0.87717 0.34542 0.43791 0.0
C3099 C 0.89606 0.35037 0.4505 0.0
C3100 C 0.90181 0.33732 0.46916 0.0
C3101 C 0.88858 0.31893 0.47493 0.0
H3102 H 0.85184 0.64477 0.70968 0.0
H3103 H 0.85454 0.69316 0.65668 0.0
H3104 H 0.85798 0.66294 0.62934 0.0
H3105 H 0.89248 0.61406 0.69364 0.0
H3106 H 0.88148 0.58719 0.70077 0.0
H3107 H 0.87159 0.61133 0.71487 0.0
H3108 H 0.83128 0.60169 0.70349 0.0
H3109 H 0.84117 0.57731 0.68922 0.0
H3110 H 0.82457 0.59747 0.67466 0.0
H3111 H 0.87287 0.63041 0.61033 0.0
H3112 H 0.89713 0.59867 0.60156 0.0
H3113 H 0.8832 0.56988 0.66561 0.0
C3114 C 0.85223 0.64891 0.69222 0.0
C3115 C 0.85304 0.6712 0.68523 0.0
C3116 C 0.8538 0.67614 0.66235 0.0
C3117 C 0.85561 0.65904 0.64669 0.0
C3118 C 0.85613 0.63715 0.65421 0.0
C3119 C 0.85399 0.63201 0.67647 0.0
C3120 C 0.85893 0.60778 0.68081 0.0
C3121 C 0.87721 0.60496 0.69853 0.0
C3122 C 0.83772 0.59533 0.68743 0.0
C3123 C 0.86672 0.6007 0.65803 0.0
C3124 C 0.86417 0.61765 0.64269 0.0
C3125 C 0.87405 0.61666 0.6218 0.0
C3126 C 0.88779 0.5986 0.61691 0.0
C3127 C 0.89124 0.58172 0.63272 0.0
C3128 C 0.87975 0.58217 0.65299 0.0
H3129 H 0.55793 0.33938 0.60826 0.0
H3130 H 0.60043 0.39694 0.60908 0.0
H3131 H 0.62601 0.37799 0.63457 0.0
H3132 H 0.5771 0.31409 0.66673 0.0
H3133 H 0.57591 0.28687 0.65441 0.0
H3134 H 0.55583 0.30768 0.64672 0.0
H3135 H 0.56625 0.3018 0.60556 0.0
H3136 H 0.58673 0.2817 0.61292 0.0
H3137 H 0.59464 0.30569 0.59694 0.0
H3138 H 0.6525 0.35031 0.64642 0.0
H3139 H 0.67646 0.31729 0.64527 0.0
H3140 H 0.61868 0.27579 0.63494 0.0
C3141 C 0.57173 0.34842 0.61538 0.0
C3142 C 0.5771 0.36963 0.60739 0.0
C3143 C 0.59589 0.38084 0.61564 0.0
C3144 C 0.61052 0.37011 0.63009 0.0
C3145 C 0.6062 0.34811 0.6358 0.0
C3146 C 0.58692 0.33745 0.62909 0.0
C3147 C 0.58874 0.31258 0.63229 0.0
C3148 C 0.57349 0.30485 0.65117 0.0
C3149 C 0.58384 0.29974 0.61064 0.0
C3150 C 0.61285 0.31074 0.63899 0.0
C3151 C 0.62231 0.33143 0.64203 0.0
C3152 C 0.64513 0.33403 0.64488 0.0
C3153 C 0.65867 0.31519 0.64397 0.0
C3154 C 0.64936 0.29405 0.63993 0.0
C3155 C 0.62615 0.29177 0.6383 0.0
H3156 H 0.92276 0.33407 0.73544 0.0
H3157 H 0.87496 0.30679 0.78171 0.0
H3158 H 0.87807 0.34047 0.80485 0.0
H3159 H 0.95831 0.35444 0.77504 0.0
H3160 H 0.96618 0.37902 0.75997 0.0
H3161 H 0.9571 0.35482 0.74516 0.0
H3162 H 0.9267 0.3782 0.72564 0.0
H3163 H 0.93562 0.4025 0.74062 0.0
H3164 H 0.90712 0.39364 0.74212 0.0
H3165 H 0.8887 0.37543 0.82446 0.0
H3166 H 0.90967 0.40635 0.84146 0.0
H3167 H 0.95199 0.40943 0.78346 0.0
C3168 C 0.9126 0.33543 0.75019 0.0
C3169 C 0.89852 0.31802 0.75677 0.0
C3170 C 0.88585 0.32005 0.77643 0.0
C3171 C 0.88733 0.33918 0.78953 0.0
C3172 C 0.90157 0.35603 0.78271 0.0
C3173 C 0.91414 0.35425 0.7636 0.0
C3174 C 0.93028 0.37328 0.76144 0.0
C3175 C 0.95438 0.36488 0.76036 0.0
C3176 C 0.92458 0.38776 0.74126 0.0
C3177 C 0.92562 0.38543 0.78286 0.0
C3178 C 0.90846 0.37571 0.79453 0.0
C3179 C 0.90198 0.38336 0.81537 0.0
C3180 C 0.9139 0.40093 0.82486 0.0
C3181 C 0.93234 0.41008 0.81368 0.0
C3182 C 0.93784 0.40267 0.79223 0.0
H3183 H 0.80844 0.67954 0.09293 0.0
H3184 H 0.7736 0.70151 0.03415 0.0
H3185 H 0.80302 0.68535 0.01058 0.0
H3186 H 0.85944 0.69467 0.07582 0.0
H3187 H 0.87492 0.67185 0.08735 0.0
H3188 H 0.84906 0.68003 0.09972 0.0
H3189 H 0.83338 0.64035 0.09493 0.0
H3190 H 0.85949 0.63177 0.08315 0.0
H3191 H 0.83408 0.62735 0.06801 0.0
H3192 H 0.8385 0.67339 0.99421 0.0
H3193 H 0.87664 0.66239 0.98505 0.0
H3194 H 0.88952 0.64843 0.05455 0.0
C3195 C 0.80654 0.67976 0.07506 0.0
C3196 C 0.7886 0.69095 0.06511 0.0
C3197 C 0.787 0.69229 0.04182 0.0
C3198 C 0.80366 0.68331 0.0284 0.0
C3199 C 0.82176 0.67325 0.03868 0.0
C3200 C 0.82318 0.67105 0.06147 0.0
C3201 C 0.84556 0.66186 0.06836 0.0
C3202 C 0.85796 0.67808 0.08371 0.0
C3203 C 0.84297 0.63897 0.07925 0.0
C3204 C 0.85678 0.66008 0.04598 0.0
C3205 C 0.84265 0.66658 0.02913 0.0
C3206 C 0.84958 0.66781 0.00718 0.0
C3207 C 0.87138 0.66172 0.00221 0.0
C3208 C 0.88605 0.65449 0.0191 0.0
C3209 C 0.87865 0.65379 0.0413 0.0
H3210 H 0.5528 0.68745 0.30451 0.0
H3211 H 0.6033 0.70832 0.35134 0.0
H3212 H 0.59787 0.67366 0.37249 0.0
H3213 H 0.51707 0.65643 0.34562 0.0
H3214 H 0.51071 0.6355 0.32524 0.0
H3215 H 0.51541 0.66374 0.31669 0.0
H3216 H 0.54588 0.65014 0.2896 0.0
H3217 H 0.54167 0.62199 0.29835 0.0
H3218 H 0.56888 0.63422 0.3002 0.0
H3219 H 0.59185 0.63421 0.38425 0.0
H3220 H 0.58336 0.5943 0.38771 0.0
H3221 H 0.5367 0.59948 0.33313 0.0
C3222 C 0.56218 0.68509 0.31965 0.0
C3223 C 0.57845 0.70053 0.32633 0.0
C3224 C 0.5906 0.69677 0.34606 0.0
C3225 C 0.58766 0.67711 0.35814 0.0
C3226 C 0.57227 0.66166 0.35041 0.0
C3227 C 0.5594 0.66565 0.33186 0.0
C3228 C 0.54556 0.64564 0.32573 0.0
C3229 C 0.52071 0.65063 0.3285 0.0
C3230 C 0.55083 0.63753 0.30208 0.0
C3231 C 0.55353 0.62934 0.343 0.0
C3232 C 0.5687 0.63895 0.35728 0.0
C3233 C 0.57963 0.62664 0.37349 0.0
C3234 C 0.57483 0.60396 0.37521 0.0
C3235 C 0.55932 0.59385 0.36072 0.0
C3236 C 0.54845 0.60681 0.34458 0.0
H3237 H 0.62982 0.91558 0.60294 0.0
H3238 H 0.62442 0.98672 0.61261 0.0
H3239 H 0.64656 0.98392 0.64667 0.0
H3240 H 0.62958 0.90089 0.66436 0.0
H3241 H 0.64934 0.87887 0.66007 0.0
H3242 H 0.62971 0.88573 0.63858 0.0
H3243 H 0.66212 0.89116 0.61096 0.0
H3244 H 0.68186 0.88469 0.63235 0.0
H3245 H 0.6839 0.91057 0.61756 0.0
H3246 H 0.67518 0.97513 0.67438 0.0
H3247 H 0.70517 0.95956 0.69766 0.0
H3248 H 0.69051 0.89381 0.6726 0.0
C3249 C 0.63264 0.93039 0.61269 0.0
C3250 C 0.62549 0.95135 0.60512 0.0
C3251 C 0.62982 0.97048 0.61806 0.0
C3252 C 0.64233 0.96908 0.6375 0.0
C3253 C 0.65007 0.94838 0.644 0.0
C3254 C 0.64503 0.92926 0.63234 0.0
C3255 C 0.657 0.90941 0.64205 0.0
C3256 C 0.64041 0.89274 0.65185 0.0
C3257 C 0.67211 0.89832 0.62469 0.0
C3258 C 0.67041 0.92063 0.66012 0.0
C3259 C 0.66607 0.94311 0.66099 0.0
C3260 C 0.67827 0.95745 0.67441 0.0
C3261 C 0.69535 0.94856 0.68738 0.0
C3262 C 0.69975 0.92558 0.68699 0.0
C3263 C 0.68696 0.9114 0.67348 0.0
loop_
_geom_bond_atom_site_label_1
_geom_bond_atom_site_label_2
_geom_bond_distance
_geom_bond_site_symmetry_2
_ccdc_geom_bond_type
Co0 O1 2.216 . S
Co0 O2 2.091 . S
Co0 O4 2.004 . S
Co0 O10 2.021 . S
Co0 O12 2.137 . S
Co0 O13 2.244 . S
O1 Co0 2.216 . S
O1 C8 1.247 . S
O2 Co0 2.091 . S
O2 C8 1.261 . S
C3 O12 1.247 . S
C3 O13 1.272 . S
O4 Co0 2.004 . S
O4 C9 1.259 . S
Co5 O6 2.061 . S
Co5 O11 2.052 . S
Co5 O13 2.135 . S
O6 Co5 2.061 . S
O6 C9 1.235 . S
C7 O10 1.238 . S
C7 O11 1.241 . S
C8 O1 1.247 . S
C8 O2 1.261 . S
C9 O4 1.259 . S
C9 O6 1.235 . S
O10 Co0 2.021 . S
O10 C7 1.238 . S
O11 Co5 2.052 . S
O11 C7 1.241 . S
O12 Co0 2.137 . S
O12 C3 1.247 . S
O13 Co0 2.244 . S
O13 C3 1.272 . S
O13 Co5 2.135 . S
Co14 O15 2.216 . S
Co14 O16 2.091 . S
Co14 O18 2.004 . S
Co14 O24 2.021 . S
Co14 O26 2.137 . S
Co14 O27 2.244 . S
O15 Co14 2.216 . S
O15 C22 1.247 . S
O16 Co14 2.091 . S
O16 C22 1.261 . S
C17 O26 1.247 . S
C17 O27 1.272 . S
O18 Co14 2.004 . S
O18 C23 1.259 1_565 S
Co19 O20 2.061 1_655 S
Co19 O25 2.052 1_655 S
Co19 O27 2.135 1_645 S
O20 Co19 2.061 1_455 S
O20 C23 1.235 . S
C21 O24 1.238 . S
C21 O25 1.241 1_565 S
C22 O15 1.247 . S
C22 O16 1.261 . S
C23 O18 1.259 1_545 S
C23 O20 1.235 . S
O24 Co14 2.021 . S
O24 C21 1.238 . S
O25 Co19 2.052 1_455 S
O25 C21 1.241 1_545 S
O26 Co14 2.137 . S
O26 C17 1.247 . S
O27 Co14 2.244 . S
O27 C17 1.272 . S
O27 Co19 2.135 1_465 S
Co28 O29 2.216 . S
Co28 O30 2.091 . S
Co28 O32 2.004 . S
Co28 O38 2.021 . S
Co28 O40 2.137 . S
Co28 O41 2.244 . S
O29 Co28 2.216 . S
O29 C36 1.247 . S
O30 Co28 2.091 . S
O30 C36 1.261 . S
C31 O40 1.247 . S
C31 O41 1.272 . S
O32 Co28 2.004 . S
O32 C37 1.259 . S
Co33 O34 2.061 . S
Co33 O39 2.052 . S
Co33 O41 2.135 . S
O34 Co33 2.061 . S
O34 C37 1.235 . S
C35 O38 1.238 . S
C35 O39 1.241 . S
C36 O29 1.247 . S
C36 O30 1.261 . S
C37 O32 1.259 . S
C37 O34 1.235 . S
O38 Co28 2.021 . S
O38 C35 1.238 . S
O39 Co33 2.052 . S
O39 C35 1.241 . S
O40 Co28 2.137 . S
O40 C31 1.247 . S
O41 Co28 2.244 . S
O41 C31 1.272 . S
O41 Co33 2.135 . S
Co42 O43 2.216 . S
Co42 O44 2.091 . S
Co42 O46 2.004 . S
Co42 O52 2.021 . S
Co42 O54 2.137 . S
Co42 O55 2.244 . S
O43 Co42 2.216 . S
O43 C50 1.247 . S
O44 Co42 2.091 . S
O44 C50 1.261 . S
C45 O54 1.247 . S
C45 O55 1.272 . S
O46 Co42 2.004 . S
O46 C51 1.259 1_545 S
Co47 O48 2.061 . S
Co47 O53 2.052 . S
Co47 O55 2.135 1_565 S
O48 Co47 2.061 . S
O48 C51 1.235 . S
C49 O52 1.238 . S
C49 O53 1.241 1_545 S
C50 O43 1.247 . S
C50 O44 1.261 . S
C51 O46 1.259 1_565 S
C51 O48 1.235 . S
O52 Co42 2.021 . S
O52 C49 1.238 . S
O53 Co47 2.052 . S
O53 C49 1.241 1_565 S
O54 Co42 2.137 . S
O54 C45 1.247 . S
O55 Co42 2.244 . S
O55 C45 1.272 . S
O55 Co47 2.135 1_545 S
Co56 O57 2.216 . S
Co56 O58 2.091 . S
Co56 O60 2.004 . S
Co56 O66 2.021 . S
Co56 O68 2.137 . S
Co56 O69 2.244 . S
O57 Co56 2.216 . S
O57 C64 1.247 . S
O58 Co56 2.091 . S
O58 C64 1.261 . S
C59 O68 1.247 . S
C59 O69 1.272 . S
O60 Co56 2.004 . S
O60 C65 1.259 . S
Co61 O62 2.061 . S
Co61 O67 2.052 . S
Co61 O69 2.135 . S
O62 Co61 2.061 . S
O62 C65 1.235 . S
C63 O66 1.238 . S
C63 O67 1.241 . S
C64 O57 1.247 . S
C64 O58 1.261 . S
C65 O60 1.259 . S
C65 O62 1.235 . S
O66 Co56 2.021 . S
O66 C63 1.238 . S
O67 Co61 2.052 . S
O67 C63 1.241 . S
O68 Co56 2.137 . S
O68 C59 1.247 . S
O69 Co56 2.244 . S
O69 C59 1.272 . S
O69 Co61 2.135 . S
Co70 O71 2.216 . S
Co70 O72 2.091 . S
Co70 O74 2.004 . S
Co70 O80 2.021 . S
Co70 O82 2.137 . S
Co70 O83 2.244 . S
O71 Co70 2.216 . S
O71 C78 1.247 . S
O72 Co70 2.091 . S
O72 C78 1.261 . S
C73 O82 1.247 . S
C73 O83 1.272 . S
O74 Co70 2.004 . S
O74 C79 1.259 1_565 S
Co75 O76 2.061 . S
Co75 O81 2.052 . S
Co75 O83 2.135 1_545 S
O76 Co75 2.061 . S
O76 C79 1.235 . S
C77 O80 1.238 . S
C77 O81 1.241 1_565 S
C78 O71 1.247 . S
C78 O72 1.261 . S
C79 O74 1.259 1_545 S
C79 O76 1.235 . S
O80 Co70 2.021 . S
O80 C77 1.238 . S
O81 Co75 2.052 . S
O81 C77 1.241 1_545 S
O82 Co70 2.137 . S
O82 C73 1.247 . S
O83 Co70 2.244 . S
O83 C73 1.272 . S
O83 Co75 2.135 1_565 S
Co84 O85 2.216 . S
Co84 O86 2.091 . S
Co84 O88 2.004 . S
Co84 O94 2.021 . S
Co84 O96 2.137 . S
Co84 O97 2.244 . S
O85 Co84 2.216 . S
O85 C92 1.247 . S
O86 Co84 2.091 . S
O86 C92 1.261 . S
C87 O96 1.247 . S
C87 O97 1.272 . S
O88 Co84 2.004 . S
O88 C93 1.259 . S
Co89 O90 2.061 . S
Co89 O95 2.052 . S
Co89 O97 2.135 . S
O90 Co89 2.061 . S
O90 C93 1.235 . S
C91 O94 1.238 . S
C91 O95 1.241 . S
C92 O85 1.247 . S
C92 O86 1.261 . S
C93 O88 1.259 . S
C93 O90 1.235 . S
O94 Co84 2.021 . S
O94 C91 1.238 . S
O95 Co89 2.052 . S
O95 C91 1.241 . S
O96 Co84 2.137 . S
O96 C87 1.247 . S
O97 Co84 2.244 . S
O97 C87 1.272 . S
O97 Co89 2.135 . S
Co98 O99 2.216 . S
Co98 O100 2.091 . S
Co98 O102 2.004 . S
Co98 O108 2.021 . S
Co98 O110 2.137 . S
Co98 O111 2.244 . S
O99 Co98 2.216 . S
O99 C106 1.247 . S
O100 Co98 2.091 . S
O100 C106 1.261 . S
C101 O110 1.247 . S
C101 O111 1.272 . S
O102 Co98 2.004 . S
O102 C107 1.259 1_545 S
Co103 O104 2.061 1_655 S
Co103 O109 2.052 1_655 S
Co103 O111 2.135 1_665 S
O104 Co103 2.061 1_455 S
O104 C107 1.235 . S
C105 O108 1.238 . S
C105 O109 1.241 1_545 S
C106 O99 1.247 . S
C106 O100 1.261 . S
C107 O102 1.259 1_565 S
C107 O104 1.235 . S
O108 Co98 2.021 . S
O108 C105 1.238 . S
O109 Co103 2.052 1_455 S
O109 C105 1.241 1_565 S
O110 Co98 2.137 . S
O110 C101 1.247 . S
O111 Co98 2.244 . S
O111 C101 1.272 . S
O111 Co103 2.135 1_445 S
Co112 O113 2.216 . S
Co112 O114 2.091 . S
Co112 O116 2.004 . S
Co112 O122 2.021 . S
Co112 O124 2.137 . S
Co112 O125 2.244 . S
O113 Co112 2.216 . S
O113 C120 1.247 . S
O114 Co112 2.091 . S
O114 C120 1.261 . S
C115 O124 1.247 . S
C115 O125 1.272 . S
O116 Co112 2.004 . S
O116 C121 1.259 . S
Co117 O118 2.061 . S
Co117 O123 2.052 . S
Co117 O125 2.135 . S
O118 Co117 2.061 . S
O118 C121 1.235 . S
C119 O122 1.238 . S
C119 O123 1.241 . S
C120 O113 1.247 . S
C120 O114 1.261 . S
C121 O116 1.259 . S
C121 O118 1.235 . S
O122 Co112 2.021 . S
O122 C119 1.238 . S
O123 Co117 2.052 . S
O123 C119 1.241 . S
O124 Co112 2.137 . S
O124 C115 1.247 . S
O125 Co112 2.244 . S
O125 C115 1.272 . S
O125 Co117 2.135 . S
Co126 O127 2.216 . S
Co126 O128 2.091 . S
Co126 O130 2.004 . S
Co126 O136 2.021 . S
Co126 O138 2.137 . S
Co126 O139 2.244 . S
O127 Co126 2.216 . S
O127 C134 1.247 . S
O128 Co126 2.091 . S
O128 C134 1.261 . S
C129 O138 1.247 . S
C129 O139 1.272 . S
O130 Co126 2.004 . S
O130 C135 1.259 1_455 S
Co131 O132 2.061 . S
Co131 O137 2.052 . S
Co131 O139 2.135 1_655 S
O132 Co131 2.061 . S
O132 C135 1.235 . S
C133 O136 1.238 . S
C133 O137 1.241 1_455 S
C134 O127 1.247 . S
C134 O128 1.261 . S
C135 O130 1.259 1_655 S
C135 O132 1.235 . S
O136 Co126 2.021 . S
O136 C133 1.238 . S
O137 Co131 2.052 . S
O137 C133 1.241 1_655 S
O138 Co126 2.137 . S
O138 C129 1.247 . S
O139 Co126 2.244 . S
O139 C129 1.272 . S
O139 Co131 2.135 1_455 S
Co140 O141 2.216 . S
Co140 O142 2.091 . S
Co140 O144 2.004 . S
Co140 O150 2.021 . S
Co140 O152 2.137 . S
Co140 O153 2.244 . S
O141 Co140 2.216 . S
O141 C148 1.247 . S
O142 Co140 2.091 . S
O142 C148 1.261 . S
C143 O152 1.247 . S
C143 O153 1.272 . S
O144 Co140 2.004 . S
O144 C149 1.259 . S
Co145 O146 2.061 . S
Co145 O151 2.052 . S
Co145 O153 2.135 . S
O146 Co145 2.061 . S
O146 C149 1.235 . S
C147 O150 1.238 . S
C147 O151 1.241 . S
C148 O141 1.247 . S
C148 O142 1.261 . S
C149 O144 1.259 . S
C149 O146 1.235 . S
O150 Co140 2.021 . S
O150 C147 1.238 . S
O151 Co145 2.052 . S
O151 C147 1.241 . S
O152 Co140 2.137 . S
O152 C143 1.247 . S
O153 Co140 2.244 . S
O153 C143 1.272 . S
O153 Co145 2.135 . S
Co154 O155 2.216 . S
Co154 O156 2.091 . S
Co154 O158 2.004 . S
Co154 O164 2.021 . S
Co154 O166 2.137 . S
Co154 O167 2.244 . S
O155 Co154 2.216 . S
O155 C162 1.247 . S
O156 Co154 2.091 . S
O156 C162 1.261 . S
C157 O166 1.247 . S
C157 O167 1.272 . S
O158 Co154 2.004 . S
O158 C163 1.259 . S
Co159 O160 2.061 1_554 S
Co159 O165 2.052 1_554 S
Co159 O167 2.135 1_554 S
O160 Co159 2.061 1_556 S
O160 C163 1.235 . S
C161 O164 1.238 . S
C161 O165 1.241 . S
C162 O155 1.247 . S
C162 O156 1.261 . S
C163 O158 1.259 . S
C163 O160 1.235 . S
O164 Co154 2.021 . S
O164 C161 1.238 . S
O165 Co159 2.052 1_556 S
O165 C161 1.241 . S
O166 Co154 2.137 . S
O166 C157 1.247 . S
O167 Co154 2.244 . S
O167 C157 1.272 . S
O167 Co159 2.135 1_556 S
Co168 O169 2.216 . S
Co168 O170 2.091 . S
Co168 O172 2.004 . S
Co168 O178 2.021 . S
Co168 O180 2.137 . S
Co168 O181 2.244 . S
O169 Co168 2.216 . S
O169 C176 1.247 . S
O170 Co168 2.091 . S
O170 C176 1.261 . S
C171 O180 1.247 . S
C171 O181 1.272 . S
O172 Co168 2.004 . S
O172 C177 1.259 . S
Co173 O174 2.061 . S
Co173 O179 2.052 . S
Co173 O181 2.135 . S
O174 Co173 2.061 . S
O174 C177 1.235 . S
C175 O178 1.238 . S
C175 O179 1.241 . S
C176 O169 1.247 . S
C176 O170 1.261 . S
C177 O172 1.259 . S
C177 O174 1.235 . S
O178 Co168 2.021 . S
O178 C175 1.238 . S
O179 Co173 2.052 . S
O179 C175 1.241 . S
O180 Co168 2.137 . S
O180 C171 1.247 . S
O181 Co168 2.244 . S
O181 C171 1.272 . S
O181 Co173 2.135 . S
Co182 O183 2.216 . S
Co182 O184 2.091 . S
Co182 O186 2.004 . S
Co182 O192 2.021 . S
Co182 O194 2.137 . S
Co182 O195 2.244 . S
O183 Co182 2.216 . S
O183 C190 1.247 . S
O184 Co182 2.091 . S
O184 C190 1.261 . S
C185 O194 1.247 . S
C185 O195 1.272 . S
O186 Co182 2.004 . S
O186 C191 1.259 . S
Co187 O188 2.061 . S
Co187 O193 2.052 . S
Co187 O195 2.135 . S
O188 Co187 2.061 . S
O188 C191 1.235 . S
C189 O192 1.238 . S
C189 O193 1.241 . S
C190 O183 1.247 . S
C190 O184 1.261 . S
C191 O186 1.259 . S
C191 O188 1.235 . S
O192 Co182 2.021 . S
O192 C189 1.238 . S
O193 Co187 2.052 . S
O193 C189 1.241 . S
O194 Co182 2.137 . S
O194 C185 1.247 . S
O195 Co182 2.244 . S
O195 C185 1.272 . S
O195 Co187 2.135 . S
Co196 O197 2.216 . S
Co196 O198 2.091 . S
Co196 O200 2.004 . S
Co196 O206 2.021 . S
Co196 O208 2.137 . S
Co196 O209 2.244 . S
O197 Co196 2.216 . S
O197 C204 1.247 . S
O198 Co196 2.091 . S
O198 C204 1.261 . S
C199 O208 1.247 . S
C199 O209 1.272 . S
O200 Co196 2.004 . S
O200 C205 1.259 . S
Co201 O202 2.061 . S
Co201 O207 2.052 . S
Co201 O209 2.135 . S
O202 Co201 2.061 . S
O202 C205 1.235 . S
C203 O206 1.238 . S
C203 O207 1.241 . S
C204 O197 1.247 . S
C204 O198 1.261 . S
C205 O200 1.259 . S
C205 O202 1.235 . S
O206 Co196 2.021 . S
O206 C203 1.238 . S
O207 Co201 2.052 . S
O207 C203 1.241 . S
O208 Co196 2.137 . S
O208 C199 1.247 . S
O209 Co196 2.244 . S
O209 C199 1.272 . S
O209 Co201 2.135 . S
Co210 O211 2.216 . S
Co210 O212 2.091 . S
Co210 O214 2.004 . S
Co210 O220 2.021 . S
Co210 O222 2.137 . S
Co210 O223 2.244 . S
O211 Co210 2.216 . S
O211 C218 1.247 . S
O212 Co210 2.091 . S
O212 C218 1.261 . S
C213 O222 1.247 . S
C213 O223 1.272 . S
O214 Co210 2.004 . S
O214 C219 1.259 1_455 S
Co215 O216 2.061 1_556 S
Co215 O221 2.052 1_556 S
Co215 O223 2.135 1_656 S
O216 Co215 2.061 1_554 S
O216 C219 1.235 . S
C217 O220 1.238 . S
C217 O221 1.241 1_455 S
C218 O211 1.247 . S
C218 O212 1.261 . S
C219 O214 1.259 1_655 S
C219 O216 1.235 . S
O220 Co210 2.021 . S
O220 C217 1.238 . S
O221 Co215 2.052 1_554 S
O221 C217 1.241 1_655 S
O222 Co210 2.137 . S
O222 C213 1.247 . S
O223 Co210 2.244 . S
O223 C213 1.272 . S
O223 Co215 2.135 1_454 S
Co224 O225 2.216 . S
Co224 O226 2.091 . S
Co224 O228 2.004 . S
Co224 O234 2.021 . S
Co224 O236 2.137 . S
Co224 O237 2.244 . S
O225 Co224 2.216 . S
O225 C232 1.247 . S
O226 Co224 2.091 . S
O226 C232 1.261 . S
C227 O236 1.247 . S
C227 O237 1.272 . S
O228 Co224 2.004 . S
O228 C233 1.259 . S
Co229 O230 2.061 . S
Co229 O235 2.052 . S
Co229 O237 2.135 . S
O230 Co229 2.061 . S
O230 C233 1.235 . S
C231 O234 1.238 . S
C231 O235 1.241 . S
C232 O225 1.247 . S
C232 O226 1.261 . S
C233 O228 1.259 . S
C233 O230 1.235 . S
O234 Co224 2.021 . S
O234 C231 1.238 . S
O235 Co229 2.052 . S
O235 C231 1.241 . S
O236 Co224 2.137 . S
O236 C227 1.247 . S
O237 Co224 2.244 . S
O237 C227 1.272 . S
O237 Co229 2.135 . S
Co238 O239 2.216 . S
Co238 O240 2.091 . S
Co238 O242 2.004 . S
Co238 O248 2.021 . S
Co238 O250 2.137 . S
Co238 O251 2.244 . S
O239 Co238 2.216 . S
O239 C246 1.247 . S
O240 Co238 2.091 . S
O240 C246 1.261 . S
C241 O250 1.247 . S
C241 O251 1.272 . S
O242 Co238 2.004 . S
O242 C247 1.259 . S
Co243 O244 2.061 . S
Co243 O249 2.052 . S
Co243 O251 2.135 . S
O244 Co243 2.061 . S
O244 C247 1.235 . S
C245 O248 1.238 . S
C245 O249 1.241 . S
C246 O239 1.247 . S
C246 O240 1.261 . S
C247 O242 1.259 . S
C247 O244 1.235 . S
O248 Co238 2.021 . S
O248 C245 1.238 . S
O249 Co243 2.052 . S
O249 C245 1.241 . S
O250 Co238 2.137 . S
O250 C241 1.247 . S
O251 Co238 2.244 . S
O251 C241 1.272 . S
O251 Co243 2.135 . S
Co252 O253 2.216 . S
Co252 O254 2.091 . S
Co252 O256 2.004 . S
Co252 O262 2.021 . S
Co252 O264 2.137 . S
Co252 O265 2.244 . S
O253 Co252 2.216 . S
O253 C260 1.247 . S
O254 Co252 2.091 . S
O254 C260 1.261 . S
C255 O264 1.247 . S
C255 O265 1.272 . S
O256 Co252 2.004 . S
O256 C261 1.259 1_554 S
Co257 O258 2.061 . S
Co257 O263 2.052 . S
Co257 O265 2.135 1_556 S
O258 Co257 2.061 . S
O258 C261 1.235 . S
C259 O262 1.238 . S
C259 O263 1.241 1_554 S
C260 O253 1.247 . S
C260 O254 1.261 . S
C261 O256 1.259 1_556 S
C261 O258 1.235 . S
O262 Co252 2.021 . S
O262 C259 1.238 . S
O263 Co257 2.052 . S
O263 C259 1.241 1_556 S
O264 Co252 2.137 . S
O264 C255 1.247 . S
O265 Co252 2.244 . S
O265 C255 1.272 . S
O265 Co257 2.135 1_554 S
Co266 O267 2.216 . S
Co266 O268 2.091 . S
Co266 O270 2.004 . S
Co266 O276 2.021 . S
Co266 O278 2.137 . S
Co266 O279 2.244 . S
O267 Co266 2.216 . S
O267 C274 1.247 . S
O268 Co266 2.091 . S
O268 C274 1.261 . S
C269 O278 1.247 . S
C269 O279 1.272 . S
O270 Co266 2.004 . S
O270 C275 1.259 . S
Co271 O272 2.061 . S
Co271 O277 2.052 . S
Co271 O279 2.135 . S
O272 Co271 2.061 . S
O272 C275 1.235 . S
C273 O276 1.238 . S
C273 O277 1.241 . S
C274 O267 1.247 . S
C274 O268 1.261 . S
C275 O270 1.259 . S
C275 O272 1.235 . S
O276 Co266 2.021 . S
O276 C273 1.238 . S
O277 Co271 2.052 . S
O277 C273 1.241 . S
O278 Co266 2.137 . S
O278 C269 1.247 . S
O279 Co266 2.244 . S
O279 C269 1.272 . S
O279 Co271 2.135 . S
Co280 O281 2.216 . S
Co280 O282 2.091 . S
Co280 O284 2.004 . S
Co280 O290 2.021 . S
Co280 O292 2.137 . S
Co280 O293 2.244 . S
O281 Co280 2.216 . S
O281 C288 1.247 . S
O282 Co280 2.091 . S
O282 C288 1.261 . S
C283 O292 1.247 . S
C283 O293 1.272 . S
O284 Co280 2.004 . S
O284 C289 1.259 1_554 S
Co285 O286 2.061 1_565 S
Co285 O291 2.052 1_565 S
Co285 O293 2.135 1_566 S
O286 Co285 2.061 1_545 S
O286 C289 1.235 . S
C287 O290 1.238 . S
C287 O291 1.241 1_554 S
C288 O281 1.247 . S
C288 O282 1.261 . S
C289 O284 1.259 1_556 S
C289 O286 1.235 . S
O290 Co280 2.021 . S
O290 C287 1.238 . S
O291 Co285 2.052 1_545 S
O291 C287 1.241 1_556 S
O292 Co280 2.137 . S
O292 C283 1.247 . S
O293 Co280 2.244 . S
O293 C283 1.272 . S
O293 Co285 2.135 1_544 S
Co294 O295 2.216 . S
Co294 O296 2.091 . S
Co294 O298 2.004 . S
Co294 O304 2.021 . S
Co294 O306 2.137 . S
Co294 O307 2.244 . S
O295 Co294 2.216 . S
O295 C302 1.247 . S
O296 Co294 2.091 . S
O296 C302 1.261 . S
C297 O306 1.247 . S
C297 O307 1.272 . S
O298 Co294 2.004 . S
O298 C303 1.259 . S
Co299 O300 2.061 . S
Co299 O305 2.052 . S
Co299 O307 2.135 . S
O300 Co299 2.061 . S
O300 C303 1.235 . S
C301 O304 1.238 . S
C301 O305 1.241 . S
C302 O295 1.247 . S
C302 O296 1.261 . S
C303 O298 1.259 . S
C303 O300 1.235 . S
O304 Co294 2.021 . S
O304 C301 1.238 . S
O305 Co299 2.052 . S
O305 C301 1.241 . S
O306 Co294 2.137 . S
O306 C297 1.247 . S
O307 Co294 2.244 . S
O307 C297 1.272 . S
O307 Co299 2.135 . S
Co308 O309 2.216 . S
Co308 O310 2.091 . S
Co308 O312 2.004 . S
Co308 O318 2.021 . S
Co308 O320 2.137 . S
Co308 O321 2.244 . S
O309 Co308 2.216 . S
O309 C316 1.247 . S
O310 Co308 2.091 . S
O310 C316 1.261 . S
C311 O320 1.247 . S
C311 O321 1.272 . S
O312 Co308 2.004 . S
O312 C317 1.259 . S
Co313 O314 2.061 . S
Co313 O319 2.052 . S
Co313 O321 2.135 . S
O314 Co313 2.061 . S
O314 C317 1.235 . S
C315 O318 1.238 . S
C315 O319 1.241 . S
C316 O309 1.247 . S
C316 O310 1.261 . S
C317 O312 1.259 . S
C317 O314 1.235 . S
O318 Co308 2.021 . S
O318 C315 1.238 . S
O319 Co313 2.052 . S
O319 C315 1.241 . S
O320 Co308 2.137 . S
O320 C311 1.247 . S
O321 Co308 2.244 . S
O321 C311 1.272 . S
O321 Co313 2.135 . S
Co322 O323 2.216 . S
Co322 O324 2.091 . S
Co322 O326 2.004 . S
Co322 O332 2.021 . S
Co322 O334 2.137 . S
Co322 O335 2.244 . S
O323 Co322 2.216 . S
O323 C330 1.247 . S
O324 Co322 2.091 . S
O324 C330 1.261 . S
C325 O334 1.247 . S
C325 O335 1.272 . S
O326 Co322 2.004 . S
O326 C331 1.259 1_556 S
Co327 O328 2.061 . S
Co327 O333 2.052 . S
Co327 O335 2.135 1_554 S
O328 Co327 2.061 . S
O328 C331 1.235 . S
C329 O332 1.238 . S
C329 O333 1.241 1_556 S
C330 O323 1.247 . S
C330 O324 1.261 . S
C331 O326 1.259 1_554 S
C331 O328 1.235 . S
O332 Co322 2.021 . S
O332 C329 1.238 . S
O333 Co327 2.052 . S
O333 C329 1.241 1_554 S
O334 Co322 2.137 . S
O334 C325 1.247 . S
O335 Co322 2.244 . S
O335 C325 1.272 . S
O335 Co327 2.135 1_556 S
Co336 O337 2.216 . S
Co336 O338 2.091 . S
Co336 O340 2.004 . S
Co336 O346 2.021 . S
Co336 O348 2.137 . S
Co336 O349 2.244 . S
O337 Co336 2.216 . S
O337 C344 1.247 . S
O338 Co336 2.091 . S
O338 C344 1.261 . S
C339 O348 1.247 . S
C339 O349 1.272 . S
O340 Co336 2.004 . S
O340 C345 1.259 . S
Co341 O342 2.061 . S
Co341 O347 2.052 . S
Co341 O349 2.135 . S
O342 Co341 2.061 . S
O342 C345 1.235 . S
C343 O346 1.238 . S
C343 O347 1.241 . S
C344 O337 1.247 . S
C344 O338 1.261 . S
C345 O340 1.259 . S
C345 O342 1.235 . S
O346 Co336 2.021 . S
O346 C343 1.238 . S
O347 Co341 2.052 . S
O347 C343 1.241 . S
O348 Co336 2.137 . S
O348 C339 1.247 . S
O349 Co336 2.244 . S
O349 C339 1.272 . S
O349 Co341 2.135 . S
Co350 O351 2.216 . S
Co350 O352 2.091 . S
Co350 O354 2.004 . S
Co350 O360 2.021 . S
Co350 O362 2.137 . S
Co350 O363 2.244 . S
O351 Co350 2.216 . S
O351 C358 1.247 . S
O352 Co350 2.091 . S
O352 C358 1.261 . S
C353 O362 1.247 . S
C353 O363 1.272 . S
O354 Co350 2.004 . S
O354 C359 1.259 . S
Co355 O356 2.061 . S
Co355 O361 2.052 . S
Co355 O363 2.135 . S
O356 Co355 2.061 . S
O356 C359 1.235 . S
C357 O360 1.238 . S
C357 O361 1.241 . S
C358 O351 1.247 . S
C358 O352 1.261 . S
C359 O354 1.259 . S
C359 O356 1.235 . S
O360 Co350 2.021 . S
O360 C357 1.238 . S
O361 Co355 2.052 . S
O361 C357 1.241 . S
O362 Co350 2.137 . S
O362 C353 1.247 . S
O363 Co350 2.244 . S
O363 C353 1.272 . S
O363 Co355 2.135 . S
Co364 O365 2.216 . S
Co364 O366 2.091 . S
Co364 O368 2.004 . S
Co364 O374 2.021 . S
Co364 O376 2.137 . S
Co364 O377 2.244 . S
O365 Co364 2.216 . S
O365 C372 1.247 . S
O366 Co364 2.091 . S
O366 C372 1.261 . S
C367 O376 1.247 . S
C367 O377 1.272 . S
O368 Co364 2.004 . S
O368 C373 1.259 . S
Co369 O370 2.061 . S
Co369 O375 2.052 . S
Co369 O377 2.135 . S
O370 Co369 2.061 . S
O370 C373 1.235 . S
C371 O374 1.238 . S
C371 O375 1.241 . S
C372 O365 1.247 . S
C372 O366 1.261 . S
C373 O368 1.259 . S
C373 O370 1.235 . S
O374 Co364 2.021 . S
O374 C371 1.238 . S
O375 Co369 2.052 . S
O375 C371 1.241 . S
O376 Co364 2.137 . S
O376 C367 1.247 . S
O377 Co364 2.244 . S
O377 C367 1.272 . S
O377 Co369 2.135 . S
Co378 O379 2.216 . S
Co378 O380 2.091 . S
Co378 O382 2.004 . S
Co378 O388 2.021 . S
Co378 O390 2.137 . S
Co378 O391 2.244 . S
O379 Co378 2.216 . S
O379 C386 1.247 . S
O380 Co378 2.091 . S
O380 C386 1.261 . S
C381 O390 1.247 . S
C381 O391 1.272 . S
O382 Co378 2.004 . S
O382 C387 1.259 . S
Co383 O384 2.061 1_455 S
Co383 O389 2.052 1_455 S
Co383 O391 2.135 1_455 S
O384 Co383 2.061 1_655 S
O384 C387 1.235 . S
C385 O388 1.238 . S
C385 O389 1.241 . S
C386 O379 1.247 . S
C386 O380 1.261 . S
C387 O382 1.259 . S
C387 O384 1.235 . S
O388 Co378 2.021 . S
O388 C385 1.238 . S
O389 Co383 2.052 1_655 S
O389 C385 1.241 . S
O390 Co378 2.137 . S
O390 C381 1.247 . S
O391 Co378 2.244 . S
O391 C381 1.272 . S
O391 Co383 2.135 1_655 S
Co392 O393 2.216 . S
Co392 O394 2.091 . S
Co392 O396 2.004 . S
Co392 O402 2.021 . S
Co392 O404 2.137 . S
Co392 O405 2.244 . S
O393 Co392 2.216 . S
O393 C400 1.247 . S
O394 Co392 2.091 . S
O394 C400 1.261 . S
C395 O404 1.247 . S
C395 O405 1.272 . S
O396 Co392 2.004 . S
O396 C401 1.259 . S
Co397 O398 2.061 . S
Co397 O403 2.052 . S
Co397 O405 2.135 . S
O398 Co397 2.061 . S
O398 C401 1.235 . S
C399 O402 1.238 . S
C399 O403 1.241 . S
C400 O393 1.247 . S
C400 O394 1.261 . S
C401 O396 1.259 . S
C401 O398 1.235 . S
O402 Co392 2.021 . S
O402 C399 1.238 . S
O403 Co397 2.052 . S
O403 C399 1.241 . S
O404 Co392 2.137 . S
O404 C395 1.247 . S
O405 Co392 2.244 . S
O405 C395 1.272 . S
O405 Co397 2.135 . S
Co406 O407 2.216 . S
Co406 O408 2.091 . S
Co406 O410 2.004 . S
Co406 O416 2.021 . S
Co406 O418 2.137 . S
Co406 O419 2.244 . S
O407 Co406 2.216 . S
O407 C414 1.247 . S
O408 Co406 2.091 . S
O408 C414 1.261 . S
C409 O418 1.247 . S
C409 O419 1.272 . S
O410 Co406 2.004 . S
O410 C415 1.259 . S
Co411 O412 2.061 1_455 S
Co411 O417 2.052 1_455 S
Co411 O419 2.135 1_455 S
O412 Co411 2.061 1_655 S
O412 C415 1.235 . S
C413 O416 1.238 . S
C413 O417 1.241 . S
C414 O407 1.247 . S
C414 O408 1.261 . S
C415 O410 1.259 . S
C415 O412 1.235 . S
O416 Co406 2.021 . S
O416 C413 1.238 . S
O417 Co411 2.052 1_655 S
O417 C413 1.241 . S
O418 Co406 2.137 . S
O418 C409 1.247 . S
O419 Co406 2.244 . S
O419 C409 1.272 . S
O419 Co411 2.135 1_655 S
Co420 O421 2.216 . S
Co420 O422 2.091 . S
Co420 O424 2.004 . S
Co420 O430 2.021 . S
Co420 O432 2.137 . S
Co420 O433 2.244 . S
O421 Co420 2.216 . S
O421 C428 1.247 . S
O422 Co420 2.091 . S
O422 C428 1.261 . S
C423 O432 1.247 . S
C423 O433 1.272 . S
O424 Co420 2.004 . S
O424 C429 1.259 . S
Co425 O426 2.061 . S
Co425 O431 2.052 . S
Co425 O433 2.135 . S
O426 Co425 2.061 . S
O426 C429 1.235 . S
C427 O430 1.238 . S
C427 O431 1.241 . S
C428 O421 1.247 . S
C428 O422 1.261 . S
C429 O424 1.259 . S
C429 O426 1.235 . S
O430 Co420 2.021 . S
O430 C427 1.238 . S
O431 Co425 2.052 . S
O431 C427 1.241 . S
O432 Co420 2.137 . S
O432 C423 1.247 . S
O433 Co420 2.244 . S
O433 C423 1.272 . S
O433 Co425 2.135 . S
Co434 O435 2.216 . S
Co434 O436 2.091 . S
Co434 O438 2.004 . S
Co434 O444 2.021 . S
Co434 O446 2.137 . S
Co434 O447 2.244 . S
O435 Co434 2.216 . S
O435 C442 1.247 . S
O436 Co434 2.091 . S
O436 C442 1.261 . S
C437 O446 1.247 . S
C437 O447 1.272 . S
O438 Co434 2.004 . S
O438 C443 1.259 . S
Co439 O440 2.061 . S
Co439 O445 2.052 . S
Co439 O447 2.135 . S
O440 Co439 2.061 . S
O440 C443 1.235 . S
C441 O444 1.238 . S
C441 O445 1.241 . S
C442 O435 1.247 . S
C442 O436 1.261 . S
C443 O438 1.259 . S
C443 O440 1.235 . S
O444 Co434 2.021 . S
O444 C441 1.238 . S
O445 Co439 2.052 . S
O445 C441 1.241 . S
O446 Co434 2.137 . S
O446 C437 1.247 . S
O447 Co434 2.244 . S
O447 C437 1.272 . S
O447 Co439 2.135 . S
Co448 O449 2.216 . S
Co448 O450 2.091 . S
Co448 O452 2.004 . S
Co448 O458 2.021 . S
Co448 O460 2.137 . S
Co448 O461 2.244 . S
O449 Co448 2.216 . S
O449 C456 1.247 . S
O450 Co448 2.091 . S
O450 C456 1.261 . S
C451 O460 1.247 . S
C451 O461 1.272 . S
O452 Co448 2.004 . S
O452 C457 1.259 . S
Co453 O454 2.061 . S
Co453 O459 2.052 . S
Co453 O461 2.135 . S
O454 Co453 2.061 . S
O454 C457 1.235 . S
C455 O458 1.238 . S
C455 O459 1.241 . S
C456 O449 1.247 . S
C456 O450 1.261 . S
C457 O452 1.259 . S
C457 O454 1.235 . S
O458 Co448 2.021 . S
O458 C455 1.238 . S
O459 Co453 2.052 . S
O459 C455 1.241 . S
O460 Co448 2.137 . S
O460 C451 1.247 . S
O461 Co448 2.244 . S
O461 C451 1.272 . S
O461 Co453 2.135 . S
Co462 O463 2.216 . S
Co462 O464 2.091 . S
Co462 O466 2.004 . S
Co462 O472 2.021 . S
Co462 O474 2.137 . S
Co462 O475 2.244 . S
O463 Co462 2.216 . S
O463 C470 1.247 . S
O464 Co462 2.091 . S
O464 C470 1.261 . S
C465 O474 1.247 . S
C465 O475 1.272 . S
O466 Co462 2.004 . S
O466 C471 1.259 . S
Co467 O468 2.061 1_554 S
Co467 O473 2.052 1_554 S
Co467 O475 2.135 1_554 S
O468 Co467 2.061 1_556 S
O468 C471 1.235 . S
C469 O472 1.238 . S
C469 O473 1.241 . S
C470 O463 1.247 . S
C470 O464 1.261 . S
C471 O466 1.259 . S
C471 O468 1.235 . S
O472 Co462 2.021 . S
O472 C469 1.238 . S
O473 Co467 2.052 1_556 S
O473 C469 1.241 . S
O474 Co462 2.137 . S
O474 C465 1.247 . S
O475 Co462 2.244 . S
O475 C465 1.272 . S
O475 Co467 2.135 1_556 S
Co476 O477 2.216 . S
Co476 O478 2.091 . S
Co476 O480 2.004 . S
Co476 O486 2.021 . S
Co476 O488 2.137 . S
Co476 O489 2.244 . S
O477 Co476 2.216 . S
O477 C484 1.247 . S
O478 Co476 2.091 . S
O478 C484 1.261 . S
C479 O488 1.247 . S
C479 O489 1.272 . S
O480 Co476 2.004 . S
O480 C485 1.259 . S
Co481 O482 2.061 . S
Co481 O487 2.052 . S
Co481 O489 2.135 . S
O482 Co481 2.061 . S
O482 C485 1.235 . S
C483 O486 1.238 . S
C483 O487 1.241 . S
C484 O477 1.247 . S
C484 O478 1.261 . S
C485 O480 1.259 . S
C485 O482 1.235 . S
O486 Co476 2.021 . S
O486 C483 1.238 . S
O487 Co481 2.052 . S
O487 C483 1.241 . S
O488 Co476 2.137 . S
O488 C479 1.247 . S
O489 Co476 2.244 . S
O489 C479 1.272 . S
O489 Co481 2.135 . S
Co490 O491 2.216 . S
Co490 O492 2.091 . S
Co490 O494 2.004 . S
Co490 O500 2.021 . S
Co490 O502 2.137 . S
Co490 O503 2.244 . S
O491 Co490 2.216 . S
O491 C498 1.247 . S
O492 Co490 2.091 . S
O492 C498 1.261 . S
C493 O502 1.247 . S
C493 O503 1.272 . S
O494 Co490 2.004 . S
O494 C499 1.259 1_655 S
Co495 O496 2.061 . S
Co495 O501 2.052 . S
Co495 O503 2.135 1_455 S
O496 Co495 2.061 . S
O496 C499 1.235 . S
C497 O500 1.238 . S
C497 O501 1.241 1_655 S
C498 O491 1.247 . S
C498 O492 1.261 . S
C499 O494 1.259 1_455 S
C499 O496 1.235 . S
O500 Co490 2.021 . S
O500 C497 1.238 . S
O501 Co495 2.052 . S
O501 C497 1.241 1_455 S
O502 Co490 2.137 . S
O502 C493 1.247 . S
O503 Co490 2.244 . S
O503 C493 1.272 . S
O503 Co495 2.135 1_655 S
Co504 O505 2.216 . S
Co504 O506 2.091 . S
Co504 O508 2.004 . S
Co504 O514 2.021 . S
Co504 O516 2.137 . S
Co504 O517 2.244 . S
O505 Co504 2.216 . S
O505 C512 1.247 . S
O506 Co504 2.091 . S
O506 C512 1.261 . S
C507 O516 1.247 . S
C507 O517 1.272 . S
O508 Co504 2.004 . S
O508 C513 1.259 . S
Co509 O510 2.061 . S
Co509 O515 2.052 . S
Co509 O517 2.135 . S
O510 Co509 2.061 . S
O510 C513 1.235 . S
C511 O514 1.238 . S
C511 O515 1.241 . S
C512 O505 1.247 . S
C512 O506 1.261 . S
C513 O508 1.259 . S
C513 O510 1.235 . S
O514 Co504 2.021 . S
O514 C511 1.238 . S
O515 Co509 2.052 . S
O515 C511 1.241 . S
O516 Co504 2.137 . S
O516 C507 1.247 . S
O517 Co504 2.244 . S
O517 C507 1.272 . S
O517 Co509 2.135 . S
Co518 O519 2.216 . S
Co518 O520 2.091 . S
Co518 O522 2.004 . S
Co518 O528 2.021 . S
Co518 O530 2.137 . S
Co518 O531 2.244 . S
O519 Co518 2.216 . S
O519 C526 1.247 . S
O520 Co518 2.091 . S
O520 C526 1.261 . S
C521 O530 1.247 . S
C521 O531 1.272 . S
O522 Co518 2.004 . S
O522 C527 1.259 1_655 S
Co523 O524 2.061 1_556 S
Co523 O529 2.052 1_556 S
Co523 O531 2.135 1_456 S
O524 Co523 2.061 1_554 S
O524 C527 1.235 . S
C525 O528 1.238 . S
C525 O529 1.241 1_655 S
C526 O519 1.247 . S
C526 O520 1.261 . S
C527 O522 1.259 1_455 S
C527 O524 1.235 . S
O528 Co518 2.021 . S
O528 C525 1.238 . S
O529 Co523 2.052 1_554 S
O529 C525 1.241 1_455 S
O530 Co518 2.137 . S
O530 C521 1.247 . S
O531 Co518 2.244 . S
O531 C521 1.272 . S
O531 Co523 2.135 1_654 S
Co532 O533 2.216 . S
Co532 O534 2.091 . S
Co532 O536 2.004 . S
Co532 O542 2.021 . S
Co532 O544 2.137 . S
Co532 O545 2.244 . S
O533 Co532 2.216 . S
O533 C540 1.247 . S
O534 Co532 2.091 . S
O534 C540 1.261 . S
C535 O544 1.247 . S
C535 O545 1.272 . S
O536 Co532 2.004 . S
O536 C541 1.259 . S
Co537 O538 2.061 . S
Co537 O543 2.052 . S
Co537 O545 2.135 . S
O538 Co537 2.061 . S
O538 C541 1.235 . S
C539 O542 1.238 . S
C539 O543 1.241 . S
C540 O533 1.247 . S
C540 O534 1.261 . S
C541 O536 1.259 . S
C541 O538 1.235 . S
O542 Co532 2.021 . S
O542 C539 1.238 . S
O543 Co537 2.052 . S
O543 C539 1.241 . S
O544 Co532 2.137 . S
O544 C535 1.247 . S
O545 Co532 2.244 . S
O545 C535 1.272 . S
O545 Co537 2.135 . S
Co546 O547 2.216 . S
Co546 O548 2.091 . S
Co546 O550 2.004 . S
Co546 O556 2.021 . S
Co546 O558 2.137 . S
Co546 O559 2.244 . S
O547 Co546 2.216 . S
O547 C554 1.247 . S
O548 Co546 2.091 . S
O548 C554 1.261 . S
C549 O558 1.247 . S
C549 O559 1.272 . S
O550 Co546 2.004 . S
O550 C555 1.259 . S
Co551 O552 2.061 . S
Co551 O557 2.052 . S
Co551 O559 2.135 . S
O552 Co551 2.061 . S
O552 C555 1.235 . S
C553 O556 1.238 . S
C553 O557 1.241 . S
C554 O547 1.247 . S
C554 O548 1.261 . S
C555 O550 1.259 . S
C555 O552 1.235 . S
O556 Co546 2.021 . S
O556 C553 1.238 . S
O557 Co551 2.052 . S
O557 C553 1.241 . S
O558 Co546 2.137 . S
O558 C549 1.247 . S
O559 Co546 2.244 . S
O559 C549 1.272 . S
O559 Co551 2.135 . S
Co560 O561 2.216 . S
Co560 O562 2.091 . S
Co560 O564 2.004 . S
Co560 O570 2.021 . S
Co560 O572 2.137 . S
Co560 O573 2.244 . S
O561 Co560 2.216 . S
O561 C568 1.247 . S
O562 Co560 2.091 . S
O562 C568 1.261 . S
C563 O572 1.247 . S
C563 O573 1.272 . S
O564 Co560 2.004 . S
O564 C569 1.259 . S
Co565 O566 2.061 . S
Co565 O571 2.052 . S
Co565 O573 2.135 . S
O566 Co565 2.061 . S
O566 C569 1.235 . S
C567 O570 1.238 . S
C567 O571 1.241 . S
C568 O561 1.247 . S
C568 O562 1.261 . S
C569 O564 1.259 . S
C569 O566 1.235 . S
O570 Co560 2.021 . S
O570 C567 1.238 . S
O571 Co565 2.052 . S
O571 C567 1.241 . S
O572 Co560 2.137 . S
O572 C563 1.247 . S
O573 Co560 2.244 . S
O573 C563 1.272 . S
O573 Co565 2.135 . S
Co574 O575 2.216 . S
Co574 O576 2.091 . S
Co574 O578 2.004 . S
Co574 O584 2.021 . S
Co574 O586 2.137 . S
Co574 O587 2.244 . S
O575 Co574 2.216 . S
O575 C582 1.247 . S
O576 Co574 2.091 . S
O576 C582 1.261 . S
C577 O586 1.247 . S
C577 O587 1.272 . S
O578 Co574 2.004 . S
O578 C583 1.259 . S
Co579 O580 2.061 . S
Co579 O585 2.052 . S
Co579 O587 2.135 . S
O580 Co579 2.061 . S
O580 C583 1.235 . S
C581 O584 1.238 . S
C581 O585 1.241 . S
C582 O575 1.247 . S
C582 O576 1.261 . S
C583 O578 1.259 . S
C583 O580 1.235 . S
O584 Co574 2.021 . S
O584 C581 1.238 . S
O585 Co579 2.052 . S
O585 C581 1.241 . S
O586 Co574 2.137 . S
O586 C577 1.247 . S
O587 Co574 2.244 . S
O587 C577 1.272 . S
O587 Co579 2.135 . S
Co588 O589 2.216 . S
Co588 O590 2.091 . S
Co588 O592 2.004 . S
Co588 O598 2.021 . S
Co588 O600 2.137 . S
Co588 O601 2.244 . S
O589 Co588 2.216 . S
O589 C596 1.247 . S
O590 Co588 2.091 . S
O590 C596 1.261 . S
C591 O600 1.247 . S
C591 O601 1.272 . S
O592 Co588 2.004 . S
O592 C597 1.259 . S
Co593 O594 2.061 1_545 S
Co593 O599 2.052 1_545 S
Co593 O601 2.135 1_545 S
O594 Co593 2.061 1_565 S
O594 C597 1.235 . S
C595 O598 1.238 . S
C595 O599 1.241 . S
C596 O589 1.247 . S
C596 O590 1.261 . S
C597 O592 1.259 . S
C597 O594 1.235 . S
O598 Co588 2.021 . S
O598 C595 1.238 . S
O599 Co593 2.052 1_565 S
O599 C595 1.241 . S
O600 Co588 2.137 . S
O600 C591 1.247 . S
O601 Co588 2.244 . S
O601 C591 1.272 . S
O601 Co593 2.135 1_565 S
Co602 O603 2.216 . S
Co602 O604 2.091 . S
Co602 O606 2.004 . S
Co602 O612 2.021 . S
Co602 O614 2.137 . S
Co602 O615 2.244 . S
O603 Co602 2.216 . S
O603 C610 1.247 . S
O604 Co602 2.091 . S
O604 C610 1.261 . S
C605 O614 1.247 . S
C605 O615 1.272 . S
O606 Co602 2.004 . S
O606 C611 1.259 . S
Co607 O608 2.061 . S
Co607 O613 2.052 . S
Co607 O615 2.135 . S
O608 Co607 2.061 . S
O608 C611 1.235 . S
C609 O612 1.238 . S
C609 O613 1.241 . S
C610 O603 1.247 . S
C610 O604 1.261 . S
C611 O606 1.259 . S
C611 O608 1.235 . S
O612 Co602 2.021 . S
O612 C609 1.238 . S
O613 Co607 2.052 . S
O613 C609 1.241 . S
O614 Co602 2.137 . S
O614 C605 1.247 . S
O615 Co602 2.244 . S
O615 C605 1.272 . S
O615 Co607 2.135 . S
Co616 O617 2.216 . S
Co616 O618 2.091 . S
Co616 O620 2.004 . S
Co616 O626 2.021 . S
Co616 O628 2.137 . S
Co616 O629 2.244 . S
O617 Co616 2.216 . S
O617 C624 1.247 . S
O618 Co616 2.091 . S
O618 C624 1.261 . S
C619 O628 1.247 . S
C619 O629 1.272 . S
O620 Co616 2.004 . S
O620 C625 1.259 . S
Co621 O622 2.061 . S
Co621 O627 2.052 . S
Co621 O629 2.135 . S
O622 Co621 2.061 . S
O622 C625 1.235 . S
C623 O626 1.238 . S
C623 O627 1.241 . S
C624 O617 1.247 . S
C624 O618 1.261 . S
C625 O620 1.259 . S
C625 O622 1.235 . S
O626 Co616 2.021 . S
O626 C623 1.238 . S
O627 Co621 2.052 . S
O627 C623 1.241 . S
O628 Co616 2.137 . S
O628 C619 1.247 . S
O629 Co616 2.244 . S
O629 C619 1.272 . S
O629 Co621 2.135 . S
Co630 O631 2.216 . S
Co630 O632 2.091 . S
Co630 O634 2.004 . S
Co630 O640 2.021 . S
Co630 O642 2.137 . S
Co630 O643 2.244 . S
O631 Co630 2.216 . S
O631 C638 1.247 . S
O632 Co630 2.091 . S
O632 C638 1.261 . S
C633 O642 1.247 . S
C633 O643 1.272 . S
O634 Co630 2.004 . S
O634 C639 1.259 . S
Co635 O636 2.061 . S
Co635 O641 2.052 . S
Co635 O643 2.135 . S
O636 Co635 2.061 . S
O636 C639 1.235 . S
C637 O640 1.238 . S
C637 O641 1.241 . S
C638 O631 1.247 . S
C638 O632 1.261 . S
C639 O634 1.259 . S
C639 O636 1.235 . S
O640 Co630 2.021 . S
O640 C637 1.238 . S
O641 Co635 2.052 . S
O641 C637 1.241 . S
O642 Co630 2.137 . S
O642 C633 1.247 . S
O643 Co630 2.244 . S
O643 C633 1.272 . S
O643 Co635 2.135 . S
Co644 O645 2.216 . S
Co644 O646 2.091 . S
Co644 O648 2.004 . S
Co644 O654 2.021 . S
Co644 O656 2.137 . S
Co644 O657 2.244 . S
O645 Co644 2.216 . S
O645 C652 1.247 . S
O646 Co644 2.091 . S
O646 C652 1.261 . S
C647 O656 1.247 . S
C647 O657 1.272 . S
O648 Co644 2.004 . S
O648 C653 1.259 1_556 S
Co649 O650 2.061 1_565 S
Co649 O655 2.052 1_565 S
Co649 O657 2.135 1_564 S
O650 Co649 2.061 1_545 S
O650 C653 1.235 . S
C651 O654 1.238 . S
C651 O655 1.241 1_556 S
C652 O645 1.247 . S
C652 O646 1.261 . S
C653 O648 1.259 1_554 S
C653 O650 1.235 . S
O654 Co644 2.021 . S
O654 C651 1.238 . S
O655 Co649 2.052 1_545 S
O655 C651 1.241 1_554 S
O656 Co644 2.137 . S
O656 C647 1.247 . S
O657 Co644 2.244 . S
O657 C647 1.272 . S
O657 Co649 2.135 1_546 S
Co658 O659 2.216 . S
Co658 O660 2.091 . S
Co658 O662 2.004 . S
Co658 O668 2.021 . S
Co658 O670 2.137 . S
Co658 O671 2.244 . S
O659 Co658 2.216 . S
O659 C666 1.247 . S
O660 Co658 2.091 . S
O660 C666 1.261 . S
C661 O670 1.247 . S
C661 O671 1.272 . S
O662 Co658 2.004 . S
O662 C667 1.259 . S
Co663 O664 2.061 1_545 S
Co663 O669 2.052 1_545 S
Co663 O671 2.135 1_545 S
O664 Co663 2.061 1_565 S
O664 C667 1.235 . S
C665 O668 1.238 . S
C665 O669 1.241 . S
C666 O659 1.247 . S
C666 O660 1.261 . S
C667 O662 1.259 . S
C667 O664 1.235 . S
O668 Co658 2.021 . S
O668 C665 1.238 . S
O669 Co663 2.052 1_565 S
O669 C665 1.241 . S
O670 Co658 2.137 . S
O670 C661 1.247 . S
O671 Co658 2.244 . S
O671 C661 1.272 . S
O671 Co663 2.135 1_565 S
H672 C684 0.930 . S
H673 C686 0.930 . S
H674 C687 0.930 . S
H675 C691 0.959 . S
H676 C691 0.959 . S
H677 C691 0.961 . S
H678 C692 0.960 . S
H679 C692 0.961 . S
H680 C692 0.959 . S
H681 C695 0.929 . S
H682 C696 0.931 . S
H683 C698 0.930 . S
C684 H672 0.930 . S
C684 C685 1.399 . S
C684 C689 1.399 . S
C685 C684 1.399 . S
C685 C686 1.376 . S
C686 H673 0.930 . S
C686 C685 1.376 . S
C686 C687 1.388 . S
C687 H674 0.930 . S
C687 C686 1.388 . S
C687 C688 1.390 . S
C688 C687 1.390 . S
C688 C689 1.394 . S
C688 C694 1.465 . S
C689 C684 1.399 . S
C689 C688 1.394 . S
C689 C690 1.516 . S
C690 C689 1.516 . S
C690 C691 1.502 . S
C690 C692 1.561 . S
C690 C693 1.526 . S
C691 H675 0.959 . S
C691 H676 0.959 . S
C691 H677 0.961 . S
C691 C690 1.502 . S
C692 H678 0.960 . S
C692 H679 0.961 . S
C692 H680 0.959 . S
C692 C690 1.561 . S
C693 C690 1.526 . S
C693 C694 1.396 . S
C693 C698 1.390 . S
C694 C688 1.465 . S
C694 C693 1.396 . S
C694 C695 1.399 . S
C695 H681 0.929 . S
C695 C694 1.399 . S
C695 C696 1.385 . S
C696 H682 0.931 . S
C696 C695 1.385 . S
C696 C697 1.389 . S
C697 C696 1.389 . S
C697 C698 1.387 . S
C698 H683 0.930 . S
C698 C693 1.390 . S
C698 C697 1.387 . S
H699 C711 0.930 . S
H700 C713 0.930 . S
H701 C714 0.930 . S
H702 C718 0.959 1_655 S
H703 C718 0.962 . S
H704 C718 0.955 1_655 S
H705 C719 0.960 . S
H706 C719 0.961 . S
H707 C719 0.959 . S
H708 C722 0.929 . S
H709 C723 0.931 . S
H710 C725 0.930 . S
C711 H699 0.930 . S
C711 C712 1.399 . S
C711 C716 1.399 . S
C712 C711 1.399 . S
C712 C713 1.376 1_565 S
C713 H700 0.930 . S
C713 C712 1.376 1_545 S
C713 C714 1.388 . S
C714 H701 0.930 . S
C714 C713 1.388 . S
C714 C715 1.390 . S
C715 C714 1.390 . S
C715 C716 1.394 1_545 S
C715 C721 1.465 . S
C716 C711 1.399 . S
C716 C715 1.394 1_565 S
C716 C717 1.516 . S
C717 C716 1.516 . S
C717 C718 1.502 . S
C717 C719 1.561 . S
C717 C720 1.526 . S
C718 H702 0.959 1_455 S
C718 H703 0.962 . S
C718 H704 0.955 1_455 S
C718 C717 1.502 . S
C719 H705 0.960 . S
C719 H706 0.961 . S
C719 H707 0.959 . S
C719 C717 1.561 . S
C720 C717 1.526 . S
C720 C721 1.396 1_565 S
C720 C725 1.390 . S
C721 C715 1.465 . S
C721 C720 1.396 1_545 S
C721 C722 1.399 . S
C722 H708 0.929 . S
C722 C721 1.399 . S
C722 C723 1.385 . S
C723 H709 0.931 . S
C723 C722 1.385 . S
C723 C724 1.389 . S
C724 C723 1.389 . S
C724 C725 1.387 1_545 S
C725 H710 0.930 . S
C725 C720 1.390 . S
C725 C724 1.387 1_565 S
H726 C738 0.930 . S
H727 C740 0.930 . S
H728 C741 0.930 . S
H729 C745 0.959 . S
H730 C745 0.959 1_554 S
H731 C745 0.961 . S
H732 C746 0.971 . S
H733 C746 0.951 1_554 S
H734 C746 0.957 1_554 S
H735 C749 0.929 . S
H736 C750 0.931 . S
H737 C752 0.930 . S
C738 H726 0.930 . S
C738 C739 1.399 . S
C738 C743 1.399 . S
C739 C738 1.399 . S
C739 C740 1.376 . S
C740 H727 0.930 . S
C740 C739 1.376 . S
C740 C741 1.388 . S
C741 H728 0.930 . S
C741 C740 1.388 . S
C741 C742 1.390 . S
C742 C741 1.390 . S
C742 C743 1.394 . S
C742 C748 1.465 1_556 S
C743 C738 1.399 . S
C743 C742 1.394 . S
C743 C744 1.555 . S
C744 C743 1.555 . S
C744 C745 1.505 . S
C744 C746 1.561 . S
C744 C747 1.485 1_556 S
C745 H729 0.959 . S
C745 H730 0.959 1_556 S
C745 H731 0.961 . S
C745 C744 1.505 . S
C746 H732 0.971 . S
C746 H733 0.951 1_556 S
C746 H734 0.957 1_556 S
C746 C744 1.561 . S
C747 C744 1.485 1_554 S
C747 C748 1.396 . S
C747 C752 1.390 . S
C748 C742 1.465 1_554 S
C748 C747 1.396 . S
C748 C749 1.399 . S
C749 H735 0.929 . S
C749 C748 1.399 . S
C749 C750 1.385 . S
C750 H736 0.931 . S
C750 C749 1.385 . S
C750 C751 1.389 . S
C751 C750 1.389 . S
C751 C752 1.387 . S
C752 H737 0.930 . S
C752 C747 1.390 . S
C752 C751 1.387 . S
H753 C765 0.930 . S
H754 C767 0.930 . S
H755 C768 0.930 . S
H756 C772 0.959 . S
H757 C772 0.959 . S
H758 C772 0.961 . S
H759 C773 0.960 . S
H760 C773 0.961 . S
H761 C773 0.959 1_565 S
H762 C776 0.929 . S
H763 C777 0.931 . S
H764 C779 0.930 . S
C765 H753 0.930 . S
C765 C766 1.399 1_545 S
C765 C770 1.399 . S
C766 C765 1.399 1_565 S
C766 C767 1.376 . S
C767 H754 0.930 . S
C767 C766 1.376 . S
C767 C768 1.388 . S
C768 H755 0.930 . S
C768 C767 1.388 . S
C768 C769 1.390 . S
C769 C768 1.390 . S
C769 C770 1.394 1_565 S
C769 C775 1.465 . S
C770 C765 1.399 . S
C770 C769 1.394 1_545 S
C770 C771 1.516 . S
C771 C770 1.516 . S
C771 C772 1.502 . S
C771 C773 1.561 . S
C771 C774 1.526 . S
C772 H756 0.959 . S
C772 H757 0.959 . S
C772 H758 0.961 . S
C772 C771 1.502 . S
C773 H759 0.960 . S
C773 H760 0.961 . S
C773 H761 0.959 1_545 S
C773 C771 1.561 . S
C774 C771 1.526 . S
C774 C775 1.396 1_545 S
C774 C779 1.390 . S
C775 C769 1.465 . S
C775 C774 1.396 1_565 S
C775 C776 1.399 . S
C776 H762 0.929 . S
C776 C775 1.399 . S
C776 C777 1.385 . S
C777 H763 0.931 . S
C777 C776 1.385 . S
C777 C778 1.389 1_565 S
C778 C777 1.389 1_545 S
C778 C779 1.387 . S
C779 H764 0.930 . S
C779 C774 1.390 . S
C779 C778 1.387 . S
H780 C792 0.930 . S
H781 C794 0.930 . S
H782 C795 0.930 . S
H783 C799 0.959 . S
H784 C799 0.959 . S
H785 C799 0.961 . S
H786 C800 0.960 . S
H787 C800 0.961 . S
H788 C800 0.959 . S
H789 C803 0.929 . S
H790 C804 0.931 . S
H791 C806 0.930 . S
C792 H780 0.930 . S
C792 C793 1.399 . S
C792 C797 1.399 . S
C793 C792 1.399 . S
C793 C794 1.376 . S
C794 H781 0.930 . S
C794 C793 1.376 . S
C794 C795 1.388 . S
C795 H782 0.930 . S
C795 C794 1.388 . S
C795 C796 1.390 . S
C796 C795 1.390 . S
C796 C797 1.394 . S
C796 C802 1.465 . S
C797 C792 1.399 . S
C797 C796 1.394 . S
C797 C798 1.516 . S
C798 C797 1.516 . S
C798 C799 1.502 . S
C798 C800 1.561 . S
C798 C801 1.526 . S
C799 H783 0.959 . S
C799 H784 0.959 . S
C799 H785 0.961 . S
C799 C798 1.502 . S
C800 H786 0.960 . S
C800 H787 0.961 . S
C800 H788 0.959 . S
C800 C798 1.561 . S
C801 C798 1.526 . S
C801 C802 1.396 . S
C801 C806 1.390 . S
C802 C796 1.465 . S
C802 C801 1.396 . S
C802 C803 1.399 . S
C803 H789 0.929 . S
C803 C802 1.399 . S
C803 C804 1.385 . S
C804 H790 0.931 . S
C804 C803 1.385 . S
C804 C805 1.389 . S
C805 C804 1.389 . S
C805 C806 1.387 . S
C806 H791 0.930 . S
C806 C801 1.390 . S
C806 C805 1.387 . S
H807 C819 0.930 . S
H808 C821 0.930 . S
H809 C822 0.930 . S
H810 C826 0.959 . S
H811 C826 0.959 . S
H812 C826 0.961 . S
H813 C827 0.960 . S
H814 C827 0.961 . S
H815 C827 0.959 . S
H816 C830 0.929 . S
H817 C831 0.931 . S
H818 C833 0.930 . S
C819 H807 0.930 . S
C819 C820 1.399 1_455 S
C819 C824 1.399 . S
C820 C819 1.399 1_655 S
C820 C821 1.376 . S
C821 H808 0.930 . S
C821 C820 1.376 . S
C821 C822 1.388 . S
C822 H809 0.930 . S
C822 C821 1.388 . S
C822 C823 1.390 . S
C823 C822 1.390 . S
C823 C824 1.391 1_655 S
C823 C829 1.465 . S
C824 C819 1.399 . S
C824 C823 1.391 1_455 S
C824 C825 1.518 . S
C825 C824 1.518 . S
C825 C826 1.502 . S
C825 C827 1.561 1_455 S
C825 C828 1.526 . S
C826 H810 0.959 . S
C826 H811 0.959 . S
C826 H812 0.961 . S
C826 C825 1.502 . S
C827 H813 0.960 . S
C827 H814 0.961 . S
C827 H815 0.959 . S
C827 C825 1.561 1_655 S
C828 C825 1.526 . S
C828 C829 1.396 1_455 S
C828 C833 1.390 . S
C829 C823 1.465 . S
C829 C828 1.396 1_655 S
C829 C830 1.399 . S
C830 H816 0.929 . S
C830 C829 1.399 . S
C830 C831 1.385 . S
C831 H817 0.931 . S
C831 C830 1.385 . S
C831 C832 1.389 1_655 S
C832 C831 1.389 1_455 S
C832 C833 1.387 . S
C833 H818 0.930 . S
C833 C828 1.390 . S
C833 C832 1.387 . S
H834 C846 0.930 . S
H835 C848 0.930 . S
H836 C849 0.930 . S
H837 C853 0.963 . S
H838 C853 0.959 1_655 S
H839 C853 0.961 . S
H840 C854 0.934 1_455 S
H841 C854 0.984 . S
H842 C854 0.964 . S
H843 C857 0.929 . S
H844 C858 0.931 . S
H845 C860 0.930 . S
C846 H834 0.930 . S
C846 C847 1.399 . S
C846 C851 1.399 . S
C847 C846 1.399 . S
C847 C848 1.376 . S
C848 H835 0.930 . S
C848 C847 1.376 . S
C848 C849 1.388 . S
C849 H836 0.930 . S
C849 C848 1.388 . S
C849 C850 1.390 . S
C850 C849 1.390 . S
C850 C851 1.394 . S
C850 C856 1.465 1_455 S
C851 C846 1.399 . S
C851 C850 1.394 . S
C851 C852 1.534 . S
C852 C851 1.534 . S
C852 C853 1.503 . S
C852 C854 1.560 1_455 S
C852 C855 1.508 1_455 S
C853 H837 0.963 . S
C853 H838 0.959 1_455 S
C853 H839 0.961 . S
C853 C852 1.503 . S
C854 H840 0.934 1_655 S
C854 H841 0.984 . S
C854 H842 0.964 . S
C854 C852 1.560 1_655 S
C855 C852 1.508 1_655 S
C855 C856 1.396 . S
C855 C860 1.390 . S
C856 C850 1.465 1_655 S
C856 C855 1.396 . S
C856 C857 1.399 . S
C857 H843 0.929 . S
C857 C856 1.399 . S
C857 C858 1.385 . S
C858 H844 0.931 . S
C858 C857 1.385 . S
C858 C859 1.389 . S
C859 C858 1.389 . S
C859 C860 1.387 . S
C860 H845 0.930 . S
C860 C855 1.390 . S
C860 C859 1.387 . S
H861 C873 0.930 . S
H862 C875 0.930 . S
H863 C876 0.930 . S
H864 C880 0.959 1_556 S
H865 C880 0.959 . S
H866 C880 0.961 . S
H867 C881 0.960 . S
H868 C881 0.961 . S
H869 C881 0.959 . S
H870 C884 0.929 . S
H871 C885 0.931 . S
H872 C887 0.930 . S
C873 H861 0.930 . S
C873 C874 1.399 . S
C873 C878 1.399 . S
C874 C873 1.399 . S
C874 C875 1.376 . S
C875 H862 0.930 . S
C875 C874 1.376 . S
C875 C876 1.388 . S
C876 H863 0.930 . S
C876 C875 1.388 . S
C876 C877 1.390 . S
C877 C876 1.390 . S
C877 C878 1.394 . S
C877 C883 1.465 . S
C878 C873 1.399 . S
C878 C877 1.394 . S
C878 C879 1.516 . S
C879 C878 1.516 . S
C879 C880 1.502 1_556 S
C879 C881 1.561 1_556 S
C879 C882 1.526 . S
C880 H864 0.959 1_554 S
C880 H865 0.959 . S
C880 H866 0.961 . S
C880 C879 1.502 1_554 S
C881 H867 0.960 . S
C881 H868 0.961 . S
C881 H869 0.959 . S
C881 C879 1.561 1_554 S
C882 C879 1.526 . S
C882 C883 1.396 . S
C882 C887 1.390 . S
C883 C877 1.465 . S
C883 C882 1.396 . S
C883 C884 1.399 . S
C884 H870 0.929 . S
C884 C883 1.399 . S
C884 C885 1.385 . S
C885 H871 0.931 . S
C885 C884 1.385 . S
C885 C886 1.389 . S
C886 C885 1.389 . S
C886 C887 1.387 . S
C887 H872 0.930 . S
C887 C882 1.390 . S
C887 C886 1.387 . S
H888 C900 0.930 . S
H889 C902 0.930 . S
H890 C903 0.930 . S
H891 C907 0.959 . S
H892 C907 0.959 . S
H893 C907 0.961 . S
H894 C908 0.960 . S
H895 C908 0.961 . S
H896 C908 0.959 . S
H897 C911 0.929 . S
H898 C912 0.931 . S
H899 C914 0.930 . S
C900 H888 0.930 . S
C900 C901 1.399 . S
C900 C905 1.399 . S
C901 C900 1.399 . S
C901 C902 1.376 . S
C902 H889 0.930 . S
C902 C901 1.376 . S
C902 C903 1.388 . S
C903 H890 0.930 . S
C903 C902 1.388 . S
C903 C904 1.390 . S
C904 C903 1.390 . S
C904 C905 1.394 . S
C904 C910 1.465 . S
C905 C900 1.399 . S
C905 C904 1.394 . S
C905 C906 1.516 . S
C906 C905 1.516 . S
C906 C907 1.502 . S
C906 C908 1.561 . S
C906 C909 1.526 . S
C907 H891 0.959 . S
C907 H892 0.959 . S
C907 H893 0.961 . S
C907 C906 1.502 . S
C908 H894 0.960 . S
C908 H895 0.961 . S
C908 H896 0.959 . S
C908 C906 1.561 . S
C909 C906 1.526 . S
C909 C910 1.396 . S
C909 C914 1.390 . S
C910 C904 1.465 . S
C910 C909 1.396 . S
C910 C911 1.399 . S
C911 H897 0.929 . S
C911 C910 1.399 . S
C911 C912 1.385 . S
C912 H898 0.931 . S
C912 C911 1.385 . S
C912 C913 1.389 . S
C913 C912 1.389 . S
C913 C914 1.387 . S
C914 H899 0.930 . S
C914 C909 1.390 . S
C914 C913 1.387 . S
H915 C927 0.930 . S
H916 C929 0.930 . S
H917 C930 0.930 . S
H918 C934 0.959 . S
H919 C934 0.959 . S
H920 C934 0.961 . S
H921 C935 0.960 . S
H922 C935 0.961 . S
H923 C935 0.959 . S
H924 C938 0.929 . S
H925 C939 0.931 . S
H926 C941 0.930 . S
C927 H915 0.930 . S
C927 C928 1.399 . S
C927 C932 1.399 . S
C928 C927 1.399 . S
C928 C929 1.376 . S
C929 H916 0.930 . S
C929 C928 1.376 . S
C929 C930 1.388 . S
C930 H917 0.930 . S
C930 C929 1.388 . S
C930 C931 1.390 . S
C931 C930 1.390 . S
C931 C932 1.394 . S
C931 C937 1.465 . S
C932 C927 1.399 . S
C932 C931 1.394 . S
C932 C933 1.516 . S
C933 C932 1.516 . S
C933 C934 1.502 . S
C933 C935 1.561 . S
C933 C936 1.526 . S
C934 H918 0.959 . S
C934 H919 0.959 . S
C934 H920 0.961 . S
C934 C933 1.502 . S
C935 H921 0.960 . S
C935 H922 0.961 . S
C935 H923 0.959 . S
C935 C933 1.561 . S
C936 C933 1.526 . S
C936 C937 1.396 . S
C936 C941 1.390 . S
C937 C931 1.465 . S
C937 C936 1.396 . S
C937 C938 1.399 . S
C938 H924 0.929 . S
C938 C937 1.399 . S
C938 C939 1.385 . S
C939 H925 0.931 . S
C939 C938 1.385 . S
C939 C940 1.389 . S
C940 C939 1.389 . S
C940 C941 1.387 . S
C941 H926 0.930 . S
C941 C936 1.390 . S
C941 C940 1.387 . S
H942 C954 0.930 . S
H943 C956 0.930 . S
H944 C957 0.930 . S
H945 C961 0.959 . S
H946 C961 0.959 1_455 S
H947 C961 0.961 . S
H948 C962 1.003 . S
H949 C962 0.925 1_455 S
H950 C962 0.953 1_455 S
H951 C965 0.929 . S
H952 C966 0.931 . S
H953 C968 0.930 . S
C954 H942 0.930 . S
C954 C955 1.399 . S
C954 C959 1.399 . S
C955 C954 1.399 . S
C955 C956 1.376 . S
C956 H943 0.930 . S
C956 C955 1.376 . S
C956 C957 1.388 . S
C957 H944 0.930 . S
C957 C956 1.388 . S
C957 C958 1.390 . S
C958 C957 1.390 . S
C958 C959 1.394 . S
C958 C964 1.465 1_655 S
C959 C954 1.399 . S
C959 C958 1.394 . S
C959 C960 1.516 . S
C960 C959 1.516 . S
C960 C961 1.502 . S
C960 C962 1.563 . S
C960 C963 1.526 1_655 S
C961 H945 0.959 . S
C961 H946 0.959 1_655 S
C961 H947 0.961 . S
C961 C960 1.502 . S
C962 H948 1.003 . S
C962 H949 0.925 1_655 S
C962 H950 0.953 1_655 S
C962 C960 1.563 . S
C963 C960 1.526 1_455 S
C963 C964 1.396 . S
C963 C968 1.390 . S
C964 C958 1.465 1_455 S
C964 C963 1.396 . S
C964 C965 1.399 . S
C965 H951 0.929 . S
C965 C964 1.399 . S
C965 C966 1.385 . S
C966 H952 0.931 . S
C966 C965 1.385 . S
C966 C967 1.389 . S
C967 C966 1.389 . S
C967 C968 1.387 . S
C968 H953 0.930 . S
C968 C963 1.390 . S
C968 C967 1.387 . S
H969 C981 0.930 . S
H970 C983 0.930 . S
H971 C984 0.930 . S
H972 C988 0.959 1_554 S
H973 C988 0.959 . S
H974 C988 0.961 . S
H975 C989 0.960 . S
H976 C989 0.961 . S
H977 C989 0.959 . S
H978 C992 0.929 . S
H979 C993 0.931 . S
H980 C995 0.930 . S
C981 H969 0.930 . S
C981 C982 1.399 1_455 S
C981 C986 1.402 . S
C982 C981 1.399 1_655 S
C982 C983 1.376 . S
C983 H970 0.930 . S
C983 C982 1.376 . S
C983 C984 1.388 . S
C984 H971 0.930 . S
C984 C983 1.388 . S
C984 C985 1.390 . S
C985 C984 1.390 . S
C985 C986 1.380 1_655 S
C985 C991 1.465 . S
C986 C981 1.402 . S
C986 C985 1.380 1_455 S
C986 C987 1.527 . S
C987 C986 1.527 . S
C987 C988 1.502 1_554 S
C987 C989 1.561 1_454 S
C987 C990 1.526 . S
C988 H972 0.959 1_556 S
C988 H973 0.959 . S
C988 H974 0.961 . S
C988 C987 1.502 1_556 S
C989 H975 0.960 . S
C989 H976 0.961 . S
C989 H977 0.959 . S
C989 C987 1.561 1_656 S
C990 C987 1.526 . S
C990 C991 1.396 1_455 S
C990 C995 1.390 . S
C991 C985 1.465 . S
C991 C990 1.396 1_655 S
C991 C992 1.399 . S
C992 H978 0.929 . S
C992 C991 1.399 . S
C992 C993 1.385 . S
C993 H979 0.931 . S
C993 C992 1.385 . S
C993 C994 1.389 1_655 S
C994 C993 1.389 1_455 S
C994 C995 1.387 . S
C995 H980 0.930 . S
C995 C990 1.390 . S
C995 C994 1.387 . S
H996 C1008 0.930 . S
H997 C1010 0.930 . S
H998 C1011 0.930 . S
H999 C1015 0.959 . S
H1000 C1015 0.959 . S
H1001 C1015 0.961 . S
H1002 C1016 0.960 . S
H1003 C1016 0.961 . S
H1004 C1016 0.959 . S
H1005 C1019 0.929 . S
H1006 C1020 0.931 . S
H1007 C1022 0.930 . S
C1008 H996 0.930 . S
C1008 C1009 1.399 . S
C1008 C1013 1.399 . S
C1009 C1008 1.399 . S
C1009 C1010 1.376 . S
C1010 H997 0.930 . S
C1010 C1009 1.376 . S
C1010 C1011 1.388 . S
C1011 H998 0.930 . S
C1011 C1010 1.388 . S
C1011 C1012 1.390 . S
C1012 C1011 1.390 . S
C1012 C1013 1.394 . S
C1012 C1018 1.465 . S
C1013 C1008 1.399 . S
C1013 C1012 1.394 . S
C1013 C1014 1.516 . S
C1014 C1013 1.516 . S
C1014 C1015 1.502 . S
C1014 C1016 1.561 . S
C1014 C1017 1.526 . S
C1015 H999 0.959 . S
C1015 H1000 0.959 . S
C1015 H1001 0.961 . S
C1015 C1014 1.502 . S
C1016 H1002 0.960 . S
C1016 H1003 0.961 . S
C1016 H1004 0.959 . S
C1016 C1014 1.561 . S
C1017 C1014 1.526 . S
C1017 C1018 1.396 . S
C1017 C1022 1.390 . S
C1018 C1012 1.465 . S
C1018 C1017 1.396 . S
C1018 C1019 1.399 . S
C1019 H1005 0.929 . S
C1019 C1018 1.399 . S
C1019 C1020 1.385 . S
C1020 H1006 0.931 . S
C1020 C1019 1.385 . S
C1020 C1021 1.389 . S
C1021 C1020 1.389 . S
C1021 C1022 1.387 . S
C1022 H1007 0.930 . S
C1022 C1017 1.390 . S
C1022 C1021 1.387 . S
H1023 C1035 0.930 . S
H1024 C1037 0.930 . S
H1025 C1038 0.930 . S
H1026 C1042 0.959 . S
H1027 C1042 0.959 . S
H1028 C1042 0.961 1_545 S
H1029 C1043 0.960 1_545 S
H1030 C1043 0.961 . S
H1031 C1043 0.959 . S
H1032 C1046 0.929 . S
H1033 C1047 0.931 . S
H1034 C1049 0.930 . S
C1035 H1023 0.930 . S
C1035 C1036 1.399 . S
C1035 C1040 1.399 . S
C1036 C1035 1.399 . S
C1036 C1037 1.376 . S
C1037 H1024 0.930 . S
C1037 C1036 1.376 . S
C1037 C1038 1.388 . S
C1038 H1025 0.930 . S
C1038 C1037 1.388 . S
C1038 C1039 1.390 . S
C1039 C1038 1.390 . S
C1039 C1040 1.394 . S
C1039 C1045 1.465 1_545 S
C1040 C1035 1.399 . S
C1040 C1039 1.394 . S
C1040 C1041 1.516 1_545 S
C1041 C1040 1.516 1_565 S
C1041 C1042 1.502 . S
C1041 C1043 1.561 . S
C1041 C1044 1.526 . S
C1042 H1026 0.959 . S
C1042 H1027 0.959 . S
C1042 H1028 0.961 1_565 S
C1042 C1041 1.502 . S
C1043 H1029 0.960 1_565 S
C1043 H1030 0.961 . S
C1043 H1031 0.959 . S
C1043 C1041 1.561 . S
C1044 C1041 1.526 . S
C1044 C1045 1.396 . S
C1044 C1049 1.390 . S
C1045 C1039 1.465 1_565 S
C1045 C1044 1.396 . S
C1045 C1046 1.399 . S
C1046 H1032 0.929 . S
C1046 C1045 1.399 . S
C1046 C1047 1.385 . S
C1047 H1033 0.931 . S
C1047 C1046 1.385 . S
C1047 C1048 1.389 . S
C1048 C1047 1.389 . S
C1048 C1049 1.387 . S
C1049 H1034 0.930 . S
C1049 C1044 1.390 . S
C1049 C1048 1.387 . S
H1050 C1062 0.930 . S
H1051 C1064 0.930 . S
H1052 C1065 0.930 . S
H1053 C1069 0.959 . S
H1054 C1069 0.959 . S
H1055 C1069 0.961 . S
H1056 C1070 0.960 . S
H1057 C1070 0.960 . S
H1058 C1070 0.961 1_554 S
H1059 C1073 0.929 . S
H1060 C1074 0.931 . S
H1061 C1076 0.930 . S
C1062 H1050 0.930 . S
C1062 C1063 1.399 1_556 S
C1062 C1067 1.399 . S
C1063 C1062 1.399 1_554 S
C1063 C1064 1.376 . S
C1064 H1051 0.930 . S
C1064 C1063 1.376 . S
C1064 C1065 1.388 . S
C1065 H1052 0.930 . S
C1065 C1064 1.388 . S
C1065 C1066 1.390 . S
C1066 C1065 1.390 . S
C1066 C1067 1.394 1_554 S
C1066 C1072 1.465 . S
C1067 C1062 1.399 . S
C1067 C1066 1.394 1_556 S
C1067 C1068 1.516 . S
C1068 C1067 1.516 . S
C1068 C1069 1.502 . S
C1068 C1070 1.560 . S
C1068 C1071 1.526 . S
C1069 H1053 0.959 . S
C1069 H1054 0.959 . S
C1069 H1055 0.961 . S
C1069 C1068 1.502 . S
C1070 H1056 0.960 . S
C1070 H1057 0.960 . S
C1070 H1058 0.961 1_556 S
C1070 C1068 1.560 . S
C1071 C1068 1.526 . S
C1071 C1072 1.396 1_556 S
C1071 C1076 1.390 . S
C1072 C1066 1.465 . S
C1072 C1071 1.396 1_554 S
C1072 C1073 1.399 . S
C1073 H1059 0.929 . S
C1073 C1072 1.399 . S
C1073 C1074 1.385 . S
C1074 H1060 0.931 . S
C1074 C1073 1.385 . S
C1074 C1075 1.389 1_554 S
C1075 C1074 1.389 1_556 S
C1075 C1076 1.387 . S
C1076 H1061 0.930 . S
C1076 C1071 1.390 . S
C1076 C1075 1.387 . S
H1077 C1089 0.930 . S
H1078 C1091 0.930 . S
H1079 C1092 0.930 . S
H1080 C1096 0.958 1_565 S
H1081 C1096 0.959 1_565 S
H1082 C1096 0.961 . S
H1083 C1097 0.960 . S
H1084 C1097 0.961 1_565 S
H1085 C1097 0.959 . S
H1086 C1100 0.929 . S
H1087 C1101 0.931 . S
H1088 C1103 0.930 . S
C1089 H1077 0.930 . S
C1089 C1090 1.399 . S
C1089 C1094 1.399 . S
C1090 C1089 1.399 . S
C1090 C1091 1.376 . S
C1091 H1078 0.930 . S
C1091 C1090 1.376 . S
C1091 C1092 1.388 . S
C1092 H1079 0.930 . S
C1092 C1091 1.388 . S
C1092 C1093 1.390 . S
C1093 C1092 1.390 . S
C1093 C1094 1.394 . S
C1093 C1099 1.465 1_545 S
C1094 C1089 1.399 . S
C1094 C1093 1.394 . S
C1094 C1095 1.516 . S
C1095 C1094 1.516 . S
C1095 C1096 1.502 . S
C1095 C1097 1.561 . S
C1095 C1098 1.526 1_545 S
C1096 H1080 0.958 1_545 S
C1096 H1081 0.959 1_545 S
C1096 H1082 0.961 . S
C1096 C1095 1.502 . S
C1097 H1083 0.960 . S
C1097 H1084 0.961 1_545 S
C1097 H1085 0.959 . S
C1097 C1095 1.561 . S
C1098 C1095 1.526 1_565 S
C1098 C1099 1.396 . S
C1098 C1103 1.390 . S
C1099 C1093 1.465 1_565 S
C1099 C1098 1.396 . S
C1099 C1100 1.399 . S
C1100 H1086 0.929 . S
C1100 C1099 1.399 . S
C1100 C1101 1.385 . S
C1101 H1087 0.931 . S
C1101 C1100 1.385 . S
C1101 C1102 1.389 . S
C1102 C1101 1.389 . S
C1102 C1103 1.387 . S
C1103 H1088 0.930 . S
C1103 C1098 1.390 . S
C1103 C1102 1.387 . S
H1104 C1116 0.930 . S
H1105 C1118 0.930 . S
H1106 C1119 0.930 . S
H1107 C1123 0.959 . S
H1108 C1123 0.959 . S
H1109 C1123 0.961 . S
H1110 C1124 0.960 . S
H1111 C1124 0.961 . S
H1112 C1124 0.959 1_556 S
H1113 C1127 0.929 . S
H1114 C1128 0.931 . S
H1115 C1130 0.930 . S
C1116 H1104 0.930 . S
C1116 C1117 1.399 1_554 S
C1116 C1121 1.399 . S
C1117 C1116 1.399 1_556 S
C1117 C1118 1.376 . S
C1118 H1105 0.930 . S
C1118 C1117 1.376 . S
C1118 C1119 1.388 . S
C1119 H1106 0.930 . S
C1119 C1118 1.388 . S
C1119 C1120 1.390 . S
C1120 C1119 1.390 . S
C1120 C1121 1.394 1_556 S
C1120 C1126 1.465 . S
C1121 C1116 1.399 . S
C1121 C1120 1.394 1_554 S
C1121 C1122 1.516 . S
C1122 C1121 1.516 . S
C1122 C1123 1.502 . S
C1122 C1124 1.561 1_545 S
C1122 C1125 1.526 . S
C1123 H1107 0.959 . S
C1123 H1108 0.959 . S
C1123 H1109 0.961 . S
C1123 C1122 1.502 . S
C1124 H1110 0.960 . S
C1124 H1111 0.961 . S
C1124 H1112 0.959 1_554 S
C1124 C1122 1.561 1_565 S
C1125 C1122 1.526 . S
C1125 C1126 1.396 1_554 S
C1125 C1130 1.390 . S
C1126 C1120 1.465 . S
C1126 C1125 1.396 1_556 S
C1126 C1127 1.399 . S
C1127 H1113 0.929 . S
C1127 C1126 1.399 . S
C1127 C1128 1.385 . S
C1128 H1114 0.931 . S
C1128 C1127 1.385 . S
C1128 C1129 1.389 1_556 S
C1129 C1128 1.389 1_554 S
C1129 C1130 1.387 . S
C1130 H1115 0.930 . S
C1130 C1125 1.390 . S
C1130 C1129 1.387 . S
H1131 C1143 0.930 . S
H1132 C1145 0.930 . S
H1133 C1146 0.930 . S
H1134 C1150 0.959 . S
H1135 C1150 0.959 . S
H1136 C1150 0.961 . S
H1137 C1151 0.960 . S
H1138 C1151 0.961 . S
H1139 C1151 0.959 . S
H1140 C1154 0.929 . S
H1141 C1155 0.931 . S
H1142 C1157 0.930 . S
C1143 H1131 0.930 . S
C1143 C1144 1.399 . S
C1143 C1148 1.399 . S
C1144 C1143 1.399 . S
C1144 C1145 1.376 . S
C1145 H1132 0.930 . S
C1145 C1144 1.376 . S
C1145 C1146 1.388 . S
C1146 H1133 0.930 . S
C1146 C1145 1.388 . S
C1146 C1147 1.390 . S
C1147 C1146 1.390 . S
C1147 C1148 1.394 . S
C1147 C1153 1.465 . S
C1148 C1143 1.399 . S
C1148 C1147 1.394 . S
C1148 C1149 1.516 . S
C1149 C1148 1.516 . S
C1149 C1150 1.502 . S
C1149 C1151 1.561 . S
C1149 C1152 1.526 . S
C1150 H1134 0.959 . S
C1150 H1135 0.959 . S
C1150 H1136 0.961 . S
C1150 C1149 1.502 . S
C1151 H1137 0.960 . S
C1151 H1138 0.961 . S
C1151 H1139 0.959 . S
C1151 C1149 1.561 . S
C1152 C1149 1.526 . S
C1152 C1153 1.396 . S
C1152 C1157 1.390 . S
C1153 C1147 1.465 . S
C1153 C1152 1.396 . S
C1153 C1154 1.399 . S
C1154 H1140 0.929 . S
C1154 C1153 1.399 . S
C1154 C1155 1.385 . S
C1155 H1141 0.931 . S
C1155 C1154 1.385 . S
C1155 C1156 1.389 . S
C1156 C1155 1.389 . S
C1156 C1157 1.387 . S
C1157 H1142 0.930 . S
C1157 C1152 1.390 . S
C1157 C1156 1.387 . S
H1158 C1170 0.930 . S
H1159 C1172 0.930 . S
H1160 C1173 0.930 . S
H1161 C1177 0.959 . S
H1162 C1177 0.959 . S
H1163 C1177 0.961 . S
H1164 C1178 0.960 . S
H1165 C1178 0.961 . S
H1166 C1178 0.959 . S
H1167 C1181 0.929 . S
H1168 C1182 0.931 . S
H1169 C1184 0.930 . S
C1170 H1158 0.930 . S
C1170 C1171 1.399 . S
C1170 C1175 1.399 . S
C1171 C1170 1.399 . S
C1171 C1172 1.376 . S
C1172 H1159 0.930 . S
C1172 C1171 1.376 . S
C1172 C1173 1.388 . S
C1173 H1160 0.930 . S
C1173 C1172 1.388 . S
C1173 C1174 1.390 . S
C1174 C1173 1.390 . S
C1174 C1175 1.394 . S
C1174 C1180 1.465 . S
C1175 C1170 1.399 . S
C1175 C1174 1.394 . S
C1175 C1176 1.516 . S
C1176 C1175 1.516 . S
C1176 C1177 1.502 . S
C1176 C1178 1.561 . S
C1176 C1179 1.526 . S
C1177 H1161 0.959 . S
C1177 H1162 0.959 . S
C1177 H1163 0.961 . S
C1177 C1176 1.502 . S
C1178 H1164 0.960 . S
C1178 H1165 0.961 . S
C1178 H1166 0.959 . S
C1178 C1176 1.561 . S
C1179 C1176 1.526 . S
C1179 C1180 1.396 . S
C1179 C1184 1.390 . S
C1180 C1174 1.465 . S
C1180 C1179 1.396 . S
C1180 C1181 1.399 . S
C1181 H1167 0.929 . S
C1181 C1180 1.399 . S
C1181 C1182 1.385 . S
C1182 H1168 0.931 . S
C1182 C1181 1.385 . S
C1182 C1183 1.389 . S
C1183 C1182 1.389 . S
C1183 C1184 1.387 . S
C1184 H1169 0.930 . S
C1184 C1179 1.390 . S
C1184 C1183 1.387 . S
H1185 C1197 0.930 . S
H1186 C1199 0.930 . S
H1187 C1200 0.930 . S
H1188 C1204 0.959 . S
H1189 C1204 0.959 . S
H1190 C1204 0.961 1_554 S
H1191 C1205 0.957 . S
H1192 C1205 0.964 1_556 S
H1193 C1205 0.959 1_556 S
H1194 C1208 0.929 . S
H1195 C1209 0.931 . S
H1196 C1211 0.930 . S
C1197 H1185 0.930 . S
C1197 C1198 1.399 . S
C1197 C1202 1.399 . S
C1198 C1197 1.399 . S
C1198 C1199 1.376 . S
C1199 H1186 0.930 . S
C1199 C1198 1.376 . S
C1199 C1200 1.388 . S
C1200 H1187 0.930 . S
C1200 C1199 1.388 . S
C1200 C1201 1.390 . S
C1201 C1200 1.390 . S
C1201 C1202 1.394 . S
C1201 C1207 1.465 1_554 S
C1202 C1197 1.399 . S
C1202 C1201 1.394 . S
C1202 C1203 1.484 1_554 S
C1203 C1202 1.484 1_556 S
C1203 C1204 1.506 . S
C1203 C1205 1.560 1_556 S
C1203 C1206 1.557 . S
C1204 H1188 0.959 . S
C1204 H1189 0.959 . S
C1204 H1190 0.961 1_556 S
C1204 C1203 1.506 . S
C1205 H1191 0.957 . S
C1205 H1192 0.964 1_554 S
C1205 H1193 0.959 1_554 S
C1205 C1203 1.560 1_554 S
C1206 C1203 1.557 . S
C1206 C1207 1.396 . S
C1206 C1211 1.390 . S
C1207 C1201 1.465 1_556 S
C1207 C1206 1.396 . S
C1207 C1208 1.399 . S
C1208 H1194 0.929 . S
C1208 C1207 1.399 . S
C1208 C1209 1.385 . S
C1209 H1195 0.931 . S
C1209 C1208 1.385 . S
C1209 C1210 1.389 . S
C1210 C1209 1.389 . S
C1210 C1211 1.387 . S
C1211 H1196 0.930 . S
C1211 C1206 1.390 . S
C1211 C1210 1.387 . S
H1212 C1224 0.930 . S
H1213 C1226 0.930 . S
H1214 C1227 0.930 . S
H1215 C1231 0.959 . S
H1216 C1231 0.959 . S
H1217 C1231 0.961 . S
H1218 C1232 0.960 . S
H1219 C1232 0.961 . S
H1220 C1232 0.959 . S
H1221 C1235 0.929 . S
H1222 C1236 0.931 . S
H1223 C1238 0.930 . S
C1224 H1212 0.930 . S
C1224 C1225 1.399 . S
C1224 C1229 1.399 . S
C1225 C1224 1.399 . S
C1225 C1226 1.376 . S
C1226 H1213 0.930 . S
C1226 C1225 1.376 . S
C1226 C1227 1.388 . S
C1227 H1214 0.930 . S
C1227 C1226 1.388 . S
C1227 C1228 1.390 . S
C1228 C1227 1.390 . S
C1228 C1229 1.394 . S
C1228 C1234 1.465 . S
C1229 C1224 1.399 . S
C1229 C1228 1.394 . S
C1229 C1230 1.516 . S
C1230 C1229 1.516 . S
C1230 C1231 1.502 . S
C1230 C1232 1.561 . S
C1230 C1233 1.526 . S
C1231 H1215 0.959 . S
C1231 H1216 0.959 . S
C1231 H1217 0.961 . S
C1231 C1230 1.502 . S
C1232 H1218 0.960 . S
C1232 H1219 0.961 . S
C1232 H1220 0.959 . S
C1232 C1230 1.561 . S
C1233 C1230 1.526 . S
C1233 C1234 1.396 . S
C1233 C1238 1.390 . S
C1234 C1228 1.465 . S
C1234 C1233 1.396 . S
C1234 C1235 1.399 . S
C1235 H1221 0.929 . S
C1235 C1234 1.399 . S
C1235 C1236 1.385 . S
C1236 H1222 0.931 . S
C1236 C1235 1.385 . S
C1236 C1237 1.389 . S
C1237 C1236 1.389 . S
C1237 C1238 1.387 . S
C1238 H1223 0.930 . S
C1238 C1233 1.390 . S
C1238 C1237 1.387 . S
H1239 C1251 0.930 . S
H1240 C1253 0.930 . S
H1241 C1254 0.930 . S
H1242 C1258 0.959 . S
H1243 C1258 0.959 . S
H1244 C1258 0.961 . S
H1245 C1259 0.960 . S
H1246 C1259 0.961 . S
H1247 C1259 0.959 . S
H1248 C1262 0.929 . S
H1249 C1263 0.931 . S
H1250 C1265 0.930 . S
C1251 H1239 0.930 . S
C1251 C1252 1.399 . S
C1251 C1256 1.399 . S
C1252 C1251 1.399 . S
C1252 C1253 1.376 . S
C1253 H1240 0.930 . S
C1253 C1252 1.376 . S
C1253 C1254 1.388 . S
C1254 H1241 0.930 . S
C1254 C1253 1.388 . S
C1254 C1255 1.390 . S
C1255 C1254 1.390 . S
C1255 C1256 1.394 . S
C1255 C1261 1.465 . S
C1256 C1251 1.399 . S
C1256 C1255 1.394 . S
C1256 C1257 1.516 . S
C1257 C1256 1.516 . S
C1257 C1258 1.502 . S
C1257 C1259 1.561 . S
C1257 C1260 1.526 . S
C1258 H1242 0.959 . S
C1258 H1243 0.959 . S
C1258 H1244 0.961 . S
C1258 C1257 1.502 . S
C1259 H1245 0.960 . S
C1259 H1246 0.961 . S
C1259 H1247 0.959 . S
C1259 C1257 1.561 . S
C1260 C1257 1.526 . S
C1260 C1261 1.396 . S
C1260 C1265 1.390 . S
C1261 C1255 1.465 . S
C1261 C1260 1.396 . S
C1261 C1262 1.399 . S
C1262 H1248 0.929 . S
C1262 C1261 1.399 . S
C1262 C1263 1.385 . S
C1263 H1249 0.931 . S
C1263 C1262 1.385 . S
C1263 C1264 1.389 . S
C1264 C1263 1.389 . S
C1264 C1265 1.387 . S
C1265 H1250 0.930 . S
C1265 C1260 1.390 . S
C1265 C1264 1.387 . S
H1266 C1278 0.930 . S
H1267 C1280 0.930 . S
H1268 C1281 0.930 . S
H1269 C1285 0.959 . S
H1270 C1285 0.959 . S
H1271 C1285 0.961 . S
H1272 C1286 0.960 . S
H1273 C1286 0.961 . S
H1274 C1286 0.959 . S
H1275 C1289 0.929 . S
H1276 C1290 0.931 . S
H1277 C1292 0.930 . S
C1278 H1266 0.930 . S
C1278 C1279 1.399 . S
C1278 C1283 1.399 . S
C1279 C1278 1.399 . S
C1279 C1280 1.376 . S
C1280 H1267 0.930 . S
C1280 C1279 1.376 . S
C1280 C1281 1.388 . S
C1281 H1268 0.930 . S
C1281 C1280 1.388 . S
C1281 C1282 1.390 . S
C1282 C1281 1.390 . S
C1282 C1283 1.394 . S
C1282 C1288 1.465 . S
C1283 C1278 1.399 . S
C1283 C1282 1.394 . S
C1283 C1284 1.516 . S
C1284 C1283 1.516 . S
C1284 C1285 1.502 . S
C1284 C1286 1.561 . S
C1284 C1287 1.526 . S
C1285 H1269 0.959 . S
C1285 H1270 0.959 . S
C1285 H1271 0.961 . S
C1285 C1284 1.502 . S
C1286 H1272 0.960 . S
C1286 H1273 0.961 . S
C1286 H1274 0.959 . S
C1286 C1284 1.561 . S
C1287 C1284 1.526 . S
C1287 C1288 1.396 . S
C1287 C1292 1.390 . S
C1288 C1282 1.465 . S
C1288 C1287 1.396 . S
C1288 C1289 1.399 . S
C1289 H1275 0.929 . S
C1289 C1288 1.399 . S
C1289 C1290 1.385 . S
C1290 H1276 0.931 . S
C1290 C1289 1.385 . S
C1290 C1291 1.389 . S
C1291 C1290 1.389 . S
C1291 C1292 1.387 . S
C1292 H1277 0.930 . S
C1292 C1287 1.390 . S
C1292 C1291 1.387 . S
H1293 C1305 0.930 . S
H1294 C1307 0.930 . S
H1295 C1308 0.930 . S
H1296 C1312 0.959 . S
H1297 C1312 0.987 . S
H1298 C1312 0.961 . S
H1299 C1313 0.960 . S
H1300 C1313 0.961 . S
H1301 C1313 0.959 . S
H1302 C1316 0.929 . S
H1303 C1317 0.931 . S
H1304 C1319 0.930 . S
C1305 H1293 0.930 . S
C1305 C1306 1.399 . S
C1305 C1310 1.399 . S
C1306 C1305 1.399 . S
C1306 C1307 1.376 . S
C1307 H1294 0.930 . S
C1307 C1306 1.376 . S
C1307 C1308 1.388 . S
C1308 H1295 0.930 . S
C1308 C1307 1.388 . S
C1308 C1309 1.390 . S
C1309 C1308 1.390 . S
C1309 C1310 1.394 . S
C1309 C1315 1.465 . S
C1310 C1305 1.399 . S
C1310 C1309 1.394 . S
C1310 C1311 1.516 . S
C1311 C1310 1.516 . S
C1311 C1312 1.502 . S
C1311 C1313 1.561 1_565 S
C1311 C1314 1.526 . S
C1312 H1296 0.959 . S
C1312 H1297 0.987 . S
C1312 H1298 0.961 . S
C1312 C1311 1.502 . S
C1313 H1299 0.960 . S
C1313 H1300 0.961 . S
C1313 H1301 0.959 . S
C1313 C1311 1.561 1_545 S
C1314 C1311 1.526 . S
C1314 C1315 1.396 . S
C1314 C1319 1.390 . S
C1315 C1309 1.465 . S
C1315 C1314 1.396 . S
C1315 C1316 1.399 . S
C1316 H1302 0.929 . S
C1316 C1315 1.399 . S
C1316 C1317 1.385 . S
C1317 H1303 0.931 . S
C1317 C1316 1.385 . S
C1317 C1318 1.389 . S
C1318 C1317 1.389 . S
C1318 C1319 1.387 . S
C1319 H1304 0.930 . S
C1319 C1314 1.390 . S
C1319 C1318 1.387 . S
H1320 C1332 0.930 . S
H1321 C1334 0.930 . S
H1322 C1335 0.930 . S
H1323 C1339 0.959 . S
H1324 C1339 0.959 . S
H1325 C1339 0.961 . S
H1326 C1340 0.960 . S
H1327 C1340 0.961 . S
H1328 C1340 0.959 . S
H1329 C1343 0.929 . S
H1330 C1344 0.931 . S
H1331 C1346 0.930 . S
C1332 H1320 0.930 . S
C1332 C1333 1.399 . S
C1332 C1337 1.399 . S
C1333 C1332 1.399 . S
C1333 C1334 1.376 . S
C1334 H1321 0.930 . S
C1334 C1333 1.376 . S
C1334 C1335 1.388 . S
C1335 H1322 0.930 . S
C1335 C1334 1.388 . S
C1335 C1336 1.390 . S
C1336 C1335 1.390 . S
C1336 C1337 1.394 . S
C1336 C1342 1.465 . S
C1337 C1332 1.399 . S
C1337 C1336 1.394 . S
C1337 C1338 1.516 . S
C1338 C1337 1.516 . S
C1338 C1339 1.502 . S
C1338 C1340 1.561 . S
C1338 C1341 1.526 . S
C1339 H1323 0.959 . S
C1339 H1324 0.959 . S
C1339 H1325 0.961 . S
C1339 C1338 1.502 . S
C1340 H1326 0.960 . S
C1340 H1327 0.961 . S
C1340 H1328 0.959 . S
C1340 C1338 1.561 . S
C1341 C1338 1.526 . S
C1341 C1342 1.396 . S
C1341 C1346 1.390 . S
C1342 C1336 1.465 . S
C1342 C1341 1.396 . S
C1342 C1343 1.399 . S
C1343 H1329 0.929 . S
C1343 C1342 1.399 . S
C1343 C1344 1.385 . S
C1344 H1330 0.931 . S
C1344 C1343 1.385 . S
C1344 C1345 1.389 . S
C1345 C1344 1.389 . S
C1345 C1346 1.387 . S
C1346 H1331 0.930 . S
C1346 C1341 1.390 . S
C1346 C1345 1.387 . S
H1347 C1359 0.930 . S
H1348 C1361 0.930 1_455 S
H1349 C1362 0.930 . S
H1350 C1366 0.959 . S
H1351 C1366 0.959 . S
H1352 C1366 0.961 . S
H1353 C1367 0.960 . S
H1354 C1367 0.961 . S
H1355 C1367 0.959 1_565 S
H1356 C1370 0.929 . S
H1357 C1371 0.931 . S
H1358 C1373 0.930 . S
C1359 H1347 0.930 . S
C1359 C1360 1.399 . S
C1359 C1364 1.399 . S
C1360 C1359 1.399 . S
C1360 C1361 1.376 . S
C1361 H1348 0.930 1_655 S
C1361 C1360 1.376 . S
C1361 C1362 1.388 . S
C1362 H1349 0.930 . S
C1362 C1361 1.388 . S
C1362 C1363 1.390 . S
C1363 C1362 1.390 . S
C1363 C1364 1.394 . S
C1363 C1369 1.465 . S
C1364 C1359 1.399 . S
C1364 C1363 1.394 . S
C1364 C1365 1.516 . S
C1365 C1364 1.516 . S
C1365 C1366 1.502 . S
C1365 C1367 1.561 1_565 S
C1365 C1368 1.526 . S
C1366 H1350 0.959 . S
C1366 H1351 0.959 . S
C1366 H1352 0.961 . S
C1366 C1365 1.502 . S
C1367 H1353 0.960 . S
C1367 H1354 0.961 . S
C1367 H1355 0.959 1_545 S
C1367 C1365 1.561 1_545 S
C1368 C1365 1.526 . S
C1368 C1369 1.396 . S
C1368 C1373 1.390 . S
C1369 C1363 1.465 . S
C1369 C1368 1.396 . S
C1369 C1370 1.399 . S
C1370 H1356 0.929 . S
C1370 C1369 1.399 . S
C1370 C1371 1.385 . S
C1371 H1357 0.931 . S
C1371 C1370 1.385 . S
C1371 C1372 1.389 . S
C1372 C1371 1.389 . S
C1372 C1373 1.387 . S
C1373 H1358 0.930 . S
C1373 C1368 1.390 . S
C1373 C1372 1.387 . S
H1374 C1386 0.930 . S
H1375 C1388 0.930 . S
H1376 C1389 0.930 . S
H1377 C1393 0.959 . S
H1378 C1393 0.959 . S
H1379 C1393 0.961 . S
H1380 C1394 0.960 . S
H1381 C1394 0.961 . S
H1382 C1394 0.959 . S
H1383 C1397 0.929 . S
H1384 C1398 0.931 . S
H1385 C1400 0.930 . S
C1386 H1374 0.930 . S
C1386 C1387 1.399 . S
C1386 C1391 1.399 . S
C1387 C1386 1.399 . S
C1387 C1388 1.376 . S
C1388 H1375 0.930 . S
C1388 C1387 1.376 . S
C1388 C1389 1.388 . S
C1389 H1376 0.930 . S
C1389 C1388 1.388 . S
C1389 C1390 1.390 . S
C1390 C1389 1.390 . S
C1390 C1391 1.394 . S
C1390 C1396 1.465 . S
C1391 C1386 1.399 . S
C1391 C1390 1.394 . S
C1391 C1392 1.516 . S
C1392 C1391 1.516 . S
C1392 C1393 1.502 . S
C1392 C1394 1.561 . S
C1392 C1395 1.526 . S
C1393 H1377 0.959 . S
C1393 H1378 0.959 . S
C1393 H1379 0.961 . S
C1393 C1392 1.502 . S
C1394 H1380 0.960 . S
C1394 H1381 0.961 . S
C1394 H1382 0.959 . S
C1394 C1392 1.561 . S
C1395 C1392 1.526 . S
C1395 C1396 1.396 . S
C1395 C1400 1.390 . S
C1396 C1390 1.465 . S
C1396 C1395 1.396 . S
C1396 C1397 1.399 . S
C1397 H1383 0.929 . S
C1397 C1396 1.399 . S
C1397 C1398 1.385 . S
C1398 H1384 0.931 . S
C1398 C1397 1.385 . S
C1398 C1399 1.389 . S
C1399 C1398 1.389 . S
C1399 C1400 1.387 . S
C1400 H1385 0.930 . S
C1400 C1395 1.390 . S
C1400 C1399 1.387 . S
H1401 C1413 0.930 . S
H1402 C1415 0.930 . S
H1403 C1416 0.930 . S
H1404 C1420 0.959 . S
H1405 C1420 0.959 . S
H1406 C1420 0.961 . S
H1407 C1421 0.960 . S
H1408 C1421 0.961 . S
H1409 C1421 0.959 . S
H1410 C1424 0.965 . S
H1411 C1425 0.931 . S
H1412 C1427 0.930 . S
C1413 H1401 0.930 . S
C1413 C1414 1.399 . S
C1413 C1418 1.399 . S
C1414 C1413 1.399 . S
C1414 C1415 1.376 . S
C1415 H1402 0.930 . S
C1415 C1414 1.376 . S
C1415 C1416 1.388 . S
C1416 H1403 0.930 . S
C1416 C1415 1.388 . S
C1416 C1417 1.390 . S
C1417 C1416 1.390 . S
C1417 C1418 1.394 . S
C1417 C1423 1.465 . S
C1418 C1413 1.399 . S
C1418 C1417 1.394 . S
C1418 C1419 1.516 . S
C1419 C1418 1.516 . S
C1419 C1420 1.502 . S
C1419 C1421 1.561 . S
C1419 C1422 1.526 . S
C1420 H1404 0.959 . S
C1420 H1405 0.959 . S
C1420 H1406 0.961 . S
C1420 C1419 1.502 . S
C1421 H1407 0.960 . S
C1421 H1408 0.961 . S
C1421 H1409 0.959 . S
C1421 C1419 1.561 . S
C1422 C1419 1.526 . S
C1422 C1423 1.396 . S
C1422 C1427 1.390 . S
C1423 C1417 1.465 . S
C1423 C1422 1.396 . S
C1423 C1424 1.399 . S
C1424 H1410 0.965 . S
C1424 C1423 1.399 . S
C1424 C1425 1.385 . S
C1425 H1411 0.931 . S
C1425 C1424 1.385 . S
C1425 C1426 1.389 . S
C1426 C1425 1.389 . S
C1426 C1427 1.387 . S
C1427 H1412 0.930 . S
C1427 C1422 1.390 . S
C1427 C1426 1.387 . S
H1428 C1440 0.930 . S
H1429 C1442 0.930 . S
H1430 C1443 0.930 . S
H1431 C1447 0.959 . S
H1432 C1447 0.959 . S
H1433 C1447 0.961 . S
H1434 C1448 0.960 . S
H1435 C1448 0.961 . S
H1436 C1448 0.959 . S
H1437 C1451 0.929 . S
H1438 C1452 0.931 . S
H1439 C1454 0.930 . S
C1440 H1428 0.930 . S
C1440 C1441 1.399 . S
C1440 C1445 1.399 . S
C1441 C1440 1.399 . S
C1441 C1442 1.376 . S
C1442 H1429 0.930 . S
C1442 C1441 1.376 . S
C1442 C1443 1.388 . S
C1443 H1430 0.930 . S
C1443 C1442 1.388 . S
C1443 C1444 1.390 . S
C1444 C1443 1.390 . S
C1444 C1445 1.394 . S
C1444 C1450 1.465 . S
C1445 C1440 1.399 . S
C1445 C1444 1.394 . S
C1445 C1446 1.516 . S
C1446 C1445 1.516 . S
C1446 C1447 1.502 . S
C1446 C1448 1.561 . S
C1446 C1449 1.526 . S
C1447 H1431 0.959 . S
C1447 H1432 0.959 . S
C1447 H1433 0.961 . S
C1447 C1446 1.502 . S
C1448 H1434 0.960 . S
C1448 H1435 0.961 . S
C1448 H1436 0.959 . S
C1448 C1446 1.561 . S
C1449 C1446 1.526 . S
C1449 C1450 1.396 . S
C1449 C1454 1.390 . S
C1450 C1444 1.465 . S
C1450 C1449 1.396 . S
C1450 C1451 1.399 . S
C1451 H1437 0.929 . S
C1451 C1450 1.399 . S
C1451 C1452 1.385 . S
C1452 H1438 0.931 . S
C1452 C1451 1.385 . S
C1452 C1453 1.389 . S
C1453 C1452 1.389 . S
C1453 C1454 1.387 . S
C1454 H1439 0.930 . S
C1454 C1449 1.390 . S
C1454 C1453 1.387 . S
H1455 C1467 0.930 . S
H1456 C1469 0.930 . S
H1457 C1470 0.930 . S
H1458 C1474 0.959 . S
H1459 C1474 0.959 . S
H1460 C1474 0.961 . S
H1461 C1475 0.960 . S
H1462 C1475 0.961 . S
H1463 C1475 0.959 . S
H1464 C1478 0.975 . S
H1465 C1479 0.931 . S
H1466 C1481 0.930 . S
C1467 H1455 0.930 . S
C1467 C1468 1.399 . S
C1467 C1472 1.399 . S
C1468 C1467 1.399 . S
C1468 C1469 1.376 . S
C1469 H1456 0.930 . S
C1469 C1468 1.376 . S
C1469 C1470 1.388 . S
C1470 H1457 0.930 . S
C1470 C1469 1.388 . S
C1470 C1471 1.390 . S
C1471 C1470 1.390 . S
C1471 C1472 1.394 . S
C1471 C1477 1.465 . S
C1472 C1467 1.399 . S
C1472 C1471 1.394 . S
C1472 C1473 1.516 . S
C1473 C1472 1.516 . S
C1473 C1474 1.502 . S
C1473 C1475 1.561 . S
C1473 C1476 1.526 . S
C1474 H1458 0.959 . S
C1474 H1459 0.959 . S
C1474 H1460 0.961 . S
C1474 C1473 1.502 . S
C1475 H1461 0.960 . S
C1475 H1462 0.961 . S
C1475 H1463 0.959 . S
C1475 C1473 1.561 . S
C1476 C1473 1.526 . S
C1476 C1477 1.396 . S
C1476 C1481 1.390 . S
C1477 C1471 1.465 . S
C1477 C1476 1.396 . S
C1477 C1478 1.399 . S
C1478 H1464 0.975 . S
C1478 C1477 1.399 . S
C1478 C1479 1.385 . S
C1479 H1465 0.931 . S
C1479 C1478 1.385 . S
C1479 C1480 1.389 . S
C1480 C1479 1.389 . S
C1480 C1481 1.387 . S
C1481 H1466 0.930 . S
C1481 C1476 1.390 . S
C1481 C1480 1.387 . S
H1482 C1494 0.930 . S
H1483 C1496 0.930 . S
H1484 C1497 0.930 . S
H1485 C1501 0.959 . S
H1486 C1501 0.959 . S
H1487 C1501 0.961 . S
H1488 C1502 0.960 . S
H1489 C1502 0.961 . S
H1490 C1502 0.959 . S
H1491 C1505 0.929 . S
H1492 C1506 0.931 . S
H1493 C1508 0.930 . S
C1494 H1482 0.930 . S
C1494 C1495 1.399 . S
C1494 C1499 1.399 . S
C1495 C1494 1.399 . S
C1495 C1496 1.376 . S
C1496 H1483 0.930 . S
C1496 C1495 1.376 . S
C1496 C1497 1.388 . S
C1497 H1484 0.930 . S
C1497 C1496 1.388 . S
C1497 C1498 1.390 . S
C1498 C1497 1.390 . S
C1498 C1499 1.394 . S
C1498 C1504 1.465 . S
C1499 C1494 1.399 . S
C1499 C1498 1.394 . S
C1499 C1500 1.516 . S
C1500 C1499 1.516 . S
C1500 C1501 1.502 . S
C1500 C1502 1.561 . S
C1500 C1503 1.526 . S
C1501 H1485 0.959 . S
C1501 H1486 0.959 . S
C1501 H1487 0.961 . S
C1501 C1500 1.502 . S
C1502 H1488 0.960 . S
C1502 H1489 0.961 . S
C1502 H1490 0.959 . S
C1502 C1500 1.561 . S
C1503 C1500 1.526 . S
C1503 C1504 1.396 . S
C1503 C1508 1.390 . S
C1504 C1498 1.465 . S
C1504 C1503 1.396 . S
C1504 C1505 1.399 . S
C1505 H1491 0.929 . S
C1505 C1504 1.399 . S
C1505 C1506 1.385 . S
C1506 H1492 0.931 . S
C1506 C1505 1.385 . S
C1506 C1507 1.389 . S
C1507 C1506 1.389 . S
C1507 C1508 1.387 . S
C1508 H1493 0.930 . S
C1508 C1503 1.390 . S
C1508 C1507 1.387 . S
H1509 C1521 0.930 . S
H1510 C1523 0.930 . S
H1511 C1524 0.930 . S
H1512 C1528 0.959 . S
H1513 C1528 0.959 . S
H1514 C1528 0.961 . S
H1515 C1529 0.960 . S
H1516 C1529 0.961 . S
H1517 C1529 0.959 . S
H1518 C1532 0.929 . S
H1519 C1533 0.931 . S
H1520 C1535 0.930 . S
C1521 H1509 0.930 . S
C1521 C1522 1.399 . S
C1521 C1526 1.399 . S
C1522 C1521 1.399 . S
C1522 C1523 1.376 . S
C1523 H1510 0.930 . S
C1523 C1522 1.376 . S
C1523 C1524 1.388 . S
C1524 H1511 0.930 . S
C1524 C1523 1.388 . S
C1524 C1525 1.390 . S
C1525 C1524 1.390 . S
C1525 C1526 1.394 . S
C1525 C1531 1.465 . S
C1526 C1521 1.399 . S
C1526 C1525 1.394 . S
C1526 C1527 1.516 . S
C1527 C1526 1.516 . S
C1527 C1528 1.502 . S
C1527 C1529 1.561 . S
C1527 C1530 1.526 . S
C1528 H1512 0.959 . S
C1528 H1513 0.959 . S
C1528 H1514 0.961 . S
C1528 C1527 1.502 . S
C1529 H1515 0.960 . S
C1529 H1516 0.961 . S
C1529 H1517 0.959 . S
C1529 C1527 1.561 . S
C1530 C1527 1.526 . S
C1530 C1531 1.396 . S
C1530 C1535 1.390 . S
C1531 C1525 1.465 . S
C1531 C1530 1.396 . S
C1531 C1532 1.399 . S
C1532 H1518 0.929 . S
C1532 C1531 1.399 . S
C1532 C1533 1.385 . S
C1533 H1519 0.931 . S
C1533 C1532 1.385 . S
C1533 C1534 1.389 . S
C1534 C1533 1.389 . S
C1534 C1535 1.387 . S
C1535 H1520 0.930 . S
C1535 C1530 1.390 . S
C1535 C1534 1.387 . S
H1536 C1548 0.930 . S
H1537 C1550 0.930 . S
H1538 C1551 0.930 . S
H1539 C1555 0.959 . S
H1540 C1555 0.959 . S
H1541 C1555 0.961 . S
H1542 C1556 0.960 . S
H1543 C1556 0.961 . S
H1544 C1556 0.959 . S
H1545 C1559 0.929 . S
H1546 C1560 0.931 . S
H1547 C1562 0.930 . S
C1548 H1536 0.930 . S
C1548 C1549 1.399 . S
C1548 C1553 1.399 . S
C1549 C1548 1.399 . S
C1549 C1550 1.376 . S
C1550 H1537 0.930 . S
C1550 C1549 1.376 . S
C1550 C1551 1.388 . S
C1551 H1538 0.930 . S
C1551 C1550 1.388 . S
C1551 C1552 1.390 . S
C1552 C1551 1.390 . S
C1552 C1553 1.394 . S
C1552 C1558 1.465 . S
C1553 C1548 1.399 . S
C1553 C1552 1.394 . S
C1553 C1554 1.516 . S
C1554 C1553 1.516 . S
C1554 C1555 1.502 . S
C1554 C1556 1.561 . S
C1554 C1557 1.526 . S
C1555 H1539 0.959 . S
C1555 H1540 0.959 . S
C1555 H1541 0.961 . S
C1555 C1554 1.502 . S
C1556 H1542 0.960 . S
C1556 H1543 0.961 . S
C1556 H1544 0.959 . S
C1556 C1554 1.561 . S
C1557 C1554 1.526 . S
C1557 C1558 1.396 . S
C1557 C1562 1.390 . S
C1558 C1552 1.465 . S
C1558 C1557 1.396 . S
C1558 C1559 1.399 . S
C1559 H1545 0.929 . S
C1559 C1558 1.399 . S
C1559 C1560 1.385 . S
C1560 H1546 0.931 . S
C1560 C1559 1.385 . S
C1560 C1561 1.389 . S
C1561 C1560 1.389 . S
C1561 C1562 1.387 . S
C1562 H1547 0.930 . S
C1562 C1557 1.390 . S
C1562 C1561 1.387 . S
H1563 C1575 0.930 . S
H1564 C1577 0.930 . S
H1565 C1578 0.930 . S
H1566 C1582 0.958 . S
H1567 C1582 0.959 . S
H1568 C1582 0.961 . S
H1569 C1583 0.960 . S
H1570 C1583 0.961 . S
H1571 C1583 0.959 . S
H1572 C1586 0.929 . S
H1573 C1587 0.931 . S
H1574 C1589 0.930 . S
C1575 H1563 0.930 . S
C1575 C1576 1.399 . S
C1575 C1580 1.399 . S
C1576 C1575 1.399 . S
C1576 C1577 1.376 . S
C1577 H1564 0.930 . S
C1577 C1576 1.376 . S
C1577 C1578 1.388 . S
C1578 H1565 0.930 . S
C1578 C1577 1.388 . S
C1578 C1579 1.390 . S
C1579 C1578 1.390 . S
C1579 C1580 1.394 . S
C1579 C1585 1.465 . S
C1580 C1575 1.399 . S
C1580 C1579 1.394 . S
C1580 C1581 1.516 . S
C1581 C1580 1.516 . S
C1581 C1582 1.502 . S
C1581 C1583 1.561 . S
C1581 C1584 1.526 . S
C1582 H1566 0.958 . S
C1582 H1567 0.959 . S
C1582 H1568 0.961 . S
C1582 C1581 1.502 . S
C1583 H1569 0.960 . S
C1583 H1570 0.961 . S
C1583 H1571 0.959 . S
C1583 C1581 1.561 . S
C1584 C1581 1.526 . S
C1584 C1585 1.396 . S
C1584 C1589 1.390 . S
C1585 C1579 1.465 . S
C1585 C1584 1.396 . S
C1585 C1586 1.399 . S
C1586 H1572 0.929 . S
C1586 C1585 1.399 . S
C1586 C1587 1.385 . S
C1587 H1573 0.931 . S
C1587 C1586 1.385 . S
C1587 C1588 1.389 . S
C1588 C1587 1.389 . S
C1588 C1589 1.387 . S
C1589 H1574 0.930 . S
C1589 C1584 1.390 . S
C1589 C1588 1.387 . S
H1590 C1602 0.930 . S
H1591 C1604 0.930 . S
H1592 C1605 0.930 . S
H1593 C1609 0.959 . S
H1594 C1609 0.959 . S
H1595 C1609 0.961 . S
H1596 C1610 0.960 . S
H1597 C1610 0.961 . S
H1598 C1610 0.959 . S
H1599 C1613 0.929 . S
H1600 C1614 0.931 . S
H1601 C1616 0.930 . S
C1602 H1590 0.930 . S
C1602 C1603 1.399 . S
C1602 C1607 1.399 . S
C1603 C1602 1.399 . S
C1603 C1604 1.376 . S
C1604 H1591 0.930 . S
C1604 C1603 1.376 . S
C1604 C1605 1.388 . S
C1605 H1592 0.930 . S
C1605 C1604 1.388 . S
C1605 C1606 1.390 . S
C1606 C1605 1.390 . S
C1606 C1607 1.394 . S
C1606 C1612 1.465 . S
C1607 C1602 1.399 . S
C1607 C1606 1.394 . S
C1607 C1608 1.516 . S
C1608 C1607 1.516 . S
C1608 C1609 1.502 . S
C1608 C1610 1.561 . S
C1608 C1611 1.526 . S
C1609 H1593 0.959 . S
C1609 H1594 0.959 . S
C1609 H1595 0.961 . S
C1609 C1608 1.502 . S
C1610 H1596 0.960 . S
C1610 H1597 0.961 . S
C1610 H1598 0.959 . S
C1610 C1608 1.561 . S
C1611 C1608 1.526 . S
C1611 C1612 1.396 . S
C1611 C1616 1.390 . S
C1612 C1606 1.465 . S
C1612 C1611 1.396 . S
C1612 C1613 1.399 . S
C1613 H1599 0.929 . S
C1613 C1612 1.399 . S
C1613 C1614 1.385 . S
C1614 H1600 0.931 . S
C1614 C1613 1.385 . S
C1614 C1615 1.389 . S
C1615 C1614 1.389 . S
C1615 C1616 1.387 . S
C1616 H1601 0.930 . S
C1616 C1611 1.390 . S
C1616 C1615 1.387 . S
H1617 C1629 0.930 . S
H1618 C1631 0.930 1_556 S
H1619 C1632 0.930 . S
H1620 C1636 0.959 . S
H1621 C1636 0.959 . S
H1622 C1636 0.961 . S
H1623 C1637 0.960 . S
H1624 C1637 0.961 . S
H1625 C1637 0.959 . S
H1626 C1640 0.929 . S
H1627 C1641 0.931 . S
H1628 C1643 0.930 . S
C1629 H1617 0.930 . S
C1629 C1630 1.399 . S
C1629 C1634 1.399 . S
C1630 C1629 1.399 . S
C1630 C1631 1.376 . S
C1631 H1618 0.930 1_554 S
C1631 C1630 1.376 . S
C1631 C1632 1.388 . S
C1632 H1619 0.930 . S
C1632 C1631 1.388 . S
C1632 C1633 1.390 . S
C1633 C1632 1.390 . S
C1633 C1634 1.394 . S
C1633 C1639 1.465 . S
C1634 C1629 1.399 . S
C1634 C1633 1.394 . S
C1634 C1635 1.516 . S
C1635 C1634 1.516 . S
C1635 C1636 1.502 . S
C1635 C1637 1.561 . S
C1635 C1638 1.526 . S
C1636 H1620 0.959 . S
C1636 H1621 0.959 . S
C1636 H1622 0.961 . S
C1636 C1635 1.502 . S
C1637 H1623 0.960 . S
C1637 H1624 0.961 . S
C1637 H1625 0.959 . S
C1637 C1635 1.561 . S
C1638 C1635 1.526 . S
C1638 C1639 1.396 . S
C1638 C1643 1.390 . S
C1639 C1633 1.465 . S
C1639 C1638 1.396 . S
C1639 C1640 1.399 . S
C1640 H1626 0.929 . S
C1640 C1639 1.399 . S
C1640 C1641 1.385 . S
C1641 H1627 0.931 . S
C1641 C1640 1.385 . S
C1641 C1642 1.389 . S
C1642 C1641 1.389 . S
C1642 C1643 1.387 . S
C1643 H1628 0.930 . S
C1643 C1638 1.390 . S
C1643 C1642 1.387 . S
H1644 C1656 0.930 . S
H1645 C1658 0.930 . S
H1646 C1659 0.930 . S
H1647 C1663 0.959 . S
H1648 C1663 0.959 . S
H1649 C1663 0.961 . S
H1650 C1664 0.960 . S
H1651 C1664 0.961 . S
H1652 C1664 0.959 . S
H1653 C1667 0.929 . S
H1654 C1668 0.931 . S
H1655 C1670 0.930 . S
C1656 H1644 0.930 . S
C1656 C1657 1.399 . S
C1656 C1661 1.399 . S
C1657 C1656 1.399 . S
C1657 C1658 1.376 . S
C1658 H1645 0.930 . S
C1658 C1657 1.376 . S
C1658 C1659 1.388 . S
C1659 H1646 0.930 . S
C1659 C1658 1.388 . S
C1659 C1660 1.390 . S
C1660 C1659 1.390 . S
C1660 C1661 1.394 . S
C1660 C1666 1.465 . S
C1661 C1656 1.399 . S
C1661 C1660 1.394 . S
C1661 C1662 1.516 . S
C1662 C1661 1.516 . S
C1662 C1663 1.502 . S
C1662 C1664 1.561 . S
C1662 C1665 1.526 . S
C1663 H1647 0.959 . S
C1663 H1648 0.959 . S
C1663 H1649 0.961 . S
C1663 C1662 1.502 . S
C1664 H1650 0.960 . S
C1664 H1651 0.961 . S
C1664 H1652 0.959 . S
C1664 C1662 1.561 . S
C1665 C1662 1.526 . S
C1665 C1666 1.396 . S
C1665 C1670 1.390 . S
C1666 C1660 1.465 . S
C1666 C1665 1.396 . S
C1666 C1667 1.399 . S
C1667 H1653 0.929 . S
C1667 C1666 1.399 . S
C1667 C1668 1.385 . S
C1668 H1654 0.931 . S
C1668 C1667 1.385 . S
C1668 C1669 1.389 . S
C1669 C1668 1.389 . S
C1669 C1670 1.387 . S
C1670 H1655 0.930 . S
C1670 C1665 1.390 . S
C1670 C1669 1.387 . S
H1671 C1683 0.930 . S
H1672 C1685 0.930 . S
H1673 C1686 0.930 . S
H1674 C1690 0.959 . S
H1675 C1690 0.959 . S
H1676 C1690 0.961 . S
H1677 C1691 0.960 . S
H1678 C1691 0.961 . S
H1679 C1691 0.959 . S
H1680 C1694 0.929 . S
H1681 C1695 0.931 . S
H1682 C1697 0.930 . S
C1683 H1671 0.930 . S
C1683 C1684 1.399 . S
C1683 C1688 1.399 . S
C1684 C1683 1.399 . S
C1684 C1685 1.376 . S
C1685 H1672 0.930 . S
C1685 C1684 1.376 . S
C1685 C1686 1.388 . S
C1686 H1673 0.930 . S
C1686 C1685 1.388 . S
C1686 C1687 1.390 . S
C1687 C1686 1.390 . S
C1687 C1688 1.394 . S
C1687 C1693 1.465 . S
C1688 C1683 1.399 . S
C1688 C1687 1.394 . S
C1688 C1689 1.516 . S
C1689 C1688 1.516 . S
C1689 C1690 1.502 . S
C1689 C1691 1.561 . S
C1689 C1692 1.526 . S
C1690 H1674 0.959 . S
C1690 H1675 0.959 . S
C1690 H1676 0.961 . S
C1690 C1689 1.502 . S
C1691 H1677 0.960 . S
C1691 H1678 0.961 . S
C1691 H1679 0.959 . S
C1691 C1689 1.561 . S
C1692 C1689 1.526 . S
C1692 C1693 1.396 . S
C1692 C1697 1.390 . S
C1693 C1687 1.465 . S
C1693 C1692 1.396 . S
C1693 C1694 1.399 . S
C1694 H1680 0.929 . S
C1694 C1693 1.399 . S
C1694 C1695 1.385 . S
C1695 H1681 0.931 . S
C1695 C1694 1.385 . S
C1695 C1696 1.389 . S
C1696 C1695 1.389 . S
C1696 C1697 1.387 . S
C1697 H1682 0.930 . S
C1697 C1692 1.390 . S
C1697 C1696 1.387 . S
H1698 C1710 0.930 . S
H1699 C1712 0.930 . S
H1700 C1713 0.930 . S
H1701 C1717 0.959 . S
H1702 C1717 0.959 . S
H1703 C1717 0.961 . S
H1704 C1718 0.960 . S
H1705 C1718 0.961 . S
H1706 C1718 0.959 . S
H1707 C1721 0.929 . S
H1708 C1722 0.931 . S
H1709 C1724 0.930 . S
C1710 H1698 0.930 . S
C1710 C1711 1.399 . S
C1710 C1715 1.399 . S
C1711 C1710 1.399 . S
C1711 C1712 1.376 . S
C1712 H1699 0.930 . S
C1712 C1711 1.376 . S
C1712 C1713 1.388 . S
C1713 H1700 0.930 . S
C1713 C1712 1.388 . S
C1713 C1714 1.390 . S
C1714 C1713 1.390 . S
C1714 C1715 1.394 . S
C1714 C1720 1.465 . S
C1715 C1710 1.399 . S
C1715 C1714 1.394 . S
C1715 C1716 1.516 . S
C1716 C1715 1.516 . S
C1716 C1717 1.502 . S
C1716 C1718 1.561 . S
C1716 C1719 1.526 . S
C1717 H1701 0.959 . S
C1717 H1702 0.959 . S
C1717 H1703 0.961 . S
C1717 C1716 1.502 . S
C1718 H1704 0.960 . S
C1718 H1705 0.961 . S
C1718 H1706 0.959 . S
C1718 C1716 1.561 . S
C1719 C1716 1.526 . S
C1719 C1720 1.396 . S
C1719 C1724 1.390 . S
C1720 C1714 1.465 . S
C1720 C1719 1.396 . S
C1720 C1721 1.399 . S
C1721 H1707 0.929 . S
C1721 C1720 1.399 . S
C1721 C1722 1.385 . S
C1722 H1708 0.931 . S
C1722 C1721 1.385 . S
C1722 C1723 1.389 . S
C1723 C1722 1.389 . S
C1723 C1724 1.387 . S
C1724 H1709 0.930 . S
C1724 C1719 1.390 . S
C1724 C1723 1.387 . S
H1725 C1737 0.930 . S
H1726 C1739 0.930 . S
H1727 C1740 0.930 . S
H1728 C1744 0.959 . S
H1729 C1744 0.959 . S
H1730 C1744 0.961 . S
H1731 C1745 0.960 . S
H1732 C1745 0.961 . S
H1733 C1745 0.959 . S
H1734 C1748 0.929 . S
H1735 C1749 0.931 . S
H1736 C1751 0.930 . S
C1737 H1725 0.930 . S
C1737 C1738 1.399 . S
C1737 C1742 1.399 . S
C1738 C1737 1.399 . S
C1738 C1739 1.376 . S
C1739 H1726 0.930 . S
C1739 C1738 1.376 . S
C1739 C1740 1.388 . S
C1740 H1727 0.930 . S
C1740 C1739 1.388 . S
C1740 C1741 1.390 . S
C1741 C1740 1.390 . S
C1741 C1742 1.394 . S
C1741 C1747 1.465 . S
C1742 C1737 1.399 . S
C1742 C1741 1.394 . S
C1742 C1743 1.516 . S
C1743 C1742 1.516 . S
C1743 C1744 1.502 . S
C1743 C1745 1.561 . S
C1743 C1746 1.526 . S
C1744 H1728 0.959 . S
C1744 H1729 0.959 . S
C1744 H1730 0.961 . S
C1744 C1743 1.502 . S
C1745 H1731 0.960 . S
C1745 H1732 0.961 . S
C1745 H1733 0.959 . S
C1745 C1743 1.561 . S
C1746 C1743 1.526 . S
C1746 C1747 1.396 . S
C1746 C1751 1.390 . S
C1747 C1741 1.465 . S
C1747 C1746 1.396 . S
C1747 C1748 1.399 . S
C1748 H1734 0.929 . S
C1748 C1747 1.399 . S
C1748 C1749 1.385 . S
C1749 H1735 0.931 . S
C1749 C1748 1.385 . S
C1749 C1750 1.389 . S
C1750 C1749 1.389 . S
C1750 C1751 1.387 . S
C1751 H1736 0.930 . S
C1751 C1746 1.390 . S
C1751 C1750 1.387 . S
H1752 C1764 0.930 . S
H1753 C1766 0.930 . S
H1754 C1767 0.930 . S
H1755 C1771 0.959 . S
H1756 C1771 0.959 . S
H1757 C1771 0.961 . S
H1758 C1772 0.960 . S
H1759 C1772 0.961 . S
H1760 C1772 0.959 . S
H1761 C1775 0.929 . S
H1762 C1776 0.931 . S
H1763 C1778 0.930 . S
C1764 H1752 0.930 . S
C1764 C1765 1.399 . S
C1764 C1769 1.399 . S
C1765 C1764 1.399 . S
C1765 C1766 1.376 . S
C1766 H1753 0.930 . S
C1766 C1765 1.376 . S
C1766 C1767 1.388 . S
C1767 H1754 0.930 . S
C1767 C1766 1.388 . S
C1767 C1768 1.390 . S
C1768 C1767 1.390 . S
C1768 C1769 1.394 . S
C1768 C1774 1.465 . S
C1769 C1764 1.399 . S
C1769 C1768 1.394 . S
C1769 C1770 1.516 . S
C1770 C1769 1.516 . S
C1770 C1771 1.502 . S
C1770 C1772 1.561 . S
C1770 C1773 1.526 . S
C1771 H1755 0.959 . S
C1771 H1756 0.959 . S
C1771 H1757 0.961 . S
C1771 C1770 1.502 . S
C1772 H1758 0.960 . S
C1772 H1759 0.961 . S
C1772 H1760 0.959 . S
C1772 C1770 1.561 . S
C1773 C1770 1.526 . S
C1773 C1774 1.396 . S
C1773 C1778 1.390 . S
C1774 C1768 1.465 . S
C1774 C1773 1.396 . S
C1774 C1775 1.399 . S
C1775 H1761 0.929 . S
C1775 C1774 1.399 . S
C1775 C1776 1.385 . S
C1776 H1762 0.931 . S
C1776 C1775 1.385 . S
C1776 C1777 1.389 . S
C1777 C1776 1.389 . S
C1777 C1778 1.387 . S
C1778 H1763 0.930 . S
C1778 C1773 1.390 . S
C1778 C1777 1.387 . S
H1779 C1791 0.930 . S
H1780 C1793 0.930 . S
H1781 C1794 0.930 . S
H1782 C1798 0.959 . S
H1783 C1798 0.959 . S
H1784 C1798 0.961 . S
H1785 C1799 0.960 . S
H1786 C1799 0.961 . S
H1787 C1799 0.959 . S
H1788 C1802 0.929 . S
H1789 C1803 0.931 . S
H1790 C1805 0.930 . S
C1791 H1779 0.930 . S
C1791 C1792 1.399 . S
C1791 C1796 1.399 . S
C1792 C1791 1.399 . S
C1792 C1793 1.376 . S
C1793 H1780 0.930 . S
C1793 C1792 1.376 . S
C1793 C1794 1.388 . S
C1794 H1781 0.930 . S
C1794 C1793 1.388 . S
C1794 C1795 1.390 . S
C1795 C1794 1.390 . S
C1795 C1796 1.394 . S
C1795 C1801 1.465 . S
C1796 C1791 1.399 . S
C1796 C1795 1.394 . S
C1796 C1797 1.516 . S
C1797 C1796 1.516 . S
C1797 C1798 1.502 . S
C1797 C1799 1.561 . S
C1797 C1800 1.526 . S
C1798 H1782 0.959 . S
C1798 H1783 0.959 . S
C1798 H1784 0.961 . S
C1798 C1797 1.502 . S
C1799 H1785 0.960 . S
C1799 H1786 0.961 . S
C1799 H1787 0.959 . S
C1799 C1797 1.561 . S
C1800 C1797 1.526 . S
C1800 C1801 1.396 . S
C1800 C1805 1.390 . S
C1801 C1795 1.465 . S
C1801 C1800 1.396 . S
C1801 C1802 1.399 . S
C1802 H1788 0.929 . S
C1802 C1801 1.399 . S
C1802 C1803 1.385 . S
C1803 H1789 0.931 . S
C1803 C1802 1.385 . S
C1803 C1804 1.389 . S
C1804 C1803 1.389 . S
C1804 C1805 1.387 . S
C1805 H1790 0.930 . S
C1805 C1800 1.390 . S
C1805 C1804 1.387 . S
H1806 C1818 0.930 . S
H1807 C1820 0.930 . S
H1808 C1821 0.930 . S
H1809 C1825 0.959 . S
H1810 C1825 0.959 . S
H1811 C1825 0.961 . S
H1812 C1826 0.960 . S
H1813 C1826 0.961 . S
H1814 C1826 0.959 . S
H1815 C1829 0.929 . S
H1816 C1830 0.931 . S
H1817 C1832 0.930 . S
C1818 H1806 0.930 . S
C1818 C1819 1.399 . S
C1818 C1823 1.399 . S
C1819 C1818 1.399 . S
C1819 C1820 1.376 . S
C1820 H1807 0.930 . S
C1820 C1819 1.376 . S
C1820 C1821 1.388 . S
C1821 H1808 0.930 . S
C1821 C1820 1.388 . S
C1821 C1822 1.390 . S
C1822 C1821 1.390 . S
C1822 C1823 1.394 . S
C1822 C1828 1.465 . S
C1823 C1818 1.399 . S
C1823 C1822 1.394 . S
C1823 C1824 1.516 . S
C1824 C1823 1.516 . S
C1824 C1825 1.502 . S
C1824 C1826 1.561 . S
C1824 C1827 1.526 . S
C1825 H1809 0.959 . S
C1825 H1810 0.959 . S
C1825 H1811 0.961 . S
C1825 C1824 1.502 . S
C1826 H1812 0.960 . S
C1826 H1813 0.961 . S
C1826 H1814 0.959 . S
C1826 C1824 1.561 . S
C1827 C1824 1.526 . S
C1827 C1828 1.396 . S
C1827 C1832 1.390 . S
C1828 C1822 1.465 . S
C1828 C1827 1.396 . S
C1828 C1829 1.399 . S
C1829 H1815 0.929 . S
C1829 C1828 1.399 . S
C1829 C1830 1.385 . S
C1830 H1816 0.931 . S
C1830 C1829 1.385 . S
C1830 C1831 1.389 . S
C1831 C1830 1.389 . S
C1831 C1832 1.387 . S
C1832 H1817 0.930 . S
C1832 C1827 1.390 . S
C1832 C1831 1.387 . S
H1833 C1845 0.930 . S
H1834 C1847 0.930 . S
H1835 C1848 0.930 . S
H1836 C1852 0.959 . S
H1837 C1852 0.959 . S
H1838 C1852 0.961 . S
H1839 C1853 0.960 . S
H1840 C1853 0.961 . S
H1841 C1853 0.959 . S
H1842 C1856 0.929 . S
H1843 C1857 0.931 . S
H1844 C1859 0.930 . S
C1845 H1833 0.930 . S
C1845 C1846 1.399 . S
C1845 C1850 1.399 . S
C1846 C1845 1.399 . S
C1846 C1847 1.376 . S
C1847 H1834 0.930 . S
C1847 C1846 1.376 . S
C1847 C1848 1.388 . S
C1848 H1835 0.930 . S
C1848 C1847 1.388 . S
C1848 C1849 1.390 . S
C1849 C1848 1.390 . S
C1849 C1850 1.394 . S
C1849 C1855 1.465 . S
C1850 C1845 1.399 . S
C1850 C1849 1.394 . S
C1850 C1851 1.516 . S
C1851 C1850 1.516 . S
C1851 C1852 1.502 . S
C1851 C1853 1.561 . S
C1851 C1854 1.526 . S
C1852 H1836 0.959 . S
C1852 H1837 0.959 . S
C1852 H1838 0.961 . S
C1852 C1851 1.502 . S
C1853 H1839 0.960 . S
C1853 H1840 0.961 . S
C1853 H1841 0.959 . S
C1853 C1851 1.561 . S
C1854 C1851 1.526 . S
C1854 C1855 1.396 . S
C1854 C1859 1.390 . S
C1855 C1849 1.465 . S
C1855 C1854 1.396 . S
C1855 C1856 1.399 . S
C1856 H1842 0.929 . S
C1856 C1855 1.399 . S
C1856 C1857 1.385 . S
C1857 H1843 0.931 . S
C1857 C1856 1.385 . S
C1857 C1858 1.389 . S
C1858 C1857 1.389 . S
C1858 C1859 1.387 . S
C1859 H1844 0.930 . S
C1859 C1854 1.390 . S
C1859 C1858 1.387 . S
H1860 C1872 0.930 . S
H1861 C1874 0.930 . S
H1862 C1875 0.930 . S
H1863 C1879 0.959 . S
H1864 C1879 0.959 . S
H1865 C1879 0.961 . S
H1866 C1880 0.960 . S
H1867 C1880 0.961 . S
H1868 C1880 0.959 . S
H1869 C1883 0.929 . S
H1870 C1884 0.931 . S
H1871 C1886 0.930 . S
C1872 H1860 0.930 . S
C1872 C1873 1.399 . S
C1872 C1877 1.399 . S
C1873 C1872 1.399 . S
C1873 C1874 1.376 . S
C1874 H1861 0.930 . S
C1874 C1873 1.376 . S
C1874 C1875 1.388 . S
C1875 H1862 0.930 . S
C1875 C1874 1.388 . S
C1875 C1876 1.390 . S
C1876 C1875 1.390 . S
C1876 C1877 1.394 . S
C1876 C1882 1.465 . S
C1877 C1872 1.399 . S
C1877 C1876 1.394 . S
C1877 C1878 1.516 . S
C1878 C1877 1.516 . S
C1878 C1879 1.502 . S
C1878 C1880 1.561 . S
C1878 C1881 1.526 . S
C1879 H1863 0.959 . S
C1879 H1864 0.959 . S
C1879 H1865 0.961 . S
C1879 C1878 1.502 . S
C1880 H1866 0.960 . S
C1880 H1867 0.961 . S
C1880 H1868 0.959 . S
C1880 C1878 1.561 . S
C1881 C1878 1.526 . S
C1881 C1882 1.396 . S
C1881 C1886 1.390 . S
C1882 C1876 1.465 . S
C1882 C1881 1.396 . S
C1882 C1883 1.399 . S
C1883 H1869 0.929 . S
C1883 C1882 1.399 . S
C1883 C1884 1.385 . S
C1884 H1870 0.931 . S
C1884 C1883 1.385 . S
C1884 C1885 1.389 . S
C1885 C1884 1.389 . S
C1885 C1886 1.387 . S
C1886 H1871 0.930 . S
C1886 C1881 1.390 . S
C1886 C1885 1.387 . S
H1887 C1899 0.930 . S
H1888 C1901 0.930 . S
H1889 C1902 0.930 . S
H1890 C1906 0.959 . S
H1891 C1906 0.959 . S
H1892 C1906 0.961 . S
H1893 C1907 0.960 . S
H1894 C1907 0.961 . S
H1895 C1907 0.959 . S
H1896 C1910 0.929 . S
H1897 C1911 0.931 . S
H1898 C1913 0.930 . S
C1899 H1887 0.930 . S
C1899 C1900 1.399 . S
C1899 C1904 1.399 . S
C1900 C1899 1.399 . S
C1900 C1901 1.376 . S
C1901 H1888 0.930 . S
C1901 C1900 1.376 . S
C1901 C1902 1.388 . S
C1902 H1889 0.930 . S
C1902 C1901 1.388 . S
C1902 C1903 1.390 . S
C1903 C1902 1.390 . S
C1903 C1904 1.394 . S
C1903 C1909 1.465 . S
C1904 C1899 1.399 . S
C1904 C1903 1.394 . S
C1904 C1905 1.516 . S
C1905 C1904 1.516 . S
C1905 C1906 1.502 . S
C1905 C1907 1.561 . S
C1905 C1908 1.526 . S
C1906 H1890 0.959 . S
C1906 H1891 0.959 . S
C1906 H1892 0.961 . S
C1906 C1905 1.502 . S
C1907 H1893 0.960 . S
C1907 H1894 0.961 . S
C1907 H1895 0.959 . S
C1907 C1905 1.561 . S
C1908 C1905 1.526 . S
C1908 C1909 1.396 . S
C1908 C1913 1.390 . S
C1909 C1903 1.465 . S
C1909 C1908 1.396 . S
C1909 C1910 1.399 . S
C1910 H1896 0.929 . S
C1910 C1909 1.399 . S
C1910 C1911 1.385 . S
C1911 H1897 0.931 . S
C1911 C1910 1.385 . S
C1911 C1912 1.389 . S
C1912 C1911 1.389 . S
C1912 C1913 1.387 . S
C1913 H1898 0.930 . S
C1913 C1908 1.390 . S
C1913 C1912 1.387 . S
H1914 C1926 0.930 . S
H1915 C1928 0.930 . S
H1916 C1929 0.930 . S
H1917 C1933 0.959 . S
H1918 C1933 0.959 . S
H1919 C1933 0.961 . S
H1920 C1934 0.960 . S
H1921 C1934 0.961 . S
H1922 C1934 0.959 . S
H1923 C1937 0.929 . S
H1924 C1938 0.931 . S
H1925 C1940 0.930 . S
C1926 H1914 0.930 . S
C1926 C1927 1.399 . S
C1926 C1931 1.399 . S
C1927 C1926 1.399 . S
C1927 C1928 1.376 . S
C1928 H1915 0.930 . S
C1928 C1927 1.376 . S
C1928 C1929 1.388 . S
C1929 H1916 0.930 . S
C1929 C1928 1.388 . S
C1929 C1930 1.390 . S
C1930 C1929 1.390 . S
C1930 C1931 1.394 . S
C1930 C1936 1.465 . S
C1931 C1926 1.399 . S
C1931 C1930 1.394 . S
C1931 C1932 1.516 . S
C1932 C1931 1.516 . S
C1932 C1933 1.502 . S
C1932 C1934 1.561 . S
C1932 C1935 1.526 . S
C1933 H1917 0.959 . S
C1933 H1918 0.959 . S
C1933 H1919 0.961 . S
C1933 C1932 1.502 . S
C1934 H1920 0.960 . S
C1934 H1921 0.961 . S
C1934 H1922 0.959 . S
C1934 C1932 1.561 . S
C1935 C1932 1.526 . S
C1935 C1936 1.396 . S
C1935 C1940 1.390 . S
C1936 C1930 1.465 . S
C1936 C1935 1.396 . S
C1936 C1937 1.399 . S
C1937 H1923 0.929 . S
C1937 C1936 1.399 . S
C1937 C1938 1.385 . S
C1938 H1924 0.931 . S
C1938 C1937 1.385 . S
C1938 C1939 1.389 . S
C1939 C1938 1.389 . S
C1939 C1940 1.387 . S
C1940 H1925 0.930 . S
C1940 C1935 1.390 . S
C1940 C1939 1.387 . S
H1941 C1953 0.930 . S
H1942 C1955 0.930 . S
H1943 C1956 0.930 . S
H1944 C1960 0.959 . S
H1945 C1960 0.959 . S
H1946 C1960 0.961 . S
H1947 C1961 0.960 . S
H1948 C1961 0.961 . S
H1949 C1961 0.959 . S
H1950 C1964 0.923 1_554 S
H1951 C1965 0.931 . S
H1952 C1967 0.930 . S
C1953 H1941 0.930 . S
C1953 C1954 1.399 . S
C1953 C1958 1.399 . S
C1954 C1953 1.399 . S
C1954 C1955 1.376 . S
C1955 H1942 0.930 . S
C1955 C1954 1.376 . S
C1955 C1956 1.388 . S
C1956 H1943 0.930 . S
C1956 C1955 1.388 . S
C1956 C1957 1.390 . S
C1957 C1956 1.390 . S
C1957 C1958 1.394 . S
C1957 C1963 1.465 . S
C1958 C1953 1.399 . S
C1958 C1957 1.394 . S
C1958 C1959 1.516 . S
C1959 C1958 1.516 . S
C1959 C1960 1.502 . S
C1959 C1961 1.561 . S
C1959 C1962 1.526 . S
C1960 H1944 0.959 . S
C1960 H1945 0.959 . S
C1960 H1946 0.961 . S
C1960 C1959 1.502 . S
C1961 H1947 0.960 . S
C1961 H1948 0.961 . S
C1961 H1949 0.959 . S
C1961 C1959 1.561 . S
C1962 C1959 1.526 . S
C1962 C1963 1.396 . S
C1962 C1967 1.390 . S
C1963 C1957 1.465 . S
C1963 C1962 1.396 . S
C1963 C1964 1.399 . S
C1964 H1950 0.923 1_556 S
C1964 C1963 1.399 . S
C1964 C1965 1.385 . S
C1965 H1951 0.931 . S
C1965 C1964 1.385 . S
C1965 C1966 1.389 . S
C1966 C1965 1.389 . S
C1966 C1967 1.387 . S
C1967 H1952 0.930 . S
C1967 C1962 1.390 . S
C1967 C1966 1.387 . S
H1968 C1980 0.930 . S
H1969 C1982 0.930 . S
H1970 C1983 0.930 . S
H1971 C1987 0.959 . S
H1972 C1987 0.959 . S
H1973 C1987 0.961 . S
H1974 C1988 0.960 . S
H1975 C1988 0.961 . S
H1976 C1988 0.959 . S
H1977 C1991 0.929 . S
H1978 C1992 0.931 . S
H1979 C1994 0.930 . S
C1980 H1968 0.930 . S
C1980 C1981 1.399 . S
C1980 C1985 1.399 . S
C1981 C1980 1.399 . S
C1981 C1982 1.376 . S
C1982 H1969 0.930 . S
C1982 C1981 1.376 . S
C1982 C1983 1.388 . S
C1983 H1970 0.930 . S
C1983 C1982 1.388 . S
C1983 C1984 1.390 . S
C1984 C1983 1.390 . S
C1984 C1985 1.394 . S
C1984 C1990 1.465 . S
C1985 C1980 1.399 . S
C1985 C1984 1.394 . S
C1985 C1986 1.516 . S
C1986 C1985 1.516 . S
C1986 C1987 1.502 . S
C1986 C1988 1.561 . S
C1986 C1989 1.526 . S
C1987 H1971 0.959 . S
C1987 H1972 0.959 . S
C1987 H1973 0.961 . S
C1987 C1986 1.502 . S
C1988 H1974 0.960 . S
C1988 H1975 0.961 . S
C1988 H1976 0.959 . S
C1988 C1986 1.561 . S
C1989 C1986 1.526 . S
C1989 C1990 1.396 . S
C1989 C1994 1.390 . S
C1990 C1984 1.465 . S
C1990 C1989 1.396 . S
C1990 C1991 1.399 . S
C1991 H1977 0.929 . S
C1991 C1990 1.399 . S
C1991 C1992 1.385 . S
C1992 H1978 0.931 . S
C1992 C1991 1.385 . S
C1992 C1993 1.389 . S
C1993 C1992 1.389 . S
C1993 C1994 1.387 . S
C1994 H1979 0.930 . S
C1994 C1989 1.390 . S
C1994 C1993 1.387 . S
H1995 C2007 0.930 . S
H1996 C2009 0.930 . S
H1997 C2010 0.930 . S
H1998 C2014 0.959 . S
H1999 C2014 0.959 . S
H2000 C2014 0.961 . S
H2001 C2015 0.960 . S
H2002 C2015 0.961 . S
H2003 C2015 0.959 . S
H2004 C2018 0.929 . S
H2005 C2019 0.931 . S
H2006 C2021 0.930 . S
C2007 H1995 0.930 . S
C2007 C2008 1.399 . S
C2007 C2012 1.399 . S
C2008 C2007 1.399 . S
C2008 C2009 1.376 . S
C2009 H1996 0.930 . S
C2009 C2008 1.376 . S
C2009 C2010 1.388 . S
C2010 H1997 0.930 . S
C2010 C2009 1.388 . S
C2010 C2011 1.390 . S
C2011 C2010 1.390 . S
C2011 C2012 1.394 . S
C2011 C2017 1.465 . S
C2012 C2007 1.399 . S
C2012 C2011 1.394 . S
C2012 C2013 1.516 . S
C2013 C2012 1.516 . S
C2013 C2014 1.502 . S
C2013 C2015 1.561 . S
C2013 C2016 1.526 . S
C2014 H1998 0.959 . S
C2014 H1999 0.959 . S
C2014 H2000 0.961 . S
C2014 C2013 1.502 . S
C2015 H2001 0.960 . S
C2015 H2002 0.961 . S
C2015 H2003 0.959 . S
C2015 C2013 1.561 . S
C2016 C2013 1.526 . S
C2016 C2017 1.396 . S
C2016 C2021 1.390 . S
C2017 C2011 1.465 . S
C2017 C2016 1.396 . S
C2017 C2018 1.399 . S
C2018 H2004 0.929 . S
C2018 C2017 1.399 . S
C2018 C2019 1.385 . S
C2019 H2005 0.931 . S
C2019 C2018 1.385 . S
C2019 C2020 1.389 . S
C2020 C2019 1.389 . S
C2020 C2021 1.387 . S
C2021 H2006 0.930 . S
C2021 C2016 1.390 . S
C2021 C2020 1.387 . S
H2022 C2034 0.930 . S
H2023 C2036 0.930 . S
H2024 C2037 0.930 . S
H2025 C2041 0.959 . S
H2026 C2041 0.959 . S
H2027 C2041 0.961 . S
H2028 C2042 0.960 . S
H2029 C2042 0.961 . S
H2030 C2042 0.959 . S
H2031 C2045 0.929 . S
H2032 C2046 0.931 . S
H2033 C2048 0.930 . S
C2034 H2022 0.930 . S
C2034 C2035 1.399 . S
C2034 C2039 1.399 . S
C2035 C2034 1.399 . S
C2035 C2036 1.376 . S
C2036 H2023 0.930 . S
C2036 C2035 1.376 . S
C2036 C2037 1.388 . S
C2037 H2024 0.930 . S
C2037 C2036 1.388 . S
C2037 C2038 1.390 . S
C2038 C2037 1.390 . S
C2038 C2039 1.394 . S
C2038 C2044 1.465 . S
C2039 C2034 1.399 . S
C2039 C2038 1.394 . S
C2039 C2040 1.516 . S
C2040 C2039 1.516 . S
C2040 C2041 1.502 . S
C2040 C2042 1.561 . S
C2040 C2043 1.526 . S
C2041 H2025 0.959 . S
C2041 H2026 0.959 . S
C2041 H2027 0.961 . S
C2041 C2040 1.502 . S
C2042 H2028 0.960 . S
C2042 H2029 0.961 . S
C2042 H2030 0.959 . S
C2042 C2040 1.561 . S
C2043 C2040 1.526 . S
C2043 C2044 1.396 . S
C2043 C2048 1.390 . S
C2044 C2038 1.465 . S
C2044 C2043 1.396 . S
C2044 C2045 1.399 . S
C2045 H2031 0.929 . S
C2045 C2044 1.399 . S
C2045 C2046 1.385 . S
C2046 H2032 0.931 . S
C2046 C2045 1.385 . S
C2046 C2047 1.389 . S
C2047 C2046 1.389 . S
C2047 C2048 1.387 . S
C2048 H2033 0.930 . S
C2048 C2043 1.390 . S
C2048 C2047 1.387 . S
H2049 C2061 0.930 . S
H2050 C2063 0.930 . S
H2051 C2064 0.930 . S
H2052 C2068 0.959 . S
H2053 C2068 0.959 . S
H2054 C2068 0.961 . S
H2055 C2069 0.960 . S
H2056 C2069 0.961 . S
H2057 C2069 0.959 . S
H2058 C2072 0.929 . S
H2059 C2073 0.931 . S
H2060 C2075 0.930 . S
C2061 H2049 0.930 . S
C2061 C2062 1.399 . S
C2061 C2066 1.399 . S
C2062 C2061 1.399 . S
C2062 C2063 1.376 . S
C2063 H2050 0.930 . S
C2063 C2062 1.376 . S
C2063 C2064 1.388 . S
C2064 H2051 0.930 . S
C2064 C2063 1.388 . S
C2064 C2065 1.390 . S
C2065 C2064 1.390 . S
C2065 C2066 1.394 . S
C2065 C2071 1.465 . S
C2066 C2061 1.399 . S
C2066 C2065 1.394 . S
C2066 C2067 1.516 . S
C2067 C2066 1.516 . S
C2067 C2068 1.502 . S
C2067 C2069 1.561 . S
C2067 C2070 1.526 . S
C2068 H2052 0.959 . S
C2068 H2053 0.959 . S
C2068 H2054 0.961 . S
C2068 C2067 1.502 . S
C2069 H2055 0.960 . S
C2069 H2056 0.961 . S
C2069 H2057 0.959 . S
C2069 C2067 1.561 . S
C2070 C2067 1.526 . S
C2070 C2071 1.396 . S
C2070 C2075 1.390 . S
C2071 C2065 1.465 . S
C2071 C2070 1.396 . S
C2071 C2072 1.399 . S
C2072 H2058 0.929 . S
C2072 C2071 1.399 . S
C2072 C2073 1.385 . S
C2073 H2059 0.931 . S
C2073 C2072 1.385 . S
C2073 C2074 1.389 . S
C2074 C2073 1.389 . S
C2074 C2075 1.387 . S
C2075 H2060 0.930 . S
C2075 C2070 1.390 . S
C2075 C2074 1.387 . S
H2076 C2088 0.930 . S
H2077 C2090 0.930 . S
H2078 C2091 0.930 . S
H2079 C2095 0.959 . S
H2080 C2095 0.959 . S
H2081 C2095 0.961 . S
H2082 C2096 0.960 . S
H2083 C2096 0.961 . S
H2084 C2096 0.959 . S
H2085 C2099 0.929 . S
H2086 C2100 0.931 . S
H2087 C2102 0.930 . S
C2088 H2076 0.930 . S
C2088 C2089 1.399 . S
C2088 C2093 1.399 . S
C2089 C2088 1.399 . S
C2089 C2090 1.376 . S
C2090 H2077 0.930 . S
C2090 C2089 1.376 . S
C2090 C2091 1.388 . S
C2091 H2078 0.930 . S
C2091 C2090 1.388 . S
C2091 C2092 1.390 . S
C2092 C2091 1.390 . S
C2092 C2093 1.394 . S
C2092 C2098 1.465 . S
C2093 C2088 1.399 . S
C2093 C2092 1.394 . S
C2093 C2094 1.516 . S
C2094 C2093 1.516 . S
C2094 C2095 1.502 . S
C2094 C2096 1.561 . S
C2094 C2097 1.526 . S
C2095 H2079 0.959 . S
C2095 H2080 0.959 . S
C2095 H2081 0.961 . S
C2095 C2094 1.502 . S
C2096 H2082 0.960 . S
C2096 H2083 0.961 . S
C2096 H2084 0.959 . S
C2096 C2094 1.561 . S
C2097 C2094 1.526 . S
C2097 C2098 1.396 . S
C2097 C2102 1.390 . S
C2098 C2092 1.465 . S
C2098 C2097 1.396 . S
C2098 C2099 1.399 . S
C2099 H2085 0.929 . S
C2099 C2098 1.399 . S
C2099 C2100 1.385 . S
C2100 H2086 0.931 . S
C2100 C2099 1.385 . S
C2100 C2101 1.389 . S
C2101 C2100 1.389 . S
C2101 C2102 1.387 . S
C2102 H2087 0.930 . S
C2102 C2097 1.390 . S
C2102 C2101 1.387 . S
H2103 C2115 0.930 . S
H2104 C2117 0.930 . S
H2105 C2118 0.930 . S
H2106 C2122 0.959 . S
H2107 C2122 0.959 . S
H2108 C2122 0.961 . S
H2109 C2123 0.960 . S
H2110 C2123 0.961 . S
H2111 C2123 0.959 . S
H2112 C2126 0.929 . S
H2113 C2127 0.931 . S
H2114 C2129 0.930 . S
C2115 H2103 0.930 . S
C2115 C2116 1.399 . S
C2115 C2120 1.399 . S
C2116 C2115 1.399 . S
C2116 C2117 1.376 . S
C2117 H2104 0.930 . S
C2117 C2116 1.376 . S
C2117 C2118 1.388 . S
C2118 H2105 0.930 . S
C2118 C2117 1.388 . S
C2118 C2119 1.390 . S
C2119 C2118 1.390 . S
C2119 C2120 1.394 . S
C2119 C2125 1.465 . S
C2120 C2115 1.399 . S
C2120 C2119 1.394 . S
C2120 C2121 1.516 . S
C2121 C2120 1.516 . S
C2121 C2122 1.502 . S
C2121 C2123 1.561 . S
C2121 C2124 1.526 . S
C2122 H2106 0.959 . S
C2122 H2107 0.959 . S
C2122 H2108 0.961 . S
C2122 C2121 1.502 . S
C2123 H2109 0.960 . S
C2123 H2110 0.961 . S
C2123 H2111 0.959 . S
C2123 C2121 1.561 . S
C2124 C2121 1.526 . S
C2124 C2125 1.396 . S
C2124 C2129 1.390 . S
C2125 C2119 1.465 . S
C2125 C2124 1.396 . S
C2125 C2126 1.399 . S
C2126 H2112 0.929 . S
C2126 C2125 1.399 . S
C2126 C2127 1.385 . S
C2127 H2113 0.931 . S
C2127 C2126 1.385 . S
C2127 C2128 1.389 . S
C2128 C2127 1.389 . S
C2128 C2129 1.387 . S
C2129 H2114 0.930 . S
C2129 C2124 1.390 . S
C2129 C2128 1.387 . S
H2130 C2142 0.930 . S
H2131 C2144 0.930 . S
H2132 C2145 0.930 . S
H2133 C2149 0.959 . S
H2134 C2149 0.959 . S
H2135 C2149 0.961 . S
H2136 C2150 0.960 . S
H2137 C2150 0.961 . S
H2138 C2150 0.959 . S
H2139 C2153 0.929 . S
H2140 C2154 0.931 . S
H2141 C2156 0.930 . S
C2142 H2130 0.930 . S
C2142 C2143 1.399 . S
C2142 C2147 1.399 . S
C2143 C2142 1.399 . S
C2143 C2144 1.376 . S
C2144 H2131 0.930 . S
C2144 C2143 1.376 . S
C2144 C2145 1.388 . S
C2145 H2132 0.930 . S
C2145 C2144 1.388 . S
C2145 C2146 1.390 . S
C2146 C2145 1.390 . S
C2146 C2147 1.394 . S
C2146 C2152 1.465 . S
C2147 C2142 1.399 . S
C2147 C2146 1.394 . S
C2147 C2148 1.516 . S
C2148 C2147 1.516 . S
C2148 C2149 1.502 . S
C2148 C2150 1.561 . S
C2148 C2151 1.526 . S
C2149 H2133 0.959 . S
C2149 H2134 0.959 . S
C2149 H2135 0.961 . S
C2149 C2148 1.502 . S
C2150 H2136 0.960 . S
C2150 H2137 0.961 . S
C2150 H2138 0.959 . S
C2150 C2148 1.561 . S
C2151 C2148 1.526 . S
C2151 C2152 1.396 . S
C2151 C2156 1.390 . S
C2152 C2146 1.465 . S
C2152 C2151 1.396 . S
C2152 C2153 1.399 . S
C2153 H2139 0.929 . S
C2153 C2152 1.399 . S
C2153 C2154 1.385 . S
C2154 H2140 0.931 . S
C2154 C2153 1.385 . S
C2154 C2155 1.389 . S
C2155 C2154 1.389 . S
C2155 C2156 1.387 . S
C2156 H2141 0.930 . S
C2156 C2151 1.390 . S
C2156 C2155 1.387 . S
H2157 C2169 0.930 . S
H2158 C2171 0.930 . S
H2159 C2172 0.930 . S
H2160 C2176 0.959 . S
H2161 C2176 0.959 . S
H2162 C2176 0.961 . S
H2163 C2177 0.960 . S
H2164 C2177 0.961 . S
H2165 C2177 0.959 . S
H2166 C2180 0.929 . S
H2167 C2181 0.931 . S
H2168 C2183 0.930 . S
C2169 H2157 0.930 . S
C2169 C2170 1.399 . S
C2169 C2174 1.399 . S
C2170 C2169 1.399 . S
C2170 C2171 1.376 . S
C2171 H2158 0.930 . S
C2171 C2170 1.376 . S
C2171 C2172 1.388 . S
C2172 H2159 0.930 . S
C2172 C2171 1.388 . S
C2172 C2173 1.390 . S
C2173 C2172 1.390 . S
C2173 C2174 1.394 . S
C2173 C2179 1.465 . S
C2174 C2169 1.399 . S
C2174 C2173 1.394 . S
C2174 C2175 1.516 . S
C2175 C2174 1.516 . S
C2175 C2176 1.502 . S
C2175 C2177 1.561 . S
C2175 C2178 1.526 . S
C2176 H2160 0.959 . S
C2176 H2161 0.959 . S
C2176 H2162 0.961 . S
C2176 C2175 1.502 . S
C2177 H2163 0.960 . S
C2177 H2164 0.961 . S
C2177 H2165 0.959 . S
C2177 C2175 1.561 . S
C2178 C2175 1.526 . S
C2178 C2179 1.396 . S
C2178 C2183 1.390 . S
C2179 C2173 1.465 . S
C2179 C2178 1.396 . S
C2179 C2180 1.399 . S
C2180 H2166 0.929 . S
C2180 C2179 1.399 . S
C2180 C2181 1.385 . S
C2181 H2167 0.931 . S
C2181 C2180 1.385 . S
C2181 C2182 1.389 . S
C2182 C2181 1.389 . S
C2182 C2183 1.387 . S
C2183 H2168 0.930 . S
C2183 C2178 1.390 . S
C2183 C2182 1.387 . S
H2184 C2196 0.930 . S
H2185 C2198 0.930 . S
H2186 C2199 0.930 . S
H2187 C2203 0.959 . S
H2188 C2203 0.959 . S
H2189 C2203 0.961 . S
H2190 C2204 0.960 . S
H2191 C2204 0.961 . S
H2192 C2204 0.959 . S
H2193 C2207 0.929 . S
H2194 C2208 0.931 . S
H2195 C2210 0.930 . S
C2196 H2184 0.930 . S
C2196 C2197 1.399 . S
C2196 C2201 1.399 . S
C2197 C2196 1.399 . S
C2197 C2198 1.376 . S
C2198 H2185 0.930 . S
C2198 C2197 1.376 . S
C2198 C2199 1.388 . S
C2199 H2186 0.930 . S
C2199 C2198 1.388 . S
C2199 C2200 1.390 . S
C2200 C2199 1.390 . S
C2200 C2201 1.394 . S
C2200 C2206 1.465 . S
C2201 C2196 1.399 . S
C2201 C2200 1.394 . S
C2201 C2202 1.516 . S
C2202 C2201 1.516 . S
C2202 C2203 1.502 . S
C2202 C2204 1.561 . S
C2202 C2205 1.526 . S
C2203 H2187 0.959 . S
C2203 H2188 0.959 . S
C2203 H2189 0.961 . S
C2203 C2202 1.502 . S
C2204 H2190 0.960 . S
C2204 H2191 0.961 . S
C2204 H2192 0.959 . S
C2204 C2202 1.561 . S
C2205 C2202 1.526 . S
C2205 C2206 1.396 . S
C2205 C2210 1.390 . S
C2206 C2200 1.465 . S
C2206 C2205 1.396 . S
C2206 C2207 1.399 . S
C2207 H2193 0.929 . S
C2207 C2206 1.399 . S
C2207 C2208 1.385 . S
C2208 H2194 0.931 . S
C2208 C2207 1.385 . S
C2208 C2209 1.389 . S
C2209 C2208 1.389 . S
C2209 C2210 1.387 . S
C2210 H2195 0.930 . S
C2210 C2205 1.390 . S
C2210 C2209 1.387 . S
H2211 C2223 0.930 . S
H2212 C2225 0.930 . S
H2213 C2226 0.930 . S
H2214 C2230 0.959 . S
H2215 C2230 0.959 . S
H2216 C2230 0.961 . S
H2217 C2231 0.960 . S
H2218 C2231 0.961 . S
H2219 C2231 0.959 . S
H2220 C2234 0.929 . S
H2221 C2235 0.892 1_556 S
H2222 C2237 0.930 . S
C2223 H2211 0.930 . S
C2223 C2224 1.399 . S
C2223 C2228 1.399 . S
C2224 C2223 1.399 . S
C2224 C2225 1.376 . S
C2225 H2212 0.930 . S
C2225 C2224 1.376 . S
C2225 C2226 1.388 . S
C2226 H2213 0.930 . S
C2226 C2225 1.388 . S
C2226 C2227 1.390 . S
C2227 C2226 1.390 . S
C2227 C2228 1.394 . S
C2227 C2233 1.465 . S
C2228 C2223 1.399 . S
C2228 C2227 1.394 . S
C2228 C2229 1.516 . S
C2229 C2228 1.516 . S
C2229 C2230 1.502 . S
C2229 C2231 1.561 . S
C2229 C2232 1.526 . S
C2230 H2214 0.959 . S
C2230 H2215 0.959 . S
C2230 H2216 0.961 . S
C2230 C2229 1.502 . S
C2231 H2217 0.960 . S
C2231 H2218 0.961 . S
C2231 H2219 0.959 . S
C2231 C2229 1.561 . S
C2232 C2229 1.526 . S
C2232 C2233 1.396 . S
C2232 C2237 1.390 . S
C2233 C2227 1.465 . S
C2233 C2232 1.396 . S
C2233 C2234 1.399 . S
C2234 H2220 0.929 . S
C2234 C2233 1.399 . S
C2234 C2235 1.385 . S
C2235 H2221 0.892 1_554 S
C2235 C2234 1.385 . S
C2235 C2236 1.389 . S
C2236 C2235 1.389 . S
C2236 C2237 1.387 . S
C2237 H2222 0.930 . S
C2237 C2232 1.390 . S
C2237 C2236 1.387 . S
H2238 C2250 0.930 . S
H2239 C2252 0.930 . S
H2240 C2253 0.930 . S
H2241 C2257 0.959 . S
H2242 C2257 0.959 . S
H2243 C2257 0.961 . S
H2244 C2258 0.960 . S
H2245 C2258 0.961 . S
H2246 C2258 0.959 . S
H2247 C2261 0.929 . S
H2248 C2262 0.931 . S
H2249 C2264 0.930 . S
C2250 H2238 0.930 . S
C2250 C2251 1.399 . S
C2250 C2255 1.399 . S
C2251 C2250 1.399 . S
C2251 C2252 1.376 . S
C2252 H2239 0.930 . S
C2252 C2251 1.376 . S
C2252 C2253 1.388 . S
C2253 H2240 0.930 . S
C2253 C2252 1.388 . S
C2253 C2254 1.390 . S
C2254 C2253 1.390 . S
C2254 C2255 1.394 . S
C2254 C2260 1.465 . S
C2255 C2250 1.399 . S
C2255 C2254 1.394 . S
C2255 C2256 1.516 . S
C2256 C2255 1.516 . S
C2256 C2257 1.502 . S
C2256 C2258 1.561 . S
C2256 C2259 1.526 . S
C2257 H2241 0.959 . S
C2257 H2242 0.959 . S
C2257 H2243 0.961 . S
C2257 C2256 1.502 . S
C2258 H2244 0.960 . S
C2258 H2245 0.961 . S
C2258 H2246 0.959 . S
C2258 C2256 1.561 . S
C2259 C2256 1.526 . S
C2259 C2260 1.396 . S
C2259 C2264 1.390 . S
C2260 C2254 1.465 . S
C2260 C2259 1.396 . S
C2260 C2261 1.399 . S
C2261 H2247 0.929 . S
C2261 C2260 1.399 . S
C2261 C2262 1.385 . S
C2262 H2248 0.931 . S
C2262 C2261 1.385 . S
C2262 C2263 1.389 . S
C2263 C2262 1.389 . S
C2263 C2264 1.387 . S
C2264 H2249 0.930 . S
C2264 C2259 1.390 . S
C2264 C2263 1.387 . S
H2265 C2277 0.930 . S
H2266 C2279 0.930 . S
H2267 C2280 0.930 . S
H2268 C2284 0.959 . S
H2269 C2284 0.959 . S
H2270 C2284 0.961 . S
H2271 C2285 0.960 . S
H2272 C2285 0.961 . S
H2273 C2285 0.959 . S
H2274 C2288 0.929 . S
H2275 C2289 0.931 . S
H2276 C2291 0.930 . S
C2277 H2265 0.930 . S
C2277 C2278 1.399 . S
C2277 C2282 1.399 . S
C2278 C2277 1.399 . S
C2278 C2279 1.376 . S
C2279 H2266 0.930 . S
C2279 C2278 1.376 . S
C2279 C2280 1.388 . S
C2280 H2267 0.930 . S
C2280 C2279 1.388 . S
C2280 C2281 1.390 . S
C2281 C2280 1.390 . S
C2281 C2282 1.394 . S
C2281 C2287 1.465 . S
C2282 C2277 1.399 . S
C2282 C2281 1.394 . S
C2282 C2283 1.516 . S
C2283 C2282 1.516 . S
C2283 C2284 1.502 . S
C2283 C2285 1.561 . S
C2283 C2286 1.526 . S
C2284 H2268 0.959 . S
C2284 H2269 0.959 . S
C2284 H2270 0.961 . S
C2284 C2283 1.502 . S
C2285 H2271 0.960 . S
C2285 H2272 0.961 . S
C2285 H2273 0.959 . S
C2285 C2283 1.561 . S
C2286 C2283 1.526 . S
C2286 C2287 1.396 . S
C2286 C2291 1.390 . S
C2287 C2281 1.465 . S
C2287 C2286 1.396 . S
C2287 C2288 1.399 . S
C2288 H2274 0.929 . S
C2288 C2287 1.399 . S
C2288 C2289 1.385 . S
C2289 H2275 0.931 . S
C2289 C2288 1.385 . S
C2289 C2290 1.389 . S
C2290 C2289 1.389 . S
C2290 C2291 1.387 . S
C2291 H2276 0.930 . S
C2291 C2286 1.390 . S
C2291 C2290 1.387 . S
H2292 C2304 0.930 . S
H2293 C2306 0.930 . S
H2294 C2307 0.930 . S
H2295 C2311 0.959 . S
H2296 C2311 0.959 . S
H2297 C2311 0.961 . S
H2298 C2312 0.960 . S
H2299 C2312 0.961 . S
H2300 C2312 0.959 . S
H2301 C2315 0.929 . S
H2302 C2316 0.931 . S
H2303 C2318 0.930 . S
C2304 H2292 0.930 . S
C2304 C2305 1.399 . S
C2304 C2309 1.399 . S
C2305 C2304 1.399 . S
C2305 C2306 1.376 . S
C2306 H2293 0.930 . S
C2306 C2305 1.376 . S
C2306 C2307 1.388 . S
C2307 H2294 0.930 . S
C2307 C2306 1.388 . S
C2307 C2308 1.390 . S
C2308 C2307 1.390 . S
C2308 C2309 1.394 . S
C2308 C2314 1.465 . S
C2309 C2304 1.399 . S
C2309 C2308 1.394 . S
C2309 C2310 1.516 . S
C2310 C2309 1.516 . S
C2310 C2311 1.502 . S
C2310 C2312 1.561 . S
C2310 C2313 1.526 . S
C2311 H2295 0.959 . S
C2311 H2296 0.959 . S
C2311 H2297 0.961 . S
C2311 C2310 1.502 . S
C2312 H2298 0.960 . S
C2312 H2299 0.961 . S
C2312 H2300 0.959 . S
C2312 C2310 1.561 . S
C2313 C2310 1.526 . S
C2313 C2314 1.396 . S
C2313 C2318 1.390 . S
C2314 C2308 1.465 . S
C2314 C2313 1.396 . S
C2314 C2315 1.399 . S
C2315 H2301 0.929 . S
C2315 C2314 1.399 . S
C2315 C2316 1.385 . S
C2316 H2302 0.931 . S
C2316 C2315 1.385 . S
C2316 C2317 1.389 . S
C2317 C2316 1.389 . S
C2317 C2318 1.387 . S
C2318 H2303 0.930 . S
C2318 C2313 1.390 . S
C2318 C2317 1.387 . S
H2319 C2331 0.930 . S
H2320 C2333 0.930 . S
H2321 C2334 0.930 . S
H2322 C2338 0.982 . S
H2323 C2338 0.959 . S
H2324 C2338 0.961 . S
H2325 C2339 0.960 . S
H2326 C2339 0.961 . S
H2327 C2339 0.959 . S
H2328 C2342 0.929 . S
H2329 C2343 0.931 1_554 S
H2330 C2345 0.930 . S
C2331 H2319 0.930 . S
C2331 C2332 1.399 . S
C2331 C2336 1.399 . S
C2332 C2331 1.399 . S
C2332 C2333 1.376 . S
C2333 H2320 0.930 . S
C2333 C2332 1.376 . S
C2333 C2334 1.388 . S
C2334 H2321 0.930 . S
C2334 C2333 1.388 . S
C2334 C2335 1.390 . S
C2335 C2334 1.390 . S
C2335 C2336 1.394 . S
C2335 C2341 1.465 . S
C2336 C2331 1.399 . S
C2336 C2335 1.394 . S
C2336 C2337 1.516 . S
C2337 C2336 1.516 . S
C2337 C2338 1.502 . S
C2337 C2339 1.561 . S
C2337 C2340 1.526 . S
C2338 H2322 0.982 . S
C2338 H2323 0.959 . S
C2338 H2324 0.961 . S
C2338 C2337 1.502 . S
C2339 H2325 0.960 . S
C2339 H2326 0.961 . S
C2339 H2327 0.959 . S
C2339 C2337 1.561 . S
C2340 C2337 1.526 . S
C2340 C2341 1.396 . S
C2340 C2345 1.390 . S
C2341 C2335 1.465 . S
C2341 C2340 1.396 . S
C2341 C2342 1.399 . S
C2342 H2328 0.929 . S
C2342 C2341 1.399 . S
C2342 C2343 1.385 . S
C2343 H2329 0.931 1_556 S
C2343 C2342 1.385 . S
C2343 C2344 1.389 . S
C2344 C2343 1.389 . S
C2344 C2345 1.387 . S
C2345 H2330 0.930 . S
C2345 C2340 1.390 . S
C2345 C2344 1.387 . S
H2346 C2358 0.930 . S
H2347 C2360 0.930 . S
H2348 C2361 0.930 . S
H2349 C2365 0.959 . S
H2350 C2365 0.959 . S
H2351 C2365 0.961 . S
H2352 C2366 0.960 . S
H2353 C2366 0.961 . S
H2354 C2366 0.959 . S
H2355 C2369 0.929 . S
H2356 C2370 0.931 . S
H2357 C2372 0.930 . S
C2358 H2346 0.930 . S
C2358 C2359 1.399 . S
C2358 C2363 1.399 . S
C2359 C2358 1.399 . S
C2359 C2360 1.376 . S
C2360 H2347 0.930 . S
C2360 C2359 1.376 . S
C2360 C2361 1.388 . S
C2361 H2348 0.930 . S
C2361 C2360 1.388 . S
C2361 C2362 1.390 . S
C2362 C2361 1.390 . S
C2362 C2363 1.394 . S
C2362 C2368 1.465 . S
C2363 C2358 1.399 . S
C2363 C2362 1.394 . S
C2363 C2364 1.516 . S
C2364 C2363 1.516 . S
C2364 C2365 1.502 . S
C2364 C2366 1.561 . S
C2364 C2367 1.526 . S
C2365 H2349 0.959 . S
C2365 H2350 0.959 . S
C2365 H2351 0.961 . S
C2365 C2364 1.502 . S
C2366 H2352 0.960 . S
C2366 H2353 0.961 . S
C2366 H2354 0.959 . S
C2366 C2364 1.561 . S
C2367 C2364 1.526 . S
C2367 C2368 1.396 . S
C2367 C2372 1.390 . S
C2368 C2362 1.465 . S
C2368 C2367 1.396 . S
C2368 C2369 1.399 . S
C2369 H2355 0.929 . S
C2369 C2368 1.399 . S
C2369 C2370 1.385 . S
C2370 H2356 0.931 . S
C2370 C2369 1.385 . S
C2370 C2371 1.389 . S
C2371 C2370 1.389 . S
C2371 C2372 1.387 . S
C2372 H2357 0.930 . S
C2372 C2367 1.390 . S
C2372 C2371 1.387 . S
H2373 C2385 0.930 . S
H2374 C2387 0.930 . S
H2375 C2388 0.930 . S
H2376 C2392 0.959 . S
H2377 C2392 0.959 . S
H2378 C2392 0.961 . S
H2379 C2393 0.960 . S
H2380 C2393 0.961 . S
H2381 C2393 0.959 . S
H2382 C2396 0.929 . S
H2383 C2397 0.931 . S
H2384 C2399 0.930 . S
C2385 H2373 0.930 . S
C2385 C2386 1.399 . S
C2385 C2390 1.399 . S
C2386 C2385 1.399 . S
C2386 C2387 1.376 . S
C2387 H2374 0.930 . S
C2387 C2386 1.376 . S
C2387 C2388 1.388 . S
C2388 H2375 0.930 . S
C2388 C2387 1.388 . S
C2388 C2389 1.390 . S
C2389 C2388 1.390 . S
C2389 C2390 1.394 . S
C2389 C2395 1.465 . S
C2390 C2385 1.399 . S
C2390 C2389 1.394 . S
C2390 C2391 1.516 . S
C2391 C2390 1.516 . S
C2391 C2392 1.502 . S
C2391 C2393 1.561 . S
C2391 C2394 1.526 . S
C2392 H2376 0.959 . S
C2392 H2377 0.959 . S
C2392 H2378 0.961 . S
C2392 C2391 1.502 . S
C2393 H2379 0.960 . S
C2393 H2380 0.961 . S
C2393 H2381 0.959 . S
C2393 C2391 1.561 . S
C2394 C2391 1.526 . S
C2394 C2395 1.396 . S
C2394 C2399 1.390 . S
C2395 C2389 1.465 . S
C2395 C2394 1.396 . S
C2395 C2396 1.399 . S
C2396 H2382 0.929 . S
C2396 C2395 1.399 . S
C2396 C2397 1.385 . S
C2397 H2383 0.931 . S
C2397 C2396 1.385 . S
C2397 C2398 1.389 . S
C2398 C2397 1.389 . S
C2398 C2399 1.387 . S
C2399 H2384 0.930 . S
C2399 C2394 1.390 . S
C2399 C2398 1.387 . S
H2400 C2412 0.930 . S
H2401 C2414 0.930 . S
H2402 C2415 0.930 . S
H2403 C2419 0.959 . S
H2404 C2419 0.959 . S
H2405 C2419 0.961 . S
H2406 C2420 0.960 . S
H2407 C2420 0.961 . S
H2408 C2420 0.959 . S
H2409 C2423 0.929 . S
H2410 C2424 0.931 . S
H2411 C2426 0.930 . S
C2412 H2400 0.930 . S
C2412 C2413 1.399 . S
C2412 C2417 1.399 . S
C2413 C2412 1.399 . S
C2413 C2414 1.376 . S
C2414 H2401 0.930 . S
C2414 C2413 1.376 . S
C2414 C2415 1.388 . S
C2415 H2402 0.930 . S
C2415 C2414 1.388 . S
C2415 C2416 1.390 . S
C2416 C2415 1.390 . S
C2416 C2417 1.394 . S
C2416 C2422 1.465 . S
C2417 C2412 1.399 . S
C2417 C2416 1.394 . S
C2417 C2418 1.516 . S
C2418 C2417 1.516 . S
C2418 C2419 1.502 . S
C2418 C2420 1.561 . S
C2418 C2421 1.526 . S
C2419 H2403 0.959 . S
C2419 H2404 0.959 . S
C2419 H2405 0.961 . S
C2419 C2418 1.502 . S
C2420 H2406 0.960 . S
C2420 H2407 0.961 . S
C2420 H2408 0.959 . S
C2420 C2418 1.561 . S
C2421 C2418 1.526 . S
C2421 C2422 1.396 . S
C2421 C2426 1.390 . S
C2422 C2416 1.465 . S
C2422 C2421 1.396 . S
C2422 C2423 1.399 . S
C2423 H2409 0.929 . S
C2423 C2422 1.399 . S
C2423 C2424 1.385 . S
C2424 H2410 0.931 . S
C2424 C2423 1.385 . S
C2424 C2425 1.389 . S
C2425 C2424 1.389 . S
C2425 C2426 1.387 . S
C2426 H2411 0.930 . S
C2426 C2421 1.390 . S
C2426 C2425 1.387 . S
H2427 C2439 0.930 . S
H2428 C2441 0.930 . S
H2429 C2442 0.930 . S
H2430 C2446 0.959 . S
H2431 C2446 0.959 . S
H2432 C2446 0.961 . S
H2433 C2447 0.960 . S
H2434 C2447 0.961 . S
H2435 C2447 0.959 . S
H2436 C2450 0.929 . S
H2437 C2451 0.931 . S
H2438 C2453 0.930 . S
C2439 H2427 0.930 . S
C2439 C2440 1.399 . S
C2439 C2444 1.399 . S
C2440 C2439 1.399 . S
C2440 C2441 1.376 . S
C2441 H2428 0.930 . S
C2441 C2440 1.376 . S
C2441 C2442 1.388 . S
C2442 H2429 0.930 . S
C2442 C2441 1.388 . S
C2442 C2443 1.390 . S
C2443 C2442 1.390 . S
C2443 C2444 1.394 . S
C2443 C2449 1.465 . S
C2444 C2439 1.399 . S
C2444 C2443 1.394 . S
C2444 C2445 1.516 . S
C2445 C2444 1.516 . S
C2445 C2446 1.502 . S
C2445 C2447 1.561 . S
C2445 C2448 1.526 . S
C2446 H2430 0.959 . S
C2446 H2431 0.959 . S
C2446 H2432 0.961 . S
C2446 C2445 1.502 . S
C2447 H2433 0.960 . S
C2447 H2434 0.961 . S
C2447 H2435 0.959 . S
C2447 C2445 1.561 . S
C2448 C2445 1.526 . S
C2448 C2449 1.396 . S
C2448 C2453 1.390 . S
C2449 C2443 1.465 . S
C2449 C2448 1.396 . S
C2449 C2450 1.399 . S
C2450 H2436 0.929 . S
C2450 C2449 1.399 . S
C2450 C2451 1.385 . S
C2451 H2437 0.931 . S
C2451 C2450 1.385 . S
C2451 C2452 1.389 . S
C2452 C2451 1.389 . S
C2452 C2453 1.387 . S
C2453 H2438 0.930 . S
C2453 C2448 1.390 . S
C2453 C2452 1.387 . S
H2454 C2466 0.930 . S
H2455 C2468 0.930 . S
H2456 C2469 0.930 . S
H2457 C2473 0.959 . S
H2458 C2473 0.959 . S
H2459 C2473 0.961 . S
H2460 C2474 0.960 . S
H2461 C2474 0.961 . S
H2462 C2474 0.959 . S
H2463 C2477 0.929 . S
H2464 C2478 0.931 1_565 S
H2465 C2480 0.930 . S
C2466 H2454 0.930 . S
C2466 C2467 1.399 . S
C2466 C2471 1.399 . S
C2467 C2466 1.399 . S
C2467 C2468 1.376 . S
C2468 H2455 0.930 . S
C2468 C2467 1.376 . S
C2468 C2469 1.388 . S
C2469 H2456 0.930 . S
C2469 C2468 1.388 . S
C2469 C2470 1.390 . S
C2470 C2469 1.390 . S
C2470 C2471 1.394 . S
C2470 C2476 1.465 . S
C2471 C2466 1.399 . S
C2471 C2470 1.394 . S
C2471 C2472 1.516 . S
C2472 C2471 1.516 . S
C2472 C2473 1.502 . S
C2472 C2474 1.561 . S
C2472 C2475 1.526 . S
C2473 H2457 0.959 . S
C2473 H2458 0.959 . S
C2473 H2459 0.961 . S
C2473 C2472 1.502 . S
C2474 H2460 0.960 . S
C2474 H2461 0.961 . S
C2474 H2462 0.959 . S
C2474 C2472 1.561 . S
C2475 C2472 1.526 . S
C2475 C2476 1.396 . S
C2475 C2480 1.390 . S
C2476 C2470 1.465 . S
C2476 C2475 1.396 . S
C2476 C2477 1.399 . S
C2477 H2463 0.929 . S
C2477 C2476 1.399 . S
C2477 C2478 1.385 . S
C2478 H2464 0.931 1_545 S
C2478 C2477 1.385 . S
C2478 C2479 1.389 . S
C2479 C2478 1.389 . S
C2479 C2480 1.387 . S
C2480 H2465 0.930 . S
C2480 C2475 1.390 . S
C2480 C2479 1.387 . S
H2481 C2493 0.930 . S
H2482 C2495 0.930 . S
H2483 C2496 0.930 . S
H2484 C2500 0.959 . S
H2485 C2500 0.959 . S
H2486 C2500 0.961 . S
H2487 C2501 0.960 . S
H2488 C2501 0.961 . S
H2489 C2501 0.959 . S
H2490 C2504 0.929 . S
H2491 C2505 0.931 . S
H2492 C2507 0.930 . S
C2493 H2481 0.930 . S
C2493 C2494 1.399 . S
C2493 C2498 1.399 . S
C2494 C2493 1.399 . S
C2494 C2495 1.376 . S
C2495 H2482 0.930 . S
C2495 C2494 1.376 . S
C2495 C2496 1.388 . S
C2496 H2483 0.930 . S
C2496 C2495 1.388 . S
C2496 C2497 1.390 . S
C2497 C2496 1.390 . S
C2497 C2498 1.394 . S
C2497 C2503 1.465 . S
C2498 C2493 1.399 . S
C2498 C2497 1.394 . S
C2498 C2499 1.516 . S
C2499 C2498 1.516 . S
C2499 C2500 1.502 . S
C2499 C2501 1.561 . S
C2499 C2502 1.526 . S
C2500 H2484 0.959 . S
C2500 H2485 0.959 . S
C2500 H2486 0.961 . S
C2500 C2499 1.502 . S
C2501 H2487 0.960 . S
C2501 H2488 0.961 . S
C2501 H2489 0.959 . S
C2501 C2499 1.561 . S
C2502 C2499 1.526 . S
C2502 C2503 1.396 . S
C2502 C2507 1.390 . S
C2503 C2497 1.465 . S
C2503 C2502 1.396 . S
C2503 C2504 1.399 . S
C2504 H2490 0.929 . S
C2504 C2503 1.399 . S
C2504 C2505 1.385 . S
C2505 H2491 0.931 . S
C2505 C2504 1.385 . S
C2505 C2506 1.389 . S
C2506 C2505 1.389 . S
C2506 C2507 1.387 . S
C2507 H2492 0.930 . S
C2507 C2502 1.390 . S
C2507 C2506 1.387 . S
H2508 C2520 0.930 . S
H2509 C2522 0.930 . S
H2510 C2523 0.930 . S
H2511 C2527 0.959 . S
H2512 C2527 0.959 . S
H2513 C2527 0.961 . S
H2514 C2528 0.960 . S
H2515 C2528 0.961 . S
H2516 C2528 0.959 . S
H2517 C2531 0.929 . S
H2518 C2532 0.931 . S
H2519 C2534 0.930 . S
C2520 H2508 0.930 . S
C2520 C2521 1.399 . S
C2520 C2525 1.399 . S
C2521 C2520 1.399 . S
C2521 C2522 1.376 . S
C2522 H2509 0.930 . S
C2522 C2521 1.376 . S
C2522 C2523 1.388 . S
C2523 H2510 0.930 . S
C2523 C2522 1.388 . S
C2523 C2524 1.390 . S
C2524 C2523 1.390 . S
C2524 C2525 1.394 . S
C2524 C2530 1.465 . S
C2525 C2520 1.399 . S
C2525 C2524 1.394 . S
C2525 C2526 1.516 . S
C2526 C2525 1.516 . S
C2526 C2527 1.502 . S
C2526 C2528 1.561 . S
C2526 C2529 1.526 . S
C2527 H2511 0.959 . S
C2527 H2512 0.959 . S
C2527 H2513 0.961 . S
C2527 C2526 1.502 . S
C2528 H2514 0.960 . S
C2528 H2515 0.961 . S
C2528 H2516 0.959 . S
C2528 C2526 1.561 . S
C2529 C2526 1.526 . S
C2529 C2530 1.396 . S
C2529 C2534 1.390 . S
C2530 C2524 1.465 . S
C2530 C2529 1.396 . S
C2530 C2531 1.399 . S
C2531 H2517 0.929 . S
C2531 C2530 1.399 . S
C2531 C2532 1.385 . S
C2532 H2518 0.931 . S
C2532 C2531 1.385 . S
C2532 C2533 1.389 . S
C2533 C2532 1.389 . S
C2533 C2534 1.387 . S
C2534 H2519 0.930 . S
C2534 C2529 1.390 . S
C2534 C2533 1.387 . S
H2535 C2547 0.930 . S
H2536 C2549 0.930 . S
H2537 C2550 0.930 . S
H2538 C2554 0.959 . S
H2539 C2554 0.959 . S
H2540 C2554 0.961 . S
H2541 C2555 0.960 . S
H2542 C2555 0.961 . S
H2543 C2555 0.959 . S
H2544 C2558 0.929 . S
H2545 C2559 0.931 . S
H2546 C2561 0.930 . S
C2547 H2535 0.930 . S
C2547 C2548 1.399 . S
C2547 C2552 1.399 . S
C2548 C2547 1.399 . S
C2548 C2549 1.376 . S
C2549 H2536 0.930 . S
C2549 C2548 1.376 . S
C2549 C2550 1.388 . S
C2550 H2537 0.930 . S
C2550 C2549 1.388 . S
C2550 C2551 1.390 . S
C2551 C2550 1.390 . S
C2551 C2552 1.394 . S
C2551 C2557 1.465 . S
C2552 C2547 1.399 . S
C2552 C2551 1.394 . S
C2552 C2553 1.516 . S
C2553 C2552 1.516 . S
C2553 C2554 1.502 . S
C2553 C2555 1.561 . S
C2553 C2556 1.526 . S
C2554 H2538 0.959 . S
C2554 H2539 0.959 . S
C2554 H2540 0.961 . S
C2554 C2553 1.502 . S
C2555 H2541 0.960 . S
C2555 H2542 0.961 . S
C2555 H2543 0.959 . S
C2555 C2553 1.561 . S
C2556 C2553 1.526 . S
C2556 C2557 1.396 . S
C2556 C2561 1.390 . S
C2557 C2551 1.465 . S
C2557 C2556 1.396 . S
C2557 C2558 1.399 . S
C2558 H2544 0.929 . S
C2558 C2557 1.399 . S
C2558 C2559 1.385 . S
C2559 H2545 0.931 . S
C2559 C2558 1.385 . S
C2559 C2560 1.389 . S
C2560 C2559 1.389 . S
C2560 C2561 1.387 . S
C2561 H2546 0.930 . S
C2561 C2556 1.390 . S
C2561 C2560 1.387 . S
H2562 C2574 0.930 . S
H2563 C2576 0.930 1_545 S
H2564 C2577 0.930 . S
H2565 C2581 0.959 . S
H2566 C2581 0.959 . S
H2567 C2581 0.961 . S
H2568 C2582 0.960 1_554 S
H2569 C2582 0.960 1_554 S
H2570 C2582 0.959 1_554 S
H2571 C2585 0.929 . S
H2572 C2586 0.931 . S
H2573 C2588 0.930 . S
C2574 H2562 0.930 . S
C2574 C2575 1.399 . S
C2574 C2579 1.399 . S
C2575 C2574 1.399 . S
C2575 C2576 1.376 . S
C2576 H2563 0.930 1_565 S
C2576 C2575 1.376 . S
C2576 C2577 1.388 . S
C2577 H2564 0.930 . S
C2577 C2576 1.388 . S
C2577 C2578 1.390 . S
C2578 C2577 1.390 . S
C2578 C2579 1.394 . S
C2578 C2584 1.465 . S
C2579 C2574 1.399 . S
C2579 C2578 1.394 . S
C2579 C2580 1.516 . S
C2580 C2579 1.516 . S
C2580 C2581 1.502 . S
C2580 C2582 1.562 . S
C2580 C2583 1.526 . S
C2581 H2565 0.959 . S
C2581 H2566 0.959 . S
C2581 H2567 0.961 . S
C2581 C2580 1.502 . S
C2582 H2568 0.960 1_556 S
C2582 H2569 0.960 1_556 S
C2582 H2570 0.959 1_556 S
C2582 C2580 1.562 . S
C2583 C2580 1.526 . S
C2583 C2584 1.396 . S
C2583 C2588 1.390 . S
C2584 C2578 1.465 . S
C2584 C2583 1.396 . S
C2584 C2585 1.399 . S
C2585 H2571 0.929 . S
C2585 C2584 1.399 . S
C2585 C2586 1.385 . S
C2586 H2572 0.931 . S
C2586 C2585 1.385 . S
C2586 C2587 1.389 . S
C2587 C2586 1.389 . S
C2587 C2588 1.387 . S
C2588 H2573 0.930 . S
C2588 C2583 1.390 . S
C2588 C2587 1.387 . S
H2589 C2601 0.930 . S
H2590 C2603 0.930 . S
H2591 C2604 0.930 . S
H2592 C2608 0.959 . S
H2593 C2608 0.959 . S
H2594 C2608 0.961 . S
H2595 C2609 0.960 . S
H2596 C2609 0.961 . S
H2597 C2609 0.959 . S
H2598 C2612 0.929 . S
H2599 C2613 0.931 . S
H2600 C2615 0.930 . S
C2601 H2589 0.930 . S
C2601 C2602 1.399 . S
C2601 C2606 1.399 . S
C2602 C2601 1.399 . S
C2602 C2603 1.376 . S
C2603 H2590 0.930 . S
C2603 C2602 1.376 . S
C2603 C2604 1.388 . S
C2604 H2591 0.930 . S
C2604 C2603 1.388 . S
C2604 C2605 1.390 . S
C2605 C2604 1.390 . S
C2605 C2606 1.394 . S
C2605 C2611 1.465 . S
C2606 C2601 1.399 . S
C2606 C2605 1.394 . S
C2606 C2607 1.516 . S
C2607 C2606 1.516 . S
C2607 C2608 1.502 . S
C2607 C2609 1.561 . S
C2607 C2610 1.526 . S
C2608 H2592 0.959 . S
C2608 H2593 0.959 . S
C2608 H2594 0.961 . S
C2608 C2607 1.502 . S
C2609 H2595 0.960 . S
C2609 H2596 0.961 . S
C2609 H2597 0.959 . S
C2609 C2607 1.561 . S
C2610 C2607 1.526 . S
C2610 C2611 1.396 . S
C2610 C2615 1.390 . S
C2611 C2605 1.465 . S
C2611 C2610 1.396 . S
C2611 C2612 1.399 . S
C2612 H2598 0.929 . S
C2612 C2611 1.399 . S
C2612 C2613 1.385 . S
C2613 H2599 0.931 . S
C2613 C2612 1.385 . S
C2613 C2614 1.389 . S
C2614 C2613 1.389 . S
C2614 C2615 1.387 . S
C2615 H2600 0.930 . S
C2615 C2610 1.390 . S
C2615 C2614 1.387 . S
H2616 C2628 0.930 . S
H2617 C2630 0.930 . S
H2618 C2631 0.930 . S
H2619 C2635 0.959 . S
H2620 C2635 0.959 . S
H2621 C2635 0.961 . S
H2622 C2636 0.960 . S
H2623 C2636 0.961 . S
H2624 C2636 0.959 . S
H2625 C2639 0.929 . S
H2626 C2640 0.931 . S
H2627 C2642 0.930 . S
C2628 H2616 0.930 . S
C2628 C2629 1.399 . S
C2628 C2633 1.399 . S
C2629 C2628 1.399 . S
C2629 C2630 1.376 . S
C2630 H2617 0.930 . S
C2630 C2629 1.376 . S
C2630 C2631 1.388 . S
C2631 H2618 0.930 . S
C2631 C2630 1.388 . S
C2631 C2632 1.390 . S
C2632 C2631 1.390 . S
C2632 C2633 1.394 . S
C2632 C2638 1.465 . S
C2633 C2628 1.399 . S
C2633 C2632 1.394 . S
C2633 C2634 1.516 . S
C2634 C2633 1.516 . S
C2634 C2635 1.502 . S
C2634 C2636 1.561 . S
C2634 C2637 1.526 . S
C2635 H2619 0.959 . S
C2635 H2620 0.959 . S
C2635 H2621 0.961 . S
C2635 C2634 1.502 . S
C2636 H2622 0.960 . S
C2636 H2623 0.961 . S
C2636 H2624 0.959 . S
C2636 C2634 1.561 . S
C2637 C2634 1.526 . S
C2637 C2638 1.396 . S
C2637 C2642 1.390 . S
C2638 C2632 1.465 . S
C2638 C2637 1.396 . S
C2638 C2639 1.399 . S
C2639 H2625 0.929 . S
C2639 C2638 1.399 . S
C2639 C2640 1.385 . S
C2640 H2626 0.931 . S
C2640 C2639 1.385 . S
C2640 C2641 1.389 . S
C2641 C2640 1.389 . S
C2641 C2642 1.387 . S
C2642 H2627 0.930 . S
C2642 C2637 1.390 . S
C2642 C2641 1.387 . S
H2643 C2655 0.930 . S
H2644 C2657 0.930 . S
H2645 C2658 0.930 . S
H2646 C2662 0.959 . S
H2647 C2662 0.959 . S
H2648 C2662 0.961 . S
H2649 C2663 0.960 . S
H2650 C2663 0.961 . S
H2651 C2663 0.959 . S
H2652 C2666 0.929 . S
H2653 C2667 0.931 . S
H2654 C2669 0.930 . S
C2655 H2643 0.930 . S
C2655 C2656 1.399 . S
C2655 C2660 1.399 . S
C2656 C2655 1.399 . S
C2656 C2657 1.376 . S
C2657 H2644 0.930 . S
C2657 C2656 1.376 . S
C2657 C2658 1.388 . S
C2658 H2645 0.930 . S
C2658 C2657 1.388 . S
C2658 C2659 1.390 . S
C2659 C2658 1.390 . S
C2659 C2660 1.394 . S
C2659 C2665 1.465 . S
C2660 C2655 1.399 . S
C2660 C2659 1.394 . S
C2660 C2661 1.516 . S
C2661 C2660 1.516 . S
C2661 C2662 1.502 . S
C2661 C2663 1.561 . S
C2661 C2664 1.526 . S
C2662 H2646 0.959 . S
C2662 H2647 0.959 . S
C2662 H2648 0.961 . S
C2662 C2661 1.502 . S
C2663 H2649 0.960 . S
C2663 H2650 0.961 . S
C2663 H2651 0.959 . S
C2663 C2661 1.561 . S
C2664 C2661 1.526 . S
C2664 C2665 1.396 . S
C2664 C2669 1.390 . S
C2665 C2659 1.465 . S
C2665 C2664 1.396 . S
C2665 C2666 1.399 . S
C2666 H2652 0.929 . S
C2666 C2665 1.399 . S
C2666 C2667 1.385 . S
C2667 H2653 0.931 . S
C2667 C2666 1.385 . S
C2667 C2668 1.389 . S
C2668 C2667 1.389 . S
C2668 C2669 1.387 . S
C2669 H2654 0.930 . S
C2669 C2664 1.390 . S
C2669 C2668 1.387 . S
H2670 C2682 0.930 . S
H2671 C2684 0.930 . S
H2672 C2685 0.930 . S
H2673 C2689 0.959 . S
H2674 C2689 0.959 . S
H2675 C2689 0.961 . S
H2676 C2690 0.960 . S
H2677 C2690 0.961 . S
H2678 C2690 0.959 . S
H2679 C2693 0.929 . S
H2680 C2694 0.931 . S
H2681 C2696 0.930 . S
C2682 H2670 0.930 . S
C2682 C2683 1.399 . S
C2682 C2687 1.399 . S
C2683 C2682 1.399 . S
C2683 C2684 1.376 . S
C2684 H2671 0.930 . S
C2684 C2683 1.376 . S
C2684 C2685 1.388 . S
C2685 H2672 0.930 . S
C2685 C2684 1.388 . S
C2685 C2686 1.390 . S
C2686 C2685 1.390 . S
C2686 C2687 1.394 . S
C2686 C2692 1.465 . S
C2687 C2682 1.399 . S
C2687 C2686 1.394 . S
C2687 C2688 1.516 . S
C2688 C2687 1.516 . S
C2688 C2689 1.502 . S
C2688 C2690 1.561 . S
C2688 C2691 1.526 . S
C2689 H2673 0.959 . S
C2689 H2674 0.959 . S
C2689 H2675 0.961 . S
C2689 C2688 1.502 . S
C2690 H2676 0.960 . S
C2690 H2677 0.961 . S
C2690 H2678 0.959 . S
C2690 C2688 1.561 . S
C2691 C2688 1.526 . S
C2691 C2692 1.396 . S
C2691 C2696 1.390 . S
C2692 C2686 1.465 . S
C2692 C2691 1.396 . S
C2692 C2693 1.399 . S
C2693 H2679 0.929 . S
C2693 C2692 1.399 . S
C2693 C2694 1.385 . S
C2694 H2680 0.931 . S
C2694 C2693 1.385 . S
C2694 C2695 1.389 . S
C2695 C2694 1.389 . S
C2695 C2696 1.387 . S
C2696 H2681 0.930 . S
C2696 C2691 1.390 . S
C2696 C2695 1.387 . S
H2697 C2709 0.930 . S
H2698 C2711 0.930 . S
H2699 C2712 0.930 . S
H2700 C2716 0.959 . S
H2701 C2716 0.959 . S
H2702 C2716 0.961 . S
H2703 C2717 0.960 . S
H2704 C2717 0.961 . S
H2705 C2717 0.959 . S
H2706 C2720 0.929 . S
H2707 C2721 0.931 . S
H2708 C2723 0.930 . S
C2709 H2697 0.930 . S
C2709 C2710 1.399 . S
C2709 C2714 1.399 . S
C2710 C2709 1.399 . S
C2710 C2711 1.376 . S
C2711 H2698 0.930 . S
C2711 C2710 1.376 . S
C2711 C2712 1.388 . S
C2712 H2699 0.930 . S
C2712 C2711 1.388 . S
C2712 C2713 1.390 . S
C2713 C2712 1.390 . S
C2713 C2714 1.394 . S
C2713 C2719 1.465 . S
C2714 C2709 1.399 . S
C2714 C2713 1.394 . S
C2714 C2715 1.516 . S
C2715 C2714 1.516 . S
C2715 C2716 1.502 . S
C2715 C2717 1.561 . S
C2715 C2718 1.526 . S
C2716 H2700 0.959 . S
C2716 H2701 0.959 . S
C2716 H2702 0.961 . S
C2716 C2715 1.502 . S
C2717 H2703 0.960 . S
C2717 H2704 0.961 . S
C2717 H2705 0.959 . S
C2717 C2715 1.561 . S
C2718 C2715 1.526 . S
C2718 C2719 1.396 . S
C2718 C2723 1.390 . S
C2719 C2713 1.465 . S
C2719 C2718 1.396 . S
C2719 C2720 1.399 . S
C2720 H2706 0.929 . S
C2720 C2719 1.399 . S
C2720 C2721 1.385 . S
C2721 H2707 0.931 . S
C2721 C2720 1.385 . S
C2721 C2722 1.389 . S
C2722 C2721 1.389 . S
C2722 C2723 1.387 . S
C2723 H2708 0.930 . S
C2723 C2718 1.390 . S
C2723 C2722 1.387 . S
H2724 C2736 0.930 . S
H2725 C2738 0.930 . S
H2726 C2739 0.930 . S
H2727 C2743 0.959 . S
H2728 C2743 0.959 . S
H2729 C2743 0.961 . S
H2730 C2744 0.960 . S
H2731 C2744 0.961 . S
H2732 C2744 0.959 . S
H2733 C2747 0.929 . S
H2734 C2748 0.931 . S
H2735 C2750 0.930 . S
C2736 H2724 0.930 . S
C2736 C2737 1.399 . S
C2736 C2741 1.399 . S
C2737 C2736 1.399 . S
C2737 C2738 1.376 . S
C2738 H2725 0.930 . S
C2738 C2737 1.376 . S
C2738 C2739 1.388 . S
C2739 H2726 0.930 . S
C2739 C2738 1.388 . S
C2739 C2740 1.390 . S
C2740 C2739 1.390 . S
C2740 C2741 1.394 . S
C2740 C2746 1.465 . S
C2741 C2736 1.399 . S
C2741 C2740 1.394 . S
C2741 C2742 1.516 . S
C2742 C2741 1.516 . S
C2742 C2743 1.502 . S
C2742 C2744 1.561 . S
C2742 C2745 1.526 . S
C2743 H2727 0.959 . S
C2743 H2728 0.959 . S
C2743 H2729 0.961 . S
C2743 C2742 1.502 . S
C2744 H2730 0.960 . S
C2744 H2731 0.961 . S
C2744 H2732 0.959 . S
C2744 C2742 1.561 . S
C2745 C2742 1.526 . S
C2745 C2746 1.396 . S
C2745 C2750 1.390 . S
C2746 C2740 1.465 . S
C2746 C2745 1.396 . S
C2746 C2747 1.399 . S
C2747 H2733 0.929 . S
C2747 C2746 1.399 . S
C2747 C2748 1.385 . S
C2748 H2734 0.931 . S
C2748 C2747 1.385 . S
C2748 C2749 1.389 . S
C2749 C2748 1.389 . S
C2749 C2750 1.387 . S
C2750 H2735 0.930 . S
C2750 C2745 1.390 . S
C2750 C2749 1.387 . S
H2751 C2763 0.930 . S
H2752 C2765 0.930 . S
H2753 C2766 0.930 . S
H2754 C2770 0.959 . S
H2755 C2770 0.959 . S
H2756 C2770 0.961 . S
H2757 C2771 0.960 . S
H2758 C2771 0.961 . S
H2759 C2771 0.959 . S
H2760 C2774 0.929 . S
H2761 C2775 0.931 . S
H2762 C2777 0.930 . S
C2763 H2751 0.930 . S
C2763 C2764 1.399 . S
C2763 C2768 1.399 . S
C2764 C2763 1.399 . S
C2764 C2765 1.376 . S
C2765 H2752 0.930 . S
C2765 C2764 1.376 . S
C2765 C2766 1.388 . S
C2766 H2753 0.930 . S
C2766 C2765 1.388 . S
C2766 C2767 1.390 . S
C2767 C2766 1.390 . S
C2767 C2768 1.394 . S
C2767 C2773 1.465 . S
C2768 C2763 1.399 . S
C2768 C2767 1.394 . S
C2768 C2769 1.516 . S
C2769 C2768 1.516 . S
C2769 C2770 1.502 . S
C2769 C2771 1.561 . S
C2769 C2772 1.526 . S
C2770 H2754 0.959 . S
C2770 H2755 0.959 . S
C2770 H2756 0.961 . S
C2770 C2769 1.502 . S
C2771 H2757 0.960 . S
C2771 H2758 0.961 . S
C2771 H2759 0.959 . S
C2771 C2769 1.561 . S
C2772 C2769 1.526 . S
C2772 C2773 1.396 . S
C2772 C2777 1.390 . S
C2773 C2767 1.465 . S
C2773 C2772 1.396 . S
C2773 C2774 1.399 . S
C2774 H2760 0.929 . S
C2774 C2773 1.399 . S
C2774 C2775 1.385 . S
C2775 H2761 0.931 . S
C2775 C2774 1.385 . S
C2775 C2776 1.389 . S
C2776 C2775 1.389 . S
C2776 C2777 1.387 . S
C2777 H2762 0.930 . S
C2777 C2772 1.390 . S
C2777 C2776 1.387 . S
H2778 C2790 0.930 . S
H2779 C2792 0.930 . S
H2780 C2793 0.930 . S
H2781 C2797 0.959 . S
H2782 C2797 0.959 . S
H2783 C2797 0.961 . S
H2784 C2798 0.960 . S
H2785 C2798 0.961 . S
H2786 C2798 0.959 . S
H2787 C2801 0.929 . S
H2788 C2802 0.931 . S
H2789 C2804 0.930 . S
C2790 H2778 0.930 . S
C2790 C2791 1.399 . S
C2790 C2795 1.399 . S
C2791 C2790 1.399 . S
C2791 C2792 1.376 . S
C2792 H2779 0.930 . S
C2792 C2791 1.376 . S
C2792 C2793 1.388 . S
C2793 H2780 0.930 . S
C2793 C2792 1.388 . S
C2793 C2794 1.390 . S
C2794 C2793 1.390 . S
C2794 C2795 1.394 . S
C2794 C2800 1.465 . S
C2795 C2790 1.399 . S
C2795 C2794 1.394 . S
C2795 C2796 1.516 . S
C2796 C2795 1.516 . S
C2796 C2797 1.502 . S
C2796 C2798 1.561 . S
C2796 C2799 1.526 . S
C2797 H2781 0.959 . S
C2797 H2782 0.959 . S
C2797 H2783 0.961 . S
C2797 C2796 1.502 . S
C2798 H2784 0.960 . S
C2798 H2785 0.961 . S
C2798 H2786 0.959 . S
C2798 C2796 1.561 . S
C2799 C2796 1.526 . S
C2799 C2800 1.396 . S
C2799 C2804 1.390 . S
C2800 C2794 1.465 . S
C2800 C2799 1.396 . S
C2800 C2801 1.399 . S
C2801 H2787 0.929 . S
C2801 C2800 1.399 . S
C2801 C2802 1.385 . S
C2802 H2788 0.931 . S
C2802 C2801 1.385 . S
C2802 C2803 1.389 . S
C2803 C2802 1.389 . S
C2803 C2804 1.387 . S
C2804 H2789 0.930 . S
C2804 C2799 1.390 . S
C2804 C2803 1.387 . S
H2805 C2817 0.930 . S
H2806 C2819 0.930 . S
H2807 C2820 0.930 . S
H2808 C2824 0.959 . S
H2809 C2824 0.959 . S
H2810 C2824 0.961 . S
H2811 C2825 0.960 . S
H2812 C2825 0.961 . S
H2813 C2825 0.959 . S
H2814 C2828 0.929 . S
H2815 C2829 0.931 . S
H2816 C2831 0.930 . S
C2817 H2805 0.930 . S
C2817 C2818 1.399 . S
C2817 C2822 1.399 . S
C2818 C2817 1.399 . S
C2818 C2819 1.376 . S
C2819 H2806 0.930 . S
C2819 C2818 1.376 . S
C2819 C2820 1.388 . S
C2820 H2807 0.930 . S
C2820 C2819 1.388 . S
C2820 C2821 1.390 . S
C2821 C2820 1.390 . S
C2821 C2822 1.394 . S
C2821 C2827 1.465 . S
C2822 C2817 1.399 . S
C2822 C2821 1.394 . S
C2822 C2823 1.516 . S
C2823 C2822 1.516 . S
C2823 C2824 1.502 . S
C2823 C2825 1.561 . S
C2823 C2826 1.526 . S
C2824 H2808 0.959 . S
C2824 H2809 0.959 . S
C2824 H2810 0.961 . S
C2824 C2823 1.502 . S
C2825 H2811 0.960 . S
C2825 H2812 0.961 . S
C2825 H2813 0.959 . S
C2825 C2823 1.561 . S
C2826 C2823 1.526 . S
C2826 C2827 1.396 . S
C2826 C2831 1.390 . S
C2827 C2821 1.465 . S
C2827 C2826 1.396 . S
C2827 C2828 1.399 . S
C2828 H2814 0.929 . S
C2828 C2827 1.399 . S
C2828 C2829 1.385 . S
C2829 H2815 0.931 . S
C2829 C2828 1.385 . S
C2829 C2830 1.389 . S
C2830 C2829 1.389 . S
C2830 C2831 1.387 . S
C2831 H2816 0.930 . S
C2831 C2826 1.390 . S
C2831 C2830 1.387 . S
H2832 C2844 0.930 . S
H2833 C2846 0.930 . S
H2834 C2847 0.930 . S
H2835 C2851 0.959 . S
H2836 C2851 0.959 . S
H2837 C2851 0.961 . S
H2838 C2852 0.960 . S
H2839 C2852 0.961 . S
H2840 C2852 0.959 . S
H2841 C2855 0.929 . S
H2842 C2856 0.931 . S
H2843 C2858 0.930 . S
C2844 H2832 0.930 . S
C2844 C2845 1.399 . S
C2844 C2849 1.399 . S
C2845 C2844 1.399 . S
C2845 C2846 1.376 . S
C2846 H2833 0.930 . S
C2846 C2845 1.376 . S
C2846 C2847 1.388 . S
C2847 H2834 0.930 . S
C2847 C2846 1.388 . S
C2847 C2848 1.390 . S
C2848 C2847 1.390 . S
C2848 C2849 1.394 . S
C2848 C2854 1.465 . S
C2849 C2844 1.399 . S
C2849 C2848 1.394 . S
C2849 C2850 1.516 . S
C2850 C2849 1.516 . S
C2850 C2851 1.502 . S
C2850 C2852 1.561 . S
C2850 C2853 1.526 . S
C2851 H2835 0.959 . S
C2851 H2836 0.959 . S
C2851 H2837 0.961 . S
C2851 C2850 1.502 . S
C2852 H2838 0.960 . S
C2852 H2839 0.961 . S
C2852 H2840 0.959 . S
C2852 C2850 1.561 . S
C2853 C2850 1.526 . S
C2853 C2854 1.396 . S
C2853 C2858 1.390 . S
C2854 C2848 1.465 . S
C2854 C2853 1.396 . S
C2854 C2855 1.399 . S
C2855 H2841 0.929 . S
C2855 C2854 1.399 . S
C2855 C2856 1.385 . S
C2856 H2842 0.931 . S
C2856 C2855 1.385 . S
C2856 C2857 1.389 . S
C2857 C2856 1.389 . S
C2857 C2858 1.387 . S
C2858 H2843 0.930 . S
C2858 C2853 1.390 . S
C2858 C2857 1.387 . S
H2859 C2871 0.930 . S
H2860 C2873 0.930 . S
H2861 C2874 0.930 . S
H2862 C2878 0.959 . S
H2863 C2878 0.959 . S
H2864 C2878 0.961 . S
H2865 C2879 0.960 . S
H2866 C2879 0.961 . S
H2867 C2879 0.959 . S
H2868 C2882 0.929 . S
H2869 C2883 0.931 . S
H2870 C2885 0.930 . S
C2871 H2859 0.930 . S
C2871 C2872 1.399 . S
C2871 C2876 1.399 . S
C2872 C2871 1.399 . S
C2872 C2873 1.376 . S
C2873 H2860 0.930 . S
C2873 C2872 1.376 . S
C2873 C2874 1.388 . S
C2874 H2861 0.930 . S
C2874 C2873 1.388 . S
C2874 C2875 1.390 . S
C2875 C2874 1.390 . S
C2875 C2876 1.394 . S
C2875 C2881 1.465 . S
C2876 C2871 1.399 . S
C2876 C2875 1.394 . S
C2876 C2877 1.516 . S
C2877 C2876 1.516 . S
C2877 C2878 1.502 . S
C2877 C2879 1.561 . S
C2877 C2880 1.526 . S
C2878 H2862 0.959 . S
C2878 H2863 0.959 . S
C2878 H2864 0.961 . S
C2878 C2877 1.502 . S
C2879 H2865 0.960 . S
C2879 H2866 0.961 . S
C2879 H2867 0.959 . S
C2879 C2877 1.561 . S
C2880 C2877 1.526 . S
C2880 C2881 1.396 . S
C2880 C2885 1.390 . S
C2881 C2875 1.465 . S
C2881 C2880 1.396 . S
C2881 C2882 1.399 . S
C2882 H2868 0.929 . S
C2882 C2881 1.399 . S
C2882 C2883 1.385 . S
C2883 H2869 0.931 . S
C2883 C2882 1.385 . S
C2883 C2884 1.389 . S
C2884 C2883 1.389 . S
C2884 C2885 1.387 . S
C2885 H2870 0.930 . S
C2885 C2880 1.390 . S
C2885 C2884 1.387 . S
H2886 C2898 0.930 . S
H2887 C2900 0.930 . S
H2888 C2901 0.930 . S
H2889 C2905 0.959 . S
H2890 C2905 0.959 . S
H2891 C2905 0.961 . S
H2892 C2906 0.960 . S
H2893 C2906 0.961 . S
H2894 C2906 0.959 . S
H2895 C2909 0.929 . S
H2896 C2910 0.931 . S
H2897 C2912 0.930 . S
C2898 H2886 0.930 . S
C2898 C2899 1.399 . S
C2898 C2903 1.399 . S
C2899 C2898 1.399 . S
C2899 C2900 1.376 . S
C2900 H2887 0.930 . S
C2900 C2899 1.376 . S
C2900 C2901 1.388 . S
C2901 H2888 0.930 . S
C2901 C2900 1.388 . S
C2901 C2902 1.390 . S
C2902 C2901 1.390 . S
C2902 C2903 1.394 . S
C2902 C2908 1.465 . S
C2903 C2898 1.399 . S
C2903 C2902 1.394 . S
C2903 C2904 1.516 . S
C2904 C2903 1.516 . S
C2904 C2905 1.502 . S
C2904 C2906 1.561 . S
C2904 C2907 1.526 . S
C2905 H2889 0.959 . S
C2905 H2890 0.959 . S
C2905 H2891 0.961 . S
C2905 C2904 1.502 . S
C2906 H2892 0.960 . S
C2906 H2893 0.961 . S
C2906 H2894 0.959 . S
C2906 C2904 1.561 . S
C2907 C2904 1.526 . S
C2907 C2908 1.396 . S
C2907 C2912 1.390 . S
C2908 C2902 1.465 . S
C2908 C2907 1.396 . S
C2908 C2909 1.399 . S
C2909 H2895 0.929 . S
C2909 C2908 1.399 . S
C2909 C2910 1.385 . S
C2910 H2896 0.931 . S
C2910 C2909 1.385 . S
C2910 C2911 1.389 . S
C2911 C2910 1.389 . S
C2911 C2912 1.387 . S
C2912 H2897 0.930 . S
C2912 C2907 1.390 . S
C2912 C2911 1.387 . S
H2913 C2925 0.930 . S
H2914 C2927 0.930 . S
H2915 C2928 0.930 . S
H2916 C2932 0.959 . S
H2917 C2932 0.959 . S
H2918 C2932 0.961 . S
H2919 C2933 0.960 . S
H2920 C2933 0.961 . S
H2921 C2933 0.959 . S
H2922 C2936 0.929 . S
H2923 C2937 0.931 . S
H2924 C2939 0.930 . S
C2925 H2913 0.930 . S
C2925 C2926 1.399 . S
C2925 C2930 1.399 . S
C2926 C2925 1.399 . S
C2926 C2927 1.376 . S
C2927 H2914 0.930 . S
C2927 C2926 1.376 . S
C2927 C2928 1.388 . S
C2928 H2915 0.930 . S
C2928 C2927 1.388 . S
C2928 C2929 1.390 . S
C2929 C2928 1.390 . S
C2929 C2930 1.394 . S
C2929 C2935 1.465 . S
C2930 C2925 1.399 . S
C2930 C2929 1.394 . S
C2930 C2931 1.516 . S
C2931 C2930 1.516 . S
C2931 C2932 1.502 . S
C2931 C2933 1.561 . S
C2931 C2934 1.526 . S
C2932 H2916 0.959 . S
C2932 H2917 0.959 . S
C2932 H2918 0.961 . S
C2932 C2931 1.502 . S
C2933 H2919 0.960 . S
C2933 H2920 0.961 . S
C2933 H2921 0.959 . S
C2933 C2931 1.561 . S
C2934 C2931 1.526 . S
C2934 C2935 1.396 . S
C2934 C2939 1.390 . S
C2935 C2929 1.465 . S
C2935 C2934 1.396 . S
C2935 C2936 1.399 . S
C2936 H2922 0.929 . S
C2936 C2935 1.399 . S
C2936 C2937 1.385 . S
C2937 H2923 0.931 . S
C2937 C2936 1.385 . S
C2937 C2938 1.389 . S
C2938 C2937 1.389 . S
C2938 C2939 1.387 . S
C2939 H2924 0.930 . S
C2939 C2934 1.390 . S
C2939 C2938 1.387 . S
H2940 C2952 0.930 . S
H2941 C2954 0.930 . S
H2942 C2955 0.930 . S
H2943 C2959 0.959 . S
H2944 C2959 0.959 . S
H2945 C2959 0.961 . S
H2946 C2960 0.960 . S
H2947 C2960 0.961 . S
H2948 C2960 0.959 . S
H2949 C2963 0.929 . S
H2950 C2964 0.931 . S
H2951 C2966 0.930 . S
C2952 H2940 0.930 . S
C2952 C2953 1.399 . S
C2952 C2957 1.399 . S
C2953 C2952 1.399 . S
C2953 C2954 1.376 . S
C2954 H2941 0.930 . S
C2954 C2953 1.376 . S
C2954 C2955 1.388 . S
C2955 H2942 0.930 . S
C2955 C2954 1.388 . S
C2955 C2956 1.390 . S
C2956 C2955 1.390 . S
C2956 C2957 1.394 . S
C2956 C2962 1.465 . S
C2957 C2952 1.399 . S
C2957 C2956 1.394 . S
C2957 C2958 1.516 . S
C2958 C2957 1.516 . S
C2958 C2959 1.502 . S
C2958 C2960 1.561 . S
C2958 C2961 1.526 . S
C2959 H2943 0.959 . S
C2959 H2944 0.959 . S
C2959 H2945 0.961 . S
C2959 C2958 1.502 . S
C2960 H2946 0.960 . S
C2960 H2947 0.961 . S
C2960 H2948 0.959 . S
C2960 C2958 1.561 . S
C2961 C2958 1.526 . S
C2961 C2962 1.396 . S
C2961 C2966 1.390 . S
C2962 C2956 1.465 . S
C2962 C2961 1.396 . S
C2962 C2963 1.399 . S
C2963 H2949 0.929 . S
C2963 C2962 1.399 . S
C2963 C2964 1.385 . S
C2964 H2950 0.931 . S
C2964 C2963 1.385 . S
C2964 C2965 1.389 . S
C2965 C2964 1.389 . S
C2965 C2966 1.387 . S
C2966 H2951 0.930 . S
C2966 C2961 1.390 . S
C2966 C2965 1.387 . S
H2967 C2979 0.930 . S
H2968 C2981 0.930 . S
H2969 C2982 0.930 . S
H2970 C2986 0.959 . S
H2971 C2986 0.959 . S
H2972 C2986 0.961 . S
H2973 C2987 0.960 . S
H2974 C2987 0.961 . S
H2975 C2987 0.959 . S
H2976 C2990 0.929 . S
H2977 C2991 0.931 . S
H2978 C2993 0.930 . S
C2979 H2967 0.930 . S
C2979 C2980 1.399 . S
C2979 C2984 1.399 . S
C2980 C2979 1.399 . S
C2980 C2981 1.376 . S
C2981 H2968 0.930 . S
C2981 C2980 1.376 . S
C2981 C2982 1.388 . S
C2982 H2969 0.930 . S
C2982 C2981 1.388 . S
C2982 C2983 1.390 . S
C2983 C2982 1.390 . S
C2983 C2984 1.394 . S
C2983 C2989 1.465 . S
C2984 C2979 1.399 . S
C2984 C2983 1.394 . S
C2984 C2985 1.516 . S
C2985 C2984 1.516 . S
C2985 C2986 1.502 . S
C2985 C2987 1.561 . S
C2985 C2988 1.526 . S
C2986 H2970 0.959 . S
C2986 H2971 0.959 . S
C2986 H2972 0.961 . S
C2986 C2985 1.502 . S
C2987 H2973 0.960 . S
C2987 H2974 0.961 . S
C2987 H2975 0.959 . S
C2987 C2985 1.561 . S
C2988 C2985 1.526 . S
C2988 C2989 1.396 . S
C2988 C2993 1.390 . S
C2989 C2983 1.465 . S
C2989 C2988 1.396 . S
C2989 C2990 1.399 . S
C2990 H2976 0.929 . S
C2990 C2989 1.399 . S
C2990 C2991 1.385 . S
C2991 H2977 0.931 . S
C2991 C2990 1.385 . S
C2991 C2992 1.389 . S
C2992 C2991 1.389 . S
C2992 C2993 1.387 . S
C2993 H2978 0.930 . S
C2993 C2988 1.390 . S
C2993 C2992 1.387 . S
H2994 C3006 0.930 . S
H2995 C3008 0.930 . S
H2996 C3009 0.930 . S
H2997 C3013 0.959 . S
H2998 C3013 0.959 . S
H2999 C3013 0.961 . S
H3000 C3014 0.960 . S
H3001 C3014 0.961 . S
H3002 C3014 0.959 . S
H3003 C3017 0.929 . S
H3004 C3018 0.931 . S
H3005 C3020 0.930 . S
C3006 H2994 0.930 . S
C3006 C3007 1.399 . S
C3006 C3011 1.399 . S
C3007 C3006 1.399 . S
C3007 C3008 1.376 . S
C3008 H2995 0.930 . S
C3008 C3007 1.376 . S
C3008 C3009 1.388 . S
C3009 H2996 0.930 . S
C3009 C3008 1.388 . S
C3009 C3010 1.390 . S
C3010 C3009 1.390 . S
C3010 C3011 1.394 . S
C3010 C3016 1.465 . S
C3011 C3006 1.399 . S
C3011 C3010 1.394 . S
C3011 C3012 1.516 . S
C3012 C3011 1.516 . S
C3012 C3013 1.502 . S
C3012 C3014 1.561 . S
C3012 C3015 1.526 . S
C3013 H2997 0.959 . S
C3013 H2998 0.959 . S
C3013 H2999 0.961 . S
C3013 C3012 1.502 . S
C3014 H3000 0.960 . S
C3014 H3001 0.961 . S
C3014 H3002 0.959 . S
C3014 C3012 1.561 . S
C3015 C3012 1.526 . S
C3015 C3016 1.396 . S
C3015 C3020 1.390 . S
C3016 C3010 1.465 . S
C3016 C3015 1.396 . S
C3016 C3017 1.399 . S
C3017 H3003 0.929 . S
C3017 C3016 1.399 . S
C3017 C3018 1.385 . S
C3018 H3004 0.931 . S
C3018 C3017 1.385 . S
C3018 C3019 1.389 . S
C3019 C3018 1.389 . S
C3019 C3020 1.387 . S
C3020 H3005 0.930 . S
C3020 C3015 1.390 . S
C3020 C3019 1.387 . S
H3021 C3033 0.930 . S
H3022 C3035 0.930 . S
H3023 C3036 0.930 . S
H3024 C3040 0.959 . S
H3025 C3040 0.959 . S
H3026 C3040 0.961 . S
H3027 C3041 0.960 . S
H3028 C3041 0.961 . S
H3029 C3041 0.959 . S
H3030 C3044 0.929 . S
H3031 C3045 0.931 . S
H3032 C3047 0.930 . S
C3033 H3021 0.930 . S
C3033 C3034 1.399 . S
C3033 C3038 1.399 . S
C3034 C3033 1.399 . S
C3034 C3035 1.376 . S
C3035 H3022 0.930 . S
C3035 C3034 1.376 . S
C3035 C3036 1.388 . S
C3036 H3023 0.930 . S
C3036 C3035 1.388 . S
C3036 C3037 1.390 . S
C3037 C3036 1.390 . S
C3037 C3038 1.394 . S
C3037 C3043 1.465 . S
C3038 C3033 1.399 . S
C3038 C3037 1.394 . S
C3038 C3039 1.516 . S
C3039 C3038 1.516 . S
C3039 C3040 1.502 . S
C3039 C3041 1.561 . S
C3039 C3042 1.526 . S
C3040 H3024 0.959 . S
C3040 H3025 0.959 . S
C3040 H3026 0.961 . S
C3040 C3039 1.502 . S
C3041 H3027 0.960 . S
C3041 H3028 0.961 . S
C3041 H3029 0.959 . S
C3041 C3039 1.561 . S
C3042 C3039 1.526 . S
C3042 C3043 1.396 . S
C3042 C3047 1.390 . S
C3043 C3037 1.465 . S
C3043 C3042 1.396 . S
C3043 C3044 1.399 . S
C3044 H3030 0.929 . S
C3044 C3043 1.399 . S
C3044 C3045 1.385 . S
C3045 H3031 0.931 . S
C3045 C3044 1.385 . S
C3045 C3046 1.389 . S
C3046 C3045 1.389 . S
C3046 C3047 1.387 . S
C3047 H3032 0.930 . S
C3047 C3042 1.390 . S
C3047 C3046 1.387 . S
H3048 C3060 0.930 . S
H3049 C3062 0.930 . S
H3050 C3063 0.930 . S
H3051 C3067 0.959 . S
H3052 C3067 0.959 . S
H3053 C3067 0.961 . S
H3054 C3068 0.960 . S
H3055 C3068 0.961 . S
H3056 C3068 0.959 . S
H3057 C3071 0.929 . S
H3058 C3072 0.931 . S
H3059 C3074 0.930 . S
C3060 H3048 0.930 . S
C3060 C3061 1.399 . S
C3060 C3065 1.399 . S
C3061 C3060 1.399 . S
C3061 C3062 1.376 . S
C3062 H3049 0.930 . S
C3062 C3061 1.376 . S
C3062 C3063 1.388 . S
C3063 H3050 0.930 . S
C3063 C3062 1.388 . S
C3063 C3064 1.390 . S
C3064 C3063 1.390 . S
C3064 C3065 1.394 . S
C3064 C3070 1.465 . S
C3065 C3060 1.399 . S
C3065 C3064 1.394 . S
C3065 C3066 1.516 . S
C3066 C3065 1.516 . S
C3066 C3067 1.502 . S
C3066 C3068 1.561 . S
C3066 C3069 1.526 . S
C3067 H3051 0.959 . S
C3067 H3052 0.959 . S
C3067 H3053 0.961 . S
C3067 C3066 1.502 . S
C3068 H3054 0.960 . S
C3068 H3055 0.961 . S
C3068 H3056 0.959 . S
C3068 C3066 1.561 . S
C3069 C3066 1.526 . S
C3069 C3070 1.396 . S
C3069 C3074 1.390 . S
C3070 C3064 1.465 . S
C3070 C3069 1.396 . S
C3070 C3071 1.399 . S
C3071 H3057 0.929 . S
C3071 C3070 1.399 . S
C3071 C3072 1.385 . S
C3072 H3058 0.931 . S
C3072 C3071 1.385 . S
C3072 C3073 1.389 . S
C3073 C3072 1.389 . S
C3073 C3074 1.387 . S
C3074 H3059 0.930 . S
C3074 C3069 1.390 . S
C3074 C3073 1.387 . S
H3075 C3087 0.930 . S
H3076 C3089 0.930 . S
H3077 C3090 0.930 . S
H3078 C3094 0.959 . S
H3079 C3094 0.959 . S
H3080 C3094 0.961 . S
H3081 C3095 0.960 . S
H3082 C3095 0.961 . S
H3083 C3095 0.959 . S
H3084 C3098 0.929 . S
H3085 C3099 0.931 . S
H3086 C3101 0.930 . S
C3087 H3075 0.930 . S
C3087 C3088 1.399 . S
C3087 C3092 1.399 . S
C3088 C3087 1.399 . S
C3088 C3089 1.376 . S
C3089 H3076 0.930 . S
C3089 C3088 1.376 . S
C3089 C3090 1.388 . S
C3090 H3077 0.930 . S
C3090 C3089 1.388 . S
C3090 C3091 1.390 . S
C3091 C3090 1.390 . S
C3091 C3092 1.394 . S
C3091 C3097 1.465 . S
C3092 C3087 1.399 . S
C3092 C3091 1.394 . S
C3092 C3093 1.516 . S
C3093 C3092 1.516 . S
C3093 C3094 1.502 . S
C3093 C3095 1.561 . S
C3093 C3096 1.526 . S
C3094 H3078 0.959 . S
C3094 H3079 0.959 . S
C3094 H3080 0.961 . S
C3094 C3093 1.502 . S
C3095 H3081 0.960 . S
C3095 H3082 0.961 . S
C3095 H3083 0.959 . S
C3095 C3093 1.561 . S
C3096 C3093 1.526 . S
C3096 C3097 1.396 . S
C3096 C3101 1.390 . S
C3097 C3091 1.465 . S
C3097 C3096 1.396 . S
C3097 C3098 1.399 . S
C3098 H3084 0.929 . S
C3098 C3097 1.399 . S
C3098 C3099 1.385 . S
C3099 H3085 0.931 . S
C3099 C3098 1.385 . S
C3099 C3100 1.389 . S
C3100 C3099 1.389 . S
C3100 C3101 1.387 . S
C3101 H3086 0.930 . S
C3101 C3096 1.390 . S
C3101 C3100 1.387 . S
H3102 C3114 0.930 . S
H3103 C3116 0.930 . S
H3104 C3117 0.930 . S
H3105 C3121 0.959 . S
H3106 C3121 0.959 . S
H3107 C3121 0.961 . S
H3108 C3122 0.960 . S
H3109 C3122 0.961 . S
H3110 C3122 0.959 . S
H3111 C3125 0.929 . S
H3112 C3126 0.931 . S
H3113 C3128 0.930 . S
C3114 H3102 0.930 . S
C3114 C3115 1.399 . S
C3114 C3119 1.399 . S
C3115 C3114 1.399 . S
C3115 C3116 1.376 . S
C3116 H3103 0.930 . S
C3116 C3115 1.376 . S
C3116 C3117 1.388 . S
C3117 H3104 0.930 . S
C3117 C3116 1.388 . S
C3117 C3118 1.390 . S
C3118 C3117 1.390 . S
C3118 C3119 1.394 . S
C3118 C3124 1.465 . S
C3119 C3114 1.399 . S
C3119 C3118 1.394 . S
C3119 C3120 1.516 . S
C3120 C3119 1.516 . S
C3120 C3121 1.502 . S
C3120 C3122 1.561 . S
C3120 C3123 1.526 . S
C3121 H3105 0.959 . S
C3121 H3106 0.959 . S
C3121 H3107 0.961 . S
C3121 C3120 1.502 . S
C3122 H3108 0.960 . S
C3122 H3109 0.961 . S
C3122 H3110 0.959 . S
C3122 C3120 1.561 . S
C3123 C3120 1.526 . S
C3123 C3124 1.396 . S
C3123 C3128 1.390 . S
C3124 C3118 1.465 . S
C3124 C3123 1.396 . S
C3124 C3125 1.399 . S
C3125 H3111 0.929 . S
C3125 C3124 1.399 . S
C3125 C3126 1.385 . S
C3126 H3112 0.931 . S
C3126 C3125 1.385 . S
C3126 C3127 1.389 . S
C3127 C3126 1.389 . S
C3127 C3128 1.387 . S
C3128 H3113 0.930 . S
C3128 C3123 1.390 . S
C3128 C3127 1.387 . S
H3129 C3141 0.930 . S
H3130 C3143 0.930 . S
H3131 C3144 0.930 . S
H3132 C3148 0.959 . S
H3133 C3148 0.959 . S
H3134 C3148 0.961 . S
H3135 C3149 0.960 . S
H3136 C3149 0.961 . S
H3137 C3149 0.959 . S
H3138 C3152 0.929 . S
H3139 C3153 0.931 . S
H3140 C3155 0.930 . S
C3141 H3129 0.930 . S
C3141 C3142 1.399 . S
C3141 C3146 1.399 . S
C3142 C3141 1.399 . S
C3142 C3143 1.376 . S
C3143 H3130 0.930 . S
C3143 C3142 1.376 . S
C3143 C3144 1.388 . S
C3144 H3131 0.930 . S
C3144 C3143 1.388 . S
C3144 C3145 1.390 . S
C3145 C3144 1.390 . S
C3145 C3146 1.394 . S
C3145 C3151 1.465 . S
C3146 C3141 1.399 . S
C3146 C3145 1.394 . S
C3146 C3147 1.516 . S
C3147 C3146 1.516 . S
C3147 C3148 1.502 . S
C3147 C3149 1.561 . S
C3147 C3150 1.526 . S
C3148 H3132 0.959 . S
C3148 H3133 0.959 . S
C3148 H3134 0.961 . S
C3148 C3147 1.502 . S
C3149 H3135 0.960 . S
C3149 H3136 0.961 . S
C3149 H3137 0.959 . S
C3149 C3147 1.561 . S
C3150 C3147 1.526 . S
C3150 C3151 1.396 . S
C3150 C3155 1.390 . S
C3151 C3145 1.465 . S
C3151 C3150 1.396 . S
C3151 C3152 1.399 . S
C3152 H3138 0.929 . S
C3152 C3151 1.399 . S
C3152 C3153 1.385 . S
C3153 H3139 0.931 . S
C3153 C3152 1.385 . S
C3153 C3154 1.389 . S
C3154 C3153 1.389 . S
C3154 C3155 1.387 . S
C3155 H3140 0.930 . S
C3155 C3150 1.390 . S
C3155 C3154 1.387 . S
H3156 C3168 0.930 . S
H3157 C3170 0.930 . S
H3158 C3171 0.930 . S
H3159 C3175 0.959 . S
H3160 C3175 0.959 . S
H3161 C3175 0.961 . S
H3162 C3176 0.960 . S
H3163 C3176 0.961 . S
H3164 C3176 0.959 . S
H3165 C3179 0.929 . S
H3166 C3180 0.931 . S
H3167 C3182 0.930 . S
C3168 H3156 0.930 . S
C3168 C3169 1.399 . S
C3168 C3173 1.399 . S
C3169 C3168 1.399 . S
C3169 C3170 1.376 . S
C3170 H3157 0.930 . S
C3170 C3169 1.376 . S
C3170 C3171 1.388 . S
C3171 H3158 0.930 . S
C3171 C3170 1.388 . S
C3171 C3172 1.390 . S
C3172 C3171 1.390 . S
C3172 C3173 1.394 . S
C3172 C3178 1.465 . S
C3173 C3168 1.399 . S
C3173 C3172 1.394 . S
C3173 C3174 1.516 . S
C3174 C3173 1.516 . S
C3174 C3175 1.502 . S
C3174 C3176 1.561 . S
C3174 C3177 1.526 . S
C3175 H3159 0.959 . S
C3175 H3160 0.959 . S
C3175 H3161 0.961 . S
C3175 C3174 1.502 . S
C3176 H3162 0.960 . S
C3176 H3163 0.961 . S
C3176 H3164 0.959 . S
C3176 C3174 1.561 . S
C3177 C3174 1.526 . S
C3177 C3178 1.396 . S
C3177 C3182 1.390 . S
C3178 C3172 1.465 . S
C3178 C3177 1.396 . S
C3178 C3179 1.399 . S
C3179 H3165 0.929 . S
C3179 C3178 1.399 . S
C3179 C3180 1.385 . S
C3180 H3166 0.931 . S
C3180 C3179 1.385 . S
C3180 C3181 1.389 . S
C3181 C3180 1.389 . S
C3181 C3182 1.387 . S
C3182 H3167 0.930 . S
C3182 C3177 1.390 . S
C3182 C3181 1.387 . S
H3183 C3195 0.930 . S
H3184 C3197 0.930 . S
H3185 C3198 0.930 . S
H3186 C3202 0.959 . S
H3187 C3202 0.959 . S
H3188 C3202 0.961 . S
H3189 C3203 0.960 . S
H3190 C3203 0.961 . S
H3191 C3203 0.959 . S
H3192 C3206 0.929 . S
H3193 C3207 0.931 . S
H3194 C3209 0.930 . S
C3195 H3183 0.930 . S
C3195 C3196 1.399 . S
C3195 C3200 1.399 . S
C3196 C3195 1.399 . S
C3196 C3197 1.376 . S
C3197 H3184 0.930 . S
C3197 C3196 1.376 . S
C3197 C3198 1.388 . S
C3198 H3185 0.930 . S
C3198 C3197 1.388 . S
C3198 C3199 1.390 . S
C3199 C3198 1.390 . S
C3199 C3200 1.394 . S
C3199 C3205 1.465 . S
C3200 C3195 1.399 . S
C3200 C3199 1.394 . S
C3200 C3201 1.516 . S
C3201 C3200 1.516 . S
C3201 C3202 1.502 . S
C3201 C3203 1.561 . S
C3201 C3204 1.526 . S
C3202 H3186 0.959 . S
C3202 H3187 0.959 . S
C3202 H3188 0.961 . S
C3202 C3201 1.502 . S
C3203 H3189 0.960 . S
C3203 H3190 0.961 . S
C3203 H3191 0.959 . S
C3203 C3201 1.561 . S
C3204 C3201 1.526 . S
C3204 C3205 1.396 . S
C3204 C3209 1.390 . S
C3205 C3199 1.465 . S
C3205 C3204 1.396 . S
C3205 C3206 1.399 . S
C3206 H3192 0.929 . S
C3206 C3205 1.399 . S
C3206 C3207 1.385 . S
C3207 H3193 0.931 . S
C3207 C3206 1.385 . S
C3207 C3208 1.389 . S
C3208 C3207 1.389 . S
C3208 C3209 1.387 . S
C3209 H3194 0.930 . S
C3209 C3204 1.390 . S
C3209 C3208 1.387 . S
H3210 C3222 0.930 . S
H3211 C3224 0.930 . S
H3212 C3225 0.930 . S
H3213 C3229 0.959 . S
H3214 C3229 0.959 . S
H3215 C3229 0.961 . S
H3216 C3230 0.960 . S
H3217 C3230 0.961 . S
H3218 C3230 0.959 . S
H3219 C3233 0.929 . S
H3220 C3234 0.931 . S
H3221 C3236 0.930 . S
C3222 H3210 0.930 . S
C3222 C3223 1.399 . S
C3222 C3227 1.399 . S
C3223 C3222 1.399 . S
C3223 C3224 1.376 . S
C3224 H3211 0.930 . S
C3224 C3223 1.376 . S
C3224 C3225 1.388 . S
C3225 H3212 0.930 . S
C3225 C3224 1.388 . S
C3225 C3226 1.390 . S
C3226 C3225 1.390 . S
C3226 C3227 1.394 . S
C3226 C3232 1.465 . S
C3227 C3222 1.399 . S
C3227 C3226 1.394 . S
C3227 C3228 1.516 . S
C3228 C3227 1.516 . S
C3228 C3229 1.502 . S
C3228 C3230 1.561 . S
C3228 C3231 1.526 . S
C3229 H3213 0.959 . S
C3229 H3214 0.959 . S
C3229 H3215 0.961 . S
C3229 C3228 1.502 . S
C3230 H3216 0.960 . S
C3230 H3217 0.961 . S
C3230 H3218 0.959 . S
C3230 C3228 1.561 . S
C3231 C3228 1.526 . S
C3231 C3232 1.396 . S
C3231 C3236 1.390 . S
C3232 C3226 1.465 . S
C3232 C3231 1.396 . S
C3232 C3233 1.399 . S
C3233 H3219 0.929 . S
C3233 C3232 1.399 . S
C3233 C3234 1.385 . S
C3234 H3220 0.931 . S
C3234 C3233 1.385 . S
C3234 C3235 1.389 . S
C3235 C3234 1.389 . S
C3235 C3236 1.387 . S
C3236 H3221 0.930 . S
C3236 C3231 1.390 . S
C3236 C3235 1.387 . S
H3237 C3249 0.930 . S
H3238 C3251 0.930 . S
H3239 C3252 0.930 . S
H3240 C3256 0.959 . S
H3241 C3256 0.959 . S
H3242 C3256 0.961 . S
H3243 C3257 0.960 . S
H3244 C3257 0.961 . S
H3245 C3257 0.959 . S
H3246 C3260 0.929 . S
H3247 C3261 0.931 . S
H3248 C3263 0.930 . S
C3249 H3237 0.930 . S
C3249 C3250 1.399 . S
C3249 C3254 1.399 . S
C3250 C3249 1.399 . S
C3250 C3251 1.376 . S
C3251 H3238 0.930 . S
C3251 C3250 1.376 . S
C3251 C3252 1.388 . S
C3252 H3239 0.930 . S
C3252 C3251 1.388 . S
C3252 C3253 1.390 . S
C3253 C3252 1.390 . S
C3253 C3254 1.394 . S
C3253 C3259 1.465 . S
C3254 C3249 1.399 . S
C3254 C3253 1.394 . S
C3254 C3255 1.516 . S
C3255 C3254 1.516 . S
C3255 C3256 1.502 . S
C3255 C3257 1.561 . S
C3255 C3258 1.526 . S
C3256 H3240 0.959 . S
C3256 H3241 0.959 . S
C3256 H3242 0.961 . S
C3256 C3255 1.502 . S
C3257 H3243 0.960 . S
C3257 H3244 0.961 . S
C3257 H3245 0.959 . S
C3257 C3255 1.561 . S
C3258 C3255 1.526 . S
C3258 C3259 1.396 . S
C3258 C3263 1.390 . S
C3259 C3253 1.465 . S
C3259 C3258 1.396 . S
C3259 C3260 1.399 . S
C3260 H3246 0.929 . S
C3260 C3259 1.399 . S
C3260 C3261 1.385 . S
C3261 H3247 0.931 . S
C3261 C3260 1.385 . S
C3261 C3262 1.389 . S
C3262 C3261 1.389 . S
C3262 C3263 1.387 . S
C3263 H3248 0.930 . S
C3263 C3258 1.390 . S
C3263 C3262 1.387 . S
C685 C91 1.127 . S
C697 C7 1.119 . S
C712 C21 1.161 . S
C724 C105 1.150 . S
C739 C35 1.147 . S
C751 C63 1.159 . S
C766 C77 1.148 . S
C778 C49 1.159 . S
C793 C483 1.152 . S
C805 C119 1.162 . S
C820 C497 1.156 . S
C832 C133 1.164 . S
C847 C147 1.154 . S
C859 C455 1.163 . S
C874 C161 1.155 . S
C886 C469 1.163 . S
C901 C539 1.125 . S
C913 C175 1.118 . S
C928 C553 1.155 . S
C940 C189 1.163 . S
C955 C511 1.142 . S
C967 C203 1.155 . S
C982 C525 1.155 . S
C994 C217 1.163 . S
C1009 C231 1.121 . S
C1021 C581 1.132 . S
C1036 C245 1.162 . S
C1048 C567 1.151 . S
C1063 C259 1.150 . S
C1075 C329 1.161 . S
C1090 C637 1.121 . S
C1102 C273 1.133 . S
C1117 C651 1.144 . S
C1129 C287 1.157 . S
C1144 C609 1.121 . S
C1156 C301 1.133 . S
C1171 C623 1.155 . S
C1183 C315 1.163 . S
C1198 C427 1.130 . S
C1210 C343 1.120 . S
C1225 C441 1.119 . S
C1237 C357 1.130 . S
C1252 C371 1.155 . S
C1264 C399 1.163 . S
C1279 C385 1.121 . S
C1291 C413 1.133 . S
C1306 C665 1.148 . S
C1318 C595 1.159 . S
C1333 C233 1.084 . S
C1345 C3 1.154 . S
C1360 C17 1.165 1_655 S
C1372 C667 1.159 . S
C1387 C31 1.154 . S
C1399 C303 1.117 . S
C1414 C653 1.065 . S
C1426 C45 1.158 . S
C1441 C59 1.153 . S
C1453 C583 1.095 . S
C1468 C597 1.066 . S
C1480 C73 1.157 . S
C1495 C87 1.160 . S
C1507 C611 1.062 . S
C1522 C289 1.094 . S
C1534 C101 1.186 1_655 S
C1549 C115 1.179 . S
C1561 C9 1.075 . S
C1576 C23 1.165 . S
C1588 C129 1.168 . S
C1603 C143 1.175 . S
C1615 C37 1.068 . S
C1630 C157 1.157 1_554 S
C1642 C51 1.136 . S
C1657 C171 1.184 . S
C1669 C65 1.086 . S
C1684 C79 1.096 . S
C1696 C185 1.187 . S
C1711 C199 1.163 . S
C1723 C93 1.060 . S
C1738 C213 1.193 1_556 S
C1750 C107 1.162 . S
C1765 C227 1.168 . S
C1777 C121 1.166 . S
C1792 C241 1.189 . S
C1804 C513 1.104 . S
C1819 C527 1.067 . S
C1831 C255 1.157 . S
C1846 C541 1.172 . S
C1858 C269 1.191 . S
C1873 C283 1.183 1_565 S
C1885 C219 1.083 . S
C1900 C297 1.173 . S
C1912 C149 1.173 . S
C1927 C499 1.064 . S
C1939 C311 1.158 . S
C1954 C471 1.063 . S
C1966 C325 1.159 . S
C1981 C339 1.181 . S
C1993 C569 1.179 . S
C2008 C353 1.192 . S
C2020 C331 1.120 . S
C2035 C367 1.193 . S
C2047 C639 1.164 . S
C2062 C381 1.177 1_455 S
C2074 C317 1.177 . S
C2089 C395 1.194 . S
C2101 C247 1.160 . S
C2116 C261 1.070 . S
C2128 C409 1.156 1_455 S
C2143 C275 1.163 . S
C2155 C423 1.167 . S
C2170 C625 1.129 . S
C2182 C437 1.193 . S
C2197 C345 1.061 . S
C2209 C451 1.171 . S
C2224 C359 1.083 . S
C2236 C465 1.154 1_554 S
C2251 C479 1.169 . S
C2263 C373 1.167 . S
C2278 C387 1.105 . S
C2290 C493 1.189 . S
C2305 C507 1.176 . S
C2317 C401 1.070 . S
C2332 C415 1.163 . S
C2344 C521 1.167 1_556 S
C2359 C535 1.194 . S
C2371 C429 1.154 . S
C2386 C443 1.133 . S
C2398 C549 1.157 . S
C2413 C563 1.184 . S
C2425 C457 1.087 . S
C2440 C577 1.177 . S
C2452 C177 1.071 . S
C2467 C191 1.130 . S
C2479 C591 1.157 1_545 S
C2494 C605 1.163 . S
C2506 C205 1.153 . S
C2521 C619 1.181 . S
C2533 C555 1.078 . S
C2548 C485 1.170 . S
C2560 C633 1.192 . S
C2575 C647 1.159 1_565 S
C2587 C163 1.140 . S
C2602 C135 1.165 . S
C2614 C661 1.193 1_545 S
C2629 C134 0.684 . S
C2641 C8 0.697 . S
C2656 C22 0.694 . S
C2668 C148 0.713 . S
C2683 C162 0.710 . S
C2695 C36 0.691 . S
C2710 C120 0.690 . S
C2722 C50 0.684 . S
C2737 C64 0.684 . S
C2749 C218 0.696 . S
C2764 C78 0.718 . S
C2776 C176 0.700 . S
C2791 C190 0.684 . S
C2803 C92 0.692 . S
C2818 C204 0.710 . S
C2830 C106 0.691 . S
C2845 C232 0.684 . S
C2857 C260 0.696 . S
C2872 C246 0.694 . S
C2884 C652 0.684 . S
C2899 C274 0.708 . S
C2911 C666 0.720 . S
C2926 C638 0.721 . S
C2938 C288 0.707 . S
C2953 C624 0.720 . S
C2965 C302 0.717 . S
C2980 C582 0.692 . S
C2992 C316 0.711 . S
C3007 C330 0.721 . S
C3019 C610 0.716 . S
C3034 C470 0.684 . S
C3046 C344 0.691 . S
C3061 C484 0.687 . S
C3073 C358 0.686 . S
C3088 C372 0.706 . S
C3100 C498 0.688 . S
C3115 C456 0.721 . S
C3127 C386 0.713 . S
C3142 C554 0.686 . S
C3154 C400 0.687 . S
C3169 C512 0.704 . S
C3181 C414 0.719 . S
C3196 C428 0.686 . S
C3208 C526 0.703 . S
C3223 C540 0.717 . S
C3235 C442 0.720 . S
C3250 C596 0.690 . S
C3262 C568 0.684 . S
