# Generated by pormake.
# Topology lcv-f, (3)-cn, num edge types: 1
# Building blocks:
#     Node 0, Type 0, BuildingBlock: OLANEW_clean_sbu_2, # of connection points: 3
#     Node 1, Type 0, BuildingBlock: OLANEW_clean_sbu_2, # of connection points: 3
#     Node 2, Type 0, BuildingBlock: OLANEW_clean_sbu_2, # of connection points: 3
#     Node 3, Type 0, BuildingBlock: OLANEW_clean_sbu_2, # of connection points: 3
#     Node 4, Type 0, BuildingBlock: OLANEW_clean_sbu_2, # of connection points: 3
#     Node 5, Type 0, BuildingBlock: OLANEW_clean_sbu_2, # of connection points: 3
#     Node 6, Type 0, BuildingBlock: OLANEW_clean_sbu_2, # of connection points: 3
#     Node 7, Type 0, BuildingBlock: OLANEW_clean_sbu_2, # of connection points: 3
#     Node 8, Type 0, BuildingBlock: OLANEW_clean_sbu_2, # of connection points: 3
#     Node 9, Type 0, BuildingBlock: OLANEW_clean_sbu_2, # of connection points: 3
#     Node 10, Type 0, BuildingBlock: OLANEW_clean_sbu_2, # of connection points: 3
#     Node 11, Type 0, BuildingBlock: OLANEW_clean_sbu_2, # of connection points: 3
#     Node 12, Type 0, BuildingBlock: OLANEW_clean_sbu_2, # of connection points: 3
#     Node 13, Type 0, BuildingBlock: OLANEW_clean_sbu_2, # of connection points: 3
#     Node 14, Type 0, BuildingBlock: OLANEW_clean_sbu_2, # of connection points: 3
#     Node 15, Type 0, BuildingBlock: OLANEW_clean_sbu_2, # of connection points: 3
#     Node 16, Type 0, BuildingBlock: OLANEW_clean_sbu_2, # of connection points: 3
#     Node 17, Type 0, BuildingBlock: OLANEW_clean_sbu_2, # of connection points: 3
#     Node 18, Type 0, BuildingBlock: OLANEW_clean_sbu_2, # of connection points: 3
#     Node 19, Type 0, BuildingBlock: OLANEW_clean_sbu_2, # of connection points: 3
#     Node 20, Type 0, BuildingBlock: OLANEW_clean_sbu_2, # of connection points: 3
#     Node 21, Type 0, BuildingBlock: OLANEW_clean_sbu_2, # of connection points: 3
#     Node 22, Type 0, BuildingBlock: OLANEW_clean_sbu_2, # of connection points: 3
#     Node 23, Type 0, BuildingBlock: OLANEW_clean_sbu_2, # of connection points: 3
#     Node 24, Type 0, BuildingBlock: OLANEW_clean_sbu_2, # of connection points: 3
#     Node 25, Type 0, BuildingBlock: OLANEW_clean_sbu_2, # of connection points: 3
#     Node 26, Type 0, BuildingBlock: OLANEW_clean_sbu_2, # of connection points: 3
#     Node 27, Type 0, BuildingBlock: OLANEW_clean_sbu_2, # of connection points: 3
#     Node 28, Type 0, BuildingBlock: OLANEW_clean_sbu_2, # of connection points: 3
#     Node 29, Type 0, BuildingBlock: OLANEW_clean_sbu_2, # of connection points: 3
#     Node 30, Type 0, BuildingBlock: OLANEW_clean_sbu_2, # of connection points: 3
#     Node 31, Type 0, BuildingBlock: OLANEW_clean_sbu_2, # of connection points: 3
#     Node 32, Type 0, BuildingBlock: OLANEW_clean_sbu_2, # of connection points: 3
#     Node 33, Type 0, BuildingBlock: OLANEW_clean_sbu_2, # of connection points: 3
#     Node 34, Type 0, BuildingBlock: OLANEW_clean_sbu_2, # of connection points: 3
#     Node 35, Type 0, BuildingBlock: OLANEW_clean_sbu_2, # of connection points: 3
#     Node 36, Type 0, BuildingBlock: OLANEW_clean_sbu_2, # of connection points: 3
#     Node 37, Type 0, BuildingBlock: OLANEW_clean_sbu_2, # of connection points: 3
#     Node 38, Type 0, BuildingBlock: OLANEW_clean_sbu_2, # of connection points: 3
#     Node 39, Type 0, BuildingBlock: OLANEW_clean_sbu_2, # of connection points: 3
#     Node 40, Type 0, BuildingBlock: OLANEW_clean_sbu_2, # of connection points: 3
#     Node 41, Type 0, BuildingBlock: OLANEW_clean_sbu_2, # of connection points: 3
#     Node 42, Type 0, BuildingBlock: OLANEW_clean_sbu_2, # of connection points: 3
#     Node 43, Type 0, BuildingBlock: OLANEW_clean_sbu_2, # of connection points: 3
#     Node 44, Type 0, BuildingBlock: OLANEW_clean_sbu_2, # of connection points: 3
#     Node 45, Type 0, BuildingBlock: OLANEW_clean_sbu_2, # of connection points: 3
#     Node 46, Type 0, BuildingBlock: OLANEW_clean_sbu_2, # of connection points: 3
#     Node 47, Type 0, BuildingBlock: OLANEW_clean_sbu_2, # of connection points: 3
#     Edge 48, Type (0, 0), BuildingBlock: CIFDUS_clean_linker_0, # of connection points: 2
#     Edge 49, Type (0, 0), BuildingBlock: CIFDUS_clean_linker_0, # of connection points: 2
#     Edge 50, Type (0, 0), BuildingBlock: CIFDUS_clean_linker_0, # of connection points: 2
#     Edge 51, Type (0, 0), BuildingBlock: CIFDUS_clean_linker_0, # of connection points: 2
#     Edge 52, Type (0, 0), BuildingBlock: CIFDUS_clean_linker_0, # of connection points: 2
#     Edge 53, Type (0, 0), BuildingBlock: CIFDUS_clean_linker_0, # of connection points: 2
#     Edge 54, Type (0, 0), BuildingBlock: CIFDUS_clean_linker_0, # of connection points: 2
#     Edge 55, Type (0, 0), BuildingBlock: CIFDUS_clean_linker_0, # of connection points: 2
#     Edge 56, Type (0, 0), BuildingBlock: CIFDUS_clean_linker_0, # of connection points: 2
#     Edge 57, Type (0, 0), BuildingBlock: CIFDUS_clean_linker_0, # of connection points: 2
#     Edge 58, Type (0, 0), BuildingBlock: CIFDUS_clean_linker_0, # of connection points: 2
#     Edge 59, Type (0, 0), BuildingBlock: CIFDUS_clean_linker_0, # of connection points: 2
#     Edge 60, Type (0, 0), BuildingBlock: CIFDUS_clean_linker_0, # of connection points: 2
#     Edge 61, Type (0, 0), BuildingBlock: CIFDUS_clean_linker_0, # of connection points: 2
#     Edge 62, Type (0, 0), BuildingBlock: CIFDUS_clean_linker_0, # of connection points: 2
#     Edge 63, Type (0, 0), BuildingBlock: CIFDUS_clean_linker_0, # of connection points: 2
#     Edge 64, Type (0, 0), BuildingBlock: CIFDUS_clean_linker_0, # of connection points: 2
#     Edge 65, Type (0, 0), BuildingBlock: CIFDUS_clean_linker_0, # of connection points: 2
#     Edge 66, Type (0, 0), BuildingBlock: CIFDUS_clean_linker_0, # of connection points: 2
#     Edge 67, Type (0, 0), BuildingBlock: CIFDUS_clean_linker_0, # of connection points: 2
#     Edge 68, Type (0, 0), BuildingBlock: CIFDUS_clean_linker_0, # of connection points: 2
#     Edge 69, Type (0, 0), BuildingBlock: CIFDUS_clean_linker_0, # of connection points: 2
#     Edge 70, Type (0, 0), BuildingBlock: CIFDUS_clean_linker_0, # of connection points: 2
#     Edge 71, Type (0, 0), BuildingBlock: CIFDUS_clean_linker_0, # of connection points: 2
#     Edge 72, Type (0, 0), BuildingBlock: CIFDUS_clean_linker_0, # of connection points: 2
#     Edge 73, Type (0, 0), BuildingBlock: CIFDUS_clean_linker_0, # of connection points: 2
#     Edge 74, Type (0, 0), BuildingBlock: CIFDUS_clean_linker_0, # of connection points: 2
#     Edge 75, Type (0, 0), BuildingBlock: CIFDUS_clean_linker_0, # of connection points: 2
#     Edge 76, Type (0, 0), BuildingBlock: CIFDUS_clean_linker_0, # of connection points: 2
#     Edge 77, Type (0, 0), BuildingBlock: CIFDUS_clean_linker_0, # of connection points: 2
#     Edge 78, Type (0, 0), BuildingBlock: CIFDUS_clean_linker_0, # of connection points: 2
#     Edge 79, Type (0, 0), BuildingBlock: CIFDUS_clean_linker_0, # of connection points: 2
#     Edge 80, Type (0, 0), BuildingBlock: CIFDUS_clean_linker_0, # of connection points: 2
#     Edge 81, Type (0, 0), BuildingBlock: CIFDUS_clean_linker_0, # of connection points: 2
#     Edge 82, Type (0, 0), BuildingBlock: CIFDUS_clean_linker_0, # of connection points: 2
#     Edge 83, Type (0, 0), BuildingBlock: CIFDUS_clean_linker_0, # of connection points: 2
#     Edge 84, Type (0, 0), BuildingBlock: CIFDUS_clean_linker_0, # of connection points: 2
#     Edge 85, Type (0, 0), BuildingBlock: CIFDUS_clean_linker_0, # of connection points: 2
#     Edge 86, Type (0, 0), BuildingBlock: CIFDUS_clean_linker_0, # of connection points: 2
#     Edge 87, Type (0, 0), BuildingBlock: CIFDUS_clean_linker_0, # of connection points: 2
#     Edge 88, Type (0, 0), BuildingBlock: CIFDUS_clean_linker_0, # of connection points: 2
#     Edge 89, Type (0, 0), BuildingBlock: CIFDUS_clean_linker_0, # of connection points: 2
#     Edge 90, Type (0, 0), BuildingBlock: CIFDUS_clean_linker_0, # of connection points: 2
#     Edge 91, Type (0, 0), BuildingBlock: CIFDUS_clean_linker_0, # of connection points: 2
#     Edge 92, Type (0, 0), BuildingBlock: CIFDUS_clean_linker_0, # of connection points: 2
#     Edge 93, Type (0, 0), BuildingBlock: CIFDUS_clean_linker_0, # of connection points: 2
#     Edge 94, Type (0, 0), BuildingBlock: CIFDUS_clean_linker_0, # of connection points: 2
#     Edge 95, Type (0, 0), BuildingBlock: CIFDUS_clean_linker_0, # of connection points: 2
#     Edge 96, Type (0, 0), BuildingBlock: CIFDUS_clean_linker_0, # of connection points: 2
#     Edge 97, Type (0, 0), BuildingBlock: CIFDUS_clean_linker_0, # of connection points: 2
#     Edge 98, Type (0, 0), BuildingBlock: CIFDUS_clean_linker_0, # of connection points: 2
#     Edge 99, Type (0, 0), BuildingBlock: CIFDUS_clean_linker_0, # of connection points: 2
#     Edge 100, Type (0, 0), BuildingBlock: CIFDUS_clean_linker_0, # of connection points: 2
#     Edge 101, Type (0, 0), BuildingBlock: CIFDUS_clean_linker_0, # of connection points: 2
#     Edge 102, Type (0, 0), BuildingBlock: CIFDUS_clean_linker_0, # of connection points: 2
#     Edge 103, Type (0, 0), BuildingBlock: CIFDUS_clean_linker_0, # of connection points: 2
#     Edge 104, Type (0, 0), BuildingBlock: CIFDUS_clean_linker_0, # of connection points: 2
#     Edge 105, Type (0, 0), BuildingBlock: CIFDUS_clean_linker_0, # of connection points: 2
#     Edge 106, Type (0, 0), BuildingBlock: CIFDUS_clean_linker_0, # of connection points: 2
#     Edge 107, Type (0, 0), BuildingBlock: CIFDUS_clean_linker_0, # of connection points: 2
#     Edge 108, Type (0, 0), BuildingBlock: CIFDUS_clean_linker_0, # of connection points: 2
#     Edge 109, Type (0, 0), BuildingBlock: CIFDUS_clean_linker_0, # of connection points: 2
#     Edge 110, Type (0, 0), BuildingBlock: CIFDUS_clean_linker_0, # of connection points: 2
#     Edge 111, Type (0, 0), BuildingBlock: CIFDUS_clean_linker_0, # of connection points: 2
#     Edge 112, Type (0, 0), BuildingBlock: CIFDUS_clean_linker_0, # of connection points: 2
#     Edge 113, Type (0, 0), BuildingBlock: CIFDUS_clean_linker_0, # of connection points: 2
#     Edge 114, Type (0, 0), BuildingBlock: CIFDUS_clean_linker_0, # of connection points: 2
#     Edge 115, Type (0, 0), BuildingBlock: CIFDUS_clean_linker_0, # of connection points: 2
#     Edge 116, Type (0, 0), BuildingBlock: CIFDUS_clean_linker_0, # of connection points: 2
#     Edge 117, Type (0, 0), BuildingBlock: CIFDUS_clean_linker_0, # of connection points: 2
#     Edge 118, Type (0, 0), BuildingBlock: CIFDUS_clean_linker_0, # of connection points: 2
#     Edge 119, Type (0, 0), BuildingBlock: CIFDUS_clean_linker_0, # of connection points: 2
# Relax obj value: 0.029
# Max RMSD: 0.037
# Mean RMSD: 0.017
data_MOF--net-lcv-f--node1-OLANEW_clean_sbu_2--edge1-CIFDUS_clean_linker_0
_symmetry_space_group_name_H-M    P1
_symmetry_Int_Tables_number       1
_symmetry_cell_setting            triclinic
loop_
_symmetry_equiv_pos_as_xyz
'x, y, z'
_cell_length_a     102.18627
_cell_length_b     100.25533
_cell_length_c     100.8049
_cell_angle_alpha  94.66666954
_cell_angle_beta   91.548273
_cell_angle_gamma 89.730039
loop_
_atom_site_label
_atom_site_type_symbol
_atom_site_fract_x
_atom_site_fract_y
_atom_site_fract_z
_atom_type_partial_charge
O0 O 0.1185 0.02144 0.12641 0.0
Cd1 Cd 0.09625 0.01864 0.13416 0.0
O2 O 0.11471 0.00706 0.10908 0.0
Cd3 Cd 0.09771 0.99847 0.11786 0.0
O4 O 0.0898 0.98264 0.12894 0.0
C5 C 0.0844 0.97244 0.12281 0.0
O6 O 0.08274 0.97207 0.10982 0.0
C7 C 0.12208 0.01576 0.11534 0.0
C8 C 0.08335 0.04326 0.13682 0.0
O9 O 0.08774 0.03783 0.14712 0.0
O10 O 0.08491 0.03705 0.12536 0.0
O11 O 0.23283 0.86066 0.38983 0.0
Cd12 Cd 0.24257 0.84218 0.40118 0.0
O13 O 0.24331 0.85619 0.37122 0.0
Cd14 Cd 0.25635 0.84216 0.38042 0.0
O15 O 0.27496 0.84022 0.39119 0.0
C16 C 0.27765 0.84972 0.39995 0.0
O17 O 0.26888 0.85917 0.40236 0.0
C18 C 0.23495 0.86313 0.37789 0.0
C19 C 0.23082 0.81756 0.39352 0.0
O20 O 0.22625 0.82536 0.40301 0.0
O21 O 0.2409 0.82145 0.38762 0.0
O22 O 0.43244 0.96689 0.67171 0.0
Cd23 Cd 0.45341 0.96693 0.68397 0.0
O24 O 0.4367 0.98767 0.66828 0.0
Cd25 Cd 0.43177 0.00792 0.66327 0.0
O26 O 0.42707 0.02922 0.66447 0.0
C27 C 0.434 0.03714 0.67221 0.0
O28 O 0.44396 0.03227 0.67879 0.0
C29 C 0.42898 0.97771 0.66685 0.0
C30 C 0.47385 0.95659 0.66853 0.0
O31 O 0.46739 0.94911 0.67571 0.0
O32 O 0.47059 0.96896 0.6686 0.0
O33 O 0.23819 0.2299 0.88836 0.0
Cd34 Cd 0.2435 0.24707 0.90631 0.0
O35 O 0.22359 0.24217 0.87845 0.0
Cd36 Cd 0.22399 0.25744 0.89517 0.0
O37 O 0.21941 0.26471 0.91552 0.0
C38 C 0.20742 0.26533 0.91859 0.0
O39 O 0.19845 0.26248 0.90921 0.0
C40 C 0.23015 0.23137 0.87873 0.0
C41 C 0.2703 0.25242 0.90772 0.0
O42 O 0.26253 0.25885 0.90032 0.0
O43 O 0.26537 0.2435 0.9145 0.0
O44 O 0.11107 0.85664 0.20245 0.0
Cd45 Cd 0.09656 0.83876 0.19309 0.0
O46 O 0.09749 0.87056 0.19353 0.0
Cd47 Cd 0.09199 0.89018 0.18701 0.0
O48 O 0.08964 0.90972 0.1791 0.0
C49 C 0.08409 0.91066 0.16778 0.0
O50 O 0.07953 0.89978 0.16112 0.0
C51 C 0.10794 0.86856 0.20025 0.0
C52 C 0.09903 0.81511 0.20573 0.0
O53 O 0.10619 0.8173 0.19589 0.0
O54 O 0.0908 0.82419 0.20967 0.0
O55 O 0.40763 0.90715 0.42966 0.0
Cd56 Cd 0.41946 0.88632 0.42418 0.0
O57 O 0.39151 0.89418 0.43434 0.0
Cd58 Cd 0.37108 0.88983 0.43816 0.0
O59 O 0.35041 0.88445 0.43619 0.0
C60 C 0.34729 0.87314 0.43037 0.0
O61 O 0.35663 0.86491 0.42618 0.0
C62 C 0.39599 0.90589 0.43351 0.0
C63 C 0.42652 0.87398 0.44708 0.0
O64 O 0.43473 0.8812 0.44148 0.0
O65 O 0.41501 0.87254 0.4418 0.0
O66 O 0.38799 0.15553 0.70734 0.0
Cd67 Cd 0.41184 0.15683 0.70618 0.0
O68 O 0.38918 0.13947 0.72095 0.0
Cd69 Cd 0.40979 0.13502 0.71776 0.0
O70 O 0.42221 0.11865 0.70991 0.0
C71 C 0.41735 0.11178 0.69982 0.0
O72 O 0.40612 0.1156 0.69469 0.0
C73 C 0.38238 0.14773 0.71473 0.0
C74 C 0.42288 0.17154 0.72838 0.0
O75 O 0.41951 0.17723 0.71788 0.0
O76 O 0.42105 0.1589 0.72837 0.0
O77 O 0.18298 0.21589 0.00877 0.0
Cd78 Cd 0.16741 0.23451 0.00858 0.0
O79 O 0.19678 0.22766 0.02207 0.0
Cd80 Cd 0.18808 0.24633 0.01642 0.0
O81 O 0.18948 0.25766 0.99894 0.0
C82 C 0.20088 0.26152 0.99628 0.0
O83 O 0.21055 0.25971 0.00482 0.0
C84 C 0.1933 0.2165 0.01614 0.0
C85 C 0.14221 0.22567 0.01316 0.0
O86 O 0.14552 0.22805 0.00141 0.0
O87 O 0.15069 0.22759 0.0227 0.0
O88 O 0.25326 0.15792 0.0376 0.0
Cd89 Cd 0.26873 0.13931 0.03752 0.0
O90 O 0.24935 0.15274 0.01633 0.0
Cd91 Cd 0.2413 0.15625 0.99653 0.0
O92 O 0.23519 0.15961 0.97611 0.0
C93 C 0.23876 0.15137 0.96664 0.0
O94 O 0.2459 0.14098 0.96944 0.0
C95 C 0.24717 0.16021 0.02686 0.0
C96 C 0.25689 0.11593 0.04436 0.0
O97 O 0.26238 0.12408 0.05326 0.0
O98 O 0.25701 0.11887 0.03223 0.0
O99 O 0.15917 0.93458 0.21963 0.0
Cd100 Cd 0.17194 0.95527 0.22304 0.0
O101 O 0.17558 0.92243 0.21165 0.0
Cd102 Cd 0.18734 0.94019 0.20947 0.0
O103 O 0.19332 0.95625 0.19757 0.0
C104 C 0.20452 0.95617 0.1924 0.0
O105 O 0.21294 0.94675 0.19509 0.0
C106 C 0.1638 0.92327 0.2154 0.0
C107 C 0.18485 0.9575 0.24791 0.0
O108 O 0.17316 0.96195 0.24644 0.0
O109 O 0.19045 0.95203 0.23761 0.0
O110 O 0.33874 0.96542 0.46639 0.0
Cd111 Cd 0.32684 0.98612 0.47262 0.0
O112 O 0.34452 0.97236 0.44724 0.0
Cd113 Cd 0.32911 0.9875 0.44648 0.0
O114 O 0.31171 0.99262 0.43475 0.0
C115 C 0.31318 0.99257 0.42226 0.0
O116 O 0.32496 0.99051 0.41757 0.0
C117 C 0.34551 0.96391 0.45597 0.0
C118 C 0.32694 0.99116 0.50031 0.0
O119 O 0.3371 0.99335 0.49366 0.0
O120 O 0.31664 0.9867 0.49393 0.0
O121 O 0.30212 0.12734 0.70325 0.0
Cd122 Cd 0.28027 0.11869 0.69721 0.0
O123 O 0.30591 0.1107 0.71577 0.0
Cd124 Cd 0.29036 0.09805 0.7064 0.0
O125 O 0.28733 0.08007 0.69293 0.0
C126 C 0.28961 0.08075 0.68067 0.0
O127 O 0.29244 0.09245 0.67649 0.0
C128 C 0.30932 0.12184 0.71174 0.0
C129 C 0.26351 0.12559 0.7181 0.0
O130 O 0.27032 0.11481 0.7178 0.0
O131 O 0.26445 0.13301 0.7084 0.0
O132 O 0.22051 0.94114 0.35563 0.0
Cd133 Cd 0.22222 0.96396 0.34901 0.0
O134 O 0.21369 0.94684 0.37583 0.0
Cd135 Cd 0.21948 0.96778 0.37584 0.0
O136 O 0.23406 0.98047 0.38694 0.0
C137 C 0.24551 0.98125 0.38244 0.0
O138 O 0.24786 0.97551 0.37055 0.0
C139 C 0.21621 0.93784 0.36662 0.0
C140 C 0.21044 0.9652 0.3238 0.0
O141 O 0.22256 0.9621 0.32514 0.0
O142 O 0.20396 0.96795 0.33439 0.0
O143 O 0.36032 0.99883 0.61706 0.0
Cd144 Cd 0.33832 0.99972 0.60683 0.0
O145 O 0.35256 0.98984 0.63441 0.0
Cd146 Cd 0.3325 0.99652 0.63074 0.0
O147 O 0.31772 0.01136 0.63713 0.0
C148 C 0.31193 0.01005 0.64795 0.0
O149 O 0.31418 0.99923 0.6542 0.0
C150 C 0.36228 0.99321 0.62782 0.0
C151 C 0.33842 0.99692 0.57903 0.0
O152 O 0.34046 0.98685 0.58586 0.0
O153 O 0.33636 0.00836 0.58524 0.0
O154 O 0.21661 0.16471 0.82124 0.0
Cd155 Cd 0.20819 0.14568 0.80685 0.0
O156 O 0.21958 0.15157 0.83742 0.0
Cd157 Cd 0.22375 0.14743 0.85813 0.0
O158 O 0.22874 0.1442 0.87884 0.0
C159 C 0.22576 0.15288 0.88817 0.0
O160 O 0.2196 0.16383 0.88518 0.0
C161 C 0.22023 0.16316 0.83318 0.0
C162 C 0.22412 0.13845 0.78539 0.0
O163 O 0.21518 0.14738 0.78456 0.0
O164 O 0.22559 0.13302 0.79642 0.0
O165 O 0.19151 0.02105 0.06576 0.0
Cd166 Cd 0.21394 0.02057 0.05797 0.0
O167 O 0.19949 0.01982 0.08602 0.0
Cd168 Cd 0.19799 0.01599 0.10699 0.0
O169 O 0.19583 0.00838 0.1265 0.0
C170 C 0.2054 0.00243 0.13181 0.0
O171 O 0.21652 0.00136 0.12556 0.0
C172 C 0.18963 0.02035 0.07809 0.0
C173 C 0.22289 0.04545 0.05174 0.0
O174 O 0.21714 0.03744 0.0429 0.0
O175 O 0.22426 0.04172 0.06357 0.0
O176 O 0.04372 0.18998 0.0495 0.0
Cd177 Cd 0.04311 0.19617 0.02652 0.0
O178 O 0.03084 0.17269 0.04456 0.0
Cd179 Cd 0.02313 0.18109 0.02666 0.0
O180 O 0.00615 0.19297 0.02123 0.0
C181 C 0.00188 0.20068 0.03079 0.0
O182 O 0.0083 0.20125 0.0423 0.0
C183 C 0.03842 0.17933 0.05282 0.0
C184 C 0.06743 0.206 0.02014 0.0
O185 O 0.06552 0.19343 0.02054 0.0
O186 O 0.05782 0.21401 0.02257 0.0
O187 O 0.50404 0.43626 0.91207 0.0
Cd188 Cd 0.49825 0.43224 0.93474 0.0
O189 O 0.49609 0.41634 0.90625 0.0
Cd190 Cd 0.49117 0.39874 0.89267 0.0
O191 O 0.48147 0.38141 0.88217 0.0
C192 C 0.48615 0.36967 0.88258 0.0
O193 O 0.4974 0.36807 0.88889 0.0
C194 C 0.50131 0.42706 0.90301 0.0
C195 C 0.52013 0.43062 0.95162 0.0
O196 O 0.51599 0.42034 0.94433 0.0
O197 O 0.51393 0.44169 0.95087 0.0
O198 O 0.9291 0.25363 0.13153 0.0
Cd199 Cd 0.93786 0.251 0.15403 0.0
O200 O 0.91469 0.23763 0.13308 0.0
Cd201 Cd 0.92495 0.22992 0.15019 0.0
O202 O 0.93975 0.21714 0.15885 0.0
C203 C 0.93795 0.20456 0.15756 0.0
O204 O 0.92693 0.19994 0.15198 0.0
C205 C 0.91921 0.24702 0.12677 0.0
C206 C 0.94105 0.2756 0.16879 0.0
O207 O 0.92972 0.27026 0.1669 0.0
O208 O 0.95093 0.26934 0.16373 0.0
O209 O 0.9676 0.7277 0.34082 0.0
Cd210 Cd 0.96257 0.74836 0.35433 0.0
O211 O 0.98847 0.73182 0.34465 0.0
Cd212 Cd 0.00945 0.72858 0.34157 0.0
O213 O 0.03035 0.7253 0.33831 0.0
C214 C 0.03876 0.73054 0.34666 0.0
O215 O 0.03467 0.73787 0.35715 0.0
C216 C 0.97948 0.72433 0.3392 0.0
C217 C 0.94904 0.74363 0.37713 0.0
O218 O 0.94291 0.74554 0.36619 0.0
O219 O 0.96158 0.74393 0.37727 0.0
O220 O 0.0291 0.14146 0.12809 0.0
Cd221 Cd 0.03055 0.13554 0.15113 0.0
O222 O 0.03946 0.16038 0.13346 0.0
Cd223 Cd 0.0334 0.16096 0.15409 0.0
O224 O 0.01705 0.17103 0.16427 0.0
C225 C 0.00568 0.16616 0.16195 0.0
O226 O 0.00454 0.15461 0.15485 0.0
C227 C 0.03493 0.15174 0.12459 0.0
C228 C 0.04292 0.11071 0.15151 0.0
O229 O 0.0305 0.11171 0.15279 0.0
O230 O 0.04947 0.12138 0.15034 0.0
O231 O 0.47961 0.8458 0.54695 0.0
Cd232 Cd 0.46494 0.83039 0.5339 0.0
O233 O 0.49459 0.8379 0.53329 0.0
Cd234 Cd 0.51483 0.83488 0.52737 0.0
O235 O 0.5338 0.82502 0.52516 0.0
C236 C 0.53772 0.81831 0.53467 0.0
O237 O 0.53045 0.8181 0.54521 0.0
C238 C 0.49137 0.8458 0.54317 0.0
C239 C 0.45755 0.84106 0.51017 0.0
O240 O 0.45007 0.84214 0.5202 0.0
O241 O 0.46844 0.83481 0.51131 0.0
O242 O 0.00135 0.65882 0.28539 0.0
Cd243 Cd 0.0118 0.64172 0.2705 0.0
O244 O 0.98546 0.66363 0.27138 0.0
Cd245 Cd 0.99516 0.65185 0.25533 0.0
O246 O 0.01391 0.65097 0.24546 0.0
C247 C 0.01763 0.66173 0.2409 0.0
O248 O 0.00946 0.67191 0.24111 0.0
C249 C 0.99096 0.66531 0.28287 0.0
C250 C 0.00246 0.61608 0.27354 0.0
O251 O 0.01228 0.62087 0.28052 0.0
O252 O 0.99705 0.62345 0.26513 0.0
O253 O 0.51473 0.43696 0.82062 0.0
Cd254 Cd 0.52122 0.43691 0.79746 0.0
O255 O 0.50937 0.41579 0.8168 0.0
Cd256 Cd 0.5035 0.39673 0.82404 0.0
O257 O 0.49915 0.3781 0.83286 0.0
C258 C 0.48747 0.37394 0.83345 0.0
O259 O 0.47784 0.38108 0.82876 0.0
C260 C 0.51022 0.4263 0.82473 0.0
C261 C 0.54727 0.44437 0.79503 0.0
O262 O 0.53806 0.4531 0.79528 0.0
O263 O 0.54416 0.43212 0.79602 0.0
O264 O 0.61799 0.68992 0.73065 0.0
Cd265 Cd 0.59562 0.69797 0.72746 0.0
O266 O 0.60963 0.67032 0.73371 0.0
Cd267 Cd 0.61188 0.64974 0.73929 0.0
O268 O 0.61677 0.63028 0.74645 0.0
C269 C 0.62314 0.62978 0.75741 0.0
O270 O 0.62661 0.64103 0.76416 0.0
C271 C 0.6196 0.67772 0.73284 0.0
C272 C 0.58988 0.70059 0.7006 0.0
O273 O 0.59387 0.71063 0.70831 0.0
O274 O 0.58853 0.68935 0.70562 0.0
O275 O 0.62155 0.4267 0.01117 0.0
Cd276 Cd 0.60364 0.41134 0.01431 0.0
O277 O 0.63469 0.40974 0.00641 0.0
Cd278 Cd 0.65391 0.40045 0.00323 0.0
O279 O 0.67413 0.39336 0.00257 0.0
C280 C 0.67746 0.38292 0.00819 0.0
O281 O 0.6685 0.37632 0.01406 0.0
C282 C 0.63285 0.42233 0.0081 0.0
C283 C 0.58305 0.41394 0.99603 0.0
O284 O 0.58386 0.42154 0.00688 0.0
O285 O 0.59202 0.40512 0.9938 0.0
O286 O 0.91929 0.38113 0.22794 0.0
Cd287 Cd 0.94087 0.37378 0.22028 0.0
O288 O 0.92196 0.40054 0.21966 0.0
Cd289 Cd 0.94325 0.39916 0.21899 0.0
O290 O 0.95854 0.41037 0.23056 0.0
C291 C 0.96197 0.40664 0.24189 0.0
O292 O 0.95736 0.39531 0.24551 0.0
C293 C 0.91464 0.39232 0.22492 0.0
C294 C 0.93898 0.34905 0.20551 0.0
O295 O 0.94341 0.34984 0.21756 0.0
O296 O 0.93559 0.35988 0.20042 0.0
O297 O 0.90346 0.69895 0.46959 0.0
Cd298 Cd 0.90732 0.72303 0.47011 0.0
O299 O 0.88621 0.6996 0.45616 0.0
Cd300 Cd 0.88432 0.72116 0.46061 0.0
O301 O 0.87534 0.73269 0.47728 0.0
C302 C 0.86293 0.73359 0.47725 0.0
O303 O 0.85624 0.72899 0.46654 0.0
C304 C 0.89456 0.69287 0.46243 0.0
C305 C 0.92087 0.72902 0.4477 0.0
O306 O 0.92699 0.72653 0.45849 0.0
O307 O 0.90832 0.72882 0.44757 0.0
O308 O 0.65548 0.49219 0.79453 0.0
Cd309 Cd 0.64253 0.48223 0.77554 0.0
O310 O 0.6469 0.51163 0.79083 0.0
Cd311 Cd 0.64489 0.53345 0.79268 0.0
O312 O 0.64082 0.5536 0.78671 0.0
C313 C 0.63586 0.55436 0.77509 0.0
O314 O 0.6335 0.54322 0.76762 0.0
C315 C 0.65463 0.50471 0.79761 0.0
C316 C 0.61704 0.47572 0.78187 0.0
O317 O 0.62637 0.46717 0.78244 0.0
O318 O 0.61981 0.4874 0.77844 0.0
O319 O 0.80365 0.3889 0.02843 0.0
Cd320 Cd 0.79526 0.37073 0.01291 0.0
O321 O 0.79056 0.38421 0.04438 0.0
Cd322 Cd 0.77809 0.37094 0.03141 0.0
O323 O 0.75856 0.36858 0.02229 0.0
C324 C 0.75506 0.37693 0.01404 0.0
O325 O 0.76366 0.38566 0.01066 0.0
C326 C 0.79993 0.39101 0.04036 0.0
C327 C 0.80615 0.34621 0.0187 0.0
O328 O 0.81193 0.35382 0.01109 0.0
O329 O 0.79518 0.35016 0.0235 0.0
O330 O 0.95526 0.52012 0.31081 0.0
Cd331 Cd 0.97334 0.51742 0.29544 0.0
O332 O 0.96047 0.50265 0.32172 0.0
Cd333 Cd 0.97471 0.4953 0.30705 0.0
O334 O 0.97896 0.48126 0.28995 0.0
C335 C 0.98051 0.46897 0.29189 0.0
O336 O 0.98059 0.46545 0.30417 0.0
C337 C 0.95326 0.51283 0.3203 0.0
C338 C 0.98375 0.54239 0.29128 0.0
O339 O 0.9743 0.53736 0.2839 0.0
O340 O 0.98837 0.53552 0.30052 0.0
O341 O 0.80227 0.69375 0.56825 0.0
Cd342 Cd 0.79998 0.70841 0.5502 0.0
O343 O 0.81233 0.70889 0.58187 0.0
Cd344 Cd 0.81474 0.72249 0.56616 0.0
O345 O 0.82324 0.7304 0.5487 0.0
C346 C 0.81644 0.73386 0.53879 0.0
O347 O 0.80362 0.73336 0.53914 0.0
C348 C 0.80728 0.6973 0.57967 0.0
C349 C 0.77444 0.71823 0.54848 0.0
O350 O 0.77789 0.70757 0.54155 0.0
O351 O 0.78309 0.72425 0.55621 0.0
O352 O 0.81403 0.65839 0.65499 0.0
Cd353 Cd 0.81673 0.64215 0.67165 0.0
O354 O 0.81829 0.64221 0.63978 0.0
Cd355 Cd 0.82317 0.63405 0.61969 0.0
O356 O 0.83052 0.62748 0.60007 0.0
C357 C 0.84194 0.63121 0.59736 0.0
O358 O 0.84864 0.63874 0.6064 0.0
C359 C 0.81554 0.65445 0.64283 0.0
C360 C 0.79308 0.63522 0.68238 0.0
O361 O 0.79998 0.64494 0.68781 0.0
O362 O 0.79734 0.62885 0.67182 0.0
O363 O 0.70208 0.52897 0.86663 0.0
Cd364 Cd 0.71668 0.53924 0.88418 0.0
O365 O 0.71844 0.53146 0.85346 0.0
Cd366 Cd 0.72615 0.53249 0.83359 0.0
O367 O 0.7287 0.54294 0.81571 0.0
C368 C 0.73575 0.5534 0.81666 0.0
O369 O 0.74194 0.55681 0.82802 0.0
C370 C 0.70676 0.52772 0.85505 0.0
C371 C 0.71377 0.52993 0.90925 0.0
O372 O 0.70708 0.53993 0.90564 0.0
O373 O 0.72165 0.52418 0.9009 0.0
O374 O 0.80594 0.45765 0.10213 0.0
Cd375 Cd 0.80931 0.47851 0.11605 0.0
O376 O 0.81842 0.4635 0.08618 0.0
Cd377 Cd 0.81541 0.48463 0.09234 0.0
O378 O 0.79979 0.49781 0.08597 0.0
C379 C 0.78977 0.50004 0.09302 0.0
O380 O 0.78965 0.49564 0.10494 0.0
C381 C 0.81194 0.45459 0.09141 0.0
C382 C 0.81166 0.47204 0.14238 0.0
O383 O 0.80094 0.47694 0.13799 0.0
O384 O 0.82128 0.47059 0.1345 0.0
O385 O 0.88575 0.49956 0.36965 0.0
Cd386 Cd 0.86393 0.49692 0.37843 0.0
O387 O 0.87999 0.5159 0.3574 0.0
Cd388 Cd 0.85911 0.5119 0.3589 0.0
O389 O 0.84339 0.50203 0.34673 0.0
C390 C 0.84118 0.48967 0.34757 0.0
O391 O 0.84751 0.48345 0.35678 0.0
C392 C 0.88884 0.50848 0.36203 0.0
C393 C 0.86008 0.51525 0.40032 0.0
O394 O 0.86576 0.504 0.40168 0.0
O395 O 0.8561 0.51779 0.38862 0.0
O396 O 0.69686 0.47658 0.00711 0.0
Cd397 Cd 0.71608 0.4907 0.00551 0.0
O398 O 0.68825 0.48952 0.0233 0.0
Cd399 Cd 0.70599 0.50156 0.02654 0.0
O400 O 0.72533 0.50688 0.03511 0.0
C401 C 0.72644 0.50942 0.04765 0.0
O402 O 0.71584 0.50954 0.05476 0.0
C403 C 0.68749 0.47932 0.01493 0.0
C404 C 0.71767 0.49869 0.97973 0.0
O405 O 0.72356 0.48812 0.9831 0.0
O406 O 0.71116 0.50555 0.98859 0.0
O407 O 0.84238 0.43892 0.24004 0.0
Cd408 Cd 0.82018 0.44751 0.2431 0.0
O409 O 0.83895 0.42012 0.24917 0.0
Cd410 Cd 0.82262 0.42935 0.2601 0.0
O411 O 0.81847 0.44163 0.27843 0.0
C412 C 0.81947 0.43615 0.28935 0.0
O413 O 0.82165 0.4232 0.28896 0.0
C414 C 0.84614 0.42723 0.24245 0.0
C415 C 0.81273 0.45668 0.21865 0.0
O416 O 0.81228 0.44423 0.22057 0.0
O417 O 0.81615 0.46499 0.22845 0.0
O418 O 0.85506 0.6163 0.46709 0.0
Cd419 Cd 0.84482 0.59644 0.47475 0.0
O420 O 0.87182 0.61634 0.48123 0.0
Cd421 Cd 0.86278 0.60228 0.49363 0.0
O422 O 0.85493 0.60138 0.51349 0.0
C423 C 0.86125 0.60824 0.52268 0.0
O424 O 0.87194 0.61441 0.51961 0.0
C425 C 0.866 0.62113 0.47137 0.0
C426 C 0.8456 0.57568 0.4546 0.0
O427 O 0.83628 0.58429 0.45499 0.0
O428 O 0.85445 0.57674 0.46387 0.0
O429 O 0.6886 0.62449 0.73287 0.0
Cd430 Cd 0.7085 0.61162 0.73719 0.0
O431 O 0.69302 0.64094 0.74811 0.0
Cd432 Cd 0.70966 0.62996 0.75567 0.0
O433 O 0.71961 0.61384 0.76517 0.0
C434 C 0.72907 0.61586 0.77351 0.0
O435 O 0.73353 0.62808 0.77616 0.0
C436 C 0.68561 0.63576 0.73876 0.0
C437 C 0.73041 0.62067 0.72461 0.0
O438 O 0.72298 0.61159 0.71881 0.0
O439 O 0.72743 0.62551 0.73629 0.0
O440 O 0.6582 0.74026 0.54325 0.0
Cd441 Cd 0.67533 0.74987 0.53052 0.0
O442 O 0.64444 0.75114 0.53099 0.0
Cd443 Cd 0.62478 0.75862 0.52684 0.0
O444 O 0.60647 0.76988 0.52726 0.0
C445 C 0.6033 0.77729 0.51804 0.0
O446 O 0.61102 0.7778 0.50788 0.0
C447 C 0.6465 0.74336 0.54017 0.0
C448 C 0.69998 0.73843 0.534 0.0
O449 O 0.69636 0.74869 0.54144 0.0
O450 O 0.69186 0.73347 0.52503 0.0
O451 O 0.18462 0.71726 0.33948 0.0
Cd452 Cd 0.19781 0.71847 0.36011 0.0
O453 O 0.1672 0.72302 0.35083 0.0
Cd454 Cd 0.14614 0.72628 0.3533 0.0
O455 O 0.12518 0.72995 0.35555 0.0
C456 C 0.1169 0.72524 0.34677 0.0
O457 O 0.12111 0.71808 0.33623 0.0
C458 C 0.17244 0.71985 0.3397 0.0
C459 C 0.20829 0.74391 0.36637 0.0
O460 O 0.21437 0.73511 0.3589 0.0
O461 O 0.19722 0.74068 0.37086 0.0
O462 O 0.53637 0.90661 0.58647 0.0
Cd463 Cd 0.54824 0.92398 0.60015 0.0
O464 O 0.54109 0.89334 0.60219 0.0
Cd465 Cd 0.54127 0.87354 0.60979 0.0
O466 O 0.54448 0.85245 0.61277 0.0
C467 C 0.55586 0.84762 0.61084 0.0
O468 O 0.56519 0.85556 0.60746 0.0
C469 C 0.53533 0.8953 0.59118 0.0
C470 C 0.53065 0.93643 0.61784 0.0
O471 O 0.53308 0.9414 0.60685 0.0
O472 O 0.53681 0.9258 0.62061 0.0
O473 O 0.38496 0.26825 0.89083 0.0
Cd474 Cd 0.37125 0.28212 0.90598 0.0
O475 O 0.39577 0.28642 0.88736 0.0
Cd476 Cd 0.41232 0.29722 0.87988 0.0
O477 O 0.42907 0.3095 0.87552 0.0
C478 C 0.42786 0.31857 0.86746 0.0
O479 O 0.4165 0.32014 0.86136 0.0
C480 C 0.39414 0.27386 0.88511 0.0
C481 C 0.3447 0.27572 0.9036 0.0
O482 O 0.34966 0.28441 0.89656 0.0
O483 O 0.35234 0.26996 0.91167 0.0
O484 O 0.5884 0.70597 0.58382 0.0
Cd485 Cd 0.56955 0.69785 0.59518 0.0
O486 O 0.58755 0.72404 0.59754 0.0
Cd487 Cd 0.59257 0.74485 0.60351 0.0
O488 O 0.59109 0.76662 0.60609 0.0
C489 C 0.57993 0.7716 0.60881 0.0
O490 O 0.57011 0.76348 0.6103 0.0
C491 C 0.59288 0.71744 0.58782 0.0
C492 C 0.57494 0.69549 0.62216 0.0
O493 O 0.57616 0.68545 0.61357 0.0
O494 O 0.57118 0.70666 0.61798 0.0
O495 O 0.86669 0.25335 0.05668 0.0
Cd496 Cd 0.85722 0.25453 0.03427 0.0
O497 O 0.88626 0.25288 0.04828 0.0
Cd498 Cd 0.90743 0.2495 0.04886 0.0
O499 O 0.92795 0.24332 0.04899 0.0
C500 C 0.93287 0.23768 0.03851 0.0
O501 O 0.92551 0.2359 0.02763 0.0
C502 C 0.87904 0.25263 0.05834 0.0
C503 C 0.84684 0.27957 0.02973 0.0
O504 O 0.83989 0.2707 0.03471 0.0
O505 O 0.85875 0.27663 0.02703 0.0
O506 O 0.44655 0.22956 0.833 0.0
Cd507 Cd 0.46373 0.2179 0.8202 0.0
O508 O 0.45642 0.24855 0.83056 0.0
Cd509 Cd 0.45873 0.27027 0.83437 0.0
O510 O 0.45886 0.29214 0.83581 0.0
C511 C 0.46757 0.2988 0.84268 0.0
O512 O 0.47654 0.29237 0.84927 0.0
C513 C 0.44691 0.24224 0.83497 0.0
C514 C 0.45338 0.20316 0.7977 0.0
O515 O 0.45505 0.19784 0.80876 0.0
O516 O 0.45664 0.21545 0.79727 0.0
O517 O 0.11138 0.72745 0.27713 0.0
Cd518 Cd 0.09589 0.72599 0.25819 0.0
O519 O 0.12499 0.71228 0.26844 0.0
Cd520 Cd 0.11169 0.70754 0.25142 0.0
O521 O 0.0932 0.7015 0.24143 0.0
C522 C 0.08988 0.68926 0.24075 0.0
O523 O 0.09815 0.68047 0.24517 0.0
C524 C 0.12199 0.72084 0.2779 0.0
C525 C 0.09447 0.75014 0.24633 0.0
O526 O 0.08684 0.74773 0.25573 0.0
O527 O 0.10273 0.74107 0.24249 0.0
H528 H 0.09017 0.96864 0.14875 0.0
H529 H 0.07254 0.94923 0.11288 0.0
H530 H 0.07016 0.92862 0.12392 0.0
H531 H 0.07448 0.91567 0.14322 0.0
H532 H 0.09268 0.93495 0.17887 0.0
H533 H 0.09338 0.95604 0.16844 0.0
C534 C 0.08567 0.95996 0.14338 0.0
C535 C 0.08162 0.96048 0.12997 0.0
C536 C 0.08452 0.94807 0.14971 0.0
C537 C 0.07581 0.94911 0.12318 0.0
C538 C 0.07446 0.9373 0.12948 0.0
C539 C 0.07851 0.9245 0.14876 0.0
C540 C 0.0836 0.92367 0.16178 0.0
C541 C 0.07902 0.93659 0.14266 0.0
C542 C 0.08875 0.93525 0.16881 0.0
C543 C 0.08916 0.94734 0.16285 0.0
H544 H 0.28668 0.86978 0.41748 0.0
H545 H 0.29855 0.83274 0.39625 0.0
H546 H 0.32104 0.83631 0.40459 0.0
H547 H 0.33758 0.85075 0.41653 0.0
H548 H 0.32571 0.88806 0.43725 0.0
H549 H 0.30295 0.88351 0.43052 0.0
C550 C 0.29414 0.8624 0.41476 0.0
C551 C 0.29094 0.85107 0.40615 0.0
C552 C 0.30708 0.8646 0.41943 0.0
C553 C 0.30074 0.84159 0.40281 0.0
C554 C 0.31362 0.84364 0.40755 0.0
C555 C 0.33001 0.85784 0.41968 0.0
C556 C 0.33338 0.86978 0.42729 0.0
C557 C 0.31694 0.85524 0.41565 0.0
C558 C 0.32342 0.87882 0.43132 0.0
C559 C 0.31039 0.87624 0.42747 0.0
H560 H 0.40829 0.09439 0.67967 0.0
H561 H 0.43976 0.10012 0.709 0.0
H562 H 0.4482 0.07778 0.70238 0.0
H563 H 0.4457 0.05608 0.68939 0.0
H564 H 0.41385 0.05027 0.66049 0.0
H565 H 0.40654 0.07324 0.66581 0.0
C566 C 0.41707 0.09083 0.68455 0.0
C567 C 0.42332 0.09889 0.69489 0.0
C568 C 0.42175 0.07792 0.68083 0.0
C569 C 0.43472 0.09411 0.70104 0.0
C570 C 0.43954 0.08132 0.69729 0.0
C571 C 0.43723 0.05986 0.68417 0.0
C572 C 0.43028 0.05141 0.67463 0.0
C573 C 0.43298 0.07305 0.68737 0.0
C574 C 0.41934 0.05651 0.66793 0.0
C575 C 0.41514 0.06965 0.67097 0.0
H576 H 0.18375 0.26338 0.97531 0.0
H577 H 0.22445 0.26879 0.98705 0.0
H578 H 0.22989 0.27184 0.96409 0.0
H579 H 0.22352 0.2704 0.94038 0.0
H580 H 0.18289 0.26451 0.92857 0.0
H581 H 0.17703 0.26436 0.95185 0.0
C582 C 0.19378 0.26544 0.9729 0.0
C583 C 0.20369 0.26566 0.98287 0.0
C584 C 0.1969 0.26697 0.95962 0.0
C585 C 0.21662 0.26844 0.97956 0.0
C586 C 0.21977 0.27015 0.96641 0.0
C587 C 0.21336 0.26926 0.94289 0.0
C588 C 0.2037 0.26726 0.93272 0.0
C589 C 0.21005 0.26902 0.9563 0.0
C590 C 0.19056 0.26595 0.93618 0.0
C591 C 0.18718 0.26583 0.94951 0.0
H592 H 0.24464 0.13551 0.94441 0.0
H593 H 0.22466 0.17212 0.95738 0.0
H594 H 0.21891 0.17581 0.93429 0.0
H595 H 0.21964 0.16872 0.91041 0.0
H596 H 0.23954 0.13203 0.89752 0.0
H597 H 0.24523 0.12834 0.9206 0.0
C598 C 0.23902 0.1443 0.94221 0.0
C599 C 0.23511 0.15352 0.95264 0.0
C600 C 0.23574 0.14636 0.92891 0.0
C601 C 0.22781 0.16484 0.94957 0.0
C602 C 0.22452 0.16698 0.93636 0.0
C603 C 0.22523 0.15991 0.91263 0.0
C604 C 0.22916 0.15068 0.90222 0.0
C605 C 0.22845 0.15782 0.92595 0.0
C606 C 0.23637 0.13931 0.90532 0.0
C607 C 0.23964 0.13718 0.91852 0.0
H608 H 0.18807 0.97444 0.18227 0.0
H609 H 0.22743 0.95879 0.17947 0.0
H610 H 0.23143 0.97241 0.16099 0.0
H611 H 0.22326 0.98753 0.14465 0.0
H612 H 0.1837 0.00267 0.1471 0.0
H613 H 0.18032 0.99051 0.16674 0.0
C614 C 0.19758 0.9741 0.17773 0.0
C615 C 0.2074 0.96552 0.18221 0.0
C616 C 0.19976 0.9818 0.16697 0.0
C617 C 0.21966 0.96525 0.17619 0.0
C618 C 0.22196 0.97302 0.1656 0.0
C619 C 0.21393 0.98826 0.14953 0.0
C620 C 0.20373 0.99592 0.14433 0.0
C621 C 0.21199 0.98113 0.16074 0.0
C622 C 0.19171 0.99679 0.15083 0.0
C623 C 0.18976 0.98984 0.16207 0.0
H624 H 0.27082 0.98469 0.37586 0.0
H625 H 0.24489 0.98935 0.40902 0.0
H626 H 0.26351 0.99448 0.42423 0.0
H627 H 0.28736 0.99533 0.42839 0.0
H628 H 0.31319 0.99045 0.39513 0.0
H629 H 0.29442 0.98784 0.37974 0.0
C630 C 0.26921 0.987 0.38638 0.0
C631 C 0.25648 0.98645 0.39129 0.0
C632 C 0.27997 0.9898 0.39511 0.0
C633 C 0.25458 0.98962 0.40495 0.0
C634 C 0.26524 0.99251 0.41369 0.0
C635 C 0.28889 0.99387 0.41777 0.0
C636 C 0.30169 0.9929 0.41297 0.0
C637 C 0.27802 0.99226 0.40892 0.0
C638 C 0.30346 0.99113 0.39915 0.0
C639 C 0.29272 0.9896 0.39031 0.0
H640 H 0.28733 0.05492 0.6869 0.0
H641 H 0.2959 0.07874 0.65442 0.0
H642 H 0.30221 0.05863 0.64081 0.0
H643 H 0.30768 0.0347 0.63904 0.0
H644 H 0.29969 0.01098 0.67177 0.0
H645 H 0.29064 0.03059 0.68425 0.0
C646 C 0.29038 0.05571 0.67678 0.0
C647 C 0.29131 0.06836 0.67178 0.0
C648 C 0.29422 0.04412 0.66906 0.0
C649 C 0.2952 0.06916 0.65859 0.0
C650 C 0.29885 0.05765 0.65079 0.0
C651 C 0.30379 0.03376 0.64882 0.0
C652 C 0.30455 0.02141 0.65452 0.0
C653 C 0.29878 0.04514 0.65606 0.0
C654 C 0.29935 0.02038 0.66717 0.0
C655 C 0.29419 0.03161 0.67435 0.0
H656 H 0.99004 0.21677 0.04984 0.0
H657 H 0.98537 0.20081 0.00891 0.0
H658 H 0.96382 0.21138 0.00751 0.0
H659 H 0.94586 0.22418 0.01829 0.0
H660 H 0.95055 0.23971 0.05937 0.0
H661 H 0.97256 0.23027 0.06029 0.0
C662 C 0.98437 0.21566 0.04057 0.0
C663 C 0.9893 0.20794 0.02952 0.0
C664 C 0.97195 0.22163 0.03988 0.0
C665 C 0.98181 0.20667 0.01758 0.0
C666 C 0.96946 0.21268 0.01678 0.0
C667 C 0.95171 0.22557 0.02743 0.0
C668 C 0.9465 0.23258 0.03877 0.0
C669 C 0.96436 0.22003 0.02793 0.0
C670 C 0.95427 0.23431 0.05051 0.0
C671 C 0.96687 0.22892 0.05105 0.0
H672 H 0.4636 0.36938 0.86759 0.0
H673 H 0.49047 0.34349 0.88712 0.0
H674 H 0.47526 0.32484 0.88286 0.0
H675 H 0.45323 0.31669 0.87611 0.0
H676 H 0.42638 0.34261 0.85657 0.0
H677 H 0.44274 0.36036 0.85821 0.0
C678 C 0.46619 0.35963 0.87081 0.0
C679 C 0.47801 0.35793 0.87795 0.0
C680 C 0.45733 0.34898 0.86848 0.0
C681 C 0.48136 0.34514 0.88176 0.0
C682 C 0.47263 0.33447 0.87939 0.0
C683 C 0.45099 0.32618 0.8721 0.0
C684 C 0.43849 0.32842 0.86651 0.0
C685 C 0.46041 0.3364 0.87317 0.0
C686 C 0.43587 0.34066 0.86107 0.0
C687 C 0.4452 0.35086 0.86206 0.0
H688 H 0.96226 0.21072 0.1681 0.0
H689 H 0.93798 0.17733 0.15336 0.0
H690 H 0.95659 0.16219 0.15489 0.0
H691 H 0.98021 0.15882 0.15802 0.0
H692 H 0.00465 0.19221 0.17241 0.0
H693 H 0.9855 0.20686 0.1736 0.0
C694 C 0.96099 0.20011 0.16539 0.0
C695 C 0.94877 0.19523 0.16043 0.0
C696 C 0.97179 0.19144 0.16616 0.0
C697 C 0.94728 0.18141 0.1571 0.0
C698 C 0.95794 0.17272 0.15794 0.0
C699 C 0.98134 0.16926 0.16161 0.0
C700 C 0.99389 0.17443 0.16493 0.0
C701 C 0.97032 0.17769 0.16209 0.0
C702 C 0.99513 0.18796 0.1697 0.0
C703 C 0.98418 0.19638 0.17033 0.0
H704 H 0.09673 0.71605 0.33034 0.0
H705 H 0.10513 0.73986 0.3672 0.0
H706 H 0.08178 0.74364 0.37033 0.0
H707 H 0.05898 0.74007 0.36276 0.0
H708 H 0.05049 0.71617 0.32598 0.0
H709 H 0.07387 0.71256 0.3227 0.0
C710 C 0.09347 0.72208 0.33906 0.0
C711 C 0.1027 0.72764 0.34852 0.0
C712 C 0.08 0.7242 0.34083 0.0
C713 C 0.09827 0.73544 0.35975 0.0
C714 C 0.0849 0.73761 0.36156 0.0
C715 C 0.06222 0.73408 0.35401 0.0
C716 C 0.05296 0.7284 0.34464 0.0
C717 C 0.07568 0.73202 0.35219 0.0
C718 C 0.05738 0.72066 0.33337 0.0
C719 C 0.07076 0.71859 0.33147 0.0
H720 H 0.5869 0.78047 0.53884 0.0
H721 H 0.59277 0.79289 0.49942 0.0
H722 H 0.57315 0.80686 0.50116 0.0
H723 H 0.55426 0.81548 0.51385 0.0
H724 H 0.54858 0.80308 0.55332 0.0
H725 H 0.56824 0.78925 0.55158 0.0
C726 C 0.58389 0.78621 0.5306 0.0
C727 C 0.59129 0.7856 0.519 0.0
C728 C 0.57264 0.79427 0.53169 0.0
C729 C 0.58726 0.79316 0.50847 0.0
C730 C 0.57604 0.80116 0.50945 0.0
C731 C 0.55734 0.80979 0.52209 0.0
C732 C 0.54993 0.81032 0.53369 0.0
C733 C 0.56866 0.8018 0.52102 0.0
C734 C 0.55407 0.80286 0.54427 0.0
C735 C 0.56532 0.79492 0.54328 0.0
H736 H 0.02892 0.68415 0.23304 0.0
H737 H 0.03774 0.64373 0.24229 0.0
H738 H 0.06113 0.6483 0.24143 0.0
H739 H 0.07895 0.66457 0.24089 0.0
H740 H 0.07001 0.70523 0.23251 0.0
H741 H 0.04681 0.6997 0.23006 0.0
C742 C 0.03594 0.67626 0.23466 0.0
C743 C 0.03157 0.66368 0.23793 0.0
C744 C 0.04937 0.67904 0.23444 0.0
C745 C 0.04082 0.65354 0.23986 0.0
C746 C 0.05421 0.65616 0.23943 0.0
C747 C 0.07197 0.67218 0.23832 0.0
C748 C 0.07621 0.68535 0.23709 0.0
C749 C 0.05859 0.66901 0.23717 0.0
C750 C 0.06702 0.69504 0.23364 0.0
C751 C 0.05373 0.69191 0.23227 0.0
H752 H 0.48775 0.31518 0.85126 0.0
H753 H 0.44917 0.31544 0.83275 0.0
H754 H 0.45147 0.33914 0.82939 0.0
H755 H 0.46517 0.35923 0.82991 0.0
H756 H 0.50409 0.3587 0.8476 0.0
H757 H 0.50084 0.33573 0.85323 0.0
C758 C 0.47979 0.32044 0.8466 0.0
C759 C 0.46839 0.31348 0.84207 0.0
C760 C 0.48128 0.33401 0.84445 0.0
C761 C 0.45814 0.32049 0.83614 0.0
C762 C 0.45945 0.33405 0.8342 0.0
C763 C 0.4729 0.35414 0.83511 0.0
C764 C 0.48492 0.36061 0.83815 0.0
C765 C 0.47109 0.34083 0.83803 0.0
C766 C 0.49481 0.35388 0.84496 0.0
C767 C 0.49296 0.34074 0.84818 0.0
H768 H 0.619 0.6049 0.74515 0.0
H769 H 0.63483 0.62534 0.78137 0.0
H770 H 0.64014 0.60388 0.79006 0.0
H771 H 0.64021 0.57926 0.78744 0.0
H772 H 0.62452 0.55894 0.75109 0.0
H773 H 0.61926 0.58039 0.74244 0.0
C774 C 0.62361 0.60468 0.75495 0.0
C775 C 0.62648 0.61673 0.76259 0.0
C776 C 0.62667 0.59231 0.75989 0.0
C777 C 0.6325 0.61623 0.77525 0.0
C778 C 0.63554 0.60395 0.78025 0.0
C779 C 0.63564 0.57952 0.77763 0.0
C780 C 0.63275 0.56748 0.76996 0.0
C781 C 0.63265 0.59192 0.77267 0.0
C782 C 0.62685 0.56803 0.75724 0.0
C783 C 0.62383 0.5803 0.75227 0.0
H784 H 0.73438 0.3625 0.02157 0.0
H785 H 0.74438 0.39425 0.9972 0.0
H786 H 0.72122 0.39832 0.99255 0.0
H787 H 0.69816 0.39411 0.99682 0.0
H788 H 0.68812 0.36262 0.02147 0.0
H789 H 0.71126 0.35719 0.02451 0.0
C790 C 0.73151 0.37021 0.0151 0.0
C791 C 0.74112 0.37814 0.00985 0.0
C792 C 0.71816 0.37263 0.0126 0.0
C793 C 0.7372 0.38804 0.00145 0.0
C794 C 0.72395 0.39041 0.99881 0.0
C795 C 0.70101 0.38599 0.00278 0.0
C796 C 0.69141 0.37888 0.00902 0.0
C797 C 0.71434 0.38297 0.00457 0.0
C798 C 0.69529 0.36831 0.01661 0.0
C799 C 0.70854 0.3652 0.01837 0.0
H800 H 0.96855 0.43259 0.23925 0.0
H801 H 0.97051 0.40198 0.267 0.0
H802 H 0.97799 0.41847 0.28468 0.0
H803 H 0.98132 0.44195 0.29285 0.0
H804 H 0.97849 0.47271 0.26532 0.0
H805 H 0.97417 0.45576 0.24696 0.0
C806 C 0.97084 0.42946 0.2491 0.0
C807 C 0.96879 0.41609 0.25182 0.0
C808 C 0.97486 0.43906 0.25931 0.0
C809 C 0.97187 0.41222 0.26464 0.0
C810 C 0.97612 0.42166 0.27478 0.0
C811 C 0.97995 0.44495 0.28281 0.0
C812 C 0.98004 0.45861 0.28052 0.0
C813 C 0.97722 0.43518 0.27233 0.0
C814 C 0.97836 0.46229 0.26741 0.0
C815 C 0.97585 0.4526 0.25689 0.0
H816 H 0.83669 0.73601 0.48067 0.0
H817 H 0.87381 0.73895 0.50219 0.0
H818 H 0.86254 0.7406 0.52328 0.0
H819 H 0.84232 0.7385 0.53555 0.0
H820 H 0.8052 0.73537 0.51406 0.0
H821 H 0.8163 0.73662 0.49306 0.0
C822 C 0.84232 0.73723 0.48997 0.0
C823 C 0.85609 0.73714 0.48983 0.0
C824 C 0.83578 0.73799 0.50208 0.0
C825 C 0.86321 0.73889 0.50197 0.0
C826 C 0.85677 0.73976 0.51406 0.0
C827 C 0.83664 0.73826 0.52629 0.0
C828 C 0.82297 0.73662 0.52637 0.0
C829 C 0.84309 0.73889 0.51423 0.0
C830 C 0.81574 0.73653 0.51429 0.0
C831 C 0.82208 0.7372 0.50226 0.0
H832 H 0.83101 0.61538 0.57669 0.0
H833 H 0.8656 0.63846 0.58844 0.0
H834 H 0.87479 0.63286 0.56664 0.0
H835 H 0.87279 0.62209 0.54404 0.0
H836 H 0.83827 0.59906 0.532 0.0
H837 H 0.82935 0.60388 0.55416 0.0
C838 C 0.84058 0.61916 0.57449 0.0
C839 C 0.84756 0.6274 0.58419 0.0
C840 C 0.84584 0.6159 0.56189 0.0
C841 C 0.85997 0.63214 0.58118 0.0
C842 C 0.86526 0.62894 0.5687 0.0
C843 C 0.86334 0.61804 0.54626 0.0
C844 C 0.85619 0.61027 0.53634 0.0
C845 C 0.85824 0.62093 0.55895 0.0
C846 C 0.84399 0.60508 0.53944 0.0
C847 C 0.83886 0.60787 0.5521 0.0
H848 H 0.72188 0.58971 0.77029 0.0
H849 H 0.74674 0.61724 0.79445 0.0
H850 H 0.75211 0.59977 0.80923 0.0
H851 H 0.74795 0.57744 0.81654 0.0
H852 H 0.72259 0.55017 0.79265 0.0
H853 H 0.71935 0.56675 0.77645 0.0
C854 C 0.7286 0.59187 0.7787 0.0
C855 C 0.73375 0.60483 0.78136 0.0
C856 C 0.73149 0.58184 0.78726 0.0
C857 C 0.74255 0.60739 0.79222 0.0
C858 C 0.7456 0.5974 0.80071 0.0
C859 C 0.74185 0.57504 0.8077 0.0
C860 C 0.73538 0.56264 0.80592 0.0
C861 C 0.73985 0.58471 0.79852 0.0
C862 C 0.7276 0.55967 0.79435 0.0
C863 C 0.72571 0.56917 0.78508 0.0
H864 H 0.73207 0.51189 0.07426 0.0
H865 H 0.75032 0.50908 0.03599 0.0
H866 H 0.77184 0.50765 0.04691 0.0
H867 H 0.78517 0.50471 0.06706 0.0
H868 H 0.76678 0.50647 0.10523 0.0
H869 H 0.74566 0.51101 0.09459 0.0
C870 C 0.74076 0.51115 0.06829 0.0
C871 C 0.73955 0.51042 0.05431 0.0
C872 C 0.75309 0.51007 0.07461 0.0
C873 C 0.75094 0.50954 0.04677 0.0
C874 C 0.76326 0.5087 0.053 0.0
C875 C 0.7766 0.50631 0.0731 0.0
C876 C 0.77755 0.50509 0.08692 0.0
C877 C 0.76442 0.50858 0.06689 0.0
C878 C 0.76632 0.50724 0.09457 0.0
C879 C 0.75422 0.5098 0.08849 0.0
H880 H 0.83554 0.46308 0.34579 0.0
H881 H 0.82999 0.49878 0.32503 0.0
H882 H 0.82121 0.48538 0.30556 0.0
H883 H 0.81778 0.46333 0.29348 0.0
H884 H 0.82384 0.42763 0.31413 0.0
H885 H 0.82957 0.44125 0.33458 0.0
C886 C 0.83222 0.46797 0.33709 0.0
C887 C 0.83364 0.4819 0.33682 0.0
C888 C 0.82737 0.46019 0.32583 0.0
C889 C 0.82913 0.48806 0.3255 0.0
C890 C 0.82414 0.4804 0.31432 0.0
C891 C 0.82014 0.45852 0.3025 0.0
C892 C 0.82059 0.44446 0.30218 0.0
C893 C 0.82363 0.46641 0.31421 0.0
C894 C 0.82354 0.43842 0.31402 0.0
C895 C 0.82686 0.44621 0.32574 0.0
H896 H 0.55732 0.78507 0.61431 0.0
H897 H 0.59774 0.79111 0.60495 0.0
H898 H 0.59392 0.81519 0.60514 0.0
H899 H 0.57896 0.83442 0.60726 0.0
H900 H 0.53851 0.82832 0.61648 0.0
H901 H 0.54253 0.80436 0.61708 0.0
C902 C 0.56532 0.79164 0.61236 0.0
C903 C 0.57778 0.78626 0.60957 0.0
C904 C 0.56305 0.80547 0.61243 0.0
C905 C 0.58804 0.79496 0.60711 0.0
C906 C 0.58586 0.80874 0.6072 0.0
C907 C 0.57102 0.82787 0.60945 0.0
C908 C 0.55844 0.83317 0.61177 0.0
C909 C 0.57338 0.81408 0.60974 0.0
C910 C 0.54829 0.82452 0.61463 0.0
C911 C 0.55057 0.81081 0.61497 0.0
H912 H 0.17997 0.03059 0.1017 0.0
H913 H 0.16902 0.00789 0.06493 0.0
H914 H 0.14698 0.00487 0.07302 0.0
H915 H 0.13119 0.00781 0.09088 0.0
H916 H 0.14204 0.03051 0.12774 0.0
H917 H 0.16381 0.03426 0.11934 0.0
C918 C 0.17281 0.02481 0.09556 0.0
C919 C 0.17619 0.01918 0.08289 0.0
C920 C 0.16016 0.02311 0.10029 0.0
C921 C 0.16665 0.01224 0.07477 0.0
C922 C 0.15408 0.01048 0.0794 0.0
C923 C 0.13828 0.01362 0.09708 0.0
C924 C 0.13499 0.01879 0.10996 0.0
C925 C 0.15077 0.01574 0.0922 0.0
C926 C 0.1443 0.0264 0.11779 0.0
C927 C 0.15677 0.02853 0.11301 0.0
H928 H 0.21966 0.88212 0.39067 0.0
H929 H 0.23733 0.87135 0.35285 0.0
H930 H 0.23143 0.89315 0.34532 0.0
H931 H 0.22401 0.91622 0.3506 0.0
H932 H 0.20725 0.92728 0.38882 0.0
H933 H 0.2099 0.90437 0.39495 0.0
C934 C 0.22201 0.88442 0.38068 0.0
C935 C 0.22911 0.87516 0.37243 0.0
C936 C 0.21888 0.89711 0.37652 0.0
C937 C 0.23198 0.87832 0.35948 0.0
C938 C 0.22866 0.89082 0.35517 0.0
C939 C 0.22071 0.91359 0.36018 0.0
C940 C 0.21563 0.92354 0.36931 0.0
C941 C 0.22253 0.90045 0.36378 0.0
C942 C 0.21133 0.91988 0.38165 0.0
C943 C 0.21287 0.90678 0.38519 0.0
H944 H 0.3698 0.9777 0.64755 0.0
H945 H 0.38509 0.00389 0.6198 0.0
H946 H 0.40712 0.00137 0.62936 0.0
H947 H 0.42199 0.99204 0.64595 0.0
H948 H 0.40665 0.96551 0.67329 0.0
H949 H 0.38471 0.96771 0.66343 0.0
C950 C 0.37795 0.98284 0.64355 0.0
C951 C 0.37577 0.99104 0.63302 0.0
C952 C 0.39058 0.9813 0.64905 0.0
C953 C 0.38648 0.99751 0.62789 0.0
C954 C 0.39908 0.99611 0.63338 0.0
C955 C 0.4138 0.9869 0.64984 0.0
C956 C 0.41586 0.97885 0.66051 0.0
C957 C 0.40123 0.98813 0.64405 0.0
C958 C 0.40528 0.97182 0.66513 0.0
C959 C 0.39274 0.97309 0.65952 0.0
H960 H 0.21137 0.18859 0.83283 0.0
H961 H 0.23888 0.16412 0.85322 0.0
H962 H 0.24457 0.18315 0.86896 0.0
H963 H 0.24121 0.20656 0.87732 0.0
H964 H 0.21387 0.23115 0.85673 0.0
H965 H 0.20885 0.21234 0.84051 0.0
C966 C 0.21867 0.18746 0.84067 0.0
C967 C 0.22438 0.17486 0.84214 0.0
C968 C 0.22198 0.19849 0.8496 0.0
C969 C 0.23391 0.17356 0.85225 0.0
C970 C 0.2373 0.18449 0.86114 0.0
C971 C 0.23422 0.20785 0.86924 0.0
C972 C 0.22789 0.22026 0.86831 0.0
C973 C 0.23127 0.19696 0.86001 0.0
C974 C 0.21887 0.22173 0.85773 0.0
C975 C 0.21597 0.21096 0.84845 0.0
H976 H 0.13445 0.86839 0.2016 0.0
H977 H 0.10095 0.89379 0.20957 0.0
H978 H 0.11534 0.91283 0.21568 0.0
H979 H 0.13737 0.92248 0.21771 0.0
H980 H 0.17096 0.8972 0.20933 0.0
H981 H 0.15664 0.87786 0.20466 0.0
C982 C 0.13034 0.87808 0.20477 0.0
C983 C 0.11668 0.8798 0.20481 0.0
C984 C 0.13868 0.88899 0.20823 0.0
C985 C 0.11144 0.89236 0.20901 0.0
C986 C 0.11966 0.90321 0.21263 0.0
C987 C 0.14159 0.91272 0.21501 0.0
C988 C 0.15523 0.91133 0.21384 0.0
C989 C 0.13329 0.90169 0.21209 0.0
C990 C 0.1605 0.89859 0.21026 0.0
C991 C 0.15231 0.88752 0.20756 0.0
H992 H 0.36447 0.9602 0.43763 0.0
H993 H 0.3464 0.94131 0.46946 0.0
H994 H 0.3604 0.92167 0.4653 0.0
H995 H 0.3777 0.90979 0.4525 0.0
H996 H 0.39608 0.92893 0.42108 0.0
H997 H 0.38215 0.94864 0.42531 0.0
C998 C 0.36358 0.9518 0.44367 0.0
C999 C 0.35434 0.95221 0.45379 0.0
C1000 C 0.37172 0.94058 0.44129 0.0
C1001 C 0.35343 0.94127 0.46161 0.0
C1002 C 0.36141 0.93002 0.45922 0.0
C1003 C 0.3785 0.9182 0.44646 0.0
C1004 C 0.38768 0.91782 0.43631 0.0
C1005 C 0.37054 0.92953 0.44904 0.0
C1006 C 0.38901 0.92899 0.4289 0.0
C1007 C 0.38104 0.94023 0.4313 0.0
H1008 H 0.32203 0.14251 0.70165 0.0
H1009 H 0.32578 0.11389 0.73134 0.0
H1010 H 0.34838 0.12073 0.73606 0.0
H1011 H 0.36772 0.1328 0.72996 0.0
H1012 H 0.36445 0.16084 0.69972 0.0
H1013 H 0.34098 0.15643 0.69722 0.0
C1014 C 0.32772 0.13793 0.70931 0.0
C1015 C 0.32225 0.12756 0.71598 0.0
C1016 C 0.34083 0.14173 0.71183 0.0
C1017 C 0.32977 0.12178 0.72593 0.0
C1018 C 0.34271 0.12567 0.72864 0.0
C1019 C 0.36186 0.13811 0.72295 0.0
C1020 C 0.3679 0.14699 0.7149 0.0
C1021 C 0.34846 0.13532 0.72136 0.0
C1022 C 0.3601 0.15389 0.70599 0.0
C1023 C 0.34667 0.15132 0.70451 0.0
H1024 H 0.22441 0.16178 0.01249 0.0
H1025 H 0.24939 0.18419 0.04129 0.0
H1026 H 0.23469 0.20348 0.04088 0.0
H1027 H 0.21516 0.21417 0.0318 0.0
H1028 H 0.19012 0.19174 0.00295 0.0
H1029 H 0.20451 0.17231 0.0038 0.0
C1030 C 0.22675 0.17097 0.01847 0.0
C1031 C 0.23812 0.17171 0.02664 0.0
C1032 C 0.21824 0.18199 0.0182 0.0
C1033 C 0.24073 0.18345 0.03484 0.0
C1034 C 0.23235 0.19448 0.03459 0.0
C1035 C 0.2128 0.20502 0.02573 0.0
C1036 C 0.20159 0.20446 0.01728 0.0
C1037 C 0.22113 0.19389 0.02624 0.0
C1038 C 0.19868 0.19248 0.00955 0.0
C1039 C 0.20692 0.18136 0.00999 0.0
H1040 H 0.04746 0.17205 0.11391 0.0
H1041 H 0.02417 0.1368 0.10316 0.0
H1042 H 0.02387 0.14182 0.07987 0.0
H1043 H 0.02904 0.15694 0.06281 0.0
H1044 H 0.05219 0.19229 0.07361 0.0
H1045 H 0.05378 0.18642 0.09662 0.0
C1046 C 0.04239 0.1654 0.10648 0.0
C1047 C 0.03575 0.15412 0.11033 0.0
C1048 C 0.04219 0.16838 0.09311 0.0
C1049 C 0.02932 0.14557 0.10051 0.0
C1050 C 0.02912 0.14845 0.08718 0.0
C1051 C 0.03452 0.16332 0.07016 0.0
C1052 C 0.04039 0.17511 0.06648 0.0
C1053 C 0.03534 0.15994 0.0834 0.0
C1054 C 0.04753 0.18319 0.07615 0.0
C1055 C 0.04843 0.17986 0.08933 0.0
H1056 H 0.48755 0.41771 0.88081 0.0
H1057 H 0.5215 0.44106 0.89391 0.0
H1058 H 0.52696 0.44351 0.87074 0.0
H1059 H 0.52259 0.43807 0.84671 0.0
H1060 H 0.48894 0.41415 0.83385 0.0
H1061 H 0.48306 0.41245 0.85698 0.0
C1062 C 0.49634 0.42301 0.87861 0.0
C1063 C 0.50435 0.42881 0.88902 0.0
C1064 C 0.49949 0.42421 0.86531 0.0
C1065 C 0.51526 0.43638 0.88602 0.0
C1066 C 0.5184 0.43776 0.87279 0.0
C1067 C 0.51395 0.43255 0.84902 0.0
C1068 C 0.50636 0.42598 0.83867 0.0
C1069 C 0.51066 0.43159 0.86235 0.0
C1070 C 0.49514 0.41893 0.84171 0.0
C1071 C 0.49171 0.41805 0.85491 0.0
H1072 H 0.8959 0.238 0.11601 0.0
H1073 H 0.92899 0.26256 0.10829 0.0
H1074 H 0.9195 0.2665 0.08643 0.0
H1075 H 0.90187 0.26278 0.06939 0.0
H1076 H 0.86865 0.23859 0.07738 0.0
H1077 H 0.87804 0.23485 0.09934 0.0
C1078 C 0.90104 0.24423 0.10957 0.0
C1079 C 0.91318 0.24991 0.11377 0.0
C1080 C 0.8955 0.24653 0.09705 0.0
C1081 C 0.91963 0.25807 0.10532 0.0
C1082 C 0.91423 0.2603 0.0928 0.0
C1083 C 0.8968 0.25653 0.07587 0.0
C1084 C 0.88474 0.25073 0.07168 0.0
C1085 C 0.90222 0.25451 0.08852 0.0
C1086 C 0.878 0.2431 0.08038 0.0
C1087 C 0.88337 0.24094 0.09291 0.0
H1088 H 0.00219 0.67339 0.3069 0.0
H1089 H 0.96872 0.68054 0.28135 0.0
H1090 H 0.96188 0.69905 0.29692 0.0
H1091 H 0.96617 0.71411 0.31711 0.0
H1092 H 0.99972 0.70695 0.34245 0.0
H1093 H 0.00584 0.68761 0.32757 0.0
C1094 C 0.99332 0.67889 0.30477 0.0
C1095 C 0.98602 0.67559 0.29292 0.0
C1096 C 0.98957 0.68966 0.31364 0.0
C1097 C 0.97455 0.68287 0.29037 0.0
C1098 C 0.97065 0.69349 0.29925 0.0
C1099 C 0.97478 0.70825 0.31939 0.0
C1100 C 0.98273 0.71217 0.33062 0.0
C1101 C 0.9782 0.69711 0.3108 0.0
C1102 C 0.99377 0.70445 0.33356 0.0
C1103 C 0.99717 0.6933 0.32514 0.0
H1104 H 0.494 0.85178 0.56975 0.0
H1105 H 0.51038 0.85997 0.53232 0.0
H1106 H 0.52572 0.87591 0.54387 0.0
H1107 H 0.53386 0.88822 0.56464 0.0
H1108 H 0.51816 0.87916 0.60212 0.0
H1109 H 0.50323 0.86281 0.59061 0.0
C1110 C 0.50099 0.85702 0.56417 0.0
C1111 C 0.50112 0.85474 0.55026 0.0
C1112 C 0.50989 0.866 0.57089 0.0
C1113 C 0.51025 0.86147 0.54308 0.0
C1114 C 0.51896 0.87064 0.54966 0.0
C1115 C 0.52723 0.88256 0.57024 0.0
C1116 C 0.52713 0.88477 0.58417 0.0
C1117 C 0.51879 0.87307 0.56356 0.0
C1118 C 0.51854 0.87742 0.59139 0.0
C1119 C 0.50994 0.86816 0.58481 0.0
H1120 H 0.67755 0.66099 0.74693 0.0
H1121 H 0.66543 0.62521 0.72309 0.0
H1122 H 0.64404 0.63517 0.71902 0.0
H1123 H 0.62852 0.65373 0.72274 0.0
H1124 H 0.64049 0.68964 0.74623 0.0
H1125 H 0.6623 0.68004 0.74976 0.0
C1126 C 0.67026 0.6554 0.74077 0.0
C1127 C 0.67309 0.64234 0.73538 0.0
C1128 C 0.65796 0.6612 0.73843 0.0
C1129 C 0.66355 0.63528 0.72735 0.0
C1130 C 0.65128 0.64095 0.72504 0.0
C1131 C 0.63587 0.65937 0.72876 0.0
C1132 C 0.63287 0.6722 0.73451 0.0
C1133 C 0.64833 0.65382 0.73067 0.0
C1134 C 0.6426 0.67968 0.74182 0.0
C1135 C 0.65503 0.67418 0.74385 0.0
H1136 H 0.68332 0.45619 0.99929 0.0
H1137 H 0.66566 0.48234 0.03001 0.0
H1138 H 0.64711 0.46716 0.03031 0.0
H1139 H 0.63619 0.44612 0.02238 0.0
H1140 H 0.65362 0.42016 0.99147 0.0
H1141 H 0.67203 0.43553 0.99082 0.0
C1142 C 0.6754 0.45862 0.00602 0.0
C1143 C 0.67594 0.47039 0.01464 0.0
C1144 C 0.66478 0.4498 0.00622 0.0
C1145 C 0.66555 0.47335 0.02328 0.0
C1146 C 0.65492 0.46466 0.02348 0.0
C1147 C 0.64401 0.44386 0.01548 0.0
C1148 C 0.64375 0.43183 0.00727 0.0
C1149 C 0.65449 0.45282 0.01507 0.0
C1150 C 0.65387 0.42907 0.99829 0.0
C1151 C 0.66432 0.43795 0.99779 0.0
H1152 H 0.85748 0.40296 0.24591 0.0
H1153 H 0.86356 0.44003 0.22794 0.0
H1154 H 0.8849 0.43219 0.22043 0.0
H1155 H 0.90215 0.41528 0.21961 0.0
H1156 H 0.8965 0.3782 0.23766 0.0
H1157 H 0.87463 0.38555 0.24438 0.0
C1158 C 0.86345 0.4093 0.24032 0.0
C1159 C 0.85892 0.42211 0.23758 0.0
C1160 C 0.87579 0.40474 0.23603 0.0
C1161 C 0.86679 0.43016 0.23026 0.0
C1162 C 0.87901 0.42569 0.22594 0.0
C1163 C 0.89614 0.40874 0.22495 0.0
C1164 C 0.90101 0.39622 0.22817 0.0
C1165 C 0.88365 0.41306 0.22887 0.0
C1166 C 0.89302 0.38789 0.23505 0.0
C1167 C 0.88052 0.39211 0.23893 0.0
H1168 H 0.8889 0.63398 0.47826 0.0
H1169 H 0.85485 0.63555 0.45211 0.0
H1170 H 0.86167 0.65735 0.4457 0.0
H1171 H 0.87577 0.67708 0.44964 0.0
H1172 H 0.90949 0.67574 0.47626 0.0
H1173 H 0.9044 0.65267 0.48019 0.0
C1174 C 0.88306 0.63898 0.47101 0.0
C1175 C 0.87127 0.63321 0.46585 0.0
C1176 C 0.88692 0.65162 0.46751 0.0
C1177 C 0.86391 0.63979 0.45634 0.0
C1178 C 0.86778 0.6523 0.45269 0.0
C1179 C 0.88214 0.67169 0.45613 0.0
C1180 C 0.89288 0.67823 0.4628 0.0
C1181 C 0.87904 0.65849 0.45854 0.0
C1182 C 0.90109 0.67101 0.47108 0.0
C1183 C 0.89817 0.65782 0.47338 0.0
H1184 H 0.67964 0.49856 0.80386 0.0
H1185 H 0.64786 0.52473 0.81614 0.0
H1186 H 0.66109 0.53403 0.8353 0.0
H1187 H 0.68166 0.53428 0.84886 0.0
H1188 H 0.7139 0.50928 0.83546 0.0
H1189 H 0.70058 0.49989 0.81645 0.0
C1190 C 0.67566 0.50634 0.81073 0.0
C1191 C 0.66283 0.51096 0.80865 0.0
C1192 C 0.68339 0.51178 0.82153 0.0
C1193 C 0.65777 0.52113 0.81749 0.0
C1194 C 0.6653 0.52637 0.82848 0.0
C1195 C 0.68571 0.52677 0.84175 0.0
C1196 C 0.69867 0.52238 0.84352 0.0
C1197 C 0.6781 0.52171 0.83065 0.0
C1198 C 0.70394 0.5128 0.83421 0.0
C1199 C 0.69633 0.50743 0.82338 0.0
H1200 H 0.79439 0.39783 0.06624 0.0
H1201 H 0.81798 0.4095 0.03425 0.0
H1202 H 0.82476 0.42973 0.04777 0.0
H1203 H 0.82224 0.44513 0.06779 0.0
H1204 H 0.79821 0.43356 0.09951 0.0
H1205 H 0.79345 0.41223 0.08698 0.0
C1206 C 0.80114 0.4047 0.06226 0.0
C1207 C 0.80553 0.40221 0.04918 0.0
C1208 C 0.80485 0.41641 0.07 0.0
C1209 C 0.81438 0.41119 0.04425 0.0
C1210 C 0.81823 0.4228 0.05196 0.0
C1211 C 0.81609 0.43789 0.07204 0.0
C1212 C 0.81047 0.44104 0.08451 0.0
C1213 C 0.81325 0.42568 0.06472 0.0
C1214 C 0.80259 0.43147 0.0899 0.0
C1215 C 0.79984 0.41926 0.08273 0.0
H1216 H 0.94589 0.49911 0.34113 0.0
H1217 H 0.93474 0.53245 0.31866 0.0
H1218 H 0.91432 0.53488 0.3306 0.0
H1219 H 0.89869 0.52614 0.34575 0.0
H1220 H 0.90966 0.49255 0.36794 0.0
H1221 H 0.93112 0.49177 0.35788 0.0
C1222 C 0.93908 0.50702 0.33895 0.0
C1223 C 0.9418 0.51546 0.32887 0.0
C1224 C 0.92726 0.50828 0.34575 0.0
C1225 C 0.93289 0.52573 0.32629 0.0
C1226 C 0.92117 0.52712 0.33309 0.0
C1227 C 0.90582 0.51875 0.34853 0.0
C1228 C 0.90247 0.50931 0.35746 0.0
C1229 C 0.91811 0.51823 0.34258 0.0
C1230 C 0.91191 0.49989 0.36103 0.0
C1231 C 0.92419 0.4994 0.35525 0.0
H1232 H 0.80588 0.65011 0.61748 0.0
H1233 H 0.82248 0.68069 0.64539 0.0
H1234 H 0.82123 0.69678 0.62841 0.0
H1235 H 0.81587 0.70197 0.60548 0.0
H1236 H 0.79928 0.67124 0.57758 0.0
H1237 H 0.80031 0.65534 0.59464 0.0
C1238 C 0.80948 0.66021 0.61975 0.0
C1239 C 0.81458 0.66412 0.63254 0.0
C1240 C 0.80872 0.66938 0.60995 0.0
C1241 C 0.81861 0.67743 0.63556 0.0
C1242 C 0.81792 0.68662 0.62585 0.0
C1243 C 0.81246 0.69181 0.60312 0.0
C1244 C 0.80754 0.68783 0.59023 0.0
C1245 C 0.81305 0.68268 0.61299 0.0
C1246 C 0.80311 0.67461 0.5874 0.0
C1247 C 0.80371 0.66548 0.59715 0.0
H1248 H 0.59582 0.7174 0.56127 0.0
H1249 H 0.61426 0.7303 0.59905 0.0
H1250 H 0.63283 0.73916 0.58766 0.0
H1251 H 0.6439 0.74301 0.56682 0.0
H1252 H 0.62441 0.73198 0.52912 0.0
H1253 H 0.60614 0.72261 0.54052 0.0
C1254 C 0.60392 0.72217 0.56696 0.0
C1255 C 0.60378 0.72318 0.58092 0.0
C1256 C 0.61434 0.72755 0.56034 0.0
C1257 C 0.61419 0.72951 0.58826 0.0
C1258 C 0.62481 0.73452 0.58176 0.0
C1259 C 0.63563 0.73855 0.56116 0.0
C1260 C 0.63545 0.73808 0.5472 0.0
C1261 C 0.62501 0.73356 0.5678 0.0
C1262 C 0.62466 0.73246 0.5399 0.0
C1263 C 0.61426 0.72708 0.5464 0.0
H1264 H 0.14413 0.70702 0.28379 0.0
H1265 H 0.11903 0.73905 0.2993 0.0
H1266 H 0.13256 0.74175 0.31964 0.0
H1267 H 0.15149 0.73501 0.33305 0.0
H1268 H 0.17617 0.70257 0.31794 0.0
H1269 H 0.16304 0.70028 0.29725 0.0
C1270 C 0.14164 0.71463 0.29158 0.0
C1271 C 0.13056 0.7228 0.28999 0.0
C1272 C 0.1494 0.71608 0.30332 0.0
C1273 C 0.12749 0.73261 0.30023 0.0
C1274 C 0.13522 0.73417 0.31188 0.0
C1275 C 0.15378 0.72722 0.32538 0.0
C1276 C 0.16453 0.71871 0.32718 0.0
C1277 C 0.14613 0.7259 0.31358 0.0
C1278 C 0.16785 0.70916 0.31682 0.0
C1279 C 0.16034 0.70783 0.30501 0.0
H1280 H 0.43404 0.23402 0.85597 0.0
H1281 H 0.43596 0.26631 0.83034 0.0
H1282 H 0.41972 0.27893 0.84357 0.0
H1283 H 0.4051 0.28085 0.86252 0.0
H1284 H 0.40284 0.24856 0.8881 0.0
H1285 H 0.41869 0.23561 0.87451 0.0
C1286 C 0.43085 0.2438 0.85329 0.0
C1287 C 0.43652 0.24946 0.84252 0.0
C1288 C 0.42137 0.25092 0.86085 0.0
C1289 C 0.43219 0.26204 0.83898 0.0
C1290 C 0.42277 0.26917 0.84642 0.0
C1291 C 0.40827 0.27108 0.86525 0.0
C1292 C 0.40313 0.2658 0.87648 0.0
C1293 C 0.41742 0.26378 0.85747 0.0
C1294 C 0.40678 0.25286 0.87953 0.0
C1295 C 0.41586 0.24548 0.87181 0.0
H1296 H 0.06576 0.05242 0.15511 0.0
H1297 H 0.08659 0.06355 0.12108 0.0
H1298 H 0.07646 0.08576 0.12312 0.0
H1299 H 0.06154 0.10195 0.1345 0.0
H1300 H 0.03863 0.09003 0.16677 0.0
H1301 H 0.04965 0.06818 0.16558 0.0
C1302 C 0.06806 0.05976 0.14819 0.0
C1303 C 0.07696 0.05649 0.13804 0.0
C1304 C 0.06182 0.07232 0.14913 0.0
C1305 C 0.07974 0.06591 0.12896 0.0
C1306 C 0.07399 0.0786 0.13014 0.0
C1307 C 0.05903 0.09456 0.14129 0.0
C1308 C 0.04946 0.09756 0.15082 0.0
C1309 C 0.06501 0.0819 0.14018 0.0
C1310 C 0.04603 0.08788 0.15939 0.0
C1311 C 0.05232 0.07543 0.15871 0.0
H1312 H 0.19892 0.76371 0.38367 0.0
H1313 H 0.23046 0.75429 0.3568 0.0
H1314 H 0.24004 0.77632 0.36263 0.0
H1315 H 0.23965 0.79812 0.37555 0.0
H1316 H 0.20836 0.80741 0.40275 0.0
H1317 H 0.1985 0.78556 0.39657 0.0
C1318 C 0.20787 0.76648 0.37906 0.0
C1319 C 0.21395 0.75735 0.36981 0.0
C1320 C 0.21339 0.77913 0.38252 0.0
C1321 C 0.22558 0.7611 0.36397 0.0
C1322 C 0.23107 0.77371 0.36729 0.0
C1323 C 0.23065 0.79539 0.38011 0.0
C1324 C 0.22475 0.8044 0.3896 0.0
C1325 C 0.22508 0.78278 0.37658 0.0
C1326 C 0.21312 0.80067 0.39543 0.0
C1327 C 0.20747 0.78817 0.3919 0.0
H1328 H 0.51912 0.92512 0.63809 0.0
H1329 H 0.51955 0.96123 0.61754 0.0
H1330 H 0.50226 0.97081 0.63168 0.0
H1331 H 0.48661 0.96868 0.64946 0.0
H1332 H 0.48558 0.93216 0.66933 0.0
H1333 H 0.5035 0.92299 0.65585 0.0
C1334 C 0.5155 0.93513 0.63677 0.0
C1335 C 0.52064 0.94247 0.62681 0.0
C1336 C 0.5054 0.94047 0.64476 0.0
C1337 C 0.51575 0.95537 0.62514 0.0
C1338 C 0.50586 0.96085 0.6332 0.0
C1339 C 0.49034 0.95873 0.65087 0.0
C1340 C 0.48477 0.95112 0.66039 0.0
C1341 C 0.50054 0.95345 0.64298 0.0
C1342 C 0.48966 0.93821 0.66204 0.0
C1343 C 0.49992 0.93297 0.65435 0.0
H1344 H 0.33146 0.25796 0.91722 0.0
H1345 H 0.32607 0.28657 0.88775 0.0
H1346 H 0.30263 0.28188 0.88643 0.0
H1347 H 0.28362 0.26983 0.89377 0.0
H1348 H 0.28901 0.24118 0.9232 0.0
H1349 H 0.31248 0.24574 0.92439 0.0
C1350 C 0.32517 0.26316 0.91049 0.0
C1351 C 0.33053 0.27261 0.90261 0.0
C1352 C 0.31168 0.26043 0.90978 0.0
C1353 C 0.32222 0.27924 0.89394 0.0
C1354 C 0.3088 0.27658 0.89317 0.0
C1355 C 0.28992 0.26458 0.90045 0.0
C1356 C 0.28454 0.2552 0.9084 0.0
C1357 C 0.30342 0.26723 0.90108 0.0
C1358 C 0.29287 0.24846 0.91697 0.0
C1359 C 0.30631 0.25106 0.91767 0.0
H1360 H 0.08449 0.80728 0.2259 0.0
H1361 H 0.11585 0.7943 0.20001 0.0
H1362 H 0.11724 0.7731 0.2103 0.0
H1363 H 0.10941 0.75815 0.2265 0.0
H1364 H 0.07796 0.77114 0.2523 0.0
H1365 H 0.07676 0.79241 0.24217 0.0
C1366 C 0.09165 0.79984 0.22252 0.0
C1367 C 0.10005 0.80239 0.21219 0.0
C1368 C 0.09237 0.78764 0.22844 0.0
C1369 C 0.10926 0.79261 0.20794 0.0
C1370 C 0.11006 0.78047 0.21381 0.0
C1371 C 0.10229 0.76563 0.22992 0.0
C1372 C 0.09378 0.76303 0.24014 0.0
C1373 C 0.10163 0.77786 0.22404 0.0
C1374 C 0.08462 0.77285 0.24444 0.0
C1375 C 0.08392 0.78504 0.23866 0.0
H1376 H 0.45095 0.86774 0.45581 0.0
H1377 H 0.41024 0.86576 0.46572 0.0
H1378 H 0.41625 0.85558 0.48626 0.0
H1379 H 0.43311 0.84739 0.50149 0.0
H1380 H 0.4737 0.84807 0.49086 0.0
H1381 H 0.46772 0.85858 0.4705 0.0
C1382 C 0.44341 0.86509 0.46249 0.0
C1383 C 0.43019 0.86757 0.45932 0.0
C1384 C 0.44691 0.859 0.47413 0.0
C1385 C 0.42049 0.86393 0.46795 0.0
C1386 C 0.42392 0.85814 0.4797 0.0
C1387 C 0.44063 0.84985 0.49471 0.0
C1388 C 0.45382 0.84704 0.49769 0.0
C1389 C 0.4371 0.85565 0.48291 0.0
C1390 C 0.46347 0.85012 0.48876 0.0
C1391 C 0.46006 0.85616 0.47714 0.0
H1392 H 0.42949 0.16253 0.7524 0.0
H1393 H 0.4293 0.19807 0.73091 0.0
H1394 H 0.43883 0.21093 0.75039 0.0
H1395 H 0.44712 0.21213 0.77355 0.0
H1396 H 0.44704 0.17663 0.7951 0.0
H1397 H 0.43772 0.16373 0.77555 0.0
C1398 C 0.43154 0.17308 0.75196 0.0
C1399 C 0.42869 0.17931 0.7402 0.0
C1400 C 0.43697 0.18044 0.76321 0.0
C1401 C 0.43139 0.19301 0.73983 0.0
C1402 C 0.43685 0.20038 0.75097 0.0
C1403 C 0.44509 0.20156 0.77397 0.0
C1404 C 0.44779 0.19537 0.78578 0.0
C1405 C 0.43967 0.19421 0.76271 0.0
C1406 C 0.44505 0.18167 0.78615 0.0
C1407 C 0.43972 0.17428 0.77497 0.0
H1408 H 0.09073 0.19735 0.02927 0.0
H1409 H 0.07315 0.22624 0.00482 0.0
H1410 H 0.09489 0.23452 0.99988 0.0
H1411 H 0.11898 0.23355 0.0027 0.0
H1412 H 0.13621 0.20643 0.02932 0.0
H1413 H 0.11458 0.19741 0.03329 0.0
C1414 C 0.09171 0.20543 0.02283 0.0
C1415 C 0.08046 0.21111 0.01728 0.0
C1416 C 0.10416 0.21044 0.02047 0.0
C1417 C 0.08174 0.22174 0.00916 0.0
C1418 C 0.09414 0.22644 0.00634 0.0
C1419 C 0.11794 0.22565 0.00934 0.0
C1420 C 0.12909 0.22054 0.01563 0.0
C1421 C 0.10543 0.22087 0.01195 0.0
C1422 C 0.1277 0.21049 0.02439 0.0
C1423 C 0.11536 0.20532 0.02664 0.0
H1424 H 0.24366 0.09745 0.02797 0.0
H1425 H 0.25631 0.10635 0.06893 0.0
H1426 H 0.24666 0.08549 0.07487 0.0
H1427 H 0.23504 0.06452 0.06836 0.0
H1428 H 0.22236 0.05562 0.02741 0.0
H1429 H 0.23158 0.07672 0.02157 0.0
C1430 C 0.2443 0.09484 0.0382 0.0
C1431 C 0.25075 0.10343 0.04798 0.0
C1432 C 0.23872 0.08283 0.04156 0.0
C1433 C 0.25142 0.09992 0.0612 0.0
C1434 C 0.24591 0.08799 0.06461 0.0
C1435 C 0.23426 0.0672 0.05816 0.0
C1436 C 0.22805 0.05847 0.04834 0.0
C1437 C 0.2396 0.07934 0.05486 0.0
C1438 C 0.22709 0.06214 0.03517 0.0
C1439 C 0.23238 0.0742 0.03181 0.0
H1440 H 0.17496 0.96693 0.27168 0.0
H1441 H 0.21004 0.95039 0.25386 0.0
H1442 H 0.22116 0.95172 0.27567 0.0
H1443 H 0.22081 0.95714 0.29986 0.0
H1444 H 0.18558 0.97325 0.31773 0.0
H1445 H 0.17467 0.97257 0.29583 0.0
C1446 C 0.18505 0.96365 0.27255 0.0
C1447 C 0.19164 0.95855 0.26114 0.0
C1448 C 0.19137 0.96436 0.28514 0.0
C1449 C 0.20471 0.95433 0.26247 0.0
C1450 C 0.21109 0.95509 0.27495 0.0
C1451 C 0.21077 0.96056 0.29897 0.0
C1452 C 0.20403 0.96524 0.31044 0.0
C1453 C 0.2045 0.96003 0.28636 0.0
C1454 C 0.191 0.96959 0.30908 0.0
C1455 C 0.18474 0.9692 0.29656 0.0
H1456 H 0.34646 0.98507 0.51739 0.0
H1457 H 0.30781 0.00232 0.51587 0.0
H1458 H 0.30827 0.00648 0.54019 0.0
H1459 H 0.31966 0.0049 0.56195 0.0
H1460 H 0.35707 0.98504 0.56353 0.0
H1461 H 0.35721 0.98219 0.53915 0.0
C1462 C 0.33818 0.98978 0.52243 0.0
C1463 C 0.32718 0.99353 0.51494 0.0
C1464 C 0.33833 0.99164 0.53639 0.0
C1465 C 0.31638 0.99938 0.5215 0.0
C1466 C 0.31665 0.00177 0.53537 0.0
C1467 C 0.32783 1e-05 0.55689 0.0
C1468 C 0.33841 0.99531 0.56439 0.0
C1469 C 0.32757 0.99792 0.54292 0.0
C1470 C 0.34886 0.98875 0.55786 0.0
C1471 C 0.34894 0.98713 0.54397 0.0
H1472 H 0.26251 0.1142 0.74161 0.0
H1473 H 0.24555 0.14587 0.72014 0.0
H1474 H 0.23184 0.1526 0.73902 0.0
H1475 H 0.22476 0.14958 0.76167 0.0
H1476 H 0.24212 0.11822 0.78331 0.0
H1477 H 0.25559 0.11132 0.76432 0.0
C1478 C 0.25578 0.12254 0.74103 0.0
C1479 C 0.25503 0.12949 0.72946 0.0
C1480 C 0.24802 0.12645 0.75197 0.0
C1481 C 0.24632 0.14035 0.72893 0.0
C1482 C 0.23848 0.1442 0.73972 0.0
C1483 C 0.23149 0.14123 0.76224 0.0
C1484 C 0.23241 0.13442 0.7739 0.0
C1485 C 0.23927 0.13735 0.75131 0.0
C1486 C 0.24122 0.12366 0.77448 0.0
C1487 C 0.24892 0.11968 0.76361 0.0
H1488 H 0.56559 0.4344 0.99539 0.0
H1489 H 0.57577 0.39636 0.97506 0.0
H1490 H 0.5572 0.39817 0.95954 0.0
H1491 H 0.53789 0.41039 0.95193 0.0
H1492 H 0.52815 0.44879 0.97178 0.0
H1493 H 0.54675 0.447 0.98728 0.0
C1494 C 0.56374 0.42651 0.98756 0.0
C1495 C 0.572 0.41524 0.98643 0.0
C1496 C 0.55313 0.42767 0.97859 0.0
C1497 C 0.56956 0.40515 0.97615 0.0
C1498 C 0.55893 0.40616 0.96728 0.0
C1499 C 0.53984 0.41837 0.95965 0.0
C1500 C 0.53161 0.42967 0.96074 0.0
C1501 C 0.55062 0.41735 0.96844 0.0
C1502 C 0.53434 0.43998 0.97071 0.0
C1503 C 0.54496 0.43896 0.9796 0.0
H1504 H 0.92446 0.2967 0.16922 0.0
H1505 H 0.96131 0.28365 0.18557 0.0
H1506 H 0.96371 0.30509 0.19891 0.0
H1507 H 0.95524 0.32761 0.2059 0.0
H1508 H 0.91958 0.34142 0.18765 0.0
H1509 H 0.91676 0.31967 0.17505 0.0
C1510 C 0.93299 0.29858 0.17573 0.0
C1511 C 0.94264 0.28863 0.17655 0.0
C1512 C 0.9345 0.31106 0.18299 0.0
C1513 C 0.95377 0.29121 0.18481 0.0
C1514 C 0.95513 0.30343 0.19244 0.0
C1515 C 0.94686 0.3258 0.19916 0.0
C1516 C 0.93757 0.33599 0.19775 0.0
C1517 C 0.94555 0.31343 0.19162 0.0
C1518 C 0.92686 0.33368 0.18886 0.0
C1519 C 0.92523 0.32126 0.18169 0.0
H1520 H 0.95929 0.73936 0.40163 0.0
H1521 H 0.92256 0.74239 0.37987 0.0
H1522 H 0.91064 0.73831 0.39979 0.0
H1523 H 0.91061 0.73375 0.42334 0.0
H1524 H 0.94734 0.73063 0.44508 0.0
H1525 H 0.95926 0.73492 0.42521 0.0
C1526 C 0.94868 0.73914 0.40123 0.0
C1527 C 0.94185 0.74117 0.38926 0.0
C1528 C 0.94187 0.73678 0.41273 0.0
C1529 C 0.92809 0.74085 0.38894 0.0
C1530 C 0.92125 0.73852 0.40034 0.0
C1531 C 0.92123 0.73403 0.42375 0.0
C1532 C 0.92806 0.73187 0.4357 0.0
C1533 C 0.92803 0.73646 0.41228 0.0
C1534 C 0.94182 0.73226 0.43603 0.0
C1535 C 0.94866 0.7347 0.42467 0.0
H1536 H 0.975 0.55978 0.27364 0.0
H1537 H 0.0043 0.5552 0.30462 0.0
H1538 H 0.0127 0.57752 0.3018 0.0
H1539 H 0.01161 0.59843 0.29072 0.0
H1540 H 0.9822 0.60308 0.25988 0.0
H1541 H 0.97398 0.58065 0.26249 0.0
C1542 C 0.98325 0.56364 0.27976 0.0
C1543 C 0.989 0.55581 0.28933 0.0
C1544 C 0.98801 0.57651 0.27813 0.0
C1545 C 0.99967 0.561 0.29718 0.0
C1546 C 0.00449 0.57377 0.29558 0.0
C1547 C 0.00341 0.59454 0.28456 0.0
C1548 C 0.99753 0.60245 0.27513 0.0
C1549 C 0.99871 0.58163 0.28612 0.0
C1550 C 0.98691 0.59723 0.26723 0.0
C1551 C 0.9822 0.58439 0.26871 0.0
H1552 H 0.55661 0.46907 0.79106 0.0
H1553 H 0.56896 0.42836 0.79531 0.0
H1554 H 0.59164 0.43456 0.79201 0.0
H1555 H 0.60792 0.45139 0.7874 0.0
H1556 H 0.59552 0.49201 0.78276 0.0
H1557 H 0.57293 0.48598 0.78677 0.0
C1558 C 0.56426 0.46155 0.79131 0.0
C1559 C 0.56107 0.44826 0.79341 0.0
C1560 C 0.57729 0.46516 0.78932 0.0
C1561 C 0.57112 0.43866 0.79369 0.0
C1562 C 0.58411 0.44219 0.79181 0.0
C1563 C 0.60029 0.45894 0.78732 0.0
C1564 C 0.60342 0.47213 0.78476 0.0
C1565 C 0.5873 0.45539 0.78954 0.0
C1566 C 0.5934 0.48178 0.78468 0.0
C1567 C 0.58046 0.47834 0.78697 0.0
H1568 H 0.58642 0.68058 0.681 0.0
H1569 H 0.58695 0.72361 0.68809 0.0
H1570 H 0.58218 0.72583 0.66449 0.0
H1571 H 0.57793 0.71555 0.64182 0.0
H1572 H 0.57825 0.67252 0.63463 0.0
H1573 H 0.58264 0.67031 0.65829 0.0
C1574 C 0.58546 0.69045 0.67739 0.0
C1575 C 0.58699 0.70191 0.6863 0.0
C1576 C 0.58289 0.69165 0.66379 0.0
C1577 C 0.58583 0.71462 0.68144 0.0
C1578 C 0.58309 0.71591 0.66795 0.0
C1579 C 0.57894 0.70569 0.64544 0.0
C1580 C 0.57772 0.69422 0.63648 0.0
C1581 C 0.58161 0.70449 0.65903 0.0
C1582 C 0.57916 0.68152 0.64131 0.0
C1583 C 0.58165 0.68024 0.65484 0.0
H1584 H 0.82272 0.2893 0.03607 0.0
H1585 H 0.85831 0.29939 0.0171 0.0
H1586 H 0.84885 0.32084 0.01197 0.0
H1587 H 0.83041 0.33664 0.01266 0.0
H1588 H 0.79495 0.32671 0.03196 0.0
H1589 H 0.80444 0.30529 0.03715 0.0
C1590 C 0.82842 0.29619 0.03083 0.0
C1591 C 0.84119 0.29272 0.02695 0.0
C1592 C 0.82294 0.30853 0.02794 0.0
C1593 C 0.84846 0.3018 0.02021 0.0
C1594 C 0.84305 0.31407 0.01725 0.0
C1595 C 0.82475 0.32979 0.01799 0.0
C1596 C 0.81197 0.33326 0.02187 0.0
C1597 C 0.83029 0.31752 0.02102 0.0
C1598 C 0.80481 0.32429 0.02885 0.0
C1599 C 0.81022 0.31203 0.03182 0.0
H1600 H 0.7543 0.70811 0.5326 0.0
H1601 H 0.76418 0.74021 0.56231 0.0
H1602 H 0.74196 0.74906 0.56068 0.0
H1603 H 0.71982 0.74792 0.55062 0.0
H1604 H 0.71 0.716 0.5207 0.0
H1605 H 0.73208 0.70685 0.52267 0.0
C1606 C 0.75159 0.71703 0.53874 0.0
C1607 C 0.76091 0.72348 0.54755 0.0
C1608 C 0.7388 0.72211 0.53773 0.0
C1609 C 0.75722 0.73504 0.55542 0.0
C1610 C 0.74451 0.74012 0.55451 0.0
C1611 C 0.72249 0.73893 0.54456 0.0
C1612 C 0.71326 0.73267 0.53552 0.0
C1613 C 0.73523 0.73376 0.54567 0.0
C1614 C 0.7169 0.72104 0.52773 0.0
C1615 C 0.72954 0.7158 0.52884 0.0
H1616 H 0.78255 0.64563 0.70548 0.0
H1617 H 0.77577 0.61599 0.67252 0.0
H1618 H 0.75563 0.60911 0.6825 0.0
H1619 H 0.74018 0.61117 0.70081 0.0
H1620 H 0.7472 0.64058 0.73392 0.0
H1621 H 0.76698 0.64789 0.72362 0.0
C1622 C 0.77665 0.6377 0.70044 0.0
C1623 C 0.78069 0.63133 0.68828 0.0
C1624 C 0.76513 0.63372 0.70627 0.0
C1625 C 0.77292 0.62105 0.68191 0.0
C1626 C 0.76139 0.6171 0.68761 0.0
C1627 C 0.74601 0.61921 0.70576 0.0
C1628 C 0.74221 0.62529 0.71813 0.0
C1629 C 0.75744 0.62331 0.69982 0.0
C1630 C 0.7499 0.63569 0.72441 0.0
C1631 C 0.76122 0.63989 0.71852 0.0
H1632 H 0.72651 0.50912 0.91967 0.0
H1633 H 0.69863 0.54067 0.92936 0.0
H1634 H 0.69742 0.53382 0.95197 0.0
H1635 H 0.70448 0.51909 0.9691 0.0
H1636 H 0.73223 0.48743 0.95939 0.0
H1637 H 0.73329 0.49414 0.9367 0.0
C1638 C 0.72013 0.51448 0.92671 0.0
C1639 C 0.71269 0.52541 0.92281 0.0
C1640 C 0.71949 0.5105 0.93972 0.0
C1641 C 0.70447 0.53222 0.93207 0.0
C1642 C 0.70378 0.52833 0.94503 0.0
C1643 C 0.71077 0.51366 0.96203 0.0
C1644 C 0.7183 0.5028 0.96597 0.0
C1645 C 0.71129 0.51752 0.94898 0.0
C1646 C 0.72635 0.49583 0.95665 0.0
C1647 C 0.72695 0.49966 0.94366 0.0
H1648 H 0.80098 0.48353 0.16499 0.0
H1649 H 0.82488 0.4504 0.14996 0.0
H1650 H 0.82643 0.44218 0.17211 0.0
H1651 H 0.82129 0.44457 0.19579 0.0
H1652 H 0.79971 0.47902 0.21162 0.0
H1653 H 0.79685 0.48661 0.18916 0.0
C1654 C 0.8065 0.47452 0.16662 0.0
C1655 C 0.81276 0.46752 0.15591 0.0
C1656 C 0.80771 0.4701 0.17949 0.0
C1657 C 0.82004 0.45596 0.15811 0.0
C1658 C 0.82088 0.45124 0.17074 0.0
C1659 C 0.81586 0.45367 0.19427 0.0
C1660 C 0.81052 0.46114 0.20521 0.0
C1661 C 0.81478 0.45823 0.18149 0.0
C1662 C 0.80381 0.47309 0.20325 0.0
C1663 C 0.8022 0.47742 0.19045 0.0
H1664 H 0.86086 0.55334 0.4534 0.0
H1665 H 0.83192 0.57425 0.43092 0.0
H1666 H 0.83379 0.55738 0.41218 0.0
H1667 H 0.84404 0.53699 0.40194 0.0
H1668 H 0.87239 0.51562 0.4247 0.0
H1669 H 0.87033 0.53234 0.44355 0.0
C1670 C 0.85494 0.55418 0.44441 0.0
C1671 C 0.84632 0.56507 0.44354 0.0
C1672 C 0.85598 0.54438 0.4337 0.0
C1673 C 0.83863 0.56596 0.43187 0.0
C1674 C 0.83971 0.55634 0.42112 0.0
C1675 C 0.84976 0.53599 0.41104 0.0
C1676 C 0.85841 0.52513 0.41188 0.0
C1677 C 0.84842 0.54556 0.42189 0.0
C1678 C 0.86564 0.52389 0.42378 0.0
C1679 C 0.8645 0.53346 0.43457 0.0
loop_
_geom_bond_atom_site_label_1
_geom_bond_atom_site_label_2
_geom_bond_distance
_geom_bond_site_symmetry_2
_ccdc_geom_bond_type
O0 Cd1 2.300 . S
O0 C7 1.275 . S
Cd1 O0 2.300 . S
Cd1 O9 2.381 . S
Cd1 O10 2.378 . S
O2 Cd3 2.385 . S
O2 C7 1.255 1_565 S
Cd3 O2 2.385 . S
Cd3 O4 2.317 . S
O4 Cd3 2.317 . S
O4 C5 1.232 . S
C5 O4 1.232 . S
C5 O6 1.218 . S
O6 C5 1.218 . S
C7 O0 1.275 . S
C7 O2 1.255 1_545 S
C8 O9 1.258 . S
C8 O10 1.256 . S
O9 Cd1 2.381 . S
O9 C8 1.258 . S
O10 Cd1 2.378 . S
O10 C8 1.256 . S
O11 Cd12 2.300 . S
O11 C18 1.275 . S
Cd12 O11 2.300 . S
Cd12 O20 2.381 . S
Cd12 O21 2.378 . S
O13 Cd14 2.385 . S
O13 C18 1.255 . S
Cd14 O13 2.385 . S
Cd14 O15 2.317 . S
O15 Cd14 2.317 . S
O15 C16 1.232 . S
C16 O15 1.232 . S
C16 O17 1.218 . S
O17 C16 1.218 . S
C18 O11 1.275 . S
C18 O13 1.255 . S
C19 O20 1.258 . S
C19 O21 1.256 . S
O20 Cd12 2.381 . S
O20 C19 1.258 . S
O21 Cd12 2.378 . S
O21 C19 1.256 . S
O22 Cd23 2.300 . S
O22 C29 1.275 . S
Cd23 O22 2.300 . S
Cd23 O31 2.381 . S
Cd23 O32 2.378 . S
O24 Cd25 2.385 . S
O24 C29 1.255 1_545 S
Cd25 O24 2.385 . S
Cd25 O26 2.317 . S
O26 Cd25 2.317 . S
O26 C27 1.232 . S
C27 O26 1.232 . S
C27 O28 1.218 . S
O28 C27 1.218 . S
C29 O22 1.275 . S
C29 O24 1.255 1_565 S
C30 O31 1.258 . S
C30 O32 1.256 . S
O31 Cd23 2.381 . S
O31 C30 1.258 . S
O32 Cd23 2.378 . S
O32 C30 1.256 . S
O33 Cd34 2.300 . S
O33 C40 1.275 . S
Cd34 O33 2.300 . S
Cd34 O42 2.381 . S
Cd34 O43 2.378 . S
O35 Cd36 2.385 . S
O35 C40 1.255 . S
Cd36 O35 2.385 . S
Cd36 O37 2.317 . S
O37 Cd36 2.317 . S
O37 C38 1.232 . S
C38 O37 1.232 . S
C38 O39 1.218 . S
O39 C38 1.218 . S
C40 O33 1.275 . S
C40 O35 1.255 . S
C41 O42 1.258 . S
C41 O43 1.256 . S
O42 Cd34 2.381 . S
O42 C41 1.258 . S
O43 Cd34 2.378 . S
O43 C41 1.256 . S
O44 Cd45 2.300 . S
O44 C51 1.275 . S
Cd45 O44 2.300 . S
Cd45 O53 2.381 . S
Cd45 O54 2.378 . S
O46 Cd47 2.385 . S
O46 C51 1.255 . S
Cd47 O46 2.385 . S
Cd47 O48 2.317 . S
O48 Cd47 2.317 . S
O48 C49 1.232 . S
C49 O48 1.232 . S
C49 O50 1.218 . S
O50 C49 1.218 . S
C51 O44 1.275 . S
C51 O46 1.255 . S
C52 O53 1.258 . S
C52 O54 1.256 . S
O53 Cd45 2.381 . S
O53 C52 1.258 . S
O54 Cd45 2.378 . S
O54 C52 1.256 . S
O55 Cd56 2.300 . S
O55 C62 1.275 . S
Cd56 O55 2.300 . S
Cd56 O64 2.381 . S
Cd56 O65 2.378 . S
O57 Cd58 2.385 . S
O57 C62 1.255 . S
Cd58 O57 2.385 . S
Cd58 O59 2.317 . S
O59 Cd58 2.317 . S
O59 C60 1.232 . S
C60 O59 1.232 . S
C60 O61 1.218 . S
O61 C60 1.218 . S
C62 O55 1.275 . S
C62 O57 1.255 . S
C63 O64 1.258 . S
C63 O65 1.256 . S
O64 Cd56 2.381 . S
O64 C63 1.258 . S
O65 Cd56 2.378 . S
O65 C63 1.256 . S
O66 Cd67 2.300 . S
O66 C73 1.275 . S
Cd67 O66 2.300 . S
Cd67 O75 2.381 . S
Cd67 O76 2.378 . S
O68 Cd69 2.385 . S
O68 C73 1.255 . S
Cd69 O68 2.385 . S
Cd69 O70 2.317 . S
O70 Cd69 2.317 . S
O70 C71 1.232 . S
C71 O70 1.232 . S
C71 O72 1.218 . S
O72 C71 1.218 . S
C73 O66 1.275 . S
C73 O68 1.255 . S
C74 O75 1.258 . S
C74 O76 1.256 . S
O75 Cd67 2.381 . S
O75 C74 1.258 . S
O76 Cd67 2.378 . S
O76 C74 1.256 . S
O77 Cd78 2.300 . S
O77 C84 1.275 . S
Cd78 O77 2.300 . S
Cd78 O86 2.381 . S
Cd78 O87 2.378 . S
O79 Cd80 2.385 . S
O79 C84 1.255 . S
Cd80 O79 2.385 . S
Cd80 O81 2.317 . S
O81 Cd80 2.317 . S
O81 C82 1.232 1_554 S
C82 O81 1.232 1_556 S
C82 O83 1.196 1_556 S
O83 C82 1.196 1_554 S
C84 O77 1.275 . S
C84 O79 1.255 . S
C85 O86 1.258 . S
C85 O87 1.256 . S
O86 Cd78 2.381 . S
O86 C85 1.258 . S
O87 Cd78 2.378 . S
O87 C85 1.256 . S
O88 Cd89 2.300 . S
O88 C95 1.275 . S
Cd89 O88 2.300 . S
Cd89 O97 2.381 . S
Cd89 O98 2.378 . S
O90 Cd91 2.385 . S
O90 C95 1.255 1_556 S
Cd91 O90 2.385 . S
Cd91 O92 2.317 . S
O92 Cd91 2.317 . S
O92 C93 1.232 . S
C93 O92 1.232 . S
C93 O94 1.218 . S
O94 C93 1.218 . S
C95 O88 1.275 . S
C95 O90 1.255 1_554 S
C96 O97 1.258 . S
C96 O98 1.256 . S
O97 Cd89 2.381 . S
O97 C96 1.258 . S
O98 Cd89 2.378 . S
O98 C96 1.256 . S
O99 Cd100 2.300 . S
O99 C106 1.275 . S
Cd100 O99 2.300 . S
Cd100 O108 2.381 . S
Cd100 O109 2.378 . S
O101 Cd102 2.385 . S
O101 C106 1.255 . S
Cd102 O101 2.385 . S
Cd102 O103 2.317 . S
O103 Cd102 2.317 . S
O103 C104 1.232 . S
C104 O103 1.232 . S
C104 O105 1.218 . S
O105 C104 1.218 . S
C106 O99 1.275 . S
C106 O101 1.255 . S
C107 O108 1.258 . S
C107 O109 1.256 . S
O108 Cd100 2.381 . S
O108 C107 1.258 . S
O109 Cd100 2.378 . S
O109 C107 1.256 . S
O110 Cd111 2.300 . S
O110 C117 1.275 . S
Cd111 O110 2.300 . S
Cd111 O119 2.381 . S
Cd111 O120 2.328 1_565 S
O112 Cd113 2.385 . S
O112 C117 1.255 . S
Cd113 O112 2.385 . S
Cd113 O114 2.317 . S
O114 Cd113 2.317 . S
O114 C115 1.232 . S
C115 O114 1.232 . S
C115 O116 1.218 . S
O116 C115 1.218 . S
C117 O110 1.275 . S
C117 O112 1.255 . S
C118 O119 1.258 . S
C118 O120 1.190 1_565 S
O119 Cd111 2.381 . S
O119 C118 1.258 . S
O120 Cd111 2.328 1_545 S
O120 C118 1.190 1_545 S
O121 Cd122 2.300 . S
O121 C128 1.275 . S
Cd122 O121 2.300 . S
Cd122 O130 2.381 . S
Cd122 O131 2.378 . S
O123 Cd124 2.385 . S
O123 C128 1.255 . S
Cd124 O123 2.385 . S
Cd124 O125 2.317 . S
O125 Cd124 2.317 . S
O125 C126 1.232 . S
C126 O125 1.232 . S
C126 O127 1.218 . S
O127 C126 1.218 . S
C128 O121 1.275 . S
C128 O123 1.255 . S
C129 O130 1.258 . S
C129 O131 1.256 . S
O130 Cd122 2.381 . S
O130 C129 1.258 . S
O131 Cd122 2.378 . S
O131 C129 1.256 . S
O132 Cd133 2.300 . S
O132 C139 1.275 . S
Cd133 O132 2.300 . S
Cd133 O141 2.381 . S
Cd133 O142 2.378 . S
O134 Cd135 2.385 . S
O134 C139 1.255 . S
Cd135 O134 2.385 . S
Cd135 O136 2.317 . S
O136 Cd135 2.317 . S
O136 C137 1.232 . S
C137 O136 1.232 . S
C137 O138 1.218 . S
O138 C137 1.218 . S
C139 O132 1.275 . S
C139 O134 1.255 . S
C140 O141 1.258 . S
C140 O142 1.256 . S
O141 Cd133 2.381 . S
O141 C140 1.258 . S
O142 Cd133 2.378 . S
O142 C140 1.256 . S
O143 Cd144 2.300 . S
O143 C150 1.275 . S
Cd144 O143 2.300 . S
Cd144 O152 2.381 . S
Cd144 O153 2.378 . S
O145 Cd146 2.385 . S
O145 C150 1.255 . S
Cd146 O145 2.385 . S
Cd146 O147 2.317 1_565 S
O147 Cd146 2.317 1_545 S
O147 C148 1.232 . S
C148 O147 1.232 . S
C148 O149 1.218 . S
O149 C148 1.218 . S
C150 O143 1.275 . S
C150 O145 1.255 . S
C151 O152 1.258 . S
C151 O153 1.256 . S
O152 Cd144 2.381 . S
O152 C151 1.258 . S
O153 Cd144 2.378 . S
O153 C151 1.256 . S
O154 Cd155 2.300 . S
O154 C161 1.275 . S
Cd155 O154 2.300 . S
Cd155 O163 2.381 . S
Cd155 O164 2.378 . S
O156 Cd157 2.385 . S
O156 C161 1.255 . S
Cd157 O156 2.385 . S
Cd157 O158 2.317 . S
O158 Cd157 2.317 . S
O158 C159 1.232 . S
C159 O158 1.232 . S
C159 O160 1.218 . S
O160 C159 1.218 . S
C161 O154 1.275 . S
C161 O156 1.255 . S
C162 O163 1.258 . S
C162 O164 1.256 . S
O163 Cd155 2.381 . S
O163 C162 1.258 . S
O164 Cd155 2.378 . S
O164 C162 1.256 . S
O165 Cd166 2.300 . S
O165 C172 1.275 . S
Cd166 O165 2.300 . S
Cd166 O174 2.381 . S
Cd166 O175 2.378 . S
O167 Cd168 2.385 . S
O167 C172 1.255 . S
Cd168 O167 2.385 . S
Cd168 O169 2.317 . S
O169 Cd168 2.317 . S
O169 C170 1.162 1_545 S
C170 O169 1.162 1_565 S
C170 O171 1.228 . S
O171 C170 1.228 . S
C172 O165 1.275 . S
C172 O167 1.255 . S
C173 O174 1.258 . S
C173 O175 1.256 . S
O174 Cd166 2.381 . S
O174 C173 1.258 . S
O175 Cd166 2.378 . S
O175 C173 1.256 . S
O176 Cd177 2.300 . S
O176 C183 1.275 . S
Cd177 O176 2.300 . S
Cd177 O185 2.381 . S
Cd177 O186 2.378 . S
O178 Cd179 2.385 1_455 S
O178 C183 1.255 . S
Cd179 O178 2.385 1_655 S
Cd179 O180 2.317 . S
O180 Cd179 2.317 . S
O180 C181 1.232 . S
C181 O180 1.232 . S
C181 O182 1.218 . S
O182 C181 1.218 . S
C183 O176 1.275 . S
C183 O178 1.255 . S
C184 O185 1.258 . S
C184 O186 1.256 . S
O185 Cd177 2.381 . S
O185 C184 1.258 . S
O186 Cd177 2.378 . S
O186 C184 1.256 . S
O187 Cd188 2.300 . S
O187 C194 1.275 . S
Cd188 O187 2.300 . S
Cd188 O196 2.381 . S
Cd188 O197 2.378 . S
O189 Cd190 2.385 . S
O189 C194 1.255 . S
Cd190 O189 2.385 . S
Cd190 O191 2.317 . S
O191 Cd190 2.317 . S
O191 C192 1.232 . S
C192 O191 1.232 . S
C192 O193 1.218 . S
O193 C192 1.218 . S
C194 O187 1.275 . S
C194 O189 1.255 . S
C195 O196 1.258 . S
C195 O197 1.256 . S
O196 Cd188 2.381 . S
O196 C195 1.258 . S
O197 Cd188 2.378 . S
O197 C195 1.256 . S
O198 Cd199 2.300 . S
O198 C205 1.275 . S
Cd199 O198 2.300 . S
Cd199 O207 2.381 . S
Cd199 O208 2.378 . S
O200 Cd201 2.385 . S
O200 C205 1.255 . S
Cd201 O200 2.385 . S
Cd201 O202 2.317 . S
O202 Cd201 2.317 . S
O202 C203 1.232 . S
C203 O202 1.232 . S
C203 O204 1.218 . S
O204 C203 1.218 . S
C205 O198 1.275 . S
C205 O200 1.255 . S
C206 O207 1.258 . S
C206 O208 1.256 . S
O207 Cd199 2.381 . S
O207 C206 1.258 . S
O208 Cd199 2.378 . S
O208 C206 1.256 . S
O209 Cd210 2.300 . S
O209 C216 1.275 . S
Cd210 O209 2.300 . S
Cd210 O218 2.381 . S
Cd210 O219 2.378 . S
O211 Cd212 2.385 . S
O211 C216 1.255 1_455 S
Cd212 O211 2.385 . S
Cd212 O213 2.317 . S
O213 Cd212 2.317 . S
O213 C214 1.232 . S
C214 O213 1.232 . S
C214 O215 1.218 . S
O215 C214 1.218 . S
C216 O209 1.275 . S
C216 O211 1.255 1_655 S
C217 O218 1.258 . S
C217 O219 1.256 . S
O218 Cd210 2.381 . S
O218 C217 1.258 . S
O219 Cd210 2.378 . S
O219 C217 1.256 . S
O220 Cd221 2.300 . S
O220 C227 1.275 . S
Cd221 O220 2.300 . S
Cd221 O229 2.381 . S
Cd221 O230 2.378 . S
O222 Cd223 2.385 . S
O222 C227 1.255 . S
Cd223 O222 2.385 . S
Cd223 O224 2.317 1_455 S
O224 Cd223 2.317 1_655 S
O224 C225 1.232 . S
C225 O224 1.232 . S
C225 O226 1.218 . S
O226 C225 1.218 . S
C227 O220 1.275 . S
C227 O222 1.255 . S
C228 O229 1.258 . S
C228 O230 1.256 . S
O229 Cd221 2.381 . S
O229 C228 1.258 . S
O230 Cd221 2.378 . S
O230 C228 1.256 . S
O231 Cd232 2.300 . S
O231 C238 1.275 . S
Cd232 O231 2.300 . S
Cd232 O240 2.381 . S
Cd232 O241 2.378 . S
O233 Cd234 2.385 . S
O233 C238 1.255 . S
Cd234 O233 2.385 . S
Cd234 O235 2.317 . S
O235 Cd234 2.317 . S
O235 C236 1.232 . S
C236 O235 1.232 . S
C236 O237 1.218 . S
O237 C236 1.218 . S
C238 O231 1.275 . S
C238 O233 1.255 . S
C239 O240 1.258 . S
C239 O241 1.256 . S
O240 Cd232 2.381 . S
O240 C239 1.258 . S
O241 Cd232 2.378 . S
O241 C239 1.256 . S
O242 Cd243 2.300 . S
O242 C249 1.275 . S
Cd243 O242 2.300 . S
Cd243 O251 2.381 . S
Cd243 O252 2.378 . S
O244 Cd245 2.385 . S
O244 C249 1.255 . S
Cd245 O244 2.385 . S
Cd245 O246 2.317 1_655 S
O246 Cd245 2.317 1_455 S
O246 C247 1.232 . S
C247 O246 1.232 . S
C247 O248 1.218 . S
O248 C247 1.218 . S
C249 O242 1.275 . S
C249 O244 1.255 . S
C250 O251 1.258 . S
C250 O252 1.256 . S
O251 Cd243 2.381 . S
O251 C250 1.258 . S
O252 Cd243 2.378 . S
O252 C250 1.256 . S
O253 Cd254 2.300 . S
O253 C260 1.275 . S
Cd254 O253 2.300 . S
Cd254 O262 2.381 . S
Cd254 O263 2.378 . S
O255 Cd256 2.385 . S
O255 C260 1.255 . S
Cd256 O255 2.385 . S
Cd256 O257 2.317 . S
O257 Cd256 2.317 . S
O257 C258 1.232 . S
C258 O257 1.232 . S
C258 O259 1.218 . S
O259 C258 1.218 . S
C260 O253 1.275 . S
C260 O255 1.255 . S
C261 O262 1.258 . S
C261 O263 1.256 . S
O262 Cd254 2.381 . S
O262 C261 1.258 . S
O263 Cd254 2.378 . S
O263 C261 1.256 . S
O264 Cd265 2.300 . S
O264 C271 1.275 . S
Cd265 O264 2.300 . S
Cd265 O273 2.381 . S
Cd265 O274 2.378 . S
O266 Cd267 2.385 . S
O266 C271 1.255 . S
Cd267 O266 2.385 . S
Cd267 O268 2.317 . S
O268 Cd267 2.317 . S
O268 C269 1.232 . S
C269 O268 1.232 . S
C269 O270 1.218 . S
O270 C269 1.218 . S
C271 O264 1.275 . S
C271 O266 1.255 . S
C272 O273 1.258 . S
C272 O274 1.256 . S
O273 Cd265 2.381 . S
O273 C272 1.258 . S
O274 Cd265 2.378 . S
O274 C272 1.256 . S
O275 Cd276 2.311 . S
O275 C282 1.279 . S
Cd276 O275 2.311 . S
Cd276 O284 2.381 . S
Cd276 O285 2.378 . S
O277 Cd278 2.385 . S
O277 C282 1.255 . S
Cd278 O277 2.385 . S
Cd278 O279 2.317 . S
O279 Cd278 2.317 . S
O279 C280 1.232 1_556 S
C280 O279 1.232 1_554 S
C280 O281 1.218 . S
O281 C280 1.218 . S
C282 O275 1.279 . S
C282 O277 1.255 . S
C283 O284 1.258 . S
C283 O285 1.256 . S
O284 Cd276 2.381 . S
O284 C283 1.258 . S
O285 Cd276 2.378 . S
O285 C283 1.256 . S
O286 Cd287 2.300 . S
O286 C293 1.275 . S
Cd287 O286 2.300 . S
Cd287 O295 2.381 . S
Cd287 O296 2.378 . S
O288 Cd289 2.385 . S
O288 C293 1.255 . S
Cd289 O288 2.385 . S
Cd289 O290 2.317 . S
O290 Cd289 2.317 . S
O290 C291 1.232 . S
C291 O290 1.232 . S
C291 O292 1.218 . S
O292 C291 1.218 . S
C293 O286 1.275 . S
C293 O288 1.255 . S
C294 O295 1.258 . S
C294 O296 1.256 . S
O295 Cd287 2.381 . S
O295 C294 1.258 . S
O296 Cd287 2.378 . S
O296 C294 1.256 . S
O297 Cd298 2.300 . S
O297 C304 1.275 . S
Cd298 O297 2.300 . S
Cd298 O306 2.381 . S
Cd298 O307 2.378 . S
O299 Cd300 2.385 . S
O299 C304 1.255 . S
Cd300 O299 2.385 . S
Cd300 O301 2.317 . S
O301 Cd300 2.317 . S
O301 C302 1.232 . S
C302 O301 1.232 . S
C302 O303 1.218 . S
O303 C302 1.218 . S
C304 O297 1.275 . S
C304 O299 1.255 . S
C305 O306 1.258 . S
C305 O307 1.256 . S
O306 Cd298 2.381 . S
O306 C305 1.258 . S
O307 Cd298 2.378 . S
O307 C305 1.256 . S
O308 Cd309 2.300 . S
O308 C315 1.275 . S
Cd309 O308 2.300 . S
Cd309 O317 2.381 . S
Cd309 O318 2.378 . S
O310 Cd311 2.385 . S
O310 C315 1.255 . S
Cd311 O310 2.385 . S
Cd311 O312 2.317 . S
O312 Cd311 2.317 . S
O312 C313 1.232 . S
C313 O312 1.232 . S
C313 O314 1.218 . S
O314 C313 1.218 . S
C315 O308 1.275 . S
C315 O310 1.255 . S
C316 O317 1.258 . S
C316 O318 1.256 . S
O317 Cd309 2.381 . S
O317 C316 1.258 . S
O318 Cd309 2.378 . S
O318 C316 1.256 . S
O319 Cd320 2.300 . S
O319 C326 1.275 . S
Cd320 O319 2.300 . S
Cd320 O328 2.381 . S
Cd320 O329 2.378 . S
O321 Cd322 2.385 . S
O321 C326 1.255 . S
Cd322 O321 2.385 . S
Cd322 O323 2.317 . S
O323 Cd322 2.317 . S
O323 C324 1.232 . S
C324 O323 1.232 . S
C324 O325 1.218 . S
O325 C324 1.218 . S
C326 O319 1.275 . S
C326 O321 1.255 . S
C327 O328 1.258 . S
C327 O329 1.256 . S
O328 Cd320 2.381 . S
O328 C327 1.258 . S
O329 Cd320 2.378 . S
O329 C327 1.256 . S
O330 Cd331 2.300 . S
O330 C337 1.275 . S
Cd331 O330 2.300 . S
Cd331 O339 2.381 . S
Cd331 O340 2.378 . S
O332 Cd333 2.385 . S
O332 C337 1.255 . S
Cd333 O332 2.385 . S
Cd333 O334 2.317 . S
O334 Cd333 2.317 . S
O334 C335 1.232 . S
C335 O334 1.232 . S
C335 O336 1.218 . S
O336 C335 1.218 . S
C337 O330 1.275 . S
C337 O332 1.255 . S
C338 O339 1.258 . S
C338 O340 1.256 . S
O339 Cd331 2.381 . S
O339 C338 1.258 . S
O340 Cd331 2.378 . S
O340 C338 1.256 . S
O341 Cd342 2.300 . S
O341 C348 1.275 . S
Cd342 O341 2.300 . S
Cd342 O350 2.381 . S
Cd342 O351 2.378 . S
O343 Cd344 2.385 . S
O343 C348 1.255 . S
Cd344 O343 2.385 . S
Cd344 O345 2.317 . S
O345 Cd344 2.317 . S
O345 C346 1.232 . S
C346 O345 1.232 . S
C346 O347 1.218 . S
O347 C346 1.218 . S
C348 O341 1.275 . S
C348 O343 1.255 . S
C349 O350 1.258 . S
C349 O351 1.256 . S
O350 Cd342 2.381 . S
O350 C349 1.258 . S
O351 Cd342 2.378 . S
O351 C349 1.256 . S
O352 Cd353 2.300 . S
O352 C359 1.275 . S
Cd353 O352 2.300 . S
Cd353 O361 2.381 . S
Cd353 O362 2.378 . S
O354 Cd355 2.385 . S
O354 C359 1.255 . S
Cd355 O354 2.385 . S
Cd355 O356 2.317 . S
O356 Cd355 2.317 . S
O356 C357 1.232 . S
C357 O356 1.232 . S
C357 O358 1.218 . S
O358 C357 1.218 . S
C359 O352 1.275 . S
C359 O354 1.255 . S
C360 O361 1.258 . S
C360 O362 1.256 . S
O361 Cd353 2.381 . S
O361 C360 1.258 . S
O362 Cd353 2.378 . S
O362 C360 1.256 . S
O363 Cd364 2.300 . S
O363 C370 1.275 . S
Cd364 O363 2.300 . S
Cd364 O372 2.381 . S
Cd364 O373 2.378 . S
O365 Cd366 2.385 . S
O365 C370 1.255 . S
Cd366 O365 2.385 . S
Cd366 O367 2.317 . S
O367 Cd366 2.317 . S
O367 C368 1.232 . S
C368 O367 1.232 . S
C368 O369 1.218 . S
O369 C368 1.218 . S
C370 O363 1.275 . S
C370 O365 1.255 . S
C371 O372 1.258 . S
C371 O373 1.256 . S
O372 Cd364 2.381 . S
O372 C371 1.258 . S
O373 Cd364 2.378 . S
O373 C371 1.256 . S
O374 Cd375 2.300 . S
O374 C381 1.275 . S
Cd375 O374 2.300 . S
Cd375 O383 2.381 . S
Cd375 O384 2.378 . S
O376 Cd377 2.385 . S
O376 C381 1.255 . S
Cd377 O376 2.385 . S
Cd377 O378 2.317 . S
O378 Cd377 2.317 . S
O378 C379 1.232 . S
C379 O378 1.232 . S
C379 O380 1.218 . S
O380 C379 1.218 . S
C381 O374 1.275 . S
C381 O376 1.255 . S
C382 O383 1.258 . S
C382 O384 1.256 . S
O383 Cd375 2.381 . S
O383 C382 1.258 . S
O384 Cd375 2.378 . S
O384 C382 1.256 . S
O385 Cd386 2.300 . S
O385 C392 1.275 . S
Cd386 O385 2.300 . S
Cd386 O394 2.381 . S
Cd386 O395 2.378 . S
O387 Cd388 2.385 . S
O387 C392 1.255 . S
Cd388 O387 2.385 . S
Cd388 O389 2.317 . S
O389 Cd388 2.317 . S
O389 C390 1.232 . S
C390 O389 1.232 . S
C390 O391 1.218 . S
O391 C390 1.218 . S
C392 O385 1.275 . S
C392 O387 1.255 . S
C393 O394 1.258 . S
C393 O395 1.256 . S
O394 Cd386 2.381 . S
O394 C393 1.258 . S
O395 Cd386 2.378 . S
O395 C393 1.256 . S
O396 Cd397 2.300 . S
O396 C403 1.275 . S
Cd397 O396 2.300 . S
Cd397 O405 2.381 . S
Cd397 O406 2.378 . S
O398 Cd399 2.385 . S
O398 C403 1.255 1_554 S
Cd399 O398 2.385 . S
Cd399 O400 2.317 . S
O400 Cd399 2.317 . S
O400 C401 1.232 . S
C401 O400 1.232 . S
C401 O402 1.218 . S
O402 C401 1.218 . S
C403 O396 1.275 . S
C403 O398 1.255 1_556 S
C404 O405 1.258 . S
C404 O406 1.256 . S
O405 Cd397 2.381 . S
O405 C404 1.258 . S
O406 Cd397 2.378 . S
O406 C404 1.256 . S
O407 Cd408 2.300 . S
O407 C414 1.275 . S
Cd408 O407 2.300 . S
Cd408 O416 2.381 . S
Cd408 O417 2.378 . S
O409 Cd410 2.385 . S
O409 C414 1.255 . S
Cd410 O409 2.385 . S
Cd410 O411 2.317 . S
O411 Cd410 2.317 . S
O411 C412 1.232 . S
C412 O411 1.232 . S
C412 O413 1.218 . S
O413 C412 1.218 . S
C414 O407 1.275 . S
C414 O409 1.255 . S
C415 O416 1.258 . S
C415 O417 1.256 . S
O416 Cd408 2.381 . S
O416 C415 1.258 . S
O417 Cd408 2.378 . S
O417 C415 1.256 . S
O418 Cd419 2.300 . S
O418 C425 1.275 . S
Cd419 O418 2.300 . S
Cd419 O427 2.381 . S
Cd419 O428 2.378 . S
O420 Cd421 2.385 . S
O420 C425 1.255 . S
Cd421 O420 2.385 . S
Cd421 O422 2.317 . S
O422 Cd421 2.317 . S
O422 C423 1.232 . S
C423 O422 1.232 . S
C423 O424 1.218 . S
O424 C423 1.218 . S
C425 O418 1.275 . S
C425 O420 1.255 . S
C426 O427 1.258 . S
C426 O428 1.256 . S
O427 Cd419 2.381 . S
O427 C426 1.258 . S
O428 Cd419 2.378 . S
O428 C426 1.256 . S
O429 Cd430 2.300 . S
O429 C436 1.275 . S
Cd430 O429 2.300 . S
Cd430 O438 2.381 . S
Cd430 O439 2.378 . S
O431 Cd432 2.385 . S
O431 C436 1.255 . S
Cd432 O431 2.385 . S
Cd432 O433 2.317 . S
O433 Cd432 2.317 . S
O433 C434 1.232 . S
C434 O433 1.232 . S
C434 O435 1.218 . S
O435 C434 1.218 . S
C436 O429 1.275 . S
C436 O431 1.255 . S
C437 O438 1.258 . S
C437 O439 1.256 . S
O438 Cd430 2.381 . S
O438 C437 1.258 . S
O439 Cd430 2.378 . S
O439 C437 1.256 . S
O440 Cd441 2.300 . S
O440 C447 1.275 . S
Cd441 O440 2.300 . S
Cd441 O449 2.381 . S
Cd441 O450 2.378 . S
O442 Cd443 2.385 . S
O442 C447 1.255 . S
Cd443 O442 2.385 . S
Cd443 O444 2.317 . S
O444 Cd443 2.317 . S
O444 C445 1.232 . S
C445 O444 1.232 . S
C445 O446 1.218 . S
O446 C445 1.218 . S
C447 O440 1.275 . S
C447 O442 1.255 . S
C448 O449 1.258 . S
C448 O450 1.256 . S
O449 Cd441 2.381 . S
O449 C448 1.258 . S
O450 Cd441 2.378 . S
O450 C448 1.256 . S
O451 Cd452 2.300 . S
O451 C458 1.275 . S
Cd452 O451 2.300 . S
Cd452 O460 2.381 . S
Cd452 O461 2.378 . S
O453 Cd454 2.385 . S
O453 C458 1.255 . S
Cd454 O453 2.385 . S
Cd454 O455 2.317 . S
O455 Cd454 2.317 . S
O455 C456 1.232 . S
C456 O455 1.232 . S
C456 O457 1.218 . S
O457 C456 1.218 . S
C458 O451 1.275 . S
C458 O453 1.255 . S
C459 O460 1.258 . S
C459 O461 1.256 . S
O460 Cd452 2.381 . S
O460 C459 1.258 . S
O461 Cd452 2.378 . S
O461 C459 1.256 . S
O462 Cd463 2.300 . S
O462 C469 1.275 . S
Cd463 O462 2.300 . S
Cd463 O471 2.381 . S
Cd463 O472 2.378 . S
O464 Cd465 2.385 . S
O464 C469 1.255 . S
Cd465 O464 2.385 . S
Cd465 O466 2.317 . S
O466 Cd465 2.317 . S
O466 C467 1.232 . S
C467 O466 1.232 . S
C467 O468 1.218 . S
O468 C467 1.218 . S
C469 O462 1.275 . S
C469 O464 1.255 . S
C470 O471 1.258 . S
C470 O472 1.256 . S
O471 Cd463 2.381 . S
O471 C470 1.258 . S
O472 Cd463 2.378 . S
O472 C470 1.256 . S
O473 Cd474 2.300 . S
O473 C480 1.275 . S
Cd474 O473 2.300 . S
Cd474 O482 2.381 . S
Cd474 O483 2.378 . S
O475 Cd476 2.385 . S
O475 C480 1.255 . S
Cd476 O475 2.385 . S
Cd476 O477 2.317 . S
O477 Cd476 2.317 . S
O477 C478 1.232 . S
C478 O477 1.232 . S
C478 O479 1.218 . S
O479 C478 1.218 . S
C480 O473 1.275 . S
C480 O475 1.255 . S
C481 O482 1.258 . S
C481 O483 1.256 . S
O482 Cd474 2.381 . S
O482 C481 1.258 . S
O483 Cd474 2.378 . S
O483 C481 1.256 . S
O484 Cd485 2.300 . S
O484 C491 1.275 . S
Cd485 O484 2.300 . S
Cd485 O493 2.381 . S
Cd485 O494 2.378 . S
O486 Cd487 2.385 . S
O486 C491 1.255 . S
Cd487 O486 2.385 . S
Cd487 O488 2.317 . S
O488 Cd487 2.317 . S
O488 C489 1.232 . S
C489 O488 1.232 . S
C489 O490 1.218 . S
O490 C489 1.218 . S
C491 O484 1.275 . S
C491 O486 1.255 . S
C492 O493 1.258 . S
C492 O494 1.256 . S
O493 Cd485 2.381 . S
O493 C492 1.258 . S
O494 Cd485 2.378 . S
O494 C492 1.256 . S
O495 Cd496 2.300 . S
O495 C502 1.275 . S
Cd496 O495 2.300 . S
Cd496 O504 2.381 . S
Cd496 O505 2.378 . S
O497 Cd498 2.385 . S
O497 C502 1.255 . S
Cd498 O497 2.385 . S
Cd498 O499 2.317 . S
O499 Cd498 2.317 . S
O499 C500 1.232 . S
C500 O499 1.232 . S
C500 O501 1.218 . S
O501 C500 1.218 . S
C502 O495 1.275 . S
C502 O497 1.255 . S
C503 O504 1.258 . S
C503 O505 1.256 . S
O504 Cd496 2.381 . S
O504 C503 1.258 . S
O505 Cd496 2.378 . S
O505 C503 1.256 . S
O506 Cd507 2.300 . S
O506 C513 1.275 . S
Cd507 O506 2.300 . S
Cd507 O515 2.381 . S
Cd507 O516 2.378 . S
O508 Cd509 2.385 . S
O508 C513 1.255 . S
Cd509 O508 2.385 . S
Cd509 O510 2.317 . S
O510 Cd509 2.317 . S
O510 C511 1.232 . S
C511 O510 1.232 . S
C511 O512 1.218 . S
O512 C511 1.218 . S
C513 O506 1.275 . S
C513 O508 1.255 . S
C514 O515 1.258 . S
C514 O516 1.256 . S
O515 Cd507 2.381 . S
O515 C514 1.258 . S
O516 Cd507 2.378 . S
O516 C514 1.256 . S
O517 Cd518 2.300 . S
O517 C524 1.275 . S
Cd518 O517 2.300 . S
Cd518 O526 2.381 . S
Cd518 O527 2.378 . S
O519 Cd520 2.385 . S
O519 C524 1.255 . S
Cd520 O519 2.385 . S
Cd520 O521 2.317 . S
O521 Cd520 2.317 . S
O521 C522 1.232 . S
C522 O521 1.232 . S
C522 O523 1.218 . S
O523 C522 1.218 . S
C524 O517 1.275 . S
C524 O519 1.255 . S
C525 O526 1.258 . S
C525 O527 1.256 . S
O526 Cd518 2.381 . S
O526 C525 1.258 . S
O527 Cd518 2.378 . S
O527 C525 1.256 . S
H528 C534 0.930 . S
H529 C537 0.930 . S
H530 C538 0.930 . S
H531 C539 0.930 . S
H532 C542 0.930 . S
H533 C543 0.930 . S
C534 H528 0.930 . S
C534 C535 1.355 . S
C534 C536 1.415 . S
C535 C534 1.355 . S
C535 C537 1.419 . S
C536 C534 1.415 . S
C536 C541 1.425 . S
C536 C543 1.409 . S
C537 H529 0.930 . S
C537 C535 1.419 . S
C537 C538 1.362 . S
C538 H530 0.930 . S
C538 C537 1.362 . S
C538 C541 1.409 . S
C539 H531 0.930 . S
C539 C540 1.355 . S
C539 C541 1.415 . S
C540 C539 1.355 . S
C540 C542 1.419 . S
C541 C536 1.425 . S
C541 C538 1.409 . S
C541 C539 1.415 . S
C542 H532 0.930 . S
C542 C540 1.419 . S
C542 C543 1.362 . S
C543 H533 0.930 . S
C543 C536 1.409 . S
C543 C542 1.362 . S
H544 C550 0.930 . S
H545 C553 0.930 . S
H546 C554 0.930 . S
H547 C555 0.930 . S
H548 C558 0.930 . S
H549 C559 0.930 . S
C550 H544 0.930 . S
C550 C551 1.355 . S
C550 C552 1.415 . S
C551 C550 1.355 . S
C551 C553 1.419 . S
C552 C550 1.415 . S
C552 C557 1.425 . S
C552 C559 1.409 . S
C553 H545 0.930 . S
C553 C551 1.419 . S
C553 C554 1.362 . S
C554 H546 0.930 . S
C554 C553 1.362 . S
C554 C557 1.409 . S
C555 H547 0.930 . S
C555 C556 1.355 . S
C555 C557 1.415 . S
C556 C555 1.355 . S
C556 C558 1.419 . S
C557 C552 1.425 . S
C557 C554 1.409 . S
C557 C555 1.415 . S
C558 H548 0.930 . S
C558 C556 1.419 . S
C558 C559 1.362 . S
C559 H549 0.930 . S
C559 C552 1.409 . S
C559 C558 1.362 . S
H560 C566 0.930 . S
H561 C569 0.930 . S
H562 C570 0.930 . S
H563 C571 0.930 . S
H564 C574 0.930 . S
H565 C575 0.930 . S
C566 H560 0.930 . S
C566 C567 1.355 . S
C566 C568 1.415 . S
C567 C566 1.355 . S
C567 C569 1.419 . S
C568 C566 1.415 . S
C568 C573 1.425 . S
C568 C575 1.409 . S
C569 H561 0.930 . S
C569 C567 1.419 . S
C569 C570 1.362 . S
C570 H562 0.930 . S
C570 C569 1.362 . S
C570 C573 1.409 . S
C571 H563 0.930 . S
C571 C572 1.355 . S
C571 C573 1.415 . S
C572 C571 1.355 . S
C572 C574 1.419 . S
C573 C568 1.425 . S
C573 C570 1.409 . S
C573 C571 1.415 . S
C574 H564 0.930 . S
C574 C572 1.419 . S
C574 C575 1.362 . S
C575 H565 0.930 . S
C575 C568 1.409 . S
C575 C574 1.362 . S
H576 C582 0.930 . S
H577 C585 0.930 . S
H578 C586 0.930 . S
H579 C587 0.930 . S
H580 C590 0.930 . S
H581 C591 0.930 . S
C582 H576 0.930 . S
C582 C583 1.355 . S
C582 C584 1.415 . S
C583 C582 1.355 . S
C583 C585 1.419 . S
C584 C582 1.415 . S
C584 C589 1.425 . S
C584 C591 1.409 . S
C585 H577 0.930 . S
C585 C583 1.419 . S
C585 C586 1.362 . S
C586 H578 0.930 . S
C586 C585 1.362 . S
C586 C589 1.409 . S
C587 H579 0.930 . S
C587 C588 1.355 . S
C587 C589 1.415 . S
C588 C587 1.355 . S
C588 C590 1.419 . S
C589 C584 1.425 . S
C589 C586 1.409 . S
C589 C587 1.415 . S
C590 H580 0.930 . S
C590 C588 1.419 . S
C590 C591 1.362 . S
C591 H581 0.930 . S
C591 C584 1.409 . S
C591 C590 1.362 . S
H592 C598 0.930 . S
H593 C601 0.930 . S
H594 C602 0.930 . S
H595 C603 0.930 . S
H596 C606 0.930 . S
H597 C607 0.930 . S
C598 H592 0.930 . S
C598 C599 1.355 . S
C598 C600 1.415 . S
C599 C598 1.355 . S
C599 C601 1.419 . S
C600 C598 1.415 . S
C600 C605 1.425 . S
C600 C607 1.409 . S
C601 H593 0.930 . S
C601 C599 1.419 . S
C601 C602 1.362 . S
C602 H594 0.930 . S
C602 C601 1.362 . S
C602 C605 1.409 . S
C603 H595 0.930 . S
C603 C604 1.355 . S
C603 C605 1.415 . S
C604 C603 1.355 . S
C604 C606 1.419 . S
C605 C600 1.425 . S
C605 C602 1.409 . S
C605 C603 1.415 . S
C606 H596 0.930 . S
C606 C604 1.419 . S
C606 C607 1.362 . S
C607 H597 0.930 . S
C607 C600 1.409 . S
C607 C606 1.362 . S
H608 C614 0.930 . S
H609 C617 0.930 . S
H610 C618 0.930 . S
H611 C619 0.930 . S
H612 C622 0.930 1_545 S
H613 C623 0.946 . S
C614 H608 0.930 . S
C614 C615 1.355 . S
C614 C616 1.415 . S
C615 C614 1.355 . S
C615 C617 1.419 . S
C616 C614 1.415 . S
C616 C621 1.425 . S
C616 C623 1.409 . S
C617 H609 0.930 . S
C617 C615 1.419 . S
C617 C618 1.362 . S
C618 H610 0.930 . S
C618 C617 1.362 . S
C618 C621 1.409 . S
C619 H611 0.930 . S
C619 C620 1.355 . S
C619 C621 1.415 . S
C620 C619 1.355 . S
C620 C622 1.419 . S
C621 C616 1.425 . S
C621 C618 1.409 . S
C621 C619 1.415 . S
C622 H612 0.930 1_565 S
C622 C620 1.419 . S
C622 C623 1.362 . S
C623 H613 0.946 . S
C623 C616 1.409 . S
C623 C622 1.362 . S
H624 C630 0.930 . S
H625 C633 0.930 . S
H626 C634 0.930 . S
H627 C635 0.930 . S
H628 C638 0.930 . S
H629 C639 0.930 . S
C630 H624 0.930 . S
C630 C631 1.355 . S
C630 C632 1.415 . S
C631 C630 1.355 . S
C631 C633 1.419 . S
C632 C630 1.415 . S
C632 C637 1.425 . S
C632 C639 1.409 . S
C633 H625 0.930 . S
C633 C631 1.419 . S
C633 C634 1.362 . S
C634 H626 0.930 . S
C634 C633 1.362 . S
C634 C637 1.409 . S
C635 H627 0.930 . S
C635 C636 1.355 . S
C635 C637 1.415 . S
C636 C635 1.355 . S
C636 C638 1.419 . S
C637 C632 1.425 . S
C637 C634 1.409 . S
C637 C635 1.415 . S
C638 H628 0.930 . S
C638 C636 1.419 . S
C638 C639 1.362 . S
C639 H629 0.930 . S
C639 C632 1.409 . S
C639 C638 1.362 . S
H640 C646 0.930 . S
H641 C649 0.930 . S
H642 C650 0.930 . S
H643 C651 0.930 . S
H644 C654 0.930 . S
H645 C655 0.930 . S
C646 H640 0.930 . S
C646 C647 1.355 . S
C646 C648 1.415 . S
C647 C646 1.355 . S
C647 C649 1.419 . S
C648 C646 1.415 . S
C648 C653 1.425 . S
C648 C655 1.409 . S
C649 H641 0.930 . S
C649 C647 1.419 . S
C649 C650 1.362 . S
C650 H642 0.930 . S
C650 C649 1.362 . S
C650 C653 1.409 . S
C651 H643 0.930 . S
C651 C652 1.355 . S
C651 C653 1.415 . S
C652 C651 1.355 . S
C652 C654 1.419 . S
C653 C648 1.425 . S
C653 C650 1.409 . S
C653 C651 1.415 . S
C654 H644 0.930 . S
C654 C652 1.419 . S
C654 C655 1.362 . S
C655 H645 0.930 . S
C655 C648 1.409 . S
C655 C654 1.362 . S
H656 C662 0.930 . S
H657 C665 0.930 . S
H658 C666 0.930 . S
H659 C667 0.930 . S
H660 C670 0.930 . S
H661 C671 0.930 . S
C662 H656 0.930 . S
C662 C663 1.355 . S
C662 C664 1.415 . S
C663 C662 1.355 . S
C663 C665 1.419 . S
C664 C662 1.415 . S
C664 C669 1.425 . S
C664 C671 1.409 . S
C665 H657 0.930 . S
C665 C663 1.419 . S
C665 C666 1.362 . S
C666 H658 0.930 . S
C666 C665 1.362 . S
C666 C669 1.409 . S
C667 H659 0.930 . S
C667 C668 1.355 . S
C667 C669 1.415 . S
C668 C667 1.355 . S
C668 C670 1.419 . S
C669 C664 1.425 . S
C669 C666 1.409 . S
C669 C667 1.415 . S
C670 H660 0.930 . S
C670 C668 1.419 . S
C670 C671 1.362 . S
C671 H661 0.930 . S
C671 C664 1.409 . S
C671 C670 1.362 . S
H672 C678 0.930 . S
H673 C681 0.930 . S
H674 C682 0.930 . S
H675 C683 0.930 . S
H676 C686 0.930 . S
H677 C687 0.930 . S
C678 H672 0.930 . S
C678 C679 1.355 . S
C678 C680 1.415 . S
C679 C678 1.355 . S
C679 C681 1.419 . S
C680 C678 1.415 . S
C680 C685 1.425 . S
C680 C687 1.409 . S
C681 H673 0.930 . S
C681 C679 1.419 . S
C681 C682 1.362 . S
C682 H674 0.930 . S
C682 C681 1.362 . S
C682 C685 1.409 . S
C683 H675 0.930 . S
C683 C684 1.355 . S
C683 C685 1.415 . S
C684 C683 1.355 . S
C684 C686 1.419 . S
C685 C680 1.425 . S
C685 C682 1.409 . S
C685 C683 1.415 . S
C686 H676 0.930 . S
C686 C684 1.419 . S
C686 C687 1.362 . S
C687 H677 0.930 . S
C687 C680 1.409 . S
C687 C686 1.362 . S
H688 C694 0.930 . S
H689 C697 0.930 . S
H690 C698 0.930 . S
H691 C699 0.930 . S
H692 C702 0.930 . S
H693 C703 0.930 . S
C694 H688 0.930 . S
C694 C695 1.355 . S
C694 C696 1.415 . S
C695 C694 1.355 . S
C695 C697 1.419 . S
C696 C694 1.415 . S
C696 C701 1.425 . S
C696 C703 1.409 . S
C697 H689 0.930 . S
C697 C695 1.419 . S
C697 C698 1.362 . S
C698 H690 0.930 . S
C698 C697 1.362 . S
C698 C701 1.409 . S
C699 H691 0.930 . S
C699 C700 1.355 . S
C699 C701 1.415 . S
C700 C699 1.355 . S
C700 C702 1.419 . S
C701 C696 1.425 . S
C701 C698 1.409 . S
C701 C699 1.415 . S
C702 H692 0.930 . S
C702 C700 1.419 . S
C702 C703 1.362 . S
C703 H693 0.930 . S
C703 C696 1.409 . S
C703 C702 1.362 . S
H704 C710 0.930 . S
H705 C713 0.930 . S
H706 C714 0.930 . S
H707 C715 0.930 . S
H708 C718 0.930 . S
H709 C719 0.930 . S
C710 H704 0.930 . S
C710 C711 1.355 . S
C710 C712 1.415 . S
C711 C710 1.355 . S
C711 C713 1.419 . S
C712 C710 1.415 . S
C712 C717 1.425 . S
C712 C719 1.409 . S
C713 H705 0.930 . S
C713 C711 1.419 . S
C713 C714 1.362 . S
C714 H706 0.930 . S
C714 C713 1.362 . S
C714 C717 1.409 . S
C715 H707 0.930 . S
C715 C716 1.355 . S
C715 C717 1.415 . S
C716 C715 1.355 . S
C716 C718 1.419 . S
C717 C712 1.425 . S
C717 C714 1.409 . S
C717 C715 1.415 . S
C718 H708 0.930 . S
C718 C716 1.419 . S
C718 C719 1.362 . S
C719 H709 0.930 . S
C719 C712 1.409 . S
C719 C718 1.362 . S
H720 C726 0.930 . S
H721 C729 0.930 . S
H722 C730 0.930 . S
H723 C731 0.930 . S
H724 C734 0.930 . S
H725 C735 0.930 . S
C726 H720 0.930 . S
C726 C727 1.355 . S
C726 C728 1.415 . S
C727 C726 1.355 . S
C727 C729 1.419 . S
C728 C726 1.415 . S
C728 C733 1.425 . S
C728 C735 1.409 . S
C729 H721 0.930 . S
C729 C727 1.419 . S
C729 C730 1.362 . S
C730 H722 0.930 . S
C730 C729 1.362 . S
C730 C733 1.409 . S
C731 H723 0.930 . S
C731 C732 1.355 . S
C731 C733 1.415 . S
C732 C731 1.355 . S
C732 C734 1.419 . S
C733 C728 1.425 . S
C733 C730 1.409 . S
C733 C731 1.415 . S
C734 H724 0.930 . S
C734 C732 1.419 . S
C734 C735 1.362 . S
C735 H725 0.930 . S
C735 C728 1.409 . S
C735 C734 1.362 . S
H736 C742 0.930 . S
H737 C745 0.930 . S
H738 C746 0.930 . S
H739 C747 0.930 . S
H740 C750 0.930 . S
H741 C751 0.930 . S
C742 H736 0.930 . S
C742 C743 1.355 . S
C742 C744 1.415 . S
C743 C742 1.355 . S
C743 C745 1.419 . S
C744 C742 1.415 . S
C744 C749 1.425 . S
C744 C751 1.409 . S
C745 H737 0.930 . S
C745 C743 1.419 . S
C745 C746 1.362 . S
C746 H738 0.930 . S
C746 C745 1.362 . S
C746 C749 1.409 . S
C747 H739 0.930 . S
C747 C748 1.355 . S
C747 C749 1.415 . S
C748 C747 1.355 . S
C748 C750 1.419 . S
C749 C744 1.425 . S
C749 C746 1.409 . S
C749 C747 1.415 . S
C750 H740 0.930 . S
C750 C748 1.419 . S
C750 C751 1.362 . S
C751 H741 0.930 . S
C751 C744 1.409 . S
C751 C750 1.362 . S
H752 C758 0.930 . S
H753 C761 0.930 . S
H754 C762 0.930 . S
H755 C763 0.930 . S
H756 C766 0.930 . S
H757 C767 0.930 . S
C758 H752 0.930 . S
C758 C759 1.355 . S
C758 C760 1.415 . S
C759 C758 1.355 . S
C759 C761 1.419 . S
C760 C758 1.415 . S
C760 C765 1.425 . S
C760 C767 1.409 . S
C761 H753 0.930 . S
C761 C759 1.419 . S
C761 C762 1.362 . S
C762 H754 0.930 . S
C762 C761 1.362 . S
C762 C765 1.409 . S
C763 H755 0.930 . S
C763 C764 1.355 . S
C763 C765 1.415 . S
C764 C763 1.355 . S
C764 C766 1.419 . S
C765 C760 1.425 . S
C765 C762 1.409 . S
C765 C763 1.415 . S
C766 H756 0.930 . S
C766 C764 1.419 . S
C766 C767 1.362 . S
C767 H757 0.930 . S
C767 C760 1.409 . S
C767 C766 1.362 . S
H768 C774 0.930 . S
H769 C777 0.930 . S
H770 C778 0.930 . S
H771 C779 0.930 . S
H772 C782 0.930 . S
H773 C783 0.930 . S
C774 H768 0.930 . S
C774 C775 1.355 . S
C774 C776 1.415 . S
C775 C774 1.355 . S
C775 C777 1.419 . S
C776 C774 1.415 . S
C776 C781 1.425 . S
C776 C783 1.409 . S
C777 H769 0.930 . S
C777 C775 1.419 . S
C777 C778 1.362 . S
C778 H770 0.930 . S
C778 C777 1.362 . S
C778 C781 1.409 . S
C779 H771 0.930 . S
C779 C780 1.355 . S
C779 C781 1.415 . S
C780 C779 1.355 . S
C780 C782 1.419 . S
C781 C776 1.425 . S
C781 C778 1.409 . S
C781 C779 1.415 . S
C782 H772 0.930 . S
C782 C780 1.419 . S
C782 C783 1.362 . S
C783 H773 0.930 . S
C783 C776 1.409 . S
C783 C782 1.362 . S
H784 C790 0.930 . S
H785 C793 0.929 . S
H786 C794 0.930 . S
H787 C795 0.930 1_556 S
H788 C798 0.930 . S
H789 C799 0.930 . S
C790 H784 0.930 . S
C790 C791 1.355 . S
C790 C792 1.415 . S
C791 C790 1.355 . S
C791 C793 1.420 1_554 S
C792 C790 1.415 . S
C792 C797 1.425 . S
C792 C799 1.409 . S
C793 H785 0.929 . S
C793 C791 1.420 1_556 S
C793 C794 1.362 . S
C794 H786 0.930 . S
C794 C793 1.362 . S
C794 C797 1.409 1_556 S
C795 H787 0.930 1_554 S
C795 C796 1.355 . S
C795 C797 1.415 . S
C796 C795 1.355 . S
C796 C798 1.419 . S
C797 C792 1.425 . S
C797 C794 1.409 1_554 S
C797 C795 1.415 . S
C798 H788 0.930 . S
C798 C796 1.419 . S
C798 C799 1.362 . S
C799 H789 0.930 . S
C799 C792 1.409 . S
C799 C798 1.362 . S
H800 C806 0.930 . S
H801 C809 0.930 . S
H802 C810 0.930 . S
H803 C811 0.930 . S
H804 C814 0.930 . S
H805 C815 0.930 . S
C806 H800 0.930 . S
C806 C807 1.355 . S
C806 C808 1.415 . S
C807 C806 1.355 . S
C807 C809 1.419 . S
C808 C806 1.415 . S
C808 C813 1.425 . S
C808 C815 1.409 . S
C809 H801 0.930 . S
C809 C807 1.419 . S
C809 C810 1.362 . S
C810 H802 0.930 . S
C810 C809 1.362 . S
C810 C813 1.409 . S
C811 H803 0.930 . S
C811 C812 1.355 . S
C811 C813 1.415 . S
C812 C811 1.355 . S
C812 C814 1.419 . S
C813 C808 1.425 . S
C813 C810 1.409 . S
C813 C811 1.415 . S
C814 H804 0.930 . S
C814 C812 1.419 . S
C814 C815 1.362 . S
C815 H805 0.930 . S
C815 C808 1.409 . S
C815 C814 1.362 . S
H816 C822 0.930 . S
H817 C825 0.930 . S
H818 C826 0.930 . S
H819 C827 0.930 . S
H820 C830 0.930 . S
H821 C831 0.930 . S
C822 H816 0.930 . S
C822 C823 1.355 . S
C822 C824 1.415 . S
C823 C822 1.355 . S
C823 C825 1.419 . S
C824 C822 1.415 . S
C824 C829 1.425 . S
C824 C831 1.409 . S
C825 H817 0.930 . S
C825 C823 1.419 . S
C825 C826 1.362 . S
C826 H818 0.930 . S
C826 C825 1.362 . S
C826 C829 1.409 . S
C827 H819 0.930 . S
C827 C828 1.355 . S
C827 C829 1.415 . S
C828 C827 1.355 . S
C828 C830 1.419 . S
C829 C824 1.425 . S
C829 C826 1.409 . S
C829 C827 1.415 . S
C830 H820 0.930 . S
C830 C828 1.419 . S
C830 C831 1.362 . S
C831 H821 0.930 . S
C831 C824 1.409 . S
C831 C830 1.362 . S
H832 C838 0.930 . S
H833 C841 0.930 . S
H834 C842 0.930 . S
H835 C843 0.930 . S
H836 C846 0.930 . S
H837 C847 0.930 . S
C838 H832 0.930 . S
C838 C839 1.355 . S
C838 C840 1.415 . S
C839 C838 1.355 . S
C839 C841 1.419 . S
C840 C838 1.415 . S
C840 C845 1.425 . S
C840 C847 1.409 . S
C841 H833 0.930 . S
C841 C839 1.419 . S
C841 C842 1.362 . S
C842 H834 0.930 . S
C842 C841 1.362 . S
C842 C845 1.409 . S
C843 H835 0.930 . S
C843 C844 1.355 . S
C843 C845 1.415 . S
C844 C843 1.355 . S
C844 C846 1.419 . S
C845 C840 1.425 . S
C845 C842 1.409 . S
C845 C843 1.415 . S
C846 H836 0.930 . S
C846 C844 1.419 . S
C846 C847 1.362 . S
C847 H837 0.930 . S
C847 C840 1.409 . S
C847 C846 1.362 . S
H848 C854 0.930 . S
H849 C857 0.930 . S
H850 C858 0.930 . S
H851 C859 0.930 . S
H852 C862 0.930 . S
H853 C863 0.930 . S
C854 H848 0.930 . S
C854 C855 1.355 . S
C854 C856 1.415 . S
C855 C854 1.355 . S
C855 C857 1.419 . S
C856 C854 1.415 . S
C856 C861 1.425 . S
C856 C863 1.409 . S
C857 H849 0.930 . S
C857 C855 1.419 . S
C857 C858 1.362 . S
C858 H850 0.930 . S
C858 C857 1.362 . S
C858 C861 1.409 . S
C859 H851 0.930 . S
C859 C860 1.355 . S
C859 C861 1.415 . S
C860 C859 1.355 . S
C860 C862 1.419 . S
C861 C856 1.425 . S
C861 C858 1.409 . S
C861 C859 1.415 . S
C862 H852 0.930 . S
C862 C860 1.419 . S
C862 C863 1.362 . S
C863 H853 0.930 . S
C863 C856 1.409 . S
C863 C862 1.362 . S
H864 C870 0.930 . S
H865 C873 0.930 . S
H866 C874 0.930 . S
H867 C875 0.930 . S
H868 C878 0.930 . S
H869 C879 0.930 . S
C870 H864 0.930 . S
C870 C871 1.355 . S
C870 C872 1.415 . S
C871 C870 1.355 . S
C871 C873 1.419 . S
C872 C870 1.415 . S
C872 C877 1.425 . S
C872 C879 1.409 . S
C873 H865 0.930 . S
C873 C871 1.419 . S
C873 C874 1.362 . S
C874 H866 0.930 . S
C874 C873 1.362 . S
C874 C877 1.409 . S
C875 H867 0.930 . S
C875 C876 1.355 . S
C875 C877 1.415 . S
C876 C875 1.355 . S
C876 C878 1.419 . S
C877 C872 1.425 . S
C877 C874 1.409 . S
C877 C875 1.415 . S
C878 H868 0.930 . S
C878 C876 1.419 . S
C878 C879 1.362 . S
C879 H869 0.930 . S
C879 C872 1.409 . S
C879 C878 1.362 . S
H880 C886 0.930 . S
H881 C889 0.930 . S
H882 C890 0.930 . S
H883 C891 0.930 . S
H884 C894 0.930 . S
H885 C895 0.930 . S
C886 H880 0.930 . S
C886 C887 1.355 . S
C886 C888 1.415 . S
C887 C886 1.355 . S
C887 C889 1.419 . S
C888 C886 1.415 . S
C888 C893 1.425 . S
C888 C895 1.409 . S
C889 H881 0.930 . S
C889 C887 1.419 . S
C889 C890 1.362 . S
C890 H882 0.930 . S
C890 C889 1.362 . S
C890 C893 1.409 . S
C891 H883 0.930 . S
C891 C892 1.355 . S
C891 C893 1.415 . S
C892 C891 1.355 . S
C892 C894 1.419 . S
C893 C888 1.425 . S
C893 C890 1.409 . S
C893 C891 1.415 . S
C894 H884 0.930 . S
C894 C892 1.419 . S
C894 C895 1.362 . S
C895 H885 0.930 . S
C895 C888 1.409 . S
C895 C894 1.362 . S
H896 C902 0.930 . S
H897 C905 0.930 . S
H898 C906 0.930 . S
H899 C907 0.930 . S
H900 C910 0.930 . S
H901 C911 0.930 . S
C902 H896 0.930 . S
C902 C903 1.355 . S
C902 C904 1.415 . S
C903 C902 1.355 . S
C903 C905 1.419 . S
C904 C902 1.415 . S
C904 C909 1.425 . S
C904 C911 1.409 . S
C905 H897 0.930 . S
C905 C903 1.419 . S
C905 C906 1.362 . S
C906 H898 0.930 . S
C906 C905 1.362 . S
C906 C909 1.409 . S
C907 H899 0.930 . S
C907 C908 1.355 . S
C907 C909 1.415 . S
C908 C907 1.355 . S
C908 C910 1.419 . S
C909 C904 1.425 . S
C909 C906 1.409 . S
C909 C907 1.415 . S
C910 H900 0.930 . S
C910 C908 1.419 . S
C910 C911 1.362 . S
C911 H901 0.930 . S
C911 C904 1.409 . S
C911 C910 1.362 . S
H912 C918 0.930 . S
H913 C921 0.930 . S
H914 C922 0.930 . S
H915 C923 0.930 . S
H916 C926 0.930 . S
H917 C927 0.930 . S
C918 H912 0.930 . S
C918 C919 1.355 . S
C918 C920 1.415 . S
C919 C918 1.355 . S
C919 C921 1.419 1_545 S
C920 C918 1.415 . S
C920 C925 1.428 1_545 S
C920 C927 1.409 . S
C921 H913 0.930 . S
C921 C919 1.419 1_565 S
C921 C922 1.362 . S
C922 H914 0.930 . S
C922 C921 1.362 . S
C922 C925 1.407 . S
C923 H915 0.930 . S
C923 C924 1.355 1_565 S
C923 C925 1.414 . S
C924 C923 1.355 1_545 S
C924 C926 1.419 . S
C925 C920 1.428 1_565 S
C925 C922 1.407 . S
C925 C923 1.414 . S
C926 H916 0.930 . S
C926 C924 1.419 . S
C926 C927 1.362 . S
C927 H917 0.930 . S
C927 C920 1.409 . S
C927 C926 1.362 . S
H928 C934 0.930 . S
H929 C937 0.930 . S
H930 C938 0.930 . S
H931 C939 0.930 . S
H932 C942 0.930 . S
H933 C943 0.930 . S
C934 H928 0.930 . S
C934 C935 1.355 . S
C934 C936 1.415 . S
C935 C934 1.355 . S
C935 C937 1.419 . S
C936 C934 1.415 . S
C936 C941 1.425 . S
C936 C943 1.409 . S
C937 H929 0.930 . S
C937 C935 1.419 . S
C937 C938 1.362 . S
C938 H930 0.930 . S
C938 C937 1.362 . S
C938 C941 1.409 . S
C939 H931 0.930 . S
C939 C940 1.355 . S
C939 C941 1.415 . S
C940 C939 1.355 . S
C940 C942 1.419 . S
C941 C936 1.425 . S
C941 C938 1.409 . S
C941 C939 1.415 . S
C942 H932 0.930 . S
C942 C940 1.419 . S
C942 C943 1.362 . S
C943 H933 0.930 . S
C943 C936 1.409 . S
C943 C942 1.362 . S
H944 C950 0.930 . S
H945 C953 0.930 . S
H946 C954 0.930 . S
H947 C955 0.930 . S
H948 C958 0.930 . S
H949 C959 0.930 . S
C950 H944 0.930 . S
C950 C951 1.355 . S
C950 C952 1.415 . S
C951 C950 1.355 . S
C951 C953 1.419 . S
C952 C950 1.415 . S
C952 C957 1.425 . S
C952 C959 1.409 . S
C953 H945 0.930 . S
C953 C951 1.419 . S
C953 C954 1.362 . S
C954 H946 0.930 . S
C954 C953 1.362 . S
C954 C957 1.409 . S
C955 H947 0.930 . S
C955 C956 1.355 . S
C955 C957 1.415 . S
C956 C955 1.355 . S
C956 C958 1.419 . S
C957 C952 1.425 . S
C957 C954 1.409 . S
C957 C955 1.415 . S
C958 H948 0.930 . S
C958 C956 1.419 . S
C958 C959 1.362 . S
C959 H949 0.930 . S
C959 C952 1.409 . S
C959 C958 1.362 . S
H960 C966 0.930 . S
H961 C969 0.930 . S
H962 C970 0.930 . S
H963 C971 0.930 . S
H964 C974 0.930 . S
H965 C975 0.930 . S
C966 H960 0.930 . S
C966 C967 1.355 . S
C966 C968 1.415 . S
C967 C966 1.355 . S
C967 C969 1.419 . S
C968 C966 1.415 . S
C968 C973 1.425 . S
C968 C975 1.409 . S
C969 H961 0.930 . S
C969 C967 1.419 . S
C969 C970 1.362 . S
C970 H962 0.930 . S
C970 C969 1.362 . S
C970 C973 1.409 . S
C971 H963 0.930 . S
C971 C972 1.355 . S
C971 C973 1.415 . S
C972 C971 1.355 . S
C972 C974 1.419 . S
C973 C968 1.425 . S
C973 C970 1.409 . S
C973 C971 1.415 . S
C974 H964 0.930 . S
C974 C972 1.419 . S
C974 C975 1.362 . S
C975 H965 0.930 . S
C975 C968 1.409 . S
C975 C974 1.362 . S
H976 C982 0.930 . S
H977 C985 0.930 . S
H978 C986 0.930 . S
H979 C987 0.930 . S
H980 C990 0.930 . S
H981 C991 0.930 . S
C982 H976 0.930 . S
C982 C983 1.355 . S
C982 C984 1.415 . S
C983 C982 1.355 . S
C983 C985 1.419 . S
C984 C982 1.415 . S
C984 C989 1.425 . S
C984 C991 1.409 . S
C985 H977 0.930 . S
C985 C983 1.419 . S
C985 C986 1.362 . S
C986 H978 0.930 . S
C986 C985 1.362 . S
C986 C989 1.409 . S
C987 H979 0.930 . S
C987 C988 1.355 . S
C987 C989 1.415 . S
C988 C987 1.355 . S
C988 C990 1.419 . S
C989 C984 1.425 . S
C989 C986 1.409 . S
C989 C987 1.415 . S
C990 H980 0.930 . S
C990 C988 1.419 . S
C990 C991 1.362 . S
C991 H981 0.930 . S
C991 C984 1.409 . S
C991 C990 1.362 . S
H992 C998 0.930 . S
H993 C1001 0.930 . S
H994 C1002 0.930 . S
H995 C1003 0.930 . S
H996 C1006 0.930 . S
H997 C1007 0.930 . S
C998 H992 0.930 . S
C998 C999 1.355 . S
C998 C1000 1.415 . S
C999 C998 1.355 . S
C999 C1001 1.419 . S
C1000 C998 1.415 . S
C1000 C1005 1.425 . S
C1000 C1007 1.409 . S
C1001 H993 0.930 . S
C1001 C999 1.419 . S
C1001 C1002 1.362 . S
C1002 H994 0.930 . S
C1002 C1001 1.362 . S
C1002 C1005 1.409 . S
C1003 H995 0.930 . S
C1003 C1004 1.355 . S
C1003 C1005 1.415 . S
C1004 C1003 1.355 . S
C1004 C1006 1.419 . S
C1005 C1000 1.425 . S
C1005 C1002 1.409 . S
C1005 C1003 1.415 . S
C1006 H996 0.930 . S
C1006 C1004 1.419 . S
C1006 C1007 1.362 . S
C1007 H997 0.930 . S
C1007 C1000 1.409 . S
C1007 C1006 1.362 . S
H1008 C1014 0.930 . S
H1009 C1017 0.930 . S
H1010 C1018 0.930 . S
H1011 C1019 0.930 . S
H1012 C1022 0.930 . S
H1013 C1023 0.930 . S
C1014 H1008 0.930 . S
C1014 C1015 1.355 . S
C1014 C1016 1.415 . S
C1015 C1014 1.355 . S
C1015 C1017 1.419 . S
C1016 C1014 1.415 . S
C1016 C1021 1.425 . S
C1016 C1023 1.409 . S
C1017 H1009 0.930 . S
C1017 C1015 1.419 . S
C1017 C1018 1.362 . S
C1018 H1010 0.930 . S
C1018 C1017 1.362 . S
C1018 C1021 1.409 . S
C1019 H1011 0.930 . S
C1019 C1020 1.355 . S
C1019 C1021 1.415 . S
C1020 C1019 1.355 . S
C1020 C1022 1.419 . S
C1021 C1016 1.425 . S
C1021 C1018 1.409 . S
C1021 C1019 1.415 . S
C1022 H1012 0.930 . S
C1022 C1020 1.419 . S
C1022 C1023 1.362 . S
C1023 H1013 0.930 . S
C1023 C1016 1.409 . S
C1023 C1022 1.362 . S
H1024 C1030 0.942 . S
H1025 C1033 0.930 . S
H1026 C1034 0.930 . S
H1027 C1035 0.930 . S
H1028 C1038 0.930 . S
H1029 C1039 0.930 . S
C1030 H1024 0.942 . S
C1030 C1031 1.355 . S
C1030 C1032 1.415 . S
C1031 C1030 1.355 . S
C1031 C1033 1.419 . S
C1032 C1030 1.415 . S
C1032 C1037 1.425 . S
C1032 C1039 1.409 . S
C1033 H1025 0.930 . S
C1033 C1031 1.419 . S
C1033 C1034 1.362 . S
C1034 H1026 0.930 . S
C1034 C1033 1.362 . S
C1034 C1037 1.409 . S
C1035 H1027 0.930 . S
C1035 C1036 1.355 . S
C1035 C1037 1.415 . S
C1036 C1035 1.355 . S
C1036 C1038 1.419 . S
C1037 C1032 1.425 . S
C1037 C1034 1.409 . S
C1037 C1035 1.415 . S
C1038 H1028 0.930 . S
C1038 C1036 1.419 . S
C1038 C1039 1.362 . S
C1039 H1029 0.930 . S
C1039 C1032 1.409 . S
C1039 C1038 1.362 . S
H1040 C1046 0.957 . S
H1041 C1049 0.930 . S
H1042 C1050 0.930 . S
H1043 C1051 0.930 . S
H1044 C1054 0.930 . S
H1045 C1055 0.930 . S
C1046 H1040 0.957 . S
C1046 C1047 1.355 . S
C1046 C1048 1.415 . S
C1047 C1046 1.355 . S
C1047 C1049 1.419 . S
C1048 C1046 1.415 . S
C1048 C1053 1.425 . S
C1048 C1055 1.409 . S
C1049 H1041 0.930 . S
C1049 C1047 1.419 . S
C1049 C1050 1.362 . S
C1050 H1042 0.930 . S
C1050 C1049 1.362 . S
C1050 C1053 1.409 . S
C1051 H1043 0.930 . S
C1051 C1052 1.355 . S
C1051 C1053 1.415 . S
C1052 C1051 1.355 . S
C1052 C1054 1.419 . S
C1053 C1048 1.425 . S
C1053 C1050 1.409 . S
C1053 C1051 1.415 . S
C1054 H1044 0.930 . S
C1054 C1052 1.419 . S
C1054 C1055 1.362 . S
C1055 H1045 0.930 . S
C1055 C1048 1.409 . S
C1055 C1054 1.362 . S
H1056 C1062 0.930 . S
H1057 C1065 0.930 . S
H1058 C1066 0.930 . S
H1059 C1067 0.930 . S
H1060 C1070 0.930 . S
H1061 C1071 0.930 . S
C1062 H1056 0.930 . S
C1062 C1063 1.355 . S
C1062 C1064 1.415 . S
C1063 C1062 1.355 . S
C1063 C1065 1.419 . S
C1064 C1062 1.415 . S
C1064 C1069 1.425 . S
C1064 C1071 1.409 . S
C1065 H1057 0.930 . S
C1065 C1063 1.419 . S
C1065 C1066 1.362 . S
C1066 H1058 0.930 . S
C1066 C1065 1.362 . S
C1066 C1069 1.409 . S
C1067 H1059 0.930 . S
C1067 C1068 1.355 . S
C1067 C1069 1.415 . S
C1068 C1067 1.355 . S
C1068 C1070 1.419 . S
C1069 C1064 1.425 . S
C1069 C1066 1.409 . S
C1069 C1067 1.415 . S
C1070 H1060 0.930 . S
C1070 C1068 1.419 . S
C1070 C1071 1.362 . S
C1071 H1061 0.930 . S
C1071 C1064 1.409 . S
C1071 C1070 1.362 . S
H1072 C1078 0.930 . S
H1073 C1081 0.930 . S
H1074 C1082 0.930 . S
H1075 C1083 0.930 . S
H1076 C1086 0.930 . S
H1077 C1087 0.930 . S
C1078 H1072 0.930 . S
C1078 C1079 1.355 . S
C1078 C1080 1.415 . S
C1079 C1078 1.355 . S
C1079 C1081 1.419 . S
C1080 C1078 1.415 . S
C1080 C1085 1.425 . S
C1080 C1087 1.409 . S
C1081 H1073 0.930 . S
C1081 C1079 1.419 . S
C1081 C1082 1.362 . S
C1082 H1074 0.930 . S
C1082 C1081 1.362 . S
C1082 C1085 1.409 . S
C1083 H1075 0.930 . S
C1083 C1084 1.355 . S
C1083 C1085 1.415 . S
C1084 C1083 1.355 . S
C1084 C1086 1.419 . S
C1085 C1080 1.425 . S
C1085 C1082 1.409 . S
C1085 C1083 1.415 . S
C1086 H1076 0.930 . S
C1086 C1084 1.419 . S
C1086 C1087 1.362 . S
C1087 H1077 0.930 . S
C1087 C1080 1.409 . S
C1087 C1086 1.362 . S
H1088 C1094 0.930 . S
H1089 C1097 0.930 . S
H1090 C1098 0.930 . S
H1091 C1099 0.930 . S
H1092 C1102 0.930 . S
H1093 C1103 0.930 . S
C1094 H1088 0.930 . S
C1094 C1095 1.355 . S
C1094 C1096 1.415 . S
C1095 C1094 1.355 . S
C1095 C1097 1.419 . S
C1096 C1094 1.415 . S
C1096 C1101 1.425 . S
C1096 C1103 1.409 . S
C1097 H1089 0.930 . S
C1097 C1095 1.419 . S
C1097 C1098 1.362 . S
C1098 H1090 0.930 . S
C1098 C1097 1.362 . S
C1098 C1101 1.409 . S
C1099 H1091 0.930 . S
C1099 C1100 1.355 . S
C1099 C1101 1.415 . S
C1100 C1099 1.355 . S
C1100 C1102 1.419 . S
C1101 C1096 1.425 . S
C1101 C1098 1.409 . S
C1101 C1099 1.415 . S
C1102 H1092 0.930 . S
C1102 C1100 1.419 . S
C1102 C1103 1.362 . S
C1103 H1093 0.930 . S
C1103 C1096 1.409 . S
C1103 C1102 1.362 . S
H1104 C1110 0.930 . S
H1105 C1113 0.930 . S
H1106 C1114 0.930 . S
H1107 C1115 0.930 . S
H1108 C1118 0.930 . S
H1109 C1119 0.930 . S
C1110 H1104 0.930 . S
C1110 C1111 1.355 . S
C1110 C1112 1.415 . S
C1111 C1110 1.355 . S
C1111 C1113 1.419 . S
C1112 C1110 1.415 . S
C1112 C1117 1.425 . S
C1112 C1119 1.409 . S
C1113 H1105 0.930 . S
C1113 C1111 1.419 . S
C1113 C1114 1.362 . S
C1114 H1106 0.930 . S
C1114 C1113 1.362 . S
C1114 C1117 1.409 . S
C1115 H1107 0.930 . S
C1115 C1116 1.355 . S
C1115 C1117 1.415 . S
C1116 C1115 1.355 . S
C1116 C1118 1.419 . S
C1117 C1112 1.425 . S
C1117 C1114 1.409 . S
C1117 C1115 1.415 . S
C1118 H1108 0.930 . S
C1118 C1116 1.419 . S
C1118 C1119 1.362 . S
C1119 H1109 0.930 . S
C1119 C1112 1.409 . S
C1119 C1118 1.362 . S
H1120 C1126 0.930 . S
H1121 C1129 0.930 . S
H1122 C1130 0.930 . S
H1123 C1131 0.930 . S
H1124 C1134 0.930 . S
H1125 C1135 0.930 . S
C1126 H1120 0.930 . S
C1126 C1127 1.355 . S
C1126 C1128 1.415 . S
C1127 C1126 1.355 . S
C1127 C1129 1.419 . S
C1128 C1126 1.415 . S
C1128 C1133 1.425 . S
C1128 C1135 1.409 . S
C1129 H1121 0.930 . S
C1129 C1127 1.419 . S
C1129 C1130 1.362 . S
C1130 H1122 0.930 . S
C1130 C1129 1.362 . S
C1130 C1133 1.409 . S
C1131 H1123 0.930 . S
C1131 C1132 1.355 . S
C1131 C1133 1.415 . S
C1132 C1131 1.355 . S
C1132 C1134 1.419 . S
C1133 C1128 1.425 . S
C1133 C1130 1.409 . S
C1133 C1131 1.415 . S
C1134 H1124 0.930 . S
C1134 C1132 1.419 . S
C1134 C1135 1.362 . S
C1135 H1125 0.930 . S
C1135 C1128 1.409 . S
C1135 C1134 1.362 . S
H1136 C1142 0.930 . S
H1137 C1145 0.930 . S
H1138 C1146 0.930 . S
H1139 C1147 0.930 . S
H1140 C1150 0.930 . S
H1141 C1151 0.930 . S
C1142 H1136 0.930 . S
C1142 C1143 1.401 . S
C1142 C1144 1.415 . S
C1143 C1142 1.401 . S
C1143 C1145 1.350 1_556 S
C1144 C1142 1.415 . S
C1144 C1149 1.425 1_556 S
C1144 C1151 1.409 . S
C1145 H1137 0.930 . S
C1145 C1143 1.350 1_554 S
C1145 C1146 1.362 . S
C1146 H1138 0.930 . S
C1146 C1145 1.362 . S
C1146 C1149 1.409 . S
C1147 H1139 0.930 . S
C1147 C1148 1.359 1_554 S
C1147 C1149 1.415 . S
C1148 C1147 1.359 1_556 S
C1148 C1150 1.413 . S
C1149 C1144 1.425 1_554 S
C1149 C1146 1.409 . S
C1149 C1147 1.415 . S
C1150 H1140 0.930 . S
C1150 C1148 1.413 . S
C1150 C1151 1.362 . S
C1151 H1141 0.930 . S
C1151 C1144 1.409 . S
C1151 C1150 1.362 . S
H1152 C1158 0.930 . S
H1153 C1161 0.930 . S
H1154 C1162 0.930 . S
H1155 C1163 0.930 . S
H1156 C1166 0.930 . S
H1157 C1167 0.930 . S
C1158 H1152 0.930 . S
C1158 C1159 1.355 . S
C1158 C1160 1.415 . S
C1159 C1158 1.355 . S
C1159 C1161 1.419 . S
C1160 C1158 1.415 . S
C1160 C1165 1.425 . S
C1160 C1167 1.409 . S
C1161 H1153 0.930 . S
C1161 C1159 1.419 . S
C1161 C1162 1.362 . S
C1162 H1154 0.930 . S
C1162 C1161 1.362 . S
C1162 C1165 1.409 . S
C1163 H1155 0.930 . S
C1163 C1164 1.355 . S
C1163 C1165 1.415 . S
C1164 C1163 1.355 . S
C1164 C1166 1.419 . S
C1165 C1160 1.425 . S
C1165 C1162 1.409 . S
C1165 C1163 1.415 . S
C1166 H1156 0.930 . S
C1166 C1164 1.419 . S
C1166 C1167 1.362 . S
C1167 H1157 0.930 . S
C1167 C1160 1.409 . S
C1167 C1166 1.362 . S
H1168 C1174 0.930 . S
H1169 C1177 0.930 . S
H1170 C1178 0.930 . S
H1171 C1179 0.930 . S
H1172 C1182 0.930 . S
H1173 C1183 0.930 . S
C1174 H1168 0.930 . S
C1174 C1175 1.355 . S
C1174 C1176 1.415 . S
C1175 C1174 1.355 . S
C1175 C1177 1.419 . S
C1176 C1174 1.415 . S
C1176 C1181 1.425 . S
C1176 C1183 1.409 . S
C1177 H1169 0.930 . S
C1177 C1175 1.419 . S
C1177 C1178 1.362 . S
C1178 H1170 0.930 . S
C1178 C1177 1.362 . S
C1178 C1181 1.409 . S
C1179 H1171 0.930 . S
C1179 C1180 1.355 . S
C1179 C1181 1.415 . S
C1180 C1179 1.355 . S
C1180 C1182 1.419 . S
C1181 C1176 1.425 . S
C1181 C1178 1.409 . S
C1181 C1179 1.415 . S
C1182 H1172 0.930 . S
C1182 C1180 1.419 . S
C1182 C1183 1.362 . S
C1183 H1173 0.930 . S
C1183 C1176 1.409 . S
C1183 C1182 1.362 . S
H1184 C1190 0.930 . S
H1185 C1193 0.930 . S
H1186 C1194 0.930 . S
H1187 C1195 0.930 . S
H1188 C1198 0.930 . S
H1189 C1199 0.930 . S
C1190 H1184 0.930 . S
C1190 C1191 1.355 . S
C1190 C1192 1.415 . S
C1191 C1190 1.355 . S
C1191 C1193 1.419 . S
C1192 C1190 1.415 . S
C1192 C1197 1.425 . S
C1192 C1199 1.409 . S
C1193 H1185 0.930 . S
C1193 C1191 1.419 . S
C1193 C1194 1.362 . S
C1194 H1186 0.930 . S
C1194 C1193 1.362 . S
C1194 C1197 1.409 . S
C1195 H1187 0.930 . S
C1195 C1196 1.355 . S
C1195 C1197 1.415 . S
C1196 C1195 1.355 . S
C1196 C1198 1.419 . S
C1197 C1192 1.425 . S
C1197 C1194 1.409 . S
C1197 C1195 1.415 . S
C1198 H1188 0.930 . S
C1198 C1196 1.419 . S
C1198 C1199 1.362 . S
C1199 H1189 0.930 . S
C1199 C1192 1.409 . S
C1199 C1198 1.362 . S
H1200 C1206 0.930 . S
H1201 C1209 0.930 . S
H1202 C1210 0.930 . S
H1203 C1211 0.930 . S
H1204 C1214 0.930 . S
H1205 C1215 0.930 . S
C1206 H1200 0.930 . S
C1206 C1207 1.355 . S
C1206 C1208 1.415 . S
C1207 C1206 1.355 . S
C1207 C1209 1.419 . S
C1208 C1206 1.415 . S
C1208 C1213 1.425 . S
C1208 C1215 1.409 . S
C1209 H1201 0.930 . S
C1209 C1207 1.419 . S
C1209 C1210 1.362 . S
C1210 H1202 0.930 . S
C1210 C1209 1.362 . S
C1210 C1213 1.409 . S
C1211 H1203 0.930 . S
C1211 C1212 1.355 . S
C1211 C1213 1.415 . S
C1212 C1211 1.355 . S
C1212 C1214 1.419 . S
C1213 C1208 1.425 . S
C1213 C1210 1.409 . S
C1213 C1211 1.415 . S
C1214 H1204 0.930 . S
C1214 C1212 1.419 . S
C1214 C1215 1.362 . S
C1215 H1205 0.930 . S
C1215 C1208 1.409 . S
C1215 C1214 1.362 . S
H1216 C1222 0.930 . S
H1217 C1225 0.930 . S
H1218 C1226 0.930 . S
H1219 C1227 0.930 . S
H1220 C1230 0.930 . S
H1221 C1231 0.930 . S
C1222 H1216 0.930 . S
C1222 C1223 1.355 . S
C1222 C1224 1.415 . S
C1223 C1222 1.355 . S
C1223 C1225 1.419 . S
C1224 C1222 1.415 . S
C1224 C1229 1.425 . S
C1224 C1231 1.409 . S
C1225 H1217 0.930 . S
C1225 C1223 1.419 . S
C1225 C1226 1.362 . S
C1226 H1218 0.930 . S
C1226 C1225 1.362 . S
C1226 C1229 1.409 . S
C1227 H1219 0.930 . S
C1227 C1228 1.355 . S
C1227 C1229 1.415 . S
C1228 C1227 1.355 . S
C1228 C1230 1.419 . S
C1229 C1224 1.425 . S
C1229 C1226 1.409 . S
C1229 C1227 1.415 . S
C1230 H1220 0.930 . S
C1230 C1228 1.419 . S
C1230 C1231 1.362 . S
C1231 H1221 0.930 . S
C1231 C1224 1.409 . S
C1231 C1230 1.362 . S
H1232 C1238 0.930 . S
H1233 C1241 0.930 . S
H1234 C1242 0.930 . S
H1235 C1243 0.930 . S
H1236 C1246 0.930 . S
H1237 C1247 0.930 . S
C1238 H1232 0.930 . S
C1238 C1239 1.355 . S
C1238 C1240 1.415 . S
C1239 C1238 1.355 . S
C1239 C1241 1.419 . S
C1240 C1238 1.415 . S
C1240 C1245 1.425 . S
C1240 C1247 1.409 . S
C1241 H1233 0.930 . S
C1241 C1239 1.419 . S
C1241 C1242 1.362 . S
C1242 H1234 0.930 . S
C1242 C1241 1.362 . S
C1242 C1245 1.409 . S
C1243 H1235 0.930 . S
C1243 C1244 1.355 . S
C1243 C1245 1.415 . S
C1244 C1243 1.355 . S
C1244 C1246 1.419 . S
C1245 C1240 1.425 . S
C1245 C1242 1.409 . S
C1245 C1243 1.415 . S
C1246 H1236 0.930 . S
C1246 C1244 1.419 . S
C1246 C1247 1.362 . S
C1247 H1237 0.930 . S
C1247 C1240 1.409 . S
C1247 C1246 1.362 . S
H1248 C1254 0.930 . S
H1249 C1257 0.930 . S
H1250 C1258 0.930 . S
H1251 C1259 0.930 . S
H1252 C1262 0.930 . S
H1253 C1263 0.930 . S
C1254 H1248 0.930 . S
C1254 C1255 1.355 . S
C1254 C1256 1.415 . S
C1255 C1254 1.355 . S
C1255 C1257 1.419 . S
C1256 C1254 1.415 . S
C1256 C1261 1.425 . S
C1256 C1263 1.409 . S
C1257 H1249 0.930 . S
C1257 C1255 1.419 . S
C1257 C1258 1.362 . S
C1258 H1250 0.930 . S
C1258 C1257 1.362 . S
C1258 C1261 1.409 . S
C1259 H1251 0.930 . S
C1259 C1260 1.355 . S
C1259 C1261 1.415 . S
C1260 C1259 1.355 . S
C1260 C1262 1.419 . S
C1261 C1256 1.425 . S
C1261 C1258 1.409 . S
C1261 C1259 1.415 . S
C1262 H1252 0.930 . S
C1262 C1260 1.419 . S
C1262 C1263 1.362 . S
C1263 H1253 0.930 . S
C1263 C1256 1.409 . S
C1263 C1262 1.362 . S
H1264 C1270 0.930 . S
H1265 C1273 0.930 . S
H1266 C1274 0.930 . S
H1267 C1275 0.930 . S
H1268 C1278 0.930 . S
H1269 C1279 0.930 . S
C1270 H1264 0.930 . S
C1270 C1271 1.355 . S
C1270 C1272 1.415 . S
C1271 C1270 1.355 . S
C1271 C1273 1.419 . S
C1272 C1270 1.415 . S
C1272 C1277 1.425 . S
C1272 C1279 1.409 . S
C1273 H1265 0.930 . S
C1273 C1271 1.419 . S
C1273 C1274 1.362 . S
C1274 H1266 0.930 . S
C1274 C1273 1.362 . S
C1274 C1277 1.409 . S
C1275 H1267 0.930 . S
C1275 C1276 1.355 . S
C1275 C1277 1.415 . S
C1276 C1275 1.355 . S
C1276 C1278 1.419 . S
C1277 C1272 1.425 . S
C1277 C1274 1.409 . S
C1277 C1275 1.415 . S
C1278 H1268 0.930 . S
C1278 C1276 1.419 . S
C1278 C1279 1.362 . S
C1279 H1269 0.930 . S
C1279 C1272 1.409 . S
C1279 C1278 1.362 . S
H1280 C1286 0.930 . S
H1281 C1289 0.930 . S
H1282 C1290 0.930 . S
H1283 C1291 0.930 . S
H1284 C1294 0.930 . S
H1285 C1295 0.930 . S
C1286 H1280 0.930 . S
C1286 C1287 1.355 . S
C1286 C1288 1.415 . S
C1287 C1286 1.355 . S
C1287 C1289 1.419 . S
C1288 C1286 1.415 . S
C1288 C1293 1.425 . S
C1288 C1295 1.409 . S
C1289 H1281 0.930 . S
C1289 C1287 1.419 . S
C1289 C1290 1.362 . S
C1290 H1282 0.930 . S
C1290 C1289 1.362 . S
C1290 C1293 1.409 . S
C1291 H1283 0.930 . S
C1291 C1292 1.355 . S
C1291 C1293 1.415 . S
C1292 C1291 1.355 . S
C1292 C1294 1.419 . S
C1293 C1288 1.425 . S
C1293 C1290 1.409 . S
C1293 C1291 1.415 . S
C1294 H1284 0.930 . S
C1294 C1292 1.419 . S
C1294 C1295 1.362 . S
C1295 H1285 0.930 . S
C1295 C1288 1.409 . S
C1295 C1294 1.362 . S
H1296 C1302 0.930 . S
H1297 C1305 0.930 . S
H1298 C1306 0.930 . S
H1299 C1307 0.930 . S
H1300 C1310 0.930 . S
H1301 C1311 0.930 . S
C1302 H1296 0.930 . S
C1302 C1303 1.355 . S
C1302 C1304 1.415 . S
C1303 C1302 1.355 . S
C1303 C1305 1.419 . S
C1304 C1302 1.415 . S
C1304 C1309 1.425 . S
C1304 C1311 1.409 . S
C1305 H1297 0.930 . S
C1305 C1303 1.419 . S
C1305 C1306 1.362 . S
C1306 H1298 0.930 . S
C1306 C1305 1.362 . S
C1306 C1309 1.409 . S
C1307 H1299 0.930 . S
C1307 C1308 1.355 . S
C1307 C1309 1.415 . S
C1308 C1307 1.355 . S
C1308 C1310 1.419 . S
C1309 C1304 1.425 . S
C1309 C1306 1.409 . S
C1309 C1307 1.415 . S
C1310 H1300 0.930 . S
C1310 C1308 1.419 . S
C1310 C1311 1.362 . S
C1311 H1301 0.930 . S
C1311 C1304 1.409 . S
C1311 C1310 1.362 . S
H1312 C1318 0.930 . S
H1313 C1321 0.930 . S
H1314 C1322 0.930 . S
H1315 C1323 0.930 . S
H1316 C1326 0.930 . S
H1317 C1327 0.930 . S
C1318 H1312 0.930 . S
C1318 C1319 1.355 . S
C1318 C1320 1.415 . S
C1319 C1318 1.355 . S
C1319 C1321 1.419 . S
C1320 C1318 1.415 . S
C1320 C1325 1.425 . S
C1320 C1327 1.409 . S
C1321 H1313 0.930 . S
C1321 C1319 1.419 . S
C1321 C1322 1.362 . S
C1322 H1314 0.930 . S
C1322 C1321 1.362 . S
C1322 C1325 1.409 . S
C1323 H1315 0.930 . S
C1323 C1324 1.355 . S
C1323 C1325 1.415 . S
C1324 C1323 1.355 . S
C1324 C1326 1.419 . S
C1325 C1320 1.425 . S
C1325 C1322 1.409 . S
C1325 C1323 1.415 . S
C1326 H1316 0.930 . S
C1326 C1324 1.419 . S
C1326 C1327 1.362 . S
C1327 H1317 0.930 . S
C1327 C1320 1.409 . S
C1327 C1326 1.362 . S
H1328 C1334 0.930 . S
H1329 C1337 0.930 . S
H1330 C1338 0.930 . S
H1331 C1339 0.930 . S
H1332 C1342 0.930 . S
H1333 C1343 0.930 . S
C1334 H1328 0.930 . S
C1334 C1335 1.355 . S
C1334 C1336 1.415 . S
C1335 C1334 1.355 . S
C1335 C1337 1.419 . S
C1336 C1334 1.415 . S
C1336 C1341 1.425 . S
C1336 C1343 1.409 . S
C1337 H1329 0.930 . S
C1337 C1335 1.419 . S
C1337 C1338 1.362 . S
C1338 H1330 0.930 . S
C1338 C1337 1.362 . S
C1338 C1341 1.409 . S
C1339 H1331 0.930 . S
C1339 C1340 1.355 . S
C1339 C1341 1.415 . S
C1340 C1339 1.355 . S
C1340 C1342 1.419 . S
C1341 C1336 1.425 . S
C1341 C1338 1.409 . S
C1341 C1339 1.415 . S
C1342 H1332 0.930 . S
C1342 C1340 1.419 . S
C1342 C1343 1.362 . S
C1343 H1333 0.930 . S
C1343 C1336 1.409 . S
C1343 C1342 1.362 . S
H1344 C1350 0.930 . S
H1345 C1353 0.930 . S
H1346 C1354 0.930 . S
H1347 C1355 0.930 . S
H1348 C1358 0.930 . S
H1349 C1359 0.930 . S
C1350 H1344 0.930 . S
C1350 C1351 1.355 . S
C1350 C1352 1.415 . S
C1351 C1350 1.355 . S
C1351 C1353 1.419 . S
C1352 C1350 1.415 . S
C1352 C1357 1.425 . S
C1352 C1359 1.409 . S
C1353 H1345 0.930 . S
C1353 C1351 1.419 . S
C1353 C1354 1.362 . S
C1354 H1346 0.930 . S
C1354 C1353 1.362 . S
C1354 C1357 1.409 . S
C1355 H1347 0.930 . S
C1355 C1356 1.355 . S
C1355 C1357 1.415 . S
C1356 C1355 1.355 . S
C1356 C1358 1.419 . S
C1357 C1352 1.425 . S
C1357 C1354 1.409 . S
C1357 C1355 1.415 . S
C1358 H1348 0.930 . S
C1358 C1356 1.419 . S
C1358 C1359 1.362 . S
C1359 H1349 0.930 . S
C1359 C1352 1.409 . S
C1359 C1358 1.362 . S
H1360 C1366 0.930 . S
H1361 C1369 0.930 . S
H1362 C1370 0.930 . S
H1363 C1371 0.930 . S
H1364 C1374 0.930 . S
H1365 C1375 0.930 . S
C1366 H1360 0.930 . S
C1366 C1367 1.355 . S
C1366 C1368 1.415 . S
C1367 C1366 1.355 . S
C1367 C1369 1.419 . S
C1368 C1366 1.415 . S
C1368 C1373 1.425 . S
C1368 C1375 1.409 . S
C1369 H1361 0.930 . S
C1369 C1367 1.419 . S
C1369 C1370 1.362 . S
C1370 H1362 0.930 . S
C1370 C1369 1.362 . S
C1370 C1373 1.409 . S
C1371 H1363 0.930 . S
C1371 C1372 1.355 . S
C1371 C1373 1.415 . S
C1372 C1371 1.355 . S
C1372 C1374 1.419 . S
C1373 C1368 1.425 . S
C1373 C1370 1.409 . S
C1373 C1371 1.415 . S
C1374 H1364 0.930 . S
C1374 C1372 1.419 . S
C1374 C1375 1.362 . S
C1375 H1365 0.930 . S
C1375 C1368 1.409 . S
C1375 C1374 1.362 . S
H1376 C1382 0.930 . S
H1377 C1385 0.930 . S
H1378 C1386 0.930 . S
H1379 C1387 0.930 . S
H1380 C1390 0.930 . S
H1381 C1391 0.930 . S
C1382 H1376 0.930 . S
C1382 C1383 1.355 . S
C1382 C1384 1.415 . S
C1383 C1382 1.355 . S
C1383 C1385 1.419 . S
C1384 C1382 1.415 . S
C1384 C1389 1.425 . S
C1384 C1391 1.409 . S
C1385 H1377 0.930 . S
C1385 C1383 1.419 . S
C1385 C1386 1.362 . S
C1386 H1378 0.930 . S
C1386 C1385 1.362 . S
C1386 C1389 1.409 . S
C1387 H1379 0.930 . S
C1387 C1388 1.355 . S
C1387 C1389 1.415 . S
C1388 C1387 1.355 . S
C1388 C1390 1.419 . S
C1389 C1384 1.425 . S
C1389 C1386 1.409 . S
C1389 C1387 1.415 . S
C1390 H1380 0.930 . S
C1390 C1388 1.419 . S
C1390 C1391 1.362 . S
C1391 H1381 0.930 . S
C1391 C1384 1.409 . S
C1391 C1390 1.362 . S
H1392 C1398 0.930 . S
H1393 C1401 0.930 . S
H1394 C1402 0.930 . S
H1395 C1403 0.930 . S
H1396 C1406 0.930 . S
H1397 C1407 0.930 . S
C1398 H1392 0.930 . S
C1398 C1399 1.355 . S
C1398 C1400 1.415 . S
C1399 C1398 1.355 . S
C1399 C1401 1.419 . S
C1400 C1398 1.415 . S
C1400 C1405 1.425 . S
C1400 C1407 1.409 . S
C1401 H1393 0.930 . S
C1401 C1399 1.419 . S
C1401 C1402 1.362 . S
C1402 H1394 0.930 . S
C1402 C1401 1.362 . S
C1402 C1405 1.409 . S
C1403 H1395 0.930 . S
C1403 C1404 1.355 . S
C1403 C1405 1.415 . S
C1404 C1403 1.355 . S
C1404 C1406 1.419 . S
C1405 C1400 1.425 . S
C1405 C1402 1.409 . S
C1405 C1403 1.415 . S
C1406 H1396 0.930 . S
C1406 C1404 1.419 . S
C1406 C1407 1.362 . S
C1407 H1397 0.930 . S
C1407 C1400 1.409 . S
C1407 C1406 1.362 . S
H1408 C1414 0.930 . S
H1409 C1417 0.924 . S
H1410 C1418 0.925 . S
H1411 C1419 0.930 . S
H1412 C1422 0.930 . S
H1413 C1423 0.930 . S
C1414 H1408 0.930 . S
C1414 C1415 1.355 . S
C1414 C1416 1.415 . S
C1415 C1414 1.355 . S
C1415 C1417 1.426 1_554 S
C1416 C1414 1.415 . S
C1416 C1421 1.425 . S
C1416 C1423 1.409 . S
C1417 H1409 0.924 . S
C1417 C1415 1.426 1_556 S
C1417 C1418 1.362 . S
C1418 H1410 0.925 . S
C1418 C1417 1.362 . S
C1418 C1421 1.414 1_556 S
C1419 H1411 0.930 . S
C1419 C1420 1.355 . S
C1419 C1421 1.415 . S
C1420 C1419 1.355 . S
C1420 C1422 1.419 . S
C1421 C1416 1.425 . S
C1421 C1418 1.414 1_554 S
C1421 C1419 1.415 . S
C1422 H1412 0.930 . S
C1422 C1420 1.419 . S
C1422 C1423 1.362 . S
C1423 H1413 0.930 . S
C1423 C1416 1.409 . S
C1423 C1422 1.362 . S
H1424 C1430 0.930 . S
H1425 C1433 0.930 . S
H1426 C1434 0.930 . S
H1427 C1435 0.930 . S
H1428 C1438 0.930 . S
H1429 C1439 0.930 . S
C1430 H1424 0.930 . S
C1430 C1431 1.355 . S
C1430 C1432 1.415 . S
C1431 C1430 1.355 . S
C1431 C1433 1.419 . S
C1432 C1430 1.415 . S
C1432 C1437 1.425 . S
C1432 C1439 1.409 . S
C1433 H1425 0.930 . S
C1433 C1431 1.419 . S
C1433 C1434 1.362 . S
C1434 H1426 0.930 . S
C1434 C1433 1.362 . S
C1434 C1437 1.409 . S
C1435 H1427 0.930 . S
C1435 C1436 1.355 . S
C1435 C1437 1.415 . S
C1436 C1435 1.355 . S
C1436 C1438 1.419 . S
C1437 C1432 1.425 . S
C1437 C1434 1.409 . S
C1437 C1435 1.415 . S
C1438 H1428 0.930 . S
C1438 C1436 1.419 . S
C1438 C1439 1.362 . S
C1439 H1429 0.930 . S
C1439 C1432 1.409 . S
C1439 C1438 1.362 . S
H1440 C1446 0.930 . S
H1441 C1449 0.930 . S
H1442 C1450 0.930 . S
H1443 C1451 0.930 . S
H1444 C1454 0.930 . S
H1445 C1455 0.930 . S
C1446 H1440 0.930 . S
C1446 C1447 1.355 . S
C1446 C1448 1.415 . S
C1447 C1446 1.355 . S
C1447 C1449 1.419 . S
C1448 C1446 1.415 . S
C1448 C1453 1.425 . S
C1448 C1455 1.409 . S
C1449 H1441 0.930 . S
C1449 C1447 1.419 . S
C1449 C1450 1.362 . S
C1450 H1442 0.930 . S
C1450 C1449 1.362 . S
C1450 C1453 1.409 . S
C1451 H1443 0.930 . S
C1451 C1452 1.355 . S
C1451 C1453 1.415 . S
C1452 C1451 1.355 . S
C1452 C1454 1.419 . S
C1453 C1448 1.425 . S
C1453 C1450 1.409 . S
C1453 C1451 1.415 . S
C1454 H1444 0.930 . S
C1454 C1452 1.419 . S
C1454 C1455 1.362 . S
C1455 H1445 0.930 . S
C1455 C1448 1.409 . S
C1455 C1454 1.362 . S
H1456 C1462 0.930 . S
H1457 C1465 0.895 1_545 S
H1458 C1466 0.930 1_545 S
H1459 C1467 0.930 . S
H1460 C1470 0.930 . S
H1461 C1471 0.930 . S
C1462 H1456 0.930 . S
C1462 C1463 1.355 . S
C1462 C1464 1.415 . S
C1463 C1462 1.355 . S
C1463 C1465 1.451 . S
C1464 C1462 1.415 . S
C1464 C1469 1.425 . S
C1464 C1471 1.409 . S
C1465 H1457 0.895 1_565 S
C1465 C1463 1.451 . S
C1465 C1466 1.371 . S
C1466 H1458 0.930 1_565 S
C1466 C1465 1.371 . S
C1466 C1469 1.409 . S
C1467 H1459 0.930 . S
C1467 C1468 1.355 . S
C1467 C1469 1.415 . S
C1468 C1467 1.355 . S
C1468 C1470 1.419 . S
C1469 C1464 1.425 . S
C1469 C1466 1.409 . S
C1469 C1467 1.415 . S
C1470 H1460 0.930 . S
C1470 C1468 1.419 . S
C1470 C1471 1.362 . S
C1471 H1461 0.930 . S
C1471 C1464 1.409 . S
C1471 C1470 1.362 . S
H1472 C1478 0.930 . S
H1473 C1481 0.930 . S
H1474 C1482 0.930 . S
H1475 C1483 0.930 . S
H1476 C1486 0.930 . S
H1477 C1487 0.930 . S
C1478 H1472 0.930 . S
C1478 C1479 1.355 . S
C1478 C1480 1.415 . S
C1479 C1478 1.355 . S
C1479 C1481 1.419 . S
C1480 C1478 1.415 . S
C1480 C1485 1.425 . S
C1480 C1487 1.409 . S
C1481 H1473 0.930 . S
C1481 C1479 1.419 . S
C1481 C1482 1.362 . S
C1482 H1474 0.930 . S
C1482 C1481 1.362 . S
C1482 C1485 1.409 . S
C1483 H1475 0.930 . S
C1483 C1484 1.355 . S
C1483 C1485 1.415 . S
C1484 C1483 1.355 . S
C1484 C1486 1.419 . S
C1485 C1480 1.425 . S
C1485 C1482 1.409 . S
C1485 C1483 1.415 . S
C1486 H1476 0.930 . S
C1486 C1484 1.419 . S
C1486 C1487 1.362 . S
C1487 H1477 0.930 . S
C1487 C1480 1.409 . S
C1487 C1486 1.362 . S
H1488 C1494 0.930 . S
H1489 C1497 0.930 . S
H1490 C1498 0.930 . S
H1491 C1499 0.930 . S
H1492 C1502 0.930 . S
H1493 C1503 0.930 . S
C1494 H1488 0.930 . S
C1494 C1495 1.355 . S
C1494 C1496 1.415 . S
C1495 C1494 1.355 . S
C1495 C1497 1.419 . S
C1496 C1494 1.415 . S
C1496 C1501 1.425 . S
C1496 C1503 1.409 . S
C1497 H1489 0.930 . S
C1497 C1495 1.419 . S
C1497 C1498 1.362 . S
C1498 H1490 0.930 . S
C1498 C1497 1.362 . S
C1498 C1501 1.409 . S
C1499 H1491 0.930 . S
C1499 C1500 1.355 . S
C1499 C1501 1.415 . S
C1500 C1499 1.355 . S
C1500 C1502 1.419 . S
C1501 C1496 1.425 . S
C1501 C1498 1.409 . S
C1501 C1499 1.415 . S
C1502 H1492 0.930 . S
C1502 C1500 1.419 . S
C1502 C1503 1.362 . S
C1503 H1493 0.930 . S
C1503 C1496 1.409 . S
C1503 C1502 1.362 . S
H1504 C1510 0.930 . S
H1505 C1513 0.930 . S
H1506 C1514 0.930 . S
H1507 C1515 0.930 . S
H1508 C1518 0.930 . S
H1509 C1519 0.930 . S
C1510 H1504 0.930 . S
C1510 C1511 1.355 . S
C1510 C1512 1.415 . S
C1511 C1510 1.355 . S
C1511 C1513 1.419 . S
C1512 C1510 1.415 . S
C1512 C1517 1.425 . S
C1512 C1519 1.409 . S
C1513 H1505 0.930 . S
C1513 C1511 1.419 . S
C1513 C1514 1.362 . S
C1514 H1506 0.930 . S
C1514 C1513 1.362 . S
C1514 C1517 1.409 . S
C1515 H1507 0.930 . S
C1515 C1516 1.355 . S
C1515 C1517 1.415 . S
C1516 C1515 1.355 . S
C1516 C1518 1.419 . S
C1517 C1512 1.425 . S
C1517 C1514 1.409 . S
C1517 C1515 1.415 . S
C1518 H1508 0.930 . S
C1518 C1516 1.419 . S
C1518 C1519 1.362 . S
C1519 H1509 0.930 . S
C1519 C1512 1.409 . S
C1519 C1518 1.362 . S
H1520 C1526 0.930 . S
H1521 C1529 0.930 . S
H1522 C1530 0.930 . S
H1523 C1531 0.930 . S
H1524 C1534 0.930 . S
H1525 C1535 0.930 . S
C1526 H1520 0.930 . S
C1526 C1527 1.355 . S
C1526 C1528 1.415 . S
C1527 C1526 1.355 . S
C1527 C1529 1.419 . S
C1528 C1526 1.415 . S
C1528 C1533 1.425 . S
C1528 C1535 1.409 . S
C1529 H1521 0.930 . S
C1529 C1527 1.419 . S
C1529 C1530 1.362 . S
C1530 H1522 0.930 . S
C1530 C1529 1.362 . S
C1530 C1533 1.409 . S
C1531 H1523 0.930 . S
C1531 C1532 1.355 . S
C1531 C1533 1.415 . S
C1532 C1531 1.355 . S
C1532 C1534 1.419 . S
C1533 C1528 1.425 . S
C1533 C1530 1.409 . S
C1533 C1531 1.415 . S
C1534 H1524 0.930 . S
C1534 C1532 1.419 . S
C1534 C1535 1.362 . S
C1535 H1525 0.930 . S
C1535 C1528 1.409 . S
C1535 C1534 1.362 . S
H1536 C1542 0.930 . S
H1537 C1545 0.930 . S
H1538 C1546 0.930 . S
H1539 C1547 0.930 1_455 S
H1540 C1550 0.930 . S
H1541 C1551 0.930 . S
C1542 H1536 0.930 . S
C1542 C1543 1.355 . S
C1542 C1544 1.415 . S
C1543 C1542 1.355 . S
C1543 C1545 1.419 1_655 S
C1544 C1542 1.415 . S
C1544 C1549 1.425 . S
C1544 C1551 1.409 . S
C1545 H1537 0.930 . S
C1545 C1543 1.419 1_455 S
C1545 C1546 1.362 . S
C1546 H1538 0.930 . S
C1546 C1545 1.362 . S
C1546 C1549 1.409 1_455 S
C1547 H1539 0.930 1_655 S
C1547 C1548 1.355 . S
C1547 C1549 1.415 . S
C1548 C1547 1.355 . S
C1548 C1550 1.419 . S
C1549 C1544 1.425 . S
C1549 C1546 1.409 1_655 S
C1549 C1547 1.415 . S
C1550 H1540 0.930 . S
C1550 C1548 1.419 . S
C1550 C1551 1.362 . S
C1551 H1541 0.930 . S
C1551 C1544 1.409 . S
C1551 C1550 1.362 . S
H1552 C1558 0.930 . S
H1553 C1561 0.930 . S
H1554 C1562 0.930 . S
H1555 C1563 0.930 . S
H1556 C1566 0.930 . S
H1557 C1567 0.930 . S
C1558 H1552 0.930 . S
C1558 C1559 1.355 . S
C1558 C1560 1.415 . S
C1559 C1558 1.355 . S
C1559 C1561 1.419 . S
C1560 C1558 1.415 . S
C1560 C1565 1.425 . S
C1560 C1567 1.409 . S
C1561 H1553 0.930 . S
C1561 C1559 1.419 . S
C1561 C1562 1.362 . S
C1562 H1554 0.930 . S
C1562 C1561 1.362 . S
C1562 C1565 1.409 . S
C1563 H1555 0.930 . S
C1563 C1564 1.355 . S
C1563 C1565 1.415 . S
C1564 C1563 1.355 . S
C1564 C1566 1.419 . S
C1565 C1560 1.425 . S
C1565 C1562 1.409 . S
C1565 C1563 1.415 . S
C1566 H1556 0.930 . S
C1566 C1564 1.419 . S
C1566 C1567 1.362 . S
C1567 H1557 0.930 . S
C1567 C1560 1.409 . S
C1567 C1566 1.362 . S
H1568 C1574 0.930 . S
H1569 C1577 0.930 . S
H1570 C1578 0.930 . S
H1571 C1579 0.930 . S
H1572 C1582 0.930 . S
H1573 C1583 0.930 . S
C1574 H1568 0.930 . S
C1574 C1575 1.355 . S
C1574 C1576 1.415 . S
C1575 C1574 1.355 . S
C1575 C1577 1.419 . S
C1576 C1574 1.415 . S
C1576 C1581 1.425 . S
C1576 C1583 1.409 . S
C1577 H1569 0.930 . S
C1577 C1575 1.419 . S
C1577 C1578 1.362 . S
C1578 H1570 0.930 . S
C1578 C1577 1.362 . S
C1578 C1581 1.409 . S
C1579 H1571 0.930 . S
C1579 C1580 1.355 . S
C1579 C1581 1.415 . S
C1580 C1579 1.355 . S
C1580 C1582 1.419 . S
C1581 C1576 1.425 . S
C1581 C1578 1.409 . S
C1581 C1579 1.415 . S
C1582 H1572 0.930 . S
C1582 C1580 1.419 . S
C1582 C1583 1.362 . S
C1583 H1573 0.930 . S
C1583 C1576 1.409 . S
C1583 C1582 1.362 . S
H1584 C1590 0.930 . S
H1585 C1593 0.930 . S
H1586 C1594 0.930 . S
H1587 C1595 0.930 . S
H1588 C1598 0.930 . S
H1589 C1599 0.930 . S
C1590 H1584 0.930 . S
C1590 C1591 1.355 . S
C1590 C1592 1.415 . S
C1591 C1590 1.355 . S
C1591 C1593 1.419 . S
C1592 C1590 1.415 . S
C1592 C1597 1.425 . S
C1592 C1599 1.409 . S
C1593 H1585 0.930 . S
C1593 C1591 1.419 . S
C1593 C1594 1.362 . S
C1594 H1586 0.930 . S
C1594 C1593 1.362 . S
C1594 C1597 1.409 . S
C1595 H1587 0.930 . S
C1595 C1596 1.355 . S
C1595 C1597 1.415 . S
C1596 C1595 1.355 . S
C1596 C1598 1.419 . S
C1597 C1592 1.425 . S
C1597 C1594 1.409 . S
C1597 C1595 1.415 . S
C1598 H1588 0.930 . S
C1598 C1596 1.419 . S
C1598 C1599 1.362 . S
C1599 H1589 0.930 . S
C1599 C1592 1.409 . S
C1599 C1598 1.362 . S
H1600 C1606 0.930 . S
H1601 C1609 0.930 . S
H1602 C1610 0.930 . S
H1603 C1611 0.930 . S
H1604 C1614 0.930 . S
H1605 C1615 0.930 . S
C1606 H1600 0.930 . S
C1606 C1607 1.355 . S
C1606 C1608 1.415 . S
C1607 C1606 1.355 . S
C1607 C1609 1.419 . S
C1608 C1606 1.415 . S
C1608 C1613 1.425 . S
C1608 C1615 1.409 . S
C1609 H1601 0.930 . S
C1609 C1607 1.419 . S
C1609 C1610 1.362 . S
C1610 H1602 0.930 . S
C1610 C1609 1.362 . S
C1610 C1613 1.409 . S
C1611 H1603 0.930 . S
C1611 C1612 1.355 . S
C1611 C1613 1.415 . S
C1612 C1611 1.355 . S
C1612 C1614 1.419 . S
C1613 C1608 1.425 . S
C1613 C1610 1.409 . S
C1613 C1611 1.415 . S
C1614 H1604 0.930 . S
C1614 C1612 1.419 . S
C1614 C1615 1.362 . S
C1615 H1605 0.930 . S
C1615 C1608 1.409 . S
C1615 C1614 1.362 . S
H1616 C1622 0.930 . S
H1617 C1625 0.930 . S
H1618 C1626 0.930 . S
H1619 C1627 0.930 . S
H1620 C1630 0.930 . S
H1621 C1631 0.930 . S
C1622 H1616 0.930 . S
C1622 C1623 1.355 . S
C1622 C1624 1.415 . S
C1623 C1622 1.355 . S
C1623 C1625 1.419 . S
C1624 C1622 1.415 . S
C1624 C1629 1.425 . S
C1624 C1631 1.409 . S
C1625 H1617 0.930 . S
C1625 C1623 1.419 . S
C1625 C1626 1.362 . S
C1626 H1618 0.930 . S
C1626 C1625 1.362 . S
C1626 C1629 1.409 . S
C1627 H1619 0.930 . S
C1627 C1628 1.355 . S
C1627 C1629 1.415 . S
C1628 C1627 1.355 . S
C1628 C1630 1.419 . S
C1629 C1624 1.425 . S
C1629 C1626 1.409 . S
C1629 C1627 1.415 . S
C1630 H1620 0.930 . S
C1630 C1628 1.419 . S
C1630 C1631 1.362 . S
C1631 H1621 0.930 . S
C1631 C1624 1.409 . S
C1631 C1630 1.362 . S
H1632 C1638 0.930 . S
H1633 C1641 0.930 . S
H1634 C1642 0.930 . S
H1635 C1643 0.930 . S
H1636 C1646 0.930 . S
H1637 C1647 0.930 . S
C1638 H1632 0.930 . S
C1638 C1639 1.355 . S
C1638 C1640 1.415 . S
C1639 C1638 1.355 . S
C1639 C1641 1.419 . S
C1640 C1638 1.415 . S
C1640 C1645 1.425 . S
C1640 C1647 1.409 . S
C1641 H1633 0.930 . S
C1641 C1639 1.419 . S
C1641 C1642 1.362 . S
C1642 H1634 0.930 . S
C1642 C1641 1.362 . S
C1642 C1645 1.409 . S
C1643 H1635 0.930 . S
C1643 C1644 1.355 . S
C1643 C1645 1.415 . S
C1644 C1643 1.355 . S
C1644 C1646 1.419 . S
C1645 C1640 1.425 . S
C1645 C1642 1.409 . S
C1645 C1643 1.415 . S
C1646 H1636 0.930 . S
C1646 C1644 1.419 . S
C1646 C1647 1.362 . S
C1647 H1637 0.930 . S
C1647 C1640 1.409 . S
C1647 C1646 1.362 . S
H1648 C1654 0.930 . S
H1649 C1657 0.930 . S
H1650 C1658 0.930 . S
H1651 C1659 0.930 . S
H1652 C1662 0.930 . S
H1653 C1663 0.930 . S
C1654 H1648 0.930 . S
C1654 C1655 1.355 . S
C1654 C1656 1.415 . S
C1655 C1654 1.355 . S
C1655 C1657 1.419 . S
C1656 C1654 1.415 . S
C1656 C1661 1.425 . S
C1656 C1663 1.409 . S
C1657 H1649 0.930 . S
C1657 C1655 1.419 . S
C1657 C1658 1.362 . S
C1658 H1650 0.930 . S
C1658 C1657 1.362 . S
C1658 C1661 1.409 . S
C1659 H1651 0.930 . S
C1659 C1660 1.355 . S
C1659 C1661 1.415 . S
C1660 C1659 1.355 . S
C1660 C1662 1.419 . S
C1661 C1656 1.425 . S
C1661 C1658 1.409 . S
C1661 C1659 1.415 . S
C1662 H1652 0.930 . S
C1662 C1660 1.419 . S
C1662 C1663 1.362 . S
C1663 H1653 0.930 . S
C1663 C1656 1.409 . S
C1663 C1662 1.362 . S
H1664 C1670 0.930 . S
H1665 C1673 0.930 . S
H1666 C1674 0.930 . S
H1667 C1675 0.930 . S
H1668 C1678 0.930 . S
H1669 C1679 0.930 . S
C1670 H1664 0.930 . S
C1670 C1671 1.355 . S
C1670 C1672 1.415 . S
C1671 C1670 1.355 . S
C1671 C1673 1.419 . S
C1672 C1670 1.415 . S
C1672 C1677 1.425 . S
C1672 C1679 1.409 . S
C1673 H1665 0.930 . S
C1673 C1671 1.419 . S
C1673 C1674 1.362 . S
C1674 H1666 0.930 . S
C1674 C1673 1.362 . S
C1674 C1677 1.409 . S
C1675 H1667 0.930 . S
C1675 C1676 1.355 . S
C1675 C1677 1.415 . S
C1676 C1675 1.355 . S
C1676 C1678 1.419 . S
C1677 C1672 1.425 . S
C1677 C1674 1.409 . S
C1677 C1675 1.415 . S
C1678 H1668 0.930 . S
C1678 C1676 1.419 . S
C1678 C1679 1.362 . S
C1679 H1669 0.930 . S
C1679 C1672 1.409 . S
C1679 C1678 1.362 . S
C535 C5 1.275 . S
C540 C49 1.222 . S
C551 C16 1.068 . S
C556 C60 1.056 . S
C567 C71 1.118 . S
C572 C27 1.152 . S
C583 C82 1.597 . S
C588 C38 1.602 . S
C599 C93 1.127 . S
C604 C159 1.147 . S
C615 C104 1.250 . S
C620 C170 1.239 . S
C631 C137 1.389 . S
C636 C115 1.424 . S
C647 C126 1.532 . S
C652 C148 1.563 . S
C663 C181 1.289 . S
C668 C500 1.145 . S
C679 C192 1.496 . S
C684 C478 1.482 . S
C695 C203 1.321 . S
C700 C225 1.252 . S
C711 C456 1.151 . S
C716 C214 1.166 . S
C727 C445 1.559 . S
C732 C236 1.557 . S
C743 C247 1.640 . S
C748 C522 1.655 . S
C759 C511 1.094 . S
C764 C258 1.069 . S
C775 C269 1.251 . S
C780 C313 1.206 . S
C791 C324 1.218 . S
C796 C280 1.217 . S
C807 C291 1.247 . S
C812 C335 1.400 . S
C823 C302 1.280 . S
C828 C346 1.372 . S
C839 C357 1.265 . S
C844 C423 1.332 . S
C855 C434 1.499 . S
C860 C368 1.483 . S
C871 C401 1.577 . S
C876 C379 1.559 . S
C887 C390 1.208 . S
C892 C412 1.367 . S
C903 C489 1.110 . S
C908 C467 1.112 . S
C919 C172 1.485 . S
C924 C7 1.474 . S
C935 C18 1.418 . S
C940 C139 1.488 . S
C951 C150 1.597 . S
C956 C29 1.574 . S
C967 C161 1.470 . S
C972 C40 1.593 . S
C983 C51 1.498 . S
C988 C106 1.554 . S
C999 C117 1.536 . S
C1004 C62 1.530 . S
C1015 C128 1.586 . S
C1020 C73 1.472 . S
C1031 C95 1.557 . S
C1036 C84 1.577 . S
C1047 C227 1.502 . S
C1052 C183 1.532 . S
C1063 C194 1.547 . S
C1068 C260 1.540 . S
C1079 C205 1.553 . S
C1084 C502 1.524 . S
C1095 C249 1.611 . S
C1100 C216 1.498 . S
C1111 C238 1.580 . S
C1116 C469 1.520 . S
C1127 C436 1.568 . S
C1132 C271 1.545 . S
C1143 C403 1.586 . S
C1148 C282 1.442 . S
C1159 C414 1.505 . S
C1164 C293 1.505 . S
C1175 C425 1.448 . S
C1180 C304 1.465 . S
C1191 C315 1.516 . S
C1196 C370 1.625 . S
C1207 C326 1.491 . S
C1212 C381 1.517 . S
C1223 C337 1.525 . S
C1228 C392 1.459 . S
C1239 C359 1.547 . S
C1244 C348 1.541 . S
C1255 C491 1.510 . S
C1260 C447 1.630 . S
C1271 C524 1.659 . S
C1276 C458 1.561 . S
C1287 C513 1.453 . S
C1292 C480 1.545 . S
C1303 C8 1.485 . S
C1308 C228 1.501 . S
C1319 C459 1.477 . S
C1324 C19 1.524 . S
C1335 C470 1.521 . S
C1340 C30 1.557 . S
C1351 C481 1.802 . S
C1356 C41 1.797 . S
C1367 C52 1.682 . S
C1372 C525 1.669 . S
C1383 C63 1.569 . S
C1388 C239 1.622 . S
C1399 C74 1.448 . S
C1404 C514 1.503 . S
C1415 C184 1.813 . S
C1420 C85 1.790 . S
C1431 C96 1.439 . S
C1436 C173 1.492 . S
C1447 C107 1.698 . S
C1452 C140 1.676 . S
C1463 C118 1.894 . S
C1468 C151 1.882 . S
C1479 C129 1.619 . S
C1484 C162 1.541 . S
C1495 C283 1.551 . S
C1500 C195 1.601 . S
C1511 C206 1.613 . S
C1516 C294 1.554 . S
C1527 C217 1.435 . S
C1532 C305 1.483 . S
C1543 C338 1.927 . S
C1548 C250 1.925 . S
C1559 C261 1.497 . S
C1564 C316 1.521 . S
C1575 C272 1.511 . S
C1580 C492 1.542 . S
C1591 C503 1.448 . S
C1596 C327 1.461 . S
C1607 C349 1.848 . S
C1612 C448 1.833 . S
C1623 C360 1.582 . S
C1628 C437 1.598 . S
C1639 C371 1.847 . S
C1644 C404 1.837 . S
C1655 C382 1.871 . S
C1660 C415 1.881 . S
C1671 C426 1.531 . S
C1676 C393 1.544 . S
