# Generated by pormake.
# Topology ske, (6)-cn, num edge types: 1
# Building blocks:
#     Node 0, Type 0, BuildingBlock: JUFBIX_clean_sbu_0, # of connection points: 6
#     Node 1, Type 0, BuildingBlock: JUFBIX_clean_sbu_0, # of connection points: 6
#     Node 2, Type 0, BuildingBlock: JUFBIX_clean_sbu_0, # of connection points: 6
#     Node 3, Type 0, BuildingBlock: JUFBIX_clean_sbu_0, # of connection points: 6
#     Node 4, Type 0, BuildingBlock: JUFBIX_clean_sbu_0, # of connection points: 6
#     Node 5, Type 0, BuildingBlock: JUFBIX_clean_sbu_0, # of connection points: 6
#     Node 6, Type 0, BuildingBlock: JUFBIX_clean_sbu_0, # of connection points: 6
#     Node 7, Type 0, BuildingBlock: JUFBIX_clean_sbu_0, # of connection points: 6
#     Edge 8, Type (0, 0), BuildingBlock: TEMPAE_clean_linker_10, # of connection points: 2
#     Edge 9, Type (0, 0), BuildingBlock: TEMPAE_clean_linker_10, # of connection points: 2
#     Edge 10, Type (0, 0), BuildingBlock: TEMPAE_clean_linker_10, # of connection points: 2
#     Edge 11, Type (0, 0), BuildingBlock: TEMPAE_clean_linker_10, # of connection points: 2
#     Edge 12, Type (0, 0), BuildingBlock: TEMPAE_clean_linker_10, # of connection points: 2
#     Edge 13, Type (0, 0), BuildingBlock: TEMPAE_clean_linker_10, # of connection points: 2
#     Edge 14, Type (0, 0), BuildingBlock: TEMPAE_clean_linker_10, # of connection points: 2
#     Edge 15, Type (0, 0), BuildingBlock: TEMPAE_clean_linker_10, # of connection points: 2
#     Edge 16, Type (0, 0), BuildingBlock: TEMPAE_clean_linker_10, # of connection points: 2
#     Edge 17, Type (0, 0), BuildingBlock: TEMPAE_clean_linker_10, # of connection points: 2
#     Edge 18, Type (0, 0), BuildingBlock: TEMPAE_clean_linker_10, # of connection points: 2
#     Edge 19, Type (0, 0), BuildingBlock: TEMPAE_clean_linker_10, # of connection points: 2
#     Edge 20, Type (0, 0), BuildingBlock: TEMPAE_clean_linker_10, # of connection points: 2
#     Edge 21, Type (0, 0), BuildingBlock: TEMPAE_clean_linker_10, # of connection points: 2
#     Edge 22, Type (0, 0), BuildingBlock: TEMPAE_clean_linker_10, # of connection points: 2
#     Edge 23, Type (0, 0), BuildingBlock: TEMPAE_clean_linker_10, # of connection points: 2
#     Edge 24, Type (0, 0), BuildingBlock: TEMPAE_clean_linker_10, # of connection points: 2
#     Edge 25, Type (0, 0), BuildingBlock: TEMPAE_clean_linker_10, # of connection points: 2
#     Edge 26, Type (0, 0), BuildingBlock: TEMPAE_clean_linker_10, # of connection points: 2
#     Edge 27, Type (0, 0), BuildingBlock: TEMPAE_clean_linker_10, # of connection points: 2
#     Edge 28, Type (0, 0), BuildingBlock: TEMPAE_clean_linker_10, # of connection points: 2
#     Edge 29, Type (0, 0), BuildingBlock: TEMPAE_clean_linker_10, # of connection points: 2
#     Edge 30, Type (0, 0), BuildingBlock: TEMPAE_clean_linker_10, # of connection points: 2
#     Edge 31, Type (0, 0), BuildingBlock: TEMPAE_clean_linker_10, # of connection points: 2
# Relax obj value: 0.259
# Max RMSD: 0.149
# Mean RMSD: 0.140
data_MOF--net-ske--node1-JUFBIX_clean_sbu_0--edge1-TEMPAE_clean_linker_10
_symmetry_space_group_name_H-M    P1
_symmetry_Int_Tables_number       1
_symmetry_cell_setting            triclinic
loop_
_symmetry_equiv_pos_as_xyz
'x, y, z'
_cell_length_a     68.474649
_cell_length_b     30.093641
_cell_length_c     16.399306
_cell_angle_alpha  90.267135
_cell_angle_beta   91.646259
_cell_angle_gamma 92.622838
loop_
_atom_site_label
_atom_site_type_symbol
_atom_site_fract_x
_atom_site_fract_y
_atom_site_fract_z
_atom_type_partial_charge
Co0 Co 0.15439 0.25281 0.71365 0.0
C1 C 0.15898 0.3364 0.63574 0.0
Co2 Co 0.16175 0.25041 0.58574 0.0
C3 C 0.13208 0.22935 0.84798 0.0
C4 C 0.15138 0.28521 0.87909 0.0
N5 N 0.14603 0.25704 0.81777 0.0
N6 N 0.1288 0.23773 0.92668 0.0
C7 C 0.14085 0.27323 0.94651 0.0
H8 H 0.125 0.20208 0.81356 0.0
H9 H 0.16272 0.31132 0.87593 0.0
C10 C 0.15571 0.16631 0.65694 0.0
N11 N 0.1692 0.24269 0.48053 0.0
C12 C 0.16031 0.21171 0.43137 0.0
C13 C 0.18629 0.2535 0.44514 0.0
N14 N 0.17133 0.20112 0.36832 0.0
C15 C 0.18758 0.2281 0.37541 0.0
C16 C 0.19487 0.25364 0.69735 0.0
O17 O 0.15258 0.18805 0.72139 0.0
O18 O 0.16072 0.1879 0.59464 0.0
O19 O 0.18941 0.25309 0.62227 0.0
O20 O 0.18168 0.25318 0.75072 0.0
O21 O 0.16255 0.31247 0.57444 0.0
H22 H 0.19762 0.27599 0.47105 0.0
H23 H 0.1463 0.19561 0.44416 0.0
O24 O 0.15573 0.31744 0.70392 0.0
O25 O 0.12764 0.25225 0.6795 0.0
O26 O 0.13372 0.24825 0.55049 0.0
C27 C 0.12121 0.24963 0.60653 0.0
H28 H 0.1432 0.28709 1.00723 0.0
H29 H 0.19979 0.22847 0.33496 0.0
Co30 Co 0.91314 0.26373 0.53271 0.0
C31 C 0.89289 0.34448 0.53357 0.0
Co32 Co 0.88054 0.25674 0.53306 0.0
C33 C 0.9575 0.25569 0.55445 0.0
C34 C 0.9477 0.30869 0.47973 0.0
N35 N 0.94089 0.27466 0.52586 0.0
N36 N 0.97414 0.27744 0.52855 0.0
C37 C 0.96772 0.31057 0.48149 0.0
H38 H 0.95742 0.22687 0.59368 0.0
H39 H 0.93861 0.33083 0.44538 0.0
C40 C 0.89946 0.17596 0.52333 0.0
N41 N 0.85311 0.24724 0.54058 0.0
C42 C 0.84141 0.26074 0.60081 0.0
C43 C 0.84142 0.2193 0.49447 0.0
N44 N 0.82307 0.24168 0.5949 0.0
C45 C 0.8231 0.21575 0.52757 0.0
C46 C 0.89502 0.2609 0.36393 0.0
O47 O 0.91544 0.19977 0.52495 0.0
O48 O 0.88339 0.19481 0.53188 0.0
O49 O 0.87929 0.25556 0.40558 0.0
O50 O 0.91102 0.26612 0.40703 0.0
O51 O 0.87774 0.31854 0.53181 0.0
H52 H 0.84618 0.20095 0.44232 0.0
H53 H 0.84656 0.28222 0.65078 0.0
O54 O 0.90968 0.32773 0.53797 0.0
O55 O 0.91451 0.26104 0.6601 0.0
O56 O 0.88265 0.25803 0.65865 0.0
C57 C 0.89869 0.2595 0.70177 0.0
H58 H 0.97692 0.33428 0.44895 0.0
H59 H 0.81086 0.1948 0.50474 0.0
Co60 Co 0.15476 0.75406 0.5447 0.0
C61 C 0.13588 0.83492 0.55319 0.0
Co62 Co 0.12216 0.74726 0.54492 0.0
C63 C 0.19386 0.75023 0.47707 0.0
C64 C 0.19388 0.79102 0.58425 0.0
N65 N 0.18216 0.76351 0.53742 0.0
N66 N 0.21225 0.76901 0.48359 0.0
C67 C 0.21223 0.79452 0.55147 0.0
H68 H 0.18871 0.72908 0.42665 0.0
H69 H 0.18913 0.80907 0.63677 0.0
C70 C 0.14237 0.66647 0.54506 0.0
N71 N 0.09444 0.73634 0.55183 0.0
C72 C 0.07783 0.75526 0.52313 0.0
C73 C 0.08763 0.70239 0.59817 0.0
N74 N 0.06121 0.73354 0.54916 0.0
C75 C 0.06762 0.70048 0.59639 0.0
C76 C 0.13662 0.75112 0.37591 0.0
O77 O 0.15754 0.69233 0.54642 0.0
O78 O 0.1256 0.68329 0.54038 0.0
O79 O 0.1208 0.74964 0.41755 0.0
O80 O 0.15267 0.75258 0.41906 0.0
O81 O 0.11987 0.81123 0.55184 0.0
H82 H 0.09672 0.68032 0.63268 0.0
H83 H 0.07791 0.78403 0.48375 0.0
O84 O 0.15193 0.81592 0.54534 0.0
O85 O 0.15598 0.75544 0.67216 0.0
O86 O 0.12425 0.74518 0.67064 0.0
C87 C 0.14024 0.75026 0.71378 0.0
H88 H 0.22451 0.81514 0.57496 0.0
H89 H 0.05841 0.67682 0.629 0.0
Co90 Co 0.87375 0.76156 0.4894 0.0
C91 C 0.88022 0.8447 0.41657 0.0
Co92 Co 0.88127 0.75727 0.36193 0.0
C93 C 0.87538 0.80031 0.64383 0.0
C94 C 0.84886 0.7605 0.62891 0.0
N95 N 0.86614 0.77012 0.59412 0.0
N96 N 0.86446 0.8115 0.70677 0.0
C97 C 0.84784 0.78578 0.69895 0.0
H98 H 0.88965 0.81532 0.63172 0.0
H99 H 0.83728 0.73886 0.60252 0.0
C100 C 0.87631 0.67467 0.44161 0.0
N101 N 0.88989 0.75233 0.25834 0.0
C102 C 0.90384 0.78003 0.22815 0.0
C103 C 0.88478 0.72369 0.19746 0.0
N104 N 0.90736 0.77121 0.14982 0.0
C105 C 0.89545 0.7354 0.13027 0.0
C106 C 0.91425 0.76114 0.47025 0.0
O107 O 0.87187 0.69912 0.50107 0.0
O108 O 0.88056 0.69307 0.37399 0.0
O109 O 0.90794 0.75969 0.39707 0.0
O110 O 0.90163 0.76137 0.52603 0.0
O111 O 0.88242 0.8224 0.35172 0.0
H112 H 0.87351 0.69743 0.2007 0.0
H113 H 0.91072 0.80762 0.26234 0.0
O114 O 0.87591 0.82362 0.48025 0.0
O115 O 0.84621 0.76196 0.45138 0.0
O116 O 0.85409 0.75431 0.32398 0.0
C117 C 0.84085 0.75777 0.37642 0.0
H118 H 0.83561 0.78615 0.73922 0.0
H119 H 0.8933 0.7211 0.0698 0.0
Co120 Co 0.6542 0.74796 0.21855 0.0
C121 C 0.65905 0.83017 0.13242 0.0
Co122 Co 0.66153 0.74344 0.09042 0.0
C123 C 0.66074 0.7661 0.38655 0.0
C124 C 0.63277 0.7866 0.34507 0.0
N125 N 0.64751 0.76045 0.32475 0.0
N126 N 0.65566 0.79699 0.44009 0.0
C127 C 0.63778 0.80914 0.41643 0.0
H128 H 0.67486 0.75142 0.38899 0.0
H129 H 0.62051 0.79413 0.30529 0.0
C130 C 0.655 0.66101 0.17002 0.0
N131 N 0.66912 0.73393 0.98642 0.0
C132 C 0.68509 0.75387 0.95428 0.0
C133 C 0.66302 0.70217 0.9324 0.0
N134 N 0.68958 0.73564 0.88258 0.0
C135 C 0.67551 0.70329 0.86817 0.0
C136 C 0.69499 0.74812 0.1987 0.0
O137 O 0.65178 0.6837 0.23397 0.0
O138 O 0.66025 0.68156 0.10638 0.0
O139 O 0.68946 0.74656 0.12413 0.0
O140 O 0.68178 0.7483 0.25112 0.0
O141 O 0.66236 0.80532 0.07237 0.0
H142 H 0.65058 0.67927 0.93999 0.0
H143 H 0.69338 0.78107 0.98403 0.0
O144 O 0.65605 0.81209 0.20123 0.0
O145 O 0.62735 0.74684 0.18636 0.0
O146 O 0.63346 0.74057 0.05697 0.0
C147 C 0.62096 0.74313 0.1132 0.0
H148 H 0.62994 0.83561 0.44368 0.0
H149 H 0.67383 0.68279 0.81384 0.0
Co150 Co 0.4136 0.76697 1.02833 0.0
C151 C 0.39462 0.84921 1.02699 0.0
Co152 Co 0.38094 0.76245 1.02906 0.0
C153 C 0.45767 0.75659 0.05315 0.0
C154 C 0.44873 0.80721 0.97099 0.0
N155 N 0.4414 0.77547 1.02097 0.0
N156 N 0.4746 0.77624 1.02567 0.0
C157 C 0.46875 0.80789 0.97399 0.0
H158 H 0.45713 0.72946 0.09624 0.0
H159 H 0.44002 0.82865 0.93346 0.0
C160 C 0.39863 0.68018 1.02177 0.0
N161 N 0.3533 0.75574 1.0362 0.0
C162 C 0.34232 0.76285 0.10251 0.0
C163 C 0.34013 0.74147 0.97802 0.0
N164 N 0.32297 0.75351 0.08816 0.0
C165 C 0.32159 0.74028 1.00945 0.0
C166 C 0.39551 0.76489 0.85967 0.0
O167 O 0.4149 0.70282 1.02774 0.0
O168 O 0.3827 0.70032 1.0235 0.0
O169 O 0.37972 0.76476 0.90146 0.0
O170 O 0.41156 0.76504 0.90264 0.0
O171 O 0.37921 0.82448 1.03245 0.0
H172 H 0.34374 0.73182 0.91687 0.0
H173 H 0.3483 0.77504 0.16054 0.0
O174 O 0.41113 0.8312 1.02626 0.0
O175 O 0.41498 0.76859 0.15584 0.0
O176 O 0.38321 0.76025 0.15446 0.0
C177 C 0.39922 0.76438 0.19756 0.0
H178 H 0.47834 0.82979 0.9394 0.0
H179 H 0.30818 0.72939 0.97729 0.0
Co180 Co 0.65421 0.24852 0.04947 0.0
C181 C 0.63588 0.32962 0.06029 0.0
Co182 Co 0.62155 0.24181 0.04986 0.0
C183 C 0.69288 0.24827 0.976 0.0
C184 C 0.69492 0.27228 0.09891 0.0
N185 N 0.68184 0.25627 0.0418 0.0
N186 N 0.71218 0.2587 0.98965 0.0
C187 C 0.71346 0.2736 0.06738 0.0
H188 H 0.68699 0.23463 0.91887 0.0
H189 H 0.69124 0.28304 0.15935 0.0
C190 C 0.64132 0.16067 0.04772 0.0
N191 N 0.59373 0.23193 0.05696 0.0
C192 C 0.57726 0.25169 1.02892 0.0
C193 C 0.58668 0.19781 0.10233 0.0
N194 N 0.56048 0.23032 0.05436 0.0
C195 C 0.56666 0.19662 0.10054 0.0
C196 C 0.63587 0.24631 0.8808 0.0
O197 O 0.65649 0.18654 0.04969 0.0
O198 O 0.62455 0.17757 0.04398 0.0
O199 O 0.62007 0.24474 0.9225 0.0
O200 O 0.65191 0.24775 0.92392 0.0
O201 O 0.61981 0.30601 0.05816 0.0
H202 H 0.59561 0.1751 0.13608 0.0
H203 H 0.57753 0.28077 0.9903 0.0
O204 O 0.65192 0.31059 0.05168 0.0
O205 O 0.65544 0.24917 0.177 0.0
O206 O 0.62369 0.23914 0.17553 0.0
C207 C 0.6397 0.24406 0.21863 0.0
H208 H 0.72679 0.28573 0.09874 0.0
H209 H 0.55729 0.17294 0.13235 0.0
Co210 Co 0.37332 0.26348 0.98539 0.0
C211 C 0.37996 0.34796 0.92188 0.0
Co212 Co 0.3816 0.26225 0.85813 0.0
C213 C 0.36495 0.2307 0.14219 0.0
C214 C 0.34885 0.28819 0.11479 0.0
N215 N 0.36373 0.2643 0.08892 0.0
N216 N 0.3508 0.231 0.19725 0.0
C217 C 0.34092 0.26786 0.18214 0.0
H218 H 0.37542 0.20498 0.13812 0.0
H219 H 0.34298 0.31611 0.08248 0.0
C220 C 0.37682 0.17754 0.92797 0.0
N221 N 0.39072 0.25871 0.7546 0.0
C222 C 0.38488 0.22524 0.70408 0.0
C223 C 0.40771 0.27516 0.72461 0.0
N224 N 0.39794 0.2181 0.64649 0.0
C225 C 0.41214 0.25027 0.6573 0.0
C226 C 0.4138 0.26386 0.97161 0.0
O227 O 0.37191 0.20049 0.98792 0.0
O228 O 0.3812 0.19761 0.86284 0.0
O229 O 0.40794 0.26397 0.89762 0.0
O230 O 0.40085 0.2632 1.02645 0.0
O231 O 0.38273 0.32705 0.85547 0.0
H232 H 0.41706 0.30088 0.75369 0.0
H233 H 0.3717 0.20472 0.71254 0.0
O234 O 0.37516 0.32583 0.98444 0.0
O235 O 0.34611 0.26391 0.94348 0.0
O236 O 0.35461 0.26011 0.81658 0.0
C237 C 0.34109 0.2617 0.86809 0.0
H238 H 0.3283 0.27799 0.21457 0.0
H239 H 0.42516 0.25425 0.62166 0.0
C240 C 0.23006 0.28169 0.68013 0.0
C241 C 0.21632 0.25486 0.72192 0.0
C242 C 0.25021 0.28389 0.70348 0.0
C243 C 0.25727 0.25699 0.76802 0.0
C244 C 0.24347 0.22897 0.80901 0.0
C245 C 0.22326 0.22907 0.78693 0.0
C246 C 0.26389 0.31584 0.6599 0.0
C247 C 0.25007 0.19818 0.87562 0.0
C248 C 0.31259 0.2347 0.77495 0.0
C249 C 0.31977 0.26095 0.84138 0.0
C250 C 0.29242 0.23238 0.75165 0.0
C251 C 0.27895 0.25847 0.79306 0.0
C252 C 0.2863 0.28597 0.85882 0.0
C253 C 0.30636 0.28604 0.88318 0.0
C254 C 0.28548 0.2011 0.68362 0.0
C255 C 0.27301 0.31598 0.90302 0.0
H256 H 0.22493 0.30201 0.63021 0.0
H257 H 0.2129 0.20789 0.81932 0.0
H258 H 0.27183 0.33827 0.70483 0.0
H259 H 0.27502 0.29726 0.62784 0.0
H260 H 0.25607 0.33642 0.61461 0.0
H261 H 0.23789 0.17612 0.89751 0.0
H262 H 0.26173 0.17721 0.8531 0.0
H263 H 0.2564 0.21781 0.92814 0.0
H264 H 0.32269 0.21482 0.7425 0.0
H265 H 0.31167 0.30669 0.9342 0.0
H266 H 0.27913 0.2201 0.63237 0.0
H267 H 0.27374 0.17784 0.70555 0.0
H268 H 0.29747 0.18141 0.66012 0.0
H269 H 0.26529 0.33721 0.85856 0.0
H270 H 0.28112 0.33777 0.94854 0.0
H271 H 0.2617 0.29574 0.93497 0.0
C272 C 0.72488 0.2637 0.84897 0.0
C273 C 0.72803 0.25607 0.93272 0.0
C274 C 0.7403 0.2626 0.79356 0.0
C275 C 0.75942 0.25271 0.82173 0.0
C276 C 0.76261 0.24441 0.90611 0.0
C277 C 0.74701 0.24666 0.96036 0.0
C278 C 0.73615 0.27248 0.70477 0.0
C279 C 0.7825 0.23259 0.93912 0.0
C280 C 0.79459 0.20766 0.6664 0.0
C281 C 0.8073 0.24468 0.65212 0.0
C282 C 0.77919 0.20973 0.72154 0.0
C283 C 0.77596 0.25012 0.76296 0.0
C284 C 0.78868 0.28773 0.74848 0.0
C285 C 0.80426 0.28443 0.6942 0.0
C286 C 0.76646 0.1684 0.73607 0.0
C287 C 0.78569 0.33171 0.78976 0.0
H288 H 0.71038 0.27153 0.82693 0.0
H289 H 0.7496 0.24024 1.0246 0.0
H290 H 0.74574 0.30096 0.68525 0.0
H291 H 0.7395 0.24345 0.66656 0.0
H292 H 0.72066 0.28051 0.69261 0.0
H293 H 0.78259 0.22647 1.00587 0.0
H294 H 0.78725 0.20231 0.90784 0.0
H295 H 0.79345 0.25983 0.9266 0.0
H296 H 0.79693 0.17658 0.63541 0.0
H297 H 0.81386 0.31327 0.68333 0.0
H298 H 0.75103 0.17449 0.71905 0.0
H299 H 0.76697 0.15993 0.80186 0.0
H300 H 0.77108 0.13934 0.70059 0.0
H301 H 0.77073 0.34263 0.77528 0.0
H302 H 0.79645 0.35812 0.77071 0.0
H303 H 0.78699 0.32799 0.85692 0.0
C304 C 0.3102 0.74637 0.2284 0.0
C305 C 0.30714 0.7557 0.14523 0.0
C306 C 0.2948 0.74718 0.28393 0.0
C307 C 0.27581 0.75847 0.25648 0.0
C308 C 0.2727 0.76838 0.17269 0.0
C309 C 0.28827 0.76644 0.11828 0.0
C310 C 0.29885 0.7356 0.37205 0.0
C311 C 0.25294 0.7816 0.14054 0.0
C312 C 0.23075 0.7268 0.38252 0.0
C313 C 0.22804 0.76611 0.4265 0.0
C314 C 0.24629 0.72361 0.32806 0.0
C315 C 0.25933 0.7609 0.31547 0.0
C316 C 0.25646 0.80083 0.35892 0.0
C317 C 0.24106 0.8028 0.41406 0.0
C318 C 0.24888 0.68011 0.28444 0.0
C319 C 0.26957 0.84181 0.34654 0.0
H320 H 0.32461 0.73748 0.24985 0.0
H321 H 0.28575 0.77415 0.0545 0.0
H322 H 0.29593 0.7643 0.41186 0.0
H323 H 0.28889 0.70747 0.39023 0.0
H324 H 0.3142 0.72628 0.38347 0.0
H325 H 0.25289 0.78871 0.07412 0.0
H326 H 0.24175 0.75468 0.15182 0.0
H327 H 0.24848 0.81166 0.17338 0.0
H328 H 0.22091 0.69819 0.39195 0.0
H329 H 0.23898 0.83358 0.44648 0.0
H330 H 0.26373 0.66829 0.29819 0.0
H331 H 0.24761 0.68494 0.21752 0.0
H332 H 0.23789 0.65388 0.30216 0.0
H333 H 0.28493 0.83469 0.36295 0.0
H334 H 0.26526 0.87052 0.38372 0.0
H335 H 0.26912 0.8514 0.28128 0.0
C336 C 0.7225 0.73238 0.30009 0.0
C337 C 0.71636 0.74976 0.2246 0.0
C338 C 0.74252 0.73283 0.32491 0.0
C339 C 0.75707 0.75334 0.27537 0.0
C340 C 0.75078 0.7724 0.2002 0.0
C341 C 0.73077 0.76925 0.17499 0.0
C342 C 0.7479 0.71101 0.40459 0.0
C343 C 0.76497 0.7968 0.14552 0.0
C344 C 0.80634 0.78429 0.38862 0.0
C345 C 0.81947 0.75674 0.35077 0.0
C346 C 0.78633 0.78455 0.3636 0.0
C347 C 0.77866 0.75459 0.30181 0.0
C348 C 0.79186 0.72564 0.26537 0.0
C349 C 0.81201 0.72803 0.28841 0.0
C350 C 0.77369 0.81749 0.40412 0.0
C351 C 0.78481 0.69151 0.20223 0.0
H352 H 0.71161 0.71731 0.33938 0.0
H353 H 0.72633 0.78332 0.11698 0.0
H354 H 0.76203 0.69451 0.40113 0.0
H355 H 0.74934 0.73668 0.45335 0.0
H356 H 0.73645 0.68593 0.4227 0.0
H357 H 0.75787 0.82472 0.11413 0.0
H358 H 0.77821 0.81034 0.17936 0.0
H359 H 0.76954 0.77368 0.09755 0.0
H360 H 0.81183 0.8068 0.43667 0.0
H361 H 0.82189 0.70627 0.25898 0.0
H362 H 0.76921 0.80422 0.46409 0.0
H363 H 0.76036 0.8245 0.36723 0.0
H364 H 0.7821 0.84941 0.41611 0.0
H365 H 0.76995 0.67757 0.2154 0.0
H366 H 0.79488 0.66367 0.19889 0.0
H367 H 0.78423 0.70741 0.14144 0.0
C368 C 0.15484 0.90373 0.59914 0.0
C369 C 0.13681 0.88346 0.57283 0.0
C370 C 0.15669 0.94895 0.6203 0.0
C371 C 0.14018 0.97543 0.61404 0.0
C372 C 0.12182 0.95528 0.5887 0.0
C373 C 0.1203 0.9094 0.5691 0.0
C374 C 0.17655 0.96864 0.6472 0.0
C375 C 0.10391 0.98246 0.58025 0.0
C376 C 0.14572 0.09082 0.71469 0.0
C377 C 0.15187 0.11723 0.64909 0.0
C378 C 0.14133 0.04474 0.70415 0.0
C379 C 0.14289 0.02477 0.62604 0.0
C380 C 0.14882 0.05152 0.5597 0.0
C381 C 0.15332 0.09702 0.5721 0.0
C382 C 0.13534 0.01729 0.77676 0.0
C383 C 0.15062 0.03198 0.47528 0.0
H384 H 0.1677 0.88411 0.6038 0.0
H385 H 0.1063 0.89407 0.54958 0.0
H386 H 0.18192 0.99267 0.6009 0.0
H387 H 0.17551 0.98717 0.70543 0.0
H388 H 0.18754 0.94288 0.65561 0.0
H389 H 0.09047 0.96149 0.56597 0.0
H390 H 0.10181 1.00135 0.63733 0.0
H391 H 0.10595 0.00712 0.53076 0.0
H392 H 0.14437 0.10607 0.77416 0.0
H393 H 0.1579 0.11691 0.52057 0.0
H394 H 0.14619 0.99165 0.78889 0.0
H395 H 0.12104 0.99952 0.76362 0.0
H396 H 0.13419 0.03787 0.83268 0.0
H397 H 0.16105 0.00484 0.47685 0.0
H398 H 0.15574 0.0571 0.43037 0.0
H399 H 0.13624 0.01731 0.45349 0.0
C400 C 0.90708 0.42332 0.52606 0.0
C401 C 0.89074 0.39335 0.5242 0.0
C402 C 0.90503 0.46916 0.51244 0.0
C403 C 0.88622 0.48548 0.49567 0.0
C404 C 0.8697 0.45538 0.49405 0.0
C405 C 0.87214 0.40995 0.50869 0.0
C406 C 0.923 0.50014 0.51576 0.0
C407 C 0.8494 0.4711 0.47602 0.0
C408 C 0.87695 0.60789 0.53265 0.0
C409 C 0.87805 0.62588 0.45387 0.0
C410 C 0.87982 0.56258 0.54708 0.0
C411 C 0.88367 0.53406 0.48111 0.0
C412 C 0.88457 0.55181 0.40124 0.0
C413 C 0.88187 0.59749 0.38863 0.0
C414 C 0.87885 0.54529 0.63325 0.0
C415 C 0.88838 0.52251 0.32901 0.0
H416 H 0.92151 0.41094 0.53767 0.0
H417 H 0.85939 0.38724 0.50659 0.0
H418 H 0.9247 0.51704 0.45624 0.0
H419 H 0.92136 0.5264 0.56247 0.0
H420 H 0.93653 0.48244 0.53047 0.0
H421 H 0.83809 0.44344 0.47592 0.0
H422 H 0.84563 0.49615 0.52215 0.0
H423 H 0.8489 0.48755 0.41563 0.0
H424 H 0.87417 0.62944 0.58376 0.0
H425 H 0.8828 0.61096 0.32762 0.0
H426 H 0.89277 0.52991 0.65078 0.0
H427 H 0.86701 0.51904 0.63714 0.0
H428 H 0.87613 0.57192 0.67812 0.0
H429 H 0.90263 0.50684 0.33801 0.0
H430 H 0.88858 0.54126 0.27082 0.0
H431 H 0.87694 0.49525 0.32372 0.0
C432 C 0.88934 0.92045 0.35666 0.0
C433 C 0.88415 0.89385 0.42342 0.0
C434 C 0.89359 0.96667 0.36663 0.0
C435 C 0.89289 0.98657 0.44525 0.0
C436 C 0.88798 0.95961 0.51266 0.0
C437 C 0.8836 0.91404 0.50089 0.0
C438 C 0.89852 0.99435 0.29296 0.0
C439 C 0.8871 0.97901 0.59765 0.0
C440 C 0.9153 0.10221 0.50152 0.0
C441 C 0.89859 0.12753 0.50231 0.0
C442 C 0.91389 0.05656 0.47999 0.0
C443 C 0.89542 0.03597 0.45738 0.0
C444 C 0.8787 0.06187 0.45559 0.0
C445 C 0.88046 0.10686 0.47853 0.0
C446 C 0.93206 0.03005 0.48362 0.0
C447 C 0.8587 0.0417 0.43195 0.0
H448 H 0.89 0.90526 0.2968 0.0
H449 H 0.87979 0.8941 0.55341 0.0
H450 H 0.88748 0.01987 0.28369 0.0
H451 H 0.91291 0.01226 0.30301 0.0
H452 H 0.89897 0.9739 0.23654 0.0
H453 H 0.88281 0.95369 0.64356 0.0
H454 H 0.90159 0.99436 0.61633 0.0
H455 H 0.87641 0.0056 0.59861 0.0
H456 H 0.92939 0.11783 0.51889 0.0
H457 H 0.86742 0.12599 0.47736 0.0
H458 H 0.93353 0.01152 0.42565 0.0
H459 H 0.93087 0.00512 0.53308 0.0
H460 H 0.94551 0.05145 0.49521 0.0
H461 H 0.85923 0.02345 0.37318 0.0
H462 H 0.8475 0.06715 0.42605 0.0
H463 H 0.85397 0.01735 0.47884 0.0
C464 C 0.12807 0.58789 0.55505 0.0
C465 C 0.14446 0.61769 0.55547 0.0
C466 C 0.13008 0.54214 0.5696 0.0
C467 C 0.1489 0.52575 0.58576 0.0
C468 C 0.16546 0.55569 0.58618 0.0
C469 C 0.16306 0.60104 0.57069 0.0
C470 C 0.11206 0.5113 0.56759 0.0
C471 C 0.18578 0.53985 0.60338 0.0
C472 C 0.1536 0.4133 0.69095 0.0
C473 C 0.15714 0.38524 0.62489 0.0
C474 C 0.15085 0.45904 0.67927 0.0
C475 C 0.15144 0.47715 0.59958 0.0
C476 C 0.15501 0.44895 0.53285 0.0
C477 C 0.1579 0.40362 0.54631 0.0
C478 C 0.14731 0.48804 0.75221 0.0
C479 C 0.15567 0.46662 0.44685 0.0
H480 H 0.11364 0.60033 0.54375 0.0
H481 H 0.17585 0.62364 0.57173 0.0
H482 H 0.11341 0.48521 0.52032 0.0
H483 H 0.11065 0.49418 0.62703 0.0
H484 H 0.09849 0.52914 0.55439 0.0
H485 H 0.1971 0.5675 0.60347 0.0
H486 H 0.18639 0.52315 0.66351 0.0
H487 H 0.18944 0.515 0.55674 0.0
H488 H 0.15291 0.39951 0.75179 0.0
H489 H 0.16049 0.38237 0.49456 0.0
H490 H 0.13306 0.50383 0.7443 0.0
H491 H 0.1588 0.51521 0.75726 0.0
H492 H 0.14729 0.46902 0.81011 0.0
H493 H 0.14173 0.4822 0.4305 0.0
H494 H 0.15817 0.44018 0.40133 0.0
H495 H 0.16753 0.4928 0.44258 0.0
C496 C 0.65173 0.59168 0.08551 0.0
C497 C 0.65106 0.61177 0.16307 0.0
C498 C 0.64738 0.54614 0.07327 0.0
C499 C 0.64246 0.51894 0.14033 0.0
C500 C 0.64163 0.53868 0.21905 0.0
C501 C 0.6458 0.58496 0.22946 0.0
C502 C 0.64841 0.52702 0.98815 0.0
C503 C 0.63669 0.51074 0.29235 0.0
C504 C 0.62009 0.40339 0.08273 0.0
C505 C 0.63679 0.37803 0.08176 0.0
C506 C 0.6215 0.44898 0.10475 0.0
C507 C 0.63996 0.46952 0.12764 0.0
C508 C 0.65668 0.44359 0.12921 0.0
C509 C 0.65493 0.39863 0.10583 0.0
C510 C 0.60333 0.47549 0.10117 0.0
C511 C 0.67665 0.46366 0.15343 0.0
H512 H 0.65559 0.61168 1.03313 0.0
H513 H 0.64507 0.59998 0.28942 0.0
H514 H 0.66041 0.50352 0.98597 0.0
H515 H 0.6346 0.50804 0.97139 0.0
H516 H 0.65105 0.55315 0.94158 0.0
H517 H 0.63563 0.53117 0.34852 0.0
H518 H 0.6226 0.49171 0.28113 0.0
H519 H 0.64808 0.48617 0.30285 0.0
H520 H 0.606 0.38783 0.06514 0.0
H521 H 0.66795 0.37946 0.10694 0.0
H522 H 0.60459 0.50068 0.05217 0.0
H523 H 0.60178 0.49373 0.1594 0.0
H524 H 0.58989 0.45415 0.08894 0.0
H525 H 0.68145 0.4882 0.10698 0.0
H526 H 0.68784 0.43818 0.1592 0.0
H527 H 0.67607 0.48167 0.21242 0.0
C528 C 0.37441 0.91627 1.0124 0.0
C529 C 0.39292 0.8979 1.01386 0.0
C530 C 0.37209 0.96132 0.99406 0.0
C531 C 0.38868 0.98915 0.97688 0.0
C532 C 0.40745 0.97101 0.97865 0.0
C533 C 0.40935 0.92563 0.99699 0.0
C534 C 0.35183 0.97918 0.99337 0.0
C535 C 0.42554 0.99964 0.96177 0.0
C536 C 0.37987 0.10004 0.87142 0.0
C537 C 0.37956 0.12914 0.93839 0.0
C538 C 0.38298 0.05439 0.8826 0.0
C539 C 0.38637 0.03775 0.96241 0.0
C540 C 0.38663 0.06739 1.02968 0.0
C541 C 0.38292 0.11234 1.01704 0.0
C542 C 0.38241 0.02389 0.80922 0.0
C543 C 0.39072 0.05162 0.11547 0.0
H544 H 0.36157 0.89527 1.02491 0.0
H545 H 0.42369 0.91181 0.99731 0.0
H546 H 0.35103 0.00507 0.0414 0.0
H547 H 0.34861 0.99516 0.93394 0.0
H548 H 0.34033 0.95278 1.00403 0.0
H549 H 0.439 0.98039 0.96367 0.0
H550 H 0.42406 0.01526 0.9009 0.0
H551 H 0.42726 0.02696 1.00744 0.0
H552 H 0.37742 0.11283 0.81049 0.0
H553 H 0.38309 0.13464 0.06915 0.0
H554 H 0.37043 0.9981 0.81489 0.0
H555 H 0.39628 0.00638 0.80627 0.0
H556 H 0.38011 0.0421 0.75118 0.0
H557 H 0.37823 0.03 0.13553 0.0
H558 H 0.39306 0.07978 0.15912 0.0
H559 H 0.40389 0.03148 0.11791 0.0
C560 C 0.38814 0.42443 0.8643 0.0
C561 C 0.38373 0.39699 0.93086 0.0
C562 C 0.39212 0.47061 0.87521 0.0
C563 C 0.39192 0.48966 0.95457 0.0
C564 C 0.38785 0.46188 1.02188 0.0
C565 C 0.38371 0.41626 1.00919 0.0
C566 C 0.39617 0.49917 0.80173 0.0
C567 C 0.38752 0.48046 0.10758 0.0
C568 C 0.41427 0.60605 1.0044 0.0
C569 C 0.39753 0.63126 1.0056 0.0
C570 C 0.41281 0.56007 0.98596 0.0
C571 C 0.39423 0.53895 0.96744 0.0
C572 C 0.37739 0.56448 0.9674 0.0
C573 C 0.37923 0.60994 0.98682 0.0
C574 C 0.43109 0.53392 0.98759 0.0
C575 C 0.35729 0.54363 0.94799 0.0
H576 H 0.38834 0.40994 0.80373 0.0
H577 H 0.38055 0.39555 0.06152 0.0
H578 H 0.38451 0.52331 0.79366 0.0
H579 H 0.4102 0.51869 0.81108 0.0
H580 H 0.39687 0.47917 0.74487 0.0
H581 H 0.38545 0.454 0.15397 0.0
H582 H 0.40137 0.49974 0.12246 0.0
H583 H 0.37544 0.50361 0.11224 0.0
H584 H 0.42847 0.62214 1.01818 0.0
H585 H 0.36615 0.6289 0.9866 0.0
H586 H 0.43243 0.51614 0.92874 0.0
H587 H 0.43016 0.50835 1.03603 0.0
H588 H 0.44451 0.55544 0.99915 0.0
H589 H 0.35719 0.52587 0.88853 0.0
H590 H 0.34582 0.56858 0.94542 0.0
H591 H 0.35338 0.5187 0.99512 0.0
C592 C 0.62723 0.08158 0.05397 0.0
C593 C 0.64352 0.1117 0.05551 0.0
C594 C 0.62943 0.03561 0.06587 0.0
C595 C 0.64834 0.0193 0.08051 0.0
C596 C 0.6648 0.04955 0.08165 0.0
C597 C 0.66221 0.09509 0.06881 0.0
C598 C 0.61151 0.00449 0.06323 0.0
C599 C 0.6852 0.03389 0.09746 0.0
C600 C 0.65358 0.90717 0.18615 0.0
C601 C 0.65715 0.87892 0.12036 0.0
C602 C 0.65061 0.95277 0.17411 0.0
C603 C 0.65104 0.97068 0.09426 0.0
C604 C 0.65468 0.94232 1.02772 0.0
C605 C 0.65776 0.89703 0.04156 0.0
C606 C 0.64705 0.98183 0.24695 0.0
C607 C 0.6552 0.95978 0.94158 0.0
H608 H 0.61274 0.09393 0.044 0.0
H609 H 0.67494 0.11787 0.07056 0.0
H610 H 0.61302 0.97844 1.016 0.0
H611 H 0.61005 0.98733 0.12262 0.0
H612 H 0.5979 0.02213 0.04969 0.0
H613 H 0.69648 0.06162 0.09678 0.0
H614 H 0.68606 0.01727 0.15763 0.0
H615 H 0.68873 0.009 0.05066 0.0
H616 H 0.65299 0.89359 0.2472 0.0
H617 H 0.66038 0.8756 0.99008 0.0
H618 H 0.63274 0.99737 0.23916 0.0
H619 H 0.65846 0.00918 0.2517 0.0
H620 H 0.64713 0.96292 0.30498 0.0
H621 H 0.64115 0.97488 0.92522 0.0
H622 H 0.65784 0.9333 0.89629 0.0
H623 H 0.66691 0.9863 0.93699 0.0
C624 C 0.15009 0.13857 0.3151 0.0
C625 C 0.16538 0.1706 0.30374 0.0
C626 C 0.1387 0.12221 0.24834 0.0
C627 C 0.14276 0.13903 0.17035 0.0
C628 C 0.16115 0.16149 0.15768 0.0
C629 C 0.17216 0.17775 0.22527 0.0
C630 C 0.12094 0.09196 0.26208 0.0
C631 C 0.16764 0.17572 0.07417 0.0
C632 C 0.1223 0.16035 0.97004 0.0
C633 C 0.12061 0.20628 0.9834 0.0
C634 C 0.12493 0.13193 1.03643 0.0
C635 C 0.12629 0.15074 0.11529 0.0
C636 C 0.1186 0.19318 0.12822 0.0
C637 C 0.11604 0.22095 0.06111 0.0
C638 C 0.12987 0.08443 1.02102 0.0
C639 C 0.1172 0.21307 0.21243 0.0
H640 H 0.14578 0.12976 0.37608 0.0
H641 H 0.18462 0.20039 0.21592 0.0
H642 H 0.10738 0.10974 0.24888 0.0
H643 H 0.12088 0.06316 0.21962 0.0
H644 H 0.12058 0.07947 0.32571 0.0
H645 H 0.1836 0.1843 0.07408 0.0
H646 H 0.16438 0.14907 1.0284 0.0
H647 H 0.1599 0.20571 0.05527 0.0
H648 H 0.12452 0.14755 0.90939 0.0
H649 H 0.1133 0.25576 0.0707 0.0
H650 H 0.12871 0.06405 0.07702 0.0
H651 H 0.145 0.08336 0.99889 0.0
H652 H 0.11994 0.06952 0.97255 0.0
H653 H 0.11135 0.18809 0.25587 0.0
H654 H 0.1076 0.24186 0.21201 0.0
H655 H 0.13197 0.22499 0.23496 0.0
C656 C 0.88128 0.23648 0.21588 0.0
C657 C 0.89513 0.26103 0.26667 0.0
C658 C 0.88201 0.23483 0.12728 0.0
C659 C 0.89644 0.26018 0.08205 0.0
C660 C 0.91013 0.28603 0.13355 0.0
C661 C 0.90963 0.2851 0.22207 0.0
C662 C 0.86706 0.20449 0.08326 0.0
C663 C 0.92567 0.316 0.09643 0.0
C664 C 0.91362 0.24345 0.85032 0.0
C665 C 0.8985 0.25989 0.79906 0.0
C666 C 0.91295 0.24219 0.93895 0.0
C667 C 0.89716 0.25991 0.9837 0.0
C668 C 0.88209 0.27762 0.9317 0.0
C669 C 0.88271 0.27628 0.84324 0.0
C670 C 0.92952 0.22059 0.98357 0.0
C671 C 0.86488 0.2991 0.9682 0.0
H672 H 0.8699 0.21694 0.24567 0.0
H673 H 0.92067 0.30467 0.2568 0.0
H674 H 0.85296 0.22121 0.07879 0.0
H675 H 0.87149 0.19543 1.02105 0.0
H676 H 0.86443 0.17341 0.11838 0.0
H677 H 0.92807 0.34707 0.13291 0.0
H678 H 0.93968 0.2989 0.09771 0.0
H679 H 0.92195 0.32512 1.03258 0.0
H680 H 0.92606 0.23004 0.82093 0.0
H681 H 0.87065 0.28945 0.80816 0.0
H682 H 0.92569 0.20991 0.04598 0.0
H683 H 0.94234 0.24448 0.98766 0.0
H684 H 0.93404 0.19109 0.94911 0.0
H685 H 0.85218 0.27485 0.96694 0.0
H686 H 0.86061 0.32813 0.93124 0.0
H687 H 0.86788 0.31045 1.03196 0.0
C688 C 0.12171 0.76736 0.22745 0.0
C689 C 0.13682 0.75078 0.27862 0.0
C690 C 0.12238 0.7687 0.13882 0.0
C691 C 0.13814 0.75092 0.094 0.0
C692 C 0.15319 0.73306 0.1459 0.0
C693 C 0.15258 0.73433 0.23438 0.0
C694 C 0.10584 0.79045 0.09431 0.0
C695 C 0.17036 0.7115 0.1093 0.0
C696 C 0.12561 0.72606 0.85557 0.0
C697 C 0.14013 0.75009 0.81103 0.0
C698 C 0.12511 0.72504 0.94408 0.0
C699 C 0.13885 0.75074 0.99564 0.0
C700 C 0.15331 0.77605 0.95047 0.0
C701 C 0.15403 0.77448 0.86187 0.0
C702 C 0.10955 0.69512 0.98113 0.0
C703 C 0.1683 0.80624 0.99457 0.0
H704 H 0.10929 0.78082 0.2569 0.0
H705 H 0.16462 0.72106 0.26939 0.0
H706 H 0.10967 0.80117 1.03194 0.0
H707 H 0.09299 0.76664 0.09015 0.0
H708 H 0.10135 0.81994 0.12889 0.0
H709 H 0.1746 0.6824 0.14614 0.0
H710 H 0.16735 0.70024 0.0455 0.0
H711 H 0.1831 0.73567 0.11065 0.0
H712 H 0.11454 0.7066 0.82079 0.0
H713 H 0.16543 0.79397 0.83212 0.0
H714 H 0.09556 0.7123 0.9799 0.0
H715 H 0.11326 0.68593 0.04495 0.0
H716 H 0.10711 0.66409 0.94455 0.0
H717 H 0.16389 0.81527 0.05683 0.0
H718 H 0.17097 0.83734 0.95956 0.0
H719 H 0.18237 0.78941 0.99895 0.0
C720 C 0.8641 0.83359 0.85054 0.0
C721 C 0.87081 0.84113 0.77211 0.0
C722 C 0.87537 0.8486 0.91832 0.0
C723 C 0.89392 0.87038 0.90582 0.0
C724 C 0.8981 0.8875 0.82815 0.0
C725 C 0.88644 0.87234 0.76127 0.0
C726 C 0.8689 0.83372 1.00152 0.0
C727 C 0.91615 0.91685 0.81471 0.0
C728 C 0.91427 0.84842 0.10611 0.0
C729 C 0.91567 0.80238 0.09286 0.0
C730 C 0.9118 0.87688 0.03968 0.0
C731 C 0.91028 0.85803 0.9609 0.0
C732 C 0.91766 0.8153 0.94795 0.0
C733 C 0.92012 0.7875 1.0151 0.0
C734 C 0.90713 0.92458 0.05485 0.0
C735 C 0.91885 0.79532 0.86371 0.0
H736 H 0.85143 0.81147 0.85949 0.0
H737 H 0.89077 0.88132 0.70039 0.0
H738 H 0.87646 0.80327 1.01915 0.0
H739 H 0.8724 0.85979 0.04817 0.0
H740 H 0.8529 0.82566 1.00179 0.0
H741 H 0.91678 0.92907 0.75096 0.0
H742 H 0.91635 0.94587 0.85672 0.0
H743 H 0.92951 0.8985 0.82881 0.0
H744 H 0.91218 0.8614 0.16672 0.0
H745 H 0.92268 0.75261 1.00553 0.0
H746 H 0.89156 0.92639 0.07106 0.0
H747 H 0.90969 0.9453 1.00009 0.0
H748 H 0.91618 0.93856 0.10696 0.0
H749 H 0.90398 0.78407 0.84129 0.0
H750 H 0.92819 0.76608 0.86399 0.0
H751 H 0.92487 0.82008 0.82024 0.0
C752 C 0.68827 0.82681 0.48287 0.0
C753 C 0.66856 0.81751 0.50037 0.0
C754 C 0.70236 0.83196 0.54602 0.0
C755 C 0.69642 0.82591 0.62708 0.0
C756 C 0.67609 0.82613 0.64417 0.0
C757 C 0.66236 0.82165 0.57972 0.0
C758 C 0.72358 0.83847 0.52469 0.0
C759 C 0.66846 0.82382 0.72963 0.0
C760 C 0.70561 0.73141 0.75126 0.0
C761 C 0.70329 0.75376 0.82509 0.0
C762 C 0.70867 0.75577 0.68015 0.0
C763 C 0.70933 0.80285 0.6855 0.0
C764 C 0.71397 0.82315 0.76149 0.0
C765 C 0.71048 0.79831 0.83209 0.0
C766 C 0.70715 0.73154 0.59928 0.0
C767 C 0.71893 0.8723 0.7684 0.0
H768 H 0.69283 0.82627 0.42012 0.0
H769 H 0.64696 0.81614 0.59191 0.0
H770 H 0.72552 0.86938 0.48854 0.0
H771 H 0.73352 0.84104 0.57934 0.0
H772 H 0.72788 0.81071 0.48515 0.0
H773 H 0.65276 0.83158 0.73114 0.0
H774 H 0.66983 0.78971 0.75364 0.0
H775 H 0.67669 0.84762 0.77081 0.0
H776 H 0.70229 0.69594 0.74686 0.0
H777 H 0.71086 0.81558 0.8901 0.0
H778 H 0.71836 0.7452 0.55768 0.0
H779 H 0.6925 0.73577 0.57036 0.0
H780 H 0.70922 0.69534 0.60642 0.0
H781 H 0.73098 0.87845 0.81443 0.0
H782 H 0.70611 0.88983 0.78988 0.0
H783 H 0.72338 0.88656 0.70903 0.0
C784 C 0.38134 0.78456 0.71162 0.0
C785 C 0.39561 0.7645 0.76241 0.0
C786 C 0.38204 0.78597 0.623 0.0
C787 C 0.39686 0.76472 0.57779 0.0
C788 C 0.41097 0.74326 0.62931 0.0
C789 C 0.41047 0.74455 0.7178 0.0
C790 C 0.3666 0.81157 0.57895 0.0
C791 C 0.42695 0.71768 0.59225 0.0
C792 C 0.38349 0.74355 0.33891 0.0
C793 C 0.39902 0.76417 0.29483 0.0
C794 C 0.38283 0.7425 0.42736 0.0
C795 C 0.39759 0.76472 0.47943 0.0
C796 C 0.4131 0.7867 0.43477 0.0
C797 C 0.41383 0.78519 0.34616 0.0
C798 C 0.36593 0.71644 0.4637 0.0
C799 C 0.42928 0.81326 0.47942 0.0
H800 H 0.36965 0.80078 0.74141 0.0
H801 H 0.42182 0.72846 0.75254 0.0
H802 H 0.37086 0.82162 0.51672 0.0
H803 H 0.35283 0.79067 0.57451 0.0
H804 H 0.36344 0.84196 0.61402 0.0
H805 H 0.42979 0.6875 0.62869 0.0
H806 H 0.42342 0.70727 0.52835 0.0
H807 H 0.44067 0.73876 0.59374 0.0
H808 H 0.37165 0.72686 0.30377 0.0
H809 H 0.42604 0.80203 0.31684 0.0
H810 H 0.35287 0.73695 0.46164 0.0
H811 H 0.36898 0.70653 0.52769 0.0
H812 H 0.36219 0.68593 0.42705 0.0
H813 H 0.42528 0.82309 0.54182 0.0
H814 H 0.43332 0.84386 0.44496 0.0
H815 H 0.44245 0.79318 0.4835 0.0
C816 C 0.62518 0.21969 0.36059 0.0
C817 C 0.63959 0.24399 0.3159 0.0
C818 C 0.62468 0.21887 0.44911 0.0
C819 C 0.63825 0.24512 0.50051 0.0
C820 C 0.65258 0.27071 0.45516 0.0
C821 C 0.65334 0.26891 0.36658 0.0
C822 C 0.60928 0.18858 0.48634 0.0
C823 C 0.6674 0.30147 0.49903 0.0
C824 C 0.62087 0.26166 0.73205 0.0
C825 C 0.6361 0.24587 0.78351 0.0
C826 C 0.62157 0.26279 0.64341 0.0
C827 C 0.63751 0.24557 0.59888 0.0
C828 C 0.6527 0.22856 0.65111 0.0
C829 C 0.65203 0.23001 0.73955 0.0
C830 C 0.60486 0.28373 0.59856 0.0
C831 C 0.67012 0.20772 0.61501 0.0
H832 H 0.61422 0.19984 0.32593 0.0
H833 H 0.66464 0.28864 0.3367 0.0
H834 H 0.61299 0.17977 0.55034 0.0
H835 H 0.59515 0.20523 0.48461 0.0
H836 H 0.60709 0.15735 0.45016 0.0
H837 H 0.66992 0.33249 0.46363 0.0
H838 H 0.66288 0.31061 0.56109 0.0
H839 H 0.68156 0.28505 0.50385 0.0
H840 H 0.60831 0.27465 0.76125 0.0
H841 H 0.66418 0.21737 0.77479 0.0
H842 H 0.59217 0.25946 0.59474 0.0
H843 H 0.60862 0.29435 0.53604 0.0
H844 H 0.60015 0.31316 0.63273 0.0
H845 H 0.66734 0.19659 0.55099 0.0
H846 H 0.67444 0.17865 0.65174 0.0
H847 H 0.68272 0.23227 0.61724 0.0
C848 C 0.34294 0.21299 0.33797 0.0
C849 C 0.34792 0.19889 0.26044 0.0
C850 C 0.34813 0.18812 0.40629 0.0
C851 C 0.35897 0.14954 0.39496 0.0
C852 C 0.35897 0.1296 0.31721 0.0
C853 C 0.35374 0.15511 0.24953 0.0
C854 C 0.34537 0.20781 0.48976 0.0
C855 C 0.36741 0.08484 0.30493 0.0
C856 C 0.40208 0.19433 0.50562 0.0
C857 C 0.39564 0.18479 0.58377 0.0
C858 C 0.39263 0.17367 0.43799 0.0
C859 C 0.37607 0.14447 0.45069 0.0
C860 C 0.37318 0.12656 0.52888 0.0
C861 C 0.38322 0.147 0.59545 0.0
C862 C 0.39798 0.19012 0.35431 0.0
C863 C 0.35747 0.09121 0.54457 0.0
H864 H 0.33745 0.24586 0.34621 0.0
H865 H 0.35617 0.14269 0.18869 0.0
H866 H 0.34136 0.18142 0.53394 0.0
H867 H 0.35921 0.22507 0.51176 0.0
H868 H 0.33375 0.23243 0.48856 0.0
H869 H 0.36136 0.06874 0.24802 0.0
H870 H 0.38352 0.08884 0.30047 0.0
H871 H 0.36428 0.0627 0.3573 0.0
H872 H 0.41251 0.22187 0.4965 0.0
H873 H 0.37949 0.13691 0.65661 0.0
H874 H 0.38778 0.21578 0.3343 0.0
H875 H 0.39704 0.1626 0.30908 0.0
H876 H 0.41306 0.20543 0.35443 0.0
H877 H 0.35101 0.07626 0.48745 0.0
H878 H 0.34569 0.10566 0.57992 0.0
H879 H 0.36367 0.06455 0.58259 0.0
C880 C 0.08689 0.24805 0.65787 0.0
C881 C 0.09937 0.2485 0.59094 0.0
C882 C 0.0664 0.24885 0.64777 0.0
C883 C 0.0577 0.25009 0.56847 0.0
C884 C 0.0701 0.24933 0.50025 0.0
C885 C 0.09072 0.24856 0.51218 0.0
C886 C 0.05409 0.24982 0.72267 0.0
C887 C 0.0616 0.25043 0.4145 0.0
C888 C 1.00176 0.22629 0.54799 0.0
C889 C 0.99474 0.26942 0.54465 0.0
C890 C 0.02213 0.21929 0.55431 0.0
C891 C 0.03591 0.25619 0.5581 0.0
C892 C 0.02877 0.29965 0.55648 0.0
C893 C 1.0085 0.30561 0.54981 0.0
C894 C 0.02894 0.17236 0.55593 0.0
C895 C 0.0426 0.3402 0.56185 0.0
H896 H 0.09316 0.24768 0.71928 0.0
H897 H 0.10004 0.24869 0.45988 0.0
H898 H 0.04683 0.28196 0.72589 0.0
H899 H 0.0424 0.22306 0.7191 0.0
H900 H 0.06288 0.24571 0.77992 0.0
H901 H 0.07283 0.24585 0.36799 0.0
H902 H 0.04985 0.22404 0.40608 0.0
H903 H 0.05487 0.28282 0.40371 0.0
H904 H 0.99137 0.19809 0.5432 0.0
H905 H 1.00333 0.33909 0.54842 0.0
H906 H 0.03755 0.1668 0.61303 0.0
H907 H 0.03874 0.1671 0.50439 0.0
H908 H 1.01656 0.1472 0.55178 0.0
H909 H 0.05124 0.33997 0.62013 0.0
H910 H 0.03482 0.37174 0.55832 0.0
H911 H 0.05311 0.3396 0.51165 0.0
C912 C 0.94462 0.76157 0.56515 0.0
C913 C 0.93605 0.76218 0.48628 0.0
C914 C 0.96523 0.76084 0.57736 0.0
C915 C 0.97769 0.76062 0.5093 0.0
C916 C 0.96907 0.76236 0.42992 0.0
C917 C 0.9486 0.76318 0.41956 0.0
C918 C 0.97365 0.75922 0.66318 0.0
C919 C 0.98146 0.76193 0.35519 0.0
C920 C 0.03357 0.78462 0.5305 0.0
C921 C 0.04062 0.74152 0.533 0.0
C922 C 1.0132 0.79154 0.52433 0.0
C923 C 0.99946 0.75457 0.51979 0.0
C924 C 1.00663 0.71114 0.52055 0.0
C925 C 0.02691 0.70527 0.52715 0.0
C926 C 1.00634 0.83844 0.5237 0.0
C927 C 0.99284 0.67056 0.51427 0.0
H928 H 0.93524 0.76104 0.61729 0.0
H929 H 0.94239 0.76395 0.35806 0.0
H930 H 0.98037 0.72678 0.67339 0.0
H931 H 0.98539 0.78558 0.67231 0.0
H932 H 0.96237 0.76349 0.70961 0.0
H933 H 0.97272 0.76632 0.29791 0.0
H934 H 0.99311 0.78875 0.35944 0.0
H935 H 0.98877 0.72986 0.35144 0.0
H936 H 0.04394 0.81284 0.53588 0.0
H937 H 0.03212 0.67182 0.52798 0.0
H938 H 0.99648 0.84328 0.57523 0.0
H939 H 0.99777 0.84433 0.46663 0.0
H940 H 1.01869 0.86364 0.52857 0.0
H941 H 0.98231 0.67078 0.56442 0.0
H942 H 1.00066 0.63904 0.51718 0.0
H943 H 0.98423 0.67111 0.45596 0.0
C944 C 0.58661 0.74373 0.1638 0.0
C945 C 0.59916 0.74256 0.09724 0.0
C946 C 0.56616 0.74547 0.15303 0.0
C947 C 0.5576 0.74593 0.07343 0.0
C948 C 0.57006 0.74353 1.00566 0.0
C949 C 0.59062 0.74192 1.01826 0.0
C950 C 0.55376 0.74828 0.22742 0.0
C951 C 0.56168 0.74377 0.91964 0.0
C952 C 0.50161 0.7243 0.05122 0.0
C953 C 0.495 0.76767 0.04458 0.0
C954 C 0.52187 0.7165 0.05944 0.0
C955 C 0.53593 0.75287 0.06195 0.0
C956 C 0.52918 0.79663 0.05727 0.0
C957 C 0.509 0.80337 0.04856 0.0
C958 C 0.52827 0.66929 0.06415 0.0
C959 C 0.54333 0.83665 0.06125 0.0
H960 H 0.59278 0.74396 0.22538 0.0
H961 H 0.6 0.74089 0.96624 0.0
H962 H 0.54675 0.78079 0.22851 0.0
H963 H 0.54188 0.72196 0.22503 0.0
H964 H 0.56243 0.74481 0.28517 0.0
H965 H 0.57293 0.73815 0.87369 0.0
H966 H 0.54978 0.71767 0.91211 0.0
H967 H 0.55519 0.77624 0.90717 0.0
H968 H 0.491 0.69649 0.04726 0.0
H969 H 0.5041 0.83702 0.0444 0.0
H970 H 0.53676 0.66438 0.12178 0.0
H971 H 0.53807 0.66264 1.01321 0.0
H972 H 0.51569 0.64462 0.06118 0.0
H973 H 0.55189 0.83682 0.11974 0.0
H974 H 0.53581 0.8685 0.05612 0.0
H975 H 0.55388 0.83492 1.01137 0.0
C976 C 0.44386 0.2611 0.06834 0.0
C977 C 0.43557 0.26388 0.98922 0.0
C978 C 0.46443 0.25931 0.08151 0.0
C979 C 0.47714 0.26015 1.01421 0.0
C980 C 0.46881 0.2639 0.93467 0.0
C981 C 0.44839 0.26578 0.92337 0.0
C982 C 0.47255 0.25554 0.16749 0.0
C983 C 0.48144 0.26451 0.86061 0.0
C984 C 0.53311 0.28238 1.03849 0.0
C985 C 0.53996 0.23908 1.03835 0.0
C986 C 0.51278 0.28989 1.0325 0.0
C987 C 0.49886 0.25334 1.02526 0.0
C988 C 0.50583 0.20973 1.02342 0.0
C989 C 0.52608 0.20325 1.03013 0.0
C990 C 0.50616 0.33696 1.03487 0.0
C991 C 0.49187 0.1696 1.01404 0.0
H992 H 0.43429 0.25969 0.11986 0.0
H993 H 0.44245 0.26807 0.86167 0.0
H994 H 0.47918 0.22284 0.17545 0.0
H995 H 0.4843 0.28159 0.17928 0.0
H996 H 0.46111 0.25877 0.2136 0.0
H997 H 0.47291 0.27007 0.80319 0.0
H998 H 0.49318 0.29103 0.86699 0.0
H999 H 0.48863 0.23236 0.85537 0.0
H1000 H 0.54361 0.31026 0.04582 0.0
H1001 H 0.53113 0.16967 1.02908 0.0
H1002 H 0.49613 0.34092 0.08609 0.0
H1003 H 0.49785 0.3443 0.97782 0.0
H1004 H 0.51862 0.36175 0.04228 0.0
H1005 H 0.48121 0.16908 0.06377 0.0
H1006 H 0.49952 0.13784 1.01515 0.0
H1007 H 0.4834 0.17148 0.95554 0.0
loop_
_geom_bond_atom_site_label_1
_geom_bond_atom_site_label_2
_geom_bond_distance
_geom_bond_site_symmetry_2
_ccdc_geom_bond_type
Co0 N5 2.057 . S
Co0 O17 2.021 . S
Co0 O20 2.062 . S
Co0 O24 2.117 . S
Co0 O25 2.020 . S
C1 O21 1.259 . S
C1 O24 1.258 . S
Co2 N11 2.057 . S
Co2 O18 2.117 . S
Co2 O19 2.020 . S
Co2 O21 2.021 . S
Co2 O26 2.062 . S
C3 N5 1.316 . S
C3 N6 1.347 . S
C3 H8 0.931 . S
C4 N5 1.375 . S
C4 C7 1.350 . S
C4 H9 0.930 . S
N5 Co0 2.057 . S
N5 C3 1.316 . S
N5 C4 1.375 . S
N6 C3 1.347 . S
N6 C7 1.373 . S
C7 C4 1.350 . S
C7 N6 1.373 . S
C7 H28 0.931 . S
H8 C3 0.931 . S
H9 C4 0.930 . S
C10 O17 1.259 . S
C10 O18 1.258 . S
N11 Co2 2.057 . S
N11 C12 1.316 . S
N11 C13 1.375 . S
C12 N11 1.316 . S
C12 N14 1.347 . S
C12 H23 0.931 . S
C13 N11 1.375 . S
C13 C15 1.350 . S
C13 H22 0.930 . S
N14 C12 1.347 . S
N14 C15 1.373 . S
C15 C13 1.350 . S
C15 N14 1.373 . S
C15 H29 0.931 . S
C16 O19 1.256 . S
C16 O20 1.255 . S
O17 Co0 2.021 . S
O17 C10 1.259 . S
O18 Co2 2.117 . S
O18 C10 1.258 . S
O19 Co2 2.020 . S
O19 C16 1.256 . S
O20 Co0 2.062 . S
O20 C16 1.255 . S
O21 C1 1.259 . S
O21 Co2 2.021 . S
H22 C13 0.930 . S
H23 C12 0.931 . S
O24 Co0 2.117 . S
O24 C1 1.258 . S
O25 Co0 2.020 . S
O25 C27 1.256 . S
O26 Co2 2.062 . S
O26 C27 1.255 . S
C27 O25 1.256 . S
C27 O26 1.255 . S
H28 C7 0.931 . S
H29 C15 0.931 . S
Co30 N35 2.057 . S
Co30 O47 2.021 . S
Co30 O50 2.062 . S
Co30 O54 2.117 . S
Co30 O55 2.020 . S
C31 O51 1.259 . S
C31 O54 1.258 . S
Co32 N41 2.057 . S
Co32 O48 2.117 . S
Co32 O49 2.020 . S
Co32 O51 2.021 . S
Co32 O56 2.062 . S
C33 N35 1.316 . S
C33 N36 1.347 . S
C33 H38 0.931 . S
C34 N35 1.375 . S
C34 C37 1.350 . S
C34 H39 0.930 . S
N35 Co30 2.057 . S
N35 C33 1.316 . S
N35 C34 1.375 . S
N36 C33 1.347 . S
N36 C37 1.373 . S
C37 C34 1.350 . S
C37 N36 1.373 . S
C37 H58 0.931 . S
H38 C33 0.931 . S
H39 C34 0.930 . S
C40 O47 1.259 . S
C40 O48 1.258 . S
N41 Co32 2.057 . S
N41 C42 1.316 . S
N41 C43 1.375 . S
C42 N41 1.316 . S
C42 N44 1.347 . S
C42 H53 0.931 . S
C43 N41 1.375 . S
C43 C45 1.350 . S
C43 H52 0.930 . S
N44 C42 1.347 . S
N44 C45 1.373 . S
C45 C43 1.350 . S
C45 N44 1.373 . S
C45 H59 0.931 . S
C46 O49 1.256 . S
C46 O50 1.255 . S
O47 Co30 2.021 . S
O47 C40 1.259 . S
O48 Co32 2.117 . S
O48 C40 1.258 . S
O49 Co32 2.020 . S
O49 C46 1.256 . S
O50 Co30 2.062 . S
O50 C46 1.255 . S
O51 C31 1.259 . S
O51 Co32 2.021 . S
H52 C43 0.930 . S
H53 C42 0.931 . S
O54 Co30 2.117 . S
O54 C31 1.258 . S
O55 Co30 2.020 . S
O55 C57 1.256 . S
O56 Co32 2.062 . S
O56 C57 1.255 . S
C57 O55 1.256 . S
C57 O56 1.255 . S
H58 C37 0.931 . S
H59 C45 0.931 . S
Co60 N65 2.057 . S
Co60 O77 2.021 . S
Co60 O80 2.062 . S
Co60 O84 2.117 . S
Co60 O85 2.020 . S
C61 O81 1.259 . S
C61 O84 1.258 . S
Co62 N71 2.057 . S
Co62 O78 2.117 . S
Co62 O79 2.020 . S
Co62 O81 2.021 . S
Co62 O86 2.062 . S
C63 N65 1.316 . S
C63 N66 1.347 . S
C63 H68 0.931 . S
C64 N65 1.375 . S
C64 C67 1.350 . S
C64 H69 0.930 . S
N65 Co60 2.057 . S
N65 C63 1.316 . S
N65 C64 1.375 . S
N66 C63 1.347 . S
N66 C67 1.373 . S
C67 C64 1.350 . S
C67 N66 1.373 . S
C67 H88 0.931 . S
H68 C63 0.931 . S
H69 C64 0.930 . S
C70 O77 1.259 . S
C70 O78 1.258 . S
N71 Co62 2.057 . S
N71 C72 1.316 . S
N71 C73 1.375 . S
C72 N71 1.316 . S
C72 N74 1.347 . S
C72 H83 0.931 . S
C73 N71 1.375 . S
C73 C75 1.350 . S
C73 H82 0.930 . S
N74 C72 1.347 . S
N74 C75 1.373 . S
C75 C73 1.350 . S
C75 N74 1.373 . S
C75 H89 0.931 . S
C76 O79 1.256 . S
C76 O80 1.255 . S
O77 Co60 2.021 . S
O77 C70 1.259 . S
O78 Co62 2.117 . S
O78 C70 1.258 . S
O79 Co62 2.020 . S
O79 C76 1.256 . S
O80 Co60 2.062 . S
O80 C76 1.255 . S
O81 C61 1.259 . S
O81 Co62 2.021 . S
H82 C73 0.930 . S
H83 C72 0.931 . S
O84 Co60 2.117 . S
O84 C61 1.258 . S
O85 Co60 2.020 . S
O85 C87 1.256 . S
O86 Co62 2.062 . S
O86 C87 1.255 . S
C87 O85 1.256 . S
C87 O86 1.255 . S
H88 C67 0.931 . S
H89 C75 0.931 . S
Co90 N95 2.057 . S
Co90 O107 2.021 . S
Co90 O110 2.062 . S
Co90 O114 2.117 . S
Co90 O115 2.020 . S
C91 O111 1.259 . S
C91 O114 1.258 . S
Co92 N101 2.057 . S
Co92 O108 2.117 . S
Co92 O109 2.020 . S
Co92 O111 2.021 . S
Co92 O116 2.062 . S
C93 N95 1.316 . S
C93 N96 1.347 . S
C93 H98 0.931 . S
C94 N95 1.375 . S
C94 C97 1.350 . S
C94 H99 0.930 . S
N95 Co90 2.057 . S
N95 C93 1.316 . S
N95 C94 1.375 . S
N96 C93 1.347 . S
N96 C97 1.373 . S
C97 C94 1.350 . S
C97 N96 1.373 . S
C97 H118 0.931 . S
H98 C93 0.931 . S
H99 C94 0.930 . S
C100 O107 1.259 . S
C100 O108 1.258 . S
N101 Co92 2.057 . S
N101 C102 1.316 . S
N101 C103 1.375 . S
C102 N101 1.316 . S
C102 N104 1.347 . S
C102 H113 0.931 . S
C103 N101 1.375 . S
C103 C105 1.350 . S
C103 H112 0.930 . S
N104 C102 1.347 . S
N104 C105 1.373 . S
C105 C103 1.350 . S
C105 N104 1.373 . S
C105 H119 0.931 . S
C106 O109 1.256 . S
C106 O110 1.255 . S
O107 Co90 2.021 . S
O107 C100 1.259 . S
O108 Co92 2.117 . S
O108 C100 1.258 . S
O109 Co92 2.020 . S
O109 C106 1.256 . S
O110 Co90 2.062 . S
O110 C106 1.255 . S
O111 C91 1.259 . S
O111 Co92 2.021 . S
H112 C103 0.930 . S
H113 C102 0.931 . S
O114 Co90 2.117 . S
O114 C91 1.258 . S
O115 Co90 2.020 . S
O115 C117 1.256 . S
O116 Co92 2.062 . S
O116 C117 1.255 . S
C117 O115 1.256 . S
C117 O116 1.255 . S
H118 C97 0.931 . S
H119 C105 0.931 . S
Co120 N125 2.057 . S
Co120 O137 2.021 . S
Co120 O140 2.062 . S
Co120 O144 2.117 . S
Co120 O145 2.020 . S
C121 O141 1.259 1_554 S
C121 O144 1.258 . S
Co122 N131 2.057 . S
Co122 O138 2.117 1_556 S
Co122 O139 2.020 1_556 S
Co122 O141 2.021 . S
Co122 O146 2.062 . S
C123 N125 1.316 . S
C123 N126 1.347 . S
C123 H128 0.931 . S
C124 N125 1.375 . S
C124 C127 1.350 . S
C124 H129 0.930 . S
N125 Co120 2.057 . S
N125 C123 1.316 . S
N125 C124 1.375 . S
N126 C123 1.347 . S
N126 C127 1.373 . S
C127 C124 1.350 . S
C127 N126 1.373 . S
C127 H148 0.931 . S
H128 C123 0.931 . S
H129 C124 0.930 . S
C130 O137 1.259 . S
C130 O138 1.258 . S
N131 Co122 2.057 . S
N131 C132 1.316 . S
N131 C133 1.375 . S
C132 N131 1.316 . S
C132 N134 1.347 . S
C132 H143 0.931 . S
C133 N131 1.375 . S
C133 C135 1.350 . S
C133 H142 0.930 . S
N134 C132 1.347 . S
N134 C135 1.373 . S
C135 C133 1.350 . S
C135 N134 1.373 . S
C135 H149 0.931 . S
C136 O139 1.256 . S
C136 O140 1.255 . S
O137 Co120 2.021 . S
O137 C130 1.259 . S
O138 Co122 2.117 1_554 S
O138 C130 1.258 . S
O139 Co122 2.020 1_554 S
O139 C136 1.256 . S
O140 Co120 2.062 . S
O140 C136 1.255 . S
O141 C121 1.259 1_556 S
O141 Co122 2.021 . S
H142 C133 0.930 . S
H143 C132 0.931 . S
O144 Co120 2.117 . S
O144 C121 1.258 . S
O145 Co120 2.020 . S
O145 C147 1.256 . S
O146 Co122 2.062 . S
O146 C147 1.255 1_556 S
C147 O145 1.256 . S
C147 O146 1.255 1_554 S
H148 C127 0.931 . S
H149 C135 0.931 . S
Co150 N155 2.057 . S
Co150 O167 2.021 . S
Co150 O170 2.062 1_554 S
Co150 O174 2.117 . S
Co150 O175 2.020 . S
C151 O171 1.259 . S
C151 O174 1.258 . S
Co152 N161 2.057 . S
Co152 O168 2.117 . S
Co152 O169 2.020 1_554 S
Co152 O171 2.021 . S
Co152 O176 2.062 . S
C153 N155 1.316 . S
C153 N156 1.347 . S
C153 H158 0.931 . S
C154 N155 1.375 . S
C154 C157 1.350 . S
C154 H159 0.930 . S
N155 Co150 2.057 . S
N155 C153 1.316 . S
N155 C154 1.375 . S
N156 C153 1.347 . S
N156 C157 1.373 . S
C157 C154 1.350 . S
C157 N156 1.373 . S
C157 H178 0.931 . S
H158 C153 0.931 . S
H159 C154 0.930 . S
C160 O167 1.259 . S
C160 O168 1.258 . S
N161 Co152 2.057 . S
N161 C162 1.316 . S
N161 C163 1.375 . S
C162 N161 1.316 . S
C162 N164 1.347 . S
C162 H173 0.931 . S
C163 N161 1.375 . S
C163 C165 1.350 . S
C163 H172 0.930 . S
N164 C162 1.347 . S
N164 C165 1.373 . S
C165 C163 1.350 . S
C165 N164 1.373 . S
C165 H179 0.931 . S
C166 O169 1.256 . S
C166 O170 1.255 . S
O167 Co150 2.021 . S
O167 C160 1.259 . S
O168 Co152 2.117 . S
O168 C160 1.258 . S
O169 Co152 2.020 1_556 S
O169 C166 1.256 . S
O170 Co150 2.062 1_556 S
O170 C166 1.255 . S
O171 C151 1.259 . S
O171 Co152 2.021 . S
H172 C163 0.930 . S
H173 C162 0.931 . S
O174 Co150 2.117 . S
O174 C151 1.258 . S
O175 Co150 2.020 . S
O175 C177 1.256 . S
O176 Co152 2.062 . S
O176 C177 1.255 . S
C177 O175 1.256 . S
C177 O176 1.255 . S
H178 C157 0.931 . S
H179 C165 0.931 . S
Co180 N185 2.057 . S
Co180 O197 2.021 . S
Co180 O200 2.062 . S
Co180 O204 2.117 . S
Co180 O205 2.020 1_556 S
C181 O201 1.259 . S
C181 O204 1.258 . S
Co182 N191 2.057 . S
Co182 O198 2.117 . S
Co182 O199 2.020 . S
Co182 O201 2.021 . S
Co182 O206 2.062 1_556 S
C183 N185 1.316 . S
C183 N186 1.347 . S
C183 H188 0.931 . S
C184 N185 1.375 . S
C184 C187 1.350 . S
C184 H189 0.930 . S
N185 Co180 2.057 . S
N185 C183 1.316 . S
N185 C184 1.375 . S
N186 C183 1.347 . S
N186 C187 1.373 . S
C187 C184 1.350 . S
C187 N186 1.373 . S
C187 H208 0.931 . S
H188 C183 0.931 . S
H189 C184 0.930 . S
C190 O197 1.259 . S
C190 O198 1.258 . S
N191 Co182 2.057 . S
N191 C192 1.316 . S
N191 C193 1.375 . S
C192 N191 1.316 . S
C192 N194 1.347 . S
C192 H203 0.931 . S
C193 N191 1.375 . S
C193 C195 1.350 . S
C193 H202 0.930 . S
N194 C192 1.347 . S
N194 C195 1.373 . S
C195 C193 1.350 . S
C195 N194 1.373 . S
C195 H209 0.931 . S
C196 O199 1.256 . S
C196 O200 1.255 . S
O197 Co180 2.021 . S
O197 C190 1.259 . S
O198 Co182 2.117 . S
O198 C190 1.258 . S
O199 Co182 2.020 . S
O199 C196 1.256 . S
O200 Co180 2.062 . S
O200 C196 1.255 . S
O201 C181 1.259 . S
O201 Co182 2.021 . S
H202 C193 0.930 . S
H203 C192 0.931 . S
O204 Co180 2.117 . S
O204 C181 1.258 . S
O205 Co180 2.020 1_554 S
O205 C207 1.256 . S
O206 Co182 2.062 1_554 S
O206 C207 1.255 . S
C207 O205 1.256 . S
C207 O206 1.255 . S
H208 C187 0.931 . S
H209 C195 0.931 . S
Co210 N215 2.057 . S
Co210 O227 2.021 . S
Co210 O230 2.062 . S
Co210 O234 2.117 1_554 S
Co210 O235 2.020 1_554 S
C211 O231 1.259 . S
C211 O234 1.258 . S
Co212 N221 2.057 . S
Co212 O228 2.117 . S
Co212 O229 2.020 . S
Co212 O231 2.021 . S
Co212 O236 2.062 . S
C213 N215 1.316 . S
C213 N216 1.347 . S
C213 H218 0.931 . S
C214 N215 1.375 . S
C214 C217 1.350 . S
C214 H219 0.930 . S
N215 Co210 2.057 . S
N215 C213 1.316 . S
N215 C214 1.375 . S
N216 C213 1.347 . S
N216 C217 1.373 . S
C217 C214 1.350 . S
C217 N216 1.373 . S
C217 H238 0.931 . S
H218 C213 0.931 . S
H219 C214 0.930 . S
C220 O227 1.259 1_556 S
C220 O228 1.258 . S
N221 Co212 2.057 . S
N221 C222 1.316 . S
N221 C223 1.375 . S
C222 N221 1.316 . S
C222 N224 1.347 . S
C222 H233 0.931 . S
C223 N221 1.375 . S
C223 C225 1.350 . S
C223 H232 0.930 . S
N224 C222 1.347 . S
N224 C225 1.373 . S
C225 C223 1.350 . S
C225 N224 1.373 . S
C225 H239 0.931 . S
C226 O229 1.256 . S
C226 O230 1.255 1_556 S
O227 Co210 2.021 . S
O227 C220 1.259 1_554 S
O228 Co212 2.117 . S
O228 C220 1.258 . S
O229 Co212 2.020 . S
O229 C226 1.256 . S
O230 Co210 2.062 . S
O230 C226 1.255 1_554 S
O231 C211 1.259 . S
O231 Co212 2.021 . S
H232 C223 0.930 . S
H233 C222 0.931 . S
O234 Co210 2.117 1_556 S
O234 C211 1.258 . S
O235 Co210 2.020 1_556 S
O235 C237 1.256 . S
O236 Co212 2.062 . S
O236 C237 1.255 . S
C237 O235 1.256 . S
C237 O236 1.255 . S
H238 C217 0.931 . S
H239 C225 0.931 . S
C240 C241 1.391 . S
C240 C242 1.394 . S
C240 H256 0.931 . S
C241 C240 1.391 . S
C241 C245 1.376 . S
C242 C240 1.394 . S
C242 C243 1.369 . S
C242 C246 1.531 . S
C243 C242 1.369 . S
C243 C244 1.410 . S
C243 C251 1.503 . S
C244 C243 1.410 . S
C244 C245 1.392 . S
C244 C247 1.511 . S
C245 C241 1.376 . S
C245 C244 1.392 . S
C245 H257 0.929 . S
C246 C242 1.531 . S
C246 H258 0.960 . S
C246 H259 0.962 . S
C246 H260 0.960 . S
C247 C244 1.511 . S
C247 H261 0.961 . S
C247 H262 0.961 . S
C247 H263 0.961 . S
C248 C249 1.370 . S
C248 C250 1.363 . S
C248 H264 0.931 . S
C249 C248 1.370 . S
C249 C253 1.408 . S
C250 C248 1.363 . S
C250 C251 1.370 . S
C250 C254 1.524 . S
C251 C243 1.503 . S
C251 C250 1.370 . S
C251 C252 1.403 . S
C252 C251 1.403 . S
C252 C253 1.404 . S
C252 C255 1.539 . S
C253 C249 1.408 . S
C253 C252 1.404 . S
C253 H265 0.930 . S
C254 C250 1.524 . S
C254 H266 0.956 . S
C254 H267 0.961 . S
C254 H268 0.961 . S
C255 C252 1.539 . S
C255 H269 0.958 . S
C255 H270 0.961 . S
C255 H271 0.960 . S
H256 C240 0.931 . S
H257 C245 0.929 . S
H258 C246 0.960 . S
H259 C246 0.962 . S
H260 C246 0.960 . S
H261 C247 0.961 . S
H262 C247 0.961 . S
H263 C247 0.961 . S
H264 C248 0.931 . S
H265 C253 0.930 . S
H266 C254 0.956 . S
H267 C254 0.961 . S
H268 C254 0.961 . S
H269 C255 0.958 . S
H270 C255 0.961 . S
H271 C255 0.960 . S
C272 C273 1.391 . S
C272 C274 1.394 . S
C272 H288 0.931 . S
C273 C272 1.391 . S
C273 C277 1.376 . S
C274 C272 1.394 . S
C274 C275 1.369 . S
C274 C278 1.531 . S
C275 C274 1.369 . S
C275 C276 1.410 . S
C275 C283 1.503 . S
C276 C275 1.410 . S
C276 C277 1.392 . S
C276 C279 1.511 . S
C277 C273 1.376 . S
C277 C276 1.392 . S
C277 H289 0.929 . S
C278 C274 1.531 . S
C278 H290 0.960 . S
C278 H291 0.962 . S
C278 H292 0.960 . S
C279 C276 1.511 . S
C279 H293 0.961 . S
C279 H294 0.961 . S
C279 H295 0.961 . S
C280 C281 1.370 . S
C280 C282 1.363 . S
C280 H296 0.931 . S
C281 C280 1.370 . S
C281 C285 1.408 . S
C282 C280 1.363 . S
C282 C283 1.370 . S
C282 C286 1.524 . S
C283 C275 1.503 . S
C283 C282 1.370 . S
C283 C284 1.403 . S
C284 C283 1.403 . S
C284 C285 1.404 . S
C284 C287 1.539 . S
C285 C281 1.408 . S
C285 C284 1.404 . S
C285 H297 0.930 . S
C286 C282 1.524 . S
C286 H298 0.956 . S
C286 H299 0.961 . S
C286 H300 0.961 . S
C287 C284 1.539 . S
C287 H301 0.958 . S
C287 H302 0.961 . S
C287 H303 0.960 . S
H288 C272 0.931 . S
H289 C277 0.929 . S
H290 C278 0.960 . S
H291 C278 0.962 . S
H292 C278 0.960 . S
H293 C279 0.961 . S
H294 C279 0.961 . S
H295 C279 0.961 . S
H296 C280 0.931 . S
H297 C285 0.930 . S
H298 C286 0.956 . S
H299 C286 0.961 . S
H300 C286 0.961 . S
H301 C287 0.958 . S
H302 C287 0.961 . S
H303 C287 0.960 . S
C304 C305 1.391 . S
C304 C306 1.394 . S
C304 H320 0.931 . S
C305 C304 1.391 . S
C305 C309 1.376 . S
C306 C304 1.394 . S
C306 C307 1.369 . S
C306 C310 1.531 . S
C307 C306 1.369 . S
C307 C308 1.410 . S
C307 C315 1.503 . S
C308 C307 1.410 . S
C308 C309 1.392 . S
C308 C311 1.511 . S
C309 C305 1.376 . S
C309 C308 1.392 . S
C309 H321 0.929 . S
C310 C306 1.531 . S
C310 H322 0.960 . S
C310 H323 0.962 . S
C310 H324 0.960 . S
C311 C308 1.511 . S
C311 H325 0.961 . S
C311 H326 0.961 . S
C311 H327 0.961 . S
C312 C313 1.370 . S
C312 C314 1.363 . S
C312 H328 0.931 . S
C313 C312 1.370 . S
C313 C317 1.408 . S
C314 C312 1.363 . S
C314 C315 1.370 . S
C314 C318 1.524 . S
C315 C307 1.503 . S
C315 C314 1.370 . S
C315 C316 1.403 . S
C316 C315 1.403 . S
C316 C317 1.404 . S
C316 C319 1.539 . S
C317 C313 1.408 . S
C317 C316 1.404 . S
C317 H329 0.930 . S
C318 C314 1.524 . S
C318 H330 0.956 . S
C318 H331 0.961 . S
C318 H332 0.961 . S
C319 C316 1.539 . S
C319 H333 0.958 . S
C319 H334 0.961 . S
C319 H335 0.960 . S
H320 C304 0.931 . S
H321 C309 0.929 . S
H322 C310 0.960 . S
H323 C310 0.962 . S
H324 C310 0.960 . S
H325 C311 0.961 . S
H326 C311 0.961 . S
H327 C311 0.961 . S
H328 C312 0.931 . S
H329 C317 0.930 . S
H330 C318 0.956 . S
H331 C318 0.961 . S
H332 C318 0.961 . S
H333 C319 0.958 . S
H334 C319 0.961 . S
H335 C319 0.960 . S
C336 C337 1.391 . S
C336 C338 1.394 . S
C336 H352 0.931 . S
C337 C336 1.391 . S
C337 C341 1.376 . S
C338 C336 1.394 . S
C338 C339 1.369 . S
C338 C342 1.531 . S
C339 C338 1.369 . S
C339 C340 1.410 . S
C339 C347 1.503 . S
C340 C339 1.410 . S
C340 C341 1.392 . S
C340 C343 1.511 . S
C341 C337 1.376 . S
C341 C340 1.392 . S
C341 H353 0.929 . S
C342 C338 1.531 . S
C342 H354 0.960 . S
C342 H355 0.962 . S
C342 H356 0.960 . S
C343 C340 1.511 . S
C343 H357 0.961 . S
C343 H358 0.961 . S
C343 H359 0.961 . S
C344 C345 1.370 . S
C344 C346 1.363 . S
C344 H360 0.931 . S
C345 C344 1.370 . S
C345 C349 1.408 . S
C346 C344 1.363 . S
C346 C347 1.370 . S
C346 C350 1.524 . S
C347 C339 1.503 . S
C347 C346 1.370 . S
C347 C348 1.403 . S
C348 C347 1.403 . S
C348 C349 1.404 . S
C348 C351 1.539 . S
C349 C345 1.408 . S
C349 C348 1.404 . S
C349 H361 0.930 . S
C350 C346 1.524 . S
C350 H362 0.956 . S
C350 H363 0.961 . S
C350 H364 0.961 . S
C351 C348 1.539 . S
C351 H365 0.958 . S
C351 H366 0.961 . S
C351 H367 0.960 . S
H352 C336 0.931 . S
H353 C341 0.929 . S
H354 C342 0.960 . S
H355 C342 0.962 . S
H356 C342 0.960 . S
H357 C343 0.961 . S
H358 C343 0.961 . S
H359 C343 0.961 . S
H360 C344 0.931 . S
H361 C349 0.930 . S
H362 C350 0.956 . S
H363 C350 0.961 . S
H364 C350 0.961 . S
H365 C351 0.958 . S
H366 C351 0.961 . S
H367 C351 0.960 . S
C368 C369 1.391 . S
C368 C370 1.394 . S
C368 H384 0.931 . S
C369 C368 1.391 . S
C369 C373 1.376 . S
C370 C368 1.394 . S
C370 C371 1.369 . S
C370 C374 1.531 . S
C371 C370 1.369 . S
C371 C372 1.410 . S
C371 C379 1.503 1_565 S
C372 C371 1.410 . S
C372 C373 1.392 . S
C372 C375 1.511 . S
C373 C369 1.376 . S
C373 C372 1.392 . S
C373 H385 0.929 . S
C374 C370 1.531 . S
C374 H386 0.960 1_565 S
C374 H387 0.962 . S
C374 H388 0.960 . S
C375 C372 1.511 . S
C375 H389 0.961 . S
C375 H390 0.961 . S
C375 H391 0.961 . S
C376 C377 1.370 . S
C376 C378 1.363 . S
C376 H392 0.931 . S
C377 C376 1.370 . S
C377 C381 1.408 . S
C378 C376 1.363 . S
C378 C379 1.370 . S
C378 C382 1.524 . S
C379 C371 1.503 1_545 S
C379 C378 1.370 . S
C379 C380 1.403 . S
C380 C379 1.403 . S
C380 C381 1.404 . S
C380 C383 1.539 . S
C381 C377 1.408 . S
C381 C380 1.404 . S
C381 H393 0.930 . S
C382 C378 1.524 . S
C382 H394 0.956 1_545 S
C382 H395 0.961 1_545 S
C382 H396 0.961 . S
C383 C380 1.539 . S
C383 H397 0.958 . S
C383 H398 0.961 . S
C383 H399 0.960 . S
H384 C368 0.931 . S
H385 C373 0.929 . S
H386 C374 0.960 1_545 S
H387 C374 0.962 . S
H388 C374 0.960 . S
H389 C375 0.961 . S
H390 C375 0.961 . S
H391 C375 0.961 . S
H392 C376 0.931 . S
H393 C381 0.930 . S
H394 C382 0.956 1_565 S
H395 C382 0.961 1_565 S
H396 C382 0.961 . S
H397 C383 0.958 . S
H398 C383 0.961 . S
H399 C383 0.960 . S
C400 C401 1.391 . S
C400 C402 1.394 . S
C400 H416 0.931 . S
C401 C400 1.391 . S
C401 C405 1.376 . S
C402 C400 1.394 . S
C402 C403 1.369 . S
C402 C406 1.531 . S
C403 C402 1.369 . S
C403 C404 1.410 . S
C403 C411 1.503 . S
C404 C403 1.410 . S
C404 C405 1.392 . S
C404 C407 1.511 . S
C405 C401 1.376 . S
C405 C404 1.392 . S
C405 H417 0.929 . S
C406 C402 1.531 . S
C406 H418 0.960 . S
C406 H419 0.962 . S
C406 H420 0.960 . S
C407 C404 1.511 . S
C407 H421 0.961 . S
C407 H422 0.961 . S
C407 H423 0.961 . S
C408 C409 1.370 . S
C408 C410 1.363 . S
C408 H424 0.931 . S
C409 C408 1.370 . S
C409 C413 1.408 . S
C410 C408 1.363 . S
C410 C411 1.370 . S
C410 C414 1.524 . S
C411 C403 1.503 . S
C411 C410 1.370 . S
C411 C412 1.403 . S
C412 C411 1.403 . S
C412 C413 1.404 . S
C412 C415 1.539 . S
C413 C409 1.408 . S
C413 C412 1.404 . S
C413 H425 0.930 . S
C414 C410 1.524 . S
C414 H426 0.956 . S
C414 H427 0.961 . S
C414 H428 0.961 . S
C415 C412 1.539 . S
C415 H429 0.958 . S
C415 H430 0.961 . S
C415 H431 0.960 . S
H416 C400 0.931 . S
H417 C405 0.929 . S
H418 C406 0.960 . S
H419 C406 0.962 . S
H420 C406 0.960 . S
H421 C407 0.961 . S
H422 C407 0.961 . S
H423 C407 0.961 . S
H424 C408 0.931 . S
H425 C413 0.930 . S
H426 C414 0.956 . S
H427 C414 0.961 . S
H428 C414 0.961 . S
H429 C415 0.958 . S
H430 C415 0.961 . S
H431 C415 0.960 . S
C432 C433 1.391 . S
C432 C434 1.394 . S
C432 H448 0.931 . S
C433 C432 1.391 . S
C433 C437 1.376 . S
C434 C432 1.394 . S
C434 C435 1.369 . S
C434 C438 1.531 . S
C435 C434 1.369 . S
C435 C436 1.410 . S
C435 C443 1.503 1_565 S
C436 C435 1.410 . S
C436 C437 1.392 . S
C436 C439 1.511 . S
C437 C433 1.376 . S
C437 C436 1.392 . S
C437 H449 0.929 . S
C438 C434 1.531 . S
C438 H450 0.960 1_565 S
C438 H451 0.962 . S
C438 H452 0.960 . S
C439 C436 1.511 . S
C439 H453 0.961 . S
C439 H454 0.961 . S
C439 H455 0.961 . S
C440 C441 1.370 . S
C440 C442 1.363 . S
C440 H456 0.931 . S
C441 C440 1.370 . S
C441 C445 1.408 . S
C442 C440 1.363 . S
C442 C443 1.370 . S
C442 C446 1.524 1_545 S
C443 C435 1.503 1_545 S
C443 C442 1.370 . S
C443 C444 1.403 . S
C444 C443 1.403 . S
C444 C445 1.404 . S
C444 C447 1.539 . S
C445 C441 1.408 . S
C445 C444 1.404 . S
C445 H457 0.930 . S
C446 C442 1.524 1_565 S
C446 H458 0.956 . S
C446 H459 0.961 . S
C446 H460 0.961 1_565 S
C447 C444 1.539 . S
C447 H461 0.958 . S
C447 H462 0.961 . S
C447 H463 0.960 . S
H448 C432 0.931 . S
H449 C437 0.929 . S
H450 C438 0.960 1_545 S
H451 C438 0.962 . S
H452 C438 0.960 . S
H453 C439 0.961 . S
H454 C439 0.961 . S
H455 C439 0.961 . S
H456 C440 0.931 . S
H457 C445 0.930 . S
H458 C446 0.956 . S
H459 C446 0.961 . S
H460 C446 0.961 1_545 S
H461 C447 0.958 . S
H462 C447 0.961 . S
H463 C447 0.960 . S
C464 C465 1.391 . S
C464 C466 1.394 . S
C464 H480 0.931 . S
C465 C464 1.391 . S
C465 C469 1.376 . S
C466 C464 1.394 . S
C466 C467 1.369 . S
C466 C470 1.531 . S
C467 C466 1.369 . S
C467 C468 1.410 . S
C467 C475 1.503 . S
C468 C467 1.410 . S
C468 C469 1.392 . S
C468 C471 1.511 . S
C469 C465 1.376 . S
C469 C468 1.392 . S
C469 H481 0.929 . S
C470 C466 1.531 . S
C470 H482 0.960 . S
C470 H483 0.962 . S
C470 H484 0.960 . S
C471 C468 1.511 . S
C471 H485 0.961 . S
C471 H486 0.961 . S
C471 H487 0.961 . S
C472 C473 1.370 . S
C472 C474 1.363 . S
C472 H488 0.931 . S
C473 C472 1.370 . S
C473 C477 1.408 . S
C474 C472 1.363 . S
C474 C475 1.370 . S
C474 C478 1.524 . S
C475 C467 1.503 . S
C475 C474 1.370 . S
C475 C476 1.403 . S
C476 C475 1.403 . S
C476 C477 1.404 . S
C476 C479 1.539 . S
C477 C473 1.408 . S
C477 C476 1.404 . S
C477 H489 0.930 . S
C478 C474 1.524 . S
C478 H490 0.956 . S
C478 H491 0.961 . S
C478 H492 0.961 . S
C479 C476 1.539 . S
C479 H493 0.958 . S
C479 H494 0.961 . S
C479 H495 0.960 . S
H480 C464 0.931 . S
H481 C469 0.929 . S
H482 C470 0.960 . S
H483 C470 0.962 . S
H484 C470 0.960 . S
H485 C471 0.961 . S
H486 C471 0.961 . S
H487 C471 0.961 . S
H488 C472 0.931 . S
H489 C477 0.930 . S
H490 C478 0.956 . S
H491 C478 0.961 . S
H492 C478 0.961 . S
H493 C479 0.958 . S
H494 C479 0.961 . S
H495 C479 0.960 . S
C496 C497 1.391 . S
C496 C498 1.394 . S
C496 H512 0.931 . S
C497 C496 1.391 . S
C497 C501 1.376 . S
C498 C496 1.394 . S
C498 C499 1.369 . S
C498 C502 1.531 . S
C499 C498 1.369 . S
C499 C500 1.410 . S
C499 C507 1.503 . S
C500 C499 1.410 . S
C500 C501 1.392 . S
C500 C503 1.511 . S
C501 C497 1.376 . S
C501 C500 1.392 . S
C501 H513 0.929 . S
C502 C498 1.531 . S
C502 H514 0.960 . S
C502 H515 0.962 1_554 S
C502 H516 0.960 . S
C503 C500 1.511 . S
C503 H517 0.961 . S
C503 H518 0.961 . S
C503 H519 0.961 . S
C504 C505 1.370 . S
C504 C506 1.363 . S
C504 H520 0.931 . S
C505 C504 1.370 . S
C505 C509 1.408 1_556 S
C506 C504 1.363 . S
C506 C507 1.370 1_556 S
C506 C510 1.524 . S
C507 C499 1.503 . S
C507 C506 1.370 1_554 S
C507 C508 1.403 . S
C508 C507 1.403 . S
C508 C509 1.404 . S
C508 C511 1.539 . S
C509 C505 1.408 1_554 S
C509 C508 1.404 . S
C509 H521 0.930 . S
C510 C506 1.524 . S
C510 H522 0.956 . S
C510 H523 0.961 . S
C510 H524 0.961 . S
C511 C508 1.539 . S
C511 H525 0.958 . S
C511 H526 0.961 . S
C511 H527 0.960 . S
H512 C496 0.931 . S
H513 C501 0.929 . S
H514 C502 0.960 . S
H515 C502 0.962 1_556 S
H516 C502 0.960 . S
H517 C503 0.961 . S
H518 C503 0.961 . S
H519 C503 0.961 . S
H520 C504 0.931 . S
H521 C509 0.930 . S
H522 C510 0.956 . S
H523 C510 0.961 . S
H524 C510 0.961 . S
H525 C511 0.958 . S
H526 C511 0.961 . S
H527 C511 0.960 . S
C528 C529 1.391 . S
C528 C530 1.394 . S
C528 H544 0.931 . S
C529 C528 1.391 . S
C529 C533 1.376 . S
C530 C528 1.394 . S
C530 C531 1.369 . S
C530 C534 1.531 . S
C531 C530 1.369 . S
C531 C532 1.410 . S
C531 C539 1.503 1_564 S
C532 C531 1.410 . S
C532 C533 1.392 . S
C532 C535 1.509 1_554 S
C533 C529 1.376 . S
C533 C532 1.392 . S
C533 H545 0.929 . S
C534 C530 1.531 . S
C534 H546 0.960 . S
C534 H547 0.962 1_554 S
C534 H548 0.960 . S
C535 C532 1.509 1_556 S
C535 H549 0.965 . S
C535 H550 0.967 1_565 S
C535 H551 0.952 1_566 S
C536 C537 1.370 . S
C536 C538 1.363 . S
C536 H552 0.931 . S
C537 C536 1.370 . S
C537 C541 1.408 1_556 S
C538 C536 1.363 . S
C538 C539 1.370 . S
C538 C542 1.524 1_545 S
C539 C531 1.503 1_546 S
C539 C538 1.370 . S
C539 C540 1.403 1_556 S
C540 C539 1.403 1_554 S
C540 C541 1.404 . S
C540 C543 1.539 . S
C541 C537 1.408 1_554 S
C541 C540 1.404 . S
C541 H553 0.930 . S
C542 C538 1.524 1_565 S
C542 H554 0.956 . S
C542 H555 0.961 . S
C542 H556 0.961 1_565 S
C543 C540 1.539 . S
C543 H557 0.958 . S
C543 H558 0.961 . S
C543 H559 0.960 . S
H544 C528 0.931 . S
H545 C533 0.929 . S
H546 C534 0.960 . S
H547 C534 0.962 1_556 S
H548 C534 0.960 . S
H549 C535 0.965 . S
H550 C535 0.967 1_545 S
H551 C535 0.952 1_544 S
H552 C536 0.931 . S
H553 C541 0.930 . S
H554 C542 0.956 . S
H555 C542 0.961 . S
H556 C542 0.961 1_545 S
H557 C543 0.958 . S
H558 C543 0.961 . S
H559 C543 0.960 . S
C560 C561 1.391 . S
C560 C562 1.394 . S
C560 H576 0.931 . S
C561 C560 1.391 . S
C561 C565 1.376 . S
C562 C560 1.394 . S
C562 C563 1.369 . S
C562 C566 1.531 . S
C563 C562 1.369 . S
C563 C564 1.410 . S
C563 C571 1.503 . S
C564 C563 1.410 . S
C564 C565 1.392 . S
C564 C567 1.511 . S
C565 C561 1.376 . S
C565 C564 1.392 . S
C565 H577 0.929 . S
C566 C562 1.531 . S
C566 H578 0.960 . S
C566 H579 0.962 . S
C566 H580 0.960 . S
C567 C564 1.511 . S
C567 H581 0.961 . S
C567 H582 0.961 . S
C567 H583 0.961 . S
C568 C569 1.370 . S
C568 C570 1.363 . S
C568 H584 0.931 . S
C569 C568 1.370 . S
C569 C573 1.408 1_554 S
C570 C568 1.363 . S
C570 C571 1.370 1_554 S
C570 C574 1.524 . S
C571 C563 1.503 . S
C571 C570 1.370 1_556 S
C571 C572 1.403 . S
C572 C571 1.403 . S
C572 C573 1.404 . S
C572 C575 1.539 . S
C573 C569 1.408 1_556 S
C573 C572 1.404 . S
C573 H585 0.930 . S
C574 C570 1.524 . S
C574 H586 0.956 . S
C574 H587 0.961 . S
C574 H588 0.961 . S
C575 C572 1.539 . S
C575 H589 0.958 . S
C575 H590 0.961 . S
C575 H591 0.960 . S
H576 C560 0.931 . S
H577 C565 0.929 . S
H578 C566 0.960 . S
H579 C566 0.962 . S
H580 C566 0.960 . S
H581 C567 0.961 . S
H582 C567 0.961 . S
H583 C567 0.961 . S
H584 C568 0.931 . S
H585 C573 0.930 . S
H586 C574 0.956 . S
H587 C574 0.961 . S
H588 C574 0.961 . S
H589 C575 0.958 . S
H590 C575 0.961 . S
H591 C575 0.960 . S
C592 C593 1.391 1_554 S
C592 C594 1.394 . S
C592 H608 0.931 . S
C593 C592 1.391 1_556 S
C593 C597 1.376 . S
C594 C592 1.394 . S
C594 C595 1.369 1_554 S
C594 C598 1.531 . S
C595 C594 1.369 1_556 S
C595 C596 1.410 . S
C595 C603 1.503 1_546 S
C596 C595 1.410 . S
C596 C597 1.392 . S
C596 C599 1.511 . S
C597 C593 1.376 . S
C597 C596 1.392 . S
C597 H609 0.929 . S
C598 C594 1.531 . S
C598 H610 0.960 1_545 S
C598 H611 0.962 . S
C598 H612 0.960 . S
C599 C596 1.511 . S
C599 H613 0.961 . S
C599 H614 0.961 1_545 S
C599 H615 0.961 . S
C600 C601 1.370 . S
C600 C602 1.363 . S
C600 H616 0.931 . S
C601 C600 1.370 . S
C601 C605 1.408 . S
C602 C600 1.363 . S
C602 C603 1.370 . S
C602 C606 1.524 1_565 S
C603 C595 1.503 1_564 S
C603 C602 1.370 . S
C603 C604 1.403 1_554 S
C604 C603 1.403 1_556 S
C604 C605 1.404 1_556 S
C604 C607 1.539 . S
C605 C601 1.408 . S
C605 C604 1.404 1_554 S
C605 H617 0.930 1_554 S
C606 C602 1.524 1_545 S
C606 H618 0.956 . S
C606 H619 0.961 . S
C606 H620 0.961 1_545 S
C607 C604 1.539 . S
C607 H621 0.958 . S
C607 H622 0.961 . S
C607 H623 0.960 . S
H608 C592 0.931 . S
H609 C597 0.929 . S
H610 C598 0.960 1_565 S
H611 C598 0.962 . S
H612 C598 0.960 . S
H613 C599 0.961 . S
H614 C599 0.961 1_565 S
H615 C599 0.961 . S
H616 C600 0.931 . S
H617 C605 0.930 1_556 S
H618 C606 0.956 . S
H619 C606 0.961 . S
H620 C606 0.961 1_565 S
H621 C607 0.958 . S
H622 C607 0.961 . S
H623 C607 0.960 . S
C624 C625 1.391 . S
C624 C626 1.394 . S
C624 H640 0.931 . S
C625 C624 1.391 . S
C625 C629 1.376 . S
C626 C624 1.394 . S
C626 C627 1.369 . S
C626 C630 1.531 . S
C627 C626 1.369 . S
C627 C628 1.410 . S
C627 C635 1.503 . S
C628 C627 1.410 . S
C628 C629 1.392 . S
C628 C631 1.511 . S
C629 C625 1.376 . S
C629 C628 1.392 . S
C629 H641 0.929 . S
C630 C626 1.531 . S
C630 H642 0.960 . S
C630 H643 0.962 . S
C630 H644 0.960 . S
C631 C628 1.511 . S
C631 H645 0.961 . S
C631 H646 0.961 . S
C631 H647 0.961 . S
C632 C633 1.370 . S
C632 C634 1.363 . S
C632 H648 0.931 . S
C633 C632 1.370 . S
C633 C637 1.408 . S
C634 C632 1.363 . S
C634 C635 1.370 1_556 S
C634 C638 1.524 1_556 S
C635 C627 1.503 . S
C635 C634 1.370 1_554 S
C635 C636 1.403 1_554 S
C636 C635 1.403 1_556 S
C636 C637 1.404 . S
C636 C639 1.539 1_556 S
C637 C633 1.408 . S
C637 C636 1.404 . S
C637 H649 0.930 . S
C638 C634 1.524 1_554 S
C638 H650 0.956 . S
C638 H651 0.961 . S
C638 H652 0.961 . S
C639 C636 1.539 1_554 S
C639 H653 0.958 . S
C639 H654 0.961 1_554 S
C639 H655 0.960 . S
H640 C624 0.931 . S
H641 C629 0.929 . S
H642 C630 0.960 . S
H643 C630 0.962 . S
H644 C630 0.960 . S
H645 C631 0.961 . S
H646 C631 0.961 . S
H647 C631 0.961 . S
H648 C632 0.931 . S
H649 C637 0.930 . S
H650 C638 0.956 . S
H651 C638 0.961 . S
H652 C638 0.961 . S
H653 C639 0.958 . S
H654 C639 0.961 1_556 S
H655 C639 0.960 . S
C656 C657 1.391 . S
C656 C658 1.394 . S
C656 H672 0.931 . S
C657 C656 1.391 . S
C657 C661 1.376 . S
C658 C656 1.394 . S
C658 C659 1.369 . S
C658 C662 1.531 . S
C659 C658 1.369 . S
C659 C660 1.410 . S
C659 C667 1.504 1_554 S
C660 C659 1.410 . S
C660 C661 1.392 . S
C660 C663 1.511 . S
C661 C657 1.376 . S
C661 C660 1.392 . S
C661 H673 0.929 . S
C662 C658 1.531 . S
C662 H674 0.960 . S
C662 H675 0.962 . S
C662 H676 0.960 . S
C663 C660 1.511 . S
C663 H677 0.961 . S
C663 H678 0.961 . S
C663 H679 0.961 . S
C664 C665 1.370 . S
C664 C666 1.363 . S
C664 H680 0.931 . S
C665 C664 1.370 . S
C665 C669 1.408 . S
C666 C664 1.363 . S
C666 C667 1.370 . S
C666 C670 1.524 1_556 S
C667 C659 1.504 1_556 S
C667 C666 1.370 . S
C667 C668 1.402 . S
C668 C667 1.402 . S
C668 C669 1.404 . S
C668 C671 1.539 . S
C669 C665 1.408 . S
C669 C668 1.404 . S
C669 H681 0.930 . S
C670 C666 1.524 1_554 S
C670 H682 0.956 . S
C670 H683 0.961 . S
C670 H684 0.961 1_554 S
C671 C668 1.539 . S
C671 H685 0.958 . S
C671 H686 0.961 . S
C671 H687 0.960 1_556 S
H672 C656 0.931 . S
H673 C661 0.929 . S
H674 C662 0.960 . S
H675 C662 0.962 . S
H676 C662 0.960 . S
H677 C663 0.961 . S
H678 C663 0.961 . S
H679 C663 0.961 . S
H680 C664 0.931 . S
H681 C669 0.930 . S
H682 C670 0.956 . S
H683 C670 0.961 . S
H684 C670 0.961 1_556 S
H685 C671 0.958 . S
H686 C671 0.961 . S
H687 C671 0.960 1_554 S
C688 C689 1.391 . S
C688 C690 1.394 . S
C688 H704 0.931 . S
C689 C688 1.391 . S
C689 C693 1.376 . S
C690 C688 1.394 . S
C690 C691 1.370 . S
C690 C694 1.531 1_554 S
C691 C690 1.370 . S
C691 C692 1.411 . S
C691 C699 1.500 1_554 S
C692 C691 1.411 . S
C692 C693 1.392 . S
C692 C695 1.511 . S
C693 C689 1.376 . S
C693 C692 1.392 . S
C693 H705 0.929 . S
C694 C690 1.531 1_556 S
C694 H706 0.960 . S
C694 H707 0.962 . S
C694 H708 0.960 1_556 S
C695 C692 1.511 . S
C695 H709 0.961 . S
C695 H710 0.961 1_554 S
C695 H711 0.961 1_554 S
C696 C697 1.370 . S
C696 C698 1.363 . S
C696 H712 0.931 . S
C697 C696 1.370 . S
C697 C701 1.408 . S
C698 C696 1.363 . S
C698 C699 1.370 . S
C698 C702 1.524 . S
C699 C691 1.500 1_556 S
C699 C698 1.370 . S
C699 C700 1.403 . S
C700 C699 1.403 . S
C700 C701 1.404 . S
C700 C703 1.539 . S
C701 C697 1.408 . S
C701 C700 1.404 . S
C701 H713 0.930 . S
C702 C698 1.524 . S
C702 H714 0.956 . S
C702 H715 0.961 . S
C702 H716 0.961 . S
C703 C700 1.539 . S
C703 H717 0.958 . S
C703 H718 0.961 . S
C703 H719 0.960 . S
H704 C688 0.931 . S
H705 C693 0.929 . S
H706 C694 0.960 . S
H707 C694 0.962 . S
H708 C694 0.960 1_554 S
H709 C695 0.961 . S
H710 C695 0.961 1_556 S
H711 C695 0.961 1_556 S
H712 C696 0.931 . S
H713 C701 0.930 . S
H714 C702 0.956 . S
H715 C702 0.961 . S
H716 C702 0.961 . S
H717 C703 0.958 . S
H718 C703 0.961 . S
H719 C703 0.960 . S
C720 C721 1.391 . S
C720 C722 1.394 . S
C720 H736 0.931 . S
C721 C720 1.391 . S
C721 C725 1.376 . S
C722 C720 1.394 . S
C722 C723 1.369 . S
C722 C726 1.531 . S
C723 C722 1.369 . S
C723 C724 1.410 . S
C723 C731 1.503 . S
C724 C723 1.410 . S
C724 C725 1.392 . S
C724 C727 1.511 . S
C725 C721 1.376 . S
C725 C724 1.392 . S
C725 H737 0.929 . S
C726 C722 1.531 . S
C726 H738 0.960 . S
C726 H739 0.962 . S
C726 H740 0.960 . S
C727 C724 1.511 . S
C727 H741 0.961 . S
C727 H742 0.961 . S
C727 H743 0.961 . S
C728 C729 1.370 . S
C728 C730 1.363 . S
C728 H744 0.931 . S
C729 C728 1.370 . S
C729 C733 1.408 . S
C730 C728 1.363 . S
C730 C731 1.370 1_554 S
C730 C734 1.524 1_554 S
C731 C723 1.503 . S
C731 C730 1.370 1_556 S
C731 C732 1.403 1_556 S
C732 C731 1.403 1_554 S
C732 C733 1.404 . S
C732 C735 1.539 1_554 S
C733 C729 1.408 . S
C733 C732 1.404 . S
C733 H745 0.930 . S
C734 C730 1.524 1_556 S
C734 H746 0.956 . S
C734 H747 0.961 . S
C734 H748 0.961 . S
C735 C732 1.539 1_556 S
C735 H749 0.958 . S
C735 H750 0.961 1_556 S
C735 H751 0.960 . S
H736 C720 0.931 . S
H737 C725 0.929 . S
H738 C726 0.960 . S
H739 C726 0.962 . S
H740 C726 0.960 . S
H741 C727 0.961 . S
H742 C727 0.961 . S
H743 C727 0.961 . S
H744 C728 0.931 . S
H745 C733 0.930 . S
H746 C734 0.956 . S
H747 C734 0.961 . S
H748 C734 0.961 . S
H749 C735 0.958 . S
H750 C735 0.961 1_554 S
H751 C735 0.960 . S
C752 C753 1.391 . S
C752 C754 1.394 . S
C752 H768 0.931 . S
C753 C752 1.391 . S
C753 C757 1.376 . S
C754 C752 1.394 . S
C754 C755 1.369 . S
C754 C758 1.531 . S
C755 C754 1.369 . S
C755 C756 1.410 . S
C755 C763 1.503 . S
C756 C755 1.410 . S
C756 C757 1.392 . S
C756 C759 1.511 . S
C757 C753 1.376 . S
C757 C756 1.392 . S
C757 H769 0.929 . S
C758 C754 1.531 . S
C758 H770 0.960 . S
C758 H771 0.962 . S
C758 H772 0.960 . S
C759 C756 1.511 . S
C759 H773 0.961 . S
C759 H774 0.961 . S
C759 H775 0.961 . S
C760 C761 1.370 . S
C760 C762 1.363 . S
C760 H776 0.931 . S
C761 C760 1.370 . S
C761 C765 1.408 . S
C762 C760 1.363 . S
C762 C763 1.370 . S
C762 C766 1.524 . S
C763 C755 1.503 . S
C763 C762 1.370 . S
C763 C764 1.403 . S
C764 C763 1.403 . S
C764 C765 1.404 . S
C764 C767 1.539 . S
C765 C761 1.408 . S
C765 C764 1.404 . S
C765 H777 0.930 . S
C766 C762 1.524 . S
C766 H778 0.956 . S
C766 H779 0.961 . S
C766 H780 0.961 . S
C767 C764 1.539 . S
C767 H781 0.958 . S
C767 H782 0.961 . S
C767 H783 0.960 . S
H768 C752 0.931 . S
H769 C757 0.929 . S
H770 C758 0.960 . S
H771 C758 0.962 . S
H772 C758 0.960 . S
H773 C759 0.961 . S
H774 C759 0.961 . S
H775 C759 0.961 . S
H776 C760 0.931 . S
H777 C765 0.930 . S
H778 C766 0.956 . S
H779 C766 0.961 . S
H780 C766 0.961 . S
H781 C767 0.958 . S
H782 C767 0.961 . S
H783 C767 0.960 . S
C784 C785 1.391 . S
C784 C786 1.394 . S
C784 H800 0.931 . S
C785 C784 1.391 . S
C785 C789 1.376 . S
C786 C784 1.394 . S
C786 C787 1.369 . S
C786 C790 1.531 . S
C787 C786 1.369 . S
C787 C788 1.410 . S
C787 C795 1.503 . S
C788 C787 1.410 . S
C788 C789 1.392 . S
C788 C791 1.511 . S
C789 C785 1.376 . S
C789 C788 1.392 . S
C789 H801 0.929 . S
C790 C786 1.531 . S
C790 H802 0.960 . S
C790 H803 0.962 . S
C790 H804 0.960 . S
C791 C788 1.511 . S
C791 H805 0.961 . S
C791 H806 0.961 . S
C791 H807 0.961 . S
C792 C793 1.370 . S
C792 C794 1.363 . S
C792 H808 0.931 . S
C793 C792 1.370 . S
C793 C797 1.408 . S
C794 C792 1.363 . S
C794 C795 1.370 . S
C794 C798 1.524 . S
C795 C787 1.503 . S
C795 C794 1.370 . S
C795 C796 1.403 . S
C796 C795 1.403 . S
C796 C797 1.404 . S
C796 C799 1.539 . S
C797 C793 1.408 . S
C797 C796 1.404 . S
C797 H809 0.930 . S
C798 C794 1.524 . S
C798 H810 0.956 . S
C798 H811 0.961 . S
C798 H812 0.961 . S
C799 C796 1.539 . S
C799 H813 0.958 . S
C799 H814 0.961 . S
C799 H815 0.960 . S
H800 C784 0.931 . S
H801 C789 0.929 . S
H802 C790 0.960 . S
H803 C790 0.962 . S
H804 C790 0.960 . S
H805 C791 0.961 . S
H806 C791 0.961 . S
H807 C791 0.961 . S
H808 C792 0.931 . S
H809 C797 0.930 . S
H810 C798 0.956 . S
H811 C798 0.961 . S
H812 C798 0.961 . S
H813 C799 0.958 . S
H814 C799 0.961 . S
H815 C799 0.960 . S
C816 C817 1.391 . S
C816 C818 1.394 . S
C816 H832 0.931 . S
C817 C816 1.391 . S
C817 C821 1.376 . S
C818 C816 1.394 . S
C818 C819 1.369 . S
C818 C822 1.531 . S
C819 C818 1.369 . S
C819 C820 1.410 . S
C819 C827 1.503 . S
C820 C819 1.410 . S
C820 C821 1.392 . S
C820 C823 1.511 . S
C821 C817 1.376 . S
C821 C820 1.392 . S
C821 H833 0.929 . S
C822 C818 1.531 . S
C822 H834 0.960 . S
C822 H835 0.962 . S
C822 H836 0.960 . S
C823 C820 1.511 . S
C823 H837 0.961 . S
C823 H838 0.961 . S
C823 H839 0.961 . S
C824 C825 1.370 . S
C824 C826 1.363 . S
C824 H840 0.931 . S
C825 C824 1.370 . S
C825 C829 1.408 . S
C826 C824 1.363 . S
C826 C827 1.370 . S
C826 C830 1.524 . S
C827 C819 1.503 . S
C827 C826 1.370 . S
C827 C828 1.403 . S
C828 C827 1.403 . S
C828 C829 1.404 . S
C828 C831 1.539 . S
C829 C825 1.408 . S
C829 C828 1.404 . S
C829 H841 0.930 . S
C830 C826 1.524 . S
C830 H842 0.956 . S
C830 H843 0.961 . S
C830 H844 0.961 . S
C831 C828 1.539 . S
C831 H845 0.958 . S
C831 H846 0.961 . S
C831 H847 0.960 . S
H832 C816 0.931 . S
H833 C821 0.929 . S
H834 C822 0.960 . S
H835 C822 0.962 . S
H836 C822 0.960 . S
H837 C823 0.961 . S
H838 C823 0.961 . S
H839 C823 0.961 . S
H840 C824 0.931 . S
H841 C829 0.930 . S
H842 C830 0.956 . S
H843 C830 0.961 . S
H844 C830 0.961 . S
H845 C831 0.958 . S
H846 C831 0.961 . S
H847 C831 0.960 . S
C848 C849 1.391 . S
C848 C850 1.394 . S
C848 H864 0.931 . S
C849 C848 1.391 . S
C849 C853 1.376 . S
C850 C848 1.394 . S
C850 C851 1.369 . S
C850 C854 1.531 . S
C851 C850 1.369 . S
C851 C852 1.410 . S
C851 C859 1.503 . S
C852 C851 1.410 . S
C852 C853 1.392 . S
C852 C855 1.511 . S
C853 C849 1.376 . S
C853 C852 1.392 . S
C853 H865 0.929 . S
C854 C850 1.531 . S
C854 H866 0.960 . S
C854 H867 0.962 . S
C854 H868 0.960 . S
C855 C852 1.511 . S
C855 H869 0.961 . S
C855 H870 0.961 . S
C855 H871 0.961 . S
C856 C857 1.370 . S
C856 C858 1.363 . S
C856 H872 0.931 . S
C857 C856 1.370 . S
C857 C861 1.408 . S
C858 C856 1.363 . S
C858 C859 1.370 . S
C858 C862 1.524 . S
C859 C851 1.503 . S
C859 C858 1.370 . S
C859 C860 1.403 . S
C860 C859 1.403 . S
C860 C861 1.404 . S
C860 C863 1.539 . S
C861 C857 1.408 . S
C861 C860 1.404 . S
C861 H873 0.930 . S
C862 C858 1.524 . S
C862 H874 0.956 . S
C862 H875 0.961 . S
C862 H876 0.961 . S
C863 C860 1.539 . S
C863 H877 0.958 . S
C863 H878 0.961 . S
C863 H879 0.960 . S
H864 C848 0.931 . S
H865 C853 0.929 . S
H866 C854 0.960 . S
H867 C854 0.962 . S
H868 C854 0.960 . S
H869 C855 0.961 . S
H870 C855 0.961 . S
H871 C855 0.961 . S
H872 C856 0.931 . S
H873 C861 0.930 . S
H874 C862 0.956 . S
H875 C862 0.961 . S
H876 C862 0.961 . S
H877 C863 0.958 . S
H878 C863 0.961 . S
H879 C863 0.960 . S
C880 C881 1.391 . S
C880 C882 1.394 . S
C880 H896 0.931 . S
C881 C880 1.391 . S
C881 C885 1.376 . S
C882 C880 1.394 . S
C882 C883 1.369 . S
C882 C886 1.531 . S
C883 C882 1.369 . S
C883 C884 1.410 . S
C883 C891 1.503 . S
C884 C883 1.410 . S
C884 C885 1.392 . S
C884 C887 1.511 . S
C885 C881 1.376 . S
C885 C884 1.392 . S
C885 H897 0.929 . S
C886 C882 1.531 . S
C886 H898 0.960 . S
C886 H899 0.962 . S
C886 H900 0.960 . S
C887 C884 1.511 . S
C887 H901 0.961 . S
C887 H902 0.961 . S
C887 H903 0.961 . S
C888 C889 1.370 . S
C888 C890 1.363 1_655 S
C888 H904 0.931 . S
C889 C888 1.370 . S
C889 C893 1.408 . S
C890 C888 1.363 1_455 S
C890 C891 1.370 . S
C890 C894 1.524 . S
C891 C883 1.503 . S
C891 C890 1.370 . S
C891 C892 1.403 . S
C892 C891 1.403 . S
C892 C893 1.404 1_455 S
C892 C895 1.539 . S
C893 C889 1.408 . S
C893 C892 1.404 1_655 S
C893 H905 0.930 . S
C894 C890 1.524 . S
C894 H906 0.956 . S
C894 H907 0.961 . S
C894 H908 0.961 . S
C895 C892 1.539 . S
C895 H909 0.958 . S
C895 H910 0.961 . S
C895 H911 0.960 . S
H896 C880 0.931 . S
H897 C885 0.929 . S
H898 C886 0.960 . S
H899 C886 0.962 . S
H900 C886 0.960 . S
H901 C887 0.961 . S
H902 C887 0.961 . S
H903 C887 0.961 . S
H904 C888 0.931 . S
H905 C893 0.930 . S
H906 C894 0.956 . S
H907 C894 0.961 . S
H908 C894 0.961 . S
H909 C895 0.958 . S
H910 C895 0.961 . S
H911 C895 0.960 . S
C912 C913 1.391 . S
C912 C914 1.394 . S
C912 H928 0.931 . S
C913 C912 1.391 . S
C913 C917 1.376 . S
C914 C912 1.394 . S
C914 C915 1.369 . S
C914 C918 1.531 . S
C915 C914 1.369 . S
C915 C916 1.410 . S
C915 C923 1.503 . S
C916 C915 1.410 . S
C916 C917 1.392 . S
C916 C919 1.511 . S
C917 C913 1.376 . S
C917 C916 1.392 . S
C917 H929 0.929 . S
C918 C914 1.531 . S
C918 H930 0.960 . S
C918 H931 0.962 . S
C918 H932 0.960 . S
C919 C916 1.511 . S
C919 H933 0.961 . S
C919 H934 0.961 . S
C919 H935 0.961 . S
C920 C921 1.370 . S
C920 C922 1.363 1_455 S
C920 H936 0.931 . S
C921 C920 1.370 . S
C921 C925 1.408 . S
C922 C920 1.363 1_655 S
C922 C923 1.370 . S
C922 C926 1.524 . S
C923 C915 1.503 . S
C923 C922 1.370 . S
C923 C924 1.403 . S
C924 C923 1.403 . S
C924 C925 1.404 1_655 S
C924 C927 1.539 . S
C925 C921 1.408 . S
C925 C924 1.404 1_455 S
C925 H937 0.930 . S
C926 C922 1.524 . S
C926 H938 0.956 . S
C926 H939 0.961 . S
C926 H940 0.961 . S
C927 C924 1.539 . S
C927 H941 0.958 . S
C927 H942 0.961 . S
C927 H943 0.960 . S
H928 C912 0.931 . S
H929 C917 0.929 . S
H930 C918 0.960 . S
H931 C918 0.962 . S
H932 C918 0.960 . S
H933 C919 0.961 . S
H934 C919 0.961 . S
H935 C919 0.961 . S
H936 C920 0.931 . S
H937 C925 0.930 . S
H938 C926 0.956 . S
H939 C926 0.961 . S
H940 C926 0.961 . S
H941 C927 0.958 . S
H942 C927 0.961 . S
H943 C927 0.960 . S
C944 C945 1.391 . S
C944 C946 1.394 . S
C944 H960 0.931 . S
C945 C944 1.391 . S
C945 C949 1.376 1_554 S
C946 C944 1.394 . S
C946 C947 1.369 . S
C946 C950 1.531 . S
C947 C946 1.369 . S
C947 C948 1.410 1_554 S
C947 C955 1.503 . S
C948 C947 1.410 1_556 S
C948 C949 1.392 . S
C948 C951 1.511 . S
C949 C945 1.376 1_556 S
C949 C948 1.392 . S
C949 H961 0.929 . S
C950 C946 1.531 . S
C950 H962 0.960 . S
C950 H963 0.962 . S
C950 H964 0.960 . S
C951 C948 1.511 . S
C951 H965 0.961 . S
C951 H966 0.961 . S
C951 H967 0.961 . S
C952 C953 1.370 . S
C952 C954 1.363 . S
C952 H968 0.931 . S
C953 C952 1.370 . S
C953 C957 1.408 1_556 S
C954 C952 1.363 . S
C954 C955 1.370 1_556 S
C954 C958 1.524 . S
C955 C947 1.503 . S
C955 C954 1.370 1_554 S
C955 C956 1.403 . S
C956 C955 1.403 . S
C956 C957 1.404 . S
C956 C959 1.539 . S
C957 C953 1.408 1_554 S
C957 C956 1.404 . S
C957 H969 0.930 . S
C958 C954 1.524 . S
C958 H970 0.964 . S
C958 H971 0.961 . S
C958 H972 0.961 . S
C959 C956 1.539 . S
C959 H973 0.958 . S
C959 H974 0.961 . S
C959 H975 0.960 . S
H960 C944 0.931 . S
H961 C949 0.929 . S
H962 C950 0.960 . S
H963 C950 0.962 . S
H964 C950 0.960 . S
H965 C951 0.961 . S
H966 C951 0.961 . S
H967 C951 0.961 . S
H968 C952 0.931 . S
H969 C957 0.930 . S
H970 C958 0.964 . S
H971 C958 0.961 . S
H972 C958 0.961 . S
H973 C959 0.958 . S
H974 C959 0.961 . S
H975 C959 0.960 . S
C976 C977 1.391 1_554 S
C976 C978 1.394 . S
C976 H992 0.931 . S
C977 C976 1.391 1_556 S
C977 C981 1.376 . S
C978 C976 1.394 . S
C978 C979 1.369 1_554 S
C978 C982 1.531 . S
C979 C978 1.369 1_556 S
C979 C980 1.410 . S
C979 C987 1.503 . S
C980 C979 1.410 . S
C980 C981 1.392 . S
C980 C983 1.511 . S
C981 C977 1.376 . S
C981 C980 1.392 . S
C981 H993 0.929 . S
C982 C978 1.531 . S
C982 H994 0.960 . S
C982 H995 0.962 . S
C982 H996 0.960 . S
C983 C980 1.511 . S
C983 H997 0.961 . S
C983 H998 0.961 . S
C983 H999 0.961 . S
C984 C985 1.370 . S
C984 C986 1.363 . S
C984 H1000 0.931 . S
C985 C984 1.370 . S
C985 C989 1.408 1_554 S
C986 C984 1.363 . S
C986 C987 1.370 1_554 S
C986 C990 1.524 . S
C987 C979 1.503 . S
C987 C986 1.370 1_556 S
C987 C988 1.403 . S
C988 C987 1.403 . S
C988 C989 1.404 . S
C988 C991 1.539 . S
C989 C985 1.408 1_556 S
C989 C988 1.404 . S
C989 H1001 0.930 . S
C990 C986 1.524 . S
C990 H1002 0.956 . S
C990 H1003 0.961 1_554 S
C990 H1004 0.961 . S
C991 C988 1.539 . S
C991 H1005 0.958 1_556 S
C991 H1006 0.961 . S
C991 H1007 0.960 . S
H992 C976 0.931 . S
H993 C981 0.929 . S
H994 C982 0.960 . S
H995 C982 0.962 . S
H996 C982 0.960 . S
H997 C983 0.961 . S
H998 C983 0.961 . S
H999 C983 0.961 . S
H1000 C984 0.931 . S
H1001 C989 0.930 . S
H1002 C990 0.956 . S
H1003 C990 0.961 1_556 S
H1004 C990 0.961 . S
H1005 C991 0.958 1_554 S
H1006 C991 0.961 . S
H1007 C991 0.960 . S
C241 C16 2.340 . S
C249 C237 2.360 . S
C273 N186 1.419 . S
C281 N44 1.459 . S
C305 N164 1.465 . S
C313 N66 1.439 . S
C337 C136 2.358 . S
C345 C117 2.351 . S
C369 C61 1.623 . S
C377 C10 1.605 . S
C401 C31 1.634 . S
C409 C100 1.645 . S
C433 C91 1.621 . S
C441 C40 1.619 . S
C465 C70 1.611 . S
C473 C1 1.644 . S
C497 C130 1.614 . S
C505 C181 1.618 . S
C529 C151 1.643 . S
C537 C220 1.635 . S
C561 C211 1.615 . S
C569 C160 1.618 . S
C593 C190 1.647 . S
C601 C121 1.635 . S
C625 N14 0.552 . S
C633 N6 0.414 . S
C657 C46 2.745 . S
C665 C57 2.750 . S
C689 C76 2.743 . S
C697 C87 2.751 . S
C721 N96 0.552 . S
C729 N104 0.414 . S
C753 N126 0.404 . S
C761 N134 0.476 . S
C785 C166 2.743 . S
C793 C177 2.751 . S
C817 C207 2.744 . S
C825 C196 2.750 . S
C849 N216 0.547 . S
C857 N224 0.415 . S
C881 C27 1.643 . S
C889 N36 1.571 . S
C913 C106 1.644 . S
C921 N74 1.571 . S
C945 C147 1.644 . S
C953 N156 1.573 1_556 S
C977 C226 1.645 . S
C985 N194 1.572 1_554 S
