# Generated by pormake.
# Topology msp, (4)-cn, num edge types: 1
# Building blocks:
#     Node 0, Type 0, BuildingBlock: ESEHIV_clean_sbu_0, # of connection points: 4
#     Node 1, Type 0, BuildingBlock: ESEHIV_clean_sbu_0, # of connection points: 4
#     Node 2, Type 0, BuildingBlock: ESEHIV_clean_sbu_0, # of connection points: 4
#     Node 3, Type 0, BuildingBlock: ESEHIV_clean_sbu_0, # of connection points: 4
#     Node 4, Type 0, BuildingBlock: ESEHIV_clean_sbu_0, # of connection points: 4
#     Node 5, Type 0, BuildingBlock: ESEHIV_clean_sbu_0, # of connection points: 4
#     Node 6, Type 0, BuildingBlock: ESEHIV_clean_sbu_0, # of connection points: 4
#     Node 7, Type 0, BuildingBlock: ESEHIV_clean_sbu_0, # of connection points: 4
#     Edge 8, Type (0, 0), BuildingBlock: KIFKEQ_clean_linker_1, # of connection points: 2
#     Edge 9, Type (0, 0), BuildingBlock: KIFKEQ_clean_linker_1, # of connection points: 2
#     Edge 10, Type (0, 0), BuildingBlock: KIFKEQ_clean_linker_1, # of connection points: 2
#     Edge 11, Type (0, 0), BuildingBlock: KIFKEQ_clean_linker_1, # of connection points: 2
#     Edge 12, Type (0, 0), BuildingBlock: KIFKEQ_clean_linker_1, # of connection points: 2
#     Edge 13, Type (0, 0), BuildingBlock: KIFKEQ_clean_linker_1, # of connection points: 2
#     Edge 14, Type (0, 0), BuildingBlock: KIFKEQ_clean_linker_1, # of connection points: 2
#     Edge 15, Type (0, 0), BuildingBlock: KIFKEQ_clean_linker_1, # of connection points: 2
#     Edge 16, Type (0, 0), BuildingBlock: KIFKEQ_clean_linker_1, # of connection points: 2
#     Edge 17, Type (0, 0), BuildingBlock: KIFKEQ_clean_linker_1, # of connection points: 2
#     Edge 18, Type (0, 0), BuildingBlock: KIFKEQ_clean_linker_1, # of connection points: 2
#     Edge 19, Type (0, 0), BuildingBlock: KIFKEQ_clean_linker_1, # of connection points: 2
#     Edge 20, Type (0, 0), BuildingBlock: KIFKEQ_clean_linker_1, # of connection points: 2
#     Edge 21, Type (0, 0), BuildingBlock: KIFKEQ_clean_linker_1, # of connection points: 2
#     Edge 22, Type (0, 0), BuildingBlock: KIFKEQ_clean_linker_1, # of connection points: 2
#     Edge 23, Type (0, 0), BuildingBlock: KIFKEQ_clean_linker_1, # of connection points: 2
# Relax obj value: 0.063
# Max RMSD: 0.175
# Mean RMSD: 0.157
data_MOF--net-msp--node1-ESEHIV_clean_sbu_0--edge1-KIFKEQ_clean_linker_1
_symmetry_space_group_name_H-M    P1
_symmetry_Int_Tables_number       1
_symmetry_cell_setting            triclinic
loop_
_symmetry_equiv_pos_as_xyz
'x, y, z'
_cell_length_a     22.998052
_cell_length_b     23.027237
_cell_length_c     49.693485
_cell_angle_alpha  89.946669
_cell_angle_beta   98.375663
_cell_angle_gamma 90.219899
loop_
_atom_site_label
_atom_site_type_symbol
_atom_site_fract_x
_atom_site_fract_y
_atom_site_fract_z
_atom_type_partial_charge
Cu0 Cu 0.0249 0.28944 0.37881 0.0
N1 N 0.06469 0.23435 0.40209 0.0
N2 N 0.12506 0.19771 0.43724 0.0
C3 C 0.09809 0.24571 0.42604 0.0
C4 C 0.1072 0.15412 0.41979 0.0
C5 C 0.07005 0.17697 0.39804 0.0
O6 O 1.00845 0.35527 0.40096 0.0
C7 C 0.12661 0.30177 0.35291 0.0
O8 O 0.1552 0.29169 0.37731 0.0
H9 H 0.10318 0.28858 0.43491 0.0
H10 H 0.04961 0.15377 0.3802 0.0
N11 N 0.95334 0.25829 0.36283 0.0
N12 N 0.87276 0.2409 0.33292 0.0
C13 C 0.9241 0.27047 0.338 0.0
C14 C 0.91968 0.21977 0.37389 0.0
C15 C 0.86997 0.20891 0.35551 0.0
C16 C 0.04675 0.39097 0.41229 0.0
O17 O 0.10056 0.38886 0.40639 0.0
H18 H 0.93983 0.30116 0.32418 0.0
H19 H 0.9306 0.20097 0.39394 0.0
O20 O 0.0709 0.30688 0.34984 0.0
H21 H 0.12158 0.10946 0.42208 0.0
H22 H 0.83489 0.17921 0.35849 0.0
Cu23 Cu 0.51443 0.29094 0.66663 0.0
N24 N 0.47472 0.23505 0.64384 0.0
N25 N 0.41324 0.19814 0.6091 0.0
C26 C 0.43868 0.24665 0.62069 0.0
C27 C 0.43469 0.15409 0.62552 0.0
C28 C 0.4725 0.17711 0.64707 0.0
O29 O 0.51902 0.35959 0.64389 0.0
C30 C 0.41479 0.30313 0.69362 0.0
O31 O 0.3856 0.30153 0.66886 0.0
H32 H 0.43096 0.29012 0.61269 0.0
H33 H 0.49586 0.1535 0.66411 0.0
N34 N 0.58882 0.26304 0.68062 0.0
N35 N 0.67262 0.24725 0.70852 0.0
C36 C 0.6217 0.27728 0.70441 0.0
C37 C 0.61988 0.22287 0.66926 0.0
C38 C 0.67155 0.21302 0.6864 0.0
C39 C 0.56615 0.37487 0.6351 0.0
O40 O 0.61561 0.34878 0.64451 0.0
H41 H 0.60789 0.30808 0.71864 0.0
H42 H 0.60577 0.20213 0.64987 0.0
O43 O 0.47074 0.30307 0.69683 0.0
H44 H 0.42261 0.10881 0.62263 0.0
H45 H 0.70583 0.18325 0.68273 0.0
Cu46 Cu 0.95706 0.69089 0.64439 0.0
N47 N 0.89396 0.67939 0.66362 0.0
N48 N 0.83178 0.69013 0.69399 0.0
C49 C 0.88257 0.70817 0.68587 0.0
C50 C 0.81111 0.64792 0.6762 0.0
C51 C 0.8494 0.64154 0.65754 0.0
O52 O 0.02738 0.70433 0.67034 0.0
C53 C 0.89594 0.78669 0.61686 0.0
O54 O 0.86944 0.79102 0.63845 0.0
H55 H 0.91024 0.74278 0.69531 0.0
H56 H 0.8449 0.61167 0.64057 0.0
N57 N 0.96835 0.62341 0.62508 0.0
N58 N 0.98081 0.56439 0.59067 0.0
C59 C 0.97523 0.61993 0.59866 0.0
C60 C 0.96987 0.56838 0.63421 0.0
C61 C 0.97741 0.53184 0.61302 0.0
C62 C 0.04903 0.75313 0.67863 0.0
O63 O 0.02454 0.80125 0.66836 0.0
H64 H 0.97492 0.65737 0.58545 0.0
H65 H 0.96539 0.55578 0.65478 0.0
O66 O 0.93825 0.75112 0.61707 0.0
H67 H 0.77127 0.62301 0.67658 0.0
H68 H 0.98066 0.485 0.61409 0.0
Cu69 Cu 0.60201 0.70354 0.40504 0.0
N70 N 0.66787 0.68958 0.38816 0.0
N71 N 0.73346 0.69932 0.35947 0.0
C72 C 0.67759 0.709 0.36362 0.0
C73 C 0.75968 0.67246 0.38216 0.0
C74 C 0.71901 0.66634 0.3998 0.0
O75 O 0.53805 0.72866 0.37755 0.0
C76 C 0.66613 0.79526 0.4344 0.0
O77 O 0.69093 0.80223 0.41241 0.0
H78 H 0.64549 0.73287 0.34982 0.0
H79 H 0.72683 0.64877 0.42019 0.0
N80 N 0.58146 0.63575 0.42207 0.0
N81 N 0.56573 0.57467 0.45533 0.0
C82 C 0.58499 0.62784 0.44911 0.0
C83 C 0.55941 0.58595 0.41065 0.0
C84 C 0.54953 0.54818 0.43112 0.0
C85 C 0.4841 0.71967 0.37935 0.0
O86 O 0.46991 0.69622 0.40162 0.0
H87 H 0.60051 0.66097 0.46389 0.0
H88 H 0.55089 0.57786 0.389 0.0
O89 O 0.62352 0.75966 0.43396 0.0
H90 H 0.80534 0.65948 0.38595 0.0
H91 H 0.53246 0.50439 0.42835 0.0
Cu92 Cu 0.5342 0.79128 0.88035 0.0
N93 N 0.57388 0.73553 0.90319 0.0
N94 N 0.63259 0.69815 0.93873 0.0
C95 C 0.60379 0.74577 0.92807 0.0
C96 C 0.62002 0.65625 0.91974 0.0
C97 C 0.58376 0.67949 0.89782 0.0
O98 O 0.52697 0.85909 0.90315 0.0
C99 C 0.63498 0.80314 0.85399 0.0
O100 O 0.66379 0.79688 0.87866 0.0
H101 H 0.60651 0.78816 0.93757 0.0
H102 H 0.56701 0.65761 0.87902 0.0
N103 N 0.46073 0.76199 0.86526 0.0
N104 N 0.37633 0.74777 0.83729 0.0
C105 C 0.42547 0.78078 0.8429 0.0
C106 C 0.43332 0.7156 0.87408 0.0
C107 C 0.38143 0.70672 0.85696 0.0
C108 C 0.48221 0.8654 0.91525 0.0
O109 O 0.43759 0.82952 0.90967 0.0
H110 H 0.43588 0.81786 0.83108 0.0
H111 H 0.45029 0.68964 0.8916 0.0
O112 O 0.5791 0.80585 0.85073 0.0
H113 H 0.63633 0.61219 0.92138 0.0
H114 H 0.35071 0.67166 0.85859 0.0
Cu115 Cu 0.02539 0.79255 0.16844 0.0
N116 N 0.98298 0.73769 0.14578 0.0
N117 N 0.92132 0.7015 0.1108 0.0
C118 C 0.95518 0.74711 0.12042 0.0
C119 C 0.92908 0.66135 0.13082 0.0
C120 C 0.96704 0.68389 0.1524 0.0
O121 O 0.03794 0.86023 0.14641 0.0
C122 C 0.92781 0.80514 0.19743 0.0
O123 O 0.89545 0.79963 0.17351 0.0
H124 H 0.95858 0.78725 0.1095 0.0
H125 H 0.97995 0.66365 0.172 0.0
N126 N 0.0984 0.76222 0.18272 0.0
N127 N 0.18011 0.74403 0.21179 0.0
C128 C 0.12871 0.77329 0.20748 0.0
C129 C 0.13143 0.72471 0.17087 0.0
C130 C 0.18187 0.71342 0.18873 0.0
C131 C 0.99623 0.89143 0.13462 0.0
O132 O 0.94277 0.88284 0.14019 0.0
H133 H 0.11339 0.80268 0.22188 0.0
H134 H 0.1194 0.70659 0.15075 0.0
O135 O 0.98355 0.80723 0.19904 0.0
H136 H 0.90663 0.61992 0.13053 0.0
H137 H 0.21653 0.68407 0.18511 0.0
Cu138 Cu 0.44883 0.20085 0.14307 0.0
N139 N 0.38729 0.18448 0.16257 0.0
N140 N 0.3254 0.19212 0.1932 0.0
C141 C 0.37371 0.21398 0.18419 0.0
C142 C 0.30848 0.14673 0.17662 0.0
C143 C 0.34671 0.14218 0.15777 0.0
O144 O 0.51446 0.2294 0.16872 0.0
C145 C 0.37828 0.28788 0.11298 0.0
O146 O 0.35138 0.29228 0.13445 0.0
H147 H 0.39804 0.2517 0.19258 0.0
H148 H 0.34496 0.11048 0.14162 0.0
N149 N 0.46991 0.13331 0.12617 0.0
N150 N 0.48554 0.07206 0.09308 0.0
C151 C 0.46457 0.12443 0.09914 0.0
C152 C 0.49484 0.08492 0.13772 0.0
C153 C 0.50468 0.04705 0.11735 0.0
C154 C 0.56808 0.22142 0.16612 0.0
O155 O 0.58097 0.19685 0.14389 0.0
H156 H 0.44671 0.15636 0.08423 0.0
H157 H 0.50553 0.07795 0.15941 0.0
O158 O 0.42301 0.25518 0.11393 0.0
H159 H 0.27139 0.11842 0.17802 0.0
H160 H 0.52387 0.00425 0.12022 0.0
Cu161 Cu 0.08794 0.18601 0.90144 0.0
N162 N 0.14795 0.17136 0.88071 0.0
N163 N 0.20949 0.18028 0.84991 0.0
C164 C 0.162 0.20222 0.85949 0.0
C165 C 0.22522 0.13336 0.86562 0.0
C166 C 0.18731 0.12806 0.88454 0.0
O167 O 1.01609 0.20403 0.87746 0.0
C168 C 0.15612 0.27804 0.92934 0.0
O169 O 0.184 0.28008 0.90811 0.0
H170 H 0.13889 0.24101 0.85186 0.0
H171 H 0.18856 0.09518 0.90017 0.0
N172 N 0.07336 0.11901 0.92052 0.0
N173 N 0.05602 0.06104 0.95461 0.0
C174 C 0.07306 0.11445 0.94754 0.0
C175 C 0.05627 0.06677 0.91012 0.0
C176 C 0.04549 0.03089 0.93109 0.0
C177 C 1.00528 0.25094 0.86419 0.0
O178 O 0.04372 0.29362 0.86743 0.0
H179 H 0.08301 0.15026 0.96158 0.0
H180 H 0.05088 0.056 0.88871 0.0
O181 O 0.11167 0.24479 0.9289 0.0
H182 H 0.2614 0.10457 0.86363 0.0
H183 H 0.03071 0.98621 0.92914 0.0
H184 H 0.1206 0.46402 0.44498 0.0
H185 H 0.94281 0.39728 0.43279 0.0
H186 H 0.10244 0.51034 0.48716 0.0
H187 H 0.92474 0.44391 0.47474 0.0
H188 H 0.94571 0.46082 0.56799 0.0
H189 H 0.95952 0.42518 0.52324 0.0
H190 H 0.04501 0.58625 0.50725 0.0
H191 H 0.03221 0.62154 0.55242 0.0
C192 C 0.07735 0.46005 0.451 0.0
C193 C 0.03336 0.42647 0.43556 0.0
C194 C 0.06692 0.48673 0.47517 0.0
C195 C 1.01237 0.48019 0.48449 0.0
C196 C 0.96759 0.4489 0.46839 0.0
C197 C 0.97788 0.4225 0.44421 0.0
C198 C 0.96772 0.48857 0.55503 0.0
C199 C 0.988 0.54398 0.56387 0.0
C200 C 0.97503 0.46841 0.52921 0.0
C201 C 1.00313 0.50298 0.51159 0.0
C202 C 1.02341 0.55846 0.52038 0.0
C203 C 1.01564 0.57885 0.54617 0.0
H204 H 0.63354 0.60546 0.50258 0.0
H205 H 0.49248 0.49055 0.4692 0.0
H206 H 0.63056 0.56502 0.54768 0.0
H207 H 0.49076 0.4488 0.51418 0.0
H208 H 0.46897 0.41662 0.60221 0.0
H209 H 0.46668 0.47031 0.55963 0.0
H210 H 0.65647 0.47387 0.57111 0.0
H211 H 0.65881 0.42118 0.61372 0.0
C212 C 0.60161 0.57185 0.50484 0.0
C213 C 0.56335 0.55122 0.48215 0.0
C214 C 0.60026 0.54827 0.53071 0.0
C215 C 0.56047 0.50359 0.5346 0.0
C216 C 0.52154 0.4836 0.512 0.0
C217 C 0.52305 0.50703 0.4861 0.0
C218 C 0.51019 0.4298 0.5959 0.0
C219 C 0.56409 0.4144 0.61137 0.0
C220 C 0.50887 0.46008 0.57135 0.0
C221 C 0.56139 0.47598 0.5618 0.0
C222 C 0.61518 0.46277 0.57791 0.0
C223 C 0.61651 0.43229 0.60234 0.0
H224 H 0.56305 -0.00636 0.07853 0.0
H225 H 0.41154 0.09602 0.04677 0.0
H226 H 0.56358 0.95077 0.03366 0.0
H227 H 0.41288 0.05413 1.00178 0.0
H228 H 0.38942 0.90253 0.93894 0.0
H229 H 0.39209 0.95773 0.9809 0.0
H230 H 0.58055 0.97475 0.98654 0.0
H231 H 0.57794 0.91903 0.94447 0.0
C232 C 0.52992 0.00709 0.06199 0.0
C233 C 0.48707 0.04807 0.06634 0.0
C234 C 0.53068 0.98306 0.03618 0.0
C235 C 0.48832 -0.0009 1.01412 0.0
C236 C 0.4459 0.04058 1.01838 0.0
C237 C 0.44542 0.06492 0.04414 0.0
C238 C 0.43137 0.91878 0.94888 0.0
C239 C 0.48347 0.90625 0.93839 0.0
C240 C 0.43286 0.95064 0.97291 0.0
C241 C 0.48657 0.97033 0.98718 0.0
C242 C 0.53854 0.9596 0.97618 0.0
C243 C 0.53697 0.92818 0.95194 0.0
H244 H 0.10083 0.92256 0.11821 0.0
H245 H 0.91282 0.94046 0.09667 0.0
H246 H 0.11517 0.96873 0.07534 0.0
H247 H 0.92734 0.98651 0.05394 0.0
H248 H 0.97649 0.98209 0.96692 0.0
H249 H 0.96232 0.94818 1.01202 0.0
H250 H 0.10156 0.06198 0.04835 0.0
H251 H 0.11617 0.09557 1.00302 0.0
C252 C 0.06263 0.93721 0.10457 0.0
C253 C 1.00566 0.92749 0.11084 0.0
C254 C 0.07088 0.96378 0.08004 0.0
C255 C 1.02235 0.98065 0.06113 0.0
C256 C 0.96557 0.97321 0.06793 0.0
C257 C 0.95732 0.94723 0.09255 0.0
C258 C 1.0043 -0.00032 0.98449 0.0
C259 C 0.04759 0.04138 0.98136 0.0
C260 C 0.99573 0.98075 1.01036 0.0
C261 C 0.03062 0.00263 0.03377 0.0
C262 C 0.0741 0.04421 0.0307 0.0
C263 C 0.08221 0.06369 1.00477 0.0
H264 H 0.68544 0.19676 0.1702 0.0
H265 H 0.55649 0.27176 0.2149 0.0
H266 H 0.75985 0.20573 0.21027 0.0
H267 H 0.6312 0.28192 0.25474 0.0
H268 H 0.75623 0.21696 0.32874 0.0
H269 H 0.68431 0.21733 0.28774 0.0
H270 H 0.81866 0.27254 0.24082 0.0
H271 H 0.89132 0.26989 0.28178 0.0
C272 C 0.67314 0.21603 0.18842 0.0
C273 C 0.61485 0.23313 0.18937 0.0
C274 C 0.71593 0.22138 0.2114 0.0
C275 C 0.70143 0.24406 0.23584 0.0
C276 C 0.64363 0.26323 0.23642 0.0
C277 C 0.60086 0.25778 0.21349 0.0
C278 C 0.77067 0.22876 0.3097 0.0
C279 C 0.82979 0.24309 0.30864 0.0
C280 C 0.72917 0.22976 0.28619 0.0
C281 C 0.74558 0.24518 0.26095 0.0
C282 C 0.80458 0.26001 0.25988 0.0
C283 C 0.84616 0.25906 0.28344 0.0
H284 H 0.74656 0.16094 0.72798 0.0
H285 H 0.70189 0.33921 0.74206 0.0
H286 H 0.82449 0.1651 0.76667 0.0
H287 H 0.77934 0.34298 0.78142 0.0
H288 H 0.97168 0.34001 0.82853 0.0
H289 H 0.88861 0.34112 0.7917 0.0
H290 H 0.83536 0.17145 0.81629 0.0
H291 H 0.9183 0.1699 0.85273 0.0
C292 C 0.75342 0.2011 0.7393 0.0
C293 C 0.71804 0.24978 0.73184 0.0
C294 C 0.79771 0.20329 0.76171 0.0
C295 C 0.80797 0.25429 0.77723 0.0
C296 C 0.77273 0.30314 0.76979 0.0
C297 C 0.72803 0.30081 0.7474 0.0
C298 C 0.94192 0.30321 0.82623 0.0
C299 C 0.95202 0.25467 0.84346 0.0
C300 C 0.8942 0.30395 0.80518 0.0
C301 C 0.85575 0.25609 0.80089 0.0
C302 C 0.86478 0.20854 0.81873 0.0
C303 C 0.91223 0.20784 0.83973 0.0
H304 H 0.1156 0.84743 0.69853 0.0
H305 H 0.09636 0.66253 0.70964 0.0
H306 H 0.19571 0.84942 0.73694 0.0
H307 H 0.17572 0.66478 0.74775 0.0
H308 H 0.26582 0.70329 0.83364 0.0
H309 H 0.18853 0.70689 0.79481 0.0
H310 H 0.30008 0.80977 0.75058 0.0
H311 H 0.37862 0.80519 0.78931 0.0
C312 C 0.12852 0.80727 0.70905 0.0
C313 C 0.09937 0.75488 0.70104 0.0
C314 C 0.17451 0.8084 0.73096 0.0
C315 C 0.19164 0.75734 0.74548 0.0
C316 C 0.16298 0.70498 0.7372 0.0
C317 C 0.11767 0.7037 0.71522 0.0
C318 C 0.2745 0.72628 0.81566 0.0
C319 C 0.32919 0.75325 0.8147 0.0
C320 C 0.2299 0.72848 0.79338 0.0
C321 C 0.2384 0.75814 0.76955 0.0
C322 C 0.29217 0.78681 0.76874 0.0
C323 C 0.33718 0.78419 0.79101 0.0
H324 H 0.49817 0.76679 0.33004 0.0
H325 H 0.36644 0.69544 0.37453 0.0
H326 H 0.4243 0.7771 0.28986 0.0
H327 H 0.29297 0.7044 0.33419 0.0
H328 H 0.16324 0.77155 0.26333 0.0
H329 H 0.2363 0.77182 0.30404 0.0
H330 H 0.36847 0.7157 0.25636 0.0
H331 H 0.29611 0.71791 0.21549 0.0
C332 C 0.45341 0.75353 0.33131 0.0
C333 C 0.43833 0.73014 0.35553 0.0
C334 C 0.4111 0.75903 0.30818 0.0
C335 C 0.35267 0.74119 0.30866 0.0
C336 C 0.33733 0.71919 0.33311 0.0
C337 C 0.37961 0.71379 0.35626 0.0
C338 C 0.20799 0.76003 0.2614 0.0
C339 C 0.22353 0.74465 0.23598 0.0
C340 C 0.24984 0.75955 0.28487 0.0
C341 C 0.30838 0.7437 0.28357 0.0
C342 C 0.32403 0.72883 0.25813 0.0
C343 C 0.28222 0.72934 0.23467 0.0
H344 H 0.21224 0.17435 0.20128 0.0
H345 H 0.37404 0.25884 0.23589 0.0
H346 H 0.16568 0.20768 0.23926 0.0
H347 H 0.32648 0.2946 0.27322 0.0
H348 H 0.24306 0.2799 0.3522 0.0
H349 H 0.29119 0.25814 0.31298 0.0
H350 H 0.12907 0.29195 0.25965 0.0
H351 H 0.08035 0.31219 0.29904 0.0
C352 C 0.23799 0.2001 0.2169 0.0
C353 C 0.29721 0.21345 0.21543 0.0
C354 C 0.2109 0.22005 0.23855 0.0
C355 C 0.24217 0.25408 0.25934 0.0
C356 C 0.30116 0.26805 0.25773 0.0
C357 C 0.32833 0.24796 0.2361 0.0
C358 C 0.21777 0.28347 0.33211 0.0
C359 C 0.15766 0.29735 0.32883 0.0
C360 C 0.24552 0.27119 0.30955 0.0
C361 C 0.21394 0.27267 0.28309 0.0
C362 C 0.15447 0.28923 0.27974 0.0
C363 C 0.12663 0.30137 0.30234 0.0
H364 H 0.46079 0.30415 0.7477 0.0
H365 H 0.29721 0.28461 0.69341 0.0
H366 H 0.4105 0.28067 0.78627 0.0
H367 H 0.24737 0.2594 0.73178 0.0
H368 H 0.16376 0.25269 0.80887 0.0
H369 H 0.21303 0.29103 0.77245 0.0
H370 H 0.36979 0.19609 0.80422 0.0
H371 H 0.32179 0.1603 0.8413 0.0
C372 C 0.41401 0.2953 0.744 0.0
C373 C 0.38316 0.29593 0.71741 0.0
C374 C 0.38523 0.28132 0.76611 0.0
C375 C 0.32493 0.26734 0.76218 0.0
C376 C 0.29366 0.27036 0.73569 0.0
C377 C 0.32238 0.28463 0.7136 0.0
C378 C 0.20896 0.24055 0.80836 0.0
C379 C 0.23851 0.20309 0.82816 0.0
C380 C 0.2371 0.26214 0.78725 0.0
C381 C 0.2955 0.24676 0.78531 0.0
C382 C 0.32513 0.20967 0.80521 0.0
C383 C 0.29713 0.18829 0.82634 0.0
H384 H 0.7506 0.77654 0.85362 0.0
H385 H 0.59031 0.81641 0.80013 0.0
H386 H 0.79879 0.75416 0.81448 0.0
H387 H 0.63916 0.79595 0.76084 0.0
H388 H 0.71725 0.67899 0.70126 0.0
H389 H 0.67199 0.71259 0.73943 0.0
H390 H 0.83716 0.78858 0.77543 0.0
H391 H 0.8835 0.75202 0.73787 0.0
C392 C 0.72592 0.78169 0.83348 0.0
C393 C 0.66638 0.79779 0.83006 0.0
C394 C 0.75372 0.76905 0.81095 0.0
C395 C 0.72281 0.77259 0.7844 0.0
C396 C 0.66402 0.79146 0.78097 0.0
C397 C 0.63609 0.8037 0.80352 0.0
C398 C 0.74434 0.70229 0.71735 0.0
C399 C 0.80443 0.71216 0.71637 0.0
C400 C 0.71796 0.72251 0.73915 0.0
C401 C 0.75072 0.75361 0.76058 0.0
C402 C 0.81061 0.76428 0.75947 0.0
C403 C 0.83713 0.74375 0.73769 0.0
H404 H 0.81336 0.82496 0.20354 0.0
H405 H 0.97978 0.77011 0.24762 0.0
H406 H 0.76605 0.80532 0.24343 0.0
H407 H 0.93239 0.74698 0.28686 0.0
H408 H 0.84253 0.74411 0.3613 0.0
H409 H 0.88905 0.77789 0.32313 0.0
H410 H 0.73314 0.7296 0.2679 0.0
H411 H 0.686 0.69913 0.30653 0.0
C412 C 0.83984 0.80883 0.22181 0.0
C413 C 0.90027 0.79919 0.22244 0.0
C414 C 0.81263 0.79689 0.24465 0.0
C415 C 0.84498 0.7738 0.26851 0.0
C416 C 0.90586 0.76557 0.2692 0.0
C417 C 0.9332 0.77865 0.24657 0.0
C418 C 0.81844 0.74079 0.34094 0.0
C419 C 0.76086 0.71875 0.33679 0.0
C420 C 0.8451 0.75995 0.31897 0.0
C421 C 0.81528 0.75638 0.29216 0.0
C422 C 0.75737 0.73431 0.28815 0.0
C423 C 0.73033 0.71632 0.31023 0.0
H424 H 0.33476 0.28084 0.59006 0.0
H425 H 0.39352 0.1084 0.57351 0.0
H426 H 0.26467 0.27809 0.54851 0.0
H427 H 0.32318 0.10565 0.53153 0.0
H428 H 0.14815 0.1059 0.4714 0.0
H429 H 0.21773 0.10325 0.51365 0.0
H430 H 0.26752 0.28087 0.50021 0.0
H431 H 0.1983 0.28349 0.45842 0.0
C432 C 0.33311 0.24249 0.5774 0.0
C433 C 0.37028 0.19512 0.58493 0.0
C434 C 0.29284 0.24088 0.55355 0.0
C435 C 0.28876 0.19192 0.53651 0.0
C436 C 0.32493 0.14387 0.54431 0.0
C437 C 0.36526 0.14544 0.56832 0.0
C438 C 0.17428 0.14415 0.47745 0.0
C439 C 0.16711 0.19511 0.46173 0.0
C440 C 0.21416 0.14265 0.50161 0.0
C441 C 0.24771 0.19207 0.51046 0.0
C442 C 0.24135 0.24249 0.49437 0.0
C443 C 0.20155 0.24402 0.47037 0.0
H444 H 0.79366 0.84864 0.60674 0.0
H445 H 0.93384 0.77925 0.56726 0.0
H446 H 0.73706 0.8695 0.56239 0.0
H447 H 0.87699 0.79944 0.52307 0.0
H448 H 0.77166 0.85242 0.44502 0.0
H449 H 0.82964 0.8692 0.48952 0.0
H450 H 0.68701 0.80225 0.52834 0.0
H451 H 0.62891 0.78613 0.48404 0.0
C452 C 0.81306 0.83906 0.58865 0.0
C453 C 0.86798 0.81146 0.59058 0.0
C454 C 0.7804 0.85073 0.56323 0.0
C455 C 0.8021 0.83541 0.53919 0.0
C456 C 0.85904 0.81218 0.54115 0.0
C457 C 0.89161 0.80032 0.56655 0.0
C458 C 0.75205 0.84269 0.46305 0.0
C459 C 0.69586 0.81725 0.46094 0.0
C460 C 0.78549 0.852 0.48856 0.0
C461 C 0.76328 0.83646 0.51248 0.0
C462 C 0.70538 0.81518 0.51036 0.0
C463 C 0.67208 0.80563 0.4849 0.0
H464 H 0.87822 0.60517 0.08312 0.0
H465 H 0.87071 0.79266 0.08165 0.0
H466 H 0.80608 0.6016 0.04188 0.0
H467 H 0.80091 0.78907 0.04011 0.0
H468 H 0.62961 0.76344 0.9838 0.0
H469 H 0.69935 0.76223 0.02562 0.0
H470 H 0.79529 0.62416 0.99326 0.0
H471 H 0.72529 0.62533 0.95136 0.0
C472 C 0.86141 0.64557 0.07402 0.0
C473 C 0.8805 0.69914 0.0858 0.0
C474 C 0.82045 0.64355 0.05024 0.0
C475 C 0.79749 0.69505 0.03775 0.0
C476 C 0.81701 0.74853 0.0494 0.0
C477 C 0.85786 0.75057 0.07309 0.0
C478 C 0.66565 0.73296 0.98553 0.0
C479 C 0.672 0.69479 0.96409 0.0
C480 C 0.70572 0.73228 1.00952 0.0
C481 C 0.75326 0.69345 1.01271 0.0
C482 C 0.75886 0.65425 0.99157 0.0
C483 C 0.71867 0.6549 0.96754 0.0
H484 H 0.41814 0.27971 0.06394 0.0
H485 H 0.27319 0.34485 0.10141 0.0
H486 H 0.36234 0.29615 1.01927 0.0
H487 H 0.21759 0.36242 0.05648 0.0
H488 H 0.11572 0.27314 0.97838 0.0
H489 H 0.17087 0.29425 1.02278 0.0
H490 H 0.31444 0.3611 0.98453 0.0
H491 H 0.25957 0.33883 0.93992 0.0
C492 C 0.37497 0.29906 0.06267 0.0
C493 C 0.3498 0.31006 0.08629 0.0
C494 C 0.343 0.30887 0.03697 0.0
C495 C 0.28514 0.33 0.03426 0.0
C496 C 0.2617 0.34521 0.05788 0.0
C497 C 0.29373 0.33543 0.08364 0.0
C498 C 0.15845 0.29364 0.97934 0.0
C499 C 0.18361 0.30333 0.95558 0.0
C500 C 0.19004 0.3061 1.00488 0.0
C501 C 0.24747 0.32868 1.00725 0.0
C502 C 0.27071 0.34276 0.9834 0.0
C503 C 0.23908 0.33029 0.95782 0.0
loop_
_geom_bond_atom_site_label_1
_geom_bond_atom_site_label_2
_geom_bond_distance
_geom_bond_site_symmetry_2
_ccdc_geom_bond_type
Cu0 N1 1.999 . S
Cu0 O6 1.974 1_455 S
Cu0 N11 1.985 1_455 S
Cu0 O20 1.959 . S
N1 Cu0 1.999 . S
N1 C3 1.263 . S
N1 C5 1.389 . S
N2 C3 1.358 . S
N2 C4 1.400 . S
C3 N1 1.263 . S
C3 N2 1.358 . S
C3 H9 0.930 . S
C4 N2 1.400 . S
C4 C5 1.351 . S
C4 H21 0.930 . S
C5 N1 1.389 . S
C5 C4 1.351 . S
C5 H10 0.930 . S
O6 Cu0 1.974 1_655 S
O6 C16 1.282 . S
C7 O8 1.261 . S
C7 O20 1.251 . S
O8 C7 1.261 . S
H9 C3 0.930 . S
H10 C5 0.930 . S
N11 Cu0 1.985 1_655 S
N11 C13 1.335 . S
N11 C14 1.390 . S
N12 C13 1.345 . S
N12 C15 1.336 . S
C13 N11 1.335 . S
C13 N12 1.345 . S
C13 H18 0.930 . S
C14 N11 1.390 . S
C14 C15 1.346 . S
C14 H19 0.930 . S
C15 N12 1.336 . S
C15 C14 1.346 . S
C15 H22 0.929 . S
C16 O6 1.282 . S
C16 O17 1.216 . S
O17 C16 1.216 . S
H18 C13 0.930 . S
H19 C14 0.930 . S
O20 Cu0 1.959 . S
O20 C7 1.251 . S
H21 C4 0.930 . S
H22 C15 0.929 . S
Cu23 N24 1.999 . S
Cu23 O29 1.974 . S
Cu23 N34 1.985 . S
Cu23 O43 1.959 . S
N24 Cu23 1.999 . S
N24 C26 1.263 . S
N24 C28 1.389 . S
N25 C26 1.358 . S
N25 C27 1.400 . S
C26 N24 1.263 . S
C26 N25 1.358 . S
C26 H32 0.930 . S
C27 N25 1.400 . S
C27 C28 1.351 . S
C27 H44 0.930 . S
C28 N24 1.389 . S
C28 C27 1.351 . S
C28 H33 0.930 . S
O29 Cu23 1.974 . S
O29 C39 1.282 . S
C30 O31 1.261 . S
C30 O43 1.251 . S
O31 C30 1.261 . S
H32 C26 0.930 . S
H33 C28 0.930 . S
N34 Cu23 1.985 . S
N34 C36 1.335 . S
N34 C37 1.390 . S
N35 C36 1.345 . S
N35 C38 1.336 . S
C36 N34 1.335 . S
C36 N35 1.345 . S
C36 H41 0.930 . S
C37 N34 1.390 . S
C37 C38 1.346 . S
C37 H42 0.930 . S
C38 N35 1.336 . S
C38 C37 1.346 . S
C38 H45 0.929 . S
C39 O29 1.282 . S
C39 O40 1.216 . S
O40 C39 1.216 . S
H41 C36 0.930 . S
H42 C37 0.930 . S
O43 Cu23 1.959 . S
O43 C30 1.251 . S
H44 C27 0.930 . S
H45 C38 0.929 . S
Cu46 N47 1.999 . S
Cu46 O52 1.974 . S
Cu46 N57 1.985 . S
Cu46 O66 1.959 . S
N47 Cu46 1.999 . S
N47 C49 1.263 . S
N47 C51 1.389 . S
N48 C49 1.358 . S
N48 C50 1.400 . S
C49 N47 1.263 . S
C49 N48 1.358 . S
C49 H55 0.930 . S
C50 N48 1.400 . S
C50 C51 1.351 . S
C50 H67 0.930 . S
C51 N47 1.389 . S
C51 C50 1.351 . S
C51 H56 0.930 . S
O52 Cu46 1.974 . S
O52 C62 1.282 1_655 S
C53 O54 1.261 . S
C53 O66 1.251 . S
O54 C53 1.261 . S
H55 C49 0.930 . S
H56 C51 0.930 . S
N57 Cu46 1.985 . S
N57 C59 1.335 . S
N57 C60 1.390 1_655 S
N58 C59 1.345 . S
N58 C61 1.336 1_655 S
C59 N57 1.335 . S
C59 N58 1.345 . S
C59 H64 0.930 . S
C60 N57 1.390 1_455 S
C60 C61 1.346 . S
C60 H65 0.930 . S
C61 N58 1.336 1_455 S
C61 C60 1.346 . S
C61 H68 0.929 . S
C62 O52 1.282 1_455 S
C62 O63 1.216 . S
O63 C62 1.216 . S
H64 C59 0.930 . S
H65 C60 0.930 . S
O66 Cu46 1.959 . S
O66 C53 1.251 . S
H67 C50 0.930 . S
H68 C61 0.929 . S
Cu69 N70 1.999 . S
Cu69 O75 1.974 . S
Cu69 N80 1.985 . S
Cu69 O89 1.959 . S
N70 Cu69 1.999 . S
N70 C72 1.263 . S
N70 C74 1.389 . S
N71 C72 1.358 . S
N71 C73 1.400 . S
C72 N70 1.263 . S
C72 N71 1.358 . S
C72 H78 0.930 . S
C73 N71 1.400 . S
C73 C74 1.351 . S
C73 H90 0.930 . S
C74 N70 1.389 . S
C74 C73 1.351 . S
C74 H79 0.930 . S
O75 Cu69 1.974 . S
O75 C85 1.282 . S
C76 O77 1.261 . S
C76 O89 1.251 . S
O77 C76 1.261 . S
H78 C72 0.930 . S
H79 C74 0.930 . S
N80 Cu69 1.985 . S
N80 C82 1.335 . S
N80 C83 1.390 . S
N81 C82 1.345 . S
N81 C84 1.336 . S
C82 N80 1.335 . S
C82 N81 1.345 . S
C82 H87 0.930 . S
C83 N80 1.390 . S
C83 C84 1.346 . S
C83 H88 0.930 . S
C84 N81 1.336 . S
C84 C83 1.346 . S
C84 H91 0.929 . S
C85 O75 1.282 . S
C85 O86 1.216 . S
O86 C85 1.216 . S
H87 C82 0.930 . S
H88 C83 0.930 . S
O89 Cu69 1.959 . S
O89 C76 1.251 . S
H90 C73 0.930 . S
H91 C84 0.929 . S
Cu92 N93 1.999 . S
Cu92 O98 1.974 . S
Cu92 N103 1.985 . S
Cu92 O112 1.959 . S
N93 Cu92 1.999 . S
N93 C95 1.263 . S
N93 C97 1.389 . S
N94 C95 1.358 . S
N94 C96 1.400 . S
C95 N93 1.263 . S
C95 N94 1.358 . S
C95 H101 0.930 . S
C96 N94 1.400 . S
C96 C97 1.351 . S
C96 H113 0.930 . S
C97 N93 1.389 . S
C97 C96 1.351 . S
C97 H102 0.930 . S
O98 Cu92 1.974 . S
O98 C108 1.282 . S
C99 O100 1.261 . S
C99 O112 1.251 . S
O100 C99 1.261 . S
H101 C95 0.930 . S
H102 C97 0.930 . S
N103 Cu92 1.985 . S
N103 C105 1.335 . S
N103 C106 1.390 . S
N104 C105 1.345 . S
N104 C107 1.336 . S
C105 N103 1.335 . S
C105 N104 1.345 . S
C105 H110 0.930 . S
C106 N103 1.390 . S
C106 C107 1.346 . S
C106 H111 0.930 . S
C107 N104 1.336 . S
C107 C106 1.346 . S
C107 H114 0.929 . S
C108 O98 1.282 . S
C108 O109 1.216 . S
O109 C108 1.216 . S
H110 C105 0.930 . S
H111 C106 0.930 . S
O112 Cu92 1.959 . S
O112 C99 1.251 . S
H113 C96 0.930 . S
H114 C107 0.929 . S
Cu115 N116 1.999 . S
Cu115 O121 1.974 1_655 S
Cu115 N126 1.985 1_655 S
Cu115 O135 1.959 . S
N116 Cu115 1.999 . S
N116 C118 1.263 . S
N116 C120 1.389 . S
N117 C118 1.358 . S
N117 C119 1.400 . S
C118 N116 1.263 . S
C118 N117 1.358 . S
C118 H124 0.930 . S
C119 N117 1.400 . S
C119 C120 1.351 . S
C119 H136 0.930 . S
C120 N116 1.389 . S
C120 C119 1.351 . S
C120 H125 0.930 . S
O121 Cu115 1.974 1_455 S
O121 C131 1.282 . S
C122 O123 1.261 . S
C122 O135 1.251 . S
O123 C122 1.261 . S
H124 C118 0.930 . S
H125 C120 0.930 . S
N126 Cu115 1.985 1_455 S
N126 C128 1.335 . S
N126 C129 1.390 . S
N127 C128 1.345 . S
N127 C130 1.336 . S
C128 N126 1.335 . S
C128 N127 1.345 . S
C128 H133 0.930 . S
C129 N126 1.390 . S
C129 C130 1.346 . S
C129 H134 0.930 . S
C130 N127 1.336 . S
C130 C129 1.346 . S
C130 H137 0.929 . S
C131 O121 1.282 . S
C131 O132 1.216 . S
O132 C131 1.216 . S
H133 C128 0.930 . S
H134 C129 0.930 . S
O135 Cu115 1.959 . S
O135 C122 1.251 . S
H136 C119 0.930 . S
H137 C130 0.929 . S
Cu138 N139 1.999 . S
Cu138 O144 1.974 . S
Cu138 N149 1.985 . S
Cu138 O158 1.959 . S
N139 Cu138 1.999 . S
N139 C141 1.263 . S
N139 C143 1.389 . S
N140 C141 1.358 . S
N140 C142 1.400 . S
C141 N139 1.263 . S
C141 N140 1.358 . S
C141 H147 0.930 . S
C142 N140 1.400 . S
C142 C143 1.351 . S
C142 H159 0.930 . S
C143 N139 1.389 . S
C143 C142 1.351 . S
C143 H148 0.930 . S
O144 Cu138 1.974 . S
O144 C154 1.282 . S
C145 O146 1.261 . S
C145 O158 1.251 . S
O146 C145 1.261 . S
H147 C141 0.930 . S
H148 C143 0.930 . S
N149 Cu138 1.985 . S
N149 C151 1.335 . S
N149 C152 1.390 . S
N150 C151 1.345 . S
N150 C153 1.336 . S
C151 N149 1.335 . S
C151 N150 1.345 . S
C151 H156 0.930 . S
C152 N149 1.390 . S
C152 C153 1.346 . S
C152 H157 0.930 . S
C153 N150 1.336 . S
C153 C152 1.346 . S
C153 H160 0.929 . S
C154 O144 1.282 . S
C154 O155 1.216 . S
O155 C154 1.216 . S
H156 C151 0.930 . S
H157 C152 0.930 . S
O158 Cu138 1.959 . S
O158 C145 1.251 . S
H159 C142 0.930 . S
H160 C153 0.929 . S
Cu161 N162 1.999 . S
Cu161 O167 1.974 . S
Cu161 N172 1.985 . S
Cu161 O181 1.959 . S
N162 Cu161 1.999 . S
N162 C164 1.263 . S
N162 C166 1.389 . S
N163 C164 1.358 . S
N163 C165 1.400 . S
C164 N162 1.263 . S
C164 N163 1.358 . S
C164 H170 0.930 . S
C165 N163 1.400 . S
C165 C166 1.351 . S
C165 H182 0.930 . S
C166 N162 1.389 . S
C166 C165 1.351 . S
C166 H171 0.930 . S
O167 Cu161 1.974 . S
O167 C177 1.282 1_455 S
C168 O169 1.261 . S
C168 O181 1.251 . S
O169 C168 1.261 . S
H170 C164 0.930 . S
H171 C166 0.930 . S
N172 Cu161 1.985 . S
N172 C174 1.335 . S
N172 C175 1.390 1_455 S
N173 C174 1.345 . S
N173 C176 1.336 1_455 S
C174 N172 1.335 . S
C174 N173 1.345 . S
C174 H179 0.930 . S
C175 N172 1.390 1_655 S
C175 C176 1.346 . S
C175 H180 0.930 . S
C176 N173 1.336 1_655 S
C176 C175 1.346 . S
C176 H183 0.929 . S
C177 O167 1.282 1_655 S
C177 O178 1.216 . S
O178 C177 1.216 . S
H179 C174 0.930 . S
H180 C175 0.930 . S
O181 Cu161 1.959 . S
O181 C168 1.251 . S
H182 C165 0.930 . S
H183 C176 0.929 . S
H184 C192 0.950 . S
H185 C197 0.950 . S
H186 C194 0.950 . S
H187 C196 0.950 . S
H188 C198 0.950 . S
H189 C200 0.950 . S
H190 C202 0.950 . S
H191 C203 0.950 . S
C192 H184 0.950 . S
C192 C193 1.386 1_455 S
C192 C194 1.391 . S
C193 C192 1.386 1_655 S
C193 C197 1.393 . S
C194 H186 0.950 . S
C194 C192 1.391 . S
C194 C195 1.400 1_455 S
C195 C194 1.400 1_655 S
C195 C196 1.398 . S
C195 C201 1.491 . S
C196 H187 0.950 . S
C196 C195 1.398 . S
C196 C197 1.391 . S
C197 H185 0.950 . S
C197 C193 1.393 . S
C197 C196 1.391 . S
C198 H188 0.950 . S
C198 C199 1.386 . S
C198 C200 1.391 . S
C199 C198 1.386 . S
C199 C203 1.393 1_655 S
C200 H189 0.950 . S
C200 C198 1.391 . S
C200 C201 1.400 . S
C201 C195 1.491 . S
C201 C200 1.400 . S
C201 C202 1.398 1_655 S
C202 H190 0.950 . S
C202 C201 1.398 1_455 S
C202 C203 1.391 . S
C203 H191 0.950 . S
C203 C199 1.393 1_455 S
C203 C202 1.391 . S
H204 C212 0.950 . S
H205 C217 0.950 . S
H206 C214 0.950 . S
H207 C216 0.950 . S
H208 C218 0.950 . S
H209 C220 0.950 . S
H210 C222 0.950 . S
H211 C223 0.950 . S
C212 H204 0.950 . S
C212 C213 1.386 . S
C212 C214 1.391 . S
C213 C212 1.386 . S
C213 C217 1.393 . S
C214 H206 0.950 . S
C214 C212 1.391 . S
C214 C215 1.400 . S
C215 C214 1.400 . S
C215 C216 1.398 . S
C215 C221 1.491 . S
C216 H207 0.950 . S
C216 C215 1.398 . S
C216 C217 1.391 . S
C217 H205 0.950 . S
C217 C213 1.393 . S
C217 C216 1.391 . S
C218 H208 0.950 . S
C218 C219 1.386 . S
C218 C220 1.391 . S
C219 C218 1.386 . S
C219 C223 1.393 . S
C220 H209 0.950 . S
C220 C218 1.391 . S
C220 C221 1.400 . S
C221 C215 1.491 . S
C221 C220 1.400 . S
C221 C222 1.398 . S
C222 H210 0.950 . S
C222 C221 1.398 . S
C222 C223 1.391 . S
C223 H211 0.950 . S
C223 C219 1.393 . S
C223 C222 1.391 . S
H224 C232 0.950 . S
H225 C237 0.950 . S
H226 C234 0.950 1_565 S
H227 C236 0.950 . S
H228 C238 0.950 . S
H229 C240 0.950 . S
H230 C242 0.950 . S
H231 C243 0.950 . S
C232 H224 0.950 . S
C232 C233 1.386 . S
C232 C234 1.391 . S
C233 C232 1.386 . S
C233 C237 1.393 . S
C234 H226 0.950 1_545 S
C234 C232 1.391 . S
C234 C235 1.400 1_554 S
C235 C234 1.400 1_556 S
C235 C236 1.398 . S
C235 C241 1.491 1_545 S
C236 H227 0.950 . S
C236 C235 1.398 . S
C236 C237 1.391 1_556 S
C237 H225 0.950 . S
C237 C233 1.393 . S
C237 C236 1.391 1_554 S
C238 H228 0.950 . S
C238 C239 1.386 . S
C238 C240 1.391 . S
C239 C238 1.386 . S
C239 C243 1.393 . S
C240 H229 0.950 . S
C240 C238 1.391 . S
C240 C241 1.400 . S
C241 C235 1.491 1_565 S
C241 C240 1.400 . S
C241 C242 1.398 . S
C242 H230 0.950 . S
C242 C241 1.398 . S
C242 C243 1.391 . S
C243 H231 0.950 . S
C243 C239 1.393 . S
C243 C242 1.391 . S
H244 C252 0.950 . S
H245 C257 0.955 . S
H246 C254 0.950 . S
H247 C256 0.950 1_545 S
H248 C258 0.950 . S
H249 C260 0.950 . S
H250 C262 0.950 1_565 S
H251 C263 0.950 . S
C252 H244 0.950 . S
C252 C253 1.386 . S
C252 C254 1.391 . S
C253 C252 1.386 . S
C253 C257 1.388 1_455 S
C254 H246 0.950 . S
C254 C252 1.391 . S
C254 C255 1.400 . S
C255 C254 1.400 . S
C255 C256 1.398 1_455 S
C255 C261 1.491 1_565 S
C256 H247 0.950 1_565 S
C256 C255 1.398 1_655 S
C256 C257 1.390 . S
C257 H245 0.955 . S
C257 C253 1.388 1_655 S
C257 C256 1.390 . S
C258 H248 0.950 . S
C258 C259 1.386 1_655 S
C258 C260 1.391 1_556 S
C259 C258 1.386 1_455 S
C259 C263 1.393 . S
C260 H249 0.950 . S
C260 C258 1.391 1_554 S
C260 C261 1.400 1_655 S
C261 C255 1.491 1_545 S
C261 C260 1.400 1_455 S
C261 C262 1.398 1_554 S
C262 H250 0.950 1_545 S
C262 C261 1.398 1_556 S
C262 C263 1.391 . S
C263 H251 0.950 . S
C263 C259 1.393 . S
C263 C262 1.391 . S
H264 C272 0.950 . S
H265 C277 0.950 . S
H266 C274 0.950 . S
H267 C276 0.950 . S
H268 C278 0.950 . S
H269 C280 0.950 . S
H270 C282 0.950 . S
H271 C283 0.950 . S
C272 H264 0.950 . S
C272 C273 1.386 . S
C272 C274 1.391 . S
C273 C272 1.386 . S
C273 C277 1.393 . S
C274 H266 0.950 . S
C274 C272 1.391 . S
C274 C275 1.400 . S
C275 C274 1.400 . S
C275 C276 1.398 . S
C275 C281 1.491 . S
C276 H267 0.950 . S
C276 C275 1.398 . S
C276 C277 1.391 . S
C277 H265 0.950 . S
C277 C273 1.393 . S
C277 C276 1.391 . S
C278 H268 0.950 . S
C278 C279 1.386 . S
C278 C280 1.391 . S
C279 C278 1.386 . S
C279 C283 1.393 . S
C280 H269 0.950 . S
C280 C278 1.391 . S
C280 C281 1.400 . S
C281 C275 1.491 . S
C281 C280 1.400 . S
C281 C282 1.398 . S
C282 H270 0.950 . S
C282 C281 1.398 . S
C282 C283 1.391 . S
C283 H271 0.950 . S
C283 C279 1.393 . S
C283 C282 1.391 . S
H284 C292 0.950 . S
H285 C297 0.950 . S
H286 C294 0.950 . S
H287 C296 0.950 . S
H288 C298 0.950 . S
H289 C300 0.950 . S
H290 C302 0.950 . S
H291 C303 0.950 . S
C292 H284 0.950 . S
C292 C293 1.386 . S
C292 C294 1.391 . S
C293 C292 1.386 . S
C293 C297 1.393 . S
C294 H286 0.950 . S
C294 C292 1.391 . S
C294 C295 1.400 . S
C295 C294 1.400 . S
C295 C296 1.398 . S
C295 C301 1.491 . S
C296 H287 0.950 . S
C296 C295 1.398 . S
C296 C297 1.391 . S
C297 H285 0.950 . S
C297 C293 1.393 . S
C297 C296 1.391 . S
C298 H288 0.950 . S
C298 C299 1.386 . S
C298 C300 1.391 . S
C299 C298 1.386 . S
C299 C303 1.393 . S
C300 H289 0.950 . S
C300 C298 1.391 . S
C300 C301 1.400 . S
C301 C295 1.491 . S
C301 C300 1.400 . S
C301 C302 1.398 . S
C302 H290 0.950 . S
C302 C301 1.398 . S
C302 C303 1.391 . S
C303 H291 0.950 . S
C303 C299 1.393 . S
C303 C302 1.391 . S
H304 C312 0.950 . S
H305 C317 0.950 . S
H306 C314 0.950 . S
H307 C316 0.950 . S
H308 C318 0.950 . S
H309 C320 0.950 . S
H310 C322 0.950 . S
H311 C323 0.950 . S
C312 H304 0.950 . S
C312 C313 1.386 . S
C312 C314 1.391 . S
C313 C312 1.386 . S
C313 C317 1.393 . S
C314 H306 0.950 . S
C314 C312 1.391 . S
C314 C315 1.400 . S
C315 C314 1.400 . S
C315 C316 1.398 . S
C315 C321 1.491 . S
C316 H307 0.950 . S
C316 C315 1.398 . S
C316 C317 1.391 . S
C317 H305 0.950 . S
C317 C313 1.393 . S
C317 C316 1.391 . S
C318 H308 0.950 . S
C318 C319 1.386 . S
C318 C320 1.391 . S
C319 C318 1.386 . S
C319 C323 1.393 . S
C320 H309 0.950 . S
C320 C318 1.391 . S
C320 C321 1.400 . S
C321 C315 1.491 . S
C321 C320 1.400 . S
C321 C322 1.398 . S
C322 H310 0.950 . S
C322 C321 1.398 . S
C322 C323 1.391 . S
C323 H311 0.950 . S
C323 C319 1.393 . S
C323 C322 1.391 . S
H324 C332 0.950 . S
H325 C337 0.950 . S
H326 C334 0.950 . S
H327 C336 0.950 . S
H328 C338 0.950 . S
H329 C340 0.950 . S
H330 C342 0.950 . S
H331 C343 0.950 . S
C332 H324 0.950 . S
C332 C333 1.386 . S
C332 C334 1.391 . S
C333 C332 1.386 . S
C333 C337 1.393 . S
C334 H326 0.950 . S
C334 C332 1.391 . S
C334 C335 1.400 . S
C335 C334 1.400 . S
C335 C336 1.398 . S
C335 C341 1.491 . S
C336 H327 0.950 . S
C336 C335 1.398 . S
C336 C337 1.391 . S
C337 H325 0.950 . S
C337 C333 1.393 . S
C337 C336 1.391 . S
C338 H328 0.950 . S
C338 C339 1.386 . S
C338 C340 1.391 . S
C339 C338 1.386 . S
C339 C343 1.393 . S
C340 H329 0.950 . S
C340 C338 1.391 . S
C340 C341 1.400 . S
C341 C335 1.491 . S
C341 C340 1.400 . S
C341 C342 1.398 . S
C342 H330 0.950 . S
C342 C341 1.398 . S
C342 C343 1.391 . S
C343 H331 0.950 . S
C343 C339 1.393 . S
C343 C342 1.391 . S
H344 C352 0.950 . S
H345 C357 0.950 . S
H346 C354 0.950 . S
H347 C356 0.950 . S
H348 C358 0.950 . S
H349 C360 0.950 . S
H350 C362 0.950 . S
H351 C363 0.950 . S
C352 H344 0.950 . S
C352 C353 1.386 . S
C352 C354 1.391 . S
C353 C352 1.386 . S
C353 C357 1.393 . S
C354 H346 0.950 . S
C354 C352 1.391 . S
C354 C355 1.400 . S
C355 C354 1.400 . S
C355 C356 1.398 . S
C355 C361 1.491 . S
C356 H347 0.950 . S
C356 C355 1.398 . S
C356 C357 1.391 . S
C357 H345 0.950 . S
C357 C353 1.393 . S
C357 C356 1.391 . S
C358 H348 0.950 . S
C358 C359 1.386 . S
C358 C360 1.391 . S
C359 C358 1.386 . S
C359 C363 1.393 . S
C360 H349 0.950 . S
C360 C358 1.391 . S
C360 C361 1.400 . S
C361 C355 1.491 . S
C361 C360 1.400 . S
C361 C362 1.398 . S
C362 H350 0.950 . S
C362 C361 1.398 . S
C362 C363 1.391 . S
C363 H351 0.950 . S
C363 C359 1.393 . S
C363 C362 1.391 . S
H364 C372 0.950 . S
H365 C377 0.950 . S
H366 C374 0.950 . S
H367 C376 0.950 . S
H368 C378 0.950 . S
H369 C380 0.950 . S
H370 C382 0.950 . S
H371 C383 0.950 . S
C372 H364 0.950 . S
C372 C373 1.386 . S
C372 C374 1.391 . S
C373 C372 1.386 . S
C373 C377 1.393 . S
C374 H366 0.950 . S
C374 C372 1.391 . S
C374 C375 1.400 . S
C375 C374 1.400 . S
C375 C376 1.398 . S
C375 C381 1.491 . S
C376 H367 0.950 . S
C376 C375 1.398 . S
C376 C377 1.391 . S
C377 H365 0.950 . S
C377 C373 1.393 . S
C377 C376 1.391 . S
C378 H368 0.950 . S
C378 C379 1.386 . S
C378 C380 1.391 . S
C379 C378 1.386 . S
C379 C383 1.393 . S
C380 H369 0.950 . S
C380 C378 1.391 . S
C380 C381 1.400 . S
C381 C375 1.491 . S
C381 C380 1.400 . S
C381 C382 1.398 . S
C382 H370 0.950 . S
C382 C381 1.398 . S
C382 C383 1.391 . S
C383 H371 0.950 . S
C383 C379 1.393 . S
C383 C382 1.391 . S
H384 C392 0.950 . S
H385 C397 0.950 . S
H386 C394 0.950 . S
H387 C396 0.950 . S
H388 C398 0.950 . S
H389 C400 0.950 . S
H390 C402 0.950 . S
H391 C403 0.950 . S
C392 H384 0.950 . S
C392 C393 1.386 . S
C392 C394 1.391 . S
C393 C392 1.386 . S
C393 C397 1.393 . S
C394 H386 0.950 . S
C394 C392 1.391 . S
C394 C395 1.400 . S
C395 C394 1.400 . S
C395 C396 1.398 . S
C395 C401 1.491 . S
C396 H387 0.950 . S
C396 C395 1.398 . S
C396 C397 1.391 . S
C397 H385 0.950 . S
C397 C393 1.393 . S
C397 C396 1.391 . S
C398 H388 0.950 . S
C398 C399 1.386 . S
C398 C400 1.391 . S
C399 C398 1.386 . S
C399 C403 1.393 . S
C400 H389 0.950 . S
C400 C398 1.391 . S
C400 C401 1.400 . S
C401 C395 1.491 . S
C401 C400 1.400 . S
C401 C402 1.398 . S
C402 H390 0.950 . S
C402 C401 1.398 . S
C402 C403 1.391 . S
C403 H391 0.950 . S
C403 C399 1.393 . S
C403 C402 1.391 . S
H404 C412 0.950 . S
H405 C417 0.950 . S
H406 C414 0.950 . S
H407 C416 0.950 . S
H408 C418 0.950 . S
H409 C420 0.950 . S
H410 C422 0.950 . S
H411 C423 0.950 . S
C412 H404 0.950 . S
C412 C413 1.386 . S
C412 C414 1.391 . S
C413 C412 1.386 . S
C413 C417 1.393 . S
C414 H406 0.950 . S
C414 C412 1.391 . S
C414 C415 1.400 . S
C415 C414 1.400 . S
C415 C416 1.398 . S
C415 C421 1.491 . S
C416 H407 0.950 . S
C416 C415 1.398 . S
C416 C417 1.391 . S
C417 H405 0.950 . S
C417 C413 1.393 . S
C417 C416 1.391 . S
C418 H408 0.950 . S
C418 C419 1.386 . S
C418 C420 1.391 . S
C419 C418 1.386 . S
C419 C423 1.393 . S
C420 H409 0.950 . S
C420 C418 1.391 . S
C420 C421 1.400 . S
C421 C415 1.491 . S
C421 C420 1.400 . S
C421 C422 1.398 . S
C422 H410 0.950 . S
C422 C421 1.398 . S
C422 C423 1.391 . S
C423 H411 0.950 . S
C423 C419 1.393 . S
C423 C422 1.391 . S
H424 C432 0.950 . S
H425 C437 0.950 . S
H426 C434 0.950 . S
H427 C436 0.950 . S
H428 C438 0.950 . S
H429 C440 0.950 . S
H430 C442 0.950 . S
H431 C443 0.950 . S
C432 H424 0.950 . S
C432 C433 1.386 . S
C432 C434 1.391 . S
C433 C432 1.386 . S
C433 C437 1.393 . S
C434 H426 0.950 . S
C434 C432 1.391 . S
C434 C435 1.400 . S
C435 C434 1.400 . S
C435 C436 1.398 . S
C435 C441 1.491 . S
C436 H427 0.950 . S
C436 C435 1.398 . S
C436 C437 1.391 . S
C437 H425 0.950 . S
C437 C433 1.393 . S
C437 C436 1.391 . S
C438 H428 0.950 . S
C438 C439 1.386 . S
C438 C440 1.391 . S
C439 C438 1.386 . S
C439 C443 1.393 . S
C440 H429 0.950 . S
C440 C438 1.391 . S
C440 C441 1.400 . S
C441 C435 1.491 . S
C441 C440 1.400 . S
C441 C442 1.398 . S
C442 H430 0.950 . S
C442 C441 1.398 . S
C442 C443 1.391 . S
C443 H431 0.950 . S
C443 C439 1.393 . S
C443 C442 1.391 . S
H444 C452 0.950 . S
H445 C457 0.950 . S
H446 C454 0.950 . S
H447 C456 0.950 . S
H448 C458 0.950 . S
H449 C460 0.950 . S
H450 C462 0.950 . S
H451 C463 0.950 . S
C452 H444 0.950 . S
C452 C453 1.386 . S
C452 C454 1.391 . S
C453 C452 1.386 . S
C453 C457 1.393 . S
C454 H446 0.950 . S
C454 C452 1.391 . S
C454 C455 1.400 . S
C455 C454 1.400 . S
C455 C456 1.398 . S
C455 C461 1.491 . S
C456 H447 0.950 . S
C456 C455 1.398 . S
C456 C457 1.391 . S
C457 H445 0.950 . S
C457 C453 1.393 . S
C457 C456 1.391 . S
C458 H448 0.950 . S
C458 C459 1.386 . S
C458 C460 1.391 . S
C459 C458 1.386 . S
C459 C463 1.393 . S
C460 H449 0.950 . S
C460 C458 1.391 . S
C460 C461 1.400 . S
C461 C455 1.491 . S
C461 C460 1.400 . S
C461 C462 1.398 . S
C462 H450 0.950 . S
C462 C461 1.398 . S
C462 C463 1.391 . S
C463 H451 0.950 . S
C463 C459 1.393 . S
C463 C462 1.391 . S
H464 C472 0.950 . S
H465 C477 0.950 . S
H466 C474 0.950 . S
H467 C476 0.950 . S
H468 C478 0.950 . S
H469 C480 0.950 . S
H470 C482 0.950 . S
H471 C483 0.950 . S
C472 H464 0.950 . S
C472 C473 1.386 . S
C472 C474 1.391 . S
C473 C472 1.386 . S
C473 C477 1.393 . S
C474 H466 0.950 . S
C474 C472 1.391 . S
C474 C475 1.400 . S
C475 C474 1.400 . S
C475 C476 1.398 . S
C475 C481 1.491 1_554 S
C476 H467 0.950 . S
C476 C475 1.398 . S
C476 C477 1.391 . S
C477 H465 0.950 . S
C477 C473 1.393 . S
C477 C476 1.391 . S
C478 H468 0.950 . S
C478 C479 1.386 . S
C478 C480 1.391 . S
C479 C478 1.386 . S
C479 C483 1.393 . S
C480 H469 0.950 . S
C480 C478 1.391 . S
C480 C481 1.400 . S
C481 C475 1.491 1_556 S
C481 C480 1.400 . S
C481 C482 1.398 . S
C482 H470 0.950 . S
C482 C481 1.398 . S
C482 C483 1.391 . S
C483 H471 0.950 . S
C483 C479 1.393 . S
C483 C482 1.391 . S
H484 C492 0.950 . S
H485 C497 0.950 . S
H486 C494 0.950 . S
H487 C496 0.950 . S
H488 C498 0.950 . S
H489 C500 0.950 . S
H490 C502 0.950 . S
H491 C503 0.950 . S
C492 H484 0.950 . S
C492 C493 1.386 . S
C492 C494 1.391 . S
C493 C492 1.386 . S
C493 C497 1.393 . S
C494 H486 0.950 . S
C494 C492 1.391 . S
C494 C495 1.400 . S
C495 C494 1.400 . S
C495 C496 1.398 . S
C495 C501 1.491 1_554 S
C496 H487 0.950 . S
C496 C495 1.398 . S
C496 C497 1.391 . S
C497 H485 0.950 . S
C497 C493 1.393 . S
C497 C496 1.391 . S
C498 H488 0.950 . S
C498 C499 1.386 . S
C498 C500 1.391 . S
C499 C498 1.386 . S
C499 C503 1.393 . S
C500 H489 0.950 . S
C500 C498 1.391 . S
C500 C501 1.400 . S
C501 C495 1.491 1_556 S
C501 C500 1.400 . S
C501 C502 1.398 . S
C502 H490 0.950 . S
C502 C501 1.398 . S
C502 C503 1.391 . S
C503 H491 0.950 . S
C503 C499 1.393 . S
C503 C502 1.391 . S
C193 C16 1.681 . S
C199 N58 1.760 . S
C213 N81 1.770 . S
C219 C39 1.700 . S
C233 N150 1.759 . S
C239 C108 1.672 . S
C253 C131 1.682 . S
C259 N173 1.766 . S
C273 C154 1.866 . S
C279 N12 1.849 . S
C293 N35 1.833 . S
C299 C177 1.856 . S
C313 C62 1.862 . S
C319 N104 1.847 . S
C333 C85 1.867 . S
C339 N127 1.836 . S
C353 N140 1.856 . S
C359 C7 1.989 . S
C373 C30 1.982 . S
C379 N163 1.845 . S
C393 C99 1.987 . S
C399 N48 1.850 . S
C413 C122 1.991 . S
C419 N71 1.858 . S
C433 N25 0.773 . S
C439 N2 0.792 . S
C453 C53 0.552 . S
C459 C76 0.553 . S
C473 N117 0.773 . S
C479 N94 0.805 . S
C493 C145 0.556 . S
C499 C168 0.556 . S
