# Generated by pormake.
# Topology wiv, (6)-cn, num edge types: 1
# Building blocks:
#     Node 0, Type 0, BuildingBlock: BETDIP_clean_sbu_0, # of connection points: 6
#     Node 1, Type 0, BuildingBlock: BETDIP_clean_sbu_0, # of connection points: 6
#     Node 2, Type 0, BuildingBlock: BETDIP_clean_sbu_0, # of connection points: 6
#     Node 3, Type 0, BuildingBlock: BETDIP_clean_sbu_0, # of connection points: 6
#     Node 4, Type 0, BuildingBlock: BETDIP_clean_sbu_0, # of connection points: 6
#     Node 5, Type 0, BuildingBlock: BETDIP_clean_sbu_0, # of connection points: 6
#     Node 6, Type 0, BuildingBlock: BETDIP_clean_sbu_0, # of connection points: 6
#     Node 7, Type 0, BuildingBlock: BETDIP_clean_sbu_0, # of connection points: 6
#     Node 8, Type 0, BuildingBlock: BETDIP_clean_sbu_0, # of connection points: 6
#     Node 9, Type 0, BuildingBlock: BETDIP_clean_sbu_0, # of connection points: 6
#     Node 10, Type 0, BuildingBlock: BETDIP_clean_sbu_0, # of connection points: 6
#     Node 11, Type 0, BuildingBlock: BETDIP_clean_sbu_0, # of connection points: 6
#     Node 12, Type 0, BuildingBlock: BETDIP_clean_sbu_0, # of connection points: 6
#     Node 13, Type 0, BuildingBlock: BETDIP_clean_sbu_0, # of connection points: 6
#     Node 14, Type 0, BuildingBlock: BETDIP_clean_sbu_0, # of connection points: 6
#     Node 15, Type 0, BuildingBlock: BETDIP_clean_sbu_0, # of connection points: 6
#     Edge 16, Type (0, 0), BuildingBlock: XUDNAN_clean_linker_2, # of connection points: 2
#     Edge 17, Type (0, 0), BuildingBlock: XUDNAN_clean_linker_2, # of connection points: 2
#     Edge 18, Type (0, 0), BuildingBlock: XUDNAN_clean_linker_2, # of connection points: 2
#     Edge 19, Type (0, 0), BuildingBlock: XUDNAN_clean_linker_2, # of connection points: 2
#     Edge 20, Type (0, 0), BuildingBlock: XUDNAN_clean_linker_2, # of connection points: 2
#     Edge 21, Type (0, 0), BuildingBlock: XUDNAN_clean_linker_2, # of connection points: 2
#     Edge 22, Type (0, 0), BuildingBlock: XUDNAN_clean_linker_2, # of connection points: 2
#     Edge 23, Type (0, 0), BuildingBlock: XUDNAN_clean_linker_2, # of connection points: 2
#     Edge 24, Type (0, 0), BuildingBlock: XUDNAN_clean_linker_2, # of connection points: 2
#     Edge 25, Type (0, 0), BuildingBlock: XUDNAN_clean_linker_2, # of connection points: 2
#     Edge 26, Type (0, 0), BuildingBlock: XUDNAN_clean_linker_2, # of connection points: 2
#     Edge 27, Type (0, 0), BuildingBlock: XUDNAN_clean_linker_2, # of connection points: 2
#     Edge 28, Type (0, 0), BuildingBlock: XUDNAN_clean_linker_2, # of connection points: 2
#     Edge 29, Type (0, 0), BuildingBlock: XUDNAN_clean_linker_2, # of connection points: 2
#     Edge 30, Type (0, 0), BuildingBlock: XUDNAN_clean_linker_2, # of connection points: 2
#     Edge 31, Type (0, 0), BuildingBlock: XUDNAN_clean_linker_2, # of connection points: 2
#     Edge 32, Type (0, 0), BuildingBlock: XUDNAN_clean_linker_2, # of connection points: 2
#     Edge 33, Type (0, 0), BuildingBlock: XUDNAN_clean_linker_2, # of connection points: 2
#     Edge 34, Type (0, 0), BuildingBlock: XUDNAN_clean_linker_2, # of connection points: 2
#     Edge 35, Type (0, 0), BuildingBlock: XUDNAN_clean_linker_2, # of connection points: 2
#     Edge 36, Type (0, 0), BuildingBlock: XUDNAN_clean_linker_2, # of connection points: 2
#     Edge 37, Type (0, 0), BuildingBlock: XUDNAN_clean_linker_2, # of connection points: 2
#     Edge 38, Type (0, 0), BuildingBlock: XUDNAN_clean_linker_2, # of connection points: 2
#     Edge 39, Type (0, 0), BuildingBlock: XUDNAN_clean_linker_2, # of connection points: 2
#     Edge 40, Type (0, 0), BuildingBlock: XUDNAN_clean_linker_2, # of connection points: 2
#     Edge 41, Type (0, 0), BuildingBlock: XUDNAN_clean_linker_2, # of connection points: 2
#     Edge 42, Type (0, 0), BuildingBlock: XUDNAN_clean_linker_2, # of connection points: 2
#     Edge 43, Type (0, 0), BuildingBlock: XUDNAN_clean_linker_2, # of connection points: 2
#     Edge 44, Type (0, 0), BuildingBlock: XUDNAN_clean_linker_2, # of connection points: 2
#     Edge 45, Type (0, 0), BuildingBlock: XUDNAN_clean_linker_2, # of connection points: 2
#     Edge 46, Type (0, 0), BuildingBlock: XUDNAN_clean_linker_2, # of connection points: 2
#     Edge 47, Type (0, 0), BuildingBlock: XUDNAN_clean_linker_2, # of connection points: 2
#     Edge 48, Type (0, 0), BuildingBlock: XUDNAN_clean_linker_2, # of connection points: 2
#     Edge 49, Type (0, 0), BuildingBlock: XUDNAN_clean_linker_2, # of connection points: 2
#     Edge 50, Type (0, 0), BuildingBlock: XUDNAN_clean_linker_2, # of connection points: 2
#     Edge 51, Type (0, 0), BuildingBlock: XUDNAN_clean_linker_2, # of connection points: 2
#     Edge 52, Type (0, 0), BuildingBlock: XUDNAN_clean_linker_2, # of connection points: 2
#     Edge 53, Type (0, 0), BuildingBlock: XUDNAN_clean_linker_2, # of connection points: 2
#     Edge 54, Type (0, 0), BuildingBlock: XUDNAN_clean_linker_2, # of connection points: 2
#     Edge 55, Type (0, 0), BuildingBlock: XUDNAN_clean_linker_2, # of connection points: 2
#     Edge 56, Type (0, 0), BuildingBlock: XUDNAN_clean_linker_2, # of connection points: 2
#     Edge 57, Type (0, 0), BuildingBlock: XUDNAN_clean_linker_2, # of connection points: 2
#     Edge 58, Type (0, 0), BuildingBlock: XUDNAN_clean_linker_2, # of connection points: 2
#     Edge 59, Type (0, 0), BuildingBlock: XUDNAN_clean_linker_2, # of connection points: 2
#     Edge 60, Type (0, 0), BuildingBlock: XUDNAN_clean_linker_2, # of connection points: 2
#     Edge 61, Type (0, 0), BuildingBlock: XUDNAN_clean_linker_2, # of connection points: 2
#     Edge 62, Type (0, 0), BuildingBlock: XUDNAN_clean_linker_2, # of connection points: 2
#     Edge 63, Type (0, 0), BuildingBlock: XUDNAN_clean_linker_2, # of connection points: 2
# Relax obj value: 0.128
# Max RMSD: 0.184
# Mean RMSD: 0.184
data_MOF--net-wiv--node1-BETDIP_clean_sbu_0--edge1-XUDNAN_clean_linker_2
_symmetry_space_group_name_H-M    P1
_symmetry_Int_Tables_number       1
_symmetry_cell_setting            triclinic
loop_
_symmetry_equiv_pos_as_xyz
'x, y, z'
_cell_length_a     50.44558
_cell_length_b     50.740536
_cell_length_c     24.716873
_cell_angle_alpha  89.959595
_cell_angle_beta   90.16899
_cell_angle_gamma 89.893679
loop_
_atom_site_label
_atom_site_type_symbol
_atom_site_fract_x
_atom_site_fract_y
_atom_site_fract_z
_atom_type_partial_charge
Tb0 Tb 0.35475 0.11295 0.15757 0.0
Tb1 Tb 0.39347 0.10763 0.06771 0.0
C2 C 0.33234 0.11009 0.24863 0.0
C3 C 0.34287 0.10936 0.30491 0.0
C4 C 0.33201 0.09222 0.34361 0.0
C5 C 0.3417 0.09188 0.39705 0.0
C6 C 0.36254 0.10869 0.41295 0.0
C7 C 0.37328 0.12583 0.37386 0.0
C8 C 0.36372 0.12605 0.32068 0.0
C9 C 0.36306 0.15751 0.10501 0.0
C10 C 0.41863 0.11775 0.17945 0.0
C11 C 0.41714 0.11243 0.97837 0.0
C12 C 0.41077 0.1136 0.91962 0.0
C13 C 0.42212 0.13353 0.8879 0.0
C14 C 0.41847 0.13392 0.8317 0.0
C15 C 0.40329 0.1144 0.80563 0.0
C16 C 0.39109 0.09496 0.83763 0.0
C17 C 0.39496 0.09444 0.89397 0.0
C18 C 0.38767 0.06425 0.12662 0.0
C19 C 0.33105 0.10325 0.04121 0.0
O20 O 0.3369 0.08953 0.21817 0.0
O21 O 0.33595 0.13207 0.22212 0.0
O22 O 0.38039 0.14029 0.11696 0.0
O23 O 0.34016 0.14905 0.12115 0.0
O24 O 0.39433 0.11424 0.19924 0.0
O25 O 0.42288 0.11888 0.12686 0.0
O26 O 0.40971 0.13248 1.00809 0.0
O27 O 0.41358 0.0899 1.0031 0.0
O28 O 0.36965 0.08047 0.11312 0.0
O29 O 0.40953 0.07115 0.10322 0.0
O30 O 0.35559 0.10728 1.02466 0.0
O31 O 0.32538 0.10247 0.0938 0.0
H32 H 0.316 0.07907 0.3325 0.0
H33 H 0.33311 0.07819 0.42565 0.0
H34 H 0.38894 0.13946 0.3844 0.0
H35 H 0.3726 0.13952 0.29199 0.0
H36 H 0.43438 0.14852 0.90651 0.0
H37 H 0.42787 0.1494 0.80848 0.0
H38 H 0.37944 0.07952 0.81891 0.0
H39 H 0.38616 0.07864 0.91719 0.0
Tb40 Tb 0.11872 0.62636 0.97927 0.0
Tb41 Tb 0.1098 0.65952 0.88464 0.0
C42 C 0.13343 0.60773 0.06931 0.0
C43 C 0.13445 0.61715 0.12594 0.0
C44 C 0.13765 0.64397 0.1383 0.0
C45 C 0.13776 0.65253 0.19214 0.0
C46 C 0.13499 0.63443 0.23502 0.0
C47 C 0.13184 0.60755 0.22235 0.0
C48 C 0.1315 0.59906 0.16841 0.0
C49 C 0.06965 0.6243 0.94034 0.0
C50 C 0.10574 0.68661 0.99869 0.0
C51 C 0.09508 0.67824 0.7946 0.0
C52 C 0.10241 0.67531 0.73692 0.0
C53 C 0.10546 0.65039 0.71272 0.0
C54 C 0.11176 0.64824 0.65769 0.0
C55 C 0.11529 0.67095 0.62577 0.0
C56 C 0.11224 0.69581 0.65024 0.0
C57 C 0.10583 0.69794 0.70511 0.0
C58 C 0.16061 0.65797 0.91531 0.0
C59 C 0.1226 0.59702 0.87049 0.0
O60 O 0.14949 0.61896 0.03478 0.0
O61 O 0.10975 0.60444 0.04899 0.0
O62 O 0.0837 0.64488 0.94438 0.0
O63 O 0.08237 0.60478 0.96194 0.0
O64 O 0.11853 0.66551 1.01509 0.0
O65 O 0.09646 0.68776 0.94826 0.0
O66 O 0.08417 0.6579 0.8179 0.0
O67 O 0.1124 0.68967 0.82614 0.0
O68 O 0.14434 0.6391 0.91491 0.0
O69 O 0.14804 0.67839 0.89731 0.0
O70 O 0.11328 0.61915 0.84836 0.0
O71 O 0.12985 0.59638 0.92182 0.0
H72 H 0.14007 0.6584 0.10652 0.0
H73 H 0.13978 0.67342 0.20005 0.0
H74 H 0.13002 0.59297 0.25411 0.0
H75 H 0.12899 0.57827 0.15986 0.0
H76 H 0.10296 0.63255 0.73619 0.0
H77 H 0.11422 0.6288 0.64031 0.0
H78 H 0.11446 0.7137 0.62677 0.0
H79 H 0.10339 0.71735 0.72271 0.0
Tb80 Tb 0.66757 0.89769 0.16874 0.0
Tb81 Tb 0.62628 0.90238 0.08136 0.0
C82 C 0.69065 0.89968 0.25976 0.0
C83 C 0.68059 0.90002 0.31675 0.0
C84 C 0.68855 0.91964 0.3536 0.0
C85 C 0.67926 0.9196 0.40743 0.0
C86 C 0.66162 0.89999 0.42565 0.0
C87 C 0.65395 0.8803 0.38863 0.0
C88 C 0.66323 0.8803 0.33526 0.0
C89 C 0.65766 0.85293 0.11767 0.0
C90 C 0.6042 0.89303 0.19579 0.0
C91 C 0.60288 0.89662 0.99149 0.0
C92 C 0.6098 0.89589 0.93268 0.0
C93 C 0.60081 0.87485 0.90072 0.0
C94 C 0.6051 0.87452 0.84464 0.0
C95 C 0.6186 0.89525 0.81861 0.0
C96 C 0.62847 0.91593 0.85088 0.0
C97 C 0.62392 0.91636 0.90712 0.0
C98 C 0.63303 0.946 0.13841 0.0
C99 C 0.68867 0.90757 0.05175 0.0
O100 O 0.68638 0.92049 0.22967 0.0
O101 O 0.6867 0.878 0.23248 0.0
O102 O 0.64085 0.87038 0.13072 0.0
O103 O 0.68097 0.86119 0.13194 0.0
O104 O 0.62903 0.89736 0.21189 0.0
O105 O 0.59815 0.89102 0.1438 0.0
O106 O 0.61101 0.87689 1.02154 0.0
O107 O 0.60506 0.91919 1.01668 0.0
O108 O 0.65093 0.92971 0.12454 0.0
O109 O 0.61083 0.93919 0.11583 0.0
O110 O 0.66378 0.9035 0.03703 0.0
O111 O 0.69559 0.90834 0.1037 0.0
H112 H 0.70194 0.93507 0.34074 0.0
H113 H 0.6855 0.93521 0.43444 0.0
H114 H 0.64076 0.8646 0.40095 0.0
H115 H 0.6566 0.86478 0.30841 0.0
H116 H 0.58989 0.8588 0.91903 0.0
H117 H 0.59751 0.85807 0.82146 0.0
H118 H 0.63878 0.93231 0.83239 0.0
H119 H 0.63094 0.93304 0.93034 0.0
Tb120 Tb 0.90315 0.38319 0.97923 0.0
Tb121 Tb 0.90229 0.34372 0.89013 0.0
C122 C 0.89643 0.40638 0.06856 0.0
C123 C 0.9001 0.401 0.12739 0.0
C124 C 0.89079 0.3778 0.15224 0.0
C125 C 0.8927 0.37444 0.20869 0.0
C126 C 0.90388 0.39422 0.24163 0.0
C127 C 0.9141 0.41687 0.21606 0.0
C128 C 0.91214 0.42022 0.15992 0.0
C129 C 0.94823 0.37725 0.92589 0.0
C130 C 0.91011 0.32137 1.00775 0.0
C131 C 0.9109 0.32238 0.79938 0.0
C132 C 0.91196 0.33215 0.74259 0.0
C133 C 0.92336 0.35663 0.72973 0.0
C134 C 0.92302 0.36608 0.67635 0.0
C135 C 0.91124 0.35136 0.63426 0.0
C136 C 0.90035 0.3266 0.64718 0.0
C137 C 0.90067 0.31717 0.70067 0.0
C138 C 0.85552 0.35093 0.93643 0.0
C139 C 0.89256 0.40626 0.86659 0.0
O140 O 0.87777 0.39338 0.0431 0.0
O141 O 0.91789 0.40874 0.03933 0.0
O142 O 0.93248 0.35927 0.94027 0.0
O143 O 0.93961 0.39963 0.94408 0.0
O144 O 0.90518 0.34582 1.02317 0.0
O145 O 0.91202 0.31521 0.95549 0.0
O146 O 0.92965 0.33025 0.83231 0.0
O147 O 0.88766 0.32298 0.82255 0.0
O148 O 0.87275 0.36835 0.92642 0.0
O149 O 0.86452 0.32845 0.91925 0.0
O150 O 0.90089 0.38297 0.84839 0.0
O151 O 0.88784 0.41 0.91852 0.0
H152 H 0.88154 0.36248 0.12828 0.0
H153 H 0.88456 0.35676 0.22664 0.0
H154 H 0.92347 0.43229 0.23954 0.0
H155 H 0.91965 0.43819 0.14193 0.0
H156 H 0.93235 0.36864 0.76098 0.0
H157 H 0.93202 0.38502 0.66813 0.0
H158 H 0.89087 0.31479 0.61625 0.0
H159 H 0.8917 0.29827 0.70944 0.0
Tb160 Tb 0.34565 0.39734 0.12777 0.0
Tb161 Tb 0.38532 0.39627 0.21696 0.0
C162 C 0.32272 0.40659 0.0383 0.0
C163 C 0.32773 0.40304 0.97923 0.0
C164 C 0.35005 0.41388 0.95329 0.0
C165 C 0.35301 0.41202 0.89678 0.0
C166 C 0.33369 0.39936 0.86469 0.0
C167 C 0.31186 0.38785 0.89121 0.0
C168 C 0.3089 0.38977 0.94748 0.0
C169 C 0.35595 0.34926 0.16504 0.0
C170 C 0.4091 0.39306 0.10283 0.0
C171 C 0.40668 0.38727 0.30768 0.0
C172 C 0.39663 0.38747 0.36447 0.0
C173 C 0.37249 0.3754 0.37835 0.0
C174 C 0.36272 0.37677 0.43139 0.0
C175 C 0.37678 0.3902 0.47235 0.0
C176 C 0.40117 0.40189 0.45852 0.0
C177 C 0.4109 0.40058 0.40529 0.0
C178 C 0.37753 0.44309 0.17218 0.0
C179 C 0.32321 0.40154 0.2454 0.0
O180 O 0.33728 0.42368 0.06431 0.0
O181 O 0.31871 0.38537 0.06709 0.0
O182 O 0.3724 0.36771 0.15843 0.0
O183 O 0.33288 0.35774 0.14982 0.0
O184 O 0.38478 0.39966 0.08649 0.0
O185 O 0.414 0.38688 0.15396 0.0
O186 O 0.39772 0.36875 0.27551 0.0
O187 O 0.40767 0.41012 0.28324 0.0
O188 O 0.35999 0.42604 0.1827 0.0
O189 O 0.40018 0.43475 0.19037 0.0
O190 O 0.34728 0.39379 0.2593 0.0
O191 O 0.31767 0.40727 0.19403 0.0
H192 H 0.365 0.42427 0.97644 0.0
H193 H 0.37001 0.42127 0.87812 0.0
H194 H 0.29682 0.37743 0.86843 0.0
H195 H 0.29153 0.38118 0.96616 0.0
H196 H 0.36095 0.36504 0.34815 0.0
H197 H 0.3441 0.36714 0.44027 0.0
H198 H 0.41249 0.41264 0.4885 0.0
H199 H 0.42951 0.41013 0.39584 0.0
Tb200 Tb 0.40199 0.62501 0.82359 0.0
Tb201 Tb 0.40162 0.66117 0.91878 0.0
C202 C 0.39656 0.60571 0.72975 0.0
C203 C 0.39671 0.61667 0.67365 0.0
C204 C 0.38047 0.60573 0.63317 0.0
C205 C 0.38105 0.61552 0.57983 0.0
C206 C 0.39773 0.63669 0.56581 0.0
C207 C 0.41401 0.64751 0.60651 0.0
C208 C 0.41365 0.63754 0.65944 0.0
C209 C 0.44604 0.62549 0.88231 0.0
C210 C 0.40472 0.68642 0.80017 0.0
C211 C 0.41372 0.68899 0.99981 0.0
C212 C 0.41126 0.68592 0.0594 0.0
C213 C 0.42522 0.70293 0.09383 0.0
C214 C 0.42342 0.70032 0.15022 0.0
C215 C 0.40752 0.6806 0.17394 0.0
C216 C 0.39388 0.66323 0.1391 0.0
C217 C 0.39574 0.66586 0.0825 0.0
C218 C 0.35409 0.64413 0.89202 0.0
C219 C 0.39167 0.59957 0.93509 0.0
O220 O 0.37653 0.61197 0.76091 0.0
O221 O 0.41904 0.60674 0.75604 0.0
O222 O 0.43203 0.64527 0.86969 0.0
O223 O 0.43654 0.60483 0.85842 0.0
O224 O 0.4089 0.66219 0.78336 0.0
O225 O 0.40099 0.69152 0.8526 0.0
O226 O 0.43017 0.6728 0.97594 0.0
O227 O 0.39171 0.69193 0.97215 0.0
O228 O 0.37236 0.6505 0.85921 0.0
O229 O 0.36223 0.64819 0.94105 0.0
O230 O 0.4024 0.62128 0.95598 0.0
O231 O 0.38559 0.59795 0.88304 0.0
H232 H 0.36735 0.58952 0.64276 0.0
H233 H 0.36811 0.60679 0.54979 0.0
H234 H 0.42738 0.66357 0.59734 0.0
H235 H 0.42676 0.64622 0.6892 0.0
H236 H 0.43761 0.7183 0.07708 0.0
H237 H 0.43473 0.71374 0.17525 0.0
H238 H 0.38133 0.64791 0.15548 0.0
H239 H 0.38496 0.6523 0.05677 0.0
Tb240 Tb 0.67053 0.61406 0.13623 0.0
Tb241 Tb 0.63228 0.61278 0.22658 0.0
C242 C 0.6934 0.60768 0.04613 0.0
C243 C 0.68545 0.60534 0.98831 0.0
C244 C 0.6662 0.58712 0.97115 0.0
C245 C 0.65996 0.5845 0.91605 0.0
C246 C 0.67272 0.60005 0.87669 0.0
C247 C 0.69151 0.61869 0.89417 0.0
C248 C 0.69785 0.62121 0.94926 0.0
C249 C 0.66089 0.661 0.17885 0.0
C250 C 0.60749 0.61721 0.11235 0.0
C251 C 0.61038 0.62087 0.31665 0.0
C252 C 0.61791 0.61649 0.37441 0.0
C253 C 0.63775 0.63151 0.40019 0.0
C254 C 0.6446 0.62676 0.4545 0.0
C255 C 0.63196 0.60676 0.48426 0.0
C256 C 0.61191 0.59205 0.45853 0.0
C257 C 0.60494 0.59692 0.40454 0.0
C258 C 0.63994 0.56675 0.17875 0.0
C259 C 0.6951 0.60807 0.25251 0.0
O260 O 0.68696 0.58842 0.07862 0.0
O261 O 0.68986 0.63063 0.06882 0.0
O262 O 0.64409 0.64293 0.17049 0.0
O263 O 0.684 0.6524 0.16423 0.0
O264 O 0.63157 0.61044 0.09571 0.0
O265 O 0.60317 0.62293 0.16392 0.0
O266 O 0.62328 0.63902 0.28974 0.0
O267 O 0.60639 0.59974 0.28742 0.0
O268 O 0.65737 0.58392 0.18915 0.0
O269 O 0.6176 0.57432 0.1993 0.0
O270 O 0.67074 0.61261 0.27014 0.0
O271 O 0.6998 0.60534 0.1999 0.0
H272 H 0.65609 0.57473 1.00018 0.0
H273 H 0.6451 0.57022 0.90427 0.0
H274 H 0.70191 0.63083 0.86513 0.0
H275 H 0.71278 0.63538 0.96133 0.0
H276 H 0.64816 0.64683 0.3784 0.0
H277 H 0.6602 0.63838 0.47284 0.0
H278 H 0.60136 0.57683 0.48033 0.0
H279 H 0.58938 0.58522 0.38621 0.0
Tb280 Tb 0.61795 0.38299 0.83007 0.0
Tb281 Tb 0.61126 0.34894 0.92537 0.0
C282 C 0.63132 0.4018 0.7399 0.0
C283 C 0.63256 0.3917 0.68355 0.0
C284 C 0.65277 0.37439 0.66694 0.0
C285 C 0.65365 0.3651 0.61365 0.0
C286 C 0.63432 0.37283 0.57555 0.0
C287 C 0.61415 0.39017 0.59231 0.0
C288 C 0.61337 0.39958 0.64549 0.0
C289 C 0.56998 0.38485 0.87323 0.0
C290 C 0.60571 0.32216 0.81149 0.0
C291 C 0.5977 0.3296 1.01526 0.0
C292 C 0.60521 0.33231 0.07312 0.0
C293 C 0.58903 0.34696 0.10828 0.0
C294 C 0.59496 0.34854 0.16349 0.0
C295 C 0.61725 0.33551 0.18506 0.0
C296 C 0.63363 0.32111 0.14971 0.0
C297 C 0.62764 0.31945 0.09447 0.0
C298 C 0.66117 0.35153 0.89003 0.0
C299 C 0.62489 0.41085 0.94091 0.0
O300 O 0.64818 0.39194 0.77491 0.0
O301 O 0.60764 0.40456 0.7606 0.0
O302 O 0.58395 0.3642 0.86763 0.0
O303 O 0.58213 0.40451 0.85097 0.0
O304 O 0.61716 0.34369 0.79302 0.0
O305 O 0.59774 0.32101 0.86264 0.0
O306 O 0.58617 0.34994 0.99283 0.0
O307 O 0.6148 0.31852 0.98273 0.0
O308 O 0.6443 0.36975 0.89209 0.0
O309 O 0.65033 0.33088 0.91116 0.0
O310 O 0.61524 0.38883 0.96243 0.0
O311 O 0.63109 0.41207 0.889 0.0
H312 H 0.66801 0.368 0.69502 0.0
H313 H 0.66973 0.3521 0.60224 0.0
H314 H 0.59864 0.39624 0.56458 0.0
H315 H 0.5976 0.41296 0.65693 0.0
H316 H 0.57154 0.35697 0.09325 0.0
H317 H 0.58165 0.35949 0.18945 0.0
H318 H 0.65116 0.31111 0.16469 0.0
H319 H 0.64051 0.30791 0.06866 0.0
Tb320 Tb 0.84751 0.6093 0.67706 0.0
Tb321 Tb 0.88719 0.61102 0.58887 0.0
C322 C 0.82535 0.59966 0.76683 0.0
C323 C 0.83112 0.60447 0.82537 0.0
C324 C 0.85446 0.59524 0.85066 0.0
C325 C 0.8591 0.5998 0.9061 0.0
C326 C 0.84063 0.61384 0.93765 0.0
C327 C 0.81723 0.6228 0.91219 0.0
C328 C 0.81255 0.61814 0.85703 0.0
C329 C 0.85701 0.65767 0.64093 0.0
C330 C 0.9109 0.61414 0.70324 0.0
C331 C 0.90907 0.6197 0.49864 0.0
C332 C 0.89975 0.62095 0.44127 0.0
C333 C 0.87607 0.63387 0.42682 0.0
C334 C 0.86779 0.63508 0.37256 0.0
C335 C 0.88301 0.62358 0.33094 0.0
C336 C 0.90646 0.61022 0.3457 0.0
C337 C 0.9147 0.60896 0.4001 0.0
C338 C 0.87975 0.56392 0.63279 0.0
C339 C 0.82527 0.60618 0.55919 0.0
O340 O 0.84051 0.58296 0.74117 0.0
O341 O 0.81988 0.62025 0.737 0.0
O342 O 0.87385 0.63945 0.64745 0.0
O343 O 0.8341 0.64879 0.65564 0.0
O344 O 0.88661 0.60744 0.71898 0.0
O345 O 0.91586 0.62032 0.65222 0.0
O346 O 0.90103 0.63833 0.53147 0.0
O347 O 0.90839 0.59654 0.52177 0.0
O348 O 0.86207 0.58086 0.62191 0.0
O349 O 0.90242 0.57261 0.61589 0.0
O350 O 0.84911 0.61494 0.54667 0.0
O351 O 0.81985 0.59928 0.60995 0.0
H352 H 0.86923 0.58457 0.82766 0.0
H353 H 0.87742 0.59277 0.92398 0.0
H354 H 0.8023 0.6333 0.93507 0.0
H355 H 0.79428 0.62525 0.83902 0.0
H356 H 0.86389 0.64313 0.45741 0.0
H357 H 0.84936 0.64509 0.36328 0.0
H358 H 0.91887 0.60129 0.31507 0.0
H359 H 0.93299 0.59879 0.40997 0.0
Tb360 Tb 0.61349 0.12639 0.49546 0.0
Tb361 Tb 0.61114 0.16278 0.40204 0.0
C362 C 0.6223 0.10548 0.58624 0.0
C363 C 0.6215 0.11524 0.64266 0.0
C364 C 0.62988 0.14085 0.65581 0.0
C365 C 0.62737 0.15039 0.70865 0.0
C366 C 0.61653 0.13452 0.74974 0.0
C367 C 0.60866 0.10868 0.73667 0.0
C368 C 0.61105 0.0992 0.68364 0.0
C369 C 0.56712 0.12761 0.44377 0.0
C370 C 0.60409 0.18748 0.51816 0.0
C371 C 0.59919 0.18435 0.31317 0.0
C372 C 0.60234 0.18001 0.25431 0.0
C373 C 0.59496 0.15626 0.22908 0.0
C374 C 0.59623 0.15376 0.17258 0.0
C375 C 0.60483 0.17496 0.14026 0.0
C376 C 0.613 0.19831 0.16605 0.0
C377 C 0.61167 0.20081 0.22228 0.0
C378 C 0.65968 0.15794 0.44394 0.0
C379 C 0.62378 0.10019 0.38458 0.0
O380 O 0.64095 0.11501 0.55506 0.0
O381 O 0.59942 0.10432 0.56135 0.0
O382 O 0.58199 0.1471 0.45433 0.0
O383 O 0.57788 0.10684 0.46513 0.0
O384 O 0.61263 0.16449 0.53556 0.0
O385 O 0.59913 0.19134 0.46585 0.0
O386 O 0.58349 0.1684 0.33949 0.0
O387 O 0.62063 0.18988 0.34065 0.0
O388 O 0.64242 0.14014 0.43843 0.0
O389 O 0.64959 0.17954 0.42474 0.0
O390 O 0.61603 0.12305 0.36255 0.0
O391 O 0.62754 0.09813 0.43734 0.0
H392 H 0.63819 0.15366 0.62525 0.0
H393 H 0.63399 0.17024 0.71732 0.0
H394 H 0.59999 0.096 0.76709 0.0
H395 H 0.60434 0.07942 0.67443 0.0
H396 H 0.58772 0.13983 0.25279 0.0
H397 H 0.58968 0.13553 0.15417 0.0
H398 H 0.62027 0.21485 0.14273 0.0
H399 H 0.61754 0.21928 0.24076 0.0
Tb400 Tb 0.16674 0.39514 0.66246 0.0
Tb401 Tb 0.12923 0.39773 0.57054 0.0
C402 C 0.1897 0.40241 0.75222 0.0
C403 C 0.18414 0.39786 0.8106 0.0
C404 C 0.17481 0.4185 0.84351 0.0
C405 C 0.17138 0.4148 0.8993 0.0
C406 C 0.17742 0.39043 0.92368 0.0
C407 C 0.18629 0.36969 0.89051 0.0
C408 C 0.18968 0.37336 0.83483 0.0
C409 C 0.15911 0.34868 0.61584 0.0
C410 C 0.10344 0.38694 0.68237 0.0
C411 C 0.10745 0.39238 0.47936 0.0
C412 C 0.11709 0.38944 0.42281 0.0
C413 C 0.12931 0.36609 0.40493 0.0
C414 C 0.13847 0.36383 0.35166 0.0
C415 C 0.13578 0.38487 0.31476 0.0
C416 C 0.12343 0.40816 0.33275 0.0
C417 C 0.11412 0.41035 0.38592 0.0
C418 C 0.13399 0.44262 0.62511 0.0
C419 C 0.19153 0.40213 0.54742 0.0
O420 O 0.17561 0.42039 0.72743 0.0
O421 O 0.19345 0.3817 0.72176 0.0
O422 O 0.14186 0.36641 0.62371 0.0
O423 O 0.18167 0.35744 0.63352 0.0
O424 O 0.12775 0.38953 0.70281 0.0
O425 O 0.09905 0.3872 0.62956 0.0
O426 O 0.1117 0.37276 0.51289 0.0
O427 O 0.11176 0.41524 0.50219 0.0
O428 O 0.15237 0.42647 0.61355 0.0
O429 O 0.1122 0.4341 0.60364 0.0
O430 O 0.16791 0.39505 0.52942 0.0
O431 O 0.19522 0.40688 0.5997 0.0
H432 H 0.17065 0.43772 0.82633 0.0
H433 H 0.16479 0.43131 0.92356 0.0
H434 H 0.19075 0.35053 0.90764 0.0
H435 H 0.19704 0.35704 0.81095 0.0
H436 H 0.13185 0.34949 0.43203 0.0
H437 H 0.14745 0.3454 0.33934 0.0
H438 H 0.12131 0.42496 0.30606 0.0
H439 H 0.10474 0.42858 0.39836 0.0
Tb440 Tb 0.39966 0.87997 0.48196 0.0
Tb441 Tb 0.40194 0.84725 0.38354 0.0
C442 C 0.39074 0.89956 0.57385 0.0
C443 C 0.38723 0.89033 0.63048 0.0
C444 C 0.36335 0.89541 0.65755 0.0
C445 C 0.36077 0.88978 0.71278 0.0
C446 C 0.38215 0.87919 0.7426 0.0
C447 C 0.40571 0.87311 0.71488 0.0
C448 C 0.4082 0.87853 0.65953 0.0
C449 C 0.4455 0.88101 0.42991 0.0
C450 C 0.40396 0.81857 0.49964 0.0
C451 C 0.4143 0.82112 0.30094 0.0
C452 C 0.41154 0.82802 0.24288 0.0
C453 C 0.41425 0.85433 0.22595 0.0
C454 C 0.40962 0.86142 0.17214 0.0
C455 C 0.40205 0.84243 0.13366 0.0
C456 C 0.40017 0.81592 0.15017 0.0
C457 C 0.40477 0.80881 0.20439 0.0
C458 C 0.35357 0.86404 0.40389 0.0
C459 C 0.3944 0.90935 0.37247 0.0
O460 O 0.37195 0.89417 0.53881 0.0
O461 O 0.41436 0.89687 0.55301 0.0
O462 O 0.43112 0.86106 0.43778 0.0
O463 O 0.43523 0.90101 0.45464 0.0
O464 O 0.40556 0.84214 0.52146 0.0
O465 O 0.40142 0.81561 0.44621 0.0
O466 O 0.43118 0.83536 0.32861 0.0
O467 O 0.39212 0.81757 0.32736 0.0
O468 O 0.37029 0.85644 0.43949 0.0
O469 O 0.36396 0.86156 0.35646 0.0
O470 O 0.4048 0.88785 0.3501 0.0
O471 O 0.38656 0.90915 0.42348 0.0
H472 H 0.34686 0.90444 0.6363 0.0
H473 H 0.34212 0.89424 0.73234 0.0
H474 H 0.42268 0.86517 0.73634 0.0
H475 H 0.42692 0.87426 0.64004 0.0
H476 H 0.41955 0.86961 0.25447 0.0
H477 H 0.41174 0.88194 0.16078 0.0
H478 H 0.39426 0.80083 0.12164 0.0
H479 H 0.40249 0.78841 0.21647 0.0
Tb480 Tb 0.85056 0.89415 0.64412 0.0
Tb481 Tb 0.88609 0.90048 0.73836 0.0
C482 C 0.82751 0.89504 0.55331 0.0
C483 C 0.83412 0.9016 0.4963 0.0
C484 C 0.8285 0.92666 0.47491 0.0
C485 C 0.83325 0.93223 0.42027 0.0
C486 C 0.84328 0.91271 0.38533 0.0
C487 C 0.8491 0.8877 0.40699 0.0
C488 C 0.84458 0.88223 0.46165 0.0
C489 C 0.85832 0.84978 0.69877 0.0
C490 C 0.91374 0.89011 0.62935 0.0
C491 C 0.90758 0.89648 0.83012 0.0
C492 C 0.89938 0.90223 0.88645 0.0
C493 C 0.90125 0.88242 0.92591 0.0
C494 C 0.89325 0.88723 0.97921 0.0
C495 C 0.88334 0.9121 0.99448 0.0
C496 C 0.88162 0.93197 0.95477 0.0
C497 C 0.88942 0.92707 0.90138 0.0
C498 C 0.8805 0.94396 0.6793 0.0
C499 C 0.82337 0.90396 0.7571 0.0
O500 O 0.82616 0.91435 0.58829 0.0
O501 O 0.83903 0.87423 0.57384 0.0
O502 O 0.87549 0.86723 0.68849 0.0
O503 O 0.83579 0.85793 0.67994 0.0
O504 O 0.89077 0.89709 0.60685 0.0
O505 O 0.91537 0.88596 0.68204 0.0
O506 O 0.89516 0.87708 0.80617 0.0
O507 O 0.911 0.91661 0.79778 0.0
O508 O 0.86278 0.92716 0.69021 0.0
O509 O 0.9018 0.93776 0.70575 0.0
O510 O 0.84729 0.90147 0.77822 0.0
O511 O 0.81978 0.90406 0.70383 0.0
H512 H 0.82016 0.94196 0.50029 0.0
H513 H 0.82888 0.95185 0.4054 0.0
H514 H 0.85636 0.87197 0.3814 0.0
H515 H 0.84877 0.86255 0.47642 0.0
H516 H 0.90872 0.86306 0.91537 0.0
H517 H 0.89442 0.87125 1.00817 0.0
H518 H 0.87445 0.95146 0.96491 0.0
H519 H 0.88762 0.94277 0.87188 0.0
Tb520 Tb 0.89972 0.12595 0.32259 0.0
Tb521 Tb 0.9013 0.16045 0.41704 0.0
C522 C 0.89236 0.10512 0.23142 0.0
C523 C 0.88935 0.11488 0.17523 0.0
C524 C 0.86823 0.13143 0.15994 0.0
C525 C 0.86602 0.14054 0.10664 0.0
C526 C 0.88497 0.13349 0.06744 0.0
C527 C 0.90611 0.11698 0.08307 0.0
C528 C 0.90816 0.10769 0.13619 0.0
C529 C 0.94632 0.12704 0.37399 0.0
C530 C 0.90731 0.18714 0.30334 0.0
C531 C 0.9124 0.181 0.5071 0.0
C532 C 0.90576 0.17675 0.56486 0.0
C533 C 0.92371 0.16363 0.5992 0.0
C534 C 0.91842 0.16102 0.65447 0.0
C535 C 0.89511 0.17166 0.67678 0.0
C536 C 0.87696 0.1844 0.64223 0.0
C537 C 0.88224 0.18699 0.58698 0.0
C538 C 0.85275 0.1564 0.37502 0.0
C539 C 0.88941 0.09787 0.43198 0.0
O540 O 0.8732 0.11036 0.26546 0.0
O541 O 0.91577 0.10828 0.25327 0.0
O542 O 0.93115 0.14644 0.36428 0.0
O543 O 0.93536 0.10624 0.35363 0.0
O544 O 0.89733 0.16496 0.28463 0.0
O545 O 0.91434 0.1889 0.35503 0.0
O546 O 0.92698 0.16298 0.4838 0.0
O547 O 0.89347 0.18947 0.47525 0.0
O548 O 0.86996 0.13838 0.37945 0.0
O549 O 0.86289 0.17762 0.39543 0.0
O550 O 0.89568 0.12077 0.4552 0.0
O551 O 0.88699 0.09602 0.37889 0.0
H552 H 0.85338 0.13739 0.18904 0.0
H553 H 0.84927 0.15291 0.09617 0.0
H554 H 0.9214 0.11152 0.05454 0.0
H555 H 0.92468 0.09502 0.14693 0.0
H556 H 0.94214 0.15577 0.58353 0.0
H557 H 0.93298 0.15138 0.67999 0.0
H558 H 0.85866 0.19251 0.65793 0.0
H559 H 0.86801 0.19732 0.56182 0.0
Tb560 Tb 0.16467 0.11273 0.63687 0.0
Tb561 Tb 0.1296 0.10707 0.73148 0.0
C562 C 0.18721 0.11025 0.54598 0.0
C563 C 0.17982 0.10255 0.49017 0.0
C564 C 0.19746 0.08739 0.45936 0.0
C565 C 0.19183 0.08156 0.40517 0.0
C566 C 0.16846 0.09095 0.38051 0.0
C567 C 0.15047 0.10559 0.41188 0.0
C568 C 0.15601 0.11123 0.4662 0.0
C569 C 0.157 0.15768 0.68902 0.0
C570 C 0.10106 0.11577 0.62255 0.0
C571 C 0.10788 0.11137 0.82289 0.0
C572 C 0.11604 0.10636 0.87939 0.0
C573 C 0.10182 0.11784 0.92194 0.0
C574 C 0.10892 0.11278 0.97581 0.0
C575 C 0.13044 0.09609 0.98826 0.0
C576 C 0.14477 0.08479 0.94521 0.0
C577 C 0.13768 0.08991 0.89141 0.0
C578 C 0.13484 0.06312 0.6735 0.0
C579 C 0.19245 0.10424 0.75048 0.0
O580 O 0.1887 0.09149 0.58217 0.0
O581 O 0.17594 0.13146 0.56512 0.0
O582 O 0.13977 0.14003 0.68003 0.0
O583 O 0.17951 0.14928 0.67079 0.0
O584 O 0.12426 0.10996 0.59993 0.0
O585 O 0.09923 0.1198 0.6752 0.0
O586 O 0.11979 0.13084 0.79823 0.0
O587 O 0.10571 0.0906 0.79192 0.0
O588 O 0.15261 0.08001 0.68382 0.0
O589 O 0.11376 0.06955 0.70012 0.0
O590 O 0.16858 0.10685 0.77152 0.0
O591 O 0.19578 0.10368 0.69715 0.0
H592 H 0.21592 0.0805 0.47693 0.0
H593 H 0.20619 0.07038 0.38211 0.0
H594 H 0.13211 0.11276 0.39436 0.0
H595 H 0.14188 0.12277 0.4891 0.0
H596 H 0.08501 0.13054 0.91352 0.0
H597 H 0.09714 0.12152 1.00767 0.0
H598 H 0.16161 0.07207 0.95299 0.0
H599 H 0.14899 0.08084 0.85922 0.0
Tb600 Tb 0.1079 0.88299 0.31317 0.0
Tb601 Tb 0.11509 0.84787 0.40715 0.0
C602 C 0.1116 0.90436 0.22153 0.0
C603 C 0.10609 0.8961 0.16508 0.0
C604 C 0.1264 0.89718 0.12645 0.0
C605 C 0.12181 0.88913 0.07307 0.0
C606 C 0.09668 0.87997 0.05684 0.0
C607 C 0.07631 0.87904 0.09567 0.0
C608 C 0.08097 0.8869 0.14915 0.0
C609 C 0.06444 0.87731 0.37252 0.0
C610 C 0.10567 0.82058 0.29364 0.0
C611 C 0.11442 0.82466 0.49758 0.0
C612 C 0.10805 0.83101 0.55478 0.0
C613 C 0.08272 0.82597 0.5759 0.0
C614 C 0.07726 0.83055 0.63062 0.0
C615 C 0.09714 0.83982 0.66591 0.0
C616 C 0.12243 0.845 0.64456 0.0
C617 C 0.1278 0.84065 0.5898 0.0
C618 C 0.15997 0.85737 0.35398 0.0
C619 C 0.11866 0.91097 0.42196 0.0
O620 O 0.13135 0.89238 0.24572 0.0
O621 O 0.09123 0.90745 0.25362 0.0
O622 O 0.08146 0.85971 0.36169 0.0
O623 O 0.07039 0.89842 0.34579 0.0
O624 O 0.10746 0.84446 0.27279 0.0
O625 O 0.10603 0.817 0.34692 0.0
O626 O 0.09485 0.82367 0.46276 0.0
O627 O 0.13533 0.836 0.47712 0.0
O628 O 0.14139 0.87337 0.36404 0.0
O629 O 0.15214 0.83453 0.37094 0.0
O630 O 0.11235 0.88802 0.44484 0.0
O631 O 0.1222 0.91248 0.36908 0.0
H632 H 0.14596 0.90407 0.13772 0.0
H633 H 0.13814 0.88969 0.04479 0.0
H634 H 0.05661 0.87246 0.08475 0.0
H635 H 0.06487 0.88574 0.17793 0.0
H636 H 0.06712 0.81826 0.55023 0.0
H637 H 0.05743 0.8267 0.64525 0.0
H638 H 0.13842 0.85165 0.67045 0.0
H639 H 0.14768 0.84435 0.57522 0.0
H640 H 0.40094 0.91914 0.26142 0.0
H641 H 0.38271 0.95753 0.41405 0.0
H642 H 0.37872 0.99996 0.36739 0.0
H643 H 0.43957 0.97286 0.20504 0.0
H644 H 0.42715 0.96894 0.13707 0.0
H645 H 0.42882 0.94093 0.18185 0.0
H646 H 0.3789 0.9323 0.16665 0.0
H647 H 0.37697 0.96032 0.12194 0.0
H648 H 0.3553 0.95826 0.17965 0.0
H649 H 0.37868 0.03874 0.30723 0.0
H650 H 0.38044 0.07162 0.23493 0.0
H651 H 0.39534 0.01033 0.11712 0.0
C652 C 0.39611 0.93648 0.28493 0.0
C653 C 0.39212 0.93471 0.34176 0.0
C654 C 0.38577 0.95802 0.37071 0.0
C655 C 0.38349 0.9824 0.34454 0.0
C656 C 0.38742 0.9835 0.28893 0.0
C657 C 0.39347 0.96127 0.25912 0.0
C658 C 0.39642 0.96842 0.19943 0.0
C659 C 0.42467 0.96243 0.17969 0.0
C660 C 0.37566 0.95396 0.16488 0.0
C661 C 0.39108 0.99807 0.20079 0.0
C662 C 0.38609 0.00615 0.25312 0.0
C663 C 0.38175 0.03254 0.26583 0.0
C664 C 0.38219 0.0512 0.22404 0.0
C665 C 0.38615 0.04364 0.16964 0.0
C666 C 0.39124 0.01665 0.15809 0.0
H667 H 0.95294 0.64895 0.72007 0.0
H668 H 0.91819 0.57622 0.77858 0.0
H669 H 0.95391 0.57214 0.84647 0.0
H670 H 0.02195 0.63136 0.73898 0.0
H671 H 0.03192 0.66339 0.76295 0.0
H672 H 1.00411 0.66039 0.71751 0.0
H673 H 0.97453 0.68518 0.78635 0.0
H674 H 1.00231 0.68803 0.832 0.0
H675 H 0.97197 0.67295 0.85464 0.0
H676 H 0.9947 0.57392 0.90344 0.0
H677 H 0.03636 0.58314 0.95172 0.0
H678 H 0.04251 0.6582 0.86861 0.0
C679 C 0.953 0.63218 0.74717 0.0
C680 C 0.93284 0.61274 0.74373 0.0
C681 C 0.93333 0.59132 0.78046 0.0
C682 C 0.95361 0.58881 0.81914 0.0
C683 C 0.9731 0.60821 0.82175 0.0
C684 C 0.97284 0.62974 0.78745 0.0
C685 C 0.99583 0.64818 0.80082 0.0
C686 C 0.01456 0.65099 0.75217 0.0
C687 C 0.98554 0.67519 0.81957 0.0
C688 C 0.00924 0.63335 0.84717 0.0
C689 C 0.99586 0.61019 0.8578 0.0
C690 C 1.00514 0.59217 0.89594 0.0
C691 C 0.0289 0.59765 0.92329 0.0
C692 C 0.04315 0.62123 0.91365 0.0
C693 C 0.03261 0.63972 0.87613 0.0
H694 H 0.62128 0.99928 0.12879 0.0
H695 H 0.64474 0.94001 0.24525 0.0
H696 H 0.64882 0.97357 0.31551 0.0
H697 H 0.66013 0.05479 0.18179 0.0
H698 H 0.63401 0.07875 0.17318 0.0
H699 H 0.63581 0.05058 0.12892 0.0
H700 H 0.5877 0.03807 0.15417 0.0
H701 H 0.58583 0.0662 0.19849 0.0
H702 H 0.57909 0.03368 0.22435 0.0
H703 H 0.65022 0.01247 0.37348 0.0
H704 H 0.64427 0.05407 0.42116 0.0
H705 H 0.61464 0.09058 0.2735 0.0
C706 C 0.62785 0.99362 0.16889 0.0
C707 C 0.63518 0.96708 0.18022 0.0
C708 C 0.64199 0.96024 0.23385 0.0
C709 C 0.64359 0.97927 0.27464 0.0
C710 C 0.63728 0.00526 0.26193 0.0
C711 C 0.62899 0.01257 0.21081 0.0
C712 C 0.6212 0.04173 0.21026 0.0
C713 C 0.63884 0.05739 0.17121 0.0
C714 C 0.5917 0.04511 0.19596 0.0
C715 C 0.62661 0.04946 0.26897 0.0
C716 C 0.6361 0.02794 0.29738 0.0
C717 C 0.64267 0.02946 0.35183 0.0
C718 C 0.63915 0.05342 0.37861 0.0
C719 C 0.62882 0.07594 0.35156 0.0
C720 C 0.62266 0.07391 0.29551 0.0
H721 H 0.97357 0.41428 0.86278 0.0
H722 H 0.97628 0.33191 0.90914 0.0
H723 H 0.01601 0.32552 0.852 0.0
H724 H 0.99283 0.40353 0.72296 0.0
H725 H 0.01206 0.43336 0.71854 0.0
H726 H 0.9842 0.43164 0.76387 0.0
H727 H 0.01449 0.44483 0.84398 0.0
H728 H 0.04251 0.44661 0.79909 0.0
H729 H 0.04391 0.42575 0.85809 0.0
H730 H 0.05686 0.32855 0.79276 0.0
H731 H 0.09369 0.34001 0.73085 0.0
H732 H 0.06343 0.41971 0.71787 0.0
C733 C 0.98263 0.39493 0.86101 0.0
C734 C 0.97196 0.37359 0.89086 0.0
C735 C 0.98413 0.34852 0.88679 0.0
C736 C 1.00674 0.34473 0.85446 0.0
C737 C 0.01685 0.36614 0.82567 0.0
C738 C 1.00502 0.39071 0.82812 0.0
C739 C 0.01945 0.41024 0.79193 0.0
C740 C 1.00104 0.42028 0.74664 0.0
C741 C 0.03076 0.43321 0.82528 0.0
C742 C 0.04151 0.39295 0.76942 0.0
C743 C 0.0397 0.3676 0.78972 0.0
C744 C 0.0583 0.34827 0.77632 0.0
C745 C 0.07918 0.35493 0.74126 0.0
C746 C 0.08124 0.3806 0.71944 0.0
C747 C 0.06211 0.39984 0.73366 0.0
H748 H 0.41575 0.47798 0.13836 0.0
H749 H 0.3311 0.46372 0.13193 0.0
H750 H 0.3256 0.50218 0.07116 0.0
H751 H 0.41053 0.55003 0.14149 0.0
H752 H 0.43984 0.55484 0.10115 0.0
H753 H 0.43704 0.52618 0.14384 0.0
H754 H 0.44535 0.49605 0.06103 0.0
H755 H 0.44805 0.5246 1.01807 0.0
H756 H 0.42439 0.49915 1.00219 0.0
H757 H 0.32994 0.54036 1.00523 0.0
H758 H 0.34297 0.57796 0.94716 0.0
H759 H 0.42411 0.57057 1.00311 0.0
C760 C 0.39601 0.48307 0.12449 0.0
C761 C 0.37387 0.46743 0.13904 0.0
C762 C 0.3484 0.47498 0.12043 0.0
C763 C 0.3451 0.49689 0.08603 0.0
C764 C 0.36739 0.51156 0.07155 0.0
C765 C 0.39231 0.50524 0.09099 0.0
C766 C 0.41294 0.52455 0.07004 0.0
C767 C 0.42585 0.5398 0.11693 0.0
C768 C 0.43392 0.51023 0.0358 0.0
C769 C 0.39581 0.54257 0.0353 0.0
C770 C 0.36962 0.53451 0.03627 0.0
C771 C 0.3503 0.54704 1.00491 0.0
C772 C 0.35787 0.56833 0.97193 0.0
C773 C 0.38441 0.57732 0.9712 0.0
C774 C 0.40358 0.56436 1.00367 0.0
H775 H 0.55282 0.62479 0.12662 0.0
H776 H 0.6128 0.6135 1.00291 0.0
H777 H 0.57852 0.61593 0.9325 0.0
H778 H 0.50227 0.5854 0.06043 0.0
H779 H 0.4751 0.60642 0.07992 0.0
H780 H 0.50434 0.6045 0.12177 0.0
H781 H 0.50966 0.65516 0.11566 0.0
H782 H 0.48049 0.65717 0.07356 0.0
H783 H 0.51142 0.67071 0.05016 0.0
H784 H 0.5381 0.61871 0.87415 0.0
H785 H 0.49347 0.62095 0.83238 0.0
H786 H 0.45844 0.62986 0.99113 0.0
C787 C 0.55873 0.62295 0.08472 0.0
C788 C 0.58578 0.61899 0.0708 0.0
C789 C 0.59244 0.6165 1.01525 0.0
C790 C 0.57302 0.61791 0.9746 0.0
C791 C 0.54672 0.62179 0.9895 0.0
C792 C 0.5394 0.62419 0.04316 0.0
C793 C 0.50941 0.62756 0.04755 0.0
C794 C 0.49706 0.6046 0.0793 0.0
C795 C 0.50234 0.65424 0.07326 0.0
C796 C 0.50123 0.62676 0.98814 0.0
C797 C 0.52316 0.62346 0.95547 0.0
C798 C 0.5208 0.62152 0.89932 0.0
C799 C 0.49542 0.62287 0.87587 0.0
C800 C 0.47263 0.62632 0.90824 0.0
C801 C 0.4756 0.62816 0.9652 0.0
H802 H 0.60182 0.53135 0.14659 0.0
H803 H 0.68612 0.54684 0.13644 0.0
H804 H 0.69125 0.50904 0.07407 0.0
H805 H 0.6088 0.4595 0.14874 0.0
H806 H 0.57886 0.45406 0.11038 0.0
H807 H 0.58177 0.4827 0.15305 0.0
H808 H 0.57115 0.51278 0.0711 0.0
H809 H 0.56832 0.48427 0.02813 0.0
H810 H 0.59104 0.5103 1.01084 0.0
H811 H 0.68642 0.47144 1.00716 0.0
H812 H 0.67322 0.43376 0.94964 0.0
H813 H 0.59305 0.43895 1.01114 0.0
C814 C 0.6214 0.52671 0.13144 0.0
C815 C 0.6435 0.54265 0.14501 0.0
C816 C 0.66879 0.53559 0.12505 0.0
C817 C 0.6719 0.51398 0.08994 0.0
C818 C 0.64963 0.49905 0.07634 0.0
C819 C 0.62494 0.50477 0.09738 0.0
C820 C 0.60438 0.48505 0.07768 0.0
C821 C 0.59277 0.4694 0.12531 0.0
C822 C 0.58243 0.49893 0.045 0.0
C823 C 0.62126 0.46753 0.04166 0.0
C824 C 0.64725 0.4762 0.04097 0.0
C825 C 0.66624 0.46426 1.00816 0.0
C826 C 0.65856 0.44291 0.97549 0.0
C827 C 0.63227 0.43325 0.97652 0.0
C828 C 0.61342 0.44565 1.01037 0.0
H829 H 0.45124 0.35827 0.08673 0.0
H830 H 0.41667 0.43134 0.02847 0.0
H831 H 0.45299 0.43587 0.96246 0.0
H832 H 0.52033 0.37537 0.07216 0.0
H833 H 0.53014 0.34338 0.04744 0.0
H834 H 0.50189 0.34643 0.09134 0.0
H835 H 0.47333 0.32246 1.01914 0.0
H836 H 0.50167 0.32007 0.97515 0.0
H837 H 0.47163 0.33556 0.95139 0.0
H838 H 0.49421 0.43447 0.90757 0.0
H839 H 0.53636 0.42578 0.86133 0.0
H840 H 0.54289 0.35056 0.94402 0.0
C841 C 0.45145 0.37519 0.06002 0.0
C842 C 0.43119 0.39462 0.06302 0.0
C843 C 0.43189 0.41625 1.02686 0.0
C844 C 0.45249 0.41901 0.98927 0.0
C845 C 0.4721 0.39963 0.98712 0.0
C846 C 0.47162 0.37788 1.02078 0.0
C847 C 0.49481 0.35954 1.00805 0.0
C848 C 0.51286 0.356 0.05774 0.0
C849 C 0.48476 0.33282 0.98719 0.0
C850 C 0.50881 0.37485 0.96335 0.0
C851 C 0.49529 0.39798 0.95244 0.0
C852 C 0.50478 0.41627 0.91531 0.0
C853 C 0.52885 0.4111 0.88916 0.0
C854 C 0.54332 0.3876 0.89914 0.0
C855 C 0.53269 0.36888 0.93591 0.0
H856 H 0.92543 0.43448 0.79843 0.0
H857 H 0.84381 0.42706 0.85012 0.0
H858 H 0.83119 0.46468 0.79171 0.0
H859 H 0.92611 0.50487 0.80041 0.0
H860 H 0.94728 0.50845 0.74228 0.0
H861 H 0.94957 0.47931 0.78366 0.0
H862 H 0.94126 0.45008 0.69957 0.0
H863 H 0.93899 0.47912 0.65776 0.0
H864 H 0.9122 0.45567 0.65851 0.0
H865 H 0.82737 0.50369 0.72851 0.0
H866 H 0.83325 0.54314 0.67089 0.0
H867 H 0.91786 0.52819 0.66536 0.0
C868 C 0.90486 0.44057 0.79651 0.0
C869 C 0.88544 0.42763 0.82806 0.0
C870 C 0.85887 0.43656 0.82584 0.0
C871 C 0.85153 0.4579 0.79272 0.0
C872 C 0.87108 0.47051 0.76249 0.0
C873 C 0.89726 0.46235 0.76439 0.0
C874 C 0.9146 0.4806 0.73083 0.0
C875 C 0.93563 0.4941 0.76643 0.0
C876 C 0.92752 0.46547 0.68388 0.0
C877 C 0.89414 0.50034 0.71022 0.0
C878 C 0.8691 0.49388 0.72833 0.0
C879 C 0.84694 0.50901 0.71441 0.0
C880 C 0.85046 0.53148 0.6818 0.0
C881 C 0.87601 0.53909 0.66427 0.0
C882 C 0.89806 0.52303 0.67833 0.0
H883 H 0.51983 0.15514 0.4246 0.0
H884 H 0.57031 0.0935 0.36031 0.0
H885 H 0.53885 0.08617 0.28595 0.0
H886 H 0.45918 0.11996 0.39906 0.0
H887 H 0.43973 0.14856 0.38136 0.0
H888 H 0.46748 0.15172 0.42693 0.0
H889 H 0.48806 0.18725 0.36485 0.0
H890 H 0.46024 0.18435 0.3193 0.0
H891 H 0.49351 0.17994 0.29438 0.0
H892 H 0.50248 0.0847 0.21885 0.0
H893 H 0.4615 0.08726 0.16475 0.0
H894 H 0.42997 0.14602 0.27467 0.0
C895 C 0.5244 0.14053 0.39411 0.0
C896 C 0.54816 0.12551 0.39739 0.0
C897 C 0.55285 0.10583 0.35794 0.0
C898 C 0.53491 0.10137 0.31556 0.0
C899 C 0.51166 0.11617 0.31359 0.0
C900 C 0.50605 0.13518 0.35195 0.0
C901 C 0.47845 0.1467 0.34183 0.0
C902 C 0.46013 0.14142 0.39019 0.0
C903 C 0.48017 0.17632 0.32935 0.0
C904 C 0.46959 0.13116 0.29204 0.0
C905 C 0.48942 0.11398 0.27633 0.0
C906 C 0.48675 0.09798 0.2309 0.0
C907 C 0.46336 0.09959 0.20034 0.0
C908 C 0.44244 0.11667 0.21543 0.0
C909 C 0.44549 0.13254 0.26242 0.0
H910 H 0.12912 0.58843 0.75876 0.0
H911 H 0.1193 0.54806 0.91241 0.0
H912 H 0.122 0.50537 0.86634 0.0
H913 H 0.09155 0.54173 0.67699 0.0
H914 H 0.11352 0.54321 0.61968 0.0
H915 H 0.11029 0.57126 0.66387 0.0
H916 H 0.16096 0.57117 0.67969 0.0
H917 H 0.16438 0.54303 0.63578 0.0
H918 H 0.17699 0.54165 0.70404 0.0
H919 H 0.12322 0.46708 0.80553 0.0
H920 H 0.12596 0.43462 0.73272 0.0
H921 H 0.13908 0.4969 0.61598 0.0
C922 C 0.12744 0.57058 0.78248 0.0
C923 C 0.12402 0.57177 0.8395 0.0
C924 C 0.12214 0.54786 0.86898 0.0
C925 C 0.12355 0.52339 0.84312 0.0
C926 C 0.12717 0.52279 0.7874 0.0
C927 C 0.12929 0.5456 0.75715 0.0
C928 C 0.13374 0.53877 0.69768 0.0
C929 C 0.11091 0.54937 0.66247 0.0
C930 C 0.16062 0.54929 0.67815 0.0
C931 C 0.13363 0.50867 0.69967 0.0
C932 C 0.12955 0.50012 0.75203 0.0
C933 C 0.12714 0.47349 0.76457 0.0
C934 C 0.12909 0.455 0.72274 0.0
C935 C 0.13435 0.46282 0.66893 0.0
C936 C 0.13624 0.49018 0.65715 0.0
H937 H 0.54964 0.8852 0.18341 0.0
H938 H 0.61085 0.89616 0.30523 0.0
H939 H 0.57744 0.89265 0.37684 0.0
H940 H 0.49954 0.92372 0.25234 0.0
H941 H 0.4724 0.90267 0.23285 0.0
H942 H 0.50121 0.90516 0.19027 0.0
H943 H 0.50708 0.85448 0.19445 0.0
H944 H 0.47836 0.85197 0.23733 0.0
H945 H 0.50963 0.8384 0.25934 0.0
H946 H 0.53754 0.88901 0.43647 0.0
H947 H 0.49327 0.88595 0.47922 0.0
H948 H 0.45706 0.87853 0.32092 0.0
C949 C 0.55604 0.88671 0.22514 0.0
C950 C 0.58319 0.89063 0.23827 0.0
C951 C 0.59045 0.89279 0.29362 0.0
C952 C 0.57153 0.89089 0.33489 0.0
C953 C 0.5451 0.88697 0.32071 0.0
C954 C 0.53722 0.88501 0.26722 0.0
C955 C 0.50726 0.88151 0.26351 0.0
C956 C 0.49435 0.90465 0.23294 0.0
C957 C 0.50017 0.85501 0.23709 0.0
C958 C 0.49973 0.88178 0.32312 0.0
C959 C 0.52192 0.8849 0.35534 0.0
C960 C 0.52005 0.88633 0.41163 0.0
C961 C 0.49488 0.88454 0.43562 0.0
C962 C 0.47189 0.88116 0.40358 0.0
C963 C 0.47438 0.87998 0.34656 0.0
H964 H 0.89483 0.99669 0.68673 0.0
H965 H 0.86623 0.93804 0.57411 0.0
H966 H 0.86291 0.97154 0.50275 0.0
H967 H 0.85588 0.05257 0.63648 0.0
H968 H 0.88237 0.07617 0.64306 0.0
H969 H 0.88111 0.04801 0.68747 0.0
H970 H 0.92857 0.0348 0.65859 0.0
H971 H 0.92995 0.06293 0.61413 0.0
H972 H 0.93585 0.03033 0.58781 0.0
H973 H 0.86223 0.01034 0.4436 0.0
H974 H 0.86801 0.05212 0.39564 0.0
H975 H 0.89986 0.08778 0.54187 0.0
C976 C 0.88747 0.99111 0.64719 0.0
C977 C 0.87902 0.96485 0.63694 0.0
C978 C 0.87058 0.95815 0.58424 0.0
C979 C 0.86917 0.97707 0.54305 0.0
C980 C 0.87668 1.00282 0.55469 0.0
C981 C 0.88603 0.00998 0.60512 0.0
C982 C 0.89413 0.03899 0.60507 0.0
C983 C 0.87737 0.05487 0.64542 0.0
C984 C 0.9239 0.04193 0.61712 0.0
C985 C 0.88774 0.04682 0.54682 0.0
C986 C 0.87759 0.02548 0.51898 0.0
C987 C 0.87025 0.0272 0.46485 0.0
C988 C 0.87366 0.05119 0.4379 0.0
C989 C 0.88448 0.0735 0.46458 0.0
C990 C 0.89139 0.07126 0.52023 0.0
H991 H 0.09081 0.1351 0.51814 0.0
H992 H 0.05418 0.09602 0.65499 0.0
H993 H 0.01144 0.09543 0.60673 0.0
H994 H 0.03413 0.17732 0.48816 0.0
H995 H 0.03801 0.17585 0.41575 0.0
H996 H 0.06652 0.1723 0.45928 0.0
H997 H 0.07774 0.12762 0.41436 0.0
H998 H 0.04935 0.1311 0.37048 0.0
H999 H 0.05294 0.10212 0.41207 0.0
H1000 H 0.97349 0.09609 0.54293 0.0
H1001 H 0.94096 0.10175 0.46997 0.0
H1002 H 0.99825 0.14576 0.37619 0.0
C1003 C 0.07378 0.12629 0.53759 0.0
C1004 C 0.07594 0.11545 0.59045 0.0
C1005 C 0.05308 0.10448 0.61478 0.0
C1006 C 0.02867 0.10398 0.58758 0.0
C1007 C 0.02703 0.115 0.53607 0.0
C1008 C 0.04878 0.12625 0.5113 0.0
C1009 C 0.04084 0.13758 0.45629 0.0
C1010 C 0.04513 0.16755 0.4548 0.0
C1011 C 0.05613 0.12378 0.41059 0.0
C1012 C 0.01135 0.13078 0.45423 0.0
C1013 C 1.00412 0.11739 0.50057 0.0
C1014 C 0.97872 0.10721 0.50714 0.0
C1015 C 0.96014 0.1108 0.4655 0.0
C1016 C 0.96638 0.1254 0.41844 0.0
C1017 C 0.9925 0.13546 0.41268 0.0
H1018 H 0.11015 0.92063 0.53297 0.0
H1019 H 0.13768 0.95757 0.38466 0.0
H1020 H 0.1453 0.99877 0.43337 0.0
H1021 H 0.076 0.97839 0.5846 0.0
H1022 H 0.08516 0.97294 0.65427 0.0
H1023 H 0.08212 0.94539 0.60874 0.0
H1024 H 0.13004 0.93103 0.6318 0.0
H1025 H 0.13326 0.95857 0.67736 0.0
H1026 H 0.15681 0.95416 0.62339 0.0
H1027 H 0.14857 0.03679 0.49475 0.0
H1028 H 0.14776 0.06949 0.56752 0.0
H1029 H 0.1201 0.01048 0.68018 0.0
C1030 C 0.11787 0.93737 0.5109 0.0
C1031 C 0.12324 0.93551 0.45453 0.0
C1032 C 0.13324 0.9581 0.42748 0.0
C1033 C 0.13774 0.9818 0.45488 0.0
C1034 C 0.13221 0.98305 0.50986 0.0
C1035 C 0.1225 0.96158 0.53792 0.0
C1036 C 0.118 0.96896 0.59711 0.0
C1037 C 0.08857 0.96626 0.61205 0.0
C1038 C 0.13558 0.95218 0.63463 0.0
C1039 C 0.12666 0.99782 0.5974 0.0
C1040 C 0.1348 0.0053 0.54638 0.0
C1041 C 0.14293 0.03095 0.53524 0.0
C1042 C 0.14304 0.04944 0.57731 0.0
C1043 C 0.13552 0.04248 0.6304 0.0
C1044 C 0.12672 0.0163 0.6403 0.0
H1045 H 0.01118 0.89114 0.3678 0.0
H1046 H 0.07229 0.86449 0.47821 0.0
H1047 H 0.04023 0.86375 0.55252 0.0
H1048 H 0.97908 0.93442 0.46418 0.0
H1049 H 0.9458 0.92776 0.44126 0.0
H1050 H 0.97314 0.92512 0.3948 0.0
H1051 H 0.95965 0.87717 0.37262 0.0
H1052 H 0.93223 0.87971 0.41893 0.0
H1053 H 0.95624 0.85362 0.42681 0.0
H1054 H 1.00268 0.86582 0.61525 0.0
H1055 H 0.96144 0.87224 0.66543 0.0
H1056 H 0.92224 0.89906 0.51841 0.0
C1057 C 0.0176 0.88472 0.40752 0.0
C1058 C 0.0442 0.8764 0.41644 0.0
C1059 C 0.05195 0.86906 0.46928 0.0
C1060 C 0.03385 0.86905 0.51215 0.0
C1061 C 0.00779 0.87663 0.50196 0.0
C1062 C 0.9995 0.88448 0.45116 0.0
C1063 C 0.97029 0.8925 0.45259 0.0
C1064 C 0.96689 0.92169 0.4373 0.0
C1065 C 0.95362 0.87468 0.41553 0.0
C1066 C 0.96367 0.88784 0.51208 0.0
C1067 C 0.98578 0.87869 0.53937 0.0
C1068 C 0.98521 0.873 0.59438 0.0
C1069 C 0.9615 0.87677 0.62262 0.0
C1070 C 0.9383 0.88622 0.5963 0.0
C1071 C 0.93949 0.89177 0.53992 0.0
H1072 H 0.32675 0.19747 0.10564 0.0
H1073 H 0.41143 0.18278 0.10957 0.0
H1074 H 0.41932 0.23034 0.12651 0.0
H1075 H 0.32907 0.26234 0.04151 0.0
H1076 H 0.30201 0.27477 0.08162 0.0
H1077 H 0.30375 0.24021 0.06541 0.0
H1078 H 0.30136 0.22895 0.16756 0.0
H1079 H 0.30011 0.26347 0.18415 0.0
H1080 H 0.32551 0.2428 0.21327 0.0
H1081 H 0.41728 0.28007 0.14833 0.0
H1082 H 0.40569 0.32676 0.16656 0.0
H1083 H 0.32229 0.30757 0.1512 0.0
C1084 C 0.34702 0.20428 0.10897 0.0
C1085 C 0.3685 0.18635 0.1059 0.0
C1086 C 0.39468 0.19613 0.11118 0.0
C1087 C 0.39931 0.22311 0.1212 0.0
C1088 C 0.37757 0.24008 0.12587 0.0
C1089 C 0.35195 0.23098 0.11936 0.0
C1090 C 0.33186 0.25283 0.12794 0.0
C1091 C 0.31573 0.25783 0.07603 0.0
C1092 C 0.31364 0.24663 0.17609 0.0
C1093 C 0.35007 0.27574 0.14052 0.0
C1094 C 0.37639 0.26812 0.13915 0.0
C1095 C 0.39671 0.28614 0.14937 0.0
C1096 C 0.38995 0.31262 0.16003 0.0
C1097 C 0.36309 0.32086 0.16056 0.0
C1098 C 0.34301 0.30194 0.1514 0.0
H1099 H 0.31499 0.62821 0.95994 0.0
H1100 H 0.32827 0.65726 0.79729 0.0
H1101 H 0.27964 0.66105 0.78379 0.0
H1102 H 0.25344 0.59064 0.9291 0.0
H1103 H 0.23881 0.59892 0.99334 0.0
H1104 H 0.27429 0.59583 0.98747 0.0
H1105 H 0.27977 0.64295 1.02604 0.0
H1106 H 0.24436 0.64634 0.03137 0.0
H1107 H 0.26315 0.67012 0.99327 0.0
H1108 H 0.23005 0.66688 0.79268 0.0
H1109 H 0.18317 0.6711 0.81976 0.0
H1110 H 0.20161 0.63682 0.97611 0.0
C1111 C 0.30763 0.63481 0.921 0.0
C1112 C 0.32537 0.64242 0.87952 0.0
C1113 C 0.31504 0.65113 0.82934 0.0
C1114 C 0.28746 0.65342 0.8215 0.0
C1115 C 0.27053 0.64657 0.86396 0.0
C1116 C 0.28023 0.63701 0.91244 0.0
C1117 C 0.25796 0.63208 0.9525 0.0
C1118 C 0.25601 0.60261 0.96641 0.0
C1119 C 0.26153 0.64888 1.00381 0.0
C1120 C 0.23417 0.64115 0.9197 0.0
C1121 C 0.2419 0.64937 0.86867 0.0
C1122 C 0.22379 0.66013 0.83216 0.0
C1123 C 0.19722 0.66259 0.84806 0.0
C1124 C 0.18879 0.65424 0.89998 0.0
C1125 C 0.20748 0.64309 0.93601 0.0
H1126 H 0.69325 0.81222 0.11966 0.0
H1127 H 0.60888 0.82861 0.12265 0.0
H1128 H 0.60003 0.78129 0.1403 0.0
H1129 H 0.68944 0.74732 0.05628 0.0
H1130 H 0.71629 0.73437 0.09662 0.0
H1131 H 0.71527 0.76894 0.08013 0.0
H1132 H 0.71807 0.78026 0.1822 0.0
H1133 H 0.71861 0.74574 0.19907 0.0
H1134 H 0.69371 0.76698 0.22791 0.0
H1135 H 0.60103 0.73153 0.16235 0.0
H1136 H 0.61163 0.68455 0.18043 0.0
H1137 H 0.69542 0.70207 0.16608 0.0
C1138 C 0.67284 0.80583 0.12298 0.0
C1139 C 0.65173 0.82418 0.11939 0.0
C1140 C 0.62537 0.81493 0.12469 0.0
C1141 C 0.62018 0.78809 0.13509 0.0
C1142 C 0.64157 0.77069 0.14018 0.0
C1143 C 0.66737 0.77926 0.13376 0.0
C1144 C 0.68699 0.75699 0.14262 0.0
C1145 C 0.70293 0.75159 0.09083 0.0
C1146 C 0.70542 0.76286 0.19081 0.0
C1147 C 0.66831 0.73448 0.15528 0.0
C1148 C 0.64216 0.74265 0.15367 0.0
C1149 C 0.62147 0.72503 0.16363 0.0
C1150 C 0.62766 0.69839 0.17422 0.0
C1151 C 0.65434 0.68958 0.17499 0.0
C1152 C 0.67482 0.70812 0.16619 0.0
H1153 H 0.81441 0.31543 0.93873 0.0
H1154 H 0.8311 0.39919 0.93209 0.0
H1155 H 0.78347 0.40832 0.91719 0.0
H1156 H 0.76534 0.314 0.83647 0.0
H1157 H 0.74436 0.2903 0.8697 0.0
H1158 H 0.77953 0.29025 0.88253 0.0
H1159 H 0.77113 0.29503 0.98538 0.0
H1160 H 0.73593 0.29465 0.97297 0.0
H1161 H 0.75064 0.32166 1.00958 0.0
H1162 H 0.73427 0.40799 0.89567 0.0
H1163 H 0.6867 0.39879 0.88097 0.0
H1164 H 0.70139 0.31538 0.9055 0.0
C1165 C 0.80797 0.33573 0.93508 0.0
C1166 C 0.82657 0.35662 0.93637 0.0
C1167 C 0.8173 0.38288 0.93124 0.0
C1168 C 0.79026 0.38824 0.92251 0.0
C1169 C 0.77258 0.36715 0.91969 0.0
C1170 C 0.78098 0.34145 0.92687 0.0
C1171 C 0.75791 0.32237 0.92214 0.0
C1172 C 0.76204 0.3031 0.8749 0.0
C1173 C 0.75365 0.30756 0.97571 0.0
C1174 C 0.73525 0.3413 0.91055 0.0
C1175 C 0.74418 0.36703 0.9089 0.0
C1176 C 0.72705 0.38794 0.89752 0.0
C1177 C 0.70004 0.38251 0.88899 0.0
C1178 C 0.69023 0.35641 0.89245 0.0
C1179 C 0.70825 0.33555 0.9027 0.0
H1180 H 0.82216 0.69867 0.65114 0.0
H1181 H 0.90623 0.68121 0.64356 0.0
H1182 H 0.91628 0.72822 0.66208 0.0
H1183 H 0.82499 0.76299 0.58799 0.0
H1184 H 0.79956 0.77652 0.63091 0.0
H1185 H 0.79962 0.74187 0.61528 0.0
H1186 H 0.79977 0.7311 0.7178 0.0
H1187 H 0.80017 0.76573 0.73373 0.0
H1188 H 0.82561 0.74432 0.76034 0.0
H1189 H 0.91665 0.77803 0.68359 0.0
H1190 H 0.90727 0.82544 0.69916 0.0
H1191 H 0.82296 0.80907 0.69496 0.0
C1192 C 0.84272 0.70474 0.65274 0.0
C1193 C 0.86342 0.68622 0.64567 0.0
C1194 C 0.89003 0.69504 0.64845 0.0
C1195 C 0.89591 0.72169 0.65931 0.0
C1196 C 0.87497 0.73932 0.66738 0.0
C1197 C 0.84889 0.73114 0.66376 0.0
C1198 C 0.82989 0.75374 0.67418 0.0
C1199 C 0.8125 0.7591 0.62411 0.0
C1200 C 0.81286 0.74839 0.72451 0.0
C1201 C 0.84924 0.77603 0.68414 0.0
C1202 C 0.87518 0.76744 0.68024 0.0
C1203 C 0.89638 0.78486 0.68681 0.0
C1204 C 0.89089 0.81176 0.69604 0.0
C1205 C 0.8644 0.82103 0.69863 0.0
C1206 C 0.84345 0.80266 0.69369 0.0
H1207 H 0.81226 0.19256 0.38473 0.0
H1208 H 0.82753 0.10851 0.37696 0.0
H1209 H 0.78033 0.09975 0.39701 0.0
H1210 H 0.7667 0.19108 0.49394 0.0
H1211 H 0.74519 0.21635 0.46717 0.0
H1212 H 0.77986 0.21618 0.44996 0.0
H1213 H 0.76803 0.21542 0.34794 0.0
H1214 H 0.73332 0.21603 0.36483 0.0
H1215 H 0.74623 0.19018 0.32237 0.0
H1216 H 0.73153 0.10022 0.42359 0.0
H1217 H 0.68449 0.1098 0.44369 0.0
H1218 H 0.70052 0.19356 0.43215 0.0
C1219 C 0.80558 0.17231 0.38641 0.0
C1220 C 0.8237 0.15121 0.37915 0.0
C1221 C 0.81411 0.12501 0.38201 0.0
C1222 C 0.78731 0.11984 0.39376 0.0
C1223 C 0.77015 0.14107 0.40219 0.0
C1224 C 0.77883 0.1668 0.39775 0.0
C1225 C 0.75632 0.18607 0.40834 0.0
C1226 C 0.76239 0.20344 0.4578 0.0
C1227 C 0.75064 0.20292 0.35786 0.0
C1228 C 0.73366 0.16721 0.41986 0.0
C1229 C 0.74209 0.14133 0.41649 0.0
C1230 C 0.72474 0.12043 0.42598 0.0
C1231 C 0.69803 0.12607 0.43774 0.0
C1232 C 0.68869 0.15243 0.43961 0.0
C1233 C 0.70699 0.17321 0.43127 0.0
H1234 H 0.19401 0.30768 0.62897 0.0
H1235 H 0.11003 0.32501 0.61594 0.0
H1236 H 0.09977 0.27839 0.63736 0.0
H1237 H 0.19162 0.24174 0.5713 0.0
H1238 H 0.21661 0.22922 0.61686 0.0
H1239 H 0.21678 0.26346 0.59768 0.0
H1240 H 0.21573 0.27659 0.69895 0.0
H1241 H 0.21504 0.24239 0.7184 0.0
H1242 H 0.18944 0.26449 0.74144 0.0
H1243 H 0.09904 0.22914 0.66364 0.0
H1244 H 0.1081 0.18215 0.68468 0.0
H1245 H 0.19248 0.19824 0.68311 0.0
C1246 C 0.17344 0.30162 0.62969 0.0
C1247 C 0.15283 0.32005 0.62035 0.0
C1248 C 0.12619 0.31125 0.62236 0.0
C1249 C 0.12017 0.28482 0.63492 0.0
C1250 C 0.141 0.26733 0.64548 0.0
C1251 C 0.16712 0.27541 0.64243 0.0
C1252 C 0.18594 0.25304 0.65615 0.0
C1253 C 0.20378 0.24647 0.60761 0.0
C1254 C 0.20251 0.25953 0.70674 0.0
C1255 C 0.16643 0.23102 0.66739 0.0
C1256 C 0.14057 0.23955 0.6612 0.0
C1257 C 0.11925 0.22236 0.6686 0.0
C1258 C 0.12456 0.1957 0.681 0.0
C1259 C 0.15098 0.18644 0.68592 0.0
C1260 C 0.17204 0.20464 0.6801 0.0
H1261 H 0.31743 0.84718 0.33035 0.0
H1262 H 0.32334 0.88295 0.48913 0.0
H1263 H 0.2742 0.88771 0.4911 0.0
H1264 H 0.26441 0.88631 0.27853 0.0
H1265 H 0.24893 0.85946 0.24278 0.0
H1266 H 0.28423 0.85925 0.25408 0.0
H1267 H 0.28094 0.81373 0.30106 0.0
H1268 H 0.24572 0.81358 0.28918 0.0
H1269 H 0.25843 0.80949 0.35691 0.0
H1270 H 0.22401 0.89049 0.4718 0.0
H1271 H 0.17765 0.885 0.44086 0.0
H1272 H 0.2051 0.8443 0.29751 0.0
C1273 C 0.30846 0.85595 0.36581 0.0
C1274 C 0.32425 0.86486 0.40963 0.0
C1275 C 0.31165 0.87593 0.45532 0.0
C1276 C 0.28378 0.87885 0.45646 0.0
C1277 C 0.26888 0.87027 0.4119 0.0
C1278 C 0.28087 0.85855 0.36793 0.0
C1279 C 0.26064 0.84995 0.32594 0.0
C1280 C 0.26481 0.86462 0.27216 0.0
C1281 C 0.26148 0.8199 0.31783 0.0
C1282 C 0.23515 0.85856 0.35293 0.0
C1283 C 0.24032 0.87074 0.402 0.0
C1284 C 0.21987 0.88089 0.43362 0.0
C1285 C 0.1936 0.87791 0.41542 0.0
C1286 C 0.18783 0.86454 0.36639 0.0
C1287 C 0.20895 0.85489 0.33473 0.0
H1288 H 0.19597 0.11718 0.86021 0.0
H1289 H 0.2422 0.08518 0.72767 0.0
H1290 H 0.2803 0.07936 0.78954 0.0
H1291 H 0.25072 0.15388 0.92056 0.0
H1292 H 0.24024 0.14835 0.9893 0.0
H1293 H 0.21608 0.14919 0.93548 0.0
H1294 H 0.19955 0.10362 0.96481 0.0
H1295 H 0.22411 0.10163 1.01764 0.0
H1296 H 0.22219 0.07609 0.96712 0.0
H1297 H 0.31321 0.07601 0.86498 0.0
H1298 H 0.34088 0.07941 0.94616 0.0
H1299 H 0.27598 0.11617 0.03302 0.0
C1300 C 0.21409 0.10885 0.84417 0.0
C1301 C 0.21581 0.10146 0.78848 0.0
C1302 C 0.24013 0.091 0.7696 0.0
C1303 C 0.26192 0.0875 0.80471 0.0
C1304 C 0.25951 0.09481 0.85904 0.0
C1305 C 0.23637 0.10563 0.87873 0.0
C1306 C 0.2398 0.11301 0.93852 0.0
C1307 C 0.23652 0.14289 0.94642 0.0
C1308 C 0.22025 0.09765 0.97412 0.0
C1309 C 0.26841 0.10439 0.94947 0.0
C1310 C 0.2791 0.09377 0.90276 0.0
C1311 C 0.30502 0.08446 0.90151 0.0
C1312 C 0.3207 0.08658 0.94825 0.0
C1313 C 0.31104 0.09825 0.99662 0.0
C1314 C 0.28412 0.10689 0.99732 0.0
H1315 H 0.11536 0.7415 1.00768 0.0
H1316 H 0.0824 0.6744 0.09258 0.0
H1317 H 0.07853 0.70088 0.17551 0.0
H1318 H 0.15396 0.76531 0.11804 0.0
H1319 H 0.14845 0.79988 0.10537 0.0
H1320 H 0.14693 0.77666 0.05035 0.0
H1321 H 0.09969 0.79272 1.02631 0.0
H1322 H 0.10127 0.81613 0.08107 0.0
H1323 H 0.07441 0.7928 0.07773 0.0
H1324 H 0.08174 0.73313 0.25278 0.0
H1325 H 0.08789 0.77042 0.31598 0.0
H1326 H 0.11708 0.81836 0.18352 0.0
C1327 C 0.10643 0.73275 0.04315 0.0
C1328 C 0.09861 0.7058 0.0428 0.0
C1329 C 0.08806 0.69498 0.09115 0.0
C1330 C 0.08593 0.70988 0.13884 0.0
C1331 C 0.09432 0.736 0.1385 0.0
C1332 C 0.104 0.74759 0.09181 0.0
C1333 C 0.11238 0.77595 0.10384 0.0
C1334 C 0.1422 0.77966 0.09379 0.0
C1335 C 0.09595 0.79555 0.07022 0.0
C1336 C 0.10591 0.77829 0.1641 0.0
C1337 C 0.09575 0.75487 0.18328 0.0
C1338 C 0.08936 0.7517 0.23795 0.0
C1339 C 0.09304 0.77303 0.27382 0.0
C1340 C 0.10278 0.79759 0.2553 0.0
C1341 C 0.10931 0.80003 0.19934 0.0
H1342 H 0.74332 0.8947 0.0417 0.0
H1343 H 0.67716 0.93043 0.95612 0.0
H1344 H 0.70372 0.93304 0.8735 0.0
H1345 H 0.79552 0.93408 0.97284 0.0
H1346 H 0.8186 0.90697 0.96942 0.0
H1347 H 0.79493 0.90864 1.02381 0.0
H1348 H 0.77807 0.86213 0.99867 0.0
H1349 H 0.80161 0.86051 0.9441 0.0
H1350 H 0.76681 0.85576 0.93062 0.0
H1351 H 0.73584 0.92911 0.7969 0.0
H1352 H 0.7734 0.92279 0.73419 0.0
H1353 H 0.82084 0.89189 0.86671 0.0
C1354 C 0.73467 0.90359 1.00593 0.0
C1355 C 0.7078 0.91219 1.00594 0.0
C1356 C 0.69738 0.92333 0.95756 0.0
C1357 C 0.7124 0.925 0.91007 0.0
C1358 C 0.73834 0.91571 0.91068 0.0
C1359 C 0.74968 0.90559 0.9574 0.0
C1360 C 0.77809 0.8968 0.94578 0.0
C1361 C 0.79795 0.91257 0.98002 0.0
C1362 C 0.78132 0.86703 0.95537 0.0
C1363 C 0.78068 0.90356 0.88571 0.0
C1364 C 0.75735 0.91422 0.86632 0.0
C1365 C 0.75436 0.92108 0.81182 0.0
C1366 C 0.77582 0.91732 0.77628 0.0
C1367 C 0.8003 0.90704 0.79505 0.0
C1368 C 0.80256 0.90007 0.85081 0.0
H1369 H 0.89705 0.26706 1.01816 0.0
H1370 H 0.93376 0.33253 0.1028 0.0
H1371 H 0.93751 0.30569 0.18495 0.0
H1372 H 0.85877 0.24439 0.12979 0.0
H1373 H 0.86292 0.20963 0.11755 0.0
H1374 H 0.86454 0.23262 0.06202 0.0
H1375 H 0.91086 0.21526 0.03597 0.0
H1376 H 0.90968 0.19185 0.09088 0.0
H1377 H 0.93692 0.21461 0.086 0.0
H1378 H 0.93527 0.27315 0.26115 0.0
H1379 H 0.92883 0.23596 0.3243 0.0
H1380 H 0.89398 0.19017 0.19398 0.0
C1381 C 0.90647 0.27547 0.05355 0.0
C1382 C 0.91524 0.30214 0.05323 0.0
C1383 C 0.92685 0.31234 0.10132 0.0
C1384 C 0.9291 0.29719 0.14862 0.0
C1385 C 0.91978 0.27142 0.14826 0.0
C1386 C 0.9089 0.26041 0.10199 0.0
C1387 C 0.89976 0.23231 0.11411 0.0
C1388 C 0.86971 0.22958 0.10531 0.0
C1389 C 0.91521 0.21232 0.07967 0.0
C1390 C 0.90695 0.22959 0.17404 0.0
C1391 C 0.91852 0.25244 0.19274 0.0
C1392 C 0.92641 0.25505 0.24677 0.0
C1393 C 0.9226 0.23376 0.28259 0.0
C1394 C 0.91095 0.20989 0.26477 0.0
C1395 C 0.90303 0.208 0.20939 0.0
H1396 H 0.2681 0.39063 0.25788 0.0
H1397 H 0.33656 0.42321 0.34076 0.0
H1398 H 0.31073 0.42735 0.42422 0.0
H1399 H 0.21783 0.43149 0.3287 0.0
H1400 H 0.19393 0.4053 0.33419 0.0
H1401 H 0.21687 0.40581 0.27836 0.0
H1402 H 0.23257 0.35904 0.30312 0.0
H1403 H 0.21031 0.35801 0.36006 0.0
H1404 H 0.24524 0.35248 0.37008 0.0
H1405 H 0.27891 0.42559 0.50193 0.0
H1406 H 0.24201 0.4205 0.56646 0.0
H1407 H 0.19252 0.38972 0.43719 0.0
C1408 C 0.27741 0.39918 0.29324 0.0
C1409 C 0.3046 0.40674 0.29199 0.0
C1410 C 0.31595 0.41723 0.34004 0.0
C1411 C 0.30139 0.41965 0.38809 0.0
C1412 C 0.27507 0.41151 0.38864 0.0
C1413 C 0.26296 0.4017 0.34251 0.0
C1414 C 0.23444 0.39375 0.35567 0.0
C1415 C 0.21459 0.41005 0.32221 0.0
C1416 C 0.2304 0.36405 0.34665 0.0
C1417 C 0.23264 0.40063 0.41586 0.0
C1418 C 0.25643 0.41075 0.43391 0.0
C1419 C 0.26009 0.41788 0.48805 0.0
C1420 C 0.23893 0.41486 0.52467 0.0
C1421 C 0.21406 0.40484 0.50759 0.0
C1422 C 0.21109 0.39762 0.45204 0.0
H1423 H 0.421 0.74024 0.78615 0.0
H1424 H 0.37742 0.67661 0.7095 0.0
H1425 H 0.37413 0.70215 0.62578 0.0
H1426 H 0.38163 0.79364 0.71866 0.0
H1427 H 0.40978 0.81511 0.71102 0.0
H1428 H 0.40854 0.79223 0.76675 0.0
H1429 H 0.45374 0.77297 0.73741 0.0
H1430 H 0.4549 0.79561 0.68126 0.0
H1431 H 0.45768 0.76065 0.66948 0.0
H1432 H 0.37802 0.73262 0.54639 0.0
H1433 H 0.3839 0.76896 0.4809 0.0
H1434 H 0.42156 0.81569 0.60639 0.0
C1435 C 0.41032 0.73197 0.75214 0.0
C1436 C 0.39986 0.70594 0.75491 0.0
C1437 C 0.38615 0.6961 0.70878 0.0
C1438 C 0.38409 0.71053 0.66057 0.0
C1439 C 0.39535 0.73545 0.65818 0.0
C1440 C 0.40766 0.74651 0.70292 0.0
C1441 C 0.41748 0.77414 0.68846 0.0
C1442 C 0.40352 0.79501 0.72331 0.0
C1443 C 0.44775 0.77594 0.69452 0.0
C1444 C 0.40911 0.77642 0.62896 0.0
C1445 C 0.3966 0.75368 0.61237 0.0
C1446 C 0.38773 0.75058 0.55903 0.0
C1447 C 0.39128 0.77135 0.5218 0.0
C1448 C 0.40319 0.79536 0.53781 0.0
C1449 C 0.41232 0.79768 0.59241 0.0
H1450 H 0.69436 0.61644 0.36469 0.0
H1451 H 0.74672 0.59352 0.2337 0.0
H1452 H 0.78341 0.58852 0.29901 0.0
H1453 H 0.74332 0.65444 0.43936 0.0
H1454 H 0.73139 0.64461 0.50502 0.0
H1455 H 0.70896 0.64582 0.44819 0.0
H1456 H 0.69639 0.59696 0.46543 0.0
H1457 H 0.71896 0.59597 0.52202 0.0
H1458 H 0.72217 0.57237 0.46792 0.0
H1459 H 0.81475 0.58613 0.37682 0.0
H1460 H 0.83998 0.58863 0.46141 0.0
H1461 H 0.76936 0.61408 0.54689 0.0
C1462 C 0.71352 0.61026 0.34968 0.0
C1463 C 0.71736 0.60529 0.29329 0.0
C1464 C 0.74295 0.59746 0.27604 0.0
C1465 C 0.76402 0.59448 0.31311 0.0
C1466 C 0.75954 0.59942 0.36796 0.0
C1467 C 0.735 0.60729 0.38643 0.0
C1468 C 0.73609 0.61206 0.4477 0.0
C1469 C 0.72955 0.64095 0.46084 0.0
C1470 C 0.71728 0.59322 0.47753 0.0
C1471 C 0.76512 0.60569 0.46066 0.0
C1472 C 0.77801 0.59831 0.41363 0.0
C1473 C 0.80481 0.59186 0.41374 0.0
C1474 C 0.81904 0.5934 0.46244 0.0
C1475 C 0.80696 0.60155 0.51157 0.0
C1476 C 0.77929 0.6074 0.51064 0.0
H1477 H 0.61722 0.24158 0.52818 0.0
H1478 H 0.57808 0.17694 0.61026 0.0
H1479 H 0.57336 0.20408 0.69201 0.0
H1480 H 0.6542 0.26333 0.64211 0.0
H1481 H 0.65123 0.29813 0.62893 0.0
H1482 H 0.64971 0.27496 0.57376 0.0
H1483 H 0.60411 0.29363 0.54436 0.0
H1484 H 0.6055 0.31719 0.59895 0.0
H1485 H 0.57757 0.29532 0.59287 0.0
H1486 H 0.57538 0.2369 0.76847 0.0
H1487 H 0.58222 0.27405 0.8317 0.0
H1488 H 0.6199 0.31848 0.70303 0.0
C1489 C 0.6069 0.23351 0.56274 0.0
C1490 C 0.59759 0.20706 0.56196 0.0
C1491 C 0.58509 0.19711 0.60918 0.0
C1492 C 0.58238 0.21239 0.65619 0.0
C1493 C 0.59222 0.238 0.65635 0.0
C1494 C 0.60402 0.24869 0.6108 0.0
C1495 C 0.6138 0.27651 0.62335 0.0
C1496 C 0.64403 0.27834 0.61661 0.0
C1497 C 0.5994 0.29687 0.58774 0.0
C1498 C 0.60591 0.27949 0.6827 0.0
C1499 C 0.59345 0.257 0.70084 0.0
C1500 C 0.58489 0.25473 0.75445 0.0
C1501 C 0.58893 0.27599 0.79031 0.0
C1502 C 0.60151 0.29947 0.77297 0.0
C1503 C 0.61009 0.301 0.71808 0.0
H1504 H 0.33569 0.1023 0.51052 0.0
H1505 H 0.4144 0.11403 0.44419 0.0
H1506 H 0.43275 0.11678 0.53625 0.0
H1507 H 0.34204 0.14531 0.62382 0.0
H1508 H 0.32432 0.12441 0.67027 0.0
H1509 H 0.317 0.12304 0.59897 0.0
H1510 H 0.32631 0.07285 0.59878 0.0
H1511 H 0.33353 0.07407 0.67019 0.0
H1512 H 0.35763 0.06074 0.62391 0.0
H1513 H 0.44267 0.12001 0.63494 0.0
H1514 H 0.444 0.12114 0.73455 0.0
H1515 H 0.35949 0.10538 0.73963 0.0
C1516 C 0.35683 0.1051 0.51526 0.0
C1517 C 0.37348 0.10841 0.4695 0.0
C1518 C 0.40103 0.11219 0.47809 0.0
C1519 C 0.41173 0.11355 0.53042 0.0
C1520 C 0.39477 0.11072 0.57438 0.0
C1521 C 0.36796 0.10627 0.56756 0.0
C1522 C 0.35427 0.10382 0.62215 0.0
C1523 C 0.33316 0.12544 0.6292 0.0
C1524 C 0.34222 0.07622 0.62916 0.0
C1525 C 0.37754 0.10795 0.66051 0.0
C1526 C 0.40067 0.11193 0.63186 0.0
C1527 C 0.42471 0.11681 0.65782 0.0
C1528 C 0.42521 0.1176 0.71453 0.0
C1529 C 0.40187 0.11348 0.74518 0.0
C1530 C 0.37772 0.10842 0.7175 0.0
H1531 H 0.09485 0.63691 0.54924 0.0
H1532 H 0.15161 0.70032 0.5699 0.0
H1533 H 0.16272 0.69784 0.47285 0.0
H1534 H 0.13323 0.59909 0.45294 0.0
H1535 H 0.10472 0.58929 0.41375 0.0
H1536 H 0.10135 0.59588 0.48502 0.0
H1537 H 0.06455 0.63015 0.46436 0.0
H1538 H 0.06783 0.6237 0.39305 0.0
H1539 H 0.07129 0.65685 0.41825 0.0
H1540 H 0.16782 0.68848 0.37357 0.0
H1541 H 0.16643 0.6731 0.27907 0.0
H1542 H 0.10567 0.61629 0.32191 0.0
C1543 C 0.1098 0.6501 0.53347 0.0
C1544 C 0.12231 0.66887 0.56733 0.0
C1545 C 0.1415 0.68601 0.54477 0.0
C1546 C 0.14806 0.68466 0.4897 0.0
C1547 C 0.13525 0.66608 0.45747 0.0
C1548 C 0.11652 0.64911 0.47844 0.0
C1549 C 0.10543 0.63121 0.43473 0.0
C1550 C 0.11156 0.60215 0.44737 0.0
C1551 C 0.0755 0.63576 0.42716 0.0
C1552 C 0.12092 0.64075 0.38598 0.0
C1553 C 0.13802 0.66085 0.40004 0.0
C1554 C 0.15441 0.67283 0.36204 0.0
C1555 C 0.15331 0.66406 0.30824 0.0
C1556 C 0.13585 0.64353 0.29255 0.0
C1557 C 0.11948 0.6318 0.33235 0.0
H1558 H 0.68685 0.91156 0.52384 0.0
H1559 H 0.61077 0.88873 0.45611 0.0
H1560 H 0.59216 0.8858 0.54773 0.0
H1561 H 0.68459 0.86953 0.64043 0.0
H1562 H 0.6995 0.89294 0.68608 0.0
H1563 H 0.70713 0.8941 0.61497 0.0
H1564 H 0.69224 0.9429 0.61122 0.0
H1565 H 0.68464 0.94187 0.6824 0.0
H1566 H 0.65957 0.95178 0.63438 0.0
H1567 H 0.58172 0.88352 0.64618 0.0
H1568 H 0.57965 0.88353 0.74566 0.0
H1569 H 0.66178 0.90869 0.75338 0.0
C1570 C 0.66619 0.90626 0.52824 0.0
C1571 C 0.65044 0.90008 0.48212 0.0
C1572 C 0.62352 0.89305 0.49025 0.0
C1573 C 0.61265 0.89148 0.54236 0.0
C1574 C 0.62876 0.89716 0.58671 0.0
C1575 C 0.6549 0.9046 0.58043 0.0
C1576 C 0.66776 0.90934 0.63555 0.0
C1577 C 0.69113 0.89034 0.64478 0.0
C1578 C 0.67657 0.93819 0.64121 0.0
C1579 C 0.64481 0.90315 0.67352 0.0
C1580 C 0.62256 0.89617 0.64418 0.0
C1581 C 0.59902 0.88901 0.66957 0.0
C1582 C 0.5981 0.88889 0.72632 0.0
C1583 C 0.62054 0.89591 0.75788 0.0
C1584 C 0.64419 0.90336 0.73071 0.0
H1585 H 0.91218 0.35003 0.30711 0.0
H1586 H 0.89477 0.43382 0.31463 0.0
H1587 H 0.89533 0.43177 0.41399 0.0
H1588 H 0.8712 0.33157 0.42183 0.0
H1589 H 0.89385 0.30667 0.44605 0.0
H1590 H 0.89246 0.31446 0.37496 0.0
H1591 H 0.9428 0.32405 0.37538 0.0
H1592 H 0.94438 0.31633 0.44648 0.0
H1593 H 0.95606 0.34777 0.42247 0.0
H1594 H 0.8978 0.4212 0.51274 0.0
H1595 H 0.90118 0.40251 0.60444 0.0
H1596 H 0.9166 0.32525 0.53566 0.0
C1597 C 0.90831 0.36792 0.32959 0.0
C1598 C 0.9038 0.39221 0.30236 0.0
C1599 C 0.89895 0.41509 0.33388 0.0
C1600 C 0.89901 0.41411 0.39062 0.0
C1601 C 0.90378 0.39005 0.416 0.0
C1602 C 0.90825 0.36731 0.38667 0.0
C1603 C 0.91278 0.34402 0.42451 0.0
C1604 C 0.89129 0.32294 0.41634 0.0
C1605 C 0.94067 0.33236 0.41674 0.0
C1606 C 0.91016 0.35729 0.47949 0.0
C1607 C 0.90502 0.38387 0.47343 0.0
C1608 C 0.90191 0.40041 0.51797 0.0
C1609 C 0.90408 0.38959 0.57011 0.0
C1610 C 0.90936 0.36236 0.57788 0.0
C1611 C 0.91236 0.34607 0.53152 0.0
H1612 H 0.40331 0.38856 0.57137 0.0
H1613 H 0.3247 0.39734 0.50144 0.0
H1614 H 0.30572 0.40076 0.5928 0.0
H1615 H 0.38374 0.34934 0.68583 0.0
H1616 H 0.40665 0.36463 0.73223 0.0
H1617 H 0.41435 0.36308 0.66119 0.0
H1618 H 0.42025 0.41375 0.65896 0.0
H1619 H 0.41257 0.41544 0.73002 0.0
H1620 H 0.39369 0.43468 0.68212 0.0
H1621 H 0.29494 0.40337 0.69194 0.0
H1622 H 0.29302 0.40463 0.79136 0.0
H1623 H 0.37837 0.39378 0.79924 0.0
C1624 C 0.38213 0.39143 0.57514 0.0
C1625 C 0.36559 0.39255 0.52853 0.0
C1626 C 0.33789 0.396 0.53594 0.0
C1627 C 0.32688 0.39814 0.5879 0.0
C1628 C 0.34369 0.39682 0.63271 0.0
C1629 C 0.37072 0.39355 0.62698 0.0
C1630 C 0.38425 0.39251 0.68212 0.0
C1631 C 0.39806 0.3658 0.69084 0.0
C1632 C 0.40385 0.41546 0.68868 0.0
C1633 C 0.36059 0.39568 0.71965 0.0
C1634 C 0.33742 0.39817 0.69013 0.0
C1635 C 0.31297 0.40129 0.71541 0.0
C1636 C 0.31208 0.40176 0.77221 0.0
C1637 C 0.33546 0.39901 0.80388 0.0
C1638 C 0.36008 0.39609 0.77671 0.0
H1639 H 0.40363 0.63585 0.2392 0.0
H1640 H 0.40502 0.72135 0.24696 0.0
H1641 H 0.40225 0.71919 0.34624 0.0
H1642 H 0.35637 0.62672 0.34922 0.0
H1643 H 0.37241 0.59746 0.37475 0.0
H1644 H 0.37441 0.60549 0.30385 0.0
H1645 H 0.42564 0.60385 0.30925 0.0
H1646 H 0.4238 0.59584 0.38015 0.0
H1647 H 0.44267 0.62401 0.35825 0.0
H1648 H 0.40057 0.7081 0.44541 0.0
H1649 H 0.39903 0.68874 0.53687 0.0
H1650 H 0.39718 0.61035 0.467 0.0
C1651 C 0.40307 0.65415 0.26162 0.0
C1652 C 0.40486 0.67881 0.23454 0.0
C1653 C 0.4043 0.70218 0.26613 0.0
C1654 C 0.40251 0.70118 0.32281 0.0
C1655 C 0.40108 0.67666 0.34805 0.0
C1656 C 0.40119 0.65354 0.31857 0.0
C1657 C 0.39959 0.62978 0.3561 0.0
C1658 C 0.37418 0.61393 0.34533 0.0
C1659 C 0.42441 0.61234 0.3506 0.0
C1660 C 0.39868 0.64317 0.41118 0.0
C1661 C 0.39962 0.67025 0.40544 0.0
C1662 C 0.39973 0.68692 0.45027 0.0
C1663 C 0.39895 0.67571 0.50224 0.0
C1664 C 0.39793 0.648 0.50959 0.0
C1665 C 0.39761 0.6316 0.46304 0.0
H1666 H 0.66666 0.63776 0.79615 0.0
H1667 H 0.66654 0.55322 0.8231 0.0
H1668 H 0.65756 0.54599 0.72611 0.0
H1669 H 0.6138 0.63865 0.69858 0.0
H1670 H 0.62827 0.66417 0.65745 0.0
H1671 H 0.63536 0.66284 0.72886 0.0
H1672 H 0.68568 0.66137 0.70838 0.0
H1673 H 0.67872 0.66264 0.63687 0.0
H1674 H 0.69852 0.63617 0.6642 0.0
H1675 H 0.64835 0.54767 0.62628 0.0
H1676 H 0.63804 0.55818 0.53112 0.0
H1677 H 0.64358 0.64168 0.56742 0.0
C1678 C 0.66495 0.61772 0.78159 0.0
C1679 C 0.66722 0.59605 0.81766 0.0
C1680 C 0.66451 0.57017 0.79676 0.0
C1681 C 0.6596 0.56584 0.74153 0.0
C1682 C 0.65741 0.58756 0.70725 0.0
C1683 C 0.65991 0.61301 0.72639 0.0
C1684 C 0.65599 0.63287 0.68091 0.0
C1685 C 0.63192 0.65068 0.69213 0.0
C1686 C 0.68124 0.64923 0.67208 0.0
C1687 C 0.6508 0.6146 0.63335 0.0
C1688 C 0.65184 0.58855 0.64953 0.0
C1689 C 0.64739 0.56801 0.61324 0.0
C1690 C 0.64138 0.57421 0.55921 0.0
C1691 C 0.63971 0.60077 0.54153 0.0
C1692 C 0.64485 0.62118 0.57931 0.0
H1693 H 0.6212 0.39912 0.48119 0.0
H1694 H 0.64912 0.32346 0.54075 0.0
H1695 H 0.6488 0.30607 0.44781 0.0
H1696 H 0.57677 0.37369 0.38116 0.0
H1697 H 0.58373 0.39917 0.3324 0.0
H1698 H 0.58691 0.40594 0.40363 0.0
H1699 H 0.6355 0.42081 0.38913 0.0
H1700 H 0.63245 0.41411 0.31783 0.0
H1701 H 0.65855 0.39876 0.35667 0.0
H1702 H 0.64391 0.29636 0.34827 0.0
H1703 H 0.63543 0.29531 0.24994 0.0
H1704 H 0.61152 0.37755 0.25488 0.0
C1705 C 0.62709 0.37883 0.47494 0.0
C1706 C 0.63498 0.36264 0.51885 0.0
C1707 C 0.64311 0.33638 0.50817 0.0
C1708 C 0.64291 0.32625 0.45537 0.0
C1709 C 0.63477 0.34268 0.4133 0.0
C1710 C 0.62713 0.36844 0.42243 0.0
C1711 C 0.61909 0.38194 0.37014 0.0
C1712 C 0.58989 0.39069 0.37196 0.0
C1713 C 0.6375 0.40528 0.35772 0.0
C1714 C 0.62314 0.35964 0.33025 0.0
C1715 C 0.63224 0.33718 0.35594 0.0
C1716 C 0.637 0.31391 0.32765 0.0
C1717 C 0.63229 0.31357 0.27165 0.0
C1718 C 0.62293 0.33637 0.24431 0.0
C1719 C 0.61844 0.35969 0.27437 0.0
H1720 H 0.86255 0.58162 1.01769 0.0
H1721 H 0.83069 0.66011 0.99103 0.0
H1722 H 0.8378 0.67061 0.08727 0.0
H1723 H 0.83419 0.57232 0.15057 0.0
H1724 H 0.86251 0.55495 0.17747 0.0
H1725 H 0.85513 0.55335 0.10618 0.0
H1726 H 0.90231 0.5702 0.08421 0.0
H1727 H 0.90983 0.57181 0.15544 0.0
H1728 H 0.91367 0.60067 0.11364 0.0
H1729 H 0.84816 0.67296 0.18659 0.0
H1730 H 0.86142 0.66715 0.28179 0.0
H1731 H 0.88665 0.5871 0.24672 0.0
C1732 C 0.85726 0.60109 0.03198 0.0
C1733 C 0.84582 0.61996 0.9963 0.0
C1734 C 0.83901 0.6451 1.01724 0.0
C1735 C 0.84313 0.65134 0.07199 0.0
C1736 C 0.85414 0.6323 0.10599 0.0
C1737 C 0.86115 0.60767 0.08692 0.0
C1738 C 0.87243 0.5908 0.13256 0.0
C1739 C 0.85503 0.56641 0.14225 0.0
C1740 C 0.90128 0.58291 0.12075 0.0
C1741 C 0.87083 0.60987 0.18001 0.0
C1742 C 0.86012 0.63365 0.16362 0.0
C1743 C 0.85647 0.65437 0.19988 0.0
C1744 C 0.86392 0.65077 0.25421 0.0
C1745 C 0.87497 0.6266 0.27253 0.0
C1746 C 0.87848 0.60592 0.2344 0.0
H1747 H 0.62523 0.10934 0.84746 0.0
H1748 H 0.59934 0.18383 0.77845 0.0
H1749 H 0.59341 0.20187 0.87021 0.0
H1750 H 0.57959 0.10919 0.96037 0.0
H1751 H 0.60313 0.09492 1.00697 0.0
H1752 H 0.60537 0.08769 0.93577 0.0
H1753 H 0.65399 0.10403 0.93516 0.0
H1754 H 0.65189 0.11127 1.00635 0.0
H1755 H 0.66147 0.1367 0.95937 0.0
H1756 H 0.58996 0.21186 0.96916 0.0
H1757 H 0.58989 0.21351 0.06872 0.0
H1758 H 0.6184 0.13273 0.07474 0.0
C1759 C 0.6181 0.12938 0.85162 0.0
C1760 C 0.61285 0.14517 0.8055 0.0
C1761 C 0.60388 0.17143 0.81293 0.0
C1762 C 0.60027 0.18182 0.86498 0.0
C1763 C 0.60568 0.16575 0.90943 0.0
C1764 C 0.61442 0.14011 0.90339 0.0
C1765 C 0.61908 0.12718 0.95806 0.0
C1766 C 0.60069 0.10334 0.96573 0.0
C1767 C 0.64835 0.11934 0.96514 0.0
C1768 C 0.61158 0.14958 0.99573 0.0
C1769 C 0.60387 0.1716 0.96672 0.0
C1770 C 0.59609 0.19478 0.9923 0.0
C1771 C 0.59631 0.19556 0.049 0.0
C1772 C 0.60439 0.17336 0.07991 0.0
C1773 C 0.61195 0.15001 0.05255 0.0
H1774 H 0.11441 0.40542 0.22016 0.0
H1775 H 0.1808 0.35928 0.28045 0.0
H1776 H 0.19843 0.35589 0.18803 0.0
H1777 H 0.10589 0.37026 0.09533 0.0
H1778 H 0.09787 0.39924 0.05633 0.0
H1779 H 0.09037 0.39816 0.12749 0.0
H1780 H 0.11742 0.44089 0.1425 0.0
H1781 H 0.12502 0.44211 0.07137 0.0
H1782 H 0.15145 0.44222 0.12059 0.0
H1783 H 0.20914 0.35758 0.08887 0.0
H1784 H 0.21202 0.36404 0.99021 0.0
H1785 H 0.13869 0.40896 0.99325 0.0
C1786 C 0.13279 0.3948 0.21419 0.0
C1787 C 0.14619 0.38268 0.25822 0.0
C1788 C 0.16992 0.36854 0.24784 0.0
C1789 C 0.18022 0.36661 0.19531 0.0
C1790 C 0.16655 0.37881 0.15311 0.0
C1791 C 0.14334 0.39261 0.16187 0.0
C1792 C 0.13247 0.40376 0.10924 0.0
C1793 C 0.10502 0.39215 0.09635 0.0
C1794 C 0.13154 0.43404 0.11105 0.0
C1795 C 0.15321 0.39406 0.06956 0.0
C1796 C 0.17269 0.37971 0.0958 0.0
C1797 C 0.19392 0.36868 0.06787 0.0
C1798 C 0.19528 0.37231 1.01166 0.0
C1799 C 0.1755 0.38684 0.98358 0.0
C1800 C 0.15425 0.39791 1.01333 0.0
H1801 H 0.41536 0.8186 0.03639 0.0
H1802 H 0.37258 0.88522 0.10371 0.0
H1803 H 0.36177 0.90059 1.01174 0.0
H1804 H 0.44356 0.8532 0.92465 0.0
H1805 H 0.44036 0.82633 0.87742 0.0
H1806 H 0.44396 0.81963 0.94863 0.0
H1807 H 0.40058 0.79242 0.94696 0.0
H1808 H 0.39691 0.79904 0.87568 0.0
H1809 H 0.37053 0.80734 0.92169 0.0
H1810 H 0.35664 0.9098 0.91333 0.0
H1811 H 0.35803 0.91272 0.81408 0.0
H1812 H 0.40335 0.83988 0.80825 0.0
C1813 C 0.40346 0.83623 0.03172 0.0
C1814 C 0.39496 0.85076 0.07749 0.0
C1815 C 0.37968 0.87394 0.06948 0.0
C1816 C 0.37326 0.88275 1.01732 0.0
C1817 C 0.38216 0.8682 0.97321 0.0
C1818 C 0.3969 0.84543 0.97965 0.0
C1819 C 0.40462 0.83405 0.92499 0.0
C1820 C 0.43493 0.83327 0.91857 0.0
C1821 C 0.39243 0.80658 0.91687 0.0
C1822 C 0.39211 0.85416 0.88707 0.0
C1823 C 0.37913 0.87355 0.9159 0.0
C1824 C 0.36651 0.89457 0.89025 0.0
C1825 C 0.36724 0.89592 0.83362 0.0
C1826 C 0.38051 0.87639 0.80278 0.0
C1827 C 0.39304 0.85518 0.83029 0.0
H1828 H 0.88236 0.89424 0.3167 0.0
H1829 H 0.81107 0.9424 0.31909 0.0
H1830 H 0.81494 0.94929 0.22076 0.0
H1831 H 0.91737 0.93073 0.21264 0.0
H1832 H 0.93105 0.90151 0.182 0.0
H1833 H 0.9238 0.9019 0.25333 0.0
H1834 H 0.8942 0.86061 0.24173 0.0
H1835 H 0.90129 0.86012 0.17039 0.0
H1836 H 0.86742 0.86125 0.19329 0.0
H1837 H 0.8254 0.94949 0.12128 0.0
H1838 H 0.84131 0.94255 0.02833 0.0
H1839 H 0.90505 0.89315 0.08987 0.0
C1840 C 0.8675 0.90624 0.29671 0.0
C1841 C 0.84648 0.9179 0.32617 0.0
C1842 C 0.82769 0.93367 0.29804 0.0
C1843 C 0.8296 0.93756 0.24196 0.0
C1844 C 0.85036 0.92553 0.21426 0.0
C1845 C 0.86899 0.91019 0.24066 0.0
C1846 C 0.88879 0.89867 0.20109 0.0
C1847 C 0.91692 0.90881 0.21298 0.0
C1848 C 0.88785 0.86837 0.20167 0.0
C1849 C 0.87819 0.90968 0.14822 0.0
C1850 C 0.85613 0.92527 0.15679 0.0
C1851 C 0.84272 0.93738 0.11413 0.0
C1852 C 0.852 0.93335 0.06131 0.0
C1853 C 0.87437 0.91709 0.0512 0.0
C1854 C 0.88766 0.90534 0.0957 0.0
H1855 H 0.8981 0.10779 0.97265 0.0
H1856 H 0.86726 0.18207 0.03318 0.0
H1857 H 0.86531 0.19929 0.94018 0.0
H1858 H 0.94 0.13569 0.87132 0.0
H1859 H 0.93401 0.10987 0.82277 0.0
H1860 H 0.93195 0.10291 0.89409 0.0
H1861 H 0.88417 0.0853 0.88104 0.0
H1862 H 0.88608 0.09221 0.80965 0.0
H1863 H 0.85955 0.10603 0.84933 0.0
H1864 H 0.86801 0.20903 0.84066 0.0
H1865 H 0.87521 0.21056 0.74203 0.0
H1866 H 0.90437 0.13001 0.74604 0.0
C1867 C 0.89108 0.12775 0.96661 0.0
C1868 C 0.88297 0.14357 1.01079 0.0
C1869 C 0.8734 0.16939 1.0004 0.0
C1870 C 0.87231 0.17944 0.94757 0.0
C1871 C 0.88071 0.16339 0.90525 0.0
C1872 C 0.88986 0.13808 0.91412 0.0
C1873 C 0.89812 0.12506 0.8616 0.0
C1874 C 0.92778 0.11797 0.86252 0.0
C1875 C 0.88095 0.10071 0.84971 0.0
C1876 C 0.8924 0.14711 0.82187 0.0
C1877 C 0.88226 0.169 0.84787 0.0
C1878 C 0.87575 0.19194 0.8198 0.0
C1879 C 0.87977 0.19255 0.76369 0.0
C1880 C 0.89023 0.17037 0.73609 0.0
C1881 C 0.89653 0.14736 0.76587 0.0
H1882 H 0.1294 0.12959 0.07639 0.0
H1883 H 0.14748 0.04888 0.03093 0.0
H1884 H 0.15903 0.03879 0.12572 0.0
H1885 H 0.18095 0.13684 0.17551 0.0
H1886 H 0.16095 0.15615 0.22104 0.0
H1887 H 0.15448 0.15714 0.14938 0.0
H1888 H 0.10573 0.14354 0.16651 0.0
H1889 H 0.11206 0.14245 0.23824 0.0
H1890 H 0.09887 0.11391 0.20423 0.0
H1891 H 0.16861 0.03738 0.22609 0.0
H1892 H 0.17551 0.04494 0.32394 0.0
H1893 H 0.15012 0.12615 0.30436 0.0
C1894 C 0.13555 0.10971 0.08628 0.0
C1895 C 0.13757 0.09008 0.04574 0.0
C1896 C 0.14616 0.06444 0.06074 0.0
C1897 C 0.15258 0.05843 0.11468 0.0
C1898 C 0.15026 0.0782 0.15348 0.0
C1899 C 0.14193 0.10332 0.13998 0.0
C1900 C 0.14111 0.12099 0.18942 0.0
C1901 C 0.16053 0.14414 0.18347 0.0
C1902 C 0.11275 0.1308 0.20022 0.0
C1903 C 0.15024 0.10189 0.23285 0.0
C1904 C 0.15548 0.07731 0.21128 0.0
C1905 C 0.16456 0.05655 0.24339 0.0
C1906 C 0.16852 0.06106 0.2989 0.0
C1907 C 0.16332 0.08611 0.32193 0.0
C1908 C 0.15392 0.10668 0.28821 0.0
H1909 H 0.11653 0.878 0.73529 0.0
H1910 H 0.06645 0.80846 0.73133 0.0
H1911 H 0.05924 0.81246 0.82953 0.0
H1912 H 0.14882 0.86228 0.85978 0.0
H1913 H 0.15062 0.89595 0.8827 0.0
H1914 H 0.15035 0.88882 0.81135 0.0
H1915 H 0.1096 0.91935 0.79847 0.0
H1916 H 0.10976 0.92663 0.86981 0.0
H1917 H 0.08024 0.91378 0.83825 0.0
H1918 H 0.05871 0.82301 0.92902 0.0
H1919 H 0.06539 0.83887 1.02215 0.0
H1920 H 0.11693 0.90077 0.96213 0.0
C1921 C 0.10407 0.86354 0.75492 0.0
C1922 C 0.09194 0.84299 0.72505 0.0
C1923 C 0.07556 0.82472 0.7527 0.0
C1924 C 0.07148 0.8267 0.8087 0.0
C1925 C 0.08395 0.84701 0.8368 0.0
C1926 C 0.09992 0.86511 0.81088 0.0
C1927 C 0.11174 0.88453 0.8508 0.0
C1928 C 0.14219 0.88278 0.85117 0.0
C1929 C 0.10226 0.91275 0.8386 0.0
C1930 C 0.10012 0.87435 0.9033 0.0
C1931 C 0.08401 0.85282 0.89427 0.0
C1932 C 0.07123 0.83992 0.93653 0.0
C1933 C 0.07512 0.84917 0.98945 0.0
C1934 C 0.09189 0.871 1.00003 0.0
C1935 C 0.10434 0.88378 0.95592 0.0
loop_
_geom_bond_atom_site_label_1
_geom_bond_atom_site_label_2
_geom_bond_distance
_geom_bond_site_symmetry_2
_ccdc_geom_bond_type
Tb0 C2 2.809 . S
Tb0 O20 2.484 . S
Tb0 O21 2.440 . S
Tb0 O22 2.658 . S
Tb0 O23 2.409 . S
Tb0 O24 2.378 . S
Tb0 O28 2.325 . S
Tb0 O31 2.341 . S
Tb1 C11 2.809 1_554 S
Tb1 O22 2.325 . S
Tb1 O25 2.341 . S
Tb1 O26 2.484 1_554 S
Tb1 O27 2.440 1_554 S
Tb1 O28 2.658 . S
Tb1 O29 2.409 . S
Tb1 O30 2.378 . S
C2 Tb0 2.809 . S
C2 C3 1.514 . S
C2 O20 1.248 . S
C2 O21 1.266 . S
C3 C2 1.514 . S
C3 C4 1.359 . S
C3 C8 1.348 . S
C4 C3 1.359 . S
C4 C5 1.380 . S
C4 H32 0.929 . S
C5 C4 1.380 . S
C5 C6 1.347 . S
C5 H33 0.931 . S
C6 C5 1.347 . S
C6 C7 1.369 . S
C7 C6 1.369 . S
C7 C8 1.408 . S
C7 H34 0.930 . S
C8 C3 1.348 . S
C8 C7 1.408 . S
C8 H35 0.930 . S
C9 O22 1.281 . S
C9 O23 1.254 . S
C10 O24 1.236 . S
C10 O25 1.266 . S
C11 Tb1 2.809 1_556 S
C11 C12 1.514 . S
C11 O26 1.248 . S
C11 O27 1.266 . S
C12 C11 1.514 . S
C12 C13 1.359 . S
C12 C17 1.348 . S
C13 C12 1.359 . S
C13 C14 1.380 . S
C13 H36 0.929 . S
C14 C13 1.380 . S
C14 C15 1.347 . S
C14 H37 0.931 . S
C15 C14 1.347 . S
C15 C16 1.369 . S
C16 C15 1.369 . S
C16 C17 1.408 . S
C16 H38 0.930 . S
C17 C12 1.348 . S
C17 C16 1.408 . S
C17 H39 0.930 . S
C18 O28 1.281 . S
C18 O29 1.254 . S
C19 O30 1.236 . S
C19 O31 1.266 . S
O20 Tb0 2.484 . S
O20 C2 1.248 . S
O21 Tb0 2.440 . S
O21 C2 1.266 . S
O22 Tb0 2.658 . S
O22 Tb1 2.325 . S
O22 C9 1.281 . S
O23 Tb0 2.409 . S
O23 C9 1.254 . S
O24 Tb0 2.378 . S
O24 C10 1.236 . S
O25 Tb1 2.341 . S
O25 C10 1.266 . S
O26 Tb1 2.484 1_556 S
O26 C11 1.248 . S
O27 Tb1 2.440 1_556 S
O27 C11 1.266 . S
O28 Tb0 2.325 . S
O28 Tb1 2.658 . S
O28 C18 1.281 . S
O29 Tb1 2.409 . S
O29 C18 1.254 . S
O30 Tb1 2.378 . S
O30 C19 1.236 . S
O31 Tb0 2.341 . S
O31 C19 1.266 . S
H32 C4 0.929 . S
H33 C5 0.931 . S
H34 C7 0.930 . S
H35 C8 0.930 . S
H36 C13 0.929 . S
H37 C14 0.931 . S
H38 C16 0.930 . S
H39 C17 0.930 . S
Tb40 C42 2.809 1_556 S
Tb40 O60 2.484 1_556 S
Tb40 O61 2.440 1_556 S
Tb40 O62 2.658 . S
Tb40 O63 2.409 . S
Tb40 O64 2.378 . S
Tb40 O68 2.325 . S
Tb40 O71 2.341 . S
Tb41 C51 2.809 . S
Tb41 O62 2.325 . S
Tb41 O65 2.341 . S
Tb41 O66 2.484 . S
Tb41 O67 2.440 . S
Tb41 O68 2.658 . S
Tb41 O69 2.409 . S
Tb41 O70 2.378 . S
C42 Tb40 2.809 1_554 S
C42 C43 1.514 . S
C42 O60 1.248 . S
C42 O61 1.266 . S
C43 C42 1.514 . S
C43 C44 1.359 . S
C43 C48 1.348 . S
C44 C43 1.359 . S
C44 C45 1.380 . S
C44 H72 0.929 . S
C45 C44 1.380 . S
C45 C46 1.347 . S
C45 H73 0.931 . S
C46 C45 1.347 . S
C46 C47 1.369 . S
C47 C46 1.369 . S
C47 C48 1.408 . S
C47 H74 0.930 . S
C48 C43 1.348 . S
C48 C47 1.408 . S
C48 H75 0.930 . S
C49 O62 1.281 . S
C49 O63 1.254 . S
C50 O64 1.236 . S
C50 O65 1.266 . S
C51 Tb41 2.809 . S
C51 C52 1.514 . S
C51 O66 1.248 . S
C51 O67 1.266 . S
C52 C51 1.514 . S
C52 C53 1.359 . S
C52 C57 1.348 . S
C53 C52 1.359 . S
C53 C54 1.380 . S
C53 H76 0.929 . S
C54 C53 1.380 . S
C54 C55 1.347 . S
C54 H77 0.931 . S
C55 C54 1.347 . S
C55 C56 1.369 . S
C56 C55 1.369 . S
C56 C57 1.408 . S
C56 H78 0.930 . S
C57 C52 1.348 . S
C57 C56 1.408 . S
C57 H79 0.930 . S
C58 O68 1.281 . S
C58 O69 1.254 . S
C59 O70 1.236 . S
C59 O71 1.266 . S
O60 Tb40 2.484 1_554 S
O60 C42 1.248 . S
O61 Tb40 2.440 1_554 S
O61 C42 1.266 . S
O62 Tb40 2.658 . S
O62 Tb41 2.325 . S
O62 C49 1.281 . S
O63 Tb40 2.409 . S
O63 C49 1.254 . S
O64 Tb40 2.378 . S
O64 C50 1.236 . S
O65 Tb41 2.341 . S
O65 C50 1.266 . S
O66 Tb41 2.484 . S
O66 C51 1.248 . S
O67 Tb41 2.440 . S
O67 C51 1.266 . S
O68 Tb40 2.325 . S
O68 Tb41 2.658 . S
O68 C58 1.281 . S
O69 Tb41 2.409 . S
O69 C58 1.254 . S
O70 Tb41 2.378 . S
O70 C59 1.236 . S
O71 Tb40 2.341 . S
O71 C59 1.266 . S
H72 C44 0.929 . S
H73 C45 0.931 . S
H74 C47 0.930 . S
H75 C48 0.930 . S
H76 C53 0.929 . S
H77 C54 0.931 . S
H78 C56 0.930 . S
H79 C57 0.930 . S
Tb80 C82 2.809 . S
Tb80 O100 2.484 . S
Tb80 O101 2.440 . S
Tb80 O102 2.658 . S
Tb80 O103 2.409 . S
Tb80 O104 2.378 . S
Tb80 O108 2.325 . S
Tb80 O111 2.341 . S
Tb81 C91 2.809 1_554 S
Tb81 O102 2.325 . S
Tb81 O105 2.341 . S
Tb81 O106 2.484 1_554 S
Tb81 O107 2.440 1_554 S
Tb81 O108 2.658 . S
Tb81 O109 2.409 . S
Tb81 O110 2.378 . S
C82 Tb80 2.809 . S
C82 C83 1.514 . S
C82 O100 1.248 . S
C82 O101 1.266 . S
C83 C82 1.514 . S
C83 C84 1.359 . S
C83 C88 1.348 . S
C84 C83 1.359 . S
C84 C85 1.380 . S
C84 H112 0.929 . S
C85 C84 1.380 . S
C85 C86 1.347 . S
C85 H113 0.931 . S
C86 C85 1.347 . S
C86 C87 1.369 . S
C87 C86 1.369 . S
C87 C88 1.408 . S
C87 H114 0.930 . S
C88 C83 1.348 . S
C88 C87 1.408 . S
C88 H115 0.930 . S
C89 O102 1.281 . S
C89 O103 1.254 . S
C90 O104 1.236 . S
C90 O105 1.266 . S
C91 Tb81 2.809 1_556 S
C91 C92 1.514 . S
C91 O106 1.248 . S
C91 O107 1.266 . S
C92 C91 1.514 . S
C92 C93 1.359 . S
C92 C97 1.348 . S
C93 C92 1.359 . S
C93 C94 1.380 . S
C93 H116 0.929 . S
C94 C93 1.380 . S
C94 C95 1.347 . S
C94 H117 0.931 . S
C95 C94 1.347 . S
C95 C96 1.369 . S
C96 C95 1.369 . S
C96 C97 1.408 . S
C96 H118 0.930 . S
C97 C92 1.348 . S
C97 C96 1.408 . S
C97 H119 0.930 . S
C98 O108 1.281 . S
C98 O109 1.254 . S
C99 O110 1.236 . S
C99 O111 1.266 . S
O100 Tb80 2.484 . S
O100 C82 1.248 . S
O101 Tb80 2.440 . S
O101 C82 1.266 . S
O102 Tb80 2.658 . S
O102 Tb81 2.325 . S
O102 C89 1.281 . S
O103 Tb80 2.409 . S
O103 C89 1.254 . S
O104 Tb80 2.378 . S
O104 C90 1.236 . S
O105 Tb81 2.341 . S
O105 C90 1.266 . S
O106 Tb81 2.484 1_556 S
O106 C91 1.248 . S
O107 Tb81 2.440 1_556 S
O107 C91 1.266 . S
O108 Tb80 2.325 . S
O108 Tb81 2.658 . S
O108 C98 1.281 . S
O109 Tb81 2.409 . S
O109 C98 1.254 . S
O110 Tb81 2.378 . S
O110 C99 1.236 . S
O111 Tb80 2.341 . S
O111 C99 1.266 . S
H112 C84 0.929 . S
H113 C85 0.931 . S
H114 C87 0.930 . S
H115 C88 0.930 . S
H116 C93 0.929 . S
H117 C94 0.931 . S
H118 C96 0.930 . S
H119 C97 0.930 . S
Tb120 C122 2.809 1_556 S
Tb120 O140 2.484 1_556 S
Tb120 O141 2.440 1_556 S
Tb120 O142 2.658 . S
Tb120 O143 2.409 . S
Tb120 O144 2.378 . S
Tb120 O148 2.325 . S
Tb120 O151 2.341 . S
Tb121 C131 2.809 . S
Tb121 O142 2.325 . S
Tb121 O145 2.341 . S
Tb121 O146 2.484 . S
Tb121 O147 2.440 . S
Tb121 O148 2.658 . S
Tb121 O149 2.409 . S
Tb121 O150 2.378 . S
C122 Tb120 2.809 1_554 S
C122 C123 1.514 . S
C122 O140 1.248 . S
C122 O141 1.266 . S
C123 C122 1.514 . S
C123 C124 1.359 . S
C123 C128 1.348 . S
C124 C123 1.359 . S
C124 C125 1.380 . S
C124 H152 0.929 . S
C125 C124 1.380 . S
C125 C126 1.347 . S
C125 H153 0.931 . S
C126 C125 1.347 . S
C126 C127 1.369 . S
C127 C126 1.369 . S
C127 C128 1.408 . S
C127 H154 0.930 . S
C128 C123 1.348 . S
C128 C127 1.408 . S
C128 H155 0.930 . S
C129 O142 1.281 . S
C129 O143 1.254 . S
C130 O144 1.236 . S
C130 O145 1.266 . S
C131 Tb121 2.809 . S
C131 C132 1.514 . S
C131 O146 1.248 . S
C131 O147 1.266 . S
C132 C131 1.514 . S
C132 C133 1.359 . S
C132 C137 1.348 . S
C133 C132 1.359 . S
C133 C134 1.380 . S
C133 H156 0.929 . S
C134 C133 1.380 . S
C134 C135 1.347 . S
C134 H157 0.931 . S
C135 C134 1.347 . S
C135 C136 1.369 . S
C136 C135 1.369 . S
C136 C137 1.408 . S
C136 H158 0.930 . S
C137 C132 1.348 . S
C137 C136 1.408 . S
C137 H159 0.930 . S
C138 O148 1.281 . S
C138 O149 1.254 . S
C139 O150 1.236 . S
C139 O151 1.266 . S
O140 Tb120 2.484 1_554 S
O140 C122 1.248 . S
O141 Tb120 2.440 1_554 S
O141 C122 1.266 . S
O142 Tb120 2.658 . S
O142 Tb121 2.325 . S
O142 C129 1.281 . S
O143 Tb120 2.409 . S
O143 C129 1.254 . S
O144 Tb120 2.378 . S
O144 C130 1.236 . S
O145 Tb121 2.341 . S
O145 C130 1.266 . S
O146 Tb121 2.484 . S
O146 C131 1.248 . S
O147 Tb121 2.440 . S
O147 C131 1.266 . S
O148 Tb120 2.325 . S
O148 Tb121 2.658 . S
O148 C138 1.281 . S
O149 Tb121 2.409 . S
O149 C138 1.254 . S
O150 Tb121 2.378 . S
O150 C139 1.236 . S
O151 Tb120 2.341 . S
O151 C139 1.266 . S
H152 C124 0.929 . S
H153 C125 0.931 . S
H154 C127 0.930 . S
H155 C128 0.930 . S
H156 C133 0.929 . S
H157 C134 0.931 . S
H158 C136 0.930 . S
H159 C137 0.930 . S
Tb160 C162 2.809 1_554 S
Tb160 O180 2.484 1_554 S
Tb160 O181 2.440 1_554 S
Tb160 O182 2.658 . S
Tb160 O183 2.409 . S
Tb160 O184 2.378 . S
Tb160 O188 2.325 . S
Tb160 O191 2.341 . S
Tb161 C171 2.809 . S
Tb161 O182 2.325 . S
Tb161 O185 2.341 . S
Tb161 O186 2.484 . S
Tb161 O187 2.440 . S
Tb161 O188 2.658 . S
Tb161 O189 2.409 . S
Tb161 O190 2.378 . S
C162 Tb160 2.809 1_556 S
C162 C163 1.514 . S
C162 O180 1.248 . S
C162 O181 1.266 . S
C163 C162 1.514 . S
C163 C164 1.359 . S
C163 C168 1.348 . S
C164 C163 1.359 . S
C164 C165 1.380 . S
C164 H192 0.929 . S
C165 C164 1.380 . S
C165 C166 1.347 . S
C165 H193 0.931 . S
C166 C165 1.347 . S
C166 C167 1.369 . S
C167 C166 1.369 . S
C167 C168 1.408 . S
C167 H194 0.930 . S
C168 C163 1.348 . S
C168 C167 1.408 . S
C168 H195 0.930 . S
C169 O182 1.281 . S
C169 O183 1.254 . S
C170 O184 1.236 . S
C170 O185 1.266 . S
C171 Tb161 2.809 . S
C171 C172 1.514 . S
C171 O186 1.248 . S
C171 O187 1.266 . S
C172 C171 1.514 . S
C172 C173 1.359 . S
C172 C177 1.348 . S
C173 C172 1.359 . S
C173 C174 1.380 . S
C173 H196 0.929 . S
C174 C173 1.380 . S
C174 C175 1.347 . S
C174 H197 0.931 . S
C175 C174 1.347 . S
C175 C176 1.369 . S
C176 C175 1.369 . S
C176 C177 1.408 . S
C176 H198 0.930 . S
C177 C172 1.348 . S
C177 C176 1.408 . S
C177 H199 0.930 . S
C178 O188 1.281 . S
C178 O189 1.254 . S
C179 O190 1.236 . S
C179 O191 1.266 . S
O180 Tb160 2.484 1_556 S
O180 C162 1.248 . S
O181 Tb160 2.440 1_556 S
O181 C162 1.266 . S
O182 Tb160 2.658 . S
O182 Tb161 2.325 . S
O182 C169 1.281 . S
O183 Tb160 2.409 . S
O183 C169 1.254 . S
O184 Tb160 2.378 . S
O184 C170 1.236 . S
O185 Tb161 2.341 . S
O185 C170 1.266 . S
O186 Tb161 2.484 . S
O186 C171 1.248 . S
O187 Tb161 2.440 . S
O187 C171 1.266 . S
O188 Tb160 2.325 . S
O188 Tb161 2.658 . S
O188 C178 1.281 . S
O189 Tb161 2.409 . S
O189 C178 1.254 . S
O190 Tb161 2.378 . S
O190 C179 1.236 . S
O191 Tb160 2.341 . S
O191 C179 1.266 . S
H192 C164 0.929 . S
H193 C165 0.931 . S
H194 C167 0.930 . S
H195 C168 0.930 . S
H196 C173 0.929 . S
H197 C174 0.931 . S
H198 C176 0.930 . S
H199 C177 0.930 . S
Tb200 C202 2.809 . S
Tb200 O220 2.484 . S
Tb200 O221 2.440 . S
Tb200 O222 2.658 . S
Tb200 O223 2.409 . S
Tb200 O224 2.378 . S
Tb200 O228 2.325 . S
Tb200 O231 2.341 . S
Tb201 C211 2.809 1_556 S
Tb201 O222 2.325 . S
Tb201 O225 2.341 . S
Tb201 O226 2.484 1_556 S
Tb201 O227 2.440 1_556 S
Tb201 O228 2.658 . S
Tb201 O229 2.409 . S
Tb201 O230 2.378 . S
C202 Tb200 2.809 . S
C202 C203 1.514 . S
C202 O220 1.248 . S
C202 O221 1.266 . S
C203 C202 1.514 . S
C203 C204 1.359 . S
C203 C208 1.348 . S
C204 C203 1.359 . S
C204 C205 1.380 . S
C204 H232 0.929 . S
C205 C204 1.380 . S
C205 C206 1.347 . S
C205 H233 0.931 . S
C206 C205 1.347 . S
C206 C207 1.369 . S
C207 C206 1.369 . S
C207 C208 1.408 . S
C207 H234 0.930 . S
C208 C203 1.348 . S
C208 C207 1.408 . S
C208 H235 0.930 . S
C209 O222 1.281 . S
C209 O223 1.254 . S
C210 O224 1.236 . S
C210 O225 1.266 . S
C211 Tb201 2.809 1_554 S
C211 C212 1.514 . S
C211 O226 1.248 . S
C211 O227 1.266 . S
C212 C211 1.514 . S
C212 C213 1.359 . S
C212 C217 1.348 . S
C213 C212 1.359 . S
C213 C214 1.380 . S
C213 H236 0.929 . S
C214 C213 1.380 . S
C214 C215 1.347 . S
C214 H237 0.931 . S
C215 C214 1.347 . S
C215 C216 1.369 . S
C216 C215 1.369 . S
C216 C217 1.408 . S
C216 H238 0.930 . S
C217 C212 1.348 . S
C217 C216 1.408 . S
C217 H239 0.930 . S
C218 O228 1.281 . S
C218 O229 1.254 . S
C219 O230 1.236 . S
C219 O231 1.266 . S
O220 Tb200 2.484 . S
O220 C202 1.248 . S
O221 Tb200 2.440 . S
O221 C202 1.266 . S
O222 Tb200 2.658 . S
O222 Tb201 2.325 . S
O222 C209 1.281 . S
O223 Tb200 2.409 . S
O223 C209 1.254 . S
O224 Tb200 2.378 . S
O224 C210 1.236 . S
O225 Tb201 2.341 . S
O225 C210 1.266 . S
O226 Tb201 2.484 1_554 S
O226 C211 1.248 . S
O227 Tb201 2.440 1_554 S
O227 C211 1.266 . S
O228 Tb200 2.325 . S
O228 Tb201 2.658 . S
O228 C218 1.281 . S
O229 Tb201 2.409 . S
O229 C218 1.254 . S
O230 Tb201 2.378 . S
O230 C219 1.236 . S
O231 Tb200 2.341 . S
O231 C219 1.266 . S
H232 C204 0.929 . S
H233 C205 0.931 . S
H234 C207 0.930 . S
H235 C208 0.930 . S
H236 C213 0.929 . S
H237 C214 0.931 . S
H238 C216 0.930 . S
H239 C217 0.930 . S
Tb240 C242 2.809 1_554 S
Tb240 O260 2.484 1_554 S
Tb240 O261 2.440 1_554 S
Tb240 O262 2.658 . S
Tb240 O263 2.409 . S
Tb240 O264 2.378 . S
Tb240 O268 2.325 . S
Tb240 O271 2.341 . S
Tb241 C251 2.809 . S
Tb241 O262 2.325 . S
Tb241 O265 2.341 . S
Tb241 O266 2.484 . S
Tb241 O267 2.440 . S
Tb241 O268 2.658 . S
Tb241 O269 2.409 . S
Tb241 O270 2.378 . S
C242 Tb240 2.809 1_556 S
C242 C243 1.514 . S
C242 O260 1.248 . S
C242 O261 1.266 . S
C243 C242 1.514 . S
C243 C244 1.359 . S
C243 C248 1.348 . S
C244 C243 1.359 . S
C244 C245 1.380 . S
C244 H272 0.929 . S
C245 C244 1.380 . S
C245 C246 1.347 . S
C245 H273 0.931 . S
C246 C245 1.347 . S
C246 C247 1.369 . S
C247 C246 1.369 . S
C247 C248 1.408 . S
C247 H274 0.930 . S
C248 C243 1.348 . S
C248 C247 1.408 . S
C248 H275 0.930 . S
C249 O262 1.281 . S
C249 O263 1.254 . S
C250 O264 1.236 . S
C250 O265 1.266 . S
C251 Tb241 2.809 . S
C251 C252 1.514 . S
C251 O266 1.248 . S
C251 O267 1.266 . S
C252 C251 1.514 . S
C252 C253 1.359 . S
C252 C257 1.348 . S
C253 C252 1.359 . S
C253 C254 1.380 . S
C253 H276 0.929 . S
C254 C253 1.380 . S
C254 C255 1.347 . S
C254 H277 0.931 . S
C255 C254 1.347 . S
C255 C256 1.369 . S
C256 C255 1.369 . S
C256 C257 1.408 . S
C256 H278 0.930 . S
C257 C252 1.348 . S
C257 C256 1.408 . S
C257 H279 0.930 . S
C258 O268 1.281 . S
C258 O269 1.254 . S
C259 O270 1.236 . S
C259 O271 1.266 . S
O260 Tb240 2.484 1_556 S
O260 C242 1.248 . S
O261 Tb240 2.440 1_556 S
O261 C242 1.266 . S
O262 Tb240 2.658 . S
O262 Tb241 2.325 . S
O262 C249 1.281 . S
O263 Tb240 2.409 . S
O263 C249 1.254 . S
O264 Tb240 2.378 . S
O264 C250 1.236 . S
O265 Tb241 2.341 . S
O265 C250 1.266 . S
O266 Tb241 2.484 . S
O266 C251 1.248 . S
O267 Tb241 2.440 . S
O267 C251 1.266 . S
O268 Tb240 2.325 . S
O268 Tb241 2.658 . S
O268 C258 1.281 . S
O269 Tb241 2.409 . S
O269 C258 1.254 . S
O270 Tb241 2.378 . S
O270 C259 1.236 . S
O271 Tb240 2.341 . S
O271 C259 1.266 . S
H272 C244 0.929 . S
H273 C245 0.931 . S
H274 C247 0.930 . S
H275 C248 0.930 . S
H276 C253 0.929 . S
H277 C254 0.931 . S
H278 C256 0.930 . S
H279 C257 0.930 . S
Tb280 C282 2.809 . S
Tb280 O300 2.484 . S
Tb280 O301 2.440 . S
Tb280 O302 2.658 . S
Tb280 O303 2.409 . S
Tb280 O304 2.378 . S
Tb280 O308 2.325 . S
Tb280 O311 2.341 . S
Tb281 C291 2.809 1_556 S
Tb281 O302 2.325 . S
Tb281 O305 2.341 . S
Tb281 O306 2.484 1_556 S
Tb281 O307 2.440 1_556 S
Tb281 O308 2.658 . S
Tb281 O309 2.409 . S
Tb281 O310 2.378 . S
C282 Tb280 2.809 . S
C282 C283 1.514 . S
C282 O300 1.248 . S
C282 O301 1.266 . S
C283 C282 1.514 . S
C283 C284 1.359 . S
C283 C288 1.348 . S
C284 C283 1.359 . S
C284 C285 1.380 . S
C284 H312 0.929 . S
C285 C284 1.380 . S
C285 C286 1.347 . S
C285 H313 0.931 . S
C286 C285 1.347 . S
C286 C287 1.369 . S
C287 C286 1.369 . S
C287 C288 1.408 . S
C287 H314 0.930 . S
C288 C283 1.348 . S
C288 C287 1.408 . S
C288 H315 0.930 . S
C289 O302 1.281 . S
C289 O303 1.254 . S
C290 O304 1.236 . S
C290 O305 1.266 . S
C291 Tb281 2.809 1_554 S
C291 C292 1.514 . S
C291 O306 1.248 . S
C291 O307 1.266 . S
C292 C291 1.514 . S
C292 C293 1.359 . S
C292 C297 1.348 . S
C293 C292 1.359 . S
C293 C294 1.380 . S
C293 H316 0.929 . S
C294 C293 1.380 . S
C294 C295 1.347 . S
C294 H317 0.931 . S
C295 C294 1.347 . S
C295 C296 1.369 . S
C296 C295 1.369 . S
C296 C297 1.408 . S
C296 H318 0.930 . S
C297 C292 1.348 . S
C297 C296 1.408 . S
C297 H319 0.930 . S
C298 O308 1.281 . S
C298 O309 1.254 . S
C299 O310 1.236 . S
C299 O311 1.266 . S
O300 Tb280 2.484 . S
O300 C282 1.248 . S
O301 Tb280 2.440 . S
O301 C282 1.266 . S
O302 Tb280 2.658 . S
O302 Tb281 2.325 . S
O302 C289 1.281 . S
O303 Tb280 2.409 . S
O303 C289 1.254 . S
O304 Tb280 2.378 . S
O304 C290 1.236 . S
O305 Tb281 2.341 . S
O305 C290 1.266 . S
O306 Tb281 2.484 1_554 S
O306 C291 1.248 . S
O307 Tb281 2.440 1_554 S
O307 C291 1.266 . S
O308 Tb280 2.325 . S
O308 Tb281 2.658 . S
O308 C298 1.281 . S
O309 Tb281 2.409 . S
O309 C298 1.254 . S
O310 Tb281 2.378 . S
O310 C299 1.236 . S
O311 Tb280 2.341 . S
O311 C299 1.266 . S
H312 C284 0.929 . S
H313 C285 0.931 . S
H314 C287 0.930 . S
H315 C288 0.930 . S
H316 C293 0.929 . S
H317 C294 0.931 . S
H318 C296 0.930 . S
H319 C297 0.930 . S
Tb320 C322 2.809 . S
Tb320 O340 2.484 . S
Tb320 O341 2.440 . S
Tb320 O342 2.658 . S
Tb320 O343 2.409 . S
Tb320 O344 2.378 . S
Tb320 O348 2.325 . S
Tb320 O351 2.341 . S
Tb321 C331 2.809 . S
Tb321 O342 2.325 . S
Tb321 O345 2.341 . S
Tb321 O346 2.484 . S
Tb321 O347 2.440 . S
Tb321 O348 2.658 . S
Tb321 O349 2.409 . S
Tb321 O350 2.378 . S
C322 Tb320 2.809 . S
C322 C323 1.514 . S
C322 O340 1.248 . S
C322 O341 1.266 . S
C323 C322 1.514 . S
C323 C324 1.359 . S
C323 C328 1.348 . S
C324 C323 1.359 . S
C324 C325 1.380 . S
C324 H352 0.929 . S
C325 C324 1.380 . S
C325 C326 1.347 . S
C325 H353 0.931 . S
C326 C325 1.347 . S
C326 C327 1.369 . S
C327 C326 1.369 . S
C327 C328 1.408 . S
C327 H354 0.930 . S
C328 C323 1.348 . S
C328 C327 1.408 . S
C328 H355 0.930 . S
C329 O342 1.281 . S
C329 O343 1.254 . S
C330 O344 1.236 . S
C330 O345 1.266 . S
C331 Tb321 2.809 . S
C331 C332 1.514 . S
C331 O346 1.248 . S
C331 O347 1.266 . S
C332 C331 1.514 . S
C332 C333 1.359 . S
C332 C337 1.348 . S
C333 C332 1.359 . S
C333 C334 1.380 . S
C333 H356 0.929 . S
C334 C333 1.380 . S
C334 C335 1.347 . S
C334 H357 0.931 . S
C335 C334 1.347 . S
C335 C336 1.369 . S
C336 C335 1.369 . S
C336 C337 1.408 . S
C336 H358 0.930 . S
C337 C332 1.348 . S
C337 C336 1.408 . S
C337 H359 0.930 . S
C338 O348 1.281 . S
C338 O349 1.254 . S
C339 O350 1.236 . S
C339 O351 1.266 . S
O340 Tb320 2.484 . S
O340 C322 1.248 . S
O341 Tb320 2.440 . S
O341 C322 1.266 . S
O342 Tb320 2.658 . S
O342 Tb321 2.325 . S
O342 C329 1.281 . S
O343 Tb320 2.409 . S
O343 C329 1.254 . S
O344 Tb320 2.378 . S
O344 C330 1.236 . S
O345 Tb321 2.341 . S
O345 C330 1.266 . S
O346 Tb321 2.484 . S
O346 C331 1.248 . S
O347 Tb321 2.440 . S
O347 C331 1.266 . S
O348 Tb320 2.325 . S
O348 Tb321 2.658 . S
O348 C338 1.281 . S
O349 Tb321 2.409 . S
O349 C338 1.254 . S
O350 Tb321 2.378 . S
O350 C339 1.236 . S
O351 Tb320 2.341 . S
O351 C339 1.266 . S
H352 C324 0.929 . S
H353 C325 0.931 . S
H354 C327 0.930 . S
H355 C328 0.930 . S
H356 C333 0.929 . S
H357 C334 0.931 . S
H358 C336 0.930 . S
H359 C337 0.930 . S
Tb360 C362 2.809 . S
Tb360 O380 2.484 . S
Tb360 O381 2.440 . S
Tb360 O382 2.658 . S
Tb360 O383 2.409 . S
Tb360 O384 2.378 . S
Tb360 O388 2.325 . S
Tb360 O391 2.341 . S
Tb361 C371 2.809 . S
Tb361 O382 2.325 . S
Tb361 O385 2.341 . S
Tb361 O386 2.484 . S
Tb361 O387 2.440 . S
Tb361 O388 2.658 . S
Tb361 O389 2.409 . S
Tb361 O390 2.378 . S
C362 Tb360 2.809 . S
C362 C363 1.514 . S
C362 O380 1.248 . S
C362 O381 1.266 . S
C363 C362 1.514 . S
C363 C364 1.359 . S
C363 C368 1.348 . S
C364 C363 1.359 . S
C364 C365 1.380 . S
C364 H392 0.929 . S
C365 C364 1.380 . S
C365 C366 1.347 . S
C365 H393 0.931 . S
C366 C365 1.347 . S
C366 C367 1.369 . S
C367 C366 1.369 . S
C367 C368 1.408 . S
C367 H394 0.930 . S
C368 C363 1.348 . S
C368 C367 1.408 . S
C368 H395 0.930 . S
C369 O382 1.281 . S
C369 O383 1.254 . S
C370 O384 1.236 . S
C370 O385 1.266 . S
C371 Tb361 2.809 . S
C371 C372 1.514 . S
C371 O386 1.248 . S
C371 O387 1.266 . S
C372 C371 1.514 . S
C372 C373 1.359 . S
C372 C377 1.348 . S
C373 C372 1.359 . S
C373 C374 1.380 . S
C373 H396 0.929 . S
C374 C373 1.380 . S
C374 C375 1.347 . S
C374 H397 0.931 . S
C375 C374 1.347 . S
C375 C376 1.369 . S
C376 C375 1.369 . S
C376 C377 1.408 . S
C376 H398 0.930 . S
C377 C372 1.348 . S
C377 C376 1.408 . S
C377 H399 0.930 . S
C378 O388 1.281 . S
C378 O389 1.254 . S
C379 O390 1.236 . S
C379 O391 1.266 . S
O380 Tb360 2.484 . S
O380 C362 1.248 . S
O381 Tb360 2.440 . S
O381 C362 1.266 . S
O382 Tb360 2.658 . S
O382 Tb361 2.325 . S
O382 C369 1.281 . S
O383 Tb360 2.409 . S
O383 C369 1.254 . S
O384 Tb360 2.378 . S
O384 C370 1.236 . S
O385 Tb361 2.341 . S
O385 C370 1.266 . S
O386 Tb361 2.484 . S
O386 C371 1.248 . S
O387 Tb361 2.440 . S
O387 C371 1.266 . S
O388 Tb360 2.325 . S
O388 Tb361 2.658 . S
O388 C378 1.281 . S
O389 Tb361 2.409 . S
O389 C378 1.254 . S
O390 Tb361 2.378 . S
O390 C379 1.236 . S
O391 Tb360 2.341 . S
O391 C379 1.266 . S
H392 C364 0.929 . S
H393 C365 0.931 . S
H394 C367 0.930 . S
H395 C368 0.930 . S
H396 C373 0.929 . S
H397 C374 0.931 . S
H398 C376 0.930 . S
H399 C377 0.930 . S
Tb400 C402 2.809 . S
Tb400 O420 2.484 . S
Tb400 O421 2.440 . S
Tb400 O422 2.658 . S
Tb400 O423 2.409 . S
Tb400 O424 2.378 . S
Tb400 O428 2.325 . S
Tb400 O431 2.341 . S
Tb401 C411 2.809 . S
Tb401 O422 2.325 . S
Tb401 O425 2.341 . S
Tb401 O426 2.484 . S
Tb401 O427 2.440 . S
Tb401 O428 2.658 . S
Tb401 O429 2.409 . S
Tb401 O430 2.378 . S
C402 Tb400 2.809 . S
C402 C403 1.514 . S
C402 O420 1.248 . S
C402 O421 1.266 . S
C403 C402 1.514 . S
C403 C404 1.359 . S
C403 C408 1.348 . S
C404 C403 1.359 . S
C404 C405 1.380 . S
C404 H432 0.929 . S
C405 C404 1.380 . S
C405 C406 1.347 . S
C405 H433 0.931 . S
C406 C405 1.347 . S
C406 C407 1.369 . S
C407 C406 1.369 . S
C407 C408 1.408 . S
C407 H434 0.930 . S
C408 C403 1.348 . S
C408 C407 1.408 . S
C408 H435 0.930 . S
C409 O422 1.281 . S
C409 O423 1.254 . S
C410 O424 1.236 . S
C410 O425 1.266 . S
C411 Tb401 2.809 . S
C411 C412 1.514 . S
C411 O426 1.248 . S
C411 O427 1.266 . S
C412 C411 1.514 . S
C412 C413 1.359 . S
C412 C417 1.348 . S
C413 C412 1.359 . S
C413 C414 1.380 . S
C413 H436 0.929 . S
C414 C413 1.380 . S
C414 C415 1.347 . S
C414 H437 0.931 . S
C415 C414 1.347 . S
C415 C416 1.369 . S
C416 C415 1.369 . S
C416 C417 1.408 . S
C416 H438 0.930 . S
C417 C412 1.348 . S
C417 C416 1.408 . S
C417 H439 0.930 . S
C418 O428 1.281 . S
C418 O429 1.254 . S
C419 O430 1.236 . S
C419 O431 1.266 . S
O420 Tb400 2.484 . S
O420 C402 1.248 . S
O421 Tb400 2.440 . S
O421 C402 1.266 . S
O422 Tb400 2.658 . S
O422 Tb401 2.325 . S
O422 C409 1.281 . S
O423 Tb400 2.409 . S
O423 C409 1.254 . S
O424 Tb400 2.378 . S
O424 C410 1.236 . S
O425 Tb401 2.341 . S
O425 C410 1.266 . S
O426 Tb401 2.484 . S
O426 C411 1.248 . S
O427 Tb401 2.440 . S
O427 C411 1.266 . S
O428 Tb400 2.325 . S
O428 Tb401 2.658 . S
O428 C418 1.281 . S
O429 Tb401 2.409 . S
O429 C418 1.254 . S
O430 Tb401 2.378 . S
O430 C419 1.236 . S
O431 Tb400 2.341 . S
O431 C419 1.266 . S
H432 C404 0.929 . S
H433 C405 0.931 . S
H434 C407 0.930 . S
H435 C408 0.930 . S
H436 C413 0.929 . S
H437 C414 0.931 . S
H438 C416 0.930 . S
H439 C417 0.930 . S
Tb440 C442 2.809 . S
Tb440 O460 2.484 . S
Tb440 O461 2.440 . S
Tb440 O462 2.658 . S
Tb440 O463 2.409 . S
Tb440 O464 2.378 . S
Tb440 O468 2.325 . S
Tb440 O471 2.341 . S
Tb441 C451 2.809 . S
Tb441 O462 2.325 . S
Tb441 O465 2.341 . S
Tb441 O466 2.484 . S
Tb441 O467 2.440 . S
Tb441 O468 2.658 . S
Tb441 O469 2.409 . S
Tb441 O470 2.378 . S
C442 Tb440 2.809 . S
C442 C443 1.514 . S
C442 O460 1.248 . S
C442 O461 1.266 . S
C443 C442 1.514 . S
C443 C444 1.359 . S
C443 C448 1.348 . S
C444 C443 1.359 . S
C444 C445 1.380 . S
C444 H472 0.929 . S
C445 C444 1.380 . S
C445 C446 1.347 . S
C445 H473 0.931 . S
C446 C445 1.347 . S
C446 C447 1.369 . S
C447 C446 1.369 . S
C447 C448 1.408 . S
C447 H474 0.930 . S
C448 C443 1.348 . S
C448 C447 1.408 . S
C448 H475 0.930 . S
C449 O462 1.281 . S
C449 O463 1.254 . S
C450 O464 1.236 . S
C450 O465 1.266 . S
C451 Tb441 2.809 . S
C451 C452 1.514 . S
C451 O466 1.248 . S
C451 O467 1.266 . S
C452 C451 1.514 . S
C452 C453 1.359 . S
C452 C457 1.348 . S
C453 C452 1.359 . S
C453 C454 1.380 . S
C453 H476 0.929 . S
C454 C453 1.380 . S
C454 C455 1.347 . S
C454 H477 0.931 . S
C455 C454 1.347 . S
C455 C456 1.369 . S
C456 C455 1.369 . S
C456 C457 1.408 . S
C456 H478 0.930 . S
C457 C452 1.348 . S
C457 C456 1.408 . S
C457 H479 0.930 . S
C458 O468 1.281 . S
C458 O469 1.254 . S
C459 O470 1.236 . S
C459 O471 1.266 . S
O460 Tb440 2.484 . S
O460 C442 1.248 . S
O461 Tb440 2.440 . S
O461 C442 1.266 . S
O462 Tb440 2.658 . S
O462 Tb441 2.325 . S
O462 C449 1.281 . S
O463 Tb440 2.409 . S
O463 C449 1.254 . S
O464 Tb440 2.378 . S
O464 C450 1.236 . S
O465 Tb441 2.341 . S
O465 C450 1.266 . S
O466 Tb441 2.484 . S
O466 C451 1.248 . S
O467 Tb441 2.440 . S
O467 C451 1.266 . S
O468 Tb440 2.325 . S
O468 Tb441 2.658 . S
O468 C458 1.281 . S
O469 Tb441 2.409 . S
O469 C458 1.254 . S
O470 Tb441 2.378 . S
O470 C459 1.236 . S
O471 Tb440 2.341 . S
O471 C459 1.266 . S
H472 C444 0.929 . S
H473 C445 0.931 . S
H474 C447 0.930 . S
H475 C448 0.930 . S
H476 C453 0.929 . S
H477 C454 0.931 . S
H478 C456 0.930 . S
H479 C457 0.930 . S
Tb480 C482 2.809 . S
Tb480 O500 2.484 . S
Tb480 O501 2.440 . S
Tb480 O502 2.658 . S
Tb480 O503 2.409 . S
Tb480 O504 2.378 . S
Tb480 O508 2.325 . S
Tb480 O511 2.341 . S
Tb481 C491 2.809 . S
Tb481 O502 2.325 . S
Tb481 O505 2.341 . S
Tb481 O506 2.484 . S
Tb481 O507 2.440 . S
Tb481 O508 2.658 . S
Tb481 O509 2.409 . S
Tb481 O510 2.378 . S
C482 Tb480 2.809 . S
C482 C483 1.514 . S
C482 O500 1.248 . S
C482 O501 1.266 . S
C483 C482 1.514 . S
C483 C484 1.359 . S
C483 C488 1.348 . S
C484 C483 1.359 . S
C484 C485 1.380 . S
C484 H512 0.929 . S
C485 C484 1.380 . S
C485 C486 1.347 . S
C485 H513 0.931 . S
C486 C485 1.347 . S
C486 C487 1.369 . S
C487 C486 1.369 . S
C487 C488 1.408 . S
C487 H514 0.930 . S
C488 C483 1.348 . S
C488 C487 1.408 . S
C488 H515 0.930 . S
C489 O502 1.281 . S
C489 O503 1.254 . S
C490 O504 1.236 . S
C490 O505 1.266 . S
C491 Tb481 2.809 . S
C491 C492 1.514 . S
C491 O506 1.248 . S
C491 O507 1.266 . S
C492 C491 1.514 . S
C492 C493 1.359 . S
C492 C497 1.348 . S
C493 C492 1.359 . S
C493 C494 1.380 . S
C493 H516 0.929 . S
C494 C493 1.380 . S
C494 C495 1.347 . S
C494 H517 0.931 . S
C495 C494 1.347 . S
C495 C496 1.369 . S
C496 C495 1.369 . S
C496 C497 1.408 . S
C496 H518 0.930 . S
C497 C492 1.348 . S
C497 C496 1.408 . S
C497 H519 0.930 . S
C498 O508 1.281 . S
C498 O509 1.254 . S
C499 O510 1.236 . S
C499 O511 1.266 . S
O500 Tb480 2.484 . S
O500 C482 1.248 . S
O501 Tb480 2.440 . S
O501 C482 1.266 . S
O502 Tb480 2.658 . S
O502 Tb481 2.325 . S
O502 C489 1.281 . S
O503 Tb480 2.409 . S
O503 C489 1.254 . S
O504 Tb480 2.378 . S
O504 C490 1.236 . S
O505 Tb481 2.341 . S
O505 C490 1.266 . S
O506 Tb481 2.484 . S
O506 C491 1.248 . S
O507 Tb481 2.440 . S
O507 C491 1.266 . S
O508 Tb480 2.325 . S
O508 Tb481 2.658 . S
O508 C498 1.281 . S
O509 Tb481 2.409 . S
O509 C498 1.254 . S
O510 Tb481 2.378 . S
O510 C499 1.236 . S
O511 Tb480 2.341 . S
O511 C499 1.266 . S
H512 C484 0.929 . S
H513 C485 0.931 . S
H514 C487 0.930 . S
H515 C488 0.930 . S
H516 C493 0.929 . S
H517 C494 0.931 . S
H518 C496 0.930 . S
H519 C497 0.930 . S
Tb520 C522 2.809 . S
Tb520 O540 2.484 . S
Tb520 O541 2.440 . S
Tb520 O542 2.658 . S
Tb520 O543 2.409 . S
Tb520 O544 2.378 . S
Tb520 O548 2.325 . S
Tb520 O551 2.341 . S
Tb521 C531 2.809 . S
Tb521 O542 2.325 . S
Tb521 O545 2.341 . S
Tb521 O546 2.484 . S
Tb521 O547 2.440 . S
Tb521 O548 2.658 . S
Tb521 O549 2.409 . S
Tb521 O550 2.378 . S
C522 Tb520 2.809 . S
C522 C523 1.514 . S
C522 O540 1.248 . S
C522 O541 1.266 . S
C523 C522 1.514 . S
C523 C524 1.359 . S
C523 C528 1.348 . S
C524 C523 1.359 . S
C524 C525 1.380 . S
C524 H552 0.929 . S
C525 C524 1.380 . S
C525 C526 1.347 . S
C525 H553 0.931 . S
C526 C525 1.347 . S
C526 C527 1.369 . S
C527 C526 1.369 . S
C527 C528 1.408 . S
C527 H554 0.930 . S
C528 C523 1.348 . S
C528 C527 1.408 . S
C528 H555 0.930 . S
C529 O542 1.281 . S
C529 O543 1.254 . S
C530 O544 1.236 . S
C530 O545 1.266 . S
C531 Tb521 2.809 . S
C531 C532 1.514 . S
C531 O546 1.248 . S
C531 O547 1.266 . S
C532 C531 1.514 . S
C532 C533 1.359 . S
C532 C537 1.348 . S
C533 C532 1.359 . S
C533 C534 1.380 . S
C533 H556 0.929 . S
C534 C533 1.380 . S
C534 C535 1.347 . S
C534 H557 0.931 . S
C535 C534 1.347 . S
C535 C536 1.369 . S
C536 C535 1.369 . S
C536 C537 1.408 . S
C536 H558 0.930 . S
C537 C532 1.348 . S
C537 C536 1.408 . S
C537 H559 0.930 . S
C538 O548 1.281 . S
C538 O549 1.254 . S
C539 O550 1.236 . S
C539 O551 1.266 . S
O540 Tb520 2.484 . S
O540 C522 1.248 . S
O541 Tb520 2.440 . S
O541 C522 1.266 . S
O542 Tb520 2.658 . S
O542 Tb521 2.325 . S
O542 C529 1.281 . S
O543 Tb520 2.409 . S
O543 C529 1.254 . S
O544 Tb520 2.378 . S
O544 C530 1.236 . S
O545 Tb521 2.341 . S
O545 C530 1.266 . S
O546 Tb521 2.484 . S
O546 C531 1.248 . S
O547 Tb521 2.440 . S
O547 C531 1.266 . S
O548 Tb520 2.325 . S
O548 Tb521 2.658 . S
O548 C538 1.281 . S
O549 Tb521 2.409 . S
O549 C538 1.254 . S
O550 Tb521 2.378 . S
O550 C539 1.236 . S
O551 Tb520 2.341 . S
O551 C539 1.266 . S
H552 C524 0.929 . S
H553 C525 0.931 . S
H554 C527 0.930 . S
H555 C528 0.930 . S
H556 C533 0.929 . S
H557 C534 0.931 . S
H558 C536 0.930 . S
H559 C537 0.930 . S
Tb560 C562 2.809 . S
Tb560 O580 2.484 . S
Tb560 O581 2.440 . S
Tb560 O582 2.658 . S
Tb560 O583 2.409 . S
Tb560 O584 2.378 . S
Tb560 O588 2.325 . S
Tb560 O591 2.341 . S
Tb561 C571 2.809 . S
Tb561 O582 2.325 . S
Tb561 O585 2.341 . S
Tb561 O586 2.484 . S
Tb561 O587 2.440 . S
Tb561 O588 2.658 . S
Tb561 O589 2.409 . S
Tb561 O590 2.378 . S
C562 Tb560 2.809 . S
C562 C563 1.514 . S
C562 O580 1.248 . S
C562 O581 1.266 . S
C563 C562 1.514 . S
C563 C564 1.359 . S
C563 C568 1.348 . S
C564 C563 1.359 . S
C564 C565 1.380 . S
C564 H592 0.929 . S
C565 C564 1.380 . S
C565 C566 1.347 . S
C565 H593 0.931 . S
C566 C565 1.347 . S
C566 C567 1.369 . S
C567 C566 1.369 . S
C567 C568 1.408 . S
C567 H594 0.930 . S
C568 C563 1.348 . S
C568 C567 1.408 . S
C568 H595 0.930 . S
C569 O582 1.281 . S
C569 O583 1.254 . S
C570 O584 1.236 . S
C570 O585 1.266 . S
C571 Tb561 2.809 . S
C571 C572 1.514 . S
C571 O586 1.248 . S
C571 O587 1.266 . S
C572 C571 1.514 . S
C572 C573 1.359 . S
C572 C577 1.348 . S
C573 C572 1.359 . S
C573 C574 1.380 . S
C573 H596 0.929 . S
C574 C573 1.380 . S
C574 C575 1.347 . S
C574 H597 0.931 . S
C575 C574 1.347 . S
C575 C576 1.369 . S
C576 C575 1.369 . S
C576 C577 1.408 . S
C576 H598 0.930 . S
C577 C572 1.348 . S
C577 C576 1.408 . S
C577 H599 0.930 . S
C578 O588 1.281 . S
C578 O589 1.254 . S
C579 O590 1.236 . S
C579 O591 1.266 . S
O580 Tb560 2.484 . S
O580 C562 1.248 . S
O581 Tb560 2.440 . S
O581 C562 1.266 . S
O582 Tb560 2.658 . S
O582 Tb561 2.325 . S
O582 C569 1.281 . S
O583 Tb560 2.409 . S
O583 C569 1.254 . S
O584 Tb560 2.378 . S
O584 C570 1.236 . S
O585 Tb561 2.341 . S
O585 C570 1.266 . S
O586 Tb561 2.484 . S
O586 C571 1.248 . S
O587 Tb561 2.440 . S
O587 C571 1.266 . S
O588 Tb560 2.325 . S
O588 Tb561 2.658 . S
O588 C578 1.281 . S
O589 Tb561 2.409 . S
O589 C578 1.254 . S
O590 Tb561 2.378 . S
O590 C579 1.236 . S
O591 Tb560 2.341 . S
O591 C579 1.266 . S
H592 C564 0.929 . S
H593 C565 0.931 . S
H594 C567 0.930 . S
H595 C568 0.930 . S
H596 C573 0.929 . S
H597 C574 0.931 . S
H598 C576 0.930 . S
H599 C577 0.930 . S
Tb600 C602 2.809 . S
Tb600 O620 2.484 . S
Tb600 O621 2.440 . S
Tb600 O622 2.658 . S
Tb600 O623 2.409 . S
Tb600 O624 2.378 . S
Tb600 O628 2.325 . S
Tb600 O631 2.341 . S
Tb601 C611 2.809 . S
Tb601 O622 2.325 . S
Tb601 O625 2.341 . S
Tb601 O626 2.484 . S
Tb601 O627 2.440 . S
Tb601 O628 2.658 . S
Tb601 O629 2.409 . S
Tb601 O630 2.378 . S
C602 Tb600 2.809 . S
C602 C603 1.514 . S
C602 O620 1.248 . S
C602 O621 1.266 . S
C603 C602 1.514 . S
C603 C604 1.359 . S
C603 C608 1.348 . S
C604 C603 1.359 . S
C604 C605 1.380 . S
C604 H632 0.929 . S
C605 C604 1.380 . S
C605 C606 1.347 . S
C605 H633 0.931 . S
C606 C605 1.347 . S
C606 C607 1.369 . S
C607 C606 1.369 . S
C607 C608 1.408 . S
C607 H634 0.930 . S
C608 C603 1.348 . S
C608 C607 1.408 . S
C608 H635 0.930 . S
C609 O622 1.281 . S
C609 O623 1.254 . S
C610 O624 1.236 . S
C610 O625 1.266 . S
C611 Tb601 2.809 . S
C611 C612 1.514 . S
C611 O626 1.248 . S
C611 O627 1.266 . S
C612 C611 1.514 . S
C612 C613 1.359 . S
C612 C617 1.348 . S
C613 C612 1.359 . S
C613 C614 1.380 . S
C613 H636 0.929 . S
C614 C613 1.380 . S
C614 C615 1.347 . S
C614 H637 0.931 . S
C615 C614 1.347 . S
C615 C616 1.369 . S
C616 C615 1.369 . S
C616 C617 1.408 . S
C616 H638 0.930 . S
C617 C612 1.348 . S
C617 C616 1.408 . S
C617 H639 0.930 . S
C618 O628 1.281 . S
C618 O629 1.254 . S
C619 O630 1.236 . S
C619 O631 1.266 . S
O620 Tb600 2.484 . S
O620 C602 1.248 . S
O621 Tb600 2.440 . S
O621 C602 1.266 . S
O622 Tb600 2.658 . S
O622 Tb601 2.325 . S
O622 C609 1.281 . S
O623 Tb600 2.409 . S
O623 C609 1.254 . S
O624 Tb600 2.378 . S
O624 C610 1.236 . S
O625 Tb601 2.341 . S
O625 C610 1.266 . S
O626 Tb601 2.484 . S
O626 C611 1.248 . S
O627 Tb601 2.440 . S
O627 C611 1.266 . S
O628 Tb600 2.325 . S
O628 Tb601 2.658 . S
O628 C618 1.281 . S
O629 Tb601 2.409 . S
O629 C618 1.254 . S
O630 Tb601 2.378 . S
O630 C619 1.236 . S
O631 Tb600 2.341 . S
O631 C619 1.266 . S
H632 C604 0.929 . S
H633 C605 0.931 . S
H634 C607 0.930 . S
H635 C608 0.930 . S
H636 C613 0.929 . S
H637 C614 0.931 . S
H638 C616 0.930 . S
H639 C617 0.930 . S
H640 C652 0.930 . S
H641 C654 0.930 . S
H642 C655 0.930 . S
H643 C659 0.959 . S
H644 C659 0.959 . S
H645 C659 0.961 . S
H646 C660 0.960 . S
H647 C660 0.961 . S
H648 C660 0.959 . S
H649 C663 0.929 . S
H650 C664 0.931 . S
H651 C666 0.930 . S
C652 H640 0.930 . S
C652 C653 1.399 . S
C652 C657 1.399 . S
C653 C652 1.399 . S
C653 C654 1.376 . S
C654 H641 0.930 . S
C654 C653 1.376 . S
C654 C655 1.388 . S
C655 H642 0.930 . S
C655 C654 1.388 . S
C655 C656 1.390 . S
C656 C655 1.390 . S
C656 C657 1.394 . S
C656 C662 1.465 . S
C657 C652 1.399 . S
C657 C656 1.394 . S
C657 C658 1.516 . S
C658 C657 1.516 . S
C658 C659 1.502 . S
C658 C660 1.561 . S
C658 C661 1.526 . S
C659 H643 0.959 . S
C659 H644 0.959 . S
C659 H645 0.961 . S
C659 C658 1.502 . S
C660 H646 0.960 . S
C660 H647 0.961 . S
C660 H648 0.959 . S
C660 C658 1.561 . S
C661 C658 1.526 . S
C661 C662 1.396 . S
C661 C666 1.390 1_565 S
C662 C656 1.465 . S
C662 C661 1.396 . S
C662 C663 1.399 1_565 S
C663 H649 0.929 . S
C663 C662 1.399 1_545 S
C663 C664 1.385 . S
C664 H650 0.931 . S
C664 C663 1.385 . S
C664 C665 1.389 . S
C665 C664 1.389 . S
C665 C666 1.387 . S
C666 H651 0.930 . S
C666 C661 1.390 1_545 S
C666 C665 1.387 . S
H667 C679 0.930 . S
H668 C681 0.930 . S
H669 C682 0.930 . S
H670 C686 0.959 . S
H671 C686 0.959 . S
H672 C686 0.961 . S
H673 C687 0.960 . S
H674 C687 0.961 . S
H675 C687 0.959 . S
H676 C690 0.935 . S
H677 C691 0.931 . S
H678 C693 0.930 . S
C679 H667 0.930 . S
C679 C680 1.399 . S
C679 C684 1.399 . S
C680 C679 1.399 . S
C680 C681 1.376 . S
C681 H668 0.930 . S
C681 C680 1.376 . S
C681 C682 1.388 . S
C682 H669 0.930 . S
C682 C681 1.388 . S
C682 C683 1.390 . S
C683 C682 1.390 . S
C683 C684 1.394 . S
C683 C689 1.465 . S
C684 C679 1.399 . S
C684 C683 1.394 . S
C684 C685 1.516 . S
C685 C684 1.516 . S
C685 C686 1.502 . S
C685 C687 1.561 . S
C685 C688 1.526 . S
C686 H670 0.959 . S
C686 H671 0.959 . S
C686 H672 0.961 . S
C686 C685 1.502 . S
C687 H673 0.960 . S
C687 H674 0.961 . S
C687 H675 0.959 . S
C687 C685 1.561 . S
C688 C685 1.526 . S
C688 C689 1.396 . S
C688 C693 1.390 1_655 S
C689 C683 1.465 . S
C689 C688 1.396 . S
C689 C690 1.407 . S
C690 H676 0.935 . S
C690 C689 1.407 . S
C690 C691 1.372 1_655 S
C691 H677 0.931 . S
C691 C690 1.372 1_455 S
C691 C692 1.389 . S
C692 C691 1.389 . S
C692 C693 1.387 . S
C693 H678 0.930 . S
C693 C688 1.390 1_455 S
C693 C692 1.387 . S
H694 C706 0.930 . S
H695 C708 0.930 . S
H696 C709 0.930 . S
H697 C713 0.959 . S
H698 C713 0.959 . S
H699 C713 0.961 . S
H700 C714 0.960 . S
H701 C714 0.961 . S
H702 C714 0.959 . S
H703 C717 0.929 . S
H704 C718 0.931 . S
H705 C720 0.930 . S
C706 H694 0.930 . S
C706 C707 1.399 . S
C706 C711 1.399 1_565 S
C707 C706 1.399 . S
C707 C708 1.376 . S
C708 H695 0.930 . S
C708 C707 1.376 . S
C708 C709 1.388 . S
C709 H696 0.930 . S
C709 C708 1.388 . S
C709 C710 1.390 1_565 S
C710 C709 1.390 1_545 S
C710 C711 1.394 . S
C710 C716 1.465 . S
C711 C706 1.399 1_545 S
C711 C710 1.394 . S
C711 C712 1.516 . S
C712 C711 1.516 . S
C712 C713 1.502 . S
C712 C714 1.561 . S
C712 C715 1.526 . S
C713 H697 0.959 . S
C713 H698 0.959 . S
C713 H699 0.961 . S
C713 C712 1.502 . S
C714 H700 0.960 . S
C714 H701 0.961 . S
C714 H702 0.959 . S
C714 C712 1.561 . S
C715 C712 1.526 . S
C715 C716 1.396 . S
C715 C720 1.390 . S
C716 C710 1.465 . S
C716 C715 1.396 . S
C716 C717 1.399 . S
C717 H703 0.929 . S
C717 C716 1.399 . S
C717 C718 1.385 . S
C718 H704 0.931 . S
C718 C717 1.385 . S
C718 C719 1.389 . S
C719 C718 1.389 . S
C719 C720 1.387 . S
C720 H705 0.930 . S
C720 C715 1.390 . S
C720 C719 1.387 . S
H721 C733 0.930 . S
H722 C735 0.930 . S
H723 C736 0.930 . S
H724 C740 0.959 . S
H725 C740 0.959 . S
H726 C740 0.961 1_655 S
H727 C741 0.960 . S
H728 C741 0.961 . S
H729 C741 0.959 . S
H730 C744 0.929 . S
H731 C745 0.931 . S
H732 C747 0.930 . S
C733 H721 0.930 . S
C733 C734 1.399 . S
C733 C738 1.399 1_655 S
C734 C733 1.399 . S
C734 C735 1.376 . S
C735 H722 0.930 . S
C735 C734 1.376 . S
C735 C736 1.388 1_655 S
C736 H723 0.930 . S
C736 C735 1.388 1_455 S
C736 C737 1.390 . S
C737 C736 1.390 . S
C737 C738 1.394 . S
C737 C743 1.465 . S
C738 C733 1.399 1_455 S
C738 C737 1.394 . S
C738 C739 1.516 . S
C739 C738 1.516 . S
C739 C740 1.502 . S
C739 C741 1.561 . S
C739 C742 1.526 . S
C740 H724 0.959 . S
C740 H725 0.959 . S
C740 H726 0.961 1_455 S
C740 C739 1.502 . S
C741 H727 0.960 . S
C741 H728 0.961 . S
C741 H729 0.959 . S
C741 C739 1.561 . S
C742 C739 1.526 . S
C742 C743 1.396 . S
C742 C747 1.390 . S
C743 C737 1.465 . S
C743 C742 1.396 . S
C743 C744 1.399 . S
C744 H730 0.929 . S
C744 C743 1.399 . S
C744 C745 1.385 . S
C745 H731 0.931 . S
C745 C744 1.385 . S
C745 C746 1.389 . S
C746 C745 1.389 . S
C746 C747 1.387 . S
C747 H732 0.930 . S
C747 C742 1.390 . S
C747 C746 1.387 . S
H748 C760 0.930 . S
H749 C762 0.930 . S
H750 C763 0.930 1_556 S
H751 C767 0.959 . S
H752 C767 0.959 . S
H753 C767 0.961 . S
H754 C768 0.960 . S
H755 C768 0.961 . S
H756 C768 0.959 . S
H757 C771 0.929 . S
H758 C772 0.931 . S
H759 C774 0.930 . S
C760 H748 0.930 . S
C760 C761 1.399 . S
C760 C765 1.399 . S
C761 C760 1.399 . S
C761 C762 1.376 . S
C762 H749 0.930 . S
C762 C761 1.376 . S
C762 C763 1.388 . S
C763 H750 0.930 1_554 S
C763 C762 1.388 . S
C763 C764 1.390 . S
C764 C763 1.390 . S
C764 C765 1.394 . S
C764 C770 1.465 1_554 S
C765 C760 1.399 . S
C765 C764 1.394 . S
C765 C766 1.516 . S
C766 C765 1.516 . S
C766 C767 1.502 . S
C766 C768 1.561 . S
C766 C769 1.526 . S
C767 H751 0.959 . S
C767 H752 0.959 . S
C767 H753 0.961 . S
C767 C766 1.502 . S
C768 H754 0.960 . S
C768 H755 0.961 . S
C768 H756 0.959 . S
C768 C766 1.561 . S
C769 C766 1.526 . S
C769 C770 1.395 1_554 S
C769 C774 1.390 . S
C770 C764 1.465 1_556 S
C770 C769 1.395 1_556 S
C770 C771 1.400 . S
C771 H757 0.929 . S
C771 C770 1.400 . S
C771 C772 1.385 . S
C772 H758 0.931 . S
C772 C771 1.385 . S
C772 C773 1.389 . S
C773 C772 1.389 . S
C773 C774 1.387 1_556 S
C774 H759 0.930 . S
C774 C769 1.390 . S
C774 C773 1.387 1_554 S
H775 C787 0.930 . S
H776 C789 0.930 . S
H777 C790 0.930 . S
H778 C794 0.959 . S
H779 C794 0.959 . S
H780 C794 0.961 . S
H781 C795 0.960 1_554 S
H782 C795 0.961 . S
H783 C795 0.959 . S
H784 C798 0.929 . S
H785 C799 0.931 . S
H786 C801 0.930 . S
C787 H775 0.930 . S
C787 C788 1.399 . S
C787 C792 1.399 . S
C788 C787 1.399 . S
C788 C789 1.376 1_554 S
C789 H776 0.930 . S
C789 C788 1.376 1_556 S
C789 C790 1.388 . S
C790 H777 0.930 . S
C790 C789 1.388 . S
C790 C791 1.390 . S
C791 C790 1.390 . S
C791 C792 1.394 1_556 S
C791 C797 1.465 . S
C792 C787 1.399 . S
C792 C791 1.394 1_554 S
C792 C793 1.516 . S
C793 C792 1.516 . S
C793 C794 1.502 . S
C793 C795 1.561 1_554 S
C793 C796 1.526 1_554 S
C794 H778 0.959 . S
C794 H779 0.959 . S
C794 H780 0.961 . S
C794 C793 1.502 . S
C795 H781 0.960 1_556 S
C795 H782 0.961 . S
C795 H783 0.959 . S
C795 C793 1.561 1_556 S
C796 C793 1.526 1_556 S
C796 C797 1.396 . S
C796 C801 1.390 . S
C797 C791 1.465 . S
C797 C796 1.396 . S
C797 C798 1.399 . S
C798 H784 0.929 . S
C798 C797 1.399 . S
C798 C799 1.385 . S
C799 H785 0.931 . S
C799 C798 1.385 . S
C799 C800 1.389 . S
C800 C799 1.389 . S
C800 C801 1.387 . S
C801 H786 0.930 . S
C801 C796 1.390 . S
C801 C800 1.387 . S
H802 C814 0.930 . S
H803 C816 0.930 . S
H804 C817 0.930 1_556 S
H805 C821 0.959 . S
H806 C821 0.959 . S
H807 C821 0.961 . S
H808 C822 0.960 . S
H809 C822 0.961 . S
H810 C822 0.959 . S
H811 C825 0.929 . S
H812 C826 0.931 . S
H813 C828 0.930 . S
C814 H802 0.930 . S
C814 C815 1.399 . S
C814 C819 1.399 . S
C815 C814 1.399 . S
C815 C816 1.376 . S
C816 H803 0.930 . S
C816 C815 1.376 . S
C816 C817 1.388 . S
C817 H804 0.930 1_554 S
C817 C816 1.388 . S
C817 C818 1.390 . S
C818 C817 1.390 . S
C818 C819 1.394 . S
C818 C824 1.463 1_554 S
C819 C814 1.399 . S
C819 C818 1.394 . S
C819 C820 1.516 . S
C820 C819 1.516 . S
C820 C821 1.502 . S
C820 C822 1.561 . S
C820 C823 1.526 . S
C821 H805 0.959 . S
C821 H806 0.959 . S
C821 H807 0.961 . S
C821 C820 1.502 . S
C822 H808 0.960 . S
C822 H809 0.961 . S
C822 H810 0.959 . S
C822 C820 1.561 . S
C823 C820 1.526 . S
C823 C824 1.394 1_554 S
C823 C828 1.390 . S
C824 C818 1.463 1_556 S
C824 C823 1.394 1_556 S
C824 C825 1.402 . S
C825 H811 0.929 . S
C825 C824 1.402 . S
C825 C826 1.385 . S
C826 H812 0.931 . S
C826 C825 1.385 . S
C826 C827 1.389 . S
C827 C826 1.389 . S
C827 C828 1.387 1_556 S
C828 H813 0.930 . S
C828 C823 1.390 . S
C828 C827 1.387 1_554 S
H829 C841 0.930 . S
H830 C843 0.930 . S
H831 C844 0.930 . S
H832 C848 0.959 . S
H833 C848 0.959 . S
H834 C848 0.961 . S
H835 C849 0.960 1_554 S
H836 C849 0.961 . S
H837 C849 0.959 . S
H838 C852 0.929 . S
H839 C853 0.931 . S
H840 C855 0.930 . S
C841 H829 0.930 . S
C841 C842 1.399 . S
C841 C846 1.399 . S
C842 C841 1.399 . S
C842 C843 1.376 1_554 S
C843 H830 0.930 . S
C843 C842 1.376 1_556 S
C843 C844 1.388 . S
C844 H831 0.930 . S
C844 C843 1.388 . S
C844 C845 1.390 . S
C845 C844 1.390 . S
C845 C846 1.394 1_556 S
C845 C851 1.465 . S
C846 C841 1.399 . S
C846 C845 1.394 1_554 S
C846 C847 1.516 . S
C847 C846 1.516 . S
C847 C848 1.502 . S
C847 C849 1.561 1_554 S
C847 C850 1.526 1_554 S
C848 H832 0.959 . S
C848 H833 0.959 . S
C848 H834 0.961 . S
C848 C847 1.502 . S
C849 H835 0.960 1_556 S
C849 H836 0.961 . S
C849 H837 0.959 . S
C849 C847 1.561 1_556 S
C850 C847 1.526 1_556 S
C850 C851 1.396 . S
C850 C855 1.390 . S
C851 C845 1.465 . S
C851 C850 1.396 . S
C851 C852 1.399 . S
C852 H838 0.929 . S
C852 C851 1.399 . S
C852 C853 1.385 . S
C853 H839 0.931 . S
C853 C852 1.385 . S
C853 C854 1.389 . S
C854 C853 1.389 . S
C854 C855 1.387 . S
C855 H840 0.930 . S
C855 C850 1.390 . S
C855 C854 1.387 . S
H856 C868 0.930 . S
H857 C870 0.930 . S
H858 C871 0.930 . S
H859 C875 0.959 . S
H860 C875 0.959 . S
H861 C875 0.961 . S
H862 C876 0.960 . S
H863 C876 0.961 . S
H864 C876 0.959 . S
H865 C879 0.929 . S
H866 C880 0.931 . S
H867 C882 0.930 . S
C868 H856 0.930 . S
C868 C869 1.399 . S
C868 C873 1.399 . S
C869 C868 1.399 . S
C869 C870 1.376 . S
C870 H857 0.930 . S
C870 C869 1.376 . S
C870 C871 1.388 . S
C871 H858 0.930 . S
C871 C870 1.388 . S
C871 C872 1.390 . S
C872 C871 1.390 . S
C872 C873 1.394 . S
C872 C878 1.465 . S
C873 C868 1.399 . S
C873 C872 1.394 . S
C873 C874 1.516 . S
C874 C873 1.516 . S
C874 C875 1.502 . S
C874 C876 1.561 . S
C874 C877 1.526 . S
C875 H859 0.959 . S
C875 H860 0.959 . S
C875 H861 0.961 . S
C875 C874 1.502 . S
C876 H862 0.960 . S
C876 H863 0.961 . S
C876 H864 0.959 . S
C876 C874 1.561 . S
C877 C874 1.526 . S
C877 C878 1.396 . S
C877 C882 1.390 . S
C878 C872 1.465 . S
C878 C877 1.396 . S
C878 C879 1.399 . S
C879 H865 0.929 . S
C879 C878 1.399 . S
C879 C880 1.385 . S
C880 H866 0.931 . S
C880 C879 1.385 . S
C880 C881 1.389 . S
C881 C880 1.389 . S
C881 C882 1.387 . S
C882 H867 0.930 . S
C882 C877 1.390 . S
C882 C881 1.387 . S
H883 C895 0.930 . S
H884 C897 0.930 . S
H885 C898 0.930 . S
H886 C902 0.959 . S
H887 C902 0.959 . S
H888 C902 0.961 . S
H889 C903 0.960 . S
H890 C903 0.961 . S
H891 C903 0.959 . S
H892 C906 0.929 . S
H893 C907 0.931 . S
H894 C909 0.930 . S
C895 H883 0.930 . S
C895 C896 1.399 . S
C895 C900 1.399 . S
C896 C895 1.399 . S
C896 C897 1.376 . S
C897 H884 0.930 . S
C897 C896 1.376 . S
C897 C898 1.388 . S
C898 H885 0.930 . S
C898 C897 1.388 . S
C898 C899 1.390 . S
C899 C898 1.390 . S
C899 C900 1.394 . S
C899 C905 1.465 . S
C900 C895 1.399 . S
C900 C899 1.394 . S
C900 C901 1.516 . S
C901 C900 1.516 . S
C901 C902 1.502 . S
C901 C903 1.561 . S
C901 C904 1.526 . S
C902 H886 0.959 . S
C902 H887 0.959 . S
C902 H888 0.961 . S
C902 C901 1.502 . S
C903 H889 0.960 . S
C903 H890 0.961 . S
C903 H891 0.959 . S
C903 C901 1.561 . S
C904 C901 1.526 . S
C904 C905 1.396 . S
C904 C909 1.390 . S
C905 C899 1.465 . S
C905 C904 1.396 . S
C905 C906 1.399 . S
C906 H892 0.929 . S
C906 C905 1.399 . S
C906 C907 1.385 . S
C907 H893 0.931 . S
C907 C906 1.385 . S
C907 C908 1.389 . S
C908 C907 1.389 . S
C908 C909 1.387 . S
C909 H894 0.930 . S
C909 C904 1.390 . S
C909 C908 1.387 . S
H910 C922 0.930 . S
H911 C924 0.930 . S
H912 C925 0.930 . S
H913 C929 0.959 . S
H914 C929 0.959 . S
H915 C929 0.961 . S
H916 C930 0.960 . S
H917 C930 0.961 . S
H918 C930 0.959 . S
H919 C933 0.929 . S
H920 C934 0.931 . S
H921 C936 0.930 . S
C922 H910 0.930 . S
C922 C923 1.399 . S
C922 C927 1.399 . S
C923 C922 1.399 . S
C923 C924 1.376 . S
C924 H911 0.930 . S
C924 C923 1.376 . S
C924 C925 1.388 . S
C925 H912 0.930 . S
C925 C924 1.388 . S
C925 C926 1.390 . S
C926 C925 1.390 . S
C926 C927 1.394 . S
C926 C932 1.465 . S
C927 C922 1.399 . S
C927 C926 1.394 . S
C927 C928 1.516 . S
C928 C927 1.516 . S
C928 C929 1.502 . S
C928 C930 1.561 . S
C928 C931 1.526 . S
C929 H913 0.959 . S
C929 H914 0.959 . S
C929 H915 0.961 . S
C929 C928 1.502 . S
C930 H916 0.960 . S
C930 H917 0.961 . S
C930 H918 0.959 . S
C930 C928 1.561 . S
C931 C928 1.526 . S
C931 C932 1.396 . S
C931 C936 1.390 . S
C932 C926 1.465 . S
C932 C931 1.396 . S
C932 C933 1.399 . S
C933 H919 0.929 . S
C933 C932 1.399 . S
C933 C934 1.385 . S
C934 H920 0.931 . S
C934 C933 1.385 . S
C934 C935 1.389 . S
C935 C934 1.389 . S
C935 C936 1.387 . S
C936 H921 0.930 . S
C936 C931 1.390 . S
C936 C935 1.387 . S
H937 C949 0.930 . S
H938 C951 0.930 . S
H939 C952 0.930 . S
H940 C956 0.959 . S
H941 C956 0.959 . S
H942 C956 0.961 . S
H943 C957 0.960 . S
H944 C957 0.961 . S
H945 C957 0.959 . S
H946 C960 0.929 . S
H947 C961 0.931 . S
H948 C963 0.930 . S
C949 H937 0.930 . S
C949 C950 1.399 . S
C949 C954 1.399 . S
C950 C949 1.399 . S
C950 C951 1.376 . S
C951 H938 0.930 . S
C951 C950 1.376 . S
C951 C952 1.388 . S
C952 H939 0.930 . S
C952 C951 1.388 . S
C952 C953 1.390 . S
C953 C952 1.390 . S
C953 C954 1.394 . S
C953 C959 1.465 . S
C954 C949 1.399 . S
C954 C953 1.394 . S
C954 C955 1.516 . S
C955 C954 1.516 . S
C955 C956 1.502 . S
C955 C957 1.561 . S
C955 C958 1.526 . S
C956 H940 0.959 . S
C956 H941 0.959 . S
C956 H942 0.961 . S
C956 C955 1.502 . S
C957 H943 0.960 . S
C957 H944 0.961 . S
C957 H945 0.959 . S
C957 C955 1.561 . S
C958 C955 1.526 . S
C958 C959 1.396 . S
C958 C963 1.390 . S
C959 C953 1.465 . S
C959 C958 1.396 . S
C959 C960 1.399 . S
C960 H946 0.929 . S
C960 C959 1.399 . S
C960 C961 1.385 . S
C961 H947 0.931 . S
C961 C960 1.385 . S
C961 C962 1.389 . S
C962 C961 1.389 . S
C962 C963 1.387 . S
C963 H948 0.930 . S
C963 C958 1.390 . S
C963 C962 1.387 . S
H964 C976 0.930 . S
H965 C978 0.930 . S
H966 C979 0.930 . S
H967 C983 0.959 . S
H968 C983 0.959 . S
H969 C983 0.961 . S
H970 C984 0.960 . S
H971 C984 0.961 . S
H972 C984 0.959 . S
H973 C987 0.929 . S
H974 C988 0.931 . S
H975 C990 0.930 . S
C976 H964 0.930 . S
C976 C977 1.399 . S
C976 C981 1.399 1_565 S
C977 C976 1.399 . S
C977 C978 1.376 . S
C978 H965 0.930 . S
C978 C977 1.376 . S
C978 C979 1.388 . S
C979 H966 0.930 . S
C979 C978 1.388 . S
C979 C980 1.390 1_565 S
C980 C979 1.390 1_545 S
C980 C981 1.394 . S
C980 C986 1.465 . S
C981 C976 1.399 1_545 S
C981 C980 1.394 . S
C981 C982 1.516 . S
C982 C981 1.516 . S
C982 C983 1.502 . S
C982 C984 1.561 . S
C982 C985 1.526 . S
C983 H967 0.959 . S
C983 H968 0.959 . S
C983 H969 0.961 . S
C983 C982 1.502 . S
C984 H970 0.960 . S
C984 H971 0.961 . S
C984 H972 0.959 . S
C984 C982 1.561 . S
C985 C982 1.526 . S
C985 C986 1.396 . S
C985 C990 1.390 . S
C986 C980 1.465 . S
C986 C985 1.396 . S
C986 C987 1.399 . S
C987 H973 0.929 . S
C987 C986 1.399 . S
C987 C988 1.385 . S
C988 H974 0.931 . S
C988 C987 1.385 . S
C988 C989 1.389 . S
C989 C988 1.389 . S
C989 C990 1.387 . S
C990 H975 0.930 . S
C990 C985 1.390 . S
C990 C989 1.387 . S
H991 C1003 0.930 . S
H992 C1005 0.930 . S
H993 C1006 0.930 . S
H994 C1010 0.959 . S
H995 C1010 0.959 . S
H996 C1010 0.961 . S
H997 C1011 0.960 . S
H998 C1011 0.961 . S
H999 C1011 0.959 . S
H1000 C1014 0.929 . S
H1001 C1015 0.931 . S
H1002 C1017 0.930 . S
C1003 H991 0.930 . S
C1003 C1004 1.399 . S
C1003 C1008 1.399 . S
C1004 C1003 1.399 . S
C1004 C1005 1.376 . S
C1005 H992 0.930 . S
C1005 C1004 1.376 . S
C1005 C1006 1.388 . S
C1006 H993 0.930 . S
C1006 C1005 1.388 . S
C1006 C1007 1.390 . S
C1007 C1006 1.390 . S
C1007 C1008 1.394 . S
C1007 C1013 1.465 . S
C1008 C1003 1.399 . S
C1008 C1007 1.394 . S
C1008 C1009 1.516 . S
C1009 C1008 1.516 . S
C1009 C1010 1.502 . S
C1009 C1011 1.561 . S
C1009 C1012 1.526 . S
C1010 H994 0.959 . S
C1010 H995 0.959 . S
C1010 H996 0.961 . S
C1010 C1009 1.502 . S
C1011 H997 0.960 . S
C1011 H998 0.961 . S
C1011 H999 0.959 . S
C1011 C1009 1.561 . S
C1012 C1009 1.526 . S
C1012 C1013 1.396 . S
C1012 C1017 1.390 1_455 S
C1013 C1007 1.465 . S
C1013 C1012 1.396 . S
C1013 C1014 1.399 1_455 S
C1014 H1000 0.929 . S
C1014 C1013 1.399 1_655 S
C1014 C1015 1.385 . S
C1015 H1001 0.931 . S
C1015 C1014 1.385 . S
C1015 C1016 1.389 . S
C1016 C1015 1.389 . S
C1016 C1017 1.387 . S
C1017 H1002 0.930 . S
C1017 C1012 1.390 1_655 S
C1017 C1016 1.387 . S
H1018 C1030 0.930 . S
H1019 C1032 0.930 . S
H1020 C1033 0.930 . S
H1021 C1037 0.959 . S
H1022 C1037 0.959 . S
H1023 C1037 0.961 . S
H1024 C1038 0.960 . S
H1025 C1038 0.961 . S
H1026 C1038 0.959 . S
H1027 C1041 0.929 . S
H1028 C1042 0.931 . S
H1029 C1044 0.930 . S
C1030 H1018 0.930 . S
C1030 C1031 1.399 . S
C1030 C1035 1.399 . S
C1031 C1030 1.399 . S
C1031 C1032 1.376 . S
C1032 H1019 0.930 . S
C1032 C1031 1.376 . S
C1032 C1033 1.388 . S
C1033 H1020 0.930 . S
C1033 C1032 1.388 . S
C1033 C1034 1.390 . S
C1034 C1033 1.390 . S
C1034 C1035 1.394 . S
C1034 C1040 1.465 . S
C1035 C1030 1.399 . S
C1035 C1034 1.394 . S
C1035 C1036 1.516 . S
C1036 C1035 1.516 . S
C1036 C1037 1.502 . S
C1036 C1038 1.561 . S
C1036 C1039 1.526 . S
C1037 H1021 0.959 . S
C1037 H1022 0.959 . S
C1037 H1023 0.961 . S
C1037 C1036 1.502 . S
C1038 H1024 0.960 . S
C1038 H1025 0.961 . S
C1038 H1026 0.959 . S
C1038 C1036 1.561 . S
C1039 C1036 1.526 . S
C1039 C1040 1.396 . S
C1039 C1044 1.390 1_565 S
C1040 C1034 1.465 . S
C1040 C1039 1.396 . S
C1040 C1041 1.399 1_565 S
C1041 H1027 0.929 . S
C1041 C1040 1.399 1_545 S
C1041 C1042 1.385 . S
C1042 H1028 0.931 . S
C1042 C1041 1.385 . S
C1042 C1043 1.389 . S
C1043 C1042 1.389 . S
C1043 C1044 1.387 . S
C1044 H1029 0.930 . S
C1044 C1039 1.390 1_545 S
C1044 C1043 1.387 . S
H1045 C1057 0.930 . S
H1046 C1059 0.930 . S
H1047 C1060 0.930 . S
H1048 C1064 0.959 . S
H1049 C1064 0.959 . S
H1050 C1064 0.961 . S
H1051 C1065 0.960 . S
H1052 C1065 0.961 . S
H1053 C1065 0.959 . S
H1054 C1068 0.929 . S
H1055 C1069 0.931 . S
H1056 C1071 0.930 . S
C1057 H1045 0.930 . S
C1057 C1058 1.399 . S
C1057 C1062 1.399 1_455 S
C1058 C1057 1.399 . S
C1058 C1059 1.376 . S
C1059 H1046 0.930 . S
C1059 C1058 1.376 . S
C1059 C1060 1.388 . S
C1060 H1047 0.930 . S
C1060 C1059 1.388 . S
C1060 C1061 1.390 1_455 S
C1061 C1060 1.390 1_655 S
C1061 C1062 1.394 . S
C1061 C1067 1.465 . S
C1062 C1057 1.399 1_655 S
C1062 C1061 1.394 . S
C1062 C1063 1.516 . S
C1063 C1062 1.516 . S
C1063 C1064 1.502 . S
C1063 C1065 1.561 . S
C1063 C1066 1.526 . S
C1064 H1048 0.959 . S
C1064 H1049 0.959 . S
C1064 H1050 0.961 . S
C1064 C1063 1.502 . S
C1065 H1051 0.960 . S
C1065 H1052 0.961 . S
C1065 H1053 0.959 . S
C1065 C1063 1.561 . S
C1066 C1063 1.526 . S
C1066 C1067 1.396 . S
C1066 C1071 1.390 . S
C1067 C1061 1.465 . S
C1067 C1066 1.396 . S
C1067 C1068 1.399 . S
C1068 H1054 0.929 . S
C1068 C1067 1.399 . S
C1068 C1069 1.385 . S
C1069 H1055 0.931 . S
C1069 C1068 1.385 . S
C1069 C1070 1.389 . S
C1070 C1069 1.389 . S
C1070 C1071 1.387 . S
C1071 H1056 0.930 . S
C1071 C1066 1.390 . S
C1071 C1070 1.387 . S
H1072 C1084 0.930 . S
H1073 C1086 0.930 . S
H1074 C1087 0.930 . S
H1075 C1091 0.959 . S
H1076 C1091 0.959 . S
H1077 C1091 0.961 . S
H1078 C1092 0.960 . S
H1079 C1092 0.961 . S
H1080 C1092 0.959 . S
H1081 C1095 0.929 . S
H1082 C1096 0.931 . S
H1083 C1098 0.930 . S
C1084 H1072 0.930 . S
C1084 C1085 1.399 . S
C1084 C1089 1.399 . S
C1085 C1084 1.399 . S
C1085 C1086 1.376 . S
C1086 H1073 0.930 . S
C1086 C1085 1.376 . S
C1086 C1087 1.388 . S
C1087 H1074 0.930 . S
C1087 C1086 1.388 . S
C1087 C1088 1.390 . S
C1088 C1087 1.390 . S
C1088 C1089 1.394 . S
C1088 C1094 1.465 . S
C1089 C1084 1.399 . S
C1089 C1088 1.394 . S
C1089 C1090 1.516 . S
C1090 C1089 1.516 . S
C1090 C1091 1.502 . S
C1090 C1092 1.561 . S
C1090 C1093 1.526 . S
C1091 H1075 0.959 . S
C1091 H1076 0.959 . S
C1091 H1077 0.961 . S
C1091 C1090 1.502 . S
C1092 H1078 0.960 . S
C1092 H1079 0.961 . S
C1092 H1080 0.959 . S
C1092 C1090 1.561 . S
C1093 C1090 1.526 . S
C1093 C1094 1.396 . S
C1093 C1098 1.390 . S
C1094 C1088 1.465 . S
C1094 C1093 1.396 . S
C1094 C1095 1.399 . S
C1095 H1081 0.929 . S
C1095 C1094 1.399 . S
C1095 C1096 1.385 . S
C1096 H1082 0.931 . S
C1096 C1095 1.385 . S
C1096 C1097 1.389 . S
C1097 C1096 1.389 . S
C1097 C1098 1.387 . S
C1098 H1083 0.930 . S
C1098 C1093 1.390 . S
C1098 C1097 1.387 . S
H1099 C1111 0.930 . S
H1100 C1113 0.930 . S
H1101 C1114 0.930 . S
H1102 C1118 0.959 . S
H1103 C1118 0.959 . S
H1104 C1118 0.961 . S
H1105 C1119 0.960 . S
H1106 C1119 0.961 . S
H1107 C1119 0.959 . S
H1108 C1122 0.929 . S
H1109 C1123 0.931 . S
H1110 C1125 0.930 . S
C1111 H1099 0.930 . S
C1111 C1112 1.399 . S
C1111 C1116 1.399 . S
C1112 C1111 1.399 . S
C1112 C1113 1.376 . S
C1113 H1100 0.930 . S
C1113 C1112 1.376 . S
C1113 C1114 1.388 . S
C1114 H1101 0.930 . S
C1114 C1113 1.388 . S
C1114 C1115 1.390 . S
C1115 C1114 1.390 . S
C1115 C1116 1.394 . S
C1115 C1121 1.465 . S
C1116 C1111 1.399 . S
C1116 C1115 1.394 . S
C1116 C1117 1.516 . S
C1117 C1116 1.516 . S
C1117 C1118 1.502 . S
C1117 C1119 1.561 . S
C1117 C1120 1.526 . S
C1118 H1102 0.959 . S
C1118 H1103 0.959 . S
C1118 H1104 0.961 . S
C1118 C1117 1.502 . S
C1119 H1105 0.960 . S
C1119 H1106 0.961 . S
C1119 H1107 0.959 . S
C1119 C1117 1.561 . S
C1120 C1117 1.526 . S
C1120 C1121 1.396 . S
C1120 C1125 1.390 . S
C1121 C1115 1.465 . S
C1121 C1120 1.396 . S
C1121 C1122 1.399 . S
C1122 H1108 0.929 . S
C1122 C1121 1.399 . S
C1122 C1123 1.385 . S
C1123 H1109 0.931 . S
C1123 C1122 1.385 . S
C1123 C1124 1.389 . S
C1124 C1123 1.389 . S
C1124 C1125 1.387 . S
C1125 H1110 0.930 . S
C1125 C1120 1.390 . S
C1125 C1124 1.387 . S
H1126 C1138 0.930 . S
H1127 C1140 0.930 . S
H1128 C1141 0.930 . S
H1129 C1145 0.959 . S
H1130 C1145 0.959 . S
H1131 C1145 0.961 . S
H1132 C1146 0.957 1_556 S
H1133 C1146 0.961 . S
H1134 C1146 0.959 . S
H1135 C1149 0.929 . S
H1136 C1150 0.931 . S
H1137 C1152 0.930 . S
C1138 H1126 0.930 . S
C1138 C1139 1.399 . S
C1138 C1143 1.399 . S
C1139 C1138 1.399 . S
C1139 C1140 1.376 . S
C1140 H1127 0.930 . S
C1140 C1139 1.376 . S
C1140 C1141 1.388 . S
C1141 H1128 0.930 . S
C1141 C1140 1.388 . S
C1141 C1142 1.390 . S
C1142 C1141 1.390 . S
C1142 C1143 1.394 . S
C1142 C1148 1.465 . S
C1143 C1138 1.399 . S
C1143 C1142 1.394 . S
C1143 C1144 1.516 . S
C1144 C1143 1.516 . S
C1144 C1145 1.502 . S
C1144 C1146 1.561 . S
C1144 C1147 1.526 . S
C1145 H1129 0.959 . S
C1145 H1130 0.959 . S
C1145 H1131 0.961 . S
C1145 C1144 1.502 . S
C1146 H1132 0.957 1_554 S
C1146 H1133 0.961 . S
C1146 H1134 0.959 . S
C1146 C1144 1.561 . S
C1147 C1144 1.526 . S
C1147 C1148 1.396 . S
C1147 C1152 1.390 . S
C1148 C1142 1.465 . S
C1148 C1147 1.396 . S
C1148 C1149 1.399 . S
C1149 H1135 0.929 . S
C1149 C1148 1.399 . S
C1149 C1150 1.385 . S
C1150 H1136 0.931 . S
C1150 C1149 1.385 . S
C1150 C1151 1.389 . S
C1151 C1150 1.389 . S
C1151 C1152 1.387 . S
C1152 H1137 0.930 . S
C1152 C1147 1.390 . S
C1152 C1151 1.387 . S
H1153 C1165 0.930 . S
H1154 C1167 0.930 . S
H1155 C1168 0.930 . S
H1156 C1172 0.959 . S
H1157 C1172 0.959 . S
H1158 C1172 0.961 . S
H1159 C1173 0.960 . S
H1160 C1173 0.961 . S
H1161 C1173 0.959 . S
H1162 C1176 0.929 . S
H1163 C1177 0.931 . S
H1164 C1179 0.930 . S
C1165 H1153 0.930 . S
C1165 C1166 1.399 . S
C1165 C1170 1.399 . S
C1166 C1165 1.399 . S
C1166 C1167 1.376 . S
C1167 H1154 0.930 . S
C1167 C1166 1.376 . S
C1167 C1168 1.388 . S
C1168 H1155 0.930 . S
C1168 C1167 1.388 . S
C1168 C1169 1.390 . S
C1169 C1168 1.390 . S
C1169 C1170 1.394 . S
C1169 C1175 1.465 . S
C1170 C1165 1.399 . S
C1170 C1169 1.394 . S
C1170 C1171 1.516 . S
C1171 C1170 1.516 . S
C1171 C1172 1.502 . S
C1171 C1173 1.561 . S
C1171 C1174 1.526 . S
C1172 H1156 0.959 . S
C1172 H1157 0.959 . S
C1172 H1158 0.961 . S
C1172 C1171 1.502 . S
C1173 H1159 0.960 . S
C1173 H1160 0.961 . S
C1173 H1161 0.959 . S
C1173 C1171 1.561 . S
C1174 C1171 1.526 . S
C1174 C1175 1.396 . S
C1174 C1179 1.390 . S
C1175 C1169 1.465 . S
C1175 C1174 1.396 . S
C1175 C1176 1.399 . S
C1176 H1162 0.929 . S
C1176 C1175 1.399 . S
C1176 C1177 1.385 . S
C1177 H1163 0.931 . S
C1177 C1176 1.385 . S
C1177 C1178 1.389 . S
C1178 C1177 1.389 . S
C1178 C1179 1.387 . S
C1179 H1164 0.930 . S
C1179 C1174 1.390 . S
C1179 C1178 1.387 . S
H1180 C1192 0.930 . S
H1181 C1194 0.930 . S
H1182 C1195 0.930 . S
H1183 C1199 0.959 . S
H1184 C1199 0.959 . S
H1185 C1199 0.961 . S
H1186 C1200 0.960 . S
H1187 C1200 0.961 . S
H1188 C1200 0.959 . S
H1189 C1203 0.929 . S
H1190 C1204 0.931 . S
H1191 C1206 0.930 . S
C1192 H1180 0.930 . S
C1192 C1193 1.399 . S
C1192 C1197 1.399 . S
C1193 C1192 1.399 . S
C1193 C1194 1.376 . S
C1194 H1181 0.930 . S
C1194 C1193 1.376 . S
C1194 C1195 1.388 . S
C1195 H1182 0.930 . S
C1195 C1194 1.388 . S
C1195 C1196 1.390 . S
C1196 C1195 1.390 . S
C1196 C1197 1.394 . S
C1196 C1202 1.465 . S
C1197 C1192 1.399 . S
C1197 C1196 1.394 . S
C1197 C1198 1.516 . S
C1198 C1197 1.516 . S
C1198 C1199 1.502 . S
C1198 C1200 1.561 . S
C1198 C1201 1.526 . S
C1199 H1183 0.959 . S
C1199 H1184 0.959 . S
C1199 H1185 0.961 . S
C1199 C1198 1.502 . S
C1200 H1186 0.960 . S
C1200 H1187 0.961 . S
C1200 H1188 0.959 . S
C1200 C1198 1.561 . S
C1201 C1198 1.526 . S
C1201 C1202 1.396 . S
C1201 C1206 1.390 . S
C1202 C1196 1.465 . S
C1202 C1201 1.396 . S
C1202 C1203 1.399 . S
C1203 H1189 0.929 . S
C1203 C1202 1.399 . S
C1203 C1204 1.385 . S
C1204 H1190 0.931 . S
C1204 C1203 1.385 . S
C1204 C1205 1.389 . S
C1205 C1204 1.389 . S
C1205 C1206 1.387 . S
C1206 H1191 0.930 . S
C1206 C1201 1.390 . S
C1206 C1205 1.387 . S
H1207 C1219 0.930 . S
H1208 C1221 0.930 . S
H1209 C1222 0.930 . S
H1210 C1226 0.959 . S
H1211 C1226 0.959 . S
H1212 C1226 0.961 . S
H1213 C1227 0.960 . S
H1214 C1227 0.961 . S
H1215 C1227 0.959 . S
H1216 C1230 0.929 . S
H1217 C1231 0.931 . S
H1218 C1233 0.930 . S
C1219 H1207 0.930 . S
C1219 C1220 1.399 . S
C1219 C1224 1.399 . S
C1220 C1219 1.399 . S
C1220 C1221 1.376 . S
C1221 H1208 0.930 . S
C1221 C1220 1.376 . S
C1221 C1222 1.388 . S
C1222 H1209 0.930 . S
C1222 C1221 1.388 . S
C1222 C1223 1.390 . S
C1223 C1222 1.390 . S
C1223 C1224 1.394 . S
C1223 C1229 1.465 . S
C1224 C1219 1.399 . S
C1224 C1223 1.394 . S
C1224 C1225 1.516 . S
C1225 C1224 1.516 . S
C1225 C1226 1.502 . S
C1225 C1227 1.561 . S
C1225 C1228 1.526 . S
C1226 H1210 0.959 . S
C1226 H1211 0.959 . S
C1226 H1212 0.961 . S
C1226 C1225 1.502 . S
C1227 H1213 0.960 . S
C1227 H1214 0.961 . S
C1227 H1215 0.959 . S
C1227 C1225 1.561 . S
C1228 C1225 1.526 . S
C1228 C1229 1.396 . S
C1228 C1233 1.390 . S
C1229 C1223 1.465 . S
C1229 C1228 1.396 . S
C1229 C1230 1.399 . S
C1230 H1216 0.929 . S
C1230 C1229 1.399 . S
C1230 C1231 1.385 . S
C1231 H1217 0.931 . S
C1231 C1230 1.385 . S
C1231 C1232 1.389 . S
C1232 C1231 1.389 . S
C1232 C1233 1.387 . S
C1233 H1218 0.930 . S
C1233 C1228 1.390 . S
C1233 C1232 1.387 . S
H1234 C1246 0.930 . S
H1235 C1248 0.930 . S
H1236 C1249 0.930 . S
H1237 C1253 0.959 . S
H1238 C1253 0.959 . S
H1239 C1253 0.961 . S
H1240 C1254 0.960 . S
H1241 C1254 0.961 . S
H1242 C1254 0.959 . S
H1243 C1257 0.929 . S
H1244 C1258 0.931 . S
H1245 C1260 0.930 . S
C1246 H1234 0.930 . S
C1246 C1247 1.399 . S
C1246 C1251 1.399 . S
C1247 C1246 1.399 . S
C1247 C1248 1.376 . S
C1248 H1235 0.930 . S
C1248 C1247 1.376 . S
C1248 C1249 1.388 . S
C1249 H1236 0.930 . S
C1249 C1248 1.388 . S
C1249 C1250 1.390 . S
C1250 C1249 1.390 . S
C1250 C1251 1.394 . S
C1250 C1256 1.465 . S
C1251 C1246 1.399 . S
C1251 C1250 1.394 . S
C1251 C1252 1.516 . S
C1252 C1251 1.516 . S
C1252 C1253 1.502 . S
C1252 C1254 1.561 . S
C1252 C1255 1.526 . S
C1253 H1237 0.959 . S
C1253 H1238 0.959 . S
C1253 H1239 0.961 . S
C1253 C1252 1.502 . S
C1254 H1240 0.960 . S
C1254 H1241 0.961 . S
C1254 H1242 0.959 . S
C1254 C1252 1.561 . S
C1255 C1252 1.526 . S
C1255 C1256 1.396 . S
C1255 C1260 1.390 . S
C1256 C1250 1.465 . S
C1256 C1255 1.396 . S
C1256 C1257 1.399 . S
C1257 H1243 0.929 . S
C1257 C1256 1.399 . S
C1257 C1258 1.385 . S
C1258 H1244 0.931 . S
C1258 C1257 1.385 . S
C1258 C1259 1.389 . S
C1259 C1258 1.389 . S
C1259 C1260 1.387 . S
C1260 H1245 0.930 . S
C1260 C1255 1.390 . S
C1260 C1259 1.387 . S
H1261 C1273 0.930 . S
H1262 C1275 0.930 . S
H1263 C1276 0.930 . S
H1264 C1280 0.959 . S
H1265 C1280 0.959 . S
H1266 C1280 0.961 . S
H1267 C1281 0.960 . S
H1268 C1281 0.961 . S
H1269 C1281 0.959 . S
H1270 C1284 0.929 . S
H1271 C1285 0.931 . S
H1272 C1287 0.930 . S
C1273 H1261 0.930 . S
C1273 C1274 1.399 . S
C1273 C1278 1.399 . S
C1274 C1273 1.399 . S
C1274 C1275 1.376 . S
C1275 H1262 0.930 . S
C1275 C1274 1.376 . S
C1275 C1276 1.388 . S
C1276 H1263 0.930 . S
C1276 C1275 1.388 . S
C1276 C1277 1.390 . S
C1277 C1276 1.390 . S
C1277 C1278 1.394 . S
C1277 C1283 1.465 . S
C1278 C1273 1.399 . S
C1278 C1277 1.394 . S
C1278 C1279 1.516 . S
C1279 C1278 1.516 . S
C1279 C1280 1.502 . S
C1279 C1281 1.561 . S
C1279 C1282 1.526 . S
C1280 H1264 0.959 . S
C1280 H1265 0.959 . S
C1280 H1266 0.961 . S
C1280 C1279 1.502 . S
C1281 H1267 0.960 . S
C1281 H1268 0.961 . S
C1281 H1269 0.959 . S
C1281 C1279 1.561 . S
C1282 C1279 1.526 . S
C1282 C1283 1.396 . S
C1282 C1287 1.390 . S
C1283 C1277 1.465 . S
C1283 C1282 1.396 . S
C1283 C1284 1.399 . S
C1284 H1270 0.929 . S
C1284 C1283 1.399 . S
C1284 C1285 1.385 . S
C1285 H1271 0.931 . S
C1285 C1284 1.385 . S
C1285 C1286 1.389 . S
C1286 C1285 1.389 . S
C1286 C1287 1.387 . S
C1287 H1272 0.930 . S
C1287 C1282 1.390 . S
C1287 C1286 1.387 . S
H1288 C1300 0.930 . S
H1289 C1302 0.930 . S
H1290 C1303 0.930 . S
H1291 C1307 0.959 . S
H1292 C1307 0.959 . S
H1293 C1307 0.961 . S
H1294 C1308 0.960 . S
H1295 C1308 0.961 . S
H1296 C1308 0.959 . S
H1297 C1311 0.929 . S
H1298 C1312 0.931 . S
H1299 C1314 0.930 . S
C1300 H1288 0.930 . S
C1300 C1301 1.399 . S
C1300 C1305 1.399 . S
C1301 C1300 1.399 . S
C1301 C1302 1.376 . S
C1302 H1289 0.930 . S
C1302 C1301 1.376 . S
C1302 C1303 1.388 . S
C1303 H1290 0.930 . S
C1303 C1302 1.388 . S
C1303 C1304 1.390 . S
C1304 C1303 1.390 . S
C1304 C1305 1.394 . S
C1304 C1310 1.465 . S
C1305 C1300 1.399 . S
C1305 C1304 1.394 . S
C1305 C1306 1.516 . S
C1306 C1305 1.516 . S
C1306 C1307 1.502 . S
C1306 C1308 1.561 . S
C1306 C1309 1.526 . S
C1307 H1291 0.959 . S
C1307 H1292 0.959 . S
C1307 H1293 0.961 . S
C1307 C1306 1.502 . S
C1308 H1294 0.960 . S
C1308 H1295 0.961 . S
C1308 H1296 0.959 . S
C1308 C1306 1.561 . S
C1309 C1306 1.526 . S
C1309 C1310 1.396 . S
C1309 C1314 1.390 . S
C1310 C1304 1.465 . S
C1310 C1309 1.396 . S
C1310 C1311 1.399 . S
C1311 H1297 0.929 . S
C1311 C1310 1.399 . S
C1311 C1312 1.385 . S
C1312 H1298 0.931 . S
C1312 C1311 1.385 . S
C1312 C1313 1.389 . S
C1313 C1312 1.389 . S
C1313 C1314 1.387 . S
C1314 H1299 0.930 . S
C1314 C1309 1.390 . S
C1314 C1313 1.387 . S
H1315 C1327 0.923 1_556 S
H1316 C1329 0.930 . S
H1317 C1330 0.930 . S
H1318 C1334 0.959 . S
H1319 C1334 0.959 . S
H1320 C1334 0.961 . S
H1321 C1335 0.960 . S
H1322 C1335 0.961 . S
H1323 C1335 0.959 . S
H1324 C1338 0.929 . S
H1325 C1339 0.931 . S
H1326 C1341 0.930 . S
C1327 H1315 0.923 1_554 S
C1327 C1328 1.399 . S
C1327 C1332 1.399 . S
C1328 C1327 1.399 . S
C1328 C1329 1.376 . S
C1329 H1316 0.930 . S
C1329 C1328 1.376 . S
C1329 C1330 1.388 . S
C1330 H1317 0.930 . S
C1330 C1329 1.388 . S
C1330 C1331 1.390 . S
C1331 C1330 1.390 . S
C1331 C1332 1.394 . S
C1331 C1337 1.465 . S
C1332 C1327 1.399 . S
C1332 C1331 1.394 . S
C1332 C1333 1.516 . S
C1333 C1332 1.516 . S
C1333 C1334 1.502 . S
C1333 C1335 1.561 . S
C1333 C1336 1.526 . S
C1334 H1318 0.959 . S
C1334 H1319 0.959 . S
C1334 H1320 0.961 . S
C1334 C1333 1.502 . S
C1335 H1321 0.960 . S
C1335 H1322 0.961 . S
C1335 H1323 0.959 . S
C1335 C1333 1.561 . S
C1336 C1333 1.526 . S
C1336 C1337 1.396 . S
C1336 C1341 1.390 . S
C1337 C1331 1.465 . S
C1337 C1336 1.396 . S
C1337 C1338 1.399 . S
C1338 H1324 0.929 . S
C1338 C1337 1.399 . S
C1338 C1339 1.385 . S
C1339 H1325 0.931 . S
C1339 C1338 1.385 . S
C1339 C1340 1.389 . S
C1340 C1339 1.389 . S
C1340 C1341 1.387 . S
C1341 H1326 0.930 . S
C1341 C1336 1.390 . S
C1341 C1340 1.387 . S
H1342 C1354 0.930 . S
H1343 C1356 0.930 . S
H1344 C1357 0.930 . S
H1345 C1361 0.959 . S
H1346 C1361 0.959 . S
H1347 C1361 0.961 . S
H1348 C1362 0.960 . S
H1349 C1362 0.961 . S
H1350 C1362 0.959 . S
H1351 C1365 0.929 . S
H1352 C1366 0.931 . S
H1353 C1368 0.930 . S
C1354 H1342 0.930 . S
C1354 C1355 1.399 . S
C1354 C1359 1.399 . S
C1355 C1354 1.399 . S
C1355 C1356 1.376 . S
C1356 H1343 0.930 . S
C1356 C1355 1.376 . S
C1356 C1357 1.388 . S
C1357 H1344 0.930 . S
C1357 C1356 1.388 . S
C1357 C1358 1.390 . S
C1358 C1357 1.390 . S
C1358 C1359 1.394 . S
C1358 C1364 1.465 . S
C1359 C1354 1.399 . S
C1359 C1358 1.394 . S
C1359 C1360 1.516 . S
C1360 C1359 1.516 . S
C1360 C1361 1.502 . S
C1360 C1362 1.561 . S
C1360 C1363 1.526 . S
C1361 H1345 0.959 . S
C1361 H1346 0.959 . S
C1361 H1347 0.961 . S
C1361 C1360 1.502 . S
C1362 H1348 0.960 . S
C1362 H1349 0.961 . S
C1362 H1350 0.959 . S
C1362 C1360 1.561 . S
C1363 C1360 1.526 . S
C1363 C1364 1.396 . S
C1363 C1368 1.390 . S
C1364 C1358 1.465 . S
C1364 C1363 1.396 . S
C1364 C1365 1.399 . S
C1365 H1351 0.929 . S
C1365 C1364 1.399 . S
C1365 C1366 1.385 . S
C1366 H1352 0.931 . S
C1366 C1365 1.385 . S
C1366 C1367 1.389 . S
C1367 C1366 1.389 . S
C1367 C1368 1.387 . S
C1368 H1353 0.930 . S
C1368 C1363 1.390 . S
C1368 C1367 1.387 . S
H1369 C1381 0.930 1_556 S
H1370 C1383 0.930 . S
H1371 C1384 0.930 . S
H1372 C1388 0.959 . S
H1373 C1388 0.959 . S
H1374 C1388 0.961 . S
H1375 C1389 0.960 . S
H1376 C1389 0.961 . S
H1377 C1389 0.959 . S
H1378 C1392 0.929 . S
H1379 C1393 0.931 . S
H1380 C1395 0.930 . S
C1381 H1369 0.930 1_554 S
C1381 C1382 1.399 . S
C1381 C1386 1.399 . S
C1382 C1381 1.399 . S
C1382 C1383 1.376 . S
C1383 H1370 0.930 . S
C1383 C1382 1.376 . S
C1383 C1384 1.388 . S
C1384 H1371 0.930 . S
C1384 C1383 1.388 . S
C1384 C1385 1.390 . S
C1385 C1384 1.390 . S
C1385 C1386 1.394 . S
C1385 C1391 1.465 . S
C1386 C1381 1.399 . S
C1386 C1385 1.394 . S
C1386 C1387 1.516 . S
C1387 C1386 1.516 . S
C1387 C1388 1.502 . S
C1387 C1389 1.561 . S
C1387 C1390 1.526 . S
C1388 H1372 0.959 . S
C1388 H1373 0.959 . S
C1388 H1374 0.961 . S
C1388 C1387 1.502 . S
C1389 H1375 0.960 . S
C1389 H1376 0.961 . S
C1389 H1377 0.959 . S
C1389 C1387 1.561 . S
C1390 C1387 1.526 . S
C1390 C1391 1.396 . S
C1390 C1395 1.390 . S
C1391 C1385 1.465 . S
C1391 C1390 1.396 . S
C1391 C1392 1.399 . S
C1392 H1378 0.929 . S
C1392 C1391 1.399 . S
C1392 C1393 1.385 . S
C1393 H1379 0.931 . S
C1393 C1392 1.385 . S
C1393 C1394 1.389 . S
C1394 C1393 1.389 . S
C1394 C1395 1.387 . S
C1395 H1380 0.930 . S
C1395 C1390 1.390 . S
C1395 C1394 1.387 . S
H1396 C1408 0.930 . S
H1397 C1410 0.930 . S
H1398 C1411 0.930 . S
H1399 C1415 0.959 . S
H1400 C1415 0.959 . S
H1401 C1415 0.961 . S
H1402 C1416 0.960 . S
H1403 C1416 0.961 . S
H1404 C1416 0.959 . S
H1405 C1419 0.929 . S
H1406 C1420 0.931 . S
H1407 C1422 0.930 . S
C1408 H1396 0.930 . S
C1408 C1409 1.399 . S
C1408 C1413 1.399 . S
C1409 C1408 1.399 . S
C1409 C1410 1.376 . S
C1410 H1397 0.930 . S
C1410 C1409 1.376 . S
C1410 C1411 1.388 . S
C1411 H1398 0.930 . S
C1411 C1410 1.388 . S
C1411 C1412 1.390 . S
C1412 C1411 1.390 . S
C1412 C1413 1.394 . S
C1412 C1418 1.465 . S
C1413 C1408 1.399 . S
C1413 C1412 1.394 . S
C1413 C1414 1.516 . S
C1414 C1413 1.516 . S
C1414 C1415 1.502 . S
C1414 C1416 1.561 . S
C1414 C1417 1.526 . S
C1415 H1399 0.959 . S
C1415 H1400 0.959 . S
C1415 H1401 0.961 . S
C1415 C1414 1.502 . S
C1416 H1402 0.960 . S
C1416 H1403 0.961 . S
C1416 H1404 0.959 . S
C1416 C1414 1.561 . S
C1417 C1414 1.526 . S
C1417 C1418 1.396 . S
C1417 C1422 1.390 . S
C1418 C1412 1.465 . S
C1418 C1417 1.396 . S
C1418 C1419 1.399 . S
C1419 H1405 0.929 . S
C1419 C1418 1.399 . S
C1419 C1420 1.385 . S
C1420 H1406 0.931 . S
C1420 C1419 1.385 . S
C1420 C1421 1.389 . S
C1421 C1420 1.389 . S
C1421 C1422 1.387 . S
C1422 H1407 0.930 . S
C1422 C1417 1.390 . S
C1422 C1421 1.387 . S
H1423 C1435 0.930 . S
H1424 C1437 0.930 . S
H1425 C1438 0.930 . S
H1426 C1442 0.959 . S
H1427 C1442 0.959 . S
H1428 C1442 0.961 . S
H1429 C1443 0.960 . S
H1430 C1443 0.961 . S
H1431 C1443 0.959 . S
H1432 C1446 0.929 . S
H1433 C1447 0.931 . S
H1434 C1449 0.930 . S
C1435 H1423 0.930 . S
C1435 C1436 1.399 . S
C1435 C1440 1.399 . S
C1436 C1435 1.399 . S
C1436 C1437 1.376 . S
C1437 H1424 0.930 . S
C1437 C1436 1.376 . S
C1437 C1438 1.388 . S
C1438 H1425 0.930 . S
C1438 C1437 1.388 . S
C1438 C1439 1.390 . S
C1439 C1438 1.390 . S
C1439 C1440 1.394 . S
C1439 C1445 1.465 . S
C1440 C1435 1.399 . S
C1440 C1439 1.394 . S
C1440 C1441 1.516 . S
C1441 C1440 1.516 . S
C1441 C1442 1.502 . S
C1441 C1443 1.561 . S
C1441 C1444 1.526 . S
C1442 H1426 0.959 . S
C1442 H1427 0.959 . S
C1442 H1428 0.961 . S
C1442 C1441 1.502 . S
C1443 H1429 0.960 . S
C1443 H1430 0.961 . S
C1443 H1431 0.959 . S
C1443 C1441 1.561 . S
C1444 C1441 1.526 . S
C1444 C1445 1.396 . S
C1444 C1449 1.390 . S
C1445 C1439 1.465 . S
C1445 C1444 1.396 . S
C1445 C1446 1.399 . S
C1446 H1432 0.929 . S
C1446 C1445 1.399 . S
C1446 C1447 1.385 . S
C1447 H1433 0.931 . S
C1447 C1446 1.385 . S
C1447 C1448 1.389 . S
C1448 C1447 1.389 . S
C1448 C1449 1.387 . S
C1449 H1434 0.930 . S
C1449 C1444 1.390 . S
C1449 C1448 1.387 . S
H1450 C1462 0.930 . S
H1451 C1464 0.930 . S
H1452 C1465 0.930 . S
H1453 C1469 0.959 . S
H1454 C1469 0.959 . S
H1455 C1469 0.961 . S
H1456 C1470 0.960 . S
H1457 C1470 0.961 . S
H1458 C1470 0.959 . S
H1459 C1473 0.929 . S
H1460 C1474 0.931 . S
H1461 C1476 0.930 . S
C1462 H1450 0.930 . S
C1462 C1463 1.399 . S
C1462 C1467 1.399 . S
C1463 C1462 1.399 . S
C1463 C1464 1.376 . S
C1464 H1451 0.930 . S
C1464 C1463 1.376 . S
C1464 C1465 1.388 . S
C1465 H1452 0.930 . S
C1465 C1464 1.388 . S
C1465 C1466 1.390 . S
C1466 C1465 1.390 . S
C1466 C1467 1.394 . S
C1466 C1472 1.465 . S
C1467 C1462 1.399 . S
C1467 C1466 1.394 . S
C1467 C1468 1.516 . S
C1468 C1467 1.516 . S
C1468 C1469 1.502 . S
C1468 C1470 1.561 . S
C1468 C1471 1.526 . S
C1469 H1453 0.959 . S
C1469 H1454 0.959 . S
C1469 H1455 0.961 . S
C1469 C1468 1.502 . S
C1470 H1456 0.960 . S
C1470 H1457 0.961 . S
C1470 H1458 0.959 . S
C1470 C1468 1.561 . S
C1471 C1468 1.526 . S
C1471 C1472 1.396 . S
C1471 C1476 1.390 . S
C1472 C1466 1.465 . S
C1472 C1471 1.396 . S
C1472 C1473 1.399 . S
C1473 H1459 0.929 . S
C1473 C1472 1.399 . S
C1473 C1474 1.385 . S
C1474 H1460 0.931 . S
C1474 C1473 1.385 . S
C1474 C1475 1.389 . S
C1475 C1474 1.389 . S
C1475 C1476 1.387 . S
C1476 H1461 0.930 . S
C1476 C1471 1.390 . S
C1476 C1475 1.387 . S
H1477 C1489 0.930 . S
H1478 C1491 0.930 . S
H1479 C1492 0.930 . S
H1480 C1496 0.959 . S
H1481 C1496 0.959 . S
H1482 C1496 0.961 . S
H1483 C1497 0.960 . S
H1484 C1497 0.961 . S
H1485 C1497 0.959 . S
H1486 C1500 0.929 . S
H1487 C1501 0.931 . S
H1488 C1503 0.930 . S
C1489 H1477 0.930 . S
C1489 C1490 1.399 . S
C1489 C1494 1.399 . S
C1490 C1489 1.399 . S
C1490 C1491 1.376 . S
C1491 H1478 0.930 . S
C1491 C1490 1.376 . S
C1491 C1492 1.388 . S
C1492 H1479 0.930 . S
C1492 C1491 1.388 . S
C1492 C1493 1.390 . S
C1493 C1492 1.390 . S
C1493 C1494 1.394 . S
C1493 C1499 1.465 . S
C1494 C1489 1.399 . S
C1494 C1493 1.394 . S
C1494 C1495 1.516 . S
C1495 C1494 1.516 . S
C1495 C1496 1.502 . S
C1495 C1497 1.561 . S
C1495 C1498 1.526 . S
C1496 H1480 0.959 . S
C1496 H1481 0.959 . S
C1496 H1482 0.961 . S
C1496 C1495 1.502 . S
C1497 H1483 0.960 . S
C1497 H1484 0.961 . S
C1497 H1485 0.959 . S
C1497 C1495 1.561 . S
C1498 C1495 1.526 . S
C1498 C1499 1.396 . S
C1498 C1503 1.390 . S
C1499 C1493 1.465 . S
C1499 C1498 1.396 . S
C1499 C1500 1.399 . S
C1500 H1486 0.929 . S
C1500 C1499 1.399 . S
C1500 C1501 1.385 . S
C1501 H1487 0.931 . S
C1501 C1500 1.385 . S
C1501 C1502 1.389 . S
C1502 C1501 1.389 . S
C1502 C1503 1.387 . S
C1503 H1488 0.930 . S
C1503 C1498 1.390 . S
C1503 C1502 1.387 . S
H1504 C1516 0.930 . S
H1505 C1518 0.930 . S
H1506 C1519 0.930 . S
H1507 C1523 0.959 . S
H1508 C1523 0.959 . S
H1509 C1523 0.961 . S
H1510 C1524 0.960 . S
H1511 C1524 0.961 . S
H1512 C1524 0.959 . S
H1513 C1527 0.929 . S
H1514 C1528 0.931 . S
H1515 C1530 0.930 . S
C1516 H1504 0.930 . S
C1516 C1517 1.399 . S
C1516 C1521 1.399 . S
C1517 C1516 1.399 . S
C1517 C1518 1.376 . S
C1518 H1505 0.930 . S
C1518 C1517 1.376 . S
C1518 C1519 1.388 . S
C1519 H1506 0.930 . S
C1519 C1518 1.388 . S
C1519 C1520 1.390 . S
C1520 C1519 1.390 . S
C1520 C1521 1.394 . S
C1520 C1526 1.465 . S
C1521 C1516 1.399 . S
C1521 C1520 1.394 . S
C1521 C1522 1.516 . S
C1522 C1521 1.516 . S
C1522 C1523 1.502 . S
C1522 C1524 1.561 . S
C1522 C1525 1.526 . S
C1523 H1507 0.959 . S
C1523 H1508 0.959 . S
C1523 H1509 0.961 . S
C1523 C1522 1.502 . S
C1524 H1510 0.960 . S
C1524 H1511 0.961 . S
C1524 H1512 0.959 . S
C1524 C1522 1.561 . S
C1525 C1522 1.526 . S
C1525 C1526 1.396 . S
C1525 C1530 1.390 . S
C1526 C1520 1.465 . S
C1526 C1525 1.396 . S
C1526 C1527 1.399 . S
C1527 H1513 0.929 . S
C1527 C1526 1.399 . S
C1527 C1528 1.385 . S
C1528 H1514 0.931 . S
C1528 C1527 1.385 . S
C1528 C1529 1.389 . S
C1529 C1528 1.389 . S
C1529 C1530 1.387 . S
C1530 H1515 0.930 . S
C1530 C1525 1.390 . S
C1530 C1529 1.387 . S
H1531 C1543 0.930 . S
H1532 C1545 0.930 . S
H1533 C1546 0.930 . S
H1534 C1550 0.959 . S
H1535 C1550 0.959 . S
H1536 C1550 0.961 . S
H1537 C1551 0.960 . S
H1538 C1551 0.961 . S
H1539 C1551 0.959 . S
H1540 C1554 0.929 . S
H1541 C1555 0.931 . S
H1542 C1557 0.930 . S
C1543 H1531 0.930 . S
C1543 C1544 1.399 . S
C1543 C1548 1.399 . S
C1544 C1543 1.399 . S
C1544 C1545 1.376 . S
C1545 H1532 0.930 . S
C1545 C1544 1.376 . S
C1545 C1546 1.388 . S
C1546 H1533 0.930 . S
C1546 C1545 1.388 . S
C1546 C1547 1.390 . S
C1547 C1546 1.390 . S
C1547 C1548 1.394 . S
C1547 C1553 1.465 . S
C1548 C1543 1.399 . S
C1548 C1547 1.394 . S
C1548 C1549 1.516 . S
C1549 C1548 1.516 . S
C1549 C1550 1.502 . S
C1549 C1551 1.561 . S
C1549 C1552 1.526 . S
C1550 H1534 0.959 . S
C1550 H1535 0.959 . S
C1550 H1536 0.961 . S
C1550 C1549 1.502 . S
C1551 H1537 0.960 . S
C1551 H1538 0.961 . S
C1551 H1539 0.959 . S
C1551 C1549 1.561 . S
C1552 C1549 1.526 . S
C1552 C1553 1.396 . S
C1552 C1557 1.390 . S
C1553 C1547 1.465 . S
C1553 C1552 1.396 . S
C1553 C1554 1.399 . S
C1554 H1540 0.929 . S
C1554 C1553 1.399 . S
C1554 C1555 1.385 . S
C1555 H1541 0.931 . S
C1555 C1554 1.385 . S
C1555 C1556 1.389 . S
C1556 C1555 1.389 . S
C1556 C1557 1.387 . S
C1557 H1542 0.930 . S
C1557 C1552 1.390 . S
C1557 C1556 1.387 . S
H1558 C1570 0.930 . S
H1559 C1572 0.930 . S
H1560 C1573 0.930 . S
H1561 C1577 0.959 . S
H1562 C1577 0.959 . S
H1563 C1577 0.961 . S
H1564 C1578 0.960 . S
H1565 C1578 0.961 . S
H1566 C1578 0.959 . S
H1567 C1581 0.929 . S
H1568 C1582 0.931 . S
H1569 C1584 0.930 . S
C1570 H1558 0.930 . S
C1570 C1571 1.399 . S
C1570 C1575 1.399 . S
C1571 C1570 1.399 . S
C1571 C1572 1.376 . S
C1572 H1559 0.930 . S
C1572 C1571 1.376 . S
C1572 C1573 1.388 . S
C1573 H1560 0.930 . S
C1573 C1572 1.388 . S
C1573 C1574 1.390 . S
C1574 C1573 1.390 . S
C1574 C1575 1.394 . S
C1574 C1580 1.465 . S
C1575 C1570 1.399 . S
C1575 C1574 1.394 . S
C1575 C1576 1.516 . S
C1576 C1575 1.516 . S
C1576 C1577 1.502 . S
C1576 C1578 1.561 . S
C1576 C1579 1.526 . S
C1577 H1561 0.959 . S
C1577 H1562 0.959 . S
C1577 H1563 0.961 . S
C1577 C1576 1.502 . S
C1578 H1564 0.960 . S
C1578 H1565 0.961 . S
C1578 H1566 0.959 . S
C1578 C1576 1.561 . S
C1579 C1576 1.526 . S
C1579 C1580 1.396 . S
C1579 C1584 1.390 . S
C1580 C1574 1.465 . S
C1580 C1579 1.396 . S
C1580 C1581 1.399 . S
C1581 H1567 0.929 . S
C1581 C1580 1.399 . S
C1581 C1582 1.385 . S
C1582 H1568 0.931 . S
C1582 C1581 1.385 . S
C1582 C1583 1.389 . S
C1583 C1582 1.389 . S
C1583 C1584 1.387 . S
C1584 H1569 0.930 . S
C1584 C1579 1.390 . S
C1584 C1583 1.387 . S
H1585 C1597 0.930 . S
H1586 C1599 0.930 . S
H1587 C1600 0.930 . S
H1588 C1604 0.959 . S
H1589 C1604 0.959 . S
H1590 C1604 0.961 . S
H1591 C1605 0.960 . S
H1592 C1605 0.961 . S
H1593 C1605 0.959 . S
H1594 C1608 0.929 . S
H1595 C1609 0.931 . S
H1596 C1611 0.930 . S
C1597 H1585 0.930 . S
C1597 C1598 1.399 . S
C1597 C1602 1.399 . S
C1598 C1597 1.399 . S
C1598 C1599 1.376 . S
C1599 H1586 0.930 . S
C1599 C1598 1.376 . S
C1599 C1600 1.388 . S
C1600 H1587 0.930 . S
C1600 C1599 1.388 . S
C1600 C1601 1.390 . S
C1601 C1600 1.390 . S
C1601 C1602 1.394 . S
C1601 C1607 1.465 . S
C1602 C1597 1.399 . S
C1602 C1601 1.394 . S
C1602 C1603 1.516 . S
C1603 C1602 1.516 . S
C1603 C1604 1.502 . S
C1603 C1605 1.561 . S
C1603 C1606 1.526 . S
C1604 H1588 0.959 . S
C1604 H1589 0.959 . S
C1604 H1590 0.961 . S
C1604 C1603 1.502 . S
C1605 H1591 0.960 . S
C1605 H1592 0.961 . S
C1605 H1593 0.959 . S
C1605 C1603 1.561 . S
C1606 C1603 1.526 . S
C1606 C1607 1.396 . S
C1606 C1611 1.390 . S
C1607 C1601 1.465 . S
C1607 C1606 1.396 . S
C1607 C1608 1.399 . S
C1608 H1594 0.929 . S
C1608 C1607 1.399 . S
C1608 C1609 1.385 . S
C1609 H1595 0.931 . S
C1609 C1608 1.385 . S
C1609 C1610 1.389 . S
C1610 C1609 1.389 . S
C1610 C1611 1.387 . S
C1611 H1596 0.930 . S
C1611 C1606 1.390 . S
C1611 C1610 1.387 . S
H1612 C1624 0.930 . S
H1613 C1626 0.930 . S
H1614 C1627 0.930 . S
H1615 C1631 0.959 . S
H1616 C1631 0.959 . S
H1617 C1631 0.961 . S
H1618 C1632 0.960 . S
H1619 C1632 0.961 . S
H1620 C1632 0.959 . S
H1621 C1635 0.929 . S
H1622 C1636 0.931 . S
H1623 C1638 0.930 . S
C1624 H1612 0.930 . S
C1624 C1625 1.399 . S
C1624 C1629 1.399 . S
C1625 C1624 1.399 . S
C1625 C1626 1.376 . S
C1626 H1613 0.930 . S
C1626 C1625 1.376 . S
C1626 C1627 1.388 . S
C1627 H1614 0.930 . S
C1627 C1626 1.388 . S
C1627 C1628 1.390 . S
C1628 C1627 1.390 . S
C1628 C1629 1.394 . S
C1628 C1634 1.465 . S
C1629 C1624 1.399 . S
C1629 C1628 1.394 . S
C1629 C1630 1.516 . S
C1630 C1629 1.516 . S
C1630 C1631 1.502 . S
C1630 C1632 1.561 . S
C1630 C1633 1.526 . S
C1631 H1615 0.959 . S
C1631 H1616 0.959 . S
C1631 H1617 0.961 . S
C1631 C1630 1.502 . S
C1632 H1618 0.960 . S
C1632 H1619 0.961 . S
C1632 H1620 0.959 . S
C1632 C1630 1.561 . S
C1633 C1630 1.526 . S
C1633 C1634 1.396 . S
C1633 C1638 1.390 . S
C1634 C1628 1.465 . S
C1634 C1633 1.396 . S
C1634 C1635 1.399 . S
C1635 H1621 0.929 . S
C1635 C1634 1.399 . S
C1635 C1636 1.385 . S
C1636 H1622 0.931 . S
C1636 C1635 1.385 . S
C1636 C1637 1.389 . S
C1637 C1636 1.389 . S
C1637 C1638 1.387 . S
C1638 H1623 0.930 . S
C1638 C1633 1.390 . S
C1638 C1637 1.387 . S
H1639 C1651 0.930 . S
H1640 C1653 0.930 . S
H1641 C1654 0.930 . S
H1642 C1658 0.959 . S
H1643 C1658 0.959 . S
H1644 C1658 0.961 . S
H1645 C1659 0.960 . S
H1646 C1659 0.961 . S
H1647 C1659 0.959 . S
H1648 C1662 0.929 . S
H1649 C1663 0.931 . S
H1650 C1665 0.930 . S
C1651 H1639 0.930 . S
C1651 C1652 1.399 . S
C1651 C1656 1.399 . S
C1652 C1651 1.399 . S
C1652 C1653 1.376 . S
C1653 H1640 0.930 . S
C1653 C1652 1.376 . S
C1653 C1654 1.388 . S
C1654 H1641 0.930 . S
C1654 C1653 1.388 . S
C1654 C1655 1.390 . S
C1655 C1654 1.390 . S
C1655 C1656 1.394 . S
C1655 C1661 1.465 . S
C1656 C1651 1.399 . S
C1656 C1655 1.394 . S
C1656 C1657 1.516 . S
C1657 C1656 1.516 . S
C1657 C1658 1.502 . S
C1657 C1659 1.561 . S
C1657 C1660 1.526 . S
C1658 H1642 0.959 . S
C1658 H1643 0.959 . S
C1658 H1644 0.961 . S
C1658 C1657 1.502 . S
C1659 H1645 0.960 . S
C1659 H1646 0.961 . S
C1659 H1647 0.959 . S
C1659 C1657 1.561 . S
C1660 C1657 1.526 . S
C1660 C1661 1.396 . S
C1660 C1665 1.390 . S
C1661 C1655 1.465 . S
C1661 C1660 1.396 . S
C1661 C1662 1.399 . S
C1662 H1648 0.929 . S
C1662 C1661 1.399 . S
C1662 C1663 1.385 . S
C1663 H1649 0.931 . S
C1663 C1662 1.385 . S
C1663 C1664 1.389 . S
C1664 C1663 1.389 . S
C1664 C1665 1.387 . S
C1665 H1650 0.930 . S
C1665 C1660 1.390 . S
C1665 C1664 1.387 . S
H1666 C1678 0.930 . S
H1667 C1680 0.930 . S
H1668 C1681 0.930 . S
H1669 C1685 0.959 . S
H1670 C1685 0.959 . S
H1671 C1685 0.961 . S
H1672 C1686 0.960 . S
H1673 C1686 0.961 . S
H1674 C1686 0.959 . S
H1675 C1689 0.929 . S
H1676 C1690 0.931 . S
H1677 C1692 0.930 . S
C1678 H1666 0.930 . S
C1678 C1679 1.399 . S
C1678 C1683 1.399 . S
C1679 C1678 1.399 . S
C1679 C1680 1.376 . S
C1680 H1667 0.930 . S
C1680 C1679 1.376 . S
C1680 C1681 1.388 . S
C1681 H1668 0.930 . S
C1681 C1680 1.388 . S
C1681 C1682 1.390 . S
C1682 C1681 1.390 . S
C1682 C1683 1.394 . S
C1682 C1688 1.465 . S
C1683 C1678 1.399 . S
C1683 C1682 1.394 . S
C1683 C1684 1.516 . S
C1684 C1683 1.516 . S
C1684 C1685 1.502 . S
C1684 C1686 1.561 . S
C1684 C1687 1.526 . S
C1685 H1669 0.959 . S
C1685 H1670 0.959 . S
C1685 H1671 0.961 . S
C1685 C1684 1.502 . S
C1686 H1672 0.960 . S
C1686 H1673 0.961 . S
C1686 H1674 0.959 . S
C1686 C1684 1.561 . S
C1687 C1684 1.526 . S
C1687 C1688 1.396 . S
C1687 C1692 1.390 . S
C1688 C1682 1.465 . S
C1688 C1687 1.396 . S
C1688 C1689 1.399 . S
C1689 H1675 0.929 . S
C1689 C1688 1.399 . S
C1689 C1690 1.385 . S
C1690 H1676 0.931 . S
C1690 C1689 1.385 . S
C1690 C1691 1.389 . S
C1691 C1690 1.389 . S
C1691 C1692 1.387 . S
C1692 H1677 0.930 . S
C1692 C1687 1.390 . S
C1692 C1691 1.387 . S
H1693 C1705 0.930 . S
H1694 C1707 0.930 . S
H1695 C1708 0.930 . S
H1696 C1712 0.959 . S
H1697 C1712 0.959 . S
H1698 C1712 0.961 . S
H1699 C1713 0.960 . S
H1700 C1713 0.961 . S
H1701 C1713 0.959 . S
H1702 C1716 0.929 . S
H1703 C1717 0.931 . S
H1704 C1719 0.930 . S
C1705 H1693 0.930 . S
C1705 C1706 1.399 . S
C1705 C1710 1.399 . S
C1706 C1705 1.399 . S
C1706 C1707 1.376 . S
C1707 H1694 0.930 . S
C1707 C1706 1.376 . S
C1707 C1708 1.388 . S
C1708 H1695 0.930 . S
C1708 C1707 1.388 . S
C1708 C1709 1.390 . S
C1709 C1708 1.390 . S
C1709 C1710 1.394 . S
C1709 C1715 1.465 . S
C1710 C1705 1.399 . S
C1710 C1709 1.394 . S
C1710 C1711 1.516 . S
C1711 C1710 1.516 . S
C1711 C1712 1.502 . S
C1711 C1713 1.561 . S
C1711 C1714 1.526 . S
C1712 H1696 0.959 . S
C1712 H1697 0.959 . S
C1712 H1698 0.961 . S
C1712 C1711 1.502 . S
C1713 H1699 0.960 . S
C1713 H1700 0.961 . S
C1713 H1701 0.959 . S
C1713 C1711 1.561 . S
C1714 C1711 1.526 . S
C1714 C1715 1.396 . S
C1714 C1719 1.390 . S
C1715 C1709 1.465 . S
C1715 C1714 1.396 . S
C1715 C1716 1.399 . S
C1716 H1702 0.929 . S
C1716 C1715 1.399 . S
C1716 C1717 1.385 . S
C1717 H1703 0.931 . S
C1717 C1716 1.385 . S
C1717 C1718 1.389 . S
C1718 C1717 1.389 . S
C1718 C1719 1.387 . S
C1719 H1704 0.930 . S
C1719 C1714 1.390 . S
C1719 C1718 1.387 . S
H1720 C1732 0.930 . S
H1721 C1734 0.930 1_556 S
H1722 C1735 0.930 . S
H1723 C1739 0.959 . S
H1724 C1739 0.959 . S
H1725 C1739 0.961 . S
H1726 C1740 0.960 . S
H1727 C1740 0.961 . S
H1728 C1740 0.959 . S
H1729 C1743 0.929 . S
H1730 C1744 0.931 . S
H1731 C1746 0.930 . S
C1732 H1720 0.930 . S
C1732 C1733 1.399 1_554 S
C1732 C1737 1.399 . S
C1733 C1732 1.399 1_556 S
C1733 C1734 1.376 1_556 S
C1734 H1721 0.930 1_554 S
C1734 C1733 1.376 1_554 S
C1734 C1735 1.388 . S
C1735 H1722 0.930 . S
C1735 C1734 1.388 . S
C1735 C1736 1.390 . S
C1736 C1735 1.390 . S
C1736 C1737 1.394 . S
C1736 C1742 1.465 . S
C1737 C1732 1.399 . S
C1737 C1736 1.394 . S
C1737 C1738 1.516 . S
C1738 C1737 1.516 . S
C1738 C1739 1.502 . S
C1738 C1740 1.561 . S
C1738 C1741 1.526 . S
C1739 H1723 0.959 . S
C1739 H1724 0.959 . S
C1739 H1725 0.961 . S
C1739 C1738 1.502 . S
C1740 H1726 0.960 . S
C1740 H1727 0.961 . S
C1740 H1728 0.959 . S
C1740 C1738 1.561 . S
C1741 C1738 1.526 . S
C1741 C1742 1.396 . S
C1741 C1746 1.390 . S
C1742 C1736 1.465 . S
C1742 C1741 1.396 . S
C1742 C1743 1.399 . S
C1743 H1729 0.929 . S
C1743 C1742 1.399 . S
C1743 C1744 1.385 . S
C1744 H1730 0.931 . S
C1744 C1743 1.385 . S
C1744 C1745 1.389 . S
C1745 C1744 1.389 . S
C1745 C1746 1.387 . S
C1746 H1731 0.930 . S
C1746 C1741 1.390 . S
C1746 C1745 1.387 . S
H1747 C1759 0.930 . S
H1748 C1761 0.930 . S
H1749 C1762 0.930 . S
H1750 C1766 0.959 . S
H1751 C1766 0.959 . S
H1752 C1766 0.961 . S
H1753 C1767 0.960 . S
H1754 C1767 0.961 . S
H1755 C1767 0.959 . S
H1756 C1770 0.929 . S
H1757 C1771 0.931 1_554 S
H1758 C1773 0.930 . S
C1759 H1747 0.930 . S
C1759 C1760 1.399 . S
C1759 C1764 1.399 . S
C1760 C1759 1.399 . S
C1760 C1761 1.376 . S
C1761 H1748 0.930 . S
C1761 C1760 1.376 . S
C1761 C1762 1.388 . S
C1762 H1749 0.930 . S
C1762 C1761 1.388 . S
C1762 C1763 1.390 . S
C1763 C1762 1.390 . S
C1763 C1764 1.394 . S
C1763 C1769 1.465 . S
C1764 C1759 1.399 . S
C1764 C1763 1.394 . S
C1764 C1765 1.516 . S
C1765 C1764 1.516 . S
C1765 C1766 1.502 . S
C1765 C1767 1.561 . S
C1765 C1768 1.526 . S
C1766 H1750 0.959 . S
C1766 H1751 0.959 . S
C1766 H1752 0.961 . S
C1766 C1765 1.502 . S
C1767 H1753 0.960 . S
C1767 H1754 0.961 . S
C1767 H1755 0.959 . S
C1767 C1765 1.561 . S
C1768 C1765 1.526 . S
C1768 C1769 1.396 . S
C1768 C1773 1.390 . S
C1769 C1763 1.465 . S
C1769 C1768 1.396 . S
C1769 C1770 1.399 . S
C1770 H1756 0.929 . S
C1770 C1769 1.399 . S
C1770 C1771 1.385 . S
C1771 H1757 0.931 1_556 S
C1771 C1770 1.385 . S
C1771 C1772 1.389 1_556 S
C1772 C1771 1.389 1_554 S
C1772 C1773 1.387 1_554 S
C1773 H1758 0.930 . S
C1773 C1768 1.390 . S
C1773 C1772 1.387 1_556 S
H1774 C1786 0.930 . S
H1775 C1788 0.930 . S
H1776 C1789 0.930 . S
H1777 C1793 0.959 . S
H1778 C1793 0.959 . S
H1779 C1793 0.961 . S
H1780 C1794 0.960 . S
H1781 C1794 0.961 . S
H1782 C1794 0.959 . S
H1783 C1797 0.929 . S
H1784 C1798 0.921 1_556 S
H1785 C1800 0.930 . S
C1786 H1774 0.930 . S
C1786 C1787 1.399 . S
C1786 C1791 1.399 . S
C1787 C1786 1.399 . S
C1787 C1788 1.376 . S
C1788 H1775 0.930 . S
C1788 C1787 1.376 . S
C1788 C1789 1.388 . S
C1789 H1776 0.930 . S
C1789 C1788 1.388 . S
C1789 C1790 1.390 . S
C1790 C1789 1.390 . S
C1790 C1791 1.394 . S
C1790 C1796 1.465 . S
C1791 C1786 1.399 . S
C1791 C1790 1.394 . S
C1791 C1792 1.516 . S
C1792 C1791 1.516 . S
C1792 C1793 1.502 . S
C1792 C1794 1.561 . S
C1792 C1795 1.526 . S
C1793 H1777 0.959 . S
C1793 H1778 0.959 . S
C1793 H1779 0.961 . S
C1793 C1792 1.502 . S
C1794 H1780 0.960 . S
C1794 H1781 0.961 . S
C1794 H1782 0.959 . S
C1794 C1792 1.561 . S
C1795 C1792 1.526 . S
C1795 C1796 1.396 . S
C1795 C1800 1.390 . S
C1796 C1790 1.465 . S
C1796 C1795 1.396 . S
C1796 C1797 1.399 . S
C1797 H1783 0.929 . S
C1797 C1796 1.399 . S
C1797 C1798 1.385 . S
C1798 H1784 0.921 1_554 S
C1798 C1797 1.385 . S
C1798 C1799 1.389 1_554 S
C1799 C1798 1.389 1_556 S
C1799 C1800 1.387 1_556 S
C1800 H1785 0.930 . S
C1800 C1795 1.390 . S
C1800 C1799 1.387 1_554 S
H1801 C1813 0.930 . S
H1802 C1815 0.930 1_554 S
H1803 C1816 0.930 . S
H1804 C1820 0.959 . S
H1805 C1820 0.959 . S
H1806 C1820 0.961 . S
H1807 C1821 0.960 . S
H1808 C1821 0.961 . S
H1809 C1821 0.959 . S
H1810 C1824 0.929 . S
H1811 C1825 0.931 . S
H1812 C1827 0.930 . S
C1813 H1801 0.930 . S
C1813 C1814 1.399 1_556 S
C1813 C1818 1.399 . S
C1814 C1813 1.399 1_554 S
C1814 C1815 1.376 1_554 S
C1815 H1802 0.930 1_556 S
C1815 C1814 1.376 1_556 S
C1815 C1816 1.388 . S
C1816 H1803 0.930 . S
C1816 C1815 1.388 . S
C1816 C1817 1.390 . S
C1817 C1816 1.390 . S
C1817 C1818 1.394 . S
C1817 C1823 1.465 . S
C1818 C1813 1.399 . S
C1818 C1817 1.394 . S
C1818 C1819 1.516 . S
C1819 C1818 1.516 . S
C1819 C1820 1.502 . S
C1819 C1821 1.561 . S
C1819 C1822 1.526 . S
C1820 H1804 0.959 . S
C1820 H1805 0.959 . S
C1820 H1806 0.961 . S
C1820 C1819 1.502 . S
C1821 H1807 0.960 . S
C1821 H1808 0.961 . S
C1821 H1809 0.959 . S
C1821 C1819 1.561 . S
C1822 C1819 1.526 . S
C1822 C1823 1.396 . S
C1822 C1827 1.390 . S
C1823 C1817 1.465 . S
C1823 C1822 1.396 . S
C1823 C1824 1.399 . S
C1824 H1810 0.929 . S
C1824 C1823 1.399 . S
C1824 C1825 1.385 . S
C1825 H1811 0.931 . S
C1825 C1824 1.385 . S
C1825 C1826 1.389 . S
C1826 C1825 1.389 . S
C1826 C1827 1.387 . S
C1827 H1812 0.930 . S
C1827 C1822 1.390 . S
C1827 C1826 1.387 . S
H1828 C1840 0.930 . S
H1829 C1842 0.930 . S
H1830 C1843 0.930 . S
H1831 C1847 0.959 . S
H1832 C1847 0.959 . S
H1833 C1847 0.961 . S
H1834 C1848 0.960 . S
H1835 C1848 0.961 . S
H1836 C1848 0.959 . S
H1837 C1851 0.929 . S
H1838 C1852 0.931 1_556 S
H1839 C1854 0.930 . S
C1840 H1828 0.930 . S
C1840 C1841 1.399 . S
C1840 C1845 1.399 . S
C1841 C1840 1.399 . S
C1841 C1842 1.376 . S
C1842 H1829 0.930 . S
C1842 C1841 1.376 . S
C1842 C1843 1.388 . S
C1843 H1830 0.930 . S
C1843 C1842 1.388 . S
C1843 C1844 1.390 . S
C1844 C1843 1.390 . S
C1844 C1845 1.394 . S
C1844 C1850 1.465 . S
C1845 C1840 1.399 . S
C1845 C1844 1.394 . S
C1845 C1846 1.516 . S
C1846 C1845 1.516 . S
C1846 C1847 1.502 . S
C1846 C1848 1.561 . S
C1846 C1849 1.526 . S
C1847 H1831 0.959 . S
C1847 H1832 0.959 . S
C1847 H1833 0.961 . S
C1847 C1846 1.502 . S
C1848 H1834 0.960 . S
C1848 H1835 0.961 . S
C1848 H1836 0.959 . S
C1848 C1846 1.561 . S
C1849 C1846 1.526 . S
C1849 C1850 1.396 . S
C1849 C1854 1.390 . S
C1850 C1844 1.465 . S
C1850 C1849 1.396 . S
C1850 C1851 1.399 . S
C1851 H1837 0.929 . S
C1851 C1850 1.399 . S
C1851 C1852 1.385 . S
C1852 H1838 0.931 1_554 S
C1852 C1851 1.385 . S
C1852 C1853 1.389 1_554 S
C1853 C1852 1.389 1_556 S
C1853 C1854 1.387 1_556 S
C1854 H1839 0.930 . S
C1854 C1849 1.390 . S
C1854 C1853 1.387 1_554 S
H1855 C1867 0.930 . S
H1856 C1869 0.930 1_554 S
H1857 C1870 0.930 . S
H1858 C1874 0.959 . S
H1859 C1874 0.959 . S
H1860 C1874 0.961 . S
H1861 C1875 0.960 . S
H1862 C1875 0.961 . S
H1863 C1875 0.959 . S
H1864 C1878 0.929 . S
H1865 C1879 0.931 . S
H1866 C1881 0.930 . S
C1867 H1855 0.930 . S
C1867 C1868 1.399 1_556 S
C1867 C1872 1.399 . S
C1868 C1867 1.399 1_554 S
C1868 C1869 1.376 1_554 S
C1869 H1856 0.930 1_556 S
C1869 C1868 1.376 1_556 S
C1869 C1870 1.388 . S
C1870 H1857 0.930 . S
C1870 C1869 1.388 . S
C1870 C1871 1.390 . S
C1871 C1870 1.390 . S
C1871 C1872 1.394 . S
C1871 C1877 1.465 . S
C1872 C1867 1.399 . S
C1872 C1871 1.394 . S
C1872 C1873 1.516 . S
C1873 C1872 1.516 . S
C1873 C1874 1.502 . S
C1873 C1875 1.561 . S
C1873 C1876 1.526 . S
C1874 H1858 0.959 . S
C1874 H1859 0.959 . S
C1874 H1860 0.961 . S
C1874 C1873 1.502 . S
C1875 H1861 0.960 . S
C1875 H1862 0.961 . S
C1875 H1863 0.959 . S
C1875 C1873 1.561 . S
C1876 C1873 1.526 . S
C1876 C1877 1.396 . S
C1876 C1881 1.390 . S
C1877 C1871 1.465 . S
C1877 C1876 1.396 . S
C1877 C1878 1.399 . S
C1878 H1864 0.929 . S
C1878 C1877 1.399 . S
C1878 C1879 1.385 . S
C1879 H1865 0.931 . S
C1879 C1878 1.385 . S
C1879 C1880 1.389 . S
C1880 C1879 1.389 . S
C1880 C1881 1.387 . S
C1881 H1866 0.930 . S
C1881 C1876 1.390 . S
C1881 C1880 1.387 . S
H1882 C1894 0.930 . S
H1883 C1896 0.930 1_556 S
H1884 C1897 0.930 . S
H1885 C1901 0.959 . S
H1886 C1901 0.959 . S
H1887 C1901 0.961 . S
H1888 C1902 0.960 . S
H1889 C1902 0.961 . S
H1890 C1902 0.959 . S
H1891 C1905 0.929 . S
H1892 C1906 0.931 . S
H1893 C1908 0.930 . S
C1894 H1882 0.930 . S
C1894 C1895 1.399 1_554 S
C1894 C1899 1.399 . S
C1895 C1894 1.399 1_556 S
C1895 C1896 1.376 1_556 S
C1896 H1883 0.930 1_554 S
C1896 C1895 1.376 1_554 S
C1896 C1897 1.388 . S
C1897 H1884 0.930 . S
C1897 C1896 1.388 . S
C1897 C1898 1.390 . S
C1898 C1897 1.390 . S
C1898 C1899 1.394 . S
C1898 C1904 1.465 . S
C1899 C1894 1.399 . S
C1899 C1898 1.394 . S
C1899 C1900 1.516 . S
C1900 C1899 1.516 . S
C1900 C1901 1.502 . S
C1900 C1902 1.561 . S
C1900 C1903 1.526 . S
C1901 H1885 0.959 . S
C1901 H1886 0.959 . S
C1901 H1887 0.961 . S
C1901 C1900 1.502 . S
C1902 H1888 0.960 . S
C1902 H1889 0.961 . S
C1902 H1890 0.959 . S
C1902 C1900 1.561 . S
C1903 C1900 1.526 . S
C1903 C1904 1.396 . S
C1903 C1908 1.390 . S
C1904 C1898 1.465 . S
C1904 C1903 1.396 . S
C1904 C1905 1.399 . S
C1905 H1891 0.929 . S
C1905 C1904 1.399 . S
C1905 C1906 1.385 . S
C1906 H1892 0.931 . S
C1906 C1905 1.385 . S
C1906 C1907 1.389 . S
C1907 C1906 1.389 . S
C1907 C1908 1.387 . S
C1908 H1893 0.930 . S
C1908 C1903 1.390 . S
C1908 C1907 1.387 . S
H1909 C1921 0.930 . S
H1910 C1923 0.930 . S
H1911 C1924 0.930 . S
H1912 C1928 0.959 . S
H1913 C1928 0.959 . S
H1914 C1928 0.961 . S
H1915 C1929 0.960 . S
H1916 C1929 0.961 . S
H1917 C1929 0.959 . S
H1918 C1932 0.929 . S
H1919 C1933 0.931 1_554 S
H1920 C1935 0.930 . S
C1921 H1909 0.930 . S
C1921 C1922 1.399 . S
C1921 C1926 1.399 . S
C1922 C1921 1.399 . S
C1922 C1923 1.376 . S
C1923 H1910 0.930 . S
C1923 C1922 1.376 . S
C1923 C1924 1.388 . S
C1924 H1911 0.930 . S
C1924 C1923 1.388 . S
C1924 C1925 1.390 . S
C1925 C1924 1.390 . S
C1925 C1926 1.394 . S
C1925 C1931 1.465 . S
C1926 C1921 1.399 . S
C1926 C1925 1.394 . S
C1926 C1927 1.516 . S
C1927 C1926 1.516 . S
C1927 C1928 1.502 . S
C1927 C1929 1.561 . S
C1927 C1930 1.526 . S
C1928 H1912 0.959 . S
C1928 H1913 0.959 . S
C1928 H1914 0.961 . S
C1928 C1927 1.502 . S
C1929 H1915 0.960 . S
C1929 H1916 0.961 . S
C1929 H1917 0.959 . S
C1929 C1927 1.561 . S
C1930 C1927 1.526 . S
C1930 C1931 1.396 . S
C1930 C1935 1.390 . S
C1931 C1925 1.465 . S
C1931 C1930 1.396 . S
C1931 C1932 1.399 . S
C1932 H1918 0.929 . S
C1932 C1931 1.399 . S
C1932 C1933 1.385 . S
C1933 H1919 0.931 1_556 S
C1933 C1932 1.385 . S
C1933 C1934 1.389 1_556 S
C1934 C1933 1.389 1_554 S
C1934 C1935 1.387 1_554 S
C1935 H1920 0.930 . S
C1935 C1930 1.390 . S
C1935 C1934 1.387 1_556 S
C653 C459 1.697 . S
C665 C18 1.718 . S
C680 C330 1.747 . S
C692 C49 1.676 . S
C707 C98 1.704 . S
C719 C379 1.702 . S
C734 C129 1.729 . S
C746 C410 1.707 . S
C761 C178 1.683 . S
C773 C219 1.715 . S
C788 C250 1.745 . S
C800 C209 1.681 . S
C815 C258 1.721 . S
C827 C299 1.698 . S
C842 C170 1.745 . S
C854 C289 1.680 . S
C869 C139 1.697 . S
C881 C338 1.724 . S
C896 C369 1.686 . S
C908 C10 1.728 . S
C923 C59 1.697 . S
C935 C418 1.721 . S
C950 C90 1.738 . S
C962 C449 1.692 . S
C977 C498 1.672 . S
C989 C539 1.731 . S
C1004 C570 1.709 . S
C1016 C529 1.709 . S
C1031 C619 1.697 . S
C1043 C578 1.718 . S
C1058 C609 1.709 . S
C1070 C490 1.709 . S
C1085 C9 1.241 . S
C1097 C169 1.156 . S
C1112 C218 1.128 . S
C1124 C58 1.191 . S
C1139 C89 1.129 . S
C1151 C249 1.219 . S
C1166 C138 1.241 . S
C1178 C298 1.190 . S
C1193 C329 1.243 . S
C1205 C489 1.148 . S
C1220 C538 1.241 . S
C1232 C378 1.190 . S
C1247 C409 1.191 . S
C1259 C569 1.219 . S
C1274 C458 1.130 . S
C1286 C618 1.185 . S
C1301 C579 2.284 . S
C1313 C19 2.263 1_556 S
C1328 C50 2.252 1_554 S
C1340 C610 2.281 . S
C1355 C99 2.254 1_556 S
C1367 C499 2.268 . S
C1382 C130 2.251 1_554 S
C1394 C530 2.282 . S
C1409 C179 2.250 . S
C1421 C419 2.275 . S
C1436 C210 2.250 . S
C1448 C450 2.283 . S
C1463 C259 2.286 . S
C1475 C339 2.259 . S
C1490 C370 2.255 . S
C1502 C290 2.278 . S
C1517 C6 1.068 . S
C1529 C15 1.051 . S
C1544 C55 1.071 . S
C1556 C46 1.049 . S
C1571 C86 1.069 . S
C1583 C95 1.050 . S
C1598 C126 1.071 . S
C1610 C135 1.054 . S
C1625 C175 1.053 . S
C1637 C166 1.071 . S
C1652 C215 1.051 . S
C1664 C206 1.067 . S
C1679 C246 1.053 . S
C1691 C255 1.071 . S
C1706 C286 1.051 . S
C1718 C295 1.067 . S
C1733 C326 1.067 . S
C1745 C335 1.051 . S
C1760 C366 1.049 . S
C1772 C375 1.071 . S
C1787 C415 1.054 . S
C1799 C406 1.071 . S
C1814 C455 1.069 . S
C1826 C446 1.056 . S
C1841 C486 1.051 . S
C1853 C495 1.072 . S
C1868 C526 1.052 . S
C1880 C535 1.067 . S
C1895 C575 1.069 . S
C1907 C566 1.050 . S
C1922 C615 1.050 . S
C1934 C606 1.069 . S
