# Generated by pormake.
# Topology umo, (4)-cn, num edge types: 1
# Building blocks:
#     Node 0, Type 0, BuildingBlock: KUFVIS_clean_sbu_0, # of connection points: 4
#     Node 1, Type 0, BuildingBlock: KUFVIS_clean_sbu_0, # of connection points: 4
#     Node 2, Type 0, BuildingBlock: KUFVIS_clean_sbu_0, # of connection points: 4
#     Node 3, Type 0, BuildingBlock: KUFVIS_clean_sbu_0, # of connection points: 4
#     Node 4, Type 0, BuildingBlock: KUFVIS_clean_sbu_0, # of connection points: 4
#     Node 5, Type 0, BuildingBlock: KUFVIS_clean_sbu_0, # of connection points: 4
#     Node 6, Type 0, BuildingBlock: KUFVIS_clean_sbu_0, # of connection points: 4
#     Node 7, Type 0, BuildingBlock: KUFVIS_clean_sbu_0, # of connection points: 4
#     Node 8, Type 0, BuildingBlock: KUFVIS_clean_sbu_0, # of connection points: 4
#     Node 9, Type 0, BuildingBlock: KUFVIS_clean_sbu_0, # of connection points: 4
#     Node 10, Type 0, BuildingBlock: KUFVIS_clean_sbu_0, # of connection points: 4
#     Node 11, Type 0, BuildingBlock: KUFVIS_clean_sbu_0, # of connection points: 4
#     Edge 12, Type (0, 0), BuildingBlock: EZIPEK_clean_linker_0, # of connection points: 2
#     Edge 13, Type (0, 0), BuildingBlock: EZIPEK_clean_linker_0, # of connection points: 2
#     Edge 14, Type (0, 0), BuildingBlock: EZIPEK_clean_linker_0, # of connection points: 2
#     Edge 15, Type (0, 0), BuildingBlock: EZIPEK_clean_linker_0, # of connection points: 2
#     Edge 16, Type (0, 0), BuildingBlock: EZIPEK_clean_linker_0, # of connection points: 2
#     Edge 17, Type (0, 0), BuildingBlock: EZIPEK_clean_linker_0, # of connection points: 2
#     Edge 18, Type (0, 0), BuildingBlock: EZIPEK_clean_linker_0, # of connection points: 2
#     Edge 19, Type (0, 0), BuildingBlock: EZIPEK_clean_linker_0, # of connection points: 2
#     Edge 20, Type (0, 0), BuildingBlock: EZIPEK_clean_linker_0, # of connection points: 2
#     Edge 21, Type (0, 0), BuildingBlock: EZIPEK_clean_linker_0, # of connection points: 2
#     Edge 22, Type (0, 0), BuildingBlock: EZIPEK_clean_linker_0, # of connection points: 2
#     Edge 23, Type (0, 0), BuildingBlock: EZIPEK_clean_linker_0, # of connection points: 2
#     Edge 24, Type (0, 0), BuildingBlock: EZIPEK_clean_linker_0, # of connection points: 2
#     Edge 25, Type (0, 0), BuildingBlock: EZIPEK_clean_linker_0, # of connection points: 2
#     Edge 26, Type (0, 0), BuildingBlock: EZIPEK_clean_linker_0, # of connection points: 2
#     Edge 27, Type (0, 0), BuildingBlock: EZIPEK_clean_linker_0, # of connection points: 2
#     Edge 28, Type (0, 0), BuildingBlock: EZIPEK_clean_linker_0, # of connection points: 2
#     Edge 29, Type (0, 0), BuildingBlock: EZIPEK_clean_linker_0, # of connection points: 2
#     Edge 30, Type (0, 0), BuildingBlock: EZIPEK_clean_linker_0, # of connection points: 2
#     Edge 31, Type (0, 0), BuildingBlock: EZIPEK_clean_linker_0, # of connection points: 2
#     Edge 32, Type (0, 0), BuildingBlock: EZIPEK_clean_linker_0, # of connection points: 2
#     Edge 33, Type (0, 0), BuildingBlock: EZIPEK_clean_linker_0, # of connection points: 2
#     Edge 34, Type (0, 0), BuildingBlock: EZIPEK_clean_linker_0, # of connection points: 2
#     Edge 35, Type (0, 0), BuildingBlock: EZIPEK_clean_linker_0, # of connection points: 2
# Relax obj value: 0.187
# Max RMSD: 0.239
# Mean RMSD: 0.239
data_MOF--net-umo--node1-KUFVIS_clean_sbu_0--edge1-EZIPEK_clean_linker_0
_symmetry_space_group_name_H-M    P1
_symmetry_Int_Tables_number       1
_symmetry_cell_setting            triclinic
loop_
_symmetry_equiv_pos_as_xyz
'x, y, z'
_cell_length_a     34.509511
_cell_length_b     34.599143
_cell_length_c     28.634715
_cell_angle_alpha  89.972367
_cell_angle_beta   90.192538
_cell_angle_gamma 119.96379
loop_
_atom_site_label
_atom_site_type_symbol
_atom_site_fract_x
_atom_site_fract_y
_atom_site_fract_z
_atom_type_partial_charge
Mn0 Mn 0.16453 0.57293 0.39965 0.0
Mn1 Mn 0.10026 0.62028 0.4122 0.0
C2 C 0.19728 0.64797 0.41632 0.0
C3 C 0.20432 0.55447 0.3424 0.0
C4 C 0.11857 0.57572 0.49373 0.0
O5 O 0.10384 0.52328 0.37707 0.0
O6 O 0.06408 0.55693 0.39235 0.0
C7 C 0.08197 0.6171 0.31072 0.0
N8 N 0.09786 0.6411 0.35094 0.0
C9 C 0.1166 0.70935 0.31095 0.0
C10 C 0.1003 0.68535 0.2692 0.0
C11 C 0.08305 0.63902 0.26908 0.0
C12 C 0.11525 0.68576 0.35126 0.0
H13 H 0.06855 0.58148 0.31029 0.0
C14 C 0.06702 0.52332 0.37881 0.0
O15 O 0.19458 0.53581 0.38347 0.0
O16 O 0.18982 0.58159 0.33474 0.0
N17 N 0.12893 0.6818 0.43031 0.0
C18 C 0.13958 0.69955 0.47406 0.0
C19 C 0.15612 0.74536 0.48055 0.0
C20 C 0.15995 0.77223 0.44218 0.0
C21 C 0.1473 0.75311 0.39765 0.0
C22 C 0.1313 0.70726 0.39334 0.0
H23 H 0.13593 0.679 0.50372 0.0
O24 O 0.21951 0.62723 0.42082 0.0
O25 O 0.15744 0.62498 0.39806 0.0
O26 O 0.14109 0.56143 0.46994 0.0
O27 O 0.10409 0.5998 0.47519 0.0
C28 C 0.14852 0.77744 0.35765 0.0
C29 C 0.13369 0.75567 0.31423 0.0
H30 H 0.10075 0.70212 0.23708 0.0
H31 H 0.07043 0.62022 0.237 0.0
H32 H 0.16529 0.75979 0.51515 0.0
H33 H 0.17144 0.80723 0.44756 0.0
H34 H 0.16017 0.81278 0.35989 0.0
H35 H 0.13485 0.77477 0.28374 0.0
Mn36 Mn 0.58225 0.16219 0.5621 0.0
Mn37 Mn 0.48155 0.07217 0.58896 0.0
C38 C 0.5207 0.17209 0.57237 0.0
C39 C 0.63568 0.20672 0.50331 0.0
C40 C 0.55086 0.12638 0.66241 0.0
O41 O 0.59287 0.11034 0.54807 0.0
O42 O 0.52548 0.05519 0.56863 0.0
C43 C 0.4605 0.03689 0.49238 0.0
N44 N 0.44864 0.05015 0.53202 0.0
C45 C 0.37425 0.02373 0.50265 0.0
C46 C 0.38565 0.00982 0.46152 0.0
C47 C 0.42908 0.01671 0.45625 0.0
C48 C 0.40746 0.04507 0.53684 0.0
H49 H 0.49349 0.04112 0.48853 0.0
C50 C 0.56488 0.06919 0.55351 0.0
O51 O 0.64729 0.20579 0.54639 0.0
O52 O 0.59341 0.18171 0.4947 0.0
N53 N 0.43225 0.07795 0.61018 0.0
C54 C 0.42355 0.08285 0.65566 0.0
C55 C 0.38006 0.07187 0.66895 0.0
C56 C 0.34546 0.05477 0.6357 0.0
C57 C 0.35436 0.04741 0.58983 0.0
C58 C 0.39834 0.05857 0.5787 0.0
H59 H 0.4494 0.09446 0.68201 0.0
O60 O 0.56168 0.2048 0.57448 0.0
O61 O 0.51585 0.13309 0.56165 0.0
O62 O 0.58225 0.15265 0.63445 0.0
O63 O 0.51312 0.09456 0.64863 0.0
C64 C 0.32065 0.02678 0.55564 0.0
C65 C 0.33073 0.01549 0.51184 0.0
H66 H 0.36108 -0.00696 0.43416 0.0
H67 H 0.43803 0.00565 0.42483 0.0
H68 H 0.37323 0.07635 0.70478 0.0
H69 H 0.31195 0.04617 0.64611 0.0
H70 H 0.28654 0.01824 0.56315 0.0
H71 H 0.30432 -0.00122 0.48619 0.0
Mn72 Mn 0.41224 0.58812 0.72862 0.0
Mn73 Mn 0.36911 0.47828 0.75182 0.0
C74 C 0.3372 0.54451 0.74809 0.0
C75 C 0.4298 0.64469 0.67006 0.0
C76 C 0.41153 0.54854 0.82725 0.0
O77 O 0.46254 0.57729 0.70685 0.0
O78 O 0.43196 0.50654 0.73105 0.0
C79 C 0.37139 0.45701 0.65194 0.0
N80 N 0.34792 0.45046 0.69221 0.0
C81 C 0.27996 0.39549 0.65507 0.0
C82 C 0.3034 0.40172 0.61329 0.0
C83 C 0.34931 0.43281 0.61168 0.0
C84 C 0.30348 0.42168 0.69371 0.0
H85 H 0.40669 0.48043 0.65038 0.0
C86 C 0.46407 0.54165 0.71326 0.0
O87 O 0.44887 0.65415 0.71103 0.0
O88 O 0.40227 0.60284 0.66294 0.0
N89 N 0.30828 0.44323 0.7716 0.0
C90 C 0.2933 0.43357 0.81642 0.0
C91 C 0.24889 0.40069 0.82517 0.0
C92 C 0.22122 0.37562 0.78799 0.0
C93 C 0.23824 0.38339 0.74253 0.0
C94 C 0.2826 0.41729 0.73591 0.0
H95 H 0.3156 0.44986 0.84549 0.0
O96 O 0.35713 0.58762 0.74925 0.0
O97 O 0.36076 0.52765 0.7315 0.0
O98 O 0.42665 0.58253 0.79935 0.0
O99 O 0.38946 0.5078 0.81321 0.0
C100 C 0.21395 0.35659 0.70418 0.0
C101 C 0.23453 0.36325 0.66025 0.0
H102 H 0.28661 0.38242 0.58241 0.0
H103 H 0.36776 0.43779 0.57963 0.0
H104 H 0.23661 0.39339 0.86065 0.0
H105 H 0.18783 0.34865 0.79506 0.0
H106 H 0.17979 0.32981 0.70833 0.0
H107 H 0.2156 0.3422 0.63114 0.0
Mn108 Mn 0.80966 0.40543 0.89192 0.0
Mn109 Mn 0.89492 0.38569 0.91484 0.0
C110 C 0.7933 0.33203 0.90342 0.0
C111 C 0.76917 0.42033 0.83195 0.0
C112 C 0.84854 0.40847 0.99065 0.0
O113 O 0.86452 0.46566 0.87758 0.0
O114 O 0.91658 0.44708 0.89274 0.0
C115 C 0.9203 0.39176 0.81535 0.0
N116 N 0.90951 0.36924 0.85665 0.0
C117 C 0.92105 0.3117 0.82436 0.0
C118 C 0.93242 0.33429 0.7815 0.0
C119 C 0.93173 0.37436 0.77691 0.0
C120 C 0.90827 0.32979 0.86093 0.0
H121 H 0.92027 0.4228 0.81177 0.0
C122 C 0.90499 0.475 0.87976 0.0
O123 O 0.76991 0.43153 0.87544 0.0
O124 O 0.79016 0.39875 0.82449 0.0
N125 N 0.88487 0.32946 0.93736 0.0
C126 C 0.8847 0.31874 0.98335 0.0
C127 C 0.89193 0.28352 0.99578 0.0
C128 C 0.90018 0.26003 0.96092 0.0
C129 C 0.90313 0.27334 0.91418 0.0
C130 C 0.8968 0.30953 0.90408 0.0
H131 H 0.87995 0.33746 0.01065 0.0
O132 O 0.76296 0.34369 0.90508 0.0
O133 O 0.83326 0.36371 0.89152 0.0
O134 O 0.822 0.41484 0.96396 0.0
O135 O 0.87827 0.39988 0.97545 0.0
C136 C 0.91515 0.25404 0.87777 0.0
C137 C 0.92336 0.27278 0.83266 0.0
H138 H 0.94226 0.32148 0.75209 0.0
H139 H 0.94054 0.39208 0.744 0.0
H140 H 0.89116 0.27455 0.03211 0.0
H141 H 0.90559 0.23281 0.97058 0.0
H142 H 0.91943 0.22557 0.8844 0.0
H143 H 0.93323 0.25807 0.8051 0.0
Mn144 Mn 0.3822 0.81769 0.0646 0.0
Mn145 Mn 0.49214 0.88549 0.0894 0.0
C146 C 0.42698 0.78748 0.08317 0.0
C147 C 0.32804 0.77922 1.00318 0.0
C148 C 0.42065 0.85664 0.16365 0.0
O149 O 0.39193 0.87858 0.0446 0.0
O150 O 0.4643 0.91962 0.0649 0.0
C151 C 0.51772 0.90777 0.99022 0.0
N152 N 0.52235 0.89123 0.03175 0.0
C153 C 0.57829 0.87686 0.99974 0.0
C154 C 0.57418 0.89381 0.95668 0.0
C155 C 0.54359 0.90912 0.95185 0.0
C156 C 0.55074 0.87522 0.03639 0.0
H157 H 0.49448 0.91984 0.98631 0.0
C158 C 0.42812 0.91579 0.04841 0.0
O159 O 0.31616 0.78627 0.044 0.0
O160 O 0.37048 0.79586 0.99793 0.0
N161 N 0.52554 0.85924 0.11309 0.0
C162 C 0.53145 0.85196 0.15868 0.0
C163 C 0.56242 0.8385 0.17034 0.0
C164 C 0.58918 0.83553 0.13542 0.0
C165 C 0.58504 0.84649 0.08925 0.0
C166 C 0.55288 0.85883 0.07962 0.0
H167 H 0.51301 0.85695 0.18614 0.0
O168 O 0.38385 0.76335 0.08358 0.0
O169 O 0.44314 0.8282 0.06826 0.0
O170 O 0.38636 0.83546 0.1361 0.0
O171 O 0.46119 0.87732 0.14921 0.0
C172 C 0.61338 0.84824 0.05304 0.0
C173 C 0.60947 0.86264 1.00809 0.0
H174 H 0.59461 0.89557 0.92721 0.0
H175 H 0.54022 0.92229 0.91874 0.0
H176 H 0.56663 0.83179 0.20636 0.0
H177 H 0.61431 0.82701 0.14497 0.0
H178 H 0.63904 0.83961 0.05969 0.0
H179 H 0.63156 0.86394 0.98057 0.0
Mn180 Mn 0.57 0.40094 0.23287 0.0
Mn181 Mn 0.59637 0.5075 0.25506 0.0
C182 C 0.64491 0.45546 0.24361 0.0
C183 C 0.5567 0.34463 0.17524 0.0
C184 C 0.56371 0.43683 0.3311 0.0
O185 O 0.51221 0.40002 0.21484 0.0
O186 O 0.53449 0.4713 0.23198 0.0
C187 C 0.5923 0.5315 0.15661 0.0
N188 N 0.61461 0.54047 0.19809 0.0
C189 C 0.67124 0.61256 0.17111 0.0
C190 C 0.64893 0.60417 0.12805 0.0
C191 C 0.60946 0.56328 0.12066 0.0
C192 C 0.65327 0.57903 0.20504 0.0
H193 H 0.56143 0.50056 0.15122 0.0
C194 C 0.50524 0.43275 0.21766 0.0
O195 O 0.54155 0.33443 0.21769 0.0
O196 O 0.57847 0.38687 0.16646 0.0
N197 N 0.65442 0.54984 0.27801 0.0
C198 C 0.67012 0.55392 0.32252 0.0
C199 C 0.70676 0.59453 0.33743 0.0
C200 C 0.72728 0.63054 0.3062 0.0
C201 C 0.7108 0.62563 0.26043 0.0
C202 C 0.67348 0.58468 0.248 0.0
H203 H 0.65545 0.52602 0.34607 0.0
O204 O 0.63063 0.41323 0.24918 0.0
O205 O 0.61452 0.46535 0.23084 0.0
O206 O 0.55773 0.40429 0.30431 0.0
O207 O 0.57864 0.47617 0.31538 0.0
C208 C 0.72945 0.65996 0.22691 0.0
C209 C 0.71 0.65324 0.18207 0.0
H210 H 0.66157 0.62899 0.1006 0.0
H211 H 0.59192 0.5566 0.08762 0.0
H212 H 0.71951 0.59782 0.37265 0.0
H213 H 0.75582 0.66162 0.31761 0.0
H214 H 0.75859 0.69175 0.23533 0.0
H215 H 0.72456 0.6799 0.15663 0.0
Mn216 Mn 0.42484 0.81295 0.46484 0.0
Mn217 Mn 0.39849 0.89352 0.44291 0.0
C218 C 0.35199 0.79321 0.44525 0.0
C219 C 0.43478 0.76784 0.5231 0.0
C220 C 0.43171 0.85658 0.36706 0.0
O221 O 0.48067 0.86909 0.48748 0.0
O222 O 0.4611 0.91899 0.46502 0.0
C223 C 0.405 0.92177 0.54172 0.0
N224 N 0.3803 0.90506 0.50194 0.0
C225 C 0.31727 0.9055 0.53699 0.0
C226 C 0.34197 0.92244 0.5783 0.0
C227 C 0.38602 0.93055 0.58067 0.0
C228 C 0.33766 0.89657 0.49949 0.0
H229 H 0.43914 0.92893 0.54374 0.0
C230 C 0.489 0.90906 0.48268 0.0
O231 O 0.45331 0.77515 0.48207 0.0
O232 O 0.41156 0.78719 0.53008 0.0
N233 N 0.33935 0.87664 0.4221 0.0
C234 C 0.32478 0.87236 0.37708 0.0
C235 C 0.28247 0.86695 0.36759 0.0
C236 C 0.2569 0.86948 0.40412 0.0
C237 C 0.27407 0.87784 0.44968 0.0
C238 C 0.31605 0.88179 0.45716 0.0
H239 H 0.34593 0.87442 0.34838 0.0
O240 O 0.36573 0.76459 0.4435 0.0
O241 O 0.38033 0.83236 0.46254 0.0
O242 O 0.44149 0.83272 0.39434 0.0
O243 O 0.41543 0.88053 0.3818 0.0
C244 C 0.25249 0.88556 0.48721 0.0
C245 C 0.27391 0.89895 0.53097 0.0
H246 H 0.32775 0.93015 0.60808 0.0
H247 H 0.40554 0.94415 0.61222 0.0
H248 H 0.27038 0.86268 0.33198 0.0
H249 H 0.22532 0.86762 0.39642 0.0
H250 H 0.22004 0.88275 0.48241 0.0
H251 H 0.25743 0.90581 0.55925 0.0
Mn252 Mn 0.58904 0.3953 0.62778 0.0
Mn253 Mn 0.47734 0.35051 0.61173 0.0
C254 C 0.54599 0.32084 0.60802 0.0
C255 C 0.64779 0.41401 0.68369 0.0
C256 C 0.54333 0.39977 0.53408 0.0
O257 O 0.57818 0.4445 0.65256 0.0
O258 O 0.50461 0.41173 0.63778 0.0
C259 C 0.45826 0.34395 0.71302 0.0
N260 N 0.45033 0.32436 0.67015 0.0
C261 C 0.39247 0.25459 0.70087 0.0
C262 C 0.39985 0.27406 0.74533 0.0
C263 C 0.43308 0.31888 0.75146 0.0
C264 C 0.41915 0.28104 0.66406 0.0
H265 H 0.48353 0.37843 0.71783 0.0
C266 C 0.54132 0.44454 0.65226 0.0
O267 O 0.65565 0.43301 0.64284 0.0
O268 O 0.60649 0.3853 0.69197 0.0
N269 N 0.44335 0.2913 0.58693 0.0
C270 C 0.43947 0.27777 0.54166 0.0
C271 C 0.40708 0.23407 0.52929 0.0
C272 C 0.37797 0.20501 0.56336 0.0
C273 C 0.38163 0.21994 0.60953 0.0
C274 C 0.41477 0.26381 0.61978 0.0
H275 H 0.46178 0.29977 0.51541 0.0
O276 O 0.58912 0.3411 0.60478 0.0
O277 O 0.52914 0.34372 0.62649 0.0
O278 O 0.57923 0.41055 0.55835 0.0
O279 O 0.50423 0.37622 0.55114 0.0
C280 C 0.35389 0.19285 0.64586 0.0
C281 C 0.35963 0.21002 0.69161 0.0
H282 H 0.38023 0.25491 0.77498 0.0
H283 H 0.43907 0.33415 0.78567 0.0
H284 H 0.40456 0.22285 0.49356 0.0
H285 H 0.35308 0.17127 0.55375 0.0
H286 H 0.32833 0.15863 0.63906 0.0
H287 H 0.3384 0.18876 0.71934 0.0
Mn288 Mn 0.16704 0.60631 0.79464 0.0
Mn289 Mn 0.0944 0.49621 0.78059 0.0
C290 C 0.19306 0.55816 0.77732 0.0
C291 C 0.21062 0.66349 0.85174 0.0
C292 C 0.11813 0.56092 0.70011 0.0
O293 O 0.10887 0.60114 0.81779 0.0
O294 O 0.06392 0.52868 0.8013 0.0
C295 C 0.07501 0.48063 0.88172 0.0
N296 N 0.08902 0.47087 0.84126 0.0
C297 C 0.09585 0.41238 0.87878 0.0
C298 C 0.08147 0.42178 0.92079 0.0
C299 C 0.07124 0.45625 0.92231 0.0
C300 C 0.09998 0.43853 0.8397 0.0
H301 H 0.06657 0.50668 0.88311 0.0
C302 C 0.07044 0.56635 0.81565 0.0
O303 O 0.20189 0.67347 0.81061 0.0
O304 O 0.19342 0.62148 0.85945 0.0
N305 N 0.11702 0.4582 0.76151 0.0
C306 C 0.12614 0.45032 0.71743 0.0
C307 C 0.13534 0.41572 0.70946 0.0
C308 C 0.13316 0.38826 0.74659 0.0
C309 C 0.12255 0.39605 0.79147 0.0
C310 C 0.1143 0.43146 0.79738 0.0
H311 H 0.12636 0.47029 0.68855 0.0
O312 O 0.21868 0.60083 0.77316 0.0
O313 O 0.15391 0.54483 0.79567 0.0
O314 O 0.14322 0.59682 0.72437 0.0
O315 O 0.10067 0.52199 0.71814 0.0
C316 C 0.11786 0.36881 0.83012 0.0
C317 C 0.10523 0.37742 0.8739 0.0
H318 H 0.07787 0.40255 0.95198 0.0
H319 H 0.06002 0.4637 0.95456 0.0
H320 H 0.14299 0.40953 0.67459 0.0
H321 H 0.13823 0.3604 0.73998 0.0
H322 H 0.123 0.34058 0.82649 0.0
H323 H 0.10178 0.35625 0.90333 0.0
Mn324 Mn 0.56587 0.1861 0.96317 0.0
Mn325 Mn 0.60496 0.11638 0.93508 0.0
C326 C 0.6393 0.21498 0.93925 0.0
C327 C 0.55315 0.22614 0.02442 0.0
C328 C 0.55656 0.14266 0.86486 0.0
O329 O 0.51616 0.12602 0.98737 0.0
O330 O 0.54486 0.08372 0.96375 0.0
C331 C 0.6151 0.09751 0.03387 0.0
N332 N 0.633 0.11125 0.99057 0.0
C333 C 0.70387 0.12115 0.01614 0.0
C334 C 0.68614 0.10692 0.06094 0.0
C335 C 0.64162 0.0953 0.06989 0.0
C336 C 0.67613 0.12369 0.98193 0.0
H337 H 0.58087 0.08831 0.0409 0.0
C338 C 0.51412 0.08842 0.98282 0.0
O339 O 0.53154 0.21673 0.98486 0.0
O340 O 0.58072 0.21135 0.02845 0.0
N341 N 0.6626 0.14019 0.90687 0.0
C342 C 0.67274 0.14755 0.86056 0.0
C343 C 0.7156 0.1583 0.84526 0.0
C344 C 0.74687 0.15911 0.87729 0.0
C345 C 0.73453 0.14791 0.92406 0.0
C346 C 0.69156 0.13819 0.9374 0.0
H347 H 0.64835 0.14545 0.83544 0.0
O348 O 0.62097 0.23974 0.93979 0.0
O349 O 0.6153 0.17475 0.95576 0.0
O350 O 0.54595 0.16496 0.89338 0.0
O351 O 0.57841 0.12342 0.87744 0.0
C352 C 0.76288 0.1451 0.95776 0.0
C353 C 0.74777 0.13234 1.00394 0.0
H354 H 0.70633 0.10463 0.08866 0.0
H355 H 0.62768 0.08434 0.10439 0.0
H356 H 0.72432 0.16549 0.80878 0.0
H357 H 0.77984 0.16722 0.86535 0.0
H358 H 0.79643 0.15283 0.94856 0.0
H359 H 0.76996 0.13057 0.0296 0.0
Mn360 Mn 0.36922 0.55955 0.12903 0.0
Mn361 Mn 0.47719 0.59192 0.10269 0.0
C362 C 0.41856 0.63287 0.10782 0.0
C363 C 0.31712 0.54933 0.19045 0.0
C364 C 0.40297 0.55022 0.03059 0.0
O365 O 0.3743 0.50636 0.15149 0.0
O366 O 0.44566 0.53163 0.13072 0.0
C367 C 0.50656 0.59758 0.201 0.0
N368 N 0.51075 0.61732 0.15869 0.0
C369 C 0.57389 0.68568 0.18572 0.0
C370 C 0.57019 0.66612 0.22958 0.0
C371 C 0.53624 0.62193 0.23729 0.0
C372 C 0.5426 0.66017 0.15123 0.0
H373 H 0.48093 0.56346 0.20704 0.0
C374 C 0.40873 0.50209 0.14848 0.0
O375 O 0.30366 0.52967 0.15008 0.0
O376 O 0.35992 0.57335 0.19511 0.0
N377 N 0.51377 0.64956 0.07571 0.0
C378 C 0.51851 0.66033 0.02947 0.0
C379 C 0.55204 0.7027 0.0151 0.0
C380 C 0.58253 0.73247 0.04793 0.0
C381 C 0.57949 0.71939 0.09472 0.0
C382 C 0.54445 0.67714 0.1072 0.0
H383 H 0.49726 0.63645 1.0035 0.0
O384 O 0.37576 0.61716 0.10773 0.0
O385 O 0.43192 0.60618 0.12365 0.0
O386 O 0.37004 0.54171 0.0584 0.0
O387 O 0.4437 0.56795 0.0442 0.0
C388 C 0.61148 0.7455 0.12875 0.0
C389 C 0.60827 0.72898 0.17444 0.0
H390 H 0.59354 0.68454 0.2574 0.0
H391 H 0.53327 0.60649 0.27098 0.0
H392 H 0.55533 0.71178 0.97857 0.0
H393 H 0.6095 0.76431 0.03628 0.0
H394 H 0.63937 0.77791 0.11983 0.0
H395 H 0.63324 0.74933 0.20022 0.0
Mn396 Mn 0.79533 0.37404 0.29221 0.0
Mn397 Mn 0.863 0.48182 0.2585 0.0
C398 C 0.76487 0.41673 0.26664 0.0
C399 C 0.75578 0.32232 0.35389 0.0
C400 C 0.83663 0.40389 0.19303 0.0
O401 O 0.85655 0.38727 0.31714 0.0
O402 O 0.89704 0.45769 0.29095 0.0
C403 C 0.88373 0.51841 0.35461 0.0
N404 N 0.86903 0.51898 0.31056 0.0
C405 C 0.86276 0.58363 0.32803 0.0
C406 C 0.87796 0.58382 0.37355 0.0
C407 C 0.88818 0.55085 0.38699 0.0
C408 C 0.85787 0.54974 0.29769 0.0
H409 H 0.89214 0.4935 0.3649 0.0
C410 C 0.89352 0.42365 0.31217 0.0
O411 O 0.76592 0.30985 0.31513 0.0
O412 O 0.7702 0.36461 0.35732 0.0
N413 N 0.83727 0.51223 0.22645 0.0
C414 C 0.82591 0.50924 0.18039 0.0
C415 C 0.81483 0.53986 0.16128 0.0
C416 C 0.81791 0.57477 0.18895 0.0
C417 C 0.83249 0.57896 0.23537 0.0
C418 C 0.84185 0.54667 0.2529 0.0
H419 H 0.82519 0.4836 0.15832 0.0
O420 O 0.74081 0.37364 0.26817 0.0
O421 O 0.80564 0.4342 0.28236 0.0
O422 O 0.81516 0.37241 0.22302 0.0
O423 O 0.8561 0.44529 0.20358 0.0
C424 C 0.83834 0.6141 0.2649 0.0
C425 C 0.85277 0.61602 0.31142 0.0
H426 H 0.88204 0.60918 0.39842 0.0
H427 H 0.89991 0.55074 0.42206 0.0
H428 H 0.80461 0.53697 0.12508 0.0
H429 H 0.80974 0.59859 0.17399 0.0
H430 H 0.8311 0.63939 0.25239 0.0
H431 H 0.85647 0.64278 0.33398 0.0
C432 C 0.24288 0.72371 0.38548 0.0
C433 C 0.22153 0.69661 0.42447 0.0
C434 C 0.27571 0.75615 0.47563 0.0
C435 C 0.30369 0.77606 0.43682 0.0
N436 N 0.31081 0.77884 0.35253 0.0
N437 N 0.21889 0.68628 0.508 0.0
C438 C 0.28589 0.76097 0.39131 0.0
C439 C 0.23749 0.71318 0.47016 0.0
N440 N 0.22517 0.71079 0.34174 0.0
N441 N 0.28787 0.7765 0.51817 0.0
H442 H 0.19114 0.65452 0.50504 0.0
H443 H 0.23234 0.69462 0.54156 0.0
H444 H 0.31689 0.80731 0.5226 0.0
H445 H 0.26716 0.76493 0.54734 0.0
H446 H 0.24081 0.7296 0.31202 0.0
H447 H 0.19428 0.68235 0.3357 0.0
H448 H 0.34345 0.80525 0.35375 0.0
H449 H 0.34345 0.80525 0.35375 0.0
C450 C 0.49765 0.21648 0.5314 0.0
C451 C 0.48557 0.18462 0.56709 0.0
C452 C 0.49539 0.23976 0.62507 0.0
C453 C 0.51964 0.27404 0.59224 0.0
N454 N 0.54149 0.29517 0.51164 0.0
N455 N 0.43069 0.16918 0.62554 0.0
C456 C 0.51963 0.2626 0.54417 0.0
C457 C 0.47226 0.19564 0.60895 0.0
N458 N 0.49262 0.20236 0.4863 0.0
N459 N 0.49163 0.2487 0.67062 0.0
H460 H 0.40702 0.14177 0.60658 0.0
H461 H 0.40702 0.14177 0.60658 0.0
H462 H 0.50787 0.28088 0.68451 0.0
H463 H 0.47299 0.22302 0.69426 0.0
H464 H 0.49907 0.2232 0.45763 0.0
H465 H 0.47874 0.16843 0.47866 0.0
H466 H 0.54523 0.28871 0.47696 0.0
H467 H 0.55737 0.32898 0.5199 0.0
C468 C 0.2276 0.52769 0.72254 0.0
C469 C 0.21269 0.52956 0.76831 0.0
C470 C 0.27117 0.51858 0.80123 0.0
C471 C 0.28819 0.51974 0.75577 0.0
N472 N 0.272 0.50714 0.67392 0.0
N473 N 0.21348 0.51524 0.85061 0.0
C474 C 0.26183 0.51675 0.71677 0.0
C475 C 0.23095 0.51903 0.80702 0.0
N476 N 0.21206 0.5403 0.68507 0.0
N477 N 0.29453 0.52097 0.84017 0.0
H478 H 0.18462 0.51695 0.8567 0.0
H479 H 0.22701 0.50857 0.88013 0.0
H480 H 0.32518 0.52223 0.8391 0.0
H481 H 0.32518 0.52223 0.8391 0.0
H482 H 0.22541 0.54454 0.65164 0.0
H483 H 0.18717 0.5487 0.68824 0.0
H484 H 0.252 0.50154 0.64451 0.0
H485 H 0.29814 0.50055 0.66934 0.0
C486 C 0.76383 0.26087 0.94355 0.0
C487 C 0.77699 0.28349 0.90058 0.0
C488 C 0.69886 0.2446 0.87674 0.0
C489 C 0.68633 0.2343 0.92465 0.0
N490 N 0.71047 0.23053 1.00406 0.0
N491 N 0.75963 0.27182 0.81969 0.0
C492 C 0.7197 0.24267 0.95844 0.0
C493 C 0.74507 0.26494 0.86465 0.0
N494 N 0.78813 0.2447 0.96359 0.0
N495 N 0.66726 0.23632 0.8436 0.0
H496 H 0.79387 0.28921 0.81238 0.0
H497 H 0.73853 0.25793 0.79097 0.0
H498 H 0.63356 0.22118 0.85184 0.0
H499 H 0.67461 0.24596 0.80883 0.0
H500 H 0.81454 0.24502 0.94595 0.0
H501 H 0.81454 0.24502 0.94595 0.0
H502 H 0.67852 0.21595 0.01841 0.0
H503 H 0.67852 0.21595 0.01841 0.0
C504 C 0.45729 0.74309 0.05029 0.0
C505 C 0.45289 0.76449 0.0901 0.0
C506 C 0.45765 0.70892 0.13915 0.0
C507 C 0.44775 0.68116 0.0997 0.0
N508 N 0.4384 0.6737 0.01556 0.0
N509 N 0.44584 0.76554 0.1737 0.0
C510 C 0.44901 0.69907 0.05471 0.0
C511 C 0.45386 0.7477 0.13513 0.0
N512 N 0.46295 0.76208 1.00727 0.0
N513 N 0.46636 0.6961 0.1811 0.0
H514 H 0.44221 0.79349 0.17145 0.0
H515 H 0.44053 0.75133 0.20684 0.0
H516 H 0.46725 0.66659 0.18495 0.0
H517 H 0.47676 0.71677 0.21041 0.0
H518 H 0.4647 0.74634 0.9769 0.0
H519 H 0.46808 0.79425 1.00288 0.0
H520 H 0.42996 0.64032 0.01599 0.0
H521 H 0.42996 0.64032 0.01599 0.0
C522 C 0.72791 0.44094 0.20615 0.0
C523 C 0.74421 0.44332 0.25264 0.0
C524 C 0.72187 0.49728 0.27109 0.0
C525 C 0.69304 0.4834 0.23237 0.0
N526 N 0.68947 0.46553 0.15183 0.0
N527 N 0.75744 0.47701 0.32987 0.0
C528 C 0.70475 0.46447 0.19544 0.0
C529 C 0.74059 0.47168 0.28573 0.0
N530 N 0.73379 0.41588 0.17326 0.0
N531 N 0.74268 0.54023 0.28475 0.0
H532 H 0.77158 0.45875 0.34306 0.0
H533 H 0.75526 0.49889 0.35345 0.0
H534 H 0.73993 0.56423 0.2654 0.0
H535 H 0.73993 0.56423 0.2654 0.0
H536 H 0.72043 0.41043 0.1397 0.0
H537 H 0.75221 0.4002 0.18011 0.0
H538 H 0.69702 0.45336 0.12208 0.0
H539 H 0.6709 0.48145 0.146 0.0
C540 C 0.09996 0.52445 0.61808 0.0
C541 C 0.11108 0.56245 0.64736 0.0
C542 C 0.1048 0.59806 0.57573 0.0
C543 C 0.11123 0.56791 0.54648 0.0
N544 N 0.11064 0.49746 0.54444 0.0
N545 N 0.1203 0.63677 0.64934 0.0
C546 C 0.10911 0.53036 0.56918 0.0
C547 C 0.11394 0.60033 0.62465 0.0
N548 N 0.07395 0.48192 0.63422 0.0
N549 N 0.0829 0.61916 0.55957 0.0
H550 H 0.11766 0.63741 0.68545 0.0
H551 H 0.1279 0.66664 0.63282 0.0
H552 H 0.07604 0.63961 0.5806 0.0
H553 H 0.06365 0.60967 0.52926 0.0
H554 H 0.06378 0.45384 0.61321 0.0
H555 H 0.05495 0.47435 0.66449 0.0
H556 H 0.11461 0.47273 0.56091 0.0
H557 H 0.10766 0.4944 0.5083 0.0
C558 C 0.54587 0.0969 0.74336 0.0
C559 C 0.55524 0.13365 0.71426 0.0
C560 C 0.5569 0.17651 0.78432 0.0
C561 C 0.5461 0.13876 0.81315 0.0
N562 N 0.51487 0.05904 0.8163 0.0
N563 N 0.55867 0.20476 0.70615 0.0
C564 C 0.53567 0.09774 0.79124 0.0
C565 C 0.55773 0.1725 0.73448 0.0
N566 N 0.54779 0.0613 0.72544 0.0
N567 N 0.56744 0.21655 0.80395 0.0
H568 H 0.55958 0.2035 0.66987 0.0
H569 H 0.55503 0.2311 0.71839 0.0
H570 H 0.56387 0.22079 0.83928 0.0
H571 H 0.58207 0.2464 0.78537 0.0
H572 H 0.54569 0.03547 0.746 0.0
H573 H 0.55612 0.05994 0.69074 0.0
H574 H 0.50255 0.02758 0.80136 0.0
H575 H 0.50549 0.05825 0.851 0.0
C576 C 0.41839 0.52236 0.95565 0.0
C577 C 0.39706 0.54331 0.97837 0.0
C578 C 0.39308 0.57565 0.90263 0.0
C579 C 0.4141 0.5543 0.87976 0.0
N580 N 0.45406 0.51419 0.8861 0.0
N581 N 0.35359 0.58005 0.97061 0.0
C582 C 0.4285 0.52931 0.90688 0.0
C583 C 0.38135 0.56707 0.95101 0.0
N584 N 0.42719 0.49402 0.98085 0.0
N585 N 0.38494 0.60504 0.8786 0.0
H586 H 0.3441 0.57475 1.00548 0.0
H587 H 0.33642 0.59237 0.95144 0.0
H588 H 0.39103 0.61148 0.84316 0.0
H589 H 0.37544 0.62604 0.89457 0.0
H590 H 0.43878 0.47407 0.96658 0.0
H591 H 0.41883 0.48733 0.01603 0.0
H592 H 0.46957 0.49938 0.90391 0.0
H593 H 0.46332 0.5202 0.85106 0.0
C594 C 0.80098 0.36884 0.11378 0.0
C595 C 0.83958 0.39504 0.14199 0.0
C596 C 0.88204 0.43242 0.07084 0.0
C597 C 0.84354 0.40679 0.04275 0.0
N598 N 0.76732 0.34536 0.03764 0.0
N599 N 0.91982 0.43979 0.14455 0.0
C600 C 0.80348 0.37354 0.06426 0.0
C601 C 0.88101 0.42304 0.11939 0.0
N602 N 0.76105 0.33835 0.1325 0.0
N603 N 0.91931 0.46717 0.05142 0.0
H604 H 0.92014 0.43215 0.17974 0.0
H605 H 0.95149 0.45684 0.12961 0.0
H606 H 0.92097 0.47578 0.01629 0.0
H607 H 0.94678 0.49009 0.0709 0.0
H608 H 0.75551 0.33086 0.16794 0.0
H609 H 0.75551 0.33086 0.16794 0.0
H610 H 0.73746 0.32053 0.05211 0.0
H611 H 0.76733 0.34589 1.0013 0.0
C612 C 0.39757 0.81431 0.24121 0.0
C613 C 0.41653 0.85545 0.2163 0.0
C614 C 0.45297 0.89558 0.28942 0.0
C615 C 0.43415 0.85468 0.31441 0.0
N616 N 0.39632 0.77414 0.31133 0.0
N617 N 0.4544 0.93554 0.21915 0.0
C618 C 0.40883 0.81378 0.28946 0.0
C619 C 0.44213 0.8961 0.24131 0.0
N620 N 0.36736 0.77563 0.21945 0.0
N621 N 0.48328 0.934 0.31155 0.0
H622 H 0.44599 0.93692 0.18448 0.0
H623 H 0.46886 0.96636 0.23586 0.0
H624 H 0.49303 0.9344 0.34613 0.0
H625 H 0.50212 0.96452 0.29485 0.0
H626 H 0.34784 0.74566 0.23689 0.0
H627 H 0.35852 0.77382 0.18448 0.0
H628 H 0.38328 0.74377 0.29388 0.0
H629 H 0.4023 0.77151 0.34643 0.0
C630 C 0.51913 0.38909 0.40149 0.0
C631 C 0.55429 0.42979 0.38343 0.0
C632 C 0.58139 0.45302 0.4645 0.0
C633 C 0.5456 0.41273 0.48267 0.0
N634 N 0.46678 0.36141 0.46434 0.0
N635 N 0.59636 0.50831 0.40619 0.0
C636 C 0.51036 0.38543 0.45039 0.0
C637 C 0.57968 0.46435 0.41689 0.0
N638 N 0.49056 0.35546 0.37253 0.0
N639 N 0.61479 0.48314 0.49272 0.0
H640 H 0.58661 0.51911 0.37691 0.0
H641 H 0.61289 0.53386 0.43054 0.0
H642 H 0.61403 0.48169 0.52899 0.0
H643 H 0.64374 0.51001 0.47908 0.0
H644 H 0.46837 0.32361 0.38516 0.0
H645 H 0.48856 0.35901 0.33667 0.0
H646 H 0.4405 0.34294 0.4412 0.0
H647 H 0.45519 0.36664 0.4958 0.0
C648 C 0.97133 0.43892 0.30308 0.0
C649 C 0.93555 0.42986 0.33349 0.0
C650 C -0.01094 0.46447 0.39778 0.0
C651 C 0.02443 0.48302 0.36488 0.0
N652 N 0.0501 0.48648 0.28584 0.0
N653 N 0.9092 0.43061 0.41097 0.0
C654 C 0.01608 0.46887 0.31756 0.0
C655 C 0.94401 0.44052 0.38158 0.0
N656 N 0.96194 0.41936 0.26003 0.0
N657 N -0.00113 0.47045 0.4444 0.0
H658 H 0.87593 0.41206 0.40023 0.0
H659 H 0.9132 0.44236 0.44511 0.0
H660 H 0.03176 0.48756 0.45679 0.0
H661 H 0.97507 0.45506 0.4705 0.0
H662 H 0.98628 0.42176 0.23691 0.0
H663 H 0.92914 0.39689 0.24972 0.0
H664 H 0.04513 0.48159 0.24996 0.0
H665 H 0.08333 0.50802 0.29512 0.0
C666 C 0.53818 0.95324 0.55004 0.0
C667 C 0.53121 0.94732 0.50108 0.0
C668 C 0.57785 0.02801 0.48942 0.0
C669 C 0.57441 0.03381 0.53781 0.0
N670 N 0.5703 0.00585 0.61485 0.0
N671 N 0.55643 0.97574 0.4242 0.0
C672 C 0.56151 -0.00262 0.56833 0.0
C673 C 0.55587 0.9839 0.47075 0.0
N674 N 0.51985 0.91702 0.57875 0.0
N675 N 0.60051 0.06469 0.46184 0.0
H676 H 0.54168 0.94317 0.41133 0.0
H677 H 0.57264 0.00022 0.39899 0.0
H678 H 0.61972 0.09638 0.47628 0.0
H679 H 0.60253 0.06386 0.42568 0.0
H680 H 0.51902 0.91871 0.61497 0.0
H681 H 0.50582 0.88473 0.56578 0.0
H682 H 0.56349 0.98157 0.63997 0.0
H683 H 0.58794 0.03858 0.62736 0.0
C684 C 0.52304 0.52266 0.73016 0.0
C685 C 0.50252 0.5371 0.69693 0.0
C686 C 0.52949 0.50838 0.63418 0.0
C687 C 0.53949 0.48456 0.66788 0.0
N688 N 0.54816 0.47019 0.74841 0.0
N689 N 0.4895 0.54775 0.6165 0.0
C690 C 0.53818 0.49299 0.71612 0.0
C691 C 0.50795 0.53239 0.64854 0.0
N692 N 0.52659 0.53658 0.77536 0.0
N693 N 0.53988 0.50706 0.58843 0.0
H694 H 0.47485 0.56658 0.6259 0.0
H695 H 0.48706 0.5404 0.581 0.0
H696 H 0.55561 0.48955 0.57749 0.0
H697 H 0.5368 0.52632 0.56233 0.0
H698 H 0.54375 0.52992 0.80119 0.0
H699 H 0.51583 0.55867 0.78552 0.0
H700 H 0.54303 0.471 0.78412 0.0
H701 H 0.55936 0.44835 0.73904 0.0
C702 C -0.00555 0.5532 0.79957 0.0
C703 C 0.03004 0.5669 0.83192 0.0
C704 C 0.97672 0.54347 0.89628 0.0
C705 C 0.94186 0.51884 0.86398 0.0
N706 N 0.91468 0.50667 0.78497 0.0
N707 N 0.05679 0.58276 0.91121 0.0
C708 C 0.94965 0.52694 0.8155 0.0
C709 C 0.02178 0.56581 0.88047 0.0
N710 N 0.00422 0.56397 0.75356 0.0
N711 N 0.96614 0.54364 0.94211 0.0
H712 H 0.08998 0.60056 0.90027 0.0
H713 H 0.05315 0.57848 0.94721 0.0
H714 H 0.93287 0.52748 0.95312 0.0
H715 H -0.01072 0.56251 0.96786 0.0
H716 H 0.98029 0.55717 0.72782 0.0
H717 H 0.0372 0.58315 0.74208 0.0
H718 H 0.91816 0.50663 0.7489 0.0
H719 H 0.88163 0.48933 0.79634 0.0
C720 C 0.47102 0.03785 0.04957 0.0
C721 C 0.47539 0.04688 1.00101 0.0
C722 C 0.43149 0.96685 0.98377 0.0
C723 C 0.43073 0.95783 0.03215 0.0
N724 N 0.43281 0.98295 0.11054 0.0
N725 N 0.44576 0.02234 0.92403 0.0
C726 C 0.44461 -0.00702 0.06487 0.0
C727 C 0.45048 0.01195 0.96885 0.0
N728 N 0.49456 0.07143 0.08078 0.0
N729 N 0.4171 0.93293 0.95206 0.0
H730 H 0.45865 0.05542 0.91345 0.0
H731 H 0.42554 -0.0013 0.89929 0.0
H732 H 0.40197 0.8995 0.96185 0.0
H733 H 0.42195 0.9381 0.91621 0.0
H734 H 0.49685 0.06605 0.11622 0.0
H735 H 0.51382 0.10462 0.07059 0.0
H736 H 0.43931 0.0069 0.13605 0.0
H737 H 0.412 0.95005 0.12128 0.0
C738 C 0.41397 0.46011 0.21696 0.0
C739 C 0.4089 0.46261 0.16816 0.0
C740 C 0.45315 0.42696 0.15304 0.0
C741 C 0.46255 0.42876 0.20152 0.0
N742 N 0.44053 0.43217 0.28021 0.0
N743 N 0.40568 0.43132 0.0929 0.0
C744 C 0.43838 0.43972 0.23372 0.0
C745 C 0.4217 0.43915 0.13752 0.0
N746 N 0.39872 0.4803 0.24672 0.0
N747 N 0.47762 0.41858 0.12157 0.0
H748 H 0.3825 0.44049 0.08192 0.0
H749 H 0.41164 0.41207 0.06916 0.0
H750 H 0.50287 0.41231 0.13179 0.0
H751 H 0.4754 0.42155 0.08559 0.0
H752 H 0.4062 0.48466 0.28224 0.0
H753 H 0.37933 0.49386 0.23524 0.0
H754 H 0.42159 0.43674 0.30551 0.0
H755 H 0.45858 0.41739 0.29263 0.0
C756 C 0.27208 0.59047 0.28989 0.0
C757 C 0.23474 0.55057 0.3068 0.0
C758 C 0.2523 0.50815 0.24882 0.0
C759 C 0.28633 0.54868 0.22869 0.0
N760 N 0.32095 0.62889 0.22477 0.0
N761 N 0.1859 0.47142 0.29791 0.0
C762 C 0.29407 0.58991 0.2479 0.0
C763 C 0.22401 0.50932 0.28513 0.0
N764 N 0.28773 0.62911 0.31493 0.0
N765 N 0.24797 0.46853 0.23459 0.0
H766 H 0.16505 0.47098 0.32444 0.0
H767 H 0.17334 0.44127 0.28007 0.0
H768 H 0.26785 0.46638 0.20855 0.0
H769 H 0.22726 0.43828 0.25112 0.0
H770 H 0.31745 0.6582 0.30707 0.0
H771 H 0.27383 0.63078 0.34662 0.0
H772 H 0.32419 0.6594 0.2344 0.0
H773 H 0.33605 0.63013 0.19289 0.0
C774 C 0.7375 0.30263 0.43989 0.0
C775 C 0.72724 0.29035 0.39205 0.0
C776 C 0.66246 0.21948 0.41828 0.0
C777 C 0.66847 0.23509 0.46541 0.0
N778 N 0.70764 0.29853 0.51717 0.0
N779 N 0.6721 0.23992 0.33657 0.0
C780 C 0.705 0.27855 0.47523 0.0
C781 C 0.68764 0.24946 0.38144 0.0
N782 N 0.77887 0.33662 0.45211 0.0
N783 N 0.63384 0.17558 0.4083 0.0
H784 H 0.68748 0.2615 0.30868 0.0
H785 H 0.64099 0.21276 0.32797 0.0
H786 H 0.61625 0.15179 0.43374 0.0
H787 H 0.6317 0.16189 0.37531 0.0
H788 H 0.78939 0.34431 0.48673 0.0
H789 H 0.80434 0.35337 0.42785 0.0
H790 H 0.73136 0.33169 0.52411 0.0
H791 H 0.68315 0.28428 0.5428 0.0
C792 C 0.4345 0.71815 0.64445 0.0
C793 C 0.43669 0.67924 0.63315 0.0
C794 C 0.43597 0.69701 0.54924 0.0
C795 C 0.43844 0.73833 0.56056 0.0
N796 N 0.45214 0.7924 0.62123 0.0
N797 N 0.45153 0.63898 0.57375 0.0
C798 C 0.44135 0.75009 0.60884 0.0
C799 C 0.44113 0.67102 0.58521 0.0
N800 N 0.42324 0.72382 0.68859 0.0
N801 N 0.42579 0.68063 0.50476 0.0
H802 H 0.45743 0.6207 0.59884 0.0
H803 H 0.4594 0.63435 0.53986 0.0
H804 H 0.41894 0.69655 0.4778 0.0
H805 H 0.41907 0.64866 0.49588 0.0
H806 H 0.41627 0.74897 0.69725 0.0
H807 H 0.41613 0.70092 0.7154 0.0
H808 H 0.45917 0.80402 0.65553 0.0
H809 H 0.45917 0.81734 0.59692 0.0
C810 C 0.75088 0.42085 0.74495 0.0
C811 C 0.74431 0.4291 0.7924 0.0
C812 C 0.68098 0.43839 0.7653 0.0
C813 C 0.68366 0.42334 0.71971 0.0
N814 N 0.71868 0.39504 0.66802 0.0
N815 N 0.71606 0.4668 0.84075 0.0
C816 C 0.71822 0.41364 0.70997 0.0
C817 C 0.71281 0.44366 0.80087 0.0
N818 N 0.7905 0.42414 0.73204 0.0
N819 N 0.64758 0.44752 0.77476 0.0
H820 H 0.7431 0.47849 0.86353 0.0
H821 H 0.69618 0.48081 0.84795 0.0
H822 H 0.62711 0.44897 0.74883 0.0
H823 H 0.63874 0.45166 0.80833 0.0
H824 H 0.79883 0.42238 0.69748 0.0
H825 H 0.81784 0.43579 0.75449 0.0
H826 H 0.73932 0.38172 0.66126 0.0
H827 H 0.69577 0.38921 0.64133 0.0
C828 C 0.30113 0.71428 0.94671 0.0
C829 C 0.29583 0.74952 0.96541 0.0
C830 C 0.23369 0.72916 0.90886 0.0
C831 C 0.24214 0.69686 0.88759 0.0
N832 N 0.29163 0.66683 0.88034 0.0
N833 N 0.26087 0.7946 0.95912 0.0
C834 C 0.27814 0.69192 0.90488 0.0
C835 C 0.26303 0.75802 0.94509 0.0
N836 N 0.32665 0.70047 0.97015 0.0
N837 N 0.19668 0.73121 0.89581 0.0
H838 H 0.28143 0.81608 0.98529 0.0
H839 H 0.24125 0.80556 0.94244 0.0
H840 H 0.17507 0.71123 0.8694 0.0
H841 H 0.18567 0.7503 0.91333 0.0
H842 H 0.32808 0.67207 0.96097 0.0
H843 H 0.34242 0.71424 1.00189 0.0
H844 H 0.32047 0.66562 0.88841 0.0
H845 H 0.27691 0.65118 0.84883 0.0
C846 C 0.55689 0.27392 0.14725 0.0
C847 C 0.55041 0.3107 0.13777 0.0
C848 C 0.54677 0.29305 0.05339 0.0
C849 C 0.54864 0.25368 0.06318 0.0
N850 N 0.54263 0.20107 0.12221 0.0
N851 N 0.52521 0.34541 0.0816 0.0
C852 C 0.54982 0.24247 0.11097 0.0
C853 C 0.54117 0.31723 0.09075 0.0
N854 N 0.5722 0.2699 0.18998 0.0
N855 N 0.55287 0.30929 1.00891 0.0
H856 H 0.51749 0.36084 0.10816 0.0
H857 H 0.51418 0.34857 0.04863 0.0
H858 H 0.55963 0.29465 0.9807 0.0
H859 H 0.55626 0.34025 1.00103 0.0
H860 H 0.58189 0.24636 0.19695 0.0
H861 H 0.57981 0.29282 0.21693 0.0
H862 H 0.5391 0.18971 0.15651 0.0
H863 H 0.53473 0.17631 0.09727 0.0
loop_
_geom_bond_atom_site_label_1
_geom_bond_atom_site_label_2
_geom_bond_distance
_geom_bond_site_symmetry_2
_ccdc_geom_bond_type
Mn0 O5 2.095 . S
Mn0 O15 2.162 . S
Mn0 O16 2.297 . S
Mn0 O24 2.385 . S
Mn0 O25 2.209 . S
Mn0 O26 2.094 . S
Mn1 O6 2.121 . S
Mn1 N8 2.257 . S
Mn1 N17 2.282 . S
Mn1 O25 2.215 . S
Mn1 O27 2.117 . S
C2 O24 1.234 . S
C2 O25 1.283 . S
C3 O15 1.281 . S
C3 O16 1.236 . S
C4 O26 1.240 . S
C4 O27 1.264 . S
O5 Mn0 2.095 . S
O5 C14 1.250 . S
O6 Mn1 2.121 . S
O6 C14 1.258 . S
C7 N8 1.326 . S
C7 C11 1.460 . S
C7 H13 0.929 . S
N8 Mn1 2.257 . S
N8 C7 1.326 . S
N8 C12 1.362 . S
C9 C10 1.258 . S
C9 C12 1.431 . S
C9 C29 1.449 . S
C10 C9 1.258 . S
C10 C11 1.477 . S
C10 H30 0.931 . S
C11 C7 1.460 . S
C11 C10 1.477 . S
C11 H31 0.930 . S
C12 N8 1.362 . S
C12 C9 1.431 . S
C12 C22 1.476 . S
H13 C7 0.929 . S
C14 O5 1.250 . S
C14 O6 1.258 . S
O15 Mn0 2.162 . S
O15 C3 1.281 . S
O16 Mn0 2.297 . S
O16 C3 1.236 . S
N17 Mn1 2.282 . S
N17 C18 1.328 . S
N17 C22 1.318 . S
C18 N17 1.328 . S
C18 C19 1.457 . S
C18 H23 0.929 . S
C19 C18 1.457 . S
C19 C20 1.291 . S
C19 H32 0.931 . S
C20 C19 1.291 . S
C20 C21 1.373 . S
C20 H33 0.929 . S
C21 C20 1.373 . S
C21 C22 1.396 . S
C21 C28 1.403 . S
C22 C12 1.476 . S
C22 N17 1.318 . S
C22 C21 1.396 . S
H23 C18 0.929 . S
O24 Mn0 2.385 . S
O24 C2 1.234 . S
O25 Mn0 2.209 . S
O25 Mn1 2.215 . S
O25 C2 1.283 . S
O26 Mn0 2.094 . S
O26 C4 1.240 . S
O27 Mn1 2.117 . S
O27 C4 1.264 . S
C28 C21 1.403 . S
C28 C29 1.399 . S
C28 H34 0.929 . S
C29 C9 1.449 . S
C29 C28 1.399 . S
C29 H35 0.930 . S
H30 C10 0.931 . S
H31 C11 0.930 . S
H32 C19 0.931 . S
H33 C20 0.929 . S
H34 C28 0.929 . S
H35 C29 0.930 . S
Mn36 O41 2.095 . S
Mn36 O51 2.162 . S
Mn36 O52 2.297 . S
Mn36 O60 2.385 . S
Mn36 O61 2.209 . S
Mn36 O62 2.094 . S
Mn37 O42 2.121 . S
Mn37 N44 2.257 . S
Mn37 N53 2.282 . S
Mn37 O61 2.215 . S
Mn37 O63 2.117 . S
C38 O60 1.234 . S
C38 O61 1.283 . S
C39 O51 1.281 . S
C39 O52 1.236 . S
C40 O62 1.240 . S
C40 O63 1.264 . S
O41 Mn36 2.095 . S
O41 C50 1.250 . S
O42 Mn37 2.121 . S
O42 C50 1.258 . S
C43 N44 1.326 . S
C43 C47 1.460 . S
C43 H49 0.929 . S
N44 Mn37 2.257 . S
N44 C43 1.326 . S
N44 C48 1.362 . S
C45 C46 1.258 . S
C45 C48 1.431 . S
C45 C65 1.449 . S
C46 C45 1.258 . S
C46 C47 1.477 . S
C46 H66 0.931 . S
C47 C43 1.460 . S
C47 C46 1.477 . S
C47 H67 0.930 . S
C48 N44 1.362 . S
C48 C45 1.431 . S
C48 C58 1.476 . S
H49 C43 0.929 . S
C50 O41 1.250 . S
C50 O42 1.258 . S
O51 Mn36 2.162 . S
O51 C39 1.281 . S
O52 Mn36 2.297 . S
O52 C39 1.236 . S
N53 Mn37 2.282 . S
N53 C54 1.328 . S
N53 C58 1.318 . S
C54 N53 1.328 . S
C54 C55 1.457 . S
C54 H59 0.929 . S
C55 C54 1.457 . S
C55 C56 1.291 . S
C55 H68 0.931 . S
C56 C55 1.291 . S
C56 C57 1.373 . S
C56 H69 0.929 . S
C57 C56 1.373 . S
C57 C58 1.396 . S
C57 C64 1.403 . S
C58 C48 1.476 . S
C58 N53 1.318 . S
C58 C57 1.396 . S
H59 C54 0.929 . S
O60 Mn36 2.385 . S
O60 C38 1.234 . S
O61 Mn36 2.209 . S
O61 Mn37 2.215 . S
O61 C38 1.283 . S
O62 Mn36 2.094 . S
O62 C40 1.240 . S
O63 Mn37 2.117 . S
O63 C40 1.264 . S
C64 C57 1.403 . S
C64 C65 1.399 . S
C64 H70 0.929 . S
C65 C45 1.449 . S
C65 C64 1.399 . S
C65 H71 0.930 . S
H66 C46 0.931 . S
H67 C47 0.930 . S
H68 C55 0.931 . S
H69 C56 0.929 . S
H70 C64 0.929 . S
H71 C65 0.930 . S
Mn72 O77 2.095 . S
Mn72 O87 2.162 . S
Mn72 O88 2.297 . S
Mn72 O96 2.385 . S
Mn72 O97 2.209 . S
Mn72 O98 2.094 . S
Mn73 O78 2.121 . S
Mn73 N80 2.257 . S
Mn73 N89 2.282 . S
Mn73 O97 2.215 . S
Mn73 O99 2.117 . S
C74 O96 1.234 . S
C74 O97 1.283 . S
C75 O87 1.281 . S
C75 O88 1.236 . S
C76 O98 1.240 . S
C76 O99 1.264 . S
O77 Mn72 2.095 . S
O77 C86 1.250 . S
O78 Mn73 2.121 . S
O78 C86 1.258 . S
C79 N80 1.326 . S
C79 C83 1.460 . S
C79 H85 0.929 . S
N80 Mn73 2.257 . S
N80 C79 1.326 . S
N80 C84 1.362 . S
C81 C82 1.258 . S
C81 C84 1.431 . S
C81 C101 1.449 . S
C82 C81 1.258 . S
C82 C83 1.477 . S
C82 H102 0.931 . S
C83 C79 1.460 . S
C83 C82 1.477 . S
C83 H103 0.930 . S
C84 N80 1.362 . S
C84 C81 1.431 . S
C84 C94 1.476 . S
H85 C79 0.929 . S
C86 O77 1.250 . S
C86 O78 1.258 . S
O87 Mn72 2.162 . S
O87 C75 1.281 . S
O88 Mn72 2.297 . S
O88 C75 1.236 . S
N89 Mn73 2.282 . S
N89 C90 1.328 . S
N89 C94 1.318 . S
C90 N89 1.328 . S
C90 C91 1.457 . S
C90 H95 0.929 . S
C91 C90 1.457 . S
C91 C92 1.291 . S
C91 H104 0.931 . S
C92 C91 1.291 . S
C92 C93 1.373 . S
C92 H105 0.929 . S
C93 C92 1.373 . S
C93 C94 1.396 . S
C93 C100 1.403 . S
C94 C84 1.476 . S
C94 N89 1.318 . S
C94 C93 1.396 . S
H95 C90 0.929 . S
O96 Mn72 2.385 . S
O96 C74 1.234 . S
O97 Mn72 2.209 . S
O97 Mn73 2.215 . S
O97 C74 1.283 . S
O98 Mn72 2.094 . S
O98 C76 1.240 . S
O99 Mn73 2.117 . S
O99 C76 1.264 . S
C100 C93 1.403 . S
C100 C101 1.399 . S
C100 H106 0.929 . S
C101 C81 1.449 . S
C101 C100 1.399 . S
C101 H107 0.930 . S
H102 C82 0.931 . S
H103 C83 0.930 . S
H104 C91 0.931 . S
H105 C92 0.929 . S
H106 C100 0.929 . S
H107 C101 0.930 . S
Mn108 O113 2.095 . S
Mn108 O123 2.162 . S
Mn108 O124 2.297 . S
Mn108 O132 2.385 . S
Mn108 O133 2.209 . S
Mn108 O134 2.094 . S
Mn109 O114 2.121 . S
Mn109 N116 2.257 . S
Mn109 N125 2.282 . S
Mn109 O133 2.215 . S
Mn109 O135 2.117 . S
C110 O132 1.234 . S
C110 O133 1.283 . S
C111 O123 1.281 . S
C111 O124 1.236 . S
C112 O134 1.240 . S
C112 O135 1.264 . S
O113 Mn108 2.095 . S
O113 C122 1.250 . S
O114 Mn109 2.121 . S
O114 C122 1.258 . S
C115 N116 1.326 . S
C115 C119 1.460 . S
C115 H121 0.929 . S
N116 Mn109 2.257 . S
N116 C115 1.326 . S
N116 C120 1.362 . S
C117 C118 1.258 . S
C117 C120 1.431 . S
C117 C137 1.449 . S
C118 C117 1.258 . S
C118 C119 1.477 . S
C118 H138 0.931 . S
C119 C115 1.460 . S
C119 C118 1.477 . S
C119 H139 0.930 . S
C120 N116 1.362 . S
C120 C117 1.431 . S
C120 C130 1.476 . S
H121 C115 0.929 . S
C122 O113 1.250 . S
C122 O114 1.258 . S
O123 Mn108 2.162 . S
O123 C111 1.281 . S
O124 Mn108 2.297 . S
O124 C111 1.236 . S
N125 Mn109 2.282 . S
N125 C126 1.328 1_556 S
N125 C130 1.318 . S
C126 N125 1.328 1_554 S
C126 C127 1.457 . S
C126 H131 0.929 . S
C127 C126 1.457 . S
C127 C128 1.291 . S
C127 H140 0.931 . S
C128 C127 1.291 . S
C128 C129 1.373 1_554 S
C128 H141 0.929 . S
C129 C128 1.373 1_556 S
C129 C130 1.396 . S
C129 C136 1.403 . S
C130 C120 1.476 . S
C130 N125 1.318 . S
C130 C129 1.396 . S
H131 C126 0.929 . S
O132 Mn108 2.385 . S
O132 C110 1.234 . S
O133 Mn108 2.209 . S
O133 Mn109 2.215 . S
O133 C110 1.283 . S
O134 Mn108 2.094 . S
O134 C112 1.240 . S
O135 Mn109 2.117 . S
O135 C112 1.264 . S
C136 C129 1.403 . S
C136 C137 1.399 . S
C136 H142 0.929 . S
C137 C117 1.449 . S
C137 C136 1.399 . S
C137 H143 0.930 . S
H138 C118 0.931 . S
H139 C119 0.930 . S
H140 C127 0.931 . S
H141 C128 0.929 . S
H142 C136 0.929 . S
H143 C137 0.930 . S
Mn144 O149 2.095 . S
Mn144 O159 2.162 . S
Mn144 O160 2.297 1_554 S
Mn144 O168 2.385 . S
Mn144 O169 2.209 . S
Mn144 O170 2.094 . S
Mn145 O150 2.121 . S
Mn145 N152 2.257 . S
Mn145 N161 2.282 . S
Mn145 O169 2.215 . S
Mn145 O171 2.117 . S
C146 O168 1.234 . S
C146 O169 1.283 . S
C147 O159 1.281 1_556 S
C147 O160 1.236 . S
C148 O170 1.240 . S
C148 O171 1.264 . S
O149 Mn144 2.095 . S
O149 C158 1.250 . S
O150 Mn145 2.121 . S
O150 C158 1.258 . S
C151 N152 1.326 . S
C151 C155 1.460 . S
C151 H157 0.929 . S
N152 Mn145 2.257 . S
N152 C151 1.326 . S
N152 C156 1.362 . S
C153 C154 1.258 . S
C153 C156 1.431 . S
C153 C173 1.449 . S
C154 C153 1.258 . S
C154 C155 1.477 . S
C154 H174 0.931 . S
C155 C151 1.460 . S
C155 C154 1.477 . S
C155 H175 0.930 . S
C156 N152 1.362 . S
C156 C153 1.431 . S
C156 C166 1.476 . S
H157 C151 0.929 . S
C158 O149 1.250 . S
C158 O150 1.258 . S
O159 Mn144 2.162 . S
O159 C147 1.281 1_554 S
O160 Mn144 2.297 1_556 S
O160 C147 1.236 . S
N161 Mn145 2.282 . S
N161 C162 1.328 . S
N161 C166 1.318 . S
C162 N161 1.328 . S
C162 C163 1.457 . S
C162 H167 0.929 . S
C163 C162 1.457 . S
C163 C164 1.291 . S
C163 H176 0.931 . S
C164 C163 1.291 . S
C164 C165 1.373 . S
C164 H177 0.929 . S
C165 C164 1.373 . S
C165 C166 1.396 . S
C165 C172 1.403 . S
C166 C156 1.476 . S
C166 N161 1.318 . S
C166 C165 1.396 . S
H167 C162 0.929 . S
O168 Mn144 2.385 . S
O168 C146 1.234 . S
O169 Mn144 2.209 . S
O169 Mn145 2.215 . S
O169 C146 1.283 . S
O170 Mn144 2.094 . S
O170 C148 1.240 . S
O171 Mn145 2.117 . S
O171 C148 1.264 . S
C172 C165 1.403 . S
C172 C173 1.399 . S
C172 H178 0.929 . S
C173 C153 1.449 . S
C173 C172 1.399 . S
C173 H179 0.930 . S
H174 C154 0.931 . S
H175 C155 0.930 . S
H176 C163 0.931 . S
H177 C164 0.929 . S
H178 C172 0.929 . S
H179 C173 0.930 . S
Mn180 O185 2.095 . S
Mn180 O195 2.162 . S
Mn180 O196 2.297 . S
Mn180 O204 2.385 . S
Mn180 O205 2.209 . S
Mn180 O206 2.094 . S
Mn181 O186 2.121 . S
Mn181 N188 2.257 . S
Mn181 N197 2.282 . S
Mn181 O205 2.215 . S
Mn181 O207 2.117 . S
C182 O204 1.234 . S
C182 O205 1.283 . S
C183 O195 1.281 . S
C183 O196 1.236 . S
C184 O206 1.240 . S
C184 O207 1.264 . S
O185 Mn180 2.095 . S
O185 C194 1.250 . S
O186 Mn181 2.121 . S
O186 C194 1.258 . S
C187 N188 1.326 . S
C187 C191 1.460 . S
C187 H193 0.929 . S
N188 Mn181 2.257 . S
N188 C187 1.326 . S
N188 C192 1.362 . S
C189 C190 1.258 . S
C189 C192 1.431 . S
C189 C209 1.449 . S
C190 C189 1.258 . S
C190 C191 1.477 . S
C190 H210 0.931 . S
C191 C187 1.460 . S
C191 C190 1.477 . S
C191 H211 0.930 . S
C192 N188 1.362 . S
C192 C189 1.431 . S
C192 C202 1.476 . S
H193 C187 0.929 . S
C194 O185 1.250 . S
C194 O186 1.258 . S
O195 Mn180 2.162 . S
O195 C183 1.281 . S
O196 Mn180 2.297 . S
O196 C183 1.236 . S
N197 Mn181 2.282 . S
N197 C198 1.328 . S
N197 C202 1.318 . S
C198 N197 1.328 . S
C198 C199 1.457 . S
C198 H203 0.929 . S
C199 C198 1.457 . S
C199 C200 1.291 . S
C199 H212 0.931 . S
C200 C199 1.291 . S
C200 C201 1.373 . S
C200 H213 0.929 . S
C201 C200 1.373 . S
C201 C202 1.396 . S
C201 C208 1.403 . S
C202 C192 1.476 . S
C202 N197 1.318 . S
C202 C201 1.396 . S
H203 C198 0.929 . S
O204 Mn180 2.385 . S
O204 C182 1.234 . S
O205 Mn180 2.209 . S
O205 Mn181 2.215 . S
O205 C182 1.283 . S
O206 Mn180 2.094 . S
O206 C184 1.240 . S
O207 Mn181 2.117 . S
O207 C184 1.264 . S
C208 C201 1.403 . S
C208 C209 1.399 . S
C208 H214 0.929 . S
C209 C189 1.449 . S
C209 C208 1.399 . S
C209 H215 0.930 . S
H210 C190 0.931 . S
H211 C191 0.930 . S
H212 C199 0.931 . S
H213 C200 0.929 . S
H214 C208 0.929 . S
H215 C209 0.930 . S
Mn216 O221 2.095 . S
Mn216 O231 2.162 . S
Mn216 O232 2.297 . S
Mn216 O240 2.385 . S
Mn216 O241 2.209 . S
Mn216 O242 2.094 . S
Mn217 O222 2.121 . S
Mn217 N224 2.257 . S
Mn217 N233 2.282 . S
Mn217 O241 2.215 . S
Mn217 O243 2.117 . S
C218 O240 1.234 . S
C218 O241 1.283 . S
C219 O231 1.281 . S
C219 O232 1.236 . S
C220 O242 1.240 . S
C220 O243 1.264 . S
O221 Mn216 2.095 . S
O221 C230 1.250 . S
O222 Mn217 2.121 . S
O222 C230 1.258 . S
C223 N224 1.326 . S
C223 C227 1.460 . S
C223 H229 0.929 . S
N224 Mn217 2.257 . S
N224 C223 1.326 . S
N224 C228 1.362 . S
C225 C226 1.258 . S
C225 C228 1.431 . S
C225 C245 1.449 . S
C226 C225 1.258 . S
C226 C227 1.477 . S
C226 H246 0.931 . S
C227 C223 1.460 . S
C227 C226 1.477 . S
C227 H247 0.930 . S
C228 N224 1.362 . S
C228 C225 1.431 . S
C228 C238 1.476 . S
H229 C223 0.929 . S
C230 O221 1.250 . S
C230 O222 1.258 . S
O231 Mn216 2.162 . S
O231 C219 1.281 . S
O232 Mn216 2.297 . S
O232 C219 1.236 . S
N233 Mn217 2.282 . S
N233 C234 1.328 . S
N233 C238 1.318 . S
C234 N233 1.328 . S
C234 C235 1.457 . S
C234 H239 0.929 . S
C235 C234 1.457 . S
C235 C236 1.291 . S
C235 H248 0.931 . S
C236 C235 1.291 . S
C236 C237 1.373 . S
C236 H249 0.929 . S
C237 C236 1.373 . S
C237 C238 1.396 . S
C237 C244 1.403 . S
C238 C228 1.476 . S
C238 N233 1.318 . S
C238 C237 1.396 . S
H239 C234 0.929 . S
O240 Mn216 2.385 . S
O240 C218 1.234 . S
O241 Mn216 2.209 . S
O241 Mn217 2.215 . S
O241 C218 1.283 . S
O242 Mn216 2.094 . S
O242 C220 1.240 . S
O243 Mn217 2.117 . S
O243 C220 1.264 . S
C244 C237 1.403 . S
C244 C245 1.399 . S
C244 H250 0.929 . S
C245 C225 1.449 . S
C245 C244 1.399 . S
C245 H251 0.930 . S
H246 C226 0.931 . S
H247 C227 0.930 . S
H248 C235 0.931 . S
H249 C236 0.929 . S
H250 C244 0.929 . S
H251 C245 0.930 . S
Mn252 O257 2.095 . S
Mn252 O267 2.162 . S
Mn252 O268 2.297 . S
Mn252 O276 2.385 . S
Mn252 O277 2.209 . S
Mn252 O278 2.094 . S
Mn253 O258 2.121 . S
Mn253 N260 2.257 . S
Mn253 N269 2.282 . S
Mn253 O277 2.215 . S
Mn253 O279 2.117 . S
C254 O276 1.234 . S
C254 O277 1.283 . S
C255 O267 1.281 . S
C255 O268 1.236 . S
C256 O278 1.240 . S
C256 O279 1.264 . S
O257 Mn252 2.095 . S
O257 C266 1.250 . S
O258 Mn253 2.121 . S
O258 C266 1.258 . S
C259 N260 1.326 . S
C259 C263 1.460 . S
C259 H265 0.929 . S
N260 Mn253 2.257 . S
N260 C259 1.326 . S
N260 C264 1.362 . S
C261 C262 1.258 . S
C261 C264 1.431 . S
C261 C281 1.449 . S
C262 C261 1.258 . S
C262 C263 1.477 . S
C262 H282 0.931 . S
C263 C259 1.460 . S
C263 C262 1.477 . S
C263 H283 0.930 . S
C264 N260 1.362 . S
C264 C261 1.431 . S
C264 C274 1.476 . S
H265 C259 0.929 . S
C266 O257 1.250 . S
C266 O258 1.258 . S
O267 Mn252 2.162 . S
O267 C255 1.281 . S
O268 Mn252 2.297 . S
O268 C255 1.236 . S
N269 Mn253 2.282 . S
N269 C270 1.328 . S
N269 C274 1.318 . S
C270 N269 1.328 . S
C270 C271 1.457 . S
C270 H275 0.929 . S
C271 C270 1.457 . S
C271 C272 1.291 . S
C271 H284 0.931 . S
C272 C271 1.291 . S
C272 C273 1.373 . S
C272 H285 0.929 . S
C273 C272 1.373 . S
C273 C274 1.396 . S
C273 C280 1.403 . S
C274 C264 1.476 . S
C274 N269 1.318 . S
C274 C273 1.396 . S
H275 C270 0.929 . S
O276 Mn252 2.385 . S
O276 C254 1.234 . S
O277 Mn252 2.209 . S
O277 Mn253 2.215 . S
O277 C254 1.283 . S
O278 Mn252 2.094 . S
O278 C256 1.240 . S
O279 Mn253 2.117 . S
O279 C256 1.264 . S
C280 C273 1.403 . S
C280 C281 1.399 . S
C280 H286 0.929 . S
C281 C261 1.449 . S
C281 C280 1.399 . S
C281 H287 0.930 . S
H282 C262 0.931 . S
H283 C263 0.930 . S
H284 C271 0.931 . S
H285 C272 0.929 . S
H286 C280 0.929 . S
H287 C281 0.930 . S
Mn288 O293 2.095 . S
Mn288 O303 2.162 . S
Mn288 O304 2.297 . S
Mn288 O312 2.385 . S
Mn288 O313 2.209 . S
Mn288 O314 2.094 . S
Mn289 O294 2.121 . S
Mn289 N296 2.257 . S
Mn289 N305 2.282 . S
Mn289 O313 2.215 . S
Mn289 O315 2.117 . S
C290 O312 1.234 . S
C290 O313 1.283 . S
C291 O303 1.281 . S
C291 O304 1.236 . S
C292 O314 1.240 . S
C292 O315 1.264 . S
O293 Mn288 2.095 . S
O293 C302 1.250 . S
O294 Mn289 2.121 . S
O294 C302 1.258 . S
C295 N296 1.326 . S
C295 C299 1.460 . S
C295 H301 0.929 . S
N296 Mn289 2.257 . S
N296 C295 1.326 . S
N296 C300 1.362 . S
C297 C298 1.258 . S
C297 C300 1.431 . S
C297 C317 1.449 . S
C298 C297 1.258 . S
C298 C299 1.477 . S
C298 H318 0.931 . S
C299 C295 1.460 . S
C299 C298 1.477 . S
C299 H319 0.930 . S
C300 N296 1.362 . S
C300 C297 1.431 . S
C300 C310 1.476 . S
H301 C295 0.929 . S
C302 O293 1.250 . S
C302 O294 1.258 . S
O303 Mn288 2.162 . S
O303 C291 1.281 . S
O304 Mn288 2.297 . S
O304 C291 1.236 . S
N305 Mn289 2.282 . S
N305 C306 1.328 . S
N305 C310 1.318 . S
C306 N305 1.328 . S
C306 C307 1.457 . S
C306 H311 0.929 . S
C307 C306 1.457 . S
C307 C308 1.291 . S
C307 H320 0.931 . S
C308 C307 1.291 . S
C308 C309 1.373 . S
C308 H321 0.929 . S
C309 C308 1.373 . S
C309 C310 1.396 . S
C309 C316 1.403 . S
C310 C300 1.476 . S
C310 N305 1.318 . S
C310 C309 1.396 . S
H311 C306 0.929 . S
O312 Mn288 2.385 . S
O312 C290 1.234 . S
O313 Mn288 2.209 . S
O313 Mn289 2.215 . S
O313 C290 1.283 . S
O314 Mn288 2.094 . S
O314 C292 1.240 . S
O315 Mn289 2.117 . S
O315 C292 1.264 . S
C316 C309 1.403 . S
C316 C317 1.399 . S
C316 H322 0.929 . S
C317 C297 1.449 . S
C317 C316 1.399 . S
C317 H323 0.930 . S
H318 C298 0.931 . S
H319 C299 0.930 . S
H320 C307 0.931 . S
H321 C308 0.929 . S
H322 C316 0.929 . S
H323 C317 0.930 . S
Mn324 O329 2.095 . S
Mn324 O339 2.162 . S
Mn324 O340 2.297 1_556 S
Mn324 O348 2.385 . S
Mn324 O349 2.209 . S
Mn324 O350 2.094 . S
Mn325 O330 2.121 . S
Mn325 N332 2.257 . S
Mn325 N341 2.282 . S
Mn325 O349 2.215 . S
Mn325 O351 2.117 . S
C326 O348 1.234 . S
C326 O349 1.283 . S
C327 O339 1.281 1_554 S
C327 O340 1.236 . S
C328 O350 1.240 . S
C328 O351 1.264 . S
O329 Mn324 2.095 . S
O329 C338 1.250 . S
O330 Mn325 2.121 . S
O330 C338 1.258 . S
C331 N332 1.326 . S
C331 C335 1.460 . S
C331 H337 0.929 . S
N332 Mn325 2.257 . S
N332 C331 1.326 . S
N332 C336 1.362 . S
C333 C334 1.258 . S
C333 C336 1.431 . S
C333 C353 1.449 . S
C334 C333 1.258 . S
C334 C335 1.477 . S
C334 H354 0.931 . S
C335 C331 1.460 . S
C335 C334 1.477 . S
C335 H355 0.930 . S
C336 N332 1.362 . S
C336 C333 1.431 . S
C336 C346 1.476 . S
H337 C331 0.929 . S
C338 O329 1.250 . S
C338 O330 1.258 . S
O339 Mn324 2.162 . S
O339 C327 1.281 1_556 S
O340 Mn324 2.297 1_554 S
O340 C327 1.236 . S
N341 Mn325 2.282 . S
N341 C342 1.328 . S
N341 C346 1.318 . S
C342 N341 1.328 . S
C342 C343 1.457 . S
C342 H347 0.929 . S
C343 C342 1.457 . S
C343 C344 1.291 . S
C343 H356 0.931 . S
C344 C343 1.291 . S
C344 C345 1.373 . S
C344 H357 0.929 . S
C345 C344 1.373 . S
C345 C346 1.396 . S
C345 C352 1.403 . S
C346 C336 1.476 . S
C346 N341 1.318 . S
C346 C345 1.396 . S
H347 C342 0.929 . S
O348 Mn324 2.385 . S
O348 C326 1.234 . S
O349 Mn324 2.209 . S
O349 Mn325 2.215 . S
O349 C326 1.283 . S
O350 Mn324 2.094 . S
O350 C328 1.240 . S
O351 Mn325 2.117 . S
O351 C328 1.264 . S
C352 C345 1.403 . S
C352 C353 1.399 . S
C352 H358 0.929 . S
C353 C333 1.449 . S
C353 C352 1.399 . S
C353 H359 0.930 . S
H354 C334 0.931 . S
H355 C335 0.930 . S
H356 C343 0.931 . S
H357 C344 0.929 . S
H358 C352 0.929 . S
H359 C353 0.930 . S
Mn360 O365 2.095 . S
Mn360 O375 2.162 . S
Mn360 O376 2.297 . S
Mn360 O384 2.385 . S
Mn360 O385 2.209 . S
Mn360 O386 2.094 . S
Mn361 O366 2.121 . S
Mn361 N368 2.257 . S
Mn361 N377 2.282 . S
Mn361 O385 2.215 . S
Mn361 O387 2.117 . S
C362 O384 1.234 . S
C362 O385 1.283 . S
C363 O375 1.281 . S
C363 O376 1.236 . S
C364 O386 1.240 . S
C364 O387 1.264 . S
O365 Mn360 2.095 . S
O365 C374 1.250 . S
O366 Mn361 2.121 . S
O366 C374 1.258 . S
C367 N368 1.326 . S
C367 C371 1.460 . S
C367 H373 0.929 . S
N368 Mn361 2.257 . S
N368 C367 1.326 . S
N368 C372 1.362 . S
C369 C370 1.258 . S
C369 C372 1.431 . S
C369 C389 1.449 . S
C370 C369 1.258 . S
C370 C371 1.477 . S
C370 H390 0.931 . S
C371 C367 1.460 . S
C371 C370 1.477 . S
C371 H391 0.930 . S
C372 N368 1.362 . S
C372 C369 1.431 . S
C372 C382 1.476 . S
H373 C367 0.929 . S
C374 O365 1.250 . S
C374 O366 1.258 . S
O375 Mn360 2.162 . S
O375 C363 1.281 . S
O376 Mn360 2.297 . S
O376 C363 1.236 . S
N377 Mn361 2.282 . S
N377 C378 1.328 1_554 S
N377 C382 1.318 . S
C378 N377 1.328 1_556 S
C378 C379 1.457 . S
C378 H383 0.929 . S
C379 C378 1.457 . S
C379 C380 1.291 . S
C379 H392 0.931 . S
C380 C379 1.291 . S
C380 C381 1.373 1_556 S
C380 H393 0.929 . S
C381 C380 1.373 1_554 S
C381 C382 1.396 . S
C381 C388 1.403 . S
C382 C372 1.476 . S
C382 N377 1.318 . S
C382 C381 1.396 . S
H383 C378 0.929 . S
O384 Mn360 2.385 . S
O384 C362 1.234 . S
O385 Mn360 2.209 . S
O385 Mn361 2.215 . S
O385 C362 1.283 . S
O386 Mn360 2.094 . S
O386 C364 1.240 . S
O387 Mn361 2.117 . S
O387 C364 1.264 . S
C388 C381 1.403 . S
C388 C389 1.399 . S
C388 H394 0.929 . S
C389 C369 1.449 . S
C389 C388 1.399 . S
C389 H395 0.930 . S
H390 C370 0.931 . S
H391 C371 0.930 . S
H392 C379 0.931 . S
H393 C380 0.929 . S
H394 C388 0.929 . S
H395 C389 0.930 . S
Mn396 O401 2.095 . S
Mn396 O411 2.162 . S
Mn396 O412 2.297 . S
Mn396 O420 2.385 . S
Mn396 O421 2.209 . S
Mn396 O422 2.094 . S
Mn397 O402 2.121 . S
Mn397 N404 2.257 . S
Mn397 N413 2.282 . S
Mn397 O421 2.215 . S
Mn397 O423 2.117 . S
C398 O420 1.234 . S
C398 O421 1.283 . S
C399 O411 1.281 . S
C399 O412 1.236 . S
C400 O422 1.240 . S
C400 O423 1.264 . S
O401 Mn396 2.095 . S
O401 C410 1.250 . S
O402 Mn397 2.121 . S
O402 C410 1.258 . S
C403 N404 1.326 . S
C403 C407 1.460 . S
C403 H409 0.929 . S
N404 Mn397 2.257 . S
N404 C403 1.326 . S
N404 C408 1.362 . S
C405 C406 1.258 . S
C405 C408 1.431 . S
C405 C425 1.449 . S
C406 C405 1.258 . S
C406 C407 1.477 . S
C406 H426 0.931 . S
C407 C403 1.460 . S
C407 C406 1.477 . S
C407 H427 0.930 . S
C408 N404 1.362 . S
C408 C405 1.431 . S
C408 C418 1.476 . S
H409 C403 0.929 . S
C410 O401 1.250 . S
C410 O402 1.258 . S
O411 Mn396 2.162 . S
O411 C399 1.281 . S
O412 Mn396 2.297 . S
O412 C399 1.236 . S
N413 Mn397 2.282 . S
N413 C414 1.328 . S
N413 C418 1.318 . S
C414 N413 1.328 . S
C414 C415 1.457 . S
C414 H419 0.929 . S
C415 C414 1.457 . S
C415 C416 1.291 . S
C415 H428 0.931 . S
C416 C415 1.291 . S
C416 C417 1.373 . S
C416 H429 0.929 . S
C417 C416 1.373 . S
C417 C418 1.396 . S
C417 C424 1.403 . S
C418 C408 1.476 . S
C418 N413 1.318 . S
C418 C417 1.396 . S
H419 C414 0.929 . S
O420 Mn396 2.385 . S
O420 C398 1.234 . S
O421 Mn396 2.209 . S
O421 Mn397 2.215 . S
O421 C398 1.283 . S
O422 Mn396 2.094 . S
O422 C400 1.240 . S
O423 Mn397 2.117 . S
O423 C400 1.264 . S
C424 C417 1.403 . S
C424 C425 1.399 . S
C424 H430 0.929 . S
C425 C405 1.449 . S
C425 C424 1.399 . S
C425 H431 0.930 . S
H426 C406 0.931 . S
H427 C407 0.930 . S
H428 C415 0.931 . S
H429 C416 0.929 . S
H430 C424 0.929 . S
H431 C425 0.930 . S
C432 C433 1.363 . S
C432 C438 1.379 . S
C432 N440 1.356 . S
C433 C432 1.363 . S
C433 C439 1.363 . S
C434 C435 1.363 . S
C434 C439 1.379 . S
C434 N441 1.356 . S
C435 C434 1.363 . S
C435 C438 1.363 . S
N436 C438 1.356 . S
N436 H448 0.984 . S
N436 H449 0.985 . S
N437 C439 1.356 . S
N437 H442 0.984 . S
N437 H443 0.985 . S
C438 C432 1.379 . S
C438 C435 1.363 . S
C438 N436 1.356 . S
C439 C433 1.363 . S
C439 C434 1.379 . S
C439 N437 1.356 . S
N440 C432 1.356 . S
N440 H446 0.984 . S
N440 H447 0.984 . S
N441 C434 1.356 . S
N441 H444 0.984 . S
N441 H445 0.985 . S
H442 N437 0.984 . S
H443 N437 0.985 . S
H444 N441 0.984 . S
H445 N441 0.985 . S
H446 N440 0.984 . S
H447 N440 0.984 . S
H448 N436 0.984 . S
H449 N436 0.985 . S
C450 C451 1.363 . S
C450 C456 1.379 . S
C450 N458 1.356 . S
C451 C450 1.363 . S
C451 C457 1.363 . S
C452 C453 1.363 . S
C452 C457 1.379 . S
C452 N459 1.356 . S
C453 C452 1.363 . S
C453 C456 1.363 . S
N454 C456 1.356 . S
N454 H466 0.984 . S
N454 H467 0.985 . S
N455 C457 1.356 . S
N455 H460 0.984 . S
N455 H461 0.985 . S
C456 C450 1.379 . S
C456 C453 1.363 . S
C456 N454 1.356 . S
C457 C451 1.363 . S
C457 C452 1.379 . S
C457 N455 1.356 . S
N458 C450 1.356 . S
N458 H464 0.984 . S
N458 H465 0.984 . S
N459 C452 1.356 . S
N459 H462 0.984 . S
N459 H463 0.985 . S
H460 N455 0.984 . S
H461 N455 0.985 . S
H462 N459 0.984 . S
H463 N459 0.985 . S
H464 N458 0.984 . S
H465 N458 0.984 . S
H466 N454 0.984 . S
H467 N454 0.985 . S
C468 C469 1.363 . S
C468 C474 1.379 . S
C468 N476 1.356 . S
C469 C468 1.363 . S
C469 C475 1.363 . S
C470 C471 1.363 . S
C470 C475 1.379 . S
C470 N477 1.356 . S
C471 C470 1.363 . S
C471 C474 1.363 . S
N472 C474 1.356 . S
N472 H484 0.984 . S
N472 H485 0.985 . S
N473 C475 1.356 . S
N473 H478 0.984 . S
N473 H479 0.985 . S
C474 C468 1.379 . S
C474 C471 1.363 . S
C474 N472 1.356 . S
C475 C469 1.363 . S
C475 C470 1.379 . S
C475 N473 1.356 . S
N476 C468 1.356 . S
N476 H482 0.984 . S
N476 H483 0.984 . S
N477 C470 1.356 . S
N477 H480 0.984 . S
N477 H481 0.985 . S
H478 N473 0.984 . S
H479 N473 0.985 . S
H480 N477 0.984 . S
H481 N477 0.985 . S
H482 N476 0.984 . S
H483 N476 0.984 . S
H484 N472 0.984 . S
H485 N472 0.985 . S
C486 C487 1.363 . S
C486 C492 1.379 . S
C486 N494 1.356 . S
C487 C486 1.363 . S
C487 C493 1.363 . S
C488 C489 1.363 . S
C488 C493 1.379 . S
C488 N495 1.356 . S
C489 C488 1.363 . S
C489 C492 1.363 . S
N490 C492 1.356 . S
N490 H502 0.984 1_556 S
N490 H503 0.985 . S
N491 C493 1.356 . S
N491 H496 0.984 . S
N491 H497 0.985 . S
C492 C486 1.379 . S
C492 C489 1.363 . S
C492 N490 1.356 . S
C493 C487 1.363 . S
C493 C488 1.379 . S
C493 N491 1.356 . S
N494 C486 1.356 . S
N494 H500 0.984 . S
N494 H501 0.984 . S
N495 C488 1.356 . S
N495 H498 0.984 . S
N495 H499 0.985 . S
H496 N491 0.984 . S
H497 N491 0.985 . S
H498 N495 0.984 . S
H499 N495 0.985 . S
H500 N494 0.984 . S
H501 N494 0.984 . S
H502 N490 0.984 1_554 S
H503 N490 0.985 . S
C504 C505 1.363 . S
C504 C510 1.379 . S
C504 N512 1.356 1_554 S
C505 C504 1.363 . S
C505 C511 1.363 . S
C506 C507 1.363 . S
C506 C511 1.379 . S
C506 N513 1.356 . S
C507 C506 1.363 . S
C507 C510 1.363 . S
N508 C510 1.356 . S
N508 H520 0.984 . S
N508 H521 0.985 . S
N509 C511 1.356 . S
N509 H514 0.984 . S
N509 H515 0.985 . S
C510 C504 1.379 . S
C510 C507 1.363 . S
C510 N508 1.356 . S
C511 C505 1.363 . S
C511 C506 1.379 . S
C511 N509 1.356 . S
N512 C504 1.356 1_556 S
N512 H518 0.984 . S
N512 H519 0.984 . S
N513 C506 1.356 . S
N513 H516 0.984 . S
N513 H517 0.985 . S
H514 N509 0.984 . S
H515 N509 0.985 . S
H516 N513 0.984 . S
H517 N513 0.985 . S
H518 N512 0.984 . S
H519 N512 0.984 . S
H520 N508 0.984 . S
H521 N508 0.985 . S
C522 C523 1.363 . S
C522 C528 1.379 . S
C522 N530 1.356 . S
C523 C522 1.363 . S
C523 C529 1.363 . S
C524 C525 1.363 . S
C524 C529 1.379 . S
C524 N531 1.356 . S
C525 C524 1.363 . S
C525 C528 1.363 . S
N526 C528 1.356 . S
N526 H538 0.984 . S
N526 H539 0.985 . S
N527 C529 1.356 . S
N527 H532 0.984 . S
N527 H533 0.985 . S
C528 C522 1.379 . S
C528 C525 1.363 . S
C528 N526 1.356 . S
C529 C523 1.363 . S
C529 C524 1.379 . S
C529 N527 1.356 . S
N530 C522 1.356 . S
N530 H536 0.984 . S
N530 H537 0.984 . S
N531 C524 1.356 . S
N531 H534 0.984 . S
N531 H535 0.985 . S
H532 N527 0.984 . S
H533 N527 0.985 . S
H534 N531 0.984 . S
H535 N531 0.985 . S
H536 N530 0.984 . S
H537 N530 0.984 . S
H538 N526 0.984 . S
H539 N526 0.985 . S
C540 C541 1.363 . S
C540 C546 1.379 . S
C540 N548 1.356 . S
C541 C540 1.363 . S
C541 C547 1.363 . S
C542 C543 1.363 . S
C542 C547 1.379 . S
C542 N549 1.356 . S
C543 C542 1.363 . S
C543 C546 1.363 . S
N544 C546 1.356 . S
N544 H556 0.984 . S
N544 H557 0.985 . S
N545 C547 1.356 . S
N545 H550 0.984 . S
N545 H551 0.985 . S
C546 C540 1.379 . S
C546 C543 1.363 . S
C546 N544 1.356 . S
C547 C541 1.363 . S
C547 C542 1.379 . S
C547 N545 1.356 . S
N548 C540 1.356 . S
N548 H554 0.984 . S
N548 H555 0.984 . S
N549 C542 1.356 . S
N549 H552 0.984 . S
N549 H553 0.985 . S
H550 N545 0.984 . S
H551 N545 0.985 . S
H552 N549 0.984 . S
H553 N549 0.985 . S
H554 N548 0.984 . S
H555 N548 0.984 . S
H556 N544 0.984 . S
H557 N544 0.985 . S
C558 C559 1.363 . S
C558 C564 1.379 . S
C558 N566 1.356 . S
C559 C558 1.363 . S
C559 C565 1.363 . S
C560 C561 1.363 . S
C560 C565 1.379 . S
C560 N567 1.356 . S
C561 C560 1.363 . S
C561 C564 1.363 . S
N562 C564 1.356 . S
N562 H574 0.984 . S
N562 H575 0.985 . S
N563 C565 1.356 . S
N563 H568 0.984 . S
N563 H569 0.985 . S
C564 C558 1.379 . S
C564 C561 1.363 . S
C564 N562 1.356 . S
C565 C559 1.363 . S
C565 C560 1.379 . S
C565 N563 1.356 . S
N566 C558 1.356 . S
N566 H572 0.984 . S
N566 H573 0.984 . S
N567 C560 1.356 . S
N567 H570 0.984 . S
N567 H571 0.985 . S
H568 N563 0.984 . S
H569 N563 0.985 . S
H570 N567 0.984 . S
H571 N567 0.985 . S
H572 N566 0.984 . S
H573 N566 0.984 . S
H574 N562 0.984 . S
H575 N562 0.985 . S
C576 C577 1.363 . S
C576 C582 1.379 . S
C576 N584 1.356 . S
C577 C576 1.363 . S
C577 C583 1.363 . S
C578 C579 1.363 . S
C578 C583 1.379 . S
C578 N585 1.356 . S
C579 C578 1.363 . S
C579 C582 1.363 . S
N580 C582 1.356 . S
N580 H592 0.984 . S
N580 H593 0.985 . S
N581 C583 1.356 . S
N581 H586 0.984 1_556 S
N581 H587 0.985 . S
C582 C576 1.379 . S
C582 C579 1.363 . S
C582 N580 1.356 . S
C583 C577 1.363 . S
C583 C578 1.379 . S
C583 N581 1.356 . S
N584 C576 1.356 . S
N584 H590 0.984 . S
N584 H591 0.984 . S
N585 C578 1.356 . S
N585 H588 0.984 . S
N585 H589 0.985 . S
H586 N581 0.984 1_554 S
H587 N581 0.985 . S
H588 N585 0.984 . S
H589 N585 0.985 . S
H590 N584 0.984 . S
H591 N584 0.984 . S
H592 N580 0.984 . S
H593 N580 0.985 . S
C594 C595 1.363 . S
C594 C600 1.379 . S
C594 N602 1.356 . S
C595 C594 1.363 . S
C595 C601 1.363 . S
C596 C597 1.363 . S
C596 C601 1.379 . S
C596 N603 1.356 . S
C597 C596 1.363 . S
C597 C600 1.363 . S
N598 C600 1.356 . S
N598 H610 0.984 . S
N598 H611 0.985 . S
N599 C601 1.356 . S
N599 H604 0.984 . S
N599 H605 0.985 . S
C600 C594 1.379 . S
C600 C597 1.363 . S
C600 N598 1.356 . S
C601 C595 1.363 . S
C601 C596 1.379 . S
C601 N599 1.356 . S
N602 C594 1.356 . S
N602 H608 0.984 . S
N602 H609 0.984 . S
N603 C596 1.356 . S
N603 H606 0.984 1_554 S
N603 H607 0.985 1_554 S
H604 N599 0.984 . S
H605 N599 0.985 . S
H606 N603 0.984 1_556 S
H607 N603 0.985 1_556 S
H608 N602 0.984 . S
H609 N602 0.984 . S
H610 N598 0.984 . S
H611 N598 0.985 . S
C612 C613 1.363 . S
C612 C618 1.379 . S
C612 N620 1.356 . S
C613 C612 1.363 . S
C613 C619 1.363 . S
C614 C615 1.363 . S
C614 C619 1.379 . S
C614 N621 1.356 . S
C615 C614 1.363 . S
C615 C618 1.363 . S
N616 C618 1.356 . S
N616 H628 0.984 . S
N616 H629 0.985 . S
N617 C619 1.356 . S
N617 H622 0.984 . S
N617 H623 0.985 . S
C618 C612 1.379 . S
C618 C615 1.363 . S
C618 N616 1.356 . S
C619 C613 1.363 . S
C619 C614 1.379 . S
C619 N617 1.356 . S
N620 C612 1.356 . S
N620 H626 0.984 . S
N620 H627 0.984 . S
N621 C614 1.356 . S
N621 H624 0.984 . S
N621 H625 0.985 . S
H622 N617 0.984 . S
H623 N617 0.985 . S
H624 N621 0.984 . S
H625 N621 0.985 . S
H626 N620 0.984 . S
H627 N620 0.984 . S
H628 N616 0.984 . S
H629 N616 0.985 . S
C630 C631 1.363 . S
C630 C636 1.379 . S
C630 N638 1.356 . S
C631 C630 1.363 . S
C631 C637 1.363 . S
C632 C633 1.363 . S
C632 C637 1.379 . S
C632 N639 1.356 . S
C633 C632 1.363 . S
C633 C636 1.363 . S
N634 C636 1.356 . S
N634 H646 0.984 . S
N634 H647 0.985 . S
N635 C637 1.356 . S
N635 H640 0.984 . S
N635 H641 0.985 . S
C636 C630 1.379 . S
C636 C633 1.363 . S
C636 N634 1.356 . S
C637 C631 1.363 . S
C637 C632 1.379 . S
C637 N635 1.356 . S
N638 C630 1.356 . S
N638 H644 0.984 . S
N638 H645 0.984 . S
N639 C632 1.356 . S
N639 H642 0.984 . S
N639 H643 0.985 . S
H640 N635 0.984 . S
H641 N635 0.985 . S
H642 N639 0.984 . S
H643 N639 0.985 . S
H644 N638 0.984 . S
H645 N638 0.984 . S
H646 N634 0.984 . S
H647 N634 0.985 . S
C648 C649 1.363 . S
C648 C654 1.379 1_655 S
C648 N656 1.356 . S
C649 C648 1.363 . S
C649 C655 1.363 . S
C650 C651 1.363 . S
C650 C655 1.379 1_455 S
C650 N657 1.356 . S
C651 C650 1.363 . S
C651 C654 1.363 . S
N652 C654 1.356 . S
N652 H664 0.984 . S
N652 H665 0.985 . S
N653 C655 1.356 . S
N653 H658 0.984 . S
N653 H659 0.985 . S
C654 C648 1.379 1_455 S
C654 C651 1.363 . S
C654 N652 1.356 . S
C655 C649 1.363 . S
C655 C650 1.379 1_655 S
C655 N653 1.356 . S
N656 C648 1.356 . S
N656 H662 0.984 . S
N656 H663 0.984 . S
N657 C650 1.356 . S
N657 H660 0.984 . S
N657 H661 0.985 . S
H658 N653 0.984 . S
H659 N653 0.985 . S
H660 N657 0.984 . S
H661 N657 0.985 . S
H662 N656 0.984 . S
H663 N656 0.984 . S
H664 N652 0.984 . S
H665 N652 0.985 . S
C666 C667 1.363 . S
C666 C672 1.379 1_565 S
C666 N674 1.356 . S
C667 C666 1.363 . S
C667 C673 1.363 . S
C668 C669 1.363 . S
C668 C673 1.379 1_545 S
C668 N675 1.356 . S
C669 C668 1.363 . S
C669 C672 1.363 . S
N670 C672 1.356 . S
N670 H682 0.984 . S
N670 H683 0.985 . S
N671 C673 1.356 . S
N671 H676 0.984 . S
N671 H677 0.985 . S
C672 C666 1.379 1_545 S
C672 C669 1.363 . S
C672 N670 1.356 . S
C673 C667 1.363 . S
C673 C668 1.379 1_565 S
C673 N671 1.356 . S
N674 C666 1.356 . S
N674 H680 0.984 . S
N674 H681 0.984 . S
N675 C668 1.356 . S
N675 H678 0.984 . S
N675 H679 0.985 . S
H676 N671 0.984 . S
H677 N671 0.985 . S
H678 N675 0.984 . S
H679 N675 0.985 . S
H680 N674 0.984 . S
H681 N674 0.984 . S
H682 N670 0.984 . S
H683 N670 0.985 . S
C684 C685 1.363 . S
C684 C690 1.379 . S
C684 N692 1.356 . S
C685 C684 1.363 . S
C685 C691 1.363 . S
C686 C687 1.363 . S
C686 C691 1.379 . S
C686 N693 1.356 . S
C687 C686 1.363 . S
C687 C690 1.363 . S
N688 C690 1.356 . S
N688 H700 0.984 . S
N688 H701 0.985 . S
N689 C691 1.356 . S
N689 H694 0.984 . S
N689 H695 0.985 . S
C690 C684 1.379 . S
C690 C687 1.363 . S
C690 N688 1.356 . S
C691 C685 1.363 . S
C691 C686 1.379 . S
C691 N689 1.356 . S
N692 C684 1.356 . S
N692 H698 0.984 . S
N692 H699 0.984 . S
N693 C686 1.356 . S
N693 H696 0.984 . S
N693 H697 0.985 . S
H694 N689 0.984 . S
H695 N689 0.985 . S
H696 N693 0.984 . S
H697 N693 0.985 . S
H698 N692 0.984 . S
H699 N692 0.984 . S
H700 N688 0.984 . S
H701 N688 0.985 . S
C702 C703 1.363 . S
C702 C708 1.379 1_455 S
C702 N710 1.356 . S
C703 C702 1.363 . S
C703 C709 1.363 . S
C704 C705 1.363 . S
C704 C709 1.379 1_655 S
C704 N711 1.356 . S
C705 C704 1.363 . S
C705 C708 1.363 . S
N706 C708 1.356 . S
N706 H718 0.984 . S
N706 H719 0.985 . S
N707 C709 1.356 . S
N707 H712 0.984 . S
N707 H713 0.985 . S
C708 C702 1.379 1_655 S
C708 C705 1.363 . S
C708 N706 1.356 . S
C709 C703 1.363 . S
C709 C704 1.379 1_455 S
C709 N707 1.356 . S
N710 C702 1.356 . S
N710 H716 0.984 . S
N710 H717 0.984 . S
N711 C704 1.356 . S
N711 H714 0.984 . S
N711 H715 0.985 . S
H712 N707 0.984 . S
H713 N707 0.985 . S
H714 N711 0.984 . S
H715 N711 0.985 . S
H716 N710 0.984 . S
H717 N710 0.984 . S
H718 N706 0.984 . S
H719 N706 0.985 . S
C720 C721 1.363 1_554 S
C720 C726 1.379 1_545 S
C720 N728 1.356 . S
C721 C720 1.363 1_556 S
C721 C727 1.363 . S
C722 C723 1.363 1_556 S
C722 C727 1.379 1_565 S
C722 N729 1.356 . S
C723 C722 1.363 1_554 S
C723 C726 1.363 . S
N724 C726 1.356 . S
N724 H736 0.984 . S
N724 H737 0.985 . S
N725 C727 1.356 . S
N725 H730 0.984 . S
N725 H731 0.985 . S
C726 C720 1.379 1_565 S
C726 C723 1.363 . S
C726 N724 1.356 . S
C727 C721 1.363 . S
C727 C722 1.379 1_545 S
C727 N725 1.356 . S
N728 C720 1.356 . S
N728 H734 0.984 . S
N728 H735 0.988 . S
N729 C722 1.356 . S
N729 H732 0.988 . S
N729 H733 0.985 . S
H730 N725 0.984 . S
H731 N725 0.985 . S
H732 N729 0.988 . S
H733 N729 0.985 . S
H734 N728 0.984 . S
H735 N728 0.988 . S
H736 N724 0.984 . S
H737 N724 0.985 . S
C738 C739 1.363 . S
C738 C744 1.379 . S
C738 N746 1.356 . S
C739 C738 1.363 . S
C739 C745 1.363 . S
C740 C741 1.363 . S
C740 C745 1.379 . S
C740 N747 1.356 . S
C741 C740 1.363 . S
C741 C744 1.363 . S
N742 C744 1.356 . S
N742 H754 0.984 . S
N742 H755 0.985 . S
N743 C745 1.356 . S
N743 H748 0.984 . S
N743 H749 0.985 . S
C744 C738 1.379 . S
C744 C741 1.363 . S
C744 N742 1.356 . S
C745 C739 1.363 . S
C745 C740 1.379 . S
C745 N743 1.356 . S
N746 C738 1.356 . S
N746 H752 0.984 . S
N746 H753 0.984 . S
N747 C740 1.356 . S
N747 H750 0.984 . S
N747 H751 0.985 . S
H748 N743 0.984 . S
H749 N743 0.985 . S
H750 N747 0.984 . S
H751 N747 0.985 . S
H752 N746 0.984 . S
H753 N746 0.984 . S
H754 N742 0.984 . S
H755 N742 0.985 . S
C756 C757 1.363 . S
C756 C762 1.379 . S
C756 N764 1.356 . S
C757 C756 1.363 . S
C757 C763 1.363 . S
C758 C759 1.363 . S
C758 C763 1.379 . S
C758 N765 1.356 . S
C759 C758 1.363 . S
C759 C762 1.363 . S
N760 C762 1.356 . S
N760 H772 0.984 . S
N760 H773 0.985 . S
N761 C763 1.356 . S
N761 H766 0.984 . S
N761 H767 0.985 . S
C762 C756 1.379 . S
C762 C759 1.363 . S
C762 N760 1.356 . S
C763 C757 1.363 . S
C763 C758 1.379 . S
C763 N761 1.356 . S
N764 C756 1.356 . S
N764 H770 0.984 . S
N764 H771 0.984 . S
N765 C758 1.356 . S
N765 H768 0.984 . S
N765 H769 0.985 . S
H766 N761 0.984 . S
H767 N761 0.985 . S
H768 N765 0.984 . S
H769 N765 0.985 . S
H770 N764 0.984 . S
H771 N764 0.984 . S
H772 N760 0.984 . S
H773 N760 0.985 . S
C774 C775 1.363 . S
C774 C780 1.379 . S
C774 N782 1.356 . S
C775 C774 1.363 . S
C775 C781 1.363 . S
C776 C777 1.363 . S
C776 C781 1.379 . S
C776 N783 1.356 . S
C777 C776 1.363 . S
C777 C780 1.363 . S
N778 C780 1.356 . S
N778 H790 0.984 . S
N778 H791 0.985 . S
N779 C781 1.356 . S
N779 H784 0.984 . S
N779 H785 0.985 . S
C780 C774 1.379 . S
C780 C777 1.363 . S
C780 N778 1.356 . S
C781 C775 1.363 . S
C781 C776 1.379 . S
C781 N779 1.356 . S
N782 C774 1.356 . S
N782 H788 0.984 . S
N782 H789 0.984 . S
N783 C776 1.356 . S
N783 H786 0.984 . S
N783 H787 0.985 . S
H784 N779 0.984 . S
H785 N779 0.985 . S
H786 N783 0.984 . S
H787 N783 0.985 . S
H788 N782 0.984 . S
H789 N782 0.984 . S
H790 N778 0.984 . S
H791 N778 0.985 . S
C792 C793 1.363 . S
C792 C798 1.379 . S
C792 N800 1.356 . S
C793 C792 1.363 . S
C793 C799 1.363 . S
C794 C795 1.363 . S
C794 C799 1.379 . S
C794 N801 1.356 . S
C795 C794 1.363 . S
C795 C798 1.363 . S
N796 C798 1.356 . S
N796 H808 0.984 . S
N796 H809 0.985 . S
N797 C799 1.356 . S
N797 H802 0.984 . S
N797 H803 0.985 . S
C798 C792 1.379 . S
C798 C795 1.363 . S
C798 N796 1.356 . S
C799 C793 1.363 . S
C799 C794 1.379 . S
C799 N797 1.356 . S
N800 C792 1.356 . S
N800 H806 0.984 . S
N800 H807 0.984 . S
N801 C794 1.356 . S
N801 H804 0.984 . S
N801 H805 0.985 . S
H802 N797 0.984 . S
H803 N797 0.985 . S
H804 N801 0.984 . S
H805 N801 0.985 . S
H806 N800 0.984 . S
H807 N800 0.984 . S
H808 N796 0.984 . S
H809 N796 0.985 . S
C810 C811 1.363 . S
C810 C816 1.379 . S
C810 N818 1.356 . S
C811 C810 1.363 . S
C811 C817 1.363 . S
C812 C813 1.363 . S
C812 C817 1.379 . S
C812 N819 1.356 . S
C813 C812 1.363 . S
C813 C816 1.363 . S
N814 C816 1.356 . S
N814 H826 0.984 . S
N814 H827 0.985 . S
N815 C817 1.356 . S
N815 H820 0.984 . S
N815 H821 0.985 . S
C816 C810 1.379 . S
C816 C813 1.363 . S
C816 N814 1.356 . S
C817 C811 1.363 . S
C817 C812 1.379 . S
C817 N815 1.356 . S
N818 C810 1.356 . S
N818 H824 0.984 . S
N818 H825 0.984 . S
N819 C812 1.356 . S
N819 H822 0.984 . S
N819 H823 0.985 . S
H820 N815 0.984 . S
H821 N815 0.985 . S
H822 N819 0.984 . S
H823 N819 0.985 . S
H824 N818 0.984 . S
H825 N818 0.984 . S
H826 N814 0.984 . S
H827 N814 0.985 . S
C828 C829 1.363 . S
C828 C834 1.379 . S
C828 N836 1.356 . S
C829 C828 1.363 . S
C829 C835 1.363 . S
C830 C831 1.363 . S
C830 C835 1.379 . S
C830 N837 1.356 . S
C831 C830 1.363 . S
C831 C834 1.363 . S
N832 C834 1.356 . S
N832 H844 0.984 . S
N832 H845 0.985 . S
N833 C835 1.356 . S
N833 H838 0.984 . S
N833 H839 0.985 . S
C834 C828 1.379 . S
C834 C831 1.363 . S
C834 N832 1.356 . S
C835 C829 1.363 . S
C835 C830 1.379 . S
C835 N833 1.356 . S
N836 C828 1.356 . S
N836 H842 0.984 . S
N836 H843 0.984 1_556 S
N837 C830 1.356 . S
N837 H840 0.984 . S
N837 H841 0.985 . S
H838 N833 0.984 . S
H839 N833 0.985 . S
H840 N837 0.984 . S
H841 N837 0.985 . S
H842 N836 0.984 . S
H843 N836 0.984 1_554 S
H844 N832 0.984 . S
H845 N832 0.985 . S
C846 C847 1.363 . S
C846 C852 1.379 . S
C846 N854 1.356 . S
C847 C846 1.363 . S
C847 C853 1.363 . S
C848 C849 1.363 . S
C848 C853 1.379 . S
C848 N855 1.356 1_554 S
C849 C848 1.363 . S
C849 C852 1.363 . S
N850 C852 1.356 . S
N850 H862 0.984 . S
N850 H863 0.985 . S
N851 C853 1.356 . S
N851 H856 0.984 . S
N851 H857 0.985 . S
C852 C846 1.379 . S
C852 C849 1.363 . S
C852 N850 1.356 . S
C853 C847 1.363 . S
C853 C848 1.379 . S
C853 N851 1.356 . S
N854 C846 1.356 . S
N854 H860 0.984 . S
N854 H861 0.984 . S
N855 C848 1.356 1_556 S
N855 H858 0.984 . S
N855 H859 0.985 . S
H856 N851 0.984 . S
H857 N851 0.985 . S
H858 N855 0.984 . S
H859 N855 0.985 . S
H860 N854 0.984 . S
H861 N854 0.984 . S
H862 N850 0.984 . S
H863 N850 0.985 . S
C433 C2 0.863 . S
C435 C218 0.863 . S
C451 C38 0.863 . S
C453 C254 0.863 . S
C469 C290 0.863 . S
C471 C74 0.863 . S
C487 C110 0.863 . S
C489 C326 0.863 . S
C505 C146 0.863 . S
C507 C362 0.863 . S
C523 C398 0.863 . S
C525 C182 0.863 . S
C541 C292 1.486 . S
C543 C4 1.486 . S
C559 C40 1.486 . S
C561 C328 1.486 . S
C577 C364 1.486 1_556 S
C579 C76 1.486 . S
C595 C400 1.486 . S
C597 C112 1.486 1_554 S
C613 C148 1.486 . S
C615 C220 1.486 . S
C631 C184 1.486 . S
C633 C256 1.486 . S
C649 C410 1.286 . S
C651 C14 1.286 . S
C667 C230 1.286 . S
C669 C50 1.286 . S
C685 C86 1.285 . S
C687 C266 1.285 . S
C703 C302 1.286 . S
C705 C122 1.286 . S
C721 C338 1.286 . S
C723 C158 1.286 . S
C739 C374 1.285 . S
C741 C194 1.285 . S
C757 C3 1.604 . S
C759 C363 1.604 . S
C775 C399 1.604 . S
C777 C39 1.604 . S
C793 C75 1.604 . S
C795 C219 1.604 . S
C811 C111 1.604 . S
C813 C255 1.604 . S
C829 C147 1.604 . S
C831 C291 1.604 . S
C847 C183 1.604 . S
C849 C327 1.604 . S
