# Generated by pormake.
# Topology ske, (6)-cn, num edge types: 1
# Building blocks:
#     Node 0, Type 0, BuildingBlock: JUFBIX_clean_sbu_0, # of connection points: 6
#     Node 1, Type 0, BuildingBlock: JUFBIX_clean_sbu_0, # of connection points: 6
#     Node 2, Type 0, BuildingBlock: JUFBIX_clean_sbu_0, # of connection points: 6
#     Node 3, Type 0, BuildingBlock: JUFBIX_clean_sbu_0, # of connection points: 6
#     Node 4, Type 0, BuildingBlock: JUFBIX_clean_sbu_0, # of connection points: 6
#     Node 5, Type 0, BuildingBlock: JUFBIX_clean_sbu_0, # of connection points: 6
#     Node 6, Type 0, BuildingBlock: JUFBIX_clean_sbu_0, # of connection points: 6
#     Node 7, Type 0, BuildingBlock: JUFBIX_clean_sbu_0, # of connection points: 6
#     Edge 8, Type (0, 0), BuildingBlock: XUDNAN_clean_linker_2, # of connection points: 2
#     Edge 9, Type (0, 0), BuildingBlock: XUDNAN_clean_linker_2, # of connection points: 2
#     Edge 10, Type (0, 0), BuildingBlock: XUDNAN_clean_linker_2, # of connection points: 2
#     Edge 11, Type (0, 0), BuildingBlock: XUDNAN_clean_linker_2, # of connection points: 2
#     Edge 12, Type (0, 0), BuildingBlock: XUDNAN_clean_linker_2, # of connection points: 2
#     Edge 13, Type (0, 0), BuildingBlock: XUDNAN_clean_linker_2, # of connection points: 2
#     Edge 14, Type (0, 0), BuildingBlock: XUDNAN_clean_linker_2, # of connection points: 2
#     Edge 15, Type (0, 0), BuildingBlock: XUDNAN_clean_linker_2, # of connection points: 2
#     Edge 16, Type (0, 0), BuildingBlock: XUDNAN_clean_linker_2, # of connection points: 2
#     Edge 17, Type (0, 0), BuildingBlock: XUDNAN_clean_linker_2, # of connection points: 2
#     Edge 18, Type (0, 0), BuildingBlock: XUDNAN_clean_linker_2, # of connection points: 2
#     Edge 19, Type (0, 0), BuildingBlock: XUDNAN_clean_linker_2, # of connection points: 2
#     Edge 20, Type (0, 0), BuildingBlock: XUDNAN_clean_linker_2, # of connection points: 2
#     Edge 21, Type (0, 0), BuildingBlock: XUDNAN_clean_linker_2, # of connection points: 2
#     Edge 22, Type (0, 0), BuildingBlock: XUDNAN_clean_linker_2, # of connection points: 2
#     Edge 23, Type (0, 0), BuildingBlock: XUDNAN_clean_linker_2, # of connection points: 2
#     Edge 24, Type (0, 0), BuildingBlock: XUDNAN_clean_linker_2, # of connection points: 2
#     Edge 25, Type (0, 0), BuildingBlock: XUDNAN_clean_linker_2, # of connection points: 2
#     Edge 26, Type (0, 0), BuildingBlock: XUDNAN_clean_linker_2, # of connection points: 2
#     Edge 27, Type (0, 0), BuildingBlock: XUDNAN_clean_linker_2, # of connection points: 2
#     Edge 28, Type (0, 0), BuildingBlock: XUDNAN_clean_linker_2, # of connection points: 2
#     Edge 29, Type (0, 0), BuildingBlock: XUDNAN_clean_linker_2, # of connection points: 2
#     Edge 30, Type (0, 0), BuildingBlock: XUDNAN_clean_linker_2, # of connection points: 2
#     Edge 31, Type (0, 0), BuildingBlock: XUDNAN_clean_linker_2, # of connection points: 2
# Relax obj value: 0.262
# Max RMSD: 0.149
# Mean RMSD: 0.140
data_MOF--net-ske--node1-JUFBIX_clean_sbu_0--edge1-XUDNAN_clean_linker_2
_symmetry_space_group_name_H-M    P1
_symmetry_Int_Tables_number       1
_symmetry_cell_setting            triclinic
loop_
_symmetry_equiv_pos_as_xyz
'x, y, z'
_cell_length_a     67.113031
_cell_length_b     29.104624
_cell_length_c     15.469714
_cell_angle_alpha  89.91302
_cell_angle_beta   92.457124
_cell_angle_gamma 92.553803
loop_
_atom_site_label
_atom_site_type_symbol
_atom_site_fract_x
_atom_site_fract_y
_atom_site_fract_z
_atom_type_partial_charge
Co0 Co 0.16423 0.2488 0.75145 0.0
C1 C 0.16463 0.33549 0.67001 0.0
Co2 Co 0.16557 0.24699 0.61049 0.0
C3 C 0.17947 0.23506 0.91669 0.0
C4 C 0.15907 0.28946 0.91662 0.0
N5 N 0.16439 0.25322 0.87005 0.0
N6 N 0.18552 0.26154 0.98453 0.0
C7 C 0.17219 0.29483 0.98716 0.0
H8 H 0.1882 0.20798 0.89204 0.0
H9 H 0.14857 0.31443 0.89412 0.0
C10 C 0.16389 0.16015 0.68956 0.0
N11 N 0.16751 0.24246 0.4927 0.0
C12 C 0.18345 0.26263 0.45575 0.0
C13 C 0.16266 0.20478 0.44419 0.0
N14 N 0.19021 0.23639 0.39332 0.0
C15 C 0.17685 0.20064 0.38339 0.0
C16 C 0.20356 0.25133 0.69482 0.0
O17 O 0.16385 0.18287 0.7596 0.0
O18 O 0.16495 0.18174 0.61874 0.0
O19 O 0.19455 0.24818 0.62154 0.0
O20 O 0.19305 0.25278 0.7602 0.0
O21 O 0.16604 0.31231 0.60144 0.0
H22 H 0.15162 0.17831 0.46041 0.0
H23 H 0.19208 0.29152 0.48434 0.0
O24 O 0.16385 0.3145 0.74195 0.0
O25 O 0.13606 0.24529 0.74338 0.0
O26 O 0.13648 0.24536 0.6012 0.0
C27 C 0.12661 0.2442 0.67022 0.0
H28 H 0.17296 0.32361 1.03154 0.0
H29 H 0.17825 0.17155 0.34089 0.0
Co30 Co 0.92079 0.27509 0.58068 0.0
C31 C 0.90048 0.35595 0.58933 0.0
Co32 Co 0.8878 0.26438 0.57861 0.0
C33 C 0.9642 0.26194 0.61285 0.0
C34 C 0.95724 0.31789 0.52874 0.0
N35 N 0.94863 0.28474 0.57752 0.0
N36 N 0.98209 0.27959 0.58718 0.0
C37 C 0.9776 0.31491 0.53457 0.0
H38 H 0.9624 0.23233 0.65467 0.0
H39 H 0.94917 0.3425 0.49003 0.0
C40 C 0.90727 0.18335 0.56776 0.0
N41 N 0.85995 0.25712 0.58021 0.0
C42 C 0.84856 0.23722 0.64143 0.0
C43 C 0.84699 0.28005 0.52895 0.0
N44 N 0.82919 0.24786 0.63132 0.0
C45 C 0.82816 0.27469 0.56049 0.0
C46 C 0.90233 0.27273 0.40799 0.0
O47 O 0.923 0.2097 0.57252 0.0
O48 O 0.89024 0.20045 0.57212 0.0
O49 O 0.88668 0.26718 0.45196 0.0
O50 O 0.91908 0.27774 0.45054 0.0
O51 O 0.88539 0.32826 0.58562 0.0
H52 H 0.85119 0.30203 0.47568 0.0
H53 H 0.85455 0.21827 0.69615 0.0
O54 O 0.91787 0.34051 0.58712 0.0
O55 O 0.92183 0.27211 0.71271 0.0
O56 O 0.88938 0.26174 0.70319 0.0
C57 C 0.90526 0.2664 0.7512 0.0
H58 H 0.98827 0.33744 0.50287 0.0
H59 H 0.81489 0.29097 0.53569 0.0
Co60 Co 0.15857 0.75135 0.52831 0.0
C61 C 0.13925 0.83526 0.53244 0.0
Co62 Co 0.12541 0.74526 0.52549 0.0
C63 C 0.19967 0.75392 0.47036 0.0
C64 C 0.19752 0.78121 0.59784 0.0
N65 N 0.1865 0.76041 0.53301 0.0
N66 N 0.21831 0.77056 0.49323 0.0
C67 C 0.21694 0.78743 0.57376 0.0
H68 H 0.19552 0.73964 0.40727 0.0
H69 H 0.19167 0.7932 0.65741 0.0
C70 C 0.14493 0.66132 0.53228 0.0
N71 N 0.09744 0.73563 0.51523 0.0
C72 C 0.08183 0.75731 0.54745 0.0
C73 C 0.08879 0.70278 0.46284 0.0
N74 N 0.06392 0.73924 0.5161 0.0
C75 C 0.06845 0.70481 0.46337 0.0
C76 C 0.14163 0.74878 0.35535 0.0
O77 O 0.16097 0.68613 0.52923 0.0
O78 O 0.12824 0.68043 0.52833 0.0
O79 O 0.12595 0.74579 0.3993 0.0
O80 O 0.15839 0.7519 0.39805 0.0
O81 O 0.12322 0.81008 0.52742 0.0
H82 H 0.09682 0.67907 0.42506 0.0
H83 H 0.08357 0.78644 0.59096 0.0
O84 O 0.15602 0.81662 0.52987 0.0
O85 O 0.15771 0.75049 0.66009 0.0
O86 O 0.12503 0.74489 0.64995 0.0
C87 C 0.141 0.74756 0.69813 0.0
H88 H 0.22902 0.8044 0.6118 0.0
H89 H 0.05779 0.68233 0.4276 0.0
Co90 Co 0.87868 0.77886 0.56304 0.0
C91 C 0.88329 0.85538 0.45658 0.0
Co92 Co 0.88298 0.76179 0.42739 0.0
C93 C 0.85766 0.78019 0.71266 0.0
C94 C 0.8783 0.83812 0.71028 0.0
N95 N 0.8742 0.79635 0.67463 0.0
N96 N 0.84998 0.81168 0.76379 0.0
C97 C 0.86339 0.84772 0.76498 0.0
H98 H 0.85021 0.74782 0.69429 0.0
H99 H 0.88978 0.86247 0.68949 0.0
C100 C 0.8795 0.68581 0.5374 0.0
N101 N 0.88488 0.7455 0.31266 0.0
C102 C 0.87247 0.76617 0.25605 0.0
C103 C 0.8867 0.70304 0.27984 0.0
N104 N 0.8645 0.73723 0.19502 0.0
C105 C 0.87405 0.69777 0.20752 0.0
C106 C 0.91884 0.77265 0.5231 0.0
O107 O 0.87785 0.71593 0.59558 0.0
O108 O 0.8813 0.69852 0.45951 0.0
O109 O 0.91121 0.76234 0.44824 0.0
O110 O 0.90728 0.78177 0.58382 0.0
O111 O 0.88554 0.82623 0.3973 0.0
H112 H 0.89408 0.67544 0.31323 0.0
H113 H 0.8663 0.79869 0.27062 0.0
O114 O 0.87955 0.84114 0.53147 0.0
O115 O 0.85028 0.77606 0.54123 0.0
O116 O 0.85389 0.76059 0.40659 0.0
C117 C 0.84235 0.76741 0.46733 0.0
H118 H 0.86207 0.88 0.79825 0.0
H119 H 0.87071 0.66586 0.17305 0.0
Co120 Co 0.65668 0.74387 0.27476 0.0
C121 C 0.6641 0.83112 0.20699 0.0
Co122 Co 0.66972 0.74253 0.14668 0.0
C123 C 0.65384 0.77993 0.43792 0.0
C124 C 0.62588 0.747 0.39939 0.0
N125 N 0.64551 0.74845 0.38229 0.0
N126 N 0.64021 0.80181 0.48173 0.0
C127 C 0.62258 0.78005 0.46059 0.0
H128 H 0.66937 0.79135 0.43683 0.0
H129 H 0.6143 0.72828 0.3614 0.0
C130 C 0.66054 0.65579 0.21074 0.0
N131 N 0.68103 0.74534 1.0389 0.0
C132 C 0.67276 0.77313 0.97927 0.0
C133 C 0.70072 0.74808 1.02343 0.0
N134 N 0.68642 0.79721 0.93416 0.0
C135 C 0.70409 0.78022 0.95943 0.0
C136 C 0.69854 0.74405 0.28399 0.0
O137 O 0.65411 0.6785 0.27368 0.0
O138 O 0.66923 0.67705 0.14961 0.0
O139 O 0.69612 0.74561 0.20221 0.0
O140 O 0.68308 0.7416 0.32884 0.0
O141 O 0.66979 0.80878 0.14333 0.0
H142 H 0.71227 0.73304 1.06374 0.0
H143 H 0.65717 0.78027 0.97804 0.0
O144 O 0.65869 0.809 0.27279 0.0
O145 O 0.63088 0.74633 0.22148 0.0
O146 O 0.64264 0.73867 0.09314 0.0
C147 C 0.62778 0.74244 0.1407 0.0
H148 H 0.6082 0.79025 0.48099 0.0
H149 H 0.71857 0.79298 0.93964 0.0
Co150 Co 0.4225 0.77157 1.05752 0.0
C151 C 0.39988 0.85016 1.06354 0.0
Co152 Co 0.3896 0.75738 1.0558 0.0
C153 C 0.46639 0.75887 0.07261 0.0
C154 C 0.45857 0.82534 1.02706 0.0
N155 N 0.4504 0.78493 1.05452 0.0
N156 N 0.48402 0.78194 1.0587 0.0
C157 C 0.479 0.82373 1.03025 0.0
H158 H 0.46516 0.72369 0.09521 0.0
H159 H 0.45029 0.85419 1.00372 0.0
C160 C 0.41109 0.67851 1.04576 0.0
N161 N 0.36197 0.74571 1.06131 0.0
C162 C 0.35042 0.76485 0.11983 0.0
C163 C 0.34947 0.71581 1.01701 0.0
N164 N 0.33125 0.74821 0.11473 0.0
C165 C 0.33062 0.71721 1.04972 0.0
C166 C 0.40375 0.76689 0.88518 0.0
O167 O 0.42632 0.70643 1.05011 0.0
O168 O 0.39375 0.69397 1.05019 0.0
O169 O 0.38812 0.75975 0.92917 0.0
O170 O 0.42048 0.77372 0.92757 0.0
O171 O 0.38542 0.82069 1.06099 0.0
H172 H 0.35386 0.69375 0.96558 0.0
H173 H 0.35627 0.7896 0.16754 0.0
O174 O 0.41763 0.83661 1.06271 0.0
O175 O 0.42381 0.76911 0.18969 0.0
O176 O 0.3916 0.75504 0.18036 0.0
C177 C 0.40738 0.76151 0.22832 0.0
H178 H 0.48937 0.85084 1.01021 0.0
H179 H 0.31754 0.69682 1.02737 0.0
Co180 Co 0.65802 0.24626 1.05622 0.0
C181 C 0.63811 0.32952 1.05596 0.0
Co182 Co 0.62497 0.2392 1.05306 0.0
C183 C 0.69847 0.23415 1.00742 0.0
C184 C 0.69691 0.28972 0.09705 0.0
N185 N 0.68571 0.25553 1.05775 0.0
N186 N 0.71704 0.25411 1.01263 0.0
C187 C 0.71612 0.28917 0.06882 0.0
H188 H 0.69394 0.20633 0.96345 0.0
H189 H 0.69123 0.31492 0.13988 0.0
C190 C 0.6449 0.15602 1.06255 0.0
N191 N 0.5971 0.22861 1.0455 0.0
C192 C 0.58145 0.25147 0.07451 0.0
C193 C 0.58852 0.19322 0.99919 0.0
N194 N 0.5636 0.23155 1.04708 0.0
C195 C 0.56821 0.19474 1.00046 0.0
C196 C 0.64081 0.24177 0.88305 0.0
O197 O 0.66079 0.18117 1.05916 0.0
O198 O 0.62815 0.17469 1.05841 0.0
O199 O 0.62512 0.2383 0.92686 0.0
O200 O 0.65755 0.24572 0.92586 0.0
O201 O 0.6223 0.30367 1.05178 0.0
H202 H 0.59655 0.16819 0.96455 0.0
H203 H 0.58311 0.28281 0.11222 0.0
O204 O 0.65503 0.31144 1.05537 0.0
O205 O 0.65775 0.24669 0.18787 0.0
O206 O 0.62506 0.24024 0.17767 0.0
C207 C 0.64102 0.24349 0.22587 0.0
H208 H 0.72833 0.31342 0.08622 0.0
H209 H 0.5576 0.17057 0.96856 0.0
Co210 Co 0.37709 0.2727 1.00406 0.0
C211 C 0.38789 0.35123 0.91276 0.0
Co212 Co 0.38903 0.25759 0.87855 0.0
C213 C 0.37859 0.27188 0.18024 0.0
C214 C 0.36129 0.32755 0.13601 0.0
N215 N 0.36782 0.28661 0.11163 0.0
N216 N 0.38213 0.30486 0.24074 0.0
C217 C 0.37026 0.33911 0.21517 0.0
H218 H 0.38711 0.24152 0.1758 0.0
H219 H 0.3538 0.35122 0.09301 0.0
C220 C 0.37948 0.17935 0.97421 0.0
N221 N 0.40014 0.24441 0.77632 0.0
C222 C 0.41742 0.26465 0.75177 0.0
C223 C 0.39625 0.20937 0.7207 0.0
N224 N 0.42475 0.24384 0.6833 0.0
C225 C 0.41128 0.20916 0.66286 0.0
C226 C 0.41906 0.26619 1.00605 0.0
O227 O 0.37472 0.20872 1.02937 0.0
O228 O 0.38548 0.19324 0.90152 0.0
O229 O 0.41465 0.25597 0.92852 0.0
O230 O 0.40496 0.27611 1.05384 0.0
O231 O 0.3933 0.32286 0.85695 0.0
H232 H 0.38359 0.18514 0.72318 0.0
H233 H 0.42473 0.29379 0.78523 0.0
O234 O 0.37959 0.33585 0.9793 0.0
O235 O 0.35026 0.26993 0.95325 0.0
O236 O 0.36266 0.25864 0.82606 0.0
C237 C 0.34752 0.26391 0.87174 0.0
H238 H 0.37011 0.37278 0.24446 0.0
H239 H 0.41175 0.18625 0.60806 0.0
H240 H 0.22725 0.25015 0.84528 0.0
H241 H 0.23043 0.25728 0.56586 0.0
H242 H 0.26729 0.26171 0.58106 0.0
H243 H 0.26861 0.32799 0.90038 0.0
H244 H 0.27718 0.29502 0.99238 0.0
H245 H 0.25116 0.2921 0.95839 0.0
H246 H 0.25199 0.20229 0.94186 0.0
H247 H 0.27767 0.20708 0.98127 0.0
H248 H 0.27114 0.17896 0.87955 0.0
H249 H 0.30399 0.2648 0.62672 0.0
H250 H 0.33756 0.2668 0.69847 0.0
H251 H 0.31089 0.25857 0.94909 0.0
C252 C 0.23568 0.2527 0.7872 0.0
C253 C 0.22583 0.25351 0.7042 0.0
C254 C 0.23752 0.25659 0.63006 0.0
C255 C 0.25851 0.25916 0.6381 0.0
C256 C 0.26772 0.2584 0.72074 0.0
C257 C 0.25668 0.25504 0.794 0.0
C258 C 0.27028 0.25417 0.87517 0.0
C259 C 0.26659 0.29475 0.93511 0.0
C260 C 0.26762 0.20791 0.92234 0.0
C261 C 0.2907 0.25895 0.83639 0.0
C262 C 0.28885 0.26071 0.74709 0.0
C263 C 0.30558 0.2636 0.69659 0.0
C264 C 0.32464 0.26464 0.73812 0.0
C265 C 0.32702 0.2631 0.82965 0.0
C266 C 0.30969 0.26029 0.87915 0.0
H267 H 0.73983 0.31451 0.92217 0.0
H268 H 0.73131 0.17022 0.98483 0.0
H269 H 0.76008 0.15232 0.89665 0.0
H270 H 0.75135 0.2959 0.70015 0.0
H271 H 0.76922 0.34391 0.69701 0.0
H272 H 0.74882 0.34513 0.76877 0.0
H273 H 0.77389 0.35959 0.89903 0.0
H274 H 0.79438 0.35839 0.82767 0.0
H275 H 0.79356 0.32024 0.91947 0.0
H276 H 0.79106 0.15154 0.8054 0.0
H277 H 0.81874 0.16655 0.70583 0.0
H278 H 0.80466 0.31013 0.69312 0.0
C279 C 0.74419 0.27925 0.91775 0.0
C280 C 0.73364 0.24371 0.96107 0.0
C281 C 0.73935 0.1978 0.95228 0.0
C282 C 0.75567 0.18745 0.90266 0.0
C283 C 0.76585 0.22336 0.8608 0.0
C284 C 0.76009 0.26826 0.86677 0.0
C285 C 0.77268 0.30023 0.81166 0.0
C286 C 0.75975 0.3226 0.74016 0.0
C287 C 0.78432 0.33677 0.86783 0.0
C288 C 0.78656 0.26651 0.77424 0.0
C289 C 0.78263 0.22241 0.80425 0.0
C290 C 0.79409 0.18586 0.78084 0.0
C291 C 0.80979 0.1946 0.72466 0.0
C292 C 0.81358 0.23924 0.69119 0.0
C293 C 0.80181 0.27552 0.7167 0.0
H294 H 0.29657 0.69791 0.14638 0.0
H295 H 0.32933 0.8265 0.20938 0.0
H296 H 0.30369 0.84569 0.31013 0.0
H297 H 0.2467 0.74483 0.15409 0.0
H298 H 0.2357 0.69349 0.20092 0.0
H299 H 0.25645 0.68958 0.13149 0.0
H300 H 0.27612 0.64701 0.25242 0.0
H301 H 0.25547 0.65091 0.32229 0.0
H302 H 0.27994 0.67328 0.35765 0.0
H303 H 0.27561 0.85028 0.40892 0.0
H304 H 0.24586 0.84127 0.49607 0.0
H305 H 0.22974 0.71144 0.36847 0.0
C306 C 0.29827 0.73038 0.18036 0.0
C307 C 0.31532 0.76032 0.16997 0.0
C308 C 0.31683 0.8023 0.21686 0.0
C309 C 0.30219 0.8138 0.27408 0.0
C310 C 0.28585 0.78333 0.28369 0.0
C311 C 0.28364 0.74267 0.23773 0.0
C312 C 0.26458 0.71603 0.26133 0.0
C313 C 0.24999 0.71067 0.18224 0.0
C314 C 0.26932 0.66902 0.30077 0.0
C315 C 0.25666 0.74786 0.32852 0.0
C316 C 0.26924 0.78644 0.34013 0.0
C317 C 0.2656 0.8203 0.40017 0.0
C318 C 0.2487 0.81469 0.44994 0.0
C319 C 0.23546 0.77555 0.43971 0.0
C320 C 0.23947 0.74188 0.37735 0.0
H321 H 0.7353 0.74267 0.20799 0.0
H322 H 0.70832 0.75137 0.45724 0.0
H323 H 0.74182 0.75772 0.52935 0.0
H324 H 0.77709 0.67448 0.28026 0.0
H325 H 0.7947 0.70403 0.21249 0.0
H326 H 0.76863 0.6995 0.17924 0.0
H327 H 0.76849 0.78738 0.16381 0.0
H328 H 0.79434 0.79322 0.2003 0.0
H329 H 0.77585 0.82357 0.25532 0.0
H330 H 0.77822 0.76558 0.57501 0.0
H331 H 0.81488 0.77167 0.59175 0.0
H332 H 0.81918 0.75623 0.31409 0.0
C333 C 0.73642 0.74563 0.27779 0.0
C334 C 0.719 0.7464 0.32676 0.0
C335 C 0.72128 0.7505 0.41802 0.0
C336 C 0.74032 0.75419 0.45972 0.0
C337 C 0.75711 0.75348 0.4097 0.0
C338 C 0.75539 0.749 0.32079 0.0
C339 C 0.77594 0.74963 0.28256 0.0
C340 C 0.77928 0.7042 0.23588 0.0
C341 C 0.77879 0.79093 0.22183 0.0
C342 C 0.78946 0.75509 0.36375 0.0
C343 C 0.77821 0.75746 0.43626 0.0
C344 C 0.78715 0.7635 0.51865 0.0
C345 C 0.80808 0.76701 0.52744 0.0
C346 C 0.82009 0.76429 0.45446 0.0
C347 C 0.81052 0.75824 0.37136 0.0
H348 H 0.16446 0.90763 0.4863 0.0
H349 H 0.11344 0.87252 0.64005 0.0
H350 H 0.11578 0.9503 0.70453 0.0
H351 H 0.19219 0.97767 0.63963 0.0
H352 H 0.20048 0.02044 0.56314 0.0
H353 H 0.19494 0.96208 0.52816 0.0
H354 H 0.16961 0.99017 0.41069 0.0
H355 H 0.1754 0.04868 0.44412 0.0
H356 H 0.14992 0.02617 0.44151 0.0
H357 H 0.12573 0.02954 0.76254 0.0
H358 H 0.13772 0.11043 0.78628 0.0
H359 H 0.17981 0.09727 0.58387 0.0
C360 C 0.15359 0.91671 0.53239 0.0
C361 C 0.13872 0.88416 0.55804 0.0
C362 C 0.12477 0.89714 0.61865 0.0
C363 C 0.12613 0.94106 0.65638 0.0
C364 C 0.14126 0.97202 0.63141 0.0
C365 C 0.15434 0.96097 0.56877 0.0
C366 C 0.16855 1.00148 0.55038 0.0
C367 C 0.19033 0.98969 0.57161 0.0
C368 C 0.16569 0.01758 0.45609 0.0
C369 C 0.16159 0.03674 0.61324 0.0
C370 C 0.14612 0.01869 0.66077 0.0
C371 C 0.13768 0.0442 0.72502 0.0
C372 C 0.14473 0.08991 0.7388 0.0
C373 C 0.15972 0.10987 0.68727 0.0
C374 C 0.16839 0.08269 0.62444 0.0
H375 H 0.91445 0.42825 0.49174 0.0
H376 H 0.87854 0.39336 0.71061 0.0
H377 H 0.87019 0.47482 0.725 0.0
H378 H 0.93286 0.54319 0.56482 0.0
H379 H 0.93064 0.56772 0.45797 0.0
H380 H 0.93559 0.5077 0.47101 0.0
H381 H 0.90455 0.48601 0.3716 0.0
H382 H 0.89939 0.54588 0.35895 0.0
H383 H 0.88053 0.50606 0.39824 0.0
H384 H 0.86536 0.55953 0.71444 0.0
H385 H 0.86277 0.64147 0.67408 0.0
H386 H 0.89923 0.62009 0.45398 0.0
C387 C 0.90522 0.43821 0.54371 0.0
C388 C 0.8974 0.40513 0.60123 0.0
C389 C 0.88481 0.41866 0.66676 0.0
C390 C 0.88001 0.46471 0.67539 0.0
C391 C 0.88764 0.49659 0.61685 0.0
C392 C 0.89986 0.48399 0.55185 0.0
C393 C 0.90473 0.52443 0.49344 0.0
C394 C 0.9273 0.53647 0.49707 0.0
C395 C 0.89682 0.51501 0.40004 0.0
C396 C 0.89329 0.5615 0.53558 0.0
C397 C 0.88379 0.54489 0.60743 0.0
C398 C 0.87266 0.57294 0.65807 0.0
C399 C 0.87125 0.61932 0.63473 0.0
C400 C 0.88058 0.63679 0.56051 0.0
C401 C 0.89167 0.60738 0.5103 0.0
H402 H 0.86503 0.92436 0.53403 0.0
H403 H 0.91181 0.89774 0.35862 0.0
H404 H 0.92386 0.97947 0.37005 0.0
H405 H 0.85537 0.04182 0.45497 0.0
H406 H 0.85049 0.06144 0.56217 0.0
H407 H 0.84492 1.00229 0.53252 0.0
H408 H 0.86693 0.97659 0.66412 0.0
H409 H 0.87304 0.03562 0.69277 0.0
H410 H 0.89268 0.99697 0.67445 0.0
H411 H 0.93313 0.06224 0.41702 0.0
H412 H 0.93503 0.14221 0.47279 0.0
H413 H 0.88108 0.11391 0.61163 0.0
C414 C 0.87744 0.93612 0.49592 0.0
C415 C 0.88743 0.90508 0.44486 0.0
C416 C 0.90376 0.92133 0.39678 0.0
C417 C 0.91083 0.96749 0.4038 0.0
C418 C 0.90114 0.9968 0.458 0.0
C419 C 0.88444 0.98194 0.50122 0.0
C420 C 0.87678 0.01973 0.55618 0.0
C421 C 0.85564 0.03206 0.52453 0.0
C422 C 0.8774 1.00641 0.65256 0.0
C423 C 0.89196 0.05814 0.53848 0.0
C424 C 0.90606 0.04425 0.4826 0.0
C425 C 0.922 0.0736 0.45984 0.0
C426 C 0.9231 0.11874 0.49261 0.0
C427 C 0.90821 0.13409 0.54647 0.0
C428 C 0.89265 0.10308 0.57042 0.0
H429 H 0.16873 0.59249 0.47545 0.0
H430 H 0.12242 0.6209 0.65268 0.0
H431 H 0.12403 0.54242 0.71134 0.0
H432 H 0.14975 0.4751 0.42815 0.0
H433 H 0.17417 0.45258 0.41946 0.0
H434 H 0.17019 0.51191 0.39334 0.0
H435 H 0.1986 0.53723 0.50401 0.0
H436 H 0.20251 0.47796 0.53106 0.0
H437 H 0.19744 0.5183 0.61478 0.0
H438 H 0.13188 0.46363 0.75789 0.0
H439 H 0.14124 0.38297 0.77289 0.0
H440 H 0.17966 0.39996 0.55544 0.0
C441 C 0.15892 0.58188 0.52626 0.0
C442 C 0.14544 0.61268 0.55968 0.0
C443 C 0.13271 0.59769 0.6257 0.0
C444 C 0.13362 0.55331 0.65999 0.0
C445 C 0.14708 0.5238 0.62639 0.0
C446 C 0.15917 0.53684 0.5596 0.0
C447 C 0.17131 0.49685 0.53221 0.0
C448 C 0.16603 0.48331 0.43768 0.0
C449 C 0.1938 0.50829 0.54638 0.0
C450 C 0.16421 0.45971 0.59447 0.0
C451 C 0.15057 0.47657 0.64937 0.0
C452 C 0.14238 0.44979 0.71475 0.0
C453 C 0.1479 0.40412 0.72316 0.0
C454 C 0.16111 0.38526 0.6653 0.0
C455 C 0.16945 0.41353 0.60029 0.0
H456 H 0.68026 0.58954 0.12496 0.0
H457 H 0.62791 0.6105 0.27286 0.0
H458 H 0.61571 0.53082 0.24147 0.0
H459 H 0.657 0.51795 0.95996 0.0
H460 H 0.67729 0.47969 0.95399 0.0
H461 H 0.68221 0.53849 0.9876 0.0
H462 H 0.69965 0.51117 0.13 0.0
H463 H 0.6951 0.45232 0.09613 0.0
H464 H 0.68655 0.47103 0.19865 0.0
H465 H 0.60784 0.45125 0.18495 0.0
H466 H 0.60771 0.37167 0.1302 0.0
H467 H 0.66642 0.39904 1.0292 0.0
C468 C 0.66637 0.57706 0.15158 0.0
C469 C 0.65504 0.60617 0.20151 0.0
C470 C 0.63695 0.58867 0.23533 0.0
C471 C 0.62978 0.5436 0.21711 0.0
C472 C 0.64106 0.51609 0.16626 0.0
C473 C 0.65922 0.53164 0.13583 0.0
C474 C 0.66875 0.49414 0.08589 0.0
C475 C 0.67147 0.50844 0.99124 0.0
C476 C 0.68869 0.48141 0.13034 0.0
C477 C 0.65302 0.45533 0.09236 0.0
C478 C 0.63701 0.46911 0.13761 0.0
C479 C 0.62037 0.43988 0.15014 0.0
C480 C 0.62036 0.39485 0.11807 0.0
C481 C 0.63703 0.37914 0.07538 0.0
C482 C 0.65345 0.41009 1.06152 0.0
H483 H 0.41796 0.92251 0.97743 0.0
H484 H 0.37139 0.88801 0.15538 0.0
H485 H 0.36153 0.96876 0.15394 0.0
H486 H 0.431 0.03906 1.05798 0.0
H487 H 0.43433 0.0624 0.95132 0.0
H488 H 0.43901 1.00288 0.97278 0.0
H489 H 0.414 0.97854 0.8472 0.0
H490 H 0.40909 0.03793 0.82597 0.0
H491 H 0.38878 0.99744 0.84729 0.0
H492 H 0.35652 0.05275 0.13294 0.0
H493 H 0.3557 0.13428 0.08836 0.0
H494 H 0.40344 0.11357 0.914 0.0
C495 C 0.40598 0.93236 1.01734 0.0
C496 C 0.3956 0.89939 0.06763 0.0
C497 C 0.3796 0.91299 0.11705 0.0
C498 C 0.3739 0.95871 0.11663 0.0
C499 C 0.38413 0.99032 1.06522 0.0
C500 C 0.39976 0.97782 1.01604 0.0
C501 C 0.40732 0.01804 0.96213 0.0
C502 C 0.42921 0.03138 0.9876 0.0
C503 C 0.40463 1.00733 0.86489 0.0
C504 C 0.39349 0.05491 0.98867 0.0
C505 C 0.38041 0.03828 1.04906 0.0
C506 C 0.36659 0.06612 0.08527 0.0
C507 C 0.36621 0.11231 1.05952 0.0
C508 C 0.37929 0.12998 0.99697 0.0
C509 C 0.393 0.10072 0.96076 0.0
H510 H 0.36924 0.4202 0.98975 0.0
H511 H 0.41943 0.39415 0.83227 0.0
H512 H 0.43197 0.47508 0.85342 0.0
H513 H 0.36196 0.53795 0.91522 0.0
H514 H 0.35512 0.55646 1.02063 0.0
H515 H 0.34995 0.49774 0.98727 0.0
H516 H 0.36947 0.47007 0.12453 0.0
H517 H 0.37512 0.52871 0.15727 0.0
H518 H 0.39505 0.49009 0.14462 0.0
H519 H 0.44035 0.55819 0.90459 0.0
H520 H 0.44092 0.63809 0.96069 0.0
H521 H 0.3846 0.60801 0.08071 0.0
C522 C 0.38264 0.43174 0.95805 0.0
C523 C 0.39332 0.40102 0.90897 0.0
C524 C 0.41087 0.41734 0.86905 0.0
C525 C 0.4182 0.46308 0.88159 0.0
C526 C 0.40767 0.492 0.93337 0.0
C527 C 0.39001 0.47708 0.96924 0.0
C528 C 0.38142 0.51439 1.0224 0.0
C529 C 0.3609 0.52741 0.98406 0.0
C530 C 0.3802 0.49993 0.11784 0.0
C531 C 0.39703 0.5528 1.01154 0.0
C532 C 0.41221 0.53929 0.9609 0.0
C533 C 0.42844 0.56912 0.94369 0.0
C534 C 0.42876 0.61428 0.97656 0.0
C535 C 0.41283 0.6292 1.02514 0.0
C536 C 0.397 0.59763 1.0438 0.0
H537 H 0.6682 0.08656 1.00432 0.0
H538 H 0.62331 0.1172 0.18704 0.0
H539 H 0.62508 0.03919 0.24743 0.0
H540 H 0.64871 0.968 0.96297 0.0
H541 H 0.67319 0.94624 0.95149 0.0
H542 H 0.66863 1.00508 0.92417 0.0
H543 H 0.69805 0.03086 1.03043 0.0
H544 H 0.70199 0.97181 1.05914 0.0
H545 H 0.6976 1.01315 0.1421 0.0
H546 H 0.63275 0.96119 0.29444 0.0
H547 H 0.64166 0.88068 0.31098 0.0
H548 H 0.67908 0.89437 0.08902 0.0
C549 C 0.65874 0.0765 1.05671 0.0
C550 C 0.64561 0.10776 0.09127 0.0
C551 C 0.63332 0.09357 0.15933 0.0
C552 C 0.63433 0.04949 0.19452 0.0
C553 C 0.64742 0.0195 0.15978 0.0
C554 C 0.65907 0.03171 0.0911 0.0
C555 C 0.67091 0.99124 1.06347 0.0
C556 C 0.66499 0.97679 0.96997 0.0
C557 C 0.69348 1.00245 0.07447 0.0
C558 C 0.66414 0.95485 0.12792 0.0
C559 C 0.6509 0.97253 0.18373 0.0
C560 C 0.64294 0.94666 0.25067 0.0
C561 C 0.64821 0.90096 0.25978 0.0
C562 C 0.66104 0.8811 0.20124 0.0
C563 C 0.66924 0.90861 0.13473 0.0
H564 H 0.20983 0.31485 0.35664 0.0
H565 H 0.21487 0.16817 0.35831 0.0
H566 H 0.24141 0.17502 0.25555 0.0
H567 H 0.20138 0.34686 0.21506 0.0
H568 H 0.21758 0.38875 0.16383 0.0
H569 H 0.21924 0.38212 0.279 0.0
H570 H 0.25664 0.3701 0.27029 0.0
H571 H 0.25456 0.37589 0.15416 0.0
H572 H 0.26554 0.32614 0.20201 0.0
H573 H 0.23716 0.18217 0.10524 0.0
H574 H 0.20878 0.18795 1.00435 0.0
H575 H 0.20673 0.33295 1.05871 0.0
C576 C 0.21756 0.28497 0.33738 0.0
C577 C 0.20967 0.24113 0.35884 0.0
C578 C 0.21995 0.20205 0.33737 0.0
C579 C 0.23543 0.20607 0.28038 0.0
C580 C 0.23906 0.24856 0.24 0.0
C581 C 0.23218 0.28893 0.27514 0.0
C582 C 0.23268 0.32672 0.20779 0.0
C583 C 0.21671 0.3631 0.21697 0.0
C584 C 0.25359 0.35103 0.2086 0.0
C585 C 0.22964 0.2966 0.12847 0.0
C586 C 0.23701 0.25325 0.14594 0.0
C587 C 0.2313 0.2157 0.09275 0.0
C588 C 0.21477 0.219 1.03594 0.0
C589 C 0.20485 0.26055 1.02836 0.0
C590 C 0.21369 0.30045 0.06754 0.0
H591 H 0.93213 0.28089 0.28009 0.0
H592 H 0.86812 0.26236 0.30702 0.0
H593 H 0.86317 0.2586 0.14918 0.0
H594 H 0.92901 0.35256 0.0833 0.0
H595 H 0.94969 0.32765 1.03269 0.0
H596 H 0.94893 0.3291 0.14903 0.0
H597 H 0.9524 0.24114 0.15468 0.0
H598 H 0.95313 0.23941 1.03834 0.0
H599 H 0.93483 0.20419 0.09302 0.0
H600 H 0.86416 0.25567 0.98887 0.0
H601 H 0.87067 0.25551 0.83515 0.0
H602 H 0.93429 0.27667 0.89563 0.0
C603 C 0.91706 0.27618 0.2528 0.0
C604 C 0.9005 0.27197 0.3087 0.0
C605 C 0.88115 0.26576 0.26821 0.0
C606 C 0.87814 0.26351 0.17754 0.0
C607 C 0.89453 0.26754 0.12502 0.0
C608 C 0.91368 0.27391 0.16054 0.0
C609 C 0.92846 0.2773 0.08677 0.0
C610 C 0.93969 0.32446 0.08804 0.0
C611 C 0.94308 0.23818 0.09364 0.0
C612 C 0.9146 0.27177 1.00495 0.0
C613 C 0.89511 0.26611 1.03001 0.0
C614 C 0.87938 0.26014 0.96885 0.0
C615 C 0.88337 0.26006 0.88032 0.0
C616 C 0.90307 0.26598 0.84992 0.0
C617 C 0.919 0.27192 0.91464 0.0
H618 H 0.17098 0.75426 0.22437 0.0
H619 H 0.10699 0.74187 0.25741 0.0
H620 H 0.10112 0.74035 0.10024 0.0
H621 H 0.16825 0.82818 1.03096 0.0
H622 H 0.18796 0.80156 0.97653 0.0
H623 H 0.18798 0.80171 0.0931 0.0
H624 H 0.18958 0.71329 0.09444 0.0
H625 H 0.18955 0.7128 0.97788 0.0
H626 H 0.17092 0.67894 1.03332 0.0
H627 H 0.10101 0.73996 0.93981 0.0
H628 H 0.10662 0.74079 0.7848 0.0
H629 H 0.1707 0.75343 0.83927 0.0
C630 C 0.15573 0.75125 0.19856 0.0
C631 C 0.13946 0.74824 0.25611 0.0
C632 C 0.11985 0.74432 0.21743 0.0
C633 C 0.11627 0.74339 0.12707 0.0
C634 C 0.13237 0.74638 0.07289 0.0
C635 C 0.15177 0.75025 0.10651 0.0
C636 C 0.1661 0.75287 1.03105 0.0
C637 C 0.1783 0.79881 1.03305 0.0
C638 C 0.17986 0.71205 1.03439 0.0
C639 C 0.15166 0.74984 0.95069 0.0
C640 C 0.13231 0.74612 0.97775 0.0
C641 C 0.11614 0.74285 0.91813 0.0
C642 C 0.11957 0.74337 0.829 0.0
C643 C 0.13913 0.74715 0.79682 0.0
C644 C 0.15549 0.75044 0.85991 0.0
H645 H 0.83458 0.87258 0.87149 0.0
H646 H 0.82131 0.74071 0.75058 0.0
H647 H 0.80195 0.71635 0.87188 0.0
H648 H 0.85195 0.86328 1.01903 0.0
H649 H 0.84059 0.88948 0.10937 0.0
H650 H 0.83519 0.90975 1.00252 0.0
H651 H 0.79804 0.89641 1.02727 0.0
H652 H 0.80348 0.87402 0.13404 0.0
H653 H 0.78796 0.84069 1.05713 0.0
H654 H 0.81216 0.68783 1.00967 0.0
H655 H 0.83941 0.67252 0.11369 0.0
H656 H 0.8477 0.81846 0.16329 0.0
C657 C 0.82684 0.83933 0.8699 0.0
C658 C 0.83143 0.8068 0.8076 0.0
C659 C 0.81975 0.76519 0.80192 0.0
C660 C 0.80812 0.75134 0.87048 0.0
C661 C 0.80874 0.77897 0.94424 0.0
C662 C 0.81593 0.82476 0.94101 0.0
C663 C 0.82008 0.8431 1.03172 0.0
C664 C 0.83808 0.87829 1.04099 0.0
C665 C 0.80127 0.86472 1.06451 0.0
C666 C 0.82342 0.7978 0.07685 0.0
C667 C 0.81416 0.76155 1.03006 0.0
C668 C 0.81905 0.71604 1.04723 0.0
C669 C 0.8351 0.70761 0.10488 0.0
C670 C 0.84622 0.74452 0.14514 0.0
C671 C 0.83939 0.78945 0.13465 0.0
H672 H 0.61954 0.83184 0.61412 0.0
H673 H 0.66959 0.86754 0.45763 0.0
H674 H 0.6854 0.91258 0.57624 0.0
H675 H 0.63506 0.95474 0.7722 0.0
H676 H 0.62343 0.9235 0.85855 0.0
H677 H 0.61132 0.9244 0.75223 0.0
H678 H 0.609 0.83561 0.75301 0.0
H679 H 0.62095 0.83556 0.85797 0.0
H680 H 0.63145 0.80424 0.77149 0.0
H681 H 0.70235 0.89425 0.70974 0.0
H682 H 0.71206 0.84243 0.82676 0.0
H683 H 0.65225 0.84449 0.92072 0.0
C684 C 0.63306 0.85226 0.60358 0.0
C685 C 0.64414 0.84343 0.53082 0.0
C686 C 0.66155 0.87099 0.51624 0.0
C687 C 0.67043 0.89792 0.58269 0.0
C688 C 0.66116 0.89872 0.66145 0.0
C689 C 0.64169 0.88102 0.66936 0.0
C690 C 0.6366 0.87947 0.76378 0.0
C691 C 0.626 0.92314 0.78806 0.0
C692 C 0.62383 0.83604 0.78781 0.0
C693 C 0.65756 0.88083 0.80442 0.0
C694 C 0.67152 0.89544 0.74551 0.0
C695 C 0.69162 0.88487 0.75768 0.0
C696 C 0.69707 0.85463 0.82422 0.0
C697 C 0.68262 0.83677 0.88036 0.0
C698 C 0.66343 0.85486 0.87593 0.0
H699 H 0.4334 0.77951 0.75764 0.0
H700 H 0.36986 0.75121 0.78372 0.0
H701 H 0.36515 0.74685 0.62579 0.0
H702 H 0.42838 0.85051 0.56069 0.0
H703 H 0.44985 0.82896 0.51052 0.0
H704 H 0.44894 0.83017 0.62682 0.0
H705 H 0.45495 0.74319 0.63277 0.0
H706 H 0.45584 0.7417 0.51648 0.0
H707 H 0.43849 0.70379 0.57092 0.0
H708 H 0.36638 0.74425 0.4654 0.0
H709 H 0.37304 0.74513 0.31182 0.0
H710 H 0.43604 0.776 0.3733 0.0
C711 C 0.41848 0.77252 0.73016 0.0
C712 C 0.40198 0.76578 0.78585 0.0
C713 C 0.38283 0.75665 0.74509 0.0
C714 C 0.37996 0.75402 0.65436 0.0
C715 C 0.3963 0.7606 0.60206 0.0
C716 C 0.41524 0.76983 0.63787 0.0
C717 C 0.43001 0.77554 0.56434 0.0
C718 C 0.43989 0.82419 0.56569 0.0
C719 C 0.44577 0.73888 0.57158 0.0
C720 C 0.41637 0.768 0.48229 0.0
C721 C 0.39701 0.75937 0.50705 0.0
C722 C 0.3815 0.75106 0.44564 0.0
C723 C 0.38558 0.75166 0.35718 0.0
C724 C 0.40515 0.76062 0.32707 0.0
C725 C 0.42086 0.76891 0.39205 0.0
H726 H 0.67057 0.24943 0.36787 0.0
H727 H 0.60655 0.23619 0.31175 0.0
H728 H 0.60074 0.23437 0.46647 0.0
H729 H 0.67071 0.17398 0.5595 0.0
H730 H 0.68925 0.20809 0.62167 0.0
H731 H 0.68927 0.2086 0.50511 0.0
H732 H 0.68743 0.29705 0.50555 0.0
H733 H 0.68742 0.29675 0.62211 0.0
H734 H 0.66761 0.32313 0.56032 0.0
H735 H 0.60061 0.23343 0.62692 0.0
H736 H 0.60629 0.23414 0.78428 0.0
H737 H 0.67029 0.24834 0.75283 0.0
C738 C 0.65533 0.24618 0.38808 0.0
C739 C 0.63906 0.24297 0.32455 0.0
C740 C 0.61946 0.23875 0.35624 0.0
C741 C 0.61589 0.23765 0.44523 0.0
C742 C 0.63198 0.2408 0.50528 0.0
C743 C 0.65137 0.24504 0.47875 0.0
C744 C 0.66568 0.24782 0.55956 0.0
C745 C 0.67956 0.20721 0.56156 0.0
C746 C 0.67776 0.29393 0.56201 0.0
C747 C 0.65124 0.24448 0.63453 0.0
C748 C 0.63189 0.24041 0.6004 0.0
C749 C 0.61573 0.23666 0.65415 0.0
C750 C 0.61919 0.2371 0.74461 0.0
C751 C 0.63875 0.24133 0.78378 0.0
C752 C 0.65508 0.24506 0.72665 0.0
H753 H 0.40818 0.23802 0.27949 0.0
H754 H 0.39773 0.38147 0.32775 0.0
H755 H 0.42768 0.3864 0.42255 0.0
H756 H 0.41548 0.19649 0.43816 0.0
H757 H 0.43772 0.16382 0.43351 0.0
H758 H 0.42428 0.17745 0.33603 0.0
H759 H 0.45548 0.21651 0.27417 0.0
H760 H 0.46942 0.20135 0.37158 0.0
H761 H 0.46981 0.26012 0.33538 0.0
H762 H 0.44777 0.3695 0.54714 0.0
H763 H 0.44122 0.33188 0.68304 0.0
H764 H 0.44416 0.19909 0.56313 0.0
C765 C 0.41264 0.2713 0.30557 0.0
C766 C 0.40024 0.30913 0.29499 0.0
C767 C 0.40655 0.35143 0.33441 0.0
C768 C 0.42406 0.35498 0.38684 0.0
C769 C 0.43557 0.31636 0.39841 0.0
C770 C 0.43036 0.27547 0.35596 0.0
C771 C 0.44188 0.23628 0.39401 0.0
C772 C 0.42901 0.19101 0.40112 0.0
C773 C 0.46023 0.22816 0.34059 0.0
C774 C 0.44846 0.2579 0.48017 0.0
C775 C 0.44764 0.30575 0.47558 0.0
C776 C 0.44818 0.33241 0.55063 0.0
C777 C 0.4443 0.31046 0.62864 0.0
C778 C 0.44019 0.26243 0.62976 0.0
C779 C 0.44603 0.2361 0.56004 0.0
H780 H 0.09991 0.26977 0.53863 0.0
H781 H 0.10294 0.21261 0.79784 0.0
H782 H 0.06624 0.21072 0.80103 0.0
H783 H 0.06055 0.34404 0.57637 0.0
H784 H 0.04853 0.33687 0.47052 0.0
H785 H 0.075 0.33016 0.4851 0.0
H786 H 0.07096 0.24861 0.418 0.0
H787 H 0.04446 0.25511 0.40308 0.0
H788 H 0.0537 0.20679 0.46307 0.0
H789 H 0.029 0.21768 0.77905 0.0
H790 H 0.99442 0.23658 0.73523 0.0
H791 H 1.01532 0.29027 0.49185 0.0
C792 C 0.09281 0.25621 0.59543 0.0
C793 C 0.10438 0.24112 0.66781 0.0
C794 C 0.09447 0.22443 0.74156 0.0
C795 C 0.07358 0.22304 0.74396 0.0
C796 C 0.06261 0.23868 0.67226 0.0
C797 C 0.07186 0.25509 0.59939 0.0
C798 C 0.05657 0.27232 0.53324 0.0
C799 C 0.0604 0.32391 0.51529 0.0
C800 C 0.05642 0.24401 0.44938 0.0
C801 C 0.03741 0.26351 0.58072 0.0
C802 C 0.04118 0.24362 0.66042 0.0
C803 C 0.02586 0.23307 0.71649 0.0
C804 C 1.00621 0.24371 0.69094 0.0
C805 C 1.00201 0.26512 0.61032 0.0
C806 C 1.01793 0.27446 0.55439 0.0
H807 H 0.94722 0.74807 0.41101 0.0
H808 H 0.94071 0.79936 0.67101 0.0
H809 H 0.97742 0.80032 0.69645 0.0
H810 H 0.98633 0.67296 0.46398 0.0
H811 H 0.999 0.68359 0.36502 0.0
H812 H 0.97241 0.68892 0.36713 0.0
H813 H 0.97628 0.77235 0.30941 0.0
H814 H 1.00291 0.76731 0.30731 0.0
H815 H 0.9928 0.81344 0.36685 0.0
H816 H 1.01568 0.79411 0.69306 0.0
H817 H 0.05074 0.77783 0.66289 0.0
H818 H 0.03136 0.73117 0.40562 0.0
C819 C 0.95345 0.75979 0.47327 0.0
C820 C 0.94096 0.77377 0.5389 0.0
C821 C 0.94988 0.7885 0.61955 0.0
C822 C 0.97077 0.78927 0.63456 0.0
C823 C 0.98262 0.77519 0.56835 0.0
C824 C 0.9742 0.76063 0.48937 0.0
C825 C 0.99001 0.74591 0.42947 0.0
C826 C 0.98674 0.69482 0.405 0.0
C827 C 0.99053 0.77659 0.34848 0.0
C828 C 1.00867 0.75402 0.48706 0.0
C829 C 1.00424 0.77123 0.56679 0.0
C830 C 1.01925 0.78072 0.63064 0.0
C831 C 0.03916 0.77164 0.61288 0.0
C832 C 0.04389 0.75288 0.5322 0.0
C833 C 0.02833 0.74482 0.46848 0.0
H834 H 0.60165 0.81068 0.14972 0.0
H835 H 0.60659 0.67102 1.06024 0.0
H836 H 0.56987 0.6647 1.03037 0.0
H837 H 0.55709 0.79534 0.25582 0.0
H838 H 0.54702 0.8494 0.22326 0.0
H839 H 0.57363 0.84376 0.23171 0.0
H840 H 0.57673 0.87018 0.07273 0.0
H841 H 0.55015 0.87682 1.06412 0.0
H842 H 0.56186 0.84079 0.98829 0.0
H843 H 0.53158 0.67219 1.02506 0.0
H844 H 0.49651 0.69625 1.02432 0.0
H845 H 0.5174 0.8322 0.11047 0.0
C846 C 0.59501 0.77925 0.12149 0.0
C847 C 0.6069 0.74157 0.10568 0.0
C848 C 0.59774 0.7006 0.07065 0.0
C849 C 0.57689 0.69663 1.05443 0.0
C850 C 0.56546 0.7342 0.07253 0.0
C851 C 0.57434 0.77512 0.10332 0.0
C852 C 0.55891 0.81054 0.11737 0.0
C853 C 0.55918 0.82562 0.21271 0.0
C854 C 0.5621 0.85203 1.05703 0.0
C855 C 0.53986 0.78296 0.09199 0.0
C856 C 0.54385 0.73888 1.0668 0.0
C857 C 0.52839 0.70684 1.04361 0.0
C858 C 0.50849 0.7206 1.04414 0.0
C859 C 0.50418 0.76614 1.06681 0.0
C860 C 0.52019 0.79732 0.09177 0.0
H861 H 0.44916 0.23427 0.9162 0.0
H862 H 0.43785 0.29966 0.15993 0.0
H863 H 0.47438 0.3019 0.19774 0.0
H864 H 0.48739 0.16285 0.99187 0.0
H865 H 0.50108 0.16956 0.89458 0.0
H866 H 0.47441 0.17397 0.89006 0.0
H867 H 0.47836 0.25465 0.81984 0.0
H868 H 0.50507 0.25068 0.82452 0.0
H869 H 0.49392 0.29877 0.8739 0.0
H870 H 0.51369 0.29376 0.20673 0.0
H871 H 0.5492 0.27635 0.18571 0.0
H872 H 0.53225 0.21997 0.93286 0.0
C873 C 0.45415 0.24899 0.97809 0.0
C874 C 0.44051 0.26656 1.03536 0.0
C875 C 0.44795 0.28548 0.11537 0.0
C876 C 0.4687 0.287 0.13709 0.0
C877 C 0.48171 0.26932 0.07824 0.0
C878 C 0.47449 0.25079 1.00028 0.0
C879 C 0.49096 0.23415 0.94656 0.0
C880 C 0.4883 0.18206 0.92985 0.0
C881 C 0.49214 0.26119 0.86119 0.0
C882 C 0.50882 0.24546 1.00644 0.0
C883 C 0.50346 0.26584 0.08224 0.0
C884 C 0.51789 0.278 0.14727 0.0
C885 C 0.53805 0.26825 0.13473 0.0
C886 C 0.54354 0.24635 1.058 0.0
C887 C 0.52862 0.23594 0.99295 0.0
loop_
_geom_bond_atom_site_label_1
_geom_bond_atom_site_label_2
_geom_bond_distance
_geom_bond_site_symmetry_2
_ccdc_geom_bond_type
Co0 N5 2.057 . S
Co0 O17 2.021 . S
Co0 O20 2.062 . S
Co0 O24 2.117 . S
Co0 O25 2.020 . S
C1 O21 1.259 . S
C1 O24 1.258 . S
Co2 N11 2.057 . S
Co2 O18 2.117 . S
Co2 O19 2.020 . S
Co2 O21 2.021 . S
Co2 O26 2.062 . S
C3 N5 1.316 . S
C3 N6 1.347 . S
C3 H8 0.931 . S
C4 N5 1.375 . S
C4 C7 1.350 . S
C4 H9 0.930 . S
N5 Co0 2.057 . S
N5 C3 1.316 . S
N5 C4 1.375 . S
N6 C3 1.347 . S
N6 C7 1.373 . S
C7 C4 1.350 . S
C7 N6 1.373 . S
C7 H28 0.931 . S
H8 C3 0.931 . S
H9 C4 0.930 . S
C10 O17 1.259 . S
C10 O18 1.258 . S
N11 Co2 2.057 . S
N11 C12 1.316 . S
N11 C13 1.375 . S
C12 N11 1.316 . S
C12 N14 1.347 . S
C12 H23 0.931 . S
C13 N11 1.375 . S
C13 C15 1.350 . S
C13 H22 0.930 . S
N14 C12 1.347 . S
N14 C15 1.373 . S
C15 C13 1.350 . S
C15 N14 1.373 . S
C15 H29 0.931 . S
C16 O19 1.256 . S
C16 O20 1.255 . S
O17 Co0 2.021 . S
O17 C10 1.259 . S
O18 Co2 2.117 . S
O18 C10 1.258 . S
O19 Co2 2.020 . S
O19 C16 1.256 . S
O20 Co0 2.062 . S
O20 C16 1.255 . S
O21 C1 1.259 . S
O21 Co2 2.021 . S
H22 C13 0.930 . S
H23 C12 0.931 . S
O24 Co0 2.117 . S
O24 C1 1.258 . S
O25 Co0 2.020 . S
O25 C27 1.256 . S
O26 Co2 2.062 . S
O26 C27 1.255 . S
C27 O25 1.256 . S
C27 O26 1.255 . S
H28 C7 0.931 . S
H29 C15 0.931 . S
Co30 N35 2.057 . S
Co30 O47 2.021 . S
Co30 O50 2.062 . S
Co30 O54 2.117 . S
Co30 O55 2.020 . S
C31 O51 1.259 . S
C31 O54 1.258 . S
Co32 N41 2.057 . S
Co32 O48 2.117 . S
Co32 O49 2.020 . S
Co32 O51 2.021 . S
Co32 O56 2.062 . S
C33 N35 1.316 . S
C33 N36 1.347 . S
C33 H38 0.931 . S
C34 N35 1.375 . S
C34 C37 1.350 . S
C34 H39 0.930 . S
N35 Co30 2.057 . S
N35 C33 1.316 . S
N35 C34 1.375 . S
N36 C33 1.347 . S
N36 C37 1.373 . S
C37 C34 1.350 . S
C37 N36 1.373 . S
C37 H58 0.931 . S
H38 C33 0.931 . S
H39 C34 0.930 . S
C40 O47 1.259 . S
C40 O48 1.258 . S
N41 Co32 2.057 . S
N41 C42 1.316 . S
N41 C43 1.375 . S
C42 N41 1.316 . S
C42 N44 1.347 . S
C42 H53 0.931 . S
C43 N41 1.375 . S
C43 C45 1.350 . S
C43 H52 0.930 . S
N44 C42 1.347 . S
N44 C45 1.373 . S
C45 C43 1.350 . S
C45 N44 1.373 . S
C45 H59 0.931 . S
C46 O49 1.256 . S
C46 O50 1.255 . S
O47 Co30 2.021 . S
O47 C40 1.259 . S
O48 Co32 2.117 . S
O48 C40 1.258 . S
O49 Co32 2.020 . S
O49 C46 1.256 . S
O50 Co30 2.062 . S
O50 C46 1.255 . S
O51 C31 1.259 . S
O51 Co32 2.021 . S
H52 C43 0.930 . S
H53 C42 0.931 . S
O54 Co30 2.117 . S
O54 C31 1.258 . S
O55 Co30 2.020 . S
O55 C57 1.256 . S
O56 Co32 2.062 . S
O56 C57 1.255 . S
C57 O55 1.256 . S
C57 O56 1.255 . S
H58 C37 0.931 . S
H59 C45 0.931 . S
Co60 N65 2.057 . S
Co60 O77 2.021 . S
Co60 O80 2.062 . S
Co60 O84 2.117 . S
Co60 O85 2.020 . S
C61 O81 1.259 . S
C61 O84 1.258 . S
Co62 N71 2.057 . S
Co62 O78 2.117 . S
Co62 O79 2.020 . S
Co62 O81 2.021 . S
Co62 O86 2.062 . S
C63 N65 1.316 . S
C63 N66 1.347 . S
C63 H68 0.931 . S
C64 N65 1.375 . S
C64 C67 1.350 . S
C64 H69 0.930 . S
N65 Co60 2.057 . S
N65 C63 1.316 . S
N65 C64 1.375 . S
N66 C63 1.347 . S
N66 C67 1.373 . S
C67 C64 1.350 . S
C67 N66 1.373 . S
C67 H88 0.931 . S
H68 C63 0.931 . S
H69 C64 0.930 . S
C70 O77 1.259 . S
C70 O78 1.258 . S
N71 Co62 2.057 . S
N71 C72 1.316 . S
N71 C73 1.375 . S
C72 N71 1.316 . S
C72 N74 1.347 . S
C72 H83 0.931 . S
C73 N71 1.375 . S
C73 C75 1.350 . S
C73 H82 0.930 . S
N74 C72 1.347 . S
N74 C75 1.373 . S
C75 C73 1.350 . S
C75 N74 1.373 . S
C75 H89 0.931 . S
C76 O79 1.256 . S
C76 O80 1.255 . S
O77 Co60 2.021 . S
O77 C70 1.259 . S
O78 Co62 2.117 . S
O78 C70 1.258 . S
O79 Co62 2.020 . S
O79 C76 1.256 . S
O80 Co60 2.062 . S
O80 C76 1.255 . S
O81 C61 1.259 . S
O81 Co62 2.021 . S
H82 C73 0.930 . S
H83 C72 0.931 . S
O84 Co60 2.117 . S
O84 C61 1.258 . S
O85 Co60 2.020 . S
O85 C87 1.256 . S
O86 Co62 2.062 . S
O86 C87 1.255 . S
C87 O85 1.256 . S
C87 O86 1.255 . S
H88 C67 0.931 . S
H89 C75 0.931 . S
Co90 N95 2.057 . S
Co90 O107 2.021 . S
Co90 O110 2.062 . S
Co90 O114 2.117 . S
Co90 O115 2.020 . S
C91 O111 1.259 . S
C91 O114 1.258 . S
Co92 N101 2.057 . S
Co92 O108 2.117 . S
Co92 O109 2.020 . S
Co92 O111 2.021 . S
Co92 O116 2.062 . S
C93 N95 1.316 . S
C93 N96 1.347 . S
C93 H98 0.931 . S
C94 N95 1.375 . S
C94 C97 1.350 . S
C94 H99 0.930 . S
N95 Co90 2.057 . S
N95 C93 1.316 . S
N95 C94 1.375 . S
N96 C93 1.347 . S
N96 C97 1.373 . S
C97 C94 1.350 . S
C97 N96 1.373 . S
C97 H118 0.931 . S
H98 C93 0.931 . S
H99 C94 0.930 . S
C100 O107 1.259 . S
C100 O108 1.258 . S
N101 Co92 2.057 . S
N101 C102 1.316 . S
N101 C103 1.375 . S
C102 N101 1.316 . S
C102 N104 1.347 . S
C102 H113 0.931 . S
C103 N101 1.375 . S
C103 C105 1.350 . S
C103 H112 0.930 . S
N104 C102 1.347 . S
N104 C105 1.373 . S
C105 C103 1.350 . S
C105 N104 1.373 . S
C105 H119 0.931 . S
C106 O109 1.256 . S
C106 O110 1.255 . S
O107 Co90 2.021 . S
O107 C100 1.259 . S
O108 Co92 2.117 . S
O108 C100 1.258 . S
O109 Co92 2.020 . S
O109 C106 1.256 . S
O110 Co90 2.062 . S
O110 C106 1.255 . S
O111 C91 1.259 . S
O111 Co92 2.021 . S
H112 C103 0.930 . S
H113 C102 0.931 . S
O114 Co90 2.117 . S
O114 C91 1.258 . S
O115 Co90 2.020 . S
O115 C117 1.256 . S
O116 Co92 2.062 . S
O116 C117 1.255 . S
C117 O115 1.256 . S
C117 O116 1.255 . S
H118 C97 0.931 . S
H119 C105 0.931 . S
Co120 N125 2.057 . S
Co120 O137 2.021 . S
Co120 O140 2.062 . S
Co120 O144 2.117 . S
Co120 O145 2.020 . S
C121 O141 1.259 1_554 S
C121 O144 1.258 . S
Co122 N131 2.057 . S
Co122 O138 2.117 1_556 S
Co122 O139 2.020 1_556 S
Co122 O141 2.021 . S
Co122 O146 2.062 . S
C123 N125 1.316 . S
C123 N126 1.347 . S
C123 H128 0.931 . S
C124 N125 1.375 . S
C124 C127 1.350 . S
C124 H129 0.930 . S
N125 Co120 2.057 . S
N125 C123 1.316 . S
N125 C124 1.375 . S
N126 C123 1.347 . S
N126 C127 1.373 . S
C127 C124 1.350 . S
C127 N126 1.373 . S
C127 H148 0.931 . S
H128 C123 0.931 . S
H129 C124 0.930 . S
C130 O137 1.259 . S
C130 O138 1.258 . S
N131 Co122 2.057 . S
N131 C132 1.316 . S
N131 C133 1.375 . S
C132 N131 1.316 . S
C132 N134 1.347 . S
C132 H143 0.931 . S
C133 N131 1.375 . S
C133 C135 1.350 . S
C133 H142 0.930 . S
N134 C132 1.347 . S
N134 C135 1.373 . S
C135 C133 1.350 . S
C135 N134 1.373 . S
C135 H149 0.931 . S
C136 O139 1.256 . S
C136 O140 1.255 . S
O137 Co120 2.021 . S
O137 C130 1.259 . S
O138 Co122 2.117 1_554 S
O138 C130 1.258 . S
O139 Co122 2.020 1_554 S
O139 C136 1.256 . S
O140 Co120 2.062 . S
O140 C136 1.255 . S
O141 C121 1.259 1_556 S
O141 Co122 2.021 . S
H142 C133 0.930 . S
H143 C132 0.931 . S
O144 Co120 2.117 . S
O144 C121 1.258 . S
O145 Co120 2.020 . S
O145 C147 1.256 . S
O146 Co122 2.062 . S
O146 C147 1.255 1_556 S
C147 O145 1.256 . S
C147 O146 1.255 1_554 S
H148 C127 0.931 . S
H149 C135 0.931 . S
Co150 N155 2.057 . S
Co150 O167 2.021 . S
Co150 O170 2.062 1_554 S
Co150 O174 2.117 . S
Co150 O175 2.020 . S
C151 O171 1.259 . S
C151 O174 1.258 . S
Co152 N161 2.057 . S
Co152 O168 2.117 . S
Co152 O169 2.020 1_554 S
Co152 O171 2.021 . S
Co152 O176 2.062 . S
C153 N155 1.316 . S
C153 N156 1.347 . S
C153 H158 0.931 . S
C154 N155 1.375 . S
C154 C157 1.350 . S
C154 H159 0.930 . S
N155 Co150 2.057 . S
N155 C153 1.316 . S
N155 C154 1.375 . S
N156 C153 1.347 . S
N156 C157 1.373 . S
C157 C154 1.350 . S
C157 N156 1.373 . S
C157 H178 0.931 . S
H158 C153 0.931 . S
H159 C154 0.930 . S
C160 O167 1.259 . S
C160 O168 1.258 . S
N161 Co152 2.057 . S
N161 C162 1.316 . S
N161 C163 1.375 . S
C162 N161 1.316 . S
C162 N164 1.347 . S
C162 H173 0.931 . S
C163 N161 1.375 . S
C163 C165 1.350 . S
C163 H172 0.930 . S
N164 C162 1.347 . S
N164 C165 1.373 . S
C165 C163 1.350 . S
C165 N164 1.373 . S
C165 H179 0.931 . S
C166 O169 1.256 . S
C166 O170 1.255 . S
O167 Co150 2.021 . S
O167 C160 1.259 . S
O168 Co152 2.117 . S
O168 C160 1.258 . S
O169 Co152 2.020 1_556 S
O169 C166 1.256 . S
O170 Co150 2.062 1_556 S
O170 C166 1.255 . S
O171 C151 1.259 . S
O171 Co152 2.021 . S
H172 C163 0.930 . S
H173 C162 0.931 . S
O174 Co150 2.117 . S
O174 C151 1.258 . S
O175 Co150 2.020 . S
O175 C177 1.256 . S
O176 Co152 2.062 . S
O176 C177 1.255 . S
C177 O175 1.256 . S
C177 O176 1.255 . S
H178 C157 0.931 . S
H179 C165 0.931 . S
Co180 N185 2.057 . S
Co180 O197 2.021 . S
Co180 O200 2.062 . S
Co180 O204 2.117 . S
Co180 O205 2.020 1_556 S
C181 O201 1.259 . S
C181 O204 1.258 . S
Co182 N191 2.057 . S
Co182 O198 2.117 . S
Co182 O199 2.020 . S
Co182 O201 2.021 . S
Co182 O206 2.062 1_556 S
C183 N185 1.316 . S
C183 N186 1.347 . S
C183 H188 0.931 . S
C184 N185 1.375 . S
C184 C187 1.350 . S
C184 H189 0.930 . S
N185 Co180 2.057 . S
N185 C183 1.316 . S
N185 C184 1.375 . S
N186 C183 1.347 . S
N186 C187 1.373 . S
C187 C184 1.350 . S
C187 N186 1.373 . S
C187 H208 0.931 . S
H188 C183 0.931 . S
H189 C184 0.930 . S
C190 O197 1.259 . S
C190 O198 1.258 . S
N191 Co182 2.057 . S
N191 C192 1.316 . S
N191 C193 1.375 . S
C192 N191 1.316 . S
C192 N194 1.347 . S
C192 H203 0.931 . S
C193 N191 1.375 . S
C193 C195 1.350 . S
C193 H202 0.930 . S
N194 C192 1.347 . S
N194 C195 1.373 . S
C195 C193 1.350 . S
C195 N194 1.373 . S
C195 H209 0.931 . S
C196 O199 1.256 . S
C196 O200 1.255 . S
O197 Co180 2.021 . S
O197 C190 1.259 . S
O198 Co182 2.117 . S
O198 C190 1.258 . S
O199 Co182 2.020 . S
O199 C196 1.256 . S
O200 Co180 2.062 . S
O200 C196 1.255 . S
O201 C181 1.259 . S
O201 Co182 2.021 . S
H202 C193 0.930 . S
H203 C192 0.931 . S
O204 Co180 2.117 . S
O204 C181 1.258 . S
O205 Co180 2.020 1_554 S
O205 C207 1.256 . S
O206 Co182 2.062 1_554 S
O206 C207 1.255 . S
C207 O205 1.256 . S
C207 O206 1.255 . S
H208 C187 0.931 . S
H209 C195 0.931 . S
Co210 N215 2.057 . S
Co210 O227 2.021 . S
Co210 O230 2.062 . S
Co210 O234 2.117 1_554 S
Co210 O235 2.020 1_554 S
C211 O231 1.259 . S
C211 O234 1.258 . S
Co212 N221 2.057 . S
Co212 O228 2.117 . S
Co212 O229 2.020 . S
Co212 O231 2.021 . S
Co212 O236 2.062 . S
C213 N215 1.316 . S
C213 N216 1.347 . S
C213 H218 0.931 . S
C214 N215 1.375 . S
C214 C217 1.350 . S
C214 H219 0.930 . S
N215 Co210 2.057 . S
N215 C213 1.316 . S
N215 C214 1.375 . S
N216 C213 1.347 . S
N216 C217 1.373 . S
C217 C214 1.350 . S
C217 N216 1.373 . S
C217 H238 0.931 . S
H218 C213 0.931 . S
H219 C214 0.930 . S
C220 O227 1.259 1_556 S
C220 O228 1.258 . S
N221 Co212 2.057 . S
N221 C222 1.316 . S
N221 C223 1.375 . S
C222 N221 1.316 . S
C222 N224 1.347 . S
C222 H233 0.931 . S
C223 N221 1.375 . S
C223 C225 1.350 . S
C223 H232 0.930 . S
N224 C222 1.347 . S
N224 C225 1.373 . S
C225 C223 1.350 . S
C225 N224 1.373 . S
C225 H239 0.931 . S
C226 O229 1.256 . S
C226 O230 1.255 1_556 S
O227 Co210 2.021 . S
O227 C220 1.259 1_554 S
O228 Co212 2.117 . S
O228 C220 1.258 . S
O229 Co212 2.020 . S
O229 C226 1.256 . S
O230 Co210 2.062 . S
O230 C226 1.255 1_554 S
O231 C211 1.259 . S
O231 Co212 2.021 . S
H232 C223 0.930 . S
H233 C222 0.931 . S
O234 Co210 2.117 1_556 S
O234 C211 1.258 . S
O235 Co210 2.020 1_556 S
O235 C237 1.256 . S
O236 Co212 2.062 . S
O236 C237 1.255 . S
C237 O235 1.256 . S
C237 O236 1.255 . S
H238 C217 0.931 . S
H239 C225 0.931 . S
H240 C252 0.930 . S
H241 C254 0.930 . S
H242 C255 0.930 . S
H243 C259 0.959 . S
H244 C259 0.959 . S
H245 C259 0.961 . S
H246 C260 0.960 . S
H247 C260 0.961 . S
H248 C260 0.959 . S
H249 C263 0.929 . S
H250 C264 0.931 . S
H251 C266 0.930 . S
C252 H240 0.930 . S
C252 C253 1.399 . S
C252 C257 1.399 . S
C253 C252 1.399 . S
C253 C254 1.376 . S
C254 H241 0.930 . S
C254 C253 1.376 . S
C254 C255 1.388 . S
C255 H242 0.930 . S
C255 C254 1.388 . S
C255 C256 1.390 . S
C256 C255 1.390 . S
C256 C257 1.394 . S
C256 C262 1.465 . S
C257 C252 1.399 . S
C257 C256 1.394 . S
C257 C258 1.516 . S
C258 C257 1.516 . S
C258 C259 1.502 . S
C258 C260 1.561 . S
C258 C261 1.526 . S
C259 H243 0.959 . S
C259 H244 0.959 . S
C259 H245 0.961 . S
C259 C258 1.502 . S
C260 H246 0.960 . S
C260 H247 0.961 . S
C260 H248 0.959 . S
C260 C258 1.561 . S
C261 C258 1.526 . S
C261 C262 1.396 . S
C261 C266 1.390 . S
C262 C256 1.465 . S
C262 C261 1.396 . S
C262 C263 1.399 . S
C263 H249 0.929 . S
C263 C262 1.399 . S
C263 C264 1.385 . S
C264 H250 0.931 . S
C264 C263 1.385 . S
C264 C265 1.389 . S
C265 C264 1.389 . S
C265 C266 1.387 . S
C266 H251 0.930 . S
C266 C261 1.390 . S
C266 C265 1.387 . S
H267 C279 0.930 . S
H268 C281 0.930 . S
H269 C282 0.930 . S
H270 C286 0.959 . S
H271 C286 0.959 . S
H272 C286 0.961 . S
H273 C287 0.960 . S
H274 C287 0.961 . S
H275 C287 0.959 . S
H276 C290 0.929 . S
H277 C291 0.931 . S
H278 C293 0.930 . S
C279 H267 0.930 . S
C279 C280 1.399 . S
C279 C284 1.399 . S
C280 C279 1.399 . S
C280 C281 1.376 . S
C281 H268 0.930 . S
C281 C280 1.376 . S
C281 C282 1.388 . S
C282 H269 0.930 . S
C282 C281 1.388 . S
C282 C283 1.390 . S
C283 C282 1.390 . S
C283 C284 1.394 . S
C283 C289 1.465 . S
C284 C279 1.399 . S
C284 C283 1.394 . S
C284 C285 1.516 . S
C285 C284 1.516 . S
C285 C286 1.502 . S
C285 C287 1.561 . S
C285 C288 1.526 . S
C286 H270 0.959 . S
C286 H271 0.959 . S
C286 H272 0.961 . S
C286 C285 1.502 . S
C287 H273 0.960 . S
C287 H274 0.961 . S
C287 H275 0.959 . S
C287 C285 1.561 . S
C288 C285 1.526 . S
C288 C289 1.396 . S
C288 C293 1.390 . S
C289 C283 1.465 . S
C289 C288 1.396 . S
C289 C290 1.399 . S
C290 H276 0.929 . S
C290 C289 1.399 . S
C290 C291 1.385 . S
C291 H277 0.931 . S
C291 C290 1.385 . S
C291 C292 1.389 . S
C292 C291 1.389 . S
C292 C293 1.387 . S
C293 H278 0.930 . S
C293 C288 1.390 . S
C293 C292 1.387 . S
H294 C306 0.930 . S
H295 C308 0.930 . S
H296 C309 0.930 . S
H297 C313 0.959 . S
H298 C313 0.959 . S
H299 C313 0.961 . S
H300 C314 0.960 . S
H301 C314 0.961 . S
H302 C314 0.959 . S
H303 C317 0.929 . S
H304 C318 0.931 . S
H305 C320 0.930 . S
C306 H294 0.930 . S
C306 C307 1.399 . S
C306 C311 1.399 . S
C307 C306 1.399 . S
C307 C308 1.376 . S
C308 H295 0.930 . S
C308 C307 1.376 . S
C308 C309 1.388 . S
C309 H296 0.930 . S
C309 C308 1.388 . S
C309 C310 1.390 . S
C310 C309 1.390 . S
C310 C311 1.394 . S
C310 C316 1.465 . S
C311 C306 1.399 . S
C311 C310 1.394 . S
C311 C312 1.516 . S
C312 C311 1.516 . S
C312 C313 1.502 . S
C312 C314 1.561 . S
C312 C315 1.526 . S
C313 H297 0.959 . S
C313 H298 0.959 . S
C313 H299 0.961 . S
C313 C312 1.502 . S
C314 H300 0.960 . S
C314 H301 0.961 . S
C314 H302 0.959 . S
C314 C312 1.561 . S
C315 C312 1.526 . S
C315 C316 1.396 . S
C315 C320 1.390 . S
C316 C310 1.465 . S
C316 C315 1.396 . S
C316 C317 1.399 . S
C317 H303 0.929 . S
C317 C316 1.399 . S
C317 C318 1.385 . S
C318 H304 0.931 . S
C318 C317 1.385 . S
C318 C319 1.389 . S
C319 C318 1.389 . S
C319 C320 1.387 . S
C320 H305 0.930 . S
C320 C315 1.390 . S
C320 C319 1.387 . S
H321 C333 0.930 . S
H322 C335 0.930 . S
H323 C336 0.930 . S
H324 C340 0.959 . S
H325 C340 0.959 . S
H326 C340 0.961 . S
H327 C341 0.960 . S
H328 C341 0.961 . S
H329 C341 0.959 . S
H330 C344 0.929 . S
H331 C345 0.931 . S
H332 C347 0.930 . S
C333 H321 0.930 . S
C333 C334 1.399 . S
C333 C338 1.399 . S
C334 C333 1.399 . S
C334 C335 1.376 . S
C335 H322 0.930 . S
C335 C334 1.376 . S
C335 C336 1.388 . S
C336 H323 0.930 . S
C336 C335 1.388 . S
C336 C337 1.390 . S
C337 C336 1.390 . S
C337 C338 1.394 . S
C337 C343 1.465 . S
C338 C333 1.399 . S
C338 C337 1.394 . S
C338 C339 1.516 . S
C339 C338 1.516 . S
C339 C340 1.502 . S
C339 C341 1.561 . S
C339 C342 1.526 . S
C340 H324 0.959 . S
C340 H325 0.959 . S
C340 H326 0.961 . S
C340 C339 1.502 . S
C341 H327 0.960 . S
C341 H328 0.961 . S
C341 H329 0.959 . S
C341 C339 1.561 . S
C342 C339 1.526 . S
C342 C343 1.396 . S
C342 C347 1.390 . S
C343 C337 1.465 . S
C343 C342 1.396 . S
C343 C344 1.399 . S
C344 H330 0.929 . S
C344 C343 1.399 . S
C344 C345 1.385 . S
C345 H331 0.931 . S
C345 C344 1.385 . S
C345 C346 1.389 . S
C346 C345 1.389 . S
C346 C347 1.387 . S
C347 H332 0.930 . S
C347 C342 1.390 . S
C347 C346 1.387 . S
H348 C360 0.930 . S
H349 C362 0.930 . S
H350 C363 0.930 . S
H351 C367 0.959 . S
H352 C367 0.959 . S
H353 C367 0.961 1_565 S
H354 C368 0.977 . S
H355 C368 0.961 . S
H356 C368 0.959 . S
H357 C371 0.929 . S
H358 C372 0.931 . S
H359 C374 0.930 . S
C360 H348 0.930 . S
C360 C361 1.399 . S
C360 C365 1.399 . S
C361 C360 1.399 . S
C361 C362 1.376 . S
C362 H349 0.930 . S
C362 C361 1.376 . S
C362 C363 1.388 . S
C363 H350 0.930 . S
C363 C362 1.388 . S
C363 C364 1.390 . S
C364 C363 1.390 . S
C364 C365 1.394 . S
C364 C370 1.465 1_565 S
C365 C360 1.399 . S
C365 C364 1.394 . S
C365 C366 1.516 1_565 S
C366 C365 1.516 1_545 S
C366 C367 1.502 . S
C366 C368 1.561 . S
C366 C369 1.526 . S
C367 H351 0.959 . S
C367 H352 0.959 . S
C367 H353 0.961 1_545 S
C367 C366 1.502 . S
C368 H354 0.977 . S
C368 H355 0.961 . S
C368 H356 0.959 . S
C368 C366 1.561 . S
C369 C366 1.526 . S
C369 C370 1.396 . S
C369 C374 1.390 . S
C370 C364 1.465 1_545 S
C370 C369 1.396 . S
C370 C371 1.399 . S
C371 H357 0.929 . S
C371 C370 1.399 . S
C371 C372 1.385 . S
C372 H358 0.931 . S
C372 C371 1.385 . S
C372 C373 1.389 . S
C373 C372 1.389 . S
C373 C374 1.387 . S
C374 H359 0.930 . S
C374 C369 1.390 . S
C374 C373 1.387 . S
H375 C387 0.930 . S
H376 C389 0.930 . S
H377 C390 0.930 . S
H378 C394 0.959 . S
H379 C394 0.959 . S
H380 C394 0.961 . S
H381 C395 0.960 . S
H382 C395 0.961 . S
H383 C395 0.959 . S
H384 C398 0.929 . S
H385 C399 0.931 . S
H386 C401 0.930 . S
C387 H375 0.930 . S
C387 C388 1.399 . S
C387 C392 1.399 . S
C388 C387 1.399 . S
C388 C389 1.376 . S
C389 H376 0.930 . S
C389 C388 1.376 . S
C389 C390 1.388 . S
C390 H377 0.930 . S
C390 C389 1.388 . S
C390 C391 1.390 . S
C391 C390 1.390 . S
C391 C392 1.394 . S
C391 C397 1.465 . S
C392 C387 1.399 . S
C392 C391 1.394 . S
C392 C393 1.516 . S
C393 C392 1.516 . S
C393 C394 1.502 . S
C393 C395 1.561 . S
C393 C396 1.526 . S
C394 H378 0.959 . S
C394 H379 0.959 . S
C394 H380 0.961 . S
C394 C393 1.502 . S
C395 H381 0.960 . S
C395 H382 0.961 . S
C395 H383 0.959 . S
C395 C393 1.561 . S
C396 C393 1.526 . S
C396 C397 1.396 . S
C396 C401 1.390 . S
C397 C391 1.465 . S
C397 C396 1.396 . S
C397 C398 1.399 . S
C398 H384 0.929 . S
C398 C397 1.399 . S
C398 C399 1.385 . S
C399 H385 0.931 . S
C399 C398 1.385 . S
C399 C400 1.389 . S
C400 C399 1.389 . S
C400 C401 1.387 . S
C401 H386 0.930 . S
C401 C396 1.390 . S
C401 C400 1.387 . S
H402 C414 0.930 . S
H403 C416 0.930 . S
H404 C417 0.930 . S
H405 C421 0.959 . S
H406 C421 0.959 . S
H407 C421 0.961 . S
H408 C422 0.960 . S
H409 C422 0.961 1_545 S
H410 C422 0.959 . S
H411 C425 0.929 . S
H412 C426 0.931 . S
H413 C428 0.930 . S
C414 H402 0.930 . S
C414 C415 1.399 . S
C414 C419 1.399 . S
C415 C414 1.399 . S
C415 C416 1.376 . S
C416 H403 0.930 . S
C416 C415 1.376 . S
C416 C417 1.388 . S
C417 H404 0.930 . S
C417 C416 1.388 . S
C417 C418 1.390 . S
C418 C417 1.390 . S
C418 C419 1.394 . S
C418 C424 1.465 1_565 S
C419 C414 1.399 . S
C419 C418 1.394 . S
C419 C420 1.516 . S
C420 C419 1.516 . S
C420 C421 1.502 . S
C420 C422 1.561 . S
C420 C423 1.526 1_565 S
C421 H405 0.959 . S
C421 H406 0.959 . S
C421 H407 0.961 . S
C421 C420 1.502 . S
C422 H408 0.960 . S
C422 H409 0.961 1_565 S
C422 H410 0.959 . S
C422 C420 1.561 . S
C423 C420 1.526 1_545 S
C423 C424 1.396 . S
C423 C428 1.390 . S
C424 C418 1.465 1_545 S
C424 C423 1.396 . S
C424 C425 1.399 . S
C425 H411 0.929 . S
C425 C424 1.399 . S
C425 C426 1.385 . S
C426 H412 0.931 . S
C426 C425 1.385 . S
C426 C427 1.389 . S
C427 C426 1.389 . S
C427 C428 1.387 . S
C428 H413 0.930 . S
C428 C423 1.390 . S
C428 C427 1.387 . S
H429 C441 0.930 . S
H430 C443 0.930 . S
H431 C444 0.930 . S
H432 C448 0.959 . S
H433 C448 0.959 . S
H434 C448 0.961 . S
H435 C449 0.960 . S
H436 C449 0.961 . S
H437 C449 0.959 . S
H438 C452 0.929 . S
H439 C453 0.931 . S
H440 C455 0.930 . S
C441 H429 0.930 . S
C441 C442 1.399 . S
C441 C446 1.399 . S
C442 C441 1.399 . S
C442 C443 1.376 . S
C443 H430 0.930 . S
C443 C442 1.376 . S
C443 C444 1.388 . S
C444 H431 0.930 . S
C444 C443 1.388 . S
C444 C445 1.390 . S
C445 C444 1.390 . S
C445 C446 1.394 . S
C445 C451 1.465 . S
C446 C441 1.399 . S
C446 C445 1.394 . S
C446 C447 1.516 . S
C447 C446 1.516 . S
C447 C448 1.502 . S
C447 C449 1.561 . S
C447 C450 1.526 . S
C448 H432 0.959 . S
C448 H433 0.959 . S
C448 H434 0.961 . S
C448 C447 1.502 . S
C449 H435 0.960 . S
C449 H436 0.961 . S
C449 H437 0.959 . S
C449 C447 1.561 . S
C450 C447 1.526 . S
C450 C451 1.396 . S
C450 C455 1.390 . S
C451 C445 1.465 . S
C451 C450 1.396 . S
C451 C452 1.399 . S
C452 H438 0.929 . S
C452 C451 1.399 . S
C452 C453 1.385 . S
C453 H439 0.931 . S
C453 C452 1.385 . S
C453 C454 1.389 . S
C454 C453 1.389 . S
C454 C455 1.387 . S
C455 H440 0.930 . S
C455 C450 1.390 . S
C455 C454 1.387 . S
H456 C468 0.930 1_556 S
H457 C470 0.930 . S
H458 C471 0.930 . S
H459 C475 0.959 . S
H460 C475 0.959 . S
H461 C475 0.961 . S
H462 C476 0.960 . S
H463 C476 0.961 . S
H464 C476 0.959 . S
H465 C479 0.929 . S
H466 C480 0.931 . S
H467 C482 0.930 . S
C468 H456 0.930 1_554 S
C468 C469 1.399 . S
C468 C473 1.399 . S
C469 C468 1.399 . S
C469 C470 1.376 . S
C470 H457 0.930 . S
C470 C469 1.376 . S
C470 C471 1.388 . S
C471 H458 0.930 . S
C471 C470 1.388 . S
C471 C472 1.390 . S
C472 C471 1.390 . S
C472 C473 1.394 . S
C472 C478 1.465 . S
C473 C468 1.399 . S
C473 C472 1.394 . S
C473 C474 1.516 1_554 S
C474 C473 1.516 1_556 S
C474 C475 1.502 . S
C474 C476 1.561 . S
C474 C477 1.526 . S
C475 H459 0.959 . S
C475 H460 0.959 . S
C475 H461 0.961 . S
C475 C474 1.502 . S
C476 H462 0.960 . S
C476 H463 0.961 . S
C476 H464 0.959 . S
C476 C474 1.561 . S
C477 C474 1.526 . S
C477 C478 1.396 1_556 S
C477 C482 1.390 . S
C478 C472 1.465 . S
C478 C477 1.396 1_554 S
C478 C479 1.399 . S
C479 H465 0.929 . S
C479 C478 1.399 . S
C479 C480 1.385 . S
C480 H466 0.931 . S
C480 C479 1.385 . S
C480 C481 1.389 1_554 S
C481 C480 1.389 1_556 S
C481 C482 1.387 . S
C482 H467 0.930 . S
C482 C477 1.390 . S
C482 C481 1.387 . S
H483 C495 0.930 . S
H484 C497 0.930 . S
H485 C498 0.930 . S
H486 C502 0.959 1_545 S
H487 C502 0.959 1_545 S
H488 C502 0.961 . S
H489 C503 0.960 . S
H490 C503 0.961 . S
H491 C503 0.959 . S
H492 C506 0.929 . S
H493 C507 0.931 . S
H494 C509 0.930 . S
C495 H483 0.930 . S
C495 C496 1.399 1_556 S
C495 C500 1.399 . S
C496 C495 1.399 1_554 S
C496 C497 1.376 . S
C497 H484 0.930 . S
C497 C496 1.376 . S
C497 C498 1.388 . S
C498 H485 0.930 . S
C498 C497 1.388 . S
C498 C499 1.390 . S
C499 C498 1.390 . S
C499 C500 1.394 1_554 S
C499 C505 1.465 1_565 S
C500 C495 1.399 . S
C500 C499 1.394 1_556 S
C500 C501 1.516 . S
C501 C500 1.516 . S
C501 C502 1.502 . S
C501 C503 1.561 . S
C501 C504 1.526 1_565 S
C502 H486 0.959 1_565 S
C502 H487 0.959 1_565 S
C502 H488 0.961 . S
C502 C501 1.502 . S
C503 H489 0.960 . S
C503 H490 0.961 . S
C503 H491 0.959 . S
C503 C501 1.561 . S
C504 C501 1.526 1_545 S
C504 C505 1.396 1_556 S
C504 C509 1.390 . S
C505 C499 1.465 1_545 S
C505 C504 1.396 1_554 S
C505 C506 1.399 . S
C506 H492 0.929 . S
C506 C505 1.399 . S
C506 C507 1.385 . S
C507 H493 0.931 . S
C507 C506 1.385 . S
C507 C508 1.389 1_554 S
C508 C507 1.389 1_556 S
C508 C509 1.387 . S
C509 H494 0.930 . S
C509 C504 1.390 . S
C509 C508 1.387 . S
H510 C522 0.930 1_554 S
H511 C524 0.930 . S
H512 C525 0.930 . S
H513 C529 0.959 . S
H514 C529 0.959 . S
H515 C529 0.961 . S
H516 C530 0.960 . S
H517 C530 0.961 . S
H518 C530 0.959 . S
H519 C533 0.929 . S
H520 C534 0.931 . S
H521 C536 0.930 . S
C522 H510 0.930 1_556 S
C522 C523 1.399 . S
C522 C527 1.399 1_556 S
C523 C522 1.399 . S
C523 C524 1.376 . S
C524 H511 0.930 . S
C524 C523 1.376 . S
C524 C525 1.388 . S
C525 H512 0.930 . S
C525 C524 1.388 . S
C525 C526 1.390 . S
C526 C525 1.390 . S
C526 C527 1.394 1_556 S
C526 C532 1.465 . S
C527 C522 1.399 1_554 S
C527 C526 1.394 1_554 S
C527 C528 1.516 . S
C528 C527 1.516 . S
C528 C529 1.502 . S
C528 C530 1.561 . S
C528 C531 1.526 . S
C529 H513 0.959 . S
C529 H514 0.959 . S
C529 H515 0.961 . S
C529 C528 1.502 . S
C530 H516 0.960 . S
C530 H517 0.961 . S
C530 H518 0.959 . S
C530 C528 1.561 . S
C531 C528 1.526 . S
C531 C532 1.396 1_554 S
C531 C536 1.390 . S
C532 C526 1.465 . S
C532 C531 1.396 1_556 S
C532 C533 1.399 . S
C533 H519 0.929 . S
C533 C532 1.399 . S
C533 C534 1.385 . S
C534 H520 0.931 . S
C534 C533 1.385 . S
C534 C535 1.389 1_556 S
C535 C534 1.389 1_554 S
C535 C536 1.387 . S
C536 H521 0.930 . S
C536 C531 1.390 . S
C536 C535 1.387 . S
H537 C549 0.930 . S
H538 C551 0.930 . S
H539 C552 0.930 . S
H540 C556 0.959 . S
H541 C556 0.959 . S
H542 C556 0.961 . S
H543 C557 0.964 . S
H544 C557 0.961 . S
H545 C557 0.959 . S
H546 C560 0.929 . S
H547 C561 0.931 . S
H548 C563 0.935 . S
C549 H537 0.930 . S
C549 C550 1.399 . S
C549 C554 1.399 . S
C550 C549 1.399 . S
C550 C551 1.376 1_556 S
C551 H538 0.930 . S
C551 C550 1.376 1_554 S
C551 C552 1.388 . S
C552 H539 0.930 . S
C552 C551 1.388 . S
C552 C553 1.390 . S
C553 C552 1.390 . S
C553 C554 1.394 1_554 S
C553 C559 1.465 1_545 S
C554 C549 1.399 . S
C554 C553 1.394 1_556 S
C554 C555 1.516 1_545 S
C555 C554 1.516 1_565 S
C555 C556 1.502 . S
C555 C557 1.561 . S
C555 C558 1.526 . S
C556 H540 0.959 . S
C556 H541 0.959 . S
C556 H542 0.961 . S
C556 C555 1.502 . S
C557 H543 0.964 . S
C557 H544 0.961 . S
C557 H545 0.959 . S
C557 C555 1.561 . S
C558 C555 1.526 . S
C558 C559 1.396 1_556 S
C558 C563 1.390 . S
C559 C553 1.465 1_565 S
C559 C558 1.396 1_554 S
C559 C560 1.399 . S
C560 H546 0.929 . S
C560 C559 1.399 . S
C560 C561 1.385 . S
C561 H547 0.931 . S
C561 C560 1.385 . S
C561 C562 1.389 . S
C562 C561 1.389 . S
C562 C563 1.381 1_554 S
C563 H548 0.935 . S
C563 C558 1.390 . S
C563 C562 1.381 1_556 S
H564 C576 0.930 . S
H565 C578 0.930 . S
H566 C579 0.930 . S
H567 C583 0.959 . S
H568 C583 0.959 . S
H569 C583 0.961 . S
H570 C584 0.960 . S
H571 C584 0.961 . S
H572 C584 0.959 . S
H573 C587 0.929 1_554 S
H574 C588 0.931 . S
H575 C590 0.930 . S
C576 H564 0.930 . S
C576 C577 1.399 . S
C576 C581 1.399 . S
C577 C576 1.399 . S
C577 C578 1.376 . S
C578 H565 0.930 . S
C578 C577 1.376 . S
C578 C579 1.388 . S
C579 H566 0.930 . S
C579 C578 1.388 . S
C579 C580 1.390 . S
C580 C579 1.390 . S
C580 C581 1.394 . S
C580 C586 1.465 . S
C581 C576 1.399 . S
C581 C580 1.394 . S
C581 C582 1.516 . S
C582 C581 1.516 . S
C582 C583 1.502 . S
C582 C584 1.561 . S
C582 C585 1.526 . S
C583 H567 0.959 . S
C583 H568 0.959 . S
C583 H569 0.961 . S
C583 C582 1.502 . S
C584 H570 0.960 . S
C584 H571 0.961 . S
C584 H572 0.959 . S
C584 C582 1.561 . S
C585 C582 1.526 . S
C585 C586 1.396 . S
C585 C590 1.390 1_554 S
C586 C580 1.465 . S
C586 C585 1.396 . S
C586 C587 1.399 1_554 S
C587 H573 0.929 1_556 S
C587 C586 1.399 1_556 S
C587 C588 1.385 . S
C588 H574 0.931 . S
C588 C587 1.385 . S
C588 C589 1.389 . S
C589 C588 1.389 . S
C589 C590 1.387 . S
C590 H575 0.930 . S
C590 C585 1.390 1_556 S
C590 C589 1.387 . S
H591 C603 0.930 . S
H592 C605 0.930 . S
H593 C606 0.930 . S
H594 C610 0.959 . S
H595 C610 0.959 1_556 S
H596 C610 0.961 . S
H597 C611 0.960 . S
H598 C611 0.961 1_556 S
H599 C611 0.959 . S
H600 C614 0.929 . S
H601 C615 0.931 . S
H602 C617 0.930 . S
C603 H591 0.930 . S
C603 C604 1.399 . S
C603 C608 1.399 . S
C604 C603 1.399 . S
C604 C605 1.376 . S
C605 H592 0.930 . S
C605 C604 1.376 . S
C605 C606 1.388 . S
C606 H593 0.930 . S
C606 C605 1.388 . S
C606 C607 1.390 . S
C607 C606 1.390 . S
C607 C608 1.394 . S
C607 C613 1.465 . S
C608 C603 1.399 . S
C608 C607 1.394 . S
C608 C609 1.516 . S
C609 C608 1.516 . S
C609 C610 1.502 . S
C609 C611 1.561 . S
C609 C612 1.526 1_554 S
C610 H594 0.959 . S
C610 H595 0.959 1_554 S
C610 H596 0.961 . S
C610 C609 1.502 . S
C611 H597 0.960 . S
C611 H598 0.961 1_554 S
C611 H599 0.959 . S
C611 C609 1.561 . S
C612 C609 1.526 1_556 S
C612 C613 1.396 1_556 S
C612 C617 1.390 . S
C613 C607 1.465 . S
C613 C612 1.396 1_554 S
C613 C614 1.399 1_554 S
C614 H600 0.929 . S
C614 C613 1.399 1_556 S
C614 C615 1.385 . S
C615 H601 0.931 . S
C615 C614 1.385 . S
C615 C616 1.389 . S
C616 C615 1.389 . S
C616 C617 1.387 . S
C617 H602 0.930 . S
C617 C612 1.390 . S
C617 C616 1.387 . S
H618 C630 0.930 . S
H619 C632 0.930 . S
H620 C633 0.930 . S
H621 C637 0.959 . S
H622 C637 0.959 . S
H623 C637 0.961 1_554 S
H624 C638 0.960 . S
H625 C638 0.961 . S
H626 C638 0.959 . S
H627 C641 0.929 . S
H628 C642 0.931 . S
H629 C644 0.930 . S
C630 H618 0.930 . S
C630 C631 1.399 . S
C630 C635 1.399 . S
C631 C630 1.399 . S
C631 C632 1.376 . S
C632 H619 0.930 . S
C632 C631 1.376 . S
C632 C633 1.388 . S
C633 H620 0.930 . S
C633 C632 1.388 . S
C633 C634 1.390 1_554 S
C634 C633 1.390 1_556 S
C634 C635 1.394 1_556 S
C634 C640 1.465 . S
C635 C630 1.399 . S
C635 C634 1.394 1_554 S
C635 C636 1.516 1_554 S
C636 C635 1.516 1_556 S
C636 C637 1.502 . S
C636 C638 1.561 . S
C636 C639 1.526 . S
C637 H621 0.959 . S
C637 H622 0.959 . S
C637 H623 0.961 1_556 S
C637 C636 1.502 . S
C638 H624 0.960 . S
C638 H625 0.961 . S
C638 H626 0.959 . S
C638 C636 1.561 . S
C639 C636 1.526 . S
C639 C640 1.396 . S
C639 C644 1.390 . S
C640 C634 1.465 . S
C640 C639 1.396 . S
C640 C641 1.399 . S
C641 H627 0.929 . S
C641 C640 1.399 . S
C641 C642 1.385 . S
C642 H628 0.931 . S
C642 C641 1.385 . S
C642 C643 1.389 . S
C643 C642 1.389 . S
C643 C644 1.387 . S
C644 H629 0.930 . S
C644 C639 1.390 . S
C644 C643 1.387 . S
H645 C657 0.930 . S
H646 C659 0.930 . S
H647 C660 0.930 . S
H648 C664 0.959 . S
H649 C664 0.959 . S
H650 C664 0.961 . S
H651 C665 0.960 . S
H652 C665 0.961 . S
H653 C665 0.959 . S
H654 C668 0.929 . S
H655 C669 0.931 . S
H656 C671 0.930 . S
C657 H645 0.930 . S
C657 C658 1.399 . S
C657 C662 1.399 . S
C658 C657 1.399 . S
C658 C659 1.376 . S
C659 H646 0.930 . S
C659 C658 1.376 . S
C659 C660 1.388 . S
C660 H647 0.930 . S
C660 C659 1.388 . S
C660 C661 1.390 . S
C661 C660 1.390 . S
C661 C662 1.394 . S
C661 C667 1.465 . S
C662 C657 1.399 . S
C662 C661 1.394 . S
C662 C663 1.516 . S
C663 C662 1.516 . S
C663 C664 1.502 . S
C663 C665 1.561 . S
C663 C666 1.526 . S
C664 H648 0.959 . S
C664 H649 0.959 . S
C664 H650 0.961 . S
C664 C663 1.502 . S
C665 H651 0.960 . S
C665 H652 0.961 . S
C665 H653 0.959 . S
C665 C663 1.561 . S
C666 C663 1.526 . S
C666 C667 1.396 . S
C666 C671 1.390 1_556 S
C667 C661 1.465 . S
C667 C666 1.396 . S
C667 C668 1.399 1_556 S
C668 H654 0.929 . S
C668 C667 1.399 1_554 S
C668 C669 1.385 . S
C669 H655 0.931 . S
C669 C668 1.385 . S
C669 C670 1.389 . S
C670 C669 1.389 . S
C670 C671 1.387 . S
C671 H656 0.930 . S
C671 C666 1.390 1_554 S
C671 C670 1.387 . S
H672 C684 0.930 . S
H673 C686 0.930 . S
H674 C687 0.930 . S
H675 C691 0.959 . S
H676 C691 0.959 . S
H677 C691 0.961 . S
H678 C692 0.960 . S
H679 C692 0.961 . S
H680 C692 0.959 . S
H681 C695 0.929 . S
H682 C696 0.931 . S
H683 C698 0.930 . S
C684 H672 0.930 . S
C684 C685 1.399 . S
C684 C689 1.399 . S
C685 C684 1.399 . S
C685 C686 1.376 . S
C686 H673 0.930 . S
C686 C685 1.376 . S
C686 C687 1.388 . S
C687 H674 0.930 . S
C687 C686 1.388 . S
C687 C688 1.390 . S
C688 C687 1.390 . S
C688 C689 1.394 . S
C688 C694 1.465 . S
C689 C684 1.399 . S
C689 C688 1.394 . S
C689 C690 1.516 . S
C690 C689 1.516 . S
C690 C691 1.502 . S
C690 C692 1.561 . S
C690 C693 1.526 . S
C691 H675 0.959 . S
C691 H676 0.959 . S
C691 H677 0.961 . S
C691 C690 1.502 . S
C692 H678 0.960 . S
C692 H679 0.961 . S
C692 H680 0.959 . S
C692 C690 1.561 . S
C693 C690 1.526 . S
C693 C694 1.396 . S
C693 C698 1.390 . S
C694 C688 1.465 . S
C694 C693 1.396 . S
C694 C695 1.399 . S
C695 H681 0.929 . S
C695 C694 1.399 . S
C695 C696 1.385 . S
C696 H682 0.931 . S
C696 C695 1.385 . S
C696 C697 1.389 . S
C697 C696 1.389 . S
C697 C698 1.387 . S
C698 H683 0.930 . S
C698 C693 1.390 . S
C698 C697 1.387 . S
H699 C711 0.930 . S
H700 C713 0.930 . S
H701 C714 0.930 . S
H702 C718 0.959 . S
H703 C718 0.959 . S
H704 C718 0.961 . S
H705 C719 0.960 . S
H706 C719 0.961 . S
H707 C719 0.959 . S
H708 C722 0.929 . S
H709 C723 0.931 . S
H710 C725 0.930 . S
C711 H699 0.930 . S
C711 C712 1.399 . S
C711 C716 1.399 . S
C712 C711 1.399 . S
C712 C713 1.376 . S
C713 H700 0.930 . S
C713 C712 1.376 . S
C713 C714 1.388 . S
C714 H701 0.930 . S
C714 C713 1.388 . S
C714 C715 1.390 . S
C715 C714 1.390 . S
C715 C716 1.394 . S
C715 C721 1.465 . S
C716 C711 1.399 . S
C716 C715 1.394 . S
C716 C717 1.516 . S
C717 C716 1.516 . S
C717 C718 1.502 . S
C717 C719 1.561 . S
C717 C720 1.526 . S
C718 H702 0.959 . S
C718 H703 0.959 . S
C718 H704 0.961 . S
C718 C717 1.502 . S
C719 H705 0.960 . S
C719 H706 0.961 . S
C719 H707 0.959 . S
C719 C717 1.561 . S
C720 C717 1.526 . S
C720 C721 1.396 . S
C720 C725 1.390 . S
C721 C715 1.465 . S
C721 C720 1.396 . S
C721 C722 1.399 . S
C722 H708 0.929 . S
C722 C721 1.399 . S
C722 C723 1.385 . S
C723 H709 0.931 . S
C723 C722 1.385 . S
C723 C724 1.389 . S
C724 C723 1.389 . S
C724 C725 1.387 . S
C725 H710 0.930 . S
C725 C720 1.390 . S
C725 C724 1.387 . S
H726 C738 0.930 . S
H727 C740 0.930 . S
H728 C741 0.930 . S
H729 C745 0.959 . S
H730 C745 0.959 . S
H731 C745 0.961 . S
H732 C746 0.960 . S
H733 C746 0.961 . S
H734 C746 0.959 . S
H735 C749 0.929 . S
H736 C750 0.931 . S
H737 C752 0.930 . S
C738 H726 0.930 . S
C738 C739 1.399 . S
C738 C743 1.399 . S
C739 C738 1.399 . S
C739 C740 1.376 . S
C740 H727 0.930 . S
C740 C739 1.376 . S
C740 C741 1.388 . S
C741 H728 0.930 . S
C741 C740 1.388 . S
C741 C742 1.390 . S
C742 C741 1.390 . S
C742 C743 1.394 . S
C742 C748 1.465 . S
C743 C738 1.399 . S
C743 C742 1.394 . S
C743 C744 1.516 . S
C744 C743 1.516 . S
C744 C745 1.502 . S
C744 C746 1.561 . S
C744 C747 1.526 . S
C745 H729 0.959 . S
C745 H730 0.959 . S
C745 H731 0.961 . S
C745 C744 1.502 . S
C746 H732 0.960 . S
C746 H733 0.961 . S
C746 H734 0.959 . S
C746 C744 1.561 . S
C747 C744 1.526 . S
C747 C748 1.396 . S
C747 C752 1.390 . S
C748 C742 1.465 . S
C748 C747 1.396 . S
C748 C749 1.399 . S
C749 H735 0.929 . S
C749 C748 1.399 . S
C749 C750 1.385 . S
C750 H736 0.931 . S
C750 C749 1.385 . S
C750 C751 1.389 . S
C751 C750 1.389 . S
C751 C752 1.387 . S
C752 H737 0.930 . S
C752 C747 1.390 . S
C752 C751 1.387 . S
H753 C765 0.930 . S
H754 C767 0.930 . S
H755 C768 0.930 . S
H756 C772 0.959 . S
H757 C772 0.959 . S
H758 C772 0.961 . S
H759 C773 0.960 . S
H760 C773 0.961 . S
H761 C773 0.959 . S
H762 C776 0.929 . S
H763 C777 0.931 . S
H764 C779 0.930 . S
C765 H753 0.930 . S
C765 C766 1.399 . S
C765 C770 1.399 . S
C766 C765 1.399 . S
C766 C767 1.376 . S
C767 H754 0.930 . S
C767 C766 1.376 . S
C767 C768 1.388 . S
C768 H755 0.930 . S
C768 C767 1.388 . S
C768 C769 1.390 . S
C769 C768 1.390 . S
C769 C770 1.394 . S
C769 C775 1.465 . S
C770 C765 1.399 . S
C770 C769 1.394 . S
C770 C771 1.516 . S
C771 C770 1.516 . S
C771 C772 1.502 . S
C771 C773 1.561 . S
C771 C774 1.526 . S
C772 H756 0.959 . S
C772 H757 0.959 . S
C772 H758 0.961 . S
C772 C771 1.502 . S
C773 H759 0.960 . S
C773 H760 0.961 . S
C773 H761 0.959 . S
C773 C771 1.561 . S
C774 C771 1.526 . S
C774 C775 1.396 . S
C774 C779 1.390 . S
C775 C769 1.465 . S
C775 C774 1.396 . S
C775 C776 1.399 . S
C776 H762 0.929 . S
C776 C775 1.399 . S
C776 C777 1.385 . S
C777 H763 0.931 . S
C777 C776 1.385 . S
C777 C778 1.389 . S
C778 C777 1.389 . S
C778 C779 1.387 . S
C779 H764 0.930 . S
C779 C774 1.390 . S
C779 C778 1.387 . S
H780 C792 0.930 . S
H781 C794 0.930 . S
H782 C795 0.930 . S
H783 C799 0.959 . S
H784 C799 0.959 . S
H785 C799 0.961 . S
H786 C800 0.960 . S
H787 C800 0.961 . S
H788 C800 0.959 . S
H789 C803 0.929 . S
H790 C804 0.931 . S
H791 C806 0.930 . S
C792 H780 0.930 . S
C792 C793 1.399 . S
C792 C797 1.399 . S
C793 C792 1.399 . S
C793 C794 1.376 . S
C794 H781 0.930 . S
C794 C793 1.376 . S
C794 C795 1.388 . S
C795 H782 0.930 . S
C795 C794 1.388 . S
C795 C796 1.390 . S
C796 C795 1.390 . S
C796 C797 1.394 . S
C796 C802 1.465 . S
C797 C792 1.399 . S
C797 C796 1.394 . S
C797 C798 1.516 . S
C798 C797 1.516 . S
C798 C799 1.502 . S
C798 C800 1.561 . S
C798 C801 1.526 . S
C799 H783 0.959 . S
C799 H784 0.959 . S
C799 H785 0.961 . S
C799 C798 1.502 . S
C800 H786 0.960 . S
C800 H787 0.961 . S
C800 H788 0.959 . S
C800 C798 1.561 . S
C801 C798 1.526 . S
C801 C802 1.396 . S
C801 C806 1.390 1_455 S
C802 C796 1.465 . S
C802 C801 1.396 . S
C802 C803 1.399 . S
C803 H789 0.929 . S
C803 C802 1.399 . S
C803 C804 1.385 1_455 S
C804 H790 0.931 . S
C804 C803 1.385 1_655 S
C804 C805 1.389 . S
C805 C804 1.389 . S
C805 C806 1.387 . S
C806 H791 0.930 . S
C806 C801 1.390 1_655 S
C806 C805 1.387 . S
H807 C819 0.930 . S
H808 C821 0.930 . S
H809 C822 0.930 . S
H810 C826 0.959 . S
H811 C826 0.959 . S
H812 C826 0.961 . S
H813 C827 0.960 . S
H814 C827 0.961 . S
H815 C827 0.959 . S
H816 C830 0.929 . S
H817 C831 0.931 . S
H818 C833 0.930 . S
C819 H807 0.930 . S
C819 C820 1.399 . S
C819 C824 1.399 . S
C820 C819 1.399 . S
C820 C821 1.376 . S
C821 H808 0.930 . S
C821 C820 1.376 . S
C821 C822 1.388 . S
C822 H809 0.930 . S
C822 C821 1.388 . S
C822 C823 1.390 . S
C823 C822 1.390 . S
C823 C824 1.394 . S
C823 C829 1.465 . S
C824 C819 1.399 . S
C824 C823 1.394 . S
C824 C825 1.516 . S
C825 C824 1.516 . S
C825 C826 1.502 . S
C825 C827 1.561 . S
C825 C828 1.526 . S
C826 H810 0.959 . S
C826 H811 0.959 . S
C826 H812 0.961 . S
C826 C825 1.502 . S
C827 H813 0.960 . S
C827 H814 0.961 . S
C827 H815 0.959 . S
C827 C825 1.561 . S
C828 C825 1.526 . S
C828 C829 1.396 . S
C828 C833 1.390 1_655 S
C829 C823 1.465 . S
C829 C828 1.396 . S
C829 C830 1.399 . S
C830 H816 0.929 . S
C830 C829 1.399 . S
C830 C831 1.385 1_655 S
C831 H817 0.931 . S
C831 C830 1.385 1_455 S
C831 C832 1.389 . S
C832 C831 1.389 . S
C832 C833 1.387 . S
C833 H818 0.930 . S
C833 C828 1.390 1_455 S
C833 C832 1.387 . S
H834 C846 0.930 . S
H835 C848 0.930 . S
H836 C849 0.930 . S
H837 C853 0.959 . S
H838 C853 0.959 . S
H839 C853 0.961 . S
H840 C854 0.960 . S
H841 C854 0.961 . S
H842 C854 0.959 1_554 S
H843 C857 0.929 . S
H844 C858 0.931 . S
H845 C860 0.930 . S
C846 H834 0.930 . S
C846 C847 1.399 1_556 S
C846 C851 1.399 . S
C847 C846 1.399 1_554 S
C847 C848 1.376 . S
C848 H835 0.930 . S
C848 C847 1.376 . S
C848 C849 1.388 . S
C849 H836 0.930 . S
C849 C848 1.388 . S
C849 C850 1.390 . S
C850 C849 1.390 . S
C850 C851 1.394 1_554 S
C850 C856 1.465 . S
C851 C846 1.399 . S
C851 C850 1.394 1_556 S
C851 C852 1.516 . S
C852 C851 1.516 . S
C852 C853 1.502 . S
C852 C854 1.561 . S
C852 C855 1.526 . S
C853 H837 0.959 . S
C853 H838 0.959 . S
C853 H839 0.961 . S
C853 C852 1.502 . S
C854 H840 0.960 . S
C854 H841 0.961 . S
C854 H842 0.959 1_556 S
C854 C852 1.561 . S
C855 C852 1.526 . S
C855 C856 1.396 1_556 S
C855 C860 1.390 . S
C856 C850 1.465 . S
C856 C855 1.396 1_554 S
C856 C857 1.399 . S
C857 H843 0.929 . S
C857 C856 1.399 . S
C857 C858 1.385 . S
C858 H844 0.931 . S
C858 C857 1.385 . S
C858 C859 1.389 . S
C859 C858 1.389 . S
C859 C860 1.387 1_554 S
C860 H845 0.930 . S
C860 C855 1.390 . S
C860 C859 1.387 1_556 S
H861 C873 0.930 . S
H862 C875 0.930 . S
H863 C876 0.930 . S
H864 C880 0.959 . S
H865 C880 0.959 . S
H866 C880 0.961 . S
H867 C881 0.960 . S
H868 C881 0.961 . S
H869 C881 0.959 . S
H870 C884 0.929 . S
H871 C885 0.931 . S
H872 C887 0.930 . S
C873 H861 0.930 . S
C873 C874 1.399 . S
C873 C878 1.399 . S
C874 C873 1.399 . S
C874 C875 1.376 . S
C875 H862 0.930 . S
C875 C874 1.376 . S
C875 C876 1.388 . S
C876 H863 0.930 . S
C876 C875 1.388 . S
C876 C877 1.390 . S
C877 C876 1.390 . S
C877 C878 1.394 . S
C877 C883 1.465 1_556 S
C878 C873 1.399 . S
C878 C877 1.394 . S
C878 C879 1.516 . S
C879 C878 1.516 . S
C879 C880 1.502 . S
C879 C881 1.561 1_556 S
C879 C882 1.526 . S
C880 H864 0.959 . S
C880 H865 0.959 . S
C880 H866 0.961 . S
C880 C879 1.502 . S
C881 H867 0.960 . S
C881 H868 0.961 . S
C881 H869 0.959 . S
C881 C879 1.561 1_554 S
C882 C879 1.526 . S
C882 C883 1.396 1_556 S
C882 C887 1.390 1_556 S
C883 C877 1.465 1_554 S
C883 C882 1.396 1_554 S
C883 C884 1.399 . S
C884 H870 0.929 . S
C884 C883 1.399 . S
C884 C885 1.385 . S
C885 H871 0.931 . S
C885 C884 1.385 . S
C885 C886 1.389 . S
C886 C885 1.389 . S
C886 C887 1.387 . S
C887 H872 0.930 . S
C887 C882 1.390 1_554 S
C887 C886 1.387 . S
C253 C16 2.357 . S
C265 C237 2.340 . S
C280 N186 1.479 . S
C292 N44 1.412 . S
C307 N164 1.452 . S
C319 N66 1.430 . S
C334 C136 2.335 . S
C346 C117 2.356 . S
C361 C61 1.609 . S
C373 C10 1.606 . S
C388 C31 1.625 . S
C400 C100 1.619 . S
C415 C91 1.619 . S
C427 C40 1.607 . S
C442 C70 1.651 . S
C454 C1 1.615 . S
C469 C130 1.624 . S
C481 C181 1.607 . S
C496 C151 1.622 . S
C508 C220 1.619 . S
C523 C211 1.602 . S
C535 C160 1.607 . S
C550 C190 1.593 . S
C562 C121 1.658 . S
C577 N14 0.367 . S
C589 N6 0.575 . S
C604 C46 2.744 . S
C616 C57 2.745 . S
C631 C76 2.745 . S
C643 C87 2.745 . S
C658 N96 0.510 . S
C670 N104 0.417 . S
C685 N126 0.463 . S
C697 N134 0.526 . S
C712 C166 2.745 . S
C724 C177 2.744 . S
C739 C207 2.743 . S
C751 C196 2.746 . S
C766 N216 0.407 . S
C778 N224 0.561 . S
C793 C27 1.637 . S
C805 N36 1.538 . S
C820 C106 1.645 . S
C832 N74 1.554 . S
C847 C147 1.637 . S
C859 N156 1.539 . S
C874 C226 1.646 . S
C886 N194 1.557 1_554 S
