# Generated by pormake.
# Topology vmo, (7)-cn, num edge types: 1
# Building blocks:
#     Node 0, Type 0, BuildingBlock: NUHQUE_clean_sbu_2, # of connection points: 7
#     Node 1, Type 0, BuildingBlock: NUHQUE_clean_sbu_2, # of connection points: 7
#     Node 2, Type 0, BuildingBlock: NUHQUE_clean_sbu_2, # of connection points: 7
#     Node 3, Type 0, BuildingBlock: NUHQUE_clean_sbu_2, # of connection points: 7
#     Node 4, Type 0, BuildingBlock: NUHQUE_clean_sbu_2, # of connection points: 7
#     Node 5, Type 0, BuildingBlock: NUHQUE_clean_sbu_2, # of connection points: 7
#     Node 6, Type 0, BuildingBlock: NUHQUE_clean_sbu_2, # of connection points: 7
#     Node 7, Type 0, BuildingBlock: NUHQUE_clean_sbu_2, # of connection points: 7
#     Edge 8, Type (0, 0), BuildingBlock: TEMPAE_clean_linker_10, # of connection points: 2
#     Edge 9, Type (0, 0), BuildingBlock: TEMPAE_clean_linker_10, # of connection points: 2
#     Edge 10, Type (0, 0), BuildingBlock: TEMPAE_clean_linker_10, # of connection points: 2
#     Edge 11, Type (0, 0), BuildingBlock: TEMPAE_clean_linker_10, # of connection points: 2
#     Edge 12, Type (0, 0), BuildingBlock: TEMPAE_clean_linker_10, # of connection points: 2
#     Edge 13, Type (0, 0), BuildingBlock: TEMPAE_clean_linker_10, # of connection points: 2
#     Edge 14, Type (0, 0), BuildingBlock: TEMPAE_clean_linker_10, # of connection points: 2
#     Edge 15, Type (0, 0), BuildingBlock: TEMPAE_clean_linker_10, # of connection points: 2
#     Edge 16, Type (0, 0), BuildingBlock: TEMPAE_clean_linker_10, # of connection points: 2
#     Edge 17, Type (0, 0), BuildingBlock: TEMPAE_clean_linker_10, # of connection points: 2
#     Edge 18, Type (0, 0), BuildingBlock: TEMPAE_clean_linker_10, # of connection points: 2
#     Edge 19, Type (0, 0), BuildingBlock: TEMPAE_clean_linker_10, # of connection points: 2
#     Edge 20, Type (0, 0), BuildingBlock: TEMPAE_clean_linker_10, # of connection points: 2
#     Edge 21, Type (0, 0), BuildingBlock: TEMPAE_clean_linker_10, # of connection points: 2
#     Edge 22, Type (0, 0), BuildingBlock: TEMPAE_clean_linker_10, # of connection points: 2
#     Edge 23, Type (0, 0), BuildingBlock: TEMPAE_clean_linker_10, # of connection points: 2
#     Edge 24, Type (0, 0), BuildingBlock: TEMPAE_clean_linker_10, # of connection points: 2
#     Edge 25, Type (0, 0), BuildingBlock: TEMPAE_clean_linker_10, # of connection points: 2
#     Edge 26, Type (0, 0), BuildingBlock: TEMPAE_clean_linker_10, # of connection points: 2
#     Edge 27, Type (0, 0), BuildingBlock: TEMPAE_clean_linker_10, # of connection points: 2
#     Edge 28, Type (0, 0), BuildingBlock: TEMPAE_clean_linker_10, # of connection points: 2
#     Edge 29, Type (0, 0), BuildingBlock: TEMPAE_clean_linker_10, # of connection points: 2
#     Edge 30, Type (0, 0), BuildingBlock: TEMPAE_clean_linker_10, # of connection points: 2
#     Edge 31, Type (0, 0), BuildingBlock: TEMPAE_clean_linker_10, # of connection points: 2
#     Edge 32, Type (0, 0), BuildingBlock: TEMPAE_clean_linker_10, # of connection points: 2
#     Edge 33, Type (0, 0), BuildingBlock: TEMPAE_clean_linker_10, # of connection points: 2
#     Edge 34, Type (0, 0), BuildingBlock: TEMPAE_clean_linker_10, # of connection points: 2
#     Edge 35, Type (0, 0), BuildingBlock: TEMPAE_clean_linker_10, # of connection points: 2
# Relax obj value: 0.231
# Max RMSD: 0.262
# Mean RMSD: 0.262
data_MOF--net-vmo--node1-NUHQUE_clean_sbu_2--edge1-TEMPAE_clean_linker_10
_symmetry_space_group_name_H-M    P1
_symmetry_Int_Tables_number       1
_symmetry_cell_setting            triclinic
loop_
_symmetry_equiv_pos_as_xyz
'x, y, z'
_cell_length_a     33.145669
_cell_length_b     59.450359
_cell_length_c     26.916063
_cell_angle_alpha  90.069955
_cell_angle_beta   112.52308
_cell_angle_gamma 89.678269
loop_
_atom_site_label
_atom_site_type_symbol
_atom_site_fract_x
_atom_site_fract_y
_atom_site_fract_z
_atom_type_partial_charge
O0 O 0.25959 0.45311 0.28112 0.0
Tb1 Tb 0.23429 0.4328 0.20758 0.0
Eu2 Eu 0.21441 0.39094 0.10398 0.0
C3 C 0.26487 0.4446 0.3285 0.0
O4 O 0.2612 0.42277 0.3327 0.0
C5 C 0.18337 0.39079 0.20408 0.0
O6 O 0.17554 0.38311 1.01379 0.0
C7 C 0.28442 0.36604 0.14781 0.0
C8 C 0.15066 0.39879 0.98079 0.0
O9 O 0.14849 0.41861 1.00121 0.0
C10 C 0.25871 0.44087 0.10798 0.0
C11 C 0.3235 0.35487 0.14329 0.0
C12 C 0.36652 0.36295 0.17131 0.0
C13 C 0.40316 0.35052 0.17142 0.0
C14 C 0.39639 0.32972 0.14473 0.0
C15 C 0.35424 0.32106 0.11853 0.0
C16 C 0.31817 0.33391 0.11713 0.0
O17 O 0.2223 0.39945 0.23122 0.0
O18 O 0.17 0.38856 0.15124 0.0
O19 O 0.17622 0.45253 0.19876 0.0
O20 O 0.17664 0.43201 0.13417 0.0
C21 C 0.15328 0.44511 0.15091 0.0
O22 O 0.23061 0.4253 0.08058 0.0
O23 O 0.27362 0.44218 0.16127 0.0
O24 O 0.24563 0.35821 0.11771 0.0
O25 O 0.28426 0.38789 0.15565 0.0
H26 H 0.37156 0.37858 0.19358 0.0
H27 H 0.42435 0.31983 0.14589 0.0
H28 H 0.28581 0.32681 0.09809 0.0
O29 O 0.86058 0.45746 0.29318 0.0
Tb30 Tb 0.88601 0.43713 0.36701 0.0
Eu31 Eu 0.90886 0.39132 0.45492 0.0
C32 C 0.88734 0.46432 0.27051 0.0
O33 O 0.929 0.45922 0.29416 0.0
C34 C 0.94641 0.39851 0.36013 0.0
O35 O 0.94736 0.38356 0.5449 0.0
C36 C 0.84439 0.36366 0.409 0.0
C37 C 0.98805 0.39056 0.57068 0.0
O38 O 1.00759 0.40048 0.54246 0.0
C39 C 0.85036 0.43542 0.45661 0.0
C40 C 0.80679 0.35186 0.41519 0.0
C41 C 0.76275 0.35791 0.38421 0.0
C42 C 0.72771 0.34467 0.38567 0.0
C43 C 0.73767 0.3256 0.41939 0.0
C44 C 0.78097 0.31905 0.44918 0.0
C45 C 0.81508 0.33238 0.44729 0.0
O46 O 0.90951 0.4092 0.33247 0.0
O47 O 0.95619 0.39294 0.41116 0.0
O48 O 0.94011 0.43227 0.44269 0.0
O49 O 0.93114 0.46452 0.40553 0.0
C50 C 0.95436 0.45261 0.44745 0.0
O51 O 0.88303 0.42182 0.4837 0.0
O52 O 0.83743 0.43782 0.40374 0.0
O53 O 0.88404 0.35733 0.44097 0.0
O54 O 0.84134 0.38539 0.39874 0.0
H55 H 0.75589 0.37228 0.35746 0.0
H56 H 0.71148 0.31553 0.42221 0.0
H57 H 0.84841 0.32682 0.46907 0.0
O58 O 0.82855 0.54875 0.76545 0.0
Tb59 Tb 0.85907 0.56176 0.84779 0.0
Eu60 Eu 0.89982 0.60286 0.95245 0.0
C61 C 0.85586 0.54265 0.74266 0.0
O62 O 0.89778 0.54558 0.77037 0.0
C63 C 0.93145 0.59671 0.85359 0.0
O64 O 0.94562 0.6111 0.03963 0.0
C65 C 0.83346 0.63015 0.90857 0.0
C66 C 0.93625 0.60553 0.08168 0.0
O67 O 0.8977 0.59694 0.07269 0.0
C68 C 0.84102 0.56081 0.95225 0.0
C69 C 0.79346 0.64037 0.91276 0.0
C70 C 0.75086 0.63206 0.88301 0.0
C71 C 0.71352 0.64336 0.88433 0.0
C72 C 0.71914 0.66325 0.91439 0.0
C73 C 0.76083 0.6722 0.94226 0.0
C74 C 0.79761 0.66047 0.94195 0.0
O75 O 0.89154 0.58961 0.82421 0.0
O76 O 0.94397 0.59973 0.90599 0.0
O77 O 0.87622 0.52652 0.86256 0.0
O78 O 0.92387 0.55155 0.90221 0.0
C79 C 0.91581 0.53014 0.89602 0.0
O80 O 0.87865 0.5707 0.97783 0.0
O81 O 0.8209 0.56219 0.89912 0.0
O82 O 0.87188 0.63649 0.94362 0.0
O83 O 0.83279 0.60887 0.89496 0.0
H84 H 0.74668 0.6171 0.85855 0.0
H85 H 0.69057 0.67244 0.9137 0.0
H86 H 0.82973 0.66744 0.96367 0.0
O87 O 0.28184 0.55358 0.80764 0.0
Tb88 Tb 0.23767 0.56004 0.72435 0.0
Eu89 Eu 0.19874 0.59764 0.59857 0.0
C90 C 0.26879 0.55897 0.84675 0.0
O91 O 0.23652 0.57345 0.83599 0.0
C92 C 0.16929 0.5987 0.70014 0.0
O93 O 0.16082 0.60938 0.51135 0.0
C94 C 0.27757 0.6138 0.64768 0.0
C95 C 0.15563 0.59513 0.4714 0.0
O96 O 0.17562 0.57557 0.48368 0.0
C97 C 0.23544 0.54829 0.61191 0.0
C98 C 0.31013 0.63037 0.64505 0.0
C99 C 0.35538 0.62627 0.67302 0.0
C100 C 0.38673 0.64263 0.67449 0.0
C101 C 0.3716 0.66297 0.64648 0.0
C102 C 0.32674 0.66752 0.61949 0.0
C103 C 0.29629 0.65098 0.61842 0.0
O104 O 0.21021 0.59309 0.73019 0.0
O105 O 0.15592 0.60011 0.6472 0.0
O106 O 0.2173 0.52744 0.74323 0.0
O107 O 0.16964 0.55003 0.69176 0.0
C108 C 0.17602 0.53086 0.71655 0.0
O109 O 0.19877 0.55984 0.59286 0.0
O110 O 0.26296 0.55138 0.66215 0.0
O111 O 0.24263 0.62178 0.65374 0.0
O112 O 0.26889 0.59649 0.61499 0.0
H113 H 0.36591 0.61066 0.69505 0.0
H114 H 0.39488 0.67548 0.64541 0.0
H115 H 0.26164 0.65443 0.59845 0.0
O116 O 0.74937 0.93886 0.30226 0.0
Tb117 Tb 0.70608 0.93465 0.21757 0.0
Eu118 Eu 0.66129 0.89555 0.10399 0.0
C119 C 0.73095 0.93935 0.33799 0.0
O120 O 0.68954 0.93392 0.32159 0.0
C121 C 0.62735 0.90157 0.20003 0.0
O122 O 0.62496 0.88772 1.01393 0.0
C123 C 0.72886 0.86945 0.15225 0.0
C124 C 0.59104 0.90026 0.98432 0.0
O125 O 0.5785 0.91646 1.00854 0.0
C126 C 0.71661 0.93942 0.1078 0.0
C127 C 0.76779 0.85798 0.1482 0.0
C128 C 0.81088 0.86534 0.1789 0.0
C129 C 0.84747 0.85315 0.17824 0.0
C130 C 0.84056 0.83335 0.14776 0.0
C131 C 0.79829 0.82528 0.11893 0.0
C132 C 0.76221 0.83787 0.1186 0.0
O133 O 0.66773 0.90708 0.23142 0.0
O134 O 0.61539 0.89861 0.14776 0.0
O135 O 0.70274 0.97008 0.23462 0.0
O136 O 0.64732 0.95464 0.17627 0.0
C137 C 0.66323 0.9735 0.20047 0.0
O138 O 0.67859 0.92969 0.08364 0.0
O139 O 0.739 0.93667 0.16019 0.0
O140 O 0.68978 0.86204 0.12177 0.0
O141 O 0.72976 0.89135 0.15881 0.0
H142 H 0.81597 0.88027 0.20362 0.0
H143 H 0.86852 0.82376 0.14785 0.0
H144 H 0.72968 0.83134 0.0972 0.0
O145 O 0.34286 0.94597 0.23489 0.0
Tb146 Tb 0.36168 0.93413 0.31749 0.0
Eu147 Eu 0.3629 0.88686 0.45495 0.0
C148 C 0.37503 0.95104 0.21955 0.0
O149 O 0.41516 0.94642 0.25241 0.0
C150 C 0.39593 0.88626 0.3595 0.0
O151 O 0.39926 0.88246 0.54641 0.0
C152 C 0.28347 0.87117 0.41323 0.0
C153 C 0.43104 0.8964 0.57414 0.0
O154 O 0.44141 0.91242 0.54764 0.0
C155 C 0.33323 0.93626 0.41012 0.0
C156 C 0.24994 0.85674 0.42118 0.0
C157 C 0.20502 0.86169 0.39396 0.0
C158 C 0.1726 0.8466 0.39551 0.0
C159 C 0.18632 0.82658 0.42558 0.0
C160 C 0.23089 0.82121 0.45196 0.0
C161 C 0.26236 0.83661 0.45033 0.0
O162 O 0.3603 0.89877 0.33859 0.0
O163 O 0.40361 0.87658 0.40662 0.0
O164 O 0.39797 0.96233 0.36385 0.0
O165 O 0.4327 0.93323 0.35557 0.0
C166 C 0.43615 0.95309 0.37676 0.0
O167 O 0.36616 0.92199 0.4254 0.0
O168 O 0.32176 0.9447 0.36132 0.0
O169 O 0.31789 0.86086 0.41057 0.0
O170 O 0.29292 0.89062 0.43839 0.0
H171 H 0.19549 0.8768 0.36969 0.0
H172 H 0.16222 0.81471 0.42726 0.0
H173 H 0.29676 0.83261 0.47067 0.0
O174 O 0.39629 0.04213 0.75692 0.0
Tb175 Tb 0.43027 0.0529 0.8396 0.0
Eu176 Eu 0.41977 0.0994 0.9767 0.0
C177 C 0.41911 0.03433 0.72996 0.0
O178 O 0.46193 0.03534 0.75219 0.0
C179 C 0.45273 0.10225 0.88165 0.0
O180 O 0.45475 0.10555 0.06744 0.0
C181 C 0.33824 0.1125 0.93362 0.0
C182 C 0.49245 0.09542 0.09481 0.0
O183 O 0.50946 0.08251 0.06813 0.0
C184 C 0.40201 0.04848 0.93394 0.0
C185 C 0.30477 0.12723 0.94137 0.0
C186 C 0.25976 0.12315 0.91256 0.0
C187 C 0.22772 0.13875 0.91392 0.0
C188 C 0.2419 0.15825 0.94565 0.0
C189 C 0.28651 0.16286 0.97314 0.0
C190 C 0.31763 0.14706 0.97158 0.0
O191 O 0.42129 0.08716 0.86361 0.0
O192 O 0.45817 0.11229 0.92778 0.0
O193 O 0.48099 0.02864 0.88361 0.0
O194 O 0.49911 0.05866 0.85641 0.0
C195 C 0.51384 0.04023 0.88265 0.0
O196 O 0.43092 0.0647 0.95005 0.0
O197 O 0.39702 0.03861 0.88811 0.0
O198 O 0.37082 0.12291 0.92713 0.0
O199 O 0.35066 0.09408 0.96283 0.0
H200 H 0.24998 0.10839 0.88719 0.0
H201 H 0.21814 0.17046 0.94749 0.0
H202 H 0.3521 0.15056 0.99253 0.0
O203 O 0.77227 0.03615 0.80029 0.0
Tb204 Tb 0.74546 0.05353 0.72222 0.0
Eu205 Eu 0.71775 0.09725 0.62388 0.0
C206 C 0.76749 0.04459 0.84316 0.0
O207 O 0.754 0.06546 0.84165 0.0
C208 C 0.68163 0.09236 0.71778 0.0
O209 O 0.68053 0.10568 0.53453 0.0
C210 C 0.78473 0.12313 0.67221 0.0
C211 C 0.64995 0.09167 0.5044 0.0
O212 O 0.64111 0.07419 0.52818 0.0
C213 C 0.77094 0.05116 0.62389 0.0
C214 C 0.82283 0.13481 0.6672 0.0
C215 C 0.86637 0.12761 0.69637 0.0
C216 C 0.902 0.14016 0.69469 0.0
C217 C 0.89366 0.16026 0.66482 0.0
C218 C 0.85077 0.16811 0.63754 0.0
C219 C 0.8158 0.15504 0.63799 0.0
O220 O 0.72035 0.08382 0.74667 0.0
O221 O 0.67002 0.09593 0.6658 0.0
O222 O 0.70748 0.02265 0.70529 0.0
O223 O 0.68677 0.0501 0.65034 0.0
C224 C 0.67899 0.02952 0.65955 0.0
O225 O 0.73764 0.06454 0.59792 0.0
O226 O 0.78823 0.05042 0.67731 0.0
O227 O 0.74542 0.13057 0.64204 0.0
O228 O 0.78626 0.10117 0.67889 0.0
H229 H 0.87258 0.11251 0.72071 0.0
H230 H 0.92084 0.17044 0.66525 0.0
H231 H 0.78279 0.16111 0.6164 0.0
C232 C 0.6632 0.3714 0.34256 0.0
C233 C 0.68062 0.34946 0.35067 0.0
C234 C 0.61809 0.37536 0.31306 0.0
C235 C 0.58949 0.35699 0.29135 0.0
C236 C 0.60717 0.33493 0.29839 0.0
C237 C 0.65217 0.33151 0.32714 0.0
C238 C 0.60092 0.39918 0.30574 0.0
C239 C 0.57838 0.31474 0.27612 0.0
C240 C 0.46639 0.35816 0.25849 0.0
C241 C 0.44926 0.35767 0.2021 0.0
C242 C 0.5119 0.35937 0.28825 0.0
C243 C 0.54109 0.36039 0.26104 0.0
C244 C 0.52352 0.36157 0.20407 0.0
C245 C 0.47804 0.35993 0.17541 0.0
C246 C 0.52885 0.35782 0.34875 0.0
C247 C 0.55292 0.36306 0.17307 0.0
H248 H 0.68458 0.38543 0.36039 0.0
H249 H 0.6651 0.31452 0.3315 0.0
H250 H 0.5827 0.40279 0.2624 0.0
H251 H 0.57767 0.40132 0.32605 0.0
H252 H 0.62747 0.41171 0.32236 0.0
H253 H 0.59697 0.29864 0.28594 0.0
H254 H 0.55238 0.31413 0.29255 0.0
H255 H 0.56204 0.31614 0.23177 0.0
H256 H 0.44442 0.35605 0.27934 0.0
H257 H 0.46502 0.3594 0.13182 0.0
H258 H 0.554 0.37082 0.36742 0.0
H259 H 0.5446 0.34116 0.36181 0.0
H260 H 0.50237 0.35985 0.36416 0.0
H261 H 0.57864 0.37586 0.19111 0.0
H262 H 0.53443 0.36737 0.13011 0.0
H263 H 0.56953 0.34664 0.17498 0.0
C264 C 0.4556 0.61824 0.70987 0.0
C265 C 0.43507 0.6393 0.70633 0.0
C266 C 0.50124 0.61556 0.73797 0.0
C267 C 0.5274 0.63438 0.76285 0.0
C268 C 0.5068 0.65556 0.7599 0.0
C269 C 0.46126 0.65768 0.73252 0.0
C270 C 0.52153 0.59258 0.74082 0.0
C271 C 0.53295 0.67619 0.78554 0.0
C272 C 0.63938 0.63122 0.8782 0.0
C273 C 0.66783 0.63598 0.85215 0.0
C274 C 0.59402 0.62903 0.84923 0.0
C275 C 0.57616 0.63223 0.79268 0.0
C276 C 0.60508 0.63597 0.7659 0.0
C277 C 0.65051 0.63766 0.79588 0.0
C278 C 0.56496 0.62462 0.8797 0.0
C279 C 0.58781 0.63978 0.70594 0.0
H280 H 0.43616 0.60388 0.68986 0.0
H281 H 0.44614 0.67393 0.73187 0.0
H282 H 0.54543 0.59295 0.72114 0.0
H283 H 0.53971 0.58772 0.78343 0.0
H284 H 0.49678 0.57948 0.72107 0.0
H285 H 0.51236 0.69159 0.7782 0.0
H286 H 0.54943 0.67366 0.82959 0.0
H287 H 0.55881 0.67897 0.76955 0.0
H288 H 0.65252 0.63012 0.92174 0.0
H289 H 0.67219 0.64174 0.77561 0.0
H290 H 0.54085 0.61134 0.85948 0.0
H291 H 0.54639 0.64013 0.88032 0.0
H292 H 0.58397 0.61938 0.9219 0.0
H293 H 0.56414 0.6265 0.68459 0.0
H294 H 0.61435 0.64004 0.69032 0.0
H295 H 0.57016 0.65613 0.69626 0.0
C296 C 0.92348 0.86257 0.18671 0.0
C297 C 0.89354 0.85952 0.21147 0.0
C298 C 0.96877 0.86363 0.21706 0.0
C299 C 0.98493 0.8611 0.27375 0.0
C300 C 0.95462 0.8592 0.29918 0.0
C301 C 0.90934 0.85856 0.26779 0.0
C302 C 0.99944 0.86607 0.18799 0.0
C303 C 0.9701 0.85624 0.35928 0.0
C304 C 0.09677 0.83276 0.33889 0.0
C305 C 0.12461 0.85078 0.36366 0.0
C306 C 1.0516 0.83593 0.31051 0.0
C307 C 1.03315 0.85778 0.3053 0.0
C308 C 0.06097 0.87618 0.32917 0.0
C309 C 0.10617 0.87247 0.35814 0.0
C310 C 1.02354 0.81573 0.28592 0.0
C311 C 1.04294 0.8998 0.32407 0.0
H312 H 0.91148 0.86316 0.14317 0.0
H313 H 0.88645 0.85584 0.28709 0.0
H314 H 1.02463 0.87891 0.20791 0.0
H315 H 1.01665 0.84987 0.18945 0.0
H316 H 0.98192 0.87089 0.14516 0.0
H317 H 0.94286 0.85757 0.37358 0.0
H318 H 0.98567 0.83944 0.37067 0.0
H319 H 0.99508 0.869 0.38044 0.0
H320 H 0.11033 0.816 0.34115 0.0
H321 H 0.12695 0.88657 0.37712 0.0
H322 H 1.00818 0.8177 0.24159 0.0
H323 H 0.99679 0.81447 0.30095 0.0
H324 H 1.0425 0.79975 0.29518 0.0
H325 H 1.02657 0.90438 0.28097 0.0
H326 H 0.06875 0.91236 0.34417 0.0
H327 H 1.01792 0.90077 0.342 0.0
C328 C 0.97793 0.13116 0.70101 0.0
C329 C 0.94841 0.13368 0.72662 0.0
C330 C 1.02316 0.12882 0.73078 0.0
C331 C 1.0397 0.12963 0.78777 0.0
C332 C 1.00977 0.13125 0.81383 0.0
C333 C 0.96451 0.13305 0.78297 0.0
C334 C 1.05342 0.12662 0.70103 0.0
C335 C 1.02569 0.1326 0.8743 0.0
C336 C 0.15976 0.11459 0.87131 0.0
C337 C 0.17976 0.13584 0.88011 0.0
C338 C 0.11446 0.11218 0.84104 0.0
C339 C 0.08812 0.13147 0.81952 0.0
C340 C 0.10818 0.15287 0.82782 0.0
C341 C 0.15344 0.15473 0.85702 0.0
C342 C 0.09472 0.08899 0.83219 0.0
C343 C 0.08173 0.17399 0.80606 0.0
H344 H 0.96565 0.1317 0.65745 0.0
H345 H 0.94192 0.1353 0.80296 0.0
H346 H 0.07183 0.14248 0.70483 0.0
H347 H 0.07764 0.11297 0.71877 0.0
H348 H 1.0354 0.12307 0.65759 0.0
H349 H 0.99847 0.13165 0.88866 0.0
H350 H 1.04927 0.11883 0.89324 0.0
H351 H 1.0431 0.14872 0.88818 0.0
H352 H 0.17934 0.09982 0.88877 0.0
H353 H 0.16821 0.17119 0.86148 0.0
H354 H 0.07753 0.0858 0.78849 0.0
H355 H 0.07007 0.08784 0.85064 0.0
H356 H 0.11967 0.0756 0.84963 0.0
H357 H 0.06651 0.17324 0.76152 0.0
H358 H 0.10185 0.18945 0.81781 0.0
H359 H 0.0549 0.17533 0.82097 0.0
C360 C 0.33228 0.19755 0.98841 0.0
C361 C 0.30042 0.1852 0.99886 0.0
C362 C 0.34318 0.21948 1.0083 0.0
C363 C 0.32184 0.22932 0.03962 0.0
C364 C 0.29043 0.21674 0.05144 0.0
C365 C 0.27999 0.19487 1.03077 0.0
C366 C 0.37667 0.23236 0.99453 0.0
C367 C 0.26725 0.22654 0.08514 0.0
C368 C 0.37305 0.27994 0.12736 0.0
C369 C 0.3478 0.29777 0.09658 0.0
C370 C 0.36525 0.25762 0.10914 0.0
C371 C 0.3315 0.25298 0.05881 0.0
C372 C 0.30648 0.27094 1.02706 0.0
C373 C 0.31483 0.2931 0.0464 0.0
C374 C 0.3925 0.23895 0.14431 0.0
C375 C 0.27048 0.26673 0.97293 0.0
H376 H 0.34771 0.19033 0.96306 0.0
H377 H 0.25558 0.18535 0.03929 0.0
H378 H 0.36116 0.24742 0.97029 0.0
H379 H 0.40309 0.23838 1.03179 0.0
H380 H 0.39149 0.22201 0.97146 0.0
H381 H 0.24498 0.21427 0.09247 0.0
H382 H 0.29145 0.23224 0.12449 0.0
H383 H 0.24789 0.24151 0.06469 0.0
H384 H 0.39813 0.28339 0.16654 0.0
H385 H 0.29544 0.30682 1.02231 0.0
H386 H 0.40827 0.22891 0.12189 0.0
H387 H 0.37122 0.22738 0.15556 0.0
H388 H 0.41828 0.24541 0.18169 0.0
H389 H 0.28366 0.25755 0.94647 0.0
H390 H 0.25487 0.28257 0.95254 0.0
H391 H 0.24502 0.25597 0.97785 0.0
C392 C 0.82444 0.29572 0.53017 0.0
C393 C 0.79083 0.2973 0.47901 0.0
C394 C 0.83559 0.275 0.55721 0.0
C395 C 0.81259 0.25536 0.53253 0.0
C396 C 0.77841 0.25687 0.48111 0.0
C397 C 0.76797 0.27779 0.455 0.0
C398 C 0.87204 0.27411 0.61214 0.0
C399 C 0.75307 0.23633 0.45344 0.0
C400 C 0.86405 0.19773 0.57885 0.0
C401 C 0.84212 0.19066 0.61143 0.0
C402 C 0.85513 0.21885 0.55332 0.0
C403 C 0.82368 0.23326 0.56076 0.0
C404 C 0.80201 0.22635 0.59432 0.0
C405 C 0.81153 0.20519 0.61925 0.0
C406 C 0.87889 0.22564 0.5178 0.0
C407 C 0.76846 0.24123 0.60355 0.0
H408 H 0.84201 0.31075 0.54914 0.0
H409 H 0.74247 0.27878 0.41511 0.0
H410 H 0.85952 0.26759 0.64208 0.0
H411 H 0.89798 0.26235 0.61162 0.0
H412 H 0.88685 0.29087 0.62568 0.0
H413 H 0.7274 0.24035 0.4135 0.0
H414 H 0.77561 0.22361 0.44792 0.0
H415 H 0.73733 0.22854 0.47884 0.0
H416 H 0.88759 0.18656 0.57251 0.0
H417 H 0.79511 0.20005 0.64528 0.0
H418 H 0.89596 0.24183 0.53179 0.0
H419 H 0.85508 0.22826 0.47601 0.0
H420 H 0.90321 0.21279 0.51731 0.0
H421 H 0.78315 0.25768 0.62013 0.0
H422 H 0.75517 0.23355 0.63167 0.0
H423 H 0.74097 0.24462 0.56475 0.0
C424 C 0.75975 0.79967 0.04077 0.0
C425 C 0.79205 0.80289 0.09225 0.0
C426 C 0.75343 0.77847 1.01581 0.0
C427 C 0.77998 0.76005 0.04303 0.0
C428 C 0.81246 0.76318 0.09509 0.0
C429 C 0.81805 0.78452 0.11905 0.0
C430 C 0.71855 0.77581 0.96017 0.0
C431 C 0.84136 0.74397 0.12552 0.0
C432 C 0.74153 0.70032 0.99963 0.0
C433 C 0.76583 0.6946 0.96869 0.0
C434 C 0.74556 0.72162 1.02379 0.0
C435 C 0.77451 0.73758 1.01675 0.0
C436 C 0.79897 0.73193 0.98539 0.0
C437 C 0.79431 0.71055 0.96174 0.0
C438 C 0.71903 0.72699 0.0571 0.0
C439 C 0.8301 0.74847 0.9768 0.0
H440 H 0.73973 0.81381 1.01973 0.0
H441 H 0.84251 0.78676 0.15926 0.0
H442 H 0.7336 0.77029 0.93177 0.0
H443 H 0.69516 0.76258 0.96045 0.0
H444 H 0.70014 0.79168 0.94486 0.0
H445 H 0.8648 0.74915 0.1659 0.0
H446 H 0.82106 0.73007 0.13055 0.0
H447 H 0.8601 0.73721 0.10232 0.0
H448 H 0.71967 0.68804 1.00542 0.0
H449 H 0.81256 0.70642 0.93702 0.0
H450 H 0.69852 0.74214 0.04083 0.0
H451 H 0.74114 0.7309 0.099 0.0
H452 H 0.69748 0.71288 0.05794 0.0
H453 H 0.81229 0.76405 0.95786 0.0
H454 H 0.84643 0.74154 0.95091 0.0
H455 H 0.85556 0.7533 1.01608 0.0
C456 C 0.33158 0.70965 0.62223 0.0
C457 C 0.31177 0.69004 0.59474 0.0
C458 C 0.31793 0.73104 0.59989 0.0
C459 C 0.28353 0.73297 0.54876 0.0
C460 C 0.26313 0.71328 0.52092 0.0
C461 C 0.27747 0.69206 0.54425 0.0
C462 C 0.34048 0.7516 0.63096 0.0
C463 C 0.22644 0.71461 0.46625 0.0
C464 C 0.22427 0.7893 0.50983 0.0
C465 C 0.24463 0.79877 0.47777 0.0
C466 C 0.23644 0.76787 0.53306 0.0
C467 C 0.26972 0.75559 0.52392 0.0
C468 C 0.29032 0.76505 0.49154 0.0
C469 C 0.27753 0.78646 0.46888 0.0
C470 C 0.2138 0.7584 0.5675 0.0
C471 C 0.32584 0.75251 0.48067 0.0
H472 H 0.35756 0.70828 0.66169 0.0
H473 H 0.26221 0.677 0.52258 0.0
H474 H 0.35563 0.76122 0.60736 0.0
H475 H 0.31626 0.76288 0.63768 0.0
H476 H 0.36625 0.74725 0.67058 0.0
H477 H 0.2133 0.69778 0.45045 0.0
H478 H 0.19943 0.72517 0.46836 0.0
H479 H 0.23817 0.72277 0.43725 0.0
H480 H 0.19904 0.79874 0.51717 0.0
H481 H 0.29286 0.79345 0.44331 0.0
H482 H 0.23805 0.75506 0.6087 0.0
H483 H 0.19837 0.7421 0.55079 0.0
H484 H 0.18829 0.76996 0.57026 0.0
H485 H 0.35342 0.74875 0.51913 0.0
H486 H 0.3385 0.76218 0.45447 0.0
H487 H 0.3132 0.73618 0.46104 0.0
C488 C 0.25893 0.54795 0.93128 0.0
C489 C 0.28069 0.54468 0.89607 0.0
C490 C 0.26192 0.53211 0.97135 0.0
C491 C 0.28799 0.51255 0.97743 0.0
C492 C 0.3129 0.51005 0.945 0.0
C493 C 0.30871 0.52602 0.90448 0.0
C494 C 0.23424 0.53548 1.00417 0.0
C495 C 0.34181 0.48973 0.95071 0.0
C496 C 0.30195 0.4748 0.09883 0.0
C497 C 0.26931 0.45867 0.07556 0.0
C498 C 0.30972 0.492 0.0673 0.0
C499 C 0.28368 0.49341 1.01142 0.0
C500 C 0.2511 0.47702 0.98785 0.0
C501 C 0.24467 0.4599 1.01986 0.0
C502 C 0.3453 0.50888 0.09385 0.0
C503 C 0.22189 0.4779 0.9288 0.0
H504 H 0.23728 0.56229 0.92558 0.0
H505 H 0.32586 0.52329 0.87783 0.0
H506 H 0.2073 0.52306 0.99149 0.0
H507 H 0.25384 0.53259 0.04748 0.0
H508 H 0.21972 0.55263 0.99912 0.0
H509 H 0.36458 0.49209 0.92977 0.0
H510 H 0.3611 0.48604 0.99377 0.0
H511 H 0.32125 0.47484 0.9332 0.0
H512 H 0.32132 0.47405 0.14163 0.0
H513 H 0.21915 0.44773 1.00095 0.0
H514 H 0.33064 0.52575 0.09311 0.0
H515 H 0.36709 0.51016 0.07132 0.0
H516 H 0.36527 0.50437 0.13629 0.0
H517 H 0.20306 0.4939 0.91971 0.0
H518 H 0.19844 0.46371 0.91646 0.0
H519 H 0.24189 0.47747 0.90389 0.0
C520 C 0.87167 0.52949 0.66391 0.0
C521 C 0.84217 0.53077 0.68988 0.0
C522 C 0.86402 0.51551 0.61916 0.0
C523 C 0.82587 0.50218 0.59945 0.0
C524 C 0.79434 0.50456 0.62299 0.0
C525 C 0.80283 0.51884 0.66799 0.0
C526 C 0.89851 0.51384 0.59547 0.0
C527 C 0.7528 0.49107 0.60265 0.0
C528 C 0.81316 0.47128 0.46919 0.0
C529 C 0.83487 0.45092 0.48955 0.0
C530 C 0.80674 0.4876 0.50387 0.0
C531 C 0.82297 0.48363 0.56022 0.0
C532 C 0.84232 0.46251 0.58021 0.0
C533 C 0.84755 0.44648 0.5448 0.0
C534 C 0.78503 0.50963 0.48051 0.0
C535 C 0.86073 0.4574 0.63977 0.0
H536 H 0.90194 0.53883 0.67994 0.0
H537 H 0.77975 0.51973 0.68757 0.0
H538 H 0.88356 0.51529 0.55105 0.0
H539 H 0.9237 0.5271 0.61119 0.0
H540 H 0.91475 0.49712 0.60521 0.0
H541 H 0.72841 0.49764 0.61814 0.0
H542 H 0.73814 0.49115 0.55803 0.0
H543 H 0.7603 0.47333 0.61583 0.0
H544 H 0.80313 0.47498 0.42672 0.0
H545 H 0.86388 0.43075 0.56125 0.0
H546 H 0.81032 0.52273 0.48756 0.0
H547 H 0.76289 0.51528 0.50031 0.0
H548 H 0.76607 0.50837 0.43649 0.0
H549 H 0.88954 0.46822 0.66032 0.0
H550 H 0.87111 0.43955 0.64842 0.0
H551 H 0.83625 0.4612 0.65745 0.0
C552 C 0.90224 0.48683 0.20062 0.0
C553 C 0.87172 0.47755 0.21924 0.0
C554 C 0.88904 0.49943 0.15278 0.0
C555 C 0.84398 0.50279 0.12173 0.0
C556 C 0.81285 0.49324 0.13977 0.0
C557 C 0.82704 0.48085 0.18838 0.0
C558 C 0.92357 0.5095 0.1359 0.0
C559 C 0.76457 0.49629 0.10796 0.0
C560 C 0.82483 0.55491 1.03371 0.0
C561 C 0.82573 0.54605 0.98584 0.0
C562 C 0.82731 0.54092 0.0769 0.0
C563 C 0.8304 0.5173 0.07215 0.0
C564 C 0.82711 0.50814 1.02194 0.0
C565 C 0.82498 0.52264 0.97937 0.0
C566 C 0.83108 0.55167 0.12934 0.0
C567 C 0.82922 0.48307 1.01463 0.0
H568 H 0.93683 0.48446 0.22387 0.0
H569 H 0.80312 0.47369 0.20209 0.0
H570 H 0.91859 0.50392 0.09463 0.0
H571 H 0.9208 0.52811 0.13508 0.0
H572 H 0.95715 0.50474 0.16348 0.0
H573 H 0.74445 0.48701 0.12591 0.0
H574 H 0.75588 0.51441 0.10586 0.0
H575 H 0.75605 0.49038 0.06606 0.0
H576 H 0.82548 0.573 0.03887 0.0
H577 H 0.82645 0.51568 0.94285 0.0
H578 H 0.86544 0.55047 0.15846 0.0
H579 H 0.81049 0.54277 0.14712 0.0
H580 H 0.82143 0.56971 0.12422 0.0
H581 H 0.86101 0.47639 0.04297 0.0
H582 H 0.82526 0.47852 0.97298 0.0
H583 H 0.80332 0.47468 1.0243 0.0
C584 C 0.20933 0.52394 0.53 0.0
C585 C 0.24428 0.5318 0.57542 0.0
C586 C 0.21612 0.50959 0.4924 0.0
C587 C 0.2591 0.50287 0.49978 0.0
C588 C 0.29462 0.51045 0.54598 0.0
C589 C 0.28678 0.52471 0.58345 0.0
C590 C 0.1771 0.50178 0.44436 0.0
C591 C 0.34094 0.5038 0.55528 0.0
C592 C 0.26648 0.45037 0.42182 0.0
C593 C 0.26881 0.45953 0.37486 0.0
C594 C 0.26505 0.46422 0.46361 0.0
C595 C 0.26629 0.48791 0.45888 0.0
C596 C 0.27044 0.49725 0.41258 0.0
C597 C 0.27148 0.48299 0.37113 0.0
C598 C 0.2601 0.45347 0.51174 0.0
C599 C 0.27209 0.52238 0.40586 0.0
H600 H 0.17627 0.52908 0.52358 0.0
H601 H 0.31398 0.53077 0.6182 0.0
H602 H 0.17965 0.5079 0.40675 0.0
H603 H 0.17641 0.48314 0.44263 0.0
H604 H 0.1457 0.5079 0.44543 0.0
H605 H 0.3649 0.51077 0.5934 0.0
H606 H 0.34421 0.48521 0.5564 0.0
H607 H 0.34926 0.50986 0.52142 0.0
H608 H 0.26424 0.43231 0.4253 0.0
H609 H 0.2733 0.4903 0.33519 0.0
H610 H 0.22754 0.45777 0.51196 0.0
H611 H 0.28498 0.46008 0.54956 0.0
H612 H 0.26326 0.43486 0.51161 0.0
H613 H 0.24013 0.52998 0.40099 0.0
H614 H 0.27958 0.52695 0.37032 0.0
H615 H 0.29713 0.52993 0.44229 0.0
C616 C 0.70952 0.9537 1.01753 0.0
C617 C 0.73212 0.95412 0.07373 0.0
C618 C 0.71965 0.96849 0.98349 0.0
C619 C 0.7542 0.98396 1.0055 0.0
C620 C 0.77799 0.98425 0.06205 0.0
C621 C 0.76665 0.96935 0.09557 0.0
C622 C 0.69163 0.96834 0.92404 0.0
C623 C 0.81438 0.00082 0.08716 0.0
C624 C 0.79114 0.00921 0.89931 0.0
C625 C 0.76891 0.02991 0.88863 0.0
C626 C 0.78902 0.99474 0.93983 0.0
C627 C 0.76278 0.0007 0.96902 0.0
C628 C 0.74081 0.02176 0.95861 0.0
C629 C 0.74492 0.03618 0.9196 0.0
C630 C 0.81383 0.97276 0.95035 0.0
C631 C 0.71224 0.02943 0.98763 0.0
H632 H 0.6827 0.94211 0.99973 0.0
H633 H 0.78409 0.97003 0.1388 0.0
H634 H 0.6749 0.98487 0.91222 0.0
H635 H 0.71221 0.96582 0.90028 0.0
H636 H 0.66642 0.95498 0.91304 0.0
H637 H 0.83252 -0.00242 0.13075 0.0
H638 H 0.83762 0.00016 0.06649 0.0
H639 H 0.80056 0.01811 0.08211 0.0
H640 H 0.80992 0.00426 0.87579 0.0
H641 H 0.72745 0.0521 0.91179 0.0
H642 H 0.79052 0.95859 0.93668 0.0
H643 H 0.83263 0.97054 0.99416 0.0
H644 H 0.8367 0.97175 0.92917 0.0
H645 H 0.7003 0.01538 1.00517 0.0
H646 H 0.68349 0.03905 0.96021 0.0
H647 H 0.73152 0.04095 1.02047 0.0
C648 C 0.35358 0.01575 0.6612 0.0
C649 C 0.39768 0.02192 0.67879 0.0
C650 C 0.33442 0.0019 0.61586 0.0
C651 C 0.3599 0.99421 0.58732 0.0
C652 C 0.40406 0.00096 0.60399 0.0
C653 C 0.42236 0.01471 0.64946 0.0
C654 C 0.2874 0.99489 0.59958 0.0
C655 C 0.43239 0.99324 0.57452 0.0
C656 C 0.33986 0.94084 0.50487 0.0
C657 C 0.3259 0.94955 0.45253 0.0
C658 C 0.34773 0.95504 0.54924 0.0
C659 C 0.34136 0.97853 0.54095 0.0
C660 C 0.32283 0.9871 0.48784 0.0
C661 C 0.31504 0.97247 0.44415 0.0
C662 C 0.36697 0.94507 0.60509 0.0
C663 C 0.31539 0.01201 0.47718 0.0
H664 H 0.33432 0.02115 0.68378 0.0
H665 H 0.4564 0.01946 0.66261 0.0
H666 H 0.26871 -0.00126 0.55647 0.0
H667 H 0.28582 0.97644 0.6046 0.0
H668 H 0.27125 0.0034 0.62388 0.0
H669 H 0.43509 0.97462 0.5758 0.0
H670 H 0.41729 -0.00173 0.53159 0.0
H671 H 0.46583 0.00034 0.59213 0.0
H672 H 0.34786 0.92312 0.51157 0.0
H673 H 0.30419 0.97939 0.40388 0.0
H674 H 0.35242 0.95296 0.63177 0.0
H675 H 0.40263 0.9483 0.62274 0.0
H676 H 0.36198 0.92659 0.60463 0.0
H677 H 0.30011 0.01962 0.50341 0.0
H678 H 0.29435 0.01557 0.43453 0.0
H679 H 0.34731 0.02038 0.48649 0.0
C680 C 0.40154 0.96456 0.15013 0.0
C681 C 0.36844 0.96442 0.17053 0.0
C682 C 0.40016 0.97938 0.1091 0.0
C683 C 0.36499 0.99481 0.08805 0.0
C684 C 0.33066 0.99436 0.10724 0.0
C685 C 0.33264 0.97903 0.14812 0.0
C686 C 0.43722 0.97897 0.08947 0.0
C687 C 0.29285 0.01068 0.0862 0.0
C688 C 0.39805 0.04481 1.02481 0.0
C689 C 0.38376 0.03804 0.97088 0.0
C690 C 0.38903 0.03181 0.06293 0.0
C691 C 0.36533 0.0115 0.04676 0.0
C692 C 0.34783 0.00561 0.99161 0.0
C693 C 0.35712 0.01898 0.95436 0.0
C694 C 0.4079 0.03893 0.12118 0.0
C695 C 0.32252 0.98412 0.9725 0.0
H696 H 0.42936 0.95337 0.16727 0.0
H697 H 0.30724 0.97922 0.16419 0.0
H698 H 0.42425 0.9768 0.04516 0.0
H699 H 0.45481 0.99522 0.0988 0.0
H700 H 0.46107 0.96523 0.10823 0.0
H701 H 0.26715 0.00703 0.10201 0.0
H702 H 0.30484 0.02804 0.09801 0.0
H703 H 0.27805 0.01021 0.04162 0.0
H704 H 0.41851 0.05955 0.03799 0.0
H705 H 0.34564 0.01367 0.9127 0.0
H706 H 0.43619 0.02797 0.14377 0.0
H707 H 0.3834 0.03701 0.13966 0.0
H708 H 0.41923 0.05666 0.12594 0.0
H709 H 0.34529 0.96956 0.98533 0.0
H710 H 0.30567 0.98364 0.92802 0.0
H711 H 0.2979 0.98204 0.99073 0.0
C712 C 0.72937 0.95097 0.42652 0.0
C713 C 0.75189 0.95039 0.39164 0.0
C714 C 0.74229 0.96524 0.47148 0.0
C715 C 0.77912 0.97927 0.48267 0.0
C716 C 0.80463 0.97709 0.45088 0.0
C717 C 0.79055 0.96282 0.40544 0.0
C718 C 0.71361 0.96686 0.50351 0.0
C719 C 0.84505 0.99106 0.46248 0.0
C720 C 0.76275 0.03667 0.53366 0.0
C721 C 0.78177 0.03412 0.58991 0.0
C722 C 0.76339 0.01932 0.49873 0.0
C723 C 0.78515 -0.00112 0.51998 0.0
C724 C 0.80776 -0.00324 0.57656 0.0
C725 C 0.80534 0.0143 0.61101 0.0
C726 C 0.73789 0.02242 0.43904 0.0
C727 C 0.83244 0.97552 0.60086 0.0
H728 H 0.69976 0.94125 0.41691 0.0
H729 H 0.8085 0.9624 0.37921 0.0
H730 H 0.73319 0.96908 0.54699 0.0
H731 H 0.69172 0.98171 0.48957 0.0
H732 H 0.69309 0.95166 0.49828 0.0
H733 H 0.86624 0.98404 0.44267 0.0
H734 H 0.83544 0.00841 0.44727 0.0
H735 H 0.8642 0.99215 0.50644 0.0
H736 H 0.745 0.05197 0.5164 0.0
H737 H 0.82029 0.01207 0.65423 0.0
H738 H 0.71037 0.01034 0.42503 0.0
H739 H 0.75896 0.01887 0.41637 0.0
H740 H 0.72428 0.03969 0.4288 0.0
H741 H 0.80899 0.96224 0.6006 0.0
H742 H 0.85543 0.97815 0.64308 0.0
H743 H 0.851 0.96927 0.57693 0.0
C744 C 0.92739 0.49488 0.94729 0.0
C745 C 0.9447 0.51287 0.92858 0.0
C746 C 0.95512 0.47987 0.98497 0.0
C747 C 1.00067 0.48288 1.00244 0.0
C748 C 1.0181 0.50033 0.98098 0.0
C749 C 0.98963 0.51547 0.94483 0.0
C750 C 0.93575 0.46181 1.00835 0.0
C751 C 0.06675 0.5035 0.99756 0.0
C752 C 0.08751 0.46842 0.13475 0.0
C753 C 0.10831 0.45109 0.11866 0.0
C754 C 1.0483 0.47734 0.09842 0.0
C755 C 1.03085 0.4688 0.0453 0.0
C756 C 1.04909 0.4495 1.03129 0.0
C757 C 0.0876 0.44061 0.06885 0.0
C758 C 1.02869 0.49753 0.11504 0.0
C759 C 1.03136 0.43998 0.97497 0.0
H760 H 0.89229 0.49328 0.93475 0.0
H761 H 1.00242 0.52949 0.9297 0.0
H762 H 0.93868 0.46699 0.04922 0.0
H763 H 0.9007 0.45901 0.98335 0.0
H764 H 0.95361 0.44565 1.01252 0.0
H765 H 0.0745 0.5166 0.97321 0.0
H766 H 0.08149 0.50853 0.04047 0.0
H767 H 0.08245 0.48748 0.9933 0.0
H768 H 0.10321 0.47601 0.17412 0.0
H769 H 0.10304 0.42644 0.05782 0.0
H770 H 0.99269 0.49792 0.09395 0.0
H771 H 1.04188 0.51309 0.10433 0.0
H772 H 1.03707 0.49766 0.15915 0.0
H773 H 0.99516 0.43955 0.95832 0.0
H774 H 1.04398 0.42272 0.97362 0.0
H775 H 1.04143 0.45092 0.9484 0.0
C776 C 0.15094 0.49178 0.70007 0.0
C777 C 0.14208 0.51426 0.7073 0.0
C778 C 0.11689 0.47763 0.66974 0.0
C779 C 0.07392 0.48648 0.64799 0.0
C780 C 0.06453 0.50767 0.66499 0.0
C781 C 0.09917 0.52165 0.69392 0.0
C782 C 0.12805 0.45489 0.65341 0.0
C783 C 1.01875 0.51705 0.64521 0.0
C784 C 1.01418 0.4782 0.49893 0.0
C785 C 0.98489 0.46143 0.49813 0.0
C786 C 1.04407 0.48615 0.54797 0.0
C787 C 1.04316 0.47747 0.59674 0.0
C788 C 1.01279 0.46083 0.59588 0.0
C789 C 0.98411 0.45283 0.54623 0.0
C790 C 0.07657 0.50382 0.54744 0.0
C791 C 1.01008 0.4518 0.64697 0.0
H792 H 0.18448 0.48613 0.71164 0.0
H793 H 0.09276 0.53899 0.70134 0.0
H794 H 0.1013 0.44269 0.64654 0.0
H795 H 0.13325 0.45666 0.61524 0.0
H796 H 0.15855 0.44802 0.68437 0.0
H797 H 1.01544 0.53007 0.67306 0.0
H798 H 1.01076 0.52496 0.6052 0.0
H799 H 0.99474 0.50357 0.64088 0.0
H800 H 1.01425 0.4847 0.46134 0.0
H801 H 0.96046 0.44012 0.54503 0.0
H802 H 0.11036 0.49804 0.57141 0.0
H803 H 0.07086 0.51957 0.56597 0.0
H804 H 0.07423 0.50776 0.50608 0.0
H805 H 1.04263 0.44596 0.67513 0.0
H806 H 0.98665 0.43768 0.63913 0.0
H807 H 0.99948 0.46539 0.66759 0.0
C808 C 0.57607 0.01763 0.94157 0.0
C809 C 0.55675 0.03868 0.926 0.0
C810 C 0.60524 0.01405 0.99448 0.0
C811 C 0.61266 0.0317 1.03248 0.0
C812 C 0.59823 0.05374 1.0148 0.0
C813 C 0.571 0.05708 0.96086 0.0
C814 C 0.62279 0.99058 1.01115 0.0
C815 C 0.60682 0.07308 0.05379 0.0
C816 C 0.6046 -0.00076 0.14528 0.0
C817 C 0.64882 -0.00466 0.17511 0.0
C818 C 0.59186 0.01495 0.10341 0.0
C819 C 0.62444 0.02542 0.08941 0.0
C820 C 0.66865 0.02415 0.12493 0.0
C821 C 0.68025 0.0094 0.1686 0.0
C822 C 0.54381 0.01775 0.06953 0.0
C823 C 0.70476 0.03569 0.11404 0.0
H824 H 0.56532 0.00354 0.91404 0.0
H825 H 0.55616 0.07346 0.94815 0.0
H826 H 0.65613 0.99105 0.04301 0.0
H827 H 0.60124 0.98159 1.02741 0.0
H828 H 0.62372 0.9808 0.97641 0.0
H829 H 0.64237 0.07636 0.07252 0.0
H830 H 0.59001 0.0888 1.03403 0.0
H831 H 0.5958 0.06874 0.08659 0.0
H832 H 0.58033 0.98868 0.15142 0.0
H833 H 0.71462 0.0067 0.19274 0.0
H834 H 0.53456 0.00622 1.03451 0.0
H835 H 0.53626 0.03522 0.05416 0.0
H836 H 0.52347 0.01362 0.09283 0.0
H837 H 0.72559 0.02279 0.10549 0.0
H838 H 0.72593 0.04489 0.15059 0.0
H839 H 0.69265 0.04767 0.08 0.0
C840 C 0.47437 0.98299 0.43997 0.0
C841 C 0.47626 0.96259 0.41518 0.0
C842 C 0.51153 0.99163 0.48018 0.0
C843 C 0.55133 0.97953 0.49535 0.0
C844 C 0.55356 0.95902 0.46983 0.0
C845 C 0.51566 0.95074 0.42972 0.0
C846 C 0.50809 0.01368 0.50644 0.0
C847 C 0.59566 0.946 0.48356 0.0
C848 C 0.64409 0.01832 0.56504 0.0
C849 C 0.64963 0.01487 0.61863 0.0
C850 C 0.61477 0.00529 0.52424 0.0
C851 C 0.59015 0.98887 0.53787 0.0
C852 C 0.598 0.98424 0.5924 0.0
C853 C 0.62826 -0.00269 0.63259 0.0
C854 C 0.60824 0.01004 0.46653 0.0
C855 C 0.57245 0.96654 0.60788 0.0
H856 H 0.44364 0.99204 0.42861 0.0
H857 H 0.51673 0.93488 0.41031 0.0
H858 H 0.52038 0.01164 0.55075 0.0
H859 H 0.5287 0.0265 0.49775 0.0
H860 H 0.47402 0.02016 0.49206 0.0
H861 H 0.58938 0.92777 0.47502 0.0
H862 H 0.61272 0.95226 0.45804 0.0
H863 H 0.61778 0.94807 0.5263 0.0
H864 H 0.66251 0.03131 0.555 0.0
H865 H 0.63376 0.99449 0.67449 0.0
H866 H 0.57639 0.01867 0.44594 0.0
H867 H 0.60745 0.99409 0.44472 0.0
H868 H 0.63442 0.02089 0.46353 0.0
H869 H 0.53795 0.97212 0.59551 0.0
H870 H 0.58589 0.9633 0.6519 0.0
H871 H 0.57245 0.95054 0.58659 0.0
C872 C 0.05529 0.39568 0.65582 0.0
C873 C 1.01151 0.38875 0.63103 0.0
C874 C 0.07768 0.39566 0.71232 0.0
C875 C 0.05619 0.38858 0.74614 0.0
C876 C 1.01221 0.38117 0.72145 0.0
C877 C 0.99052 0.38132 0.66456 0.0
C878 C 0.12413 0.40402 0.73578 0.0
C879 C 0.98759 0.37361 0.75532 0.0
C880 C 0.12765 0.37499 0.89491 0.0
C881 C 0.12559 0.39518 0.92117 0.0
C882 C 0.10476 0.37241 0.8385 0.0
C883 C 0.07891 0.39037 0.80697 0.0
C884 C 0.07633 0.41061 0.83354 0.0
C885 C 0.09946 0.41274 0.88962 0.0
C886 C 0.10888 0.35055 0.81234 0.0
C887 C 1.04991 0.43042 0.80252 0.0
H888 H 0.07218 0.40156 0.63094 0.0
H889 H 0.95676 0.37603 0.64642 0.0
H890 H 0.12476 0.42089 0.75371 0.0
H891 H 0.14501 0.39267 0.76826 0.0
H892 H 0.13857 0.40539 0.70487 0.0
H893 H 0.95467 0.36706 0.73054 0.0
H894 H 1.00629 0.3603 0.78382 0.0
H895 H 0.98379 0.38795 0.77964 0.0
H896 H 0.14755 0.36127 0.9183 0.0
H897 H 0.09725 0.42849 0.90872 0.0
H898 H 0.12451 0.35362 0.78316 0.0
H899 H 0.07601 0.34351 0.78947 0.0
H900 H 0.12857 0.33785 0.84215 0.0
H901 H 0.06589 0.43756 0.77667 0.0
H902 H 1.04686 0.44393 0.82944 0.0
H903 H 1.01667 0.42504 0.77573 0.0
C904 C 0.12098 0.58303 0.37441 0.0
C905 C 0.12586 0.59961 0.41373 0.0
C906 C 0.09155 0.58566 0.32059 0.0
C907 C 0.06588 0.60549 0.30444 0.0
C908 C 0.0713 0.6226 0.34347 0.0
C909 C 0.10099 0.61946 0.39747 0.0
C910 C 0.08714 0.5668 0.28121 0.0
C911 C 1.04501 0.64409 0.3284 0.0
C912 C 1.01131 0.61583 0.15133 0.0
C913 C 0.9691 0.60725 0.13879 0.0
C914 C 1.04259 0.61612 0.205 0.0
C915 C 1.03185 0.60749 0.24764 0.0
C916 C 0.98903 0.59921 0.23519 0.0
C917 C 0.95846 0.59924 0.18148 0.0
C918 C 0.08759 0.6252 0.21593 0.0
C919 C 0.97573 0.58961 0.27855 0.0
H920 H 0.13978 0.56757 0.38584 0.0
H921 H 0.10424 0.63243 0.42705 0.0
H922 H 1.0535 0.55996 0.26663 0.0
H923 H 0.09259 0.57323 0.24563 0.0
H924 H 0.11056 0.55282 0.29931 0.0
H925 H 0.0549 0.6564 0.36197 0.0
H926 H 1.04883 0.65195 0.29309 0.0
H927 H 1.00984 0.6403 0.31667 0.0
H928 H 1.02019 0.62207 0.1191 0.0
H929 H 0.92618 0.59248 0.17288 0.0
H930 H 0.11201 0.6114 0.2302 0.0
H931 H 0.09635 0.63801 0.24831 0.0
H932 H 0.09003 0.63288 0.17959 0.0
H933 H 0.99576 0.57446 0.2963 0.0
H934 H 0.94072 0.58484 0.26301 0.0
H935 H 0.98188 0.60202 0.31142 0.0
C936 C 0.58286 0.88273 0.89423 0.0
C937 C 0.56729 0.89714 0.92446 0.0
C938 C 0.56117 0.88096 0.83753 0.0
C939 C 0.52265 0.89375 0.80988 0.0
C940 C 0.50643 0.90795 0.84047 0.0
C941 C 0.5288 0.90949 0.89677 0.0
C942 C 0.58005 0.86572 0.80697 0.0
C943 C 0.46564 0.92191 0.81354 0.0
C944 C 0.48924 0.90975 0.66108 0.0
C945 C 0.45493 0.8948 0.63431 0.0
C946 C 0.51195 0.90919 0.71746 0.0
C947 C 0.50038 0.89333 0.74901 0.0
C948 C 0.46601 0.87804 0.72231 0.0
C949 C 0.44384 0.87892 0.66558 0.0
C950 C 0.54808 0.92591 0.74336 0.0
C951 C 0.4521 0.86094 0.75388 0.0
H952 H 0.61249 0.87312 0.91472 0.0
H953 H 0.51605 0.92066 0.91916 0.0
H954 H 0.55494 0.85368 0.78219 0.0
H955 H 0.59 0.87587 0.77905 0.0
H956 H 0.60889 0.85611 0.83411 0.0
H957 H 0.45593 0.93128 0.84297 0.0
H958 H 0.47099 0.93419 0.78569 0.0
H959 H 0.43815 0.91098 0.78914 0.0
H960 H 0.49841 0.92216 0.63791 0.0
H961 H 0.41749 0.86729 0.64579 0.0
H962 H 0.57861 0.91698 0.7683 0.0
H963 H 0.53918 0.93717 0.77052 0.0
H964 H 0.55469 0.93644 0.71327 0.0
H965 H 0.48057 0.85061 0.77902 0.0
H966 H 0.42627 0.84959 0.72742 0.0
H967 H 0.43957 0.86969 0.78154 0.0
C968 C 0.55805 0.08888 0.18066 0.0
C969 C 0.51551 0.09759 0.15486 0.0
C970 C 0.58016 0.08958 0.23705 0.0
C971 C 0.55944 0.09908 0.26954 0.0
C972 C 0.51669 0.10823 0.24383 0.0
C973 C 0.49539 0.10747 0.18702 0.0
C974 C 0.62556 0.07964 0.26193 0.0
C975 C 0.49298 0.11833 0.27649 0.0
C976 C 0.59806 0.0774 0.4146 0.0
C977 C 0.62636 0.09443 0.44454 0.0
C978 C 0.57589 0.07891 0.35833 0.0
C979 C 0.5815 0.09802 0.33025 0.0
C980 C 0.60963 0.11544 0.36016 0.0
C981 C 0.63178 0.11342 0.41671 0.0
C982 C 0.54684 0.05973 0.32879 0.0
C983 C 0.61671 0.13614 0.33226 0.0
H984 H 0.57424 0.08124 0.15673 0.0
H985 H 0.46256 0.11418 0.16793 0.0
H986 H 0.64847 0.09221 0.2883 0.0
H987 H 0.62544 0.06503 0.28748 0.0
H988 H 0.63814 0.07396 0.23118 0.0
H989 H 0.46107 0.12588 0.25077 0.0
H990 H 0.48713 0.10513 0.30205 0.0
H991 H 0.51334 0.13147 0.3038 0.0
H992 H 0.59346 0.06257 0.43513 0.0
H993 H 0.65339 0.12671 0.43906 0.0
H994 H 0.55955 0.05212 0.29997 0.0
H995 H 0.51342 0.06608 0.30512 0.0
H996 H 0.54473 0.04636 0.35647 0.0
H997 H 0.63189 0.13132 0.30349 0.0
H998 H 0.63803 0.14861 0.36106 0.0
H999 H 0.58489 0.14428 0.30867 0.0
C1000 C 0.15186 0.40487 0.27036 0.0
C1001 C 0.15016 0.38976 0.22942 0.0
C1002 C 0.1188 0.40558 0.29138 0.0
C1003 C 0.08295 0.39059 0.27171 0.0
C1004 C 0.08142 0.37501 0.23096 0.0
C1005 C 0.11456 0.37499 0.20992 0.0
C1006 C 0.12169 0.42291 0.33365 0.0
C1007 C 1.04449 0.35842 0.20921 0.0
C1008 C 1.01683 0.38139 0.3604 0.0
C1009 C 0.97971 0.39501 0.33531 0.0
C1010 C 1.04991 0.37935 0.33951 0.0
C1011 C 1.04672 0.39161 0.29287 0.0
C1012 C 1.00919 0.40526 0.26717 0.0
C1013 C 0.9761 0.40654 0.28813 0.0
C1014 C 0.08866 0.36424 0.36785 0.0
C1015 C 1.00443 0.41905 0.21813 0.0
H1016 H 0.17823 0.41687 0.28461 0.0
H1017 H 0.1126 0.36337 0.17803 0.0
H1018 H 0.09316 0.43447 0.31813 0.0
H1019 H 0.12061 0.41457 0.36996 0.0
H1020 H 0.15203 0.43303 0.34567 0.0
H1021 H 1.04916 0.34656 0.17992 0.0
H1022 H 1.04157 0.3486 0.2427 0.0
H1023 H 1.01317 0.36756 0.18905 0.0
H1024 H 1.02022 0.37235 0.39673 0.0
H1025 H 0.94784 0.41715 0.26818 0.0
H1026 H 0.11888 0.37441 0.38387 0.0
H1027 H 0.09278 0.35199 0.33898 0.0
H1028 H 0.08527 0.35484 0.40167 0.0
H1029 H 1.03247 0.43068 0.22772 0.0
H1030 H 0.97373 0.4291 0.20319 0.0
H1031 H 1.00484 0.40787 0.18531 0.0
C1032 C 0.13331 0.58411 0.76073 0.0
C1033 C 0.13601 0.60065 0.72498 0.0
C1034 C 0.09928 0.58418 0.78004 0.0
C1035 C 0.0676 0.6017 0.76488 0.0
C1036 C 0.07083 0.61881 0.72982 0.0
C1037 C 0.1043 0.6178 0.70943 0.0
C1038 C 0.09653 0.56504 0.81541 0.0
C1039 C 1.03889 0.63822 0.71379 0.0
C1040 C 0.95719 0.59153 0.77678 0.0
C1041 C 0.96437 0.59998 0.82828 0.0
C1042 C 0.99023 0.592 0.75567 0.0
C1043 C 1.0312 0.60198 0.78564 0.0
C1044 C 1.03783 0.61158 0.83642 0.0
C1045 C 1.0048 0.6102 0.85732 0.0
C1046 C 0.98174 0.5811 0.70195 0.0
C1047 C 0.08025 0.62303 0.86927 0.0
H1048 H 0.15672 0.57043 0.77182 0.0
H1049 H 0.10589 0.63056 0.68151 0.0
H1050 H 0.09772 0.57162 0.85451 0.0
H1051 H 0.06488 0.55625 0.79599 0.0
H1052 H 0.12341 0.5526 0.82319 0.0
H1053 H 1.04742 0.65092 0.6892 0.0
H1054 H 1.00554 0.63195 0.6903 0.0
H1055 H 1.03795 0.64659 0.75021 0.0
H1056 H 0.92611 0.5839 0.7534 0.0
H1057 H 1.01091 0.61701 0.89689 0.0
H1058 H 1.00667 0.56788 0.70655 0.0
H1059 H 0.98466 0.59372 0.67324 0.0
H1060 H 0.94883 0.5734 0.6843 0.0
H1061 H 0.10725 0.61051 0.88211 0.0
H1062 H 0.07907 0.63133 0.90569 0.0
H1063 H 0.0882 0.63585 0.84452 0.0
C1064 C 0.41942 0.89277 0.28207 0.0
C1065 C 0.42998 0.8861 0.33566 0.0
C1066 C 0.45163 0.89419 0.25995 0.0
C1067 C 0.49568 0.8887 0.29191 0.0
C1068 C 0.50628 0.88125 0.34551 0.0
C1069 C 0.47342 0.88005 0.36668 0.0
C1070 C 0.43865 0.90205 0.20256 0.0
C1071 C 0.55252 0.87488 0.38094 0.0
C1072 C 0.57117 0.87767 0.21631 0.0
C1073 C 0.59482 0.89776 0.2248 0.0
C1074 C 0.53991 0.87419 0.23932 0.0
C1075 C 0.53071 0.89157 0.26974 0.0
C1076 C 0.55424 0.91202 0.27767 0.0
C1077 C 0.58642 0.91469 0.2559 0.0
C1078 C 0.51702 0.85182 0.23147 0.0
C1079 C 0.54539 0.93123 0.30891 0.0
H1080 H 0.38594 0.89728 0.25755 0.0
H1081 H 0.48205 0.87484 0.40807 0.0
H1082 H 0.45935 0.91641 0.20091 0.0
H1083 H 0.44417 0.88837 0.17784 0.0
H1084 H 0.40379 0.90725 0.18414 0.0
H1085 H 0.55448 0.86664 0.41883 0.0
H1086 H 0.56659 0.86334 0.35928 0.0
H1087 H 0.57307 0.89018 0.39147 0.0
H1088 H 0.57767 0.86453 0.19237 0.0
H1089 H 0.6041 0.93039 0.26175 0.0
H1090 H 0.48151 0.85413 0.20835 0.0
H1091 H 0.52102 0.84457 0.27108 0.0
H1092 H 0.52976 0.83956 0.20978 0.0
H1093 H 0.50974 0.93423 0.29614 0.0
H1094 H 0.56098 0.9471 0.30391 0.0
H1095 H 0.55852 0.92691 0.35228 0.0
C1096 C 0.47439 0.09868 0.80191 0.0
C1097 C 0.48487 0.10536 0.85553 0.0
C1098 C 0.50646 0.09775 0.77946 0.0
C1099 C 0.54965 0.10497 0.81007 0.0
C1100 C 0.55927 0.1137 0.86247 0.0
C1101 C 0.52698 0.11361 0.88469 0.0
C1102 C 0.49474 0.08764 0.72423 0.0
C1103 C 0.60416 0.12244 0.89594 0.0
C1104 C 0.64436 0.08034 0.77876 0.0
C1105 C 0.6495 0.09635 0.74339 0.0
C1106 C 0.6121 0.0829 0.80056 0.0
C1107 C 0.58501 0.10236 0.7882 0.0
C1108 C 0.59109 0.11894 0.75381 0.0
C1109 C 0.62252 0.1155 0.73092 0.0
C1110 C 0.60614 0.06439 0.8355 0.0
C1111 C 0.56448 0.14038 0.74133 0.0
H1112 H 0.44177 0.09262 0.77873 0.0
H1113 H 0.53531 0.11921 0.92575 0.0
H1114 H 0.50251 0.09952 0.69748 0.0
H1115 H 0.51454 0.0722 0.72727 0.0
H1116 H 0.45962 0.08317 0.70521 0.0
H1117 H 0.60451 0.13189 0.93174 0.0
H1118 H 0.62742 0.10815 0.91004 0.0
H1119 H 0.61612 0.13361 0.87154 0.0
H1120 H 0.66451 0.06529 0.78776 0.0
H1121 H 0.62641 0.12796 0.70374 0.0
H1122 H 0.57256 0.05757 0.81683 0.0
H1123 H 0.61003 0.07113 0.87548 0.0
H1124 H 0.62985 0.05036 0.84148 0.0
H1125 H 0.52955 0.13651 0.71846 0.0
H1126 H 0.5754 0.15236 0.71743 0.0
H1127 H 0.56686 0.14872 0.77927 0.0
loop_
_geom_bond_atom_site_label_1
_geom_bond_atom_site_label_2
_geom_bond_distance
_geom_bond_site_symmetry_2
_ccdc_geom_bond_type
O0 Tb1 2.292 . S
O0 C3 1.255 . S
Tb1 O0 2.292 . S
Tb1 O17 2.326 . S
Tb1 O19 2.500 . S
Tb1 O20 2.473 . S
Tb1 O23 2.324 . S
Eu2 O6 2.292 1_554 S
Eu2 C7 2.852 . S
Eu2 O18 2.324 . S
Eu2 O22 2.326 . S
Eu2 O24 2.500 . S
Eu2 O25 2.473 . S
C3 O0 1.255 . S
C3 O4 1.247 . S
O4 C3 1.247 . S
C5 O17 1.242 . S
C5 O18 1.258 . S
O6 Eu2 2.292 1_556 S
O6 C8 1.255 . S
C7 Eu2 2.852 . S
C7 C11 1.503 . S
C7 O24 1.273 . S
C7 O25 1.257 . S
C8 O6 1.255 . S
C8 O9 1.247 . S
O9 C8 1.247 . S
C10 O22 1.242 . S
C10 O23 1.258 . S
C11 C7 1.503 . S
C11 C12 1.379 . S
C11 C16 1.392 . S
C12 C11 1.379 . S
C12 C13 1.404 . S
C12 H26 0.929 . S
C13 C12 1.404 . S
C13 C14 1.389 . S
C14 C13 1.389 . S
C14 C15 1.399 . S
C14 H27 0.931 . S
C15 C14 1.399 . S
C15 C16 1.390 . S
C16 C11 1.392 . S
C16 C15 1.390 . S
C16 H28 0.929 . S
O17 Tb1 2.326 . S
O17 C5 1.242 . S
O18 Eu2 2.324 . S
O18 C5 1.258 . S
O19 Tb1 2.500 . S
O19 C21 1.273 . S
O20 Tb1 2.473 . S
O20 C21 1.257 . S
C21 O19 1.273 . S
C21 O20 1.257 . S
O22 Eu2 2.326 . S
O22 C10 1.242 . S
O23 Tb1 2.324 . S
O23 C10 1.258 . S
O24 Eu2 2.500 . S
O24 C7 1.273 . S
O25 Eu2 2.473 . S
O25 C7 1.257 . S
H26 C12 0.929 . S
H27 C14 0.931 . S
H28 C16 0.929 . S
O29 Tb30 2.292 . S
O29 C32 1.255 . S
Tb30 O29 2.292 . S
Tb30 O46 2.326 . S
Tb30 O48 2.500 . S
Tb30 O49 2.473 . S
Tb30 O52 2.324 . S
Eu31 O35 2.292 . S
Eu31 C36 2.852 . S
Eu31 O47 2.324 . S
Eu31 O51 2.326 . S
Eu31 O53 2.500 . S
Eu31 O54 2.473 . S
C32 O29 1.255 . S
C32 O33 1.247 . S
O33 C32 1.247 . S
C34 O46 1.242 . S
C34 O47 1.258 . S
O35 Eu31 2.292 . S
O35 C37 1.255 . S
C36 Eu31 2.852 . S
C36 C40 1.503 . S
C36 O53 1.273 . S
C36 O54 1.257 . S
C37 O35 1.255 . S
C37 O38 1.247 . S
O38 C37 1.247 . S
C39 O51 1.242 . S
C39 O52 1.258 . S
C40 C36 1.503 . S
C40 C41 1.379 . S
C40 C45 1.392 . S
C41 C40 1.379 . S
C41 C42 1.404 . S
C41 H55 0.929 . S
C42 C41 1.404 . S
C42 C43 1.389 . S
C43 C42 1.389 . S
C43 C44 1.399 . S
C43 H56 0.931 . S
C44 C43 1.399 . S
C44 C45 1.390 . S
C45 C40 1.392 . S
C45 C44 1.390 . S
C45 H57 0.929 . S
O46 Tb30 2.326 . S
O46 C34 1.242 . S
O47 Eu31 2.324 . S
O47 C34 1.258 . S
O48 Tb30 2.500 . S
O48 C50 1.273 . S
O49 Tb30 2.473 . S
O49 C50 1.257 . S
C50 O48 1.273 . S
C50 O49 1.257 . S
O51 Eu31 2.326 . S
O51 C39 1.242 . S
O52 Tb30 2.324 . S
O52 C39 1.258 . S
O53 Eu31 2.500 . S
O53 C36 1.273 . S
O54 Eu31 2.473 . S
O54 C36 1.257 . S
H55 C41 0.929 . S
H56 C43 0.931 . S
H57 C45 0.929 . S
O58 Tb59 2.292 . S
O58 C61 1.255 . S
Tb59 O58 2.292 . S
Tb59 O75 2.326 . S
Tb59 O77 2.500 . S
Tb59 O78 2.473 . S
Tb59 O81 2.324 . S
Eu60 O64 2.292 1_556 S
Eu60 C65 2.852 . S
Eu60 O76 2.324 . S
Eu60 O80 2.326 . S
Eu60 O82 2.500 . S
Eu60 O83 2.473 . S
C61 O58 1.255 . S
C61 O62 1.247 . S
O62 C61 1.247 . S
C63 O75 1.242 . S
C63 O76 1.258 . S
O64 Eu60 2.292 1_554 S
O64 C66 1.255 . S
C65 Eu60 2.852 . S
C65 C69 1.503 . S
C65 O82 1.273 . S
C65 O83 1.257 . S
C66 O64 1.255 . S
C66 O67 1.247 . S
O67 C66 1.247 . S
C68 O80 1.242 . S
C68 O81 1.258 . S
C69 C65 1.503 . S
C69 C70 1.379 . S
C69 C74 1.392 . S
C70 C69 1.379 . S
C70 C71 1.404 . S
C70 H84 0.929 . S
C71 C70 1.404 . S
C71 C72 1.389 . S
C72 C71 1.389 . S
C72 C73 1.399 . S
C72 H85 0.931 . S
C73 C72 1.399 . S
C73 C74 1.390 . S
C74 C69 1.392 . S
C74 C73 1.390 . S
C74 H86 0.929 . S
O75 Tb59 2.326 . S
O75 C63 1.242 . S
O76 Eu60 2.324 . S
O76 C63 1.258 . S
O77 Tb59 2.500 . S
O77 C79 1.273 . S
O78 Tb59 2.473 . S
O78 C79 1.257 . S
C79 O77 1.273 . S
C79 O78 1.257 . S
O80 Eu60 2.326 . S
O80 C68 1.242 . S
O81 Tb59 2.324 . S
O81 C68 1.258 . S
O82 Eu60 2.500 . S
O82 C65 1.273 . S
O83 Eu60 2.473 . S
O83 C65 1.257 . S
H84 C70 0.929 . S
H85 C72 0.931 . S
H86 C74 0.929 . S
O87 Tb88 2.292 . S
O87 C90 1.255 . S
Tb88 O87 2.292 . S
Tb88 O104 2.326 . S
Tb88 O106 2.500 . S
Tb88 O107 2.473 . S
Tb88 O110 2.324 . S
Eu89 O93 2.292 . S
Eu89 C94 2.852 . S
Eu89 O105 2.324 . S
Eu89 O109 2.326 . S
Eu89 O111 2.500 . S
Eu89 O112 2.473 . S
C90 O87 1.255 . S
C90 O91 1.247 . S
O91 C90 1.247 . S
C92 O104 1.242 . S
C92 O105 1.258 . S
O93 Eu89 2.292 . S
O93 C95 1.255 . S
C94 Eu89 2.852 . S
C94 C98 1.503 . S
C94 O111 1.273 . S
C94 O112 1.257 . S
C95 O93 1.255 . S
C95 O96 1.247 . S
O96 C95 1.247 . S
C97 O109 1.242 . S
C97 O110 1.258 . S
C98 C94 1.503 . S
C98 C99 1.379 . S
C98 C103 1.392 . S
C99 C98 1.379 . S
C99 C100 1.404 . S
C99 H113 0.929 . S
C100 C99 1.404 . S
C100 C101 1.389 . S
C101 C100 1.389 . S
C101 C102 1.399 . S
C101 H114 0.931 . S
C102 C101 1.399 . S
C102 C103 1.390 . S
C103 C98 1.392 . S
C103 C102 1.390 . S
C103 H115 0.929 . S
O104 Tb88 2.326 . S
O104 C92 1.242 . S
O105 Eu89 2.324 . S
O105 C92 1.258 . S
O106 Tb88 2.500 . S
O106 C108 1.273 . S
O107 Tb88 2.473 . S
O107 C108 1.257 . S
C108 O106 1.273 . S
C108 O107 1.257 . S
O109 Eu89 2.326 . S
O109 C97 1.242 . S
O110 Tb88 2.324 . S
O110 C97 1.258 . S
O111 Eu89 2.500 . S
O111 C94 1.273 . S
O112 Eu89 2.473 . S
O112 C94 1.257 . S
H113 C99 0.929 . S
H114 C101 0.931 . S
H115 C103 0.929 . S
O116 Tb117 2.292 . S
O116 C119 1.255 . S
Tb117 O116 2.292 . S
Tb117 O133 2.326 . S
Tb117 O135 2.500 . S
Tb117 O136 2.473 . S
Tb117 O139 2.324 . S
Eu118 O122 2.292 1_554 S
Eu118 C123 2.852 . S
Eu118 O134 2.324 . S
Eu118 O138 2.326 . S
Eu118 O140 2.500 . S
Eu118 O141 2.473 . S
C119 O116 1.255 . S
C119 O120 1.247 . S
O120 C119 1.247 . S
C121 O133 1.242 . S
C121 O134 1.258 . S
O122 Eu118 2.292 1_556 S
O122 C124 1.255 . S
C123 Eu118 2.852 . S
C123 C127 1.503 . S
C123 O140 1.273 . S
C123 O141 1.257 . S
C124 O122 1.255 . S
C124 O125 1.247 . S
O125 C124 1.247 . S
C126 O138 1.242 . S
C126 O139 1.258 . S
C127 C123 1.503 . S
C127 C128 1.379 . S
C127 C132 1.392 . S
C128 C127 1.379 . S
C128 C129 1.404 . S
C128 H142 0.929 . S
C129 C128 1.404 . S
C129 C130 1.389 . S
C130 C129 1.389 . S
C130 C131 1.399 . S
C130 H143 0.931 . S
C131 C130 1.399 . S
C131 C132 1.390 . S
C132 C127 1.392 . S
C132 C131 1.390 . S
C132 H144 0.929 . S
O133 Tb117 2.326 . S
O133 C121 1.242 . S
O134 Eu118 2.324 . S
O134 C121 1.258 . S
O135 Tb117 2.500 . S
O135 C137 1.273 . S
O136 Tb117 2.473 . S
O136 C137 1.257 . S
C137 O135 1.273 . S
C137 O136 1.257 . S
O138 Eu118 2.326 . S
O138 C126 1.242 . S
O139 Tb117 2.324 . S
O139 C126 1.258 . S
O140 Eu118 2.500 . S
O140 C123 1.273 . S
O141 Eu118 2.473 . S
O141 C123 1.257 . S
H142 C128 0.929 . S
H143 C130 0.931 . S
H144 C132 0.929 . S
O145 Tb146 2.292 . S
O145 C148 1.255 . S
Tb146 O145 2.292 . S
Tb146 O162 2.326 . S
Tb146 O164 2.500 . S
Tb146 O165 2.473 . S
Tb146 O168 2.324 . S
Eu147 O151 2.292 . S
Eu147 C152 2.852 . S
Eu147 O163 2.324 . S
Eu147 O167 2.326 . S
Eu147 O169 2.500 . S
Eu147 O170 2.473 . S
C148 O145 1.255 . S
C148 O149 1.247 . S
O149 C148 1.247 . S
C150 O162 1.242 . S
C150 O163 1.258 . S
O151 Eu147 2.292 . S
O151 C153 1.255 . S
C152 Eu147 2.852 . S
C152 C156 1.503 . S
C152 O169 1.273 . S
C152 O170 1.257 . S
C153 O151 1.255 . S
C153 O154 1.247 . S
O154 C153 1.247 . S
C155 O167 1.242 . S
C155 O168 1.258 . S
C156 C152 1.503 . S
C156 C157 1.379 . S
C156 C161 1.392 . S
C157 C156 1.379 . S
C157 C158 1.404 . S
C157 H171 0.929 . S
C158 C157 1.404 . S
C158 C159 1.389 . S
C159 C158 1.389 . S
C159 C160 1.399 . S
C159 H172 0.931 . S
C160 C159 1.399 . S
C160 C161 1.390 . S
C161 C156 1.392 . S
C161 C160 1.390 . S
C161 H173 0.929 . S
O162 Tb146 2.326 . S
O162 C150 1.242 . S
O163 Eu147 2.324 . S
O163 C150 1.258 . S
O164 Tb146 2.500 . S
O164 C166 1.273 . S
O165 Tb146 2.473 . S
O165 C166 1.257 . S
C166 O164 1.273 . S
C166 O165 1.257 . S
O167 Eu147 2.326 . S
O167 C155 1.242 . S
O168 Tb146 2.324 . S
O168 C155 1.258 . S
O169 Eu147 2.500 . S
O169 C152 1.273 . S
O170 Eu147 2.473 . S
O170 C152 1.257 . S
H171 C157 0.929 . S
H172 C159 0.931 . S
H173 C161 0.929 . S
O174 Tb175 2.292 . S
O174 C177 1.255 . S
Tb175 O174 2.292 . S
Tb175 O191 2.326 . S
Tb175 O193 2.500 . S
Tb175 O194 2.473 . S
Tb175 O197 2.324 . S
Eu176 O180 2.292 1_556 S
Eu176 C181 2.852 . S
Eu176 O192 2.324 . S
Eu176 O196 2.326 . S
Eu176 O198 2.500 . S
Eu176 O199 2.473 . S
C177 O174 1.255 . S
C177 O178 1.247 . S
O178 C177 1.247 . S
C179 O191 1.242 . S
C179 O192 1.258 . S
O180 Eu176 2.292 1_554 S
O180 C182 1.255 . S
C181 Eu176 2.852 . S
C181 C185 1.503 . S
C181 O198 1.273 . S
C181 O199 1.257 . S
C182 O180 1.255 . S
C182 O183 1.247 . S
O183 C182 1.247 . S
C184 O196 1.242 . S
C184 O197 1.258 . S
C185 C181 1.503 . S
C185 C186 1.379 . S
C185 C190 1.392 . S
C186 C185 1.379 . S
C186 C187 1.404 . S
C186 H200 0.929 . S
C187 C186 1.404 . S
C187 C188 1.389 . S
C188 C187 1.389 . S
C188 C189 1.399 . S
C188 H201 0.931 . S
C189 C188 1.399 . S
C189 C190 1.390 . S
C190 C185 1.392 . S
C190 C189 1.390 . S
C190 H202 0.929 . S
O191 Tb175 2.326 . S
O191 C179 1.242 . S
O192 Eu176 2.324 . S
O192 C179 1.258 . S
O193 Tb175 2.500 . S
O193 C195 1.273 . S
O194 Tb175 2.473 . S
O194 C195 1.257 . S
C195 O193 1.273 . S
C195 O194 1.257 . S
O196 Eu176 2.326 . S
O196 C184 1.242 . S
O197 Tb175 2.324 . S
O197 C184 1.258 . S
O198 Eu176 2.500 . S
O198 C181 1.273 . S
O199 Eu176 2.473 . S
O199 C181 1.257 . S
H200 C186 0.929 . S
H201 C188 0.931 . S
H202 C190 0.929 . S
O203 Tb204 2.292 . S
O203 C206 1.255 . S
Tb204 O203 2.292 . S
Tb204 O220 2.326 . S
Tb204 O222 2.500 . S
Tb204 O223 2.473 . S
Tb204 O226 2.324 . S
Eu205 O209 2.292 . S
Eu205 C210 2.852 . S
Eu205 O221 2.324 . S
Eu205 O225 2.326 . S
Eu205 O227 2.500 . S
Eu205 O228 2.473 . S
C206 O203 1.255 . S
C206 O207 1.247 . S
O207 C206 1.247 . S
C208 O220 1.242 . S
C208 O221 1.258 . S
O209 Eu205 2.292 . S
O209 C211 1.255 . S
C210 Eu205 2.852 . S
C210 C214 1.503 . S
C210 O227 1.273 . S
C210 O228 1.257 . S
C211 O209 1.255 . S
C211 O212 1.247 . S
O212 C211 1.247 . S
C213 O225 1.242 . S
C213 O226 1.258 . S
C214 C210 1.503 . S
C214 C215 1.379 . S
C214 C219 1.392 . S
C215 C214 1.379 . S
C215 C216 1.404 . S
C215 H229 0.929 . S
C216 C215 1.404 . S
C216 C217 1.389 . S
C217 C216 1.389 . S
C217 C218 1.399 . S
C217 H230 0.931 . S
C218 C217 1.399 . S
C218 C219 1.390 . S
C219 C214 1.392 . S
C219 C218 1.390 . S
C219 H231 0.929 . S
O220 Tb204 2.326 . S
O220 C208 1.242 . S
O221 Eu205 2.324 . S
O221 C208 1.258 . S
O222 Tb204 2.500 . S
O222 C224 1.273 . S
O223 Tb204 2.473 . S
O223 C224 1.257 . S
C224 O222 1.273 . S
C224 O223 1.257 . S
O225 Eu205 2.326 . S
O225 C213 1.242 . S
O226 Tb204 2.324 . S
O226 C213 1.258 . S
O227 Eu205 2.500 . S
O227 C210 1.273 . S
O228 Eu205 2.473 . S
O228 C210 1.257 . S
H229 C215 0.929 . S
H230 C217 0.931 . S
H231 C219 0.929 . S
C232 C233 1.391 . S
C232 C234 1.394 . S
C232 H248 0.931 . S
C233 C232 1.391 . S
C233 C237 1.376 . S
C234 C232 1.394 . S
C234 C235 1.369 . S
C234 C238 1.531 . S
C235 C234 1.369 . S
C235 C236 1.410 . S
C235 C243 1.503 . S
C236 C235 1.410 . S
C236 C237 1.392 . S
C236 C239 1.511 . S
C237 C233 1.376 . S
C237 C236 1.392 . S
C237 H249 0.929 . S
C238 C234 1.531 . S
C238 H250 0.960 . S
C238 H251 0.962 . S
C238 H252 0.960 . S
C239 C236 1.511 . S
C239 H253 0.961 . S
C239 H254 0.961 . S
C239 H255 0.961 . S
C240 C241 1.370 . S
C240 C242 1.363 . S
C240 H256 0.931 . S
C241 C240 1.370 . S
C241 C245 1.408 . S
C242 C240 1.363 . S
C242 C243 1.370 . S
C242 C246 1.524 . S
C243 C235 1.503 . S
C243 C242 1.370 . S
C243 C244 1.403 . S
C244 C243 1.403 . S
C244 C245 1.404 . S
C244 C247 1.539 . S
C245 C241 1.408 . S
C245 C244 1.404 . S
C245 H257 0.930 . S
C246 C242 1.524 . S
C246 H258 0.956 . S
C246 H259 0.961 . S
C246 H260 0.961 . S
C247 C244 1.539 . S
C247 H261 0.958 . S
C247 H262 0.961 . S
C247 H263 0.960 . S
H248 C232 0.931 . S
H249 C237 0.929 . S
H250 C238 0.960 . S
H251 C238 0.962 . S
H252 C238 0.960 . S
H253 C239 0.961 . S
H254 C239 0.961 . S
H255 C239 0.961 . S
H256 C240 0.931 . S
H257 C245 0.930 . S
H258 C246 0.956 . S
H259 C246 0.961 . S
H260 C246 0.961 . S
H261 C247 0.958 . S
H262 C247 0.961 . S
H263 C247 0.960 . S
C264 C265 1.391 . S
C264 C266 1.394 . S
C264 H280 0.931 . S
C265 C264 1.391 . S
C265 C269 1.376 . S
C266 C264 1.394 . S
C266 C267 1.369 . S
C266 C270 1.531 . S
C267 C266 1.369 . S
C267 C268 1.410 . S
C267 C275 1.503 . S
C268 C267 1.410 . S
C268 C269 1.392 . S
C268 C271 1.511 . S
C269 C265 1.376 . S
C269 C268 1.392 . S
C269 H281 0.929 . S
C270 C266 1.531 . S
C270 H282 0.960 . S
C270 H283 0.962 . S
C270 H284 0.960 . S
C271 C268 1.511 . S
C271 H285 0.961 . S
C271 H286 0.961 . S
C271 H287 0.961 . S
C272 C273 1.370 . S
C272 C274 1.363 . S
C272 H288 0.931 . S
C273 C272 1.370 . S
C273 C277 1.408 . S
C274 C272 1.363 . S
C274 C275 1.370 . S
C274 C278 1.524 . S
C275 C267 1.503 . S
C275 C274 1.370 . S
C275 C276 1.403 . S
C276 C275 1.403 . S
C276 C277 1.404 . S
C276 C279 1.539 . S
C277 C273 1.408 . S
C277 C276 1.404 . S
C277 H289 0.930 . S
C278 C274 1.524 . S
C278 H290 0.956 . S
C278 H291 0.961 . S
C278 H292 0.961 . S
C279 C276 1.539 . S
C279 H293 0.958 . S
C279 H294 0.961 . S
C279 H295 0.960 . S
H280 C264 0.931 . S
H281 C269 0.929 . S
H282 C270 0.960 . S
H283 C270 0.962 . S
H284 C270 0.960 . S
H285 C271 0.961 . S
H286 C271 0.961 . S
H287 C271 0.961 . S
H288 C272 0.931 . S
H289 C277 0.930 . S
H290 C278 0.956 . S
H291 C278 0.961 . S
H292 C278 0.961 . S
H293 C279 0.958 . S
H294 C279 0.961 . S
H295 C279 0.960 . S
C296 C297 1.391 . S
C296 C298 1.394 . S
C296 H312 0.931 . S
C297 C296 1.391 . S
C297 C301 1.376 . S
C298 C296 1.394 . S
C298 C299 1.369 . S
C298 C302 1.531 . S
C299 C298 1.369 . S
C299 C300 1.410 . S
C299 C307 1.503 1_655 S
C300 C299 1.410 . S
C300 C301 1.392 . S
C300 C303 1.511 . S
C301 C297 1.376 . S
C301 C300 1.392 . S
C301 H313 0.929 . S
C302 C298 1.531 . S
C302 H314 0.960 . S
C302 H315 0.962 . S
C302 H316 0.960 . S
C303 C300 1.511 . S
C303 H317 0.961 . S
C303 H318 0.961 1_655 S
C303 H319 0.961 . S
C304 C305 1.370 . S
C304 C306 1.363 . S
C304 H320 0.931 . S
C305 C304 1.370 . S
C305 C309 1.408 . S
C306 C304 1.363 . S
C306 C307 1.370 . S
C306 C310 1.524 . S
C307 C299 1.503 1_455 S
C307 C306 1.370 . S
C307 C308 1.403 . S
C308 C307 1.403 . S
C308 C309 1.404 . S
C308 C311 1.539 . S
C309 C305 1.408 . S
C309 C308 1.404 . S
C309 H321 0.930 . S
C310 C306 1.524 . S
C310 H322 0.956 1_455 S
C310 H323 0.961 1_455 S
C310 H324 0.961 . S
C311 C308 1.539 . S
C311 H325 0.958 . S
C311 H326 0.961 . S
C311 H327 0.960 . S
H312 C296 0.931 . S
H313 C301 0.929 . S
H314 C302 0.960 . S
H315 C302 0.962 . S
H316 C302 0.960 . S
H317 C303 0.961 . S
H318 C303 0.961 1_455 S
H319 C303 0.961 . S
H320 C304 0.931 . S
H321 C309 0.930 . S
H322 C310 0.956 1_655 S
H323 C310 0.961 1_655 S
H324 C310 0.961 . S
H325 C311 0.958 . S
H326 C311 0.961 . S
H327 C311 0.960 . S
C328 C329 1.391 . S
C328 C330 1.394 . S
C328 H344 0.931 . S
C329 C328 1.391 . S
C329 C333 1.376 . S
C330 C328 1.394 . S
C330 C331 1.369 . S
C330 C334 1.531 . S
C331 C330 1.369 . S
C331 C332 1.410 . S
C331 C339 1.503 1_655 S
C332 C331 1.410 . S
C332 C333 1.392 . S
C332 C335 1.511 . S
C333 C329 1.376 . S
C333 C332 1.392 . S
C333 H345 0.929 . S
C334 C330 1.531 . S
C334 H346 0.960 . S
C334 H347 0.962 . S
C334 H348 0.960 . S
C335 C332 1.511 . S
C335 H349 0.961 . S
C335 H350 0.961 1_655 S
C335 H351 0.961 . S
C336 C337 1.370 . S
C336 C338 1.363 . S
C336 H352 0.931 . S
C337 C336 1.370 . S
C337 C341 1.408 . S
C338 C336 1.363 . S
C338 C339 1.370 . S
C338 C342 1.524 . S
C339 C331 1.503 1_455 S
C339 C338 1.370 . S
C339 C340 1.403 . S
C340 C339 1.403 . S
C340 C341 1.404 . S
C340 C343 1.539 . S
C341 C337 1.408 . S
C341 C340 1.404 . S
C341 H353 0.930 . S
C342 C338 1.524 . S
C342 H354 0.956 1_455 S
C342 H355 0.961 1_455 S
C342 H356 0.961 . S
C343 C340 1.539 . S
C343 H357 0.958 . S
C343 H358 0.961 . S
C343 H359 0.960 . S
H344 C328 0.931 . S
H345 C333 0.929 . S
H346 C334 0.960 . S
H347 C334 0.962 . S
H348 C334 0.960 . S
H349 C335 0.961 . S
H350 C335 0.961 1_455 S
H351 C335 0.961 . S
H352 C336 0.931 . S
H353 C341 0.930 . S
H354 C342 0.956 1_655 S
H355 C342 0.961 1_655 S
H356 C342 0.961 . S
H357 C343 0.958 . S
H358 C343 0.961 . S
H359 C343 0.960 . S
C360 C361 1.391 . S
C360 C362 1.394 . S
C360 H376 0.931 . S
C361 C360 1.391 . S
C361 C365 1.376 1_556 S
C362 C360 1.394 . S
C362 C363 1.369 . S
C362 C366 1.531 . S
C363 C362 1.369 . S
C363 C364 1.410 1_556 S
C363 C371 1.503 1_556 S
C364 C363 1.410 1_554 S
C364 C365 1.392 . S
C364 C367 1.511 . S
C365 C361 1.376 1_554 S
C365 C364 1.392 . S
C365 H377 0.929 . S
C366 C362 1.531 . S
C366 H378 0.960 . S
C366 H379 0.962 . S
C366 H380 0.960 . S
C367 C364 1.511 . S
C367 H381 0.961 . S
C367 H382 0.961 . S
C367 H383 0.961 . S
C368 C369 1.370 . S
C368 C370 1.363 . S
C368 H384 0.931 . S
C369 C368 1.370 . S
C369 C373 1.408 . S
C370 C368 1.363 . S
C370 C371 1.370 . S
C370 C374 1.524 . S
C371 C363 1.503 1_554 S
C371 C370 1.370 . S
C371 C372 1.403 1_554 S
C372 C371 1.403 1_556 S
C372 C373 1.404 1_556 S
C372 C375 1.539 . S
C373 C369 1.408 . S
C373 C372 1.404 1_554 S
C373 H385 0.930 1_554 S
C374 C370 1.524 . S
C374 H386 0.956 . S
C374 H387 0.961 . S
C374 H388 0.961 . S
C375 C372 1.539 . S
C375 H389 0.958 . S
C375 H390 0.961 . S
C375 H391 0.960 . S
H376 C360 0.931 . S
H377 C365 0.929 . S
H378 C366 0.960 . S
H379 C366 0.962 . S
H380 C366 0.960 . S
H381 C367 0.961 . S
H382 C367 0.961 . S
H383 C367 0.961 . S
H384 C368 0.931 . S
H385 C373 0.930 1_556 S
H386 C374 0.956 . S
H387 C374 0.961 . S
H388 C374 0.961 . S
H389 C375 0.958 . S
H390 C375 0.961 . S
H391 C375 0.960 . S
C392 C393 1.391 . S
C392 C394 1.394 . S
C392 H408 0.931 . S
C393 C392 1.391 . S
C393 C397 1.376 . S
C394 C392 1.394 . S
C394 C395 1.369 . S
C394 C398 1.531 . S
C395 C394 1.369 . S
C395 C396 1.410 . S
C395 C403 1.503 . S
C396 C395 1.410 . S
C396 C397 1.392 . S
C396 C399 1.511 . S
C397 C393 1.376 . S
C397 C396 1.392 . S
C397 H409 0.929 . S
C398 C394 1.531 . S
C398 H410 0.960 . S
C398 H411 0.962 . S
C398 H412 0.960 . S
C399 C396 1.511 . S
C399 H413 0.961 . S
C399 H414 0.961 . S
C399 H415 0.961 . S
C400 C401 1.370 . S
C400 C402 1.363 . S
C400 H416 0.931 . S
C401 C400 1.370 . S
C401 C405 1.408 . S
C402 C400 1.363 . S
C402 C403 1.370 . S
C402 C406 1.524 . S
C403 C395 1.503 . S
C403 C402 1.370 . S
C403 C404 1.403 . S
C404 C403 1.403 . S
C404 C405 1.404 . S
C404 C407 1.539 . S
C405 C401 1.408 . S
C405 C404 1.404 . S
C405 H417 0.930 . S
C406 C402 1.524 . S
C406 H418 0.956 . S
C406 H419 0.961 . S
C406 H420 0.961 . S
C407 C404 1.539 . S
C407 H421 0.958 . S
C407 H422 0.961 . S
C407 H423 0.960 . S
H408 C392 0.931 . S
H409 C397 0.929 . S
H410 C398 0.960 . S
H411 C398 0.962 . S
H412 C398 0.960 . S
H413 C399 0.961 . S
H414 C399 0.961 . S
H415 C399 0.961 . S
H416 C400 0.931 . S
H417 C405 0.930 . S
H418 C406 0.956 . S
H419 C406 0.961 . S
H420 C406 0.961 . S
H421 C407 0.958 . S
H422 C407 0.961 . S
H423 C407 0.960 . S
C424 C425 1.391 . S
C424 C426 1.394 1_554 S
C424 H440 0.929 . S
C425 C424 1.391 . S
C425 C429 1.376 . S
C426 C424 1.394 1_556 S
C426 C427 1.369 . S
C426 C430 1.531 . S
C427 C426 1.369 . S
C427 C428 1.410 1_556 S
C427 C435 1.503 . S
C428 C427 1.410 1_554 S
C428 C429 1.392 . S
C428 C431 1.511 . S
C429 C425 1.376 . S
C429 C428 1.392 . S
C429 H441 0.929 . S
C430 C426 1.531 . S
C430 H442 0.960 . S
C430 H443 0.962 . S
C430 H444 0.960 . S
C431 C428 1.511 . S
C431 H445 0.961 . S
C431 H446 0.961 . S
C431 H447 0.961 . S
C432 C433 1.370 1_554 S
C432 C434 1.363 . S
C432 H448 0.931 . S
C433 C432 1.370 1_556 S
C433 C437 1.408 . S
C434 C432 1.363 . S
C434 C435 1.370 1_554 S
C434 C438 1.524 . S
C435 C427 1.503 . S
C435 C434 1.370 1_556 S
C435 C436 1.403 . S
C436 C435 1.403 . S
C436 C437 1.404 . S
C436 C439 1.539 . S
C437 C433 1.408 . S
C437 C436 1.404 . S
C437 H449 0.930 . S
C438 C434 1.524 . S
C438 H450 0.956 . S
C438 H451 0.961 . S
C438 H452 0.961 . S
C439 C436 1.539 . S
C439 H453 0.958 . S
C439 H454 0.961 . S
C439 H455 0.960 . S
H440 C424 0.929 . S
H441 C429 0.929 . S
H442 C430 0.960 . S
H443 C430 0.962 . S
H444 C430 0.960 . S
H445 C431 0.961 . S
H446 C431 0.961 . S
H447 C431 0.961 . S
H448 C432 0.931 . S
H449 C437 0.930 . S
H450 C438 0.956 . S
H451 C438 0.961 . S
H452 C438 0.961 . S
H453 C439 0.958 . S
H454 C439 0.961 . S
H455 C439 0.960 . S
C456 C457 1.391 . S
C456 C458 1.394 . S
C456 H472 0.931 . S
C457 C456 1.391 . S
C457 C461 1.376 . S
C458 C456 1.394 . S
C458 C459 1.369 . S
C458 C462 1.531 . S
C459 C458 1.369 . S
C459 C460 1.410 . S
C459 C467 1.503 . S
C460 C459 1.410 . S
C460 C461 1.392 . S
C460 C463 1.511 . S
C461 C457 1.376 . S
C461 C460 1.392 . S
C461 H473 0.929 . S
C462 C458 1.531 . S
C462 H474 0.960 . S
C462 H475 0.962 . S
C462 H476 0.960 . S
C463 C460 1.511 . S
C463 H477 0.961 . S
C463 H478 0.961 . S
C463 H479 0.961 . S
C464 C465 1.370 . S
C464 C466 1.363 . S
C464 H480 0.931 . S
C465 C464 1.370 . S
C465 C469 1.408 . S
C466 C464 1.363 . S
C466 C467 1.370 . S
C466 C470 1.524 . S
C467 C459 1.503 . S
C467 C466 1.370 . S
C467 C468 1.403 . S
C468 C467 1.403 . S
C468 C469 1.404 . S
C468 C471 1.539 . S
C469 C465 1.408 . S
C469 C468 1.404 . S
C469 H481 0.930 . S
C470 C466 1.524 . S
C470 H482 0.956 . S
C470 H483 0.961 . S
C470 H484 0.961 . S
C471 C468 1.539 . S
C471 H485 0.958 . S
C471 H486 0.961 . S
C471 H487 0.960 . S
H472 C456 0.931 . S
H473 C461 0.929 . S
H474 C462 0.960 . S
H475 C462 0.962 . S
H476 C462 0.960 . S
H477 C463 0.961 . S
H478 C463 0.961 . S
H479 C463 0.961 . S
H480 C464 0.931 . S
H481 C469 0.930 . S
H482 C470 0.956 . S
H483 C470 0.961 . S
H484 C470 0.961 . S
H485 C471 0.958 . S
H486 C471 0.961 . S
H487 C471 0.960 . S
C488 C489 1.391 . S
C488 C490 1.394 . S
C488 H504 0.931 . S
C489 C488 1.391 . S
C489 C493 1.376 . S
C490 C488 1.394 . S
C490 C491 1.369 . S
C490 C494 1.531 . S
C491 C490 1.369 . S
C491 C492 1.410 . S
C491 C499 1.503 . S
C492 C491 1.410 . S
C492 C493 1.392 . S
C492 C495 1.511 . S
C493 C489 1.376 . S
C493 C492 1.392 . S
C493 H505 0.929 . S
C494 C490 1.531 . S
C494 H506 0.960 . S
C494 H507 0.962 . S
C494 H508 0.960 . S
C495 C492 1.511 . S
C495 H509 0.961 . S
C495 H510 0.961 . S
C495 H511 0.961 . S
C496 C497 1.370 . S
C496 C498 1.363 . S
C496 H512 0.931 . S
C497 C496 1.370 . S
C497 C501 1.408 . S
C498 C496 1.363 . S
C498 C499 1.370 . S
C498 C502 1.524 . S
C499 C491 1.503 . S
C499 C498 1.370 . S
C499 C500 1.403 . S
C500 C499 1.403 . S
C500 C501 1.404 . S
C500 C503 1.539 . S
C501 C497 1.408 . S
C501 C500 1.404 . S
C501 H513 0.930 . S
C502 C498 1.524 . S
C502 H514 0.956 . S
C502 H515 0.961 . S
C502 H516 0.961 . S
C503 C500 1.539 . S
C503 H517 0.958 . S
C503 H518 0.961 . S
C503 H519 0.960 . S
H504 C488 0.931 . S
H505 C493 0.929 . S
H506 C494 0.960 . S
H507 C494 0.962 . S
H508 C494 0.960 . S
H509 C495 0.961 . S
H510 C495 0.961 . S
H511 C495 0.961 . S
H512 C496 0.931 . S
H513 C501 0.930 . S
H514 C502 0.956 . S
H515 C502 0.961 . S
H516 C502 0.961 . S
H517 C503 0.958 . S
H518 C503 0.961 . S
H519 C503 0.960 . S
C520 C521 1.391 . S
C520 C522 1.394 . S
C520 H536 0.931 . S
C521 C520 1.391 . S
C521 C525 1.376 . S
C522 C520 1.394 . S
C522 C523 1.369 . S
C522 C526 1.531 . S
C523 C522 1.369 . S
C523 C524 1.410 . S
C523 C531 1.503 . S
C524 C523 1.410 . S
C524 C525 1.392 . S
C524 C527 1.511 . S
C525 C521 1.376 . S
C525 C524 1.392 . S
C525 H537 0.929 . S
C526 C522 1.531 . S
C526 H538 0.960 . S
C526 H539 0.962 . S
C526 H540 0.960 . S
C527 C524 1.511 . S
C527 H541 0.961 . S
C527 H542 0.961 . S
C527 H543 0.961 . S
C528 C529 1.370 . S
C528 C530 1.363 . S
C528 H544 0.931 . S
C529 C528 1.370 . S
C529 C533 1.408 . S
C530 C528 1.363 . S
C530 C531 1.370 . S
C530 C534 1.524 . S
C531 C523 1.503 . S
C531 C530 1.370 . S
C531 C532 1.403 . S
C532 C531 1.403 . S
C532 C533 1.404 . S
C532 C535 1.539 . S
C533 C529 1.408 . S
C533 C532 1.404 . S
C533 H545 0.930 . S
C534 C530 1.524 . S
C534 H546 0.956 . S
C534 H547 0.961 . S
C534 H548 0.961 . S
C535 C532 1.539 . S
C535 H549 0.958 . S
C535 H550 0.961 . S
C535 H551 0.960 . S
H536 C520 0.931 . S
H537 C525 0.929 . S
H538 C526 0.960 . S
H539 C526 0.962 . S
H540 C526 0.960 . S
H541 C527 0.961 . S
H542 C527 0.961 . S
H543 C527 0.961 . S
H544 C528 0.931 . S
H545 C533 0.930 . S
H546 C534 0.956 . S
H547 C534 0.961 . S
H548 C534 0.961 . S
H549 C535 0.958 . S
H550 C535 0.961 . S
H551 C535 0.960 . S
C552 C553 1.391 . S
C552 C554 1.394 . S
C552 H568 0.931 . S
C553 C552 1.391 . S
C553 C557 1.376 . S
C554 C552 1.394 . S
C554 C555 1.369 . S
C554 C558 1.531 . S
C555 C554 1.369 . S
C555 C556 1.410 . S
C555 C563 1.503 . S
C556 C555 1.410 . S
C556 C557 1.392 . S
C556 C559 1.511 . S
C557 C553 1.376 . S
C557 C556 1.392 . S
C557 H569 0.929 . S
C558 C554 1.531 . S
C558 H570 0.960 . S
C558 H571 0.962 . S
C558 H572 0.960 . S
C559 C556 1.511 . S
C559 H573 0.961 . S
C559 H574 0.961 . S
C559 H575 0.961 . S
C560 C561 1.370 . S
C560 C562 1.363 . S
C560 H576 0.931 . S
C561 C560 1.370 . S
C561 C565 1.408 . S
C562 C560 1.363 . S
C562 C563 1.370 . S
C562 C566 1.524 . S
C563 C555 1.503 . S
C563 C562 1.370 . S
C563 C564 1.403 . S
C564 C563 1.403 . S
C564 C565 1.404 . S
C564 C567 1.539 . S
C565 C561 1.408 . S
C565 C564 1.404 . S
C565 H577 0.930 . S
C566 C562 1.524 . S
C566 H578 0.956 . S
C566 H579 0.961 . S
C566 H580 0.961 . S
C567 C564 1.539 . S
C567 H581 0.958 . S
C567 H582 0.961 . S
C567 H583 0.960 . S
H568 C552 0.931 . S
H569 C557 0.929 . S
H570 C558 0.960 . S
H571 C558 0.962 . S
H572 C558 0.960 . S
H573 C559 0.961 . S
H574 C559 0.961 . S
H575 C559 0.961 . S
H576 C560 0.931 . S
H577 C565 0.930 . S
H578 C566 0.956 . S
H579 C566 0.961 . S
H580 C566 0.961 . S
H581 C567 0.958 . S
H582 C567 0.961 . S
H583 C567 0.960 . S
C584 C585 1.391 . S
C584 C586 1.394 . S
C584 H600 0.931 . S
C585 C584 1.391 . S
C585 C589 1.376 . S
C586 C584 1.394 . S
C586 C587 1.369 . S
C586 C590 1.531 . S
C587 C586 1.369 . S
C587 C588 1.410 . S
C587 C595 1.503 . S
C588 C587 1.410 . S
C588 C589 1.392 . S
C588 C591 1.511 . S
C589 C585 1.376 . S
C589 C588 1.392 . S
C589 H601 0.929 . S
C590 C586 1.531 . S
C590 H602 0.960 . S
C590 H603 0.962 . S
C590 H604 0.960 . S
C591 C588 1.511 . S
C591 H605 0.961 . S
C591 H606 0.961 . S
C591 H607 0.961 . S
C592 C593 1.370 . S
C592 C594 1.363 . S
C592 H608 0.931 . S
C593 C592 1.370 . S
C593 C597 1.408 . S
C594 C592 1.363 . S
C594 C595 1.370 . S
C594 C598 1.524 . S
C595 C587 1.503 . S
C595 C594 1.370 . S
C595 C596 1.403 . S
C596 C595 1.403 . S
C596 C597 1.404 . S
C596 C599 1.539 . S
C597 C593 1.408 . S
C597 C596 1.404 . S
C597 H609 0.930 . S
C598 C594 1.524 . S
C598 H610 0.956 . S
C598 H611 0.961 . S
C598 H612 0.961 . S
C599 C596 1.539 . S
C599 H613 0.958 . S
C599 H614 0.961 . S
C599 H615 0.960 . S
H600 C584 0.931 . S
H601 C589 0.929 . S
H602 C590 0.960 . S
H603 C590 0.962 . S
H604 C590 0.960 . S
H605 C591 0.961 . S
H606 C591 0.961 . S
H607 C591 0.961 . S
H608 C592 0.931 . S
H609 C597 0.930 . S
H610 C598 0.956 . S
H611 C598 0.961 . S
H612 C598 0.961 . S
H613 C599 0.958 . S
H614 C599 0.961 . S
H615 C599 0.960 . S
C616 C617 1.391 . S
C616 C618 1.394 . S
C616 H632 0.931 . S
C617 C616 1.391 . S
C617 C621 1.376 . S
C618 C616 1.394 . S
C618 C619 1.369 . S
C618 C622 1.531 . S
C619 C618 1.369 . S
C619 C620 1.410 . S
C619 C627 1.525 . S
C620 C619 1.410 . S
C620 C621 1.392 . S
C620 C623 1.511 . S
C621 C617 1.376 . S
C621 C620 1.392 . S
C621 H633 0.929 . S
C622 C618 1.531 . S
C622 H634 0.960 1_565 S
C622 H635 0.962 . S
C622 H636 0.961 1_565 S
C623 C620 1.511 . S
C623 H637 0.961 . S
C623 H638 0.961 . S
C623 H639 0.961 . S
C624 C625 1.370 . S
C624 C626 1.363 1_545 S
C624 H640 0.931 . S
C625 C624 1.370 . S
C625 C629 1.408 . S
C626 C624 1.363 1_565 S
C626 C627 1.382 . S
C626 C630 1.524 . S
C627 C619 1.525 . S
C627 C626 1.382 . S
C627 C628 1.370 1_565 S
C628 C627 1.370 1_545 S
C628 C629 1.404 . S
C628 C631 1.539 . S
C629 C625 1.408 . S
C629 C628 1.404 . S
C629 H641 0.930 . S
C630 C626 1.524 . S
C630 H642 0.956 . S
C630 H643 0.961 . S
C630 H644 0.961 . S
C631 C628 1.539 . S
C631 H645 0.958 . S
C631 H646 0.961 . S
C631 H647 0.960 . S
H632 C616 0.931 . S
H633 C621 0.929 . S
H634 C622 0.960 1_545 S
H635 C622 0.962 . S
H636 C622 0.961 1_545 S
H637 C623 0.961 . S
H638 C623 0.961 . S
H639 C623 0.961 . S
H640 C624 0.931 . S
H641 C629 0.930 . S
H642 C630 0.956 . S
H643 C630 0.961 . S
H644 C630 0.961 . S
H645 C631 0.958 . S
H646 C631 0.961 . S
H647 C631 0.960 . S
C648 C649 1.391 . S
C648 C650 1.394 . S
C648 H664 0.931 . S
C649 C648 1.391 . S
C649 C653 1.376 . S
C650 C648 1.394 . S
C650 C651 1.370 . S
C650 C654 1.531 1_545 S
C651 C650 1.370 . S
C651 C652 1.416 . S
C651 C659 1.496 1_545 S
C652 C651 1.416 . S
C652 C653 1.392 . S
C652 C655 1.511 . S
C653 C649 1.376 . S
C653 C652 1.392 . S
C653 H665 0.929 . S
C654 C650 1.531 1_565 S
C654 H666 0.960 . S
C654 H667 0.962 . S
C654 H668 0.960 . S
C655 C652 1.511 . S
C655 H669 0.961 . S
C655 H670 0.961 1_545 S
C655 H671 0.961 . S
C656 C657 1.370 . S
C656 C658 1.363 . S
C656 H672 0.931 . S
C657 C656 1.370 . S
C657 C661 1.408 . S
C658 C656 1.363 . S
C658 C659 1.370 . S
C658 C662 1.524 . S
C659 C651 1.496 1_565 S
C659 C658 1.370 . S
C659 C660 1.403 . S
C660 C659 1.403 . S
C660 C661 1.404 . S
C660 C663 1.539 1_565 S
C661 C657 1.408 . S
C661 C660 1.404 . S
C661 H673 0.930 . S
C662 C658 1.524 . S
C662 H674 0.956 . S
C662 H675 0.961 . S
C662 H676 0.961 . S
C663 C660 1.539 1_545 S
C663 H677 0.958 . S
C663 H678 0.961 . S
C663 H679 0.960 . S
H664 C648 0.931 . S
H665 C653 0.929 . S
H666 C654 0.960 . S
H667 C654 0.962 . S
H668 C654 0.960 . S
H669 C655 0.961 . S
H670 C655 0.961 1_565 S
H671 C655 0.961 . S
H672 C656 0.931 . S
H673 C661 0.930 . S
H674 C662 0.956 . S
H675 C662 0.961 . S
H676 C662 0.961 . S
H677 C663 0.958 . S
H678 C663 0.961 . S
H679 C663 0.960 . S
C680 C681 1.391 . S
C680 C682 1.394 . S
C680 H696 0.931 . S
C681 C680 1.391 . S
C681 C685 1.376 . S
C682 C680 1.394 . S
C682 C683 1.379 . S
C682 C686 1.531 . S
C683 C682 1.379 . S
C683 C684 1.410 . S
C683 C691 1.491 1_565 S
C684 C683 1.410 . S
C684 C685 1.392 . S
C684 C687 1.511 1_565 S
C685 C681 1.376 . S
C685 C684 1.392 . S
C685 H697 0.929 . S
C686 C682 1.531 . S
C686 H698 0.960 . S
C686 H699 0.962 . S
C686 H700 0.960 . S
C687 C684 1.511 1_545 S
C687 H701 0.961 . S
C687 H702 0.961 . S
C687 H703 0.961 . S
C688 C689 1.370 . S
C688 C690 1.363 . S
C688 H704 0.931 . S
C689 C688 1.370 . S
C689 C693 1.408 . S
C690 C688 1.363 . S
C690 C691 1.370 . S
C690 C694 1.524 . S
C691 C683 1.491 1_545 S
C691 C690 1.370 . S
C691 C692 1.403 . S
C692 C691 1.403 . S
C692 C693 1.404 . S
C692 C695 1.539 1_545 S
C693 C689 1.408 . S
C693 C692 1.404 . S
C693 H705 0.930 1_554 S
C694 C690 1.524 . S
C694 H706 0.956 . S
C694 H707 0.961 . S
C694 H708 0.961 . S
C695 C692 1.539 1_565 S
C695 H709 0.958 . S
C695 H710 0.961 1_554 S
C695 H711 0.960 . S
H696 C680 0.931 . S
H697 C685 0.929 . S
H698 C686 0.960 . S
H699 C686 0.962 . S
H700 C686 0.960 . S
H701 C687 0.961 . S
H702 C687 0.961 . S
H703 C687 0.961 . S
H704 C688 0.931 . S
H705 C693 0.930 1_556 S
H706 C694 0.956 . S
H707 C694 0.961 . S
H708 C694 0.961 . S
H709 C695 0.958 . S
H710 C695 0.961 1_556 S
H711 C695 0.960 . S
C712 C713 1.391 . S
C712 C714 1.394 . S
C712 H728 0.931 . S
C713 C712 1.391 . S
C713 C717 1.376 . S
C714 C712 1.394 . S
C714 C715 1.369 1_565 S
C714 C718 1.531 . S
C715 C714 1.369 1_545 S
C715 C716 1.410 . S
C715 C723 1.503 . S
C716 C715 1.410 . S
C716 C717 1.392 1_545 S
C716 C719 1.511 . S
C717 C713 1.376 . S
C717 C716 1.392 1_565 S
C717 H729 0.929 . S
C718 C714 1.531 . S
C718 H730 0.960 . S
C718 H731 0.962 . S
C718 H732 0.960 . S
C719 C716 1.511 . S
C719 H733 0.961 . S
C719 H734 0.961 . S
C719 H735 0.961 . S
C720 C721 1.370 . S
C720 C722 1.363 . S
C720 H736 0.931 . S
C721 C720 1.370 . S
C721 C725 1.408 . S
C722 C720 1.363 . S
C722 C723 1.370 . S
C722 C726 1.524 . S
C723 C715 1.503 . S
C723 C722 1.370 . S
C723 C724 1.403 . S
C724 C723 1.403 . S
C724 C725 1.404 . S
C724 C727 1.539 . S
C725 C721 1.408 . S
C725 C724 1.404 . S
C725 H737 0.930 . S
C726 C722 1.524 . S
C726 H738 0.956 1_545 S
C726 H739 0.961 . S
C726 H740 0.961 . S
C727 C724 1.539 . S
C727 H741 0.958 . S
C727 H742 0.961 . S
C727 H743 0.960 . S
H728 C712 0.931 . S
H729 C717 0.929 . S
H730 C718 0.960 . S
H731 C718 0.962 . S
H732 C718 0.960 . S
H733 C719 0.961 . S
H734 C719 0.961 . S
H735 C719 0.961 . S
H736 C720 0.931 . S
H737 C725 0.930 . S
H738 C726 0.956 1_565 S
H739 C726 0.961 . S
H740 C726 0.961 . S
H741 C727 0.958 . S
H742 C727 0.961 . S
H743 C727 0.960 . S
C744 C745 1.391 . S
C744 C746 1.394 . S
C744 H760 0.931 . S
C745 C744 1.391 . S
C745 C749 1.376 . S
C746 C744 1.394 . S
C746 C747 1.369 . S
C746 C750 1.531 . S
C747 C746 1.369 . S
C747 C748 1.410 . S
C747 C755 1.503 1_656 S
C748 C747 1.410 . S
C748 C749 1.392 . S
C748 C751 1.511 1_655 S
C749 C745 1.376 . S
C749 C748 1.392 . S
C749 H761 0.929 . S
C750 C746 1.531 . S
C750 H762 0.960 1_556 S
C750 H763 0.962 1_556 S
C750 H764 0.960 . S
C751 C748 1.511 1_455 S
C751 H765 0.961 . S
C751 H766 0.961 . S
C751 H767 0.961 . S
C752 C753 1.370 . S
C752 C754 1.363 . S
C752 H768 0.931 . S
C753 C752 1.370 . S
C753 C757 1.408 . S
C754 C752 1.363 . S
C754 C755 1.370 . S
C754 C758 1.524 . S
C755 C747 1.503 1_454 S
C755 C754 1.370 . S
C755 C756 1.403 . S
C756 C755 1.403 . S
C756 C757 1.404 . S
C756 C759 1.539 1_554 S
C757 C753 1.408 . S
C757 C756 1.404 . S
C757 H769 0.930 . S
C758 C754 1.524 . S
C758 H770 0.956 1_455 S
C758 H771 0.961 . S
C758 H772 0.961 . S
C759 C756 1.539 1_556 S
C759 H773 0.958 1_455 S
C759 H774 0.961 . S
C759 H775 0.960 1_455 S
H760 C744 0.931 . S
H761 C749 0.929 . S
H762 C750 0.960 1_554 S
H763 C750 0.962 1_554 S
H764 C750 0.960 . S
H765 C751 0.961 . S
H766 C751 0.961 . S
H767 C751 0.961 . S
H768 C752 0.931 . S
H769 C757 0.930 . S
H770 C758 0.956 1_655 S
H771 C758 0.961 . S
H772 C758 0.961 . S
H773 C759 0.958 1_655 S
H774 C759 0.961 . S
H775 C759 0.960 1_655 S
C776 C777 1.391 . S
C776 C778 1.394 . S
C776 H792 0.931 . S
C777 C776 1.391 . S
C777 C781 1.376 . S
C778 C776 1.394 . S
C778 C779 1.369 . S
C778 C782 1.531 . S
C779 C778 1.369 . S
C779 C780 1.410 . S
C779 C787 1.503 1_455 S
C780 C779 1.410 . S
C780 C781 1.392 . S
C780 C783 1.511 1_455 S
C781 C777 1.376 . S
C781 C780 1.392 . S
C781 H793 0.929 . S
C782 C778 1.531 . S
C782 H794 0.960 . S
C782 H795 0.962 . S
C782 H796 0.960 . S
C783 C780 1.511 1_655 S
C783 H797 0.961 . S
C783 H798 0.961 . S
C783 H799 0.961 . S
C784 C785 1.370 . S
C784 C786 1.363 . S
C784 H800 0.931 . S
C785 C784 1.370 . S
C785 C789 1.408 . S
C786 C784 1.363 . S
C786 C787 1.370 . S
C786 C790 1.524 1_655 S
C787 C779 1.503 1_655 S
C787 C786 1.370 . S
C787 C788 1.403 . S
C788 C787 1.403 . S
C788 C789 1.404 . S
C788 C791 1.539 . S
C789 C785 1.408 . S
C789 C788 1.404 . S
C789 H801 0.930 . S
C790 C786 1.524 1_455 S
C790 H802 0.956 . S
C790 H803 0.961 . S
C790 H804 0.961 . S
C791 C788 1.539 . S
C791 H805 0.958 . S
C791 H806 0.961 . S
C791 H807 0.960 . S
H792 C776 0.931 . S
H793 C781 0.929 . S
H794 C782 0.960 . S
H795 C782 0.962 . S
H796 C782 0.960 . S
H797 C783 0.961 . S
H798 C783 0.961 . S
H799 C783 0.961 . S
H800 C784 0.931 . S
H801 C789 0.930 . S
H802 C790 0.956 . S
H803 C790 0.961 . S
H804 C790 0.961 . S
H805 C791 0.958 . S
H806 C791 0.961 . S
H807 C791 0.960 . S
C808 C809 1.391 . S
C808 C810 1.394 . S
C808 H824 0.931 . S
C809 C808 1.391 . S
C809 C813 1.376 . S
C810 C808 1.394 . S
C810 C811 1.369 . S
C810 C814 1.531 . S
C811 C810 1.369 . S
C811 C812 1.410 . S
C811 C819 1.503 1_546 S
C812 C811 1.410 . S
C812 C813 1.392 . S
C812 C815 1.511 1_556 S
C813 C809 1.376 . S
C813 C812 1.392 . S
C813 H825 0.929 . S
C814 C810 1.531 . S
C814 H826 0.960 . S
C814 H827 0.962 1_545 S
C814 H828 0.960 . S
C815 C812 1.511 1_554 S
C815 H829 0.961 . S
C815 H830 0.961 1_545 S
C815 H831 0.961 . S
C816 C817 1.370 . S
C816 C818 1.363 . S
C816 H832 0.931 . S
C817 C816 1.370 . S
C817 C821 1.408 . S
C818 C816 1.363 . S
C818 C819 1.370 . S
C818 C822 1.524 1_554 S
C819 C811 1.503 1_564 S
C819 C818 1.370 . S
C819 C820 1.403 1_565 S
C820 C819 1.403 1_545 S
C820 C821 1.404 1_545 S
C820 C823 1.539 . S
C821 C817 1.408 . S
C821 C820 1.404 1_565 S
C821 H833 0.931 . S
C822 C818 1.524 1_556 S
C822 H834 0.956 . S
C822 H835 0.961 . S
C822 H836 0.961 . S
C823 C820 1.539 . S
C823 H837 0.958 . S
C823 H838 0.961 . S
C823 H839 0.960 . S
H824 C808 0.931 . S
H825 C813 0.929 . S
H826 C814 0.960 . S
H827 C814 0.962 1_565 S
H828 C814 0.960 . S
H829 C815 0.961 . S
H830 C815 0.961 1_565 S
H831 C815 0.961 . S
H832 C816 0.931 . S
H833 C821 0.931 . S
H834 C822 0.956 . S
H835 C822 0.961 . S
H836 C822 0.961 . S
H837 C823 0.958 . S
H838 C823 0.961 . S
H839 C823 0.960 . S
C840 C841 1.391 . S
C840 C842 1.394 . S
C840 H856 0.931 . S
C841 C840 1.391 . S
C841 C845 1.376 . S
C842 C840 1.394 . S
C842 C843 1.369 . S
C842 C846 1.531 1_565 S
C843 C842 1.369 . S
C843 C844 1.410 . S
C843 C851 1.503 1_565 S
C844 C843 1.410 . S
C844 C845 1.392 . S
C844 C847 1.511 . S
C845 C841 1.376 . S
C845 C844 1.392 . S
C845 H857 0.929 . S
C846 C842 1.531 1_545 S
C846 H858 0.962 . S
C846 H859 0.962 . S
C846 H860 0.960 1_545 S
C847 C844 1.511 . S
C847 H861 0.961 . S
C847 H862 0.961 . S
C847 H863 0.961 . S
C848 C849 1.370 . S
C848 C850 1.363 . S
C848 H864 0.931 . S
C849 C848 1.370 . S
C849 C853 1.408 . S
C850 C848 1.363 . S
C850 C851 1.370 . S
C850 C854 1.524 . S
C851 C843 1.503 1_545 S
C851 C850 1.370 . S
C851 C852 1.403 1_545 S
C852 C851 1.403 1_565 S
C852 C853 1.404 1_565 S
C852 C855 1.539 . S
C853 C849 1.408 . S
C853 C852 1.404 1_545 S
C853 H865 0.930 . S
C854 C850 1.524 . S
C854 H866 0.956 . S
C854 H867 0.961 . S
C854 H868 0.961 . S
C855 C852 1.539 . S
C855 H869 0.958 . S
C855 H870 0.961 . S
C855 H871 0.960 . S
H856 C840 0.931 . S
H857 C845 0.929 . S
H858 C846 0.962 . S
H859 C846 0.962 . S
H860 C846 0.960 1_565 S
H861 C847 0.961 . S
H862 C847 0.961 . S
H863 C847 0.961 . S
H864 C848 0.931 . S
H865 C853 0.930 . S
H866 C854 0.956 . S
H867 C854 0.961 . S
H868 C854 0.961 . S
H869 C855 0.958 . S
H870 C855 0.961 . S
H871 C855 0.960 . S
C872 C873 1.391 . S
C872 C874 1.394 . S
C872 H888 0.931 . S
C873 C872 1.391 . S
C873 C877 1.376 . S
C874 C872 1.394 . S
C874 C875 1.369 . S
C874 C878 1.531 1_655 S
C875 C874 1.369 . S
C875 C876 1.410 . S
C875 C883 1.503 1_655 S
C876 C875 1.410 . S
C876 C877 1.392 . S
C876 C879 1.511 . S
C877 C873 1.376 . S
C877 C876 1.392 . S
C877 H889 0.929 . S
C878 C874 1.531 1_455 S
C878 H890 0.960 . S
C878 H891 0.962 . S
C878 H892 0.964 . S
C879 C876 1.511 . S
C879 H893 0.961 . S
C879 H894 0.961 . S
C879 H895 0.961 . S
C880 C881 1.370 . S
C880 C882 1.363 . S
C880 H896 0.931 . S
C881 C880 1.370 . S
C881 C885 1.408 . S
C882 C880 1.363 . S
C882 C883 1.370 . S
C882 C886 1.524 . S
C883 C875 1.503 1_455 S
C883 C882 1.370 . S
C883 C884 1.403 1_455 S
C884 C883 1.403 1_655 S
C884 C885 1.404 1_655 S
C884 C887 1.539 . S
C885 C881 1.408 . S
C885 C884 1.404 1_455 S
C885 H897 0.930 . S
C886 C882 1.524 . S
C886 H898 0.956 . S
C886 H899 0.961 . S
C886 H900 0.961 . S
C887 C884 1.539 . S
C887 H901 0.958 . S
C887 H902 0.961 . S
C887 H903 0.960 . S
H888 C872 0.931 . S
H889 C877 0.929 . S
H890 C878 0.960 . S
H891 C878 0.962 . S
H892 C878 0.964 . S
H893 C879 0.961 . S
H894 C879 0.961 . S
H895 C879 0.961 . S
H896 C880 0.931 . S
H897 C885 0.930 . S
H898 C886 0.956 . S
H899 C886 0.961 . S
H900 C886 0.961 . S
H901 C887 0.958 . S
H902 C887 0.961 . S
H903 C887 0.960 . S
C904 C905 1.391 . S
C904 C906 1.394 . S
C904 H920 0.931 . S
C905 C904 1.391 . S
C905 C909 1.376 . S
C906 C904 1.394 . S
C906 C907 1.369 . S
C906 C910 1.531 . S
C907 C906 1.369 . S
C907 C908 1.410 1_455 S
C907 C915 1.503 1_455 S
C908 C907 1.410 1_655 S
C908 C909 1.392 1_655 S
C908 C911 1.511 . S
C909 C905 1.376 . S
C909 C908 1.392 1_455 S
C909 H921 0.929 . S
C910 C906 1.531 . S
C910 H922 0.960 . S
C910 H923 0.962 . S
C910 H924 0.960 . S
C911 C908 1.511 . S
C911 H925 0.961 . S
C911 H926 0.961 . S
C911 H927 0.961 . S
C912 C913 1.370 . S
C912 C914 1.363 . S
C912 H928 0.931 . S
C913 C912 1.370 . S
C913 C917 1.408 . S
C914 C912 1.363 . S
C914 C915 1.370 . S
C914 C918 1.524 1_655 S
C915 C907 1.503 1_655 S
C915 C914 1.370 . S
C915 C916 1.403 . S
C916 C915 1.403 . S
C916 C917 1.404 . S
C916 C919 1.539 . S
C917 C913 1.408 . S
C917 C916 1.404 . S
C917 H929 0.930 . S
C918 C914 1.524 1_455 S
C918 H930 0.956 . S
C918 H931 0.961 . S
C918 H932 0.961 . S
C919 C916 1.539 . S
C919 H933 0.958 . S
C919 H934 0.961 . S
C919 H935 0.960 . S
H920 C904 0.931 . S
H921 C909 0.929 . S
H922 C910 0.960 . S
H923 C910 0.962 . S
H924 C910 0.960 . S
H925 C911 0.961 . S
H926 C911 0.961 . S
H927 C911 0.961 . S
H928 C912 0.931 . S
H929 C917 0.930 . S
H930 C918 0.956 . S
H931 C918 0.961 . S
H932 C918 0.961 . S
H933 C919 0.958 . S
H934 C919 0.961 . S
H935 C919 0.960 . S
C936 C937 1.391 . S
C936 C938 1.394 . S
C936 H952 0.931 . S
C937 C936 1.391 . S
C937 C941 1.376 . S
C938 C936 1.394 . S
C938 C939 1.369 . S
C938 C942 1.531 . S
C939 C938 1.369 . S
C939 C940 1.410 . S
C939 C947 1.503 . S
C940 C939 1.410 . S
C940 C941 1.392 . S
C940 C943 1.511 . S
C941 C937 1.376 . S
C941 C940 1.392 . S
C941 H953 0.929 . S
C942 C938 1.531 . S
C942 H954 0.960 . S
C942 H955 0.962 . S
C942 H956 0.960 . S
C943 C940 1.511 . S
C943 H957 0.961 . S
C943 H958 0.961 . S
C943 H959 0.961 . S
C944 C945 1.370 . S
C944 C946 1.363 . S
C944 H960 0.931 . S
C945 C944 1.370 . S
C945 C949 1.408 . S
C946 C944 1.363 . S
C946 C947 1.370 . S
C946 C950 1.524 . S
C947 C939 1.503 . S
C947 C946 1.370 . S
C947 C948 1.403 . S
C948 C947 1.403 . S
C948 C949 1.404 . S
C948 C951 1.539 . S
C949 C945 1.408 . S
C949 C948 1.404 . S
C949 H961 0.930 . S
C950 C946 1.524 . S
C950 H962 0.956 . S
C950 H963 0.961 . S
C950 H964 0.961 . S
C951 C948 1.539 . S
C951 H965 0.958 . S
C951 H966 0.961 . S
C951 H967 0.960 . S
H952 C936 0.931 . S
H953 C941 0.929 . S
H954 C942 0.960 . S
H955 C942 0.962 . S
H956 C942 0.960 . S
H957 C943 0.961 . S
H958 C943 0.961 . S
H959 C943 0.961 . S
H960 C944 0.931 . S
H961 C949 0.930 . S
H962 C950 0.956 . S
H963 C950 0.961 . S
H964 C950 0.961 . S
H965 C951 0.958 . S
H966 C951 0.961 . S
H967 C951 0.960 . S
C968 C969 1.391 . S
C968 C970 1.394 . S
C968 H984 0.931 . S
C969 C968 1.391 . S
C969 C973 1.376 . S
C970 C968 1.394 . S
C970 C971 1.369 . S
C970 C974 1.531 . S
C971 C970 1.369 . S
C971 C972 1.410 . S
C971 C979 1.503 . S
C972 C971 1.410 . S
C972 C973 1.392 . S
C972 C975 1.511 . S
C973 C969 1.376 . S
C973 C972 1.392 . S
C973 H985 0.929 . S
C974 C970 1.531 . S
C974 H986 0.960 . S
C974 H987 0.962 . S
C974 H988 0.960 . S
C975 C972 1.511 . S
C975 H989 0.961 . S
C975 H990 0.961 . S
C975 H991 0.961 . S
C976 C977 1.370 . S
C976 C978 1.363 . S
C976 H992 0.931 . S
C977 C976 1.370 . S
C977 C981 1.408 . S
C978 C976 1.363 . S
C978 C979 1.370 . S
C978 C982 1.524 . S
C979 C971 1.503 . S
C979 C978 1.370 . S
C979 C980 1.403 . S
C980 C979 1.403 . S
C980 C981 1.404 . S
C980 C983 1.539 . S
C981 C977 1.408 . S
C981 C980 1.404 . S
C981 H993 0.930 . S
C982 C978 1.524 . S
C982 H994 0.956 . S
C982 H995 0.961 . S
C982 H996 0.961 . S
C983 C980 1.539 . S
C983 H997 0.958 . S
C983 H998 0.961 . S
C983 H999 0.960 . S
H984 C968 0.931 . S
H985 C973 0.929 . S
H986 C974 0.960 . S
H987 C974 0.962 . S
H988 C974 0.960 . S
H989 C975 0.961 . S
H990 C975 0.961 . S
H991 C975 0.961 . S
H992 C976 0.931 . S
H993 C981 0.930 . S
H994 C982 0.956 . S
H995 C982 0.961 . S
H996 C982 0.961 . S
H997 C983 0.958 . S
H998 C983 0.961 . S
H999 C983 0.960 . S
C1000 C1001 1.391 . S
C1000 C1002 1.394 . S
C1000 H1016 0.931 . S
C1001 C1000 1.391 . S
C1001 C1005 1.376 . S
C1002 C1000 1.394 . S
C1002 C1003 1.369 . S
C1002 C1006 1.531 1_455 S
C1003 C1002 1.369 . S
C1003 C1004 1.410 . S
C1003 C1011 1.503 1_455 S
C1004 C1003 1.410 . S
C1004 C1005 1.392 . S
C1004 C1007 1.511 . S
C1005 C1001 1.376 . S
C1005 C1004 1.392 . S
C1005 H1017 0.929 . S
C1006 C1002 1.531 1_655 S
C1006 H1018 0.960 . S
C1006 H1019 0.962 1_655 S
C1006 H1020 0.960 . S
C1007 C1004 1.511 . S
C1007 H1021 0.961 . S
C1007 H1022 0.961 . S
C1007 H1023 0.961 1_455 S
C1008 C1009 1.370 . S
C1008 C1010 1.363 . S
C1008 H1024 0.931 . S
C1009 C1008 1.370 . S
C1009 C1013 1.408 . S
C1010 C1008 1.363 . S
C1010 C1011 1.370 . S
C1010 C1014 1.524 1_655 S
C1011 C1003 1.503 1_655 S
C1011 C1010 1.370 . S
C1011 C1012 1.403 . S
C1012 C1011 1.403 . S
C1012 C1013 1.404 . S
C1012 C1015 1.539 . S
C1013 C1009 1.408 . S
C1013 C1012 1.404 . S
C1013 H1025 0.930 . S
C1014 C1010 1.524 1_455 S
C1014 H1026 0.956 . S
C1014 H1027 0.961 . S
C1014 H1028 0.961 . S
C1015 C1012 1.539 . S
C1015 H1029 0.958 . S
C1015 H1030 0.961 . S
C1015 H1031 0.960 . S
H1016 C1000 0.931 . S
H1017 C1005 0.929 . S
H1018 C1006 0.960 . S
H1019 C1006 0.962 1_455 S
H1020 C1006 0.960 . S
H1021 C1007 0.961 . S
H1022 C1007 0.961 . S
H1023 C1007 0.961 1_655 S
H1024 C1008 0.931 . S
H1025 C1013 0.930 . S
H1026 C1014 0.956 . S
H1027 C1014 0.961 . S
H1028 C1014 0.961 . S
H1029 C1015 0.958 . S
H1030 C1015 0.961 . S
H1031 C1015 0.960 . S
C1032 C1033 1.391 . S
C1032 C1034 1.394 . S
C1032 H1048 0.931 . S
C1033 C1032 1.391 . S
C1033 C1037 1.376 . S
C1034 C1032 1.394 . S
C1034 C1035 1.369 . S
C1034 C1038 1.531 . S
C1035 C1034 1.369 . S
C1035 C1036 1.410 . S
C1035 C1043 1.503 1_455 S
C1036 C1035 1.410 . S
C1036 C1037 1.392 . S
C1036 C1039 1.511 . S
C1037 C1033 1.376 . S
C1037 C1036 1.392 . S
C1037 H1049 0.929 . S
C1038 C1034 1.531 . S
C1038 H1050 0.960 . S
C1038 H1051 0.962 1_455 S
C1038 H1052 0.960 . S
C1039 C1036 1.511 . S
C1039 H1053 0.961 . S
C1039 H1054 0.989 . S
C1039 H1055 0.961 . S
C1040 C1041 1.370 . S
C1040 C1042 1.363 . S
C1040 H1056 0.931 . S
C1041 C1040 1.370 . S
C1041 C1045 1.408 . S
C1042 C1040 1.363 . S
C1042 C1043 1.370 . S
C1042 C1046 1.524 . S
C1043 C1035 1.503 1_655 S
C1043 C1042 1.370 . S
C1043 C1044 1.403 1_655 S
C1044 C1043 1.403 1_455 S
C1044 C1045 1.404 1_455 S
C1044 C1047 1.539 . S
C1045 C1041 1.408 . S
C1045 C1044 1.404 1_655 S
C1045 H1057 0.930 . S
C1046 C1042 1.524 . S
C1046 H1058 0.956 . S
C1046 H1059 0.961 . S
C1046 H1060 0.961 . S
C1047 C1044 1.539 . S
C1047 H1061 0.958 . S
C1047 H1062 0.961 . S
C1047 H1063 0.960 . S
H1048 C1032 0.931 . S
H1049 C1037 0.929 . S
H1050 C1038 0.960 . S
H1051 C1038 0.962 1_655 S
H1052 C1038 0.960 . S
H1053 C1039 0.961 . S
H1054 C1039 0.989 . S
H1055 C1039 0.961 . S
H1056 C1040 0.931 . S
H1057 C1045 0.930 . S
H1058 C1046 0.956 . S
H1059 C1046 0.961 . S
H1060 C1046 0.961 . S
H1061 C1047 0.958 . S
H1062 C1047 0.961 . S
H1063 C1047 0.960 . S
C1064 C1065 1.391 . S
C1064 C1066 1.394 . S
C1064 H1080 0.931 . S
C1065 C1064 1.391 . S
C1065 C1069 1.376 . S
C1066 C1064 1.394 . S
C1066 C1067 1.369 . S
C1066 C1070 1.531 . S
C1067 C1066 1.369 . S
C1067 C1068 1.410 . S
C1067 C1075 1.503 . S
C1068 C1067 1.410 . S
C1068 C1069 1.392 . S
C1068 C1071 1.511 . S
C1069 C1065 1.376 . S
C1069 C1068 1.392 . S
C1069 H1081 0.929 . S
C1070 C1066 1.531 . S
C1070 H1082 0.960 . S
C1070 H1083 0.962 . S
C1070 H1084 0.960 . S
C1071 C1068 1.511 . S
C1071 H1085 0.961 . S
C1071 H1086 0.961 . S
C1071 H1087 0.961 . S
C1072 C1073 1.370 . S
C1072 C1074 1.363 . S
C1072 H1088 0.931 . S
C1073 C1072 1.370 . S
C1073 C1077 1.408 . S
C1074 C1072 1.363 . S
C1074 C1075 1.370 . S
C1074 C1078 1.524 . S
C1075 C1067 1.503 . S
C1075 C1074 1.370 . S
C1075 C1076 1.403 . S
C1076 C1075 1.403 . S
C1076 C1077 1.404 . S
C1076 C1079 1.539 . S
C1077 C1073 1.408 . S
C1077 C1076 1.404 . S
C1077 H1089 0.930 . S
C1078 C1074 1.524 . S
C1078 H1090 0.956 . S
C1078 H1091 0.961 . S
C1078 H1092 0.961 . S
C1079 C1076 1.539 . S
C1079 H1093 0.958 . S
C1079 H1094 0.961 . S
C1079 H1095 0.960 . S
H1080 C1064 0.931 . S
H1081 C1069 0.929 . S
H1082 C1070 0.960 . S
H1083 C1070 0.962 . S
H1084 C1070 0.960 . S
H1085 C1071 0.961 . S
H1086 C1071 0.961 . S
H1087 C1071 0.961 . S
H1088 C1072 0.931 . S
H1089 C1077 0.930 . S
H1090 C1078 0.956 . S
H1091 C1078 0.961 . S
H1092 C1078 0.961 . S
H1093 C1079 0.958 . S
H1094 C1079 0.961 . S
H1095 C1079 0.960 . S
C1096 C1097 1.391 . S
C1096 C1098 1.394 . S
C1096 H1112 0.931 . S
C1097 C1096 1.391 . S
C1097 C1101 1.376 . S
C1098 C1096 1.394 . S
C1098 C1099 1.369 . S
C1098 C1102 1.531 . S
C1099 C1098 1.369 . S
C1099 C1100 1.410 . S
C1099 C1107 1.503 . S
C1100 C1099 1.410 . S
C1100 C1101 1.392 . S
C1100 C1103 1.511 . S
C1101 C1097 1.376 . S
C1101 C1100 1.392 . S
C1101 H1113 0.929 . S
C1102 C1098 1.531 . S
C1102 H1114 0.960 . S
C1102 H1115 0.962 . S
C1102 H1116 0.960 . S
C1103 C1100 1.511 . S
C1103 H1117 0.961 . S
C1103 H1118 0.961 . S
C1103 H1119 0.961 . S
C1104 C1105 1.370 . S
C1104 C1106 1.363 . S
C1104 H1120 0.931 . S
C1105 C1104 1.370 . S
C1105 C1109 1.408 . S
C1106 C1104 1.363 . S
C1106 C1107 1.370 . S
C1106 C1110 1.524 . S
C1107 C1099 1.503 . S
C1107 C1106 1.370 . S
C1107 C1108 1.403 . S
C1108 C1107 1.403 . S
C1108 C1109 1.404 . S
C1108 C1111 1.539 . S
C1109 C1105 1.408 . S
C1109 C1108 1.404 . S
C1109 H1121 0.930 . S
C1110 C1106 1.524 . S
C1110 H1122 0.956 . S
C1110 H1123 0.961 . S
C1110 H1124 0.961 . S
C1111 C1108 1.539 . S
C1111 H1125 0.958 . S
C1111 H1126 0.961 . S
C1111 H1127 0.960 . S
H1112 C1096 0.931 . S
H1113 C1101 0.929 . S
H1114 C1102 0.960 . S
H1115 C1102 0.962 . S
H1116 C1102 0.960 . S
H1117 C1103 0.961 . S
H1118 C1103 0.961 . S
H1119 C1103 0.961 . S
H1120 C1104 0.931 . S
H1121 C1109 0.930 . S
H1122 C1110 0.956 . S
H1123 C1110 0.961 . S
H1124 C1110 0.961 . S
H1125 C1111 0.958 . S
H1126 C1111 0.961 . S
H1127 C1111 0.960 . S
C233 C42 3.182 . S
C241 C13 3.166 . S
C265 C100 3.146 . S
C273 C71 3.181 . S
C297 C129 3.189 . S
C305 C158 3.172 . S
C329 C216 3.173 . S
C337 C187 3.166 . S
C361 C189 2.668 . S
C369 C15 2.655 . S
C393 C44 2.685 . S
C401 C218 2.650 . S
C425 C131 2.681 . S
C433 C73 2.651 . S
C457 C102 2.683 . S
C465 C160 2.652 . S
C489 C90 1.980 . S
C497 C10 1.891 1_556 S
C521 C61 1.977 . S
C529 C39 1.906 . S
C553 C32 1.984 . S
C561 C68 1.905 1_554 S
C585 C97 1.915 . S
C593 C3 1.983 . S
C617 C126 1.867 1_556 S
C625 C206 1.994 . S
C649 C177 1.996 . S
C657 C155 1.884 . S
C681 C148 1.996 . S
C689 C184 1.887 1_554 S
C713 C119 1.982 . S
C721 C213 1.906 . S
C745 C79 0.777 . S
C753 C21 0.749 . S
C777 C108 0.829 . S
C785 C50 0.728 . S
C809 C195 0.789 . S
C817 C137 0.755 . S
C841 C166 0.766 . S
C849 C224 0.754 . S
C873 C37 0.973 . S
C881 C8 0.928 . S
C905 C95 0.890 . S
C913 C66 0.953 . S
C937 C124 0.960 . S
C945 C153 0.978 . S
C969 C182 0.917 . S
C977 C211 0.977 . S
C1001 C5 2.312 . S
C1009 C34 2.335 . S
C1033 C92 2.338 . S
C1041 C63 2.324 . S
C1065 C150 2.325 . S
C1073 C121 2.330 . S
C1097 C179 2.327 . S
C1105 C208 2.331 . S
