# Generated by pormake.
# Topology unp, (4)-cn, num edge types: 1
# Building blocks:
#     Node 0, Type 0, BuildingBlock: QUQFOY_clean_sbu_1, # of connection points: 4
#     Node 1, Type 0, BuildingBlock: QUQFOY_clean_sbu_1, # of connection points: 4
#     Node 2, Type 0, BuildingBlock: QUQFOY_clean_sbu_1, # of connection points: 4
#     Node 3, Type 0, BuildingBlock: QUQFOY_clean_sbu_1, # of connection points: 4
#     Node 4, Type 0, BuildingBlock: QUQFOY_clean_sbu_1, # of connection points: 4
#     Node 5, Type 0, BuildingBlock: QUQFOY_clean_sbu_1, # of connection points: 4
#     Node 6, Type 0, BuildingBlock: QUQFOY_clean_sbu_1, # of connection points: 4
#     Node 7, Type 0, BuildingBlock: QUQFOY_clean_sbu_1, # of connection points: 4
#     Node 8, Type 0, BuildingBlock: QUQFOY_clean_sbu_1, # of connection points: 4
#     Node 9, Type 0, BuildingBlock: QUQFOY_clean_sbu_1, # of connection points: 4
#     Node 10, Type 0, BuildingBlock: QUQFOY_clean_sbu_1, # of connection points: 4
#     Node 11, Type 0, BuildingBlock: QUQFOY_clean_sbu_1, # of connection points: 4
#     Node 12, Type 0, BuildingBlock: QUQFOY_clean_sbu_1, # of connection points: 4
#     Node 13, Type 0, BuildingBlock: QUQFOY_clean_sbu_1, # of connection points: 4
#     Node 14, Type 0, BuildingBlock: QUQFOY_clean_sbu_1, # of connection points: 4
#     Node 15, Type 0, BuildingBlock: QUQFOY_clean_sbu_1, # of connection points: 4
#     Node 16, Type 0, BuildingBlock: QUQFOY_clean_sbu_1, # of connection points: 4
#     Node 17, Type 0, BuildingBlock: QUQFOY_clean_sbu_1, # of connection points: 4
#     Edge 18, Type (0, 0), BuildingBlock: ZUJKAS_clean_linker_0, # of connection points: 2
#     Edge 19, Type (0, 0), BuildingBlock: ZUJKAS_clean_linker_0, # of connection points: 2
#     Edge 20, Type (0, 0), BuildingBlock: ZUJKAS_clean_linker_0, # of connection points: 2
#     Edge 21, Type (0, 0), BuildingBlock: ZUJKAS_clean_linker_0, # of connection points: 2
#     Edge 22, Type (0, 0), BuildingBlock: ZUJKAS_clean_linker_0, # of connection points: 2
#     Edge 23, Type (0, 0), BuildingBlock: ZUJKAS_clean_linker_0, # of connection points: 2
#     Edge 24, Type (0, 0), BuildingBlock: ZUJKAS_clean_linker_0, # of connection points: 2
#     Edge 25, Type (0, 0), BuildingBlock: ZUJKAS_clean_linker_0, # of connection points: 2
#     Edge 26, Type (0, 0), BuildingBlock: ZUJKAS_clean_linker_0, # of connection points: 2
#     Edge 27, Type (0, 0), BuildingBlock: ZUJKAS_clean_linker_0, # of connection points: 2
#     Edge 28, Type (0, 0), BuildingBlock: ZUJKAS_clean_linker_0, # of connection points: 2
#     Edge 29, Type (0, 0), BuildingBlock: ZUJKAS_clean_linker_0, # of connection points: 2
#     Edge 30, Type (0, 0), BuildingBlock: ZUJKAS_clean_linker_0, # of connection points: 2
#     Edge 31, Type (0, 0), BuildingBlock: ZUJKAS_clean_linker_0, # of connection points: 2
#     Edge 32, Type (0, 0), BuildingBlock: ZUJKAS_clean_linker_0, # of connection points: 2
#     Edge 33, Type (0, 0), BuildingBlock: ZUJKAS_clean_linker_0, # of connection points: 2
#     Edge 34, Type (0, 0), BuildingBlock: ZUJKAS_clean_linker_0, # of connection points: 2
#     Edge 35, Type (0, 0), BuildingBlock: ZUJKAS_clean_linker_0, # of connection points: 2
#     Edge 36, Type (0, 0), BuildingBlock: ZUJKAS_clean_linker_0, # of connection points: 2
#     Edge 37, Type (0, 0), BuildingBlock: ZUJKAS_clean_linker_0, # of connection points: 2
#     Edge 38, Type (0, 0), BuildingBlock: ZUJKAS_clean_linker_0, # of connection points: 2
#     Edge 39, Type (0, 0), BuildingBlock: ZUJKAS_clean_linker_0, # of connection points: 2
#     Edge 40, Type (0, 0), BuildingBlock: ZUJKAS_clean_linker_0, # of connection points: 2
#     Edge 41, Type (0, 0), BuildingBlock: ZUJKAS_clean_linker_0, # of connection points: 2
#     Edge 42, Type (0, 0), BuildingBlock: ZUJKAS_clean_linker_0, # of connection points: 2
#     Edge 43, Type (0, 0), BuildingBlock: ZUJKAS_clean_linker_0, # of connection points: 2
#     Edge 44, Type (0, 0), BuildingBlock: ZUJKAS_clean_linker_0, # of connection points: 2
#     Edge 45, Type (0, 0), BuildingBlock: ZUJKAS_clean_linker_0, # of connection points: 2
#     Edge 46, Type (0, 0), BuildingBlock: ZUJKAS_clean_linker_0, # of connection points: 2
#     Edge 47, Type (0, 0), BuildingBlock: ZUJKAS_clean_linker_0, # of connection points: 2
#     Edge 48, Type (0, 0), BuildingBlock: ZUJKAS_clean_linker_0, # of connection points: 2
#     Edge 49, Type (0, 0), BuildingBlock: ZUJKAS_clean_linker_0, # of connection points: 2
#     Edge 50, Type (0, 0), BuildingBlock: ZUJKAS_clean_linker_0, # of connection points: 2
#     Edge 51, Type (0, 0), BuildingBlock: ZUJKAS_clean_linker_0, # of connection points: 2
#     Edge 52, Type (0, 0), BuildingBlock: ZUJKAS_clean_linker_0, # of connection points: 2
#     Edge 53, Type (0, 0), BuildingBlock: ZUJKAS_clean_linker_0, # of connection points: 2
# Relax obj value: 0.379
# Max RMSD: 0.177
# Mean RMSD: 0.177
data_MOF--net-unp--node1-QUQFOY_clean_sbu_1--edge1-ZUJKAS_clean_linker_0
_symmetry_space_group_name_H-M    P1
_symmetry_Int_Tables_number       1
_symmetry_cell_setting            triclinic
loop_
_symmetry_equiv_pos_as_xyz
'x, y, z'
_cell_length_a     61.828502
_cell_length_b     61.823697
_cell_length_c     92.539926
_cell_angle_alpha  89.999393
_cell_angle_beta   89.996304
_cell_angle_gamma 119.98662
loop_
_atom_site_label
_atom_site_type_symbol
_atom_site_fract_x
_atom_site_fract_y
_atom_site_fract_z
_atom_type_partial_charge
O0 O 0.16729 0.14144 0.12612 0.0
Cd1 Cd 0.17113 0.17642 0.12761 0.0
Cd2 Cd 0.15954 0.16939 0.09854 0.0
O3 O 0.15886 0.1362 0.10281 0.0
O4 O 0.19013 0.1913 0.14567 0.0
O5 O 0.20474 0.20653 0.12391 0.0
C6 C 0.20803 0.20758 0.13775 0.0
C7 C 0.17441 0.18654 0.0756 0.0
C8 C 0.16222 0.12821 0.11478 0.0
C9 C 0.12452 0.17593 0.11886 0.0
O10 O 0.12997 0.17289 0.10606 0.0
O11 O 0.13881 0.17814 0.12931 0.0
O12 O 0.15286 0.16702 0.07741 0.0
O13 O 0.18799 0.19662 0.08691 0.0
O14 O 0.85458 0.02598 0.12671 0.0
Cd15 Cd 0.81972 0.99475 0.12404 0.0
Cd16 Cd 0.83259 0.00231 0.09541 0.0
O17 O 0.86139 0.03513 0.10354 0.0
O18 O 0.80054 0.9923 0.14178 0.0
O19 O 0.79078 2e-05 0.12009 0.0
C20 C 0.78649 0.99738 0.13384 0.0
C21 C 0.81893 0.00485 0.07211 0.0
C22 C 0.86803 0.04047 0.11665 0.0
C23 C 0.82699 0.95578 0.11015 0.0
O24 O 0.83433 0.97033 0.0993 0.0
O25 O 0.81824 0.96091 0.12122 0.0
O26 O 0.84051 0.00722 0.07443 0.0
O27 O 0.8047 0.00108 0.08314 0.0
O28 O 0.9695 0.82859 0.12837 0.0
Cd29 Cd -9e-05 0.82343 0.12801 0.0
Cd30 Cd 0.99716 0.82785 0.09889 0.0
O31 O 0.96336 0.82471 0.10479 0.0
O32 O 0.99828 0.80358 0.14525 0.0
O33 O 0.99492 0.78987 0.12274 0.0
C34 C 0.99483 0.78589 0.13647 0.0
C35 C 0.99796 0.8122 0.0759 0.0
C36 C 0.95653 0.82705 0.11737 0.0
C37 C 0.04214 0.86826 0.11563 0.0
O38 O 0.02978 0.86069 0.10393 0.0
O39 O 0.03423 0.85515 0.12701 0.0
O40 O 0.99703 0.83235 0.07764 0.0
O41 O 0.99805 0.8003 0.08734 0.0
O42 O 0.13811 0.16985 0.87405 0.0
Cd43 Cd 0.17282 0.17289 0.87515 0.0
Cd44 Cd 0.16214 0.16551 0.90426 0.0
O45 O 0.13132 0.16756 0.89754 0.0
O46 O 0.19071 0.19049 0.85725 0.0
O47 O 0.20257 0.20659 0.87916 0.0
C48 C 0.20575 0.20897 0.86532 0.0
C49 C 0.17716 0.18086 0.92752 0.0
C50 C 0.12446 0.16838 0.8847 0.0
C51 C 0.168 0.12633 0.88738 0.0
O52 O 0.16293 0.1334 0.89916 0.0
O53 O 0.17365 0.14 0.87619 0.0
O54 O 0.15637 0.16056 0.92544 0.0
O55 O 0.18963 0.1931 0.91627 0.0
O56 O 0.82372 0.9661 0.87057 0.0
Cd57 Cd 0.82023 0.99753 0.87033 0.0
Cd58 Cd 0.82941 0.99823 0.89969 0.0
O59 O 0.82819 0.96523 0.89417 0.0
O60 O 0.80143 0.99553 0.85251 0.0
O61 O 0.78672 0.9938 0.87458 0.0
C62 C 0.78349 0.99305 0.86075 0.0
C63 C 0.81577 -0.00027 0.92317 0.0
C64 C 0.82647 0.95575 0.88173 0.0
C65 C 0.86661 0.04165 0.88094 0.0
O66 O 0.86032 0.03121 0.89325 0.0
O67 O 0.8527 0.0316 0.87002 0.0
O68 O 0.83631 -0.00011 0.92076 0.0
O69 O 0.80233 0.99832 0.91215 0.0
O70 O 0.02347 0.85233 0.87796 0.0
Cd71 Cd 0.9923 0.81723 0.87727 0.0
Cd72 Cd 0.98927 0.82513 0.90599 0.0
O73 O 0.02177 0.85809 0.90135 0.0
O74 O 0.99589 0.80032 0.85996 0.0
O75 O 0.99551 0.78742 0.88235 0.0
C76 C 0.99743 0.7848 0.86863 0.0
C77 C 0.98757 0.80761 0.92873 0.0
C78 C 0.03236 0.86583 0.88916 0.0
C79 C 0.94686 0.81839 0.88638 0.0
O80 O 0.95609 0.82204 0.89901 0.0
O81 O 0.95821 0.81543 0.8758 0.0
O82 O 0.98589 0.8274 0.92722 0.0
O83 O 0.99046 0.79753 0.91722 0.0
O84 O 0.83434 0.46904 0.46117 0.0
Cd85 Cd 0.83999 0.50458 0.4587 0.0
Cd86 Cd 0.84209 0.49586 0.43057 0.0
O87 O 0.84589 0.46686 0.43896 0.0
O88 O 0.85569 0.52364 0.47663 0.0
O89 O 0.87468 0.53278 0.45532 0.0
C90 C 0.87544 0.53729 0.46903 0.0
C91 C 0.86353 0.51364 0.40907 0.0
C92 C 0.83951 0.45768 0.45156 0.0
C93 C 0.7973 0.49876 0.44186 0.0
O94 O 0.80702 0.49258 0.43171 0.0
O95 O 0.80871 0.50661 0.45381 0.0
O96 O 0.84534 0.49103 0.4096 0.0
O97 O 0.87008 0.52656 0.42083 0.0
O98 O 0.52316 0.35595 0.45456 0.0
Cd99 Cd 0.48806 0.32599 0.45819 0.0
Cd100 Cd 0.48839 0.31752 0.42881 0.0
O101 O 0.52323 0.34901 0.4312 0.0
O102 O 0.47536 0.33255 0.4764 0.0
O103 O 0.45795 0.32964 0.45501 0.0
C104 C 0.45828 0.33334 0.46878 0.0
C105 C 0.47039 0.31476 0.40602 0.0
C106 C 0.53407 0.36181 0.44238 0.0
C107 C 0.48358 0.27744 0.44987 0.0
O108 O 0.48345 0.28414 0.43689 0.0
O109 O 0.48543 0.29163 0.46029 0.0
O110 O 0.48892 0.3111 0.4078 0.0
O111 O 0.46155 0.31987 0.41733 0.0
O112 O 0.6304 0.15437 0.46355 0.0
Cd113 Cd 0.66157 0.15041 0.46161 0.0
Cd114 Cd 0.65484 0.15399 0.43297 0.0
O115 O 0.62076 0.14766 0.44045 0.0
O116 O 0.66327 0.13308 0.47926 0.0
O117 O 0.65632 0.11636 0.45735 0.0
C118 C 0.65853 0.11426 0.47111 0.0
C119 C 0.65413 0.13806 0.40981 0.0
C120 C 0.6154 0.15081 0.45324 0.0
C121 C 0.70018 0.19634 0.44782 0.0
O122 O 0.68557 0.1888 0.43698 0.0
O123 O 0.69544 0.18252 0.45887 0.0
O124 O 0.65017 0.15635 0.41189 0.0
O125 O 0.65854 0.12842 0.42101 0.0
O126 O 0.80496 0.50514 0.20623 0.0
Cd127 Cd 0.83959 0.50812 0.20767 0.0
Cd128 Cd 0.82835 0.49981 0.2366 0.0
O129 O 0.79844 0.5033 0.22972 0.0
O130 O 0.85808 0.52611 0.19003 0.0
O131 O 0.86922 0.54165 0.21211 0.0
C132 C 0.87289 0.54434 0.19831 0.0
C133 C 0.84305 0.51476 0.25994 0.0
C134 C 0.79154 0.5041 0.21689 0.0
C135 C 0.83415 0.46096 0.21952 0.0
O136 O 0.8283 0.46726 0.23132 0.0
O137 O 0.84054 0.47534 0.20861 0.0
O138 O 0.82149 0.49548 0.25771 0.0
O139 O 0.85664 0.52604 0.24881 0.0
O140 O 0.4929 0.29853 0.20662 0.0
Cd141 Cd 0.48858 0.32949 0.20649 0.0
Cd142 Cd 0.4985 0.33138 0.2353 0.0
O143 O 0.49898 0.29909 0.23012 0.0
O144 O 0.46763 0.32652 0.18954 0.0
O145 O 0.4556 0.32566 0.21221 0.0
C146 C 0.45071 0.32437 0.19854 0.0
C147 C 0.48264 0.33164 0.25831 0.0
C148 C 0.49687 0.2891 0.21781 0.0
C149 C 0.53454 0.37481 0.21636 0.0
O150 O 0.52868 0.36495 0.22885 0.0
O151 O 0.52059 0.36387 0.20559 0.0
O152 O 0.50402 0.33326 0.25653 0.0
O153 O 0.46983 0.32981 0.2469 0.0
O154 O 0.69908 0.18823 0.20848 0.0
Cd155 Cd 0.66761 0.15331 0.20892 0.0
Cd156 Cd 0.66806 0.1623 0.23803 0.0
O157 O 0.70083 0.19384 0.23206 0.0
O158 O 0.66886 0.13541 0.1914 0.0
O159 O 0.67104 0.12352 0.21368 0.0
C160 C 0.67133 0.12024 0.19989 0.0
C161 C 0.66855 0.14738 0.26131 0.0
C162 C 0.70981 0.2015 0.21952 0.0
C163 C 0.62421 0.15654 0.22009 0.0
O164 O 0.63505 0.16087 0.2323 0.0
O165 O 0.6337 0.15209 0.20911 0.0
O166 O 0.66875 0.16802 0.2592 0.0
O167 O 0.66794 0.13471 0.25008 0.0
O168 O 0.49627 0.80489 0.79173 0.0
Cd169 Cd 0.50133 0.84036 0.79332 0.0
Cd170 Cd 0.49128 0.83541 0.76447 0.0
O171 O 0.49048 0.80199 0.76814 0.0
O172 O 0.52293 0.85676 0.81033 0.0
O173 O 0.53433 0.86963 0.78779 0.0
C174 C 0.53965 0.87209 0.80142 0.0
C175 C 0.5068 0.85356 0.74179 0.0
C176 C 0.4923 0.79272 0.78004 0.0
C177 C 0.45574 0.84139 0.78473 0.0
O178 O 0.46144 0.83861 0.77194 0.0
O179 O 0.46968 0.84313 0.79526 0.0
O180 O 0.48521 0.83396 0.7433 0.0
O181 O 0.52003 0.86318 0.75327 0.0
O182 O 0.18546 0.69435 0.79636 0.0
Cd183 Cd 0.15083 0.66268 0.79492 0.0
Cd184 Cd 0.16155 0.6661 0.76583 0.0
O185 O 0.19199 0.69892 0.77287 0.0
O186 O 0.13268 0.66171 0.81283 0.0
O187 O 0.12109 0.66664 0.79099 0.0
C188 C 0.11769 0.66532 0.80483 0.0
C189 C 0.14689 0.66794 0.74272 0.0
C190 C 0.19895 0.7066 0.7857 0.0
C191 C 0.15566 0.62094 0.78234 0.0
O192 O 0.16099 0.63312 0.77056 0.0
O193 O 0.14995 0.629 0.79349 0.0
O194 O 0.16808 0.66921 0.74467 0.0
O195 O 0.13357 0.66552 0.754 0.0
O196 O 0.2957 0.48819 0.79203 0.0
Cd197 Cd 0.3274 0.48521 0.79195 0.0
Cd198 Cd 0.32599 0.49114 0.76259 0.0
O199 O 0.29356 0.49093 0.76837 0.0
O200 O 0.32639 0.46609 0.80943 0.0
O201 O 0.32427 0.45219 0.78709 0.0
C202 C 0.32397 0.44852 0.80088 0.0
C203 C 0.32576 0.47517 0.73951 0.0
C204 C 0.28479 0.49021 0.78091 0.0
C205 C 0.37044 0.53062 0.77983 0.0
O206 O 0.35945 0.52257 0.76778 0.0
O207 O 0.36104 0.51818 0.79132 0.0
O208 O 0.3264 0.49608 0.74134 0.0
O209 O 0.32484 0.46269 0.7509 0.0
O210 O 0.47014 0.83275 0.54325 0.0
Cd211 Cd 0.50513 0.8365 0.54272 0.0
Cd212 Cd 0.49889 0.82938 0.57196 0.0
O213 O 0.46552 0.82777 0.56686 0.0
O214 O 0.52261 0.85642 0.52535 0.0
O215 O 0.5348 0.86952 0.54777 0.0
C216 C 0.53785 0.87372 0.53401 0.0
C217 C 0.51517 0.84587 0.59485 0.0
C218 C 0.45714 0.82922 0.55456 0.0
C219 C 0.50511 0.79159 0.55385 0.0
O220 O 0.50268 0.79916 0.56619 0.0
O221 O 0.50668 0.80398 0.54256 0.0
O222 O 0.49563 0.82429 0.59323 0.0
O223 O 0.52572 0.85865 0.58336 0.0
O224 O 0.15374 0.6269 0.54152 0.0
Cd225 Cd 0.15033 0.65828 0.54322 0.0
Cd226 Cd 0.15844 0.65524 0.57191 0.0
O227 O 0.15698 0.62278 0.56493 0.0
O228 O 0.13101 0.65822 0.52606 0.0
O229 O 0.11708 0.65426 0.54853 0.0
C230 C 0.11333 0.65484 0.53481 0.0
C231 C 0.14146 0.6532 0.59488 0.0
C232 C 0.15588 0.61501 0.55209 0.0
C233 C 0.19691 0.70058 0.55521 0.0
O234 O 0.19035 0.68858 0.56706 0.0
O235 O 0.183 0.69217 0.54412 0.0
O236 O 0.16172 0.65247 0.59311 0.0
O237 O 0.1305 0.65517 0.5835 0.0
O238 O 0.35803 0.51875 0.54095 0.0
Cd239 Cd 0.32758 0.48332 0.53958 0.0
Cd240 Cd 0.32396 0.48852 0.56876 0.0
O241 O 0.35707 0.52125 0.56469 0.0
O242 O 0.33233 0.46701 0.52236 0.0
O243 O 0.33182 0.45423 0.54482 0.0
C244 C 0.33436 0.45187 0.53113 0.0
C245 C 0.32093 0.47107 0.59173 0.0
C246 C 0.36731 0.53061 0.55262 0.0
C247 C 0.28179 0.48301 0.54903 0.0
O248 O 0.29113 0.48616 0.56162 0.0
O249 O 0.2931 0.48057 0.53825 0.0
O250 O 0.31994 0.49116 0.5899 0.0
O251 O 0.32396 0.46063 0.58043 0.0
H252 H 0.43668 0.32438 0.17061 0.0
H253 H 0.39477 0.31089 0.16155 0.0
H254 H 0.36672 0.29861 0.20522 0.0
H255 H 0.40872 0.31199 0.21443 0.0
H256 H 0.34178 0.25723 0.18675 0.0
H257 H 0.34972 0.34224 0.16148 0.0
H258 H 0.37376 0.33565 0.15614 0.0
H259 H 0.37188 0.34342 0.17464 0.0
C260 C 0.42171 0.31923 0.17832 0.0
C261 C 0.42599 0.31914 0.19324 0.0
C262 C 0.39779 0.31172 0.17312 0.0
C263 C 0.37772 0.30405 0.18272 0.0
C264 C 0.38205 0.30467 0.19765 0.0
H265 H 0.21754 0.21921 0.1663 0.0
H266 H 0.25813 0.24509 0.17773 0.0
C267 C 0.40603 0.31231 0.20288 0.0
C268 C 0.35193 0.2927 0.17706 0.0
H269 H 0.31392 0.30332 0.155 0.0
C270 C 0.33553 0.26737 0.17998 0.0
C271 C 0.34401 0.30596 0.16811 0.0
C272 C 0.36067 0.33339 0.16499 0.0
C273 C 0.31166 0.25467 0.1738 0.0
C274 C 0.30376 0.26784 0.16473 0.0
C275 C 0.32002 0.2933 0.16198 0.0
C276 C 0.27892 0.25512 0.15769 0.0
C277 C 0.29553 0.227 0.17657 0.0
C278 C 0.27702 0.25333 0.14257 0.0
C279 C 0.25376 0.23877 0.13596 0.0
C280 C 0.23209 0.22575 0.14441 0.0
C281 C 0.23394 0.22874 0.1595 0.0
C282 C 0.25712 0.24345 0.16607 0.0
H283 H 0.30663 0.21864 0.18066 0.0
H284 H 0.28131 0.22393 0.18486 0.0
H285 H 0.28565 0.21696 0.16659 0.0
H286 H 0.29364 0.26234 0.13591 0.0
H287 H 0.25291 0.23688 0.12431 0.0
H288 H 0.76009 0.01713 0.12126 0.0
H289 H 0.7341 0.03108 0.13354 0.0
H290 H 0.74407 0.00226 0.17389 0.0
H291 H 0.77035 0.98864 0.16179 0.0
H292 H 0.69017 0.00726 0.15129 0.0
H293 H 0.7738 0.07742 0.18147 0.0
H294 H 0.77599 0.06067 0.1661 0.0
H295 H 0.76682 0.04567 0.18344 0.0
C296 C 0.75642 0.01339 0.1327 0.0
C297 C 0.76757 0.00211 0.14059 0.0
C298 C 0.74156 0.02136 0.13969 0.0
C299 C 0.73761 0.01813 0.15466 0.0
C300 C 0.74732 0.00536 0.16238 0.0
H301 H 0.68203 0.08824 0.2146 0.0
H302 H 0.69441 0.05954 0.20428 0.0
C303 C 0.76227 0.99753 0.15543 0.0
C304 C 0.72502 0.02978 0.16238 0.0
H305 H 0.73567 0.0754 0.18681 0.0
C306 C 0.70004 0.02208 0.15911 0.0
C307 C 0.73799 0.04912 0.17256 0.0
C308 C 0.76519 0.05892 0.17605 0.0
C309 C 0.68765 0.03328 0.16578 0.0
C310 C 0.70077 0.0529 0.17578 0.0
C311 C 0.7256 0.06023 0.17923 0.0
C312 C 0.68994 0.06745 0.18205 0.0
C313 C 0.66065 0.02397 0.1621 0.0
C314 C 0.68311 0.08122 0.17297 0.0
C315 C 0.67608 0.09761 0.17882 0.0
C316 C 0.67591 0.1007 0.19388 0.0
C317 C 0.68194 0.08626 0.20297 0.0
C318 C 0.68901 0.06986 0.19709 0.0
H319 H 0.65133 0.00448 0.158 0.0
H320 H 0.65019 0.02478 0.17164 0.0
H321 H 0.65965 0.03593 0.15349 0.0
H322 H 0.68423 0.08011 0.16134 0.0
H323 H 0.67159 0.10848 0.17151 0.0
H324 H 0.90063 0.58941 0.21188 0.0
H325 H 0.92754 0.62994 0.2004 0.0
H326 H 0.91575 0.59372 0.159 0.0
H327 H 0.88853 0.55329 0.17029 0.0
H328 H 0.97112 0.64996 0.18246 0.0
H329 H 0.88845 0.64168 0.15358 0.0
H330 H 0.88569 0.62136 0.16832 0.0
H331 H 0.89419 0.61628 0.1506 0.0
C332 C 0.90408 0.59004 0.20037 0.0
C333 C 0.89217 0.56821 0.19195 0.0
C334 C 0.91946 0.61319 0.19384 0.0
C335 C 0.92319 0.61482 0.17882 0.0
C336 C 0.91268 0.59288 0.17056 0.0
H337 H 0.98253 0.74339 0.12113 0.0
H338 H 0.96876 0.70163 0.13084 0.0
C339 C 0.89719 0.56979 0.17705 0.0
C340 C 0.93642 0.63953 0.17167 0.0
H341 H 0.92731 0.67706 0.1484 0.0
C342 C 0.96162 0.6559 0.17497 0.0
C343 C 0.92391 0.6472 0.16192 0.0
C344 C 0.89652 0.63085 0.15846 0.0
C345 C 0.97469 0.67979 0.16873 0.0
C346 C 0.96207 0.68753 0.15912 0.0
C347 C 0.93699 0.67099 0.15567 0.0
C348 C 0.97378 0.71322 0.15323 0.0
C349 C 0.00189 0.69649 0.17241 0.0
C350 C 0.9814 0.73358 0.1626 0.0
C351 C 0.98922 0.75741 0.15711 0.0
C352 C 0.98941 0.76129 0.14212 0.0
C353 C 0.98262 0.74102 0.13272 0.0
C354 C 0.97475 0.71716 0.13825 0.0
H355 H 0.01055 0.68552 0.17622 0.0
H356 H 0.01255 0.70787 0.16294 0.0
H357 H 0.00353 0.70939 0.18122 0.0
H358 H 0.98027 0.73089 0.1742 0.0
H359 H 0.9943 0.7726 0.16465 0.0
H360 H 0.32395 0.43627 0.82921 0.0
H361 H 0.31069 0.395 0.83923 0.0
H362 H 0.29965 0.36452 0.79619 0.0
H363 H 0.3127 0.40583 0.78602 0.0
H364 H 0.25816 0.34004 0.81389 0.0
H365 H 0.342 0.3505 0.84202 0.0
H366 H 0.33459 0.37428 0.8466 0.0
H367 H 0.34364 0.37223 0.82841 0.0
C368 C 0.31917 0.42091 0.82184 0.0
C369 C 0.31926 0.42431 0.80681 0.0
C370 C 0.31177 0.39735 0.82761 0.0
C371 C 0.30447 0.37675 0.81846 0.0
C372 C 0.30541 0.38024 0.80343 0.0
H373 H 0.22066 0.21723 0.83715 0.0
H374 H 0.24732 0.2574 0.82544 0.0
C375 C 0.31286 0.40384 0.79764 0.0
C376 C 0.29307 0.35125 0.82462 0.0
H377 H 0.30285 0.31478 0.84846 0.0
C378 C 0.26803 0.33437 0.82128 0.0
C379 C 0.30594 0.34404 0.83438 0.0
C380 C 0.3331 0.36113 0.83798 0.0
C381 C 0.25522 0.31075 0.82777 0.0
C382 C 0.26798 0.30359 0.83765 0.0
C383 C 0.29315 0.32031 0.84086 0.0
C384 C 0.25505 0.27907 0.84506 0.0
C385 C 0.22783 0.29407 0.82442 0.0
C386 C 0.25169 0.27783 0.8601 0.0
C387 C 0.23665 0.25482 0.86688 0.0
C388 C 0.22471 0.23274 0.85868 0.0
C389 C 0.22935 0.23394 0.84375 0.0
C390 C 0.24451 0.25688 0.83702 0.0
H391 H 0.21952 0.30462 0.81947 0.0
H392 H 0.22562 0.27942 0.81666 0.0
H393 H 0.21715 0.28471 0.83435 0.0
H394 H 0.25979 0.29476 0.86651 0.0
H395 H 0.23348 0.25449 0.87841 0.0
H396 H 0.73874 0.97649 0.87452 0.0
H397 H 0.69795 0.96221 0.86325 0.0
H398 H 0.73312 0.98379 0.82141 0.0
H399 H 0.7738 0.99753 0.83251 0.0
H400 H 0.67758 0.98444 0.84546 0.0
H401 H 0.68449 0.90922 0.81667 0.0
H402 H 0.70564 0.92733 0.83097 0.0
H403 H 0.70975 0.94015 0.81308 0.0
C404 C 0.73782 0.97848 0.86295 0.0
C405 C 0.75942 0.98778 0.85438 0.0
C406 C 0.71451 0.97034 0.85653 0.0
C407 C 0.71249 0.97145 0.84147 0.0
C408 C 0.73422 0.98222 0.83301 0.0
H409 H 0.58126 0.90267 0.78549 0.0
H410 H 0.62355 0.93051 0.79457 0.0
C411 C 0.75746 0.99015 0.83939 0.0
C412 C 0.68758 0.95993 0.83454 0.0
H413 H 0.64914 0.91294 0.8117 0.0
C414 C 0.67136 0.96887 0.83804 0.0
C415 C 0.67953 0.93957 0.82488 0.0
C416 C 0.69563 0.92831 0.82125 0.0
C417 C 0.64724 0.95795 0.83212 0.0
C418 C 0.63914 0.93744 0.8226 0.0
C419 C 0.65552 0.92882 0.8189 0.0
C420 C 0.6132 0.92334 0.81713 0.0
C421 C 0.63062 0.96842 0.83607 0.0
C422 C 0.59341 0.91025 0.82682 0.0
C423 C 0.56933 0.89427 0.82168 0.0
C424 C 0.5646 0.89102 0.80675 0.0
C425 C 0.5843 0.90481 0.79705 0.0
C426 C 0.60845 0.92072 0.80221 0.0
H427 H 0.64163 0.98797 0.84 0.0
H428 H 0.61915 0.96789 0.82669 0.0
H429 H 0.61777 0.95697 0.84486 0.0
H430 H 0.59677 0.9116 0.83836 0.0
H431 H 0.55458 0.88392 0.82944 0.0
H432 H 0.09004 0.68341 0.79199 0.0
H433 H 0.06335 0.69669 0.80407 0.0
H434 H 0.07518 0.6703 0.8448 0.0
H435 H 0.10224 0.65747 0.8329 0.0
H436 H 0.02003 0.67286 0.82168 0.0
H437 H 0.10242 0.74484 0.85191 0.0
H438 H 0.1053 0.72797 0.83683 0.0
H439 H 0.0962 0.71343 0.8543 0.0
C440 C 0.08665 0.6801 0.80347 0.0
C441 C 0.09854 0.66974 0.81153 0.0
C442 C 0.07139 0.68768 0.81036 0.0
C443 C 0.06775 0.68495 0.82537 0.0
C444 C 0.07822 0.67307 0.83325 0.0
H445 H 0.00794 0.75316 0.88389 0.0
H446 H 0.02132 0.72487 0.87411 0.0
C447 C 0.09361 0.66568 0.82642 0.0
C448 C 0.05456 0.69614 0.8329 0.0
H449 H 0.0637 0.74173 0.85701 0.0
C450 C 0.0295 0.68783 0.82946 0.0
C451 C 0.06701 0.7157 0.84303 0.0
C452 C 0.09427 0.72622 0.84668 0.0
C453 C 0.01657 0.69866 0.83588 0.0
C454 C 0.02917 0.71847 0.84582 0.0
C455 C 0.05404 0.72639 0.84947 0.0
C456 C 0.01777 0.73274 0.85172 0.0
C457 C 0.98955 0.68881 0.83196 0.0
C458 C 0.01117 0.74634 0.84237 0.0
C459 C 0.00363 0.76253 0.84791 0.0
C460 C 0.00267 0.76553 0.86292 0.0
C461 C 0.00845 0.75123 0.87228 0.0
C462 C 0.01609 0.73507 0.86672 0.0
H463 H 0.98069 0.66934 0.82785 0.0
H464 H 0.97874 0.68934 0.8414 0.0
H465 H 0.98845 0.70064 0.8233 0.0
H466 H 0.01286 0.74526 0.83078 0.0
H467 H 0.99932 0.77328 0.8404 0.0
H468 H 0.88218 0.55136 0.49738 0.0
H469 H 0.92161 0.57847 0.5097 0.0
H470 H 0.96096 0.59256 0.4692 0.0
H471 H 0.92154 0.56571 0.45674 0.0
H472 H 0.95986 0.56807 0.51043 0.0
H473 H 0.99338 0.66216 0.4872 0.0
H474 H 0.96132 0.63731 0.4857 0.0
H475 H 0.98476 0.63824 0.47379 0.0
C476 C 0.89915 0.56061 0.49103 0.0
C477 C 0.89875 0.55629 0.47608 0.0
C478 C 0.92166 0.57612 0.49809 0.0
C479 C 0.94418 0.58772 0.49036 0.0
C480 C 0.94374 0.58422 0.47535 0.0
H481 H 0.09986 0.65297 0.50659 0.0
H482 H 0.05821 0.63929 0.49703 0.0
C483 C 0.9212 0.56873 0.46825 0.0
C484 C 0.96828 0.60098 0.49819 0.0
H485 H 0.02371 0.65589 0.49979 0.0
C486 C 0.97368 0.5874 0.50828 0.0
C487 C 0.98629 0.62614 0.49531 0.0
C488 C 0.9811 0.64191 0.48501 0.0
C489 C 0.997 0.59793 0.51513 0.0
C490 C 0.01525 0.62294 0.51202 0.0
C491 C 0.00964 0.63676 0.50219 0.0
C492 C 0.04087 0.63426 0.518 0.0
C493 C 0.00229 0.58177 0.52509 0.0
C494 C 0.0451 0.63678 0.53297 0.0
C495 C 0.06892 0.64446 0.5385 0.0
C496 C 0.08891 0.64992 0.52913 0.0
C497 C 0.08486 0.64877 0.51412 0.0
C498 C 0.06106 0.64101 0.50862 0.0
H499 H 0.98831 0.56163 0.52388 0.0
H500 H 0.02114 0.58439 0.52301 0.0
H501 H 0.00169 0.58715 0.53646 0.0
H502 H 0.02983 0.63212 0.54038 0.0
H503 H 0.07149 0.64535 0.55011 0.0
H504 H 0.34643 0.42171 0.54672 0.0
H505 H 0.36231 0.39522 0.53729 0.0
H506 H 0.35352 0.41433 0.49373 0.0
H507 H 0.33758 0.44069 0.50299 0.0
H508 H 0.33844 0.36158 0.49876 0.0
H509 H 0.43365 0.42959 0.51876 0.0
H510 H 0.40876 0.41825 0.53179 0.0
H511 H 0.40928 0.43742 0.51708 0.0
C512 C 0.34754 0.41998 0.53513 0.0
C513 C 0.341 0.4335 0.5256 0.0
C514 C 0.35667 0.40491 0.52978 0.0
C515 C 0.35934 0.40312 0.51484 0.0
C516 C 0.35163 0.41554 0.5053 0.0
H517 H 0.42601 0.34538 0.45563 0.0
H518 H 0.39966 0.35944 0.4673 0.0
C519 C 0.3426 0.43066 0.51062 0.0
C520 C 0.37186 0.38986 0.5091 0.0
H521 H 0.42894 0.39425 0.50654 0.0
C522 C 0.35818 0.36855 0.50051 0.0
C523 C 0.39762 0.39914 0.5114 0.0
C524 C 0.41334 0.42245 0.52016 0.0
C525 C 0.36964 0.35617 0.49417 0.0
C526 C 0.39555 0.36576 0.49623 0.0
C527 C 0.40908 0.38688 0.50499 0.0
C528 C 0.40937 0.35481 0.48912 0.0
C529 C 0.35387 0.33283 0.48546 0.0
C530 C 0.42377 0.34776 0.49748 0.0
C531 C 0.43911 0.34012 0.49084 0.0
C532 C 0.44034 0.33933 0.47569 0.0
C533 C 0.42534 0.34565 0.46732 0.0
C534 C 0.41012 0.35351 0.47398 0.0
H535 H 0.33387 0.32382 0.4886 0.0
H536 H 0.35528 0.33782 0.47385 0.0
H537 H 0.36031 0.3191 0.48683 0.0
H538 H 0.42355 0.3487 0.50916 0.0
H539 H 0.45037 0.33528 0.4976 0.0
H540 H 0.6394 0.06863 0.45798 0.0
H541 H 0.62583 0.02836 0.46976 0.0
H542 H 0.65363 0.06577 0.51056 0.0
H543 H 0.66682 0.10599 0.49898 0.0
H544 H 0.64984 0.00816 0.48693 0.0
H545 H 0.57884 0.0191 0.51794 0.0
H546 H 0.59554 0.03888 0.50283 0.0
H547 H 0.61042 0.04405 0.52018 0.0
C548 C 0.64296 0.06832 0.46942 0.0
C549 C 0.65384 0.09044 0.4776 0.0
C550 C 0.63522 0.0453 0.47612 0.0
C551 C 0.63829 0.04409 0.49107 0.0
C552 C 0.65063 0.06629 0.49907 0.0
H553 H 0.56973 0.91579 0.54922 0.0
H554 H 0.59809 0.95739 0.53942 0.0
C555 C 0.65822 0.08925 0.49241 0.0
C556 C 0.62695 0.01958 0.49845 0.0
H557 H 0.58151 0.98313 0.52263 0.0
C558 C 0.63498 0.00268 0.49479 0.0
C559 C 0.60755 0.01252 0.50869 0.0
C560 C 0.59737 0.02945 0.51259 0.0
C561 C 0.62404 0.97884 0.5011 0.0
C562 C 0.60438 0.97167 0.51115 0.0
C563 C 0.59673 0.98876 0.51501 0.0
C564 C 0.59008 0.946 0.51704 0.0
C565 C 0.63365 0.96155 0.49697 0.0
C566 C 0.57638 0.9258 0.5077 0.0
C567 C 0.56016 0.90209 0.51325 0.0
C568 C 0.5572 0.89814 0.52826 0.0
C569 C 0.57161 0.91821 0.5376 0.0
C570 C 0.58782 0.94198 0.53203 0.0
H571 H 0.6531 0.97209 0.49283 0.0
H572 H 0.63307 0.94999 0.50631 0.0
H573 H 0.62172 0.94884 0.48827 0.0
H574 H 0.5774 0.92857 0.49611 0.0
H575 H 0.54932 0.88704 0.50575 0.0
H576 H 0.0907 0.17373 0.09907 0.0
H577 H 0.04705 0.16084 0.10338 0.0
H578 H 0.05825 0.15918 0.14927 0.0
H579 H 0.10208 0.17187 0.14506 0.0
H580 H 0.02181 0.11459 0.13852 0.0
H581 H 0.00565 0.18987 0.1192 0.0
H582 H 0.0226 0.18252 0.10625 0.0
H583 H 0.03641 0.19516 0.12357 0.0
C584 C 0.08412 0.17131 0.11013 0.0
C585 C 0.09985 0.17357 0.12171 0.0
C586 C 0.05914 0.16414 0.11258 0.0
C587 C 0.04942 0.15925 0.12666 0.0
C588 C 0.06544 0.16303 0.13833 0.0
H589 H 0.88911 0.05809 0.1433 0.0
H590 H 0.93216 0.09066 0.14837 0.0
C591 C 0.09049 0.17029 0.13589 0.0
C592 C 0.022 0.14633 0.12882 0.0
H593 H 0.96966 0.14802 0.11899 0.0
C594 C 0.01037 0.12211 0.1346 0.0
C595 C 0.00716 0.15615 0.12364 0.0
C596 C 0.01863 0.18247 0.11795 0.0
C597 C 0.98432 0.10675 0.13438 0.0
C598 C 0.96948 0.11613 0.12851 0.0
C599 C 0.98106 0.14086 0.12347 0.0
C600 C 0.9424 0.09956 0.12589 0.0
C601 C 0.97311 0.08007 0.13947 0.0
C602 C 0.93352 0.09479 0.11163 0.0
C603 C 0.90894 0.07644 0.10871 0.0
C604 C 0.89272 0.06242 0.12 0.0
C605 C 0.9012 0.06834 0.13435 0.0
C606 C 0.92582 0.08687 0.13727 0.0
H607 H 0.98749 0.07453 0.14109 0.0
H608 H 0.9635 0.07789 0.14995 0.0
H609 H 0.95913 0.06701 0.13159 0.0
H610 H 0.94597 0.10443 0.10269 0.0
H611 H 0.90303 0.07254 0.09754 0.0
H612 H 0.86107 0.95045 0.09452 0.0
H613 H 0.87205 0.91803 0.09658 0.0
H614 H 0.81339 0.87946 0.12798 0.0
H615 H 0.80335 0.91313 0.12663 0.0
H616 H 0.85125 0.87903 0.13721 0.0
H617 H 0.84462 0.85105 0.08055 0.0
H618 H 0.86498 0.88411 0.08108 0.0
H619 H 0.83274 0.87087 0.08657 0.0
C620 C 0.85016 0.93486 0.10168 0.0
C621 C 0.83122 0.93427 0.11035 0.0
C622 C 0.85632 0.91611 0.10275 0.0
C623 C 0.84311 0.89575 0.11211 0.0
C624 C 0.82374 0.89481 0.12057 0.0
H625 H 0.91198 0.80258 0.10316 0.0
H626 H 0.87791 0.81199 0.10393 0.0
C627 C 0.81797 0.91401 0.11978 0.0
C628 C 0.85141 0.87708 0.11393 0.0
H629 H 0.87682 0.84819 0.09479 0.0
C630 C 0.85624 0.87174 0.12792 0.0
C631 C 0.85707 0.86652 0.10195 0.0
C632 C 0.84923 0.86823 0.08674 0.0
C633 C 0.86858 0.85814 0.13016 0.0
C634 C 0.8776 0.8509 0.11809 0.0
C635 C 0.87071 0.85427 0.10415 0.0
C636 C 0.896 0.84211 0.11948 0.0
C637 C 0.87187 0.85193 0.14548 0.0
C638 C 0.91734 0.85535 0.12818 0.0
C639 C 0.93626 0.84928 0.12816 0.0
C640 C 0.9348 0.83057 0.11896 0.0
C641 C 0.91346 0.81707 0.11036 0.0
C642 C 0.89406 0.82253 0.11078 0.0
H643 H 0.85539 0.8481 0.15216 0.0
H644 H 0.87445 0.83542 0.14601 0.0
H645 H 0.88835 0.86823 0.15037 0.0
H646 H 0.92005 0.87123 0.13451 0.0
H647 H 0.95277 0.86026 0.13468 0.0
H648 H 0.14758 0.09338 0.09323 0.0
H649 H 0.13658 0.0497 0.09546 0.0
H650 H 0.15773 0.06134 0.14041 0.0
H651 H 0.16842 0.10504 0.13838 0.0
H652 H 0.16275 0.02509 0.10474 0.0
H653 H 0.0837 0.0069 0.14118 0.0
H654 H 0.10038 0.03533 0.13086 0.0
H655 H 0.11411 0.0309 0.14688 0.0
C656 C 0.15017 0.08678 0.10356 0.0
C657 C 0.15853 0.10265 0.11568 0.0
C658 C 0.14395 0.06181 0.1048 0.0
C659 C 0.14596 0.05223 0.11815 0.0
C660 C 0.15563 0.0683 0.13007 0.0
H661 H 0.06989 0.89329 0.1394 0.0
H662 H 0.10075 0.93778 0.14105 0.0
C663 C 0.16178 0.09328 0.12887 0.0
C664 C 0.13609 0.02504 0.11973 0.0
H665 H 0.08797 0.97265 0.13472 0.0
C666 C 0.14658 0.01361 0.11142 0.0
C667 C 0.11503 0.01015 0.12849 0.0
C668 C 0.10246 0.02131 0.1373 0.0
C669 C 0.13616 0.98754 0.11136 0.0
C670 C 0.11447 0.9726 0.11965 0.0
C671 C 0.10467 0.98414 0.12843 0.0
C672 C 0.0999 0.94503 0.11825 0.0
C673 C 0.14829 0.97626 0.10231 0.0
C674 C 0.08964 0.93422 0.10482 0.0
C675 C 0.07204 0.90884 0.10383 0.0
C676 C 0.06413 0.89378 0.11629 0.0
C677 C 0.07552 0.90434 0.1296 0.0
C678 C 0.09316 0.92978 0.13057 0.0
H679 H 0.16857 0.98956 0.10089 0.0
H680 H 0.14584 0.95879 0.10722 0.0
H681 H 0.1396 0.9718 0.09143 0.0
H682 H 0.0941 0.94568 0.09522 0.0
H683 H 0.06369 0.90134 0.09341 0.0
H684 H 0.05804 0.88976 0.86463 0.0
H685 H 0.09049 0.93358 0.86219 0.0
H686 H 0.08772 0.94385 0.90811 0.0
H687 H 0.05559 0.90011 0.9107 0.0
H688 H 0.08265 0.9721 0.86897 0.0
H689 H 0.16252 0.9809 0.90062 0.0
H690 H 0.13726 0.95111 0.89461 0.0
H691 H 0.13381 0.96571 0.9106 0.0
C692 C 0.06468 0.9012 0.87426 0.0
C693 C 0.0541 0.89142 0.88786 0.0
C694 C 0.08325 0.92624 0.87284 0.0
C695 C 0.09176 0.94191 0.88499 0.0
C696 C 0.08188 0.93199 0.89863 0.0
H697 H 0.15553 0.09236 0.90918 0.0
H698 H 0.14149 0.04802 0.90688 0.0
C699 C 0.06333 0.90698 0.90007 0.0
C700 C 0.10855 0.9692 0.88325 0.0
H701 H 0.16159 0.01901 0.89656 0.0
C702 C 0.1002 0.98235 0.87474 0.0
C703 C 0.13138 0.98249 0.89083 0.0
C704 C 0.1419 0.96929 0.89957 0.0
C705 C 0.11324 0.00853 0.8743 0.0
C706 C 0.13556 0.02191 0.88236 0.0
C707 C 0.14451 0.00872 0.89037 0.0
C708 C 0.14815 0.04943 0.88386 0.0
C709 C 0.10216 0.02164 0.86592 0.0
C710 C 0.15761 0.06518 0.87177 0.0
C711 C 0.16555 0.09064 0.87302 0.0
C712 C 0.16426 0.10074 0.8864 0.0
C713 C 0.15657 0.08521 0.89867 0.0
C714 C 0.14859 0.05982 0.8974 0.0
H715 H 0.08257 0.00864 0.86259 0.0
H716 H 0.10254 0.0369 0.87244 0.0
H717 H 0.11335 0.03001 0.856 0.0
H718 H 0.15789 0.05759 0.86127 0.0
H719 H 0.17156 0.1021 0.86338 0.0
H720 H 0.10235 0.16666 0.85871 0.0
H721 H 0.05903 0.15589 0.85455 0.0
H722 H 0.04649 0.15177 0.90057 0.0
H723 H 0.08971 0.16288 0.90484 0.0
H724 H 0.02024 0.1116 0.86283 0.0
H725 H 0.00971 0.18711 0.88756 0.0
H726 H 0.03986 0.19078 0.88321 0.0
H727 H 0.02426 0.17569 0.89975 0.0
C728 C 0.09055 0.16404 0.86796 0.0
C729 C 0.09948 0.16546 0.88212 0.0
C730 C 0.0658 0.15792 0.86555 0.0
C731 C 0.04959 0.15332 0.87724 0.0
C732 C 0.05878 0.15583 0.89138 0.0
H733 H 0.90066 0.06779 0.90203 0.0
H734 H 0.94448 0.09912 0.8988 0.0
C735 C 0.08349 0.16196 0.8938 0.0
C736 C 0.0224 0.14248 0.8748 0.0
H737 H 0.97185 0.14678 0.88554 0.0
C738 C 0.00968 0.11959 0.86747 0.0
C739 C 0.00868 0.15292 0.88088 0.0
C740 C 0.02139 0.17812 0.88816 0.0
C741 C 0.98352 0.10598 0.86694 0.0
C742 C 0.96973 0.11578 0.87371 0.0
C743 C 0.98247 0.13931 0.88037 0.0
C744 C 0.94231 0.10042 0.87551 0.0
C745 C 0.97089 0.08045 0.86 0.0
C746 C 0.92629 0.09158 0.86352 0.0
C747 C 0.90114 0.07346 0.86532 0.0
C748 C 0.89165 0.06402 0.87915 0.0
C749 C 0.90737 0.07443 0.89121 0.0
C750 C 0.93245 0.09244 0.8894 0.0
H751 H 0.98427 0.07392 0.85748 0.0
H752 H 0.95609 0.06649 0.86718 0.0
H753 H 0.96197 0.08114 0.84975 0.0
H754 H 0.93349 0.09786 0.85273 0.0
H755 H 0.8895 0.06602 0.85581 0.0
H756 H 0.9181 0.82453 0.90653 0.0
H757 H 0.88736 0.83741 0.90223 0.0
H758 H 0.89423 0.83118 0.85625 0.0
H759 H 0.92549 0.81864 0.86043 0.0
H760 H 0.9036 0.87697 0.8641 0.0
H761 H 0.81548 0.80721 0.88981 0.0
H762 H 0.84138 0.817 0.9019 0.0
H763 H 0.84018 0.80071 0.8855 0.0
C764 C 0.91264 0.82523 0.89549 0.0
C765 C 0.92451 0.82083 0.88382 0.0
C766 C 0.89483 0.8324 0.89306 0.0
C767 C 0.88829 0.83505 0.87892 0.0
C768 C 0.8989 0.8291 0.86725 0.0
H769 H 0.82504 0.93082 0.85689 0.0
H770 H 0.83543 0.89765 0.85426 0.0
C771 C 0.91677 0.82194 0.86967 0.0
C772 C 0.87373 0.84783 0.87644 0.0
H773 H 0.82183 0.84922 0.88769 0.0
C774 C 0.88541 0.8706 0.86893 0.0
C775 C 0.85006 0.83955 0.88281 0.0
C776 C 0.83595 0.81464 0.89033 0.0
C777 C 0.87493 0.88613 0.86845 0.0
C778 C 0.85189 0.87844 0.87547 0.0
C779 C 0.83953 0.85509 0.88235 0.0
C780 C 0.84184 0.89561 0.87707 0.0
C781 C 0.88943 0.91135 0.86125 0.0
C782 C 0.84088 0.90459 0.89083 0.0
C783 C 0.83483 0.9234 0.8924 0.0
C784 C 0.82962 0.93362 0.8802 0.0
C785 C 0.82921 0.92356 0.86649 0.0
C786 C 0.8352 0.90465 0.86495 0.0
H787 H 0.90888 0.91619 0.85864 0.0
H788 H 0.88002 0.91121 0.85101 0.0
H789 H 0.89008 0.92621 0.86829 0.0
H790 H 0.84589 0.8978 0.90033 0.0
H791 H 0.83516 0.93056 0.90313 0.0
H792 H 0.76861 0.48524 0.41743 0.0
H793 H 0.72378 0.46969 0.4159 0.0
H794 H 0.72208 0.4842 0.46135 0.0
H795 H 0.76698 0.50027 0.46293 0.0
H796 H 0.69115 0.42855 0.43077 0.0
H797 H 0.67578 0.50686 0.44508 0.0
H798 H 0.70599 0.5116 0.43984 0.0
H799 H 0.6947 0.50214 0.45798 0.0
C800 C 0.75884 0.48574 0.42703 0.0
C801 C 0.77136 0.49382 0.44033 0.0
C802 C 0.73321 0.47685 0.42613 0.0
C803 C 0.71958 0.4759 0.43848 0.0
C804 C 0.73226 0.48523 0.4516 0.0
H805 H 0.56545 0.38963 0.46436 0.0
H806 H 0.61021 0.41966 0.46266 0.0
C807 C 0.75795 0.49428 0.45251 0.0
C808 C 0.6919 0.46199 0.43808 0.0
H809 H 0.63988 0.4657 0.4461 0.0
C810 C 0.67996 0.4368 0.43392 0.0
C811 C 0.67733 0.47269 0.44236 0.0
C812 C 0.68909 0.49988 0.44644 0.0
C813 C 0.65391 0.42183 0.43425 0.0
C814 C 0.63933 0.43244 0.43864 0.0
C815 C 0.65116 0.45768 0.4427 0.0
C816 C 0.61178 0.41716 0.43941 0.0
C817 C 0.64223 0.39454 0.43033 0.0
C818 C 0.59777 0.40651 0.42685 0.0
C819 C 0.57226 0.38927 0.42777 0.0
C820 C 0.56027 0.38246 0.44129 0.0
C821 C 0.57411 0.39434 0.45379 0.0
C822 C 0.59967 0.41155 0.45284 0.0
H823 H 0.65614 0.38816 0.43028 0.0
H824 H 0.62705 0.38274 0.43801 0.0
H825 H 0.63399 0.39154 0.41935 0.0
H826 H 0.60675 0.4109 0.41636 0.0
H827 H 0.56214 0.3807 0.41791 0.0
H828 H 0.47411 0.23984 0.43092 0.0
H829 H 0.48606 0.20793 0.43364 0.0
H830 H 0.51003 0.23247 0.47734 0.0
H831 H 0.4976 0.26405 0.47483 0.0
H832 H 0.5348 0.22352 0.43786 0.0
H833 H 0.47976 0.15747 0.48152 0.0
H834 H 0.46996 0.17722 0.47269 0.0
H835 H 0.49321 0.18962 0.48671 0.0
C836 C 0.48119 0.23794 0.44127 0.0
C837 C 0.48519 0.25469 0.4526 0.0
C838 C 0.48797 0.21965 0.44282 0.0
C839 C 0.4989 0.21775 0.4557 0.0
C840 C 0.5012 0.23322 0.4674 0.0
H841 H 0.60483 0.17131 0.47655 0.0
H842 H 0.57274 0.18344 0.47782 0.0
C843 C 0.49421 0.25141 0.4659 0.0
C844 C 0.5118 0.20298 0.45597 0.0
H845 H 0.51795 0.15872 0.47474 0.0
C846 C 0.5308 0.20906 0.44578 0.0
C847 C 0.50684 0.18441 0.46646 0.0
C848 C 0.48617 0.17661 0.47739 0.0
C849 C 0.54539 0.19757 0.44597 0.0
C850 C 0.54057 0.1791 0.45648 0.0
C851 C 0.52146 0.17279 0.46665 0.0
C852 C 0.55608 0.16708 0.45722 0.0
C853 C 0.56646 0.20599 0.4352 0.0
C854 C 0.55651 0.15285 0.44554 0.0
C855 C 0.57493 0.14613 0.4447 0.0
C856 C 0.59307 0.1533 0.45562 0.0
C857 C 0.59118 0.16559 0.46794 0.0
C858 C 0.57284 0.17251 0.4687 0.0
H859 H 0.57109 0.22402 0.43003 0.0
H860 H 0.58354 0.20811 0.44047 0.0
H861 H 0.56088 0.19174 0.42656 0.0
H862 H 0.54348 0.14819 0.43667 0.0
H863 H 0.57566 0.13636 0.43516 0.0
H864 H 0.86356 0.43456 0.44019 0.0
H865 H 0.85003 0.38996 0.44154 0.0
H866 H 0.78867 0.37815 0.46906 0.0
H867 H 0.80331 0.42276 0.46866 0.0
H868 H 0.80272 0.34757 0.47665 0.0
H869 H 0.795 0.34283 0.41678 0.0
H870 H 0.82634 0.36177 0.42317 0.0
H871 H 0.80343 0.37106 0.4266 0.0
C872 C 0.84754 0.42243 0.44679 0.0
C873 C 0.83434 0.43201 0.45422 0.0
C874 C 0.83963 0.39692 0.44742 0.0
C875 C 0.81772 0.38043 0.45494 0.0
C876 C 0.80551 0.39034 0.46309 0.0
H877 H 0.70375 0.23586 0.43306 0.0
H878 H 0.73575 0.27955 0.43526 0.0
C879 C 0.8139 0.4159 0.46286 0.0
C880 C 0.80619 0.35284 0.45359 0.0
H881 H 0.78183 0.30525 0.42903 0.0
C882 C 0.79823 0.33829 0.46623 0.0
C883 C 0.80021 0.34068 0.43998 0.0
C884 C 0.80646 0.35485 0.42587 0.0
C885 C 0.78325 0.31217 0.46566 0.0
C886 C 0.77714 0.30006 0.45204 0.0
C887 C 0.78648 0.31451 0.43946 0.0
C888 C 0.75865 0.273 0.45039 0.0
C889 C 0.77283 0.29813 0.47963 0.0
C890 C 0.76091 0.25448 0.45794 0.0
C891 C 0.74211 0.22938 0.45699 0.0
C892 C 0.72121 0.22231 0.44808 0.0
C893 C 0.71968 0.24069 0.43997 0.0
C894 C 0.73803 0.26573 0.44122 0.0
H895 H 0.77417 0.31075 0.48857 0.0
H896 H 0.75295 0.28349 0.47839 0.0
H897 H 0.78366 0.28903 0.48287 0.0
H898 H 0.77701 0.25942 0.46469 0.0
H899 H 0.74386 0.21553 0.46326 0.0
H900 H 0.73247 0.22579 0.19436 0.0
H901 H 0.76386 0.26994 0.19156 0.0
H902 H 0.76658 0.27931 0.23783 0.0
H903 H 0.73578 0.23533 0.24076 0.0
H904 H 0.75544 0.30671 0.19945 0.0
H905 H 0.83958 0.32004 0.22804 0.0
H906 H 0.81464 0.28955 0.22276 0.0
H907 H 0.81239 0.30393 0.23921 0.0
C908 C 0.74021 0.2371 0.20396 0.0
C909 C 0.73146 0.22703 0.21779 0.0
C910 C 0.75817 0.26234 0.20234 0.0
C911 C 0.76782 0.2779 0.21449 0.0
C912 C 0.75993 0.2676 0.22831 0.0
H913 H 0.82149 0.42581 0.24069 0.0
H914 H 0.80993 0.38212 0.23766 0.0
C915 C 0.74207 0.24241 0.22995 0.0
C916 C 0.78329 0.30537 0.21278 0.0
H917 H 0.83503 0.35679 0.226 0.0
C918 C 0.77316 0.31766 0.20495 0.0
C919 C 0.80639 0.31964 0.21999 0.0
C920 C 0.81898 0.30756 0.22784 0.0
C921 C 0.78461 0.34378 0.20492 0.0
C922 C 0.80701 0.358 0.21277 0.0
C923 C 0.81782 0.34581 0.22002 0.0
C924 C 0.81784 0.38523 0.21475 0.0
C925 C 0.77185 0.35588 0.19722 0.0
C926 C 0.82699 0.40165 0.20295 0.0
C927 C 0.83357 0.42669 0.20462 0.0
C928 C 0.8311 0.43569 0.21814 0.0
C929 C 0.82343 0.41949 0.23011 0.0
C930 C 0.81689 0.39451 0.22842 0.0
H931 H 0.75266 0.34201 0.19366 0.0
H932 H 0.77076 0.36976 0.20435 0.0
H933 H 0.78286 0.36588 0.18751 0.0
H934 H 0.82816 0.39487 0.19235 0.0
H935 H 0.83957 0.43869 0.1952 0.0
H936 H 0.76879 0.50155 0.19099 0.0
H937 H 0.72534 0.49064 0.18714 0.0
H938 H 0.71428 0.4887 0.23324 0.0
H939 H 0.75759 0.49999 0.23719 0.0
H940 H 0.68719 0.4468 0.19605 0.0
H941 H 0.67626 0.52245 0.22011 0.0
H942 H 0.70645 0.52635 0.21565 0.0
H943 H 0.69137 0.51185 0.23242 0.0
C944 C 0.75729 0.49942 0.2003 0.0
C945 C 0.76664 0.50145 0.2144 0.0
C946 C 0.73246 0.49322 0.19808 0.0
C947 C 0.71661 0.48914 0.20989 0.0
C948 C 0.72627 0.49236 0.22395 0.0
H949 H 0.56925 0.40216 0.23694 0.0
H950 H 0.61266 0.43414 0.23301 0.0
C951 C 0.75105 0.49858 0.22619 0.0
C952 C 0.68931 0.47791 0.20774 0.0
H953 H 0.63867 0.48159 0.21905 0.0
C954 C 0.67659 0.4547 0.20074 0.0
C955 C 0.67552 0.48823 0.21389 0.0
C956 C 0.68817 0.51372 0.2208 0.0
C957 C 0.65043 0.44068 0.20063 0.0
C958 C 0.63662 0.45038 0.2075 0.0
C959 C 0.64931 0.4742 0.21381 0.0
C960 C 0.60935 0.43468 0.20976 0.0
C961 C 0.63787 0.41488 0.19404 0.0
C962 C 0.59281 0.4252 0.19802 0.0
C963 C 0.56792 0.40671 0.20021 0.0
C964 C 0.55919 0.39754 0.2142 0.0
C965 C 0.57537 0.40858 0.22601 0.0
C966 C 0.60021 0.42697 0.2238 0.0
H967 H 0.6514 0.40861 0.19138 0.0
H968 H 0.6236 0.40106 0.20152 0.0
H969 H 0.62829 0.41494 0.18392 0.0
H970 H 0.59944 0.43125 0.18712 0.0
H971 H 0.5559 0.39879 0.19089 0.0
H972 H 0.49778 0.26517 0.19304 0.0
H973 H 0.50947 0.23289 0.19075 0.0
H974 H 0.51748 0.23243 0.23702 0.0
H975 H 0.50553 0.26431 0.23945 0.0
H976 H 0.5549 0.24027 0.19898 0.0
H977 H 0.48121 0.15833 0.22796 0.0
H978 H 0.47708 0.18387 0.22201 0.0
H979 H 0.49338 0.18627 0.23859 0.0
C980 C 0.50152 0.25783 0.20276 0.0
C981 C 0.50084 0.26745 0.21643 0.0
C982 C 0.50816 0.23936 0.20142 0.0
C983 C 0.51402 0.23 0.21372 0.0
C984 C 0.51245 0.2389 0.22741 0.0
H985 H 0.60032 0.16779 0.24108 0.0
H986 H 0.56955 0.18103 0.23766 0.0
C987 C 0.50584 0.25735 0.22876 0.0
C988 C 0.52484 0.21344 0.21225 0.0
H989 H 0.52109 0.16017 0.22559 0.0
C990 C 0.54723 0.22246 0.20451 0.0
C991 C 0.5148 0.19026 0.21951 0.0
C992 C 0.49016 0.17899 0.22736 0.0
C993 C 0.56072 0.20977 0.2046 0.0
C994 C 0.55128 0.18715 0.21243 0.0
C995 C 0.52828 0.1775 0.2196 0.0
C996 C 0.56642 0.17492 0.21455 0.0
C997 C 0.58573 0.22151 0.19708 0.0
C998 C 0.57403 0.16603 0.20277 0.0
C999 C 0.59181 0.15856 0.20467 0.0
C1000 C 0.60213 0.15976 0.21841 0.0
C1001 C 0.59296 0.16684 0.23033 0.0
C1002 C 0.57529 0.17436 0.22841 0.0
H1003 H 0.59232 0.24113 0.19384 0.0
H1004 H 0.60007 0.22122 0.20418 0.0
H1005 H 0.58416 0.21069 0.18718 0.0
H1006 H 0.56703 0.16587 0.19203 0.0
H1007 H 0.59827 0.15299 0.19527 0.0
H1008 H 0.23363 0.73518 0.76539 0.0
H1009 H 0.27684 0.76754 0.76947 0.0
H1010 H 0.26427 0.76108 0.81549 0.0
H1011 H 0.22095 0.72817 0.81155 0.0
H1012 H 0.30106 0.81389 0.78402 0.0
H1013 H 0.31904 0.743 0.80993 0.0
H1014 H 0.29062 0.73443 0.80019 0.0
H1015 H 0.29515 0.74746 0.81803 0.0
C1016 C 0.23988 0.7408 0.7764 0.0
C1017 C 0.22391 0.72875 0.78816 0.0
C1018 C 0.2646 0.75941 0.7787 0.0
C1019 C 0.27386 0.76638 0.79278 0.0
C1020 C 0.25758 0.75561 0.80454 0.0
H1021 H 0.43381 0.83937 0.81085 0.0
H1022 H 0.39016 0.82736 0.81506 0.0
C1023 C 0.23282 0.73687 0.80226 0.0
C1024 C 0.30101 0.78313 0.79498 0.0
H1025 H 0.35343 0.78251 0.80581 0.0
C1026 C 0.31252 0.80722 0.78899 0.0
C1027 C 0.31591 0.77438 0.8015 0.0
C1028 C 0.30469 0.74837 0.8077 0.0
C1029 C 0.33863 0.82246 0.78888 0.0
C1030 C 0.35354 0.81316 0.7947 0.0
C1031 C 0.34196 0.78964 0.8014 0.0
C1032 C 0.38091 0.82576 0.79239 0.0
C1033 C 0.35 0.84813 0.78226 0.0
C1034 C 0.39037 0.82952 0.77827 0.0
C1035 C 0.41526 0.83636 0.77582 0.0
C1036 C 0.43116 0.83935 0.78745 0.0
C1037 C 0.42208 0.83718 0.80164 0.0
C1038 C 0.39713 0.83031 0.80408 0.0
H1039 H 0.33717 0.85578 0.78319 0.0
H1040 H 0.36806 0.86133 0.78746 0.0
H1041 H 0.35338 0.84691 0.77059 0.0
H1042 H 0.37813 0.82558 0.76907 0.0
H1043 H 0.42162 0.83792 0.76476 0.0
H1044 H 0.26178 0.49143 0.80598 0.0
H1045 H 0.22986 0.50346 0.80875 0.0
H1046 H 0.22746 0.51052 0.76249 0.0
H1047 H 0.25888 0.49808 0.75959 0.0
H1048 H 0.23751 0.54853 0.80088 0.0
H1049 H 0.15412 0.4765 0.77223 0.0
H1050 H 0.17949 0.47165 0.77758 0.0
H1051 H 0.18152 0.48827 0.76117 0.0
C1052 C 0.25404 0.49497 0.79637 0.0
C1053 C 0.26303 0.49394 0.78256 0.0
C1054 C 0.23577 0.50183 0.79798 0.0
C1055 C 0.22603 0.50761 0.78582 0.0
C1056 C 0.2342 0.50555 0.77201 0.0
H1057 H 0.16783 0.59879 0.76072 0.0
H1058 H 0.18034 0.56729 0.76328 0.0
C1059 C 0.25239 0.49865 0.77038 0.0
C1060 C 0.21003 0.51903 0.78756 0.0
H1061 H 0.15726 0.51704 0.77474 0.0
C1062 C 0.21967 0.54134 0.79545 0.0
C1063 C 0.18679 0.50965 0.78044 0.0
C1064 C 0.17477 0.48505 0.77251 0.0
C1065 C 0.20752 0.55535 0.79568 0.0
C1066 C 0.18489 0.54659 0.78797 0.0
C1067 C 0.17463 0.52371 0.78062 0.0
C1068 C 0.1732 0.56229 0.78626 0.0
C1069 C 0.21977 0.58015 0.80344 0.0
C1070 C 0.16408 0.56915 0.79825 0.0
C1071 C 0.15697 0.58728 0.79685 0.0
C1072 C 0.15885 0.59877 0.78342 0.0
C1073 C 0.16634 0.5905 0.77125 0.0
C1074 C 0.17343 0.57242 0.77267 0.0
H1075 H 0.23922 0.5861 0.80676 0.0
H1076 H 0.22006 0.59492 0.79647 0.0
H1077 H 0.2089 0.57864 0.81331 0.0
H1078 H 0.16343 0.56124 0.8088 0.0
H1079 H 0.15111 0.59305 0.80642 0.0
H1080 H 0.4899 0.76385 0.75705 0.0
H1081 H 0.47713 0.71953 0.75726 0.0
H1082 H 0.47112 0.71839 0.80371 0.0
H1083 H 0.48445 0.76293 0.80365 0.0
H1084 H 0.49067 0.6886 0.79296 0.0
H1085 H 0.40343 0.66933 0.76485 0.0
H1086 H 0.43147 0.69078 0.75546 0.0
H1087 H 0.42457 0.69932 0.77271 0.0
C1088 C 0.48619 0.75428 0.76734 0.0
C1089 C 0.48782 0.76684 0.78032 0.0
C1090 C 0.47885 0.72894 0.76743 0.0
C1091 C 0.47267 0.71559 0.78047 0.0
C1092 C 0.4757 0.72835 0.79352 0.0
H1093 H 0.39169 0.55966 0.80383 0.0
H1094 H 0.42095 0.60467 0.80418 0.0
C1095 C 0.48326 0.75379 0.79346 0.0
C1096 C 0.46108 0.68804 0.78038 0.0
H1097 H 0.4097 0.63513 0.76841 0.0
C1098 C 0.47299 0.67685 0.78759 0.0
C1099 C 0.43788 0.67279 0.77349 0.0
C1100 C 0.42343 0.68359 0.7663 0.0
C1101 C 0.46245 0.65073 0.78784 0.0
C1102 C 0.43939 0.63559 0.78081 0.0
C1103 C 0.42754 0.64683 0.77365 0.0
C1104 C 0.42642 0.60795 0.78102 0.0
C1105 C 0.47611 0.63953 0.79544 0.0
C1106 C 0.4203 0.59477 0.76792 0.0
C1107 C 0.40348 0.56913 0.76767 0.0
C1108 C 0.39234 0.55617 0.78052 0.0
C1109 C 0.39997 0.56906 0.79375 0.0
C1110 C 0.41678 0.5948 0.79398 0.0
H1111 H 0.49609 0.65355 0.79722 0.0
H1112 H 0.46734 0.63233 0.80615 0.0
H1113 H 0.47489 0.62366 0.78916 0.0
H1114 H 0.42751 0.60459 0.7578 0.0
H1115 H 0.39817 0.55976 0.75731 0.0
H1116 H 0.50748 0.76307 0.57561 0.0
H1117 H 0.49325 0.7185 0.57471 0.0
H1118 H 0.48129 0.71819 0.52879 0.0
H1119 H 0.49581 0.76292 0.52953 0.0
H1120 H 0.44422 0.68739 0.56599 0.0
H1121 H 0.50903 0.67016 0.53291 0.0
H1122 H 0.51826 0.70006 0.54115 0.0
H1123 H 0.49994 0.6909 0.52488 0.0
C1124 C 0.50254 0.75372 0.56523 0.0
C1125 C 0.50246 0.76649 0.55267 0.0
C1126 C 0.49447 0.72824 0.56474 0.0
C1127 C 0.48624 0.71504 0.5517 0.0
C1128 C 0.48794 0.72808 0.53893 0.0
H1129 H 0.38717 0.56102 0.52902 0.0
H1130 H 0.41875 0.60542 0.52897 0.0
C1131 C 0.49615 0.75366 0.53939 0.0
C1132 C 0.47197 0.68739 0.55194 0.0
H1133 H 0.46906 0.6348 0.53804 0.0
C1134 C 0.44983 0.67588 0.56003 0.0
C1135 C 0.47914 0.6725 0.54395 0.0
C1136 C 0.503 0.68397 0.53531 0.0
C1137 C 0.43436 0.6499 0.56017 0.0
C1138 C 0.44154 0.6349 0.55227 0.0
C1139 C 0.46373 0.64636 0.54418 0.0
C1140 C 0.42554 0.60736 0.55199 0.0
C1141 C 0.41 0.63884 0.56837 0.0
C1142 C 0.41964 0.59356 0.56486 0.0
C1143 C 0.4014 0.56831 0.56497 0.0
C1144 C 0.389 0.55629 0.55215 0.0
C1145 C 0.39627 0.56974 0.53909 0.0
C1146 C 0.41436 0.5951 0.53903 0.0
H1147 H 0.40443 0.65302 0.57071 0.0
H1148 H 0.39471 0.6233 0.56222 0.0
H1149 H 0.4121 0.63134 0.57884 0.0
H1150 H 0.42846 0.60259 0.57493 0.0
H1151 H 0.3965 0.5584 0.57518 0.0
H1152 H 0.23063 0.72445 0.57686 0.0
H1153 H 0.27455 0.75589 0.57431 0.0
H1154 H 0.26473 0.75855 0.52833 0.0
H1155 H 0.22064 0.72677 0.53074 0.0
H1156 H 0.30136 0.74796 0.53539 0.0
H1157 H 0.31541 0.83041 0.56641 0.0
H1158 H 0.29864 0.80205 0.57659 0.0
H1159 H 0.28495 0.80632 0.56044 0.0
C1160 C 0.2376 0.73212 0.56623 0.0
C1161 C 0.22213 0.7229 0.55399 0.0
C1162 C 0.26273 0.75029 0.56481 0.0
C1163 C 0.27289 0.75976 0.55115 0.0
C1164 C 0.25721 0.7516 0.53899 0.0
H1165 H 0.433 0.8315 0.53023 0.0
H1166 H 0.38884 0.81903 0.52791 0.0
C1167 C 0.23201 0.73343 0.5404 0.0
C1168 C 0.30034 0.77521 0.54942 0.0
H1169 H 0.35199 0.82634 0.56291 0.0
C1170 C 0.31245 0.76541 0.54114 0.0
C1171 C 0.31473 0.79787 0.55699 0.0
C1172 C 0.30274 0.80991 0.56549 0.0
C1173 C 0.33856 0.7768 0.54092 0.0
C1174 C 0.35297 0.79893 0.54898 0.0
C1175 C 0.3409 0.80937 0.55675 0.0
C1176 C 0.38035 0.81001 0.55054 0.0
C1177 C 0.3504 0.7642 0.53278 0.0
C1178 C 0.39045 0.81025 0.56415 0.0
C1179 C 0.41568 0.81756 0.56555 0.0
C1180 C 0.43131 0.82474 0.55334 0.0
C1181 C 0.42143 0.82581 0.53983 0.0
C1182 C 0.39618 0.81861 0.53846 0.0
H1183 H 0.33649 0.7448 0.52958 0.0
H1184 H 0.35928 0.77492 0.52279 0.0
H1185 H 0.36509 0.76364 0.5394 0.0
H1186 H 0.37856 0.80377 0.57362 0.0
H1187 H 0.42266 0.81664 0.57613 0.0
H1188 H 0.25229 0.48656 0.56975 0.0
H1189 H 0.22089 0.49886 0.56636 0.0
H1190 H 0.22889 0.49746 0.52013 0.0
H1191 H 0.26078 0.48548 0.52341 0.0
H1192 H 0.2368 0.54211 0.52984 0.0
H1193 H 0.14898 0.46774 0.55353 0.0
H1194 H 0.17477 0.47692 0.56564 0.0
H1195 H 0.17441 0.46272 0.54857 0.0
C1196 C 0.24696 0.48823 0.55883 0.0
C1197 C 0.25927 0.48528 0.54685 0.0
C1198 C 0.22878 0.49505 0.55691 0.0
C1199 C 0.22233 0.49884 0.54299 0.0
C1200 C 0.23347 0.49446 0.53097 0.0
H1201 H 0.15587 0.59358 0.52611 0.0
H1202 H 0.16736 0.56154 0.52175 0.0
C1203 C 0.2517 0.4876 0.53287 0.0
C1204 C 0.20712 0.51111 0.54122 0.0
H1205 H 0.15393 0.50928 0.55307 0.0
C1206 C 0.21839 0.53467 0.53458 0.0
C1207 C 0.18316 0.50141 0.54747 0.0
C1208 C 0.16954 0.47568 0.55407 0.0
C1209 C 0.20717 0.54955 0.53491 0.0
C1210 C 0.18379 0.54039 0.54183 0.0
C1211 C 0.17187 0.51628 0.54779 0.0
C1212 C 0.17292 0.55666 0.54434 0.0
C1213 C 0.22125 0.57561 0.5287 0.0
C1214 C 0.17102 0.56358 0.55851 0.0
C1215 C 0.16429 0.5817 0.56105 0.0
C1216 C 0.15936 0.59329 0.54945 0.0
C1217 C 0.1598 0.58522 0.53528 0.0
C1218 C 0.16644 0.56698 0.53276 0.0
H1219 H 0.24097 0.58137 0.52615 0.0
H1220 H 0.21207 0.57632 0.51855 0.0
H1221 H 0.22111 0.58937 0.53635 0.0
H1222 H 0.17586 0.55578 0.5676 0.0
H1223 H 0.16398 0.58731 0.5721 0.0
H1224 H 0.22247 0.21652 0.06585 0.0
H1225 H 0.23575 0.22892 0.04065 0.0
H1226 H 0.15867 0.19109 0.02719 0.0
H1227 H 0.1454 0.17851 0.05204 0.0
H1228 H 0.22261 0.19284 0.01752 0.0
H1229 H 0.1897 0.25941 0.00612 0.0
H1230 H 0.19583 0.25284 0.02424 0.0
H1231 H 0.1667 0.23207 0.01546 0.0
C1232 C 0.20842 0.21126 0.05752 0.0
C1233 C 0.18291 0.19647 0.06088 0.0
C1234 C 0.21602 0.21834 0.04317 0.0
C1235 C 0.19816 0.21124 0.03211 0.0
C1236 C 0.17273 0.1972 0.03559 0.0
H1237 H 0.1607 0.15315 0.95193 0.0
H1238 H 0.17373 0.16631 0.97672 0.0
C1239 C 0.16519 0.18983 0.04979 0.0
C1240 C 0.20548 0.21578 0.01669 0.0
H1241 H 0.19108 0.23549 0.98559 0.0
C1242 C 0.2165 0.20287 0.01055 0.0
C1243 C 0.19775 0.22906 0.00762 0.0
C1244 C 0.18706 0.24435 0.01372 0.0
C1245 C 0.21762 0.20079 0.9955 0.0
C1246 C 0.20738 0.21183 0.98646 0.0
C1247 C 0.19872 0.22686 0.99256 0.0
C1248 C 0.20133 0.20425 0.97116 0.0
C1249 C 0.22824 0.18546 0.98939 0.0
C1250 C 0.2124 0.22136 0.95978 0.0
C1251 C 0.20505 0.2138 0.94545 0.0
C1252 C 0.18616 0.18921 0.94241 0.0
C1253 C 0.17524 0.17225 0.95389 0.0
C1254 C 0.18278 0.17968 0.96807 0.0
H1255 H 0.24175 0.18466 0.99698 0.0
H1256 H 0.21283 0.16608 0.98754 0.0
H1257 H 0.2377 0.19318 0.9789 0.0
H1258 H 0.22657 0.24049 0.962 0.0
H1259 H 0.21372 0.22728 0.93682 0.0
H1260 H 0.77016 0.99104 0.93338 0.0
H1261 H 0.75913 0.99356 0.9587 0.0
H1262 H 0.83418 0.01531 0.97182 0.0
H1263 H 0.84521 0.01261 0.94692 0.0
H1264 H 0.76791 0.96599 0.98418 0.0
H1265 H 0.81688 0.06908 0.98897 0.0
H1266 H 0.80558 0.05296 0.97192 0.0
H1267 H 0.83432 0.05742 0.97947 0.0
C1268 C 0.78427 0.99645 0.94169 0.0
C1269 C 0.80854 0.00159 0.93817 0.0
C1270 C 0.77795 0.99787 0.9561 0.0
C1271 C 0.79596 0.00488 0.96704 0.0
C1272 C 0.82012 0.01014 0.96349 0.0
H1273 H 0.84791 0.01865 0.0481 0.0
H1274 H 0.83556 0.01902 0.0232 0.0
C1275 C 0.82634 0.00846 0.94924 0.0
C1276 C 0.79 0.00596 0.98241 0.0
H1277 H 0.81187 0.04609 0.01098 0.0
C1278 C 0.77669 0.98349 0.99007 0.0
C1279 C 0.80149 0.02885 0.98999 0.0
C1280 C 0.8152 0.0535 0.98217 0.0
C1281 C 0.77671 0.98324 0.00527 0.0
C1282 C 0.79022 0.00605 0.01284 0.0
C1283 C 0.80156 0.02862 0.00514 0.0
C1284 C 0.79695 0.00665 0.02825 0.0
C1285 C 0.76425 0.95854 0.01311 0.0
C1286 C 0.77931 -0.00021 0.03941 0.0
C1287 C 0.78637 0.9996 0.05381 0.0
C1288 C 0.81112 0.00614 0.05716 0.0
C1289 C 0.82868 0.01338 0.04592 0.0
C1290 C 0.82168 0.0137 0.03166 0.0
H1291 H 0.75534 0.94243 0.00557 0.0
H1292 H 0.77817 0.95673 0.0198 0.0
H1293 H 0.7497 0.95771 0.02049 0.0
H1294 H 0.76015 0.99446 0.03697 0.0
H1295 H 0.77244 0.99395 0.06225 0.0
H1296 H 0.00449 0.7762 0.93764 0.0
H1297 H 0.00559 0.76292 0.96261 0.0
H1298 H 0.96918 0.80285 0.97744 0.0
H1299 H 0.96825 0.81625 0.95283 0.0
H1300 H 0.03017 0.79789 0.98591 0.0
H1301 H 0.93038 0.73441 0.99806 0.0
H1302 H 0.9425 0.74101 0.97982 0.0
H1303 H 0.93551 0.76236 0.98913 0.0
C1304 C 0.99638 0.78175 0.94623 0.0
C1305 C 0.98638 0.79734 0.94332 0.0
C1306 C 0.997 0.77416 0.96045 0.0
C1307 C 0.98709 0.78158 0.97182 0.0
C1308 C 0.97646 0.79648 0.9688 0.0
H1309 H 0.01192 0.84002 0.05151 0.0
H1310 H 0.01157 0.82632 0.02683 0.0
C1311 C 0.97616 0.80432 0.95473 0.0
C1312 C 0.99002 0.77644 0.9871 0.0
H1313 H 0.95667 0.75771 0.01849 0.0
C1314 C 0.01415 0.78836 0.99302 0.0
C1315 C 0.96916 0.76376 0.99635 0.0
C1316 C 0.94293 0.74943 0.99049 0.0
C1317 C 0.01777 0.7902 0.00804 0.0
C1318 C 0.99675 0.77998 0.01728 0.0
C1319 C 0.97277 0.76575 0.01138 0.0
C1320 C 0.99896 0.7879 0.03256 0.0
C1321 C 0.04399 0.80453 0.01391 0.0
C1322 C 0.9918 0.77074 0.044 0.0
C1323 C 0.99215 0.77862 0.05827 0.0
C1324 C 0.99907 0.8036 0.06116 0.0
C1325 C 0.0064 0.82064 0.04965 0.0
C1326 C 0.00641 0.81288 0.03553 0.0
H1327 H 0.05765 0.80423 0.00623 0.0
H1328 H 0.04909 0.82429 0.0156 0.0
H1329 H 0.04549 0.79676 0.02444 0.0
H1330 H 0.98571 0.75129 0.04187 0.0
H1331 H 0.98632 0.76509 0.06695 0.0
H1332 H 0.89131 0.54291 0.26978 0.0
H1333 H 0.905 0.5502 0.29519 0.0
H1334 H 0.8281 0.5121 0.30901 0.0
H1335 H 0.81441 0.50426 0.28391 0.0
H1336 H 0.8954 0.57248 0.31987 0.0
H1337 H 0.85671 0.47082 0.32668 0.0
H1338 H 0.86123 0.48525 0.30915 0.0
H1339 H 0.83395 0.47798 0.3197 0.0
C1340 C 0.87739 0.53643 0.27827 0.0
C1341 C 0.85181 0.52266 0.2749 0.0
C1342 C 0.88522 0.5406 0.29274 0.0
C1343 C 0.86754 0.53118 0.30395 0.0
C1344 C 0.84205 0.51901 0.30053 0.0
H1345 H 0.86152 0.55037 0.39425 0.0
H1346 H 0.86943 0.5588 0.36838 0.0
C1347 C 0.83425 0.51458 0.28617 0.0
C1348 C 0.8752 0.53228 0.31923 0.0
H1349 H 0.86434 0.49457 0.34836 0.0
C1350 C 0.88902 0.55551 0.32611 0.0
C1351 C 0.86745 0.51015 0.32726 0.0
C1352 C 0.85426 0.48465 0.32028 0.0
C1353 C 0.89397 0.55709 0.34105 0.0
C1354 C 0.88429 0.53485 0.3493 0.0
C1355 C 0.8717 0.51171 0.34217 0.0
C1356 C 0.88509 0.53458 0.36539 0.0
C1357 C 0.9094 0.58254 0.34777 0.0
C1358 C 0.8915 0.51844 0.37248 0.0
C1359 C 0.88618 0.51303 0.38714 0.0
C1360 C 0.87511 0.52426 0.39507 0.0
C1361 C 0.87061 0.54197 0.38836 0.0
C1362 C 0.87528 0.54687 0.37358 0.0
H1363 H 0.92305 0.59598 0.33988 0.0
H1364 H 0.89692 0.58976 0.35106 0.0
H1365 H 0.9197 0.58188 0.35743 0.0
H1366 H 0.89905 0.50869 0.36646 0.0
H1367 H 0.88949 0.49907 0.39211 0.0
H1368 H 0.50896 0.34205 0.28326 0.0
H1369 H 0.49408 0.33981 0.30784 0.0
H1370 H 0.42075 0.31901 0.29177 0.0
H1371 H 0.43562 0.32117 0.26682 0.0
H1372 H 0.47022 0.36568 0.32092 0.0
H1373 H 0.41101 0.26185 0.32046 0.0
H1374 H 0.43525 0.27803 0.30718 0.0
H1375 H 0.40724 0.27987 0.3064 0.0
C1376 C 0.48967 0.3371 0.28487 0.0
C1377 C 0.47342 0.3316 0.27308 0.0
C1378 C 0.48123 0.33595 0.29895 0.0
C1379 C 0.45632 0.32914 0.30162 0.0
C1380 C 0.44003 0.32416 0.28991 0.0
H1381 H 0.43946 0.33215 0.39677 0.0
H1382 H 0.42795 0.33474 0.37161 0.0
C1383 C 0.44856 0.32545 0.2757 0.0
C1384 C 0.44782 0.32628 0.31682 0.0
H1385 H 0.4211 0.28173 0.34301 0.0
C1386 C 0.45881 0.34743 0.32577 0.0
C1387 C 0.43298 0.30241 0.32304 0.0
C1388 C 0.4209 0.27913 0.31386 0.0
C1389 C 0.4571 0.34517 0.34088 0.0
C1390 C 0.44388 0.3211 0.34714 0.0
C1391 C 0.43114 0.30014 0.33815 0.0
C1392 C 0.44747 0.31702 0.36252 0.0
C1393 C 0.47129 0.36829 0.35004 0.0
C1394 C 0.46151 0.30553 0.36574 0.0
C1395 C 0.46809 0.30408 0.37994 0.0
C1396 C 0.46066 0.31399 0.39131 0.0
C1397 C 0.4455 0.32441 0.38821 0.0
C1398 C 0.439 0.32599 0.37387 0.0
H1399 H 0.48222 0.38537 0.34341 0.0
H1400 H 0.45799 0.37094 0.35681 0.0
H1401 H 0.48429 0.36615 0.3574 0.0
H1402 H 0.46826 0.29852 0.35715 0.0
H1403 H 0.47959 0.29573 0.38196 0.0
H1404 H 0.67136 0.10716 0.40027 0.0
H1405 H 0.67415 0.09614 0.37503 0.0
H1406 H 0.63965 0.1382 0.36079 0.0
H1407 H 0.63679 0.14916 0.38568 0.0
H1408 H 0.62141 0.08943 0.34699 0.0
H1409 H 0.72501 0.15079 0.3463 0.0
H1410 H 0.71072 0.12739 0.36018 0.0
H1411 H 0.70616 0.15384 0.36016 0.0
C1412 C 0.66413 0.11377 0.39174 0.0
C1413 C 0.65407 0.12922 0.39495 0.0
C1414 C 0.66579 0.10753 0.37736 0.0
C1415 C 0.65723 0.11651 0.36607 0.0
C1416 C 0.64632 0.13105 0.36935 0.0
H1417 H 0.67766 0.17438 0.2859 0.0
H1418 H 0.67629 0.16072 0.3107 0.0
C1419 C 0.64482 0.13741 0.3836 0.0
C1420 C 0.66088 0.11259 0.35068 0.0
H1421 H 0.70461 0.13837 0.32398 0.0
C1422 C 0.63966 0.09942 0.34193 0.0
C1423 C 0.68473 0.12577 0.34417 0.0
C1424 C 0.70806 0.14036 0.3531 0.0
C1425 C 0.64148 0.10068 0.32679 0.0
C1426 C 0.66513 0.11545 0.32031 0.0
C1427 C 0.68654 0.12698 0.32903 0.0
C1428 C 0.6674 0.12325 0.305 0.0
C1429 C 0.61796 0.08803 0.31784 0.0
C1430 C 0.6631 0.10669 0.29353 0.0
C1431 C 0.66394 0.11452 0.2792 0.0
C1432 C 0.66889 0.1389 0.27622 0.0
C1433 C 0.67364 0.15543 0.28779 0.0
C1434 C 0.67298 0.1477 0.30199 0.0
H1435 H 0.60093 0.07779 0.3246 0.0
H1436 H 0.61625 0.10213 0.31126 0.0
H1437 H 0.61893 0.07461 0.31028 0.0
H1438 H 0.65885 0.08775 0.29568 0.0
H1439 H 0.66024 0.10139 0.2705 0.0
H1440 H 0.5471 0.89423 0.6036 0.0
H1441 H 0.5596 0.909 0.6286 0.0
H1442 H 0.51691 0.83316 0.64395 0.0
H1443 H 0.50435 0.81845 0.61934 0.0
H1444 H 0.52491 0.90094 0.65151 0.0
H1445 H 0.5843 0.86055 0.6652 0.0
H1446 H 0.5784 0.86588 0.64677 0.0
H1447 H 0.55608 0.83824 0.65629 0.0
C1448 C 0.54074 0.88075 0.61233 0.0
C1449 C 0.52469 0.85521 0.60953 0.0
C1450 C 0.54788 0.88919 0.62656 0.0
C1451 C 0.53951 0.87211 0.63808 0.0
C1452 C 0.52402 0.84661 0.6352 0.0
H1453 H 0.47886 0.84466 0.71764 0.0
H1454 H 0.49321 0.85789 0.69304 0.0
C1455 C 0.51666 0.83825 0.62112 0.0
C1456 C 0.54454 0.88045 0.65333 0.0
H1457 H 0.5611 0.86504 0.6852 0.0
C1458 C 0.53355 0.89382 0.65886 0.0
C1459 C 0.55617 0.87156 0.6629 0.0
C1460 C 0.56964 0.85848 0.65746 0.0
C1461 C 0.53154 0.89614 0.67382 0.0
C1462 C 0.54052 0.88458 0.6834 0.0
C1463 C 0.55392 0.87363 0.67785 0.0
C1464 C 0.53234 0.87963 0.69869 0.0
C1465 C 0.51852 0.90967 0.67924 0.0
C1466 C 0.54962 0.88732 0.7101 0.0
C1467 C 0.54139 0.87976 0.72432 0.0
C1468 C 0.51584 0.86397 0.72721 0.0
C1469 C 0.49867 0.85678 0.71577 0.0
C1470 C 0.50683 0.86454 0.7017 0.0
H1471 H 0.52088 0.92451 0.67156 0.0
H1472 H 0.49822 0.89621 0.68023 0.0
H1473 H 0.52571 0.91821 0.69 0.0
H1474 H 0.56943 0.89871 0.70797 0.0
H1475 H 0.55504 0.88548 0.73292 0.0
H1476 H 0.15307 0.63657 0.61911 0.0
H1477 H 0.14045 0.63787 0.64385 0.0
H1478 H 0.09583 0.66927 0.62912 0.0
H1479 H 0.10834 0.66782 0.60402 0.0
H1480 H 0.13111 0.69647 0.65191 0.0
H1481 H 0.07319 0.5963 0.66533 0.0
H1482 H 0.10153 0.60308 0.65621 0.0
H1483 H 0.07859 0.60776 0.64695 0.0
C1484 C 0.14029 0.64345 0.62105 0.0
C1485 C 0.13173 0.65215 0.60962 0.0
C1486 C 0.13292 0.64398 0.63521 0.0
C1487 C 0.11692 0.65331 0.6383 0.0
C1488 C 0.10797 0.66172 0.62692 0.0
H1489 H 0.0991 0.65205 0.73315 0.0
H1490 H 0.08564 0.65035 0.70792 0.0
C1491 C 0.11511 0.66088 0.61262 0.0
C1492 C 0.11195 0.65636 0.6536 0.0
H1493 H 0.09536 0.62408 0.68539 0.0
C1494 C 0.12258 0.68063 0.65921 0.0
C1495 C 0.10054 0.63571 0.6631 0.0
C1496 C 0.08758 0.60923 0.65757 0.0
C1497 C 0.12433 0.68481 0.67419 0.0
C1498 C 0.11537 0.66421 0.6837 0.0
C1499 C 0.10246 0.6399 0.67808 0.0
C1500 C 0.123 0.66745 0.69908 0.0
C1501 C 0.13704 0.71129 0.67971 0.0
C1502 C 0.14836 0.67751 0.7024 0.0
C1503 C 0.15598 0.67818 0.71664 0.0
C1504 C 0.13843 0.66889 0.72791 0.0
C1505 C 0.11304 0.65945 0.72468 0.0
C1506 C 0.10534 0.65847 0.71031 0.0
H1507 H 0.13528 0.72394 0.67187 0.0
H1508 H 0.12911 0.71248 0.69025 0.0
H1509 H 0.15723 0.71802 0.68123 0.0
H1510 H 0.16224 0.68407 0.69389 0.0
H1511 H 0.17568 0.68561 0.71877 0.0
H1512 H 0.33569 0.43834 0.60148 0.0
H1513 H 0.33495 0.42492 0.62664 0.0
H1514 H 0.30059 0.46754 0.64007 0.0
H1515 H 0.30147 0.48107 0.61528 0.0
H1516 H 0.35936 0.45966 0.65008 0.0
H1517 H 0.2584 0.39948 0.66059 0.0
H1518 H 0.27149 0.4056 0.64257 0.0
H1519 H 0.26526 0.42782 0.65146 0.0
C1520 C 0.32764 0.44447 0.6098 0.0
C1521 C 0.31873 0.46083 0.60644 0.0
C1522 C 0.32722 0.4368 0.62412 0.0
C1523 C 0.31734 0.44492 0.63516 0.0
C1524 C 0.30782 0.46063 0.63169 0.0
H1525 H 0.33984 0.50294 0.71508 0.0
H1526 H 0.33937 0.48916 0.6904 0.0
C1527 C 0.30855 0.46854 0.61752 0.0
C1528 C 0.31915 0.43958 0.65057 0.0
H1529 H 0.28411 0.42193 0.68137 0.0
C1530 C 0.34292 0.45065 0.65691 0.0
C1531 C 0.29772 0.42761 0.65946 0.0
C1532 C 0.27177 0.41422 0.65315 0.0
C1533 C 0.34576 0.45233 0.67199 0.0
C1534 C 0.3243 0.44279 0.68085 0.0
C1535 C 0.30055 0.42943 0.67455 0.0
C1536 C 0.32608 0.45061 0.69612 0.0
C1537 C 0.37168 0.4658 0.67833 0.0
C1538 C 0.31853 0.43338 0.70754 0.0
C1539 C 0.31895 0.44129 0.72181 0.0
C1540 C 0.32636 0.4664 0.72473 0.0
C1541 C 0.33395 0.48347 0.71321 0.0
C1542 C 0.33387 0.47567 0.69909 0.0
H1543 H 0.38553 0.46536 0.67086 0.0
H1544 H 0.37723 0.48564 0.68022 0.0
H1545 H 0.37231 0.45745 0.68883 0.0
H1546 H 0.31221 0.41389 0.7054 0.0
H1547 H 0.31292 0.42773 0.73048 0.0
loop_
_geom_bond_atom_site_label_1
_geom_bond_atom_site_label_2
_geom_bond_distance
_geom_bond_site_symmetry_2
_ccdc_geom_bond_type
O0 Cd1 2.223 . S
O0 C8 1.315 . S
Cd1 O0 2.223 . S
Cd1 O4 2.297 . S
Cd1 O5 2.439 . S
Cd1 O11 2.240 . S
Cd2 O3 2.240 . S
Cd2 O10 2.223 . S
Cd2 O12 2.297 . S
Cd2 O13 2.439 . S
O3 Cd2 2.240 . S
O3 C8 1.279 . S
O4 Cd1 2.297 . S
O4 C6 1.247 . S
O5 Cd1 2.439 . S
O5 C6 1.208 . S
C6 O4 1.247 . S
C6 O5 1.208 . S
C7 O12 1.247 . S
C7 O13 1.208 . S
C8 O0 1.315 . S
C8 O3 1.279 . S
C9 O10 1.315 . S
C9 O11 1.279 . S
O10 Cd2 2.223 . S
O10 C9 1.315 . S
O11 Cd1 2.240 . S
O11 C9 1.279 . S
O12 Cd2 2.297 . S
O12 C7 1.247 . S
O13 Cd2 2.439 . S
O13 C7 1.208 . S
O14 Cd15 2.223 1_545 S
O14 C22 1.315 . S
Cd15 O14 2.223 1_565 S
Cd15 O18 2.297 1_565 S
Cd15 O19 2.439 1_565 S
Cd15 O25 2.240 . S
Cd16 O17 2.240 . S
Cd16 O24 2.223 1_545 S
Cd16 O26 2.297 1_545 S
Cd16 O27 2.439 1_545 S
O17 Cd16 2.240 . S
O17 C22 1.279 . S
O18 Cd15 2.297 1_545 S
O18 C20 1.247 . S
O19 Cd15 2.439 1_545 S
O19 C20 1.208 . S
C20 O18 1.247 . S
C20 O19 1.208 . S
C21 O26 1.247 . S
C21 O27 1.208 . S
C22 O14 1.315 . S
C22 O17 1.279 . S
C23 O24 1.315 . S
C23 O25 1.279 . S
O24 Cd16 2.223 1_565 S
O24 C23 1.315 . S
O25 Cd15 2.240 . S
O25 C23 1.279 . S
O26 Cd16 2.297 1_565 S
O26 C21 1.247 . S
O27 Cd16 2.439 1_565 S
O27 C21 1.208 . S
O28 Cd29 2.203 1_655 S
O28 C36 1.315 . S
Cd29 O28 2.203 1_455 S
Cd29 O32 2.291 1_455 S
Cd29 O33 2.437 1_455 S
Cd29 O39 2.246 . S
Cd30 O31 2.240 . S
Cd30 O38 2.223 1_655 S
Cd30 O40 2.297 1_655 S
Cd30 O41 2.439 . S
O31 Cd30 2.240 . S
O31 C36 1.279 . S
O32 Cd29 2.291 1_655 S
O32 C34 1.247 . S
O33 Cd29 2.437 1_655 S
O33 C34 1.208 . S
C34 O32 1.247 . S
C34 O33 1.208 . S
C35 O40 1.247 . S
C35 O41 1.208 1_455 S
C36 O28 1.315 . S
C36 O31 1.279 . S
C37 O38 1.315 . S
C37 O39 1.279 . S
O38 Cd30 2.223 1_455 S
O38 C37 1.315 . S
O39 Cd29 2.246 . S
O39 C37 1.279 . S
O40 Cd30 2.297 1_455 S
O40 C35 1.247 . S
O41 Cd30 2.439 . S
O41 C35 1.208 1_655 S
O42 Cd43 2.223 . S
O42 C50 1.315 . S
Cd43 O42 2.223 . S
Cd43 O46 2.297 . S
Cd43 O47 2.439 . S
Cd43 O53 2.240 . S
Cd44 O45 2.240 . S
Cd44 O52 2.223 . S
Cd44 O54 2.297 . S
Cd44 O55 2.439 . S
O45 Cd44 2.240 . S
O45 C50 1.279 . S
O46 Cd43 2.297 . S
O46 C48 1.247 . S
O47 Cd43 2.439 . S
O47 C48 1.208 . S
C48 O46 1.247 . S
C48 O47 1.208 . S
C49 O54 1.247 . S
C49 O55 1.208 . S
C50 O42 1.315 . S
C50 O45 1.279 . S
C51 O52 1.315 . S
C51 O53 1.279 . S
O52 Cd44 2.223 . S
O52 C51 1.315 . S
O53 Cd43 2.240 . S
O53 C51 1.279 . S
O54 Cd44 2.297 . S
O54 C49 1.247 . S
O55 Cd44 2.439 . S
O55 C49 1.208 . S
O56 Cd57 2.202 1_565 S
O56 C64 1.315 . S
Cd57 O56 2.202 1_545 S
Cd57 O60 2.291 1_545 S
Cd57 O61 2.437 1_545 S
Cd57 O67 2.246 . S
Cd58 O59 2.240 . S
Cd58 O66 2.223 1_565 S
Cd58 O68 2.297 1_565 S
Cd58 O69 2.439 . S
O59 Cd58 2.240 . S
O59 C64 1.279 . S
O60 Cd57 2.291 1_565 S
O60 C62 1.247 . S
O61 Cd57 2.437 1_565 S
O61 C62 1.208 . S
C62 O60 1.247 . S
C62 O61 1.208 . S
C63 O68 1.247 . S
C63 O69 1.208 1_545 S
C64 O56 1.315 . S
C64 O59 1.279 . S
C65 O66 1.315 . S
C65 O67 1.279 . S
O66 Cd58 2.223 1_545 S
O66 C65 1.315 . S
O67 Cd57 2.246 . S
O67 C65 1.279 . S
O68 Cd58 2.297 1_545 S
O68 C63 1.247 . S
O69 Cd58 2.439 . S
O69 C63 1.208 1_565 S
O70 Cd71 2.223 1_455 S
O70 C78 1.315 . S
Cd71 O70 2.223 1_655 S
Cd71 O74 2.297 1_655 S
Cd71 O75 2.439 1_655 S
Cd71 O81 2.240 . S
Cd72 O73 2.240 . S
Cd72 O80 2.223 1_455 S
Cd72 O82 2.297 1_455 S
Cd72 O83 2.439 1_455 S
O73 Cd72 2.240 . S
O73 C78 1.279 . S
O74 Cd71 2.297 1_455 S
O74 C76 1.247 . S
O75 Cd71 2.439 1_455 S
O75 C76 1.208 . S
C76 O74 1.247 . S
C76 O75 1.208 . S
C77 O82 1.247 . S
C77 O83 1.208 . S
C78 O70 1.315 . S
C78 O73 1.279 . S
C79 O80 1.315 . S
C79 O81 1.279 . S
O80 Cd72 2.223 1_655 S
O80 C79 1.315 . S
O81 Cd71 2.240 . S
O81 C79 1.279 . S
O82 Cd72 2.297 1_655 S
O82 C77 1.247 . S
O83 Cd72 2.439 1_655 S
O83 C77 1.208 . S
O84 Cd85 2.223 . S
O84 C92 1.315 . S
Cd85 O84 2.223 . S
Cd85 O88 2.297 . S
Cd85 O89 2.439 . S
Cd85 O95 2.240 . S
Cd86 O87 2.240 . S
Cd86 O94 2.223 . S
Cd86 O96 2.297 . S
Cd86 O97 2.439 . S
O87 Cd86 2.240 . S
O87 C92 1.279 . S
O88 Cd85 2.297 . S
O88 C90 1.247 . S
O89 Cd85 2.439 . S
O89 C90 1.208 . S
C90 O88 1.247 . S
C90 O89 1.208 . S
C91 O96 1.247 . S
C91 O97 1.208 . S
C92 O84 1.315 . S
C92 O87 1.279 . S
C93 O94 1.315 . S
C93 O95 1.279 . S
O94 Cd86 2.223 . S
O94 C93 1.315 . S
O95 Cd85 2.240 . S
O95 C93 1.279 . S
O96 Cd86 2.297 . S
O96 C91 1.247 . S
O97 Cd86 2.439 . S
O97 C91 1.208 . S
O98 Cd99 2.223 . S
O98 C106 1.315 . S
Cd99 O98 2.223 . S
Cd99 O102 2.297 . S
Cd99 O103 2.439 . S
Cd99 O109 2.240 . S
Cd100 O101 2.240 . S
Cd100 O108 2.223 . S
Cd100 O110 2.297 . S
Cd100 O111 2.439 . S
O101 Cd100 2.240 . S
O101 C106 1.279 . S
O102 Cd99 2.297 . S
O102 C104 1.247 . S
O103 Cd99 2.439 . S
O103 C104 1.208 . S
C104 O102 1.247 . S
C104 O103 1.208 . S
C105 O110 1.247 . S
C105 O111 1.208 . S
C106 O98 1.315 . S
C106 O101 1.279 . S
C107 O108 1.315 . S
C107 O109 1.279 . S
O108 Cd100 2.223 . S
O108 C107 1.315 . S
O109 Cd99 2.240 . S
O109 C107 1.279 . S
O110 Cd100 2.297 . S
O110 C105 1.247 . S
O111 Cd100 2.439 . S
O111 C105 1.208 . S
O112 Cd113 2.223 . S
O112 C120 1.315 . S
Cd113 O112 2.223 . S
Cd113 O116 2.297 . S
Cd113 O117 2.439 . S
Cd113 O123 2.240 . S
Cd114 O115 2.240 . S
Cd114 O122 2.223 . S
Cd114 O124 2.297 . S
Cd114 O125 2.439 . S
O115 Cd114 2.240 . S
O115 C120 1.279 . S
O116 Cd113 2.297 . S
O116 C118 1.247 . S
O117 Cd113 2.439 . S
O117 C118 1.208 . S
C118 O116 1.247 . S
C118 O117 1.208 . S
C119 O124 1.247 . S
C119 O125 1.208 . S
C120 O112 1.315 . S
C120 O115 1.279 . S
C121 O122 1.315 . S
C121 O123 1.279 . S
O122 Cd114 2.223 . S
O122 C121 1.315 . S
O123 Cd113 2.240 . S
O123 C121 1.279 . S
O124 Cd114 2.297 . S
O124 C119 1.247 . S
O125 Cd114 2.439 . S
O125 C119 1.208 . S
O126 Cd127 2.223 . S
O126 C134 1.315 . S
Cd127 O126 2.223 . S
Cd127 O130 2.297 . S
Cd127 O131 2.439 . S
Cd127 O137 2.240 . S
Cd128 O129 2.240 . S
Cd128 O136 2.223 . S
Cd128 O138 2.297 . S
Cd128 O139 2.439 . S
O129 Cd128 2.240 . S
O129 C134 1.279 . S
O130 Cd127 2.297 . S
O130 C132 1.247 . S
O131 Cd127 2.439 . S
O131 C132 1.208 . S
C132 O130 1.247 . S
C132 O131 1.208 . S
C133 O138 1.247 . S
C133 O139 1.208 . S
C134 O126 1.315 . S
C134 O129 1.279 . S
C135 O136 1.315 . S
C135 O137 1.279 . S
O136 Cd128 2.223 . S
O136 C135 1.315 . S
O137 Cd127 2.240 . S
O137 C135 1.279 . S
O138 Cd128 2.297 . S
O138 C133 1.247 . S
O139 Cd128 2.439 . S
O139 C133 1.208 . S
O140 Cd141 2.223 . S
O140 C148 1.315 . S
Cd141 O140 2.223 . S
Cd141 O144 2.297 . S
Cd141 O145 2.439 . S
Cd141 O151 2.240 . S
Cd142 O143 2.240 . S
Cd142 O150 2.223 . S
Cd142 O152 2.297 . S
Cd142 O153 2.439 . S
O143 Cd142 2.240 . S
O143 C148 1.279 . S
O144 Cd141 2.297 . S
O144 C146 1.247 . S
O145 Cd141 2.439 . S
O145 C146 1.208 . S
C146 O144 1.247 . S
C146 O145 1.208 . S
C147 O152 1.247 . S
C147 O153 1.208 . S
C148 O140 1.315 . S
C148 O143 1.279 . S
C149 O150 1.315 . S
C149 O151 1.279 . S
O150 Cd142 2.223 . S
O150 C149 1.315 . S
O151 Cd141 2.240 . S
O151 C149 1.279 . S
O152 Cd142 2.297 . S
O152 C147 1.247 . S
O153 Cd142 2.439 . S
O153 C147 1.208 . S
O154 Cd155 2.223 . S
O154 C162 1.315 . S
Cd155 O154 2.223 . S
Cd155 O158 2.297 . S
Cd155 O159 2.439 . S
Cd155 O165 2.240 . S
Cd156 O157 2.240 . S
Cd156 O164 2.223 . S
Cd156 O166 2.297 . S
Cd156 O167 2.439 . S
O157 Cd156 2.240 . S
O157 C162 1.279 . S
O158 Cd155 2.297 . S
O158 C160 1.247 . S
O159 Cd155 2.439 . S
O159 C160 1.208 . S
C160 O158 1.247 . S
C160 O159 1.208 . S
C161 O166 1.247 . S
C161 O167 1.208 . S
C162 O154 1.315 . S
C162 O157 1.279 . S
C163 O164 1.315 . S
C163 O165 1.279 . S
O164 Cd156 2.223 . S
O164 C163 1.315 . S
O165 Cd155 2.240 . S
O165 C163 1.279 . S
O166 Cd156 2.297 . S
O166 C161 1.247 . S
O167 Cd156 2.439 . S
O167 C161 1.208 . S
O168 Cd169 2.223 . S
O168 C176 1.315 . S
Cd169 O168 2.223 . S
Cd169 O172 2.297 . S
Cd169 O173 2.439 . S
Cd169 O179 2.240 . S
Cd170 O171 2.240 . S
Cd170 O178 2.223 . S
Cd170 O180 2.297 . S
Cd170 O181 2.439 . S
O171 Cd170 2.240 . S
O171 C176 1.279 . S
O172 Cd169 2.297 . S
O172 C174 1.247 . S
O173 Cd169 2.439 . S
O173 C174 1.208 . S
C174 O172 1.247 . S
C174 O173 1.208 . S
C175 O180 1.247 . S
C175 O181 1.208 . S
C176 O168 1.315 . S
C176 O171 1.279 . S
C177 O178 1.315 . S
C177 O179 1.279 . S
O178 Cd170 2.223 . S
O178 C177 1.315 . S
O179 Cd169 2.240 . S
O179 C177 1.279 . S
O180 Cd170 2.297 . S
O180 C175 1.247 . S
O181 Cd170 2.439 . S
O181 C175 1.208 . S
O182 Cd183 2.223 . S
O182 C190 1.315 . S
Cd183 O182 2.223 . S
Cd183 O186 2.297 . S
Cd183 O187 2.439 . S
Cd183 O193 2.240 . S
Cd184 O185 2.240 . S
Cd184 O192 2.223 . S
Cd184 O194 2.297 . S
Cd184 O195 2.439 . S
O185 Cd184 2.240 . S
O185 C190 1.279 . S
O186 Cd183 2.297 . S
O186 C188 1.247 . S
O187 Cd183 2.439 . S
O187 C188 1.208 . S
C188 O186 1.247 . S
C188 O187 1.208 . S
C189 O194 1.247 . S
C189 O195 1.208 . S
C190 O182 1.315 . S
C190 O185 1.279 . S
C191 O192 1.315 . S
C191 O193 1.279 . S
O192 Cd184 2.223 . S
O192 C191 1.315 . S
O193 Cd183 2.240 . S
O193 C191 1.279 . S
O194 Cd184 2.297 . S
O194 C189 1.247 . S
O195 Cd184 2.439 . S
O195 C189 1.208 . S
O196 Cd197 2.223 . S
O196 C204 1.315 . S
Cd197 O196 2.223 . S
Cd197 O200 2.297 . S
Cd197 O201 2.439 . S
Cd197 O207 2.240 . S
Cd198 O199 2.240 . S
Cd198 O206 2.223 . S
Cd198 O208 2.297 . S
Cd198 O209 2.439 . S
O199 Cd198 2.240 . S
O199 C204 1.279 . S
O200 Cd197 2.297 . S
O200 C202 1.247 . S
O201 Cd197 2.439 . S
O201 C202 1.208 . S
C202 O200 1.247 . S
C202 O201 1.208 . S
C203 O208 1.247 . S
C203 O209 1.208 . S
C204 O196 1.315 . S
C204 O199 1.279 . S
C205 O206 1.315 . S
C205 O207 1.279 . S
O206 Cd198 2.223 . S
O206 C205 1.315 . S
O207 Cd197 2.240 . S
O207 C205 1.279 . S
O208 Cd198 2.297 . S
O208 C203 1.247 . S
O209 Cd198 2.439 . S
O209 C203 1.208 . S
O210 Cd211 2.223 . S
O210 C218 1.315 . S
Cd211 O210 2.223 . S
Cd211 O214 2.297 . S
Cd211 O215 2.439 . S
Cd211 O221 2.240 . S
Cd212 O213 2.240 . S
Cd212 O220 2.223 . S
Cd212 O222 2.297 . S
Cd212 O223 2.439 . S
O213 Cd212 2.240 . S
O213 C218 1.279 . S
O214 Cd211 2.297 . S
O214 C216 1.247 . S
O215 Cd211 2.439 . S
O215 C216 1.208 . S
C216 O214 1.247 . S
C216 O215 1.208 . S
C217 O222 1.247 . S
C217 O223 1.208 . S
C218 O210 1.315 . S
C218 O213 1.279 . S
C219 O220 1.315 . S
C219 O221 1.279 . S
O220 Cd212 2.223 . S
O220 C219 1.315 . S
O221 Cd211 2.240 . S
O221 C219 1.279 . S
O222 Cd212 2.297 . S
O222 C217 1.247 . S
O223 Cd212 2.439 . S
O223 C217 1.208 . S
O224 Cd225 2.223 . S
O224 C232 1.315 . S
Cd225 O224 2.223 . S
Cd225 O228 2.297 . S
Cd225 O229 2.439 . S
Cd225 O235 2.240 . S
Cd226 O227 2.240 . S
Cd226 O234 2.223 . S
Cd226 O236 2.297 . S
Cd226 O237 2.439 . S
O227 Cd226 2.240 . S
O227 C232 1.279 . S
O228 Cd225 2.297 . S
O228 C230 1.247 . S
O229 Cd225 2.439 . S
O229 C230 1.208 . S
C230 O228 1.247 . S
C230 O229 1.208 . S
C231 O236 1.247 . S
C231 O237 1.208 . S
C232 O224 1.315 . S
C232 O227 1.279 . S
C233 O234 1.315 . S
C233 O235 1.279 . S
O234 Cd226 2.223 . S
O234 C233 1.315 . S
O235 Cd225 2.240 . S
O235 C233 1.279 . S
O236 Cd226 2.297 . S
O236 C231 1.247 . S
O237 Cd226 2.439 . S
O237 C231 1.208 . S
O238 Cd239 2.223 . S
O238 C246 1.315 . S
Cd239 O238 2.223 . S
Cd239 O242 2.297 . S
Cd239 O243 2.439 . S
Cd239 O249 2.240 . S
Cd240 O241 2.240 . S
Cd240 O248 2.223 . S
Cd240 O250 2.297 . S
Cd240 O251 2.439 . S
O241 Cd240 2.240 . S
O241 C246 1.279 . S
O242 Cd239 2.297 . S
O242 C244 1.247 . S
O243 Cd239 2.439 . S
O243 C244 1.208 . S
C244 O242 1.247 . S
C244 O243 1.208 . S
C245 O250 1.247 . S
C245 O251 1.208 . S
C246 O238 1.315 . S
C246 O241 1.279 . S
C247 O248 1.315 . S
C247 O249 1.279 . S
O248 Cd240 2.223 . S
O248 C247 1.315 . S
O249 Cd239 2.240 . S
O249 C247 1.279 . S
O250 Cd240 2.297 . S
O250 C245 1.247 . S
O251 Cd240 2.439 . S
O251 C245 1.208 . S
H252 C260 0.929 . S
H253 C262 0.930 . S
H254 C264 0.930 . S
H255 C267 0.929 . S
H256 C270 0.930 . S
H257 C272 0.960 . S
H258 C272 0.960 . S
H259 C272 0.960 . S
C260 H252 0.929 . S
C260 C261 1.377 . S
C260 C262 1.384 . S
C261 C260 1.377 . S
C261 C267 1.390 . S
C262 H253 0.930 . S
C262 C260 1.384 . S
C262 C263 1.372 . S
C263 C262 1.372 . S
C263 C264 1.400 . S
C263 C268 1.490 . S
C264 H254 0.930 . S
C264 C263 1.400 . S
C264 C267 1.386 . S
H265 C281 0.930 . S
H266 C282 0.931 . S
C267 H255 0.929 . S
C267 C261 1.390 . S
C267 C264 1.386 . S
C268 C263 1.490 . S
C268 C270 1.395 . S
C268 C271 1.403 . S
H269 C275 0.930 . S
C270 H256 0.930 . S
C270 C268 1.395 . S
C270 C273 1.403 . S
C271 C268 1.403 . S
C271 C272 1.524 . S
C271 C275 1.400 . S
C272 H257 0.960 . S
C272 H258 0.960 . S
C272 H259 0.960 . S
C272 C271 1.524 . S
C273 C270 1.403 . S
C273 C274 1.392 . S
C273 C277 1.495 . S
C274 C273 1.392 . S
C274 C275 1.385 . S
C274 C276 1.478 . S
C275 H269 0.930 . S
C275 C271 1.400 . S
C275 C274 1.385 . S
C276 C274 1.478 . S
C276 C278 1.381 . S
C276 C282 1.383 . S
C277 C273 1.495 . S
C277 H283 0.959 . S
C277 H284 0.961 . S
C277 H285 0.960 . S
C278 C276 1.381 . S
C278 C279 1.394 . S
C278 H286 0.930 . S
C279 C278 1.394 . S
C279 C280 1.383 . S
C279 H287 0.929 . S
C280 C279 1.383 . S
C280 C281 1.377 . S
C281 H265 0.930 . S
C281 C280 1.377 . S
C281 C282 1.379 . S
C282 H266 0.931 . S
C282 C276 1.383 . S
C282 C281 1.379 . S
H283 C277 0.959 . S
H284 C277 0.961 . S
H285 C277 0.960 . S
H286 C278 0.930 . S
H287 C279 0.929 . S
H288 C296 0.929 . S
H289 C298 0.930 . S
H290 C300 0.930 . S
H291 C303 0.929 . S
H292 C306 0.930 . S
H293 C308 0.960 . S
H294 C308 0.960 . S
H295 C308 0.960 . S
C296 H288 0.929 . S
C296 C297 1.377 . S
C296 C298 1.384 . S
C297 C296 1.377 . S
C297 C303 1.390 . S
C298 H289 0.930 . S
C298 C296 1.384 . S
C298 C299 1.372 . S
C299 C298 1.372 . S
C299 C300 1.400 . S
C299 C304 1.490 . S
C300 H290 0.930 . S
C300 C299 1.400 . S
C300 C303 1.386 . S
H301 C317 0.930 . S
H302 C318 0.931 . S
C303 H291 0.929 . S
C303 C297 1.390 . S
C303 C300 1.386 . S
C304 C299 1.490 . S
C304 C306 1.395 . S
C304 C307 1.403 . S
H305 C311 0.930 . S
C306 H292 0.930 . S
C306 C304 1.395 . S
C306 C309 1.403 . S
C307 C304 1.403 . S
C307 C308 1.524 . S
C307 C311 1.400 . S
C308 H293 0.960 . S
C308 H294 0.960 . S
C308 H295 0.960 . S
C308 C307 1.524 . S
C309 C306 1.403 . S
C309 C310 1.392 . S
C309 C313 1.495 . S
C310 C309 1.392 . S
C310 C311 1.385 . S
C310 C312 1.478 . S
C311 H305 0.930 . S
C311 C307 1.400 . S
C311 C310 1.385 . S
C312 C310 1.478 . S
C312 C314 1.381 . S
C312 C318 1.383 . S
C313 C309 1.495 . S
C313 H319 0.959 . S
C313 H320 0.961 . S
C313 H321 0.960 . S
C314 C312 1.381 . S
C314 C315 1.394 . S
C314 H322 0.930 . S
C315 C314 1.394 . S
C315 C316 1.383 . S
C315 H323 0.929 . S
C316 C315 1.383 . S
C316 C317 1.377 . S
C317 H301 0.930 . S
C317 C316 1.377 . S
C317 C318 1.379 . S
C318 H302 0.931 . S
C318 C312 1.383 . S
C318 C317 1.379 . S
H319 C313 0.959 . S
H320 C313 0.961 . S
H321 C313 0.960 . S
H322 C314 0.930 . S
H323 C315 0.929 . S
H324 C332 0.929 . S
H325 C334 0.930 . S
H326 C336 0.930 . S
H327 C339 0.929 . S
H328 C342 0.930 . S
H329 C344 0.960 . S
H330 C344 0.960 . S
H331 C344 0.960 . S
C332 H324 0.929 . S
C332 C333 1.377 . S
C332 C334 1.384 . S
C333 C332 1.377 . S
C333 C339 1.390 . S
C334 H325 0.930 . S
C334 C332 1.384 . S
C334 C335 1.372 . S
C335 C334 1.372 . S
C335 C336 1.400 . S
C335 C340 1.490 . S
C336 H326 0.930 . S
C336 C335 1.400 . S
C336 C339 1.386 . S
H337 C353 0.930 . S
H338 C354 0.931 . S
C339 H327 0.929 . S
C339 C333 1.390 . S
C339 C336 1.386 . S
C340 C335 1.490 . S
C340 C342 1.395 . S
C340 C343 1.403 . S
H341 C347 0.930 . S
C342 H328 0.930 . S
C342 C340 1.395 . S
C342 C345 1.403 . S
C343 C340 1.403 . S
C343 C344 1.524 . S
C343 C347 1.400 . S
C344 H329 0.960 . S
C344 H330 0.960 . S
C344 H331 0.960 . S
C344 C343 1.524 . S
C345 C342 1.403 . S
C345 C346 1.392 . S
C345 C349 1.495 . S
C346 C345 1.392 . S
C346 C347 1.385 . S
C346 C348 1.478 . S
C347 H341 0.930 . S
C347 C343 1.400 . S
C347 C346 1.385 . S
C348 C346 1.478 . S
C348 C350 1.381 . S
C348 C354 1.383 . S
C349 C345 1.495 . S
C349 H355 0.959 . S
C349 H356 0.961 . S
C349 H357 0.960 . S
C350 C348 1.381 . S
C350 C351 1.394 . S
C350 H358 0.930 . S
C351 C350 1.394 . S
C351 C352 1.383 . S
C351 H359 0.929 . S
C352 C351 1.383 . S
C352 C353 1.377 . S
C353 H337 0.930 . S
C353 C352 1.377 . S
C353 C354 1.379 . S
C354 H338 0.931 . S
C354 C348 1.383 . S
C354 C353 1.379 . S
H355 C349 0.959 . S
H356 C349 0.961 . S
H357 C349 0.960 . S
H358 C350 0.930 . S
H359 C351 0.929 . S
H360 C368 0.929 . S
H361 C370 0.930 . S
H362 C372 0.930 . S
H363 C375 0.929 . S
H364 C378 0.930 . S
H365 C380 0.960 . S
H366 C380 0.960 . S
H367 C380 0.960 . S
C368 H360 0.929 . S
C368 C369 1.377 . S
C368 C370 1.384 . S
C369 C368 1.377 . S
C369 C375 1.390 . S
C370 H361 0.930 . S
C370 C368 1.384 . S
C370 C371 1.372 . S
C371 C370 1.372 . S
C371 C372 1.400 . S
C371 C376 1.490 . S
C372 H362 0.930 . S
C372 C371 1.400 . S
C372 C375 1.386 . S
H373 C389 0.930 . S
H374 C390 0.931 . S
C375 H363 0.929 . S
C375 C369 1.390 . S
C375 C372 1.386 . S
C376 C371 1.490 . S
C376 C378 1.395 . S
C376 C379 1.403 . S
H377 C383 0.930 . S
C378 H364 0.930 . S
C378 C376 1.395 . S
C378 C381 1.403 . S
C379 C376 1.403 . S
C379 C380 1.524 . S
C379 C383 1.400 . S
C380 H365 0.960 . S
C380 H366 0.960 . S
C380 H367 0.960 . S
C380 C379 1.524 . S
C381 C378 1.403 . S
C381 C382 1.392 . S
C381 C385 1.495 . S
C382 C381 1.392 . S
C382 C383 1.385 . S
C382 C384 1.478 . S
C383 H377 0.930 . S
C383 C379 1.400 . S
C383 C382 1.385 . S
C384 C382 1.478 . S
C384 C386 1.381 . S
C384 C390 1.383 . S
C385 C381 1.495 . S
C385 H391 0.959 . S
C385 H392 0.961 . S
C385 H393 0.960 . S
C386 C384 1.381 . S
C386 C387 1.394 . S
C386 H394 0.930 . S
C387 C386 1.394 . S
C387 C388 1.383 . S
C387 H395 0.929 . S
C388 C387 1.383 . S
C388 C389 1.377 . S
C389 H373 0.930 . S
C389 C388 1.377 . S
C389 C390 1.379 . S
C390 H374 0.931 . S
C390 C384 1.383 . S
C390 C389 1.379 . S
H391 C385 0.959 . S
H392 C385 0.961 . S
H393 C385 0.960 . S
H394 C386 0.930 . S
H395 C387 0.929 . S
H396 C404 0.929 . S
H397 C406 0.930 . S
H398 C408 0.930 . S
H399 C411 0.929 . S
H400 C414 0.930 . S
H401 C416 0.960 . S
H402 C416 0.960 . S
H403 C416 0.960 . S
C404 H396 0.929 . S
C404 C405 1.377 . S
C404 C406 1.384 . S
C405 C404 1.377 . S
C405 C411 1.390 . S
C406 H397 0.930 . S
C406 C404 1.384 . S
C406 C407 1.372 . S
C407 C406 1.372 . S
C407 C408 1.400 . S
C407 C412 1.490 . S
C408 H398 0.930 . S
C408 C407 1.400 . S
C408 C411 1.386 . S
H409 C425 0.930 . S
H410 C426 0.931 . S
C411 H399 0.929 . S
C411 C405 1.390 . S
C411 C408 1.386 . S
C412 C407 1.490 . S
C412 C414 1.395 . S
C412 C415 1.403 . S
H413 C419 0.930 . S
C414 H400 0.930 . S
C414 C412 1.395 . S
C414 C417 1.403 . S
C415 C412 1.403 . S
C415 C416 1.524 . S
C415 C419 1.400 . S
C416 H401 0.960 . S
C416 H402 0.960 . S
C416 H403 0.960 . S
C416 C415 1.524 . S
C417 C414 1.403 . S
C417 C418 1.392 . S
C417 C421 1.495 . S
C418 C417 1.392 . S
C418 C419 1.385 . S
C418 C420 1.478 . S
C419 H413 0.930 . S
C419 C415 1.400 . S
C419 C418 1.385 . S
C420 C418 1.478 . S
C420 C422 1.381 . S
C420 C426 1.383 . S
C421 C417 1.495 . S
C421 H427 0.959 . S
C421 H428 0.961 . S
C421 H429 0.960 . S
C422 C420 1.381 . S
C422 C423 1.394 . S
C422 H430 0.930 . S
C423 C422 1.394 . S
C423 C424 1.383 . S
C423 H431 0.929 . S
C424 C423 1.383 . S
C424 C425 1.377 . S
C425 H409 0.930 . S
C425 C424 1.377 . S
C425 C426 1.379 . S
C426 H410 0.931 . S
C426 C420 1.383 . S
C426 C425 1.379 . S
H427 C421 0.959 . S
H428 C421 0.961 . S
H429 C421 0.960 . S
H430 C422 0.930 . S
H431 C423 0.929 . S
H432 C440 0.929 . S
H433 C442 0.930 . S
H434 C444 0.930 . S
H435 C447 0.929 . S
H436 C450 0.930 . S
H437 C452 0.960 . S
H438 C452 0.960 . S
H439 C452 0.960 . S
C440 H432 0.929 . S
C440 C441 1.377 . S
C440 C442 1.384 . S
C441 C440 1.377 . S
C441 C447 1.390 . S
C442 H433 0.930 . S
C442 C440 1.384 . S
C442 C443 1.372 . S
C443 C442 1.372 . S
C443 C444 1.400 . S
C443 C448 1.490 . S
C444 H434 0.930 . S
C444 C443 1.400 . S
C444 C447 1.386 . S
H445 C461 0.930 . S
H446 C462 0.931 . S
C447 H435 0.929 . S
C447 C441 1.390 . S
C447 C444 1.386 . S
C448 C443 1.490 . S
C448 C450 1.395 . S
C448 C451 1.403 . S
H449 C455 0.930 . S
C450 H436 0.930 . S
C450 C448 1.395 . S
C450 C453 1.403 . S
C451 C448 1.403 . S
C451 C452 1.524 . S
C451 C455 1.400 . S
C452 H437 0.960 . S
C452 H438 0.960 . S
C452 H439 0.960 . S
C452 C451 1.524 . S
C453 C450 1.403 . S
C453 C454 1.392 . S
C453 C457 1.495 . S
C454 C453 1.392 . S
C454 C455 1.385 . S
C454 C456 1.478 . S
C455 H449 0.930 . S
C455 C451 1.400 . S
C455 C454 1.385 . S
C456 C454 1.478 . S
C456 C458 1.381 . S
C456 C462 1.383 . S
C457 C453 1.495 . S
C457 H463 0.959 . S
C457 H464 0.961 . S
C457 H465 0.960 . S
C458 C456 1.381 . S
C458 C459 1.394 . S
C458 H466 0.930 . S
C459 C458 1.394 . S
C459 C460 1.383 . S
C459 H467 0.929 . S
C460 C459 1.383 . S
C460 C461 1.377 . S
C461 H445 0.930 . S
C461 C460 1.377 . S
C461 C462 1.379 . S
C462 H446 0.931 . S
C462 C456 1.383 . S
C462 C461 1.379 . S
H463 C457 0.959 . S
H464 C457 0.961 . S
H465 C457 0.960 . S
H466 C458 0.930 . S
H467 C459 0.929 . S
H468 C476 0.929 . S
H469 C478 0.930 . S
H470 C480 0.930 . S
H471 C483 0.929 . S
H472 C486 0.930 . S
H473 C488 0.960 1_455 S
H474 C488 0.960 . S
H475 C488 0.960 . S
C476 H468 0.929 . S
C476 C477 1.377 . S
C476 C478 1.384 . S
C477 C476 1.377 . S
C477 C483 1.390 . S
C478 H469 0.930 . S
C478 C476 1.384 . S
C478 C479 1.372 . S
C479 C478 1.372 . S
C479 C480 1.400 . S
C479 C484 1.490 . S
C480 H470 0.930 . S
C480 C479 1.400 . S
C480 C483 1.386 . S
H481 C497 0.930 . S
H482 C498 0.931 . S
C483 H471 0.929 . S
C483 C477 1.390 . S
C483 C480 1.386 . S
C484 C479 1.490 . S
C484 C486 1.395 . S
C484 C487 1.403 . S
H485 C491 0.930 . S
C486 H472 0.930 . S
C486 C484 1.395 . S
C486 C489 1.403 . S
C487 C484 1.403 . S
C487 C488 1.524 . S
C487 C491 1.400 1_655 S
C488 H473 0.960 1_655 S
C488 H474 0.960 . S
C488 H475 0.960 . S
C488 C487 1.524 . S
C489 C486 1.403 . S
C489 C490 1.392 1_655 S
C489 C493 1.495 . S
C490 C489 1.392 1_455 S
C490 C491 1.385 . S
C490 C492 1.478 . S
C491 H485 0.930 . S
C491 C487 1.400 1_455 S
C491 C490 1.385 . S
C492 C490 1.478 . S
C492 C494 1.381 . S
C492 C498 1.383 . S
C493 C489 1.495 . S
C493 H499 0.959 . S
C493 H500 0.961 1_655 S
C493 H501 0.960 1_655 S
C494 C492 1.381 . S
C494 C495 1.394 . S
C494 H502 0.930 . S
C495 C494 1.394 . S
C495 C496 1.383 . S
C495 H503 0.929 . S
C496 C495 1.383 . S
C496 C497 1.377 . S
C497 H481 0.930 . S
C497 C496 1.377 . S
C497 C498 1.379 . S
C498 H482 0.931 . S
C498 C492 1.383 . S
C498 C497 1.379 . S
H499 C493 0.959 . S
H500 C493 0.961 1_455 S
H501 C493 0.960 1_455 S
H502 C494 0.930 . S
H503 C495 0.929 . S
H504 C512 0.929 . S
H505 C514 0.930 . S
H506 C516 0.930 . S
H507 C519 0.929 . S
H508 C522 0.930 . S
H509 C524 0.960 . S
H510 C524 0.960 . S
H511 C524 0.960 . S
C512 H504 0.929 . S
C512 C513 1.377 . S
C512 C514 1.384 . S
C513 C512 1.377 . S
C513 C519 1.390 . S
C514 H505 0.930 . S
C514 C512 1.384 . S
C514 C515 1.372 . S
C515 C514 1.372 . S
C515 C516 1.400 . S
C515 C520 1.490 . S
C516 H506 0.930 . S
C516 C515 1.400 . S
C516 C519 1.386 . S
H517 C533 0.930 . S
H518 C534 0.931 . S
C519 H507 0.929 . S
C519 C513 1.390 . S
C519 C516 1.386 . S
C520 C515 1.490 . S
C520 C522 1.395 . S
C520 C523 1.403 . S
H521 C527 0.930 . S
C522 H508 0.930 . S
C522 C520 1.395 . S
C522 C525 1.403 . S
C523 C520 1.403 . S
C523 C524 1.524 . S
C523 C527 1.400 . S
C524 H509 0.960 . S
C524 H510 0.960 . S
C524 H511 0.960 . S
C524 C523 1.524 . S
C525 C522 1.403 . S
C525 C526 1.392 . S
C525 C529 1.495 . S
C526 C525 1.392 . S
C526 C527 1.385 . S
C526 C528 1.478 . S
C527 H521 0.930 . S
C527 C523 1.400 . S
C527 C526 1.385 . S
C528 C526 1.478 . S
C528 C530 1.381 . S
C528 C534 1.383 . S
C529 C525 1.495 . S
C529 H535 0.959 . S
C529 H536 0.961 . S
C529 H537 0.960 . S
C530 C528 1.381 . S
C530 C531 1.394 . S
C530 H538 0.930 . S
C531 C530 1.394 . S
C531 C532 1.383 . S
C531 H539 0.929 . S
C532 C531 1.383 . S
C532 C533 1.377 . S
C533 H517 0.930 . S
C533 C532 1.377 . S
C533 C534 1.379 . S
C534 H518 0.931 . S
C534 C528 1.383 . S
C534 C533 1.379 . S
H535 C529 0.959 . S
H536 C529 0.961 . S
H537 C529 0.960 . S
H538 C530 0.930 . S
H539 C531 0.929 . S
H540 C548 0.929 . S
H541 C550 0.930 . S
H542 C552 0.930 . S
H543 C555 0.929 . S
H544 C558 0.930 . S
H545 C560 0.960 . S
H546 C560 0.960 . S
H547 C560 0.960 . S
C548 H540 0.929 . S
C548 C549 1.377 . S
C548 C550 1.384 . S
C549 C548 1.377 . S
C549 C555 1.390 . S
C550 H541 0.930 . S
C550 C548 1.384 . S
C550 C551 1.372 . S
C551 C550 1.372 . S
C551 C552 1.400 . S
C551 C556 1.490 . S
C552 H542 0.930 . S
C552 C551 1.400 . S
C552 C555 1.386 . S
H553 C569 0.930 . S
H554 C570 0.931 . S
C555 H543 0.929 . S
C555 C549 1.390 . S
C555 C552 1.386 . S
C556 C551 1.490 . S
C556 C558 1.395 1_545 S
C556 C559 1.403 . S
H557 C563 0.930 . S
C558 H544 0.930 . S
C558 C556 1.395 1_565 S
C558 C561 1.403 . S
C559 C556 1.403 . S
C559 C560 1.524 . S
C559 C563 1.400 1_545 S
C560 H545 0.960 . S
C560 H546 0.960 . S
C560 H547 0.960 . S
C560 C559 1.524 . S
C561 C558 1.403 . S
C561 C562 1.392 . S
C561 C565 1.495 . S
C562 C561 1.392 . S
C562 C563 1.385 . S
C562 C564 1.478 . S
C563 H557 0.930 . S
C563 C559 1.400 1_565 S
C563 C562 1.385 . S
C564 C562 1.478 . S
C564 C566 1.381 . S
C564 C570 1.383 . S
C565 C561 1.495 . S
C565 H571 0.959 . S
C565 H572 0.961 . S
C565 H573 0.960 . S
C566 C564 1.381 . S
C566 C567 1.394 . S
C566 H574 0.930 . S
C567 C566 1.394 . S
C567 C568 1.383 . S
C567 H575 0.929 . S
C568 C567 1.383 . S
C568 C569 1.377 . S
C569 H553 0.930 . S
C569 C568 1.377 . S
C569 C570 1.379 . S
C570 H554 0.931 . S
C570 C564 1.383 . S
C570 C569 1.379 . S
H571 C565 0.959 . S
H572 C565 0.961 . S
H573 C565 0.960 . S
H574 C566 0.930 . S
H575 C567 0.929 . S
H576 C584 0.929 . S
H577 C586 0.930 . S
H578 C588 0.930 . S
H579 C591 0.929 . S
H580 C594 0.930 . S
H581 C596 0.960 . S
H582 C596 0.960 . S
H583 C596 0.960 . S
C584 H576 0.929 . S
C584 C585 1.377 . S
C584 C586 1.384 . S
C585 C584 1.377 . S
C585 C591 1.390 . S
C586 H577 0.930 . S
C586 C584 1.384 . S
C586 C587 1.372 . S
C587 C586 1.372 . S
C587 C588 1.400 . S
C587 C592 1.490 . S
C588 H578 0.930 . S
C588 C587 1.400 . S
C588 C591 1.386 . S
H589 C605 0.930 . S
H590 C606 0.931 . S
C591 H579 0.929 . S
C591 C585 1.390 . S
C591 C588 1.386 . S
C592 C587 1.490 . S
C592 C594 1.395 . S
C592 C595 1.403 . S
H593 C599 0.930 . S
C594 H580 0.930 . S
C594 C592 1.395 . S
C594 C597 1.403 1_455 S
C595 C592 1.403 . S
C595 C596 1.524 . S
C595 C599 1.400 1_455 S
C596 H581 0.960 . S
C596 H582 0.960 . S
C596 H583 0.960 . S
C596 C595 1.524 . S
C597 C594 1.403 1_655 S
C597 C598 1.392 . S
C597 C601 1.495 . S
C598 C597 1.392 . S
C598 C599 1.385 . S
C598 C600 1.478 . S
C599 H593 0.930 . S
C599 C595 1.400 1_655 S
C599 C598 1.385 . S
C600 C598 1.478 . S
C600 C602 1.381 . S
C600 C606 1.383 . S
C601 C597 1.495 . S
C601 H607 0.959 . S
C601 H608 0.961 . S
C601 H609 0.960 . S
C602 C600 1.381 . S
C602 C603 1.394 . S
C602 H610 0.930 . S
C603 C602 1.394 . S
C603 C604 1.383 . S
C603 H611 0.929 . S
C604 C603 1.383 . S
C604 C605 1.377 . S
C605 H589 0.930 . S
C605 C604 1.377 . S
C605 C606 1.379 . S
C606 H590 0.931 . S
C606 C600 1.383 . S
C606 C605 1.379 . S
H607 C601 0.959 . S
H608 C601 0.961 . S
H609 C601 0.960 . S
H610 C602 0.930 . S
H611 C603 0.929 . S
H612 C620 0.929 . S
H613 C622 0.930 . S
H614 C624 0.930 . S
H615 C627 0.929 . S
H616 C630 0.930 . S
H617 C632 0.960 . S
H618 C632 0.960 . S
H619 C632 0.960 . S
C620 H612 0.929 . S
C620 C621 1.377 . S
C620 C622 1.384 . S
C621 C620 1.377 . S
C621 C627 1.390 . S
C622 H613 0.930 . S
C622 C620 1.384 . S
C622 C623 1.372 . S
C623 C622 1.372 . S
C623 C624 1.400 . S
C623 C628 1.490 . S
C624 H614 0.930 . S
C624 C623 1.400 . S
C624 C627 1.386 . S
H625 C641 0.930 . S
H626 C642 0.931 . S
C627 H615 0.929 . S
C627 C621 1.390 . S
C627 C624 1.386 . S
C628 C623 1.490 . S
C628 C630 1.395 . S
C628 C631 1.403 . S
H629 C635 0.930 . S
C630 H616 0.930 . S
C630 C628 1.395 . S
C630 C633 1.403 . S
C631 C628 1.403 . S
C631 C632 1.524 . S
C631 C635 1.400 . S
C632 H617 0.960 . S
C632 H618 0.960 . S
C632 H619 0.960 . S
C632 C631 1.524 . S
C633 C630 1.403 . S
C633 C634 1.392 . S
C633 C637 1.495 . S
C634 C633 1.392 . S
C634 C635 1.385 . S
C634 C636 1.478 . S
C635 H629 0.930 . S
C635 C631 1.400 . S
C635 C634 1.385 . S
C636 C634 1.478 . S
C636 C638 1.381 . S
C636 C642 1.383 . S
C637 C633 1.495 . S
C637 H643 0.959 . S
C637 H644 0.961 . S
C637 H645 0.960 . S
C638 C636 1.381 . S
C638 C639 1.394 . S
C638 H646 0.930 . S
C639 C638 1.394 . S
C639 C640 1.383 . S
C639 H647 0.929 . S
C640 C639 1.383 . S
C640 C641 1.377 . S
C641 H625 0.930 . S
C641 C640 1.377 . S
C641 C642 1.379 . S
C642 H626 0.931 . S
C642 C636 1.383 . S
C642 C641 1.379 . S
H643 C637 0.959 . S
H644 C637 0.961 . S
H645 C637 0.960 . S
H646 C638 0.930 . S
H647 C639 0.929 . S
H648 C656 0.929 . S
H649 C658 0.930 . S
H650 C660 0.930 . S
H651 C663 0.929 . S
H652 C666 0.930 . S
H653 C668 0.960 . S
H654 C668 0.960 . S
H655 C668 0.960 . S
C656 H648 0.929 . S
C656 C657 1.377 . S
C656 C658 1.384 . S
C657 C656 1.377 . S
C657 C663 1.390 . S
C658 H649 0.930 . S
C658 C656 1.384 . S
C658 C659 1.372 . S
C659 C658 1.372 . S
C659 C660 1.400 . S
C659 C664 1.490 . S
C660 H650 0.930 . S
C660 C659 1.400 . S
C660 C663 1.386 . S
H661 C677 0.930 . S
H662 C678 0.931 . S
C663 H651 0.929 . S
C663 C657 1.390 . S
C663 C660 1.386 . S
C664 C659 1.490 . S
C664 C666 1.395 . S
C664 C667 1.403 . S
H665 C671 0.930 . S
C666 H652 0.930 . S
C666 C664 1.395 . S
C666 C669 1.403 1_545 S
C667 C664 1.403 . S
C667 C668 1.524 . S
C667 C671 1.400 1_545 S
C668 H653 0.960 . S
C668 H654 0.960 . S
C668 H655 0.960 . S
C668 C667 1.524 . S
C669 C666 1.403 1_565 S
C669 C670 1.392 . S
C669 C673 1.495 . S
C670 C669 1.392 . S
C670 C671 1.385 . S
C670 C672 1.478 . S
C671 H665 0.930 . S
C671 C667 1.400 1_565 S
C671 C670 1.385 . S
C672 C670 1.478 . S
C672 C674 1.381 . S
C672 C678 1.383 . S
C673 C669 1.495 . S
C673 H679 0.959 . S
C673 H680 0.961 . S
C673 H681 0.960 . S
C674 C672 1.381 . S
C674 C675 1.394 . S
C674 H682 0.930 . S
C675 C674 1.394 . S
C675 C676 1.383 . S
C675 H683 0.929 . S
C676 C675 1.383 . S
C676 C677 1.377 . S
C677 H661 0.930 . S
C677 C676 1.377 . S
C677 C678 1.379 . S
C678 H662 0.931 . S
C678 C672 1.383 . S
C678 C677 1.379 . S
H679 C673 0.959 . S
H680 C673 0.961 . S
H681 C673 0.960 . S
H682 C674 0.930 . S
H683 C675 0.929 . S
H684 C692 0.929 . S
H685 C694 0.930 . S
H686 C696 0.930 . S
H687 C699 0.929 . S
H688 C702 0.930 . S
H689 C704 0.960 . S
H690 C704 0.960 . S
H691 C704 0.960 . S
C692 H684 0.929 . S
C692 C693 1.377 . S
C692 C694 1.384 . S
C693 C692 1.377 . S
C693 C699 1.390 . S
C694 H685 0.930 . S
C694 C692 1.384 . S
C694 C695 1.372 . S
C695 C694 1.372 . S
C695 C696 1.400 . S
C695 C700 1.490 . S
C696 H686 0.930 . S
C696 C695 1.400 . S
C696 C699 1.386 . S
H697 C713 0.930 . S
H698 C714 0.931 . S
C699 H687 0.929 . S
C699 C693 1.390 . S
C699 C696 1.386 . S
C700 C695 1.490 . S
C700 C702 1.395 . S
C700 C703 1.403 . S
H701 C707 0.930 . S
C702 H688 0.930 . S
C702 C700 1.395 . S
C702 C705 1.403 1_565 S
C703 C700 1.403 . S
C703 C704 1.524 . S
C703 C707 1.400 1_565 S
C704 H689 0.960 . S
C704 H690 0.960 . S
C704 H691 0.960 . S
C704 C703 1.524 . S
C705 C702 1.403 1_545 S
C705 C706 1.392 . S
C705 C709 1.495 . S
C706 C705 1.392 . S
C706 C707 1.385 . S
C706 C708 1.478 . S
C707 H701 0.930 . S
C707 C703 1.400 1_545 S
C707 C706 1.385 . S
C708 C706 1.478 . S
C708 C710 1.381 . S
C708 C714 1.383 . S
C709 C705 1.495 . S
C709 H715 0.959 . S
C709 H716 0.961 . S
C709 H717 0.960 . S
C710 C708 1.381 . S
C710 C711 1.394 . S
C710 H718 0.930 . S
C711 C710 1.394 . S
C711 C712 1.383 . S
C711 H719 0.929 . S
C712 C711 1.383 . S
C712 C713 1.377 . S
C713 H697 0.930 . S
C713 C712 1.377 . S
C713 C714 1.379 . S
C714 H698 0.931 . S
C714 C708 1.383 . S
C714 C713 1.379 . S
H715 C709 0.959 . S
H716 C709 0.961 . S
H717 C709 0.960 . S
H718 C710 0.930 . S
H719 C711 0.929 . S
H720 C728 0.929 . S
H721 C730 0.930 . S
H722 C732 0.930 . S
H723 C735 0.929 . S
H724 C738 0.930 . S
H725 C740 0.960 . S
H726 C740 0.960 . S
H727 C740 0.960 . S
C728 H720 0.929 . S
C728 C729 1.377 . S
C728 C730 1.384 . S
C729 C728 1.377 . S
C729 C735 1.390 . S
C730 H721 0.930 . S
C730 C728 1.384 . S
C730 C731 1.372 . S
C731 C730 1.372 . S
C731 C732 1.400 . S
C731 C736 1.490 . S
C732 H722 0.930 . S
C732 C731 1.400 . S
C732 C735 1.386 . S
H733 C749 0.930 . S
H734 C750 0.931 . S
C735 H723 0.929 . S
C735 C729 1.390 . S
C735 C732 1.386 . S
C736 C731 1.490 . S
C736 C738 1.395 . S
C736 C739 1.403 . S
H737 C743 0.930 . S
C738 H724 0.930 . S
C738 C736 1.395 . S
C738 C741 1.403 1_455 S
C739 C736 1.403 . S
C739 C740 1.524 . S
C739 C743 1.400 1_455 S
C740 H725 0.960 . S
C740 H726 0.960 . S
C740 H727 0.960 . S
C740 C739 1.524 . S
C741 C738 1.403 1_655 S
C741 C742 1.392 . S
C741 C745 1.495 . S
C742 C741 1.392 . S
C742 C743 1.385 . S
C742 C744 1.478 . S
C743 H737 0.930 . S
C743 C739 1.400 1_655 S
C743 C742 1.385 . S
C744 C742 1.478 . S
C744 C746 1.381 . S
C744 C750 1.383 . S
C745 C741 1.495 . S
C745 H751 0.959 . S
C745 H752 0.961 . S
C745 H753 0.960 . S
C746 C744 1.381 . S
C746 C747 1.394 . S
C746 H754 0.930 . S
C747 C746 1.394 . S
C747 C748 1.383 . S
C747 H755 0.929 . S
C748 C747 1.383 . S
C748 C749 1.377 . S
C749 H733 0.930 . S
C749 C748 1.377 . S
C749 C750 1.379 . S
C750 H734 0.931 . S
C750 C744 1.383 . S
C750 C749 1.379 . S
H751 C745 0.959 . S
H752 C745 0.961 . S
H753 C745 0.960 . S
H754 C746 0.930 . S
H755 C747 0.929 . S
H756 C764 0.929 . S
H757 C766 0.930 . S
H758 C768 0.930 . S
H759 C771 0.929 . S
H760 C774 0.930 . S
H761 C776 0.960 . S
H762 C776 0.960 . S
H763 C776 0.960 . S
C764 H756 0.929 . S
C764 C765 1.377 . S
C764 C766 1.384 . S
C765 C764 1.377 . S
C765 C771 1.390 . S
C766 H757 0.930 . S
C766 C764 1.384 . S
C766 C767 1.372 . S
C767 C766 1.372 . S
C767 C768 1.400 . S
C767 C772 1.490 . S
C768 H758 0.930 . S
C768 C767 1.400 . S
C768 C771 1.386 . S
H769 C785 0.930 . S
H770 C786 0.931 . S
C771 H759 0.929 . S
C771 C765 1.390 . S
C771 C768 1.386 . S
C772 C767 1.490 . S
C772 C774 1.395 . S
C772 C775 1.403 . S
H773 C779 0.930 . S
C774 H760 0.930 . S
C774 C772 1.395 . S
C774 C777 1.403 . S
C775 C772 1.403 . S
C775 C776 1.524 . S
C775 C779 1.400 . S
C776 H761 0.960 . S
C776 H762 0.960 . S
C776 H763 0.960 . S
C776 C775 1.524 . S
C777 C774 1.403 . S
C777 C778 1.392 . S
C777 C781 1.495 . S
C778 C777 1.392 . S
C778 C779 1.385 . S
C778 C780 1.478 . S
C779 H773 0.930 . S
C779 C775 1.400 . S
C779 C778 1.385 . S
C780 C778 1.478 . S
C780 C782 1.381 . S
C780 C786 1.383 . S
C781 C777 1.495 . S
C781 H787 0.959 . S
C781 H788 0.961 . S
C781 H789 0.960 . S
C782 C780 1.381 . S
C782 C783 1.394 . S
C782 H790 0.930 . S
C783 C782 1.394 . S
C783 C784 1.383 . S
C783 H791 0.929 . S
C784 C783 1.383 . S
C784 C785 1.377 . S
C785 H769 0.930 . S
C785 C784 1.377 . S
C785 C786 1.379 . S
C786 H770 0.931 . S
C786 C780 1.383 . S
C786 C785 1.379 . S
H787 C781 0.959 . S
H788 C781 0.961 . S
H789 C781 0.960 . S
H790 C782 0.930 . S
H791 C783 0.929 . S
H792 C800 0.929 . S
H793 C802 0.930 . S
H794 C804 0.930 . S
H795 C807 0.929 . S
H796 C810 0.930 . S
H797 C812 0.960 . S
H798 C812 0.960 . S
H799 C812 0.960 . S
C800 H792 0.929 . S
C800 C801 1.377 . S
C800 C802 1.384 . S
C801 C800 1.377 . S
C801 C807 1.390 . S
C802 H793 0.930 . S
C802 C800 1.384 . S
C802 C803 1.372 . S
C803 C802 1.372 . S
C803 C804 1.400 . S
C803 C808 1.490 . S
C804 H794 0.930 . S
C804 C803 1.400 . S
C804 C807 1.386 . S
H805 C821 0.930 . S
H806 C822 0.931 . S
C807 H795 0.929 . S
C807 C801 1.390 . S
C807 C804 1.386 . S
C808 C803 1.490 . S
C808 C810 1.395 . S
C808 C811 1.403 . S
H809 C815 0.930 . S
C810 H796 0.930 . S
C810 C808 1.395 . S
C810 C813 1.403 . S
C811 C808 1.403 . S
C811 C812 1.524 . S
C811 C815 1.400 . S
C812 H797 0.960 . S
C812 H798 0.960 . S
C812 H799 0.960 . S
C812 C811 1.524 . S
C813 C810 1.403 . S
C813 C814 1.392 . S
C813 C817 1.495 . S
C814 C813 1.392 . S
C814 C815 1.385 . S
C814 C816 1.478 . S
C815 H809 0.930 . S
C815 C811 1.400 . S
C815 C814 1.385 . S
C816 C814 1.478 . S
C816 C818 1.381 . S
C816 C822 1.383 . S
C817 C813 1.495 . S
C817 H823 0.959 . S
C817 H824 0.961 . S
C817 H825 0.960 . S
C818 C816 1.381 . S
C818 C819 1.394 . S
C818 H826 0.930 . S
C819 C818 1.394 . S
C819 C820 1.383 . S
C819 H827 0.929 . S
C820 C819 1.383 . S
C820 C821 1.377 . S
C821 H805 0.930 . S
C821 C820 1.377 . S
C821 C822 1.379 . S
C822 H806 0.931 . S
C822 C816 1.383 . S
C822 C821 1.379 . S
H823 C817 0.959 . S
H824 C817 0.961 . S
H825 C817 0.960 . S
H826 C818 0.930 . S
H827 C819 0.929 . S
H828 C836 0.929 . S
H829 C838 0.930 . S
H830 C840 0.930 . S
H831 C843 0.929 . S
H832 C846 0.930 . S
H833 C848 0.960 . S
H834 C848 0.960 . S
H835 C848 0.960 . S
C836 H828 0.929 . S
C836 C837 1.377 . S
C836 C838 1.384 . S
C837 C836 1.377 . S
C837 C843 1.390 . S
C838 H829 0.930 . S
C838 C836 1.384 . S
C838 C839 1.372 . S
C839 C838 1.372 . S
C839 C840 1.400 . S
C839 C844 1.490 . S
C840 H830 0.930 . S
C840 C839 1.400 . S
C840 C843 1.386 . S
H841 C857 0.930 . S
H842 C858 0.931 . S
C843 H831 0.929 . S
C843 C837 1.390 . S
C843 C840 1.386 . S
C844 C839 1.490 . S
C844 C846 1.395 . S
C844 C847 1.403 . S
H845 C851 0.930 . S
C846 H832 0.930 . S
C846 C844 1.395 . S
C846 C849 1.403 . S
C847 C844 1.403 . S
C847 C848 1.524 . S
C847 C851 1.400 . S
C848 H833 0.960 . S
C848 H834 0.960 . S
C848 H835 0.960 . S
C848 C847 1.524 . S
C849 C846 1.403 . S
C849 C850 1.392 . S
C849 C853 1.495 . S
C850 C849 1.392 . S
C850 C851 1.385 . S
C850 C852 1.478 . S
C851 H845 0.930 . S
C851 C847 1.400 . S
C851 C850 1.385 . S
C852 C850 1.478 . S
C852 C854 1.381 . S
C852 C858 1.383 . S
C853 C849 1.495 . S
C853 H859 0.959 . S
C853 H860 0.961 . S
C853 H861 0.960 . S
C854 C852 1.381 . S
C854 C855 1.394 . S
C854 H862 0.930 . S
C855 C854 1.394 . S
C855 C856 1.383 . S
C855 H863 0.929 . S
C856 C855 1.383 . S
C856 C857 1.377 . S
C857 H841 0.930 . S
C857 C856 1.377 . S
C857 C858 1.379 . S
C858 H842 0.931 . S
C858 C852 1.383 . S
C858 C857 1.379 . S
H859 C853 0.959 . S
H860 C853 0.961 . S
H861 C853 0.960 . S
H862 C854 0.930 . S
H863 C855 0.929 . S
H864 C872 0.929 . S
H865 C874 0.930 . S
H866 C876 0.930 . S
H867 C879 0.929 . S
H868 C882 0.930 . S
H869 C884 0.960 . S
H870 C884 0.960 . S
H871 C884 0.960 . S
C872 H864 0.929 . S
C872 C873 1.377 . S
C872 C874 1.384 . S
C873 C872 1.377 . S
C873 C879 1.390 . S
C874 H865 0.930 . S
C874 C872 1.384 . S
C874 C875 1.372 . S
C875 C874 1.372 . S
C875 C876 1.400 . S
C875 C880 1.490 . S
C876 H866 0.930 . S
C876 C875 1.400 . S
C876 C879 1.386 . S
H877 C893 0.930 . S
H878 C894 0.931 . S
C879 H867 0.929 . S
C879 C873 1.390 . S
C879 C876 1.386 . S
C880 C875 1.490 . S
C880 C882 1.395 . S
C880 C883 1.403 . S
H881 C887 0.930 . S
C882 H868 0.930 . S
C882 C880 1.395 . S
C882 C885 1.403 . S
C883 C880 1.403 . S
C883 C884 1.524 . S
C883 C887 1.400 . S
C884 H869 0.960 . S
C884 H870 0.960 . S
C884 H871 0.960 . S
C884 C883 1.524 . S
C885 C882 1.403 . S
C885 C886 1.392 . S
C885 C889 1.495 . S
C886 C885 1.392 . S
C886 C887 1.385 . S
C886 C888 1.478 . S
C887 H881 0.930 . S
C887 C883 1.400 . S
C887 C886 1.385 . S
C888 C886 1.478 . S
C888 C890 1.381 . S
C888 C894 1.383 . S
C889 C885 1.495 . S
C889 H895 0.959 . S
C889 H896 0.961 . S
C889 H897 0.960 . S
C890 C888 1.381 . S
C890 C891 1.394 . S
C890 H898 0.930 . S
C891 C890 1.394 . S
C891 C892 1.383 . S
C891 H899 0.929 . S
C892 C891 1.383 . S
C892 C893 1.377 . S
C893 H877 0.930 . S
C893 C892 1.377 . S
C893 C894 1.379 . S
C894 H878 0.931 . S
C894 C888 1.383 . S
C894 C893 1.379 . S
H895 C889 0.959 . S
H896 C889 0.961 . S
H897 C889 0.960 . S
H898 C890 0.930 . S
H899 C891 0.929 . S
H900 C908 0.929 . S
H901 C910 0.930 . S
H902 C912 0.930 . S
H903 C915 0.929 . S
H904 C918 0.930 . S
H905 C920 0.960 . S
H906 C920 0.960 . S
H907 C920 0.960 . S
C908 H900 0.929 . S
C908 C909 1.377 . S
C908 C910 1.384 . S
C909 C908 1.377 . S
C909 C915 1.390 . S
C910 H901 0.930 . S
C910 C908 1.384 . S
C910 C911 1.372 . S
C911 C910 1.372 . S
C911 C912 1.400 . S
C911 C916 1.490 . S
C912 H902 0.930 . S
C912 C911 1.400 . S
C912 C915 1.386 . S
H913 C929 0.930 . S
H914 C930 0.931 . S
C915 H903 0.929 . S
C915 C909 1.390 . S
C915 C912 1.386 . S
C916 C911 1.490 . S
C916 C918 1.395 . S
C916 C919 1.403 . S
H917 C923 0.930 . S
C918 H904 0.930 . S
C918 C916 1.395 . S
C918 C921 1.403 . S
C919 C916 1.403 . S
C919 C920 1.524 . S
C919 C923 1.400 . S
C920 H905 0.960 . S
C920 H906 0.960 . S
C920 H907 0.960 . S
C920 C919 1.524 . S
C921 C918 1.403 . S
C921 C922 1.392 . S
C921 C925 1.495 . S
C922 C921 1.392 . S
C922 C923 1.385 . S
C922 C924 1.478 . S
C923 H917 0.930 . S
C923 C919 1.400 . S
C923 C922 1.385 . S
C924 C922 1.478 . S
C924 C926 1.381 . S
C924 C930 1.383 . S
C925 C921 1.495 . S
C925 H931 0.959 . S
C925 H932 0.961 . S
C925 H933 0.960 . S
C926 C924 1.381 . S
C926 C927 1.394 . S
C926 H934 0.930 . S
C927 C926 1.394 . S
C927 C928 1.383 . S
C927 H935 0.929 . S
C928 C927 1.383 . S
C928 C929 1.377 . S
C929 H913 0.930 . S
C929 C928 1.377 . S
C929 C930 1.379 . S
C930 H914 0.931 . S
C930 C924 1.383 . S
C930 C929 1.379 . S
H931 C925 0.959 . S
H932 C925 0.961 . S
H933 C925 0.960 . S
H934 C926 0.930 . S
H935 C927 0.929 . S
H936 C944 0.929 . S
H937 C946 0.930 . S
H938 C948 0.930 . S
H939 C951 0.929 . S
H940 C954 0.930 . S
H941 C956 0.960 . S
H942 C956 0.960 . S
H943 C956 0.960 . S
C944 H936 0.929 . S
C944 C945 1.377 . S
C944 C946 1.384 . S
C945 C944 1.377 . S
C945 C951 1.390 . S
C946 H937 0.930 . S
C946 C944 1.384 . S
C946 C947 1.372 . S
C947 C946 1.372 . S
C947 C948 1.400 . S
C947 C952 1.490 . S
C948 H938 0.930 . S
C948 C947 1.400 . S
C948 C951 1.386 . S
H949 C965 0.930 . S
H950 C966 0.931 . S
C951 H939 0.929 . S
C951 C945 1.390 . S
C951 C948 1.386 . S
C952 C947 1.490 . S
C952 C954 1.395 . S
C952 C955 1.403 . S
H953 C959 0.930 . S
C954 H940 0.930 . S
C954 C952 1.395 . S
C954 C957 1.403 . S
C955 C952 1.403 . S
C955 C956 1.524 . S
C955 C959 1.400 . S
C956 H941 0.960 . S
C956 H942 0.960 . S
C956 H943 0.960 . S
C956 C955 1.524 . S
C957 C954 1.403 . S
C957 C958 1.392 . S
C957 C961 1.495 . S
C958 C957 1.392 . S
C958 C959 1.385 . S
C958 C960 1.478 . S
C959 H953 0.930 . S
C959 C955 1.400 . S
C959 C958 1.385 . S
C960 C958 1.478 . S
C960 C962 1.381 . S
C960 C966 1.383 . S
C961 C957 1.495 . S
C961 H967 0.959 . S
C961 H968 0.961 . S
C961 H969 0.960 . S
C962 C960 1.381 . S
C962 C963 1.394 . S
C962 H970 0.930 . S
C963 C962 1.394 . S
C963 C964 1.383 . S
C963 H971 0.929 . S
C964 C963 1.383 . S
C964 C965 1.377 . S
C965 H949 0.930 . S
C965 C964 1.377 . S
C965 C966 1.379 . S
C966 H950 0.931 . S
C966 C960 1.383 . S
C966 C965 1.379 . S
H967 C961 0.959 . S
H968 C961 0.961 . S
H969 C961 0.960 . S
H970 C962 0.930 . S
H971 C963 0.929 . S
H972 C980 0.929 . S
H973 C982 0.930 . S
H974 C984 0.930 . S
H975 C987 0.929 . S
H976 C990 0.930 . S
H977 C992 0.960 . S
H978 C992 0.960 . S
H979 C992 0.960 . S
C980 H972 0.929 . S
C980 C981 1.377 . S
C980 C982 1.384 . S
C981 C980 1.377 . S
C981 C987 1.390 . S
C982 H973 0.930 . S
C982 C980 1.384 . S
C982 C983 1.372 . S
C983 C982 1.372 . S
C983 C984 1.400 . S
C983 C988 1.490 . S
C984 H974 0.930 . S
C984 C983 1.400 . S
C984 C987 1.386 . S
H985 C1001 0.930 . S
H986 C1002 0.931 . S
C987 H975 0.929 . S
C987 C981 1.390 . S
C987 C984 1.386 . S
C988 C983 1.490 . S
C988 C990 1.395 . S
C988 C991 1.403 . S
H989 C995 0.930 . S
C990 H976 0.930 . S
C990 C988 1.395 . S
C990 C993 1.403 . S
C991 C988 1.403 . S
C991 C992 1.524 . S
C991 C995 1.400 . S
C992 H977 0.960 . S
C992 H978 0.960 . S
C992 H979 0.960 . S
C992 C991 1.524 . S
C993 C990 1.403 . S
C993 C994 1.392 . S
C993 C997 1.495 . S
C994 C993 1.392 . S
C994 C995 1.385 . S
C994 C996 1.478 . S
C995 H989 0.930 . S
C995 C991 1.400 . S
C995 C994 1.385 . S
C996 C994 1.478 . S
C996 C998 1.381 . S
C996 C1002 1.383 . S
C997 C993 1.495 . S
C997 H1003 0.959 . S
C997 H1004 0.961 . S
C997 H1005 0.960 . S
C998 C996 1.381 . S
C998 C999 1.394 . S
C998 H1006 0.930 . S
C999 C998 1.394 . S
C999 C1000 1.383 . S
C999 H1007 0.929 . S
C1000 C999 1.383 . S
C1000 C1001 1.377 . S
C1001 H985 0.930 . S
C1001 C1000 1.377 . S
C1001 C1002 1.379 . S
C1002 H986 0.931 . S
C1002 C996 1.383 . S
C1002 C1001 1.379 . S
H1003 C997 0.959 . S
H1004 C997 0.961 . S
H1005 C997 0.960 . S
H1006 C998 0.930 . S
H1007 C999 0.929 . S
H1008 C1016 0.929 . S
H1009 C1018 0.930 . S
H1010 C1020 0.930 . S
H1011 C1023 0.929 . S
H1012 C1026 0.930 . S
H1013 C1028 0.960 . S
H1014 C1028 0.960 . S
H1015 C1028 0.960 . S
C1016 H1008 0.929 . S
C1016 C1017 1.377 . S
C1016 C1018 1.384 . S
C1017 C1016 1.377 . S
C1017 C1023 1.390 . S
C1018 H1009 0.930 . S
C1018 C1016 1.384 . S
C1018 C1019 1.372 . S
C1019 C1018 1.372 . S
C1019 C1020 1.400 . S
C1019 C1024 1.490 . S
C1020 H1010 0.930 . S
C1020 C1019 1.400 . S
C1020 C1023 1.386 . S
H1021 C1037 0.930 . S
H1022 C1038 0.931 . S
C1023 H1011 0.929 . S
C1023 C1017 1.390 . S
C1023 C1020 1.386 . S
C1024 C1019 1.490 . S
C1024 C1026 1.395 . S
C1024 C1027 1.403 . S
H1025 C1031 0.930 . S
C1026 H1012 0.930 . S
C1026 C1024 1.395 . S
C1026 C1029 1.403 . S
C1027 C1024 1.403 . S
C1027 C1028 1.524 . S
C1027 C1031 1.400 . S
C1028 H1013 0.960 . S
C1028 H1014 0.960 . S
C1028 H1015 0.960 . S
C1028 C1027 1.524 . S
C1029 C1026 1.403 . S
C1029 C1030 1.392 . S
C1029 C1033 1.495 . S
C1030 C1029 1.392 . S
C1030 C1031 1.385 . S
C1030 C1032 1.478 . S
C1031 H1025 0.930 . S
C1031 C1027 1.400 . S
C1031 C1030 1.385 . S
C1032 C1030 1.478 . S
C1032 C1034 1.381 . S
C1032 C1038 1.383 . S
C1033 C1029 1.495 . S
C1033 H1039 0.959 . S
C1033 H1040 0.961 . S
C1033 H1041 0.960 . S
C1034 C1032 1.381 . S
C1034 C1035 1.394 . S
C1034 H1042 0.930 . S
C1035 C1034 1.394 . S
C1035 C1036 1.383 . S
C1035 H1043 0.929 . S
C1036 C1035 1.383 . S
C1036 C1037 1.377 . S
C1037 H1021 0.930 . S
C1037 C1036 1.377 . S
C1037 C1038 1.379 . S
C1038 H1022 0.931 . S
C1038 C1032 1.383 . S
C1038 C1037 1.379 . S
H1039 C1033 0.959 . S
H1040 C1033 0.961 . S
H1041 C1033 0.960 . S
H1042 C1034 0.930 . S
H1043 C1035 0.929 . S
H1044 C1052 0.929 . S
H1045 C1054 0.930 . S
H1046 C1056 0.930 . S
H1047 C1059 0.929 . S
H1048 C1062 0.930 . S
H1049 C1064 0.960 . S
H1050 C1064 0.960 . S
H1051 C1064 0.960 . S
C1052 H1044 0.929 . S
C1052 C1053 1.377 . S
C1052 C1054 1.384 . S
C1053 C1052 1.377 . S
C1053 C1059 1.390 . S
C1054 H1045 0.930 . S
C1054 C1052 1.384 . S
C1054 C1055 1.372 . S
C1055 C1054 1.372 . S
C1055 C1056 1.400 . S
C1055 C1060 1.490 . S
C1056 H1046 0.930 . S
C1056 C1055 1.400 . S
C1056 C1059 1.386 . S
H1057 C1073 0.930 . S
H1058 C1074 0.931 . S
C1059 H1047 0.929 . S
C1059 C1053 1.390 . S
C1059 C1056 1.386 . S
C1060 C1055 1.490 . S
C1060 C1062 1.395 . S
C1060 C1063 1.403 . S
H1061 C1067 0.930 . S
C1062 H1048 0.930 . S
C1062 C1060 1.395 . S
C1062 C1065 1.403 . S
C1063 C1060 1.403 . S
C1063 C1064 1.524 . S
C1063 C1067 1.400 . S
C1064 H1049 0.960 . S
C1064 H1050 0.960 . S
C1064 H1051 0.960 . S
C1064 C1063 1.524 . S
C1065 C1062 1.403 . S
C1065 C1066 1.392 . S
C1065 C1069 1.495 . S
C1066 C1065 1.392 . S
C1066 C1067 1.385 . S
C1066 C1068 1.478 . S
C1067 H1061 0.930 . S
C1067 C1063 1.400 . S
C1067 C1066 1.385 . S
C1068 C1066 1.478 . S
C1068 C1070 1.381 . S
C1068 C1074 1.383 . S
C1069 C1065 1.495 . S
C1069 H1075 0.959 . S
C1069 H1076 0.961 . S
C1069 H1077 0.960 . S
C1070 C1068 1.381 . S
C1070 C1071 1.394 . S
C1070 H1078 0.930 . S
C1071 C1070 1.394 . S
C1071 C1072 1.383 . S
C1071 H1079 0.929 . S
C1072 C1071 1.383 . S
C1072 C1073 1.377 . S
C1073 H1057 0.930 . S
C1073 C1072 1.377 . S
C1073 C1074 1.379 . S
C1074 H1058 0.931 . S
C1074 C1068 1.383 . S
C1074 C1073 1.379 . S
H1075 C1069 0.959 . S
H1076 C1069 0.961 . S
H1077 C1069 0.960 . S
H1078 C1070 0.930 . S
H1079 C1071 0.929 . S
H1080 C1088 0.929 . S
H1081 C1090 0.930 . S
H1082 C1092 0.930 . S
H1083 C1095 0.929 . S
H1084 C1098 0.930 . S
H1085 C1100 0.960 . S
H1086 C1100 0.960 . S
H1087 C1100 0.960 . S
C1088 H1080 0.929 . S
C1088 C1089 1.377 . S
C1088 C1090 1.384 . S
C1089 C1088 1.377 . S
C1089 C1095 1.390 . S
C1090 H1081 0.930 . S
C1090 C1088 1.384 . S
C1090 C1091 1.372 . S
C1091 C1090 1.372 . S
C1091 C1092 1.400 . S
C1091 C1096 1.490 . S
C1092 H1082 0.930 . S
C1092 C1091 1.400 . S
C1092 C1095 1.386 . S
H1093 C1109 0.930 . S
H1094 C1110 0.931 . S
C1095 H1083 0.929 . S
C1095 C1089 1.390 . S
C1095 C1092 1.386 . S
C1096 C1091 1.490 . S
C1096 C1098 1.395 . S
C1096 C1099 1.403 . S
H1097 C1103 0.930 . S
C1098 H1084 0.930 . S
C1098 C1096 1.395 . S
C1098 C1101 1.403 . S
C1099 C1096 1.403 . S
C1099 C1100 1.524 . S
C1099 C1103 1.400 . S
C1100 H1085 0.960 . S
C1100 H1086 0.960 . S
C1100 H1087 0.960 . S
C1100 C1099 1.524 . S
C1101 C1098 1.403 . S
C1101 C1102 1.392 . S
C1101 C1105 1.495 . S
C1102 C1101 1.392 . S
C1102 C1103 1.385 . S
C1102 C1104 1.478 . S
C1103 H1097 0.930 . S
C1103 C1099 1.400 . S
C1103 C1102 1.385 . S
C1104 C1102 1.478 . S
C1104 C1106 1.381 . S
C1104 C1110 1.383 . S
C1105 C1101 1.495 . S
C1105 H1111 0.959 . S
C1105 H1112 0.961 . S
C1105 H1113 0.960 . S
C1106 C1104 1.381 . S
C1106 C1107 1.394 . S
C1106 H1114 0.930 . S
C1107 C1106 1.394 . S
C1107 C1108 1.383 . S
C1107 H1115 0.929 . S
C1108 C1107 1.383 . S
C1108 C1109 1.377 . S
C1109 H1093 0.930 . S
C1109 C1108 1.377 . S
C1109 C1110 1.379 . S
C1110 H1094 0.931 . S
C1110 C1104 1.383 . S
C1110 C1109 1.379 . S
H1111 C1105 0.959 . S
H1112 C1105 0.961 . S
H1113 C1105 0.960 . S
H1114 C1106 0.930 . S
H1115 C1107 0.929 . S
H1116 C1124 0.929 . S
H1117 C1126 0.930 . S
H1118 C1128 0.930 . S
H1119 C1131 0.929 . S
H1120 C1134 0.930 . S
H1121 C1136 0.960 . S
H1122 C1136 0.960 . S
H1123 C1136 0.960 . S
C1124 H1116 0.929 . S
C1124 C1125 1.377 . S
C1124 C1126 1.384 . S
C1125 C1124 1.377 . S
C1125 C1131 1.390 . S
C1126 H1117 0.930 . S
C1126 C1124 1.384 . S
C1126 C1127 1.372 . S
C1127 C1126 1.372 . S
C1127 C1128 1.400 . S
C1127 C1132 1.490 . S
C1128 H1118 0.930 . S
C1128 C1127 1.400 . S
C1128 C1131 1.386 . S
H1129 C1145 0.930 . S
H1130 C1146 0.931 . S
C1131 H1119 0.929 . S
C1131 C1125 1.390 . S
C1131 C1128 1.386 . S
C1132 C1127 1.490 . S
C1132 C1134 1.395 . S
C1132 C1135 1.403 . S
H1133 C1139 0.930 . S
C1134 H1120 0.930 . S
C1134 C1132 1.395 . S
C1134 C1137 1.403 . S
C1135 C1132 1.403 . S
C1135 C1136 1.524 . S
C1135 C1139 1.400 . S
C1136 H1121 0.960 . S
C1136 H1122 0.960 . S
C1136 H1123 0.960 . S
C1136 C1135 1.524 . S
C1137 C1134 1.403 . S
C1137 C1138 1.392 . S
C1137 C1141 1.495 . S
C1138 C1137 1.392 . S
C1138 C1139 1.385 . S
C1138 C1140 1.478 . S
C1139 H1133 0.930 . S
C1139 C1135 1.400 . S
C1139 C1138 1.385 . S
C1140 C1138 1.478 . S
C1140 C1142 1.381 . S
C1140 C1146 1.383 . S
C1141 C1137 1.495 . S
C1141 H1147 0.959 . S
C1141 H1148 0.961 . S
C1141 H1149 0.960 . S
C1142 C1140 1.381 . S
C1142 C1143 1.394 . S
C1142 H1150 0.930 . S
C1143 C1142 1.394 . S
C1143 C1144 1.383 . S
C1143 H1151 0.929 . S
C1144 C1143 1.383 . S
C1144 C1145 1.377 . S
C1145 H1129 0.930 . S
C1145 C1144 1.377 . S
C1145 C1146 1.379 . S
C1146 H1130 0.931 . S
C1146 C1140 1.383 . S
C1146 C1145 1.379 . S
H1147 C1141 0.959 . S
H1148 C1141 0.961 . S
H1149 C1141 0.960 . S
H1150 C1142 0.930 . S
H1151 C1143 0.929 . S
H1152 C1160 0.929 . S
H1153 C1162 0.930 . S
H1154 C1164 0.930 . S
H1155 C1167 0.929 . S
H1156 C1170 0.930 . S
H1157 C1172 0.960 . S
H1158 C1172 0.960 . S
H1159 C1172 0.960 . S
C1160 H1152 0.929 . S
C1160 C1161 1.377 . S
C1160 C1162 1.384 . S
C1161 C1160 1.377 . S
C1161 C1167 1.390 . S
C1162 H1153 0.930 . S
C1162 C1160 1.384 . S
C1162 C1163 1.372 . S
C1163 C1162 1.372 . S
C1163 C1164 1.400 . S
C1163 C1168 1.490 . S
C1164 H1154 0.930 . S
C1164 C1163 1.400 . S
C1164 C1167 1.386 . S
H1165 C1181 0.930 . S
H1166 C1182 0.931 . S
C1167 H1155 0.929 . S
C1167 C1161 1.390 . S
C1167 C1164 1.386 . S
C1168 C1163 1.490 . S
C1168 C1170 1.395 . S
C1168 C1171 1.403 . S
H1169 C1175 0.930 . S
C1170 H1156 0.930 . S
C1170 C1168 1.395 . S
C1170 C1173 1.403 . S
C1171 C1168 1.403 . S
C1171 C1172 1.524 . S
C1171 C1175 1.400 . S
C1172 H1157 0.960 . S
C1172 H1158 0.960 . S
C1172 H1159 0.960 . S
C1172 C1171 1.524 . S
C1173 C1170 1.403 . S
C1173 C1174 1.392 . S
C1173 C1177 1.495 . S
C1174 C1173 1.392 . S
C1174 C1175 1.385 . S
C1174 C1176 1.478 . S
C1175 H1169 0.930 . S
C1175 C1171 1.400 . S
C1175 C1174 1.385 . S
C1176 C1174 1.478 . S
C1176 C1178 1.381 . S
C1176 C1182 1.383 . S
C1177 C1173 1.495 . S
C1177 H1183 0.959 . S
C1177 H1184 0.961 . S
C1177 H1185 0.960 . S
C1178 C1176 1.381 . S
C1178 C1179 1.394 . S
C1178 H1186 0.930 . S
C1179 C1178 1.394 . S
C1179 C1180 1.383 . S
C1179 H1187 0.929 . S
C1180 C1179 1.383 . S
C1180 C1181 1.377 . S
C1181 H1165 0.930 . S
C1181 C1180 1.377 . S
C1181 C1182 1.379 . S
C1182 H1166 0.931 . S
C1182 C1176 1.383 . S
C1182 C1181 1.379 . S
H1183 C1177 0.959 . S
H1184 C1177 0.961 . S
H1185 C1177 0.960 . S
H1186 C1178 0.930 . S
H1187 C1179 0.929 . S
H1188 C1196 0.929 . S
H1189 C1198 0.930 . S
H1190 C1200 0.930 . S
H1191 C1203 0.929 . S
H1192 C1206 0.930 . S
H1193 C1208 0.960 . S
H1194 C1208 0.960 . S
H1195 C1208 0.960 . S
C1196 H1188 0.929 . S
C1196 C1197 1.377 . S
C1196 C1198 1.384 . S
C1197 C1196 1.377 . S
C1197 C1203 1.390 . S
C1198 H1189 0.930 . S
C1198 C1196 1.384 . S
C1198 C1199 1.372 . S
C1199 C1198 1.372 . S
C1199 C1200 1.400 . S
C1199 C1204 1.490 . S
C1200 H1190 0.930 . S
C1200 C1199 1.400 . S
C1200 C1203 1.386 . S
H1201 C1217 0.930 . S
H1202 C1218 0.931 . S
C1203 H1191 0.929 . S
C1203 C1197 1.390 . S
C1203 C1200 1.386 . S
C1204 C1199 1.490 . S
C1204 C1206 1.395 . S
C1204 C1207 1.403 . S
H1205 C1211 0.930 . S
C1206 H1192 0.930 . S
C1206 C1204 1.395 . S
C1206 C1209 1.403 . S
C1207 C1204 1.403 . S
C1207 C1208 1.524 . S
C1207 C1211 1.400 . S
C1208 H1193 0.960 . S
C1208 H1194 0.960 . S
C1208 H1195 0.960 . S
C1208 C1207 1.524 . S
C1209 C1206 1.403 . S
C1209 C1210 1.392 . S
C1209 C1213 1.495 . S
C1210 C1209 1.392 . S
C1210 C1211 1.385 . S
C1210 C1212 1.478 . S
C1211 H1205 0.930 . S
C1211 C1207 1.400 . S
C1211 C1210 1.385 . S
C1212 C1210 1.478 . S
C1212 C1214 1.381 . S
C1212 C1218 1.383 . S
C1213 C1209 1.495 . S
C1213 H1219 0.959 . S
C1213 H1220 0.961 . S
C1213 H1221 0.960 . S
C1214 C1212 1.381 . S
C1214 C1215 1.394 . S
C1214 H1222 0.930 . S
C1215 C1214 1.394 . S
C1215 C1216 1.383 . S
C1215 H1223 0.929 . S
C1216 C1215 1.383 . S
C1216 C1217 1.377 . S
C1217 H1201 0.930 . S
C1217 C1216 1.377 . S
C1217 C1218 1.379 . S
C1218 H1202 0.931 . S
C1218 C1212 1.383 . S
C1218 C1217 1.379 . S
H1219 C1213 0.959 . S
H1220 C1213 0.961 . S
H1221 C1213 0.960 . S
H1222 C1214 0.930 . S
H1223 C1215 0.929 . S
H1224 C1232 0.929 . S
H1225 C1234 0.930 . S
H1226 C1236 0.930 . S
H1227 C1239 0.929 . S
H1228 C1242 0.930 . S
H1229 C1244 0.960 . S
H1230 C1244 0.960 . S
H1231 C1244 0.960 . S
C1232 H1224 0.929 . S
C1232 C1233 1.377 . S
C1232 C1234 1.384 . S
C1233 C1232 1.377 . S
C1233 C1239 1.390 . S
C1234 H1225 0.930 . S
C1234 C1232 1.384 . S
C1234 C1235 1.372 . S
C1235 C1234 1.372 . S
C1235 C1236 1.400 . S
C1235 C1240 1.490 . S
C1236 H1226 0.930 . S
C1236 C1235 1.400 . S
C1236 C1239 1.386 . S
H1237 C1253 0.930 . S
H1238 C1254 0.931 . S
C1239 H1227 0.929 . S
C1239 C1233 1.390 . S
C1239 C1236 1.386 . S
C1240 C1235 1.490 . S
C1240 C1242 1.395 . S
C1240 C1243 1.403 . S
H1241 C1247 0.930 . S
C1242 H1228 0.930 . S
C1242 C1240 1.395 . S
C1242 C1245 1.403 1_554 S
C1243 C1240 1.403 . S
C1243 C1244 1.524 . S
C1243 C1247 1.400 1_554 S
C1244 H1229 0.960 . S
C1244 H1230 0.960 . S
C1244 H1231 0.960 . S
C1244 C1243 1.524 . S
C1245 C1242 1.403 1_556 S
C1245 C1246 1.392 . S
C1245 C1249 1.495 . S
C1246 C1245 1.392 . S
C1246 C1247 1.385 . S
C1246 C1248 1.478 . S
C1247 H1241 0.930 . S
C1247 C1243 1.400 1_556 S
C1247 C1246 1.385 . S
C1248 C1246 1.478 . S
C1248 C1250 1.381 . S
C1248 C1254 1.383 . S
C1249 C1245 1.495 . S
C1249 H1255 0.959 . S
C1249 H1256 0.961 . S
C1249 H1257 0.960 . S
C1250 C1248 1.381 . S
C1250 C1251 1.394 . S
C1250 H1258 0.930 . S
C1251 C1250 1.394 . S
C1251 C1252 1.383 . S
C1251 H1259 0.929 . S
C1252 C1251 1.383 . S
C1252 C1253 1.377 . S
C1253 H1237 0.930 . S
C1253 C1252 1.377 . S
C1253 C1254 1.379 . S
C1254 H1238 0.931 . S
C1254 C1248 1.383 . S
C1254 C1253 1.379 . S
H1255 C1249 0.959 . S
H1256 C1249 0.961 . S
H1257 C1249 0.960 . S
H1258 C1250 0.930 . S
H1259 C1251 0.929 . S
H1260 C1268 0.929 . S
H1261 C1270 0.930 . S
H1262 C1272 0.930 . S
H1263 C1275 0.929 . S
H1264 C1278 0.930 . S
H1265 C1280 0.960 . S
H1266 C1280 0.960 . S
H1267 C1280 0.960 . S
C1268 H1260 0.929 . S
C1268 C1269 1.377 . S
C1268 C1270 1.384 . S
C1269 C1268 1.377 . S
C1269 C1275 1.390 1_545 S
C1270 H1261 0.930 . S
C1270 C1268 1.384 . S
C1270 C1271 1.372 . S
C1271 C1270 1.372 . S
C1271 C1272 1.400 1_545 S
C1271 C1276 1.488 1_545 S
C1272 H1262 0.930 . S
C1272 C1271 1.400 1_565 S
C1272 C1275 1.386 . S
H1273 C1289 0.930 . S
H1274 C1290 0.931 . S
C1275 H1263 0.929 . S
C1275 C1269 1.390 1_565 S
C1275 C1272 1.386 . S
C1276 C1271 1.488 1_565 S
C1276 C1278 1.391 . S
C1276 C1279 1.408 1_565 S
H1277 C1283 0.932 . S
C1278 H1264 0.930 . S
C1278 C1276 1.391 . S
C1278 C1281 1.403 1_556 S
C1279 C1276 1.408 1_545 S
C1279 C1280 1.524 . S
C1279 C1283 1.399 1_556 S
C1280 H1265 0.960 . S
C1280 H1266 0.960 . S
C1280 H1267 0.960 . S
C1280 C1279 1.524 . S
C1281 C1278 1.403 1_554 S
C1281 C1282 1.392 . S
C1281 C1285 1.495 . S
C1282 C1281 1.392 . S
C1282 C1283 1.384 1_565 S
C1282 C1284 1.478 . S
C1283 H1277 0.932 . S
C1283 C1279 1.399 1_554 S
C1283 C1282 1.384 1_545 S
C1284 C1282 1.478 . S
C1284 C1286 1.381 1_565 S
C1284 C1290 1.383 . S
C1285 C1281 1.495 . S
C1285 H1291 0.959 . S
C1285 H1292 0.961 . S
C1285 H1293 0.960 . S
C1286 C1284 1.381 1_545 S
C1286 C1287 1.401 . S
C1286 H1294 0.930 . S
C1287 C1286 1.401 . S
C1287 C1288 1.339 1_545 S
C1287 H1295 0.968 . S
C1288 C1287 1.339 1_565 S
C1288 C1289 1.377 . S
C1289 H1273 0.930 . S
C1289 C1288 1.377 . S
C1289 C1290 1.379 . S
C1290 H1274 0.931 . S
C1290 C1284 1.383 . S
C1290 C1289 1.379 . S
H1291 C1285 0.959 . S
H1292 C1285 0.961 . S
H1293 C1285 0.960 . S
H1294 C1286 0.930 . S
H1295 C1287 0.968 . S
H1296 C1304 0.929 . S
H1297 C1306 0.930 . S
H1298 C1308 0.930 . S
H1299 C1311 0.929 . S
H1300 C1314 0.930 . S
H1301 C1316 0.960 . S
H1302 C1316 0.960 . S
H1303 C1316 0.960 . S
C1304 H1296 0.929 . S
C1304 C1305 1.377 1_455 S
C1304 C1306 1.384 . S
C1305 C1304 1.377 1_655 S
C1305 C1311 1.390 . S
C1306 H1297 0.930 . S
C1306 C1304 1.384 . S
C1306 C1307 1.372 1_455 S
C1307 C1306 1.372 1_655 S
C1307 C1308 1.400 . S
C1307 C1312 1.490 . S
C1308 H1298 0.930 . S
C1308 C1307 1.400 . S
C1308 C1311 1.386 . S
H1309 C1325 0.930 . S
H1310 C1326 0.931 . S
C1311 H1299 0.929 . S
C1311 C1305 1.390 . S
C1311 C1308 1.386 . S
C1312 C1307 1.490 . S
C1312 C1314 1.395 1_655 S
C1312 C1315 1.403 . S
H1313 C1319 0.930 . S
C1314 H1300 0.930 . S
C1314 C1312 1.395 1_455 S
C1314 C1317 1.403 1_556 S
C1315 C1312 1.403 . S
C1315 C1316 1.524 . S
C1315 C1319 1.400 1_556 S
C1316 H1301 0.960 . S
C1316 H1302 0.960 . S
C1316 H1303 0.960 . S
C1316 C1315 1.524 . S
C1317 C1314 1.403 1_554 S
C1317 C1318 1.392 . S
C1317 C1321 1.495 . S
C1318 C1317 1.392 . S
C1318 C1319 1.385 1_455 S
C1318 C1320 1.478 . S
C1319 H1313 0.930 . S
C1319 C1315 1.400 1_554 S
C1319 C1318 1.385 1_655 S
C1320 C1318 1.478 . S
C1320 C1322 1.381 . S
C1320 C1326 1.383 1_455 S
C1321 C1317 1.495 . S
C1321 H1327 0.959 . S
C1321 H1328 0.961 . S
C1321 H1329 0.960 . S
C1322 C1320 1.381 . S
C1322 C1323 1.394 . S
C1322 H1330 0.930 . S
C1323 C1322 1.394 . S
C1323 C1324 1.383 . S
C1323 H1331 0.929 . S
C1324 C1323 1.383 . S
C1324 C1325 1.377 1_455 S
C1325 H1309 0.930 . S
C1325 C1324 1.377 1_655 S
C1325 C1326 1.379 . S
C1326 H1310 0.931 . S
C1326 C1320 1.383 1_655 S
C1326 C1325 1.379 . S
H1327 C1321 0.959 . S
H1328 C1321 0.961 . S
H1329 C1321 0.960 . S
H1330 C1322 0.930 . S
H1331 C1323 0.929 . S
H1332 C1340 0.929 . S
H1333 C1342 0.930 . S
H1334 C1344 0.930 . S
H1335 C1347 0.929 . S
H1336 C1350 0.930 . S
H1337 C1352 0.960 . S
H1338 C1352 0.960 . S
H1339 C1352 0.960 . S
C1340 H1332 0.929 . S
C1340 C1341 1.377 . S
C1340 C1342 1.384 . S
C1341 C1340 1.377 . S
C1341 C1347 1.390 . S
C1342 H1333 0.930 . S
C1342 C1340 1.384 . S
C1342 C1343 1.372 . S
C1343 C1342 1.372 . S
C1343 C1344 1.400 . S
C1343 C1348 1.490 . S
C1344 H1334 0.930 . S
C1344 C1343 1.400 . S
C1344 C1347 1.386 . S
H1345 C1361 0.930 . S
H1346 C1362 0.931 . S
C1347 H1335 0.929 . S
C1347 C1341 1.390 . S
C1347 C1344 1.386 . S
C1348 C1343 1.490 . S
C1348 C1350 1.395 . S
C1348 C1351 1.403 . S
H1349 C1355 0.930 . S
C1350 H1336 0.930 . S
C1350 C1348 1.395 . S
C1350 C1353 1.403 . S
C1351 C1348 1.403 . S
C1351 C1352 1.524 . S
C1351 C1355 1.400 . S
C1352 H1337 0.960 . S
C1352 H1338 0.960 . S
C1352 H1339 0.960 . S
C1352 C1351 1.524 . S
C1353 C1350 1.403 . S
C1353 C1354 1.392 . S
C1353 C1357 1.495 . S
C1354 C1353 1.392 . S
C1354 C1355 1.385 . S
C1354 C1356 1.478 . S
C1355 H1349 0.930 . S
C1355 C1351 1.400 . S
C1355 C1354 1.385 . S
C1356 C1354 1.478 . S
C1356 C1358 1.381 . S
C1356 C1362 1.383 . S
C1357 C1353 1.495 . S
C1357 H1363 0.959 . S
C1357 H1364 0.961 . S
C1357 H1365 0.960 . S
C1358 C1356 1.381 . S
C1358 C1359 1.394 . S
C1358 H1366 0.930 . S
C1359 C1358 1.394 . S
C1359 C1360 1.383 . S
C1359 H1367 0.929 . S
C1360 C1359 1.383 . S
C1360 C1361 1.377 . S
C1361 H1345 0.930 . S
C1361 C1360 1.377 . S
C1361 C1362 1.379 . S
C1362 H1346 0.931 . S
C1362 C1356 1.383 . S
C1362 C1361 1.379 . S
H1363 C1357 0.959 . S
H1364 C1357 0.961 . S
H1365 C1357 0.960 . S
H1366 C1358 0.930 . S
H1367 C1359 0.929 . S
H1368 C1376 0.929 . S
H1369 C1378 0.930 . S
H1370 C1380 0.930 . S
H1371 C1383 0.929 . S
H1372 C1386 0.930 . S
H1373 C1388 0.960 . S
H1374 C1388 0.960 . S
H1375 C1388 0.960 . S
C1376 H1368 0.929 . S
C1376 C1377 1.377 . S
C1376 C1378 1.384 . S
C1377 C1376 1.377 . S
C1377 C1383 1.390 . S
C1378 H1369 0.930 . S
C1378 C1376 1.384 . S
C1378 C1379 1.372 . S
C1379 C1378 1.372 . S
C1379 C1380 1.400 . S
C1379 C1384 1.490 . S
C1380 H1370 0.930 . S
C1380 C1379 1.400 . S
C1380 C1383 1.386 . S
H1381 C1397 0.930 . S
H1382 C1398 0.931 . S
C1383 H1371 0.929 . S
C1383 C1377 1.390 . S
C1383 C1380 1.386 . S
C1384 C1379 1.490 . S
C1384 C1386 1.395 . S
C1384 C1387 1.403 . S
H1385 C1391 0.930 . S
C1386 H1372 0.930 . S
C1386 C1384 1.395 . S
C1386 C1389 1.403 . S
C1387 C1384 1.403 . S
C1387 C1388 1.524 . S
C1387 C1391 1.400 . S
C1388 H1373 0.960 . S
C1388 H1374 0.960 . S
C1388 H1375 0.960 . S
C1388 C1387 1.524 . S
C1389 C1386 1.403 . S
C1389 C1390 1.392 . S
C1389 C1393 1.495 . S
C1390 C1389 1.392 . S
C1390 C1391 1.385 . S
C1390 C1392 1.478 . S
C1391 H1385 0.930 . S
C1391 C1387 1.400 . S
C1391 C1390 1.385 . S
C1392 C1390 1.478 . S
C1392 C1394 1.381 . S
C1392 C1398 1.383 . S
C1393 C1389 1.495 . S
C1393 H1399 0.959 . S
C1393 H1400 0.961 . S
C1393 H1401 0.960 . S
C1394 C1392 1.381 . S
C1394 C1395 1.394 . S
C1394 H1402 0.930 . S
C1395 C1394 1.394 . S
C1395 C1396 1.383 . S
C1395 H1403 0.929 . S
C1396 C1395 1.383 . S
C1396 C1397 1.377 . S
C1397 H1381 0.930 . S
C1397 C1396 1.377 . S
C1397 C1398 1.379 . S
C1398 H1382 0.931 . S
C1398 C1392 1.383 . S
C1398 C1397 1.379 . S
H1399 C1393 0.959 . S
H1400 C1393 0.961 . S
H1401 C1393 0.960 . S
H1402 C1394 0.930 . S
H1403 C1395 0.929 . S
H1404 C1412 0.929 . S
H1405 C1414 0.930 . S
H1406 C1416 0.930 . S
H1407 C1419 0.929 . S
H1408 C1422 0.930 . S
H1409 C1424 0.960 . S
H1410 C1424 0.960 . S
H1411 C1424 0.960 . S
C1412 H1404 0.929 . S
C1412 C1413 1.377 . S
C1412 C1414 1.384 . S
C1413 C1412 1.377 . S
C1413 C1419 1.390 . S
C1414 H1405 0.930 . S
C1414 C1412 1.384 . S
C1414 C1415 1.372 . S
C1415 C1414 1.372 . S
C1415 C1416 1.400 . S
C1415 C1420 1.490 . S
C1416 H1406 0.930 . S
C1416 C1415 1.400 . S
C1416 C1419 1.386 . S
H1417 C1433 0.930 . S
H1418 C1434 0.931 . S
C1419 H1407 0.929 . S
C1419 C1413 1.390 . S
C1419 C1416 1.386 . S
C1420 C1415 1.490 . S
C1420 C1422 1.395 . S
C1420 C1423 1.403 . S
H1421 C1427 0.930 . S
C1422 H1408 0.930 . S
C1422 C1420 1.395 . S
C1422 C1425 1.403 . S
C1423 C1420 1.403 . S
C1423 C1424 1.524 . S
C1423 C1427 1.400 . S
C1424 H1409 0.960 . S
C1424 H1410 0.960 . S
C1424 H1411 0.960 . S
C1424 C1423 1.524 . S
C1425 C1422 1.403 . S
C1425 C1426 1.392 . S
C1425 C1429 1.495 . S
C1426 C1425 1.392 . S
C1426 C1427 1.385 . S
C1426 C1428 1.478 . S
C1427 H1421 0.930 . S
C1427 C1423 1.400 . S
C1427 C1426 1.385 . S
C1428 C1426 1.478 . S
C1428 C1430 1.381 . S
C1428 C1434 1.383 . S
C1429 C1425 1.495 . S
C1429 H1435 0.959 . S
C1429 H1436 0.961 . S
C1429 H1437 0.960 . S
C1430 C1428 1.381 . S
C1430 C1431 1.394 . S
C1430 H1438 0.930 . S
C1431 C1430 1.394 . S
C1431 C1432 1.383 . S
C1431 H1439 0.929 . S
C1432 C1431 1.383 . S
C1432 C1433 1.377 . S
C1433 H1417 0.930 . S
C1433 C1432 1.377 . S
C1433 C1434 1.379 . S
C1434 H1418 0.931 . S
C1434 C1428 1.383 . S
C1434 C1433 1.379 . S
H1435 C1429 0.959 . S
H1436 C1429 0.961 . S
H1437 C1429 0.960 . S
H1438 C1430 0.930 . S
H1439 C1431 0.929 . S
H1440 C1448 0.929 . S
H1441 C1450 0.930 . S
H1442 C1452 0.930 . S
H1443 C1455 0.929 . S
H1444 C1458 0.930 . S
H1445 C1460 0.960 . S
H1446 C1460 0.960 . S
H1447 C1460 0.960 . S
C1448 H1440 0.929 . S
C1448 C1449 1.377 . S
C1448 C1450 1.384 . S
C1449 C1448 1.377 . S
C1449 C1455 1.390 . S
C1450 H1441 0.930 . S
C1450 C1448 1.384 . S
C1450 C1451 1.372 . S
C1451 C1450 1.372 . S
C1451 C1452 1.400 . S
C1451 C1456 1.490 . S
C1452 H1442 0.930 . S
C1452 C1451 1.400 . S
C1452 C1455 1.386 . S
H1453 C1469 0.930 . S
H1454 C1470 0.931 . S
C1455 H1443 0.929 . S
C1455 C1449 1.390 . S
C1455 C1452 1.386 . S
C1456 C1451 1.490 . S
C1456 C1458 1.395 . S
C1456 C1459 1.403 . S
H1457 C1463 0.930 . S
C1458 H1444 0.930 . S
C1458 C1456 1.395 . S
C1458 C1461 1.403 . S
C1459 C1456 1.403 . S
C1459 C1460 1.524 . S
C1459 C1463 1.400 . S
C1460 H1445 0.960 . S
C1460 H1446 0.960 . S
C1460 H1447 0.960 . S
C1460 C1459 1.524 . S
C1461 C1458 1.403 . S
C1461 C1462 1.392 . S
C1461 C1465 1.495 . S
C1462 C1461 1.392 . S
C1462 C1463 1.385 . S
C1462 C1464 1.478 . S
C1463 H1457 0.930 . S
C1463 C1459 1.400 . S
C1463 C1462 1.385 . S
C1464 C1462 1.478 . S
C1464 C1466 1.381 . S
C1464 C1470 1.383 . S
C1465 C1461 1.495 . S
C1465 H1471 0.959 . S
C1465 H1472 0.961 . S
C1465 H1473 0.960 . S
C1466 C1464 1.381 . S
C1466 C1467 1.394 . S
C1466 H1474 0.930 . S
C1467 C1466 1.394 . S
C1467 C1468 1.383 . S
C1467 H1475 0.929 . S
C1468 C1467 1.383 . S
C1468 C1469 1.377 . S
C1469 H1453 0.930 . S
C1469 C1468 1.377 . S
C1469 C1470 1.379 . S
C1470 H1454 0.931 . S
C1470 C1464 1.383 . S
C1470 C1469 1.379 . S
H1471 C1465 0.959 . S
H1472 C1465 0.961 . S
H1473 C1465 0.960 . S
H1474 C1466 0.930 . S
H1475 C1467 0.929 . S
H1476 C1484 0.929 . S
H1477 C1486 0.930 . S
H1478 C1488 0.930 . S
H1479 C1491 0.929 . S
H1480 C1494 0.930 . S
H1481 C1496 0.960 . S
H1482 C1496 0.960 . S
H1483 C1496 0.960 . S
C1484 H1476 0.929 . S
C1484 C1485 1.377 . S
C1484 C1486 1.384 . S
C1485 C1484 1.377 . S
C1485 C1491 1.390 . S
C1486 H1477 0.930 . S
C1486 C1484 1.384 . S
C1486 C1487 1.372 . S
C1487 C1486 1.372 . S
C1487 C1488 1.400 . S
C1487 C1492 1.490 . S
C1488 H1478 0.930 . S
C1488 C1487 1.400 . S
C1488 C1491 1.386 . S
H1489 C1505 0.930 . S
H1490 C1506 0.931 . S
C1491 H1479 0.929 . S
C1491 C1485 1.390 . S
C1491 C1488 1.386 . S
C1492 C1487 1.490 . S
C1492 C1494 1.395 . S
C1492 C1495 1.403 . S
H1493 C1499 0.930 . S
C1494 H1480 0.930 . S
C1494 C1492 1.395 . S
C1494 C1497 1.403 . S
C1495 C1492 1.403 . S
C1495 C1496 1.524 . S
C1495 C1499 1.400 . S
C1496 H1481 0.960 . S
C1496 H1482 0.960 . S
C1496 H1483 0.960 . S
C1496 C1495 1.524 . S
C1497 C1494 1.403 . S
C1497 C1498 1.392 . S
C1497 C1501 1.495 . S
C1498 C1497 1.392 . S
C1498 C1499 1.385 . S
C1498 C1500 1.478 . S
C1499 H1493 0.930 . S
C1499 C1495 1.400 . S
C1499 C1498 1.385 . S
C1500 C1498 1.478 . S
C1500 C1502 1.381 . S
C1500 C1506 1.383 . S
C1501 C1497 1.495 . S
C1501 H1507 0.959 . S
C1501 H1508 0.961 . S
C1501 H1509 0.960 . S
C1502 C1500 1.381 . S
C1502 C1503 1.394 . S
C1502 H1510 0.930 . S
C1503 C1502 1.394 . S
C1503 C1504 1.383 . S
C1503 H1511 0.929 . S
C1504 C1503 1.383 . S
C1504 C1505 1.377 . S
C1505 H1489 0.930 . S
C1505 C1504 1.377 . S
C1505 C1506 1.379 . S
C1506 H1490 0.931 . S
C1506 C1500 1.383 . S
C1506 C1505 1.379 . S
H1507 C1501 0.959 . S
H1508 C1501 0.961 . S
H1509 C1501 0.960 . S
H1510 C1502 0.930 . S
H1511 C1503 0.929 . S
H1512 C1520 0.929 . S
H1513 C1522 0.930 . S
H1514 C1524 0.930 . S
H1515 C1527 0.929 . S
H1516 C1530 0.930 . S
H1517 C1532 0.960 . S
H1518 C1532 0.960 . S
H1519 C1532 0.960 . S
C1520 H1512 0.929 . S
C1520 C1521 1.377 . S
C1520 C1522 1.384 . S
C1521 C1520 1.377 . S
C1521 C1527 1.390 . S
C1522 H1513 0.930 . S
C1522 C1520 1.384 . S
C1522 C1523 1.372 . S
C1523 C1522 1.372 . S
C1523 C1524 1.400 . S
C1523 C1528 1.490 . S
C1524 H1514 0.930 . S
C1524 C1523 1.400 . S
C1524 C1527 1.386 . S
H1525 C1541 0.930 . S
H1526 C1542 0.931 . S
C1527 H1515 0.929 . S
C1527 C1521 1.390 . S
C1527 C1524 1.386 . S
C1528 C1523 1.490 . S
C1528 C1530 1.395 . S
C1528 C1531 1.403 . S
H1529 C1535 0.930 . S
C1530 H1516 0.930 . S
C1530 C1528 1.395 . S
C1530 C1533 1.403 . S
C1531 C1528 1.403 . S
C1531 C1532 1.524 . S
C1531 C1535 1.400 . S
C1532 H1517 0.960 . S
C1532 H1518 0.960 . S
C1532 H1519 0.960 . S
C1532 C1531 1.524 . S
C1533 C1530 1.403 . S
C1533 C1534 1.392 . S
C1533 C1537 1.495 . S
C1534 C1533 1.392 . S
C1534 C1535 1.385 . S
C1534 C1536 1.478 . S
C1535 H1529 0.930 . S
C1535 C1531 1.400 . S
C1535 C1534 1.385 . S
C1536 C1534 1.478 . S
C1536 C1538 1.381 . S
C1536 C1542 1.383 . S
C1537 C1533 1.495 . S
C1537 H1543 0.959 . S
C1537 H1544 0.961 . S
C1537 H1545 0.960 . S
C1538 C1536 1.381 . S
C1538 C1539 1.394 . S
C1538 H1546 0.930 . S
C1539 C1538 1.394 . S
C1539 C1540 1.383 . S
C1539 H1547 0.929 . S
C1540 C1539 1.383 . S
C1540 C1541 1.377 . S
C1541 H1525 0.930 . S
C1541 C1540 1.377 . S
C1541 C1542 1.379 . S
C1542 H1526 0.931 . S
C1542 C1536 1.383 . S
C1542 C1541 1.379 . S
H1543 C1537 0.959 . S
H1544 C1537 0.961 . S
H1545 C1537 0.960 . S
H1546 C1538 0.930 . S
H1547 C1539 0.929 . S
C261 C146 1.002 . S
C280 C6 0.997 . S
C297 C20 1.007 . S
C316 C160 0.987 . S
C333 C132 1.009 . S
C352 C34 0.998 . S
C369 C202 1.003 . S
C388 C48 0.992 . S
C405 C62 1.007 . S
C424 C174 0.988 . S
C441 C188 1.008 . S
C460 C76 0.991 . S
C477 C90 1.005 . S
C496 C230 1.021 . S
C513 C244 1.009 . S
C532 C104 1.013 . S
C549 C118 1.006 . S
C568 C216 0.985 . S
C585 C9 1.020 . S
C604 C22 1.044 . S
C621 C23 1.014 . S
C640 C36 1.056 . S
C657 C8 1.050 . S
C676 C37 1.056 . S
C693 C78 1.055 . S
C712 C51 1.026 . S
C729 C50 1.055 . S
C748 C65 0.980 . S
C765 C79 1.022 . S
C784 C64 1.042 . S
C801 C93 1.023 . S
C820 C106 1.040 . S
C837 C107 1.029 . S
C856 C120 1.038 . S
C873 C92 1.054 . S
C892 C121 1.037 . S
C909 C162 1.056 . S
C928 C135 0.994 . S
C945 C134 1.055 . S
C964 C149 1.015 . S
C981 C148 1.056 . S
C1000 C163 1.003 . S
C1017 C190 1.050 . S
C1036 C177 1.044 . S
C1053 C204 1.056 . S
C1072 C191 0.984 . S
C1089 C176 1.051 . S
C1108 C205 1.059 . S
C1125 C219 1.030 . S
C1144 C246 1.041 . S
C1161 C233 1.019 . S
C1180 C218 1.045 . S
C1197 C247 1.018 . S
C1216 C232 1.046 . S
C1233 C7 1.609 . S
C1252 C49 1.580 . S
C1269 C63 1.612 . S
C1288 C21 1.639 . S
C1305 C77 1.613 . S
C1324 C35 1.599 . S
C1341 C133 1.608 . S
C1360 C91 1.629 . S
C1377 C147 1.603 . S
C1396 C105 1.572 . S
C1413 C119 1.616 . S
C1432 C161 1.620 . S
C1449 C217 1.611 . S
C1468 C175 1.587 . S
C1485 C231 1.602 . S
C1504 C189 1.590 . S
C1521 C245 1.616 . S
C1540 C203 1.636 . S
