# Generated by pormake.
# Topology sxa, (6)-cn, num edge types: 1
# Building blocks:
#     Node 0, Type 0, BuildingBlock: OJICUG_clean_sbu_0, # of connection points: 6
#     Node 1, Type 0, BuildingBlock: OJICUG_clean_sbu_0, # of connection points: 6
#     Node 2, Type 0, BuildingBlock: OJICUG_clean_sbu_0, # of connection points: 6
#     Node 3, Type 0, BuildingBlock: OJICUG_clean_sbu_0, # of connection points: 6
#     Edge 4, Type (0, 0), BuildingBlock: MIFKUJ_clean_linker_0, # of connection points: 2
#     Edge 5, Type (0, 0), BuildingBlock: MIFKUJ_clean_linker_0, # of connection points: 2
#     Edge 6, Type (0, 0), BuildingBlock: MIFKUJ_clean_linker_0, # of connection points: 2
#     Edge 7, Type (0, 0), BuildingBlock: MIFKUJ_clean_linker_0, # of connection points: 2
#     Edge 8, Type (0, 0), BuildingBlock: MIFKUJ_clean_linker_0, # of connection points: 2
#     Edge 9, Type (0, 0), BuildingBlock: MIFKUJ_clean_linker_0, # of connection points: 2
#     Edge 10, Type (0, 0), BuildingBlock: MIFKUJ_clean_linker_0, # of connection points: 2
#     Edge 11, Type (0, 0), BuildingBlock: MIFKUJ_clean_linker_0, # of connection points: 2
#     Edge 12, Type (0, 0), BuildingBlock: MIFKUJ_clean_linker_0, # of connection points: 2
#     Edge 13, Type (0, 0), BuildingBlock: MIFKUJ_clean_linker_0, # of connection points: 2
#     Edge 14, Type (0, 0), BuildingBlock: MIFKUJ_clean_linker_0, # of connection points: 2
#     Edge 15, Type (0, 0), BuildingBlock: MIFKUJ_clean_linker_0, # of connection points: 2
# Relax obj value: 0.172
# Max RMSD: 0.251
# Mean RMSD: 0.251
data_MOF--net-sxa--node1-OJICUG_clean_sbu_0--edge1-MIFKUJ_clean_linker_0
_symmetry_space_group_name_H-M    P1
_symmetry_Int_Tables_number       1
_symmetry_cell_setting            triclinic
loop_
_symmetry_equiv_pos_as_xyz
'x, y, z'
_cell_length_a     31.888861
_cell_length_b     37.875702
_cell_length_c     23.146184
_cell_angle_alpha  90.119333
_cell_angle_beta   90.210994
_cell_angle_gamma 110.19468
loop_
_atom_site_label
_atom_site_type_symbol
_atom_site_fract_x
_atom_site_fract_y
_atom_site_fract_z
_atom_type_partial_charge
Sc0 Sc 0.0074 0.76494 0.13044 0.0
Sc1 Sc 0.0353 0.8105 0.26439 0.0
Sc2 Sc 0.97806 0.71438 0.25956 0.0
O3 O 0.00673 0.76325 0.2175 0.0
C4 C 0.90807 0.71229 0.16141 0.0
C5 C 0.00175 0.84514 0.15459 0.0
C6 C 0.94788 0.77276 0.33354 0.0
C7 C 0.10668 0.81439 0.16864 0.0
C8 C 0.01594 0.68464 0.14857 0.0
C9 C 0.06196 0.75034 0.33689 0.0
O10 O 0.93799 0.73109 0.12616 0.0
O11 O 0.02081 0.84778 0.20345 0.0
O12 O 0.95322 0.74117 0.32716 0.0
O13 O 0.07698 0.79885 0.13063 0.0
O14 O 0.99725 0.68016 0.19769 0.0
O15 O 0.05601 0.78173 0.33295 0.0
O16 O 0.02572 0.71535 0.12089 0.0
O17 O 0.09811 0.81823 0.22165 0.0
O18 O 0.03955 0.72188 0.3067 0.0
O19 O 0.98904 0.81471 0.12569 0.0
O20 O 0.91602 0.7057 0.21359 0.0
O21 O 0.97257 0.80252 0.30811 0.0
Sc22 Sc 0.47864 0.25959 0.13045 0.0
Sc23 Sc 0.51913 0.31019 0.25771 0.0
Sc24 Sc 0.45949 0.21366 0.26516 0.0
O25 O 0.48576 0.26105 0.21738 0.0
C26 C 0.38206 0.20986 0.17549 0.0
C27 C 0.47585 0.34136 0.15315 0.0
C28 C 0.43804 0.27571 0.34154 0.0
C29 C 0.58102 0.30935 0.15105 0.0
C30 C 0.48686 0.17909 0.15079 0.0
C31 C 0.55151 0.2518 0.32879 0.0
O32 O 0.40912 0.22823 0.13701 0.0
O33 O 0.49709 0.34503 0.20051 0.0
O34 O 0.43986 0.243 0.33399 0.0
O35 O 0.54803 0.29076 0.1194 0.0
O36 O 0.47416 0.17685 0.20305 0.0
O37 O 0.54854 0.284 0.32051 0.0
O38 O 0.49295 0.20835 0.12056 0.0
O39 O 0.57728 0.31736 0.204 0.0
O40 O 0.52358 0.2218 0.30721 0.0
O41 O 0.46306 0.31066 0.12497 0.0
O42 O 0.39397 0.20351 0.22605 0.0
O43 O 0.46171 0.30417 0.31249 0.0
Sc44 Sc 0.00503 0.26275 0.88018 0.0
Sc45 Sc 0.96564 0.21095 0.75362 0.0
Sc46 Sc 0.02536 0.30728 0.7448 0.0
O47 O 0.99851 0.2604 0.79326 0.0
C48 C 0.99715 0.34278 0.85797 0.0
C49 C 0.90335 0.21091 0.85994 0.0
C50 C 0.9331 0.26915 0.68205 0.0
C51 C 0.01053 0.18177 0.8587 0.0
C52 C 0.10188 0.31197 0.83552 0.0
C53 C 0.04639 0.24499 0.66923 0.0
O54 O 0.98847 0.31316 0.88819 0.0
O55 O 0.90713 0.20326 0.80687 0.0
O56 O 0.96109 0.29927 0.70334 0.0
O57 O 0.02294 0.21277 0.88619 0.0
O58 O 0.09071 0.31641 0.78371 0.0
O59 O 0.02324 0.21684 0.69923 0.0
O60 O 0.07412 0.29556 0.87454 0.0
O61 O 0.98848 0.17712 0.81184 0.0
O62 O 0.04395 0.27755 0.67571 0.0
O63 O 0.93618 0.23004 0.89134 0.0
O64 O 0.01207 0.34485 0.80678 0.0
O65 O 0.93613 0.23694 0.69046 0.0
Sc66 Sc 0.5073 0.76436 0.88164 0.0
Sc67 Sc 0.47933 0.71842 0.74793 0.0
Sc68 Sc 0.53565 0.81485 0.75224 0.0
O69 O 0.50763 0.7659 0.79452 0.0
C70 C 0.49712 0.84408 0.86308 0.0
C71 C 0.4081 0.71434 0.84427 0.0
C72 C 0.45169 0.77802 0.67506 0.0
C73 C 0.51392 0.68444 0.85763 0.0
C74 C 0.60622 0.81753 0.85017 0.0
C75 C 0.5665 0.75676 0.67818 0.0
O76 O 0.48864 0.81366 0.89116 0.0
O77 O 0.41658 0.71017 0.79132 0.0
O78 O 0.47417 0.8067 0.70476 0.0
O79 O 0.5259 0.71481 0.88662 0.0
O80 O 0.59788 0.82434 0.79826 0.0
O81 O 0.54186 0.72689 0.7034 0.0
O82 O 0.57662 0.79835 0.88547 0.0
O83 O 0.495 0.68159 0.80864 0.0
O84 O 0.56126 0.78835 0.68506 0.0
O85 O 0.43784 0.73029 0.88199 0.0
O86 O 0.51537 0.84873 0.81367 0.0
O87 O 0.45751 0.74662 0.67964 0.0
H88 H 0.01367 0.41221 0.80885 0.0
H89 H 0.01758 0.47067 0.85728 0.0
H90 H 0.9766 0.41049 0.01702 0.0
H91 H 0.97286 0.35191 0.96921 0.0
H92 H 0.95907 0.4956 0.91605 0.0
H93 H 0.03742 0.46504 0.1276 0.0
H94 H 0.08338 0.42811 0.16034 0.0
H95 H 0.13945 0.43443 0.99066 0.0
H96 H 0.0944 0.47189 0.95719 0.0
H97 H 0.00218 0.615 0.195 0.0
H98 H 0.00084 0.558 0.14442 0.0
H99 H 0.04169 0.6213 0.98727 0.0
H100 H 0.04258 0.67842 0.03725 0.0
H101 H 0.06071 0.53541 0.08535 0.0
H102 H 0.98386 0.56713 0.87428 0.0
H103 H 0.93858 0.60466 0.84157 0.0
H104 H 0.88004 0.59631 0.01002 0.0
H105 H 0.92439 0.55825 0.04343 0.0
C106 C 0.00497 0.41122 0.85415 0.0
C107 C 0.99352 0.37727 0.8852 0.0
C108 C 0.00717 0.44475 0.88175 0.0
C109 C 0.99824 0.44514 0.94103 0.0
C110 C 0.98448 0.41102 0.97147 0.0
C111 C 0.98218 0.37747 0.94392 0.0
C112 C 0.00519 0.4814 0.97154 0.0
C113 C 0.98171 0.50451 0.9526 0.0
C114 C 0.03426 0.49286 0.01982 0.0
C115 C 0.06213 0.47091 0.03978 0.0
C116 C 0.05969 0.45868 0.09736 0.0
C117 C 0.08558 0.43764 0.11604 0.0
C118 C 0.1142 0.42882 0.07756 0.0
C119 C 0.11715 0.44116 0.02038 0.0
C120 C 0.09142 0.46227 1.00152 0.0
C121 C 0.01147 0.61703 0.14984 0.0
C122 C 0.02206 0.65143 0.12018 0.0
C123 C 0.01075 0.58432 0.12099 0.0
C124 C 0.02035 0.58517 0.06179 0.0
C125 C 0.03338 0.61981 0.03275 0.0
C126 C 0.03417 0.65257 0.06158 0.0
C127 C 0.01445 0.54953 0.03003 0.0
C128 C 0.03813 0.52653 0.04873 0.0
C129 C 0.9856 0.53819 0.98152 0.0
C130 C 0.95784 0.5602 0.96147 0.0
C131 C 0.96116 0.57316 0.90423 0.0
C132 C 0.93567 0.59453 0.88559 0.0
C133 C 0.90657 0.60298 0.92375 0.0
C134 C 0.9027 0.58987 0.98056 0.0
C135 C 0.92802 0.56841 0.99937 0.0
H136 H 0.88696 0.61961 0.90927 0.0
H137 H 0.13415 0.41249 0.09208 0.0
H138 H 0.50553 0.41322 0.19607 0.0
H139 H 0.51001 0.47075 0.14574 0.0
H140 H 0.44088 0.40561 0.99924 0.0
H141 H 0.43703 0.34758 0.04893 0.0
H142 H 0.5159 0.46098 0.96644 0.0
H143 H 0.39311 0.4512 0.08946 0.0
H144 H 0.35146 0.44479 0.18061 0.0
H145 H 0.4469 0.54859 0.24225 0.0
H146 H 0.48932 0.55533 0.15161 0.0
H147 H 0.48445 0.61272 0.8138 0.0
H148 H 0.47819 0.55473 0.86419 0.0
H149 H 0.54306 0.61881 0.01377 0.0
H150 H 0.54877 0.67708 0.96399 0.0
H151 H 0.46945 0.56372 0.04471 0.0
H152 H 0.59552 0.57226 0.928 0.0
H153 H 0.63921 0.57967 0.83836 0.0
H154 H 0.54161 0.47978 0.76831 0.0
H155 H 0.49697 0.47205 0.85727 0.0
C156 C 0.49052 0.41089 0.15354 0.0
C157 C 0.47116 0.37557 0.12654 0.0
C158 C 0.49311 0.44397 0.12478 0.0
C159 C 0.47589 0.44261 0.0686 0.0
C160 C 0.45471 0.40738 0.04242 0.0
C161 C 0.45226 0.37418 0.07111 0.0
C162 C 0.48246 0.47801 0.03614 0.0
C163 C 0.50504 0.48319 0.98311 0.0
C164 C 0.46981 0.50761 0.0589 0.0
C165 C 0.44447 0.50361 0.1137 0.0
C166 C 0.40527 0.47254 0.12252 0.0
C167 C 0.38153 0.46887 0.17412 0.0
C168 C 0.39655 0.49625 0.21725 0.0
C169 C 0.43531 0.52738 0.2088 0.0
C170 C 0.45918 0.53115 0.15726 0.0
C171 C 0.49815 0.61468 0.85706 0.0
C172 C 0.51698 0.6498 0.88479 0.0
C173 C 0.49457 0.58135 0.88585 0.0
C174 C 0.51018 0.58229 0.94284 0.0
C175 C 0.53055 0.61732 0.96991 0.0
C176 C 0.53404 0.65071 0.94119 0.0
C177 C 0.50297 0.5467 0.97513 0.0
C178 C 0.48028 0.54149 0.02808 0.0
C179 C 0.51596 0.51724 0.9527 0.0
C180 C 0.54267 0.52179 0.8991 0.0
C181 C 0.58317 0.55205 0.89329 0.0
C182 C 0.60814 0.55627 0.84264 0.0
C183 C 0.59313 0.53027 0.79761 0.0
C184 C 0.55316 0.49993 0.8032 0.0
C185 C 0.52803 0.49559 0.85375 0.0
H186 H 0.61253 0.53358 0.75843 0.0
H187 H 0.37814 0.49338 0.25719 0.0
H188 H 0.47664 0.85162 0.97643 0.0
H189 H 0.4732 0.9078 0.02468 0.0
H190 H 0.49702 0.96697 0.86228 0.0
H191 H 0.50135 0.911 0.81379 0.0
H192 H 0.54978 1.00878 0.94145 0.0
H193 H 0.39356 0.93885 0.93044 0.0
H194 H 0.32457 0.88407 0.94276 0.0
H195 H 0.34489 0.88894 0.12645 0.0
H196 H 0.41443 0.94348 0.11524 0.0
H197 H 0.50269 0.16953 0.03654 0.0
H198 H 0.50367 0.1125 0.98861 0.0
H199 H 0.48352 0.05499 0.15234 0.0
H200 H 0.48132 0.11182 0.20066 0.0
H201 H 0.4288 1.01226 0.07288 0.0
H202 H 0.58706 0.08405 0.08023 0.0
H203 H 0.65475 0.13935 0.06355 0.0
H204 H 0.62756 0.13203 0.88126 0.0
H205 H 0.55969 0.07669 0.89681 0.0
C206 C 0.48033 0.87628 0.95064 0.0
C207 C 0.48925 0.87661 0.89108 0.0
C208 C 0.47835 0.90851 0.97841 0.0
C209 C 0.48465 0.94171 0.94718 0.0
C210 C 0.49223 0.9418 0.88743 0.0
C211 C 0.4945 0.90965 0.85968 0.0
C212 C 0.48563 0.97684 0.97721 0.0
C213 C 0.52299 1.00962 0.96956 0.0
C214 C 0.45121 0.97788 0.01495 0.0
C215 C 0.40943 0.94508 0.02193 0.0
C216 C 0.38354 0.92807 0.97343 0.0
C217 C 0.34432 0.8971 0.98022 0.0
C218 C 0.33044 0.88307 0.03532 0.0
C219 C 0.35575 0.89989 0.08379 0.0
C220 C 0.39505 0.93085 0.07726 0.0
C221 C 0.49888 0.14492 0.06263 0.0
C222 C 0.49177 0.14537 0.1226 0.0
C223 C 0.49963 0.11227 0.03506 0.0
C224 C 0.49403 0.0794 0.06682 0.0
C225 C 0.48783 0.07994 0.12684 0.0
C226 C 0.48675 0.11255 0.15446 0.0
C227 C 0.49298 0.04416 0.03712 0.0
C228 C 0.45561 1.01135 0.04488 0.0
C229 C 0.52719 0.04316 0.99898 0.0
C230 C 0.56811 0.07639 0.98975 0.0
C231 C 0.59538 0.09437 0.03663 0.0
C232 C 0.6338 0.12572 0.02736 0.0
C233 C 0.64529 0.13931 0.9714 0.0
C234 C 0.61856 0.12149 0.92457 0.0
C235 C 0.5802 0.09008 0.93357 0.0
H236 H 0.67495 0.16354 0.96411 0.0
H237 H 0.29999 0.85931 0.04046 0.0
H238 H 0.04233 0.91775 0.19118 0.0
H239 H 0.0464 0.97527 0.14113 0.0
H240 H 0.95952 0.90984 0.00705 0.0
H241 H 0.95629 0.85187 0.05627 0.0
H242 H 0.02764 0.96199 0.96029 0.0
H243 H 0.92466 0.96206 0.1108 0.0
H244 H 0.89776 0.95926 0.21102 0.0
H245 H 0.00954 0.05797 0.25419 0.0
H246 H 0.03746 0.06107 0.15436 0.0
H247 H 0.97444 0.10838 0.82417 0.0
H248 H 0.97671 0.05282 0.87443 0.0
H249 H 0.0643 0.12312 1.00369 0.0
H250 H 0.0612 0.17924 0.95427 0.0
H251 H 2e-05 0.06976 0.05382 0.0
H252 H 0.09732 0.07264 0.89694 0.0
H253 H 0.1221 0.07448 0.79604 0.0
H254 H 0.01743 0.96924 0.76197 0.0
H255 H 0.99177 0.96695 0.86266 0.0
C256 C 0.02344 0.91544 0.15151 0.0
C257 C 0.99894 0.87997 0.12784 0.0
C258 C 0.02579 0.94853 0.12288 0.0
C259 C 0.00302 0.94709 0.0704 0.0
C260 C 0.97753 0.91177 0.04738 0.0
C261 C 0.97552 0.87858 0.07575 0.0
C262 C 0.00733 0.98233 0.03844 0.0
C263 C 0.0209 0.98535 0.98044 0.0
C264 C 7e-05 0.01338 0.06521 0.0
C265 C 0.98337 1.01157 0.12526 0.0
C266 C 0.94369 0.98299 0.14179 0.0
C267 C 0.92823 0.98138 0.1985 0.0
C268 C 0.95199 1.00836 0.23899 0.0
C269 C 0.99121 0.03706 0.2228 0.0
C270 C 0.00685 0.03878 0.16615 0.0
C271 C 0.99489 0.11224 0.86274 0.0
C272 C 0.0176 0.14847 0.88511 0.0
C273 C 0.99625 0.08026 0.89144 0.0
C274 C 0.02109 0.08359 0.94263 0.0
C275 C 0.04497 0.11973 0.96421 0.0
C276 C 0.04329 0.15185 0.93576 0.0
C277 C 0.01971 0.0493 0.97526 0.0
C278 C 0.00687 0.04649 0.03353 0.0
C279 C 0.02725 0.01832 0.94844 0.0
C280 C 0.04261 0.01969 0.88761 0.0
C281 C 0.07955 0.04992 0.86803 0.0
C282 C 0.09373 0.05105 0.81078 0.0
C283 C 0.07136 0.02199 0.77259 0.0
C284 C 0.03477 0.99173 0.79161 0.0
C285 C 0.02044 0.99049 0.84883 0.0
H286 H 0.08237 0.02292 0.72827 0.0
H287 H 0.93995 1.00707 0.28287 0.0
H288 H 0.40765 0.82921 0.67333 0.0
H289 H 0.34111 0.825 0.61591 0.0
H290 H 0.34636 0.72455 0.53282 0.0
H291 H 0.4127 0.72896 0.58848 0.0
H292 H 0.32684 0.7673 0.45636 0.0
H293 H 0.27365 0.72105 0.64648 0.0
H294 H 0.26559 0.72299 0.75225 0.0
H295 H 0.2221 0.81792 0.73621 0.0
H296 H 0.23009 0.81665 0.63029 0.0
H297 H 0.1061 0.6992 0.33782 0.0
H298 H 0.17259 0.70316 0.39517 0.0
H299 H 0.16706 0.8031 0.47964 0.0
H300 H 0.10076 0.7989 0.42411 0.0
H301 H 0.1867 0.76045 0.55548 0.0
H302 H 0.24033 0.80719 0.36578 0.0
H303 H 0.24916 0.80596 0.26007 0.0
H304 H 0.2921 0.71068 0.27525 0.0
H305 H 0.2834 0.71128 0.38112 0.0
C306 C 0.39503 0.80666 0.64205 0.0
C307 C 0.41541 0.77935 0.63575 0.0
C308 C 0.35673 0.80403 0.60974 0.0
C309 C 0.33825 0.77404 0.57073 0.0
C310 C 0.35978 0.74782 0.56274 0.0
C311 C 0.39778 0.75039 0.59481 0.0
C312 C 0.29617 0.7692 0.53852 0.0
C313 C 0.29607 0.76541 0.47813 0.0
C314 C 0.25616 0.76737 0.56671 0.0
C315 C 0.25293 0.76899 0.63052 0.0
C316 C 0.26288 0.74261 0.66556 0.0
C317 C 0.25819 0.74353 0.72554 0.0
C318 C 0.24347 0.77064 0.75096 0.0
C319 C 0.23355 0.79697 0.71647 0.0
C320 C 0.23809 0.79613 0.65647 0.0
C321 C 0.11864 0.72157 0.36938 0.0
C322 C 0.09819 0.7488 0.37612 0.0
C323 C 0.15692 0.72407 0.40166 0.0
C324 C 0.17532 0.75385 0.44104 0.0
C325 C 0.15372 0.77998 0.44944 0.0
C326 C 0.11572 0.77753 0.41743 0.0
C327 C 0.21737 0.75857 0.47328 0.0
C328 C 0.21747 0.76233 0.53369 0.0
C329 C 0.25739 0.76041 0.44511 0.0
C330 C 0.26075 0.75904 0.3813 0.0
C331 C 0.25112 0.78569 0.34651 0.0
C332 C 0.25624 0.78518 0.28657 0.0
C333 C 0.27105 0.75818 0.26093 0.0
C334 C 0.28059 0.73154 0.29516 0.0
C335 C 0.27563 0.73199 0.35512 0.0
H336 H 0.27545 0.75801 0.21461 0.0
H337 H 0.23945 0.77114 0.79732 0.0
H338 H 0.08017 0.28927 0.57626 0.0
H339 H 0.14607 0.2931 0.52035 0.0
H340 H 0.15824 0.19886 0.6143 0.0
H341 H 0.09202 0.19514 0.67144 0.0
H342 H 0.23661 0.25737 0.61235 0.0
H343 H 0.12822 0.19067 0.47147 0.0
H344 H 0.06175 0.17752 0.40899 0.0
H345 H 0.12219 0.2833 0.32323 0.0
H346 H 0.18881 0.29735 0.38577 0.0
H347 H 0.40403 0.23099 0.43398 0.0
H348 H 0.33817 0.22713 0.49009 0.0
H349 H 0.32654 0.32199 0.39731 0.0
H350 H 0.39275 0.32579 0.34011 0.0
H351 H 0.24793 0.26314 0.39865 0.0
H352 H 0.35632 0.32982 0.53951 0.0
H353 H 0.42285 0.34291 0.60186 0.0
H354 H 0.36243 0.23711 0.68756 0.0
H355 H 0.29576 0.22311 0.62513 0.0
C356 C 0.09627 0.26881 0.5844 0.0
C357 C 0.08077 0.24186 0.6284 0.0
C358 C 0.13398 0.271 0.55217 0.0
C359 C 0.15718 0.24623 0.56287 0.0
C360 C 0.14087 0.21828 0.60525 0.0
C361 C 0.10277 0.21592 0.63748 0.0
C362 C 0.20001 0.25148 0.53242 0.0
C363 C 0.23894 0.25795 0.56559 0.0
C364 C 0.20341 0.25356 0.47141 0.0
C365 C 0.16336 0.24521 0.43371 0.0
C366 C 0.1272 0.21128 0.43963 0.0
C367 C 0.08952 0.20363 0.40413 0.0
C368 C 0.0877 0.2296 0.36226 0.0
C369 C 0.12362 0.26323 0.35572 0.0
C370 C 0.16137 0.27103 0.39115 0.0
C371 C 0.38806 0.25157 0.42617 0.0
C372 C 0.4037 0.27873 0.3825 0.0
C373 C 0.35037 0.24936 0.45849 0.0
C374 C 0.32734 0.27429 0.44814 0.0
C375 C 0.34379 0.30244 0.40609 0.0
C376 C 0.38188 0.30484 0.37382 0.0
C377 C 0.28451 0.26903 0.47857 0.0
C378 C 0.24559 0.26256 0.44541 0.0
C379 C 0.28112 0.26694 0.53957 0.0
C380 C 0.32118 0.27527 0.57724 0.0
C381 C 0.35736 0.30919 0.57131 0.0
C382 C 0.39507 0.31681 0.60674 0.0
C383 C 0.39691 0.29082 0.64855 0.0
C384 C 0.36098 0.2572 0.65511 0.0
C385 C 0.3232 0.24942 0.61975 0.0
H386 H 0.42614 0.29677 0.67594 0.0
H387 H 0.0585 0.22362 0.33482 0.0
H388 H 0.85454 0.21178 0.66749 0.0
H389 H 0.79076 0.20958 0.60827 0.0
H390 H 0.85732 0.32514 0.55875 0.0
H391 H 0.92182 0.32787 0.61993 0.0
H392 H 0.76996 0.31131 0.57855 0.0
H393 H 0.85223 0.25089 0.46679 0.0
H394 H 0.89117 0.20592 0.44866 0.0
H395 H 0.76985 0.11358 0.48071 0.0
H396 H 0.73031 0.15803 0.49981 0.0
H397 H 0.63013 0.30905 0.34356 0.0
H398 H 0.69376 0.31111 0.40294 0.0
H399 H 0.62692 0.19554 0.45222 0.0
H400 H 0.56255 0.19295 0.39086 0.0
H401 H 0.71432 0.20929 0.43268 0.0
H402 H 0.63202 0.2697 0.54429 0.0
H403 H 0.59308 0.31468 0.56244 0.0
H404 H 0.71445 0.40702 0.5307 0.0
H405 H 0.75399 0.36257 0.51158 0.0
C406 C 0.85597 0.23686 0.64395 0.0
C407 C 0.89385 0.26987 0.64768 0.0
C408 C 0.8193 0.23545 0.60986 0.0
C409 C 0.81955 0.26679 0.57758 0.0
C410 C 0.85652 0.3004 0.58276 0.0
C411 C 0.89337 0.30198 0.61767 0.0
C412 C 0.78104 0.26393 0.53868 0.0
C413 C 0.75828 0.28938 0.54603 0.0
C414 C 0.7648 0.23462 0.49725 0.0
C415 C 0.7884 0.20782 0.48517 0.0
C416 C 0.83392 0.221 0.47031 0.0
C417 C 0.85609 0.1956 0.45982 0.0
C418 C 0.83302 0.15692 0.46364 0.0
C419 C 0.78769 0.14356 0.4778 0.0
C420 C 0.76537 0.16884 0.48839 0.0
C421 C 0.6286 0.28394 0.36708 0.0
C422 C 0.59068 0.25097 0.36323 0.0
C423 C 0.66519 0.28526 0.40127 0.0
C424 C 0.66481 0.25389 0.43353 0.0
C425 C 0.6278 0.22031 0.42824 0.0
C426 C 0.59103 0.21881 0.39321 0.0
C427 C 0.70325 0.25667 0.47253 0.0
C428 C 0.726 0.23122 0.4652 0.0
C429 C 0.71948 0.28598 0.51399 0.0
C430 C 0.69588 0.31278 0.52607 0.0
C431 C 0.65034 0.29959 0.54084 0.0
C432 C 0.62817 0.32499 0.55135 0.0
C433 C 0.65126 0.36368 0.54762 0.0
C434 C 0.6966 0.37704 0.53354 0.0
C435 C 0.71892 0.35176 0.52293 0.0
H436 H 0.63402 0.3833 0.55573 0.0
H437 H 0.85026 0.1373 0.45554 0.0
H438 H 0.87921 0.71226 0.37182 0.0
H439 H 0.81524 0.7112 0.42911 0.0
H440 H 0.86477 0.83238 0.43658 0.0
H441 H 0.92976 0.83391 0.37804 0.0
H442 H 0.83359 0.79472 0.54584 0.0
H443 H 0.78244 0.79553 0.35163 0.0
H444 H 0.77063 0.77528 0.24984 0.0
H445 H 0.69097 0.66371 0.30266 0.0
H446 H 0.70269 0.68325 0.40499 0.0
H447 H 0.63504 0.8174 0.63992 0.0
H448 H 0.69895 0.81863 0.58238 0.0
H449 H 0.64955 0.69747 0.57432 0.0
H450 H 0.58462 0.69576 0.63311 0.0
H451 H 0.68066 0.73523 0.46524 0.0
H452 H 0.73202 0.73419 0.65927 0.0
H453 H 0.74398 0.7542 0.76115 0.0
H454 H 0.82324 0.86599 0.70876 0.0
H455 H 0.81141 0.84666 0.60634 0.0
C456 C 0.877 0.73889 0.3857 0.0
C457 C 0.90995 0.77327 0.3703 0.0
C458 C 0.8401 0.73812 0.41834 0.0
C459 C 0.83507 0.77165 0.43675 0.0
C460 C 0.86809 0.80616 0.42263 0.0
C461 C 0.90509 0.807 0.38913 0.0
C462 C 0.79488 0.76995 0.47038 0.0
C463 C 0.80018 0.78233 0.52797 0.0
C464 C 0.75127 0.75267 0.44749 0.0
C465 C 0.74379 0.74078 0.38602 0.0
C466 C 0.7627 0.76659 0.34158 0.0
C467 C 0.75597 0.75525 0.28376 0.0
C468 C 0.73021 0.71818 0.26974 0.0
C469 C 0.71097 0.69241 0.31357 0.0
C470 C 0.71757 0.70363 0.37151 0.0
C471 C 0.63727 0.79082 0.62586 0.0
C472 C 0.60438 0.75638 0.64118 0.0
C473 C 0.67414 0.79168 0.59307 0.0
C474 C 0.67919 0.75821 0.57442 0.0
C475 C 0.64622 0.72365 0.58844 0.0
C476 C 0.60925 0.72271 0.62209 0.0
C477 C 0.71938 0.76 0.54071 0.0
C478 C 0.71407 0.74763 0.48311 0.0
C479 C 0.76298 0.77728 0.56359 0.0
C480 C 0.77048 0.78905 0.6251 0.0
C481 C 0.75171 0.76312 0.66943 0.0
C482 C 0.75852 0.77433 0.72731 0.0
C483 C 0.7842 0.8114 0.74147 0.0
C484 C 0.80329 0.83729 0.69773 0.0
C485 C 0.79662 0.8262 0.63975 0.0
H486 H 0.78943 0.82003 0.78632 0.0
H487 H 0.72504 0.70945 0.22493 0.0
H488 H 0.3542 0.74844 0.7997 0.0
H489 H 0.30026 0.7655 0.85754 0.0
H490 H 0.30606 0.68659 0.98878 0.0
H491 H 0.36248 0.67141 0.93257 0.0
H492 H 0.2225 0.73871 0.91233 0.0
H493 H 0.31855 0.73142 0.12154 0.0
H494 H 0.3915 0.72816 0.15114 0.0
H495 H 0.45079 0.78419 0.99528 0.0
H496 H 0.37864 0.78918 0.9656 0.0
H497 H 0.16016 0.77984 0.21302 0.0
H498 H 0.21416 0.76286 0.15519 0.0
H499 H 0.20933 0.84258 0.02478 0.0
H500 H 0.15279 0.85767 0.0809 0.0
H501 H 0.2924 0.79022 0.10067 0.0
H502 H 0.19755 0.79848 0.89162 0.0
H503 H 0.12513 0.80264 0.8615 0.0
H504 H 0.06426 0.74598 0.01624 0.0
H505 H 0.1359 0.74022 0.0465 0.0
C506 C 0.34209 0.73324 0.83938 0.0
C507 C 0.36233 0.70873 0.86199 0.0
C508 C 0.31149 0.74322 0.87264 0.0
C509 C 0.30023 0.72812 0.92812 0.0
C510 C 0.31524 0.69924 0.94665 0.0
C511 C 0.34681 0.69006 0.91415 0.0
C512 C 0.27857 0.74642 0.96911 0.0
C513 C 0.23789 0.75019 0.95332 0.0
C514 C 0.29876 0.76134 0.02274 0.0
C515 C 0.34294 0.7601 0.04096 0.0
C516 C 0.34724 0.74334 0.09377 0.0
C517 C 0.38848 0.7413 0.11062 0.0
C518 C 0.42573 0.75595 0.07502 0.0
C519 C 0.42191 0.77301 0.02278 0.0
C520 C 0.38087 0.77551 0.00598 0.0
C521 C 0.17248 0.79521 0.17353 0.0
C522 C 0.15244 0.8199 0.15105 0.0
C523 C 0.20312 0.78529 0.14029 0.0
C524 C 0.21463 0.80063 0.08501 0.0
C525 C 0.19989 0.82971 0.06672 0.0
C526 C 0.16826 0.83883 0.09917 0.0
C527 C 0.23628 0.78238 0.04397 0.0
C528 C 0.27697 0.77864 0.05974 0.0
C529 C 0.21621 0.76767 0.9902 0.0
C530 C 0.17232 0.76942 0.97167 0.0
C531 C 0.16863 0.78662 0.91903 0.0
C532 C 0.12769 0.78917 0.9019 0.0
C533 C 0.09014 0.77459 0.93702 0.0
C534 C 0.09337 0.75713 0.98911 0.0
C535 C 0.13412 0.75415 0.00622 0.0
H536 H 0.05853 0.77679 0.92387 0.0
H537 H 0.45757 0.75412 0.08794 0.0
H538 H 0.14729 0.35567 0.92292 0.0
H539 H 0.19895 0.33738 0.98285 0.0
H540 H 0.21092 0.26237 0.84833 0.0
H541 H 0.15794 0.28019 0.78873 0.0
H542 H 0.17699 0.22422 0.94227 0.0
H543 H 0.30887 0.33365 0.90882 0.0
H544 H 0.35136 0.40157 0.89954 0.0
H545 H 0.31293 0.4205 0.07127 0.0
H546 H 0.27127 0.35269 0.082 0.0
H547 H 0.33721 0.16606 0.08788 0.0
H548 H 0.28136 0.1813 0.03149 0.0
H549 H 0.26725 0.25327 0.16927 0.0
H550 H 0.32398 0.23825 0.22553 0.0
H551 H 0.30075 0.29253 0.07521 0.0
H552 H 0.16952 0.18325 0.10933 0.0
H553 H 0.12769 0.11526 0.11951 0.0
H554 H 0.16566 0.09582 0.94787 0.0
H555 H 0.20632 0.16374 0.93598 0.0
C556 C 0.16335 0.33726 0.90458 0.0
C557 C 0.14861 0.31921 0.85145 0.0
C558 C 0.19269 0.32648 0.93917 0.0
C559 C 0.20837 0.29799 0.92055 0.0
C560 C 0.19889 0.28415 0.86378 0.0
C561 C 0.16931 0.29491 0.82918 0.0
C562 C 0.22665 0.27803 0.96356 0.0
C563 C 0.20469 0.23908 0.97059 0.0
C564 C 0.26134 0.29748 1.00227 0.0
C565 C 0.28685 0.33819 0.99609 0.0
C566 C 0.30958 0.35235 0.94457 0.0
C567 C 0.33373 0.3908 0.93918 0.0
C568 C 0.33506 0.41535 0.98487 0.0
C569 C 0.31233 0.40147 0.0361 0.0
C570 C 0.2887 0.36301 0.04201 0.0
C571 C 0.31989 0.18304 0.10773 0.0
C572 C 0.33485 0.20111 0.16077 0.0
C573 C 0.28805 0.19199 0.07526 0.0
C574 C 0.27055 0.21892 0.09573 0.0
C575 C 0.28056 0.23259 0.15252 0.0
C576 C 0.31247 0.22354 0.18509 0.0
C577 C 0.25119 0.23874 0.05386 0.0
C578 C 0.27298 0.27767 0.04699 0.0
C579 C 0.21637 0.21926 0.01537 0.0
C580 C 0.19105 0.17851 0.02186 0.0
C581 C 0.16877 0.16444 0.07371 0.0
C582 C 0.14503 0.12594 0.07965 0.0
C583 C 0.14372 0.10123 0.0342 0.0
C584 C 0.16603 0.115 0.98269 0.0
C585 C 0.18918 0.15352 0.97618 0.0
H586 H 0.12544 0.07143 0.0389 0.0
H587 H 0.35366 0.44511 0.98058 0.0
H588 H 0.60444 0.32439 0.03929 0.0
H589 H 0.66322 0.30868 0.99105 0.0
H590 H 0.717 0.29287 0.15651 0.0
H591 H 0.65647 0.30699 0.20523 0.0
H592 H 0.74798 0.32404 0.9805 0.0
H593 H 0.74267 0.2119 0.15057 0.0
H594 H 0.69496 0.17746 0.23044 0.0
H595 H 0.58007 0.1895 0.14781 0.0
H596 H 0.6266 0.22284 0.06663 0.0
H597 H 0.88114 0.19432 0.97162 0.0
H598 H 0.82273 0.20941 0.02184 0.0
H599 H 0.76628 0.22514 0.85825 0.0
H600 H 0.82661 0.21192 0.80753 0.0
H601 H 0.7384 0.19481 0.03501 0.0
H602 H 0.74125 0.3052 0.86432 0.0
H603 H 0.78714 0.33745 0.78161 0.0
H604 H 0.90373 0.32696 0.86185 0.0
H605 H 0.85897 0.29566 0.94568 0.0
C606 C 0.62973 0.31888 0.0655 0.0
C607 C 0.62535 0.31595 0.12585 0.0
C608 C 0.66337 0.30988 0.03783 0.0
C609 C 0.69342 0.29815 0.07012 0.0
C610 C 0.69321 0.30076 0.13078 0.0
C611 C 0.65905 0.30938 0.15864 0.0
C612 C 0.71991 0.27839 0.04005 0.0
C613 C 0.74562 0.29569 0.99221 0.0
C614 C 0.717 0.24139 0.05535 0.0
C615 C 0.68828 0.22038 0.10304 0.0
C616 C 0.70713 0.20696 0.14932 0.0
C617 C 0.68024 0.18753 0.19471 0.0
C618 C 0.63442 0.18127 0.19418 0.0
C619 C 0.6154 0.1942 0.14804 0.0
C620 C 0.64201 0.21335 0.10232 0.0
C621 C 0.85534 0.19966 0.94624 0.0
C622 C 0.85903 0.20308 0.88586 0.0
C623 C 0.8219 0.2083 0.97505 0.0
C624 C 0.79138 0.22004 0.94383 0.0
C625 C 0.79058 0.2174 0.88314 0.0
C626 C 0.82462 0.20927 0.85413 0.0
C627 C 0.76574 0.24016 0.97485 0.0
C628 C 0.74058 0.2231 0.02318 0.0
C629 C 0.76877 0.2772 0.95962 0.0
C630 C 0.79664 0.29774 0.91092 0.0
C631 C 0.7768 0.31013 0.86452 0.0
C632 C 0.80265 0.32827 0.81748 0.0
C633 C 0.8484 0.33428 0.81649 0.0
C634 C 0.86844 0.32246 0.86278 0.0
C635 C 0.84286 0.30458 0.91011 0.0
H636 H 0.86833 0.34807 0.77987 0.0
H637 H 0.61366 0.16643 0.2295 0.0
H638 H 0.86676 0.67297 0.06705 0.0
H639 H 0.80921 0.68783 0.01243 0.0
H640 H 0.79355 0.75611 0.15449 0.0
H641 H 0.8488 0.73922 0.21044 0.0
H642 H 0.71937 0.73207 0.0936 0.0
H643 H 0.87753 0.7893 0.05069 0.0
H644 H 0.95113 0.78741 0.02149 0.0
H645 H 0.89607 0.7375 0.85914 0.0
H646 H 0.82191 0.7382 0.88776 0.0
H647 H 0.64828 0.85688 0.94413 0.0
H648 H 0.70577 0.84156 0.99815 0.0
H649 H 0.72019 0.77316 0.85556 0.0
H650 H 0.66504 0.79053 0.80017 0.0
H651 H 0.79475 0.79686 0.91635 0.0
H652 H 0.63639 0.74105 0.95936 0.0
H653 H 0.56333 0.74379 0.98924 0.0
H654 H 0.61901 0.79129 0.15257 0.0
H655 H 0.69277 0.79008 0.12316 0.0
C656 C 0.84883 0.68911 0.08783 0.0
C657 C 0.86212 0.70522 0.14252 0.0
C658 C 0.81655 0.69812 0.05635 0.0
C659 C 0.79874 0.72443 0.07856 0.0
C660 C 0.80735 0.73614 0.13633 0.0
C661 C 0.83868 0.72623 0.16849 0.0
C662 C 0.77746 0.74436 0.03969 0.0
C663 C 0.73593 0.74641 0.05504 0.0
C664 C 0.79914 0.76301 0.98919 0.0
C665 C 0.84405 0.76344 0.97162 0.0
C666 C 0.88107 0.77776 0.00887 0.0
C667 C 0.92287 0.77688 0.99246 0.0
C668 C 0.92825 0.76236 0.93859 0.0
C669 C 0.89185 0.7487 0.90091 0.0
C670 C 0.84991 0.74927 0.91721 0.0
C671 C 0.66598 0.84065 0.92306 0.0
C672 C 0.65233 0.82464 0.8684 0.0
C673 C 0.69821 0.83137 0.95421 0.0
C674 C 0.7156 0.80486 0.93171 0.0
C675 C 0.7067 0.79327 0.87393 0.0
C676 C 0.67544 0.80347 0.8421 0.0
C677 C 0.73669 0.78464 0.97032 0.0
C678 C 0.77817 0.78251 0.95489 0.0
C679 C 0.71499 0.76599 0.02083 0.0
C680 C 0.67027 0.76586 0.03879 0.0
C681 C 0.63315 0.75229 1.00152 0.0
C682 C 0.59162 0.75359 0.01833 0.0
C683 C 0.58654 0.76763 0.07269 0.0
C684 C 0.623 0.78046 0.11042 0.0
C685 C 0.6647 0.77959 0.09366 0.0
H686 H 0.55433 0.76855 0.08558 0.0
H687 H 0.96065 0.76173 0.92602 0.0
loop_
_geom_bond_atom_site_label_1
_geom_bond_atom_site_label_2
_geom_bond_distance
_geom_bond_site_symmetry_2
_ccdc_geom_bond_type
Sc0 O3 2.025 . S
Sc0 O10 2.078 1_455 S
Sc0 O13 2.131 . S
Sc0 O16 2.115 1_455 S
Sc0 O19 2.096 . S
Sc1 O3 2.037 . S
Sc1 O11 2.105 . S
Sc1 O15 2.105 . S
Sc1 O17 2.105 . S
Sc1 O21 2.105 1_455 S
Sc2 O3 2.014 1_655 S
Sc2 O12 2.105 . S
Sc2 O14 2.105 . S
Sc2 O18 2.105 1_655 S
Sc2 O20 2.105 . S
O3 Sc0 2.025 . S
O3 Sc1 2.037 . S
O3 Sc2 2.014 1_455 S
C4 O10 1.268 . S
C4 O20 1.268 . S
C5 O11 1.268 . S
C5 O19 1.268 . S
C6 O12 1.268 . S
C6 O21 1.268 . S
C7 O13 1.268 . S
C7 O17 1.268 . S
C8 O14 1.268 . S
C8 O16 1.268 . S
C9 O15 1.268 . S
C9 O18 1.268 . S
O10 Sc0 2.078 1_655 S
O10 C4 1.268 . S
O11 Sc1 2.105 . S
O11 C5 1.268 . S
O12 Sc2 2.105 . S
O12 C6 1.268 . S
O13 Sc0 2.131 . S
O13 C7 1.268 . S
O14 Sc2 2.105 . S
O14 C8 1.268 . S
O15 Sc1 2.105 . S
O15 C9 1.268 . S
O16 Sc0 2.115 1_655 S
O16 C8 1.268 . S
O17 Sc1 2.105 . S
O17 C7 1.268 . S
O18 Sc2 2.105 1_455 S
O18 C9 1.268 . S
O19 Sc0 2.096 . S
O19 C5 1.268 . S
O20 Sc2 2.105 . S
O20 C4 1.268 . S
O21 Sc1 2.105 1_655 S
O21 C6 1.268 . S
Sc22 O25 2.025 . S
Sc22 O32 2.105 . S
Sc22 O35 2.105 . S
Sc22 O38 2.105 . S
Sc22 O41 2.105 . S
Sc23 O25 2.025 . S
Sc23 O33 2.105 . S
Sc23 O37 2.105 . S
Sc23 O39 2.105 . S
Sc23 O43 2.105 . S
Sc24 O25 2.025 . S
Sc24 O34 2.105 . S
Sc24 O36 2.105 . S
Sc24 O40 2.105 . S
Sc24 O42 2.105 . S
O25 Sc22 2.025 . S
O25 Sc23 2.025 . S
O25 Sc24 2.025 . S
C26 O32 1.268 . S
C26 O42 1.268 . S
C27 O33 1.268 . S
C27 O41 1.268 . S
C28 O34 1.268 . S
C28 O43 1.268 . S
C29 O35 1.268 . S
C29 O39 1.268 . S
C30 O36 1.268 . S
C30 O38 1.268 . S
C31 O37 1.268 . S
C31 O40 1.268 . S
O32 Sc22 2.105 . S
O32 C26 1.268 . S
O33 Sc23 2.105 . S
O33 C27 1.268 . S
O34 Sc24 2.105 . S
O34 C28 1.268 . S
O35 Sc22 2.105 . S
O35 C29 1.268 . S
O36 Sc24 2.105 . S
O36 C30 1.268 . S
O37 Sc23 2.105 . S
O37 C31 1.268 . S
O38 Sc22 2.105 . S
O38 C30 1.268 . S
O39 Sc23 2.105 . S
O39 C29 1.268 . S
O40 Sc24 2.105 . S
O40 C31 1.268 . S
O41 Sc22 2.105 . S
O41 C27 1.268 . S
O42 Sc24 2.105 . S
O42 C26 1.268 . S
O43 Sc23 2.105 . S
O43 C28 1.268 . S
Sc44 O47 2.025 . S
Sc44 O54 2.096 . S
Sc44 O57 2.115 1_455 S
Sc44 O60 2.131 . S
Sc44 O63 2.078 1_455 S
Sc45 O47 2.014 1_655 S
Sc45 O55 2.105 . S
Sc45 O59 2.105 1_655 S
Sc45 O61 2.105 . S
Sc45 O65 2.105 . S
Sc46 O47 2.037 . S
Sc46 O56 2.105 1_455 S
Sc46 O58 2.105 . S
Sc46 O62 2.105 . S
Sc46 O64 2.105 . S
O47 Sc44 2.025 . S
O47 Sc45 2.014 1_455 S
O47 Sc46 2.037 . S
C48 O54 1.268 . S
C48 O64 1.268 . S
C49 O55 1.268 . S
C49 O63 1.268 . S
C50 O56 1.268 . S
C50 O65 1.268 . S
C51 O57 1.268 . S
C51 O61 1.268 . S
C52 O58 1.268 . S
C52 O60 1.268 . S
C53 O59 1.268 . S
C53 O62 1.268 . S
O54 Sc44 2.096 . S
O54 C48 1.268 . S
O55 Sc45 2.105 . S
O55 C49 1.268 . S
O56 Sc46 2.105 1_655 S
O56 C50 1.268 . S
O57 Sc44 2.115 1_655 S
O57 C51 1.268 . S
O58 Sc46 2.105 . S
O58 C52 1.268 . S
O59 Sc45 2.105 1_455 S
O59 C53 1.268 . S
O60 Sc44 2.131 . S
O60 C52 1.268 . S
O61 Sc45 2.105 . S
O61 C51 1.268 . S
O62 Sc46 2.105 . S
O62 C53 1.268 . S
O63 Sc44 2.078 1_655 S
O63 C49 1.268 . S
O64 Sc46 2.105 . S
O64 C48 1.268 . S
O65 Sc45 2.105 . S
O65 C50 1.268 . S
Sc66 O69 2.025 . S
Sc66 O76 2.105 . S
Sc66 O79 2.105 . S
Sc66 O82 2.105 . S
Sc66 O85 2.105 . S
Sc67 O69 2.025 . S
Sc67 O77 2.105 . S
Sc67 O81 2.105 . S
Sc67 O83 2.105 . S
Sc67 O87 2.105 . S
Sc68 O69 2.025 . S
Sc68 O78 2.105 . S
Sc68 O80 2.105 . S
Sc68 O84 2.105 . S
Sc68 O86 2.105 . S
O69 Sc66 2.025 . S
O69 Sc67 2.025 . S
O69 Sc68 2.025 . S
C70 O76 1.268 . S
C70 O86 1.268 . S
C71 O77 1.268 . S
C71 O85 1.268 . S
C72 O78 1.268 . S
C72 O87 1.268 . S
C73 O79 1.268 . S
C73 O83 1.268 . S
C74 O80 1.268 . S
C74 O82 1.268 . S
C75 O81 1.268 . S
C75 O84 1.268 . S
O76 Sc66 2.105 . S
O76 C70 1.268 . S
O77 Sc67 2.105 . S
O77 C71 1.268 . S
O78 Sc68 2.105 . S
O78 C72 1.268 . S
O79 Sc66 2.105 . S
O79 C73 1.268 . S
O80 Sc68 2.105 . S
O80 C74 1.268 . S
O81 Sc67 2.105 . S
O81 C75 1.268 . S
O82 Sc66 2.105 . S
O82 C74 1.268 . S
O83 Sc67 2.105 . S
O83 C73 1.268 . S
O84 Sc68 2.105 . S
O84 C75 1.268 . S
O85 Sc66 2.105 . S
O85 C71 1.268 . S
O86 Sc68 2.105 . S
O86 C70 1.268 . S
O87 Sc67 2.105 . S
O87 C72 1.268 . S
H88 C106 0.951 . S
H89 C108 0.951 . S
H90 C110 0.950 . S
H91 C111 0.950 . S
H92 C113 0.950 . S
H93 C116 0.950 1_655 S
H94 C117 0.950 . S
H95 C119 0.950 . S
H96 C120 0.950 . S
H97 C121 0.951 . S
H98 C123 0.951 . S
H99 C125 0.950 . S
H100 C126 0.950 . S
H101 C128 0.950 . S
H102 C131 0.950 1_455 S
H103 C132 0.950 . S
H104 C134 0.950 . S
H105 C135 0.950 . S
C106 H88 0.951 . S
C106 C107 1.366 . S
C106 C108 1.388 . S
C107 C106 1.366 . S
C107 C111 1.385 1_455 S
C108 H89 0.951 . S
C108 C106 1.388 . S
C108 C109 1.366 . S
C109 C108 1.366 . S
C109 C110 1.414 1_455 S
C109 C112 1.498 . S
C110 H90 0.950 . S
C110 C109 1.414 1_655 S
C110 C111 1.374 . S
C111 H91 0.950 . S
C111 C107 1.385 1_655 S
C111 C110 1.374 . S
C112 C109 1.498 . S
C112 C113 1.375 1_455 S
C112 C114 1.388 1_556 S
C113 H92 0.950 . S
C113 C112 1.375 1_655 S
C113 C129 1.377 . S
C114 C112 1.388 1_554 S
C114 C115 1.524 . S
C114 C128 1.377 . S
C115 C114 1.524 . S
C115 C116 1.397 . S
C115 C120 1.363 . S
C116 H93 0.950 1_455 S
C116 C115 1.397 . S
C116 C117 1.334 . S
C117 H94 0.950 . S
C117 C116 1.334 . S
C117 C118 1.287 . S
C118 C117 1.287 . S
C118 C119 1.524 . S
C118 H137 0.913 . S
C119 H95 0.950 . S
C119 C118 1.524 . S
C119 C120 1.415 . S
C120 H96 0.950 . S
C120 C115 1.363 . S
C120 C119 1.415 . S
C121 H97 0.951 . S
C121 C122 1.366 . S
C121 C123 1.388 . S
C122 C121 1.366 . S
C122 C126 1.385 1_655 S
C123 H98 0.951 . S
C123 C121 1.388 . S
C123 C124 1.365 . S
C124 C123 1.365 . S
C124 C125 1.414 1_655 S
C124 C127 1.499 1_655 S
C125 H99 0.950 . S
C125 C124 1.414 1_455 S
C125 C126 1.374 . S
C126 H100 0.950 . S
C126 C122 1.385 1_455 S
C126 C125 1.374 . S
C127 C124 1.499 1_455 S
C127 C128 1.373 . S
C127 C129 1.389 1_454 S
C128 H101 0.950 . S
C128 C114 1.377 . S
C128 C127 1.373 . S
C129 C113 1.377 . S
C129 C127 1.389 1_656 S
C129 C130 1.524 . S
C130 C129 1.524 . S
C130 C131 1.397 . S
C130 C135 1.363 . S
C131 H102 0.950 1_655 S
C131 C130 1.397 . S
C131 C132 1.334 . S
C132 H103 0.950 . S
C132 C131 1.334 . S
C132 C133 1.287 . S
C133 C132 1.287 . S
C133 C134 1.524 . S
C133 H136 0.999 . S
C134 H104 0.950 . S
C134 C133 1.524 . S
C134 C135 1.415 . S
C135 H105 0.950 . S
C135 C130 1.363 . S
C135 C134 1.415 . S
H136 C133 0.999 . S
H137 C118 0.913 . S
H138 C156 0.951 . S
H139 C158 0.951 . S
H140 C160 0.950 1_556 S
H141 C161 0.950 . S
H142 C163 0.950 . S
H143 C166 0.950 . S
H144 C167 0.950 . S
H145 C169 0.950 . S
H146 C170 0.950 . S
H147 C171 0.951 . S
H148 C173 0.951 . S
H149 C175 0.950 1_554 S
H150 C176 0.950 . S
H151 C178 0.950 . S
H152 C181 0.950 . S
H153 C182 0.950 . S
H154 C184 0.950 . S
H155 C185 0.950 . S
C156 H138 0.951 . S
C156 C157 1.366 . S
C156 C158 1.388 . S
C157 C156 1.366 . S
C157 C161 1.385 . S
C158 H139 0.951 . S
C158 C156 1.388 . S
C158 C159 1.366 . S
C159 C158 1.366 . S
C159 C160 1.414 . S
C159 C162 1.499 . S
C160 H140 0.950 1_554 S
C160 C159 1.414 . S
C160 C161 1.374 . S
C161 H141 0.950 . S
C161 C157 1.385 . S
C161 C160 1.374 . S
C162 C159 1.499 . S
C162 C163 1.373 1_554 S
C162 C164 1.389 . S
C163 H142 0.950 . S
C163 C162 1.373 1_556 S
C163 C179 1.377 . S
C164 C162 1.389 . S
C164 C165 1.524 . S
C164 C178 1.377 . S
C165 C164 1.524 . S
C165 C166 1.397 . S
C165 C170 1.363 . S
C166 H143 0.950 . S
C166 C165 1.397 . S
C166 C167 1.334 . S
C167 H144 0.950 . S
C167 C166 1.334 . S
C167 C168 1.287 . S
C168 C167 1.287 . S
C168 C169 1.524 . S
C168 H187 0.913 . S
C169 H145 0.950 . S
C169 C168 1.524 . S
C169 C170 1.415 . S
C170 H146 0.950 . S
C170 C165 1.363 . S
C170 C169 1.415 . S
C171 H147 0.951 . S
C171 C172 1.366 . S
C171 C173 1.388 . S
C172 C171 1.366 . S
C172 C176 1.385 . S
C173 H148 0.951 . S
C173 C171 1.388 . S
C173 C174 1.366 . S
C174 C173 1.366 . S
C174 C175 1.414 . S
C174 C177 1.499 . S
C175 H149 0.950 1_556 S
C175 C174 1.414 . S
C175 C176 1.374 . S
C176 H150 0.950 . S
C176 C172 1.385 . S
C176 C175 1.374 . S
C177 C174 1.499 . S
C177 C178 1.373 1_556 S
C177 C179 1.389 . S
C178 H151 0.950 . S
C178 C164 1.377 . S
C178 C177 1.373 1_554 S
C179 C163 1.377 . S
C179 C177 1.389 . S
C179 C180 1.524 . S
C180 C179 1.524 . S
C180 C181 1.397 . S
C180 C185 1.363 . S
C181 H152 0.950 . S
C181 C180 1.397 . S
C181 C182 1.334 . S
C182 H153 0.950 . S
C182 C181 1.334 . S
C182 C183 1.287 . S
C183 C182 1.287 . S
C183 C184 1.524 . S
C183 H186 0.999 . S
C184 H154 0.950 . S
C184 C183 1.524 . S
C184 C185 1.415 . S
C185 H155 0.950 . S
C185 C180 1.363 . S
C185 C184 1.415 . S
H186 C183 0.999 . S
H187 C168 0.913 . S
H188 C206 0.951 . S
H189 C208 0.951 1_554 S
H190 C210 0.950 . S
H191 C211 0.950 . S
H192 C213 0.950 . S
H193 C216 0.950 1_556 S
H194 C217 0.950 . S
H195 C219 0.950 . S
H196 C220 0.950 . S
H197 C221 0.951 . S
H198 C223 0.951 1_556 S
H199 C225 0.950 . S
H200 C226 0.950 . S
H201 C228 0.950 . S
H202 C231 0.950 1_554 S
H203 C232 0.950 . S
H204 C234 0.950 . S
H205 C235 0.950 . S
C206 H188 0.951 . S
C206 C207 1.366 . S
C206 C208 1.388 . S
C207 C206 1.366 . S
C207 C211 1.385 . S
C208 H189 0.951 1_556 S
C208 C206 1.388 . S
C208 C209 1.366 . S
C209 C208 1.366 . S
C209 C210 1.414 . S
C209 C212 1.499 . S
C210 H190 0.950 . S
C210 C209 1.414 . S
C210 C211 1.374 . S
C211 H191 0.950 . S
C211 C207 1.385 . S
C211 C210 1.374 . S
C212 C209 1.499 . S
C212 C213 1.390 . S
C212 C214 1.389 1_556 S
C213 H192 0.950 . S
C213 C212 1.390 . S
C213 C229 1.356 1_565 S
C214 C212 1.389 1_554 S
C214 C215 1.524 . S
C214 C228 1.356 1_565 S
C215 C214 1.524 . S
C215 C216 1.397 . S
C215 C220 1.363 . S
C216 H193 0.950 1_554 S
C216 C215 1.397 . S
C216 C217 1.334 . S
C217 H194 0.950 . S
C217 C216 1.334 . S
C217 C218 1.287 . S
C218 C217 1.287 . S
C218 C219 1.524 . S
C218 H237 0.913 . S
C219 H195 0.950 . S
C219 C218 1.524 . S
C219 C220 1.415 . S
C220 H196 0.950 . S
C220 C215 1.363 . S
C220 C219 1.415 . S
C221 H197 0.951 . S
C221 C222 1.366 . S
C221 C223 1.388 . S
C222 C221 1.366 . S
C222 C226 1.385 . S
C223 H198 0.951 1_554 S
C223 C221 1.388 . S
C223 C224 1.366 . S
C224 C223 1.366 . S
C224 C225 1.414 . S
C224 C227 1.499 . S
C225 H199 0.950 . S
C225 C224 1.414 . S
C225 C226 1.374 . S
C226 H200 0.950 . S
C226 C222 1.385 . S
C226 C225 1.374 . S
C227 C224 1.499 . S
C227 C228 1.390 . S
C227 C229 1.389 1_554 S
C228 H201 0.950 . S
C228 C214 1.356 1_545 S
C228 C227 1.390 . S
C229 C213 1.356 1_545 S
C229 C227 1.389 1_556 S
C229 C230 1.524 . S
C230 C229 1.524 . S
C230 C231 1.397 . S
C230 C235 1.363 . S
C231 H202 0.950 1_556 S
C231 C230 1.397 . S
C231 C232 1.334 . S
C232 H203 0.950 . S
C232 C231 1.334 . S
C232 C233 1.287 . S
C233 C232 1.287 . S
C233 C234 1.524 . S
C233 H236 0.999 . S
C234 H204 0.950 . S
C234 C233 1.524 . S
C234 C235 1.415 . S
C235 H205 0.950 . S
C235 C230 1.363 . S
C235 C234 1.415 . S
H236 C233 0.999 . S
H237 C218 0.913 . S
H238 C256 0.951 . S
H239 C258 0.951 . S
H240 C260 0.950 . S
H241 C261 0.950 . S
H242 C263 0.950 . S
H243 C266 0.950 . S
H244 C267 0.950 . S
H245 C269 0.950 . S
H246 C270 0.950 . S
H247 C271 0.951 . S
H248 C273 0.951 . S
H249 C275 0.950 . S
H250 C276 0.950 . S
H251 C278 0.950 . S
H252 C281 0.950 . S
H253 C282 0.950 . S
H254 C284 0.950 . S
H255 C285 0.950 . S
C256 H238 0.951 . S
C256 C257 1.366 . S
C256 C258 1.388 . S
C257 C256 1.366 . S
C257 C261 1.385 1_455 S
C258 H239 0.951 . S
C258 C256 1.388 . S
C258 C259 1.366 . S
C259 C258 1.366 . S
C259 C260 1.414 1_455 S
C259 C262 1.502 . S
C260 H240 0.950 . S
C260 C259 1.414 1_655 S
C260 C261 1.374 . S
C261 H241 0.950 . S
C261 C257 1.385 1_655 S
C261 C260 1.374 . S
C262 C259 1.502 . S
C262 C263 1.366 1_454 S
C262 C264 1.393 1_565 S
C263 H242 0.950 . S
C263 C262 1.366 1_656 S
C263 C279 1.377 . S
C264 C262 1.393 1_545 S
C264 C265 1.524 . S
C264 C278 1.377 . S
C265 C264 1.524 . S
C265 C266 1.397 1_545 S
C265 C270 1.363 . S
C266 H243 0.950 . S
C266 C265 1.397 1_565 S
C266 C267 1.334 . S
C267 H244 0.950 . S
C267 C266 1.334 . S
C267 C268 1.287 1_565 S
C268 C267 1.287 1_545 S
C268 C269 1.524 . S
C268 H287 0.913 . S
C269 H245 0.950 . S
C269 C268 1.524 . S
C269 C270 1.415 . S
C270 H246 0.950 . S
C270 C265 1.363 . S
C270 C269 1.415 . S
C271 H247 0.951 . S
C271 C272 1.366 . S
C271 C273 1.388 . S
C272 C271 1.366 . S
C272 C276 1.385 1_655 S
C273 H248 0.951 . S
C273 C271 1.388 . S
C273 C274 1.377 . S
C274 C273 1.377 . S
C274 C275 1.406 1_655 S
C274 C277 1.495 1_655 S
C275 H249 0.950 . S
C275 C274 1.406 1_455 S
C275 C276 1.374 . S
C276 H250 0.950 . S
C276 C272 1.385 1_455 S
C276 C275 1.374 . S
C277 C274 1.495 1_455 S
C277 C278 1.373 1_556 S
C277 C279 1.389 1_445 S
C278 H251 0.950 . S
C278 C264 1.377 . S
C278 C277 1.373 1_554 S
C279 C263 1.377 . S
C279 C277 1.389 1_665 S
C279 C280 1.524 . S
C280 C279 1.524 . S
C280 C281 1.397 1_565 S
C280 C285 1.363 . S
C281 H252 0.950 . S
C281 C280 1.397 1_545 S
C281 C282 1.334 . S
C282 H253 0.950 . S
C282 C281 1.334 . S
C282 C283 1.287 1_545 S
C283 C282 1.287 1_565 S
C283 C284 1.524 . S
C283 H286 0.999 . S
C284 H254 0.950 . S
C284 C283 1.524 . S
C284 C285 1.415 . S
C285 H255 0.950 . S
C285 C280 1.363 . S
C285 C284 1.415 . S
H286 C283 0.999 . S
H287 C268 0.913 . S
H288 C306 0.951 . S
H289 C308 0.951 . S
H290 C310 0.950 . S
H291 C311 0.950 . S
H292 C313 0.950 . S
H293 C316 0.950 . S
H294 C317 0.950 . S
H295 C319 0.950 . S
H296 C320 0.950 . S
H297 C321 0.951 . S
H298 C323 0.951 . S
H299 C325 0.950 . S
H300 C326 0.950 . S
H301 C328 0.950 . S
H302 C331 0.950 . S
H303 C332 0.950 . S
H304 C334 0.950 . S
H305 C335 0.950 . S
C306 H288 0.951 . S
C306 C307 1.366 . S
C306 C308 1.388 . S
C307 C306 1.366 . S
C307 C311 1.385 . S
C308 H289 0.951 . S
C308 C306 1.388 . S
C308 C309 1.366 . S
C309 C308 1.366 . S
C309 C310 1.414 . S
C309 C312 1.499 . S
C310 H290 0.950 . S
C310 C309 1.414 . S
C310 C311 1.374 . S
C311 H291 0.950 . S
C311 C307 1.385 . S
C311 C310 1.374 . S
C312 C309 1.499 . S
C312 C313 1.373 . S
C312 C314 1.389 . S
C313 H292 0.950 . S
C313 C312 1.373 . S
C313 C329 1.377 . S
C314 C312 1.389 . S
C314 C315 1.524 . S
C314 C328 1.377 . S
C315 C314 1.524 . S
C315 C316 1.397 . S
C315 C320 1.363 . S
C316 H293 0.950 . S
C316 C315 1.397 . S
C316 C317 1.334 . S
C317 H294 0.950 . S
C317 C316 1.334 . S
C317 C318 1.287 . S
C318 C317 1.287 . S
C318 C319 1.524 . S
C318 H337 0.913 . S
C319 H295 0.950 . S
C319 C318 1.524 . S
C319 C320 1.415 . S
C320 H296 0.950 . S
C320 C315 1.363 . S
C320 C319 1.415 . S
C321 H297 0.951 . S
C321 C322 1.366 . S
C321 C323 1.388 . S
C322 C321 1.366 . S
C322 C326 1.385 . S
C323 H298 0.951 . S
C323 C321 1.388 . S
C323 C324 1.366 . S
C324 C323 1.366 . S
C324 C325 1.414 . S
C324 C327 1.499 . S
C325 H299 0.950 . S
C325 C324 1.414 . S
C325 C326 1.374 . S
C326 H300 0.950 . S
C326 C322 1.385 . S
C326 C325 1.374 . S
C327 C324 1.499 . S
C327 C328 1.373 . S
C327 C329 1.389 . S
C328 H301 0.950 . S
C328 C314 1.377 . S
C328 C327 1.373 . S
C329 C313 1.377 . S
C329 C327 1.389 . S
C329 C330 1.524 . S
C330 C329 1.524 . S
C330 C331 1.397 . S
C330 C335 1.363 . S
C331 H302 0.950 . S
C331 C330 1.397 . S
C331 C332 1.334 . S
C332 H303 0.950 . S
C332 C331 1.334 . S
C332 C333 1.287 . S
C333 C332 1.287 . S
C333 C334 1.524 . S
C333 H336 0.999 . S
C334 H304 0.950 . S
C334 C333 1.524 . S
C334 C335 1.415 . S
C335 H305 0.950 . S
C335 C330 1.363 . S
C335 C334 1.415 . S
H336 C333 0.999 . S
H337 C318 0.913 . S
H338 C356 0.951 . S
H339 C358 0.951 . S
H340 C360 0.950 . S
H341 C361 0.950 . S
H342 C363 0.950 . S
H343 C366 0.950 . S
H344 C367 0.950 . S
H345 C369 0.950 . S
H346 C370 0.950 . S
H347 C371 0.951 . S
H348 C373 0.951 . S
H349 C375 0.950 . S
H350 C376 0.950 . S
H351 C378 0.950 . S
H352 C381 0.950 . S
H353 C382 0.950 . S
H354 C384 0.950 . S
H355 C385 0.950 . S
C356 H338 0.951 . S
C356 C357 1.366 . S
C356 C358 1.388 . S
C357 C356 1.366 . S
C357 C361 1.385 . S
C358 H339 0.951 . S
C358 C356 1.388 . S
C358 C359 1.366 . S
C359 C358 1.366 . S
C359 C360 1.414 . S
C359 C362 1.499 . S
C360 H340 0.950 . S
C360 C359 1.414 . S
C360 C361 1.374 . S
C361 H341 0.950 . S
C361 C357 1.385 . S
C361 C360 1.374 . S
C362 C359 1.499 . S
C362 C363 1.373 . S
C362 C364 1.389 . S
C363 H342 0.950 . S
C363 C362 1.373 . S
C363 C379 1.377 . S
C364 C362 1.389 . S
C364 C365 1.524 . S
C364 C378 1.377 . S
C365 C364 1.524 . S
C365 C366 1.397 . S
C365 C370 1.363 . S
C366 H343 0.950 . S
C366 C365 1.397 . S
C366 C367 1.334 . S
C367 H344 0.950 . S
C367 C366 1.334 . S
C367 C368 1.287 . S
C368 C367 1.287 . S
C368 C369 1.524 . S
C368 H387 0.913 . S
C369 H345 0.950 . S
C369 C368 1.524 . S
C369 C370 1.415 . S
C370 H346 0.950 . S
C370 C365 1.363 . S
C370 C369 1.415 . S
C371 H347 0.951 . S
C371 C372 1.366 . S
C371 C373 1.388 . S
C372 C371 1.366 . S
C372 C376 1.385 . S
C373 H348 0.951 . S
C373 C371 1.388 . S
C373 C374 1.366 . S
C374 C373 1.366 . S
C374 C375 1.414 . S
C374 C377 1.499 . S
C375 H349 0.950 . S
C375 C374 1.414 . S
C375 C376 1.374 . S
C376 H350 0.950 . S
C376 C372 1.385 . S
C376 C375 1.374 . S
C377 C374 1.499 . S
C377 C378 1.373 . S
C377 C379 1.389 . S
C378 H351 0.950 . S
C378 C364 1.377 . S
C378 C377 1.373 . S
C379 C363 1.377 . S
C379 C377 1.389 . S
C379 C380 1.524 . S
C380 C379 1.524 . S
C380 C381 1.397 . S
C380 C385 1.363 . S
C381 H352 0.950 . S
C381 C380 1.397 . S
C381 C382 1.334 . S
C382 H353 0.950 . S
C382 C381 1.334 . S
C382 C383 1.287 . S
C383 C382 1.287 . S
C383 C384 1.524 . S
C383 H386 0.999 . S
C384 H354 0.950 . S
C384 C383 1.524 . S
C384 C385 1.415 . S
C385 H355 0.950 . S
C385 C380 1.363 . S
C385 C384 1.415 . S
H386 C383 0.999 . S
H387 C368 0.913 . S
H388 C406 0.951 . S
H389 C408 0.951 . S
H390 C410 0.950 . S
H391 C411 0.950 . S
H392 C413 0.950 . S
H393 C416 0.950 . S
H394 C417 0.950 . S
H395 C419 0.950 . S
H396 C420 0.950 . S
H397 C421 0.951 . S
H398 C423 0.951 . S
H399 C425 0.950 . S
H400 C426 0.950 . S
H401 C428 0.950 . S
H402 C431 0.950 . S
H403 C432 0.950 . S
H404 C434 0.950 . S
H405 C435 0.950 . S
C406 H388 0.951 . S
C406 C407 1.366 . S
C406 C408 1.388 . S
C407 C406 1.366 . S
C407 C411 1.385 . S
C408 H389 0.951 . S
C408 C406 1.388 . S
C408 C409 1.366 . S
C409 C408 1.366 . S
C409 C410 1.414 . S
C409 C412 1.499 . S
C410 H390 0.950 . S
C410 C409 1.414 . S
C410 C411 1.374 . S
C411 H391 0.950 . S
C411 C407 1.385 . S
C411 C410 1.374 . S
C412 C409 1.499 . S
C412 C413 1.373 . S
C412 C414 1.389 . S
C413 H392 0.950 . S
C413 C412 1.373 . S
C413 C429 1.377 . S
C414 C412 1.389 . S
C414 C415 1.524 . S
C414 C428 1.377 . S
C415 C414 1.524 . S
C415 C416 1.397 . S
C415 C420 1.363 . S
C416 H393 0.950 . S
C416 C415 1.397 . S
C416 C417 1.334 . S
C417 H394 0.950 . S
C417 C416 1.334 . S
C417 C418 1.287 . S
C418 C417 1.287 . S
C418 C419 1.524 . S
C418 H437 0.913 . S
C419 H395 0.950 . S
C419 C418 1.524 . S
C419 C420 1.415 . S
C420 H396 0.950 . S
C420 C415 1.363 . S
C420 C419 1.415 . S
C421 H397 0.951 . S
C421 C422 1.366 . S
C421 C423 1.388 . S
C422 C421 1.366 . S
C422 C426 1.385 . S
C423 H398 0.951 . S
C423 C421 1.388 . S
C423 C424 1.366 . S
C424 C423 1.366 . S
C424 C425 1.414 . S
C424 C427 1.499 . S
C425 H399 0.950 . S
C425 C424 1.414 . S
C425 C426 1.374 . S
C426 H400 0.950 . S
C426 C422 1.385 . S
C426 C425 1.374 . S
C427 C424 1.499 . S
C427 C428 1.373 . S
C427 C429 1.389 . S
C428 H401 0.950 . S
C428 C414 1.377 . S
C428 C427 1.373 . S
C429 C413 1.377 . S
C429 C427 1.389 . S
C429 C430 1.524 . S
C430 C429 1.524 . S
C430 C431 1.397 . S
C430 C435 1.363 . S
C431 H402 0.950 . S
C431 C430 1.397 . S
C431 C432 1.334 . S
C432 H403 0.950 . S
C432 C431 1.334 . S
C432 C433 1.287 . S
C433 C432 1.287 . S
C433 C434 1.524 . S
C433 H436 0.999 . S
C434 H404 0.950 . S
C434 C433 1.524 . S
C434 C435 1.415 . S
C435 H405 0.950 . S
C435 C430 1.363 . S
C435 C434 1.415 . S
H436 C433 0.999 . S
H437 C418 0.913 . S
H438 C456 0.951 . S
H439 C458 0.951 . S
H440 C460 0.950 . S
H441 C461 0.950 . S
H442 C463 0.950 . S
H443 C466 0.950 . S
H444 C467 0.950 . S
H445 C469 0.950 . S
H446 C470 0.950 . S
H447 C471 0.951 . S
H448 C473 0.951 . S
H449 C475 0.950 . S
H450 C476 0.950 . S
H451 C478 0.950 . S
H452 C481 0.950 . S
H453 C482 0.950 . S
H454 C484 0.950 . S
H455 C485 0.950 . S
C456 H438 0.951 . S
C456 C457 1.366 . S
C456 C458 1.388 . S
C457 C456 1.366 . S
C457 C461 1.385 . S
C458 H439 0.951 . S
C458 C456 1.388 . S
C458 C459 1.366 . S
C459 C458 1.366 . S
C459 C460 1.414 . S
C459 C462 1.499 . S
C460 H440 0.950 . S
C460 C459 1.414 . S
C460 C461 1.374 . S
C461 H441 0.950 . S
C461 C457 1.385 . S
C461 C460 1.374 . S
C462 C459 1.499 . S
C462 C463 1.373 . S
C462 C464 1.389 . S
C463 H442 0.950 . S
C463 C462 1.373 . S
C463 C479 1.377 . S
C464 C462 1.389 . S
C464 C465 1.524 . S
C464 C478 1.377 . S
C465 C464 1.524 . S
C465 C466 1.397 . S
C465 C470 1.363 . S
C466 H443 0.950 . S
C466 C465 1.397 . S
C466 C467 1.334 . S
C467 H444 0.950 . S
C467 C466 1.334 . S
C467 C468 1.287 . S
C468 C467 1.287 . S
C468 C469 1.524 . S
C468 H487 0.913 . S
C469 H445 0.950 . S
C469 C468 1.524 . S
C469 C470 1.415 . S
C470 H446 0.950 . S
C470 C465 1.363 . S
C470 C469 1.415 . S
C471 H447 0.951 . S
C471 C472 1.366 . S
C471 C473 1.388 . S
C472 C471 1.366 . S
C472 C476 1.385 . S
C473 H448 0.951 . S
C473 C471 1.388 . S
C473 C474 1.366 . S
C474 C473 1.366 . S
C474 C475 1.414 . S
C474 C477 1.499 . S
C475 H449 0.950 . S
C475 C474 1.414 . S
C475 C476 1.374 . S
C476 H450 0.950 . S
C476 C472 1.385 . S
C476 C475 1.374 . S
C477 C474 1.499 . S
C477 C478 1.373 . S
C477 C479 1.389 . S
C478 H451 0.950 . S
C478 C464 1.377 . S
C478 C477 1.373 . S
C479 C463 1.377 . S
C479 C477 1.389 . S
C479 C480 1.524 . S
C480 C479 1.524 . S
C480 C481 1.397 . S
C480 C485 1.363 . S
C481 H452 0.950 . S
C481 C480 1.397 . S
C481 C482 1.334 . S
C482 H453 0.950 . S
C482 C481 1.334 . S
C482 C483 1.287 . S
C483 C482 1.287 . S
C483 C484 1.524 . S
C483 H486 0.999 . S
C484 H454 0.950 . S
C484 C483 1.524 . S
C484 C485 1.415 . S
C485 H455 0.950 . S
C485 C480 1.363 . S
C485 C484 1.415 . S
H486 C483 0.999 . S
H487 C468 0.913 . S
H488 C506 0.951 . S
H489 C508 0.951 . S
H490 C510 0.950 . S
H491 C511 0.950 . S
H492 C513 0.950 . S
H493 C516 0.950 . S
H494 C517 0.950 . S
H495 C519 0.950 . S
H496 C520 0.950 . S
H497 C521 0.951 . S
H498 C523 0.951 . S
H499 C525 0.950 . S
H500 C526 0.950 . S
H501 C528 0.950 . S
H502 C531 0.950 . S
H503 C532 0.950 . S
H504 C534 0.950 . S
H505 C535 0.950 . S
C506 H488 0.951 . S
C506 C507 1.366 . S
C506 C508 1.388 . S
C507 C506 1.366 . S
C507 C511 1.385 . S
C508 H489 0.951 . S
C508 C506 1.388 . S
C508 C509 1.366 . S
C509 C508 1.366 . S
C509 C510 1.414 . S
C509 C512 1.499 . S
C510 H490 0.950 . S
C510 C509 1.414 . S
C510 C511 1.374 . S
C511 H491 0.950 . S
C511 C507 1.385 . S
C511 C510 1.374 . S
C512 C509 1.499 . S
C512 C513 1.373 . S
C512 C514 1.389 1_556 S
C513 H492 0.950 . S
C513 C512 1.373 . S
C513 C529 1.377 . S
C514 C512 1.389 1_554 S
C514 C515 1.524 . S
C514 C528 1.377 . S
C515 C514 1.524 . S
C515 C516 1.397 . S
C515 C520 1.363 . S
C516 H493 0.950 . S
C516 C515 1.397 . S
C516 C517 1.334 . S
C517 H494 0.950 . S
C517 C516 1.334 . S
C517 C518 1.287 . S
C518 C517 1.287 . S
C518 C519 1.524 . S
C518 H537 0.913 . S
C519 H495 0.950 . S
C519 C518 1.524 . S
C519 C520 1.415 . S
C520 H496 0.950 . S
C520 C515 1.363 . S
C520 C519 1.415 . S
C521 H497 0.951 . S
C521 C522 1.366 . S
C521 C523 1.388 . S
C522 C521 1.366 . S
C522 C526 1.385 . S
C523 H498 0.951 . S
C523 C521 1.388 . S
C523 C524 1.366 . S
C524 C523 1.366 . S
C524 C525 1.414 . S
C524 C527 1.499 . S
C525 H499 0.950 . S
C525 C524 1.414 . S
C525 C526 1.374 . S
C526 H500 0.950 . S
C526 C522 1.385 . S
C526 C525 1.374 . S
C527 C524 1.499 . S
C527 C528 1.373 . S
C527 C529 1.389 1_554 S
C528 H501 0.950 . S
C528 C514 1.377 . S
C528 C527 1.373 . S
C529 C513 1.377 . S
C529 C527 1.389 1_556 S
C529 C530 1.524 . S
C530 C529 1.524 . S
C530 C531 1.397 . S
C530 C535 1.363 . S
C531 H502 0.950 . S
C531 C530 1.397 . S
C531 C532 1.334 . S
C532 H503 0.950 . S
C532 C531 1.334 . S
C532 C533 1.287 . S
C533 C532 1.287 . S
C533 C534 1.524 . S
C533 H536 0.999 . S
C534 H504 0.950 . S
C534 C533 1.524 . S
C534 C535 1.415 . S
C535 H505 0.950 . S
C535 C530 1.363 . S
C535 C534 1.415 . S
H536 C533 0.999 . S
H537 C518 0.913 . S
H538 C556 0.951 . S
H539 C558 0.951 . S
H540 C560 0.950 . S
H541 C561 0.950 . S
H542 C563 0.950 . S
H543 C566 0.950 . S
H544 C567 0.950 . S
H545 C569 0.950 . S
H546 C570 0.950 . S
H547 C571 0.951 . S
H548 C573 0.951 . S
H549 C575 0.950 . S
H550 C576 0.950 . S
H551 C578 0.950 . S
H552 C581 0.950 . S
H553 C582 0.950 . S
H554 C584 0.950 . S
H555 C585 0.950 . S
C556 H538 0.951 . S
C556 C557 1.366 . S
C556 C558 1.388 . S
C557 C556 1.366 . S
C557 C561 1.385 . S
C558 H539 0.951 . S
C558 C556 1.388 . S
C558 C559 1.366 . S
C559 C558 1.366 . S
C559 C560 1.414 . S
C559 C562 1.499 . S
C560 H540 0.950 . S
C560 C559 1.414 . S
C560 C561 1.374 . S
C561 H541 0.950 . S
C561 C557 1.385 . S
C561 C560 1.374 . S
C562 C559 1.499 . S
C562 C563 1.373 . S
C562 C564 1.389 1_556 S
C563 H542 0.950 . S
C563 C562 1.373 . S
C563 C579 1.377 . S
C564 C562 1.389 1_554 S
C564 C565 1.524 . S
C564 C578 1.377 . S
C565 C564 1.524 . S
C565 C566 1.397 . S
C565 C570 1.363 . S
C566 H543 0.950 . S
C566 C565 1.397 . S
C566 C567 1.334 . S
C567 H544 0.950 . S
C567 C566 1.334 . S
C567 C568 1.287 . S
C568 C567 1.287 . S
C568 C569 1.524 . S
C568 H587 0.913 . S
C569 H545 0.950 . S
C569 C568 1.524 . S
C569 C570 1.415 . S
C570 H546 0.950 . S
C570 C565 1.363 . S
C570 C569 1.415 . S
C571 H547 0.951 . S
C571 C572 1.366 . S
C571 C573 1.388 . S
C572 C571 1.366 . S
C572 C576 1.385 . S
C573 H548 0.951 . S
C573 C571 1.388 . S
C573 C574 1.366 . S
C574 C573 1.366 . S
C574 C575 1.414 . S
C574 C577 1.499 . S
C575 H549 0.950 . S
C575 C574 1.414 . S
C575 C576 1.374 . S
C576 H550 0.950 . S
C576 C572 1.385 . S
C576 C575 1.374 . S
C577 C574 1.499 . S
C577 C578 1.373 . S
C577 C579 1.389 1_554 S
C578 H551 0.950 . S
C578 C564 1.377 . S
C578 C577 1.373 . S
C579 C563 1.377 . S
C579 C577 1.389 1_556 S
C579 C580 1.524 . S
C580 C579 1.524 . S
C580 C581 1.397 . S
C580 C585 1.363 . S
C581 H552 0.950 . S
C581 C580 1.397 . S
C581 C582 1.334 . S
C582 H553 0.950 . S
C582 C581 1.334 . S
C582 C583 1.287 . S
C583 C582 1.287 . S
C583 C584 1.524 . S
C583 H586 0.999 . S
C584 H554 0.950 . S
C584 C583 1.524 . S
C584 C585 1.415 . S
C585 H555 0.950 . S
C585 C580 1.363 . S
C585 C584 1.415 . S
H586 C583 0.999 . S
H587 C568 0.913 . S
H588 C606 0.951 . S
H589 C608 0.951 . S
H590 C610 0.950 . S
H591 C611 0.950 . S
H592 C613 0.950 . S
H593 C616 0.950 . S
H594 C617 0.950 . S
H595 C619 0.950 . S
H596 C620 0.950 1_556 S
H597 C621 0.951 . S
H598 C623 0.951 . S
H599 C625 0.950 . S
H600 C626 0.950 . S
H601 C628 0.950 . S
H602 C631 0.950 . S
H603 C632 0.950 . S
H604 C634 0.950 . S
H605 C635 0.950 1_554 S
C606 H588 0.951 . S
C606 C607 1.366 . S
C606 C608 1.388 . S
C607 C606 1.366 . S
C607 C611 1.385 . S
C608 H589 0.951 . S
C608 C606 1.388 . S
C608 C609 1.366 . S
C609 C608 1.366 . S
C609 C610 1.414 . S
C609 C612 1.499 . S
C610 H590 0.950 . S
C610 C609 1.414 . S
C610 C611 1.374 . S
C611 H591 0.950 . S
C611 C607 1.385 . S
C611 C610 1.374 . S
C612 C609 1.499 . S
C612 C613 1.373 . S
C612 C614 1.389 . S
C613 H592 0.950 . S
C613 C612 1.373 . S
C613 C629 1.377 1_554 S
C614 C612 1.389 . S
C614 C615 1.524 . S
C614 C628 1.377 1_554 S
C615 C614 1.524 . S
C615 C616 1.397 . S
C615 C620 1.363 . S
C616 H593 0.950 . S
C616 C615 1.397 . S
C616 C617 1.334 . S
C617 H594 0.950 . S
C617 C616 1.334 . S
C617 C618 1.287 . S
C618 C617 1.287 . S
C618 C619 1.524 . S
C618 H637 0.913 . S
C619 H595 0.950 . S
C619 C618 1.524 . S
C619 C620 1.415 . S
C620 H596 0.950 1_554 S
C620 C615 1.363 . S
C620 C619 1.415 . S
C621 H597 0.951 . S
C621 C622 1.366 . S
C621 C623 1.388 . S
C622 C621 1.366 . S
C622 C626 1.385 . S
C623 H598 0.951 . S
C623 C621 1.388 . S
C623 C624 1.366 . S
C624 C623 1.366 . S
C624 C625 1.414 . S
C624 C627 1.499 . S
C625 H599 0.950 . S
C625 C624 1.414 . S
C625 C626 1.374 . S
C626 H600 0.950 . S
C626 C622 1.385 . S
C626 C625 1.374 . S
C627 C624 1.499 . S
C627 C628 1.373 . S
C627 C629 1.389 . S
C628 H601 0.950 . S
C628 C614 1.377 1_556 S
C628 C627 1.373 . S
C629 C613 1.377 1_556 S
C629 C627 1.389 . S
C629 C630 1.524 . S
C630 C629 1.524 . S
C630 C631 1.397 . S
C630 C635 1.363 . S
C631 H602 0.950 . S
C631 C630 1.397 . S
C631 C632 1.334 . S
C632 H603 0.950 . S
C632 C631 1.334 . S
C632 C633 1.287 . S
C633 C632 1.287 . S
C633 C634 1.524 . S
C633 H636 0.999 . S
C634 H604 0.950 . S
C634 C633 1.524 . S
C634 C635 1.415 . S
C635 H605 0.950 1_556 S
C635 C630 1.363 . S
C635 C634 1.415 . S
H636 C633 0.999 . S
H637 C618 0.913 . S
H638 C656 0.951 . S
H639 C658 0.951 . S
H640 C660 0.950 . S
H641 C661 0.950 . S
H642 C663 0.950 . S
H643 C666 0.950 . S
H644 C667 0.950 . S
H645 C669 0.950 . S
H646 C670 0.950 . S
H647 C671 0.951 . S
H648 C673 0.951 . S
H649 C675 0.950 . S
H650 C676 0.950 . S
H651 C678 0.950 . S
H652 C681 0.950 . S
H653 C682 0.950 . S
H654 C684 0.950 . S
H655 C685 0.950 . S
C656 H638 0.951 . S
C656 C657 1.366 . S
C656 C658 1.388 . S
C657 C656 1.366 . S
C657 C661 1.385 . S
C658 H639 0.951 . S
C658 C656 1.388 . S
C658 C659 1.366 . S
C659 C658 1.366 . S
C659 C660 1.414 . S
C659 C662 1.499 . S
C660 H640 0.950 . S
C660 C659 1.414 . S
C660 C661 1.374 . S
C661 H641 0.950 . S
C661 C657 1.385 . S
C661 C660 1.374 . S
C662 C659 1.499 . S
C662 C663 1.373 . S
C662 C664 1.389 1_554 S
C663 H642 0.950 . S
C663 C662 1.373 . S
C663 C679 1.377 . S
C664 C662 1.389 1_556 S
C664 C665 1.524 . S
C664 C678 1.377 . S
C665 C664 1.524 . S
C665 C666 1.397 . S
C665 C670 1.363 . S
C666 H643 0.950 . S
C666 C665 1.397 . S
C666 C667 1.334 . S
C667 H644 0.950 . S
C667 C666 1.334 . S
C667 C668 1.287 . S
C668 C667 1.287 . S
C668 C669 1.524 . S
C668 H687 0.913 . S
C669 H645 0.950 . S
C669 C668 1.524 . S
C669 C670 1.415 . S
C670 H646 0.950 . S
C670 C665 1.363 . S
C670 C669 1.415 . S
C671 H647 0.951 . S
C671 C672 1.366 . S
C671 C673 1.388 . S
C672 C671 1.366 . S
C672 C676 1.385 . S
C673 H648 0.951 . S
C673 C671 1.388 . S
C673 C674 1.366 . S
C674 C673 1.366 . S
C674 C675 1.414 . S
C674 C677 1.499 . S
C675 H649 0.950 . S
C675 C674 1.414 . S
C675 C676 1.374 . S
C676 H650 0.950 . S
C676 C672 1.385 . S
C676 C675 1.374 . S
C677 C674 1.499 . S
C677 C678 1.373 . S
C677 C679 1.389 1_556 S
C678 H651 0.950 . S
C678 C664 1.377 . S
C678 C677 1.373 . S
C679 C663 1.377 . S
C679 C677 1.389 1_554 S
C679 C680 1.524 . S
C680 C679 1.524 . S
C680 C681 1.397 . S
C680 C685 1.363 . S
C681 H652 0.950 . S
C681 C680 1.397 . S
C681 C682 1.334 . S
C682 H653 0.950 . S
C682 C681 1.334 . S
C682 C683 1.287 . S
C683 C682 1.287 . S
C683 C684 1.524 . S
C683 H686 0.999 . S
C684 H654 0.950 . S
C684 C683 1.524 . S
C684 C685 1.415 . S
C685 H655 0.950 . S
C685 C680 1.363 . S
C685 C684 1.415 . S
H686 C683 0.999 . S
H687 C668 0.913 . S
C107 C48 1.567 . S
C122 C8 1.567 . S
C157 C27 1.566 . S
C172 C73 1.566 . S
C207 C70 1.566 . S
C222 C30 1.566 . S
C257 C5 1.566 . S
C272 C51 1.566 . S
C307 C72 2.183 . S
C322 C9 2.183 . S
C357 C53 2.183 . S
C372 C28 2.183 . S
C407 C50 2.184 . S
C422 C31 2.184 . S
C457 C6 2.183 . S
C472 C75 2.183 . S
C507 C71 0.350 . S
C522 C7 0.350 . S
C557 C52 0.349 . S
C572 C26 0.349 . S
C607 C29 0.348 . S
C622 C49 0.348 . S
C657 C4 0.350 . S
C672 C74 0.350 . S
