# Generated by pormake.
# Topology uoh, (4)-cn, num edge types: 1
# Building blocks:
#     Node 0, Type 0, BuildingBlock: QUQFOY_clean_sbu_3, # of connection points: 4
#     Node 1, Type 0, BuildingBlock: QUQFOY_clean_sbu_3, # of connection points: 4
#     Node 2, Type 0, BuildingBlock: QUQFOY_clean_sbu_3, # of connection points: 4
#     Node 3, Type 0, BuildingBlock: QUQFOY_clean_sbu_3, # of connection points: 4
#     Node 4, Type 0, BuildingBlock: QUQFOY_clean_sbu_3, # of connection points: 4
#     Node 5, Type 0, BuildingBlock: QUQFOY_clean_sbu_3, # of connection points: 4
#     Node 6, Type 0, BuildingBlock: QUQFOY_clean_sbu_3, # of connection points: 4
#     Node 7, Type 0, BuildingBlock: QUQFOY_clean_sbu_3, # of connection points: 4
#     Node 8, Type 0, BuildingBlock: QUQFOY_clean_sbu_3, # of connection points: 4
#     Node 9, Type 0, BuildingBlock: QUQFOY_clean_sbu_3, # of connection points: 4
#     Node 10, Type 0, BuildingBlock: QUQFOY_clean_sbu_3, # of connection points: 4
#     Node 11, Type 0, BuildingBlock: QUQFOY_clean_sbu_3, # of connection points: 4
#     Node 12, Type 0, BuildingBlock: QUQFOY_clean_sbu_3, # of connection points: 4
#     Node 13, Type 0, BuildingBlock: QUQFOY_clean_sbu_3, # of connection points: 4
#     Node 14, Type 0, BuildingBlock: QUQFOY_clean_sbu_3, # of connection points: 4
#     Node 15, Type 0, BuildingBlock: QUQFOY_clean_sbu_3, # of connection points: 4
#     Node 16, Type 0, BuildingBlock: QUQFOY_clean_sbu_3, # of connection points: 4
#     Node 17, Type 0, BuildingBlock: QUQFOY_clean_sbu_3, # of connection points: 4
#     Node 18, Type 0, BuildingBlock: QUQFOY_clean_sbu_3, # of connection points: 4
#     Node 19, Type 0, BuildingBlock: QUQFOY_clean_sbu_3, # of connection points: 4
#     Node 20, Type 0, BuildingBlock: QUQFOY_clean_sbu_3, # of connection points: 4
#     Node 21, Type 0, BuildingBlock: QUQFOY_clean_sbu_3, # of connection points: 4
#     Node 22, Type 0, BuildingBlock: QUQFOY_clean_sbu_3, # of connection points: 4
#     Node 23, Type 0, BuildingBlock: QUQFOY_clean_sbu_3, # of connection points: 4
#     Node 24, Type 0, BuildingBlock: QUQFOY_clean_sbu_3, # of connection points: 4
#     Node 25, Type 0, BuildingBlock: QUQFOY_clean_sbu_3, # of connection points: 4
#     Node 26, Type 0, BuildingBlock: QUQFOY_clean_sbu_3, # of connection points: 4
#     Node 27, Type 0, BuildingBlock: QUQFOY_clean_sbu_3, # of connection points: 4
#     Node 28, Type 0, BuildingBlock: QUQFOY_clean_sbu_3, # of connection points: 4
#     Node 29, Type 0, BuildingBlock: QUQFOY_clean_sbu_3, # of connection points: 4
#     Node 30, Type 0, BuildingBlock: QUQFOY_clean_sbu_3, # of connection points: 4
#     Node 31, Type 0, BuildingBlock: QUQFOY_clean_sbu_3, # of connection points: 4
#     Node 32, Type 0, BuildingBlock: QUQFOY_clean_sbu_3, # of connection points: 4
#     Node 33, Type 0, BuildingBlock: QUQFOY_clean_sbu_3, # of connection points: 4
#     Node 34, Type 0, BuildingBlock: QUQFOY_clean_sbu_3, # of connection points: 4
#     Node 35, Type 0, BuildingBlock: QUQFOY_clean_sbu_3, # of connection points: 4
#     Edge 36, Type (0, 0), BuildingBlock: KIFKEQ_clean_linker_1, # of connection points: 2
#     Edge 37, Type (0, 0), BuildingBlock: KIFKEQ_clean_linker_1, # of connection points: 2
#     Edge 38, Type (0, 0), BuildingBlock: KIFKEQ_clean_linker_1, # of connection points: 2
#     Edge 39, Type (0, 0), BuildingBlock: KIFKEQ_clean_linker_1, # of connection points: 2
#     Edge 40, Type (0, 0), BuildingBlock: KIFKEQ_clean_linker_1, # of connection points: 2
#     Edge 41, Type (0, 0), BuildingBlock: KIFKEQ_clean_linker_1, # of connection points: 2
#     Edge 42, Type (0, 0), BuildingBlock: KIFKEQ_clean_linker_1, # of connection points: 2
#     Edge 43, Type (0, 0), BuildingBlock: KIFKEQ_clean_linker_1, # of connection points: 2
#     Edge 44, Type (0, 0), BuildingBlock: KIFKEQ_clean_linker_1, # of connection points: 2
#     Edge 45, Type (0, 0), BuildingBlock: KIFKEQ_clean_linker_1, # of connection points: 2
#     Edge 46, Type (0, 0), BuildingBlock: KIFKEQ_clean_linker_1, # of connection points: 2
#     Edge 47, Type (0, 0), BuildingBlock: KIFKEQ_clean_linker_1, # of connection points: 2
#     Edge 48, Type (0, 0), BuildingBlock: KIFKEQ_clean_linker_1, # of connection points: 2
#     Edge 49, Type (0, 0), BuildingBlock: KIFKEQ_clean_linker_1, # of connection points: 2
#     Edge 50, Type (0, 0), BuildingBlock: KIFKEQ_clean_linker_1, # of connection points: 2
#     Edge 51, Type (0, 0), BuildingBlock: KIFKEQ_clean_linker_1, # of connection points: 2
#     Edge 52, Type (0, 0), BuildingBlock: KIFKEQ_clean_linker_1, # of connection points: 2
#     Edge 53, Type (0, 0), BuildingBlock: KIFKEQ_clean_linker_1, # of connection points: 2
#     Edge 54, Type (0, 0), BuildingBlock: KIFKEQ_clean_linker_1, # of connection points: 2
#     Edge 55, Type (0, 0), BuildingBlock: KIFKEQ_clean_linker_1, # of connection points: 2
#     Edge 56, Type (0, 0), BuildingBlock: KIFKEQ_clean_linker_1, # of connection points: 2
#     Edge 57, Type (0, 0), BuildingBlock: KIFKEQ_clean_linker_1, # of connection points: 2
#     Edge 58, Type (0, 0), BuildingBlock: KIFKEQ_clean_linker_1, # of connection points: 2
#     Edge 59, Type (0, 0), BuildingBlock: KIFKEQ_clean_linker_1, # of connection points: 2
#     Edge 60, Type (0, 0), BuildingBlock: KIFKEQ_clean_linker_1, # of connection points: 2
#     Edge 61, Type (0, 0), BuildingBlock: KIFKEQ_clean_linker_1, # of connection points: 2
#     Edge 62, Type (0, 0), BuildingBlock: KIFKEQ_clean_linker_1, # of connection points: 2
#     Edge 63, Type (0, 0), BuildingBlock: KIFKEQ_clean_linker_1, # of connection points: 2
#     Edge 64, Type (0, 0), BuildingBlock: KIFKEQ_clean_linker_1, # of connection points: 2
#     Edge 65, Type (0, 0), BuildingBlock: KIFKEQ_clean_linker_1, # of connection points: 2
#     Edge 66, Type (0, 0), BuildingBlock: KIFKEQ_clean_linker_1, # of connection points: 2
#     Edge 67, Type (0, 0), BuildingBlock: KIFKEQ_clean_linker_1, # of connection points: 2
#     Edge 68, Type (0, 0), BuildingBlock: KIFKEQ_clean_linker_1, # of connection points: 2
#     Edge 69, Type (0, 0), BuildingBlock: KIFKEQ_clean_linker_1, # of connection points: 2
#     Edge 70, Type (0, 0), BuildingBlock: KIFKEQ_clean_linker_1, # of connection points: 2
#     Edge 71, Type (0, 0), BuildingBlock: KIFKEQ_clean_linker_1, # of connection points: 2
#     Edge 72, Type (0, 0), BuildingBlock: KIFKEQ_clean_linker_1, # of connection points: 2
#     Edge 73, Type (0, 0), BuildingBlock: KIFKEQ_clean_linker_1, # of connection points: 2
#     Edge 74, Type (0, 0), BuildingBlock: KIFKEQ_clean_linker_1, # of connection points: 2
#     Edge 75, Type (0, 0), BuildingBlock: KIFKEQ_clean_linker_1, # of connection points: 2
#     Edge 76, Type (0, 0), BuildingBlock: KIFKEQ_clean_linker_1, # of connection points: 2
#     Edge 77, Type (0, 0), BuildingBlock: KIFKEQ_clean_linker_1, # of connection points: 2
#     Edge 78, Type (0, 0), BuildingBlock: KIFKEQ_clean_linker_1, # of connection points: 2
#     Edge 79, Type (0, 0), BuildingBlock: KIFKEQ_clean_linker_1, # of connection points: 2
#     Edge 80, Type (0, 0), BuildingBlock: KIFKEQ_clean_linker_1, # of connection points: 2
#     Edge 81, Type (0, 0), BuildingBlock: KIFKEQ_clean_linker_1, # of connection points: 2
#     Edge 82, Type (0, 0), BuildingBlock: KIFKEQ_clean_linker_1, # of connection points: 2
#     Edge 83, Type (0, 0), BuildingBlock: KIFKEQ_clean_linker_1, # of connection points: 2
#     Edge 84, Type (0, 0), BuildingBlock: KIFKEQ_clean_linker_1, # of connection points: 2
#     Edge 85, Type (0, 0), BuildingBlock: KIFKEQ_clean_linker_1, # of connection points: 2
#     Edge 86, Type (0, 0), BuildingBlock: KIFKEQ_clean_linker_1, # of connection points: 2
#     Edge 87, Type (0, 0), BuildingBlock: KIFKEQ_clean_linker_1, # of connection points: 2
#     Edge 88, Type (0, 0), BuildingBlock: KIFKEQ_clean_linker_1, # of connection points: 2
#     Edge 89, Type (0, 0), BuildingBlock: KIFKEQ_clean_linker_1, # of connection points: 2
#     Edge 90, Type (0, 0), BuildingBlock: KIFKEQ_clean_linker_1, # of connection points: 2
#     Edge 91, Type (0, 0), BuildingBlock: KIFKEQ_clean_linker_1, # of connection points: 2
#     Edge 92, Type (0, 0), BuildingBlock: KIFKEQ_clean_linker_1, # of connection points: 2
#     Edge 93, Type (0, 0), BuildingBlock: KIFKEQ_clean_linker_1, # of connection points: 2
#     Edge 94, Type (0, 0), BuildingBlock: KIFKEQ_clean_linker_1, # of connection points: 2
#     Edge 95, Type (0, 0), BuildingBlock: KIFKEQ_clean_linker_1, # of connection points: 2
#     Edge 96, Type (0, 0), BuildingBlock: KIFKEQ_clean_linker_1, # of connection points: 2
#     Edge 97, Type (0, 0), BuildingBlock: KIFKEQ_clean_linker_1, # of connection points: 2
#     Edge 98, Type (0, 0), BuildingBlock: KIFKEQ_clean_linker_1, # of connection points: 2
#     Edge 99, Type (0, 0), BuildingBlock: KIFKEQ_clean_linker_1, # of connection points: 2
#     Edge 100, Type (0, 0), BuildingBlock: KIFKEQ_clean_linker_1, # of connection points: 2
#     Edge 101, Type (0, 0), BuildingBlock: KIFKEQ_clean_linker_1, # of connection points: 2
#     Edge 102, Type (0, 0), BuildingBlock: KIFKEQ_clean_linker_1, # of connection points: 2
#     Edge 103, Type (0, 0), BuildingBlock: KIFKEQ_clean_linker_1, # of connection points: 2
#     Edge 104, Type (0, 0), BuildingBlock: KIFKEQ_clean_linker_1, # of connection points: 2
#     Edge 105, Type (0, 0), BuildingBlock: KIFKEQ_clean_linker_1, # of connection points: 2
#     Edge 106, Type (0, 0), BuildingBlock: KIFKEQ_clean_linker_1, # of connection points: 2
#     Edge 107, Type (0, 0), BuildingBlock: KIFKEQ_clean_linker_1, # of connection points: 2
# Relax obj value: 0.090
# Max RMSD: 0.144
# Mean RMSD: 0.144
data_MOF--net-uoh--node1-QUQFOY_clean_sbu_3--edge1-KIFKEQ_clean_linker_1
_symmetry_space_group_name_H-M    P1
_symmetry_Int_Tables_number       1
_symmetry_cell_setting            triclinic
loop_
_symmetry_equiv_pos_as_xyz
'x, y, z'
_cell_length_a     92.003389
_cell_length_b     92.094294
_cell_length_c     28.958668
_cell_angle_alpha  90.029467
_cell_angle_beta   90.07703
_cell_angle_gamma 119.93795
loop_
_atom_site_label
_atom_site_type_symbol
_atom_site_fract_x
_atom_site_fract_y
_atom_site_fract_z
_atom_type_partial_charge
C0 C 0.21914 0.10311 0.17798 0.0
O1 O 0.22217 0.0947 0.20726 0.0
Cd2 Cd 0.23717 0.1078 0.27689 0.0
O3 O 0.22309 0.11819 0.18657 0.0
Cd4 Cd 0.23553 0.13957 0.24703 0.0
C5 C 0.2717 0.13994 0.22469 0.0
O6 O 0.22316 0.12107 0.3127 0.0
O7 O 0.24338 0.1461 0.32757 0.0
O8 O 0.21365 0.14589 0.22875 0.0
C9 C 0.23153 0.1323 0.34244 0.0
O10 O 0.26569 0.12645 0.24805 0.0
C11 C 0.22307 0.1617 0.22897 0.0
O12 O 0.26309 0.14706 0.2176 0.0
O13 O 0.23861 0.16734 0.23609 0.0
C14 C 0.89133 0.11868 0.19557 0.0
O15 O 0.89935 0.13033 0.22462 0.0
Cd16 Cd 0.88526 0.13091 0.29379 0.0
O17 O 0.87646 0.1071 0.20431 0.0
Cd18 Cd 0.85496 0.09742 0.26412 0.0
C19 C 0.85261 0.13201 0.2408 0.0
O20 O 0.87346 0.10362 0.32996 0.0
O21 O 0.84815 0.0981 0.34473 0.0
O22 O 0.84986 0.06983 0.24342 0.0
C23 C 0.86196 0.09993 0.35946 0.0
O24 O 0.86596 0.14003 0.26464 0.0
C25 C 0.83398 0.06287 0.24397 0.0
O26 O 0.84622 0.11636 0.23397 0.0
O27 O 0.82775 0.07215 0.25278 0.0
C28 C 0.87907 0.77601 0.18276 0.0
O29 O 0.86738 0.77133 0.21226 0.0
Cd30 Cd 0.86656 0.75603 0.27986 0.0
O31 O 0.89121 0.77334 0.18941 0.0
Cd32 Cd 0.90087 0.76058 0.24764 0.0
C33 C 0.86649 0.72371 0.2212 0.0
O34 O 0.89367 0.77082 0.31617 0.0
O35 O 0.89934 0.75095 0.32673 0.0
O36 O 0.9289 0.7835 0.23272 0.0
C37 C 0.89684 0.76216 0.34407 0.0
O38 O 0.85843 0.72846 0.24696 0.0
C39 C 0.93577 0.7745 0.23157 0.0
O40 O 0.88208 0.73329 0.21386 0.0
O41 O 0.92622 0.75878 0.23606 0.0
C42 C 0.10739 0.22606 0.27485 0.0
O43 O 0.098 0.22767 0.24565 0.0
Cd44 Cd 0.11063 0.24191 0.17508 0.0
O45 O 0.12256 0.23072 0.26495 0.0
Cd46 Cd 0.14338 0.24223 0.20306 0.0
C47 C 0.14295 0.27789 0.22318 0.0
O48 O 0.12392 0.22755 0.14053 0.0
O49 O 0.1485 0.24767 0.12112 0.0
O50 O 0.14892 0.22057 0.22846 0.0
C51 C 0.13472 0.23503 0.10913 0.0
O52 O 0.12866 0.27059 0.20348 0.0
C53 C 0.16474 0.22909 0.22436 0.0
O54 O 0.15131 0.27038 0.22811 0.0
O55 O 0.17093 0.24425 0.21166 0.0
C56 C 0.76447 0.87905 0.26788 0.0
O57 O 0.7612 0.86787 0.23752 0.0
Cd58 Cd 0.74755 0.86777 0.16689 0.0
O59 O 0.7618 0.89109 0.25964 0.0
Cd60 Cd 0.75223 0.90263 0.19775 0.0
C61 C 0.71395 0.86925 0.21476 0.0
O62 O 0.76373 0.895 0.1327 0.0
O63 O 0.74564 0.90269 0.11647 0.0
O64 O 0.77583 0.92946 0.21908 0.0
C65 C 0.75633 0.89886 0.10227 0.0
O66 O 0.71949 0.86091 0.19335 0.0
C67 C 0.76776 0.93732 0.21863 0.0
O68 O 0.72344 0.88481 0.22263 0.0
O69 O 0.75219 0.92888 0.20949 0.0
C70 C 0.11773 0.89121 0.294 0.0
O71 O 0.12938 0.89936 0.26513 0.0
Cd72 Cd 0.13037 0.88624 0.19466 0.0
O73 O 0.10612 0.87639 0.2848 0.0
Cd74 Cd 0.09648 0.85533 0.22332 0.0
C75 C 0.13124 0.85274 0.24336 0.0
O76 O 0.10298 0.8748 0.15994 0.0
O77 O 0.097 0.84966 0.14153 0.0
O78 O 0.069 0.85037 0.24483 0.0
C79 C 0.09928 0.86382 0.12881 0.0
O80 O 0.13913 0.86639 0.22088 0.0
C81 C 0.06166 0.83455 0.24106 0.0
O82 O 0.11559 0.84619 0.25084 0.0
O83 O 0.07072 0.82818 0.23079 0.0
C84 C 0.75529 0.87446 0.7666 0.0
O85 O 0.75344 0.88332 0.73618 0.0
Cd86 Cd 0.74166 0.87154 0.66259 0.0
O87 O 0.75213 0.85966 0.75705 0.0
Cd88 Cd 0.74372 0.83989 0.69163 0.0
C89 C 0.70559 0.83625 0.69873 0.0
O90 O 0.75838 0.86047 0.63127 0.0
O91 O 0.74042 0.83542 0.60874 0.0
O92 O 0.76615 0.83544 0.71744 0.0
C93 C 0.7521 0.84999 0.59849 0.0
O94 O 0.71254 0.85096 0.68182 0.0
C95 C 0.75796 0.81959 0.71423 0.0
O96 O 0.71407 0.82905 0.70676 0.0
O97 O 0.7427 0.81294 0.70182 0.0
C98 C 0.10849 0.88404 0.79431 0.0
O99 O 0.09908 0.87323 0.76476 0.0
Cd100 Cd 0.11141 0.87052 0.69499 0.0
O101 O 0.12385 0.89413 0.78521 0.0
Cd102 Cd 0.14473 0.90245 0.72346 0.0
C103 C 0.14299 0.86582 0.74438 0.0
O104 O 0.12579 0.89788 0.65966 0.0
O105 O 0.15013 0.90124 0.64208 0.0
O106 O 0.15184 0.93049 0.74497 0.0
C107 C 0.13658 0.90039 0.62886 0.0
O108 O 0.12875 0.85915 0.7244 0.0
C109 C 0.16762 0.93672 0.74255 0.0
O110 O 0.15166 0.88163 0.74934 0.0
O111 O 0.17296 0.92675 0.73281 0.0
C112 C 0.11615 0.21878 0.77725 0.0
O113 O 0.12799 0.22256 0.74877 0.0
Cd114 Cd 0.12983 0.23818 0.68044 0.0
O115 O 0.10477 0.22237 0.76849 0.0
Cd116 Cd 0.09585 0.23509 0.70905 0.0
C117 C 0.1308 0.27163 0.73502 0.0
O118 O 0.10296 0.22414 0.64223 0.0
O119 O 0.09765 0.24421 0.62957 0.0
O120 O 0.06788 0.21182 0.71818 0.0
C121 C 0.09981 0.23261 0.6135 0.0
O122 O 0.13876 0.26625 0.71121 0.0
C123 C 0.06083 0.2205 0.72418 0.0
O124 O 0.11506 0.26256 0.74131 0.0
O125 O 0.07025 0.23634 0.72495 0.0
C126 C 0.88162 0.76195 0.6846 0.0
O127 O 0.89081 0.75998 0.71374 0.0
Cd128 Cd 0.87997 0.74844 0.7886 0.0
O129 O 0.86689 0.75867 0.69547 0.0
Cd130 Cd 0.84722 0.74925 0.7604 0.0
C131 C 0.84572 0.71184 0.7522 0.0
O132 O 0.86833 0.76478 0.81953 0.0
O133 O 0.8429 0.74822 0.84287 0.0
O134 O 0.84068 0.76998 0.73173 0.0
C135 C 0.85777 0.7595 0.85223 0.0
O136 O 0.8604 0.71911 0.76951 0.0
C137 C 0.8249 0.76091 0.73599 0.0
O138 O 0.83807 0.71994 0.7449 0.0
O139 O 0.81934 0.74601 0.75017 0.0
C140 C 0.2286 0.11568 0.68019 0.0
O141 O 0.23029 0.12675 0.7092 0.0
Cd142 Cd 0.24441 0.12892 0.78037 0.0
O143 O 0.23323 0.10514 0.69032 0.0
Cd144 Cd 0.24482 0.09643 0.75403 0.0
C145 C 0.28067 0.13239 0.7352 0.0
O146 O 0.22974 0.10142 0.81489 0.0
O147 O 0.24968 0.09698 0.83667 0.0
O148 O 0.22371 0.0688 0.72996 0.0
C149 C 0.23698 0.09823 0.84732 0.0
O150 O 0.27331 0.13949 0.75383 0.0
C151 C 0.23267 0.062 0.73505 0.0
O152 O 0.27312 0.11655 0.73044 0.0
O153 O 0.24781 0.07145 0.74749 0.0
C154 C 0.87813 0.10555 0.6953 0.0
O155 O 0.86642 0.09759 0.72413 0.0
Cd156 Cd 0.86573 0.11162 0.79342 0.0
O157 O 0.88981 0.12034 0.70432 0.0
Cd158 Cd 0.89977 0.14179 0.76446 0.0
C159 C 0.86553 0.14488 0.74106 0.0
O160 O 0.89281 0.12342 0.83045 0.0
O161 O 0.89878 0.14891 0.84474 0.0
O162 O 0.927 0.14491 0.75222 0.0
C163 C 0.89656 0.135 0.85979 0.0
O164 O 0.85745 0.13147 0.76445 0.0
C165 C 0.93481 0.1607 0.7476 0.0
O166 O 0.88119 0.15121 0.73406 0.0
O167 O 0.92614 0.16797 0.74901 0.0
C168 C 0.89378 0.44239 0.52199 0.0
O169 O 0.89596 0.43346 0.55147 0.0
Cd170 Cd 0.91023 0.44656 0.62179 0.0
O171 O 0.89785 0.45744 0.53146 0.0
Cd172 Cd 0.90866 0.47843 0.59324 0.0
C173 C 0.94539 0.48003 0.57387 0.0
O174 O 0.89528 0.4591 0.65636 0.0
O175 O 0.91452 0.48422 0.67511 0.0
O176 O 0.88507 0.48159 0.57411 0.0
C177 C 0.90252 0.47009 0.68755 0.0
O178 O 0.93858 0.46576 0.59348 0.0
C179 C 0.89291 0.49747 0.57267 0.0
O180 O 0.93729 0.48778 0.56853 0.0
O181 O 0.90868 0.50488 0.57923 0.0
C182 C 0.55623 0.44995 0.51308 0.0
O183 O 0.56473 0.46095 0.54329 0.0
Cd184 Cd 0.55131 0.46203 0.61319 0.0
O185 O 0.54107 0.4389 0.52107 0.0
Cd186 Cd 0.51951 0.42907 0.58114 0.0
C187 C 0.51884 0.46475 0.56247 0.0
O188 O 0.53788 0.43452 0.64708 0.0
O189 O 0.51281 0.42964 0.66197 0.0
O190 O 0.51477 0.40183 0.55889 0.0
C191 C 0.5266 0.43146 0.6768 0.0
O192 O 0.53241 0.47179 0.58577 0.0
C193 C 0.49888 0.3945 0.56037 0.0
O194 O 0.51155 0.44912 0.55369 0.0
O195 O 0.49235 0.40347 0.56997 0.0
C196 C 0.54596 0.10559 0.52293 0.0
O197 O 0.53498 0.10373 0.55245 0.0
Cd198 Cd 0.53339 0.08961 0.62319 0.0
O199 O 0.55676 0.10124 0.53239 0.0
Cd200 Cd 0.5664 0.08999 0.59443 0.0
C201 C 0.53045 0.05396 0.57499 0.0
O202 O 0.56095 0.10387 0.65775 0.0
O203 O 0.56588 0.08395 0.67591 0.0
O204 O 0.5941 0.11172 0.57222 0.0
C205 C 0.56415 0.09616 0.68878 0.0
O206 O 0.52324 0.06099 0.59495 0.0
C207 C 0.60094 0.10272 0.57486 0.0
O208 O 0.54629 0.06176 0.56958 0.0
O209 O 0.59149 0.08737 0.58504 0.0
C210 C 0.76462 0.54678 0.61974 0.0
O211 O 0.75612 0.5506 0.59289 0.0
Cd212 Cd 0.76915 0.56852 0.52776 0.0
O213 O 0.77984 0.55145 0.61054 0.0
Cd214 Cd 0.80108 0.56655 0.55132 0.0
C215 C 0.80104 0.60144 0.58621 0.0
O216 O 0.78317 0.55703 0.48383 0.0
O217 O 0.80798 0.57847 0.47429 0.0
O218 O 0.80779 0.54445 0.54976 0.0
C219 C 0.79455 0.56694 0.45643 0.0
O220 O 0.78747 0.59596 0.56325 0.0
C221 C 0.82334 0.55369 0.55782 0.0
O222 O 0.80841 0.5929 0.58927 0.0
O223 O 0.82868 0.56917 0.56496 0.0
C224 C 0.44129 0.21251 0.61119 0.0
O225 O 0.43788 0.20104 0.5817 0.0
Cd226 Cd 0.42349 0.19997 0.51171 0.0
O227 O 0.43813 0.22421 0.60258 0.0
Cd228 Cd 0.42678 0.23414 0.54151 0.0
C229 C 0.38975 0.19947 0.56373 0.0
O230 O 0.43885 0.22723 0.47664 0.0
O231 O 0.41935 0.23304 0.46058 0.0
O232 O 0.44907 0.26212 0.56023 0.0
C233 C 0.43096 0.23054 0.44639 0.0
O234 O 0.39521 0.19144 0.54049 0.0
C235 C 0.43989 0.26881 0.55903 0.0
O236 O 0.39894 0.21513 0.57062 0.0
O237 O 0.42436 0.25918 0.55129 0.0
C238 C 0.78259 0.22289 0.61542 0.0
O239 O 0.79376 0.2309 0.58524 0.0
Cd240 Cd 0.79428 0.21734 0.51543 0.0
O241 O 0.77113 0.20782 0.60826 0.0
Cd242 Cd 0.76124 0.18584 0.54869 0.0
C243 C 0.79714 0.18528 0.56754 0.0
O244 O 0.76635 0.20422 0.48332 0.0
O245 O 0.76097 0.17908 0.46741 0.0
O246 O 0.73378 0.18048 0.5717 0.0
C247 C 0.76272 0.19289 0.4533 0.0
O248 O 0.80428 0.19897 0.54505 0.0
C249 C 0.72678 0.16463 0.57038 0.0
O250 O 0.7814 0.17776 0.5748 0.0
O251 O 0.73604 0.15844 0.56061 0.0
C252 C 0.43398 0.21502 0.10988 0.0
O253 O 0.4321 0.2243 0.08097 0.0
Cd254 Cd 0.41729 0.21246 0.01066 0.0
O255 O 0.42927 0.19982 0.10002 0.0
Cd256 Cd 0.41734 0.17939 0.03656 0.0
C257 C 0.38152 0.17957 0.05801 0.0
O258 O 0.43111 0.19913 0.97477 0.0
O259 O 0.41094 0.17468 0.95439 0.0
O260 O 0.44007 0.17419 0.04868 0.0
C261 C 0.4234 0.18865 0.9428 0.0
O262 O 0.38884 0.19399 0.03923 0.0
C263 C 0.43132 0.15836 0.0511 0.0
O264 O 0.38902 0.17117 0.06214 0.0
O265 O 0.41548 0.15193 0.04902 0.0
C266 C 0.77091 0.21096 0.11705 0.0
O267 O 0.76228 0.19961 0.08774 0.0
Cd268 Cd 0.77515 0.19821 0.01707 0.0
O269 O 0.78587 0.22223 0.10776 0.0
Cd270 Cd 0.80703 0.23231 0.04662 0.0
C271 C 0.80879 0.19711 0.06591 0.0
O272 O 0.78749 0.22561 0.98248 0.0
O273 O 0.81343 0.23399 0.9653 0.0
O274 O 0.8118 0.25947 0.07052 0.0
C275 C 0.79884 0.23024 0.95201 0.0
O276 O 0.79456 0.1894 0.04596 0.0
C277 C 0.82768 0.26676 0.06839 0.0
O278 O 0.81627 0.21293 0.07113 0.0
O279 O 0.83411 0.2578 0.05779 0.0
C280 C 0.7827 0.56472 0.11436 0.0
O281 O 0.79378 0.56581 0.08627 0.0
Cd282 Cd 0.79525 0.57768 0.01173 0.0
O283 O 0.77198 0.56883 0.10195 0.0
Cd284 Cd 0.76282 0.57861 0.03544 0.0
C285 C 0.79901 0.61493 0.04871 0.0
O286 O 0.76747 0.56198 0.97847 0.0
O287 O 0.76259 0.58115 0.95226 0.0
O288 O 0.73539 0.55798 0.06221 0.0
C289 C 0.76381 0.56824 0.94449 0.0
O290 O 0.80602 0.60718 0.03194 0.0
C291 C 0.72845 0.56672 0.0553 0.0
O292 O 0.78319 0.60745 0.05425 0.0
O293 O 0.73773 0.58154 0.04047 0.0
C294 C 0.55461 0.1038 0.02365 0.0
O295 O 0.56422 0.10246 0.05269 0.0
Cd296 Cd 0.55232 0.08673 0.12175 0.0
O297 O 0.53916 0.09802 0.0328 0.0
Cd298 Cd 0.51812 0.08451 0.09368 0.0
C299 C 0.52136 0.05037 0.07078 0.0
O300 O 0.53696 0.09853 0.15727 0.0
O301 O 0.51269 0.07753 0.17519 0.0
O302 O 0.51199 0.10646 0.07969 0.0
C303 C 0.5263 0.09019 0.18823 0.0
O304 O 0.53555 0.0583 0.09087 0.0
C305 C 0.4962 0.09731 0.07651 0.0
O306 O 0.51212 0.05695 0.0663 0.0
O307 O 0.49021 0.08155 0.07928 0.0
C308 C 0.88689 0.44843 0.02 0.0
O309 O 0.89029 0.45991 0.04942 0.0
Cd310 Cd 0.90512 0.46095 0.11866 0.0
O311 O 0.89031 0.43691 0.02848 0.0
Cd312 Cd 0.9021 0.42724 0.08889 0.0
C313 C 0.9389 0.46188 0.06574 0.0
O314 O 0.89022 0.4338 0.15496 0.0
O315 O 0.91022 0.42854 0.16918 0.0
O316 O 0.87952 0.39942 0.07066 0.0
C317 C 0.89843 0.43057 0.18437 0.0
O318 O 0.93339 0.46979 0.08934 0.0
C319 C 0.88849 0.39251 0.07136 0.0
O320 O 0.92979 0.44622 0.05871 0.0
O321 O 0.90409 0.40195 0.07859 0.0
C322 C 0.54647 0.44633 0.01403 0.0
O323 O 0.53538 0.43786 0.044 0.0
Cd324 Cd 0.53549 0.45015 0.11727 0.0
O325 O 0.55814 0.46112 0.02324 0.0
Cd326 Cd 0.5685 0.48162 0.08628 0.0
C327 C 0.53305 0.48371 0.07628 0.0
O328 O 0.56344 0.46202 0.14875 0.0
O329 O 0.56939 0.48703 0.16857 0.0
O330 O 0.59596 0.48747 0.06168 0.0
C331 C 0.56742 0.47291 0.18034 0.0
O332 O 0.52577 0.46986 0.09801 0.0
C333 C 0.60278 0.5033 0.06384 0.0
O334 O 0.5485 0.49045 0.06577 0.0
O335 O 0.59342 0.50923 0.07501 0.0
C336 C 0.53065 0.76075 0.78038 0.0
O337 O 0.53209 0.74819 0.79133 0.0
Cd338 Cd 0.54969 0.74974 0.8548 0.0
O339 O 0.53805 0.77414 0.80405 0.0
Cd340 Cd 0.55587 0.78503 0.87236 0.0
C341 C 0.58729 0.78261 0.82082 0.0
O342 O 0.54281 0.76045 0.92186 0.0
O343 O 0.56787 0.7799 0.94066 0.0
O344 O 0.53949 0.79655 0.90426 0.0
C345 C 0.55445 0.76666 0.95172 0.0
O346 O 0.57899 0.76701 0.82994 0.0
C347 C 0.55078 0.81182 0.90107 0.0
O348 O 0.58126 0.79209 0.8296 0.0
O349 O 0.56477 0.8149 0.88423 0.0
C350 C 0.21947 0.7811 0.86022 0.0
O351 O 0.22781 0.7925 0.88966 0.0
Cd352 Cd 0.21483 0.79329 0.9606 0.0
O353 O 0.20455 0.76963 0.86907 0.0
Cd354 Cd 0.18343 0.75993 0.93026 0.0
C355 C 0.18187 0.79526 0.91209 0.0
O356 O 0.20277 0.76561 -0.0064 0.0
O357 O 0.17774 0.75997 0.01223 0.0
O358 O 0.17743 0.73227 0.90745 0.0
C359 C 0.19183 0.76193 0.02476 0.0
O360 O 0.19554 0.80284 0.9348 0.0
C361 C 0.16159 0.7256 0.90933 0.0
O362 O 0.17503 0.77963 0.90417 0.0
O363 O 0.15576 0.73512 0.91963 0.0
C364 C 0.20816 0.43185 0.85977 0.0
O365 O 0.19684 0.4282 0.88984 0.0
Cd366 Cd 0.19719 0.4146 0.95973 0.0
O367 O 0.22023 0.42913 0.86736 0.0
Cd368 Cd 0.23128 0.4185 0.92784 0.0
C369 C 0.19717 0.38091 0.90779 0.0
O370 O 0.2247 0.43045 -0.00653 0.0
O371 O 0.23117 0.41136 0.0088 0.0
O372 O 0.25776 0.44299 0.91228 0.0
C373 C 0.22883 0.42305 0.0232 0.0
O374 O 0.18934 0.38682 0.93 0.0
C375 C 0.26634 0.4357 0.91026 0.0
O376 O 0.21289 0.38981 0.90076 0.0
O377 O 0.25839 0.41981 0.91386 0.0
C378 C 0.44841 0.89145 0.95712 0.0
O379 O 0.44023 0.89405 0.92605 0.0
Cd380 Cd 0.45389 0.90705 0.85493 0.0
O381 O 0.46328 0.89449 0.94939 0.0
Cd382 Cd 0.48504 0.90397 0.8899 0.0
C383 C 0.48745 0.94147 0.90522 0.0
O384 O 0.46632 0.89145 0.82482 0.0
O385 O 0.49196 0.90984 0.80828 0.0
O386 O 0.48736 0.88015 0.91323 0.0
C387 C 0.47759 0.89864 0.79438 0.0
O388 O 0.47393 0.93541 0.88178 0.0
C389 C 0.50325 0.88769 0.9154 0.0
O390 O 0.49414 0.9326 0.91471 0.0
O391 O 0.51101 0.90333 0.90692 0.0
C392 C 0.1003 0.54622 0.94973 0.0
O393 O 0.09861 0.53518 0.92059 0.0
Cd394 Cd 0.0844 0.53343 0.8497 0.0
O395 O 0.09564 0.55673 0.93979 0.0
Cd396 Cd 0.08402 0.56578 0.87726 0.0
C397 C 0.04817 0.52979 0.89572 0.0
O398 O 0.09889 0.56103 0.8153 0.0
O399 O 0.07889 0.56562 0.79506 0.0
O400 O 0.10544 0.59307 0.90245 0.0
C401 C 0.09153 0.56439 0.78356 0.0
O402 O 0.05553 0.52276 0.87659 0.0
C403 C 0.09666 0.60012 0.89859 0.0
O404 O 0.05573 0.54561 0.90096 0.0
O405 O 0.08149 0.59096 0.88602 0.0
C406 C 0.44507 0.565 -0.00726 0.0
O407 O 0.45628 0.57424 0.96394 0.0
Cd408 Cd 0.46067 0.56305 0.89446 0.0
O409 O 0.43467 0.54975 0.98301 0.0
Cd410 Cd 0.42725 0.52986 0.91807 0.0
C411 C 0.463 0.52983 0.9419 0.0
O412 O 0.43454 0.54921 0.85405 0.0
O413 O 0.43131 0.52481 0.83813 0.0
O414 O 0.39848 0.5233 0.92073 0.0
C415 C 0.43311 0.53862 0.82377 0.0
O416 O 0.4703 0.54432 0.92346 0.0
C417 C 0.39213 0.50757 0.92455 0.0
O418 O 0.44709 0.52154 0.94554 0.0
O419 O 0.40224 0.502 0.92821 0.0
C420 C 0.10822 0.56081 0.45211 0.0
O421 O 0.10475 0.56897 0.42313 0.0
Cd422 Cd 0.08958 0.5553 0.35414 0.0
O423 O 0.10459 0.54583 0.44344 0.0
Cd424 Cd 0.0923 0.52436 0.38333 0.0
C425 C 0.05569 0.52276 0.4072 0.0
O426 O 0.10414 0.54275 0.31718 0.0
O427 O 0.08405 0.51756 0.30317 0.0
O428 O 0.11489 0.51905 0.40146 0.0
C429 C 0.09583 0.53132 0.28785 0.0
O430 O 0.06127 0.53616 0.3836 0.0
C431 C 0.10596 0.5032 0.40042 0.0
O432 O 0.0647 0.51606 0.41409 0.0
O433 O 0.09036 0.49706 0.39303 0.0
C434 C 0.45067 0.55996 0.48657 0.0
O435 O 0.44081 0.54973 0.45651 0.0
Cd436 Cd 0.45068 0.54811 0.38157 0.0
O437 O 0.46591 0.57027 0.47667 0.0
Cd438 Cd 0.48599 0.57954 0.41229 0.0
C439 C 0.48249 0.54119 0.41791 0.0
O440 O 0.46532 0.57665 0.35536 0.0
O441 O 0.48928 0.58171 0.32865 0.0
O442 O 0.49584 0.60702 0.44635 0.0
C443 C 0.47498 0.58009 0.32099 0.0
O444 O 0.46795 0.53545 0.40021 0.0
C445 C 0.51125 0.61251 0.43792 0.0
O446 O 0.49164 0.55677 0.42636 0.0
O447 O 0.51505 0.60244 0.41878 0.0
C448 C 0.4532 0.89316 0.45917 0.0
O449 O 0.46466 0.8968 0.42953 0.0
Cd450 Cd 0.46501 0.91042 0.3587 0.0
O451 O 0.44102 0.89559 0.45027 0.0
Cd452 Cd 0.43041 0.90573 0.38729 0.0
C453 C 0.46395 0.94381 0.4074 0.0
O454 O 0.438 0.89418 0.3227 0.0
O455 O 0.43161 0.91322 0.30604 0.0
O456 O 0.40289 0.88182 0.39863 0.0
C457 C 0.43435 0.90172 0.29221 0.0
O458 O 0.47234 0.93858 0.38494 0.0
C459 C 0.39527 0.89006 0.4022 0.0
O460 O 0.44838 0.93419 0.41491 0.0
O461 O 0.40417 0.90594 0.40093 0.0
C462 C 0.22272 0.43616 0.35798 0.0
O463 O 0.23026 0.432 0.38728 0.0
Cd464 Cd 0.21625 0.41767 0.45703 0.0
O465 O 0.20807 0.43366 0.36633 0.0
Cd466 Cd 0.18624 0.42273 0.42539 0.0
C467 C 0.18259 0.38493 0.40345 0.0
O468 O 0.20486 0.43357 0.492 0.0
O469 O 0.17853 0.41651 0.50575 0.0
O470 O 0.1825 0.4461 0.40437 0.0
C471 C 0.19304 0.42669 0.52108 0.0
O472 O 0.19592 0.38992 0.42718 0.0
C473 C 0.16658 0.43777 0.40441 0.0
O474 O 0.1766 0.39456 0.39631 0.0
O475 O 0.15973 0.42216 0.41251 0.0
C476 C 0.55022 0.76789 0.28651 0.0
O477 O 0.54725 0.77941 0.29852 0.0
Cd478 Cd 0.55825 0.793 0.37051 0.0
O479 O 0.55748 0.76282 0.31419 0.0
Cd480 Cd 0.56765 0.76641 0.39413 0.0
C481 C 0.59957 0.80299 0.3592 0.0
O482 O 0.5459 0.77091 0.42731 0.0
O483 O 0.56788 0.77819 0.46955 0.0
O484 O 0.55393 0.73638 0.38554 0.0
C485 C 0.55291 0.77527 0.46646 0.0
O486 O 0.58895 0.80804 0.3588 0.0
C487 C 0.5638 0.7342 0.41137 0.0
O488 O 0.59507 0.78798 0.37023 0.0
O489 O 0.57573 0.74712 0.43026 0.0
C490 C 0.21342 0.77124 0.35861 0.0
O491 O 0.20228 0.76245 0.38811 0.0
Cd492 Cd 0.20025 0.77563 0.45709 0.0
O493 O 0.22429 0.78639 0.36755 0.0
Cd494 Cd 0.23385 0.80751 0.42909 0.0
C495 C 0.19869 0.80875 0.40599 0.0
O496 O 0.22727 0.78881 0.49414 0.0
O497 O 0.23229 0.81391 0.50965 0.0
O498 O 0.26142 0.81141 0.41781 0.0
C499 C 0.23025 0.80001 0.52412 0.0
O500 O 0.19117 0.79458 0.42615 0.0
C501 C 0.26894 0.82722 0.41368 0.0
O502 O 0.21457 0.81655 0.40145 0.0
O503 O 0.25995 0.83414 0.41461 0.0
H504 H 0.20928 0.0987 0.87894 0.0
H505 H 0.24997 0.09122 0.92303 0.0
H506 H 0.199 0.09469 0.95822 0.0
H507 H 0.23994 0.08757 0.00212 0.0
H508 H 0.2177 0.07537 0.13869 0.0
H509 H 0.21756 0.07012 0.05609 0.0
H510 H 0.20962 0.11169 0.02746 0.0
H511 H 0.20934 0.11667 0.10959 0.0
C512 C 0.216 0.09617 0.90554 0.0
C513 C 0.23055 0.09549 0.89496 0.0
C514 C 0.21008 0.09381 0.95084 0.0
C515 C 0.21861 0.09074 -0.01363 0.0
C516 C 0.23288 0.08959 0.97542 0.0
C517 C 0.23878 0.09191 0.93019 0.0
C518 C 0.21533 0.083 0.11481 0.0
C519 C 0.21398 0.09671 0.13055 0.0
C520 C 0.21539 0.08008 0.06751 0.0
C521 C 0.21404 0.09078 0.03535 0.0
C522 C 0.21073 0.10324 0.05131 0.0
C523 C 0.21067 0.10616 0.09849 0.0
H524 H 0.90199 0.15642 0.93124 0.0
H525 H 0.89719 0.1084 0.89884 0.0
H526 H 0.90543 0.15218 0.01254 0.0
H527 H 0.90117 0.10437 0.98008 0.0
H528 H 0.87925 0.09436 0.12977 0.0
H529 H 0.88406 0.09847 0.04742 0.0
H530 H 0.9229 0.14973 0.0713 0.0
H531 H 0.9177 0.14573 0.15422 0.0
C532 C 0.90185 0.14504 0.94147 0.0
C533 C 0.89906 0.13263 0.90886 0.0
C534 C 0.90406 0.1427 -0.01203 0.0
C535 C 0.90364 0.12795 0.00276 0.0
C536 C 0.90139 0.11579 0.96983 0.0
C537 C 0.89906 0.11808 0.92335 0.0
C538 C 0.88912 0.1064 0.11763 0.0
C539 C 0.89781 0.11985 0.14836 0.0
C540 C 0.89196 0.10873 0.0703 0.0
C541 C 0.90361 0.12455 0.05277 0.0
C542 C 0.91355 0.13751 0.08383 0.0
C543 C 0.91069 0.13517 0.13133 0.0
H544 H 0.9034 0.79538 0.12064 0.0
H545 H 0.84974 0.76776 0.1399 0.0
H546 H 0.89938 0.79704 0.03803 0.0
H547 H 0.8456 0.76813 0.0578 0.0
H548 H 0.83906 0.76718 0.90829 0.0
H549 H 0.84566 0.77821 -0.01337 0.0
H550 H 0.89276 0.77835 0.97897 0.0
H551 H 0.88662 0.76883 0.89932 0.0
C552 C 0.89075 0.78997 0.10722 0.0
C553 C 0.87689 0.78124 0.13645 0.0
C554 C 0.88841 0.79069 0.05979 0.0
C555 C 0.87217 0.78222 0.04058 0.0
C556 C 0.85833 0.77491 0.07073 0.0
C557 C 0.86068 0.77462 0.11819 0.0
C558 C 0.8509 0.76983 0.92348 0.0
C559 C 0.86225 0.76695 0.89847 0.0
C560 C 0.85469 0.77608 0.96844 0.0
C561 C 0.86964 0.77894 -0.01005 0.0
C562 C 0.88125 0.77662 0.96381 0.0
C563 C 0.87768 0.77093 0.91826 0.0
H564 H 0.12207 0.21646 0.34024 0.0
H565 H 0.0802 0.22458 0.31788 0.0
H566 H 0.11719 0.21491 0.42283 0.0
H567 H 0.07507 0.22265 0.40101 0.0
H568 H 0.10174 0.20722 0.57085 0.0
H569 H 0.09925 0.20088 0.4885 0.0
H570 H 0.09169 0.24282 0.46178 0.0
H571 H 0.09379 0.24893 0.54412 0.0
C572 C 0.11153 0.21746 0.35291 0.0
C573 C 0.10171 0.22096 0.3227 0.0
C574 C 0.10866 0.21646 0.40028 0.0
C575 C 0.09592 0.21894 0.41842 0.0
C576 C 0.08519 0.22101 0.38793 0.0
C577 C 0.08803 0.22196 0.34036 0.0
C578 C 0.09946 0.21503 0.54738 0.0
C579 C 0.09816 0.2287 0.5638 0.0
C580 C 0.098 0.21137 0.50029 0.0
C581 C 0.09524 0.22133 0.46872 0.0
C582 C 0.09352 0.23473 0.48533 0.0
C583 C 0.09495 0.23837 0.53242 0.0
H584 H 0.76769 0.85302 0.3019 0.0
H585 H 0.77143 0.90007 0.34133 0.0
H586 H 0.76898 0.84667 0.38303 0.0
H587 H 0.77223 0.89351 0.42204 0.0
H588 H 0.77727 0.88 0.5667 0.0
H589 H 0.7855 0.88807 0.48651 0.0
H590 H 0.74764 0.83862 0.44193 0.0
H591 H 0.73975 0.83047 0.52178 0.0
C592 C 0.76913 0.86216 0.32774 0.0
C593 C 0.76909 0.87689 0.31524 0.0
C594 C 0.76976 0.85847 0.37421 0.0
C595 C 0.77035 0.86942 0.40896 0.0
C596 C 0.77183 0.88481 0.39618 0.0
C597 C 0.77125 0.88853 0.34979 0.0
C598 C 0.77084 0.87083 0.53973 0.0
C599 C 0.75773 0.85467 0.5504 0.0
C600 C 0.77555 0.87544 0.49386 0.0
C601 C 0.76722 0.86399 0.45786 0.0
C602 C 0.75451 0.84766 0.46883 0.0
C603 C 0.74984 0.84304 0.5146 0.0
H604 H 0.15755 0.90602 0.55644 0.0
H605 H 0.10906 0.89976 0.59103 0.0
H606 H 0.15231 0.90832 0.47526 0.0
H607 H 0.10394 0.90241 0.50954 0.0
H608 H 0.09397 0.87813 0.36131 0.0
H609 H 0.09838 0.88405 0.44334 0.0
H610 H 0.14832 0.92501 0.41616 0.0
H611 H 0.14407 0.91882 0.33372 0.0
C612 C 0.14584 0.90532 0.54672 0.0
C613 C 0.13362 0.90248 0.57996 0.0
C614 C 0.14293 0.90686 0.50025 0.0
C615 C 0.12773 0.90562 0.48605 0.0
C616 C 0.11571 0.90331 0.51949 0.0
C617 C 0.11863 0.90176 0.56606 0.0
C618 C 0.10576 0.88866 0.37263 0.0
C619 C 0.11883 0.89774 0.34118 0.0
C620 C 0.10824 0.89214 0.41972 0.0
C621 C 0.12382 0.90478 0.43621 0.0
C622 C 0.1363 0.91495 0.40438 0.0
C623 C 0.13382 0.91148 0.35717 0.0
H624 H 0.77754 0.88989 0.06208 0.0
H625 H 0.74148 0.90552 0.03029 0.0
H626 H 0.78094 0.88669 0.97976 0.0
H627 H 0.74463 0.902 0.94832 0.0
H628 H 0.76042 0.90426 0.8018 0.0
H629 H 0.76386 0.91263 0.8828 0.0
H630 H 0.76312 0.86689 0.92063 0.0
H631 H 0.76005 0.85868 0.83991 0.0
C632 C 0.77041 0.89271 0.03751 0.0
C633 C 0.75912 0.8978 0.05258 0.0
C634 C 0.77234 0.89085 -0.00956 0.0
C635 C 0.76303 0.89406 0.95761 0.0
C636 C 0.75215 0.89966 0.97272 0.0
C637 C 0.75023 0.90152 0.01972 0.0
C638 C 0.76128 0.89613 0.82732 0.0
C639 C 0.75974 0.8807 0.81447 0.0
C640 C 0.76317 0.90089 0.87371 0.0
C641 C 0.76356 0.89033 0.90809 0.0
C642 C 0.76298 0.87536 0.89495 0.0
C643 C 0.7611 0.87061 0.84864 0.0
H644 H 0.10291 0.89278 0.09246 0.0
H645 H 0.09142 0.84267 0.05545 0.0
H646 H 0.10075 0.89877 0.01145 0.0
H647 H 0.08959 0.84875 0.97462 0.0
H648 H 0.07978 0.85936 0.83418 0.0
H649 H 0.07402 0.85514 0.9168 0.0
H650 H 0.11845 0.90274 0.94461 0.0
H651 H 0.12401 0.90712 0.86244 0.0
C652 C 0.09988 0.88304 0.06705 0.0
C653 C 0.09754 0.86733 0.08013 0.0
C654 C 0.09861 0.88646 0.02075 0.0
C655 C 0.09496 0.87423 -0.01326 0.0
C656 C 0.09212 0.85835 0.00011 0.0
C657 C 0.09339 0.85493 0.04634 0.0
C658 C 0.08802 0.86915 0.85786 0.0
C659 C 0.10255 0.8834 0.84194 0.0
C660 C 0.08478 0.86667 0.90515 0.0
C661 C 0.09598 0.87844 0.93713 0.0
C662 C 0.10957 0.89344 0.92086 0.0
C663 C 0.11282 0.8959 0.8737 0.0
H664 H 0.09184 0.20709 0.84309 0.0
H665 H 0.14272 0.21824 0.81833 0.0
H666 H 0.09624 0.20693 0.92555 0.0
H667 H 0.14697 0.2176 0.90128 0.0
H668 H 0.15537 0.24888 0.03525 0.0
H669 H 0.15024 0.23913 0.95577 0.0
H670 H 0.10256 0.19686 -0.00458 0.0
H671 H 0.10754 0.20689 0.0751 0.0
C672 C 0.10379 0.20892 0.85519 0.0
C673 C 0.1171 0.21318 0.82432 0.0
C674 C 0.10629 0.20873 0.90258 0.0
C675 C 0.12211 0.2127 0.91995 0.0
C676 C 0.13477 0.21492 0.88882 0.0
C677 C 0.13229 0.21514 0.8413 0.0
C678 C 0.14383 0.23746 0.02708 0.0
C679 C 0.13175 0.22879 0.06122 0.0
C680 C 0.14099 0.23172 0.98162 0.0
C681 C 0.12603 0.21715 0.96933 0.0
C682 C 0.11416 0.20818 0.00381 0.0
C683 C 0.11699 0.21396 0.04934 0.0
H684 H 0.90206 0.74462 0.41154 0.0
H685 H 0.89225 0.78539 0.39018 0.0
H686 H 0.90125 0.74794 0.49477 0.0
H687 H 0.89179 0.78894 0.47354 0.0
H688 H 0.86637 0.76999 0.61672 0.0
H689 H 0.87245 0.77249 0.53468 0.0
H690 H 0.91548 0.76658 0.56046 0.0
H691 H 0.90919 0.76371 0.64298 0.0
C692 C 0.89989 0.75439 0.42464 0.0
C693 C 0.89702 0.76462 0.3944 0.0
C694 C 0.8996 0.75641 0.47231 0.0
C695 C 0.89647 0.76871 0.49067 0.0
C696 C 0.89406 0.77924 0.46037 0.0
C697 C 0.89433 0.77721 0.41268 0.0
C698 C 0.87729 0.76948 0.60508 0.0
C699 C 0.88717 0.76641 0.63629 0.0
C700 C 0.88084 0.77103 0.55801 0.0
C701 C 0.89434 0.76956 0.54109 0.0
C702 C 0.90483 0.7675 0.57253 0.0
C703 C 0.9013 0.76598 0.61977 0.0
H704 H 0.22423 0.14009 0.63974 0.0
H705 H 0.2211 0.09244 0.61249 0.0
H706 H 0.22116 0.14345 0.55733 0.0
H707 H 0.21836 0.09596 0.53045 0.0
H708 H 0.24687 0.15441 0.41281 0.0
H709 H 0.24164 0.14931 0.49514 0.0
H710 H 0.20224 0.09868 0.46677 0.0
H711 H 0.20766 0.10369 0.38413 0.0
C712 C 0.22252 0.13017 0.61635 0.0
C713 C 0.22322 0.11615 0.63248 0.0
C714 C 0.22087 0.13215 0.56919 0.0
C715 C 0.2198 0.1201 0.53747 0.0
C716 C 0.2191 0.10544 0.55404 0.0
C717 C 0.22079 0.10348 0.60109 0.0
C718 C 0.23703 0.14222 0.4241 0.0
C719 C 0.22781 0.12938 0.39212 0.0
C720 C 0.23389 0.13936 0.47124 0.0
C721 C 0.22148 0.12361 0.48735 0.0
C722 C 0.21194 0.11091 0.45529 0.0
C723 C 0.21506 0.11378 0.40806 0.0
H724 H 0.85114 0.07906 0.65372 0.0
H725 H 0.9025 0.11765 0.62975 0.0
H726 H 0.84725 0.07364 0.57083 0.0
H727 H 0.89848 0.11262 0.54739 0.0
H728 H 0.88863 0.09931 0.39867 0.0
H729 H 0.89268 0.09541 0.48002 0.0
H730 H 0.84472 0.09093 0.51192 0.0
H731 H 0.84047 0.09432 0.43065 0.0
C732 C 0.86172 0.08606 0.63095 0.0
C733 C 0.87701 0.09904 0.6481 0.0
C734 C 0.85944 0.08307 0.58346 0.0
C735 C 0.87242 0.09298 0.5525 0.0
C736 C 0.88821 0.10474 0.57019 0.0
C737 C 0.89049 0.10771 0.61752 0.0
C738 C 0.87892 0.09739 0.42309 0.0
C739 C 0.86433 0.09734 0.40847 0.0
C740 C 0.88122 0.09511 0.46962 0.0
C741 C 0.86902 0.09284 0.50243 0.0
C742 C 0.85423 0.09233 0.48747 0.0
C743 C 0.85189 0.09451 0.44096 0.0
H744 H 0.87336 0.43339 0.2261 0.0
H745 H 0.91444 0.42454 0.25453 0.0
H746 H 0.86741 0.43201 0.30859 0.0
H747 H 0.90874 0.42354 0.33679 0.0
H748 H 0.89156 0.41448 0.48136 0.0
H749 H 0.88888 0.40818 0.39883 0.0
H750 H 0.88211 0.45064 0.37279 0.0
H751 H 0.88439 0.45669 0.45483 0.0
C752 C 0.88109 0.43112 0.24996 0.0
C753 C 0.8945 0.42928 0.23399 0.0
C754 C 0.87766 0.4303 0.29712 0.0
C755 C 0.88759 0.42764 0.32913 0.0
C756 C 0.90067 0.42531 0.31295 0.0
C757 C 0.90408 0.4261 0.26585 0.0
C758 C 0.88903 0.42217 0.45811 0.0
C759 C 0.8885 0.43626 0.47443 0.0
C760 C 0.88762 0.41864 0.41087 0.0
C761 C 0.88559 0.42909 0.37933 0.0
C762 C 0.88362 0.4423 0.39617 0.0
C763 C 0.88505 0.44584 0.44325 0.0
H764 H 0.57485 0.49353 0.25471 0.0
H765 H 0.56476 0.4441 0.21506 0.0
H766 H 0.57649 0.48702 0.33516 0.0
H767 H 0.56681 0.43769 0.29579 0.0
H768 H 0.54231 0.4273 0.44316 0.0
H769 H 0.54872 0.43253 0.36164 0.0
H770 H 0.59156 0.48082 0.39393 0.0
H771 H 0.58486 0.47577 0.47593 0.0
C772 C 0.57319 0.48134 0.26315 0.0
C773 C 0.56942 0.46924 0.22871 0.0
C774 C 0.57436 0.47767 0.30923 0.0
C775 C 0.57182 0.46184 0.32185 0.0
C776 C 0.56869 0.44995 0.28714 0.0
C777 C 0.56748 0.45361 0.24098 0.0
C778 C 0.55334 0.43888 0.43305 0.0
C779 C 0.56284 0.4513 0.4659 0.0
C780 C 0.55709 0.44183 0.38622 0.0
C781 C 0.57045 0.45724 0.3713 0.0
C782 C 0.58096 0.46898 0.40444 0.0
C783 C 0.57719 0.46603 0.45141 0.0
H784 H 0.51934 0.10579 0.48138 0.0
H785 H 0.56956 0.11512 0.45563 0.0
H786 H 0.51469 0.10572 0.39835 0.0
H787 H 0.56481 0.11474 0.37309 0.0
H788 H 0.55363 0.11754 0.22428 0.0
H789 H 0.55879 0.1264 0.30486 0.0
H790 H 0.51098 0.08391 0.34235 0.0
H791 H 0.50566 0.07523 0.26175 0.0
C792 C 0.52954 0.10831 0.45812 0.0
C793 C 0.54469 0.11012 0.4749 0.0
C794 C 0.52682 0.10812 0.41062 0.0
C795 C 0.53925 0.10987 0.37932 0.0
C796 C 0.55498 0.11337 0.39631 0.0
C797 C 0.55767 0.1135 0.44367 0.0
C798 C 0.54418 0.11014 0.24972 0.0
C799 C 0.52932 0.09558 0.23687 0.0
C800 C 0.54713 0.11525 0.29578 0.0
C801 C 0.53528 0.10589 0.32983 0.0
C802 C 0.52023 0.09156 0.31676 0.0
C803 C 0.51727 0.08645 0.2707 0.0
H804 H 0.77952 0.53746 0.68573 0.0
H805 H 0.73552 0.54175 0.6599 0.0
H806 H 0.77501 0.53744 0.76815 0.0
H807 H 0.73075 0.54126 0.74275 0.0
H808 H 0.76527 0.54051 0.91767 0.0
H809 H 0.75972 0.52787 0.84075 0.0
H810 H 0.74848 0.56548 0.79136 0.0
H811 H 0.75372 0.57785 0.86785 0.0
C812 C 0.76849 0.53772 0.69757 0.0
C813 C 0.75825 0.54028 0.66639 0.0
C814 C 0.76584 0.53761 0.74497 0.0
C815 C 0.75285 0.53993 0.76187 0.0
C816 C 0.74116 0.53995 0.73056 0.0
C817 C 0.74384 0.54012 0.68309 0.0
C818 C 0.76148 0.54596 0.89037 0.0
C819 C 0.76015 0.56031 0.89853 0.0
C820 C 0.75823 0.53868 0.84648 0.0
C821 C 0.75354 0.54559 0.81009 0.0
C822 C 0.75171 0.55961 0.81883 0.0
C823 C 0.75497 0.56688 0.86254 0.0
H824 H 0.44115 0.18531 0.64982 0.0
H825 H 0.4514 0.23551 0.68061 0.0
H826 H 0.44064 0.17967 0.73223 0.0
H827 H 0.4505 0.22974 0.76255 0.0
H828 H 0.45115 0.21639 0.91037 0.0
H829 H 0.46088 0.2226 0.83074 0.0
H830 H 0.41866 0.17544 0.78717 0.0
H831 H 0.40916 0.16906 0.86684 0.0
C832 C 0.44378 0.1953 0.67405 0.0
C833 C 0.44591 0.21073 0.65879 0.0
C834 C 0.44333 0.19201 0.72123 0.0
C835 C 0.44509 0.20411 0.75378 0.0
C836 C 0.44906 0.22013 0.73838 0.0
C837 C 0.4495 0.22342 0.69131 0.0
C838 C 0.44399 0.20732 0.88378 0.0
C839 C 0.42928 0.19232 0.89468 0.0
C840 C 0.44961 0.21086 0.83825 0.0
C841 C 0.44058 0.19949 0.80275 0.0
C842 C 0.42608 0.18432 0.81388 0.0
C843 C 0.42049 0.18076 0.85942 0.0
H844 H 0.75782 0.21806 0.67544 0.0
H845 H 0.8116 0.24255 0.66106 0.0
H846 H 0.76096 0.22382 0.75809 0.0
H847 H 0.81487 0.24706 0.74355 0.0
H848 H 0.81923 0.25506 0.89374 0.0
H849 H 0.81427 0.25816 0.81273 0.0
H850 H 0.76639 0.21214 0.82028 0.0
H851 H 0.77091 0.21013 0.90218 0.0
C852 C 0.77032 0.22492 0.69004 0.0
C853 C 0.78446 0.22978 0.66219 0.0
C854 C 0.77216 0.22802 0.73748 0.0
C855 C 0.78815 0.23548 0.75817 0.0
C856 C 0.80233 0.24144 0.72938 0.0
C857 C 0.80049 0.23881 0.68182 0.0
C858 C 0.80759 0.24576 0.87787 0.0
C859 C 0.79552 0.23224 0.90362 0.0
C860 C 0.80474 0.24746 0.83138 0.0
C861 C 0.79001 0.2353 0.80926 0.0
C862 C 0.77775 0.22199 0.83584 0.0
C863 C 0.78039 0.22065 0.88274 0.0
H864 H 0.45434 0.22461 0.40625 0.0
H865 H 0.41647 0.23787 0.37491 0.0
H866 H 0.45996 0.2245 0.3239 0.0
H867 H 0.4219 0.23749 0.29288 0.0
H868 H 0.44081 0.19906 0.17855 0.0
H869 H 0.44368 0.20575 0.26034 0.0
H870 H 0.4427 0.25125 0.23106 0.0
H871 H 0.4395 0.24442 0.14894 0.0
C872 C 0.44728 0.22757 0.3818 0.0
C873 C 0.43483 0.23106 0.3969 0.0
C874 C 0.45051 0.22752 0.33474 0.0
C875 C 0.4414 0.23103 0.30202 0.0
C876 C 0.42932 0.23502 0.3173 0.0
C877 C 0.42607 0.23503 0.36427 0.0
C878 C 0.44157 0.21068 0.18936 0.0
C879 C 0.43957 0.22104 0.15739 0.0
C880 C 0.44332 0.21457 0.23627 0.0
C881 C 0.44313 0.22889 0.25209 0.0
C882 C 0.44257 0.23997 0.21978 0.0
C883 C 0.44084 0.2361 0.17277 0.0
H884 H 0.75634 0.17138 0.38151 0.0
H885 H 0.76404 0.22052 0.41444 0.0
H886 H 0.7541 0.17637 0.30005 0.0
H887 H 0.76138 0.22537 0.33283 0.0
H888 H 0.74353 0.18469 0.15764 0.0
H889 H 0.73783 0.18055 0.24032 0.0
H890 H 0.77925 0.23034 0.26667 0.0
H891 H 0.78466 0.23463 0.18449 0.0
C892 C 0.75736 0.18318 0.37137 0.0
C893 C 0.76061 0.19565 0.40422 0.0
C894 C 0.75586 0.18596 0.32473 0.0
C895 C 0.75751 0.20126 0.31 0.0
C896 C 0.76019 0.21352 0.34311 0.0
C897 C 0.76175 0.21075 0.38978 0.0
C898 C 0.75108 0.19492 0.18101 0.0
C899 C 0.76475 0.20986 0.16467 0.0
C900 C 0.7479 0.1925 0.22836 0.0
C901 C 0.75831 0.20498 0.26002 0.0
C902 C 0.77097 0.22047 0.24325 0.0
C903 C 0.77414 0.22289 0.19605 0.0
H904 H 0.81721 0.58537 0.3898 0.0
H905 H 0.7673 0.54323 0.40946 0.0
H906 H 0.8138 0.58148 0.30644 0.0
H907 H 0.76401 0.5392 0.32606 0.0
H908 H 0.75845 0.55667 0.17898 0.0
H909 H 0.76116 0.55507 0.26198 0.0
H910 H 0.81072 0.56171 0.24376 0.0
H911 H 0.80814 0.56359 0.16027 0.0
C912 C 0.80555 0.57524 0.37631 0.0
C913 C 0.79247 0.56469 0.40606 0.0
C914 C 0.80367 0.5729 0.32864 0.0
C915 C 0.78868 0.55997 0.30986 0.0
C916 C 0.77567 0.54931 0.33965 0.0
C917 C 0.77755 0.55164 0.38732 0.0
C918 C 0.76982 0.5575 0.19254 0.0
C919 C 0.78318 0.56049 0.16319 0.0
C920 C 0.77132 0.55648 0.24011 0.0
C921 C 0.78623 0.55847 0.25928 0.0
C922 C 0.79919 0.5604 0.2298 0.0
C923 C 0.79766 0.56134 0.18206 0.0
H924 H 0.5601 0.12108 0.72677 0.0
H925 H 0.57257 0.08288 0.76086 0.0
H926 H 0.5622 0.12872 0.80833 0.0
H927 H 0.5744 0.09032 0.84201 0.0
H928 H 0.58382 0.10938 0.98317 0.0
H929 H 0.58981 0.11216 0.90057 0.0
H930 H 0.54445 0.11395 0.87493 0.0
H931 H 0.53863 0.11151 0.95715 0.0
C932 C 0.56337 0.11439 0.75163 0.0
C933 C 0.56597 0.10124 0.73761 0.0
C934 C 0.56461 0.11879 0.79821 0.0
C935 C 0.56854 0.11017 0.83146 0.0
C936 C 0.57167 0.09741 0.81711 0.0
C937 C 0.57039 0.09299 0.77068 0.0
C938 C 0.57542 0.1109 0.96003 0.0
C939 C 0.56055 0.10982 0.97647 0.0
C940 C 0.57879 0.11239 0.91275 0.0
C941 C 0.56741 0.11291 0.88133 0.0
C942 C 0.55347 0.11359 0.89828 0.0
C943 C 0.55008 0.11206 0.94543 0.0
H944 H 0.8751 0.44235 0.72158 0.0
H945 H 0.91652 0.4905 0.76212 0.0
H946 H 0.86568 0.43667 0.80157 0.0
H947 H 0.9074 0.48465 0.84211 0.0
H948 H 0.8764 0.42506 0.95156 0.0
H949 H 0.87649 0.43029 0.86955 0.0
H950 H 0.88602 0.48035 0.8984 0.0
H951 H 0.8864 0.47527 0.98094 0.0
C952 C 0.88219 0.45172 0.74759 0.0
C953 C 0.89668 0.46678 0.73576 0.0
C954 C 0.87676 0.44848 0.79333 0.0
C955 C 0.88576 0.46021 0.82816 0.0
C956 C 0.89999 0.47548 0.81601 0.0
C957 C 0.90536 0.47875 0.77026 0.0
C958 C 0.87807 0.43705 0.94056 0.0
C959 C 0.88184 0.4499 0.97265 0.0
C960 C 0.87802 0.44001 0.89342 0.0
C961 C 0.88166 0.45588 0.87748 0.0
C962 C 0.88359 0.46813 0.90975 0.0
C963 C 0.88365 0.46516 0.95702 0.0
H964 H 0.50512 0.42626 0.74774 0.0
H965 H 0.55463 0.43432 0.71791 0.0
H966 H 0.51048 0.42623 0.83001 0.0
H967 H 0.55986 0.43392 0.8004 0.0
H968 H 0.56928 0.46003 0.94458 0.0
H969 H 0.56453 0.45333 0.86299 0.0
H970 H 0.51535 0.4116 0.89335 0.0
H971 H 0.51995 0.41854 0.97541 0.0
C972 C 0.51708 0.42784 0.75876 0.0
C973 C 0.52954 0.43052 0.72646 0.0
C974 C 0.52008 0.42762 0.80589 0.0
C975 C 0.53559 0.43005 0.82168 0.0
C976 C 0.54785 0.43217 0.78925 0.0
C977 C 0.54485 0.43241 0.74207 0.0
C978 C 0.55756 0.44922 0.93405 0.0
C979 C 0.54487 0.44 0.96637 0.0
C980 C 0.55489 0.44531 0.88722 0.0
C981 C 0.53947 0.43208 0.8717 0.0
C982 C 0.52725 0.42206 0.90432 0.0
C983 C 0.52993 0.42596 0.95131 0.0
H984 H 0.51712 0.73607 0.71465 0.0
H985 H 0.52813 0.78667 0.74325 0.0
H986 H 0.51569 0.74083 0.63256 0.0
H987 H 0.52686 0.79137 0.66103 0.0
H988 H 0.56561 0.79532 0.54131 0.0
H989 H 0.55186 0.7919 0.61549 0.0
H990 H 0.50591 0.75135 0.5596 0.0
H991 H 0.51964 0.75517 0.4844 0.0
C992 C 0.51852 0.74795 0.70371 0.0
C993 C 0.52342 0.76121 0.73519 0.0
C994 C 0.51757 0.75063 0.65664 0.0
C995 C 0.52158 0.7666 0.64066 0.0
C996 C 0.52393 0.77902 0.67267 0.0
C997 C 0.52474 0.77631 0.71973 0.0
C998 C 0.55243 0.78606 0.54449 0.0
C999 C 0.5437 0.7754 0.5076 0.0
C1000 C 0.54449 0.7842 0.58673 0.0
C1001 C 0.52781 0.77137 0.59307 0.0
C1002 C 0.51874 0.76138 0.55531 0.0
C1003 C 0.52659 0.76356 0.51252 0.0
H1004 H 0.22873 0.7724 0.56352 0.0
H1005 H 0.23542 0.82119 0.59597 0.0
H1006 H 0.23068 0.76739 0.64538 0.0
H1007 H 0.23697 0.81603 0.67774 0.0
H1008 H 0.20626 0.75756 0.79229 0.0
H1009 H 0.21215 0.76208 0.71035 0.0
H1010 H 0.25312 0.81197 0.73839 0.0
H1011 H 0.24695 0.80759 0.8208 0.0
C1012 C 0.23063 0.78205 0.58814 0.0
C1013 C 0.23172 0.7971 0.57347 0.0
C1014 C 0.23178 0.77919 0.63495 0.0
C1015 C 0.23401 0.79132 0.66797 0.0
C1016 C 0.23555 0.80656 0.65309 0.0
C1017 C 0.23445 0.80943 0.6063 0.0
C1018 C 0.21678 0.76937 0.78116 0.0
C1019 C 0.2259 0.78236 0.81289 0.0
C1020 C 0.22023 0.77192 0.73413 0.0
C1021 C 0.2329 0.7875 0.7179 0.0
C1022 C 0.24305 0.79996 0.74995 0.0
C1023 C 0.23959 0.7974 0.79714 0.0
H1024 H 0.22082 0.43412 0.57133 0.0
H1025 H 0.17165 0.42887 0.58115 0.0
H1026 H 0.22473 0.4391 0.65402 0.0
H1027 H 0.17594 0.43528 0.66327 0.0
H1028 H 0.17898 0.42116 0.81348 0.0
H1029 H 0.17572 0.42274 0.73101 0.0
H1030 H 0.22939 0.45548 0.71775 0.0
H1031 H 0.23259 0.45261 0.80022 0.0
C1032 C 0.211 0.43438 0.59128 0.0
C1033 C 0.19585 0.43085 0.57037 0.0
C1034 C 0.21328 0.43745 0.63868 0.0
C1035 C 0.20063 0.43756 0.66587 0.0
C1036 C 0.18579 0.43485 0.64401 0.0
C1037 C 0.18333 0.43125 0.59691 0.0
C1038 C 0.19002 0.42901 0.79301 0.0
C1039 C 0.20604 0.43661 0.81292 0.0
C1040 C 0.18818 0.43 0.7455 0.0
C1041 C 0.20234 0.43899 0.71709 0.0
C1042 C 0.21825 0.44793 0.73807 0.0
C1043 C 0.2201 0.44651 0.78541 0.0
H1044 H 0.42104 0.89166 -0.00639 0.0
H1045 H 0.46121 0.8821 0.02842 0.0
H1046 H 0.41431 0.89083 0.07545 0.0
H1047 H 0.4548 0.88171 0.1097 0.0
H1048 H 0.43662 0.8758 0.25461 0.0
H1049 H 0.43576 0.86884 0.17309 0.0
H1050 H 0.42927 0.91081 0.13716 0.0
H1051 H 0.42964 0.91747 0.21872 0.0
C1052 C 0.42818 0.88901 0.01857 0.0
C1053 C 0.44183 0.88722 0.00464 0.0
C1054 C 0.42443 0.88868 0.06544 0.0
C1055 C 0.43421 0.8865 0.09906 0.0
C1056 C 0.44696 0.88335 0.08475 0.0
C1057 C 0.45071 0.88368 0.03806 0.0
C1058 C 0.43491 0.88347 0.22928 0.0
C1059 C 0.43341 0.89731 0.24294 0.0
C1060 C 0.4344 0.87947 0.18262 0.0
C1061 C 0.43247 0.88928 0.14867 0.0
C1062 C 0.43049 0.90283 0.16248 0.0
C1063 C 0.43091 0.90678 0.20918 0.0
H1064 H 0.1091 0.57012 0.01598 0.0
H1065 H 0.10332 0.52119 -0.00842 0.0
H1066 H 0.11147 0.56684 0.09828 0.0
H1067 H 0.10606 0.51806 0.07435 0.0
H1068 H 0.0801 0.50902 0.21812 0.0
H1069 H 0.08583 0.51346 0.13583 0.0
H1070 H 0.12653 0.56356 0.16311 0.0
H1071 H 0.12058 0.55923 0.24565 0.0
C1072 C 0.10877 0.55883 0.02809 0.0
C1073 C 0.10568 0.54576 -0.00257 0.0
C1074 C 0.11026 0.55701 0.0753 0.0
C1075 C 0.10868 0.54208 0.09279 0.0
C1076 C 0.10702 0.52958 0.06179 0.0
C1077 C 0.10557 0.53143 0.01441 0.0
C1078 C 0.09032 0.52095 0.2066 0.0
C1079 C 0.09974 0.53385 0.23821 0.0
C1080 C 0.09375 0.52342 0.15949 0.0
C1081 C 0.10668 0.53884 0.14305 0.0
C1082 C 0.11642 0.55159 0.17481 0.0
C1083 C 0.11299 0.54912 0.22199 0.0
H1084 H 0.4246 0.54798 0.06517 0.0
H1085 H 0.4676 0.59561 0.02865 0.0
H1086 H 0.43063 0.55488 0.14652 0.0
H1087 H 0.47343 0.60258 0.11025 0.0
H1088 H 0.44372 0.57298 0.29299 0.0
H1089 H 0.43432 0.573 0.21399 0.0
H1090 H 0.48445 0.58958 0.16427 0.0
H1091 H 0.49385 0.58972 0.24285 0.0
C1092 C 0.43503 0.56014 0.07442 0.0
C1093 C 0.44588 0.57106 0.04045 0.0
C1094 C 0.43843 0.56413 0.12113 0.0
C1095 C 0.45271 0.57912 0.13465 0.0
C1096 C 0.46254 0.59078 0.10069 0.0
C1097 C 0.45913 0.58681 0.05397 0.0
C1098 C 0.45276 0.57682 0.26517 0.0
C1099 C 0.46948 0.58117 0.27393 0.0
C1100 C 0.44737 0.57683 0.22005 0.0
C1101 C 0.45865 0.58134 0.18303 0.0
C1102 C 0.47552 0.58631 0.19214 0.0
C1103 C 0.48087 0.5862 0.23711 0.0
H1104 H 0.11953 0.56485 0.75047 0.0
H1105 H 0.07793 0.57126 0.70899 0.0
H1106 H 0.12959 0.56945 0.67091 0.0
H1107 H 0.08771 0.57544 0.62962 0.0
H1108 H 0.10895 0.5881 0.49225 0.0
H1109 H 0.10945 0.59325 0.57502 0.0
H1110 H 0.11923 0.55273 0.60155 0.0
H1111 H 0.11919 0.5479 0.51927 0.0
C1112 C 0.11256 0.56727 0.72438 0.0
C1113 C 0.09782 0.56748 0.73577 0.0
C1114 C 0.11835 0.56996 0.67891 0.0
C1115 C 0.10949 0.57287 0.64402 0.0
C1116 C 0.09503 0.57356 0.65581 0.0
C1117 C 0.08928 0.57092 0.70121 0.0
C1118 C 0.11181 0.5807 0.51569 0.0
C1119 C 0.11358 0.5673 0.49937 0.0
C1120 C 0.11195 0.58356 0.5631 0.0
C1121 C 0.11391 0.57309 0.59477 0.0
C1122 C 0.11764 0.561 0.57812 0.0
C1123 C 0.11752 0.55816 0.53084 0.0
H1124 H 0.428 0.51751 0.75193 0.0
H1125 H 0.43934 0.56798 0.78368 0.0
H1126 H 0.42956 0.52373 0.66976 0.0
H1127 H 0.44075 0.57414 0.70126 0.0
H1128 H 0.46713 0.5817 0.55704 0.0
H1129 H 0.46065 0.57705 0.63894 0.0
H1130 H 0.41524 0.53077 0.60759 0.0
H1131 H 0.42177 0.53528 0.52541 0.0
C1132 C 0.43073 0.5299 0.74134 0.0
C1133 C 0.43369 0.5423 0.77414 0.0
C1134 C 0.43144 0.5334 0.69432 0.0
C1135 C 0.43519 0.5494 0.67925 0.0
C1136 C 0.4379 0.56173 0.71204 0.0
C1137 C 0.4371 0.5582 0.75911 0.0
C1138 C 0.4556 0.57068 0.56749 0.0
C1139 C 0.44509 0.55872 0.53484 0.0
C1140 C 0.45185 0.56808 0.61441 0.0
C1141 C 0.43756 0.55345 0.62953 0.0
C1142 C 0.42647 0.54203 0.59676 0.0
C1143 C 0.43017 0.54468 0.54975 0.0
H1144 H 0.49842 0.91378 0.72132 0.0
H1145 H 0.44841 0.87443 0.75583 0.0
H1146 H 0.49172 0.90835 0.63955 0.0
H1147 H 0.44183 0.86869 0.67392 0.0
H1148 H 0.47954 0.8908 0.49487 0.0
H1149 H 0.48509 0.88867 0.57624 0.0
H1150 H 0.43709 0.88339 0.61202 0.0
H1151 H 0.43136 0.88508 0.53102 0.0
C1152 C 0.48606 0.90383 0.71142 0.0
C1153 C 0.47387 0.89468 0.74493 0.0
C1154 C 0.48227 0.90059 0.66456 0.0
C1155 C 0.46623 0.88808 0.65024 0.0
C1156 C 0.45423 0.87854 0.68386 0.0
C1157 C 0.45801 0.88182 0.73074 0.0
C1158 C 0.47 0.88877 0.52 0.0
C1159 C 0.45513 0.88838 0.50654 0.0
C1160 C 0.47324 0.88768 0.56664 0.0
C1161 C 0.46166 0.88616 0.60061 0.0
C1162 C 0.44625 0.88448 0.58676 0.0
C1163 C 0.44301 0.88554 0.54022 0.0
H1164 H 0.24898 0.43469 0.31825 0.0
H1165 H 0.21122 0.44841 0.29048 0.0
H1166 H 0.25448 0.43538 0.23563 0.0
H1167 H 0.21629 0.44855 0.20844 0.0
H1168 H 0.23414 0.40744 0.09585 0.0
H1169 H 0.23739 0.41553 0.17684 0.0
H1170 H 0.23347 0.45906 0.14143 0.0
H1171 H 0.22965 0.45061 0.06053 0.0
C1172 C 0.24218 0.43829 0.29469 0.0
C1173 C 0.2294 0.44112 0.31076 0.0
C1174 C 0.24521 0.43851 0.24735 0.0
C1175 C 0.23553 0.4416 0.21543 0.0
C1176 C 0.22399 0.44613 0.23196 0.0
C1177 C 0.221 0.44595 0.27914 0.0
C1178 C 0.23404 0.41876 0.10537 0.0
C1179 C 0.23136 0.42824 0.07204 0.0
C1180 C 0.23613 0.42354 0.15171 0.0
C1181 C 0.23572 0.43798 0.16561 0.0
C1182 C 0.23365 0.44777 0.13192 0.0
C1183 C 0.23142 0.44291 0.08562 0.0
H1184 H 0.57827 0.77206 0.01563 0.0
H1185 H 0.52462 0.74718 -0.00511 0.0
H1186 H 0.57393 0.76629 0.09813 0.0
H1187 H 0.52031 0.74164 0.07783 0.0
H1188 H 0.53075 0.7718 0.22206 0.0
H1189 H 0.52907 0.7653 0.13991 0.0
H1190 H 0.56025 0.74309 0.16103 0.0
H1191 H 0.56184 0.74939 0.24334 0.0
C1192 C 0.56556 0.76501 0.02862 0.0
C1193 C 0.55179 0.76025 -0.00082 0.0
C1194 C 0.56307 0.7616 0.0757 0.0
C1195 C 0.54679 0.75361 0.09409 0.0
C1196 C 0.53297 0.74785 0.06426 0.0
C1197 C 0.53545 0.751 0.01696 0.0
C1198 C 0.53692 0.76518 0.20938 0.0
C1199 C 0.54667 0.76138 0.23891 0.0
C1200 C 0.53583 0.76133 0.16249 0.0
C1201 C 0.54462 0.75379 0.1444 0.0
C1202 C 0.55342 0.74896 0.17435 0.0
C1203 C 0.55432 0.75259 0.22135 0.0
H1204 H 0.23644 0.78563 0.28992 0.0
H1205 H 0.18774 0.74294 0.3195 0.0
H1206 H 0.23153 0.77988 0.20793 0.0
H1207 H 0.18299 0.73696 0.23704 0.0
H1208 H 0.17102 0.7548 0.09855 0.0
H1209 H 0.17721 0.7528 0.1792 0.0
H1210 H 0.22651 0.76198 0.14119 0.0
H1211 H 0.22043 0.76435 0.06039 0.0
C1212 C 0.22488 0.77471 0.27899 0.0
C1213 C 0.21231 0.76498 0.31109 0.0
C1214 C 0.22211 0.77135 0.23191 0.0
C1215 C 0.20672 0.75817 0.21604 0.0
C1216 C 0.19482 0.74742 0.24836 0.0
C1217 C 0.19761 0.75078 0.29557 0.0
C1218 C 0.18314 0.75629 0.10736 0.0
C1219 C 0.19533 0.75998 0.07331 0.0
C1220 C 0.18661 0.75493 0.1535 0.0
C1221 C 0.20234 0.75718 0.16651 0.0
C1222 C 0.21433 0.76031 0.13221 0.0
C1223 C 0.21086 0.7617 0.08601 0.0
H1224 H 0.15541 0.19908 0.26438 0.0
H1225 H 0.19725 0.2409 0.19717 0.0
H1226 H 0.17071 0.1839 0.26508 0.0
H1227 H 0.21251 0.22544 0.19684 0.0
H1228 H 0.23878 0.19559 0.24357 0.0
H1229 H 0.22581 0.21319 0.24513 0.0
H1230 H 0.17838 0.17051 0.20545 0.0
H1231 H 0.19117 0.15294 0.20494 0.0
C1232 C 0.16794 0.20508 0.25003 0.0
C1233 C 0.17508 0.2211 0.23032 0.0
C1234 C 0.17666 0.19633 0.25008 0.0
C1235 C 0.19266 0.20333 0.23009 0.0
C1236 C 0.20019 0.21972 0.21248 0.0
C1237 C 0.19146 0.22856 0.21266 0.0
C1238 C 0.22563 0.19005 0.23473 0.0
C1239 C 0.21595 0.17286 0.22455 0.0
C1240 C 0.21822 0.20012 0.2356 0.0
C1241 C 0.20101 0.19316 0.22623 0.0
C1242 C 0.19157 0.17614 0.21404 0.0
C1243 C 0.19893 0.1661 0.21336 0.0
H1244 H 0.7993 0.95727 0.25181 0.0
H1245 H 0.75579 0.95861 0.20116 0.0
H1246 H 0.81454 0.98765 0.25785 0.0
H1247 H 0.77126 0.98916 0.20566 0.0
H1248 H 0.84366 0.04127 0.21179 0.0
H1249 H 0.82688 0.01094 0.20626 0.0
H1250 H 0.78373 0.01282 0.2575 0.0
H1251 H 0.80047 0.04334 0.2615 0.0
C1252 C 0.79299 0.96408 0.242 0.0
C1253 C 0.77639 0.95559 0.22579 0.0
C1254 C 0.80177 0.9815 0.24508 0.0
C1255 C 0.79421 0.99085 0.23153 0.0
C1256 C 0.77742 0.98232 0.21661 0.0
C1257 C 0.76857 0.96484 0.21393 0.0
C1258 C 0.83056 0.03522 0.22152 0.0
C1259 C 0.82338 0.04465 0.23726 0.0
C1260 C 0.82097 0.01782 0.21874 0.0
C1261 C 0.80402 0.00943 0.23213 0.0
C1262 C 0.79672 0.01891 0.24667 0.0
C1263 C 0.8063 0.03637 0.24906 0.0
H1264 H 0.95846 0.80681 0.21037 0.0
H1265 H 0.95459 0.75958 0.2476 0.0
H1266 H 0.98887 0.82032 0.21383 0.0
H1267 H 0.98512 0.77324 0.25258 0.0
H1268 H 0.04024 0.84406 0.27571 0.0
H1269 H 0.00977 0.82861 0.27285 0.0
H1270 H 0.01093 0.78677 0.20894 0.0
H1271 H 0.04153 0.8021 0.21326 0.0
C1272 C 0.96413 0.7993 0.21915 0.0
C1273 C 0.95416 0.78216 0.22893 0.0
C1274 C 0.98156 0.80707 0.22158 0.0
C1275 C 0.98942 0.79793 0.23433 0.0
C1276 C 0.97946 0.78063 0.24252 0.0
C1277 C 0.96198 0.77281 0.2397 0.0
C1278 C 0.03399 0.83148 0.26157 0.0
C1279 C 0.04325 0.82432 0.24446 0.0
C1280 C 0.01653 0.82269 0.25951 0.0
C1281 C 0.00792 0.80659 0.23981 0.0
C1282 C 0.01717 0.79913 0.22443 0.0
C1283 C 0.03469 0.8079 0.22689 0.0
H1284 H 0.79145 0.74654 0.75594 0.0
H1285 H 0.8333 0.79126 0.69927 0.0
H1286 H 0.77418 0.75985 0.75222 0.0
H1287 H 0.81603 0.80435 0.69469 0.0
H1288 H 0.78933 0.83055 0.74778 0.0
H1289 H 0.80446 0.81522 0.75169 0.0
H1290 H 0.76093 0.77092 0.69913 0.0
H1291 H 0.74557 0.78625 0.69606 0.0
C1292 C 0.79687 0.75909 0.742 0.0
C1293 C 0.81376 0.76793 0.7283 0.0
C1294 C 0.78698 0.76669 0.73984 0.0
C1295 C 0.79384 0.78324 0.7239 0.0
C1296 C 0.81051 0.79173 0.70821 0.0
C1297 C 0.82037 0.78418 0.7105 0.0
C1298 C 0.78291 0.81749 0.73745 0.0
C1299 C 0.76631 0.80963 0.72128 0.0
C1300 C 0.79163 0.80875 0.73934 0.0
C1301 C 0.78398 0.79196 0.72489 0.0
C1302 C 0.76714 0.78385 0.71051 0.0
C1303 C 0.75836 0.79262 0.70873 0.0
H1304 H 0.24614 0.04262 0.76167 0.0
H1305 H 0.20215 0.04001 0.69959 0.0
H1306 H 0.23159 0.01197 0.76563 0.0
H1307 H 0.18783 0.00961 0.70289 0.0
H1308 H 0.20114 0.95486 0.72201 0.0
H1309 H 0.21845 0.98543 0.71802 0.0
H1310 H 0.1768 0.99008 0.76861 0.0
H1311 H 0.15954 0.95977 0.77193 0.0
C1312 C 0.23351 0.03551 0.74809 0.0
C1313 C 0.22519 0.04369 0.73085 0.0
C1314 C 0.2252 0.018 0.75038 0.0
C1315 C 0.20847 0.00846 0.73549 0.0
C1316 C 0.20058 0.01667 0.71577 0.0
C1317 C 0.20882 0.03408 0.71357 0.0
C1318 C 0.1958 0.96245 0.73291 0.0
C1319 C 0.17894 0.95495 0.74675 0.0
C1320 C 0.2057 0.97992 0.7306 0.0
C1321 C 0.19884 0.99008 0.74206 0.0
C1322 C 0.18228 0.98254 0.75838 0.0
C1323 C 0.17243 0.96518 0.76061 0.0
H1324 H 0.95608 0.14902 0.76445 0.0
H1325 H 0.95513 0.1935 0.72199 0.0
H1326 H 0.9864 0.16409 0.76031 0.0
H1327 H 0.98575 0.20857 0.71565 0.0
H1328 H 0.04198 0.23425 0.75363 0.0
H1329 H 0.01138 0.22026 0.75927 0.0
H1330 H 0.00784 0.17481 0.70527 0.0
H1331 H 0.03814 0.18846 0.70183 0.0
C1332 C 0.96237 0.162 0.75356 0.0
C1333 C 0.95323 0.17005 0.74319 0.0
C1334 C 0.97979 0.17065 0.75096 0.0
C1335 C 0.98856 0.18752 0.73713 0.0
C1336 C 0.97941 0.19563 0.72685 0.0
C1337 C 0.96189 0.18699 0.7301 0.0
C1338 C 0.03459 0.22124 0.74327 0.0
C1339 C 0.04242 0.21238 0.72785 0.0
C1340 C 0.01708 0.21327 0.74612 0.0
C1341 C 0.00713 0.19636 0.73307 0.0
C1342 C 0.01507 0.18769 0.71676 0.0
C1343 C 0.03248 0.19555 0.71458 0.0
H1344 H 0.85454 0.56655 0.59694 0.0
H1345 H 0.81766 0.52513 0.51568 0.0
H1346 H 0.87234 0.55375 0.5976 0.0
H1347 H 0.83561 0.51285 0.51417 0.0
H1348 H 0.85922 0.48421 0.57168 0.0
H1349 H 0.8435 0.49872 0.56674 0.0
H1350 H 0.8897 0.54601 0.55364 0.0
H1351 H 0.90565 0.53132 0.56071 0.0
C1352 C 0.85035 0.55481 0.57886 0.0
C1353 C 0.83462 0.54666 0.557 0.0
C1354 C 0.86058 0.54755 0.57888 0.0
C1355 C 0.85531 0.53215 0.55643 0.0
C1356 C 0.83987 0.52446 0.53294 0.0
C1357 C 0.82958 0.53153 0.53366 0.0
C1358 C 0.86609 0.49769 0.56743 0.0
C1359 C 0.88368 0.50662 0.56641 0.0
C1360 C 0.85703 0.50604 0.56429 0.0
C1361 C 0.8653 0.52354 0.55932 0.0
C1362 C 0.88295 0.53253 0.55785 0.0
C1363 C 0.89208 0.52413 0.56153 0.0
H1364 H 0.47165 0.29159 0.58534 0.0
H1365 H 0.42485 0.28739 0.54091 0.0
H1366 H 0.48482 0.32196 0.5843 0.0
H1367 H 0.43819 0.31791 0.53853 0.0
H1368 H 0.46598 0.37396 0.58379 0.0
H1369 H 0.45076 0.34333 0.58522 0.0
H1370 H 0.49377 0.34321 0.5258 0.0
H1371 H 0.50906 0.37366 0.52568 0.0
C1372 C 0.46416 0.29717 0.5755 0.0
C1373 C 0.44726 0.28712 0.56294 0.0
C1374 C 0.47174 0.31457 0.57449 0.0
C1375 C 0.46263 0.32235 0.56048 0.0
C1376 C 0.44553 0.3123 0.54957 0.0
C1377 C 0.4379 0.29483 0.55088 0.0
C1378 C 0.47206 0.36734 0.5705 0.0
C1379 C 0.48875 0.37617 0.55504 0.0
C1380 C 0.46336 0.34982 0.57131 0.0
C1381 C 0.47118 0.34085 0.55643 0.0
C1382 C 0.48756 0.34974 0.53873 0.0
C1383 C 0.49627 0.36719 0.53825 0.0
H1384 H 0.62298 0.1338 0.5429 0.0
H1385 H 0.62027 0.08872 0.59644 0.0
H1386 H 0.65342 0.14762 0.5432 0.0
H1387 H 0.65092 0.10277 0.59784 0.0
H1388 H 0.70699 0.13125 0.55057 0.0
H1389 H 0.67633 0.11514 0.54981 0.0
H1390 H 0.67475 0.15823 0.60263 0.0
H1391 H 0.70521 0.17435 0.60228 0.0
C1392 C 0.6289 0.12681 0.55453 0.0
C1393 C 0.61926 0.11023 0.56998 0.0
C1394 C 0.64635 0.13478 0.55508 0.0
C1395 C 0.65458 0.1264 0.57144 0.0
C1396 C 0.64494 0.10955 0.58502 0.0
C1397 C 0.62741 0.10152 0.58424 0.0
C1398 C 0.70006 0.13717 0.56256 0.0
C1399 C 0.70847 0.1541 0.57605 0.0
C1400 C 0.68251 0.12795 0.56214 0.0
C1401 C 0.67313 0.13551 0.57532 0.0
C1402 C 0.68162 0.15218 0.59106 0.0
C1403 C 0.69908 0.16138 0.59124 0.0
H1404 H 0.46307 0.16798 0.02609 0.0
H1405 H 0.41814 0.12572 0.08017 0.0
H1406 H 0.47744 0.15205 0.02962 0.0
H1407 H 0.43294 0.10978 0.086 0.0
H1408 H 0.46289 0.08251 0.05143 0.0
H1409 H 0.44604 0.09631 0.04395 0.0
H1410 H 0.48873 0.14304 0.08818 0.0
H1411 H 0.50549 0.12961 0.09346 0.0
C1412 C 0.45631 0.15529 0.03933 0.0
C1413 C 0.43957 0.14817 0.05357 0.0
C1414 C 0.46459 0.14616 0.04153 0.0
C1415 C 0.45647 0.12974 0.05901 0.0
C1416 C 0.43953 0.12239 0.07225 0.0
C1417 C 0.4311 0.13152 0.06925 0.0
C1418 C 0.4686 0.09575 0.05923 0.0
C1419 C 0.48556 0.10505 0.07227 0.0
C1420 C 0.45895 0.10362 0.05528 0.0
C1421 C 0.46611 0.12085 0.06478 0.0
C1422 C 0.48293 0.12989 0.07919 0.0
C1423 C 0.49254 0.12215 0.08244 0.0
H1424 H 0.90296 0.37341 0.08945 0.0
H1425 H 0.85658 0.37021 0.04512 0.0
H1426 H 0.88908 0.34285 0.09173 0.0
H1427 H 0.84289 0.3398 0.04604 0.0
H1428 H 0.86064 0.28701 0.04547 0.0
H1429 H 0.87624 0.31761 0.0447 0.0
H1430 H 0.83348 0.31831 0.10387 0.0
H1431 H 0.81779 0.28785 0.10328 0.0
C1432 C 0.88989 0.36617 0.07947 0.0
C1433 C 0.88081 0.37417 0.06744 0.0
C1434 C 0.88195 0.34868 0.08075 0.0
C1435 C 0.86482 0.33891 0.06979 0.0
C1436 C 0.85598 0.34697 0.05589 0.0
C1437 C 0.86387 0.3644 0.05493 0.0
C1438 C 0.85468 0.29374 0.05884 0.0
C1439 C 0.83796 0.28507 0.07404 0.0
C1440 C 0.86361 0.31125 0.05843 0.0
C1441 C 0.85599 0.32038 0.07347 0.0
C1442 C 0.83955 0.31165 0.09086 0.0
C1443 C 0.83061 0.2942 0.09093 0.0
H1444 H 0.70876 0.57982 0.0284 0.0
H1445 H 0.7068 0.5367 0.09377 0.0
H1446 H 0.67805 0.56548 0.02807 0.0
H1447 H 0.67636 0.5226 0.09405 0.0
H1448 H 0.62477 0.49382 0.03388 0.0
H1449 H 0.65519 0.51052 0.03253 0.0
H1450 H 0.65269 0.55377 0.07923 0.0
H1451 H 0.62203 0.53705 0.0799 0.0
C1452 C 0.70179 0.56743 0.04337 0.0
C1453 C 0.71016 0.5593 0.06067 0.0
C1454 C 0.68424 0.55923 0.04316 0.0
C1455 C 0.67484 0.54281 0.06021 0.0
C1456 C 0.68328 0.53509 0.07959 0.0
C1457 C 0.70072 0.54323 0.07975 0.0
C1458 C 0.63067 0.50694 0.04338 0.0
C1459 C 0.62102 0.51409 0.05743 0.0
C1460 C 0.6481 0.51647 0.04293 0.0
C1461 C 0.65631 0.53335 0.05668 0.0
C1462 C 0.64668 0.54078 0.06852 0.0
C1463 C 0.62915 0.5312 0.06892 0.0
H1464 H 0.53723 0.89954 0.91834 0.0
H1465 H 0.48913 0.85435 0.93126 0.0
H1466 H 0.55123 0.88293 0.92477 0.0
H1467 H 0.50286 0.83787 0.93583 0.0
H1468 H 0.5286 0.81009 0.96531 0.0
H1469 H 0.51948 0.83035 0.97953 0.0
H1470 H 0.55505 0.86357 0.87829 0.0
H1471 H 0.56479 0.84356 0.86616 0.0
C1472 C 0.52968 0.88611 0.923 0.0
C1473 C 0.51208 0.87825 0.92411 0.0
C1474 C 0.53767 0.87658 0.92636 0.0
C1475 C 0.52821 0.85903 0.9308 0.0
C1476 C 0.51064 0.85135 0.93341 0.0
C1477 C 0.50271 0.86083 0.93035 0.0
C1478 C 0.53467 0.82187 0.94677 0.0
C1479 C 0.5472 0.82519 0.91416 0.0
C1480 C 0.52939 0.83346 0.95468 0.0
C1481 C 0.53623 0.84844 0.92925 0.0
C1482 C 0.54955 0.85221 0.89869 0.0
C1483 C 0.55508 0.84072 0.8915 0.0
H1484 H 0.12703 0.62123 0.93642 0.0
H1485 H 0.08379 0.62022 0.87434 0.0
H1486 H 0.14154 0.65165 0.93791 0.0
H1487 H 0.09856 0.6509 0.87499 0.0
H1488 H 0.12789 0.70671 0.92628 0.0
H1489 H 0.11085 0.67611 0.92566 0.0
H1490 H 0.15366 0.67296 0.87782 0.0
H1491 H 0.17068 0.70333 0.87933 0.0
C1492 C 0.12058 0.62752 0.92335 0.0
C1493 C 0.10434 0.61837 0.90485 0.0
C1494 C 0.12895 0.64496 0.92388 0.0
C1495 C 0.12132 0.65365 0.90565 0.0
C1496 C 0.10475 0.64452 0.88922 0.0
C1497 C 0.09631 0.62698 0.88885 0.0
C1498 C 0.13357 0.69945 0.91513 0.0
C1499 C 0.15065 0.70738 0.90332 0.0
C1500 C 0.12381 0.68196 0.91475 0.0
C1501 C 0.13101 0.67216 0.90253 0.0
C1502 C 0.14787 0.68017 0.88856 0.0
C1503 C 0.15759 0.69758 0.88908 0.0
H1504 H 0.28871 0.42453 0.89632 0.0
H1505 H 0.2857 0.46925 0.92054 0.0
H1506 H 0.31939 0.44136 0.8974 0.0
H1507 H 0.31591 0.48575 0.92404 0.0
H1508 H 0.3697 0.51492 0.88688 0.0
H1509 H 0.33971 0.49684 0.87841 0.0
H1510 H 0.34291 0.45685 0.9473 0.0
H1511 H 0.37338 0.4749 0.95328 0.0
C1512 C 0.2946 0.43793 0.90174 0.0
C1513 C 0.28482 0.44559 0.90791 0.0
C1514 C 0.31215 0.44755 0.90282 0.0
C1515 C 0.32018 0.46496 0.9106 0.0
C1516 C 0.31027 0.47249 0.91678 0.0
C1517 C 0.29286 0.46297 0.915 0.0
C1518 C 0.36401 0.50229 0.90038 0.0
C1519 C 0.37383 0.49638 0.92132 0.0
C1520 C 0.34677 0.4919 0.89566 0.0
C1521 C 0.33878 0.47542 0.91278 0.0
C1522 C 0.34864 0.46941 0.93333 0.0
C1523 C 0.36606 0.47978 0.93721 0.0
H1524 H 0.09193 0.46994 0.37931 0.0
H1525 H 0.13754 0.51256 0.42949 0.0
H1526 H 0.10595 0.45336 0.37727 0.0
H1527 H 0.15136 0.49592 0.42904 0.0
H1528 H 0.17744 0.46951 0.37419 0.0
H1529 H 0.16193 0.48451 0.37316 0.0
H1530 H 0.11791 0.44031 0.42385 0.0
H1531 H 0.13333 0.42511 0.42326 0.0
C1532 C 0.10486 0.47567 0.39064 0.0
C1533 C 0.11369 0.49256 0.40427 0.0
C1534 C 0.11289 0.46617 0.38952 0.0
C1535 C 0.12985 0.47339 0.40235 0.0
C1536 C 0.13842 0.4901 0.41774 0.0
C1537 C 0.13046 0.4996 0.41844 0.0
C1538 C 0.1644 0.46294 0.3846 0.0
C1539 C 0.15662 0.44618 0.39903 0.0
C1540 C 0.15554 0.47158 0.38444 0.0
C1541 C 0.13876 0.46371 0.39923 0.0
C1542 C 0.13079 0.44673 0.41205 0.0
C1543 C 0.13963 0.43803 0.41178 0.0
H1544 H 0.50915 0.63459 0.49634 0.0
H1545 H 0.54123 0.63073 0.39417 0.0
H1546 H 0.52677 0.66511 0.4956 0.0
H1547 H 0.55857 0.6613 0.39271 0.0
H1548 H 0.55287 0.70919 0.34885 0.0
H1549 H 0.54479 0.67998 0.36264 0.0
H1550 H 0.55954 0.69144 0.50552 0.0
H1551 H 0.56828 0.72105 0.49122 0.0
C1552 C 0.52021 0.64024 0.47466 0.0
C1553 C 0.52374 0.63034 0.44495 0.0
C1554 C 0.53033 0.65767 0.47448 0.0
C1555 C 0.54394 0.66544 0.444 0.0
C1556 C 0.54815 0.65551 0.41658 0.0
C1557 C 0.53823 0.63806 0.41746 0.0
C1558 C 0.55474 0.70554 0.38293 0.0
C1559 C 0.56112 0.71726 0.41904 0.0
C1560 C 0.55024 0.6889 0.39072 0.0
C1561 C 0.55164 0.68357 0.43505 0.0
C1562 C 0.55848 0.69536 0.471 0.0
C1563 C 0.56347 0.7122 0.46284 0.0
H1564 H 0.3736 0.85756 0.38152 0.0
H1565 H 0.3753 0.90302 0.42739 0.0
H1566 H 0.34324 0.84313 0.38186 0.0
H1567 H 0.34463 0.88826 0.43016 0.0
H1568 H 0.28893 0.86007 0.3879 0.0
H1569 H 0.31962 0.8758 0.38464 0.0
H1570 H 0.32092 0.83208 0.43346 0.0
H1571 H 0.29059 0.81635 0.43433 0.0
C1572 C 0.36745 0.86441 0.39242 0.0
C1573 C 0.37681 0.88138 0.40481 0.0
C1574 C 0.35 0.8561 0.39282 0.0
C1575 C 0.34142 0.86445 0.40653 0.0
C1576 C 0.35081 0.88149 0.41892 0.0
C1577 C 0.36836 0.88991 0.41777 0.0
C1578 C 0.29586 0.85387 0.39753 0.0
C1579 C 0.28739 0.83695 0.41082 0.0
C1580 C 0.31342 0.86289 0.39607 0.0
C1581 C 0.32278 0.85519 0.40847 0.0
C1582 C 0.31419 0.83833 0.42247 0.0
C1583 C 0.29674 0.8293 0.42319 0.0
H1584 H 0.28455 0.16268 0.15465 0.0
H1585 H 0.29601 0.1318 0.24252 0.0
H1586 H 0.31038 0.17158 0.11222 0.0
H1587 H 0.32232 0.1413 0.20134 0.0
H1588 H 0.35983 0.14798 0.09007 0.0
H1589 H 0.3333 0.13856 0.13008 0.0
H1590 H 0.33959 0.18814 0.11661 0.0
H1591 H 0.36559 0.19726 0.075 0.0
C1592 C 0.29274 0.15802 0.16547 0.0
C1593 C 0.28822 0.14654 0.20203 0.0
C1594 C 0.30762 0.16317 0.14115 0.0
C1595 C 0.31848 0.15715 0.15315 0.0
C1596 C 0.31412 0.14594 0.19045 0.0
C1597 C 0.29911 0.14062 0.21442 0.0
C1598 C 0.35543 0.15679 0.09524 0.0
C1599 C 0.36481 0.17335 0.07918 0.0
C1600 C 0.3403 0.15145 0.11861 0.0
C1601 C 0.3343 0.1626 0.12695 0.0
C1602 C 0.34362 0.17909 0.11027 0.0
C1603 C 0.3586 0.18436 0.08645 0.0
H1604 H 0.79256 0.16352 0.08278 0.0
H1605 H 0.84055 0.20863 0.09955 0.0
H1606 H 0.8027 0.14788 0.12641 0.0
H1607 H 0.85103 0.19277 0.14154 0.0
H1608 H 0.85906 0.16402 0.25692 0.0
H1609 H 0.84859 0.17961 0.21348 0.0
H1610 H 0.82045 0.1366 0.12491 0.0
H1611 H 0.83025 0.12088 0.16957 0.0
C1612 C 0.80542 0.17005 0.09497 0.0
C1613 C 0.81575 0.18734 0.08766 0.0
C1614 C 0.81126 0.16104 0.11999 0.0
C1615 C 0.82769 0.16903 0.1378 0.0
C1616 C 0.8382 0.18626 0.12925 0.0
C1617 C 0.83226 0.19533 0.10472 0.0
C1618 C 0.85048 0.15787 0.22848 0.0
C1619 C 0.84542 0.14119 0.21691 0.0
C1620 C 0.84462 0.16685 0.20321 0.0
C1621 C 0.83373 0.15943 0.16539 0.0
C1622 C 0.82858 0.14268 0.1542 0.0
C1623 C 0.83425 0.13365 0.17982 0.0
H1624 H 0.78881 0.63664 0.07844 0.0
H1625 H 0.83293 0.63187 0.06227 0.0
H1626 H 0.80554 0.66321 0.1184 0.0
H1627 H 0.84951 0.65807 0.10368 0.0
H1628 H 0.87753 0.71284 0.14857 0.0
H1629 H 0.86151 0.68759 0.10264 0.0
H1630 H 0.81867 0.67265 0.19165 0.0
H1631 H 0.8345 0.69822 0.2365 0.0
C1632 C 0.8021 0.64131 0.08312 0.0
C1633 C 0.80951 0.63209 0.0673 0.0
C1634 C 0.81167 0.65647 0.10648 0.0
C1635 C 0.82885 0.66269 0.11497 0.0
C1636 C 0.83637 0.65377 0.09751 0.0
C1637 C 0.82683 0.63869 0.07376 0.0
C1638 C 0.86473 0.70411 0.15857 0.0
C1639 C 0.85729 0.70756 0.19622 0.0
C1640 C 0.85553 0.68959 0.13221 0.0
C1641 C 0.83873 0.67811 0.14312 0.0
C1642 C 0.83145 0.68139 0.18152 0.0
C1643 C 0.84059 0.69598 0.2076 0.0
H1644 H 0.1887 0.35921 0.41969 0.0
H1645 H 0.16012 0.37382 0.33209 0.0
H1646 H 0.17894 0.33365 0.37473 0.0
H1647 H 0.1509 0.34863 0.28599 0.0
H1648 H 0.12519 0.29387 0.23941 0.0
H1649 H 0.13388 0.31918 0.28446 0.0
H1650 H 0.18316 0.32488 0.30144 0.0
H1651 H 0.17422 0.29915 0.25789 0.0
C1652 C 0.18028 0.35693 0.39094 0.0
C1653 C 0.17519 0.36856 0.37951 0.0
C1654 C 0.17482 0.34236 0.36479 0.0
C1655 C 0.16431 0.33915 0.32625 0.0
C1656 C 0.15886 0.35057 0.31564 0.0
C1657 C 0.16417 0.36506 0.34211 0.0
C1658 C 0.13795 0.30062 0.2523 0.0
C1659 C 0.149 0.29445 0.24517 0.0
C1660 C 0.14295 0.31518 0.27815 0.0
C1661 C 0.15918 0.32402 0.29709 0.0
C1662 C 0.17043 0.31818 0.28839 0.0
C1663 C 0.16537 0.30351 0.26297 0.0
H1664 H 0.62535 0.79637 0.35717 0.0
H1665 H 0.61302 0.83467 0.32313 0.0
H1666 H 0.65283 0.8131 0.32229 0.0
H1667 H 0.64056 0.85134 0.28752 0.0
H1668 H 0.69836 0.88237 0.26676 0.0
H1669 H 0.671 0.86721 0.30418 0.0
H1670 H 0.66322 0.82103 0.24328 0.0
H1671 H 0.69057 0.83605 0.20649 0.0
C1672 C 0.62853 0.80841 0.34253 0.0
C1673 C 0.61691 0.81411 0.34268 0.0
C1674 C 0.64425 0.81795 0.32219 0.0
C1675 C 0.64876 0.83342 0.30149 0.0
C1676 C 0.63745 0.83948 0.30327 0.0
C1677 C 0.62167 0.82991 0.32364 0.0
C1678 C 0.69076 0.86901 0.26104 0.0
C1679 C 0.69672 0.86042 0.23381 0.0
C1680 C 0.67507 0.86033 0.28242 0.0
C1681 C 0.66505 0.8429 0.27713 0.0
C1682 C 0.6708 0.83441 0.24879 0.0
C1683 C 0.68643 0.84307 0.2274 0.0
H1684 H 0.20961 0.84045 0.37307 0.0
H1685 H 0.16506 0.792 0.3888 0.0
H1686 H 0.19314 0.85076 0.33347 0.0
H1687 H 0.14879 0.80199 0.34752 0.0
H1688 H 0.12079 0.82948 0.31221 0.0
H1689 H 0.13709 0.81936 0.35291 0.0
H1690 H 0.17926 0.84876 0.26307 0.0
H1691 H 0.16312 0.85949 0.2237 0.0
C1692 C 0.19631 0.832 0.36805 0.0
C1693 C 0.18865 0.81544 0.3843 0.0
C1694 C 0.18688 0.83785 0.34491 0.0
C1695 C 0.1696 0.8272 0.33697 0.0
C1696 C 0.16197 0.81067 0.35359 0.0
C1697 C 0.17134 0.8049 0.37722 0.0
C1698 C 0.13349 0.83368 0.30084 0.0
C1699 C 0.14065 0.8453 0.26469 0.0
C1700 C 0.14286 0.82783 0.32416 0.0
C1701 C 0.15956 0.83326 0.3115 0.0
C1702 C 0.16657 0.84456 0.27448 0.0
C1703 C 0.15726 0.85059 0.25154 0.0
H1704 H 0.68364 0.80268 0.70759 0.0
H1705 H 0.68735 0.85111 0.72085 0.0
H1706 H 0.65453 0.78917 0.73296 0.0
H1707 H 0.65874 0.83786 0.74904 0.0
H1708 H 0.60292 0.81013 0.76575 0.0
H1709 H 0.63069 0.82227 0.7316 0.0
H1710 H 0.63781 0.78405 0.79726 0.0
H1711 H 0.60956 0.77136 0.82868 0.0
C1712 C 0.67822 0.81042 0.71612 0.0
C1713 C 0.68773 0.82792 0.71208 0.0
C1714 C 0.66156 0.80271 0.73109 0.0
C1715 C 0.65416 0.81236 0.74339 0.0
C1716 C 0.66376 0.8299 0.73901 0.0
C1717 C 0.68026 0.83756 0.72307 0.0
C1718 C 0.61043 0.80431 0.77262 0.0
C1719 C 0.60412 0.78983 0.79992 0.0
C1720 C 0.62643 0.81133 0.75331 0.0
C1721 C 0.63669 0.80428 0.76179 0.0
C1722 C 0.63026 0.78971 0.78909 0.0
C1723 C 0.61408 0.78247 0.80748 0.0
H1724 H 0.1583 0.78505 0.8439 0.0
H1725 H 0.18989 0.8276 0.93037 0.0
H1726 H 0.14918 0.80189 0.80175 0.0
H1727 H 0.1802 0.84431 0.88946 0.0
H1728 H 0.17441 0.87494 0.77617 0.0
H1729 H 0.18324 0.85758 0.81729 0.0
H1730 H 0.13305 0.81515 0.80521 0.0
H1731 H 0.12446 0.83232 0.76243 0.0
C1732 C 0.16305 0.79793 0.85455 0.0
C1733 C 0.17486 0.80499 0.89047 0.0
C1734 C 0.15778 0.8076 0.83038 0.0
C1735 C 0.16402 0.82453 0.84189 0.0
C1736 C 0.17541 0.83143 0.8789 0.0
C1737 C 0.18084 0.8218 0.90272 0.0
C1738 C 0.16532 0.86186 0.7819 0.0
C1739 C 0.14875 0.85501 0.76593 0.0
C1740 C 0.17033 0.85193 0.80593 0.0
C1741 C 0.15883 0.83497 0.81507 0.0
C1742 C 0.14232 0.82809 0.79837 0.0
C1743 C 0.13737 0.83796 0.77384 0.0
H1744 H 0.16336 0.36273 0.89518 0.0
H1745 H 0.20898 0.36148 0.86969 0.0
H1746 H 0.14746 0.33686 0.85246 0.0
H1747 H 0.19288 0.33495 0.82866 0.0
H1748 H 0.16238 0.2974 0.71623 0.0
H1749 H 0.17838 0.32349 0.75906 0.0
H1750 H 0.1368 0.30809 0.85328 0.0
H1751 H 0.1206 0.28252 0.80908 0.0
C1752 C 0.16997 0.35674 0.88124 0.0
C1753 C 0.18746 0.36419 0.88592 0.0
C1754 C 0.16081 0.3418 0.85677 0.0
C1755 C 0.16882 0.33372 0.83689 0.0
C1756 C 0.18629 0.34095 0.84264 0.0
C1757 C 0.19553 0.35608 0.8666 0.0
C1758 C 0.15662 0.2997 0.74583 0.0
C1759 C 0.14018 0.28795 0.75905 0.0
C1760 C 0.16586 0.31459 0.77076 0.0
C1761 C 0.15897 0.31795 0.80992 0.0
C1762 C 0.14247 0.30615 0.8229 0.0
C1763 C 0.13315 0.29142 0.79757 0.0
H1764 H 0.86167 0.69395 0.7383 0.0
H1765 H 0.8132 0.69046 0.72656 0.0
H1766 H 0.85077 0.66712 0.69956 0.0
H1767 H 0.80201 0.66316 0.68961 0.0
H1768 H 0.79333 0.62625 0.57378 0.0
H1769 H 0.80362 0.65208 0.6177 0.0
H1770 H 0.83325 0.63799 0.70278 0.0
H1771 H 0.82354 0.61255 0.6574 0.0
C1772 C 0.84856 0.68726 0.72843 0.0
C1773 C 0.83833 0.6944 0.73525 0.0
C1774 C 0.84227 0.6718 0.70625 0.0
C1775 C 0.82553 0.66298 0.6909 0.0
C1776 C 0.81508 0.66977 0.69986 0.0
C1777 C 0.82144 0.68535 0.72149 0.0
C1778 C 0.80211 0.62872 0.60172 0.0
C1779 C 0.8077 0.61741 0.6119 0.0
C1780 C 0.80789 0.64347 0.62729 0.0
C1781 C 0.81921 0.64714 0.66411 0.0
C1782 C 0.82475 0.63575 0.67429 0.0
C1783 C 0.81915 0.62112 0.64829 0.0
H1784 H 0.30227 0.12216 0.70484 0.0
H1785 H 0.29685 0.16597 0.71741 0.0
H1786 H 0.32859 0.13869 0.66368 0.0
H1787 H 0.32273 0.18232 0.67464 0.0
H1788 H 0.37773 0.21066 0.63293 0.0
H1789 H 0.3521 0.19468 0.67698 0.0
H1790 H 0.33863 0.15142 0.59077 0.0
H1791 H 0.36469 0.16725 0.54793 0.0
C1792 C 0.30673 0.13533 0.69894 0.0
C1793 C 0.29747 0.14274 0.71444 0.0
C1794 C 0.32174 0.14478 0.67489 0.0
C1795 C 0.32773 0.16182 0.66528 0.0
C1796 C 0.31864 0.1693 0.68181 0.0
C1797 C 0.30375 0.1599 0.70633 0.0
C1798 C 0.36923 0.19778 0.62306 0.0
C1799 C 0.37327 0.19023 0.5869 0.0
C1800 C 0.35448 0.18861 0.64833 0.0
C1801 C 0.34329 0.1717 0.63772 0.0
C1802 C 0.34712 0.16429 0.60064 0.0
C1803 C 0.36198 0.17342 0.5757 0.0
H1804 H 0.83397 0.13906 0.76028 0.0
H1805 H 0.87591 0.16667 0.6685 0.0
H1806 H 0.81778 0.14894 0.71753 0.0
H1807 H 0.85952 0.17593 0.62443 0.0
H1808 H 0.83102 0.20227 0.58073 0.0
H1809 H 0.84774 0.19331 0.62423 0.0
H1810 H 0.80355 0.14501 0.64688 0.0
H1811 H 0.78668 0.15433 0.60507 0.0
C1812 C 0.83974 0.14727 0.731 0.0
C1813 C 0.85624 0.15211 0.71787 0.0
C1814 C 0.83039 0.15279 0.70612 0.0
C1815 C 0.83723 0.1631 0.66709 0.0
C1816 C 0.85387 0.16819 0.65458 0.0
C1817 C 0.86329 0.16286 0.67985 0.0
C1818 C 0.82489 0.18968 0.5946 0.0
C1819 C 0.8075 0.17902 0.58945 0.0
C1820 C 0.83451 0.1845 0.61954 0.0
C1821 C 0.82703 0.16845 0.63946 0.0
C1822 C 0.8097 0.1576 0.63302 0.0
C1823 C 0.80004 0.16287 0.60859 0.0
H1824 H 0.03053 0.52964 0.38907 0.0
H1825 H 0.04374 0.50041 0.47833 0.0
H1826 H 0.00417 0.51944 0.4305 0.0
H1827 H 0.01784 0.49084 0.52106 0.0
H1828 H 0.96257 0.46346 0.55866 0.0
H1829 H 0.98875 0.47337 0.51734 0.0
H1830 H 0.99285 0.52196 0.50127 0.0
H1831 H 0.96614 0.51172 0.54095 0.0
C1832 C 0.0278 0.52104 0.41755 0.0
C1833 C 0.03919 0.51577 0.43023 0.0
C1834 C 0.01276 0.51532 0.44167 0.0
C1835 C 0.00886 0.50438 0.47943 0.0
C1836 C 0.02024 0.49903 0.49178 0.0
C1837 C 0.03515 0.50456 0.46728 0.0
C1838 C 0.96912 0.47631 0.54672 0.0
C1839 C 0.96224 0.48679 0.5531 0.0
C1840 C 0.98421 0.48203 0.52306 0.0
C1841 C 0.99297 0.49847 0.50569 0.0
C1842 C 0.98631 0.50911 0.51326 0.0
C1843 C 0.97107 0.50331 0.53644 0.0
H1844 H 0.46354 0.50718 0.42699 0.0
H1845 H 0.51396 0.54861 0.44491 0.0
H1846 H 0.47175 0.48837 0.46212 0.0
H1847 H 0.52237 0.52968 0.4784 0.0
H1848 H 0.52747 0.49682 0.58548 0.0
H1849 H 0.51862 0.51478 0.54811 0.0
H1850 H 0.48752 0.47458 0.45416 0.0
H1851 H 0.49589 0.45641 0.49282 0.0
C1852 C 0.47647 0.51222 0.43757 0.0
C1853 C 0.48807 0.52943 0.4334 0.0
C1854 C 0.4812 0.50141 0.45768 0.0
C1855 C 0.49769 0.50751 0.47367 0.0
C1856 C 0.50946 0.52461 0.46759 0.0
C1857 C 0.50468 0.53545 0.44795 0.0
C1858 C 0.51863 0.49176 0.5571 0.0
C1859 C 0.51238 0.47518 0.54216 0.0
C1860 C 0.51368 0.50213 0.53531 0.0
C1861 C 0.50251 0.49623 0.49765 0.0
C1862 C 0.49601 0.47952 0.48329 0.0
C1863 C 0.50083 0.46909 0.50545 0.0
H1864 H 0.49669 0.03731 0.55883 0.0
H1865 H 0.541 0.0329 0.54221 0.0
H1866 H 0.48029 0.01131 0.51634 0.0
H1867 H 0.52446 0.0065 0.50134 0.0
H1868 H 0.49542 0.9696 0.38822 0.0
H1869 H 0.51103 0.99609 0.42935 0.0
H1870 H 0.46847 0.98197 0.5189 0.0
H1871 H 0.45267 0.95584 0.47651 0.0
C1872 C 0.50288 0.03063 0.54685 0.0
C1873 C 0.52017 0.0372 0.55384 0.0
C1874 C 0.49345 0.01567 0.52249 0.0
C1875 C 0.50104 0.00682 0.50498 0.0
C1876 C 0.51825 0.01316 0.51331 0.0
C1877 C 0.52772 0.02822 0.5372 0.0
C1878 C 0.48934 0.97226 0.41633 0.0
C1879 C 0.47281 0.96061 0.42909 0.0
C1880 C 0.49835 0.98737 0.44028 0.0
C1881 C 0.49112 0.99112 0.47793 0.0
C1882 C 0.47441 0.97963 0.48984 0.0
C1883 C 0.46534 0.9646 0.46554 0.0
H1884 H 0.49083 0.02783 0.03375 0.0
H1885 H 0.54076 0.03599 0.0572 0.0
H1886 H 0.48342 0.00188 -0.00699 0.0
H1887 H 0.53361 0.01049 0.01498 0.0
H1888 H 0.50986 0.95507 0.97639 0.0
H1889 H 0.51784 0.981 0.01773 0.0
H1890 H 0.48845 0.99205 0.92245 0.0
H1891 H 0.47995 0.96578 0.88226 0.0
C1892 C 0.50022 0.02409 0.03025 0.0
C1893 C 0.51637 0.03398 0.04886 0.0
C1894 C 0.49604 0.00928 0.00645 0.0
C1895 C 0.50796 0.00411 0.00026 0.0
C1896 C 0.52403 0.01392 0.0195 0.0
C1897 C 0.52815 0.02861 0.04368 0.0
C1898 C 0.50527 0.96314 0.96389 0.0
C1899 C 0.49422 0.95832 0.92609 0.0
C1900 C 0.50986 0.97804 -0.01238 0.0
C1901 C 0.50366 0.98859 0.9738 0.0
C1902 C 0.49314 0.98406 0.93482 0.0
C1903 C 0.48841 0.96907 0.91141 0.0
H1904 H 0.9639 0.49404 0.08241 0.0
H1905 H 0.95096 0.45104 -0.00425 0.0
H1906 H 0.99001 0.51008 0.03994 0.0
H1907 H 0.97665 0.46723 0.95207 0.0
H1908 H 0.03198 0.49614 0.91237 0.0
H1909 H 0.00602 0.47958 0.95466 0.0
H1910 H 0.00018 0.52317 0.96754 0.0
H1911 H 0.02657 0.5399 0.92687 0.0
C1912 C 0.96664 0.488 0.05433 0.0
C1913 C 0.95537 0.47125 0.04257 0.0
C1914 C 0.98153 0.49726 0.02961 0.0
C1915 C 0.98541 0.49003 -0.00781 0.0
C1916 C 0.97423 0.47317 0.98099 0.0
C1917 C 0.95945 0.46387 0.00604 0.0
C1918 C 0.02507 0.50216 0.92379 0.0
C1919 C 0.03137 0.51936 0.91634 0.0
C1920 C 0.01013 0.49264 0.94803 0.0
C1921 C 0.00102 0.50004 0.96494 0.0
C1922 C 0.00705 0.51713 0.95602 0.0
C1923 C 0.0221 0.5267 0.93225 0.0
H1924 H 0.54228 0.50855 0.01244 0.0
H1925 H 0.50133 0.47594 0.10196 0.0
H1926 H 0.52528 0.51939 0.97988 0.0
H1927 H 0.48448 0.48733 0.0707 0.0
H1928 H 0.45267 0.49763 0.96916 0.0
H1929 H 0.46972 0.48685 0.00286 0.0
H1930 H 0.51343 0.53633 -0.00491 0.0
H1931 H 0.49658 0.54686 0.95974 0.0
C1932 C 0.52974 0.5039 0.02577 0.0
C1933 C 0.52317 0.49137 0.0598 0.0
C1934 C 0.51997 0.51017 0.00717 0.0
C1935 C 0.50345 0.50423 0.02253 0.0
C1936 C 0.49703 0.49197 0.05739 0.0
C1937 C 0.50674 0.48555 0.07565 0.0
C1938 C 0.46594 0.50616 0.97447 0.0
C1939 C 0.47328 0.52307 0.96149 0.0
C1940 C 0.4757 0.50003 -0.00583 0.0
C1941 C 0.49298 0.51071 0.00182 0.0
C1942 C 0.50025 0.52764 -0.01101 0.0
C1943 C 0.49055 0.53371 0.96881 0.0
loop_
_geom_bond_atom_site_label_1
_geom_bond_atom_site_label_2
_geom_bond_distance
_geom_bond_site_symmetry_2
_ccdc_geom_bond_type
C0 O1 1.306 . S
C0 O3 1.160 . S
O1 C0 1.306 . S
O1 Cd2 2.228 . S
Cd2 O1 2.228 . S
Cd2 O6 2.273 . S
Cd2 O10 2.277 . S
O3 C0 1.160 . S
O3 Cd4 2.203 . S
Cd4 O3 2.203 . S
Cd4 O6 2.411 . S
Cd4 O7 2.333 . S
Cd4 O8 2.352 . S
Cd4 O12 2.277 . S
Cd4 O13 2.356 . S
C5 O10 1.209 . S
C5 O12 1.226 . S
O6 Cd2 2.273 . S
O6 Cd4 2.411 . S
O6 C9 1.320 . S
O7 Cd4 2.333 . S
O7 C9 1.214 . S
O8 Cd4 2.352 . S
O8 C11 1.258 . S
C9 O6 1.320 . S
C9 O7 1.214 . S
O10 Cd2 2.277 . S
O10 C5 1.209 . S
C11 O8 1.258 . S
C11 O13 1.282 . S
O12 Cd4 2.277 . S
O12 C5 1.226 . S
O13 Cd4 2.356 . S
O13 C11 1.282 . S
C14 O15 1.306 . S
C14 O17 1.160 . S
O15 C14 1.306 . S
O15 Cd16 2.228 . S
Cd16 O15 2.228 . S
Cd16 O20 2.273 . S
Cd16 O24 2.277 . S
O17 C14 1.160 . S
O17 Cd18 2.203 . S
Cd18 O17 2.203 . S
Cd18 O20 2.411 . S
Cd18 O21 2.333 . S
Cd18 O22 2.352 . S
Cd18 O26 2.277 . S
Cd18 O27 2.356 . S
C19 O24 1.209 . S
C19 O26 1.226 . S
O20 Cd16 2.273 . S
O20 Cd18 2.411 . S
O20 C23 1.320 . S
O21 Cd18 2.333 . S
O21 C23 1.214 . S
O22 Cd18 2.352 . S
O22 C25 1.258 . S
C23 O20 1.320 . S
C23 O21 1.214 . S
O24 Cd16 2.277 . S
O24 C19 1.209 . S
C25 O22 1.258 . S
C25 O27 1.282 . S
O26 Cd18 2.277 . S
O26 C19 1.226 . S
O27 Cd18 2.356 . S
O27 C25 1.282 . S
C28 O29 1.306 . S
C28 O31 1.160 . S
O29 C28 1.306 . S
O29 Cd30 2.228 . S
Cd30 O29 2.228 . S
Cd30 O34 2.273 . S
Cd30 O38 2.277 . S
O31 C28 1.160 . S
O31 Cd32 2.203 . S
Cd32 O31 2.203 . S
Cd32 O34 2.411 . S
Cd32 O35 2.333 . S
Cd32 O36 2.352 . S
Cd32 O40 2.277 . S
Cd32 O41 2.356 . S
C33 O38 1.209 . S
C33 O40 1.226 . S
O34 Cd30 2.273 . S
O34 Cd32 2.411 . S
O34 C37 1.320 . S
O35 Cd32 2.333 . S
O35 C37 1.214 . S
O36 Cd32 2.352 . S
O36 C39 1.258 . S
C37 O34 1.320 . S
C37 O35 1.214 . S
O38 Cd30 2.277 . S
O38 C33 1.209 . S
C39 O36 1.258 . S
C39 O41 1.282 . S
O40 Cd32 2.277 . S
O40 C33 1.226 . S
O41 Cd32 2.356 . S
O41 C39 1.282 . S
C42 O43 1.306 . S
C42 O45 1.160 . S
O43 C42 1.306 . S
O43 Cd44 2.228 . S
Cd44 O43 2.228 . S
Cd44 O48 2.273 . S
Cd44 O52 2.277 . S
O45 C42 1.160 . S
O45 Cd46 2.203 . S
Cd46 O45 2.203 . S
Cd46 O48 2.411 . S
Cd46 O49 2.333 . S
Cd46 O50 2.352 . S
Cd46 O54 2.277 . S
Cd46 O55 2.356 . S
C47 O52 1.209 . S
C47 O54 1.226 . S
O48 Cd44 2.273 . S
O48 Cd46 2.411 . S
O48 C51 1.320 . S
O49 Cd46 2.333 . S
O49 C51 1.214 . S
O50 Cd46 2.352 . S
O50 C53 1.258 . S
C51 O48 1.320 . S
C51 O49 1.214 . S
O52 Cd44 2.277 . S
O52 C47 1.209 . S
C53 O50 1.258 . S
C53 O55 1.282 . S
O54 Cd46 2.277 . S
O54 C47 1.226 . S
O55 Cd46 2.356 . S
O55 C53 1.282 . S
C56 O57 1.306 . S
C56 O59 1.160 . S
O57 C56 1.306 . S
O57 Cd58 2.228 . S
Cd58 O57 2.228 . S
Cd58 O62 2.273 . S
Cd58 O66 2.277 . S
O59 C56 1.160 . S
O59 Cd60 2.203 . S
Cd60 O59 2.203 . S
Cd60 O62 2.411 . S
Cd60 O63 2.333 . S
Cd60 O64 2.352 . S
Cd60 O68 2.277 . S
Cd60 O69 2.356 . S
C61 O66 1.209 . S
C61 O68 1.226 . S
O62 Cd58 2.273 . S
O62 Cd60 2.411 . S
O62 C65 1.320 . S
O63 Cd60 2.333 . S
O63 C65 1.214 . S
O64 Cd60 2.352 . S
O64 C67 1.258 . S
C65 O62 1.320 . S
C65 O63 1.214 . S
O66 Cd58 2.277 . S
O66 C61 1.209 . S
C67 O64 1.258 . S
C67 O69 1.282 . S
O68 Cd60 2.277 . S
O68 C61 1.226 . S
O69 Cd60 2.356 . S
O69 C67 1.282 . S
C70 O71 1.306 . S
C70 O73 1.160 . S
O71 C70 1.306 . S
O71 Cd72 2.228 . S
Cd72 O71 2.228 . S
Cd72 O76 2.273 . S
Cd72 O80 2.277 . S
O73 C70 1.160 . S
O73 Cd74 2.203 . S
Cd74 O73 2.203 . S
Cd74 O76 2.411 . S
Cd74 O77 2.333 . S
Cd74 O78 2.352 . S
Cd74 O82 2.277 . S
Cd74 O83 2.356 . S
C75 O80 1.209 . S
C75 O82 1.226 . S
O76 Cd72 2.273 . S
O76 Cd74 2.411 . S
O76 C79 1.320 . S
O77 Cd74 2.333 . S
O77 C79 1.214 . S
O78 Cd74 2.352 . S
O78 C81 1.258 . S
C79 O76 1.320 . S
C79 O77 1.214 . S
O80 Cd72 2.277 . S
O80 C75 1.209 . S
C81 O78 1.258 . S
C81 O83 1.282 . S
O82 Cd74 2.277 . S
O82 C75 1.226 . S
O83 Cd74 2.356 . S
O83 C81 1.282 . S
C84 O85 1.306 . S
C84 O87 1.160 . S
O85 C84 1.306 . S
O85 Cd86 2.228 . S
Cd86 O85 2.228 . S
Cd86 O90 2.273 . S
Cd86 O94 2.277 . S
O87 C84 1.160 . S
O87 Cd88 2.203 . S
Cd88 O87 2.203 . S
Cd88 O90 2.411 . S
Cd88 O91 2.333 . S
Cd88 O92 2.352 . S
Cd88 O96 2.277 . S
Cd88 O97 2.356 . S
C89 O94 1.209 . S
C89 O96 1.226 . S
O90 Cd86 2.273 . S
O90 Cd88 2.411 . S
O90 C93 1.320 . S
O91 Cd88 2.333 . S
O91 C93 1.214 . S
O92 Cd88 2.352 . S
O92 C95 1.258 . S
C93 O90 1.320 . S
C93 O91 1.214 . S
O94 Cd86 2.277 . S
O94 C89 1.209 . S
C95 O92 1.258 . S
C95 O97 1.282 . S
O96 Cd88 2.277 . S
O96 C89 1.226 . S
O97 Cd88 2.356 . S
O97 C95 1.282 . S
C98 O99 1.306 . S
C98 O101 1.160 . S
O99 C98 1.306 . S
O99 Cd100 2.228 . S
Cd100 O99 2.228 . S
Cd100 O104 2.273 . S
Cd100 O108 2.277 . S
O101 C98 1.160 . S
O101 Cd102 2.203 . S
Cd102 O101 2.203 . S
Cd102 O104 2.411 . S
Cd102 O105 2.333 . S
Cd102 O106 2.352 . S
Cd102 O110 2.277 . S
Cd102 O111 2.356 . S
C103 O108 1.209 . S
C103 O110 1.226 . S
O104 Cd100 2.273 . S
O104 Cd102 2.411 . S
O104 C107 1.320 . S
O105 Cd102 2.333 . S
O105 C107 1.214 . S
O106 Cd102 2.352 . S
O106 C109 1.258 . S
C107 O104 1.320 . S
C107 O105 1.214 . S
O108 Cd100 2.277 . S
O108 C103 1.209 . S
C109 O106 1.258 . S
C109 O111 1.282 . S
O110 Cd102 2.277 . S
O110 C103 1.226 . S
O111 Cd102 2.356 . S
O111 C109 1.282 . S
C112 O113 1.306 . S
C112 O115 1.160 . S
O113 C112 1.306 . S
O113 Cd114 2.228 . S
Cd114 O113 2.228 . S
Cd114 O118 2.273 . S
Cd114 O122 2.277 . S
O115 C112 1.160 . S
O115 Cd116 2.203 . S
Cd116 O115 2.203 . S
Cd116 O118 2.411 . S
Cd116 O119 2.333 . S
Cd116 O120 2.352 . S
Cd116 O124 2.277 . S
Cd116 O125 2.356 . S
C117 O122 1.209 . S
C117 O124 1.226 . S
O118 Cd114 2.273 . S
O118 Cd116 2.411 . S
O118 C121 1.320 . S
O119 Cd116 2.333 . S
O119 C121 1.214 . S
O120 Cd116 2.352 . S
O120 C123 1.258 . S
C121 O118 1.320 . S
C121 O119 1.214 . S
O122 Cd114 2.277 . S
O122 C117 1.209 . S
C123 O120 1.258 . S
C123 O125 1.282 . S
O124 Cd116 2.277 . S
O124 C117 1.226 . S
O125 Cd116 2.356 . S
O125 C123 1.282 . S
C126 O127 1.306 . S
C126 O129 1.160 . S
O127 C126 1.306 . S
O127 Cd128 2.228 . S
Cd128 O127 2.228 . S
Cd128 O132 2.273 . S
Cd128 O136 2.277 . S
O129 C126 1.160 . S
O129 Cd130 2.203 . S
Cd130 O129 2.203 . S
Cd130 O132 2.411 . S
Cd130 O133 2.333 . S
Cd130 O134 2.352 . S
Cd130 O138 2.277 . S
Cd130 O139 2.356 . S
C131 O136 1.209 . S
C131 O138 1.226 . S
O132 Cd128 2.273 . S
O132 Cd130 2.411 . S
O132 C135 1.320 . S
O133 Cd130 2.333 . S
O133 C135 1.214 . S
O134 Cd130 2.352 . S
O134 C137 1.258 . S
C135 O132 1.320 . S
C135 O133 1.214 . S
O136 Cd128 2.277 . S
O136 C131 1.209 . S
C137 O134 1.258 . S
C137 O139 1.282 . S
O138 Cd130 2.277 . S
O138 C131 1.226 . S
O139 Cd130 2.356 . S
O139 C137 1.282 . S
C140 O141 1.306 . S
C140 O143 1.160 . S
O141 C140 1.306 . S
O141 Cd142 2.228 . S
Cd142 O141 2.228 . S
Cd142 O146 2.273 . S
Cd142 O150 2.277 . S
O143 C140 1.160 . S
O143 Cd144 2.203 . S
Cd144 O143 2.203 . S
Cd144 O146 2.411 . S
Cd144 O147 2.333 . S
Cd144 O148 2.352 . S
Cd144 O152 2.277 . S
Cd144 O153 2.356 . S
C145 O150 1.209 . S
C145 O152 1.226 . S
O146 Cd142 2.273 . S
O146 Cd144 2.411 . S
O146 C149 1.320 . S
O147 Cd144 2.333 . S
O147 C149 1.214 . S
O148 Cd144 2.352 . S
O148 C151 1.258 . S
C149 O146 1.320 . S
C149 O147 1.214 . S
O150 Cd142 2.277 . S
O150 C145 1.209 . S
C151 O148 1.258 . S
C151 O153 1.282 . S
O152 Cd144 2.277 . S
O152 C145 1.226 . S
O153 Cd144 2.356 . S
O153 C151 1.282 . S
C154 O155 1.306 . S
C154 O157 1.160 . S
O155 C154 1.306 . S
O155 Cd156 2.228 . S
Cd156 O155 2.228 . S
Cd156 O160 2.273 . S
Cd156 O164 2.277 . S
O157 C154 1.160 . S
O157 Cd158 2.203 . S
Cd158 O157 2.203 . S
Cd158 O160 2.411 . S
Cd158 O161 2.333 . S
Cd158 O162 2.352 . S
Cd158 O166 2.277 . S
Cd158 O167 2.356 . S
C159 O164 1.209 . S
C159 O166 1.226 . S
O160 Cd156 2.273 . S
O160 Cd158 2.411 . S
O160 C163 1.320 . S
O161 Cd158 2.333 . S
O161 C163 1.214 . S
O162 Cd158 2.352 . S
O162 C165 1.258 . S
C163 O160 1.320 . S
C163 O161 1.214 . S
O164 Cd156 2.277 . S
O164 C159 1.209 . S
C165 O162 1.258 . S
C165 O167 1.282 . S
O166 Cd158 2.277 . S
O166 C159 1.226 . S
O167 Cd158 2.356 . S
O167 C165 1.282 . S
C168 O169 1.306 . S
C168 O171 1.160 . S
O169 C168 1.306 . S
O169 Cd170 2.228 . S
Cd170 O169 2.228 . S
Cd170 O174 2.273 . S
Cd170 O178 2.277 . S
O171 C168 1.160 . S
O171 Cd172 2.203 . S
Cd172 O171 2.203 . S
Cd172 O174 2.411 . S
Cd172 O175 2.333 . S
Cd172 O176 2.352 . S
Cd172 O180 2.277 . S
Cd172 O181 2.356 . S
C173 O178 1.209 . S
C173 O180 1.226 . S
O174 Cd170 2.273 . S
O174 Cd172 2.411 . S
O174 C177 1.320 . S
O175 Cd172 2.333 . S
O175 C177 1.214 . S
O176 Cd172 2.352 . S
O176 C179 1.258 . S
C177 O174 1.320 . S
C177 O175 1.214 . S
O178 Cd170 2.277 . S
O178 C173 1.209 . S
C179 O176 1.258 . S
C179 O181 1.282 . S
O180 Cd172 2.277 . S
O180 C173 1.226 . S
O181 Cd172 2.356 . S
O181 C179 1.282 . S
C182 O183 1.306 . S
C182 O185 1.160 . S
O183 C182 1.306 . S
O183 Cd184 2.228 . S
Cd184 O183 2.228 . S
Cd184 O188 2.273 . S
Cd184 O192 2.277 . S
O185 C182 1.160 . S
O185 Cd186 2.203 . S
Cd186 O185 2.203 . S
Cd186 O188 2.411 . S
Cd186 O189 2.333 . S
Cd186 O190 2.352 . S
Cd186 O194 2.277 . S
Cd186 O195 2.356 . S
C187 O192 1.209 . S
C187 O194 1.226 . S
O188 Cd184 2.273 . S
O188 Cd186 2.411 . S
O188 C191 1.320 . S
O189 Cd186 2.333 . S
O189 C191 1.214 . S
O190 Cd186 2.352 . S
O190 C193 1.258 . S
C191 O188 1.320 . S
C191 O189 1.214 . S
O192 Cd184 2.277 . S
O192 C187 1.209 . S
C193 O190 1.258 . S
C193 O195 1.282 . S
O194 Cd186 2.277 . S
O194 C187 1.226 . S
O195 Cd186 2.356 . S
O195 C193 1.282 . S
C196 O197 1.306 . S
C196 O199 1.160 . S
O197 C196 1.306 . S
O197 Cd198 2.228 . S
Cd198 O197 2.228 . S
Cd198 O202 2.273 . S
Cd198 O206 2.277 . S
O199 C196 1.160 . S
O199 Cd200 2.203 . S
Cd200 O199 2.203 . S
Cd200 O202 2.411 . S
Cd200 O203 2.333 . S
Cd200 O204 2.352 . S
Cd200 O208 2.277 . S
Cd200 O209 2.356 . S
C201 O206 1.209 . S
C201 O208 1.226 . S
O202 Cd198 2.273 . S
O202 Cd200 2.411 . S
O202 C205 1.320 . S
O203 Cd200 2.333 . S
O203 C205 1.214 . S
O204 Cd200 2.352 . S
O204 C207 1.258 . S
C205 O202 1.320 . S
C205 O203 1.214 . S
O206 Cd198 2.277 . S
O206 C201 1.209 . S
C207 O204 1.258 . S
C207 O209 1.282 . S
O208 Cd200 2.277 . S
O208 C201 1.226 . S
O209 Cd200 2.356 . S
O209 C207 1.282 . S
C210 O211 1.306 . S
C210 O213 1.160 . S
O211 C210 1.306 . S
O211 Cd212 2.228 . S
Cd212 O211 2.228 . S
Cd212 O216 2.273 . S
Cd212 O220 2.277 . S
O213 C210 1.160 . S
O213 Cd214 2.203 . S
Cd214 O213 2.203 . S
Cd214 O216 2.411 . S
Cd214 O217 2.333 . S
Cd214 O218 2.352 . S
Cd214 O222 2.277 . S
Cd214 O223 2.356 . S
C215 O220 1.209 . S
C215 O222 1.226 . S
O216 Cd212 2.273 . S
O216 Cd214 2.411 . S
O216 C219 1.320 . S
O217 Cd214 2.333 . S
O217 C219 1.214 . S
O218 Cd214 2.352 . S
O218 C221 1.258 . S
C219 O216 1.320 . S
C219 O217 1.214 . S
O220 Cd212 2.277 . S
O220 C215 1.209 . S
C221 O218 1.258 . S
C221 O223 1.282 . S
O222 Cd214 2.277 . S
O222 C215 1.226 . S
O223 Cd214 2.356 . S
O223 C221 1.282 . S
C224 O225 1.306 . S
C224 O227 1.160 . S
O225 C224 1.306 . S
O225 Cd226 2.228 . S
Cd226 O225 2.228 . S
Cd226 O230 2.273 . S
Cd226 O234 2.277 . S
O227 C224 1.160 . S
O227 Cd228 2.203 . S
Cd228 O227 2.203 . S
Cd228 O230 2.411 . S
Cd228 O231 2.333 . S
Cd228 O232 2.352 . S
Cd228 O236 2.277 . S
Cd228 O237 2.356 . S
C229 O234 1.209 . S
C229 O236 1.226 . S
O230 Cd226 2.273 . S
O230 Cd228 2.411 . S
O230 C233 1.320 . S
O231 Cd228 2.333 . S
O231 C233 1.214 . S
O232 Cd228 2.352 . S
O232 C235 1.258 . S
C233 O230 1.320 . S
C233 O231 1.214 . S
O234 Cd226 2.277 . S
O234 C229 1.209 . S
C235 O232 1.258 . S
C235 O237 1.282 . S
O236 Cd228 2.277 . S
O236 C229 1.226 . S
O237 Cd228 2.356 . S
O237 C235 1.282 . S
C238 O239 1.306 . S
C238 O241 1.160 . S
O239 C238 1.306 . S
O239 Cd240 2.228 . S
Cd240 O239 2.228 . S
Cd240 O244 2.273 . S
Cd240 O248 2.277 . S
O241 C238 1.160 . S
O241 Cd242 2.203 . S
Cd242 O241 2.203 . S
Cd242 O244 2.411 . S
Cd242 O245 2.333 . S
Cd242 O246 2.352 . S
Cd242 O250 2.277 . S
Cd242 O251 2.356 . S
C243 O248 1.209 . S
C243 O250 1.226 . S
O244 Cd240 2.273 . S
O244 Cd242 2.411 . S
O244 C247 1.320 . S
O245 Cd242 2.333 . S
O245 C247 1.214 . S
O246 Cd242 2.352 . S
O246 C249 1.258 . S
C247 O244 1.320 . S
C247 O245 1.214 . S
O248 Cd240 2.277 . S
O248 C243 1.209 . S
C249 O246 1.258 . S
C249 O251 1.282 . S
O250 Cd242 2.277 . S
O250 C243 1.226 . S
O251 Cd242 2.356 . S
O251 C249 1.282 . S
C252 O253 1.306 . S
C252 O255 1.160 . S
O253 C252 1.306 . S
O253 Cd254 2.228 . S
Cd254 O253 2.228 . S
Cd254 O258 2.273 . S
Cd254 O262 2.277 . S
O255 C252 1.160 . S
O255 Cd256 2.203 . S
Cd256 O255 2.203 . S
Cd256 O258 2.411 . S
Cd256 O259 2.333 . S
Cd256 O260 2.352 . S
Cd256 O264 2.277 . S
Cd256 O265 2.356 . S
C257 O262 1.209 . S
C257 O264 1.226 . S
O258 Cd254 2.273 . S
O258 Cd256 2.411 . S
O258 C261 1.320 . S
O259 Cd256 2.333 . S
O259 C261 1.214 . S
O260 Cd256 2.352 . S
O260 C263 1.258 . S
C261 O258 1.320 . S
C261 O259 1.214 . S
O262 Cd254 2.277 . S
O262 C257 1.209 . S
C263 O260 1.258 . S
C263 O265 1.282 . S
O264 Cd256 2.277 . S
O264 C257 1.226 . S
O265 Cd256 2.356 . S
O265 C263 1.282 . S
C266 O267 1.306 . S
C266 O269 1.160 . S
O267 C266 1.306 . S
O267 Cd268 2.228 . S
Cd268 O267 2.228 . S
Cd268 O272 2.273 . S
Cd268 O276 2.277 . S
O269 C266 1.160 . S
O269 Cd270 2.203 . S
Cd270 O269 2.203 . S
Cd270 O272 2.411 . S
Cd270 O273 2.333 . S
Cd270 O274 2.352 . S
Cd270 O278 2.277 . S
Cd270 O279 2.356 . S
C271 O276 1.209 . S
C271 O278 1.226 . S
O272 Cd268 2.273 . S
O272 Cd270 2.411 . S
O272 C275 1.320 . S
O273 Cd270 2.333 . S
O273 C275 1.214 . S
O274 Cd270 2.352 . S
O274 C277 1.258 . S
C275 O272 1.320 . S
C275 O273 1.214 . S
O276 Cd268 2.277 . S
O276 C271 1.209 . S
C277 O274 1.258 . S
C277 O279 1.282 . S
O278 Cd270 2.277 . S
O278 C271 1.226 . S
O279 Cd270 2.356 . S
O279 C277 1.282 . S
C280 O281 1.306 . S
C280 O283 1.160 . S
O281 C280 1.306 . S
O281 Cd282 2.228 . S
Cd282 O281 2.228 . S
Cd282 O286 2.273 . S
Cd282 O290 2.277 . S
O283 C280 1.160 . S
O283 Cd284 2.203 . S
Cd284 O283 2.203 . S
Cd284 O286 2.411 . S
Cd284 O287 2.333 . S
Cd284 O288 2.352 . S
Cd284 O292 2.277 . S
Cd284 O293 2.356 . S
C285 O290 1.209 . S
C285 O292 1.226 . S
O286 Cd282 2.273 . S
O286 Cd284 2.411 . S
O286 C289 1.320 . S
O287 Cd284 2.333 . S
O287 C289 1.214 . S
O288 Cd284 2.352 . S
O288 C291 1.258 . S
C289 O286 1.320 . S
C289 O287 1.214 . S
O290 Cd282 2.277 . S
O290 C285 1.209 . S
C291 O288 1.258 . S
C291 O293 1.282 . S
O292 Cd284 2.277 . S
O292 C285 1.226 . S
O293 Cd284 2.356 . S
O293 C291 1.282 . S
C294 O295 1.306 . S
C294 O297 1.160 . S
O295 C294 1.306 . S
O295 Cd296 2.228 1_556 S
Cd296 O295 2.228 1_554 S
Cd296 O300 2.273 . S
Cd296 O304 2.277 . S
O297 C294 1.160 . S
O297 Cd298 2.203 1_556 S
Cd298 O297 2.203 1_554 S
Cd298 O300 2.411 . S
Cd298 O301 2.333 . S
Cd298 O302 2.352 . S
Cd298 O306 2.277 . S
Cd298 O307 2.356 . S
C299 O304 1.209 . S
C299 O306 1.226 . S
O300 Cd296 2.273 . S
O300 Cd298 2.411 . S
O300 C303 1.320 . S
O301 Cd298 2.333 . S
O301 C303 1.214 . S
O302 Cd298 2.352 . S
O302 C305 1.258 . S
C303 O300 1.320 . S
C303 O301 1.214 . S
O304 Cd296 2.277 . S
O304 C299 1.209 . S
C305 O302 1.258 . S
C305 O307 1.282 . S
O306 Cd298 2.277 . S
O306 C299 1.226 . S
O307 Cd298 2.356 . S
O307 C305 1.282 . S
C308 O309 1.306 . S
C308 O311 1.160 . S
O309 C308 1.306 . S
O309 Cd310 2.228 1_556 S
Cd310 O309 2.228 1_554 S
Cd310 O314 2.273 . S
Cd310 O318 2.277 . S
O311 C308 1.160 . S
O311 Cd312 2.203 1_556 S
Cd312 O311 2.203 1_554 S
Cd312 O314 2.411 . S
Cd312 O315 2.333 . S
Cd312 O316 2.352 . S
Cd312 O320 2.277 . S
Cd312 O321 2.356 . S
C313 O318 1.209 . S
C313 O320 1.226 . S
O314 Cd310 2.273 . S
O314 Cd312 2.411 . S
O314 C317 1.320 . S
O315 Cd312 2.333 . S
O315 C317 1.214 . S
O316 Cd312 2.352 . S
O316 C319 1.258 . S
C317 O314 1.320 . S
C317 O315 1.214 . S
O318 Cd310 2.277 . S
O318 C313 1.209 . S
C319 O316 1.258 . S
C319 O321 1.282 . S
O320 Cd312 2.277 . S
O320 C313 1.226 . S
O321 Cd312 2.356 . S
O321 C319 1.282 . S
C322 O323 1.306 . S
C322 O325 1.160 . S
O323 C322 1.306 . S
O323 Cd324 2.228 1_556 S
Cd324 O323 2.228 1_554 S
Cd324 O328 2.273 . S
Cd324 O332 2.277 . S
O325 C322 1.160 . S
O325 Cd326 2.203 1_556 S
Cd326 O325 2.203 1_554 S
Cd326 O328 2.411 . S
Cd326 O329 2.333 . S
Cd326 O330 2.352 . S
Cd326 O334 2.277 . S
Cd326 O335 2.356 . S
C327 O332 1.209 . S
C327 O334 1.226 . S
O328 Cd324 2.273 . S
O328 Cd326 2.411 . S
O328 C331 1.320 . S
O329 Cd326 2.333 . S
O329 C331 1.214 . S
O330 Cd326 2.352 . S
O330 C333 1.258 . S
C331 O328 1.320 . S
C331 O329 1.214 . S
O332 Cd324 2.277 . S
O332 C327 1.209 . S
C333 O330 1.258 . S
C333 O335 1.282 . S
O334 Cd326 2.277 . S
O334 C327 1.226 . S
O335 Cd326 2.356 . S
O335 C333 1.282 . S
C336 O337 1.306 . S
C336 O339 1.160 . S
O337 C336 1.306 . S
O337 Cd338 2.228 . S
Cd338 O337 2.228 . S
Cd338 O342 2.273 . S
Cd338 O346 2.277 . S
O339 C336 1.160 . S
O339 Cd340 2.203 . S
Cd340 O339 2.203 . S
Cd340 O342 2.411 . S
Cd340 O343 2.333 . S
Cd340 O344 2.352 . S
Cd340 O348 2.277 . S
Cd340 O349 2.356 . S
C341 O346 1.209 . S
C341 O348 1.226 . S
O342 Cd338 2.273 . S
O342 Cd340 2.411 . S
O342 C345 1.320 . S
O343 Cd340 2.333 . S
O343 C345 1.214 . S
O344 Cd340 2.352 . S
O344 C347 1.258 . S
C345 O342 1.320 . S
C345 O343 1.214 . S
O346 Cd338 2.277 . S
O346 C341 1.209 . S
C347 O344 1.258 . S
C347 O349 1.282 . S
O348 Cd340 2.277 . S
O348 C341 1.226 . S
O349 Cd340 2.356 . S
O349 C347 1.282 . S
C350 O351 1.306 . S
C350 O353 1.160 . S
O351 C350 1.306 . S
O351 Cd352 2.228 . S
Cd352 O351 2.228 . S
Cd352 O356 2.273 . S
Cd352 O360 2.277 . S
O353 C350 1.160 . S
O353 Cd354 2.203 . S
Cd354 O353 2.203 . S
Cd354 O356 2.411 . S
Cd354 O357 2.333 . S
Cd354 O358 2.352 . S
Cd354 O362 2.277 . S
Cd354 O363 2.356 . S
C355 O360 1.209 . S
C355 O362 1.226 . S
O356 Cd352 2.273 . S
O356 Cd354 2.411 . S
O356 C359 1.320 . S
O357 Cd354 2.333 . S
O357 C359 1.214 . S
O358 Cd354 2.352 . S
O358 C361 1.258 . S
C359 O356 1.320 . S
C359 O357 1.214 . S
O360 Cd352 2.277 . S
O360 C355 1.209 . S
C361 O358 1.258 . S
C361 O363 1.282 . S
O362 Cd354 2.277 . S
O362 C355 1.226 . S
O363 Cd354 2.356 . S
O363 C361 1.282 . S
C364 O365 1.306 . S
C364 O367 1.160 . S
O365 C364 1.306 . S
O365 Cd366 2.228 . S
Cd366 O365 2.228 . S
Cd366 O370 2.273 . S
Cd366 O374 2.277 . S
O367 C364 1.160 . S
O367 Cd368 2.203 . S
Cd368 O367 2.203 . S
Cd368 O370 2.411 . S
Cd368 O371 2.333 . S
Cd368 O372 2.352 . S
Cd368 O376 2.277 . S
Cd368 O377 2.356 . S
C369 O374 1.209 . S
C369 O376 1.226 . S
O370 Cd366 2.273 . S
O370 Cd368 2.411 . S
O370 C373 1.320 . S
O371 Cd368 2.333 . S
O371 C373 1.214 . S
O372 Cd368 2.352 . S
O372 C375 1.258 . S
C373 O370 1.320 . S
C373 O371 1.214 . S
O374 Cd366 2.277 . S
O374 C369 1.209 . S
C375 O372 1.258 . S
C375 O377 1.282 . S
O376 Cd368 2.277 . S
O376 C369 1.226 . S
O377 Cd368 2.356 . S
O377 C375 1.282 . S
C378 O379 1.306 . S
C378 O381 1.160 . S
O379 C378 1.306 . S
O379 Cd380 2.228 1_554 S
Cd380 O379 2.228 1_556 S
Cd380 O384 2.273 . S
Cd380 O388 2.277 . S
O381 C378 1.160 . S
O381 Cd382 2.203 1_554 S
Cd382 O381 2.203 1_556 S
Cd382 O384 2.411 . S
Cd382 O385 2.333 . S
Cd382 O386 2.352 . S
Cd382 O390 2.277 . S
Cd382 O391 2.356 . S
C383 O388 1.209 . S
C383 O390 1.226 . S
O384 Cd380 2.273 . S
O384 Cd382 2.411 . S
O384 C387 1.320 . S
O385 Cd382 2.333 . S
O385 C387 1.214 . S
O386 Cd382 2.352 . S
O386 C389 1.258 . S
C387 O384 1.320 . S
C387 O385 1.214 . S
O388 Cd380 2.277 . S
O388 C383 1.209 . S
C389 O386 1.258 . S
C389 O391 1.282 . S
O390 Cd382 2.277 . S
O390 C383 1.226 . S
O391 Cd382 2.356 . S
O391 C389 1.282 . S
C392 O393 1.306 . S
C392 O395 1.160 . S
O393 C392 1.306 . S
O393 Cd394 2.228 1_554 S
Cd394 O393 2.228 1_556 S
Cd394 O398 2.273 . S
Cd394 O402 2.277 . S
O395 C392 1.160 . S
O395 Cd396 2.203 1_554 S
Cd396 O395 2.203 1_556 S
Cd396 O398 2.411 . S
Cd396 O399 2.333 . S
Cd396 O400 2.352 . S
Cd396 O404 2.277 . S
Cd396 O405 2.356 . S
C397 O402 1.209 . S
C397 O404 1.226 . S
O398 Cd394 2.273 . S
O398 Cd396 2.411 . S
O398 C401 1.320 . S
O399 Cd396 2.333 . S
O399 C401 1.214 . S
O400 Cd396 2.352 . S
O400 C403 1.258 . S
C401 O398 1.320 . S
C401 O399 1.214 . S
O402 Cd394 2.277 . S
O402 C397 1.209 . S
C403 O400 1.258 . S
C403 O405 1.282 . S
O404 Cd396 2.277 . S
O404 C397 1.226 . S
O405 Cd396 2.356 . S
O405 C403 1.282 . S
C406 O407 1.306 . S
C406 O409 1.160 . S
O407 C406 1.306 . S
O407 Cd408 2.228 1_554 S
Cd408 O407 2.228 1_556 S
Cd408 O412 2.273 . S
Cd408 O416 2.277 . S
O409 C406 1.160 . S
O409 Cd410 2.203 1_554 S
Cd410 O409 2.203 1_556 S
Cd410 O412 2.411 . S
Cd410 O413 2.333 . S
Cd410 O414 2.352 . S
Cd410 O418 2.277 . S
Cd410 O419 2.356 . S
C411 O416 1.209 . S
C411 O418 1.226 . S
O412 Cd408 2.273 . S
O412 Cd410 2.411 . S
O412 C415 1.320 . S
O413 Cd410 2.333 . S
O413 C415 1.214 . S
O414 Cd410 2.352 . S
O414 C417 1.258 . S
C415 O412 1.320 . S
C415 O413 1.214 . S
O416 Cd408 2.277 . S
O416 C411 1.209 . S
C417 O414 1.258 . S
C417 O419 1.282 . S
O418 Cd410 2.277 . S
O418 C411 1.226 . S
O419 Cd410 2.356 . S
O419 C417 1.282 . S
C420 O421 1.306 . S
C420 O423 1.160 . S
O421 C420 1.306 . S
O421 Cd422 2.228 . S
Cd422 O421 2.228 . S
Cd422 O426 2.273 . S
Cd422 O430 2.277 . S
O423 C420 1.160 . S
O423 Cd424 2.203 . S
Cd424 O423 2.203 . S
Cd424 O426 2.411 . S
Cd424 O427 2.333 . S
Cd424 O428 2.352 . S
Cd424 O432 2.277 . S
Cd424 O433 2.356 . S
C425 O430 1.209 . S
C425 O432 1.226 . S
O426 Cd422 2.273 . S
O426 Cd424 2.411 . S
O426 C429 1.320 . S
O427 Cd424 2.333 . S
O427 C429 1.214 . S
O428 Cd424 2.352 . S
O428 C431 1.258 . S
C429 O426 1.320 . S
C429 O427 1.214 . S
O430 Cd422 2.277 . S
O430 C425 1.209 . S
C431 O428 1.258 . S
C431 O433 1.282 . S
O432 Cd424 2.277 . S
O432 C425 1.226 . S
O433 Cd424 2.356 . S
O433 C431 1.282 . S
C434 O435 1.306 . S
C434 O437 1.160 . S
O435 C434 1.306 . S
O435 Cd436 2.228 . S
Cd436 O435 2.228 . S
Cd436 O440 2.273 . S
Cd436 O444 2.277 . S
O437 C434 1.160 . S
O437 Cd438 2.203 . S
Cd438 O437 2.203 . S
Cd438 O440 2.411 . S
Cd438 O441 2.333 . S
Cd438 O442 2.352 . S
Cd438 O446 2.277 . S
Cd438 O447 2.356 . S
C439 O444 1.209 . S
C439 O446 1.226 . S
O440 Cd436 2.273 . S
O440 Cd438 2.411 . S
O440 C443 1.320 . S
O441 Cd438 2.333 . S
O441 C443 1.214 . S
O442 Cd438 2.352 . S
O442 C445 1.258 . S
C443 O440 1.320 . S
C443 O441 1.214 . S
O444 Cd436 2.277 . S
O444 C439 1.209 . S
C445 O442 1.258 . S
C445 O447 1.282 . S
O446 Cd438 2.277 . S
O446 C439 1.226 . S
O447 Cd438 2.356 . S
O447 C445 1.282 . S
C448 O449 1.306 . S
C448 O451 1.160 . S
O449 C448 1.306 . S
O449 Cd450 2.228 . S
Cd450 O449 2.228 . S
Cd450 O454 2.273 . S
Cd450 O458 2.277 . S
O451 C448 1.160 . S
O451 Cd452 2.203 . S
Cd452 O451 2.203 . S
Cd452 O454 2.411 . S
Cd452 O455 2.333 . S
Cd452 O456 2.352 . S
Cd452 O460 2.277 . S
Cd452 O461 2.356 . S
C453 O458 1.209 . S
C453 O460 1.226 . S
O454 Cd450 2.273 . S
O454 Cd452 2.411 . S
O454 C457 1.320 . S
O455 Cd452 2.333 . S
O455 C457 1.214 . S
O456 Cd452 2.352 . S
O456 C459 1.258 . S
C457 O454 1.320 . S
C457 O455 1.214 . S
O458 Cd450 2.277 . S
O458 C453 1.209 . S
C459 O456 1.258 . S
C459 O461 1.282 . S
O460 Cd452 2.277 . S
O460 C453 1.226 . S
O461 Cd452 2.356 . S
O461 C459 1.282 . S
C462 O463 1.306 . S
C462 O465 1.160 . S
O463 C462 1.306 . S
O463 Cd464 2.228 . S
Cd464 O463 2.228 . S
Cd464 O468 2.273 . S
Cd464 O472 2.277 . S
O465 C462 1.160 . S
O465 Cd466 2.203 . S
Cd466 O465 2.203 . S
Cd466 O468 2.411 . S
Cd466 O469 2.333 . S
Cd466 O470 2.352 . S
Cd466 O474 2.277 . S
Cd466 O475 2.356 . S
C467 O472 1.209 . S
C467 O474 1.226 . S
O468 Cd464 2.273 . S
O468 Cd466 2.411 . S
O468 C471 1.320 . S
O469 Cd466 2.333 . S
O469 C471 1.214 . S
O470 Cd466 2.352 . S
O470 C473 1.258 . S
C471 O468 1.320 . S
C471 O469 1.214 . S
O472 Cd464 2.277 . S
O472 C467 1.209 . S
C473 O470 1.258 . S
C473 O475 1.282 . S
O474 Cd466 2.277 . S
O474 C467 1.226 . S
O475 Cd466 2.356 . S
O475 C473 1.282 . S
C476 O477 1.306 . S
C476 O479 1.160 . S
O477 C476 1.306 . S
O477 Cd478 2.228 . S
Cd478 O477 2.228 . S
Cd478 O482 2.273 . S
Cd478 O486 2.277 . S
O479 C476 1.160 . S
O479 Cd480 2.203 . S
Cd480 O479 2.203 . S
Cd480 O482 2.411 . S
Cd480 O483 2.333 . S
Cd480 O484 2.352 . S
Cd480 O488 2.277 . S
Cd480 O489 2.356 . S
C481 O486 1.209 . S
C481 O488 1.226 . S
O482 Cd478 2.273 . S
O482 Cd480 2.411 . S
O482 C485 1.320 . S
O483 Cd480 2.333 . S
O483 C485 1.214 . S
O484 Cd480 2.352 . S
O484 C487 1.258 . S
C485 O482 1.320 . S
C485 O483 1.214 . S
O486 Cd478 2.277 . S
O486 C481 1.209 . S
C487 O484 1.258 . S
C487 O489 1.282 . S
O488 Cd480 2.277 . S
O488 C481 1.226 . S
O489 Cd480 2.356 . S
O489 C487 1.282 . S
C490 O491 1.306 . S
C490 O493 1.160 . S
O491 C490 1.306 . S
O491 Cd492 2.228 . S
Cd492 O491 2.228 . S
Cd492 O496 2.273 . S
Cd492 O500 2.277 . S
O493 C490 1.160 . S
O493 Cd494 2.203 . S
Cd494 O493 2.203 . S
Cd494 O496 2.411 . S
Cd494 O497 2.333 . S
Cd494 O498 2.352 . S
Cd494 O502 2.277 . S
Cd494 O503 2.356 . S
C495 O500 1.209 . S
C495 O502 1.226 . S
O496 Cd492 2.273 . S
O496 Cd494 2.411 . S
O496 C499 1.320 . S
O497 Cd494 2.333 . S
O497 C499 1.214 . S
O498 Cd494 2.352 . S
O498 C501 1.258 . S
C499 O496 1.320 . S
C499 O497 1.214 . S
O500 Cd492 2.277 . S
O500 C495 1.209 . S
C501 O498 1.258 . S
C501 O503 1.282 . S
O502 Cd494 2.277 . S
O502 C495 1.226 . S
O503 Cd494 2.356 . S
O503 C501 1.282 . S
H504 C512 0.950 . S
H505 C517 0.950 . S
H506 C514 0.950 . S
H507 C516 0.950 . S
H508 C518 0.950 . S
H509 C520 0.950 1_556 S
H510 C522 0.950 1_556 S
H511 C523 0.950 . S
C512 H504 0.950 . S
C512 C513 1.386 . S
C512 C514 1.391 . S
C513 C512 1.386 . S
C513 C517 1.393 . S
C514 H506 0.950 . S
C514 C512 1.391 . S
C514 C515 1.400 . S
C515 C514 1.400 . S
C515 C516 1.398 . S
C515 C521 1.491 . S
C516 H507 0.950 . S
C516 C515 1.398 . S
C516 C517 1.391 . S
C517 H505 0.950 . S
C517 C513 1.393 . S
C517 C516 1.391 . S
C518 H508 0.950 . S
C518 C519 1.386 . S
C518 C520 1.391 . S
C519 C518 1.386 . S
C519 C523 1.393 . S
C520 H509 0.950 1_554 S
C520 C518 1.391 . S
C520 C521 1.400 1_554 S
C521 C515 1.491 . S
C521 C520 1.400 1_556 S
C521 C522 1.398 1_556 S
C522 H510 0.950 1_554 S
C522 C521 1.398 1_554 S
C522 C523 1.391 . S
C523 H511 0.950 . S
C523 C519 1.393 . S
C523 C522 1.391 . S
H524 C532 0.950 . S
H525 C537 0.950 . S
H526 C534 0.950 . S
H527 C536 0.950 . S
H528 C538 0.950 . S
H529 C540 0.950 1_556 S
H530 C542 0.950 1_556 S
H531 C543 0.950 . S
C532 H524 0.950 . S
C532 C533 1.386 . S
C532 C534 1.391 . S
C533 C532 1.386 . S
C533 C537 1.393 . S
C534 H526 0.950 . S
C534 C532 1.391 . S
C534 C535 1.400 . S
C535 C534 1.400 . S
C535 C536 1.398 . S
C535 C541 1.491 . S
C536 H527 0.950 . S
C536 C535 1.398 . S
C536 C537 1.391 . S
C537 H525 0.950 . S
C537 C533 1.393 . S
C537 C536 1.391 . S
C538 H528 0.950 . S
C538 C539 1.386 . S
C538 C540 1.391 . S
C539 C538 1.386 . S
C539 C543 1.393 . S
C540 H529 0.950 1_554 S
C540 C538 1.391 . S
C540 C541 1.400 1_554 S
C541 C535 1.491 . S
C541 C540 1.400 1_556 S
C541 C542 1.398 1_556 S
C542 H530 0.950 1_554 S
C542 C541 1.398 1_554 S
C542 C543 1.391 . S
C543 H531 0.950 . S
C543 C539 1.393 . S
C543 C542 1.391 . S
H544 C552 0.950 . S
H545 C557 0.950 . S
H546 C554 0.950 1_556 S
H547 C556 0.950 1_556 S
H548 C558 0.950 . S
H549 C560 0.950 . S
H550 C562 0.950 . S
H551 C563 0.950 . S
C552 H544 0.950 . S
C552 C553 1.386 . S
C552 C554 1.391 . S
C553 C552 1.386 . S
C553 C557 1.393 . S
C554 H546 0.950 1_554 S
C554 C552 1.391 . S
C554 C555 1.400 1_554 S
C555 C554 1.400 1_556 S
C555 C556 1.398 1_556 S
C555 C561 1.491 . S
C556 H547 0.950 1_554 S
C556 C555 1.398 1_554 S
C556 C557 1.391 . S
C557 H545 0.950 . S
C557 C553 1.393 . S
C557 C556 1.391 . S
C558 H548 0.950 . S
C558 C559 1.386 . S
C558 C560 1.391 . S
C559 C558 1.386 . S
C559 C563 1.393 . S
C560 H549 0.950 . S
C560 C558 1.391 . S
C560 C561 1.400 . S
C561 C555 1.491 . S
C561 C560 1.400 . S
C561 C562 1.398 . S
C562 H550 0.950 . S
C562 C561 1.398 . S
C562 C563 1.391 . S
C563 H551 0.950 . S
C563 C559 1.393 . S
C563 C562 1.391 . S
H564 C572 0.950 . S
H565 C577 0.950 . S
H566 C574 0.950 . S
H567 C576 0.950 . S
H568 C578 0.950 . S
H569 C580 0.950 . S
H570 C582 0.950 . S
H571 C583 0.950 . S
C572 H564 0.950 . S
C572 C573 1.386 . S
C572 C574 1.391 . S
C573 C572 1.386 . S
C573 C577 1.393 . S
C574 H566 0.950 . S
C574 C572 1.391 . S
C574 C575 1.400 . S
C575 C574 1.400 . S
C575 C576 1.398 . S
C575 C581 1.491 . S
C576 H567 0.950 . S
C576 C575 1.398 . S
C576 C577 1.391 . S
C577 H565 0.950 . S
C577 C573 1.393 . S
C577 C576 1.391 . S
C578 H568 0.950 . S
C578 C579 1.386 . S
C578 C580 1.391 . S
C579 C578 1.386 . S
C579 C583 1.393 . S
C580 H569 0.950 . S
C580 C578 1.391 . S
C580 C581 1.400 . S
C581 C575 1.491 . S
C581 C580 1.400 . S
C581 C582 1.398 . S
C582 H570 0.950 . S
C582 C581 1.398 . S
C582 C583 1.391 . S
C583 H571 0.950 . S
C583 C579 1.393 . S
C583 C582 1.391 . S
H584 C592 0.950 . S
H585 C597 0.950 . S
H586 C594 0.950 . S
H587 C596 0.950 . S
H588 C598 0.950 . S
H589 C600 0.950 . S
H590 C602 0.950 . S
H591 C603 0.950 . S
C592 H584 0.950 . S
C592 C593 1.386 . S
C592 C594 1.391 . S
C593 C592 1.386 . S
C593 C597 1.393 . S
C594 H586 0.950 . S
C594 C592 1.391 . S
C594 C595 1.400 . S
C595 C594 1.400 . S
C595 C596 1.398 . S
C595 C601 1.491 . S
C596 H587 0.950 . S
C596 C595 1.398 . S
C596 C597 1.391 . S
C597 H585 0.950 . S
C597 C593 1.393 . S
C597 C596 1.391 . S
C598 H588 0.950 . S
C598 C599 1.386 . S
C598 C600 1.391 . S
C599 C598 1.386 . S
C599 C603 1.393 . S
C600 H589 0.950 . S
C600 C598 1.391 . S
C600 C601 1.400 . S
C601 C595 1.491 . S
C601 C600 1.400 . S
C601 C602 1.398 . S
C602 H590 0.950 . S
C602 C601 1.398 . S
C602 C603 1.391 . S
C603 H591 0.950 . S
C603 C599 1.393 . S
C603 C602 1.391 . S
H604 C612 0.950 . S
H605 C617 0.950 . S
H606 C614 0.950 . S
H607 C616 0.950 . S
H608 C618 0.950 . S
H609 C620 0.950 . S
H610 C622 0.950 . S
H611 C623 0.950 . S
C612 H604 0.950 . S
C612 C613 1.386 . S
C612 C614 1.391 . S
C613 C612 1.386 . S
C613 C617 1.393 . S
C614 H606 0.950 . S
C614 C612 1.391 . S
C614 C615 1.400 . S
C615 C614 1.400 . S
C615 C616 1.398 . S
C615 C621 1.491 . S
C616 H607 0.950 . S
C616 C615 1.398 . S
C616 C617 1.391 . S
C617 H605 0.950 . S
C617 C613 1.393 . S
C617 C616 1.391 . S
C618 H608 0.950 . S
C618 C619 1.386 . S
C618 C620 1.391 . S
C619 C618 1.386 . S
C619 C623 1.393 . S
C620 H609 0.950 . S
C620 C618 1.391 . S
C620 C621 1.400 . S
C621 C615 1.491 . S
C621 C620 1.400 . S
C621 C622 1.398 . S
C622 H610 0.950 . S
C622 C621 1.398 . S
C622 C623 1.391 . S
C623 H611 0.950 . S
C623 C619 1.393 . S
C623 C622 1.391 . S
H624 C632 0.950 . S
H625 C637 0.950 . S
H626 C634 0.950 . S
H627 C636 0.950 . S
H628 C638 0.950 . S
H629 C640 0.950 1_554 S
H630 C642 0.950 1_554 S
H631 C643 0.950 . S
C632 H624 0.950 . S
C632 C633 1.386 . S
C632 C634 1.391 . S
C633 C632 1.386 . S
C633 C637 1.393 . S
C634 H626 0.950 . S
C634 C632 1.391 . S
C634 C635 1.400 . S
C635 C634 1.400 . S
C635 C636 1.398 . S
C635 C641 1.491 . S
C636 H627 0.950 . S
C636 C635 1.398 . S
C636 C637 1.391 . S
C637 H625 0.950 . S
C637 C633 1.393 . S
C637 C636 1.391 . S
C638 H628 0.950 . S
C638 C639 1.386 . S
C638 C640 1.391 . S
C639 C638 1.386 . S
C639 C643 1.393 . S
C640 H629 0.950 1_556 S
C640 C638 1.391 . S
C640 C641 1.400 1_556 S
C641 C635 1.491 . S
C641 C640 1.400 1_554 S
C641 C642 1.398 1_554 S
C642 H630 0.950 1_556 S
C642 C641 1.398 1_556 S
C642 C643 1.391 . S
C643 H631 0.950 . S
C643 C639 1.393 . S
C643 C642 1.391 . S
H644 C652 0.950 . S
H645 C657 0.950 . S
H646 C654 0.950 . S
H647 C656 0.950 . S
H648 C658 0.950 . S
H649 C660 0.946 1_554 S
H650 C662 0.939 1_554 S
H651 C663 0.950 . S
C652 H644 0.950 . S
C652 C653 1.386 . S
C652 C654 1.391 . S
C653 C652 1.386 . S
C653 C657 1.393 . S
C654 H646 0.950 . S
C654 C652 1.391 . S
C654 C655 1.400 . S
C655 C654 1.400 . S
C655 C656 1.398 . S
C655 C661 1.491 . S
C656 H647 0.950 . S
C656 C655 1.398 . S
C656 C657 1.391 . S
C657 H645 0.950 . S
C657 C653 1.393 . S
C657 C656 1.391 . S
C658 H648 0.950 . S
C658 C659 1.386 . S
C658 C660 1.391 . S
C659 C658 1.386 . S
C659 C663 1.393 . S
C660 H649 0.946 1_556 S
C660 C658 1.391 . S
C660 C661 1.400 1_556 S
C661 C655 1.491 . S
C661 C660 1.400 1_554 S
C661 C662 1.391 1_554 S
C662 H650 0.939 1_556 S
C662 C661 1.391 1_556 S
C662 C663 1.409 . S
C663 H651 0.950 . S
C663 C659 1.393 . S
C663 C662 1.409 . S
H664 C672 0.950 . S
H665 C677 0.950 . S
H666 C674 0.950 1_554 S
H667 C676 0.950 1_554 S
H668 C678 0.950 . S
H669 C680 0.950 . S
H670 C682 0.950 . S
H671 C683 0.950 . S
C672 H664 0.950 . S
C672 C673 1.386 . S
C672 C674 1.391 . S
C673 C672 1.386 . S
C673 C677 1.393 . S
C674 H666 0.950 1_556 S
C674 C672 1.391 . S
C674 C675 1.400 1_556 S
C675 C674 1.400 1_554 S
C675 C676 1.398 1_554 S
C675 C681 1.491 . S
C676 H667 0.950 1_556 S
C676 C675 1.398 1_556 S
C676 C677 1.391 . S
C677 H665 0.950 . S
C677 C673 1.393 . S
C677 C676 1.391 . S
C678 H668 0.950 . S
C678 C679 1.386 . S
C678 C680 1.391 . S
C679 C678 1.386 . S
C679 C683 1.393 . S
C680 H669 0.950 . S
C680 C678 1.391 . S
C680 C681 1.400 . S
C681 C675 1.491 . S
C681 C680 1.400 . S
C681 C682 1.398 . S
C682 H670 0.950 . S
C682 C681 1.398 . S
C682 C683 1.391 . S
C683 H671 0.950 . S
C683 C679 1.393 . S
C683 C682 1.391 . S
H684 C692 0.950 . S
H685 C697 0.950 . S
H686 C694 0.950 . S
H687 C696 0.950 . S
H688 C698 0.950 . S
H689 C700 0.950 . S
H690 C702 0.950 . S
H691 C703 0.950 . S
C692 H684 0.950 . S
C692 C693 1.386 . S
C692 C694 1.391 . S
C693 C692 1.386 . S
C693 C697 1.393 . S
C694 H686 0.950 . S
C694 C692 1.391 . S
C694 C695 1.400 . S
C695 C694 1.400 . S
C695 C696 1.398 . S
C695 C701 1.491 . S
C696 H687 0.950 . S
C696 C695 1.398 . S
C696 C697 1.391 . S
C697 H685 0.950 . S
C697 C693 1.393 . S
C697 C696 1.391 . S
C698 H688 0.950 . S
C698 C699 1.386 . S
C698 C700 1.391 . S
C699 C698 1.386 . S
C699 C703 1.393 . S
C700 H689 0.950 . S
C700 C698 1.391 . S
C700 C701 1.400 . S
C701 C695 1.491 . S
C701 C700 1.400 . S
C701 C702 1.398 . S
C702 H690 0.950 . S
C702 C701 1.398 . S
C702 C703 1.391 . S
C703 H691 0.950 . S
C703 C699 1.393 . S
C703 C702 1.391 . S
H704 C712 0.950 . S
H705 C717 0.950 . S
H706 C714 0.950 . S
H707 C716 0.950 . S
H708 C718 0.950 . S
H709 C720 0.950 . S
H710 C722 0.950 . S
H711 C723 0.950 . S
C712 H704 0.950 . S
C712 C713 1.386 . S
C712 C714 1.391 . S
C713 C712 1.386 . S
C713 C717 1.393 . S
C714 H706 0.950 . S
C714 C712 1.391 . S
C714 C715 1.400 . S
C715 C714 1.400 . S
C715 C716 1.398 . S
C715 C721 1.491 . S
C716 H707 0.950 . S
C716 C715 1.398 . S
C716 C717 1.391 . S
C717 H705 0.950 . S
C717 C713 1.393 . S
C717 C716 1.391 . S
C718 H708 0.950 . S
C718 C719 1.386 . S
C718 C720 1.391 . S
C719 C718 1.386 . S
C719 C723 1.393 . S
C720 H709 0.950 . S
C720 C718 1.391 . S
C720 C721 1.400 . S
C721 C715 1.491 . S
C721 C720 1.400 . S
C721 C722 1.398 . S
C722 H710 0.950 . S
C722 C721 1.398 . S
C722 C723 1.391 . S
C723 H711 0.950 . S
C723 C719 1.393 . S
C723 C722 1.391 . S
H724 C732 0.950 . S
H725 C737 0.950 . S
H726 C734 0.950 . S
H727 C736 0.950 . S
H728 C738 0.950 . S
H729 C740 0.950 . S
H730 C742 0.950 . S
H731 C743 0.950 . S
C732 H724 0.950 . S
C732 C733 1.386 . S
C732 C734 1.391 . S
C733 C732 1.386 . S
C733 C737 1.393 . S
C734 H726 0.950 . S
C734 C732 1.391 . S
C734 C735 1.400 . S
C735 C734 1.400 . S
C735 C736 1.398 . S
C735 C741 1.491 . S
C736 H727 0.950 . S
C736 C735 1.398 . S
C736 C737 1.391 . S
C737 H725 0.950 . S
C737 C733 1.393 . S
C737 C736 1.391 . S
C738 H728 0.950 . S
C738 C739 1.386 . S
C738 C740 1.391 . S
C739 C738 1.386 . S
C739 C743 1.393 . S
C740 H729 0.950 . S
C740 C738 1.391 . S
C740 C741 1.400 . S
C741 C735 1.491 . S
C741 C740 1.400 . S
C741 C742 1.398 . S
C742 H730 0.950 . S
C742 C741 1.398 . S
C742 C743 1.391 . S
C743 H731 0.950 . S
C743 C739 1.393 . S
C743 C742 1.391 . S
H744 C752 0.950 . S
H745 C757 0.950 . S
H746 C754 0.950 . S
H747 C756 0.950 . S
H748 C758 0.950 . S
H749 C760 0.950 . S
H750 C762 0.950 . S
H751 C763 0.950 . S
C752 H744 0.950 . S
C752 C753 1.386 . S
C752 C754 1.391 . S
C753 C752 1.386 . S
C753 C757 1.393 . S
C754 H746 0.950 . S
C754 C752 1.391 . S
C754 C755 1.400 . S
C755 C754 1.400 . S
C755 C756 1.398 . S
C755 C761 1.491 . S
C756 H747 0.950 . S
C756 C755 1.398 . S
C756 C757 1.391 . S
C757 H745 0.950 . S
C757 C753 1.393 . S
C757 C756 1.391 . S
C758 H748 0.950 . S
C758 C759 1.386 . S
C758 C760 1.391 . S
C759 C758 1.386 . S
C759 C763 1.393 . S
C760 H749 0.950 . S
C760 C758 1.391 . S
C760 C761 1.400 . S
C761 C755 1.491 . S
C761 C760 1.400 . S
C761 C762 1.398 . S
C762 H750 0.950 . S
C762 C761 1.398 . S
C762 C763 1.391 . S
C763 H751 0.950 . S
C763 C759 1.393 . S
C763 C762 1.391 . S
H764 C772 0.950 . S
H765 C777 0.950 . S
H766 C774 0.950 . S
H767 C776 0.950 . S
H768 C778 0.950 . S
H769 C780 0.950 . S
H770 C782 0.950 . S
H771 C783 0.950 . S
C772 H764 0.950 . S
C772 C773 1.386 . S
C772 C774 1.391 . S
C773 C772 1.386 . S
C773 C777 1.393 . S
C774 H766 0.950 . S
C774 C772 1.391 . S
C774 C775 1.400 . S
C775 C774 1.400 . S
C775 C776 1.398 . S
C775 C781 1.491 . S
C776 H767 0.950 . S
C776 C775 1.398 . S
C776 C777 1.391 . S
C777 H765 0.950 . S
C777 C773 1.393 . S
C777 C776 1.391 . S
C778 H768 0.950 . S
C778 C779 1.386 . S
C778 C780 1.391 . S
C779 C778 1.386 . S
C779 C783 1.393 . S
C780 H769 0.950 . S
C780 C778 1.391 . S
C780 C781 1.400 . S
C781 C775 1.491 . S
C781 C780 1.400 . S
C781 C782 1.398 . S
C782 H770 0.950 . S
C782 C781 1.398 . S
C782 C783 1.391 . S
C783 H771 0.950 . S
C783 C779 1.393 . S
C783 C782 1.391 . S
H784 C792 0.950 . S
H785 C797 0.950 . S
H786 C794 0.950 . S
H787 C796 0.950 . S
H788 C798 0.950 . S
H789 C800 0.950 . S
H790 C802 0.950 . S
H791 C803 0.950 . S
C792 H784 0.950 . S
C792 C793 1.386 . S
C792 C794 1.391 . S
C793 C792 1.386 . S
C793 C797 1.393 . S
C794 H786 0.950 . S
C794 C792 1.391 . S
C794 C795 1.400 . S
C795 C794 1.400 . S
C795 C796 1.398 . S
C795 C801 1.491 . S
C796 H787 0.950 . S
C796 C795 1.398 . S
C796 C797 1.391 . S
C797 H785 0.950 . S
C797 C793 1.393 . S
C797 C796 1.391 . S
C798 H788 0.950 . S
C798 C799 1.386 . S
C798 C800 1.391 . S
C799 C798 1.386 . S
C799 C803 1.393 . S
C800 H789 0.950 . S
C800 C798 1.391 . S
C800 C801 1.400 . S
C801 C795 1.491 . S
C801 C800 1.400 . S
C801 C802 1.398 . S
C802 H790 0.950 . S
C802 C801 1.398 . S
C802 C803 1.391 . S
C803 H791 0.950 . S
C803 C799 1.393 . S
C803 C802 1.391 . S
H804 C812 0.950 . S
H805 C817 0.950 . S
H806 C814 0.950 . S
H807 C816 0.950 . S
H808 C818 0.950 . S
H809 C820 0.950 . S
H810 C822 0.950 . S
H811 C823 0.950 1_554 S
C812 H804 0.950 . S
C812 C813 1.386 . S
C812 C814 1.391 . S
C813 C812 1.386 . S
C813 C817 1.393 . S
C814 H806 0.950 . S
C814 C812 1.391 . S
C814 C815 1.400 . S
C815 C814 1.400 . S
C815 C816 1.398 . S
C815 C821 1.491 . S
C816 H807 0.950 . S
C816 C815 1.398 . S
C816 C817 1.391 . S
C817 H805 0.950 . S
C817 C813 1.393 . S
C817 C816 1.391 . S
C818 H808 0.950 . S
C818 C819 1.386 1_556 S
C818 C820 1.391 . S
C819 C818 1.386 1_554 S
C819 C823 1.393 1_554 S
C820 H809 0.950 . S
C820 C818 1.391 . S
C820 C821 1.400 . S
C821 C815 1.491 . S
C821 C820 1.400 . S
C821 C822 1.398 . S
C822 H810 0.950 . S
C822 C821 1.398 . S
C822 C823 1.391 . S
C823 H811 0.950 1_556 S
C823 C819 1.393 1_556 S
C823 C822 1.391 . S
H824 C832 0.950 . S
H825 C837 0.950 . S
H826 C834 0.950 . S
H827 C836 0.950 . S
H828 C838 0.950 1_554 S
H829 C840 0.950 . S
H830 C842 0.950 . S
H831 C843 0.950 . S
C832 H824 0.950 . S
C832 C833 1.386 . S
C832 C834 1.391 . S
C833 C832 1.386 . S
C833 C837 1.393 . S
C834 H826 0.950 . S
C834 C832 1.391 . S
C834 C835 1.400 . S
C835 C834 1.400 . S
C835 C836 1.398 . S
C835 C841 1.491 . S
C836 H827 0.950 . S
C836 C835 1.398 . S
C836 C837 1.391 . S
C837 H825 0.950 . S
C837 C833 1.393 . S
C837 C836 1.391 . S
C838 H828 0.950 1_556 S
C838 C839 1.386 1_556 S
C838 C840 1.391 . S
C839 C838 1.386 1_554 S
C839 C843 1.393 1_554 S
C840 H829 0.950 . S
C840 C838 1.391 . S
C840 C841 1.400 . S
C841 C835 1.491 . S
C841 C840 1.400 . S
C841 C842 1.398 . S
C842 H830 0.950 . S
C842 C841 1.398 . S
C842 C843 1.391 . S
C843 H831 0.950 . S
C843 C839 1.393 1_556 S
C843 C842 1.391 . S
H844 C852 0.950 . S
H845 C857 0.950 . S
H846 C854 0.950 . S
H847 C856 0.950 . S
H848 C858 0.950 . S
H849 C860 0.950 . S
H850 C862 0.950 . S
H851 C863 0.950 1_554 S
C852 H844 0.950 . S
C852 C853 1.386 . S
C852 C854 1.391 . S
C853 C852 1.386 . S
C853 C857 1.393 . S
C854 H846 0.950 . S
C854 C852 1.391 . S
C854 C855 1.400 . S
C855 C854 1.400 . S
C855 C856 1.398 . S
C855 C861 1.491 . S
C856 H847 0.950 . S
C856 C855 1.398 . S
C856 C857 1.391 . S
C857 H845 0.950 . S
C857 C853 1.393 . S
C857 C856 1.391 . S
C858 H848 0.950 . S
C858 C859 1.386 1_556 S
C858 C860 1.391 . S
C859 C858 1.386 1_554 S
C859 C863 1.393 1_554 S
C860 H849 0.950 . S
C860 C858 1.391 . S
C860 C861 1.400 . S
C861 C855 1.491 . S
C861 C860 1.400 . S
C861 C862 1.398 . S
C862 H850 0.950 . S
C862 C861 1.398 . S
C862 C863 1.391 . S
C863 H851 0.950 1_556 S
C863 C859 1.393 1_556 S
C863 C862 1.391 . S
H864 C872 0.950 . S
H865 C877 0.950 . S
H866 C874 0.950 . S
H867 C876 0.950 . S
H868 C878 0.950 . S
H869 C880 0.950 . S
H870 C882 0.950 . S
H871 C883 0.950 . S
C872 H864 0.950 . S
C872 C873 1.386 . S
C872 C874 1.391 . S
C873 C872 1.386 . S
C873 C877 1.393 . S
C874 H866 0.950 . S
C874 C872 1.391 . S
C874 C875 1.400 . S
C875 C874 1.400 . S
C875 C876 1.398 . S
C875 C881 1.491 . S
C876 H867 0.950 . S
C876 C875 1.398 . S
C876 C877 1.391 . S
C877 H865 0.950 . S
C877 C873 1.393 . S
C877 C876 1.391 . S
C878 H868 0.950 . S
C878 C879 1.386 . S
C878 C880 1.391 . S
C879 C878 1.386 . S
C879 C883 1.393 . S
C880 H869 0.950 . S
C880 C878 1.391 . S
C880 C881 1.400 . S
C881 C875 1.491 . S
C881 C880 1.400 . S
C881 C882 1.398 . S
C882 H870 0.950 . S
C882 C881 1.398 . S
C882 C883 1.391 . S
C883 H871 0.950 . S
C883 C879 1.393 . S
C883 C882 1.391 . S
H884 C892 0.950 . S
H885 C897 0.950 . S
H886 C894 0.950 . S
H887 C896 0.950 . S
H888 C898 0.950 . S
H889 C900 0.950 . S
H890 C902 0.950 . S
H891 C903 0.950 . S
C892 H884 0.950 . S
C892 C893 1.386 . S
C892 C894 1.391 . S
C893 C892 1.386 . S
C893 C897 1.393 . S
C894 H886 0.950 . S
C894 C892 1.391 . S
C894 C895 1.400 . S
C895 C894 1.400 . S
C895 C896 1.398 . S
C895 C901 1.491 . S
C896 H887 0.950 . S
C896 C895 1.398 . S
C896 C897 1.391 . S
C897 H885 0.950 . S
C897 C893 1.393 . S
C897 C896 1.391 . S
C898 H888 0.950 . S
C898 C899 1.386 . S
C898 C900 1.391 . S
C899 C898 1.386 . S
C899 C903 1.393 . S
C900 H889 0.950 . S
C900 C898 1.391 . S
C900 C901 1.400 . S
C901 C895 1.491 . S
C901 C900 1.400 . S
C901 C902 1.398 . S
C902 H890 0.950 . S
C902 C901 1.398 . S
C902 C903 1.391 . S
C903 H891 0.950 . S
C903 C899 1.393 . S
C903 C902 1.391 . S
H904 C912 0.950 . S
H905 C917 0.950 . S
H906 C914 0.950 . S
H907 C916 0.950 . S
H908 C918 0.950 . S
H909 C920 0.950 . S
H910 C922 0.950 . S
H911 C923 0.950 . S
C912 H904 0.950 . S
C912 C913 1.386 . S
C912 C914 1.391 . S
C913 C912 1.386 . S
C913 C917 1.393 . S
C914 H906 0.950 . S
C914 C912 1.391 . S
C914 C915 1.400 . S
C915 C914 1.400 . S
C915 C916 1.398 . S
C915 C921 1.491 . S
C916 H907 0.950 . S
C916 C915 1.398 . S
C916 C917 1.391 . S
C917 H905 0.950 . S
C917 C913 1.393 . S
C917 C916 1.391 . S
C918 H908 0.950 . S
C918 C919 1.386 . S
C918 C920 1.391 . S
C919 C918 1.386 . S
C919 C923 1.393 . S
C920 H909 0.950 . S
C920 C918 1.391 . S
C920 C921 1.400 . S
C921 C915 1.491 . S
C921 C920 1.400 . S
C921 C922 1.398 . S
C922 H910 0.950 . S
C922 C921 1.398 . S
C922 C923 1.391 . S
C923 H911 0.950 . S
C923 C919 1.393 . S
C923 C922 1.391 . S
H924 C932 0.950 . S
H925 C937 0.950 . S
H926 C934 0.950 . S
H927 C936 0.950 . S
H928 C938 0.950 . S
H929 C940 0.950 . S
H930 C942 0.950 . S
H931 C943 0.950 . S
C932 H924 0.950 . S
C932 C933 1.386 . S
C932 C934 1.391 . S
C933 C932 1.386 . S
C933 C937 1.393 . S
C934 H926 0.950 . S
C934 C932 1.391 . S
C934 C935 1.400 . S
C935 C934 1.400 . S
C935 C936 1.398 . S
C935 C941 1.491 . S
C936 H927 0.950 . S
C936 C935 1.398 . S
C936 C937 1.391 . S
C937 H925 0.950 . S
C937 C933 1.393 . S
C937 C936 1.391 . S
C938 H928 0.950 . S
C938 C939 1.386 . S
C938 C940 1.391 . S
C939 C938 1.386 . S
C939 C943 1.393 . S
C940 H929 0.950 . S
C940 C938 1.391 . S
C940 C941 1.400 . S
C941 C935 1.491 . S
C941 C940 1.400 . S
C941 C942 1.398 . S
C942 H930 0.950 . S
C942 C941 1.398 . S
C942 C943 1.391 . S
C943 H931 0.950 . S
C943 C939 1.393 . S
C943 C942 1.391 . S
H944 C952 0.950 . S
H945 C957 0.950 . S
H946 C954 0.950 . S
H947 C956 0.950 . S
H948 C958 0.950 . S
H949 C960 0.950 . S
H950 C962 0.950 . S
H951 C963 0.950 . S
C952 H944 0.950 . S
C952 C953 1.386 . S
C952 C954 1.391 . S
C953 C952 1.386 . S
C953 C957 1.393 . S
C954 H946 0.950 . S
C954 C952 1.391 . S
C954 C955 1.400 . S
C955 C954 1.400 . S
C955 C956 1.398 . S
C955 C961 1.491 . S
C956 H947 0.950 . S
C956 C955 1.398 . S
C956 C957 1.391 . S
C957 H945 0.950 . S
C957 C953 1.393 . S
C957 C956 1.391 . S
C958 H948 0.950 . S
C958 C959 1.386 . S
C958 C960 1.391 . S
C959 C958 1.386 . S
C959 C963 1.393 . S
C960 H949 0.950 . S
C960 C958 1.391 . S
C960 C961 1.400 . S
C961 C955 1.491 . S
C961 C960 1.400 . S
C961 C962 1.398 . S
C962 H950 0.950 . S
C962 C961 1.398 . S
C962 C963 1.391 . S
C963 H951 0.950 . S
C963 C959 1.393 . S
C963 C962 1.391 . S
H964 C972 0.950 . S
H965 C977 0.950 . S
H966 C974 0.950 . S
H967 C976 0.950 . S
H968 C978 0.950 . S
H969 C980 0.950 . S
H970 C982 0.950 . S
H971 C983 0.950 . S
C972 H964 0.950 . S
C972 C973 1.386 . S
C972 C974 1.391 . S
C973 C972 1.386 . S
C973 C977 1.393 . S
C974 H966 0.950 . S
C974 C972 1.391 . S
C974 C975 1.400 . S
C975 C974 1.400 . S
C975 C976 1.398 . S
C975 C981 1.491 . S
C976 H967 0.950 . S
C976 C975 1.398 . S
C976 C977 1.391 . S
C977 H965 0.950 . S
C977 C973 1.393 . S
C977 C976 1.391 . S
C978 H968 0.950 . S
C978 C979 1.386 . S
C978 C980 1.391 . S
C979 C978 1.386 . S
C979 C983 1.393 . S
C980 H969 0.950 . S
C980 C978 1.391 . S
C980 C981 1.400 . S
C981 C975 1.491 . S
C981 C980 1.400 . S
C981 C982 1.398 . S
C982 H970 0.950 . S
C982 C981 1.398 . S
C982 C983 1.391 . S
C983 H971 0.950 . S
C983 C979 1.393 . S
C983 C982 1.391 . S
H984 C992 0.950 . S
H985 C997 0.950 . S
H986 C994 0.950 . S
H987 C996 0.950 . S
H988 C998 0.950 . S
H989 C1000 0.950 . S
H990 C1002 0.950 . S
H991 C1003 0.950 . S
C992 H984 0.950 . S
C992 C993 1.386 . S
C992 C994 1.391 . S
C993 C992 1.386 . S
C993 C997 1.393 . S
C994 H986 0.950 . S
C994 C992 1.391 . S
C994 C995 1.400 . S
C995 C994 1.400 . S
C995 C996 1.398 . S
C995 C1001 1.491 . S
C996 H987 0.950 . S
C996 C995 1.398 . S
C996 C997 1.391 . S
C997 H985 0.950 . S
C997 C993 1.393 . S
C997 C996 1.391 . S
C998 H988 0.950 . S
C998 C999 1.386 . S
C998 C1000 1.391 . S
C999 C998 1.386 . S
C999 C1003 1.393 . S
C1000 H989 0.950 . S
C1000 C998 1.391 . S
C1000 C1001 1.400 . S
C1001 C995 1.491 . S
C1001 C1000 1.400 . S
C1001 C1002 1.398 . S
C1002 H990 0.950 . S
C1002 C1001 1.398 . S
C1002 C1003 1.391 . S
C1003 H991 0.950 . S
C1003 C999 1.393 . S
C1003 C1002 1.391 . S
H1004 C1012 0.950 . S
H1005 C1017 0.950 . S
H1006 C1014 0.950 . S
H1007 C1016 0.950 . S
H1008 C1018 0.950 . S
H1009 C1020 0.950 . S
H1010 C1022 0.950 . S
H1011 C1023 0.950 . S
C1012 H1004 0.950 . S
C1012 C1013 1.386 . S
C1012 C1014 1.391 . S
C1013 C1012 1.386 . S
C1013 C1017 1.393 . S
C1014 H1006 0.950 . S
C1014 C1012 1.391 . S
C1014 C1015 1.400 . S
C1015 C1014 1.400 . S
C1015 C1016 1.398 . S
C1015 C1021 1.491 . S
C1016 H1007 0.950 . S
C1016 C1015 1.398 . S
C1016 C1017 1.391 . S
C1017 H1005 0.950 . S
C1017 C1013 1.393 . S
C1017 C1016 1.391 . S
C1018 H1008 0.950 . S
C1018 C1019 1.386 . S
C1018 C1020 1.391 . S
C1019 C1018 1.386 . S
C1019 C1023 1.393 . S
C1020 H1009 0.950 . S
C1020 C1018 1.391 . S
C1020 C1021 1.400 . S
C1021 C1015 1.491 . S
C1021 C1020 1.400 . S
C1021 C1022 1.398 . S
C1022 H1010 0.950 . S
C1022 C1021 1.398 . S
C1022 C1023 1.391 . S
C1023 H1011 0.950 . S
C1023 C1019 1.393 . S
C1023 C1022 1.391 . S
H1024 C1032 0.950 . S
H1025 C1037 0.950 . S
H1026 C1034 0.950 . S
H1027 C1036 0.950 . S
H1028 C1038 0.950 . S
H1029 C1040 0.950 . S
H1030 C1042 0.950 . S
H1031 C1043 0.950 . S
C1032 H1024 0.950 . S
C1032 C1033 1.386 . S
C1032 C1034 1.391 . S
C1033 C1032 1.386 . S
C1033 C1037 1.393 . S
C1034 H1026 0.950 . S
C1034 C1032 1.391 . S
C1034 C1035 1.400 . S
C1035 C1034 1.400 . S
C1035 C1036 1.398 . S
C1035 C1041 1.491 . S
C1036 H1027 0.950 . S
C1036 C1035 1.398 . S
C1036 C1037 1.391 . S
C1037 H1025 0.950 . S
C1037 C1033 1.393 . S
C1037 C1036 1.391 . S
C1038 H1028 0.950 . S
C1038 C1039 1.386 . S
C1038 C1040 1.391 . S
C1039 C1038 1.386 . S
C1039 C1043 1.393 . S
C1040 H1029 0.950 . S
C1040 C1038 1.391 . S
C1040 C1041 1.400 . S
C1041 C1035 1.491 . S
C1041 C1040 1.400 . S
C1041 C1042 1.398 . S
C1042 H1030 0.950 . S
C1042 C1041 1.398 . S
C1042 C1043 1.391 . S
C1043 H1031 0.950 . S
C1043 C1039 1.393 . S
C1043 C1042 1.391 . S
H1044 C1052 0.950 . S
H1045 C1057 0.950 . S
H1046 C1054 0.950 . S
H1047 C1056 0.950 . S
H1048 C1058 0.950 . S
H1049 C1060 0.950 . S
H1050 C1062 0.950 . S
H1051 C1063 0.950 . S
C1052 H1044 0.950 . S
C1052 C1053 1.386 . S
C1052 C1054 1.391 . S
C1053 C1052 1.386 . S
C1053 C1057 1.393 . S
C1054 H1046 0.950 . S
C1054 C1052 1.391 . S
C1054 C1055 1.400 . S
C1055 C1054 1.400 . S
C1055 C1056 1.398 . S
C1055 C1061 1.491 . S
C1056 H1047 0.950 . S
C1056 C1055 1.398 . S
C1056 C1057 1.391 . S
C1057 H1045 0.950 . S
C1057 C1053 1.393 . S
C1057 C1056 1.391 . S
C1058 H1048 0.950 . S
C1058 C1059 1.386 . S
C1058 C1060 1.391 . S
C1059 C1058 1.386 . S
C1059 C1063 1.393 . S
C1060 H1049 0.950 . S
C1060 C1058 1.391 . S
C1060 C1061 1.400 . S
C1061 C1055 1.491 . S
C1061 C1060 1.400 . S
C1061 C1062 1.398 . S
C1062 H1050 0.950 . S
C1062 C1061 1.398 . S
C1062 C1063 1.391 . S
C1063 H1051 0.950 . S
C1063 C1059 1.393 . S
C1063 C1062 1.391 . S
H1064 C1072 0.950 . S
H1065 C1077 0.950 . S
H1066 C1074 0.950 . S
H1067 C1076 0.950 . S
H1068 C1078 0.950 . S
H1069 C1080 0.950 . S
H1070 C1082 0.950 . S
H1071 C1083 0.950 . S
C1072 H1064 0.950 . S
C1072 C1073 1.386 . S
C1072 C1074 1.391 . S
C1073 C1072 1.386 . S
C1073 C1077 1.393 . S
C1074 H1066 0.950 . S
C1074 C1072 1.391 . S
C1074 C1075 1.400 . S
C1075 C1074 1.400 . S
C1075 C1076 1.398 . S
C1075 C1081 1.491 . S
C1076 H1067 0.950 . S
C1076 C1075 1.398 . S
C1076 C1077 1.391 . S
C1077 H1065 0.950 . S
C1077 C1073 1.393 . S
C1077 C1076 1.391 . S
C1078 H1068 0.950 . S
C1078 C1079 1.386 . S
C1078 C1080 1.391 . S
C1079 C1078 1.386 . S
C1079 C1083 1.393 . S
C1080 H1069 0.950 . S
C1080 C1078 1.391 . S
C1080 C1081 1.400 . S
C1081 C1075 1.491 . S
C1081 C1080 1.400 . S
C1081 C1082 1.398 . S
C1082 H1070 0.950 . S
C1082 C1081 1.398 . S
C1082 C1083 1.391 . S
C1083 H1071 0.950 . S
C1083 C1079 1.393 . S
C1083 C1082 1.391 . S
H1084 C1092 0.950 . S
H1085 C1097 0.950 . S
H1086 C1094 0.950 . S
H1087 C1096 0.950 . S
H1088 C1098 0.950 . S
H1089 C1100 0.950 . S
H1090 C1102 0.950 . S
H1091 C1103 0.950 . S
C1092 H1084 0.950 . S
C1092 C1093 1.386 . S
C1092 C1094 1.391 . S
C1093 C1092 1.386 . S
C1093 C1097 1.393 . S
C1094 H1086 0.950 . S
C1094 C1092 1.391 . S
C1094 C1095 1.400 . S
C1095 C1094 1.400 . S
C1095 C1096 1.398 . S
C1095 C1101 1.491 . S
C1096 H1087 0.950 . S
C1096 C1095 1.398 . S
C1096 C1097 1.391 . S
C1097 H1085 0.950 . S
C1097 C1093 1.393 . S
C1097 C1096 1.391 . S
C1098 H1088 0.950 . S
C1098 C1099 1.386 . S
C1098 C1100 1.391 . S
C1099 C1098 1.386 . S
C1099 C1103 1.393 . S
C1100 H1089 0.950 . S
C1100 C1098 1.391 . S
C1100 C1101 1.400 . S
C1101 C1095 1.491 . S
C1101 C1100 1.400 . S
C1101 C1102 1.398 . S
C1102 H1090 0.950 . S
C1102 C1101 1.398 . S
C1102 C1103 1.391 . S
C1103 H1091 0.950 . S
C1103 C1099 1.393 . S
C1103 C1102 1.391 . S
H1104 C1112 0.950 . S
H1105 C1117 0.950 . S
H1106 C1114 0.950 . S
H1107 C1116 0.950 . S
H1108 C1118 0.950 . S
H1109 C1120 0.950 . S
H1110 C1122 0.950 . S
H1111 C1123 0.950 . S
C1112 H1104 0.950 . S
C1112 C1113 1.386 . S
C1112 C1114 1.391 . S
C1113 C1112 1.386 . S
C1113 C1117 1.393 . S
C1114 H1106 0.950 . S
C1114 C1112 1.391 . S
C1114 C1115 1.400 . S
C1115 C1114 1.400 . S
C1115 C1116 1.398 . S
C1115 C1121 1.491 . S
C1116 H1107 0.950 . S
C1116 C1115 1.398 . S
C1116 C1117 1.391 . S
C1117 H1105 0.950 . S
C1117 C1113 1.393 . S
C1117 C1116 1.391 . S
C1118 H1108 0.950 . S
C1118 C1119 1.386 . S
C1118 C1120 1.391 . S
C1119 C1118 1.386 . S
C1119 C1123 1.393 . S
C1120 H1109 0.950 . S
C1120 C1118 1.391 . S
C1120 C1121 1.400 . S
C1121 C1115 1.491 . S
C1121 C1120 1.400 . S
C1121 C1122 1.398 . S
C1122 H1110 0.950 . S
C1122 C1121 1.398 . S
C1122 C1123 1.391 . S
C1123 H1111 0.950 . S
C1123 C1119 1.393 . S
C1123 C1122 1.391 . S
H1124 C1132 0.950 . S
H1125 C1137 0.950 . S
H1126 C1134 0.950 . S
H1127 C1136 0.950 . S
H1128 C1138 0.950 . S
H1129 C1140 0.950 . S
H1130 C1142 0.950 . S
H1131 C1143 0.950 . S
C1132 H1124 0.950 . S
C1132 C1133 1.386 . S
C1132 C1134 1.391 . S
C1133 C1132 1.386 . S
C1133 C1137 1.393 . S
C1134 H1126 0.950 . S
C1134 C1132 1.391 . S
C1134 C1135 1.400 . S
C1135 C1134 1.400 . S
C1135 C1136 1.398 . S
C1135 C1141 1.491 . S
C1136 H1127 0.950 . S
C1136 C1135 1.398 . S
C1136 C1137 1.391 . S
C1137 H1125 0.950 . S
C1137 C1133 1.393 . S
C1137 C1136 1.391 . S
C1138 H1128 0.950 . S
C1138 C1139 1.386 . S
C1138 C1140 1.391 . S
C1139 C1138 1.386 . S
C1139 C1143 1.393 . S
C1140 H1129 0.950 . S
C1140 C1138 1.391 . S
C1140 C1141 1.400 . S
C1141 C1135 1.491 . S
C1141 C1140 1.400 . S
C1141 C1142 1.398 . S
C1142 H1130 0.950 . S
C1142 C1141 1.398 . S
C1142 C1143 1.391 . S
C1143 H1131 0.950 . S
C1143 C1139 1.393 . S
C1143 C1142 1.391 . S
H1144 C1152 0.950 . S
H1145 C1157 0.950 . S
H1146 C1154 0.950 . S
H1147 C1156 0.950 . S
H1148 C1158 0.950 . S
H1149 C1160 0.950 . S
H1150 C1162 0.950 . S
H1151 C1163 0.950 . S
C1152 H1144 0.950 . S
C1152 C1153 1.386 . S
C1152 C1154 1.391 . S
C1153 C1152 1.386 . S
C1153 C1157 1.393 . S
C1154 H1146 0.950 . S
C1154 C1152 1.391 . S
C1154 C1155 1.400 . S
C1155 C1154 1.400 . S
C1155 C1156 1.398 . S
C1155 C1161 1.491 . S
C1156 H1147 0.950 . S
C1156 C1155 1.398 . S
C1156 C1157 1.391 . S
C1157 H1145 0.950 . S
C1157 C1153 1.393 . S
C1157 C1156 1.391 . S
C1158 H1148 0.950 . S
C1158 C1159 1.386 . S
C1158 C1160 1.391 . S
C1159 C1158 1.386 . S
C1159 C1163 1.393 . S
C1160 H1149 0.950 . S
C1160 C1158 1.391 . S
C1160 C1161 1.400 . S
C1161 C1155 1.491 . S
C1161 C1160 1.400 . S
C1161 C1162 1.398 . S
C1162 H1150 0.950 . S
C1162 C1161 1.398 . S
C1162 C1163 1.391 . S
C1163 H1151 0.950 . S
C1163 C1159 1.393 . S
C1163 C1162 1.391 . S
H1164 C1172 0.950 . S
H1165 C1177 0.950 . S
H1166 C1174 0.950 . S
H1167 C1176 0.950 . S
H1168 C1178 0.950 1_556 S
H1169 C1180 0.950 . S
H1170 C1182 0.950 . S
H1171 C1183 0.950 . S
C1172 H1164 0.950 . S
C1172 C1173 1.386 . S
C1172 C1174 1.391 . S
C1173 C1172 1.386 . S
C1173 C1177 1.393 . S
C1174 H1166 0.950 . S
C1174 C1172 1.391 . S
C1174 C1175 1.400 . S
C1175 C1174 1.400 . S
C1175 C1176 1.398 . S
C1175 C1181 1.491 . S
C1176 H1167 0.950 . S
C1176 C1175 1.398 . S
C1176 C1177 1.391 . S
C1177 H1165 0.950 . S
C1177 C1173 1.393 . S
C1177 C1176 1.391 . S
C1178 H1168 0.950 1_554 S
C1178 C1179 1.386 1_554 S
C1178 C1180 1.391 . S
C1179 C1178 1.386 1_556 S
C1179 C1183 1.393 1_556 S
C1180 H1169 0.950 . S
C1180 C1178 1.391 . S
C1180 C1181 1.400 . S
C1181 C1175 1.491 . S
C1181 C1180 1.400 . S
C1181 C1182 1.398 . S
C1182 H1170 0.950 . S
C1182 C1181 1.398 . S
C1182 C1183 1.391 . S
C1183 H1171 0.950 . S
C1183 C1179 1.393 1_554 S
C1183 C1182 1.391 . S
H1184 C1192 0.950 1_556 S
H1185 C1197 0.950 . S
H1186 C1194 0.950 . S
H1187 C1196 0.950 . S
H1188 C1198 0.950 . S
H1189 C1200 0.950 . S
H1190 C1202 0.950 . S
H1191 C1203 0.950 . S
C1192 H1184 0.950 1_554 S
C1192 C1193 1.386 1_554 S
C1192 C1194 1.391 . S
C1193 C1192 1.386 1_556 S
C1193 C1197 1.393 1_556 S
C1194 H1186 0.950 . S
C1194 C1192 1.391 . S
C1194 C1195 1.400 . S
C1195 C1194 1.400 . S
C1195 C1196 1.398 . S
C1195 C1201 1.491 . S
C1196 H1187 0.950 . S
C1196 C1195 1.398 . S
C1196 C1197 1.391 . S
C1197 H1185 0.950 . S
C1197 C1193 1.393 1_554 S
C1197 C1196 1.391 . S
C1198 H1188 0.950 . S
C1198 C1199 1.386 . S
C1198 C1200 1.391 . S
C1199 C1198 1.386 . S
C1199 C1203 1.393 . S
C1200 H1189 0.950 . S
C1200 C1198 1.391 . S
C1200 C1201 1.400 . S
C1201 C1195 1.491 . S
C1201 C1200 1.400 . S
C1201 C1202 1.398 . S
C1202 H1190 0.950 . S
C1202 C1201 1.398 . S
C1202 C1203 1.391 . S
C1203 H1191 0.950 . S
C1203 C1199 1.393 . S
C1203 C1202 1.391 . S
H1204 C1212 0.950 . S
H1205 C1217 0.950 . S
H1206 C1214 0.950 . S
H1207 C1216 0.950 . S
H1208 C1218 0.950 . S
H1209 C1220 0.950 . S
H1210 C1222 0.950 . S
H1211 C1223 0.950 1_556 S
C1212 H1204 0.950 . S
C1212 C1213 1.386 . S
C1212 C1214 1.391 . S
C1213 C1212 1.386 . S
C1213 C1217 1.393 . S
C1214 H1206 0.950 . S
C1214 C1212 1.391 . S
C1214 C1215 1.400 . S
C1215 C1214 1.400 . S
C1215 C1216 1.398 . S
C1215 C1221 1.491 . S
C1216 H1207 0.950 . S
C1216 C1215 1.398 . S
C1216 C1217 1.391 . S
C1217 H1205 0.950 . S
C1217 C1213 1.393 . S
C1217 C1216 1.391 . S
C1218 H1208 0.950 . S
C1218 C1219 1.386 1_554 S
C1218 C1220 1.391 . S
C1219 C1218 1.386 1_556 S
C1219 C1223 1.393 1_556 S
C1220 H1209 0.950 . S
C1220 C1218 1.391 . S
C1220 C1221 1.400 . S
C1221 C1215 1.491 . S
C1221 C1220 1.400 . S
C1221 C1222 1.398 . S
C1222 H1210 0.950 . S
C1222 C1221 1.398 . S
C1222 C1223 1.391 . S
C1223 H1211 0.950 1_554 S
C1223 C1219 1.393 1_554 S
C1223 C1222 1.391 . S
H1224 C1232 0.950 . S
H1225 C1237 0.950 . S
H1226 C1234 0.950 . S
H1227 C1236 0.950 . S
H1228 C1238 0.950 . S
H1229 C1240 0.950 . S
H1230 C1242 0.950 . S
H1231 C1243 0.950 . S
C1232 H1224 0.950 . S
C1232 C1233 1.386 . S
C1232 C1234 1.391 . S
C1233 C1232 1.386 . S
C1233 C1237 1.393 . S
C1234 H1226 0.950 . S
C1234 C1232 1.391 . S
C1234 C1235 1.400 . S
C1235 C1234 1.400 . S
C1235 C1236 1.398 . S
C1235 C1241 1.491 . S
C1236 H1227 0.950 . S
C1236 C1235 1.398 . S
C1236 C1237 1.391 . S
C1237 H1225 0.950 . S
C1237 C1233 1.393 . S
C1237 C1236 1.391 . S
C1238 H1228 0.950 . S
C1238 C1239 1.386 . S
C1238 C1240 1.391 . S
C1239 C1238 1.386 . S
C1239 C1243 1.393 . S
C1240 H1229 0.950 . S
C1240 C1238 1.391 . S
C1240 C1241 1.400 . S
C1241 C1235 1.491 . S
C1241 C1240 1.400 . S
C1241 C1242 1.398 . S
C1242 H1230 0.950 . S
C1242 C1241 1.398 . S
C1242 C1243 1.391 . S
C1243 H1231 0.950 . S
C1243 C1239 1.393 . S
C1243 C1242 1.391 . S
H1244 C1252 0.950 . S
H1245 C1257 0.950 . S
H1246 C1254 0.950 . S
H1247 C1256 0.950 . S
H1248 C1258 0.950 . S
H1249 C1260 0.950 . S
H1250 C1262 0.950 . S
H1251 C1263 0.950 . S
C1252 H1244 0.950 . S
C1252 C1253 1.386 . S
C1252 C1254 1.391 . S
C1253 C1252 1.386 . S
C1253 C1257 1.393 . S
C1254 H1246 0.950 . S
C1254 C1252 1.391 . S
C1254 C1255 1.400 . S
C1255 C1254 1.400 . S
C1255 C1256 1.398 . S
C1255 C1261 1.491 1_565 S
C1256 H1247 0.950 . S
C1256 C1255 1.398 . S
C1256 C1257 1.391 . S
C1257 H1245 0.950 . S
C1257 C1253 1.393 . S
C1257 C1256 1.391 . S
C1258 H1248 0.950 . S
C1258 C1259 1.386 . S
C1258 C1260 1.391 . S
C1259 C1258 1.386 . S
C1259 C1263 1.393 . S
C1260 H1249 0.950 . S
C1260 C1258 1.391 . S
C1260 C1261 1.400 . S
C1261 C1255 1.491 1_545 S
C1261 C1260 1.400 . S
C1261 C1262 1.398 . S
C1262 H1250 0.950 . S
C1262 C1261 1.398 . S
C1262 C1263 1.391 . S
C1263 H1251 0.950 . S
C1263 C1259 1.393 . S
C1263 C1262 1.391 . S
H1264 C1272 0.950 . S
H1265 C1277 0.950 . S
H1266 C1274 0.950 . S
H1267 C1276 0.950 . S
H1268 C1278 0.950 . S
H1269 C1280 0.950 . S
H1270 C1282 0.950 . S
H1271 C1283 0.950 . S
C1272 H1264 0.950 . S
C1272 C1273 1.386 . S
C1272 C1274 1.391 . S
C1273 C1272 1.386 . S
C1273 C1277 1.393 . S
C1274 H1266 0.950 . S
C1274 C1272 1.391 . S
C1274 C1275 1.400 . S
C1275 C1274 1.400 . S
C1275 C1276 1.398 . S
C1275 C1281 1.491 1_655 S
C1276 H1267 0.950 . S
C1276 C1275 1.398 . S
C1276 C1277 1.391 . S
C1277 H1265 0.950 . S
C1277 C1273 1.393 . S
C1277 C1276 1.391 . S
C1278 H1268 0.950 . S
C1278 C1279 1.386 . S
C1278 C1280 1.391 . S
C1279 C1278 1.386 . S
C1279 C1283 1.393 . S
C1280 H1269 0.950 . S
C1280 C1278 1.391 . S
C1280 C1281 1.400 . S
C1281 C1275 1.491 1_455 S
C1281 C1280 1.400 . S
C1281 C1282 1.398 . S
C1282 H1270 0.950 . S
C1282 C1281 1.398 . S
C1282 C1283 1.391 . S
C1283 H1271 0.950 . S
C1283 C1279 1.393 . S
C1283 C1282 1.391 . S
H1284 C1292 0.950 . S
H1285 C1297 0.950 . S
H1286 C1294 0.950 . S
H1287 C1296 0.950 . S
H1288 C1298 0.950 . S
H1289 C1300 0.950 . S
H1290 C1302 0.950 . S
H1291 C1303 0.950 . S
C1292 H1284 0.950 . S
C1292 C1293 1.386 . S
C1292 C1294 1.391 . S
C1293 C1292 1.386 . S
C1293 C1297 1.393 . S
C1294 H1286 0.950 . S
C1294 C1292 1.391 . S
C1294 C1295 1.400 . S
C1295 C1294 1.400 . S
C1295 C1296 1.398 . S
C1295 C1301 1.491 . S
C1296 H1287 0.950 . S
C1296 C1295 1.398 . S
C1296 C1297 1.391 . S
C1297 H1285 0.950 . S
C1297 C1293 1.393 . S
C1297 C1296 1.391 . S
C1298 H1288 0.950 . S
C1298 C1299 1.386 . S
C1298 C1300 1.391 . S
C1299 C1298 1.386 . S
C1299 C1303 1.393 . S
C1300 H1289 0.950 . S
C1300 C1298 1.391 . S
C1300 C1301 1.400 . S
C1301 C1295 1.491 . S
C1301 C1300 1.400 . S
C1301 C1302 1.398 . S
C1302 H1290 0.950 . S
C1302 C1301 1.398 . S
C1302 C1303 1.391 . S
C1303 H1291 0.950 . S
C1303 C1299 1.393 . S
C1303 C1302 1.391 . S
H1304 C1312 0.950 . S
H1305 C1317 0.950 . S
H1306 C1314 0.950 . S
H1307 C1316 0.950 . S
H1308 C1318 0.950 . S
H1309 C1320 0.950 . S
H1310 C1322 0.950 . S
H1311 C1323 0.950 . S
C1312 H1304 0.950 . S
C1312 C1313 1.386 . S
C1312 C1314 1.391 . S
C1313 C1312 1.386 . S
C1313 C1317 1.393 . S
C1314 H1306 0.950 . S
C1314 C1312 1.391 . S
C1314 C1315 1.400 . S
C1315 C1314 1.400 . S
C1315 C1316 1.398 . S
C1315 C1321 1.491 1_545 S
C1316 H1307 0.950 . S
C1316 C1315 1.398 . S
C1316 C1317 1.391 . S
C1317 H1305 0.950 . S
C1317 C1313 1.393 . S
C1317 C1316 1.391 . S
C1318 H1308 0.950 . S
C1318 C1319 1.386 . S
C1318 C1320 1.391 . S
C1319 C1318 1.386 . S
C1319 C1323 1.393 . S
C1320 H1309 0.950 . S
C1320 C1318 1.391 . S
C1320 C1321 1.400 . S
C1321 C1315 1.491 1_565 S
C1321 C1320 1.400 . S
C1321 C1322 1.398 . S
C1322 H1310 0.950 . S
C1322 C1321 1.398 . S
C1322 C1323 1.391 . S
C1323 H1311 0.950 . S
C1323 C1319 1.393 . S
C1323 C1322 1.391 . S
H1324 C1332 0.950 . S
H1325 C1337 0.950 . S
H1326 C1334 0.950 . S
H1327 C1336 0.950 . S
H1328 C1338 0.950 . S
H1329 C1340 0.950 . S
H1330 C1342 0.950 . S
H1331 C1343 0.950 . S
C1332 H1324 0.950 . S
C1332 C1333 1.386 . S
C1332 C1334 1.391 . S
C1333 C1332 1.386 . S
C1333 C1337 1.393 . S
C1334 H1326 0.950 . S
C1334 C1332 1.391 . S
C1334 C1335 1.400 . S
C1335 C1334 1.400 . S
C1335 C1336 1.398 . S
C1335 C1341 1.491 1_655 S
C1336 H1327 0.950 . S
C1336 C1335 1.398 . S
C1336 C1337 1.391 . S
C1337 H1325 0.950 . S
C1337 C1333 1.393 . S
C1337 C1336 1.391 . S
C1338 H1328 0.950 . S
C1338 C1339 1.386 . S
C1338 C1340 1.391 . S
C1339 C1338 1.386 . S
C1339 C1343 1.393 . S
C1340 H1329 0.950 . S
C1340 C1338 1.391 . S
C1340 C1341 1.400 . S
C1341 C1335 1.491 1_455 S
C1341 C1340 1.400 . S
C1341 C1342 1.398 . S
C1342 H1330 0.950 . S
C1342 C1341 1.398 . S
C1342 C1343 1.391 . S
C1343 H1331 0.950 . S
C1343 C1339 1.393 . S
C1343 C1342 1.391 . S
H1344 C1352 0.950 . S
H1345 C1357 0.950 . S
H1346 C1354 0.950 . S
H1347 C1356 0.950 . S
H1348 C1358 0.950 . S
H1349 C1360 0.950 . S
H1350 C1362 0.950 . S
H1351 C1363 0.950 . S
C1352 H1344 0.950 . S
C1352 C1353 1.386 . S
C1352 C1354 1.391 . S
C1353 C1352 1.386 . S
C1353 C1357 1.393 . S
C1354 H1346 0.950 . S
C1354 C1352 1.391 . S
C1354 C1355 1.400 . S
C1355 C1354 1.400 . S
C1355 C1356 1.398 . S
C1355 C1361 1.491 . S
C1356 H1347 0.950 . S
C1356 C1355 1.398 . S
C1356 C1357 1.391 . S
C1357 H1345 0.950 . S
C1357 C1353 1.393 . S
C1357 C1356 1.391 . S
C1358 H1348 0.950 . S
C1358 C1359 1.386 . S
C1358 C1360 1.391 . S
C1359 C1358 1.386 . S
C1359 C1363 1.393 . S
C1360 H1349 0.950 . S
C1360 C1358 1.391 . S
C1360 C1361 1.400 . S
C1361 C1355 1.491 . S
C1361 C1360 1.400 . S
C1361 C1362 1.398 . S
C1362 H1350 0.950 . S
C1362 C1361 1.398 . S
C1362 C1363 1.391 . S
C1363 H1351 0.950 . S
C1363 C1359 1.393 . S
C1363 C1362 1.391 . S
H1364 C1372 0.950 . S
H1365 C1377 0.950 . S
H1366 C1374 0.950 . S
H1367 C1376 0.950 . S
H1368 C1378 0.950 . S
H1369 C1380 0.950 . S
H1370 C1382 0.950 . S
H1371 C1383 0.950 . S
C1372 H1364 0.950 . S
C1372 C1373 1.386 . S
C1372 C1374 1.391 . S
C1373 C1372 1.386 . S
C1373 C1377 1.393 . S
C1374 H1366 0.950 . S
C1374 C1372 1.391 . S
C1374 C1375 1.400 . S
C1375 C1374 1.400 . S
C1375 C1376 1.398 . S
C1375 C1381 1.491 . S
C1376 H1367 0.950 . S
C1376 C1375 1.398 . S
C1376 C1377 1.391 . S
C1377 H1365 0.950 . S
C1377 C1373 1.393 . S
C1377 C1376 1.391 . S
C1378 H1368 0.950 . S
C1378 C1379 1.386 . S
C1378 C1380 1.391 . S
C1379 C1378 1.386 . S
C1379 C1383 1.393 . S
C1380 H1369 0.950 . S
C1380 C1378 1.391 . S
C1380 C1381 1.400 . S
C1381 C1375 1.491 . S
C1381 C1380 1.400 . S
C1381 C1382 1.398 . S
C1382 H1370 0.950 . S
C1382 C1381 1.398 . S
C1382 C1383 1.391 . S
C1383 H1371 0.950 . S
C1383 C1379 1.393 . S
C1383 C1382 1.391 . S
H1384 C1392 0.950 . S
H1385 C1397 0.950 . S
H1386 C1394 0.950 . S
H1387 C1396 0.950 . S
H1388 C1398 0.950 . S
H1389 C1400 0.950 . S
H1390 C1402 0.950 . S
H1391 C1403 0.950 . S
C1392 H1384 0.950 . S
C1392 C1393 1.386 . S
C1392 C1394 1.391 . S
C1393 C1392 1.386 . S
C1393 C1397 1.393 . S
C1394 H1386 0.950 . S
C1394 C1392 1.391 . S
C1394 C1395 1.400 . S
C1395 C1394 1.400 . S
C1395 C1396 1.398 . S
C1395 C1401 1.491 . S
C1396 H1387 0.950 . S
C1396 C1395 1.398 . S
C1396 C1397 1.391 . S
C1397 H1385 0.950 . S
C1397 C1393 1.393 . S
C1397 C1396 1.391 . S
C1398 H1388 0.950 . S
C1398 C1399 1.386 . S
C1398 C1400 1.391 . S
C1399 C1398 1.386 . S
C1399 C1403 1.393 . S
C1400 H1389 0.950 . S
C1400 C1398 1.391 . S
C1400 C1401 1.400 . S
C1401 C1395 1.491 . S
C1401 C1400 1.400 . S
C1401 C1402 1.398 . S
C1402 H1390 0.950 . S
C1402 C1401 1.398 . S
C1402 C1403 1.391 . S
C1403 H1391 0.950 . S
C1403 C1399 1.393 . S
C1403 C1402 1.391 . S
H1404 C1412 0.950 . S
H1405 C1417 0.950 . S
H1406 C1414 0.950 . S
H1407 C1416 0.950 . S
H1408 C1418 0.950 . S
H1409 C1420 0.950 . S
H1410 C1422 0.950 . S
H1411 C1423 0.950 . S
C1412 H1404 0.950 . S
C1412 C1413 1.386 . S
C1412 C1414 1.391 . S
C1413 C1412 1.386 . S
C1413 C1417 1.393 . S
C1414 H1406 0.950 . S
C1414 C1412 1.391 . S
C1414 C1415 1.400 . S
C1415 C1414 1.400 . S
C1415 C1416 1.398 . S
C1415 C1421 1.491 . S
C1416 H1407 0.950 . S
C1416 C1415 1.398 . S
C1416 C1417 1.391 . S
C1417 H1405 0.950 . S
C1417 C1413 1.393 . S
C1417 C1416 1.391 . S
C1418 H1408 0.950 . S
C1418 C1419 1.386 . S
C1418 C1420 1.391 . S
C1419 C1418 1.386 . S
C1419 C1423 1.393 . S
C1420 H1409 0.950 . S
C1420 C1418 1.391 . S
C1420 C1421 1.400 . S
C1421 C1415 1.491 . S
C1421 C1420 1.400 . S
C1421 C1422 1.398 . S
C1422 H1410 0.950 . S
C1422 C1421 1.398 . S
C1422 C1423 1.391 . S
C1423 H1411 0.950 . S
C1423 C1419 1.393 . S
C1423 C1422 1.391 . S
H1424 C1432 0.950 . S
H1425 C1437 0.950 1_556 S
H1426 C1434 0.950 . S
H1427 C1436 0.950 . S
H1428 C1438 0.950 . S
H1429 C1440 0.950 . S
H1430 C1442 0.950 . S
H1431 C1443 0.950 . S
C1432 H1424 0.950 . S
C1432 C1433 1.386 . S
C1432 C1434 1.391 . S
C1433 C1432 1.386 . S
C1433 C1437 1.393 . S
C1434 H1426 0.950 . S
C1434 C1432 1.391 . S
C1434 C1435 1.400 . S
C1435 C1434 1.400 . S
C1435 C1436 1.398 . S
C1435 C1441 1.491 . S
C1436 H1427 0.950 . S
C1436 C1435 1.398 . S
C1436 C1437 1.391 . S
C1437 H1425 0.950 1_554 S
C1437 C1433 1.393 . S
C1437 C1436 1.391 . S
C1438 H1428 0.950 . S
C1438 C1439 1.386 . S
C1438 C1440 1.391 . S
C1439 C1438 1.386 . S
C1439 C1443 1.393 . S
C1440 H1429 0.950 . S
C1440 C1438 1.391 . S
C1440 C1441 1.400 . S
C1441 C1435 1.491 . S
C1441 C1440 1.400 . S
C1441 C1442 1.398 . S
C1442 H1430 0.950 . S
C1442 C1441 1.398 . S
C1442 C1443 1.391 . S
C1443 H1431 0.950 . S
C1443 C1439 1.393 . S
C1443 C1442 1.391 . S
H1444 C1452 0.950 . S
H1445 C1457 0.950 . S
H1446 C1454 0.950 . S
H1447 C1456 0.950 . S
H1448 C1458 0.950 . S
H1449 C1460 0.950 . S
H1450 C1462 0.950 . S
H1451 C1463 0.950 1_556 S
C1452 H1444 0.950 . S
C1452 C1453 1.386 . S
C1452 C1454 1.391 . S
C1453 C1452 1.386 . S
C1453 C1457 1.393 . S
C1454 H1446 0.950 . S
C1454 C1452 1.391 . S
C1454 C1455 1.400 . S
C1455 C1454 1.400 . S
C1455 C1456 1.398 . S
C1455 C1461 1.491 . S
C1456 H1447 0.950 . S
C1456 C1455 1.398 . S
C1456 C1457 1.391 . S
C1457 H1445 0.950 . S
C1457 C1453 1.393 . S
C1457 C1456 1.391 . S
C1458 H1448 0.950 . S
C1458 C1459 1.386 . S
C1458 C1460 1.391 . S
C1459 C1458 1.386 . S
C1459 C1463 1.393 . S
C1460 H1449 0.950 . S
C1460 C1458 1.391 . S
C1460 C1461 1.400 . S
C1461 C1455 1.491 . S
C1461 C1460 1.400 . S
C1461 C1462 1.398 . S
C1462 H1450 0.950 . S
C1462 C1461 1.398 . S
C1462 C1463 1.391 . S
C1463 H1451 0.950 1_554 S
C1463 C1459 1.393 . S
C1463 C1462 1.391 . S
H1464 C1472 0.950 . S
H1465 C1477 0.950 . S
H1466 C1474 0.950 . S
H1467 C1476 0.950 . S
H1468 C1478 0.950 . S
H1469 C1480 0.950 . S
H1470 C1482 0.950 . S
H1471 C1483 0.950 . S
C1472 H1464 0.950 . S
C1472 C1473 1.386 . S
C1472 C1474 1.391 . S
C1473 C1472 1.386 . S
C1473 C1477 1.393 . S
C1474 H1466 0.950 . S
C1474 C1472 1.391 . S
C1474 C1475 1.400 . S
C1475 C1474 1.400 . S
C1475 C1476 1.398 . S
C1475 C1481 1.491 . S
C1476 H1467 0.950 . S
C1476 C1475 1.398 . S
C1476 C1477 1.391 . S
C1477 H1465 0.950 . S
C1477 C1473 1.393 . S
C1477 C1476 1.391 . S
C1478 H1468 0.950 . S
C1478 C1479 1.386 . S
C1478 C1480 1.391 . S
C1479 C1478 1.386 . S
C1479 C1483 1.393 . S
C1480 H1469 0.950 . S
C1480 C1478 1.391 . S
C1480 C1481 1.400 . S
C1481 C1475 1.491 . S
C1481 C1480 1.400 . S
C1481 C1482 1.398 . S
C1482 H1470 0.950 . S
C1482 C1481 1.398 . S
C1482 C1483 1.391 . S
C1483 H1471 0.950 . S
C1483 C1479 1.393 . S
C1483 C1482 1.391 . S
H1484 C1492 0.950 . S
H1485 C1497 0.950 . S
H1486 C1494 0.950 . S
H1487 C1496 0.950 . S
H1488 C1498 0.950 . S
H1489 C1500 0.950 . S
H1490 C1502 0.950 . S
H1491 C1503 0.950 . S
C1492 H1484 0.950 . S
C1492 C1493 1.386 . S
C1492 C1494 1.391 . S
C1493 C1492 1.386 . S
C1493 C1497 1.393 . S
C1494 H1486 0.950 . S
C1494 C1492 1.391 . S
C1494 C1495 1.400 . S
C1495 C1494 1.400 . S
C1495 C1496 1.398 . S
C1495 C1501 1.491 . S
C1496 H1487 0.950 . S
C1496 C1495 1.398 . S
C1496 C1497 1.391 . S
C1497 H1485 0.950 . S
C1497 C1493 1.393 . S
C1497 C1496 1.391 . S
C1498 H1488 0.950 . S
C1498 C1499 1.386 . S
C1498 C1500 1.391 . S
C1499 C1498 1.386 . S
C1499 C1503 1.393 . S
C1500 H1489 0.950 . S
C1500 C1498 1.391 . S
C1500 C1501 1.400 . S
C1501 C1495 1.491 . S
C1501 C1500 1.400 . S
C1501 C1502 1.398 . S
C1502 H1490 0.950 . S
C1502 C1501 1.398 . S
C1502 C1503 1.391 . S
C1503 H1491 0.950 . S
C1503 C1499 1.393 . S
C1503 C1502 1.391 . S
H1504 C1512 0.950 . S
H1505 C1517 0.950 . S
H1506 C1514 0.950 . S
H1507 C1516 0.950 . S
H1508 C1518 0.950 . S
H1509 C1520 0.950 . S
H1510 C1522 0.950 . S
H1511 C1523 0.950 1_554 S
C1512 H1504 0.950 . S
C1512 C1513 1.386 . S
C1512 C1514 1.391 . S
C1513 C1512 1.386 . S
C1513 C1517 1.393 . S
C1514 H1506 0.950 . S
C1514 C1512 1.391 . S
C1514 C1515 1.400 . S
C1515 C1514 1.400 . S
C1515 C1516 1.398 . S
C1515 C1521 1.491 . S
C1516 H1507 0.950 . S
C1516 C1515 1.398 . S
C1516 C1517 1.391 . S
C1517 H1505 0.950 . S
C1517 C1513 1.393 . S
C1517 C1516 1.391 . S
C1518 H1508 0.950 . S
C1518 C1519 1.386 . S
C1518 C1520 1.391 . S
C1519 C1518 1.386 . S
C1519 C1523 1.393 . S
C1520 H1509 0.950 . S
C1520 C1518 1.391 . S
C1520 C1521 1.400 . S
C1521 C1515 1.491 . S
C1521 C1520 1.400 . S
C1521 C1522 1.398 . S
C1522 H1510 0.950 . S
C1522 C1521 1.398 . S
C1522 C1523 1.391 . S
C1523 H1511 0.950 1_556 S
C1523 C1519 1.393 . S
C1523 C1522 1.391 . S
H1524 C1532 0.950 . S
H1525 C1537 0.950 . S
H1526 C1534 0.950 . S
H1527 C1536 0.950 . S
H1528 C1538 0.950 . S
H1529 C1540 0.950 . S
H1530 C1542 0.950 . S
H1531 C1543 0.950 . S
C1532 H1524 0.950 . S
C1532 C1533 1.386 . S
C1532 C1534 1.391 . S
C1533 C1532 1.386 . S
C1533 C1537 1.393 . S
C1534 H1526 0.950 . S
C1534 C1532 1.391 . S
C1534 C1535 1.400 . S
C1535 C1534 1.400 . S
C1535 C1536 1.398 . S
C1535 C1541 1.491 . S
C1536 H1527 0.950 . S
C1536 C1535 1.398 . S
C1536 C1537 1.391 . S
C1537 H1525 0.950 . S
C1537 C1533 1.393 . S
C1537 C1536 1.391 . S
C1538 H1528 0.950 . S
C1538 C1539 1.386 . S
C1538 C1540 1.391 . S
C1539 C1538 1.386 . S
C1539 C1543 1.393 . S
C1540 H1529 0.950 . S
C1540 C1538 1.391 . S
C1540 C1541 1.400 . S
C1541 C1535 1.491 . S
C1541 C1540 1.400 . S
C1541 C1542 1.398 . S
C1542 H1530 0.950 . S
C1542 C1541 1.398 . S
C1542 C1543 1.391 . S
C1543 H1531 0.950 . S
C1543 C1539 1.393 . S
C1543 C1542 1.391 . S
H1544 C1552 0.950 . S
H1545 C1557 0.950 . S
H1546 C1554 0.950 . S
H1547 C1556 0.950 . S
H1548 C1558 0.950 . S
H1549 C1560 0.950 . S
H1550 C1562 0.950 . S
H1551 C1563 0.950 . S
C1552 H1544 0.950 . S
C1552 C1553 1.386 . S
C1552 C1554 1.391 . S
C1553 C1552 1.386 . S
C1553 C1557 1.393 . S
C1554 H1546 0.950 . S
C1554 C1552 1.391 . S
C1554 C1555 1.400 . S
C1555 C1554 1.400 . S
C1555 C1556 1.398 . S
C1555 C1561 1.491 . S
C1556 H1547 0.950 . S
C1556 C1555 1.398 . S
C1556 C1557 1.391 . S
C1557 H1545 0.950 . S
C1557 C1553 1.393 . S
C1557 C1556 1.391 . S
C1558 H1548 0.950 . S
C1558 C1559 1.386 . S
C1558 C1560 1.391 . S
C1559 C1558 1.386 . S
C1559 C1563 1.393 . S
C1560 H1549 0.950 . S
C1560 C1558 1.391 . S
C1560 C1561 1.400 . S
C1561 C1555 1.491 . S
C1561 C1560 1.400 . S
C1561 C1562 1.398 . S
C1562 H1550 0.950 . S
C1562 C1561 1.398 . S
C1562 C1563 1.391 . S
C1563 H1551 0.950 . S
C1563 C1559 1.393 . S
C1563 C1562 1.391 . S
H1564 C1572 0.950 . S
H1565 C1577 0.950 . S
H1566 C1574 0.950 . S
H1567 C1576 0.950 . S
H1568 C1578 0.950 . S
H1569 C1580 0.950 . S
H1570 C1582 0.950 . S
H1571 C1583 0.950 . S
C1572 H1564 0.950 . S
C1572 C1573 1.386 . S
C1572 C1574 1.391 . S
C1573 C1572 1.386 . S
C1573 C1577 1.393 . S
C1574 H1566 0.950 . S
C1574 C1572 1.391 . S
C1574 C1575 1.400 . S
C1575 C1574 1.400 . S
C1575 C1576 1.398 . S
C1575 C1581 1.491 . S
C1576 H1567 0.950 . S
C1576 C1575 1.398 . S
C1576 C1577 1.391 . S
C1577 H1565 0.950 . S
C1577 C1573 1.393 . S
C1577 C1576 1.391 . S
C1578 H1568 0.950 . S
C1578 C1579 1.386 . S
C1578 C1580 1.391 . S
C1579 C1578 1.386 . S
C1579 C1583 1.393 . S
C1580 H1569 0.950 . S
C1580 C1578 1.391 . S
C1580 C1581 1.400 . S
C1581 C1575 1.491 . S
C1581 C1580 1.400 . S
C1581 C1582 1.398 . S
C1582 H1570 0.950 . S
C1582 C1581 1.398 . S
C1582 C1583 1.391 . S
C1583 H1571 0.950 . S
C1583 C1579 1.393 . S
C1583 C1582 1.391 . S
H1584 C1592 0.950 . S
H1585 C1597 0.950 . S
H1586 C1594 0.950 . S
H1587 C1596 0.950 . S
H1588 C1598 0.950 . S
H1589 C1600 0.950 . S
H1590 C1602 0.950 . S
H1591 C1603 0.950 . S
C1592 H1584 0.950 . S
C1592 C1593 1.386 . S
C1592 C1594 1.391 . S
C1593 C1592 1.386 . S
C1593 C1597 1.393 . S
C1594 H1586 0.950 . S
C1594 C1592 1.391 . S
C1594 C1595 1.400 . S
C1595 C1594 1.400 . S
C1595 C1596 1.398 . S
C1595 C1601 1.491 . S
C1596 H1587 0.950 . S
C1596 C1595 1.398 . S
C1596 C1597 1.391 . S
C1597 H1585 0.950 . S
C1597 C1593 1.393 . S
C1597 C1596 1.391 . S
C1598 H1588 0.950 . S
C1598 C1599 1.386 . S
C1598 C1600 1.391 . S
C1599 C1598 1.386 . S
C1599 C1603 1.393 . S
C1600 H1589 0.950 . S
C1600 C1598 1.391 . S
C1600 C1601 1.400 . S
C1601 C1595 1.491 . S
C1601 C1600 1.400 . S
C1601 C1602 1.398 . S
C1602 H1590 0.950 . S
C1602 C1601 1.398 . S
C1602 C1603 1.391 . S
C1603 H1591 0.950 . S
C1603 C1599 1.393 . S
C1603 C1602 1.391 . S
H1604 C1612 0.950 . S
H1605 C1617 0.950 . S
H1606 C1614 0.950 . S
H1607 C1616 0.950 . S
H1608 C1618 0.950 . S
H1609 C1620 0.950 . S
H1610 C1622 0.950 . S
H1611 C1623 0.950 . S
C1612 H1604 0.950 . S
C1612 C1613 1.386 . S
C1612 C1614 1.391 . S
C1613 C1612 1.386 . S
C1613 C1617 1.393 . S
C1614 H1606 0.950 . S
C1614 C1612 1.391 . S
C1614 C1615 1.400 . S
C1615 C1614 1.400 . S
C1615 C1616 1.398 . S
C1615 C1621 1.491 . S
C1616 H1607 0.950 . S
C1616 C1615 1.398 . S
C1616 C1617 1.391 . S
C1617 H1605 0.950 . S
C1617 C1613 1.393 . S
C1617 C1616 1.391 . S
C1618 H1608 0.950 . S
C1618 C1619 1.386 . S
C1618 C1620 1.391 . S
C1619 C1618 1.386 . S
C1619 C1623 1.393 . S
C1620 H1609 0.950 . S
C1620 C1618 1.391 . S
C1620 C1621 1.400 . S
C1621 C1615 1.491 . S
C1621 C1620 1.400 . S
C1621 C1622 1.398 . S
C1622 H1610 0.950 . S
C1622 C1621 1.398 . S
C1622 C1623 1.391 . S
C1623 H1611 0.950 . S
C1623 C1619 1.393 . S
C1623 C1622 1.391 . S
H1624 C1632 0.950 . S
H1625 C1637 0.950 . S
H1626 C1634 0.950 . S
H1627 C1636 0.950 . S
H1628 C1638 0.950 . S
H1629 C1640 0.950 . S
H1630 C1642 0.950 . S
H1631 C1643 0.950 . S
C1632 H1624 0.950 . S
C1632 C1633 1.386 . S
C1632 C1634 1.391 . S
C1633 C1632 1.386 . S
C1633 C1637 1.393 . S
C1634 H1626 0.950 . S
C1634 C1632 1.391 . S
C1634 C1635 1.400 . S
C1635 C1634 1.400 . S
C1635 C1636 1.398 . S
C1635 C1641 1.491 . S
C1636 H1627 0.950 . S
C1636 C1635 1.398 . S
C1636 C1637 1.391 . S
C1637 H1625 0.950 . S
C1637 C1633 1.393 . S
C1637 C1636 1.391 . S
C1638 H1628 0.950 . S
C1638 C1639 1.386 . S
C1638 C1640 1.391 . S
C1639 C1638 1.386 . S
C1639 C1643 1.393 . S
C1640 H1629 0.950 . S
C1640 C1638 1.391 . S
C1640 C1641 1.400 . S
C1641 C1635 1.491 . S
C1641 C1640 1.400 . S
C1641 C1642 1.398 . S
C1642 H1630 0.950 . S
C1642 C1641 1.398 . S
C1642 C1643 1.391 . S
C1643 H1631 0.950 . S
C1643 C1639 1.393 . S
C1643 C1642 1.391 . S
H1644 C1652 0.950 . S
H1645 C1657 0.950 . S
H1646 C1654 0.950 . S
H1647 C1656 0.950 . S
H1648 C1658 0.950 . S
H1649 C1660 0.950 . S
H1650 C1662 0.950 . S
H1651 C1663 0.950 . S
C1652 H1644 0.950 . S
C1652 C1653 1.386 . S
C1652 C1654 1.391 . S
C1653 C1652 1.386 . S
C1653 C1657 1.393 . S
C1654 H1646 0.950 . S
C1654 C1652 1.391 . S
C1654 C1655 1.400 . S
C1655 C1654 1.400 . S
C1655 C1656 1.398 . S
C1655 C1661 1.491 . S
C1656 H1647 0.950 . S
C1656 C1655 1.398 . S
C1656 C1657 1.391 . S
C1657 H1645 0.950 . S
C1657 C1653 1.393 . S
C1657 C1656 1.391 . S
C1658 H1648 0.950 . S
C1658 C1659 1.386 . S
C1658 C1660 1.391 . S
C1659 C1658 1.386 . S
C1659 C1663 1.393 . S
C1660 H1649 0.950 . S
C1660 C1658 1.391 . S
C1660 C1661 1.400 . S
C1661 C1655 1.491 . S
C1661 C1660 1.400 . S
C1661 C1662 1.398 . S
C1662 H1650 0.950 . S
C1662 C1661 1.398 . S
C1662 C1663 1.391 . S
C1663 H1651 0.950 . S
C1663 C1659 1.393 . S
C1663 C1662 1.391 . S
H1664 C1672 0.950 . S
H1665 C1677 0.950 . S
H1666 C1674 0.950 . S
H1667 C1676 0.950 . S
H1668 C1678 0.950 . S
H1669 C1680 0.950 . S
H1670 C1682 0.950 . S
H1671 C1683 0.950 . S
C1672 H1664 0.950 . S
C1672 C1673 1.386 . S
C1672 C1674 1.391 . S
C1673 C1672 1.386 . S
C1673 C1677 1.393 . S
C1674 H1666 0.950 . S
C1674 C1672 1.391 . S
C1674 C1675 1.400 . S
C1675 C1674 1.400 . S
C1675 C1676 1.398 . S
C1675 C1681 1.491 . S
C1676 H1667 0.950 . S
C1676 C1675 1.398 . S
C1676 C1677 1.391 . S
C1677 H1665 0.950 . S
C1677 C1673 1.393 . S
C1677 C1676 1.391 . S
C1678 H1668 0.950 . S
C1678 C1679 1.386 . S
C1678 C1680 1.391 . S
C1679 C1678 1.386 . S
C1679 C1683 1.393 . S
C1680 H1669 0.950 . S
C1680 C1678 1.391 . S
C1680 C1681 1.400 . S
C1681 C1675 1.491 . S
C1681 C1680 1.400 . S
C1681 C1682 1.398 . S
C1682 H1670 0.950 . S
C1682 C1681 1.398 . S
C1682 C1683 1.391 . S
C1683 H1671 0.950 . S
C1683 C1679 1.393 . S
C1683 C1682 1.391 . S
H1684 C1692 0.950 . S
H1685 C1697 0.950 . S
H1686 C1694 0.950 . S
H1687 C1696 0.950 . S
H1688 C1698 0.950 . S
H1689 C1700 0.950 . S
H1690 C1702 0.950 . S
H1691 C1703 0.950 . S
C1692 H1684 0.950 . S
C1692 C1693 1.386 . S
C1692 C1694 1.391 . S
C1693 C1692 1.386 . S
C1693 C1697 1.393 . S
C1694 H1686 0.950 . S
C1694 C1692 1.391 . S
C1694 C1695 1.400 . S
C1695 C1694 1.400 . S
C1695 C1696 1.398 . S
C1695 C1701 1.491 . S
C1696 H1687 0.950 . S
C1696 C1695 1.398 . S
C1696 C1697 1.391 . S
C1697 H1685 0.950 . S
C1697 C1693 1.393 . S
C1697 C1696 1.391 . S
C1698 H1688 0.950 . S
C1698 C1699 1.386 . S
C1698 C1700 1.391 . S
C1699 C1698 1.386 . S
C1699 C1703 1.393 . S
C1700 H1689 0.950 . S
C1700 C1698 1.391 . S
C1700 C1701 1.400 . S
C1701 C1695 1.491 . S
C1701 C1700 1.400 . S
C1701 C1702 1.398 . S
C1702 H1690 0.950 . S
C1702 C1701 1.398 . S
C1702 C1703 1.391 . S
C1703 H1691 0.950 . S
C1703 C1699 1.393 . S
C1703 C1702 1.391 . S
H1704 C1712 0.950 . S
H1705 C1717 0.950 . S
H1706 C1714 0.950 . S
H1707 C1716 0.950 . S
H1708 C1718 0.950 . S
H1709 C1720 0.950 . S
H1710 C1722 0.950 . S
H1711 C1723 0.950 . S
C1712 H1704 0.950 . S
C1712 C1713 1.386 . S
C1712 C1714 1.391 . S
C1713 C1712 1.386 . S
C1713 C1717 1.393 . S
C1714 H1706 0.950 . S
C1714 C1712 1.391 . S
C1714 C1715 1.400 . S
C1715 C1714 1.400 . S
C1715 C1716 1.398 . S
C1715 C1721 1.491 . S
C1716 H1707 0.950 . S
C1716 C1715 1.398 . S
C1716 C1717 1.391 . S
C1717 H1705 0.950 . S
C1717 C1713 1.393 . S
C1717 C1716 1.391 . S
C1718 H1708 0.950 . S
C1718 C1719 1.386 . S
C1718 C1720 1.391 . S
C1719 C1718 1.386 . S
C1719 C1723 1.393 . S
C1720 H1709 0.950 . S
C1720 C1718 1.391 . S
C1720 C1721 1.400 . S
C1721 C1715 1.491 . S
C1721 C1720 1.400 . S
C1721 C1722 1.398 . S
C1722 H1710 0.950 . S
C1722 C1721 1.398 . S
C1722 C1723 1.391 . S
C1723 H1711 0.950 . S
C1723 C1719 1.393 . S
C1723 C1722 1.391 . S
H1724 C1732 0.950 . S
H1725 C1737 0.950 . S
H1726 C1734 0.950 . S
H1727 C1736 0.950 . S
H1728 C1738 0.950 . S
H1729 C1740 0.950 . S
H1730 C1742 0.950 . S
H1731 C1743 0.950 . S
C1732 H1724 0.950 . S
C1732 C1733 1.386 . S
C1732 C1734 1.391 . S
C1733 C1732 1.386 . S
C1733 C1737 1.393 . S
C1734 H1726 0.950 . S
C1734 C1732 1.391 . S
C1734 C1735 1.400 . S
C1735 C1734 1.400 . S
C1735 C1736 1.398 . S
C1735 C1741 1.491 . S
C1736 H1727 0.950 . S
C1736 C1735 1.398 . S
C1736 C1737 1.391 . S
C1737 H1725 0.950 . S
C1737 C1733 1.393 . S
C1737 C1736 1.391 . S
C1738 H1728 0.950 . S
C1738 C1739 1.386 . S
C1738 C1740 1.391 . S
C1739 C1738 1.386 . S
C1739 C1743 1.393 . S
C1740 H1729 0.950 . S
C1740 C1738 1.391 . S
C1740 C1741 1.400 . S
C1741 C1735 1.491 . S
C1741 C1740 1.400 . S
C1741 C1742 1.398 . S
C1742 H1730 0.950 . S
C1742 C1741 1.398 . S
C1742 C1743 1.391 . S
C1743 H1731 0.950 . S
C1743 C1739 1.393 . S
C1743 C1742 1.391 . S
H1744 C1752 0.950 . S
H1745 C1757 0.950 . S
H1746 C1754 0.950 . S
H1747 C1756 0.950 . S
H1748 C1758 0.950 . S
H1749 C1760 0.950 . S
H1750 C1762 0.950 . S
H1751 C1763 0.950 . S
C1752 H1744 0.950 . S
C1752 C1753 1.386 . S
C1752 C1754 1.391 . S
C1753 C1752 1.386 . S
C1753 C1757 1.393 . S
C1754 H1746 0.950 . S
C1754 C1752 1.391 . S
C1754 C1755 1.400 . S
C1755 C1754 1.400 . S
C1755 C1756 1.398 . S
C1755 C1761 1.491 . S
C1756 H1747 0.950 . S
C1756 C1755 1.398 . S
C1756 C1757 1.391 . S
C1757 H1745 0.950 . S
C1757 C1753 1.393 . S
C1757 C1756 1.391 . S
C1758 H1748 0.950 . S
C1758 C1759 1.386 . S
C1758 C1760 1.391 . S
C1759 C1758 1.386 . S
C1759 C1763 1.393 . S
C1760 H1749 0.950 . S
C1760 C1758 1.391 . S
C1760 C1761 1.400 . S
C1761 C1755 1.491 . S
C1761 C1760 1.400 . S
C1761 C1762 1.398 . S
C1762 H1750 0.950 . S
C1762 C1761 1.398 . S
C1762 C1763 1.391 . S
C1763 H1751 0.950 . S
C1763 C1759 1.393 . S
C1763 C1762 1.391 . S
H1764 C1772 0.950 . S
H1765 C1777 0.950 . S
H1766 C1774 0.950 . S
H1767 C1776 0.950 . S
H1768 C1778 0.950 . S
H1769 C1780 0.950 . S
H1770 C1782 0.950 . S
H1771 C1783 0.950 . S
C1772 H1764 0.950 . S
C1772 C1773 1.386 . S
C1772 C1774 1.391 . S
C1773 C1772 1.386 . S
C1773 C1777 1.393 . S
C1774 H1766 0.950 . S
C1774 C1772 1.391 . S
C1774 C1775 1.400 . S
C1775 C1774 1.400 . S
C1775 C1776 1.398 . S
C1775 C1781 1.491 . S
C1776 H1767 0.950 . S
C1776 C1775 1.398 . S
C1776 C1777 1.391 . S
C1777 H1765 0.950 . S
C1777 C1773 1.393 . S
C1777 C1776 1.391 . S
C1778 H1768 0.950 . S
C1778 C1779 1.386 . S
C1778 C1780 1.391 . S
C1779 C1778 1.386 . S
C1779 C1783 1.393 . S
C1780 H1769 0.950 . S
C1780 C1778 1.391 . S
C1780 C1781 1.400 . S
C1781 C1775 1.491 . S
C1781 C1780 1.400 . S
C1781 C1782 1.398 . S
C1782 H1770 0.950 . S
C1782 C1781 1.398 . S
C1782 C1783 1.391 . S
C1783 H1771 0.950 . S
C1783 C1779 1.393 . S
C1783 C1782 1.391 . S
H1784 C1792 0.950 . S
H1785 C1797 0.950 . S
H1786 C1794 0.950 . S
H1787 C1796 0.950 . S
H1788 C1798 0.950 . S
H1789 C1800 0.950 . S
H1790 C1802 0.950 . S
H1791 C1803 0.950 . S
C1792 H1784 0.950 . S
C1792 C1793 1.386 . S
C1792 C1794 1.391 . S
C1793 C1792 1.386 . S
C1793 C1797 1.393 . S
C1794 H1786 0.950 . S
C1794 C1792 1.391 . S
C1794 C1795 1.400 . S
C1795 C1794 1.400 . S
C1795 C1796 1.398 . S
C1795 C1801 1.491 . S
C1796 H1787 0.950 . S
C1796 C1795 1.398 . S
C1796 C1797 1.391 . S
C1797 H1785 0.950 . S
C1797 C1793 1.393 . S
C1797 C1796 1.391 . S
C1798 H1788 0.950 . S
C1798 C1799 1.386 . S
C1798 C1800 1.391 . S
C1799 C1798 1.386 . S
C1799 C1803 1.393 . S
C1800 H1789 0.950 . S
C1800 C1798 1.391 . S
C1800 C1801 1.400 . S
C1801 C1795 1.491 . S
C1801 C1800 1.400 . S
C1801 C1802 1.398 . S
C1802 H1790 0.950 . S
C1802 C1801 1.398 . S
C1802 C1803 1.391 . S
C1803 H1791 0.950 . S
C1803 C1799 1.393 . S
C1803 C1802 1.391 . S
H1804 C1812 0.950 . S
H1805 C1817 0.950 . S
H1806 C1814 0.950 . S
H1807 C1816 0.950 . S
H1808 C1818 0.950 . S
H1809 C1820 0.950 . S
H1810 C1822 0.950 . S
H1811 C1823 0.950 . S
C1812 H1804 0.950 . S
C1812 C1813 1.386 . S
C1812 C1814 1.391 . S
C1813 C1812 1.386 . S
C1813 C1817 1.393 . S
C1814 H1806 0.950 . S
C1814 C1812 1.391 . S
C1814 C1815 1.400 . S
C1815 C1814 1.400 . S
C1815 C1816 1.398 . S
C1815 C1821 1.491 . S
C1816 H1807 0.950 . S
C1816 C1815 1.398 . S
C1816 C1817 1.391 . S
C1817 H1805 0.950 . S
C1817 C1813 1.393 . S
C1817 C1816 1.391 . S
C1818 H1808 0.950 . S
C1818 C1819 1.386 . S
C1818 C1820 1.391 . S
C1819 C1818 1.386 . S
C1819 C1823 1.393 . S
C1820 H1809 0.950 . S
C1820 C1818 1.391 . S
C1820 C1821 1.400 . S
C1821 C1815 1.491 . S
C1821 C1820 1.400 . S
C1821 C1822 1.398 . S
C1822 H1810 0.950 . S
C1822 C1821 1.398 . S
C1822 C1823 1.391 . S
C1823 H1811 0.950 . S
C1823 C1819 1.393 . S
C1823 C1822 1.391 . S
H1824 C1832 0.950 . S
H1825 C1837 0.950 . S
H1826 C1834 0.950 . S
H1827 C1836 0.950 . S
H1828 C1838 0.950 . S
H1829 C1840 0.950 . S
H1830 C1842 0.950 . S
H1831 C1843 0.950 . S
C1832 H1824 0.950 . S
C1832 C1833 1.386 . S
C1832 C1834 1.391 . S
C1833 C1832 1.386 . S
C1833 C1837 1.393 . S
C1834 H1826 0.950 . S
C1834 C1832 1.391 . S
C1834 C1835 1.400 . S
C1835 C1834 1.400 . S
C1835 C1836 1.398 . S
C1835 C1841 1.491 1_455 S
C1836 H1827 0.950 . S
C1836 C1835 1.398 . S
C1836 C1837 1.391 . S
C1837 H1825 0.950 . S
C1837 C1833 1.393 . S
C1837 C1836 1.391 . S
C1838 H1828 0.950 . S
C1838 C1839 1.386 . S
C1838 C1840 1.391 . S
C1839 C1838 1.386 . S
C1839 C1843 1.393 . S
C1840 H1829 0.950 . S
C1840 C1838 1.391 . S
C1840 C1841 1.400 . S
C1841 C1835 1.491 1_655 S
C1841 C1840 1.400 . S
C1841 C1842 1.398 . S
C1842 H1830 0.950 . S
C1842 C1841 1.398 . S
C1842 C1843 1.391 . S
C1843 H1831 0.950 . S
C1843 C1839 1.393 . S
C1843 C1842 1.391 . S
H1844 C1852 0.950 . S
H1845 C1857 0.950 . S
H1846 C1854 0.950 . S
H1847 C1856 0.950 . S
H1848 C1858 0.950 . S
H1849 C1860 0.950 . S
H1850 C1862 0.950 . S
H1851 C1863 0.950 . S
C1852 H1844 0.950 . S
C1852 C1853 1.386 . S
C1852 C1854 1.391 . S
C1853 C1852 1.386 . S
C1853 C1857 1.393 . S
C1854 H1846 0.950 . S
C1854 C1852 1.391 . S
C1854 C1855 1.400 . S
C1855 C1854 1.400 . S
C1855 C1856 1.398 . S
C1855 C1861 1.491 . S
C1856 H1847 0.950 . S
C1856 C1855 1.398 . S
C1856 C1857 1.391 . S
C1857 H1845 0.950 . S
C1857 C1853 1.393 . S
C1857 C1856 1.391 . S
C1858 H1848 0.950 . S
C1858 C1859 1.386 . S
C1858 C1860 1.391 . S
C1859 C1858 1.386 . S
C1859 C1863 1.393 . S
C1860 H1849 0.950 . S
C1860 C1858 1.391 . S
C1860 C1861 1.400 . S
C1861 C1855 1.491 . S
C1861 C1860 1.400 . S
C1861 C1862 1.398 . S
C1862 H1850 0.950 . S
C1862 C1861 1.398 . S
C1862 C1863 1.391 . S
C1863 H1851 0.950 . S
C1863 C1859 1.393 . S
C1863 C1862 1.391 . S
H1864 C1872 0.950 . S
H1865 C1877 0.950 . S
H1866 C1874 0.950 . S
H1867 C1876 0.950 . S
H1868 C1878 0.950 . S
H1869 C1880 0.950 . S
H1870 C1882 0.950 . S
H1871 C1883 0.950 . S
C1872 H1864 0.950 . S
C1872 C1873 1.386 . S
C1872 C1874 1.391 . S
C1873 C1872 1.386 . S
C1873 C1877 1.393 . S
C1874 H1866 0.950 . S
C1874 C1872 1.391 . S
C1874 C1875 1.400 . S
C1875 C1874 1.400 . S
C1875 C1876 1.398 . S
C1875 C1881 1.491 1_545 S
C1876 H1867 0.950 . S
C1876 C1875 1.398 . S
C1876 C1877 1.391 . S
C1877 H1865 0.950 . S
C1877 C1873 1.393 . S
C1877 C1876 1.391 . S
C1878 H1868 0.950 . S
C1878 C1879 1.386 . S
C1878 C1880 1.391 . S
C1879 C1878 1.386 . S
C1879 C1883 1.393 . S
C1880 H1869 0.950 . S
C1880 C1878 1.391 . S
C1880 C1881 1.400 . S
C1881 C1875 1.491 1_565 S
C1881 C1880 1.400 . S
C1881 C1882 1.398 . S
C1882 H1870 0.950 . S
C1882 C1881 1.398 . S
C1882 C1883 1.391 . S
C1883 H1871 0.950 . S
C1883 C1879 1.393 . S
C1883 C1882 1.391 . S
H1884 C1892 0.950 . S
H1885 C1897 0.950 . S
H1886 C1894 0.950 . S
H1887 C1896 0.950 . S
H1888 C1898 0.950 . S
H1889 C1900 0.950 . S
H1890 C1902 0.950 . S
H1891 C1903 0.950 . S
C1892 H1884 0.950 . S
C1892 C1893 1.386 1_556 S
C1892 C1894 1.391 . S
C1893 C1892 1.386 1_554 S
C1893 C1897 1.393 . S
C1894 H1886 0.950 . S
C1894 C1892 1.391 . S
C1894 C1895 1.400 1_556 S
C1895 C1894 1.400 1_554 S
C1895 C1896 1.398 . S
C1895 C1901 1.491 1_544 S
C1896 H1887 0.950 . S
C1896 C1895 1.398 . S
C1896 C1897 1.391 . S
C1897 H1885 0.950 . S
C1897 C1893 1.393 . S
C1897 C1896 1.391 . S
C1898 H1888 0.950 . S
C1898 C1899 1.386 1_554 S
C1898 C1900 1.391 . S
C1899 C1898 1.386 1_556 S
C1899 C1903 1.393 . S
C1900 H1889 0.950 . S
C1900 C1898 1.391 . S
C1900 C1901 1.400 1_554 S
C1901 C1895 1.491 1_566 S
C1901 C1900 1.400 1_556 S
C1901 C1902 1.398 . S
C1902 H1890 0.950 . S
C1902 C1901 1.398 . S
C1902 C1903 1.391 . S
C1903 H1891 0.950 . S
C1903 C1899 1.393 . S
C1903 C1902 1.391 . S
H1904 C1912 0.950 . S
H1905 C1917 0.950 . S
H1906 C1914 0.950 . S
H1907 C1916 0.950 . S
H1908 C1918 0.950 . S
H1909 C1920 0.950 . S
H1910 C1922 0.950 . S
H1911 C1923 0.950 . S
C1912 H1904 0.950 . S
C1912 C1913 1.386 1_556 S
C1912 C1914 1.391 . S
C1913 C1912 1.386 1_554 S
C1913 C1917 1.393 . S
C1914 H1906 0.950 . S
C1914 C1912 1.391 . S
C1914 C1915 1.400 1_556 S
C1915 C1914 1.400 1_554 S
C1915 C1916 1.398 . S
C1915 C1921 1.491 1_654 S
C1916 H1907 0.950 . S
C1916 C1915 1.398 . S
C1916 C1917 1.391 . S
C1917 H1905 0.950 . S
C1917 C1913 1.393 . S
C1917 C1916 1.391 . S
C1918 H1908 0.950 . S
C1918 C1919 1.386 1_554 S
C1918 C1920 1.391 . S
C1919 C1918 1.386 1_556 S
C1919 C1923 1.393 . S
C1920 H1909 0.950 . S
C1920 C1918 1.391 . S
C1920 C1921 1.400 1_554 S
C1921 C1915 1.491 1_456 S
C1921 C1920 1.400 1_556 S
C1921 C1922 1.398 . S
C1922 H1910 0.950 . S
C1922 C1921 1.398 . S
C1922 C1923 1.391 . S
C1923 H1911 0.950 . S
C1923 C1919 1.393 . S
C1923 C1922 1.391 . S
H1924 C1932 0.950 . S
H1925 C1937 0.950 . S
H1926 C1934 0.950 1_556 S
H1927 C1936 0.950 . S
H1928 C1938 0.950 . S
H1929 C1940 0.950 1_554 S
H1930 C1942 0.950 . S
H1931 C1943 0.950 . S
C1932 H1924 0.950 . S
C1932 C1933 1.386 . S
C1932 C1934 1.391 . S
C1933 C1932 1.386 . S
C1933 C1937 1.393 . S
C1934 H1926 0.950 1_554 S
C1934 C1932 1.391 . S
C1934 C1935 1.400 . S
C1935 C1934 1.400 . S
C1935 C1936 1.398 . S
C1935 C1941 1.491 1_554 S
C1936 H1927 0.950 . S
C1936 C1935 1.398 . S
C1936 C1937 1.391 . S
C1937 H1925 0.950 . S
C1937 C1933 1.393 . S
C1937 C1936 1.391 . S
C1938 H1928 0.950 . S
C1938 C1939 1.386 . S
C1938 C1940 1.391 . S
C1939 C1938 1.386 . S
C1939 C1943 1.393 . S
C1940 H1929 0.950 1_556 S
C1940 C1938 1.391 . S
C1940 C1941 1.400 . S
C1941 C1935 1.491 1_556 S
C1941 C1940 1.400 . S
C1941 C1942 1.398 . S
C1942 H1930 0.950 . S
C1942 C1941 1.398 . S
C1942 C1943 1.391 . S
C1943 H1931 0.950 . S
C1943 C1939 1.393 . S
C1943 C1942 1.391 . S
C513 C149 1.150 . S
C519 C0 1.161 . S
C533 C163 1.176 . S
C539 C14 1.168 . S
C553 C28 1.156 . S
C559 C135 1.169 . S
C573 C42 1.157 . S
C579 C121 1.171 . S
C593 C56 1.180 . S
C599 C93 1.159 . S
C613 C107 1.159 . S
C619 C70 1.180 . S
C633 C65 1.171 . S
C639 C84 1.176 . S
C653 C79 1.165 . S
C659 C98 1.180 . S
C673 C112 1.180 . S
C679 C51 1.159 . S
C693 C37 1.149 . S
C699 C126 1.163 . S
C713 C140 1.163 . S
C719 C9 1.175 . S
C733 C154 1.164 . S
C739 C23 1.148 . S
C753 C317 1.150 . S
C759 C168 1.161 . S
C773 C331 1.175 . S
C779 C182 1.171 . S
C793 C196 1.178 . S
C799 C303 1.153 . S
C813 C210 1.157 . S
C819 C289 1.171 . S
C833 C224 1.175 . S
C839 C261 1.172 . S
C853 C238 1.155 . S
C859 C275 1.161 . S
C873 C233 1.176 . S
C879 C252 1.167 . S
C893 C247 1.148 . S
C899 C266 1.168 . S
C913 C219 1.153 . S
C919 C280 1.158 . S
C933 C205 1.153 . S
C939 C294 1.178 . S
C953 C177 1.170 . S
C959 C308 1.157 . S
C973 C191 1.155 . S
C979 C322 1.157 . S
C993 C336 1.176 . S
C999 C485 1.150 . S
C1013 C499 1.151 . S
C1019 C350 1.177 . S
C1033 C471 1.164 . S
C1039 C364 1.155 . S
C1053 C378 1.178 . S
C1059 C457 1.169 . S
C1073 C392 1.162 . S
C1079 C429 1.149 . S
C1093 C406 1.167 . S
C1099 C443 1.176 . S
C1113 C401 1.153 . S
C1119 C420 1.178 . S
C1133 C415 1.154 . S
C1139 C434 1.157 . S
C1153 C387 1.147 . S
C1159 C448 1.168 . S
C1173 C462 1.155 . S
C1179 C373 1.167 . S
C1193 C345 1.149 . S
C1199 C476 1.175 . S
C1213 C490 1.175 . S
C1219 C359 1.172 . S
C1233 C53 1.483 . S
C1239 C11 1.485 . S
C1253 C67 1.490 . S
C1259 C25 1.485 . S
C1273 C39 1.490 . S
C1279 C81 1.484 . S
C1293 C137 1.486 . S
C1299 C95 1.483 . S
C1313 C151 1.491 . S
C1319 C109 1.486 . S
C1333 C165 1.492 . S
C1339 C123 1.494 . S
C1353 C221 1.493 . S
C1359 C179 1.491 . S
C1373 C235 1.484 . S
C1379 C193 1.485 . S
C1393 C207 1.484 . S
C1399 C249 1.485 . S
C1413 C263 1.489 . S
C1419 C305 1.493 . S
C1433 C319 1.492 . S
C1439 C277 1.486 . S
C1453 C291 1.491 . S
C1459 C333 1.485 . S
C1473 C389 1.493 . S
C1479 C347 1.489 . S
C1493 C403 1.486 . S
C1499 C361 1.483 . S
C1513 C375 1.488 . S
C1519 C417 1.493 . S
C1533 C431 1.485 . S
C1539 C473 1.483 . S
C1553 C445 1.485 . S
C1559 C487 1.490 . S
C1573 C459 1.493 . S
C1579 C501 1.493 . S
C1593 C5 1.494 . S
C1599 C257 1.494 . S
C1613 C271 1.496 . S
C1619 C19 1.496 . S
C1633 C285 1.489 . S
C1639 C33 1.489 . S
C1653 C467 1.491 . S
C1659 C47 1.491 . S
C1673 C481 1.488 . S
C1679 C61 1.488 . S
C1693 C495 1.489 . S
C1699 C75 1.489 . S
C1713 C89 1.493 . S
C1719 C341 1.493 . S
C1733 C355 1.497 . S
C1739 C103 1.497 . S
C1753 C369 1.489 . S
C1759 C117 1.489 . S
C1773 C131 1.492 . S
C1779 C215 1.492 . S
C1793 C145 1.489 . S
C1799 C229 1.489 . S
C1813 C159 1.497 . S
C1819 C243 1.497 . S
C1833 C425 1.496 . S
C1839 C173 1.496 . S
C1853 C439 1.497 . S
C1859 C187 1.497 . S
C1873 C201 1.493 . S
C1879 C453 1.493 . S
C1893 C299 1.488 . S
C1899 C383 1.488 . S
C1913 C313 1.492 . S
C1919 C397 1.492 . S
C1933 C327 1.489 . S
C1939 C411 1.489 . S
